# Generated by pormake.
# Topology ctn, (3,4)-cn, num edge types: 1
# Building blocks:
#     Node 0, Type 0, BuildingBlock: BETDIP_clean_linker_0, # of connection points: 3
#     Node 1, Type 0, BuildingBlock: BETDIP_clean_linker_0, # of connection points: 3
#     Node 2, Type 0, BuildingBlock: BETDIP_clean_linker_0, # of connection points: 3
#     Node 3, Type 0, BuildingBlock: BETDIP_clean_linker_0, # of connection points: 3
#     Node 4, Type 0, BuildingBlock: BETDIP_clean_linker_0, # of connection points: 3
#     Node 5, Type 0, BuildingBlock: BETDIP_clean_linker_0, # of connection points: 3
#     Node 6, Type 0, BuildingBlock: BETDIP_clean_linker_0, # of connection points: 3
#     Node 7, Type 0, BuildingBlock: BETDIP_clean_linker_0, # of connection points: 3
#     Node 8, Type 0, BuildingBlock: BETDIP_clean_linker_0, # of connection points: 3
#     Node 9, Type 0, BuildingBlock: BETDIP_clean_linker_0, # of connection points: 3
#     Node 10, Type 0, BuildingBlock: BETDIP_clean_linker_0, # of connection points: 3
#     Node 11, Type 0, BuildingBlock: BETDIP_clean_linker_0, # of connection points: 3
#     Node 12, Type 0, BuildingBlock: BETDIP_clean_linker_0, # of connection points: 3
#     Node 13, Type 0, BuildingBlock: BETDIP_clean_linker_0, # of connection points: 3
#     Node 14, Type 0, BuildingBlock: BETDIP_clean_linker_0, # of connection points: 3
#     Node 15, Type 0, BuildingBlock: BETDIP_clean_linker_0, # of connection points: 3
#     Node 16, Type 1, BuildingBlock: QUQFOY_clean_sbu_1, # of connection points: 4
#     Node 17, Type 1, BuildingBlock: QUQFOY_clean_sbu_1, # of connection points: 4
#     Node 18, Type 1, BuildingBlock: QUQFOY_clean_sbu_1, # of connection points: 4
#     Node 19, Type 1, BuildingBlock: QUQFOY_clean_sbu_1, # of connection points: 4
#     Node 20, Type 1, BuildingBlock: QUQFOY_clean_sbu_1, # of connection points: 4
#     Node 21, Type 1, BuildingBlock: QUQFOY_clean_sbu_1, # of connection points: 4
#     Node 22, Type 1, BuildingBlock: QUQFOY_clean_sbu_1, # of connection points: 4
#     Node 23, Type 1, BuildingBlock: QUQFOY_clean_sbu_1, # of connection points: 4
#     Node 24, Type 1, BuildingBlock: QUQFOY_clean_sbu_1, # of connection points: 4
#     Node 25, Type 1, BuildingBlock: QUQFOY_clean_sbu_1, # of connection points: 4
#     Node 26, Type 1, BuildingBlock: QUQFOY_clean_sbu_1, # of connection points: 4
#     Node 27, Type 1, BuildingBlock: QUQFOY_clean_sbu_1, # of connection points: 4
#     Edge 28, Type (0, 1), BuildingBlock: AJUNOK_clean_linker_0, # of connection points: 2
#     Edge 29, Type (0, 1), BuildingBlock: AJUNOK_clean_linker_0, # of connection points: 2
#     Edge 30, Type (0, 1), BuildingBlock: AJUNOK_clean_linker_0, # of connection points: 2
#     Edge 31, Type (0, 1), BuildingBlock: AJUNOK_clean_linker_0, # of connection points: 2
#     Edge 32, Type (0, 1), BuildingBlock: AJUNOK_clean_linker_0, # of connection points: 2
#     Edge 33, Type (0, 1), BuildingBlock: AJUNOK_clean_linker_0, # of connection points: 2
#     Edge 34, Type (0, 1), BuildingBlock: AJUNOK_clean_linker_0, # of connection points: 2
#     Edge 35, Type (0, 1), BuildingBlock: AJUNOK_clean_linker_0, # of connection points: 2
#     Edge 36, Type (0, 1), BuildingBlock: AJUNOK_clean_linker_0, # of connection points: 2
#     Edge 37, Type (0, 1), BuildingBlock: AJUNOK_clean_linker_0, # of connection points: 2
#     Edge 38, Type (0, 1), BuildingBlock: AJUNOK_clean_linker_0, # of connection points: 2
#     Edge 39, Type (0, 1), BuildingBlock: AJUNOK_clean_linker_0, # of connection points: 2
#     Edge 40, Type (0, 1), BuildingBlock: AJUNOK_clean_linker_0, # of connection points: 2
#     Edge 41, Type (0, 1), BuildingBlock: AJUNOK_clean_linker_0, # of connection points: 2
#     Edge 42, Type (0, 1), BuildingBlock: AJUNOK_clean_linker_0, # of connection points: 2
#     Edge 43, Type (0, 1), BuildingBlock: AJUNOK_clean_linker_0, # of connection points: 2
#     Edge 44, Type (0, 1), BuildingBlock: AJUNOK_clean_linker_0, # of connection points: 2
#     Edge 45, Type (0, 1), BuildingBlock: AJUNOK_clean_linker_0, # of connection points: 2
#     Edge 46, Type (0, 1), BuildingBlock: AJUNOK_clean_linker_0, # of connection points: 2
#     Edge 47, Type (0, 1), BuildingBlock: AJUNOK_clean_linker_0, # of connection points: 2
#     Edge 48, Type (0, 1), BuildingBlock: AJUNOK_clean_linker_0, # of connection points: 2
#     Edge 49, Type (0, 1), BuildingBlock: AJUNOK_clean_linker_0, # of connection points: 2
#     Edge 50, Type (0, 1), BuildingBlock: AJUNOK_clean_linker_0, # of connection points: 2
#     Edge 51, Type (0, 1), BuildingBlock: AJUNOK_clean_linker_0, # of connection points: 2
#     Edge 52, Type (0, 1), BuildingBlock: AJUNOK_clean_linker_0, # of connection points: 2
#     Edge 53, Type (0, 1), BuildingBlock: AJUNOK_clean_linker_0, # of connection points: 2
#     Edge 54, Type (0, 1), BuildingBlock: AJUNOK_clean_linker_0, # of connection points: 2
#     Edge 55, Type (0, 1), BuildingBlock: AJUNOK_clean_linker_0, # of connection points: 2
#     Edge 56, Type (0, 1), BuildingBlock: AJUNOK_clean_linker_0, # of connection points: 2
#     Edge 57, Type (0, 1), BuildingBlock: AJUNOK_clean_linker_0, # of connection points: 2
#     Edge 58, Type (0, 1), BuildingBlock: AJUNOK_clean_linker_0, # of connection points: 2
#     Edge 59, Type (0, 1), BuildingBlock: AJUNOK_clean_linker_0, # of connection points: 2
#     Edge 60, Type (0, 1), BuildingBlock: AJUNOK_clean_linker_0, # of connection points: 2
#     Edge 61, Type (0, 1), BuildingBlock: AJUNOK_clean_linker_0, # of connection points: 2
#     Edge 62, Type (0, 1), BuildingBlock: AJUNOK_clean_linker_0, # of connection points: 2
#     Edge 63, Type (0, 1), BuildingBlock: AJUNOK_clean_linker_0, # of connection points: 2
#     Edge 64, Type (0, 1), BuildingBlock: AJUNOK_clean_linker_0, # of connection points: 2
#     Edge 65, Type (0, 1), BuildingBlock: AJUNOK_clean_linker_0, # of connection points: 2
#     Edge 66, Type (0, 1), BuildingBlock: AJUNOK_clean_linker_0, # of connection points: 2
#     Edge 67, Type (0, 1), BuildingBlock: AJUNOK_clean_linker_0, # of connection points: 2
#     Edge 68, Type (0, 1), BuildingBlock: AJUNOK_clean_linker_0, # of connection points: 2
#     Edge 69, Type (0, 1), BuildingBlock: AJUNOK_clean_linker_0, # of connection points: 2
#     Edge 70, Type (0, 1), BuildingBlock: AJUNOK_clean_linker_0, # of connection points: 2
#     Edge 71, Type (0, 1), BuildingBlock: AJUNOK_clean_linker_0, # of connection points: 2
#     Edge 72, Type (0, 1), BuildingBlock: AJUNOK_clean_linker_0, # of connection points: 2
#     Edge 73, Type (0, 1), BuildingBlock: AJUNOK_clean_linker_0, # of connection points: 2
#     Edge 74, Type (0, 1), BuildingBlock: AJUNOK_clean_linker_0, # of connection points: 2
#     Edge 75, Type (0, 1), BuildingBlock: AJUNOK_clean_linker_0, # of connection points: 2
# Relax obj value: 0.098
# Max RMSD: 0.198
# Mean RMSD: 0.137
data_MOF--net-ctn--node1-QUQFOY_clean_sbu_1--node2-BETDIP_clean_linker_0--edge1-AJUNOK_clean_linker_0
_symmetry_space_group_name_H-M    P1
_symmetry_Int_Tables_number       1
_symmetry_cell_setting            triclinic
loop_
_symmetry_equiv_pos_as_xyz
'x, y, z'
_cell_length_a     38.434576
_cell_length_b     38.61352
_cell_length_c     43.228212
_cell_angle_alpha  97.106633
_cell_angle_beta   93.927768
_cell_angle_gamma 98.120021
loop_
_atom_site_label
_atom_site_type_symbol
_atom_site_fract_x
_atom_site_fract_y
_atom_site_fract_z
_atom_type_partial_charge
H0 H 0.00985 0.0717 0.0796 0.0
H1 H 0.08457 0.03842 0.01747 0.0
H2 H 0.08324 0.00493 0.10863 0.0
H3 H 0.07971 0.08847 -0.00167 0.0
C4 C 0.05291 0.09345 0.00095 0.0
C5 C 0.03182 0.05755 0.07521 0.0
C6 C 0.04447 0.03788 0.09762 0.0
C7 C 0.04712 0.05915 0.04689 0.0
C8 C 0.07412 0.03915 0.0401 0.0
C9 C 0.08726 0.01917 0.06207 0.0
C10 C 0.07257 0.01914 0.09102 0.0
N11 N 0.0344 0.08084 0.02572 0.0
H12 H 0.22881 0.71908 0.22674 0.0
H13 H 0.33161 0.78055 0.24527 0.0
H14 H 0.30154 0.69549 0.29842 0.0
H15 H 0.2952 0.82444 0.22647 0.0
C16 C 0.28538 0.80576 0.20576 0.0
C17 C 0.25429 0.72457 0.24019 0.0
C18 C 0.26256 0.70336 0.2629 0.0
C19 C 0.27869 0.75272 0.23422 0.0
C20 C 0.31194 0.76009 0.25127 0.0
C21 C 0.32038 0.73978 0.27485 0.0
C22 C 0.2953 0.7116 0.28059 0.0
N23 N 0.27019 0.77088 0.20887 0.0
H24 H 0.94438 0.52872 0.00216 0.0
H25 H 0.0033 0.48381 0.0705 0.0
H26 H 0.9767 0.58782 0.09334 0.0
H27 H 0.97472 0.43323 0.04224 0.0
C28 C 0.97886 0.4394 0.01879 0.0
C29 C 0.95781 0.53118 0.02538 0.0
C30 C 0.95774 0.56161 0.04696 0.0
C31 C 0.97399 0.50312 0.03372 0.0
C32 C 0.99064 0.50545 0.06392 0.0
C33 C 0.99135 0.5356 0.08583 0.0
C34 C 0.97525 0.56391 0.07702 0.0
N35 N 0.97391 0.47316 0.01107 0.0
H36 H 0.72357 0.74982 0.2008 0.0
H37 H 0.75339 0.83884 0.27208 0.0
H38 H 0.81306 0.827 0.19174 0.0
H39 H 0.73113 0.78928 0.30336 0.0
C40 C 0.70669 0.78566 0.28832 0.0
C41 C 0.74172 0.77343 0.2103 0.0
C42 C 0.76946 0.78598 0.19321 0.0
C43 C 0.73692 0.79149 0.23945 0.0
C44 C 0.759 0.8234 0.25086 0.0
C45 C 0.78648 0.83662 0.23368 0.0
C46 C 0.79209 0.81705 0.20533 0.0
N47 N 0.70755 0.7791 0.25536 0.0
H48 H 0.04624 0.95667 0.4359 0.0
H49 H 0.14884 0.98703 0.48598 0.0
H50 H 0.12071 0.03736 0.4067 0.0
H51 H 0.13456 0.93987 0.51024 0.0
C52 C 0.10599 0.93467 0.50905 0.0
C53 C 0.07236 0.97213 0.43838 0.0
C54 C 0.08092 -0.00292 0.41809 0.0
C55 C 0.09671 0.96776 0.46263 0.0
C56 C 0.13018 0.98867 0.46653 0.0
C57 C 0.13916 0.01339 0.44599 0.0
C58 C 0.11458 0.01707 0.42159 0.0
N59 N 0.08517 0.94435 0.48399 0.0
H60 H 0.2148 0.77925 0.83382 0.0
H61 H 0.25429 0.69806 0.77573 0.0
H62 H 0.30094 0.7316 0.87007 0.0
H63 H 0.23583 0.73964 0.73696 0.0
C64 C 0.2099 0.73878 0.74565 0.0
C65 C 0.23376 0.76109 0.83071 0.0
C66 C 0.25815 0.75836 0.85557 0.0
C67 C 0.23314 0.74046 0.80175 0.0
C68 C 0.25623 0.71547 0.79765 0.0
C69 C 0.27992 0.71119 0.82269 0.0
C70 C 0.28158 0.73365 0.85121 0.0
N71 N 0.20652 0.7432 0.77829 0.0
H72 H 0.96993 0.62572 0.45873 0.0
H73 H 0.89587 0.5303 0.43492 0.0
H74 H 0.88645 0.60157 0.51764 0.0
H75 H 0.95326 0.5126 0.42407 0.0
C76 C 0.96121 0.53296 0.40962 0.0
C77 C 0.94643 0.60881 0.46346 0.0
C78 C 0.92937 0.61744 0.49037 0.0
C79 C 0.93469 0.57729 0.44367 0.0
C80 C 0.90476 0.55496 0.45005 0.0
C81 C 0.8869 0.5639 0.47646 0.0
C82 C 0.89934 0.5952 0.49656 0.0
N83 N 0.95446 0.56788 0.41835 0.0
H84 H 0.80428 0.87614 0.77835 0.0
H85 H 0.84816 0.80258 0.83064 0.0
H86 H 0.7648 0.85554 0.86584 0.0
H87 H 0.89447 0.81351 0.80401 0.0
C88 C 0.88612 0.82244 0.78225 0.0
C89 C 0.80475 0.86229 0.79868 0.0
C90 C 0.78073 0.86741 0.82115 0.0
C91 C 0.8301 0.8402 0.80249 0.0
C92 C 0.83032 0.82158 0.8285 0.0
C93 C 0.80651 0.82645 0.85144 0.0
C94 C 0.78252 0.85039 0.84796 0.0
N95 N 0.85431 0.837 0.77927 0.0
H96 H 0.31438 0.39951 0.29534 0.0
H97 H 0.35897 0.32152 0.34113 0.0
H98 H 0.26729 0.36105 0.37444 0.0
H99 H 0.41015 0.35191 0.32695 0.0
C100 C 0.40185 0.35487 0.30302 0.0
C101 C 0.314 0.38269 0.31365 0.0
C102 C 0.28745 0.38261 0.33442 0.0
C103 C 0.34075 0.36196 0.31686 0.0
C104 C 0.33996 0.3396 0.34019 0.0
C105 C 0.31391 0.3394 0.36149 0.0
C106 C 0.28774 0.3611 0.35838 0.0
N107 N 0.36766 0.36341 0.29586 0.0
H108 H 0.4477 0.02864 0.51277 0.0
H109 H 0.50207 0.9878 0.5868 0.0
H110 H 0.45353 0.08068 0.60746 0.0
H111 H 0.48488 0.9362 0.55529 0.0
C112 C 0.48925 0.94361 0.53227 0.0
C113 C 0.45636 0.03044 0.5374 0.0
C114 C 0.44868 0.05822 0.55885 0.0
C115 C 0.47447 0.00435 0.54742 0.0
C116 C 0.48613 0.00663 0.57916 0.0
C117 C 0.47861 0.03394 0.60108 0.0
C118 C 0.45953 0.05952 0.59076 0.0
N119 N 0.48141 0.9767 0.52492 0.0
H120 H 0.21386 0.24485 0.69308 0.0
H121 H 0.24706 0.32898 0.7687 0.0
H122 H 0.29483 0.33005 0.68167 0.0
H123 H 0.22517 0.28026 0.79791 0.0
C124 C 0.20054 0.27588 0.78308 0.0
C125 C 0.23079 0.2693 0.70246 0.0
C126 C 0.25534 0.2853 0.684 0.0
C127 C 0.2279 0.28464 0.73309 0.0
C128 C 0.24947 0.31663 0.74522 0.0
C129 C 0.27359 0.33326 0.72671 0.0
C130 C 0.27665 0.31714 0.6963 0.0
N131 N 0.20099 0.26902 0.7501 0.0
H132 H 0.7314 0.2127 0.70682 0.0
H133 H 0.83289 0.27368 0.7395 0.0
H134 H 0.79753 0.17949 0.77827 0.0
H135 H 0.82059 0.30955 0.70766 0.0
C136 C 0.79588 0.30053 0.69349 0.0
C137 C 0.75564 0.21678 0.72204 0.0
C138 C 0.76121 0.19289 0.74317 0.0
C139 C 0.78118 0.24603 0.72024 0.0
C140 C 0.81282 0.25123 0.73994 0.0
C141 C 0.8186 0.22741 0.76113 0.0
C142 C 0.79299 0.19808 0.76213 0.0
N143 N 0.77382 0.26922 0.69831 0.0
H144 H 0.49931 0.57251 0.57868 0.0
H145 H 0.57232 0.53462 0.51648 0.0
H146 H 0.55343 0.4867 0.59943 0.0
H147 H 0.57389 0.58741 0.49994 0.0
C148 C 0.54808 0.59509 0.50275 0.0
C149 C 0.51804 0.55469 0.57296 0.0
C150 C 0.52413 0.52928 0.59248 0.0
C151 C 0.53563 0.55728 0.54584 0.0
C152 C 0.55916 0.53355 0.53774 0.0
C153 C 0.56572 0.50795 0.55701 0.0
C154 C 0.54832 0.50623 0.58444 0.0
N155 N 0.52796 0.58335 0.52692 0.0
H156 H 0.52691 0.47476 0.94387 0.0
H157 H 0.62666 0.51382 -0.00283 0.0
H158 H 0.59854 0.55785 0.9144 0.0
H159 H 0.61573 0.46571 0.02035 0.0
C160 C 0.58729 0.45869 0.01936 0.0
C161 C 0.55205 0.49206 0.94699 0.0
C162 C 0.56024 0.51589 0.92559 0.0
C163 C 0.57598 0.49041 0.97256 0.0
C164 C 0.60837 0.51335 0.97692 0.0
C165 C 0.6164 0.53763 0.95591 0.0
C166 C 0.59247 0.53855 0.93023 0.0
N167 N 0.56546 0.46694 0.99423 0.0
H168 H 0.75326 0.29494 0.3342 0.0
H169 H 0.79549 0.21785 0.27353 0.0
H170 H 0.80656 0.21751 0.37332 0.0
H171 H 0.74991 0.22632 0.24041 0.0
C172 C 0.7436 0.25268 0.24652 0.0
C173 C 0.76742 0.27253 0.33126 0.0
C174 C 0.7789 0.25777 0.35746 0.0
C175 C 0.77268 0.25806 0.30108 0.0
C176 C 0.79127 0.2292 0.29687 0.0
C177 C 0.8043 0.21479 0.32293 0.0
C178 C 0.79753 0.229 0.35317 0.0
N179 N 0.7574 0.27247 0.2757 0.0
H180 H 0.53008 0.12471 0.01459 0.0
H181 H 0.46713 0.02287 0.98782 0.0
H182 H 0.44002 0.09358 0.0642 0.0
H183 H 0.52185 0.0103 0.96931 0.0
C184 C 0.52592 0.0337 0.9576 0.0
C185 C 0.50813 0.10515 0.01829 0.0
C186 C 0.48605 0.11271 0.04192 0.0
C187 C 0.50187 0.07269 -0.00096 0.0
C188 C 0.47302 0.04761 0.00333 0.0
C189 C 0.4504 0.05516 0.02656 0.0
C190 C 0.45709 0.08776 0.04589 0.0
N191 N 0.52325 0.06723 0.97401 0.0
O192 O 0.27778 0.84493 -0.00306 0.0
Cd193 Cd 0.29223 0.8782 0.03813 0.0
Cd194 Cd 0.25191 0.9196 0.01084 0.0
O195 O 0.24795 0.88021 0.97305 0.0
O196 O 0.30987 0.84763 0.06732 0.0
O197 O 0.26492 0.87674 0.07603 0.0
C198 C 0.28582 0.8558 0.08504 0.0
C199 C 0.20221 0.94346 0.02597 0.0
C200 C 0.26049 0.8514 0.97278 0.0
C201 C 0.32827 0.94918 0.02983 0.0
O202 O 0.2982 0.95444 0.0191 0.0
O203 O 0.33229 0.9195 0.03816 0.0
O204 O 0.21697 0.951 0.00127 0.0
O205 O 0.21486 0.92104 0.04172 0.0
O206 O 0.16935 0.56324 0.30273 0.0
Cd207 Cd 0.143 0.51494 0.30987 0.0
Cd208 Cd 0.09181 0.53577 0.2579 0.0
O209 O 0.13582 0.57309 0.26196 0.0
O210 O 0.17673 0.49854 0.33988 0.0
O211 O 0.16187 0.47125 0.2919 0.0
C212 C 0.18042 0.47347 0.31835 0.0
C213 C 0.0597 0.53279 0.2095 0.0
C214 C 0.16324 0.58133 0.28092 0.0
C215 C 0.06678 0.5194 0.32155 0.0
O216 O 0.06169 0.52914 0.29482 0.0
O217 O 0.09649 0.51195 0.33112 0.0
O218 O 0.05909 0.55814 0.23158 0.0
O219 O 0.07805 0.50832 0.21494 0.0
O220 O 0.78828 0.747 0.97655 0.0
Cd221 Cd 0.77798 0.71407 0.00974 0.0
Cd222 Cd 0.81688 0.67338 0.97689 0.0
O223 O 0.82284 0.71497 0.95055 0.0
O224 O 0.75552 0.74137 0.04259 0.0
O225 O 0.80461 0.71941 0.0522 0.0
C226 C 0.77992 0.73594 0.06257 0.0
C227 C 0.86478 0.65262 0.00023 0.0
C228 C 0.80743 0.74207 0.95409 0.0
C229 C 0.74171 0.64301 0.97926 0.0
O230 O 0.77062 0.63757 0.96835 0.0
O231 O 0.73982 0.67161 -0.00355 0.0
O232 O 0.85652 0.64605 0.97042 0.0
O233 O 0.84661 0.67252 0.01673 0.0
O234 O 0.97869 0.01446 0.29693 0.0
Cd235 Cd 0.94566 0.01439 0.25713 0.0
Cd236 Cd 0.90477 0.04146 0.30449 0.0
O237 O 0.9488 0.03911 0.33323 0.0
O238 O 0.97393 0.99525 0.22377 0.0
O239 O 0.95854 0.04825 0.22598 0.0
C240 C 0.97447 0.0243 0.21203 0.0
C241 C 0.87843 0.09263 0.30885 0.0
C242 C 0.97569 0.02557 0.32542 0.0
C243 C 0.87529 0.97238 0.26664 0.0
O244 O 0.87267 0.99415 0.29055 0.0
O245 O 0.90064 0.97737 0.24955 0.0
O246 O 0.87513 0.07094 0.32923 0.0
O247 O 0.89725 0.08544 0.28591 0.0
O248 O 0.28248 0.2375 0.46991 0.0
Cd249 Cd 0.27526 0.20463 0.50399 0.0
Cd250 Cd 0.3227 0.17298 0.47342 0.0
O251 O 0.32995 0.21841 0.45248 0.0
O252 O 0.2451 0.22743 0.53339 0.0
O253 O 0.29902 0.2183 0.54755 0.0
C254 C 0.27017 0.22938 0.55516 0.0
C255 C 0.36624 0.15267 0.50279 0.0
C256 C 0.30792 0.24006 0.45262 0.0
C257 C 0.25291 0.13065 0.47133 0.0
O258 O 0.28073 0.1341 0.45708 0.0
O259 O 0.2475 0.1549 0.49224 0.0
O260 O 0.36564 0.14989 0.47267 0.0
O261 O 0.34346 0.16954 0.51638 0.0
O262 O 0.46432 0.52157 0.79558 0.0
Cd263 Cd 0.43085 0.51526 0.75552 0.0
Cd264 Cd 0.38485 0.54068 0.80041 0.0
O265 O 0.42846 0.53829 0.83039 0.0
O266 O 0.46 0.49512 0.72349 0.0
O267 O 0.43995 0.54551 0.72084 0.0
C268 C 0.45701 0.52151 0.70864 0.0
C269 C 0.35706 0.5911 0.8078 0.0
C270 C 0.45823 0.53 0.82382 0.0
C271 C 0.36121 0.46955 0.76352 0.0
O272 O 0.3533 0.49341 0.78361 0.0
O273 O 0.38992 0.47415 0.75069 0.0
O274 O 0.35427 0.56758 0.82653 0.0
O275 O 0.37603 0.5861 0.78456 0.0
O276 O 0.77221 0.34858 0.49447 0.0
Cd277 Cd 0.76977 0.38567 0.5326 0.0
Cd278 Cd 0.71778 0.39938 0.49623 0.0
O279 O 0.72028 0.35107 0.47086 0.0
O280 O 0.80133 0.37241 0.56608 0.0
O281 O 0.74402 0.37145 0.56916 0.0
C282 C 0.77406 0.36598 0.58137 0.0
C283 C 0.66793 0.41845 0.51577 0.0
C284 C 0.74827 0.33704 0.47242 0.0
C285 C 0.78225 0.45264 0.50594 0.0
O286 O 0.75483 0.44007 0.48782 0.0
O287 O 0.79091 0.43674 0.52864 0.0
O288 O 0.67153 0.41462 0.48612 0.0
O289 O 0.69154 0.40857 0.53413 0.0
O290 O 0.67085 0.05273 0.78267 0.0
Cd291 Cd 0.64533 0.00921 0.79974 0.0
Cd292 Cd 0.58389 0.04105 0.76995 0.0
O293 O 0.62627 0.07798 0.76613 0.0
O294 O 0.68562 0.99449 0.82373 0.0
O295 O 0.65587 0.96087 0.78285 0.0
C296 C 0.68116 0.96544 0.80488 0.0
C297 C 0.54384 0.03574 0.72632 0.0
C298 C 0.65909 0.07784 0.77099 0.0
C299 C 0.58162 0.02516 0.83619 0.0
O300 O 0.56648 0.03607 0.81304 0.0
O301 O 0.61124 0.01427 0.8345 0.0
O302 O 0.54698 0.06237 0.7479 0.0
O303 O 0.56161 0.01047 0.73058 0.0
O304 O 0.99187 0.29262 0.93395 0.0
Cd305 Cd 0.98819 0.2454 0.90542 0.0
Cd306 Cd 0.01871 0.28771 0.86645 0.0
O307 O 0.01647 0.32754 0.90232 0.0
O308 O 0.97514 0.20972 0.93376 0.0
O309 O 0.02464 0.21332 0.91051 0.0
C310 C 0.00446 0.1982 0.9292 0.0
C311 C 0.07107 0.28358 0.84345 0.0
C312 C 0.00372 0.32334 0.92818 0.0
C313 C 0.94682 0.24859 0.84477 0.0
O314 O 0.97288 0.2697 0.83833 0.0
O315 O 0.94793 0.23523 0.87016 0.0
O316 O 0.05186 0.30715 0.83754 0.0
O317 O 0.06102 0.26266 0.86335 0.0
O318 O 0.49875 0.801 0.43945 0.0
Cd319 Cd 0.49585 0.75443 0.40931 0.0
Cd320 Cd 0.52666 0.801 0.37353 0.0
O321 O 0.52769 0.83806 0.41191 0.0
O322 O 0.48003 0.7179 0.43617 0.0
O323 O 0.53113 0.72118 0.41566 0.0
C324 C 0.50927 0.7058 0.4329 0.0
C325 C 0.57767 0.7946 0.34904 0.0
C326 C 0.51296 0.83209 0.4365 0.0
C327 C 0.4548 0.76343 0.35006 0.0
O328 O 0.47927 0.78811 0.34692 0.0
O329 O 0.4573 0.74491 0.37221 0.0
O330 O 0.56043 0.82024 0.34497 0.0
O331 O 0.56628 0.7727 0.36772 0.0
O332 O 0.99398 0.77802 0.68028 0.0
Cd333 Cd 0.02824 0.76144 0.64865 0.0
Cd334 Cd -0.00153 0.80709 0.61658 0.0
O335 O 0.97429 0.81952 0.65648 0.0
O336 O 0.0543 0.73167 0.67322 0.0
O337 O 0.08048 0.77943 0.65605 0.0
C338 C 0.08272 0.75307 0.67139 0.0
C339 C 0.03218 0.84945 0.59302 0.0
C340 C 0.97506 0.80244 0.67972 0.0
C341 C 0.98678 0.73264 0.58708 0.0
O342 O 0.97669 0.76251 0.58694 0.0
O343 O 0.00863 0.72752 0.6088 0.0
O344 O -0.00181 0.84628 0.59113 0.0
O345 O 0.04725 0.82939 0.60983 0.0
O346 O 0.52128 0.31326 0.20948 0.0
Cd347 Cd 0.55492 0.29422 0.1783 0.0
Cd348 Cd 0.51047 0.3237 0.13724 0.0
O349 O 0.48643 0.3361 0.17742 0.0
O350 O 0.58435 0.26835 0.20402 0.0
O351 O 0.60708 0.31365 0.18141 0.0
C352 C 0.61172 0.2883 0.19737 0.0
C353 C 0.53178 0.36718 0.10765 0.0
C354 C 0.49501 0.32919 0.20467 0.0
C355 C 0.51413 0.24808 0.12072 0.0
O356 O 0.49859 0.27331 0.1138 0.0
O357 O 0.53642 0.25244 0.14437 0.0
O358 O 0.4985 0.35566 0.10686 0.0
O359 O 0.55308 0.35456 0.12624 0.0
C360 C 0.25585 0.81731 0.88631 0.0
C361 C 0.25842 0.78124 0.88597 0.0
C362 C 0.25532 0.83948 0.91442 0.0
C363 C 0.2578 0.82661 0.9434 0.0
H364 H 0.2547 0.82868 0.86464 0.0
H365 H 0.25398 0.86717 0.91344 0.0
S366 S 0.26215 0.73372 0.95541 0.0
N367 N 0.26096 0.73317 0.9171 0.0
N368 N 0.26122 0.77513 0.97006 0.0
C369 C 0.2599 0.79051 0.94346 0.0
C370 C 0.25997 0.7678 0.91476 0.0
C371 C 0.98921 0.54786 0.36175 0.0
C372 C 0.9861 0.52663 0.38584 0.0
C373 C 0.01461 0.5443 0.3404 0.0
C374 C 0.03829 0.51989 0.34276 0.0
H375 H 0.97216 0.56766 0.35956 0.0
H376 H 0.01646 0.56172 0.32256 0.0
S377 S 0.03958 0.45678 0.40076 0.0
N378 N 0.00723 0.47907 0.40997 0.0
N379 N 0.05587 0.47298 0.37024 0.0
C380 C 0.03488 0.4979 0.36632 0.0
C381 C 0.00847 0.50106 0.38771 0.0
C382 C 0.8384 0.80005 0.89355 0.0
C383 C 0.80635 0.80594 0.87855 0.0
C384 C 0.83882 0.77957 0.91822 0.0
C385 C 0.80727 0.76512 0.92936 0.0
H386 H 0.8634 0.81128 0.88614 0.0
H387 H 0.86394 0.77518 0.92877 0.0
S388 S 0.71646 0.77015 0.89733 0.0
N389 N 0.7422 0.79303 0.87564 0.0
N390 N 0.7433 0.75665 0.9232 0.0
C391 C 0.77516 0.7709 0.91491 0.0
C392 C 0.77462 0.79083 0.88927 0.0
C393 C 0.06039 0.00338 0.36328 0.0
C394 C 0.05388 0.0046 0.39492 0.0
C395 C 0.0352 0.01083 0.34107 0.0
C396 C 0.00278 0.02029 0.34979 0.0
H397 H 0.08497 -0.00383 0.35561 0.0
H398 H 0.04119 0.00899 0.31685 0.0
S399 S 0.97428 0.02931 0.43047 0.0
N400 N 0.01374 0.01734 0.43435 0.0
N401 N 0.96626 0.03148 0.39281 0.0
C402 C 0.99641 0.02239 0.38164 0.0
C403 C 0.02196 0.01446 0.40414 0.0
C404 C 0.29125 0.26393 0.64153 0.0
C405 C 0.25818 0.26973 0.65139 0.0
C406 C 0.29487 0.2507 0.61042 0.0
C407 C 0.26562 0.24323 0.58794 0.0
H408 H 0.31449 0.26965 0.65804 0.0
H409 H 0.32087 0.24663 0.60394 0.0
S410 S 0.17328 0.25446 0.6021 0.0
N411 N 0.19578 0.26741 0.63648 0.0
N412 N 0.2023 0.24256 0.57799 0.0
C413 C 0.23235 0.24893 0.59762 0.0
C414 C 0.22869 0.26213 0.62935 0.0
C415 C 0.50268 0.5578 0.64168 0.0
C416 C 0.50536 0.52697 0.62134 0.0
C417 C 0.48621 0.55607 0.66959 0.0
C418 C 0.47234 0.52341 0.67835 0.0
H419 H 0.51405 0.58344 0.63633 0.0
H420 H 0.48525 0.58035 0.68481 0.0
S421 S 0.46857 0.43536 0.63172 0.0
N422 N 0.48936 0.46314 0.61059 0.0
N423 N 0.45979 0.45981 0.6635 0.0
C424 C 0.47397 0.49251 0.6579 0.0
C425 C 0.49015 0.49429 0.62931 0.0
C426 C 0.81609 0.3402 0.65522 0.0
C427 C 0.78825 0.31887 0.66627 0.0
C428 C 0.81095 0.35597 0.62815 0.0
C429 C 0.77757 0.35157 0.6114 0.0
H430 H 0.84239 0.34389 0.66708 0.0
H431 H 0.83349 0.37141 0.6201 0.0
S432 S 0.69515 0.30068 0.63215 0.0
N433 N 0.72553 0.29572 0.6595 0.0
N434 N 0.71572 0.32589 0.60879 0.0
C435 C 0.74908 0.33153 0.62294 0.0
C436 C 0.75445 0.31499 0.65033 0.0
C437 C 0.4903 0.00464 0.64861 0.0
C438 C 0.49195 0.03579 0.63446 0.0
C439 C 0.50635 0.00481 0.67874 0.0
C440 C 0.52378 0.03629 0.69614 0.0
H441 H 0.47715 0.97971 0.63601 0.0
H442 H 0.50543 0.9801 0.68834 0.0
S443 S 0.53601 0.12495 0.67019 0.0
N444 N 0.51328 0.09887 0.64028 0.0
N445 N 0.54173 0.09945 0.69748 0.0
C446 C 0.52459 0.06783 0.68286 0.0
C447 C 0.50902 0.06754 0.65191 0.0
C448 C 0.88438 0.24061 0.77155 0.0
C449 C 0.85106 0.23319 0.78284 0.0
C450 C 0.91535 0.24504 0.79165 0.0
C451 C 0.91404 0.24182 0.82365 0.0
H452 H 0.88655 0.24262 0.74696 0.0
H453 H 0.94048 0.25085 0.78203 0.0
S454 S 0.83318 0.22556 0.86522 0.0
N455 N 0.8185 0.22526 0.8284 0.0
N456 N 0.87662 0.23245 0.86594 0.0
C457 C 0.88086 0.23466 0.83524 0.0
C458 C 0.8494 0.23067 0.8149 0.0
C459 C 0.49425 0.88124 0.51361 0.0
C460 C 0.4977 0.9165 0.50783 0.0
C461 C 0.5001 0.85428 0.49067 0.0
C462 C 0.51012 0.86161 0.46116 0.0
H463 H 0.48614 0.87428 0.53584 0.0
H464 H 0.4963 0.82741 0.49606 0.0
S465 S 0.52537 0.9503 0.43518 0.0
N466 N 0.51359 0.95781 0.47112 0.0
N467 N 0.52485 0.90723 0.42798 0.0
C468 C 0.51492 0.89706 0.45547 0.0
C469 C 0.50861 0.92449 0.4788 0.0
C470 C 0.16409 0.26821 0.82803 0.0
C471 C 0.1668 0.27653 0.79745 0.0
C472 C 0.13269 0.26964 0.84261 0.0
C473 C 0.1034 0.28052 0.82738 0.0
H474 H 0.18638 0.26042 0.84071 0.0
H475 H 0.13163 0.26304 0.8662 0.0
S476 S 0.09722 0.30556 0.74725 0.0
N477 N 0.1375 0.29586 0.75237 0.0
N478 N 0.07894 0.29942 0.77998 0.0
C479 C 0.10586 0.289 0.79682 0.0
C480 C 0.13747 0.2868 0.78177 0.0
C481 C 0.56094 0.63971 0.46631 0.0
C482 C 0.53665 0.62189 0.48402 0.0
C483 C 0.55174 0.66633 0.44936 0.0
C484 C 0.51779 0.67606 0.44938 0.0
H485 H 0.58754 0.63347 0.46599 0.0
H486 H 0.57162 0.67974 0.4366 0.0
S487 S 0.44334 0.63513 0.48978 0.0
N488 N 0.47641 0.61426 0.49894 0.0
N489 N 0.45907 0.66406 0.46723 0.0
C490 C 0.49289 0.65762 0.46627 0.0
C491 C 0.50231 0.63059 0.48355 0.0
C492 C 0.93663 0.79954 0.75815 0.0
C493 C 0.90877 0.81927 0.75594 0.0
C494 C 0.95817 0.79473 0.73361 0.0
C495 C 0.95293 0.80978 0.7059 0.0
H496 H 0.94155 0.78723 0.7789 0.0
H497 H 0.97899 0.77887 0.73639 0.0
S498 S 0.88441 0.86538 0.68895 0.0
N499 N 0.87766 0.85507 0.72421 0.0
N500 N 0.91821 0.84622 0.67814 0.0
C501 C 0.92557 0.83032 0.70366 0.0
C502 C 0.90345 0.835 0.72863 0.0
C503 C 0.05166 0.91196 0.53338 0.0
C504 C 0.0884 0.9147 0.53225 0.0
C505 C 0.03413 0.8919 0.55398 0.0
C506 C 0.05252 0.87353 0.57426 0.0
H507 H 0.03605 0.92509 0.51801 0.0
H508 H 0.00571 0.89018 0.55336 0.0
S509 S 0.14944 0.874 0.58177 0.0
N510 N 0.143 0.89904 0.55419 0.0
N511 N 0.11003 0.86086 0.59292 0.0
C512 C 0.08949 0.87695 0.5741 0.0
C513 C 0.10741 0.89765 0.55312 0.0
C514 C 0.14514 0.72602 0.73215 0.0
C515 C 0.17857 0.74038 0.72448 0.0
C516 C 0.11453 0.72955 0.71421 0.0
C517 C 0.11609 0.74823 0.68826 0.0
H518 H 0.14255 0.71216 0.75239 0.0
H519 H 0.08936 0.71838 0.72136 0.0
S520 S 0.19749 0.7897 0.65778 0.0
N521 N 0.21187 0.7726 0.68857 0.0
N522 N 0.154 0.78023 0.6551 0.0
C523 C 0.14944 0.76223 0.67996 0.0
C524 C 0.18079 0.75794 0.69797 0.0
C525 C 0.92557 0.67479 0.52264 0.0
C526 C 0.945 0.64757 0.5138 0.0
C527 C 0.93956 0.70266 0.54604 0.0
C528 C 0.97306 0.70367 0.56179 0.0
H529 H 0.89941 0.67445 0.51142 0.0
H530 H 0.92371 0.72312 0.55229 0.0
S531 S 0.03419 0.63834 0.5469 0.0
N532 N -0.00077 0.62318 0.52207 0.0
N533 N 0.02548 0.67523 0.56638 0.0
C534 C 0.99272 0.67653 0.55299 0.0
C535 C 0.97869 0.64854 0.52888 0.0
C536 C 0.81506 0.89481 0.22078 0.0
C537 C 0.80752 0.87216 0.24347 0.0
C538 C 0.83643 0.92759 0.22862 0.0
C539 C 0.85014 0.93948 0.25958 0.0
H540 H 0.80461 0.88707 0.19662 0.0
H541 H 0.84237 0.94372 0.21029 0.0
S542 S 0.83855 0.89106 0.32791 0.0
N543 N 0.81616 0.86413 0.2983 0.0
N544 N 0.85483 0.92681 0.31322 0.0
C545 C 0.84201 0.91789 0.28275 0.0
C546 C 0.82097 0.88401 0.27467 0.0
C547 C 0.81501 0.15517 0.33499 0.0
C548 C 0.82381 0.18408 0.31868 0.0
C549 C 0.83294 0.12595 0.33167 0.0
C550 C 0.86029 0.12423 0.31171 0.0
H551 H 0.7938 0.1549 0.35025 0.0
H552 H 0.82496 0.10434 0.34467 0.0
S553 S 0.89479 0.19381 0.26491 0.0
N554 N 0.86279 0.20989 0.28285 0.0
N555 N 0.89596 0.15454 0.27601 0.0
C556 C 0.86946 0.15297 0.29528 0.0
C557 C 0.85135 0.18295 0.29888 0.0
C558 C 0.42291 0.99416 0.03265 0.0
C559 C 0.4191 0.02928 0.02968 0.0
C560 C 0.39342 0.96865 0.03364 0.0
C561 C 0.35904 0.97727 0.03128 0.0
H562 H 0.44889 0.98631 0.03393 0.0
H563 H 0.39763 0.94179 0.03544 0.0
S564 S 0.33527 0.06609 0.02404 0.0
N565 N 0.37873 0.07177 0.02506 0.0
N566 N 0.32312 0.02396 0.02698 0.0
C567 C 0.355 0.01259 0.02895 0.0
C568 C 0.38508 0.03856 0.02816 0.0
C569 C 0.24046 0.40419 0.30198 0.0
C570 C 0.25952 0.40519 0.33112 0.0
C571 C 0.21431 0.42567 0.29823 0.0
C572 C 0.20642 0.4492 0.32344 0.0
H573 H 0.24575 0.38658 0.2819 0.0
H574 H 0.20062 0.42417 0.27524 0.0
S575 S 0.24925 0.46193 0.40464 0.0
N576 N 0.26902 0.43165 0.38555 0.0
N577 N 0.21987 0.47182 0.37879 0.0
C578 C 0.22519 0.45018 0.35282 0.0
C579 C 0.2517 0.42823 0.35659 0.0
C580 C 0.17751 0.06043 0.4822 0.0
C581 C 0.1716 0.03951 0.45286 0.0
C582 C 0.20445 0.08931 0.48798 0.0
C583 C 0.22673 0.09822 0.46473 0.0
H584 H 0.16014 0.05545 0.5004 0.0
H585 H 0.20739 0.10518 0.51077 0.0
S586 S 0.22388 0.04978 0.38474 0.0
N587 N 0.19121 0.02805 0.40082 0.0
N588 N 0.24243 0.08241 0.41179 0.0
C589 C 0.2222 0.07648 0.43572 0.0
C590 C 0.19441 0.04716 0.42973 0.0
C591 C 0.74292 0.12951 0.74903 0.0
C592 C 0.73364 0.16319 0.74701 0.0
C593 C 0.71862 0.10207 0.7567 0.0
C594 C 0.68398 0.10714 0.76233 0.0
H595 H 0.76943 0.1245 0.74517 0.0
H596 H 0.72711 0.07671 0.75828 0.0
S597 S 0.64639 0.19034 0.7598 0.0
N598 N 0.68754 0.20018 0.75132 0.0
N599 N 0.64141 0.14832 0.76489 0.0
C600 C 0.67404 0.14044 0.75955 0.0
C601 C 0.69895 0.1685 0.75204 0.0
C602 C 0.43942 0.10018 0.52039 0.0
C603 C 0.42959 0.08576 0.54743 0.0
C604 C 0.41984 0.12338 0.50707 0.0
C605 C 0.38987 0.13348 0.52045 0.0
H606 H 0.46203 0.09281 0.50896 0.0
H607 H 0.42772 0.13271 0.48559 0.0
S608 S 0.35362 0.1044 0.59201 0.0
N609 N 0.38824 0.08395 0.58757 0.0
N610 N 0.35202 0.12843 0.56304 0.0
C611 C 0.38068 0.12068 0.54836 0.0
C612 C 0.40039 0.09662 0.56173 0.0
C613 C 0.58767 0.46531 0.51719 0.0
C614 C 0.59035 0.48269 0.54803 0.0
C615 C 0.61184 0.44313 0.50744 0.0
C616 C 0.63963 0.43725 0.52816 0.0
H617 H 0.56696 0.46926 0.50027 0.0
H618 H 0.60918 0.4312 0.4832 0.0
S619 S 0.65782 0.47586 0.61175 0.0
N620 N 0.62269 0.49214 0.59945 0.0
N621 N 0.66773 0.4499 0.58136 0.0
C622 C 0.64186 0.45343 0.55942 0.0
C623 C 0.61734 0.47627 0.56929 0.0
C624 C 0.73634 0.27992 0.39352 0.0
C625 C 0.77065 0.27269 0.38899 0.0
C626 C 0.72877 0.29875 0.42143 0.0
C627 C 0.75521 0.31109 0.44602 0.0
H628 H 0.71536 0.27196 0.37487 0.0
H629 H 0.70228 0.30493 0.42314 0.0
S630 S 0.84869 0.29585 0.44699 0.0
N631 N 0.83075 0.27703 0.4121 0.0
N632 N 0.81663 0.31178 0.46492 0.0
C633 C 0.78916 0.30189 0.44258 0.0
C634 C 0.79686 0.28286 0.41399 0.0
C635 C 0.55838 0.0046 0.91645 0.0
C636 C 0.5385 0.03117 0.92608 0.0
C637 C 0.57205 0.00262 0.88716 0.0
C638 C 0.56542 0.02659 0.86623 0.0
H639 H 0.56414 0.98577 0.93198 0.0
H640 H 0.58792 0.98219 0.88087 0.0
S641 S 0.51262 0.09959 0.87972 0.0
N642 N 0.5115 0.08104 0.91213 0.0
N643 N 0.53652 0.07694 0.85683 0.0
C644 C 0.54454 0.05258 0.87526 0.0
C645 C 0.53124 0.05499 0.90529 0.0
C646 C 0.28081 0.29688 0.39258 0.0
C647 C 0.31317 0.31551 0.38614 0.0
C648 C 0.27937 0.27328 0.41476 0.0
C649 C 0.31026 0.26676 0.43089 0.0
H650 H 0.25637 0.29989 0.37988 0.0
H651 H 0.25392 0.25918 0.41859 0.0
S652 S 0.40125 0.31078 0.42523 0.0
N653 N 0.37663 0.32797 0.40014 0.0
N654 N 0.37386 0.28196 0.44048 0.0
C655 C 0.34271 0.28542 0.42518 0.0
C656 C 0.34418 0.31016 0.40315 0.0
C657 C 0.50003 0.52401 0.90486 0.0
C658 C 0.53457 0.51869 0.89922 0.0
C659 C 0.47584 0.52853 0.88047 0.0
C660 C 0.48519 0.52758 0.84945 0.0
H661 H 0.4918 0.5252 0.9284 0.0
H662 H 0.44946 0.53234 0.88601 0.0
S663 S 0.57269 0.51388 0.82259 0.0
N664 N 0.57704 0.51232 0.86062 0.0
N665 N 0.53184 0.52091 0.81467 0.0
C666 C 0.51981 0.52226 0.84358 0.0
C667 C 0.54441 0.51779 0.86848 0.0
C668 C 0.74338 0.76713 0.13851 0.0
C669 C 0.77221 0.76971 0.16085 0.0
C670 C 0.74634 0.75621 0.10687 0.0
C671 C 0.77817 0.7471 0.09636 0.0
H672 H 0.71866 0.77477 0.14539 0.0
H673 H 0.72342 0.75507 0.09053 0.0
S674 S 0.86088 0.74754 0.14613 0.0
N675 N 0.83317 0.76121 0.17085 0.0
N676 N 0.83876 0.74006 0.11123 0.0
C677 C 0.80696 0.74858 0.11866 0.0
C678 C 0.80399 0.7601 0.15093 0.0
C679 C 0.01872 0.00271 0.13769 0.0
C680 C 0.02749 0.03573 0.12742 0.0
C681 C 0.00171 -0.0005 0.16504 0.0
C682 C 0.99253 0.02914 0.18325 0.0
H683 H 0.02451 0.97896 0.12418 0.0
H684 H 0.99534 0.97336 0.17171 0.0
S685 S 0.01171 0.12202 0.16776 0.0
N686 N 0.02747 0.09906 0.13855 0.0
N687 N 0.99473 0.0929 0.18966 0.0
C688 C 0.00142 0.06244 0.17347 0.0
C689 C 0.01905 0.06575 0.14565 0.0
C690 C 0.27926 0.85253 0.17164 0.0
C691 C 0.28412 0.81767 0.17464 0.0
C692 C 0.27825 0.8644 0.14222 0.0
C693 C 0.28325 0.84205 0.11518 0.0
H694 H 0.27604 0.87063 0.19211 0.0
H695 H 0.27473 0.89152 0.14078 0.0
S696 S 0.29723 0.74859 0.11067 0.0
N697 N 0.29352 0.76085 0.14813 0.0
N698 N 0.29291 0.78356 0.09312 0.0
C699 C 0.28815 0.80719 0.11793 0.0
C700 C 0.28827 0.79487 0.14764 0.0
C701 C 0.04108 0.52355 0.12163 0.0
C702 C 0.0088 0.5366 0.11781 0.0
C703 C 0.05685 0.52146 0.15138 0.0
C704 C 0.04139 0.53311 0.17847 0.0
H705 H 0.05436 0.51484 0.10143 0.0
H706 H 0.08173 0.51139 0.15316 0.0
S707 S 0.95667 0.56843 0.18175 0.0
N708 N 0.96129 0.55995 0.144 0.0
N709 N 0.99199 0.55772 0.19997 0.0
C710 C 0.00942 0.54658 0.17518 0.0
C711 C 0.99291 0.54801 0.14486 0.0
C712 C 0.37294 0.71824 0.29942 0.0
C713 C 0.3557 0.74673 0.29276 0.0
C714 C 0.40522 0.72379 0.31776 0.0
C715 C 0.42195 0.75806 0.32933 0.0
H716 H 0.36136 0.69132 0.29054 0.0
H717 H 0.41724 0.70113 0.32281 0.0
S718 S 0.38807 0.84166 0.31958 0.0
N719 N 0.35759 0.81053 0.30043 0.0
N720 N 0.41925 0.8209 0.33337 0.0
C721 C 0.4056 0.78683 0.32238 0.0
C722 C 0.37228 0.7812 0.30441 0.0
C723 C 0.98502 0.37685 0.00305 0.0
C724 C 0.98681 0.41119 0.99515 0.0
C725 C 0.99146 0.3489 0.98149 0.0
C726 C 0.00029 0.35422 0.95117 0.0
H727 H 0.97804 0.37138 0.02602 0.0
H728 H 0.98909 0.3228 0.98863 0.0
S729 S 0.0105 0.43985 0.91944 0.0
N730 N -0.00047 0.44956 0.95539 0.0
N731 N 0.01176 0.39698 0.91475 0.0
C732 C 0.00319 0.38874 0.94323 0.0
C733 C 0.99636 0.41725 0.96522 0.0
C734 C 0.66982 0.77712 0.33283 0.0
C735 C 0.67284 0.78624 0.30254 0.0
C736 C 0.63847 0.77875 0.34746 0.0
C737 C 0.60959 0.79068 0.3326 0.0
H738 H 0.69184 0.76864 0.3453 0.0
H739 H 0.63722 0.77165 0.37087 0.0
S740 S 0.60417 0.81772 0.25321 0.0
N741 N 0.64413 0.80708 0.25799 0.0
N742 N 0.58572 0.81119 0.28581 0.0
C743 C 0.61229 0.79981 0.30229 0.0
C744 C 0.64382 0.79733 0.28714 0.0
C745 C 0.06108 0.13604 0.9623 0.0
C746 C 0.03873 0.11828 0.98159 0.0
C747 C 0.04957 0.16122 0.94486 0.0
C748 C 0.01517 0.16959 0.94601 0.0
H749 H 0.088 0.13094 0.96112 0.0
H750 H 0.06806 0.17472 0.9309 0.0
S751 S 0.94514 0.12812 0.9908 0.0
N752 N 0.97977 0.10909 -0.00073 0.0
N753 N 0.95808 0.1563 0.96663 0.0
C754 C 0.99213 0.15111 0.96446 0.0
C755 C 0.0039 0.12548 0.98222 0.0
C756 C 0.41706 0.35441 0.24738 0.0
C757 C 0.42658 0.35021 0.27852 0.0
C758 C 0.43977 0.34847 0.22389 0.0
C759 C 0.47283 0.33792 0.23056 0.0
H760 H 0.39173 0.3619 0.24089 0.0
H761 H 0.4309 0.35146 0.20017 0.0
S762 S 0.51075 0.32522 0.30905 0.0
N763 N 0.47164 0.33638 0.31521 0.0
N764 N 0.51439 0.32512 0.27121 0.0
C765 C 0.48293 0.33446 0.26186 0.0
C766 C 0.4598 0.34063 0.28576 0.0
C767 C 0.5949 0.42265 0.06268 0.0
C768 C 0.57215 0.437 0.04262 0.0
C769 C 0.58171 0.40084 0.08418 0.0
C770 C 0.54519 0.39264 0.08655 0.0
H771 H 0.62317 0.4278 0.06136 0.0
H772 H 0.60032 0.38979 0.0986 0.0
S773 S 0.47445 0.42633 0.04126 0.0
N774 N 0.51134 0.44342 0.0279 0.0
N775 N 0.48654 0.40257 0.06818 0.0
C776 C 0.52217 0.40783 0.06729 0.0
C777 C 0.53563 0.42997 0.04536 0.0
C778 C 0.70538 0.29777 0.23433 0.0
C779 C 0.71227 0.26266 0.23001 0.0
C780 C 0.67335 0.30655 0.22231 0.0
C781 C 0.64705 0.28031 0.20629 0.0
H782 H 0.72446 0.31844 0.24776 0.0
H783 H 0.6685 0.3336 0.22684 0.0
S784 S 0.65327 0.18534 0.18623 0.0
N785 N 0.69128 0.20228 0.20625 0.0
N786 N 0.63077 0.21857 0.18457 0.0
C787 C 0.65419 0.24551 0.2007 0.0
C788 C 0.68696 0.23674 0.21229 0.0
C789 C 0.4681 0.16988 0.06355 0.0
C790 C 0.49332 0.14682 0.0624 0.0
C791 C 0.47507 0.20284 0.08227 0.0
C792 C 0.50722 0.21342 0.10087 0.0
H793 H 0.44305 0.16255 0.04955 0.0
H794 H 0.45503 0.21996 0.08241 0.0
S795 S 0.58157 0.16182 0.10618 0.0
N796 N 0.55131 0.1363 0.08127 0.0
N797 N 0.56452 0.19792 0.1168 0.0
C798 C 0.5325 0.19025 0.10003 0.0
C799 C 0.52552 0.15702 0.08068 0.0
C800 C 0.33152 0.37272 0.73415 0.0
C801 C 0.29535 0.36783 0.7384 0.0
C802 C 0.35238 0.40566 0.7425 0.0
C803 C 0.33801 0.43511 0.75568 0.0
H804 H 0.34382 0.3509 0.72403 0.0
H805 H 0.38011 0.40796 0.73858 0.0
S806 S 0.24449 0.43634 0.77149 0.0
N807 N 0.24574 0.39517 0.75632 0.0
N808 N 0.28527 0.45717 0.77279 0.0
C809 C 0.30196 0.4305 0.76066 0.0
C810 C 0.28056 0.39685 0.75187 0.0
C811 C 0.32019 0.67507 0.79386 0.0
C812 C 0.30082 0.68148 0.81989 0.0
C813 C 0.33879 0.64619 0.79036 0.0
C814 C 0.33845 0.6224 0.81261 0.0
H815 H 0.32098 0.69253 0.77605 0.0
H816 H 0.35317 0.64228 0.76984 0.0
S817 S 0.29077 0.62713 0.88468 0.0
N818 N 0.28176 0.66134 0.86794 0.0
N819 N 0.31678 0.60749 0.86172 0.0
C820 C 0.3192 0.62869 0.83884 0.0
C821 C 0.3004 0.65809 0.84238 0.0
C822 C 0.8597 0.5265 0.51394 0.0
C823 C 0.85756 0.5387 0.4847 0.0
C824 C 0.83439 0.49958 0.52106 0.0
C825 C 0.8059 0.48404 0.49923 0.0
H826 H 0.88188 0.53683 0.53099 0.0
H827 H 0.83781 0.49028 0.54354 0.0
S828 S 0.78675 0.50964 0.42042 0.0
N829 N 0.82372 0.53554 0.43467 0.0
N830 N 0.7758 0.48494 0.44784 0.0
C831 C 0.80257 0.49737 0.47041 0.0
C832 C 0.82855 0.52464 0.46316 0.0
C833 C 0.75182 0.91906 0.84023 0.0
C834 C 0.75411 0.89106 0.81682 0.0
C835 C 0.72786 0.94262 0.83617 0.0
C836 C 0.70497 0.93889 0.80866 0.0
H837 H 0.7692 0.92322 0.86161 0.0
H838 H 0.72749 0.96407 0.85478 0.0
S839 S 0.69937 0.86842 0.74103 0.0
N840 N 0.73075 0.85985 0.76572 0.0
N841 N 0.68548 0.90404 0.75803 0.0
C842 C 0.70646 0.91042 0.78534 0.0
C843 C 0.73113 0.88658 0.78941 0.0
C844 C 0.68207 0.55446 0.96215 0.0
C845 C 0.64829 0.5644 0.96203 0.0
C846 C 0.71243 0.58007 0.96696 0.0
C847 C 0.70977 0.61627 0.97235 0.0
H848 H 0.68498 0.52679 0.9582 0.0
H849 H 0.73806 0.57146 0.96705 0.0
S850 S 0.6269 0.65542 0.97411 0.0
N851 N 0.6137 0.6124 0.96746 0.0
N852 N 0.67042 0.66055 0.97673 0.0
C853 C 0.67596 0.62634 0.97225 0.0
C854 C 0.64528 0.60038 0.96704 0.0
C855 C 0.23034 0.66462 0.29754 0.0
C856 C 0.23757 0.67177 0.26725 0.0
C857 C 0.20666 0.63489 0.30198 0.0
C858 C 0.18908 0.61174 0.27627 0.0
H859 H 0.24271 0.68236 0.31793 0.0
H860 H 0.20149 0.63044 0.32561 0.0
S861 S 0.20155 0.61633 0.19248 0.0
N862 N 0.22764 0.65126 0.21136 0.0
N863 N 0.18208 0.59636 0.21972 0.0
C864 C 0.19652 0.61817 0.24596 0.0
C865 C 0.22102 0.64796 0.24144 0.0
C866 C 0.94015 0.60011 0.00783 0.0
C867 C 0.93804 0.58991 0.03789 0.0
C868 C 0.91758 0.62202 -0.00351 0.0
C869 C 0.89229 0.63508 0.01489 0.0
H870 H 0.95859 0.59004 0.99245 0.0
H871 H 0.91923 0.62782 0.9727 0.0
S872 S 0.87773 0.61874 0.09615 0.0
N873 N 0.90966 0.59612 0.08648 0.0
N874 N 0.86804 0.63831 0.0655 0.0
C875 C 0.89139 0.62707 0.04573 0.0
C876 C 0.9141 0.60428 0.05717 0.0
C877 C 0.14491 0.01496 0.03925 0.0
C878 C 0.11685 -0.00077 0.05458 0.0
C879 C 0.17215 -0.00347 0.03012 0.0
C880 C 0.17299 0.96184 0.03649 0.0
H881 H 0.14589 0.04184 0.03417 0.0
H882 H 0.19298 0.00981 0.01821 0.0
S883 S 0.10615 0.90818 0.07573 0.0
N884 N 0.09135 0.94624 0.07508 0.0
N885 N 0.14371 0.91227 0.05915 0.0
C886 C 0.1457 0.94589 0.05239 0.0
C887 C 0.1174 0.96443 0.06117 0.0
loop_
_geom_bond_atom_site_label_1
_geom_bond_atom_site_label_2
_geom_bond_distance
_geom_bond_site_symmetry_2
_ccdc_geom_bond_type
H0 C5 0.930 . S
H1 C8 0.930 . S
H2 C10 0.930 . S
H3 C4 1.016 . S
C4 H3 1.016 . S
C4 N11 1.286 . S
C5 H0 0.930 . S
C5 C6 1.397 . S
C5 C7 1.361 . S
C6 C5 1.397 . S
C6 C10 1.390 . S
C7 C5 1.361 . S
C7 C8 1.393 . S
C7 N11 1.413 . S
C8 H1 0.930 . S
C8 C7 1.393 . S
C8 C9 1.399 . S
C9 C8 1.399 . S
C9 C10 1.381 . S
C10 H2 0.930 . S
C10 C6 1.390 . S
C10 C9 1.381 . S
N11 C4 1.286 . S
N11 C7 1.413 . S
H12 C17 0.930 . S
H13 C20 0.930 . S
H14 C22 0.930 . S
H15 C16 1.016 . S
C16 H15 1.016 . S
C16 N23 1.286 . S
C17 H12 0.930 . S
C17 C18 1.397 . S
C17 C19 1.361 . S
C18 C17 1.397 . S
C18 C22 1.390 . S
C19 C17 1.361 . S
C19 C20 1.393 . S
C19 N23 1.413 . S
C20 H13 0.930 . S
C20 C19 1.393 . S
C20 C21 1.399 . S
C21 C20 1.399 . S
C21 C22 1.381 . S
C22 H14 0.930 . S
C22 C18 1.390 . S
C22 C21 1.381 . S
N23 C16 1.286 . S
N23 C19 1.413 . S
H24 C29 0.930 . S
H25 C32 0.930 . S
H26 C34 0.930 . S
H27 C28 1.016 . S
C28 H27 1.016 . S
C28 N35 1.286 . S
C29 H24 0.930 . S
C29 C30 1.397 . S
C29 C31 1.361 . S
C30 C29 1.397 . S
C30 C34 1.390 . S
C31 C29 1.361 . S
C31 C32 1.393 . S
C31 N35 1.413 . S
C32 H25 0.930 . S
C32 C31 1.393 . S
C32 C33 1.399 . S
C33 C32 1.399 . S
C33 C34 1.381 . S
C34 H26 0.930 . S
C34 C30 1.390 . S
C34 C33 1.381 . S
N35 C28 1.286 . S
N35 C31 1.413 . S
H36 C41 0.930 . S
H37 C44 0.930 . S
H38 C46 0.930 . S
H39 C40 1.016 . S
C40 H39 1.016 . S
C40 N47 1.286 . S
C41 H36 0.930 . S
C41 C42 1.397 . S
C41 C43 1.361 . S
C42 C41 1.397 . S
C42 C46 1.390 . S
C43 C41 1.361 . S
C43 C44 1.393 . S
C43 N47 1.413 . S
C44 H37 0.930 . S
C44 C43 1.393 . S
C44 C45 1.399 . S
C45 C44 1.399 . S
C45 C46 1.381 . S
C46 H38 0.930 . S
C46 C42 1.390 . S
C46 C45 1.381 . S
N47 C40 1.286 . S
N47 C43 1.413 . S
H48 C53 0.930 . S
H49 C56 0.930 . S
H50 C58 0.930 . S
H51 C52 1.016 . S
C52 H51 1.016 . S
C52 N59 1.286 . S
C53 H48 0.930 . S
C53 C54 1.397 . S
C53 C55 1.361 . S
C54 C53 1.397 . S
C54 C58 1.390 1_565 S
C55 C53 1.361 . S
C55 C56 1.393 . S
C55 N59 1.413 . S
C56 H49 0.930 . S
C56 C55 1.393 . S
C56 C57 1.399 1_565 S
C57 C56 1.399 1_545 S
C57 C58 1.381 . S
C58 H50 0.930 . S
C58 C54 1.390 1_545 S
C58 C57 1.381 . S
N59 C52 1.286 . S
N59 C55 1.413 . S
H60 C65 0.930 . S
H61 C68 0.930 . S
H62 C70 0.930 . S
H63 C64 1.016 . S
C64 H63 1.016 . S
C64 N71 1.286 . S
C65 H60 0.930 . S
C65 C66 1.397 . S
C65 C67 1.361 . S
C66 C65 1.397 . S
C66 C70 1.390 . S
C67 C65 1.361 . S
C67 C68 1.393 . S
C67 N71 1.413 . S
C68 H61 0.930 . S
C68 C67 1.393 . S
C68 C69 1.399 . S
C69 C68 1.399 . S
C69 C70 1.381 . S
C70 H62 0.930 . S
C70 C66 1.390 . S
C70 C69 1.381 . S
N71 C64 1.286 . S
N71 C67 1.413 . S
H72 C77 0.930 . S
H73 C80 0.930 . S
H74 C82 0.930 . S
H75 C76 1.016 . S
C76 H75 1.016 . S
C76 N83 1.286 . S
C77 H72 0.930 . S
C77 C78 1.397 . S
C77 C79 1.361 . S
C78 C77 1.397 . S
C78 C82 1.390 . S
C79 C77 1.361 . S
C79 C80 1.393 . S
C79 N83 1.413 . S
C80 H73 0.930 . S
C80 C79 1.393 . S
C80 C81 1.399 . S
C81 C80 1.399 . S
C81 C82 1.381 . S
C82 H74 0.930 . S
C82 C78 1.390 . S
C82 C81 1.381 . S
N83 C76 1.286 . S
N83 C79 1.413 . S
H84 C89 0.930 . S
H85 C92 0.930 . S
H86 C94 0.930 . S
H87 C88 1.016 . S
C88 H87 1.016 . S
C88 N95 1.286 . S
C89 H84 0.930 . S
C89 C90 1.397 . S
C89 C91 1.361 . S
C90 C89 1.397 . S
C90 C94 1.390 . S
C91 C89 1.361 . S
C91 C92 1.393 . S
C91 N95 1.413 . S
C92 H85 0.930 . S
C92 C91 1.393 . S
C92 C93 1.399 . S
C93 C92 1.399 . S
C93 C94 1.381 . S
C94 H86 0.930 . S
C94 C90 1.390 . S
C94 C93 1.381 . S
N95 C88 1.286 . S
N95 C91 1.413 . S
H96 C101 0.930 . S
H97 C104 0.930 . S
H98 C106 0.930 . S
H99 C100 1.016 . S
C100 H99 1.016 . S
C100 N107 1.286 . S
C101 H96 0.930 . S
C101 C102 1.397 . S
C101 C103 1.361 . S
C102 C101 1.397 . S
C102 C106 1.390 . S
C103 C101 1.361 . S
C103 C104 1.393 . S
C103 N107 1.413 . S
C104 H97 0.930 . S
C104 C103 1.393 . S
C104 C105 1.399 . S
C105 C104 1.399 . S
C105 C106 1.381 . S
C106 H98 0.930 . S
C106 C102 1.390 . S
C106 C105 1.381 . S
N107 C100 1.286 . S
N107 C103 1.413 . S
H108 C113 0.930 . S
H109 C116 0.930 . S
H110 C118 0.930 . S
H111 C112 1.016 . S
C112 H111 1.016 . S
C112 N119 1.286 . S
C113 H108 0.930 . S
C113 C114 1.397 . S
C113 C115 1.361 . S
C114 C113 1.397 . S
C114 C118 1.390 . S
C115 C113 1.361 . S
C115 C116 1.393 . S
C115 N119 1.413 . S
C116 H109 0.930 . S
C116 C115 1.393 . S
C116 C117 1.399 . S
C117 C116 1.399 . S
C117 C118 1.381 . S
C118 H110 0.930 . S
C118 C114 1.390 . S
C118 C117 1.381 . S
N119 C112 1.286 . S
N119 C115 1.413 . S
H120 C125 0.930 . S
H121 C128 0.930 . S
H122 C130 0.930 . S
H123 C124 1.016 . S
C124 H123 1.016 . S
C124 N131 1.286 . S
C125 H120 0.930 . S
C125 C126 1.397 . S
C125 C127 1.361 . S
C126 C125 1.397 . S
C126 C130 1.390 . S
C127 C125 1.361 . S
C127 C128 1.393 . S
C127 N131 1.413 . S
C128 H121 0.930 . S
C128 C127 1.393 . S
C128 C129 1.399 . S
C129 C128 1.399 . S
C129 C130 1.381 . S
C130 H122 0.930 . S
C130 C126 1.390 . S
C130 C129 1.381 . S
N131 C124 1.286 . S
N131 C127 1.413 . S
H132 C137 0.930 . S
H133 C140 0.930 . S
H134 C142 0.930 . S
H135 C136 1.016 . S
C136 H135 1.016 . S
C136 N143 1.286 . S
C137 H132 0.930 . S
C137 C138 1.397 . S
C137 C139 1.361 . S
C138 C137 1.397 . S
C138 C142 1.390 . S
C139 C137 1.361 . S
C139 C140 1.393 . S
C139 N143 1.413 . S
C140 H133 0.930 . S
C140 C139 1.393 . S
C140 C141 1.399 . S
C141 C140 1.399 . S
C141 C142 1.381 . S
C142 H134 0.930 . S
C142 C138 1.390 . S
C142 C141 1.381 . S
N143 C136 1.286 . S
N143 C139 1.413 . S
H144 C149 0.930 . S
H145 C152 0.930 . S
H146 C154 0.930 . S
H147 C148 1.016 . S
C148 H147 1.016 . S
C148 N155 1.286 . S
C149 H144 0.930 . S
C149 C150 1.397 . S
C149 C151 1.361 . S
C150 C149 1.397 . S
C150 C154 1.390 . S
C151 C149 1.361 . S
C151 C152 1.393 . S
C151 N155 1.413 . S
C152 H145 0.930 . S
C152 C151 1.393 . S
C152 C153 1.399 . S
C153 C152 1.399 . S
C153 C154 1.381 . S
C154 H146 0.930 . S
C154 C150 1.390 . S
C154 C153 1.381 . S
N155 C148 1.286 . S
N155 C151 1.413 . S
H156 C161 0.930 . S
H157 C164 0.930 . S
H158 C166 0.930 . S
H159 C160 1.016 . S
C160 H159 1.016 . S
C160 N167 1.286 . S
C161 H156 0.930 . S
C161 C162 1.397 . S
C161 C163 1.361 . S
C162 C161 1.397 . S
C162 C166 1.390 . S
C163 C161 1.361 . S
C163 C164 1.393 . S
C163 N167 1.413 . S
C164 H157 0.930 . S
C164 C163 1.393 . S
C164 C165 1.399 . S
C165 C164 1.399 . S
C165 C166 1.381 . S
C166 H158 0.930 . S
C166 C162 1.390 . S
C166 C165 1.381 . S
N167 C160 1.286 . S
N167 C163 1.413 . S
H168 C173 0.930 . S
H169 C176 0.930 . S
H170 C178 0.930 . S
H171 C172 1.016 . S
C172 H171 1.016 . S
C172 N179 1.286 . S
C173 H168 0.930 . S
C173 C174 1.397 . S
C173 C175 1.361 . S
C174 C173 1.397 . S
C174 C178 1.390 . S
C175 C173 1.361 . S
C175 C176 1.393 . S
C175 N179 1.413 . S
C176 H169 0.930 . S
C176 C175 1.393 . S
C176 C177 1.399 . S
C177 C176 1.399 . S
C177 C178 1.381 . S
C178 H170 0.930 . S
C178 C174 1.390 . S
C178 C177 1.381 . S
N179 C172 1.286 . S
N179 C175 1.413 . S
H180 C185 0.930 . S
H181 C188 0.930 . S
H182 C190 0.930 1_554 S
H183 C184 1.016 . S
C184 H183 1.016 . S
C184 N191 1.286 . S
C185 H180 0.930 . S
C185 C186 1.397 . S
C185 C187 1.361 . S
C186 C185 1.397 . S
C186 C190 1.390 . S
C187 C185 1.361 . S
C187 C188 1.393 . S
C187 N191 1.413 . S
C188 H181 0.930 . S
C188 C187 1.393 . S
C188 C189 1.399 . S
C189 C188 1.399 . S
C189 C190 1.381 . S
C190 H182 0.930 1_556 S
C190 C186 1.390 . S
C190 C189 1.381 . S
N191 C184 1.286 . S
N191 C187 1.413 . S
O192 Cd193 2.223 . S
O192 C200 1.315 . S
Cd193 O192 2.223 . S
Cd193 O196 2.297 . S
Cd193 O197 2.439 . S
Cd193 O203 2.240 . S
Cd194 O195 2.240 . S
Cd194 O202 2.223 . S
Cd194 O204 2.297 1_565 S
Cd194 O205 2.439 . S
O195 Cd194 2.240 . S
O195 C200 1.279 . S
O196 Cd193 2.297 . S
O196 C198 1.247 . S
O197 Cd193 2.439 . S
O197 C198 1.208 . S
C198 O196 1.247 . S
C198 O197 1.208 . S
C199 O204 1.247 . S
C199 O205 1.208 1_545 S
C200 O192 1.315 . S
C200 O195 1.279 . S
C201 O202 1.315 . S
C201 O203 1.279 . S
O202 Cd194 2.223 . S
O202 C201 1.315 . S
O203 Cd193 2.240 . S
O203 C201 1.279 . S
O204 Cd194 2.297 1_545 S
O204 C199 1.247 . S
O205 Cd194 2.439 . S
O205 C199 1.208 1_565 S
O206 Cd207 2.223 . S
O206 C214 1.315 . S
Cd207 O206 2.223 . S
Cd207 O210 2.297 . S
Cd207 O211 2.439 . S
Cd207 O217 2.240 . S
Cd208 O209 2.240 . S
Cd208 O216 2.223 . S
Cd208 O218 2.297 . S
Cd208 O219 2.439 . S
O209 Cd208 2.240 . S
O209 C214 1.279 . S
O210 Cd207 2.297 . S
O210 C212 1.247 . S
O211 Cd207 2.439 . S
O211 C212 1.208 . S
C212 O210 1.247 . S
C212 O211 1.208 . S
C213 O218 1.247 . S
C213 O219 1.208 . S
C214 O206 1.315 . S
C214 O209 1.279 . S
C215 O216 1.315 . S
C215 O217 1.279 . S
O216 Cd208 2.223 . S
O216 C215 1.315 . S
O217 Cd207 2.240 . S
O217 C215 1.279 . S
O218 Cd208 2.297 . S
O218 C213 1.247 . S
O219 Cd208 2.439 . S
O219 C213 1.208 . S
O220 Cd221 2.223 1_556 S
O220 C228 1.315 . S
Cd221 O220 2.223 1_554 S
Cd221 O224 2.297 . S
Cd221 O225 2.439 . S
Cd221 O231 2.240 . S
Cd222 O223 2.240 . S
Cd222 O230 2.223 . S
Cd222 O232 2.297 1_556 S
Cd222 O233 2.439 1_556 S
O223 Cd222 2.240 . S
O223 C228 1.279 . S
O224 Cd221 2.297 . S
O224 C226 1.247 . S
O225 Cd221 2.439 . S
O225 C226 1.208 . S
C226 O224 1.247 . S
C226 O225 1.208 . S
C227 O232 1.247 . S
C227 O233 1.208 . S
C228 O220 1.315 . S
C228 O223 1.279 . S
C229 O230 1.315 . S
C229 O231 1.279 1_556 S
O230 Cd222 2.223 . S
O230 C229 1.315 . S
O231 Cd221 2.240 . S
O231 C229 1.279 1_554 S
O232 Cd222 2.297 1_554 S
O232 C227 1.247 . S
O233 Cd222 2.439 1_554 S
O233 C227 1.208 . S
O234 Cd235 2.223 . S
O234 C242 1.315 . S
Cd235 O234 2.223 . S
Cd235 O238 2.297 1_655 S
Cd235 O239 2.439 . S
Cd235 O245 2.240 . S
Cd236 O237 2.240 . S
Cd236 O244 2.223 . S
Cd236 O246 2.297 . S
Cd236 O247 2.439 . S
O237 Cd236 2.240 . S
O237 C242 1.279 . S
O238 Cd235 2.297 1_455 S
O238 C240 1.247 . S
O239 Cd235 2.439 . S
O239 C240 1.208 1_655 S
C240 O238 1.247 . S
C240 O239 1.208 1_455 S
C241 O246 1.247 . S
C241 O247 1.208 . S
C242 O234 1.315 . S
C242 O237 1.279 . S
C243 O244 1.315 . S
C243 O245 1.279 . S
O244 Cd236 2.223 . S
O244 C243 1.315 . S
O245 Cd235 2.240 . S
O245 C243 1.279 . S
O246 Cd236 2.297 . S
O246 C241 1.247 . S
O247 Cd236 2.439 . S
O247 C241 1.208 . S
O248 Cd249 2.223 . S
O248 C256 1.315 . S
Cd249 O248 2.223 . S
Cd249 O252 2.297 . S
Cd249 O253 2.439 . S
Cd249 O259 2.240 . S
Cd250 O251 2.240 . S
Cd250 O258 2.223 . S
Cd250 O260 2.297 . S
Cd250 O261 2.439 . S
O251 Cd250 2.240 . S
O251 C256 1.279 . S
O252 Cd249 2.297 . S
O252 C254 1.247 . S
O253 Cd249 2.439 . S
O253 C254 1.208 . S
C254 O252 1.247 . S
C254 O253 1.208 . S
C255 O260 1.247 . S
C255 O261 1.208 . S
C256 O248 1.315 . S
C256 O251 1.279 . S
C257 O258 1.315 . S
C257 O259 1.279 . S
O258 Cd250 2.223 . S
O258 C257 1.315 . S
O259 Cd249 2.240 . S
O259 C257 1.279 . S
O260 Cd250 2.297 . S
O260 C255 1.247 . S
O261 Cd250 2.439 . S
O261 C255 1.208 . S
O262 Cd263 2.223 . S
O262 C270 1.315 . S
Cd263 O262 2.223 . S
Cd263 O266 2.297 . S
Cd263 O267 2.439 . S
Cd263 O273 2.240 . S
Cd264 O265 2.240 . S
Cd264 O272 2.223 . S
Cd264 O274 2.297 . S
Cd264 O275 2.439 . S
O265 Cd264 2.240 . S
O265 C270 1.279 . S
O266 Cd263 2.297 . S
O266 C268 1.247 . S
O267 Cd263 2.439 . S
O267 C268 1.208 . S
C268 O266 1.247 . S
C268 O267 1.208 . S
C269 O274 1.247 . S
C269 O275 1.208 . S
C270 O262 1.315 . S
C270 O265 1.279 . S
C271 O272 1.315 . S
C271 O273 1.279 . S
O272 Cd264 2.223 . S
O272 C271 1.315 . S
O273 Cd263 2.240 . S
O273 C271 1.279 . S
O274 Cd264 2.297 . S
O274 C269 1.247 . S
O275 Cd264 2.439 . S
O275 C269 1.208 . S
O276 Cd277 2.223 . S
O276 C284 1.315 . S
Cd277 O276 2.223 . S
Cd277 O280 2.297 . S
Cd277 O281 2.439 . S
Cd277 O287 2.240 . S
Cd278 O279 2.240 . S
Cd278 O286 2.223 . S
Cd278 O288 2.297 . S
Cd278 O289 2.439 . S
O279 Cd278 2.240 . S
O279 C284 1.279 . S
O280 Cd277 2.297 . S
O280 C282 1.247 . S
O281 Cd277 2.439 . S
O281 C282 1.208 . S
C282 O280 1.247 . S
C282 O281 1.208 . S
C283 O288 1.247 . S
C283 O289 1.208 . S
C284 O276 1.315 . S
C284 O279 1.279 . S
C285 O286 1.315 . S
C285 O287 1.279 . S
O286 Cd278 2.223 . S
O286 C285 1.315 . S
O287 Cd277 2.240 . S
O287 C285 1.279 . S
O288 Cd278 2.297 . S
O288 C283 1.247 . S
O289 Cd278 2.439 . S
O289 C283 1.208 . S
O290 Cd291 2.223 1_545 S
O290 C298 1.315 . S
Cd291 O290 2.223 1_565 S
Cd291 O294 2.297 . S
Cd291 O295 2.439 . S
Cd291 O301 2.240 1_565 S
Cd292 O293 2.240 . S
Cd292 O300 2.223 . S
Cd292 O302 2.297 . S
Cd292 O303 2.439 1_545 S
O293 Cd292 2.240 . S
O293 C298 1.279 . S
O294 Cd291 2.297 . S
O294 C296 1.247 . S
O295 Cd291 2.439 . S
O295 C296 1.208 . S
C296 O294 1.247 . S
C296 O295 1.208 . S
C297 O302 1.247 1_565 S
C297 O303 1.208 . S
C298 O290 1.315 . S
C298 O293 1.279 . S
C299 O300 1.315 . S
C299 O301 1.279 . S
O300 Cd292 2.223 . S
O300 C299 1.315 . S
O301 Cd291 2.240 1_545 S
O301 C299 1.279 . S
O302 Cd292 2.297 . S
O302 C297 1.247 1_545 S
O303 Cd292 2.439 1_565 S
O303 C297 1.208 . S
O304 Cd305 2.223 . S
O304 C312 1.315 . S
Cd305 O304 2.223 . S
Cd305 O308 2.297 1_655 S
Cd305 O309 2.439 1_655 S
Cd305 O315 2.240 . S
Cd306 O307 2.240 . S
Cd306 O314 2.223 1_455 S
Cd306 O316 2.297 . S
Cd306 O317 2.439 . S
O307 Cd306 2.240 . S
O307 C312 1.279 1_455 S
O308 Cd305 2.297 1_455 S
O308 C310 1.247 . S
O309 Cd305 2.439 1_455 S
O309 C310 1.208 . S
C310 O308 1.247 . S
C310 O309 1.208 . S
C311 O316 1.247 . S
C311 O317 1.208 . S
C312 O304 1.315 . S
C312 O307 1.279 1_655 S
C313 O314 1.315 . S
C313 O315 1.279 . S
O314 Cd306 2.223 1_655 S
O314 C313 1.315 . S
O315 Cd305 2.240 . S
O315 C313 1.279 . S
O316 Cd306 2.297 . S
O316 C311 1.247 . S
O317 Cd306 2.439 . S
O317 C311 1.208 . S
O318 Cd319 2.223 . S
O318 C326 1.315 . S
Cd319 O318 2.223 . S
Cd319 O322 2.297 . S
Cd319 O323 2.439 . S
Cd319 O329 2.240 . S
Cd320 O321 2.240 . S
Cd320 O328 2.223 . S
Cd320 O330 2.297 . S
Cd320 O331 2.439 . S
O321 Cd320 2.240 . S
O321 C326 1.279 . S
O322 Cd319 2.297 . S
O322 C324 1.247 . S
O323 Cd319 2.439 . S
O323 C324 1.208 . S
C324 O322 1.247 . S
C324 O323 1.208 . S
C325 O330 1.247 . S
C325 O331 1.208 . S
C326 O318 1.315 . S
C326 O321 1.279 . S
C327 O328 1.315 . S
C327 O329 1.279 . S
O328 Cd320 2.223 . S
O328 C327 1.315 . S
O329 Cd319 2.240 . S
O329 C327 1.279 . S
O330 Cd320 2.297 . S
O330 C325 1.247 . S
O331 Cd320 2.439 . S
O331 C325 1.208 . S
O332 Cd333 2.223 1_655 S
O332 C340 1.315 . S
Cd333 O332 2.223 1_455 S
Cd333 O336 2.297 . S
Cd333 O337 2.439 . S
Cd333 O343 2.240 . S
Cd334 O335 2.239 1_455 S
Cd334 O342 2.210 1_455 S
Cd334 O344 2.309 . S
Cd334 O345 2.472 . S
O335 Cd334 2.239 1_655 S
O335 C340 1.279 . S
O336 Cd333 2.297 . S
O336 C338 1.247 . S
O337 Cd333 2.439 . S
O337 C338 1.208 . S
C338 O336 1.247 . S
C338 O337 1.208 . S
C339 O344 1.247 . S
C339 O345 1.208 . S
C340 O332 1.315 . S
C340 O335 1.279 . S
C341 O342 1.315 . S
C341 O343 1.279 1_655 S
O342 Cd334 2.210 1_655 S
O342 C341 1.315 . S
O343 Cd333 2.240 . S
O343 C341 1.279 1_455 S
O344 Cd334 2.309 . S
O344 C339 1.247 . S
O345 Cd334 2.472 . S
O345 C339 1.208 . S
O346 Cd347 2.223 . S
O346 C354 1.315 . S
Cd347 O346 2.223 . S
Cd347 O350 2.297 . S
Cd347 O351 2.439 . S
Cd347 O357 2.240 . S
Cd348 O349 2.240 . S
Cd348 O356 2.223 . S
Cd348 O358 2.297 . S
Cd348 O359 2.439 . S
O349 Cd348 2.240 . S
O349 C354 1.279 . S
O350 Cd347 2.297 . S
O350 C352 1.247 . S
O351 Cd347 2.439 . S
O351 C352 1.208 . S
C352 O350 1.247 . S
C352 O351 1.208 . S
C353 O358 1.247 . S
C353 O359 1.208 . S
C354 O346 1.315 . S
C354 O349 1.279 . S
C355 O356 1.315 . S
C355 O357 1.279 . S
O356 Cd348 2.223 . S
O356 C355 1.315 . S
O357 Cd347 2.240 . S
O357 C355 1.279 . S
O358 Cd348 2.297 . S
O358 C353 1.247 . S
O359 Cd348 2.439 . S
O359 C353 1.208 . S
C360 C361 1.369 . S
C360 C362 1.419 . S
C360 H364 0.930 . S
C361 C360 1.369 . S
C361 C370 1.429 . S
C362 C360 1.419 . S
C362 C363 1.363 . S
C362 H365 0.929 . S
C363 C362 1.363 . S
C363 C369 1.428 . S
H364 C360 0.930 . S
H365 C362 0.929 . S
S366 N367 1.613 . S
S366 N368 1.610 . S
N367 S366 1.613 . S
N367 C370 1.350 . S
N368 S366 1.610 . S
N368 C369 1.351 . S
C369 C363 1.428 . S
C369 N368 1.351 . S
C369 C370 1.434 . S
C370 C361 1.429 . S
C370 N367 1.350 . S
C370 C369 1.434 . S
C371 C372 1.369 1_455 S
C371 C373 1.419 . S
C371 H375 0.930 1_455 S
C372 C371 1.369 1_655 S
C372 C381 1.429 1_655 S
C373 C371 1.419 . S
C373 C374 1.363 . S
C373 H376 0.929 . S
C374 C373 1.363 . S
C374 C380 1.428 . S
H375 C371 0.930 1_655 S
H376 C373 0.929 . S
S377 N378 1.613 1_455 S
S377 N379 1.610 . S
N378 S377 1.613 1_655 S
N378 C381 1.350 1_655 S
N379 S377 1.610 . S
N379 C380 1.351 . S
C380 C374 1.428 . S
C380 N379 1.351 . S
C380 C381 1.434 . S
C381 C372 1.429 1_455 S
C381 N378 1.350 1_455 S
C381 C380 1.434 . S
C382 C383 1.369 . S
C382 C384 1.419 . S
C382 H386 0.930 . S
C383 C382 1.369 . S
C383 C392 1.429 . S
C384 C382 1.419 . S
C384 C385 1.363 . S
C384 H387 0.929 . S
C385 C384 1.363 . S
C385 C391 1.428 . S
H386 C382 0.930 . S
H387 C384 0.929 . S
S388 N389 1.613 . S
S388 N390 1.610 . S
N389 S388 1.613 . S
N389 C392 1.350 . S
N390 S388 1.610 . S
N390 C391 1.351 . S
C391 C385 1.428 . S
C391 N390 1.351 . S
C391 C392 1.434 . S
C392 C383 1.429 . S
C392 N389 1.350 . S
C392 C391 1.434 . S
C393 C394 1.369 . S
C393 C395 1.419 1_565 S
C393 H397 0.930 . S
C394 C393 1.369 . S
C394 C403 1.422 1_565 S
C395 C393 1.419 1_545 S
C395 C396 1.363 . S
C395 H398 0.929 . S
C396 C395 1.363 . S
C396 C402 1.428 . S
H397 C393 0.930 . S
H398 C395 0.929 . S
S399 N400 1.613 . S
S399 N401 1.610 . S
N400 S399 1.613 . S
N400 C403 1.350 . S
N401 S399 1.610 . S
N401 C402 1.351 . S
C402 C396 1.428 . S
C402 N401 1.351 . S
C402 C403 1.434 . S
C403 C394 1.422 1_545 S
C403 N400 1.350 . S
C403 C402 1.434 . S
C404 C405 1.369 . S
C404 C406 1.419 . S
C404 H408 0.930 . S
C405 C404 1.369 . S
C405 C414 1.429 . S
C406 C404 1.419 . S
C406 C407 1.363 . S
C406 H409 0.929 . S
C407 C406 1.363 . S
C407 C413 1.428 . S
H408 C404 0.930 . S
H409 C406 0.929 . S
S410 N411 1.613 . S
S410 N412 1.610 . S
N411 S410 1.613 . S
N411 C414 1.350 . S
N412 S410 1.610 . S
N412 C413 1.351 . S
C413 C407 1.428 . S
C413 N412 1.351 . S
C413 C414 1.434 . S
C414 C405 1.429 . S
C414 N411 1.350 . S
C414 C413 1.434 . S
C415 C416 1.369 . S
C415 C417 1.419 . S
C415 H419 0.930 . S
C416 C415 1.369 . S
C416 C425 1.429 . S
C417 C415 1.419 . S
C417 C418 1.363 . S
C417 H420 0.929 . S
C418 C417 1.363 . S
C418 C424 1.428 . S
H419 C415 0.930 . S
H420 C417 0.929 . S
S421 N422 1.613 . S
S421 N423 1.610 . S
N422 S421 1.613 . S
N422 C425 1.350 . S
N423 S421 1.610 . S
N423 C424 1.351 . S
C424 C418 1.428 . S
C424 N423 1.351 . S
C424 C425 1.434 . S
C425 C416 1.429 . S
C425 N422 1.350 . S
C425 C424 1.434 . S
C426 C427 1.369 . S
C426 C428 1.419 . S
C426 H430 0.930 . S
C427 C426 1.369 . S
C427 C436 1.429 . S
C428 C426 1.419 . S
C428 C429 1.363 . S
C428 H431 0.929 . S
C429 C428 1.363 . S
C429 C435 1.428 . S
H430 C426 0.930 . S
H431 C428 0.929 . S
S432 N433 1.613 . S
S432 N434 1.610 . S
N433 S432 1.613 . S
N433 C436 1.350 . S
N434 S432 1.610 . S
N434 C435 1.351 . S
C435 C429 1.428 . S
C435 N434 1.351 . S
C435 C436 1.434 . S
C436 C427 1.429 . S
C436 N433 1.350 . S
C436 C435 1.434 . S
C437 C438 1.369 . S
C437 C439 1.419 . S
C437 H441 0.930 . S
C438 C437 1.369 . S
C438 C447 1.429 . S
C439 C437 1.419 . S
C439 C440 1.363 . S
C439 H442 0.929 . S
C440 C439 1.363 . S
C440 C446 1.428 . S
H441 C437 0.930 . S
H442 C439 0.929 . S
S443 N444 1.613 . S
S443 N445 1.610 . S
N444 S443 1.613 . S
N444 C447 1.350 1_545 S
N445 S443 1.610 . S
N445 C446 1.351 1_545 S
C446 C440 1.428 . S
C446 N445 1.351 1_565 S
C446 C447 1.434 . S
C447 C438 1.429 . S
C447 N444 1.350 1_565 S
C447 C446 1.434 . S
C448 C449 1.369 . S
C448 C450 1.419 . S
C448 H452 0.930 . S
C449 C448 1.369 . S
C449 C458 1.429 . S
C450 C448 1.419 . S
C450 C451 1.363 . S
C450 H453 0.929 . S
C451 C450 1.363 . S
C451 C457 1.428 . S
H452 C448 0.930 . S
H453 C450 0.929 . S
S454 N455 1.613 . S
S454 N456 1.610 . S
N455 S454 1.613 . S
N455 C458 1.350 . S
N456 S454 1.610 . S
N456 C457 1.351 . S
C457 C451 1.428 . S
C457 N456 1.351 . S
C457 C458 1.434 . S
C458 C449 1.429 . S
C458 N455 1.350 . S
C458 C457 1.434 . S
C459 C460 1.369 . S
C459 C461 1.419 . S
C459 H463 0.930 . S
C460 C459 1.369 . S
C460 C469 1.429 . S
C461 C459 1.419 . S
C461 C462 1.363 . S
C461 H464 0.929 . S
C462 C461 1.363 . S
C462 C468 1.428 . S
H463 C459 0.930 . S
H464 C461 0.929 . S
S465 N466 1.613 . S
S465 N467 1.610 . S
N466 S465 1.613 . S
N466 C469 1.350 . S
N467 S465 1.610 . S
N467 C468 1.351 . S
C468 C462 1.428 . S
C468 N467 1.351 . S
C468 C469 1.434 . S
C469 C460 1.429 . S
C469 N466 1.350 . S
C469 C468 1.434 . S
C470 C471 1.369 . S
C470 C472 1.419 . S
C470 H474 0.930 . S
C471 C470 1.369 . S
C471 C480 1.429 . S
C472 C470 1.419 . S
C472 C473 1.363 . S
C472 H475 0.929 . S
C473 C472 1.363 . S
C473 C479 1.428 . S
H474 C470 0.930 . S
H475 C472 0.929 . S
S476 N477 1.613 . S
S476 N478 1.610 . S
N477 S476 1.613 . S
N477 C480 1.350 . S
N478 S476 1.610 . S
N478 C479 1.351 . S
C479 C473 1.428 . S
C479 N478 1.351 . S
C479 C480 1.434 . S
C480 C471 1.429 . S
C480 N477 1.350 . S
C480 C479 1.434 . S
C481 C482 1.369 . S
C481 C483 1.419 . S
C481 H485 0.930 . S
C482 C481 1.369 . S
C482 C491 1.429 . S
C483 C481 1.419 . S
C483 C484 1.363 . S
C483 H486 0.929 . S
C484 C483 1.363 . S
C484 C490 1.428 . S
H485 C481 0.930 . S
H486 C483 0.929 . S
S487 N488 1.613 . S
S487 N489 1.610 . S
N488 S487 1.613 . S
N488 C491 1.350 . S
N489 S487 1.610 . S
N489 C490 1.351 . S
C490 C484 1.428 . S
C490 N489 1.351 . S
C490 C491 1.434 . S
C491 C482 1.429 . S
C491 N488 1.350 . S
C491 C490 1.434 . S
C492 C493 1.369 . S
C492 C494 1.419 . S
C492 H496 0.930 . S
C493 C492 1.369 . S
C493 C502 1.429 . S
C494 C492 1.419 . S
C494 C495 1.363 . S
C494 H497 0.929 . S
C495 C494 1.363 . S
C495 C501 1.428 . S
H496 C492 0.930 . S
H497 C494 0.929 . S
S498 N499 1.613 . S
S498 N500 1.610 . S
N499 S498 1.613 . S
N499 C502 1.350 . S
N500 S498 1.610 . S
N500 C501 1.351 . S
C501 C495 1.428 . S
C501 N500 1.351 . S
C501 C502 1.434 . S
C502 C493 1.429 . S
C502 N499 1.350 . S
C502 C501 1.434 . S
C503 C504 1.369 . S
C503 C505 1.419 . S
C503 H507 0.930 . S
C504 C503 1.369 . S
C504 C513 1.429 . S
C505 C503 1.419 . S
C505 C506 1.363 . S
C505 H508 0.929 . S
C506 C505 1.363 . S
C506 C512 1.428 . S
H507 C503 0.930 . S
H508 C505 0.929 . S
S509 N510 1.613 . S
S509 N511 1.610 . S
N510 S509 1.613 . S
N510 C513 1.350 . S
N511 S509 1.610 . S
N511 C512 1.351 . S
C512 C506 1.428 . S
C512 N511 1.351 . S
C512 C513 1.434 . S
C513 C504 1.429 . S
C513 N510 1.350 . S
C513 C512 1.434 . S
C514 C515 1.369 . S
C514 C516 1.419 . S
C514 H518 0.930 . S
C515 C514 1.369 . S
C515 C524 1.429 . S
C516 C514 1.419 . S
C516 C517 1.363 . S
C516 H519 0.929 . S
C517 C516 1.363 . S
C517 C523 1.428 . S
H518 C514 0.930 . S
H519 C516 0.929 . S
S520 N521 1.613 . S
S520 N522 1.610 . S
N521 S520 1.613 . S
N521 C524 1.350 . S
N522 S520 1.610 . S
N522 C523 1.351 . S
C523 C517 1.428 . S
C523 N522 1.351 . S
C523 C524 1.434 . S
C524 C515 1.429 . S
C524 N521 1.350 . S
C524 C523 1.434 . S
C525 C526 1.369 . S
C525 C527 1.419 . S
C525 H529 0.930 . S
C526 C525 1.369 . S
C526 C535 1.429 . S
C527 C525 1.419 . S
C527 C528 1.363 . S
C527 H530 0.929 . S
C528 C527 1.363 . S
C528 C534 1.428 . S
H529 C525 0.930 . S
H530 C527 0.929 . S
S531 N532 1.613 . S
S531 N533 1.610 . S
N532 S531 1.613 . S
N532 C535 1.350 . S
N533 S531 1.610 . S
N533 C534 1.351 . S
C534 C528 1.428 . S
C534 N533 1.351 . S
C534 C535 1.434 . S
C535 C526 1.429 . S
C535 N532 1.350 . S
C535 C534 1.434 . S
C536 C537 1.369 . S
C536 C538 1.419 . S
C536 H540 0.930 . S
C537 C536 1.369 . S
C537 C546 1.429 . S
C538 C536 1.419 . S
C538 C539 1.363 . S
C538 H541 0.929 1_565 S
C539 C538 1.363 . S
C539 C545 1.428 . S
H540 C536 0.930 . S
H541 C538 0.929 1_545 S
S542 N543 1.613 . S
S542 N544 1.610 . S
N543 S542 1.613 . S
N543 C546 1.350 . S
N544 S542 1.610 . S
N544 C545 1.351 . S
C545 C539 1.428 . S
C545 N544 1.351 . S
C545 C546 1.434 . S
C546 C537 1.429 . S
C546 N543 1.350 . S
C546 C545 1.434 . S
C547 C548 1.369 . S
C547 C549 1.419 . S
C547 H551 0.930 . S
C548 C547 1.369 . S
C548 C557 1.429 . S
C549 C547 1.419 . S
C549 C550 1.363 . S
C549 H552 0.929 . S
C550 C549 1.363 . S
C550 C556 1.428 . S
H551 C547 0.930 . S
H552 C549 0.929 . S
S553 N554 1.613 . S
S553 N555 1.610 . S
N554 S553 1.613 . S
N554 C557 1.350 . S
N555 S553 1.610 . S
N555 C556 1.351 . S
C556 C550 1.428 . S
C556 N555 1.351 . S
C556 C557 1.434 . S
C557 C548 1.429 . S
C557 N554 1.350 . S
C557 C556 1.434 . S
C558 C559 1.369 . S
C558 C560 1.419 1_545 S
C558 H562 0.930 . S
C559 C558 1.369 . S
C559 C568 1.429 1_556 S
C560 C558 1.419 1_565 S
C560 C561 1.364 1_556 S
C560 H563 0.929 . S
C561 C560 1.364 1_554 S
C561 C567 1.421 1_565 S
H562 C558 0.930 . S
H563 C560 0.929 . S
S564 N565 1.613 . S
S564 N566 1.610 . S
N565 S564 1.613 . S
N565 C568 1.350 . S
N566 S564 1.610 . S
N566 C567 1.351 . S
C567 C561 1.421 1_545 S
C567 N566 1.351 . S
C567 C568 1.434 . S
C568 C559 1.429 1_554 S
C568 N565 1.350 . S
C568 C567 1.434 . S
C569 C570 1.369 . S
C569 C571 1.419 . S
C569 H573 0.930 . S
C570 C569 1.369 . S
C570 C579 1.429 . S
C571 C569 1.419 . S
C571 C572 1.363 . S
C571 H574 0.929 . S
C572 C571 1.363 . S
C572 C578 1.428 . S
H573 C569 0.930 . S
H574 C571 0.929 . S
S575 N576 1.613 . S
S575 N577 1.610 . S
N576 S575 1.613 . S
N576 C579 1.350 . S
N577 S575 1.610 . S
N577 C578 1.351 . S
C578 C572 1.428 . S
C578 N577 1.351 . S
C578 C579 1.434 . S
C579 C570 1.429 . S
C579 N576 1.350 . S
C579 C578 1.434 . S
C580 C581 1.369 . S
C580 C582 1.419 . S
C580 H584 0.930 . S
C581 C580 1.369 . S
C581 C590 1.429 . S
C582 C580 1.419 . S
C582 C583 1.363 . S
C582 H585 0.929 . S
C583 C582 1.363 . S
C583 C589 1.428 . S
H584 C580 0.930 . S
H585 C582 0.929 . S
S586 N587 1.613 . S
S586 N588 1.610 . S
N587 S586 1.613 . S
N587 C590 1.350 . S
N588 S586 1.610 . S
N588 C589 1.351 . S
C589 C583 1.428 . S
C589 N588 1.351 . S
C589 C590 1.434 . S
C590 C581 1.429 . S
C590 N587 1.350 . S
C590 C589 1.434 . S
C591 C592 1.369 . S
C591 C593 1.419 . S
C591 H595 0.930 . S
C592 C591 1.369 . S
C592 C601 1.429 . S
C593 C591 1.419 . S
C593 C594 1.363 . S
C593 H596 0.929 . S
C594 C593 1.363 . S
C594 C600 1.428 . S
H595 C591 0.930 . S
H596 C593 0.929 . S
S597 N598 1.613 . S
S597 N599 1.610 . S
N598 S597 1.613 . S
N598 C601 1.350 . S
N599 S597 1.610 . S
N599 C600 1.351 . S
C600 C594 1.428 . S
C600 N599 1.351 . S
C600 C601 1.434 . S
C601 C592 1.429 . S
C601 N598 1.350 . S
C601 C600 1.434 . S
C602 C603 1.369 . S
C602 C604 1.419 . S
C602 H606 0.930 1_545 S
C603 C602 1.369 . S
C603 C612 1.429 . S
C604 C602 1.419 . S
C604 C605 1.363 . S
C604 H607 0.929 . S
C605 C604 1.363 . S
C605 C611 1.428 . S
H606 C602 0.930 1_565 S
H607 C604 0.929 . S
S608 N609 1.613 . S
S608 N610 1.610 . S
N609 S608 1.613 . S
N609 C612 1.350 . S
N610 S608 1.610 . S
N610 C611 1.351 . S
C611 C605 1.428 . S
C611 N610 1.351 . S
C611 C612 1.434 . S
C612 C603 1.429 . S
C612 N609 1.350 . S
C612 C611 1.434 . S
C613 C614 1.369 . S
C613 C615 1.419 . S
C613 H617 0.930 . S
C614 C613 1.369 . S
C614 C623 1.429 . S
C615 C613 1.419 . S
C615 C616 1.363 . S
C615 H618 0.929 . S
C616 C615 1.363 . S
C616 C622 1.428 . S
H617 C613 0.930 . S
H618 C615 0.929 . S
S619 N620 1.613 . S
S619 N621 1.610 . S
N620 S619 1.613 . S
N620 C623 1.350 . S
N621 S619 1.610 . S
N621 C622 1.351 . S
C622 C616 1.428 . S
C622 N621 1.351 . S
C622 C623 1.434 . S
C623 C614 1.429 . S
C623 N620 1.350 . S
C623 C622 1.434 . S
C624 C625 1.369 . S
C624 C626 1.419 . S
C624 H628 0.930 . S
C625 C624 1.369 . S
C625 C634 1.429 . S
C626 C624 1.419 . S
C626 C627 1.363 . S
C626 H629 0.929 . S
C627 C626 1.363 . S
C627 C633 1.428 . S
H628 C624 0.930 . S
H629 C626 0.929 . S
S630 N631 1.613 . S
S630 N632 1.610 . S
N631 S630 1.613 . S
N631 C634 1.350 . S
N632 S630 1.610 . S
N632 C633 1.351 . S
C633 C627 1.428 . S
C633 N632 1.351 . S
C633 C634 1.434 . S
C634 C625 1.429 . S
C634 N631 1.350 . S
C634 C633 1.434 . S
C635 C636 1.369 . S
C635 C637 1.419 . S
C635 H639 0.930 . S
C636 C635 1.369 . S
C636 C645 1.429 . S
C637 C635 1.419 . S
C637 C638 1.363 . S
C637 H640 0.929 . S
C638 C637 1.363 . S
C638 C644 1.428 . S
H639 C635 0.930 . S
H640 C637 0.929 . S
S641 N642 1.613 . S
S641 N643 1.610 . S
N642 S641 1.613 . S
N642 C645 1.350 . S
N643 S641 1.610 . S
N643 C644 1.351 . S
C644 C638 1.428 . S
C644 N643 1.351 . S
C644 C645 1.434 . S
C645 C636 1.429 . S
C645 N642 1.350 . S
C645 C644 1.434 . S
C646 C647 1.369 . S
C646 C648 1.419 . S
C646 H650 0.930 . S
C647 C646 1.369 . S
C647 C656 1.429 . S
C648 C646 1.419 . S
C648 C649 1.363 . S
C648 H651 0.929 . S
C649 C648 1.363 . S
C649 C655 1.428 . S
H650 C646 0.930 . S
H651 C648 0.929 . S
S652 N653 1.613 . S
S652 N654 1.610 . S
N653 S652 1.613 . S
N653 C656 1.350 . S
N654 S652 1.610 . S
N654 C655 1.351 . S
C655 C649 1.428 . S
C655 N654 1.351 . S
C655 C656 1.434 . S
C656 C647 1.429 . S
C656 N653 1.350 . S
C656 C655 1.434 . S
C657 C658 1.369 . S
C657 C659 1.419 . S
C657 H661 0.930 . S
C658 C657 1.369 . S
C658 C667 1.429 . S
C659 C657 1.419 . S
C659 C660 1.363 . S
C659 H662 0.929 . S
C660 C659 1.363 . S
C660 C666 1.428 . S
H661 C657 0.930 . S
H662 C659 0.929 . S
S663 N664 1.613 . S
S663 N665 1.610 . S
N664 S663 1.613 . S
N664 C667 1.350 . S
N665 S663 1.610 . S
N665 C666 1.351 . S
C666 C660 1.428 . S
C666 N665 1.351 . S
C666 C667 1.434 . S
C667 C658 1.429 . S
C667 N664 1.350 . S
C667 C666 1.434 . S
C668 C669 1.369 . S
C668 C670 1.419 . S
C668 H672 0.930 . S
C669 C668 1.369 . S
C669 C678 1.429 . S
C670 C668 1.419 . S
C670 C671 1.363 . S
C670 H673 0.929 . S
C671 C670 1.363 . S
C671 C677 1.428 . S
H672 C668 0.930 . S
H673 C670 0.929 . S
S674 N675 1.613 . S
S674 N676 1.610 . S
N675 S674 1.613 . S
N675 C678 1.350 . S
N676 S674 1.610 . S
N676 C677 1.351 . S
C677 C671 1.428 . S
C677 N676 1.351 . S
C677 C678 1.434 . S
C678 C669 1.429 . S
C678 N675 1.350 . S
C678 C677 1.434 . S
C679 C680 1.369 . S
C679 C681 1.419 . S
C679 H683 0.930 . S
C680 C679 1.369 . S
C680 C689 1.429 . S
C681 C679 1.419 . S
C681 C682 1.363 . S
C681 H684 0.929 . S
C682 C681 1.363 . S
C682 C688 1.428 . S
H683 C679 0.930 . S
H684 C681 0.929 . S
S685 N686 1.613 . S
S685 N687 1.610 . S
N686 S685 1.613 . S
N686 C689 1.350 . S
N687 S685 1.610 . S
N687 C688 1.351 . S
C688 C682 1.428 . S
C688 N687 1.351 . S
C688 C689 1.434 . S
C689 C680 1.429 . S
C689 N686 1.350 . S
C689 C688 1.434 . S
C690 C691 1.369 . S
C690 C692 1.419 . S
C690 H694 0.930 . S
C691 C690 1.369 . S
C691 C700 1.429 . S
C692 C690 1.419 . S
C692 C693 1.363 . S
C692 H695 0.929 . S
C693 C692 1.363 . S
C693 C699 1.428 . S
H694 C690 0.930 . S
H695 C692 0.929 . S
S696 N697 1.613 . S
S696 N698 1.610 . S
N697 S696 1.613 . S
N697 C700 1.350 . S
N698 S696 1.610 . S
N698 C699 1.351 . S
C699 C693 1.428 . S
C699 N698 1.351 . S
C699 C700 1.434 . S
C700 C691 1.429 . S
C700 N697 1.350 . S
C700 C699 1.434 . S
C701 C702 1.369 . S
C701 C703 1.419 1_655 S
C701 H705 0.930 . S
C702 C701 1.369 . S
C702 C711 1.429 . S
C703 C701 1.419 1_455 S
C703 C704 1.363 . S
C703 H706 0.929 . S
C704 C703 1.363 . S
C704 C710 1.428 1_455 S
H705 C701 0.930 . S
H706 C703 0.929 . S
S707 N708 1.613 . S
S707 N709 1.610 . S
N708 S707 1.613 . S
N708 C711 1.350 . S
N709 S707 1.610 . S
N709 C710 1.351 . S
C710 C704 1.428 1_655 S
C710 N709 1.351 . S
C710 C711 1.434 . S
C711 C702 1.429 . S
C711 N708 1.350 . S
C711 C710 1.434 . S
C712 C713 1.369 . S
C712 C714 1.419 . S
C712 H716 0.930 . S
C713 C712 1.369 . S
C713 C722 1.429 . S
C714 C712 1.419 . S
C714 C715 1.363 . S
C714 H717 0.929 . S
C715 C714 1.363 . S
C715 C721 1.428 . S
H716 C712 0.930 . S
H717 C714 0.929 . S
S718 N719 1.613 . S
S718 N720 1.610 . S
N719 S718 1.613 . S
N719 C722 1.350 . S
N720 S718 1.610 . S
N720 C721 1.351 . S
C721 C715 1.428 . S
C721 N720 1.351 . S
C721 C722 1.434 . S
C722 C713 1.429 . S
C722 N719 1.350 . S
C722 C721 1.434 . S
C723 C724 1.369 . S
C723 C725 1.419 1_554 S
C723 H727 0.930 . S
C724 C723 1.369 . S
C724 C733 1.429 1_554 S
C725 C723 1.419 1_556 S
C725 C726 1.363 . S
C725 H728 0.929 . S
C726 C725 1.363 . S
C726 C732 1.428 . S
H727 C723 0.930 . S
H728 C725 0.929 . S
S729 N730 1.613 . S
S729 N731 1.610 . S
N730 S729 1.613 . S
N730 C733 1.350 . S
N731 S729 1.610 . S
N731 C732 1.351 . S
C732 C726 1.428 . S
C732 N731 1.351 . S
C732 C733 1.434 . S
C733 C724 1.429 1_556 S
C733 N730 1.350 . S
C733 C732 1.434 . S
C734 C735 1.369 . S
C734 C736 1.419 . S
C734 H738 0.930 . S
C735 C734 1.369 . S
C735 C744 1.429 . S
C736 C734 1.419 . S
C736 C737 1.363 . S
C736 H739 0.929 . S
C737 C736 1.363 . S
C737 C743 1.428 . S
H738 C734 0.930 . S
H739 C736 0.929 . S
S740 N741 1.613 . S
S740 N742 1.610 . S
N741 S740 1.613 . S
N741 C744 1.350 . S
N742 S740 1.610 . S
N742 C743 1.351 . S
C743 C737 1.428 . S
C743 N742 1.351 . S
C743 C744 1.434 . S
C744 C735 1.429 . S
C744 N741 1.350 . S
C744 C743 1.434 . S
C745 C746 1.369 . S
C745 C747 1.419 1_554 S
C745 H749 0.930 . S
C746 C745 1.369 . S
C746 C755 1.429 . S
C747 C745 1.419 1_556 S
C747 C748 1.363 . S
C747 H750 0.929 . S
C748 C747 1.363 . S
C748 C754 1.428 . S
H749 C745 0.930 . S
H750 C747 0.929 . S
S751 N752 1.613 . S
S751 N753 1.610 1_554 S
N752 S751 1.613 . S
N752 C755 1.350 . S
N753 S751 1.610 1_556 S
N753 C754 1.351 . S
C754 C748 1.428 . S
C754 N753 1.351 . S
C754 C755 1.434 1_556 S
C755 C746 1.429 . S
C755 N752 1.350 . S
C755 C754 1.434 1_554 S
C756 C757 1.369 . S
C756 C758 1.419 . S
C756 H760 0.930 . S
C757 C756 1.369 . S
C757 C766 1.429 . S
C758 C756 1.419 . S
C758 C759 1.363 . S
C758 H761 0.929 . S
C759 C758 1.363 . S
C759 C765 1.428 . S
H760 C756 0.930 . S
H761 C758 0.929 . S
S762 N763 1.613 . S
S762 N764 1.610 . S
N763 S762 1.613 . S
N763 C766 1.350 . S
N764 S762 1.610 . S
N764 C765 1.351 . S
C765 C759 1.428 . S
C765 N764 1.351 . S
C765 C766 1.434 . S
C766 C757 1.429 . S
C766 N763 1.350 . S
C766 C765 1.434 . S
C767 C768 1.369 1_554 S
C767 C769 1.419 . S
C767 H771 0.930 . S
C768 C767 1.369 1_556 S
C768 C777 1.429 . S
C769 C767 1.419 . S
C769 C770 1.363 . S
C769 H772 0.929 . S
C770 C769 1.363 . S
C770 C776 1.428 . S
H771 C767 0.930 . S
H772 C769 0.929 . S
S773 N774 1.613 . S
S773 N775 1.610 1_556 S
N774 S773 1.613 . S
N774 C777 1.350 . S
N775 S773 1.610 1_554 S
N775 C776 1.351 . S
C776 C770 1.428 . S
C776 N775 1.351 . S
C776 C777 1.434 1_554 S
C777 C768 1.429 . S
C777 N774 1.350 . S
C777 C776 1.434 1_556 S
C778 C779 1.369 . S
C778 C780 1.419 . S
C778 H782 0.930 . S
C779 C778 1.369 . S
C779 C788 1.429 . S
C780 C778 1.419 . S
C780 C781 1.363 . S
C780 H783 0.929 . S
C781 C780 1.363 . S
C781 C787 1.428 . S
H782 C778 0.930 . S
H783 C780 0.929 . S
S784 N785 1.613 . S
S784 N786 1.610 . S
N785 S784 1.613 . S
N785 C788 1.350 . S
N786 S784 1.610 . S
N786 C787 1.351 . S
C787 C781 1.428 . S
C787 N786 1.351 . S
C787 C788 1.434 . S
C788 C779 1.429 . S
C788 N785 1.350 . S
C788 C787 1.434 . S
C789 C790 1.369 . S
C789 C791 1.419 . S
C789 H793 0.930 . S
C790 C789 1.369 . S
C790 C799 1.429 . S
C791 C789 1.419 . S
C791 C792 1.363 . S
C791 H794 0.929 . S
C792 C791 1.363 . S
C792 C798 1.428 . S
H793 C789 0.930 . S
H794 C791 0.929 . S
S795 N796 1.613 . S
S795 N797 1.610 . S
N796 S795 1.613 . S
N796 C799 1.350 . S
N797 S795 1.610 . S
N797 C798 1.351 . S
C798 C792 1.428 . S
C798 N797 1.351 . S
C798 C799 1.434 . S
C799 C790 1.429 . S
C799 N796 1.350 . S
C799 C798 1.434 . S
C800 C801 1.369 . S
C800 C802 1.419 . S
C800 H804 0.930 . S
C801 C800 1.369 . S
C801 C810 1.429 . S
C802 C800 1.419 . S
C802 C803 1.363 . S
C802 H805 0.929 . S
C803 C802 1.363 . S
C803 C809 1.428 . S
H804 C800 0.930 . S
H805 C802 0.929 . S
S806 N807 1.613 . S
S806 N808 1.610 . S
N807 S806 1.613 . S
N807 C810 1.350 . S
N808 S806 1.610 . S
N808 C809 1.351 . S
C809 C803 1.428 . S
C809 N808 1.351 . S
C809 C810 1.434 . S
C810 C801 1.429 . S
C810 N807 1.350 . S
C810 C809 1.434 . S
C811 C812 1.369 . S
C811 C813 1.419 . S
C811 H815 0.930 . S
C812 C811 1.369 . S
C812 C821 1.429 . S
C813 C811 1.419 . S
C813 C814 1.363 . S
C813 H816 0.929 . S
C814 C813 1.363 . S
C814 C820 1.428 . S
H815 C811 0.930 . S
H816 C813 0.929 . S
S817 N818 1.613 . S
S817 N819 1.610 . S
N818 S817 1.613 . S
N818 C821 1.350 . S
N819 S817 1.610 . S
N819 C820 1.351 . S
C820 C814 1.428 . S
C820 N819 1.351 . S
C820 C821 1.434 . S
C821 C812 1.429 . S
C821 N818 1.350 . S
C821 C820 1.434 . S
C822 C823 1.369 . S
C822 C824 1.419 . S
C822 H826 0.930 . S
C823 C822 1.369 . S
C823 C832 1.429 . S
C824 C822 1.419 . S
C824 C825 1.363 . S
C824 H827 0.929 . S
C825 C824 1.363 . S
C825 C831 1.428 . S
H826 C822 0.930 . S
H827 C824 0.929 . S
S828 N829 1.613 . S
S828 N830 1.610 . S
N829 S828 1.613 . S
N829 C832 1.350 . S
N830 S828 1.610 . S
N830 C831 1.351 . S
C831 C825 1.428 . S
C831 N830 1.351 . S
C831 C832 1.434 . S
C832 C823 1.429 . S
C832 N829 1.350 . S
C832 C831 1.434 . S
C833 C834 1.369 . S
C833 C835 1.419 . S
C833 H837 0.930 . S
C834 C833 1.369 . S
C834 C843 1.429 . S
C835 C833 1.419 . S
C835 C836 1.363 . S
C835 H838 0.929 . S
C836 C835 1.363 . S
C836 C842 1.428 . S
H837 C833 0.930 . S
H838 C835 0.929 . S
S839 N840 1.613 . S
S839 N841 1.610 . S
N840 S839 1.613 . S
N840 C843 1.350 . S
N841 S839 1.610 . S
N841 C842 1.351 . S
C842 C836 1.428 . S
C842 N841 1.351 . S
C842 C843 1.434 . S
C843 C834 1.429 . S
C843 N840 1.350 . S
C843 C842 1.434 . S
C844 C845 1.369 . S
C844 C846 1.419 . S
C844 H848 0.930 . S
C845 C844 1.369 . S
C845 C854 1.429 . S
C846 C844 1.419 . S
C846 C847 1.363 . S
C846 H849 0.929 . S
C847 C846 1.363 . S
C847 C853 1.428 . S
H848 C844 0.930 . S
H849 C846 0.929 . S
S850 N851 1.613 . S
S850 N852 1.610 . S
N851 S850 1.613 . S
N851 C854 1.350 . S
N852 S850 1.610 . S
N852 C853 1.351 . S
C853 C847 1.428 . S
C853 N852 1.351 . S
C853 C854 1.434 . S
C854 C845 1.429 . S
C854 N851 1.350 . S
C854 C853 1.434 . S
C855 C856 1.369 . S
C855 C857 1.419 . S
C855 H859 0.930 . S
C856 C855 1.369 . S
C856 C865 1.429 . S
C857 C855 1.419 . S
C857 C858 1.363 . S
C857 H860 0.929 . S
C858 C857 1.363 . S
C858 C864 1.428 . S
H859 C855 0.930 . S
H860 C857 0.929 . S
S861 N862 1.613 . S
S861 N863 1.610 . S
N862 S861 1.613 . S
N862 C865 1.350 . S
N863 S861 1.610 . S
N863 C864 1.351 . S
C864 C858 1.428 . S
C864 N863 1.351 . S
C864 C865 1.434 . S
C865 C856 1.429 . S
C865 N862 1.350 . S
C865 C864 1.434 . S
C866 C867 1.369 . S
C866 C868 1.419 . S
C866 H870 0.930 . S
C867 C866 1.369 . S
C867 C876 1.429 . S
C868 C866 1.419 . S
C868 C869 1.363 . S
C868 H871 0.929 . S
C869 C868 1.363 . S
C869 C875 1.428 . S
H870 C866 0.930 . S
H871 C868 0.929 . S
S872 N873 1.613 . S
S872 N874 1.610 . S
N873 S872 1.613 . S
N873 C876 1.350 . S
N874 S872 1.610 . S
N874 C875 1.351 . S
C875 C869 1.428 . S
C875 N874 1.351 . S
C875 C876 1.434 . S
C876 C867 1.429 . S
C876 N873 1.350 . S
C876 C875 1.434 . S
C877 C878 1.369 . S
C877 C879 1.419 . S
C877 H881 0.930 . S
C878 C877 1.369 . S
C878 C887 1.429 . S
C879 C877 1.419 . S
C879 C880 1.363 . S
C879 H882 0.929 . S
C880 C879 1.363 . S
C880 C886 1.428 . S
H881 C877 0.930 . S
H882 C879 0.929 . S
S883 N884 1.613 . S
S883 N885 1.610 . S
N884 S883 1.613 . S
N884 C887 1.350 . S
N885 S883 1.610 . S
N885 C886 1.351 . S
C886 C880 1.428 . S
C886 N885 1.351 . S
C886 C887 1.434 . S
C887 C878 1.429 . S
C887 N884 1.350 . S
C887 C886 1.434 . S
C363 C200 1.759 1_556 S
C361 C66 1.774 . S
C374 C215 1.492 . S
C372 C76 1.504 . S
C383 C93 1.973 . S
C385 C228 1.955 . S
C396 C242 1.464 1_455 S
C394 C54 1.464 . S
C407 C254 1.621 . S
C405 C126 1.732 . S
C418 C268 1.563 . S
C416 C150 1.589 . S
C427 C136 1.414 . S
C429 C282 1.423 . S
C440 C297 1.641 . S
C438 C117 1.725 . S
C449 C141 1.419 . S
C451 C313 1.395 . S
C462 C326 1.420 . S
C460 C112 1.401 . S
C471 C124 1.635 . S
C473 C311 1.546 . S
C484 C324 1.482 . S
C482 C148 1.437 . S
C493 C88 1.615 . S
C495 C340 1.602 . S
C504 C52 1.584 . S
C506 C339 1.580 . S
C515 C64 1.471 . S
C517 C338 1.425 . S
C526 C78 1.408 . S
C528 C341 1.387 . S
C537 C45 1.897 . S
C539 C243 1.881 1_565 S
C548 C177 1.721 . S
C550 C241 1.678 . S
C561 C201 1.390 . S
C559 C189 1.431 . S
C572 C212 1.759 . S
C570 C102 1.805 . S
C581 C57 1.653 . S
C583 C257 1.635 . S
C594 C298 1.819 . S
C592 C138 1.821 . S
C605 C255 1.825 . S
C603 C114 1.844 1_545 S
C616 C283 1.588 . S
C614 C153 1.588 . S
C627 C284 1.760 . S
C625 C174 1.774 . S
C636 C184 1.512 . S
C638 C299 1.486 . S
C647 C105 1.975 . S
C649 C256 1.957 . S
C660 C270 1.459 . S
C658 C162 1.463 . S
C669 C42 1.733 . S
C671 C226 1.618 . S
C682 C240 1.568 . S
C680 C6 1.595 . S
C693 C198 1.422 . S
C691 C16 1.412 . S
C704 C213 1.643 . S
C702 C33 1.728 . S
C713 C21 1.419 . S
C715 C327 1.392 . S
C724 C28 1.407 . S
C726 C312 1.419 . S
C735 C40 1.635 . S
C737 C325 1.549 . S
C746 C4 1.434 . S
C748 C310 1.484 . S
C759 C354 1.600 . S
C757 C100 1.612 . S
C770 C353 1.579 . S
C768 C160 1.584 . S
C781 C352 1.418 . S
C779 C172 1.472 . S
C790 C186 1.409 1_554 S
C792 C355 1.386 . S
C801 C129 1.899 . S
C803 C271 1.879 . S
C814 C269 1.674 . S
C812 C69 1.721 . S
C825 C285 1.383 . S
C823 C81 1.437 . S
C836 C296 1.759 . S
C834 C90 1.806 . S
C845 C165 1.650 . S
C847 C229 1.637 . S
C858 C214 1.817 . S
C856 C18 1.820 . S
C867 C30 1.846 . S
C869 C227 1.820 . S
C880 C199 1.592 . S
C878 C9 1.586 . S
