# Generated by pormake.
# Topology pyr, (3,6)-cn, num edge types: 1
# Building blocks:
#     Node 0, Type 0, BuildingBlock: INOVEN_clean_linker_0, # of connection points: 3
#     Node 1, Type 0, BuildingBlock: INOVEN_clean_linker_0, # of connection points: 3
#     Node 2, Type 0, BuildingBlock: INOVEN_clean_linker_0, # of connection points: 3
#     Node 3, Type 0, BuildingBlock: INOVEN_clean_linker_0, # of connection points: 3
#     Node 4, Type 0, BuildingBlock: INOVEN_clean_linker_0, # of connection points: 3
#     Node 5, Type 0, BuildingBlock: INOVEN_clean_linker_0, # of connection points: 3
#     Node 6, Type 0, BuildingBlock: INOVEN_clean_linker_0, # of connection points: 3
#     Node 7, Type 0, BuildingBlock: INOVEN_clean_linker_0, # of connection points: 3
#     Node 8, Type 1, BuildingBlock: VOLQOD_clean_sbu_1, # of connection points: 6
#     Node 9, Type 1, BuildingBlock: VOLQOD_clean_sbu_1, # of connection points: 6
#     Node 10, Type 1, BuildingBlock: VOLQOD_clean_sbu_1, # of connection points: 6
#     Node 11, Type 1, BuildingBlock: VOLQOD_clean_sbu_1, # of connection points: 6
#     Edge 12, Type (0, 1), BuildingBlock: KIFKEQ_clean_linker_1, # of connection points: 2
#     Edge 13, Type (0, 1), BuildingBlock: KIFKEQ_clean_linker_1, # of connection points: 2
#     Edge 14, Type (0, 1), BuildingBlock: KIFKEQ_clean_linker_1, # of connection points: 2
#     Edge 15, Type (0, 1), BuildingBlock: KIFKEQ_clean_linker_1, # of connection points: 2
#     Edge 16, Type (0, 1), BuildingBlock: KIFKEQ_clean_linker_1, # of connection points: 2
#     Edge 17, Type (0, 1), BuildingBlock: KIFKEQ_clean_linker_1, # of connection points: 2
#     Edge 18, Type (0, 1), BuildingBlock: KIFKEQ_clean_linker_1, # of connection points: 2
#     Edge 19, Type (0, 1), BuildingBlock: KIFKEQ_clean_linker_1, # of connection points: 2
#     Edge 20, Type (0, 1), BuildingBlock: KIFKEQ_clean_linker_1, # of connection points: 2
#     Edge 21, Type (0, 1), BuildingBlock: KIFKEQ_clean_linker_1, # of connection points: 2
#     Edge 22, Type (0, 1), BuildingBlock: KIFKEQ_clean_linker_1, # of connection points: 2
#     Edge 23, Type (0, 1), BuildingBlock: KIFKEQ_clean_linker_1, # of connection points: 2
#     Edge 24, Type (0, 1), BuildingBlock: KIFKEQ_clean_linker_1, # of connection points: 2
#     Edge 25, Type (0, 1), BuildingBlock: KIFKEQ_clean_linker_1, # of connection points: 2
#     Edge 26, Type (0, 1), BuildingBlock: KIFKEQ_clean_linker_1, # of connection points: 2
#     Edge 27, Type (0, 1), BuildingBlock: KIFKEQ_clean_linker_1, # of connection points: 2
#     Edge 28, Type (0, 1), BuildingBlock: KIFKEQ_clean_linker_1, # of connection points: 2
#     Edge 29, Type (0, 1), BuildingBlock: KIFKEQ_clean_linker_1, # of connection points: 2
#     Edge 30, Type (0, 1), BuildingBlock: KIFKEQ_clean_linker_1, # of connection points: 2
#     Edge 31, Type (0, 1), BuildingBlock: KIFKEQ_clean_linker_1, # of connection points: 2
#     Edge 32, Type (0, 1), BuildingBlock: KIFKEQ_clean_linker_1, # of connection points: 2
#     Edge 33, Type (0, 1), BuildingBlock: KIFKEQ_clean_linker_1, # of connection points: 2
#     Edge 34, Type (0, 1), BuildingBlock: KIFKEQ_clean_linker_1, # of connection points: 2
#     Edge 35, Type (0, 1), BuildingBlock: KIFKEQ_clean_linker_1, # of connection points: 2
# Relax obj value: 0.101
# Max RMSD: 0.185
# Mean RMSD: 0.145
data_MOF--net-pry--node1-VOLQOD_clean_sbu_1--node2-INOVEN_clean_linker_0--edge1-KIFKEQ_clean_linker_1
_symmetry_space_group_name_H-M    P1
_symmetry_Int_Tables_number       1
_symmetry_cell_setting            triclinic
loop_
_symmetry_equiv_pos_as_xyz
'x, y, z'
_cell_length_a     36.633734
_cell_length_b     37.294304
_cell_length_c     38.88011
_cell_angle_alpha  90.611532
_cell_angle_beta   90.869847
_cell_angle_gamma 95.711051
loop_
_atom_site_label
_atom_site_type_symbol
_atom_site_fract_x
_atom_site_fract_y
_atom_site_fract_z
_atom_type_partial_charge
H0 H 0.09183 0.17646 0.19415 0.0
H1 H 0.17397 0.10185 0.19877 0.0
H2 H 0.17306 0.17719 0.11554 0.0
N3 N 0.11381 0.20892 0.13781 0.0
N4 N 0.12854 0.22761 0.11442 0.0
C5 C 0.11553 0.16545 0.1834 0.0
C6 C 0.13122 0.13749 0.20027 0.0
C7 C 0.13032 0.17986 0.15296 0.0
C8 C 0.16119 0.16581 0.13884 0.0
C9 C 0.17718 0.13753 0.15522 0.0
C10 C 0.16179 0.12345 0.18583 0.0
H11 H 0.38816 0.8738 0.62282 0.0
H12 H 0.45182 0.86262 0.71554 0.0
H13 H 0.38272 0.94905 0.70617 0.0
N14 N 0.35505 0.92913 0.6434 0.0
N15 N 0.33706 0.95221 0.65668 0.0
C16 C 0.39715 0.88324 0.64833 0.0
C17 C 0.4221 0.86466 0.66728 0.0
C18 C 0.38265 0.9133 0.66227 0.0
C19 C 0.39378 0.92558 0.69541 0.0
C20 C 0.41882 0.90763 0.7149 0.0
C21 C 0.43329 0.87732 0.70044 0.0
H22 H 0.54325 0.38493 0.92632 0.0
H23 H 0.63168 0.37831 0.99951 0.0
H24 H 0.6354 0.46544 0.92783 0.0
N25 N 0.57247 0.44175 0.89421 0.0
N26 N 0.59044 0.46541 0.87729 0.0
C27 C 0.56901 0.39609 0.93803 0.0
C28 C 0.58506 0.37786 0.96484 0.0
C29 C 0.58699 0.42751 0.92458 0.0
C30 C 0.62082 0.44178 0.93898 0.0
C31 C 0.63702 0.42433 0.96626 0.0
C32 C 0.61877 0.39253 0.97923 0.0
H33 H 0.85506 0.58586 0.40111 0.0
H34 H 0.85882 0.67437 0.47356 0.0
H35 H 0.9397 0.6738 0.39491 0.0
N36 N 0.91063 0.6121 0.364 0.0
N37 N 0.93803 0.62558 0.34834 0.0
C38 C 0.8684 0.61098 0.41151 0.0
C39 C 0.8536 0.62765 0.43998 0.0
C40 C 0.89953 0.62726 0.39531 0.0
C41 C 0.9165 0.66028 0.40812 0.0
C42 C 0.90182 0.67741 0.43624 0.0
C43 C 0.87072 0.6607 0.45236 0.0
H44 H 0.8785 0.96369 0.8618 0.0
H45 H 0.94799 0.87792 0.84941 0.0
H46 H 0.88299 0.88421 0.94017 0.0
N47 N 0.85068 0.94306 0.92073 0.0
N48 N 0.83756 0.93115 0.94825 0.0
C49 C 0.88968 0.93977 0.87128 0.0
C50 C 0.91465 0.9225 0.85143 0.0
C51 C 0.87827 0.92625 0.90316 0.0
C52 C 0.89256 0.89528 0.9159 0.0
C53 C 0.91794 0.87765 0.8968 0.0
C54 C 0.92889 0.89156 0.86456 0.0
H55 H 0.57651 0.15549 0.39059 0.0
H56 H 0.66259 0.08626 0.37739 0.0
H57 H 0.6612 0.15386 0.46779 0.0
N58 N 0.6036 0.18582 0.45064 0.0
N59 N 0.57382 0.19783 0.44361 0.0
C60 C 0.60101 0.14465 0.4002 0.0
C61 C 0.61714 0.11866 0.38062 0.0
C62 C 0.61704 0.1573 0.43169 0.0
C63 C 0.64906 0.14371 0.44357 0.0
C64 C 0.66577 0.1179 0.42436 0.0
C65 C 0.64932 0.10521 0.39304 0.0
H66 H 0.44938 0.65773 0.16233 0.0
H67 H 0.36463 0.66875 0.08654 0.0
H68 H 0.35607 0.57855 0.15483 0.0
N69 N 0.41795 0.60074 0.19171 0.0
N70 N 0.39835 0.57905 0.20937 0.0
C71 C 0.4241 0.64733 0.14927 0.0
C72 C 0.40963 0.6669 0.12262 0.0
C73 C 0.40486 0.61584 0.16123 0.0
C74 C 0.37142 0.60264 0.1453 0.0
C75 C 0.35734 0.62116 0.11757 0.0
C76 C 0.3767 0.65315 0.10631 0.0
H77 H 0.04123 0.39512 0.62821 0.0
H78 H 0.13714 0.39573 0.56548 0.0
H79 H 0.12247 0.48646 0.63074 0.0
N80 N 0.06022 0.45683 0.65967 0.0
N81 N 0.07276 0.48497 0.67508 0.0
C82 C 0.06599 0.40911 0.61796 0.0
C83 C 0.08708 0.39162 0.59438 0.0
C84 C 0.07852 0.44322 0.6312 0.0
C85 C 0.11197 0.46053 0.61986 0.0
C86 C 0.13326 0.44349 0.59624 0.0
C87 C 0.12025 0.40942 0.58299 0.0
O88 O -0.00108 0.10868 0.5569 0.0
Zn89 Zn 0.97731 0.05688 0.55082 0.0
O90 O 0.00918 0.03019 0.52174 0.0
Zn91 Zn 0.98369 0.01451 0.47861 0.0
Zn92 Zn 0.05422 0.06019 0.51072 0.0
Zn93 Zn 0.02236 0.98855 0.54702 0.0
O94 O 0.97824 0.96036 0.47476 0.0
O95 O 0.0069 0.94263 0.52139 0.0
O96 O 0.92778 0.05833 0.52763 0.0
O97 O 0.93279 0.03088 0.47715 0.0
O98 O 0.01115 0.03412 0.43667 0.0
O99 O 0.06085 0.06455 0.45967 0.0
O100 O 0.09958 0.04155 0.53152 0.0
O101 O 0.96958 0.03422 0.59814 0.0
O102 O 0.07626 0.99144 0.55662 0.0
O103 O -0.00096 0.98536 0.5932 0.0
C104 C 0.02831 0.12581 0.54614 0.0
C105 C 0.98916 0.93549 0.49336 0.0
C106 C 0.04161 0.05341 0.43343 0.0
C107 C 0.91424 0.04751 0.49849 0.0
C108 C 0.10353 0.01371 0.54933 0.0
C109 C 0.97973 0.00523 0.61062 0.0
O110 O 0.05127 0.11018 0.52859 0.0
O111 O 0.49363 0.09926 0.01164 0.0
Zn112 Zn 0.47183 0.04804 0.01819 0.0
O113 O 0.50401 0.02311 0.04887 0.0
Zn114 Zn 0.51983 0.98199 0.02441 0.0
Zn115 Zn 0.54799 0.05473 0.06252 0.0
Zn116 Zn 0.47707 0.00647 0.08991 0.0
O117 O 0.50177 0.93612 0.04663 0.0
O118 O 0.47072 0.95201 0.09194 0.0
O119 O 0.46508 0.02334 0.97094 0.0
O120 O 0.50088 0.97904 0.97599 0.0
O121 O 0.5743 0.98341 0.02276 0.0
O122 O 0.59526 0.0361 0.04607 0.0
O123 O 0.55178 0.06 0.11417 0.0
O124 O 0.42229 0.05191 0.03995 0.0
O125 O 0.50385 0.02519 0.13336 0.0
O126 O 0.42695 0.02475 0.09018 0.0
C127 C 0.52211 0.11785 0.02375 0.0
C128 C 0.48265 0.92786 0.07289 0.0
C129 C 0.60085 0.00643 0.03147 0.0
C130 C 0.47931 0.99637 0.95819 0.0
C131 C 0.53275 0.04656 0.13891 0.0
C132 C 0.40886 0.0421 0.06885 0.0
O133 O 0.54483 0.10405 0.04351 0.0
O134 O 0.53852 0.54569 0.61998 0.0
Zn135 Zn 0.5355 0.56577 0.57242 0.0
O136 O 0.50067 0.53436 0.54402 0.0
Zn137 Zn 0.52621 0.51611 0.50528 0.0
Zn138 Zn 0.47927 0.49295 0.57039 0.0
Zn139 Zn 0.46213 0.56248 0.52676 0.0
O140 O 0.50296 0.52754 0.46033 0.0
O141 O 0.45997 0.56248 0.47496 0.0
O142 O 0.58659 0.57093 0.55213 0.0
O143 O 0.57834 0.53649 0.50522 0.0
O144 O 0.52708 0.46285 0.50704 0.0
O145 O 0.4919 0.44489 0.55075 0.0
O146 O 0.42419 0.49212 0.57143 0.0
O147 O 0.51833 0.6152 0.57849 0.0
O148 O 0.41284 0.54017 0.54129 0.0
O149 O 0.46813 0.61358 0.54558 0.0
C150 C 0.52194 0.51878 0.63507 0.0
C151 C 0.47722 0.54648 0.45216 0.0
C152 C 0.5122 0.43792 0.5257 0.0
C153 C 0.59895 0.5572 0.52504 0.0
C154 C 0.40177 0.51258 0.55864 0.0
C155 C 0.49133 0.63033 0.56633 0.0
O156 O 0.49847 0.49678 0.61923 0.0
O157 O 0.97654 0.53328 0.0912 0.0
Zn158 Zn 0.97583 0.51087 0.04404 0.0
O159 O 0.00115 0.54437 0.01181 0.0
Zn160 Zn 0.96736 0.55565 0.97532 0.0
Zn161 Zn 0.01959 0.5895 0.03541 0.0
Zn162 Zn 0.04164 0.52131 0.99188 0.0
O163 O 0.98389 0.53963 0.92915 0.0
O164 O 0.03849 0.52092 0.94026 0.0
O165 O 0.92256 0.49918 0.03007 0.0
O166 O 0.91677 0.53229 0.98352 0.0
O167 O 0.96459 0.60898 0.97166 0.0
O168 O 0.00336 0.63386 0.01148 0.0
O169 O 0.07479 0.59354 0.03832 0.0
O170 O -0.00017 0.46442 0.04774 0.0
O171 O 0.08985 0.54726 0.00698 0.0
O172 O 0.04299 0.47013 0.00822 0.0
C173 C 0.98697 0.56454 0.10332 0.0
C174 C 0.0134 0.52787 0.91904 0.0
C175 C 0.98063 0.6368 0.98673 0.0
C176 C 0.90299 0.5104 0.00584 0.0
C177 C 0.09887 0.57495 0.02581 0.0
C178 C 0.02569 0.45182 0.03137 0.0
O179 O 0.00243 0.58917 0.08448 0.0
H180 H 0.11594 0.06748 0.22057 0.0
H181 H 0.11399 0.17748 0.2557 0.0
H182 H 0.09371 0.04602 0.27661 0.0
H183 H 0.09163 0.15611 0.31141 0.0
H184 H 0.01544 0.02703 0.37052 0.0
H185 H 0.03645 0.04645 0.31355 0.0
H186 H 0.11802 0.12368 0.36096 0.0
H187 H 0.09733 0.10443 0.41766 0.0
C188 C 0.11072 0.08702 0.24025 0.0
C189 C 0.11668 0.12415 0.23377 0.0
C190 C 0.09776 0.07476 0.27218 0.0
C191 C 0.09104 0.09939 0.2984 0.0
C192 C 0.09686 0.13649 0.29181 0.0
C193 C 0.10936 0.14872 0.25982 0.0
C194 C 0.03791 0.04809 0.36878 0.0
C195 C 0.05463 0.06419 0.3987 0.0
C196 C 0.05003 0.05906 0.33616 0.0
C197 C 0.07875 0.0867 0.33283 0.0
C198 C 0.09555 0.10261 0.36272 0.0
C199 C 0.08379 0.09138 0.39523 0.0
H200 H 0.37238 0.92845 0.76396 0.0
H201 H 0.48641 0.91458 0.74711 0.0
H202 H 0.38753 0.95103 0.8219 0.0
H203 H 0.50166 0.93725 0.80535 0.0
H204 H 0.50672 0.94128 0.92338 0.0
H205 H 0.49259 0.92016 0.86496 0.0
H206 H 0.41928 0.00302 0.85213 0.0
H207 H 0.43294 0.02397 0.91116 0.0
C208 C 0.40079 0.93052 0.77253 0.0
C209 C 0.42826 0.91997 0.75077 0.0
C210 C 0.40946 0.94355 0.80577 0.0
C211 C 0.44583 0.94625 0.81822 0.0
C212 C 0.47329 0.93524 0.79666 0.0
C213 C 0.46459 0.92219 0.76331 0.0
C214 C 0.48759 0.95515 0.9082 0.0
C215 C 0.47088 0.98435 0.92213 0.0
C216 C 0.4797 0.94311 0.87452 0.0
C217 C 0.45486 0.95988 0.8538 0.0
C218 C 0.43825 0.98923 0.86756 0.0
C219 C 0.44621 0.00137 0.90134 0.0
H220 H 0.52242 0.44971 0.84842 0.0
H221 H 0.62866 0.5081 0.83437 0.0
H222 H 0.50359 0.46603 0.79072 0.0
H223 H 0.6106 0.5235 0.77601 0.0
H224 H 0.55923 0.56611 0.68042 0.0
H225 H 0.57252 0.55685 0.74103 0.0
H226 H 0.51692 0.44917 0.73333 0.0
H227 H 0.50252 0.4589 0.6731 0.0
C228 C 0.54166 0.46627 0.83298 0.0
C229 C 0.57716 0.47765 0.84553 0.0
C230 C 0.53101 0.47539 0.79983 0.0
C231 C 0.55572 0.4957 0.77852 0.0
C232 C 0.59071 0.50815 0.79177 0.0
C233 C 0.60118 0.49931 0.82505 0.0
C234 C 0.54977 0.54048 0.69169 0.0
C235 C 0.52992 0.51318 0.6719 0.0
C236 C 0.55749 0.53514 0.72643 0.0
C237 C 0.54582 0.50227 0.7421 0.0
C238 C 0.52576 0.47508 0.7223 0.0
C239 C 0.51775 0.48053 0.68765 0.0
H240 H 0.89929 0.57425 0.30847 0.0
H241 H 0.99726 0.64858 0.31387 0.0
H242 H 0.91307 0.55846 0.24944 0.0
H243 H 0.01199 0.63208 0.25491 0.0
H244 H -0.00143 0.62939 0.13738 0.0
H245 H 0.98858 0.64178 0.19793 0.0
H246 H 0.95407 0.52901 0.21359 0.0
H247 H 0.96303 0.51675 0.15288 0.0
C248 C 0.9242 0.58668 0.29718 0.0
C249 C 0.94742 0.61268 0.31554 0.0
C250 C 0.93219 0.57756 0.26338 0.0
C251 C 0.96355 0.59416 0.24735 0.0
C252 C 0.9873 0.61926 0.26628 0.0
C253 C 0.97917 0.62846 0.30003 0.0
C254 C 0.98888 0.60722 0.15373 0.0
C255 C 0.98141 0.57212 0.14021 0.0
C256 C 0.98343 0.61428 0.18853 0.0
C257 C 0.97058 0.58636 0.21064 0.0
C258 C 0.9635 0.5512 0.19718 0.0
C259 C 0.96876 0.54417 0.16236 0.0
H260 H 0.19147 0.12105 0.08805 0.0
H261 H 0.23851 0.1219 0.19058 0.0
H262 H 0.24569 0.09606 0.06559 0.0
H263 H 0.29265 0.09743 0.16828 0.0
H264 H 0.36895 0.02142 0.12548 0.0
H265 H 0.31216 0.04317 0.14473 0.0
H266 H 0.31023 0.11067 0.05523 0.0
H267 H 0.36665 0.08815 0.03544 0.0
C268 C 0.21351 0.11617 0.10574 0.0
C269 C 0.21052 0.12322 0.14114 0.0
C270 C 0.24461 0.10186 0.09288 0.0
C271 C 0.27351 0.09439 0.11513 0.0
C272 C 0.27063 0.10197 0.15045 0.0
C273 C 0.23957 0.11612 0.16327 0.0
C274 C 0.3563 0.04067 0.1097 0.0
C275 C 0.37258 0.05313 0.07896 0.0
C276 C 0.32381 0.05338 0.1209 0.0
C277 C 0.30674 0.07906 0.10179 0.0
C278 C 0.32239 0.09071 0.0705 0.0
C279 C 0.35488 0.07786 0.0592 0.0
H280 H 0.31938 0.94537 0.58831 0.0
H281 H 0.28899 0.99123 0.68479 0.0
H282 H 0.26423 0.96503 0.56071 0.0
H283 H 0.23344 0.01033 0.65738 0.0
H284 H 0.11802 0.9756 0.60609 0.0
H285 H 0.17768 0.96568 0.63066 0.0
H286 H 0.23143 0.02751 0.5494 0.0
H287 H 0.17128 0.03834 0.52489 0.0
C288 C 0.30112 0.96007 0.60345 0.0
C289 C 0.30797 0.96666 0.6388 0.0
C290 C 0.26977 0.97143 0.58765 0.0
C291 C 0.24469 0.98895 0.60706 0.0
C292 C 0.25239 0.99672 0.64199 0.0
C293 C 0.284 0.98594 0.65759 0.0
C294 C 0.14249 0.98713 0.59338 0.0
C295 C 0.14001 0.00769 0.56352 0.0
C296 C 0.17658 0.98164 0.60761 0.0
C297 C 0.20894 0.99602 0.59196 0.0
C298 C 0.20671 0.01624 0.56187 0.0
C299 C 0.17243 0.02244 0.54796 0.0
H300 H 0.69372 0.38408 0.98056 0.0
H301 H 0.66566 0.49391 0.97891 0.0
H302 H 0.75722 0.40566 0.99439 0.0
H303 H 0.72947 0.51549 0.99232 0.0
H304 H 0.85172 0.53569 0.96336 0.0
H305 H 0.78666 0.51557 0.95871 0.0
H306 H 0.7988 0.438 0.03873 0.0
H307 H 0.86434 0.45796 0.04334 0.0
C308 C 0.7009 0.41279 0.98392 0.0
C309 C 0.67465 0.43732 0.97851 0.0
C310 C 0.73733 0.42513 0.99177 0.0
C311 C 0.74832 0.46224 0.99418 0.0
C312 C 0.72184 0.48673 0.9901 0.0
C313 C 0.68536 0.47439 0.98241 0.0
C314 C 0.84062 0.51439 0.98006 0.0
C315 C 0.86331 0.49832 0.00363 0.0
C316 C 0.80323 0.5031 0.9776 0.0
C317 C 0.78764 0.47535 0.99848 0.0
C318 C 0.81018 0.45935 0.0222 0.0
C319 C 0.84764 0.47084 0.02488 0.0
H320 H 0.79189 0.60101 0.40471 0.0
H321 H 0.83476 0.62221 0.50783 0.0
H322 H 0.73181 0.58219 0.42765 0.0
H323 H 0.77431 0.60308 0.531 0.0
H324 H 0.64983 0.60996 0.55138 0.0
H325 H 0.71303 0.62428 0.53265 0.0
H326 H 0.69934 0.53509 0.46021 0.0
H327 H 0.63643 0.52144 0.47809 0.0
C328 C 0.78866 0.60087 0.43235 0.0
C329 C 0.8181 0.6129 0.45447 0.0
C330 C 0.75417 0.59017 0.44554 0.0
C331 C 0.74828 0.59111 0.48118 0.0
C332 C 0.77788 0.60249 0.5034 0.0
C333 C 0.81247 0.61328 0.49017 0.0
C334 C 0.66046 0.59336 0.5316 0.0
C335 C 0.63796 0.56492 0.51589 0.0
C336 C 0.69669 0.60141 0.52101 0.0
C337 C 0.71105 0.58103 0.49468 0.0
C338 C 0.68888 0.5518 0.48 0.0
C339 C 0.65279 0.54394 0.49037 0.0
H340 H 0.05809 0.2433 0.12252 0.0
H341 H 0.16042 0.27802 0.0741 0.0
H342 H 0.03097 0.29521 0.09945 0.0
H343 H 0.1341 0.33118 0.05213 0.0
H344 H 0.07032 0.41039 0.99566 0.0
H345 H 0.09283 0.35397 0.01327 0.0
H346 H 0.03201 0.35749 0.10749 0.0
H347 H 0.00833 0.4129 0.08912 0.0
C348 C 0.07484 0.26222 0.10701 0.0
C349 C 0.11154 0.2569 0.10018 0.0
C350 C 0.05938 0.29218 0.09392 0.0
C351 C 0.08031 0.3178 0.07407 0.0
C352 C 0.11685 0.31192 0.06684 0.0
C353 C 0.13212 0.28166 0.07957 0.0
C354 C 0.06148 0.3989 0.01998 0.0
C355 C 0.03751 0.41623 0.04096 0.0
C356 C 0.07464 0.36662 0.03025 0.0
C357 C 0.06454 0.35104 0.06199 0.0
C358 C 0.04003 0.36816 0.08264 0.0
C359 C 0.02652 0.40017 0.07217 0.0
H360 H 0.5564 0.32298 0.92259 0.0
H361 H 0.57882 0.35006 0.0297 0.0
H362 H 0.53754 0.26096 0.93799 0.0
H363 H 0.56014 0.28764 0.04509 0.0
H364 H 0.57712 0.16664 0.04829 0.0
H365 H 0.58748 0.23048 0.03553 0.0
H366 H 0.49147 0.22118 0.96892 0.0
H367 H 0.48121 0.15698 0.98129 0.0
C368 C 0.55644 0.31592 0.94953 0.0
C369 C 0.56917 0.34144 0.97495 0.0
C370 C 0.54571 0.28031 0.95833 0.0
C371 C 0.54763 0.26941 0.9927 0.0
C372 C 0.55895 0.2952 0.01831 0.0
C373 C 0.56958 0.33088 0.00952 0.0
C374 C 0.55816 0.17811 0.03091 0.0
C375 C 0.52842 0.15662 0.01568 0.0
C376 C 0.56393 0.2148 0.02388 0.0
C377 C 0.54016 0.23084 0.0014 0.0
C378 C 0.51035 0.20946 0.9862 0.0
C379 C 0.50448 0.17272 0.99333 0.0
H380 H 0.97341 0.70419 0.44698 0.0
H381 H 0.86267 0.73459 0.44656 0.0
H382 H 0.99693 0.76691 0.45944 0.0
H383 H 0.88601 0.79684 0.45941 0.0
H384 H 0.94228 0.90908 0.44173 0.0
H385 H 0.92296 0.84611 0.42779 0.0
H386 H 0.99456 0.81273 0.50801 0.0
H387 H 0.01416 0.8757 0.52202 0.0
C388 C 0.95418 0.72425 0.44977 0.0
C389 C 0.91627 0.7146 0.44605 0.0
C390 C 0.96757 0.75999 0.457 0.0
C391 C 0.94325 0.78664 0.46014 0.0
C392 C 0.90536 0.77687 0.4567 0.0
C393 C 0.892 0.7412 0.4498 0.0
C394 C 0.95418 0.88837 0.45622 0.0
C395 C 0.97956 0.89741 0.48314 0.0
C396 C 0.94294 0.85234 0.44835 0.0
C397 C 0.95708 0.82466 0.46704 0.0
C398 C 0.98338 0.83359 0.49314 0.0
C399 C 0.99442 0.86964 0.50122 0.0
H400 H 0.37953 0.80867 0.63738 0.0
H401 H 0.49199 0.84412 0.66497 0.0
H402 H 0.3986 0.75391 0.61193 0.0
H403 H 0.51154 0.78938 0.63859 0.0
H404 H 0.52504 0.66841 0.62063 0.0
H405 H 0.50998 0.72552 0.64481 0.0
H406 H 0.42922 0.73296 0.56367 0.0
H407 H 0.44334 0.67525 0.54027 0.0
C408 C 0.40847 0.80487 0.63765 0.0
C409 C 0.43431 0.83084 0.6529 0.0
C410 C 0.41948 0.77352 0.62288 0.0
C411 C 0.45672 0.76732 0.62268 0.0
C412 C 0.4826 0.7931 0.63844 0.0
C413 C 0.47147 0.82447 0.65353 0.0
C414 C 0.5043 0.68239 0.60774 0.0
C415 C 0.48516 0.66703 0.57865 0.0
C416 C 0.49576 0.71529 0.62157 0.0
C417 C 0.46805 0.73377 0.6065 0.0
C418 C 0.45008 0.7191 0.57651 0.0
C419 C 0.45837 0.68609 0.56289 0.0
H420 H 0.98225 0.92784 0.82126 0.0
H421 H 0.86956 0.9478 0.80234 0.0
H422 H 0.99805 0.94922 0.76374 0.0
H423 H 0.88547 0.96946 0.74507 0.0
H424 H 0.93587 0.03757 0.65613 0.0
H425 H 0.9208 0.01909 0.71486 0.0
H426 H 0.98607 0.92949 0.7041 0.0
H427 H 0.00144 0.94797 0.64598 0.0
C428 C 0.96082 0.93662 0.80482 0.0
C429 C 0.92465 0.93608 0.81653 0.0
C430 C 0.96988 0.94895 0.77186 0.0
C431 C 0.94301 0.96108 0.74978 0.0
C432 C 0.90694 0.96086 0.76159 0.0
C433 C 0.89785 0.94842 0.79448 0.0
C434 C 0.94701 0.01396 0.66632 0.0
C435 C 0.96987 0.99431 0.64623 0.0
C436 C 0.93826 0.00328 0.69993 0.0
C437 C 0.95236 0.97288 0.71423 0.0
C438 C 0.9752 0.95334 0.69412 0.0
C439 C 0.98377 0.96385 0.6606 0.0
H440 H 0.59581 0.16177 0.32933 0.0
H441 H 0.60495 0.05031 0.35377 0.0
H442 H 0.57411 0.14386 0.27137 0.0
H443 H 0.58348 0.03238 0.29555 0.0
H444 H 0.58398 0.10072 0.16057 0.0
H445 H 0.60256 0.1176 0.21948 0.0
H446 H 0.52637 0.03198 0.25758 0.0
H447 H 0.50757 0.01496 0.19855 0.0
C448 C 0.59278 0.1334 0.32241 0.0
C449 C 0.60201 0.10742 0.34608 0.0
C450 C 0.5807 0.12319 0.28914 0.0
C451 C 0.57726 0.08674 0.2789 0.0
C452 C 0.58568 0.06065 0.3028 0.0
C453 C 0.59817 0.07091 0.336 0.0
C454 C 0.57117 0.08541 0.18145 0.0
C455 C 0.54426 0.05647 0.1748 0.0
C456 C 0.58167 0.09526 0.21521 0.0
C457 C 0.56582 0.07618 0.24312 0.0
C458 C 0.53919 0.04703 0.23655 0.0
C459 C 0.52834 0.03742 0.20275 0.0
H460 H 0.35751 0.54478 0.25676 0.0
H461 H 0.46841 0.58721 0.23451 0.0
H462 H 0.37651 0.53271 0.31602 0.0
H463 H 0.48738 0.57536 0.2933 0.0
H464 H 0.51311 0.52399 0.39596 0.0
H465 H 0.49403 0.52603 0.33567 0.0
H466 H 0.3972 0.57521 0.36527 0.0
H467 H 0.41604 0.57313 0.42557 0.0
C468 C 0.38602 0.55078 0.26447 0.0
C469 C 0.4113 0.56709 0.2414 0.0
C470 C 0.39683 0.54423 0.29826 0.0
C471 C 0.43332 0.55349 0.30926 0.0
C472 C 0.45912 0.56783 0.28548 0.0
C473 C 0.44822 0.57473 0.25187 0.0
C474 C 0.48773 0.53523 0.38964 0.0
C475 C 0.46618 0.54857 0.41556 0.0
C476 C 0.47686 0.53638 0.35513 0.0
C477 C 0.44405 0.55055 0.34588 0.0
C478 C 0.42236 0.56364 0.37175 0.0
C479 C 0.43338 0.56281 0.40624 0.0
H480 H 0.10056 0.53999 0.71334 0.0
H481 H 0.01145 0.45527 0.70711 0.0
H482 H 0.08331 0.5542 0.77223 0.0
H483 H 0.99407 0.46941 0.76584 0.0
H484 H 0.96215 0.5256 0.86686 0.0
H485 H 0.97252 0.51956 0.80512 0.0
H486 H 0.08811 0.51489 0.82552 0.0
H487 H 0.07795 0.52066 0.88701 0.0
C488 C 0.07675 0.52512 0.7244 0.0
C489 C 0.05758 0.49658 0.70605 0.0
C490 C 0.06707 0.53298 0.758 0.0
C491 C 0.03769 0.51256 0.77358 0.0
C492 C 0.01678 0.48558 0.75432 0.0
C493 C 0.02676 0.47747 0.72079 0.0
C494 C 0.98977 0.5233 0.85814 0.0
C495 C 0.01924 0.52352 0.8818 0.0
C496 C 0.99562 0.51982 0.82287 0.0
C497 C 0.03112 0.51714 0.81068 0.0
C498 C 0.06054 0.51749 0.83428 0.0
C499 C 0.05465 0.52043 0.86948 0.0
H500 H 0.8063 0.99183 0.93012 0.0
H501 H 0.80296 0.90548 0.00326 0.0
H502 H 0.75145 0.01293 0.95545 0.0
H503 H 0.74802 0.92654 0.02878 0.0
H504 H 0.62347 0.94031 0.01969 0.0
H505 H 0.68418 0.92556 0.00393 0.0
H506 H 0.72478 0.0382 0.01026 0.0
H507 H 0.66349 0.05319 0.02635 0.0
C508 C 0.79413 0.97771 0.95197 0.0
C509 C 0.8085 0.94673 0.96472 0.0
C510 C 0.76289 0.98993 0.96659 0.0
C511 C 0.74534 0.97123 0.99392 0.0
C512 C 0.76078 0.94126 0.00751 0.0
C513 C 0.79216 0.92928 0.99309 0.0
C514 C 0.64533 0.962 0.01799 0.0
C515 C 0.63861 0.99796 0.02411 0.0
C516 C 0.68021 0.95348 0.00922 0.0
C517 C 0.70924 0.98071 0.00597 0.0
C518 C 0.70282 0.0167 0.01251 0.0
C519 C 0.66785 0.02524 0.02184 0.0
H520 H 0.72428 0.15912 0.45356 0.0
H521 H 0.68846 0.04988 0.42121 0.0
H522 H 0.78282 0.1402 0.4726 0.0
H523 H 0.74761 0.03105 0.43989 0.0
H524 H 0.87418 0.02516 0.44066 0.0
H525 H 0.81337 0.04065 0.42361 0.0
H526 H 0.80792 0.10275 0.51744 0.0
H527 H 0.86876 0.08766 0.53443 0.0
C528 C 0.72867 0.13095 0.4509 0.0
C529 C 0.70146 0.10597 0.43609 0.0
C530 C 0.76232 0.12013 0.46177 0.0
C531 C 0.76978 0.0841 0.45792 0.0
C532 C 0.74276 0.05908 0.44293 0.0
C533 C 0.70892 0.06988 0.4322 0.0
C534 C 0.85998 0.042 0.45775 0.0
C535 C 0.87652 0.05533 0.48884 0.0
C536 C 0.82503 0.05067 0.44805 0.0
C537 C 0.80593 0.07305 0.4691 0.0
C538 C 0.82216 0.08583 0.50045 0.0
C539 C 0.85698 0.07702 0.51025 0.0
H540 H 0.33724 0.61544 0.0497 0.0
H541 H 0.29427 0.60286 0.15217 0.0
H542 H 0.27496 0.6047 0.02557 0.0
H543 H 0.23217 0.59175 0.12807 0.0
H544 H 0.12722 0.62218 0.07583 0.0
H545 H 0.19046 0.63117 0.09697 0.0
H546 H 0.22198 0.5556 0.02072 0.0
H547 H 0.15869 0.54651 0.99934 0.0
C548 C 0.31448 0.60991 0.06697 0.0
C549 C 0.32048 0.60994 0.10276 0.0
C550 C 0.27896 0.60369 0.05319 0.0
C551 C 0.24881 0.5978 0.07501 0.0
C552 C 0.25493 0.59672 0.11073 0.0
C553 C 0.29046 0.6026 0.12448 0.0
C554 C 0.14765 0.60777 0.06326 0.0
C555 C 0.13785 0.58351 0.03598 0.0
C556 C 0.18378 0.61268 0.07561 0.0
C557 C 0.21094 0.59371 0.06074 0.0
C558 C 0.20154 0.57055 0.03262 0.0
C559 C 0.1653 0.56535 0.02045 0.0
H560 H 0.16767 0.45066 0.53429 0.0
H561 H 0.18514 0.46871 0.64349 0.0
H562 H 0.23281 0.46916 0.52471 0.0
H563 H 0.24986 0.4873 0.6339 0.0
H564 H 0.36805 0.46647 0.60515 0.0
H565 H 0.30229 0.45257 0.61348 0.0
H566 H 0.27971 0.52524 0.53191 0.0
H567 H 0.3455 0.53939 0.52353 0.0
C568 C 0.18535 0.45902 0.55611 0.0
C569 C 0.1714 0.45845 0.58957 0.0
C570 C 0.22247 0.46968 0.55065 0.0
C571 C 0.24627 0.47939 0.57863 0.0
C572 C 0.23211 0.47961 0.61195 0.0
C573 C 0.19503 0.46939 0.61736 0.0
C574 C 0.3491 0.47949 0.58899 0.0
C575 C 0.36198 0.50407 0.56375 0.0
C576 C 0.3115 0.47169 0.59389 0.0
C577 C 0.28604 0.48796 0.57339 0.0
C578 C 0.29882 0.51225 0.54793 0.0
C579 C 0.33645 0.52044 0.54331 0.0
H580 H 0.92767 0.8161 0.86028 0.0
H581 H 0.93789 0.86191 0.96291 0.0
H582 H 0.94558 0.75935 0.88204 0.0
H583 H 0.95416 0.80451 0.98496 0.0
H584 H 0.01259 0.70348 0.00812 0.0
H585 H 0.00054 0.76241 0.98606 0.0
H586 H 0.9186 0.71068 0.91589 0.0
H587 H 0.93109 0.65217 0.9372 0.0
C588 C 0.93407 0.81422 0.88745 0.0
C589 C 0.93119 0.84365 0.90982 0.0
C590 C 0.94386 0.78145 0.90004 0.0
C591 C 0.95094 0.77713 0.93536 0.0
C592 C 0.94911 0.80686 0.9576 0.0
C593 C 0.93937 0.83969 0.94499 0.0
C594 C 0.99201 0.70472 0.98799 0.0
C595 C 0.97293 0.67297 0.97442 0.0
C596 C 0.985 0.73853 0.97542 0.0
C597 C 0.95877 0.74136 0.94898 0.0
C598 C 0.93952 0.70959 0.93573 0.0
C599 C 0.94653 0.67593 0.9482 0.0
H600 H 0.41982 0.69826 0.05969 0.0
H601 H 0.43485 0.71941 0.16876 0.0
H602 H 0.43901 0.76151 0.04821 0.0
H603 H 0.45534 0.78213 0.15722 0.0
H604 H 0.44046 0.89821 0.12498 0.0
H605 H 0.42594 0.83436 0.13697 0.0
H606 H 0.49212 0.80667 0.05145 0.0
H607 H 0.5061 0.8702 0.039 0.0
C608 C 0.42773 0.71631 0.08113 0.0
C609 C 0.42587 0.70388 0.11508 0.0
C610 C 0.43893 0.75243 0.07458 0.0
C611 C 0.44843 0.77679 0.10187 0.0
C612 C 0.4477 0.76408 0.13572 0.0
C613 C 0.43651 0.72802 0.14227 0.0
C614 C 0.45196 0.87851 0.10879 0.0
C615 C 0.4743 0.88933 0.08098 0.0
C616 C 0.44384 0.84196 0.11578 0.0
C617 C 0.45792 0.81555 0.09512 0.0
C618 C 0.48051 0.82639 0.06754 0.0
C619 C 0.48861 0.86285 0.06054 0.0
H620 H 0.13257 0.33833 0.59393 0.0
H621 H 0.01943 0.35756 0.57648 0.0
H622 H 0.11709 0.27457 0.58218 0.0
H623 H 0.00381 0.29316 0.56452 0.0
H624 H 0.98727 0.16968 0.58352 0.0
H625 H 0.00026 0.23445 0.59422 0.0
H626 H 0.09836 0.23517 0.53385 0.0
H627 H 0.08603 0.17081 0.52379 0.0
C628 C 0.10446 0.32901 0.58692 0.0
C629 C 0.0773 0.35306 0.58557 0.0
C630 C 0.09557 0.29241 0.58031 0.0
C631 C 0.05928 0.27887 0.57219 0.0
C632 C 0.03197 0.30281 0.57099 0.0
C633 C 0.0409 0.33961 0.57767 0.0
C634 C 0.01164 0.18368 0.57263 0.0
C635 C 0.03575 0.16497 0.55304 0.0
C636 C 0.01891 0.2208 0.57853 0.0
C637 C 0.0504 0.23985 0.56499 0.0
C638 C 0.07419 0.22117 0.54511 0.0
C639 C 0.06701 0.18422 0.53927 0.0
H640 H 0.61397 0.24144 0.48967 0.0
H641 H 0.50891 0.22357 0.43731 0.0
H642 H 0.5966 0.29771 0.51402 0.0
H643 H 0.4912 0.28014 0.46223 0.0
H644 H 0.46948 0.37485 0.53924 0.0
H645 H 0.48222 0.31327 0.52343 0.0
H646 H 0.58502 0.3556 0.47976 0.0
H647 H 0.57224 0.41654 0.49475 0.0
C648 C 0.58687 0.2492 0.48388 0.0
C649 C 0.56266 0.22828 0.46143 0.0
C650 C 0.57699 0.28143 0.49779 0.0
C651 C 0.54265 0.29323 0.48988 0.0
C652 C 0.51773 0.27145 0.46891 0.0
C653 C 0.52783 0.23932 0.45459 0.0
C654 C 0.49484 0.37084 0.52644 0.0
C655 C 0.5198 0.40047 0.51812 0.0
C656 C 0.50201 0.33575 0.51731 0.0
C657 C 0.53466 0.32982 0.50056 0.0
C658 C 0.55982 0.35941 0.49295 0.0
C659 C 0.55236 0.3943 0.50137 0.0
loop_
_geom_bond_atom_site_label_1
_geom_bond_atom_site_label_2
_geom_bond_distance
_geom_bond_site_symmetry_2
_ccdc_geom_bond_type
H0 C5 0.929 . S
H1 C10 0.931 . S
H2 C8 0.930 . S
N3 N4 1.234 . S
N3 C7 1.453 . S
N4 N3 1.234 . S
C5 H0 0.929 . S
C5 C6 1.373 . S
C5 C7 1.368 . S
C6 C5 1.373 . S
C6 C10 1.397 . S
C7 N3 1.453 . S
C7 C5 1.368 . S
C7 C8 1.373 . S
C8 H2 0.930 . S
C8 C7 1.373 . S
C8 C9 1.371 . S
C9 C8 1.371 . S
C9 C10 1.383 . S
C10 H1 0.931 . S
C10 C6 1.397 . S
C10 C9 1.383 . S
H11 C16 0.929 . S
H12 C21 0.931 . S
H13 C19 0.930 . S
N14 N15 1.234 . S
N14 C18 1.453 . S
N15 N14 1.234 . S
C16 H11 0.929 . S
C16 C17 1.373 . S
C16 C18 1.368 . S
C17 C16 1.373 . S
C17 C21 1.397 . S
C18 N14 1.453 . S
C18 C16 1.368 . S
C18 C19 1.373 . S
C19 H13 0.930 . S
C19 C18 1.373 . S
C19 C20 1.371 . S
C20 C19 1.371 . S
C20 C21 1.383 . S
C21 H12 0.931 . S
C21 C17 1.397 . S
C21 C20 1.383 . S
H22 C27 0.929 . S
H23 C32 0.931 . S
H24 C30 0.930 . S
N25 N26 1.234 . S
N25 C29 1.453 . S
N26 N25 1.234 . S
C27 H22 0.929 . S
C27 C28 1.373 . S
C27 C29 1.368 . S
C28 C27 1.373 . S
C28 C32 1.397 . S
C29 N25 1.453 . S
C29 C27 1.368 . S
C29 C30 1.373 . S
C30 H24 0.930 . S
C30 C29 1.373 . S
C30 C31 1.371 . S
C31 C30 1.371 . S
C31 C32 1.383 . S
C32 H23 0.931 . S
C32 C28 1.397 . S
C32 C31 1.383 . S
H33 C38 0.929 . S
H34 C43 0.931 . S
H35 C41 0.930 . S
N36 N37 1.234 . S
N36 C40 1.453 . S
N37 N36 1.234 . S
C38 H33 0.929 . S
C38 C39 1.373 . S
C38 C40 1.368 . S
C39 C38 1.373 . S
C39 C43 1.397 . S
C40 N36 1.453 . S
C40 C38 1.368 . S
C40 C41 1.373 . S
C41 H35 0.930 . S
C41 C40 1.373 . S
C41 C42 1.371 . S
C42 C41 1.371 . S
C42 C43 1.383 . S
C43 H34 0.931 . S
C43 C39 1.397 . S
C43 C42 1.383 . S
H44 C49 0.929 1_545 S
H45 C54 0.931 . S
H46 C52 0.930 . S
N47 N48 1.234 1_545 S
N47 C51 1.453 1_545 S
N48 N47 1.234 1_565 S
C49 H44 0.929 1_565 S
C49 C50 1.373 . S
C49 C51 1.368 . S
C50 C49 1.373 . S
C50 C54 1.397 . S
C51 N47 1.453 1_565 S
C51 C49 1.368 . S
C51 C52 1.373 . S
C52 H46 0.930 . S
C52 C51 1.373 . S
C52 C53 1.371 . S
C53 C52 1.371 . S
C53 C54 1.383 . S
C54 H45 0.931 . S
C54 C50 1.397 . S
C54 C53 1.383 . S
H55 C60 0.929 . S
H56 C65 0.931 . S
H57 C63 0.930 . S
N58 N59 1.234 . S
N58 C62 1.453 . S
N59 N58 1.234 . S
C60 H55 0.929 . S
C60 C61 1.373 . S
C60 C62 1.368 . S
C61 C60 1.373 . S
C61 C65 1.397 . S
C62 N58 1.453 . S
C62 C60 1.368 . S
C62 C63 1.373 . S
C63 H57 0.930 . S
C63 C62 1.373 . S
C63 C64 1.371 . S
C64 C63 1.371 . S
C64 C65 1.383 . S
C65 H56 0.931 . S
C65 C61 1.397 . S
C65 C64 1.383 . S
H66 C71 0.929 . S
H67 C76 0.931 . S
H68 C74 0.930 . S
N69 N70 1.234 . S
N69 C73 1.453 . S
N70 N69 1.234 . S
C71 H66 0.929 . S
C71 C72 1.373 . S
C71 C73 1.368 . S
C72 C71 1.373 . S
C72 C76 1.397 . S
C73 N69 1.453 . S
C73 C71 1.368 . S
C73 C74 1.373 . S
C74 H68 0.930 . S
C74 C73 1.373 . S
C74 C75 1.371 . S
C75 C74 1.371 . S
C75 C76 1.383 . S
C76 H67 0.931 . S
C76 C72 1.397 . S
C76 C75 1.383 . S
H77 C82 0.929 . S
H78 C87 0.931 . S
H79 C85 0.930 . S
N80 N81 1.234 . S
N80 C84 1.453 . S
N81 N80 1.234 . S
C82 H77 0.929 . S
C82 C83 1.373 . S
C82 C84 1.368 . S
C83 C82 1.373 . S
C83 C87 1.397 . S
C84 N80 1.453 . S
C84 C82 1.368 . S
C84 C85 1.373 . S
C85 H79 0.930 . S
C85 C84 1.373 . S
C85 C86 1.371 . S
C86 C85 1.371 . S
C86 C87 1.383 . S
C87 H78 0.931 . S
C87 C83 1.397 . S
C87 C86 1.383 . S
O88 Zn89 1.953 . S
O88 C104 1.225 1_655 S
Zn89 O88 1.953 . S
Zn89 O90 1.949 1_655 S
Zn89 O96 1.919 . S
Zn89 O101 1.924 . S
O90 Zn89 1.949 1_455 S
O90 Zn91 1.923 1_455 S
O90 Zn92 1.950 . S
O90 Zn93 1.945 1_545 S
Zn91 O90 1.923 1_655 S
Zn91 O94 1.933 1_545 S
Zn91 O97 1.941 . S
Zn91 O98 1.965 1_655 S
Zn92 O90 1.950 . S
Zn92 O99 1.938 . S
Zn92 O100 1.906 . S
Zn92 O110 1.953 . S
Zn93 O90 1.945 1_565 S
Zn93 O95 1.932 1_455 S
Zn93 O102 1.977 . S
Zn93 O103 1.910 1_455 S
O94 Zn91 1.933 1_565 S
O94 C105 1.226 . S
O95 Zn93 1.932 1_655 S
O95 C105 1.307 . S
O96 Zn89 1.919 . S
O96 C107 1.253 . S
O97 Zn91 1.941 . S
O97 C107 1.283 . S
O98 Zn91 1.965 1_455 S
O98 C106 1.303 . S
O99 Zn92 1.938 . S
O99 C106 1.247 . S
O100 Zn92 1.906 . S
O100 C108 1.304 1_545 S
O101 Zn89 1.924 . S
O101 C109 1.311 . S
O102 Zn93 1.977 . S
O102 C108 1.272 . S
O103 Zn93 1.910 1_655 S
O103 C109 1.231 1_565 S
C104 O88 1.225 1_455 S
C104 O110 1.298 . S
C105 O94 1.226 . S
C105 O95 1.307 . S
C106 O98 1.303 . S
C106 O99 1.247 . S
C107 O96 1.253 . S
C107 O97 1.283 . S
C108 O100 1.304 1_565 S
C108 O102 1.272 . S
C109 O101 1.311 . S
C109 O103 1.231 1_545 S
O110 Zn92 1.953 . S
O110 C104 1.298 . S
O111 Zn112 1.953 . S
O111 C127 1.225 . S
Zn112 O111 1.953 . S
Zn112 O113 1.949 . S
Zn112 O119 1.919 1_554 S
Zn112 O124 1.924 . S
O113 Zn112 1.949 . S
O113 Zn114 1.923 1_545 S
O113 Zn115 1.950 . S
O113 Zn116 1.945 . S
Zn114 O113 1.923 1_565 S
Zn114 O117 1.933 . S
Zn114 O120 1.941 1_554 S
Zn114 O121 1.965 . S
Zn115 O113 1.950 . S
Zn115 O122 1.938 . S
Zn115 O123 1.906 . S
Zn115 O133 1.953 . S
Zn116 O113 1.945 . S
Zn116 O118 1.932 1_545 S
Zn116 O125 1.977 . S
Zn116 O126 1.910 . S
O117 Zn114 1.933 . S
O117 C128 1.226 . S
O118 Zn116 1.932 1_565 S
O118 C128 1.307 . S
O119 Zn112 1.919 1_556 S
O119 C130 1.253 1_545 S
O120 Zn114 1.941 1_556 S
O120 C130 1.283 . S
O121 Zn114 1.965 . S
O121 C129 1.303 1_565 S
O122 Zn115 1.938 . S
O122 C129 1.247 . S
O123 Zn115 1.906 . S
O123 C131 1.304 . S
O124 Zn112 1.924 . S
O124 C132 1.311 . S
O125 Zn116 1.977 . S
O125 C131 1.272 . S
O126 Zn116 1.910 . S
O126 C132 1.231 . S
C127 O111 1.225 . S
C127 O133 1.298 . S
C128 O117 1.226 . S
C128 O118 1.307 . S
C129 O121 1.303 1_545 S
C129 O122 1.247 . S
C130 O119 1.253 1_565 S
C130 O120 1.283 . S
C131 O123 1.304 . S
C131 O125 1.272 . S
C132 O124 1.311 . S
C132 O126 1.231 . S
O133 Zn115 1.953 . S
O133 C127 1.298 . S
O134 Zn135 1.953 . S
O134 C150 1.225 . S
Zn135 O134 1.953 . S
Zn135 O136 1.949 . S
Zn135 O142 1.919 . S
Zn135 O147 1.924 . S
O136 Zn135 1.949 . S
O136 Zn137 1.923 . S
O136 Zn138 1.950 . S
O136 Zn139 1.945 . S
Zn137 O136 1.923 . S
Zn137 O140 1.933 . S
Zn137 O143 1.941 . S
Zn137 O144 1.965 . S
Zn138 O136 1.950 . S
Zn138 O145 1.938 . S
Zn138 O146 1.906 . S
Zn138 O156 1.953 . S
Zn139 O136 1.945 . S
Zn139 O141 1.932 . S
Zn139 O148 1.977 . S
Zn139 O149 1.910 . S
O140 Zn137 1.933 . S
O140 C151 1.226 . S
O141 Zn139 1.932 . S
O141 C151 1.307 . S
O142 Zn135 1.919 . S
O142 C153 1.253 . S
O143 Zn137 1.941 . S
O143 C153 1.283 . S
O144 Zn137 1.965 . S
O144 C152 1.303 . S
O145 Zn138 1.938 . S
O145 C152 1.247 . S
O146 Zn138 1.906 . S
O146 C154 1.304 . S
O147 Zn135 1.924 . S
O147 C155 1.311 . S
O148 Zn139 1.977 . S
O148 C154 1.272 . S
O149 Zn139 1.910 . S
O149 C155 1.231 . S
C150 O134 1.225 . S
C150 O156 1.298 . S
C151 O140 1.226 . S
C151 O141 1.307 . S
C152 O144 1.303 . S
C152 O145 1.247 . S
C153 O142 1.253 . S
C153 O143 1.283 . S
C154 O146 1.304 . S
C154 O148 1.272 . S
C155 O147 1.311 . S
C155 O149 1.231 . S
O156 Zn138 1.953 . S
O156 C150 1.298 . S
O157 Zn158 1.953 . S
O157 C173 1.225 . S
Zn158 O157 1.953 . S
Zn158 O159 1.949 1_655 S
Zn158 O165 1.919 . S
Zn158 O170 1.924 . S
O159 Zn158 1.949 1_455 S
O159 Zn160 1.923 1_454 S
O159 Zn161 1.950 . S
O159 Zn162 1.945 1_554 S
Zn160 O159 1.923 1_656 S
Zn160 O163 1.933 1_655 S
Zn160 O166 1.941 . S
Zn160 O167 1.965 . S
Zn161 O159 1.950 . S
Zn161 O168 1.938 . S
Zn161 O169 1.906 . S
Zn161 O179 1.953 . S
Zn162 O159 1.945 1_556 S
Zn162 O164 1.932 . S
Zn162 O171 1.977 1_556 S
Zn162 O172 1.910 1_556 S
O163 Zn160 1.933 1_455 S
O163 C174 1.226 . S
O164 Zn162 1.932 . S
O164 C174 1.307 . S
O165 Zn158 1.919 . S
O165 C176 1.253 1_554 S
O166 Zn160 1.941 . S
O166 C176 1.283 . S
O167 Zn160 1.965 . S
O167 C175 1.303 . S
O168 Zn161 1.938 . S
O168 C175 1.235 1_454 S
O169 Zn161 1.906 . S
O169 C177 1.304 . S
O170 Zn158 1.924 . S
O170 C178 1.311 1_655 S
O171 Zn162 1.977 1_554 S
O171 C177 1.272 . S
O172 Zn162 1.910 1_554 S
O172 C178 1.231 . S
C173 O157 1.225 . S
C173 O179 1.298 1_655 S
C174 O163 1.226 . S
C174 O164 1.307 . S
C175 O167 1.303 . S
C175 O168 1.235 1_656 S
C176 O165 1.253 1_556 S
C176 O166 1.283 . S
C177 O169 1.304 . S
C177 O171 1.272 . S
C178 O170 1.311 1_455 S
C178 O172 1.231 . S
O179 Zn161 1.953 . S
O179 C173 1.298 1_455 S
H180 C188 0.950 . S
H181 C193 0.950 . S
H182 C190 0.950 . S
H183 C192 0.950 . S
H184 C194 0.950 . S
H185 C196 0.950 . S
H186 C198 0.950 . S
H187 C199 0.950 . S
C188 H180 0.950 . S
C188 C189 1.386 . S
C188 C190 1.391 . S
C189 C188 1.386 . S
C189 C193 1.393 . S
C190 H182 0.950 . S
C190 C188 1.391 . S
C190 C191 1.400 . S
C191 C190 1.400 . S
C191 C192 1.398 . S
C191 C197 1.491 . S
C192 H183 0.950 . S
C192 C191 1.398 . S
C192 C193 1.391 . S
C193 H181 0.950 . S
C193 C189 1.393 . S
C193 C192 1.391 . S
C194 H184 0.950 . S
C194 C195 1.386 . S
C194 C196 1.391 . S
C195 C194 1.386 . S
C195 C199 1.393 . S
C196 H185 0.950 . S
C196 C194 1.391 . S
C196 C197 1.400 . S
C197 C191 1.491 . S
C197 C196 1.400 . S
C197 C198 1.398 . S
C198 H186 0.950 . S
C198 C197 1.398 . S
C198 C199 1.391 . S
C199 H187 0.950 . S
C199 C195 1.393 . S
C199 C198 1.391 . S
H200 C208 0.950 . S
H201 C213 0.950 . S
H202 C210 0.950 . S
H203 C212 0.950 . S
H204 C214 0.950 . S
H205 C216 0.950 . S
H206 C218 0.950 . S
H207 C219 0.950 . S
C208 H200 0.950 . S
C208 C209 1.386 . S
C208 C210 1.391 . S
C209 C208 1.386 . S
C209 C213 1.393 . S
C210 H202 0.950 . S
C210 C208 1.391 . S
C210 C211 1.400 . S
C211 C210 1.400 . S
C211 C212 1.398 . S
C211 C217 1.491 . S
C212 H203 0.950 . S
C212 C211 1.398 . S
C212 C213 1.391 . S
C213 H201 0.950 . S
C213 C209 1.393 . S
C213 C212 1.391 . S
C214 H204 0.950 . S
C214 C215 1.386 . S
C214 C216 1.391 . S
C215 C214 1.386 . S
C215 C219 1.393 . S
C216 H205 0.950 . S
C216 C214 1.391 . S
C216 C217 1.400 . S
C217 C211 1.491 . S
C217 C216 1.400 . S
C217 C218 1.398 . S
C218 H206 0.950 . S
C218 C217 1.398 . S
C218 C219 1.391 . S
C219 H207 0.950 . S
C219 C215 1.393 . S
C219 C218 1.391 . S
H220 C228 0.950 . S
H221 C233 0.950 . S
H222 C230 0.950 . S
H223 C232 0.950 . S
H224 C234 0.950 . S
H225 C236 0.950 . S
H226 C238 0.950 . S
H227 C239 0.950 . S
C228 H220 0.950 . S
C228 C229 1.386 . S
C228 C230 1.391 . S
C229 C228 1.386 . S
C229 C233 1.393 . S
C230 H222 0.950 . S
C230 C228 1.391 . S
C230 C231 1.400 . S
C231 C230 1.400 . S
C231 C232 1.398 . S
C231 C237 1.491 . S
C232 H223 0.950 . S
C232 C231 1.398 . S
C232 C233 1.391 . S
C233 H221 0.950 . S
C233 C229 1.393 . S
C233 C232 1.391 . S
C234 H224 0.950 . S
C234 C235 1.386 . S
C234 C236 1.391 . S
C235 C234 1.386 . S
C235 C239 1.393 . S
C236 H225 0.950 . S
C236 C234 1.391 . S
C236 C237 1.400 . S
C237 C231 1.491 . S
C237 C236 1.400 . S
C237 C238 1.398 . S
C238 H226 0.950 . S
C238 C237 1.398 . S
C238 C239 1.391 . S
C239 H227 0.950 . S
C239 C235 1.393 . S
C239 C238 1.391 . S
H240 C248 0.950 . S
H241 C253 0.950 . S
H242 C250 0.950 . S
H243 C252 0.950 . S
H244 C254 0.950 . S
H245 C256 0.950 . S
H246 C258 0.950 . S
H247 C259 0.950 1_455 S
C248 H240 0.950 . S
C248 C249 1.386 . S
C248 C250 1.391 . S
C249 C248 1.386 . S
C249 C253 1.393 . S
C250 H242 0.950 . S
C250 C248 1.391 . S
C250 C251 1.400 . S
C251 C250 1.400 . S
C251 C252 1.398 . S
C251 C257 1.491 . S
C252 H243 0.950 . S
C252 C251 1.398 . S
C252 C253 1.391 . S
C253 H241 0.950 . S
C253 C249 1.393 . S
C253 C252 1.391 . S
C254 H244 0.950 . S
C254 C255 1.386 . S
C254 C256 1.391 . S
C255 C254 1.386 . S
C255 C259 1.393 . S
C256 H245 0.950 . S
C256 C254 1.391 . S
C256 C257 1.400 . S
C257 C251 1.491 . S
C257 C256 1.400 . S
C257 C258 1.398 . S
C258 H246 0.950 . S
C258 C257 1.398 . S
C258 C259 1.391 . S
C259 H247 0.950 1_655 S
C259 C255 1.393 . S
C259 C258 1.391 . S
H260 C268 0.950 . S
H261 C273 0.950 . S
H262 C270 0.950 . S
H263 C272 0.950 . S
H264 C274 0.950 . S
H265 C276 0.950 . S
H266 C278 0.950 . S
H267 C279 0.950 . S
C268 H260 0.950 . S
C268 C269 1.386 . S
C268 C270 1.391 . S
C269 C268 1.386 . S
C269 C273 1.393 . S
C270 H262 0.950 . S
C270 C268 1.391 . S
C270 C271 1.400 . S
C271 C270 1.400 . S
C271 C272 1.398 . S
C271 C277 1.491 . S
C272 H263 0.950 . S
C272 C271 1.398 . S
C272 C273 1.391 . S
C273 H261 0.950 . S
C273 C269 1.393 . S
C273 C272 1.391 . S
C274 H264 0.950 . S
C274 C275 1.386 . S
C274 C276 1.391 . S
C275 C274 1.386 . S
C275 C279 1.393 . S
C276 H265 0.950 . S
C276 C274 1.391 . S
C276 C277 1.400 . S
C277 C271 1.491 . S
C277 C276 1.400 . S
C277 C278 1.398 . S
C278 H266 0.950 . S
C278 C277 1.398 . S
C278 C279 1.391 . S
C279 H267 0.950 . S
C279 C275 1.393 . S
C279 C278 1.391 . S
H280 C288 0.950 . S
H281 C293 0.950 . S
H282 C290 0.950 . S
H283 C292 0.950 . S
H284 C294 0.950 . S
H285 C296 0.950 . S
H286 C298 0.950 . S
H287 C299 0.950 . S
C288 H280 0.950 . S
C288 C289 1.386 . S
C288 C290 1.391 . S
C289 C288 1.386 . S
C289 C293 1.393 . S
C290 H282 0.950 . S
C290 C288 1.391 . S
C290 C291 1.400 . S
C291 C290 1.400 . S
C291 C292 1.398 . S
C291 C297 1.491 . S
C292 H283 0.950 . S
C292 C291 1.398 . S
C292 C293 1.391 . S
C293 H281 0.950 . S
C293 C289 1.393 . S
C293 C292 1.391 . S
C294 H284 0.950 . S
C294 C295 1.386 . S
C294 C296 1.391 . S
C295 C294 1.386 . S
C295 C299 1.393 . S
C296 H285 0.950 . S
C296 C294 1.391 . S
C296 C297 1.400 . S
C297 C291 1.491 . S
C297 C296 1.400 . S
C297 C298 1.398 . S
C298 H286 0.950 . S
C298 C297 1.398 . S
C298 C299 1.391 . S
C299 H287 0.950 . S
C299 C295 1.393 . S
C299 C298 1.391 . S
H300 C308 0.950 . S
H301 C313 0.950 . S
H302 C310 0.950 . S
H303 C312 0.950 . S
H304 C314 0.950 . S
H305 C316 0.950 . S
H306 C318 0.950 . S
H307 C319 0.950 . S
C308 H300 0.950 . S
C308 C309 1.386 . S
C308 C310 1.391 . S
C309 C308 1.386 . S
C309 C313 1.393 . S
C310 H302 0.950 . S
C310 C308 1.391 . S
C310 C311 1.400 . S
C311 C310 1.400 . S
C311 C312 1.398 . S
C311 C317 1.491 . S
C312 H303 0.950 . S
C312 C311 1.398 . S
C312 C313 1.391 . S
C313 H301 0.950 . S
C313 C309 1.393 . S
C313 C312 1.391 . S
C314 H304 0.950 . S
C314 C315 1.386 . S
C314 C316 1.391 . S
C315 C314 1.386 . S
C315 C319 1.393 . S
C316 H305 0.950 . S
C316 C314 1.391 . S
C316 C317 1.400 . S
C317 C311 1.491 . S
C317 C316 1.400 . S
C317 C318 1.398 . S
C318 H306 0.950 . S
C318 C317 1.398 . S
C318 C319 1.391 . S
C319 H307 0.950 . S
C319 C315 1.393 . S
C319 C318 1.391 . S
H320 C328 0.950 . S
H321 C333 0.950 . S
H322 C330 0.950 . S
H323 C332 0.950 . S
H324 C334 0.950 . S
H325 C336 0.950 . S
H326 C338 0.950 . S
H327 C339 0.950 . S
C328 H320 0.950 . S
C328 C329 1.386 . S
C328 C330 1.391 . S
C329 C328 1.386 . S
C329 C333 1.393 . S
C330 H322 0.950 . S
C330 C328 1.391 . S
C330 C331 1.400 . S
C331 C330 1.400 . S
C331 C332 1.398 . S
C331 C337 1.491 . S
C332 H323 0.950 . S
C332 C331 1.398 . S
C332 C333 1.391 . S
C333 H321 0.950 . S
C333 C329 1.393 . S
C333 C332 1.391 . S
C334 H324 0.950 . S
C334 C335 1.386 . S
C334 C336 1.391 . S
C335 C334 1.386 . S
C335 C339 1.393 . S
C336 H325 0.950 . S
C336 C334 1.391 . S
C336 C337 1.400 . S
C337 C331 1.491 . S
C337 C336 1.400 . S
C337 C338 1.398 . S
C338 H326 0.950 . S
C338 C337 1.398 . S
C338 C339 1.391 . S
C339 H327 0.950 . S
C339 C335 1.393 . S
C339 C338 1.391 . S
H340 C348 0.950 . S
H341 C353 0.950 . S
H342 C350 0.950 . S
H343 C352 0.950 . S
H344 C354 0.950 . S
H345 C356 0.950 . S
H346 C358 0.950 . S
H347 C359 0.950 . S
C348 H340 0.950 . S
C348 C349 1.386 . S
C348 C350 1.391 . S
C349 C348 1.386 . S
C349 C353 1.393 . S
C350 H342 0.950 . S
C350 C348 1.391 . S
C350 C351 1.400 . S
C351 C350 1.400 . S
C351 C352 1.398 . S
C351 C357 1.491 . S
C352 H343 0.950 . S
C352 C351 1.398 . S
C352 C353 1.391 . S
C353 H341 0.950 . S
C353 C349 1.393 . S
C353 C352 1.391 . S
C354 H344 0.950 . S
C354 C355 1.386 . S
C354 C356 1.391 . S
C355 C354 1.386 . S
C355 C359 1.393 . S
C356 H345 0.950 . S
C356 C354 1.391 . S
C356 C357 1.400 . S
C357 C351 1.491 . S
C357 C356 1.400 . S
C357 C358 1.398 . S
C358 H346 0.950 . S
C358 C357 1.398 . S
C358 C359 1.391 . S
C359 H347 0.950 . S
C359 C355 1.393 . S
C359 C358 1.391 . S
H360 C368 0.950 . S
H361 C373 0.950 1_554 S
H362 C370 0.950 . S
H363 C372 0.950 1_554 S
H364 C374 0.950 . S
H365 C376 0.950 . S
H366 C378 0.950 . S
H367 C379 0.950 . S
C368 H360 0.950 . S
C368 C369 1.386 . S
C368 C370 1.391 . S
C369 C368 1.386 . S
C369 C373 1.393 . S
C370 H362 0.950 . S
C370 C368 1.391 . S
C370 C371 1.400 . S
C371 C370 1.400 . S
C371 C372 1.398 . S
C371 C377 1.491 . S
C372 H363 0.950 1_556 S
C372 C371 1.398 . S
C372 C373 1.391 . S
C373 H361 0.950 1_556 S
C373 C369 1.393 . S
C373 C372 1.391 . S
C374 H364 0.950 . S
C374 C375 1.386 . S
C374 C376 1.391 . S
C375 C374 1.386 . S
C375 C379 1.393 1_554 S
C376 H365 0.950 . S
C376 C374 1.391 . S
C376 C377 1.400 1_554 S
C377 C371 1.491 . S
C377 C376 1.400 1_556 S
C377 C378 1.398 . S
C378 H366 0.950 . S
C378 C377 1.398 . S
C378 C379 1.391 . S
C379 H367 0.950 . S
C379 C375 1.393 1_556 S
C379 C378 1.391 . S
H380 C388 0.950 . S
H381 C393 0.950 . S
H382 C390 0.950 . S
H383 C392 0.950 . S
H384 C394 0.950 1_455 S
H385 C396 0.950 . S
H386 C398 0.950 . S
H387 C399 0.950 . S
C388 H380 0.950 . S
C388 C389 1.386 . S
C388 C390 1.391 . S
C389 C388 1.386 . S
C389 C393 1.393 . S
C390 H382 0.950 . S
C390 C388 1.391 . S
C390 C391 1.400 . S
C391 C390 1.400 . S
C391 C392 1.398 . S
C391 C397 1.491 . S
C392 H383 0.950 . S
C392 C391 1.398 . S
C392 C393 1.391 . S
C393 H381 0.950 . S
C393 C389 1.393 . S
C393 C392 1.391 . S
C394 H384 0.950 1_655 S
C394 C395 1.386 . S
C394 C396 1.391 . S
C395 C394 1.386 . S
C395 C399 1.393 . S
C396 H385 0.950 . S
C396 C394 1.391 . S
C396 C397 1.400 . S
C397 C391 1.491 . S
C397 C396 1.400 . S
C397 C398 1.398 . S
C398 H386 0.950 . S
C398 C397 1.398 . S
C398 C399 1.391 . S
C399 H387 0.950 . S
C399 C395 1.393 . S
C399 C398 1.391 . S
H400 C408 0.950 . S
H401 C413 0.950 . S
H402 C410 0.950 . S
H403 C412 0.950 . S
H404 C414 0.950 . S
H405 C416 0.950 . S
H406 C418 0.950 . S
H407 C419 0.950 . S
C408 H400 0.950 . S
C408 C409 1.386 . S
C408 C410 1.391 . S
C409 C408 1.386 . S
C409 C413 1.393 . S
C410 H402 0.950 . S
C410 C408 1.391 . S
C410 C411 1.400 . S
C411 C410 1.400 . S
C411 C412 1.398 . S
C411 C417 1.491 . S
C412 H403 0.950 . S
C412 C411 1.398 . S
C412 C413 1.391 . S
C413 H401 0.950 . S
C413 C409 1.393 . S
C413 C412 1.391 . S
C414 H404 0.950 . S
C414 C415 1.386 . S
C414 C416 1.391 . S
C415 C414 1.386 . S
C415 C419 1.393 . S
C416 H405 0.950 . S
C416 C414 1.391 . S
C416 C417 1.400 . S
C417 C411 1.491 . S
C417 C416 1.400 . S
C417 C418 1.398 . S
C418 H406 0.950 . S
C418 C417 1.398 . S
C418 C419 1.391 . S
C419 H407 0.950 . S
C419 C415 1.393 . S
C419 C418 1.391 . S
H420 C428 0.950 . S
H421 C433 0.957 . S
H422 C430 0.950 1_455 S
H423 C432 0.950 . S
H424 C434 0.950 . S
H425 C436 0.950 . S
H426 C438 0.950 1_455 S
H427 C439 0.950 1_455 S
C428 H420 0.950 . S
C428 C429 1.386 . S
C428 C430 1.391 . S
C429 C428 1.386 . S
C429 C433 1.384 1_565 S
C430 H422 0.950 1_655 S
C430 C428 1.391 . S
C430 C431 1.400 . S
C431 C430 1.400 . S
C431 C432 1.398 1_565 S
C431 C437 1.492 . S
C432 H423 0.950 . S
C432 C431 1.398 1_545 S
C432 C433 1.393 . S
C433 H421 0.957 . S
C433 C429 1.384 1_545 S
C433 C432 1.393 . S
C434 H424 0.950 . S
C434 C435 1.386 . S
C434 C436 1.391 . S
C435 C434 1.386 . S
C435 C439 1.393 1_545 S
C436 H425 0.950 . S
C436 C434 1.391 . S
C436 C437 1.394 1_545 S
C437 C431 1.492 . S
C437 C436 1.394 1_565 S
C437 C438 1.403 . S
C438 H426 0.950 1_655 S
C438 C437 1.403 . S
C438 C439 1.391 . S
C439 H427 0.950 1_655 S
C439 C435 1.393 1_565 S
C439 C438 1.391 . S
H440 C448 0.950 . S
H441 C453 0.950 . S
H442 C450 0.950 . S
H443 C452 0.950 . S
H444 C454 0.950 1_565 S
H445 C456 0.950 . S
H446 C458 0.950 . S
H447 C459 0.950 . S
C448 H440 0.950 . S
C448 C449 1.386 . S
C448 C450 1.391 . S
C449 C448 1.386 . S
C449 C453 1.393 . S
C450 H442 0.950 . S
C450 C448 1.391 . S
C450 C451 1.400 . S
C451 C450 1.400 . S
C451 C452 1.398 . S
C451 C457 1.491 . S
C452 H443 0.950 . S
C452 C451 1.398 . S
C452 C453 1.391 . S
C453 H441 0.950 . S
C453 C449 1.393 . S
C453 C452 1.391 . S
C454 H444 0.950 1_545 S
C454 C455 1.386 . S
C454 C456 1.391 . S
C455 C454 1.386 . S
C455 C459 1.393 . S
C456 H445 0.950 . S
C456 C454 1.391 . S
C456 C457 1.400 . S
C457 C451 1.491 . S
C457 C456 1.400 . S
C457 C458 1.398 . S
C458 H446 0.950 . S
C458 C457 1.398 . S
C458 C459 1.391 . S
C459 H447 0.950 . S
C459 C455 1.393 . S
C459 C458 1.391 . S
H460 C468 0.950 . S
H461 C473 0.950 . S
H462 C470 0.950 . S
H463 C472 0.950 . S
H464 C474 0.950 . S
H465 C476 0.950 . S
H466 C478 0.950 . S
H467 C479 0.950 . S
C468 H460 0.950 . S
C468 C469 1.386 . S
C468 C470 1.391 . S
C469 C468 1.386 . S
C469 C473 1.393 . S
C470 H462 0.950 . S
C470 C468 1.391 . S
C470 C471 1.400 . S
C471 C470 1.400 . S
C471 C472 1.398 . S
C471 C477 1.491 . S
C472 H463 0.950 . S
C472 C471 1.398 . S
C472 C473 1.391 . S
C473 H461 0.950 . S
C473 C469 1.393 . S
C473 C472 1.391 . S
C474 H464 0.950 . S
C474 C475 1.386 . S
C474 C476 1.391 . S
C475 C474 1.386 . S
C475 C479 1.393 . S
C476 H465 0.950 . S
C476 C474 1.391 . S
C476 C477 1.400 . S
C477 C471 1.491 . S
C477 C476 1.400 . S
C477 C478 1.398 . S
C478 H466 0.950 . S
C478 C477 1.398 . S
C478 C479 1.391 . S
C479 H467 0.950 . S
C479 C475 1.393 . S
C479 C478 1.391 . S
H480 C488 0.950 . S
H481 C493 0.950 . S
H482 C490 0.950 . S
H483 C492 0.950 . S
H484 C494 0.950 1_655 S
H485 C496 0.950 . S
H486 C498 0.950 . S
H487 C499 0.950 . S
C488 H480 0.950 . S
C488 C489 1.386 . S
C488 C490 1.391 . S
C489 C488 1.386 . S
C489 C493 1.393 . S
C490 H482 0.950 . S
C490 C488 1.391 . S
C490 C491 1.400 . S
C491 C490 1.400 . S
C491 C492 1.398 . S
C491 C497 1.491 . S
C492 H483 0.950 . S
C492 C491 1.398 . S
C492 C493 1.391 . S
C493 H481 0.950 . S
C493 C489 1.393 . S
C493 C492 1.391 . S
C494 H484 0.950 1_455 S
C494 C495 1.386 . S
C494 C496 1.391 . S
C495 C494 1.386 . S
C495 C499 1.393 . S
C496 H485 0.950 . S
C496 C494 1.391 . S
C496 C497 1.400 . S
C497 C491 1.491 . S
C497 C496 1.400 . S
C497 C498 1.398 . S
C498 H486 0.950 . S
C498 C497 1.398 . S
C498 C499 1.391 . S
C499 H487 0.950 . S
C499 C495 1.393 . S
C499 C498 1.391 . S
H500 C508 0.950 . S
H501 C513 0.950 . S
H502 C510 0.950 . S
H503 C512 0.950 . S
H504 C514 0.950 . S
H505 C516 0.950 . S
H506 C518 0.950 . S
H507 C519 0.950 . S
C508 H500 0.950 . S
C508 C509 1.386 1_545 S
C508 C510 1.391 . S
C509 C508 1.386 1_565 S
C509 C513 1.393 . S
C510 H502 0.950 . S
C510 C508 1.391 . S
C510 C511 1.400 . S
C511 C510 1.400 . S
C511 C512 1.398 1_545 S
C511 C517 1.493 . S
C512 H503 0.950 . S
C512 C511 1.398 1_565 S
C512 C513 1.391 . S
C513 H501 0.950 . S
C513 C509 1.393 . S
C513 C512 1.391 . S
C514 H504 0.950 . S
C514 C515 1.386 1_565 S
C514 C516 1.391 . S
C515 C514 1.386 1_545 S
C515 C519 1.393 . S
C516 H505 0.950 . S
C516 C514 1.391 . S
C516 C517 1.399 1_564 S
C517 C511 1.493 . S
C517 C516 1.399 1_546 S
C517 C518 1.397 1_556 S
C518 H506 0.950 . S
C518 C517 1.397 1_554 S
C518 C519 1.391 . S
C519 H507 0.950 . S
C519 C515 1.393 . S
C519 C518 1.391 . S
H520 C528 0.950 . S
H521 C533 0.950 . S
H522 C530 0.950 . S
H523 C532 0.950 . S
H524 C534 0.950 1_565 S
H525 C536 0.950 . S
H526 C538 0.950 . S
H527 C539 0.950 . S
C528 H520 0.950 . S
C528 C529 1.386 . S
C528 C530 1.391 . S
C529 C528 1.386 . S
C529 C533 1.393 . S
C530 H522 0.950 . S
C530 C528 1.391 . S
C530 C531 1.400 . S
C531 C530 1.400 . S
C531 C532 1.398 . S
C531 C537 1.491 . S
C532 H523 0.950 . S
C532 C531 1.398 . S
C532 C533 1.391 . S
C533 H521 0.950 . S
C533 C529 1.393 . S
C533 C532 1.391 . S
C534 H524 0.950 1_545 S
C534 C535 1.386 . S
C534 C536 1.391 . S
C535 C534 1.386 . S
C535 C539 1.393 . S
C536 H525 0.950 . S
C536 C534 1.391 . S
C536 C537 1.400 . S
C537 C531 1.491 . S
C537 C536 1.400 . S
C537 C538 1.398 . S
C538 H526 0.950 . S
C538 C537 1.398 . S
C538 C539 1.391 . S
C539 H527 0.950 . S
C539 C535 1.393 . S
C539 C538 1.391 . S
H540 C548 0.950 . S
H541 C553 0.950 . S
H542 C550 0.950 . S
H543 C552 0.950 . S
H544 C554 0.950 . S
H545 C556 0.950 . S
H546 C558 0.950 . S
H547 C559 0.950 . S
C548 H540 0.950 . S
C548 C549 1.386 . S
C548 C550 1.391 . S
C549 C548 1.386 . S
C549 C553 1.393 . S
C550 H542 0.950 . S
C550 C548 1.391 . S
C550 C551 1.400 . S
C551 C550 1.400 . S
C551 C552 1.398 . S
C551 C557 1.491 . S
C552 H543 0.950 . S
C552 C551 1.398 . S
C552 C553 1.391 . S
C553 H541 0.950 . S
C553 C549 1.393 . S
C553 C552 1.391 . S
C554 H544 0.950 . S
C554 C555 1.386 . S
C554 C556 1.391 . S
C555 C554 1.386 . S
C555 C559 1.393 . S
C556 H545 0.950 . S
C556 C554 1.391 . S
C556 C557 1.400 . S
C557 C551 1.491 . S
C557 C556 1.400 . S
C557 C558 1.398 . S
C558 H546 0.950 . S
C558 C557 1.398 . S
C558 C559 1.391 . S
C559 H547 0.950 . S
C559 C555 1.393 . S
C559 C558 1.391 . S
H560 C568 0.950 . S
H561 C573 0.950 . S
H562 C570 0.950 . S
H563 C572 0.950 . S
H564 C574 0.950 . S
H565 C576 0.950 . S
H566 C578 0.950 . S
H567 C579 0.950 . S
C568 H560 0.950 . S
C568 C569 1.386 . S
C568 C570 1.391 . S
C569 C568 1.386 . S
C569 C573 1.393 . S
C570 H562 0.950 . S
C570 C568 1.391 . S
C570 C571 1.400 . S
C571 C570 1.400 . S
C571 C572 1.398 . S
C571 C577 1.491 . S
C572 H563 0.950 . S
C572 C571 1.398 . S
C572 C573 1.391 . S
C573 H561 0.950 . S
C573 C569 1.393 . S
C573 C572 1.391 . S
C574 H564 0.950 . S
C574 C575 1.386 . S
C574 C576 1.391 . S
C575 C574 1.386 . S
C575 C579 1.393 . S
C576 H565 0.950 . S
C576 C574 1.391 . S
C576 C577 1.400 . S
C577 C571 1.491 . S
C577 C576 1.400 . S
C577 C578 1.398 . S
C578 H566 0.950 . S
C578 C577 1.398 . S
C578 C579 1.391 . S
C579 H567 0.950 . S
C579 C575 1.393 . S
C579 C578 1.391 . S
H580 C588 0.950 . S
H581 C593 0.937 1_554 S
H582 C590 0.950 . S
H583 C592 0.950 1_554 S
H584 C594 0.950 . S
H585 C596 0.950 . S
H586 C598 0.950 . S
H587 C599 0.950 . S
C588 H580 0.950 . S
C588 C589 1.386 . S
C588 C590 1.391 . S
C589 C588 1.386 . S
C589 C593 1.393 . S
C590 H582 0.950 . S
C590 C588 1.391 . S
C590 C591 1.400 . S
C591 C590 1.400 . S
C591 C592 1.398 . S
C591 C597 1.491 . S
C592 H583 0.950 1_556 S
C592 C591 1.398 . S
C592 C593 1.391 . S
C593 H581 0.937 1_556 S
C593 C589 1.393 . S
C593 C592 1.391 . S
C594 H584 0.950 . S
C594 C595 1.386 1_554 S
C594 C596 1.391 . S
C595 C594 1.386 1_556 S
C595 C599 1.393 . S
C596 H585 0.950 . S
C596 C594 1.391 . S
C596 C597 1.400 1_554 S
C597 C591 1.491 . S
C597 C596 1.400 1_556 S
C597 C598 1.398 . S
C598 H586 0.950 . S
C598 C597 1.398 . S
C598 C599 1.391 . S
C599 H587 0.950 . S
C599 C595 1.393 . S
C599 C598 1.391 . S
H600 C608 0.950 . S
H601 C613 0.950 . S
H602 C610 0.950 . S
H603 C612 0.950 . S
H604 C614 0.950 . S
H605 C616 0.950 . S
H606 C618 0.950 . S
H607 C619 0.950 . S
C608 H600 0.950 . S
C608 C609 1.386 . S
C608 C610 1.391 . S
C609 C608 1.386 . S
C609 C613 1.393 . S
C610 H602 0.950 . S
C610 C608 1.391 . S
C610 C611 1.400 . S
C611 C610 1.400 . S
C611 C612 1.398 . S
C611 C617 1.491 . S
C612 H603 0.950 . S
C612 C611 1.398 . S
C612 C613 1.391 . S
C613 H601 0.950 . S
C613 C609 1.393 . S
C613 C612 1.391 . S
C614 H604 0.950 . S
C614 C615 1.386 . S
C614 C616 1.391 . S
C615 C614 1.386 . S
C615 C619 1.393 . S
C616 H605 0.950 . S
C616 C614 1.391 . S
C616 C617 1.400 . S
C617 C611 1.491 . S
C617 C616 1.400 . S
C617 C618 1.398 . S
C618 H606 0.950 . S
C618 C617 1.398 . S
C618 C619 1.391 . S
C619 H607 0.950 . S
C619 C615 1.393 . S
C619 C618 1.391 . S
H620 C628 0.950 . S
H621 C633 0.950 . S
H622 C630 0.950 . S
H623 C632 0.950 . S
H624 C634 0.950 1_655 S
H625 C636 0.950 . S
H626 C638 0.950 . S
H627 C639 0.950 . S
C628 H620 0.950 . S
C628 C629 1.386 . S
C628 C630 1.391 . S
C629 C628 1.386 . S
C629 C633 1.393 . S
C630 H622 0.950 . S
C630 C628 1.391 . S
C630 C631 1.400 . S
C631 C630 1.400 . S
C631 C632 1.398 . S
C631 C637 1.491 . S
C632 H623 0.950 . S
C632 C631 1.398 . S
C632 C633 1.391 . S
C633 H621 0.950 . S
C633 C629 1.393 . S
C633 C632 1.391 . S
C634 H624 0.950 1_455 S
C634 C635 1.386 . S
C634 C636 1.391 . S
C635 C634 1.386 . S
C635 C639 1.393 . S
C636 H625 0.950 . S
C636 C634 1.391 . S
C636 C637 1.400 . S
C637 C631 1.491 . S
C637 C636 1.400 . S
C637 C638 1.398 . S
C638 H626 0.950 . S
C638 C637 1.398 . S
C638 C639 1.391 . S
C639 H627 0.950 . S
C639 C635 1.393 . S
C639 C638 1.391 . S
H640 C648 0.950 . S
H641 C653 0.950 . S
H642 C650 0.950 . S
H643 C652 0.950 . S
H644 C654 0.950 . S
H645 C656 0.950 . S
H646 C658 0.950 . S
H647 C659 0.950 . S
C648 H640 0.950 . S
C648 C649 1.386 . S
C648 C650 1.391 . S
C649 C648 1.386 . S
C649 C653 1.393 . S
C650 H642 0.950 . S
C650 C648 1.391 . S
C650 C651 1.400 . S
C651 C650 1.400 . S
C651 C652 1.398 . S
C651 C657 1.491 . S
C652 H643 0.950 . S
C652 C651 1.398 . S
C652 C653 1.391 . S
C653 H641 0.950 . S
C653 C649 1.393 . S
C653 C652 1.391 . S
C654 H644 0.950 . S
C654 C655 1.386 . S
C654 C656 1.391 . S
C655 C654 1.386 . S
C655 C659 1.393 . S
C656 H645 0.950 . S
C656 C654 1.391 . S
C656 C657 1.400 . S
C657 C651 1.491 . S
C657 C656 1.400 . S
C657 C658 1.398 . S
C658 H646 0.950 . S
C658 C657 1.398 . S
C658 C659 1.391 . S
C659 H647 0.950 . S
C659 C655 1.393 . S
C659 C658 1.391 . S
C189 C6 1.756 . S
C195 C106 1.723 . S
C209 C20 1.904 . S
C215 C130 1.851 . S
C235 C150 1.039 . S
C229 N26 1.039 . S
C249 N37 1.304 . S
C255 C173 1.324 . S
C275 C132 2.070 . S
C269 C9 2.101 . S
C295 C108 1.423 . S
C289 N15 1.474 . S
C315 C176 1.449 . S
C309 C31 1.497 . S
C335 C153 1.419 . S
C329 C39 1.443 . S
C349 N4 1.471 . S
C355 C178 1.440 . S
C375 C127 1.694 . S
C369 C28 1.676 . S
C389 C42 1.381 . S
C395 C105 1.385 . S
C409 C17 1.574 . S
C415 C155 1.535 . S
C435 C109 1.901 . S
C429 C50 1.889 . S
C449 C61 1.636 . S
C455 C131 1.658 . S
C469 N70 1.573 . S
C475 C151 1.603 . S
C489 N81 1.405 . S
C495 C174 1.439 . S
C509 N48 1.378 . S
C515 C129 1.377 . S
C535 C107 1.870 . S
C529 C64 1.878 . S
C555 C177 1.371 . S
C549 C75 1.408 . S
C575 C154 1.351 . S
C569 C86 1.354 . S
C589 C53 2.042 . S
C595 C175 2.032 . S
C615 C128 1.250 . S
C609 C72 1.240 . S
C635 C104 1.580 . S
C629 C83 1.565 . S
C649 N59 1.737 . S
C655 C152 1.724 . S
