# Generated by pormake.
# Topology anh, (6,3)-cn, num edge types: 1
# Building blocks:
#     Node 0, Type 0, BuildingBlock: BETDAH_clean_sbu_0, # of connection points: 6
#     Node 1, Type 0, BuildingBlock: BETDAH_clean_sbu_0, # of connection points: 6
#     Node 2, Type 0, BuildingBlock: BETDAH_clean_sbu_0, # of connection points: 6
#     Node 3, Type 1, BuildingBlock: MIDCAF_clean_linker_0, # of connection points: 3
#     Node 4, Type 1, BuildingBlock: MIDCAF_clean_linker_0, # of connection points: 3
#     Node 5, Type 1, BuildingBlock: MIDCAF_clean_linker_0, # of connection points: 3
#     Node 6, Type 1, BuildingBlock: MIDCAF_clean_linker_0, # of connection points: 3
#     Node 7, Type 1, BuildingBlock: MIDCAF_clean_linker_0, # of connection points: 3
#     Node 8, Type 1, BuildingBlock: MIDCAF_clean_linker_0, # of connection points: 3
#     Edge 9, Type (0, 1), None
#     Edge 10, Type (0, 1), None
#     Edge 11, Type (0, 1), None
#     Edge 12, Type (0, 1), None
#     Edge 13, Type (0, 1), None
#     Edge 14, Type (0, 1), None
#     Edge 15, Type (0, 1), None
#     Edge 16, Type (0, 1), None
#     Edge 17, Type (0, 1), None
#     Edge 18, Type (0, 1), None
#     Edge 19, Type (0, 1), None
#     Edge 20, Type (0, 1), None
#     Edge 21, Type (0, 1), None
#     Edge 22, Type (0, 1), None
#     Edge 23, Type (0, 1), None
#     Edge 24, Type (0, 1), None
#     Edge 25, Type (0, 1), None
#     Edge 26, Type (0, 1), None
# Relax obj value: 0.290
# Max RMSD: 0.264
# Mean RMSD: 0.183
data_MOF--net-anh--node1-BETDAH_clean_sbu_0--node2-MIDCAF_clean_linker_0--edge1-none
_symmetry_space_group_name_H-M    P1
_symmetry_Int_Tables_number       1
_symmetry_cell_setting            triclinic
loop_
_symmetry_equiv_pos_as_xyz
'x, y, z'
_cell_length_a     20.852835
_cell_length_b     26.587979
_cell_length_c     36.976203
_cell_angle_alpha  91.728118
_cell_angle_beta   89.390592
_cell_angle_gamma 133.68483
loop_
_atom_site_label
_atom_site_type_symbol
_atom_site_fract_x
_atom_site_fract_y
_atom_site_fract_z
_atom_type_partial_charge
Ho0 Ho 0.26078 0.59413 0.14433 0.0
Ho1 Ho 0.14739 0.62118 0.1617 0.0
C2 C 0.35806 0.7561 0.15454 0.0
C3 C 0.34827 0.5679 0.11675 0.0
C4 C 0.31939 0.49966 0.11463 0.0
C5 C 0.2652 0.45107 0.14166 0.0
C6 C 0.22656 0.38261 0.13712 0.0
C7 C 0.24023 0.36151 0.10519 0.0
C8 C 0.29416 0.4103 0.07815 0.0
C9 C 0.33326 0.47873 0.08284 0.0
C10 C 0.2161 0.57948 0.21467 0.0
C11 C 1.05354 0.46207 0.15555 0.0
C12 C 1.04874 0.6373 0.18843 0.0
C13 C 0.95067 0.58315 0.18709 0.0
C14 C 0.90384 0.52053 0.20548 0.0
C15 C 0.81748 0.46059 0.19478 0.0
C16 C 0.77699 0.46278 0.16585 0.0
C17 C 0.81961 0.52655 0.15014 0.0
C18 C 0.90564 0.58651 0.16088 0.0
C19 C 0.14013 0.58476 0.09121 0.0
O20 O 0.36838 0.71252 0.14825 0.0
O21 O 0.27859 0.73298 0.16001 0.0
O22 O 0.29901 0.57081 0.09728 0.0
O23 O 0.36626 0.59659 0.14918 0.0
O24 O 0.2193 0.5386 0.19692 0.0
O25 O 0.23898 0.62694 0.19464 0.0
O26 O 1.05386 0.50657 0.17272 0.0
O27 O 0.12355 0.48527 0.13683 0.0
O28 O 1.08726 0.66211 0.15703 0.0
O29 O 1.08628 0.62352 0.20839 0.0
O30 O 1.07219 0.56378 0.10929 0.0
O31 O 0.20851 0.62572 0.11099 0.0
H32 H 0.25159 0.46565 0.16607 0.0
H33 H 0.18638 0.34629 0.1585 0.0
H34 H 0.30822 0.39609 0.05368 0.0
H35 H 0.37312 0.51501 0.0614 0.0
H36 H 0.93612 0.51601 0.22602 0.0
H37 H 0.78506 0.41171 0.20723 0.0
H38 H 0.78851 0.52892 0.12784 0.0
H39 H 0.93965 0.63384 0.14637 0.0
Ho40 Ho 0.76326 0.08503 0.47014 0.0
Ho41 Ho 0.64133 0.10311 0.46059 0.0
C42 C 0.55292 0.9483 0.45758 0.0
C43 C 0.84341 0.04709 0.48859 0.0
C44 C 0.81481 0.98372 0.50312 0.0
C45 C 0.73847 0.93957 0.52427 0.0
C46 C 0.71061 0.8782 0.53692 0.0
C47 C 0.75821 0.8599 0.5283 0.0
C48 C 0.83424 0.90412 0.50691 0.0
C49 C 0.86233 0.96563 0.49446 0.0
C50 C 0.74985 0.10836 0.40132 0.0
C51 C 0.85562 0.24264 0.46765 0.0
C52 C 0.56233 0.1426 0.44327 0.0
C53 C 0.56609 0.19615 0.45951 0.0
C54 C 0.60742 0.25749 0.44113 0.0
C55 C 0.62099 0.31199 0.45822 0.0
C56 C 0.59342 0.30594 0.494 0.0
C57 C 0.54794 0.24314 0.51157 0.0
C58 C 0.53456 0.18896 0.4946 0.0
C59 C 0.65189 0.07905 0.53007 0.0
O60 O 0.62609 0.97431 0.47507 0.0
O61 O 0.55012 0.99104 0.44229 0.0
O62 O 0.81651 0.04069 0.45559 0.0
O63 O 0.83592 0.08271 0.51008 0.0
O64 O 0.82369 0.13584 0.41687 0.0
O65 O 0.68618 0.06851 0.42255 0.0
O66 O 0.77482 0.21543 0.46005 0.0
O67 O 0.86875 0.20222 0.47583 0.0
O68 O 0.52574 0.08837 0.46268 0.0
O69 O 0.63481 0.16575 0.42778 0.0
O70 O 0.58123 0.05771 0.51456 0.0
O71 O 0.71667 0.11787 0.509 0.0
H72 H 0.70029 0.95236 0.53086 0.0
H73 H 0.65137 0.84472 0.5531 0.0
H74 H 0.87273 0.89165 0.50024 0.0
H75 H 0.92105 0.99902 0.47797 0.0
H76 H 0.63198 0.26421 0.414 0.0
H77 H 0.65622 0.3598 0.44403 0.0
H78 H 0.52417 0.23634 0.53886 0.0
H79 H 0.5018 0.14232 0.50955 0.0
Ho80 Ho 0.68388 0.59586 0.85604 0.0
Ho81 Ho 0.5589 0.44045 0.84992 0.0
C82 C 0.47146 0.51247 0.85745 0.0
C83 C 0.79129 0.7271 0.84272 0.0
C84 C 0.77785 0.77147 0.82912 0.0
C85 C 0.83879 0.82469 0.80512 0.0
C86 C 0.8252 0.86513 0.79083 0.0
C87 C 0.7502 0.8535 0.80021 0.0
C88 C 0.68949 0.80029 0.82449 0.0
C89 C 0.70295 0.75968 0.83864 0.0
C90 C 0.62953 0.52734 0.91856 0.0
C91 C 0.77361 0.52517 0.85442 0.0
C92 C 0.45415 0.30729 0.85406 0.0
C93 C 0.46962 0.26142 0.84563 0.0
C94 C 0.55069 0.28211 0.85444 0.0
C95 C 0.56981 0.24357 0.84143 0.0
C96 C 0.50849 0.18364 0.81914 0.0
C97 C 0.42574 0.16133 0.8119 0.0
C98 C 0.40669 0.19982 0.82493 0.0
C99 C 0.6264 0.50567 0.78715 0.0
O100 O 0.55423 0.57255 0.85132 0.0
O101 O 0.45903 0.45552 0.86122 0.0
O102 O 0.76185 0.70233 0.87509 0.0
O103 O 0.77392 0.68067 0.81954 0.0
O104 O 0.63534 0.57871 0.91431 0.0
O105 O 0.653 0.51727 0.89049 0.0
O106 O 0.68908 0.46369 0.85505 0.0
O107 O 0.78754 0.58323 0.8535 0.0
O108 O 0.4554 0.33701 0.82614 0.0
O109 O 0.49646 0.35015 0.88221 0.0
O110 O 0.61444 0.45292 0.79567 0.0
O111 O 0.59839 0.52003 0.81182 0.0
H112 H 0.89687 0.83474 0.79721 0.0
H113 H 0.87396 0.90594 0.77257 0.0
H114 H 0.63031 0.78889 0.83199 0.0
H115 H 0.65417 0.71854 0.85676 0.0
H116 H 0.60077 0.3295 0.87027 0.0
H117 H 0.6344 0.26273 0.84734 0.0
H118 H 0.37632 0.1149 0.79531 0.0
H119 H 0.34384 0.18276 0.81769 0.0
C120 C 0.42835 0.88093 0.15889 0.0
C121 C 0.438 0.83331 0.15759 0.0
C122 C 0.52418 0.86028 0.16181 0.0
C123 C 0.59717 0.93176 0.16936 0.0
H124 H 0.90743 0.22665 0.14291 0.0
H125 H 1.02873 0.35052 0.12896 0.0
H126 H 0.90058 0.39846 0.19231 0.0
H127 H 0.78165 0.27618 0.20624 0.0
H128 H 0.86548 0.20782 0.28988 0.0
H129 H 0.8772 0.2068 0.35548 0.0
H130 H 0.6017 1.01419 0.35885 0.0
H131 H 0.59024 1.01399 0.29298 0.0
H132 H 0.4906 0.98669 0.16903 0.0
H133 H 0.36344 0.86263 0.15576 0.0
H134 H 0.53471 0.82568 0.16121 0.0
H135 H 0.66127 0.94986 0.17503 0.0
N136 N 0.71229 0.10961 0.17257 0.0
N137 N 0.77632 0.17063 0.22852 0.0
N138 N 0.66152 0.04927 0.22717 0.0
C139 C 0.7729 0.17147 0.19191 0.0
C140 C 0.72134 0.11013 0.24631 0.0
C141 C 0.65631 0.04803 0.19052 0.0
C142 C 0.8339 0.24123 0.17517 0.0
C143 C 0.90397 0.26352 0.15272 0.0
C144 C 0.97403 0.33476 0.14509 0.0
C145 C 0.97544 0.38526 0.15971 0.0
C146 C 0.90273 0.36184 0.18059 0.0
C147 C 0.83371 0.2913 0.18837 0.0
C148 C 0.72709 0.11072 0.28622 0.0
C149 C 0.80727 0.16538 0.30458 0.0
C150 C 0.8141 0.16479 0.3421 0.0
C151 C 0.74044 0.11041 0.36208 0.0
C152 C 0.65945 0.05681 0.34401 0.0
C153 C 0.65311 0.05652 0.30633 0.0
C154 C 0.58665 0.97865 0.172 0.0
C155 C 0.50157 0.95247 0.16599 0.0
C156 C 0.64683 0.3805 0.55001 0.0
C157 C 0.61598 0.36569 0.51409 0.0
C158 C 0.60586 0.40734 0.49825 0.0
C159 C 0.62293 0.46102 0.51857 0.0
H160 H 0.71098 0.66235 0.51539 0.0
H161 H 0.74536 0.76288 0.49122 0.0
H162 H 0.70865 0.81281 0.59691 0.0
H163 H 0.67347 0.71218 0.6212 0.0
H164 H 0.62973 0.6158 0.69062 0.0
H165 H 0.61092 0.58936 0.75522 0.0
H166 H 0.69406 0.48056 0.73596 0.0
H167 H 0.71248 0.50628 0.67245 0.0
H168 H 0.6861 0.4426 0.59799 0.0
H169 H 0.6577 0.35066 0.56268 0.0
H170 H 0.58225 0.3971 0.47056 0.0
H171 H 0.61218 0.49105 0.50608 0.0
N172 N 0.66849 0.57587 0.56377 0.0
N173 N 0.67747 0.61775 0.62236 0.0
N174 N 0.66292 0.52266 0.61456 0.0
C175 C 0.67699 0.62227 0.5858 0.0
C176 C 0.67084 0.56811 0.63684 0.0
C177 C 0.66128 0.52575 0.57814 0.0
C178 C 0.69017 0.67946 0.57032 0.0
C179 C 0.70926 0.69424 0.53345 0.0
C180 C 0.72951 0.75204 0.51961 0.0
C181 C 0.73034 0.79583 0.54228 0.0
C182 C 0.70804 0.77968 0.5788 0.0
C183 C 0.68841 0.72221 0.59271 0.0
C184 C 0.67069 0.56175 0.67637 0.0
C185 C 0.64521 0.58719 0.70045 0.0
C186 C 0.63443 0.57215 0.7373 0.0
C187 C 0.64943 0.53184 0.75024 0.0
C188 C 0.68053 0.51072 0.72656 0.0
C189 C 0.69086 0.52533 0.69008 0.0
C190 C 0.65031 0.47371 0.55502 0.0
C191 C 0.66353 0.43359 0.57021 0.0
C192 C 0.94456 0.58895 0.86003 0.0
C193 C 0.85242 0.52706 0.8563 0.0
C194 C 0.83679 0.46536 0.85563 0.0
C195 C 0.90622 0.4654 0.85925 0.0
H196 H 0.3557 0.62011 0.85074 0.0
H197 H 0.47036 0.61686 0.84317 0.0
H198 H 0.2887 0.40719 0.87966 0.0
H199 H 0.17461 0.41119 0.88773 0.0
H200 H 0.2741 0.60469 0.98317 0.0
H201 H 0.27832 0.62763 0.04834 0.0
H202 H 0.99879 0.51068 0.04482 0.0
H203 H 0.99535 0.49046 0.9798 0.0
H204 H 1.08091 0.63837 0.86896 0.0
H205 H 0.96372 0.63858 0.8613 0.0
H206 H 0.76904 0.41542 0.85325 0.0
H207 H 0.88639 0.41565 0.86068 0.0
N208 N 0.12415 0.52057 0.8624 0.0
N209 N 0.18497 0.53072 0.9192 0.0
N210 N 1.07562 0.53474 0.91643 0.0
C211 C 0.1837 0.52226 0.88255 0.0
C212 C 0.13197 0.53674 0.93615 0.0
C213 C 1.06881 0.5271 0.87991 0.0
C214 C 0.24969 0.51463 0.86809 0.0
C215 C 0.33756 0.57182 0.85597 0.0
C216 C 0.4057 0.57015 0.85212 0.0
C217 C 0.39315 0.5114 0.86033 0.0
C218 C 0.30519 0.45404 0.87227 0.0
C219 C 0.23743 0.45609 0.8765 0.0
C220 C 0.13444 0.54577 0.97623 0.0
C221 C 0.21347 0.58335 -0.00357 0.0
C222 C 0.21584 0.59641 0.03378 0.0
C223 C 0.1387 0.5705 0.05186 0.0
C224 C 1.05939 0.53143 0.03179 0.0
C225 C 1.05747 0.51983 -0.00554 0.0
C226 C 0.99842 0.52717 0.86319 0.0
C227 C 1.01387 0.58883 0.86385 0.0
C228 C 0.3981 0.8453 0.43455 0.0
C229 C 0.47399 0.87097 0.45384 0.0
C230 C 0.47336 0.82191 0.46815 0.0
C231 C 0.40062 0.74956 0.4617 0.0
H232 H 0.97577 0.46436 0.44112 0.0
H233 H 0.85277 0.34305 0.45696 0.0
H234 H 1.03532 0.3181 0.46806 0.0
H235 H 0.15831 0.44003 0.45192 0.0
H236 H 0.14031 0.47493 0.3257 0.0
H237 H 0.14911 0.47374 0.25961 0.0
H238 H 0.25736 0.68261 0.25871 0.0
H239 H 0.25032 0.68456 0.3246 0.0
H240 H 0.27156 0.75663 0.41134 0.0
H241 H 0.39501 0.88069 0.42324 0.0
H242 H 0.53027 0.83941 0.48327 0.0
H243 H 0.40439 0.71351 0.47117 0.0
N244 N 0.20564 0.59318 0.44453 0.0
N245 N 0.14277 0.52532 0.39012 0.0
N246 N 0.25587 0.64652 0.38807 0.0
C247 C 0.1455 0.5291 0.42694 0.0
C248 C 0.19772 0.58376 0.37055 0.0
C249 C 0.26158 0.6524 0.42469 0.0
C250 C 1.07737 0.46265 0.44624 0.0
C251 C 0.99007 0.4337 0.44828 0.0
C252 C 0.91924 0.36362 0.45702 0.0
C253 C 0.93324 0.31983 0.46377 0.0
C254 C 1.02144 0.34981 0.46333 0.0
C255 C 1.09236 0.42006 0.45439 0.0
C256 C 0.19542 0.58005 0.33043 0.0
C257 C 0.16526 0.52033 0.31138 0.0
C258 C 0.17057 0.51973 0.2736 0.0
C259 C 0.20461 0.57832 0.25418 0.0
C260 C 0.23119 0.63686 0.27304 0.0
C261 C 0.2274 0.63797 0.31079 0.0
C262 C 0.32694 0.72473 0.44084 0.0
C263 C 0.32639 0.77371 0.42802 0.0
C264 C 0.51133 0.12771 0.76407 0.0
C265 C 0.53338 0.14826 0.80078 0.0
C266 C 0.58234 0.13756 0.81872 0.0
C267 C 0.60924 0.10776 0.80018 0.0
H268 H 0.65638 0.97046 0.80722 0.0
H269 H 0.68611 0.90517 0.83365 0.0
H270 H 0.77842 0.89767 0.73047 0.0
H271 H 0.74984 0.96355 0.70409 0.0
H272 H 0.78324 0.08389 0.63417 0.0
H273 H 0.78302 0.10122 0.56899 0.0
H274 H 0.52935 0.03748 0.57995 0.0
H275 H 0.53126 0.02305 0.64431 0.0
H276 H 0.52124 0.0849 0.71716 0.0
H277 H 0.47501 0.13596 0.74911 0.0
H278 H 0.60015 0.15247 0.84706 0.0
H279 H 0.64792 0.10119 0.81455 0.0
N280 N 0.64829 0.03337 0.75731 0.0
N281 N 0.68364 1.01745 0.69989 0.0
N282 N 0.62738 0.06895 0.70523 0.0
C283 C 0.67832 1.00982 0.73654 0.0
C284 C 0.65801 0.04697 0.68415 0.0
C285 C 0.62285 0.06324 0.74167 0.0
C286 C 0.70049 0.97264 0.75336 0.0
C287 C 0.68355 0.95538 0.79012 0.0
C288 C 0.70004 0.91732 0.8053 0.0
C289 C 0.73455 0.89568 0.78429 0.0
C290 C 0.7528 0.91391 0.7477 0.0
C291 C 0.73586 0.95158 0.73247 0.0
C292 C 0.65722 0.05209 0.64431 0.0
C293 C 0.72745 0.0733 0.62239 0.0
C294 C 0.72759 0.0836 0.58519 0.0
C295 C 0.65632 0.07091 0.56929 0.0
C296 C 0.5855 0.04802 0.59124 0.0
C297 C 0.58647 0.0396 0.62821 0.0
C298 C 0.58896 0.08911 0.76315 0.0
C299 C 0.53877 0.09885 0.74558 0.0
C300 C 0.70406 0.37842 0.11419 0.0
C301 C 0.69665 0.39845 0.14826 0.0
C302 C 0.61267 0.36407 0.16203 0.0
C303 C 0.53733 0.31594 0.14001 0.0
H304 H 0.19754 0.20554 0.02906 0.0
H305 H 0.15649 0.26848 0.0476 0.0
H306 H 0.26067 0.29968 0.15479 0.0
H307 H 0.30029 0.23613 0.13652 0.0
H308 H 0.40889 0.38379 0.00285 0.0
H309 H 0.48754 0.47929 0.96024 0.0
H310 H 0.67465 0.46041 0.94064 0.0
H311 H 0.59774 0.36643 0.98309 0.0
H312 H 0.63768 0.32117 0.06466 0.0
H313 H 0.76871 0.40418 0.1034 0.0
H314 H 0.60614 0.37893 0.1884 0.0
H315 H 0.47423 0.29554 0.14984 0.0
N316 N 0.39425 0.24426 0.08657 0.0
N317 N 0.37112 0.27732 0.03397 0.0
N318 N 0.50923 0.31597 0.04542 0.0
C319 C 0.33889 0.24075 0.06488 0.0
C320 C 0.45593 0.31476 0.02401 0.0
C321 C 0.4792 0.28092 0.07668 0.0
C322 C 0.25957 0.22214 0.08044 0.0
C323 C 0.20588 0.22141 0.0573 0.0
C324 C 0.18294 0.25801 0.06783 0.0
C325 C 0.21158 0.29297 0.10174 0.0
C326 C 0.24091 0.27535 0.12796 0.0
C327 C 0.26351 0.23849 0.11738 0.0
C328 C 0.49653 0.36692 -0.00424 0.0
C329 C 0.46654 0.39988 0.98917 0.0
C330 C 0.5124 0.45543 0.96554 0.0
C331 C 0.58781 0.47778 0.94791 0.0
C332 C 0.61725 0.44464 0.95443 0.0
C333 C 0.57265 0.39028 0.97831 0.0
C334 C 0.5461 0.30296 0.10394 0.0
C335 C 0.62914 0.33065 0.0922 0.0
loop_
_geom_bond_atom_site_label_1
_geom_bond_atom_site_label_2
_geom_bond_distance
_geom_bond_site_symmetry_2
_ccdc_geom_bond_type
Ho0 C3 2.811 . S
Ho0 O20 2.322 . S
Ho0 O22 2.378 . S
Ho0 O23 2.524 . S
Ho0 O24 2.381 . S
Ho0 O25 2.669 . S
Ho0 O27 2.346 1_455 S
Ho0 O31 2.305 . S
Ho1 C12 2.811 . S
Ho1 O21 2.346 1_655 S
Ho1 O25 2.305 1_655 S
Ho1 O26 2.322 . S
Ho1 O28 2.378 . S
Ho1 O29 2.524 . S
Ho1 O30 2.381 . S
Ho1 O31 2.669 1_655 S
C2 O20 1.259 . S
C2 O21 1.268 . S
C3 Ho0 2.811 . S
C3 C4 1.488 . S
C3 O22 1.215 . S
C3 O23 1.289 . S
C4 C3 1.488 . S
C4 C5 1.348 . S
C4 C9 1.413 . S
C5 C4 1.348 . S
C5 C6 1.442 . S
C5 H32 0.930 . S
C6 C5 1.442 . S
C6 C7 1.381 . S
C6 H33 0.931 . S
C7 C6 1.381 . S
C7 C8 1.321 . S
C8 C7 1.321 . S
C8 C9 1.403 . S
C8 H34 0.934 . S
C9 C4 1.413 . S
C9 C8 1.403 . S
C9 H35 0.930 . S
C10 O24 1.275 . S
C10 O25 1.256 . S
C11 O26 1.259 . S
C11 O27 1.268 . S
C12 Ho1 2.811 . S
C12 C13 1.488 . S
C12 O28 1.215 . S
C12 O29 1.289 . S
C13 C12 1.488 . S
C13 C14 1.348 . S
C13 C18 1.413 . S
C14 C13 1.348 . S
C14 C15 1.442 . S
C14 H36 0.930 . S
C15 C14 1.442 . S
C15 C16 1.381 . S
C15 H37 0.931 . S
C16 C15 1.381 . S
C16 C17 1.321 . S
C17 C16 1.321 . S
C17 C18 1.403 . S
C17 H38 0.934 . S
C18 C13 1.413 . S
C18 C17 1.403 . S
C18 H39 0.930 . S
C19 O30 1.275 1_455 S
C19 O31 1.256 . S
O20 Ho0 2.322 . S
O20 C2 1.259 . S
O21 Ho1 2.346 1_455 S
O21 C2 1.268 . S
O22 Ho0 2.378 . S
O22 C3 1.215 . S
O23 Ho0 2.524 . S
O23 C3 1.289 . S
O24 Ho0 2.381 . S
O24 C10 1.275 . S
O25 Ho0 2.669 . S
O25 Ho1 2.305 1_455 S
O25 C10 1.256 . S
O26 Ho1 2.322 . S
O26 C11 1.259 . S
O27 Ho0 2.346 1_655 S
O27 C11 1.268 . S
O28 Ho1 2.378 . S
O28 C12 1.215 . S
O29 Ho1 2.524 . S
O29 C12 1.289 . S
O30 Ho1 2.381 . S
O30 C19 1.275 1_655 S
O31 Ho0 2.305 . S
O31 Ho1 2.669 1_455 S
O31 C19 1.256 . S
H32 C5 0.930 . S
H33 C6 0.931 . S
H34 C8 0.934 . S
H35 C9 0.930 . S
H36 C14 0.930 . S
H37 C15 0.931 . S
H38 C17 0.934 . S
H39 C18 0.930 . S
Ho40 C43 2.811 . S
Ho40 O60 2.322 . S
Ho40 O62 2.378 . S
Ho40 O63 2.524 . S
Ho40 O64 2.381 . S
Ho40 O65 2.669 1_565 S
Ho40 O67 2.346 1_565 S
Ho40 O71 2.305 . S
Ho41 C52 2.811 . S
Ho41 O61 2.346 1_545 S
Ho41 O65 2.305 . S
Ho41 O66 2.322 . S
Ho41 O68 2.378 . S
Ho41 O69 2.524 . S
Ho41 O70 2.381 . S
Ho41 O71 2.669 1_545 S
C42 O60 1.259 . S
C42 O61 1.268 . S
C43 Ho40 2.811 . S
C43 C44 1.488 . S
C43 O62 1.215 . S
C43 O63 1.289 . S
C44 C43 1.488 . S
C44 C45 1.348 . S
C44 C49 1.413 . S
C45 C44 1.348 . S
C45 C46 1.442 . S
C45 H72 0.930 . S
C46 C45 1.442 . S
C46 C47 1.381 . S
C46 H73 0.931 . S
C47 C46 1.381 . S
C47 C48 1.321 . S
C48 C47 1.321 . S
C48 C49 1.403 . S
C48 H74 0.934 . S
C49 C44 1.413 . S
C49 C48 1.403 . S
C49 H75 0.930 . S
C50 O64 1.275 1_545 S
C50 O65 1.256 . S
C51 O66 1.259 . S
C51 O67 1.268 . S
C52 Ho41 2.811 . S
C52 C53 1.488 . S
C52 O68 1.215 . S
C52 O69 1.289 . S
C53 C52 1.488 . S
C53 C54 1.348 . S
C53 C58 1.413 . S
C54 C53 1.348 . S
C54 C55 1.442 . S
C54 H76 0.930 . S
C55 C54 1.442 . S
C55 C56 1.381 . S
C55 H77 0.931 . S
C56 C55 1.381 . S
C56 C57 1.321 . S
C57 C56 1.321 . S
C57 C58 1.403 . S
C57 H78 0.934 . S
C58 C53 1.413 . S
C58 C57 1.403 . S
C58 H79 0.930 . S
C59 O70 1.275 . S
C59 O71 1.256 1_545 S
O60 Ho40 2.322 . S
O60 C42 1.259 . S
O61 Ho41 2.346 1_565 S
O61 C42 1.268 . S
O62 Ho40 2.378 . S
O62 C43 1.215 . S
O63 Ho40 2.524 . S
O63 C43 1.289 . S
O64 Ho40 2.381 . S
O64 C50 1.275 1_565 S
O65 Ho40 2.669 1_545 S
O65 Ho41 2.305 . S
O65 C50 1.256 . S
O66 Ho41 2.322 . S
O66 C51 1.259 . S
O67 Ho40 2.346 1_545 S
O67 C51 1.268 . S
O68 Ho41 2.378 . S
O68 C52 1.215 . S
O69 Ho41 2.524 . S
O69 C52 1.289 . S
O70 Ho41 2.381 . S
O70 C59 1.275 . S
O71 Ho40 2.305 . S
O71 Ho41 2.669 1_565 S
O71 C59 1.256 1_565 S
H72 C45 0.930 . S
H73 C46 0.931 . S
H74 C48 0.934 . S
H75 C49 0.930 . S
H76 C54 0.930 . S
H77 C55 0.931 . S
H78 C57 0.934 . S
H79 C58 0.930 . S
Ho80 C83 2.811 . S
Ho80 O100 2.322 . S
Ho80 O102 2.378 . S
Ho80 O103 2.524 . S
Ho80 O104 2.381 . S
Ho80 O105 2.669 . S
Ho80 O107 2.346 . S
Ho80 O111 2.305 . S
Ho81 C92 2.811 . S
Ho81 O101 2.346 . S
Ho81 O105 2.305 . S
Ho81 O106 2.322 . S
Ho81 O108 2.378 . S
Ho81 O109 2.524 . S
Ho81 O110 2.381 . S
Ho81 O111 2.669 . S
C82 O100 1.259 . S
C82 O101 1.268 . S
C83 Ho80 2.811 . S
C83 C84 1.488 . S
C83 O102 1.215 . S
C83 O103 1.289 . S
C84 C83 1.488 . S
C84 C85 1.348 . S
C84 C89 1.413 . S
C85 C84 1.348 . S
C85 C86 1.442 . S
C85 H112 0.930 . S
C86 C85 1.442 . S
C86 C87 1.381 . S
C86 H113 0.931 . S
C87 C86 1.381 . S
C87 C88 1.321 . S
C88 C87 1.321 . S
C88 C89 1.403 . S
C88 H114 0.934 . S
C89 C84 1.413 . S
C89 C88 1.403 . S
C89 H115 0.930 . S
C90 O104 1.275 . S
C90 O105 1.256 . S
C91 O106 1.259 . S
C91 O107 1.268 . S
C92 Ho81 2.811 . S
C92 C93 1.488 . S
C92 O108 1.215 . S
C92 O109 1.289 . S
C93 C92 1.488 . S
C93 C94 1.348 . S
C93 C98 1.413 . S
C94 C93 1.348 . S
C94 C95 1.442 . S
C94 H116 0.930 . S
C95 C94 1.442 . S
C95 C96 1.381 . S
C95 H117 0.931 . S
C96 C95 1.381 . S
C96 C97 1.321 . S
C97 C96 1.321 . S
C97 C98 1.403 . S
C97 H118 0.934 . S
C98 C93 1.413 . S
C98 C97 1.403 . S
C98 H119 0.930 . S
C99 O110 1.275 . S
C99 O111 1.256 . S
O100 Ho80 2.322 . S
O100 C82 1.259 . S
O101 Ho81 2.346 . S
O101 C82 1.268 . S
O102 Ho80 2.378 . S
O102 C83 1.215 . S
O103 Ho80 2.524 . S
O103 C83 1.289 . S
O104 Ho80 2.381 . S
O104 C90 1.275 . S
O105 Ho80 2.669 . S
O105 Ho81 2.305 . S
O105 C90 1.256 . S
O106 Ho81 2.322 . S
O106 C91 1.259 . S
O107 Ho80 2.346 . S
O107 C91 1.268 . S
O108 Ho81 2.378 . S
O108 C92 1.215 . S
O109 Ho81 2.524 . S
O109 C92 1.289 . S
O110 Ho81 2.381 . S
O110 C99 1.275 . S
O111 Ho80 2.305 . S
O111 Ho81 2.669 . S
O111 C99 1.256 . S
H112 C85 0.930 . S
H113 C86 0.931 . S
H114 C88 0.934 . S
H115 C89 0.930 . S
H116 C94 0.930 . S
H117 C95 0.931 . S
H118 C97 0.934 . S
H119 C98 0.930 . S
C120 C121 1.384 . S
C120 H133 0.947 . S
C120 C155 1.382 . S
C121 C120 1.384 . S
C121 C122 1.378 . S
C122 C121 1.378 . S
C122 C123 1.378 . S
C122 H134 0.952 . S
C123 C122 1.378 . S
C123 H135 0.950 . S
C123 C154 1.383 . S
H124 C143 0.947 . S
H125 C144 0.946 . S
H126 C146 0.953 . S
H127 C147 0.945 . S
H128 C149 0.952 . S
H129 C150 0.949 . S
H130 C152 0.950 . S
H131 C153 0.948 . S
H132 C155 0.951 . S
H133 C120 0.947 . S
H134 C122 0.952 . S
H135 C123 0.950 . S
N136 C139 1.382 . S
N136 C141 1.363 1_545 S
N137 C139 1.371 . S
N137 C140 1.372 . S
N138 C140 1.361 1_565 S
N138 C141 1.377 . S
C139 N136 1.382 . S
C139 N137 1.371 . S
C139 C142 1.480 . S
C140 N137 1.372 . S
C140 N138 1.361 1_545 S
C140 C148 1.457 . S
C141 N136 1.363 1_565 S
C141 N138 1.377 . S
C141 C154 1.479 . S
C142 C139 1.480 . S
C142 C143 1.383 . S
C142 C147 1.385 . S
C143 H124 0.947 . S
C143 C142 1.383 . S
C143 C144 1.388 . S
C144 H125 0.946 . S
C144 C143 1.388 . S
C144 C145 1.384 . S
C145 C144 1.384 . S
C145 C146 1.377 . S
C146 H126 0.953 . S
C146 C145 1.377 . S
C146 C147 1.369 . S
C147 H127 0.945 . S
C147 C142 1.385 . S
C147 C146 1.369 . S
C148 C140 1.457 . S
C148 C149 1.372 . S
C148 C153 1.364 1_545 S
C149 H128 0.952 . S
C149 C148 1.372 . S
C149 C150 1.389 . S
C150 H129 0.949 . S
C150 C149 1.389 . S
C150 C151 1.387 . S
C151 C150 1.387 . S
C151 C152 1.372 1_545 S
C152 H130 0.950 . S
C152 C151 1.372 1_565 S
C152 C153 1.379 . S
C153 H131 0.948 . S
C153 C148 1.364 1_565 S
C153 C152 1.379 . S
C154 C123 1.383 . S
C154 C141 1.479 . S
C154 C155 1.398 . S
C155 C120 1.382 . S
C155 H132 0.951 . S
C155 C154 1.398 . S
C156 C157 1.384 . S
C156 H169 0.947 . S
C156 C191 1.382 . S
C157 C156 1.384 . S
C157 C158 1.378 . S
C158 C157 1.378 . S
C158 C159 1.378 . S
C158 H170 0.952 . S
C159 C158 1.378 . S
C159 H171 0.950 . S
C159 C190 1.383 . S
H160 C179 0.947 . S
H161 C180 0.946 . S
H162 C182 0.953 . S
H163 C183 0.945 . S
H164 C185 0.952 . S
H165 C186 0.949 . S
H166 C188 0.950 . S
H167 C189 0.948 . S
H168 C191 0.951 . S
H169 C156 0.947 . S
H170 C158 0.952 . S
H171 C159 0.950 . S
N172 C175 1.382 . S
N172 C177 1.363 . S
N173 C175 1.371 . S
N173 C176 1.372 . S
N174 C176 1.361 . S
N174 C177 1.377 . S
C175 N172 1.382 . S
C175 N173 1.371 . S
C175 C178 1.480 . S
C176 N173 1.372 . S
C176 N174 1.361 . S
C176 C184 1.457 . S
C177 N172 1.363 . S
C177 N174 1.377 . S
C177 C190 1.479 . S
C178 C175 1.480 . S
C178 C179 1.383 . S
C178 C183 1.385 . S
C179 H160 0.947 . S
C179 C178 1.383 . S
C179 C180 1.388 . S
C180 H161 0.946 . S
C180 C179 1.388 . S
C180 C181 1.384 . S
C181 C180 1.384 . S
C181 C182 1.377 . S
C182 H162 0.953 . S
C182 C181 1.377 . S
C182 C183 1.369 . S
C183 H163 0.945 . S
C183 C178 1.385 . S
C183 C182 1.369 . S
C184 C176 1.457 . S
C184 C185 1.372 . S
C184 C189 1.364 . S
C185 H164 0.952 . S
C185 C184 1.372 . S
C185 C186 1.389 . S
C186 H165 0.949 . S
C186 C185 1.389 . S
C186 C187 1.387 . S
C187 C186 1.387 . S
C187 C188 1.372 . S
C188 H166 0.950 . S
C188 C187 1.372 . S
C188 C189 1.379 . S
C189 H167 0.948 . S
C189 C184 1.364 . S
C189 C188 1.379 . S
C190 C159 1.383 . S
C190 C177 1.479 . S
C190 C191 1.398 . S
C191 C156 1.382 . S
C191 H168 0.951 . S
C191 C190 1.398 . S
C192 C193 1.384 . S
C192 H205 0.947 . S
C192 C227 1.382 . S
C193 C192 1.384 . S
C193 C194 1.378 . S
C194 C193 1.378 . S
C194 C195 1.378 . S
C194 H206 0.952 . S
C195 C194 1.378 . S
C195 H207 0.950 . S
C195 C226 1.383 . S
H196 C215 0.947 . S
H197 C216 0.946 . S
H198 C218 0.953 . S
H199 C219 0.945 . S
H200 C221 0.952 1_556 S
H201 C222 0.949 . S
H202 C224 0.950 . S
H203 C225 0.943 1_556 S
H204 C227 0.951 . S
H205 C192 0.947 . S
H206 C194 0.952 . S
H207 C195 0.950 . S
N208 C211 1.382 . S
N208 C213 1.363 . S
N209 C211 1.371 . S
N209 C212 1.372 . S
N210 C212 1.361 . S
N210 C213 1.377 . S
C211 N208 1.382 . S
C211 N209 1.371 . S
C211 C214 1.480 . S
C212 N209 1.372 . S
C212 N210 1.361 . S
C212 C220 1.457 . S
C213 N208 1.363 . S
C213 N210 1.377 . S
C213 C226 1.479 1_455 S
C214 C211 1.480 . S
C214 C215 1.383 . S
C214 C219 1.385 . S
C215 H196 0.947 . S
C215 C214 1.383 . S
C215 C216 1.388 . S
C216 H197 0.946 . S
C216 C215 1.388 . S
C216 C217 1.384 . S
C217 C216 1.384 . S
C217 C218 1.377 . S
C218 H198 0.953 . S
C218 C217 1.377 . S
C218 C219 1.369 . S
C219 H199 0.945 . S
C219 C214 1.385 . S
C219 C218 1.369 . S
C220 C212 1.457 . S
C220 C221 1.372 1_556 S
C220 C225 1.360 1_456 S
C221 H200 0.952 1_554 S
C221 C220 1.372 1_554 S
C221 C222 1.389 . S
C222 H201 0.949 . S
C222 C221 1.389 . S
C222 C223 1.387 . S
C223 C222 1.387 . S
C223 C224 1.372 1_455 S
C224 H202 0.950 . S
C224 C223 1.372 1_655 S
C224 C225 1.388 . S
C225 H203 0.943 1_554 S
C225 C220 1.360 1_654 S
C225 C224 1.388 . S
C226 C195 1.383 . S
C226 C213 1.479 1_655 S
C226 C227 1.398 . S
C227 C192 1.382 . S
C227 H204 0.951 . S
C227 C226 1.398 . S
C228 C229 1.384 . S
C228 H241 0.947 . S
C228 C263 1.382 . S
C229 C228 1.384 . S
C229 C230 1.378 . S
C230 C229 1.378 . S
C230 C231 1.378 . S
C230 H242 0.952 . S
C231 C230 1.378 . S
C231 H243 0.950 . S
C231 C262 1.383 . S
H232 C251 0.947 . S
H233 C252 0.946 . S
H234 C254 0.953 . S
H235 C255 0.945 . S
H236 C257 0.952 . S
H237 C258 0.949 . S
H238 C260 0.950 . S
H239 C261 0.948 . S
H240 C263 0.951 . S
H241 C228 0.947 . S
H242 C230 0.952 . S
H243 C231 0.950 . S
N244 C247 1.382 1_455 S
N244 C249 1.363 . S
N245 C247 1.371 . S
N245 C248 1.372 1_655 S
N246 C248 1.361 . S
N246 C249 1.377 . S
C247 N244 1.382 1_655 S
C247 N245 1.371 . S
C247 C250 1.480 . S
C248 N245 1.372 1_455 S
C248 N246 1.361 . S
C248 C256 1.457 . S
C249 N244 1.363 . S
C249 N246 1.377 . S
C249 C262 1.479 . S
C250 C247 1.480 . S
C250 C251 1.383 . S
C250 C255 1.385 . S
C251 H232 0.947 . S
C251 C250 1.383 . S
C251 C252 1.388 . S
C252 H233 0.946 . S
C252 C251 1.388 . S
C252 C253 1.384 . S
C253 C252 1.384 . S
C253 C254 1.377 . S
C254 H234 0.953 . S
C254 C253 1.377 . S
C254 C255 1.369 . S
C255 H235 0.945 . S
C255 C250 1.385 . S
C255 C254 1.369 . S
C256 C248 1.457 . S
C256 C257 1.372 1_455 S
C256 C261 1.364 . S
C257 H236 0.952 . S
C257 C256 1.372 1_655 S
C257 C258 1.389 . S
C258 H237 0.949 . S
C258 C257 1.389 . S
C258 C259 1.387 1_655 S
C259 C258 1.387 1_455 S
C259 C260 1.372 . S
C260 H238 0.950 . S
C260 C259 1.372 . S
C260 C261 1.379 . S
C261 H239 0.948 . S
C261 C256 1.364 . S
C261 C260 1.379 . S
C262 C231 1.383 . S
C262 C249 1.479 . S
C262 C263 1.398 . S
C263 C228 1.382 . S
C263 H240 0.951 . S
C263 C262 1.398 . S
C264 C265 1.384 . S
C264 H277 0.947 . S
C264 C299 1.382 . S
C265 C264 1.384 . S
C265 C266 1.378 . S
C266 C265 1.378 . S
C266 C267 1.378 . S
C266 H278 0.952 . S
C267 C266 1.378 . S
C267 H279 0.950 . S
C267 C298 1.383 . S
H268 C287 0.947 . S
H269 C288 0.946 . S
H270 C290 0.953 . S
H271 C291 0.945 . S
H272 C293 0.952 . S
H273 C294 0.949 . S
H274 C296 0.950 . S
H275 C297 0.948 . S
H276 C299 0.951 . S
H277 C264 0.947 . S
H278 C266 0.952 . S
H279 C267 0.950 . S
N280 C283 1.382 1_545 S
N280 C285 1.363 . S
N281 C283 1.371 . S
N281 C284 1.372 1_565 S
N282 C284 1.361 . S
N282 C285 1.377 . S
C283 N280 1.382 1_565 S
C283 N281 1.371 . S
C283 C286 1.480 . S
C284 N281 1.372 1_545 S
C284 N282 1.361 . S
C284 C292 1.457 . S
C285 N280 1.363 . S
C285 N282 1.377 . S
C285 C298 1.479 . S
C286 C283 1.480 . S
C286 C287 1.383 . S
C286 C291 1.385 . S
C287 H268 0.947 . S
C287 C286 1.383 . S
C287 C288 1.388 . S
C288 H269 0.946 . S
C288 C287 1.388 . S
C288 C289 1.384 . S
C289 C288 1.384 . S
C289 C290 1.377 . S
C290 H270 0.953 . S
C290 C289 1.377 . S
C290 C291 1.369 . S
C291 H271 0.945 . S
C291 C286 1.385 . S
C291 C290 1.369 . S
C292 C284 1.457 . S
C292 C293 1.372 1_545 S
C292 C297 1.364 . S
C293 H272 0.952 . S
C293 C292 1.372 1_565 S
C293 C294 1.389 . S
C294 H273 0.949 . S
C294 C293 1.389 . S
C294 C295 1.387 . S
C295 C294 1.387 . S
C295 C296 1.372 1_565 S
C296 H274 0.950 . S
C296 C295 1.372 1_545 S
C296 C297 1.379 . S
C297 H275 0.948 . S
C297 C292 1.364 . S
C297 C296 1.379 . S
C298 C267 1.383 . S
C298 C285 1.479 . S
C298 C299 1.398 . S
C299 C264 1.382 . S
C299 H276 0.951 . S
C299 C298 1.398 . S
C300 C301 1.384 . S
C300 H313 0.947 . S
C300 C335 1.382 . S
C301 C300 1.384 . S
C301 C302 1.378 . S
C302 C301 1.378 . S
C302 C303 1.378 . S
C302 H314 0.952 . S
C303 C302 1.378 . S
C303 H315 0.950 . S
C303 C334 1.383 . S
H304 C323 0.947 . S
H305 C324 0.946 . S
H306 C326 0.953 . S
H307 C327 0.945 . S
H308 C329 0.952 . S
H309 C330 0.949 . S
H310 C332 0.950 . S
H311 C333 0.948 . S
H312 C335 0.951 . S
H313 C300 0.947 . S
H314 C302 0.952 . S
H315 C303 0.950 . S
N316 C319 1.382 . S
N316 C321 1.363 . S
N317 C319 1.371 . S
N317 C320 1.372 . S
N318 C320 1.361 . S
N318 C321 1.377 . S
C319 N316 1.382 . S
C319 N317 1.371 . S
C319 C322 1.480 . S
C320 N317 1.372 . S
C320 N318 1.361 . S
C320 C328 1.457 1_554 S
C321 N316 1.363 . S
C321 N318 1.377 . S
C321 C334 1.479 . S
C322 C319 1.480 . S
C322 C323 1.383 . S
C322 C327 1.385 . S
C323 H304 0.947 . S
C323 C322 1.383 . S
C323 C324 1.388 . S
C324 H305 0.946 . S
C324 C323 1.388 . S
C324 C325 1.384 . S
C325 C324 1.384 . S
C325 C326 1.377 . S
C326 H306 0.953 . S
C326 C325 1.377 . S
C326 C327 1.369 . S
C327 H307 0.945 . S
C327 C322 1.385 . S
C327 C326 1.369 . S
C328 C320 1.457 1_556 S
C328 C329 1.372 . S
C328 C333 1.364 . S
C329 H308 0.952 . S
C329 C328 1.372 . S
C329 C330 1.389 . S
C330 H309 0.949 . S
C330 C329 1.389 . S
C330 C331 1.387 . S
C331 C330 1.387 . S
C331 C332 1.372 . S
C332 H310 0.950 . S
C332 C331 1.372 . S
C332 C333 1.379 . S
C333 H311 0.948 . S
C333 C328 1.364 . S
C333 C332 1.379 . S
C334 C303 1.383 . S
C334 C321 1.479 . S
C334 C335 1.398 . S
C335 C300 1.382 . S
C335 H312 0.951 . S
C335 C334 1.398 . S
C7 C325 3.471 . S
C51 C253 2.749 . S
C87 C289 2.463 . S
C16 C301 1.764 . S
C229 C42 3.252 . S
C265 C96 1.577 . S
C47 C181 1.823 . S
C91 C193 5.042 . S
C2 C121 3.388 . S
C157 C56 1.783 . S
C217 C82 4.884 . S
C11 C145 2.820 . S
C223 C19 2.041 . S
C50 C151 1.141 . S
C99 C187 1.474 . S
C295 C59 1.432 1_565 S
C331 C90 1.729 . S
C10 C259 1.112 . S
