# Generated by pormake.
# Topology pto, (3,4)-cn, num edge types: 1
# Building blocks:
#     Node 0, Type 0, BuildingBlock: BETDAH_clean_linker_0, # of connection points: 3
#     Node 1, Type 0, BuildingBlock: BETDAH_clean_linker_0, # of connection points: 3
#     Node 2, Type 0, BuildingBlock: BETDAH_clean_linker_0, # of connection points: 3
#     Node 3, Type 0, BuildingBlock: BETDAH_clean_linker_0, # of connection points: 3
#     Node 4, Type 0, BuildingBlock: BETDAH_clean_linker_0, # of connection points: 3
#     Node 5, Type 0, BuildingBlock: BETDAH_clean_linker_0, # of connection points: 3
#     Node 6, Type 0, BuildingBlock: BETDAH_clean_linker_0, # of connection points: 3
#     Node 7, Type 0, BuildingBlock: BETDAH_clean_linker_0, # of connection points: 3
#     Node 8, Type 1, BuildingBlock: NAWXER_clean_sbu_0, # of connection points: 4
#     Node 9, Type 1, BuildingBlock: NAWXER_clean_sbu_0, # of connection points: 4
#     Node 10, Type 1, BuildingBlock: NAWXER_clean_sbu_0, # of connection points: 4
#     Node 11, Type 1, BuildingBlock: NAWXER_clean_sbu_0, # of connection points: 4
#     Node 12, Type 1, BuildingBlock: NAWXER_clean_sbu_0, # of connection points: 4
#     Node 13, Type 1, BuildingBlock: NAWXER_clean_sbu_0, # of connection points: 4
#     Edge 14, Type (0, 1), BuildingBlock: UVAHIK_clean_linker_0, # of connection points: 2
#     Edge 15, Type (0, 1), BuildingBlock: UVAHIK_clean_linker_0, # of connection points: 2
#     Edge 16, Type (0, 1), BuildingBlock: UVAHIK_clean_linker_0, # of connection points: 2
#     Edge 17, Type (0, 1), BuildingBlock: UVAHIK_clean_linker_0, # of connection points: 2
#     Edge 18, Type (0, 1), BuildingBlock: UVAHIK_clean_linker_0, # of connection points: 2
#     Edge 19, Type (0, 1), BuildingBlock: UVAHIK_clean_linker_0, # of connection points: 2
#     Edge 20, Type (0, 1), BuildingBlock: UVAHIK_clean_linker_0, # of connection points: 2
#     Edge 21, Type (0, 1), BuildingBlock: UVAHIK_clean_linker_0, # of connection points: 2
#     Edge 22, Type (0, 1), BuildingBlock: UVAHIK_clean_linker_0, # of connection points: 2
#     Edge 23, Type (0, 1), BuildingBlock: UVAHIK_clean_linker_0, # of connection points: 2
#     Edge 24, Type (0, 1), BuildingBlock: UVAHIK_clean_linker_0, # of connection points: 2
#     Edge 25, Type (0, 1), BuildingBlock: UVAHIK_clean_linker_0, # of connection points: 2
#     Edge 26, Type (0, 1), BuildingBlock: UVAHIK_clean_linker_0, # of connection points: 2
#     Edge 27, Type (0, 1), BuildingBlock: UVAHIK_clean_linker_0, # of connection points: 2
#     Edge 28, Type (0, 1), BuildingBlock: UVAHIK_clean_linker_0, # of connection points: 2
#     Edge 29, Type (0, 1), BuildingBlock: UVAHIK_clean_linker_0, # of connection points: 2
#     Edge 30, Type (0, 1), BuildingBlock: UVAHIK_clean_linker_0, # of connection points: 2
#     Edge 31, Type (0, 1), BuildingBlock: UVAHIK_clean_linker_0, # of connection points: 2
#     Edge 32, Type (0, 1), BuildingBlock: UVAHIK_clean_linker_0, # of connection points: 2
#     Edge 33, Type (0, 1), BuildingBlock: UVAHIK_clean_linker_0, # of connection points: 2
#     Edge 34, Type (0, 1), BuildingBlock: UVAHIK_clean_linker_0, # of connection points: 2
#     Edge 35, Type (0, 1), BuildingBlock: UVAHIK_clean_linker_0, # of connection points: 2
#     Edge 36, Type (0, 1), BuildingBlock: UVAHIK_clean_linker_0, # of connection points: 2
#     Edge 37, Type (0, 1), BuildingBlock: UVAHIK_clean_linker_0, # of connection points: 2
# Relax obj value: 0.010
# Max RMSD: 0.138
# Mean RMSD: 0.058
data_MOF--net-pto--node1-NAWXER_clean_sbu_0--node2-BETDAH_clean_linker_0--edge1-UVAHIK_clean_linker_0
_symmetry_space_group_name_H-M    P1
_symmetry_Int_Tables_number       1
_symmetry_cell_setting            triclinic
loop_
_symmetry_equiv_pos_as_xyz
'x, y, z'
_cell_length_a     55.90109
_cell_length_b     51.222421
_cell_length_c     49.514054
_cell_angle_alpha  108.91656
_cell_angle_beta   95.589019
_cell_angle_gamma 99.125065
loop_
_atom_site_label
_atom_site_type_symbol
_atom_site_fract_x
_atom_site_fract_y
_atom_site_fract_z
_atom_type_partial_charge
H0 H 0.31173 0.23517 0.43704 0.0
H1 H 0.27235 0.29714 0.42462 0.0
H2 H 0.24592 0.24684 0.474 0.0
C3 C 0.29647 0.24582 0.44075 0.0
C4 C 0.27935 0.23838 0.45736 0.0
C5 C 0.29395 0.2667 0.42851 0.0
C6 C 0.27428 0.28082 0.43367 0.0
C7 C 0.25726 0.27386 0.45062 0.0
C8 C 0.25972 0.25251 0.46186 0.0
N9 N 0.23724 0.28752 0.45687 0.0
C10 C 0.23277 0.31028 0.44918 0.0
H11 H 0.29103 0.70091 0.86845 0.0
H12 H 0.31229 0.76102 0.82689 0.0
H13 H 0.23998 0.74947 0.84959 0.0
C14 C 0.28655 0.71626 0.85903 0.0
C15 C 0.26332 0.72323 0.86008 0.0
C16 C 0.30443 0.72986 0.84729 0.0
C17 C 0.29864 0.75045 0.836 0.0
C18 C 0.27526 0.75743 0.83677 0.0
C19 C 0.25793 0.744 0.84909 0.0
N20 N 0.26843 0.77802 0.82577 0.0
C21 C 0.28179 0.79033 0.80924 0.0
H22 H 0.82073 0.71662 0.39885 0.0
H23 H 0.753 0.7046 0.34251 0.0
H24 H 0.79708 0.64158 0.32368 0.0
C25 C 0.80741 0.70384 0.3799 0.0
C26 C 0.81188 0.67817 0.36186 0.0
C27 C 0.78615 0.71353 0.3732 0.0
C28 C 0.76951 0.69748 0.34777 0.0
C29 C 0.77358 0.67148 0.32998 0.0
C30 C 0.79443 0.66189 0.33738 0.0
N31 N 0.75676 0.65388 0.30497 0.0
C32 C 0.74132 0.66355 0.28836 0.0
H33 H 0.79537 0.27794 0.93287 0.0
H34 H 0.74052 0.24312 0.9736 0.0
H35 H 0.7955 0.31618 0.02419 0.0
C36 C 0.78714 0.27901 0.95204 0.0
C37 C 0.79785 0.30009 0.9786 0.0
C38 C 0.7665 0.25848 0.94999 0.0
C39 C 0.75635 0.25901 0.97499 0.0
C40 C 0.76693 0.27992 0.0018 0.0
C41 C 0.78771 0.30006 0.00346 0.0
N42 N 0.75746 0.28111 0.02763 0.0
C43 C 0.7331 0.27097 0.02857 0.0
H44 H 0.81091 0.70109 0.87184 0.0
H45 H 0.86259 0.72133 0.81925 0.0
H46 H 0.80463 0.76725 0.8371 0.0
C47 C 0.81745 0.71362 0.85912 0.0
C48 C 0.8051 0.73468 0.85601 0.0
C49 C 0.83814 0.70851 0.84582 0.0
C50 C 0.84649 0.7248 0.82941 0.0
C51 C 0.83478 0.74609 0.82639 0.0
C52 C 0.81405 0.75112 0.83977 0.0
N53 N 0.84453 0.76166 0.80951 0.0
C54 C 0.83653 0.78468 0.80554 0.0
H55 H 0.77854 0.31835 0.39383 0.0
H56 H 0.81159 0.28756 0.45679 0.0
H57 H 0.73412 0.28544 0.44613 0.0
C58 C 0.77687 0.30875 0.41028 0.0
C59 C 0.75366 0.30183 0.41765 0.0
C60 C 0.79798 0.30388 0.42433 0.0
C61 C 0.79554 0.29135 0.44569 0.0
C62 C 0.7724 0.28462 0.45338 0.0
C63 C 0.75176 0.29019 0.43958 0.0
N64 N 0.76929 0.27382 0.47608 0.0
C65 C 0.78252 0.25522 0.48254 0.0
H66 H 0.34436 0.27998 0.9109 0.0
H67 H 0.30935 0.35162 0.92793 0.0
H68 H 0.31455 0.30303 0.8406 0.0
C69 C 0.33441 0.29339 0.90321 0.0
C70 C 0.32984 0.28837 0.87343 0.0
C71 C 0.32749 0.3164 0.92316 0.0
C72 C 0.31487 0.33385 0.91285 0.0
C73 C 0.31008 0.32882 0.88299 0.0
C74 C 0.31813 0.3066 0.86356 0.0
N75 N 0.29828 0.34658 0.87192 0.0
C76 C 0.27705 0.35524 0.88058 0.0
H77 H 0.27022 0.72787 0.31318 0.0
H78 H 0.32602 0.74644 0.26458 0.0
H79 H 0.26898 0.67229 0.22635 0.0
C80 C 0.27782 0.72252 0.29323 0.0
C81 C 0.26669 0.69784 0.27004 0.0
C82 C 0.29898 0.74031 0.29134 0.0
C83 C 0.30976 0.73273 0.26616 0.0
C84 C 0.29892 0.70801 0.24273 0.0
C85 C 0.27741 0.69092 0.24476 0.0
N86 N 0.30873 0.69986 0.21653 0.0
C87 C 0.33131 0.71259 0.2124 0.0
C88 C 0.0089 0.4627 0.36566 0.0
C89 C 0.06791 0.52734 0.33839 0.0
O90 O 0.02111 0.48359 0.38734 0.0
Zn91 Zn 0.04902 0.52038 0.39568 0.0
O92 O 0.01295 0.46069 0.3403 0.0
Zn93 Zn 0.03833 0.49457 0.35117 0.0
O94 O 0.06798 0.48442 0.37379 0.0
O95 O 0.07573 0.5135 0.41902 0.0
O96 O 0.05395 0.50455 0.32164 0.0
O97 O 0.06751 0.53526 0.3657 0.0
O98 O 0.03197 0.55038 0.41295 0.0
O99 O 0.01818 0.52731 0.36655 0.0
C100 C 0.0806 0.49297 0.39918 0.0
C101 C 0.01729 0.5469 0.3902 0.0
C102 C 0.00475 0.48882 0.94943 0.0
C103 C 0.0709 0.55628 0.93632 0.0
O104 O 0.01914 0.50931 0.96915 0.0
Zn105 Zn 0.0379 0.52325 0.94378 0.0
O106 O 0.0073 0.48406 0.92292 0.0
Zn107 Zn 0.03028 0.50125 0.89828 0.0
O108 O 0.04686 0.47116 0.88069 0.0
O109 O 0.05913 0.49134 0.92774 0.0
O110 O 0.06006 0.53687 0.91268 0.0
O111 O 0.06347 0.55716 0.96002 0.0
O112 O 0.01098 0.537 0.92033 0.0
O113 O 0.00717 0.51182 0.87403 0.0
C114 C 0.06087 0.4732 0.90342 0.0
C115 C 1.00099 0.5311 0.89404 0.0
C116 C 0.31826 0.96004 0.63323 0.0
C117 C 0.30921 0.02556 0.58207 0.0
O118 O 0.29877 0.96635 0.62395 0.0
Zn119 Zn 0.3136 0.99277 0.60745 0.0
O120 O 0.33905 0.97142 0.62892 0.0
Zn121 Zn 0.35208 0.00105 0.6083 0.0
O122 O 0.37299 0.03227 0.63961 0.0
O123 O 0.33386 0.0268 0.64444 0.0
O124 O 0.33158 0.02316 0.58697 0.0
O125 O 0.29255 0.01183 0.59077 0.0
O126 O 0.3263 0.96685 0.57033 0.0
O127 O 0.3667 0.97876 0.57708 0.0
C128 C 0.35614 0.03996 0.65397 0.0
C129 C 0.34677 0.9636 0.56134 0.0
C130 C 0.58624 0.70087 0.06068 0.0
C131 C 0.52706 0.70495 0.98337 0.0
O132 O 0.57305 0.68018 0.03997 0.0
Zn133 Zn 0.55714 0.70208 0.0212 0.0
O134 O 0.58529 0.72611 0.062 0.0
Zn135 Zn 0.56627 0.74707 0.03808 0.0
O136 O 0.54824 0.76806 0.06665 0.0
O137 O 0.53634 0.72189 0.05328 0.0
O138 O 0.53852 0.72933 1.00052 0.0
O139 O 0.53212 0.68302 0.9874 0.0
O140 O 0.58647 0.72059 0.00431 0.0
O141 O 0.59277 0.76677 0.02474 0.0
C142 C 0.53454 0.74673 0.06885 0.0
C143 C 0.59838 0.74514 0.00723 0.0
C144 C 0.80554 0.98863 0.67135 0.0
C145 C 0.80407 0.05228 0.61611 0.0
O146 O 0.78375 0.98872 0.66056 0.0
Zn147 Zn 0.76632 0.00933 0.63494 0.0
O148 O 0.82372 0.00442 0.6672 0.0
Zn149 Zn 0.80519 0.02083 0.64412 0.0
O150 O 0.78641 0.04606 0.67522 0.0
O151 O 0.74661 0.03009 0.66098 0.0
O152 O 0.82265 0.0481 0.62985 0.0
O153 O 0.78254 0.03921 0.61633 0.0
O154 O 0.74998 0.97764 0.60125 0.0
O155 O 0.79037 0.98516 0.60528 0.0
C156 C 0.76428 0.04748 0.67932 0.0
C157 C 0.76919 0.97081 0.59154 0.0
C158 C 0.53819 0.32037 0.2473 0.0
C159 C 0.4732 0.3234 0.17538 0.0
O160 O 0.52501 0.296 0.23263 0.0
Zn161 Zn 0.49432 0.278 0.19818 0.0
O162 O 0.53335 0.34195 0.24229 0.0
Zn163 Zn 0.50561 0.32245 0.21175 0.0
O164 O 0.47827 0.30761 0.23415 0.0
O165 O 0.46989 0.26118 0.21585 0.0
O166 O 0.48886 0.34401 0.1933 0.0
O167 O 0.47348 0.29834 0.1752 0.0
O168 O 0.50861 0.25358 0.16816 0.0
O169 O 0.52306 0.29883 0.17772 0.0
C170 C 0.46622 0.28388 0.23361 0.0
C171 C 0.52277 0.27295 0.16323 0.0
C172 C 0.22085 0.35618 0.46668 0.0
C173 C 0.22442 0.33346 0.44354 0.0
C174 C 0.20893 0.37651 0.46149 0.0
C175 C 0.16349 0.38269 0.40645 0.0
H176 H 0.17855 0.46214 0.45313 0.0
C177 C 0.10762 0.45881 0.38139 0.0
C178 C 0.10037 0.47837 0.40477 0.0
C179 C 0.12513 0.44352 0.38608 0.0
C180 C 0.17402 0.43997 0.44008 0.0
H181 H 0.21951 0.31424 0.39702 0.0
H182 H 0.19898 0.35006 0.3877 0.0
H183 H 0.20598 0.43149 0.4607 0.0
H184 H 0.10645 0.49785 0.45146 0.0
H185 H 0.13694 0.47064 0.45974 0.0
H186 H 0.13141 0.39085 0.38618 0.0
C187 C 0.20506 0.35213 0.40988 0.0
C188 C 0.18975 0.42243 0.44435 0.0
C189 C 0.21697 0.33179 0.41512 0.0
C190 C 0.11163 0.48291 0.43301 0.0
C191 C 0.12916 0.46742 0.43772 0.0
C192 C 0.14782 0.40015 0.40221 0.0
C193 C 0.2003 0.3743 0.43303 0.0
C194 C 0.18462 0.39356 0.4276 0.0
C195 C 0.13578 0.4472 0.41428 0.0
C196 C 0.15285 0.42899 0.41895 0.0
H197 H 0.2263 0.35756 0.48879 0.0
H198 H 0.20536 0.39309 0.4798 0.0
H199 H 0.15863 0.36046 0.39366 0.0
H200 H 0.09961 0.45505 0.35931 0.0
H201 H 0.13019 0.4286 0.36751 0.0
C202 C 0.23139 0.72412 0.89259 0.0
C203 C 0.24478 0.70875 0.87273 0.0
C204 C 0.21421 0.71032 0.90477 0.0
C205 C 0.19533 0.64163 0.9154 0.0
H206 H 0.13289 0.66472 0.92429 0.0
C207 C 0.10698 0.56746 0.91362 0.0
C208 C 0.09268 0.57626 0.93541 0.0
C209 C 0.12719 0.58596 0.91143 0.0
C210 C 0.15043 0.65839 0.92241 0.0
H211 H 0.25031 0.66692 0.84952 0.0
H212 H 0.22001 0.64276 0.87001 0.0
H213 H 0.16499 0.69269 0.90915 0.0
H214 H 0.08834 0.61129 0.97213 0.0
H215 H 0.12364 0.64432 0.96762 0.0
H216 H 0.18013 0.60644 0.92705 0.0
C217 C 0.22322 0.66553 0.87701 0.0
C218 C 0.16884 0.67437 0.91374 0.0
C219 C 0.24051 0.67933 0.8651 0.0
C220 C 0.09913 0.604 0.9552 0.0
C221 C 0.11918 0.62284 0.95258 0.0
C222 C 0.17685 0.62552 0.92367 0.0
C223 C 0.20993 0.68082 0.89714 0.0
C224 C 0.19131 0.66577 0.90941 0.0
C225 C 0.13336 0.61386 0.93065 0.0
C226 C 0.15406 0.6334 0.92661 0.0
H227 H 0.23451 0.74687 0.89908 0.0
H228 H 0.20452 0.72281 0.9204 0.0
H229 H 0.21261 0.63477 0.91309 0.0
H230 H 0.10255 0.54614 0.89818 0.0
H231 H 0.13769 0.57861 0.89419 0.0
C232 C 0.84434 0.67078 0.39633 0.0
C233 C 0.83474 0.66825 0.36802 0.0
C234 C 0.86505 0.65977 0.40145 0.0
C235 C 0.89721 0.60489 0.36422 0.0
H236 H 0.95299 0.64506 0.42453 0.0
C237 C 0.98614 0.56385 0.36422 0.0
C238 C 0.99854 0.5644 0.39053 0.0
C239 C 0.967 0.5782 0.36377 0.0
C240 C 0.93741 0.63345 0.40784 0.0
H241 H 0.84034 0.65371 0.32324 0.0
H242 H 0.87603 0.63425 0.33211 0.0
H243 H 0.91772 0.66721 0.41985 0.0
H244 H 1.00112 0.58134 0.43716 0.0
H245 H 0.96718 0.60625 0.43636 0.0
H246 H 0.91644 0.57111 0.35219 0.0
C247 C 0.86732 0.64427 0.35026 0.0
C248 C 0.91726 0.64615 0.40515 0.0
C249 C 0.84681 0.65536 0.34518 0.0
C250 C 0.9919 0.58052 0.41653 0.0
C251 C 0.97251 0.59482 0.41607 0.0
C252 C 0.91715 0.5922 0.36699 0.0
C253 C 0.87643 0.64591 0.37834 0.0
C254 C 0.89718 0.63216 0.38292 0.0
C255 C 0.95953 0.59332 0.3896 0.0
C256 C 0.93774 0.60651 0.38841 0.0
H257 H 0.83541 0.68048 0.41439 0.0
H258 H 0.87166 0.66126 0.4233 0.0
H259 H 0.88175 0.59332 0.34731 0.0
H260 H 0.99101 0.552 0.34379 0.0
H261 H 0.95789 0.57722 0.34303 0.0
C262 C 0.83895 0.33165 0.00361 0.0
C263 C 0.81961 0.32179 0.98003 0.0
C264 C 0.85997 0.35074 0.00376 0.0
C265 C 0.89639 0.36998 0.95412 0.0
H266 H 0.9219 0.44247 0.01444 0.0
C267 C 0.96568 0.45318 0.93397 0.0
C268 C 0.98464 0.47063 0.95625 0.0
C269 C 0.94671 0.43543 0.9395 0.0
C270 C 0.91529 0.42209 0.99766 0.0
H271 H 0.80676 0.32578 0.93898 0.0
H272 H 0.84368 0.35805 0.93886 0.0
H273 H 0.8864 0.41076 0.01994 0.0
H274 H 0.99837 0.48342 0.00205 0.0
H275 H 0.9653 0.45163 0.01169 0.0
H276 H 0.92514 0.38064 0.9319 0.0
C277 C 0.84259 0.35084 0.95708 0.0
C278 C 0.89494 0.40404 1.00079 0.0
C279 C 0.82152 0.33219 0.95711 0.0
C280 C 0.98401 0.47018 0.98442 0.0
C281 C 0.96502 0.45206 0.98994 0.0
C282 C 0.91683 0.38772 0.95117 0.0
C283 C 0.86213 0.35999 0.98018 0.0
C284 C 0.88499 0.37815 0.97868 0.0
C285 C 0.94626 0.43425 0.96742 0.0
C286 C 0.92615 0.41436 0.97248 0.0
H287 H 0.83824 0.32398 0.02154 0.0
H288 H 0.87487 0.35749 0.02178 0.0
H289 H 0.88932 0.34988 0.93701 0.0
H290 H 0.96534 0.4533 0.91209 0.0
H291 H 0.93224 0.42273 0.92176 0.0
C292 C 0.27438 0.21755 0.49663 0.0
C293 C 0.28169 0.21578 0.46979 0.0
C294 C 0.27577 0.19603 0.5079 0.0
C295 C 0.28394 0.12127 0.48709 0.0
H296 H 0.29739 0.13999 0.57024 0.0
C297 C 0.31806 0.05045 0.54732 0.0
C298 C 0.30328 0.04481 0.56696 0.0
C299 C 0.31349 0.06988 0.53414 0.0
C300 C 0.29342 0.13452 0.54699 0.0
H301 H 0.29638 0.18958 0.43392 0.0
H302 H 0.30051 0.15325 0.45448 0.0
H303 H 0.29462 0.17729 0.55032 0.0
H304 H 0.2721 0.05487 0.58816 0.0
H305 H 0.26468 0.08981 0.56579 0.0
H306 H 0.28424 0.07857 0.48414 0.0
C307 C 0.2928 0.1708 0.46642 0.0
C308 C 0.29168 0.15583 0.53548 0.0
C309 C 0.29089 0.19204 0.45483 0.0
C310 C 0.28367 0.05874 0.57297 0.0
C311 C 0.27948 0.07873 0.56033 0.0
C312 C 0.28627 0.10009 0.49864 0.0
C313 C 0.2851 0.17236 0.49304 0.0
C314 C 0.28687 0.14954 0.50533 0.0
C315 C 0.29443 0.08448 0.54091 0.0
C316 C 0.29097 0.10657 0.52866 0.0
H317 H 0.26761 0.23566 0.50915 0.0
H318 H 0.26926 0.19795 0.5282 0.0
H319 H 0.27968 0.11536 0.46384 0.0
H320 H 0.33325 0.03992 0.54224 0.0
H321 H 0.32529 0.07413 0.51931 0.0
C322 C 0.35023 0.74546 0.85962 0.0
C323 C 0.32945 0.72352 0.84885 0.0
C324 C 0.37333 0.7397 0.86604 0.0
C325 C 0.3996 0.68742 0.88841 0.0
H326 H 0.46137 0.73076 0.88329 0.0
C327 C 0.49164 0.67708 0.9437 0.0
C328 C 0.50727 0.70295 0.96014 0.0
C329 C 0.47159 0.67608 0.9238 0.0
C330 C 0.44426 0.71848 0.8849 0.0
H331 H 0.3169 0.67819 0.83398 0.0
H332 H 0.35722 0.66813 0.84503 0.0
H333 H 0.42304 0.73563 0.85896 0.0
H334 H 0.5147 0.74784 0.96754 0.0
H335 H 0.47982 0.74612 0.93338 0.0
H336 H 0.4206 0.67109 0.91524 0.0
C337 C 0.3556 0.68982 0.84914 0.0
C338 C 0.42232 0.72128 0.87095 0.0
C339 C 0.33253 0.69558 0.84275 0.0
C340 C 0.503 0.72754 0.95536 0.0
C341 C 0.48307 0.72653 0.93551 0.0
C342 C 0.42151 0.68468 0.9024 0.0
C343 C 0.37612 0.71188 0.86176 0.0
C344 C 0.39968 0.70627 0.87311 0.0
C345 C 0.46683 0.70089 0.91985 0.0
C346 C 0.44406 0.70071 0.90144 0.0
H347 H 0.34841 0.76721 0.86475 0.0
H348 H 0.38871 0.75723 0.87595 0.0
H349 H 0.38248 0.67582 0.89089 0.0
H350 H 0.49447 0.65774 0.94678 0.0
H351 H 0.45958 0.65593 0.91184 0.0
C352 C 0.7843 0.74538 0.42313 0.0
C353 C 0.78119 0.74008 0.3932 0.0
C354 C 0.77993 0.77038 0.44218 0.0
C355 C 0.75641 0.81805 0.47571 0.0
H356 H 0.78573 0.88866 0.46804 0.0
C357 C 0.74542 0.92593 0.55363 0.0
C358 C 0.76749 0.94585 0.56526 0.0
C359 C 0.74456 0.90131 0.53017 0.0
C360 C 0.77737 0.8691 0.47039 0.0
H361 H 0.77099 0.7568 0.35973 0.0
H362 H 0.76348 0.80076 0.39316 0.0
H363 H 0.78883 0.84408 0.43194 0.0
H364 H 0.80574 0.95601 0.56068 0.0
H365 H 0.80416 0.91329 0.5198 0.0
H366 H 0.74548 0.84303 0.51453 0.0
C367 C 0.7693 0.78548 0.40181 0.0
C368 C 0.77897 0.84359 0.44961 0.0
C369 C 0.77344 0.76028 0.38269 0.0
C370 C 0.78844 0.94107 0.55232 0.0
C371 C 0.78752 0.91666 0.52875 0.0
C372 C 0.75461 0.84354 0.49633 0.0
C373 C 0.77252 0.79079 0.43177 0.0
C374 C 0.7689 0.8178 0.45234 0.0
C375 C 0.76568 0.8963 0.51766 0.0
C376 C 0.76546 0.86935 0.49419 0.0
H377 H 0.79001 0.73008 0.43185 0.0
H378 H 0.78283 0.77398 0.46516 0.0
H379 H 0.74826 0.7985 0.47822 0.0
H380 H 0.72896 0.92898 0.5631 0.0
H381 H 0.72742 0.88609 0.52194 0.0
C382 C 0.69943 0.23889 0.0376 0.0
C383 C 0.70814 0.26408 0.03307 0.0
C384 C 0.6762 0.23405 0.04552 0.0
C385 C 0.61784 0.26099 0.05107 0.0
H386 H 0.61471 0.23267 0.11467 0.0
C387 C 0.55073 0.28719 0.13186 0.0
C388 C 0.53967 0.26622 0.14186 0.0
C389 C 0.56823 0.28198 0.11357 0.0
C390 C 0.61511 0.24012 0.09655 0.0
H391 H 0.69986 0.30372 0.03254 0.0
H392 H 0.65951 0.29567 0.04671 0.0
H393 H 0.65116 0.23237 0.09135 0.0
H394 H 0.5379 0.22304 0.13993 0.0
H395 H 0.56892 0.21404 0.10814 0.0
H396 H 0.58221 0.26993 0.05727 0.0
C397 C 0.67011 0.27927 0.04365 0.0
C398 C 0.636 0.23992 0.08312 0.0
C399 C 0.69325 0.28401 0.03568 0.0
C400 C 0.54606 0.23961 0.13254 0.0
C401 C 0.56389 0.2345 0.11448 0.0
C402 C 0.59705 0.26137 0.06464 0.0
C403 C 0.66142 0.25444 0.04917 0.0
C404 C 0.6379 0.25102 0.06069 0.0
C405 C 0.57531 0.25575 0.10505 0.0
C406 C 0.59571 0.25158 0.08799 0.0
H407 H 0.71082 0.22334 0.03578 0.0
H408 H 0.66999 0.21458 0.04927 0.0
H409 H 0.61843 0.26913 0.03345 0.0
H410 H 0.54616 0.30789 0.13856 0.0
H411 H 0.57689 0.29889 0.10697 0.0
C412 C 0.29087 0.79027 0.76158 0.0
C413 C 0.29221 0.80472 0.79118 0.0
C414 C 0.29733 0.80508 0.7432 0.0
C415 C 0.32809 0.87463 0.74194 0.0
H416 H 0.28181 0.85419 0.67126 0.0
C417 C 0.33863 0.9337 0.66049 0.0
C418 C 0.31707 0.94012 0.64934 0.0
C419 C 0.33751 0.91548 0.67634 0.0
C420 C 0.29487 0.86022 0.69095 0.0
H421 H 0.30179 0.8454 0.82532 0.0
H422 H 0.31301 0.87147 0.79335 0.0
H423 H 0.27755 0.82564 0.70206 0.0
H424 H 0.27741 0.93218 0.64595 0.0
H425 H 0.27549 0.90067 0.67375 0.0
H426 H 0.34484 0.90986 0.73131 0.0
C427 C 0.30739 0.84875 0.78418 0.0
C428 C 0.29264 0.84362 0.70843 0.0
C429 C 0.30093 0.83391 0.8025 0.0
C430 C 0.29437 0.92766 0.65415 0.0
C431 C 0.29326 0.90942 0.66995 0.0
C432 C 0.33035 0.89123 0.72441 0.0
C433 C 0.30511 0.8346 0.75419 0.0
C434 C 0.30901 0.85084 0.73436 0.0
C435 C 0.31481 0.90319 0.68134 0.0
C436 C 0.31352 0.88447 0.69893 0.0
H437 H 0.284 0.76771 0.75249 0.0
H438 H 0.29567 0.7935 0.72029 0.0
H439 H 0.34115 0.88063 0.76162 0.0
H440 H 0.35643 0.94288 0.65713 0.0
H441 H 0.35443 0.91088 0.68455 0.0
C442 C 0.73447 0.67109 0.24206 0.0
C443 C 0.72591 0.6701 0.26742 0.0
C444 C 0.71895 0.67452 0.22012 0.0
C445 C 0.66196 0.69852 0.20502 0.0
H446 H 0.66317 0.65247 0.1258 0.0
C447 C 0.61519 0.71963 0.10751 0.0
C448 C 0.6021 0.69635 0.08387 0.0
C449 C 0.62963 0.71579 0.13 0.0
C450 C 0.66246 0.6653 0.14781 0.0
H451 H 0.69493 0.67213 0.29042 0.0
H452 H 0.66756 0.67829 0.25204 0.0
H453 H 0.68957 0.64745 0.16531 0.0
H454 H 0.59411 0.65072 0.06529 0.0
H455 H 0.61948 0.64402 0.1047 0.0
H456 H 0.63472 0.71624 0.18752 0.0
C457 C 0.68628 0.67666 0.24909 0.0
C458 C 0.67779 0.66267 0.17043 0.0
C459 C 0.70185 0.67314 0.27101 0.0
C460 C 0.60399 0.6691 0.08314 0.0
C461 C 0.61858 0.66526 0.10566 0.0
C462 C 0.64671 0.70124 0.18239 0.0
C463 C 0.69458 0.67698 0.22321 0.0
C464 C 0.67784 0.67939 0.19928 0.0
C465 C 0.63145 0.68859 0.12942 0.0
C466 C 0.64691 0.6848 0.15351 0.0
H467 H 0.75302 0.66863 0.23894 0.0
H468 H 0.72602 0.67513 0.20069 0.0
H469 H 0.66164 0.7118 0.22698 0.0
H470 H 0.61423 0.74094 0.10881 0.0
H471 H 0.63962 0.73422 0.14773 0.0
C472 C 0.7525 0.24321 0.89676 0.0
C473 C 0.75664 0.23603 0.92164 0.0
C474 C 0.74761 0.22245 0.86934 0.0
C475 C 0.73313 0.14499 0.82918 0.0
H476 H 0.7727 0.16626 0.77664 0.0
C477 C 0.77966 0.08961 0.72401 0.0
C478 C 0.75982 0.06912 0.70559 0.0
C479 C 0.776 0.10986 0.74911 0.0
C480 C 0.76153 0.15996 0.79103 0.0
H481 H 0.75749 0.20145 0.93755 0.0
H482 H 0.74931 0.16503 0.88951 0.0
H483 H 0.77093 0.2012 0.82284 0.0
H484 H 0.7205 0.05385 0.69925 0.0
H485 H 0.71409 0.08949 0.74342 0.0
H486 H 0.72459 0.1033 0.79749 0.0
C487 C 0.74951 0.18667 0.89116 0.0
C488 C 0.76025 0.1801 0.81742 0.0
C489 C 0.75422 0.20749 0.91869 0.0
C490 C 0.73615 0.06939 0.71294 0.0
C491 C 0.7325 0.08967 0.73829 0.0
C492 C 0.73438 0.12476 0.80262 0.0
C493 C 0.747 0.19404 0.86614 0.0
C494 C 0.74631 0.17284 0.83704 0.0
C495 C 0.75241 0.11019 0.75658 0.0
C496 C 0.74898 0.13194 0.78351 0.0
H497 H 0.75397 0.26507 0.8985 0.0
H498 H 0.74517 0.22881 0.85058 0.0
H499 H 0.72208 0.13875 0.8437 0.0
H500 H 0.79816 0.09003 0.71912 0.0
H501 H 0.79179 0.12507 0.76295 0.0
C502 C 0.33685 0.2752 0.41767 0.0
C503 C 0.31156 0.27289 0.40969 0.0
C504 C 0.35325 0.27845 0.39887 0.0
C505 C 0.35572 0.26403 0.32155 0.0
H506 H 0.42003 0.31291 0.34959 0.0
C507 C 0.43381 0.25762 0.25239 0.0
C508 C 0.44817 0.28324 0.25356 0.0
C509 C 0.41675 0.25725 0.27124 0.0
C510 C 0.40208 0.2993 0.34136 0.0
H511 H 0.28373 0.27285 0.37599 0.0
H512 H 0.31245 0.27885 0.34321 0.0
H513 H 0.39082 0.31217 0.383 0.0
H514 H 0.45576 0.32857 0.27547 0.0
H515 H 0.42603 0.32787 0.30817 0.0
H516 H 0.36695 0.25126 0.27986 0.0
C517 C 0.31953 0.27785 0.36392 0.0
C518 C 0.38542 0.2987 0.36057 0.0
C519 C 0.30312 0.27474 0.38282 0.0
C520 C 0.44507 0.30844 0.274 0.0
C521 C 0.4281 0.30805 0.29288 0.0
C522 C 0.37243 0.26454 0.30235 0.0
C523 C 0.34475 0.27939 0.37159 0.0
C524 C 0.36208 0.28097 0.35092 0.0
C525 C 0.41374 0.28246 0.29175 0.0
C526 C 0.39583 0.28212 0.31205 0.0
H527 H 0.34395 0.27412 0.43835 0.0
H528 H 0.37252 0.27937 0.40538 0.0
H529 H 0.338 0.24991 0.31348 0.0
H530 H 0.43574 0.23783 0.23694 0.0
H531 H 0.40617 0.23715 0.27003 0.0
C532 C 0.8577 0.68479 0.87673 0.0
C533 C 0.85146 0.68659 0.8493 0.0
C534 C 0.87197 0.66567 0.88027 0.0
C535 C 0.91613 0.62447 0.84453 0.0
H536 H 0.90672 0.58774 0.90103 0.0
C537 C 0.97317 0.54325 0.85878 0.0
C538 C 0.98236 0.54675 0.88746 0.0
C539 C 0.95587 0.55852 0.85293 0.0
C540 C 0.90965 0.59796 0.88526 0.0
H541 H 0.85424 0.66883 0.80388 0.0
H542 H 0.8787 0.63512 0.8099 0.0
H543 H 0.87845 0.61714 0.8929 0.0
H544 H 0.98031 0.56881 0.93247 0.0
H545 H 0.95026 0.59529 0.92224 0.0
H546 H 0.94736 0.60525 0.83694 0.0
C547 C 0.8732 0.64898 0.82885 0.0
C548 C 0.89348 0.61488 0.88064 0.0
C549 C 0.85909 0.66823 0.82536 0.0
C550 C 0.97366 0.56559 0.91011 0.0
C551 C 0.95628 0.58066 0.90426 0.0
C552 C 0.93221 0.60741 0.84903 0.0
C553 C 0.88018 0.64774 0.85642 0.0
C554 C 0.89664 0.62859 0.86041 0.0
C555 C 0.94724 0.5774 0.87563 0.0
C556 C 0.92931 0.5942 0.86966 0.0
H557 H 0.85229 0.69887 0.89562 0.0
H558 H 0.87723 0.6656 0.90188 0.0
H559 H 0.91944 0.63504 0.82912 0.0
H560 H 0.97945 0.52889 0.84084 0.0
H561 H 0.94911 0.5554 0.83063 0.0
C562 C 0.84209 0.32889 0.44036 0.0
C563 C 0.82253 0.31375 0.41781 0.0
C564 C 0.86411 0.34156 0.43454 0.0
C565 C 0.9005 0.34388 0.37604 0.0
H566 H 0.92539 0.42129 0.42626 0.0
C567 C 0.97245 0.42222 0.34773 0.0
C568 C 0.98979 0.44189 0.37065 0.0
C569 C 0.95339 0.40421 0.35321 0.0
C570 C 0.91898 0.39957 0.41224 0.0
H571 H 0.81136 0.29852 0.3713 0.0
H572 H 0.84965 0.32093 0.36119 0.0
H573 H 0.89043 0.39353 0.43666 0.0
H574 H 1.00134 0.45709 0.41714 0.0
H575 H 0.96862 0.42553 0.42654 0.0
H576 H 0.92903 0.35017 0.35143 0.0
C577 C 0.84801 0.32298 0.38337 0.0
C578 C 0.8989 0.38361 0.41825 0.0
C579 C 0.82598 0.31036 0.38919 0.0
C580 C 0.98815 0.44245 0.39898 0.0
C581 C 0.96926 0.42442 0.40441 0.0
C582 C 0.9207 0.35988 0.37004 0.0
C583 C 0.86712 0.33935 0.40605 0.0
C584 C 0.88934 0.3556 0.4002 0.0
C585 C 0.95135 0.40543 0.38171 0.0
C586 C 0.93016 0.38796 0.38806 0.0
H587 H 0.84001 0.33204 0.46265 0.0
H588 H 0.87862 0.35366 0.45247 0.0
H589 H 0.8937 0.32229 0.36183 0.0
H590 H 0.97319 0.42127 0.32566 0.0
H591 H 0.93982 0.38998 0.33521 0.0
C592 C 0.23465 0.35365 0.86107 0.0
C593 C 0.25377 0.36346 0.8846 0.0
C594 C 0.21253 0.36295 0.86367 0.0
C595 C 0.17445 0.39683 0.91639 0.0
H596 H 0.14743 0.41869 0.85372 0.0
C597 C 0.09782 0.46164 0.92643 0.0
C598 C 0.08042 0.45649 0.90182 0.0
C599 C 0.11765 0.44795 0.92457 0.0
C600 C 0.15442 0.41224 0.87121 0.0
H601 H 0.26512 0.39009 0.9294 0.0
H602 H 0.22624 0.40657 0.93417 0.0
H603 H 0.18452 0.39939 0.8504 0.0
H604 H 0.06978 0.43201 0.85616 0.0
H605 H 0.10411 0.40767 0.85302 0.0
H606 H 0.14433 0.40976 0.93723 0.0
C607 C 0.22821 0.39151 0.91374 0.0
C608 C 0.17577 0.40123 0.86933 0.0
C609 C 0.25043 0.38222 0.91105 0.0
C610 C 0.0829 0.43659 0.8755 0.0
C611 C 0.10271 0.42278 0.87367 0.0
C612 C 0.15298 0.40774 0.91821 0.0
C613 C 0.20913 0.38228 0.88991 0.0
C614 C 0.18611 0.39348 0.89193 0.0
C615 C 0.12058 0.42864 0.89808 0.0
C616 C 0.14275 0.41573 0.89569 0.0
H617 H 0.23696 0.33912 0.84046 0.0
H618 H 0.19811 0.35511 0.84505 0.0
H619 H 0.18179 0.39075 0.93401 0.0
H620 H 0.09656 0.4769 0.94706 0.0
H621 H 0.13116 0.45329 0.94374 0.0
C622 C 0.24023 0.64992 0.26044 0.0
C623 C 0.24402 0.67951 0.27254 0.0
C624 C 0.2197 0.63289 0.26456 0.0
C625 C 0.17881 0.63267 0.31682 0.0
H626 H 0.13393 0.57253 0.25534 0.0
C627 C 0.09302 0.57356 0.3423 0.0
C628 C 0.08527 0.54456 0.32709 0.0
C629 C 0.11097 0.58977 0.33341 0.0
C630 C 0.14647 0.58895 0.27284 0.0
H631 H 0.22817 0.71418 0.29706 0.0
H632 H 0.19309 0.68444 0.30515 0.0
H633 H 0.16831 0.60067 0.24361 0.0
H634 H 0.08983 0.50979 0.2903 0.0
H635 H 0.12203 0.53779 0.27536 0.0
H636 H 0.15804 0.62063 0.34626 0.0
C637 C 0.20611 0.67453 0.29259 0.0
C638 C 0.16607 0.60512 0.26604 0.0
C639 C 0.22634 0.69154 0.2881 0.0
C640 C 0.09539 0.53216 0.30232 0.0
C641 C 0.1138 0.5483 0.29374 0.0
C642 C 0.15958 0.61625 0.32367 0.0
C643 C 0.20274 0.64507 0.28118 0.0
C644 C 0.18225 0.62731 0.28798 0.0
C645 C 0.12213 0.57728 0.30947 0.0
C646 C 0.1429 0.59434 0.30179 0.0
H647 H 0.2535 0.63985 0.24858 0.0
H648 H 0.21756 0.61019 0.25567 0.0
H649 H 0.19128 0.64937 0.33418 0.0
H650 H 0.08529 0.58377 0.36126 0.0
H651 H 0.1162 0.61212 0.34558 0.0
C652 C 0.80914 0.80892 0.78447 0.0
C653 C 0.83215 0.80881 0.79839 0.0
C654 C 0.80612 0.83073 0.774 0.0
C655 C 0.84191 0.88182 0.74816 0.0
H656 H 0.78451 0.91574 0.75307 0.0
C657 C 0.8324 0.97102 0.70255 0.0
C658 C 0.80911 0.96993 0.6882 0.0
C659 C 0.83547 0.95305 0.71819 0.0
C660 C 0.80055 0.90629 0.75124 0.0
H661 H 0.86986 0.83108 0.81306 0.0
H662 H 0.86466 0.86933 0.79502 0.0
H663 H 0.78889 0.88141 0.77683 0.0
H664 H 0.77077 0.94899 0.679 0.0
H665 H 0.77621 0.91744 0.70558 0.0
H666 H 0.85336 0.90605 0.72204 0.0
C667 C 0.84896 0.85267 0.79196 0.0
C668 C 0.80306 0.88666 0.76493 0.0
C669 C 0.85191 0.83098 0.8025 0.0
C670 C 0.78898 0.95054 0.68991 0.0
C671 C 0.79206 0.93253 0.70537 0.0
C672 C 0.83934 0.9013 0.73433 0.0
C673 C 0.82617 0.85252 0.77707 0.0
C674 C 0.82373 0.87413 0.76346 0.0
C675 C 0.81533 0.93349 0.71971 0.0
C676 C 0.81856 0.91368 0.73554 0.0
H677 H 0.79376 0.79173 0.78085 0.0
H678 H 0.78838 0.82989 0.76242 0.0
H679 H 0.85787 0.87221 0.7462 0.0
H680 H 0.84827 0.9858 0.70179 0.0
H681 H 0.85361 0.95464 0.72926 0.0
C682 C 0.73172 0.33199 0.39681 0.0
C683 C 0.7314 0.30682 0.40261 0.0
C684 C 0.71067 0.33651 0.38266 0.0
C685 C 0.64306 0.31101 0.36404 0.0
H686 H 0.64899 0.34424 0.30429 0.0
C687 C 0.56192 0.29944 0.27746 0.0
C688 C 0.55936 0.32268 0.26902 0.0
C689 C 0.58251 0.30055 0.29646 0.0
C690 C 0.64706 0.33534 0.32123 0.0
H691 H 0.70885 0.26651 0.39765 0.0
H692 H 0.67231 0.27422 0.37278 0.0
H693 H 0.68592 0.34014 0.33198 0.0
H694 H 0.5763 0.36555 0.27438 0.0
H695 H 0.61252 0.36741 0.30763 0.0
H696 H 0.60419 0.30554 0.35275 0.0
C697 C 0.68861 0.29078 0.37971 0.0
C698 C 0.66823 0.33298 0.33712 0.0
C699 C 0.70959 0.2863 0.39391 0.0
C700 C 0.57771 0.34731 0.28049 0.0
C701 C 0.59851 0.34832 0.29937 0.0
C702 C 0.62194 0.31326 0.34809 0.0
C703 C 0.68885 0.31595 0.37392 0.0
C704 C 0.66647 0.32035 0.35841 0.0
C705 C 0.60118 0.32486 0.30741 0.0
C706 C 0.62367 0.32503 0.32619 0.0
H707 H 0.74814 0.34837 0.40358 0.0
H708 H 0.71143 0.35628 0.37888 0.0
H709 H 0.64102 0.30177 0.38071 0.0
H710 H 0.54813 0.28015 0.26908 0.0
H711 H 0.58413 0.282 0.30193 0.0
C712 C 0.35075 0.26749 0.83124 0.0
C713 C 0.33728 0.26402 0.85275 0.0
C714 C 0.35774 0.24439 0.81183 0.0
C715 C 0.3623 0.16933 0.79972 0.0
H716 H 0.36035 0.16474 0.71979 0.0
C717 C 0.34649 0.06628 0.70211 0.0
C718 C 0.36133 0.06499 0.68058 0.0
C719 C 0.34869 0.09121 0.72544 0.0
C720 C 0.36137 0.16595 0.74214 0.0
H721 H 0.32024 0.23379 0.8707 0.0
H722 H 0.33142 0.19333 0.83627 0.0
H723 H 0.3534 0.20726 0.75558 0.0
H724 H 0.39055 0.08842 0.66687 0.0
H725 H 0.3939 0.13258 0.70751 0.0
H726 H 0.36874 0.12716 0.78559 0.0
C727 C 0.33747 0.21391 0.83483 0.0
C728 C 0.35743 0.19036 0.76274 0.0
C729 C 0.33086 0.23706 0.85448 0.0
C730 C 0.37905 0.08883 0.68333 0.0
C731 C 0.38085 0.11406 0.7064 0.0
C732 C 0.3658 0.14477 0.77901 0.0
C733 C 0.35105 0.21721 0.81322 0.0
C734 C 0.3574 0.19221 0.79175 0.0
C735 C 0.36541 0.11554 0.7274 0.0
C736 C 0.365 0.14271 0.74997 0.0
H737 H 0.35616 0.28815 0.82967 0.0
H738 H 0.36852 0.24793 0.79586 0.0
H739 H 0.36309 0.17016 0.82192 0.0
H740 H 0.33268 0.04818 0.70047 0.0
H741 H 0.33644 0.09185 0.74121 0.0
C742 C 0.37182 0.70529 0.20034 0.0
C743 C 0.35457 0.72265 0.20522 0.0
C744 C 0.39346 0.71345 0.19066 0.0
C745 C 0.41926 0.75863 0.15137 0.0
H746 H 0.47941 0.73666 0.17332 0.0
C747 C 0.50759 0.77464 0.09981 0.0
C748 C 0.51667 0.74977 0.08935 0.0
C749 C 0.48961 0.77619 0.11789 0.0
C750 C 0.46276 0.74303 0.16705 0.0
H751 H 0.34612 0.76221 0.20457 0.0
H752 H 0.3843 0.77693 0.18797 0.0
H753 H 0.4447 0.73095 0.19857 0.0
H754 H 0.51462 0.70743 0.09037 0.0
H755 H 0.48378 0.71032 0.12196 0.0
H756 H 0.43739 0.77026 0.11949 0.0
C757 C 0.38109 0.75687 0.1913 0.0
C758 C 0.44282 0.73964 0.18142 0.0
C759 C 0.35936 0.74861 0.20098 0.0
C760 C 0.50794 0.72687 0.09793 0.0
C761 C 0.49038 0.72858 0.11624 0.0
C762 C 0.43932 0.76221 0.13712 0.0
C763 C 0.3983 0.73921 0.18568 0.0
C764 C 0.42055 0.74658 0.17319 0.0
C765 C 0.48083 0.75311 0.12624 0.0
C766 C 0.46103 0.75366 0.14425 0.0
H767 H 0.36826 0.68503 0.20325 0.0
H768 H 0.40599 0.69904 0.18608 0.0
H769 H 0.40236 0.764 0.14427 0.0
H770 H 0.51394 0.79258 0.0935 0.0
H771 H 0.48256 0.79538 0.12533 0.0
C772 C 0.77718 0.20641 0.48108 0.0
C773 C 0.79154 0.23365 0.49093 0.0
C774 C 0.78343 0.18616 0.49222 0.0
C775 C 0.81745 0.18061 0.55738 0.0
H776 H 0.80029 0.10083 0.51218 0.0
C777 C 0.82839 0.0928 0.60585 0.0
C778 C 0.80691 0.0721 0.59994 0.0
C779 C 0.83035 0.11217 0.59123 0.0
C780 C 0.80522 0.12305 0.52506 0.0
H781 H 0.82397 0.26135 0.51935 0.0
H782 H 0.83551 0.22568 0.53849 0.0
H783 H 0.79797 0.13527 0.48816 0.0
H784 H 0.77095 0.05503 0.57352 0.0
H785 H 0.77455 0.08839 0.5478 0.0
H786 H 0.82458 0.16814 0.59429 0.0
C787 C 0.81917 0.21993 0.52246 0.0
C788 C 0.80381 0.14282 0.51134 0.0
C789 C 0.81277 0.24027 0.51135 0.0
C790 C 0.78771 0.07077 0.57868 0.0
C791 C 0.78983 0.08976 0.56378 0.0
C792 C 0.81914 0.16079 0.57104 0.0
C793 C 0.80428 0.19274 0.51346 0.0
C794 C 0.80921 0.17188 0.52741 0.0
C795 C 0.81106 0.11081 0.57004 0.0
C796 C 0.8124 0.13181 0.55513 0.0
H797 H 0.7605 0.20107 0.4656 0.0
H798 H 0.77122 0.16574 0.48509 0.0
H799 H 0.8215 0.20273 0.57058 0.0
H800 H 0.84348 0.0944 0.62216 0.0
H801 H 0.84695 0.12815 0.59643 0.0
C802 C 0.33317 0.30121 0.96622 0.0
C803 C 0.33531 0.32294 0.95458 0.0
C804 C 0.34436 0.30617 0.99438 0.0
C805 C 0.39736 0.35208 0.04693 0.0
H806 H 0.3715 0.31269 0.09609 0.0
C807 C 0.4558 0.35432 0.1514 0.0
C808 C 0.45486 0.32781 0.15439 0.0
C809 C 0.43897 0.35778 0.13055 0.0
C810 C 0.379 0.32381 0.08259 0.0
H811 H 0.34972 0.3673 0.96384 0.0
H812 H 0.36911 0.37612 0.0133 0.0
H813 H 0.34496 0.312 0.05361 0.0
H814 H 0.43512 0.28432 0.13822 0.0
H815 H 0.40608 0.29031 0.10199 0.0
H816 H 0.43161 0.36314 0.07539 0.0
C817 C 0.35898 0.35514 1.00049 0.0
C818 C 0.36378 0.32344 0.05827 0.0
C819 C 0.34765 0.35018 0.97229 0.0
C820 C 0.43643 0.30504 0.13653 0.0
C821 C 0.4196 0.30853 0.11587 0.0
C822 C 0.41258 0.35247 0.07128 0.0
C823 C 0.35803 0.333 0.01157 0.0
C824 C 0.37295 0.33694 0.03971 0.0
C825 C 0.42076 0.33485 0.11243 0.0
C826 C 0.40376 0.33769 0.08895 0.0
H827 H 0.32361 0.28005 0.95313 0.0
H828 H 0.34339 0.28856 0.00208 0.0
H829 H 0.40513 0.36243 0.03294 0.0
H830 H 0.46974 0.3723 0.16486 0.0
H831 H 0.44025 0.37838 0.12857 0.0
C832 C 0.33413 0.77502 0.32734 0.0
C833 C 0.30905 0.76713 0.31562 0.0
C834 C 0.34284 0.79925 0.35185 0.0
C835 C 0.32567 0.86542 0.39591 0.0
H836 H 0.36577 0.85767 0.46025 0.0
C837 C 0.32439 0.93136 0.51301 0.0
C838 C 0.34663 0.94306 0.53226 0.0
C839 C 0.32382 0.91248 0.48529 0.0
C840 C 0.35495 0.86034 0.44232 0.0
H841 H 0.27368 0.77903 0.31939 0.0
H842 H 0.28868 0.8209 0.36195 0.0
H843 H 0.35777 0.82006 0.41296 0.0
H844 H 0.38575 0.94388 0.53748 0.0
H845 H 0.38461 0.91019 0.48878 0.0
H846 H 0.32194 0.90506 0.4255 0.0
C847 C 0.30174 0.80862 0.35237 0.0
C848 C 0.3504 0.83885 0.41523 0.0
C849 C 0.29306 0.78444 0.32814 0.0
C850 C 0.36833 0.93523 0.52314 0.0
C851 C 0.36769 0.91595 0.49535 0.0
C852 C 0.33011 0.88675 0.42292 0.0
C853 C 0.32666 0.81617 0.36477 0.0
C854 C 0.33503 0.84077 0.39198 0.0
C855 C 0.34542 0.90459 0.4761 0.0
C856 C 0.34414 0.88404 0.44663 0.0
H857 H 0.34683 0.76199 0.31813 0.0
H858 H 0.36217 0.80463 0.36083 0.0
H859 H 0.31421 0.86783 0.37828 0.0
H860 H 0.30733 0.93693 0.51925 0.0
H861 H 0.30632 0.90373 0.47112 0.0
C862 C 0.77926 0.76615 0.88471 0.0
C863 C 0.78266 0.73896 0.86939 0.0
C864 C 0.75852 0.76983 0.89823 0.0
C865 C 0.69563 0.73331 0.89765 0.0
H866 H 0.70404 0.78343 0.97724 0.0
C867 C 0.62359 0.72322 0.9704 0.0
C868 C 0.61858 0.74764 0.99026 0.0
C869 C 0.64274 0.7249 0.95458 0.0
C870 C 0.70127 0.7697 0.95486 0.0
H871 H 0.76659 0.69441 0.85547 0.0
H872 H 0.73064 0.70076 0.87908 0.0
H873 H 0.73907 0.78146 0.9512 0.0
H874 H 0.62985 0.79312 0.0089 0.0
H875 H 0.66345 0.79606 0.98101 0.0
H876 H 0.65801 0.72122 0.90129 0.0
C877 C 0.74391 0.71928 0.88066 0.0
C878 C 0.72136 0.76856 0.93995 0.0
C879 C 0.76465 0.71561 0.86738 0.0
C880 C 0.63321 0.7739 0.99379 0.0
C881 C 0.65253 0.77557 0.97791 0.0
C882 C 0.67559 0.73451 0.91248 0.0
C883 C 0.74063 0.7464 0.8964 0.0
C884 C 0.71888 0.74987 0.91136 0.0
C885 C 0.6575 0.75104 0.95809 0.0
C886 C 0.67826 0.75223 0.94149 0.0
H887 H 0.79288 0.78455 0.88676 0.0
H888 H 0.75645 0.791 0.91004 0.0
H889 H 0.69297 0.71912 0.87546 0.0
H890 H 0.6128 0.7026 0.96712 0.0
H891 H 0.64629 0.70552 0.93995 0.0
loop_
_geom_bond_atom_site_label_1
_geom_bond_atom_site_label_2
_geom_bond_distance
_geom_bond_site_symmetry_2
_ccdc_geom_bond_type
H0 C3 0.929 . S
H1 C6 0.929 . S
H2 C8 0.930 . S
C3 H0 0.929 . S
C3 C4 1.398 . S
C3 C5 1.396 . S
C4 C3 1.398 . S
C4 C8 1.407 . S
C5 C3 1.396 . S
C5 C6 1.394 . S
C6 H1 0.929 . S
C6 C5 1.394 . S
C6 C7 1.382 . S
C7 C6 1.382 . S
C7 C8 1.392 . S
C7 N9 1.420 . S
C8 H2 0.930 . S
C8 C4 1.407 . S
C8 C7 1.392 . S
N9 C7 1.420 . S
N9 C10 1.244 . S
C10 N9 1.244 . S
H11 C14 0.929 . S
H12 C17 0.929 . S
H13 C19 0.930 . S
C14 H11 0.929 . S
C14 C15 1.398 . S
C14 C16 1.396 . S
C15 C14 1.398 . S
C15 C19 1.407 . S
C16 C14 1.396 . S
C16 C17 1.394 . S
C17 H12 0.929 . S
C17 C16 1.394 . S
C17 C18 1.382 . S
C18 C17 1.382 . S
C18 C19 1.392 . S
C18 N20 1.420 . S
C19 H13 0.930 . S
C19 C15 1.407 . S
C19 C18 1.392 . S
N20 C18 1.420 . S
N20 C21 1.244 . S
C21 N20 1.244 . S
H22 C25 0.929 . S
H23 C28 0.929 . S
H24 C30 0.930 . S
C25 H22 0.929 . S
C25 C26 1.398 . S
C25 C27 1.396 . S
C26 C25 1.398 . S
C26 C30 1.407 . S
C27 C25 1.396 . S
C27 C28 1.394 . S
C28 H23 0.929 . S
C28 C27 1.394 . S
C28 C29 1.382 . S
C29 C28 1.382 . S
C29 C30 1.392 . S
C29 N31 1.420 . S
C30 H24 0.930 . S
C30 C26 1.407 . S
C30 C29 1.392 . S
N31 C29 1.420 . S
N31 C32 1.244 . S
C32 N31 1.244 . S
H33 C36 0.929 . S
H34 C39 0.929 . S
H35 C41 0.930 1_554 S
C36 H33 0.929 . S
C36 C37 1.398 . S
C36 C38 1.396 . S
C37 C36 1.398 . S
C37 C41 1.407 . S
C38 C36 1.396 . S
C38 C39 1.394 . S
C39 H34 0.929 . S
C39 C38 1.394 . S
C39 C40 1.382 . S
C40 C39 1.382 . S
C40 C41 1.392 . S
C40 N42 1.420 1_556 S
C41 H35 0.930 1_556 S
C41 C37 1.407 . S
C41 C40 1.392 . S
N42 C40 1.420 1_554 S
N42 C43 1.244 1_554 S
C43 N42 1.244 1_556 S
H44 C47 0.929 . S
H45 C50 0.929 . S
H46 C52 0.930 . S
C47 H44 0.929 . S
C47 C48 1.398 . S
C47 C49 1.396 . S
C48 C47 1.398 . S
C48 C52 1.407 . S
C49 C47 1.396 . S
C49 C50 1.394 . S
C50 H45 0.929 . S
C50 C49 1.394 . S
C50 C51 1.382 . S
C51 C50 1.382 . S
C51 C52 1.392 . S
C51 N53 1.420 . S
C52 H46 0.930 . S
C52 C48 1.407 . S
C52 C51 1.392 . S
N53 C51 1.420 . S
N53 C54 1.244 . S
C54 N53 1.244 . S
H55 C58 0.929 . S
H56 C61 0.929 . S
H57 C63 0.930 . S
C58 H55 0.929 . S
C58 C59 1.398 . S
C58 C60 1.396 . S
C59 C58 1.398 . S
C59 C63 1.407 . S
C60 C58 1.396 . S
C60 C61 1.394 . S
C61 H56 0.929 . S
C61 C60 1.394 . S
C61 C62 1.382 . S
C62 C61 1.382 . S
C62 C63 1.392 . S
C62 N64 1.420 . S
C63 H57 0.930 . S
C63 C59 1.407 . S
C63 C62 1.392 . S
N64 C62 1.420 . S
N64 C65 1.244 . S
C65 N64 1.244 . S
H66 C69 0.929 . S
H67 C72 0.929 . S
H68 C74 0.930 . S
C69 H66 0.929 . S
C69 C70 1.398 . S
C69 C71 1.396 . S
C70 C69 1.398 . S
C70 C74 1.407 . S
C71 C69 1.396 . S
C71 C72 1.394 . S
C72 H67 0.929 . S
C72 C71 1.394 . S
C72 C73 1.382 . S
C73 C72 1.382 . S
C73 C74 1.392 . S
C73 N75 1.420 . S
C74 H68 0.930 . S
C74 C70 1.407 . S
C74 C73 1.392 . S
N75 C73 1.420 . S
N75 C76 1.244 . S
C76 N75 1.244 . S
H77 C80 0.929 . S
H78 C83 0.929 . S
H79 C85 0.930 . S
C80 H77 0.929 . S
C80 C81 1.398 . S
C80 C82 1.396 . S
C81 C80 1.398 . S
C81 C85 1.407 . S
C82 C80 1.396 . S
C82 C83 1.394 . S
C83 H78 0.929 . S
C83 C82 1.394 . S
C83 C84 1.382 . S
C84 C83 1.382 . S
C84 C85 1.392 . S
C84 N86 1.420 . S
C85 H79 0.930 . S
C85 C81 1.407 . S
C85 C84 1.392 . S
N86 C84 1.420 . S
N86 C87 1.244 . S
C87 N86 1.244 . S
C88 O90 1.247 1_655 S
C88 O92 1.269 . S
C89 O96 1.247 . S
C89 O97 1.258 . S
O90 C88 1.247 1_455 S
O90 Zn91 2.028 . S
Zn91 O90 2.028 . S
Zn91 O95 2.035 . S
Zn91 O97 2.035 . S
Zn91 O98 2.028 . S
O92 C88 1.269 . S
O92 Zn93 2.012 1_655 S
Zn93 O92 2.012 1_455 S
Zn93 O94 2.028 . S
Zn93 O96 2.028 . S
Zn93 O99 2.058 . S
O94 Zn93 2.028 . S
O94 C100 1.247 . S
O95 Zn91 2.035 . S
O95 C100 1.258 . S
O96 C89 1.247 . S
O96 Zn93 2.028 . S
O97 C89 1.258 . S
O97 Zn91 2.035 . S
O98 Zn91 2.028 . S
O98 C101 1.247 1_455 S
O99 Zn93 2.058 . S
O99 C101 1.249 1_455 S
C100 O94 1.247 . S
C100 O95 1.258 . S
C101 O98 1.247 1_655 S
C101 O99 1.249 1_655 S
C102 O104 1.247 . S
C102 O106 1.258 . S
C103 O110 1.247 . S
C103 O111 1.258 . S
O104 C102 1.247 . S
O104 Zn105 2.028 . S
Zn105 O104 2.028 . S
Zn105 O109 2.035 . S
Zn105 O111 2.035 . S
Zn105 O112 2.028 . S
O106 C102 1.258 . S
O106 Zn107 2.035 . S
Zn107 O106 2.035 . S
Zn107 O108 2.028 . S
Zn107 O110 2.028 . S
Zn107 O113 2.035 . S
O108 Zn107 2.028 . S
O108 C114 1.247 . S
O109 Zn105 2.035 . S
O109 C114 1.258 . S
O110 C103 1.247 . S
O110 Zn107 2.028 . S
O111 C103 1.258 . S
O111 Zn105 2.035 . S
O112 Zn105 2.028 . S
O112 C115 1.247 . S
O113 Zn107 2.035 . S
O113 C115 1.258 . S
C114 O108 1.247 . S
C114 O109 1.258 . S
C115 O112 1.247 . S
C115 O113 1.258 . S
C116 O118 1.247 . S
C116 O120 1.258 1_565 S
C117 O124 1.247 . S
C117 O125 1.258 . S
O118 C116 1.247 . S
O118 Zn119 2.028 1_565 S
Zn119 O118 2.028 1_545 S
Zn119 O123 2.035 . S
Zn119 O125 2.035 . S
Zn119 O126 2.028 1_545 S
O120 C116 1.258 1_545 S
O120 Zn121 2.035 . S
Zn121 O120 2.035 . S
Zn121 O122 2.028 . S
Zn121 O124 2.028 . S
Zn121 O127 2.035 . S
O122 Zn121 2.028 . S
O122 C128 1.247 . S
O123 Zn119 2.035 . S
O123 C128 1.258 . S
O124 C117 1.247 . S
O124 Zn121 2.028 . S
O125 C117 1.258 . S
O125 Zn119 2.035 . S
O126 Zn119 2.028 1_565 S
O126 C129 1.247 . S
O127 Zn121 2.035 . S
O127 C129 1.258 1_545 S
C128 O122 1.247 . S
C128 O123 1.258 . S
C129 O126 1.247 . S
C129 O127 1.258 1_565 S
C130 O132 1.247 . S
C130 O134 1.258 . S
C131 O138 1.247 . S
C131 O139 1.258 . S
O132 C130 1.247 . S
O132 Zn133 2.028 1_554 S
Zn133 O132 2.028 1_556 S
Zn133 O137 2.035 1_556 S
Zn133 O139 2.035 . S
Zn133 O140 2.028 . S
O134 C130 1.258 . S
O134 Zn135 2.035 . S
Zn135 O134 2.035 . S
Zn135 O136 2.028 . S
Zn135 O138 2.028 1_554 S
Zn135 O141 2.035 1_554 S
O136 Zn135 2.028 . S
O136 C142 1.247 . S
O137 Zn133 2.035 1_554 S
O137 C142 1.258 . S
O138 C131 1.247 . S
O138 Zn135 2.028 1_556 S
O139 C131 1.258 . S
O139 Zn133 2.035 . S
O140 Zn133 2.028 . S
O140 C143 1.247 . S
O141 Zn135 2.035 1_556 S
O141 C143 1.258 . S
C142 O136 1.247 . S
C142 O137 1.258 . S
C143 O140 1.247 . S
C143 O141 1.258 . S
C144 O146 1.247 . S
C144 O148 1.258 . S
C145 O152 1.247 . S
C145 O153 1.258 . S
O146 C144 1.247 . S
O146 Zn147 2.028 1_565 S
Zn147 O146 2.028 1_545 S
Zn147 O151 2.035 . S
Zn147 O153 2.035 . S
Zn147 O154 2.028 1_545 S
O148 C144 1.258 . S
O148 Zn149 2.035 1_565 S
Zn149 O148 2.035 1_545 S
Zn149 O150 2.028 . S
Zn149 O152 2.028 . S
Zn149 O155 2.035 1_545 S
O150 Zn149 2.028 . S
O150 C156 1.247 . S
O151 Zn147 2.035 . S
O151 C156 1.258 . S
O152 C145 1.247 . S
O152 Zn149 2.028 . S
O153 C145 1.258 . S
O153 Zn147 2.035 . S
O154 Zn147 2.028 1_565 S
O154 C157 1.247 . S
O155 Zn149 2.035 1_565 S
O155 C157 1.258 . S
C156 O150 1.247 . S
C156 O151 1.258 . S
C157 O154 1.247 . S
C157 O155 1.258 . S
C158 O160 1.247 . S
C158 O162 1.258 . S
C159 O166 1.247 . S
C159 O167 1.258 . S
O160 C158 1.247 . S
O160 Zn161 2.028 . S
Zn161 O160 2.028 . S
Zn161 O165 2.035 . S
Zn161 O167 2.035 . S
Zn161 O168 2.028 . S
O162 C158 1.258 . S
O162 Zn163 2.035 . S
Zn163 O162 2.035 . S
Zn163 O164 2.028 . S
Zn163 O166 2.028 . S
Zn163 O169 2.035 . S
O164 Zn163 2.028 . S
O164 C170 1.247 . S
O165 Zn161 2.035 . S
O165 C170 1.258 . S
O166 C159 1.247 . S
O166 Zn163 2.028 . S
O167 C159 1.258 . S
O167 Zn161 2.035 . S
O168 Zn161 2.028 . S
O168 C171 1.247 . S
O169 Zn163 2.035 . S
O169 C171 1.258 . S
C170 O164 1.247 . S
C170 O165 1.258 . S
C171 O168 1.247 . S
C171 O169 1.258 . S
C172 C173 1.349 . S
C172 C174 1.327 . S
C172 H197 0.950 . S
C173 C172 1.349 . S
C173 C189 1.349 . S
C174 C172 1.327 . S
C174 C193 1.429 . S
C174 H198 0.950 . S
C175 C192 1.574 . S
C175 C194 1.368 . S
C175 H199 0.949 . S
H176 C180 0.949 . S
C177 C178 1.349 . S
C177 C179 1.327 . S
C177 H200 0.950 . S
C178 C177 1.349 . S
C178 C190 1.349 . S
C179 C177 1.327 . S
C179 C195 1.429 . S
C179 H201 0.950 . S
C180 H176 0.949 . S
C180 C188 1.574 . S
C180 C196 1.368 . S
H181 C189 0.950 . S
H182 C187 0.950 . S
H183 C188 0.949 . S
H184 C190 0.950 . S
H185 C191 0.950 . S
H186 C192 0.949 . S
C187 H182 0.950 . S
C187 C189 1.327 . S
C187 C193 1.429 . S
C188 C180 1.574 . S
C188 H183 0.949 . S
C188 C194 1.368 . S
C189 C173 1.349 . S
C189 H181 0.950 . S
C189 C187 1.327 . S
C190 C178 1.349 . S
C190 H184 0.950 . S
C190 C191 1.327 . S
C191 H185 0.950 . S
C191 C190 1.327 . S
C191 C195 1.429 . S
C192 C175 1.574 . S
C192 H186 0.949 . S
C192 C196 1.368 . S
C193 C174 1.429 . S
C193 C187 1.429 . S
C193 C194 1.523 . S
C194 C175 1.368 . S
C194 C188 1.368 . S
C194 C193 1.523 . S
C195 C179 1.429 . S
C195 C191 1.429 . S
C195 C196 1.523 . S
C196 C180 1.368 . S
C196 C192 1.368 . S
C196 C195 1.523 . S
H197 C172 0.950 . S
H198 C174 0.950 . S
H199 C175 0.949 . S
H200 C177 0.950 . S
H201 C179 0.950 . S
C202 C203 1.349 . S
C202 C204 1.327 . S
C202 H227 0.950 . S
C203 C202 1.349 . S
C203 C219 1.349 . S
C204 C202 1.327 . S
C204 C223 1.429 . S
C204 H228 0.950 . S
C205 C222 1.574 . S
C205 C224 1.368 . S
C205 H229 0.949 . S
H206 C210 0.949 . S
C207 C208 1.349 . S
C207 C209 1.327 . S
C207 H230 0.950 . S
C208 C207 1.349 . S
C208 C220 1.349 . S
C209 C207 1.327 . S
C209 C225 1.429 . S
C209 H231 0.950 . S
C210 H206 0.949 . S
C210 C218 1.574 . S
C210 C226 1.368 . S
H211 C219 0.950 . S
H212 C217 0.950 . S
H213 C218 0.949 . S
H214 C220 0.950 . S
H215 C221 0.950 . S
H216 C222 0.949 . S
C217 H212 0.950 . S
C217 C219 1.327 . S
C217 C223 1.429 . S
C218 C210 1.574 . S
C218 H213 0.949 . S
C218 C224 1.368 . S
C219 C203 1.349 . S
C219 H211 0.950 . S
C219 C217 1.327 . S
C220 C208 1.349 . S
C220 H214 0.950 . S
C220 C221 1.327 . S
C221 H215 0.950 . S
C221 C220 1.327 . S
C221 C225 1.429 . S
C222 C205 1.574 . S
C222 H216 0.949 . S
C222 C226 1.368 . S
C223 C204 1.429 . S
C223 C217 1.429 . S
C223 C224 1.523 . S
C224 C205 1.368 . S
C224 C218 1.368 . S
C224 C223 1.523 . S
C225 C209 1.429 . S
C225 C221 1.429 . S
C225 C226 1.523 . S
C226 C210 1.368 . S
C226 C222 1.368 . S
C226 C225 1.523 . S
H227 C202 0.950 . S
H228 C204 0.950 . S
H229 C205 0.949 . S
H230 C207 0.950 . S
H231 C209 0.950 . S
C232 C233 1.349 . S
C232 C234 1.327 . S
C232 H257 0.950 . S
C233 C232 1.349 . S
C233 C249 1.349 . S
C234 C232 1.327 . S
C234 C253 1.429 . S
C234 H258 0.950 . S
C235 C252 1.574 . S
C235 C254 1.368 . S
C235 H259 0.949 . S
H236 C240 0.949 . S
C237 C238 1.349 . S
C237 C239 1.327 . S
C237 H260 0.950 . S
C238 C237 1.349 . S
C238 C250 1.349 . S
C239 C237 1.327 . S
C239 C255 1.429 . S
C239 H261 0.950 . S
C240 H236 0.949 . S
C240 C248 1.574 . S
C240 C256 1.368 . S
H241 C249 0.950 . S
H242 C247 0.950 . S
H243 C248 0.949 . S
H244 C250 0.950 . S
H245 C251 0.950 . S
H246 C252 0.949 . S
C247 H242 0.950 . S
C247 C249 1.327 . S
C247 C253 1.429 . S
C248 C240 1.574 . S
C248 H243 0.949 . S
C248 C254 1.368 . S
C249 C233 1.349 . S
C249 H241 0.950 . S
C249 C247 1.327 . S
C250 C238 1.349 . S
C250 H244 0.950 . S
C250 C251 1.327 . S
C251 H245 0.950 . S
C251 C250 1.327 . S
C251 C255 1.429 . S
C252 C235 1.574 . S
C252 H246 0.949 . S
C252 C256 1.368 . S
C253 C234 1.429 . S
C253 C247 1.429 . S
C253 C254 1.523 . S
C254 C235 1.368 . S
C254 C248 1.368 . S
C254 C253 1.523 . S
C255 C239 1.429 . S
C255 C251 1.429 . S
C255 C256 1.523 . S
C256 C240 1.368 . S
C256 C252 1.368 . S
C256 C255 1.523 . S
H257 C232 0.950 . S
H258 C234 0.950 . S
H259 C235 0.949 . S
H260 C237 0.950 . S
H261 C239 0.950 . S
C262 C263 1.349 . S
C262 C264 1.327 . S
C262 H287 0.950 1_556 S
C263 C262 1.349 . S
C263 C279 1.349 . S
C264 C262 1.327 . S
C264 C283 1.429 . S
C264 H288 0.950 1_556 S
C265 C282 1.574 . S
C265 C284 1.368 . S
C265 H289 0.949 . S
H266 C270 0.949 1_554 S
C267 C268 1.349 . S
C267 C269 1.327 . S
C267 H290 0.950 . S
C268 C267 1.349 . S
C268 C280 1.349 . S
C269 C267 1.327 . S
C269 C285 1.429 . S
C269 H291 0.950 . S
C270 H266 0.949 1_556 S
C270 C278 1.574 . S
C270 C286 1.368 . S
H271 C279 0.950 . S
H272 C277 0.950 . S
H273 C278 0.949 1_554 S
H274 C280 0.950 1_554 S
H275 C281 0.950 1_554 S
H276 C282 0.949 . S
C277 H272 0.950 . S
C277 C279 1.327 . S
C277 C283 1.429 . S
C278 C270 1.574 . S
C278 H273 0.949 1_556 S
C278 C284 1.368 . S
C279 C263 1.349 . S
C279 H271 0.950 . S
C279 C277 1.327 . S
C280 C268 1.349 . S
C280 H274 0.950 1_556 S
C280 C281 1.327 . S
C281 H275 0.950 1_556 S
C281 C280 1.327 . S
C281 C285 1.429 . S
C282 C265 1.574 . S
C282 H276 0.949 . S
C282 C286 1.368 . S
C283 C264 1.429 . S
C283 C277 1.429 . S
C283 C284 1.523 . S
C284 C265 1.368 . S
C284 C278 1.368 . S
C284 C283 1.523 . S
C285 C269 1.429 . S
C285 C281 1.429 . S
C285 C286 1.523 . S
C286 C270 1.368 . S
C286 C282 1.368 . S
C286 C285 1.523 . S
H287 C262 0.950 1_554 S
H288 C264 0.950 1_554 S
H289 C265 0.949 . S
H290 C267 0.950 . S
H291 C269 0.950 . S
C292 C293 1.349 . S
C292 C294 1.327 . S
C292 H317 0.950 . S
C293 C292 1.349 . S
C293 C309 1.349 . S
C294 C292 1.327 . S
C294 C313 1.429 . S
C294 H318 0.950 . S
C295 C312 1.574 . S
C295 C314 1.368 . S
C295 H319 0.949 . S
H296 C300 0.949 . S
C297 C298 1.349 . S
C297 C299 1.327 . S
C297 H320 0.950 . S
C298 C297 1.349 . S
C298 C310 1.349 . S
C299 C297 1.327 . S
C299 C315 1.429 . S
C299 H321 0.950 . S
C300 H296 0.949 . S
C300 C308 1.574 . S
C300 C316 1.368 . S
H301 C309 0.950 . S
H302 C307 0.950 . S
H303 C308 0.949 . S
H304 C310 0.950 . S
H305 C311 0.950 . S
H306 C312 0.949 . S
C307 H302 0.950 . S
C307 C309 1.327 . S
C307 C313 1.429 . S
C308 C300 1.574 . S
C308 H303 0.949 . S
C308 C314 1.368 . S
C309 C293 1.349 . S
C309 H301 0.950 . S
C309 C307 1.327 . S
C310 C298 1.349 . S
C310 H304 0.950 . S
C310 C311 1.327 . S
C311 H305 0.950 . S
C311 C310 1.327 . S
C311 C315 1.429 . S
C312 C295 1.574 . S
C312 H306 0.949 . S
C312 C316 1.368 . S
C313 C294 1.429 . S
C313 C307 1.429 . S
C313 C314 1.523 . S
C314 C295 1.368 . S
C314 C308 1.368 . S
C314 C313 1.523 . S
C315 C299 1.429 . S
C315 C311 1.429 . S
C315 C316 1.523 . S
C316 C300 1.368 . S
C316 C312 1.368 . S
C316 C315 1.523 . S
H317 C292 0.950 . S
H318 C294 0.950 . S
H319 C295 0.949 . S
H320 C297 0.950 . S
H321 C299 0.950 . S
C322 C323 1.349 . S
C322 C324 1.327 . S
C322 H347 0.950 . S
C323 C322 1.349 . S
C323 C339 1.349 . S
C324 C322 1.327 . S
C324 C343 1.429 . S
C324 H348 0.950 . S
C325 C342 1.574 . S
C325 C344 1.368 . S
C325 H349 0.949 . S
H326 C330 0.949 . S
C327 C328 1.349 . S
C327 C329 1.327 . S
C327 H350 0.950 . S
C328 C327 1.349 . S
C328 C340 1.349 . S
C329 C327 1.327 . S
C329 C345 1.429 . S
C329 H351 0.950 . S
C330 H326 0.949 . S
C330 C338 1.574 . S
C330 C346 1.368 . S
H331 C339 0.950 . S
H332 C337 0.950 . S
H333 C338 0.949 . S
H334 C340 0.950 . S
H335 C341 0.950 . S
H336 C342 0.949 . S
C337 H332 0.950 . S
C337 C339 1.327 . S
C337 C343 1.429 . S
C338 C330 1.574 . S
C338 H333 0.949 . S
C338 C344 1.368 . S
C339 C323 1.349 . S
C339 H331 0.950 . S
C339 C337 1.327 . S
C340 C328 1.349 . S
C340 H334 0.950 . S
C340 C341 1.327 . S
C341 H335 0.950 . S
C341 C340 1.327 . S
C341 C345 1.429 . S
C342 C325 1.574 . S
C342 H336 0.949 . S
C342 C346 1.368 . S
C343 C324 1.429 . S
C343 C337 1.429 . S
C343 C344 1.523 . S
C344 C325 1.368 . S
C344 C338 1.368 . S
C344 C343 1.523 . S
C345 C329 1.429 . S
C345 C341 1.429 . S
C345 C346 1.523 . S
C346 C330 1.368 . S
C346 C342 1.368 . S
C346 C345 1.523 . S
H347 C322 0.950 . S
H348 C324 0.950 . S
H349 C325 0.949 . S
H350 C327 0.950 . S
H351 C329 0.950 . S
C352 C353 1.349 . S
C352 C354 1.327 . S
C352 H377 0.950 . S
C353 C352 1.349 . S
C353 C369 1.349 . S
C354 C352 1.327 . S
C354 C373 1.429 . S
C354 H378 0.950 . S
C355 C372 1.574 . S
C355 C374 1.368 . S
C355 H379 0.949 . S
H356 C360 0.949 . S
C357 C358 1.349 . S
C357 C359 1.327 . S
C357 H380 0.950 . S
C358 C357 1.349 . S
C358 C370 1.349 . S
C359 C357 1.327 . S
C359 C375 1.429 . S
C359 H381 0.950 . S
C360 H356 0.949 . S
C360 C368 1.574 . S
C360 C376 1.368 . S
H361 C369 0.950 . S
H362 C367 0.950 . S
H363 C368 0.949 . S
H364 C370 0.950 . S
H365 C371 0.950 . S
H366 C372 0.949 . S
C367 H362 0.950 . S
C367 C369 1.327 . S
C367 C373 1.429 . S
C368 C360 1.574 . S
C368 H363 0.949 . S
C368 C374 1.368 . S
C369 C353 1.349 . S
C369 H361 0.950 . S
C369 C367 1.327 . S
C370 C358 1.349 . S
C370 H364 0.950 . S
C370 C371 1.327 . S
C371 H365 0.950 . S
C371 C370 1.327 . S
C371 C375 1.429 . S
C372 C355 1.574 . S
C372 H366 0.949 . S
C372 C376 1.368 . S
C373 C354 1.429 . S
C373 C367 1.429 . S
C373 C374 1.523 . S
C374 C355 1.368 . S
C374 C368 1.368 . S
C374 C373 1.523 . S
C375 C359 1.429 . S
C375 C371 1.429 . S
C375 C376 1.523 . S
C376 C360 1.368 . S
C376 C372 1.368 . S
C376 C375 1.523 . S
H377 C352 0.950 . S
H378 C354 0.950 . S
H379 C355 0.949 . S
H380 C357 0.950 . S
H381 C359 0.950 . S
C382 C383 1.349 . S
C382 C384 1.327 . S
C382 H407 0.950 . S
C383 C382 1.349 . S
C383 C399 1.349 . S
C384 C382 1.327 . S
C384 C403 1.429 . S
C384 H408 0.950 . S
C385 C402 1.574 . S
C385 C404 1.368 . S
C385 H409 0.949 . S
H386 C390 0.949 . S
C387 C388 1.349 . S
C387 C389 1.327 . S
C387 H410 0.950 . S
C388 C387 1.349 . S
C388 C400 1.349 . S
C389 C387 1.327 . S
C389 C405 1.429 . S
C389 H411 0.950 . S
C390 H386 0.949 . S
C390 C398 1.574 . S
C390 C406 1.368 . S
H391 C399 0.950 . S
H392 C397 0.950 . S
H393 C398 0.949 . S
H394 C400 0.950 . S
H395 C401 0.950 . S
H396 C402 0.949 . S
C397 H392 0.950 . S
C397 C399 1.327 . S
C397 C403 1.429 . S
C398 C390 1.574 . S
C398 H393 0.949 . S
C398 C404 1.368 . S
C399 C383 1.349 . S
C399 H391 0.950 . S
C399 C397 1.327 . S
C400 C388 1.349 . S
C400 H394 0.950 . S
C400 C401 1.327 . S
C401 H395 0.950 . S
C401 C400 1.327 . S
C401 C405 1.429 . S
C402 C385 1.574 . S
C402 H396 0.949 . S
C402 C406 1.368 . S
C403 C384 1.429 . S
C403 C397 1.429 . S
C403 C404 1.523 . S
C404 C385 1.368 . S
C404 C398 1.368 . S
C404 C403 1.523 . S
C405 C389 1.429 . S
C405 C401 1.429 . S
C405 C406 1.523 . S
C406 C390 1.368 . S
C406 C402 1.368 . S
C406 C405 1.523 . S
H407 C382 0.950 . S
H408 C384 0.950 . S
H409 C385 0.949 . S
H410 C387 0.950 . S
H411 C389 0.950 . S
C412 C413 1.349 . S
C412 C414 1.327 . S
C412 H437 0.950 . S
C413 C412 1.349 . S
C413 C429 1.349 . S
C414 C412 1.327 . S
C414 C433 1.429 . S
C414 H438 0.950 . S
C415 C432 1.574 . S
C415 C434 1.368 . S
C415 H439 0.949 . S
H416 C420 0.949 . S
C417 C418 1.349 . S
C417 C419 1.327 . S
C417 H440 0.950 . S
C418 C417 1.349 . S
C418 C430 1.349 . S
C419 C417 1.327 . S
C419 C435 1.429 . S
C419 H441 0.950 . S
C420 H416 0.949 . S
C420 C428 1.574 . S
C420 C436 1.368 . S
H421 C429 0.950 . S
H422 C427 0.950 . S
H423 C428 0.949 . S
H424 C430 0.950 . S
H425 C431 0.950 . S
H426 C432 0.949 . S
C427 H422 0.950 . S
C427 C429 1.327 . S
C427 C433 1.429 . S
C428 C420 1.574 . S
C428 H423 0.949 . S
C428 C434 1.368 . S
C429 C413 1.349 . S
C429 H421 0.950 . S
C429 C427 1.327 . S
C430 C418 1.349 . S
C430 H424 0.950 . S
C430 C431 1.327 . S
C431 H425 0.950 . S
C431 C430 1.327 . S
C431 C435 1.429 . S
C432 C415 1.574 . S
C432 H426 0.949 . S
C432 C436 1.368 . S
C433 C414 1.429 . S
C433 C427 1.429 . S
C433 C434 1.523 . S
C434 C415 1.368 . S
C434 C428 1.368 . S
C434 C433 1.523 . S
C435 C419 1.429 . S
C435 C431 1.429 . S
C435 C436 1.523 . S
C436 C420 1.368 . S
C436 C432 1.368 . S
C436 C435 1.523 . S
H437 C412 0.950 . S
H438 C414 0.950 . S
H439 C415 0.949 . S
H440 C417 0.950 . S
H441 C419 0.950 . S
C442 C443 1.349 . S
C442 C444 1.327 . S
C442 H467 0.950 . S
C443 C442 1.349 . S
C443 C459 1.349 . S
C444 C442 1.327 . S
C444 C463 1.429 . S
C444 H468 0.950 . S
C445 C462 1.574 . S
C445 C464 1.368 . S
C445 H469 0.949 . S
H446 C450 0.949 . S
C447 C448 1.349 . S
C447 C449 1.327 . S
C447 H470 0.950 . S
C448 C447 1.349 . S
C448 C460 1.349 . S
C449 C447 1.327 . S
C449 C465 1.429 . S
C449 H471 0.950 . S
C450 H446 0.949 . S
C450 C458 1.574 . S
C450 C466 1.368 . S
H451 C459 0.950 . S
H452 C457 0.950 . S
H453 C458 0.949 . S
H454 C460 0.950 . S
H455 C461 0.950 . S
H456 C462 0.949 . S
C457 H452 0.950 . S
C457 C459 1.327 . S
C457 C463 1.429 . S
C458 C450 1.574 . S
C458 H453 0.949 . S
C458 C464 1.368 . S
C459 C443 1.349 . S
C459 H451 0.950 . S
C459 C457 1.327 . S
C460 C448 1.349 . S
C460 H454 0.950 . S
C460 C461 1.327 . S
C461 H455 0.950 . S
C461 C460 1.327 . S
C461 C465 1.429 . S
C462 C445 1.574 . S
C462 H456 0.949 . S
C462 C466 1.368 . S
C463 C444 1.429 . S
C463 C457 1.429 . S
C463 C464 1.523 . S
C464 C445 1.368 . S
C464 C458 1.368 . S
C464 C463 1.523 . S
C465 C449 1.429 . S
C465 C461 1.429 . S
C465 C466 1.523 . S
C466 C450 1.368 . S
C466 C462 1.368 . S
C466 C465 1.523 . S
H467 C442 0.950 . S
H468 C444 0.950 . S
H469 C445 0.949 . S
H470 C447 0.950 . S
H471 C449 0.950 . S
C472 C473 1.349 . S
C472 C474 1.327 . S
C472 H497 0.950 . S
C473 C472 1.349 . S
C473 C489 1.349 . S
C474 C472 1.327 . S
C474 C493 1.429 . S
C474 H498 0.950 . S
C475 C492 1.574 . S
C475 C494 1.368 . S
C475 H499 0.949 . S
H476 C480 0.949 . S
C477 C478 1.349 . S
C477 C479 1.327 . S
C477 H500 0.950 . S
C478 C477 1.349 . S
C478 C490 1.349 . S
C479 C477 1.327 . S
C479 C495 1.429 . S
C479 H501 0.950 . S
C480 H476 0.949 . S
C480 C488 1.574 . S
C480 C496 1.368 . S
H481 C489 0.950 . S
H482 C487 0.950 . S
H483 C488 0.949 . S
H484 C490 0.950 . S
H485 C491 0.950 . S
H486 C492 0.949 . S
C487 H482 0.950 . S
C487 C489 1.327 . S
C487 C493 1.429 . S
C488 C480 1.574 . S
C488 H483 0.949 . S
C488 C494 1.368 . S
C489 C473 1.349 . S
C489 H481 0.950 . S
C489 C487 1.327 . S
C490 C478 1.349 . S
C490 H484 0.950 . S
C490 C491 1.327 . S
C491 H485 0.950 . S
C491 C490 1.327 . S
C491 C495 1.429 . S
C492 C475 1.574 . S
C492 H486 0.949 . S
C492 C496 1.368 . S
C493 C474 1.429 . S
C493 C487 1.429 . S
C493 C494 1.523 . S
C494 C475 1.368 . S
C494 C488 1.368 . S
C494 C493 1.523 . S
C495 C479 1.429 . S
C495 C491 1.429 . S
C495 C496 1.523 . S
C496 C480 1.368 . S
C496 C492 1.368 . S
C496 C495 1.523 . S
H497 C472 0.950 . S
H498 C474 0.950 . S
H499 C475 0.949 . S
H500 C477 0.950 . S
H501 C479 0.950 . S
C502 C503 1.349 . S
C502 C504 1.327 . S
C502 H527 0.950 . S
C503 C502 1.349 . S
C503 C519 1.349 . S
C504 C502 1.327 . S
C504 C523 1.429 . S
C504 H528 0.950 . S
C505 C522 1.574 . S
C505 C524 1.368 . S
C505 H529 0.949 . S
H506 C510 0.949 . S
C507 C508 1.349 . S
C507 C509 1.327 . S
C507 H530 0.950 . S
C508 C507 1.349 . S
C508 C520 1.349 . S
C509 C507 1.327 . S
C509 C525 1.429 . S
C509 H531 0.950 . S
C510 H506 0.949 . S
C510 C518 1.574 . S
C510 C526 1.368 . S
H511 C519 0.950 . S
H512 C517 0.950 . S
H513 C518 0.949 . S
H514 C520 0.950 . S
H515 C521 0.950 . S
H516 C522 0.949 . S
C517 H512 0.950 . S
C517 C519 1.327 . S
C517 C523 1.429 . S
C518 C510 1.574 . S
C518 H513 0.949 . S
C518 C524 1.368 . S
C519 C503 1.349 . S
C519 H511 0.950 . S
C519 C517 1.327 . S
C520 C508 1.349 . S
C520 H514 0.950 . S
C520 C521 1.327 . S
C521 H515 0.950 . S
C521 C520 1.327 . S
C521 C525 1.429 . S
C522 C505 1.574 . S
C522 H516 0.949 . S
C522 C526 1.368 . S
C523 C504 1.429 . S
C523 C517 1.429 . S
C523 C524 1.523 . S
C524 C505 1.368 . S
C524 C518 1.368 . S
C524 C523 1.523 . S
C525 C509 1.429 . S
C525 C521 1.429 . S
C525 C526 1.523 . S
C526 C510 1.368 . S
C526 C522 1.368 . S
C526 C525 1.523 . S
H527 C502 0.950 . S
H528 C504 0.950 . S
H529 C505 0.949 . S
H530 C507 0.950 . S
H531 C509 0.950 . S
C532 C533 1.349 . S
C532 C534 1.327 . S
C532 H557 0.950 . S
C533 C532 1.349 . S
C533 C549 1.349 . S
C534 C532 1.327 . S
C534 C553 1.429 . S
C534 H558 0.950 . S
C535 C552 1.574 . S
C535 C554 1.368 . S
C535 H559 0.949 . S
H536 C540 0.949 . S
C537 C538 1.349 . S
C537 C539 1.327 . S
C537 H560 0.950 . S
C538 C537 1.349 . S
C538 C550 1.349 . S
C539 C537 1.327 . S
C539 C555 1.429 . S
C539 H561 0.950 . S
C540 H536 0.949 . S
C540 C548 1.574 . S
C540 C556 1.368 . S
H541 C549 0.950 . S
H542 C547 0.950 . S
H543 C548 0.949 . S
H544 C550 0.950 . S
H545 C551 0.950 . S
H546 C552 0.949 . S
C547 H542 0.950 . S
C547 C549 1.327 . S
C547 C553 1.429 . S
C548 C540 1.574 . S
C548 H543 0.949 . S
C548 C554 1.368 . S
C549 C533 1.349 . S
C549 H541 0.950 . S
C549 C547 1.327 . S
C550 C538 1.349 . S
C550 H544 0.950 . S
C550 C551 1.327 . S
C551 H545 0.950 . S
C551 C550 1.327 . S
C551 C555 1.429 . S
C552 C535 1.574 . S
C552 H546 0.949 . S
C552 C556 1.368 . S
C553 C534 1.429 . S
C553 C547 1.429 . S
C553 C554 1.523 . S
C554 C535 1.368 . S
C554 C548 1.368 . S
C554 C553 1.523 . S
C555 C539 1.429 . S
C555 C551 1.429 . S
C555 C556 1.523 . S
C556 C540 1.368 . S
C556 C552 1.368 . S
C556 C555 1.523 . S
H557 C532 0.950 . S
H558 C534 0.950 . S
H559 C535 0.949 . S
H560 C537 0.950 . S
H561 C539 0.950 . S
C562 C563 1.349 . S
C562 C564 1.327 . S
C562 H587 0.950 . S
C563 C562 1.349 . S
C563 C579 1.349 . S
C564 C562 1.327 . S
C564 C583 1.429 . S
C564 H588 0.950 . S
C565 C582 1.574 . S
C565 C584 1.368 . S
C565 H589 0.949 . S
H566 C570 0.949 . S
C567 C568 1.349 . S
C567 C569 1.327 . S
C567 H590 0.950 . S
C568 C567 1.349 . S
C568 C580 1.349 . S
C569 C567 1.327 . S
C569 C585 1.429 . S
C569 H591 0.950 . S
C570 H566 0.949 . S
C570 C578 1.574 . S
C570 C586 1.368 . S
H571 C579 0.950 . S
H572 C577 0.950 . S
H573 C578 0.949 . S
H574 C580 0.950 . S
H575 C581 0.950 . S
H576 C582 0.949 . S
C577 H572 0.950 . S
C577 C579 1.327 . S
C577 C583 1.429 . S
C578 C570 1.574 . S
C578 H573 0.949 . S
C578 C584 1.368 . S
C579 C563 1.349 . S
C579 H571 0.950 . S
C579 C577 1.327 . S
C580 C568 1.349 . S
C580 H574 0.950 . S
C580 C581 1.327 . S
C581 H575 0.950 . S
C581 C580 1.327 . S
C581 C585 1.429 . S
C582 C565 1.574 . S
C582 H576 0.949 . S
C582 C586 1.368 . S
C583 C564 1.429 . S
C583 C577 1.429 . S
C583 C584 1.523 . S
C584 C565 1.368 . S
C584 C578 1.368 . S
C584 C583 1.523 . S
C585 C569 1.429 . S
C585 C581 1.429 . S
C585 C586 1.523 . S
C586 C570 1.368 . S
C586 C582 1.368 . S
C586 C585 1.523 . S
H587 C562 0.950 . S
H588 C564 0.950 . S
H589 C565 0.949 . S
H590 C567 0.950 . S
H591 C569 0.950 . S
C592 C593 1.349 . S
C592 C594 1.327 . S
C592 H617 0.950 . S
C593 C592 1.349 . S
C593 C609 1.349 . S
C594 C592 1.327 . S
C594 C613 1.429 . S
C594 H618 0.950 . S
C595 C612 1.574 . S
C595 C614 1.368 . S
C595 H619 0.949 . S
H596 C600 0.949 . S
C597 C598 1.349 . S
C597 C599 1.327 . S
C597 H620 0.950 . S
C598 C597 1.349 . S
C598 C610 1.349 . S
C599 C597 1.327 . S
C599 C615 1.429 . S
C599 H621 0.950 . S
C600 H596 0.949 . S
C600 C608 1.574 . S
C600 C616 1.368 . S
H601 C609 0.950 . S
H602 C607 0.950 . S
H603 C608 0.949 . S
H604 C610 0.950 . S
H605 C611 0.950 . S
H606 C612 0.949 . S
C607 H602 0.950 . S
C607 C609 1.327 . S
C607 C613 1.429 . S
C608 C600 1.574 . S
C608 H603 0.949 . S
C608 C614 1.368 . S
C609 C593 1.349 . S
C609 H601 0.950 . S
C609 C607 1.327 . S
C610 C598 1.349 . S
C610 H604 0.950 . S
C610 C611 1.327 . S
C611 H605 0.950 . S
C611 C610 1.327 . S
C611 C615 1.429 . S
C612 C595 1.574 . S
C612 H606 0.949 . S
C612 C616 1.368 . S
C613 C594 1.429 . S
C613 C607 1.429 . S
C613 C614 1.523 . S
C614 C595 1.368 . S
C614 C608 1.368 . S
C614 C613 1.523 . S
C615 C599 1.429 . S
C615 C611 1.429 . S
C615 C616 1.523 . S
C616 C600 1.368 . S
C616 C612 1.368 . S
C616 C615 1.523 . S
H617 C592 0.950 . S
H618 C594 0.950 . S
H619 C595 0.949 . S
H620 C597 0.950 . S
H621 C599 0.950 . S
C622 C623 1.349 . S
C622 C624 1.327 . S
C622 H647 0.950 . S
C623 C622 1.349 . S
C623 C639 1.349 . S
C624 C622 1.327 . S
C624 C643 1.429 . S
C624 H648 0.950 . S
C625 C642 1.574 . S
C625 C644 1.368 . S
C625 H649 0.949 . S
H626 C630 0.949 . S
C627 C628 1.349 . S
C627 C629 1.327 . S
C627 H650 0.950 . S
C628 C627 1.349 . S
C628 C640 1.349 . S
C629 C627 1.327 . S
C629 C645 1.429 . S
C629 H651 0.950 . S
C630 H626 0.949 . S
C630 C638 1.574 . S
C630 C646 1.368 . S
H631 C639 0.950 . S
H632 C637 0.950 . S
H633 C638 0.949 . S
H634 C640 0.950 . S
H635 C641 0.950 . S
H636 C642 0.949 . S
C637 H632 0.950 . S
C637 C639 1.327 . S
C637 C643 1.429 . S
C638 C630 1.574 . S
C638 H633 0.949 . S
C638 C644 1.368 . S
C639 C623 1.349 . S
C639 H631 0.950 . S
C639 C637 1.327 . S
C640 C628 1.349 . S
C640 H634 0.950 . S
C640 C641 1.327 . S
C641 H635 0.950 . S
C641 C640 1.327 . S
C641 C645 1.429 . S
C642 C625 1.574 . S
C642 H636 0.949 . S
C642 C646 1.368 . S
C643 C624 1.429 . S
C643 C637 1.429 . S
C643 C644 1.523 . S
C644 C625 1.368 . S
C644 C638 1.368 . S
C644 C643 1.523 . S
C645 C629 1.429 . S
C645 C641 1.429 . S
C645 C646 1.523 . S
C646 C630 1.368 . S
C646 C642 1.368 . S
C646 C645 1.523 . S
H647 C622 0.950 . S
H648 C624 0.950 . S
H649 C625 0.949 . S
H650 C627 0.950 . S
H651 C629 0.950 . S
C652 C653 1.349 . S
C652 C654 1.327 . S
C652 H677 0.950 . S
C653 C652 1.349 . S
C653 C669 1.349 . S
C654 C652 1.327 . S
C654 C673 1.429 . S
C654 H678 0.950 . S
C655 C672 1.574 . S
C655 C674 1.368 . S
C655 H679 0.949 . S
H656 C660 0.949 . S
C657 C658 1.349 . S
C657 C659 1.327 . S
C657 H680 0.950 . S
C658 C657 1.349 . S
C658 C670 1.349 . S
C659 C657 1.327 . S
C659 C675 1.429 . S
C659 H681 0.950 . S
C660 H656 0.949 . S
C660 C668 1.574 . S
C660 C676 1.368 . S
H661 C669 0.950 . S
H662 C667 0.950 . S
H663 C668 0.949 . S
H664 C670 0.950 . S
H665 C671 0.950 . S
H666 C672 0.949 . S
C667 H662 0.950 . S
C667 C669 1.327 . S
C667 C673 1.429 . S
C668 C660 1.574 . S
C668 H663 0.949 . S
C668 C674 1.368 . S
C669 C653 1.349 . S
C669 H661 0.950 . S
C669 C667 1.327 . S
C670 C658 1.349 . S
C670 H664 0.950 . S
C670 C671 1.327 . S
C671 H665 0.950 . S
C671 C670 1.327 . S
C671 C675 1.429 . S
C672 C655 1.574 . S
C672 H666 0.949 . S
C672 C676 1.368 . S
C673 C654 1.429 . S
C673 C667 1.429 . S
C673 C674 1.523 . S
C674 C655 1.368 . S
C674 C668 1.368 . S
C674 C673 1.523 . S
C675 C659 1.429 . S
C675 C671 1.429 . S
C675 C676 1.523 . S
C676 C660 1.368 . S
C676 C672 1.368 . S
C676 C675 1.523 . S
H677 C652 0.950 . S
H678 C654 0.950 . S
H679 C655 0.949 . S
H680 C657 0.950 . S
H681 C659 0.950 . S
C682 C683 1.349 . S
C682 C684 1.327 . S
C682 H707 0.950 . S
C683 C682 1.349 . S
C683 C699 1.349 . S
C684 C682 1.327 . S
C684 C703 1.429 . S
C684 H708 0.950 . S
C685 C702 1.574 . S
C685 C704 1.368 . S
C685 H709 0.949 . S
H686 C690 0.949 . S
C687 C688 1.349 . S
C687 C689 1.327 . S
C687 H710 0.950 . S
C688 C687 1.349 . S
C688 C700 1.349 . S
C689 C687 1.327 . S
C689 C705 1.429 . S
C689 H711 0.950 . S
C690 H686 0.949 . S
C690 C698 1.574 . S
C690 C706 1.368 . S
H691 C699 0.950 . S
H692 C697 0.950 . S
H693 C698 0.949 . S
H694 C700 0.950 . S
H695 C701 0.950 . S
H696 C702 0.949 . S
C697 H692 0.950 . S
C697 C699 1.327 . S
C697 C703 1.429 . S
C698 C690 1.574 . S
C698 H693 0.949 . S
C698 C704 1.368 . S
C699 C683 1.349 . S
C699 H691 0.950 . S
C699 C697 1.327 . S
C700 C688 1.349 . S
C700 H694 0.950 . S
C700 C701 1.327 . S
C701 H695 0.950 . S
C701 C700 1.327 . S
C701 C705 1.429 . S
C702 C685 1.574 . S
C702 H696 0.949 . S
C702 C706 1.368 . S
C703 C684 1.429 . S
C703 C697 1.429 . S
C703 C704 1.523 . S
C704 C685 1.368 . S
C704 C698 1.368 . S
C704 C703 1.523 . S
C705 C689 1.429 . S
C705 C701 1.429 . S
C705 C706 1.523 . S
C706 C690 1.368 . S
C706 C702 1.368 . S
C706 C705 1.523 . S
H707 C682 0.950 . S
H708 C684 0.950 . S
H709 C685 0.949 . S
H710 C687 0.950 . S
H711 C689 0.950 . S
C712 C713 1.349 . S
C712 C714 1.327 . S
C712 H737 0.950 . S
C713 C712 1.349 . S
C713 C729 1.349 . S
C714 C712 1.327 . S
C714 C733 1.429 . S
C714 H738 0.950 . S
C715 C732 1.574 . S
C715 C734 1.368 . S
C715 H739 0.949 . S
H716 C720 0.949 . S
C717 C718 1.349 . S
C717 C719 1.327 . S
C717 H740 0.950 . S
C718 C717 1.349 . S
C718 C730 1.349 . S
C719 C717 1.327 . S
C719 C735 1.429 . S
C719 H741 0.950 . S
C720 H716 0.949 . S
C720 C728 1.574 . S
C720 C736 1.368 . S
H721 C729 0.950 . S
H722 C727 0.950 . S
H723 C728 0.949 . S
H724 C730 0.950 . S
H725 C731 0.950 . S
H726 C732 0.949 . S
C727 H722 0.950 . S
C727 C729 1.327 . S
C727 C733 1.429 . S
C728 C720 1.574 . S
C728 H723 0.949 . S
C728 C734 1.368 . S
C729 C713 1.349 . S
C729 H721 0.950 . S
C729 C727 1.327 . S
C730 C718 1.349 . S
C730 H724 0.950 . S
C730 C731 1.327 . S
C731 H725 0.950 . S
C731 C730 1.327 . S
C731 C735 1.429 . S
C732 C715 1.574 . S
C732 H726 0.949 . S
C732 C736 1.368 . S
C733 C714 1.429 . S
C733 C727 1.429 . S
C733 C734 1.523 . S
C734 C715 1.368 . S
C734 C728 1.368 . S
C734 C733 1.523 . S
C735 C719 1.429 . S
C735 C731 1.429 . S
C735 C736 1.523 . S
C736 C720 1.368 . S
C736 C732 1.368 . S
C736 C735 1.523 . S
H737 C712 0.950 . S
H738 C714 0.950 . S
H739 C715 0.949 . S
H740 C717 0.950 . S
H741 C719 0.950 . S
C742 C743 1.349 . S
C742 C744 1.327 . S
C742 H767 0.950 . S
C743 C742 1.349 . S
C743 C759 1.349 . S
C744 C742 1.327 . S
C744 C763 1.429 . S
C744 H768 0.950 . S
C745 C762 1.574 . S
C745 C764 1.368 . S
C745 H769 0.949 . S
H746 C750 0.949 . S
C747 C748 1.349 . S
C747 C749 1.327 . S
C747 H770 0.950 . S
C748 C747 1.349 . S
C748 C760 1.349 . S
C749 C747 1.327 . S
C749 C765 1.429 . S
C749 H771 0.950 . S
C750 H746 0.949 . S
C750 C758 1.574 . S
C750 C766 1.368 . S
H751 C759 0.950 . S
H752 C757 0.950 . S
H753 C758 0.949 . S
H754 C760 0.950 . S
H755 C761 0.950 . S
H756 C762 0.949 . S
C757 H752 0.950 . S
C757 C759 1.327 . S
C757 C763 1.429 . S
C758 C750 1.574 . S
C758 H753 0.949 . S
C758 C764 1.368 . S
C759 C743 1.349 . S
C759 H751 0.950 . S
C759 C757 1.327 . S
C760 C748 1.349 . S
C760 H754 0.950 . S
C760 C761 1.327 . S
C761 H755 0.950 . S
C761 C760 1.327 . S
C761 C765 1.429 . S
C762 C745 1.574 . S
C762 H756 0.949 . S
C762 C766 1.368 . S
C763 C744 1.429 . S
C763 C757 1.429 . S
C763 C764 1.523 . S
C764 C745 1.368 . S
C764 C758 1.368 . S
C764 C763 1.523 . S
C765 C749 1.429 . S
C765 C761 1.429 . S
C765 C766 1.523 . S
C766 C750 1.368 . S
C766 C762 1.368 . S
C766 C765 1.523 . S
H767 C742 0.950 . S
H768 C744 0.950 . S
H769 C745 0.949 . S
H770 C747 0.950 . S
H771 C749 0.950 . S
C772 C773 1.349 . S
C772 C774 1.327 . S
C772 H797 0.950 . S
C773 C772 1.349 . S
C773 C789 1.349 . S
C774 C772 1.327 . S
C774 C793 1.429 . S
C774 H798 0.950 . S
C775 C792 1.574 . S
C775 C794 1.368 . S
C775 H799 0.949 . S
H776 C780 0.949 . S
C777 C778 1.349 . S
C777 C779 1.327 . S
C777 H800 0.950 . S
C778 C777 1.349 . S
C778 C790 1.349 . S
C779 C777 1.327 . S
C779 C795 1.429 . S
C779 H801 0.950 . S
C780 H776 0.949 . S
C780 C788 1.574 . S
C780 C796 1.368 . S
H781 C789 0.950 . S
H782 C787 0.950 . S
H783 C788 0.949 . S
H784 C790 0.950 . S
H785 C791 0.950 . S
H786 C792 0.949 . S
C787 H782 0.950 . S
C787 C789 1.327 . S
C787 C793 1.429 . S
C788 C780 1.574 . S
C788 H783 0.949 . S
C788 C794 1.368 . S
C789 C773 1.349 . S
C789 H781 0.950 . S
C789 C787 1.327 . S
C790 C778 1.349 . S
C790 H784 0.950 . S
C790 C791 1.327 . S
C791 H785 0.950 . S
C791 C790 1.327 . S
C791 C795 1.429 . S
C792 C775 1.574 . S
C792 H786 0.949 . S
C792 C796 1.368 . S
C793 C774 1.429 . S
C793 C787 1.429 . S
C793 C794 1.523 . S
C794 C775 1.368 . S
C794 C788 1.368 . S
C794 C793 1.523 . S
C795 C779 1.429 . S
C795 C791 1.429 . S
C795 C796 1.523 . S
C796 C780 1.368 . S
C796 C792 1.368 . S
C796 C795 1.523 . S
H797 C772 0.950 . S
H798 C774 0.950 . S
H799 C775 0.949 . S
H800 C777 0.950 . S
H801 C779 0.950 . S
C802 C803 1.349 1_554 S
C802 C804 1.327 . S
C802 H827 0.950 . S
C803 C802 1.349 1_556 S
C803 C819 1.349 . S
C804 C802 1.327 . S
C804 C823 1.429 . S
C804 H828 0.950 . S
C805 C822 1.574 . S
C805 C824 1.368 . S
C805 H829 0.949 . S
H806 C810 0.949 . S
C807 C808 1.349 . S
C807 C809 1.327 . S
C807 H830 0.950 . S
C808 C807 1.349 . S
C808 C820 1.349 . S
C809 C807 1.327 . S
C809 C825 1.429 . S
C809 H831 0.950 . S
C810 H806 0.949 . S
C810 C818 1.574 . S
C810 C826 1.368 . S
H811 C819 0.950 . S
H812 C817 0.950 . S
H813 C818 0.949 . S
H814 C820 0.950 . S
H815 C821 0.950 . S
H816 C822 0.949 . S
C817 H812 0.950 . S
C817 C819 1.327 . S
C817 C823 1.429 1_556 S
C818 C810 1.574 . S
C818 H813 0.949 . S
C818 C824 1.368 . S
C819 C803 1.349 . S
C819 H811 0.950 . S
C819 C817 1.327 . S
C820 C808 1.349 . S
C820 H814 0.950 . S
C820 C821 1.327 . S
C821 H815 0.950 . S
C821 C820 1.327 . S
C821 C825 1.429 . S
C822 C805 1.574 . S
C822 H816 0.949 . S
C822 C826 1.368 . S
C823 C804 1.429 . S
C823 C817 1.429 1_554 S
C823 C824 1.523 . S
C824 C805 1.368 . S
C824 C818 1.368 . S
C824 C823 1.523 . S
C825 C809 1.429 . S
C825 C821 1.429 . S
C825 C826 1.523 . S
C826 C810 1.368 . S
C826 C822 1.368 . S
C826 C825 1.523 . S
H827 C802 0.950 . S
H828 C804 0.950 . S
H829 C805 0.949 . S
H830 C807 0.950 . S
H831 C809 0.950 . S
C832 C833 1.349 . S
C832 C834 1.327 . S
C832 H857 0.950 . S
C833 C832 1.349 . S
C833 C849 1.349 . S
C834 C832 1.327 . S
C834 C853 1.429 . S
C834 H858 0.950 . S
C835 C852 1.574 . S
C835 C854 1.368 . S
C835 H859 0.949 . S
H836 C840 0.949 . S
C837 C838 1.349 . S
C837 C839 1.327 . S
C837 H860 0.950 . S
C838 C837 1.349 . S
C838 C850 1.349 . S
C839 C837 1.327 . S
C839 C855 1.429 . S
C839 H861 0.950 . S
C840 H836 0.949 . S
C840 C848 1.574 . S
C840 C856 1.368 . S
H841 C849 0.950 . S
H842 C847 0.950 . S
H843 C848 0.949 . S
H844 C850 0.950 . S
H845 C851 0.950 . S
H846 C852 0.949 . S
C847 H842 0.950 . S
C847 C849 1.327 . S
C847 C853 1.429 . S
C848 C840 1.574 . S
C848 H843 0.949 . S
C848 C854 1.368 . S
C849 C833 1.349 . S
C849 H841 0.950 . S
C849 C847 1.327 . S
C850 C838 1.349 . S
C850 H844 0.950 . S
C850 C851 1.327 . S
C851 H845 0.950 . S
C851 C850 1.327 . S
C851 C855 1.429 . S
C852 C835 1.574 . S
C852 H846 0.949 . S
C852 C856 1.368 . S
C853 C834 1.429 . S
C853 C847 1.429 . S
C853 C854 1.523 . S
C854 C835 1.368 . S
C854 C848 1.368 . S
C854 C853 1.523 . S
C855 C839 1.429 . S
C855 C851 1.429 . S
C855 C856 1.523 . S
C856 C840 1.368 . S
C856 C852 1.368 . S
C856 C855 1.523 . S
H857 C832 0.950 . S
H858 C834 0.950 . S
H859 C835 0.949 . S
H860 C837 0.950 . S
H861 C839 0.950 . S
C862 C863 1.349 . S
C862 C864 1.327 . S
C862 H887 0.950 . S
C863 C862 1.349 . S
C863 C879 1.349 . S
C864 C862 1.327 . S
C864 C883 1.429 . S
C864 H888 0.950 . S
C865 C882 1.574 . S
C865 C884 1.368 . S
C865 H889 0.949 . S
H866 C870 0.949 . S
C867 C868 1.349 . S
C867 C869 1.327 . S
C867 H890 0.950 . S
C868 C867 1.349 . S
C868 C880 1.349 . S
C869 C867 1.327 . S
C869 C885 1.429 . S
C869 H891 0.950 . S
C870 H866 0.949 . S
C870 C878 1.574 . S
C870 C886 1.368 . S
H871 C879 0.950 . S
H872 C877 0.950 . S
H873 C878 0.949 . S
H874 C880 0.950 . S
H875 C881 0.950 . S
H876 C882 0.949 . S
C877 H872 0.950 . S
C877 C879 1.327 . S
C877 C883 1.429 . S
C878 C870 1.574 . S
C878 H873 0.949 . S
C878 C884 1.368 . S
C879 C863 1.349 . S
C879 H871 0.950 . S
C879 C877 1.327 . S
C880 C868 1.349 . S
C880 H874 0.950 . S
C880 C881 1.327 . S
C881 H875 0.950 . S
C881 C880 1.327 . S
C881 C885 1.429 . S
C882 C865 1.574 . S
C882 H876 0.949 . S
C882 C886 1.368 . S
C883 C864 1.429 . S
C883 C877 1.429 . S
C883 C884 1.523 . S
C884 C865 1.368 . S
C884 C878 1.368 . S
C884 C883 1.523 . S
C885 C869 1.429 . S
C885 C881 1.429 . S
C885 C886 1.523 . S
C886 C870 1.368 . S
C886 C882 1.368 . S
C886 C885 1.523 . S
H887 C862 0.950 . S
H888 C864 0.950 . S
H889 C865 0.949 . S
H890 C867 0.950 . S
H891 C869 0.950 . S
C178 C100 1.520 . S
C173 C10 1.516 . S
C208 C103 1.702 . S
C203 C15 1.703 . S
C238 C101 1.402 . S
C233 C26 1.402 . S
C268 C102 1.487 1_655 S
C263 C37 1.498 . S
C298 C117 1.803 . S
C293 C4 1.806 . S
C328 C131 1.686 . S
C323 C16 1.674 . S
C353 C27 1.616 . S
C358 C157 1.621 . S
C388 C171 1.389 . S
C383 C43 1.372 1_554 S
C418 C116 1.721 . S
C413 C21 1.714 . S
C443 C32 1.423 . S
C448 C130 1.411 . S
C478 C156 1.607 . S
C473 C38 1.592 . S
C508 C170 1.581 . S
C503 C5 1.573 . S
C533 C49 1.760 . S
C538 C115 1.758 1_655 S
C568 C88 1.593 . S
C563 C60 1.586 . S
C593 C76 1.598 . S
C598 C114 1.589 . S
C623 C81 1.533 . S
C628 C89 1.548 . S
C658 C144 1.462 . S
C653 C54 1.460 . S
C688 C158 1.612 . S
C683 C59 1.612 . S
C718 C128 1.607 . S
C713 C70 1.612 . S
C743 C87 1.650 . S
C748 C142 1.641 . S
C778 C145 1.532 . S
C773 C65 1.524 . S
C808 C159 1.646 . S
C803 C71 1.625 . S
C838 C129 1.602 . S
C833 C82 1.593 . S
C863 C48 1.742 . S
C868 C143 1.731 . S
