# Generated by pormake.
# Topology ant, (3,6)-cn, num edge types: 1
# Building blocks:
#     Node 0, Type 0, BuildingBlock: QEWDON_clean_linker_0, # of connection points: 3
#     Node 1, Type 0, BuildingBlock: QEWDON_clean_linker_0, # of connection points: 3
#     Node 2, Type 0, BuildingBlock: QEWDON_clean_linker_0, # of connection points: 3
#     Node 3, Type 0, BuildingBlock: QEWDON_clean_linker_0, # of connection points: 3
#     Node 4, Type 0, BuildingBlock: QEWDON_clean_linker_0, # of connection points: 3
#     Node 5, Type 0, BuildingBlock: QEWDON_clean_linker_0, # of connection points: 3
#     Node 6, Type 0, BuildingBlock: QEWDON_clean_linker_0, # of connection points: 3
#     Node 7, Type 0, BuildingBlock: QEWDON_clean_linker_0, # of connection points: 3
#     Node 8, Type 1, BuildingBlock: MIDCAF_clean_sbu_0, # of connection points: 6
#     Node 9, Type 1, BuildingBlock: MIDCAF_clean_sbu_0, # of connection points: 6
#     Node 10, Type 1, BuildingBlock: MIDCAF_clean_sbu_0, # of connection points: 6
#     Node 11, Type 1, BuildingBlock: MIDCAF_clean_sbu_0, # of connection points: 6
#     Edge 12, Type (0, 1), BuildingBlock: AJUNOK_clean_linker_0, # of connection points: 2
#     Edge 13, Type (0, 1), BuildingBlock: AJUNOK_clean_linker_0, # of connection points: 2
#     Edge 14, Type (0, 1), BuildingBlock: AJUNOK_clean_linker_0, # of connection points: 2
#     Edge 15, Type (0, 1), BuildingBlock: AJUNOK_clean_linker_0, # of connection points: 2
#     Edge 16, Type (0, 1), BuildingBlock: AJUNOK_clean_linker_0, # of connection points: 2
#     Edge 17, Type (0, 1), BuildingBlock: AJUNOK_clean_linker_0, # of connection points: 2
#     Edge 18, Type (0, 1), BuildingBlock: AJUNOK_clean_linker_0, # of connection points: 2
#     Edge 19, Type (0, 1), BuildingBlock: AJUNOK_clean_linker_0, # of connection points: 2
#     Edge 20, Type (0, 1), BuildingBlock: AJUNOK_clean_linker_0, # of connection points: 2
#     Edge 21, Type (0, 1), BuildingBlock: AJUNOK_clean_linker_0, # of connection points: 2
#     Edge 22, Type (0, 1), BuildingBlock: AJUNOK_clean_linker_0, # of connection points: 2
#     Edge 23, Type (0, 1), BuildingBlock: AJUNOK_clean_linker_0, # of connection points: 2
#     Edge 24, Type (0, 1), BuildingBlock: AJUNOK_clean_linker_0, # of connection points: 2
#     Edge 25, Type (0, 1), BuildingBlock: AJUNOK_clean_linker_0, # of connection points: 2
#     Edge 26, Type (0, 1), BuildingBlock: AJUNOK_clean_linker_0, # of connection points: 2
#     Edge 27, Type (0, 1), BuildingBlock: AJUNOK_clean_linker_0, # of connection points: 2
#     Edge 28, Type (0, 1), BuildingBlock: AJUNOK_clean_linker_0, # of connection points: 2
#     Edge 29, Type (0, 1), BuildingBlock: AJUNOK_clean_linker_0, # of connection points: 2
#     Edge 30, Type (0, 1), BuildingBlock: AJUNOK_clean_linker_0, # of connection points: 2
#     Edge 31, Type (0, 1), BuildingBlock: AJUNOK_clean_linker_0, # of connection points: 2
#     Edge 32, Type (0, 1), BuildingBlock: AJUNOK_clean_linker_0, # of connection points: 2
#     Edge 33, Type (0, 1), BuildingBlock: AJUNOK_clean_linker_0, # of connection points: 2
#     Edge 34, Type (0, 1), BuildingBlock: AJUNOK_clean_linker_0, # of connection points: 2
#     Edge 35, Type (0, 1), BuildingBlock: AJUNOK_clean_linker_0, # of connection points: 2
# Relax obj value: 0.062
# Max RMSD: 0.160
# Mean RMSD: 0.123
data_MOF--net-ant--node1-MIDCAF_clean_sbu_0--node2-QEWDON_clean_linker_0--edge1-AJUNOK_clean_linker_0
_symmetry_space_group_name_H-M    P1
_symmetry_Int_Tables_number       1
_symmetry_cell_setting            triclinic
loop_
_symmetry_equiv_pos_as_xyz
'x, y, z'
_cell_length_a     22.88354
_cell_length_b     22.654353
_cell_length_c     51.295515
_cell_angle_alpha  95.65845
_cell_angle_beta   101.48351
_cell_angle_gamma 89.207055
loop_
_atom_site_label
_atom_site_type_symbol
_atom_site_fract_x
_atom_site_fract_y
_atom_site_fract_z
_atom_type_partial_charge
H0 H 0.15731 0.18123 0.05359 0.0
C1 C 0.16012 0.22873 0.05889 0.0
C2 C 0.14432 0.26652 0.03859 0.0
C3 C 0.17628 0.25198 0.08586 0.0
H4 H 0.13401 0.35712 0.02914 0.0
C5 C 0.14518 0.32822 0.04503 0.0
C6 C 0.16189 0.35307 0.07153 0.0
C7 C 0.17753 0.31451 0.09186 0.0
C8 C 0.18618 0.21101 0.10767 0.0
H9 H 0.18979 0.33339 0.11242 0.0
C10 C 0.21009 0.15321 0.10405 0.0
C11 C 0.21023 0.11165 0.12309 0.0
C12 C 0.16667 0.22794 0.13162 0.0
H13 H 0.14686 0.2709 0.13514 0.0
C14 C 0.16948 0.18867 0.15103 0.0
H15 H 0.22799 0.14081 0.08633 0.0
C16 C 0.18986 0.13108 0.14668 0.0
H17 H 0.18713 0.1012 0.16161 0.0
H18 H 0.15336 0.20221 0.16915 0.0
H19 H 0.02071 0.80887 0.28736 0.0
C20 C 0.06687 0.80547 0.29737 0.0
C21 C 0.1091 0.78603 0.28231 0.0
C22 C 0.08436 0.82168 0.32501 0.0
H23 H 0.20169 0.768 0.28253 0.0
C24 C 0.16928 0.78351 0.29445 0.0
C25 C 0.18792 0.79895 0.32187 0.0
C26 C 0.14533 0.8175 0.33728 0.0
C27 C 0.03907 0.84568 0.34038 0.0
H28 H 0.15966 0.82855 0.35862 0.0
C29 C 0.98019 0.82272 0.33468 0.0
C30 C 0.93608 0.85009 0.34716 0.0
C31 C 0.0533 0.89487 0.35951 0.0
H32 H 0.09763 0.91417 0.36404 0.0
C33 C 0.0098 0.92124 0.3723 0.0
H34 H 0.9683 0.78436 0.32029 0.0
C35 C 0.95151 0.89936 0.36606 0.0
H36 H 0.91836 0.92071 0.37616 0.0
H37 H 0.02114 0.95932 0.38687 0.0
H38 H 0.71252 0.67651 0.54625 0.0
C39 C 0.69963 0.72143 0.55188 0.0
C40 C 0.68231 0.75989 0.53185 0.0
C41 C 0.70385 0.74209 0.57905 0.0
H42 H 0.65556 0.84872 0.52327 0.0
C43 C 0.66844 0.81914 0.53881 0.0
C44 C 0.67057 0.84061 0.56547 0.0
C45 C 0.68754 0.80168 0.58547 0.0
C46 C 0.73012 0.70372 0.60077 0.0
H47 H 0.68955 0.81856 0.60613 0.0
C48 C 0.72137 0.64124 0.5981 0.0
C49 C 0.74793 0.60645 0.61881 0.0
C50 C 0.76666 0.72997 0.62435 0.0
H51 H 0.77635 0.77705 0.62702 0.0
C52 C 0.79296 0.69582 0.64465 0.0
H53 H 0.69307 0.61982 0.58032 0.0
C54 C 0.7839 0.63471 0.64193 0.0
H55 H 0.80574 0.6093 0.6579 0.0
H56 H 0.82113 0.71686 0.66255 0.0
H57 H 0.53149 0.31538 0.79161 0.0
C58 C 0.57836 0.3185 0.80092 0.0
C59 C 0.62084 0.30169 0.78557 0.0
C60 C 0.59626 0.3402 0.82797 0.0
H61 H 0.71388 0.2924 0.78482 0.0
C62 C 0.68156 0.30668 0.79697 0.0
C63 C 0.70103 0.3286 0.8238 0.0
C64 C 0.65797 0.34521 0.83932 0.0
C65 C 0.55014 0.35963 0.84374 0.0
H66 H 0.67242 0.36193 0.86011 0.0
C67 C 0.49614 0.32756 0.84056 0.0
C68 C 0.45098 0.3489 0.85393 0.0
C69 C 0.55845 0.41234 0.86101 0.0
H70 H 0.59886 0.43842 0.86361 0.0
C71 C 0.51378 0.43311 0.87448 0.0
H72 H 0.48907 0.28628 0.82773 0.0
C73 C 0.46023 0.40184 0.87087 0.0
H74 H 0.42608 0.41867 0.88151 0.0
H75 H 0.52051 0.47391 0.88762 0.0
H76 H 0.99358 0.78477 0.94292 0.0
C77 C 0.99898 0.74297 0.93143 0.0
C78 C 0.01335 0.69156 0.94465 0.0
C79 C 0.99071 0.74048 0.90343 0.0
H80 H 0.03224 0.5982 0.93977 0.0
C81 C 0.02054 0.63791 0.9297 0.0
C82 C 0.01296 0.63485 0.90186 0.0
C83 C 0.99784 0.6859 0.88869 0.0
C84 C 0.97209 0.79419 0.88955 0.0
H85 H 0.99267 0.68329 0.86713 0.0
C86 C 1.00107 0.84941 0.89821 0.0
C87 C 0.98133 0.90012 0.88522 0.0
C88 C 0.92376 0.79044 0.86772 0.0
H89 H 0.90053 0.74874 0.8608 0.0
C90 C 0.90405 0.84066 0.85496 0.0
H91 H 0.03898 0.85281 0.91475 0.0
C92 C 0.93241 0.89515 0.86366 0.0
H93 H 0.91691 0.93338 0.85314 0.0
H94 H 0.86669 0.83733 0.8382 0.0
H95 H 0.68005 0.77447 0.20084 0.0
C96 C 0.64045 0.79554 0.19071 0.0
C97 C 0.59597 0.81312 0.20534 0.0
C98 C 0.63079 0.79957 0.16273 0.0
H99 H 0.50968 0.85418 0.20319 0.0
C100 C 0.54374 0.83926 0.19211 0.0
C101 C 0.52809 0.83096 0.16436 0.0
C102 C 0.57296 0.8165 0.14987 0.0
C103 C 0.67754 0.7794 0.14665 0.0
H104 H 0.55977 0.81486 0.12845 0.0
C105 C 0.73883 0.77441 0.15875 0.0
C106 C 0.78121 0.75408 0.14335 0.0
C107 C 0.66132 0.76472 0.11865 0.0
H108 H 0.61594 0.76533 0.10781 0.0
C109 C 0.70364 0.7474 0.10342 0.0
H110 H 0.75426 0.78663 0.1799 0.0
C111 C 0.76291 0.7419 0.11559 0.0
H112 H 0.79492 0.72906 0.10311 0.0
H113 H 0.69025 0.73779 0.08197 0.0
H114 H 0.52881 0.24631 0.44811 0.0
C115 C 0.53099 0.20463 0.43598 0.0
C116 C 0.54526 0.15247 0.44851 0.0
C117 C 0.51631 0.20266 0.40796 0.0
H118 H 0.55626 0.05818 0.44295 0.0
C119 C 0.54612 0.09848 0.43313 0.0
C120 C 0.53104 0.09529 0.40528 0.0
C121 C 0.51603 0.14723 0.39257 0.0
C122 C 0.4948 0.25733 0.39525 0.0
H123 H 0.50371 0.14442 0.37096 0.0
C124 C 0.52601 0.312 0.40238 0.0
C125 C 0.5021 0.36405 0.39143 0.0
C126 C 0.44013 0.25557 0.37696 0.0
H127 H 0.41494 0.21456 0.37141 0.0
C128 C 0.41635 0.30699 0.3663 0.0
H129 H 0.56851 0.314 0.41626 0.0
C130 C 0.44685 0.36081 0.37352 0.0
H131 H 0.42783 0.39993 0.3646 0.0
H132 H 0.37399 0.30514 0.35236 0.0
H133 H 0.20028 0.31502 0.69899 0.0
C134 C 0.15362 0.312 0.68947 0.0
C135 C 0.11179 0.30256 0.70516 0.0
C136 C 0.13522 0.31652 0.6618 0.0
H137 H 0.01877 0.29148 0.70581 0.0
C138 C 0.05089 0.30027 0.69368 0.0
C139 C 0.03151 0.30434 0.6663 0.0
C140 C 0.0737 0.31135 0.65037 0.0
C141 C 0.17979 0.32613 0.64488 0.0
H142 H 0.05822 0.31126 0.629 0.0
C143 C 0.23921 0.30584 0.65155 0.0
C144 C 0.28118 0.31849 0.63629 0.0
C145 C 0.16356 0.35762 0.62214 0.0
H146 H 0.11925 0.37555 0.61662 0.0
C147 C 0.20486 0.36808 0.60647 0.0
H148 H 0.25346 0.28092 0.66863 0.0
C149 C 0.26344 0.34902 0.61357 0.0
H150 H 0.29533 0.3589 0.60153 0.0
H151 H 0.19171 0.39224 0.58907 0.0
Zn152 Zn 0.22694 0.64217 0.16048 0.0
Zn153 Zn 0.06884 0.81153 0.10412 0.0
Zn154 Zn 0.14058 0.73307 0.11779 0.0
C155 C 0.06003 0.72591 0.05987 0.0
C156 C 0.17825 0.86684 0.11224 0.0
O157 O 0.11626 0.71998 0.15662 0.0
O158 O 0.17326 0.66385 0.18514 0.0
C159 C 0.15879 0.6089 0.10107 0.0
O160 O 0.10032 0.69971 0.07598 0.0
O161 O 0.03887 0.77459 0.06776 0.0
O162 O 0.12318 0.87668 0.10649 0.0
O163 O 0.19719 0.81444 0.1175 0.0
O164 O 0.18563 0.62213 0.12449 0.0
O165 O 0.1316 0.65108 0.08895 0.0
O166 O 0.23634 0.76344 0.12861 0.0
O167 O 0.28664 0.70197 0.15696 0.0
C168 C 0.28532 0.74561 0.14308 0.0
O169 O 0.06361 0.74348 0.1399 0.0
O170 O 0.01071 0.82138 0.12717 0.0
C171 C 0.12886 0.6973 0.17925 0.0
C172 C 0.01855 0.77811 0.14104 0.0
Zn173 Zn 0.52346 0.65243 0.33596 0.0
Zn174 Zn 0.67871 0.86099 0.41405 0.0
Zn175 Zn 0.57439 0.73022 0.36426 0.0
C176 C 0.55189 0.84597 0.38245 0.0
C177 C 0.70734 0.80326 0.36131 0.0
O178 O 0.5781 0.64283 0.38403 0.0
O179 O 0.55784 0.57817 0.3484 0.0
C180 C 0.4339 0.72888 0.34693 0.0
O181 O 0.51642 0.8071 0.36839 0.0
O182 O 0.60049 0.82627 0.39458 0.0
O183 O 0.7182 0.8397 0.38249 0.0
O184 O 0.66107 0.76759 0.35472 0.0
O185 O 0.43959 0.67408 0.3405 0.0
O186 O 0.48084 0.76175 0.35456 0.0
O187 O 0.61714 0.73876 0.33021 0.0
O188 O 0.54865 0.6801 0.30505 0.0
C189 C 0.58928 0.71819 0.3069 0.0
O190 O 0.60289 0.69088 0.40198 0.0
O191 O 0.63983 0.77868 0.40762 0.0
C192 C 0.5738 0.58843 0.37336 0.0
C193 C 0.63411 0.73075 0.41766 0.0
Zn194 Zn 0.58313 0.29893 0.59529 0.0
Zn195 Zn 0.70153 0.15825 0.64945 0.0
Zn196 Zn 0.64592 0.22831 0.62054 0.0
C197 C 0.78449 0.23627 0.63774 0.0
C198 C 0.65342 0.08496 0.60649 0.0
O199 O 0.56403 0.25003 0.63791 0.0
O200 O 0.52394 0.32522 0.6165 0.0
C201 C 0.68633 0.3579 0.60562 0.0
O202 O 0.73689 0.26646 0.63056 0.0
O203 O 0.78053 0.18466 0.64455 0.0
O204 O 0.67136 0.08198 0.63115 0.0
O205 O 0.64636 0.13638 0.59725 0.0
O206 O 0.63696 0.36002 0.58977 0.0
O207 O 0.69865 0.31278 0.61942 0.0
O208 O 0.61705 0.18036 0.58053 0.0
O209 O 0.55149 0.24586 0.56382 0.0
C210 C 0.57708 0.19672 0.56121 0.0
O211 O 0.60928 0.22783 0.65739 0.0
O212 O 0.67819 0.18035 0.68377 0.0
C213 C 0.52271 0.28941 0.63363 0.0
C214 C 0.63111 0.21052 0.68049 0.0
Zn215 Zn 0.02815 0.19112 0.8333 0.0
Zn216 Zn 0.15463 0.31371 0.89649 0.0
Zn217 Zn 0.08645 0.2616 0.86666 0.0
C218 C 0.10917 0.25304 0.92809 0.0
C219 C 0.08081 0.39663 0.87396 0.0
O220 O 0.12851 0.25467 0.83107 0.0
O221 O 0.05856 0.20554 0.80129 0.0
C222 C 0.06429 0.12418 0.87373 0.0
O223 O 0.09993 0.22117 0.90541 0.0
O224 O 0.12526 0.30631 0.92934 0.0
O225 O 0.13643 0.38895 0.87998 0.0
O226 O 0.04628 0.35091 0.87105 0.0
O227 O 0.04988 0.11577 0.84864 0.0
O228 O 0.07481 0.17735 0.88519 0.0
O229 O 1.00031 0.30798 0.85824 0.0
O230 O 0.95042 0.22784 0.83813 0.0
C231 C 0.95056 0.28102 0.84822 0.0
O232 O 0.17375 0.27074 0.85287 0.0
O233 O 0.23059 0.27336 0.89285 0.0
C234 C 0.10699 0.23417 0.80677 0.0
C235 C 0.22617 0.26863 0.86785 0.0
C236 C 0.11576 0.45478 0.06551 0.0
C237 C 0.16296 0.41927 0.07765 0.0
C238 C 0.11551 0.51703 0.07156 0.0
C239 C 0.16263 0.546 0.0899 0.0
H240 H 0.07774 0.43408 0.05183 0.0
H241 H 0.07717 0.54206 0.06277 0.0
S242 S 0.3002 0.4749 0.12469 0.0
N243 N 0.26031 0.41927 0.10701 0.0
N244 N 0.26025 0.53481 0.11838 0.0
C245 C 0.21128 0.51119 0.10114 0.0
C246 C 0.21132 0.44834 0.0951 0.0
C247 C 0.86046 0.77362 0.35024 0.0
C248 C 0.87376 0.82767 0.34132 0.0
C249 C 0.8019 0.76025 0.35249 0.0
C250 C 0.75511 0.80045 0.34581 0.0
H251 H 0.89622 0.74433 0.35794 0.0
H252 H 0.79464 0.7217 0.36242 0.0
S253 S 0.76515 0.942 0.31652 0.0
N254 N 0.83421 0.91686 0.32182 0.0
N255 N 0.72454 0.8919 0.32629 0.0
C256 C 0.76694 0.85111 0.334 0.0
C257 C 0.82628 0.86478 0.33176 0.0
C258 C 0.74756 0.50417 0.59415 0.0
C259 C 0.73861 0.54075 0.61683 0.0
C260 C 0.73752 0.44247 0.59186 0.0
C261 C 0.71924 0.41479 0.61235 0.0
H262 H 0.76103 0.52356 0.57777 0.0
H263 H 0.74081 0.41664 0.57328 0.0
S264 S 0.68663 0.49049 0.67519 0.0
N265 N 0.70853 0.54444 0.65985 0.0
N266 N 0.6912 0.42885 0.65567 0.0
C267 C 0.71204 0.45053 0.63544 0.0
C268 C 0.72124 0.51332 0.63764 0.0
C269 C 0.80569 0.3522 0.81992 0.0
C270 C 0.76654 0.33078 0.83497 0.0
C271 C 0.86721 0.3412 0.82598 0.0
C272 C 0.89211 0.30961 0.84767 0.0
H273 H 0.78807 0.37429 0.80224 0.0
H274 H 0.89484 0.35408 0.81259 0.0
S275 S 0.8111 0.24904 0.89495 0.0
N276 N 0.75856 0.28007 0.87374 0.0
N277 N 0.87439 0.26075 0.88537 0.0
C278 C 0.85449 0.29194 0.86406 0.0
C279 C 0.7917 0.30258 0.85779 0.0
C280 C 0.08576 0.56349 0.88804 0.0
C281 C 0.02605 0.57835 0.88749 0.0
C282 C 0.10197 0.50515 0.88144 0.0
C283 C 0.05915 0.45891 0.87456 0.0
H284 H 0.12054 0.59653 0.89525 0.0
H285 H 0.14915 0.49596 0.88347 0.0
S286 S 0.89541 0.47815 0.86621 0.0
N287 N 0.92301 0.54536 0.87641 0.0
N288 N 0.95331 0.43466 0.86432 0.0
C289 C 0.99866 0.47447 0.8719 0.0
C290 C 0.98216 0.53445 0.87839 0.0
C291 C 0.87714 0.80377 0.1656 0.0
C292 C 0.84614 0.75112 0.1547 0.0
C293 C 0.93797 0.80969 0.16522 0.0
C294 C 0.9695 0.76305 0.15413 0.0
H295 H 0.85296 0.8428 0.1713 0.0
H296 H 0.95856 0.85311 0.17071 0.0
S297 S 0.91213 0.61131 0.13003 0.0
N298 N 0.85414 0.64771 0.13804 0.0
N299 N 0.96837 0.65897 0.13733 0.0
C300 C 0.94139 0.70744 0.14736 0.0
C301 C 0.87946 0.70148 0.14759 0.0
C302 C 0.5069 0.4734 0.40547 0.0
C303 C 0.535 0.42166 0.39651 0.0
C304 C 0.52661 0.53015 0.402 0.0
C305 C 0.57433 0.53692 0.38899 0.0
H306 H 0.46632 0.46979 0.41307 0.0
H307 H 0.49991 0.56821 0.40658 0.0
S308 S 0.66854 0.4165 0.36577 0.0
N309 N 0.61806 0.38161 0.37764 0.0
N310 N 0.65392 0.48795 0.37043 0.0
C311 C 0.60649 0.48602 0.38259 0.0
C312 C 0.58706 0.42839 0.3865 0.0
C313 C 0.92317 0.33168 0.66057 0.0
C314 C 0.96791 0.29277 0.65414 0.0
C315 C 0.8624 0.31584 0.65293 0.0
C316 C 0.84504 0.26001 0.63928 0.0
H317 H 0.93542 0.37345 0.6725 0.0
H318 H 0.82939 0.34549 0.65941 0.0
S319 S 0.94495 0.14419 0.61646 0.0
N320 N 0.9905 0.19817 0.63194 0.0
N321 N 0.87704 0.16774 0.61809 0.0
C322 C 0.88934 0.22226 0.63163 0.0
C323 C 0.95067 0.23874 0.63899 0.0
C324 C 0.38566 0.35039 0.65437 0.0
C325 C 0.34487 0.3039 0.64443 0.0
C326 C 0.44656 0.34288 0.65453 0.0
C327 C 0.46853 0.28854 0.6449 0.0
H328 H 0.3697 0.39423 0.65985 0.0
H329 H 0.47566 0.38136 0.65976 0.0
S330 S 0.38081 0.15115 0.61999 0.0
N331 N 0.33098 0.20025 0.62734 0.0
N332 N 0.44595 0.18579 0.62794 0.0
C333 C 0.42911 0.24002 0.63761 0.0
C334 C 0.36689 0.24785 0.63719 0.0
C335 C 0.41723 0.85217 0.15343 0.0
C336 C 0.46525 0.81283 0.15263 0.0
C337 C 0.35775 0.83122 0.14807 0.0
C338 C 0.34463 0.77036 0.14232 0.0
H339 H 0.42593 0.89887 0.15951 0.0
H340 H 0.32251 0.86211 0.15038 0.0
S341 S 0.45435 0.64902 0.13835 0.0
N342 N 0.49521 0.71007 0.14562 0.0
N343 N 0.3846 0.67119 0.13556 0.0
C344 C 0.39225 0.73101 0.1406 0.0
C345 C 0.45219 0.75211 0.14579 0.0
C346 C 0.34104 0.33744 0.83687 0.0
C347 C 0.39446 0.31584 0.85138 0.0
C348 C 0.28533 0.31617 0.83963 0.0
C349 C 0.28157 0.27371 0.85749 0.0
H350 H 0.34231 0.37365 0.82468 0.0
H351 H 0.24529 0.33716 0.82973 0.0
S352 S 0.40863 0.19798 0.8973 0.0
N353 N 0.4403 0.24518 0.8817 0.0
N354 N 0.33596 0.20612 0.88745 0.0
C355 C 0.33479 0.2485 0.87036 0.0
C356 C 0.39124 0.2695 0.86723 0.0
C357 C 0.26875 0.74074 0.34754 0.0
C358 C 0.25169 0.79079 0.33379 0.0
C359 C 0.32849 0.72248 0.35277 0.0
C360 C 0.37335 0.75421 0.34482 0.0
H361 H 0.23516 0.71333 0.35272 0.0
H362 H 0.33937 0.68204 0.3623 0.0
S363 S 0.35197 0.88998 0.30926 0.0
N364 N 0.28438 0.87298 0.31309 0.0
N365 N 0.39688 0.8394 0.32341 0.0
C366 C 0.35732 0.80615 0.33232 0.0
C367 C 0.29638 0.82422 0.32665 0.0
C368 C 0.68979 0.94953 0.56375 0.0
C369 C 0.65804 0.9046 0.57236 0.0
C370 C 0.68339 0.0099 0.57245 0.0
C371 C 0.64423 0.0275 0.58965 0.0
H372 H 0.72238 0.93766 0.55147 0.0
H373 H 0.71263 0.04224 0.56738 0.0
S374 S 0.54449 0.92843 0.61466 0.0
N375 N 0.58141 0.8829 0.59666 0.0
N376 N 0.56919 0.99578 0.61282 0.0
C377 C 0.60926 0.98336 0.59675 0.0
C378 C 0.61619 0.92213 0.58818 0.0
C379 C 0.24586 0.01304 0.1398 0.0
C380 C 0.22469 0.04667 0.11798 0.0
C381 C 0.23993 0.95087 0.13737 0.0
C382 C 0.21647 0.91922 0.11267 0.0
H383 H 0.26188 0.03509 0.15959 0.0
H384 H 0.2471 0.92865 0.15549 0.0
S385 S 0.16885 0.98241 0.04793 0.0
N386 N 0.18735 0.0408 0.06981 0.0
N387 N 0.18287 0.92427 0.06513 0.0
C388 C 0.20477 0.95108 0.09002 0.0
C389 C 0.20739 0.0146 0.09261 0.0
C390 C 0.58532 0.01002 0.38818 0.0
C391 C 0.53045 0.0359 0.39066 0.0
C392 C 0.59078 0.9484 0.38399 0.0
C393 C 0.54166 0.91048 0.38231 0.0
H394 H 0.62516 0.03729 0.39152 0.0
H395 H 0.63446 0.93033 0.38314 0.0
S396 S 0.387 0.95708 0.38488 0.0
N397 N 0.42506 0.01994 0.38901 0.0
N398 N 0.43531 0.90359 0.38105 0.0
C399 C 0.48558 0.93604 0.38268 0.0
C400 C 0.48003 0.999 0.38696 0.0
C401 C 0.98059 0.00947 0.89801 0.0
C402 C 0.01292 0.95807 0.89233 0.0
C403 C 0.00282 0.06617 0.89636 0.0
C404 C 0.05761 0.07312 0.88856 0.0
H405 H 0.93571 1.00555 0.90151 0.0
H406 H 0.97387 0.10402 0.89809 0.0
S407 S 0.16327 0.95368 0.87571 0.0
N408 N 0.10599 0.91846 0.88233 0.0
N409 N 0.14687 0.02499 0.87849 0.0
C410 C 0.09289 0.02268 0.88558 0.0
C411 C 0.07072 0.96502 0.88764 0.0
C412 C 0.07272 0.25971 -0.00501 0.0
C413 C 0.12736 0.24281 0.01019 0.0
C414 C 0.06236 0.25322 0.96702 0.0
C415 C 0.10634 0.22976 0.95344 0.0
H416 H 0.03989 0.28266 0.00477 0.0
H417 H 0.02254 0.27275 0.95608 0.0
S418 S 0.25342 0.17172 0.98398 0.0
N419 N 0.22301 0.19535 0.00973 0.0
N420 N 0.20346 0.18357 0.95699 0.0
C421 C 0.15838 0.20692 0.96834 0.0
C422 C 0.16902 0.21347 -0.00315 0.0
C423 C 0.0848 0.70575 0.24567 0.0
C424 C 0.09181 0.76668 0.25372 0.0
C425 C 0.08943 0.6833 0.21977 0.0
C426 C 0.1009 0.72136 0.20133 0.0
H427 H 0.0813 0.67491 0.26016 0.0
H428 H 0.0894 0.63565 0.21492 0.0
S429 S 0.11643 0.88507 0.2123 0.0
N430 N 0.105 0.86511 0.241 0.0
N431 N 0.11394 0.82319 0.1922 0.0
C432 C 0.10214 0.78291 0.20846 0.0
C433 C 0.09768 0.80559 0.23483 0.0
C434 C 0.63471 0.70162 0.48904 0.0
C435 C 0.68014 0.7402 0.50333 0.0
C436 C 0.62305 0.69429 0.46093 0.0
C437 C 0.65633 0.7257 0.44645 0.0
H438 H 0.6055 0.68033 0.49955 0.0
H439 H 0.58506 0.66752 0.45054 0.0
S440 S 0.78729 0.82274 0.47496 0.0
N441 N 0.76356 0.80329 0.50128 0.0
N442 N 0.74228 0.78922 0.44862 0.0
C443 C 0.70524 0.75995 0.46069 0.0
C444 C 0.71697 0.76734 0.48913 0.0
C445 C 0.60706 0.21674 0.75072 0.0
C446 C 0.60336 0.27802 0.75739 0.0
C447 C 0.6092 0.19409 0.72455 0.0
C448 C 0.60764 0.23211 0.70435 0.0
H449 H 0.61317 0.1867 0.76622 0.0
H450 H 0.61685 0.14704 0.72057 0.0
S451 S 0.59229 0.39566 0.71152 0.0
N452 N 0.59303 0.37591 0.74174 0.0
N453 N 0.59724 0.33347 0.69238 0.0
C454 C 0.59862 0.293 0.71035 0.0
C455 C 0.59663 0.31602 0.73704 0.0
C456 C 0.07332 0.67071 0.98931 0.0
C457 C 0.02133 0.69364 0.97411 0.0
C458 C 0.08375 0.67656 0.01738 0.0
C459 C 0.04242 0.70547 0.03108 0.0
H460 H 0.10738 0.65048 0.97947 0.0
H461 H 0.12594 0.6617 0.02833 0.0
S462 S 0.89467 0.76369 0.00026 0.0
N463 N 0.92493 0.73925 0.97462 0.0
N464 N 0.94402 0.75039 0.0272 0.0
C465 C 0.98829 0.72458 0.01596 0.0
C466 C 0.97794 0.71882 0.98752 0.0
C467 C 0.64657 0.79411 0.25283 0.0
C468 C 0.59582 0.79094 0.23189 0.0
C469 C 0.64526 0.7714 0.27747 0.0
C470 C 0.59313 0.74499 0.28188 0.0
H471 H 0.68743 0.81408 0.25015 0.0
H472 H 0.68528 0.7735 0.29283 0.0
S473 S 0.44796 0.72631 0.23357 0.0
N474 N 0.49313 0.75588 0.21716 0.0
N475 N 0.48841 0.7209 0.26356 0.0
C476 C 0.54195 0.74317 0.26121 0.0
C477 C 0.54392 0.76389 0.2362 0.0
C478 C 0.50413 0.16873 0.48968 0.0
C479 C 0.55268 0.153 0.47766 0.0
C480 C 0.5107 0.17448 0.51743 0.0
C481 C 0.5664 0.16596 0.53409 0.0
H482 H 0.46137 0.17873 0.47756 0.0
H483 H 0.47306 0.19057 0.52595 0.0
S484 S 0.70494 0.11575 0.51188 0.0
N485 N 0.65587 0.12107 0.48384 0.0
N486 N 0.66916 0.13455 0.53642 0.0
C487 C 0.61395 0.14511 0.52221 0.0
C488 C 0.60693 0.13835 0.49381 0.0
C489 C 0.1319 0.32905 0.75456 0.0
C490 C 0.13086 0.28637 0.73266 0.0
C491 C 0.13307 0.31166 0.7802 0.0
C492 C 0.13183 0.25124 0.7843 0.0
H493 H 0.12719 0.37563 0.75147 0.0
H494 H 0.12842 0.34538 0.79616 0.0
S495 S 0.13752 0.12339 0.73404 0.0
N496 N 0.13639 0.18211 0.71724 0.0
N497 N 0.13671 0.14937 0.76521 0.0
C498 C 0.13627 0.20868 0.76302 0.0
C499 C 0.13606 0.22633 0.73715 0.0
loop_
_geom_bond_atom_site_label_1
_geom_bond_atom_site_label_2
_geom_bond_distance
_geom_bond_site_symmetry_2
_ccdc_geom_bond_type
H0 C1 0.949 . S
C1 H0 0.949 . S
C1 C2 1.395 . S
C1 C3 1.391 . S
C2 C1 1.395 . S
C2 C5 1.390 . S
C3 C1 1.391 . S
C3 C7 1.387 . S
C3 C8 1.491 . S
H4 C5 0.950 . S
C5 C2 1.390 . S
C5 H4 0.950 . S
C5 C6 1.378 . S
C6 C5 1.378 . S
C6 C7 1.409 . S
C7 C3 1.387 . S
C7 C6 1.409 . S
C7 H9 0.951 . S
C8 C3 1.491 . S
C8 C10 1.382 . S
C8 C12 1.404 . S
H9 C7 0.951 . S
C10 C8 1.382 . S
C10 C11 1.390 . S
C10 H15 0.949 . S
C11 C10 1.390 . S
C11 C16 1.399 . S
C12 C8 1.404 . S
C12 H13 0.950 . S
C12 C14 1.375 . S
H13 C12 0.950 . S
C14 C12 1.375 . S
C14 C16 1.382 . S
C14 H18 0.950 . S
H15 C10 0.949 . S
C16 C11 1.399 . S
C16 C14 1.382 . S
C16 H17 0.952 . S
H17 C16 0.952 . S
H18 C14 0.950 . S
H19 C20 0.949 . S
C20 H19 0.949 . S
C20 C21 1.395 . S
C20 C22 1.391 . S
C21 C20 1.395 . S
C21 C24 1.390 . S
C22 C20 1.391 . S
C22 C26 1.387 . S
C22 C27 1.491 . S
H23 C24 0.950 . S
C24 C21 1.390 . S
C24 H23 0.950 . S
C24 C25 1.378 . S
C25 C24 1.378 . S
C25 C26 1.409 . S
C26 C22 1.387 . S
C26 C25 1.409 . S
C26 H28 0.951 . S
C27 C22 1.491 . S
C27 C29 1.382 1_455 S
C27 C31 1.404 . S
H28 C26 0.951 . S
C29 C27 1.382 1_655 S
C29 C30 1.390 . S
C29 H34 0.949 . S
C30 C29 1.390 . S
C30 C35 1.399 . S
C31 C27 1.404 . S
C31 H32 0.950 . S
C31 C33 1.375 . S
H32 C31 0.950 . S
C33 C31 1.375 . S
C33 C35 1.382 1_455 S
C33 H37 0.950 . S
H34 C29 0.949 . S
C35 C30 1.399 . S
C35 C33 1.382 1_655 S
C35 H36 0.952 . S
H36 C35 0.952 . S
H37 C33 0.950 . S
H38 C39 0.949 . S
C39 H38 0.949 . S
C39 C40 1.395 . S
C39 C41 1.391 . S
C40 C39 1.395 . S
C40 C43 1.390 . S
C41 C39 1.391 . S
C41 C45 1.387 . S
C41 C46 1.491 . S
H42 C43 0.950 . S
C43 C40 1.390 . S
C43 H42 0.950 . S
C43 C44 1.378 . S
C44 C43 1.378 . S
C44 C45 1.409 . S
C45 C41 1.387 . S
C45 C44 1.409 . S
C45 H47 0.951 . S
C46 C41 1.491 . S
C46 C48 1.382 . S
C46 C50 1.404 . S
H47 C45 0.951 . S
C48 C46 1.382 . S
C48 C49 1.390 . S
C48 H53 0.949 . S
C49 C48 1.390 . S
C49 C54 1.399 . S
C50 C46 1.404 . S
C50 H51 0.950 . S
C50 C52 1.375 . S
H51 C50 0.950 . S
C52 C50 1.375 . S
C52 C54 1.382 . S
C52 H56 0.950 . S
H53 C48 0.949 . S
C54 C49 1.399 . S
C54 C52 1.382 . S
C54 H55 0.952 . S
H55 C54 0.952 . S
H56 C52 0.950 . S
H57 C58 0.949 . S
C58 H57 0.949 . S
C58 C59 1.395 . S
C58 C60 1.391 . S
C59 C58 1.395 . S
C59 C62 1.390 . S
C60 C58 1.391 . S
C60 C64 1.387 . S
C60 C65 1.491 . S
H61 C62 0.950 . S
C62 C59 1.390 . S
C62 H61 0.950 . S
C62 C63 1.378 . S
C63 C62 1.378 . S
C63 C64 1.409 . S
C64 C60 1.387 . S
C64 C63 1.409 . S
C64 H66 0.951 . S
C65 C60 1.491 . S
C65 C67 1.382 . S
C65 C69 1.404 . S
H66 C64 0.951 . S
C67 C65 1.382 . S
C67 C68 1.390 . S
C67 H72 0.949 . S
C68 C67 1.390 . S
C68 C73 1.399 . S
C69 C65 1.404 . S
C69 H70 0.950 . S
C69 C71 1.375 . S
H70 C69 0.950 . S
C71 C69 1.375 . S
C71 C73 1.382 . S
C71 H75 0.950 . S
H72 C67 0.949 . S
C73 C68 1.399 . S
C73 C71 1.382 . S
C73 H74 0.952 . S
H74 C73 0.952 . S
H75 C71 0.950 . S
H76 C77 0.949 . S
C77 H76 0.949 . S
C77 C78 1.395 . S
C77 C79 1.391 1_455 S
C78 C77 1.395 . S
C78 C81 1.390 . S
C79 C77 1.391 1_655 S
C79 C83 1.385 1_655 S
C79 C84 1.493 . S
H80 C81 0.950 . S
C81 C78 1.390 . S
C81 H80 0.950 . S
C81 C82 1.378 . S
C82 C81 1.378 . S
C82 C83 1.411 . S
C83 C79 1.385 1_455 S
C83 C82 1.411 . S
C83 H85 0.951 1_455 S
C84 C79 1.493 . S
C84 C86 1.382 1_655 S
C84 C88 1.404 . S
H85 C83 0.951 1_655 S
C86 C84 1.382 1_455 S
C86 C87 1.390 1_455 S
C86 H91 0.949 . S
C87 C86 1.390 1_655 S
C87 C92 1.399 . S
C88 C84 1.404 . S
C88 H89 0.950 . S
C88 C90 1.375 . S
H89 C88 0.950 . S
C90 C88 1.375 . S
C90 C92 1.382 . S
C90 H94 0.950 . S
H91 C86 0.949 . S
C92 C87 1.399 . S
C92 C90 1.382 . S
C92 H93 0.952 . S
H93 C92 0.952 . S
H94 C90 0.950 . S
H95 C96 0.949 . S
C96 H95 0.949 . S
C96 C97 1.395 . S
C96 C98 1.391 . S
C97 C96 1.395 . S
C97 C100 1.390 . S
C98 C96 1.391 . S
C98 C102 1.387 . S
C98 C103 1.491 . S
H99 C100 0.950 . S
C100 C97 1.390 . S
C100 H99 0.950 . S
C100 C101 1.378 . S
C101 C100 1.378 . S
C101 C102 1.409 . S
C102 C98 1.387 . S
C102 C101 1.409 . S
C102 H104 0.951 . S
C103 C98 1.491 . S
C103 C105 1.382 . S
C103 C107 1.404 . S
H104 C102 0.951 . S
C105 C103 1.382 . S
C105 C106 1.390 . S
C105 H110 0.949 . S
C106 C105 1.390 . S
C106 C111 1.399 . S
C107 C103 1.404 . S
C107 H108 0.950 . S
C107 C109 1.375 . S
H108 C107 0.950 . S
C109 C107 1.375 . S
C109 C111 1.382 . S
C109 H113 0.950 . S
H110 C105 0.949 . S
C111 C106 1.399 . S
C111 C109 1.382 . S
C111 H112 0.952 . S
H112 C111 0.952 . S
H113 C109 0.950 . S
H114 C115 0.949 . S
C115 H114 0.949 . S
C115 C116 1.395 . S
C115 C117 1.391 . S
C116 C115 1.395 . S
C116 C119 1.390 . S
C117 C115 1.391 . S
C117 C121 1.387 . S
C117 C122 1.491 . S
H118 C119 0.950 . S
C119 C116 1.390 . S
C119 H118 0.950 . S
C119 C120 1.378 . S
C120 C119 1.378 . S
C120 C121 1.409 . S
C121 C117 1.387 . S
C121 C120 1.409 . S
C121 H123 0.951 . S
C122 C117 1.491 . S
C122 C124 1.382 . S
C122 C126 1.404 . S
H123 C121 0.951 . S
C124 C122 1.382 . S
C124 C125 1.390 . S
C124 H129 0.949 . S
C125 C124 1.390 . S
C125 C130 1.399 . S
C126 C122 1.404 . S
C126 H127 0.950 . S
C126 C128 1.375 . S
H127 C126 0.950 . S
C128 C126 1.375 . S
C128 C130 1.382 . S
C128 H132 0.950 . S
H129 C124 0.949 . S
C130 C125 1.399 . S
C130 C128 1.382 . S
C130 H131 0.952 . S
H131 C130 0.952 . S
H132 C128 0.950 . S
H133 C134 0.949 . S
C134 H133 0.949 . S
C134 C135 1.395 . S
C134 C136 1.391 . S
C135 C134 1.395 . S
C135 C138 1.390 . S
C136 C134 1.391 . S
C136 C140 1.387 . S
C136 C141 1.491 . S
H137 C138 0.950 . S
C138 C135 1.390 . S
C138 H137 0.950 . S
C138 C139 1.378 . S
C139 C138 1.378 . S
C139 C140 1.409 . S
C140 C136 1.387 . S
C140 C139 1.409 . S
C140 H142 0.951 . S
C141 C136 1.491 . S
C141 C143 1.382 . S
C141 C145 1.404 . S
H142 C140 0.951 . S
C143 C141 1.382 . S
C143 C144 1.390 . S
C143 H148 0.949 . S
C144 C143 1.390 . S
C144 C149 1.399 . S
C145 C141 1.404 . S
C145 H146 0.950 . S
C145 C147 1.375 . S
H146 C145 0.950 . S
C147 C145 1.375 . S
C147 C149 1.382 . S
C147 H151 0.950 . S
H148 C143 0.949 . S
C149 C144 1.399 . S
C149 C147 1.382 . S
C149 H150 0.952 . S
H150 C149 0.952 . S
H151 C147 0.950 . S
Zn152 O158 1.920 . S
Zn152 O164 1.898 . S
Zn152 O167 1.905 . S
Zn153 O161 1.905 . S
Zn153 O162 1.898 . S
Zn153 O170 1.920 1_455 S
Zn154 O157 2.080 . S
Zn154 O160 2.114 . S
Zn154 O163 2.120 . S
Zn154 O165 2.120 . S
Zn154 O166 2.114 . S
Zn154 O169 2.080 . S
C155 O160 1.166 . S
C155 O161 1.182 . S
C156 O162 1.167 . S
C156 O163 1.299 . S
O157 Zn154 2.080 . S
O157 C171 1.305 . S
O158 Zn152 1.920 . S
O158 C171 1.234 . S
C159 O164 1.167 . S
C159 O165 1.299 . S
O160 Zn154 2.114 . S
O160 C155 1.166 . S
O161 Zn153 1.905 . S
O161 C155 1.182 . S
O162 Zn153 1.898 . S
O162 C156 1.167 . S
O163 Zn154 2.120 . S
O163 C156 1.299 . S
O164 Zn152 1.898 . S
O164 C159 1.167 . S
O165 Zn154 2.120 . S
O165 C159 1.299 . S
O166 Zn154 2.114 . S
O166 C168 1.166 . S
O167 Zn152 1.905 . S
O167 C168 1.182 . S
C168 O166 1.166 . S
C168 O167 1.182 . S
O169 Zn154 2.080 . S
O169 C172 1.305 . S
O170 Zn153 1.920 1_655 S
O170 C172 1.234 1_655 S
C171 O157 1.305 . S
C171 O158 1.234 . S
C172 O169 1.305 . S
C172 O170 1.234 1_455 S
Zn173 O179 1.920 . S
Zn173 O185 1.898 . S
Zn173 O188 1.905 . S
Zn174 O182 1.905 . S
Zn174 O183 1.898 . S
Zn174 O191 1.920 . S
Zn175 O178 2.080 . S
Zn175 O181 2.114 . S
Zn175 O184 2.120 . S
Zn175 O186 2.120 . S
Zn175 O187 2.114 . S
Zn175 O190 2.080 . S
C176 O181 1.166 . S
C176 O182 1.182 . S
C177 O183 1.167 . S
C177 O184 1.299 . S
O178 Zn175 2.080 . S
O178 C192 1.305 . S
O179 Zn173 1.920 . S
O179 C192 1.234 . S
C180 O185 1.167 . S
C180 O186 1.299 . S
O181 Zn175 2.114 . S
O181 C176 1.166 . S
O182 Zn174 1.905 . S
O182 C176 1.182 . S
O183 Zn174 1.898 . S
O183 C177 1.167 . S
O184 Zn175 2.120 . S
O184 C177 1.299 . S
O185 Zn173 1.898 . S
O185 C180 1.167 . S
O186 Zn175 2.120 . S
O186 C180 1.299 . S
O187 Zn175 2.114 . S
O187 C189 1.166 . S
O188 Zn173 1.905 . S
O188 C189 1.182 . S
C189 O187 1.166 . S
C189 O188 1.182 . S
O190 Zn175 2.080 . S
O190 C193 1.305 . S
O191 Zn174 1.920 . S
O191 C193 1.234 . S
C192 O178 1.305 . S
C192 O179 1.234 . S
C193 O190 1.305 . S
C193 O191 1.234 . S
Zn194 O200 1.920 . S
Zn194 O206 1.898 . S
Zn194 O209 1.905 . S
Zn195 O203 1.905 . S
Zn195 O204 1.898 . S
Zn195 O212 1.920 . S
Zn196 O199 2.080 . S
Zn196 O202 2.114 . S
Zn196 O205 2.120 . S
Zn196 O207 2.120 . S
Zn196 O208 2.114 . S
Zn196 O211 2.080 . S
C197 O202 1.166 . S
C197 O203 1.182 . S
C198 O204 1.167 . S
C198 O205 1.299 . S
O199 Zn196 2.080 . S
O199 C213 1.305 . S
O200 Zn194 1.920 . S
O200 C213 1.234 . S
C201 O206 1.167 . S
C201 O207 1.299 . S
O202 Zn196 2.114 . S
O202 C197 1.166 . S
O203 Zn195 1.905 . S
O203 C197 1.182 . S
O204 Zn195 1.898 . S
O204 C198 1.167 . S
O205 Zn196 2.120 . S
O205 C198 1.299 . S
O206 Zn194 1.898 . S
O206 C201 1.167 . S
O207 Zn196 2.120 . S
O207 C201 1.299 . S
O208 Zn196 2.114 . S
O208 C210 1.166 . S
O209 Zn194 1.905 . S
O209 C210 1.182 . S
C210 O208 1.166 . S
C210 O209 1.182 . S
O211 Zn196 2.080 . S
O211 C214 1.305 . S
O212 Zn195 1.920 . S
O212 C214 1.234 . S
C213 O199 1.305 . S
C213 O200 1.234 . S
C214 O211 1.305 . S
C214 O212 1.234 . S
Zn215 O221 1.920 1_655 S
Zn215 O227 1.900 . S
Zn215 O230 1.905 . S
Zn216 O224 1.905 . S
Zn216 O225 1.898 . S
Zn216 O233 1.920 . S
Zn217 O220 2.080 . S
Zn217 O223 2.114 . S
Zn217 O226 2.120 . S
Zn217 O228 2.120 . S
Zn217 O229 2.114 1_455 S
Zn217 O232 2.080 . S
C218 O223 1.166 . S
C218 O224 1.182 . S
C219 O225 1.167 . S
C219 O226 1.299 . S
O220 Zn217 2.080 . S
O220 C234 1.305 . S
O221 Zn215 1.920 1_455 S
O221 C234 1.234 . S
C222 O227 1.161 1_455 S
C222 O228 1.299 . S
O223 Zn217 2.114 . S
O223 C218 1.166 . S
O224 Zn216 1.905 . S
O224 C218 1.182 . S
O225 Zn216 1.898 . S
O225 C219 1.167 . S
O226 Zn217 2.120 . S
O226 C219 1.299 . S
O227 Zn215 1.900 . S
O227 C222 1.161 1_655 S
O228 Zn217 2.120 . S
O228 C222 1.299 . S
O229 Zn217 2.114 1_655 S
O229 C231 1.166 . S
O230 Zn215 1.905 . S
O230 C231 1.182 . S
C231 O229 1.166 . S
C231 O230 1.182 . S
O232 Zn217 2.080 . S
O232 C235 1.305 . S
O233 Zn216 1.920 . S
O233 C235 1.234 . S
C234 O220 1.305 . S
C234 O221 1.234 . S
C235 O232 1.305 . S
C235 O233 1.234 . S
C236 C237 1.369 . S
C236 C238 1.419 . S
C236 H240 0.930 . S
C237 C236 1.369 . S
C237 C246 1.429 . S
C238 C236 1.419 . S
C238 C239 1.363 . S
C238 H241 0.929 . S
C239 C238 1.363 . S
C239 C245 1.428 . S
H240 C236 0.930 . S
H241 C238 0.929 . S
S242 N243 1.613 . S
S242 N244 1.610 . S
N243 S242 1.613 . S
N243 C246 1.350 . S
N244 S242 1.610 . S
N244 C245 1.351 . S
C245 C239 1.428 . S
C245 N244 1.351 . S
C245 C246 1.434 . S
C246 C237 1.429 . S
C246 N243 1.350 . S
C246 C245 1.434 . S
C247 C248 1.369 . S
C247 C249 1.419 . S
C247 H251 0.930 . S
C248 C247 1.369 . S
C248 C257 1.429 . S
C249 C247 1.419 . S
C249 C250 1.363 . S
C249 H252 0.929 . S
C250 C249 1.363 . S
C250 C256 1.428 . S
H251 C247 0.930 . S
H252 C249 0.929 . S
S253 N254 1.613 . S
S253 N255 1.610 . S
N254 S253 1.613 . S
N254 C257 1.350 . S
N255 S253 1.610 . S
N255 C256 1.351 . S
C256 C250 1.428 . S
C256 N255 1.351 . S
C256 C257 1.434 . S
C257 C248 1.429 . S
C257 N254 1.350 . S
C257 C256 1.434 . S
C258 C259 1.369 . S
C258 C260 1.419 . S
C258 H262 0.930 . S
C259 C258 1.369 . S
C259 C268 1.429 . S
C260 C258 1.419 . S
C260 C261 1.363 . S
C260 H263 0.929 . S
C261 C260 1.363 . S
C261 C267 1.428 . S
H262 C258 0.930 . S
H263 C260 0.929 . S
S264 N265 1.613 . S
S264 N266 1.610 . S
N265 S264 1.613 . S
N265 C268 1.350 . S
N266 S264 1.610 . S
N266 C267 1.351 . S
C267 C261 1.428 . S
C267 N266 1.351 . S
C267 C268 1.434 . S
C268 C259 1.429 . S
C268 N265 1.350 . S
C268 C267 1.434 . S
C269 C270 1.369 . S
C269 C271 1.419 . S
C269 H273 0.930 . S
C270 C269 1.369 . S
C270 C279 1.429 . S
C271 C269 1.419 . S
C271 C272 1.363 . S
C271 H274 0.929 . S
C272 C271 1.363 . S
C272 C278 1.428 . S
H273 C269 0.930 . S
H274 C271 0.929 . S
S275 N276 1.613 . S
S275 N277 1.610 . S
N276 S275 1.613 . S
N276 C279 1.350 . S
N277 S275 1.610 . S
N277 C278 1.351 . S
C278 C272 1.428 . S
C278 N277 1.351 . S
C278 C279 1.434 . S
C279 C270 1.429 . S
C279 N276 1.350 . S
C279 C278 1.434 . S
C280 C281 1.369 . S
C280 C282 1.419 . S
C280 H284 0.930 . S
C281 C280 1.369 . S
C281 C290 1.429 1_455 S
C282 C280 1.419 . S
C282 C283 1.363 . S
C282 H285 0.929 . S
C283 C282 1.363 . S
C283 C289 1.428 . S
H284 C280 0.930 . S
H285 C282 0.929 . S
S286 N287 1.613 . S
S286 N288 1.610 . S
N287 S286 1.613 . S
N287 C290 1.350 . S
N288 S286 1.610 . S
N288 C289 1.351 1_655 S
C289 C283 1.428 . S
C289 N288 1.351 1_455 S
C289 C290 1.434 1_455 S
C290 C281 1.429 1_655 S
C290 N287 1.350 . S
C290 C289 1.434 1_655 S
C291 C292 1.369 . S
C291 C293 1.419 . S
C291 H295 0.930 . S
C292 C291 1.369 . S
C292 C301 1.429 . S
C293 C291 1.419 . S
C293 C294 1.363 . S
C293 H296 0.929 . S
C294 C293 1.363 . S
C294 C300 1.428 . S
H295 C291 0.930 . S
H296 C293 0.929 . S
S297 N298 1.613 . S
S297 N299 1.610 . S
N298 S297 1.613 . S
N298 C301 1.350 . S
N299 S297 1.610 . S
N299 C300 1.351 . S
C300 C294 1.428 . S
C300 N299 1.351 . S
C300 C301 1.434 . S
C301 C292 1.429 . S
C301 N298 1.350 . S
C301 C300 1.434 . S
C302 C303 1.369 . S
C302 C304 1.419 . S
C302 H306 0.930 . S
C303 C302 1.369 . S
C303 C312 1.429 . S
C304 C302 1.419 . S
C304 C305 1.363 . S
C304 H307 0.929 . S
C305 C304 1.363 . S
C305 C311 1.428 . S
H306 C302 0.930 . S
H307 C304 0.929 . S
S308 N309 1.613 . S
S308 N310 1.610 . S
N309 S308 1.613 . S
N309 C312 1.350 . S
N310 S308 1.610 . S
N310 C311 1.351 . S
C311 C305 1.428 . S
C311 N310 1.351 . S
C311 C312 1.434 . S
C312 C303 1.429 . S
C312 N309 1.350 . S
C312 C311 1.434 . S
C313 C314 1.369 . S
C313 C315 1.419 . S
C313 H317 0.930 . S
C314 C313 1.369 . S
C314 C323 1.429 . S
C315 C313 1.419 . S
C315 C316 1.363 . S
C315 H318 0.929 . S
C316 C315 1.363 . S
C316 C322 1.428 . S
H317 C313 0.930 . S
H318 C315 0.929 . S
S319 N320 1.613 . S
S319 N321 1.610 . S
N320 S319 1.613 . S
N320 C323 1.350 . S
N321 S319 1.610 . S
N321 C322 1.351 . S
C322 C316 1.428 . S
C322 N321 1.351 . S
C322 C323 1.434 . S
C323 C314 1.429 . S
C323 N320 1.350 . S
C323 C322 1.434 . S
C324 C325 1.369 . S
C324 C326 1.419 . S
C324 H328 0.930 . S
C325 C324 1.369 . S
C325 C334 1.429 . S
C326 C324 1.419 . S
C326 C327 1.363 . S
C326 H329 0.929 . S
C327 C326 1.363 . S
C327 C333 1.428 . S
H328 C324 0.930 . S
H329 C326 0.929 . S
S330 N331 1.613 . S
S330 N332 1.610 . S
N331 S330 1.613 . S
N331 C334 1.350 . S
N332 S330 1.610 . S
N332 C333 1.351 . S
C333 C327 1.428 . S
C333 N332 1.351 . S
C333 C334 1.434 . S
C334 C325 1.429 . S
C334 N331 1.350 . S
C334 C333 1.434 . S
C335 C336 1.369 . S
C335 C337 1.419 . S
C335 H339 0.930 . S
C336 C335 1.369 . S
C336 C345 1.429 . S
C337 C335 1.419 . S
C337 C338 1.363 . S
C337 H340 0.929 . S
C338 C337 1.363 . S
C338 C344 1.428 . S
H339 C335 0.930 . S
H340 C337 0.929 . S
S341 N342 1.613 . S
S341 N343 1.610 . S
N342 S341 1.613 . S
N342 C345 1.350 . S
N343 S341 1.610 . S
N343 C344 1.351 . S
C344 C338 1.428 . S
C344 N343 1.351 . S
C344 C345 1.434 . S
C345 C336 1.429 . S
C345 N342 1.350 . S
C345 C344 1.434 . S
C346 C347 1.369 . S
C346 C348 1.419 . S
C346 H350 0.930 . S
C347 C346 1.369 . S
C347 C356 1.429 . S
C348 C346 1.419 . S
C348 C349 1.363 . S
C348 H351 0.929 . S
C349 C348 1.363 . S
C349 C355 1.428 . S
H350 C346 0.930 . S
H351 C348 0.929 . S
S352 N353 1.613 . S
S352 N354 1.610 . S
N353 S352 1.613 . S
N353 C356 1.350 . S
N354 S352 1.610 . S
N354 C355 1.351 . S
C355 C349 1.428 . S
C355 N354 1.351 . S
C355 C356 1.434 . S
C356 C347 1.429 . S
C356 N353 1.350 . S
C356 C355 1.434 . S
C357 C358 1.369 . S
C357 C359 1.419 . S
C357 H361 0.930 . S
C358 C357 1.369 . S
C358 C367 1.429 . S
C359 C357 1.419 . S
C359 C360 1.363 . S
C359 H362 0.929 . S
C360 C359 1.363 . S
C360 C366 1.428 . S
H361 C357 0.930 . S
H362 C359 0.929 . S
S363 N364 1.613 . S
S363 N365 1.610 . S
N364 S363 1.613 . S
N364 C367 1.350 . S
N365 S363 1.610 . S
N365 C366 1.351 . S
C366 C360 1.428 . S
C366 N365 1.351 . S
C366 C367 1.434 . S
C367 C358 1.429 . S
C367 N364 1.350 . S
C367 C366 1.434 . S
C368 C369 1.369 . S
C368 C370 1.419 . S
C368 H372 0.930 . S
C369 C368 1.369 . S
C369 C378 1.429 . S
C370 C368 1.419 . S
C370 C371 1.363 1_565 S
C370 H373 0.929 1_565 S
C371 C370 1.363 1_545 S
C371 C377 1.428 1_545 S
H372 C368 0.930 . S
H373 C370 0.929 1_545 S
S374 N375 1.613 . S
S374 N376 1.610 . S
N375 S374 1.613 . S
N375 C378 1.350 . S
N376 S374 1.610 . S
N376 C377 1.351 . S
C377 C371 1.428 1_565 S
C377 N376 1.351 . S
C377 C378 1.434 . S
C378 C369 1.429 . S
C378 N375 1.350 . S
C378 C377 1.434 . S
C379 C380 1.369 1_565 S
C379 C381 1.419 . S
C379 H383 0.930 1_565 S
C380 C379 1.369 1_545 S
C380 C389 1.429 1_545 S
C381 C379 1.419 . S
C381 C382 1.363 . S
C381 H384 0.929 . S
C382 C381 1.363 . S
C382 C388 1.428 . S
H383 C379 0.930 1_545 S
H384 C381 0.929 . S
S385 N386 1.613 . S
S385 N387 1.610 . S
N386 S385 1.613 . S
N386 C389 1.350 . S
N387 S385 1.610 . S
N387 C388 1.351 . S
C388 C382 1.428 . S
C388 N387 1.351 . S
C388 C389 1.434 . S
C389 C380 1.429 1_565 S
C389 N386 1.350 . S
C389 C388 1.434 . S
C390 C391 1.369 . S
C390 C392 1.419 1_545 S
C390 H394 0.930 . S
C391 C390 1.369 . S
C391 C400 1.429 . S
C392 C390 1.419 1_565 S
C392 C393 1.363 . S
C392 H395 0.929 . S
C393 C392 1.363 . S
C393 C399 1.428 . S
H394 C390 0.930 . S
H395 C392 0.929 . S
S396 N397 1.613 1_565 S
S396 N398 1.610 . S
N397 S396 1.613 1_545 S
N397 C400 1.350 . S
N398 S396 1.610 . S
N398 C399 1.351 . S
C399 C393 1.428 . S
C399 N398 1.351 . S
C399 C400 1.434 1_565 S
C400 C391 1.429 . S
C400 N397 1.350 . S
C400 C399 1.434 1_545 S
C401 C402 1.369 1_655 S
C401 C403 1.416 1_665 S
C401 H405 0.930 . S
C402 C401 1.369 1_455 S
C402 C411 1.429 . S
C403 C401 1.416 1_445 S
C403 C404 1.370 . S
C403 H406 0.925 1_455 S
C404 C403 1.370 . S
C404 C410 1.428 . S
H405 C401 0.930 . S
H406 C403 0.925 1_655 S
S407 N408 1.613 1_545 S
S407 N409 1.610 . S
N408 S407 1.613 1_565 S
N408 C411 1.350 . S
N409 S407 1.610 . S
N409 C410 1.351 . S
C410 C404 1.428 . S
C410 N409 1.351 . S
C410 C411 1.434 1_545 S
C411 C402 1.429 . S
C411 N408 1.350 . S
C411 C410 1.434 1_565 S
C412 C413 1.369 . S
C412 C414 1.419 1_554 S
C412 H416 0.930 . S
C413 C412 1.369 . S
C413 C422 1.429 1_554 S
C414 C412 1.419 1_556 S
C414 C415 1.363 . S
C414 H417 0.929 . S
C415 C414 1.363 . S
C415 C421 1.428 . S
H416 C412 0.930 . S
H417 C414 0.929 . S
S418 N419 1.613 1_556 S
S418 N420 1.610 . S
N419 S418 1.613 1_554 S
N419 C422 1.350 1_554 S
N420 S418 1.610 . S
N420 C421 1.351 . S
C421 C415 1.428 . S
C421 N420 1.351 . S
C421 C422 1.434 . S
C422 C413 1.429 1_556 S
C422 N419 1.350 1_556 S
C422 C421 1.434 . S
C423 C424 1.369 . S
C423 C425 1.419 . S
C423 H427 0.930 . S
C424 C423 1.369 . S
C424 C433 1.429 . S
C425 C423 1.419 . S
C425 C426 1.363 . S
C425 H428 0.929 . S
C426 C425 1.363 . S
C426 C432 1.428 . S
H427 C423 0.930 . S
H428 C425 0.929 . S
S429 N430 1.613 . S
S429 N431 1.610 . S
N430 S429 1.613 . S
N430 C433 1.350 . S
N431 S429 1.610 . S
N431 C432 1.351 . S
C432 C426 1.428 . S
C432 N431 1.351 . S
C432 C433 1.434 . S
C433 C424 1.429 . S
C433 N430 1.350 . S
C433 C432 1.434 . S
C434 C435 1.369 . S
C434 C436 1.419 . S
C434 H438 0.930 . S
C435 C434 1.369 . S
C435 C444 1.429 . S
C436 C434 1.419 . S
C436 C437 1.363 . S
C436 H439 0.929 . S
C437 C436 1.363 . S
C437 C443 1.428 . S
H438 C434 0.930 . S
H439 C436 0.929 . S
S440 N441 1.613 . S
S440 N442 1.610 . S
N441 S440 1.613 . S
N441 C444 1.350 . S
N442 S440 1.610 . S
N442 C443 1.351 . S
C443 C437 1.428 . S
C443 N442 1.351 . S
C443 C444 1.434 . S
C444 C435 1.429 . S
C444 N441 1.350 . S
C444 C443 1.434 . S
C445 C446 1.369 . S
C445 C447 1.419 . S
C445 H449 0.930 . S
C446 C445 1.369 . S
C446 C455 1.429 . S
C447 C445 1.419 . S
C447 C448 1.363 . S
C447 H450 0.929 . S
C448 C447 1.363 . S
C448 C454 1.428 . S
H449 C445 0.930 . S
H450 C447 0.929 . S
S451 N452 1.613 . S
S451 N453 1.610 . S
N452 S451 1.613 . S
N452 C455 1.350 . S
N453 S451 1.610 . S
N453 C454 1.351 . S
C454 C448 1.428 . S
C454 N453 1.351 . S
C454 C455 1.434 . S
C455 C446 1.429 . S
C455 N452 1.350 . S
C455 C454 1.434 . S
C456 C457 1.369 . S
C456 C458 1.419 1_556 S
C456 H460 0.930 . S
C457 C456 1.369 . S
C457 C466 1.429 1_556 S
C458 C456 1.419 1_554 S
C458 C459 1.363 . S
C458 H461 0.929 . S
C459 C458 1.363 . S
C459 C465 1.428 . S
H460 C456 0.930 . S
H461 C458 0.929 . S
S462 N463 1.613 . S
S462 N464 1.610 1_655 S
N463 S462 1.613 . S
N463 C466 1.350 1_655 S
N464 S462 1.610 1_455 S
N464 C465 1.351 . S
C465 C459 1.428 . S
C465 N464 1.351 . S
C465 C466 1.434 . S
C466 C457 1.429 1_554 S
C466 N463 1.350 1_455 S
C466 C465 1.434 . S
C467 C468 1.369 . S
C467 C469 1.419 . S
C467 H471 0.930 . S
C468 C467 1.369 . S
C468 C477 1.429 . S
C469 C467 1.419 . S
C469 C470 1.363 . S
C469 H472 0.929 . S
C470 C469 1.363 . S
C470 C476 1.428 . S
H471 C467 0.930 . S
H472 C469 0.929 . S
S473 N474 1.613 . S
S473 N475 1.610 . S
N474 S473 1.613 . S
N474 C477 1.350 . S
N475 S473 1.610 . S
N475 C476 1.351 . S
C476 C470 1.428 . S
C476 N475 1.351 . S
C476 C477 1.434 . S
C477 C468 1.429 . S
C477 N474 1.350 . S
C477 C476 1.434 . S
C478 C479 1.369 . S
C478 C480 1.419 . S
C478 H482 0.930 . S
C479 C478 1.369 . S
C479 C488 1.429 . S
C480 C478 1.419 . S
C480 C481 1.363 . S
C480 H483 0.929 . S
C481 C480 1.363 . S
C481 C487 1.428 . S
H482 C478 0.930 . S
H483 C480 0.929 . S
S484 N485 1.613 . S
S484 N486 1.610 . S
N485 S484 1.613 . S
N485 C488 1.350 . S
N486 S484 1.610 . S
N486 C487 1.351 . S
C487 C481 1.428 . S
C487 N486 1.351 . S
C487 C488 1.434 . S
C488 C479 1.429 . S
C488 N485 1.350 . S
C488 C487 1.434 . S
C489 C490 1.369 . S
C489 C491 1.419 . S
C489 H493 0.930 . S
C490 C489 1.369 . S
C490 C499 1.429 . S
C491 C489 1.419 . S
C491 C492 1.363 . S
C491 H494 0.929 . S
C492 C491 1.363 . S
C492 C498 1.428 . S
H493 C489 0.930 . S
H494 C491 0.929 . S
S495 N496 1.613 . S
S495 N497 1.610 . S
N496 S495 1.613 . S
N496 C499 1.350 . S
N497 S495 1.610 . S
N497 C498 1.351 . S
C498 C492 1.428 . S
C498 N497 1.351 . S
C498 C499 1.434 . S
C499 C490 1.429 . S
C499 N496 1.350 . S
C499 C498 1.434 . S
C239 C159 1.403 . S
C237 C6 1.556 . S
C250 C177 1.395 . S
C248 C30 1.442 . S
C259 C49 1.369 . S
C261 C201 1.363 . S
C272 C231 1.307 . S
C270 C63 1.448 . S
C283 C219 1.314 . S
C281 C82 1.396 . S
C292 C106 1.456 . S
C294 C172 1.413 1_655 S
C303 C125 1.621 . S
C305 C192 1.497 . S
C314 C139 1.449 1_655 S
C316 C197 1.327 . S
C325 C144 1.451 . S
C327 C213 1.404 . S
C336 C101 1.449 . S
C338 C168 1.324 . S
C349 C235 1.410 . S
C347 C68 1.449 . S
C360 C180 1.293 . S
C358 C25 1.438 . S
C369 C44 1.549 . S
C371 C198 1.404 . S
C380 C11 1.382 . S
C382 C156 1.365 . S
C393 C176 1.313 . S
C391 C120 1.390 . S
C404 C222 1.488 . S
C402 C87 1.623 1_455 S
C415 C218 1.416 . S
C413 C2 1.559 . S
C426 C171 1.569 . S
C424 C21 1.587 . S
C435 C40 1.541 . S
C437 C193 1.391 . S
C446 C59 1.598 . S
C448 C214 1.577 . S
C459 C155 1.356 . S
C457 C78 1.642 . S
C468 C97 1.540 . S
C470 C189 1.505 . S
C481 C210 1.381 . S
C479 C116 1.648 . S
C492 C234 1.482 . S
C490 C135 1.519 . S
