# Generated by pormake.
# Topology rtl, (3,6)-cn, num edge types: 1
# Building blocks:
#     Node 0, Type 0, BuildingBlock: VETTIZ_charged_linker_0, # of connection points: 3
#     Node 1, Type 0, BuildingBlock: VETTIZ_charged_linker_0, # of connection points: 3
#     Node 2, Type 0, BuildingBlock: VETTIZ_charged_linker_0, # of connection points: 3
#     Node 3, Type 0, BuildingBlock: VETTIZ_charged_linker_0, # of connection points: 3
#     Node 4, Type 1, BuildingBlock: LEVNOQ01_clean_sbu_1, # of connection points: 6
#     Node 5, Type 1, BuildingBlock: LEVNOQ01_clean_sbu_1, # of connection points: 6
#     Edge 6, Type (0, 1), BuildingBlock: TEMPAE_clean_linker_10, # of connection points: 2
#     Edge 7, Type (0, 1), BuildingBlock: TEMPAE_clean_linker_10, # of connection points: 2
#     Edge 8, Type (0, 1), BuildingBlock: TEMPAE_clean_linker_10, # of connection points: 2
#     Edge 9, Type (0, 1), BuildingBlock: TEMPAE_clean_linker_10, # of connection points: 2
#     Edge 10, Type (0, 1), BuildingBlock: TEMPAE_clean_linker_10, # of connection points: 2
#     Edge 11, Type (0, 1), BuildingBlock: TEMPAE_clean_linker_10, # of connection points: 2
#     Edge 12, Type (0, 1), BuildingBlock: TEMPAE_clean_linker_10, # of connection points: 2
#     Edge 13, Type (0, 1), BuildingBlock: TEMPAE_clean_linker_10, # of connection points: 2
#     Edge 14, Type (0, 1), BuildingBlock: TEMPAE_clean_linker_10, # of connection points: 2
#     Edge 15, Type (0, 1), BuildingBlock: TEMPAE_clean_linker_10, # of connection points: 2
#     Edge 16, Type (0, 1), BuildingBlock: TEMPAE_clean_linker_10, # of connection points: 2
#     Edge 17, Type (0, 1), BuildingBlock: TEMPAE_clean_linker_10, # of connection points: 2
# Relax obj value: 0.027
# Max RMSD: 0.061
# Mean RMSD: 0.048
data_MOF--net-rtl--node1-LEVNOQ01_clean_sbu_1--node2-VETTIZ_charged_linker_0--edge1-TEMPAE_clean_linker_10
_symmetry_space_group_name_H-M    P1
_symmetry_Int_Tables_number       1
_symmetry_cell_setting            triclinic
loop_
_symmetry_equiv_pos_as_xyz
'x, y, z'
_cell_length_a     37.465133
_cell_length_b     42.897889
_cell_length_c     30.117881
_cell_angle_alpha  90.147623
_cell_angle_beta   97.737243
_cell_angle_gamma 90.14559
loop_
_atom_site_label
_atom_site_type_symbol
_atom_site_fract_x
_atom_site_fract_y
_atom_site_fract_z
_atom_type_partial_charge
C0 C 0.19511 0.89376 0.94415 0.0
C1 C 0.16407 0.91258 0.93651 0.0
C2 C 0.15042 0.92545 0.97411 0.0
C3 C 0.19933 0.90267 0.02445 0.0
C4 C 0.21183 0.8888 0.9881 0.0
C5 C 0.24354 0.86787 0.00203 0.0
H6 H 0.35399 0.79822 0.16887 0.0
C7 C 0.2234 0.89352 0.06537 0.0
C8 C 0.24908 0.87278 0.0525 0.0
H9 H 0.34232 0.77936 0.02652 0.0
H10 H 0.30129 0.82231 0.0125 0.0
H11 H 0.35893 0.87114 0.15995 0.0
H12 H 0.26892 0.81193 0.17631 0.0
H13 H 0.27218 0.84286 0.21571 0.0
H14 H 0.30891 0.81623 0.21618 0.0
H15 H 0.34907 0.8606 0.21452 0.0
H16 H 0.32911 0.89453 0.1857 0.0
C17 C 0.27605 0.8801 0.98039 0.0
C18 C 0.23223 0.83387 0.98877 0.0
C19 C 0.20426 0.93764 0.21736 0.0
C20 C 0.22372 0.93507 0.26072 0.0
C21 C 0.25636 0.91821 0.26586 0.0
C22 C 0.2682 0.90288 0.22938 0.0
C23 C 0.24752 0.90457 0.18698 0.0
C24 C 0.2169 0.92271 0.18115 0.0
C25 C 0.19979 0.9236 0.13296 0.0
C26 C 0.22489 0.90251 0.11106 0.0
C27 C 0.25226 0.89084 0.14315 0.0
C28 C 0.20117 0.95769 0.1165 0.0
C29 C 0.16129 0.90974 0.12996 0.0
C30 C 0.34255 0.80345 0.13476 0.0
C31 C 0.3513 0.78524 0.09886 0.0
C32 C 0.33636 0.79314 0.0548 0.0
C33 C 0.31212 0.81786 0.04667 0.0
C34 C 0.30239 0.83493 0.08293 0.0
C35 C 0.31819 0.82821 0.12601 0.0
C36 C 0.30503 0.8495 0.16013 0.0
C37 C 0.27695 0.86848 0.1306 0.0
C38 C 0.27555 0.85977 0.08546 0.0
C39 C 0.33707 0.86994 0.18151 0.0
C40 C 0.28791 0.82923 0.19415 0.0
H41 H 0.15626 0.93146 0.04462 0.0
H42 H 0.20666 0.8833 0.91665 0.0
H43 H 0.20248 0.83072 0.98518 0.0
H44 H 0.24277 0.81675 0.01463 0.0
H45 H 0.24107 0.82716 0.95633 0.0
H46 H 0.2778 0.90596 0.9829 0.0
H47 H 0.27343 0.87373 0.94432 0.0
H48 H 0.30212 0.87139 0.99721 0.0
H49 H 0.17897 0.95006 0.21162 0.0
H50 H 0.27268 0.91648 0.29826 0.0
H51 H 0.29276 0.8899 0.23569 0.0
H52 H 0.22743 0.96873 0.12949 0.0
H53 H 0.17954 0.97186 0.12838 0.0
H54 H 0.19904 0.95963 0.07974 0.0
H55 H 0.16012 0.89098 0.15519 0.0
H56 H 0.15233 0.89839 0.09738 0.0
H57 H 0.14145 0.92787 0.13624 0.0
H58 H 0.12592 0.93905 0.97006 0.0
C59 C 0.16797 0.92083 0.01773 0.0
C60 C 0.71117 0.60524 0.71676 0.0
C61 C 0.68898 0.57857 0.71383 0.0
C62 C 0.67866 0.56488 0.67133 0.0
C63 C 0.70798 0.60659 0.63572 0.0
C64 C 0.72041 0.6187 0.67752 0.0
C65 C 0.74258 0.64774 0.67472 0.0
H66 H 0.80214 0.76166 0.54859 0.0
C67 C 0.71891 0.62808 0.60163 0.0
C68 C 0.73949 0.65208 0.62433 0.0
H69 H 0.82862 0.74759 0.69147 0.0
H70 H 0.79129 0.70147 0.68656 0.0
H71 H 0.81193 0.68868 0.52174 0.0
H72 H 0.71977 0.74431 0.54135 0.0
H73 H 0.70583 0.71868 0.49685 0.0
H74 H 0.74064 0.74704 0.49126 0.0
H75 H 0.79531 0.71978 0.48488 0.0
H76 H 0.77729 0.68088 0.4775 0.0
C77 C 0.78182 0.64072 0.69582 0.0
C78 C 0.72452 0.67474 0.69761 0.0
C79 C 0.67087 0.61166 0.43697 0.0
C80 C 0.67208 0.62992 0.39851 0.0
C81 C 0.69122 0.65831 0.4024 0.0
C82 C 0.70915 0.66828 0.44398 0.0
C83 C 0.70752 0.64986 0.48228 0.0
C84 C 0.68835 0.62219 0.47839 0.0
C85 C 0.6875 0.60669 0.52302 0.0
C86 C 0.70993 0.62926 0.55425 0.0
C87 C 0.72179 0.6544 0.53017 0.0
C88 C 0.70581 0.57442 0.52193 0.0
C89 C 0.64773 0.60544 0.53198 0.0
C90 C 0.80035 0.74851 0.57885 0.0
C91 C 0.81862 0.75841 0.62051 0.0
C92 C 0.81464 0.74082 0.65905 0.0
C93 C 0.7932 0.71382 0.65606 0.0
C94 C 0.77552 0.70415 0.6141 0.0
C95 C 0.77944 0.72133 0.57636 0.0
C96 C 0.75943 0.70715 0.53441 0.0
C97 C 0.74339 0.67827 0.55309 0.0
C98 C 0.75252 0.67688 0.59983 0.0
C99 C 0.78719 0.69877 0.50258 0.0
C100 C 0.72998 0.73041 0.51448 0.0
H101 H 0.67853 0.56762 0.60101 0.0
H102 H 0.71971 0.61647 0.74866 0.0
H103 H 0.69481 0.67421 0.68782 0.0
H104 H 0.73328 0.698 0.68784 0.0
H105 H 0.72995 0.67285 0.73468 0.0
H106 H 0.78811 0.61544 0.69399 0.0
H107 H 0.78651 0.64765 0.7317 0.0
H108 H 0.802 0.65233 0.67779 0.0
H109 H 0.65577 0.59001 0.43505 0.0
H110 H 0.69247 0.6727 0.37314 0.0
H111 H 0.72336 0.69005 0.44476 0.0
H112 H 0.72868 0.57533 0.50191 0.0
H113 H 0.68652 0.55648 0.50655 0.0
H114 H 0.71784 0.56646 0.55548 0.0
H115 H 0.63316 0.62699 0.51972 0.0
H116 H 0.64481 0.60433 0.56787 0.0
H117 H 0.63333 0.5853 0.51449 0.0
H118 H 0.66249 0.54383 0.66802 0.0
C119 C 0.688 0.57874 0.63236 0.0
C120 C 0.81592 0.14463 0.15001 0.0
C121 C 0.83845 0.11867 0.16017 0.0
C122 C 0.8443 0.09815 0.12513 0.0
C123 C 0.80676 0.12986 0.07129 0.0
C124 C 0.80034 0.14966 0.1056 0.0
C125 C 0.77524 0.17574 0.08919 0.0
H126 H 0.68076 0.25326 0.9162 0.0
C127 C 0.78718 0.14196 0.02895 0.0
C128 C 0.76853 0.16878 0.03923 0.0
H129 H 0.68597 0.27167 0.05801 0.0
H130 H 0.72493 0.22741 0.07481 0.0
H131 H 0.76456 0.23506 0.91708 0.0
H132 H 0.67014 0.17909 0.92533 0.0
H133 H 0.69638 0.15943 0.89008 0.0
H134 H 0.67864 0.19746 0.87429 0.0
H135 H 0.7311 0.22814 0.86956 0.0
H136 H 0.76805 0.20159 0.88429 0.0
C137 C 0.79562 0.20695 0.09927 0.0
C138 C 0.74043 0.17246 0.11154 0.0
C139 C 0.80311 0.08994 0.88118 0.0
C140 C 0.79256 0.09825 0.83612 0.0
C141 C 0.76937 0.12399 0.82674 0.0
C142 C 0.75808 0.14171 0.86143 0.0
C143 C 0.77031 0.13394 0.90618 0.0
C144 C 0.79216 0.10824 0.91543 0.0
C145 C 0.80411 0.10439 0.96482 0.0
C146 C 0.78581 0.13203 0.98371 0.0
C147 C 0.76594 0.14918 0.9492 0.0
C148 C 0.84576 0.10721 0.97318 0.0
C149 C 0.78909 0.07298 0.97966 0.0
C150 C 0.69056 0.24768 0.95075 0.0
C151 C 0.68054 0.26581 0.9859 0.0
C152 C 0.69333 0.2578 0.03052 0.0
C153 C 0.71596 0.23216 0.04019 0.0
C154 C 0.72578 0.2141 0.00487 0.0
C155 C 0.71279 0.22169 0.96106 0.0
C156 C 0.72483 0.19882 0.92817 0.0
C157 C 0.7471 0.17637 0.95953 0.0
C158 C 0.74799 0.18579 0.00434 0.0
C159 C 0.74818 0.21663 0.8978 0.0
C160 C 0.69091 0.18288 0.90272 0.0
H161 H 0.83427 0.08709 0.056 0.0
H162 H 0.81067 0.16086 0.17593 0.0
H163 H 0.73586 0.14792 0.12131 0.0
H164 H 0.71588 0.1786 0.08856 0.0
H165 H 0.74184 0.18698 0.14231 0.0
H166 H 0.82358 0.20523 0.09088 0.0
H167 H 0.79736 0.21311 0.13535 0.0
H168 H 0.78328 0.2266 0.07928 0.0
H169 H 0.82056 0.07017 0.88981 0.0
H170 H 0.76117 0.13138 0.79255 0.0
H171 H 0.7411 0.16135 0.852 0.0
H172 H 0.85557 0.12434 0.94987 0.0
H173 H 0.85873 0.08449 0.96788 0.0
H174 H 0.85606 0.11605 0.00692 0.0
H175 H 0.76184 0.06824 0.96121 0.0
H176 H 0.78536 0.07276 0.01542 0.0
H177 H 0.80681 0.05329 0.9729 0.0
H178 H 0.86061 0.07746 0.13193 0.0
C179 C 0.82868 0.10361 0.08095 0.0
C180 C 0.29333 0.39572 0.34329 0.0
C181 C 0.31313 0.42372 0.34632 0.0
C182 C 0.32601 0.43591 0.389 0.0
C183 C 0.30168 0.39141 0.42448 0.0
C184 C 0.28814 0.37992 0.38264 0.0
C185 C 0.26992 0.3488 0.38534 0.0
H186 H 0.2191 0.23118 0.5126 0.0
C187 C 0.29377 0.36839 0.45836 0.0
C188 C 0.27518 0.34334 0.4356 0.0
H189 H 0.20093 0.23896 0.36809 0.0
H190 H 0.23236 0.28834 0.37277 0.0
H191 H 0.3015 0.25305 0.52292 0.0
H192 H 0.20324 0.30233 0.53479 0.0
H193 H 0.23568 0.31406 0.57949 0.0
H194 H 0.22195 0.27377 0.57474 0.0
H195 H 0.27841 0.24901 0.57106 0.0
H196 H 0.31116 0.27953 0.56744 0.0
C197 C 0.29028 0.3244 0.36024 0.0
C198 C 0.22967 0.35263 0.36641 0.0
C199 C 0.3371 0.38823 0.62346 0.0
C200 C 0.33514 0.37084 0.6627 0.0
C201 C 0.31735 0.34172 0.65886 0.0
C202 C 0.30196 0.33018 0.61693 0.0
C203 C 0.30437 0.34781 0.57813 0.0
C204 C 0.32178 0.37631 0.58185 0.0
C205 C 0.32232 0.39165 0.53706 0.0
C206 C 0.30228 0.36771 0.50579 0.0
C207 C 0.29177 0.34212 0.53001 0.0
C208 C 0.36216 0.39522 0.5291 0.0
C209 C 0.30137 0.42275 0.53698 0.0
C210 C 0.22239 0.24311 0.48176 0.0
C211 C 0.20752 0.23084 0.43984 0.0
C212 C 0.21177 0.24785 0.40084 0.0
C213 C 0.23015 0.27653 0.40364 0.0
C214 C 0.24457 0.28844 0.44588 0.0
C215 C 0.24079 0.27159 0.48397 0.0
C216 C 0.25813 0.28749 0.52603 0.0
C217 C 0.27261 0.31693 0.50703 0.0
C218 C 0.26448 0.31746 0.46009 0.0
C219 C 0.28878 0.26626 0.54848 0.0
C220 C 0.22845 0.29472 0.55571 0.0
H221 H 0.33116 0.43033 0.45944 0.0
H222 H 0.28358 0.38553 0.31096 0.0
H223 H 0.21925 0.37542 0.37674 0.0
H224 H 0.21217 0.33496 0.37913 0.0
H225 H 0.22573 0.3518 0.3292 0.0
H226 H 0.31965 0.32962 0.36426 0.0
H227 H 0.28033 0.32427 0.3238 0.0
H228 H 0.28844 0.30056 0.3735 0.0
H229 H 0.34997 0.41091 0.625 0.0
H230 H 0.31568 0.32761 0.68828 0.0
H231 H 0.28886 0.30788 0.61635 0.0
H232 H 0.3787 0.37542 0.54407 0.0
H233 H 0.37418 0.41704 0.54451 0.0
H234 H 0.36562 0.39476 0.49327 0.0
H235 H 0.2777 0.42027 0.55542 0.0
H236 H 0.29003 0.43036 0.50302 0.0
H237 H 0.31872 0.44164 0.55348 0.0
H238 H 0.34116 0.45753 0.39212 0.0
C239 C 0.32026 0.42001 0.42802 0.0
O240 O 0.9762 0.0648 0.6255 0.0
Mg241 Mg 0.02691 0.05467 0.60792 0.0
O242 O 0.95464 0.02467 0.58455 0.0
Mg243 Mg -0.00053 0.00728 0.54254 0.0
O244 O 0.03157 0.05487 0.54083 0.0
O245 O 0.0522 0.09262 0.58971 0.0
O246 O 0.04338 0.98947 0.4993 0.0
O247 O 0.96351 0.02779 0.47864 0.0
Mg248 Mg 0.97028 0.95542 0.47652 0.0
O249 O 0.96788 0.96067 0.5432 0.0
O250 O 0.02205 0.94828 0.46019 0.0
O251 O 0.93861 0.98828 0.43833 0.0
O252 O 0.94478 0.91959 0.50292 0.0
C253 C 0.05619 -0.00492 0.63999 0.0
C254 C 0.9504 0.04671 0.61185 0.0
C255 C 0.04826 0.0814 0.54954 0.0
C256 C 0.04738 0.96742 0.47179 0.0
C257 C 0.94236 0.01733 0.44492 0.0
C258 C 0.95048 0.93433 0.54063 0.0
O259 O 0.06071 0.02388 0.64755 0.0
O260 O 0.03463 0.98556 0.60617 0.0
O261 O 0.51784 0.50695 0.13798 0.0
Mg262 Mg 0.50261 0.47385 0.08644 0.0
O263 O 0.52411 0.54178 0.08644 0.0
Mg264 Mg 0.48841 0.51694 0.0267 0.0
O265 O 0.52535 0.47173 0.02849 0.0
O266 O 0.54142 0.44152 0.08889 0.0
O267 O 0.45311 0.49093 0.9664 0.0
O268 O 0.53141 0.53293 0.98119 0.0
Mg269 Mg 0.45865 0.56134 0.95606 0.0
O270 O 0.45511 0.5634 0.02331 0.0
O271 O 0.42841 0.52661 0.91955 0.0
O272 O 0.50955 0.57198 0.93856 0.0
O273 O 0.42954 0.59781 0.97257 0.0
C274 C 0.43217 0.47582 0.08494 0.0
C275 C 0.52836 0.53359 0.12742 0.0
C276 C 0.54396 0.44877 0.04794 0.0
C277 C 0.43252 0.49833 0.93063 0.0
C278 C 0.53534 0.55402 0.9524 0.0
C279 C 0.43653 0.58871 0.01364 0.0
O280 O 0.45244 0.45262 0.08335 0.0
O281 O 0.44297 0.50225 0.07233 0.0
C282 C 0.15373 0.1984 0.40841 0.0
C283 C 0.18606 0.2014 0.43774 0.0
C284 C 0.12977 0.17365 0.41284 0.0
C285 C 0.13789 0.15204 0.44816 0.0
C286 C 0.1722 0.153 0.47445 0.0
C287 C 0.196 0.17743 0.46852 0.0
C288 C 0.09429 0.17249 0.38253 0.0
C289 C 0.18225 0.13038 0.51239 0.0
C290 C 0.06708 0.13171 0.52084 0.0
C291 C 0.06391 0.09937 0.51511 0.0
C292 C 0.0892 0.14935 0.49674 0.0
C293 C 0.10837 0.13435 0.46535 0.0
C294 C 0.10245 0.10215 0.45601 0.0
C295 C 0.08028 0.08486 0.48133 0.0
C296 C 0.09435 0.18361 0.50793 0.0
C297 C 0.12118 0.08551 0.42154 0.0
H298 H 0.14582 0.21648 0.38401 0.0
H299 H 0.22158 0.17879 0.49005 0.0
H300 H 0.08542 0.14806 0.37556 0.0
H301 H 0.07336 0.18436 0.39914 0.0
H302 H 0.09608 0.18451 0.35027 0.0
H303 H 0.21131 0.13178 0.5259 0.0
H304 H 0.16631 0.13566 0.54 0.0
H305 H 0.17586 0.10613 0.50122 0.0
H306 H 0.05382 0.14307 0.54635 0.0
H307 H 0.0777 0.05984 0.47666 0.0
H308 H 0.08895 0.19787 0.47714 0.0
H309 H 0.12267 0.18801 0.5228 0.0
H310 H 0.07639 0.19179 0.53203 0.0
H311 H 0.12344 0.10072 0.39229 0.0
H312 H 0.10678 0.06372 0.40975 0.0
H313 H 0.14883 0.07912 0.4366 0.0
C314 C 0.36601 0.73455 0.13855 0.0
C315 C 0.37342 0.75658 0.10659 0.0
C316 C 0.38051 0.70433 0.13868 0.0
C317 C 0.40239 0.69602 0.10571 0.0
C318 C 0.41315 0.71929 0.07687 0.0
C319 C 0.39863 0.7493 0.07781 0.0
C320 C 0.36963 0.68065 0.17128 0.0
C321 C 0.43695 0.71172 0.04163 0.0
C322 C 0.44807 0.61977 0.08441 0.0
C323 C 0.424 0.6086 0.04821 0.0
C324 C 0.43987 0.64682 0.10764 0.0
C325 C 0.40711 0.66272 0.09381 0.0
C326 C 0.38108 0.64901 0.06103 0.0
C327 C 0.38993 0.62213 0.03864 0.0
C328 C 0.46773 0.65986 0.14373 0.0
C329 C 0.34547 0.66466 0.04561 0.0
H330 H 0.34679 0.74008 0.16126 0.0
H331 H 0.40524 0.76656 0.05396 0.0
H332 H 0.34586 0.66739 0.15521 0.0
H333 H 0.39163 0.66376 0.18125 0.0
H334 H 0.36214 0.6921 0.20183 0.0
H335 H 0.44612 0.73302 0.0255 0.0
H336 H 0.46098 0.69847 0.05649 0.0
H337 H 0.42183 0.69686 0.01525 0.0
H338 H 0.47446 0.60921 0.09186 0.0
H339 H 0.37123 0.61316 0.01087 0.0
H340 H 0.45498 0.67247 0.16968 0.0
H341 H 0.4852 0.67658 0.12857 0.0
H342 H 0.48519 0.64109 0.16002 0.0
H343 H 0.33195 0.67142 0.07472 0.0
H344 H 0.32693 0.64938 0.02327 0.0
H345 H 0.35023 0.68625 0.027 0.0
C346 C 0.84319 0.8078 0.65923 0.0
C347 C 0.84203 0.7867 0.62326 0.0
C348 C 0.86352 0.8355 0.66012 0.0
C349 C 0.88237 0.84256 0.62369 0.0
C350 C 0.88243 0.82073 0.58828 0.0
C351 C 0.86269 0.79302 0.58883 0.0
C352 C 0.86345 0.85759 0.69917 0.0
C353 C 0.90219 0.82712 0.54864 0.0
C354 C 0.89671 0.92076 0.57428 0.0
C355 C 0.93432 0.92134 0.57822 0.0
C356 C 0.8788 0.8971 0.59453 0.0
C357 C 0.89924 0.87368 0.61926 0.0
C358 C 0.9371 0.87725 0.62922 0.0
C359 C 0.9544 0.90097 0.60794 0.0
C360 C 0.83837 0.89469 0.58374 0.0
C361 C 0.95969 0.85383 0.65765 0.0
H362 H 0.82735 0.80323 0.68608 0.0
H363 H 0.86301 0.77643 0.56169 0.0
H364 H 0.88936 0.87041 0.70639 0.0
H365 H 0.84167 0.87495 0.69114 0.0
H366 H 0.8583 0.84498 0.72986 0.0
H367 H 0.89975 0.80757 0.52413 0.0
H368 H 0.89132 0.84849 0.53108 0.0
H369 H 0.93119 0.83124 0.56018 0.0
H370 H 0.88132 0.93657 0.55107 0.0
H371 H 0.98357 0.90145 0.61084 0.0
H372 H 0.82612 0.88812 0.61391 0.0
H373 H 0.83145 0.87622 0.55812 0.0
H374 H 0.8262 0.91694 0.57041 0.0
H375 H 0.94559 0.84552 0.68554 0.0
H376 H 0.98618 0.86389 0.67174 0.0
H377 H 0.96464 0.83336 0.63676 0.0
C378 C 0.66746 0.31882 0.95349 0.0
C379 C 0.65675 0.29311 0.97713 0.0
C380 C 0.6486 0.34715 0.95306 0.0
C381 C 0.61844 0.34946 0.97663 0.0
C382 C 0.60571 0.32256 0.99685 0.0
C383 C 0.62524 0.29478 0.99715 0.0
C384 C 0.66282 0.37516 0.93077 0.0
C385 C 0.57331 0.32377 0.0217 0.0
C386 C 0.59983 0.41868 0.04658 0.0
C387 C 0.56735 0.42952 0.02356 0.0
C388 C 0.61873 0.39451 0.02913 0.0
C389 C 0.60431 0.38042 0.988 0.0
C390 C 0.57316 0.39318 0.96264 0.0
C391 C 0.55504 0.4179 0.98072 0.0
C392 C 0.65228 0.38216 0.05692 0.0
C393 C 0.55712 0.37904 0.91852 0.0
H394 H 0.69188 0.3174 0.93793 0.0
H395 H 0.61683 0.27467 0.01494 0.0
H396 H 0.64046 0.38956 0.91392 0.0
H397 H 0.67869 0.38995 0.95658 0.0
H398 H 0.68062 0.36822 0.90579 0.0
H399 H 0.56412 0.30014 0.03014 0.0
H400 H 0.58024 0.33709 0.05334 0.0
H401 H 0.55063 0.33594 0.00146 0.0
H402 H 0.60947 0.42802 0.07954 0.0
H403 H 0.5298 0.42632 0.96299 0.0
H404 H 0.674 0.37855 0.03581 0.0
H405 H 0.64628 0.35925 0.07132 0.0
H406 H 0.66241 0.39815 0.08491 0.0
H407 H 0.57848 0.37189 0.89844 0.0
H408 H 0.53858 0.3955 0.89856 0.0
H409 H 0.54156 0.35787 0.92496 0.0
C410 C 0.2131 0.93136 0.34135 0.0
C411 C 0.20843 0.94761 0.3005 0.0
C412 C 0.19352 0.93938 0.37625 0.0
C413 C 0.16771 0.96351 0.36972 0.0
C414 C 0.16529 0.98189 0.33046 0.0
C415 C 0.18607 0.974 0.29664 0.0
C416 C 0.19787 0.91988 0.41827 0.0
C417 C 0.138 0.00777 0.32194 0.0
C418 C 0.07983 0.945 0.41248 0.0
C419 C 0.07993 0.9656 0.44878 0.0
C420 C 0.10814 0.94442 0.38673 0.0
C421 C 0.13808 0.96444 0.39799 0.0
C422 C 0.13904 0.98482 0.43527 0.0
C423 C 0.10971 0.98536 0.4601 0.0
C424 C 0.10553 0.92268 0.34676 0.0
C425 C 0.17098 0.00585 0.44897 0.0
H426 H 0.23014 0.91094 0.34526 0.0
H427 H 0.18325 0.98762 0.26614 0.0
H428 H 0.19612 0.93455 0.44829 0.0
H429 H 0.17588 0.90234 0.41611 0.0
H430 H 0.22399 0.9073 0.42281 0.0
H431 H 0.14382 0.02325 0.29426 0.0
H432 H 0.11083 -0.00257 0.31262 0.0
H433 H 0.13715 0.02208 0.35247 0.0
H434 H 0.05696 0.92971 0.40312 0.0
H435 H 0.11001 0.00135 0.48807 0.0
H436 H 0.12788 0.90559 0.35131 0.0
H437 H 0.10807 0.93611 0.31589 0.0
H438 H 0.07968 0.9096 0.34155 0.0
H439 H 0.19519 0.99147 0.45954 0.0
H440 H 0.16662 0.02167 0.477 0.0
H441 H 0.17683 0.02016 0.42018 0.0
C442 C 0.63724 0.55807 0.74982 0.0
C443 C 0.6735 0.56731 0.75401 0.0
C444 C 0.62028 0.55208 0.78764 0.0
C445 C 0.63985 0.55579 0.83094 0.0
C446 C 0.67701 0.56312 0.83553 0.0
C447 C 0.69345 0.56872 0.79698 0.0
C448 C 0.58064 0.54398 0.78116 0.0
C449 C 0.69887 0.56702 0.88108 0.0
C450 C 0.57733 0.58354 0.91088 0.0
C451 C 0.56825 0.55552 0.9304 0.0
C452 C 0.6031 0.58433 0.88128 0.0
C453 C 0.61987 0.55628 0.87044 0.0
C454 C 0.61302 0.52836 0.89292 0.0
C455 C 0.58733 0.52834 0.92296 0.0
C456 C 0.6101 0.61476 0.8588 0.0
C457 C 0.63045 0.49802 0.88252 0.0
H458 H 0.62132 0.55725 0.71702 0.0
H459 H 0.72167 0.57519 0.80062 0.0
H460 H 0.57543 0.52368 0.80213 0.0
H461 H 0.56505 0.56395 0.7919 0.0
H462 H 0.5704 0.53847 0.74565 0.0
H463 H 0.72828 0.56716 0.87913 0.0
H464 H 0.69171 0.58944 0.89602 0.0
H465 H 0.69278 0.54813 0.90402 0.0
H466 H 0.56292 0.60468 0.91704 0.0
H467 H 0.58034 0.50659 0.93797 0.0
H468 H 0.59797 0.61384 0.82311 0.0
H469 H 0.63945 0.61871 0.85961 0.0
H470 H 0.59846 0.63497 0.87494 0.0
H471 H 0.6171 0.48888 0.84994 0.0
H472 H 0.62804 0.48015 0.90861 0.0
H473 H 0.65936 0.50151 0.87941 0.0
C474 C 0.83569 0.11689 0.24327 0.0
C475 C 0.85511 0.11222 0.20703 0.0
C476 C 0.84971 0.10743 0.28678 0.0
C477 C 0.88361 0.09244 0.29407 0.0
C478 C 0.90427 0.0895 0.25823 0.0
C479 C 0.88992 0.09967 0.21533 0.0
C480 C 0.8272 0.11165 0.3243 0.0
C481 C 0.94051 0.07358 0.26442 0.0
C482 C 0.93314 0.07016 0.40852 0.0
C483 C 0.9237 0.03856 0.41052 0.0
C484 C 0.91881 0.08876 0.37191 0.0
C485 C 0.8949 0.07526 0.33652 0.0
C486 C 0.88388 0.04388 0.33972 0.0
C487 C 0.89817 0.02608 0.37669 0.0
C488 C 0.93053 0.12235 0.37017 0.0
C489 C 0.85851 0.02843 0.30281 0.0
H490 H 0.80878 0.12655 0.2374 0.0
H491 H 0.90562 0.09685 0.18789 0.0
H492 H 0.81497 0.08899 0.33168 0.0
H493 H 0.84414 0.11959 0.35537 0.0
H494 H 0.80516 0.12873 0.31547 0.0
H495 H 0.95467 0.07588 0.23447 0.0
H496 H 0.95794 0.0834 0.29382 0.0
H497 H 0.93679 0.0484 0.27094 0.0
H498 H 0.95271 0.08006 0.43456 0.0
H499 H 0.89023 0.00183 0.37813 0.0
H500 H 0.90715 0.13755 0.35893 0.0
H501 H 0.94987 0.12479 0.34556 0.0
H502 H 0.94383 0.13075 0.40325 0.0
H503 H 0.83332 0.04208 0.2956 0.0
H504 H 0.85138 0.00424 0.31142 0.0
H505 H 0.87121 0.02768 0.27159 0.0
C506 C 0.33326 0.37985 0.74509 0.0
C507 C 0.35115 0.38334 0.70728 0.0
C508 C 0.34662 0.3939 0.78626 0.0
C509 C 0.37837 0.41222 0.78962 0.0
C510 C 0.39745 0.41458 0.75223 0.0
C511 C 0.38375 0.39999 0.71171 0.0
C512 C 0.3257 0.3905 0.82545 0.0
C513 C 0.43135 0.43395 0.75423 0.0
C514 C 0.38812 0.48338 0.86489 0.0
C515 C 0.41525 0.47432 0.89916 0.0
C516 C 0.37496 0.46291 0.83021 0.0
C517 C 0.38902 0.43236 0.82968 0.0
C518 C 0.41492 0.42235 0.86551 0.0
C519 C 0.42781 0.44351 0.89991 0.0
C520 C 0.34733 0.47465 0.79281 0.0
C521 C 0.43022 0.38983 0.86643 0.0
H522 H 0.30799 0.36719 0.74214 0.0
H523 H 0.39831 0.40217 0.68311 0.0
H524 H 0.34409 0.38519 0.85653 0.0
H525 H 0.31202 0.4128 0.83103 0.0
H526 H 0.30495 0.37185 0.81972 0.0
H527 H 0.44469 0.43121 0.72367 0.0
H528 H 0.42467 0.45894 0.7579 0.0
H529 H 0.45076 0.42745 0.78385 0.0
H530 H 0.37792 0.50703 0.86425 0.0
H531 H 0.44878 0.43631 0.92621 0.0
H532 H 0.32376 0.45873 0.78782 0.0
H533 H 0.3592 0.4751 0.76098 0.0
H534 H 0.33773 0.49847 0.79948 0.0
H535 H 0.40826 0.37236 0.85969 0.0
H536 H 0.44652 0.38441 0.89909 0.0
H537 H 0.44767 0.38737 0.83965 0.0
C538 C 0.65825 0.58962 0.33855 0.0
C539 C 0.65265 0.6196 0.35474 0.0
C540 C 0.6386 0.57877 0.29849 0.0
C541 C 0.61209 0.59812 0.27455 0.0
C542 C 0.60684 0.62869 0.29033 0.0
C543 C 0.62748 0.63919 0.33006 0.0
C544 C 0.64553 0.54624 0.28245 0.0
C545 C 0.57837 0.64978 0.26636 0.0
C546 C 0.57612 0.57264 0.15548 0.0
C547 C 0.54688 0.5539 0.16309 0.0
C548 C 0.59713 0.58808 0.19125 0.0
C549 C 0.58802 0.58523 0.23527 0.0
C550 C 0.5571 0.56792 0.24243 0.0
C551 C 0.53722 0.55217 0.20639 0.0
C552 C 0.63018 0.60592 0.18235 0.0
C553 C 0.54581 0.56491 0.28853 0.0
H554 H 0.67795 0.57459 0.35746 0.0
H555 H 0.62298 0.66231 0.34277 0.0
H556 H 0.62159 0.53133 0.28465 0.0
H557 H 0.65003 0.54672 0.24679 0.0
H558 H 0.66924 0.5353 0.30253 0.0
H559 H 0.57947 0.67362 0.28099 0.0
H560 H 0.58145 0.6515 0.23034 0.0
H561 H 0.5513 0.63975 0.26836 0.0
H562 H 0.58376 0.57384 0.12206 0.0
H563 H 0.51436 0.53793 0.21227 0.0
H564 H 0.65465 0.5936 0.1981 0.0
H565 H 0.63051 0.6295 0.19761 0.0
H566 H 0.63173 0.60835 0.14594 0.0
H567 H 0.56607 0.55103 0.31029 0.0
H568 H 0.51915 0.55335 0.28763 0.0
H569 H 0.54454 0.58823 0.30426 0.0
C570 C 0.78893 0.07839 0.75669 0.0
C571 C 0.80869 0.08249 0.7994 0.0
C572 C 0.80572 0.068 0.72033 0.0
C573 C 0.84304 0.0614 0.72696 0.0
C574 C 0.86245 0.06324 0.77061 0.0
C575 C 0.84516 0.07397 0.80611 0.0
C576 C 0.78404 0.06608 0.6744 0.0
C577 C 0.90226 0.05611 0.77933 0.0
C578 C 0.89804 0.02405 0.64424 0.0
C579 C 0.9166 0.05021 0.63134 0.0
C580 C 0.87152 0.02732 0.67287 0.0
C581 C 0.86338 0.05742 0.68818 0.0
C582 C 0.87955 0.08399 0.67136 0.0
C583 C 0.90617 0.08002 0.64346 0.0
C584 C 0.85473 -0.00157 0.68973 0.0
C585 C 0.87117 0.11657 0.686 0.0
H586 H 0.76056 0.08424 0.75129 0.0
H587 H 0.86095 0.07735 0.83864 0.0
H588 H 0.79047 0.08649 0.65432 0.0
H589 H 0.791 0.04481 0.65642 0.0
H590 H 0.75461 0.06606 0.67613 0.0
H591 H 0.91233 0.05497 0.81571 0.0
H592 H 0.90808 0.0336 0.76363 0.0
H593 H 0.91752 0.07455 0.76414 0.0
H594 H 0.90615 0.00096 0.63489 0.0
H595 H 0.92026 0.10026 0.63298 0.0
H596 H 0.82575 0.00211 0.69213 0.0
H597 H 0.86833 0.99293 0.72383 0.0
H598 H 0.85754 0.97799 0.66774 0.0
H599 H 0.84165 0.12 0.68377 0.0
H600 H 0.88236 0.1347 0.66545 0.0
H601 H 0.88288 0.12008 0.72152 0.0
C602 C 0.29812 0.44289 0.26717 0.0
C603 C 0.32349 0.43838 0.30531 0.0
C604 C 0.30879 0.45375 0.2269 0.0
C605 C 0.34576 0.45932 0.22454 0.0
C606 C 0.37119 0.45599 0.26355 0.0
C607 C 0.35969 0.44579 0.30347 0.0
C608 C 0.28072 0.45789 0.18649 0.0
C609 C 0.41097 0.46129 0.26253 0.0
C610 C 0.38981 0.44308 0.12155 0.0
C611 C 0.40158 0.47293 0.11116 0.0
C612 C 0.36892 0.43856 0.15621 0.0
C613 C 0.35899 0.46461 0.18068 0.0
C614 C 0.3672 0.49509 0.16694 0.0
C615 C 0.38864 0.49893 0.13236 0.0
C616 C 0.36076 0.40563 0.1695 0.0
C617 C 0.35601 0.52351 0.19115 0.0
H618 H 0.27003 0.43747 0.26866 0.0
H619 H 0.37943 0.44204 0.33275 0.0
H620 H 0.28585 0.47951 0.16817 0.0
H621 H 0.28199 0.43802 0.16313 0.0
H622 H 0.25308 0.45886 0.1959 0.0
H623 H 0.42691 0.4594 0.29628 0.0
H624 H 0.42122 0.44381 0.24015 0.0
H625 H 0.41565 0.48468 0.24881 0.0
H626 H 0.39918 0.42289 0.10474 0.0
H627 H 0.39736 0.52211 0.1243 0.0
H628 H 0.33201 0.4032 0.17403 0.0
H629 H 0.37709 0.40004 0.20203 0.0
H630 H 0.36695 0.38822 0.14427 0.0
H631 H 0.32831 0.52069 0.1998 0.0
H632 H 0.35715 0.54495 0.17076 0.0
H633 H 0.37444 0.52668 0.22291 0.0
C634 C 0.12943 0.94819 0.87989 0.0
C635 C 0.14648 0.91942 0.88983 0.0
C636 C 0.11361 0.9555 0.83628 0.0
C637 C 0.11594 0.93408 0.80094 0.0
C638 C 0.13287 0.90496 0.81042 0.0
C639 C 0.14741 0.89778 0.85476 0.0
C640 C 0.09516 0.98662 0.82789 0.0
C641 C 0.13662 0.8818 0.77353 0.0
C642 C 0.0524 0.95226 0.69483 0.0
C643 C 0.07345 0.97318 0.67385 0.0
C644 C 0.06648 0.93759 0.73514 0.0
C645 C 0.10266 0.94348 0.75396 0.0
C646 C 0.12485 0.96224 0.73028 0.0
C647 C 0.10977 0.97736 0.69098 0.0
C648 C 0.04162 0.91826 0.75951 0.0
C649 C 0.16387 0.96827 0.74817 0.0
H650 H 0.12907 0.96556 0.90595 0.0
H651 H 0.15968 0.87519 0.86173 0.0
H652 H 0.11083 0.00148 0.80737 0.0
H653 H 0.06793 0.98336 0.80881 0.0
H654 H 0.09242 -0.00075 0.8595 0.0
H655 H 0.149 0.85958 0.78661 0.0
H656 H 0.10992 0.87663 0.75422 0.0
H657 H 0.15363 0.89198 0.74977 0.0
H658 H 0.02415 0.94938 0.68182 0.0
H659 H 0.12599 0.99359 0.67464 0.0
H660 H 0.03362 0.93213 0.78772 0.0
H661 H 0.0553 0.89699 0.77392 0.0
H662 H 0.0168 0.91129 0.73718 0.0
H663 H 0.16551 0.98441 0.77722 0.0
H664 H 0.17877 0.9789 0.72249 0.0
H665 H 0.17747 0.94629 0.76002 0.0
loop_
_geom_bond_atom_site_label_1
_geom_bond_atom_site_label_2
_geom_bond_distance
_geom_bond_site_symmetry_2
_ccdc_geom_bond_type
C0 C1 1.391 . S
C0 C4 1.391 . S
C0 H42 0.948 . S
C1 C0 1.391 . S
C1 C2 1.391 . S
C2 C1 1.391 . S
C2 H58 0.947 . S
C2 C59 1.392 1_556 S
C3 C4 1.391 1_554 S
C3 C7 1.397 . S
C3 C59 1.419 . S
C4 C0 1.391 . S
C4 C3 1.391 1_556 S
C4 C5 1.399 . S
C5 C4 1.399 . S
C5 C8 1.396 1_556 S
C5 C17 1.453 . S
C5 C18 1.684 . S
H6 C30 0.948 . S
C7 C3 1.397 . S
C7 C8 1.394 . S
C7 C26 1.723 . S
C8 C5 1.396 1_554 S
C8 C7 1.394 . S
C8 C38 1.723 . S
H9 C32 0.947 . S
H10 C33 0.948 . S
H11 C39 0.982 . S
H12 C40 0.979 . S
H13 C40 0.980 . S
H14 C40 0.983 . S
H15 C39 0.979 . S
H16 C39 0.977 . S
C17 C5 1.453 . S
C17 H46 0.982 . S
C17 H47 0.979 . S
C17 H48 0.977 . S
C18 C5 1.684 . S
C18 H43 0.979 . S
C18 H44 0.980 . S
C18 H45 0.983 . S
C19 C20 1.391 . S
C19 C24 1.391 . S
C19 H49 0.948 . S
C20 C19 1.391 . S
C20 C21 1.391 . S
C21 C20 1.391 . S
C21 C22 1.392 . S
C21 H50 0.947 . S
C22 C21 1.392 . S
C22 C23 1.419 . S
C22 H51 0.948 . S
C23 C22 1.419 . S
C23 C24 1.391 . S
C23 C27 1.397 . S
C24 C19 1.391 . S
C24 C23 1.391 . S
C24 C25 1.399 . S
C25 C24 1.399 . S
C25 C26 1.396 . S
C25 C28 1.453 . S
C25 C29 1.684 . S
C26 C7 1.723 . S
C26 C25 1.396 . S
C26 C27 1.394 . S
C27 C23 1.397 . S
C27 C26 1.394 . S
C27 C37 1.723 . S
C28 C25 1.453 . S
C28 H52 0.982 . S
C28 H53 0.979 . S
C28 H54 0.977 . S
C29 C25 1.684 . S
C29 H55 0.979 . S
C29 H56 0.980 . S
C29 H57 0.983 . S
C30 H6 0.948 . S
C30 C31 1.391 . S
C30 C35 1.391 . S
C31 C30 1.391 . S
C31 C32 1.391 . S
C32 H9 0.947 . S
C32 C31 1.391 . S
C32 C33 1.392 . S
C33 H10 0.948 . S
C33 C32 1.392 . S
C33 C34 1.419 . S
C34 C33 1.419 . S
C34 C35 1.391 . S
C34 C38 1.397 . S
C35 C30 1.391 . S
C35 C34 1.391 . S
C35 C36 1.399 . S
C36 C35 1.399 . S
C36 C37 1.396 . S
C36 C39 1.453 . S
C36 C40 1.684 . S
C37 C27 1.723 . S
C37 C36 1.396 . S
C37 C38 1.394 . S
C38 C8 1.723 . S
C38 C34 1.397 . S
C38 C37 1.394 . S
C39 H11 0.982 . S
C39 H15 0.979 . S
C39 H16 0.977 . S
C39 C36 1.453 . S
C40 H12 0.979 . S
C40 H13 0.980 . S
C40 H14 0.983 . S
C40 C36 1.684 . S
H41 C59 0.948 . S
H42 C0 0.948 . S
H43 C18 0.979 . S
H44 C18 0.980 . S
H45 C18 0.983 . S
H46 C17 0.982 . S
H47 C17 0.979 . S
H48 C17 0.977 . S
H49 C19 0.948 . S
H50 C21 0.947 . S
H51 C22 0.948 . S
H52 C28 0.982 . S
H53 C28 0.979 . S
H54 C28 0.977 . S
H55 C29 0.979 . S
H56 C29 0.980 . S
H57 C29 0.983 . S
H58 C2 0.947 . S
C59 C2 1.392 1_554 S
C59 C3 1.419 . S
C59 H41 0.948 . S
C60 C61 1.391 . S
C60 C64 1.391 . S
C60 H102 0.948 . S
C61 C60 1.391 . S
C61 C62 1.391 . S
C62 C61 1.391 . S
C62 H118 0.947 . S
C62 C119 1.392 . S
C63 C64 1.391 . S
C63 C67 1.397 . S
C63 C119 1.419 . S
C64 C60 1.391 . S
C64 C63 1.391 . S
C64 C65 1.399 . S
C65 C64 1.399 . S
C65 C68 1.396 . S
C65 C77 1.453 . S
C65 C78 1.684 . S
H66 C90 0.948 . S
C67 C63 1.397 . S
C67 C68 1.394 . S
C67 C86 1.723 . S
C68 C65 1.396 . S
C68 C67 1.394 . S
C68 C98 1.723 . S
H69 C92 0.947 . S
H70 C93 0.948 . S
H71 C99 0.982 . S
H72 C100 0.979 . S
H73 C100 0.980 . S
H74 C100 0.983 . S
H75 C99 0.979 . S
H76 C99 0.977 . S
C77 C65 1.453 . S
C77 H106 0.982 . S
C77 H107 0.979 . S
C77 H108 0.977 . S
C78 C65 1.684 . S
C78 H103 0.979 . S
C78 H104 0.980 . S
C78 H105 0.983 . S
C79 C80 1.391 . S
C79 C84 1.391 . S
C79 H109 0.948 . S
C80 C79 1.391 . S
C80 C81 1.391 . S
C81 C80 1.391 . S
C81 C82 1.392 . S
C81 H110 0.947 . S
C82 C81 1.392 . S
C82 C83 1.419 . S
C82 H111 0.948 . S
C83 C82 1.419 . S
C83 C84 1.391 . S
C83 C87 1.397 . S
C84 C79 1.391 . S
C84 C83 1.391 . S
C84 C85 1.399 . S
C85 C84 1.399 . S
C85 C86 1.396 . S
C85 C88 1.453 . S
C85 C89 1.684 . S
C86 C67 1.723 . S
C86 C85 1.396 . S
C86 C87 1.394 . S
C87 C83 1.397 . S
C87 C86 1.394 . S
C87 C97 1.723 . S
C88 C85 1.453 . S
C88 H112 0.982 . S
C88 H113 0.979 . S
C88 H114 0.977 . S
C89 C85 1.684 . S
C89 H115 0.979 . S
C89 H116 0.980 . S
C89 H117 0.983 . S
C90 H66 0.948 . S
C90 C91 1.391 . S
C90 C95 1.391 . S
C91 C90 1.391 . S
C91 C92 1.391 . S
C92 H69 0.947 . S
C92 C91 1.391 . S
C92 C93 1.392 . S
C93 H70 0.948 . S
C93 C92 1.392 . S
C93 C94 1.419 . S
C94 C93 1.419 . S
C94 C95 1.391 . S
C94 C98 1.397 . S
C95 C90 1.391 . S
C95 C94 1.391 . S
C95 C96 1.399 . S
C96 C95 1.399 . S
C96 C97 1.396 . S
C96 C99 1.453 . S
C96 C100 1.684 . S
C97 C87 1.723 . S
C97 C96 1.396 . S
C97 C98 1.394 . S
C98 C68 1.723 . S
C98 C94 1.397 . S
C98 C97 1.394 . S
C99 H71 0.982 . S
C99 H75 0.979 . S
C99 H76 0.977 . S
C99 C96 1.453 . S
C100 H72 0.979 . S
C100 H73 0.980 . S
C100 H74 0.983 . S
C100 C96 1.684 . S
H101 C119 0.948 . S
H102 C60 0.948 . S
H103 C78 0.979 . S
H104 C78 0.980 . S
H105 C78 0.983 . S
H106 C77 0.982 . S
H107 C77 0.979 . S
H108 C77 0.977 . S
H109 C79 0.948 . S
H110 C81 0.947 . S
H111 C82 0.948 . S
H112 C88 0.982 . S
H113 C88 0.979 . S
H114 C88 0.977 . S
H115 C89 0.979 . S
H116 C89 0.980 . S
H117 C89 0.983 . S
H118 C62 0.947 . S
C119 C62 1.392 . S
C119 C63 1.419 . S
C119 H101 0.948 . S
C120 C121 1.391 . S
C120 C124 1.391 . S
C120 H162 0.948 . S
C121 C120 1.391 . S
C121 C122 1.391 . S
C122 C121 1.391 . S
C122 H178 0.947 . S
C122 C179 1.392 . S
C123 C124 1.391 . S
C123 C127 1.397 . S
C123 C179 1.419 . S
C124 C120 1.391 . S
C124 C123 1.391 . S
C124 C125 1.399 . S
C125 C124 1.399 . S
C125 C128 1.396 . S
C125 C137 1.453 . S
C125 C138 1.684 . S
H126 C150 0.948 . S
C127 C123 1.397 . S
C127 C128 1.394 . S
C127 C146 1.723 1_554 S
C128 C125 1.396 . S
C128 C127 1.394 . S
C128 C158 1.723 . S
H129 C152 0.947 . S
H130 C153 0.948 . S
H131 C159 0.982 . S
H132 C160 0.979 . S
H133 C160 0.980 . S
H134 C160 0.983 . S
H135 C159 0.979 . S
H136 C159 0.977 . S
C137 C125 1.453 . S
C137 H166 0.982 . S
C137 H167 0.979 . S
C137 H168 0.977 . S
C138 C125 1.684 . S
C138 H163 0.979 . S
C138 H164 0.980 . S
C138 H165 0.983 . S
C139 C140 1.391 . S
C139 C144 1.391 . S
C139 H169 0.948 . S
C140 C139 1.391 . S
C140 C141 1.391 . S
C141 C140 1.391 . S
C141 C142 1.392 . S
C141 H170 0.947 . S
C142 C141 1.392 . S
C142 C143 1.419 . S
C142 H171 0.948 . S
C143 C142 1.419 . S
C143 C144 1.391 . S
C143 C147 1.397 . S
C144 C139 1.391 . S
C144 C143 1.391 . S
C144 C145 1.399 . S
C145 C144 1.399 . S
C145 C146 1.396 . S
C145 C148 1.453 . S
C145 C149 1.684 . S
C146 C127 1.723 1_556 S
C146 C145 1.396 . S
C146 C147 1.394 . S
C147 C143 1.397 . S
C147 C146 1.394 . S
C147 C157 1.723 . S
C148 C145 1.453 . S
C148 H172 0.982 . S
C148 H173 0.979 . S
C148 H174 0.977 1_556 S
C149 C145 1.684 . S
C149 H175 0.979 . S
C149 H176 0.980 1_556 S
C149 H177 0.983 . S
C150 H126 0.948 . S
C150 C151 1.389 1_556 S
C150 C155 1.391 . S
C151 C150 1.389 1_554 S
C151 C152 1.393 . S
C152 H129 0.947 . S
C152 C151 1.393 . S
C152 C153 1.392 . S
C153 H130 0.948 . S
C153 C152 1.392 . S
C153 C154 1.419 . S
C154 C153 1.419 . S
C154 C155 1.391 1_554 S
C154 C158 1.397 . S
C155 C150 1.391 . S
C155 C154 1.391 1_556 S
C155 C156 1.399 . S
C156 C155 1.399 . S
C156 C157 1.396 . S
C156 C159 1.453 . S
C156 C160 1.684 . S
C157 C147 1.723 . S
C157 C156 1.396 . S
C157 C158 1.394 1_556 S
C158 C128 1.723 . S
C158 C154 1.397 . S
C158 C157 1.394 1_554 S
C159 H131 0.982 . S
C159 H135 0.979 . S
C159 H136 0.977 . S
C159 C156 1.453 . S
C160 H132 0.979 . S
C160 H133 0.980 . S
C160 H134 0.983 . S
C160 C156 1.684 . S
H161 C179 0.948 . S
H162 C120 0.948 . S
H163 C138 0.979 . S
H164 C138 0.980 . S
H165 C138 0.983 . S
H166 C137 0.982 . S
H167 C137 0.979 . S
H168 C137 0.977 . S
H169 C139 0.948 . S
H170 C141 0.947 . S
H171 C142 0.948 . S
H172 C148 0.982 . S
H173 C148 0.979 . S
H174 C148 0.977 1_554 S
H175 C149 0.979 . S
H176 C149 0.980 1_554 S
H177 C149 0.983 . S
H178 C122 0.947 . S
C179 C122 1.392 . S
C179 C123 1.419 . S
C179 H161 0.948 . S
C180 C181 1.391 . S
C180 C184 1.391 . S
C180 H222 0.948 . S
C181 C180 1.391 . S
C181 C182 1.391 . S
C182 C181 1.391 . S
C182 H238 0.947 . S
C182 C239 1.392 . S
C183 C184 1.391 . S
C183 C187 1.397 . S
C183 C239 1.419 . S
C184 C180 1.391 . S
C184 C183 1.391 . S
C184 C185 1.399 . S
C185 C184 1.399 . S
C185 C188 1.396 . S
C185 C197 1.453 . S
C185 C198 1.684 . S
H186 C210 0.948 . S
C187 C183 1.397 . S
C187 C188 1.394 . S
C187 C206 1.723 . S
C188 C185 1.396 . S
C188 C187 1.394 . S
C188 C218 1.723 . S
H189 C212 0.947 . S
H190 C213 0.948 . S
H191 C219 0.982 . S
H192 C220 0.979 . S
H193 C220 0.980 . S
H194 C220 0.983 . S
H195 C219 0.979 . S
H196 C219 0.977 . S
C197 C185 1.453 . S
C197 H226 0.982 . S
C197 H227 0.979 . S
C197 H228 0.977 . S
C198 C185 1.684 . S
C198 H223 0.979 . S
C198 H224 0.980 . S
C198 H225 0.983 . S
C199 C200 1.391 . S
C199 C204 1.391 . S
C199 H229 0.948 . S
C200 C199 1.391 . S
C200 C201 1.391 . S
C201 C200 1.391 . S
C201 C202 1.392 . S
C201 H230 0.947 . S
C202 C201 1.392 . S
C202 C203 1.419 . S
C202 H231 0.948 . S
C203 C202 1.419 . S
C203 C204 1.391 . S
C203 C207 1.397 . S
C204 C199 1.391 . S
C204 C203 1.391 . S
C204 C205 1.399 . S
C205 C204 1.399 . S
C205 C206 1.396 . S
C205 C208 1.453 . S
C205 C209 1.684 . S
C206 C187 1.723 . S
C206 C205 1.396 . S
C206 C207 1.394 . S
C207 C203 1.397 . S
C207 C206 1.394 . S
C207 C217 1.723 . S
C208 C205 1.453 . S
C208 H232 0.982 . S
C208 H233 0.979 . S
C208 H234 0.977 . S
C209 C205 1.684 . S
C209 H235 0.979 . S
C209 H236 0.980 . S
C209 H237 0.983 . S
C210 H186 0.948 . S
C210 C211 1.391 . S
C210 C215 1.391 . S
C211 C210 1.391 . S
C211 C212 1.391 . S
C212 H189 0.947 . S
C212 C211 1.391 . S
C212 C213 1.392 . S
C213 H190 0.948 . S
C213 C212 1.392 . S
C213 C214 1.419 . S
C214 C213 1.419 . S
C214 C215 1.391 . S
C214 C218 1.397 . S
C215 C210 1.391 . S
C215 C214 1.391 . S
C215 C216 1.399 . S
C216 C215 1.399 . S
C216 C217 1.396 . S
C216 C219 1.453 . S
C216 C220 1.684 . S
C217 C207 1.723 . S
C217 C216 1.396 . S
C217 C218 1.394 . S
C218 C188 1.723 . S
C218 C214 1.397 . S
C218 C217 1.394 . S
C219 H191 0.982 . S
C219 H195 0.979 . S
C219 H196 0.977 . S
C219 C216 1.453 . S
C220 H192 0.979 . S
C220 H193 0.980 . S
C220 H194 0.983 . S
C220 C216 1.684 . S
H221 C239 0.948 . S
H222 C180 0.948 . S
H223 C198 0.979 . S
H224 C198 0.980 . S
H225 C198 0.983 . S
H226 C197 0.982 . S
H227 C197 0.979 . S
H228 C197 0.977 . S
H229 C199 0.948 . S
H230 C201 0.947 . S
H231 C202 0.948 . S
H232 C208 0.982 . S
H233 C208 0.979 . S
H234 C208 0.977 . S
H235 C209 0.979 . S
H236 C209 0.980 . S
H237 C209 0.983 . S
H238 C182 0.947 . S
C239 C182 1.392 . S
C239 C183 1.419 . S
C239 H221 0.948 . S
O240 Mg241 1.990 1_655 S
O240 C254 1.253 . S
Mg241 O240 1.990 1_455 S
Mg241 O244 2.180 . S
Mg241 O245 2.117 . S
Mg241 O259 2.030 . S
O242 Mg243 2.072 1_655 S
O242 C254 1.260 . S
Mg243 O242 2.072 1_455 S
Mg243 O244 2.099 . S
Mg243 O246 2.079 1_545 S
Mg243 O247 2.072 1_455 S
Mg243 O249 2.099 1_445 S
Mg243 O260 2.079 1_545 S
O244 Mg241 2.180 . S
O244 Mg243 2.099 . S
O244 C255 1.279 . S
O245 Mg241 2.117 . S
O245 C255 1.250 . S
O246 Mg243 2.079 1_565 S
O246 C256 1.264 . S
O247 Mg243 2.072 1_655 S
O247 C257 1.260 . S
Mg248 O249 2.180 . S
Mg248 O250 2.030 1_655 S
Mg248 O251 1.990 1_565 S
Mg248 O252 2.117 . S
O249 Mg243 2.099 1_665 S
O249 Mg248 2.180 . S
O249 C258 1.279 . S
O250 Mg248 2.030 1_455 S
O250 C256 1.248 . S
O251 Mg248 1.990 1_545 S
O251 C257 1.253 . S
O252 Mg248 2.117 . S
O252 C258 1.250 . S
C253 O259 1.248 1_565 S
C253 O260 1.264 . S
C254 O240 1.253 . S
C254 O242 1.260 . S
C255 O244 1.279 . S
C255 O245 1.250 . S
C256 O246 1.264 . S
C256 O250 1.248 . S
C257 O247 1.260 . S
C257 O251 1.253 . S
C258 O249 1.279 . S
C258 O252 1.250 . S
O259 Mg241 2.030 . S
O259 C253 1.248 1_545 S
O260 Mg243 2.079 1_565 S
O260 C253 1.264 . S
O261 Mg262 1.990 . S
O261 C275 1.253 . S
Mg262 O261 1.990 . S
Mg262 O265 2.180 . S
Mg262 O266 2.117 . S
Mg262 O280 2.030 . S
O263 Mg264 2.072 . S
O263 C275 1.260 . S
Mg264 O263 2.072 . S
Mg264 O265 2.099 . S
Mg264 O267 2.079 1_554 S
Mg264 O268 2.072 1_554 S
Mg264 O270 2.099 . S
Mg264 O281 2.079 . S
O265 Mg262 2.180 . S
O265 Mg264 2.099 . S
O265 C276 1.279 . S
O266 Mg262 2.117 . S
O266 C276 1.250 . S
O267 Mg264 2.079 1_556 S
O267 C277 1.264 . S
O268 Mg264 2.072 1_556 S
O268 C278 1.260 . S
Mg269 O270 2.180 1_556 S
Mg269 O271 2.030 . S
Mg269 O272 1.990 . S
Mg269 O273 2.117 . S
O270 Mg264 2.099 . S
O270 Mg269 2.180 1_554 S
O270 C279 1.279 . S
O271 Mg269 2.030 . S
O271 C277 1.248 . S
O272 Mg269 1.990 . S
O272 C278 1.253 . S
O273 Mg269 2.117 . S
O273 C279 1.251 1_556 S
C274 O280 1.248 . S
C274 O281 1.264 . S
C275 O261 1.253 . S
C275 O263 1.260 . S
C276 O265 1.279 . S
C276 O266 1.250 . S
C277 O267 1.264 . S
C277 O271 1.248 . S
C278 O268 1.260 . S
C278 O272 1.253 . S
C279 O270 1.279 . S
C279 O273 1.251 1_554 S
O280 Mg262 2.030 . S
O280 C274 1.248 . S
O281 Mg264 2.079 . S
O281 C274 1.264 . S
C282 C283 1.391 . S
C282 C284 1.394 . S
C282 H298 0.931 . S
C283 C282 1.391 . S
C283 C287 1.376 . S
C284 C282 1.394 . S
C284 C285 1.369 . S
C284 C288 1.531 . S
C285 C284 1.369 . S
C285 C286 1.410 . S
C285 C293 1.503 . S
C286 C285 1.410 . S
C286 C287 1.392 . S
C286 C289 1.511 . S
C287 C283 1.376 . S
C287 C286 1.392 . S
C287 H299 0.929 . S
C288 C284 1.531 . S
C288 H300 0.960 . S
C288 H301 0.962 . S
C288 H302 0.960 . S
C289 C286 1.511 . S
C289 H303 0.961 . S
C289 H304 0.961 . S
C289 H305 0.961 . S
C290 C291 1.370 . S
C290 C292 1.363 . S
C290 H306 0.931 . S
C291 C290 1.370 . S
C291 C295 1.408 . S
C292 C290 1.363 . S
C292 C293 1.370 . S
C292 C296 1.524 . S
C293 C285 1.503 . S
C293 C292 1.370 . S
C293 C294 1.403 . S
C294 C293 1.403 . S
C294 C295 1.404 . S
C294 C297 1.539 . S
C295 C291 1.408 . S
C295 C294 1.404 . S
C295 H307 0.930 . S
C296 C292 1.524 . S
C296 H308 0.956 . S
C296 H309 0.961 . S
C296 H310 0.961 . S
C297 C294 1.539 . S
C297 H311 0.958 . S
C297 H312 0.961 . S
C297 H313 0.960 . S
H298 C282 0.931 . S
H299 C287 0.929 . S
H300 C288 0.960 . S
H301 C288 0.962 . S
H302 C288 0.960 . S
H303 C289 0.961 . S
H304 C289 0.961 . S
H305 C289 0.961 . S
H306 C290 0.931 . S
H307 C295 0.930 . S
H308 C296 0.956 . S
H309 C296 0.961 . S
H310 C296 0.961 . S
H311 C297 0.958 . S
H312 C297 0.961 . S
H313 C297 0.960 . S
C314 C315 1.391 . S
C314 C316 1.394 . S
C314 H330 0.931 . S
C315 C314 1.391 . S
C315 C319 1.376 . S
C316 C314 1.394 . S
C316 C317 1.369 . S
C316 C320 1.531 . S
C317 C316 1.369 . S
C317 C318 1.410 . S
C317 C325 1.503 . S
C318 C317 1.410 . S
C318 C319 1.392 . S
C318 C321 1.511 . S
C319 C315 1.376 . S
C319 C318 1.392 . S
C319 H331 0.929 . S
C320 C316 1.531 . S
C320 H332 0.960 . S
C320 H333 0.962 . S
C320 H334 0.960 . S
C321 C318 1.511 . S
C321 H335 0.961 . S
C321 H336 0.961 . S
C321 H337 0.961 . S
C322 C323 1.370 . S
C322 C324 1.363 . S
C322 H338 0.931 . S
C323 C322 1.370 . S
C323 C327 1.408 . S
C324 C322 1.363 . S
C324 C325 1.370 . S
C324 C328 1.524 . S
C325 C317 1.503 . S
C325 C324 1.370 . S
C325 C326 1.403 . S
C326 C325 1.403 . S
C326 C327 1.404 . S
C326 C329 1.539 1_554 S
C327 C323 1.408 . S
C327 C326 1.404 . S
C327 H339 0.930 1_554 S
C328 C324 1.524 . S
C328 H340 0.956 . S
C328 H341 0.961 . S
C328 H342 0.961 . S
C329 C326 1.539 1_556 S
C329 H343 0.958 . S
C329 H344 0.961 . S
C329 H345 0.960 . S
H330 C314 0.931 . S
H331 C319 0.929 . S
H332 C320 0.960 . S
H333 C320 0.962 . S
H334 C320 0.960 . S
H335 C321 0.961 . S
H336 C321 0.961 . S
H337 C321 0.961 . S
H338 C322 0.931 . S
H339 C327 0.930 1_556 S
H340 C328 0.956 . S
H341 C328 0.961 . S
H342 C328 0.961 . S
H343 C329 0.958 . S
H344 C329 0.961 . S
H345 C329 0.960 . S
C346 C347 1.391 . S
C346 C348 1.394 . S
C346 H362 0.931 . S
C347 C346 1.391 . S
C347 C351 1.376 . S
C348 C346 1.394 . S
C348 C349 1.369 . S
C348 C352 1.531 . S
C349 C348 1.369 . S
C349 C350 1.410 . S
C349 C357 1.503 . S
C350 C349 1.410 . S
C350 C351 1.392 . S
C350 C353 1.511 . S
C351 C347 1.376 . S
C351 C350 1.392 . S
C351 H363 0.929 . S
C352 C348 1.531 . S
C352 H364 0.960 . S
C352 H365 0.962 . S
C352 H366 0.960 . S
C353 C350 1.511 . S
C353 H367 0.961 . S
C353 H368 0.961 . S
C353 H369 0.961 . S
C354 C355 1.370 . S
C354 C356 1.363 . S
C354 H370 0.931 . S
C355 C354 1.370 . S
C355 C359 1.408 . S
C356 C354 1.363 . S
C356 C357 1.370 . S
C356 C360 1.524 . S
C357 C349 1.503 . S
C357 C356 1.370 . S
C357 C358 1.403 . S
C358 C357 1.403 . S
C358 C359 1.404 . S
C358 C361 1.539 . S
C359 C355 1.408 . S
C359 C358 1.404 . S
C359 H371 0.930 . S
C360 C356 1.524 . S
C360 H372 0.956 . S
C360 H373 0.961 . S
C360 H374 0.961 . S
C361 C358 1.539 . S
C361 H375 0.958 . S
C361 H376 0.986 . S
C361 H377 0.960 . S
H362 C346 0.931 . S
H363 C351 0.929 . S
H364 C352 0.960 . S
H365 C352 0.962 . S
H366 C352 0.960 . S
H367 C353 0.961 . S
H368 C353 0.961 . S
H369 C353 0.961 . S
H370 C354 0.931 . S
H371 C359 0.930 . S
H372 C360 0.956 . S
H373 C360 0.961 . S
H374 C360 0.961 . S
H375 C361 0.958 . S
H376 C361 0.986 . S
H377 C361 0.960 . S
C378 C379 1.391 . S
C378 C380 1.394 . S
C378 H394 0.931 . S
C379 C378 1.391 . S
C379 C383 1.376 . S
C380 C378 1.394 . S
C380 C381 1.369 . S
C380 C384 1.531 1_556 S
C381 C380 1.369 . S
C381 C382 1.410 . S
C381 C389 1.503 1_556 S
C382 C381 1.410 . S
C382 C383 1.392 . S
C382 C385 1.511 . S
C383 C379 1.376 . S
C383 C382 1.392 . S
C383 H395 0.929 . S
C384 C380 1.531 1_554 S
C384 H396 0.960 1_554 S
C384 H397 0.962 . S
C384 H398 0.960 1_554 S
C385 C382 1.511 . S
C385 H399 0.961 . S
C385 H400 0.961 1_556 S
C385 H401 0.961 . S
C386 C387 1.370 . S
C386 C388 1.363 . S
C386 H402 0.931 . S
C387 C386 1.370 . S
C387 C391 1.408 1_554 S
C388 C386 1.363 . S
C388 C389 1.370 . S
C388 C392 1.524 . S
C389 C381 1.503 1_554 S
C389 C388 1.370 . S
C389 C390 1.403 1_554 S
C390 C389 1.403 1_556 S
C390 C391 1.404 . S
C390 C393 1.539 . S
C391 C387 1.408 1_556 S
C391 C390 1.404 . S
C391 H403 0.930 . S
C392 C388 1.524 . S
C392 H404 0.956 . S
C392 H405 0.961 . S
C392 H406 0.961 . S
C393 C390 1.539 . S
C393 H407 0.958 . S
C393 H408 0.961 . S
C393 H409 0.960 . S
H394 C378 0.931 . S
H395 C383 0.929 . S
H396 C384 0.960 1_556 S
H397 C384 0.962 . S
H398 C384 0.960 1_556 S
H399 C385 0.961 . S
H400 C385 0.961 1_554 S
H401 C385 0.961 . S
H402 C386 0.931 . S
H403 C391 0.930 . S
H404 C392 0.956 . S
H405 C392 0.961 . S
H406 C392 0.961 . S
H407 C393 0.958 . S
H408 C393 0.961 . S
H409 C393 0.960 . S
C410 C411 1.391 . S
C410 C412 1.394 . S
C410 H426 0.931 . S
C411 C410 1.391 . S
C411 C415 1.376 . S
C412 C410 1.394 . S
C412 C413 1.369 . S
C412 C416 1.531 . S
C413 C412 1.369 . S
C413 C414 1.410 . S
C413 C421 1.503 . S
C414 C413 1.410 . S
C414 C415 1.392 . S
C414 C417 1.511 1_565 S
C415 C411 1.376 . S
C415 C414 1.392 . S
C415 H427 0.929 . S
C416 C412 1.531 . S
C416 H428 0.960 . S
C416 H429 0.962 . S
C416 H430 0.960 . S
C417 C414 1.511 1_545 S
C417 H431 0.961 . S
C417 H432 0.961 . S
C417 H433 0.961 . S
C418 C419 1.370 . S
C418 C420 1.363 . S
C418 H434 0.931 . S
C419 C418 1.370 . S
C419 C423 1.408 . S
C420 C418 1.363 . S
C420 C421 1.370 . S
C420 C424 1.524 . S
C421 C413 1.503 . S
C421 C420 1.370 . S
C421 C422 1.403 . S
C422 C421 1.403 . S
C422 C423 1.404 . S
C422 C425 1.539 1_565 S
C423 C419 1.408 . S
C423 C422 1.404 . S
C423 H435 0.930 1_565 S
C424 C420 1.524 . S
C424 H436 0.956 . S
C424 H437 0.961 . S
C424 H438 0.961 . S
C425 C422 1.539 1_545 S
C425 H439 0.958 . S
C425 H440 0.961 . S
C425 H441 0.960 . S
H426 C410 0.931 . S
H427 C415 0.929 . S
H428 C416 0.960 . S
H429 C416 0.962 . S
H430 C416 0.960 . S
H431 C417 0.961 . S
H432 C417 0.961 . S
H433 C417 0.961 . S
H434 C418 0.931 . S
H435 C423 0.930 1_545 S
H436 C424 0.956 . S
H437 C424 0.961 . S
H438 C424 0.961 . S
H439 C425 0.958 . S
H440 C425 0.961 . S
H441 C425 0.960 . S
C442 C443 1.391 . S
C442 C444 1.394 . S
C442 H458 0.931 . S
C443 C442 1.391 . S
C443 C447 1.376 . S
C444 C442 1.394 . S
C444 C445 1.369 . S
C444 C448 1.531 . S
C445 C444 1.369 . S
C445 C446 1.410 . S
C445 C453 1.503 . S
C446 C445 1.410 . S
C446 C447 1.392 . S
C446 C449 1.511 . S
C447 C443 1.376 . S
C447 C446 1.392 . S
C447 H459 0.929 . S
C448 C444 1.531 . S
C448 H460 0.960 . S
C448 H461 0.962 . S
C448 H462 0.960 . S
C449 C446 1.511 . S
C449 H463 0.961 . S
C449 H464 0.961 . S
C449 H465 0.961 . S
C450 C451 1.370 . S
C450 C452 1.363 . S
C450 H466 0.931 . S
C451 C450 1.370 . S
C451 C455 1.408 . S
C452 C450 1.363 . S
C452 C453 1.370 . S
C452 C456 1.524 . S
C453 C445 1.503 . S
C453 C452 1.370 . S
C453 C454 1.403 . S
C454 C453 1.403 . S
C454 C455 1.404 . S
C454 C457 1.539 . S
C455 C451 1.408 . S
C455 C454 1.404 . S
C455 H467 0.930 . S
C456 C452 1.524 . S
C456 H468 0.956 . S
C456 H469 0.961 . S
C456 H470 0.961 . S
C457 C454 1.539 . S
C457 H471 0.958 . S
C457 H472 0.961 . S
C457 H473 0.960 . S
H458 C442 0.931 . S
H459 C447 0.929 . S
H460 C448 0.960 . S
H461 C448 0.962 . S
H462 C448 0.960 . S
H463 C449 0.961 . S
H464 C449 0.961 . S
H465 C449 0.961 . S
H466 C450 0.931 . S
H467 C455 0.930 . S
H468 C456 0.956 . S
H469 C456 0.961 . S
H470 C456 0.961 . S
H471 C457 0.958 . S
H472 C457 0.961 . S
H473 C457 0.960 . S
C474 C475 1.391 . S
C474 C476 1.394 . S
C474 H490 0.931 . S
C475 C474 1.391 . S
C475 C479 1.376 . S
C476 C474 1.394 . S
C476 C477 1.369 . S
C476 C480 1.531 . S
C477 C476 1.369 . S
C477 C478 1.410 . S
C477 C485 1.503 . S
C478 C477 1.410 . S
C478 C479 1.392 . S
C478 C481 1.511 . S
C479 C475 1.376 . S
C479 C478 1.392 . S
C479 H491 0.929 . S
C480 C476 1.531 . S
C480 H492 0.960 . S
C480 H493 0.962 . S
C480 H494 0.960 . S
C481 C478 1.511 . S
C481 H495 0.961 . S
C481 H496 0.961 . S
C481 H497 0.961 . S
C482 C483 1.370 . S
C482 C484 1.363 . S
C482 H498 0.931 . S
C483 C482 1.370 . S
C483 C487 1.408 . S
C484 C482 1.363 . S
C484 C485 1.370 . S
C484 C488 1.524 . S
C485 C477 1.503 . S
C485 C484 1.370 . S
C485 C486 1.403 . S
C486 C485 1.403 . S
C486 C487 1.404 . S
C486 C489 1.539 . S
C487 C483 1.408 . S
C487 C486 1.404 . S
C487 H499 0.930 . S
C488 C484 1.524 . S
C488 H500 0.956 . S
C488 H501 0.961 . S
C488 H502 0.961 . S
C489 C486 1.539 . S
C489 H503 0.958 1_545 S
C489 H504 0.966 . S
C489 H505 0.960 . S
H490 C474 0.931 . S
H491 C479 0.929 . S
H492 C480 0.960 . S
H493 C480 0.962 . S
H494 C480 0.960 . S
H495 C481 0.961 . S
H496 C481 0.961 . S
H497 C481 0.961 . S
H498 C482 0.931 . S
H499 C487 0.930 . S
H500 C488 0.956 . S
H501 C488 0.961 . S
H502 C488 0.961 . S
H503 C489 0.958 1_565 S
H504 C489 0.966 . S
H505 C489 0.960 . S
C506 C507 1.391 . S
C506 C508 1.394 . S
C506 H522 0.931 . S
C507 C506 1.391 . S
C507 C511 1.376 . S
C508 C506 1.394 . S
C508 C509 1.369 . S
C508 C512 1.531 . S
C509 C508 1.369 . S
C509 C510 1.410 . S
C509 C517 1.503 . S
C510 C509 1.410 . S
C510 C511 1.392 . S
C510 C513 1.511 . S
C511 C507 1.376 . S
C511 C510 1.392 . S
C511 H523 0.929 . S
C512 C508 1.531 . S
C512 H524 0.960 . S
C512 H525 0.962 . S
C512 H526 0.960 . S
C513 C510 1.511 . S
C513 H527 0.961 . S
C513 H528 0.961 . S
C513 H529 0.961 . S
C514 C515 1.370 . S
C514 C516 1.363 . S
C514 H530 0.931 . S
C515 C514 1.370 . S
C515 C519 1.408 . S
C516 C514 1.363 . S
C516 C517 1.370 . S
C516 C520 1.524 . S
C517 C509 1.503 . S
C517 C516 1.370 . S
C517 C518 1.403 . S
C518 C517 1.403 . S
C518 C519 1.404 . S
C518 C521 1.539 . S
C519 C515 1.408 . S
C519 C518 1.404 . S
C519 H531 0.930 . S
C520 C516 1.524 . S
C520 H532 0.956 . S
C520 H533 0.961 . S
C520 H534 0.961 . S
C521 C518 1.539 . S
C521 H535 0.958 . S
C521 H536 0.961 . S
C521 H537 0.960 . S
H522 C506 0.931 . S
H523 C511 0.929 . S
H524 C512 0.960 . S
H525 C512 0.962 . S
H526 C512 0.960 . S
H527 C513 0.961 . S
H528 C513 0.961 . S
H529 C513 0.961 . S
H530 C514 0.931 . S
H531 C519 0.930 . S
H532 C520 0.956 . S
H533 C520 0.961 . S
H534 C520 0.961 . S
H535 C521 0.958 . S
H536 C521 0.961 . S
H537 C521 0.960 . S
C538 C539 1.391 . S
C538 C540 1.394 . S
C538 H554 0.931 . S
C539 C538 1.391 . S
C539 C543 1.376 . S
C540 C538 1.394 . S
C540 C541 1.369 . S
C540 C544 1.531 . S
C541 C540 1.369 . S
C541 C542 1.410 . S
C541 C549 1.503 . S
C542 C541 1.410 . S
C542 C543 1.392 . S
C542 C545 1.511 . S
C543 C539 1.376 . S
C543 C542 1.392 . S
C543 H555 0.929 . S
C544 C540 1.531 . S
C544 H556 0.960 . S
C544 H557 0.962 . S
C544 H558 0.960 . S
C545 C542 1.511 . S
C545 H559 0.961 . S
C545 H560 0.961 . S
C545 H561 0.961 . S
C546 C547 1.370 . S
C546 C548 1.363 . S
C546 H562 0.931 . S
C547 C546 1.370 . S
C547 C551 1.408 . S
C548 C546 1.363 . S
C548 C549 1.370 . S
C548 C552 1.524 . S
C549 C541 1.503 . S
C549 C548 1.370 . S
C549 C550 1.403 . S
C550 C549 1.403 . S
C550 C551 1.404 . S
C550 C553 1.539 . S
C551 C547 1.408 . S
C551 C550 1.404 . S
C551 H563 0.930 . S
C552 C548 1.524 . S
C552 H564 0.956 . S
C552 H565 0.961 . S
C552 H566 0.961 . S
C553 C550 1.539 . S
C553 H567 0.958 . S
C553 H568 0.961 . S
C553 H569 0.960 . S
H554 C538 0.931 . S
H555 C543 0.929 . S
H556 C544 0.960 . S
H557 C544 0.962 . S
H558 C544 0.960 . S
H559 C545 0.961 . S
H560 C545 0.961 . S
H561 C545 0.961 . S
H562 C546 0.931 . S
H563 C551 0.930 . S
H564 C552 0.956 . S
H565 C552 0.961 . S
H566 C552 0.961 . S
H567 C553 0.958 . S
H568 C553 0.961 . S
H569 C553 0.960 . S
C570 C571 1.391 . S
C570 C572 1.394 . S
C570 H586 0.931 . S
C571 C570 1.391 . S
C571 C575 1.376 . S
C572 C570 1.394 . S
C572 C573 1.369 . S
C572 C576 1.531 . S
C573 C572 1.369 . S
C573 C574 1.410 . S
C573 C581 1.503 . S
C574 C573 1.410 . S
C574 C575 1.392 . S
C574 C577 1.511 . S
C575 C571 1.376 . S
C575 C574 1.392 . S
C575 H587 0.929 . S
C576 C572 1.531 . S
C576 H588 0.960 . S
C576 H589 0.962 . S
C576 H590 0.960 . S
C577 C574 1.511 . S
C577 H591 0.961 . S
C577 H592 0.961 . S
C577 H593 0.961 . S
C578 C579 1.370 . S
C578 C580 1.363 . S
C578 H594 0.931 . S
C579 C578 1.370 . S
C579 C583 1.408 . S
C580 C578 1.363 . S
C580 C581 1.370 . S
C580 C584 1.524 . S
C581 C573 1.503 . S
C581 C580 1.370 . S
C581 C582 1.403 . S
C582 C581 1.403 . S
C582 C583 1.404 . S
C582 C585 1.539 . S
C583 C579 1.408 . S
C583 C582 1.404 . S
C583 H595 0.930 . S
C584 C580 1.524 . S
C584 H596 0.956 . S
C584 H597 0.961 . S
C584 H598 0.961 1_545 S
C585 C582 1.539 . S
C585 H599 0.958 . S
C585 H600 0.961 . S
C585 H601 0.960 . S
H586 C570 0.931 . S
H587 C575 0.929 . S
H588 C576 0.960 . S
H589 C576 0.962 . S
H590 C576 0.960 . S
H591 C577 0.961 . S
H592 C577 0.961 . S
H593 C577 0.961 . S
H594 C578 0.931 . S
H595 C583 0.930 . S
H596 C584 0.956 . S
H597 C584 0.961 . S
H598 C584 0.961 1_565 S
H599 C585 0.958 . S
H600 C585 0.961 . S
H601 C585 0.960 . S
C602 C603 1.391 . S
C602 C604 1.394 . S
C602 H618 0.931 . S
C603 C602 1.391 . S
C603 C607 1.376 . S
C604 C602 1.394 . S
C604 C605 1.369 . S
C604 C608 1.531 . S
C605 C604 1.369 . S
C605 C606 1.410 . S
C605 C613 1.503 . S
C606 C605 1.410 . S
C606 C607 1.392 . S
C606 C609 1.511 . S
C607 C603 1.376 . S
C607 C606 1.392 . S
C607 H619 0.929 . S
C608 C604 1.531 . S
C608 H620 0.960 . S
C608 H621 0.962 . S
C608 H622 0.960 . S
C609 C606 1.511 . S
C609 H623 0.961 . S
C609 H624 0.961 . S
C609 H625 0.961 . S
C610 C611 1.370 . S
C610 C612 1.363 . S
C610 H626 0.931 . S
C611 C610 1.370 . S
C611 C615 1.408 . S
C612 C610 1.363 . S
C612 C613 1.370 . S
C612 C616 1.524 . S
C613 C605 1.503 . S
C613 C612 1.370 . S
C613 C614 1.403 . S
C614 C613 1.403 . S
C614 C615 1.404 . S
C614 C617 1.539 . S
C615 C611 1.408 . S
C615 C614 1.404 . S
C615 H627 0.930 . S
C616 C612 1.524 . S
C616 H628 0.956 . S
C616 H629 0.961 . S
C616 H630 0.961 . S
C617 C614 1.539 . S
C617 H631 0.958 . S
C617 H632 0.961 . S
C617 H633 0.960 . S
H618 C602 0.931 . S
H619 C607 0.929 . S
H620 C608 0.960 . S
H621 C608 0.962 . S
H622 C608 0.960 . S
H623 C609 0.961 . S
H624 C609 0.961 . S
H625 C609 0.961 . S
H626 C610 0.931 . S
H627 C615 0.930 . S
H628 C616 0.956 . S
H629 C616 0.961 . S
H630 C616 0.961 . S
H631 C617 0.958 . S
H632 C617 0.961 . S
H633 C617 0.960 . S
C634 C635 1.391 . S
C634 C636 1.394 . S
C634 H650 0.906 1_565 S
C635 C634 1.391 . S
C635 C639 1.376 . S
C636 C634 1.394 . S
C636 C637 1.369 . S
C636 C640 1.531 1_565 S
C637 C636 1.369 . S
C637 C638 1.410 . S
C637 C645 1.503 . S
C638 C637 1.410 . S
C638 C639 1.392 . S
C638 C641 1.511 . S
C639 C635 1.376 . S
C639 C638 1.392 . S
C639 H651 0.929 . S
C640 C636 1.531 1_545 S
C640 H652 0.960 . S
C640 H653 0.962 . S
C640 H654 0.960 . S
C641 C638 1.511 . S
C641 H655 0.961 . S
C641 H656 0.961 . S
C641 H657 0.961 . S
C642 C643 1.370 . S
C642 C644 1.363 . S
C642 H658 0.931 . S
C643 C642 1.370 . S
C643 C647 1.408 . S
C644 C642 1.363 . S
C644 C645 1.370 . S
C644 C648 1.524 . S
C645 C637 1.503 . S
C645 C644 1.370 . S
C645 C646 1.403 . S
C646 C645 1.403 . S
C646 C647 1.404 . S
C646 C649 1.539 . S
C647 C643 1.408 . S
C647 C646 1.404 . S
C647 H659 0.930 . S
C648 C644 1.524 . S
C648 H660 0.956 . S
C648 H661 0.961 . S
C648 H662 0.961 . S
C649 C646 1.539 . S
C649 H663 0.958 1_565 S
C649 H664 0.961 . S
C649 H665 0.960 . S
H650 C634 0.906 1_545 S
H651 C639 0.929 . S
H652 C640 0.960 . S
H653 C640 0.962 . S
H654 C640 0.960 . S
H655 C641 0.961 . S
H656 C641 0.961 . S
H657 C641 0.961 . S
H658 C642 0.931 . S
H659 C647 0.930 . S
H660 C648 0.956 . S
H661 C648 0.961 . S
H662 C648 0.961 . S
H663 C649 0.958 1_545 S
H664 C649 0.961 . S
H665 C649 0.960 . S
C291 C255 1.369 . S
C283 C211 1.528 . S
C315 C31 1.429 . S
C323 C279 1.334 . S
C347 C91 1.637 . S
C355 C258 1.482 . S
C379 C151 1.666 1_556 S
C387 C276 1.491 . S
C419 C256 1.628 . S
C411 C20 1.607 . S
C451 C278 1.594 . S
C443 C61 1.547 . S
C475 C121 1.562 . S
C483 C257 1.511 . S
C507 C200 1.582 . S
C515 C277 1.550 . S
C547 C275 1.533 . S
C539 C80 1.520 . S
C579 C254 1.574 . S
C571 C140 1.618 . S
C611 C274 1.620 . S
C603 C181 1.572 . S
C635 C1 1.572 . S
C643 C253 1.533 . S
