# Generated by pormake.
# Topology pth, (4,4)-cn, num edge types: 1
# Building blocks:
#     Node 0, Type 0, BuildingBlock: TATPOV_clean_sbu_0, # of connection points: 4
#     Node 1, Type 0, BuildingBlock: TATPOV_clean_sbu_0, # of connection points: 4
#     Node 2, Type 0, BuildingBlock: TATPOV_clean_sbu_0, # of connection points: 4
#     Node 3, Type 1, BuildingBlock: MIFKUJ_clean_linker_1, # of connection points: 4
#     Node 4, Type 1, BuildingBlock: MIFKUJ_clean_linker_1, # of connection points: 4
#     Node 5, Type 1, BuildingBlock: MIFKUJ_clean_linker_1, # of connection points: 4
#     Edge 6, Type (0, 1), BuildingBlock: MIFKUJ_clean_linker_0, # of connection points: 2
#     Edge 7, Type (0, 1), BuildingBlock: MIFKUJ_clean_linker_0, # of connection points: 2
#     Edge 8, Type (0, 1), BuildingBlock: MIFKUJ_clean_linker_0, # of connection points: 2
#     Edge 9, Type (0, 1), BuildingBlock: MIFKUJ_clean_linker_0, # of connection points: 2
#     Edge 10, Type (0, 1), BuildingBlock: MIFKUJ_clean_linker_0, # of connection points: 2
#     Edge 11, Type (0, 1), BuildingBlock: MIFKUJ_clean_linker_0, # of connection points: 2
#     Edge 12, Type (0, 1), BuildingBlock: MIFKUJ_clean_linker_0, # of connection points: 2
#     Edge 13, Type (0, 1), BuildingBlock: MIFKUJ_clean_linker_0, # of connection points: 2
#     Edge 14, Type (0, 1), BuildingBlock: MIFKUJ_clean_linker_0, # of connection points: 2
#     Edge 15, Type (0, 1), BuildingBlock: MIFKUJ_clean_linker_0, # of connection points: 2
#     Edge 16, Type (0, 1), BuildingBlock: MIFKUJ_clean_linker_0, # of connection points: 2
#     Edge 17, Type (0, 1), BuildingBlock: MIFKUJ_clean_linker_0, # of connection points: 2
# Relax obj value: 0.038
# Max RMSD: 0.160
# Mean RMSD: 0.089
data_MOF--net-pth--node1-TATPOV_clean_sbu_0--node2-MIFKUJ_clean_linker_1--edge1-MIFKUJ_clean_linker_0
_symmetry_space_group_name_H-M    P1
_symmetry_Int_Tables_number       1
_symmetry_cell_setting            triclinic
loop_
_symmetry_equiv_pos_as_xyz
'x, y, z'
_cell_length_a     37.106177
_cell_length_b     36.750357
_cell_length_c     77.686362
_cell_angle_alpha  92.392878
_cell_angle_beta   92.132098
_cell_angle_gamma 120.9481
loop_
_atom_site_label
_atom_site_type_symbol
_atom_site_fract_x
_atom_site_fract_y
_atom_site_fract_z
_atom_type_partial_charge
Zn0 Zn 0.12022 0.02691 0.03368 0.0
Zn1 Zn 0.08055 0.05844 0.05148 0.0
O2 O 0.09208 0.02454 0.06901 0.0
O3 O 0.12291 0.99683 0.05438 0.0
O4 O 0.05762 0.08739 0.0662 0.0
O5 O 0.16778 0.08534 0.0295 0.0
O6 O 0.13079 0.10974 0.04144 0.0
C7 C 0.10819 0.00118 0.06824 0.0
C8 C 0.03485 -0.00166 0.01988 0.0
O9 O 0.03365 0.01913 0.03317 0.0
O10 O 0.06818 0.99819 0.01698 0.0
C11 C 0.02737 0.09268 0.0618 0.0
O12 O 0.00725 0.07722 0.04655 0.0
C13 C 0.16284 0.11612 0.03355 0.0
Zn14 Zn 0.11698 0.10369 0.36074 0.0
Zn15 Zn 0.04866 0.07384 0.37945 0.0
O16 O 0.09614 0.08434 0.39703 0.0
O17 O 0.15287 0.11113 0.38237 0.0
O18 O 0.00036 0.05768 0.39446 0.0
O19 O 0.10893 0.15075 0.35296 0.0
O20 O 0.05271 0.1251 0.36791 0.0
C21 C 0.13548 0.09907 0.39644 0.0
C22 C 0.04978 0.01696 0.35021 0.0
O23 O 0.03085 0.02228 0.36253 0.0
O24 O 0.0861 0.04664 0.34693 0.0
C25 C 0.96885 0.02064 0.39581 0.0
O26 O 0.96561 0.9881 0.38665 0.0
C27 C 0.07747 0.15213 0.35784 0.0
Zn28 Zn 0.07858 0.94907 0.71807 0.0
Zn29 Zn 0.03284 0.98034 0.70434 0.0
O30 O 0.06395 0.97459 0.68396 0.0
O31 O 0.09794 0.94516 0.69456 0.0
O32 O 0.99528 -0.00115 0.69342 0.0
O33 O 0.02625 0.89961 0.72657 0.0
O34 O 0.99 0.92573 0.71509 0.0
C35 C 0.08813 0.95989 0.68196 0.0
C36 C 0.10187 0.03344 0.73248 0.0
O37 O 0.07165 0.02852 0.72235 0.0
O38 O 0.11124 0.0048 0.73281 0.0
C39 C 0.00497 0.02147 0.68051 0.0
O40 O 0.04196 0.0354 0.67429 0.0
C41 C 0.99142 0.89741 0.72349 0.0
H42 H 0.02995 0.48759 0.18369 0.0
H43 H 0.03377 0.43264 0.16633 0.0
H44 H 0.90721 0.33982 0.17821 0.0
H45 H 0.9035 0.39492 0.19557 0.0
H46 H 0.97984 0.51918 0.18002 0.0
H47 H 0.01925 0.46161 0.22289 0.0
H48 H 0.02567 0.41385 0.2417 0.0
H49 H 0.89849 0.36632 0.2564 0.0
H50 H 0.89286 0.41563 0.23774 0.0
H51 H 0.89157 0.53985 0.23496 0.0
H52 H 0.89122 0.59709 0.25217 0.0
H53 H 0.02442 0.67917 0.24617 0.0
H54 H 0.02423 0.62218 0.2288 0.0
H55 H 0.9429 0.50296 0.2411 0.0
H56 H 0.92251 0.58483 0.19693 0.0
H57 H 0.9434 0.65063 0.18285 0.0
H58 H 0.06553 0.66655 0.17554 0.0
H59 H 0.04414 0.60056 0.18928 0.0
C60 C 0.96648 0.44531 0.19093 0.0
C61 C 0.00304 0.45541 0.18255 0.0
C62 C 0.00529 0.42398 0.17274 0.0
C63 C 0.97078 0.38201 0.17094 0.0
C64 C 0.93414 0.37198 0.17929 0.0
C65 C 0.9321 0.40333 0.18928 0.0
C66 C 0.96398 0.47877 0.20122 0.0
C67 C 0.97175 0.51558 0.19337 0.0
C68 C 0.95417 0.47451 0.21871 0.0
C69 C 0.95538 0.44175 0.22874 0.0
C70 C 0.99239 0.44028 0.22988 0.0
C71 C 0.99596 0.41279 0.24065 0.0
C72 C 0.9625 0.38595 0.25054 0.0
C73 C 0.92502 0.38685 0.24912 0.0
C74 C 0.92161 0.41475 0.23838 0.0
C75 C 0.95777 0.57708 0.23043 0.0
C76 C 0.92062 0.57024 0.23739 0.0
C77 C 0.92053 0.60289 0.24727 0.0
C78 C 0.95773 0.64281 0.25044 0.0
C79 C 0.99504 0.64915 0.24367 0.0
C80 C 0.99505 0.61659 0.23379 0.0
C81 C 0.95783 0.5428 0.21978 0.0
C82 C 0.94967 0.50583 0.22759 0.0
C83 C 0.96966 0.54806 0.20255 0.0
C84 C 0.98173 0.58777 0.19407 0.0
C85 C 0.95379 0.60264 0.19232 0.0
C86 C 0.96589 0.64037 0.18438 0.0
C87 C 0.00611 0.6638 0.17803 0.0
C88 C 0.03409 0.64894 0.18001 0.0
C89 C 0.02194 0.61123 0.18787 0.0
H90 H 0.62216 0.0767 0.51023 0.0
H91 H 0.6734 0.06994 0.49361 0.0
H92 H 0.64149 0.95417 0.51776 0.0
H93 H 0.58972 0.96072 0.53413 0.0
H94 H 0.5373 0.02328 0.51001 0.0
H95 H 0.6557 0.08312 0.55169 0.0
H96 H 0.71338 0.0862 0.56921 0.0
H97 H 0.62414 0.97147 0.59237 0.0
H98 H 0.56657 0.96917 0.57503 0.0
H99 H 0.45404 0.97117 0.57255 0.0
H100 H 0.39642 0.97237 0.58626 0.0
H101 H 0.43096 0.09103 0.56404 0.0
H102 H 0.48855 0.08952 0.55031 0.0
H103 H 0.54093 0.02693 0.57405 0.0
H104 H 0.42244 0.96767 0.53173 0.0
H105 H 0.36512 0.97189 0.51729 0.0
H106 H 0.45636 0.08783 0.49547 0.0
H107 H 0.51347 0.08407 0.51039 0.0
C108 C 0.60242 0.0194 0.52349 0.0
C109 C 0.62623 0.04988 0.51193 0.0
C110 C 0.65565 0.04613 0.50255 0.0
C111 C 0.66151 0.01158 0.50443 0.0
C112 C 0.63743 0.98095 0.51595 0.0
C113 C 0.60814 0.98484 0.52541 0.0
C114 C 0.57091 0.02327 0.53326 0.0
C115 C 0.53843 0.02456 0.52401 0.0
C116 C 0.57191 0.02423 0.55151 0.0
C117 C 0.60691 0.02574 0.56198 0.0
C118 C 0.64864 0.05851 0.56047 0.0
C119 C 0.68159 0.06014 0.57047 0.0
C120 C 0.67343 0.02903 0.58219 0.0
C121 C 0.63151 0.99628 0.58367 0.0
C122 C 0.59857 0.99478 0.57371 0.0
C123 C 0.47534 0.03007 0.56035 0.0
C124 C 0.44953 0.9977 0.57084 0.0
C125 C 0.41661 -0.00155 0.57864 0.0
C126 C 0.40905 0.03174 0.57616 0.0
C127 C 0.4356 0.06466 0.56596 0.0
C128 C 0.46863 0.06396 0.55821 0.0
C129 C 0.50756 0.027 0.55079 0.0
C130 C 0.53993 0.02562 0.56005 0.0
C131 C 0.50656 0.02598 0.53256 0.0
C132 C 0.47212 0.02582 0.52225 0.0
C133 C 0.43002 0.99387 0.52377 0.0
C134 C 0.39734 0.99622 0.51546 0.0
C135 C 0.40624 0.03043 0.50539 0.0
C136 C 0.44851 0.06153 0.5034 0.0
C137 C 0.48117 0.05917 0.51173 0.0
H138 H 0.49575 0.43397 0.85212 0.0
H139 H 0.43406 0.37283 0.83674 0.0
H140 H 0.35712 0.42398 0.85188 0.0
H141 H 0.41896 0.48505 0.86737 0.0
H142 H 0.53058 0.51773 0.84549 0.0
H143 H 0.47607 0.43144 0.89155 0.0
H144 H 0.42872 0.38641 0.91256 0.0
H145 H 0.41373 0.48991 0.93134 0.0
H146 H 0.45996 0.53443 0.90973 0.0
H147 H 0.57735 0.64817 0.89928 0.0
H148 H 0.6391 0.70781 0.91544 0.0
H149 H 0.71175 0.64938 0.90393 0.0
H150 H 0.65005 0.59002 0.88767 0.0
H151 H 0.5406 0.56144 0.90759 0.0
H152 H 0.60205 0.64784 0.85962 0.0
H153 H 0.656 0.68854 0.83971 0.0
H154 H 0.6642 0.57781 0.8263 0.0
H155 H 0.61108 0.53765 0.84658 0.0
C156 C 0.46182 0.4639 0.86088 0.0
C157 C 0.46552 0.43181 0.85223 0.0
C158 C 0.43029 0.39687 0.84355 0.0
C159 C 0.39093 0.3938 0.84315 0.0
C160 C 0.38719 0.42576 0.85195 0.0
C161 C 0.42235 0.46044 0.86085 0.0
C162 C 0.49964 0.50196 0.86928 0.0
C163 C 0.53296 0.52707 0.85911 0.0
C164 C 0.50245 0.51427 0.88699 0.0
C165 C 0.47114 0.48616 0.8989 0.0
C166 C 0.46183 0.44418 0.8999 0.0
C167 C 0.43524 0.41865 0.9121 0.0
C168 C 0.41775 0.43471 0.92372 0.0
C169 C 0.42642 0.4765 0.92248 0.0
C170 C 0.453 0.50204 0.91021 0.0
C171 C 0.60931 0.61492 0.89226 0.0
C172 C 0.60675 0.64854 0.90008 0.0
C173 C 0.64198 0.68257 0.90922 0.0
C174 C 0.68003 0.68302 0.91093 0.0
C175 C 0.68267 0.6496 0.90286 0.0
C176 C 0.64761 0.6159 0.89352 0.0
C177 C 0.57123 0.57741 0.88375 0.0
C178 C 0.5379 0.55232 0.89392 0.0
C179 C 0.56888 0.56452 0.86615 0.0
C180 C 0.60281 0.58983 0.85468 0.0
C181 C 0.61592 0.63254 0.85258 0.0
C182 C 0.64639 0.6556 0.84106 0.0
C183 C 0.66421 0.6363 0.8314 0.0
C184 C 0.65136 0.59367 0.83369 0.0
C185 C 0.62084 0.57062 0.84518 0.0
H186 H 0.06982 0.13781 0.09201 0.0
H187 H 0.05444 0.18236 0.11066 0.0
H188 H 0.94517 0.14955 0.07708 0.0
H189 H 0.96111 0.10564 0.05799 0.0
H190 H 0.98745 0.23159 0.08545 0.0
H191 H 0.93636 0.10827 0.11725 0.0
H192 H 0.93833 0.05037 0.13132 0.0
H193 H 0.04183 0.14183 0.16583 0.0
H194 H 0.04088 0.20034 0.1518 0.0
H195 H 0.91236 0.32483 0.14627 0.0
H196 H 0.91701 0.2716 0.12795 0.0
H197 H 0.03853 0.31149 0.15308 0.0
H198 H 0.03408 0.36476 0.17141 0.0
H199 H 0.98359 0.22203 0.14895 0.0
H200 H 0.03595 0.34496 0.11533 0.0
H201 H 0.03196 0.40178 0.10123 0.0
H202 H 0.92203 0.30816 0.07017 0.0
H203 H 0.92501 0.25075 0.08428 0.0
C204 C 0.04231 0.13976 0.08861 0.0
C205 C 0.01662 0.11805 0.07351 0.0
C206 C 0.03343 0.16513 0.09937 0.0
C207 C -0.00174 0.16884 0.09544 0.0
C208 C 0.97241 0.14708 0.0804 0.0
C209 C 0.9815 0.12191 0.06953 0.0
C210 C 0.98961 0.19676 0.10673 0.0
C211 C 0.9858 0.22891 0.09929 0.0
C212 C 0.98813 0.19382 0.12485 0.0
C213 C 0.98875 0.15872 0.13337 0.0
C214 C 0.95975 0.11606 0.12775 0.0
C215 C 0.96065 0.08312 0.13574 0.0
C216 C 0.99025 0.09241 0.14944 0.0
C217 C 0.01894 0.13468 0.1552 0.0
C218 C 0.0182 0.16775 0.14725 0.0
C219 C 0.93989 0.32197 0.14796 0.0
C220 C 0.97293 0.34896 0.16021 0.0
C221 C 0.94259 0.29176 0.13745 0.0
C222 C 0.97821 0.28782 0.13912 0.0
C223 C 0.01081 0.31409 0.1516 0.0
C224 C 0.00836 0.34463 0.16197 0.0
C225 C 0.98193 0.25685 0.12766 0.0
C226 C 0.98482 0.22425 0.13508 0.0
C227 C 0.98217 0.2591 0.10953 0.0
C228 C 0.98042 0.29358 0.10101 0.0
C229 C 0.01069 0.3365 0.10561 0.0
C230 C 0.00867 0.36881 0.09759 0.0
C231 C 0.97669 0.35859 0.08485 0.0
C232 C 0.94674 0.31603 0.08006 0.0
C233 C 0.94859 0.28359 0.08806 0.0
H234 H 0.97518 0.38365 0.07865 0.0
H235 H 0.99089 0.06687 0.1556 0.0
H236 H 0.89416 0.94745 0.40043 0.0
H237 H 0.84012 0.93883 0.41984 0.0
H238 H 0.91566 0.07168 0.4372 0.0
H239 H 0.96973 0.08054 0.41804 0.0
H240 H 0.88345 0.02195 0.464 0.0
H241 H 0.83325 0.03725 0.40807 0.0
H242 H 0.81137 0.0186 0.37705 0.0
H243 H 0.71366 0.89366 0.3883 0.0
H244 H 0.73535 0.91141 0.41939 0.0
H245 H 0.74164 0.07382 0.49886 0.0
H246 H 0.79193 0.06774 0.48137 0.0
H247 H 0.70199 0.93414 0.46976 0.0
H248 H 0.65111 0.9402 0.48703 0.0
H249 H 0.7384 0.97488 0.44092 0.0
H250 H 0.78423 0.96288 0.49741 0.0
H251 H 0.80551 0.98298 0.5284 0.0
H252 H 0.9112 0.10231 0.51625 0.0
H253 H 0.8902 0.08321 0.48517 0.0
C254 C 0.89929 0.97478 0.40842 0.0
C255 C 0.93618 0.01471 0.40764 0.0
C256 C 0.86835 0.96982 0.41946 0.0
C257 C 0.87382 0.00469 0.42988 0.0
C258 C 0.91087 0.04435 0.4293 0.0
C259 C 0.94166 0.04937 0.41826 0.0
C260 C 0.84086 0.00043 0.44124 0.0
C261 C 0.8518 0.0119 0.45896 0.0
C262 C 0.79927 0.9862 0.4347 0.0
C263 C 0.78626 0.97547 0.41602 0.0
C264 C 0.80735 0.00567 0.40391 0.0
C265 C 0.79493 0.99529 0.38632 0.0
C266 C 0.76124 0.95492 0.3807 0.0
C267 C 0.73981 0.92488 0.39267 0.0
C268 C 0.75214 0.93509 0.41027 0.0
C269 C 0.73254 0.04318 0.49255 0.0
C270 C 0.69246 0.00749 0.4943 0.0
C271 C 0.7614 0.03966 0.48268 0.0
C272 C 0.7508 0.00039 0.47442 0.0
C273 C 0.71081 0.96468 0.47611 0.0
C274 C 0.68194 0.96813 0.48606 0.0
C275 C 0.78126 0.9972 0.46362 0.0
C276 C 0.76986 0.98433 0.44602 0.0
C277 C 0.82246 0.01021 0.47026 0.0
C278 C 0.83544 0.02172 0.48895 0.0
C279 C 0.81184 0.99354 0.50134 0.0
C280 C 0.82388 0.00474 0.51893 0.0
C281 C 0.85964 0.04393 0.5243 0.0
C282 C 0.8835 0.07197 0.51208 0.0
C283 C 0.87157 0.06095 0.49447 0.0
H284 H 0.8689 0.05254 0.53792 0.0
H285 H 0.75165 0.94695 0.36707 0.0
H286 H 0.98317 0.83206 0.74193 0.0
H287 H 0.92261 0.78275 0.7573 0.0
H288 H 0.85246 0.83781 0.73755 0.0
H289 H 0.91308 0.88766 0.72223 0.0
H290 H 0.85132 0.83463 0.77214 0.0
H291 H 0.82578 0.73781 0.72368 0.0
H292 H 0.84355 0.6991 0.70226 0.0
H293 H 0.8718 0.64 0.74287 0.0
H294 H 0.85476 0.67882 0.76457 0.0
H295 H 0.66154 0.68884 0.80821 0.0
H296 H 0.71336 0.72897 0.7875 0.0
H297 H 0.78897 0.67782 0.80503 0.0
H298 H 0.7372 0.63754 0.8258 0.0
H299 H 0.78426 0.67768 0.77014 0.0
H300 H 0.81516 0.77743 0.81849 0.0
H301 H 0.79904 0.81662 0.84038 0.0
H302 H 0.76282 0.8709 0.80031 0.0
H303 H 0.77817 0.83153 0.77817 0.0
C304 C 0.95467 0.83332 0.74062 0.0
C305 C 0.95307 0.86402 0.73094 0.0
C306 C 0.92 0.80494 0.74937 0.0
C307 C 0.883 0.80653 0.74851 0.0
C308 C 0.88076 0.8361 0.73837 0.0
C309 C 0.91541 0.86448 0.72959 0.0
C310 C 0.84808 0.77977 0.75934 0.0
C311 C 0.83606 0.80023 0.77146 0.0
C312 C 0.82915 0.73504 0.75879 0.0
C313 C 0.83931 0.71152 0.74577 0.0
C314 C 0.8361 0.71682 0.72806 0.0
C315 C 0.84598 0.6948 0.71586 0.0
C316 C 0.85889 0.66718 0.7212 0.0
C317 C 0.86183 0.66144 0.73875 0.0
C318 C 0.85201 0.6834 0.75101 0.0
C319 C 0.68936 0.68639 0.80774 0.0
C320 C 0.69549 0.66032 0.81873 0.0
C321 C 0.71884 0.70919 0.79586 0.0
C322 C 0.7552 0.70669 0.79486 0.0
C323 C 0.76105 0.6801 0.80558 0.0
C324 C 0.73148 0.65714 0.81743 0.0
C325 C 0.78761 0.73261 0.78291 0.0
C326 C 0.79926 0.71204 0.77066 0.0
C327 C 0.80645 0.77732 0.78338 0.0
C328 C 0.79739 0.80118 0.79667 0.0
C329 C 0.80344 0.79746 0.81435 0.0
C330 C 0.7945 0.81975 0.8268 0.0
C331 C 0.7798 0.84614 0.82174 0.0
C332 C 0.77414 0.85039 0.80421 0.0
C333 C 0.78298 0.82812 0.7917 0.0
H334 H 0.7729 0.86337 0.8314 0.0
H335 H 0.86653 0.65017 0.71173 0.0
H336 H 0.07311 0.99688 0.09919 0.0
H337 H 0.05889 0.94528 0.12084 0.0
H338 H 0.12197 0.89473 0.09164 0.0
H339 H 0.13641 0.94593 0.07004 0.0
H340 H 0.04012 0.83408 0.09829 0.0
H341 H 0.16586 0.94867 0.12918 0.0
H342 H 0.21056 0.02083 0.14326 0.0
H343 H 0.11553 0.99634 0.17859 0.0
H344 H 0.06999 0.92418 0.16455 0.0
H345 H 0.04977 0.68789 0.14903 0.0
H346 H 0.0691 0.75073 0.13337 0.0
H347 H 0.00854 0.79011 0.16975 0.0
H348 H 0.9904 0.72775 0.18602 0.0
H349 H 0.0832 0.85775 0.16091 0.0
H350 H 0.95853 0.74384 0.13156 0.0
H351 H 0.9116 0.67177 0.11775 0.0
H352 H 0.00058 0.69541 0.07959 0.0
H353 H 0.04837 0.76744 0.09333 0.0
C354 C 0.08471 0.97535 0.09755 0.0
C355 C 0.10552 0.97526 0.08278 0.0
C356 C 0.07659 0.94595 0.10995 0.0
C357 C 0.08919 0.9161 0.10775 0.0
C358 C 0.11182 0.91741 0.0935 0.0
C359 C 0.1201 0.94679 0.08119 0.0
C360 C 0.07563 0.88092 0.1193 0.0
C361 C 0.04993 0.83924 0.11194 0.0
C362 C 0.08696 0.88785 0.13724 0.0
C363 C 0.11431 0.9312 0.14568 0.0
C364 C 0.15431 0.95881 0.13984 0.0
C365 C 0.17984 -0.00032 0.14784 0.0
C366 C 0.16583 0.01321 0.16177 0.0
C367 C 0.12631 0.98584 0.16777 0.0
C368 C 0.10064 0.94495 0.1598 0.0
C369 C 0.0411 0.71018 0.15391 0.0
C370 C 0.01845 0.70272 0.16878 0.0
C371 C 0.05185 0.74593 0.14484 0.0
C372 C 0.03973 0.77476 0.15026 0.0
C373 C 0.01802 0.76811 0.16532 0.0
C374 C 0.00732 0.73228 0.17448 0.0
C375 C 0.0488 0.81091 0.13974 0.0
C376 C 0.07324 0.85264 0.14728 0.0
C377 C 0.03593 0.80418 0.12195 0.0
C378 C 0.00718 0.76094 0.11356 0.0
C379 C 0.96823 0.73357 0.12029 0.0
C380 C 0.94146 0.69274 0.11247 0.0
C381 C 0.95314 0.67899 0.09782 0.0
C382 C 0.99159 0.70609 0.09095 0.0
C383 C 0.01852 0.74695 0.09874 0.0
H384 H 0.93237 0.64736 0.09178 0.0
H385 H 0.18565 0.04486 0.16795 0.0
H386 H 0.22027 0.13163 0.40011 0.0
H387 H 0.25865 0.11761 0.42242 0.0
H388 H 0.14505 0.04791 0.44904 0.0
H389 H 0.10621 0.06211 0.42679 0.0
H390 H 0.21716 0.09419 0.47176 0.0
H391 H 0.16739 0.99194 0.42384 0.0
H392 H 0.15449 0.96667 0.39306 0.0
H393 H 0.28776 0.0307 0.38761 0.0
H394 H 0.30145 0.05687 0.41832 0.0
H395 H 0.33297 0.96724 0.4885 0.0
H396 H 0.27726 0.97411 0.47403 0.0
H397 H 0.34629 0.10871 0.48879 0.0
H398 H 0.40132 0.10182 0.50372 0.0
H399 H 0.28318 0.01725 0.44721 0.0
H400 H 0.2787 0.14431 0.49379 0.0
H401 H 0.28538 0.16216 0.52515 0.0
H402 H 0.24868 0.0339 0.53496 0.0
H403 H 0.24083 0.01497 0.50368 0.0
C404 C 0.20352 0.11402 0.41087 0.0
C405 C 0.16002 0.09741 0.41152 0.0
C406 C 0.22552 0.10602 0.4236 0.0
C407 C 0.20445 0.08104 0.43717 0.0
C408 C 0.16178 0.0671 0.43862 0.0
C409 C 0.13966 0.07519 0.42587 0.0
C410 C 0.22624 0.06622 0.44867 0.0
C411 C 0.23159 0.07731 0.46647 0.0
C412 C 0.24344 0.0426 0.4418 0.0
C413 C 0.23544 0.02662 0.42335 0.0
C414 C 0.19395 0.00087 0.41605 0.0
C415 C 0.18649 0.98635 0.39862 0.0
C416 C 0.22028 0.99714 0.38838 0.0
C417 C 0.26161 0.02239 0.39556 0.0
C418 C 0.26924 0.03703 0.41298 0.0
C419 C 0.33589 0.99814 0.48891 0.0
C420 C 0.37164 0.03405 0.49715 0.0
C421 C 0.30416 0.00205 0.48057 0.0
C422 C 0.30747 0.04185 0.48044 0.0
C423 C 0.34275 0.07758 0.48894 0.0
C424 C 0.37446 0.0737 0.49726 0.0
C425 C 0.27592 0.04688 0.47028 0.0
C426 C 0.26855 0.03379 0.45264 0.0
C427 C 0.25588 0.06743 0.47746 0.0
C428 C 0.25953 0.07834 0.49633 0.0
C429 C 0.27174 0.11981 0.50262 0.0
C430 C 0.27574 0.13012 0.52039 0.0
C431 C 0.26752 0.09919 0.53204 0.0
C432 C 0.25508 0.05783 0.52593 0.0
C433 C 0.25089 0.04732 0.50817 0.0
H434 H 0.27075 0.10727 0.5458 0.0
H435 H 0.21445 0.98588 0.37489 0.0
H436 H 0.07811 0.08894 0.7441 0.0
H437 H 0.11992 0.15372 0.76337 0.0
H438 H 0.22338 0.1317 0.76529 0.0
H439 H 0.18175 0.06666 0.74649 0.0
H440 H 0.16578 0.15876 0.79905 0.0
H441 H 0.3074 0.23441 0.75736 0.0
H442 H 0.32228 0.2353 0.72663 0.0
H443 H 0.20006 0.21441 0.71184 0.0
H444 H 0.18472 0.21405 0.74247 0.0
H445 H 0.36245 0.3091 0.84361 0.0
H446 H 0.30505 0.25075 0.82515 0.0
H447 H 0.28052 0.34007 0.80094 0.0
H448 H 0.33777 0.39856 0.81945 0.0
H449 H 0.29012 0.28418 0.77759 0.0
H450 H 0.21233 0.27867 0.82645 0.0
H451 H 0.1994 0.27591 0.85741 0.0
H452 H 0.19406 0.15649 0.85821 0.0
H453 H 0.2076 0.15883 0.82731 0.0
C454 C 0.10975 0.09794 0.74866 0.0
C455 C 0.12668 0.07277 0.74383 0.0
C456 C 0.13341 0.13472 0.7597 0.0
C457 C 0.17456 0.14723 0.76566 0.0
C458 C 0.1916 0.12237 0.76078 0.0
C459 C 0.16777 0.08528 0.75006 0.0
C460 C 0.20047 0.18658 0.77686 0.0
C461 C 0.19272 0.18644 0.79439 0.0
C462 C 0.23543 0.22245 0.77064 0.0
C463 C 0.2448 0.22383 0.7522 0.0
C464 C 0.28381 0.23024 0.74755 0.0
C465 C 0.2923 0.23061 0.73015 0.0
C466 C 0.26208 0.22477 0.71729 0.0
C467 C 0.22338 0.21876 0.72181 0.0
C468 C 0.21474 0.2184 0.73918 0.0
C469 C 0.34456 0.31616 0.83444 0.0
C470 C 0.35442 0.35822 0.83293 0.0
C471 C 0.31174 0.28289 0.82398 0.0
C472 C 0.28855 0.29121 0.81177 0.0
C473 C 0.29804 0.33311 0.81035 0.0
C474 C 0.3305 0.36635 0.82097 0.0
C475 C 0.25586 0.2563 0.79991 0.0
C476 C 0.26266 0.25701 0.78225 0.0
C477 C 0.22011 0.22094 0.80605 0.0
C478 C 0.21125 0.21908 0.82457 0.0
C479 C 0.20866 0.25194 0.83325 0.0
C480 C 0.20119 0.25044 0.85079 0.0
C481 C 0.19599 0.21609 0.85978 0.0
C482 C 0.1981 0.18309 0.85123 0.0
C483 C 0.20562 0.18446 0.8337 0.0
H484 H 0.19027 0.21502 0.87336 0.0
H485 H 0.26869 0.22498 0.70383 0.0
H486 H 0.92902 0.00404 0.69162 0.0
H487 H 0.87422 0.00978 0.67583 0.0
H488 H 0.95368 0.05909 0.63331 0.0
H489 H 0.00913 0.05449 0.64923 0.0
H490 H 0.91272 0.09995 0.63831 0.0
H491 H 0.8751 0.9538 0.63264 0.0
H492 H 0.86027 0.88518 0.64297 0.0
H493 H 0.75836 0.87606 0.67077 0.0
H494 H 0.77295 0.94495 0.66078 0.0
H495 H 0.75185 0.0503 0.5725 0.0
H496 H 0.80937 0.05344 0.59021 0.0
H497 H 0.73177 0.0142 0.63361 0.0
H498 H 0.67436 0.01185 0.61614 0.0
H499 H 0.77149 0.9692 0.6285 0.0
H500 H 0.8086 0.11536 0.63288 0.0
H501 H 0.82353 0.18319 0.62165 0.0
H502 H 0.92654 0.19117 0.59509 0.0
H503 H 0.91184 0.12302 0.60597 0.0
C504 C 0.93501 0.01647 0.67897 0.0
C505 C 0.97329 0.02844 0.67161 0.0
C506 C 0.90357 0.01957 0.66993 0.0
C507 C 0.90951 0.03405 0.65323 0.0
C508 C 0.94834 0.04765 0.64614 0.0
C509 C 0.97998 0.04493 0.65525 0.0
C510 C 0.87473 0.03356 0.64294 0.0
C511 C 0.88198 0.07125 0.636 0.0
C512 C 0.83439 0.99627 0.64016 0.0
C513 C 0.8254 0.95473 0.64611 0.0
C514 C 0.84972 0.93731 0.64106 0.0
C515 C 0.84133 0.89834 0.64684 0.0
C516 C 0.80847 0.87633 0.65756 0.0
C517 C 0.78385 0.89318 0.66248 0.0
C518 C 0.79214 0.93216 0.65676 0.0
C519 C 0.74716 0.04287 0.58588 0.0
C520 C 0.70847 0.03088 0.5929 0.0
C521 C 0.78004 0.04458 0.59596 0.0
C522 C 0.7749 0.03437 0.61325 0.0
C523 C 0.73631 0.02213 0.62028 0.0
C524 C 0.70348 0.0206 0.61024 0.0
C525 C 0.80948 0.03555 0.62391 0.0
C526 C 0.80219 0.99793 0.63087 0.0
C527 C 0.84981 0.07278 0.62659 0.0
C528 C 0.85886 0.11388 0.62011 0.0
C529 C 0.83422 0.1314 0.62453 0.0
C530 C 0.84268 0.16994 0.61825 0.0
C531 C 0.8759 0.19142 0.60763 0.0
C532 C 0.90079 0.17446 0.6033 0.0
C533 C 0.89244 0.1359 0.60954 0.0
H534 H 0.8824 0.22126 0.60278 0.0
H535 H 0.80203 0.84617 0.66202 0.0
H536 H 0.95248 0.96011 0.02763 0.0
H537 H 0.89056 0.90862 0.00901 0.0
H538 H 0.96989 0.92802 0.96688 0.0
H539 H 0.03184 0.97759 0.98568 0.0
H540 H 0.85003 0.90549 0.98081 0.0
H541 H 0.9381 0.83842 0.94304 0.0
H542 H -0.00047 0.82999 0.94756 0.0
H543 H 0.98751 0.83094 0.00232 0.0
H544 H 0.92571 0.83881 0.9981 0.0
H545 H 0.71515 0.76891 0.90997 0.0
H546 H 0.77445 0.82503 0.92844 0.0
H547 H 0.78412 0.72964 0.95538 0.0
H548 H 0.72601 0.67377 0.93652 0.0
H549 H 0.85787 0.78863 0.95033 0.0
H550 H 0.73887 0.78604 0.97273 0.0
H551 H 0.67335 0.78791 0.97188 0.0
H552 H 0.73947 0.91411 0.95442 0.0
H553 H 0.80531 0.91277 0.95495 0.0
C554 C 0.95653 0.95363 0.01434 0.0
C555 C 0.99693 0.97226 0.00815 0.0
C556 C 0.92117 0.92427 0.0037 0.0
C557 C 0.92566 0.91361 0.98665 0.0
C558 C 0.96574 0.93468 0.98013 0.0
C559 C 0.0011 0.96318 0.99085 0.0
C560 C 0.889 0.87897 0.97596 0.0
C561 C 0.85174 0.87996 0.97413 0.0
C562 C 0.89073 0.84494 0.9676 0.0
C563 C 0.92755 0.83963 0.97025 0.0
C564 C 0.94848 0.83665 0.95604 0.0
C565 C 0.98337 0.83201 0.95855 0.0
C566 C 0.99749 0.83007 0.97522 0.0
C567 C 0.97664 0.8326 0.98941 0.0
C568 C 0.9417 0.83718 0.98697 0.0
C569 C 0.73006 0.7601 0.91985 0.0
C570 C 0.71619 0.71714 0.92184 0.0
C571 C 0.76375 0.7921 0.93045 0.0
C572 C 0.78344 0.7816 0.94349 0.0
C573 C 0.76958 0.7386 0.9454 0.0
C574 C 0.73643 0.7067 0.93462 0.0
C575 C 0.81892 0.81527 0.955 0.0
C576 C 0.85607 0.81415 0.95698 0.0
C577 C 0.81641 0.84814 0.96402 0.0
C578 C 0.77692 0.84914 0.96372 0.0
C579 C 0.73937 0.81407 0.96859 0.0
C580 C 0.70219 0.81505 0.96818 0.0
C581 C 0.70222 0.85106 0.96306 0.0
C582 C 0.73948 0.88622 0.95837 0.0
C583 C 0.77675 0.88538 0.95873 0.0
H584 H 0.6734 0.85176 0.96276 0.0
H585 H 0.02454 0.82652 0.97714 0.0
H586 H 0.9834 0.9398 0.35788 0.0
H587 H 0.95508 0.87114 0.34133 0.0
H588 H 0.04365 0.93302 0.30269 0.0
H589 H 0.07216 0.00134 0.31907 0.0
H590 H 0.96236 0.87307 0.28871 0.0
H591 H 0.06643 0.88616 0.33243 0.0
H592 H 0.0959 0.8959 0.36241 0.0
H593 H 0.98236 0.78447 0.37533 0.0
H594 H 0.95198 0.77444 0.34547 0.0
H595 H -0.00132 0.72704 0.24427 0.0
H596 H 0.00205 0.7853 0.26184 0.0
H597 H 0.91925 0.69654 0.29704 0.0
H598 H 0.91728 0.63802 0.27988 0.0
H599 H 0.98364 0.7635 0.31435 0.0
H600 H 0.88396 0.74385 0.26917 0.0
H601 H 0.85496 0.73414 0.23913 0.0
H602 H 0.95831 0.85689 0.22884 0.0
H603 H 0.98829 0.86713 0.25874 0.0
C604 C 0.9965 0.93877 0.34577 0.0
C605 C 0.0302 0.9759 0.33983 0.0
C606 C 0.98036 0.89959 0.33637 0.0
C607 C 0.99747 0.89711 0.32085 0.0
C608 C 0.03 0.93433 0.31462 0.0
C609 C 0.0464 0.9733 0.32406 0.0
C610 C 0.9834 0.85572 0.31142 0.0
C611 C 0.96697 0.84903 0.29426 0.0
C612 C 0.98838 0.82401 0.31889 0.0
C613 C 0.00674 0.82987 0.33679 0.0
C614 C 0.04761 0.86395 0.34171 0.0
C615 C 0.06451 0.86949 0.35867 0.0
C616 C 0.04096 0.8409 0.37078 0.0
C617 C 0.00052 0.80664 0.36594 0.0
C618 C 0.98345 0.80101 0.34901 0.0
C619 C 0.98135 0.71985 0.2558 0.0
C620 C 0.95784 0.67787 0.26071 0.0
C621 C 0.98284 0.75316 0.26571 0.0
C622 C 0.96035 0.74522 0.28061 0.0
C623 C 0.93661 0.70334 0.28552 0.0
C624 C 0.93526 0.66992 0.27563 0.0
C625 C 0.96352 0.78114 0.2914 0.0
C626 C 0.97798 0.7869 0.30883 0.0
C627 C 0.95659 0.81196 0.28418 0.0
C628 C 0.93849 0.80614 0.2662 0.0
C629 C 0.90065 0.76868 0.26048 0.0
C630 C 0.88402 0.76309 0.24347 0.0
C631 C 0.9048 0.79485 0.23208 0.0
C632 C 0.94223 0.83232 0.23768 0.0
C633 C 0.95902 0.83806 0.25467 0.0
H634 H 0.89189 0.79045 0.21892 0.0
H635 H 0.05409 0.84524 0.3839 0.0
H636 H 0.13812 0.92882 0.67332 0.0
H637 H 0.18428 0.9486 0.6496 0.0
H638 H 0.13291 0.02165 0.62991 0.0
H639 H 0.08645 0.00236 0.65388 0.0
H640 H 0.15857 0.96213 0.60474 0.0
H641 H 0.20736 0.08555 0.64485 0.0
H642 H 0.21925 0.12027 0.67408 0.0
H643 H 0.29807 0.07174 0.68944 0.0
H644 H 0.28607 0.03617 0.66035 0.0
H645 H 0.35302 0.05135 0.56168 0.0
H646 H 0.29276 0.04866 0.57492 0.0
H647 H 0.32402 0.00837 0.62167 0.0
H648 H 0.38474 0.0124 0.60881 0.0
H649 H 0.30363 0.06725 0.6288 0.0
H650 H 0.24688 0.937 0.5903 0.0
H651 H 0.23421 0.89985 0.56152 0.0
H652 H 0.17057 0.96188 0.5428 0.0
H653 H 0.18331 -0.00026 0.57144 0.0
C654 C 0.13581 0.94832 0.66378 0.0
C655 C 0.10908 0.96459 0.66567 0.0
C656 C 0.16211 0.95943 0.65019 0.0
C657 C 0.16207 0.98675 0.63816 0.0
C658 C 0.13317 0.00042 0.63911 0.0
C659 C 0.10679 0.98944 0.65282 0.0
C660 C 0.19655 0.00515 0.62642 0.0
C661 C 0.1902 0.98609 0.60971 0.0
C662 C 0.23766 0.03612 0.63305 0.0
C663 C 0.24556 0.05797 0.65047 0.0
C664 C 0.22695 0.08202 0.65451 0.0
C665 C 0.23376 0.10189 0.67104 0.0
C666 C 0.25934 0.09815 0.68362 0.0
C667 C 0.27825 0.0746 0.67968 0.0
C668 C 0.2715 0.05463 0.66317 0.0
C669 C 0.34732 0.04253 0.57487 0.0
C670 C 0.37346 0.03183 0.58419 0.0
C671 C 0.31273 0.0407 0.58235 0.0
C672 C 0.30373 0.02799 0.59923 0.0
C673 C 0.33038 0.01828 0.60863 0.0
C674 C 0.36484 0.02017 0.60121 0.0
C675 C 0.26607 0.02326 0.60724 0.0
C676 C 0.27193 0.04469 0.62341 0.0
C677 C 0.22462 0.99477 0.6 0.0
C678 C 0.21637 0.97144 0.58293 0.0
C679 C 0.23034 0.94282 0.58002 0.0
C680 C 0.22315 0.92165 0.56374 0.0
C681 C 0.20169 0.92858 0.55033 0.0
C682 C 0.18721 0.95656 0.5532 0.0
C683 C 0.1944 0.97787 0.56944 0.0
H684 H 0.19621 0.91222 0.53773 0.0
H685 H 0.26456 0.11356 0.69642 0.0
H686 H 0.24281 0.14622 0.02411 0.0
H687 H 0.28674 0.21111 0.00966 0.0
H688 H 0.19242 0.24567 0.01397 0.0
H689 H 0.14833 0.18088 0.02868 0.0
H690 H 0.21618 0.24261 0.97999 0.0
H691 H 0.28164 0.30603 0.03594 0.0
H692 H 0.31561 0.31103 0.06453 0.0
H693 H 0.41695 0.30909 0.04045 0.0
H694 H 0.38329 0.30344 0.01169 0.0
H695 H 0.34489 0.42658 0.93496 0.0
H696 H 0.30203 0.38194 0.95733 0.0
H697 H 0.38878 0.33813 0.96546 0.0
H698 H 0.43241 0.38366 0.94364 0.0
H699 H 0.36536 0.35363 0.99558 0.0
H700 H 0.29678 0.27827 0.94084 0.0
H701 H 0.26336 0.26853 0.91163 0.0
H702 H 0.1688 0.28803 0.93276 0.0
H703 H 0.20201 0.29842 0.9621 0.0
C704 C 0.23178 0.16805 0.02231 0.0
C705 C 0.19206 0.1584 0.02745 0.0
C706 C 0.25697 0.20517 0.01411 0.0
C707 C 0.24278 0.23311 0.01078 0.0
C708 C 0.20389 0.22447 0.01648 0.0
C709 C 0.17888 0.18759 0.02494 0.0
C710 C 0.26686 0.26883 -0.00016 0.0
C711 C 0.24847 0.26759 0.98355 0.0
C712 C 0.3093 0.30051 0.00435 0.0
C713 C 0.32976 0.30403 0.02164 0.0
C714 C 0.311 0.30632 0.03673 0.0
C715 C 0.33024 0.30935 0.05297 0.0
C716 C 0.36838 0.31031 0.05431 0.0
C717 C 0.3874 0.30834 0.03939 0.0
C718 C 0.36828 0.30529 0.02311 0.0
C719 C 0.35505 0.40779 0.94167 0.0
C720 C 0.39182 0.40832 0.93742 0.0
C721 C 0.33041 0.38212 0.95435 0.0
C722 C 0.34201 0.35641 0.96293 0.0
C723 C 0.3792 0.35768 0.95899 0.0
C724 C 0.40384 0.38333 0.94636 0.0
C725 C 0.3149 0.32696 0.97561 0.0
C726 C 0.33277 0.32926 0.99217 0.0
C727 C 0.27213 0.29578 0.97126 0.0
C728 C 0.25219 0.28968 0.95363 0.0
C729 C 0.26908 0.28086 0.93924 0.0
C730 C 0.25014 0.27515 0.92266 0.0
C731 C 0.21407 0.27781 0.92033 0.0
C732 C 0.1968 0.28608 0.93458 0.0
C733 C 0.21566 0.29187 0.95119 0.0
H734 H 0.19943 0.27334 0.90749 0.0
H735 H 0.38322 0.31265 0.0669 0.0
H736 H 0.11243 0.20048 0.33076 0.0
H737 H 0.09043 0.24378 0.31622 0.0
H738 H 0.99794 0.2168 0.35351 0.0
H739 H 0.01876 0.17157 0.36781 0.0
H740 H 0.96308 0.20749 0.32317 0.0
H741 H 0.08898 0.31849 0.35203 0.0
H742 H 0.16386 0.35868 0.36253 0.0
H743 H 0.20032 0.37613 0.31031 0.0
H744 H 0.12567 0.33553 0.29947 0.0
H745 H 0.93397 0.36844 0.28308 0.0
H746 H 0.94948 0.33009 0.30432 0.0
H747 H 0.02079 0.30644 0.26769 0.0
H748 H 0.0039 0.34276 0.24611 0.0
H749 H 0.06372 0.34786 0.30202 0.0
H750 H 0.93409 0.22793 0.27441 0.0
H751 H 0.85837 0.19011 0.2653 0.0
H752 H 0.82877 0.19464 0.31797 0.0
H753 H 0.90444 0.23306 0.32736 0.0
C754 C 0.08784 0.20419 0.33608 0.0
C755 C 0.06737 0.18258 0.35047 0.0
C756 C 0.0754 0.22925 0.32778 0.0
C757 C 0.04293 0.2342 0.3339 0.0
C758 C 0.02313 0.21355 0.34856 0.0
C759 C 0.03517 0.18786 0.35676 0.0
C760 C 0.02807 0.25852 0.32417 0.0
C761 C 0.98505 0.23863 0.3189 0.0
C762 C 0.0566 0.29913 0.31849 0.0
C763 C 0.10165 0.32372 0.32493 0.0
C764 C 0.11295 0.33065 0.34278 0.0
C765 C 0.15537 0.35355 0.34879 0.0
C766 C 0.18683 0.3699 0.3371 0.0
C767 C 0.17592 0.36345 0.31936 0.0
C768 C 0.13355 0.34056 0.31327 0.0
C769 C 0.95206 0.35419 0.27937 0.0
C770 C 0.96801 0.35907 0.2629 0.0
C771 C 0.96115 0.33261 0.29158 0.0
C772 C 0.98656 0.31592 0.28756 0.0
C773 C 0.00146 0.31957 0.27104 0.0
C774 C 0.99192 0.34052 0.25877 0.0
C775 C -0.00065 0.29612 0.3007 0.0
C776 C 0.0419 0.31706 0.30662 0.0
C777 C 0.97034 0.25699 0.30722 0.0
C778 C 0.92492 0.23385 0.30156 0.0
C779 C 0.91146 0.22126 0.28403 0.0
C780 C 0.86855 0.19962 0.27882 0.0
C781 C 0.83878 0.19011 0.29104 0.0
C782 C 0.85187 0.20211 0.30851 0.0
C783 C 0.89475 0.22379 0.31378 0.0
H784 H 0.80557 0.17334 0.28698 0.0
H785 H 0.21965 0.38761 0.34178 0.0
loop_
_geom_bond_atom_site_label_1
_geom_bond_atom_site_label_2
_geom_bond_distance
_geom_bond_site_symmetry_2
_ccdc_geom_bond_type
Zn0 O3 2.031 1_545 S
Zn0 O5 2.049 . S
Zn0 O10 2.067 1_545 S
Zn1 O2 1.962 . S
Zn1 O4 1.986 . S
Zn1 O6 1.996 . S
Zn1 O9 1.943 . S
O2 Zn1 1.962 . S
O2 C7 1.254 1_545 S
O3 Zn0 2.031 1_565 S
O3 C7 1.269 . S
O4 Zn1 1.986 . S
O4 C11 1.262 . S
O5 Zn0 2.049 . S
O5 C13 1.260 . S
O6 Zn1 1.996 . S
O6 C13 1.257 . S
C7 O2 1.254 1_565 S
C7 O3 1.269 . S
C8 O9 1.249 1_565 S
C8 O10 1.270 . S
O9 Zn1 1.943 . S
O9 C8 1.249 1_545 S
O10 Zn0 2.067 1_565 S
O10 C8 1.270 . S
C11 O4 1.262 . S
C11 O12 1.232 . S
O12 C11 1.232 . S
C13 O5 1.260 . S
C13 O6 1.257 . S
Zn14 O17 2.031 . S
Zn14 O19 2.049 . S
Zn14 O24 2.067 . S
Zn15 O16 1.962 . S
Zn15 O18 1.986 1_455 S
Zn15 O20 1.996 . S
Zn15 O23 1.943 1_455 S
O16 Zn15 1.962 . S
O16 C21 1.254 . S
O17 Zn14 2.031 . S
O17 C21 1.269 . S
O18 Zn15 1.986 1_655 S
O18 C25 1.262 . S
O19 Zn14 2.049 . S
O19 C27 1.260 . S
O20 Zn15 1.996 . S
O20 C27 1.257 . S
C21 O16 1.254 . S
C21 O17 1.269 . S
C22 O23 1.249 1_455 S
C22 O24 1.270 . S
O23 Zn15 1.943 1_655 S
O23 C22 1.249 1_655 S
O24 Zn14 2.067 . S
O24 C22 1.270 . S
C25 O18 1.262 . S
C25 O26 1.232 . S
O26 C25 1.232 . S
C27 O19 1.260 . S
C27 O20 1.257 . S
Zn28 O31 2.031 1_565 S
Zn28 O33 2.049 . S
Zn28 O38 2.067 1_565 S
Zn29 O30 1.962 1_545 S
Zn29 O32 1.986 1_445 S
Zn29 O34 1.996 1_445 S
Zn29 O37 1.943 . S
O30 Zn29 1.962 1_565 S
O30 C35 1.254 . S
O31 Zn28 2.031 1_545 S
O31 C35 1.269 1_545 S
O32 Zn29 1.986 1_665 S
O32 C39 1.262 1_565 S
O33 Zn28 2.049 . S
O33 C41 1.260 1_455 S
O34 Zn29 1.996 1_665 S
O34 C41 1.257 . S
C35 O30 1.254 . S
C35 O31 1.269 1_565 S
C36 O37 1.249 . S
C36 O38 1.270 . S
O37 Zn29 1.943 . S
O37 C36 1.249 . S
O38 Zn28 2.067 1_545 S
O38 C36 1.270 . S
C39 O32 1.262 1_545 S
C39 O40 1.232 . S
O40 C39 1.232 . S
C41 O33 1.260 1_655 S
C41 O34 1.257 . S
H42 C61 0.949 . S
H43 C62 0.950 . S
H44 C64 0.950 1_655 S
H45 C65 0.950 1_655 S
H46 C67 0.950 . S
H47 C70 0.950 . S
H48 C71 0.950 . S
H49 C73 0.951 . S
H50 C74 0.949 . S
H51 C76 0.949 . S
H52 C77 0.950 . S
H53 C79 0.950 . S
H54 C80 0.950 . S
H55 C82 0.950 . S
H56 C85 0.950 1_655 S
H57 C86 0.950 1_655 S
H58 C88 0.951 . S
H59 C89 0.949 . S
C60 C61 1.376 . S
C60 C65 1.386 . S
C60 C66 1.483 . S
C61 H42 0.949 . S
C61 C60 1.376 . S
C61 C62 1.397 . S
C62 H43 0.950 . S
C62 C61 1.397 . S
C62 C63 1.391 . S
C63 C62 1.391 . S
C63 C64 1.405 . S
C64 H44 0.950 1_455 S
C64 C63 1.405 . S
C64 C65 1.367 . S
C65 H45 0.950 1_455 S
C65 C60 1.386 . S
C65 C64 1.367 . S
C66 C60 1.483 . S
C66 C67 1.382 . S
C66 C68 1.403 . S
C67 H46 0.950 . S
C67 C66 1.382 . S
C67 C83 1.411 . S
C68 C66 1.403 . S
C68 C69 1.489 . S
C68 C82 1.411 . S
C69 C68 1.489 . S
C69 C70 1.383 . S
C69 C74 1.382 1_455 S
C70 H47 0.950 . S
C70 C69 1.383 . S
C70 C71 1.395 . S
C71 H48 0.950 . S
C71 C70 1.395 . S
C71 C72 1.288 . S
C72 C71 1.288 . S
C72 C73 1.392 1_455 S
C73 H49 0.951 . S
C73 C72 1.392 1_655 S
C73 C74 1.392 . S
C74 H50 0.949 . S
C74 C69 1.382 1_655 S
C74 C73 1.392 . S
C75 C76 1.376 1_455 S
C75 C80 1.386 . S
C75 C81 1.483 . S
C76 H51 0.949 . S
C76 C75 1.376 1_655 S
C76 C77 1.397 . S
C77 H52 0.950 . S
C77 C76 1.397 . S
C77 C78 1.391 1_655 S
C78 C77 1.391 1_455 S
C78 C79 1.405 . S
C79 H53 0.950 . S
C79 C78 1.405 . S
C79 C80 1.367 . S
C80 H54 0.950 . S
C80 C75 1.386 . S
C80 C79 1.367 . S
C81 C75 1.483 . S
C81 C82 1.382 . S
C81 C83 1.403 . S
C82 H55 0.950 . S
C82 C68 1.411 . S
C82 C81 1.382 . S
C83 C67 1.411 . S
C83 C81 1.403 . S
C83 C84 1.489 . S
C84 C83 1.489 . S
C84 C85 1.383 . S
C84 C89 1.382 . S
C85 H56 0.950 1_455 S
C85 C84 1.383 . S
C85 C86 1.395 . S
C86 H57 0.950 1_455 S
C86 C85 1.395 . S
C86 C87 1.288 . S
C87 C86 1.288 . S
C87 C88 1.392 . S
C88 H58 0.951 . S
C88 C87 1.392 . S
C88 C89 1.392 . S
C89 H59 0.949 . S
C89 C84 1.382 . S
C89 C88 1.392 . S
H90 C109 0.949 . S
H91 C110 0.950 . S
H92 C112 0.950 1_565 S
H93 C113 0.950 1_565 S
H94 C115 0.950 . S
H95 C118 0.950 . S
H96 C119 0.950 . S
H97 C121 0.951 . S
H98 C122 0.949 . S
H99 C124 0.949 . S
H100 C125 0.950 . S
H101 C127 0.950 . S
H102 C128 0.950 . S
H103 C130 0.950 . S
H104 C133 0.950 1_565 S
H105 C134 0.950 1_565 S
H106 C136 0.951 . S
H107 C137 0.949 . S
C108 C109 1.376 . S
C108 C113 1.386 . S
C108 C114 1.483 . S
C109 H90 0.949 . S
C109 C108 1.376 . S
C109 C110 1.397 . S
C110 H91 0.950 . S
C110 C109 1.397 . S
C110 C111 1.391 . S
C111 C110 1.391 . S
C111 C112 1.405 . S
C112 H92 0.950 1_545 S
C112 C111 1.405 . S
C112 C113 1.367 . S
C113 H93 0.950 1_545 S
C113 C108 1.386 . S
C113 C112 1.367 . S
C114 C108 1.483 . S
C114 C115 1.382 . S
C114 C116 1.403 . S
C115 H94 0.950 . S
C115 C114 1.382 . S
C115 C131 1.411 . S
C116 C114 1.403 . S
C116 C117 1.489 . S
C116 C130 1.411 . S
C117 C116 1.489 . S
C117 C118 1.383 . S
C117 C122 1.382 1_545 S
C118 H95 0.950 . S
C118 C117 1.383 . S
C118 C119 1.395 . S
C119 H96 0.950 . S
C119 C118 1.395 . S
C119 C120 1.288 . S
C120 C119 1.288 . S
C120 C121 1.392 1_545 S
C121 H97 0.951 . S
C121 C120 1.392 1_565 S
C121 C122 1.392 . S
C122 H98 0.949 . S
C122 C117 1.382 1_565 S
C122 C121 1.392 . S
C123 C124 1.376 1_545 S
C123 C128 1.386 . S
C123 C129 1.483 . S
C124 H99 0.949 . S
C124 C123 1.376 1_565 S
C124 C125 1.397 . S
C125 H100 0.950 . S
C125 C124 1.397 . S
C125 C126 1.391 1_565 S
C126 C125 1.391 1_545 S
C126 C127 1.405 . S
C127 H101 0.950 . S
C127 C126 1.405 . S
C127 C128 1.367 . S
C128 H102 0.950 . S
C128 C123 1.386 . S
C128 C127 1.367 . S
C129 C123 1.483 . S
C129 C130 1.382 . S
C129 C131 1.403 . S
C130 H103 0.950 . S
C130 C116 1.411 . S
C130 C129 1.382 . S
C131 C115 1.411 . S
C131 C129 1.403 . S
C131 C132 1.489 . S
C132 C131 1.489 . S
C132 C133 1.383 . S
C132 C137 1.382 . S
C133 H104 0.950 1_545 S
C133 C132 1.383 . S
C133 C134 1.395 . S
C134 H105 0.950 1_545 S
C134 C133 1.395 . S
C134 C135 1.288 . S
C135 C134 1.288 . S
C135 C136 1.392 . S
C136 H106 0.951 . S
C136 C135 1.392 . S
C136 C137 1.392 . S
C137 H107 0.949 . S
C137 C132 1.382 . S
C137 C136 1.392 . S
H138 C157 0.949 . S
H139 C158 0.950 . S
H140 C160 0.950 . S
H141 C161 0.950 . S
H142 C163 0.950 . S
H143 C166 0.950 . S
H144 C167 0.950 . S
H145 C169 0.951 . S
H146 C170 0.949 . S
H147 C172 0.949 . S
H148 C173 0.950 . S
H149 C175 0.950 . S
H150 C176 0.950 . S
H151 C178 0.950 . S
H152 C181 0.950 . S
H153 C182 0.950 . S
H154 C184 0.951 . S
H155 C185 0.949 . S
C156 C157 1.376 . S
C156 C161 1.386 . S
C156 C162 1.483 . S
C157 H138 0.949 . S
C157 C156 1.376 . S
C157 C158 1.397 . S
C158 H139 0.950 . S
C158 C157 1.397 . S
C158 C159 1.391 . S
C159 C158 1.391 . S
C159 C160 1.405 . S
C160 H140 0.950 . S
C160 C159 1.405 . S
C160 C161 1.367 . S
C161 H141 0.950 . S
C161 C156 1.386 . S
C161 C160 1.367 . S
C162 C156 1.483 . S
C162 C163 1.382 . S
C162 C164 1.403 . S
C163 H142 0.950 . S
C163 C162 1.382 . S
C163 C179 1.411 . S
C164 C162 1.403 . S
C164 C165 1.489 . S
C164 C178 1.411 . S
C165 C164 1.489 . S
C165 C166 1.383 . S
C165 C170 1.382 . S
C166 H143 0.950 . S
C166 C165 1.383 . S
C166 C167 1.395 . S
C167 H144 0.950 . S
C167 C166 1.395 . S
C167 C168 1.288 . S
C168 C167 1.288 . S
C168 C169 1.392 . S
C169 H145 0.951 . S
C169 C168 1.392 . S
C169 C170 1.392 . S
C170 H146 0.949 . S
C170 C165 1.382 . S
C170 C169 1.392 . S
C171 C172 1.376 . S
C171 C176 1.386 . S
C171 C177 1.483 . S
C172 H147 0.949 . S
C172 C171 1.376 . S
C172 C173 1.397 . S
C173 H148 0.950 . S
C173 C172 1.397 . S
C173 C174 1.391 . S
C174 C173 1.391 . S
C174 C175 1.405 . S
C175 H149 0.950 . S
C175 C174 1.405 . S
C175 C176 1.367 . S
C176 H150 0.950 . S
C176 C171 1.386 . S
C176 C175 1.367 . S
C177 C171 1.483 . S
C177 C178 1.382 . S
C177 C179 1.403 . S
C178 H151 0.950 . S
C178 C164 1.411 . S
C178 C177 1.382 . S
C179 C163 1.411 . S
C179 C177 1.403 . S
C179 C180 1.489 . S
C180 C179 1.489 . S
C180 C181 1.383 . S
C180 C185 1.382 . S
C181 H152 0.950 . S
C181 C180 1.383 . S
C181 C182 1.395 . S
C182 H153 0.950 . S
C182 C181 1.395 . S
C182 C183 1.288 . S
C183 C182 1.288 . S
C183 C184 1.392 . S
C184 H154 0.951 . S
C184 C183 1.392 . S
C184 C185 1.392 . S
C185 H155 0.949 . S
C185 C180 1.382 . S
C185 C184 1.392 . S
H186 C204 0.951 . S
H187 C206 0.951 . S
H188 C208 0.950 1_655 S
H189 C209 0.950 1_655 S
H190 C211 0.950 . S
H191 C214 0.950 1_655 S
H192 C215 0.950 1_655 S
H193 C217 0.950 . S
H194 C218 0.950 . S
H195 C219 0.951 1_655 S
H196 C221 0.951 1_655 S
H197 C223 0.950 . S
H198 C224 0.950 . S
H199 C226 0.950 . S
H200 C229 0.950 . S
H201 C230 0.950 . S
H202 C232 0.950 . S
H203 C233 0.954 . S
C204 H186 0.951 . S
C204 C205 1.366 . S
C204 C206 1.388 . S
C205 C204 1.366 . S
C205 C209 1.385 . S
C206 H187 0.951 . S
C206 C204 1.388 . S
C206 C207 1.366 . S
C207 C206 1.366 . S
C207 C208 1.414 . S
C207 C210 1.499 . S
C208 H188 0.950 1_455 S
C208 C207 1.414 . S
C208 C209 1.374 . S
C209 H189 0.950 1_455 S
C209 C205 1.385 . S
C209 C208 1.374 . S
C210 C207 1.499 . S
C210 C211 1.373 . S
C210 C212 1.389 . S
C211 H190 0.950 . S
C211 C210 1.373 . S
C211 C227 1.377 . S
C212 C210 1.389 . S
C212 C213 1.524 . S
C212 C226 1.377 . S
C213 C212 1.524 . S
C213 C214 1.397 . S
C213 C218 1.363 . S
C214 H191 0.950 1_455 S
C214 C213 1.397 . S
C214 C215 1.334 . S
C215 H192 0.950 1_455 S
C215 C214 1.334 . S
C215 C216 1.287 . S
C216 C215 1.287 . S
C216 C217 1.524 . S
C216 H235 0.913 . S
C217 H193 0.950 . S
C217 C216 1.524 . S
C217 C218 1.415 . S
C218 H194 0.950 . S
C218 C213 1.363 . S
C218 C217 1.415 . S
C219 H195 0.951 1_455 S
C219 C220 1.366 . S
C219 C221 1.388 . S
C220 C219 1.366 . S
C220 C224 1.385 . S
C221 H196 0.951 1_455 S
C221 C219 1.388 . S
C221 C222 1.366 . S
C222 C221 1.366 . S
C222 C223 1.414 . S
C222 C225 1.499 . S
C223 H197 0.950 . S
C223 C222 1.414 . S
C223 C224 1.374 . S
C224 H198 0.950 . S
C224 C220 1.385 . S
C224 C223 1.374 . S
C225 C222 1.499 . S
C225 C226 1.373 . S
C225 C227 1.389 . S
C226 H199 0.950 . S
C226 C212 1.377 . S
C226 C225 1.373 . S
C227 C211 1.377 . S
C227 C225 1.389 . S
C227 C228 1.524 . S
C228 C227 1.524 . S
C228 C229 1.397 . S
C228 C233 1.355 1_455 S
C229 H200 0.950 . S
C229 C228 1.397 . S
C229 C230 1.334 . S
C230 H201 0.950 . S
C230 C229 1.334 . S
C230 C231 1.287 . S
C231 C230 1.287 . S
C231 C232 1.524 1_455 S
C231 H234 0.999 . S
C232 H202 0.950 . S
C232 C231 1.524 1_655 S
C232 C233 1.420 . S
C233 H203 0.954 . S
C233 C228 1.355 1_655 S
C233 C232 1.420 . S
H234 C231 0.999 . S
H235 C216 0.913 . S
H236 C254 0.959 . S
H237 C256 0.944 1_565 S
H238 C258 0.950 . S
H239 C259 0.950 . S
H240 C261 0.950 . S
H241 C264 0.950 . S
H242 C265 0.950 . S
H243 C267 0.950 . S
H244 C268 0.950 . S
H245 C269 0.951 . S
H246 C271 0.951 . S
H247 C273 0.950 1_565 S
H248 C274 0.950 1_565 S
H249 C276 0.950 . S
H250 C279 0.950 1_565 S
H251 C280 0.950 1_565 S
H252 C282 0.950 . S
H253 C283 0.950 . S
C254 H236 0.959 . S
C254 C255 1.363 1_565 S
C254 C256 1.373 1_565 S
C255 C254 1.363 1_545 S
C255 C259 1.385 . S
C256 H237 0.944 1_545 S
C256 C254 1.373 1_545 S
C256 C257 1.383 . S
C257 C256 1.383 . S
C257 C258 1.414 . S
C257 C260 1.499 . S
C258 H238 0.950 . S
C258 C257 1.414 . S
C258 C259 1.374 . S
C259 H239 0.950 . S
C259 C255 1.385 . S
C259 C258 1.374 . S
C260 C257 1.499 . S
C260 C261 1.373 . S
C260 C262 1.389 . S
C261 H240 0.950 . S
C261 C260 1.373 . S
C261 C277 1.377 . S
C262 C260 1.389 . S
C262 C263 1.524 . S
C262 C276 1.377 . S
C263 C262 1.524 . S
C263 C264 1.397 . S
C263 C268 1.363 1_545 S
C264 H241 0.950 . S
C264 C263 1.397 . S
C264 C265 1.334 . S
C265 H242 0.950 . S
C265 C264 1.334 . S
C265 C266 1.287 . S
C266 C265 1.287 . S
C266 C267 1.524 1_545 S
C266 H285 0.913 . S
C267 H243 0.950 . S
C267 C266 1.524 1_565 S
C267 C268 1.415 . S
C268 H244 0.950 . S
C268 C263 1.363 1_565 S
C268 C267 1.415 . S
C269 H245 0.951 . S
C269 C270 1.366 . S
C269 C271 1.388 . S
C270 C269 1.366 . S
C270 C274 1.385 . S
C271 H246 0.951 . S
C271 C269 1.388 . S
C271 C272 1.366 . S
C272 C271 1.366 . S
C272 C273 1.414 . S
C272 C275 1.499 . S
C273 H247 0.950 1_545 S
C273 C272 1.414 . S
C273 C274 1.374 . S
C274 H248 0.950 1_545 S
C274 C270 1.385 . S
C274 C273 1.374 . S
C275 C272 1.499 . S
C275 C276 1.373 . S
C275 C277 1.389 . S
C276 H249 0.950 . S
C276 C262 1.377 . S
C276 C275 1.373 . S
C277 C261 1.377 . S
C277 C275 1.389 . S
C277 C278 1.524 . S
C278 C277 1.524 . S
C278 C279 1.397 . S
C278 C283 1.363 . S
C279 H250 0.950 1_545 S
C279 C278 1.397 . S
C279 C280 1.334 . S
C280 H251 0.950 1_545 S
C280 C279 1.334 . S
C280 C281 1.287 . S
C281 C280 1.287 . S
C281 C282 1.524 . S
C281 H284 0.999 . S
C282 H252 0.950 . S
C282 C281 1.524 . S
C282 C283 1.415 . S
C283 H253 0.950 . S
C283 C278 1.363 . S
C283 C282 1.415 . S
H284 C281 0.999 . S
H285 C266 0.913 . S
H286 C304 0.951 . S
H287 C306 0.951 . S
H288 C308 0.950 . S
H289 C309 0.950 . S
H290 C311 0.950 . S
H291 C314 0.950 . S
H292 C315 0.950 . S
H293 C317 0.950 . S
H294 C318 0.950 . S
H295 C319 0.951 . S
H296 C321 0.951 . S
H297 C323 0.950 . S
H298 C324 0.950 . S
H299 C326 0.950 . S
H300 C329 0.950 . S
H301 C330 0.950 . S
H302 C332 0.950 . S
H303 C333 0.950 . S
C304 H286 0.951 . S
C304 C305 1.366 . S
C304 C306 1.388 . S
C305 C304 1.366 . S
C305 C309 1.385 . S
C306 H287 0.951 . S
C306 C304 1.388 . S
C306 C307 1.366 . S
C307 C306 1.366 . S
C307 C308 1.414 . S
C307 C310 1.499 . S
C308 H288 0.950 . S
C308 C307 1.414 . S
C308 C309 1.374 . S
C309 H289 0.950 . S
C309 C305 1.385 . S
C309 C308 1.374 . S
C310 C307 1.499 . S
C310 C311 1.373 . S
C310 C312 1.389 . S
C311 H290 0.950 . S
C311 C310 1.373 . S
C311 C327 1.377 . S
C312 C310 1.389 . S
C312 C313 1.524 . S
C312 C326 1.377 . S
C313 C312 1.524 . S
C313 C314 1.397 . S
C313 C318 1.363 . S
C314 H291 0.950 . S
C314 C313 1.397 . S
C314 C315 1.334 . S
C315 H292 0.950 . S
C315 C314 1.334 . S
C315 C316 1.287 . S
C316 C315 1.287 . S
C316 C317 1.524 . S
C316 H335 0.913 . S
C317 H293 0.950 . S
C317 C316 1.524 . S
C317 C318 1.415 . S
C318 H294 0.950 . S
C318 C313 1.363 . S
C318 C317 1.415 . S
C319 H295 0.951 . S
C319 C320 1.366 . S
C319 C321 1.388 . S
C320 C319 1.366 . S
C320 C324 1.385 . S
C321 H296 0.951 . S
C321 C319 1.388 . S
C321 C322 1.366 . S
C322 C321 1.366 . S
C322 C323 1.414 . S
C322 C325 1.499 . S
C323 H297 0.950 . S
C323 C322 1.414 . S
C323 C324 1.374 . S
C324 H298 0.950 . S
C324 C320 1.385 . S
C324 C323 1.374 . S
C325 C322 1.499 . S
C325 C326 1.373 . S
C325 C327 1.389 . S
C326 H299 0.950 . S
C326 C312 1.377 . S
C326 C325 1.373 . S
C327 C311 1.377 . S
C327 C325 1.389 . S
C327 C328 1.524 . S
C328 C327 1.524 . S
C328 C329 1.397 . S
C328 C333 1.363 . S
C329 H300 0.950 . S
C329 C328 1.397 . S
C329 C330 1.334 . S
C330 H301 0.950 . S
C330 C329 1.334 . S
C330 C331 1.287 . S
C331 C330 1.287 . S
C331 C332 1.524 . S
C331 H334 0.999 . S
C332 H302 0.950 . S
C332 C331 1.524 . S
C332 C333 1.415 . S
C333 H303 0.950 . S
C333 C328 1.363 . S
C333 C332 1.415 . S
H334 C331 0.999 . S
H335 C316 0.913 . S
H336 C354 0.951 1_545 S
H337 C356 0.951 . S
H338 C358 0.950 . S
H339 C359 0.950 . S
H340 C361 0.950 . S
H341 C364 0.950 . S
H342 C365 0.950 . S
H343 C367 0.942 1_545 S
H344 C368 0.950 . S
H345 C369 0.951 . S
H346 C371 0.951 . S
H347 C373 0.950 . S
H348 C374 0.950 . S
H349 C376 0.950 . S
H350 C379 0.950 . S
H351 C380 0.950 . S
H352 C382 0.950 . S
H353 C383 0.950 . S
C354 H336 0.951 1_565 S
C354 C355 1.366 . S
C354 C356 1.388 . S
C355 C354 1.366 . S
C355 C359 1.385 . S
C356 H337 0.951 . S
C356 C354 1.388 . S
C356 C357 1.366 . S
C357 C356 1.366 . S
C357 C358 1.414 . S
C357 C360 1.499 . S
C358 H338 0.950 . S
C358 C357 1.414 . S
C358 C359 1.374 . S
C359 H339 0.950 . S
C359 C355 1.385 . S
C359 C358 1.374 . S
C360 C357 1.499 . S
C360 C361 1.373 . S
C360 C362 1.389 . S
C361 H340 0.950 . S
C361 C360 1.373 . S
C361 C377 1.377 . S
C362 C360 1.389 . S
C362 C363 1.524 . S
C362 C376 1.377 . S
C363 C362 1.524 . S
C363 C364 1.397 . S
C363 C368 1.363 . S
C364 H341 0.950 . S
C364 C363 1.397 . S
C364 C365 1.334 . S
C365 H342 0.950 . S
C365 C364 1.334 . S
C365 C366 1.287 . S
C366 C365 1.287 . S
C366 C367 1.524 . S
C366 H385 0.913 1_565 S
C367 H343 0.942 1_565 S
C367 C366 1.524 . S
C367 C368 1.415 . S
C368 H344 0.950 . S
C368 C363 1.363 . S
C368 C367 1.415 . S
C369 H345 0.951 . S
C369 C370 1.366 . S
C369 C371 1.388 . S
C370 C369 1.366 . S
C370 C374 1.385 . S
C371 H346 0.951 . S
C371 C369 1.388 . S
C371 C372 1.366 . S
C372 C371 1.366 . S
C372 C373 1.414 . S
C372 C375 1.499 . S
C373 H347 0.950 . S
C373 C372 1.414 . S
C373 C374 1.374 . S
C374 H348 0.950 . S
C374 C370 1.385 . S
C374 C373 1.374 . S
C375 C372 1.499 . S
C375 C376 1.373 . S
C375 C377 1.389 . S
C376 H349 0.950 . S
C376 C362 1.377 . S
C376 C375 1.373 . S
C377 C361 1.377 . S
C377 C375 1.389 . S
C377 C378 1.524 1_455 S
C378 C377 1.524 1_655 S
C378 C379 1.397 . S
C378 C383 1.363 . S
C379 H350 0.950 . S
C379 C378 1.397 . S
C379 C380 1.334 . S
C380 H351 0.950 . S
C380 C379 1.334 . S
C380 C381 1.287 . S
C381 C380 1.287 . S
C381 C382 1.524 . S
C381 H384 0.999 . S
C382 H352 0.950 . S
C382 C381 1.524 . S
C382 C383 1.415 . S
C383 H353 0.950 . S
C383 C378 1.363 . S
C383 C382 1.415 . S
H384 C381 0.999 . S
H385 C366 0.913 1_545 S
H386 C404 0.951 . S
H387 C406 0.951 . S
H388 C408 0.950 . S
H389 C409 0.950 . S
H390 C411 0.950 . S
H391 C414 0.950 . S
H392 C415 0.950 . S
H393 C417 0.950 . S
H394 C418 0.950 . S
H395 C419 0.951 1_565 S
H396 C421 0.951 1_565 S
H397 C423 0.950 . S
H398 C424 0.950 . S
H399 C426 0.950 . S
H400 C429 0.950 . S
H401 C430 0.950 . S
H402 C432 0.950 1_565 S
H403 C433 0.950 1_565 S
C404 H386 0.951 . S
C404 C405 1.366 . S
C404 C406 1.388 . S
C405 C404 1.366 . S
C405 C409 1.385 . S
C406 H387 0.951 . S
C406 C404 1.388 . S
C406 C407 1.366 . S
C407 C406 1.366 . S
C407 C408 1.414 . S
C407 C410 1.499 . S
C408 H388 0.950 . S
C408 C407 1.414 . S
C408 C409 1.374 . S
C409 H389 0.950 . S
C409 C405 1.385 . S
C409 C408 1.374 . S
C410 C407 1.499 . S
C410 C411 1.373 . S
C410 C412 1.389 . S
C411 H390 0.950 . S
C411 C410 1.373 . S
C411 C427 1.377 . S
C412 C410 1.389 . S
C412 C413 1.524 . S
C412 C426 1.377 . S
C413 C412 1.524 . S
C413 C414 1.397 . S
C413 C418 1.363 . S
C414 H391 0.950 . S
C414 C413 1.397 . S
C414 C415 1.334 . S
C415 H392 0.950 . S
C415 C414 1.334 . S
C415 C416 1.287 . S
C416 C415 1.287 . S
C416 C417 1.524 . S
C416 H435 0.913 . S
C417 H393 0.950 . S
C417 C416 1.524 . S
C417 C418 1.415 . S
C418 H394 0.950 . S
C418 C413 1.363 . S
C418 C417 1.415 . S
C419 H395 0.951 1_545 S
C419 C420 1.366 . S
C419 C421 1.388 . S
C420 C419 1.366 . S
C420 C424 1.385 . S
C421 H396 0.951 1_545 S
C421 C419 1.388 . S
C421 C422 1.366 . S
C422 C421 1.366 . S
C422 C423 1.414 . S
C422 C425 1.499 . S
C423 H397 0.950 . S
C423 C422 1.414 . S
C423 C424 1.374 . S
C424 H398 0.950 . S
C424 C420 1.385 . S
C424 C423 1.374 . S
C425 C422 1.499 . S
C425 C426 1.373 . S
C425 C427 1.389 . S
C426 H399 0.950 . S
C426 C412 1.377 . S
C426 C425 1.373 . S
C427 C411 1.377 . S
C427 C425 1.389 . S
C427 C428 1.524 . S
C428 C427 1.524 . S
C428 C429 1.397 . S
C428 C433 1.363 . S
C429 H400 0.950 . S
C429 C428 1.397 . S
C429 C430 1.334 . S
C430 H401 0.950 . S
C430 C429 1.334 . S
C430 C431 1.287 . S
C431 C430 1.287 . S
C431 C432 1.524 . S
C431 H434 0.999 . S
C432 H402 0.950 1_545 S
C432 C431 1.524 . S
C432 C433 1.415 . S
C433 H403 0.950 1_545 S
C433 C428 1.363 . S
C433 C432 1.415 . S
H434 C431 0.999 . S
H435 C416 0.913 . S
H436 C454 0.951 . S
H437 C456 0.951 . S
H438 C458 0.950 . S
H439 C459 0.950 . S
H440 C461 0.950 . S
H441 C464 0.950 . S
H442 C465 0.950 . S
H443 C467 0.950 . S
H444 C468 0.950 . S
H445 C469 0.951 . S
H446 C471 0.951 . S
H447 C473 0.950 . S
H448 C474 0.950 . S
H449 C476 0.950 . S
H450 C479 0.950 . S
H451 C480 0.950 . S
H452 C482 0.950 . S
H453 C483 0.950 . S
C454 H436 0.951 . S
C454 C455 1.366 . S
C454 C456 1.388 . S
C455 C454 1.366 . S
C455 C459 1.385 . S
C456 H437 0.951 . S
C456 C454 1.388 . S
C456 C457 1.366 . S
C457 C456 1.366 . S
C457 C458 1.414 . S
C457 C460 1.499 . S
C458 H438 0.950 . S
C458 C457 1.414 . S
C458 C459 1.374 . S
C459 H439 0.950 . S
C459 C455 1.385 . S
C459 C458 1.374 . S
C460 C457 1.499 . S
C460 C461 1.373 . S
C460 C462 1.389 . S
C461 H440 0.950 . S
C461 C460 1.373 . S
C461 C477 1.377 . S
C462 C460 1.389 . S
C462 C463 1.524 . S
C462 C476 1.377 . S
C463 C462 1.524 . S
C463 C464 1.397 . S
C463 C468 1.363 . S
C464 H441 0.950 . S
C464 C463 1.397 . S
C464 C465 1.334 . S
C465 H442 0.950 . S
C465 C464 1.334 . S
C465 C466 1.287 . S
C466 C465 1.287 . S
C466 C467 1.524 . S
C466 H485 0.913 . S
C467 H443 0.950 . S
C467 C466 1.524 . S
C467 C468 1.415 . S
C468 H444 0.950 . S
C468 C463 1.363 . S
C468 C467 1.415 . S
C469 H445 0.951 . S
C469 C470 1.366 . S
C469 C471 1.388 . S
C470 C469 1.366 . S
C470 C474 1.385 . S
C471 H446 0.951 . S
C471 C469 1.388 . S
C471 C472 1.366 . S
C472 C471 1.366 . S
C472 C473 1.414 . S
C472 C475 1.499 . S
C473 H447 0.950 . S
C473 C472 1.414 . S
C473 C474 1.374 . S
C474 H448 0.950 . S
C474 C470 1.385 . S
C474 C473 1.374 . S
C475 C472 1.499 . S
C475 C476 1.373 . S
C475 C477 1.389 . S
C476 H449 0.950 . S
C476 C462 1.377 . S
C476 C475 1.373 . S
C477 C461 1.377 . S
C477 C475 1.389 . S
C477 C478 1.524 . S
C478 C477 1.524 . S
C478 C479 1.397 . S
C478 C483 1.363 . S
C479 H450 0.950 . S
C479 C478 1.397 . S
C479 C480 1.334 . S
C480 H451 0.950 . S
C480 C479 1.334 . S
C480 C481 1.287 . S
C481 C480 1.287 . S
C481 C482 1.524 . S
C481 H484 0.999 . S
C482 H452 0.950 . S
C482 C481 1.524 . S
C482 C483 1.415 . S
C483 H453 0.950 . S
C483 C478 1.363 . S
C483 C482 1.415 . S
H484 C481 0.999 . S
H485 C466 0.913 . S
H486 C504 0.942 1_565 S
H487 C506 0.951 1_565 S
H488 C508 0.950 . S
H489 C509 0.950 . S
H490 C511 0.950 . S
H491 C514 0.950 . S
H492 C515 0.950 . S
H493 C517 0.950 . S
H494 C518 0.950 . S
H495 C519 0.951 . S
H496 C521 0.951 . S
H497 C523 0.950 1_565 S
H498 C524 0.950 1_565 S
H499 C526 0.950 . S
H500 C529 0.950 . S
H501 C530 0.950 . S
H502 C532 0.950 . S
H503 C533 0.950 . S
C504 H486 0.942 1_545 S
C504 C505 1.366 . S
C504 C506 1.388 . S
C505 C504 1.366 . S
C505 C509 1.385 . S
C506 H487 0.951 1_545 S
C506 C504 1.388 . S
C506 C507 1.366 . S
C507 C506 1.366 . S
C507 C508 1.414 . S
C507 C510 1.499 . S
C508 H488 0.950 . S
C508 C507 1.414 . S
C508 C509 1.374 . S
C509 H489 0.950 . S
C509 C505 1.385 . S
C509 C508 1.374 . S
C510 C507 1.499 . S
C510 C511 1.373 . S
C510 C512 1.389 1_545 S
C511 H490 0.950 . S
C511 C510 1.373 . S
C511 C527 1.377 . S
C512 C510 1.389 1_565 S
C512 C513 1.524 . S
C512 C526 1.377 . S
C513 C512 1.524 . S
C513 C514 1.397 . S
C513 C518 1.363 . S
C514 H491 0.950 . S
C514 C513 1.397 . S
C514 C515 1.334 . S
C515 H492 0.950 . S
C515 C514 1.334 . S
C515 C516 1.287 . S
C516 C515 1.287 . S
C516 C517 1.524 . S
C516 H535 0.913 . S
C517 H493 0.950 . S
C517 C516 1.524 . S
C517 C518 1.415 . S
C518 H494 0.950 . S
C518 C513 1.363 . S
C518 C517 1.415 . S
C519 H495 0.951 . S
C519 C520 1.366 . S
C519 C521 1.388 . S
C520 C519 1.366 . S
C520 C524 1.385 . S
C521 H496 0.951 . S
C521 C519 1.388 . S
C521 C522 1.366 . S
C522 C521 1.366 . S
C522 C523 1.414 . S
C522 C525 1.499 . S
C523 H497 0.950 1_545 S
C523 C522 1.414 . S
C523 C524 1.374 . S
C524 H498 0.950 1_545 S
C524 C520 1.385 . S
C524 C523 1.374 . S
C525 C522 1.499 . S
C525 C526 1.373 1_545 S
C525 C527 1.389 . S
C526 H499 0.950 . S
C526 C512 1.377 . S
C526 C525 1.373 1_565 S
C527 C511 1.377 . S
C527 C525 1.389 . S
C527 C528 1.524 . S
C528 C527 1.524 . S
C528 C529 1.397 . S
C528 C533 1.363 . S
C529 H500 0.950 . S
C529 C528 1.397 . S
C529 C530 1.334 . S
C530 H501 0.950 . S
C530 C529 1.334 . S
C530 C531 1.287 . S
C531 C530 1.287 . S
C531 C532 1.524 . S
C531 H534 0.999 . S
C532 H502 0.950 . S
C532 C531 1.524 . S
C532 C533 1.415 . S
C533 H503 0.950 . S
C533 C528 1.363 . S
C533 C532 1.415 . S
H534 C531 0.999 . S
H535 C516 0.913 . S
H536 C554 0.951 . S
H537 C556 0.951 . S
H538 C558 0.950 . S
H539 C559 0.950 . S
H540 C561 0.950 . S
H541 C564 0.950 . S
H542 C565 0.950 . S
H543 C567 0.950 . S
H544 C568 0.950 . S
H545 C569 0.951 . S
H546 C571 0.951 . S
H547 C573 0.950 . S
H548 C574 0.950 . S
H549 C576 0.950 . S
H550 C579 0.950 . S
H551 C580 0.950 . S
H552 C582 0.950 . S
H553 C583 0.950 . S
C554 H536 0.951 . S
C554 C555 1.366 . S
C554 C556 1.388 . S
C555 C554 1.366 . S
C555 C559 1.385 . S
C556 H537 0.951 . S
C556 C554 1.388 . S
C556 C557 1.366 1_554 S
C557 C556 1.366 1_556 S
C557 C558 1.414 . S
C557 C560 1.499 . S
C558 H538 0.950 . S
C558 C557 1.414 . S
C558 C559 1.374 1_556 S
C559 H539 0.950 . S
C559 C555 1.385 . S
C559 C558 1.374 1_554 S
C560 C557 1.499 . S
C560 C561 1.373 . S
C560 C562 1.389 . S
C561 H540 0.950 . S
C561 C560 1.373 . S
C561 C577 1.377 . S
C562 C560 1.389 . S
C562 C563 1.524 . S
C562 C576 1.377 . S
C563 C562 1.524 . S
C563 C564 1.397 . S
C563 C568 1.363 . S
C564 H541 0.950 . S
C564 C563 1.397 . S
C564 C565 1.334 1_655 S
C565 H542 0.950 . S
C565 C564 1.334 1_455 S
C565 C566 1.287 . S
C566 C565 1.287 . S
C566 C567 1.524 1_455 S
C566 H585 0.913 . S
C567 H543 0.950 . S
C567 C566 1.524 1_655 S
C567 C568 1.415 . S
C568 H544 0.950 . S
C568 C563 1.363 . S
C568 C567 1.415 . S
C569 H545 0.951 . S
C569 C570 1.366 . S
C569 C571 1.388 . S
C570 C569 1.366 . S
C570 C574 1.385 . S
C571 H546 0.951 . S
C571 C569 1.388 . S
C571 C572 1.366 . S
C572 C571 1.366 . S
C572 C573 1.414 . S
C572 C575 1.499 . S
C573 H547 0.950 . S
C573 C572 1.414 . S
C573 C574 1.374 . S
C574 H548 0.950 . S
C574 C570 1.385 . S
C574 C573 1.374 . S
C575 C572 1.499 . S
C575 C576 1.373 . S
C575 C577 1.389 . S
C576 H549 0.950 . S
C576 C562 1.377 . S
C576 C575 1.373 . S
C577 C561 1.377 . S
C577 C575 1.389 . S
C577 C578 1.524 . S
C578 C577 1.524 . S
C578 C579 1.397 . S
C578 C583 1.363 . S
C579 H550 0.950 . S
C579 C578 1.397 . S
C579 C580 1.334 . S
C580 H551 0.950 . S
C580 C579 1.334 . S
C580 C581 1.287 . S
C581 C580 1.287 . S
C581 C582 1.524 . S
C581 H584 0.999 . S
C582 H552 0.950 . S
C582 C581 1.524 . S
C582 C583 1.415 . S
C583 H553 0.950 . S
C583 C578 1.363 . S
C583 C582 1.415 . S
H584 C581 0.999 . S
H585 C566 0.913 . S
H586 C604 0.951 . S
H587 C606 0.951 . S
H588 C608 0.950 . S
H589 C609 0.950 1_545 S
H590 C611 0.950 . S
H591 C614 0.950 . S
H592 C615 0.950 . S
H593 C617 0.950 1_655 S
H594 C618 0.947 1_655 S
H595 C619 0.951 . S
H596 C621 0.951 . S
H597 C623 0.950 . S
H598 C624 0.950 . S
H599 C626 0.950 . S
H600 C629 0.950 . S
H601 C630 0.950 . S
H602 C632 0.950 . S
H603 C633 0.950 . S
C604 H586 0.951 . S
C604 C605 1.366 1_655 S
C604 C606 1.388 . S
C605 C604 1.366 1_455 S
C605 C609 1.385 . S
C606 H587 0.951 . S
C606 C604 1.388 . S
C606 C607 1.366 1_655 S
C607 C606 1.366 1_455 S
C607 C608 1.414 . S
C607 C610 1.499 . S
C608 H588 0.950 . S
C608 C607 1.414 . S
C608 C609 1.374 . S
C609 H589 0.950 1_565 S
C609 C605 1.385 . S
C609 C608 1.374 . S
C610 C607 1.499 . S
C610 C611 1.373 . S
C610 C612 1.389 . S
C611 H590 0.950 . S
C611 C610 1.373 . S
C611 C627 1.377 . S
C612 C610 1.389 . S
C612 C613 1.524 . S
C612 C626 1.377 . S
C613 C612 1.524 . S
C613 C614 1.397 . S
C613 C618 1.364 . S
C614 H591 0.950 . S
C614 C613 1.397 . S
C614 C615 1.334 . S
C615 H592 0.950 . S
C615 C614 1.334 . S
C615 C616 1.287 . S
C616 C615 1.287 . S
C616 C617 1.524 . S
C616 H635 0.913 . S
C617 H593 0.950 1_455 S
C617 C616 1.524 . S
C617 C618 1.417 . S
C618 H594 0.947 1_455 S
C618 C613 1.364 . S
C618 C617 1.417 . S
C619 H595 0.951 . S
C619 C620 1.366 . S
C619 C621 1.388 . S
C620 C619 1.366 . S
C620 C624 1.385 1_455 S
C621 H596 0.951 . S
C621 C619 1.388 . S
C621 C622 1.366 . S
C622 C621 1.366 . S
C622 C623 1.414 1_455 S
C622 C625 1.499 . S
C623 H597 0.950 . S
C623 C622 1.414 1_655 S
C623 C624 1.374 . S
C624 H598 0.950 . S
C624 C620 1.385 1_655 S
C624 C623 1.374 . S
C625 C622 1.499 . S
C625 C626 1.373 . S
C625 C627 1.389 . S
C626 H599 0.950 . S
C626 C612 1.377 . S
C626 C625 1.373 . S
C627 C611 1.377 . S
C627 C625 1.389 . S
C627 C628 1.524 . S
C628 C627 1.524 . S
C628 C629 1.397 1_455 S
C628 C633 1.363 . S
C629 H600 0.950 . S
C629 C628 1.397 1_655 S
C629 C630 1.334 . S
C630 H601 0.950 . S
C630 C629 1.334 . S
C630 C631 1.287 . S
C631 C630 1.287 . S
C631 C632 1.524 1_655 S
C631 H634 0.999 . S
C632 H602 0.950 . S
C632 C631 1.524 1_455 S
C632 C633 1.415 . S
C633 H603 0.950 . S
C633 C628 1.363 . S
C633 C632 1.415 . S
H634 C631 0.999 . S
H635 C616 0.913 . S
H636 C654 0.951 . S
H637 C656 0.951 . S
H638 C658 0.950 . S
H639 C659 0.950 . S
H640 C661 0.950 . S
H641 C664 0.950 . S
H642 C665 0.950 . S
H643 C667 0.950 . S
H644 C668 0.950 . S
H645 C669 0.951 . S
H646 C671 0.951 . S
H647 C673 0.950 . S
H648 C674 0.950 . S
H649 C676 0.950 . S
H650 C679 0.950 . S
H651 C680 0.950 . S
H652 C682 0.950 . S
H653 C683 0.950 . S
C654 H636 0.951 . S
C654 C655 1.366 . S
C654 C656 1.388 . S
C655 C654 1.366 . S
C655 C659 1.385 1_565 S
C656 H637 0.951 . S
C656 C654 1.388 . S
C656 C657 1.366 1_565 S
C657 C656 1.366 1_545 S
C657 C658 1.414 . S
C657 C660 1.499 . S
C658 H638 0.950 . S
C658 C657 1.414 . S
C658 C659 1.374 . S
C659 H639 0.950 . S
C659 C655 1.385 1_545 S
C659 C658 1.374 . S
C660 C657 1.499 . S
C660 C661 1.373 1_545 S
C660 C662 1.389 . S
C661 H640 0.950 . S
C661 C660 1.373 1_565 S
C661 C677 1.377 . S
C662 C660 1.389 . S
C662 C663 1.524 . S
C662 C676 1.377 . S
C663 C662 1.524 . S
C663 C664 1.397 . S
C663 C668 1.363 . S
C664 H641 0.950 . S
C664 C663 1.397 . S
C664 C665 1.334 . S
C665 H642 0.950 . S
C665 C664 1.334 . S
C665 C666 1.287 . S
C666 C665 1.287 . S
C666 C667 1.524 . S
C666 H685 0.913 . S
C667 H643 0.950 . S
C667 C666 1.524 . S
C667 C668 1.415 . S
C668 H644 0.950 . S
C668 C663 1.363 . S
C668 C667 1.415 . S
C669 H645 0.951 . S
C669 C670 1.366 . S
C669 C671 1.388 . S
C670 C669 1.366 . S
C670 C674 1.385 . S
C671 H646 0.951 . S
C671 C669 1.388 . S
C671 C672 1.366 . S
C672 C671 1.366 . S
C672 C673 1.414 . S
C672 C675 1.499 . S
C673 H647 0.950 . S
C673 C672 1.414 . S
C673 C674 1.374 . S
C674 H648 0.950 . S
C674 C670 1.385 . S
C674 C673 1.374 . S
C675 C672 1.499 . S
C675 C676 1.373 . S
C675 C677 1.389 1_545 S
C676 H649 0.950 . S
C676 C662 1.377 . S
C676 C675 1.373 . S
C677 C661 1.377 . S
C677 C675 1.389 1_565 S
C677 C678 1.524 . S
C678 C677 1.524 . S
C678 C679 1.397 . S
C678 C683 1.363 . S
C679 H650 0.950 . S
C679 C678 1.397 . S
C679 C680 1.334 . S
C680 H651 0.950 . S
C680 C679 1.334 . S
C680 C681 1.287 . S
C681 C680 1.287 . S
C681 C682 1.524 . S
C681 H684 0.999 . S
C682 H652 0.950 . S
C682 C681 1.524 . S
C682 C683 1.415 . S
C683 H653 0.950 . S
C683 C678 1.363 . S
C683 C682 1.415 . S
H684 C681 0.999 . S
H685 C666 0.913 . S
H686 C704 0.951 . S
H687 C706 0.951 . S
H688 C708 0.950 . S
H689 C709 0.967 . S
H690 C711 0.950 . S
H691 C714 0.950 . S
H692 C715 0.950 . S
H693 C717 0.950 . S
H694 C718 0.950 . S
H695 C719 0.951 . S
H696 C721 0.951 . S
H697 C723 0.950 . S
H698 C724 0.950 . S
H699 C726 0.950 . S
H700 C729 0.950 . S
H701 C730 0.950 . S
H702 C732 0.950 . S
H703 C733 0.950 . S
C704 H686 0.951 . S
C704 C705 1.366 . S
C704 C706 1.388 . S
C705 C704 1.366 . S
C705 C709 1.326 1_554 S
C706 H687 0.951 . S
C706 C704 1.388 . S
C706 C707 1.366 1_554 S
C707 C706 1.366 1_556 S
C707 C708 1.414 . S
C707 C710 1.499 . S
C708 H688 0.950 . S
C708 C707 1.414 . S
C708 C709 1.419 . S
C709 H689 0.967 . S
C709 C705 1.326 1_556 S
C709 C708 1.419 . S
C710 C707 1.499 . S
C710 C711 1.373 . S
C710 C712 1.389 . S
C711 H690 0.950 . S
C711 C710 1.373 . S
C711 C727 1.377 . S
C712 C710 1.389 . S
C712 C713 1.524 1_556 S
C712 C726 1.377 . S
C713 C712 1.524 1_554 S
C713 C714 1.397 . S
C713 C718 1.363 . S
C714 H691 0.950 . S
C714 C713 1.397 . S
C714 C715 1.334 . S
C715 H692 0.950 . S
C715 C714 1.334 . S
C715 C716 1.287 . S
C716 C715 1.287 . S
C716 C717 1.524 . S
C716 H735 0.913 . S
C717 H693 0.950 . S
C717 C716 1.524 . S
C717 C718 1.415 . S
C718 H694 0.950 . S
C718 C713 1.363 . S
C718 C717 1.415 . S
C719 H695 0.951 . S
C719 C720 1.366 . S
C719 C721 1.388 . S
C720 C719 1.366 . S
C720 C724 1.385 . S
C721 H696 0.951 . S
C721 C719 1.388 . S
C721 C722 1.366 . S
C722 C721 1.366 . S
C722 C723 1.414 . S
C722 C725 1.499 . S
C723 H697 0.950 . S
C723 C722 1.414 . S
C723 C724 1.374 . S
C724 H698 0.950 . S
C724 C720 1.385 . S
C724 C723 1.374 . S
C725 C722 1.499 . S
C725 C726 1.373 . S
C725 C727 1.389 . S
C726 H699 0.950 . S
C726 C712 1.377 . S
C726 C725 1.373 . S
C727 C711 1.377 . S
C727 C725 1.389 . S
C727 C728 1.524 . S
C728 C727 1.524 . S
C728 C729 1.397 . S
C728 C733 1.363 . S
C729 H700 0.950 . S
C729 C728 1.397 . S
C729 C730 1.334 . S
C730 H701 0.950 . S
C730 C729 1.334 . S
C730 C731 1.287 . S
C731 C730 1.287 . S
C731 C732 1.524 . S
C731 H734 0.999 . S
C732 H702 0.950 . S
C732 C731 1.524 . S
C732 C733 1.415 . S
C733 H703 0.950 . S
C733 C728 1.363 . S
C733 C732 1.415 . S
H734 C731 0.999 . S
H735 C716 0.913 . S
H736 C754 0.951 . S
H737 C756 0.951 . S
H738 C758 0.950 . S
H739 C759 0.950 . S
H740 C761 0.950 1_655 S
H741 C764 0.950 . S
H742 C765 0.950 . S
H743 C767 0.950 . S
H744 C768 0.950 . S
H745 C769 0.951 . S
H746 C771 0.951 . S
H747 C773 0.950 . S
H748 C774 0.950 . S
H749 C776 0.950 . S
H750 C779 0.950 . S
H751 C780 0.950 . S
H752 C782 0.950 . S
H753 C783 0.950 . S
C754 H736 0.951 . S
C754 C755 1.366 . S
C754 C756 1.388 . S
C755 C754 1.366 . S
C755 C759 1.385 . S
C756 H737 0.951 . S
C756 C754 1.388 . S
C756 C757 1.366 . S
C757 C756 1.366 . S
C757 C758 1.414 . S
C757 C760 1.499 . S
C758 H738 0.950 . S
C758 C757 1.414 . S
C758 C759 1.374 . S
C759 H739 0.950 . S
C759 C755 1.385 . S
C759 C758 1.374 . S
C760 C757 1.499 . S
C760 C761 1.373 . S
C760 C762 1.389 . S
C761 H740 0.950 1_455 S
C761 C760 1.373 . S
C761 C777 1.377 . S
C762 C760 1.389 . S
C762 C763 1.524 . S
C762 C776 1.377 . S
C763 C762 1.524 . S
C763 C764 1.397 . S
C763 C768 1.363 . S
C764 H741 0.950 . S
C764 C763 1.397 . S
C764 C765 1.334 . S
C765 H742 0.950 . S
C765 C764 1.334 . S
C765 C766 1.287 . S
C766 C765 1.287 . S
C766 C767 1.524 . S
C766 H785 0.913 . S
C767 H743 0.950 . S
C767 C766 1.524 . S
C767 C768 1.415 . S
C768 H744 0.950 . S
C768 C763 1.363 . S
C768 C767 1.415 . S
C769 H745 0.951 . S
C769 C770 1.366 . S
C769 C771 1.388 . S
C770 C769 1.366 . S
C770 C774 1.385 . S
C771 H746 0.951 . S
C771 C769 1.388 . S
C771 C772 1.366 . S
C772 C771 1.366 . S
C772 C773 1.414 . S
C772 C775 1.499 . S
C773 H747 0.950 . S
C773 C772 1.414 . S
C773 C774 1.374 . S
C774 H748 0.950 . S
C774 C770 1.385 . S
C774 C773 1.374 . S
C775 C772 1.499 . S
C775 C776 1.373 . S
C775 C777 1.389 . S
C776 H749 0.950 . S
C776 C762 1.377 . S
C776 C775 1.373 . S
C777 C761 1.377 . S
C777 C775 1.389 . S
C777 C778 1.524 1_455 S
C778 C777 1.524 1_655 S
C778 C779 1.397 . S
C778 C783 1.363 . S
C779 H750 0.950 . S
C779 C778 1.397 . S
C779 C780 1.334 . S
C780 H751 0.950 . S
C780 C779 1.334 . S
C780 C781 1.287 . S
C781 C780 1.287 . S
C781 C782 1.524 . S
C781 H784 0.999 . S
C782 H752 0.950 . S
C782 C781 1.524 . S
C782 C783 1.415 . S
C783 H753 0.950 . S
C783 C778 1.363 . S
C783 C782 1.415 . S
H784 C781 0.999 . S
H785 C766 0.913 . S
C220 C63 1.314 . S
C205 C11 1.302 . S
C255 C25 1.376 . S
C270 C111 1.389 . S
C305 C41 1.380 . S
C320 C183 1.440 . S
C355 C7 1.327 . S
C370 C87 1.324 . S
C420 C135 1.396 . S
C405 C21 1.399 . S
C455 C36 1.390 . S
C470 C159 1.449 . S
C520 C120 1.381 . S
C505 C39 1.372 . S
C555 C8 1.389 1_655 S
C570 C174 1.439 . S
C620 C78 1.499 . S
C605 C22 1.445 1_565 S
C670 C126 1.397 . S
C655 C35 1.393 . S
C720 C168 1.428 . S
C705 C13 1.374 . S
C755 C27 1.429 . S
C770 C72 1.479 . S
