# Generated by pormake.
# Topology apo, (3,6)-cn, num edge types: 1
# Building blocks:
#     Node 0, Type 0, BuildingBlock: MIDCAF_clean_linker_0, # of connection points: 3
#     Node 1, Type 0, BuildingBlock: MIDCAF_clean_linker_0, # of connection points: 3
#     Node 2, Type 0, BuildingBlock: MIDCAF_clean_linker_0, # of connection points: 3
#     Node 3, Type 0, BuildingBlock: MIDCAF_clean_linker_0, # of connection points: 3
#     Node 4, Type 0, BuildingBlock: MIDCAF_clean_linker_0, # of connection points: 3
#     Node 5, Type 0, BuildingBlock: MIDCAF_clean_linker_0, # of connection points: 3
#     Node 6, Type 0, BuildingBlock: MIDCAF_clean_linker_0, # of connection points: 3
#     Node 7, Type 0, BuildingBlock: MIDCAF_clean_linker_0, # of connection points: 3
#     Node 8, Type 1, BuildingBlock: MIDCAF_clean_sbu_0, # of connection points: 6
#     Node 9, Type 1, BuildingBlock: MIDCAF_clean_sbu_0, # of connection points: 6
#     Node 10, Type 1, BuildingBlock: MIDCAF_clean_sbu_0, # of connection points: 6
#     Node 11, Type 1, BuildingBlock: MIDCAF_clean_sbu_0, # of connection points: 6
#     Edge 12, Type (0, 1), BuildingBlock: OJICUG_clean_linker_0, # of connection points: 2
#     Edge 13, Type (0, 1), BuildingBlock: OJICUG_clean_linker_0, # of connection points: 2
#     Edge 14, Type (0, 1), BuildingBlock: OJICUG_clean_linker_0, # of connection points: 2
#     Edge 15, Type (0, 1), BuildingBlock: OJICUG_clean_linker_0, # of connection points: 2
#     Edge 16, Type (0, 1), BuildingBlock: OJICUG_clean_linker_0, # of connection points: 2
#     Edge 17, Type (0, 1), BuildingBlock: OJICUG_clean_linker_0, # of connection points: 2
#     Edge 18, Type (0, 1), BuildingBlock: OJICUG_clean_linker_0, # of connection points: 2
#     Edge 19, Type (0, 1), BuildingBlock: OJICUG_clean_linker_0, # of connection points: 2
#     Edge 20, Type (0, 1), BuildingBlock: OJICUG_clean_linker_0, # of connection points: 2
#     Edge 21, Type (0, 1), BuildingBlock: OJICUG_clean_linker_0, # of connection points: 2
#     Edge 22, Type (0, 1), BuildingBlock: OJICUG_clean_linker_0, # of connection points: 2
#     Edge 23, Type (0, 1), BuildingBlock: OJICUG_clean_linker_0, # of connection points: 2
#     Edge 24, Type (0, 1), BuildingBlock: OJICUG_clean_linker_0, # of connection points: 2
#     Edge 25, Type (0, 1), BuildingBlock: OJICUG_clean_linker_0, # of connection points: 2
#     Edge 26, Type (0, 1), BuildingBlock: OJICUG_clean_linker_0, # of connection points: 2
#     Edge 27, Type (0, 1), BuildingBlock: OJICUG_clean_linker_0, # of connection points: 2
#     Edge 28, Type (0, 1), BuildingBlock: OJICUG_clean_linker_0, # of connection points: 2
#     Edge 29, Type (0, 1), BuildingBlock: OJICUG_clean_linker_0, # of connection points: 2
#     Edge 30, Type (0, 1), BuildingBlock: OJICUG_clean_linker_0, # of connection points: 2
#     Edge 31, Type (0, 1), BuildingBlock: OJICUG_clean_linker_0, # of connection points: 2
#     Edge 32, Type (0, 1), BuildingBlock: OJICUG_clean_linker_0, # of connection points: 2
#     Edge 33, Type (0, 1), BuildingBlock: OJICUG_clean_linker_0, # of connection points: 2
#     Edge 34, Type (0, 1), BuildingBlock: OJICUG_clean_linker_0, # of connection points: 2
#     Edge 35, Type (0, 1), BuildingBlock: OJICUG_clean_linker_0, # of connection points: 2
# Relax obj value: 0.088
# Max RMSD: 0.100
# Mean RMSD: 0.092
data_MOF--net-apo--node1-MIDCAF_clean_sbu_0--node2-MIDCAF_clean_linker_0--edge1-OJICUG_clean_linker_0
_symmetry_space_group_name_H-M    P1
_symmetry_Int_Tables_number       1
_symmetry_cell_setting            triclinic
loop_
_symmetry_equiv_pos_as_xyz
'x, y, z'
_cell_length_a     33.505896
_cell_length_b     39.569015
_cell_length_c     34.193758
_cell_angle_alpha  89.760201
_cell_angle_beta   89.951674
_cell_angle_gamma 90.21045
loop_
_atom_site_label
_atom_site_type_symbol
_atom_site_fract_x
_atom_site_fract_y
_atom_site_fract_z
_atom_type_partial_charge
C0 C 0.35632 0.33098 0.54512 0.0
C1 C 0.35749 0.29792 0.56021 0.0
C2 C 0.34746 0.27084 0.53551 0.0
C3 C 0.33774 0.27672 0.49615 0.0
H4 H 0.27286 0.24235 0.39508 0.0
H5 H 0.22335 0.21028 0.35905 0.0
H6 H 0.21952 0.28821 0.27037 0.0
H7 H 0.26956 0.32074 0.30673 0.0
H8 H 0.33153 0.38991 0.32091 0.0
H9 H 0.36723 0.44072 0.29934 0.0
H10 H 0.46149 0.41898 0.38183 0.0
H11 H 0.42504 0.3694 0.40439 0.0
H12 H 0.34847 0.36246 0.49475 0.0
H13 H 0.36453 0.35233 0.5632 0.0
H14 H 0.3484 0.24509 0.54635 0.0
H15 H 0.33126 0.25538 0.47741 0.0
N16 N 0.3088 0.29737 0.41623 0.0
N17 N 0.32492 0.33015 0.36075 0.0
N18 N 0.35539 0.34138 0.42108 0.0
C19 C 0.30379 0.30437 0.37746 0.0
C20 C 0.35124 0.34841 0.38242 0.0
C21 C 0.33422 0.31611 0.43826 0.0
C22 C 0.27513 0.28422 0.35395 0.0
C23 C 0.26181 0.25268 0.36779 0.0
C24 C 0.23367 0.23406 0.34684 0.0
C25 C 0.21778 0.24653 0.31158 0.0
C26 C 0.2313 0.27793 0.29738 0.0
C27 C 0.26 0.29647 0.31819 0.0
C28 C 0.37509 0.37614 0.36489 0.0
C29 C 0.36015 0.39583 0.33396 0.0
C30 C 0.38078 0.42482 0.32145 0.0
C31 C 0.41698 0.43433 0.33932 0.0
C32 C 0.4332 0.41301 0.36816 0.0
C33 C 0.41233 0.38451 0.38106 0.0
C34 C 0.33905 0.30967 0.48067 0.0
C35 C 0.34759 0.33675 0.50577 0.0
C36 C 0.13056 0.15303 0.04667 0.0
C37 C 0.13024 0.18615 0.06133 0.0
C38 C 0.14094 0.21298 0.03624 0.0
C39 C 0.15035 0.20683 0.9969 0.0
H40 H 0.21201 0.24145 0.89386 0.0
H41 H 0.26109 0.27356 0.85688 0.0
H42 H 0.26624 0.19444 0.77046 0.0
H43 H 0.21655 0.16191 0.80774 0.0
H44 H 0.15232 0.09434 0.82159 0.0
H45 H 0.11595 0.04385 0.8006 0.0
H46 H 0.02482 0.0638 0.88693 0.0
H47 H 0.06188 0.11309 0.9088 0.0
H48 H 0.13745 0.12129 0.99669 0.0
H49 H 0.12183 0.13188 0.06503 0.0
H50 H 0.1407 0.23876 0.04674 0.0
H51 H 0.15729 0.228 0.97786 0.0
N52 N 0.17764 0.18594 0.91683 0.0
N53 N 0.1607 0.1531 0.86197 0.0
N54 N 0.13106 0.14199 0.92288 0.0
C55 C 0.18211 0.17888 0.87807 0.0
C56 C 0.13465 0.1349 0.88425 0.0
C57 C 0.15251 0.16725 0.93946 0.0
C58 C 0.21042 0.19901 0.85392 0.0
C59 C 0.22325 0.23088 0.86685 0.0
C60 C 0.25114 0.24951 0.84535 0.0
C61 C 0.26728 0.23671 0.81046 0.0
C62 C 0.25423 0.20498 0.79715 0.0
C63 C 0.22574 0.18644 0.81848 0.0
C64 C 0.11039 0.10723 0.86738 0.0
C65 C 0.12424 0.0881 0.83564 0.0
C66 C 0.10322 0.05929 0.82347 0.0
C67 C 0.06771 0.04939 0.8425 0.0
C68 C 0.05257 0.0701 0.8723 0.0
C69 C 0.0738 0.09843 0.88481 0.0
C70 C 0.14812 0.17386 0.98184 0.0
C71 C 0.13903 0.14701 1.00735 0.0
C72 C 0.84199 0.15142 0.4853 0.0
C73 C 0.84689 0.18485 0.47207 0.0
C74 C 0.83851 0.21148 0.49796 0.0
C75 C 0.82749 0.20472 0.53682 0.0
H76 H 0.7713 0.24099 0.64138 0.0
H77 H 0.72489 0.27447 0.67924 0.0
H78 H 0.71715 0.19498 0.76589 0.0
H79 H 0.76396 0.16101 0.72756 0.0
H80 H 0.86109 0.11548 0.72259 0.0
H81 H 0.90134 0.0677 0.74553 0.0
H82 H 0.90164 0.02703 0.62839 0.0
H83 H 0.86317 0.07464 0.60562 0.0
H84 H 0.83017 0.11862 0.53382 0.0
H85 H 0.84874 0.13032 0.46635 0.0
H86 H 0.84212 0.2375 0.48858 0.0
H87 H 0.82287 0.22567 0.55659 0.0
N88 N 0.79987 0.18405 0.61691 0.0
N89 N 0.81557 0.14913 0.67066 0.0
N90 N 0.83949 0.13612 0.60807 0.0
C91 C 0.79656 0.17676 0.6558 0.0
C92 C 0.8373 0.12879 0.6468 0.0
C93 C 0.82107 0.16361 0.59285 0.0
C94 C 0.77124 0.1982 0.68122 0.0
C95 C 0.76017 0.23068 0.66868 0.0
C96 C 0.7338 0.25007 0.69071 0.0
C97 C 0.71748 0.23752 0.72583 0.0
C98 C 0.72921 0.20534 0.73899 0.0
C99 C 0.75611 0.18599 0.71706 0.0
C100 C 0.85921 0.09906 0.66219 0.0
C101 C 0.86981 0.09622 0.70188 0.0
C102 C 0.8929 0.06888 0.71501 0.0
C103 C 0.90559 0.04379 0.6887 0.0
C104 C 0.89382 0.04637 0.64933 0.0
C105 C 0.87127 0.07363 0.63625 0.0
C106 C 0.82558 0.17124 0.55062 0.0
C107 C 0.83178 0.14471 0.52415 0.0
C108 C 0.62989 0.33269 0.99176 0.0
C109 C 0.62952 0.29962 0.97696 0.0
C110 C 0.63995 0.27274 1.00197 0.0
C111 C 0.64924 0.2788 0.04134 0.0
H112 H 0.71037 0.24379 0.1437 0.0
H113 H 0.7592 0.21139 0.18013 0.0
H114 H 0.76523 0.28979 0.26742 0.0
H115 H 0.71583 0.32266 0.23063 0.0
H116 H 0.65365 0.39197 0.21574 0.0
H117 H 0.61783 0.44257 0.23667 0.0
H118 H 0.52443 0.42067 0.1533 0.0
H119 H 0.561 0.37133 0.13139 0.0
H120 H 0.63677 0.3643 0.04188 0.0
H121 H 0.62136 0.35388 0.97346 0.0
H122 H 0.63964 0.24699 0.99135 0.0
H123 H 0.65604 0.25759 0.06029 0.0
N124 N 0.67658 0.29937 0.12138 0.0
N125 N 0.66024 0.33212 0.17643 0.0
N126 N 0.6306 0.34351 0.11567 0.0
C127 C 0.68123 0.3063 0.16015 0.0
C128 C 0.6344 0.35048 0.15432 0.0
C129 C 0.65166 0.31821 0.09892 0.0
C130 C 0.70928 0.28593 0.18407 0.0
C131 C 0.72175 0.25414 0.17079 0.0
C132 C 0.74949 0.23534 0.19198 0.0
C133 C 0.76583 0.24785 0.22694 0.0
C134 C 0.75308 0.27947 0.24065 0.0
C135 C 0.72476 0.2982 0.2196 0.0
C136 C 0.61053 0.37815 0.17138 0.0
C137 C 0.6252 0.39782 0.20234 0.0
C138 C 0.6045 0.42669 0.21448 0.0
C139 C 0.56851 0.43609 0.1962 0.0
C140 C 0.55258 0.4148 0.16728 0.0
C141 C 0.57351 0.38644 0.15476 0.0
C142 C 0.64715 0.31171 0.05653 0.0
C143 C 0.63824 0.33862 0.03112 0.0
C144 C 0.62821 0.65256 0.49072 0.0
C145 C 0.62779 0.68559 0.47549 0.0
C146 C 0.63858 0.71257 0.50002 0.0
C147 C 0.64833 0.70665 0.53936 0.0
H148 H 0.71289 0.74126 0.63911 0.0
H149 H 0.76197 0.77412 0.67461 0.0
H150 H 0.76564 0.69784 0.76521 0.0
H151 H 0.71601 0.66443 0.72929 0.0
H152 H 0.65408 0.59398 0.71509 0.0
H153 H 0.61787 0.54349 0.737 0.0
H154 H 0.52324 0.56608 0.65524 0.0
H155 H 0.56015 0.6153 0.63235 0.0
H156 H 0.63554 0.62111 0.5412 0.0
H157 H 0.61941 0.63131 0.47277 0.0
H158 H 0.63822 0.7383 0.48906 0.0
H159 H 0.65543 0.72794 0.55795 0.0
N160 N 0.67686 0.68628 0.6192 0.0
N161 N 0.66082 0.65396 0.67505 0.0
N162 N 0.63017 0.64232 0.61488 0.0
C163 C 0.68197 0.67958 0.65802 0.0
C164 C 0.6344 0.63557 0.6536 0.0
C165 C 0.65137 0.66743 0.5974 0.0
C166 C 0.71053 0.7001 0.68121 0.0
C167 C 0.72382 0.73143 0.66669 0.0
C168 C 0.75173 0.75052 0.68734 0.0
C169 C 0.76741 0.73879 0.72302 0.0
C170 C 0.75401 0.70756 0.73786 0.0
C171 C 0.72554 0.68852 0.71732 0.0
C172 C 0.61035 0.60811 0.67144 0.0
C173 C 0.62527 0.58832 0.70229 0.0
C174 C 0.60436 0.55951 0.71499 0.0
C175 C 0.56789 0.55033 0.69741 0.0
C176 C 0.55172 0.57179 0.66869 0.0
C177 C 0.57285 0.60009 0.6556 0.0
C178 C 0.64631 0.67377 0.555 0.0
C179 C 0.63698 0.64676 0.53006 0.0
C180 C 0.85271 0.83289 0.98806 0.0
C181 C 0.8532 0.7997 0.97364 0.0
C182 C 0.84239 0.77299 0.99886 0.0
C183 C 0.83268 0.77935 0.03808 0.0
H184 H 0.77028 0.74501 0.14044 0.0
H185 H 0.72161 0.71255 0.17754 0.0
H186 H 0.71641 0.79137 0.26433 0.0
H187 H 0.76565 0.82426 0.22692 0.0
H188 H 0.82867 0.89257 0.21263 0.0
H189 H 0.86495 0.94293 0.23414 0.0
H190 H 0.95726 0.92264 0.14912 0.0
H191 H 0.92024 0.87354 0.12666 0.0
H192 H 0.84538 0.8649 0.03775 0.0
H193 H 0.86151 0.85396 0.96959 0.0
H194 H 0.84277 0.74715 0.98855 0.0
H195 H 0.82565 0.75826 0.05721 0.0
N196 N 0.80478 0.80045 0.11776 0.0
N197 N 0.82112 0.83353 0.17258 0.0
N198 N 0.85108 0.84464 0.11182 0.0
C199 C 0.80001 0.8076 0.15646 0.0
C200 C 0.84716 0.85182 0.15041 0.0
C201 C 0.82992 0.81921 0.09521 0.0
C202 C 0.77181 0.78733 0.18056 0.0
C203 C 0.7591 0.75545 0.16755 0.0
C204 C 0.73146 0.73662 0.1891 0.0
C205 C 0.71545 0.74922 0.22415 0.0
C206 C 0.72833 0.78098 0.23751 0.0
C207 C 0.75656 0.79972 0.21611 0.0
C208 C 0.87119 0.87956 0.16742 0.0
C209 C 0.85696 0.89873 0.19895 0.0
C210 C 0.87793 0.92746 0.21143 0.0
C211 C 0.91379 0.93723 0.19294 0.0
C212 C 0.92924 0.91648 0.16332 0.0
C213 C 0.90803 0.88825 0.15047 0.0
C214 C 0.83471 0.8124 0.05291 0.0
C215 C 0.84394 0.83913 0.02727 0.0
C216 C 0.13115 0.83445 0.54463 0.0
C217 C 0.13065 0.80141 0.55985 0.0
C218 C 0.14129 0.77448 0.53525 0.0
C219 C 0.15088 0.78044 0.49585 0.0
H220 H 0.213 0.74542 0.39469 0.0
H221 H 0.26115 0.71243 0.35837 0.0
H222 H 0.26572 0.78943 0.26861 0.0
H223 H 0.21697 0.82292 0.3053 0.0
H224 H 0.15494 0.89342 0.32033 0.0
H225 H 0.11812 0.94347 0.29879 0.0
H226 H 0.02403 0.91933 0.38096 0.0
H227 H 0.06158 0.8706 0.4035 0.0
H228 H 0.13835 0.86593 0.49411 0.0
H229 H 0.12248 0.85567 0.56263 0.0
H230 H 0.14088 0.74875 0.54619 0.0
H231 H 0.15779 0.75918 0.47721 0.0
N232 N 0.17858 0.80083 0.4156 0.0
N233 N 0.1619 0.83302 0.35992 0.0
N234 N 0.13216 0.84467 0.42053 0.0
C235 C 0.18316 0.80748 0.37669 0.0
C236 C 0.13589 0.85136 0.38173 0.0
C237 C 0.1535 0.81966 0.43774 0.0
C238 C 0.21116 0.78692 0.35305 0.0
C239 C 0.22394 0.75537 0.36712 0.0
C240 C 0.25129 0.73622 0.346 0.0
C241 C 0.26695 0.74812 0.31032 0.0
C242 C 0.25406 0.77957 0.29593 0.0
C243 C 0.22612 0.79866 0.31692 0.0
C244 C 0.11153 0.87858 0.36416 0.0
C245 C 0.12613 0.89866 0.33331 0.0
C246 C 0.10486 0.92721 0.32082 0.0
C247 C 0.06835 0.93584 0.33862 0.0
C248 C 0.05253 0.91407 0.36736 0.0
C249 C 0.07403 0.88605 0.38024 0.0
C250 C 0.14887 0.81332 0.48022 0.0
C251 C 0.13978 0.84028 0.50524 0.0
C252 C 0.35165 0.65067 0.04586 0.0
C253 C 0.35208 0.68378 0.06054 0.0
C254 C 0.34132 0.71057 0.03555 0.0
C255 C 0.33175 0.7044 0.99627 0.0
H256 H 0.27103 0.73953 0.89441 0.0
H257 H 0.22304 0.7726 0.85776 0.0
H258 H 0.21766 0.69517 0.76928 0.0
H259 H 0.26624 0.6616 0.80633 0.0
H260 H 0.32829 0.5915 0.82154 0.0
H261 H 0.36476 0.54126 0.80043 0.0
H262 H 0.45749 0.56344 0.88441 0.0
H263 H 0.42031 0.61238 0.90646 0.0
H264 H 0.34451 0.61893 0.99587 0.0
H265 H 0.36041 0.62956 0.06416 0.0
H266 H 0.34164 0.73635 0.04607 0.0
H267 H 0.32478 0.72557 0.9773 0.0
N268 N 0.30457 0.68388 0.91627 0.0
N269 N 0.32118 0.65136 0.86113 0.0
N270 N 0.35046 0.63969 0.922 0.0
C271 C 0.30012 0.67713 0.87745 0.0
C272 C 0.34687 0.63288 0.8833 0.0
C273 C 0.32932 0.66493 0.93878 0.0
C274 C 0.27241 0.6978 0.85347 0.0
C275 C 0.25997 0.72951 0.86703 0.0
C276 C 0.23272 0.74871 0.84572 0.0
C277 C 0.21683 0.73669 0.81032 0.0
C278 C 0.22948 0.70512 0.79638 0.0
C279 C 0.25733 0.68598 0.81757 0.0
C280 C 0.37103 0.6054 0.86619 0.0
C281 C 0.35672 0.58578 0.83503 0.0
C282 C 0.37779 0.55712 0.8228 0.0
C283 C 0.41381 0.54791 0.84118 0.0
C284 C 0.42935 0.56916 0.87033 0.0
C285 C 0.40806 0.5973 0.88294 0.0
C286 C 0.33387 0.67147 0.98115 0.0
C287 C 0.34301 0.64463 1.00658 0.0
Zn288 Zn 0.02455 0.14019 0.3357 0.0
Zn289 Zn 0.95737 0.14208 0.2008 0.0
Zn290 Zn -0.00877 0.14028 0.26807 0.0
C291 C 0.02764 0.17642 0.18968 0.0
C292 C 0.96681 0.07416 0.21781 0.0
O293 O 0.9507 0.16529 0.31135 0.0
O294 O 0.98698 0.16859 0.36515 0.0
C295 C 0.07898 0.17106 0.28663 0.0
O296 O 0.03205 0.16608 0.22528 0.0
O297 O -0.00484 0.17122 0.17205 0.0
O298 O 0.95736 0.09314 0.18957 0.0
O299 O 0.97973 0.08713 0.24996 0.0
O300 O 0.07621 0.16003 0.32115 0.0
O301 O 0.04986 0.1672 0.2624 0.0
O302 O 0.00219 0.08664 0.28489 0.0
O303 O 0.02412 0.09097 0.3456 0.0
C304 C 0.01481 0.07279 0.31676 0.0
O305 O 0.93294 0.16731 0.27435 0.0
O306 O 0.90593 0.16161 0.21571 0.0
C307 C 0.95484 0.17457 0.34729 0.0
C308 C 0.90366 0.17188 0.25046 0.0
Zn309 Zn 0.52763 0.34542 0.7021 0.0
Zn310 Zn 0.45835 0.34344 0.83567 0.0
Zn311 Zn 0.49293 0.34489 0.76877 0.0
C312 C 0.46765 0.41121 0.81834 0.0
C313 C 0.40519 0.31296 0.78558 0.0
O314 O 0.55154 0.31826 0.7752 0.0
O315 O 0.57956 0.32693 0.71741 0.0
C316 C 0.51647 0.41257 0.7199 0.0
O317 O 0.48095 0.39807 0.78645 0.0
O318 O 0.45806 0.3924 0.84674 0.0
O319 O 0.40714 0.32355 0.82022 0.0
O320 O 0.43474 0.31743 0.76188 0.0
O321 O 0.52628 0.39443 0.69122 0.0
O322 O 0.5038 0.39862 0.75176 0.0
O323 O 0.45332 0.3193 0.72514 0.0
O324 O 0.49129 0.3158 0.67246 0.0
C325 C 0.45866 0.30964 0.6895 0.0
O326 O 0.53314 0.31947 0.81211 0.0
O327 O 0.49565 0.3146 0.86504 0.0
C328 C 0.58145 0.31526 0.75169 0.0
C329 C 0.52827 0.30934 0.84774 0.0
Zn330 Zn 0.02664 0.8441 0.83546 0.0
Zn331 Zn 0.96022 0.84724 0.70037 0.0
Zn332 Zn -0.00706 0.84558 0.76795 0.0
C333 C 0.97117 0.91383 0.71953 0.0
C334 C 0.90492 0.81639 0.74884 0.0
O335 O 0.05126 0.81868 0.76162 0.0
O336 O 0.07821 0.82485 0.82022 0.0
C337 C 0.01643 0.91184 0.81891 0.0
O338 O 0.98191 0.89926 0.75162 0.0
O339 O 0.96314 0.89637 0.68977 0.0
O340 O 0.90757 0.82907 0.71506 0.0
O341 O 0.93444 0.81855 0.77288 0.0
O342 O 0.02616 0.893 0.84718 0.0
O343 O 0.00385 0.89867 0.78675 0.0
O344 O 0.95209 0.81936 0.81019 0.0
O345 O 0.98872 0.81455 0.86362 0.0
C346 C 0.95642 0.80906 0.8458 0.0
O347 O 0.03349 0.82084 0.72453 0.0
O348 O -0.00354 0.81737 0.67124 0.0
C349 C 0.08056 0.81438 0.78555 0.0
C350 C 0.02878 0.81133 0.68875 0.0
Zn351 Zn 0.52521 0.64101 0.20031 0.0
Zn352 Zn 0.45666 0.63965 0.33466 0.0
Zn353 Zn 0.49104 0.63984 0.26762 0.0
C354 C 0.52612 0.67497 0.34662 0.0
C355 C 0.4674 0.57238 0.31679 0.0
O356 O 0.4505 0.66502 0.22443 0.0
O357 O 0.48738 0.66944 0.17102 0.0
C358 C 0.5785 0.67195 0.24999 0.0
O359 O 0.53105 0.66538 0.3109 0.0
O360 O 0.49365 0.6689 0.36398 0.0
O361 O 0.45753 0.59059 0.34539 0.0
O362 O 0.4802 0.58622 0.28492 0.0
O363 O 0.57632 0.66132 0.21538 0.0
O364 O 0.54919 0.66738 0.27395 0.0
O365 O 0.50286 0.58661 0.25013 0.0
O366 O 0.52572 0.59197 0.18978 0.0
C367 C 0.51613 0.57331 0.21831 0.0
O368 O 0.43251 0.66659 0.26147 0.0
O369 O 0.40494 0.65868 0.31961 0.0
C370 C 0.45496 0.67483 0.18863 0.0
C371 C 0.40288 0.67007 0.28521 0.0
C372 C 0.03344 0.98768 0.36231 0.0
C373 C 0.0492 0.96916 0.33089 0.0
H374 H 0.00949 0.03453 0.38209 0.0
C375 C 0.04924 0.98402 0.29336 0.0
H376 H 0.03346 0.97749 0.39175 0.0
C377 C 0.0356 0.01721 0.28793 0.0
C378 C 0.0217 0.03602 0.3199 0.0
H379 H 0.06081 0.97037 0.26845 0.0
H380 H 0.03786 0.02868 0.25919 0.0
C381 C 0.01988 0.02059 0.35687 0.0
C382 C 0.44781 0.49546 0.86485 0.0
C383 C 0.43277 0.51457 0.8334 0.0
H384 H 0.47131 0.44824 0.88439 0.0
C385 C 0.43342 0.50036 0.79569 0.0
H386 H 0.44722 0.50515 0.89441 0.0
C387 C 0.4471 0.46725 0.79004 0.0
C388 C 0.4604 0.44788 0.82197 0.0
H389 H 0.4224 0.51446 0.77076 0.0
H390 H 0.44538 0.45629 0.76112 0.0
C391 C 0.46142 0.46263 0.85919 0.0
C392 C 0.53372 0.49786 0.67398 0.0
C393 C 0.5492 0.51673 0.70531 0.0
H394 H 0.51054 0.45053 0.65442 0.0
C395 C 0.54948 0.50199 0.74288 0.0
H396 H 0.53357 0.50798 0.64451 0.0
C397 C 0.53637 0.46858 0.74847 0.0
C398 C 0.52279 0.44944 0.71659 0.0
H399 H 0.56085 0.5159 0.76772 0.0
H400 H 0.53881 0.45723 0.77724 0.0
C401 C 0.52071 0.46473 0.67957 0.0
C402 C 0.93329 0.98437 0.23914 0.0
C403 C 0.93267 0.97062 0.2012 0.0
H404 H 0.94496 0.02815 0.27439 0.0
C405 C 0.94756 0.99026 0.17002 0.0
H406 H 0.92241 0.96985 0.26388 0.0
C407 C 0.96096 0.02316 0.17618 0.0
C408 C 0.95985 0.03746 0.21363 0.0
H409 H 0.947 0.98093 0.14031 0.0
H410 H 0.97074 0.03795 0.15118 0.0
C411 C 0.94674 0.01756 0.24529 0.0
C412 C 0.92169 -0.00253 0.73729 0.0
C413 C 0.92969 0.01416 0.70165 0.0
H414 H 0.92988 0.95234 0.77153 0.0
C415 C 0.95811 9e-05 0.67616 0.0
H416 H 0.90011 0.00754 0.75769 0.0
C417 C 0.97432 0.96833 0.68374 0.0
C418 C 0.96353 0.9504 0.71755 0.0
H419 H 0.9662 0.01276 0.64915 0.0
H420 H -0.00634 0.95696 0.66208 0.0
C421 C 0.93876 0.96588 0.7453 0.0
C422 C 0.54976 0.48407 0.24141 0.0
C423 C 0.54998 0.46963 0.20382 0.0
H424 H 0.53852 0.52844 0.27569 0.0
C425 C 0.535 0.48868 0.1723 0.0
H426 H 0.56076 0.47002 0.26638 0.0
C427 C 0.52179 0.52166 0.17778 0.0
C428 C 0.52318 0.5366 0.21488 0.0
H429 H 0.53528 0.47882 0.14281 0.0
H430 H 0.51187 0.53598 0.15253 0.0
C431 C 0.53651 0.51733 0.24687 0.0
C432 C 0.43504 0.48278 0.29389 0.0
C433 C 0.43533 0.46806 0.33148 0.0
H434 H 0.44536 0.52757 0.25953 0.0
C435 C 0.45048 0.48708 0.36285 0.0
H436 H 0.42393 0.46876 0.26902 0.0
C437 C 0.46319 0.52029 0.35727 0.0
C438 C 0.46115 0.53551 0.32021 0.0
H439 H 0.4506 0.47699 0.39234 0.0
H440 H 0.47316 0.53458 0.38243 0.0
C441 C 0.44781 0.51627 0.28832 0.0
C442 C 0.04772 0.00206 0.79678 0.0
C443 C 0.04902 0.01585 0.83468 0.0
H444 H 0.03616 0.95812 0.76188 0.0
C445 C 0.03513 -0.00391 0.8662 0.0
H446 H 0.05788 0.01667 0.77182 0.0
C447 C 0.02217 0.963 0.86038 0.0
C448 C 0.02273 0.94866 0.82293 0.0
H449 H 0.03621 0.00547 0.89588 0.0
H450 H 0.01324 0.94812 0.88561 0.0
C451 C 0.03467 0.96872 0.79096 0.0
C452 C 0.12231 0.17162 0.13263 0.0
C453 C 0.11253 0.19236 0.1005 0.0
H454 H 0.10325 0.15145 0.18797 0.0
C455 C 0.07989 0.21433 0.10372 0.0
H456 H 0.14753 0.15463 0.13101 0.0
C457 C 0.05445 0.21225 0.13603 0.0
C458 C 0.06159 0.18862 0.16597 0.0
H459 H 0.07151 0.2305 0.07946 0.0
H460 H 0.02711 0.2268 0.1358 0.0
C461 C 0.09719 0.17003 0.1654 0.0
C462 C 0.4088 0.27115 0.60286 0.0
C463 C 0.37529 0.29215 0.59944 0.0
H464 H 0.46178 0.25996 0.63531 0.0
C465 C 0.36449 0.31248 0.63142 0.0
H466 H 0.41797 0.25534 0.57869 0.0
C467 C 0.38926 0.31457 0.66435 0.0
C468 C 0.42553 0.29694 0.66522 0.0
H469 H 0.33863 0.32876 0.6296 0.0
H470 H 0.38227 0.3328 0.68688 0.0
C471 C 0.4339 0.27376 0.63532 0.0
C472 C 0.62234 0.31425 0.90565 0.0
C473 C 0.61208 0.29348 0.93768 0.0
H474 H 0.60402 0.33442 0.85016 0.0
C475 C 0.57928 0.27151 0.9342 0.0
H476 H 0.64768 0.33125 0.90749 0.0
C477 C 0.55418 0.27359 0.90168 0.0
C478 C 0.56185 0.29722 0.8718 0.0
H479 H 0.57053 0.25532 0.95838 0.0
H480 H 0.52673 0.25903 0.90168 0.0
C481 C 0.59758 0.31584 0.87268 0.0
C482 C 0.90164 0.2114 0.43303 0.0
C483 C 0.86719 0.19108 0.43399 0.0
H484 H 0.95666 0.22239 0.40371 0.0
C485 C 0.85748 0.17183 0.40075 0.0
H486 H 0.91009 0.22639 0.45815 0.0
C487 C 0.88402 0.16998 0.36912 0.0
C488 C 0.9209 0.18688 0.37071 0.0
H489 H 0.8309 0.15616 0.40057 0.0
H490 H 0.87762 0.15252 0.3456 0.0
C491 C 0.92839 0.2091 0.40181 0.0
C492 C 0.86141 0.81376 0.90226 0.0
C493 C 0.87115 0.79329 0.93463 0.0
H494 H 0.88062 0.83363 0.84684 0.0
C495 C 0.90394 0.77144 0.93178 0.0
H496 H 0.83609 0.83066 0.9036 0.0
C497 C 0.92953 0.77339 0.89956 0.0
C498 C 0.9224 0.79679 0.86937 0.0
H499 H 0.91229 0.75547 0.95623 0.0
H500 H 0.95696 0.75897 0.90007 0.0
C501 C 0.88668 0.81523 0.8696 0.0
C502 C 0.57694 0.71304 0.4329 0.0
C503 C 0.61003 0.69156 0.4363 0.0
H504 H 0.5241 0.72489 0.40056 0.0
C505 C 0.62037 0.67105 0.40433 0.0
H506 H 0.56814 0.72899 0.45707 0.0
C507 C 0.59551 0.66927 0.37146 0.0
C508 C 0.55958 0.6874 0.37064 0.0
H509 H 0.6459 0.6544 0.40614 0.0
H510 H 0.60208 0.6509 0.34896 0.0
C511 C 0.55173 0.71074 0.4005 0.0
C512 C 0.4028 0.71213 0.10251 0.0
C513 C 0.37001 0.69009 0.09957 0.0
H514 H 0.45573 0.72485 0.1343 0.0
C515 C 0.36021 0.66943 0.13183 0.0
H516 H 0.41119 0.72823 0.07814 0.0
C517 C 0.3854 0.66804 0.1645 0.0
C518 C 0.42108 0.68674 0.16484 0.0
H519 H 0.3349 0.65237 0.1304 0.0
H520 H 0.3793 0.64956 0.18722 0.0
C521 C 0.42832 0.71024 0.13473 0.0
C522 C 0.12311 0.81598 0.63101 0.0
C523 C 0.11287 0.79534 0.59909 0.0
H524 H 0.10468 0.83603 0.68637 0.0
C525 C 0.07986 0.77356 0.60257 0.0
H526 H 0.14857 0.83286 0.62915 0.0
C527 C 0.05462 0.77567 0.635 0.0
C528 C 0.06235 0.79912 0.66481 0.0
H529 H 0.07113 0.75749 0.57844 0.0
H530 H 0.02704 0.76128 0.63498 0.0
C531 C 0.09821 0.81757 0.66392 0.0
C532 C 0.18672 0.19211 0.28997 0.0
C533 C 0.18505 0.22754 0.29203 0.0
H534 H 0.15346 0.14603 0.28524 0.0
C535 C 0.14939 0.24388 0.28135 0.0
H536 H 0.21395 0.17883 0.29727 0.0
C537 C 0.11482 0.22494 0.27361 0.0
C538 C 0.11565 0.18957 0.27651 0.0
H539 H 0.14716 0.27115 0.28269 0.0
H540 H 0.08672 0.23798 0.26968 0.0
C541 C 0.15226 0.17331 0.28255 0.0
C542 C 0.29777 0.29106 0.78728 0.0
C543 C 0.2999 0.25569 0.79049 0.0
H544 H 0.3305 0.33738 0.78168 0.0
C545 C 0.33593 0.23955 0.78075 0.0
H546 H 0.27025 0.30417 0.79387 0.0
C547 C 0.37036 0.25871 0.77295 0.0
C548 C 0.36903 0.29411 0.7748 0.0
H549 H 0.33851 0.21234 0.78299 0.0
H550 H 0.39871 0.24589 0.76991 0.0
C551 C 0.33209 0.31009 0.77975 0.0
C552 C 0.64955 0.24138 0.75699 0.0
C553 C 0.68568 0.25708 0.74598 0.0
H554 H 0.58718 0.24834 0.76912 0.0
C555 C 0.68852 0.29247 0.74811 0.0
H556 H 0.64636 0.21416 0.75564 0.0
C557 C 0.6547 0.31186 0.7557 0.0
C558 C 0.61758 0.29624 0.76194 0.0
H559 H 0.71614 0.3053 0.74065 0.0
H560 H 0.65677 0.33911 0.75295 0.0
C561 C 0.61567 0.2609 0.765 0.0
C562 C 0.79621 0.19332 0.24903 0.0
C563 C 0.7984 0.22875 0.2465 0.0
H564 H 0.82887 0.14709 0.25364 0.0
C565 C 0.83447 0.24492 0.25645 0.0
H566 H 0.76866 0.18017 0.24229 0.0
C567 C 0.86887 0.22582 0.26381 0.0
C568 C 0.86746 0.19046 0.26126 0.0
H569 H 0.83711 0.27217 0.25474 0.0
H570 H 0.89723 0.23873 0.2671 0.0
C571 C 0.83051 0.17436 0.25606 0.0
C572 C 0.83532 0.74274 0.75423 0.0
C573 C 0.79963 0.75848 0.74247 0.0
H574 H 0.89766 0.74955 0.76699 0.0
C575 C 0.79746 0.79393 0.74344 0.0
H576 H 0.83793 0.71547 0.75378 0.0
C577 C 0.83151 0.81323 0.75083 0.0
C578 C 0.86822 0.79749 0.75804 0.0
H579 H 0.77016 0.80678 0.73537 0.0
H580 H 0.82995 0.84044 0.74742 0.0
C581 C 0.86948 0.76221 0.76205 0.0
C582 C 0.68569 0.6946 0.24734 0.0
C583 C 0.68318 0.72996 0.2443 0.0
H584 H 0.65346 0.64804 0.25305 0.0
C585 C 0.6471 0.74583 0.25441 0.0
H586 H 0.71327 0.6817 0.24047 0.0
C587 C 0.61292 0.72641 0.26245 0.0
C588 C 0.61458 0.69103 0.26045 0.0
H589 H 0.64423 0.77303 0.25231 0.0
H590 H 0.58449 0.73902 0.26581 0.0
C591 C 0.65162 0.67532 0.2551 0.0
C592 C 0.29589 0.69301 0.28892 0.0
C593 C 0.29876 0.72842 0.29048 0.0
H594 H 0.32756 0.6463 0.28463 0.0
C595 C 0.33484 0.74401 0.27918 0.0
H596 H 0.26829 0.68029 0.29668 0.0
C597 C 0.3687 0.72437 0.2714 0.0
C598 C 0.36675 0.68906 0.27494 0.0
H599 H 0.33798 0.77124 0.28011 0.0
H600 H 0.39719 0.73687 0.26702 0.0
C601 C 0.32965 0.67352 0.28149 0.0
C602 C 0.14879 0.74067 0.7796 0.0
C603 C 0.18489 0.75634 0.79046 0.0
H604 H 0.08634 0.74764 0.76789 0.0
C605 C 0.18764 0.79176 0.78851 0.0
H606 H 0.14574 0.71343 0.78083 0.0
C607 C 0.15375 0.81117 0.78118 0.0
C608 C 0.11668 0.79553 0.77506 0.0
H609 H 0.21524 0.80455 0.79594 0.0
H610 H 0.15575 0.83839 0.78406 0.0
C611 C 0.11482 0.76022 0.7719 0.0
loop_
_geom_bond_atom_site_label_1
_geom_bond_atom_site_label_2
_geom_bond_distance
_geom_bond_site_symmetry_2
_ccdc_geom_bond_type
C0 C1 1.384 . S
C0 H13 0.947 . S
C0 C35 1.382 . S
C1 C0 1.384 . S
C1 C2 1.378 . S
C2 C1 1.378 . S
C2 C3 1.378 . S
C2 H14 0.952 . S
C3 C2 1.378 . S
C3 H15 0.950 . S
C3 C34 1.383 . S
H4 C23 0.947 . S
H5 C24 0.946 . S
H6 C26 0.953 . S
H7 C27 0.945 . S
H8 C29 0.952 . S
H9 C30 0.949 . S
H10 C32 0.950 . S
H11 C33 0.948 . S
H12 C35 0.951 . S
H13 C0 0.947 . S
H14 C2 0.952 . S
H15 C3 0.950 . S
N16 C19 1.382 . S
N16 C21 1.363 . S
N17 C19 1.371 . S
N17 C20 1.372 . S
N18 C20 1.361 . S
N18 C21 1.377 . S
C19 N16 1.382 . S
C19 N17 1.371 . S
C19 C22 1.480 . S
C20 N17 1.372 . S
C20 N18 1.361 . S
C20 C28 1.457 . S
C21 N16 1.363 . S
C21 N18 1.377 . S
C21 C34 1.479 . S
C22 C19 1.480 . S
C22 C23 1.383 . S
C22 C27 1.385 . S
C23 H4 0.947 . S
C23 C22 1.383 . S
C23 C24 1.388 . S
C24 H5 0.946 . S
C24 C23 1.388 . S
C24 C25 1.384 . S
C25 C24 1.384 . S
C25 C26 1.377 . S
C26 H6 0.953 . S
C26 C25 1.377 . S
C26 C27 1.369 . S
C27 H7 0.945 . S
C27 C22 1.385 . S
C27 C26 1.369 . S
C28 C20 1.457 . S
C28 C29 1.372 . S
C28 C33 1.364 . S
C29 H8 0.952 . S
C29 C28 1.372 . S
C29 C30 1.389 . S
C30 H9 0.949 . S
C30 C29 1.389 . S
C30 C31 1.387 . S
C31 C30 1.387 . S
C31 C32 1.372 . S
C32 H10 0.950 . S
C32 C31 1.372 . S
C32 C33 1.379 . S
C33 H11 0.948 . S
C33 C28 1.364 . S
C33 C32 1.379 . S
C34 C3 1.383 . S
C34 C21 1.479 . S
C34 C35 1.398 . S
C35 C0 1.382 . S
C35 H12 0.951 . S
C35 C34 1.398 . S
C36 C37 1.384 . S
C36 H49 0.947 . S
C36 C71 1.382 1_554 S
C37 C36 1.384 . S
C37 C38 1.378 . S
C38 C37 1.378 . S
C38 C39 1.378 1_554 S
C38 H50 0.952 . S
C39 C38 1.378 1_556 S
C39 H51 0.950 . S
C39 C70 1.383 . S
H40 C59 0.947 . S
H41 C60 0.946 . S
H42 C62 0.953 . S
H43 C63 0.945 . S
H44 C65 0.952 . S
H45 C66 0.949 . S
H46 C68 0.950 . S
H47 C69 0.948 . S
H48 C71 0.951 . S
H49 C36 0.947 . S
H50 C38 0.952 . S
H51 C39 0.950 . S
N52 C55 1.382 . S
N52 C57 1.363 . S
N53 C55 1.371 . S
N53 C56 1.372 . S
N54 C56 1.361 . S
N54 C57 1.377 . S
C55 N52 1.382 . S
C55 N53 1.371 . S
C55 C58 1.480 . S
C56 N53 1.372 . S
C56 N54 1.361 . S
C56 C64 1.457 . S
C57 N52 1.363 . S
C57 N54 1.377 . S
C57 C70 1.479 . S
C58 C55 1.480 . S
C58 C59 1.383 . S
C58 C63 1.385 . S
C59 H40 0.947 . S
C59 C58 1.383 . S
C59 C60 1.388 . S
C60 H41 0.946 . S
C60 C59 1.388 . S
C60 C61 1.384 . S
C61 C60 1.384 . S
C61 C62 1.377 . S
C62 H42 0.953 . S
C62 C61 1.377 . S
C62 C63 1.369 . S
C63 H43 0.945 . S
C63 C58 1.385 . S
C63 C62 1.369 . S
C64 C56 1.457 . S
C64 C65 1.372 . S
C64 C69 1.364 . S
C65 H44 0.952 . S
C65 C64 1.372 . S
C65 C66 1.389 . S
C66 H45 0.949 . S
C66 C65 1.389 . S
C66 C67 1.387 . S
C67 C66 1.387 . S
C67 C68 1.372 . S
C68 H46 0.950 . S
C68 C67 1.372 . S
C68 C69 1.379 . S
C69 H47 0.948 . S
C69 C64 1.364 . S
C69 C68 1.379 . S
C70 C39 1.383 . S
C70 C57 1.479 . S
C70 C71 1.398 . S
C71 C36 1.382 1_556 S
C71 H48 0.951 . S
C71 C70 1.398 . S
C72 C73 1.384 . S
C72 H85 0.947 . S
C72 C107 1.382 . S
C73 C72 1.384 . S
C73 C74 1.378 . S
C74 C73 1.378 . S
C74 C75 1.378 . S
C74 H86 0.952 . S
C75 C74 1.378 . S
C75 H87 0.950 . S
C75 C106 1.383 . S
H76 C95 0.947 . S
H77 C96 0.946 . S
H78 C98 0.953 . S
H79 C99 0.945 . S
H80 C101 0.952 . S
H81 C102 0.949 . S
H82 C104 0.950 . S
H83 C105 0.948 . S
H84 C107 0.951 . S
H85 C72 0.947 . S
H86 C74 0.952 . S
H87 C75 0.950 . S
N88 C91 1.382 . S
N88 C93 1.363 . S
N89 C91 1.371 . S
N89 C92 1.372 . S
N90 C92 1.361 . S
N90 C93 1.377 . S
C91 N88 1.382 . S
C91 N89 1.371 . S
C91 C94 1.480 . S
C92 N89 1.372 . S
C92 N90 1.361 . S
C92 C100 1.457 . S
C93 N88 1.363 . S
C93 N90 1.377 . S
C93 C106 1.479 . S
C94 C91 1.480 . S
C94 C95 1.383 . S
C94 C99 1.385 . S
C95 H76 0.947 . S
C95 C94 1.383 . S
C95 C96 1.388 . S
C96 H77 0.946 . S
C96 C95 1.388 . S
C96 C97 1.384 . S
C97 C96 1.384 . S
C97 C98 1.377 . S
C98 H78 0.953 . S
C98 C97 1.377 . S
C98 C99 1.369 . S
C99 H79 0.945 . S
C99 C94 1.385 . S
C99 C98 1.369 . S
C100 C92 1.457 . S
C100 C101 1.372 . S
C100 C105 1.364 . S
C101 H80 0.952 . S
C101 C100 1.372 . S
C101 C102 1.389 . S
C102 H81 0.949 . S
C102 C101 1.389 . S
C102 C103 1.387 . S
C103 C102 1.387 . S
C103 C104 1.372 . S
C104 H82 0.950 . S
C104 C103 1.372 . S
C104 C105 1.379 . S
C105 H83 0.948 . S
C105 C100 1.364 . S
C105 C104 1.379 . S
C106 C75 1.383 . S
C106 C93 1.479 . S
C106 C107 1.398 . S
C107 C72 1.382 . S
C107 H84 0.951 . S
C107 C106 1.398 . S
C108 C109 1.384 . S
C108 H121 0.947 . S
C108 C143 1.382 1_556 S
C109 C108 1.384 . S
C109 C110 1.378 . S
C110 C109 1.378 . S
C110 C111 1.378 1_556 S
C110 H122 0.952 . S
C111 C110 1.378 1_554 S
C111 H123 0.950 . S
C111 C142 1.383 . S
H112 C131 0.947 . S
H113 C132 0.946 . S
H114 C134 0.953 . S
H115 C135 0.945 . S
H116 C137 0.952 . S
H117 C138 0.949 . S
H118 C140 0.950 . S
H119 C141 0.948 . S
H120 C143 0.951 . S
H121 C108 0.947 . S
H122 C110 0.952 . S
H123 C111 0.950 . S
N124 C127 1.382 . S
N124 C129 1.363 . S
N125 C127 1.371 . S
N125 C128 1.372 . S
N126 C128 1.361 . S
N126 C129 1.377 . S
C127 N124 1.382 . S
C127 N125 1.371 . S
C127 C130 1.480 . S
C128 N125 1.372 . S
C128 N126 1.361 . S
C128 C136 1.457 . S
C129 N124 1.363 . S
C129 N126 1.377 . S
C129 C142 1.479 . S
C130 C127 1.480 . S
C130 C131 1.383 . S
C130 C135 1.385 . S
C131 H112 0.947 . S
C131 C130 1.383 . S
C131 C132 1.388 . S
C132 H113 0.946 . S
C132 C131 1.388 . S
C132 C133 1.384 . S
C133 C132 1.384 . S
C133 C134 1.377 . S
C134 H114 0.953 . S
C134 C133 1.377 . S
C134 C135 1.369 . S
C135 H115 0.945 . S
C135 C130 1.385 . S
C135 C134 1.369 . S
C136 C128 1.457 . S
C136 C137 1.372 . S
C136 C141 1.364 . S
C137 H116 0.952 . S
C137 C136 1.372 . S
C137 C138 1.389 . S
C138 H117 0.949 . S
C138 C137 1.389 . S
C138 C139 1.387 . S
C139 C138 1.387 . S
C139 C140 1.372 . S
C140 H118 0.950 . S
C140 C139 1.372 . S
C140 C141 1.379 . S
C141 H119 0.948 . S
C141 C136 1.364 . S
C141 C140 1.379 . S
C142 C111 1.383 . S
C142 C129 1.479 . S
C142 C143 1.398 . S
C143 C108 1.382 1_554 S
C143 H120 0.951 . S
C143 C142 1.398 . S
C144 C145 1.384 . S
C144 H157 0.947 . S
C144 C179 1.382 . S
C145 C144 1.384 . S
C145 C146 1.378 . S
C146 C145 1.378 . S
C146 C147 1.378 . S
C146 H158 0.952 . S
C147 C146 1.378 . S
C147 H159 0.950 . S
C147 C178 1.383 . S
H148 C167 0.947 . S
H149 C168 0.946 . S
H150 C170 0.953 . S
H151 C171 0.945 . S
H152 C173 0.952 . S
H153 C174 0.949 . S
H154 C176 0.950 . S
H155 C177 0.948 . S
H156 C179 0.951 . S
H157 C144 0.947 . S
H158 C146 0.952 . S
H159 C147 0.950 . S
N160 C163 1.382 . S
N160 C165 1.363 . S
N161 C163 1.371 . S
N161 C164 1.372 . S
N162 C164 1.361 . S
N162 C165 1.377 . S
C163 N160 1.382 . S
C163 N161 1.371 . S
C163 C166 1.480 . S
C164 N161 1.372 . S
C164 N162 1.361 . S
C164 C172 1.457 . S
C165 N160 1.363 . S
C165 N162 1.377 . S
C165 C178 1.479 . S
C166 C163 1.480 . S
C166 C167 1.383 . S
C166 C171 1.385 . S
C167 H148 0.947 . S
C167 C166 1.383 . S
C167 C168 1.388 . S
C168 H149 0.946 . S
C168 C167 1.388 . S
C168 C169 1.384 . S
C169 C168 1.384 . S
C169 C170 1.377 . S
C170 H150 0.953 . S
C170 C169 1.377 . S
C170 C171 1.369 . S
C171 H151 0.945 . S
C171 C166 1.385 . S
C171 C170 1.369 . S
C172 C164 1.457 . S
C172 C173 1.372 . S
C172 C177 1.364 . S
C173 H152 0.952 . S
C173 C172 1.372 . S
C173 C174 1.389 . S
C174 H153 0.949 . S
C174 C173 1.389 . S
C174 C175 1.387 . S
C175 C174 1.387 . S
C175 C176 1.372 . S
C176 H154 0.950 . S
C176 C175 1.372 . S
C176 C177 1.379 . S
C177 H155 0.948 . S
C177 C172 1.364 . S
C177 C176 1.379 . S
C178 C147 1.383 . S
C178 C165 1.479 . S
C178 C179 1.398 . S
C179 C144 1.382 . S
C179 H156 0.951 . S
C179 C178 1.398 . S
C180 C181 1.384 . S
C180 H193 0.947 . S
C180 C215 1.382 1_556 S
C181 C180 1.384 . S
C181 C182 1.378 . S
C182 C181 1.378 . S
C182 C183 1.378 1_556 S
C182 H194 0.952 . S
C183 C182 1.378 1_554 S
C183 H195 0.950 . S
C183 C214 1.383 . S
H184 C203 0.947 . S
H185 C204 0.946 . S
H186 C206 0.953 . S
H187 C207 0.945 . S
H188 C209 0.952 . S
H189 C210 0.949 . S
H190 C212 0.950 . S
H191 C213 0.948 . S
H192 C215 0.951 . S
H193 C180 0.947 . S
H194 C182 0.952 . S
H195 C183 0.950 . S
N196 C199 1.382 . S
N196 C201 1.363 . S
N197 C199 1.371 . S
N197 C200 1.372 . S
N198 C200 1.361 . S
N198 C201 1.377 . S
C199 N196 1.382 . S
C199 N197 1.371 . S
C199 C202 1.480 . S
C200 N197 1.372 . S
C200 N198 1.361 . S
C200 C208 1.457 . S
C201 N196 1.363 . S
C201 N198 1.377 . S
C201 C214 1.479 . S
C202 C199 1.480 . S
C202 C203 1.383 . S
C202 C207 1.385 . S
C203 H184 0.947 . S
C203 C202 1.383 . S
C203 C204 1.388 . S
C204 H185 0.946 . S
C204 C203 1.388 . S
C204 C205 1.384 . S
C205 C204 1.384 . S
C205 C206 1.377 . S
C206 H186 0.953 . S
C206 C205 1.377 . S
C206 C207 1.369 . S
C207 H187 0.945 . S
C207 C202 1.385 . S
C207 C206 1.369 . S
C208 C200 1.457 . S
C208 C209 1.372 . S
C208 C213 1.364 . S
C209 H188 0.952 . S
C209 C208 1.372 . S
C209 C210 1.389 . S
C210 H189 0.949 . S
C210 C209 1.389 . S
C210 C211 1.387 . S
C211 C210 1.387 . S
C211 C212 1.372 . S
C212 H190 0.950 . S
C212 C211 1.372 . S
C212 C213 1.379 . S
C213 H191 0.948 . S
C213 C208 1.364 . S
C213 C212 1.379 . S
C214 C183 1.383 . S
C214 C201 1.479 . S
C214 C215 1.398 . S
C215 C180 1.382 1_554 S
C215 H192 0.951 . S
C215 C214 1.398 . S
C216 C217 1.384 . S
C216 H229 0.947 . S
C216 C251 1.382 . S
C217 C216 1.384 . S
C217 C218 1.378 . S
C218 C217 1.378 . S
C218 C219 1.378 . S
C218 H230 0.952 . S
C219 C218 1.378 . S
C219 H231 0.950 . S
C219 C250 1.383 . S
H220 C239 0.947 . S
H221 C240 0.946 . S
H222 C242 0.953 . S
H223 C243 0.945 . S
H224 C245 0.952 . S
H225 C246 0.949 . S
H226 C248 0.950 . S
H227 C249 0.948 . S
H228 C251 0.951 . S
H229 C216 0.947 . S
H230 C218 0.952 . S
H231 C219 0.950 . S
N232 C235 1.382 . S
N232 C237 1.363 . S
N233 C235 1.371 . S
N233 C236 1.372 . S
N234 C236 1.361 . S
N234 C237 1.377 . S
C235 N232 1.382 . S
C235 N233 1.371 . S
C235 C238 1.480 . S
C236 N233 1.372 . S
C236 N234 1.361 . S
C236 C244 1.457 . S
C237 N232 1.363 . S
C237 N234 1.377 . S
C237 C250 1.479 . S
C238 C235 1.480 . S
C238 C239 1.383 . S
C238 C243 1.385 . S
C239 H220 0.947 . S
C239 C238 1.383 . S
C239 C240 1.388 . S
C240 H221 0.946 . S
C240 C239 1.388 . S
C240 C241 1.384 . S
C241 C240 1.384 . S
C241 C242 1.377 . S
C242 H222 0.953 . S
C242 C241 1.377 . S
C242 C243 1.369 . S
C243 H223 0.945 . S
C243 C238 1.385 . S
C243 C242 1.369 . S
C244 C236 1.457 . S
C244 C245 1.372 . S
C244 C249 1.364 . S
C245 H224 0.952 . S
C245 C244 1.372 . S
C245 C246 1.389 . S
C246 H225 0.949 . S
C246 C245 1.389 . S
C246 C247 1.387 . S
C247 C246 1.387 . S
C247 C248 1.372 . S
C248 H226 0.950 . S
C248 C247 1.372 . S
C248 C249 1.379 . S
C249 H227 0.948 . S
C249 C244 1.364 . S
C249 C248 1.379 . S
C250 C219 1.383 . S
C250 C237 1.479 . S
C250 C251 1.398 . S
C251 C216 1.382 . S
C251 H228 0.951 . S
C251 C250 1.398 . S
C252 C253 1.384 . S
C252 H265 0.947 . S
C252 C287 1.382 1_554 S
C253 C252 1.384 . S
C253 C254 1.378 . S
C254 C253 1.378 . S
C254 C255 1.378 1_554 S
C254 H266 0.952 . S
C255 C254 1.378 1_556 S
C255 H267 0.950 . S
C255 C286 1.383 . S
H256 C275 0.947 . S
H257 C276 0.946 . S
H258 C278 0.953 . S
H259 C279 0.945 . S
H260 C281 0.952 . S
H261 C282 0.949 . S
H262 C284 0.950 . S
H263 C285 0.948 . S
H264 C287 0.951 . S
H265 C252 0.947 . S
H266 C254 0.952 . S
H267 C255 0.950 . S
N268 C271 1.382 . S
N268 C273 1.363 . S
N269 C271 1.371 . S
N269 C272 1.372 . S
N270 C272 1.361 . S
N270 C273 1.377 . S
C271 N268 1.382 . S
C271 N269 1.371 . S
C271 C274 1.480 . S
C272 N269 1.372 . S
C272 N270 1.361 . S
C272 C280 1.457 . S
C273 N268 1.363 . S
C273 N270 1.377 . S
C273 C286 1.479 . S
C274 C271 1.480 . S
C274 C275 1.383 . S
C274 C279 1.385 . S
C275 H256 0.947 . S
C275 C274 1.383 . S
C275 C276 1.388 . S
C276 H257 0.946 . S
C276 C275 1.388 . S
C276 C277 1.384 . S
C277 C276 1.384 . S
C277 C278 1.377 . S
C278 H258 0.953 . S
C278 C277 1.377 . S
C278 C279 1.369 . S
C279 H259 0.945 . S
C279 C274 1.385 . S
C279 C278 1.369 . S
C280 C272 1.457 . S
C280 C281 1.372 . S
C280 C285 1.364 . S
C281 H260 0.952 . S
C281 C280 1.372 . S
C281 C282 1.389 . S
C282 H261 0.949 . S
C282 C281 1.389 . S
C282 C283 1.387 . S
C283 C282 1.387 . S
C283 C284 1.372 . S
C284 H262 0.950 . S
C284 C283 1.372 . S
C284 C285 1.379 . S
C285 H263 0.948 . S
C285 C280 1.364 . S
C285 C284 1.379 . S
C286 C255 1.383 . S
C286 C273 1.479 . S
C286 C287 1.398 . S
C287 C252 1.382 1_556 S
C287 H264 0.951 . S
C287 C286 1.398 . S
Zn288 O294 1.920 1_455 S
Zn288 O300 1.898 . S
Zn288 O303 1.905 . S
Zn289 O297 1.905 1_655 S
Zn289 O298 1.898 . S
Zn289 O306 1.920 . S
Zn290 O293 2.080 1_455 S
Zn290 O296 2.114 . S
Zn290 O299 2.120 1_455 S
Zn290 O301 2.120 . S
Zn290 O302 2.114 . S
Zn290 O305 2.080 1_455 S
C291 O296 1.166 . S
C291 O297 1.182 . S
C292 O298 1.167 . S
C292 O299 1.299 . S
O293 Zn290 2.080 1_655 S
O293 C307 1.305 . S
O294 Zn288 1.920 1_655 S
O294 C307 1.234 . S
C295 O300 1.167 . S
C295 O301 1.299 . S
O296 Zn290 2.114 . S
O296 C291 1.166 . S
O297 Zn289 1.905 1_455 S
O297 C291 1.182 . S
O298 Zn289 1.898 . S
O298 C292 1.167 . S
O299 Zn290 2.120 1_655 S
O299 C292 1.299 . S
O300 Zn288 1.898 . S
O300 C295 1.167 . S
O301 Zn290 2.120 . S
O301 C295 1.299 . S
O302 Zn290 2.114 . S
O302 C304 1.166 . S
O303 Zn288 1.905 . S
O303 C304 1.182 . S
C304 O302 1.166 . S
C304 O303 1.182 . S
O305 Zn290 2.080 1_655 S
O305 C308 1.305 . S
O306 Zn289 1.920 . S
O306 C308 1.234 . S
C307 O293 1.305 . S
C307 O294 1.234 . S
C308 O305 1.305 . S
C308 O306 1.234 . S
Zn309 O315 1.920 . S
Zn309 O321 1.898 . S
Zn309 O324 1.905 . S
Zn310 O318 1.905 . S
Zn310 O319 1.898 . S
Zn310 O327 1.920 . S
Zn311 O314 2.080 . S
Zn311 O317 2.114 . S
Zn311 O320 2.120 . S
Zn311 O322 2.120 . S
Zn311 O323 2.114 . S
Zn311 O326 2.080 . S
C312 O317 1.166 . S
C312 O318 1.182 . S
C313 O319 1.167 . S
C313 O320 1.299 . S
O314 Zn311 2.080 . S
O314 C328 1.305 . S
O315 Zn309 1.920 . S
O315 C328 1.234 . S
C316 O321 1.167 . S
C316 O322 1.299 . S
O317 Zn311 2.114 . S
O317 C312 1.166 . S
O318 Zn310 1.905 . S
O318 C312 1.182 . S
O319 Zn310 1.898 . S
O319 C313 1.167 . S
O320 Zn311 2.120 . S
O320 C313 1.299 . S
O321 Zn309 1.898 . S
O321 C316 1.167 . S
O322 Zn311 2.120 . S
O322 C316 1.299 . S
O323 Zn311 2.114 . S
O323 C325 1.166 . S
O324 Zn309 1.905 . S
O324 C325 1.182 . S
C325 O323 1.166 . S
C325 O324 1.182 . S
O326 Zn311 2.080 . S
O326 C329 1.305 . S
O327 Zn310 1.920 . S
O327 C329 1.234 . S
C328 O314 1.305 . S
C328 O315 1.234 . S
C329 O326 1.305 . S
C329 O327 1.234 . S
Zn330 O336 1.920 . S
Zn330 O342 1.898 . S
Zn330 O345 1.905 1_455 S
Zn331 O339 1.905 . S
Zn331 O340 1.898 . S
Zn331 O348 1.920 1_655 S
Zn332 O335 2.080 . S
Zn332 O338 2.114 1_455 S
Zn332 O341 2.120 1_455 S
Zn332 O343 2.120 . S
Zn332 O344 2.114 1_455 S
Zn332 O347 2.080 . S
C333 O338 1.166 . S
C333 O339 1.182 . S
C334 O340 1.167 . S
C334 O341 1.299 . S
O335 Zn332 2.080 . S
O335 C349 1.305 . S
O336 Zn330 1.920 . S
O336 C349 1.234 . S
C337 O342 1.167 . S
C337 O343 1.299 . S
O338 Zn332 2.114 1_655 S
O338 C333 1.166 . S
O339 Zn331 1.905 . S
O339 C333 1.182 . S
O340 Zn331 1.898 . S
O340 C334 1.167 . S
O341 Zn332 2.120 1_655 S
O341 C334 1.299 . S
O342 Zn330 1.898 . S
O342 C337 1.167 . S
O343 Zn332 2.120 . S
O343 C337 1.299 . S
O344 Zn332 2.114 1_655 S
O344 C346 1.166 . S
O345 Zn330 1.905 1_655 S
O345 C346 1.182 . S
C346 O344 1.166 . S
C346 O345 1.182 . S
O347 Zn332 2.080 . S
O347 C350 1.305 . S
O348 Zn331 1.920 1_455 S
O348 C350 1.234 . S
C349 O335 1.305 . S
C349 O336 1.234 . S
C350 O347 1.305 . S
C350 O348 1.234 . S
Zn351 O357 1.920 . S
Zn351 O363 1.898 . S
Zn351 O366 1.905 . S
Zn352 O360 1.905 . S
Zn352 O361 1.898 . S
Zn352 O369 1.920 . S
Zn353 O356 2.080 . S
Zn353 O359 2.114 . S
Zn353 O362 2.120 . S
Zn353 O364 2.120 . S
Zn353 O365 2.114 . S
Zn353 O368 2.080 . S
C354 O359 1.166 . S
C354 O360 1.182 . S
C355 O361 1.167 . S
C355 O362 1.299 . S
O356 Zn353 2.080 . S
O356 C370 1.305 . S
O357 Zn351 1.920 . S
O357 C370 1.234 . S
C358 O363 1.167 . S
C358 O364 1.299 . S
O359 Zn353 2.114 . S
O359 C354 1.166 . S
O360 Zn352 1.905 . S
O360 C354 1.182 . S
O361 Zn352 1.898 . S
O361 C355 1.167 . S
O362 Zn353 2.120 . S
O362 C355 1.299 . S
O363 Zn351 1.898 . S
O363 C358 1.167 . S
O364 Zn353 2.120 . S
O364 C358 1.299 . S
O365 Zn353 2.114 . S
O365 C367 1.166 . S
O366 Zn351 1.905 . S
O366 C367 1.182 . S
C367 O365 1.166 . S
C367 O366 1.182 . S
O368 Zn353 2.080 . S
O368 C371 1.305 . S
O369 Zn352 1.920 . S
O369 C371 1.234 . S
C370 O356 1.305 . S
C370 O357 1.234 . S
C371 O368 1.305 . S
C371 O369 1.234 . S
C372 C373 1.387 1_545 S
C372 H376 0.950 1_545 S
C372 C381 1.390 . S
C373 C372 1.387 1_565 S
C373 C375 1.387 1_565 S
H374 C381 0.950 . S
C375 C373 1.387 1_545 S
C375 C377 1.390 . S
C375 H379 0.950 1_545 S
H376 C372 0.950 1_565 S
C377 C375 1.390 . S
C377 C378 1.387 . S
C377 H380 0.950 . S
C378 C377 1.387 . S
C378 C381 1.387 . S
H379 C375 0.950 1_565 S
H380 C377 0.950 . S
C381 C372 1.390 . S
C381 H374 0.950 . S
C381 C378 1.387 . S
C382 C383 1.387 . S
C382 H386 0.950 . S
C382 C391 1.390 . S
C383 C382 1.387 . S
C383 C385 1.387 . S
H384 C391 0.950 . S
C385 C383 1.387 . S
C385 C387 1.390 . S
C385 H389 0.950 . S
H386 C382 0.950 . S
C387 C385 1.390 . S
C387 C388 1.387 . S
C387 H390 0.950 . S
C388 C387 1.387 . S
C388 C391 1.387 . S
H389 C385 0.950 . S
H390 C387 0.950 . S
C391 C382 1.390 . S
C391 H384 0.950 . S
C391 C388 1.387 . S
C392 C393 1.387 . S
C392 H396 0.950 . S
C392 C401 1.390 . S
C393 C392 1.387 . S
C393 C395 1.387 . S
H394 C401 0.950 . S
C395 C393 1.387 . S
C395 C397 1.390 . S
C395 H399 0.950 . S
H396 C392 0.950 . S
C397 C395 1.390 . S
C397 C398 1.387 . S
C397 H400 0.950 . S
C398 C397 1.387 . S
C398 C401 1.387 . S
H399 C395 0.950 . S
H400 C397 0.950 . S
C401 C392 1.390 . S
C401 H394 0.950 . S
C401 C398 1.387 . S
C402 C403 1.387 1_545 S
C402 H406 0.950 1_545 S
C402 C411 1.390 . S
C403 C402 1.387 1_565 S
C403 C405 1.387 1_565 S
H404 C411 0.950 . S
C405 C403 1.387 1_545 S
C405 C407 1.390 . S
C405 H409 0.950 1_545 S
H406 C402 0.950 1_565 S
C407 C405 1.390 . S
C407 C408 1.387 . S
C407 H410 0.950 . S
C408 C407 1.387 . S
C408 C411 1.387 . S
H409 C405 0.950 1_565 S
H410 C407 0.950 . S
C411 C402 1.390 . S
C411 H404 0.950 . S
C411 C408 1.387 . S
C412 C413 1.387 1_565 S
C412 H416 0.950 . S
C412 C421 1.390 . S
C413 C412 1.387 1_545 S
C413 C415 1.387 . S
H414 C421 0.950 . S
C415 C413 1.387 . S
C415 C417 1.390 1_545 S
C415 H419 0.950 . S
H416 C412 0.950 . S
C417 C415 1.390 1_565 S
C417 C418 1.387 . S
C417 H420 0.950 . S
C418 C417 1.387 . S
C418 C421 1.387 . S
H419 C415 0.950 . S
H420 C417 0.950 . S
C421 C412 1.390 . S
C421 H414 0.950 . S
C421 C418 1.387 . S
C422 C423 1.387 . S
C422 H426 0.950 . S
C422 C431 1.390 . S
C423 C422 1.387 . S
C423 C425 1.387 . S
H424 C431 0.950 . S
C425 C423 1.387 . S
C425 C427 1.390 . S
C425 H429 0.950 . S
H426 C422 0.950 . S
C427 C425 1.390 . S
C427 C428 1.387 . S
C427 H430 0.950 . S
C428 C427 1.387 . S
C428 C431 1.387 . S
H429 C425 0.950 . S
H430 C427 0.950 . S
C431 C422 1.390 . S
C431 H424 0.950 . S
C431 C428 1.387 . S
C432 C433 1.387 . S
C432 H436 0.950 . S
C432 C441 1.390 . S
C433 C432 1.387 . S
C433 C435 1.387 . S
H434 C441 0.950 . S
C435 C433 1.387 . S
C435 C437 1.390 . S
C435 H439 0.950 . S
H436 C432 0.950 . S
C437 C435 1.390 . S
C437 C438 1.387 . S
C437 H440 0.950 . S
C438 C437 1.387 . S
C438 C441 1.387 . S
H439 C435 0.950 . S
H440 C437 0.950 . S
C441 C432 1.390 . S
C441 H434 0.950 . S
C441 C438 1.387 . S
C442 C443 1.387 1_565 S
C442 H446 0.950 1_565 S
C442 C451 1.390 . S
C443 C442 1.387 1_545 S
C443 C445 1.387 1_545 S
H444 C451 0.950 . S
C445 C443 1.387 1_565 S
C445 C447 1.390 . S
C445 H449 0.950 1_565 S
H446 C442 0.950 1_545 S
C447 C445 1.390 . S
C447 C448 1.387 . S
C447 H450 0.950 . S
C448 C447 1.387 . S
C448 C451 1.387 . S
H449 C445 0.950 1_545 S
H450 C447 0.950 . S
C451 C442 1.390 . S
C451 H444 0.950 . S
C451 C448 1.387 . S
C452 C453 1.387 . S
C452 H456 0.950 . S
C452 C461 1.390 . S
C453 C452 1.387 . S
C453 C455 1.387 . S
H454 C461 0.950 . S
C455 C453 1.387 . S
C455 C457 1.390 . S
C455 H459 0.950 . S
H456 C452 0.950 . S
C457 C455 1.390 . S
C457 C458 1.387 . S
C457 H460 0.950 . S
C458 C457 1.387 . S
C458 C461 1.387 . S
H459 C455 0.950 . S
H460 C457 0.950 . S
C461 C452 1.390 . S
C461 H454 0.950 . S
C461 C458 1.387 . S
C462 C463 1.387 . S
C462 H466 0.950 . S
C462 C471 1.390 . S
C463 C462 1.387 . S
C463 C465 1.387 . S
H464 C471 0.950 . S
C465 C463 1.387 . S
C465 C467 1.390 . S
C465 H469 0.950 . S
H466 C462 0.950 . S
C467 C465 1.390 . S
C467 C468 1.387 . S
C467 H470 0.950 . S
C468 C467 1.387 . S
C468 C471 1.387 . S
H469 C465 0.950 . S
H470 C467 0.950 . S
C471 C462 1.390 . S
C471 H464 0.950 . S
C471 C468 1.387 . S
C472 C473 1.387 . S
C472 H476 0.950 . S
C472 C481 1.390 . S
C473 C472 1.387 . S
C473 C475 1.387 . S
H474 C481 0.950 . S
C475 C473 1.387 . S
C475 C477 1.390 . S
C475 H479 0.950 . S
H476 C472 0.950 . S
C477 C475 1.390 . S
C477 C478 1.387 . S
C477 H480 0.950 . S
C478 C477 1.387 . S
C478 C481 1.387 . S
H479 C475 0.950 . S
H480 C477 0.950 . S
C481 C472 1.390 . S
C481 H474 0.950 . S
C481 C478 1.387 . S
C482 C483 1.387 . S
C482 H486 0.950 . S
C482 C491 1.390 . S
C483 C482 1.387 . S
C483 C485 1.387 . S
H484 C491 0.950 . S
C485 C483 1.387 . S
C485 C487 1.390 . S
C485 H489 0.950 . S
H486 C482 0.950 . S
C487 C485 1.390 . S
C487 C488 1.387 . S
C487 H490 0.950 . S
C488 C487 1.387 . S
C488 C491 1.387 . S
H489 C485 0.950 . S
H490 C487 0.950 . S
C491 C482 1.390 . S
C491 H484 0.950 . S
C491 C488 1.387 . S
C492 C493 1.387 . S
C492 H496 0.950 . S
C492 C501 1.390 . S
C493 C492 1.387 . S
C493 C495 1.387 . S
H494 C501 0.950 . S
C495 C493 1.387 . S
C495 C497 1.390 . S
C495 H499 0.950 . S
H496 C492 0.950 . S
C497 C495 1.390 . S
C497 C498 1.387 . S
C497 H500 0.950 . S
C498 C497 1.387 . S
C498 C501 1.387 . S
H499 C495 0.950 . S
H500 C497 0.950 . S
C501 C492 1.390 . S
C501 H494 0.950 . S
C501 C498 1.387 . S
C502 C503 1.387 . S
C502 H506 0.950 . S
C502 C511 1.390 . S
C503 C502 1.387 . S
C503 C505 1.387 . S
H504 C511 0.950 . S
C505 C503 1.387 . S
C505 C507 1.390 . S
C505 H509 0.950 . S
H506 C502 0.950 . S
C507 C505 1.390 . S
C507 C508 1.387 . S
C507 H510 0.950 . S
C508 C507 1.387 . S
C508 C511 1.387 . S
H509 C505 0.950 . S
H510 C507 0.950 . S
C511 C502 1.390 . S
C511 H504 0.950 . S
C511 C508 1.387 . S
C512 C513 1.387 . S
C512 H516 0.950 . S
C512 C521 1.390 . S
C513 C512 1.387 . S
C513 C515 1.387 . S
H514 C521 0.950 . S
C515 C513 1.387 . S
C515 C517 1.390 . S
C515 H519 0.950 . S
H516 C512 0.950 . S
C517 C515 1.390 . S
C517 C518 1.387 . S
C517 H520 0.950 . S
C518 C517 1.387 . S
C518 C521 1.387 . S
H519 C515 0.950 . S
H520 C517 0.950 . S
C521 C512 1.390 . S
C521 H514 0.950 . S
C521 C518 1.387 . S
C522 C523 1.387 . S
C522 H526 0.950 . S
C522 C531 1.390 . S
C523 C522 1.387 . S
C523 C525 1.387 . S
H524 C531 0.950 . S
C525 C523 1.387 . S
C525 C527 1.390 . S
C525 H529 0.950 . S
H526 C522 0.950 . S
C527 C525 1.390 . S
C527 C528 1.387 . S
C527 H530 0.950 . S
C528 C527 1.387 . S
C528 C531 1.387 . S
H529 C525 0.950 . S
H530 C527 0.950 . S
C531 C522 1.390 . S
C531 H524 0.950 . S
C531 C528 1.387 . S
C532 C533 1.387 . S
C532 H536 0.950 . S
C532 C541 1.390 . S
C533 C532 1.387 . S
C533 C535 1.387 . S
H534 C541 0.950 . S
C535 C533 1.387 . S
C535 C537 1.390 . S
C535 H539 0.950 . S
H536 C532 0.950 . S
C537 C535 1.390 . S
C537 C538 1.387 . S
C537 H540 0.950 . S
C538 C537 1.387 . S
C538 C541 1.387 . S
H539 C535 0.950 . S
H540 C537 0.950 . S
C541 C532 1.390 . S
C541 H534 0.950 . S
C541 C538 1.387 . S
C542 C543 1.387 . S
C542 H546 0.950 . S
C542 C551 1.390 . S
C543 C542 1.387 . S
C543 C545 1.387 . S
H544 C551 0.950 . S
C545 C543 1.387 . S
C545 C547 1.390 . S
C545 H549 0.950 . S
H546 C542 0.950 . S
C547 C545 1.390 . S
C547 C548 1.387 . S
C547 H550 0.950 . S
C548 C547 1.387 . S
C548 C551 1.387 . S
H549 C545 0.950 . S
H550 C547 0.950 . S
C551 C542 1.390 . S
C551 H544 0.950 . S
C551 C548 1.387 . S
C552 C553 1.387 . S
C552 H556 0.950 . S
C552 C561 1.390 . S
C553 C552 1.387 . S
C553 C555 1.387 . S
H554 C561 0.950 . S
C555 C553 1.387 . S
C555 C557 1.390 . S
C555 H559 0.950 . S
H556 C552 0.950 . S
C557 C555 1.390 . S
C557 C558 1.387 . S
C557 H560 0.950 . S
C558 C557 1.387 . S
C558 C561 1.387 . S
H559 C555 0.950 . S
H560 C557 0.950 . S
C561 C552 1.390 . S
C561 H554 0.950 . S
C561 C558 1.387 . S
C562 C563 1.387 . S
C562 H566 0.950 . S
C562 C571 1.390 . S
C563 C562 1.387 . S
C563 C565 1.387 . S
H564 C571 0.950 . S
C565 C563 1.387 . S
C565 C567 1.390 . S
C565 H569 0.950 . S
H566 C562 0.950 . S
C567 C565 1.390 . S
C567 C568 1.387 . S
C567 H570 0.950 . S
C568 C567 1.387 . S
C568 C571 1.387 . S
H569 C565 0.950 . S
H570 C567 0.950 . S
C571 C562 1.390 . S
C571 H564 0.950 . S
C571 C568 1.387 . S
C572 C573 1.387 . S
C572 H576 0.950 . S
C572 C581 1.390 . S
C573 C572 1.387 . S
C573 C575 1.387 . S
H574 C581 0.950 . S
C575 C573 1.387 . S
C575 C577 1.390 . S
C575 H579 0.950 . S
H576 C572 0.950 . S
C577 C575 1.390 . S
C577 C578 1.387 . S
C577 H580 0.950 . S
C578 C577 1.387 . S
C578 C581 1.387 . S
H579 C575 0.950 . S
H580 C577 0.950 . S
C581 C572 1.390 . S
C581 H574 0.950 . S
C581 C578 1.387 . S
C582 C583 1.387 . S
C582 H586 0.950 . S
C582 C591 1.390 . S
C583 C582 1.387 . S
C583 C585 1.387 . S
H584 C591 0.950 . S
C585 C583 1.387 . S
C585 C587 1.390 . S
C585 H589 0.950 . S
H586 C582 0.950 . S
C587 C585 1.390 . S
C587 C588 1.387 . S
C587 H590 0.950 . S
C588 C587 1.387 . S
C588 C591 1.387 . S
H589 C585 0.950 . S
H590 C587 0.950 . S
C591 C582 1.390 . S
C591 H584 0.950 . S
C591 C588 1.387 . S
C592 C593 1.387 . S
C592 H596 0.950 . S
C592 C601 1.390 . S
C593 C592 1.387 . S
C593 C595 1.387 . S
H594 C601 0.950 . S
C595 C593 1.387 . S
C595 C597 1.390 . S
C595 H599 0.950 . S
H596 C592 0.950 . S
C597 C595 1.390 . S
C597 C598 1.387 . S
C597 H600 0.950 . S
C598 C597 1.387 . S
C598 C601 1.387 . S
H599 C595 0.950 . S
H600 C597 0.950 . S
C601 C592 1.390 . S
C601 H594 0.950 . S
C601 C598 1.387 . S
C602 C603 1.387 . S
C602 H606 0.950 . S
C602 C611 1.390 . S
C603 C602 1.387 . S
C603 C605 1.387 . S
H604 C611 0.950 . S
C605 C603 1.387 . S
C605 C607 1.390 . S
C605 H609 0.950 . S
H606 C602 0.950 . S
C607 C605 1.390 . S
C607 C608 1.387 . S
C607 H610 0.950 . S
C608 C607 1.387 . S
C608 C611 1.387 . S
H609 C605 0.950 . S
H610 C607 0.950 . S
C611 C602 1.390 . S
C611 H604 0.950 . S
C611 C608 1.387 . S
C373 C247 1.466 . S
C378 C304 1.492 . S
C388 C312 1.492 . S
C383 C283 1.466 . S
C398 C316 1.474 . S
C393 C175 1.455 . S
C403 C211 1.454 . S
C408 C292 1.476 . S
C418 C333 1.491 . S
C413 C103 1.488 . S
C428 C367 1.492 . S
C423 C139 1.487 . S
C433 C31 1.477 . S
C438 C355 1.474 . S
C443 C67 1.478 . S
C448 C337 1.474 . S
C458 C291 1.344 . S
C453 C37 1.491 . S
C468 C325 1.340 . S
C463 C1 1.492 . S
C478 C329 1.344 . S
C473 C109 1.491 . S
C488 C307 1.339 . S
C483 C73 1.492 . S
C498 C346 1.340 . S
C493 C181 1.479 . S
C503 C145 1.480 . S
C508 C354 1.345 . S
C518 C370 1.344 . S
C513 C253 1.482 . S
C523 C217 1.482 . S
C528 C350 1.339 . S
C538 C295 1.309 . S
C533 C25 1.513 . S
C548 C313 1.309 . S
C543 C61 1.513 . S
C553 C97 1.500 . S
C558 C328 1.310 . S
C568 C308 1.307 . S
C563 C133 1.499 . S
C578 C334 1.310 . S
C573 C169 1.496 . S
C583 C205 1.497 . S
C588 C358 1.312 . S
C593 C241 1.485 . S
C598 C371 1.310 . S
C603 C277 1.487 . S
C608 C349 1.308 . S
