# Generated by pormake.
# Topology ptr, (4,4)-cn, num edge types: 1
# Building blocks:
#     Node 0, Type 0, BuildingBlock: NAHDIM_clean_sbu_0, # of connection points: 4
#     Node 1, Type 0, BuildingBlock: NAHDIM_clean_sbu_0, # of connection points: 4
#     Node 2, Type 0, BuildingBlock: NAHDIM_clean_sbu_0, # of connection points: 4
#     Node 3, Type 0, BuildingBlock: NAHDIM_clean_sbu_0, # of connection points: 4
#     Node 4, Type 0, BuildingBlock: NAHDIM_clean_sbu_0, # of connection points: 4
#     Node 5, Type 0, BuildingBlock: NAHDIM_clean_sbu_0, # of connection points: 4
#     Node 6, Type 0, BuildingBlock: NAHDIM_clean_sbu_0, # of connection points: 4
#     Node 7, Type 0, BuildingBlock: NAHDIM_clean_sbu_0, # of connection points: 4
#     Node 8, Type 0, BuildingBlock: NAHDIM_clean_sbu_0, # of connection points: 4
#     Node 9, Type 0, BuildingBlock: NAHDIM_clean_sbu_0, # of connection points: 4
#     Node 10, Type 0, BuildingBlock: NAHDIM_clean_sbu_0, # of connection points: 4
#     Node 11, Type 0, BuildingBlock: NAHDIM_clean_sbu_0, # of connection points: 4
#     Node 12, Type 0, BuildingBlock: NAHDIM_clean_sbu_0, # of connection points: 4
#     Node 13, Type 0, BuildingBlock: NAHDIM_clean_sbu_0, # of connection points: 4
#     Node 14, Type 0, BuildingBlock: NAHDIM_clean_sbu_0, # of connection points: 4
#     Node 15, Type 0, BuildingBlock: NAHDIM_clean_sbu_0, # of connection points: 4
#     Node 16, Type 0, BuildingBlock: NAHDIM_clean_sbu_0, # of connection points: 4
#     Node 17, Type 0, BuildingBlock: NAHDIM_clean_sbu_0, # of connection points: 4
#     Node 18, Type 1, BuildingBlock: MUDLON_clean_linker_0, # of connection points: 4
#     Node 19, Type 1, BuildingBlock: MUDLON_clean_linker_0, # of connection points: 4
#     Node 20, Type 1, BuildingBlock: MUDLON_clean_linker_0, # of connection points: 4
#     Node 21, Type 1, BuildingBlock: MUDLON_clean_linker_0, # of connection points: 4
#     Node 22, Type 1, BuildingBlock: MUDLON_clean_linker_0, # of connection points: 4
#     Node 23, Type 1, BuildingBlock: MUDLON_clean_linker_0, # of connection points: 4
#     Node 24, Type 1, BuildingBlock: MUDLON_clean_linker_0, # of connection points: 4
#     Node 25, Type 1, BuildingBlock: MUDLON_clean_linker_0, # of connection points: 4
#     Node 26, Type 1, BuildingBlock: MUDLON_clean_linker_0, # of connection points: 4
#     Node 27, Type 1, BuildingBlock: MUDLON_clean_linker_0, # of connection points: 4
#     Node 28, Type 1, BuildingBlock: MUDLON_clean_linker_0, # of connection points: 4
#     Node 29, Type 1, BuildingBlock: MUDLON_clean_linker_0, # of connection points: 4
#     Node 30, Type 1, BuildingBlock: MUDLON_clean_linker_0, # of connection points: 4
#     Node 31, Type 1, BuildingBlock: MUDLON_clean_linker_0, # of connection points: 4
#     Node 32, Type 1, BuildingBlock: MUDLON_clean_linker_0, # of connection points: 4
#     Node 33, Type 1, BuildingBlock: MUDLON_clean_linker_0, # of connection points: 4
#     Node 34, Type 1, BuildingBlock: MUDLON_clean_linker_0, # of connection points: 4
#     Node 35, Type 1, BuildingBlock: MUDLON_clean_linker_0, # of connection points: 4
#     Edge 36, Type (0, 1), BuildingBlock: OJICUG_clean_linker_0, # of connection points: 2
#     Edge 37, Type (0, 1), BuildingBlock: OJICUG_clean_linker_0, # of connection points: 2
#     Edge 38, Type (0, 1), BuildingBlock: OJICUG_clean_linker_0, # of connection points: 2
#     Edge 39, Type (0, 1), BuildingBlock: OJICUG_clean_linker_0, # of connection points: 2
#     Edge 40, Type (0, 1), BuildingBlock: OJICUG_clean_linker_0, # of connection points: 2
#     Edge 41, Type (0, 1), BuildingBlock: OJICUG_clean_linker_0, # of connection points: 2
#     Edge 42, Type (0, 1), BuildingBlock: OJICUG_clean_linker_0, # of connection points: 2
#     Edge 43, Type (0, 1), BuildingBlock: OJICUG_clean_linker_0, # of connection points: 2
#     Edge 44, Type (0, 1), BuildingBlock: OJICUG_clean_linker_0, # of connection points: 2
#     Edge 45, Type (0, 1), BuildingBlock: OJICUG_clean_linker_0, # of connection points: 2
#     Edge 46, Type (0, 1), BuildingBlock: OJICUG_clean_linker_0, # of connection points: 2
#     Edge 47, Type (0, 1), BuildingBlock: OJICUG_clean_linker_0, # of connection points: 2
#     Edge 48, Type (0, 1), BuildingBlock: OJICUG_clean_linker_0, # of connection points: 2
#     Edge 49, Type (0, 1), BuildingBlock: OJICUG_clean_linker_0, # of connection points: 2
#     Edge 50, Type (0, 1), BuildingBlock: OJICUG_clean_linker_0, # of connection points: 2
#     Edge 51, Type (0, 1), BuildingBlock: OJICUG_clean_linker_0, # of connection points: 2
#     Edge 52, Type (0, 1), BuildingBlock: OJICUG_clean_linker_0, # of connection points: 2
#     Edge 53, Type (0, 1), BuildingBlock: OJICUG_clean_linker_0, # of connection points: 2
#     Edge 54, Type (0, 1), BuildingBlock: OJICUG_clean_linker_0, # of connection points: 2
#     Edge 55, Type (0, 1), BuildingBlock: OJICUG_clean_linker_0, # of connection points: 2
#     Edge 56, Type (0, 1), BuildingBlock: OJICUG_clean_linker_0, # of connection points: 2
#     Edge 57, Type (0, 1), BuildingBlock: OJICUG_clean_linker_0, # of connection points: 2
#     Edge 58, Type (0, 1), BuildingBlock: OJICUG_clean_linker_0, # of connection points: 2
#     Edge 59, Type (0, 1), BuildingBlock: OJICUG_clean_linker_0, # of connection points: 2
#     Edge 60, Type (0, 1), BuildingBlock: OJICUG_clean_linker_0, # of connection points: 2
#     Edge 61, Type (0, 1), BuildingBlock: OJICUG_clean_linker_0, # of connection points: 2
#     Edge 62, Type (0, 1), BuildingBlock: OJICUG_clean_linker_0, # of connection points: 2
#     Edge 63, Type (0, 1), BuildingBlock: OJICUG_clean_linker_0, # of connection points: 2
#     Edge 64, Type (0, 1), BuildingBlock: OJICUG_clean_linker_0, # of connection points: 2
#     Edge 65, Type (0, 1), BuildingBlock: OJICUG_clean_linker_0, # of connection points: 2
#     Edge 66, Type (0, 1), BuildingBlock: OJICUG_clean_linker_0, # of connection points: 2
#     Edge 67, Type (0, 1), BuildingBlock: OJICUG_clean_linker_0, # of connection points: 2
#     Edge 68, Type (0, 1), BuildingBlock: OJICUG_clean_linker_0, # of connection points: 2
#     Edge 69, Type (0, 1), BuildingBlock: OJICUG_clean_linker_0, # of connection points: 2
#     Edge 70, Type (0, 1), BuildingBlock: OJICUG_clean_linker_0, # of connection points: 2
#     Edge 71, Type (0, 1), BuildingBlock: OJICUG_clean_linker_0, # of connection points: 2
#     Edge 72, Type (0, 1), BuildingBlock: OJICUG_clean_linker_0, # of connection points: 2
#     Edge 73, Type (0, 1), BuildingBlock: OJICUG_clean_linker_0, # of connection points: 2
#     Edge 74, Type (0, 1), BuildingBlock: OJICUG_clean_linker_0, # of connection points: 2
#     Edge 75, Type (0, 1), BuildingBlock: OJICUG_clean_linker_0, # of connection points: 2
#     Edge 76, Type (0, 1), BuildingBlock: OJICUG_clean_linker_0, # of connection points: 2
#     Edge 77, Type (0, 1), BuildingBlock: OJICUG_clean_linker_0, # of connection points: 2
#     Edge 78, Type (0, 1), BuildingBlock: OJICUG_clean_linker_0, # of connection points: 2
#     Edge 79, Type (0, 1), BuildingBlock: OJICUG_clean_linker_0, # of connection points: 2
#     Edge 80, Type (0, 1), BuildingBlock: OJICUG_clean_linker_0, # of connection points: 2
#     Edge 81, Type (0, 1), BuildingBlock: OJICUG_clean_linker_0, # of connection points: 2
#     Edge 82, Type (0, 1), BuildingBlock: OJICUG_clean_linker_0, # of connection points: 2
#     Edge 83, Type (0, 1), BuildingBlock: OJICUG_clean_linker_0, # of connection points: 2
#     Edge 84, Type (0, 1), BuildingBlock: OJICUG_clean_linker_0, # of connection points: 2
#     Edge 85, Type (0, 1), BuildingBlock: OJICUG_clean_linker_0, # of connection points: 2
#     Edge 86, Type (0, 1), BuildingBlock: OJICUG_clean_linker_0, # of connection points: 2
#     Edge 87, Type (0, 1), BuildingBlock: OJICUG_clean_linker_0, # of connection points: 2
#     Edge 88, Type (0, 1), BuildingBlock: OJICUG_clean_linker_0, # of connection points: 2
#     Edge 89, Type (0, 1), BuildingBlock: OJICUG_clean_linker_0, # of connection points: 2
#     Edge 90, Type (0, 1), BuildingBlock: OJICUG_clean_linker_0, # of connection points: 2
#     Edge 91, Type (0, 1), BuildingBlock: OJICUG_clean_linker_0, # of connection points: 2
#     Edge 92, Type (0, 1), BuildingBlock: OJICUG_clean_linker_0, # of connection points: 2
#     Edge 93, Type (0, 1), BuildingBlock: OJICUG_clean_linker_0, # of connection points: 2
#     Edge 94, Type (0, 1), BuildingBlock: OJICUG_clean_linker_0, # of connection points: 2
#     Edge 95, Type (0, 1), BuildingBlock: OJICUG_clean_linker_0, # of connection points: 2
#     Edge 96, Type (0, 1), BuildingBlock: OJICUG_clean_linker_0, # of connection points: 2
#     Edge 97, Type (0, 1), BuildingBlock: OJICUG_clean_linker_0, # of connection points: 2
#     Edge 98, Type (0, 1), BuildingBlock: OJICUG_clean_linker_0, # of connection points: 2
#     Edge 99, Type (0, 1), BuildingBlock: OJICUG_clean_linker_0, # of connection points: 2
#     Edge 100, Type (0, 1), BuildingBlock: OJICUG_clean_linker_0, # of connection points: 2
#     Edge 101, Type (0, 1), BuildingBlock: OJICUG_clean_linker_0, # of connection points: 2
#     Edge 102, Type (0, 1), BuildingBlock: OJICUG_clean_linker_0, # of connection points: 2
#     Edge 103, Type (0, 1), BuildingBlock: OJICUG_clean_linker_0, # of connection points: 2
#     Edge 104, Type (0, 1), BuildingBlock: OJICUG_clean_linker_0, # of connection points: 2
#     Edge 105, Type (0, 1), BuildingBlock: OJICUG_clean_linker_0, # of connection points: 2
#     Edge 106, Type (0, 1), BuildingBlock: OJICUG_clean_linker_0, # of connection points: 2
#     Edge 107, Type (0, 1), BuildingBlock: OJICUG_clean_linker_0, # of connection points: 2
# Relax obj value: 0.062
# Max RMSD: 0.205
# Mean RMSD: 0.105
data_MOF--net-ptr--node1-NAHDIM_clean_sbu_0--node2-MUDLON_clean_linker_0--edge1-OJICUG_clean_linker_0
_symmetry_space_group_name_H-M    P1
_symmetry_Int_Tables_number       1
_symmetry_cell_setting            triclinic
loop_
_symmetry_equiv_pos_as_xyz
'x, y, z'
_cell_length_a     85.725823
_cell_length_b     84.140105
_cell_length_c     48.850258
_cell_angle_alpha  91.787741
_cell_angle_beta   89.138464
_cell_angle_gamma 121.68972
loop_
_atom_site_label
_atom_site_type_symbol
_atom_site_fract_x
_atom_site_fract_y
_atom_site_fract_z
_atom_type_partial_charge
C0 C 0.03869 0.36629 0.00129 0.0
O1 O 0.02652 0.35567 0.98251 0.0
O2 O 0.99354 0.35235 0.00497 0.0
Zn3 Zn 0.01392 0.37922 0.01011 0.0
O4 O 0.01128 0.39088 0.04528 0.0
C5 C 0.99866 0.39184 0.97258 0.0
O6 O 0.98527 0.38318 0.99028 0.0
O7 O 0.03699 0.37871 0.01398 0.0
C8 C 0.01299 0.40684 0.04692 0.0
O9 O 0.01556 0.41617 0.02454 0.0
C10 C 0.9777 0.34328 0.01566 0.0
O11 O 0.97259 0.35166 0.03354 0.0
O12 O 0.01372 0.39276 0.97682 0.0
C13 C 0.67847 0.63488 0.99588 0.0
O14 O 0.66501 0.62055 0.98249 0.0
O15 O 0.64844 0.65884 0.03172 0.0
Zn16 Zn 0.64859 0.63535 0.02337 0.0
O17 O 0.63253 0.62041 0.99129 0.0
C18 C 0.62235 0.61247 0.06226 0.0
O19 O 0.61225 0.61567 0.04605 0.0
O20 O 0.67471 0.64293 0.01501 0.0
C21 C 0.62524 0.62559 0.97407 0.0
O22 O 0.62756 0.64228 0.97679 0.0
C23 C 0.65805 0.67357 0.01815 0.0
O24 O 0.66725 0.67306 0.99673 0.0
O25 O 0.63921 0.61949 0.05661 0.0
C26 C 0.35184 0.02835 0.99363 0.0
O27 O 0.33834 0.01128 0.98768 0.0
O28 O 0.34288 0.98757 0.02728 0.0
Zn29 Zn 0.3675 0.0082 0.01382 0.0
O30 O 0.37583 0.001 0.97917 0.0
C31 C 0.38521 0.00124 0.05648 0.0
O32 O 0.37328 0.98401 0.04835 0.0
O33 O 0.36599 0.03069 0.00562 0.0
C34 C 0.37469 0.98553 0.97394 0.0
O35 O 0.36734 0.97231 0.99205 0.0
C36 C 0.33031 0.97362 0.0138 0.0
O37 O 0.33261 0.97152 0.98758 0.0
O38 O 0.38572 0.01464 0.04428 0.0
C39 C 0.97007 0.65363 0.01649 0.0
O40 O 0.9827 0.66377 0.03497 0.0
O41 O 0.01302 0.65867 0.02047 0.0
Zn42 Zn 0.98966 0.63418 0.01168 0.0
O43 O 0.99259 0.62272 0.97648 0.0
C44 C 0.99737 0.61814 0.05573 0.0
O45 O 0.01398 0.62945 0.04634 0.0
O46 O 0.96968 0.63961 0.00517 0.0
C47 C 0.99862 0.61179 0.97431 0.0
O48 O 0.0037 0.60716 0.99639 0.0
C49 C 0.01887 0.67332 0.00667 0.0
O50 O 0.00998 0.67253 0.9845 0.0
O51 O 0.98384 0.61728 0.04382 0.0
C52 C 0.32386 0.36342 0.01501 0.0
O53 O 0.32443 0.35597 0.99126 0.0
O54 O 0.35559 0.34906 0.00393 0.0
Zn55 Zn 0.36199 0.37467 0.01739 0.0
O56 O 0.37913 0.38454 0.04996 0.0
C57 C 0.38767 0.39304 0.97533 0.0
O58 O 0.39385 0.3832 0.98582 0.0
O59 O 0.33846 0.37265 0.02912 0.0
C60 C 0.39188 0.38164 0.05536 0.0
O61 O 0.39481 0.37086 0.03882 0.0
C62 C 0.35362 0.33558 0.01777 0.0
O63 O 0.35663 0.33782 0.04429 0.0
O64 O 0.37355 0.39206 0.98586 0.0
C65 C 0.62742 0.9549 0.01797 0.0
O66 O 0.61294 0.95371 0.02959 0.0
O67 O 0.6505 0.0088 0.97916 0.0
Zn68 Zn 0.62782 0.98451 0.98927 0.0
O69 O 0.61407 0.98721 0.0212 0.0
C70 C 0.60724 0.98701 0.94781 0.0
O71 O 0.61498 0.00363 0.95984 0.0
O72 O 0.63562 0.96657 0.99915 0.0
C73 C 0.61844 0.00125 0.03694 0.0
O74 O 0.63391 0.0171 0.03306 0.0
C75 C 0.6646 0.01828 0.99423 0.0
O76 O 0.66473 0.01272 0.01901 0.0
O77 O 0.61071 0.97517 0.95683 0.0
C78 C 0.69231 0.69229 0.37393 0.0
O79 O 0.67587 0.68578 0.38422 0.0
O80 O 0.65672 0.68754 0.33452 0.0
Zn81 Zn 0.67978 0.71184 0.34587 0.0
O82 O 0.67782 0.72647 0.37782 0.0
C83 C 0.67614 0.72927 0.30025 0.0
O84 O 0.65916 0.71991 0.30919 0.0
O85 O 0.69814 0.70489 0.35615 0.0
C86 C 0.66419 0.7268 0.38769 0.0
O87 O 0.64781 0.71594 0.37702 0.0
C88 C 0.64224 0.67561 0.34688 0.0
O89 O 0.63967 0.67867 0.37259 0.0
O90 O 0.68837 0.72828 0.31309 0.0
C91 C 0.35161 0.98755 0.35268 0.0
O92 O 0.35044 0.99947 0.36927 0.0
O93 O 0.31257 0.99164 0.35945 0.0
Zn94 Zn 0.31145 0.96746 0.35104 0.0
O95 O 0.29728 0.95478 0.31647 0.0
C96 C 0.28809 0.95187 0.39725 0.0
O97 O 0.28346 0.96372 0.38987 0.0
O98 O 0.33702 0.97305 0.34394 0.0
C99 C 0.28003 0.94379 0.31425 0.0
O100 O 0.26959 0.94049 0.3359 0.0
C101 C 0.31977 0.00576 0.34425 0.0
O102 O 0.32649 0.0048 0.32033 0.0
O103 O 0.30006 0.9506 0.38328 0.0
C104 C 0.02199 0.3598 0.31849 0.0
O105 O 0.01467 0.34458 0.30287 0.0
O106 O 0.00775 0.31707 0.35828 0.0
Zn107 Zn 0.03258 0.33802 0.34595 0.0
O108 O 0.04199 0.33228 0.31101 0.0
C109 C 0.05395 0.33024 0.38002 0.0
O110 O 0.04727 0.31597 0.36258 0.0
O111 O 0.03096 0.36072 0.3396 0.0
C112 C 0.03678 0.3164 0.29984 0.0
O113 O 0.02374 0.30117 0.31127 0.0
C114 C 0.99343 0.3055 0.34481 0.0
O115 O 0.99347 0.30584 0.31795 0.0
O116 O 0.05002 0.3427 0.37685 0.0
C117 C 0.62946 0.97142 0.33644 0.0
O118 O 0.63951 0.98488 0.35435 0.0
O119 O 0.67488 0.9887 0.35446 0.0
Zn120 Zn 0.65695 0.96178 0.34394 0.0
O121 O 0.66716 0.95284 0.31397 0.0
C122 C 0.66462 0.94587 0.38809 0.0
O123 O 0.68065 0.95432 0.37584 0.0
O124 O 0.63402 0.95969 0.32969 0.0
C125 C 0.65602 0.93825 0.30008 0.0
O126 O 0.63853 0.92928 0.30649 0.0
C127 C 0.69144 0.99864 0.34669 0.0
O128 O 0.6983 0.99131 0.33001 0.0
O129 O 0.65153 0.94658 0.37762 0.0
C130 C 0.98746 0.69753 0.34369 0.0
O131 O 0.98778 0.68962 0.32025 0.0
O132 O 0.02081 0.68586 0.33236 0.0
Zn133 Zn 0.02613 0.71154 0.34296 0.0
O134 O 0.04443 0.7237 0.37374 0.0
C135 C 0.04655 0.74354 0.30628 0.0
O136 O 0.0545 0.75389 0.32836 0.0
O137 O 0.00242 0.70824 0.35635 0.0
C138 C 0.05946 0.72427 0.37595 0.0
O139 O 0.06441 0.71668 0.35648 0.0
C140 C 0.02281 0.67432 0.34572 0.0
O141 O 0.02992 0.67891 0.37044 0.0
O142 O 0.03454 0.72631 0.30858 0.0
C143 C 0.29574 0.29683 0.3556 0.0
O144 O 0.28056 0.29496 0.36557 0.0
O145 O 0.32403 0.35268 0.32024 0.0
Zn146 Zn 0.30013 0.33006 0.33107 0.0
O147 O 0.28934 0.33543 0.36443 0.0
C148 C 0.27129 0.32736 0.29799 0.0
O149 O 0.27058 0.33756 0.31832 0.0
O150 O 0.30563 0.31025 0.33985 0.0
C151 C 0.29512 0.35159 0.375 0.0
O152 O 0.30928 0.36625 0.36412 0.0
C153 C 0.33843 0.35856 0.33448 0.0
O154 O 0.33732 0.35033 0.35748 0.0
O155 O 0.28268 0.32205 0.29915 0.0
C156 C 0.35913 0.01643 0.66847 0.0
O157 O 0.3446 0.0052 0.65354 0.0
O158 O 0.31921 0.01756 0.66147 0.0
Zn159 Zn 0.34421 0.04055 0.66849 0.0
O160 O 0.3445 0.05538 0.70176 0.0
C161 C 0.33884 0.05779 0.62371 0.0
O162 O 0.3221 0.04834 0.63354 0.0
O163 O 0.36219 0.03246 0.6758 0.0
C164 C 0.33123 0.05663 0.71094 0.0
O165 O 0.31533 0.04748 0.69828 0.0
C166 C 0.31081 0.00414 0.67781 0.0
O167 O 0.31805 0.00541 0.70191 0.0
O168 O 0.35144 0.05683 0.63548 0.0
C169 C 0.0144 0.31302 0.68304 0.0
O170 O 0.01514 0.32805 0.69316 0.0
O171 O 0.97809 0.32043 0.69652 0.0
Zn172 Zn 0.97452 0.29513 0.68787 0.0
O173 O 0.96009 0.2835 0.65298 0.0
C174 C 0.94881 0.27929 0.73126 0.0
O175 O 0.94337 0.28967 0.72037 0.0
O176 O 0.99895 0.29786 0.68059 0.0
C177 C 0.94348 0.27017 0.65075 0.0
O178 O 0.93355 0.26323 0.67289 0.0
C179 C 0.96971 0.32725 0.68522 0.0
O180 O 0.95794 0.3177 0.66544 0.0
O181 O 0.96216 0.27887 0.72039 0.0
C182 C 0.69073 0.70143 0.66123 0.0
O183 O 0.68119 0.68459 0.64998 0.0
O184 O 0.68169 0.66181 0.70021 0.0
Zn185 Zn 0.70604 0.68343 0.68794 0.0
O186 O 0.71528 0.67684 0.65392 0.0
C187 C 0.72337 0.67831 0.73348 0.0
O188 O 0.71029 0.66086 0.72865 0.0
O189 O 0.70274 0.70471 0.67915 0.0
C190 C 0.71736 0.66298 0.65132 0.0
O191 O 0.71308 0.65163 0.67177 0.0
C192 C 0.67087 0.64714 0.6862 0.0
O193 O 0.67518 0.64517 0.66094 0.0
O194 O 0.72445 0.69095 0.71851 0.0
C195 C 0.31143 0.31662 0.65042 0.0
O196 O 0.32829 0.32389 0.64135 0.0
O197 O 0.3457 0.32576 0.69683 0.0
Zn198 Zn 0.32577 0.30072 0.68206 0.0
O199 O 0.33458 0.29185 0.65004 0.0
C200 C 0.32962 0.27964 0.72168 0.0
O201 O 0.3457 0.28761 0.70957 0.0
O202 O 0.30588 0.30463 0.66909 0.0
C203 C 0.32522 0.27479 0.64222 0.0
O204 O 0.31033 0.26326 0.65583 0.0
C205 C 0.3612 0.33666 0.68601 0.0
O206 O 0.36579 0.33145 0.6632 0.0
O207 O 0.31759 0.28269 0.71284 0.0
C208 C 0.64603 0.02403 0.67281 0.0
O209 O 0.64981 0.0136 0.65692 0.0
O210 O 0.68788 0.0247 0.67265 0.0
Zn211 Zn 0.68577 0.04739 0.6789 0.0
O212 O 0.69866 0.06133 0.71363 0.0
C213 C 0.69321 0.0557 0.62284 0.0
O214 O 0.68177 0.03753 0.62117 0.0
O215 O 0.65909 0.03918 0.68326 0.0
C216 C 0.71568 0.07353 0.71545 0.0
O217 O 0.72607 0.07733 0.69362 0.0
C218 C 0.67933 0.00999 0.68658 0.0
O219 O 0.66931 0.00959 0.70748 0.0
O220 O 0.69696 0.06382 0.6463 0.0
C221 C 0.97987 0.64168 0.67481 0.0
O222 O 0.99011 0.65172 0.65439 0.0
O223 O 0.99042 0.68779 0.66145 0.0
Zn224 Zn 0.96613 0.66697 0.67533 0.0
O225 O 0.95769 0.67483 0.70893 0.0
C226 C 0.94669 0.67146 0.63259 0.0
O227 O 0.95786 0.68907 0.63994 0.0
O228 O 0.96864 0.64546 0.6859 0.0
C229 C 0.96275 0.69145 0.71648 0.0
O230 O 0.97453 0.70543 0.70144 0.0
C231 C 0.00547 0.69426 0.67423 0.0
O232 O 0.00538 0.68784 0.69844 0.0
O233 O 0.94744 0.6589 0.64526 0.0
H234 H 0.2175 0.34056 0.16023 0.0
N235 N 0.20827 0.31364 0.12006 0.0
H236 H 0.23137 0.34244 0.20435 0.0
H237 H 0.21325 0.28805 0.14148 0.0
H238 H 0.22643 0.28934 0.1862 0.0
H239 H 0.21492 0.29781 0.07744 0.0
H240 H 0.24216 0.31188 0.04833 0.0
H241 H 0.23478 0.35099 0.11898 0.0
H242 H 0.26152 0.36532 0.08937 0.0
H243 H 0.20533 0.34459 0.11624 0.0
H244 H 0.17435 0.28448 0.1191 0.0
H245 H 0.17699 0.34461 0.11374 0.0
H246 H 0.14581 0.28435 0.11757 0.0
H247 H 0.09402 0.34181 0.14445 0.0
H248 H 0.08116 0.34262 0.18865 0.0
H249 H 0.05999 0.28365 0.19687 0.0
H250 H 0.07201 0.2828 0.15147 0.0
H251 H 0.06028 0.29486 0.08652 0.0
H252 H 0.05123 0.30971 0.05332 0.0
H253 H 0.10247 0.36193 0.06708 0.0
H254 H 0.11131 0.34696 0.10043 0.0
H255 H 0.12221 0.3377 0.14217 0.0
H256 H 0.1513 0.33892 0.14149 0.0
H257 H 0.12732 0.28977 0.08804 0.0
N258 N 0.09017 0.31081 0.11737 0.0
H259 H 0.09806 0.28829 0.0898 0.0
C260 C 0.21447 0.31417 0.14748 0.0
C261 C 0.21931 0.32929 0.16578 0.0
C262 C 0.22712 0.33026 0.19116 0.0
C263 C 0.23015 0.31609 0.19881 0.0
C264 C 0.22463 0.30067 0.1808 0.0
C265 C 0.21694 0.29979 0.15538 0.0
C266 C 0.22269 0.32324 0.10029 0.0
C267 C 0.22487 0.31264 0.07965 0.0
C268 C 0.24043 0.32075 0.06299 0.0
C269 C 0.25414 0.33974 0.06664 0.0
C270 C 0.25139 0.3506 0.0863 0.0
C271 C 0.2359 0.34243 0.10309 0.0
C272 C 0.19196 0.31442 0.11757 0.0
C273 C 0.19248 0.33136 0.11623 0.0
C274 C 0.17618 0.33137 0.11504 0.0
C275 C 0.15907 0.31448 0.11537 0.0
C276 C 0.1587 0.2976 0.11672 0.0
C277 C 0.17496 0.29762 0.11775 0.0
C278 C 0.08368 0.31208 0.14432 0.0
C279 C 0.0865 0.329 0.15554 0.0
C280 C 0.07928 0.32948 0.18117 0.0
C281 C 0.06942 0.31318 0.1965 0.0
C282 C 0.06713 0.29641 0.18551 0.0
C283 C 0.07412 0.29589 0.15967 0.0
C284 C 0.08635 0.31973 0.09599 0.0
C285 C 0.06965 0.30943 0.08199 0.0
C286 C 0.06459 0.31793 0.06293 0.0
C287 C 0.07616 0.33702 0.05753 0.0
C288 C 0.09321 0.34724 0.07093 0.0
C289 C 0.09831 0.33867 0.08993 0.0
C290 C 0.10787 0.31267 0.11629 0.0
C291 C 0.1232 0.32718 0.13035 0.0
C292 C 0.13991 0.32795 0.12973 0.0
C293 C 0.14165 0.31435 0.11487 0.0
C294 C 0.1264 0.30024 0.10017 0.0
C295 C 0.1097 0.29942 0.10097 0.0
H296 H 0.72163 0.78239 0.14519 0.0
N297 N 0.7012 0.79282 0.12046 0.0
H298 H 0.71647 0.76815 0.1899 0.0
H299 H 0.67531 0.78873 0.1584 0.0
H300 H 0.67066 0.77552 0.20335 0.0
H301 H 0.66489 0.76499 0.1173 0.0
H302 H 0.65178 0.7372 0.08754 0.0
H303 H 0.71771 0.78594 0.07959 0.0
H304 H 0.70495 0.75766 0.0506 0.0
H305 H 0.72937 0.82776 0.11961 0.0
H306 H 0.67054 0.79469 0.11157 0.0
H307 H 0.72866 0.85629 0.11574 0.0
H308 H 0.66955 0.82288 0.10917 0.0
H309 H 0.70957 0.94013 0.14808 0.0
H310 H 0.70124 0.94685 0.19316 0.0
H311 H 0.66024 0.8882 0.20093 0.0
H312 H 0.66823 0.88181 0.15545 0.0
H313 H 0.65644 0.88829 0.11392 0.0
H314 H 0.63931 0.89691 0.08494 0.0
H315 H 0.6903 0.94369 0.05584 0.0
H316 H 0.70729 0.93436 0.0841 0.0
H317 H 0.71813 0.90215 0.14464 0.0
H318 H 0.72038 0.87448 0.14222 0.0
H319 H 0.67602 0.84883 0.08346 0.0
N320 N 0.69374 0.90756 0.12065 0.0
H321 H 0.67325 0.87592 0.08674 0.0
C322 C 0.69904 0.78678 0.14834 0.0
C323 C 0.71064 0.78113 0.15802 0.0
C324 C 0.70769 0.77307 0.18363 0.0
C325 C 0.69307 0.77057 0.20026 0.0
C326 C 0.68184 0.77688 0.19093 0.0
C327 C 0.68466 0.78472 0.16518 0.0
C328 C 0.69235 0.77768 0.1005 0.0
C329 C 0.6736 0.76385 0.10216 0.0
C330 C 0.66616 0.74777 0.08534 0.0
C331 C 0.67732 0.74501 0.06684 0.0
C332 C 0.69585 0.75934 0.0643 0.0
C333 C 0.70322 0.7755 0.08093 0.0
C334 C 0.70011 0.80909 0.11605 0.0
C335 C 0.71632 0.82667 0.11694 0.0
C336 C 0.71584 0.84294 0.11498 0.0
C337 C 0.69902 0.84196 0.11241 0.0
C338 C 0.68279 0.82424 0.11076 0.0
C339 C 0.68332 0.80799 0.11236 0.0
C340 C 0.68961 0.91056 0.14843 0.0
C341 C 0.69893 0.92875 0.15972 0.0
C342 C 0.6942 0.9325 0.18555 0.0
C343 C 0.68003 0.91806 0.20073 0.0
C344 C 0.67102 0.8997 0.18967 0.0
C345 C 0.67567 0.89599 0.16373 0.0
C346 C 0.68323 0.91066 0.10101 0.0
C347 C 0.66393 0.90017 0.10089 0.0
C348 C 0.65414 0.90523 0.08443 0.0
C349 C 0.66338 0.92113 0.0682 0.0
C350 C 0.68268 0.93121 0.06771 0.0
C351 C 0.69245 0.92596 0.08391 0.0
C352 C 0.69528 0.89127 0.11661 0.0
C353 C 0.70887 0.89055 0.13123 0.0
C354 C 0.71025 0.87474 0.12961 0.0
C355 C 0.69828 0.85927 0.11278 0.0
C356 C 0.68517 0.86026 0.09718 0.0
C357 C 0.68361 0.87599 0.09909 0.0
H358 H 0.08868 0.75667 0.14364 0.0
N359 N 0.09653 0.78893 0.11858 0.0
H360 H 0.07567 0.74678 0.18884 0.0
H361 H 0.08718 0.80694 0.15471 0.0
H362 H 0.07418 0.79703 0.20072 0.0
H363 H 0.06682 0.77928 0.08936 0.0
H364 H 0.05038 0.75244 0.05764 0.0
H365 H 0.10843 0.76587 0.10003 0.0
H366 H 0.09223 0.73922 0.06819 0.0
H367 H 0.12201 0.78543 0.14707 0.0
H368 H 0.11579 0.81922 0.08884 0.0
H369 H 0.1548 0.80723 0.14803 0.0
H370 H 0.14906 0.84064 0.0881 0.0
H371 H 0.25775 0.87914 0.16235 0.0
H372 H 0.26884 0.89431 0.20748 0.0
H373 H 0.2288 0.9107 0.20821 0.0
H374 H 0.21784 0.89561 0.16341 0.0
H375 H 0.23686 0.91265 0.12259 0.0
H376 H 0.25851 0.93549 0.09043 0.0
H377 H 0.27315 0.896 0.06146 0.0
H378 H 0.25132 0.87312 0.09372 0.0
H379 H 0.21496 0.84149 0.13194 0.0
H380 H 0.18231 0.81878 0.12517 0.0
H381 H 0.17315 0.86409 0.11414 0.0
N382 N 0.23202 0.87838 0.1319 0.0
H383 H 0.20589 0.88641 0.11886 0.0
C384 C 0.08864 0.78251 0.14538 0.0
C385 C 0.08537 0.76553 0.15555 0.0
C386 C 0.07792 0.75985 0.18156 0.0
C387 C 0.07374 0.77104 0.19819 0.0
C388 C 0.07729 0.78814 0.18832 0.0
C389 C 0.08461 0.79376 0.16208 0.0
C390 C 0.08879 0.77463 0.09714 0.0
C391 C 0.07261 0.7708 0.08435 0.0
C392 C 0.06329 0.75551 0.06617 0.0
C393 C 0.06998 0.74366 0.06051 0.0
C394 C 0.08665 0.74799 0.07236 0.0
C395 C 0.09601 0.76334 0.09045 0.0
C396 C 0.11628 0.80091 0.11826 0.0
C397 C 0.12767 0.79749 0.13429 0.0
C398 C 0.14662 0.80993 0.1345 0.0
C399 C 0.15474 0.82585 0.11821 0.0
C400 C 0.14334 0.82881 0.10141 0.0
C401 C 0.12433 0.81652 0.1016 0.0
C402 C 0.23692 0.88605 0.15946 0.0
C403 C 0.25125 0.88581 0.17245 0.0
C404 C 0.25762 0.89458 0.19809 0.0
C405 C 0.24972 0.90375 0.21132 0.0
C406 C 0.23503 0.90358 0.19864 0.0
C407 C 0.22875 0.89492 0.17289 0.0
C408 C 0.2426 0.89118 0.11066 0.0
C409 C 0.24444 0.90874 0.10901 0.0
C410 C 0.2569 0.92184 0.0907 0.0
C411 C 0.26764 0.91759 0.0736 0.0
C412 C 0.26498 0.89964 0.07421 0.0
C413 C 0.25259 0.88659 0.09265 0.0
C414 C 0.21282 0.86558 0.12639 0.0
C415 C 0.20585 0.84642 0.12776 0.0
C416 C 0.18715 0.83349 0.12414 0.0
C417 C 0.1749 0.83953 0.11954 0.0
C418 C 0.18207 0.85882 0.11739 0.0
C419 C 0.20086 0.87171 0.12046 0.0
H420 H 0.34386 0.25201 0.88293 0.0
N421 N 0.3141 0.22044 0.90329 0.0
H422 H 0.34668 0.26456 0.83773 0.0
H423 H 0.28932 0.20632 0.8631 0.0
H424 H 0.29211 0.21887 0.81732 0.0
H425 H 0.29256 0.23187 0.92301 0.0
H426 H 0.30107 0.25859 0.95418 0.0
H427 H 0.34642 0.24039 0.93283 0.0
H428 H 0.35478 0.2668 0.96414 0.0
H429 H 0.34761 0.22593 0.88819 0.0
H430 H 0.29527 0.18628 0.92326 0.0
H431 H 0.3565 0.20296 0.88825 0.0
H432 H 0.30441 0.16315 0.92439 0.0
H433 H 0.37407 0.14038 0.84397 0.0
H434 H 0.36815 0.12442 0.79907 0.0
H435 H 0.31629 0.07933 0.82869 0.0
H436 H 0.32215 0.09549 0.87309 0.0
H437 H 0.32499 0.10524 0.92231 0.0
H438 H 0.32432 0.08264 0.95333 0.0
H439 H 0.38078 0.10218 0.93322 0.0
H440 H 0.38135 0.1249 0.90265 0.0
H441 H 0.37397 0.16304 0.90765 0.0
H442 H 0.36477 0.1858 0.91607 0.0
H443 H 0.30927 0.14392 0.89232 0.0
N444 N 0.3535 0.1282 0.88865 0.0
H445 H 0.31845 0.1212 0.88513 0.0
C446 C 0.3163 0.22811 0.87644 0.0
C447 C 0.3325 0.24458 0.86881 0.0
C448 C 0.33414 0.25172 0.84283 0.0
C449 C 0.31965 0.24265 0.8239 0.0
C450 C 0.30346 0.22622 0.83154 0.0
C451 C 0.30187 0.21901 0.85756 0.0
C452 C 0.3187 0.23399 0.92545 0.0
C453 C 0.30602 0.23916 0.93242 0.0
C454 C 0.31092 0.25445 0.95006 0.0
C455 C 0.32861 0.26478 0.96138 0.0
C456 C 0.34101 0.25897 0.95581 0.0
C457 C 0.33619 0.24381 0.93783 0.0
C458 C 0.32058 0.20778 0.90551 0.0
C459 C 0.33804 0.21234 0.89622 0.0
C460 C 0.34323 0.19917 0.89654 0.0
C461 C 0.33117 0.18114 0.90629 0.0
C462 C 0.31394 0.1768 0.91638 0.0
C463 C 0.30873 0.19002 0.91595 0.0
C464 C 0.34869 0.11917 0.86189 0.0
C465 C 0.36134 0.12718 0.84056 0.0
C466 C 0.35797 0.11798 0.81505 0.0
C467 C 0.34181 0.10052 0.81039 0.0
C468 C 0.32879 0.09283 0.83151 0.0
C469 C 0.33219 0.10204 0.85703 0.0
C470 C 0.35329 0.11675 0.91013 0.0
C471 C 0.33732 0.10493 0.92502 0.0
C472 C 0.33693 0.09192 0.94263 0.0
C473 C 0.35246 0.09051 0.94563 0.0
C474 C 0.36864 0.10302 0.93171 0.0
C475 C 0.369 0.11597 0.91415 0.0
C476 C 0.34705 0.14056 0.89541 0.0
C477 C 0.35979 0.15878 0.90463 0.0
C478 C 0.35451 0.17176 0.90923 0.0
C479 C 0.33631 0.16678 0.90451 0.0
C480 C 0.32336 0.14823 0.89636 0.0
C481 C 0.32865 0.13521 0.89196 0.0
H482 H 0.73536 0.13005 0.87513 0.0
N483 N 0.76248 0.13089 0.90197 0.0
H484 H 0.72464 0.11797 0.8285 0.0
H485 H 0.77936 0.11976 0.86418 0.0
H486 H 0.76869 0.10761 0.81806 0.0
H487 H 0.7593 0.09666 0.89999 0.0
H488 H 0.73715 0.06935 0.9255 0.0
H489 H 0.74266 0.13034 0.9447 0.0
H490 H 0.72075 0.103 0.97095 0.0
H491 H 0.77776 0.16741 0.90936 0.0
H492 H 0.78991 0.12384 0.91 0.0
H493 H 0.81008 0.19088 0.9172 0.0
H494 H 0.82238 0.14712 0.9157 0.0
H495 H 0.90114 0.25554 0.89145 0.0
H496 H 0.91313 0.26726 0.84651 0.0
H497 H 0.91957 0.22027 0.82988 0.0
H498 H 0.90787 0.20873 0.87585 0.0
H499 H 0.92717 0.23203 0.94038 0.0
H500 H 0.94585 0.2588 0.9712 0.0
H501 H 0.90536 0.27448 0.96693 0.0
H502 H 0.88648 0.24729 0.93717 0.0
H503 H 0.86974 0.22814 0.89276 0.0
H504 H 0.83719 0.2054 0.893 0.0
H505 H 0.84651 0.16951 0.94281 0.0
N506 N 0.8969 0.22399 0.91424 0.0
H507 H 0.87954 0.19207 0.94072 0.0
C508 C 0.75818 0.12597 0.8733 0.0
C509 C 0.74288 0.1255 0.86254 0.0
C510 C 0.7367 0.11845 0.83602 0.0
C511 C 0.74576 0.11173 0.81966 0.0
C512 C 0.76153 0.11287 0.83003 0.0
C513 C 0.76765 0.11985 0.85658 0.0
C514 C 0.75242 0.11555 0.92017 0.0
C515 C 0.75122 0.09834 0.91571 0.0
C516 C 0.73855 0.08271 0.93028 0.0
C517 C 0.72719 0.08411 0.94995 0.0
C518 C 0.72942 0.10161 0.95593 0.0
C519 C 0.74188 0.11718 0.941 0.0
C520 C 0.78146 0.14398 0.90862 0.0
C521 C 0.78747 0.16296 0.91114 0.0
C522 C 0.806 0.17634 0.91533 0.0
C523 C 0.81904 0.17103 0.91659 0.0
C524 C 0.81283 0.15184 0.91509 0.0
C525 C 0.7942 0.13843 0.91147 0.0
C526 C 0.90367 0.23118 0.88728 0.0
C527 C 0.90516 0.24769 0.87841 0.0
C528 C 0.91188 0.25434 0.85241 0.0
C529 C 0.91721 0.24466 0.83448 0.0
C530 C 0.91571 0.22814 0.84328 0.0
C531 C 0.90897 0.22148 0.86943 0.0
C532 C 0.90559 0.23774 0.93619 0.0
C533 C 0.92213 0.24097 0.94675 0.0
C534 C 0.93284 0.25638 0.96413 0.0
C535 C 0.9273 0.26903 0.97108 0.0
C536 C 0.91004 0.26501 0.96211 0.0
C537 C 0.89923 0.24946 0.94492 0.0
C538 C 0.87726 0.21165 0.91627 0.0
C539 C 0.86493 0.21541 0.90365 0.0
C540 C 0.84611 0.20237 0.90415 0.0
C541 C 0.83905 0.18544 0.91782 0.0
C542 C 0.85138 0.18215 0.93152 0.0
C543 C 0.87027 0.19508 0.93059 0.0
H544 H 0.78702 0.72587 0.8819 0.0
N545 N 0.79885 0.70515 0.90249 0.0
H546 H 0.77028 0.72032 0.83902 0.0
H547 H 0.79309 0.67908 0.86245 0.0
H548 H 0.77663 0.67358 0.81938 0.0
H549 H 0.77922 0.66699 0.90608 0.0
H550 H 0.75159 0.64849 0.93317 0.0
H551 H 0.78538 0.71767 0.94082 0.0
H552 H 0.75731 0.69936 0.96722 0.0
H553 H 0.82866 0.7256 0.87187 0.0
H554 H 0.80845 0.68555 0.93663 0.0
H555 H 0.85742 0.72635 0.87184 0.0
H556 H 0.83716 0.68655 0.93665 0.0
H557 H 0.95111 0.73111 0.8776 0.0
H558 H 0.96186 0.72774 0.83226 0.0
H559 H 0.90762 0.68085 0.81334 0.0
H560 H 0.8972 0.68394 0.85862 0.0
H561 H 0.91283 0.67421 0.8946 0.0
H562 H 0.92308 0.66015 0.9265 0.0
H563 H 0.93991 0.70698 0.9832 0.0
H564 H 0.931 0.72175 0.94971 0.0
H565 H 0.91315 0.73793 0.89781 0.0
H566 H 0.88417 0.73707 0.90005 0.0
H567 H 0.85489 0.67714 0.90821 0.0
N568 N 0.91809 0.7094 0.89935 0.0
H569 H 0.88396 0.67823 0.90653 0.0
C570 C 0.79124 0.70293 0.87543 0.0
C571 C 0.78504 0.71464 0.86807 0.0
C572 C 0.77553 0.71146 0.84355 0.0
C573 C 0.77201 0.69642 0.82586 0.0
C574 C 0.77886 0.6851 0.83277 0.0
C575 C 0.78835 0.68828 0.85732 0.0
C576 C 0.78445 0.69379 0.92159 0.0
C577 C 0.77475 0.67414 0.91984 0.0
C578 C 0.75884 0.66357 0.93522 0.0
C579 C 0.75204 0.67239 0.95221 0.0
C580 C 0.76222 0.69203 0.95473 0.0
C581 C 0.77826 0.70257 0.93961 0.0
C582 C 0.81569 0.70488 0.90316 0.0
C583 C 0.83022 0.71677 0.88583 0.0
C584 C 0.84679 0.71736 0.88604 0.0
C585 C 0.84952 0.70636 0.90406 0.0
C586 C 0.83531 0.69485 0.92202 0.0
C587 C 0.81868 0.69424 0.92183 0.0
C588 C 0.9234 0.70792 0.87161 0.0
C589 C 0.94154 0.72026 0.86349 0.0
C590 C 0.94762 0.71835 0.83756 0.0
C591 C 0.93561 0.70397 0.81921 0.0
C592 C 0.91728 0.69191 0.82711 0.0
C593 C 0.91124 0.6938 0.85301 0.0
C594 C 0.92171 0.69944 0.91937 0.0
C595 C 0.91881 0.68156 0.91377 0.0
C596 C 0.92447 0.67333 0.93243 0.0
C597 C 0.93265 0.68246 0.95753 0.0
C598 C 0.93425 0.69972 0.96382 0.0
C599 C 0.929 0.70815 0.94482 0.0
C600 C 0.90075 0.70825 0.90205 0.0
C601 C 0.90046 0.72466 0.9003 0.0
C602 C 0.88389 0.7241 0.90137 0.0
C603 C 0.86719 0.70701 0.90413 0.0
C604 C 0.86751 0.69054 0.90635 0.0
C605 C 0.88413 0.69114 0.9053 0.0
H606 H 0.73084 0.61728 0.49707 0.0
N607 N 0.75889 0.64259 0.46796 0.0
H608 H 0.72126 0.62153 0.54293 0.0
H609 H 0.7777 0.67356 0.50201 0.0
H610 H 0.76835 0.67784 0.54744 0.0
H611 H 0.77184 0.67953 0.45833 0.0
H612 H 0.75695 0.6912 0.43035 0.0
H613 H 0.73155 0.623 0.43305 0.0
H614 H 0.71656 0.63465 0.40462 0.0
H615 H 0.76166 0.61303 0.45861 0.0
H616 H 0.79407 0.67314 0.46557 0.0
H617 H 0.78962 0.61222 0.45288 0.0
H618 H 0.82193 0.6725 0.46182 0.0
H619 H 0.8879 0.62241 0.48105 0.0
H620 H 0.90381 0.62894 0.5249 0.0
H621 H 0.89487 0.67436 0.54117 0.0
H622 H 0.87952 0.66806 0.4969 0.0
H623 H 0.89961 0.67924 0.45552 0.0
H624 H 0.92536 0.69459 0.42408 0.0
H625 H 0.90861 0.64113 0.385 0.0
H626 H 0.88238 0.62598 0.41604 0.0
H627 H 0.84261 0.61609 0.47813 0.0
H628 H 0.81425 0.61624 0.47868 0.0
H629 H 0.84105 0.66734 0.4335 0.0
N630 N 0.87503 0.64156 0.45843 0.0
H631 H 0.86937 0.66772 0.43438 0.0
C632 C 0.7549 0.64502 0.49598 0.0
C633 C 0.73919 0.63042 0.50821 0.0
C634 C 0.73379 0.63286 0.53436 0.0
C635 C 0.744 0.65008 0.54866 0.0
C636 C 0.76007 0.66451 0.53673 0.0
C637 C 0.76549 0.66202 0.51068 0.0
C638 C 0.75275 0.65027 0.44786 0.0
C639 C 0.76013 0.66961 0.44617 0.0
C640 C 0.75159 0.67632 0.43005 0.0
C641 C 0.73548 0.66383 0.41551 0.0
C642 C 0.72883 0.6446 0.41589 0.0
C643 C 0.73741 0.63792 0.43193 0.0
C644 C 0.77568 0.64303 0.46285 0.0
C645 C 0.77483 0.62604 0.45895 0.0
C646 C 0.79084 0.62563 0.45597 0.0
C647 C 0.80814 0.64229 0.45722 0.0
C648 C 0.80891 0.65938 0.46044 0.0
C649 C 0.79286 0.65976 0.46298 0.0
C650 C 0.8825 0.64464 0.48573 0.0
C651 C 0.8892 0.6336 0.49431 0.0
C652 C 0.8982 0.63732 0.51942 0.0
C653 C 0.90066 0.65222 0.53659 0.0
C654 C 0.89345 0.66296 0.5283 0.0
C655 C 0.88453 0.65928 0.50308 0.0
C656 C 0.88901 0.65138 0.43806 0.0
C657 C 0.90127 0.67085 0.43989 0.0
C658 C 0.91609 0.67962 0.42196 0.0
C659 C 0.9192 0.6691 0.40215 0.0
C660 C 0.90653 0.64973 0.39974 0.0
C661 C 0.89157 0.641 0.41751 0.0
C662 C 0.85832 0.64182 0.45648 0.0
C663 C 0.84233 0.62731 0.46832 0.0
C664 C 0.82607 0.62735 0.46839 0.0
C665 C 0.82529 0.64183 0.45614 0.0
C666 C 0.84119 0.65616 0.44364 0.0
C667 C 0.85754 0.65628 0.444 0.0
H668 H 0.38135 0.11425 0.46991 0.0
N669 N 0.3599 0.1242 0.44721 0.0
H670 H 0.37704 0.09922 0.51373 0.0
H671 H 0.33407 0.11849 0.48603 0.0
H672 H 0.3302 0.10443 0.53034 0.0
H673 H 0.32401 0.09539 0.44427 0.0
H674 H 0.31176 0.06769 0.41445 0.0
H675 H 0.37671 0.1188 0.40514 0.0
H676 H 0.36481 0.09066 0.37593 0.0
H677 H 0.38608 0.15966 0.455 0.0
H678 H 0.32883 0.12458 0.43398 0.0
H679 H 0.38336 0.18713 0.45492 0.0
H680 H 0.32615 0.1519 0.43289 0.0
H681 H 0.37579 0.25794 0.49571 0.0
H682 H 0.3709 0.26603 0.54242 0.0
H683 H 0.31235 0.23343 0.52878 0.0
H684 H 0.31734 0.22522 0.48274 0.0
H685 H 0.31642 0.21715 0.43406 0.0
H686 H 0.30242 0.22929 0.4046 0.0
H687 H 0.3528 0.28328 0.40662 0.0
H688 H 0.36666 0.27099 0.43596 0.0
H689 H 0.37711 0.23515 0.43368 0.0
H690 H 0.37907 0.20729 0.427 0.0
H691 H 0.32571 0.174 0.46431 0.0
N692 N 0.35054 0.23763 0.45781 0.0
H693 H 0.32363 0.20166 0.46985 0.0
C694 C 0.35819 0.11762 0.47469 0.0
C695 C 0.37031 0.11234 0.48325 0.0
C696 C 0.36785 0.10382 0.50837 0.0
C697 C 0.35321 0.10051 0.52563 0.0
C698 C 0.34142 0.10643 0.51741 0.0
C699 C 0.34377 0.11473 0.49212 0.0
C700 C 0.35134 0.1093 0.42679 0.0
C701 C 0.33286 0.09481 0.42878 0.0
C702 C 0.32591 0.07881 0.4119 0.0
C703 C 0.33735 0.07678 0.39302 0.0
C704 C 0.35553 0.09177 0.39 0.0
C705 C 0.3624 0.10787 0.40672 0.0
C706 C 0.35782 0.14003 0.4444 0.0
C707 C 0.37302 0.15793 0.44987 0.0
C708 C 0.37143 0.17362 0.44967 0.0
C709 C 0.35452 0.17176 0.44386 0.0
C710 C 0.33933 0.15383 0.43779 0.0
C711 C 0.34091 0.13812 0.43816 0.0
C712 C 0.34703 0.24103 0.48569 0.0
C713 C 0.36193 0.25241 0.50302 0.0
C714 C 0.3591 0.2571 0.52957 0.0
C715 C 0.34123 0.25041 0.53931 0.0
C716 C 0.32628 0.23862 0.5221 0.0
C717 C 0.32914 0.23397 0.49559 0.0
C718 C 0.34265 0.24326 0.43727 0.0
C719 C 0.32455 0.23149 0.4278 0.0
C720 C 0.31652 0.23848 0.41106 0.0
C721 C 0.32646 0.25727 0.40335 0.0
C722 C 0.34482 0.26869 0.41185 0.0
C723 C 0.35276 0.26173 0.42866 0.0
C724 C 0.35039 0.2206 0.45246 0.0
C725 C 0.36578 0.22176 0.44007 0.0
C726 C 0.36691 0.20585 0.43649 0.0
C727 C 0.35263 0.18839 0.44538 0.0
C728 C 0.3369 0.18715 0.45697 0.0
C729 C 0.33575 0.20306 0.46038 0.0
H730 H 0.75807 0.08726 0.4771 0.0
N731 N 0.76244 0.11827 0.4524 0.0
H732 H 0.74111 0.0734 0.5187 0.0
H733 H 0.74746 0.1319 0.48668 0.0
H734 H 0.73036 0.11793 0.52902 0.0
H735 H 0.73313 0.10875 0.4223 0.0
H736 H 0.71685 0.08162 0.39106 0.0
H737 H 0.77546 0.09639 0.43302 0.0
H738 H 0.75905 0.06899 0.40264 0.0
H739 H 0.78831 0.11602 0.4823 0.0
H740 H 0.78129 0.14869 0.42294 0.0
H741 H 0.82093 0.13836 0.48333 0.0
H742 H 0.81445 0.17071 0.42241 0.0
H743 H 0.9254 0.2128 0.49341 0.0
H744 H 0.93625 0.22742 0.53895 0.0
H745 H 0.89257 0.23861 0.544 0.0
H746 H 0.88198 0.22434 0.49864 0.0
H747 H 0.90316 0.24449 0.45872 0.0
H748 H 0.92424 0.26776 0.42641 0.0
H749 H 0.9361 0.22763 0.39083 0.0
H750 H 0.91513 0.20443 0.42356 0.0
H751 H 0.88098 0.17281 0.46584 0.0
H752 H 0.84832 0.14982 0.45991 0.0
H753 H 0.83853 0.19464 0.44815 0.0
N754 N 0.89775 0.20967 0.46495 0.0
H755 H 0.87131 0.21726 0.4522 0.0
C756 C 0.75389 0.11063 0.47842 0.0
C757 C 0.75214 0.09416 0.4881 0.0
C758 C 0.74237 0.08617 0.51196 0.0
C759 C 0.7342 0.09444 0.52686 0.0
C760 C 0.73653 0.11127 0.5179 0.0
C761 C 0.74625 0.11924 0.49378 0.0
C762 C 0.75538 0.10455 0.43016 0.0
C763 C 0.73909 0.1004 0.41742 0.0
C764 C 0.72974 0.08481 0.39983 0.0
C765 C 0.73647 0.07293 0.39477 0.0
C766 C 0.75351 0.07787 0.40597 0.0
C767 C 0.76292 0.09356 0.42346 0.0
C768 C 0.78212 0.13083 0.45285 0.0
C769 C 0.7937 0.12794 0.46931 0.0
C770 C 0.81259 0.14071 0.46959 0.0
C771 C 0.82048 0.15646 0.45296 0.0
C772 C 0.80891 0.15901 0.43594 0.0
C773 C 0.78995 0.14637 0.43604 0.0
C774 C 0.90279 0.2172 0.49259 0.0
C775 C 0.91809 0.21826 0.50449 0.0
C776 C 0.92431 0.22669 0.53035 0.0
C777 C 0.91523 0.23413 0.54496 0.0
C778 C 0.8997 0.2328 0.5333 0.0
C779 C 0.89362 0.22458 0.50727 0.0
C780 C 0.90781 0.22276 0.44375 0.0
C781 C 0.91006 0.24058 0.44376 0.0
C782 C 0.92213 0.25388 0.42532 0.0
C783 C 0.93189 0.24951 0.40629 0.0
C784 C 0.92867 0.23133 0.40516 0.0
C785 C 0.91678 0.21811 0.42384 0.0
C786 C 0.87854 0.19667 0.45983 0.0
C787 C 0.87173 0.17756 0.46167 0.0
C788 C 0.85303 0.16449 0.45855 0.0
C789 C 0.84062 0.17031 0.45398 0.0
C790 C 0.84759 0.18954 0.45139 0.0
C791 C 0.86638 0.20258 0.45399 0.0
H792 H 0.01517 0.5903 0.21485 0.0
N793 N 0.9861 0.55835 0.23578 0.0
H794 H 0.01683 0.60315 0.17044 0.0
H795 H 0.961 0.54355 0.19594 0.0
H796 H 0.9628 0.55618 0.15053 0.0
H797 H 0.96333 0.56742 0.2581 0.0
H798 H 0.97111 0.59397 0.28918 0.0
H799 H 0.01906 0.58042 0.26234 0.0
H800 H 0.02693 0.607 0.29326 0.0
H801 H 0.01723 0.56162 0.21261 0.0
H802 H 0.97166 0.5281 0.26604 0.0
H803 H 0.02708 0.53964 0.21553 0.0
H804 H 0.98235 0.50653 0.27095 0.0
H805 H 0.05197 0.46392 0.2037 0.0
H806 H 0.04821 0.44926 0.15808 0.0
H807 H 0.99395 0.44027 0.15248 0.0
H808 H 0.99741 0.45424 0.19811 0.0
H809 H 0.99521 0.43399 0.24029 0.0
H810 H 0.99167 0.4083 0.26696 0.0
H811 H 0.048 0.4428 0.2938 0.0
H812 H 0.05111 0.4687 0.26792 0.0
H813 H 0.04914 0.50407 0.23493 0.0
H814 H 0.04046 0.52735 0.24059 0.0
H815 H 0.98363 0.4829 0.24788 0.0
N816 N 0.02728 0.46726 0.23243 0.0
H817 H 0.99272 0.46004 0.24452 0.0
C818 C 0.98784 0.56589 0.2089 0.0
C819 C 0.00361 0.5827 0.20111 0.0
C820 C 0.00463 0.58999 0.17546 0.0
C821 C 0.98998 0.58067 0.15681 0.0
C822 C 0.97426 0.5638 0.1645 0.0
C823 C 0.97324 0.5565 0.19031 0.0
C824 C 0.99052 0.57192 0.25781 0.0
C825 C 0.97712 0.57574 0.26627 0.0
C826 C 0.98161 0.59095 0.28384 0.0
C827 C 0.99968 0.60266 0.29338 0.0
C828 C 0.01288 0.59814 0.28637 0.0
C829 C 0.00838 0.58294 0.26865 0.0
C830 C 0.99328 0.5463 0.2386 0.0
C831 C 0.00934 0.54961 0.22521 0.0
C832 C 0.01521 0.53704 0.2273 0.0
C833 C 0.00554 0.52111 0.24343 0.0
C834 C 0.98995 0.51833 0.25779 0.0
C835 C 0.98387 0.53072 0.25521 0.0
C836 C 0.02519 0.4605 0.20437 0.0
C837 C 0.03937 0.45901 0.19247 0.0
C838 C 0.03717 0.45056 0.16658 0.0
C839 C 0.0208 0.44369 0.15191 0.0
C840 C 0.00676 0.44562 0.16337 0.0
C841 C 0.00881 0.45372 0.18952 0.0
C842 C 0.02346 0.45337 0.25229 0.0
C843 C 0.00656 0.43631 0.2528 0.0
C844 C 0.00465 0.4215 0.26776 0.0
C845 C 0.01965 0.42336 0.28218 0.0
C846 C 0.03612 0.44087 0.28315 0.0
C847 C 0.03795 0.45571 0.26836 0.0
C848 C 0.02164 0.48035 0.2388 0.0
C849 C 0.03486 0.49946 0.23828 0.0
C850 C 0.0298 0.51272 0.24118 0.0
C851 C 0.01123 0.50712 0.24407 0.0
C852 C 0.99807 0.48789 0.24589 0.0
C853 C 0.00324 0.47467 0.24366 0.0
H854 H 0.59345 0.54514 0.20888 0.0
N855 N 0.57497 0.55384 0.24415 0.0
H856 H 0.6041 0.55739 0.16294 0.0
H857 H 0.56782 0.57747 0.21741 0.0
H858 H 0.57846 0.58983 0.172 0.0
H859 H 0.55756 0.57073 0.26712 0.0
H860 H 0.57238 0.59983 0.29489 0.0
H861 H 0.60786 0.57074 0.26668 0.0
H862 H 0.62272 0.59982 0.2942 0.0
H863 H 0.56753 0.52283 0.26819 0.0
H864 H 0.54174 0.54804 0.22796 0.0
H865 H 0.53802 0.4933 0.27005 0.0
H866 H 0.5125 0.51854 0.22849 0.0
H867 H 0.4475 0.39981 0.20999 0.0
H868 H 0.43352 0.38848 0.16471 0.0
H869 H 0.43744 0.4411 0.15229 0.0
H870 H 0.45107 0.45212 0.19773 0.0
H871 H 0.42984 0.44096 0.23721 0.0
H872 H 0.4025 0.42673 0.26561 0.0
H873 H 0.42063 0.39348 0.30373 0.0
H874 H 0.44846 0.4085 0.27592 0.0
H875 H 0.49015 0.43901 0.23285 0.0
H876 H 0.51868 0.46924 0.23814 0.0
H877 H 0.48756 0.49556 0.25447 0.0
N878 N 0.45619 0.43176 0.23536 0.0
H879 H 0.45924 0.46551 0.24802 0.0
C880 C 0.57983 0.56029 0.21653 0.0
C881 C 0.58999 0.55473 0.20072 0.0
C882 C 0.59614 0.56182 0.17463 0.0
C883 C 0.59213 0.57459 0.16387 0.0
C884 C 0.58157 0.57982 0.17953 0.0
C885 C 0.5755 0.57278 0.20561 0.0
C886 C 0.58169 0.56857 0.26481 0.0
C887 C 0.57161 0.57668 0.27358 0.0
C888 C 0.58007 0.5933 0.28942 0.0
C889 C 0.59871 0.6021 0.29634 0.0
C890 C 0.60837 0.59338 0.28889 0.0
C891 C 0.5999 0.57675 0.27338 0.0
C892 C 0.55695 0.53757 0.24773 0.0
C893 C 0.55545 0.52201 0.25997 0.0
C894 C 0.53862 0.50512 0.26073 0.0
C895 C 0.52289 0.5034 0.24901 0.0
C896 C 0.52425 0.51932 0.23788 0.0
C897 C 0.54109 0.53626 0.23737 0.0
C898 C 0.45034 0.42674 0.20725 0.0
C899 C 0.44562 0.40897 0.19723 0.0
C900 C 0.43768 0.40257 0.17135 0.0
C901 C 0.43427 0.41385 0.15493 0.0
C902 C 0.43965 0.43197 0.16459 0.0
C903 C 0.44759 0.43836 0.19052 0.0
C904 C 0.44133 0.42585 0.25458 0.0
C905 C 0.42828 0.43106 0.25223 0.0
C906 C 0.41247 0.42271 0.26831 0.0
C907 C 0.40922 0.40878 0.28676 0.0
C908 C 0.42274 0.40429 0.29 0.0
C909 C 0.43864 0.41279 0.27407 0.0
C910 C 0.47254 0.44984 0.24017 0.0
C911 C 0.48954 0.45132 0.23774 0.0
C912 C 0.50582 0.46861 0.241 0.0
C913 C 0.50547 0.48489 0.24693 0.0
C914 C 0.48837 0.48337 0.24966 0.0
C915 C 0.47207 0.46605 0.24617 0.0
H916 H 0.54579 0.95206 0.17342 0.0
N917 N 0.54306 0.97565 0.20734 0.0
H918 H 0.56366 0.95915 0.13129 0.0
H919 H 0.5632 0.01007 0.18453 0.0
H920 H 0.58072 0.01733 0.14181 0.0
H921 H 0.57556 0.0047 0.22747 0.0
H922 H 0.59445 0.00298 0.26271 0.0
H923 H 0.53419 0.94678 0.23854 0.0
H924 H 0.55298 0.94494 0.27423 0.0
H925 H 0.5124 0.96458 0.18004 0.0
H926 H 0.54695 0.00346 0.24374 0.0
H927 H 0.4917 0.97608 0.18484 0.0
H928 H 0.52568 0.01399 0.25016 0.0
H929 H 0.42283 0.99153 0.21418 0.0
H930 H 0.40656 0.98735 0.17168 0.0
H931 H 0.4515 0.04033 0.14422 0.0
H932 H 0.46754 0.0447 0.18755 0.0
H933 H 0.44663 0.04386 0.25253 0.0
H934 H 0.42337 0.03605 0.28783 0.0
H935 H 0.418 0.98247 0.29669 0.0
H936 H 0.44064 0.99001 0.26129 0.0
H937 H 0.44813 0.98597 0.2158 0.0
H938 H 0.46934 0.97523 0.2123 0.0
H939 H 0.51424 0.03116 0.23258 0.0
N940 N 0.45647 0.02154 0.22924 0.0
H941 H 0.49243 0.04143 0.2381 0.0
C942 C 0.55306 0.98044 0.18191 0.0
C943 C 0.55331 0.9663 0.16646 0.0
C944 C 0.56345 0.9704 0.14233 0.0
C945 C 0.57353 0.98881 0.13299 0.0
C946 C 0.57323 0.00304 0.14851 0.0
C947 C 0.56313 0.9989 0.17282 0.0
C948 C 0.55344 0.97579 0.23039 0.0
C949 C 0.5704 0.99169 0.23783 0.0
C950 C 0.58114 0.99071 0.25813 0.0
C951 C 0.57522 0.9738 0.27118 0.0
C952 C 0.55797 0.95811 0.26434 0.0
C953 C 0.54719 0.95915 0.24415 0.0
C954 C 0.53117 0.98289 0.21153 0.0
C955 C 0.51539 0.97543 0.19531 0.0
C956 C 0.50346 0.98193 0.19833 0.0
C957 C 0.50679 0.99586 0.21819 0.0
C958 C 0.52271 0.00343 0.23441 0.0
C959 C 0.53488 0.9972 0.23093 0.0
C960 C 0.44644 0.01858 0.20416 0.0
C961 C 0.42921 0.00232 0.19914 0.0
C962 C 0.41995 0.99985 0.17463 0.0
C963 C 0.42774 0.01347 0.15443 0.0
C964 C 0.445 0.02968 0.15945 0.0
C965 C 0.45423 0.03217 0.18409 0.0
C966 C 0.44543 0.01763 0.25374 0.0
C967 C 0.44072 0.0306 0.26255 0.0
C968 C 0.42746 0.02612 0.28281 0.0
C969 C 0.41864 0.00851 0.29485 0.0
C970 C 0.42426 0.99601 0.28742 0.0
C971 C 0.43743 0.00044 0.26706 0.0
C972 C 0.46866 0.01454 0.22771 0.0
C973 C 0.46247 0.9959 0.21994 0.0
C974 C 0.47476 0.98981 0.21755 0.0
C975 C 0.49365 0.00231 0.22193 0.0
C976 C 0.4998 0.02099 0.22952 0.0
C977 C 0.48739 0.02696 0.23254 0.0
H978 H 0.38276 0.94328 0.81347 0.0
N979 N 0.41447 0.96518 0.78841 0.0
H980 H 0.3735 0.94779 0.85938 0.0
H981 H 0.43586 0.99328 0.82535 0.0
H982 H 0.42676 0.99791 0.87124 0.0
H983 H 0.42155 0.00107 0.78819 0.0
H984 H 0.40999 0.01353 0.75562 0.0
H985 H 0.39764 0.94934 0.74116 0.0
H986 H 0.38716 0.96227 0.70689 0.0
H987 H 0.42071 0.93902 0.80329 0.0
H988 H 0.44734 0.99359 0.76826 0.0
H989 H 0.44936 0.93957 0.80122 0.0
H990 H 0.47568 0.99366 0.76385 0.0
H991 H 0.54661 0.94603 0.79431 0.0
H992 H 0.5639 0.94984 0.83591 0.0
H993 H 0.55021 0.98933 0.86859 0.0
H994 H 0.53387 0.98617 0.82691 0.0
H995 H 0.56082 0.00129 0.78603 0.0
H996 H 0.58682 0.0165 0.75527 0.0
H997 H 0.5589 0.96988 0.69746 0.0
H998 H 0.53347 0.95414 0.72966 0.0
H999 H 0.49767 0.93646 0.77404 0.0
H1000 H 0.46932 0.9366 0.77336 0.0
H1001 H 0.50057 0.9967 0.78602 0.0
N1002 N 0.53158 0.96535 0.78043 0.0
H1003 H 0.52882 0.99638 0.78423 0.0
C1004 C 0.4099 0.9679 0.81601 0.0
C1005 C 0.39243 0.95514 0.82612 0.0
C1006 C 0.38722 0.9577 0.85234 0.0
C1007 C 0.3994 0.97322 0.86888 0.0
C1008 C 0.41703 0.98592 0.85885 0.0
C1009 C 0.42227 0.98326 0.8327 0.0
C1010 C 0.40997 0.97395 0.76756 0.0
C1011 C 0.41399 0.99242 0.77064 0.0
C1012 C 0.40756 0.99969 0.75158 0.0
C1013 C 0.39736 0.98889 0.72857 0.0
C1014 C 0.39447 0.97086 0.72467 0.0
C1015 C 0.40059 0.96347 0.74408 0.0
C1016 C 0.4317 0.96604 0.78565 0.0
C1017 C 0.43271 0.95098 0.79467 0.0
C1018 C 0.44912 0.95128 0.79317 0.0
C1019 C 0.46497 0.96656 0.78197 0.0
C1020 C 0.46393 0.98172 0.77289 0.0
C1021 C 0.44756 0.9816 0.77507 0.0
C1022 C 0.53885 0.9657 0.80716 0.0
C1023 C 0.5471 0.95525 0.8107 0.0
C1024 C 0.55695 0.95743 0.83454 0.0
C1025 C 0.55866 0.97008 0.85553 0.0
C1026 C 0.54955 0.97979 0.8526 0.0
C1027 C 0.53992 0.97778 0.82866 0.0
C1028 C 0.54539 0.97629 0.7604 0.0
C1029 C 0.56021 0.9944 0.76664 0.0
C1030 C 0.57507 0.00321 0.74876 0.0
C1031 C 0.57525 0.99433 0.72391 0.0
C1032 C 0.55959 0.97693 0.71673 0.0
C1033 C 0.54492 0.96797 0.73493 0.0
C1034 C 0.51527 0.96628 0.77967 0.0
C1035 C 0.49831 0.94963 0.77646 0.0
C1036 C 0.4821 0.94978 0.77639 0.0
C1037 C 0.48244 0.96664 0.78017 0.0
C1038 C 0.49961 0.98343 0.78279 0.0
C1039 C 0.51586 0.98328 0.78211 0.0
H1040 H 0.97634 0.56206 0.81024 0.0
N1041 N 0.00584 0.56192 0.78786 0.0
H1042 H 0.97468 0.57372 0.85577 0.0
H1043 H 0.03152 0.57607 0.82654 0.0
H1044 H 0.03002 0.58802 0.87234 0.0
H1045 H 0.02958 0.59367 0.76426 0.0
H1046 H 0.02295 0.61128 0.73243 0.0
H1047 H 0.97271 0.54921 0.76192 0.0
H1048 H 0.9661 0.56654 0.73016 0.0
H1049 H 0.97132 0.53188 0.79778 0.0
H1050 H 0.02612 0.54766 0.77396 0.0
H1051 H 0.9619 0.49923 0.79568 0.0
H1052 H 0.01727 0.51493 0.77414 0.0
H1053 H 0.94715 0.40083 0.82925 0.0
H1054 H 0.9551 0.39339 0.87287 0.0
H1055 H 0.01082 0.43988 0.86441 0.0
H1056 H 0.00271 0.44694 0.82042 0.0
H1057 H 0.00057 0.43033 0.7769 0.0
H1058 H 0.00241 0.40852 0.74489 0.0
H1059 H 0.94368 0.37893 0.73339 0.0
H1060 H 0.94212 0.40122 0.76491 0.0
H1061 H 0.95572 0.44549 0.82336 0.0
H1062 H 0.96426 0.47785 0.82021 0.0
H1063 H 0.00141 0.48526 0.754 0.0
N1064 N 0.96906 0.42772 0.7956 0.0
H1065 H 0.99378 0.45336 0.75864 0.0
C1066 C 0.00418 0.5683 0.81488 0.0
C1067 C 0.98813 0.56764 0.82357 0.0
C1068 C 0.98722 0.57441 0.84963 0.0
C1069 C 0.00226 0.58188 0.8676 0.0
C1070 C 0.01816 0.58221 0.85905 0.0
C1071 C 0.01908 0.5755 0.83291 0.0
C1072 C 0.00178 0.57016 0.7657 0.0
C1073 C 0.01579 0.58751 0.75637 0.0
C1074 C 0.01197 0.59752 0.73815 0.0
C1075 C 0.99396 0.59035 0.72896 0.0
C1076 C 0.98007 0.57253 0.73718 0.0
C1077 C 0.98391 0.56252 0.75534 0.0
C1078 C 0.99944 0.5423 0.78541 0.0
C1079 C 0.98134 0.52835 0.79176 0.0
C1080 C 0.97603 0.50956 0.79108 0.0
C1081 C 0.98881 0.50425 0.78498 0.0
C1082 C 0.00689 0.51829 0.77844 0.0
C1083 C 0.01205 0.53706 0.77849 0.0
C1084 C 0.97425 0.4244 0.82175 0.0
C1085 C 0.96103 0.40944 0.83696 0.0
C1086 C 0.96561 0.4053 0.86191 0.0
C1087 C 0.98359 0.41612 0.87223 0.0
C1088 C 0.99689 0.43119 0.85693 0.0
C1089 C 0.99227 0.4353 0.83188 0.0
C1090 C 0.97113 0.41737 0.77325 0.0
C1091 C 0.98816 0.41943 0.76698 0.0
C1092 C 0.98917 0.40685 0.7488 0.0
C1093 C 0.97317 0.39182 0.7368 0.0
C1094 C 0.95631 0.39044 0.74199 0.0
C1095 C 0.95535 0.40311 0.76003 0.0
C1096 C 0.97403 0.44679 0.7915 0.0
C1097 C 0.96573 0.45412 0.80818 0.0
C1098 C 0.97052 0.47265 0.8061 0.0
C1099 C 0.9835 0.48432 0.78669 0.0
C1100 C 0.9916 0.47687 0.76953 0.0
C1101 C 0.98708 0.45839 0.77206 0.0
H1102 H 0.43683 0.42263 0.81621 0.0
N1103 N 0.43917 0.45374 0.79546 0.0
H1104 H 0.42511 0.40957 0.86083 0.0
H1105 H 0.42722 0.46721 0.83501 0.0
H1106 H 0.41567 0.45429 0.88039 0.0
H1107 H 0.40696 0.44341 0.77379 0.0
H1108 H 0.38834 0.41659 0.74292 0.0
H1109 H 0.45108 0.43295 0.76711 0.0
H1110 H 0.43257 0.40622 0.73696 0.0
H1111 H 0.46701 0.44779 0.80682 0.0
H1112 H 0.45549 0.48915 0.78115 0.0
H1113 H 0.49956 0.47049 0.80496 0.0
H1114 H 0.48829 0.51266 0.78143 0.0
H1115 H 0.60144 0.55359 0.83205 0.0
H1116 H 0.61251 0.57158 0.87518 0.0
H1117 H 0.56977 0.58417 0.87178 0.0
H1118 H 0.55894 0.56627 0.82843 0.0
H1119 H 0.5738 0.57957 0.78514 0.0
H1120 H 0.59499 0.60273 0.75293 0.0
H1121 H 0.61794 0.56862 0.73421 0.0
H1122 H 0.59663 0.54545 0.76662 0.0
H1123 H 0.5549 0.51875 0.83084 0.0
H1124 H 0.52225 0.49575 0.82898 0.0
H1125 H 0.51678 0.52416 0.76087 0.0
N1126 N 0.57411 0.54879 0.80094 0.0
H1127 H 0.5491 0.54779 0.76414 0.0
C1128 C 0.4329 0.44599 0.8222 0.0
C1129 C 0.43237 0.42976 0.83002 0.0
C1130 C 0.42573 0.42232 0.85571 0.0
C1131 C 0.41951 0.43092 0.87425 0.0
C1132 C 0.42019 0.44723 0.86649 0.0
C1133 C 0.42686 0.45468 0.84071 0.0
C1134 C 0.43038 0.4403 0.77311 0.0
C1135 C 0.41279 0.43564 0.76521 0.0
C1136 C 0.40214 0.42023 0.74779 0.0
C1137 C 0.40891 0.40914 0.73785 0.0
C1138 C 0.42699 0.41454 0.74418 0.0
C1139 C 0.43763 0.42993 0.76167 0.0
C1140 C 0.4587 0.46668 0.79361 0.0
C1141 C 0.47144 0.46176 0.80063 0.0
C1142 C 0.4902 0.47495 0.8 0.0
C1143 C 0.49673 0.49358 0.79329 0.0
C1144 C 0.48391 0.49843 0.78623 0.0
C1145 C 0.46513 0.48506 0.78622 0.0
C1146 C 0.57943 0.55858 0.82713 0.0
C1147 C 0.59441 0.56011 0.8408 0.0
C1148 C 0.60063 0.57032 0.86545 0.0
C1149 C 0.59197 0.57926 0.87694 0.0
C1150 C 0.57682 0.57759 0.86331 0.0
C1151 C 0.57057 0.56731 0.83863 0.0
C1152 C 0.58378 0.56082 0.77843 0.0
C1153 C 0.58315 0.5769 0.77379 0.0
C1154 C 0.59529 0.59015 0.7554 0.0
C1155 C 0.60825 0.58758 0.74131 0.0
C1156 C 0.60802 0.57092 0.74463 0.0
C1157 C 0.5959 0.5577 0.76312 0.0
C1158 C 0.55469 0.5352 0.79797 0.0
C1159 C 0.54663 0.52007 0.81559 0.0
C1160 C 0.52792 0.50677 0.81425 0.0
C1161 C 0.51674 0.50792 0.79462 0.0
C1162 C 0.52483 0.52294 0.77659 0.0
C1163 C 0.54354 0.53652 0.77836 0.0
H1164 H 0.68353 0.92974 0.55424 0.0
N1165 N 0.65525 0.89816 0.57746 0.0
H1166 H 0.68479 0.93994 0.50794 0.0
H1167 H 0.62952 0.88166 0.53881 0.0
H1168 H 0.63087 0.89171 0.4917 0.0
H1169 H 0.63194 0.9052 0.60292 0.0
H1170 H 0.63916 0.93127 0.63463 0.0
H1171 H 0.68899 0.9225 0.60037 0.0
H1172 H 0.69639 0.94874 0.63196 0.0
H1173 H 0.68668 0.90173 0.5554 0.0
H1174 H 0.63995 0.86717 0.60621 0.0
H1175 H 0.69503 0.87845 0.55495 0.0
H1176 H 0.64921 0.84429 0.60819 0.0
H1177 H 0.71266 0.79817 0.53088 0.0
H1178 H 0.70628 0.7809 0.48741 0.0
H1179 H 0.65095 0.76982 0.48921 0.0
H1180 H 0.65714 0.78597 0.5334 0.0
H1181 H 0.65812 0.76997 0.5784 0.0
H1182 H 0.65652 0.74624 0.60789 0.0
H1183 H 0.71495 0.78093 0.62197 0.0
H1184 H 0.71619 0.80481 0.59327 0.0
H1185 H 0.71301 0.83828 0.56571 0.0
H1186 H 0.70659 0.86294 0.57501 0.0
H1187 H 0.6489 0.82093 0.58291 0.0
N1188 N 0.68942 0.80176 0.56278 0.0
H1189 H 0.65591 0.79664 0.57648 0.0
C1190 C 0.65628 0.90489 0.55021 0.0
C1191 C 0.67185 0.92137 0.54101 0.0
C1192 C 0.67266 0.92712 0.51428 0.0
C1193 C 0.65798 0.91657 0.49606 0.0
C1194 C 0.64235 0.90021 0.50532 0.0
C1195 C 0.64157 0.89443 0.53213 0.0
C1196 C 0.65985 0.91195 0.59916 0.0
C1197 C 0.64596 0.91442 0.60971 0.0
C1198 C 0.65012 0.92928 0.62787 0.0
C1199 C 0.66837 0.94211 0.6357 0.0
C1200 C 0.68223 0.93916 0.6261 0.0
C1201 C 0.678 0.92413 0.60813 0.0
C1202 C 0.66226 0.88597 0.58023 0.0
C1203 C 0.67831 0.88924 0.56689 0.0
C1204 C 0.68327 0.87587 0.56701 0.0
C1205 C 0.67272 0.85915 0.58126 0.0
C1206 C 0.6574 0.8566 0.59621 0.0
C1207 C 0.65218 0.86978 0.59544 0.0
C1208 C 0.68559 0.79367 0.5354 0.0
C1209 C 0.69925 0.79222 0.52163 0.0
C1210 C 0.69555 0.78238 0.49665 0.0
C1211 C 0.67806 0.77391 0.48453 0.0
C1212 C 0.66449 0.77585 0.49801 0.0
C1213 C 0.66813 0.78542 0.52331 0.0
C1214 C 0.68732 0.78921 0.58382 0.0
C1215 C 0.67044 0.77273 0.58861 0.0
C1216 C 0.66961 0.75906 0.6052 0.0
C1217 C 0.68565 0.76155 0.61706 0.0
C1218 C 0.70229 0.77857 0.61348 0.0
C1219 C 0.70307 0.79225 0.59704 0.0
C1220 C 0.68496 0.81569 0.5696 0.0
C1221 C 0.69903 0.83451 0.56978 0.0
C1222 C 0.69524 0.84858 0.57482 0.0
C1223 C 0.6771 0.84413 0.57915 0.0
C1224 C 0.66307 0.8251 0.57991 0.0
C1225 C 0.667 0.81105 0.57566 0.0
H1226 H 0.2692 0.89553 0.55134 0.0
N1227 N 0.23716 0.88597 0.57389 0.0
H1228 H 0.28127 0.91031 0.50729 0.0
H1229 H 0.2183 0.89227 0.53491 0.0
H1230 H 0.22987 0.90623 0.49078 0.0
H1231 H 0.22676 0.91172 0.57789 0.0
H1232 H 0.24025 0.93928 0.60834 0.0
H1233 H 0.25934 0.89324 0.61587 0.0
H1234 H 0.27333 0.92105 0.64599 0.0
H1235 H 0.23253 0.85254 0.57888 0.0
H1236 H 0.20257 0.88051 0.57547 0.0
H1237 H 0.20374 0.82238 0.57973 0.0
H1238 H 0.17383 0.85057 0.57385 0.0
H1239 H 0.10999 0.73229 0.53092 0.0
H1240 H 0.09748 0.72442 0.48432 0.0
H1241 H 0.1012 0.77758 0.48132 0.0
H1242 H 0.11364 0.78526 0.52794 0.0
H1243 H 0.09299 0.77249 0.56678 0.0
H1244 H 0.06659 0.7584 0.59727 0.0
H1245 H 0.08472 0.72356 0.62978 0.0
H1246 H 0.11142 0.73812 0.59945 0.0
H1247 H 0.15213 0.77173 0.54542 0.0
H1248 H 0.1807 0.80172 0.55061 0.0
H1249 H 0.15186 0.82387 0.59506 0.0
N1250 N 0.11882 0.76274 0.56096 0.0
H1251 H 0.12327 0.79437 0.58794 0.0
C1252 C 0.24287 0.89267 0.54652 0.0
C1253 C 0.26051 0.89764 0.53799 0.0
C1254 C 0.26734 0.90601 0.51277 0.0
C1255 C 0.25657 0.90955 0.49551 0.0
C1256 C 0.23865 0.90399 0.50374 0.0
C1257 C 0.23191 0.89577 0.52902 0.0
C1258 C 0.24209 0.90038 0.59464 0.0
C1259 C 0.23645 0.9133 0.59325 0.0
C1260 C 0.24433 0.9292 0.61054 0.0
C1261 C 0.25803 0.93251 0.62943 0.0
C1262 C 0.2627 0.91889 0.63194 0.0
C1263 C 0.25478 0.90301 0.61469 0.0
C1264 C 0.21978 0.86874 0.57659 0.0
C1265 C 0.21969 0.85212 0.5782 0.0
C1266 C 0.20319 0.83489 0.57833 0.0
C1267 C 0.1863 0.83385 0.57624 0.0
C1268 C 0.18644 0.85067 0.57565 0.0
C1269 C 0.20299 0.86793 0.57619 0.0
C1270 C 0.11264 0.75923 0.53289 0.0
C1271 C 0.10825 0.74227 0.52003 0.0
C1272 C 0.10122 0.73788 0.49341 0.0
C1273 C 0.09834 0.75038 0.47916 0.0
C1274 C 0.10309 0.76759 0.49189 0.0
C1275 C 0.11023 0.77201 0.51849 0.0
C1276 C 0.10421 0.75628 0.58079 0.0
C1277 C 0.09146 0.76201 0.58067 0.0
C1278 C 0.07628 0.75386 0.59807 0.0
C1279 C 0.07343 0.73973 0.61582 0.0
C1280 C 0.08658 0.73455 0.61661 0.0
C1281 C 0.1018 0.74277 0.59924 0.0
C1282 C 0.13548 0.78055 0.56628 0.0
C1283 C 0.15202 0.78308 0.55633 0.0
C1284 C 0.16841 0.80025 0.5596 0.0
C1285 C 0.16878 0.81536 0.57349 0.0
C1286 C 0.15218 0.81274 0.58387 0.0
C1287 C 0.13569 0.79563 0.58003 0.0
H1288 H 0.24082 0.33082 0.53014 0.0
N1289 N 0.24087 0.36092 0.55388 0.0
H1290 H 0.25344 0.3296 0.48613 0.0
H1291 H 0.25538 0.38742 0.51651 0.0
H1292 H 0.26758 0.38604 0.47126 0.0
H1293 H 0.27264 0.38254 0.57926 0.0
H1294 H 0.28895 0.37249 0.60771 0.0
H1295 H 0.22577 0.32624 0.57624 0.0
H1296 H 0.24215 0.31597 0.60392 0.0
H1297 H 0.21161 0.33006 0.52843 0.0
H1298 H 0.22625 0.3765 0.58443 0.0
H1299 H 0.17991 0.32108 0.53046 0.0
H1300 H 0.19393 0.36667 0.58831 0.0
H1301 H 0.08427 0.29396 0.52153 0.0
H1302 H 0.07234 0.29704 0.47814 0.0
H1303 H 0.10763 0.35711 0.48565 0.0
H1304 H 0.1191 0.35386 0.52919 0.0
H1305 H 0.10472 0.34983 0.57324 0.0
H1306 H 0.08402 0.34815 0.6094 0.0
H1307 H 0.07086 0.2924 0.62736 0.0
H1308 H 0.0908 0.2939 0.58992 0.0
H1309 H 0.12167 0.29883 0.55295 0.0
H1310 H 0.15363 0.30768 0.55624 0.0
H1311 H 0.16991 0.36577 0.56529 0.0
N1312 N 0.10849 0.32105 0.55463 0.0
H1313 H 0.13771 0.3564 0.56443 0.0
C1314 C 0.24726 0.35937 0.52691 0.0
C1315 C 0.24664 0.34302 0.51767 0.0
C1316 C 0.25372 0.34225 0.49216 0.0
C1317 C 0.26147 0.35769 0.47504 0.0
C1318 C 0.26187 0.37395 0.48407 0.0
C1319 C 0.25481 0.37474 0.50978 0.0
C1320 C 0.24813 0.35522 0.57537 0.0
C1321 C 0.26573 0.36812 0.58532 0.0
C1322 C 0.27506 0.36229 0.6013 0.0
C1323 C 0.26698 0.34334 0.60752 0.0
C1324 C 0.24874 0.33066 0.59951 0.0
C1325 C 0.23936 0.33654 0.58361 0.0
C1326 C 0.22157 0.35433 0.5559 0.0
C1327 C 0.20808 0.33833 0.54138 0.0
C1328 C 0.1897 0.33298 0.54291 0.0
C1329 C 0.18417 0.3431 0.55957 0.0
C1330 C 0.19762 0.35873 0.5748 0.0
C1331 C 0.2161 0.3643 0.57281 0.0
C1332 C 0.10258 0.32357 0.52855 0.0
C1333 C 0.08948 0.30775 0.51365 0.0
C1334 C 0.08278 0.30957 0.48882 0.0
C1335 C 0.08909 0.32734 0.47834 0.0
C1336 C 0.10236 0.34323 0.49326 0.0
C1337 C 0.10905 0.34138 0.51814 0.0
C1338 C 0.09887 0.32175 0.57852 0.0
C1339 C 0.09746 0.33731 0.58506 0.0
C1340 C 0.08574 0.33638 0.60602 0.0
C1341 C 0.07547 0.31999 0.62107 0.0
C1342 C 0.07813 0.30504 0.61574 0.0
C1343 C 0.08961 0.3059 0.59454 0.0
C1344 C 0.12742 0.32695 0.55771 0.0
C1345 C 0.1322 0.31344 0.55586 0.0
C1346 C 0.15051 0.31859 0.55748 0.0
C1347 C 0.16454 0.33753 0.56042 0.0
C1348 C 0.15958 0.35105 0.56313 0.0
C1349 C 0.14115 0.34577 0.56214 0.0
C1350 C 0.01847 0.40961 0.09742 0.0
C1351 C 0.01391 0.41562 0.074 0.0
H1352 H 0.0245 0.41406 0.1404 0.0
C1353 C 0.01117 0.43067 0.07651 0.0
H1354 H 0.02076 0.39811 0.09611 0.0
C1355 C 0.01307 0.43962 0.10195 0.0
C1356 C 0.01814 0.43391 0.12514 0.0
H1357 H 0.00762 0.43558 0.0588 0.0
H1358 H 0.01099 0.45125 0.10341 0.0
C1359 C 0.02075 0.4188 0.1227 0.0
C1360 C 0.59593 0.59483 0.0941 0.0
C1361 C 0.61436 0.60171 0.08739 0.0
H1362 H 0.57438 0.58064 0.12329 0.0
C1363 C 0.62517 0.59873 0.10537 0.0
H1364 H 0.58718 0.59679 0.08064 0.0
C1365 C 0.61782 0.58949 0.12987 0.0
C1366 C 0.59952 0.58308 0.13692 0.0
H1367 H 0.63942 0.60383 0.10078 0.0
H1368 H 0.62664 0.58789 0.14368 0.0
C1369 C 0.5886 0.58564 0.1186 0.0
C1370 C 0.39753 0.98996 0.09202 0.0
C1371 C 0.39706 0.00478 0.08047 0.0
H1372 H 0.40788 0.98115 0.12389 0.0
C1373 C 0.40743 0.02273 0.09269 0.0
H1374 H 0.38984 0.97599 0.08297 0.0
C1375 C 0.41764 0.02565 0.11644 0.0
C1376 C 0.41775 0.0107 0.12837 0.0
H1377 H 0.40732 0.03444 0.08431 0.0
H1378 H 0.42502 0.03951 0.12586 0.0
C1379 C 0.4078 0.99289 0.11561 0.0
C1380 C 0.39118 0.99722 0.9294 0.0
C1381 C 0.38136 0.9824 0.94737 0.0
H1382 H 0.40455 0.00592 0.89059 0.0
C1383 C 0.37783 0.96459 0.93956 0.0
H1384 H 0.39415 0.01113 0.93479 0.0
C1385 C 0.38379 0.96161 0.91417 0.0
C1386 C 0.39353 0.97643 0.89618 0.0
H1387 H 0.37032 0.95288 0.95293 0.0
H1388 H 0.38085 0.94773 0.90867 0.0
C1389 C 0.39725 0.99428 0.90415 0.0
C1390 C 0.97956 0.39975 0.94483 0.0
C1391 C 0.99573 0.39954 0.9477 0.0
H1392 H 0.96328 0.40556 0.91915 0.0
C1393 C 0.00848 0.40592 0.92615 0.0
H1394 H 0.96952 0.39512 0.96114 0.0
C1395 C 0.0048 0.41177 0.90186 0.0
C1396 C 0.98832 0.41139 0.89869 0.0
H1397 H 0.02107 0.40592 0.92774 0.0
H1398 H 0.01458 0.41599 0.88524 0.0
C1399 C 0.97592 0.40565 0.92068 0.0
C1400 C 0.60899 0.61942 0.92905 0.0
C1401 C 0.61537 0.61327 0.95014 0.0
H1402 H 0.5967 0.61354 0.88923 0.0
C1403 C 0.61296 0.59542 0.94765 0.0
H1404 H 0.61063 0.63309 0.93035 0.0
C1405 C 0.60492 0.58422 0.92423 0.0
C1406 C 0.5991 0.59059 0.90271 0.0
H1407 H 0.61757 0.59017 0.9636 0.0
H1408 H 0.60341 0.57061 0.92287 0.0
C1409 C 0.60093 0.60818 0.90555 0.0
C1410 C 0.00732 0.59298 0.94409 0.0
C1411 C 0.99969 0.6042 0.94705 0.0
H1412 H 0.01401 0.57703 0.91671 0.0
C1413 C 0.993 0.60807 0.92368 0.0
H1414 H 0.01259 0.58973 0.96167 0.0
C1415 C 0.99383 0.6008 0.89797 0.0
C1416 C 0.00142 0.58956 0.895 0.0
H1417 H 0.98708 0.61669 0.9252 0.0
H1418 H 0.9887 0.60417 0.88034 0.0
C1419 C 0.00822 0.58578 0.91832 0.0
C1420 C 0.41269 0.40581 0.9405 0.0
C1421 C 0.39645 0.40405 0.95065 0.0
H1422 H 0.4329 0.41601 0.90886 0.0
C1423 C 0.3884 0.4122 0.93635 0.0
H1424 H 0.41936 0.39986 0.95116 0.0
C1425 C 0.39613 0.42136 0.91188 0.0
C1426 C 0.41206 0.42258 0.90129 0.0
H1427 H 0.37587 0.41108 0.94364 0.0
H1428 H 0.38927 0.42694 0.9008 0.0
C1429 C 0.42042 0.41499 0.91616 0.0
C1430 C 0.59339 0.99656 0.91224 0.0
C1431 C 0.59476 0.98239 0.92428 0.0
H1432 H 0.58139 0.00389 0.88096 0.0
C1433 C 0.58406 0.964 0.91371 0.0
H1434 H 0.60154 0.0109 0.91973 0.0
C1435 C 0.57217 0.95988 0.89161 0.0
C1436 C 0.57083 0.9741 0.87953 0.0
H1437 H 0.58475 0.95276 0.92264 0.0
H1438 H 0.56392 0.94554 0.88416 0.0
C1439 C 0.58167 0.99249 0.8901 0.0
C1440 C 0.58872 0.98328 0.0619 0.0
C1441 C 0.60651 0.99912 0.06052 0.0
H1442 H 0.56422 0.96792 0.08532 0.0
C1443 C 0.61298 0.01227 0.08242 0.0
H1444 H 0.58323 0.97299 0.04523 0.0
C1445 C 0.60212 0.00921 0.10571 0.0
C1446 C 0.58455 0.99301 0.10745 0.0
H1447 H 0.62664 0.0246 0.08198 0.0
H1448 H 0.60778 0.01921 0.12271 0.0
C1449 C 0.57785 0.98032 0.08498 0.0
C1450 C 0.00965 0.60666 0.09098 0.0
C1451 C 0.99481 0.60722 0.08039 0.0
H1452 H 0.01963 0.59746 0.12282 0.0
C1453 C 0.97791 0.5979 0.09418 0.0
H1454 H 0.0228 0.61349 0.0807 0.0
C1455 C 0.97614 0.58882 0.11863 0.0
C1456 C 0.99121 0.58883 0.12969 0.0
H1457 H 0.96621 0.59807 0.08652 0.0
H1458 H 0.96315 0.58236 0.12934 0.0
C1459 C 0.00786 0.59753 0.11524 0.0
C1460 C 0.39994 0.40179 0.09792 0.0
C1461 C 0.40319 0.3903 0.08031 0.0
H1462 H 0.40705 0.41807 0.13522 0.0
C1463 C 0.41719 0.38709 0.08695 0.0
H1464 H 0.38926 0.40456 0.09346 0.0
C1465 C 0.42753 0.395 0.11088 0.0
C1466 C 0.42411 0.4063 0.12866 0.0
H1467 H 0.42011 0.37838 0.07377 0.0
H1468 H 0.43821 0.39226 0.11547 0.0
C1469 C 0.41026 0.40969 0.12179 0.0
C1470 C 0.68432 0.75573 0.41562 0.0
C1471 C 0.66709 0.73942 0.41137 0.0
H1472 H 0.70104 0.77981 0.44106 0.0
C1473 C 0.65307 0.73503 0.43041 0.0
H1474 H 0.69532 0.7596 0.40104 0.0
C1475 C 0.65648 0.74635 0.45393 0.0
C1476 C 0.67391 0.76252 0.45858 0.0
H1477 H 0.63967 0.72248 0.42767 0.0
H1478 H 0.64561 0.74204 0.46883 0.0
C1479 C 0.68763 0.76725 0.43873 0.0
C1480 C 0.26798 0.94359 0.4385 0.0
C1481 C 0.27976 0.94059 0.42187 0.0
H1482 H 0.25178 0.93649 0.47484 0.0
C1483 C 0.28362 0.927 0.4293 0.0
H1484 H 0.26478 0.95401 0.43348 0.0
C1485 C 0.27595 0.91673 0.45298 0.0
C1486 C 0.26429 0.91988 0.46976 0.0
H1487 H 0.2926 0.9243 0.41686 0.0
H1488 H 0.27908 0.90627 0.45807 0.0
C1489 C 0.2604 0.93342 0.46217 0.0
C1490 C 0.06935 0.31732 0.4065 0.0
C1491 C 0.06444 0.33074 0.40419 0.0
H1492 H 0.08129 0.30597 0.43136 0.0
C1493 C 0.06872 0.34383 0.4258 0.0
H1494 H 0.0664 0.30713 0.39013 0.0
C1495 C 0.07714 0.34304 0.44963 0.0
C1496 C 0.08148 0.32918 0.45229 0.0
H1497 H 0.06509 0.35433 0.42467 0.0
H1498 H 0.07965 0.35288 0.46632 0.0
C1499 C 0.07779 0.31657 0.43022 0.0
C1500 C 0.03652 0.29915 0.2569 0.0
C1501 C 0.04535 0.31524 0.27394 0.0
H1502 H 0.03682 0.28604 0.21888 0.0
C1503 C 0.06236 0.33042 0.2658 0.0
H1504 H 0.02335 0.28726 0.26256 0.0
C1505 C 0.07032 0.32959 0.24106 0.0
C1506 C 0.06133 0.31367 0.22356 0.0
H1507 H 0.0696 0.34295 0.27864 0.0
H1508 H 0.08359 0.34145 0.23575 0.0
C1509 C 0.04434 0.29842 0.23191 0.0
C1510 C 0.66655 0.73829 0.25839 0.0
C1511 C 0.68066 0.74027 0.27516 0.0
H1512 H 0.65934 0.74583 0.22148 0.0
C1513 C 0.69896 0.75261 0.26751 0.0
H1514 H 0.6523 0.72879 0.26358 0.0
C1515 C 0.70305 0.7627 0.24349 0.0
C1516 C 0.6889 0.76054 0.22648 0.0
H1517 H 0.71015 0.75452 0.28011 0.0
H1518 H 0.71729 0.77226 0.23833 0.0
C1519 C 0.67061 0.7482 0.23429 0.0
C1520 C 0.28365 0.93555 0.2659 0.0
C1521 C 0.27208 0.93392 0.28776 0.0
H1522 H 0.28565 0.92734 0.22475 0.0
C1523 C 0.253 0.92241 0.28421 0.0
H1524 H 0.29841 0.9443 0.26789 0.0
C1525 C 0.24568 0.91267 0.25935 0.0
C1526 C 0.25731 0.91411 0.23769 0.0
H1527 H 0.24372 0.92085 0.30064 0.0
H1528 H 0.23094 0.90376 0.25724 0.0
C1529 C 0.27635 0.92571 0.24121 0.0
C1530 C 0.64956 0.91807 0.25793 0.0
C1531 C 0.66235 0.93223 0.27579 0.0
H1532 H 0.64503 0.90277 0.22015 0.0
C1533 C 0.6811 0.94106 0.26954 0.0
H1534 H 0.635 0.91103 0.26207 0.0
C1535 C 0.6869 0.93612 0.2456 0.0
C1536 C 0.67407 0.92234 0.22728 0.0
H1537 H 0.69132 0.95193 0.28299 0.0
H1538 H 0.70145 0.9432 0.24137 0.0
C1539 C 0.65534 0.91324 0.23392 0.0
C1540 C 0.04496 0.73947 0.2553 0.0
C1541 C 0.05252 0.75127 0.27861 0.0
H1542 H 0.04562 0.73656 0.21173 0.0
C1543 C 0.06635 0.77007 0.27511 0.0
H1544 H 0.0342 0.72494 0.25717 0.0
C1545 C 0.07287 0.77675 0.24889 0.0
C1546 C 0.06578 0.76469 0.22576 0.0
H1547 H 0.07242 0.77953 0.29264 0.0
H1548 H 0.08391 0.79114 0.24679 0.0
C1549 C 0.05154 0.74609 0.22923 0.0
C1550 C 0.26269 0.31512 0.24968 0.0
C1551 C 0.25989 0.32329 0.27326 0.0
H1552 H 0.2558 0.30677 0.20766 0.0
C1553 C 0.24662 0.32829 0.2726 0.0
H1554 H 0.27285 0.31117 0.24946 0.0
C1555 C 0.23666 0.32556 0.24868 0.0
C1556 C 0.2398 0.31785 0.22484 0.0
H1557 H 0.24404 0.33451 0.29048 0.0
H1558 H 0.22654 0.32957 0.24887 0.0
C1559 C 0.25281 0.31249 0.22572 0.0
C1560 C 0.29429 0.37057 0.41501 0.0
C1561 C 0.28606 0.35369 0.39963 0.0
H1562 H 0.29312 0.38503 0.4511 0.0
C1563 C 0.26918 0.33859 0.40832 0.0
H1564 H 0.30731 0.38246 0.40882 0.0
C1565 C 0.26093 0.34014 0.43225 0.0
C1566 C 0.26946 0.35677 0.44825 0.0
H1567 H 0.26235 0.32547 0.39674 0.0
H1568 H 0.24791 0.32822 0.43832 0.0
C1569 C 0.2861 0.37208 0.43914 0.0
C1570 C 0.64571 0.92932 0.42922 0.0
C1571 C 0.66234 0.93701 0.41477 0.0
H1572 H 0.63132 0.91694 0.46632 0.0
C1573 C 0.67714 0.93697 0.42665 0.0
H1574 H 0.63404 0.92913 0.42063 0.0
C1575 C 0.67555 0.92994 0.45273 0.0
C1576 C 0.65913 0.92278 0.46757 0.0
H1577 H 0.69011 0.94267 0.41602 0.0
H1578 H 0.68727 0.93023 0.46137 0.0
C1579 C 0.64412 0.92226 0.45535 0.0
C1580 C 0.06591 0.74175 0.42086 0.0
C1581 C 0.07046 0.73221 0.40132 0.0
H1582 H 0.0711 0.75491 0.46064 0.0
C1583 C 0.085 0.72961 0.40694 0.0
H1584 H 0.05482 0.74404 0.41717 0.0
C1585 C 0.09435 0.73587 0.43196 0.0
C1586 C 0.08946 0.74499 0.45175 0.0
H1587 H 0.08887 0.72235 0.39232 0.0
H1588 H 0.10532 0.73344 0.43591 0.0
C1589 C 0.07533 0.74811 0.44573 0.0
C1590 C 0.31921 0.06912 0.74749 0.0
C1591 C 0.33385 0.06823 0.7359 0.0
H1592 H 0.31026 0.08021 0.77997 0.0
C1593 C 0.35114 0.07842 0.74858 0.0
H1594 H 0.30572 0.06147 0.73819 0.0
C1595 C 0.35372 0.0891 0.77243 0.0
C1596 C 0.33907 0.08985 0.78425 0.0
H1597 H 0.36274 0.07806 0.74025 0.0
H1598 H 0.36714 0.09641 0.78198 0.0
C1599 C 0.32179 0.07979 0.77147 0.0
C1600 C 0.94747 0.26047 0.77116 0.0
C1601 C 0.93999 0.26905 0.75652 0.0
H1602 H 0.94627 0.24617 0.80744 0.0
C1603 C 0.92432 0.26846 0.76684 0.0
H1604 H 0.95955 0.26068 0.76374 0.0
C1605 C 0.91664 0.26002 0.79167 0.0
C1606 C 0.92449 0.25206 0.8069 0.0
H1607 H 0.91808 0.27475 0.75594 0.0
H1608 H 0.9046 0.25991 0.79907 0.0
C1609 C 0.93981 0.25207 0.79614 0.0
C1610 C 0.73496 0.66887 0.7726 0.0
C1611 C 0.73635 0.68306 0.75637 0.0
H1612 H 0.74497 0.66196 0.80725 0.0
C1613 C 0.75004 0.70171 0.76255 0.0
H1614 H 0.72458 0.65435 0.76844 0.0
C1615 C 0.76185 0.70607 0.78478 0.0
C1616 C 0.76027 0.69187 0.80124 0.0
H1617 H 0.75152 0.71297 0.75037 0.0
H1618 H 0.77223 0.72057 0.78909 0.0
C1619 C 0.74676 0.67322 0.79475 0.0
C1620 C 0.72435 0.64307 0.62052 0.0
C1621 C 0.72435 0.65963 0.62528 0.0
H1622 H 0.73063 0.62705 0.59252 0.0
C1623 C 0.731 0.67303 0.60479 0.0
H1624 H 0.7193 0.63247 0.6359 0.0
C1625 C 0.73753 0.66995 0.58011 0.0
C1626 C 0.73745 0.65336 0.57525 0.0
H1627 H 0.73118 0.68593 0.60778 0.0
H1628 H 0.74235 0.68044 0.5646 0.0
C1629 C 0.73076 0.63992 0.59567 0.0
C1630 C 0.32817 0.06693 0.58316 0.0
C1631 C 0.3427 0.06905 0.59903 0.0
H1632 H 0.32003 0.07473 0.54743 0.0
C1633 C 0.36079 0.08188 0.59098 0.0
H1634 H 0.31406 0.05707 0.58868 0.0
C1635 C 0.36424 0.09235 0.56749 0.0
C1636 C 0.34968 0.09007 0.55137 0.0
H1637 H 0.37229 0.08392 0.6029 0.0
H1638 H 0.37834 0.1023 0.56206 0.0
C1639 C 0.3316 0.07721 0.55956 0.0
C1640 C 0.91718 0.24836 0.61991 0.0
C1641 C 0.93598 0.26154 0.62347 0.0
H1642 H 0.89585 0.22936 0.59217 0.0
C1643 C 0.94778 0.2659 0.60088 0.0
H1644 H 0.90774 0.24471 0.63691 0.0
C1645 C 0.941 0.25699 0.57545 0.0
C1646 C 0.92226 0.24369 0.57194 0.0
H1647 H 0.96234 0.27597 0.6029 0.0
H1648 H 0.95043 0.26057 0.55845 0.0
C1649 C 0.91036 0.23961 0.59432 0.0
C1650 C 0.31967 0.24948 0.60814 0.0
C1651 C 0.33025 0.26828 0.61702 0.0
H1652 H 0.31503 0.22902 0.57694 0.0
C1653 C 0.34517 0.28093 0.60094 0.0
H1654 H 0.30816 0.23934 0.62012 0.0
C1655 C 0.34904 0.27501 0.57609 0.0
C1656 C 0.33809 0.25632 0.56679 0.0
H1657 H 0.3536 0.29551 0.60719 0.0
H1658 H 0.36023 0.28524 0.56373 0.0
C1659 C 0.32355 0.24357 0.58332 0.0
C1660 C 0.71522 0.08553 0.59924 0.0
C1661 C 0.70273 0.0661 0.598 0.0
H1662 H 0.73499 0.10982 0.57755 0.0
C1663 C 0.70001 0.05638 0.57289 0.0
H1664 H 0.71759 0.09342 0.61828 0.0
C1665 C 0.70998 0.06572 0.54978 0.0
C1666 C 0.72284 0.08502 0.55115 0.0
H1667 H 0.69044 0.04143 0.57114 0.0
H1668 H 0.70772 0.05778 0.5308 0.0
C1669 C 0.72513 0.09494 0.57595 0.0
C1670 C 0.9215 0.64767 0.60182 0.0
C1671 C 0.93413 0.66647 0.60903 0.0
H1672 H 0.90072 0.62841 0.57374 0.0
C1673 C 0.93506 0.68051 0.59299 0.0
H1674 H 0.92036 0.63651 0.61386 0.0
C1675 C 0.92395 0.67588 0.56986 0.0
C1676 C 0.91155 0.65708 0.56228 0.0
H1677 H 0.94467 0.69514 0.59793 0.0
H1678 H 0.92549 0.68707 0.55746 0.0
C1679 C 0.91031 0.64303 0.57874 0.0
C1680 C 0.94322 0.67972 0.75839 0.0
C1681 C 0.95562 0.69484 0.74239 0.0
H1682 H 0.92744 0.67076 0.79516 0.0
C1683 C 0.96124 0.71308 0.75163 0.0
H1684 H 0.93863 0.66549 0.75198 0.0
C1685 C 0.95468 0.7161 0.77645 0.0
C1686 C 0.94233 0.70095 0.79249 0.0
H1687 H 0.97075 0.72503 0.73977 0.0
H1688 H 0.95917 0.73029 0.78298 0.0
C1689 C 0.93668 0.68274 0.78311 0.0
C1690 C 0.3403 0.26662 0.75707 0.0
C1691 C 0.32631 0.26868 0.74655 0.0
H1692 H 0.34905 0.25657 0.78952 0.0
C1693 C 0.30961 0.26102 0.76079 0.0
H1694 H 0.35329 0.27223 0.74654 0.0
C1695 C 0.30721 0.25205 0.78553 0.0
C1696 C 0.32148 0.25063 0.79653 0.0
H1697 H 0.29856 0.26235 0.7532 0.0
H1698 H 0.29442 0.24681 0.79651 0.0
C1699 C 0.33792 0.25772 0.78178 0.0
C1700 C 0.74243 0.09639 0.74485 0.0
C1701 C 0.7235 0.08355 0.7419 0.0
H1702 H 0.76432 0.11554 0.77166 0.0
C1703 C 0.71199 0.08037 0.76454 0.0
H1704 H 0.75167 0.0992 0.7278 0.0
C1705 C 0.71922 0.08973 0.78955 0.0
C1706 C 0.73815 0.10248 0.7926 0.0
H1707 H 0.69734 0.07057 0.76302 0.0
H1708 H 0.70999 0.08669 0.8067 0.0
C1709 C 0.74969 0.10572 0.76998 0.0
C1710 C 0.06264 0.37074 0.03473 0.0
C1711 C 0.05138 0.361 0.01203 0.0
H1712 H 0.07926 0.37075 0.06697 0.0
C1713 C 0.0505 0.34468 0.00214 0.0
H1714 H 0.0637 0.38341 0.04282 0.0
C1715 C 0.05948 0.33744 0.01598 0.0
C1716 C 0.06957 0.34641 0.03993 0.0
H1717 H 0.04208 0.33691 0.98457 0.0
H1718 H 0.05791 0.32441 0.00856 0.0
C1719 C 0.07164 0.36352 0.04853 0.0
C1720 C 0.67178 0.7081 0.01429 0.0
C1721 C 0.66084 0.69158 0.02867 0.0
H1722 H 0.68517 0.73792 0.01466 0.0
C1723 C 0.65386 0.69267 0.05439 0.0
H1724 H 0.67725 0.70772 0.99431 0.0
C1725 C 0.65859 0.70996 0.0662 0.0
C1726 C 0.67029 0.72661 0.05247 0.0
H1727 H 0.64538 0.68022 0.06604 0.0
H1728 H 0.65379 0.71026 0.08672 0.0
C1729 C 0.67641 0.72542 0.02604 0.0
C1730 C 0.30989 0.96349 0.05482 0.0
C1731 C 0.31351 0.95962 0.02809 0.0
H1732 H 0.29258 0.9533 0.08999 0.0
C1733 C 0.30129 0.94209 0.01573 0.0
H1734 H 0.31899 0.97688 0.06491 0.0
C1735 C 0.2861 0.92851 0.03021 0.0
C1736 C 0.28273 0.93231 0.05715 0.0
H1737 H 0.3037 0.93869 0.99515 0.0
H1738 H 0.27708 0.91499 0.02043 0.0
C1739 C 0.29466 0.95003 0.06913 0.0
C1740 C 0.33597 0.04175 0.96948 0.0
C1741 C 0.35123 0.04456 0.98417 0.0
H1742 H 0.32444 0.05401 0.94574 0.0
C1743 C 0.36625 0.06287 0.98826 0.0
H1744 H 0.32415 0.02784 0.96602 0.0
C1745 C 0.36635 0.07795 0.97679 0.0
C1746 C 0.35142 0.07503 0.96102 0.0
H1747 H 0.37817 0.06553 -0.00033 0.0
H1748 H 0.37828 0.09185 0.97979 0.0
C1749 C 0.33607 0.0568 0.95802 0.0
C1750 C 0.94647 0.31376 0.01475 0.0
C1751 C 0.96489 0.32369 0.00635 0.0
H1752 H 0.9201 0.28851 0.01057 0.0
C1753 C 0.97098 0.31501 0.98776 0.0
H1754 H 0.94136 0.32003 0.02912 0.0
C1755 C 0.95887 0.29712 0.97711 0.0
C1756 C 0.94031 0.28731 0.98482 0.0
H1757 H 0.98508 0.32221 0.98084 0.0
H1758 H 0.96397 0.29127 0.96199 0.0
C1759 C 0.93427 0.29575 0.00404 0.0
C1760 C 0.70134 0.63694 0.96156 0.0
C1761 C 0.69763 0.64301 0.98654 0.0
H1762 H 0.72122 0.64159 0.93094 0.0
C1763 C 0.71223 0.65781 0.00137 0.0
H1764 H 0.69041 0.62561 0.94957 0.0
C1765 C 0.73006 0.66682 0.99088 0.0
C1766 C 0.73365 0.66136 0.9652 0.0
H1767 H 0.70984 0.66272 0.02081 0.0
H1768 H 0.74096 0.67832 0.00267 0.0
C1769 C 0.71911 0.64606 0.95095 0.0
C1770 C 0.96566 0.67977 0.00557 0.0
C1771 C 0.95894 0.66054 0.00501 0.0
H1772 H 0.96316 0.7018 0.99047 0.0
C1773 C 0.94254 0.64834 0.99097 0.0
H1774 H 0.97839 0.68954 0.01599 0.0
C1775 C 0.93339 0.65532 0.97689 0.0
C1776 C 0.94072 0.67472 0.97589 0.0
H1777 H 0.93697 0.63341 0.99041 0.0
H1778 H 0.92079 0.64547 0.96628 0.0
C1779 C 0.95679 0.68679 0.99096 0.0
C1780 C 0.34963 0.30374 0.01572 0.0
C1781 C 0.34712 0.31727 0.0039 0.0
H1782 H 0.34586 0.27643 0.0113 0.0
C1783 C 0.33823 0.31321 0.97843 0.0
H1784 H 0.35647 0.30652 0.03531 0.0
C1785 C 0.33194 0.29601 0.96506 0.0
C1786 C 0.33464 0.28257 0.97662 0.0
H1787 H 0.336 0.32329 0.96884 0.0
H1788 H 0.32527 0.29336 0.94533 0.0
C1789 C 0.34362 0.28659 0.00202 0.0
C1790 C 0.68363 0.03689 0.9549 0.0
C1791 C 0.6809 0.03506 0.98333 0.0
H1792 H 0.70064 0.05375 0.92225 0.0
C1793 C 0.69383 0.04933 0.00096 0.0
H1794 H 0.67395 0.02609 0.94081 0.0
C1795 C 0.709 0.06534 0.99024 0.0
C1796 C 0.7117 0.06704 0.9618 0.0
H1797 H 0.69202 0.04827 0.02296 0.0
H1798 H 0.71865 0.07634 0.00411 0.0
C1799 C 0.69896 0.05263 0.94427 0.0
C1800 C 0.65042 0.94501 0.01618 0.0
C1801 C 0.63539 0.94451 0.02903 0.0
H1802 H 0.67074 0.93758 0.01797 0.0
C1803 C 0.62883 0.93506 0.05372 0.0
H1804 H 0.65573 0.95208 0.99703 0.0
C1805 C 0.63759 0.92704 0.06594 0.0
C1806 C 0.65303 0.92806 0.05364 0.0
H1807 H 0.61732 0.93447 0.06423 0.0
H1808 H 0.63266 0.92071 0.08565 0.0
C1809 C 0.6591 0.93681 0.02829 0.0
C1810 C 0.03692 0.70837 0.00765 0.0
C1811 C 0.03373 0.6915 0.01801 0.0
H1812 H 0.05104 0.73817 0.01285 0.0
C1813 C 0.0438 0.69214 0.0409 0.0
H1814 H 0.0294 0.70836 0.99004 0.0
C1815 C 0.05618 0.70918 0.0539 0.0
C1816 C 0.05871 0.72597 0.0444 0.0
H1817 H 0.0417 0.67941 0.04935 0.0
H1818 H 0.06311 0.70908 0.07219 0.0
C1819 C 0.04923 0.72543 0.0208 0.0
C1820 C 0.30533 0.36533 0.0536 0.0
C1821 C 0.3061 0.3592 0.02681 0.0
H1822 H 0.28846 0.36384 0.0872 0.0
C1823 C 0.28964 0.3479 0.01228 0.0
H1824 H 0.31774 0.37404 0.06539 0.0
C1825 C 0.27275 0.34219 0.02474 0.0
C1826 C 0.27196 0.34762 0.05201 0.0
H1827 H 0.28976 0.34303 0.99154 0.0
H1828 H 0.2603 0.33321 0.01319 0.0
C1829 C 0.28849 0.35957 0.06606 0.0
C1830 C 0.69521 0.66832 0.39805 0.0
C1831 C 0.70349 0.68476 0.38301 0.0
H1832 H 0.69879 0.64888 0.4199 0.0
C1833 C 0.72236 0.69387 0.3774 0.0
H1834 H 0.68068 0.6609 0.40261 0.0
C1835 C 0.73281 0.68692 0.3874 0.0
C1836 C 0.7245 0.67061 0.4028 0.0
H1837 H 0.72911 0.70656 0.36582 0.0
H1838 H 0.74739 0.69435 0.38326 0.0
C1839 C 0.70556 0.6613 0.40773 0.0
C1840 C 0.31621 0.02467 0.38147 0.0
C1841 C 0.32249 0.02368 0.35511 0.0
H1842 H 0.31613 0.04206 0.41409 0.0
C1843 C 0.33242 0.04016 0.34027 0.0
H1844 H 0.3085 0.01226 0.3935 0.0
C1845 C 0.33666 0.05737 0.35205 0.0
C1846 C 0.33103 0.05844 0.37891 0.0
H1847 H 0.33739 0.03986 0.31985 0.0
H1848 H 0.34462 0.06987 0.34032 0.0
C1849 C 0.32046 0.04181 0.39323 0.0
C1850 C 0.97504 0.29459 0.38773 0.0
C1851 C 0.97694 0.29157 0.35975 0.0
H1852 H 0.95917 0.28374 0.42415 0.0
C1853 C 0.96333 0.27497 0.34667 0.0
H1854 H 0.98525 0.30729 0.39836 0.0
C1855 C 0.94842 0.26136 0.36159 0.0
C1856 C 0.9467 0.26433 0.38967 0.0
H1857 H 0.96446 0.27226 0.32514 0.0
H1858 H 0.9383 0.24847 0.35127 0.0
C1859 C 0.96003 0.28118 0.40247 0.0
C1860 C 0.02867 0.39251 0.32637 0.0
C1861 C 0.02038 0.37575 0.31069 0.0
H1862 H 0.03462 0.42064 0.33005 0.0
C1863 C 0.01089 0.37445 0.28671 0.0
H1864 H 0.036 0.39393 0.34504 0.0
C1865 C 0.01016 0.3897 0.2781 0.0
C1866 C 0.01885 0.40667 0.29329 0.0
H1867 H 0.00433 0.36175 0.27413 0.0
H1868 H 0.00337 0.38835 0.2589 0.0
C1869 C 0.02792 0.40783 0.31774 0.0
C1870 C 0.63502 0.65293 0.30785 0.0
C1871 C 0.62988 0.65723 0.33316 0.0
H1872 H 0.62918 0.63214 0.27666 0.0
C1873 C 0.61362 0.64344 0.34568 0.0
H1874 H 0.64739 0.66317 0.29751 0.0
C1875 C 0.60304 0.62557 0.33343 0.0
C1876 C 0.60875 0.62118 0.30876 0.0
H1877 H 0.60926 0.64634 0.36513 0.0
H1878 H 0.59076 0.61503 0.34362 0.0
C1879 C 0.62465 0.63511 0.29592 0.0
C1880 C 0.37054 0.97937 0.32303 0.0
C1881 C 0.36951 0.99214 0.34103 0.0
H1882 H 0.38671 0.97457 0.29428 0.0
C1883 C 0.38535 0.00982 0.34579 0.0
H1884 H 0.35861 0.96561 0.31893 0.0
C1885 C 0.40161 0.01496 0.33169 0.0
C1886 C 0.40235 0.00247 0.31267 0.0
H1887 H 0.38504 0.01997 0.35961 0.0
H1888 H 0.41347 0.02884 0.33521 0.0
C1889 C 0.38674 0.98448 0.30901 0.0
C1890 C 0.60321 0.95639 0.30339 0.0
C1891 C 0.61421 0.97105 0.32206 0.0
H1892 H 0.58229 0.94581 0.27271 0.0
C1893 C 0.61126 0.98593 0.32545 0.0
H1894 H 0.6051 0.9447 0.30032 0.0
C1895 C 0.59816 0.98655 0.3096 0.0
C1896 C 0.58765 0.97223 0.2902 0.0
H1897 H 0.61946 0.99741 0.33973 0.0
H1898 H 0.59647 0.99839 0.31218 0.0
C1899 C 0.59005 0.95696 0.28767 0.0
C1900 C 0.00516 0.64947 0.31011 0.0
C1901 C 0.01662 0.65567 0.33327 0.0
H1902 H 0.99087 0.62795 0.27959 0.0
C1903 C 0.02209 0.64401 0.34391 0.0
H1904 H 0.00062 0.65807 0.30143 0.0
C1905 C 0.01649 0.62664 0.33122 0.0
C1906 C 0.00508 0.62055 0.30799 0.0
H1907 H 0.03093 0.64841 0.36173 0.0
H1908 H 0.02105 0.61796 0.33956 0.0
C1909 C 0.99942 0.63212 0.29771 0.0
C1910 C 0.3578 0.38008 0.29752 0.0
C1911 C 0.35647 0.37309 0.32376 0.0
H1912 H 0.37539 0.39652 0.2652 0.0
C1913 C 0.37261 0.37918 0.33874 0.0
H1914 H 0.34565 0.37568 0.2854 0.0
C1915 C 0.38977 0.39138 0.32723 0.0
C1916 C 0.39112 0.39771 0.30048 0.0
H1917 H 0.37205 0.37416 0.3591 0.0
H1918 H 0.40197 0.39559 0.33911 0.0
C1919 C 0.37491 0.39218 0.28599 0.0
C1920 C 0.31956 0.28812 0.35638 0.0
C1921 C 0.30247 0.28493 0.36517 0.0
H1922 H 0.34039 0.28163 0.36115 0.0
C1923 C 0.29256 0.27122 0.38469 0.0
H1924 H 0.32751 0.29848 0.34122 0.0
C1925 C 0.29999 0.26159 0.39616 0.0
C1926 C 0.3175 0.26549 0.38838 0.0
H1927 H 0.27934 0.26838 0.39187 0.0
H1928 H 0.29239 0.25175 0.41208 0.0
C1929 C 0.32699 0.27852 0.36787 0.0
C1930 C 0.72168 0.02906 0.35099 0.0
C1931 C 0.70292 0.01811 0.35737 0.0
H1932 H 0.74701 0.05514 0.35743 0.0
C1933 C 0.69521 0.02574 0.37484 0.0
H1934 H 0.72803 0.02361 0.3375 0.0
C1935 C 0.70604 0.04369 0.38625 0.0
C1936 C 0.72488 0.05454 0.38044 0.0
H1937 H 0.68081 0.01772 0.3802 0.0
H1938 H 0.69971 0.04881 0.4004 0.0
C1939 C 0.73256 0.04709 0.36246 0.0
C1940 C 0.96959 0.69841 0.38399 0.0
C1941 C 0.9698 0.69201 0.35716 0.0
H1942 H 0.95361 0.69599 0.41928 0.0
C1943 C 0.95306 0.67917 0.34432 0.0
H1944 H 0.98223 0.70829 0.39452 0.0
C1945 C 0.93652 0.67224 0.35849 0.0
C1946 C 0.93639 0.67797 0.3858 0.0
H1947 H 0.95275 0.67405 0.32359 0.0
H1948 H 0.92387 0.66213 0.3482 0.0
C1949 C 0.9531 0.69142 0.39817 0.0
C1950 C 0.36222 0.99013 0.68353 0.0
C1951 C 0.37003 0.00939 0.68046 0.0
H1952 H 0.36431 0.9686 0.70168 0.0
C1953 C 0.38762 0.02182 0.69112 0.0
H1954 H 0.34861 0.9802 0.67573 0.0
C1955 C 0.39693 0.01513 0.70545 0.0
C1956 C 0.38869 0.99589 0.71002 0.0
H1957 H 0.39404 0.03674 0.68883 0.0
H1958 H 0.41046 0.02514 0.71341 0.0
C1959 C 0.37134 0.98346 0.69835 0.0
C1960 C 0.98386 0.35446 0.71841 0.0
C1961 C 0.97192 0.34491 0.6963 0.0
H1962 H 0.99347 0.37651 0.74858 0.0
C1963 C 0.96143 0.35183 0.6861 0.0
H1964 H 0.99217 0.34955 0.72677 0.0
C1965 C 0.96232 0.36751 0.69851 0.0
C1966 C 0.97373 0.3766 0.72135 0.0
H1967 H 0.95217 0.34486 0.66899 0.0
H1968 H 0.95384 0.37232 0.69051 0.0
C1969 C 0.98473 0.37007 0.7308 0.0
C1970 C 0.64795 0.63555 0.72409 0.0
C1971 C 0.65396 0.63211 0.69895 0.0
H1972 H 0.62878 0.6242 0.75699 0.0
C1973 C 0.64411 0.61407 0.68688 0.0
H1974 H 0.65519 0.64931 0.73389 0.0
C1975 C 0.62893 0.59962 0.70022 0.0
C1976 C 0.62319 0.60302 0.72566 0.0
H1977 H 0.64842 0.611 0.66751 0.0
H1978 H 0.62179 0.58574 0.6908 0.0
C1979 C 0.63271 0.6212 0.73723 0.0
C1980 C 0.67637 0.71311 0.62987 0.0
C1981 C 0.68827 0.71653 0.65177 0.0
H1982 H 0.66636 0.72458 0.60164 0.0
C1983 C 0.69826 0.73461 0.66366 0.0
H1984 H 0.66846 0.69935 0.62023 0.0
C1985 C 0.69685 0.7491 0.6532 0.0
C1986 C 0.68548 0.74584 0.63056 0.0
H1987 H 0.70743 0.73766 0.68072 0.0
H1988 H 0.70491 0.76293 0.66257 0.0
C1989 C 0.67503 0.72759 0.61935 0.0
C1990 C 0.28824 0.96978 0.68254 0.0
C1991 C 0.29499 0.98615 0.66762 0.0
H1992 H 0.27096 0.93992 0.6824 0.0
C1993 C 0.28774 0.98485 0.64146 0.0
H1994 H 0.29347 0.9703 0.70281 0.0
C1995 C 0.27494 0.96749 0.62975 0.0
C1996 C 0.26905 0.95097 0.64392 0.0
H1997 H 0.29255 0.9972 0.62944 0.0
H1998 H 0.2705 0.96698 0.60893 0.0
C1999 C 0.27542 0.95236 0.67079 0.0
C2000 C 0.04788 0.33123 0.67103 0.0
C2001 C 0.03085 0.31428 0.67057 0.0
H2002 H 0.07553 0.34627 0.65634 0.0
C2003 C 0.02922 0.29886 0.65588 0.0
H2004 H 0.04962 0.34335 0.68231 0.0
C2005 C 0.04393 0.3006 0.64073 0.0
C2006 C 0.06075 0.31776 0.64008 0.0
H2007 H 0.01631 0.28558 0.65504 0.0
H2008 H 0.04174 0.28865 0.62846 0.0
C2009 C 0.06269 0.33294 0.65598 0.0
C2010 C 0.28181 0.31612 0.64949 0.0
C2011 C 0.29973 0.32312 0.63975 0.0
H2012 H 0.25738 0.31719 0.64723 0.0
C2013 C 0.30673 0.33687 0.61979 0.0
H2014 H 0.27605 0.30555 0.66493 0.0
C2015 C 0.29613 0.34351 0.60979 0.0
C2016 C 0.27824 0.33661 0.61947 0.0
H2017 H 0.32045 0.34255 0.61175 0.0
H2018 H 0.30189 0.35383 0.59399 0.0
C2019 C 0.27113 0.32277 0.63937 0.0
C2020 C 0.68978 0.99334 0.65509 0.0
C2021 C 0.67831 0.99268 0.67647 0.0
H2022 H 0.6957 0.97786 0.62561 0.0
C2023 C 0.66475 0.97518 0.68627 0.0
H2024 H 0.7004 0.00659 0.64711 0.0
C2025 C 0.66203 0.9587 0.67385 0.0
C2026 C 0.67293 0.95937 0.65159 0.0
H2027 H 0.65569 0.97417 0.70273 0.0
H2028 H 0.65105 0.9454 0.68117 0.0
C2029 C 0.68717 0.97687 0.64286 0.0
C2030 C 0.03988 0.71295 0.6729 0.0
C2031 C 0.02299 0.70735 0.66053 0.0
H2032 H 0.06911 0.7278 0.66868 0.0
C2033 C 0.02293 0.71348 0.63411 0.0
H2034 H 0.04041 0.70852 0.69327 0.0
C2035 C 0.03933 0.7244 0.62001 0.0
C2036 C 0.05622 0.72952 0.63197 0.0
H2037 H 0.01017 0.70943 0.62395 0.0
H2038 H 0.03869 0.72825 0.59929 0.0
C2039 C 0.05632 0.7239 0.65875 0.0
C2040 C 0.97071 0.61573 0.70716 0.0
C2041 C 0.98253 0.62727 0.6866 0.0
H2042 H 0.96508 0.59509 0.73658 0.0
C2043 C 0.99748 0.62564 0.67868 0.0
H2044 H 0.95905 0.6166 0.71372 0.0
C2045 C 0.00094 0.61325 0.69183 0.0
C2046 C 0.98942 0.60214 0.71297 0.0
H2047 H 0.00684 0.63431 0.66288 0.0
H2048 H 0.01277 0.61256 0.68571 0.0
C2049 C 0.9741 0.60328 0.72014 0.0
C2050 C 0.3912 0.36742 0.68836 0.0
C2051 C 0.3735 0.35538 0.69866 0.0
H2052 H 0.4163 0.39403 0.69249 0.0
C2053 C 0.36743 0.36145 0.72126 0.0
H2054 H 0.39625 0.36318 0.67092 0.0
C2055 C 0.37881 0.37904 0.73343 0.0
C2056 C 0.39658 0.39102 0.7234 0.0
H2057 H 0.35386 0.35256 0.72972 0.0
H2058 H 0.37382 0.38306 0.75121 0.0
C2059 C 0.40268 0.38506 0.7007 0.0
C2060 C 0.62204 0.02886 0.69419 0.0
C2061 C 0.62704 0.0168 0.68213 0.0
H2062 H 0.60148 0.03138 0.71561 0.0
C2063 C 0.6142 0.99751 0.68133 0.0
H2064 H 0.63162 0.04383 0.69483 0.0
C2065 C 0.59713 0.9903 0.69391 0.0
C2066 C 0.59233 0.00225 0.70715 0.0
H2067 H 0.61769 0.98784 0.67234 0.0
H2068 H 0.58816 0.97527 0.69442 0.0
C2069 C 0.6048 0.02168 0.7063 0.0
loop_
_geom_bond_atom_site_label_1
_geom_bond_atom_site_label_2
_geom_bond_distance
_geom_bond_site_symmetry_2
_ccdc_geom_bond_type
C0 O1 1.160 . S
C0 O7 1.185 . S
O1 C0 1.160 . S
O2 Zn3 1.899 1_656 S
O2 C10 1.284 1_556 S
Zn3 O2 1.899 1_454 S
Zn3 O4 2.032 . S
Zn3 O7 2.086 . S
Zn3 O12 1.977 1_554 S
O4 Zn3 2.032 . S
O4 C8 1.278 1_455 S
C5 O6 1.203 1_455 S
C5 O12 1.267 . S
O6 C5 1.203 1_655 S
O7 C0 1.185 . S
O7 Zn3 2.086 . S
C8 O4 1.278 1_655 S
C8 O9 1.211 . S
O9 C8 1.211 . S
C10 O2 1.284 1_554 S
C10 O11 1.273 . S
O11 C10 1.273 . S
O12 Zn3 1.977 1_556 S
O12 C5 1.267 . S
C13 O14 1.170 . S
C13 O20 1.170 1_556 S
O14 C13 1.170 . S
O15 Zn16 1.899 . S
O15 C23 1.284 . S
Zn16 O15 1.899 . S
Zn16 O17 2.032 1_554 S
Zn16 O20 2.086 . S
Zn16 O25 1.977 . S
O17 Zn16 2.032 1_556 S
O17 C21 1.278 . S
C18 O19 1.203 . S
C18 O25 1.267 . S
O19 C18 1.203 . S
O20 C13 1.170 1_554 S
O20 Zn16 2.086 . S
C21 O17 1.278 . S
C21 O22 1.211 . S
O22 C21 1.211 . S
C23 O15 1.284 . S
C23 O24 1.273 . S
O24 C23 1.273 . S
O25 Zn16 1.977 . S
O25 C18 1.267 . S
C26 O27 1.160 1_554 S
C26 O33 1.185 . S
O27 C26 1.160 1_556 S
O28 Zn29 1.899 1_565 S
O28 C36 1.284 . S
Zn29 O28 1.899 1_545 S
Zn29 O30 2.032 1_554 S
Zn29 O33 2.086 . S
Zn29 O38 1.977 . S
O30 Zn29 2.032 1_556 S
O30 C34 1.253 1_545 S
C31 O32 1.203 1_545 S
C31 O38 1.267 . S
O32 C31 1.203 1_565 S
O33 C26 1.185 . S
O33 Zn29 2.086 . S
C34 O30 1.253 1_565 S
C34 O35 1.231 . S
O35 C34 1.231 . S
C36 O28 1.284 . S
C36 O37 1.273 . S
O37 C36 1.273 . S
O38 Zn29 1.977 . S
O38 C31 1.267 . S
C39 O40 1.160 . S
C39 O46 1.185 1_556 S
O40 C39 1.160 . S
O41 Zn42 1.899 1_455 S
O41 C49 1.284 . S
Zn42 O41 1.899 1_655 S
Zn42 O43 2.032 1_554 S
Zn42 O46 2.086 . S
Zn42 O51 1.977 . S
O43 Zn42 2.032 1_556 S
O43 C47 1.278 1_655 S
C44 O45 1.203 1_655 S
C44 O51 1.267 . S
O45 C44 1.203 1_455 S
O46 C39 1.185 1_554 S
O46 Zn42 2.086 . S
C47 O43 1.278 1_455 S
C47 O48 1.211 . S
O48 C47 1.211 . S
C49 O41 1.284 . S
C49 O50 1.273 . S
O50 C49 1.273 . S
O51 Zn42 1.977 . S
O51 C44 1.267 . S
C52 O53 1.160 . S
C52 O59 1.185 . S
O53 C52 1.160 . S
O54 Zn55 1.899 1_556 S
O54 C62 1.284 . S
Zn55 O54 1.899 1_554 S
Zn55 O56 2.032 . S
Zn55 O59 2.086 . S
Zn55 O64 1.977 1_554 S
O56 Zn55 2.032 . S
O56 C60 1.278 . S
C57 O58 1.203 . S
C57 O64 1.267 . S
O58 C57 1.203 . S
O59 C52 1.185 . S
O59 Zn55 2.086 . S
C60 O56 1.278 . S
C60 O61 1.211 . S
O61 C60 1.211 . S
C62 O54 1.284 . S
C62 O63 1.273 1_556 S
O63 C62 1.273 1_554 S
O64 Zn55 1.977 1_556 S
O64 C57 1.267 . S
C65 O66 1.160 . S
C65 O72 1.185 . S
O66 C65 1.160 . S
O67 Zn68 1.899 1_546 S
O67 C75 1.285 . S
Zn68 O67 1.899 1_564 S
Zn68 O69 2.032 . S
Zn68 O72 2.086 . S
Zn68 O77 1.977 1_554 S
O69 Zn68 2.032 . S
O69 C73 1.278 1_565 S
C70 O71 1.203 1_565 S
C70 O77 1.267 . S
O71 C70 1.203 1_545 S
O72 C65 1.185 . S
O72 Zn68 2.086 . S
C73 O69 1.278 1_545 S
C73 O74 1.211 . S
O74 C73 1.211 . S
C75 O67 1.285 . S
C75 O76 1.272 1_556 S
O76 C75 1.272 1_554 S
O77 Zn68 1.977 1_556 S
O77 C70 1.267 . S
C78 O79 1.160 . S
C78 O85 1.185 . S
O79 C78 1.160 . S
O80 Zn81 1.899 . S
O80 C88 1.284 . S
Zn81 O80 1.899 . S
Zn81 O82 2.032 . S
Zn81 O85 2.086 . S
Zn81 O90 1.977 . S
O82 Zn81 2.032 . S
O82 C86 1.278 . S
C83 O84 1.203 . S
C83 O90 1.267 . S
O84 C83 1.203 . S
O85 C78 1.185 . S
O85 Zn81 2.086 . S
C86 O82 1.278 . S
C86 O87 1.211 . S
O87 C86 1.211 . S
C88 O80 1.284 . S
C88 O89 1.273 . S
O89 C88 1.273 . S
O90 Zn81 1.977 . S
O90 C83 1.267 . S
C91 O92 1.160 . S
C91 O98 1.185 . S
O92 C91 1.160 . S
O93 Zn94 1.899 . S
O93 C101 1.284 1_565 S
Zn94 O93 1.899 . S
Zn94 O95 2.032 . S
Zn94 O98 2.086 . S
Zn94 O103 1.977 . S
O95 Zn94 2.032 . S
O95 C99 1.278 . S
C96 O97 1.203 . S
C96 O103 1.267 . S
O97 C96 1.203 . S
O98 C91 1.185 . S
O98 Zn94 2.086 . S
C99 O95 1.278 . S
C99 O100 1.211 . S
O100 C99 1.211 . S
C101 O93 1.284 1_545 S
C101 O102 1.273 1_545 S
O102 C101 1.273 1_565 S
O103 Zn94 1.977 . S
O103 C96 1.267 . S
C104 O105 1.160 . S
C104 O111 1.185 . S
O105 C104 1.160 . S
O106 Zn107 1.899 . S
O106 C114 1.284 . S
Zn107 O106 1.899 . S
Zn107 O108 2.032 . S
Zn107 O111 2.086 . S
Zn107 O116 1.977 . S
O108 Zn107 2.032 . S
O108 C112 1.278 . S
C109 O110 1.203 . S
C109 O116 1.267 . S
O110 C109 1.203 . S
O111 C104 1.185 . S
O111 Zn107 2.086 . S
C112 O108 1.278 . S
C112 O113 1.211 . S
O113 C112 1.211 . S
C114 O106 1.284 . S
C114 O115 1.273 . S
O115 C114 1.273 . S
O116 Zn107 1.977 . S
O116 C109 1.267 . S
C117 O118 1.160 . S
C117 O124 1.185 . S
O118 C117 1.160 . S
O119 Zn120 1.899 . S
O119 C127 1.284 1_565 S
Zn120 O119 1.899 . S
Zn120 O121 2.032 . S
Zn120 O124 2.086 . S
Zn120 O129 1.977 . S
O121 Zn120 2.032 . S
O121 C125 1.278 . S
C122 O123 1.203 . S
C122 O129 1.267 . S
O123 C122 1.203 . S
O124 C117 1.185 . S
O124 Zn120 2.086 . S
C125 O121 1.278 . S
C125 O126 1.211 . S
O126 C125 1.211 . S
C127 O119 1.284 1_545 S
C127 O128 1.273 1_545 S
O128 C127 1.273 1_565 S
O129 Zn120 1.977 . S
O129 C122 1.267 . S
C130 O131 1.160 . S
C130 O137 1.185 . S
O131 C130 1.160 . S
O132 Zn133 1.899 . S
O132 C140 1.284 . S
Zn133 O132 1.899 . S
Zn133 O134 2.032 . S
Zn133 O137 2.086 1_455 S
Zn133 O142 1.977 . S
O134 Zn133 2.032 . S
O134 C138 1.278 . S
C135 O136 1.203 . S
C135 O142 1.267 . S
O136 C135 1.203 . S
O137 C130 1.185 . S
O137 Zn133 2.086 1_655 S
C138 O134 1.278 . S
C138 O139 1.211 . S
O139 C138 1.211 . S
C140 O132 1.284 . S
C140 O141 1.273 . S
O141 C140 1.273 . S
O142 Zn133 1.977 . S
O142 C135 1.267 . S
C143 O144 1.160 . S
C143 O150 1.185 . S
O144 C143 1.160 . S
O145 Zn146 1.899 . S
O145 C153 1.284 . S
Zn146 O145 1.899 . S
Zn146 O147 2.032 . S
Zn146 O150 2.086 . S
Zn146 O155 1.977 . S
O147 Zn146 2.032 . S
O147 C151 1.278 . S
C148 O149 1.203 . S
C148 O155 1.267 . S
O149 C148 1.203 . S
O150 C143 1.185 . S
O150 Zn146 2.086 . S
C151 O147 1.278 . S
C151 O152 1.211 . S
O152 C151 1.211 . S
C153 O145 1.284 . S
C153 O154 1.273 . S
O154 C153 1.273 . S
O155 Zn146 1.977 . S
O155 C148 1.267 . S
C156 O157 1.160 . S
C156 O163 1.185 . S
O157 C156 1.160 . S
O158 Zn159 1.899 . S
O158 C166 1.285 1_545 S
Zn159 O158 1.899 . S
Zn159 O160 2.032 . S
Zn159 O163 2.086 . S
Zn159 O168 1.977 . S
O160 Zn159 2.032 . S
O160 C164 1.278 . S
C161 O162 1.203 . S
C161 O168 1.267 . S
O162 C161 1.203 . S
O163 C156 1.185 . S
O163 Zn159 2.086 . S
C164 O160 1.278 . S
C164 O165 1.211 . S
O165 C164 1.211 . S
C166 O158 1.285 1_565 S
C166 O167 1.266 1_565 S
O167 C166 1.266 1_545 S
O168 Zn159 1.977 . S
O168 C161 1.267 . S
C169 O170 1.160 . S
C169 O176 1.185 . S
O170 C169 1.160 . S
O171 Zn172 1.899 . S
O171 C179 1.284 . S
Zn172 O171 1.899 . S
Zn172 O173 2.032 . S
Zn172 O176 2.086 1_655 S
Zn172 O181 1.977 . S
O173 Zn172 2.032 . S
O173 C177 1.278 . S
C174 O175 1.203 . S
C174 O181 1.267 . S
O175 C174 1.203 . S
O176 C169 1.185 . S
O176 Zn172 2.086 1_455 S
C177 O173 1.278 . S
C177 O178 1.211 . S
O178 C177 1.211 . S
C179 O171 1.284 . S
C179 O180 1.273 . S
O180 C179 1.273 . S
O181 Zn172 1.977 . S
O181 C174 1.267 . S
C182 O183 1.160 . S
C182 O189 1.185 . S
O183 C182 1.160 . S
O184 Zn185 1.899 . S
O184 C192 1.284 . S
Zn185 O184 1.899 . S
Zn185 O186 2.032 . S
Zn185 O189 2.086 . S
Zn185 O194 1.977 . S
O186 Zn185 2.032 . S
O186 C190 1.278 . S
C187 O188 1.203 . S
C187 O194 1.267 . S
O188 C187 1.203 . S
O189 C182 1.185 . S
O189 Zn185 2.086 . S
C190 O186 1.278 . S
C190 O191 1.211 . S
O191 C190 1.211 . S
C192 O184 1.284 . S
C192 O193 1.273 . S
O193 C192 1.273 . S
O194 Zn185 1.977 . S
O194 C187 1.267 . S
C195 O196 1.160 . S
C195 O202 1.185 . S
O196 C195 1.160 . S
O197 Zn198 1.899 . S
O197 C205 1.284 . S
Zn198 O197 1.899 . S
Zn198 O199 2.032 . S
Zn198 O202 2.086 . S
Zn198 O207 1.977 . S
O199 Zn198 2.032 . S
O199 C203 1.278 . S
C200 O201 1.203 . S
C200 O207 1.267 . S
O201 C200 1.203 . S
O202 C195 1.185 . S
O202 Zn198 2.086 . S
C203 O199 1.278 . S
C203 O204 1.211 . S
O204 C203 1.211 . S
C205 O197 1.284 . S
C205 O206 1.273 . S
O206 C205 1.273 . S
O207 Zn198 1.977 . S
O207 C200 1.267 . S
C208 O209 1.160 . S
C208 O215 1.185 . S
O209 C208 1.160 . S
O210 Zn211 1.899 . S
O210 C218 1.310 . S
Zn211 O210 1.899 . S
Zn211 O212 2.032 . S
Zn211 O215 2.086 . S
Zn211 O220 1.977 . S
O212 Zn211 2.032 . S
O212 C216 1.278 . S
C213 O214 1.203 . S
C213 O220 1.267 . S
O214 C213 1.203 . S
O215 C208 1.185 . S
O215 Zn211 2.086 . S
C216 O212 1.278 . S
C216 O217 1.211 . S
O217 C216 1.211 . S
C218 O210 1.310 . S
C218 O219 1.275 . S
O219 C218 1.275 . S
O220 Zn211 1.977 . S
O220 C213 1.267 . S
C221 O222 1.160 . S
C221 O228 1.185 . S
O222 C221 1.160 . S
O223 Zn224 1.899 . S
O223 C231 1.284 . S
Zn224 O223 1.899 . S
Zn224 O225 2.032 . S
Zn224 O228 2.086 . S
Zn224 O233 1.977 . S
O225 Zn224 2.032 . S
O225 C229 1.278 . S
C226 O227 1.203 . S
C226 O233 1.267 . S
O227 C226 1.203 . S
O228 C221 1.185 . S
O228 Zn224 2.086 . S
C229 O225 1.278 . S
C229 O230 1.211 . S
O230 C229 1.211 . S
C231 O223 1.284 . S
C231 O232 1.273 . S
O232 C231 1.273 . S
O233 Zn224 1.977 . S
O233 C226 1.267 . S
H234 C261 0.929 . S
N235 C260 1.433 . S
N235 C266 1.435 . S
N235 C272 1.423 . S
H236 C262 0.930 . S
H237 C265 0.931 . S
H238 C264 0.929 . S
H239 C267 0.930 . S
H240 C268 0.932 . S
H241 C271 0.929 . S
H242 C270 0.931 . S
H243 C273 0.929 . S
H244 C277 0.932 . S
H245 C274 0.931 . S
H246 C276 0.929 . S
H247 C279 0.929 . S
H248 C280 0.930 . S
H249 C282 0.929 . S
H250 C283 0.931 . S
H251 C285 0.930 . S
H252 C286 0.932 . S
H253 C288 0.931 . S
H254 C289 0.929 . S
H255 C291 0.929 . S
H256 C292 0.931 . S
H257 C294 0.929 . S
N258 C278 1.433 . S
N258 C284 1.435 . S
N258 C290 1.423 . S
H259 C295 0.932 . S
C260 N235 1.433 . S
C260 C261 1.363 . S
C260 C265 1.370 . S
C261 H234 0.929 . S
C261 C260 1.363 . S
C261 C262 1.385 . S
C262 H236 0.930 . S
C262 C261 1.385 . S
C262 C263 1.357 . S
C263 C262 1.357 . S
C263 C264 1.406 . S
C264 H238 0.929 . S
C264 C263 1.406 . S
C264 C265 1.391 . S
C265 H237 0.931 . S
C265 C260 1.370 . S
C265 C264 1.391 . S
C266 N235 1.435 . S
C266 C267 1.358 . S
C266 C271 1.371 . S
C267 H239 0.930 . S
C267 C266 1.358 . S
C267 C268 1.405 . S
C268 H240 0.932 . S
C268 C267 1.405 . S
C268 C269 1.383 . S
C269 C268 1.383 . S
C269 C270 1.393 . S
C270 H242 0.931 . S
C270 C269 1.393 . S
C270 C271 1.382 . S
C271 H241 0.929 . S
C271 C266 1.371 . S
C271 C270 1.382 . S
C272 N235 1.423 . S
C272 C273 1.362 . S
C272 C277 1.388 . S
C273 H243 0.929 . S
C273 C272 1.362 . S
C273 C274 1.376 . S
C274 H245 0.931 . S
C274 C273 1.376 . S
C274 C275 1.396 . S
C275 C274 1.396 . S
C275 C276 1.348 . S
C275 C293 1.472 . S
C276 H246 0.929 . S
C276 C275 1.348 . S
C276 C277 1.443 . S
C277 H244 0.932 . S
C277 C272 1.388 . S
C277 C276 1.443 . S
C278 N258 1.433 . S
C278 C279 1.363 . S
C278 C283 1.370 . S
C279 H247 0.929 . S
C279 C278 1.363 . S
C279 C280 1.385 . S
C280 H248 0.930 . S
C280 C279 1.385 . S
C280 C281 1.357 . S
C281 C280 1.357 . S
C281 C282 1.406 . S
C282 H249 0.929 . S
C282 C281 1.406 . S
C282 C283 1.391 . S
C283 H250 0.931 . S
C283 C278 1.370 . S
C283 C282 1.391 . S
C284 N258 1.435 . S
C284 C285 1.358 . S
C284 C289 1.371 . S
C285 H251 0.930 . S
C285 C284 1.358 . S
C285 C286 1.405 . S
C286 H252 0.932 . S
C286 C285 1.405 . S
C286 C287 1.383 . S
C287 C286 1.383 . S
C287 C288 1.393 . S
C288 H253 0.931 . S
C288 C287 1.393 . S
C288 C289 1.382 . S
C289 H254 0.929 . S
C289 C284 1.371 . S
C289 C288 1.382 . S
C290 N258 1.423 . S
C290 C291 1.362 . S
C290 C295 1.388 . S
C291 H255 0.929 . S
C291 C290 1.362 . S
C291 C292 1.376 . S
C292 H256 0.931 . S
C292 C291 1.376 . S
C292 C293 1.396 . S
C293 C275 1.472 . S
C293 C292 1.396 . S
C293 C294 1.348 . S
C294 H257 0.929 . S
C294 C293 1.348 . S
C294 C295 1.443 . S
C295 H259 0.932 . S
C295 C290 1.388 . S
C295 C294 1.443 . S
H296 C323 0.929 . S
N297 C322 1.433 . S
N297 C328 1.435 . S
N297 C334 1.423 . S
H298 C324 0.930 . S
H299 C327 0.931 . S
H300 C326 0.929 . S
H301 C329 0.930 . S
H302 C330 0.932 . S
H303 C333 0.929 . S
H304 C332 0.931 . S
H305 C335 0.929 . S
H306 C339 0.932 . S
H307 C336 0.931 . S
H308 C338 0.929 . S
H309 C341 0.929 . S
H310 C342 0.930 . S
H311 C344 0.929 . S
H312 C345 0.931 . S
H313 C347 0.930 . S
H314 C348 0.932 . S
H315 C350 0.931 . S
H316 C351 0.929 . S
H317 C353 0.929 . S
H318 C354 0.931 . S
H319 C356 0.929 . S
N320 C340 1.433 . S
N320 C346 1.435 . S
N320 C352 1.423 . S
H321 C357 0.932 . S
C322 N297 1.433 . S
C322 C323 1.363 . S
C322 C327 1.370 . S
C323 H296 0.929 . S
C323 C322 1.363 . S
C323 C324 1.385 . S
C324 H298 0.930 . S
C324 C323 1.385 . S
C324 C325 1.357 . S
C325 C324 1.357 . S
C325 C326 1.406 . S
C326 H300 0.929 . S
C326 C325 1.406 . S
C326 C327 1.391 . S
C327 H299 0.931 . S
C327 C322 1.370 . S
C327 C326 1.391 . S
C328 N297 1.435 . S
C328 C329 1.358 . S
C328 C333 1.371 . S
C329 H301 0.930 . S
C329 C328 1.358 . S
C329 C330 1.405 . S
C330 H302 0.932 . S
C330 C329 1.405 . S
C330 C331 1.383 . S
C331 C330 1.383 . S
C331 C332 1.393 . S
C332 H304 0.931 . S
C332 C331 1.393 . S
C332 C333 1.382 . S
C333 H303 0.929 . S
C333 C328 1.371 . S
C333 C332 1.382 . S
C334 N297 1.423 . S
C334 C335 1.362 . S
C334 C339 1.388 . S
C335 H305 0.929 . S
C335 C334 1.362 . S
C335 C336 1.376 . S
C336 H307 0.931 . S
C336 C335 1.376 . S
C336 C337 1.396 . S
C337 C336 1.396 . S
C337 C338 1.348 . S
C337 C355 1.472 . S
C338 H308 0.929 . S
C338 C337 1.348 . S
C338 C339 1.443 . S
C339 H306 0.932 . S
C339 C334 1.388 . S
C339 C338 1.443 . S
C340 N320 1.433 . S
C340 C341 1.363 . S
C340 C345 1.370 . S
C341 H309 0.929 . S
C341 C340 1.363 . S
C341 C342 1.385 . S
C342 H310 0.930 . S
C342 C341 1.385 . S
C342 C343 1.357 . S
C343 C342 1.357 . S
C343 C344 1.406 . S
C344 H311 0.929 . S
C344 C343 1.406 . S
C344 C345 1.391 . S
C345 H312 0.931 . S
C345 C340 1.370 . S
C345 C344 1.391 . S
C346 N320 1.435 . S
C346 C347 1.358 . S
C346 C351 1.371 . S
C347 H313 0.930 . S
C347 C346 1.358 . S
C347 C348 1.405 . S
C348 H314 0.932 . S
C348 C347 1.405 . S
C348 C349 1.383 . S
C349 C348 1.383 . S
C349 C350 1.393 . S
C350 H315 0.931 . S
C350 C349 1.393 . S
C350 C351 1.382 . S
C351 H316 0.929 . S
C351 C346 1.371 . S
C351 C350 1.382 . S
C352 N320 1.423 . S
C352 C353 1.362 . S
C352 C357 1.388 . S
C353 H317 0.929 . S
C353 C352 1.362 . S
C353 C354 1.376 . S
C354 H318 0.931 . S
C354 C353 1.376 . S
C354 C355 1.396 . S
C355 C337 1.472 . S
C355 C354 1.396 . S
C355 C356 1.348 . S
C356 H319 0.929 . S
C356 C355 1.348 . S
C356 C357 1.443 . S
C357 H321 0.932 . S
C357 C352 1.388 . S
C357 C356 1.443 . S
H358 C385 0.929 . S
N359 C384 1.433 . S
N359 C390 1.435 . S
N359 C396 1.423 . S
H360 C386 0.930 . S
H361 C389 0.931 . S
H362 C388 0.929 . S
H363 C391 0.930 . S
H364 C392 0.932 . S
H365 C395 0.929 . S
H366 C394 0.931 . S
H367 C397 0.929 . S
H368 C401 0.932 . S
H369 C398 0.931 . S
H370 C400 0.929 . S
H371 C403 0.929 . S
H372 C404 0.930 . S
H373 C406 0.929 . S
H374 C407 0.931 . S
H375 C409 0.930 . S
H376 C410 0.932 . S
H377 C412 0.931 . S
H378 C413 0.929 . S
H379 C415 0.929 . S
H380 C416 0.931 . S
H381 C418 0.929 . S
N382 C402 1.433 . S
N382 C408 1.435 . S
N382 C414 1.423 . S
H383 C419 0.932 . S
C384 N359 1.433 . S
C384 C385 1.363 . S
C384 C389 1.370 . S
C385 H358 0.929 . S
C385 C384 1.363 . S
C385 C386 1.385 . S
C386 H360 0.930 . S
C386 C385 1.385 . S
C386 C387 1.357 . S
C387 C386 1.357 . S
C387 C388 1.406 . S
C388 H362 0.929 . S
C388 C387 1.406 . S
C388 C389 1.391 . S
C389 H361 0.931 . S
C389 C384 1.370 . S
C389 C388 1.391 . S
C390 N359 1.435 . S
C390 C391 1.358 . S
C390 C395 1.371 . S
C391 H363 0.930 . S
C391 C390 1.358 . S
C391 C392 1.405 . S
C392 H364 0.932 . S
C392 C391 1.405 . S
C392 C393 1.383 . S
C393 C392 1.383 . S
C393 C394 1.393 . S
C394 H366 0.931 . S
C394 C393 1.393 . S
C394 C395 1.382 . S
C395 H365 0.929 . S
C395 C390 1.371 . S
C395 C394 1.382 . S
C396 N359 1.423 . S
C396 C397 1.362 . S
C396 C401 1.388 . S
C397 H367 0.929 . S
C397 C396 1.362 . S
C397 C398 1.376 . S
C398 H369 0.931 . S
C398 C397 1.376 . S
C398 C399 1.396 . S
C399 C398 1.396 . S
C399 C400 1.348 . S
C399 C417 1.472 . S
C400 H370 0.929 . S
C400 C399 1.348 . S
C400 C401 1.443 . S
C401 H368 0.932 . S
C401 C396 1.388 . S
C401 C400 1.443 . S
C402 N382 1.433 . S
C402 C403 1.363 . S
C402 C407 1.370 . S
C403 H371 0.929 . S
C403 C402 1.363 . S
C403 C404 1.385 . S
C404 H372 0.930 . S
C404 C403 1.385 . S
C404 C405 1.357 . S
C405 C404 1.357 . S
C405 C406 1.406 . S
C406 H373 0.929 . S
C406 C405 1.406 . S
C406 C407 1.391 . S
C407 H374 0.931 . S
C407 C402 1.370 . S
C407 C406 1.391 . S
C408 N382 1.435 . S
C408 C409 1.358 . S
C408 C413 1.371 . S
C409 H375 0.930 . S
C409 C408 1.358 . S
C409 C410 1.405 . S
C410 H376 0.932 . S
C410 C409 1.405 . S
C410 C411 1.383 . S
C411 C410 1.383 . S
C411 C412 1.393 . S
C412 H377 0.931 . S
C412 C411 1.393 . S
C412 C413 1.382 . S
C413 H378 0.929 . S
C413 C408 1.371 . S
C413 C412 1.382 . S
C414 N382 1.423 . S
C414 C415 1.362 . S
C414 C419 1.388 . S
C415 H379 0.929 . S
C415 C414 1.362 . S
C415 C416 1.376 . S
C416 H380 0.931 . S
C416 C415 1.376 . S
C416 C417 1.396 . S
C417 C399 1.472 . S
C417 C416 1.396 . S
C417 C418 1.348 . S
C418 H381 0.929 . S
C418 C417 1.348 . S
C418 C419 1.443 . S
C419 H383 0.932 . S
C419 C414 1.388 . S
C419 C418 1.443 . S
H420 C447 0.929 . S
N421 C446 1.433 . S
N421 C452 1.435 . S
N421 C458 1.423 . S
H422 C448 0.930 . S
H423 C451 0.931 . S
H424 C450 0.929 . S
H425 C453 0.930 . S
H426 C454 0.932 . S
H427 C457 0.929 . S
H428 C456 0.931 . S
H429 C459 0.929 . S
H430 C463 0.932 . S
H431 C460 0.931 . S
H432 C462 0.929 . S
H433 C465 0.929 . S
H434 C466 0.930 . S
H435 C468 0.929 . S
H436 C469 0.931 . S
H437 C471 0.930 . S
H438 C472 0.932 . S
H439 C474 0.931 . S
H440 C475 0.929 . S
H441 C477 0.929 . S
H442 C478 0.931 . S
H443 C480 0.929 . S
N444 C464 1.433 . S
N444 C470 1.435 . S
N444 C476 1.423 . S
H445 C481 0.932 . S
C446 N421 1.433 . S
C446 C447 1.363 . S
C446 C451 1.370 . S
C447 H420 0.929 . S
C447 C446 1.363 . S
C447 C448 1.385 . S
C448 H422 0.930 . S
C448 C447 1.385 . S
C448 C449 1.357 . S
C449 C448 1.357 . S
C449 C450 1.406 . S
C450 H424 0.929 . S
C450 C449 1.406 . S
C450 C451 1.391 . S
C451 H423 0.931 . S
C451 C446 1.370 . S
C451 C450 1.391 . S
C452 N421 1.435 . S
C452 C453 1.358 . S
C452 C457 1.371 . S
C453 H425 0.930 . S
C453 C452 1.358 . S
C453 C454 1.405 . S
C454 H426 0.932 . S
C454 C453 1.405 . S
C454 C455 1.383 . S
C455 C454 1.383 . S
C455 C456 1.393 . S
C456 H428 0.931 . S
C456 C455 1.393 . S
C456 C457 1.382 . S
C457 H427 0.929 . S
C457 C452 1.371 . S
C457 C456 1.382 . S
C458 N421 1.423 . S
C458 C459 1.362 . S
C458 C463 1.388 . S
C459 H429 0.929 . S
C459 C458 1.362 . S
C459 C460 1.376 . S
C460 H431 0.931 . S
C460 C459 1.376 . S
C460 C461 1.396 . S
C461 C460 1.396 . S
C461 C462 1.348 . S
C461 C479 1.472 . S
C462 H432 0.929 . S
C462 C461 1.348 . S
C462 C463 1.443 . S
C463 H430 0.932 . S
C463 C458 1.388 . S
C463 C462 1.443 . S
C464 N444 1.433 . S
C464 C465 1.363 . S
C464 C469 1.370 . S
C465 H433 0.929 . S
C465 C464 1.363 . S
C465 C466 1.385 . S
C466 H434 0.930 . S
C466 C465 1.385 . S
C466 C467 1.357 . S
C467 C466 1.357 . S
C467 C468 1.406 . S
C468 H435 0.929 . S
C468 C467 1.406 . S
C468 C469 1.391 . S
C469 H436 0.931 . S
C469 C464 1.370 . S
C469 C468 1.391 . S
C470 N444 1.435 . S
C470 C471 1.358 . S
C470 C475 1.371 . S
C471 H437 0.930 . S
C471 C470 1.358 . S
C471 C472 1.405 . S
C472 H438 0.932 . S
C472 C471 1.405 . S
C472 C473 1.383 . S
C473 C472 1.383 . S
C473 C474 1.393 . S
C474 H439 0.931 . S
C474 C473 1.393 . S
C474 C475 1.382 . S
C475 H440 0.929 . S
C475 C470 1.371 . S
C475 C474 1.382 . S
C476 N444 1.423 . S
C476 C477 1.362 . S
C476 C481 1.388 . S
C477 H441 0.929 . S
C477 C476 1.362 . S
C477 C478 1.376 . S
C478 H442 0.931 . S
C478 C477 1.376 . S
C478 C479 1.396 . S
C479 C461 1.472 . S
C479 C478 1.396 . S
C479 C480 1.348 . S
C480 H443 0.929 . S
C480 C479 1.348 . S
C480 C481 1.443 . S
C481 H445 0.932 . S
C481 C476 1.388 . S
C481 C480 1.443 . S
H482 C509 0.929 . S
N483 C508 1.433 . S
N483 C514 1.435 . S
N483 C520 1.423 . S
H484 C510 0.930 . S
H485 C513 0.931 . S
H486 C512 0.929 . S
H487 C515 0.930 . S
H488 C516 0.932 . S
H489 C519 0.929 . S
H490 C518 0.931 . S
H491 C521 0.929 . S
H492 C525 0.932 . S
H493 C522 0.931 . S
H494 C524 0.929 . S
H495 C527 0.929 . S
H496 C528 0.930 . S
H497 C530 0.929 . S
H498 C531 0.931 . S
H499 C533 0.930 . S
H500 C534 0.932 . S
H501 C536 0.931 . S
H502 C537 0.929 . S
H503 C539 0.929 . S
H504 C540 0.931 . S
H505 C542 0.929 . S
N506 C526 1.433 . S
N506 C532 1.435 . S
N506 C538 1.423 . S
H507 C543 0.932 . S
C508 N483 1.433 . S
C508 C509 1.363 . S
C508 C513 1.370 . S
C509 H482 0.929 . S
C509 C508 1.363 . S
C509 C510 1.385 . S
C510 H484 0.930 . S
C510 C509 1.385 . S
C510 C511 1.357 . S
C511 C510 1.357 . S
C511 C512 1.406 . S
C512 H486 0.929 . S
C512 C511 1.406 . S
C512 C513 1.391 . S
C513 H485 0.931 . S
C513 C508 1.370 . S
C513 C512 1.391 . S
C514 N483 1.435 . S
C514 C515 1.358 . S
C514 C519 1.371 . S
C515 H487 0.930 . S
C515 C514 1.358 . S
C515 C516 1.405 . S
C516 H488 0.932 . S
C516 C515 1.405 . S
C516 C517 1.383 . S
C517 C516 1.383 . S
C517 C518 1.393 . S
C518 H490 0.931 . S
C518 C517 1.393 . S
C518 C519 1.382 . S
C519 H489 0.929 . S
C519 C514 1.371 . S
C519 C518 1.382 . S
C520 N483 1.423 . S
C520 C521 1.362 . S
C520 C525 1.388 . S
C521 H491 0.929 . S
C521 C520 1.362 . S
C521 C522 1.376 . S
C522 H493 0.931 . S
C522 C521 1.376 . S
C522 C523 1.396 . S
C523 C522 1.396 . S
C523 C524 1.348 . S
C523 C541 1.472 . S
C524 H494 0.929 . S
C524 C523 1.348 . S
C524 C525 1.443 . S
C525 H492 0.932 . S
C525 C520 1.388 . S
C525 C524 1.443 . S
C526 N506 1.433 . S
C526 C527 1.363 . S
C526 C531 1.370 . S
C527 H495 0.929 . S
C527 C526 1.363 . S
C527 C528 1.385 . S
C528 H496 0.930 . S
C528 C527 1.385 . S
C528 C529 1.357 . S
C529 C528 1.357 . S
C529 C530 1.406 . S
C530 H497 0.929 . S
C530 C529 1.406 . S
C530 C531 1.391 . S
C531 H498 0.931 . S
C531 C526 1.370 . S
C531 C530 1.391 . S
C532 N506 1.435 . S
C532 C533 1.358 . S
C532 C537 1.371 . S
C533 H499 0.930 . S
C533 C532 1.358 . S
C533 C534 1.405 . S
C534 H500 0.932 . S
C534 C533 1.405 . S
C534 C535 1.383 . S
C535 C534 1.383 . S
C535 C536 1.393 . S
C536 H501 0.931 . S
C536 C535 1.393 . S
C536 C537 1.382 . S
C537 H502 0.929 . S
C537 C532 1.371 . S
C537 C536 1.382 . S
C538 N506 1.423 . S
C538 C539 1.362 . S
C538 C543 1.388 . S
C539 H503 0.929 . S
C539 C538 1.362 . S
C539 C540 1.376 . S
C540 H504 0.931 . S
C540 C539 1.376 . S
C540 C541 1.396 . S
C541 C523 1.472 . S
C541 C540 1.396 . S
C541 C542 1.348 . S
C542 H505 0.929 . S
C542 C541 1.348 . S
C542 C543 1.443 . S
C543 H507 0.932 . S
C543 C538 1.388 . S
C543 C542 1.443 . S
H544 C571 0.929 . S
N545 C570 1.433 . S
N545 C576 1.435 . S
N545 C582 1.423 . S
H546 C572 0.930 . S
H547 C575 0.931 . S
H548 C574 0.929 . S
H549 C577 0.930 . S
H550 C578 0.932 . S
H551 C581 0.929 . S
H552 C580 0.931 . S
H553 C583 0.929 . S
H554 C587 0.932 . S
H555 C584 0.931 . S
H556 C586 0.929 . S
H557 C589 0.929 . S
H558 C590 0.930 . S
H559 C592 0.929 . S
H560 C593 0.931 . S
H561 C595 0.930 . S
H562 C596 0.932 . S
H563 C598 0.931 . S
H564 C599 0.929 . S
H565 C601 0.929 . S
H566 C602 0.931 . S
H567 C604 0.929 . S
N568 C588 1.433 . S
N568 C594 1.435 . S
N568 C600 1.423 . S
H569 C605 0.932 . S
C570 N545 1.433 . S
C570 C571 1.363 . S
C570 C575 1.370 . S
C571 H544 0.929 . S
C571 C570 1.363 . S
C571 C572 1.385 . S
C572 H546 0.930 . S
C572 C571 1.385 . S
C572 C573 1.357 . S
C573 C572 1.357 . S
C573 C574 1.406 . S
C574 H548 0.929 . S
C574 C573 1.406 . S
C574 C575 1.391 . S
C575 H547 0.931 . S
C575 C570 1.370 . S
C575 C574 1.391 . S
C576 N545 1.435 . S
C576 C577 1.358 . S
C576 C581 1.371 . S
C577 H549 0.930 . S
C577 C576 1.358 . S
C577 C578 1.405 . S
C578 H550 0.932 . S
C578 C577 1.405 . S
C578 C579 1.383 . S
C579 C578 1.383 . S
C579 C580 1.393 . S
C580 H552 0.931 . S
C580 C579 1.393 . S
C580 C581 1.382 . S
C581 H551 0.929 . S
C581 C576 1.371 . S
C581 C580 1.382 . S
C582 N545 1.423 . S
C582 C583 1.362 . S
C582 C587 1.388 . S
C583 H553 0.929 . S
C583 C582 1.362 . S
C583 C584 1.376 . S
C584 H555 0.931 . S
C584 C583 1.376 . S
C584 C585 1.396 . S
C585 C584 1.396 . S
C585 C586 1.348 . S
C585 C603 1.472 . S
C586 H556 0.929 . S
C586 C585 1.348 . S
C586 C587 1.443 . S
C587 H554 0.932 . S
C587 C582 1.388 . S
C587 C586 1.443 . S
C588 N568 1.433 . S
C588 C589 1.363 . S
C588 C593 1.370 . S
C589 H557 0.929 . S
C589 C588 1.363 . S
C589 C590 1.385 . S
C590 H558 0.930 . S
C590 C589 1.385 . S
C590 C591 1.357 . S
C591 C590 1.357 . S
C591 C592 1.406 . S
C592 H559 0.929 . S
C592 C591 1.406 . S
C592 C593 1.391 . S
C593 H560 0.931 . S
C593 C588 1.370 . S
C593 C592 1.391 . S
C594 N568 1.435 . S
C594 C595 1.358 . S
C594 C599 1.371 . S
C595 H561 0.930 . S
C595 C594 1.358 . S
C595 C596 1.405 . S
C596 H562 0.932 . S
C596 C595 1.405 . S
C596 C597 1.383 . S
C597 C596 1.383 . S
C597 C598 1.393 . S
C598 H563 0.931 . S
C598 C597 1.393 . S
C598 C599 1.382 . S
C599 H564 0.929 . S
C599 C594 1.371 . S
C599 C598 1.382 . S
C600 N568 1.423 . S
C600 C601 1.362 . S
C600 C605 1.388 . S
C601 H565 0.929 . S
C601 C600 1.362 . S
C601 C602 1.376 . S
C602 H566 0.931 . S
C602 C601 1.376 . S
C602 C603 1.396 . S
C603 C585 1.472 . S
C603 C602 1.396 . S
C603 C604 1.348 . S
C604 H567 0.929 . S
C604 C603 1.348 . S
C604 C605 1.443 . S
C605 H569 0.932 . S
C605 C600 1.388 . S
C605 C604 1.443 . S
H606 C633 0.929 . S
N607 C632 1.433 . S
N607 C638 1.435 . S
N607 C644 1.423 . S
H608 C634 0.930 . S
H609 C637 0.931 . S
H610 C636 0.929 . S
H611 C639 0.930 . S
H612 C640 0.932 . S
H613 C643 0.929 . S
H614 C642 0.931 . S
H615 C645 0.929 . S
H616 C649 0.932 . S
H617 C646 0.931 . S
H618 C648 0.929 . S
H619 C651 0.929 . S
H620 C652 0.930 . S
H621 C654 0.929 . S
H622 C655 0.931 . S
H623 C657 0.930 . S
H624 C658 0.932 . S
H625 C660 0.931 . S
H626 C661 0.929 . S
H627 C663 0.929 . S
H628 C664 0.931 . S
H629 C666 0.929 . S
N630 C650 1.433 . S
N630 C656 1.435 . S
N630 C662 1.423 . S
H631 C667 0.932 . S
C632 N607 1.433 . S
C632 C633 1.363 . S
C632 C637 1.370 . S
C633 H606 0.929 . S
C633 C632 1.363 . S
C633 C634 1.385 . S
C634 H608 0.930 . S
C634 C633 1.385 . S
C634 C635 1.357 . S
C635 C634 1.357 . S
C635 C636 1.406 . S
C636 H610 0.929 . S
C636 C635 1.406 . S
C636 C637 1.391 . S
C637 H609 0.931 . S
C637 C632 1.370 . S
C637 C636 1.391 . S
C638 N607 1.435 . S
C638 C639 1.358 . S
C638 C643 1.371 . S
C639 H611 0.930 . S
C639 C638 1.358 . S
C639 C640 1.405 . S
C640 H612 0.932 . S
C640 C639 1.405 . S
C640 C641 1.383 . S
C641 C640 1.383 . S
C641 C642 1.393 . S
C642 H614 0.931 . S
C642 C641 1.393 . S
C642 C643 1.382 . S
C643 H613 0.929 . S
C643 C638 1.371 . S
C643 C642 1.382 . S
C644 N607 1.423 . S
C644 C645 1.362 . S
C644 C649 1.388 . S
C645 H615 0.929 . S
C645 C644 1.362 . S
C645 C646 1.376 . S
C646 H617 0.931 . S
C646 C645 1.376 . S
C646 C647 1.396 . S
C647 C646 1.396 . S
C647 C648 1.348 . S
C647 C665 1.472 . S
C648 H618 0.929 . S
C648 C647 1.348 . S
C648 C649 1.443 . S
C649 H616 0.932 . S
C649 C644 1.388 . S
C649 C648 1.443 . S
C650 N630 1.433 . S
C650 C651 1.363 . S
C650 C655 1.370 . S
C651 H619 0.929 . S
C651 C650 1.363 . S
C651 C652 1.385 . S
C652 H620 0.930 . S
C652 C651 1.385 . S
C652 C653 1.357 . S
C653 C652 1.357 . S
C653 C654 1.406 . S
C654 H621 0.929 . S
C654 C653 1.406 . S
C654 C655 1.391 . S
C655 H622 0.931 . S
C655 C650 1.370 . S
C655 C654 1.391 . S
C656 N630 1.435 . S
C656 C657 1.358 . S
C656 C661 1.371 . S
C657 H623 0.930 . S
C657 C656 1.358 . S
C657 C658 1.405 . S
C658 H624 0.932 . S
C658 C657 1.405 . S
C658 C659 1.383 . S
C659 C658 1.383 . S
C659 C660 1.393 . S
C660 H625 0.931 . S
C660 C659 1.393 . S
C660 C661 1.382 . S
C661 H626 0.929 . S
C661 C656 1.371 . S
C661 C660 1.382 . S
C662 N630 1.423 . S
C662 C663 1.362 . S
C662 C667 1.388 . S
C663 H627 0.929 . S
C663 C662 1.362 . S
C663 C664 1.376 . S
C664 H628 0.931 . S
C664 C663 1.376 . S
C664 C665 1.396 . S
C665 C647 1.472 . S
C665 C664 1.396 . S
C665 C666 1.348 . S
C666 H629 0.929 . S
C666 C665 1.348 . S
C666 C667 1.443 . S
C667 H631 0.932 . S
C667 C662 1.388 . S
C667 C666 1.443 . S
H668 C695 0.929 . S
N669 C694 1.433 . S
N669 C700 1.435 . S
N669 C706 1.423 . S
H670 C696 0.930 . S
H671 C699 0.931 . S
H672 C698 0.929 . S
H673 C701 0.930 . S
H674 C702 0.932 . S
H675 C705 0.929 . S
H676 C704 0.931 . S
H677 C707 0.929 . S
H678 C711 0.932 . S
H679 C708 0.931 . S
H680 C710 0.929 . S
H681 C713 0.929 . S
H682 C714 0.930 . S
H683 C716 0.929 . S
H684 C717 0.931 . S
H685 C719 0.930 . S
H686 C720 0.932 . S
H687 C722 0.931 . S
H688 C723 0.929 . S
H689 C725 0.929 . S
H690 C726 0.931 . S
H691 C728 0.929 . S
N692 C712 1.433 . S
N692 C718 1.435 . S
N692 C724 1.423 . S
H693 C729 0.932 . S
C694 N669 1.433 . S
C694 C695 1.363 . S
C694 C699 1.370 . S
C695 H668 0.929 . S
C695 C694 1.363 . S
C695 C696 1.385 . S
C696 H670 0.930 . S
C696 C695 1.385 . S
C696 C697 1.357 . S
C697 C696 1.357 . S
C697 C698 1.406 . S
C698 H672 0.929 . S
C698 C697 1.406 . S
C698 C699 1.391 . S
C699 H671 0.931 . S
C699 C694 1.370 . S
C699 C698 1.391 . S
C700 N669 1.435 . S
C700 C701 1.358 . S
C700 C705 1.371 . S
C701 H673 0.930 . S
C701 C700 1.358 . S
C701 C702 1.405 . S
C702 H674 0.932 . S
C702 C701 1.405 . S
C702 C703 1.383 . S
C703 C702 1.383 . S
C703 C704 1.393 . S
C704 H676 0.931 . S
C704 C703 1.393 . S
C704 C705 1.382 . S
C705 H675 0.929 . S
C705 C700 1.371 . S
C705 C704 1.382 . S
C706 N669 1.423 . S
C706 C707 1.362 . S
C706 C711 1.388 . S
C707 H677 0.929 . S
C707 C706 1.362 . S
C707 C708 1.376 . S
C708 H679 0.931 . S
C708 C707 1.376 . S
C708 C709 1.396 . S
C709 C708 1.396 . S
C709 C710 1.348 . S
C709 C727 1.472 . S
C710 H680 0.929 . S
C710 C709 1.348 . S
C710 C711 1.443 . S
C711 H678 0.932 . S
C711 C706 1.388 . S
C711 C710 1.443 . S
C712 N692 1.433 . S
C712 C713 1.363 . S
C712 C717 1.370 . S
C713 H681 0.929 . S
C713 C712 1.363 . S
C713 C714 1.385 . S
C714 H682 0.930 . S
C714 C713 1.385 . S
C714 C715 1.357 . S
C715 C714 1.357 . S
C715 C716 1.406 . S
C716 H683 0.929 . S
C716 C715 1.406 . S
C716 C717 1.391 . S
C717 H684 0.931 . S
C717 C712 1.370 . S
C717 C716 1.391 . S
C718 N692 1.435 . S
C718 C719 1.358 . S
C718 C723 1.371 . S
C719 H685 0.930 . S
C719 C718 1.358 . S
C719 C720 1.405 . S
C720 H686 0.932 . S
C720 C719 1.405 . S
C720 C721 1.383 . S
C721 C720 1.383 . S
C721 C722 1.393 . S
C722 H687 0.931 . S
C722 C721 1.393 . S
C722 C723 1.382 . S
C723 H688 0.929 . S
C723 C718 1.371 . S
C723 C722 1.382 . S
C724 N692 1.423 . S
C724 C725 1.362 . S
C724 C729 1.388 . S
C725 H689 0.929 . S
C725 C724 1.362 . S
C725 C726 1.376 . S
C726 H690 0.931 . S
C726 C725 1.376 . S
C726 C727 1.396 . S
C727 C709 1.472 . S
C727 C726 1.396 . S
C727 C728 1.348 . S
C728 H691 0.929 . S
C728 C727 1.348 . S
C728 C729 1.443 . S
C729 H693 0.932 . S
C729 C724 1.388 . S
C729 C728 1.443 . S
H730 C757 0.929 . S
N731 C756 1.433 . S
N731 C762 1.435 . S
N731 C768 1.423 . S
H732 C758 0.930 . S
H733 C761 0.931 . S
H734 C760 0.929 . S
H735 C763 0.930 . S
H736 C764 0.932 . S
H737 C767 0.929 . S
H738 C766 0.931 . S
H739 C769 0.929 . S
H740 C773 0.932 . S
H741 C770 0.931 . S
H742 C772 0.929 . S
H743 C775 0.929 . S
H744 C776 0.930 . S
H745 C778 0.929 . S
H746 C779 0.931 . S
H747 C781 0.930 . S
H748 C782 0.932 . S
H749 C784 0.931 . S
H750 C785 0.929 . S
H751 C787 0.929 . S
H752 C788 0.931 . S
H753 C790 0.929 . S
N754 C774 1.433 . S
N754 C780 1.435 . S
N754 C786 1.423 . S
H755 C791 0.932 . S
C756 N731 1.433 . S
C756 C757 1.363 . S
C756 C761 1.370 . S
C757 H730 0.929 . S
C757 C756 1.363 . S
C757 C758 1.385 . S
C758 H732 0.930 . S
C758 C757 1.385 . S
C758 C759 1.357 . S
C759 C758 1.357 . S
C759 C760 1.406 . S
C760 H734 0.929 . S
C760 C759 1.406 . S
C760 C761 1.391 . S
C761 H733 0.931 . S
C761 C756 1.370 . S
C761 C760 1.391 . S
C762 N731 1.435 . S
C762 C763 1.358 . S
C762 C767 1.371 . S
C763 H735 0.930 . S
C763 C762 1.358 . S
C763 C764 1.405 . S
C764 H736 0.932 . S
C764 C763 1.405 . S
C764 C765 1.383 . S
C765 C764 1.383 . S
C765 C766 1.393 . S
C766 H738 0.931 . S
C766 C765 1.393 . S
C766 C767 1.382 . S
C767 H737 0.929 . S
C767 C762 1.371 . S
C767 C766 1.382 . S
C768 N731 1.423 . S
C768 C769 1.362 . S
C768 C773 1.388 . S
C769 H739 0.929 . S
C769 C768 1.362 . S
C769 C770 1.376 . S
C770 H741 0.931 . S
C770 C769 1.376 . S
C770 C771 1.396 . S
C771 C770 1.396 . S
C771 C772 1.348 . S
C771 C789 1.472 . S
C772 H742 0.929 . S
C772 C771 1.348 . S
C772 C773 1.443 . S
C773 H740 0.932 . S
C773 C768 1.388 . S
C773 C772 1.443 . S
C774 N754 1.433 . S
C774 C775 1.363 . S
C774 C779 1.370 . S
C775 H743 0.929 . S
C775 C774 1.363 . S
C775 C776 1.385 . S
C776 H744 0.930 . S
C776 C775 1.385 . S
C776 C777 1.357 . S
C777 C776 1.357 . S
C777 C778 1.406 . S
C778 H745 0.929 . S
C778 C777 1.406 . S
C778 C779 1.391 . S
C779 H746 0.931 . S
C779 C774 1.370 . S
C779 C778 1.391 . S
C780 N754 1.435 . S
C780 C781 1.358 . S
C780 C785 1.371 . S
C781 H747 0.930 . S
C781 C780 1.358 . S
C781 C782 1.405 . S
C782 H748 0.932 . S
C782 C781 1.405 . S
C782 C783 1.383 . S
C783 C782 1.383 . S
C783 C784 1.393 . S
C784 H749 0.931 . S
C784 C783 1.393 . S
C784 C785 1.382 . S
C785 H750 0.929 . S
C785 C780 1.371 . S
C785 C784 1.382 . S
C786 N754 1.423 . S
C786 C787 1.362 . S
C786 C791 1.388 . S
C787 H751 0.929 . S
C787 C786 1.362 . S
C787 C788 1.376 . S
C788 H752 0.931 . S
C788 C787 1.376 . S
C788 C789 1.396 . S
C789 C771 1.472 . S
C789 C788 1.396 . S
C789 C790 1.348 . S
C790 H753 0.929 . S
C790 C789 1.348 . S
C790 C791 1.443 . S
C791 H755 0.932 . S
C791 C786 1.388 . S
C791 C790 1.443 . S
H792 C819 0.929 . S
N793 C818 1.433 . S
N793 C824 1.435 . S
N793 C830 1.423 . S
H794 C820 0.930 . S
H795 C823 0.931 . S
H796 C822 0.929 . S
H797 C825 0.930 . S
H798 C826 0.932 . S
H799 C829 0.929 . S
H800 C828 0.931 . S
H801 C831 0.929 . S
H802 C835 0.932 1_655 S
H803 C832 0.931 . S
H804 C834 0.929 . S
H805 C837 0.929 . S
H806 C838 0.930 . S
H807 C840 0.929 . S
H808 C841 0.931 . S
H809 C843 0.930 . S
H810 C844 0.932 . S
H811 C846 0.931 . S
H812 C847 0.929 . S
H813 C849 0.929 . S
H814 C850 0.931 . S
H815 C852 0.929 . S
N816 C836 1.433 . S
N816 C842 1.435 . S
N816 C848 1.423 . S
H817 C853 0.932 1_655 S
C818 N793 1.433 . S
C818 C819 1.363 . S
C818 C823 1.370 1_455 S
C819 H792 0.929 . S
C819 C818 1.363 . S
C819 C820 1.385 . S
C820 H794 0.930 . S
C820 C819 1.385 . S
C820 C821 1.357 1_455 S
C821 C820 1.357 1_655 S
C821 C822 1.406 . S
C822 H796 0.929 . S
C822 C821 1.406 . S
C822 C823 1.391 . S
C823 H795 0.931 . S
C823 C818 1.370 1_655 S
C823 C822 1.391 . S
C824 N793 1.435 . S
C824 C825 1.358 1_455 S
C824 C829 1.371 . S
C825 H797 0.930 . S
C825 C824 1.358 1_655 S
C825 C826 1.405 . S
C826 H798 0.932 . S
C826 C825 1.405 . S
C826 C827 1.383 1_655 S
C827 C826 1.383 1_455 S
C827 C828 1.393 . S
C828 H800 0.931 . S
C828 C827 1.393 . S
C828 C829 1.382 . S
C829 H799 0.929 . S
C829 C824 1.371 . S
C829 C828 1.382 . S
C830 N793 1.423 . S
C830 C831 1.362 . S
C830 C835 1.388 . S
C831 H801 0.929 . S
C831 C830 1.362 . S
C831 C832 1.376 . S
C832 H803 0.931 . S
C832 C831 1.376 . S
C832 C833 1.396 . S
C833 C832 1.396 . S
C833 C834 1.348 . S
C833 C851 1.472 . S
C834 H804 0.929 . S
C834 C833 1.348 . S
C834 C835 1.443 . S
C835 H802 0.932 1_455 S
C835 C830 1.388 . S
C835 C834 1.443 . S
C836 N816 1.433 . S
C836 C837 1.363 . S
C836 C841 1.370 1_455 S
C837 H805 0.929 . S
C837 C836 1.363 . S
C837 C838 1.385 . S
C838 H806 0.930 . S
C838 C837 1.385 . S
C838 C839 1.357 1_455 S
C839 C838 1.357 1_655 S
C839 C840 1.406 . S
C840 H807 0.929 . S
C840 C839 1.406 . S
C840 C841 1.391 . S
C841 H808 0.931 . S
C841 C836 1.370 1_655 S
C841 C840 1.391 . S
C842 N816 1.435 . S
C842 C843 1.358 1_455 S
C842 C847 1.371 . S
C843 H809 0.930 . S
C843 C842 1.358 1_655 S
C843 C844 1.405 . S
C844 H810 0.932 . S
C844 C843 1.405 . S
C844 C845 1.383 1_655 S
C845 C844 1.383 1_455 S
C845 C846 1.393 . S
C846 H811 0.931 . S
C846 C845 1.393 . S
C846 C847 1.382 . S
C847 H812 0.929 . S
C847 C842 1.371 . S
C847 C846 1.382 . S
C848 N816 1.423 . S
C848 C849 1.362 . S
C848 C853 1.388 . S
C849 H813 0.929 . S
C849 C848 1.362 . S
C849 C850 1.376 . S
C850 H814 0.931 . S
C850 C849 1.376 . S
C850 C851 1.396 . S
C851 C833 1.472 . S
C851 C850 1.396 . S
C851 C852 1.348 . S
C852 H815 0.929 . S
C852 C851 1.348 . S
C852 C853 1.443 . S
C853 H817 0.932 1_455 S
C853 C848 1.388 . S
C853 C852 1.443 . S
H854 C881 0.929 . S
N855 C880 1.433 . S
N855 C886 1.435 . S
N855 C892 1.423 . S
H856 C882 0.930 . S
H857 C885 0.931 . S
H858 C884 0.929 . S
H859 C887 0.930 . S
H860 C888 0.932 . S
H861 C891 0.929 . S
H862 C890 0.931 . S
H863 C893 0.929 . S
H864 C897 0.932 . S
H865 C894 0.931 . S
H866 C896 0.929 . S
H867 C899 0.929 . S
H868 C900 0.930 . S
H869 C902 0.929 . S
H870 C903 0.931 . S
H871 C905 0.930 . S
H872 C906 0.932 . S
H873 C908 0.931 . S
H874 C909 0.929 . S
H875 C911 0.929 . S
H876 C912 0.931 . S
H877 C914 0.929 . S
N878 C898 1.433 . S
N878 C904 1.435 . S
N878 C910 1.423 . S
H879 C915 0.932 . S
C880 N855 1.433 . S
C880 C881 1.363 . S
C880 C885 1.370 . S
C881 H854 0.929 . S
C881 C880 1.363 . S
C881 C882 1.385 . S
C882 H856 0.930 . S
C882 C881 1.385 . S
C882 C883 1.357 . S
C883 C882 1.357 . S
C883 C884 1.406 . S
C884 H858 0.929 . S
C884 C883 1.406 . S
C884 C885 1.391 . S
C885 H857 0.931 . S
C885 C880 1.370 . S
C885 C884 1.391 . S
C886 N855 1.435 . S
C886 C887 1.358 . S
C886 C891 1.371 . S
C887 H859 0.930 . S
C887 C886 1.358 . S
C887 C888 1.405 . S
C888 H860 0.932 . S
C888 C887 1.405 . S
C888 C889 1.383 . S
C889 C888 1.383 . S
C889 C890 1.393 . S
C890 H862 0.931 . S
C890 C889 1.393 . S
C890 C891 1.382 . S
C891 H861 0.929 . S
C891 C886 1.371 . S
C891 C890 1.382 . S
C892 N855 1.423 . S
C892 C893 1.362 . S
C892 C897 1.388 . S
C893 H863 0.929 . S
C893 C892 1.362 . S
C893 C894 1.376 . S
C894 H865 0.931 . S
C894 C893 1.376 . S
C894 C895 1.396 . S
C895 C894 1.396 . S
C895 C896 1.348 . S
C895 C913 1.472 . S
C896 H866 0.929 . S
C896 C895 1.348 . S
C896 C897 1.443 . S
C897 H864 0.932 . S
C897 C892 1.388 . S
C897 C896 1.443 . S
C898 N878 1.433 . S
C898 C899 1.363 . S
C898 C903 1.370 . S
C899 H867 0.929 . S
C899 C898 1.363 . S
C899 C900 1.385 . S
C900 H868 0.930 . S
C900 C899 1.385 . S
C900 C901 1.357 . S
C901 C900 1.357 . S
C901 C902 1.406 . S
C902 H869 0.929 . S
C902 C901 1.406 . S
C902 C903 1.391 . S
C903 H870 0.931 . S
C903 C898 1.370 . S
C903 C902 1.391 . S
C904 N878 1.435 . S
C904 C905 1.358 . S
C904 C909 1.371 . S
C905 H871 0.930 . S
C905 C904 1.358 . S
C905 C906 1.405 . S
C906 H872 0.932 . S
C906 C905 1.405 . S
C906 C907 1.383 . S
C907 C906 1.383 . S
C907 C908 1.393 . S
C908 H873 0.931 . S
C908 C907 1.393 . S
C908 C909 1.382 . S
C909 H874 0.929 . S
C909 C904 1.371 . S
C909 C908 1.382 . S
C910 N878 1.423 . S
C910 C911 1.362 . S
C910 C915 1.388 . S
C911 H875 0.929 . S
C911 C910 1.362 . S
C911 C912 1.376 . S
C912 H876 0.931 . S
C912 C911 1.376 . S
C912 C913 1.396 . S
C913 C895 1.472 . S
C913 C912 1.396 . S
C913 C914 1.348 . S
C914 H877 0.929 . S
C914 C913 1.348 . S
C914 C915 1.443 . S
C915 H879 0.932 . S
C915 C910 1.388 . S
C915 C914 1.443 . S
H916 C943 0.929 . S
N917 C942 1.433 . S
N917 C948 1.435 . S
N917 C954 1.423 . S
H918 C944 0.930 . S
H919 C947 0.931 . S
H920 C946 0.929 . S
H921 C949 0.930 . S
H922 C950 0.932 . S
H923 C953 0.929 . S
H924 C952 0.931 . S
H925 C955 0.929 . S
H926 C959 0.932 1_545 S
H927 C956 0.931 . S
H928 C958 0.929 . S
H929 C961 0.929 . S
H930 C962 0.930 . S
H931 C964 0.929 . S
H932 C965 0.931 . S
H933 C967 0.930 . S
H934 C968 0.932 . S
H935 C970 0.931 . S
H936 C971 0.929 . S
H937 C973 0.929 . S
H938 C974 0.931 . S
H939 C976 0.929 . S
N940 C960 1.433 . S
N940 C966 1.435 . S
N940 C972 1.423 . S
H941 C977 0.932 1_545 S
C942 N917 1.433 . S
C942 C943 1.363 . S
C942 C947 1.370 1_565 S
C943 H916 0.929 . S
C943 C942 1.363 . S
C943 C944 1.385 . S
C944 H918 0.930 . S
C944 C943 1.385 . S
C944 C945 1.357 1_565 S
C945 C944 1.357 1_545 S
C945 C946 1.406 . S
C946 H920 0.929 . S
C946 C945 1.406 . S
C946 C947 1.391 . S
C947 H919 0.931 . S
C947 C942 1.370 1_545 S
C947 C946 1.391 . S
C948 N917 1.435 . S
C948 C949 1.358 1_565 S
C948 C953 1.371 . S
C949 H921 0.930 . S
C949 C948 1.358 1_545 S
C949 C950 1.405 . S
C950 H922 0.932 . S
C950 C949 1.405 . S
C950 C951 1.383 1_545 S
C951 C950 1.383 1_565 S
C951 C952 1.393 . S
C952 H924 0.931 . S
C952 C951 1.393 . S
C952 C953 1.382 . S
C953 H923 0.929 . S
C953 C948 1.371 . S
C953 C952 1.382 . S
C954 N917 1.423 . S
C954 C955 1.362 . S
C954 C959 1.388 . S
C955 H925 0.929 . S
C955 C954 1.362 . S
C955 C956 1.376 . S
C956 H927 0.931 . S
C956 C955 1.376 . S
C956 C957 1.396 . S
C957 C956 1.396 . S
C957 C958 1.348 . S
C957 C975 1.472 . S
C958 H928 0.929 . S
C958 C957 1.348 . S
C958 C959 1.443 . S
C959 H926 0.932 1_565 S
C959 C954 1.388 . S
C959 C958 1.443 . S
C960 N940 1.433 . S
C960 C961 1.363 . S
C960 C965 1.370 1_565 S
C961 H929 0.929 . S
C961 C960 1.363 . S
C961 C962 1.385 . S
C962 H930 0.930 . S
C962 C961 1.385 . S
C962 C963 1.357 1_565 S
C963 C962 1.357 1_545 S
C963 C964 1.406 . S
C964 H931 0.929 . S
C964 C963 1.406 . S
C964 C965 1.391 . S
C965 H932 0.931 . S
C965 C960 1.370 1_545 S
C965 C964 1.391 . S
C966 N940 1.435 . S
C966 C967 1.358 1_565 S
C966 C971 1.371 . S
C967 H933 0.930 . S
C967 C966 1.358 1_545 S
C967 C968 1.405 . S
C968 H934 0.932 . S
C968 C967 1.405 . S
C968 C969 1.383 1_545 S
C969 C968 1.383 1_565 S
C969 C970 1.393 . S
C970 H935 0.931 . S
C970 C969 1.393 . S
C970 C971 1.382 . S
C971 H936 0.929 . S
C971 C966 1.371 . S
C971 C970 1.382 . S
C972 N940 1.423 . S
C972 C973 1.362 . S
C972 C977 1.388 . S
C973 H937 0.929 . S
C973 C972 1.362 . S
C973 C974 1.376 . S
C974 H938 0.931 . S
C974 C973 1.376 . S
C974 C975 1.396 . S
C975 C957 1.472 . S
C975 C974 1.396 . S
C975 C976 1.348 . S
C976 H939 0.929 . S
C976 C975 1.348 . S
C976 C977 1.443 . S
C977 H941 0.932 1_565 S
C977 C972 1.388 . S
C977 C976 1.443 . S
H978 C1005 0.929 . S
N979 C1004 1.433 . S
N979 C1010 1.435 . S
N979 C1016 1.423 . S
H980 C1006 0.930 . S
H981 C1009 0.931 . S
H982 C1008 0.929 . S
H983 C1011 0.930 . S
H984 C1012 0.932 . S
H985 C1015 0.929 . S
H986 C1014 0.931 . S
H987 C1017 0.929 . S
H988 C1021 0.932 . S
H989 C1018 0.931 . S
H990 C1020 0.923 1_545 S
H991 C1023 0.929 . S
H992 C1024 0.930 . S
H993 C1026 0.953 . S
H994 C1027 0.946 . S
H995 C1029 0.930 . S
H996 C1030 0.932 . S
H997 C1032 0.931 . S
H998 C1033 0.929 . S
H999 C1035 0.929 . S
H1000 C1036 0.931 . S
H1001 C1038 0.887 1_545 S
N1002 C1022 1.433 . S
N1002 C1028 1.435 . S
N1002 C1034 1.423 . S
H1003 C1039 0.932 . S
C1004 N979 1.433 . S
C1004 C1005 1.363 . S
C1004 C1009 1.370 1_565 S
C1005 H978 0.929 . S
C1005 C1004 1.363 . S
C1005 C1006 1.385 . S
C1006 H980 0.930 . S
C1006 C1005 1.385 . S
C1006 C1007 1.357 . S
C1007 C1006 1.357 . S
C1007 C1008 1.406 1_565 S
C1008 H982 0.929 . S
C1008 C1007 1.406 1_545 S
C1008 C1009 1.391 . S
C1009 H981 0.931 . S
C1009 C1004 1.370 1_545 S
C1009 C1008 1.391 . S
C1010 N979 1.435 . S
C1010 C1011 1.358 1_565 S
C1010 C1015 1.371 . S
C1011 H983 0.930 . S
C1011 C1010 1.358 1_545 S
C1011 C1012 1.405 . S
C1012 H984 0.932 . S
C1012 C1011 1.405 . S
C1012 C1013 1.383 . S
C1013 C1012 1.383 . S
C1013 C1014 1.393 1_545 S
C1014 H986 0.931 . S
C1014 C1013 1.393 1_565 S
C1014 C1015 1.382 . S
C1015 H985 0.929 . S
C1015 C1010 1.371 . S
C1015 C1014 1.382 . S
C1016 N979 1.423 . S
C1016 C1017 1.362 . S
C1016 C1021 1.388 1_565 S
C1017 H987 0.929 . S
C1017 C1016 1.362 . S
C1017 C1018 1.376 . S
C1018 H989 0.931 . S
C1018 C1017 1.376 . S
C1018 C1019 1.396 . S
C1019 C1018 1.396 . S
C1019 C1020 1.374 . S
C1019 C1037 1.472 . S
C1020 H990 0.923 1_565 S
C1020 C1019 1.374 . S
C1020 C1021 1.424 1_565 S
C1021 H988 0.932 . S
C1021 C1016 1.388 1_545 S
C1021 C1020 1.424 1_545 S
C1022 N1002 1.433 . S
C1022 C1023 1.363 . S
C1022 C1027 1.358 1_565 S
C1023 H991 0.929 . S
C1023 C1022 1.363 . S
C1023 C1024 1.385 . S
C1024 H992 0.930 . S
C1024 C1023 1.385 . S
C1024 C1025 1.357 . S
C1025 C1024 1.357 . S
C1025 C1026 1.376 1_565 S
C1026 H993 0.953 . S
C1026 C1025 1.376 1_545 S
C1026 C1027 1.395 . S
C1027 H994 0.946 . S
C1027 C1022 1.358 1_545 S
C1027 C1026 1.395 . S
C1028 N1002 1.435 . S
C1028 C1029 1.358 1_565 S
C1028 C1033 1.371 . S
C1029 H995 0.930 . S
C1029 C1028 1.358 1_545 S
C1029 C1030 1.405 . S
C1030 H996 0.932 . S
C1030 C1029 1.405 . S
C1030 C1031 1.383 . S
C1031 C1030 1.383 . S
C1031 C1032 1.393 1_545 S
C1032 H997 0.931 . S
C1032 C1031 1.393 1_565 S
C1032 C1033 1.382 . S
C1033 H998 0.929 . S
C1033 C1028 1.371 . S
C1033 C1032 1.382 . S
C1034 N1002 1.423 . S
C1034 C1035 1.362 . S
C1034 C1039 1.388 1_565 S
C1035 H999 0.929 . S
C1035 C1034 1.362 . S
C1035 C1036 1.376 . S
C1036 H1000 0.931 . S
C1036 C1035 1.376 . S
C1036 C1037 1.396 . S
C1037 C1019 1.472 . S
C1037 C1036 1.396 . S
C1037 C1038 1.364 . S
C1038 H1001 0.887 1_565 S
C1038 C1037 1.364 . S
C1038 C1039 1.470 1_565 S
C1039 H1003 0.932 . S
C1039 C1034 1.388 1_545 S
C1039 C1038 1.470 1_545 S
H1040 C1067 0.929 . S
N1041 C1066 1.433 . S
N1041 C1072 1.435 . S
N1041 C1078 1.423 . S
H1042 C1068 0.930 . S
H1043 C1071 0.931 . S
H1044 C1070 0.929 . S
H1045 C1073 0.930 . S
H1046 C1074 0.932 . S
H1047 C1077 0.929 . S
H1048 C1076 0.931 . S
H1049 C1079 0.929 . S
H1050 C1083 0.932 1_455 S
H1051 C1080 0.931 . S
H1052 C1082 0.929 . S
H1053 C1085 0.929 . S
H1054 C1086 0.930 . S
H1055 C1088 0.929 . S
H1056 C1089 0.931 . S
H1057 C1091 0.930 . S
H1058 C1092 0.932 . S
H1059 C1094 0.931 . S
H1060 C1095 0.929 . S
H1061 C1097 0.929 . S
H1062 C1098 0.931 . S
H1063 C1100 0.929 . S
N1064 C1084 1.433 . S
N1064 C1090 1.435 . S
N1064 C1096 1.423 . S
H1065 C1101 0.932 1_455 S
C1066 N1041 1.433 . S
C1066 C1067 1.363 . S
C1066 C1071 1.370 1_655 S
C1067 H1040 0.929 . S
C1067 C1066 1.363 . S
C1067 C1068 1.385 . S
C1068 H1042 0.930 . S
C1068 C1067 1.385 . S
C1068 C1069 1.357 1_655 S
C1069 C1068 1.357 1_455 S
C1069 C1070 1.406 . S
C1070 H1044 0.929 . S
C1070 C1069 1.406 . S
C1070 C1071 1.391 . S
C1071 H1043 0.931 . S
C1071 C1066 1.370 1_455 S
C1071 C1070 1.391 . S
C1072 N1041 1.435 . S
C1072 C1073 1.358 1_655 S
C1072 C1077 1.371 . S
C1073 H1045 0.930 . S
C1073 C1072 1.358 1_455 S
C1073 C1074 1.405 . S
C1074 H1046 0.932 . S
C1074 C1073 1.405 . S
C1074 C1075 1.383 1_455 S
C1075 C1074 1.383 1_655 S
C1075 C1076 1.393 . S
C1076 H1048 0.931 . S
C1076 C1075 1.393 . S
C1076 C1077 1.382 . S
C1077 H1047 0.929 . S
C1077 C1072 1.371 . S
C1077 C1076 1.382 . S
C1078 N1041 1.423 . S
C1078 C1079 1.362 . S
C1078 C1083 1.388 . S
C1079 H1049 0.929 . S
C1079 C1078 1.362 . S
C1079 C1080 1.376 . S
C1080 H1051 0.931 . S
C1080 C1079 1.376 . S
C1080 C1081 1.396 . S
C1081 C1080 1.396 . S
C1081 C1082 1.348 . S
C1081 C1099 1.472 . S
C1082 H1052 0.929 . S
C1082 C1081 1.348 . S
C1082 C1083 1.443 . S
C1083 H1050 0.932 1_655 S
C1083 C1078 1.388 . S
C1083 C1082 1.443 . S
C1084 N1064 1.433 . S
C1084 C1085 1.363 . S
C1084 C1089 1.370 1_655 S
C1085 H1053 0.929 . S
C1085 C1084 1.363 . S
C1085 C1086 1.385 . S
C1086 H1054 0.930 . S
C1086 C1085 1.385 . S
C1086 C1087 1.357 1_655 S
C1087 C1086 1.357 1_455 S
C1087 C1088 1.406 . S
C1088 H1055 0.929 . S
C1088 C1087 1.406 . S
C1088 C1089 1.391 . S
C1089 H1056 0.931 . S
C1089 C1084 1.370 1_455 S
C1089 C1088 1.391 . S
C1090 N1064 1.435 . S
C1090 C1091 1.358 1_655 S
C1090 C1095 1.371 . S
C1091 H1057 0.930 . S
C1091 C1090 1.358 1_455 S
C1091 C1092 1.405 . S
C1092 H1058 0.932 . S
C1092 C1091 1.405 . S
C1092 C1093 1.383 1_455 S
C1093 C1092 1.383 1_655 S
C1093 C1094 1.393 . S
C1094 H1059 0.931 . S
C1094 C1093 1.393 . S
C1094 C1095 1.382 . S
C1095 H1060 0.929 . S
C1095 C1090 1.371 . S
C1095 C1094 1.382 . S
C1096 N1064 1.423 . S
C1096 C1097 1.362 . S
C1096 C1101 1.388 . S
C1097 H1061 0.929 . S
C1097 C1096 1.362 . S
C1097 C1098 1.376 . S
C1098 H1062 0.931 . S
C1098 C1097 1.376 . S
C1098 C1099 1.396 . S
C1099 C1081 1.472 . S
C1099 C1098 1.396 . S
C1099 C1100 1.348 . S
C1100 H1063 0.929 . S
C1100 C1099 1.348 . S
C1100 C1101 1.443 . S
C1101 H1065 0.932 1_655 S
C1101 C1096 1.388 . S
C1101 C1100 1.443 . S
H1102 C1129 0.929 . S
N1103 C1128 1.433 . S
N1103 C1134 1.435 . S
N1103 C1140 1.423 . S
H1104 C1130 0.930 . S
H1105 C1133 0.931 . S
H1106 C1132 0.929 . S
H1107 C1135 0.930 . S
H1108 C1136 0.932 . S
H1109 C1139 0.929 . S
H1110 C1138 0.931 . S
H1111 C1141 0.929 . S
H1112 C1145 0.932 . S
H1113 C1142 0.931 . S
H1114 C1144 0.929 . S
H1115 C1147 0.929 . S
H1116 C1148 0.930 . S
H1117 C1150 0.929 . S
H1118 C1151 0.931 . S
H1119 C1153 0.930 . S
H1120 C1154 0.932 . S
H1121 C1156 0.931 . S
H1122 C1157 0.929 . S
H1123 C1159 0.929 . S
H1124 C1160 0.931 . S
H1125 C1162 0.929 . S
N1126 C1146 1.433 . S
N1126 C1152 1.435 . S
N1126 C1158 1.423 . S
H1127 C1163 0.932 . S
C1128 N1103 1.433 . S
C1128 C1129 1.363 . S
C1128 C1133 1.370 . S
C1129 H1102 0.929 . S
C1129 C1128 1.363 . S
C1129 C1130 1.385 . S
C1130 H1104 0.930 . S
C1130 C1129 1.385 . S
C1130 C1131 1.357 . S
C1131 C1130 1.357 . S
C1131 C1132 1.406 . S
C1132 H1106 0.929 . S
C1132 C1131 1.406 . S
C1132 C1133 1.391 . S
C1133 H1105 0.931 . S
C1133 C1128 1.370 . S
C1133 C1132 1.391 . S
C1134 N1103 1.435 . S
C1134 C1135 1.358 . S
C1134 C1139 1.371 . S
C1135 H1107 0.930 . S
C1135 C1134 1.358 . S
C1135 C1136 1.405 . S
C1136 H1108 0.932 . S
C1136 C1135 1.405 . S
C1136 C1137 1.383 . S
C1137 C1136 1.383 . S
C1137 C1138 1.393 . S
C1138 H1110 0.931 . S
C1138 C1137 1.393 . S
C1138 C1139 1.382 . S
C1139 H1109 0.929 . S
C1139 C1134 1.371 . S
C1139 C1138 1.382 . S
C1140 N1103 1.423 . S
C1140 C1141 1.362 . S
C1140 C1145 1.388 . S
C1141 H1111 0.929 . S
C1141 C1140 1.362 . S
C1141 C1142 1.376 . S
C1142 H1113 0.931 . S
C1142 C1141 1.376 . S
C1142 C1143 1.396 . S
C1143 C1142 1.396 . S
C1143 C1144 1.348 . S
C1143 C1161 1.472 . S
C1144 H1114 0.929 . S
C1144 C1143 1.348 . S
C1144 C1145 1.443 . S
C1145 H1112 0.932 . S
C1145 C1140 1.388 . S
C1145 C1144 1.443 . S
C1146 N1126 1.433 . S
C1146 C1147 1.363 . S
C1146 C1151 1.370 . S
C1147 H1115 0.929 . S
C1147 C1146 1.363 . S
C1147 C1148 1.385 . S
C1148 H1116 0.930 . S
C1148 C1147 1.385 . S
C1148 C1149 1.357 . S
C1149 C1148 1.357 . S
C1149 C1150 1.406 . S
C1150 H1117 0.929 . S
C1150 C1149 1.406 . S
C1150 C1151 1.391 . S
C1151 H1118 0.931 . S
C1151 C1146 1.370 . S
C1151 C1150 1.391 . S
C1152 N1126 1.435 . S
C1152 C1153 1.358 . S
C1152 C1157 1.371 . S
C1153 H1119 0.930 . S
C1153 C1152 1.358 . S
C1153 C1154 1.405 . S
C1154 H1120 0.932 . S
C1154 C1153 1.405 . S
C1154 C1155 1.383 . S
C1155 C1154 1.383 . S
C1155 C1156 1.393 . S
C1156 H1121 0.931 . S
C1156 C1155 1.393 . S
C1156 C1157 1.382 . S
C1157 H1122 0.929 . S
C1157 C1152 1.371 . S
C1157 C1156 1.382 . S
C1158 N1126 1.423 . S
C1158 C1159 1.362 . S
C1158 C1163 1.388 . S
C1159 H1123 0.929 . S
C1159 C1158 1.362 . S
C1159 C1160 1.376 . S
C1160 H1124 0.931 . S
C1160 C1159 1.376 . S
C1160 C1161 1.396 . S
C1161 C1143 1.472 . S
C1161 C1160 1.396 . S
C1161 C1162 1.348 . S
C1162 H1125 0.929 . S
C1162 C1161 1.348 . S
C1162 C1163 1.443 . S
C1163 H1127 0.932 . S
C1163 C1158 1.388 . S
C1163 C1162 1.443 . S
H1164 C1191 0.929 . S
N1165 C1190 1.433 . S
N1165 C1196 1.435 . S
N1165 C1202 1.423 . S
H1166 C1192 0.930 . S
H1167 C1195 0.931 . S
H1168 C1194 0.929 . S
H1169 C1197 0.930 . S
H1170 C1198 0.932 . S
H1171 C1201 0.929 . S
H1172 C1200 0.931 . S
H1173 C1203 0.929 . S
H1174 C1207 0.932 . S
H1175 C1204 0.931 . S
H1176 C1206 0.929 . S
H1177 C1209 0.929 . S
H1178 C1210 0.930 . S
H1179 C1212 0.929 . S
H1180 C1213 0.931 . S
H1181 C1215 0.930 . S
H1182 C1216 0.932 . S
H1183 C1218 0.931 . S
H1184 C1219 0.929 . S
H1185 C1221 0.929 . S
H1186 C1222 0.931 . S
H1187 C1224 0.929 . S
N1188 C1208 1.433 . S
N1188 C1214 1.435 . S
N1188 C1220 1.423 . S
H1189 C1225 0.932 . S
C1190 N1165 1.433 . S
C1190 C1191 1.363 . S
C1190 C1195 1.370 . S
C1191 H1164 0.929 . S
C1191 C1190 1.363 . S
C1191 C1192 1.385 . S
C1192 H1166 0.930 . S
C1192 C1191 1.385 . S
C1192 C1193 1.357 . S
C1193 C1192 1.357 . S
C1193 C1194 1.406 . S
C1194 H1168 0.929 . S
C1194 C1193 1.406 . S
C1194 C1195 1.391 . S
C1195 H1167 0.931 . S
C1195 C1190 1.370 . S
C1195 C1194 1.391 . S
C1196 N1165 1.435 . S
C1196 C1197 1.358 . S
C1196 C1201 1.371 . S
C1197 H1169 0.930 . S
C1197 C1196 1.358 . S
C1197 C1198 1.405 . S
C1198 H1170 0.932 . S
C1198 C1197 1.405 . S
C1198 C1199 1.383 . S
C1199 C1198 1.383 . S
C1199 C1200 1.393 . S
C1200 H1172 0.931 . S
C1200 C1199 1.393 . S
C1200 C1201 1.382 . S
C1201 H1171 0.929 . S
C1201 C1196 1.371 . S
C1201 C1200 1.382 . S
C1202 N1165 1.423 . S
C1202 C1203 1.362 . S
C1202 C1207 1.388 . S
C1203 H1173 0.929 . S
C1203 C1202 1.362 . S
C1203 C1204 1.376 . S
C1204 H1175 0.931 . S
C1204 C1203 1.376 . S
C1204 C1205 1.396 . S
C1205 C1204 1.396 . S
C1205 C1206 1.348 . S
C1205 C1223 1.472 . S
C1206 H1176 0.929 . S
C1206 C1205 1.348 . S
C1206 C1207 1.443 . S
C1207 H1174 0.932 . S
C1207 C1202 1.388 . S
C1207 C1206 1.443 . S
C1208 N1188 1.433 . S
C1208 C1209 1.363 . S
C1208 C1213 1.370 . S
C1209 H1177 0.929 . S
C1209 C1208 1.363 . S
C1209 C1210 1.385 . S
C1210 H1178 0.930 . S
C1210 C1209 1.385 . S
C1210 C1211 1.357 . S
C1211 C1210 1.357 . S
C1211 C1212 1.406 . S
C1212 H1179 0.929 . S
C1212 C1211 1.406 . S
C1212 C1213 1.391 . S
C1213 H1180 0.931 . S
C1213 C1208 1.370 . S
C1213 C1212 1.391 . S
C1214 N1188 1.435 . S
C1214 C1215 1.358 . S
C1214 C1219 1.371 . S
C1215 H1181 0.930 . S
C1215 C1214 1.358 . S
C1215 C1216 1.405 . S
C1216 H1182 0.932 . S
C1216 C1215 1.405 . S
C1216 C1217 1.383 . S
C1217 C1216 1.383 . S
C1217 C1218 1.393 . S
C1218 H1183 0.931 . S
C1218 C1217 1.393 . S
C1218 C1219 1.382 . S
C1219 H1184 0.929 . S
C1219 C1214 1.371 . S
C1219 C1218 1.382 . S
C1220 N1188 1.423 . S
C1220 C1221 1.362 . S
C1220 C1225 1.388 . S
C1221 H1185 0.929 . S
C1221 C1220 1.362 . S
C1221 C1222 1.376 . S
C1222 H1186 0.931 . S
C1222 C1221 1.376 . S
C1222 C1223 1.396 . S
C1223 C1205 1.472 . S
C1223 C1222 1.396 . S
C1223 C1224 1.348 . S
C1224 H1187 0.929 . S
C1224 C1223 1.348 . S
C1224 C1225 1.443 . S
C1225 H1189 0.932 . S
C1225 C1220 1.388 . S
C1225 C1224 1.443 . S
H1226 C1253 0.929 . S
N1227 C1252 1.433 . S
N1227 C1258 1.435 . S
N1227 C1264 1.423 . S
H1228 C1254 0.930 . S
H1229 C1257 0.931 . S
H1230 C1256 0.929 . S
H1231 C1259 0.930 . S
H1232 C1260 0.932 . S
H1233 C1263 0.929 . S
H1234 C1262 0.931 . S
H1235 C1265 0.929 . S
H1236 C1269 0.932 . S
H1237 C1266 0.931 . S
H1238 C1268 0.929 . S
H1239 C1271 0.929 . S
H1240 C1272 0.930 . S
H1241 C1274 0.929 . S
H1242 C1275 0.931 . S
H1243 C1277 0.930 . S
H1244 C1278 0.932 . S
H1245 C1280 0.931 . S
H1246 C1281 0.929 . S
H1247 C1283 0.929 . S
H1248 C1284 0.931 . S
H1249 C1286 0.929 . S
N1250 C1270 1.433 . S
N1250 C1276 1.435 . S
N1250 C1282 1.423 . S
H1251 C1287 0.932 . S
C1252 N1227 1.433 . S
C1252 C1253 1.363 . S
C1252 C1257 1.370 . S
C1253 H1226 0.929 . S
C1253 C1252 1.363 . S
C1253 C1254 1.385 . S
C1254 H1228 0.930 . S
C1254 C1253 1.385 . S
C1254 C1255 1.357 . S
C1255 C1254 1.357 . S
C1255 C1256 1.406 . S
C1256 H1230 0.929 . S
C1256 C1255 1.406 . S
C1256 C1257 1.391 . S
C1257 H1229 0.931 . S
C1257 C1252 1.370 . S
C1257 C1256 1.391 . S
C1258 N1227 1.435 . S
C1258 C1259 1.358 . S
C1258 C1263 1.371 . S
C1259 H1231 0.930 . S
C1259 C1258 1.358 . S
C1259 C1260 1.405 . S
C1260 H1232 0.932 . S
C1260 C1259 1.405 . S
C1260 C1261 1.383 . S
C1261 C1260 1.383 . S
C1261 C1262 1.393 . S
C1262 H1234 0.931 . S
C1262 C1261 1.393 . S
C1262 C1263 1.382 . S
C1263 H1233 0.929 . S
C1263 C1258 1.371 . S
C1263 C1262 1.382 . S
C1264 N1227 1.423 . S
C1264 C1265 1.362 . S
C1264 C1269 1.388 . S
C1265 H1235 0.929 . S
C1265 C1264 1.362 . S
C1265 C1266 1.376 . S
C1266 H1237 0.931 . S
C1266 C1265 1.376 . S
C1266 C1267 1.396 . S
C1267 C1266 1.396 . S
C1267 C1268 1.348 . S
C1267 C1285 1.472 . S
C1268 H1238 0.929 . S
C1268 C1267 1.348 . S
C1268 C1269 1.443 . S
C1269 H1236 0.932 . S
C1269 C1264 1.388 . S
C1269 C1268 1.443 . S
C1270 N1250 1.433 . S
C1270 C1271 1.363 . S
C1270 C1275 1.370 . S
C1271 H1239 0.929 . S
C1271 C1270 1.363 . S
C1271 C1272 1.385 . S
C1272 H1240 0.930 . S
C1272 C1271 1.385 . S
C1272 C1273 1.357 . S
C1273 C1272 1.357 . S
C1273 C1274 1.406 . S
C1274 H1241 0.929 . S
C1274 C1273 1.406 . S
C1274 C1275 1.391 . S
C1275 H1242 0.931 . S
C1275 C1270 1.370 . S
C1275 C1274 1.391 . S
C1276 N1250 1.435 . S
C1276 C1277 1.358 . S
C1276 C1281 1.371 . S
C1277 H1243 0.930 . S
C1277 C1276 1.358 . S
C1277 C1278 1.405 . S
C1278 H1244 0.932 . S
C1278 C1277 1.405 . S
C1278 C1279 1.383 . S
C1279 C1278 1.383 . S
C1279 C1280 1.393 . S
C1280 H1245 0.931 . S
C1280 C1279 1.393 . S
C1280 C1281 1.382 . S
C1281 H1246 0.929 . S
C1281 C1276 1.371 . S
C1281 C1280 1.382 . S
C1282 N1250 1.423 . S
C1282 C1283 1.362 . S
C1282 C1287 1.388 . S
C1283 H1247 0.929 . S
C1283 C1282 1.362 . S
C1283 C1284 1.376 . S
C1284 H1248 0.931 . S
C1284 C1283 1.376 . S
C1284 C1285 1.396 . S
C1285 C1267 1.472 . S
C1285 C1284 1.396 . S
C1285 C1286 1.348 . S
C1286 H1249 0.929 . S
C1286 C1285 1.348 . S
C1286 C1287 1.443 . S
C1287 H1251 0.932 . S
C1287 C1282 1.388 . S
C1287 C1286 1.443 . S
H1288 C1315 0.929 . S
N1289 C1314 1.433 . S
N1289 C1320 1.435 . S
N1289 C1326 1.423 . S
H1290 C1316 0.930 . S
H1291 C1319 0.931 . S
H1292 C1318 0.929 . S
H1293 C1321 0.930 . S
H1294 C1322 0.932 . S
H1295 C1325 0.929 . S
H1296 C1324 0.931 . S
H1297 C1327 0.929 . S
H1298 C1331 0.932 . S
H1299 C1328 0.931 . S
H1300 C1330 0.929 . S
H1301 C1333 0.929 . S
H1302 C1334 0.930 . S
H1303 C1336 0.929 . S
H1304 C1337 0.931 . S
H1305 C1339 0.930 . S
H1306 C1340 0.932 . S
H1307 C1342 0.931 . S
H1308 C1343 0.929 . S
H1309 C1345 0.929 . S
H1310 C1346 0.931 . S
H1311 C1348 0.929 . S
N1312 C1332 1.433 . S
N1312 C1338 1.435 . S
N1312 C1344 1.423 . S
H1313 C1349 0.932 . S
C1314 N1289 1.433 . S
C1314 C1315 1.363 . S
C1314 C1319 1.370 . S
C1315 H1288 0.929 . S
C1315 C1314 1.363 . S
C1315 C1316 1.385 . S
C1316 H1290 0.930 . S
C1316 C1315 1.385 . S
C1316 C1317 1.357 . S
C1317 C1316 1.357 . S
C1317 C1318 1.406 . S
C1318 H1292 0.929 . S
C1318 C1317 1.406 . S
C1318 C1319 1.391 . S
C1319 H1291 0.931 . S
C1319 C1314 1.370 . S
C1319 C1318 1.391 . S
C1320 N1289 1.435 . S
C1320 C1321 1.358 . S
C1320 C1325 1.371 . S
C1321 H1293 0.930 . S
C1321 C1320 1.358 . S
C1321 C1322 1.405 . S
C1322 H1294 0.932 . S
C1322 C1321 1.405 . S
C1322 C1323 1.383 . S
C1323 C1322 1.383 . S
C1323 C1324 1.393 . S
C1324 H1296 0.931 . S
C1324 C1323 1.393 . S
C1324 C1325 1.382 . S
C1325 H1295 0.929 . S
C1325 C1320 1.371 . S
C1325 C1324 1.382 . S
C1326 N1289 1.423 . S
C1326 C1327 1.362 . S
C1326 C1331 1.388 . S
C1327 H1297 0.929 . S
C1327 C1326 1.362 . S
C1327 C1328 1.376 . S
C1328 H1299 0.931 . S
C1328 C1327 1.376 . S
C1328 C1329 1.396 . S
C1329 C1328 1.396 . S
C1329 C1330 1.348 . S
C1329 C1347 1.472 . S
C1330 H1300 0.929 . S
C1330 C1329 1.348 . S
C1330 C1331 1.443 . S
C1331 H1298 0.932 . S
C1331 C1326 1.388 . S
C1331 C1330 1.443 . S
C1332 N1312 1.433 . S
C1332 C1333 1.363 . S
C1332 C1337 1.370 . S
C1333 H1301 0.929 . S
C1333 C1332 1.363 . S
C1333 C1334 1.385 . S
C1334 H1302 0.930 . S
C1334 C1333 1.385 . S
C1334 C1335 1.357 . S
C1335 C1334 1.357 . S
C1335 C1336 1.406 . S
C1336 H1303 0.929 . S
C1336 C1335 1.406 . S
C1336 C1337 1.391 . S
C1337 H1304 0.931 . S
C1337 C1332 1.370 . S
C1337 C1336 1.391 . S
C1338 N1312 1.435 . S
C1338 C1339 1.358 . S
C1338 C1343 1.371 . S
C1339 H1305 0.930 . S
C1339 C1338 1.358 . S
C1339 C1340 1.405 . S
C1340 H1306 0.932 . S
C1340 C1339 1.405 . S
C1340 C1341 1.383 . S
C1341 C1340 1.383 . S
C1341 C1342 1.393 . S
C1342 H1307 0.931 . S
C1342 C1341 1.393 . S
C1342 C1343 1.382 . S
C1343 H1308 0.929 . S
C1343 C1338 1.371 . S
C1343 C1342 1.382 . S
C1344 N1312 1.423 . S
C1344 C1345 1.362 . S
C1344 C1349 1.388 . S
C1345 H1309 0.929 . S
C1345 C1344 1.362 . S
C1345 C1346 1.376 . S
C1346 H1310 0.931 . S
C1346 C1345 1.376 . S
C1346 C1347 1.396 . S
C1347 C1329 1.472 . S
C1347 C1346 1.396 . S
C1347 C1348 1.348 . S
C1348 H1311 0.929 . S
C1348 C1347 1.348 . S
C1348 C1349 1.443 . S
C1349 H1313 0.932 . S
C1349 C1344 1.388 . S
C1349 C1348 1.443 . S
C1350 C1351 1.387 . S
C1350 H1354 0.950 . S
C1350 C1359 1.390 . S
C1351 C1350 1.387 . S
C1351 C1353 1.387 . S
H1352 C1359 0.950 . S
C1353 C1351 1.387 . S
C1353 C1355 1.390 . S
C1353 H1357 0.950 . S
H1354 C1350 0.950 . S
C1355 C1353 1.390 . S
C1355 C1356 1.387 . S
C1355 H1358 0.950 . S
C1356 C1355 1.387 . S
C1356 C1359 1.387 . S
H1357 C1353 0.950 . S
H1358 C1355 0.950 . S
C1359 C1350 1.390 . S
C1359 H1352 0.950 . S
C1359 C1356 1.387 . S
C1360 C1361 1.387 . S
C1360 H1364 0.950 . S
C1360 C1369 1.390 . S
C1361 C1360 1.387 . S
C1361 C1363 1.387 . S
H1362 C1369 0.950 . S
C1363 C1361 1.387 . S
C1363 C1365 1.390 . S
C1363 H1367 0.950 . S
H1364 C1360 0.950 . S
C1365 C1363 1.390 . S
C1365 C1366 1.387 . S
C1365 H1368 0.950 . S
C1366 C1365 1.387 . S
C1366 C1369 1.387 . S
H1367 C1363 0.950 . S
H1368 C1365 0.950 . S
C1369 C1360 1.390 . S
C1369 H1362 0.950 . S
C1369 C1366 1.387 . S
C1370 C1371 1.387 1_565 S
C1370 H1374 0.950 . S
C1370 C1379 1.390 . S
C1371 C1370 1.387 1_545 S
C1371 C1373 1.387 . S
H1372 C1379 0.950 . S
C1373 C1371 1.387 . S
C1373 C1375 1.390 . S
C1373 H1377 0.950 . S
H1374 C1370 0.950 . S
C1375 C1373 1.390 . S
C1375 C1376 1.387 . S
C1375 H1378 0.950 . S
C1376 C1375 1.387 . S
C1376 C1379 1.387 1_545 S
H1377 C1373 0.950 . S
H1378 C1375 0.950 . S
C1379 C1370 1.390 . S
C1379 H1372 0.950 . S
C1379 C1376 1.387 1_565 S
C1380 C1381 1.387 1_545 S
C1380 H1384 0.950 . S
C1380 C1389 1.390 . S
C1381 C1380 1.387 1_565 S
C1381 C1383 1.387 . S
H1382 C1389 0.950 . S
C1383 C1381 1.387 . S
C1383 C1385 1.390 . S
C1383 H1387 0.950 . S
H1384 C1380 0.950 . S
C1385 C1383 1.390 . S
C1385 C1386 1.387 . S
C1385 H1388 0.950 . S
C1386 C1385 1.387 . S
C1386 C1389 1.387 1_565 S
H1387 C1383 0.950 . S
H1388 C1385 0.950 . S
C1389 C1380 1.390 . S
C1389 H1382 0.950 . S
C1389 C1386 1.387 1_545 S
C1390 C1391 1.387 1_655 S
C1390 H1394 0.950 . S
C1390 C1399 1.390 . S
C1391 C1390 1.387 1_455 S
C1391 C1393 1.387 . S
H1392 C1399 0.950 . S
C1393 C1391 1.387 . S
C1393 C1395 1.390 . S
C1393 H1397 0.950 . S
H1394 C1390 0.950 . S
C1395 C1393 1.390 . S
C1395 C1396 1.387 . S
C1395 H1398 0.950 . S
C1396 C1395 1.387 . S
C1396 C1399 1.387 1_455 S
H1397 C1393 0.950 . S
H1398 C1395 0.950 . S
C1399 C1390 1.390 . S
C1399 H1392 0.950 . S
C1399 C1396 1.387 1_655 S
C1400 C1401 1.387 . S
C1400 H1404 0.950 . S
C1400 C1409 1.390 . S
C1401 C1400 1.387 . S
C1401 C1403 1.387 . S
H1402 C1409 0.950 . S
C1403 C1401 1.387 . S
C1403 C1405 1.390 . S
C1403 H1407 0.950 . S
H1404 C1400 0.950 . S
C1405 C1403 1.390 . S
C1405 C1406 1.387 . S
C1405 H1408 0.950 . S
C1406 C1405 1.387 . S
C1406 C1409 1.387 . S
H1407 C1403 0.950 . S
H1408 C1405 0.950 . S
C1409 C1400 1.390 . S
C1409 H1402 0.950 . S
C1409 C1406 1.387 . S
C1410 C1411 1.387 . S
C1410 H1414 0.950 . S
C1410 C1419 1.390 . S
C1411 C1410 1.387 . S
C1411 C1413 1.370 1_455 S
H1412 C1419 0.950 . S
C1413 C1411 1.370 1_655 S
C1413 C1415 1.398 . S
C1413 H1417 0.981 . S
H1414 C1410 0.950 . S
C1415 C1413 1.398 . S
C1415 C1416 1.337 1_655 S
C1415 H1418 0.981 . S
C1416 C1415 1.337 1_455 S
C1416 C1419 1.387 . S
H1417 C1413 0.981 . S
H1418 C1415 0.981 . S
C1419 C1410 1.390 . S
C1419 H1412 0.950 . S
C1419 C1416 1.387 . S
C1420 C1421 1.387 . S
C1420 H1424 0.950 . S
C1420 C1429 1.390 . S
C1421 C1420 1.387 . S
C1421 C1423 1.387 . S
H1422 C1429 0.950 . S
C1423 C1421 1.387 . S
C1423 C1425 1.390 . S
C1423 H1427 0.950 . S
H1424 C1420 0.950 . S
C1425 C1423 1.390 . S
C1425 C1426 1.387 . S
C1425 H1428 0.950 . S
C1426 C1425 1.387 . S
C1426 C1429 1.387 . S
H1427 C1423 0.950 . S
H1428 C1425 0.950 . S
C1429 C1420 1.390 . S
C1429 H1422 0.950 . S
C1429 C1426 1.387 . S
C1430 C1431 1.387 1_545 S
C1430 H1434 0.950 . S
C1430 C1439 1.390 . S
C1431 C1430 1.387 1_565 S
C1431 C1433 1.387 . S
H1432 C1439 0.950 . S
C1433 C1431 1.387 . S
C1433 C1435 1.390 . S
C1433 H1437 0.950 . S
H1434 C1430 0.950 . S
C1435 C1433 1.390 . S
C1435 C1436 1.387 . S
C1435 H1438 0.950 . S
C1436 C1435 1.387 . S
C1436 C1439 1.387 1_565 S
H1437 C1433 0.950 . S
H1438 C1435 0.950 . S
C1439 C1430 1.390 . S
C1439 H1432 0.950 . S
C1439 C1436 1.387 1_545 S
C1440 C1441 1.387 1_565 S
C1440 H1444 0.950 . S
C1440 C1449 1.390 . S
C1441 C1440 1.387 1_545 S
C1441 C1443 1.387 . S
H1442 C1449 0.950 . S
C1443 C1441 1.387 . S
C1443 C1445 1.390 . S
C1443 H1447 0.950 . S
H1444 C1440 0.950 . S
C1445 C1443 1.390 . S
C1445 C1446 1.387 . S
C1445 H1448 0.950 . S
C1446 C1445 1.387 . S
C1446 C1449 1.387 1_545 S
H1447 C1443 0.950 . S
H1448 C1445 0.950 . S
C1449 C1440 1.390 . S
C1449 H1442 0.950 . S
C1449 C1446 1.387 1_565 S
C1450 C1451 1.387 1_455 S
C1450 H1454 0.950 . S
C1450 C1459 1.390 . S
C1451 C1450 1.387 1_655 S
C1451 C1453 1.387 . S
H1452 C1459 0.950 . S
C1453 C1451 1.387 . S
C1453 C1455 1.390 . S
C1453 H1457 0.950 . S
H1454 C1450 0.950 . S
C1455 C1453 1.390 . S
C1455 C1456 1.387 . S
C1455 H1458 0.950 . S
C1456 C1455 1.387 . S
C1456 C1459 1.387 1_655 S
H1457 C1453 0.950 . S
H1458 C1455 0.950 . S
C1459 C1450 1.390 . S
C1459 H1452 0.950 . S
C1459 C1456 1.387 1_455 S
C1460 C1461 1.387 . S
C1460 H1464 0.950 . S
C1460 C1469 1.390 . S
C1461 C1460 1.387 . S
C1461 C1463 1.387 . S
H1462 C1469 0.950 . S
C1463 C1461 1.387 . S
C1463 C1465 1.390 . S
C1463 H1467 0.950 . S
H1464 C1460 0.950 . S
C1465 C1463 1.390 . S
C1465 C1466 1.387 . S
C1465 H1468 0.950 . S
C1466 C1465 1.387 . S
C1466 C1469 1.387 . S
H1467 C1463 0.950 . S
H1468 C1465 0.950 . S
C1469 C1460 1.390 . S
C1469 H1462 0.950 . S
C1469 C1466 1.387 . S
C1470 C1471 1.387 . S
C1470 H1474 0.950 . S
C1470 C1479 1.390 . S
C1471 C1470 1.387 . S
C1471 C1473 1.387 . S
H1472 C1479 0.950 . S
C1473 C1471 1.387 . S
C1473 C1475 1.390 . S
C1473 H1477 0.950 . S
H1474 C1470 0.950 . S
C1475 C1473 1.390 . S
C1475 C1476 1.387 . S
C1475 H1478 0.950 . S
C1476 C1475 1.387 . S
C1476 C1479 1.387 . S
H1477 C1473 0.950 . S
H1478 C1475 0.950 . S
C1479 C1470 1.390 . S
C1479 H1472 0.950 . S
C1479 C1476 1.387 . S
C1480 C1481 1.387 . S
C1480 H1484 0.950 . S
C1480 C1489 1.390 . S
C1481 C1480 1.387 . S
C1481 C1483 1.387 . S
H1482 C1489 0.950 . S
C1483 C1481 1.387 . S
C1483 C1485 1.390 . S
C1483 H1487 0.950 . S
H1484 C1480 0.950 . S
C1485 C1483 1.390 . S
C1485 C1486 1.387 . S
C1485 H1488 0.950 . S
C1486 C1485 1.387 . S
C1486 C1489 1.387 . S
H1487 C1483 0.950 . S
H1488 C1485 0.950 . S
C1489 C1480 1.390 . S
C1489 H1482 0.950 . S
C1489 C1486 1.387 . S
C1490 C1491 1.387 . S
C1490 H1494 0.950 . S
C1490 C1499 1.390 . S
C1491 C1490 1.387 . S
C1491 C1493 1.387 . S
H1492 C1499 0.950 . S
C1493 C1491 1.387 . S
C1493 C1495 1.390 . S
C1493 H1497 0.950 . S
H1494 C1490 0.950 . S
C1495 C1493 1.390 . S
C1495 C1496 1.387 . S
C1495 H1498 0.950 . S
C1496 C1495 1.387 . S
C1496 C1499 1.387 . S
H1497 C1493 0.950 . S
H1498 C1495 0.950 . S
C1499 C1490 1.390 . S
C1499 H1492 0.950 . S
C1499 C1496 1.387 . S
C1500 C1501 1.387 . S
C1500 H1504 0.950 . S
C1500 C1509 1.390 . S
C1501 C1500 1.387 . S
C1501 C1503 1.387 . S
H1502 C1509 0.950 . S
C1503 C1501 1.387 . S
C1503 C1505 1.390 . S
C1503 H1507 0.950 . S
H1504 C1500 0.950 . S
C1505 C1503 1.390 . S
C1505 C1506 1.387 . S
C1505 H1508 0.950 . S
C1506 C1505 1.387 . S
C1506 C1509 1.387 . S
H1507 C1503 0.950 . S
H1508 C1505 0.950 . S
C1509 C1500 1.390 . S
C1509 H1502 0.950 . S
C1509 C1506 1.387 . S
C1510 C1511 1.387 . S
C1510 H1514 0.950 . S
C1510 C1519 1.390 . S
C1511 C1510 1.387 . S
C1511 C1513 1.387 . S
H1512 C1519 0.950 . S
C1513 C1511 1.387 . S
C1513 C1515 1.390 . S
C1513 H1517 0.950 . S
H1514 C1510 0.950 . S
C1515 C1513 1.390 . S
C1515 C1516 1.387 . S
C1515 H1518 0.950 . S
C1516 C1515 1.387 . S
C1516 C1519 1.387 . S
H1517 C1513 0.950 . S
H1518 C1515 0.950 . S
C1519 C1510 1.390 . S
C1519 H1512 0.950 . S
C1519 C1516 1.387 . S
C1520 C1521 1.387 . S
C1520 H1524 0.950 . S
C1520 C1529 1.390 . S
C1521 C1520 1.387 . S
C1521 C1523 1.387 . S
H1522 C1529 0.950 . S
C1523 C1521 1.387 . S
C1523 C1525 1.390 . S
C1523 H1527 0.950 . S
H1524 C1520 0.950 . S
C1525 C1523 1.390 . S
C1525 C1526 1.387 . S
C1525 H1528 0.950 . S
C1526 C1525 1.387 . S
C1526 C1529 1.387 . S
H1527 C1523 0.950 . S
H1528 C1525 0.950 . S
C1529 C1520 1.390 . S
C1529 H1522 0.950 . S
C1529 C1526 1.387 . S
C1530 C1531 1.387 . S
C1530 H1534 0.950 . S
C1530 C1539 1.390 . S
C1531 C1530 1.387 . S
C1531 C1533 1.387 . S
H1532 C1539 0.950 . S
C1533 C1531 1.387 . S
C1533 C1535 1.390 . S
C1533 H1537 0.950 . S
H1534 C1530 0.950 . S
C1535 C1533 1.390 . S
C1535 C1536 1.387 . S
C1535 H1538 0.950 . S
C1536 C1535 1.387 . S
C1536 C1539 1.387 . S
H1537 C1533 0.950 . S
H1538 C1535 0.950 . S
C1539 C1530 1.390 . S
C1539 H1532 0.950 . S
C1539 C1536 1.387 . S
C1540 C1541 1.387 . S
C1540 H1544 0.950 . S
C1540 C1549 1.390 . S
C1541 C1540 1.387 . S
C1541 C1543 1.387 . S
H1542 C1549 0.950 . S
C1543 C1541 1.387 . S
C1543 C1545 1.390 . S
C1543 H1547 0.950 . S
H1544 C1540 0.950 . S
C1545 C1543 1.390 . S
C1545 C1546 1.387 . S
C1545 H1548 0.950 . S
C1546 C1545 1.387 . S
C1546 C1549 1.387 . S
H1547 C1543 0.950 . S
H1548 C1545 0.950 . S
C1549 C1540 1.390 . S
C1549 H1542 0.950 . S
C1549 C1546 1.387 . S
C1550 C1551 1.387 . S
C1550 H1554 0.950 . S
C1550 C1559 1.390 . S
C1551 C1550 1.387 . S
C1551 C1553 1.387 . S
H1552 C1559 0.950 . S
C1553 C1551 1.387 . S
C1553 C1555 1.390 . S
C1553 H1557 0.950 . S
H1554 C1550 0.950 . S
C1555 C1553 1.390 . S
C1555 C1556 1.387 . S
C1555 H1558 0.950 . S
C1556 C1555 1.387 . S
C1556 C1559 1.387 . S
H1557 C1553 0.950 . S
H1558 C1555 0.950 . S
C1559 C1550 1.390 . S
C1559 H1552 0.950 . S
C1559 C1556 1.387 . S
C1560 C1561 1.387 . S
C1560 H1564 0.950 . S
C1560 C1569 1.390 . S
C1561 C1560 1.387 . S
C1561 C1563 1.387 . S
H1562 C1569 0.950 . S
C1563 C1561 1.387 . S
C1563 C1565 1.390 . S
C1563 H1567 0.950 . S
H1564 C1560 0.950 . S
C1565 C1563 1.390 . S
C1565 C1566 1.387 . S
C1565 H1568 0.950 . S
C1566 C1565 1.387 . S
C1566 C1569 1.387 . S
H1567 C1563 0.950 . S
H1568 C1565 0.950 . S
C1569 C1560 1.390 . S
C1569 H1562 0.950 . S
C1569 C1566 1.387 . S
C1570 C1571 1.387 . S
C1570 H1574 0.950 . S
C1570 C1579 1.390 . S
C1571 C1570 1.387 . S
C1571 C1573 1.387 . S
H1572 C1579 0.950 . S
C1573 C1571 1.387 . S
C1573 C1575 1.390 . S
C1573 H1577 0.950 . S
H1574 C1570 0.950 . S
C1575 C1573 1.390 . S
C1575 C1576 1.387 . S
C1575 H1578 0.950 . S
C1576 C1575 1.387 . S
C1576 C1579 1.387 . S
H1577 C1573 0.950 . S
H1578 C1575 0.950 . S
C1579 C1570 1.390 . S
C1579 H1572 0.950 . S
C1579 C1576 1.387 . S
C1580 C1581 1.387 . S
C1580 H1584 0.950 . S
C1580 C1589 1.390 . S
C1581 C1580 1.387 . S
C1581 C1583 1.387 . S
H1582 C1589 0.950 . S
C1583 C1581 1.387 . S
C1583 C1585 1.390 . S
C1583 H1587 0.950 . S
H1584 C1580 0.950 . S
C1585 C1583 1.390 . S
C1585 C1586 1.387 . S
C1585 H1588 0.950 . S
C1586 C1585 1.387 . S
C1586 C1589 1.387 . S
H1587 C1583 0.950 . S
H1588 C1585 0.950 . S
C1589 C1580 1.390 . S
C1589 H1582 0.950 . S
C1589 C1586 1.387 . S
C1590 C1591 1.387 . S
C1590 H1594 0.950 . S
C1590 C1599 1.390 . S
C1591 C1590 1.387 . S
C1591 C1593 1.387 . S
H1592 C1599 0.950 . S
C1593 C1591 1.387 . S
C1593 C1595 1.390 . S
C1593 H1597 0.950 . S
H1594 C1590 0.950 . S
C1595 C1593 1.390 . S
C1595 C1596 1.387 . S
C1595 H1598 0.950 . S
C1596 C1595 1.387 . S
C1596 C1599 1.387 . S
H1597 C1593 0.950 . S
H1598 C1595 0.950 . S
C1599 C1590 1.390 . S
C1599 H1592 0.950 . S
C1599 C1596 1.387 . S
C1600 C1601 1.387 . S
C1600 H1604 0.950 . S
C1600 C1609 1.390 . S
C1601 C1600 1.387 . S
C1601 C1603 1.387 . S
H1602 C1609 0.950 . S
C1603 C1601 1.387 . S
C1603 C1605 1.390 . S
C1603 H1607 0.950 . S
H1604 C1600 0.950 . S
C1605 C1603 1.390 . S
C1605 C1606 1.387 . S
C1605 H1608 0.950 . S
C1606 C1605 1.387 . S
C1606 C1609 1.387 . S
H1607 C1603 0.950 . S
H1608 C1605 0.950 . S
C1609 C1600 1.390 . S
C1609 H1602 0.950 . S
C1609 C1606 1.387 . S
C1610 C1611 1.387 . S
C1610 H1614 0.950 . S
C1610 C1619 1.390 . S
C1611 C1610 1.387 . S
C1611 C1613 1.387 . S
H1612 C1619 0.950 . S
C1613 C1611 1.387 . S
C1613 C1615 1.390 . S
C1613 H1617 0.950 . S
H1614 C1610 0.950 . S
C1615 C1613 1.390 . S
C1615 C1616 1.387 . S
C1615 H1618 0.950 . S
C1616 C1615 1.387 . S
C1616 C1619 1.387 . S
H1617 C1613 0.950 . S
H1618 C1615 0.950 . S
C1619 C1610 1.390 . S
C1619 H1612 0.950 . S
C1619 C1616 1.387 . S
C1620 C1621 1.387 . S
C1620 H1624 0.950 . S
C1620 C1629 1.390 . S
C1621 C1620 1.387 . S
C1621 C1623 1.387 . S
H1622 C1629 0.950 . S
C1623 C1621 1.387 . S
C1623 C1625 1.390 . S
C1623 H1627 0.950 . S
H1624 C1620 0.950 . S
C1625 C1623 1.390 . S
C1625 C1626 1.387 . S
C1625 H1628 0.950 . S
C1626 C1625 1.387 . S
C1626 C1629 1.387 . S
H1627 C1623 0.950 . S
H1628 C1625 0.950 . S
C1629 C1620 1.390 . S
C1629 H1622 0.950 . S
C1629 C1626 1.387 . S
C1630 C1631 1.387 . S
C1630 H1634 0.950 . S
C1630 C1639 1.390 . S
C1631 C1630 1.387 . S
C1631 C1633 1.387 . S
H1632 C1639 0.950 . S
C1633 C1631 1.387 . S
C1633 C1635 1.390 . S
C1633 H1637 0.950 . S
H1634 C1630 0.950 . S
C1635 C1633 1.390 . S
C1635 C1636 1.387 . S
C1635 H1638 0.950 . S
C1636 C1635 1.387 . S
C1636 C1639 1.387 . S
H1637 C1633 0.950 . S
H1638 C1635 0.950 . S
C1639 C1630 1.390 . S
C1639 H1632 0.950 . S
C1639 C1636 1.387 . S
C1640 C1641 1.387 . S
C1640 H1644 0.950 . S
C1640 C1649 1.390 . S
C1641 C1640 1.387 . S
C1641 C1643 1.387 . S
H1642 C1649 0.950 . S
C1643 C1641 1.387 . S
C1643 C1645 1.390 . S
C1643 H1647 0.950 . S
H1644 C1640 0.950 . S
C1645 C1643 1.390 . S
C1645 C1646 1.387 . S
C1645 H1648 0.950 . S
C1646 C1645 1.387 . S
C1646 C1649 1.387 . S
H1647 C1643 0.950 . S
H1648 C1645 0.950 . S
C1649 C1640 1.390 . S
C1649 H1642 0.950 . S
C1649 C1646 1.387 . S
C1650 C1651 1.387 . S
C1650 H1654 0.950 . S
C1650 C1659 1.390 . S
C1651 C1650 1.387 . S
C1651 C1653 1.387 . S
H1652 C1659 0.950 . S
C1653 C1651 1.387 . S
C1653 C1655 1.390 . S
C1653 H1657 0.950 . S
H1654 C1650 0.950 . S
C1655 C1653 1.390 . S
C1655 C1656 1.387 . S
C1655 H1658 0.950 . S
C1656 C1655 1.387 . S
C1656 C1659 1.387 . S
H1657 C1653 0.950 . S
H1658 C1655 0.950 . S
C1659 C1650 1.390 . S
C1659 H1652 0.950 . S
C1659 C1656 1.387 . S
C1660 C1661 1.387 . S
C1660 H1664 0.950 . S
C1660 C1669 1.390 . S
C1661 C1660 1.387 . S
C1661 C1663 1.387 . S
H1662 C1669 0.950 . S
C1663 C1661 1.387 . S
C1663 C1665 1.390 . S
C1663 H1667 0.950 . S
H1664 C1660 0.950 . S
C1665 C1663 1.390 . S
C1665 C1666 1.387 . S
C1665 H1668 0.950 . S
C1666 C1665 1.387 . S
C1666 C1669 1.387 . S
H1667 C1663 0.950 . S
H1668 C1665 0.950 . S
C1669 C1660 1.390 . S
C1669 H1662 0.950 . S
C1669 C1666 1.387 . S
C1670 C1671 1.387 . S
C1670 H1674 0.950 . S
C1670 C1679 1.390 . S
C1671 C1670 1.387 . S
C1671 C1673 1.387 . S
H1672 C1679 0.950 . S
C1673 C1671 1.387 . S
C1673 C1675 1.390 . S
C1673 H1677 0.950 . S
H1674 C1670 0.950 . S
C1675 C1673 1.390 . S
C1675 C1676 1.387 . S
C1675 H1678 0.950 . S
C1676 C1675 1.387 . S
C1676 C1679 1.387 . S
H1677 C1673 0.950 . S
H1678 C1675 0.950 . S
C1679 C1670 1.390 . S
C1679 H1672 0.950 . S
C1679 C1676 1.387 . S
C1680 C1681 1.387 . S
C1680 H1684 0.950 . S
C1680 C1689 1.390 . S
C1681 C1680 1.387 . S
C1681 C1683 1.387 . S
H1682 C1689 0.950 . S
C1683 C1681 1.387 . S
C1683 C1685 1.390 . S
C1683 H1687 0.950 . S
H1684 C1680 0.950 . S
C1685 C1683 1.390 . S
C1685 C1686 1.387 . S
C1685 H1688 0.950 . S
C1686 C1685 1.387 . S
C1686 C1689 1.387 . S
H1687 C1683 0.950 . S
H1688 C1685 0.950 . S
C1689 C1680 1.390 . S
C1689 H1682 0.950 . S
C1689 C1686 1.387 . S
C1690 C1691 1.387 . S
C1690 H1694 0.950 . S
C1690 C1699 1.390 . S
C1691 C1690 1.387 . S
C1691 C1693 1.387 . S
H1692 C1699 0.950 . S
C1693 C1691 1.387 . S
C1693 C1695 1.390 . S
C1693 H1697 0.950 . S
H1694 C1690 0.950 . S
C1695 C1693 1.390 . S
C1695 C1696 1.387 . S
C1695 H1698 0.950 . S
C1696 C1695 1.387 . S
C1696 C1699 1.387 . S
H1697 C1693 0.950 . S
H1698 C1695 0.950 . S
C1699 C1690 1.390 . S
C1699 H1692 0.950 . S
C1699 C1696 1.387 . S
C1700 C1701 1.387 . S
C1700 H1704 0.950 . S
C1700 C1709 1.390 . S
C1701 C1700 1.387 . S
C1701 C1703 1.387 . S
H1702 C1709 0.950 . S
C1703 C1701 1.387 . S
C1703 C1705 1.390 . S
C1703 H1707 0.950 . S
H1704 C1700 0.950 . S
C1705 C1703 1.390 . S
C1705 C1706 1.387 . S
C1705 H1708 0.950 . S
C1706 C1705 1.387 . S
C1706 C1709 1.387 . S
H1707 C1703 0.950 . S
H1708 C1705 0.950 . S
C1709 C1700 1.390 . S
C1709 H1702 0.950 . S
C1709 C1706 1.387 . S
C1710 C1711 1.387 . S
C1710 H1714 0.950 . S
C1710 C1719 1.390 . S
C1711 C1710 1.387 . S
C1711 C1713 1.387 . S
H1712 C1719 0.950 . S
C1713 C1711 1.387 . S
C1713 C1715 1.390 . S
C1713 H1717 0.950 . S
H1714 C1710 0.950 . S
C1715 C1713 1.390 . S
C1715 C1716 1.387 . S
C1715 H1718 0.950 . S
C1716 C1715 1.387 . S
C1716 C1719 1.387 . S
H1717 C1713 0.950 . S
H1718 C1715 0.950 . S
C1719 C1710 1.390 . S
C1719 H1712 0.950 . S
C1719 C1716 1.387 . S
C1720 C1721 1.387 . S
C1720 H1724 0.950 1_554 S
C1720 C1729 1.390 . S
C1721 C1720 1.387 . S
C1721 C1723 1.387 . S
H1722 C1729 0.950 . S
C1723 C1721 1.387 . S
C1723 C1725 1.390 . S
C1723 H1727 0.950 . S
H1724 C1720 0.950 1_556 S
C1725 C1723 1.390 . S
C1725 C1726 1.387 . S
C1725 H1728 0.950 . S
C1726 C1725 1.387 . S
C1726 C1729 1.387 . S
H1727 C1723 0.950 . S
H1728 C1725 0.950 . S
C1729 C1720 1.390 . S
C1729 H1722 0.950 . S
C1729 C1726 1.387 . S
C1730 C1731 1.387 . S
C1730 H1734 0.950 . S
C1730 C1739 1.390 . S
C1731 C1730 1.387 . S
C1731 C1733 1.387 . S
H1732 C1739 0.950 . S
C1733 C1731 1.387 . S
C1733 C1735 1.390 . S
C1733 H1737 0.950 1_554 S
H1734 C1730 0.950 . S
C1735 C1733 1.390 . S
C1735 C1736 1.387 . S
C1735 H1738 0.950 . S
C1736 C1735 1.387 . S
C1736 C1739 1.387 . S
H1737 C1733 0.950 1_556 S
H1738 C1735 0.950 . S
C1739 C1730 1.390 . S
C1739 H1732 0.950 . S
C1739 C1736 1.387 . S
C1740 C1741 1.387 . S
C1740 H1744 0.950 . S
C1740 C1749 1.390 . S
C1741 C1740 1.387 . S
C1741 C1743 1.387 1_556 S
H1742 C1749 0.950 . S
C1743 C1741 1.387 1_554 S
C1743 C1745 1.390 . S
C1743 H1747 0.950 . S
H1744 C1740 0.950 . S
C1745 C1743 1.390 . S
C1745 C1746 1.387 1_554 S
C1745 H1748 0.950 . S
C1746 C1745 1.387 1_556 S
C1746 C1749 1.387 . S
H1747 C1743 0.950 . S
H1748 C1745 0.950 . S
C1749 C1740 1.390 . S
C1749 H1742 0.950 . S
C1749 C1746 1.387 . S
C1750 C1751 1.387 1_554 S
C1750 H1754 0.950 . S
C1750 C1759 1.390 1_554 S
C1751 C1750 1.387 1_556 S
C1751 C1753 1.387 . S
H1752 C1759 0.950 1_554 S
C1753 C1751 1.387 . S
C1753 C1755 1.390 . S
C1753 H1757 0.950 . S
H1754 C1750 0.950 . S
C1755 C1753 1.390 . S
C1755 C1756 1.387 . S
C1755 H1758 0.950 . S
C1756 C1755 1.387 . S
C1756 C1759 1.387 . S
H1757 C1753 0.950 . S
H1758 C1755 0.950 . S
C1759 C1750 1.390 1_556 S
C1759 H1752 0.950 1_556 S
C1759 C1756 1.387 . S
C1760 C1761 1.387 . S
C1760 H1764 0.950 . S
C1760 C1769 1.390 . S
C1761 C1760 1.387 . S
C1761 C1763 1.387 1_556 S
H1762 C1769 0.950 . S
C1763 C1761 1.387 1_554 S
C1763 C1765 1.390 . S
C1763 H1767 0.950 . S
H1764 C1760 0.950 . S
C1765 C1763 1.390 . S
C1765 C1766 1.387 1_554 S
C1765 H1768 0.950 . S
C1766 C1765 1.387 1_556 S
C1766 C1769 1.387 . S
H1767 C1763 0.950 . S
H1768 C1765 0.950 . S
C1769 C1760 1.390 . S
C1769 H1762 0.950 . S
C1769 C1766 1.387 . S
C1770 C1771 1.387 1_554 S
C1770 H1774 0.950 . S
C1770 C1779 1.397 . S
C1771 C1770 1.387 1_556 S
C1771 C1773 1.387 . S
H1772 C1779 0.970 . S
C1773 C1771 1.387 . S
C1773 C1775 1.390 . S
C1773 H1777 0.950 . S
H1774 C1770 0.950 . S
C1775 C1773 1.390 . S
C1775 C1776 1.387 . S
C1775 H1778 0.950 . S
C1776 C1775 1.387 . S
C1776 C1779 1.361 1_556 S
H1777 C1773 0.950 . S
H1778 C1775 0.950 . S
C1779 C1770 1.397 . S
C1779 H1772 0.970 . S
C1779 C1776 1.361 1_554 S
C1780 C1781 1.387 1_554 S
C1780 H1784 0.950 . S
C1780 C1789 1.390 . S
C1781 C1780 1.387 1_556 S
C1781 C1783 1.387 . S
H1782 C1789 0.950 . S
C1783 C1781 1.387 . S
C1783 C1785 1.390 . S
C1783 H1787 0.950 . S
H1784 C1780 0.950 . S
C1785 C1783 1.390 . S
C1785 C1786 1.387 . S
C1785 H1788 0.950 . S
C1786 C1785 1.387 . S
C1786 C1789 1.387 1_556 S
H1787 C1783 0.950 . S
H1788 C1785 0.950 . S
C1789 C1780 1.390 . S
C1789 H1782 0.950 . S
C1789 C1786 1.387 1_554 S
C1790 C1791 1.387 . S
C1790 H1794 0.950 . S
C1790 C1799 1.390 . S
C1791 C1790 1.387 . S
C1791 C1793 1.387 1_556 S
H1792 C1799 0.950 . S
C1793 C1791 1.387 1_554 S
C1793 C1795 1.390 . S
C1793 H1797 0.950 . S
H1794 C1790 0.950 . S
C1795 C1793 1.390 . S
C1795 C1796 1.387 1_554 S
C1795 H1798 0.950 . S
C1796 C1795 1.387 1_556 S
C1796 C1799 1.387 . S
H1797 C1793 0.950 . S
H1798 C1795 0.950 . S
C1799 C1790 1.390 . S
C1799 H1792 0.950 . S
C1799 C1796 1.387 . S
C1800 C1801 1.387 . S
C1800 H1804 0.950 1_554 S
C1800 C1809 1.390 . S
C1801 C1800 1.387 . S
C1801 C1803 1.387 . S
H1802 C1809 0.950 . S
C1803 C1801 1.387 . S
C1803 C1805 1.390 . S
C1803 H1807 0.950 . S
H1804 C1800 0.950 1_556 S
C1805 C1803 1.390 . S
C1805 C1806 1.387 . S
C1805 H1808 0.950 . S
C1806 C1805 1.387 . S
C1806 C1809 1.387 . S
H1807 C1803 0.950 . S
H1808 C1805 0.950 . S
C1809 C1800 1.390 . S
C1809 H1802 0.950 . S
C1809 C1806 1.387 . S
C1810 C1811 1.387 . S
C1810 H1814 0.950 1_554 S
C1810 C1819 1.390 . S
C1811 C1810 1.387 . S
C1811 C1813 1.387 . S
H1812 C1819 0.950 . S
C1813 C1811 1.387 . S
C1813 C1815 1.390 . S
C1813 H1817 0.950 . S
H1814 C1810 0.950 1_556 S
C1815 C1813 1.390 . S
C1815 C1816 1.387 . S
C1815 H1818 0.950 . S
C1816 C1815 1.387 . S
C1816 C1819 1.387 . S
H1817 C1813 0.950 . S
H1818 C1815 0.950 . S
C1819 C1810 1.390 . S
C1819 H1812 0.950 . S
C1819 C1816 1.387 . S
C1820 C1821 1.387 . S
C1820 H1824 0.950 . S
C1820 C1829 1.390 . S
C1821 C1820 1.387 . S
C1821 C1823 1.387 . S
H1822 C1829 0.950 . S
C1823 C1821 1.387 . S
C1823 C1825 1.390 . S
C1823 H1827 0.950 1_554 S
H1824 C1820 0.950 . S
C1825 C1823 1.390 . S
C1825 C1826 1.387 . S
C1825 H1828 0.950 . S
C1826 C1825 1.387 . S
C1826 C1829 1.387 . S
H1827 C1823 0.950 1_556 S
H1828 C1825 0.950 . S
C1829 C1820 1.390 . S
C1829 H1822 0.950 . S
C1829 C1826 1.387 . S
C1830 C1831 1.387 . S
C1830 H1834 0.950 . S
C1830 C1839 1.390 . S
C1831 C1830 1.387 . S
C1831 C1833 1.387 . S
H1832 C1839 0.950 . S
C1833 C1831 1.387 . S
C1833 C1835 1.390 . S
C1833 H1837 0.950 . S
H1834 C1830 0.950 . S
C1835 C1833 1.390 . S
C1835 C1836 1.387 . S
C1835 H1838 0.950 . S
C1836 C1835 1.387 . S
C1836 C1839 1.387 . S
H1837 C1833 0.950 . S
H1838 C1835 0.950 . S
C1839 C1830 1.390 . S
C1839 H1832 0.950 . S
C1839 C1836 1.387 . S
C1840 C1841 1.387 . S
C1840 H1844 0.950 . S
C1840 C1849 1.390 . S
C1841 C1840 1.387 . S
C1841 C1843 1.387 . S
H1842 C1849 0.950 . S
C1843 C1841 1.387 . S
C1843 C1845 1.390 . S
C1843 H1847 0.950 . S
H1844 C1840 0.950 . S
C1845 C1843 1.390 . S
C1845 C1846 1.387 . S
C1845 H1848 0.950 . S
C1846 C1845 1.387 . S
C1846 C1849 1.387 . S
H1847 C1843 0.950 . S
H1848 C1845 0.950 . S
C1849 C1840 1.390 . S
C1849 H1842 0.950 . S
C1849 C1846 1.387 . S
C1850 C1851 1.387 . S
C1850 H1854 0.950 . S
C1850 C1859 1.390 . S
C1851 C1850 1.387 . S
C1851 C1853 1.387 . S
H1852 C1859 0.950 . S
C1853 C1851 1.387 . S
C1853 C1855 1.390 . S
C1853 H1857 0.950 . S
H1854 C1850 0.950 . S
C1855 C1853 1.390 . S
C1855 C1856 1.387 . S
C1855 H1858 0.950 . S
C1856 C1855 1.387 . S
C1856 C1859 1.387 . S
H1857 C1853 0.950 . S
H1858 C1855 0.950 . S
C1859 C1850 1.390 . S
C1859 H1852 0.950 . S
C1859 C1856 1.387 . S
C1860 C1861 1.387 . S
C1860 H1864 0.950 . S
C1860 C1869 1.390 . S
C1861 C1860 1.387 . S
C1861 C1863 1.387 . S
H1862 C1869 0.950 . S
C1863 C1861 1.387 . S
C1863 C1865 1.390 . S
C1863 H1867 0.950 . S
H1864 C1860 0.950 . S
C1865 C1863 1.390 . S
C1865 C1866 1.387 . S
C1865 H1868 0.950 . S
C1866 C1865 1.387 . S
C1866 C1869 1.387 . S
H1867 C1863 0.950 . S
H1868 C1865 0.950 . S
C1869 C1860 1.390 . S
C1869 H1862 0.950 . S
C1869 C1866 1.387 . S
C1870 C1871 1.387 . S
C1870 H1874 0.950 . S
C1870 C1879 1.390 . S
C1871 C1870 1.387 . S
C1871 C1873 1.387 . S
H1872 C1879 0.950 . S
C1873 C1871 1.387 . S
C1873 C1875 1.390 . S
C1873 H1877 0.950 . S
H1874 C1870 0.950 . S
C1875 C1873 1.390 . S
C1875 C1876 1.387 . S
C1875 H1878 0.950 . S
C1876 C1875 1.387 . S
C1876 C1879 1.387 . S
H1877 C1873 0.950 . S
H1878 C1875 0.950 . S
C1879 C1870 1.390 . S
C1879 H1872 0.950 . S
C1879 C1876 1.387 . S
C1880 C1881 1.387 . S
C1880 H1884 0.950 . S
C1880 C1889 1.390 . S
C1881 C1880 1.387 . S
C1881 C1883 1.387 . S
H1882 C1889 0.950 . S
C1883 C1881 1.387 . S
C1883 C1885 1.398 1_565 S
C1883 H1887 0.950 1_565 S
H1884 C1880 0.950 . S
C1885 C1883 1.398 1_545 S
C1885 C1886 1.367 1_545 S
C1885 H1888 0.963 . S
C1886 C1885 1.367 1_565 S
C1886 C1889 1.387 . S
H1887 C1883 0.950 1_545 S
H1888 C1885 0.963 . S
C1889 C1880 1.390 . S
C1889 H1882 0.950 . S
C1889 C1886 1.387 . S
C1890 C1891 1.387 . S
C1890 H1894 0.950 . S
C1890 C1899 1.390 . S
C1891 C1890 1.387 . S
C1891 C1893 1.387 . S
H1892 C1899 0.950 . S
C1893 C1891 1.387 . S
C1893 C1895 1.389 . S
C1893 H1897 0.950 1_565 S
H1894 C1890 0.950 . S
C1895 C1893 1.389 . S
C1895 C1896 1.387 . S
C1895 H1898 0.952 1_565 S
C1896 C1895 1.387 . S
C1896 C1899 1.387 . S
H1897 C1893 0.950 1_545 S
H1898 C1895 0.952 1_545 S
C1899 C1890 1.390 . S
C1899 H1892 0.950 . S
C1899 C1896 1.387 . S
C1900 C1901 1.387 . S
C1900 H1904 0.950 . S
C1900 C1909 1.390 . S
C1901 C1900 1.387 . S
C1901 C1903 1.387 . S
H1902 C1909 0.950 1_655 S
C1903 C1901 1.387 . S
C1903 C1905 1.390 . S
C1903 H1907 0.950 . S
H1904 C1900 0.950 . S
C1905 C1903 1.390 . S
C1905 C1906 1.387 . S
C1905 H1908 0.950 . S
C1906 C1905 1.387 . S
C1906 C1909 1.387 . S
H1907 C1903 0.950 . S
H1908 C1905 0.950 . S
C1909 C1900 1.390 . S
C1909 H1902 0.950 1_455 S
C1909 C1906 1.387 . S
C1910 C1911 1.387 . S
C1910 H1914 0.950 . S
C1910 C1919 1.390 . S
C1911 C1910 1.387 . S
C1911 C1913 1.387 . S
H1912 C1919 0.950 . S
C1913 C1911 1.387 . S
C1913 C1915 1.390 . S
C1913 H1917 0.950 . S
H1914 C1910 0.950 . S
C1915 C1913 1.390 . S
C1915 C1916 1.387 . S
C1915 H1918 0.950 . S
C1916 C1915 1.387 . S
C1916 C1919 1.387 . S
H1917 C1913 0.950 . S
H1918 C1915 0.950 . S
C1919 C1910 1.390 . S
C1919 H1912 0.950 . S
C1919 C1916 1.387 . S
C1920 C1921 1.387 . S
C1920 H1924 0.950 . S
C1920 C1929 1.390 . S
C1921 C1920 1.387 . S
C1921 C1923 1.387 . S
H1922 C1929 0.950 . S
C1923 C1921 1.387 . S
C1923 C1925 1.390 . S
C1923 H1927 0.950 . S
H1924 C1920 0.950 . S
C1925 C1923 1.390 . S
C1925 C1926 1.387 . S
C1925 H1928 0.950 . S
C1926 C1925 1.387 . S
C1926 C1929 1.387 . S
H1927 C1923 0.950 . S
H1928 C1925 0.950 . S
C1929 C1920 1.390 . S
C1929 H1922 0.950 . S
C1929 C1926 1.387 . S
C1930 C1931 1.387 . S
C1930 H1934 0.950 . S
C1930 C1939 1.390 . S
C1931 C1930 1.387 . S
C1931 C1933 1.387 . S
H1932 C1939 0.950 . S
C1933 C1931 1.387 . S
C1933 C1935 1.390 . S
C1933 H1937 0.950 . S
H1934 C1930 0.950 . S
C1935 C1933 1.390 . S
C1935 C1936 1.387 . S
C1935 H1938 0.950 . S
C1936 C1935 1.387 . S
C1936 C1939 1.387 . S
H1937 C1933 0.950 . S
H1938 C1935 0.950 . S
C1939 C1930 1.390 . S
C1939 H1932 0.950 . S
C1939 C1936 1.387 . S
C1940 C1941 1.387 . S
C1940 H1944 0.950 . S
C1940 C1949 1.390 . S
C1941 C1940 1.387 . S
C1941 C1943 1.387 . S
H1942 C1949 0.950 . S
C1943 C1941 1.387 . S
C1943 C1945 1.390 . S
C1943 H1947 0.950 . S
H1944 C1940 0.950 . S
C1945 C1943 1.390 . S
C1945 C1946 1.387 . S
C1945 H1948 0.950 . S
C1946 C1945 1.387 . S
C1946 C1949 1.387 . S
H1947 C1943 0.950 . S
H1948 C1945 0.950 . S
C1949 C1940 1.390 . S
C1949 H1942 0.950 . S
C1949 C1946 1.387 . S
C1950 C1951 1.387 . S
C1950 H1954 0.950 1_545 S
C1950 C1959 1.390 1_545 S
C1951 C1950 1.387 . S
C1951 C1953 1.387 . S
H1952 C1959 0.950 . S
C1953 C1951 1.387 . S
C1953 C1955 1.390 . S
C1953 H1957 0.950 . S
H1954 C1950 0.950 1_565 S
C1955 C1953 1.390 . S
C1955 C1956 1.387 . S
C1955 H1958 0.950 . S
C1956 C1955 1.387 . S
C1956 C1959 1.387 1_545 S
H1957 C1953 0.950 . S
H1958 C1955 0.950 . S
C1959 C1950 1.390 1_565 S
C1959 H1952 0.950 . S
C1959 C1956 1.387 1_565 S
C1960 C1961 1.387 . S
C1960 H1964 0.950 . S
C1960 C1969 1.390 . S
C1961 C1960 1.387 . S
C1961 C1963 1.387 . S
H1962 C1969 0.950 . S
C1963 C1961 1.387 . S
C1963 C1965 1.390 . S
C1963 H1967 0.950 . S
H1964 C1960 0.950 . S
C1965 C1963 1.390 . S
C1965 C1966 1.387 . S
C1965 H1968 0.950 . S
C1966 C1965 1.387 . S
C1966 C1969 1.387 . S
H1967 C1963 0.950 . S
H1968 C1965 0.950 . S
C1969 C1960 1.390 . S
C1969 H1962 0.950 . S
C1969 C1966 1.387 . S
C1970 C1971 1.387 . S
C1970 H1974 0.950 . S
C1970 C1979 1.390 . S
C1971 C1970 1.387 . S
C1971 C1973 1.387 . S
H1972 C1979 0.950 . S
C1973 C1971 1.387 . S
C1973 C1975 1.390 . S
C1973 H1977 0.950 . S
H1974 C1970 0.950 . S
C1975 C1973 1.390 . S
C1975 C1976 1.387 . S
C1975 H1978 0.950 . S
C1976 C1975 1.387 . S
C1976 C1979 1.387 . S
H1977 C1973 0.950 . S
H1978 C1975 0.950 . S
C1979 C1970 1.390 . S
C1979 H1972 0.950 . S
C1979 C1976 1.387 . S
C1980 C1981 1.387 . S
C1980 H1984 0.950 . S
C1980 C1989 1.390 . S
C1981 C1980 1.387 . S
C1981 C1983 1.387 . S
H1982 C1989 0.950 . S
C1983 C1981 1.387 . S
C1983 C1985 1.390 . S
C1983 H1987 0.950 . S
H1984 C1980 0.950 . S
C1985 C1983 1.390 . S
C1985 C1986 1.387 . S
C1985 H1988 0.950 . S
C1986 C1985 1.387 . S
C1986 C1989 1.387 . S
H1987 C1983 0.950 . S
H1988 C1985 0.950 . S
C1989 C1980 1.390 . S
C1989 H1982 0.950 . S
C1989 C1986 1.387 . S
C1990 C1991 1.387 . S
C1990 H1994 0.950 . S
C1990 C1999 1.390 . S
C1991 C1990 1.387 . S
C1991 C1993 1.387 . S
H1992 C1999 0.950 . S
C1993 C1991 1.387 . S
C1993 C1995 1.390 . S
C1993 H1997 0.950 . S
H1994 C1990 0.950 . S
C1995 C1993 1.390 . S
C1995 C1996 1.387 . S
C1995 H1998 0.950 . S
C1996 C1995 1.387 . S
C1996 C1999 1.387 . S
H1997 C1993 0.950 . S
H1998 C1995 0.950 . S
C1999 C1990 1.390 . S
C1999 H1992 0.950 . S
C1999 C1996 1.387 . S
C2000 C2001 1.387 . S
C2000 H2004 0.950 . S
C2000 C2009 1.390 . S
C2001 C2000 1.387 . S
C2001 C2003 1.387 . S
H2002 C2009 0.950 . S
C2003 C2001 1.387 . S
C2003 C2005 1.390 . S
C2003 H2007 0.950 . S
H2004 C2000 0.950 . S
C2005 C2003 1.390 . S
C2005 C2006 1.387 . S
C2005 H2008 0.950 . S
C2006 C2005 1.387 . S
C2006 C2009 1.387 . S
H2007 C2003 0.950 . S
H2008 C2005 0.950 . S
C2009 C2000 1.390 . S
C2009 H2002 0.950 . S
C2009 C2006 1.387 . S
C2010 C2011 1.387 . S
C2010 H2014 0.950 . S
C2010 C2019 1.390 . S
C2011 C2010 1.387 . S
C2011 C2013 1.387 . S
H2012 C2019 0.950 . S
C2013 C2011 1.387 . S
C2013 C2015 1.390 . S
C2013 H2017 0.950 . S
H2014 C2010 0.950 . S
C2015 C2013 1.390 . S
C2015 C2016 1.387 . S
C2015 H2018 0.950 . S
C2016 C2015 1.387 . S
C2016 C2019 1.387 . S
H2017 C2013 0.950 . S
H2018 C2015 0.950 . S
C2019 C2010 1.390 . S
C2019 H2012 0.950 . S
C2019 C2016 1.387 . S
C2020 C2021 1.387 . S
C2020 H2024 0.950 . S
C2020 C2029 1.390 . S
C2021 C2020 1.387 . S
C2021 C2023 1.387 . S
H2022 C2029 0.950 . S
C2023 C2021 1.387 . S
C2023 C2025 1.390 . S
C2023 H2027 0.950 . S
H2024 C2020 0.950 . S
C2025 C2023 1.390 . S
C2025 C2026 1.387 . S
C2025 H2028 0.950 . S
C2026 C2025 1.387 . S
C2026 C2029 1.387 . S
H2027 C2023 0.950 . S
H2028 C2025 0.950 . S
C2029 C2020 1.390 . S
C2029 H2022 0.950 . S
C2029 C2026 1.387 . S
C2030 C2031 1.387 . S
C2030 H2034 0.950 . S
C2030 C2039 1.390 . S
C2031 C2030 1.387 . S
C2031 C2033 1.387 . S
H2032 C2039 0.950 . S
C2033 C2031 1.387 . S
C2033 C2035 1.390 . S
C2033 H2037 0.950 . S
H2034 C2030 0.950 . S
C2035 C2033 1.390 . S
C2035 C2036 1.387 . S
C2035 H2038 0.950 . S
C2036 C2035 1.387 . S
C2036 C2039 1.387 . S
H2037 C2033 0.950 . S
H2038 C2035 0.950 . S
C2039 C2030 1.390 . S
C2039 H2032 0.950 . S
C2039 C2036 1.387 . S
C2040 C2041 1.387 . S
C2040 H2044 0.950 . S
C2040 C2049 1.390 . S
C2041 C2040 1.387 . S
C2041 C2043 1.387 . S
H2042 C2049 0.950 . S
C2043 C2041 1.387 . S
C2043 C2045 1.358 1_655 S
C2043 H2047 0.950 1_655 S
H2044 C2040 0.950 . S
C2045 C2043 1.358 1_455 S
C2045 C2046 1.381 1_455 S
C2045 H2048 0.989 . S
C2046 C2045 1.381 1_655 S
C2046 C2049 1.387 . S
H2047 C2043 0.950 1_455 S
H2048 C2045 0.989 . S
C2049 C2040 1.390 . S
C2049 H2042 0.950 . S
C2049 C2046 1.387 . S
C2050 C2051 1.387 . S
C2050 H2054 0.950 . S
C2050 C2059 1.390 . S
C2051 C2050 1.387 . S
C2051 C2053 1.387 . S
H2052 C2059 0.950 . S
C2053 C2051 1.387 . S
C2053 C2055 1.390 . S
C2053 H2057 0.950 . S
H2054 C2050 0.950 . S
C2055 C2053 1.390 . S
C2055 C2056 1.387 . S
C2055 H2058 0.950 . S
C2056 C2055 1.387 . S
C2056 C2059 1.387 . S
H2057 C2053 0.950 . S
H2058 C2055 0.950 . S
C2059 C2050 1.390 . S
C2059 H2052 0.950 . S
C2059 C2056 1.387 . S
C2060 C2061 1.387 . S
C2060 H2064 0.950 . S
C2060 C2069 1.390 . S
C2061 C2060 1.387 . S
C2061 C2063 1.387 . S
H2062 C2069 0.950 . S
C2063 C2061 1.387 . S
C2063 C2065 1.390 1_545 S
C2063 H2067 0.950 1_545 S
H2064 C2060 0.950 . S
C2065 C2063 1.390 1_565 S
C2065 C2066 1.387 1_565 S
C2065 H2068 0.950 . S
C2066 C2065 1.387 1_545 S
C2066 C2069 1.387 . S
H2067 C2063 0.950 1_565 S
H2068 C2065 0.950 . S
C2069 C2060 1.390 . S
C2069 H2062 0.950 . S
C2069 C2066 1.387 . S
C1351 C8 1.563 . S
C1356 C839 1.559 . S
C1361 C18 1.548 . S
C1366 C883 1.556 . S
C1376 C963 1.549 . S
C1371 C31 1.544 . S
C1381 C34 1.602 . S
C1386 C1007 1.600 . S
C1391 C5 1.564 . S
C1396 C1087 1.558 . S
C1401 C21 1.591 . S
C1406 C1149 1.577 . S
C1411 C47 1.557 . S
C1416 C1069 1.555 . S
C1426 C1131 1.540 . S
C1421 C57 1.549 . S
C1436 C1025 1.575 . S
C1431 C70 1.578 . S
C1441 C73 1.559 . S
C1446 C945 1.559 . S
C1456 C821 1.560 . S
C1451 C44 1.576 . S
C1461 C60 1.588 . S
C1466 C901 1.597 . S
C1471 C86 1.627 . S
C1476 C1211 1.606 . S
C1481 C96 1.575 . S
C1486 C1255 1.576 . S
C1496 C1335 1.590 . S
C1491 C109 1.650 . S
C1501 C112 1.678 . S
C1506 C281 1.632 . S
C1511 C83 1.647 . S
C1516 C325 1.637 . S
C1521 C99 1.622 . S
C1526 C405 1.599 . S
C1531 C125 1.604 . S
C1536 C343 1.612 . S
C1541 C135 1.578 . S
C1546 C387 1.567 . S
C1556 C263 1.588 . S
C1551 C148 1.645 . S
C1566 C1317 1.648 . S
C1561 C151 1.696 . S
C1576 C1193 1.583 . S
C1571 C122 1.632 . S
C1586 C1273 1.641 . S
C1581 C138 1.633 . S
C1591 C164 1.608 . S
C1596 C467 1.588 . S
C1601 C174 1.569 . S
C1606 C529 1.558 . S
C1611 C187 1.639 . S
C1616 C573 1.622 . S
C1621 C190 1.695 . S
C1626 C635 1.697 . S
C1636 C697 1.632 . S
C1631 C161 1.648 . S
C1646 C777 1.617 . S
C1641 C177 1.638 . S
C1656 C715 1.644 . S
C1651 C203 1.635 . S
C1666 C759 1.564 . S
C1661 C213 1.585 . S
C1671 C226 1.648 . S
C1676 C653 1.626 . S
C1686 C591 1.673 . S
C1681 C229 1.670 . S
C1691 C200 1.640 . S
C1696 C449 1.594 . S
C1706 C511 1.607 . S
C1701 C216 1.627 . S
C1716 C287 1.406 . S
C1711 C0 1.426 . S
C1721 C23 1.483 . S
C1726 C331 1.392 . S
C1736 C411 1.381 . S
C1731 C36 1.485 . S
C1746 C473 1.424 . S
C1741 C26 1.445 1_556 S
C1756 C535 1.359 . S
C1751 C10 1.479 1_556 S
C1766 C579 1.439 . S
C1761 C13 1.443 . S
C1771 C39 1.430 . S
C1776 C597 1.442 . S
C1781 C62 1.472 . S
C1786 C455 1.356 . S
C1791 C75 1.457 . S
C1796 C517 1.354 . S
C1801 C65 1.473 . S
C1806 C349 1.478 . S
C1816 C393 1.363 . S
C1811 C49 1.482 . S
C1821 C52 1.434 . S
C1826 C269 1.407 . S
C1836 C641 1.436 . S
C1831 C78 1.429 . S
C1841 C101 1.517 . S
C1846 C703 1.426 . S
C1851 C114 1.505 1_655 S
C1856 C783 1.400 . S
C1866 C845 1.347 . S
C1861 C104 1.378 . S
C1871 C88 1.463 . S
C1876 C889 1.374 . S
C1881 C91 1.314 . S
C1886 C969 1.272 . S
C1891 C117 1.329 . S
C1896 C951 1.286 . S
C1901 C140 1.399 . S
C1906 C827 1.303 . S
C1916 C907 1.380 . S
C1911 C153 1.460 . S
C1921 C143 1.451 . S
C1926 C721 1.449 . S
C1931 C127 1.521 . S
C1936 C765 1.398 . S
C1946 C659 1.463 . S
C1941 C130 1.460 . S
C1956 C1013 1.337 . S
C1951 C156 1.348 . S
C1961 C179 1.391 . S
C1966 C1093 1.299 . S
C1971 C192 1.457 . S
C1976 C1155 1.360 . S
C1986 C1217 1.402 . S
C1981 C182 1.433 . S
C1996 C1261 1.423 . S
C1991 C166 1.526 . S
C2001 C169 1.462 . S
C2006 C1341 1.429 . S
C2011 C195 1.436 . S
C2016 C1323 1.409 . S
C2021 C218 1.480 1_565 S
C2026 C1199 1.392 . S
C2036 C1279 1.404 . S
C2031 C231 1.488 1_455 S
C2046 C1075 1.338 . S
C2041 C221 1.368 . S
C2056 C1137 1.357 . S
C2051 C205 1.469 . S
C2061 C208 1.340 . S
C2066 C1031 1.326 . S
