# Generated by pormake.
# Topology ptr, (4,4)-cn, num edge types: 1
# Building blocks:
#     Node 0, Type 0, BuildingBlock: KUFVIS_clean_sbu_0, # of connection points: 4
#     Node 1, Type 0, BuildingBlock: KUFVIS_clean_sbu_0, # of connection points: 4
#     Node 2, Type 0, BuildingBlock: KUFVIS_clean_sbu_0, # of connection points: 4
#     Node 3, Type 0, BuildingBlock: KUFVIS_clean_sbu_0, # of connection points: 4
#     Node 4, Type 0, BuildingBlock: KUFVIS_clean_sbu_0, # of connection points: 4
#     Node 5, Type 0, BuildingBlock: KUFVIS_clean_sbu_0, # of connection points: 4
#     Node 6, Type 0, BuildingBlock: KUFVIS_clean_sbu_0, # of connection points: 4
#     Node 7, Type 0, BuildingBlock: KUFVIS_clean_sbu_0, # of connection points: 4
#     Node 8, Type 0, BuildingBlock: KUFVIS_clean_sbu_0, # of connection points: 4
#     Node 9, Type 0, BuildingBlock: KUFVIS_clean_sbu_0, # of connection points: 4
#     Node 10, Type 0, BuildingBlock: KUFVIS_clean_sbu_0, # of connection points: 4
#     Node 11, Type 0, BuildingBlock: KUFVIS_clean_sbu_0, # of connection points: 4
#     Node 12, Type 0, BuildingBlock: KUFVIS_clean_sbu_0, # of connection points: 4
#     Node 13, Type 0, BuildingBlock: KUFVIS_clean_sbu_0, # of connection points: 4
#     Node 14, Type 0, BuildingBlock: KUFVIS_clean_sbu_0, # of connection points: 4
#     Node 15, Type 0, BuildingBlock: KUFVIS_clean_sbu_0, # of connection points: 4
#     Node 16, Type 0, BuildingBlock: KUFVIS_clean_sbu_0, # of connection points: 4
#     Node 17, Type 0, BuildingBlock: KUFVIS_clean_sbu_0, # of connection points: 4
#     Node 18, Type 1, BuildingBlock: MUDLON_clean_linker_0, # of connection points: 4
#     Node 19, Type 1, BuildingBlock: MUDLON_clean_linker_0, # of connection points: 4
#     Node 20, Type 1, BuildingBlock: MUDLON_clean_linker_0, # of connection points: 4
#     Node 21, Type 1, BuildingBlock: MUDLON_clean_linker_0, # of connection points: 4
#     Node 22, Type 1, BuildingBlock: MUDLON_clean_linker_0, # of connection points: 4
#     Node 23, Type 1, BuildingBlock: MUDLON_clean_linker_0, # of connection points: 4
#     Node 24, Type 1, BuildingBlock: MUDLON_clean_linker_0, # of connection points: 4
#     Node 25, Type 1, BuildingBlock: MUDLON_clean_linker_0, # of connection points: 4
#     Node 26, Type 1, BuildingBlock: MUDLON_clean_linker_0, # of connection points: 4
#     Node 27, Type 1, BuildingBlock: MUDLON_clean_linker_0, # of connection points: 4
#     Node 28, Type 1, BuildingBlock: MUDLON_clean_linker_0, # of connection points: 4
#     Node 29, Type 1, BuildingBlock: MUDLON_clean_linker_0, # of connection points: 4
#     Node 30, Type 1, BuildingBlock: MUDLON_clean_linker_0, # of connection points: 4
#     Node 31, Type 1, BuildingBlock: MUDLON_clean_linker_0, # of connection points: 4
#     Node 32, Type 1, BuildingBlock: MUDLON_clean_linker_0, # of connection points: 4
#     Node 33, Type 1, BuildingBlock: MUDLON_clean_linker_0, # of connection points: 4
#     Node 34, Type 1, BuildingBlock: MUDLON_clean_linker_0, # of connection points: 4
#     Node 35, Type 1, BuildingBlock: MUDLON_clean_linker_0, # of connection points: 4
#     Edge 36, Type (0, 1), BuildingBlock: XUDNAN_clean_linker_2, # of connection points: 2
#     Edge 37, Type (0, 1), BuildingBlock: XUDNAN_clean_linker_2, # of connection points: 2
#     Edge 38, Type (0, 1), BuildingBlock: XUDNAN_clean_linker_2, # of connection points: 2
#     Edge 39, Type (0, 1), BuildingBlock: XUDNAN_clean_linker_2, # of connection points: 2
#     Edge 40, Type (0, 1), BuildingBlock: XUDNAN_clean_linker_2, # of connection points: 2
#     Edge 41, Type (0, 1), BuildingBlock: XUDNAN_clean_linker_2, # of connection points: 2
#     Edge 42, Type (0, 1), BuildingBlock: XUDNAN_clean_linker_2, # of connection points: 2
#     Edge 43, Type (0, 1), BuildingBlock: XUDNAN_clean_linker_2, # of connection points: 2
#     Edge 44, Type (0, 1), BuildingBlock: XUDNAN_clean_linker_2, # of connection points: 2
#     Edge 45, Type (0, 1), BuildingBlock: XUDNAN_clean_linker_2, # of connection points: 2
#     Edge 46, Type (0, 1), BuildingBlock: XUDNAN_clean_linker_2, # of connection points: 2
#     Edge 47, Type (0, 1), BuildingBlock: XUDNAN_clean_linker_2, # of connection points: 2
#     Edge 48, Type (0, 1), BuildingBlock: XUDNAN_clean_linker_2, # of connection points: 2
#     Edge 49, Type (0, 1), BuildingBlock: XUDNAN_clean_linker_2, # of connection points: 2
#     Edge 50, Type (0, 1), BuildingBlock: XUDNAN_clean_linker_2, # of connection points: 2
#     Edge 51, Type (0, 1), BuildingBlock: XUDNAN_clean_linker_2, # of connection points: 2
#     Edge 52, Type (0, 1), BuildingBlock: XUDNAN_clean_linker_2, # of connection points: 2
#     Edge 53, Type (0, 1), BuildingBlock: XUDNAN_clean_linker_2, # of connection points: 2
#     Edge 54, Type (0, 1), BuildingBlock: XUDNAN_clean_linker_2, # of connection points: 2
#     Edge 55, Type (0, 1), BuildingBlock: XUDNAN_clean_linker_2, # of connection points: 2
#     Edge 56, Type (0, 1), BuildingBlock: XUDNAN_clean_linker_2, # of connection points: 2
#     Edge 57, Type (0, 1), BuildingBlock: XUDNAN_clean_linker_2, # of connection points: 2
#     Edge 58, Type (0, 1), BuildingBlock: XUDNAN_clean_linker_2, # of connection points: 2
#     Edge 59, Type (0, 1), BuildingBlock: XUDNAN_clean_linker_2, # of connection points: 2
#     Edge 60, Type (0, 1), BuildingBlock: XUDNAN_clean_linker_2, # of connection points: 2
#     Edge 61, Type (0, 1), BuildingBlock: XUDNAN_clean_linker_2, # of connection points: 2
#     Edge 62, Type (0, 1), BuildingBlock: XUDNAN_clean_linker_2, # of connection points: 2
#     Edge 63, Type (0, 1), BuildingBlock: XUDNAN_clean_linker_2, # of connection points: 2
#     Edge 64, Type (0, 1), BuildingBlock: XUDNAN_clean_linker_2, # of connection points: 2
#     Edge 65, Type (0, 1), BuildingBlock: XUDNAN_clean_linker_2, # of connection points: 2
#     Edge 66, Type (0, 1), BuildingBlock: XUDNAN_clean_linker_2, # of connection points: 2
#     Edge 67, Type (0, 1), BuildingBlock: XUDNAN_clean_linker_2, # of connection points: 2
#     Edge 68, Type (0, 1), BuildingBlock: XUDNAN_clean_linker_2, # of connection points: 2
#     Edge 69, Type (0, 1), BuildingBlock: XUDNAN_clean_linker_2, # of connection points: 2
#     Edge 70, Type (0, 1), BuildingBlock: XUDNAN_clean_linker_2, # of connection points: 2
#     Edge 71, Type (0, 1), BuildingBlock: XUDNAN_clean_linker_2, # of connection points: 2
#     Edge 72, Type (0, 1), BuildingBlock: XUDNAN_clean_linker_2, # of connection points: 2
#     Edge 73, Type (0, 1), BuildingBlock: XUDNAN_clean_linker_2, # of connection points: 2
#     Edge 74, Type (0, 1), BuildingBlock: XUDNAN_clean_linker_2, # of connection points: 2
#     Edge 75, Type (0, 1), BuildingBlock: XUDNAN_clean_linker_2, # of connection points: 2
#     Edge 76, Type (0, 1), BuildingBlock: XUDNAN_clean_linker_2, # of connection points: 2
#     Edge 77, Type (0, 1), BuildingBlock: XUDNAN_clean_linker_2, # of connection points: 2
#     Edge 78, Type (0, 1), BuildingBlock: XUDNAN_clean_linker_2, # of connection points: 2
#     Edge 79, Type (0, 1), BuildingBlock: XUDNAN_clean_linker_2, # of connection points: 2
#     Edge 80, Type (0, 1), BuildingBlock: XUDNAN_clean_linker_2, # of connection points: 2
#     Edge 81, Type (0, 1), BuildingBlock: XUDNAN_clean_linker_2, # of connection points: 2
#     Edge 82, Type (0, 1), BuildingBlock: XUDNAN_clean_linker_2, # of connection points: 2
#     Edge 83, Type (0, 1), BuildingBlock: XUDNAN_clean_linker_2, # of connection points: 2
#     Edge 84, Type (0, 1), BuildingBlock: XUDNAN_clean_linker_2, # of connection points: 2
#     Edge 85, Type (0, 1), BuildingBlock: XUDNAN_clean_linker_2, # of connection points: 2
#     Edge 86, Type (0, 1), BuildingBlock: XUDNAN_clean_linker_2, # of connection points: 2
#     Edge 87, Type (0, 1), BuildingBlock: XUDNAN_clean_linker_2, # of connection points: 2
#     Edge 88, Type (0, 1), BuildingBlock: XUDNAN_clean_linker_2, # of connection points: 2
#     Edge 89, Type (0, 1), BuildingBlock: XUDNAN_clean_linker_2, # of connection points: 2
#     Edge 90, Type (0, 1), BuildingBlock: XUDNAN_clean_linker_2, # of connection points: 2
#     Edge 91, Type (0, 1), BuildingBlock: XUDNAN_clean_linker_2, # of connection points: 2
#     Edge 92, Type (0, 1), BuildingBlock: XUDNAN_clean_linker_2, # of connection points: 2
#     Edge 93, Type (0, 1), BuildingBlock: XUDNAN_clean_linker_2, # of connection points: 2
#     Edge 94, Type (0, 1), BuildingBlock: XUDNAN_clean_linker_2, # of connection points: 2
#     Edge 95, Type (0, 1), BuildingBlock: XUDNAN_clean_linker_2, # of connection points: 2
#     Edge 96, Type (0, 1), BuildingBlock: XUDNAN_clean_linker_2, # of connection points: 2
#     Edge 97, Type (0, 1), BuildingBlock: XUDNAN_clean_linker_2, # of connection points: 2
#     Edge 98, Type (0, 1), BuildingBlock: XUDNAN_clean_linker_2, # of connection points: 2
#     Edge 99, Type (0, 1), BuildingBlock: XUDNAN_clean_linker_2, # of connection points: 2
#     Edge 100, Type (0, 1), BuildingBlock: XUDNAN_clean_linker_2, # of connection points: 2
#     Edge 101, Type (0, 1), BuildingBlock: XUDNAN_clean_linker_2, # of connection points: 2
#     Edge 102, Type (0, 1), BuildingBlock: XUDNAN_clean_linker_2, # of connection points: 2
#     Edge 103, Type (0, 1), BuildingBlock: XUDNAN_clean_linker_2, # of connection points: 2
#     Edge 104, Type (0, 1), BuildingBlock: XUDNAN_clean_linker_2, # of connection points: 2
#     Edge 105, Type (0, 1), BuildingBlock: XUDNAN_clean_linker_2, # of connection points: 2
#     Edge 106, Type (0, 1), BuildingBlock: XUDNAN_clean_linker_2, # of connection points: 2
#     Edge 107, Type (0, 1), BuildingBlock: XUDNAN_clean_linker_2, # of connection points: 2
# Relax obj value: 0.036
# Max RMSD: 0.125
# Mean RMSD: 0.072
data_MOF--net-ptr--node1-KUFVIS_clean_sbu_0--node2-MUDLON_clean_linker_0--edge1-XUDNAN_clean_linker_2
_symmetry_space_group_name_H-M    P1
_symmetry_Int_Tables_number       1
_symmetry_cell_setting            triclinic
loop_
_symmetry_equiv_pos_as_xyz
'x, y, z'
_cell_length_a     104.50613
_cell_length_b     104.10036
_cell_length_c     63.599753
_cell_angle_alpha  89.685708
_cell_angle_beta   90.671092
_cell_angle_gamma 119.53687
loop_
_atom_site_label
_atom_site_type_symbol
_atom_site_fract_x
_atom_site_fract_y
_atom_site_fract_z
_atom_type_partial_charge
Mn0 Mn 1.00054 0.35994 0.00472 0.0
Mn1 Mn 0.02835 0.39497 0.99877 0.0
C2 C 0.99775 0.37588 0.98213 0.0
C3 C 0.98856 0.33503 0.99543 0.0
C4 C 0.00753 0.38527 0.03555 0.0
O5 O 0.01794 0.35897 0.01794 0.0
O6 O 0.03546 0.3825 0.01255 0.0
C7 C 0.04524 0.38844 0.96771 0.0
N8 N 0.03828 0.39604 0.97325 0.0
C9 C 0.04602 0.41052 0.9416 0.0
C10 C 0.0533 0.40288 0.93555 0.0
C11 C 0.05281 0.39171 0.94859 0.0
C12 C 0.03831 0.40649 0.96054 0.0
H13 H 0.04509 0.38002 0.97787 0.0
C14 C 0.03119 0.36947 0.0195 0.0
O15 O 0.98646 0.33932 0.01356 0.0
O16 O 0.99802 0.34511 0.98307 0.0
N17 N 0.02358 0.40872 0.98579 0.0
C18 C 0.01663 0.41557 0.9944 0.0
C19 C 0.01599 0.42691 0.98325 0.0
C20 C 0.02301 0.43153 0.96377 0.0
C21 C 0.0307 0.42481 0.9557 0.0
C22 C 0.03065 0.41331 0.96726 0.0
H23 H 0.01154 0.41233 0.00963 0.0
O24 O 0.9864 0.36414 0.98913 0.0
O25 O 0.01058 0.37776 0.98778 0.0
O26 O 0.9998 0.37172 0.03012 0.0
O27 O 0.01844 0.39481 0.02498 0.0
C28 C 0.03875 0.42936 0.93692 0.0
C29 C 0.0463 0.42214 0.92977 0.0
H30 H 0.05934 0.40554 0.92097 0.0
H31 H 0.0584 0.38577 0.94404 0.0
H32 H 0.01025 0.43221 0.98977 0.0
H33 H 0.02265 0.44041 0.95532 0.0
H34 H 0.0391 0.43832 0.92773 0.0
H35 H 0.05229 0.42561 0.91516 0.0
Mn36 Mn 0.6442 0.63988 0.01895 0.0
Mn37 Mn 0.64544 0.6084 0.01191 0.0
C38 C 0.62738 0.61843 0.03547 0.0
C39 C 0.65136 0.662 0.03666 0.0
C40 C 0.63165 0.61974 0.98017 0.0
O41 O 0.66463 0.64735 0.0071 0.0
O42 O 0.66416 0.6257 0.00224 0.0
C43 C 0.66883 0.61431 0.04336 0.0
N44 N 0.65487 0.60557 0.03602 0.0
C45 C 0.64992 0.58766 0.06329 0.0
C46 C 0.66427 0.59644 0.0711 0.0
C47 C 0.67374 0.60986 0.06115 0.0
C48 C 0.64558 0.59278 0.04571 0.0
H49 H 0.67619 0.62459 0.0357 0.0
C50 C 0.67054 0.63982 0.00116 0.0
O51 O 0.64645 0.66007 0.01743 0.0
O52 O 0.65254 0.65131 0.04528 0.0
N53 N 0.6283 0.59072 0.02059 0.0
C54 C 0.61489 0.5834 0.01088 0.0
C55 C 0.60405 0.56988 0.01909 0.0
C56 C 0.6072 0.56387 0.03692 0.0
C57 C 0.62123 0.57138 0.04625 0.0
C58 C 0.63155 0.58487 0.03747 0.0
H59 H 0.61243 0.5879 0.99707 0.0
O60 O 0.62458 0.62914 0.03244 0.0
O61 O 0.64011 0.62066 0.02905 0.0
O62 O 0.63472 0.63155 0.99012 0.0
O63 O 0.63516 0.61029 0.98687 0.0
C64 C 0.62542 0.56591 0.06375 0.0
C65 C 0.63977 0.57403 0.07224 0.0
H66 H 0.66812 0.59299 0.08474 0.0
H67 H 0.68481 0.61671 0.06711 0.0
H68 H 0.5933 0.56408 0.01167 0.0
H69 H 0.59883 0.55342 0.04319 0.0
H70 H 0.61769 0.55548 0.07086 0.0
H71 H 0.64284 0.56975 0.08579 0.0
Mn72 Mn 0.36056 0.99404 0.01588 0.0
Mn73 Mn 0.39243 0.02611 0.01055 0.0
C74 C 0.38048 0.99852 0.03698 0.0
C75 C 0.33697 0.98087 0.02978 0.0
C76 C 0.38251 1.00022 0.98062 0.0
O77 O 0.35468 0.00681 0.99854 0.0
O78 O 0.37588 0.02842 0.9989 0.0
C79 C 0.38655 0.04467 0.0396 0.0
N80 N 0.39506 0.03877 0.03377 0.0
C81 C 0.41284 0.05211 0.06099 0.0
C82 C 0.40429 0.05836 0.06727 0.0
C83 C 0.39103 0.05455 0.05661 0.0
C84 C 0.40766 0.04212 0.0442 0.0
H85 H 0.37644 0.0419 0.03128 0.0
C86 C 0.36219 0.02054 0.99431 0.0
O87 O 0.34047 0.97666 0.01265 0.0
O88 O 0.34714 0.99277 0.03876 0.0
N89 N 0.40947 0.02578 0.0212 0.0
C90 C 0.41654 0.01893 0.01304 0.0
C91 C 0.4298 0.02129 0.02226 0.0
C92 C 0.43587 0.03098 0.03939 0.0
C93 C 0.42864 0.03828 0.04708 0.0
C94 C 0.41533 0.0353 0.03749 0.0
H95 H 0.41207 0.01164 0.99967 0.0
O96 O 0.36956 0.98522 0.0346 0.0
O97 O 0.37915 0.009 0.02769 0.0
O98 O 0.37089 0.99132 0.9905 0.0
O99 O 0.3909 0.01362 0.98621 0.0
C100 C 0.43423 0.04855 0.06369 0.0
C101 C 0.42634 0.05547 0.07063 0.0
H102 H 0.40779 0.0661 0.08025 0.0
H103 H 0.38436 0.05931 0.06137 0.0
H104 H 0.43539 0.01573 0.01608 0.0
H105 H 0.44615 0.03286 0.04637 0.0
H106 H 0.44454 0.05115 0.07134 0.0
H107 H 0.43068 0.06325 0.08356 0.0
Mn108 Mn 0.99295 0.64179 0.00587 0.0
Mn109 Mn 0.02609 0.64351 0.0084 0.0
C110 C 0.99851 0.62839 0.98235 0.0
C111 C 0.97748 0.65076 0.99466 0.0
C112 C 1.0015 0.62577 0.03896 0.0
O113 O 0.00537 0.66023 0.02348 0.0
O114 O 0.02733 0.6611 0.02255 0.0
C115 C 0.04285 0.6697 0.98137 0.0
N116 N 0.03806 0.65522 0.9857 0.0
C117 C 0.05095 0.65305 0.95603 0.0
C118 C 0.0561 0.66797 0.95133 0.0
C119 C 0.052 0.67632 0.96403 0.0
C120 C 0.0419 0.64707 0.97356 0.0
H121 H 0.03971 0.67616 0.99106 0.0
C122 C 0.0191 0.66644 0.02784 0.0
O123 O 0.97491 0.64297 0.01166 0.0
O124 O 0.98915 0.6535 0.98415 0.0
N125 N 0.02664 0.62735 0.99506 0.0
C126 C 0.0201 0.61293 0.00107 0.0
C127 C 0.02288 0.60302 0.98979 0.0
C128 C 0.03236 0.60805 0.9725 0.0
C129 C 0.03895 0.62293 0.9666 0.0
C130 C 0.03593 0.63233 0.9786 0.0
H131 H 0.01285 0.60902 0.0144 0.0
O132 O 0.9849 0.62454 0.98616 0.0
O133 O 0.00841 0.63997 0.99236 0.0
O134 O 0.99219 0.62874 0.03037 0.0
O135 O 0.01461 0.63091 0.03229 0.0
C136 C 0.04825 0.62876 0.94911 0.0
C137 C 0.05421 0.6438 0.9438 0.0
H138 H 0.0631 0.67309 0.93791 0.0
H139 H 0.05588 0.68782 0.96044 0.0
H140 H 0.01771 0.59153 0.99439 0.0
H141 H 0.03445 0.60037 0.96378 0.0
H142 H 0.05072 0.62173 0.93947 0.0
H143 H 0.06117 0.6481 0.93014 0.0
Mn144 Mn 0.36312 0.36231 0.02262 0.0
Mn145 Mn 0.39585 0.36304 0.02232 0.0
C146 C 0.38239 0.37922 0.04333 0.0
C147 C 0.33922 0.3527 0.03522 0.0
C148 C 0.38631 0.37697 0.98812 0.0
O149 O 0.35796 0.34269 0.00888 0.0
O150 O 0.38015 0.34413 0.01021 0.0
C151 C 0.38859 0.33921 0.05339 0.0
N152 N 0.39737 0.35343 0.04713 0.0
C153 C 0.41382 0.35821 0.0765 0.0
C154 C 0.40498 0.34361 0.08325 0.0
C155 C 0.39225 0.3341 0.07173 0.0
C156 C 0.40941 0.36278 0.05841 0.0
H157 H 0.37891 0.3318 0.04442 0.0
C158 C 0.36642 0.33735 0.00552 0.0
O159 O 0.34292 0.35911 0.017 0.0
O160 O 0.34932 0.35174 0.04601 0.0
N161 N 0.41232 0.38046 0.0335 0.0
C162 C 0.42 0.39403 0.02441 0.0
C163 C 0.43296 0.40491 0.0341 0.0
C164 C 0.43814 0.40159 0.05266 0.0
C165 C 0.43038 0.38737 0.06125 0.0
C166 C 0.4174 0.37706 0.0511 0.0
H167 H 0.4162 0.3966 0.00999 0.0
O168 O 0.37142 0.38124 0.03851 0.0
O169 O 0.38159 0.36705 0.03654 0.0
O170 O 0.37379 0.3735 0.99588 0.0
O171 O 0.39532 0.3735 0.99664 0.0
C172 C 0.4352 0.38293 0.07921 0.0
C173 C 0.42691 0.36837 0.08686 0.0
H174 H 0.40788 0.33958 0.09723 0.0
H175 H 0.38537 0.32281 0.07684 0.0
H176 H 0.43899 0.41579 0.0272 0.0
H177 H 0.4482 0.40997 0.06001 0.0
H178 H 0.44524 0.39064 0.08734 0.0
H179 H 0.43066 0.36512 0.1008 0.0
Mn180 Mn 0.63985 0.00547 0.00776 0.0
Mn181 Mn 0.61129 0.9719 0.99512 0.0
C182 C 0.62216 0.00366 0.98391 0.0
C183 C 0.66413 0.02399 0.002 0.0
C184 C 0.61235 0.98828 0.03503 0.0
O185 O 0.64663 0.99146 0.01907 0.0
O186 O 0.62724 0.9698 0.00914 0.0
C187 C 0.62671 0.96429 0.96296 0.0
N188 N 0.61523 0.96624 0.9685 0.0
C189 C 0.60374 0.95802 0.93456 0.0
C190 C 0.6154 0.95587 0.92849 0.0
C191 C 0.627 0.95914 0.94271 0.0
C192 C 0.60427 0.96359 0.95472 0.0
H193 H 0.63554 0.96658 0.97394 0.0
C194 C 0.63989 0.97744 0.01774 0.0
O195 O 0.65772 0.0229 0.01984 0.0
O196 O 0.65653 0.01421 0.9878 0.0
N197 N 0.59473 0.97155 0.98136 0.0
C198 C 0.58383 0.97331 0.99005 0.0
C199 C 0.57142 0.97051 0.97789 0.0
C200 C 0.57009 0.96545 0.95714 0.0
C201 C 0.5811 0.96304 0.94884 0.0
C202 C 0.59334 0.96626 0.96159 0.0
H203 H 0.58468 0.97701 0.00607 0.0
O204 O 0.63077 0.01607 0.99322 0.0
O205 O 0.62447 0.99271 0.98815 0.0
O206 O 0.62497 0.99966 0.03198 0.0
O207 O 0.60639 0.97733 0.02232 0.0
C208 C 0.58017 0.95713 0.92866 0.0
C209 C 0.59151 0.95465 0.9215 0.0
H210 H 0.61555 0.95168 0.913 0.0
H211 H 0.63606 0.95752 0.93815 0.0
H212 H 0.56286 0.97217 0.98454 0.0
H213 H 0.56045 0.96319 0.94785 0.0
H214 H 0.57081 0.95448 0.91848 0.0
H215 H 0.59072 0.9502 0.90588 0.0
Mn216 Mn 0.67225 0.698 0.3361 0.0
Mn217 Mn 0.70762 0.72454 0.32951 0.0
C218 C 0.67832 0.7153 0.30959 0.0
C219 C 0.65292 0.67423 0.32918 0.0
C220 C 0.68819 0.72576 0.36361 0.0
O221 O 0.68362 0.69 0.3526 0.0
O222 O 0.70678 0.70804 0.34652 0.0
C223 C 0.71714 0.70751 0.30308 0.0
N224 N 0.71555 0.7196 0.30595 0.0
C225 C 0.72657 0.72968 0.27252 0.0
C226 C 0.72841 0.71738 0.26925 0.0
C227 C 0.72364 0.70623 0.28459 0.0
C228 C 0.72006 0.73037 0.29128 0.0
H229 H 0.71347 0.6989 0.3148 0.0
C230 C 0.69753 0.69561 0.35456 0.0
O231 O 0.65309 0.68138 0.34595 0.0
O232 O 0.66408 0.68076 0.31675 0.0
N233 N 0.71025 0.74113 0.31312 0.0
C234 C 0.70703 0.7519 0.31821 0.0
C235 C 0.71095 0.76382 0.30443 0.0
C236 C 0.71812 0.76452 0.28555 0.0
C237 C 0.72134 0.75333 0.28067 0.0
C238 C 0.71738 0.74184 0.29517 0.0
H239 H 0.70144 0.75138 0.33261 0.0
O240 O 0.66497 0.70819 0.31658 0.0
O241 O 0.68768 0.71203 0.31825 0.0
O242 O 0.6767 0.71355 0.35904 0.0
O243 O 0.70028 0.73077 0.35367 0.0
C244 C 0.72814 0.75299 0.26183 0.0
C245 C 0.73071 0.74116 0.25773 0.0
H246 H 0.73336 0.71632 0.25497 0.0
H247 H 0.72497 0.69668 0.28214 0.0
H248 H 0.70841 0.77242 0.30832 0.0
H249 H 0.721 0.77366 0.27486 0.0
H250 H 0.73125 0.76169 0.25027 0.0
H251 H 0.73577 0.74092 0.24307 0.0
Mn252 Mn 0.30765 0.97138 0.35576 0.0
Mn253 Mn 0.30867 0.93949 0.35545 0.0
C254 C 0.2899 0.95091 0.37311 0.0
C255 C 0.31385 0.99419 0.37068 0.0
C256 C 0.29644 0.94907 0.31921 0.0
O257 O 0.32857 0.97816 0.3465 0.0
O258 O 0.32767 0.95611 0.34514 0.0
C259 C 0.33121 0.94744 0.38901 0.0
N260 N 0.31744 0.93825 0.38137 0.0
C261 C 0.31176 0.92211 0.41122 0.0
C262 C 0.3259 0.93137 0.41938 0.0
C263 C 0.33564 0.94413 0.40827 0.0
C264 C 0.30789 0.92609 0.39212 0.0
H265 H 0.33878 0.9572 0.38046 0.0
C266 C 0.33435 0.97015 0.34256 0.0
O267 O 0.31012 0.99151 0.35096 0.0
O268 O 0.31468 0.98395 0.38129 0.0
N269 N 0.29127 0.92243 0.36503 0.0
C270 C 0.27806 0.91459 0.35495 0.0
C271 C 0.26697 0.90165 0.3642 0.0
C272 C 0.26968 0.89673 0.38347 0.0
C273 C 0.28349 0.90477 0.39326 0.0
C274 C 0.29407 0.91767 0.38341 0.0
H275 H 0.27593 0.91826 0.34009 0.0
O276 O 0.2874 0.96142 0.36725 0.0
O277 O 0.30286 0.95273 0.36891 0.0
O278 O 0.2996 0.96162 0.32694 0.0
O279 O 0.29912 0.93979 0.3287 0.0
C280 C 0.28724 0.9004 0.4123 0.0
C281 C 0.30136 0.90907 0.42128 0.0
H282 H 0.32939 0.9288 0.43416 0.0
H283 H 0.34657 0.95135 0.41448 0.0
H284 H 0.25637 0.89546 0.35647 0.0
H285 H 0.26111 0.88672 0.39053 0.0
H286 H 0.27931 0.89045 0.42024 0.0
H287 H 0.30406 0.90567 0.43603 0.0
Mn288 Mn 0.01934 0.32642 0.34761 0.0
Mn289 Mn 0.05083 0.35934 0.34623 0.0
C290 C 0.03779 0.33202 0.37243 0.0
C291 C 0.99506 0.31048 0.35769 0.0
C292 C 0.0444 0.33434 0.31636 0.0
O293 O 0.01345 0.33908 0.32965 0.0
O294 O 0.03503 0.36048 0.33012 0.0
C295 C 0.04096 0.37693 0.37072 0.0
N296 N 0.0506 0.37186 0.36792 0.0
C297 C 0.06494 0.38537 0.3981 0.0
C298 C 0.0552 0.39079 0.40125 0.0
C299 C 0.04314 0.38652 0.38753 0.0
C300 C 0.06223 0.37588 0.38105 0.0
H301 H 0.03167 0.37367 0.36023 0.0
C302 C 0.02148 0.35267 0.32467 0.0
O303 O 1.00064 0.3082 0.34099 0.0
O304 O 0.00348 0.32237 0.36839 0.0
N305 N 0.06701 0.35994 0.36144 0.0
C306 C 0.07492 0.35312 0.35687 0.0
C307 C 0.08724 0.35602 0.36932 0.0
C308 C 0.09132 0.36592 0.38628 0.0
C309 C 0.08304 0.37282 0.39064 0.0
C310 C 0.07098 0.36964 0.37753 0.0
H311 H 0.07187 0.34555 0.34381 0.0
O312 O 0.02833 0.31836 0.36811 0.0
O313 O 0.03629 0.34196 0.36197 0.0
O314 O 0.03182 0.32547 0.32384 0.0
O315 O 0.0525 0.34737 0.32349 0.0
C316 C 0.08615 0.38256 0.40766 0.0
C317 C 0.07708 0.38881 0.41142 0.0
H318 H 0.05681 0.39814 0.41424 0.0
H319 H 0.03554 0.3906 0.38991 0.0
H320 H 0.09357 0.35064 0.36586 0.0
H321 H 0.10078 0.36807 0.39593 0.0
H322 H 0.09535 0.38516 0.41814 0.0
H323 H 0.07946 0.39611 0.42474 0.0
Mn324 Mn 0.67285 0.9799 0.3386 0.0
Mn325 Mn 0.70548 0.98293 0.32578 0.0
C326 C 0.67397 0.96474 0.31289 0.0
C327 C 0.65528 0.9873 0.33323 0.0
C328 C 0.68889 0.96779 0.36562 0.0
O329 O 0.68778 0.9999 0.3511 0.0
O330 O 0.70873 1.0016 0.33884 0.0
C331 C 0.71408 0.00564 0.2925 0.0
N332 N 0.71156 0.99209 0.29886 0.0
C333 C 0.71806 0.9871 0.2649 0.0
C334 C 0.72099 1.00112 0.25811 0.0
C335 C 0.71891 0.0104 0.27194 0.0
C336 C 0.71334 0.983 0.28561 0.0
H337 H 0.71231 0.01271 0.30299 0.0
C338 C 0.7017 0.00695 0.34846 0.0
O339 O 0.65601 0.98131 0.35086 0.0
O340 O 0.66499 0.98938 0.31918 0.0
N341 N 0.70402 0.96574 0.31267 0.0
C342 C 0.69963 0.95217 0.32114 0.0
C343 C 0.70054 0.94139 0.30911 0.0
C344 C 0.706 0.94469 0.28854 0.0
C345 C 0.71038 0.9587 0.28013 0.0
C346 C 0.70941 0.96907 0.29296 0.0
H347 H 0.69549 0.94959 0.33697 0.0
O348 O 0.66168 0.96098 0.32232 0.0
O349 O 0.68511 0.9772 0.31875 0.0
O350 O 0.67757 0.96918 0.36205 0.0
O351 O 0.69999 0.973 0.35344 0.0
C352 C 0.71546 0.96271 0.2594 0.0
C353 C 0.71926 0.97689 0.25177 0.0
H354 H 0.72461 0.00479 0.24221 0.0
H355 H 0.72097 0.02116 0.26673 0.0
H356 H 0.69706 0.93056 0.31567 0.0
H357 H 0.7067 0.93636 0.2793 0.0
H358 H 0.71626 0.9549 0.24909 0.0
H359 H 0.72288 0.97975 0.23569 0.0
Mn360 Mn 0.03129 0.698 0.35952 0.0
Mn361 Mn 0.06672 0.70553 0.36028 0.0
C362 C 0.04822 0.71594 0.38209 0.0
C363 C 0.00689 0.68468 0.37041 0.0
C364 C 0.05437 0.71731 0.32688 0.0
O365 O 0.03002 0.68017 0.34414 0.0
O366 O 0.05384 0.68629 0.3464 0.0
C367 C 0.06302 0.6816 0.38922 0.0
N368 N 0.06978 0.69622 0.38426 0.0
C369 C 0.08643 0.70241 0.4137 0.0
C370 C 0.07967 0.68742 0.41914 0.0
C371 C 0.06783 0.67698 0.40694 0.0
C372 C 0.08088 0.70639 0.39626 0.0
H373 H 0.0541 0.67353 0.37965 0.0
C374 C 0.04054 0.67758 0.34062 0.0
O375 O 0.01041 0.69171 0.35265 0.0
O376 O 0.01749 0.68495 0.38161 0.0
N377 N 0.0808 0.72373 0.37308 0.0
C378 C 0.08658 0.73767 0.36516 0.0
C379 C 0.09837 0.74945 0.3757 0.0
C380 C 0.10447 0.74671 0.3938 0.0
C381 C 0.09878 0.7322 0.4011 0.0
C382 C 0.08678 0.72095 0.39025 0.0
H383 H 0.08218 0.73981 0.35095 0.0
O384 O 0.03608 0.71572 0.37694 0.0
O385 O 0.05001 0.70534 0.37447 0.0
O386 O 0.04133 0.71125 0.33409 0.0
O387 O 0.06469 0.71581 0.33538 0.0
C388 C 0.10481 0.7284 0.41836 0.0
C389 C 0.09861 0.71352 0.42471 0.0
H390 H 0.08351 0.68379 0.43259 0.0
H391 H 0.06256 0.66539 0.41102 0.0
H392 H 0.10286 0.76059 0.36975 0.0
H393 H 0.11368 0.7558 0.40175 0.0
H394 H 0.11417 0.73685 0.42697 0.0
H395 H 0.10325 0.71076 0.43814 0.0
Mn396 Mn 0.31082 0.33869 0.33498 0.0
Mn397 Mn 0.2829 0.30355 0.33378 0.0
C398 C 0.29076 0.33221 0.31302 0.0
C399 C 0.33325 0.3568 0.3216 0.0
C400 C 0.28782 0.32487 0.36939 0.0
O401 O 0.31979 0.32714 0.34869 0.0
O402 O 0.30094 0.30389 0.34474 0.0
C403 C 0.29375 0.29118 0.30121 0.0
N404 N 0.28321 0.29414 0.30823 0.0
C405 C 0.26803 0.28281 0.27769 0.0
C406 C 0.27869 0.27958 0.27016 0.0
C407 C 0.29161 0.2838 0.28197 0.0
C408 C 0.2707 0.29006 0.29706 0.0
H409 H 0.30371 0.29446 0.3102 0.0
C410 C 0.31414 0.31314 0.35049 0.0
O411 O 0.32912 0.35812 0.34028 0.0
O412 O 0.32479 0.3448 0.31136 0.0
N413 N 0.2649 0.30185 0.3232 0.0
C414 C 0.25629 0.30683 0.33185 0.0
C415 C 0.24321 0.30404 0.32157 0.0
C416 C 0.2391 0.29613 0.30256 0.0
C417 C 0.24816 0.29116 0.29394 0.0
C418 C 0.26101 0.29415 0.30498 0.0
H419 H 0.25943 0.31295 0.34642 0.0
O420 O 0.29904 0.34586 0.31868 0.0
O421 O 0.29442 0.32286 0.32059 0.0
O422 O 0.29879 0.33624 0.36158 0.0
O423 O 0.28142 0.31223 0.36049 0.0
C424 C 0.24512 0.28363 0.27459 0.0
C425 C 0.25504 0.27945 0.26647 0.0
H426 H 0.27714 0.274 0.25524 0.0
H427 H 0.29992 0.28141 0.27622 0.0
H428 H 0.23632 0.30801 0.32824 0.0
H429 H 0.22903 0.29405 0.29464 0.0
H430 H 0.23529 0.2812 0.26566 0.0
H431 H 0.25269 0.27387 0.25143 0.0
Mn432 Mn 0.34617 0.03753 0.66487 0.0
Mn433 Mn 0.37676 0.06978 0.65355 0.0
C434 C 0.34501 0.05353 0.64042 0.0
C435 C 0.33127 0.01228 0.65835 0.0
C436 C 0.35833 0.06538 0.69232 0.0
O437 O 0.36254 0.0345 0.67768 0.0
O438 O 0.38191 0.05595 0.66775 0.0
C439 C 0.38916 0.05817 0.62216 0.0
N440 N 0.38449 0.06783 0.62745 0.0
C441 C 0.39293 0.08083 0.59471 0.0
C442 C 0.39785 0.07103 0.58889 0.0
C443 C 0.39582 0.05956 0.6026 0.0
C444 C 0.38592 0.07858 0.61409 0.0
H445 H 0.38791 0.04954 0.63285 0.0
C446 C 0.37637 0.0433 0.6766 0.0
O447 O 0.3305 0.01808 0.676 0.0
O448 O 0.34087 0.021 0.6449 0.0
N449 N 0.37405 0.08464 0.63968 0.0
C450 C 0.36926 0.09355 0.64799 0.0
C451 C 0.3703 0.10544 0.63614 0.0
C452 C 0.37679 0.10843 0.61621 0.0
C453 C 0.38222 0.09951 0.60836 0.0
C454 C 0.38051 0.08757 0.62064 0.0
H455 H 0.36452 0.0915 0.66345 0.0
O456 O 0.33318 0.04331 0.6491 0.0
O457 O 0.35723 0.05379 0.64553 0.0
O458 O 0.3486 0.0519 0.68893 0.0
O459 O 0.36925 0.07277 0.68023 0.0
C460 C 0.38967 0.10229 0.58913 0.0
C461 C 0.39494 0.0929 0.58224 0.0
H462 H 0.40324 0.07225 0.57399 0.0
H463 H 0.3996 0.05197 0.59823 0.0
H464 H 0.36626 0.11239 0.64245 0.0
H465 H 0.37775 0.11773 0.60723 0.0
H466 H 0.39128 0.11153 0.57939 0.0
H467 H 0.40048 0.09503 0.56728 0.0
Mn468 Mn 0.97884 0.31063 0.68626 0.0
Mn469 Mn 0.97334 0.27586 0.69035 0.0
C470 C 0.96373 0.2949 0.71221 0.0
C471 C 0.9908 0.33595 0.69308 0.0
C472 C 0.95804 0.28472 0.65773 0.0
O473 O 0.9961 0.31193 0.6696 0.0
O474 O 0.99077 0.28822 0.67275 0.0
C475 C 1.00018 0.28311 0.7153 0.0
N476 N 0.98528 0.27533 0.71298 0.0
C477 C 0.98268 0.26271 0.74582 0.0
C478 C 0.998 0.27053 0.7485 0.0
C479 C 0.00678 0.28079 0.7332 0.0
C480 C 0.97672 0.26548 0.72766 0.0
H481 H 0.00697 0.29103 0.7036 0.0
C482 C 0.99868 0.30138 0.66576 0.0
O483 O 0.98297 0.33031 0.67622 0.0
O484 O 0.99229 0.32693 0.70579 0.0
N485 N 0.95696 0.26258 0.70699 0.0
C486 C 0.94234 0.25621 0.70224 0.0
C487 C 0.93205 0.24565 0.71594 0.0
C488 C 0.93687 0.24176 0.73437 0.0
C489 C 0.95197 0.24834 0.73879 0.0
C490 C 0.96173 0.2586 0.72436 0.0
H491 H 0.93856 0.25912 0.68808 0.0
O492 O 0.96213 0.30586 0.70568 0.0
O493 O 0.97407 0.29339 0.70333 0.0
O494 O 0.96448 0.29824 0.66312 0.0
O495 O 0.96032 0.2751 0.66694 0.0
C496 C 0.95772 0.24522 0.75704 0.0
C497 C 0.97306 0.25244 0.76059 0.0
H498 H 0.00314 0.2688 0.76231 0.0
H499 H 0.01861 0.28691 0.7352 0.0
H500 H 0.92042 0.24053 0.71229 0.0
H501 H 0.92889 0.23373 0.74502 0.0
H502 H 0.95044 0.2374 0.76855 0.0
H503 H 0.97735 0.25008 0.77479 0.0
Mn504 Mn 0.69155 0.66461 0.67443 0.0
Mn505 Mn 0.71891 0.69975 0.68123 0.0
C506 C 0.71026 0.6695 0.6983 0.0
C507 C 0.66793 0.64574 0.6823 0.0
C508 C 0.71729 0.68062 0.6443 0.0
O509 O 0.6836 0.67682 0.65998 0.0
O510 O 0.70146 0.69972 0.66837 0.0
C511 C 0.705 0.70913 0.71343 0.0
N512 N 0.71638 0.70721 0.70728 0.0
C513 C 0.73006 0.71861 0.7389 0.0
C514 C 0.71849 0.72074 0.74559 0.0
C515 C 0.70586 0.71587 0.73286 0.0
C516 C 0.72841 0.71149 0.71964 0.0
H517 H 0.69537 0.70561 0.70353 0.0
C518 C 0.68896 0.69081 0.66007 0.0
O519 O 0.67426 0.64576 0.66486 0.0
O520 O 0.67514 0.65681 0.69495 0.0
N521 N 0.73665 0.70186 0.6935 0.0
C522 C 0.74701 0.69937 0.6845 0.0
C523 C 0.7602 0.70333 0.6954 0.0
C524 C 0.76283 0.71028 0.71509 0.0
C525 C 0.75227 0.71325 0.72365 0.0
C526 C 0.73919 0.70875 0.71229 0.0
H527 H 0.7452 0.69433 0.66917 0.0
O528 O 0.7018 0.65621 0.69138 0.0
O529 O 0.70709 0.67952 0.69187 0.0
O530 O 0.70589 0.66879 0.65013 0.0
O531 O 0.72259 0.69282 0.65432 0.0
C532 C 0.75434 0.72079 0.7428 0.0
C533 C 0.74322 0.72343 0.75045 0.0
H534 H 0.71921 0.72611 0.76044 0.0
H535 H 0.69689 0.71746 0.73791 0.0
H536 H 0.76839 0.70117 0.68855 0.0
H537 H 0.77309 0.71345 0.72336 0.0
H538 H 0.76439 0.72451 0.75186 0.0
H539 H 0.74488 0.7291 0.76532 0.0
Mn540 Mn 0.32938 0.30729 0.6735 0.0
Mn541 Mn 0.3626 0.30922 0.67068 0.0
C542 C 0.33244 0.29129 0.65164 0.0
C543 C 0.31267 0.31502 0.66332 0.0
C544 C 0.34143 0.29422 0.70645 0.0
O545 O 0.34316 0.32723 0.68697 0.0
O546 O 0.36476 0.32779 0.68271 0.0
C547 C 0.37612 0.33291 0.63883 0.0
N548 N 0.37202 0.31892 0.64524 0.0
C549 C 0.3839 0.31506 0.61573 0.0
C550 C 0.38825 0.32943 0.60878 0.0
C551 C 0.38423 0.33835 0.62029 0.0
C552 C 0.37546 0.3101 0.63396 0.0
H553 H 0.37331 0.33991 0.64787 0.0
C554 C 0.35715 0.33366 0.68868 0.0
O555 O 0.31189 0.30891 0.68144 0.0
O556 O 0.32338 0.31693 0.65117 0.0
N557 N 0.36262 0.29225 0.65934 0.0
C558 C 0.35794 0.27881 0.66849 0.0
C559 C 0.36075 0.26843 0.65866 0.0
C560 C 0.36881 0.27215 0.63995 0.0
C561 C 0.37402 0.28625 0.63128 0.0
C562 C 0.37054 0.296 0.64148 0.0
H563 H 0.35204 0.276 0.68313 0.0
O564 O 0.31944 0.2883 0.65766 0.0
O565 O 0.34335 0.30387 0.65793 0.0
O566 O 0.33126 0.29655 0.69947 0.0
O567 O 0.35367 0.29876 0.69713 0.0
C568 C 0.38283 0.29113 0.61322 0.0
C569 C 0.38777 0.30553 0.60545 0.0
H570 H 0.39472 0.33374 0.59467 0.0
H571 H 0.38756 0.34946 0.61505 0.0
H572 H 0.35687 0.25764 0.66562 0.0
H573 H 0.37112 0.26418 0.63255 0.0
H574 H 0.38581 0.28388 0.6051 0.0
H575 H 0.39443 0.30911 0.59142 0.0
Mn576 Mn 0.69771 0.02549 0.68969 0.0
Mn577 Mn 0.72749 0.02261 0.70383 0.0
C578 C 0.71488 0.04248 0.71295 0.0
C579 C 0.67298 0.01851 0.69473 0.0
C580 C 0.72496 0.03583 0.66229 0.0
O581 O 0.69244 0.00489 0.67936 0.0
O582 O 0.71178 0.00347 0.69251 0.0
C583 C 0.71404 1.0018 0.73924 0.0
N584 N 0.72483 0.01495 0.73177 0.0
C585 C 0.73728 0.02115 0.76531 0.0
C586 C 0.72636 0.00764 0.77335 0.0
C587 C 0.71463 0.99797 0.7603 0.0
C588 C 0.7359 0.02454 0.74436 0.0
H589 H 0.70509 0.99429 0.7292 0.0
C590 C 0.69936 0.99784 0.68292 0.0
O591 O 0.67934 0.02366 0.67681 0.0
O592 O 0.68088 0.01709 0.70946 0.0
N593 N 0.74385 0.04003 0.71518 0.0
C594 C 0.75403 0.05218 0.70465 0.0
C595 C 0.76644 0.06299 0.71548 0.0
C596 C 0.76854 0.06097 0.73683 0.0
C597 C 0.75832 0.04805 0.74706 0.0
C598 C 0.74604 0.03776 0.73554 0.0
H599 H 0.75265 0.05367 0.68814 0.0
O600 O 0.70555 0.04526 0.70324 0.0
O601 O 0.7135 0.02954 0.70954 0.0
O602 O 0.71244 0.0348 0.66561 0.0
O603 O 0.73118 0.03105 0.67514 0.0
C604 C 0.76007 0.04477 0.76806 0.0
C605 C 0.74955 0.03133 0.77717 0.0
H606 H 0.72689 0.00456 0.7895 0.0
H607 H 0.70613 0.98754 0.7664 0.0
H608 H 0.77442 0.0728 0.70735 0.0
H609 H 0.77818 0.06928 0.7451 0.0
H610 H 0.76946 0.0525 0.77734 0.0
H611 H 0.75099 0.02896 0.79336 0.0
Mn612 Mn 0.98326 0.67278 0.67321 0.0
Mn613 Mn 0.95391 0.63885 0.66646 0.0
C614 C 0.96656 0.66875 0.64637 0.0
C615 C 0.00807 0.68873 0.66629 0.0
C616 C 0.95635 0.65993 0.70133 0.0
O617 O 0.98847 0.65945 0.69057 0.0
O618 O 0.96969 0.63708 0.6817 0.0
C619 C 0.96661 0.62603 0.63754 0.0
N620 N 0.95608 0.62969 0.64185 0.0
C621 C 0.94367 0.61954 0.60894 0.0
C622 C 0.95434 0.61559 0.60419 0.0
C623 C 0.96588 0.61888 0.61853 0.0
C624 C 0.94494 0.6266 0.62816 0.0
H625 H 0.97551 0.62856 0.64852 0.0
C626 C 0.98203 0.64536 0.69094 0.0
O627 O 1.00181 0.69089 0.6824 0.0
O628 O 0.99997 0.67751 0.65438 0.0
N629 N 0.93783 0.63886 0.65177 0.0
C630 C 0.92895 0.64419 0.65817 0.0
C631 C 0.91703 0.64211 0.64538 0.0
C632 C 0.91435 0.63453 0.6262 0.0
C633 C 0.92363 0.62913 0.61995 0.0
C634 C 0.93523 0.63138 0.63346 0.0
H635 H 0.93092 0.64998 0.67293 0.0
O636 O 0.97542 0.68206 0.65293 0.0
O637 O 0.96798 0.65829 0.65543 0.0
O638 O 0.96844 0.6711 0.69566 0.0
O639 O 0.95052 0.64747 0.69188 0.0
C640 C 0.92196 0.6218 0.6007 0.0
C641 C 0.93199 0.61704 0.59518 0.0
H642 H 0.95385 0.61014 0.5895 0.0
H643 H 0.97419 0.61592 0.61494 0.0
H644 H 0.90994 0.64636 0.65027 0.0
H645 H 0.90518 0.63299 0.61633 0.0
H646 H 0.91313 0.61996 0.58989 0.0
H647 H 0.93073 0.61161 0.5802 0.0
H648 H 0.2305 0.35874 0.16656 0.0
N649 N 0.21682 0.34066 0.13445 0.0
H650 H 0.24052 0.35332 0.19833 0.0
H651 H 0.2117 0.31331 0.14719 0.0
H652 H 0.22119 0.30777 0.17885 0.0
H653 H 0.21127 0.31649 0.11053 0.0
H654 H 0.22929 0.3145 0.08868 0.0
H655 H 0.24153 0.36282 0.11979 0.0
H656 H 0.25951 0.36099 0.09752 0.0
H657 H 0.20749 0.35996 0.1293 0.0
H658 H 0.19198 0.31321 0.13239 0.0
H659 H 0.18206 0.35505 0.12773 0.0
H660 H 0.1667 0.30822 0.13169 0.0
H661 H 0.11276 0.3421 0.15596 0.0
H662 H 0.10085 0.34171 0.18887 0.0
H663 H 0.08888 0.29594 0.19778 0.0
H664 H 0.10032 0.29631 0.16425 0.0
H665 H 0.08436 0.30579 0.1228 0.0
H666 H 0.07309 0.31678 0.10075 0.0
H667 H 0.11596 0.35496 0.09113 0.0
H668 H 0.12683 0.3445 0.11454 0.0
H669 H 0.13657 0.34196 0.15364 0.0
H670 H 0.16187 0.34711 0.15094 0.0
H671 H 0.14743 0.30852 0.11168 0.0
N672 N 0.11203 0.3183 0.13654 0.0
H673 H 0.12194 0.30313 0.11524 0.0
C674 C 0.22035 0.33652 0.15445 0.0
C675 C 0.22818 0.34753 0.16945 0.0
C676 C 0.23384 0.3444 0.18759 0.0
C677 C 0.23176 0.33014 0.19098 0.0
C678 C 0.22316 0.31892 0.17653 0.0
C679 C 0.21757 0.32207 0.15842 0.0
C680 C 0.22512 0.33983 0.11706 0.0
C681 C 0.2216 0.32634 0.10743 0.0
C682 C 0.23195 0.32519 0.09495 0.0
C683 C 0.24589 0.33755 0.0916 0.0
C684 C 0.24885 0.35129 0.09969 0.0
C685 C 0.23858 0.35237 0.11237 0.0
C686 C 0.20175 0.33706 0.13104 0.0
C687 C 0.1986 0.34864 0.12944 0.0
C688 C 0.18405 0.3458 0.12879 0.0
C689 C 0.17226 0.33123 0.12986 0.0
C690 C 0.17545 0.31958 0.13065 0.0
C691 C 0.19002 0.32244 0.13118 0.0
C692 C 0.10725 0.31911 0.15749 0.0
C693 C 0.10774 0.33203 0.16512 0.0
C694 C 0.10098 0.33181 0.18407 0.0
C695 C 0.09369 0.31873 0.19591 0.0
C696 C 0.09406 0.30611 0.18885 0.0
C697 C 0.10072 0.30632 0.16981 0.0
C698 C 0.10641 0.3242 0.1205 0.0
C699 C 0.09132 0.31646 0.11569 0.0
C700 C 0.0849 0.32277 0.10294 0.0
C701 C 0.09352 0.33692 0.09425 0.0
C702 C 0.10883 0.34426 0.09801 0.0
C703 C 0.11517 0.33813 0.11125 0.0
C704 C 0.12726 0.32196 0.13487 0.0
C705 C 0.13878 0.33452 0.14459 0.0
C706 C 0.15334 0.33757 0.14278 0.0
C707 C 0.15677 0.32823 0.13108 0.0
C708 C 0.14522 0.31583 0.12109 0.0
C709 C 0.13065 0.31276 0.123 0.0
H710 H 0.7082 0.79499 0.14232 0.0
N711 N 0.68457 0.79621 0.12923 0.0
H712 H 0.71047 0.78258 0.17372 0.0
H713 H 0.66526 0.78601 0.162 0.0
H714 H 0.66701 0.77284 0.19279 0.0
H715 H 0.65619 0.77315 0.12989 0.0
H716 H 0.6479 0.74916 0.11343 0.0
H717 H 0.69728 0.79089 0.09697 0.0
H718 H 0.68877 0.7669 0.07988 0.0
H719 H 0.69796 0.82182 0.14967 0.0
H720 H 0.66056 0.79591 0.10902 0.0
H721 H 0.69094 0.84083 0.1516 0.0
H722 H 0.6539 0.81514 0.1103 0.0
H723 H 0.68272 0.89835 0.14895 0.0
H724 H 0.68835 0.91457 0.17901 0.0
H725 H 0.64402 0.8876 0.20144 0.0
H726 H 0.6386 0.87093 0.17144 0.0
H727 H 0.63287 0.87715 0.12502 0.0
H728 H 0.63285 0.89456 0.09904 0.0
H729 H 0.67869 0.90981 0.08661 0.0
H730 H 0.67849 0.89219 0.11206 0.0
H731 H 0.68373 0.8788 0.13575 0.0
H732 H 0.69023 0.85959 0.13187 0.0
H733 H 0.64417 0.82652 0.13266 0.0
N734 N 0.65573 0.87492 0.13866 0.0
H735 H 0.63771 0.84607 0.13555 0.0
C736 C 0.68654 0.79125 0.14966 0.0
C737 C 0.69936 0.7905 0.15361 0.0
C738 C 0.70053 0.78324 0.17142 0.0
C739 C 0.68877 0.77638 0.18556 0.0
C740 C 0.67629 0.77799 0.1823 0.0
C741 C 0.67522 0.78543 0.16458 0.0
C742 C 0.67751 0.78386 0.11485 0.0
C743 C 0.66324 0.77207 0.11856 0.0
C744 C 0.65848 0.75834 0.10914 0.0
C745 C 0.66778 0.75619 0.09561 0.0
C746 C 0.68138 0.76832 0.09019 0.0
C747 C 0.68622 0.78202 0.09986 0.0
C748 C 0.67968 0.80708 0.12979 0.0
C749 C 0.6882 0.82016 0.14122 0.0
C750 C 0.68426 0.83115 0.14209 0.0
C751 C 0.67182 0.82957 0.13111 0.0
C752 C 0.66338 0.81662 0.11931 0.0
C753 C 0.66725 0.80551 0.11859 0.0
C754 C 0.66019 0.88328 0.15796 0.0
C755 C 0.67432 0.89554 0.16059 0.0
C756 C 0.67748 0.90499 0.17773 0.0
C757 C 0.66657 0.90252 0.19246 0.0
C758 C 0.65271 0.88978 0.19047 0.0
C759 C 0.64958 0.88026 0.17334 0.0
C760 C 0.65559 0.88327 0.12057 0.0
C761 C 0.64279 0.88399 0.11627 0.0
C762 C 0.64287 0.89408 0.10163 0.0
C763 C 0.65584 0.90376 0.09099 0.0
C764 C 0.66849 0.90249 0.09446 0.0
C765 C 0.66838 0.89236 0.10912 0.0
C766 C 0.66013 0.86392 0.13581 0.0
C767 C 0.67496 0.86751 0.13481 0.0
C768 C 0.6787 0.8564 0.13282 0.0
C769 C 0.66774 0.84142 0.13209 0.0
C770 C 0.65291 0.8379 0.13289 0.0
C771 C 0.64919 0.84905 0.13467 0.0
H772 H 0.1143 0.7739 0.16102 0.0
N773 N 0.11203 0.79574 0.13984 0.0
H774 H 0.1033 0.76317 0.19456 0.0
H775 H 0.09889 0.80528 0.16606 0.0
H776 H 0.0879 0.79464 0.20014 0.0
H777 H 0.08936 0.79412 0.11854 0.0
H778 H 0.072 0.77386 0.09619 0.0
H779 H 0.1162 0.77351 0.12466 0.0
H780 H 0.09839 0.75259 0.10369 0.0
H781 H 0.1362 0.79274 0.14902 0.0
H782 H 0.12246 0.82228 0.12278 0.0
H783 H 0.1618 0.81196 0.14671 0.0
H784 H 0.14817 0.84142 0.11909 0.0
H785 H 0.23482 0.87008 0.16428 0.0
H786 H 0.24765 0.885 0.19512 0.0
H787 H 0.2254 0.91033 0.18588 0.0
H788 H 0.21353 0.89611 0.15457 0.0
H789 H 0.21211 0.89454 0.1172 0.0
H790 H 0.22896 0.91421 0.0938 0.0
H791 H 0.25772 0.89541 0.09429 0.0
H792 H 0.24083 0.87585 0.11775 0.0
H793 H 0.20781 0.84624 0.12825 0.0
H794 H 0.18219 0.82649 0.12588 0.0
H795 H 0.16795 0.85813 0.13954 0.0
N796 N 0.21791 0.87451 0.13711 0.0
H797 H 0.19334 0.87771 0.14054 0.0
C798 C 0.10749 0.79052 0.16098 0.0
C799 C 0.10888 0.77876 0.16953 0.0
C800 C 0.10256 0.77261 0.18885 0.0
C801 C 0.09466 0.778 0.20003 0.0
C802 C 0.09375 0.7901 0.19181 0.0
C803 C 0.10012 0.79628 0.17247 0.0
C804 C 0.10389 0.78522 0.12352 0.0
C805 C 0.09157 0.78527 0.1148 0.0
C806 C 0.08154 0.77353 0.10231 0.0
C807 C 0.08348 0.76128 0.09859 0.0
C808 C 0.09644 0.76176 0.10618 0.0
C809 C 0.10663 0.77369 0.11837 0.0
C810 C 0.12734 0.80616 0.13642 0.0
C811 C 0.13866 0.8033 0.1425 0.0
C812 C 0.15341 0.81435 0.14094 0.0
C813 C 0.15719 0.82842 0.13291 0.0
C814 C 0.14578 0.83092 0.12587 0.0
C815 C 0.13106 0.81994 0.12774 0.0
C816 C 0.223 0.8817 0.15722 0.0
C817 C 0.23251 0.87866 0.16924 0.0
C818 C 0.23982 0.88722 0.18689 0.0
C819 C 0.23768 0.899 0.193 0.0
C820 C 0.22757 0.90156 0.18148 0.0
C821 C 0.22046 0.89314 0.16367 0.0
C822 C 0.2253 0.88377 0.11936 0.0
C823 C 0.22182 0.89442 0.11186 0.0
C824 C 0.23152 0.90571 0.09855 0.0
C825 C 0.24478 0.90648 0.09239 0.0
C826 C 0.24758 0.89511 0.09857 0.0
C827 C 0.23794 0.8839 0.11196 0.0
C828 C 0.20262 0.86344 0.13483 0.0
C829 C 0.1991 0.84888 0.13051 0.0
C830 C 0.18443 0.83758 0.12935 0.0
C831 C 0.17287 0.84058 0.13271 0.0
C832 C 0.17646 0.85532 0.13659 0.0
C833 C 0.19113 0.86662 0.13745 0.0
H834 H 0.36941 0.24256 0.86414 0.0
N835 N 0.35009 0.21928 0.88575 0.0
H836 H 0.36476 0.25341 0.8328 0.0
H837 H 0.32455 0.20703 0.86239 0.0
H838 H 0.31986 0.21757 0.83082 0.0
H839 H 0.32534 0.22074 0.89549 0.0
H840 H 0.32406 0.23753 0.92066 0.0
H841 H 0.36958 0.23407 0.91599 0.0
H842 H 0.36811 0.25025 0.9424 0.0
H843 H 0.36741 0.20806 0.87773 0.0
H844 H 0.32369 0.19589 0.89792 0.0
H845 H 0.36127 0.18216 0.87878 0.0
H846 H 0.31745 0.16992 0.89939 0.0
H847 H 0.35197 0.12869 0.86096 0.0
H848 H 0.3587 0.123 0.82734 0.0
H849 H 0.3141 0.08745 0.81823 0.0
H850 H 0.30765 0.09284 0.85277 0.0
H851 H 0.30544 0.09413 0.90654 0.0
H852 H 0.30831 0.07715 0.93037 0.0
H853 H 0.35411 0.09702 0.91331 0.0
H854 H 0.3513 0.11423 0.89056 0.0
H855 H 0.35027 0.13619 0.89813 0.0
H856 H 0.35578 0.1617 0.90197 0.0
H857 H 0.31321 0.15014 0.87536 0.0
N858 N 0.32525 0.11342 0.88021 0.0
H859 H 0.30768 0.12449 0.87195 0.0
C860 C 0.34742 0.22399 0.86559 0.0
C861 C 0.35866 0.23692 0.85666 0.0
C862 C 0.35597 0.24308 0.83873 0.0
C863 C 0.3419 0.23641 0.82933 0.0
C864 C 0.33076 0.22311 0.83784 0.0
C865 C 0.33348 0.21697 0.85581 0.0
C866 C 0.34772 0.22635 0.90358 0.0
C867 C 0.33466 0.22698 0.90583 0.0
C868 C 0.33392 0.23659 0.92043 0.0
C869 C 0.3461 0.24557 0.93341 0.0
C870 C 0.35867 0.24391 0.93228 0.0
C871 C 0.35948 0.23449 0.91741 0.0
C872 C 0.34608 0.20393 0.88774 0.0
C873 C 0.35652 0.19977 0.88263 0.0
C874 C 0.353 0.18497 0.88338 0.0
C875 C 0.33887 0.17391 0.88926 0.0
C876 C 0.3284 0.17812 0.89462 0.0
C877 C 0.33197 0.19299 0.89389 0.0
C878 C 0.32924 0.11117 0.85944 0.0
C879 C 0.34359 0.1197 0.85178 0.0
C880 C 0.34741 0.11647 0.83236 0.0
C881 C 0.33694 0.10478 0.81989 0.0
C882 C 0.32251 0.0964 0.82746 0.0
C883 C 0.31875 0.09955 0.84707 0.0
C884 C 0.32803 0.10541 0.89661 0.0
C885 C 0.31617 0.09503 0.90842 0.0
C886 C 0.31781 0.08522 0.92181 0.0
C887 C 0.3314 0.08549 0.92355 0.0
C888 C 0.3435 0.09649 0.91258 0.0
C889 C 0.34187 0.10637 0.89936 0.0
C890 C 0.32847 0.12832 0.88475 0.0
C891 C 0.34201 0.13902 0.89339 0.0
C892 C 0.3452 0.1537 0.89544 0.0
C893 C 0.33498 0.15805 0.88887 0.0
C894 C 0.32129 0.14721 0.88083 0.0
C895 C 0.31812 0.13255 0.87879 0.0
H896 H 0.76517 0.11598 0.87833 0.0
N897 N 0.79112 0.11859 0.89335 0.0
H898 H 0.75386 0.1063 0.8439 0.0
H899 H 0.80257 0.11139 0.86138 0.0
H900 H 0.79153 0.10233 0.82646 0.0
H901 H 0.78266 0.09206 0.90933 0.0
H902 H 0.763 0.07842 0.9346 0.0
H903 H 0.77635 0.12976 0.91542 0.0
H904 H 0.7567 0.11621 0.94083 0.0
H905 H 0.79026 0.14337 0.88078 0.0
H906 H 0.81757 0.12813 0.9105 0.0
H907 H 0.811 0.16857 0.88042 0.0
H908 H 0.83825 0.15338 0.91114 0.0
H909 H 0.87437 0.23985 0.85918 0.0
H910 H 0.89049 0.2517 0.82913 0.0
H911 H 0.91123 0.22517 0.84021 0.0
H912 H 0.89581 0.2141 0.87047 0.0
H913 H 0.89393 0.21286 0.90751 0.0
H914 H 0.91424 0.22804 0.93148 0.0
H915 H 0.90116 0.26145 0.9305 0.0
H916 H 0.88097 0.24625 0.90628 0.0
H917 H 0.84881 0.21461 0.89574 0.0
H918 H 0.82749 0.18991 0.89983 0.0
H919 H 0.8551 0.17075 0.88735 0.0
N920 N 0.87631 0.22174 0.88709 0.0
H921 H 0.87622 0.19523 0.88425 0.0
C922 C 0.78466 0.11414 0.87261 0.0
C923 C 0.771 0.11297 0.86723 0.0
C924 C 0.76454 0.10747 0.84755 0.0
C925 C 0.77183 0.10353 0.8327 0.0
C926 C 0.78573 0.10532 0.83771 0.0
C927 C 0.79202 0.11046 0.85756 0.0
C928 C 0.78106 0.11192 0.91057 0.0
C929 C 0.77722 0.09748 0.91648 0.0
C930 C 0.76592 0.08968 0.93075 0.0
C931 C 0.75823 0.09621 0.93958 0.0
C932 C 0.7625 0.11093 0.9344 0.0
C933 C 0.77376 0.11871 0.91991 0.0
C934 C 0.80245 0.13383 0.89549 0.0
C935 C 0.80067 0.1455 0.88758 0.0
C936 C 0.81257 0.15996 0.88749 0.0
C937 C 0.82645 0.16308 0.89551 0.0
C938 C 0.82789 0.15142 0.90435 0.0
C939 C 0.81605 0.13698 0.90424 0.0
C940 C 0.88364 0.22594 0.86707 0.0
C941 C 0.88215 0.23635 0.85473 0.0
C942 C 0.89139 0.24311 0.83757 0.0
C943 C 0.90233 0.23955 0.83241 0.0
C944 C 0.90314 0.22841 0.84398 0.0
C945 C 0.89404 0.2218 0.8612 0.0
C946 C 0.88596 0.22849 0.90492 0.0
C947 C 0.89519 0.22327 0.91277 0.0
C948 C 0.90686 0.232 0.92645 0.0
C949 C 0.9094 0.24601 0.93271 0.0
C950 C 0.89945 0.25067 0.92612 0.0
C951 C 0.8879 0.242 0.9123 0.0
C952 C 0.86415 0.20692 0.88951 0.0
C953 C 0.85022 0.20504 0.89399 0.0
C954 C 0.83803 0.1909 0.89619 0.0
C955 C 0.83949 0.17824 0.89389 0.0
C956 C 0.85353 0.18018 0.88957 0.0
C957 C 0.86571 0.19432 0.88753 0.0
H958 H 0.78844 0.66598 0.85447 0.0
N959 N 0.79618 0.69026 0.87888 0.0
H960 H 0.77452 0.65998 0.8211 0.0
H961 H 0.78561 0.70574 0.85949 0.0
H962 H 0.77155 0.69977 0.82645 0.0
H963 H 0.77779 0.6623 0.89293 0.0
H964 H 0.75951 0.65538 0.92059 0.0
H965 H 0.79299 0.70826 0.90485 0.0
H966 H 0.77414 0.70164 0.93133 0.0
H967 H 0.82005 0.70884 0.85802 0.0
H968 H 0.80372 0.67161 0.90016 0.0
H969 H 0.84356 0.70941 0.85639 0.0
H970 H 0.8275 0.6727 0.89984 0.0
H971 H 0.92084 0.7091 0.85494 0.0
H972 H 0.92956 0.70175 0.82418 0.0
H973 H 0.88542 0.66606 0.81269 0.0
H974 H 0.877 0.67299 0.84367 0.0
H975 H 0.89104 0.66687 0.87688 0.0
H976 H 0.90313 0.6593 0.90348 0.0
H977 H 0.92036 0.70162 0.93399 0.0
H978 H 0.90875 0.70945 0.90675 0.0
H979 H 0.88875 0.71677 0.87082 0.0
H980 H 0.86506 0.71576 0.87411 0.0
H981 H 0.84388 0.66829 0.88112 0.0
N982 N 0.89442 0.69461 0.87237 0.0
H983 H 0.86786 0.66969 0.87934 0.0
C984 C 0.78816 0.68641 0.85923 0.0
C985 C 0.78483 0.6734 0.84834 0.0
C986 C 0.77689 0.67 0.82936 0.0
C987 C 0.77192 0.6794 0.82126 0.0
C988 C 0.77509 0.69225 0.83243 0.0
C989 C 0.78319 0.69573 0.85116 0.0
C990 C 0.78698 0.68584 0.89721 0.0
C991 C 0.77738 0.67091 0.90185 0.0
C992 C 0.76671 0.66699 0.91744 0.0
C993 C 0.76514 0.6779 0.9283 0.0
C994 C 0.77509 0.69284 0.92384 0.0
C995 C 0.78591 0.69671 0.90861 0.0
C996 C 0.81005 0.6903 0.87923 0.0
C997 C 0.82162 0.7009 0.86717 0.0
C998 C 0.83515 0.70128 0.86645 0.0
C999 C 0.83767 0.69121 0.87818 0.0
C1000 C 0.82603 0.68055 0.89035 0.0
C1001 C 0.81234 0.68 0.89072 0.0
C1002 C 0.8983 0.69168 0.85185 0.0
C1003 C 0.91301 0.69989 0.84548 0.0
C1004 C 0.91796 0.69568 0.82786 0.0
C1005 C 0.90824 0.68315 0.81612 0.0
C1006 C 0.8933 0.67555 0.82166 0.0
C1007 C 0.88839 0.67965 0.8394 0.0
C1008 C 0.8992 0.68888 0.88966 0.0
C1009 C 0.8973 0.67451 0.88934 0.0
C1010 C 0.90423 0.67019 0.9045 0.0
C1011 C 0.91276 0.67995 0.92058 0.0
C1012 C 0.91384 0.69392 0.9217 0.0
C1013 C 0.9072 0.69837 0.90625 0.0
C1014 C 0.8801 0.69335 0.87449 0.0
C1015 C 0.87897 0.70618 0.87315 0.0
C1016 C 0.86533 0.70552 0.87485 0.0
C1017 C 0.85234 0.6919 0.87755 0.0
C1018 C 0.85355 0.67902 0.87925 0.0
C1019 C 0.86729 0.67976 0.87799 0.0
H1020 H 0.75604 0.63298 0.49378 0.0
N1021 N 0.78082 0.64894 0.47289 0.0
H1022 H 0.74734 0.64059 0.52417 0.0
H1023 H 0.79771 0.67326 0.49786 0.0
H1024 H 0.78946 0.68055 0.52875 0.0
H1025 H 0.78362 0.67598 0.46392 0.0
H1026 H 0.76793 0.68061 0.4402 0.0
H1027 H 0.76209 0.63042 0.44439 0.0
H1028 H 0.74638 0.63503 0.42017 0.0
H1029 H 0.78986 0.62933 0.47752 0.0
H1030 H 0.80529 0.67477 0.46086 0.0
H1031 H 0.8148 0.63321 0.47394 0.0
H1032 H 0.83026 0.67897 0.45823 0.0
H1033 H 0.88295 0.64595 0.48542 0.0
H1034 H 0.89598 0.64314 0.51544 0.0
H1035 H 0.91502 0.68964 0.52925 0.0
H1036 H 0.90165 0.69232 0.4991 0.0
H1037 H 0.90961 0.69329 0.45217 0.0
H1038 H 0.92661 0.69028 0.42934 0.0
H1039 H 0.8965 0.64334 0.42659 0.0
H1040 H 0.8793 0.64656 0.44897 0.0
H1041 H 0.86269 0.65059 0.49378 0.0
H1042 H 0.8374 0.64475 0.49199 0.0
H1043 H 0.84724 0.67472 0.43966 0.0
N1044 N 0.88584 0.67194 0.47027 0.0
H1045 H 0.87307 0.68115 0.44207 0.0
C1046 C 0.77749 0.65243 0.49339 0.0
C1047 C 0.76349 0.64322 0.50167 0.0
C1048 C 0.75855 0.64761 0.51909 0.0
C1049 C 0.76761 0.66132 0.52881 0.0
C1050 C 0.78203 0.67009 0.52137 0.0
C1051 C 0.78687 0.6658 0.50374 0.0
C1052 C 0.77407 0.65279 0.45589 0.0
C1053 C 0.77588 0.66707 0.45397 0.0
C1054 C 0.76682 0.66971 0.44037 0.0
C1055 C 0.75576 0.65815 0.42843 0.0
C1056 C 0.75462 0.64412 0.42941 0.0
C1057 C 0.76369 0.64149 0.44303 0.0
C1058 C 0.79563 0.65169 0.46963 0.0
C1059 C 0.79865 0.64014 0.4731 0.0
C1060 C 0.81294 0.64244 0.47118 0.0
C1061 C 0.82467 0.65646 0.46595 0.0
C1062 C 0.82155 0.66797 0.46199 0.0
C1063 C 0.8072 0.6656 0.46368 0.0
C1064 C 0.89132 0.66941 0.48996 0.0
C1065 C 0.88973 0.65552 0.49502 0.0
C1066 C 0.89726 0.65394 0.51218 0.0
C1067 C 0.90671 0.66621 0.52455 0.0
C1068 C 0.90775 0.67995 0.52011 0.0
C1069 C 0.90014 0.68151 0.50292 0.0
C1070 C 0.89332 0.67018 0.4525 0.0
C1071 C 0.90643 0.68245 0.44594 0.0
C1072 C 0.91614 0.68069 0.43295 0.0
C1073 C 0.91298 0.66654 0.42642 0.0
C1074 C 0.8993 0.65435 0.43162 0.0
C1075 C 0.88945 0.65618 0.44436 0.0
C1076 C 0.87014 0.66641 0.4679 0.0
C1077 C 0.85965 0.65586 0.48159 0.0
C1078 C 0.84492 0.6524 0.48053 0.0
C1079 C 0.84015 0.65927 0.46573 0.0
C1080 C 0.85049 0.66937 0.45153 0.0
C1081 C 0.86527 0.67293 0.45272 0.0
H1082 H 0.32461 0.12213 0.48619 0.0
N1083 N 0.34595 0.1283 0.45686 0.0
H1084 H 0.32245 0.11061 0.52032 0.0
H1085 H 0.3649 0.12151 0.4749 0.0
H1086 H 0.36282 0.10992 0.50931 0.0
H1087 H 0.31661 0.10827 0.45306 0.0
H1088 H 0.30678 0.08439 0.43552 0.0
H1089 H 0.35916 0.12201 0.42647 0.0
H1090 H 0.34931 0.09818 0.40855 0.0
H1091 H 0.36977 0.15434 0.4527 0.0
H1092 H 0.32259 0.13356 0.45584 0.0
H1093 H 0.37163 0.1786 0.45436 0.0
H1094 H 0.3243 0.15772 0.45917 0.0
H1095 H 0.32985 0.21154 0.49497 0.0
H1096 H 0.32321 0.21855 0.52823 0.0
H1097 H 0.36518 0.25872 0.52953 0.0
H1098 H 0.37181 0.25154 0.49656 0.0
H1099 H 0.32935 0.22655 0.46169 0.0
H1100 H 0.32633 0.24277 0.43678 0.0
H1101 H 0.37235 0.26286 0.42096 0.0
H1102 H 0.37532 0.24678 0.44651 0.0
H1103 H 0.37268 0.21768 0.48592 0.0
H1104 H 0.36975 0.19327 0.48006 0.0
H1105 H 0.32954 0.18074 0.44509 0.0
N1106 N 0.35531 0.22801 0.47308 0.0
H1107 H 0.33217 0.20495 0.45222 0.0
C1108 C 0.34508 0.12289 0.47801 0.0
C1109 C 0.33315 0.11978 0.49113 0.0
C1110 C 0.33189 0.11313 0.5107 0.0
C1111 C 0.34242 0.1093 0.51744 0.0
C1112 C 0.35443 0.11258 0.50442 0.0
C1113 C 0.35573 0.11933 0.48491 0.0
C1114 C 0.33872 0.11691 0.44124 0.0
C1115 C 0.32369 0.10646 0.44268 0.0
C1116 C 0.31808 0.09275 0.43274 0.0
C1117 C 0.32735 0.08937 0.42095 0.0
C1118 C 0.3419 0.10049 0.41746 0.0
C1119 C 0.34754 0.11413 0.42763 0.0
C1120 C 0.34613 0.14216 0.45449 0.0
C1121 C 0.3598 0.15506 0.45363 0.0
C1122 C 0.36082 0.16892 0.45493 0.0
C1123 C 0.34815 0.17022 0.45757 0.0
C1124 C 0.33432 0.15724 0.45721 0.0
C1125 C 0.33331 0.14333 0.45549 0.0
C1126 C 0.35144 0.23099 0.49346 0.0
C1127 C 0.3377 0.22172 0.50261 0.0
C1128 C 0.3339 0.22575 0.52154 0.0
C1129 C 0.34364 0.23923 0.53134 0.0
C1130 C 0.35739 0.24837 0.5222 0.0
C1131 C 0.36125 0.24423 0.50352 0.0
C1132 C 0.35261 0.23552 0.45595 0.0
C1133 C 0.33872 0.23424 0.45257 0.0
C1134 C 0.33701 0.24352 0.43824 0.0
C1135 C 0.34914 0.25423 0.42697 0.0
C1136 C 0.36284 0.25492 0.42963 0.0
C1137 C 0.36454 0.24565 0.44402 0.0
C1138 C 0.35283 0.21328 0.46933 0.0
C1139 C 0.36322 0.20963 0.47705 0.0
C1140 C 0.36158 0.19568 0.47343 0.0
C1141 C 0.34954 0.185 0.46167 0.0
C1142 C 0.33893 0.1886 0.45424 0.0
C1143 C 0.34049 0.20255 0.45817 0.0
H1144 H 0.78622 0.10522 0.49169 0.0
N1145 N 0.77785 0.12595 0.48378 0.0
H1146 H 0.78029 0.08958 0.52271 0.0
H1147 H 0.76505 0.12773 0.51863 0.0
H1148 H 0.75946 0.11241 0.55025 0.0
H1149 H 0.75021 0.11511 0.47064 0.0
H1150 H 0.73779 0.09788 0.4415 0.0
H1151 H 0.79076 0.11606 0.45549 0.0
H1152 H 0.77853 0.09887 0.42682 0.0
H1153 H 0.80583 0.12967 0.48368 0.0
H1154 H 0.78118 0.15272 0.47918 0.0
H1155 H 0.82867 0.15282 0.47906 0.0
H1156 H 0.804 0.17614 0.4761 0.0
H1157 H 0.89278 0.22183 0.49486 0.0
H1158 H 0.90544 0.23277 0.52798 0.0
H1159 H 0.87405 0.24743 0.54016 0.0
H1160 H 0.86179 0.23687 0.50653 0.0
H1161 H 0.87958 0.25062 0.46061 0.0
H1162 H 0.89934 0.26308 0.43507 0.0
H1163 H 0.90366 0.22399 0.43109 0.0
H1164 H 0.8839 0.21163 0.45681 0.0
H1165 H 0.86751 0.19871 0.49462 0.0
H1166 H 0.84543 0.17463 0.49521 0.0
H1167 H 0.82333 0.19131 0.45478 0.0
N1168 N 0.86991 0.22414 0.4775 0.0
H1169 H 0.84522 0.2157 0.45571 0.0
C1170 C 0.77602 0.11766 0.50283 0.0
C1171 C 0.78052 0.10699 0.50445 0.0
C1172 C 0.77715 0.09806 0.5223 0.0
C1173 C 0.7693 0.09964 0.53899 0.0
C1174 C 0.76526 0.11068 0.53756 0.0
C1175 C 0.76858 0.11955 0.51964 0.0
C1176 C 0.77143 0.11705 0.46521 0.0
C1177 C 0.75647 0.11177 0.46086 0.0
C1178 C 0.74938 0.10183 0.44436 0.0
C1179 C 0.75717 0.09701 0.43182 0.0
C1180 C 0.77225 0.10254 0.43594 0.0
C1181 C 0.7793 0.11242 0.45246 0.0
C1182 C 0.7917 0.13942 0.48145 0.0
C1183 C 0.8053 0.13971 0.48167 0.0
C1184 C 0.81845 0.15307 0.47927 0.0
C1185 C 0.81834 0.1665 0.47707 0.0
C1186 C 0.80465 0.16609 0.47716 0.0
C1187 C 0.79154 0.15272 0.47915 0.0
C1188 C 0.87644 0.22875 0.49813 0.0
C1189 C 0.88856 0.22729 0.50474 0.0
C1190 C 0.89572 0.23346 0.52379 0.0
C1191 C 0.89087 0.24113 0.53663 0.0
C1192 C 0.87826 0.24186 0.53045 0.0
C1193 C 0.87117 0.23575 0.51136 0.0
C1194 C 0.88018 0.2302 0.46043 0.0
C1195 C 0.88464 0.24468 0.45394 0.0
C1196 C 0.89601 0.25181 0.43954 0.0
C1197 C 0.90312 0.24455 0.43119 0.0
C1198 C 0.89832 0.22983 0.43716 0.0
C1199 C 0.88701 0.22274 0.45179 0.0
C1200 C 0.85792 0.20918 0.47547 0.0
C1201 C 0.85794 0.19722 0.48587 0.0
C1202 C 0.84525 0.18331 0.48602 0.0
C1203 C 0.83235 0.18093 0.47536 0.0
C1204 C 0.83279 0.19273 0.46379 0.0
C1205 C 0.84538 0.20667 0.46403 0.0
H1206 H 0.01122 0.56891 0.20534 0.0
N1207 N 0.98774 0.54585 0.22455 0.0
H1208 H 0.01071 0.58031 0.17192 0.0
H1209 H 0.96571 0.53597 0.19677 0.0
H1210 H 0.9652 0.5469 0.16284 0.0
H1211 H 0.97554 0.56166 0.23694 0.0
H1212 H 0.98648 0.58377 0.25882 0.0
H1213 H 0.01315 0.55593 0.24907 0.0
H1214 H 0.02363 0.57732 0.27174 0.0
H1215 H 0.01363 0.54703 0.21391 0.0
H1216 H 0.96983 0.51808 0.23611 0.0
H1217 H 0.01864 0.52658 0.21361 0.0
H1218 H 0.97428 0.49715 0.23444 0.0
H1219 H 0.02905 0.45874 0.19472 0.0
H1220 H 0.02484 0.4442 0.16273 0.0
H1221 H 0.97949 0.43418 0.16132 0.0
H1222 H 0.98387 0.44883 0.19342 0.0
H1223 H 0.98331 0.43735 0.22706 0.0
H1224 H 0.98092 0.41708 0.24904 0.0
H1225 H 0.02654 0.44335 0.26804 0.0
H1226 H 0.02901 0.46311 0.24463 0.0
H1227 H 0.01937 0.48587 0.19288 0.0
H1228 H 0.01397 0.50598 0.19503 0.0
H1229 H 0.98575 0.48466 0.2481 0.0
N1230 N 0.00932 0.46185 0.21669 0.0
H1231 H 0.99036 0.46403 0.2448 0.0
C1232 C 0.98838 0.55168 0.20367 0.0
C1233 C 1.00119 0.56395 0.19604 0.0
C1234 C 1.00089 0.57042 0.17683 0.0
C1235 C 0.98785 0.56467 0.16476 0.0
C1236 C 0.97533 0.55186 0.17193 0.0
C1237 C 0.97561 0.5455 0.19121 0.0
C1238 C 0.99347 0.5571 0.24083 0.0
C1239 C 0.98596 0.56493 0.24474 0.0
C1240 C 0.99224 0.57757 0.25738 0.0
C1241 C 0.00614 0.58261 0.26682 0.0
C1242 C 0.01315 0.57413 0.26418 0.0
C1243 C 0.00702 0.56166 0.25119 0.0
C1244 C 0.99139 0.53414 0.22541 0.0
C1245 C 0.00508 0.53624 0.21879 0.0
C1246 C 0.00784 0.5244 0.21834 0.0
C1247 C 0.99684 0.51001 0.2238 0.0
C1248 C 0.98316 0.50801 0.23046 0.0
C1249 C 0.98053 0.51996 0.23134 0.0
C1250 C 0.00682 0.45483 0.19641 0.0
C1251 C 0.01829 0.45362 0.18725 0.0
C1252 C 0.01585 0.44533 0.16898 0.0
C1253 C 1.00181 0.43799 0.15954 0.0
C1254 C 0.99038 0.43958 0.16838 0.0
C1255 C 0.99288 0.44799 0.18662 0.0
C1256 C 0.00648 0.45167 0.23387 0.0
C1257 C 0.99274 0.43882 0.23616 0.0
C1258 C 0.99137 0.42722 0.24892 0.0
C1259 C 0.00364 0.42833 0.25998 0.0
C1260 C 0.01697 0.44182 0.25921 0.0
C1261 C 0.01837 0.45328 0.24614 0.0
C1262 C 0.00526 0.47326 0.21843 0.0
C1263 C 0.01185 0.48542 0.20481 0.0
C1264 C 0.0089 0.49708 0.2063 0.0
C1265 C 0.99954 0.49719 0.22195 0.0
C1266 C 0.99287 0.48497 0.23565 0.0
C1267 C 0.9956 0.4731 0.23385 0.0
H1268 H 0.58492 0.54864 0.20305 0.0
N1269 N 0.56069 0.54546 0.22108 0.0
H1270 H 0.59372 0.55753 0.16745 0.0
H1271 H 0.54673 0.55327 0.19107 0.0
H1272 H 0.55547 0.56237 0.15586 0.0
H1273 H 0.55876 0.57082 0.22043 0.0
H1274 H 0.57107 0.59157 0.24492 0.0
H1275 H 0.57389 0.54593 0.25728 0.0
H1276 H 0.58566 0.56648 0.28241 0.0
H1277 H 0.55603 0.51834 0.22736 0.0
H1278 H 0.53358 0.5435 0.22192 0.0
H1279 H 0.53253 0.49561 0.23036 0.0
H1280 H 0.50983 0.5207 0.22315 0.0
H1281 H 0.45706 0.42524 0.20591 0.0
H1282 H 0.44534 0.416 0.1716 0.0
H1283 H 0.44564 0.45714 0.16029 0.0
H1284 H 0.45785 0.46642 0.19432 0.0
H1285 H 0.4446 0.4612 0.22704 0.0
H1286 H 0.42173 0.44924 0.24668 0.0
H1287 H 0.43445 0.41904 0.27384 0.0
H1288 H 0.4575 0.43125 0.25423 0.0
H1289 H 0.49002 0.45634 0.20956 0.0
H1290 H 0.51312 0.47949 0.20968 0.0
H1291 H 0.49223 0.50054 0.24215 0.0
N1292 N 0.46414 0.45098 0.22364 0.0
H1293 H 0.46894 0.47755 0.24076 0.0
C1294 C 0.56516 0.55017 0.19974 0.0
C1295 C 0.57842 0.55151 0.1927 0.0
C1296 C 0.58346 0.5567 0.17244 0.0
C1297 C 0.5753 0.56066 0.15876 0.0
C1298 C 0.56193 0.55919 0.16582 0.0
C1299 C 0.55691 0.554 0.18607 0.0
C1300 C 0.56566 0.55688 0.23683 0.0
C1301 C 0.56451 0.56969 0.23392 0.0
C1302 C 0.57152 0.58155 0.24794 0.0
C1303 C 0.57935 0.5806 0.26542 0.0
C1304 C 0.57964 0.56744 0.26907 0.0
C1305 C 0.57295 0.55574 0.25478 0.0
C1306 C 0.54655 0.53251 0.22398 0.0
C1307 C 0.54595 0.51889 0.22664 0.0
C1308 C 0.53246 0.50589 0.22811 0.0
C1309 C 0.51912 0.50614 0.22649 0.0
C1310 C 0.51978 0.51997 0.22451 0.0
C1311 C 0.53337 0.53304 0.22349 0.0
C1312 C 0.45832 0.44645 0.20263 0.0
C1313 C 0.45473 0.43228 0.19586 0.0
C1314 C 0.44789 0.42699 0.17636 0.0
C1315 C 0.44439 0.43576 0.16322 0.0
C1316 C 0.44827 0.45012 0.16989 0.0
C1317 C 0.45519 0.45543 0.18939 0.0
C1318 C 0.45282 0.44709 0.23913 0.0
C1319 C 0.44277 0.45238 0.23778 0.0
C1320 C 0.42962 0.44544 0.24893 0.0
C1321 C 0.42618 0.43304 0.26154 0.0
C1322 C 0.4368 0.42861 0.26435 0.0
C1323 C 0.44999 0.43558 0.25318 0.0
C1324 C 0.47765 0.465 0.22512 0.0
C1325 C 0.49042 0.46596 0.21671 0.0
C1326 C 0.50371 0.47925 0.217 0.0
C1327 C 0.50473 0.49201 0.22617 0.0
C1328 C 0.49191 0.49106 0.23472 0.0
C1329 C 0.47849 0.47775 0.23407 0.0
H1330 H 0.54216 0.98785 0.20139 0.0
N1331 N 0.55696 0.01456 0.22123 0.0
H1332 H 0.54913 0.98086 0.16892 0.0
H1333 H 0.57835 0.03213 0.19536 0.0
H1334 H 0.58471 0.02574 0.16164 0.0
H1335 H 0.57503 0.0336 0.24989 0.0
H1336 H 0.58929 0.0291 0.27714 0.0
H1337 H 0.5534 0.9875 0.23293 0.0
H1338 H 0.56803 0.98321 0.25929 0.0
H1339 H 0.53157 0.99121 0.23649 0.0
H1340 H 0.55004 0.03498 0.21052 0.0
H1341 H 0.5076 0.9899 0.23916 0.0
H1342 H 0.52611 0.03361 0.21216 0.0
H1343 H 0.44314 0.98515 0.20047 0.0
H1344 H 0.43201 0.98218 0.16537 0.0
H1345 H 0.44961 0.02932 0.1614 0.0
H1346 H 0.46122 0.03225 0.1962 0.0
H1347 H 0.45344 0.03049 0.23885 0.0
H1348 H 0.43453 0.02583 0.26452 0.0
H1349 H 0.42415 0.98019 0.26859 0.0
H1350 H 0.44279 0.985 0.24191 0.0
H1351 H 0.46364 0.98719 0.21806 0.0
H1352 H 0.48724 0.98764 0.21931 0.0
H1353 H 0.50899 0.03412 0.23485 0.0
N1354 N 0.45944 0.01103 0.22152 0.0
H1355 H 0.4854 0.03363 0.23229 0.0
C1356 C 0.55993 0.01048 0.20098 0.0
C1357 C 0.55156 0.99612 0.19292 0.0
C1358 C 0.55548 0.99221 0.17406 0.0
C1359 C 0.56758 0.00269 0.16238 0.0
C1360 C 0.57559 0.01721 0.17025 0.0
C1361 C 0.57187 0.02098 0.18942 0.0
C1362 C 0.5633 0.01102 0.23911 0.0
C1363 C 0.57318 0.0225 0.25225 0.0
C1364 C 0.58129 0.01994 0.26774 0.0
C1365 C 0.57978 0.00584 0.27008 0.0
C1366 C 0.56941 0.99418 0.25764 0.0
C1367 C 0.56107 0.99668 0.24249 0.0
C1368 C 0.54268 0.01334 0.22355 0.0
C1369 C 0.53048 1.00056 0.23141 0.0
C1370 C 0.51672 0.99979 0.23275 0.0
C1371 C 0.51483 0.0117 0.22605 0.0
C1372 C 0.52711 0.02436 0.21802 0.0
C1373 C 0.54081 0.02515 0.21689 0.0
C1374 C 0.45329 0.00898 0.20066 0.0
C1375 C 0.4449 0.99486 0.19184 0.0
C1376 C 0.43847 0.99317 0.17189 0.0
C1377 C 0.43998 0.00554 0.16074 0.0
C1378 C 0.44824 0.01962 0.16972 0.0
C1379 C 0.45493 0.02132 0.18945 0.0
C1380 C 0.44958 0.00816 0.23869 0.0
C1381 C 0.44721 0.01955 0.24557 0.0
C1382 C 0.43641 0.01683 0.26036 0.0
C1383 C 0.42775 0.00261 0.26886 0.0
C1384 C 0.43043 0.99124 0.26227 0.0
C1385 C 0.4412 0.99397 0.24721 0.0
C1386 C 0.47283 0.01048 0.22472 0.0
C1387 C 0.47348 0.99746 0.22171 0.0
C1388 C 0.48703 0.99772 0.22265 0.0
C1389 C 0.50017 0.01097 0.22687 0.0
C1390 C 0.49924 0.02378 0.23096 0.0
C1391 C 0.48575 0.02353 0.22974 0.0
H1392 H 0.42088 0.96331 0.81089 0.0
N1393 N 0.44718 0.98372 0.79817 0.0
H1394 H 0.40885 0.96252 0.84387 0.0
H1395 H 0.45997 0.00245 0.83155 0.0
H1396 H 0.44826 1.0015 0.86513 0.0
H1397 H 0.45405 0.01269 0.79898 0.0
H1398 H 0.44502 0.02473 0.77463 0.0
H1399 H 0.43037 0.97204 0.76419 0.0
H1400 H 0.42088 0.98398 0.74 0.0
H1401 H 0.45329 0.96195 0.80161 0.0
H1402 H 0.474 0.00902 0.7925 0.0
H1403 H 0.4772 0.96328 0.79981 0.0
H1404 H 0.49779 0.01038 0.78934 0.0
H1405 H 0.56818 0.01152 0.81016 0.0
H1406 H 0.57993 0.0172 0.84497 0.0
H1407 H 0.54576 0.97538 0.86816 0.0
H1408 H 0.53434 0.96937 0.83296 0.0
H1409 H 0.55646 0.00968 0.77222 0.0
H1410 H 0.57657 0.01561 0.74758 0.0
H1411 H 0.57442 0.97402 0.76217 0.0
H1412 H 0.55443 0.96826 0.78669 0.0
H1413 H 0.51894 0.96591 0.77969 0.0
H1414 H 0.4958 0.96631 0.77743 0.0
H1415 H 0.51678 0.00924 0.8073 0.0
N1416 N 0.54384 0.98557 0.7982 0.0
H1417 H 0.54005 0.00909 0.80805 0.0
C1418 C 0.4413 0.98281 0.81884 0.0
C1419 C 0.42696 0.97154 0.82283 0.0
C1420 C 0.42014 0.9711 0.84176 0.0
C1421 C 0.42757 0.98192 0.85731 0.0
C1422 C 0.44213 0.99309 0.85345 0.0
C1423 C 0.44892 0.99357 0.83435 0.0
C1424 C 0.44316 0.99152 0.78305 0.0
C1425 C 0.44715 0.00643 0.78585 0.0
C1426 C 0.4419 0.01327 0.77202 0.0
C1427 C 0.43228 0.00527 0.75545 0.0
C1428 C 0.42825 0.99037 0.75269 0.0
C1429 C 0.43375 0.9836 0.76632 0.0
C1430 C 0.46168 0.98525 0.79696 0.0
C1431 C 0.46299 0.97255 0.79896 0.0
C1432 C 0.47671 0.97335 0.79768 0.0
C1433 C 0.48956 0.98693 0.79406 0.0
C1434 C 0.48824 0.99973 0.79226 0.0
C1435 C 0.4745 0.99894 0.79389 0.0
C1436 C 0.55049 0.98981 0.81885 0.0
C1437 C 0.56323 0.00349 0.82261 0.0
C1438 C 0.56992 0.00678 0.8425 0.0
C1439 C 0.56373 0.99669 0.85907 0.0
C1440 C 0.55068 0.98333 0.85556 0.0
C1441 C 0.5442 0.97988 0.83556 0.0
C1442 C 0.55393 0.98846 0.7812 0.0
C1443 C 0.5601 1.00172 0.76969 0.0
C1444 C 0.5716 0.00509 0.75567 0.0
C1445 C 0.57718 0.99534 0.75311 0.0
C1446 C 0.57052 0.98185 0.76401 0.0
C1447 C 0.55902 0.97847 0.77786 0.0
C1448 C 0.53114 0.98731 0.79426 0.0
C1449 C 0.51857 0.97553 0.78528 0.0
C1450 C 0.50529 0.97572 0.78433 0.0
C1451 C 0.50419 0.98764 0.79271 0.0
C1452 C 0.51709 0.99986 0.80064 0.0
C1453 C 0.53046 0.99977 0.80121 0.0
H1454 H 0.99008 0.54456 0.83655 0.0
N1455 N 0.01419 0.55219 0.81208 0.0
H1456 H 0.98932 0.55872 0.86674 0.0
H1457 H 0.03708 0.57235 0.83359 0.0
H1458 H 0.03659 0.58607 0.86432 0.0
H1459 H 0.03395 0.56931 0.78395 0.0
H1460 H 0.03196 0.58636 0.75914 0.0
H1461 H 0.989 0.55306 0.80234 0.0
H1462 H 0.98698 0.57008 0.77807 0.0
H1463 H 0.98687 0.5299 0.79982 0.0
H1464 H 0.03011 0.53928 0.82004 0.0
H1465 H 0.97963 0.504 0.79532 0.0
H1466 H 0.02274 0.51317 0.81686 0.0
H1467 H 0.96136 0.42042 0.81872 0.0
H1468 H 0.96119 0.40933 0.85312 0.0
H1469 H 0.00519 0.44468 0.86569 0.0
H1470 H 0.00532 0.45583 0.83158 0.0
H1471 H 0.0091 0.44337 0.80141 0.0
H1472 H 0.0151 0.42922 0.77685 0.0
H1473 H 0.97585 0.41845 0.74078 0.0
H1474 H 0.96956 0.43223 0.76592 0.0
H1475 H 0.96646 0.45615 0.81066 0.0
H1476 H 0.97354 0.4822 0.81317 0.0
H1477 H 0.01746 0.49409 0.79326 0.0
N1478 N 0.98334 0.44455 0.80182 0.0
H1479 H 0.01045 0.46805 0.79204 0.0
C1480 C 0.01365 0.55765 0.83262 0.0
C1481 C 1.00027 0.55347 0.84275 0.0
C1482 C 0.99987 0.56152 0.86009 0.0
C1483 C 0.01286 0.57377 0.86762 0.0
C1484 C 0.02634 0.57698 0.85856 0.0
C1485 C 0.02669 0.56906 0.84117 0.0
C1486 C 0.01167 0.55983 0.79493 0.0
C1487 C 0.02355 0.56915 0.78224 0.0
C1488 C 0.02244 0.57899 0.76828 0.0
C1489 C 0.00935 0.57969 0.76676 0.0
C1490 C 0.99717 0.56974 0.77864 0.0
C1491 C 0.99832 0.55994 0.79261 0.0
C1492 C 0.00917 0.53664 0.81003 0.0
C1493 C 0.99482 0.52642 0.8034 0.0
C1494 C 0.99064 0.51148 0.80101 0.0
C1495 C 1.00059 0.50637 0.80559 0.0
C1496 C 0.01484 0.51665 0.81265 0.0
C1497 C 0.01906 0.53158 0.81472 0.0
C1498 C 0.98328 0.43892 0.82261 0.0
C1499 C 0.97088 0.42583 0.82902 0.0
C1500 C 0.9708 0.41953 0.84851 0.0
C1501 C 0.98319 0.42622 0.86176 0.0
C1502 C 0.99555 0.4394 0.85557 0.0
C1503 C 0.99559 0.44576 0.83616 0.0
C1504 C 0.98867 0.43869 0.78569 0.0
C1505 C 1.0018 0.4381 0.78819 0.0
C1506 C 0.00525 0.42999 0.77415 0.0
C1507 C 0.99588 0.42266 0.75706 0.0
C1508 C 0.98329 0.42405 0.7538 0.0
C1509 C 0.9797 0.43192 0.76808 0.0
C1510 C 0.9878 0.46007 0.80099 0.0
C1511 C 0.97758 0.46442 0.80667 0.0
C1512 C 0.98166 0.47935 0.80798 0.0
C1513 C 0.99611 0.49039 0.80341 0.0
C1514 C 0.0063 0.48598 0.79727 0.0
C1515 C 1.00224 0.47101 0.79627 0.0
H1516 H 0.46383 0.43647 0.83446 0.0
N1517 N 0.45954 0.45263 0.80585 0.0
H1518 H 0.44933 0.42519 0.86587 0.0
H1519 H 0.43878 0.45845 0.82213 0.0
H1520 H 0.42497 0.4482 0.85418 0.0
H1521 H 0.4403 0.45835 0.7837 0.0
H1522 H 0.42136 0.44142 0.759 0.0
H1523 H 0.45725 0.42827 0.78955 0.0
H1524 H 0.43829 0.41113 0.76542 0.0
H1525 H 0.4872 0.46089 0.79651 0.0
H1526 H 0.45803 0.47824 0.80761 0.0
H1527 H 0.50778 0.48597 0.79254 0.0
H1528 H 0.47854 0.50328 0.80501 0.0
H1529 H 0.56657 0.55533 0.81634 0.0
H1530 H 0.58037 0.56732 0.84836 0.0
H1531 H 0.5486 0.58107 0.86274 0.0
H1532 H 0.53501 0.56921 0.83039 0.0
H1533 H 0.55979 0.58555 0.79297 0.0
H1534 H 0.57977 0.59744 0.76869 0.0
H1535 H 0.5686 0.5547 0.74267 0.0
H1536 H 0.54988 0.54288 0.76913 0.0
H1537 H 0.54397 0.53196 0.81216 0.0
H1538 H 0.5235 0.50678 0.81214 0.0
H1539 H 0.4956 0.52197 0.78347 0.0
N1540 N 0.54298 0.55689 0.80043 0.0
H1541 H 0.51607 0.54734 0.7848 0.0
C1542 C 0.45263 0.4485 0.82611 0.0
C1543 C 0.45555 0.43928 0.83899 0.0
C1544 C 0.44724 0.43287 0.857 0.0
C1545 C 0.43585 0.43568 0.86267 0.0
C1546 C 0.43343 0.44552 0.85019 0.0
C1547 C 0.44158 0.4517 0.83198 0.0
C1548 C 0.45022 0.44454 0.78837 0.0
C1549 C 0.44013 0.44824 0.77933 0.0
C1550 C 0.42922 0.43846 0.76537 0.0
C1551 C 0.42818 0.42481 0.76027 0.0
C1552 C 0.43881 0.42158 0.76863 0.0
C1553 C 0.44968 0.43135 0.78247 0.0
C1554 C 0.47112 0.46762 0.80263 0.0
C1555 C 0.48526 0.47014 0.79817 0.0
C1556 C 0.49704 0.48452 0.79611 0.0
C1557 C 0.49497 0.4968 0.7987 0.0
C1558 C 0.48063 0.49419 0.80268 0.0
C1559 C 0.46882 0.47977 0.80445 0.0
C1560 C 0.54973 0.56139 0.82101 0.0
C1561 C 0.56237 0.56058 0.82669 0.0
C1562 C 0.57027 0.56747 0.845 0.0
C1563 C 0.56569 0.57532 0.858 0.0
C1564 C 0.55257 0.57536 0.85287 0.0
C1565 C 0.5447 0.56846 0.83456 0.0
C1566 C 0.55334 0.56331 0.78333 0.0
C1567 C 0.56168 0.57874 0.78202 0.0
C1568 C 0.57311 0.58558 0.7677 0.0
C1569 C 0.57618 0.57723 0.75327 0.0
C1570 C 0.56716 0.5617 0.75376 0.0
C1571 C 0.55611 0.55481 0.76885 0.0
C1572 C 0.53149 0.54164 0.7988 0.0
C1573 C 0.53346 0.52991 0.80595 0.0
C1574 C 0.5217 0.51541 0.80569 0.0
C1575 C 0.50774 0.51221 0.79793 0.0
C1576 C 0.50603 0.52395 0.79003 0.0
C1577 C 0.51775 0.53847 0.79056 0.0
H1578 H 0.68431 0.89949 0.53706 0.0
N1579 N 0.6559 0.8789 0.54633 0.0
H1580 H 0.69273 0.91456 0.50546 0.0
H1581 H 0.64001 0.87718 0.51236 0.0
H1582 H 0.64842 0.89202 0.48018 0.0
H1583 H 0.63981 0.89006 0.5612 0.0
H1584 H 0.64587 0.90744 0.59039 0.0
H1585 H 0.67964 0.8884 0.57301 0.0
H1586 H 0.68597 0.90597 0.60187 0.0
H1587 H 0.67927 0.87413 0.53998 0.0
H1588 H 0.63359 0.85289 0.55716 0.0
H1589 H 0.67852 0.85033 0.54048 0.0
H1590 H 0.63285 0.82906 0.5586 0.0
H1591 H 0.67986 0.79516 0.52535 0.0
H1592 H 0.68839 0.78897 0.49357 0.0
H1593 H 0.64358 0.75602 0.47825 0.0
H1594 H 0.63541 0.76166 0.51107 0.0
H1595 H 0.63032 0.75894 0.56182 0.0
H1596 H 0.63239 0.74187 0.5864 0.0
H1597 H 0.67976 0.76712 0.58187 0.0
H1598 H 0.67754 0.78438 0.55831 0.0
H1599 H 0.67512 0.80595 0.55721 0.0
H1600 H 0.67653 0.83001 0.56093 0.0
H1601 H 0.63266 0.81172 0.53461 0.0
N1602 N 0.65189 0.78079 0.54065 0.0
H1603 H 0.63127 0.78771 0.53161 0.0
C1604 C 0.66146 0.88715 0.52709 0.0
C1605 C 0.6764 0.89768 0.52472 0.0
C1606 C 0.68122 0.90628 0.50652 0.0
C1607 C 0.67126 0.90454 0.49023 0.0
C1608 C 0.65637 0.89381 0.49251 0.0
C1609 C 0.65155 0.88522 0.51077 0.0
C1610 C 0.65917 0.88785 0.56499 0.0
C1611 C 0.64978 0.89333 0.57028 0.0
C1612 C 0.65334 0.90337 0.58681 0.0
C1613 C 0.66644 0.90818 0.59844 0.0
C1614 C 0.6757 0.90238 0.59343 0.0
C1615 C 0.67211 0.89233 0.57687 0.0
C1616 C 0.65635 0.86528 0.5482 0.0
C1617 C 0.66909 0.86439 0.54407 0.0
C1618 C 0.66868 0.85071 0.54455 0.0
C1619 C 0.65557 0.83766 0.54935 0.0
C1620 C 0.64306 0.83877 0.55434 0.0
C1621 C 0.64346 0.85239 0.5537 0.0
C1622 C 0.65699 0.7787 0.5207 0.0
C1623 C 0.67189 0.78658 0.51521 0.0
C1624 C 0.67672 0.78311 0.49679 0.0
C1625 C 0.66672 0.77188 0.48322 0.0
C1626 C 0.6517 0.76446 0.48845 0.0
C1627 C 0.64695 0.76778 0.50706 0.0
C1628 C 0.6537 0.77289 0.55809 0.0
C1629 C 0.64114 0.76099 0.56667 0.0
C1630 C 0.64237 0.75114 0.58048 0.0
C1631 C 0.65625 0.75289 0.58586 0.0
C1632 C 0.66888 0.7654 0.57826 0.0
C1633 C 0.66762 0.77532 0.56461 0.0
C1634 C 0.65298 0.79496 0.54428 0.0
C1635 C 0.66576 0.80708 0.55249 0.0
C1636 C 0.66658 0.8209 0.55445 0.0
C1637 C 0.65469 0.82289 0.54816 0.0
C1638 C 0.64193 0.81064 0.54007 0.0
C1639 C 0.64112 0.79689 0.53821 0.0
H1640 H 0.23727 0.89087 0.54467 0.0
N1641 N 0.21454 0.8942 0.55954 0.0
H1642 H 0.24739 0.89664 0.50923 0.0
H1643 H 0.20509 0.90356 0.52712 0.0
H1644 H 0.2151 0.90924 0.49146 0.0
H1645 H 0.22056 0.92065 0.57311 0.0
H1646 H 0.24121 0.93753 0.59551 0.0
H1647 H 0.23259 0.88694 0.58265 0.0
H1648 H 0.25309 0.90362 0.60507 0.0
H1649 H 0.21671 0.86897 0.56075 0.0
H1650 H 0.18639 0.88553 0.56581 0.0
H1651 H 0.19657 0.84384 0.56392 0.0
H1652 H 0.16584 0.86029 0.56714 0.0
H1653 H 0.12675 0.76617 0.53892 0.0
H1654 H 0.11265 0.7567 0.5062 0.0
H1655 H 0.10413 0.79332 0.50508 0.0
H1656 H 0.11843 0.80277 0.5378 0.0
H1657 H 0.10578 0.78921 0.57176 0.0
H1658 H 0.08793 0.7722 0.59693 0.0
H1659 H 0.11874 0.75788 0.61606 0.0
H1660 H 0.13617 0.77437 0.58993 0.0
H1661 H 0.15747 0.80081 0.5431 0.0
H1662 H 0.17776 0.82607 0.54438 0.0
H1663 H 0.15203 0.8381 0.58424 0.0
N1664 N 0.13127 0.78977 0.56063 0.0
H1665 H 0.13142 0.81295 0.58146 0.0
C1666 C 0.22046 0.89692 0.5386 0.0
C1667 C 0.23235 0.89487 0.53322 0.0
C1668 C 0.23817 0.89821 0.51295 0.0
C1669 C 0.23206 0.90342 0.49759 0.0
C1670 C 0.21996 0.90513 0.5029 0.0
C1671 C 0.21427 0.90196 0.52323 0.0
C1672 C 0.22494 0.90253 0.57605 0.0
C1673 C 0.2274 0.91675 0.58052 0.0
C1674 C 0.2392 0.92637 0.59335 0.0
C1675 C 0.24891 0.92198 0.60194 0.0
C1676 C 0.24594 0.90742 0.59845 0.0
C1677 C 0.23409 0.89779 0.58567 0.0
C1678 C 0.20313 0.87925 0.56361 0.0
C1679 C 0.20575 0.86725 0.56298 0.0
C1680 C 0.19405 0.85275 0.56429 0.0
C1681 C 0.17938 0.84982 0.56554 0.0
C1682 C 0.17689 0.86193 0.56656 0.0
C1683 C 0.18864 0.87643 0.56572 0.0
C1684 C 0.12372 0.78518 0.54064 0.0
C1685 C 0.12192 0.77219 0.53147 0.0
C1686 C 0.11374 0.76673 0.51292 0.0
C1687 C 0.10716 0.77419 0.5031 0.0
C1688 C 0.10914 0.78737 0.51218 0.0
C1689 C 0.1173 0.79279 0.53085 0.0
C1690 C 0.12221 0.7828 0.5787 0.0
C1691 C 0.10878 0.7826 0.58164 0.0
C1692 C 0.0986 0.7729 0.59619 0.0
C1693 C 0.10173 0.76338 0.60825 0.0
C1694 C 0.11577 0.76473 0.60663 0.0
C1695 C 0.12584 0.77426 0.5919 0.0
C1696 C 0.14299 0.8049 0.56228 0.0
C1697 C 0.15624 0.80894 0.55207 0.0
C1698 C 0.16792 0.82342 0.55307 0.0
C1699 C 0.16678 0.83429 0.5647 0.0
C1700 C 0.15339 0.83018 0.57495 0.0
C1701 C 0.14156 0.8157 0.57355 0.0
H1702 H 0.21397 0.32753 0.52783 0.0
N1703 N 0.22539 0.35547 0.54369 0.0
H1704 H 0.22347 0.32005 0.49828 0.0
H1705 H 0.24616 0.37304 0.517 0.0
H1706 H 0.25634 0.36568 0.48803 0.0
H1707 H 0.25194 0.37237 0.56047 0.0
H1708 H 0.26471 0.36525 0.58662 0.0
H1709 H 0.21315 0.32969 0.5663 0.0
H1710 H 0.22581 0.32253 0.59261 0.0
H1711 H 0.20283 0.34471 0.51376 0.0
H1712 H 0.21357 0.36084 0.5777 0.0
H1713 H 0.17875 0.34225 0.5173 0.0
H1714 H 0.18923 0.35831 0.58106 0.0
H1715 H 0.10834 0.32659 0.5282 0.0
H1716 H 0.09415 0.32516 0.4966 0.0
H1717 H 0.11828 0.3727 0.49152 0.0
H1718 H 0.13243 0.37403 0.52323 0.0
H1719 H 0.11481 0.36546 0.56616 0.0
H1720 H 0.09287 0.35443 0.58782 0.0
H1721 H 0.09473 0.31384 0.59049 0.0
H1722 H 0.11613 0.32477 0.56771 0.0
H1723 H 0.13177 0.32909 0.535 0.0
H1724 H 0.15484 0.32845 0.53534 0.0
H1725 H 0.1765 0.37084 0.56647 0.0
N1726 N 0.12788 0.35194 0.54875 0.0
H1727 H 0.15334 0.37136 0.56606 0.0
C1728 C 0.22929 0.35091 0.52448 0.0
C1729 C 0.22301 0.33593 0.51892 0.0
C1730 C 0.2286 0.33168 0.50213 0.0
C1731 C 0.24086 0.34223 0.49086 0.0
C1732 C 0.2468 0.35724 0.49609 0.0
C1733 C 0.24103 0.36149 0.51268 0.0
C1734 C 0.2316 0.35166 0.56152 0.0
C1735 C 0.2461 0.36158 0.56774 0.0
C1736 C 0.25341 0.35745 0.5825 0.0
C1737 C 0.24629 0.3433 0.59154 0.0
C1738 C 0.23154 0.33354 0.58598 0.0
C1739 C 0.22429 0.33761 0.57097 0.0
C1740 C 0.21021 0.35231 0.54589 0.0
C1741 C 0.20004 0.34726 0.52889 0.0
C1742 C 0.18609 0.34589 0.53083 0.0
C1743 C 0.18195 0.34991 0.54953 0.0
C1744 C 0.19203 0.35507 0.56643 0.0
C1745 C 0.20595 0.35635 0.56456 0.0
C1746 C 0.12149 0.35049 0.52806 0.0
C1747 C 0.11092 0.33668 0.51993 0.0
C1748 C 0.10278 0.33587 0.50186 0.0
C1749 C 0.10498 0.34883 0.49174 0.0
C1750 C 0.11621 0.36254 0.49916 0.0
C1751 C 0.12438 0.36333 0.51713 0.0
C1752 C 0.11716 0.34602 0.56531 0.0
C1753 C 0.11065 0.35429 0.57186 0.0
C1754 C 0.09808 0.34793 0.58433 0.0
C1755 C 0.09178 0.33312 0.59079 0.0
C1756 C 0.09898 0.32515 0.5854 0.0
C1757 C 0.11142 0.33147 0.57259 0.0
C1758 C 0.14084 0.35039 0.5504 0.0
C1759 C 0.14141 0.33819 0.54204 0.0
C1760 C 0.15466 0.33786 0.54218 0.0
C1761 C 0.16756 0.34962 0.55084 0.0
C1762 C 0.16678 0.36152 0.55987 0.0
C1763 C 0.15357 0.36188 0.55959 0.0
H1764 H 0.02286 0.41252 0.05396 0.0
H1765 H 0.98336 0.36991 0.06085 0.0
H1766 H 0.97689 0.37911 0.09251 0.0
H1767 H 0.03162 0.41903 0.10848 0.0
H1768 H 0.0383 0.4386 0.10663 0.0
H1769 H 0.03946 0.42869 0.08429 0.0
H1770 H 0.02502 0.43814 0.06161 0.0
H1771 H 0.02376 0.44803 0.08391 0.0
H1772 H 0.00729 0.43487 0.07024 0.0
H1773 H 0.97496 0.39314 0.12375 0.0
H1774 H 0.97842 0.41026 0.15287 0.0
H1775 H 0.01918 0.44344 0.12499 0.0
C1776 C 0.01281 0.40507 0.06203 0.0
C1777 C 0.00361 0.39046 0.05484 0.0
C1778 C 0.99061 0.38113 0.06604 0.0
C1779 C 0.98682 0.38627 0.08399 0.0
C1780 C 0.99613 0.40076 0.09054 0.0
C1781 C 0.00889 0.40998 0.07992 0.0
C1782 C 0.01727 0.42494 0.09039 0.0
C1783 C 0.03256 0.42798 0.0979 0.0
C1784 C 0.01839 0.43722 0.07566 0.0
C1785 C 0.0073 0.4227 0.10871 0.0
C1786 C 0.99509 0.40874 0.10847 0.0
C1787 C 0.98444 0.40412 0.12404 0.0
C1788 C 0.98645 0.41394 0.14043 0.0
C1789 C 0.99906 0.42818 0.14118 0.0
C1790 C 0.00948 0.4326 0.12492 0.0
H1791 H 0.63464 0.61214 0.07382 0.0
H1792 H 0.59842 0.59885 0.02975 0.0
H1793 H 0.58144 0.58076 0.05558 0.0
H1794 H 0.6221 0.5764 0.10335 0.0
H1795 H 0.62863 0.58662 0.12743 0.0
H1796 H 0.63749 0.59503 0.10305 0.0
H1797 H 0.63258 0.6167 0.11288 0.0
H1798 H 0.62257 0.607 0.13592 0.0
H1799 H 0.61386 0.61271 0.11623 0.0
H1800 H 0.56825 0.56521 0.08683 0.0
H1801 H 0.55934 0.55461 0.12198 0.0
H1802 H 0.6037 0.58022 0.14714 0.0
C1803 C 0.62323 0.60497 0.06943 0.0
C1804 C 0.61786 0.60627 0.04954 0.0
C1805 C 0.60273 0.59755 0.0447 0.0
C1806 C 0.59305 0.58728 0.05925 0.0
C1807 C 0.59863 0.58631 0.07886 0.0
C1808 C 0.61334 0.59504 0.08409 0.0
C1809 C 0.61605 0.59356 0.10725 0.0
C1810 C 0.62673 0.58756 0.1104 0.0
C1811 C 0.62159 0.60837 0.11874 0.0
C1812 C 0.60066 0.58237 0.11404 0.0
C1813 C 0.5908 0.57826 0.09742 0.0
C1814 C 0.57588 0.56832 0.09996 0.0
C1815 C 0.57091 0.56243 0.12003 0.0
C1816 C 0.58079 0.56656 0.13738 0.0
C1817 C 0.59588 0.57663 0.13419 0.0
H1818 H 0.38818 0.01363 0.07417 0.0
H1819 H 0.3986 0.98716 0.03302 0.0
H1820 H 0.41619 0.98733 0.05953 0.0
H1821 H 0.42463 0.03553 0.1026 0.0
H1822 H 0.41497 0.03355 0.12657 0.0
H1823 H 0.40652 0.03378 0.10184 0.0
H1824 H 0.38415 0.00861 0.11407 0.0
H1825 H 0.39399 0.00835 0.13734 0.0
H1826 H 0.38704 0.99316 0.11906 0.0
H1827 H 0.4311 0.98869 0.09132 0.0
H1828 H 0.44251 0.99128 0.12653 0.0
H1829 H 0.42144 0.01568 0.14804 0.0
C1830 C 0.39464 0.00841 0.07053 0.0
C1831 C 0.39263 1.00094 0.05126 0.0
C1832 C 0.40044 0.99333 0.04746 0.0
C1833 C 0.4104 0.99335 0.06242 0.0
C1834 C 0.41204 1.00064 0.08141 0.0
C1835 C 0.40436 0.008 0.0856 0.0
C1836 C 0.40665 0.01318 0.1083 0.0
C1837 C 0.41359 0.03002 0.10985 0.0
C1838 C 0.39209 0.00536 0.1204 0.0
C1839 C 0.41725 0.00812 0.11587 0.0
C1840 C 0.4201 1.00079 0.10017 0.0
C1841 C 0.42908 0.99455 0.10368 0.0
C1842 C 0.43545 0.99601 0.12369 0.0
C1843 C 0.43293 0.00377 0.13983 0.0
C1844 C 0.4237 0.00988 0.13583 0.0
H1845 H 0.40309 0.01625 0.95062 0.0
H1846 H 0.37236 0.97132 0.96962 0.0
H1847 H 0.38104 0.96184 0.94084 0.0
H1848 H 0.3988 0.00918 0.89459 0.0
H1849 H 0.41788 0.0218 0.88918 0.0
H1850 H 0.40922 0.02499 0.91131 0.0
H1851 H 0.4294 0.0256 0.93602 0.0
H1852 H 0.43804 0.02225 0.914 0.0
H1853 H 0.43263 0.01011 0.93644 0.0
H1854 H 0.39376 0.95724 0.91092 0.0
H1855 H 0.40804 0.95774 0.88008 0.0
H1856 H 0.42957 0.00566 0.87934 0.0
C1857 C 0.39812 0.00441 0.9487 0.0
C1858 C 0.38703 0.99454 0.96245 0.0
C1859 C 0.3808 0.97912 0.95927 0.0
C1860 C 0.38572 0.97362 0.94303 0.0
C1861 C 0.39678 0.98366 0.92995 0.0
C1862 C 0.40278 0.99872 0.93244 0.0
C1863 C 0.41433 0.00712 0.91596 0.0
C1864 C 0.40978 0.01631 0.90193 0.0
C1865 C 0.4295 0.01685 0.92623 0.0
C1866 C 0.41393 0.99442 0.90387 0.0
C1867 C 0.40381 0.98099 0.91231 0.0
C1868 C 0.40159 0.96769 0.90403 0.0
C1869 C 0.40972 0.9681 0.8864 0.0
C1870 C 0.41987 0.98173 0.87703 0.0
C1871 C 0.42205 0.99505 0.88615 0.0
H1872 H 0.00558 0.38075 0.94089 0.0
H1873 H 0.98336 0.39091 0.98963 0.0
H1874 H 0.97732 0.40522 0.96409 0.0
H1875 H 0.01945 0.41421 0.90662 0.0
H1876 H 0.01459 0.40232 0.88424 0.0
H1877 H 0.01927 0.39677 0.9087 0.0
H1878 H 0.99336 0.37247 0.90294 0.0
H1879 H 0.98899 0.38041 0.88066 0.0
H1880 H 0.97697 0.37411 0.903 0.0
H1881 H 0.97427 0.41885 0.93356 0.0
H1882 H 0.97265 0.42929 0.89909 0.0
H1883 H 0.99444 0.40802 0.86943 0.0
C1884 C 0.99982 0.38638 0.94617 0.0
C1885 C 0.99553 0.38546 0.96731 0.0
C1886 C 0.98712 0.392 0.97357 0.0
C1887 C 0.98364 0.40009 0.95921 0.0
C1888 C 0.98808 0.40091 0.93845 0.0
C1889 C 0.99576 0.39402 0.9318 0.0
C1890 C 0.99747 0.39499 0.9081 0.0
C1891 C 0.01368 0.4025 0.90161 0.0
C1892 C 0.98867 0.37958 0.89809 0.0
C1893 C 0.99062 0.40448 0.90277 0.0
C1894 C 0.98511 0.40762 0.92047 0.0
C1895 C 0.97847 0.4164 0.91956 0.0
C1896 C 0.9776 0.42228 0.90004 0.0
C1897 C 0.98339 0.41935 0.8819 0.0
C1898 C 0.98989 0.4103 0.88322 0.0
H1899 H 0.62032 0.59436 0.95649 0.0
H1900 H 0.62231 0.637 0.95961 0.0
H1901 H 0.60576 0.63028 0.9287 0.0
H1902 H 0.6194 0.59149 0.89957 0.0
H1903 H 0.60675 0.5719 0.89968 0.0
H1904 H 0.61928 0.58036 0.92148 0.0
H1905 H 0.59732 0.56962 0.94712 0.0
H1906 H 0.58471 0.5612 0.92541 0.0
H1907 H 0.58249 0.57352 0.94286 0.0
H1908 H 0.58828 0.61857 0.8982 0.0
H1909 H 0.57196 0.60315 0.86948 0.0
H1910 H 0.58101 0.56798 0.88674 0.0
C1911 C 0.61745 0.6024 0.95059 0.0
C1912 C 0.6227 0.61626 0.96055 0.0
C1913 C 0.61851 0.62634 0.9523 0.0
C1914 C 0.60907 0.62261 0.93475 0.0
C1915 C 0.60392 0.60877 0.92559 0.0
C1916 C 0.60803 0.59886 0.93315 0.0
C1917 C 0.6007 0.58458 0.92074 0.0
C1918 C 0.61222 0.58193 0.90971 0.0
C1919 C 0.59071 0.57146 0.93488 0.0
C1920 C 0.59179 0.58799 0.90502 0.0
C1921 C 0.59379 0.60199 0.90811 0.0
C1922 C 0.58662 0.60758 0.89565 0.0
C1923 C 0.57726 0.59867 0.87948 0.0
C1924 C 0.57511 0.5843 0.87589 0.0
C1925 C 0.58249 0.57894 0.88895 0.0
H1926 H 0.98767 0.59928 0.97118 0.0
H1927 H 0.0164 0.64425 0.95081 0.0
H1928 H 0.0232 0.63505 0.91958 0.0
H1929 H 0.00897 0.58227 0.9534 0.0
H1930 H 0.99275 0.56586 0.94485 0.0
H1931 H 0.99161 0.57675 0.9659 0.0
H1932 H 0.97075 0.5777 0.94379 0.0
H1933 H 0.97324 0.56778 0.92254 0.0
H1934 H 0.97484 0.58559 0.91777 0.0
H1935 H 0.0279 0.62137 0.89196 0.0
H1936 H 0.02845 0.60384 0.86678 0.0
H1937 H 0.9959 0.5672 0.90354 0.0
C1938 C 0.99547 0.6071 0.96016 0.0
C1939 C 1.00213 0.62247 0.96379 0.0
C1940 C 0.01175 0.63245 0.94869 0.0
C1941 C 0.01558 0.62733 0.93087 0.0
C1942 C 0.00937 0.61216 0.92813 0.0
C1943 C 0.99932 0.60213 0.94209 0.0
C1944 C 0.99368 0.5864 0.93455 0.0
C1945 C 0.99696 0.57731 0.95066 0.0
C1946 C 0.97715 0.57893 0.92935 0.0
C1947 C 1.00267 0.5892 0.91475 0.0
C1948 C 0.01157 0.60416 0.9114 0.0
C1949 C 0.02099 0.60962 0.89437 0.0
C1950 C 0.02133 0.59953 0.88027 0.0
C1951 C 0.01237 0.5841 0.88328 0.0
C1952 C 1.00285 0.57891 0.90076 0.0
H1953 H 0.41401 0.39173 0.97147 0.0
H1954 H 0.3691 0.3822 0.96014 0.0
H1955 H 0.37697 0.39681 0.92733 0.0
H1956 H 0.43146 0.4294 0.95274 0.0
H1957 H 0.44671 0.42847 0.9414 0.0
H1958 H 0.43746 0.41729 0.96393 0.0
H1959 H 0.43261 0.39379 0.94354 0.0
H1960 H 0.4418 0.40488 0.92095 0.0
H1961 H 0.42322 0.38981 0.91844 0.0
H1962 H 0.38969 0.41154 0.89486 0.0
H1963 H 0.40614 0.42569 0.86594 0.0
H1964 H 0.44305 0.42705 0.90014 0.0
C1965 C 0.40578 0.39269 0.96217 0.0
C1966 C 0.39089 0.38575 0.96842 0.0
C1967 C 0.38056 0.38741 0.95573 0.0
C1968 C 0.38493 0.39569 0.93706 0.0
C1969 C 0.3997 0.40238 0.93143 0.0
C1970 C 0.40997 0.40105 0.94371 0.0
C1971 C 0.42517 0.40938 0.93427 0.0
C1972 C 0.43582 0.42188 0.94896 0.0
C1973 C 0.43104 0.39883 0.92899 0.0
C1974 C 0.42182 0.41543 0.91455 0.0
C1975 C 0.40708 0.41126 0.91318 0.0
C1976 C 0.40129 0.41505 0.89594 0.0
C1977 C 0.41081 0.42324 0.87963 0.0
C1978 C 0.42602 0.4277 0.88068 0.0
C1979 C 0.43152 0.42379 0.8986 0.0
H1980 H 0.62365 1.00123 0.94152 0.0
H1981 H 0.59825 0.00668 0.99042 0.0
H1982 H 0.58065 0.0063 0.96362 0.0
H1983 H 0.61888 0.02745 0.90732 0.0
H1984 H 0.61944 0.01867 0.88329 0.0
H1985 H 0.62954 0.01814 0.90614 0.0
H1986 H 0.61529 0.98862 0.90629 0.0
H1987 H 0.60807 0.99096 0.8816 0.0
H1988 H 0.59567 0.97963 0.90154 0.0
H1989 H 0.56426 1.00182 0.93191 0.0
H1990 H 0.55262 0.99862 0.89671 0.0
H1991 H 0.59108 1.0009 0.86799 0.0
C1992 C 0.6142 0.00206 0.94646 0.0
C1993 C 0.61164 0.00306 0.96796 0.0
C1994 C 0.59991 0.00528 0.97399 0.0
C1995 C 0.58994 0.00513 0.95892 0.0
C1996 C 0.59246 0.00367 0.93783 0.0
C1997 C 0.60459 0.00272 0.9315 0.0
C1998 C 0.60576 0.00326 0.90773 0.0
C1999 C 0.6192 0.01774 0.90071 0.0
C2000 C 0.60626 0.98982 0.89885 0.0
C2001 C 0.59157 0.00302 0.90175 0.0
C2002 C 0.5841 0.00335 0.91936 0.0
C2003 C 0.57014 1.00193 0.91795 0.0
C2004 C 0.5636 1.00005 0.898 0.0
C2005 C 0.57111 0.99977 0.87982 0.0
C2006 C 0.58532 1.00146 0.8817 0.0
H2007 H 0.62146 0.00633 0.07033 0.0
H2008 H 0.58323 0.96909 0.04189 0.0
H2009 H 0.56793 0.96909 0.07081 0.0
H2010 H 0.61141 0.99324 0.12435 0.0
H2011 H 0.61836 0.01154 0.13497 0.0
H2012 H 0.62651 0.00883 0.1118 0.0
H2013 H 0.62171 0.02778 0.0917 0.0
H2014 H 0.61344 0.03045 0.11475 0.0
H2015 H 0.60329 0.02505 0.09026 0.0
H2016 H 0.55624 0.97408 0.10112 0.0
H2017 H 0.54936 0.98189 0.13338 0.0
H2018 H 0.59538 0.01401 0.14496 0.0
C2019 C 0.60989 0.99815 0.07022 0.0
C2020 C 0.60358 0.98787 0.05353 0.0
C2021 C 0.58839 0.97723 0.05422 0.0
C2022 C 0.57954 0.9771 0.07064 0.0
C2023 C 0.58603 0.9875 0.08658 0.0
C2024 C 0.60088 0.99765 0.08679 0.0
C2025 C 0.60505 0.00728 0.10631 0.0
C2026 C 0.61598 0.00509 0.12018 0.0
C2027 C 0.61123 0.02361 0.10039 0.0
C2028 C 0.59017 1.00106 0.11675 0.0
C2029 C 0.57936 0.98976 0.10496 0.0
C2030 C 0.56465 0.98271 0.11077 0.0
C2031 C 0.56088 0.98718 0.12933 0.0
C2032 C 0.57178 0.99844 0.14222 0.0
C2033 C 0.58665 0.00546 0.13562 0.0
H2034 H 0.01716 0.61516 0.06146 0.0
H2035 H 0.97495 0.61387 0.05875 0.0
H2036 H 0.96684 0.59763 0.0897 0.0
H2037 H 1.00291 0.57704 0.07761 0.0
H2038 H 0.01826 0.58115 0.09489 0.0
H2039 H 0.02079 0.59251 0.07211 0.0
H2040 H 0.0313 0.61572 0.09587 0.0
H2041 H 0.02878 0.60444 0.1187 0.0
H2042 H 0.02058 0.61614 0.11759 0.0
H2043 H 0.9634 0.58223 0.12141 0.0
H2044 H 0.96485 0.56856 0.15216 0.0
H2045 H 0.00896 0.57903 0.13427 0.0
C2046 C 0.0062 0.61145 0.06733 0.0
C2047 C 0.99673 0.61586 0.05757 0.0
C2048 C 0.98246 0.61069 0.06583 0.0
C2049 C 0.97771 0.60143 0.08345 0.0
C2050 C 0.98731 0.59735 0.09267 0.0
C2051 C 1.00124 0.60215 0.08494 0.0
C2052 C 0.0094 0.59621 0.09808 0.0
C2053 C 0.01305 0.58613 0.08488 0.0
C2054 C 0.02334 0.60888 0.10816 0.0
C2055 C 0.99791 0.58747 0.1145 0.0
C2056 C 0.98525 0.58826 0.11099 0.0
C2057 C 0.97319 0.58139 0.12422 0.0
C2058 C 0.9741 0.57353 0.14158 0.0
C2059 C 0.98695 0.57253 0.14561 0.0
C2060 C 0.99899 0.5796 0.13174 0.0
H2061 H 0.38801 0.37382 0.08342 0.0
H2062 H 0.40119 0.40822 0.03652 0.0
H2063 H 0.41921 0.4264 0.06168 0.0
H2064 H 0.38841 0.39797 0.12401 0.0
H2065 H 0.39373 0.38971 0.14484 0.0
H2066 H 0.38334 0.37874 0.12258 0.0
H2067 H 0.40405 0.37189 0.11351 0.0
H2068 H 0.41221 0.38121 0.13791 0.0
H2069 H 0.4229 0.38678 0.11445 0.0
H2070 H 0.43622 0.44057 0.0917 0.0
H2071 H 0.44902 0.45047 0.12559 0.0
H2072 H 0.42207 0.4076 0.1545 0.0
C2073 C 0.39504 0.3851 0.07838 0.0
C2074 C 0.39389 0.38958 0.05779 0.0
C2075 C 0.4024 0.40459 0.05205 0.0
C2076 C 0.41261 0.41494 0.06621 0.0
C2077 C 0.41363 0.41021 0.08638 0.0
C2078 C 0.40485 0.39571 0.09265 0.0
C2079 C 0.40657 0.39402 0.11607 0.0
C2080 C 0.39216 0.38987 0.12754 0.0
C2081 C 0.4117 0.38277 0.12068 0.0
C2082 C 0.41842 0.40957 0.12159 0.0
C2083 C 0.4223 0.41874 0.10428 0.0
C2084 C 0.43318 0.43352 0.10543 0.0
C2085 C 0.44035 0.43907 0.12479 0.0
C2086 C 0.43659 0.42986 0.14279 0.0
C2087 C 0.42538 0.41493 0.14104 0.0
H2088 H 0.66778 0.71741 0.39534 0.0
H2089 H 0.70696 0.75514 0.37069 0.0
H2090 H 0.70535 0.77097 0.3979 0.0
H2091 H 0.64843 0.73653 0.40939 0.0
H2092 H 0.64119 0.72638 0.43344 0.0
H2093 H 0.64516 0.71788 0.41175 0.0
H2094 H 0.66215 0.71253 0.43585 0.0
H2095 H 0.65815 0.72092 0.45764 0.0
H2096 H 0.67695 0.7275 0.45013 0.0
H2097 H 0.69899 0.78303 0.42676 0.0
H2098 H 0.68956 0.79007 0.45731 0.0
H2099 H 0.65578 0.74421 0.4653 0.0
C2100 C 0.67601 0.729 0.39565 0.0
C2101 C 0.68741 0.73502 0.38068 0.0
C2102 C 0.69808 0.75023 0.38186 0.0
C2103 C 0.69725 0.75936 0.39725 0.0
C2104 C 0.68583 0.75312 0.41161 0.0
C2105 C 0.67551 0.73826 0.41117 0.0
C2106 C 0.66465 0.73429 0.42895 0.0
C2107 C 0.64893 0.72842 0.42036 0.0
C2108 C 0.66554 0.72315 0.44404 0.0
C2109 C 0.67042 0.74926 0.43928 0.0
C2110 C 0.68256 0.75998 0.42892 0.0
C2111 C 0.6896 0.7747 0.4352 0.0
C2112 C 0.6842 0.77857 0.45273 0.0
C2113 C 0.67197 0.76773 0.46403 0.0
C2114 C 0.66502 0.75288 0.45702 0.0
H2115 H 0.29544 0.946 0.41339 0.0
H2116 H 0.26095 0.93197 0.36621 0.0
H2117 H 0.24257 0.91606 0.39246 0.0
H2118 H 0.27985 0.91167 0.44714 0.0
H2119 H 0.28595 0.92291 0.4704 0.0
H2120 H 0.29605 0.92976 0.44635 0.0
H2121 H 0.29283 0.95296 0.45077 0.0
H2122 H 0.28181 0.94513 0.47381 0.0
H2123 H 0.27452 0.9505 0.45175 0.0
H2124 H 0.22773 0.90363 0.42433 0.0
H2125 H 0.21727 0.89614 0.45988 0.0
H2126 H 0.26116 0.9198 0.48707 0.0
C2127 C 0.28409 0.93906 0.40849 0.0
C2128 C 0.27959 0.93961 0.38766 0.0
C2129 C 0.26457 0.93125 0.38198 0.0
C2130 C 0.2541 0.92221 0.39677 0.0
C2131 C 0.25881 0.92206 0.41732 0.0
C2132 C 0.27344 0.93032 0.42326 0.0
C2133 C 0.27525 0.93001 0.44694 0.0
C2134 C 0.28486 0.92318 0.45302 0.0
C2135 C 0.28147 0.94557 0.45636 0.0
C2136 C 0.25942 0.92008 0.45329 0.0
C2137 C 0.25012 0.91558 0.43598 0.0
C2138 C 0.23492 0.90696 0.43799 0.0
C2139 C 0.22908 0.90283 0.45823 0.0
C2140 C 0.23841 0.90732 0.4762 0.0
C2141 C 0.25378 0.91597 0.4736 0.0
H2142 H 0.05523 0.32065 0.38664 0.0
H2143 H 0.03934 0.35068 0.40279 0.0
H2144 H 0.05498 0.35831 0.43472 0.0
H2145 H 0.05552 0.30953 0.44172 0.0
H2146 H 0.07142 0.3073 0.43851 0.0
H2147 H 0.05918 0.30421 0.41654 0.0
H2148 H 0.08102 0.32393 0.39407 0.0
H2149 H 0.09284 0.32566 0.41599 0.0
H2150 H 0.09292 0.34177 0.40565 0.0
H2151 H 0.0738 0.36442 0.46265 0.0
H2152 H 0.09181 0.36572 0.48909 0.0
H2153 H 0.09448 0.33037 0.45713 0.0
C2154 C 0.05516 0.32887 0.39693 0.0
C2155 C 0.04675 0.33573 0.39182 0.0
C2156 C 0.04631 0.3459 0.40601 0.0
C2157 C 0.05506 0.3502 0.42422 0.0
C2158 C 0.06386 0.34389 0.4283 0.0
C2159 C 0.06374 0.33317 0.41543 0.0
C2160 C 0.07356 0.32751 0.42445 0.0
C2161 C 0.06437 0.31117 0.43068 0.0
C2162 C 0.08579 0.32986 0.40909 0.0
C2163 C 0.07977 0.3373 0.44372 0.0
C2164 C 0.074 0.34666 0.44554 0.0
C2165 C 0.0783 0.35706 0.46157 0.0
C2166 C 0.08866 0.35781 0.47637 0.0
C2167 C 0.09461 0.34821 0.47511 0.0
C2168 C 0.09006 0.3378 0.45854 0.0
H2169 H 0.07093 0.34941 0.29575 0.0
H2170 H 0.03015 0.30745 0.29666 0.0
H2171 H 0.03885 0.29871 0.26714 0.0
H2172 H 0.0746 0.35221 0.2399 0.0
H2173 H 0.09432 0.36021 0.24035 0.0
H2174 H 0.08517 0.3631 0.26212 0.0
H2175 H 0.09714 0.35254 0.2877 0.0
H2176 H 0.10634 0.3496 0.266 0.0
H2177 H 0.09478 0.33443 0.28296 0.0
H2178 H 0.05141 0.29468 0.23688 0.0
H2179 H 0.06695 0.29575 0.20741 0.0
H2180 H 0.09997 0.34003 0.22632 0.0
C2181 C 0.06382 0.33837 0.2898 0.0
C2182 C 0.04981 0.32915 0.29862 0.0
C2183 C 0.04091 0.31477 0.29027 0.0
C2184 C 0.04576 0.30966 0.27349 0.0
C2185 C 0.05957 0.31902 0.26519 0.0
C2186 C 0.06849 0.33306 0.27302 0.0
C2187 C 0.08274 0.34097 0.26089 0.0
C2188 C 0.08429 0.35495 0.25018 0.0
C2189 C 0.09604 0.3446 0.27525 0.0
C2190 C 0.08032 0.32923 0.24486 0.0
C2191 C 0.06691 0.31664 0.24773 0.0
C2192 C 0.06202 0.30442 0.2346 0.0
C2193 C 0.07101 0.3051 0.21797 0.0
C2194 C 0.08481 0.31791 0.21456 0.0
C2195 C 0.0895 0.33008 0.22838 0.0
H2196 H 0.67153 0.73678 0.29852 0.0
H2197 H 0.69059 0.71097 0.2752 0.0
H2198 H 0.6959 0.72427 0.24133 0.0
H2199 H 0.654 0.73651 0.2488 0.0
H2200 H 0.65662 0.75486 0.25185 0.0
H2201 H 0.65476 0.7438 0.27472 0.0
H2202 H 0.68019 0.76434 0.28969 0.0
H2203 H 0.68077 0.77532 0.26734 0.0
H2204 H 0.69583 0.77201 0.27244 0.0
H2205 H 0.69973 0.7406 0.21069 0.0
H2206 H 0.69987 0.75748 0.1834 0.0
H2207 H 0.67792 0.77272 0.22596 0.0
C2208 C 0.67695 0.7341 0.28628 0.0
C2209 C 0.68133 0.7234 0.28962 0.0
C2210 C 0.68778 0.71962 0.2731 0.0
C2211 C 0.69074 0.72703 0.25382 0.0
C2212 C 0.68687 0.73797 0.25123 0.0
C2213 C 0.67994 0.74139 0.26684 0.0
C2214 C 0.67615 0.753 0.25937 0.0
C2215 C 0.65939 0.74666 0.25864 0.0
C2216 C 0.68369 0.76698 0.27306 0.0
C2217 C 0.68251 0.7559 0.23743 0.0
C2218 C 0.68859 0.74707 0.2331 0.0
C2219 C 0.69506 0.74763 0.21389 0.0
C2220 C 0.69522 0.7574 0.19855 0.0
C2221 C 0.68906 0.76661 0.20252 0.0
C2222 C 0.68266 0.76581 0.22233 0.0
H2223 H 0.28229 0.92135 0.30186 0.0
H2224 H 0.29265 0.96659 0.29006 0.0
H2225 H 0.27877 0.95874 0.25646 0.0
H2226 H 0.28455 0.91151 0.24853 0.0
H2227 H 0.26927 0.89303 0.25101 0.0
H2228 H 0.28043 0.90236 0.2737 0.0
H2229 H 0.25717 0.89816 0.29359 0.0
H2230 H 0.24594 0.88883 0.27097 0.0
H2231 H 0.24541 0.90446 0.28204 0.0
H2232 H 0.2639 0.94585 0.22397 0.0
H2233 H 0.24888 0.92905 0.19551 0.0
H2234 H 0.24697 0.892 0.23 0.0
C2235 C 0.28176 0.92968 0.29222 0.0
C2236 C 0.28864 0.94463 0.29863 0.0
C2237 C 0.2875 0.95509 0.28552 0.0
C2238 C 0.27964 0.95073 0.2664 0.0
C2239 C 0.27289 0.93587 0.26072 0.0
C2240 C 0.27383 0.92551 0.27329 0.0
C2241 C 0.26526 0.91017 0.26393 0.0
C2242 C 0.27549 0.9039 0.259 0.0
C2243 C 0.2527 0.8998 0.2785 0.0
C2244 C 0.25939 0.91351 0.24401 0.0
C2245 C 0.26396 0.9284 0.24241 0.0
C2246 C 0.26014 0.93415 0.22518 0.0
C2247 C 0.25146 0.92446 0.20915 0.0
C2248 C 0.24654 0.90909 0.21049 0.0
C2249 C 0.25058 0.90365 0.2283 0.0
H2250 H 0.66264 0.93507 0.3051 0.0
H2251 H 0.68399 0.9782 0.27567 0.0
H2252 H 0.68486 0.96695 0.24207 0.0
H2253 H 0.68066 0.91785 0.27716 0.0
H2254 H 0.66387 0.90055 0.27514 0.0
H2255 H 0.66657 0.91287 0.29664 0.0
H2256 H 0.64161 0.91118 0.28499 0.0
H2257 H 0.64016 0.89985 0.26277 0.0
H2258 H 0.63987 0.91686 0.25877 0.0
H2259 H 0.68471 0.95156 0.21257 0.0
H2260 H 0.68069 0.93235 0.18681 0.0
H2261 H 0.65815 0.89856 0.23418 0.0
C2262 C 0.6676 0.94207 0.29155 0.0
C2263 C 0.67399 0.95756 0.29306 0.0
C2264 C 0.67973 0.96639 0.27493 0.0
C2265 C 0.68017 0.96009 0.2558 0.0
C2266 C 0.67442 0.94488 0.25496 0.0
C2267 C 0.66797 0.93589 0.27216 0.0
C2268 C 0.66167 0.91974 0.26635 0.0
C2269 C 0.66862 0.91234 0.27964 0.0
C2270 C 0.64483 0.91142 0.26834 0.0
C2271 C 0.66624 0.92118 0.24351 0.0
C2272 C 0.67355 0.9358 0.23735 0.0
C2273 C 0.67898 0.94005 0.21714 0.0
C2274 C 0.67676 0.92905 0.20269 0.0
C2275 C 0.66924 0.91394 0.20849 0.0
C2276 C 0.6639 0.91 0.22923 0.0
H2277 H 0.08041 0.73102 0.30532 0.0
H2278 H 0.03623 0.72508 0.30536 0.0
H2279 H 0.04214 0.74095 0.27394 0.0
H2280 H 0.09908 0.76917 0.28864 0.0
H2281 H 0.11194 0.76704 0.27242 0.0
H2282 H 0.10437 0.75557 0.29531 0.0
H2283 H 0.09507 0.73215 0.27221 0.0
H2284 H 0.10263 0.74353 0.24928 0.0
H2285 H 0.08342 0.72975 0.24973 0.0
H2286 H 0.05273 0.75709 0.24204 0.0
H2287 H 0.06685 0.77142 0.21129 0.0
H2288 H 0.10411 0.76692 0.23232 0.0
C2289 C 0.07195 0.73306 0.29881 0.0
C2290 C 0.05783 0.72676 0.3079 0.0
C2291 C 0.04712 0.72973 0.29874 0.0
C2292 C 0.05038 0.73877 0.28091 0.0
C2293 C 0.0644 0.74479 0.27241 0.0
C2294 C 0.075 0.74201 0.28102 0.0
C2295 C 0.08909 0.74948 0.26855 0.0
C2296 C 0.10188 0.761 0.28204 0.0
C2297 C 0.09276 0.73804 0.2594 0.0
C2298 C 0.08472 0.75677 0.25142 0.0
C2299 C 0.07048 0.75403 0.25402 0.0
C2300 C 0.06392 0.75939 0.23993 0.0
C2301 C 0.07208 0.76762 0.22258 0.0
C2302 C 0.08662 0.77036 0.21941 0.0
C2303 C 0.093 0.76495 0.23422 0.0
H2304 H 0.27011 0.34056 0.30426 0.0
H2305 H 0.29176 0.31791 0.27848 0.0
H2306 H 0.2772 0.31295 0.24575 0.0
H2307 H 0.2335 0.31799 0.27883 0.0
H2308 H 0.23144 0.33394 0.27415 0.0
H2309 H 0.2421 0.33358 0.29641 0.0
H2310 H 0.26409 0.35819 0.28289 0.0
H2311 H 0.25342 0.35799 0.26033 0.0
H2312 H 0.27091 0.35885 0.25676 0.0
H2313 H 0.26121 0.31114 0.21573 0.0
H2314 H 0.24639 0.31463 0.18834 0.0
H2315 H 0.23569 0.33966 0.23225 0.0
C2316 C 0.27148 0.33429 0.29182 0.0
C2317 C 0.28139 0.32885 0.29418 0.0
C2318 C 0.28359 0.32142 0.27729 0.0
C2319 C 0.27546 0.31865 0.25862 0.0
C2320 C 0.26544 0.32375 0.25693 0.0
C2321 C 0.26352 0.33158 0.27291 0.0
C2322 C 0.25309 0.33706 0.2661 0.0
C2323 C 0.23921 0.33023 0.2797 0.0
C2324 C 0.26085 0.35403 0.26655 0.0
C2325 C 0.24959 0.33119 0.24377 0.0
C2326 C 0.25668 0.32336 0.239 0.0
C2327 C 0.25549 0.31714 0.21928 0.0
C2328 C 0.24696 0.31911 0.20387 0.0
C2329 C 0.23976 0.3273 0.20819 0.0
C2330 C 0.24105 0.33334 0.22849 0.0
H2331 H 0.28332 0.34719 0.38389 0.0
H2332 H 0.27876 0.30471 0.40075 0.0
H2333 H 0.26714 0.30507 0.43413 0.0
H2334 H 0.29017 0.36294 0.43711 0.0
H2335 H 0.27926 0.3718 0.43281 0.0
H2336 H 0.28848 0.36893 0.41108 0.0
H2337 H 0.26365 0.35494 0.39095 0.0
H2338 H 0.25434 0.3577 0.41265 0.0
H2339 H 0.24839 0.3393 0.40314 0.0
H2340 H 0.25558 0.30958 0.46503 0.0
H2341 H 0.24401 0.31758 0.49146 0.0
H2342 H 0.2541 0.35631 0.45367 0.0
C2343 C 0.28013 0.33814 0.39486 0.0
C2344 C 0.28207 0.32599 0.38995 0.0
C2345 C 0.27741 0.31413 0.40433 0.0
C2346 C 0.27083 0.31425 0.42332 0.0
C2347 C 0.26882 0.32623 0.42758 0.0
C2348 C 0.27325 0.33794 0.41379 0.0
C2349 C 0.26886 0.34894 0.42168 0.0
C2350 C 0.28251 0.36405 0.42592 0.0
C2351 C 0.25817 0.35029 0.40618 0.0
C2352 C 0.26125 0.34154 0.44199 0.0
C2353 C 0.26149 0.32852 0.44512 0.0
C2354 C 0.25522 0.3197 0.4627 0.0
C2355 C 0.24851 0.32429 0.47754 0.0
C2356 C 0.2479 0.3375 0.47464 0.0
C2357 C 0.25442 0.34621 0.45654 0.0
H2358 H 0.66756 0.95416 0.39599 0.0
H2359 H 0.7106 0.96166 0.37737 0.0
H2360 H 0.71067 0.94643 0.407 0.0
H2361 H 0.67413 0.95515 0.45235 0.0
H2362 H 0.65567 0.94078 0.45795 0.0
H2363 H 0.65907 0.95259 0.43545 0.0
H2364 H 0.64653 0.92958 0.41129 0.0
H2365 H 0.64318 0.91772 0.43368 0.0
H2366 H 0.6531 0.9165 0.4115 0.0
H2367 H 0.70592 0.92979 0.43787 0.0
H2368 H 0.69693 0.91347 0.46882 0.0
H2369 H 0.65725 0.91708 0.4682 0.0
C2370 C 0.67705 0.9527 0.39819 0.0
C2371 C 0.68908 0.95918 0.38424 0.0
C2372 C 0.70124 0.95689 0.38776 0.0
C2373 C 0.7014 0.94821 0.40457 0.0
C2374 C 0.68934 0.94189 0.41784 0.0
C2375 C 0.67742 0.94406 0.41496 0.0
C2376 C 0.66584 0.9359 0.43152 0.0
C2377 C 0.66355 0.94675 0.44513 0.0
C2378 C 0.6513 0.92423 0.42139 0.0
C2379 C 0.6731 0.92874 0.44404 0.0
C2380 C 0.68664 0.93235 0.43585 0.0
C2381 C 0.69538 0.92698 0.44455 0.0
C2382 C 0.6902 0.91777 0.46221 0.0
C2383 C 0.67641 0.91401 0.47109 0.0
C2384 C 0.66777 0.91958 0.46172 0.0
H2385 H 0.05511 0.71096 0.42177 0.0
H2386 H 0.06253 0.74562 0.37746 0.0
H2387 H 0.07831 0.7645 0.40368 0.0
H2388 H 0.05119 0.73172 0.4649 0.0
H2389 H 0.05854 0.72461 0.48466 0.0
H2390 H 0.04901 0.71353 0.46202 0.0
H2391 H 0.07241 0.71126 0.45084 0.0
H2392 H 0.07942 0.72003 0.47592 0.0
H2393 H 0.09006 0.72796 0.45284 0.0
H2394 H 0.09431 0.77944 0.4341 0.0
H2395 H 0.1076 0.78955 0.46768 0.0
H2396 H 0.0871 0.7453 0.49381 0.0
C2397 C 0.06039 0.72254 0.41755 0.0
C2398 C 0.05831 0.72695 0.39735 0.0
C2399 C 0.06447 0.74214 0.39268 0.0
C2400 C 0.07339 0.75289 0.40746 0.0
C2401 C 0.07541 0.74824 0.42719 0.0
C2402 C 0.06883 0.73343 0.43246 0.0
C2403 C 0.07125 0.73152 0.45559 0.0
C2404 C 0.05663 0.72496 0.46749 0.0
C2405 C 0.07869 0.72209 0.4589 0.0
C2406 C 0.08137 0.74745 0.46188 0.0
C2407 C 0.08344 0.75693 0.44537 0.0
C2408 C 0.09266 0.77214 0.44722 0.0
C2409 C 0.10013 0.77779 0.46638 0.0
C2410 C 0.09842 0.76824 0.48338 0.0
C2411 C 0.08874 0.75289 0.48107 0.0
H2412 H 0.33964 0.05423 0.72661 0.0
H2413 H 0.37377 0.09507 0.69933 0.0
H2414 H 0.37104 0.10915 0.72787 0.0
H2415 H 0.31678 0.06865 0.74588 0.0
H2416 H 0.31231 0.05841 0.77017 0.0
H2417 H 0.31636 0.05113 0.74711 0.0
H2418 H 0.33686 0.04912 0.76762 0.0
H2419 H 0.3328 0.05629 0.79078 0.0
H2420 H 0.35123 0.06523 0.7806 0.0
H2421 H 0.36445 0.1192 0.75824 0.0
H2422 H 0.35594 0.1245 0.79121 0.0
H2423 H 0.32748 0.07744 0.80136 0.0
C2424 C 0.3465 0.06613 0.72663 0.0
C2425 C 0.35678 0.07347 0.71043 0.0
C2426 C 0.36569 0.08908 0.7113 0.0
C2427 C 0.36424 0.09726 0.72749 0.0
C2428 C 0.35397 0.08974 0.74301 0.0
C2429 C 0.34538 0.07454 0.743 0.0
C2430 C 0.33568 0.06933 0.76229 0.0
C2431 C 0.31931 0.06141 0.75598 0.0
C2432 C 0.33937 0.05941 0.77614 0.0
C2433 C 0.34018 0.084 0.77297 0.0
C2434 C 0.35063 0.09559 0.76138 0.0
C2435 C 0.3564 0.11021 0.76765 0.0
C2436 C 0.35156 0.11309 0.78654 0.0
C2437 C 0.34119 0.10142 0.79919 0.0
C2438 C 0.33534 0.08666 0.79209 0.0
H2439 H 0.93463 0.28241 0.72335 0.0
H2440 H 0.97751 0.29137 0.74606 0.0
H2441 H 0.96644 0.27833 0.77919 0.0
H2442 H 0.92267 0.288 0.77473 0.0
H2443 H 0.90376 0.27395 0.77084 0.0
H2444 H 0.91483 0.28381 0.74858 0.0
H2445 H 0.90977 0.25892 0.73075 0.0
H2446 H 0.89773 0.24985 0.75251 0.0
H2447 H 0.9121 0.24577 0.74663 0.0
H2448 H 0.9508 0.26327 0.80867 0.0
H2449 H 0.93179 0.24898 0.83474 0.0
H2450 H 0.8987 0.25007 0.79393 0.0
C2451 C 0.9416 0.2815 0.73533 0.0
C2452 C 0.9568 0.28726 0.73193 0.0
C2453 C 0.96575 0.28646 0.74814 0.0
C2454 C 0.95958 0.27919 0.76702 0.0
C2455 C 0.94447 0.27304 0.76961 0.0
C2456 C 0.93558 0.27429 0.7544 0.0
C2457 C 0.91976 0.26723 0.76176 0.0
C2458 C 0.91498 0.27894 0.76412 0.0
C2459 C 0.90925 0.25472 0.747 0.0
C2460 C 0.92108 0.26126 0.78302 0.0
C2461 C 0.93546 0.26484 0.7872 0.0
C2462 C 0.93949 0.26041 0.80561 0.0
C2463 C 0.92855 0.25214 0.82023 0.0
C2464 C 0.91366 0.24821 0.81636 0.0
C2465 C 0.90995 0.25294 0.79746 0.0
H2466 H 0.71223 0.67756 0.73957 0.0
H2467 H 0.7334 0.66536 0.69171 0.0
H2468 H 0.75153 0.66641 0.71802 0.0
H2469 H 0.74424 0.70123 0.77482 0.0
H2470 H 0.73257 0.69298 0.79696 0.0
H2471 H 0.72463 0.69424 0.77229 0.0
H2472 H 0.70727 0.66537 0.77741 0.0
H2473 H 0.71763 0.66515 0.80013 0.0
H2474 H 0.71549 0.65368 0.77779 0.0
H2475 H 0.76727 0.66875 0.74943 0.0
H2476 H 0.7793 0.67173 0.78418 0.0
H2477 H 0.74655 0.68014 0.81237 0.0
C2478 C 0.721 0.67559 0.73463 0.0
C2479 C 0.72198 0.67209 0.71351 0.0
C2480 C 0.73289 0.66855 0.70773 0.0
C2481 C 0.74316 0.66907 0.72255 0.0
C2482 C 0.74194 0.67253 0.74329 0.0
C2483 C 0.73105 0.67558 0.74944 0.0
C2484 C 0.73116 0.67721 0.77315 0.0
C2485 C 0.73325 0.69232 0.77961 0.0
C2486 C 0.71705 0.6646 0.78268 0.0
C2487 C 0.74446 0.67573 0.77909 0.0
C2488 C 0.75036 0.67278 0.76168 0.0
C2489 C 0.76273 0.67103 0.76319 0.0
C2490 C 0.76945 0.67267 0.78298 0.0
C2491 C 0.76387 0.67619 0.8009 0.0
C2492 C 0.7511 0.67754 0.79889 0.0
H2493 H 0.71734 0.65661 0.62627 0.0
H2494 H 0.73561 0.70401 0.6199 0.0
H2495 H 0.7503 0.70409 0.58983 0.0
H2496 H 0.75064 0.65639 0.61495 0.0
H2497 H 0.7418 0.63925 0.60056 0.0
H2498 H 0.73202 0.64263 0.62097 0.0
H2499 H 0.71105 0.63785 0.59457 0.0
H2500 H 0.72073 0.63436 0.57411 0.0
H2501 H 0.71536 0.64824 0.57042 0.0
H2502 H 0.76312 0.69924 0.56079 0.0
H2503 H 0.77339 0.68978 0.5344 0.0
H2504 H 0.74801 0.64567 0.56052 0.0
C2505 C 0.72427 0.66696 0.61834 0.0
C2506 C 0.72524 0.68029 0.62537 0.0
C2507 C 0.73467 0.69366 0.61482 0.0
C2508 C 0.74305 0.69382 0.59771 0.0
C2509 C 0.742 0.68056 0.59138 0.0
C2510 C 0.73288 0.66737 0.60133 0.0
C2511 C 0.73422 0.65478 0.59174 0.0
C2512 C 0.74002 0.64786 0.60803 0.0
C2513 C 0.71946 0.64312 0.58214 0.0
C2514 C 0.7455 0.66298 0.57484 0.0
C2515 C 0.74978 0.67782 0.57491 0.0
C2516 C 0.75994 0.68765 0.56067 0.0
C2517 C 0.76585 0.68217 0.54585 0.0
C2518 C 0.7617 0.66698 0.54542 0.0
C2519 C 0.75139 0.65731 0.56026 0.0
H2520 H 0.35059 0.05481 0.59845 0.0
H2521 H 0.33524 0.07283 0.64694 0.0
H2522 H 0.33239 0.08888 0.62059 0.0
H2523 H 0.36906 0.08594 0.56122 0.0
H2524 H 0.36093 0.07301 0.54022 0.0
H2525 H 0.36429 0.06687 0.56516 0.0
H2526 H 0.33559 0.04699 0.56104 0.0
H2527 H 0.33354 0.05638 0.53845 0.0
H2528 H 0.32252 0.05355 0.5614 0.0
H2529 H 0.33341 0.10441 0.58965 0.0
H2530 H 0.33504 0.11619 0.55521 0.0
H2531 H 0.34636 0.0856 0.52593 0.0
C2532 C 0.34693 0.06239 0.60343 0.0
C2533 C 0.34388 0.06331 0.62474 0.0
C2534 C 0.33809 0.07246 0.63071 0.0
C2535 C 0.33642 0.08155 0.61589 0.0
C2536 C 0.33983 0.08069 0.59503 0.0
C2537 C 0.34455 0.07104 0.58864 0.0
C2538 C 0.34557 0.07094 0.56487 0.0
C2539 C 0.36089 0.07436 0.55754 0.0
C2540 C 0.33359 0.05608 0.55592 0.0
C2541 C 0.34242 0.08326 0.55923 0.0
C2542 C 0.33884 0.08853 0.57681 0.0
C2543 C 0.33599 0.10025 0.5757 0.0
C2544 C 0.33694 0.10687 0.5561 0.0
C2545 C 0.34084 0.10182 0.53793 0.0
C2546 C 0.34346 0.08976 0.53957 0.0
H2547 H 0.94433 0.25802 0.63654 0.0
H2548 H 0.94723 0.3011 0.63897 0.0
H2549 H 0.92962 0.29406 0.60956 0.0
H2550 H 0.94259 0.25494 0.58055 0.0
H2551 H 0.92967 0.23542 0.58017 0.0
H2552 H 0.94205 0.24345 0.60222 0.0
H2553 H 0.9199 0.23285 0.62753 0.0
H2554 H 0.90745 0.22477 0.60554 0.0
H2555 H 0.90529 0.23706 0.62315 0.0
H2556 H 0.91246 0.28301 0.57942 0.0
H2557 H 0.89706 0.26862 0.54945 0.0
H2558 H 0.90476 0.23245 0.56611 0.0
C2559 C 0.9412 0.26593 0.63098 0.0
C2560 C 0.94723 0.28013 0.64014 0.0
C2561 C 0.94286 0.29018 0.63225 0.0
C2562 C 0.9328 0.28628 0.61556 0.0
C2563 C 0.92715 0.27229 0.60684 0.0
C2564 C 0.93117 0.26225 0.61418 0.0
C2565 C 0.92375 0.2481 0.60141 0.0
C2566 C 0.9352 0.24532 0.59044 0.0
C2567 C 0.91349 0.23492 0.61523 0.0
C2568 C 0.91509 0.25187 0.58566 0.0
C2569 C 0.91716 0.26584 0.58923 0.0
C2570 C 0.91062 0.27198 0.57656 0.0
C2571 C 0.90179 0.26366 0.55965 0.0
C2572 C 0.89955 0.24932 0.55549 0.0
C2573 C 0.90627 0.24337 0.56882 0.0
H2574 H 0.3424 0.2975 0.61134 0.0
H2575 H 0.32418 0.2625 0.65764 0.0
H2576 H 0.32458 0.24502 0.63172 0.0
H2577 H 0.31899 0.27271 0.57004 0.0
H2578 H 0.33204 0.28184 0.54935 0.0
H2579 H 0.33185 0.29222 0.57181 0.0
H2580 H 0.3599 0.30078 0.58126 0.0
H2581 H 0.35917 0.29223 0.55642 0.0
H2582 H 0.3653 0.28676 0.57937 0.0
H2583 H 0.32777 0.23164 0.60103 0.0
H2584 H 0.33236 0.22303 0.56719 0.0
H2585 H 0.34606 0.26609 0.53987 0.0
C2586 C 0.33887 0.28623 0.61605 0.0
C2587 C 0.3339 0.28139 0.63666 0.0
C2588 C 0.32844 0.26641 0.64205 0.0
C2589 C 0.32859 0.25644 0.62745 0.0
C2590 C 0.33361 0.26152 0.60723 0.0
C2591 C 0.33843 0.276 0.60138 0.0
C2592 C 0.3416 0.27814 0.57802 0.0
C2593 C 0.33046 0.28142 0.56664 0.0
C2594 C 0.35744 0.29024 0.5736 0.0
C2595 C 0.33917 0.263 0.57216 0.0
C2596 C 0.33428 0.25348 0.58912 0.0
C2597 C 0.33152 0.23897 0.5876 0.0
C2598 C 0.33412 0.23417 0.56835 0.0
C2599 C 0.33961 0.24391 0.55101 0.0
C2600 C 0.34195 0.25843 0.55294 0.0
H2601 H 0.71722 0.04997 0.63204 0.0
H2602 H 0.75171 0.03998 0.64952 0.0
H2603 H 0.76651 0.05482 0.61971 0.0
H2604 H 0.7215 0.04913 0.57518 0.0
H2605 H 0.71797 0.0642 0.5704 0.0
H2606 H 0.70973 0.05216 0.59256 0.0
H2607 H 0.72113 0.07481 0.61747 0.0
H2608 H 0.72953 0.0869 0.59542 0.0
H2609 H 0.74073 0.08715 0.61734 0.0
H2610 H 0.77825 0.07184 0.58921 0.0
H2611 H 0.78559 0.08903 0.55916 0.0
H2612 H 0.7433 0.08745 0.56085 0.0
C2613 C 0.7278 0.05072 0.62948 0.0
C2614 C 0.73324 0.04374 0.64322 0.0
C2615 C 0.74722 0.04516 0.63929 0.0
C2616 C 0.75576 0.0536 0.62238 0.0
C2617 C 0.75018 0.06053 0.60941 0.0
C2618 C 0.73648 0.05909 0.61264 0.0
C2619 C 0.73321 0.06794 0.59659 0.0
C2620 C 0.71981 0.05775 0.58287 0.0
C2621 C 0.73102 0.07991 0.60736 0.0
C2622 C 0.74727 0.07468 0.58403 0.0
C2623 C 0.75691 0.07026 0.59168 0.0
C2624 C 0.77073 0.07527 0.58293 0.0
C2625 C 0.77478 0.08499 0.56579 0.0
C2626 C 0.76503 0.08959 0.55751 0.0
C2627 C 0.7511 0.08432 0.56688 0.0
H2628 H 0.94802 0.67942 0.6361 0.0
H2629 H 0.96766 0.65442 0.61179 0.0
H2630 H 0.95403 0.65062 0.57827 0.0
H2631 H 0.91176 0.65924 0.61089 0.0
H2632 H 0.91121 0.67595 0.60579 0.0
H2633 H 0.92165 0.675 0.62791 0.0
H2634 H 0.9443 0.69861 0.61272 0.0
H2635 H 0.93363 0.6984 0.59014 0.0
H2636 H 0.95049 0.69796 0.58661 0.0
H2637 H 0.93781 0.6488 0.54824 0.0
H2638 H 0.92179 0.65111 0.52157 0.0
H2639 H 0.91333 0.67838 0.56438 0.0
C2640 C 0.94925 0.673 0.62374 0.0
C2641 C 0.95821 0.66649 0.62672 0.0
C2642 C 0.96022 0.65881 0.61001 0.0
C2643 C 0.95264 0.65672 0.59093 0.0
C2644 C 0.9434 0.66274 0.5887 0.0
C2645 C 0.94183 0.67093 0.60447 0.0
C2646 C 0.93197 0.67704 0.59735 0.0
C2647 C 0.91835 0.67147 0.61134 0.0
C2648 C 0.94062 0.69401 0.59666 0.0
C2649 C 0.92786 0.67055 0.57541 0.0
C2650 C 0.9346 0.66235 0.5708 0.0
C2651 C 0.93247 0.65519 0.55162 0.0
C2652 C 0.92324 0.65646 0.53665 0.0
C2653 C 0.9162 0.66482 0.54093 0.0
C2654 C 0.91861 0.67198 0.5606 0.0
H2655 H 0.95886 0.68509 0.72026 0.0
H2656 H 0.9355 0.63717 0.72402 0.0
H2657 H 0.92103 0.63819 0.7534 0.0
H2658 H 0.96021 0.69185 0.77668 0.0
H2659 H 0.95716 0.70737 0.77388 0.0
H2660 H 0.96623 0.70312 0.75335 0.0
H2661 H 0.94685 0.70179 0.72635 0.0
H2662 H 0.9377 0.70598 0.74682 0.0
H2663 H 0.9276 0.68953 0.73116 0.0
H2664 H 0.90886 0.64392 0.78186 0.0
H2665 H 0.8996 0.65421 0.80847 0.0
H2666 H 0.92986 0.69853 0.78647 0.0
C2667 C 0.9508 0.67484 0.72742 0.0
C2668 C 0.94835 0.66105 0.71974 0.0
C2669 C 0.93757 0.64788 0.72944 0.0
C2670 C 0.92928 0.64832 0.74622 0.0
C2671 C 0.93181 0.66201 0.75321 0.0
C2672 C 0.94228 0.67505 0.74422 0.0
C2673 C 0.94243 0.68822 0.75467 0.0
C2674 C 0.9574 0.69823 0.76528 0.0
C2675 C 0.9384 0.69689 0.7388 0.0
C2676 C 0.93041 0.68046 0.77086 0.0
C2677 C 0.9245 0.66535 0.76967 0.0
C2678 C 0.91332 0.65574 0.78289 0.0
C2679 C 0.90803 0.66172 0.79785 0.0
C2680 C 0.91381 0.67719 0.79946 0.0
C2681 C 0.9252 0.68666 0.78572 0.0
H2682 H 0.35957 0.28521 0.72509 0.0
H2683 H 0.31717 0.28293 0.73192 0.0
H2684 H 0.31246 0.26747 0.76357 0.0
H2685 H 0.3479 0.24797 0.74091 0.0
H2686 H 0.36482 0.25266 0.75469 0.0
H2687 H 0.3649 0.26365 0.73266 0.0
H2688 H 0.3771 0.28714 0.75595 0.0
H2689 H 0.3771 0.27623 0.77803 0.0
H2690 H 0.36847 0.28748 0.78015 0.0
H2691 H 0.31237 0.2522 0.79454 0.0
H2692 H 0.31722 0.23893 0.82304 0.0
H2693 H 0.35945 0.25083 0.79548 0.0
C2694 C 0.3493 0.28154 0.73323 0.0
C2695 C 0.33876 0.28535 0.72594 0.0
C2696 C 0.32545 0.28021 0.73713 0.0
C2697 C 0.32265 0.27139 0.75513 0.0
C2698 C 0.33324 0.26777 0.76175 0.0
C2699 C 0.34631 0.27272 0.75117 0.0
C2700 C 0.35589 0.26729 0.76154 0.0
C2701 C 0.35853 0.2573 0.74656 0.0
C2702 C 0.3705 0.28031 0.76939 0.0
C2703 C 0.3462 0.25857 0.77969 0.0
C2704 C 0.33316 0.25893 0.7795 0.0
C2705 C 0.32251 0.25178 0.7948 0.0
C2706 C 0.32533 0.24417 0.81084 0.0
C2707 C 0.33869 0.24376 0.8115 0.0
C2708 C 0.34918 0.25101 0.79556 0.0
H2709 H 0.71431 0.04072 0.75576 0.0
H2710 H 0.73786 0.06929 0.70369 0.0
H2711 H 0.75517 0.08826 0.72867 0.0
H2712 H 0.71696 0.07194 0.78535 0.0
H2713 H 0.71751 0.06443 0.81072 0.0
H2714 H 0.70783 0.05221 0.7891 0.0
H2715 H 0.72426 0.03914 0.79208 0.0
H2716 H 0.73117 0.05023 0.81552 0.0
H2717 H 0.74379 0.05118 0.796 0.0
H2718 H 0.77124 0.10282 0.75933 0.0
H2719 H 0.78236 0.1142 0.79371 0.0
H2720 H 0.7458 0.07824 0.8258 0.0
C2721 C 0.72335 0.05086 0.74976 0.0
C2722 C 0.72545 0.05332 0.72791 0.0
C2723 C 0.73659 0.06707 0.72043 0.0
C2724 C 0.7464 0.07788 0.73447 0.0
C2725 C 0.74433 0.07503 0.75595 0.0
C2726 C 0.7328 0.06206 0.76361 0.0
C2727 C 0.73182 0.0627 0.78734 0.0
C2728 C 0.71769 0.06283 0.79348 0.0
C2729 C 0.73279 0.05002 0.79831 0.0
C2730 C 0.74533 0.07748 0.7919 0.0
C2731 C 0.75239 0.0844 0.77356 0.0
C2732 C 0.76567 0.09767 0.77379 0.0
C2733 C 0.77193 0.10401 0.7933 0.0
C2734 C 0.76479 0.09716 0.81222 0.0
C2735 C 0.75127 0.08382 0.81148 0.0
H2736 H 0.03099 0.34309 0.02717 0.0
H2737 H 0.0567 0.39047 0.03731 0.0
H2738 H 0.07543 0.38718 0.05639 0.0
H2739 H 0.03873 0.3321 0.07714 0.0
H2740 H 0.04028 0.31682 0.06689 0.0
H2741 H 0.0287 0.32269 0.05368 0.0
H2742 H 0.04286 0.32606 0.01908 0.0
H2743 H 0.05448 0.32018 0.03219 0.0
H2744 H 0.06256 0.33774 0.01887 0.0
H2745 H 0.09068 0.37905 0.07599 0.0
H2746 H 0.10237 0.36653 0.09384 0.0
H2747 H 0.06831 0.32443 0.06901 0.0
C2748 C 0.04057 0.35274 0.03341 0.0
C2749 C 0.04234 0.36703 0.0307 0.0
C2750 C 0.05509 0.37941 0.03901 0.0
C2751 C 0.06582 0.37768 0.04995 0.0
C2752 C 0.06378 0.36352 0.05232 0.0
C2753 C 0.05158 0.35125 0.04419 0.0
C2754 C 0.05231 0.33731 0.04895 0.0
C2755 C 0.03923 0.3266 0.06247 0.0
C2756 C 0.0531 0.32989 0.02856 0.0
C2757 C 0.06669 0.34371 0.06128 0.0
C2758 C 0.07304 0.35884 0.06304 0.0
C2759 C 0.08598 0.36722 0.07441 0.0
C2760 C 0.09264 0.35997 0.08435 0.0
C2761 C 0.08652 0.34443 0.08266 0.0
C2762 C 0.07335 0.33627 0.07079 0.0
H2763 H 0.65686 0.68916 0.02175 0.0
H2764 H 0.65248 0.66468 0.07921 0.0
H2765 H 0.65568 0.68595 0.10014 0.0
H2766 H 0.68534 0.72465 0.0423 0.0
H2767 H 0.67851 0.73512 0.02815 0.0
H2768 H 0.67579 0.71793 0.01754 0.0
H2769 H 0.64772 0.70817 0.0154 0.0
H2770 H 0.65034 0.72528 0.02616 0.0
H2771 H 0.63804 0.70804 0.03875 0.0
H2772 H 0.65783 0.70901 0.11481 0.0
H2773 H 0.66179 0.7339 0.12275 0.0
H2774 H 0.66656 0.7445 0.05625 0.0
C2775 C 0.65665 0.68834 0.03874 0.0
C2776 C 0.65437 0.67526 0.04888 0.0
C2777 C 0.65427 0.67461 0.07112 0.0
C2778 C 0.65601 0.6866 0.08315 0.0
C2779 C 0.65806 0.69926 0.07271 0.0
C2780 C 0.65866 0.70036 0.05105 0.0
C2781 C 0.66145 0.71546 0.04391 0.0
C2782 C 0.67615 0.72378 0.03229 0.0
C2783 C 0.64862 0.71415 0.03025 0.0
C2784 C 0.66213 0.72258 0.06495 0.0
C2785 C 0.65996 0.71293 0.08131 0.0
C2786 C 0.65964 0.71671 0.10217 0.0
C2787 C 0.66179 0.73081 0.10651 0.0
C2788 C 0.6644 0.74103 0.0901 0.0
C2789 C 0.66459 0.73686 0.06905 0.0
H2790 H 0.3169 0.95165 0.02364 0.0
H2791 H 0.32383 0.99081 0.05706 0.0
H2792 H 0.29953 0.9764 0.07372 0.0
H2793 H 0.27682 0.93482 0.01569 0.0
H2794 H 0.27362 0.91639 0.02041 0.0
H2795 H 0.29075 0.93011 0.0092 0.0
H2796 H 0.30514 0.92564 0.03913 0.0
H2797 H 0.28809 0.91191 0.05038 0.0
H2798 H 0.30104 0.9273 0.0661 0.0
H2799 H 0.27522 0.95753 0.08822 0.0
H2800 H 0.25367 0.93525 0.10184 0.0
H2801 H 0.26279 0.90803 0.05997 0.0
C2802 C 0.31316 0.95723 0.03416 0.0
C2803 C 0.32215 0.97237 0.03892 0.0
C2804 C 0.31707 0.97923 0.05316 0.0
C2805 C 0.30327 0.97116 0.06261 0.0
C2806 C 0.29472 0.95621 0.05775 0.0
C2807 C 0.2995 0.94927 0.04398 0.0
C2808 C 0.28879 0.93282 0.04292 0.0
C2809 C 0.2821 0.92827 0.02073 0.0
C2810 C 0.29621 0.9239 0.05006 0.0
C2811 C 0.27738 0.93155 0.05855 0.0
C2812 C 0.28088 0.94521 0.06662 0.0
C2813 C 0.27229 0.9468 0.08185 0.0
C2814 C 0.25999 0.93407 0.08939 0.0
C2815 C 0.25645 0.91989 0.08188 0.0
C2816 C 0.26518 0.91871 0.06599 0.0
H2817 H 0.37327 0.05019 0.98654 0.0
H2818 H 0.33397 0.00746 0.97848 0.0
H2819 H 0.32148 0.01958 0.96112 0.0
H2820 H 0.35442 0.07078 0.99737 0.0
H2821 H 0.36753 0.08693 0.98327 0.0
H2822 H 0.37329 0.07495 0.99556 0.0
H2823 H 0.38313 0.07177 0.95988 0.0
H2824 H 0.37743 0.08375 0.9475 0.0
H2825 H 0.37099 0.06543 0.9373 0.0
H2826 H 0.31359 0.03621 0.94334 0.0
H2827 H 0.31091 0.05603 0.92619 0.0
H2828 H 0.35501 0.08809 0.94706 0.0
C2829 C 0.36203 0.04334 0.98116 0.0
C2830 C 0.35464 0.02783 0.98387 0.0
C2831 C 0.3399 0.01935 0.97663 0.0
C2832 C 0.33269 0.02613 0.96676 0.0
C2833 C 0.34031 0.04142 0.96434 0.0
C2834 C 0.35464 0.04993 0.97136 0.0
C2835 C 0.36042 0.06613 0.96654 0.0
C2836 C 0.36413 0.07523 0.9869 0.0
C2837 C 0.37378 0.07212 0.95193 0.0
C2838 C 0.34717 0.06538 0.9554 0.0
C2839 C 0.33567 0.05104 0.95438 0.0
C2840 C 0.32246 0.04751 0.94426 0.0
C2841 C 0.32101 0.05891 0.9347 0.0
C2842 C 0.33269 0.07373 0.93535 0.0
C2843 C 0.34588 0.07693 0.94611 0.0
H2844 H 0.95968 0.31618 0.00375 0.0
H2845 H 0.99689 0.31978 0.96946 0.0
H2846 H 0.98091 0.29527 0.95345 0.0
H2847 H 0.93949 0.27521 0.01124 0.0
H2848 H 0.9219 0.27403 0.00653 0.0
H2849 H 0.93671 0.29039 0.01836 0.0
H2850 H 0.9341 0.30639 0.9891 0.0
H2851 H 0.91937 0.29011 0.97715 0.0
H2852 H 0.93528 0.30224 0.96193 0.0
H2853 H 0.96057 0.27168 0.93863 0.0
H2854 H 0.93725 0.25189 0.92385 0.0
H2855 H 0.91285 0.26429 0.96605 0.0
C2856 C 0.96453 0.31153 0.99345 0.0
C2857 C 0.97956 0.31965 0.98815 0.0
C2858 C 0.98544 0.31359 0.9739 0.0
C2859 C 0.97646 0.29967 0.96481 0.0
C2860 C 0.96158 0.29206 0.96994 0.0
C2861 C 0.95563 0.29782 0.98384 0.0
C2862 C 0.93901 0.28839 0.98454 0.0
C2863 C 0.93399 0.2816 0.00647 0.0
C2864 C 0.93151 0.29732 0.97777 0.0
C2865 C 0.93651 0.27667 0.96845 0.0
C2866 C 0.9497 0.27879 0.9606 0.0
C2867 C 0.95019 0.26979 0.94487 0.0
C2868 C 0.93687 0.25852 0.93664 0.0
C2869 C 0.92322 0.25646 0.94391 0.0
C2870 C 0.92311 0.26555 0.96027 0.0
H2871 H 0.68232 0.63125 0.9696 0.0
H2872 H 0.693 0.66633 0.01464 0.0
H2873 H 0.71874 0.67921 0.00228 0.0
H2874 H 0.71664 0.63098 0.97197 0.0
H2875 H 0.71707 0.62811 0.94413 0.0
H2876 H 0.6997 0.62129 0.95716 0.0
H2877 H 0.69229 0.63579 0.93112 0.0
H2878 H 0.70957 0.64253 0.91789 0.0
H2879 H 0.70428 0.65538 0.92792 0.0
H2880 H 0.74352 0.68767 0.98588 0.0
H2881 H 0.76472 0.69291 0.96379 0.0
H2882 H 0.73707 0.65362 0.92678 0.0
C2883 C 0.69011 0.64161 0.9769 0.0
C2884 C 0.68575 0.64777 0.99318 0.0
C2885 C 0.69615 0.66146 0.00212 0.0
C2886 C 0.71079 0.6688 0.99529 0.0
C2887 C 0.71477 0.6624 0.97927 0.0
C2888 C 0.70467 0.64925 0.96992 0.0
C2889 C 0.71155 0.64522 0.95212 0.0
C2890 C 0.71122 0.63053 0.95662 0.0
C2891 C 0.70398 0.64471 0.93101 0.0
C2892 C 0.72713 0.6581 0.953 0.0
C2893 C 0.72881 0.66776 0.96897 0.0
C2894 C 0.74227 0.6803 0.97311 0.0
C2895 C 0.75426 0.68324 0.9603 0.0
C2896 C 0.7527 0.67386 0.94316 0.0
C2897 C 0.73888 0.66101 0.93977 0.0
H2898 H 0.97236 0.65663 0.95429 0.0
H2899 H 0.95941 0.65627 0.01892 0.0
H2900 H 0.94174 0.66419 0.00717 0.0
H2901 H 0.96915 0.68803 0.93627 0.0
H2902 H 0.96158 0.67995 0.91098 0.0
H2903 H 0.97383 0.67515 0.92464 0.0
H2904 H 0.95414 0.64746 0.92235 0.0
H2905 H 0.94181 0.65218 0.90876 0.0
H2906 H 0.93602 0.64139 0.93255 0.0
H2907 H 0.92573 0.67256 0.98833 0.0
H2908 H 0.91136 0.67909 0.96347 0.0
H2909 H 0.93334 0.67208 0.91106 0.0
C2910 C 0.96592 0.65839 0.96596 0.0
C2911 C 0.96733 0.656 0.98753 0.0
C2912 C 0.95851 0.6581 0.00232 0.0
C2913 C 0.94847 0.66262 0.9958 0.0
C2914 C 0.94723 0.66477 0.97439 0.0
C2915 C 0.95561 0.66259 0.95967 0.0
C2916 C 0.9516 0.66491 0.93754 0.0
C2917 C 0.96483 0.67778 0.92672 0.0
C2918 C 0.94553 0.65063 0.92454 0.0
C2919 C 0.9397 0.66876 0.94212 0.0
C2920 C 0.93746 0.6688 0.96349 0.0
C2921 C 0.92731 0.67246 0.97156 0.0
C2922 C 0.91922 0.67615 0.95739 0.0
C2923 C 0.92117 0.67589 0.93546 0.0
C2924 C 0.93151 0.67212 0.92778 0.0
H2925 H 0.38117 0.3261 0.98397 0.0
H2926 H 0.33763 0.31496 0.0054 0.0
H2927 H 0.32768 0.28985 0.99049 0.0
H2928 H 0.36923 0.30667 0.93482 0.0
H2929 H 0.38304 0.30109 0.93524 0.0
H2930 H 0.38657 0.3179 0.9481 0.0
H2931 H 0.39226 0.30856 0.98292 0.0
H2932 H 0.38861 0.29165 0.97022 0.0
H2933 H 0.37873 0.29105 0.99359 0.0
H2934 H 0.32277 0.26556 0.9739 0.0
H2935 H 0.32287 0.24509 0.9546 0.0
H2936 H 0.36943 0.27316 0.94223 0.0
C2937 C 0.36954 0.31838 0.9856 0.0
C2938 C 0.36019 0.32247 0.99597 0.0
C2939 C 0.345 0.31209 0.99748 0.0
C2940 C 0.33926 0.29778 0.98916 0.0
C2941 C 0.34884 0.2941 0.97918 0.0
C2942 C 0.36362 0.30419 0.97716 0.0
C2943 C 0.37152 0.29774 0.96508 0.0
C2944 C 0.37796 0.30636 0.94459 0.0
C2945 C 0.38349 0.29722 0.97878 0.0
C2946 C 0.35891 0.28239 0.96067 0.0
C2947 C 0.34593 0.28042 0.96908 0.0
C2948 C 0.33286 0.26705 0.9671 0.0
C2949 C 0.33302 0.25549 0.95598 0.0
C2950 C 0.34614 0.25739 0.94673 0.0
C2951 C 0.35923 0.27108 0.94934 0.0
H2952 H 0.68116 0.02637 0.96832 0.0
H2953 H 0.68103 0.04908 0.02525 0.0
H2954 H 0.70547 0.07 0.01608 0.0
H2955 H 0.72021 0.03809 0.96953 0.0
H2956 H 0.72184 0.03983 0.94134 0.0
H2957 H 0.70465 0.02658 0.9529 0.0
H2958 H 0.6913 0.03823 0.93246 0.0
H2959 H 0.70843 0.05154 0.92091 0.0
H2960 H 0.69767 0.0577 0.93525 0.0
H2961 H 0.72942 0.08919 0.99916 0.0
H2962 H 0.75132 0.10413 0.97718 0.0
H2963 H 0.73566 0.06829 0.93212 0.0
C2964 C 0.6863 0.03569 0.97898 0.0
C2965 C 0.67918 0.03611 0.9975 0.0
C2966 C 0.68631 0.0485 0.01101 0.0
C2967 C 0.70017 0.06044 0.0059 0.0
C2968 C 0.7068 0.05974 0.98734 0.0
C2969 C 0.70013 0.04759 0.97422 0.0
C2970 C 0.70943 0.04953 0.95513 0.0
C2971 C 0.71432 0.03781 0.95471 0.0
C2972 C 0.70122 0.04923 0.93474 0.0
C2973 C 0.7223 0.06475 0.95936 0.0
C2974 C 0.72061 0.07052 0.97797 0.0
C2975 C 0.73091 0.0847 0.98467 0.0
C2976 C 0.74327 0.09314 0.97206 0.0
C2977 C 0.74526 0.08732 0.95307 0.0
C2978 C 0.73459 0.07293 0.94676 0.0
H2979 H 0.63484 0.96483 0.05626 0.0
H2980 H 0.6591 0.97073 0.99898 0.0
H2981 H 0.66713 0.95332 0.0122 0.0
H2982 H 0.66116 0.96095 0.09216 0.0
H2983 H 0.64652 0.9473 0.10798 0.0
H2984 H 0.64426 0.96145 0.09486 0.0
H2985 H 0.62046 0.94127 0.07688 0.0
H2986 H 0.62275 0.92706 0.08965 0.0
H2987 H 0.62117 0.92718 0.0614 0.0
H2988 H 0.67042 0.93342 0.03052 0.0
H2989 H 0.66957 0.91348 0.05286 0.0
H2990 H 0.64337 0.92108 0.09834 0.0
C2991 C 0.64221 0.96276 0.04686 0.0
C2992 C 0.64667 0.96924 0.02688 0.0
C2993 C 0.6559 0.96603 0.01455 0.0
C2994 C 0.66044 0.95614 0.0219 0.0
C2995 C 0.65563 0.94965 0.0416 0.0
C2996 C 0.64687 0.95298 0.05401 0.0
C2997 C 0.64255 0.94397 0.07404 0.0
C2998 C 0.64901 0.95402 0.09341 0.0
C2999 C 0.62574 0.9343 0.07556 0.0
C3000 C 0.64985 0.9347 0.0707 0.0
C3001 C 0.65745 0.93821 0.05201 0.0
C3002 C 0.66466 0.93072 0.04531 0.0
C3003 C 0.66413 0.91943 0.05811 0.0
C3004 C 0.65637 0.91566 0.07733 0.0
C3005 C 0.64923 0.92352 0.08362 0.0
H3006 H 0.04861 0.68612 0.03237 0.0
H3007 H 0.00549 0.67927 0.04903 0.0
H3008 H 0.01728 0.70303 0.06814 0.0
H3009 H 0.0669 0.70252 0.08076 0.0
H3010 H 0.08389 0.7156 0.06853 0.0
H3011 H 0.07206 0.69815 0.05599 0.0
H3012 H 0.07118 0.71177 0.02224 0.0
H3013 H 0.08303 0.72927 0.03467 0.0
H3014 H 0.06546 0.72548 0.02395 0.0
H3015 H 0.03379 0.727 0.0866 0.0
H3016 H 0.05364 0.74971 0.10239 0.0
H3017 H 0.08607 0.74165 0.07203 0.0
C3018 C 0.0416 0.68956 0.04006 0.0
C3019 C 0.02609 0.68074 0.03927 0.0
C3020 C 0.01738 0.6858 0.04939 0.0
C3021 C 0.02398 0.69928 0.0603 0.0
C3022 C 0.03929 0.70765 0.06078 0.0
C3023 C 0.04799 0.70303 0.05083 0.0
C3024 C 0.06419 0.71412 0.05366 0.0
C3025 C 0.07223 0.70718 0.06544 0.0
C3026 C 0.07139 0.72054 0.03236 0.0
C3027 C 0.06326 0.72564 0.067 0.0
C3028 C 0.0488 0.72168 0.07092 0.0
C3029 C 0.04515 0.73032 0.08339 0.0
C3030 C 0.05657 0.74331 0.09214 0.0
C3031 C 0.07154 0.74772 0.08829 0.0
C3032 C 0.07482 0.73868 0.07542 0.0
H3033 H 0.32038 0.36354 0.02825 0.0
H3034 H 0.32457 0.32933 0.06157 0.0
H3035 H 0.2999 0.32024 0.07679 0.0
H3036 H 0.30406 0.37201 0.07047 0.0
H3037 H 0.29211 0.37585 0.05419 0.0
H3038 H 0.30924 0.37855 0.04394 0.0
H3039 H 0.29528 0.36114 0.01274 0.0
H3040 H 0.27808 0.35836 0.02294 0.0
H3041 H 0.28057 0.34271 0.01793 0.0
H3042 H 0.27524 0.31538 0.08924 0.0
H3043 H 0.25347 0.31662 0.1011 0.0
H3044 H 0.26588 0.35501 0.06161 0.0
C3045 C 0.31595 0.35397 0.03845 0.0
C3046 C 0.32424 0.34697 0.04354 0.0
C3047 C 0.31833 0.33476 0.05741 0.0
C3048 C 0.30431 0.32949 0.06603 0.0
C3049 C 0.29645 0.33669 0.06085 0.0
C3050 C 0.30212 0.34878 0.04758 0.0
C3051 C 0.29201 0.35536 0.04616 0.0
C3052 C 0.29982 0.37139 0.05417 0.0
C3053 C 0.28614 0.35433 0.0236 0.0
C3054 C 0.27986 0.34518 0.06087 0.0
C3055 C 0.28251 0.33432 0.06883 0.0
C3056 C 0.273 0.32378 0.08301 0.0
C3057 C 0.26061 0.32451 0.08955 0.0
C3058 C 0.25792 0.33584 0.08217 0.0
C3059 C 0.26763 0.3462 0.06745 0.0
H3060 H 0.72647 0.70428 0.36313 0.0
H3061 H 0.68212 0.66793 0.37224 0.0
H3062 H 0.69227 0.65395 0.39076 0.0
H3063 H 0.74362 0.68217 0.35397 0.0
H3064 H 0.76031 0.69459 0.36787 0.0
H3065 H 0.74956 0.70162 0.35507 0.0
H3066 H 0.74788 0.71317 0.39021 0.0
H3067 H 0.75867 0.70623 0.4031 0.0
H3068 H 0.74086 0.70162 0.41317 0.0
H3069 H 0.70734 0.64407 0.40868 0.0
H3070 H 0.72599 0.6395 0.42591 0.0
H3071 H 0.76043 0.68224 0.40459 0.0
C3072 C 0.71883 0.69338 0.36899 0.0
C3073 C 0.70346 0.68723 0.36618 0.0
C3074 C 0.69393 0.67292 0.37418 0.0
C3075 C 0.69959 0.66487 0.38468 0.0
C3076 C 0.7148 0.67126 0.38704 0.0
C3077 C 0.72428 0.68521 0.37949 0.0
C3078 C 0.74015 0.68972 0.38442 0.0
C3079 C 0.74892 0.69216 0.36412 0.0
C3080 C 0.74731 0.7035 0.39857 0.0
C3081 C 0.73815 0.67616 0.3961 0.0
C3082 C 0.72346 0.66559 0.39733 0.0
C3083 C 0.71889 0.65223 0.40768 0.0
C3084 C 0.72959 0.64968 0.41728 0.0
C3085 C 0.74472 0.66046 0.41651 0.0
C3086 C 0.74898 0.6738 0.40556 0.0
H3087 H 0.32182 0.02162 0.35368 0.0
H3088 H 0.30924 0.99663 0.41189 0.0
H3089 H 0.30993 0.01778 0.43009 0.0
H3090 H 0.34772 0.05642 0.37846 0.0
H3091 H 0.34356 0.0675 0.3608 0.0
H3092 H 0.34155 0.05018 0.35197 0.0
H3093 H 0.31445 0.04143 0.34151 0.0
H3094 H 0.31634 0.05867 0.35053 0.0
H3095 H 0.30204 0.04147 0.36093 0.0
H3096 H 0.31089 0.04089 0.44178 0.0
H3097 H 0.31565 0.06623 0.44784 0.0
H3098 H 0.32954 0.07754 0.38314 0.0
C3099 C 0.31925 0.02067 0.37026 0.0
C3100 C 0.31542 0.00747 0.38138 0.0
C3101 C 0.31228 0.00665 0.4031 0.0
C3102 C 0.31253 0.01857 0.41355 0.0
C3103 C 0.31619 0.03135 0.40216 0.0
C3104 C 0.3198 0.03265 0.38112 0.0
C3105 C 0.32415 0.04801 0.37304 0.0
C3106 C 0.3402 0.056 0.36564 0.0
C3107 C 0.31361 0.04735 0.35546 0.0
C3108 C 0.32233 0.05506 0.3928 0.0
C3109 C 0.31747 0.04511 0.40926 0.0
C3110 C 0.31473 0.04881 0.42904 0.0
C3111 C 0.31734 0.06319 0.43228 0.0
C3112 C 0.32282 0.07379 0.41592 0.0
C3113 C 0.32528 0.06962 0.39587 0.0
H3114 H 0.98019 0.31125 0.39286 0.0
H3115 H 0.97619 0.28448 0.33842 0.0
H3116 H 0.95212 0.26501 0.35087 0.0
H3117 H 0.96434 0.28182 0.42968 0.0
H3118 H 0.95469 0.28925 0.44407 0.0
H3119 H 0.97137 0.30149 0.43048 0.0
H3120 H 0.95769 0.31272 0.4099 0.0
H3121 H 0.94097 0.30055 0.42351 0.0
H3122 H 0.94123 0.30073 0.39517 0.0
H3123 H 0.92915 0.24773 0.37017 0.0
H3124 H 0.90814 0.23449 0.39418 0.0
H3125 H 0.92666 0.27249 0.43573 0.0
C3126 C 0.97417 0.30137 0.38344 0.0
C3127 C 0.98011 0.29942 0.36464 0.0
C3128 C 0.9719 0.28627 0.35285 0.0
C3129 C 0.9582 0.27511 0.3598 0.0
C3130 C 0.95275 0.27726 0.37852 0.0
C3131 C 0.9604 0.2901 0.39011 0.0
C3132 C 0.95212 0.28949 0.40986 0.0
C3133 C 0.96117 0.29057 0.42969 0.0
C3134 C 0.94774 0.30159 0.40958 0.0
C3135 C 0.93875 0.27426 0.40765 0.0
C3136 C 0.93935 0.26737 0.38948 0.0
C3137 C 0.92849 0.25305 0.38437 0.0
C3138 C 0.91666 0.24558 0.39814 0.0
C3139 C 0.91572 0.25248 0.41673 0.0
C3140 C 0.92695 0.26702 0.42146 0.0
H3141 H 0.03548 0.37666 0.2992 0.0
H3142 H 0.99274 0.34675 0.32531 0.0
H3143 H 0.98306 0.36253 0.31101 0.0
H3144 H 0.03587 0.40948 0.31043 0.0
H3145 H 0.04479 0.41877 0.28649 0.0
H3146 H 0.04792 0.40448 0.29709 0.0
H3147 H 0.03937 0.39005 0.26193 0.0
H3148 H 0.03648 0.40445 0.25106 0.0
H3149 H 0.02169 0.3856 0.2509 0.0
H3150 H 0.97904 0.38339 0.29685 0.0
H3151 H 0.98027 0.40573 0.28113 0.0
H3152 H 0.02542 0.42083 0.2629 0.0
C3153 C 0.024 0.37326 0.30159 0.0
C3154 C 0.01485 0.36047 0.31335 0.0
C3155 C 0.9999 0.35641 0.31615 0.0
C3156 C 0.99435 0.36537 0.30821 0.0
C3157 C 0.00384 0.37819 0.29726 0.0
C3158 C 0.01828 0.38193 0.29361 0.0
C3159 C 0.02637 0.39636 0.28179 0.0
C3160 C 0.03951 0.40795 0.29473 0.0
C3161 C 0.03126 0.39397 0.26013 0.0
C3162 C 0.01436 0.40039 0.27973 0.0
C3163 C 1.00144 0.38984 0.28876 0.0
C3164 C 0.98905 0.39158 0.28943 0.0
C3165 C 0.98985 0.40433 0.28039 0.0
C3166 C 1.00294 0.41517 0.27069 0.0
C3167 C 0.01529 0.41302 0.27045 0.0
H3168 H 0.64507 0.66138 0.29045 0.0
H3169 H 0.63254 0.65393 0.35604 0.0
H3170 H 0.61186 0.62915 0.34698 0.0
H3171 H 0.60799 0.64371 0.26943 0.0
H3172 H 0.61244 0.63623 0.24696 0.0
H3173 H 0.62629 0.65319 0.25878 0.0
H3174 H 0.64341 0.64194 0.26374 0.0
H3175 H 0.62964 0.62497 0.25189 0.0
H3176 H 0.63679 0.62475 0.27773 0.0
H3177 H 0.59336 0.60449 0.33062 0.0
H3178 H 0.57762 0.58286 0.30805 0.0
H3179 H 0.60133 0.60748 0.2531 0.0
C3180 C 0.638 0.65452 0.30293 0.0
C3181 C 0.64045 0.65949 0.32398 0.0
C3182 C 0.63084 0.6503 0.33981 0.0
C3183 C 0.6191 0.63622 0.33481 0.0
C3184 C 0.61699 0.63164 0.31386 0.0
C3185 C 0.6261 0.64061 0.29815 0.0
C3186 C 0.62135 0.6333 0.27681 0.0
C3187 C 0.61674 0.64213 0.26214 0.0
C3188 C 0.63352 0.63111 0.26697 0.0
C3189 C 0.60826 0.6187 0.28293 0.0
C3190 C 0.60596 0.61787 0.30439 0.0
C3191 C 0.59494 0.60511 0.31379 0.0
C3192 C 0.58608 0.5929 0.30091 0.0
C3193 C 0.58816 0.59366 0.2789 0.0
C3194 C 0.59933 0.60676 0.26986 0.0
H3195 H 0.34635 0.95856 0.3157 0.0
H3196 H 0.35667 0.99807 0.35109 0.0
H3197 H 0.38217 0.01005 0.33789 0.0
H3198 H 0.38159 0.96003 0.32163 0.0
H3199 H 0.38155 0.95397 0.29512 0.0
H3200 H 0.36441 0.94815 0.30838 0.0
H3201 H 0.35561 0.95865 0.27792 0.0
H3202 H 0.37267 0.96439 0.26451 0.0
H3203 H 0.36686 0.97767 0.27023 0.0
H3204 H 0.4066 0.01754 0.32116 0.0
H3205 H 0.42741 0.02115 0.29933 0.0
H3206 H 0.40049 0.97749 0.27234 0.0
C3207 C 0.35403 0.96968 0.32083 0.0
C3208 C 0.34959 0.97736 0.33458 0.0
C3209 C 0.35985 0.99201 0.34058 0.0
C3210 C 0.37436 0.99885 0.33325 0.0
C3211 C 0.37838 0.99098 0.31972 0.0
C3212 C 0.36846 0.97679 0.31333 0.0
C3213 C 0.3753 0.97112 0.29758 0.0
C3214 C 0.37574 0.95751 0.3062 0.0
C3215 C 0.36713 0.96777 0.2763 0.0
C3216 C 0.39063 0.98434 0.2961 0.0
C3217 C 0.39223 0.99558 0.30923 0.0
C3218 C 0.40541 0.00886 0.31066 0.0
C3219 C 0.41716 0.01084 0.29803 0.0
C3220 C 0.41565 0.99971 0.28377 0.0
C3221 C 0.40218 0.9862 0.28314 0.0
H3222 H 0.64476 0.98891 0.29464 0.0
H3223 H 0.63884 0.99314 0.3611 0.0
H3224 H 0.61887 0.99875 0.35245 0.0
H3225 H 0.63784 0.0174 0.27553 0.0
H3226 H 0.62797 0.00716 0.25246 0.0
H3227 H 0.64206 0.00413 0.26409 0.0
H3228 H 0.62339 0.97619 0.26741 0.0
H3229 H 0.60923 0.97913 0.25583 0.0
H3230 H 0.60641 0.97035 0.28118 0.0
H3231 H 0.59998 0.00482 0.33579 0.0
H3232 H 0.58265 0.00865 0.31299 0.0
H3233 H 0.60002 0.99834 0.25809 0.0
C3234 C 0.63935 0.99114 0.30739 0.0
C3235 C 0.64344 0.99079 0.32853 0.0
C3236 C 0.63589 0.99344 0.34479 0.0
C3237 C 0.62458 0.99665 0.34001 0.0
C3238 C 0.62082 0.9969 0.31892 0.0
C3239 C 0.62789 0.99403 0.30292 0.0
C3240 C 0.62144 0.99428 0.28162 0.0
C3241 C 0.63302 0.00647 0.26761 0.0
C3242 C 0.61472 0.97908 0.27089 0.0
C3243 C 0.60967 0.99788 0.28801 0.0
C3244 C 0.60954 0.99952 0.30956 0.0
C3245 C 0.5999 0.0034 0.31894 0.0
C3246 C 0.59014 0.00557 0.30594 0.0
C3247 C 0.58996 0.00358 0.28394 0.0
C3248 C 0.59984 0.99969 0.27494 0.0
H3249 H 0.01389 0.65205 0.33279 0.0
H3250 H 0.06089 0.67252 0.32182 0.0
H3251 H 0.05704 0.6505 0.30268 0.0
H3252 H 0.0081 0.61503 0.34101 0.0
H3253 H 0.99046 0.60602 0.32784 0.0
H3254 H 0.99665 0.6235 0.34072 0.0
H3255 H 0.9931 0.63454 0.306 0.0
H3256 H 0.98688 0.61709 0.29302 0.0
H3257 H 1.00211 0.6336 0.28252 0.0
H3258 H 0.04851 0.62692 0.28395 0.0
H3259 H 0.03565 0.60263 0.26698 0.0
H3260 H 0.9941 0.59607 0.29121 0.0
C3261 C 0.02334 0.6519 0.3263 0.0
C3262 C 0.0377 0.66409 0.32889 0.0
C3263 C 0.04978 0.66336 0.32023 0.0
C3264 C 0.04773 0.65088 0.30925 0.0
C3265 C 0.03354 0.63908 0.30708 0.0
C3266 C 0.02152 0.63937 0.31537 0.0
C3267 C 0.00747 0.62498 0.31081 0.0
C3268 C 1.00025 0.61691 0.33132 0.0
C3269 C 0.99676 0.62772 0.29728 0.0
C3270 C 0.01353 0.61669 0.29854 0.0
C3271 C 0.02859 0.6251 0.29661 0.0
C3272 C 0.03672 0.62012 0.28557 0.0
C3273 C 0.02928 0.60617 0.27615 0.0
C3274 C 0.01381 0.59716 0.27793 0.0
C3275 C 0.00589 0.60259 0.28941 0.0
H3276 H 0.36173 0.37492 0.33621 0.0
H3277 H 0.33269 0.3661 0.28239 0.0
H3278 H 0.35289 0.38615 0.26272 0.0
H3279 H 0.38408 0.4152 0.32948 0.0
H3280 H 0.40112 0.41577 0.33642 0.0
H3281 H 0.38408 0.40173 0.34742 0.0
H3282 H 0.38921 0.38143 0.33333 0.0
H3283 H 0.40627 0.3954 0.32235 0.0
H3284 H 0.39275 0.38104 0.30573 0.0
H3285 H 0.37578 0.40635 0.24845 0.0
H3286 H 0.40115 0.42423 0.23867 0.0
H3287 H 0.4166 0.41955 0.30039 0.0
C3288 C 0.35967 0.37742 0.3204 0.0
C3289 C 0.34567 0.36913 0.3108 0.0
C3290 C 0.34336 0.37238 0.28995 0.0
C3291 C 0.35473 0.3838 0.27871 0.0
C3292 C 0.36844 0.39172 0.28842 0.0
C3293 C 0.37108 0.38862 0.30866 0.0
C3294 C 0.38726 0.39808 0.31448 0.0
C3295 C 0.38924 0.40831 0.33305 0.0
C3296 C 0.39429 0.38841 0.31925 0.0
C3297 C 0.3932 0.40682 0.29429 0.0
C3298 C 0.38204 0.40312 0.27969 0.0
C3299 C 0.38464 0.40944 0.25977 0.0
C3300 C 0.39909 0.41968 0.25442 0.0
C3301 C 0.41086 0.42344 0.26882 0.0
C3302 C 0.40782 0.41695 0.2891 0.0
H3303 H 0.30578 0.28402 0.35701 0.0
H3304 H 0.34243 0.32836 0.36647 0.0
H3305 H 0.35627 0.31792 0.3847 0.0
H3306 H 0.30782 0.27018 0.40636 0.0
H3307 H 0.30295 0.25201 0.397 0.0
H3308 H 0.29656 0.26288 0.38304 0.0
H3309 H 0.30834 0.26035 0.3488 0.0
H3310 H 0.31474 0.2494 0.36265 0.0
H3311 H 0.32761 0.26579 0.34874 0.0
H3312 H 0.36528 0.30261 0.40423 0.0
H3313 H 0.36862 0.2839 0.42372 0.0
H3314 H 0.32612 0.24968 0.4008 0.0
C3315 C 0.31679 0.2916 0.36265 0.0
C3316 C 0.323 0.30706 0.36026 0.0
C3317 C 0.33742 0.31649 0.36804 0.0
C3318 C 0.34538 0.31066 0.37839 0.0
C3319 C 0.3388 0.29538 0.38071 0.0
C3320 C 0.32485 0.28599 0.37298 0.0
C3321 C 0.3199 0.27006 0.37844 0.0
C3322 C 0.30599 0.2634 0.39202 0.0
C3323 C 0.31751 0.26086 0.35846 0.0
C3324 C 0.33313 0.27194 0.39089 0.0
C3325 C 0.34398 0.2866 0.39187 0.0
C3326 C 0.35694 0.29109 0.40331 0.0
C3327 C 0.35877 0.28034 0.41423 0.0
C3328 C 0.34768 0.26527 0.41371 0.0
C3329 C 0.33479 0.26109 0.40161 0.0
H3330 H 0.69698 0.0192 0.38389 0.0
H3331 H 0.72658 0.02906 0.3314 0.0
H3332 H 0.74248 0.05405 0.34532 0.0
H3333 H 0.70181 0.05679 0.39024 0.0
H3334 H 0.70167 0.05574 0.41854 0.0
H3335 H 0.6914 0.03919 0.40313 0.0
H3336 H 0.70514 0.02732 0.42196 0.0
H3337 H 0.71543 0.04381 0.43739 0.0
H3338 H 0.72497 0.0368 0.42186 0.0
H3339 H 0.75613 0.07719 0.36571 0.0
H3340 H 0.76741 0.09679 0.3925 0.0
H3341 H 0.72997 0.07189 0.43309 0.0
C3342 C 0.70663 0.02677 0.37512 0.0
C3343 C 0.71044 0.02224 0.35641 0.0
C3344 C 0.72338 0.0323 0.34568 0.0
C3345 C 0.73247 0.04656 0.35341 0.0
C3346 C 0.72858 0.05062 0.37204 0.0
C3347 C 0.71603 0.04104 0.38286 0.0
C3348 C 0.71521 0.04779 0.40355 0.0
C3349 C 0.70172 0.05001 0.40387 0.0
C3350 C 0.71519 0.03837 0.42229 0.0
C3351 C 0.7294 0.06248 0.40277 0.0
C3352 C 0.7368 0.06394 0.38429 0.0
C3353 C 0.75042 0.07623 0.38022 0.0
C3354 C 0.75679 0.08726 0.39559 0.0
C3355 C 0.74962 0.08588 0.41492 0.0
C3356 C 0.73562 0.0734 0.41835 0.0
H3357 H 0.98613 0.69249 0.36101 0.0
H3358 H 0.9936 0.66176 0.39825 0.0
H3359 H 0.96869 0.65153 0.41331 0.0
H3360 H 0.9692 0.70125 0.40103 0.0
H3361 H 0.95635 0.70327 0.3841 0.0
H3362 H 0.97367 0.70652 0.3739 0.0
H3363 H 0.96001 0.68717 0.34458 0.0
H3364 H 0.9426 0.68385 0.35473 0.0
H3365 H 0.94618 0.6687 0.35163 0.0
H3366 H 0.94363 0.6458 0.42591 0.0
H3367 H 0.92167 0.64669 0.43782 0.0
H3368 H 0.93125 0.68226 0.39392 0.0
C3369 C 0.98236 0.68335 0.37193 0.0
C3370 C 0.99165 0.67771 0.37823 0.0
C3371 C 0.98657 0.66611 0.3931 0.0
C3372 C 0.97243 0.66021 0.40164 0.0
C3373 C 0.9636 0.66615 0.39531 0.0
C3374 C 0.96843 0.67756 0.38092 0.0
C3375 C 0.95754 0.68313 0.37851 0.0
C3376 C 0.96461 0.69951 0.38477 0.0
C3377 C 0.95121 0.68055 0.35603 0.0
C3378 C 0.94596 0.67328 0.3941 0.0
C3379 C 0.94949 0.66334 0.40327 0.0
C3380 C 0.9407 0.65344 0.41869 0.0
C3381 C 0.92819 0.65396 0.42526 0.0
C3382 C 0.9247 0.66447 0.41668 0.0
C3383 C 0.9336 0.67406 0.40065 0.0
H3384 H 0.37043 0.01792 0.69889 0.0
H3385 H 0.40633 0.0593 0.67577 0.0
H3386 H 0.42417 0.05345 0.69215 0.0
H3387 H 0.38688 0.01843 0.74855 0.0
H3388 H 0.38036 0.99885 0.74927 0.0
H3389 H 0.37009 0.00583 0.73498 0.0
H3390 H 0.37137 0.99268 0.70126 0.0
H3391 H 0.38164 0.98565 0.71547 0.0
H3392 H 0.38902 0.99625 0.69179 0.0
H3393 H 0.4383 0.04423 0.71245 0.0
H3394 H 0.4479 0.03139 0.7349 0.0
H3395 H 0.40343 0.99559 0.74444 0.0
C3396 C 0.38203 0.02569 0.69715 0.0
C3397 C 0.38688 0.03911 0.68604 0.0
C3398 C 0.40222 0.04897 0.68421 0.0
C3399 C 0.41251 0.04575 0.69344 0.0
C3400 C 0.4074 0.03258 0.7044 0.0
C3401 C 0.39256 0.02263 0.70624 0.0
C3402 C 0.39015 0.00939 0.71931 0.0
C3403 C 0.38135 0.00805 0.73921 0.0
C3404 C 0.3826 0.99515 0.70617 0.0
C3405 C 0.40594 0.01361 0.72468 0.0
C3406 C 0.41568 0.02705 0.71589 0.0
C3407 C 0.43081 0.03363 0.71928 0.0
C3408 C 0.43616 0.0263 0.73209 0.0
C3409 C 0.42642 0.01251 0.74125 0.0
C3410 C 0.41112 0.00603 0.73733 0.0
H3411 H 0.9982 0.34916 0.73202 0.0
H3412 H 0.99448 0.35783 0.66609 0.0
H3413 H 0.99852 0.38254 0.67512 0.0
H3414 H 0.97817 0.36442 0.7508 0.0
H3415 H 0.98892 0.37247 0.77432 0.0
H3416 H 0.98854 0.35659 0.76264 0.0
H3417 H 0.01695 0.37073 0.76015 0.0
H3418 H 0.01745 0.38665 0.77206 0.0
H3419 H 0.02606 0.38836 0.74702 0.0
H3420 H 0.99871 0.40432 0.69145 0.0
H3421 H 0.99654 0.42239 0.71412 0.0
H3422 H 1.0006 0.40015 0.76949 0.0
C3423 C 0.99881 0.3565 0.71944 0.0
C3424 C 0.99616 0.35163 0.69833 0.0
C3425 C 0.99657 0.36136 0.68236 0.0
C3426 C 0.99888 0.37544 0.68733 0.0
C3427 C 1.00085 0.37971 0.70836 0.0
C3428 C 1.00105 0.37062 0.72417 0.0
C3429 C 1.00197 0.37732 0.74565 0.0
C3430 C 0.9886 0.36709 0.75913 0.0
C3431 C 0.01647 0.38099 0.75688 0.0
C3432 C 1.00166 0.39125 0.73943 0.0
C3433 C 1.00116 0.39248 0.71783 0.0
C3434 C 0.99945 0.40368 0.70837 0.0
C3435 C 0.99816 0.41384 0.72132 0.0
C3436 C 0.99863 0.41276 0.74347 0.0
C3437 C 1.00061 0.40144 0.75257 0.0
H3438 H 0.64509 0.64668 0.70136 0.0
H3439 H 0.65877 0.61657 0.67712 0.0
H3440 H 0.63602 0.59535 0.69081 0.0
H3441 H 0.629 0.62821 0.74788 0.0
H3442 H 0.61359 0.63146 0.7469 0.0
H3443 H 0.63054 0.64417 0.73434 0.0
H3444 H 0.61667 0.64069 0.69894 0.0
H3445 H 0.59962 0.62808 0.71146 0.0
H3446 H 0.60544 0.62236 0.68847 0.0
H3447 H 0.61365 0.57801 0.71185 0.0
H3448 H 0.59196 0.56544 0.73413 0.0
H3449 H 0.59055 0.60646 0.73912 0.0
C3450 C 0.64314 0.63559 0.69869 0.0
C3451 C 0.65362 0.63317 0.6883 0.0
C3452 C 0.65077 0.61857 0.68495 0.0
C3453 C 0.63793 0.60649 0.69273 0.0
C3454 C 0.62787 0.60922 0.70323 0.0
C3455 C 0.63014 0.62339 0.70569 0.0
C3456 C 0.61754 0.6233 0.71736 0.0
C3457 C 0.623 0.63232 0.73783 0.0
C3458 C 0.60933 0.62894 0.70321 0.0
C3459 C 0.60815 0.60695 0.72184 0.0
C3460 C 0.61434 0.59903 0.71373 0.0
C3461 C 0.60842 0.58401 0.7177 0.0
C3462 C 0.59588 0.5769 0.73035 0.0
C3463 C 0.58905 0.58469 0.73861 0.0
C3464 C 0.59529 0.59993 0.73369 0.0
H3465 H 0.69662 0.7201 0.6575 0.0
H3466 H 0.66253 0.67628 0.63864 0.0
H3467 H 0.64959 0.68734 0.6196 0.0
H3468 H 0.6725 0.73593 0.6645 0.0
H3469 H 0.68587 0.75367 0.65426 0.0
H3470 H 0.69187 0.74221 0.66758 0.0
H3471 H 0.70712 0.74344 0.63503 0.0
H3472 H 0.70114 0.75485 0.62159 0.0
H3473 H 0.69815 0.7379 0.6097 0.0
H3474 H 0.64131 0.70335 0.60053 0.0
H3475 H 0.63829 0.72284 0.58302 0.0
H3476 H 0.67743 0.75622 0.61524 0.0
C3477 C 0.68635 0.71276 0.64958 0.0
C3478 C 0.68062 0.69727 0.64962 0.0
C3479 C 0.66716 0.68816 0.63892 0.0
C3480 C 0.65971 0.69434 0.62806 0.0
C3481 C 0.66579 0.70965 0.62815 0.0
C3482 C 0.67877 0.71873 0.63872 0.0
C3483 C 0.68329 0.73487 0.6357 0.0
C3484 C 0.68339 0.74209 0.65676 0.0
C3485 C 0.69831 0.74325 0.62486 0.0
C3486 C 0.67098 0.73349 0.6214 0.0
C3487 C 0.66095 0.71885 0.61735 0.0
C3488 C 0.64898 0.71483 0.60385 0.0
C3489 C 0.64731 0.72604 0.59408 0.0
C3490 C 0.65753 0.74117 0.59782 0.0
C3491 C 0.66942 0.74483 0.61191 0.0
H3492 H 0.30159 0.99622 0.66506 0.0
H3493 H 0.33813 0.99372 0.63793 0.0
H3494 H 0.32098 0.96878 0.62424 0.0
H3495 H 0.27792 0.95612 0.67752 0.0
H3496 H 0.26134 0.9562 0.66965 0.0
H3497 H 0.27661 0.97264 0.68052 0.0
H3498 H 0.27673 0.98735 0.64747 0.0
H3499 H 0.26155 0.97096 0.63645 0.0
H3500 H 0.27833 0.98097 0.62184 0.0
H3501 H 0.29992 0.94533 0.61077 0.0
H3502 H 0.2764 0.92564 0.59651 0.0
H3503 H 0.25305 0.94364 0.63062 0.0
C3504 C 0.30597 0.99016 0.65687 0.0
C3505 C 0.32119 0.99668 0.65292 0.0
C3506 C 0.32652 0.98877 0.64134 0.0
C3507 C 0.31686 0.9746 0.63356 0.0
C3508 C 0.30186 0.96858 0.63724 0.0
C3509 C 0.2964 0.97611 0.64854 0.0
C3510 C 0.2797 0.9679 0.64806 0.0
C3511 C 0.27353 0.96292 0.67026 0.0
C3512 C 0.27374 0.97736 0.63784 0.0
C3513 C 0.27666 0.95479 0.63434 0.0
C3514 C 0.2896 0.95527 0.62865 0.0
C3515 C 0.2897 0.94473 0.61535 0.0
C3516 C 0.27624 0.93352 0.60741 0.0
C3517 C 0.26282 0.93297 0.61255 0.0
C3518 C 0.2631 0.94371 0.62642 0.0
H3519 H 0.02528 0.32718 0.66066 0.0
H3520 H 1.00063 0.28134 0.64093 0.0
H3521 H 0.02171 0.28453 0.62016 0.0
H3522 H 0.04466 0.34195 0.61145 0.0
H3523 H 0.06167 0.35496 0.62412 0.0
H3524 H 0.04441 0.34937 0.63689 0.0
H3525 H 0.05358 0.34121 0.66961 0.0
H3526 H 0.07084 0.34669 0.6569 0.0
H3527 H 0.05998 0.3281 0.66658 0.0
H3528 H 0.0451 0.29236 0.60152 0.0
H3529 H 0.06966 0.30445 0.58589 0.0
H3530 H 0.08031 0.34497 0.61915 0.0
C3531 C 0.02429 0.3179 0.65175 0.0
C3532 C 0.01127 0.30402 0.65239 0.0
C3533 C 0.01049 0.29206 0.64077 0.0
C3534 C 0.0224 0.29375 0.62888 0.0
C3535 C 0.03513 0.30745 0.62884 0.0
C3536 C 0.03623 0.31934 0.63994 0.0
C3537 C 0.05143 0.33271 0.63756 0.0
C3538 C 0.05048 0.3455 0.62686 0.0
C3539 C 0.05943 0.33745 0.65894 0.0
C3540 C 0.0586 0.32645 0.62334 0.0
C3541 C 0.04895 0.31187 0.6185 0.0
C3542 C 0.05284 0.30374 0.60535 0.0
C3543 C 0.06695 0.31071 0.59672 0.0
C3544 C 0.07717 0.32568 0.60138 0.0
C3545 C 0.07285 0.33356 0.61506 0.0
H3546 H 0.31233 0.32984 0.62751 0.0
H3547 H 0.28751 0.30907 0.68384 0.0
H3548 H 0.26809 0.31449 0.67206 0.0
H3549 H 0.30312 0.35933 0.62499 0.0
H3550 H 0.30193 0.35902 0.59669 0.0
H3551 H 0.31407 0.35383 0.60981 0.0
H3552 H 0.30137 0.32868 0.59035 0.0
H3553 H 0.28917 0.33379 0.57721 0.0
H3554 H 0.28173 0.31697 0.59231 0.0
H3555 H 0.25068 0.32097 0.65324 0.0
H3556 H 0.23722 0.32925 0.6295 0.0
H3557 H 0.27364 0.34642 0.58601 0.0
C3558 C 0.30286 0.32653 0.63743 0.0
C3559 C 0.30145 0.31902 0.6566 0.0
C3560 C 0.28887 0.31486 0.66912 0.0
C3561 C 0.27775 0.31787 0.66255 0.0
C3562 C 0.27941 0.32516 0.6435 0.0
C3563 C 0.2917 0.32955 0.63119 0.0
C3564 C 0.29073 0.33715 0.61132 0.0
C3565 C 0.3032 0.35329 0.61068 0.0
C3566 C 0.29075 0.32864 0.59164 0.0
C3567 C 0.27592 0.3362 0.61428 0.0
C3568 C 0.26954 0.3292 0.63291 0.0
C3569 C 0.25562 0.32657 0.63869 0.0
C3570 C 0.24803 0.33125 0.6251 0.0
C3571 C 0.25443 0.33857 0.60603 0.0
C3572 C 0.26858 0.34108 0.60066 0.0
H3573 H 0.68178 0.98511 0.648 0.0
H3574 H 0.7036 0.97613 0.69984 0.0
H3575 H 0.69585 0.95146 0.68524 0.0
H3576 H 0.65068 0.94695 0.64162 0.0
H3577 H 0.65084 0.94827 0.61334 0.0
H3578 H 0.65653 0.96455 0.62916 0.0
H3579 H 0.68144 0.97752 0.60976 0.0
H3580 H 0.67586 0.96128 0.59399 0.0
H3581 H 0.6927 0.96885 0.60916 0.0
H3582 H 0.68749 0.9286 0.66384 0.0
H3583 H 0.67914 0.90909 0.63684 0.0
H3584 H 0.66355 0.9331 0.59801 0.0
C3585 C 0.68459 0.97779 0.65653 0.0
C3586 C 0.69318 0.9825 0.67518 0.0
C3587 C 0.69699 0.97275 0.68558 0.0
C3588 C 0.6926 0.95869 0.67744 0.0
C3589 C 0.68446 0.9545 0.65879 0.0
C3590 C 0.68045 0.96373 0.64845 0.0
C3591 C 0.67266 0.95694 0.62782 0.0
C3592 C 0.65673 0.954 0.628 0.0
C3593 C 0.68118 0.96673 0.60908 0.0
C3594 C 0.67316 0.94262 0.62805 0.0
C3595 C 0.67988 0.94138 0.64616 0.0
C3596 C 0.68212 0.9294 0.64963 0.0
C3597 C 0.67744 0.91842 0.63412 0.0
C3598 C 0.67068 0.91951 0.61527 0.0
C3599 C 0.66843 0.93177 0.61238 0.0
H3600 H 0.02427 0.71911 0.66665 0.0
H3601 H 0.02686 0.67959 0.65401 0.0
H3602 H 0.05236 0.69486 0.64182 0.0
H3603 H 0.04224 0.73752 0.62094 0.0
H3604 H 0.05198 0.75575 0.63225 0.0
H3605 H 0.03487 0.74206 0.64341 0.0
H3606 H 0.04759 0.74554 0.67978 0.0
H3607 H 0.06475 0.75933 0.66873 0.0
H3608 H 0.06373 0.74356 0.68215 0.0
H3609 H 0.07621 0.71375 0.62781 0.0
H3610 H 0.09686 0.73514 0.61124 0.0
H3611 H 0.07929 0.76308 0.63167 0.0
C3612 C 0.03043 0.71378 0.66192 0.0
C3613 C 0.02378 0.69822 0.66157 0.0
C3614 C 0.03188 0.69151 0.65454 0.0
C3615 C 0.04636 0.70009 0.64767 0.0
C3616 C 0.05255 0.71538 0.64769 0.0
C3617 C 0.04489 0.72223 0.65455 0.0
C3618 C 0.05362 0.73877 0.65071 0.0
C3619 C 0.04517 0.74381 0.63595 0.0
C3620 C 0.05766 0.7473 0.67159 0.0
C3621 C 0.06716 0.74004 0.64015 0.0
C3622 C 0.06637 0.72643 0.63896 0.0
C3623 C 0.0771 0.72453 0.62898 0.0
C3624 C 0.08889 0.73683 0.61971 0.0
C3625 C 0.08992 0.75093 0.62034 0.0
C3626 C 0.07891 0.75251 0.63095 0.0
H3627 H 0.9705 0.61578 0.69904 0.0
H3628 H 0.00974 0.65832 0.70876 0.0
H3629 H 0.0215 0.64596 0.72754 0.0
H3630 H 0.97108 0.60072 0.74911 0.0
H3631 H 0.96459 0.58229 0.73929 0.0
H3632 H 0.95955 0.59445 0.7259 0.0
H3633 H 0.97018 0.59083 0.69123 0.0
H3634 H 0.9753 0.57868 0.70453 0.0
H3635 H 0.98898 0.59465 0.69072 0.0
H3636 H 0.02876 0.62894 0.74597 0.0
H3637 H 0.03053 0.60881 0.764 0.0
H3638 H 0.98657 0.57746 0.74192 0.0
C3639 C 0.9816 0.62255 0.705 0.0
C3640 C 0.98918 0.63806 0.70236 0.0
C3641 C 0.00366 0.64644 0.71059 0.0
C3642 C 0.01047 0.63951 0.72122 0.0
C3643 C 1.00266 0.6242 0.7235 0.0
C3644 C 0.98852 0.61584 0.71568 0.0
C3645 C 0.98232 0.59963 0.7208 0.0
C3646 C 0.96858 0.59395 0.7346 0.0
C3647 C 0.97901 0.59041 0.70062 0.0
C3648 C 0.99512 0.60018 0.73293 0.0
C3649 C 0.0068 0.61443 0.73416 0.0
C3650 C 0.01973 0.61772 0.74497 0.0
C3651 C 0.02067 0.60618 0.75503 0.0
C3652 C 0.00872 0.59151 0.7543 0.0
C3653 C 0.99587 0.58853 0.74286 0.0
H3654 H 0.38699 0.35201 0.69092 0.0
H3655 H 0.34565 0.34922 0.7084 0.0
H3656 H 0.35939 0.3735 0.72601 0.0
H3657 H 0.40585 0.36728 0.73803 0.0
H3658 H 0.42331 0.37909 0.72588 0.0
H3659 H 0.41021 0.3622 0.71317 0.0
H3660 H 0.411 0.37682 0.67962 0.0
H3661 H 0.42414 0.39379 0.69225 0.0
H3662 H 0.40726 0.39193 0.68156 0.0
H3663 H 0.37786 0.39723 0.74427 0.0
H3664 H 0.3992 0.41798 0.76172 0.0
H3665 H 0.42831 0.40542 0.73107 0.0
C3666 C 0.38075 0.35651 0.69825 0.0
C3667 C 0.36519 0.34862 0.69827 0.0
C3668 C 0.35755 0.35502 0.7081 0.0
C3669 C 0.36527 0.36883 0.71812 0.0
C3670 C 0.38061 0.37618 0.71801 0.0
C3671 C 0.38825 0.37025 0.70821 0.0
C3672 C 0.4047 0.37996 0.7111 0.0
C3673 C 0.41141 0.37163 0.72274 0.0
C3674 C 0.41221 0.38598 0.68987 0.0
C3675 C 0.40516 0.39212 0.72457 0.0
C3676 C 0.39118 0.38984 0.72825 0.0
C3677 C 0.38886 0.39923 0.74121 0.0
C3678 C 0.40109 0.41108 0.75096 0.0
C3679 C 0.41551 0.41344 0.74776 0.0
C3680 C 0.41748 0.40393 0.73399 0.0
H3681 H 0.65651 0.00561 0.72971 0.0
H3682 H 0.65491 0.02392 0.66892 0.0
H3683 H 0.62999 0.01971 0.67678 0.0
H3684 H 0.6181 0.97706 0.73063 0.0
H3685 H 0.61648 0.97891 0.75849 0.0
H3686 H 0.63394 0.98299 0.74765 0.0
H3687 H 0.64604 0.0091 0.76429 0.0
H3688 H 0.62862 0.00513 0.77511 0.0
H3689 H 0.63853 0.02106 0.75851 0.0
H3690 H 0.60556 0.01462 0.69243 0.0
H3691 H 0.58334 0.00778 0.71362 0.0
H3692 H 0.60112 0.99252 0.76363 0.0
C3693 C 0.65089 0.00863 0.71794 0.0
C3694 C 0.65767 0.0151 0.69868 0.0
C3695 C 0.64992 0.0189 0.68375 0.0
C3696 C 0.63577 0.01658 0.6881 0.0
C3697 C 0.62949 0.01035 0.70739 0.0
C3698 C 0.63677 0.00631 0.72197 0.0
C3699 C 0.62772 0.99994 0.74159 0.0
C3700 C 0.62383 0.98376 0.74477 0.0
C3701 C 0.6357 0.00937 0.76102 0.0
C3702 C 0.61424 1.00112 0.73589 0.0
C3703 C 0.61544 0.00719 0.71614 0.0
C3704 C 0.60447 0.00975 0.70784 0.0
C3705 C 0.59193 0.0059 0.72001 0.0
C3706 C 0.59043 0.99949 0.74017 0.0
C3707 C 0.6018 0.99714 0.74811 0.0
loop_
_geom_bond_atom_site_label_1
_geom_bond_atom_site_label_2
_geom_bond_distance
_geom_bond_site_symmetry_2
_ccdc_geom_bond_type
Mn0 O5 2.095 1_655 S
Mn0 O15 2.162 . S
Mn0 O16 2.297 1_554 S
Mn0 O24 2.385 1_554 S
Mn0 O25 2.209 1_654 S
Mn0 O26 2.094 . S
Mn1 O6 2.121 . S
Mn1 N8 2.257 1_554 S
Mn1 N17 2.282 . S
Mn1 O25 2.215 1_554 S
Mn1 O27 2.117 . S
C2 O24 1.234 1_455 S
C2 O25 1.283 . S
C3 O15 1.281 1_556 S
C3 O16 1.236 . S
C4 O26 1.230 1_455 S
C4 O27 1.289 . S
O5 Mn0 2.095 1_455 S
O5 C14 1.250 . S
O6 Mn1 2.121 . S
O6 C14 1.258 . S
C7 N8 1.326 . S
C7 C11 1.460 . S
C7 H13 0.929 . S
N8 Mn1 2.257 1_556 S
N8 C7 1.326 . S
N8 C12 1.362 . S
C9 C10 1.258 . S
C9 C12 1.431 . S
C9 C29 1.449 . S
C10 C9 1.258 . S
C10 C11 1.477 . S
C10 H30 0.931 . S
C11 C7 1.460 . S
C11 C10 1.477 . S
C11 H31 0.930 . S
C12 N8 1.362 . S
C12 C9 1.431 . S
C12 C22 1.476 . S
H13 C7 0.929 . S
C14 O5 1.250 . S
C14 O6 1.258 . S
O15 Mn0 2.162 . S
O15 C3 1.281 1_554 S
O16 Mn0 2.297 1_556 S
O16 C3 1.236 . S
N17 Mn1 2.282 . S
N17 C18 1.328 . S
N17 C22 1.318 1_554 S
C18 N17 1.328 . S
C18 C19 1.457 1_554 S
C18 H23 0.929 . S
C19 C18 1.457 1_556 S
C19 C20 1.291 . S
C19 H32 0.919 1_556 S
C20 C19 1.291 . S
C20 C21 1.373 . S
C20 H33 0.929 . S
C21 C20 1.373 . S
C21 C22 1.396 . S
C21 C28 1.403 . S
C22 C12 1.476 . S
C22 N17 1.318 1_556 S
C22 C21 1.396 . S
H23 C18 0.929 . S
O24 Mn0 2.385 1_556 S
O24 C2 1.234 1_655 S
O25 Mn0 2.209 1_456 S
O25 Mn1 2.215 1_556 S
O25 C2 1.283 . S
O26 Mn0 2.094 . S
O26 C4 1.230 1_655 S
O27 Mn1 2.117 . S
O27 C4 1.289 . S
C28 C21 1.403 . S
C28 C29 1.399 . S
C28 H34 0.929 . S
C29 C9 1.449 . S
C29 C28 1.399 . S
C29 H35 0.930 . S
H30 C10 0.931 . S
H31 C11 0.930 . S
H32 C19 0.919 1_554 S
H33 C20 0.929 . S
H34 C28 0.929 . S
H35 C29 0.930 . S
Mn36 O41 2.095 1_554 S
Mn36 O51 2.162 . S
Mn36 O52 2.297 . S
Mn36 O60 2.385 . S
Mn36 O61 2.209 . S
Mn36 O62 2.094 1_554 S
Mn37 O42 2.121 1_554 S
Mn37 N44 2.257 . S
Mn37 N53 2.282 . S
Mn37 O61 2.215 . S
Mn37 O63 2.117 1_554 S
C38 O60 1.234 . S
C38 O61 1.283 . S
C39 O51 1.281 . S
C39 O52 1.236 . S
C40 O62 1.240 . S
C40 O63 1.264 . S
O41 Mn36 2.095 1_556 S
O41 C50 1.250 . S
O42 Mn37 2.121 1_556 S
O42 C50 1.258 . S
C43 N44 1.326 . S
C43 C47 1.460 . S
C43 H49 0.929 . S
N44 Mn37 2.257 . S
N44 C43 1.326 . S
N44 C48 1.362 . S
C45 C46 1.258 . S
C45 C48 1.431 . S
C45 C65 1.449 . S
C46 C45 1.258 . S
C46 C47 1.477 . S
C46 H66 0.931 . S
C47 C43 1.460 . S
C47 C46 1.477 . S
C47 H67 0.930 . S
C48 N44 1.362 . S
C48 C45 1.431 . S
C48 C58 1.476 . S
H49 C43 0.929 . S
C50 O41 1.250 . S
C50 O42 1.258 . S
O51 Mn36 2.162 . S
O51 C39 1.281 . S
O52 Mn36 2.297 . S
O52 C39 1.236 . S
N53 Mn37 2.282 . S
N53 C54 1.328 . S
N53 C58 1.318 . S
C54 N53 1.328 . S
C54 C55 1.457 . S
C54 H59 0.962 . S
C55 C54 1.457 . S
C55 C56 1.291 . S
C55 H68 0.931 . S
C56 C55 1.291 . S
C56 C57 1.373 . S
C56 H69 0.929 . S
C57 C56 1.373 . S
C57 C58 1.396 . S
C57 C64 1.403 . S
C58 C48 1.476 . S
C58 N53 1.318 . S
C58 C57 1.396 . S
H59 C54 0.962 . S
O60 Mn36 2.385 . S
O60 C38 1.234 . S
O61 Mn36 2.209 . S
O61 Mn37 2.215 . S
O61 C38 1.283 . S
O62 Mn36 2.094 1_556 S
O62 C40 1.240 . S
O63 Mn37 2.117 1_556 S
O63 C40 1.264 . S
C64 C57 1.403 . S
C64 C65 1.399 . S
C64 H70 0.929 . S
C65 C45 1.449 . S
C65 C64 1.399 . S
C65 H71 0.930 . S
H66 C46 0.931 . S
H67 C47 0.930 . S
H68 C55 0.931 . S
H69 C56 0.929 . S
H70 C64 0.929 . S
H71 C65 0.930 . S
Mn72 O77 2.095 1_564 S
Mn72 O87 2.162 . S
Mn72 O88 2.297 . S
Mn72 O96 2.385 . S
Mn72 O97 2.209 1_565 S
Mn72 O98 2.094 1_554 S
Mn73 O78 2.121 . S
Mn73 N80 2.257 . S
Mn73 N89 2.282 . S
Mn73 O97 2.215 . S
Mn73 O99 2.117 1_554 S
C74 O96 1.212 1_545 S
C74 O97 1.306 . S
C75 O87 1.281 . S
C75 O88 1.236 . S
C76 O98 1.243 . S
C76 O99 1.257 1_565 S
O77 Mn72 2.095 1_546 S
O77 C86 1.250 . S
O78 Mn73 2.121 . S
O78 C86 1.258 1_554 S
C79 N80 1.326 . S
C79 C83 1.460 . S
C79 H85 0.929 . S
N80 Mn73 2.257 . S
N80 C79 1.326 . S
N80 C84 1.362 . S
C81 C82 1.258 . S
C81 C84 1.431 . S
C81 C101 1.449 . S
C82 C81 1.258 . S
C82 C83 1.477 . S
C82 H102 0.931 . S
C83 C79 1.460 . S
C83 C82 1.477 . S
C83 H103 0.930 . S
C84 N80 1.362 . S
C84 C81 1.431 . S
C84 C94 1.476 . S
H85 C79 0.929 . S
C86 O77 1.250 . S
C86 O78 1.258 1_556 S
O87 Mn72 2.162 . S
O87 C75 1.281 . S
O88 Mn72 2.297 . S
O88 C75 1.236 . S
N89 Mn73 2.282 . S
N89 C90 1.328 . S
N89 C94 1.318 . S
C90 N89 1.328 . S
C90 C91 1.457 . S
C90 H95 0.929 . S
C91 C90 1.457 . S
C91 C92 1.291 . S
C91 H104 0.931 . S
C92 C91 1.291 . S
C92 C93 1.373 . S
C92 H105 0.929 . S
C93 C92 1.373 . S
C93 C94 1.396 . S
C93 C100 1.403 . S
C94 C84 1.476 . S
C94 N89 1.318 . S
C94 C93 1.396 . S
H95 C90 0.929 . S
O96 Mn72 2.385 . S
O96 C74 1.212 1_565 S
O97 Mn72 2.209 1_545 S
O97 Mn73 2.215 . S
O97 C74 1.306 . S
O98 Mn72 2.094 1_556 S
O98 C76 1.243 . S
O99 Mn73 2.117 1_556 S
O99 C76 1.257 1_545 S
C100 C93 1.403 . S
C100 C101 1.399 . S
C100 H106 0.929 . S
C101 C81 1.449 . S
C101 C100 1.399 . S
C101 H107 0.930 . S
H102 C82 0.931 . S
H103 C83 0.930 . S
H104 C91 0.931 . S
H105 C92 0.929 . S
H106 C100 0.929 . S
H107 C101 0.930 . S
Mn108 O113 2.095 1_655 S
Mn108 O123 2.162 . S
Mn108 O124 2.297 1_554 S
Mn108 O132 2.385 1_554 S
Mn108 O133 2.209 1_654 S
Mn108 O134 2.094 . S
Mn109 O114 2.121 . S
Mn109 N116 2.257 1_554 S
Mn109 N125 2.282 . S
Mn109 O133 2.215 1_554 S
Mn109 O135 2.117 . S
C110 O132 1.185 1_455 S
C110 O133 1.305 . S
C111 O123 1.281 1_556 S
C111 O124 1.236 . S
C112 O134 1.229 1_455 S
C112 O135 1.274 . S
O113 Mn108 2.095 1_455 S
O113 C122 1.250 . S
O114 Mn109 2.121 . S
O114 C122 1.258 . S
C115 N116 1.326 . S
C115 C119 1.460 . S
C115 H121 0.929 . S
N116 Mn109 2.257 1_556 S
N116 C115 1.326 . S
N116 C120 1.362 . S
C117 C118 1.258 . S
C117 C120 1.431 . S
C117 C137 1.449 . S
C118 C117 1.258 . S
C118 C119 1.477 . S
C118 H138 0.931 . S
C119 C115 1.460 . S
C119 C118 1.477 . S
C119 H139 0.930 . S
C120 N116 1.362 . S
C120 C117 1.431 . S
C120 C130 1.476 . S
H121 C115 0.929 . S
C122 O113 1.250 . S
C122 O114 1.258 . S
O123 Mn108 2.162 . S
O123 C111 1.281 1_554 S
O124 Mn108 2.297 1_556 S
O124 C111 1.236 . S
N125 Mn109 2.282 . S
N125 C126 1.328 . S
N125 C130 1.318 1_554 S
C126 N125 1.328 . S
C126 C127 1.457 1_554 S
C126 H131 0.929 . S
C127 C126 1.457 1_556 S
C127 C128 1.291 . S
C127 H140 0.931 1_556 S
C128 C127 1.291 . S
C128 C129 1.373 . S
C128 H141 0.929 . S
C129 C128 1.373 . S
C129 C130 1.396 . S
C129 C136 1.403 . S
C130 C120 1.476 . S
C130 N125 1.318 1_556 S
C130 C129 1.396 . S
H131 C126 0.929 . S
O132 Mn108 2.385 1_556 S
O132 C110 1.185 1_655 S
O133 Mn108 2.209 1_456 S
O133 Mn109 2.215 1_556 S
O133 C110 1.305 . S
O134 Mn108 2.094 . S
O134 C112 1.229 1_655 S
O135 Mn109 2.117 . S
O135 C112 1.274 . S
C136 C129 1.403 . S
C136 C137 1.399 . S
C136 H142 0.929 . S
C137 C117 1.449 . S
C137 C136 1.399 . S
C137 H143 0.930 . S
H138 C118 0.931 . S
H139 C119 0.930 . S
H140 C127 0.931 1_554 S
H141 C128 0.929 . S
H142 C136 0.929 . S
H143 C137 0.930 . S
Mn144 O149 2.095 1_554 S
Mn144 O159 2.162 . S
Mn144 O160 2.297 . S
Mn144 O168 2.385 . S
Mn144 O169 2.209 . S
Mn144 O170 2.094 1_554 S
Mn145 O150 2.125 . S
Mn145 N152 2.257 . S
Mn145 N161 2.282 . S
Mn145 O169 2.215 . S
Mn145 O171 2.117 1_554 S
C146 O168 1.234 . S
C146 O169 1.283 . S
C147 O159 1.281 . S
C147 O160 1.236 . S
C148 O170 1.240 . S
C148 O171 1.264 . S
O149 Mn144 2.095 1_556 S
O149 C158 1.250 . S
O150 Mn145 2.125 . S
O150 C158 1.251 1_554 S
C151 N152 1.326 . S
C151 C155 1.460 . S
C151 H157 0.929 . S
N152 Mn145 2.257 . S
N152 C151 1.326 . S
N152 C156 1.362 . S
C153 C154 1.258 . S
C153 C156 1.431 . S
C153 C173 1.449 . S
C154 C153 1.258 . S
C154 C155 1.477 . S
C154 H174 0.931 . S
C155 C151 1.460 . S
C155 C154 1.477 . S
C155 H175 0.930 . S
C156 N152 1.362 . S
C156 C153 1.431 . S
C156 C166 1.476 . S
H157 C151 0.929 . S
C158 O149 1.250 . S
C158 O150 1.251 1_556 S
O159 Mn144 2.162 . S
O159 C147 1.281 . S
O160 Mn144 2.297 . S
O160 C147 1.236 . S
N161 Mn145 2.282 . S
N161 C162 1.328 . S
N161 C166 1.318 . S
C162 N161 1.328 . S
C162 C163 1.457 . S
C162 H167 0.929 . S
C163 C162 1.457 . S
C163 C164 1.291 . S
C163 H176 0.931 . S
C164 C163 1.291 . S
C164 C165 1.373 . S
C164 H177 0.929 . S
C165 C164 1.373 . S
C165 C166 1.396 . S
C165 C172 1.403 . S
C166 C156 1.476 . S
C166 N161 1.318 . S
C166 C165 1.396 . S
H167 C162 0.929 . S
O168 Mn144 2.385 . S
O168 C146 1.234 . S
O169 Mn144 2.209 . S
O169 Mn145 2.215 . S
O169 C146 1.283 . S
O170 Mn144 2.094 1_556 S
O170 C148 1.240 . S
O171 Mn145 2.117 1_556 S
O171 C148 1.264 . S
C172 C165 1.403 . S
C172 C173 1.399 . S
C172 H178 0.929 . S
C173 C153 1.449 . S
C173 C172 1.399 . S
C173 H179 0.930 . S
H174 C154 0.931 . S
H175 C155 0.930 . S
H176 C163 0.931 . S
H177 C164 0.929 . S
H178 C172 0.929 . S
H179 C173 0.930 . S
Mn180 O185 2.095 1_545 S
Mn180 O195 2.162 . S
Mn180 O196 2.297 1_554 S
Mn180 O204 2.385 1_554 S
Mn180 O205 2.209 1_544 S
Mn180 O206 2.094 . S
Mn181 O186 2.121 . S
Mn181 N188 2.257 1_554 S
Mn181 N197 2.282 . S
Mn181 O205 2.215 1_554 S
Mn181 O207 2.117 . S
C182 O204 1.234 . S
C182 O205 1.283 1_545 S
C183 O195 1.281 1_556 S
C183 O196 1.236 . S
C184 O206 1.240 . S
C184 O207 1.264 1_545 S
O185 Mn180 2.095 1_565 S
O185 C194 1.250 . S
O186 Mn181 2.121 . S
O186 C194 1.258 . S
C187 N188 1.326 . S
C187 C191 1.460 . S
C187 H193 0.929 . S
N188 Mn181 2.257 1_556 S
N188 C187 1.326 . S
N188 C192 1.362 . S
C189 C190 1.258 . S
C189 C192 1.431 . S
C189 C209 1.449 . S
C190 C189 1.258 . S
C190 C191 1.477 . S
C190 H210 0.931 . S
C191 C187 1.460 . S
C191 C190 1.477 . S
C191 H211 0.930 . S
C192 N188 1.362 . S
C192 C189 1.431 . S
C192 C202 1.476 . S
H193 C187 0.929 . S
C194 O185 1.250 . S
C194 O186 1.258 . S
O195 Mn180 2.162 . S
O195 C183 1.281 1_554 S
O196 Mn180 2.297 1_556 S
O196 C183 1.236 . S
N197 Mn181 2.282 . S
N197 C198 1.328 . S
N197 C202 1.318 1_554 S
C198 N197 1.328 . S
C198 C199 1.457 1_554 S
C198 H203 0.929 . S
C199 C198 1.457 1_556 S
C199 C200 1.291 . S
C199 H212 0.922 1_556 S
C200 C199 1.291 . S
C200 C201 1.373 . S
C200 H213 0.929 . S
C201 C200 1.373 . S
C201 C202 1.396 . S
C201 C208 1.403 . S
C202 C192 1.476 . S
C202 N197 1.318 1_556 S
C202 C201 1.396 . S
H203 C198 0.929 . S
O204 Mn180 2.385 1_556 S
O204 C182 1.234 . S
O205 Mn180 2.209 1_566 S
O205 Mn181 2.215 1_556 S
O205 C182 1.283 1_565 S
O206 Mn180 2.094 . S
O206 C184 1.240 . S
O207 Mn181 2.117 . S
O207 C184 1.264 1_565 S
C208 C201 1.403 . S
C208 C209 1.399 . S
C208 H214 0.929 . S
C209 C189 1.449 . S
C209 C208 1.399 . S
C209 H215 0.930 . S
H210 C190 0.931 . S
H211 C191 0.930 . S
H212 C199 0.922 1_554 S
H213 C200 0.929 . S
H214 C208 0.929 . S
H215 C209 0.930 . S
Mn216 O221 2.095 . S
Mn216 O231 2.162 . S
Mn216 O232 2.297 . S
Mn216 O240 2.385 . S
Mn216 O241 2.209 . S
Mn216 O242 2.094 . S
Mn217 O222 2.121 . S
Mn217 N224 2.257 . S
Mn217 N233 2.282 . S
Mn217 O241 2.215 . S
Mn217 O243 2.117 . S
C218 O240 1.234 . S
C218 O241 1.283 . S
C219 O231 1.281 . S
C219 O232 1.236 . S
C220 O242 1.240 . S
C220 O243 1.264 . S
O221 Mn216 2.095 . S
O221 C230 1.250 . S
O222 Mn217 2.121 . S
O222 C230 1.258 . S
C223 N224 1.326 . S
C223 C227 1.460 . S
C223 H229 0.929 . S
N224 Mn217 2.257 . S
N224 C223 1.326 . S
N224 C228 1.362 . S
C225 C226 1.258 . S
C225 C228 1.431 . S
C225 C245 1.449 . S
C226 C225 1.258 . S
C226 C227 1.477 . S
C226 H246 0.931 . S
C227 C223 1.460 . S
C227 C226 1.477 . S
C227 H247 0.930 . S
C228 N224 1.362 . S
C228 C225 1.431 . S
C228 C238 1.476 . S
H229 C223 0.929 . S
C230 O221 1.250 . S
C230 O222 1.258 . S
O231 Mn216 2.162 . S
O231 C219 1.281 . S
O232 Mn216 2.297 . S
O232 C219 1.236 . S
N233 Mn217 2.282 . S
N233 C234 1.328 . S
N233 C238 1.318 . S
C234 N233 1.328 . S
C234 C235 1.457 . S
C234 H239 0.929 . S
C235 C234 1.457 . S
C235 C236 1.291 . S
C235 H248 0.931 . S
C236 C235 1.291 . S
C236 C237 1.373 . S
C236 H249 0.929 . S
C237 C236 1.373 . S
C237 C238 1.396 . S
C237 C244 1.403 . S
C238 C228 1.476 . S
C238 N233 1.318 . S
C238 C237 1.396 . S
H239 C234 0.929 . S
O240 Mn216 2.385 . S
O240 C218 1.234 . S
O241 Mn216 2.209 . S
O241 Mn217 2.215 . S
O241 C218 1.283 . S
O242 Mn216 2.094 . S
O242 C220 1.240 . S
O243 Mn217 2.117 . S
O243 C220 1.264 . S
C244 C237 1.403 . S
C244 C245 1.399 . S
C244 H250 0.929 . S
C245 C225 1.449 . S
C245 C244 1.399 . S
C245 H251 0.930 . S
H246 C226 0.931 . S
H247 C227 0.930 . S
H248 C235 0.931 . S
H249 C236 0.929 . S
H250 C244 0.929 . S
H251 C245 0.930 . S
Mn252 O257 2.095 . S
Mn252 O267 2.135 1_565 S
Mn252 O268 2.297 . S
Mn252 O276 2.385 . S
Mn252 O277 2.209 . S
Mn252 O278 2.094 . S
Mn253 O258 2.121 . S
Mn253 N260 2.257 . S
Mn253 N269 2.282 . S
Mn253 O277 2.215 . S
Mn253 O279 2.117 . S
C254 O276 1.234 . S
C254 O277 1.283 . S
C255 O267 1.281 . S
C255 O268 1.236 1_545 S
C256 O278 1.240 . S
C256 O279 1.264 . S
O257 Mn252 2.095 . S
O257 C266 1.250 . S
O258 Mn253 2.121 . S
O258 C266 1.258 . S
C259 N260 1.326 . S
C259 C263 1.460 . S
C259 H265 0.929 . S
N260 Mn253 2.257 . S
N260 C259 1.326 . S
N260 C264 1.362 . S
C261 C262 1.258 . S
C261 C264 1.431 . S
C261 C281 1.449 . S
C262 C261 1.258 . S
C262 C263 1.477 . S
C262 H282 0.931 . S
C263 C259 1.460 . S
C263 C262 1.477 . S
C263 H283 0.930 . S
C264 N260 1.362 . S
C264 C261 1.431 . S
C264 C274 1.476 . S
H265 C259 0.929 . S
C266 O257 1.250 . S
C266 O258 1.258 . S
O267 Mn252 2.135 1_545 S
O267 C255 1.281 . S
O268 Mn252 2.297 . S
O268 C255 1.236 1_565 S
N269 Mn253 2.282 . S
N269 C270 1.328 . S
N269 C274 1.318 . S
C270 N269 1.328 . S
C270 C271 1.457 . S
C270 H275 0.929 . S
C271 C270 1.457 . S
C271 C272 1.291 . S
C271 H284 0.931 . S
C272 C271 1.291 . S
C272 C273 1.373 . S
C272 H285 0.929 . S
C273 C272 1.373 . S
C273 C274 1.396 . S
C273 C280 1.403 . S
C274 C264 1.476 . S
C274 N269 1.318 . S
C274 C273 1.396 . S
H275 C270 0.929 . S
O276 Mn252 2.385 . S
O276 C254 1.234 . S
O277 Mn252 2.209 . S
O277 Mn253 2.215 . S
O277 C254 1.283 . S
O278 Mn252 2.094 . S
O278 C256 1.240 . S
O279 Mn253 2.117 . S
O279 C256 1.264 . S
C280 C273 1.403 . S
C280 C281 1.399 . S
C280 H286 0.929 . S
C281 C261 1.449 . S
C281 C280 1.399 . S
C281 H287 0.930 . S
H282 C262 0.931 . S
H283 C263 0.930 . S
H284 C271 0.931 . S
H285 C272 0.929 . S
H286 C280 0.929 . S
H287 C281 0.930 . S
Mn288 O293 2.095 . S
Mn288 O303 2.136 1_455 S
Mn288 O304 2.297 . S
Mn288 O312 2.385 . S
Mn288 O313 2.209 . S
Mn288 O314 2.094 . S
Mn289 O294 2.121 . S
Mn289 N296 2.257 . S
Mn289 N305 2.282 . S
Mn289 O313 2.215 . S
Mn289 O315 2.117 . S
C290 O312 1.234 . S
C290 O313 1.283 . S
C291 O303 1.306 . S
C291 O304 1.236 1_655 S
C292 O314 1.240 . S
C292 O315 1.264 . S
O293 Mn288 2.095 . S
O293 C302 1.250 . S
O294 Mn289 2.121 . S
O294 C302 1.258 . S
C295 N296 1.326 . S
C295 C299 1.460 . S
C295 H301 0.929 . S
N296 Mn289 2.257 . S
N296 C295 1.326 . S
N296 C300 1.362 . S
C297 C298 1.258 . S
C297 C300 1.431 . S
C297 C317 1.449 . S
C298 C297 1.258 . S
C298 C299 1.477 . S
C298 H318 0.931 . S
C299 C295 1.460 . S
C299 C298 1.477 . S
C299 H319 0.930 . S
C300 N296 1.362 . S
C300 C297 1.431 . S
C300 C310 1.476 . S
H301 C295 0.929 . S
C302 O293 1.250 . S
C302 O294 1.258 . S
O303 Mn288 2.136 1_655 S
O303 C291 1.306 . S
O304 Mn288 2.297 . S
O304 C291 1.236 1_455 S
N305 Mn289 2.282 . S
N305 C306 1.328 . S
N305 C310 1.318 . S
C306 N305 1.328 . S
C306 C307 1.457 . S
C306 H311 0.929 . S
C307 C306 1.457 . S
C307 C308 1.291 . S
C307 H320 0.931 . S
C308 C307 1.291 . S
C308 C309 1.373 . S
C308 H321 0.929 . S
C309 C308 1.373 . S
C309 C310 1.396 . S
C309 C316 1.403 . S
C310 C300 1.476 . S
C310 N305 1.318 . S
C310 C309 1.396 . S
H311 C306 0.929 . S
O312 Mn288 2.385 . S
O312 C290 1.234 . S
O313 Mn288 2.209 . S
O313 Mn289 2.215 . S
O313 C290 1.283 . S
O314 Mn288 2.094 . S
O314 C292 1.240 . S
O315 Mn289 2.117 . S
O315 C292 1.264 . S
C316 C309 1.403 . S
C316 C317 1.399 . S
C316 H322 0.929 . S
C317 C297 1.449 . S
C317 C316 1.399 . S
C317 H323 0.930 . S
H318 C298 0.931 . S
H319 C299 0.930 . S
H320 C307 0.931 . S
H321 C308 0.929 . S
H322 C316 0.929 . S
H323 C317 0.930 . S
Mn324 O329 2.095 . S
Mn324 O339 2.162 . S
Mn324 O340 2.297 . S
Mn324 O348 2.385 . S
Mn324 O349 2.209 . S
Mn324 O350 2.094 . S
Mn325 O330 2.121 . S
Mn325 N332 2.257 . S
Mn325 N341 2.282 . S
Mn325 O349 2.215 . S
Mn325 O351 2.117 . S
C326 O348 1.234 . S
C326 O349 1.283 . S
C327 O339 1.281 . S
C327 O340 1.236 . S
C328 O350 1.240 . S
C328 O351 1.264 . S
O329 Mn324 2.095 . S
O329 C338 1.250 . S
O330 Mn325 2.121 . S
O330 C338 1.258 . S
C331 N332 1.326 . S
C331 C335 1.460 . S
C331 H337 0.929 1_565 S
N332 Mn325 2.257 . S
N332 C331 1.326 . S
N332 C336 1.362 . S
C333 C334 1.258 . S
C333 C336 1.431 . S
C333 C353 1.449 . S
C334 C333 1.258 . S
C334 C335 1.477 . S
C334 H354 0.931 . S
C335 C331 1.460 . S
C335 C334 1.477 . S
C335 H355 0.930 1_565 S
C336 N332 1.362 . S
C336 C333 1.431 . S
C336 C346 1.476 . S
H337 C331 0.929 1_545 S
C338 O329 1.250 . S
C338 O330 1.258 . S
O339 Mn324 2.162 . S
O339 C327 1.281 . S
O340 Mn324 2.297 . S
O340 C327 1.236 . S
N341 Mn325 2.282 . S
N341 C342 1.328 . S
N341 C346 1.318 . S
C342 N341 1.328 . S
C342 C343 1.457 . S
C342 H347 0.929 . S
C343 C342 1.457 . S
C343 C344 1.291 . S
C343 H356 0.931 . S
C344 C343 1.291 . S
C344 C345 1.373 . S
C344 H357 0.929 . S
C345 C344 1.373 . S
C345 C346 1.396 . S
C345 C352 1.403 . S
C346 C336 1.476 . S
C346 N341 1.318 . S
C346 C345 1.396 . S
H347 C342 0.929 . S
O348 Mn324 2.385 . S
O348 C326 1.234 . S
O349 Mn324 2.209 . S
O349 Mn325 2.215 . S
O349 C326 1.283 . S
O350 Mn324 2.094 . S
O350 C328 1.240 . S
O351 Mn325 2.117 . S
O351 C328 1.264 . S
C352 C345 1.403 . S
C352 C353 1.399 . S
C352 H358 0.929 . S
C353 C333 1.449 . S
C353 C352 1.399 . S
C353 H359 0.930 . S
H354 C334 0.931 . S
H355 C335 0.930 1_545 S
H356 C343 0.931 . S
H357 C344 0.929 . S
H358 C352 0.929 . S
H359 C353 0.930 . S
Mn360 O365 2.095 . S
Mn360 O375 2.162 . S
Mn360 O376 2.297 . S
Mn360 O384 2.385 . S
Mn360 O385 2.209 . S
Mn360 O386 2.094 . S
Mn361 O366 2.121 . S
Mn361 N368 2.257 . S
Mn361 N377 2.282 . S
Mn361 O385 2.215 . S
Mn361 O387 2.117 . S
C362 O384 1.234 . S
C362 O385 1.283 . S
C363 O375 1.285 1_655 S
C363 O376 1.166 1_655 S
C364 O386 1.240 . S
C364 O387 1.264 . S
O365 Mn360 2.095 . S
O365 C374 1.250 . S
O366 Mn361 2.121 . S
O366 C374 1.258 . S
C367 N368 1.326 . S
C367 C371 1.460 . S
C367 H373 0.929 . S
N368 Mn361 2.257 . S
N368 C367 1.326 . S
N368 C372 1.362 . S
C369 C370 1.258 . S
C369 C372 1.431 . S
C369 C389 1.449 . S
C370 C369 1.258 . S
C370 C371 1.477 . S
C370 H390 0.931 . S
C371 C367 1.460 . S
C371 C370 1.477 . S
C371 H391 0.930 . S
C372 N368 1.362 . S
C372 C369 1.431 . S
C372 C382 1.476 . S
H373 C367 0.929 . S
C374 O365 1.250 . S
C374 O366 1.258 . S
O375 Mn360 2.162 . S
O375 C363 1.285 1_455 S
O376 Mn360 2.297 . S
O376 C363 1.166 1_455 S
N377 Mn361 2.282 . S
N377 C378 1.328 . S
N377 C382 1.318 . S
C378 N377 1.328 . S
C378 C379 1.457 . S
C378 H383 0.929 . S
C379 C378 1.457 . S
C379 C380 1.291 . S
C379 H392 0.931 . S
C380 C379 1.291 . S
C380 C381 1.373 . S
C380 H393 0.929 . S
C381 C380 1.373 . S
C381 C382 1.396 . S
C381 C388 1.403 . S
C382 C372 1.476 . S
C382 N377 1.318 . S
C382 C381 1.396 . S
H383 C378 0.929 . S
O384 Mn360 2.385 . S
O384 C362 1.234 . S
O385 Mn360 2.209 . S
O385 Mn361 2.215 . S
O385 C362 1.283 . S
O386 Mn360 2.094 . S
O386 C364 1.240 . S
O387 Mn361 2.117 . S
O387 C364 1.264 . S
C388 C381 1.403 . S
C388 C389 1.399 . S
C388 H394 0.929 . S
C389 C369 1.449 . S
C389 C388 1.399 . S
C389 H395 0.930 . S
H390 C370 0.931 . S
H391 C371 0.930 . S
H392 C379 0.931 . S
H393 C380 0.929 . S
H394 C388 0.929 . S
H395 C389 0.930 . S
Mn396 O401 2.095 . S
Mn396 O411 2.162 . S
Mn396 O412 2.297 . S
Mn396 O420 2.385 . S
Mn396 O421 2.209 . S
Mn396 O422 2.094 . S
Mn397 O402 2.121 . S
Mn397 N404 2.257 . S
Mn397 N413 2.282 . S
Mn397 O421 2.215 . S
Mn397 O423 2.117 . S
C398 O420 1.234 . S
C398 O421 1.283 . S
C399 O411 1.281 . S
C399 O412 1.236 . S
C400 O422 1.240 . S
C400 O423 1.264 . S
O401 Mn396 2.095 . S
O401 C410 1.250 . S
O402 Mn397 2.121 . S
O402 C410 1.258 . S
C403 N404 1.326 . S
C403 C407 1.460 . S
C403 H409 0.929 . S
N404 Mn397 2.257 . S
N404 C403 1.326 . S
N404 C408 1.362 . S
C405 C406 1.258 . S
C405 C408 1.431 . S
C405 C425 1.449 . S
C406 C405 1.258 . S
C406 C407 1.477 . S
C406 H426 0.931 . S
C407 C403 1.460 . S
C407 C406 1.477 . S
C407 H427 0.930 . S
C408 N404 1.362 . S
C408 C405 1.431 . S
C408 C418 1.476 . S
H409 C403 0.929 . S
C410 O401 1.250 . S
C410 O402 1.258 . S
O411 Mn396 2.162 . S
O411 C399 1.281 . S
O412 Mn396 2.297 . S
O412 C399 1.236 . S
N413 Mn397 2.282 . S
N413 C414 1.328 . S
N413 C418 1.318 . S
C414 N413 1.328 . S
C414 C415 1.457 . S
C414 H419 0.929 . S
C415 C414 1.457 . S
C415 C416 1.291 . S
C415 H428 0.931 . S
C416 C415 1.291 . S
C416 C417 1.373 . S
C416 H429 0.929 . S
C417 C416 1.373 . S
C417 C418 1.396 . S
C417 C424 1.403 . S
C418 C408 1.476 . S
C418 N413 1.318 . S
C418 C417 1.396 . S
H419 C414 0.929 . S
O420 Mn396 2.385 . S
O420 C398 1.234 . S
O421 Mn396 2.209 . S
O421 Mn397 2.215 . S
O421 C398 1.283 . S
O422 Mn396 2.094 . S
O422 C400 1.240 . S
O423 Mn397 2.117 . S
O423 C400 1.264 . S
C424 C417 1.403 . S
C424 C425 1.399 . S
C424 H430 0.929 . S
C425 C405 1.449 . S
C425 C424 1.399 . S
C425 H431 0.930 . S
H426 C406 0.931 . S
H427 C407 0.930 . S
H428 C415 0.931 . S
H429 C416 0.929 . S
H430 C424 0.929 . S
H431 C425 0.930 . S
Mn432 O437 2.095 . S
Mn432 O447 2.162 . S
Mn432 O448 2.297 . S
Mn432 O456 2.385 . S
Mn432 O457 2.209 . S
Mn432 O458 2.094 . S
Mn433 O438 2.121 . S
Mn433 N440 2.257 . S
Mn433 N449 2.282 . S
Mn433 O457 2.215 . S
Mn433 O459 2.117 . S
C434 O456 1.234 . S
C434 O457 1.283 . S
C435 O447 1.242 1_565 S
C435 O448 1.224 1_565 S
C436 O458 1.240 . S
C436 O459 1.264 . S
O437 Mn432 2.095 . S
O437 C446 1.250 . S
O438 Mn433 2.121 . S
O438 C446 1.258 . S
C439 N440 1.326 . S
C439 C443 1.460 . S
C439 H445 0.929 . S
N440 Mn433 2.257 . S
N440 C439 1.326 . S
N440 C444 1.362 . S
C441 C442 1.258 . S
C441 C444 1.431 . S
C441 C461 1.449 . S
C442 C441 1.258 . S
C442 C443 1.477 . S
C442 H462 0.931 . S
C443 C439 1.460 . S
C443 C442 1.477 . S
C443 H463 0.930 . S
C444 N440 1.362 . S
C444 C441 1.431 . S
C444 C454 1.476 . S
H445 C439 0.929 . S
C446 O437 1.250 . S
C446 O438 1.258 . S
O447 Mn432 2.162 . S
O447 C435 1.242 1_545 S
O448 Mn432 2.297 . S
O448 C435 1.224 1_545 S
N449 Mn433 2.282 . S
N449 C450 1.328 . S
N449 C454 1.318 . S
C450 N449 1.328 . S
C450 C451 1.457 . S
C450 H455 0.929 . S
C451 C450 1.457 . S
C451 C452 1.291 . S
C451 H464 0.931 . S
C452 C451 1.291 . S
C452 C453 1.373 . S
C452 H465 0.929 . S
C453 C452 1.373 . S
C453 C454 1.396 . S
C453 C460 1.403 . S
C454 C444 1.476 . S
C454 N449 1.318 . S
C454 C453 1.396 . S
H455 C450 0.929 . S
O456 Mn432 2.385 . S
O456 C434 1.234 . S
O457 Mn432 2.209 . S
O457 Mn433 2.215 . S
O457 C434 1.283 . S
O458 Mn432 2.094 . S
O458 C436 1.240 . S
O459 Mn433 2.117 . S
O459 C436 1.264 . S
C460 C453 1.403 . S
C460 C461 1.399 . S
C460 H466 0.929 . S
C461 C441 1.449 . S
C461 C460 1.399 . S
C461 H467 0.930 . S
H462 C442 0.931 . S
H463 C443 0.930 . S
H464 C451 0.931 . S
H465 C452 0.929 . S
H466 C460 0.929 . S
H467 C461 0.930 . S
Mn468 O473 2.095 . S
Mn468 O483 2.162 . S
Mn468 O484 2.297 . S
Mn468 O492 2.385 . S
Mn468 O493 2.209 . S
Mn468 O494 2.094 . S
Mn469 O474 2.121 . S
Mn469 N476 2.257 . S
Mn469 N485 2.282 . S
Mn469 O493 2.215 . S
Mn469 O495 2.117 . S
C470 O492 1.234 . S
C470 O493 1.283 . S
C471 O483 1.281 . S
C471 O484 1.236 . S
C472 O494 1.240 . S
C472 O495 1.264 . S
O473 Mn468 2.095 . S
O473 C482 1.250 . S
O474 Mn469 2.121 . S
O474 C482 1.258 . S
C475 N476 1.326 . S
C475 C479 1.460 . S
C475 H481 0.922 1_655 S
N476 Mn469 2.257 . S
N476 C475 1.326 . S
N476 C480 1.362 . S
C477 C478 1.258 . S
C477 C480 1.431 . S
C477 C497 1.449 . S
C478 C477 1.258 . S
C478 C479 1.477 . S
C478 H498 0.931 . S
C479 C475 1.460 . S
C479 C478 1.477 . S
C479 H499 0.930 1_655 S
C480 N476 1.362 . S
C480 C477 1.431 . S
C480 C490 1.476 . S
H481 C475 0.922 1_455 S
C482 O473 1.250 . S
C482 O474 1.258 . S
O483 Mn468 2.162 . S
O483 C471 1.281 . S
O484 Mn468 2.297 . S
O484 C471 1.236 . S
N485 Mn469 2.282 . S
N485 C486 1.328 . S
N485 C490 1.318 . S
C486 N485 1.328 . S
C486 C487 1.457 . S
C486 H491 0.929 . S
C487 C486 1.457 . S
C487 C488 1.291 . S
C487 H500 0.931 . S
C488 C487 1.291 . S
C488 C489 1.373 . S
C488 H501 0.929 . S
C489 C488 1.373 . S
C489 C490 1.396 . S
C489 C496 1.403 . S
C490 C480 1.476 . S
C490 N485 1.318 . S
C490 C489 1.396 . S
H491 C486 0.929 . S
O492 Mn468 2.385 . S
O492 C470 1.234 . S
O493 Mn468 2.209 . S
O493 Mn469 2.215 . S
O493 C470 1.283 . S
O494 Mn468 2.094 . S
O494 C472 1.240 . S
O495 Mn469 2.117 . S
O495 C472 1.264 . S
C496 C489 1.403 . S
C496 C497 1.399 . S
C496 H502 0.929 . S
C497 C477 1.449 . S
C497 C496 1.399 . S
C497 H503 0.930 . S
H498 C478 0.931 . S
H499 C479 0.930 1_455 S
H500 C487 0.931 . S
H501 C488 0.929 . S
H502 C496 0.929 . S
H503 C497 0.930 . S
Mn504 O509 2.095 . S
Mn504 O519 2.162 . S
Mn504 O520 2.297 . S
Mn504 O528 2.385 . S
Mn504 O529 2.209 . S
Mn504 O530 2.094 . S
Mn505 O510 2.121 . S
Mn505 N512 2.257 . S
Mn505 N521 2.282 . S
Mn505 O529 2.215 . S
Mn505 O531 2.117 . S
C506 O528 1.234 . S
C506 O529 1.283 . S
C507 O519 1.281 . S
C507 O520 1.236 . S
C508 O530 1.240 . S
C508 O531 1.264 . S
O509 Mn504 2.095 . S
O509 C518 1.250 . S
O510 Mn505 2.121 . S
O510 C518 1.258 . S
C511 N512 1.326 . S
C511 C515 1.460 . S
C511 H517 0.929 . S
N512 Mn505 2.257 . S
N512 C511 1.326 . S
N512 C516 1.362 . S
C513 C514 1.258 . S
C513 C516 1.431 . S
C513 C533 1.449 . S
C514 C513 1.258 . S
C514 C515 1.477 . S
C514 H534 0.931 . S
C515 C511 1.460 . S
C515 C514 1.477 . S
C515 H535 0.930 . S
C516 N512 1.362 . S
C516 C513 1.431 . S
C516 C526 1.476 . S
H517 C511 0.929 . S
C518 O509 1.250 . S
C518 O510 1.258 . S
O519 Mn504 2.162 . S
O519 C507 1.281 . S
O520 Mn504 2.297 . S
O520 C507 1.236 . S
N521 Mn505 2.282 . S
N521 C522 1.328 . S
N521 C526 1.318 . S
C522 N521 1.328 . S
C522 C523 1.457 . S
C522 H527 0.929 . S
C523 C522 1.457 . S
C523 C524 1.291 . S
C523 H536 0.931 . S
C524 C523 1.291 . S
C524 C525 1.373 . S
C524 H537 0.929 . S
C525 C524 1.373 . S
C525 C526 1.396 . S
C525 C532 1.403 . S
C526 C516 1.476 . S
C526 N521 1.318 . S
C526 C525 1.396 . S
H527 C522 0.929 . S
O528 Mn504 2.385 . S
O528 C506 1.234 . S
O529 Mn504 2.209 . S
O529 Mn505 2.215 . S
O529 C506 1.283 . S
O530 Mn504 2.094 . S
O530 C508 1.240 . S
O531 Mn505 2.117 . S
O531 C508 1.264 . S
C532 C525 1.403 . S
C532 C533 1.399 . S
C532 H538 0.929 . S
C533 C513 1.449 . S
C533 C532 1.399 . S
C533 H539 0.930 . S
H534 C514 0.931 . S
H535 C515 0.930 . S
H536 C523 0.931 . S
H537 C524 0.929 . S
H538 C532 0.929 . S
H539 C533 0.930 . S
Mn540 O545 2.095 . S
Mn540 O555 2.162 . S
Mn540 O556 2.297 . S
Mn540 O564 2.385 . S
Mn540 O565 2.209 . S
Mn540 O566 2.094 . S
Mn541 O546 2.121 . S
Mn541 N548 2.257 . S
Mn541 N557 2.282 . S
Mn541 O565 2.215 . S
Mn541 O567 2.117 . S
C542 O564 1.234 . S
C542 O565 1.283 . S
C543 O555 1.281 . S
C543 O556 1.236 . S
C544 O566 1.240 . S
C544 O567 1.264 . S
O545 Mn540 2.095 . S
O545 C554 1.250 . S
O546 Mn541 2.121 . S
O546 C554 1.258 . S
C547 N548 1.326 . S
C547 C551 1.460 . S
C547 H553 0.929 . S
N548 Mn541 2.257 . S
N548 C547 1.326 . S
N548 C552 1.362 . S
C549 C550 1.258 . S
C549 C552 1.431 . S
C549 C569 1.449 . S
C550 C549 1.258 . S
C550 C551 1.477 . S
C550 H570 0.931 . S
C551 C547 1.460 . S
C551 C550 1.477 . S
C551 H571 0.930 . S
C552 N548 1.362 . S
C552 C549 1.431 . S
C552 C562 1.476 . S
H553 C547 0.929 . S
C554 O545 1.250 . S
C554 O546 1.258 . S
O555 Mn540 2.162 . S
O555 C543 1.281 . S
O556 Mn540 2.297 . S
O556 C543 1.236 . S
N557 Mn541 2.282 . S
N557 C558 1.328 . S
N557 C562 1.318 . S
C558 N557 1.328 . S
C558 C559 1.457 . S
C558 H563 0.929 . S
C559 C558 1.457 . S
C559 C560 1.291 . S
C559 H572 0.931 . S
C560 C559 1.291 . S
C560 C561 1.373 . S
C560 H573 0.929 . S
C561 C560 1.373 . S
C561 C562 1.396 . S
C561 C568 1.403 . S
C562 C552 1.476 . S
C562 N557 1.318 . S
C562 C561 1.396 . S
H563 C558 0.929 . S
O564 Mn540 2.385 . S
O564 C542 1.234 . S
O565 Mn540 2.209 . S
O565 Mn541 2.215 . S
O565 C542 1.283 . S
O566 Mn540 2.094 . S
O566 C544 1.240 . S
O567 Mn541 2.117 . S
O567 C544 1.264 . S
C568 C561 1.403 . S
C568 C569 1.399 . S
C568 H574 0.929 . S
C569 C549 1.449 . S
C569 C568 1.399 . S
C569 H575 0.930 . S
H570 C550 0.931 . S
H571 C551 0.930 . S
H572 C559 0.931 . S
H573 C560 0.929 . S
H574 C568 0.929 . S
H575 C569 0.930 . S
Mn576 O581 2.095 . S
Mn576 O591 2.162 . S
Mn576 O592 2.297 . S
Mn576 O600 2.385 . S
Mn576 O601 2.209 . S
Mn576 O602 2.094 . S
Mn577 O582 2.121 . S
Mn577 N584 2.257 . S
Mn577 N593 2.282 . S
Mn577 O601 2.215 . S
Mn577 O603 2.117 . S
C578 O600 1.234 . S
C578 O601 1.283 . S
C579 O591 1.281 . S
C579 O592 1.236 . S
C580 O602 1.240 . S
C580 O603 1.264 . S
O581 Mn576 2.095 . S
O581 C590 1.250 . S
O582 Mn577 2.121 . S
O582 C590 1.258 . S
C583 N584 1.326 . S
C583 C587 1.460 . S
C583 H589 0.929 1_545 S
N584 Mn577 2.257 . S
N584 C583 1.326 . S
N584 C588 1.362 . S
C585 C586 1.258 . S
C585 C588 1.431 . S
C585 C605 1.449 . S
C586 C585 1.258 . S
C586 C587 1.477 . S
C586 H606 0.931 . S
C587 C583 1.460 . S
C587 C586 1.477 . S
C587 H607 0.930 1_545 S
C588 N584 1.362 . S
C588 C585 1.431 . S
C588 C598 1.476 . S
H589 C583 0.929 1_565 S
C590 O581 1.250 . S
C590 O582 1.258 . S
O591 Mn576 2.162 . S
O591 C579 1.281 . S
O592 Mn576 2.297 . S
O592 C579 1.236 . S
N593 Mn577 2.282 . S
N593 C594 1.328 . S
N593 C598 1.318 . S
C594 N593 1.328 . S
C594 C595 1.457 . S
C594 H599 0.929 . S
C595 C594 1.457 . S
C595 C596 1.291 . S
C595 H608 0.931 . S
C596 C595 1.291 . S
C596 C597 1.373 . S
C596 H609 0.929 . S
C597 C596 1.373 . S
C597 C598 1.396 . S
C597 C604 1.403 . S
C598 C588 1.476 . S
C598 N593 1.318 . S
C598 C597 1.396 . S
H599 C594 0.929 . S
O600 Mn576 2.385 . S
O600 C578 1.234 . S
O601 Mn576 2.209 . S
O601 Mn577 2.215 . S
O601 C578 1.283 . S
O602 Mn576 2.094 . S
O602 C580 1.240 . S
O603 Mn577 2.117 . S
O603 C580 1.264 . S
C604 C597 1.403 . S
C604 C605 1.399 . S
C604 H610 0.929 . S
C605 C585 1.449 . S
C605 C604 1.399 . S
C605 H611 0.930 . S
H606 C586 0.931 . S
H607 C587 0.930 1_565 S
H608 C595 0.931 . S
H609 C596 0.929 . S
H610 C604 0.929 . S
H611 C605 0.930 . S
Mn612 O617 2.095 . S
Mn612 O627 2.157 . S
Mn612 O628 2.297 . S
Mn612 O636 2.385 . S
Mn612 O637 2.209 . S
Mn612 O638 2.094 . S
Mn613 O618 2.121 . S
Mn613 N620 2.257 . S
Mn613 N629 2.282 . S
Mn613 O637 2.215 . S
Mn613 O639 2.117 . S
C614 O636 1.234 . S
C614 O637 1.283 . S
C615 O627 1.285 1_455 S
C615 O628 1.236 1_455 S
C616 O638 1.240 . S
C616 O639 1.264 . S
O617 Mn612 2.095 . S
O617 C626 1.250 . S
O618 Mn613 2.121 . S
O618 C626 1.258 . S
C619 N620 1.326 . S
C619 C623 1.460 . S
C619 H625 0.929 . S
N620 Mn613 2.257 . S
N620 C619 1.326 . S
N620 C624 1.362 . S
C621 C622 1.258 . S
C621 C624 1.431 . S
C621 C641 1.449 . S
C622 C621 1.258 . S
C622 C623 1.477 . S
C622 H642 0.931 . S
C623 C619 1.460 . S
C623 C622 1.477 . S
C623 H643 0.930 . S
C624 N620 1.362 . S
C624 C621 1.431 . S
C624 C634 1.476 . S
H625 C619 0.929 . S
C626 O617 1.250 . S
C626 O618 1.258 . S
O627 Mn612 2.157 . S
O627 C615 1.285 1_655 S
O628 Mn612 2.297 . S
O628 C615 1.236 1_655 S
N629 Mn613 2.282 . S
N629 C630 1.328 . S
N629 C634 1.318 . S
C630 N629 1.328 . S
C630 C631 1.457 . S
C630 H635 0.929 . S
C631 C630 1.457 . S
C631 C632 1.291 . S
C631 H644 0.931 . S
C632 C631 1.291 . S
C632 C633 1.373 . S
C632 H645 0.929 . S
C633 C632 1.373 . S
C633 C634 1.396 . S
C633 C640 1.403 . S
C634 C624 1.476 . S
C634 N629 1.318 . S
C634 C633 1.396 . S
H635 C630 0.929 . S
O636 Mn612 2.385 . S
O636 C614 1.234 . S
O637 Mn612 2.209 . S
O637 Mn613 2.215 . S
O637 C614 1.283 . S
O638 Mn612 2.094 . S
O638 C616 1.240 . S
O639 Mn613 2.117 . S
O639 C616 1.264 . S
C640 C633 1.403 . S
C640 C641 1.399 . S
C640 H646 0.929 . S
C641 C621 1.449 . S
C641 C640 1.399 . S
C641 H647 0.930 . S
H642 C622 0.931 . S
H643 C623 0.930 . S
H644 C631 0.931 . S
H645 C632 0.929 . S
H646 C640 0.929 . S
H647 C641 0.930 . S
H648 C675 0.929 . S
N649 C674 1.433 . S
N649 C680 1.435 . S
N649 C686 1.423 . S
H650 C676 0.930 . S
H651 C679 0.931 . S
H652 C678 0.929 . S
H653 C681 0.930 . S
H654 C682 0.932 . S
H655 C685 0.929 . S
H656 C684 0.931 . S
H657 C687 0.929 . S
H658 C691 0.932 . S
H659 C688 0.931 . S
H660 C690 0.929 . S
H661 C693 0.929 . S
H662 C694 0.930 . S
H663 C696 0.929 . S
H664 C697 0.931 . S
H665 C699 0.930 . S
H666 C700 0.932 . S
H667 C702 0.931 . S
H668 C703 0.929 . S
H669 C705 0.929 . S
H670 C706 0.931 . S
H671 C708 0.929 . S
N672 C692 1.433 . S
N672 C698 1.435 . S
N672 C704 1.423 . S
H673 C709 0.932 . S
C674 N649 1.433 . S
C674 C675 1.363 . S
C674 C679 1.370 . S
C675 H648 0.929 . S
C675 C674 1.363 . S
C675 C676 1.385 . S
C676 H650 0.930 . S
C676 C675 1.385 . S
C676 C677 1.357 . S
C677 C676 1.357 . S
C677 C678 1.406 . S
C678 H652 0.929 . S
C678 C677 1.406 . S
C678 C679 1.391 . S
C679 H651 0.931 . S
C679 C674 1.370 . S
C679 C678 1.391 . S
C680 N649 1.435 . S
C680 C681 1.358 . S
C680 C685 1.371 . S
C681 H653 0.930 . S
C681 C680 1.358 . S
C681 C682 1.405 . S
C682 H654 0.932 . S
C682 C681 1.405 . S
C682 C683 1.383 . S
C683 C682 1.383 . S
C683 C684 1.393 . S
C684 H656 0.931 . S
C684 C683 1.393 . S
C684 C685 1.382 . S
C685 H655 0.929 . S
C685 C680 1.371 . S
C685 C684 1.382 . S
C686 N649 1.423 . S
C686 C687 1.362 . S
C686 C691 1.388 . S
C687 H657 0.929 . S
C687 C686 1.362 . S
C687 C688 1.376 . S
C688 H659 0.931 . S
C688 C687 1.376 . S
C688 C689 1.396 . S
C689 C688 1.396 . S
C689 C690 1.348 . S
C689 C707 1.472 . S
C690 H660 0.929 . S
C690 C689 1.348 . S
C690 C691 1.443 . S
C691 H658 0.932 . S
C691 C686 1.388 . S
C691 C690 1.443 . S
C692 N672 1.433 . S
C692 C693 1.363 . S
C692 C697 1.370 . S
C693 H661 0.929 . S
C693 C692 1.363 . S
C693 C694 1.385 . S
C694 H662 0.930 . S
C694 C693 1.385 . S
C694 C695 1.357 . S
C695 C694 1.357 . S
C695 C696 1.406 . S
C696 H663 0.929 . S
C696 C695 1.406 . S
C696 C697 1.391 . S
C697 H664 0.931 . S
C697 C692 1.370 . S
C697 C696 1.391 . S
C698 N672 1.435 . S
C698 C699 1.358 . S
C698 C703 1.371 . S
C699 H665 0.930 . S
C699 C698 1.358 . S
C699 C700 1.405 . S
C700 H666 0.932 . S
C700 C699 1.405 . S
C700 C701 1.383 . S
C701 C700 1.383 . S
C701 C702 1.393 . S
C702 H667 0.931 . S
C702 C701 1.393 . S
C702 C703 1.382 . S
C703 H668 0.929 . S
C703 C698 1.371 . S
C703 C702 1.382 . S
C704 N672 1.423 . S
C704 C705 1.362 . S
C704 C709 1.388 . S
C705 H669 0.929 . S
C705 C704 1.362 . S
C705 C706 1.376 . S
C706 H670 0.931 . S
C706 C705 1.376 . S
C706 C707 1.396 . S
C707 C689 1.472 . S
C707 C706 1.396 . S
C707 C708 1.348 . S
C708 H671 0.929 . S
C708 C707 1.348 . S
C708 C709 1.443 . S
C709 H673 0.932 . S
C709 C704 1.388 . S
C709 C708 1.443 . S
H710 C737 0.929 . S
N711 C736 1.433 . S
N711 C742 1.435 . S
N711 C748 1.423 . S
H712 C738 0.930 . S
H713 C741 0.931 . S
H714 C740 0.929 . S
H715 C743 0.930 . S
H716 C744 0.932 . S
H717 C747 0.929 . S
H718 C746 0.931 . S
H719 C749 0.929 . S
H720 C753 0.932 . S
H721 C750 0.931 . S
H722 C752 0.929 . S
H723 C755 0.929 . S
H724 C756 0.930 . S
H725 C758 0.929 . S
H726 C759 0.931 . S
H727 C761 0.930 . S
H728 C762 0.932 . S
H729 C764 0.931 . S
H730 C765 0.929 . S
H731 C767 0.929 . S
H732 C768 0.931 . S
H733 C770 0.929 . S
N734 C754 1.433 . S
N734 C760 1.435 . S
N734 C766 1.423 . S
H735 C771 0.932 . S
C736 N711 1.433 . S
C736 C737 1.363 . S
C736 C741 1.370 . S
C737 H710 0.929 . S
C737 C736 1.363 . S
C737 C738 1.385 . S
C738 H712 0.930 . S
C738 C737 1.385 . S
C738 C739 1.357 . S
C739 C738 1.357 . S
C739 C740 1.406 . S
C740 H714 0.929 . S
C740 C739 1.406 . S
C740 C741 1.391 . S
C741 H713 0.931 . S
C741 C736 1.370 . S
C741 C740 1.391 . S
C742 N711 1.435 . S
C742 C743 1.358 . S
C742 C747 1.371 . S
C743 H715 0.930 . S
C743 C742 1.358 . S
C743 C744 1.405 . S
C744 H716 0.932 . S
C744 C743 1.405 . S
C744 C745 1.383 . S
C745 C744 1.383 . S
C745 C746 1.393 . S
C746 H718 0.931 . S
C746 C745 1.393 . S
C746 C747 1.382 . S
C747 H717 0.929 . S
C747 C742 1.371 . S
C747 C746 1.382 . S
C748 N711 1.423 . S
C748 C749 1.362 . S
C748 C753 1.388 . S
C749 H719 0.929 . S
C749 C748 1.362 . S
C749 C750 1.376 . S
C750 H721 0.931 . S
C750 C749 1.376 . S
C750 C751 1.396 . S
C751 C750 1.396 . S
C751 C752 1.348 . S
C751 C769 1.472 . S
C752 H722 0.929 . S
C752 C751 1.348 . S
C752 C753 1.443 . S
C753 H720 0.932 . S
C753 C748 1.388 . S
C753 C752 1.443 . S
C754 N734 1.433 . S
C754 C755 1.363 . S
C754 C759 1.370 . S
C755 H723 0.929 . S
C755 C754 1.363 . S
C755 C756 1.385 . S
C756 H724 0.930 . S
C756 C755 1.385 . S
C756 C757 1.357 . S
C757 C756 1.357 . S
C757 C758 1.406 . S
C758 H725 0.929 . S
C758 C757 1.406 . S
C758 C759 1.391 . S
C759 H726 0.931 . S
C759 C754 1.370 . S
C759 C758 1.391 . S
C760 N734 1.435 . S
C760 C761 1.358 . S
C760 C765 1.371 . S
C761 H727 0.930 . S
C761 C760 1.358 . S
C761 C762 1.405 . S
C762 H728 0.932 . S
C762 C761 1.405 . S
C762 C763 1.383 . S
C763 C762 1.383 . S
C763 C764 1.393 . S
C764 H729 0.931 . S
C764 C763 1.393 . S
C764 C765 1.382 . S
C765 H730 0.929 . S
C765 C760 1.371 . S
C765 C764 1.382 . S
C766 N734 1.423 . S
C766 C767 1.362 . S
C766 C771 1.388 . S
C767 H731 0.929 . S
C767 C766 1.362 . S
C767 C768 1.376 . S
C768 H732 0.931 . S
C768 C767 1.376 . S
C768 C769 1.396 . S
C769 C751 1.472 . S
C769 C768 1.396 . S
C769 C770 1.348 . S
C770 H733 0.929 . S
C770 C769 1.348 . S
C770 C771 1.443 . S
C771 H735 0.932 . S
C771 C766 1.388 . S
C771 C770 1.443 . S
H772 C799 0.929 . S
N773 C798 1.433 . S
N773 C804 1.435 . S
N773 C810 1.423 . S
H774 C800 0.930 . S
H775 C803 0.931 . S
H776 C802 0.929 . S
H777 C805 0.930 . S
H778 C806 0.932 . S
H779 C809 0.929 . S
H780 C808 0.931 . S
H781 C811 0.929 . S
H782 C815 0.932 . S
H783 C812 0.931 . S
H784 C814 0.929 . S
H785 C817 0.929 . S
H786 C818 0.930 . S
H787 C820 0.929 . S
H788 C821 0.931 . S
H789 C823 0.930 . S
H790 C824 0.932 . S
H791 C826 0.931 . S
H792 C827 0.929 . S
H793 C829 0.929 . S
H794 C830 0.931 . S
H795 C832 0.929 . S
N796 C816 1.433 . S
N796 C822 1.435 . S
N796 C828 1.423 . S
H797 C833 0.932 . S
C798 N773 1.433 . S
C798 C799 1.363 . S
C798 C803 1.370 . S
C799 H772 0.929 . S
C799 C798 1.363 . S
C799 C800 1.385 . S
C800 H774 0.930 . S
C800 C799 1.385 . S
C800 C801 1.357 . S
C801 C800 1.357 . S
C801 C802 1.406 . S
C802 H776 0.929 . S
C802 C801 1.406 . S
C802 C803 1.391 . S
C803 H775 0.931 . S
C803 C798 1.370 . S
C803 C802 1.391 . S
C804 N773 1.435 . S
C804 C805 1.358 . S
C804 C809 1.371 . S
C805 H777 0.930 . S
C805 C804 1.358 . S
C805 C806 1.405 . S
C806 H778 0.932 . S
C806 C805 1.405 . S
C806 C807 1.383 . S
C807 C806 1.383 . S
C807 C808 1.393 . S
C808 H780 0.931 . S
C808 C807 1.393 . S
C808 C809 1.382 . S
C809 H779 0.929 . S
C809 C804 1.371 . S
C809 C808 1.382 . S
C810 N773 1.423 . S
C810 C811 1.362 . S
C810 C815 1.388 . S
C811 H781 0.929 . S
C811 C810 1.362 . S
C811 C812 1.376 . S
C812 H783 0.931 . S
C812 C811 1.376 . S
C812 C813 1.396 . S
C813 C812 1.396 . S
C813 C814 1.348 . S
C813 C831 1.472 . S
C814 H784 0.929 . S
C814 C813 1.348 . S
C814 C815 1.443 . S
C815 H782 0.932 . S
C815 C810 1.388 . S
C815 C814 1.443 . S
C816 N796 1.433 . S
C816 C817 1.363 . S
C816 C821 1.370 . S
C817 H785 0.929 . S
C817 C816 1.363 . S
C817 C818 1.385 . S
C818 H786 0.930 . S
C818 C817 1.385 . S
C818 C819 1.357 . S
C819 C818 1.357 . S
C819 C820 1.406 . S
C820 H787 0.929 . S
C820 C819 1.406 . S
C820 C821 1.391 . S
C821 H788 0.931 . S
C821 C816 1.370 . S
C821 C820 1.391 . S
C822 N796 1.435 . S
C822 C823 1.358 . S
C822 C827 1.371 . S
C823 H789 0.930 . S
C823 C822 1.358 . S
C823 C824 1.405 . S
C824 H790 0.932 . S
C824 C823 1.405 . S
C824 C825 1.383 . S
C825 C824 1.383 . S
C825 C826 1.393 . S
C826 H791 0.931 . S
C826 C825 1.393 . S
C826 C827 1.382 . S
C827 H792 0.929 . S
C827 C822 1.371 . S
C827 C826 1.382 . S
C828 N796 1.423 . S
C828 C829 1.362 . S
C828 C833 1.388 . S
C829 H793 0.929 . S
C829 C828 1.362 . S
C829 C830 1.376 . S
C830 H794 0.931 . S
C830 C829 1.376 . S
C830 C831 1.396 . S
C831 C813 1.472 . S
C831 C830 1.396 . S
C831 C832 1.348 . S
C832 H795 0.929 . S
C832 C831 1.348 . S
C832 C833 1.443 . S
C833 H797 0.932 . S
C833 C828 1.388 . S
C833 C832 1.443 . S
H834 C861 0.929 . S
N835 C860 1.433 . S
N835 C866 1.435 . S
N835 C872 1.423 . S
H836 C862 0.930 . S
H837 C865 0.931 . S
H838 C864 0.929 . S
H839 C867 0.930 . S
H840 C868 0.932 . S
H841 C871 0.929 . S
H842 C870 0.931 . S
H843 C873 0.929 . S
H844 C877 0.932 . S
H845 C874 0.931 . S
H846 C876 0.929 . S
H847 C879 0.929 . S
H848 C880 0.930 . S
H849 C882 0.929 . S
H850 C883 0.931 . S
H851 C885 0.930 . S
H852 C886 0.932 . S
H853 C888 0.931 . S
H854 C889 0.929 . S
H855 C891 0.929 . S
H856 C892 0.931 . S
H857 C894 0.929 . S
N858 C878 1.433 . S
N858 C884 1.435 . S
N858 C890 1.423 . S
H859 C895 0.932 . S
C860 N835 1.433 . S
C860 C861 1.363 . S
C860 C865 1.370 . S
C861 H834 0.929 . S
C861 C860 1.363 . S
C861 C862 1.385 . S
C862 H836 0.930 . S
C862 C861 1.385 . S
C862 C863 1.357 . S
C863 C862 1.357 . S
C863 C864 1.406 . S
C864 H838 0.929 . S
C864 C863 1.406 . S
C864 C865 1.391 . S
C865 H837 0.931 . S
C865 C860 1.370 . S
C865 C864 1.391 . S
C866 N835 1.435 . S
C866 C867 1.358 . S
C866 C871 1.371 . S
C867 H839 0.930 . S
C867 C866 1.358 . S
C867 C868 1.405 . S
C868 H840 0.932 . S
C868 C867 1.405 . S
C868 C869 1.383 . S
C869 C868 1.383 . S
C869 C870 1.393 . S
C870 H842 0.931 . S
C870 C869 1.393 . S
C870 C871 1.382 . S
C871 H841 0.929 . S
C871 C866 1.371 . S
C871 C870 1.382 . S
C872 N835 1.423 . S
C872 C873 1.362 . S
C872 C877 1.388 . S
C873 H843 0.929 . S
C873 C872 1.362 . S
C873 C874 1.376 . S
C874 H845 0.931 . S
C874 C873 1.376 . S
C874 C875 1.396 . S
C875 C874 1.396 . S
C875 C876 1.348 . S
C875 C893 1.472 . S
C876 H846 0.929 . S
C876 C875 1.348 . S
C876 C877 1.443 . S
C877 H844 0.932 . S
C877 C872 1.388 . S
C877 C876 1.443 . S
C878 N858 1.433 . S
C878 C879 1.363 . S
C878 C883 1.370 . S
C879 H847 0.929 . S
C879 C878 1.363 . S
C879 C880 1.385 . S
C880 H848 0.930 . S
C880 C879 1.385 . S
C880 C881 1.357 . S
C881 C880 1.357 . S
C881 C882 1.406 . S
C882 H849 0.929 . S
C882 C881 1.406 . S
C882 C883 1.391 . S
C883 H850 0.931 . S
C883 C878 1.370 . S
C883 C882 1.391 . S
C884 N858 1.435 . S
C884 C885 1.358 . S
C884 C889 1.371 . S
C885 H851 0.930 . S
C885 C884 1.358 . S
C885 C886 1.405 . S
C886 H852 0.932 . S
C886 C885 1.405 . S
C886 C887 1.383 . S
C887 C886 1.383 . S
C887 C888 1.393 . S
C888 H853 0.931 . S
C888 C887 1.393 . S
C888 C889 1.382 . S
C889 H854 0.929 . S
C889 C884 1.371 . S
C889 C888 1.382 . S
C890 N858 1.423 . S
C890 C891 1.362 . S
C890 C895 1.388 . S
C891 H855 0.929 . S
C891 C890 1.362 . S
C891 C892 1.376 . S
C892 H856 0.931 . S
C892 C891 1.376 . S
C892 C893 1.396 . S
C893 C875 1.472 . S
C893 C892 1.396 . S
C893 C894 1.348 . S
C894 H857 0.929 . S
C894 C893 1.348 . S
C894 C895 1.443 . S
C895 H859 0.932 . S
C895 C890 1.388 . S
C895 C894 1.443 . S
H896 C923 0.929 . S
N897 C922 1.433 . S
N897 C928 1.435 . S
N897 C934 1.423 . S
H898 C924 0.930 . S
H899 C927 0.931 . S
H900 C926 0.929 . S
H901 C929 0.930 . S
H902 C930 0.932 . S
H903 C933 0.929 . S
H904 C932 0.931 . S
H905 C935 0.929 . S
H906 C939 0.932 . S
H907 C936 0.931 . S
H908 C938 0.929 . S
H909 C941 0.929 . S
H910 C942 0.930 . S
H911 C944 0.929 . S
H912 C945 0.931 . S
H913 C947 0.930 . S
H914 C948 0.932 . S
H915 C950 0.931 . S
H916 C951 0.929 . S
H917 C953 0.929 . S
H918 C954 0.931 . S
H919 C956 0.929 . S
N920 C940 1.433 . S
N920 C946 1.435 . S
N920 C952 1.423 . S
H921 C957 0.932 . S
C922 N897 1.433 . S
C922 C923 1.363 . S
C922 C927 1.370 . S
C923 H896 0.929 . S
C923 C922 1.363 . S
C923 C924 1.385 . S
C924 H898 0.930 . S
C924 C923 1.385 . S
C924 C925 1.357 . S
C925 C924 1.357 . S
C925 C926 1.406 . S
C926 H900 0.929 . S
C926 C925 1.406 . S
C926 C927 1.391 . S
C927 H899 0.931 . S
C927 C922 1.370 . S
C927 C926 1.391 . S
C928 N897 1.435 . S
C928 C929 1.358 . S
C928 C933 1.371 . S
C929 H901 0.930 . S
C929 C928 1.358 . S
C929 C930 1.405 . S
C930 H902 0.932 . S
C930 C929 1.405 . S
C930 C931 1.383 . S
C931 C930 1.383 . S
C931 C932 1.393 . S
C932 H904 0.931 . S
C932 C931 1.393 . S
C932 C933 1.382 . S
C933 H903 0.929 . S
C933 C928 1.371 . S
C933 C932 1.382 . S
C934 N897 1.423 . S
C934 C935 1.362 . S
C934 C939 1.388 . S
C935 H905 0.929 . S
C935 C934 1.362 . S
C935 C936 1.376 . S
C936 H907 0.931 . S
C936 C935 1.376 . S
C936 C937 1.396 . S
C937 C936 1.396 . S
C937 C938 1.348 . S
C937 C955 1.472 . S
C938 H908 0.929 . S
C938 C937 1.348 . S
C938 C939 1.443 . S
C939 H906 0.932 . S
C939 C934 1.388 . S
C939 C938 1.443 . S
C940 N920 1.433 . S
C940 C941 1.363 . S
C940 C945 1.370 . S
C941 H909 0.929 . S
C941 C940 1.363 . S
C941 C942 1.385 . S
C942 H910 0.930 . S
C942 C941 1.385 . S
C942 C943 1.357 . S
C943 C942 1.357 . S
C943 C944 1.406 . S
C944 H911 0.929 . S
C944 C943 1.406 . S
C944 C945 1.391 . S
C945 H912 0.931 . S
C945 C940 1.370 . S
C945 C944 1.391 . S
C946 N920 1.435 . S
C946 C947 1.358 . S
C946 C951 1.371 . S
C947 H913 0.930 . S
C947 C946 1.358 . S
C947 C948 1.405 . S
C948 H914 0.932 . S
C948 C947 1.405 . S
C948 C949 1.383 . S
C949 C948 1.383 . S
C949 C950 1.393 . S
C950 H915 0.931 . S
C950 C949 1.393 . S
C950 C951 1.382 . S
C951 H916 0.929 . S
C951 C946 1.371 . S
C951 C950 1.382 . S
C952 N920 1.423 . S
C952 C953 1.362 . S
C952 C957 1.388 . S
C953 H917 0.929 . S
C953 C952 1.362 . S
C953 C954 1.376 . S
C954 H918 0.931 . S
C954 C953 1.376 . S
C954 C955 1.396 . S
C955 C937 1.472 . S
C955 C954 1.396 . S
C955 C956 1.348 . S
C956 H919 0.929 . S
C956 C955 1.348 . S
C956 C957 1.443 . S
C957 H921 0.932 . S
C957 C952 1.388 . S
C957 C956 1.443 . S
H958 C985 0.929 . S
N959 C984 1.433 . S
N959 C990 1.435 . S
N959 C996 1.423 . S
H960 C986 0.930 . S
H961 C989 0.931 . S
H962 C988 0.929 . S
H963 C991 0.930 . S
H964 C992 0.932 . S
H965 C995 0.929 . S
H966 C994 0.931 . S
H967 C997 0.929 . S
H968 C1001 0.932 . S
H969 C998 0.931 . S
H970 C1000 0.929 . S
H971 C1003 0.929 . S
H972 C1004 0.930 . S
H973 C1006 0.929 . S
H974 C1007 0.931 . S
H975 C1009 0.930 . S
H976 C1010 0.932 . S
H977 C1012 0.931 . S
H978 C1013 0.929 . S
H979 C1015 0.929 . S
H980 C1016 0.931 . S
H981 C1018 0.929 . S
N982 C1002 1.433 . S
N982 C1008 1.435 . S
N982 C1014 1.423 . S
H983 C1019 0.932 . S
C984 N959 1.433 . S
C984 C985 1.363 . S
C984 C989 1.370 . S
C985 H958 0.929 . S
C985 C984 1.363 . S
C985 C986 1.385 . S
C986 H960 0.930 . S
C986 C985 1.385 . S
C986 C987 1.357 . S
C987 C986 1.357 . S
C987 C988 1.406 . S
C988 H962 0.929 . S
C988 C987 1.406 . S
C988 C989 1.391 . S
C989 H961 0.931 . S
C989 C984 1.370 . S
C989 C988 1.391 . S
C990 N959 1.435 . S
C990 C991 1.358 . S
C990 C995 1.371 . S
C991 H963 0.930 . S
C991 C990 1.358 . S
C991 C992 1.405 . S
C992 H964 0.932 . S
C992 C991 1.405 . S
C992 C993 1.383 . S
C993 C992 1.383 . S
C993 C994 1.393 . S
C994 H966 0.931 . S
C994 C993 1.393 . S
C994 C995 1.382 . S
C995 H965 0.929 . S
C995 C990 1.371 . S
C995 C994 1.382 . S
C996 N959 1.423 . S
C996 C997 1.362 . S
C996 C1001 1.388 . S
C997 H967 0.929 . S
C997 C996 1.362 . S
C997 C998 1.376 . S
C998 H969 0.931 . S
C998 C997 1.376 . S
C998 C999 1.396 . S
C999 C998 1.396 . S
C999 C1000 1.348 . S
C999 C1017 1.472 . S
C1000 H970 0.929 . S
C1000 C999 1.348 . S
C1000 C1001 1.443 . S
C1001 H968 0.932 . S
C1001 C996 1.388 . S
C1001 C1000 1.443 . S
C1002 N982 1.433 . S
C1002 C1003 1.363 . S
C1002 C1007 1.370 . S
C1003 H971 0.929 . S
C1003 C1002 1.363 . S
C1003 C1004 1.385 . S
C1004 H972 0.930 . S
C1004 C1003 1.385 . S
C1004 C1005 1.357 . S
C1005 C1004 1.357 . S
C1005 C1006 1.406 . S
C1006 H973 0.929 . S
C1006 C1005 1.406 . S
C1006 C1007 1.391 . S
C1007 H974 0.931 . S
C1007 C1002 1.370 . S
C1007 C1006 1.391 . S
C1008 N982 1.435 . S
C1008 C1009 1.358 . S
C1008 C1013 1.371 . S
C1009 H975 0.930 . S
C1009 C1008 1.358 . S
C1009 C1010 1.405 . S
C1010 H976 0.932 . S
C1010 C1009 1.405 . S
C1010 C1011 1.383 . S
C1011 C1010 1.383 . S
C1011 C1012 1.393 . S
C1012 H977 0.931 . S
C1012 C1011 1.393 . S
C1012 C1013 1.382 . S
C1013 H978 0.929 . S
C1013 C1008 1.371 . S
C1013 C1012 1.382 . S
C1014 N982 1.423 . S
C1014 C1015 1.362 . S
C1014 C1019 1.388 . S
C1015 H979 0.929 . S
C1015 C1014 1.362 . S
C1015 C1016 1.376 . S
C1016 H980 0.931 . S
C1016 C1015 1.376 . S
C1016 C1017 1.396 . S
C1017 C999 1.472 . S
C1017 C1016 1.396 . S
C1017 C1018 1.348 . S
C1018 H981 0.929 . S
C1018 C1017 1.348 . S
C1018 C1019 1.443 . S
C1019 H983 0.932 . S
C1019 C1014 1.388 . S
C1019 C1018 1.443 . S
H1020 C1047 0.929 . S
N1021 C1046 1.433 . S
N1021 C1052 1.435 . S
N1021 C1058 1.423 . S
H1022 C1048 0.930 . S
H1023 C1051 0.931 . S
H1024 C1050 0.929 . S
H1025 C1053 0.930 . S
H1026 C1054 0.932 . S
H1027 C1057 0.929 . S
H1028 C1056 0.931 . S
H1029 C1059 0.929 . S
H1030 C1063 0.932 . S
H1031 C1060 0.931 . S
H1032 C1062 0.929 . S
H1033 C1065 0.929 . S
H1034 C1066 0.930 . S
H1035 C1068 0.929 . S
H1036 C1069 0.931 . S
H1037 C1071 0.930 . S
H1038 C1072 0.932 . S
H1039 C1074 0.931 . S
H1040 C1075 0.929 . S
H1041 C1077 0.929 . S
H1042 C1078 0.931 . S
H1043 C1080 0.929 . S
N1044 C1064 1.433 . S
N1044 C1070 1.435 . S
N1044 C1076 1.423 . S
H1045 C1081 0.932 . S
C1046 N1021 1.433 . S
C1046 C1047 1.363 . S
C1046 C1051 1.370 . S
C1047 H1020 0.929 . S
C1047 C1046 1.363 . S
C1047 C1048 1.385 . S
C1048 H1022 0.930 . S
C1048 C1047 1.385 . S
C1048 C1049 1.357 . S
C1049 C1048 1.357 . S
C1049 C1050 1.406 . S
C1050 H1024 0.929 . S
C1050 C1049 1.406 . S
C1050 C1051 1.391 . S
C1051 H1023 0.931 . S
C1051 C1046 1.370 . S
C1051 C1050 1.391 . S
C1052 N1021 1.435 . S
C1052 C1053 1.358 . S
C1052 C1057 1.371 . S
C1053 H1025 0.930 . S
C1053 C1052 1.358 . S
C1053 C1054 1.405 . S
C1054 H1026 0.932 . S
C1054 C1053 1.405 . S
C1054 C1055 1.383 . S
C1055 C1054 1.383 . S
C1055 C1056 1.393 . S
C1056 H1028 0.931 . S
C1056 C1055 1.393 . S
C1056 C1057 1.382 . S
C1057 H1027 0.929 . S
C1057 C1052 1.371 . S
C1057 C1056 1.382 . S
C1058 N1021 1.423 . S
C1058 C1059 1.362 . S
C1058 C1063 1.388 . S
C1059 H1029 0.929 . S
C1059 C1058 1.362 . S
C1059 C1060 1.376 . S
C1060 H1031 0.931 . S
C1060 C1059 1.376 . S
C1060 C1061 1.396 . S
C1061 C1060 1.396 . S
C1061 C1062 1.348 . S
C1061 C1079 1.472 . S
C1062 H1032 0.929 . S
C1062 C1061 1.348 . S
C1062 C1063 1.443 . S
C1063 H1030 0.932 . S
C1063 C1058 1.388 . S
C1063 C1062 1.443 . S
C1064 N1044 1.433 . S
C1064 C1065 1.363 . S
C1064 C1069 1.370 . S
C1065 H1033 0.929 . S
C1065 C1064 1.363 . S
C1065 C1066 1.385 . S
C1066 H1034 0.930 . S
C1066 C1065 1.385 . S
C1066 C1067 1.357 . S
C1067 C1066 1.357 . S
C1067 C1068 1.406 . S
C1068 H1035 0.929 . S
C1068 C1067 1.406 . S
C1068 C1069 1.391 . S
C1069 H1036 0.931 . S
C1069 C1064 1.370 . S
C1069 C1068 1.391 . S
C1070 N1044 1.435 . S
C1070 C1071 1.358 . S
C1070 C1075 1.371 . S
C1071 H1037 0.930 . S
C1071 C1070 1.358 . S
C1071 C1072 1.405 . S
C1072 H1038 0.932 . S
C1072 C1071 1.405 . S
C1072 C1073 1.383 . S
C1073 C1072 1.383 . S
C1073 C1074 1.393 . S
C1074 H1039 0.931 . S
C1074 C1073 1.393 . S
C1074 C1075 1.382 . S
C1075 H1040 0.929 . S
C1075 C1070 1.371 . S
C1075 C1074 1.382 . S
C1076 N1044 1.423 . S
C1076 C1077 1.362 . S
C1076 C1081 1.388 . S
C1077 H1041 0.929 . S
C1077 C1076 1.362 . S
C1077 C1078 1.376 . S
C1078 H1042 0.931 . S
C1078 C1077 1.376 . S
C1078 C1079 1.396 . S
C1079 C1061 1.472 . S
C1079 C1078 1.396 . S
C1079 C1080 1.348 . S
C1080 H1043 0.929 . S
C1080 C1079 1.348 . S
C1080 C1081 1.443 . S
C1081 H1045 0.932 . S
C1081 C1076 1.388 . S
C1081 C1080 1.443 . S
H1082 C1109 0.929 . S
N1083 C1108 1.433 . S
N1083 C1114 1.435 . S
N1083 C1120 1.423 . S
H1084 C1110 0.930 . S
H1085 C1113 0.931 . S
H1086 C1112 0.929 . S
H1087 C1115 0.930 . S
H1088 C1116 0.932 . S
H1089 C1119 0.929 . S
H1090 C1118 0.931 . S
H1091 C1121 0.929 . S
H1092 C1125 0.932 . S
H1093 C1122 0.931 . S
H1094 C1124 0.929 . S
H1095 C1127 0.929 . S
H1096 C1128 0.930 . S
H1097 C1130 0.929 . S
H1098 C1131 0.931 . S
H1099 C1133 0.930 . S
H1100 C1134 0.932 . S
H1101 C1136 0.931 . S
H1102 C1137 0.929 . S
H1103 C1139 0.929 . S
H1104 C1140 0.931 . S
H1105 C1142 0.929 . S
N1106 C1126 1.433 . S
N1106 C1132 1.435 . S
N1106 C1138 1.423 . S
H1107 C1143 0.932 . S
C1108 N1083 1.433 . S
C1108 C1109 1.363 . S
C1108 C1113 1.370 . S
C1109 H1082 0.929 . S
C1109 C1108 1.363 . S
C1109 C1110 1.385 . S
C1110 H1084 0.930 . S
C1110 C1109 1.385 . S
C1110 C1111 1.357 . S
C1111 C1110 1.357 . S
C1111 C1112 1.406 . S
C1112 H1086 0.929 . S
C1112 C1111 1.406 . S
C1112 C1113 1.391 . S
C1113 H1085 0.931 . S
C1113 C1108 1.370 . S
C1113 C1112 1.391 . S
C1114 N1083 1.435 . S
C1114 C1115 1.358 . S
C1114 C1119 1.371 . S
C1115 H1087 0.930 . S
C1115 C1114 1.358 . S
C1115 C1116 1.405 . S
C1116 H1088 0.932 . S
C1116 C1115 1.405 . S
C1116 C1117 1.383 . S
C1117 C1116 1.383 . S
C1117 C1118 1.393 . S
C1118 H1090 0.931 . S
C1118 C1117 1.393 . S
C1118 C1119 1.382 . S
C1119 H1089 0.929 . S
C1119 C1114 1.371 . S
C1119 C1118 1.382 . S
C1120 N1083 1.423 . S
C1120 C1121 1.362 . S
C1120 C1125 1.388 . S
C1121 H1091 0.929 . S
C1121 C1120 1.362 . S
C1121 C1122 1.376 . S
C1122 H1093 0.931 . S
C1122 C1121 1.376 . S
C1122 C1123 1.396 . S
C1123 C1122 1.396 . S
C1123 C1124 1.348 . S
C1123 C1141 1.472 . S
C1124 H1094 0.929 . S
C1124 C1123 1.348 . S
C1124 C1125 1.443 . S
C1125 H1092 0.932 . S
C1125 C1120 1.388 . S
C1125 C1124 1.443 . S
C1126 N1106 1.433 . S
C1126 C1127 1.363 . S
C1126 C1131 1.370 . S
C1127 H1095 0.929 . S
C1127 C1126 1.363 . S
C1127 C1128 1.385 . S
C1128 H1096 0.930 . S
C1128 C1127 1.385 . S
C1128 C1129 1.357 . S
C1129 C1128 1.357 . S
C1129 C1130 1.406 . S
C1130 H1097 0.929 . S
C1130 C1129 1.406 . S
C1130 C1131 1.391 . S
C1131 H1098 0.931 . S
C1131 C1126 1.370 . S
C1131 C1130 1.391 . S
C1132 N1106 1.435 . S
C1132 C1133 1.358 . S
C1132 C1137 1.371 . S
C1133 H1099 0.930 . S
C1133 C1132 1.358 . S
C1133 C1134 1.405 . S
C1134 H1100 0.932 . S
C1134 C1133 1.405 . S
C1134 C1135 1.383 . S
C1135 C1134 1.383 . S
C1135 C1136 1.393 . S
C1136 H1101 0.931 . S
C1136 C1135 1.393 . S
C1136 C1137 1.382 . S
C1137 H1102 0.929 . S
C1137 C1132 1.371 . S
C1137 C1136 1.382 . S
C1138 N1106 1.423 . S
C1138 C1139 1.362 . S
C1138 C1143 1.388 . S
C1139 H1103 0.929 . S
C1139 C1138 1.362 . S
C1139 C1140 1.376 . S
C1140 H1104 0.931 . S
C1140 C1139 1.376 . S
C1140 C1141 1.396 . S
C1141 C1123 1.472 . S
C1141 C1140 1.396 . S
C1141 C1142 1.348 . S
C1142 H1105 0.929 . S
C1142 C1141 1.348 . S
C1142 C1143 1.443 . S
C1143 H1107 0.932 . S
C1143 C1138 1.388 . S
C1143 C1142 1.443 . S
H1144 C1171 0.929 . S
N1145 C1170 1.433 . S
N1145 C1176 1.435 . S
N1145 C1182 1.423 . S
H1146 C1172 0.930 . S
H1147 C1175 0.931 . S
H1148 C1174 0.929 . S
H1149 C1177 0.930 . S
H1150 C1178 0.932 . S
H1151 C1181 0.929 . S
H1152 C1180 0.931 . S
H1153 C1183 0.929 . S
H1154 C1187 0.932 . S
H1155 C1184 0.931 . S
H1156 C1186 0.929 . S
H1157 C1189 0.929 . S
H1158 C1190 0.930 . S
H1159 C1192 0.929 . S
H1160 C1193 0.931 . S
H1161 C1195 0.930 . S
H1162 C1196 0.932 . S
H1163 C1198 0.931 . S
H1164 C1199 0.929 . S
H1165 C1201 0.929 . S
H1166 C1202 0.931 . S
H1167 C1204 0.929 . S
N1168 C1188 1.433 . S
N1168 C1194 1.435 . S
N1168 C1200 1.423 . S
H1169 C1205 0.932 . S
C1170 N1145 1.433 . S
C1170 C1171 1.363 . S
C1170 C1175 1.370 . S
C1171 H1144 0.929 . S
C1171 C1170 1.363 . S
C1171 C1172 1.385 . S
C1172 H1146 0.930 . S
C1172 C1171 1.385 . S
C1172 C1173 1.357 . S
C1173 C1172 1.357 . S
C1173 C1174 1.406 . S
C1174 H1148 0.929 . S
C1174 C1173 1.406 . S
C1174 C1175 1.391 . S
C1175 H1147 0.931 . S
C1175 C1170 1.370 . S
C1175 C1174 1.391 . S
C1176 N1145 1.435 . S
C1176 C1177 1.358 . S
C1176 C1181 1.371 . S
C1177 H1149 0.930 . S
C1177 C1176 1.358 . S
C1177 C1178 1.405 . S
C1178 H1150 0.932 . S
C1178 C1177 1.405 . S
C1178 C1179 1.383 . S
C1179 C1178 1.383 . S
C1179 C1180 1.393 . S
C1180 H1152 0.931 . S
C1180 C1179 1.393 . S
C1180 C1181 1.382 . S
C1181 H1151 0.929 . S
C1181 C1176 1.371 . S
C1181 C1180 1.382 . S
C1182 N1145 1.423 . S
C1182 C1183 1.362 . S
C1182 C1187 1.388 . S
C1183 H1153 0.929 . S
C1183 C1182 1.362 . S
C1183 C1184 1.376 . S
C1184 H1155 0.931 . S
C1184 C1183 1.376 . S
C1184 C1185 1.396 . S
C1185 C1184 1.396 . S
C1185 C1186 1.348 . S
C1185 C1203 1.472 . S
C1186 H1156 0.929 . S
C1186 C1185 1.348 . S
C1186 C1187 1.443 . S
C1187 H1154 0.932 . S
C1187 C1182 1.388 . S
C1187 C1186 1.443 . S
C1188 N1168 1.433 . S
C1188 C1189 1.363 . S
C1188 C1193 1.370 . S
C1189 H1157 0.929 . S
C1189 C1188 1.363 . S
C1189 C1190 1.385 . S
C1190 H1158 0.930 . S
C1190 C1189 1.385 . S
C1190 C1191 1.357 . S
C1191 C1190 1.357 . S
C1191 C1192 1.406 . S
C1192 H1159 0.929 . S
C1192 C1191 1.406 . S
C1192 C1193 1.391 . S
C1193 H1160 0.931 . S
C1193 C1188 1.370 . S
C1193 C1192 1.391 . S
C1194 N1168 1.435 . S
C1194 C1195 1.358 . S
C1194 C1199 1.371 . S
C1195 H1161 0.930 . S
C1195 C1194 1.358 . S
C1195 C1196 1.405 . S
C1196 H1162 0.932 . S
C1196 C1195 1.405 . S
C1196 C1197 1.383 . S
C1197 C1196 1.383 . S
C1197 C1198 1.393 . S
C1198 H1163 0.931 . S
C1198 C1197 1.393 . S
C1198 C1199 1.382 . S
C1199 H1164 0.929 . S
C1199 C1194 1.371 . S
C1199 C1198 1.382 . S
C1200 N1168 1.423 . S
C1200 C1201 1.362 . S
C1200 C1205 1.388 . S
C1201 H1165 0.929 . S
C1201 C1200 1.362 . S
C1201 C1202 1.376 . S
C1202 H1166 0.931 . S
C1202 C1201 1.376 . S
C1202 C1203 1.396 . S
C1203 C1185 1.472 . S
C1203 C1202 1.396 . S
C1203 C1204 1.348 . S
C1204 H1167 0.929 . S
C1204 C1203 1.348 . S
C1204 C1205 1.443 . S
C1205 H1169 0.932 . S
C1205 C1200 1.388 . S
C1205 C1204 1.443 . S
H1206 C1233 0.929 . S
N1207 C1232 1.433 . S
N1207 C1238 1.435 . S
N1207 C1244 1.423 . S
H1208 C1234 0.930 . S
H1209 C1237 0.931 . S
H1210 C1236 0.929 . S
H1211 C1239 0.930 . S
H1212 C1240 0.932 . S
H1213 C1243 0.929 . S
H1214 C1242 0.931 . S
H1215 C1245 0.929 . S
H1216 C1249 0.932 1_655 S
H1217 C1246 0.931 . S
H1218 C1248 0.941 . S
H1219 C1251 0.929 . S
H1220 C1252 0.930 . S
H1221 C1254 0.929 . S
H1222 C1255 0.931 . S
H1223 C1257 0.930 . S
H1224 C1258 0.932 . S
H1225 C1260 0.931 . S
H1226 C1261 0.929 . S
H1227 C1263 0.929 . S
H1228 C1264 0.931 . S
H1229 C1266 0.973 . S
N1230 C1250 1.433 . S
N1230 C1256 1.435 . S
N1230 C1262 1.423 . S
H1231 C1267 0.932 1_655 S
C1232 N1207 1.433 . S
C1232 C1233 1.363 . S
C1232 C1237 1.370 1_455 S
C1233 H1206 0.929 . S
C1233 C1232 1.363 . S
C1233 C1234 1.385 . S
C1234 H1208 0.930 . S
C1234 C1233 1.385 . S
C1234 C1235 1.357 1_455 S
C1235 C1234 1.357 1_655 S
C1235 C1236 1.406 . S
C1236 H1210 0.929 . S
C1236 C1235 1.406 . S
C1236 C1237 1.391 . S
C1237 H1209 0.931 . S
C1237 C1232 1.370 1_655 S
C1237 C1236 1.391 . S
C1238 N1207 1.435 . S
C1238 C1239 1.358 1_455 S
C1238 C1243 1.371 . S
C1239 H1211 0.930 . S
C1239 C1238 1.358 1_655 S
C1239 C1240 1.405 . S
C1240 H1212 0.932 . S
C1240 C1239 1.405 . S
C1240 C1241 1.383 1_655 S
C1241 C1240 1.383 1_455 S
C1241 C1242 1.393 . S
C1242 H1214 0.931 . S
C1242 C1241 1.393 . S
C1242 C1243 1.382 . S
C1243 H1213 0.929 . S
C1243 C1238 1.371 . S
C1243 C1242 1.382 . S
C1244 N1207 1.423 . S
C1244 C1245 1.362 . S
C1244 C1249 1.388 . S
C1245 H1215 0.929 . S
C1245 C1244 1.362 . S
C1245 C1246 1.376 . S
C1246 H1217 0.931 . S
C1246 C1245 1.376 . S
C1246 C1247 1.396 . S
C1247 C1246 1.396 . S
C1247 C1248 1.348 . S
C1247 C1265 1.472 . S
C1248 H1218 0.941 . S
C1248 C1247 1.348 . S
C1248 C1249 1.443 . S
C1249 H1216 0.932 1_455 S
C1249 C1244 1.388 . S
C1249 C1248 1.443 . S
C1250 N1230 1.433 . S
C1250 C1251 1.363 . S
C1250 C1255 1.370 1_455 S
C1251 H1219 0.929 . S
C1251 C1250 1.363 . S
C1251 C1252 1.385 . S
C1252 H1220 0.930 . S
C1252 C1251 1.385 . S
C1252 C1253 1.357 1_455 S
C1253 C1252 1.357 1_655 S
C1253 C1254 1.406 . S
C1254 H1221 0.929 . S
C1254 C1253 1.406 . S
C1254 C1255 1.391 . S
C1255 H1222 0.931 . S
C1255 C1250 1.370 1_655 S
C1255 C1254 1.391 . S
C1256 N1230 1.435 . S
C1256 C1257 1.358 1_455 S
C1256 C1261 1.371 . S
C1257 H1223 0.930 . S
C1257 C1256 1.358 1_655 S
C1257 C1258 1.405 . S
C1258 H1224 0.932 . S
C1258 C1257 1.405 . S
C1258 C1259 1.383 1_655 S
C1259 C1258 1.383 1_455 S
C1259 C1260 1.393 . S
C1260 H1225 0.931 . S
C1260 C1259 1.393 . S
C1260 C1261 1.382 . S
C1261 H1226 0.929 . S
C1261 C1256 1.371 . S
C1261 C1260 1.382 . S
C1262 N1230 1.423 . S
C1262 C1263 1.362 . S
C1262 C1267 1.388 . S
C1263 H1227 0.929 . S
C1263 C1262 1.362 . S
C1263 C1264 1.376 . S
C1264 H1228 0.931 . S
C1264 C1263 1.376 . S
C1264 C1265 1.396 . S
C1265 C1247 1.472 . S
C1265 C1264 1.396 . S
C1265 C1266 1.348 . S
C1266 H1229 0.973 . S
C1266 C1265 1.348 . S
C1266 C1267 1.443 . S
C1267 H1231 0.932 1_455 S
C1267 C1262 1.388 . S
C1267 C1266 1.443 . S
H1268 C1295 0.929 . S
N1269 C1294 1.433 . S
N1269 C1300 1.435 . S
N1269 C1306 1.423 . S
H1270 C1296 0.930 . S
H1271 C1299 0.931 . S
H1272 C1298 0.929 . S
H1273 C1301 0.930 . S
H1274 C1302 0.932 . S
H1275 C1305 0.929 . S
H1276 C1304 0.931 . S
H1277 C1307 0.929 . S
H1278 C1311 0.932 . S
H1279 C1308 0.931 . S
H1280 C1310 0.929 . S
H1281 C1313 0.929 . S
H1282 C1314 0.930 . S
H1283 C1316 0.929 . S
H1284 C1317 0.931 . S
H1285 C1319 0.930 . S
H1286 C1320 0.932 . S
H1287 C1322 0.931 . S
H1288 C1323 0.929 . S
H1289 C1325 0.929 . S
H1290 C1326 0.931 . S
H1291 C1328 0.929 . S
N1292 C1312 1.433 . S
N1292 C1318 1.435 . S
N1292 C1324 1.423 . S
H1293 C1329 0.932 . S
C1294 N1269 1.433 . S
C1294 C1295 1.363 . S
C1294 C1299 1.370 . S
C1295 H1268 0.929 . S
C1295 C1294 1.363 . S
C1295 C1296 1.385 . S
C1296 H1270 0.930 . S
C1296 C1295 1.385 . S
C1296 C1297 1.357 . S
C1297 C1296 1.357 . S
C1297 C1298 1.406 . S
C1298 H1272 0.929 . S
C1298 C1297 1.406 . S
C1298 C1299 1.391 . S
C1299 H1271 0.931 . S
C1299 C1294 1.370 . S
C1299 C1298 1.391 . S
C1300 N1269 1.435 . S
C1300 C1301 1.358 . S
C1300 C1305 1.371 . S
C1301 H1273 0.930 . S
C1301 C1300 1.358 . S
C1301 C1302 1.405 . S
C1302 H1274 0.932 . S
C1302 C1301 1.405 . S
C1302 C1303 1.383 . S
C1303 C1302 1.383 . S
C1303 C1304 1.393 . S
C1304 H1276 0.931 . S
C1304 C1303 1.393 . S
C1304 C1305 1.382 . S
C1305 H1275 0.929 . S
C1305 C1300 1.371 . S
C1305 C1304 1.382 . S
C1306 N1269 1.423 . S
C1306 C1307 1.362 . S
C1306 C1311 1.388 . S
C1307 H1277 0.929 . S
C1307 C1306 1.362 . S
C1307 C1308 1.376 . S
C1308 H1279 0.931 . S
C1308 C1307 1.376 . S
C1308 C1309 1.396 . S
C1309 C1308 1.396 . S
C1309 C1310 1.348 . S
C1309 C1327 1.472 . S
C1310 H1280 0.929 . S
C1310 C1309 1.348 . S
C1310 C1311 1.443 . S
C1311 H1278 0.932 . S
C1311 C1306 1.388 . S
C1311 C1310 1.443 . S
C1312 N1292 1.433 . S
C1312 C1313 1.363 . S
C1312 C1317 1.370 . S
C1313 H1281 0.929 . S
C1313 C1312 1.363 . S
C1313 C1314 1.385 . S
C1314 H1282 0.930 . S
C1314 C1313 1.385 . S
C1314 C1315 1.357 . S
C1315 C1314 1.357 . S
C1315 C1316 1.406 . S
C1316 H1283 0.929 . S
C1316 C1315 1.406 . S
C1316 C1317 1.391 . S
C1317 H1284 0.931 . S
C1317 C1312 1.370 . S
C1317 C1316 1.391 . S
C1318 N1292 1.435 . S
C1318 C1319 1.358 . S
C1318 C1323 1.371 . S
C1319 H1285 0.930 . S
C1319 C1318 1.358 . S
C1319 C1320 1.405 . S
C1320 H1286 0.932 . S
C1320 C1319 1.405 . S
C1320 C1321 1.383 . S
C1321 C1320 1.383 . S
C1321 C1322 1.393 . S
C1322 H1287 0.931 . S
C1322 C1321 1.393 . S
C1322 C1323 1.382 . S
C1323 H1288 0.929 . S
C1323 C1318 1.371 . S
C1323 C1322 1.382 . S
C1324 N1292 1.423 . S
C1324 C1325 1.362 . S
C1324 C1329 1.388 . S
C1325 H1289 0.929 . S
C1325 C1324 1.362 . S
C1325 C1326 1.376 . S
C1326 H1290 0.931 . S
C1326 C1325 1.376 . S
C1326 C1327 1.396 . S
C1327 C1309 1.472 . S
C1327 C1326 1.396 . S
C1327 C1328 1.348 . S
C1328 H1291 0.929 . S
C1328 C1327 1.348 . S
C1328 C1329 1.443 . S
C1329 H1293 0.932 . S
C1329 C1324 1.388 . S
C1329 C1328 1.443 . S
H1330 C1357 0.929 . S
N1331 C1356 1.433 . S
N1331 C1362 1.435 . S
N1331 C1368 1.423 . S
H1332 C1358 0.930 . S
H1333 C1361 0.931 . S
H1334 C1360 0.929 . S
H1335 C1363 0.930 . S
H1336 C1364 0.932 . S
H1337 C1367 0.929 . S
H1338 C1366 0.931 . S
H1339 C1369 0.929 . S
H1340 C1373 0.932 1_545 S
H1341 C1370 0.931 . S
H1342 C1372 0.982 . S
H1343 C1375 0.929 . S
H1344 C1376 0.930 . S
H1345 C1378 0.929 . S
H1346 C1379 0.931 . S
H1347 C1381 0.930 . S
H1348 C1382 0.932 . S
H1349 C1384 0.931 . S
H1350 C1385 0.929 . S
H1351 C1387 0.929 . S
H1352 C1388 0.931 . S
H1353 C1390 0.942 . S
N1354 C1374 1.433 . S
N1354 C1380 1.435 . S
N1354 C1386 1.423 . S
H1355 C1391 0.932 1_545 S
C1356 N1331 1.433 . S
C1356 C1357 1.363 . S
C1356 C1361 1.370 1_565 S
C1357 H1330 0.929 . S
C1357 C1356 1.363 . S
C1357 C1358 1.385 . S
C1358 H1332 0.930 . S
C1358 C1357 1.385 . S
C1358 C1359 1.357 1_565 S
C1359 C1358 1.357 1_545 S
C1359 C1360 1.406 . S
C1360 H1334 0.929 . S
C1360 C1359 1.406 . S
C1360 C1361 1.391 . S
C1361 H1333 0.931 . S
C1361 C1356 1.370 1_545 S
C1361 C1360 1.391 . S
C1362 N1331 1.435 . S
C1362 C1363 1.358 1_565 S
C1362 C1367 1.371 . S
C1363 H1335 0.930 . S
C1363 C1362 1.358 1_545 S
C1363 C1364 1.405 . S
C1364 H1336 0.932 . S
C1364 C1363 1.405 . S
C1364 C1365 1.383 1_545 S
C1365 C1364 1.383 1_565 S
C1365 C1366 1.393 . S
C1366 H1338 0.931 . S
C1366 C1365 1.393 . S
C1366 C1367 1.382 . S
C1367 H1337 0.929 . S
C1367 C1362 1.371 . S
C1367 C1366 1.382 . S
C1368 N1331 1.423 . S
C1368 C1369 1.362 . S
C1368 C1373 1.388 . S
C1369 H1339 0.929 . S
C1369 C1368 1.362 . S
C1369 C1370 1.376 . S
C1370 H1341 0.931 . S
C1370 C1369 1.376 . S
C1370 C1371 1.396 . S
C1371 C1370 1.396 . S
C1371 C1372 1.348 . S
C1371 C1389 1.472 . S
C1372 H1342 0.982 . S
C1372 C1371 1.348 . S
C1372 C1373 1.443 . S
C1373 H1340 0.932 1_565 S
C1373 C1368 1.388 . S
C1373 C1372 1.443 . S
C1374 N1354 1.433 . S
C1374 C1375 1.363 . S
C1374 C1379 1.370 1_565 S
C1375 H1343 0.929 . S
C1375 C1374 1.363 . S
C1375 C1376 1.385 . S
C1376 H1344 0.930 . S
C1376 C1375 1.385 . S
C1376 C1377 1.357 1_565 S
C1377 C1376 1.357 1_545 S
C1377 C1378 1.406 . S
C1378 H1345 0.929 . S
C1378 C1377 1.406 . S
C1378 C1379 1.391 . S
C1379 H1346 0.931 . S
C1379 C1374 1.370 1_545 S
C1379 C1378 1.391 . S
C1380 N1354 1.435 . S
C1380 C1381 1.358 1_565 S
C1380 C1385 1.371 . S
C1381 H1347 0.930 . S
C1381 C1380 1.358 1_545 S
C1381 C1382 1.405 . S
C1382 H1348 0.932 . S
C1382 C1381 1.405 . S
C1382 C1383 1.383 1_545 S
C1383 C1382 1.383 1_565 S
C1383 C1384 1.393 . S
C1384 H1349 0.931 . S
C1384 C1383 1.393 . S
C1384 C1385 1.382 . S
C1385 H1350 0.929 . S
C1385 C1380 1.371 . S
C1385 C1384 1.382 . S
C1386 N1354 1.423 . S
C1386 C1387 1.362 . S
C1386 C1391 1.388 . S
C1387 H1351 0.929 . S
C1387 C1386 1.362 . S
C1387 C1388 1.376 . S
C1388 H1352 0.931 . S
C1388 C1387 1.376 . S
C1388 C1389 1.396 . S
C1389 C1371 1.472 . S
C1389 C1388 1.396 . S
C1389 C1390 1.348 . S
C1390 H1353 0.942 . S
C1390 C1389 1.348 . S
C1390 C1391 1.443 . S
C1391 H1355 0.932 1_565 S
C1391 C1386 1.388 . S
C1391 C1390 1.443 . S
H1392 C1419 0.929 . S
N1393 C1418 1.433 . S
N1393 C1424 1.435 . S
N1393 C1430 1.423 . S
H1394 C1420 0.930 . S
H1395 C1423 0.931 . S
H1396 C1422 0.929 . S
H1397 C1425 0.930 . S
H1398 C1426 0.932 . S
H1399 C1429 0.929 . S
H1400 C1428 0.931 . S
H1401 C1431 0.929 . S
H1402 C1435 0.997 . S
H1403 C1432 0.931 . S
H1404 C1434 0.916 1_545 S
H1405 C1437 0.929 . S
H1406 C1438 0.930 . S
H1407 C1440 0.929 . S
H1408 C1441 0.931 . S
H1409 C1443 0.930 . S
H1410 C1444 0.932 . S
H1411 C1446 0.931 . S
H1412 C1447 0.929 . S
H1413 C1449 0.929 . S
H1414 C1450 0.931 . S
H1415 C1452 0.887 1_545 S
N1416 C1436 1.433 . S
N1416 C1442 1.435 . S
N1416 C1448 1.423 . S
H1417 C1453 0.968 . S
C1418 N1393 1.433 . S
C1418 C1419 1.363 . S
C1418 C1423 1.360 1_565 S
C1419 H1392 0.929 . S
C1419 C1418 1.363 . S
C1419 C1420 1.385 . S
C1420 H1394 0.930 . S
C1420 C1419 1.385 . S
C1420 C1421 1.357 . S
C1421 C1420 1.357 . S
C1421 C1422 1.406 1_565 S
C1422 H1396 0.929 . S
C1422 C1421 1.406 1_545 S
C1422 C1423 1.409 . S
C1423 H1395 0.931 . S
C1423 C1418 1.360 1_545 S
C1423 C1422 1.409 . S
C1424 N1393 1.435 . S
C1424 C1425 1.358 1_565 S
C1424 C1429 1.371 . S
C1425 H1397 0.930 . S
C1425 C1424 1.358 1_545 S
C1425 C1426 1.405 . S
C1426 H1398 0.932 . S
C1426 C1425 1.405 . S
C1426 C1427 1.383 . S
C1427 C1426 1.383 . S
C1427 C1428 1.393 1_545 S
C1428 H1400 0.931 . S
C1428 C1427 1.393 1_565 S
C1428 C1429 1.382 . S
C1429 H1399 0.929 . S
C1429 C1424 1.371 . S
C1429 C1428 1.382 . S
C1430 N1393 1.423 . S
C1430 C1431 1.362 . S
C1430 C1435 1.369 1_565 S
C1431 H1401 0.929 . S
C1431 C1430 1.362 . S
C1431 C1432 1.376 . S
C1432 H1403 0.931 . S
C1432 C1431 1.376 . S
C1432 C1433 1.396 . S
C1433 C1432 1.396 . S
C1433 C1434 1.403 . S
C1433 C1451 1.472 . S
C1434 H1404 0.916 1_565 S
C1434 C1433 1.403 . S
C1434 C1435 1.364 1_565 S
C1435 H1402 0.997 . S
C1435 C1430 1.369 1_545 S
C1435 C1434 1.364 1_545 S
C1436 N1416 1.433 . S
C1436 C1437 1.363 . S
C1436 C1441 1.370 1_565 S
C1437 H1405 0.929 . S
C1437 C1436 1.363 . S
C1437 C1438 1.385 . S
C1438 H1406 0.930 . S
C1438 C1437 1.385 . S
C1438 C1439 1.357 . S
C1439 C1438 1.357 . S
C1439 C1440 1.406 1_565 S
C1440 H1407 0.929 . S
C1440 C1439 1.406 1_545 S
C1440 C1441 1.391 . S
C1441 H1408 0.931 . S
C1441 C1436 1.370 1_545 S
C1441 C1440 1.391 . S
C1442 N1416 1.435 . S
C1442 C1443 1.358 1_565 S
C1442 C1447 1.371 . S
C1443 H1409 0.930 . S
C1443 C1442 1.358 1_545 S
C1443 C1444 1.405 . S
C1444 H1410 0.932 . S
C1444 C1443 1.405 . S
C1444 C1445 1.383 . S
C1445 C1444 1.383 . S
C1445 C1446 1.393 1_545 S
C1446 H1411 0.931 . S
C1446 C1445 1.393 1_565 S
C1446 C1447 1.382 . S
C1447 H1412 0.929 . S
C1447 C1442 1.371 . S
C1447 C1446 1.382 . S
C1448 N1416 1.423 . S
C1448 C1449 1.362 . S
C1448 C1453 1.320 1_565 S
C1449 H1413 0.929 . S
C1449 C1448 1.362 . S
C1449 C1450 1.376 . S
C1450 H1414 0.931 . S
C1450 C1449 1.376 . S
C1450 C1451 1.396 . S
C1451 C1433 1.472 . S
C1451 C1450 1.396 . S
C1451 C1452 1.366 . S
C1452 H1415 0.887 1_565 S
C1452 C1451 1.366 . S
C1452 C1453 1.510 1_565 S
C1453 H1417 0.968 . S
C1453 C1448 1.320 1_545 S
C1453 C1452 1.510 1_545 S
H1454 C1481 0.929 . S
N1455 C1480 1.433 . S
N1455 C1486 1.435 . S
N1455 C1492 1.423 . S
H1456 C1482 0.930 . S
H1457 C1485 0.931 . S
H1458 C1484 0.929 . S
H1459 C1487 0.930 . S
H1460 C1488 0.932 . S
H1461 C1491 0.929 . S
H1462 C1490 0.931 . S
H1463 C1493 0.929 . S
H1464 C1497 0.932 1_455 S
H1465 C1494 0.931 . S
H1466 C1496 0.982 . S
H1467 C1499 0.929 . S
H1468 C1500 0.930 . S
H1469 C1502 0.929 . S
H1470 C1503 0.931 . S
H1471 C1505 0.930 . S
H1472 C1506 0.932 . S
H1473 C1508 0.931 . S
H1474 C1509 0.929 . S
H1475 C1511 0.929 . S
H1476 C1512 0.931 . S
H1477 C1514 0.929 . S
N1478 C1498 1.433 . S
N1478 C1504 1.435 . S
N1478 C1510 1.423 . S
H1479 C1515 0.932 1_455 S
C1480 N1455 1.433 . S
C1480 C1481 1.363 . S
C1480 C1485 1.370 1_655 S
C1481 H1454 0.929 . S
C1481 C1480 1.363 . S
C1481 C1482 1.385 . S
C1482 H1456 0.930 . S
C1482 C1481 1.385 . S
C1482 C1483 1.357 1_655 S
C1483 C1482 1.357 1_455 S
C1483 C1484 1.406 . S
C1484 H1458 0.929 . S
C1484 C1483 1.406 . S
C1484 C1485 1.391 . S
C1485 H1457 0.931 . S
C1485 C1480 1.370 1_455 S
C1485 C1484 1.391 . S
C1486 N1455 1.435 . S
C1486 C1487 1.358 1_655 S
C1486 C1491 1.371 . S
C1487 H1459 0.930 . S
C1487 C1486 1.358 1_455 S
C1487 C1488 1.405 . S
C1488 H1460 0.932 . S
C1488 C1487 1.405 . S
C1488 C1489 1.383 1_455 S
C1489 C1488 1.383 1_655 S
C1489 C1490 1.393 . S
C1490 H1462 0.931 . S
C1490 C1489 1.393 . S
C1490 C1491 1.382 . S
C1491 H1461 0.929 . S
C1491 C1486 1.371 . S
C1491 C1490 1.382 . S
C1492 N1455 1.423 . S
C1492 C1493 1.362 . S
C1492 C1497 1.388 . S
C1493 H1463 0.929 . S
C1493 C1492 1.362 . S
C1493 C1494 1.376 . S
C1494 H1465 0.931 . S
C1494 C1493 1.376 . S
C1494 C1495 1.396 . S
C1495 C1494 1.396 . S
C1495 C1496 1.348 . S
C1495 C1513 1.472 . S
C1496 H1466 0.982 . S
C1496 C1495 1.348 . S
C1496 C1497 1.443 . S
C1497 H1464 0.932 1_655 S
C1497 C1492 1.388 . S
C1497 C1496 1.443 . S
C1498 N1478 1.433 . S
C1498 C1499 1.363 . S
C1498 C1503 1.370 1_655 S
C1499 H1467 0.929 . S
C1499 C1498 1.363 . S
C1499 C1500 1.385 . S
C1500 H1468 0.930 . S
C1500 C1499 1.385 . S
C1500 C1501 1.357 1_655 S
C1501 C1500 1.357 1_455 S
C1501 C1502 1.406 . S
C1502 H1469 0.929 . S
C1502 C1501 1.406 . S
C1502 C1503 1.391 . S
C1503 H1470 0.931 . S
C1503 C1498 1.370 1_455 S
C1503 C1502 1.391 . S
C1504 N1478 1.435 . S
C1504 C1505 1.358 1_655 S
C1504 C1509 1.371 . S
C1505 H1471 0.930 . S
C1505 C1504 1.358 1_455 S
C1505 C1506 1.405 . S
C1506 H1472 0.932 . S
C1506 C1505 1.405 . S
C1506 C1507 1.383 1_455 S
C1507 C1506 1.383 1_655 S
C1507 C1508 1.393 . S
C1508 H1473 0.931 . S
C1508 C1507 1.393 . S
C1508 C1509 1.382 . S
C1509 H1474 0.929 . S
C1509 C1504 1.371 . S
C1509 C1508 1.382 . S
C1510 N1478 1.423 . S
C1510 C1511 1.362 . S
C1510 C1515 1.388 . S
C1511 H1475 0.929 . S
C1511 C1510 1.362 . S
C1511 C1512 1.376 . S
C1512 H1476 0.931 . S
C1512 C1511 1.376 . S
C1512 C1513 1.396 . S
C1513 C1495 1.472 . S
C1513 C1512 1.396 . S
C1513 C1514 1.348 . S
C1514 H1477 0.929 . S
C1514 C1513 1.348 . S
C1514 C1515 1.443 . S
C1515 H1479 0.932 1_655 S
C1515 C1510 1.388 . S
C1515 C1514 1.443 . S
H1516 C1543 0.929 . S
N1517 C1542 1.433 . S
N1517 C1548 1.435 . S
N1517 C1554 1.423 . S
H1518 C1544 0.930 . S
H1519 C1547 0.931 . S
H1520 C1546 0.929 . S
H1521 C1549 0.930 . S
H1522 C1550 0.932 . S
H1523 C1553 0.929 . S
H1524 C1552 0.931 . S
H1525 C1555 0.929 . S
H1526 C1559 0.932 . S
H1527 C1556 0.931 . S
H1528 C1558 0.929 . S
H1529 C1561 0.929 . S
H1530 C1562 0.930 . S
H1531 C1564 0.929 . S
H1532 C1565 0.931 . S
H1533 C1567 0.930 . S
H1534 C1568 0.932 . S
H1535 C1570 0.931 . S
H1536 C1571 0.929 . S
H1537 C1573 0.929 . S
H1538 C1574 0.931 . S
H1539 C1576 0.929 . S
N1540 C1560 1.433 . S
N1540 C1566 1.435 . S
N1540 C1572 1.423 . S
H1541 C1577 0.932 . S
C1542 N1517 1.433 . S
C1542 C1543 1.363 . S
C1542 C1547 1.370 . S
C1543 H1516 0.929 . S
C1543 C1542 1.363 . S
C1543 C1544 1.385 . S
C1544 H1518 0.930 . S
C1544 C1543 1.385 . S
C1544 C1545 1.357 . S
C1545 C1544 1.357 . S
C1545 C1546 1.406 . S
C1546 H1520 0.929 . S
C1546 C1545 1.406 . S
C1546 C1547 1.391 . S
C1547 H1519 0.931 . S
C1547 C1542 1.370 . S
C1547 C1546 1.391 . S
C1548 N1517 1.435 . S
C1548 C1549 1.358 . S
C1548 C1553 1.371 . S
C1549 H1521 0.930 . S
C1549 C1548 1.358 . S
C1549 C1550 1.405 . S
C1550 H1522 0.932 . S
C1550 C1549 1.405 . S
C1550 C1551 1.383 . S
C1551 C1550 1.383 . S
C1551 C1552 1.393 . S
C1552 H1524 0.931 . S
C1552 C1551 1.393 . S
C1552 C1553 1.382 . S
C1553 H1523 0.929 . S
C1553 C1548 1.371 . S
C1553 C1552 1.382 . S
C1554 N1517 1.423 . S
C1554 C1555 1.362 . S
C1554 C1559 1.388 . S
C1555 H1525 0.929 . S
C1555 C1554 1.362 . S
C1555 C1556 1.376 . S
C1556 H1527 0.931 . S
C1556 C1555 1.376 . S
C1556 C1557 1.396 . S
C1557 C1556 1.396 . S
C1557 C1558 1.348 . S
C1557 C1575 1.472 . S
C1558 H1528 0.929 . S
C1558 C1557 1.348 . S
C1558 C1559 1.443 . S
C1559 H1526 0.932 . S
C1559 C1554 1.388 . S
C1559 C1558 1.443 . S
C1560 N1540 1.433 . S
C1560 C1561 1.363 . S
C1560 C1565 1.370 . S
C1561 H1529 0.929 . S
C1561 C1560 1.363 . S
C1561 C1562 1.385 . S
C1562 H1530 0.930 . S
C1562 C1561 1.385 . S
C1562 C1563 1.357 . S
C1563 C1562 1.357 . S
C1563 C1564 1.406 . S
C1564 H1531 0.929 . S
C1564 C1563 1.406 . S
C1564 C1565 1.391 . S
C1565 H1532 0.931 . S
C1565 C1560 1.370 . S
C1565 C1564 1.391 . S
C1566 N1540 1.435 . S
C1566 C1567 1.358 . S
C1566 C1571 1.371 . S
C1567 H1533 0.930 . S
C1567 C1566 1.358 . S
C1567 C1568 1.405 . S
C1568 H1534 0.932 . S
C1568 C1567 1.405 . S
C1568 C1569 1.383 . S
C1569 C1568 1.383 . S
C1569 C1570 1.393 . S
C1570 H1535 0.931 . S
C1570 C1569 1.393 . S
C1570 C1571 1.382 . S
C1571 H1536 0.929 . S
C1571 C1566 1.371 . S
C1571 C1570 1.382 . S
C1572 N1540 1.423 . S
C1572 C1573 1.362 . S
C1572 C1577 1.388 . S
C1573 H1537 0.929 . S
C1573 C1572 1.362 . S
C1573 C1574 1.376 . S
C1574 H1538 0.931 . S
C1574 C1573 1.376 . S
C1574 C1575 1.396 . S
C1575 C1557 1.472 . S
C1575 C1574 1.396 . S
C1575 C1576 1.348 . S
C1576 H1539 0.929 . S
C1576 C1575 1.348 . S
C1576 C1577 1.443 . S
C1577 H1541 0.932 . S
C1577 C1572 1.388 . S
C1577 C1576 1.443 . S
H1578 C1605 0.929 . S
N1579 C1604 1.433 . S
N1579 C1610 1.435 . S
N1579 C1616 1.423 . S
H1580 C1606 0.930 . S
H1581 C1609 0.931 . S
H1582 C1608 0.929 . S
H1583 C1611 0.930 . S
H1584 C1612 0.932 . S
H1585 C1615 0.929 . S
H1586 C1614 0.931 . S
H1587 C1617 0.929 . S
H1588 C1621 0.932 . S
H1589 C1618 0.931 . S
H1590 C1620 0.929 . S
H1591 C1623 0.929 . S
H1592 C1624 0.930 . S
H1593 C1626 0.929 . S
H1594 C1627 0.931 . S
H1595 C1629 0.930 . S
H1596 C1630 0.932 . S
H1597 C1632 0.931 . S
H1598 C1633 0.929 . S
H1599 C1635 0.929 . S
H1600 C1636 0.931 . S
H1601 C1638 0.929 . S
N1602 C1622 1.433 . S
N1602 C1628 1.435 . S
N1602 C1634 1.423 . S
H1603 C1639 0.932 . S
C1604 N1579 1.433 . S
C1604 C1605 1.363 . S
C1604 C1609 1.370 . S
C1605 H1578 0.929 . S
C1605 C1604 1.363 . S
C1605 C1606 1.385 . S
C1606 H1580 0.930 . S
C1606 C1605 1.385 . S
C1606 C1607 1.357 . S
C1607 C1606 1.357 . S
C1607 C1608 1.406 . S
C1608 H1582 0.929 . S
C1608 C1607 1.406 . S
C1608 C1609 1.391 . S
C1609 H1581 0.931 . S
C1609 C1604 1.370 . S
C1609 C1608 1.391 . S
C1610 N1579 1.435 . S
C1610 C1611 1.358 . S
C1610 C1615 1.371 . S
C1611 H1583 0.930 . S
C1611 C1610 1.358 . S
C1611 C1612 1.405 . S
C1612 H1584 0.932 . S
C1612 C1611 1.405 . S
C1612 C1613 1.383 . S
C1613 C1612 1.383 . S
C1613 C1614 1.393 . S
C1614 H1586 0.931 . S
C1614 C1613 1.393 . S
C1614 C1615 1.382 . S
C1615 H1585 0.929 . S
C1615 C1610 1.371 . S
C1615 C1614 1.382 . S
C1616 N1579 1.423 . S
C1616 C1617 1.362 . S
C1616 C1621 1.388 . S
C1617 H1587 0.929 . S
C1617 C1616 1.362 . S
C1617 C1618 1.376 . S
C1618 H1589 0.931 . S
C1618 C1617 1.376 . S
C1618 C1619 1.396 . S
C1619 C1618 1.396 . S
C1619 C1620 1.348 . S
C1619 C1637 1.472 . S
C1620 H1590 0.929 . S
C1620 C1619 1.348 . S
C1620 C1621 1.443 . S
C1621 H1588 0.932 . S
C1621 C1616 1.388 . S
C1621 C1620 1.443 . S
C1622 N1602 1.433 . S
C1622 C1623 1.363 . S
C1622 C1627 1.370 . S
C1623 H1591 0.929 . S
C1623 C1622 1.363 . S
C1623 C1624 1.385 . S
C1624 H1592 0.930 . S
C1624 C1623 1.385 . S
C1624 C1625 1.357 . S
C1625 C1624 1.357 . S
C1625 C1626 1.406 . S
C1626 H1593 0.929 . S
C1626 C1625 1.406 . S
C1626 C1627 1.391 . S
C1627 H1594 0.931 . S
C1627 C1622 1.370 . S
C1627 C1626 1.391 . S
C1628 N1602 1.435 . S
C1628 C1629 1.358 . S
C1628 C1633 1.371 . S
C1629 H1595 0.930 . S
C1629 C1628 1.358 . S
C1629 C1630 1.405 . S
C1630 H1596 0.932 . S
C1630 C1629 1.405 . S
C1630 C1631 1.383 . S
C1631 C1630 1.383 . S
C1631 C1632 1.393 . S
C1632 H1597 0.931 . S
C1632 C1631 1.393 . S
C1632 C1633 1.382 . S
C1633 H1598 0.929 . S
C1633 C1628 1.371 . S
C1633 C1632 1.382 . S
C1634 N1602 1.423 . S
C1634 C1635 1.362 . S
C1634 C1639 1.388 . S
C1635 H1599 0.929 . S
C1635 C1634 1.362 . S
C1635 C1636 1.376 . S
C1636 H1600 0.931 . S
C1636 C1635 1.376 . S
C1636 C1637 1.396 . S
C1637 C1619 1.472 . S
C1637 C1636 1.396 . S
C1637 C1638 1.348 . S
C1638 H1601 0.929 . S
C1638 C1637 1.348 . S
C1638 C1639 1.443 . S
C1639 H1603 0.932 . S
C1639 C1634 1.388 . S
C1639 C1638 1.443 . S
H1640 C1667 0.929 . S
N1641 C1666 1.433 . S
N1641 C1672 1.435 . S
N1641 C1678 1.423 . S
H1642 C1668 0.930 . S
H1643 C1671 0.931 . S
H1644 C1670 0.929 . S
H1645 C1673 0.930 . S
H1646 C1674 0.932 . S
H1647 C1677 0.929 . S
H1648 C1676 0.931 . S
H1649 C1679 0.929 . S
H1650 C1683 0.932 . S
H1651 C1680 0.931 . S
H1652 C1682 0.929 . S
H1653 C1685 0.929 . S
H1654 C1686 0.930 . S
H1655 C1688 0.929 . S
H1656 C1689 0.931 . S
H1657 C1691 0.930 . S
H1658 C1692 0.932 . S
H1659 C1694 0.931 . S
H1660 C1695 0.929 . S
H1661 C1697 0.929 . S
H1662 C1698 0.931 . S
H1663 C1700 0.929 . S
N1664 C1684 1.433 . S
N1664 C1690 1.435 . S
N1664 C1696 1.423 . S
H1665 C1701 0.932 . S
C1666 N1641 1.433 . S
C1666 C1667 1.363 . S
C1666 C1671 1.370 . S
C1667 H1640 0.929 . S
C1667 C1666 1.363 . S
C1667 C1668 1.385 . S
C1668 H1642 0.930 . S
C1668 C1667 1.385 . S
C1668 C1669 1.357 . S
C1669 C1668 1.357 . S
C1669 C1670 1.406 . S
C1670 H1644 0.929 . S
C1670 C1669 1.406 . S
C1670 C1671 1.391 . S
C1671 H1643 0.931 . S
C1671 C1666 1.370 . S
C1671 C1670 1.391 . S
C1672 N1641 1.435 . S
C1672 C1673 1.358 . S
C1672 C1677 1.371 . S
C1673 H1645 0.930 . S
C1673 C1672 1.358 . S
C1673 C1674 1.405 . S
C1674 H1646 0.932 . S
C1674 C1673 1.405 . S
C1674 C1675 1.383 . S
C1675 C1674 1.383 . S
C1675 C1676 1.393 . S
C1676 H1648 0.931 . S
C1676 C1675 1.393 . S
C1676 C1677 1.382 . S
C1677 H1647 0.929 . S
C1677 C1672 1.371 . S
C1677 C1676 1.382 . S
C1678 N1641 1.423 . S
C1678 C1679 1.362 . S
C1678 C1683 1.388 . S
C1679 H1649 0.929 . S
C1679 C1678 1.362 . S
C1679 C1680 1.376 . S
C1680 H1651 0.931 . S
C1680 C1679 1.376 . S
C1680 C1681 1.396 . S
C1681 C1680 1.396 . S
C1681 C1682 1.348 . S
C1681 C1699 1.472 . S
C1682 H1652 0.929 . S
C1682 C1681 1.348 . S
C1682 C1683 1.443 . S
C1683 H1650 0.932 . S
C1683 C1678 1.388 . S
C1683 C1682 1.443 . S
C1684 N1664 1.433 . S
C1684 C1685 1.363 . S
C1684 C1689 1.370 . S
C1685 H1653 0.929 . S
C1685 C1684 1.363 . S
C1685 C1686 1.385 . S
C1686 H1654 0.930 . S
C1686 C1685 1.385 . S
C1686 C1687 1.357 . S
C1687 C1686 1.357 . S
C1687 C1688 1.406 . S
C1688 H1655 0.929 . S
C1688 C1687 1.406 . S
C1688 C1689 1.391 . S
C1689 H1656 0.931 . S
C1689 C1684 1.370 . S
C1689 C1688 1.391 . S
C1690 N1664 1.435 . S
C1690 C1691 1.358 . S
C1690 C1695 1.371 . S
C1691 H1657 0.930 . S
C1691 C1690 1.358 . S
C1691 C1692 1.405 . S
C1692 H1658 0.932 . S
C1692 C1691 1.405 . S
C1692 C1693 1.383 . S
C1693 C1692 1.383 . S
C1693 C1694 1.393 . S
C1694 H1659 0.931 . S
C1694 C1693 1.393 . S
C1694 C1695 1.382 . S
C1695 H1660 0.929 . S
C1695 C1690 1.371 . S
C1695 C1694 1.382 . S
C1696 N1664 1.423 . S
C1696 C1697 1.362 . S
C1696 C1701 1.388 . S
C1697 H1661 0.929 . S
C1697 C1696 1.362 . S
C1697 C1698 1.376 . S
C1698 H1662 0.931 . S
C1698 C1697 1.376 . S
C1698 C1699 1.396 . S
C1699 C1681 1.472 . S
C1699 C1698 1.396 . S
C1699 C1700 1.348 . S
C1700 H1663 0.929 . S
C1700 C1699 1.348 . S
C1700 C1701 1.443 . S
C1701 H1665 0.932 . S
C1701 C1696 1.388 . S
C1701 C1700 1.443 . S
H1702 C1729 0.929 . S
N1703 C1728 1.433 . S
N1703 C1734 1.435 . S
N1703 C1740 1.423 . S
H1704 C1730 0.930 . S
H1705 C1733 0.931 . S
H1706 C1732 0.929 . S
H1707 C1735 0.930 . S
H1708 C1736 0.932 . S
H1709 C1739 0.929 . S
H1710 C1738 0.931 . S
H1711 C1741 0.929 . S
H1712 C1745 0.932 . S
H1713 C1742 0.931 . S
H1714 C1744 0.929 . S
H1715 C1747 0.929 . S
H1716 C1748 0.930 . S
H1717 C1750 0.929 . S
H1718 C1751 0.931 . S
H1719 C1753 0.930 . S
H1720 C1754 0.932 . S
H1721 C1756 0.931 . S
H1722 C1757 0.929 . S
H1723 C1759 0.929 . S
H1724 C1760 0.931 . S
H1725 C1762 0.929 . S
N1726 C1746 1.433 . S
N1726 C1752 1.435 . S
N1726 C1758 1.423 . S
H1727 C1763 0.932 . S
C1728 N1703 1.433 . S
C1728 C1729 1.363 . S
C1728 C1733 1.370 . S
C1729 H1702 0.929 . S
C1729 C1728 1.363 . S
C1729 C1730 1.385 . S
C1730 H1704 0.930 . S
C1730 C1729 1.385 . S
C1730 C1731 1.357 . S
C1731 C1730 1.357 . S
C1731 C1732 1.406 . S
C1732 H1706 0.929 . S
C1732 C1731 1.406 . S
C1732 C1733 1.391 . S
C1733 H1705 0.931 . S
C1733 C1728 1.370 . S
C1733 C1732 1.391 . S
C1734 N1703 1.435 . S
C1734 C1735 1.358 . S
C1734 C1739 1.371 . S
C1735 H1707 0.930 . S
C1735 C1734 1.358 . S
C1735 C1736 1.405 . S
C1736 H1708 0.932 . S
C1736 C1735 1.405 . S
C1736 C1737 1.383 . S
C1737 C1736 1.383 . S
C1737 C1738 1.393 . S
C1738 H1710 0.931 . S
C1738 C1737 1.393 . S
C1738 C1739 1.382 . S
C1739 H1709 0.929 . S
C1739 C1734 1.371 . S
C1739 C1738 1.382 . S
C1740 N1703 1.423 . S
C1740 C1741 1.362 . S
C1740 C1745 1.388 . S
C1741 H1711 0.929 . S
C1741 C1740 1.362 . S
C1741 C1742 1.376 . S
C1742 H1713 0.931 . S
C1742 C1741 1.376 . S
C1742 C1743 1.396 . S
C1743 C1742 1.396 . S
C1743 C1744 1.348 . S
C1743 C1761 1.472 . S
C1744 H1714 0.929 . S
C1744 C1743 1.348 . S
C1744 C1745 1.443 . S
C1745 H1712 0.932 . S
C1745 C1740 1.388 . S
C1745 C1744 1.443 . S
C1746 N1726 1.433 . S
C1746 C1747 1.363 . S
C1746 C1751 1.370 . S
C1747 H1715 0.929 . S
C1747 C1746 1.363 . S
C1747 C1748 1.385 . S
C1748 H1716 0.930 . S
C1748 C1747 1.385 . S
C1748 C1749 1.357 . S
C1749 C1748 1.357 . S
C1749 C1750 1.406 . S
C1750 H1717 0.929 . S
C1750 C1749 1.406 . S
C1750 C1751 1.391 . S
C1751 H1718 0.931 . S
C1751 C1746 1.370 . S
C1751 C1750 1.391 . S
C1752 N1726 1.435 . S
C1752 C1753 1.358 . S
C1752 C1757 1.371 . S
C1753 H1719 0.930 . S
C1753 C1752 1.358 . S
C1753 C1754 1.405 . S
C1754 H1720 0.932 . S
C1754 C1753 1.405 . S
C1754 C1755 1.383 . S
C1755 C1754 1.383 . S
C1755 C1756 1.393 . S
C1756 H1721 0.931 . S
C1756 C1755 1.393 . S
C1756 C1757 1.382 . S
C1757 H1722 0.929 . S
C1757 C1752 1.371 . S
C1757 C1756 1.382 . S
C1758 N1726 1.423 . S
C1758 C1759 1.362 . S
C1758 C1763 1.388 . S
C1759 H1723 0.929 . S
C1759 C1758 1.362 . S
C1759 C1760 1.376 . S
C1760 H1724 0.931 . S
C1760 C1759 1.376 . S
C1760 C1761 1.396 . S
C1761 C1743 1.472 . S
C1761 C1760 1.396 . S
C1761 C1762 1.348 . S
C1762 H1725 0.929 . S
C1762 C1761 1.348 . S
C1762 C1763 1.443 . S
C1763 H1727 0.932 . S
C1763 C1758 1.388 . S
C1763 C1762 1.443 . S
H1764 C1776 0.930 . S
H1765 C1778 0.930 . S
H1766 C1779 0.930 . S
H1767 C1783 0.959 . S
H1768 C1783 0.959 . S
H1769 C1783 0.961 . S
H1770 C1784 0.968 . S
H1771 C1784 0.958 . S
H1772 C1784 0.942 1_655 S
H1773 C1787 0.929 . S
H1774 C1788 0.931 . S
H1775 C1790 0.930 . S
C1776 H1764 0.930 . S
C1776 C1777 1.399 1_455 S
C1776 C1781 1.442 . S
C1777 C1776 1.399 1_655 S
C1777 C1778 1.376 . S
C1778 H1765 0.930 . S
C1778 C1777 1.376 . S
C1778 C1779 1.388 . S
C1779 H1766 0.930 . S
C1779 C1778 1.388 . S
C1779 C1780 1.390 . S
C1780 C1779 1.390 . S
C1780 C1781 1.360 1_655 S
C1780 C1786 1.465 . S
C1781 C1776 1.442 . S
C1781 C1780 1.360 1_455 S
C1781 C1782 1.506 . S
C1782 C1781 1.506 . S
C1782 C1783 1.502 . S
C1782 C1784 1.574 . S
C1782 C1785 1.520 1_455 S
C1783 H1767 0.959 . S
C1783 H1768 0.959 . S
C1783 H1769 0.961 . S
C1783 C1782 1.502 . S
C1784 H1770 0.968 . S
C1784 H1771 0.958 . S
C1784 H1772 0.942 1_455 S
C1784 C1782 1.574 . S
C1785 C1782 1.520 1_655 S
C1785 C1786 1.398 . S
C1785 C1790 1.394 1_655 S
C1786 C1780 1.465 . S
C1786 C1785 1.398 . S
C1786 C1787 1.399 . S
C1787 H1773 0.929 . S
C1787 C1786 1.399 . S
C1787 C1788 1.385 . S
C1788 H1774 0.931 . S
C1788 C1787 1.385 . S
C1788 C1789 1.389 . S
C1789 C1788 1.389 . S
C1789 C1790 1.387 1_655 S
C1790 H1775 0.930 . S
C1790 C1785 1.394 1_455 S
C1790 C1789 1.387 1_455 S
H1791 C1803 0.930 . S
H1792 C1805 0.930 . S
H1793 C1806 0.930 . S
H1794 C1810 0.959 . S
H1795 C1810 0.959 . S
H1796 C1810 0.961 . S
H1797 C1811 0.960 . S
H1798 C1811 0.961 . S
H1799 C1811 0.959 . S
H1800 C1814 0.929 . S
H1801 C1815 0.931 . S
H1802 C1817 0.930 . S
C1803 H1791 0.930 . S
C1803 C1804 1.399 . S
C1803 C1808 1.399 . S
C1804 C1803 1.399 . S
C1804 C1805 1.376 . S
C1805 H1792 0.930 . S
C1805 C1804 1.376 . S
C1805 C1806 1.388 . S
C1806 H1793 0.930 . S
C1806 C1805 1.388 . S
C1806 C1807 1.390 . S
C1807 C1806 1.390 . S
C1807 C1808 1.394 . S
C1807 C1813 1.465 . S
C1808 C1803 1.399 . S
C1808 C1807 1.394 . S
C1808 C1809 1.516 . S
C1809 C1808 1.516 . S
C1809 C1810 1.502 . S
C1809 C1811 1.561 . S
C1809 C1812 1.526 . S
C1810 H1794 0.959 . S
C1810 H1795 0.959 . S
C1810 H1796 0.961 . S
C1810 C1809 1.502 . S
C1811 H1797 0.960 . S
C1811 H1798 0.961 . S
C1811 H1799 0.959 . S
C1811 C1809 1.561 . S
C1812 C1809 1.526 . S
C1812 C1813 1.396 . S
C1812 C1817 1.390 . S
C1813 C1807 1.465 . S
C1813 C1812 1.396 . S
C1813 C1814 1.399 . S
C1814 H1800 0.929 . S
C1814 C1813 1.399 . S
C1814 C1815 1.385 . S
C1815 H1801 0.931 . S
C1815 C1814 1.385 . S
C1815 C1816 1.389 . S
C1816 C1815 1.389 . S
C1816 C1817 1.387 . S
C1817 H1802 0.930 . S
C1817 C1812 1.390 . S
C1817 C1816 1.387 . S
H1818 C1830 0.930 . S
H1819 C1832 0.930 . S
H1820 C1833 0.930 . S
H1821 C1837 0.959 . S
H1822 C1837 0.959 . S
H1823 C1837 0.961 . S
H1824 C1838 0.960 . S
H1825 C1838 0.961 . S
H1826 C1838 0.959 . S
H1827 C1841 0.929 . S
H1828 C1842 0.931 . S
H1829 C1844 0.930 . S
C1830 H1818 0.930 . S
C1830 C1831 1.399 . S
C1830 C1835 1.399 . S
C1831 C1830 1.399 . S
C1831 C1832 1.376 1_545 S
C1832 H1819 0.930 . S
C1832 C1831 1.376 1_565 S
C1832 C1833 1.388 . S
C1833 H1820 0.930 . S
C1833 C1832 1.388 . S
C1833 C1834 1.390 . S
C1834 C1833 1.390 . S
C1834 C1835 1.394 1_565 S
C1834 C1840 1.465 . S
C1835 C1830 1.399 . S
C1835 C1834 1.394 1_545 S
C1835 C1836 1.516 . S
C1836 C1835 1.516 . S
C1836 C1837 1.502 . S
C1836 C1838 1.561 . S
C1836 C1839 1.526 . S
C1837 H1821 0.959 . S
C1837 H1822 0.959 . S
C1837 H1823 0.961 . S
C1837 C1836 1.502 . S
C1838 H1824 0.960 . S
C1838 H1825 0.961 . S
C1838 H1826 0.959 . S
C1838 C1836 1.561 . S
C1839 C1836 1.526 . S
C1839 C1840 1.396 1_545 S
C1839 C1844 1.390 . S
C1840 C1834 1.465 . S
C1840 C1839 1.396 1_565 S
C1840 C1841 1.399 . S
C1841 H1827 0.929 . S
C1841 C1840 1.399 . S
C1841 C1842 1.385 . S
C1842 H1828 0.931 . S
C1842 C1841 1.385 . S
C1842 C1843 1.389 1_565 S
C1843 C1842 1.389 1_545 S
C1843 C1844 1.387 . S
C1844 H1829 0.930 . S
C1844 C1839 1.390 . S
C1844 C1843 1.387 . S
H1845 C1857 0.930 . S
H1846 C1859 0.930 . S
H1847 C1860 0.930 . S
H1848 C1864 0.959 . S
H1849 C1864 0.959 . S
H1850 C1864 0.961 . S
H1851 C1865 0.960 . S
H1852 C1865 0.961 . S
H1853 C1865 0.959 . S
H1854 C1868 0.929 . S
H1855 C1869 0.931 . S
H1856 C1871 0.930 . S
C1857 H1845 0.930 . S
C1857 C1858 1.399 1_545 S
C1857 C1862 1.399 . S
C1858 C1857 1.399 1_565 S
C1858 C1859 1.376 . S
C1859 H1846 0.930 . S
C1859 C1858 1.376 . S
C1859 C1860 1.388 . S
C1860 H1847 0.930 . S
C1860 C1859 1.388 . S
C1860 C1861 1.390 . S
C1861 C1860 1.390 . S
C1861 C1862 1.394 1_565 S
C1861 C1867 1.465 . S
C1862 C1857 1.399 . S
C1862 C1861 1.394 1_545 S
C1862 C1863 1.516 . S
C1863 C1862 1.516 . S
C1863 C1864 1.502 . S
C1863 C1865 1.561 . S
C1863 C1866 1.526 . S
C1864 H1848 0.959 . S
C1864 H1849 0.959 . S
C1864 H1850 0.961 . S
C1864 C1863 1.502 . S
C1865 H1851 0.960 . S
C1865 H1852 0.961 . S
C1865 H1853 0.959 . S
C1865 C1863 1.561 . S
C1866 C1863 1.526 . S
C1866 C1867 1.396 1_545 S
C1866 C1871 1.390 . S
C1867 C1861 1.465 . S
C1867 C1866 1.396 1_565 S
C1867 C1868 1.399 . S
C1868 H1854 0.929 . S
C1868 C1867 1.399 . S
C1868 C1869 1.385 . S
C1869 H1855 0.931 . S
C1869 C1868 1.385 . S
C1869 C1870 1.389 . S
C1870 C1869 1.389 . S
C1870 C1871 1.387 1_565 S
C1871 H1856 0.930 . S
C1871 C1866 1.390 . S
C1871 C1870 1.387 1_545 S
H1872 C1884 0.930 . S
H1873 C1886 0.930 . S
H1874 C1887 0.930 . S
H1875 C1891 0.959 . S
H1876 C1891 0.959 . S
H1877 C1891 0.961 . S
H1878 C1892 0.960 . S
H1879 C1892 0.961 . S
H1880 C1892 0.959 . S
H1881 C1895 0.929 . S
H1882 C1896 0.931 . S
H1883 C1898 0.930 . S
C1884 H1872 0.930 . S
C1884 C1885 1.399 . S
C1884 C1889 1.399 . S
C1885 C1884 1.399 . S
C1885 C1886 1.376 . S
C1886 H1873 0.930 . S
C1886 C1885 1.376 . S
C1886 C1887 1.388 . S
C1887 H1874 0.930 . S
C1887 C1886 1.388 . S
C1887 C1888 1.390 . S
C1888 C1887 1.390 . S
C1888 C1889 1.394 . S
C1888 C1894 1.465 . S
C1889 C1884 1.399 . S
C1889 C1888 1.394 . S
C1889 C1890 1.516 . S
C1890 C1889 1.516 . S
C1890 C1891 1.502 . S
C1890 C1892 1.561 1_455 S
C1890 C1893 1.526 . S
C1891 H1875 0.959 . S
C1891 H1876 0.959 . S
C1891 H1877 0.961 . S
C1891 C1890 1.502 . S
C1892 H1878 0.960 . S
C1892 H1879 0.961 . S
C1892 H1880 0.959 . S
C1892 C1890 1.561 1_655 S
C1893 C1890 1.526 . S
C1893 C1894 1.396 . S
C1893 C1898 1.390 . S
C1894 C1888 1.465 . S
C1894 C1893 1.396 . S
C1894 C1895 1.399 . S
C1895 H1881 0.929 . S
C1895 C1894 1.399 . S
C1895 C1896 1.385 . S
C1896 H1882 0.931 . S
C1896 C1895 1.385 . S
C1896 C1897 1.389 . S
C1897 C1896 1.389 . S
C1897 C1898 1.387 . S
C1898 H1883 0.930 . S
C1898 C1893 1.390 . S
C1898 C1897 1.387 . S
H1899 C1911 0.930 . S
H1900 C1913 0.930 . S
H1901 C1914 0.930 . S
H1902 C1918 0.959 . S
H1903 C1918 0.959 . S
H1904 C1918 0.961 . S
H1905 C1919 0.960 . S
H1906 C1919 0.961 . S
H1907 C1919 0.959 . S
H1908 C1922 0.929 . S
H1909 C1923 0.931 . S
H1910 C1925 0.930 . S
C1911 H1899 0.930 . S
C1911 C1912 1.399 . S
C1911 C1916 1.399 . S
C1912 C1911 1.399 . S
C1912 C1913 1.376 . S
C1913 H1900 0.930 . S
C1913 C1912 1.376 . S
C1913 C1914 1.388 . S
C1914 H1901 0.930 . S
C1914 C1913 1.388 . S
C1914 C1915 1.390 . S
C1915 C1914 1.390 . S
C1915 C1916 1.394 . S
C1915 C1921 1.465 . S
C1916 C1911 1.399 . S
C1916 C1915 1.394 . S
C1916 C1917 1.516 . S
C1917 C1916 1.516 . S
C1917 C1918 1.502 . S
C1917 C1919 1.561 . S
C1917 C1920 1.526 . S
C1918 H1902 0.959 . S
C1918 H1903 0.959 . S
C1918 H1904 0.961 . S
C1918 C1917 1.502 . S
C1919 H1905 0.960 . S
C1919 H1906 0.961 . S
C1919 H1907 0.959 . S
C1919 C1917 1.561 . S
C1920 C1917 1.526 . S
C1920 C1921 1.396 . S
C1920 C1925 1.390 . S
C1921 C1915 1.465 . S
C1921 C1920 1.396 . S
C1921 C1922 1.399 . S
C1922 H1908 0.929 . S
C1922 C1921 1.399 . S
C1922 C1923 1.385 . S
C1923 H1909 0.931 . S
C1923 C1922 1.385 . S
C1923 C1924 1.389 . S
C1924 C1923 1.389 . S
C1924 C1925 1.387 . S
C1925 H1910 0.930 . S
C1925 C1920 1.390 . S
C1925 C1924 1.387 . S
H1926 C1938 0.930 . S
H1927 C1940 0.930 . S
H1928 C1941 0.930 . S
H1929 C1945 0.959 . S
H1930 C1945 0.959 . S
H1931 C1945 0.961 . S
H1932 C1946 0.960 . S
H1933 C1946 0.961 . S
H1934 C1946 0.959 1_455 S
H1935 C1949 0.929 . S
H1936 C1950 0.931 . S
H1937 C1952 0.930 . S
C1938 H1926 0.930 . S
C1938 C1939 1.399 1_655 S
C1938 C1943 1.399 . S
C1939 C1938 1.399 1_455 S
C1939 C1940 1.376 . S
C1940 H1927 0.930 . S
C1940 C1939 1.376 . S
C1940 C1941 1.388 . S
C1941 H1928 0.930 . S
C1941 C1940 1.388 . S
C1941 C1942 1.390 . S
C1942 C1941 1.390 . S
C1942 C1943 1.394 1_455 S
C1942 C1948 1.465 . S
C1943 C1938 1.399 . S
C1943 C1942 1.394 1_655 S
C1943 C1944 1.516 . S
C1944 C1943 1.516 . S
C1944 C1945 1.502 . S
C1944 C1946 1.561 . S
C1944 C1947 1.575 . S
C1945 H1929 0.959 . S
C1945 H1930 0.959 . S
C1945 H1931 0.961 . S
C1945 C1944 1.502 . S
C1946 H1932 0.960 . S
C1946 H1933 0.961 . S
C1946 H1934 0.959 1_655 S
C1946 C1944 1.561 . S
C1947 C1944 1.575 . S
C1947 C1948 1.355 1_655 S
C1947 C1952 1.380 . S
C1948 C1942 1.465 . S
C1948 C1947 1.355 1_455 S
C1948 C1949 1.399 . S
C1949 H1935 0.929 . S
C1949 C1948 1.399 . S
C1949 C1950 1.385 . S
C1950 H1936 0.931 . S
C1950 C1949 1.385 . S
C1950 C1951 1.389 . S
C1951 C1950 1.389 . S
C1951 C1952 1.387 1_455 S
C1952 H1937 0.930 . S
C1952 C1947 1.380 . S
C1952 C1951 1.387 1_655 S
H1953 C1965 0.930 . S
H1954 C1967 0.930 . S
H1955 C1968 0.930 . S
H1956 C1972 0.959 . S
H1957 C1972 0.959 . S
H1958 C1972 0.961 . S
H1959 C1973 0.960 . S
H1960 C1973 0.961 . S
H1961 C1973 0.959 . S
H1962 C1976 0.929 . S
H1963 C1977 0.931 . S
H1964 C1979 0.930 . S
C1965 H1953 0.930 . S
C1965 C1966 1.399 . S
C1965 C1970 1.399 . S
C1966 C1965 1.399 . S
C1966 C1967 1.376 . S
C1967 H1954 0.930 . S
C1967 C1966 1.376 . S
C1967 C1968 1.388 . S
C1968 H1955 0.930 . S
C1968 C1967 1.388 . S
C1968 C1969 1.390 . S
C1969 C1968 1.390 . S
C1969 C1970 1.394 . S
C1969 C1975 1.465 . S
C1970 C1965 1.399 . S
C1970 C1969 1.394 . S
C1970 C1971 1.516 . S
C1971 C1970 1.516 . S
C1971 C1972 1.502 . S
C1971 C1973 1.561 . S
C1971 C1974 1.526 . S
C1972 H1956 0.959 . S
C1972 H1957 0.959 . S
C1972 H1958 0.961 . S
C1972 C1971 1.502 . S
C1973 H1959 0.960 . S
C1973 H1960 0.961 . S
C1973 H1961 0.959 . S
C1973 C1971 1.561 . S
C1974 C1971 1.526 . S
C1974 C1975 1.396 . S
C1974 C1979 1.390 . S
C1975 C1969 1.465 . S
C1975 C1974 1.396 . S
C1975 C1976 1.399 . S
C1976 H1962 0.929 . S
C1976 C1975 1.399 . S
C1976 C1977 1.385 . S
C1977 H1963 0.931 . S
C1977 C1976 1.385 . S
C1977 C1978 1.389 . S
C1978 C1977 1.389 . S
C1978 C1979 1.387 . S
C1979 H1964 0.930 . S
C1979 C1974 1.390 . S
C1979 C1978 1.387 . S
H1980 C1992 0.930 . S
H1981 C1994 0.930 . S
H1982 C1995 0.930 . S
H1983 C1999 0.959 . S
H1984 C1999 0.959 . S
H1985 C1999 0.961 . S
H1986 C2000 0.960 . S
H1987 C2000 0.961 . S
H1988 C2000 0.959 . S
H1989 C2003 0.929 . S
H1990 C2004 0.931 . S
H1991 C2006 0.930 . S
C1992 H1980 0.930 . S
C1992 C1993 1.376 1_565 S
C1992 C1997 1.399 . S
C1993 C1992 1.376 1_545 S
C1993 C1994 1.435 . S
C1994 H1981 0.930 . S
C1994 C1993 1.435 . S
C1994 C1995 1.388 . S
C1995 H1982 0.930 . S
C1995 C1994 1.388 . S
C1995 C1996 1.390 . S
C1996 C1995 1.390 . S
C1996 C1997 1.394 1_545 S
C1996 C2002 1.465 . S
C1997 C1992 1.399 . S
C1997 C1996 1.394 1_565 S
C1997 C1998 1.516 . S
C1998 C1997 1.516 . S
C1998 C1999 1.502 . S
C1998 C2000 1.561 . S
C1998 C2001 1.526 . S
C1999 H1983 0.959 . S
C1999 H1984 0.959 . S
C1999 H1985 0.961 . S
C1999 C1998 1.502 . S
C2000 H1986 0.960 . S
C2000 H1987 0.961 . S
C2000 H1988 0.959 . S
C2000 C1998 1.561 . S
C2001 C1998 1.526 . S
C2001 C2002 1.396 1_565 S
C2001 C2006 1.390 . S
C2002 C1996 1.465 . S
C2002 C2001 1.396 1_545 S
C2002 C2003 1.399 . S
C2003 H1989 0.929 . S
C2003 C2002 1.399 . S
C2003 C2004 1.385 . S
C2004 H1990 0.931 . S
C2004 C2003 1.385 . S
C2004 C2005 1.389 1_545 S
C2005 C2004 1.389 1_565 S
C2005 C2006 1.387 . S
C2006 H1991 0.930 . S
C2006 C2001 1.390 . S
C2006 C2005 1.387 . S
H2007 C2019 0.930 . S
H2008 C2021 0.930 . S
H2009 C2022 0.930 . S
H2010 C2026 0.959 . S
H2011 C2026 0.959 . S
H2012 C2026 0.961 . S
H2013 C2027 0.960 . S
H2014 C2027 0.961 . S
H2015 C2027 0.959 . S
H2016 C2030 0.929 . S
H2017 C2031 0.931 . S
H2018 C2033 0.930 . S
C2019 H2007 0.930 . S
C2019 C2020 1.399 . S
C2019 C2024 1.399 . S
C2020 C2019 1.399 . S
C2020 C2021 1.376 1_545 S
C2021 H2008 0.930 . S
C2021 C2020 1.376 1_565 S
C2021 C2022 1.388 . S
C2022 H2009 0.930 . S
C2022 C2021 1.388 . S
C2022 C2023 1.437 . S
C2023 C2022 1.437 . S
C2023 C2024 1.364 1_565 S
C2023 C2029 1.471 . S
C2024 C2019 1.399 . S
C2024 C2023 1.364 1_545 S
C2024 C2025 1.516 . S
C2025 C2024 1.516 . S
C2025 C2026 1.502 . S
C2025 C2027 1.561 . S
C2025 C2028 1.526 . S
C2026 H2010 0.959 . S
C2026 H2011 0.959 . S
C2026 H2012 0.961 . S
C2026 C2025 1.502 . S
C2027 H2013 0.960 . S
C2027 H2014 0.961 . S
C2027 H2015 0.959 . S
C2027 C2025 1.561 . S
C2028 C2025 1.526 . S
C2028 C2029 1.339 1_545 S
C2028 C2033 1.390 . S
C2029 C2023 1.471 . S
C2029 C2028 1.339 1_565 S
C2029 C2030 1.421 . S
C2030 H2016 0.929 . S
C2030 C2029 1.421 . S
C2030 C2031 1.385 . S
C2031 H2017 0.931 . S
C2031 C2030 1.385 . S
C2031 C2032 1.389 1_565 S
C2032 C2031 1.389 1_545 S
C2032 C2033 1.387 . S
C2033 H2018 0.930 . S
C2033 C2028 1.390 . S
C2033 C2032 1.387 . S
H2034 C2046 0.930 . S
H2035 C2048 0.930 . S
H2036 C2049 0.930 . S
H2037 C2053 0.959 . S
H2038 C2053 0.959 . S
H2039 C2053 0.961 . S
H2040 C2054 0.960 . S
H2041 C2054 0.961 . S
H2042 C2054 0.959 1_655 S
H2043 C2057 0.929 . S
H2044 C2058 0.931 . S
H2045 C2060 0.930 . S
C2046 H2034 0.930 . S
C2046 C2047 1.399 1_455 S
C2046 C2051 1.399 . S
C2047 C2046 1.399 1_655 S
C2047 C2048 1.376 . S
C2048 H2035 0.930 . S
C2048 C2047 1.376 . S
C2048 C2049 1.388 . S
C2049 H2036 0.930 . S
C2049 C2048 1.388 . S
C2049 C2050 1.390 . S
C2050 C2049 1.390 . S
C2050 C2051 1.394 1_655 S
C2050 C2056 1.465 . S
C2051 C2046 1.399 . S
C2051 C2050 1.394 1_455 S
C2051 C2052 1.516 . S
C2052 C2051 1.516 . S
C2052 C2053 1.502 . S
C2052 C2054 1.561 . S
C2052 C2055 1.526 . S
C2053 H2037 0.959 . S
C2053 H2038 0.959 . S
C2053 H2039 0.961 . S
C2053 C2052 1.502 . S
C2054 H2040 0.960 . S
C2054 H2041 0.961 . S
C2054 H2042 0.959 1_455 S
C2054 C2052 1.561 . S
C2055 C2052 1.526 . S
C2055 C2056 1.396 1_455 S
C2055 C2060 1.390 . S
C2056 C2050 1.465 . S
C2056 C2055 1.396 1_655 S
C2056 C2057 1.399 . S
C2057 H2043 0.929 . S
C2057 C2056 1.399 . S
C2057 C2058 1.385 . S
C2058 H2044 0.931 . S
C2058 C2057 1.385 . S
C2058 C2059 1.389 . S
C2059 C2058 1.389 . S
C2059 C2060 1.387 1_655 S
C2060 H2045 0.930 . S
C2060 C2055 1.390 . S
C2060 C2059 1.387 1_455 S
H2061 C2073 0.930 . S
H2062 C2075 0.930 . S
H2063 C2076 0.930 . S
H2064 C2080 0.959 . S
H2065 C2080 0.959 . S
H2066 C2080 0.961 . S
H2067 C2081 0.960 . S
H2068 C2081 0.961 . S
H2069 C2081 0.959 . S
H2070 C2084 0.929 . S
H2071 C2085 0.931 . S
H2072 C2087 0.930 . S
C2073 H2061 0.930 . S
C2073 C2074 1.399 . S
C2073 C2078 1.399 . S
C2074 C2073 1.399 . S
C2074 C2075 1.376 . S
C2075 H2062 0.930 . S
C2075 C2074 1.376 . S
C2075 C2076 1.388 . S
C2076 H2063 0.930 . S
C2076 C2075 1.388 . S
C2076 C2077 1.390 . S
C2077 C2076 1.390 . S
C2077 C2078 1.394 . S
C2077 C2083 1.465 . S
C2078 C2073 1.399 . S
C2078 C2077 1.394 . S
C2078 C2079 1.516 . S
C2079 C2078 1.516 . S
C2079 C2080 1.502 . S
C2079 C2081 1.561 . S
C2079 C2082 1.526 . S
C2080 H2064 0.959 . S
C2080 H2065 0.959 . S
C2080 H2066 0.961 . S
C2080 C2079 1.502 . S
C2081 H2067 0.960 . S
C2081 H2068 0.961 . S
C2081 H2069 0.959 . S
C2081 C2079 1.561 . S
C2082 C2079 1.526 . S
C2082 C2083 1.396 . S
C2082 C2087 1.390 . S
C2083 C2077 1.465 . S
C2083 C2082 1.396 . S
C2083 C2084 1.399 . S
C2084 H2070 0.929 . S
C2084 C2083 1.399 . S
C2084 C2085 1.385 . S
C2085 H2071 0.931 . S
C2085 C2084 1.385 . S
C2085 C2086 1.389 . S
C2086 C2085 1.389 . S
C2086 C2087 1.387 . S
C2087 H2072 0.930 . S
C2087 C2082 1.390 . S
C2087 C2086 1.387 . S
H2088 C2100 0.930 . S
H2089 C2102 0.930 . S
H2090 C2103 0.930 . S
H2091 C2107 0.959 . S
H2092 C2107 0.959 . S
H2093 C2107 0.961 . S
H2094 C2108 0.960 . S
H2095 C2108 0.961 . S
H2096 C2108 0.959 . S
H2097 C2111 0.929 . S
H2098 C2112 0.931 . S
H2099 C2114 0.930 . S
C2100 H2088 0.930 . S
C2100 C2101 1.399 . S
C2100 C2105 1.399 . S
C2101 C2100 1.399 . S
C2101 C2102 1.376 . S
C2102 H2089 0.930 . S
C2102 C2101 1.376 . S
C2102 C2103 1.388 . S
C2103 H2090 0.930 . S
C2103 C2102 1.388 . S
C2103 C2104 1.390 . S
C2104 C2103 1.390 . S
C2104 C2105 1.394 . S
C2104 C2110 1.465 . S
C2105 C2100 1.399 . S
C2105 C2104 1.394 . S
C2105 C2106 1.516 . S
C2106 C2105 1.516 . S
C2106 C2107 1.502 . S
C2106 C2108 1.561 . S
C2106 C2109 1.526 . S
C2107 H2091 0.959 . S
C2107 H2092 0.959 . S
C2107 H2093 0.961 . S
C2107 C2106 1.502 . S
C2108 H2094 0.960 . S
C2108 H2095 0.961 . S
C2108 H2096 0.959 . S
C2108 C2106 1.561 . S
C2109 C2106 1.526 . S
C2109 C2110 1.396 . S
C2109 C2114 1.390 . S
C2110 C2104 1.465 . S
C2110 C2109 1.396 . S
C2110 C2111 1.399 . S
C2111 H2097 0.929 . S
C2111 C2110 1.399 . S
C2111 C2112 1.385 . S
C2112 H2098 0.931 . S
C2112 C2111 1.385 . S
C2112 C2113 1.389 . S
C2113 C2112 1.389 . S
C2113 C2114 1.387 . S
C2114 H2099 0.930 . S
C2114 C2109 1.390 . S
C2114 C2113 1.387 . S
H2115 C2127 0.930 . S
H2116 C2129 0.930 . S
H2117 C2130 0.930 . S
H2118 C2134 0.959 . S
H2119 C2134 0.959 . S
H2120 C2134 0.961 . S
H2121 C2135 0.960 . S
H2122 C2135 0.961 . S
H2123 C2135 0.959 . S
H2124 C2138 0.929 . S
H2125 C2139 0.931 . S
H2126 C2141 0.930 . S
C2127 H2115 0.930 . S
C2127 C2128 1.399 . S
C2127 C2132 1.399 . S
C2128 C2127 1.399 . S
C2128 C2129 1.376 . S
C2129 H2116 0.930 . S
C2129 C2128 1.376 . S
C2129 C2130 1.388 . S
C2130 H2117 0.930 . S
C2130 C2129 1.388 . S
C2130 C2131 1.390 . S
C2131 C2130 1.390 . S
C2131 C2132 1.394 . S
C2131 C2137 1.465 . S
C2132 C2127 1.399 . S
C2132 C2131 1.394 . S
C2132 C2133 1.516 . S
C2133 C2132 1.516 . S
C2133 C2134 1.502 . S
C2133 C2135 1.561 . S
C2133 C2136 1.526 . S
C2134 H2118 0.959 . S
C2134 H2119 0.959 . S
C2134 H2120 0.961 . S
C2134 C2133 1.502 . S
C2135 H2121 0.960 . S
C2135 H2122 0.961 . S
C2135 H2123 0.959 . S
C2135 C2133 1.561 . S
C2136 C2133 1.526 . S
C2136 C2137 1.396 . S
C2136 C2141 1.390 . S
C2137 C2131 1.465 . S
C2137 C2136 1.396 . S
C2137 C2138 1.399 . S
C2138 H2124 0.929 . S
C2138 C2137 1.399 . S
C2138 C2139 1.385 . S
C2139 H2125 0.931 . S
C2139 C2138 1.385 . S
C2139 C2140 1.389 . S
C2140 C2139 1.389 . S
C2140 C2141 1.387 . S
C2141 H2126 0.930 . S
C2141 C2136 1.390 . S
C2141 C2140 1.387 . S
H2142 C2154 0.930 . S
H2143 C2156 0.930 . S
H2144 C2157 0.930 . S
H2145 C2161 0.959 . S
H2146 C2161 0.959 . S
H2147 C2161 0.961 . S
H2148 C2162 0.960 . S
H2149 C2162 0.961 . S
H2150 C2162 0.959 . S
H2151 C2165 0.929 . S
H2152 C2166 0.931 . S
H2153 C2168 0.930 . S
C2154 H2142 0.930 . S
C2154 C2155 1.399 . S
C2154 C2159 1.399 . S
C2155 C2154 1.399 . S
C2155 C2156 1.376 . S
C2156 H2143 0.930 . S
C2156 C2155 1.376 . S
C2156 C2157 1.388 . S
C2157 H2144 0.930 . S
C2157 C2156 1.388 . S
C2157 C2158 1.390 . S
C2158 C2157 1.390 . S
C2158 C2159 1.394 . S
C2158 C2164 1.465 . S
C2159 C2154 1.399 . S
C2159 C2158 1.394 . S
C2159 C2160 1.516 . S
C2160 C2159 1.516 . S
C2160 C2161 1.502 . S
C2160 C2162 1.561 . S
C2160 C2163 1.526 . S
C2161 H2145 0.959 . S
C2161 H2146 0.959 . S
C2161 H2147 0.961 . S
C2161 C2160 1.502 . S
C2162 H2148 0.960 . S
C2162 H2149 0.961 . S
C2162 H2150 0.959 . S
C2162 C2160 1.561 . S
C2163 C2160 1.526 . S
C2163 C2164 1.396 . S
C2163 C2168 1.390 . S
C2164 C2158 1.465 . S
C2164 C2163 1.396 . S
C2164 C2165 1.399 . S
C2165 H2151 0.929 . S
C2165 C2164 1.399 . S
C2165 C2166 1.385 . S
C2166 H2152 0.931 . S
C2166 C2165 1.385 . S
C2166 C2167 1.389 . S
C2167 C2166 1.389 . S
C2167 C2168 1.387 . S
C2168 H2153 0.930 . S
C2168 C2163 1.390 . S
C2168 C2167 1.387 . S
H2169 C2181 0.930 . S
H2170 C2183 0.930 . S
H2171 C2184 0.930 . S
H2172 C2188 0.959 . S
H2173 C2188 0.959 . S
H2174 C2188 0.961 . S
H2175 C2189 0.960 . S
H2176 C2189 0.961 . S
H2177 C2189 0.959 . S
H2178 C2192 0.929 . S
H2179 C2193 0.931 . S
H2180 C2195 0.930 . S
C2181 H2169 0.930 . S
C2181 C2182 1.399 . S
C2181 C2186 1.399 . S
C2182 C2181 1.399 . S
C2182 C2183 1.376 . S
C2183 H2170 0.930 . S
C2183 C2182 1.376 . S
C2183 C2184 1.388 . S
C2184 H2171 0.930 . S
C2184 C2183 1.388 . S
C2184 C2185 1.390 . S
C2185 C2184 1.390 . S
C2185 C2186 1.394 . S
C2185 C2191 1.465 . S
C2186 C2181 1.399 . S
C2186 C2185 1.394 . S
C2186 C2187 1.516 . S
C2187 C2186 1.516 . S
C2187 C2188 1.502 . S
C2187 C2189 1.561 . S
C2187 C2190 1.526 . S
C2188 H2172 0.959 . S
C2188 H2173 0.959 . S
C2188 H2174 0.961 . S
C2188 C2187 1.502 . S
C2189 H2175 0.960 . S
C2189 H2176 0.961 . S
C2189 H2177 0.959 . S
C2189 C2187 1.561 . S
C2190 C2187 1.526 . S
C2190 C2191 1.396 . S
C2190 C2195 1.390 . S
C2191 C2185 1.465 . S
C2191 C2190 1.396 . S
C2191 C2192 1.399 . S
C2192 H2178 0.929 . S
C2192 C2191 1.399 . S
C2192 C2193 1.385 . S
C2193 H2179 0.931 . S
C2193 C2192 1.385 . S
C2193 C2194 1.389 . S
C2194 C2193 1.389 . S
C2194 C2195 1.387 . S
C2195 H2180 0.930 . S
C2195 C2190 1.390 . S
C2195 C2194 1.387 . S
H2196 C2208 0.930 . S
H2197 C2210 0.930 . S
H2198 C2211 0.930 . S
H2199 C2215 0.959 . S
H2200 C2215 0.959 . S
H2201 C2215 0.961 . S
H2202 C2216 0.960 . S
H2203 C2216 0.961 . S
H2204 C2216 0.959 . S
H2205 C2219 0.929 . S
H2206 C2220 0.931 . S
H2207 C2222 0.930 . S
C2208 H2196 0.930 . S
C2208 C2209 1.399 . S
C2208 C2213 1.399 . S
C2209 C2208 1.399 . S
C2209 C2210 1.376 . S
C2210 H2197 0.930 . S
C2210 C2209 1.376 . S
C2210 C2211 1.388 . S
C2211 H2198 0.930 . S
C2211 C2210 1.388 . S
C2211 C2212 1.390 . S
C2212 C2211 1.390 . S
C2212 C2213 1.394 . S
C2212 C2218 1.465 . S
C2213 C2208 1.399 . S
C2213 C2212 1.394 . S
C2213 C2214 1.516 . S
C2214 C2213 1.516 . S
C2214 C2215 1.502 . S
C2214 C2216 1.561 . S
C2214 C2217 1.526 . S
C2215 H2199 0.959 . S
C2215 H2200 0.959 . S
C2215 H2201 0.961 . S
C2215 C2214 1.502 . S
C2216 H2202 0.960 . S
C2216 H2203 0.961 . S
C2216 H2204 0.959 . S
C2216 C2214 1.561 . S
C2217 C2214 1.526 . S
C2217 C2218 1.396 . S
C2217 C2222 1.390 . S
C2218 C2212 1.465 . S
C2218 C2217 1.396 . S
C2218 C2219 1.399 . S
C2219 H2205 0.929 . S
C2219 C2218 1.399 . S
C2219 C2220 1.385 . S
C2220 H2206 0.931 . S
C2220 C2219 1.385 . S
C2220 C2221 1.389 . S
C2221 C2220 1.389 . S
C2221 C2222 1.387 . S
C2222 H2207 0.930 . S
C2222 C2217 1.390 . S
C2222 C2221 1.387 . S
H2223 C2235 0.930 . S
H2224 C2237 0.930 . S
H2225 C2238 0.930 . S
H2226 C2242 0.959 . S
H2227 C2242 0.959 . S
H2228 C2242 0.961 . S
H2229 C2243 0.960 . S
H2230 C2243 0.961 . S
H2231 C2243 0.959 . S
H2232 C2246 0.929 . S
H2233 C2247 0.931 . S
H2234 C2249 0.930 . S
C2235 H2223 0.930 . S
C2235 C2236 1.399 . S
C2235 C2240 1.399 . S
C2236 C2235 1.399 . S
C2236 C2237 1.376 . S
C2237 H2224 0.930 . S
C2237 C2236 1.376 . S
C2237 C2238 1.388 . S
C2238 H2225 0.930 . S
C2238 C2237 1.388 . S
C2238 C2239 1.390 . S
C2239 C2238 1.390 . S
C2239 C2240 1.394 . S
C2239 C2245 1.465 . S
C2240 C2235 1.399 . S
C2240 C2239 1.394 . S
C2240 C2241 1.516 . S
C2241 C2240 1.516 . S
C2241 C2242 1.502 . S
C2241 C2243 1.561 . S
C2241 C2244 1.526 . S
C2242 H2226 0.959 . S
C2242 H2227 0.959 . S
C2242 H2228 0.961 . S
C2242 C2241 1.502 . S
C2243 H2229 0.960 . S
C2243 H2230 0.961 . S
C2243 H2231 0.959 . S
C2243 C2241 1.561 . S
C2244 C2241 1.526 . S
C2244 C2245 1.396 . S
C2244 C2249 1.390 . S
C2245 C2239 1.465 . S
C2245 C2244 1.396 . S
C2245 C2246 1.399 . S
C2246 H2232 0.929 . S
C2246 C2245 1.399 . S
C2246 C2247 1.385 . S
C2247 H2233 0.931 . S
C2247 C2246 1.385 . S
C2247 C2248 1.389 . S
C2248 C2247 1.389 . S
C2248 C2249 1.387 . S
C2249 H2234 0.930 . S
C2249 C2244 1.390 . S
C2249 C2248 1.387 . S
H2250 C2262 0.930 . S
H2251 C2264 0.930 . S
H2252 C2265 0.930 . S
H2253 C2269 0.959 . S
H2254 C2269 0.959 . S
H2255 C2269 0.961 . S
H2256 C2270 0.960 . S
H2257 C2270 0.961 . S
H2258 C2270 0.959 . S
H2259 C2273 0.929 . S
H2260 C2274 0.931 . S
H2261 C2276 0.930 . S
C2262 H2250 0.930 . S
C2262 C2263 1.399 . S
C2262 C2267 1.399 . S
C2263 C2262 1.399 . S
C2263 C2264 1.376 . S
C2264 H2251 0.930 . S
C2264 C2263 1.376 . S
C2264 C2265 1.388 . S
C2265 H2252 0.930 . S
C2265 C2264 1.388 . S
C2265 C2266 1.390 . S
C2266 C2265 1.390 . S
C2266 C2267 1.394 . S
C2266 C2272 1.465 . S
C2267 C2262 1.399 . S
C2267 C2266 1.394 . S
C2267 C2268 1.516 . S
C2268 C2267 1.516 . S
C2268 C2269 1.502 . S
C2268 C2270 1.561 . S
C2268 C2271 1.526 . S
C2269 H2253 0.959 . S
C2269 H2254 0.959 . S
C2269 H2255 0.961 . S
C2269 C2268 1.502 . S
C2270 H2256 0.960 . S
C2270 H2257 0.961 . S
C2270 H2258 0.959 . S
C2270 C2268 1.561 . S
C2271 C2268 1.526 . S
C2271 C2272 1.396 . S
C2271 C2276 1.390 . S
C2272 C2266 1.465 . S
C2272 C2271 1.396 . S
C2272 C2273 1.399 . S
C2273 H2259 0.929 . S
C2273 C2272 1.399 . S
C2273 C2274 1.385 . S
C2274 H2260 0.931 . S
C2274 C2273 1.385 . S
C2274 C2275 1.389 . S
C2275 C2274 1.389 . S
C2275 C2276 1.387 . S
C2276 H2261 0.930 . S
C2276 C2271 1.390 . S
C2276 C2275 1.387 . S
H2277 C2289 0.930 . S
H2278 C2291 0.930 . S
H2279 C2292 0.930 . S
H2280 C2296 0.959 . S
H2281 C2296 0.959 . S
H2282 C2296 0.961 . S
H2283 C2297 0.960 . S
H2284 C2297 0.961 . S
H2285 C2297 0.959 . S
H2286 C2300 0.929 . S
H2287 C2301 0.931 . S
H2288 C2303 0.930 . S
C2289 H2277 0.930 . S
C2289 C2290 1.399 . S
C2289 C2294 1.399 . S
C2290 C2289 1.399 . S
C2290 C2291 1.376 . S
C2291 H2278 0.930 . S
C2291 C2290 1.376 . S
C2291 C2292 1.388 . S
C2292 H2279 0.930 . S
C2292 C2291 1.388 . S
C2292 C2293 1.390 . S
C2293 C2292 1.390 . S
C2293 C2294 1.394 . S
C2293 C2299 1.465 . S
C2294 C2289 1.399 . S
C2294 C2293 1.394 . S
C2294 C2295 1.516 . S
C2295 C2294 1.516 . S
C2295 C2296 1.502 . S
C2295 C2297 1.561 . S
C2295 C2298 1.526 . S
C2296 H2280 0.959 . S
C2296 H2281 0.959 . S
C2296 H2282 0.961 . S
C2296 C2295 1.502 . S
C2297 H2283 0.960 . S
C2297 H2284 0.961 . S
C2297 H2285 0.959 . S
C2297 C2295 1.561 . S
C2298 C2295 1.526 . S
C2298 C2299 1.396 . S
C2298 C2303 1.390 . S
C2299 C2293 1.465 . S
C2299 C2298 1.396 . S
C2299 C2300 1.399 . S
C2300 H2286 0.929 . S
C2300 C2299 1.399 . S
C2300 C2301 1.385 . S
C2301 H2287 0.931 . S
C2301 C2300 1.385 . S
C2301 C2302 1.389 . S
C2302 C2301 1.389 . S
C2302 C2303 1.387 . S
C2303 H2288 0.930 . S
C2303 C2298 1.390 . S
C2303 C2302 1.387 . S
H2304 C2316 0.930 . S
H2305 C2318 0.930 . S
H2306 C2319 0.930 . S
H2307 C2323 0.959 . S
H2308 C2323 0.959 . S
H2309 C2323 0.961 . S
H2310 C2324 0.960 . S
H2311 C2324 0.961 . S
H2312 C2324 0.959 . S
H2313 C2327 0.929 . S
H2314 C2328 0.931 . S
H2315 C2330 0.930 . S
C2316 H2304 0.930 . S
C2316 C2317 1.399 . S
C2316 C2321 1.399 . S
C2317 C2316 1.399 . S
C2317 C2318 1.376 . S
C2318 H2305 0.930 . S
C2318 C2317 1.376 . S
C2318 C2319 1.388 . S
C2319 H2306 0.930 . S
C2319 C2318 1.388 . S
C2319 C2320 1.390 . S
C2320 C2319 1.390 . S
C2320 C2321 1.394 . S
C2320 C2326 1.465 . S
C2321 C2316 1.399 . S
C2321 C2320 1.394 . S
C2321 C2322 1.516 . S
C2322 C2321 1.516 . S
C2322 C2323 1.502 . S
C2322 C2324 1.561 . S
C2322 C2325 1.526 . S
C2323 H2307 0.959 . S
C2323 H2308 0.959 . S
C2323 H2309 0.961 . S
C2323 C2322 1.502 . S
C2324 H2310 0.960 . S
C2324 H2311 0.961 . S
C2324 H2312 0.959 . S
C2324 C2322 1.561 . S
C2325 C2322 1.526 . S
C2325 C2326 1.396 . S
C2325 C2330 1.390 . S
C2326 C2320 1.465 . S
C2326 C2325 1.396 . S
C2326 C2327 1.399 . S
C2327 H2313 0.929 . S
C2327 C2326 1.399 . S
C2327 C2328 1.385 . S
C2328 H2314 0.931 . S
C2328 C2327 1.385 . S
C2328 C2329 1.389 . S
C2329 C2328 1.389 . S
C2329 C2330 1.387 . S
C2330 H2315 0.930 . S
C2330 C2325 1.390 . S
C2330 C2329 1.387 . S
H2331 C2343 0.930 . S
H2332 C2345 0.930 . S
H2333 C2346 0.930 . S
H2334 C2350 0.959 . S
H2335 C2350 0.959 . S
H2336 C2350 0.961 . S
H2337 C2351 0.960 . S
H2338 C2351 0.961 . S
H2339 C2351 0.959 . S
H2340 C2354 0.929 . S
H2341 C2355 0.931 . S
H2342 C2357 0.930 . S
C2343 H2331 0.930 . S
C2343 C2344 1.399 . S
C2343 C2348 1.399 . S
C2344 C2343 1.399 . S
C2344 C2345 1.376 . S
C2345 H2332 0.930 . S
C2345 C2344 1.376 . S
C2345 C2346 1.388 . S
C2346 H2333 0.930 . S
C2346 C2345 1.388 . S
C2346 C2347 1.390 . S
C2347 C2346 1.390 . S
C2347 C2348 1.394 . S
C2347 C2353 1.465 . S
C2348 C2343 1.399 . S
C2348 C2347 1.394 . S
C2348 C2349 1.516 . S
C2349 C2348 1.516 . S
C2349 C2350 1.502 . S
C2349 C2351 1.561 . S
C2349 C2352 1.526 . S
C2350 H2334 0.959 . S
C2350 H2335 0.959 . S
C2350 H2336 0.961 . S
C2350 C2349 1.502 . S
C2351 H2337 0.960 . S
C2351 H2338 0.961 . S
C2351 H2339 0.959 . S
C2351 C2349 1.561 . S
C2352 C2349 1.526 . S
C2352 C2353 1.396 . S
C2352 C2357 1.390 . S
C2353 C2347 1.465 . S
C2353 C2352 1.396 . S
C2353 C2354 1.399 . S
C2354 H2340 0.929 . S
C2354 C2353 1.399 . S
C2354 C2355 1.385 . S
C2355 H2341 0.931 . S
C2355 C2354 1.385 . S
C2355 C2356 1.389 . S
C2356 C2355 1.389 . S
C2356 C2357 1.387 . S
C2357 H2342 0.930 . S
C2357 C2352 1.390 . S
C2357 C2356 1.387 . S
H2358 C2370 0.930 . S
H2359 C2372 0.930 . S
H2360 C2373 0.930 . S
H2361 C2377 0.959 . S
H2362 C2377 0.959 . S
H2363 C2377 0.961 . S
H2364 C2378 0.960 . S
H2365 C2378 0.961 . S
H2366 C2378 0.959 . S
H2367 C2381 0.929 . S
H2368 C2382 0.931 . S
H2369 C2384 0.930 . S
C2370 H2358 0.930 . S
C2370 C2371 1.399 . S
C2370 C2375 1.399 . S
C2371 C2370 1.399 . S
C2371 C2372 1.376 . S
C2372 H2359 0.930 . S
C2372 C2371 1.376 . S
C2372 C2373 1.388 . S
C2373 H2360 0.930 . S
C2373 C2372 1.388 . S
C2373 C2374 1.390 . S
C2374 C2373 1.390 . S
C2374 C2375 1.394 . S
C2374 C2380 1.465 . S
C2375 C2370 1.399 . S
C2375 C2374 1.394 . S
C2375 C2376 1.516 . S
C2376 C2375 1.516 . S
C2376 C2377 1.502 . S
C2376 C2378 1.561 . S
C2376 C2379 1.526 . S
C2377 H2361 0.959 . S
C2377 H2362 0.959 . S
C2377 H2363 0.961 . S
C2377 C2376 1.502 . S
C2378 H2364 0.960 . S
C2378 H2365 0.961 . S
C2378 H2366 0.959 . S
C2378 C2376 1.561 . S
C2379 C2376 1.526 . S
C2379 C2380 1.396 . S
C2379 C2384 1.390 . S
C2380 C2374 1.465 . S
C2380 C2379 1.396 . S
C2380 C2381 1.399 . S
C2381 H2367 0.929 . S
C2381 C2380 1.399 . S
C2381 C2382 1.385 . S
C2382 H2368 0.931 . S
C2382 C2381 1.385 . S
C2382 C2383 1.389 . S
C2383 C2382 1.389 . S
C2383 C2384 1.387 . S
C2384 H2369 0.930 . S
C2384 C2379 1.390 . S
C2384 C2383 1.387 . S
H2385 C2397 0.930 . S
H2386 C2399 0.930 . S
H2387 C2400 0.930 . S
H2388 C2404 0.959 . S
H2389 C2404 0.959 . S
H2390 C2404 0.961 . S
H2391 C2405 0.960 . S
H2392 C2405 0.961 . S
H2393 C2405 0.959 . S
H2394 C2408 0.929 . S
H2395 C2409 0.931 . S
H2396 C2411 0.930 . S
C2397 H2385 0.930 . S
C2397 C2398 1.399 . S
C2397 C2402 1.399 . S
C2398 C2397 1.399 . S
C2398 C2399 1.376 . S
C2399 H2386 0.930 . S
C2399 C2398 1.376 . S
C2399 C2400 1.388 . S
C2400 H2387 0.930 . S
C2400 C2399 1.388 . S
C2400 C2401 1.390 . S
C2401 C2400 1.390 . S
C2401 C2402 1.394 . S
C2401 C2407 1.465 . S
C2402 C2397 1.399 . S
C2402 C2401 1.394 . S
C2402 C2403 1.516 . S
C2403 C2402 1.516 . S
C2403 C2404 1.502 . S
C2403 C2405 1.561 . S
C2403 C2406 1.526 . S
C2404 H2388 0.959 . S
C2404 H2389 0.959 . S
C2404 H2390 0.961 . S
C2404 C2403 1.502 . S
C2405 H2391 0.960 . S
C2405 H2392 0.961 . S
C2405 H2393 0.959 . S
C2405 C2403 1.561 . S
C2406 C2403 1.526 . S
C2406 C2407 1.396 . S
C2406 C2411 1.390 . S
C2407 C2401 1.465 . S
C2407 C2406 1.396 . S
C2407 C2408 1.399 . S
C2408 H2394 0.929 . S
C2408 C2407 1.399 . S
C2408 C2409 1.385 . S
C2409 H2395 0.931 . S
C2409 C2408 1.385 . S
C2409 C2410 1.389 . S
C2410 C2409 1.389 . S
C2410 C2411 1.387 . S
C2411 H2396 0.930 . S
C2411 C2406 1.390 . S
C2411 C2410 1.387 . S
H2412 C2424 0.930 . S
H2413 C2426 0.930 . S
H2414 C2427 0.930 . S
H2415 C2431 0.959 . S
H2416 C2431 0.959 . S
H2417 C2431 0.961 . S
H2418 C2432 0.960 . S
H2419 C2432 0.961 . S
H2420 C2432 0.959 . S
H2421 C2435 0.929 . S
H2422 C2436 0.931 . S
H2423 C2438 0.930 . S
C2424 H2412 0.930 . S
C2424 C2425 1.399 . S
C2424 C2429 1.399 . S
C2425 C2424 1.399 . S
C2425 C2426 1.376 . S
C2426 H2413 0.930 . S
C2426 C2425 1.376 . S
C2426 C2427 1.388 . S
C2427 H2414 0.930 . S
C2427 C2426 1.388 . S
C2427 C2428 1.390 . S
C2428 C2427 1.390 . S
C2428 C2429 1.394 . S
C2428 C2434 1.465 . S
C2429 C2424 1.399 . S
C2429 C2428 1.394 . S
C2429 C2430 1.516 . S
C2430 C2429 1.516 . S
C2430 C2431 1.502 . S
C2430 C2432 1.561 . S
C2430 C2433 1.526 . S
C2431 H2415 0.959 . S
C2431 H2416 0.959 . S
C2431 H2417 0.961 . S
C2431 C2430 1.502 . S
C2432 H2418 0.960 . S
C2432 H2419 0.961 . S
C2432 H2420 0.959 . S
C2432 C2430 1.561 . S
C2433 C2430 1.526 . S
C2433 C2434 1.396 . S
C2433 C2438 1.390 . S
C2434 C2428 1.465 . S
C2434 C2433 1.396 . S
C2434 C2435 1.399 . S
C2435 H2421 0.929 . S
C2435 C2434 1.399 . S
C2435 C2436 1.385 . S
C2436 H2422 0.931 . S
C2436 C2435 1.385 . S
C2436 C2437 1.389 . S
C2437 C2436 1.389 . S
C2437 C2438 1.387 . S
C2438 H2423 0.930 . S
C2438 C2433 1.390 . S
C2438 C2437 1.387 . S
H2439 C2451 0.930 . S
H2440 C2453 0.930 . S
H2441 C2454 0.930 . S
H2442 C2458 0.959 . S
H2443 C2458 0.959 . S
H2444 C2458 0.961 . S
H2445 C2459 0.960 . S
H2446 C2459 0.961 . S
H2447 C2459 0.959 . S
H2448 C2462 0.929 . S
H2449 C2463 0.931 . S
H2450 C2465 0.930 . S
C2451 H2439 0.930 . S
C2451 C2452 1.399 . S
C2451 C2456 1.399 . S
C2452 C2451 1.399 . S
C2452 C2453 1.376 . S
C2453 H2440 0.930 . S
C2453 C2452 1.376 . S
C2453 C2454 1.388 . S
C2454 H2441 0.930 . S
C2454 C2453 1.388 . S
C2454 C2455 1.390 . S
C2455 C2454 1.390 . S
C2455 C2456 1.394 . S
C2455 C2461 1.465 . S
C2456 C2451 1.399 . S
C2456 C2455 1.394 . S
C2456 C2457 1.516 . S
C2457 C2456 1.516 . S
C2457 C2458 1.502 . S
C2457 C2459 1.561 . S
C2457 C2460 1.526 . S
C2458 H2442 0.959 . S
C2458 H2443 0.959 . S
C2458 H2444 0.961 . S
C2458 C2457 1.502 . S
C2459 H2445 0.960 . S
C2459 H2446 0.961 . S
C2459 H2447 0.959 . S
C2459 C2457 1.561 . S
C2460 C2457 1.526 . S
C2460 C2461 1.396 . S
C2460 C2465 1.390 . S
C2461 C2455 1.465 . S
C2461 C2460 1.396 . S
C2461 C2462 1.399 . S
C2462 H2448 0.929 . S
C2462 C2461 1.399 . S
C2462 C2463 1.385 . S
C2463 H2449 0.931 . S
C2463 C2462 1.385 . S
C2463 C2464 1.389 . S
C2464 C2463 1.389 . S
C2464 C2465 1.387 . S
C2465 H2450 0.930 . S
C2465 C2460 1.390 . S
C2465 C2464 1.387 . S
H2466 C2478 0.930 . S
H2467 C2480 0.930 . S
H2468 C2481 0.930 . S
H2469 C2485 0.959 . S
H2470 C2485 0.959 . S
H2471 C2485 0.961 . S
H2472 C2486 0.960 . S
H2473 C2486 0.961 . S
H2474 C2486 0.959 . S
H2475 C2489 0.929 . S
H2476 C2490 0.931 . S
H2477 C2492 0.930 . S
C2478 H2466 0.930 . S
C2478 C2479 1.399 . S
C2478 C2483 1.399 . S
C2479 C2478 1.399 . S
C2479 C2480 1.376 . S
C2480 H2467 0.930 . S
C2480 C2479 1.376 . S
C2480 C2481 1.388 . S
C2481 H2468 0.930 . S
C2481 C2480 1.388 . S
C2481 C2482 1.390 . S
C2482 C2481 1.390 . S
C2482 C2483 1.394 . S
C2482 C2488 1.465 . S
C2483 C2478 1.399 . S
C2483 C2482 1.394 . S
C2483 C2484 1.516 . S
C2484 C2483 1.516 . S
C2484 C2485 1.502 . S
C2484 C2486 1.561 . S
C2484 C2487 1.526 . S
C2485 H2469 0.959 . S
C2485 H2470 0.959 . S
C2485 H2471 0.961 . S
C2485 C2484 1.502 . S
C2486 H2472 0.960 . S
C2486 H2473 0.961 . S
C2486 H2474 0.959 . S
C2486 C2484 1.561 . S
C2487 C2484 1.526 . S
C2487 C2488 1.396 . S
C2487 C2492 1.390 . S
C2488 C2482 1.465 . S
C2488 C2487 1.396 . S
C2488 C2489 1.399 . S
C2489 H2475 0.929 . S
C2489 C2488 1.399 . S
C2489 C2490 1.385 . S
C2490 H2476 0.931 . S
C2490 C2489 1.385 . S
C2490 C2491 1.389 . S
C2491 C2490 1.389 . S
C2491 C2492 1.387 . S
C2492 H2477 0.930 . S
C2492 C2487 1.390 . S
C2492 C2491 1.387 . S
H2493 C2505 0.930 . S
H2494 C2507 0.930 . S
H2495 C2508 0.930 . S
H2496 C2512 0.959 . S
H2497 C2512 0.959 . S
H2498 C2512 0.961 . S
H2499 C2513 0.960 . S
H2500 C2513 0.961 . S
H2501 C2513 0.959 . S
H2502 C2516 0.929 . S
H2503 C2517 0.931 . S
H2504 C2519 0.930 . S
C2505 H2493 0.930 . S
C2505 C2506 1.399 . S
C2505 C2510 1.399 . S
C2506 C2505 1.399 . S
C2506 C2507 1.376 . S
C2507 H2494 0.930 . S
C2507 C2506 1.376 . S
C2507 C2508 1.388 . S
C2508 H2495 0.930 . S
C2508 C2507 1.388 . S
C2508 C2509 1.390 . S
C2509 C2508 1.390 . S
C2509 C2510 1.394 . S
C2509 C2515 1.465 . S
C2510 C2505 1.399 . S
C2510 C2509 1.394 . S
C2510 C2511 1.516 . S
C2511 C2510 1.516 . S
C2511 C2512 1.502 . S
C2511 C2513 1.561 . S
C2511 C2514 1.526 . S
C2512 H2496 0.959 . S
C2512 H2497 0.959 . S
C2512 H2498 0.961 . S
C2512 C2511 1.502 . S
C2513 H2499 0.960 . S
C2513 H2500 0.961 . S
C2513 H2501 0.959 . S
C2513 C2511 1.561 . S
C2514 C2511 1.526 . S
C2514 C2515 1.396 . S
C2514 C2519 1.390 . S
C2515 C2509 1.465 . S
C2515 C2514 1.396 . S
C2515 C2516 1.399 . S
C2516 H2502 0.929 . S
C2516 C2515 1.399 . S
C2516 C2517 1.385 . S
C2517 H2503 0.931 . S
C2517 C2516 1.385 . S
C2517 C2518 1.389 . S
C2518 C2517 1.389 . S
C2518 C2519 1.387 . S
C2519 H2504 0.930 . S
C2519 C2514 1.390 . S
C2519 C2518 1.387 . S
H2520 C2532 0.930 . S
H2521 C2534 0.930 . S
H2522 C2535 0.930 . S
H2523 C2539 0.959 . S
H2524 C2539 0.959 . S
H2525 C2539 0.961 . S
H2526 C2540 0.960 . S
H2527 C2540 0.961 . S
H2528 C2540 0.959 . S
H2529 C2543 0.929 . S
H2530 C2544 0.931 . S
H2531 C2546 0.930 . S
C2532 H2520 0.930 . S
C2532 C2533 1.399 . S
C2532 C2537 1.399 . S
C2533 C2532 1.399 . S
C2533 C2534 1.376 . S
C2534 H2521 0.930 . S
C2534 C2533 1.376 . S
C2534 C2535 1.388 . S
C2535 H2522 0.930 . S
C2535 C2534 1.388 . S
C2535 C2536 1.390 . S
C2536 C2535 1.390 . S
C2536 C2537 1.394 . S
C2536 C2542 1.465 . S
C2537 C2532 1.399 . S
C2537 C2536 1.394 . S
C2537 C2538 1.516 . S
C2538 C2537 1.516 . S
C2538 C2539 1.502 . S
C2538 C2540 1.561 . S
C2538 C2541 1.526 . S
C2539 H2523 0.959 . S
C2539 H2524 0.959 . S
C2539 H2525 0.961 . S
C2539 C2538 1.502 . S
C2540 H2526 0.960 . S
C2540 H2527 0.961 . S
C2540 H2528 0.959 . S
C2540 C2538 1.561 . S
C2541 C2538 1.526 . S
C2541 C2542 1.396 . S
C2541 C2546 1.390 . S
C2542 C2536 1.465 . S
C2542 C2541 1.396 . S
C2542 C2543 1.399 . S
C2543 H2529 0.929 . S
C2543 C2542 1.399 . S
C2543 C2544 1.385 . S
C2544 H2530 0.931 . S
C2544 C2543 1.385 . S
C2544 C2545 1.389 . S
C2545 C2544 1.389 . S
C2545 C2546 1.387 . S
C2546 H2531 0.930 . S
C2546 C2541 1.390 . S
C2546 C2545 1.387 . S
H2547 C2559 0.930 . S
H2548 C2561 0.930 . S
H2549 C2562 0.930 . S
H2550 C2566 0.959 . S
H2551 C2566 0.959 . S
H2552 C2566 0.961 . S
H2553 C2567 0.960 . S
H2554 C2567 0.961 . S
H2555 C2567 0.959 . S
H2556 C2570 0.929 . S
H2557 C2571 0.931 . S
H2558 C2573 0.930 . S
C2559 H2547 0.930 . S
C2559 C2560 1.399 . S
C2559 C2564 1.399 . S
C2560 C2559 1.399 . S
C2560 C2561 1.376 . S
C2561 H2548 0.930 . S
C2561 C2560 1.376 . S
C2561 C2562 1.388 . S
C2562 H2549 0.930 . S
C2562 C2561 1.388 . S
C2562 C2563 1.390 . S
C2563 C2562 1.390 . S
C2563 C2564 1.394 . S
C2563 C2569 1.465 . S
C2564 C2559 1.399 . S
C2564 C2563 1.394 . S
C2564 C2565 1.516 . S
C2565 C2564 1.516 . S
C2565 C2566 1.502 . S
C2565 C2567 1.561 . S
C2565 C2568 1.526 . S
C2566 H2550 0.959 . S
C2566 H2551 0.959 . S
C2566 H2552 0.961 . S
C2566 C2565 1.502 . S
C2567 H2553 0.960 . S
C2567 H2554 0.961 . S
C2567 H2555 0.959 . S
C2567 C2565 1.561 . S
C2568 C2565 1.526 . S
C2568 C2569 1.396 . S
C2568 C2573 1.390 . S
C2569 C2563 1.465 . S
C2569 C2568 1.396 . S
C2569 C2570 1.399 . S
C2570 H2556 0.929 . S
C2570 C2569 1.399 . S
C2570 C2571 1.385 . S
C2571 H2557 0.931 . S
C2571 C2570 1.385 . S
C2571 C2572 1.389 . S
C2572 C2571 1.389 . S
C2572 C2573 1.387 . S
C2573 H2558 0.930 . S
C2573 C2568 1.390 . S
C2573 C2572 1.387 . S
H2574 C2586 0.930 . S
H2575 C2588 0.930 . S
H2576 C2589 0.930 . S
H2577 C2593 0.959 . S
H2578 C2593 0.959 . S
H2579 C2593 0.961 . S
H2580 C2594 0.960 . S
H2581 C2594 0.961 . S
H2582 C2594 0.959 . S
H2583 C2597 0.929 . S
H2584 C2598 0.931 . S
H2585 C2600 0.930 . S
C2586 H2574 0.930 . S
C2586 C2587 1.399 . S
C2586 C2591 1.399 . S
C2587 C2586 1.399 . S
C2587 C2588 1.376 . S
C2588 H2575 0.930 . S
C2588 C2587 1.376 . S
C2588 C2589 1.388 . S
C2589 H2576 0.930 . S
C2589 C2588 1.388 . S
C2589 C2590 1.390 . S
C2590 C2589 1.390 . S
C2590 C2591 1.394 . S
C2590 C2596 1.465 . S
C2591 C2586 1.399 . S
C2591 C2590 1.394 . S
C2591 C2592 1.516 . S
C2592 C2591 1.516 . S
C2592 C2593 1.502 . S
C2592 C2594 1.561 . S
C2592 C2595 1.526 . S
C2593 H2577 0.959 . S
C2593 H2578 0.959 . S
C2593 H2579 0.961 . S
C2593 C2592 1.502 . S
C2594 H2580 0.960 . S
C2594 H2581 0.961 . S
C2594 H2582 0.959 . S
C2594 C2592 1.561 . S
C2595 C2592 1.526 . S
C2595 C2596 1.396 . S
C2595 C2600 1.390 . S
C2596 C2590 1.465 . S
C2596 C2595 1.396 . S
C2596 C2597 1.399 . S
C2597 H2583 0.929 . S
C2597 C2596 1.399 . S
C2597 C2598 1.385 . S
C2598 H2584 0.931 . S
C2598 C2597 1.385 . S
C2598 C2599 1.389 . S
C2599 C2598 1.389 . S
C2599 C2600 1.387 . S
C2600 H2585 0.930 . S
C2600 C2595 1.390 . S
C2600 C2599 1.387 . S
H2601 C2613 0.930 . S
H2602 C2615 0.930 . S
H2603 C2616 0.930 . S
H2604 C2620 0.959 . S
H2605 C2620 0.959 . S
H2606 C2620 0.961 . S
H2607 C2621 0.960 . S
H2608 C2621 0.961 . S
H2609 C2621 0.959 . S
H2610 C2624 0.929 . S
H2611 C2625 0.931 . S
H2612 C2627 0.930 . S
C2613 H2601 0.930 . S
C2613 C2614 1.399 . S
C2613 C2618 1.399 . S
C2614 C2613 1.399 . S
C2614 C2615 1.376 . S
C2615 H2602 0.930 . S
C2615 C2614 1.376 . S
C2615 C2616 1.388 . S
C2616 H2603 0.930 . S
C2616 C2615 1.388 . S
C2616 C2617 1.390 . S
C2617 C2616 1.390 . S
C2617 C2618 1.394 . S
C2617 C2623 1.465 . S
C2618 C2613 1.399 . S
C2618 C2617 1.394 . S
C2618 C2619 1.516 . S
C2619 C2618 1.516 . S
C2619 C2620 1.502 . S
C2619 C2621 1.561 . S
C2619 C2622 1.526 . S
C2620 H2604 0.959 . S
C2620 H2605 0.959 . S
C2620 H2606 0.961 . S
C2620 C2619 1.502 . S
C2621 H2607 0.960 . S
C2621 H2608 0.961 . S
C2621 H2609 0.959 . S
C2621 C2619 1.561 . S
C2622 C2619 1.526 . S
C2622 C2623 1.396 . S
C2622 C2627 1.390 . S
C2623 C2617 1.465 . S
C2623 C2622 1.396 . S
C2623 C2624 1.399 . S
C2624 H2610 0.929 . S
C2624 C2623 1.399 . S
C2624 C2625 1.385 . S
C2625 H2611 0.931 . S
C2625 C2624 1.385 . S
C2625 C2626 1.389 . S
C2626 C2625 1.389 . S
C2626 C2627 1.387 . S
C2627 H2612 0.930 . S
C2627 C2622 1.390 . S
C2627 C2626 1.387 . S
H2628 C2640 0.930 . S
H2629 C2642 0.930 . S
H2630 C2643 0.930 . S
H2631 C2647 0.959 . S
H2632 C2647 0.959 . S
H2633 C2647 0.961 . S
H2634 C2648 0.960 . S
H2635 C2648 0.961 . S
H2636 C2648 0.959 . S
H2637 C2651 0.929 . S
H2638 C2652 0.931 . S
H2639 C2654 0.930 . S
C2640 H2628 0.930 . S
C2640 C2641 1.399 . S
C2640 C2645 1.399 . S
C2641 C2640 1.399 . S
C2641 C2642 1.376 . S
C2642 H2629 0.930 . S
C2642 C2641 1.376 . S
C2642 C2643 1.388 . S
C2643 H2630 0.930 . S
C2643 C2642 1.388 . S
C2643 C2644 1.390 . S
C2644 C2643 1.390 . S
C2644 C2645 1.394 . S
C2644 C2650 1.465 . S
C2645 C2640 1.399 . S
C2645 C2644 1.394 . S
C2645 C2646 1.516 . S
C2646 C2645 1.516 . S
C2646 C2647 1.502 . S
C2646 C2648 1.561 . S
C2646 C2649 1.526 . S
C2647 H2631 0.959 . S
C2647 H2632 0.959 . S
C2647 H2633 0.961 . S
C2647 C2646 1.502 . S
C2648 H2634 0.960 . S
C2648 H2635 0.961 . S
C2648 H2636 0.959 . S
C2648 C2646 1.561 . S
C2649 C2646 1.526 . S
C2649 C2650 1.396 . S
C2649 C2654 1.390 . S
C2650 C2644 1.465 . S
C2650 C2649 1.396 . S
C2650 C2651 1.399 . S
C2651 H2637 0.929 . S
C2651 C2650 1.399 . S
C2651 C2652 1.385 . S
C2652 H2638 0.931 . S
C2652 C2651 1.385 . S
C2652 C2653 1.389 . S
C2653 C2652 1.389 . S
C2653 C2654 1.387 . S
C2654 H2639 0.930 . S
C2654 C2649 1.390 . S
C2654 C2653 1.387 . S
H2655 C2667 0.930 . S
H2656 C2669 0.930 . S
H2657 C2670 0.930 . S
H2658 C2674 0.959 . S
H2659 C2674 0.959 . S
H2660 C2674 0.961 . S
H2661 C2675 0.960 . S
H2662 C2675 0.961 . S
H2663 C2675 0.959 . S
H2664 C2678 0.929 . S
H2665 C2679 0.931 . S
H2666 C2681 0.930 . S
C2667 H2655 0.930 . S
C2667 C2668 1.399 . S
C2667 C2672 1.399 . S
C2668 C2667 1.399 . S
C2668 C2669 1.376 . S
C2669 H2656 0.930 . S
C2669 C2668 1.376 . S
C2669 C2670 1.388 . S
C2670 H2657 0.930 . S
C2670 C2669 1.388 . S
C2670 C2671 1.390 . S
C2671 C2670 1.390 . S
C2671 C2672 1.394 . S
C2671 C2677 1.465 . S
C2672 C2667 1.399 . S
C2672 C2671 1.394 . S
C2672 C2673 1.516 . S
C2673 C2672 1.516 . S
C2673 C2674 1.502 . S
C2673 C2675 1.561 . S
C2673 C2676 1.526 . S
C2674 H2658 0.959 . S
C2674 H2659 0.959 . S
C2674 H2660 0.961 . S
C2674 C2673 1.502 . S
C2675 H2661 0.960 . S
C2675 H2662 0.961 . S
C2675 H2663 0.959 . S
C2675 C2673 1.561 . S
C2676 C2673 1.526 . S
C2676 C2677 1.396 . S
C2676 C2681 1.390 . S
C2677 C2671 1.465 . S
C2677 C2676 1.396 . S
C2677 C2678 1.399 . S
C2678 H2664 0.929 . S
C2678 C2677 1.399 . S
C2678 C2679 1.385 . S
C2679 H2665 0.931 . S
C2679 C2678 1.385 . S
C2679 C2680 1.389 . S
C2680 C2679 1.389 . S
C2680 C2681 1.387 . S
C2681 H2666 0.930 . S
C2681 C2676 1.390 . S
C2681 C2680 1.387 . S
H2682 C2694 0.930 . S
H2683 C2696 0.930 . S
H2684 C2697 0.930 . S
H2685 C2701 0.959 . S
H2686 C2701 0.959 . S
H2687 C2701 0.961 . S
H2688 C2702 0.960 . S
H2689 C2702 0.961 . S
H2690 C2702 0.959 . S
H2691 C2705 0.929 . S
H2692 C2706 0.931 . S
H2693 C2708 0.930 . S
C2694 H2682 0.930 . S
C2694 C2695 1.399 . S
C2694 C2699 1.399 . S
C2695 C2694 1.399 . S
C2695 C2696 1.376 . S
C2696 H2683 0.930 . S
C2696 C2695 1.376 . S
C2696 C2697 1.388 . S
C2697 H2684 0.930 . S
C2697 C2696 1.388 . S
C2697 C2698 1.390 . S
C2698 C2697 1.390 . S
C2698 C2699 1.394 . S
C2698 C2704 1.465 . S
C2699 C2694 1.399 . S
C2699 C2698 1.394 . S
C2699 C2700 1.516 . S
C2700 C2699 1.516 . S
C2700 C2701 1.502 . S
C2700 C2702 1.561 . S
C2700 C2703 1.526 . S
C2701 H2685 0.959 . S
C2701 H2686 0.959 . S
C2701 H2687 0.961 . S
C2701 C2700 1.502 . S
C2702 H2688 0.960 . S
C2702 H2689 0.961 . S
C2702 H2690 0.959 . S
C2702 C2700 1.561 . S
C2703 C2700 1.526 . S
C2703 C2704 1.396 . S
C2703 C2708 1.390 . S
C2704 C2698 1.465 . S
C2704 C2703 1.396 . S
C2704 C2705 1.399 . S
C2705 H2691 0.929 . S
C2705 C2704 1.399 . S
C2705 C2706 1.385 . S
C2706 H2692 0.931 . S
C2706 C2705 1.385 . S
C2706 C2707 1.389 . S
C2707 C2706 1.389 . S
C2707 C2708 1.387 . S
C2708 H2693 0.930 . S
C2708 C2703 1.390 . S
C2708 C2707 1.387 . S
H2709 C2721 0.930 . S
H2710 C2723 0.930 . S
H2711 C2724 0.930 . S
H2712 C2728 0.959 . S
H2713 C2728 0.959 . S
H2714 C2728 0.961 . S
H2715 C2729 0.960 . S
H2716 C2729 0.961 . S
H2717 C2729 0.959 . S
H2718 C2732 0.929 . S
H2719 C2733 0.931 . S
H2720 C2735 0.930 . S
C2721 H2709 0.930 . S
C2721 C2722 1.399 . S
C2721 C2726 1.399 . S
C2722 C2721 1.399 . S
C2722 C2723 1.376 . S
C2723 H2710 0.930 . S
C2723 C2722 1.376 . S
C2723 C2724 1.388 . S
C2724 H2711 0.930 . S
C2724 C2723 1.388 . S
C2724 C2725 1.390 . S
C2725 C2724 1.390 . S
C2725 C2726 1.394 . S
C2725 C2731 1.465 . S
C2726 C2721 1.399 . S
C2726 C2725 1.394 . S
C2726 C2727 1.516 . S
C2727 C2726 1.516 . S
C2727 C2728 1.502 . S
C2727 C2729 1.561 . S
C2727 C2730 1.526 . S
C2728 H2712 0.959 . S
C2728 H2713 0.959 . S
C2728 H2714 0.961 . S
C2728 C2727 1.502 . S
C2729 H2715 0.960 . S
C2729 H2716 0.961 . S
C2729 H2717 0.959 . S
C2729 C2727 1.561 . S
C2730 C2727 1.526 . S
C2730 C2731 1.396 . S
C2730 C2735 1.390 . S
C2731 C2725 1.465 . S
C2731 C2730 1.396 . S
C2731 C2732 1.399 . S
C2732 H2718 0.929 . S
C2732 C2731 1.399 . S
C2732 C2733 1.385 . S
C2733 H2719 0.931 . S
C2733 C2732 1.385 . S
C2733 C2734 1.389 . S
C2734 C2733 1.389 . S
C2734 C2735 1.387 . S
C2735 H2720 0.930 . S
C2735 C2730 1.390 . S
C2735 C2734 1.387 . S
H2736 C2748 0.930 . S
H2737 C2750 0.930 . S
H2738 C2751 0.930 . S
H2739 C2755 0.959 . S
H2740 C2755 0.959 . S
H2741 C2755 0.961 . S
H2742 C2756 0.960 . S
H2743 C2756 0.961 . S
H2744 C2756 0.959 . S
H2745 C2759 0.929 . S
H2746 C2760 0.931 . S
H2747 C2762 0.930 . S
C2748 H2736 0.930 . S
C2748 C2749 1.399 . S
C2748 C2753 1.399 . S
C2749 C2748 1.399 . S
C2749 C2750 1.376 . S
C2750 H2737 0.930 . S
C2750 C2749 1.376 . S
C2750 C2751 1.388 . S
C2751 H2738 0.930 . S
C2751 C2750 1.388 . S
C2751 C2752 1.390 . S
C2752 C2751 1.390 . S
C2752 C2753 1.394 . S
C2752 C2758 1.465 . S
C2753 C2748 1.399 . S
C2753 C2752 1.394 . S
C2753 C2754 1.516 . S
C2754 C2753 1.516 . S
C2754 C2755 1.502 . S
C2754 C2756 1.561 . S
C2754 C2757 1.526 . S
C2755 H2739 0.959 . S
C2755 H2740 0.959 . S
C2755 H2741 0.961 . S
C2755 C2754 1.502 . S
C2756 H2742 0.960 . S
C2756 H2743 0.961 . S
C2756 H2744 0.959 . S
C2756 C2754 1.561 . S
C2757 C2754 1.526 . S
C2757 C2758 1.396 . S
C2757 C2762 1.390 . S
C2758 C2752 1.465 . S
C2758 C2757 1.396 . S
C2758 C2759 1.399 . S
C2759 H2745 0.929 . S
C2759 C2758 1.399 . S
C2759 C2760 1.385 . S
C2760 H2746 0.931 . S
C2760 C2759 1.385 . S
C2760 C2761 1.389 . S
C2761 C2760 1.389 . S
C2761 C2762 1.387 . S
C2762 H2747 0.930 . S
C2762 C2757 1.390 . S
C2762 C2761 1.387 . S
H2763 C2775 0.930 . S
H2764 C2777 0.930 . S
H2765 C2778 0.930 . S
H2766 C2782 0.959 . S
H2767 C2782 0.959 . S
H2768 C2782 0.961 . S
H2769 C2783 0.960 . S
H2770 C2783 0.961 . S
H2771 C2783 0.959 . S
H2772 C2786 0.929 . S
H2773 C2787 0.931 . S
H2774 C2789 0.930 . S
C2775 H2763 0.930 . S
C2775 C2776 1.399 . S
C2775 C2780 1.399 . S
C2776 C2775 1.399 . S
C2776 C2777 1.376 . S
C2777 H2764 0.930 . S
C2777 C2776 1.376 . S
C2777 C2778 1.388 . S
C2778 H2765 0.930 . S
C2778 C2777 1.388 . S
C2778 C2779 1.390 . S
C2779 C2778 1.390 . S
C2779 C2780 1.394 . S
C2779 C2785 1.465 . S
C2780 C2775 1.399 . S
C2780 C2779 1.394 . S
C2780 C2781 1.516 . S
C2781 C2780 1.516 . S
C2781 C2782 1.502 . S
C2781 C2783 1.561 . S
C2781 C2784 1.526 . S
C2782 H2766 0.959 . S
C2782 H2767 0.959 . S
C2782 H2768 0.961 . S
C2782 C2781 1.502 . S
C2783 H2769 0.960 . S
C2783 H2770 0.961 . S
C2783 H2771 0.959 . S
C2783 C2781 1.561 . S
C2784 C2781 1.526 . S
C2784 C2785 1.396 . S
C2784 C2789 1.390 . S
C2785 C2779 1.465 . S
C2785 C2784 1.396 . S
C2785 C2786 1.399 . S
C2786 H2772 0.929 . S
C2786 C2785 1.399 . S
C2786 C2787 1.385 . S
C2787 H2773 0.931 . S
C2787 C2786 1.385 . S
C2787 C2788 1.389 . S
C2788 C2787 1.389 . S
C2788 C2789 1.387 . S
C2789 H2774 0.930 . S
C2789 C2784 1.390 . S
C2789 C2788 1.387 . S
H2790 C2802 0.930 . S
H2791 C2804 0.930 . S
H2792 C2805 0.930 . S
H2793 C2809 0.959 . S
H2794 C2809 0.959 . S
H2795 C2809 0.931 1_556 S
H2796 C2810 0.960 1_556 S
H2797 C2810 0.961 . S
H2798 C2810 0.959 . S
H2799 C2813 0.929 . S
H2800 C2814 0.931 . S
H2801 C2816 0.930 . S
C2802 H2790 0.930 . S
C2802 C2803 1.399 . S
C2802 C2807 1.399 . S
C2803 C2802 1.399 . S
C2803 C2804 1.376 . S
C2804 H2791 0.930 . S
C2804 C2803 1.376 . S
C2804 C2805 1.388 . S
C2805 H2792 0.930 . S
C2805 C2804 1.388 . S
C2805 C2806 1.390 . S
C2806 C2805 1.390 . S
C2806 C2807 1.394 . S
C2806 C2812 1.465 . S
C2807 C2802 1.399 . S
C2807 C2806 1.394 . S
C2807 C2808 1.516 . S
C2808 C2807 1.516 . S
C2808 C2809 1.502 . S
C2808 C2810 1.561 . S
C2808 C2811 1.526 . S
C2809 H2793 0.959 . S
C2809 H2794 0.959 . S
C2809 H2795 0.931 1_554 S
C2809 C2808 1.502 . S
C2810 H2796 0.960 1_554 S
C2810 H2797 0.961 . S
C2810 H2798 0.959 . S
C2810 C2808 1.561 . S
C2811 C2808 1.526 . S
C2811 C2812 1.396 . S
C2811 C2816 1.390 . S
C2812 C2806 1.465 . S
C2812 C2811 1.396 . S
C2812 C2813 1.399 . S
C2813 H2799 0.929 . S
C2813 C2812 1.399 . S
C2813 C2814 1.385 . S
C2814 H2800 0.931 . S
C2814 C2813 1.385 . S
C2814 C2815 1.389 . S
C2815 C2814 1.389 . S
C2815 C2816 1.387 . S
C2816 H2801 0.930 . S
C2816 C2811 1.390 . S
C2816 C2815 1.387 . S
H2817 C2829 0.930 1_554 S
H2818 C2831 0.930 . S
H2819 C2832 0.930 . S
H2820 C2836 0.954 1_556 S
H2821 C2836 0.959 . S
H2822 C2836 0.961 . S
H2823 C2837 0.960 . S
H2824 C2837 0.961 . S
H2825 C2837 0.959 . S
H2826 C2840 0.929 . S
H2827 C2841 0.931 . S
H2828 C2843 0.930 . S
C2829 H2817 0.930 1_556 S
C2829 C2830 1.399 . S
C2829 C2834 1.399 . S
C2830 C2829 1.399 . S
C2830 C2831 1.376 . S
C2831 H2818 0.930 . S
C2831 C2830 1.376 . S
C2831 C2832 1.388 . S
C2832 H2819 0.930 . S
C2832 C2831 1.388 . S
C2832 C2833 1.390 . S
C2833 C2832 1.390 . S
C2833 C2834 1.394 . S
C2833 C2839 1.465 . S
C2834 C2829 1.399 . S
C2834 C2833 1.394 . S
C2834 C2835 1.516 . S
C2835 C2834 1.516 . S
C2835 C2836 1.502 1_556 S
C2835 C2837 1.561 1_556 S
C2835 C2838 1.526 . S
C2836 H2820 0.954 1_554 S
C2836 H2821 0.959 . S
C2836 H2822 0.961 . S
C2836 C2835 1.502 1_554 S
C2837 H2823 0.960 . S
C2837 H2824 0.961 . S
C2837 H2825 0.959 . S
C2837 C2835 1.561 1_554 S
C2838 C2835 1.526 . S
C2838 C2839 1.396 . S
C2838 C2843 1.390 . S
C2839 C2833 1.465 . S
C2839 C2838 1.396 . S
C2839 C2840 1.399 . S
C2840 H2826 0.929 . S
C2840 C2839 1.399 . S
C2840 C2841 1.385 . S
C2841 H2827 0.931 . S
C2841 C2840 1.385 . S
C2841 C2842 1.389 . S
C2842 C2841 1.389 . S
C2842 C2843 1.387 . S
C2843 H2828 0.930 . S
C2843 C2838 1.390 . S
C2843 C2842 1.387 . S
H2844 C2856 0.930 1_554 S
H2845 C2858 0.930 . S
H2846 C2859 0.930 . S
H2847 C2863 0.966 . S
H2848 C2863 0.957 1_554 S
H2849 C2863 0.954 1_554 S
H2850 C2864 0.960 . S
H2851 C2864 0.961 . S
H2852 C2864 0.963 . S
H2853 C2867 0.929 . S
H2854 C2868 0.931 . S
H2855 C2870 0.930 . S
C2856 H2844 0.930 1_556 S
C2856 C2857 1.399 . S
C2856 C2861 1.399 . S
C2857 C2856 1.399 . S
C2857 C2858 1.376 . S
C2858 H2845 0.930 . S
C2858 C2857 1.376 . S
C2858 C2859 1.388 . S
C2859 H2846 0.930 . S
C2859 C2858 1.388 . S
C2859 C2860 1.390 . S
C2860 C2859 1.390 . S
C2860 C2861 1.394 . S
C2860 C2866 1.465 . S
C2861 C2856 1.399 . S
C2861 C2860 1.394 . S
C2861 C2862 1.516 . S
C2862 C2861 1.516 . S
C2862 C2863 1.505 . S
C2862 C2864 1.561 1_556 S
C2862 C2865 1.526 . S
C2863 H2847 0.966 . S
C2863 H2848 0.957 1_556 S
C2863 H2849 0.954 1_556 S
C2863 C2862 1.505 . S
C2864 H2850 0.960 . S
C2864 H2851 0.961 . S
C2864 H2852 0.963 . S
C2864 C2862 1.561 1_554 S
C2865 C2862 1.526 . S
C2865 C2866 1.396 . S
C2865 C2870 1.390 . S
C2866 C2860 1.465 . S
C2866 C2865 1.396 . S
C2866 C2867 1.399 . S
C2867 H2853 0.929 . S
C2867 C2866 1.399 . S
C2867 C2868 1.385 . S
C2868 H2854 0.931 . S
C2868 C2867 1.385 . S
C2868 C2869 1.389 . S
C2869 C2868 1.389 . S
C2869 C2870 1.387 . S
C2870 H2855 0.930 . S
C2870 C2865 1.390 . S
C2870 C2869 1.387 . S
H2871 C2883 0.930 . S
H2872 C2885 0.930 . S
H2873 C2886 0.930 1_554 S
H2874 C2890 0.959 . S
H2875 C2890 0.959 . S
H2876 C2890 0.961 . S
H2877 C2891 0.960 . S
H2878 C2891 0.961 . S
H2879 C2891 0.959 . S
H2880 C2894 0.929 . S
H2881 C2895 0.931 . S
H2882 C2897 0.930 . S
C2883 H2871 0.930 . S
C2883 C2884 1.399 . S
C2883 C2888 1.399 . S
C2884 C2883 1.399 . S
C2884 C2885 1.376 1_556 S
C2885 H2872 0.930 . S
C2885 C2884 1.376 1_554 S
C2885 C2886 1.388 1_554 S
C2886 H2873 0.930 1_556 S
C2886 C2885 1.388 1_556 S
C2886 C2887 1.390 . S
C2887 C2886 1.390 . S
C2887 C2888 1.394 . S
C2887 C2893 1.465 . S
C2888 C2883 1.399 . S
C2888 C2887 1.394 . S
C2888 C2889 1.516 . S
C2889 C2888 1.516 . S
C2889 C2890 1.502 . S
C2889 C2891 1.561 . S
C2889 C2892 1.526 . S
C2890 H2874 0.959 . S
C2890 H2875 0.959 . S
C2890 H2876 0.961 . S
C2890 C2889 1.502 . S
C2891 H2877 0.960 . S
C2891 H2878 0.961 . S
C2891 H2879 0.959 . S
C2891 C2889 1.561 . S
C2892 C2889 1.526 . S
C2892 C2893 1.396 . S
C2892 C2897 1.390 . S
C2893 C2887 1.465 . S
C2893 C2892 1.396 . S
C2893 C2894 1.399 . S
C2894 H2880 0.929 . S
C2894 C2893 1.399 . S
C2894 C2895 1.385 . S
C2895 H2881 0.931 . S
C2895 C2894 1.385 . S
C2895 C2896 1.389 . S
C2896 C2895 1.389 . S
C2896 C2897 1.387 . S
C2897 H2882 0.930 . S
C2897 C2892 1.390 . S
C2897 C2896 1.387 . S
H2898 C2910 0.930 . S
H2899 C2912 0.930 . S
H2900 C2913 0.930 . S
H2901 C2917 0.959 . S
H2902 C2917 0.959 . S
H2903 C2917 0.961 . S
H2904 C2918 0.960 . S
H2905 C2918 0.961 . S
H2906 C2918 0.959 . S
H2907 C2921 0.929 1_554 S
H2908 C2922 0.931 . S
H2909 C2924 0.930 . S
C2910 H2898 0.930 . S
C2910 C2911 1.399 . S
C2910 C2915 1.399 . S
C2911 C2910 1.399 . S
C2911 C2912 1.376 1_556 S
C2912 H2899 0.930 . S
C2912 C2911 1.376 1_554 S
C2912 C2913 1.388 . S
C2913 H2900 0.930 . S
C2913 C2912 1.388 . S
C2913 C2914 1.390 1_554 S
C2914 C2913 1.390 1_556 S
C2914 C2915 1.394 . S
C2914 C2920 1.465 . S
C2915 C2910 1.399 . S
C2915 C2914 1.394 . S
C2915 C2916 1.516 . S
C2916 C2915 1.516 . S
C2916 C2917 1.502 . S
C2916 C2918 1.561 . S
C2916 C2919 1.526 . S
C2917 H2901 0.959 . S
C2917 H2902 0.959 . S
C2917 H2903 0.961 . S
C2917 C2916 1.502 . S
C2918 H2904 0.960 . S
C2918 H2905 0.961 . S
C2918 H2906 0.959 . S
C2918 C2916 1.561 . S
C2919 C2916 1.526 . S
C2919 C2920 1.396 . S
C2919 C2924 1.390 . S
C2920 C2914 1.465 . S
C2920 C2919 1.396 . S
C2920 C2921 1.399 . S
C2921 H2907 0.929 1_556 S
C2921 C2920 1.399 . S
C2921 C2922 1.385 . S
C2922 H2908 0.931 . S
C2922 C2921 1.385 . S
C2922 C2923 1.389 . S
C2923 C2922 1.389 . S
C2923 C2924 1.387 . S
C2924 H2909 0.930 . S
C2924 C2919 1.390 . S
C2924 C2923 1.387 . S
H2925 C2937 0.930 . S
H2926 C2939 0.930 1_554 S
H2927 C2940 0.930 . S
H2928 C2944 0.959 . S
H2929 C2944 0.959 . S
H2930 C2944 0.961 . S
H2931 C2945 0.960 . S
H2932 C2945 0.961 . S
H2933 C2945 0.959 . S
H2934 C2948 0.929 . S
H2935 C2949 0.931 . S
H2936 C2951 0.930 . S
C2937 H2925 0.930 . S
C2937 C2938 1.399 . S
C2937 C2942 1.399 . S
C2938 C2937 1.399 . S
C2938 C2939 1.376 . S
C2939 H2926 0.930 1_556 S
C2939 C2938 1.376 . S
C2939 C2940 1.388 . S
C2940 H2927 0.930 . S
C2940 C2939 1.388 . S
C2940 C2941 1.390 . S
C2941 C2940 1.390 . S
C2941 C2942 1.394 . S
C2941 C2947 1.465 . S
C2942 C2937 1.399 . S
C2942 C2941 1.394 . S
C2942 C2943 1.516 . S
C2943 C2942 1.516 . S
C2943 C2944 1.502 . S
C2943 C2945 1.561 . S
C2943 C2946 1.526 . S
C2944 H2928 0.959 . S
C2944 H2929 0.959 . S
C2944 H2930 0.961 . S
C2944 C2943 1.502 . S
C2945 H2931 0.960 . S
C2945 H2932 0.961 . S
C2945 H2933 0.959 . S
C2945 C2943 1.561 . S
C2946 C2943 1.526 . S
C2946 C2947 1.396 . S
C2946 C2951 1.390 . S
C2947 C2941 1.465 . S
C2947 C2946 1.396 . S
C2947 C2948 1.399 . S
C2948 H2934 0.929 . S
C2948 C2947 1.399 . S
C2948 C2949 1.385 . S
C2949 H2935 0.931 . S
C2949 C2948 1.385 . S
C2949 C2950 1.389 . S
C2950 C2949 1.389 . S
C2950 C2951 1.387 . S
C2951 H2936 0.930 . S
C2951 C2946 1.390 . S
C2951 C2950 1.387 . S
H2952 C2964 0.930 . S
H2953 C2966 0.942 . S
H2954 C2967 0.930 . S
H2955 C2971 0.959 . S
H2956 C2971 0.959 . S
H2957 C2971 0.961 . S
H2958 C2972 0.960 . S
H2959 C2972 0.961 . S
H2960 C2972 0.959 . S
H2961 C2975 0.929 . S
H2962 C2976 0.931 . S
H2963 C2978 0.930 . S
C2964 H2952 0.930 . S
C2964 C2965 1.399 . S
C2964 C2969 1.399 . S
C2965 C2964 1.399 . S
C2965 C2966 1.376 . S
C2966 H2953 0.942 . S
C2966 C2965 1.376 . S
C2966 C2967 1.388 . S
C2967 H2954 0.930 . S
C2967 C2966 1.388 . S
C2967 C2968 1.390 . S
C2968 C2967 1.390 . S
C2968 C2969 1.394 . S
C2968 C2974 1.465 . S
C2969 C2964 1.399 . S
C2969 C2968 1.394 . S
C2969 C2970 1.516 . S
C2970 C2969 1.516 . S
C2970 C2971 1.502 . S
C2970 C2972 1.561 . S
C2970 C2973 1.526 . S
C2971 H2955 0.959 . S
C2971 H2956 0.959 . S
C2971 H2957 0.961 . S
C2971 C2970 1.502 . S
C2972 H2958 0.960 . S
C2972 H2959 0.961 . S
C2972 H2960 0.959 . S
C2972 C2970 1.561 . S
C2973 C2970 1.526 . S
C2973 C2974 1.396 . S
C2973 C2978 1.390 . S
C2974 C2968 1.465 . S
C2974 C2973 1.396 . S
C2974 C2975 1.399 . S
C2975 H2961 0.929 . S
C2975 C2974 1.399 . S
C2975 C2976 1.385 . S
C2976 H2962 0.931 . S
C2976 C2975 1.385 . S
C2976 C2977 1.389 . S
C2977 C2976 1.389 . S
C2977 C2978 1.387 . S
C2978 H2963 0.930 . S
C2978 C2973 1.390 . S
C2978 C2977 1.387 . S
H2979 C2991 0.930 . S
H2980 C2993 0.930 . S
H2981 C2994 0.930 . S
H2982 C2998 0.959 . S
H2983 C2998 0.959 . S
H2984 C2998 0.961 . S
H2985 C2999 0.960 . S
H2986 C2999 0.961 . S
H2987 C2999 0.959 . S
H2988 C3002 0.929 . S
H2989 C3003 0.931 . S
H2990 C3005 0.930 . S
C2991 H2979 0.930 . S
C2991 C2992 1.399 . S
C2991 C2996 1.399 . S
C2992 C2991 1.399 . S
C2992 C2993 1.376 . S
C2993 H2980 0.930 . S
C2993 C2992 1.376 . S
C2993 C2994 1.388 . S
C2994 H2981 0.930 . S
C2994 C2993 1.388 . S
C2994 C2995 1.390 . S
C2995 C2994 1.390 . S
C2995 C2996 1.394 . S
C2995 C3001 1.465 . S
C2996 C2991 1.399 . S
C2996 C2995 1.394 . S
C2996 C2997 1.516 . S
C2997 C2996 1.516 . S
C2997 C2998 1.502 . S
C2997 C2999 1.561 . S
C2997 C3000 1.526 . S
C2998 H2982 0.959 . S
C2998 H2983 0.959 . S
C2998 H2984 0.961 . S
C2998 C2997 1.502 . S
C2999 H2985 0.960 . S
C2999 H2986 0.961 . S
C2999 H2987 0.959 . S
C2999 C2997 1.561 . S
C3000 C2997 1.526 . S
C3000 C3001 1.396 . S
C3000 C3005 1.390 . S
C3001 C2995 1.465 . S
C3001 C3000 1.396 . S
C3001 C3002 1.399 . S
C3002 H2988 0.929 . S
C3002 C3001 1.399 . S
C3002 C3003 1.385 . S
C3003 H2989 0.931 . S
C3003 C3002 1.385 . S
C3003 C3004 1.389 . S
C3004 C3003 1.389 . S
C3004 C3005 1.387 . S
C3005 H2990 0.930 . S
C3005 C3000 1.390 . S
C3005 C3004 1.387 . S
H3006 C3018 0.930 . S
H3007 C3020 0.930 . S
H3008 C3021 0.930 . S
H3009 C3025 0.959 . S
H3010 C3025 0.959 . S
H3011 C3025 0.961 . S
H3012 C3026 0.960 1_556 S
H3013 C3026 0.961 . S
H3014 C3026 0.959 . S
H3015 C3029 0.929 . S
H3016 C3030 0.931 . S
H3017 C3032 0.930 . S
C3018 H3006 0.930 . S
C3018 C3019 1.399 . S
C3018 C3023 1.399 . S
C3019 C3018 1.399 . S
C3019 C3020 1.376 . S
C3020 H3007 0.930 . S
C3020 C3019 1.376 . S
C3020 C3021 1.388 . S
C3021 H3008 0.930 . S
C3021 C3020 1.388 . S
C3021 C3022 1.390 . S
C3022 C3021 1.390 . S
C3022 C3023 1.394 . S
C3022 C3028 1.465 . S
C3023 C3018 1.399 . S
C3023 C3022 1.394 . S
C3023 C3024 1.516 . S
C3024 C3023 1.516 . S
C3024 C3025 1.502 . S
C3024 C3026 1.561 . S
C3024 C3027 1.526 . S
C3025 H3009 0.959 . S
C3025 H3010 0.959 . S
C3025 H3011 0.961 . S
C3025 C3024 1.502 . S
C3026 H3012 0.960 1_554 S
C3026 H3013 0.961 . S
C3026 H3014 0.959 . S
C3026 C3024 1.561 . S
C3027 C3024 1.526 . S
C3027 C3028 1.396 . S
C3027 C3032 1.390 . S
C3028 C3022 1.465 . S
C3028 C3027 1.396 . S
C3028 C3029 1.399 . S
C3029 H3015 0.929 . S
C3029 C3028 1.399 . S
C3029 C3030 1.385 . S
C3030 H3016 0.931 . S
C3030 C3029 1.385 . S
C3030 C3031 1.389 . S
C3031 C3030 1.389 . S
C3031 C3032 1.387 . S
C3032 H3017 0.930 . S
C3032 C3027 1.390 . S
C3032 C3031 1.387 . S
H3033 C3045 0.930 . S
H3034 C3047 0.930 . S
H3035 C3048 0.930 . S
H3036 C3052 0.959 . S
H3037 C3052 0.959 . S
H3038 C3052 0.961 . S
H3039 C3053 0.973 . S
H3040 C3053 0.961 . S
H3041 C3053 0.959 . S
H3042 C3056 0.929 . S
H3043 C3057 0.931 . S
H3044 C3059 0.930 . S
C3045 H3033 0.930 . S
C3045 C3046 1.399 . S
C3045 C3050 1.399 . S
C3046 C3045 1.399 . S
C3046 C3047 1.376 . S
C3047 H3034 0.930 . S
C3047 C3046 1.376 . S
C3047 C3048 1.388 . S
C3048 H3035 0.930 . S
C3048 C3047 1.388 . S
C3048 C3049 1.390 . S
C3049 C3048 1.390 . S
C3049 C3050 1.394 . S
C3049 C3055 1.465 . S
C3050 C3045 1.399 . S
C3050 C3049 1.394 . S
C3050 C3051 1.516 . S
C3051 C3050 1.516 . S
C3051 C3052 1.502 . S
C3051 C3053 1.561 . S
C3051 C3054 1.526 . S
C3052 H3036 0.959 . S
C3052 H3037 0.959 . S
C3052 H3038 0.961 . S
C3052 C3051 1.502 . S
C3053 H3039 0.973 . S
C3053 H3040 0.961 . S
C3053 H3041 0.959 . S
C3053 C3051 1.561 . S
C3054 C3051 1.526 . S
C3054 C3055 1.396 . S
C3054 C3059 1.390 . S
C3055 C3049 1.465 . S
C3055 C3054 1.396 . S
C3055 C3056 1.399 . S
C3056 H3042 0.929 . S
C3056 C3055 1.399 . S
C3056 C3057 1.385 . S
C3057 H3043 0.931 . S
C3057 C3056 1.385 . S
C3057 C3058 1.389 . S
C3058 C3057 1.389 . S
C3058 C3059 1.387 . S
C3059 H3044 0.930 . S
C3059 C3054 1.390 . S
C3059 C3058 1.387 . S
H3060 C3072 0.930 . S
H3061 C3074 0.930 . S
H3062 C3075 0.930 . S
H3063 C3079 0.959 . S
H3064 C3079 0.959 . S
H3065 C3079 0.961 . S
H3066 C3080 0.960 . S
H3067 C3080 0.961 . S
H3068 C3080 0.959 . S
H3069 C3083 0.929 . S
H3070 C3084 0.931 . S
H3071 C3086 0.930 . S
C3072 H3060 0.930 . S
C3072 C3073 1.399 . S
C3072 C3077 1.399 . S
C3073 C3072 1.399 . S
C3073 C3074 1.376 . S
C3074 H3061 0.930 . S
C3074 C3073 1.376 . S
C3074 C3075 1.388 . S
C3075 H3062 0.930 . S
C3075 C3074 1.388 . S
C3075 C3076 1.390 . S
C3076 C3075 1.390 . S
C3076 C3077 1.394 . S
C3076 C3082 1.465 . S
C3077 C3072 1.399 . S
C3077 C3076 1.394 . S
C3077 C3078 1.516 . S
C3078 C3077 1.516 . S
C3078 C3079 1.502 . S
C3078 C3080 1.561 . S
C3078 C3081 1.526 . S
C3079 H3063 0.959 . S
C3079 H3064 0.959 . S
C3079 H3065 0.961 . S
C3079 C3078 1.502 . S
C3080 H3066 0.960 . S
C3080 H3067 0.961 . S
C3080 H3068 0.959 . S
C3080 C3078 1.561 . S
C3081 C3078 1.526 . S
C3081 C3082 1.396 . S
C3081 C3086 1.390 . S
C3082 C3076 1.465 . S
C3082 C3081 1.396 . S
C3082 C3083 1.399 . S
C3083 H3069 0.929 . S
C3083 C3082 1.399 . S
C3083 C3084 1.385 . S
C3084 H3070 0.931 . S
C3084 C3083 1.385 . S
C3084 C3085 1.389 . S
C3085 C3084 1.389 . S
C3085 C3086 1.387 . S
C3086 H3071 0.930 . S
C3086 C3081 1.390 . S
C3086 C3085 1.387 . S
H3087 C3099 0.930 . S
H3088 C3101 0.930 . S
H3089 C3102 0.930 . S
H3090 C3106 0.959 . S
H3091 C3106 0.959 . S
H3092 C3106 0.961 . S
H3093 C3107 0.960 . S
H3094 C3107 0.961 . S
H3095 C3107 0.959 . S
H3096 C3110 0.929 . S
H3097 C3111 0.931 . S
H3098 C3113 0.930 . S
C3099 H3087 0.930 . S
C3099 C3100 1.399 . S
C3099 C3104 1.399 . S
C3100 C3099 1.399 . S
C3100 C3101 1.376 . S
C3101 H3088 0.930 . S
C3101 C3100 1.376 . S
C3101 C3102 1.388 . S
C3102 H3089 0.930 . S
C3102 C3101 1.388 . S
C3102 C3103 1.390 . S
C3103 C3102 1.390 . S
C3103 C3104 1.394 . S
C3103 C3109 1.465 . S
C3104 C3099 1.399 . S
C3104 C3103 1.394 . S
C3104 C3105 1.516 . S
C3105 C3104 1.516 . S
C3105 C3106 1.502 . S
C3105 C3107 1.561 . S
C3105 C3108 1.526 . S
C3106 H3090 0.959 . S
C3106 H3091 0.959 . S
C3106 H3092 0.961 . S
C3106 C3105 1.502 . S
C3107 H3093 0.960 . S
C3107 H3094 0.961 . S
C3107 H3095 0.959 . S
C3107 C3105 1.561 . S
C3108 C3105 1.526 . S
C3108 C3109 1.396 . S
C3108 C3113 1.390 . S
C3109 C3103 1.465 . S
C3109 C3108 1.396 . S
C3109 C3110 1.399 . S
C3110 H3096 0.929 . S
C3110 C3109 1.399 . S
C3110 C3111 1.385 . S
C3111 H3097 0.931 . S
C3111 C3110 1.385 . S
C3111 C3112 1.389 . S
C3112 C3111 1.389 . S
C3112 C3113 1.387 . S
C3113 H3098 0.930 . S
C3113 C3108 1.390 . S
C3113 C3112 1.387 . S
H3114 C3126 0.930 . S
H3115 C3128 0.930 . S
H3116 C3129 0.930 . S
H3117 C3133 0.959 . S
H3118 C3133 0.959 . S
H3119 C3133 0.961 . S
H3120 C3134 0.960 . S
H3121 C3134 0.961 . S
H3122 C3134 0.959 . S
H3123 C3137 0.929 . S
H3124 C3138 0.931 . S
H3125 C3140 0.930 . S
C3126 H3114 0.930 . S
C3126 C3127 1.399 . S
C3126 C3131 1.399 . S
C3127 C3126 1.399 . S
C3127 C3128 1.376 . S
C3128 H3115 0.930 . S
C3128 C3127 1.376 . S
C3128 C3129 1.388 . S
C3129 H3116 0.930 . S
C3129 C3128 1.388 . S
C3129 C3130 1.390 . S
C3130 C3129 1.390 . S
C3130 C3131 1.394 . S
C3130 C3136 1.465 . S
C3131 C3126 1.399 . S
C3131 C3130 1.394 . S
C3131 C3132 1.516 . S
C3132 C3131 1.516 . S
C3132 C3133 1.502 . S
C3132 C3134 1.561 . S
C3132 C3135 1.526 . S
C3133 H3117 0.959 . S
C3133 H3118 0.959 . S
C3133 H3119 0.961 . S
C3133 C3132 1.502 . S
C3134 H3120 0.960 . S
C3134 H3121 0.961 . S
C3134 H3122 0.959 . S
C3134 C3132 1.561 . S
C3135 C3132 1.526 . S
C3135 C3136 1.396 . S
C3135 C3140 1.390 . S
C3136 C3130 1.465 . S
C3136 C3135 1.396 . S
C3136 C3137 1.399 . S
C3137 H3123 0.929 . S
C3137 C3136 1.399 . S
C3137 C3138 1.385 . S
C3138 H3124 0.931 . S
C3138 C3137 1.385 . S
C3138 C3139 1.389 . S
C3139 C3138 1.389 . S
C3139 C3140 1.387 . S
C3140 H3125 0.930 . S
C3140 C3135 1.390 . S
C3140 C3139 1.387 . S
H3141 C3153 0.930 . S
H3142 C3155 0.930 . S
H3143 C3156 0.930 . S
H3144 C3160 0.959 . S
H3145 C3160 0.959 . S
H3146 C3160 0.961 . S
H3147 C3161 0.960 . S
H3148 C3161 0.961 . S
H3149 C3161 0.959 . S
H3150 C3164 0.929 . S
H3151 C3165 0.931 . S
H3152 C3167 0.930 . S
C3153 H3141 0.930 . S
C3153 C3154 1.399 . S
C3153 C3158 1.399 . S
C3154 C3153 1.399 . S
C3154 C3155 1.376 . S
C3155 H3142 0.930 . S
C3155 C3154 1.376 . S
C3155 C3156 1.388 . S
C3156 H3143 0.930 . S
C3156 C3155 1.388 . S
C3156 C3157 1.390 . S
C3157 C3156 1.390 . S
C3157 C3158 1.394 . S
C3157 C3163 1.465 . S
C3158 C3153 1.399 . S
C3158 C3157 1.394 . S
C3158 C3159 1.516 . S
C3159 C3158 1.516 . S
C3159 C3160 1.502 . S
C3159 C3161 1.561 1_455 S
C3159 C3162 1.526 . S
C3160 H3144 0.959 . S
C3160 H3145 0.959 . S
C3160 H3146 0.961 . S
C3160 C3159 1.502 . S
C3161 H3147 0.960 . S
C3161 H3148 0.961 . S
C3161 H3149 0.959 . S
C3161 C3159 1.561 1_655 S
C3162 C3159 1.526 . S
C3162 C3163 1.396 . S
C3162 C3167 1.390 . S
C3163 C3157 1.465 . S
C3163 C3162 1.396 . S
C3163 C3164 1.399 . S
C3164 H3150 0.929 . S
C3164 C3163 1.399 . S
C3164 C3165 1.385 . S
C3165 H3151 0.931 . S
C3165 C3164 1.385 . S
C3165 C3166 1.389 . S
C3166 C3165 1.389 . S
C3166 C3167 1.387 . S
C3167 H3152 0.930 . S
C3167 C3162 1.390 . S
C3167 C3166 1.387 . S
H3168 C3180 0.930 . S
H3169 C3182 0.930 . S
H3170 C3183 0.930 . S
H3171 C3187 0.959 . S
H3172 C3187 0.959 . S
H3173 C3187 0.961 . S
H3174 C3188 0.960 . S
H3175 C3188 0.961 . S
H3176 C3188 0.959 . S
H3177 C3191 0.929 . S
H3178 C3192 0.931 . S
H3179 C3194 0.930 . S
C3180 H3168 0.930 . S
C3180 C3181 1.399 . S
C3180 C3185 1.399 . S
C3181 C3180 1.399 . S
C3181 C3182 1.376 . S
C3182 H3169 0.930 . S
C3182 C3181 1.376 . S
C3182 C3183 1.388 . S
C3183 H3170 0.930 . S
C3183 C3182 1.388 . S
C3183 C3184 1.390 . S
C3184 C3183 1.390 . S
C3184 C3185 1.394 . S
C3184 C3190 1.465 . S
C3185 C3180 1.399 . S
C3185 C3184 1.394 . S
C3185 C3186 1.516 . S
C3186 C3185 1.516 . S
C3186 C3187 1.502 . S
C3186 C3188 1.561 . S
C3186 C3189 1.526 . S
C3187 H3171 0.959 . S
C3187 H3172 0.959 . S
C3187 H3173 0.961 . S
C3187 C3186 1.502 . S
C3188 H3174 0.960 . S
C3188 H3175 0.961 . S
C3188 H3176 0.959 . S
C3188 C3186 1.561 . S
C3189 C3186 1.526 . S
C3189 C3190 1.396 . S
C3189 C3194 1.390 . S
C3190 C3184 1.465 . S
C3190 C3189 1.396 . S
C3190 C3191 1.399 . S
C3191 H3177 0.929 . S
C3191 C3190 1.399 . S
C3191 C3192 1.385 . S
C3192 H3178 0.931 . S
C3192 C3191 1.385 . S
C3192 C3193 1.389 . S
C3193 C3192 1.389 . S
C3193 C3194 1.387 . S
C3194 H3179 0.930 . S
C3194 C3189 1.390 . S
C3194 C3193 1.387 . S
H3195 C3207 0.930 . S
H3196 C3209 0.976 . S
H3197 C3210 0.911 1_545 S
H3198 C3214 0.959 . S
H3199 C3214 0.959 . S
H3200 C3214 0.961 . S
H3201 C3215 0.960 . S
H3202 C3215 0.961 . S
H3203 C3215 0.959 . S
H3204 C3218 0.929 . S
H3205 C3219 0.931 . S
H3206 C3221 0.930 . S
C3207 H3195 0.930 . S
C3207 C3208 1.399 . S
C3207 C3212 1.399 . S
C3208 C3207 1.399 . S
C3208 C3209 1.376 . S
C3209 H3196 0.976 . S
C3209 C3208 1.376 . S
C3209 C3210 1.380 . S
C3210 H3197 0.911 1_565 S
C3210 C3209 1.380 . S
C3210 C3211 1.420 . S
C3211 C3210 1.420 . S
C3211 C3212 1.394 . S
C3211 C3217 1.465 . S
C3212 C3207 1.399 . S
C3212 C3211 1.394 . S
C3212 C3213 1.516 . S
C3213 C3212 1.516 . S
C3213 C3214 1.502 . S
C3213 C3215 1.561 . S
C3213 C3216 1.526 . S
C3214 H3198 0.959 . S
C3214 H3199 0.959 . S
C3214 H3200 0.961 . S
C3214 C3213 1.502 . S
C3215 H3201 0.960 . S
C3215 H3202 0.961 . S
C3215 H3203 0.959 . S
C3215 C3213 1.561 . S
C3216 C3213 1.526 . S
C3216 C3217 1.396 . S
C3216 C3221 1.390 . S
C3217 C3211 1.465 . S
C3217 C3216 1.396 . S
C3217 C3218 1.399 1_565 S
C3218 H3204 0.929 . S
C3218 C3217 1.399 1_545 S
C3218 C3219 1.385 . S
C3219 H3205 0.931 . S
C3219 C3218 1.385 . S
C3219 C3220 1.389 1_545 S
C3220 C3219 1.389 1_565 S
C3220 C3221 1.387 . S
C3221 H3206 0.930 . S
C3221 C3216 1.390 . S
C3221 C3220 1.387 . S
H3222 C3234 0.930 . S
H3223 C3236 0.930 1_545 S
H3224 C3237 0.930 . S
H3225 C3241 0.959 . S
H3226 C3241 0.959 . S
H3227 C3241 0.961 . S
H3228 C3242 0.960 . S
H3229 C3242 0.961 . S
H3230 C3242 0.959 . S
H3231 C3245 0.929 . S
H3232 C3246 0.931 . S
H3233 C3248 0.930 . S
C3234 H3222 0.930 . S
C3234 C3235 1.399 . S
C3234 C3239 1.399 . S
C3235 C3234 1.399 . S
C3235 C3236 1.376 . S
C3236 H3223 0.930 1_565 S
C3236 C3235 1.376 . S
C3236 C3237 1.388 1_565 S
C3237 H3224 0.930 . S
C3237 C3236 1.388 1_545 S
C3237 C3238 1.390 1_545 S
C3238 C3237 1.390 1_565 S
C3238 C3239 1.394 . S
C3238 C3244 1.465 . S
C3239 C3234 1.399 . S
C3239 C3238 1.394 . S
C3239 C3240 1.516 . S
C3240 C3239 1.516 . S
C3240 C3241 1.502 . S
C3240 C3242 1.561 . S
C3240 C3243 1.526 . S
C3241 H3225 0.959 . S
C3241 H3226 0.959 . S
C3241 H3227 0.961 . S
C3241 C3240 1.502 . S
C3242 H3228 0.960 . S
C3242 H3229 0.961 . S
C3242 H3230 0.959 . S
C3242 C3240 1.561 . S
C3243 C3240 1.526 . S
C3243 C3244 1.396 . S
C3243 C3248 1.390 . S
C3244 C3238 1.465 . S
C3244 C3243 1.396 . S
C3244 C3245 1.399 1_565 S
C3245 H3231 0.929 . S
C3245 C3244 1.399 1_545 S
C3245 C3246 1.385 . S
C3246 H3232 0.931 . S
C3246 C3245 1.385 . S
C3246 C3247 1.389 1_545 S
C3247 C3246 1.389 1_565 S
C3247 C3248 1.387 . S
C3248 H3233 0.930 . S
C3248 C3243 1.390 . S
C3248 C3247 1.387 . S
H3249 C3261 0.978 . S
H3250 C3263 0.930 . S
H3251 C3264 0.930 . S
H3252 C3268 0.959 . S
H3253 C3268 0.959 . S
H3254 C3268 0.961 . S
H3255 C3269 0.960 . S
H3256 C3269 0.961 . S
H3257 C3269 0.959 1_455 S
H3258 C3272 0.929 . S
H3259 C3273 0.931 . S
H3260 C3275 0.977 . S
C3261 H3249 0.978 . S
C3261 C3262 1.399 . S
C3261 C3266 1.399 . S
C3262 C3261 1.399 . S
C3262 C3263 1.376 . S
C3263 H3250 0.930 . S
C3263 C3262 1.376 . S
C3263 C3264 1.388 . S
C3264 H3251 0.930 . S
C3264 C3263 1.388 . S
C3264 C3265 1.390 . S
C3265 C3264 1.390 . S
C3265 C3266 1.394 . S
C3265 C3271 1.465 . S
C3266 C3261 1.399 . S
C3266 C3265 1.394 . S
C3266 C3267 1.516 1_455 S
C3267 C3266 1.516 1_655 S
C3267 C3268 1.502 . S
C3267 C3269 1.561 . S
C3267 C3270 1.526 1_655 S
C3268 H3252 0.959 . S
C3268 H3253 0.959 . S
C3268 H3254 0.961 . S
C3268 C3267 1.502 . S
C3269 H3255 0.960 . S
C3269 H3256 0.961 . S
C3269 H3257 0.959 1_655 S
C3269 C3267 1.561 . S
C3270 C3267 1.526 1_455 S
C3270 C3271 1.396 . S
C3270 C3275 1.397 1_455 S
C3271 C3265 1.465 . S
C3271 C3270 1.396 . S
C3271 C3272 1.399 . S
C3272 H3258 0.929 . S
C3272 C3271 1.399 . S
C3272 C3273 1.385 . S
C3273 H3259 0.931 . S
C3273 C3272 1.385 . S
C3273 C3274 1.389 . S
C3274 C3273 1.389 . S
C3274 C3275 1.334 1_455 S
C3275 H3260 0.977 . S
C3275 C3270 1.397 1_655 S
C3275 C3274 1.334 1_655 S
H3276 C3288 0.930 . S
H3277 C3290 0.930 . S
H3278 C3291 0.930 . S
H3279 C3295 0.959 . S
H3280 C3295 0.959 . S
H3281 C3295 0.961 . S
H3282 C3296 0.960 . S
H3283 C3296 0.961 . S
H3284 C3296 0.959 . S
H3285 C3299 0.929 . S
H3286 C3300 0.931 . S
H3287 C3302 0.930 . S
C3288 H3276 0.930 . S
C3288 C3289 1.399 . S
C3288 C3293 1.399 . S
C3289 C3288 1.399 . S
C3289 C3290 1.376 . S
C3290 H3277 0.930 . S
C3290 C3289 1.376 . S
C3290 C3291 1.388 . S
C3291 H3278 0.930 . S
C3291 C3290 1.388 . S
C3291 C3292 1.390 . S
C3292 C3291 1.390 . S
C3292 C3293 1.394 . S
C3292 C3298 1.465 . S
C3293 C3288 1.399 . S
C3293 C3292 1.394 . S
C3293 C3294 1.516 . S
C3294 C3293 1.516 . S
C3294 C3295 1.502 . S
C3294 C3296 1.561 . S
C3294 C3297 1.526 . S
C3295 H3279 0.959 . S
C3295 H3280 0.959 . S
C3295 H3281 0.961 . S
C3295 C3294 1.502 . S
C3296 H3282 0.960 . S
C3296 H3283 0.961 . S
C3296 H3284 0.959 . S
C3296 C3294 1.561 . S
C3297 C3294 1.526 . S
C3297 C3298 1.396 . S
C3297 C3302 1.390 . S
C3298 C3292 1.465 . S
C3298 C3297 1.396 . S
C3298 C3299 1.399 . S
C3299 H3285 0.929 . S
C3299 C3298 1.399 . S
C3299 C3300 1.385 . S
C3300 H3286 0.931 . S
C3300 C3299 1.385 . S
C3300 C3301 1.389 . S
C3301 C3300 1.389 . S
C3301 C3302 1.387 . S
C3302 H3287 0.930 . S
C3302 C3297 1.390 . S
C3302 C3301 1.387 . S
H3303 C3315 0.930 . S
H3304 C3317 0.930 . S
H3305 C3318 0.930 . S
H3306 C3322 0.959 . S
H3307 C3322 0.959 . S
H3308 C3322 0.961 . S
H3309 C3323 0.960 . S
H3310 C3323 0.961 . S
H3311 C3323 0.959 . S
H3312 C3326 0.929 . S
H3313 C3327 0.931 . S
H3314 C3329 0.930 . S
C3315 H3303 0.930 . S
C3315 C3316 1.399 . S
C3315 C3320 1.399 . S
C3316 C3315 1.399 . S
C3316 C3317 1.376 . S
C3317 H3304 0.930 . S
C3317 C3316 1.376 . S
C3317 C3318 1.388 . S
C3318 H3305 0.930 . S
C3318 C3317 1.388 . S
C3318 C3319 1.390 . S
C3319 C3318 1.390 . S
C3319 C3320 1.394 . S
C3319 C3325 1.465 . S
C3320 C3315 1.399 . S
C3320 C3319 1.394 . S
C3320 C3321 1.516 . S
C3321 C3320 1.516 . S
C3321 C3322 1.502 . S
C3321 C3323 1.561 . S
C3321 C3324 1.526 . S
C3322 H3306 0.959 . S
C3322 H3307 0.959 . S
C3322 H3308 0.961 . S
C3322 C3321 1.502 . S
C3323 H3309 0.960 . S
C3323 H3310 0.961 . S
C3323 H3311 0.959 . S
C3323 C3321 1.561 . S
C3324 C3321 1.526 . S
C3324 C3325 1.396 . S
C3324 C3329 1.390 . S
C3325 C3319 1.465 . S
C3325 C3324 1.396 . S
C3325 C3326 1.399 . S
C3326 H3312 0.929 . S
C3326 C3325 1.399 . S
C3326 C3327 1.385 . S
C3327 H3313 0.931 . S
C3327 C3326 1.385 . S
C3327 C3328 1.389 . S
C3328 C3327 1.389 . S
C3328 C3329 1.387 . S
C3329 H3314 0.930 . S
C3329 C3324 1.390 . S
C3329 C3328 1.387 . S
H3330 C3342 0.930 . S
H3331 C3344 0.930 . S
H3332 C3345 0.930 . S
H3333 C3349 0.959 . S
H3334 C3349 0.959 . S
H3335 C3349 0.961 . S
H3336 C3350 0.960 . S
H3337 C3350 0.961 . S
H3338 C3350 0.959 . S
H3339 C3353 0.929 . S
H3340 C3354 0.931 . S
H3341 C3356 0.930 . S
C3342 H3330 0.930 . S
C3342 C3343 1.399 . S
C3342 C3347 1.399 . S
C3343 C3342 1.399 . S
C3343 C3344 1.376 . S
C3344 H3331 0.930 . S
C3344 C3343 1.376 . S
C3344 C3345 1.388 . S
C3345 H3332 0.930 . S
C3345 C3344 1.388 . S
C3345 C3346 1.390 . S
C3346 C3345 1.390 . S
C3346 C3347 1.394 . S
C3346 C3352 1.465 . S
C3347 C3342 1.399 . S
C3347 C3346 1.394 . S
C3347 C3348 1.516 . S
C3348 C3347 1.516 . S
C3348 C3349 1.502 . S
C3348 C3350 1.561 . S
C3348 C3351 1.526 . S
C3349 H3333 0.959 . S
C3349 H3334 0.959 . S
C3349 H3335 0.961 . S
C3349 C3348 1.502 . S
C3350 H3336 0.960 . S
C3350 H3337 0.961 . S
C3350 H3338 0.959 . S
C3350 C3348 1.561 . S
C3351 C3348 1.526 . S
C3351 C3352 1.396 . S
C3351 C3356 1.390 . S
C3352 C3346 1.465 . S
C3352 C3351 1.396 . S
C3352 C3353 1.399 . S
C3353 H3339 0.929 . S
C3353 C3352 1.399 . S
C3353 C3354 1.385 . S
C3354 H3340 0.931 . S
C3354 C3353 1.385 . S
C3354 C3355 1.389 . S
C3355 C3354 1.389 . S
C3355 C3356 1.387 . S
C3356 H3341 0.930 . S
C3356 C3351 1.390 . S
C3356 C3355 1.387 . S
H3357 C3369 0.930 . S
H3358 C3371 0.930 . S
H3359 C3372 0.930 . S
H3360 C3376 0.959 . S
H3361 C3376 0.959 . S
H3362 C3376 0.961 . S
H3363 C3377 0.960 . S
H3364 C3377 0.961 . S
H3365 C3377 0.959 . S
H3366 C3380 0.929 . S
H3367 C3381 0.931 . S
H3368 C3383 0.930 . S
C3369 H3357 0.930 . S
C3369 C3370 1.399 . S
C3369 C3374 1.399 . S
C3370 C3369 1.399 . S
C3370 C3371 1.376 . S
C3371 H3358 0.930 . S
C3371 C3370 1.376 . S
C3371 C3372 1.388 . S
C3372 H3359 0.930 . S
C3372 C3371 1.388 . S
C3372 C3373 1.390 . S
C3373 C3372 1.390 . S
C3373 C3374 1.394 . S
C3373 C3379 1.465 . S
C3374 C3369 1.399 . S
C3374 C3373 1.394 . S
C3374 C3375 1.516 . S
C3375 C3374 1.516 . S
C3375 C3376 1.502 . S
C3375 C3377 1.561 . S
C3375 C3378 1.526 . S
C3376 H3360 0.959 . S
C3376 H3361 0.959 . S
C3376 H3362 0.961 . S
C3376 C3375 1.502 . S
C3377 H3363 0.960 . S
C3377 H3364 0.961 . S
C3377 H3365 0.959 . S
C3377 C3375 1.561 . S
C3378 C3375 1.526 . S
C3378 C3379 1.396 . S
C3378 C3383 1.390 . S
C3379 C3373 1.465 . S
C3379 C3378 1.396 . S
C3379 C3380 1.399 . S
C3380 H3366 0.929 . S
C3380 C3379 1.399 . S
C3380 C3381 1.385 . S
C3381 H3367 0.931 . S
C3381 C3380 1.385 . S
C3381 C3382 1.389 . S
C3382 C3381 1.389 . S
C3382 C3383 1.387 . S
C3383 H3368 0.930 . S
C3383 C3378 1.390 . S
C3383 C3382 1.387 . S
H3384 C3396 0.912 1_565 S
H3385 C3398 0.930 . S
H3386 C3399 0.930 . S
H3387 C3403 0.959 . S
H3388 C3403 0.959 . S
H3389 C3403 0.961 . S
H3390 C3404 0.960 . S
H3391 C3404 0.961 . S
H3392 C3404 0.959 . S
H3393 C3407 0.929 . S
H3394 C3408 0.931 . S
H3395 C3410 0.930 . S
C3396 H3384 0.912 1_545 S
C3396 C3397 1.399 . S
C3396 C3401 1.399 . S
C3397 C3396 1.399 . S
C3397 C3398 1.376 . S
C3398 H3385 0.930 . S
C3398 C3397 1.376 . S
C3398 C3399 1.388 . S
C3399 H3386 0.930 . S
C3399 C3398 1.388 . S
C3399 C3400 1.390 . S
C3400 C3399 1.390 . S
C3400 C3401 1.394 . S
C3400 C3406 1.465 . S
C3401 C3396 1.399 . S
C3401 C3400 1.394 . S
C3401 C3402 1.516 1_545 S
C3402 C3401 1.516 1_565 S
C3402 C3403 1.502 . S
C3402 C3404 1.561 . S
C3402 C3405 1.526 1_565 S
C3403 H3387 0.959 . S
C3403 H3388 0.959 . S
C3403 H3389 0.961 . S
C3403 C3402 1.502 . S
C3404 H3390 0.960 . S
C3404 H3391 0.961 . S
C3404 H3392 0.959 . S
C3404 C3402 1.561 . S
C3405 C3402 1.526 1_545 S
C3405 C3406 1.396 . S
C3405 C3410 1.390 1_545 S
C3406 C3400 1.465 . S
C3406 C3405 1.396 . S
C3406 C3407 1.399 . S
C3407 H3393 0.929 . S
C3407 C3406 1.399 . S
C3407 C3408 1.385 . S
C3408 H3394 0.931 . S
C3408 C3407 1.385 . S
C3408 C3409 1.389 . S
C3409 C3408 1.389 . S
C3409 C3410 1.387 1_545 S
C3410 H3395 0.930 . S
C3410 C3405 1.390 1_565 S
C3410 C3409 1.387 1_565 S
H3411 C3423 0.930 . S
H3412 C3425 0.930 . S
H3413 C3426 0.930 . S
H3414 C3430 0.959 . S
H3415 C3430 0.959 . S
H3416 C3430 0.961 . S
H3417 C3431 0.960 . S
H3418 C3431 0.961 . S
H3419 C3431 0.959 1_455 S
H3420 C3434 0.929 . S
H3421 C3435 0.931 . S
H3422 C3437 0.930 . S
C3423 H3411 0.930 . S
C3423 C3424 1.399 . S
C3423 C3428 1.399 . S
C3424 C3423 1.399 . S
C3424 C3425 1.376 . S
C3425 H3412 0.930 . S
C3425 C3424 1.376 . S
C3425 C3426 1.388 . S
C3426 H3413 0.930 . S
C3426 C3425 1.388 . S
C3426 C3427 1.390 . S
C3427 C3426 1.390 . S
C3427 C3428 1.394 . S
C3427 C3433 1.465 . S
C3428 C3423 1.399 . S
C3428 C3427 1.394 . S
C3428 C3429 1.516 . S
C3429 C3428 1.516 . S
C3429 C3430 1.502 . S
C3429 C3431 1.561 . S
C3429 C3432 1.526 . S
C3430 H3414 0.959 . S
C3430 H3415 0.959 . S
C3430 H3416 0.961 . S
C3430 C3429 1.502 . S
C3431 H3417 0.960 . S
C3431 H3418 0.961 . S
C3431 H3419 0.959 1_655 S
C3431 C3429 1.561 . S
C3432 C3429 1.526 . S
C3432 C3433 1.396 . S
C3432 C3437 1.390 . S
C3433 C3427 1.465 . S
C3433 C3432 1.396 . S
C3433 C3434 1.399 . S
C3434 H3420 0.929 . S
C3434 C3433 1.399 . S
C3434 C3435 1.385 . S
C3435 H3421 0.931 . S
C3435 C3434 1.385 . S
C3435 C3436 1.389 . S
C3436 C3435 1.389 . S
C3436 C3437 1.387 . S
C3437 H3422 0.930 . S
C3437 C3432 1.390 . S
C3437 C3436 1.387 . S
H3438 C3450 0.930 . S
H3439 C3452 0.930 . S
H3440 C3453 0.930 . S
H3441 C3457 0.959 . S
H3442 C3457 0.959 . S
H3443 C3457 0.961 . S
H3444 C3458 0.960 . S
H3445 C3458 0.961 . S
H3446 C3458 0.959 . S
H3447 C3461 0.929 . S
H3448 C3462 0.931 . S
H3449 C3464 0.930 . S
C3450 H3438 0.930 . S
C3450 C3451 1.399 . S
C3450 C3455 1.399 . S
C3451 C3450 1.399 . S
C3451 C3452 1.376 . S
C3452 H3439 0.930 . S
C3452 C3451 1.376 . S
C3452 C3453 1.388 . S
C3453 H3440 0.930 . S
C3453 C3452 1.388 . S
C3453 C3454 1.390 . S
C3454 C3453 1.390 . S
C3454 C3455 1.394 . S
C3454 C3460 1.465 . S
C3455 C3450 1.399 . S
C3455 C3454 1.394 . S
C3455 C3456 1.516 . S
C3456 C3455 1.516 . S
C3456 C3457 1.502 . S
C3456 C3458 1.561 . S
C3456 C3459 1.526 . S
C3457 H3441 0.959 . S
C3457 H3442 0.959 . S
C3457 H3443 0.961 . S
C3457 C3456 1.502 . S
C3458 H3444 0.960 . S
C3458 H3445 0.961 . S
C3458 H3446 0.959 . S
C3458 C3456 1.561 . S
C3459 C3456 1.526 . S
C3459 C3460 1.396 . S
C3459 C3464 1.390 . S
C3460 C3454 1.465 . S
C3460 C3459 1.396 . S
C3460 C3461 1.399 . S
C3461 H3447 0.929 . S
C3461 C3460 1.399 . S
C3461 C3462 1.385 . S
C3462 H3448 0.931 . S
C3462 C3461 1.385 . S
C3462 C3463 1.389 . S
C3463 C3462 1.389 . S
C3463 C3464 1.387 . S
C3464 H3449 0.930 . S
C3464 C3459 1.390 . S
C3464 C3463 1.387 . S
H3465 C3477 0.930 . S
H3466 C3479 0.930 . S
H3467 C3480 0.930 . S
H3468 C3484 0.959 . S
H3469 C3484 0.959 . S
H3470 C3484 0.961 . S
H3471 C3485 0.960 . S
H3472 C3485 0.961 . S
H3473 C3485 0.959 . S
H3474 C3488 0.929 . S
H3475 C3489 0.931 . S
H3476 C3491 0.930 . S
C3477 H3465 0.930 . S
C3477 C3478 1.399 . S
C3477 C3482 1.399 . S
C3478 C3477 1.399 . S
C3478 C3479 1.376 . S
C3479 H3466 0.930 . S
C3479 C3478 1.376 . S
C3479 C3480 1.388 . S
C3480 H3467 0.930 . S
C3480 C3479 1.388 . S
C3480 C3481 1.390 . S
C3481 C3480 1.390 . S
C3481 C3482 1.394 . S
C3481 C3487 1.465 . S
C3482 C3477 1.399 . S
C3482 C3481 1.394 . S
C3482 C3483 1.516 . S
C3483 C3482 1.516 . S
C3483 C3484 1.502 . S
C3483 C3485 1.561 . S
C3483 C3486 1.526 . S
C3484 H3468 0.959 . S
C3484 H3469 0.959 . S
C3484 H3470 0.961 . S
C3484 C3483 1.502 . S
C3485 H3471 0.960 . S
C3485 H3472 0.961 . S
C3485 H3473 0.959 . S
C3485 C3483 1.561 . S
C3486 C3483 1.526 . S
C3486 C3487 1.396 . S
C3486 C3491 1.390 . S
C3487 C3481 1.465 . S
C3487 C3486 1.396 . S
C3487 C3488 1.399 . S
C3488 H3474 0.929 . S
C3488 C3487 1.399 . S
C3488 C3489 1.385 . S
C3489 H3475 0.931 . S
C3489 C3488 1.385 . S
C3489 C3490 1.389 . S
C3490 C3489 1.389 . S
C3490 C3491 1.387 . S
C3491 H3476 0.930 . S
C3491 C3486 1.390 . S
C3491 C3490 1.387 . S
H3492 C3504 0.930 . S
H3493 C3506 0.930 . S
H3494 C3507 0.930 . S
H3495 C3511 0.959 . S
H3496 C3511 0.959 . S
H3497 C3511 0.961 . S
H3498 C3512 0.960 . S
H3499 C3512 0.961 . S
H3500 C3512 0.959 . S
H3501 C3515 0.929 . S
H3502 C3516 0.931 . S
H3503 C3518 0.930 . S
C3504 H3492 0.930 . S
C3504 C3505 1.399 . S
C3504 C3509 1.399 . S
C3505 C3504 1.399 . S
C3505 C3506 1.376 . S
C3506 H3493 0.930 . S
C3506 C3505 1.376 . S
C3506 C3507 1.388 . S
C3507 H3494 0.930 . S
C3507 C3506 1.388 . S
C3507 C3508 1.390 . S
C3508 C3507 1.390 . S
C3508 C3509 1.394 . S
C3508 C3514 1.465 . S
C3509 C3504 1.399 . S
C3509 C3508 1.394 . S
C3509 C3510 1.516 . S
C3510 C3509 1.516 . S
C3510 C3511 1.502 . S
C3510 C3512 1.561 . S
C3510 C3513 1.526 . S
C3511 H3495 0.959 . S
C3511 H3496 0.959 . S
C3511 H3497 0.961 . S
C3511 C3510 1.502 . S
C3512 H3498 0.960 . S
C3512 H3499 0.961 . S
C3512 H3500 0.959 . S
C3512 C3510 1.561 . S
C3513 C3510 1.526 . S
C3513 C3514 1.396 . S
C3513 C3518 1.390 . S
C3514 C3508 1.465 . S
C3514 C3513 1.396 . S
C3514 C3515 1.399 . S
C3515 H3501 0.929 . S
C3515 C3514 1.399 . S
C3515 C3516 1.385 . S
C3516 H3502 0.931 . S
C3516 C3515 1.385 . S
C3516 C3517 1.389 . S
C3517 C3516 1.389 . S
C3517 C3518 1.387 . S
C3518 H3503 0.930 . S
C3518 C3513 1.390 . S
C3518 C3517 1.387 . S
H3519 C3531 0.930 . S
H3520 C3533 0.930 . S
H3521 C3534 0.930 . S
H3522 C3538 0.959 . S
H3523 C3538 0.959 . S
H3524 C3538 0.961 . S
H3525 C3539 0.960 . S
H3526 C3539 0.961 . S
H3527 C3539 0.959 . S
H3528 C3542 0.929 . S
H3529 C3543 0.931 . S
H3530 C3545 0.930 . S
C3531 H3519 0.930 . S
C3531 C3532 1.399 . S
C3531 C3536 1.399 . S
C3532 C3531 1.399 . S
C3532 C3533 1.376 . S
C3533 H3520 0.930 . S
C3533 C3532 1.376 . S
C3533 C3534 1.388 . S
C3534 H3521 0.930 . S
C3534 C3533 1.388 . S
C3534 C3535 1.390 . S
C3535 C3534 1.390 . S
C3535 C3536 1.394 . S
C3535 C3541 1.465 . S
C3536 C3531 1.399 . S
C3536 C3535 1.394 . S
C3536 C3537 1.516 . S
C3537 C3536 1.516 . S
C3537 C3538 1.502 . S
C3537 C3539 1.561 . S
C3537 C3540 1.526 . S
C3538 H3522 0.959 . S
C3538 H3523 0.959 . S
C3538 H3524 0.961 . S
C3538 C3537 1.502 . S
C3539 H3525 0.960 . S
C3539 H3526 0.961 . S
C3539 H3527 0.959 . S
C3539 C3537 1.561 . S
C3540 C3537 1.526 . S
C3540 C3541 1.396 . S
C3540 C3545 1.390 . S
C3541 C3535 1.465 . S
C3541 C3540 1.396 . S
C3541 C3542 1.399 . S
C3542 H3528 0.929 . S
C3542 C3541 1.399 . S
C3542 C3543 1.385 . S
C3543 H3529 0.931 . S
C3543 C3542 1.385 . S
C3543 C3544 1.389 . S
C3544 C3543 1.389 . S
C3544 C3545 1.387 . S
C3545 H3530 0.930 . S
C3545 C3540 1.390 . S
C3545 C3544 1.387 . S
H3546 C3558 0.930 . S
H3547 C3560 0.930 . S
H3548 C3561 0.930 . S
H3549 C3565 0.959 . S
H3550 C3565 0.959 . S
H3551 C3565 0.961 . S
H3552 C3566 0.960 . S
H3553 C3566 0.961 . S
H3554 C3566 0.959 . S
H3555 C3569 0.929 . S
H3556 C3570 0.931 . S
H3557 C3572 0.930 . S
C3558 H3546 0.930 . S
C3558 C3559 1.399 . S
C3558 C3563 1.399 . S
C3559 C3558 1.399 . S
C3559 C3560 1.376 . S
C3560 H3547 0.930 . S
C3560 C3559 1.376 . S
C3560 C3561 1.388 . S
C3561 H3548 0.930 . S
C3561 C3560 1.388 . S
C3561 C3562 1.390 . S
C3562 C3561 1.390 . S
C3562 C3563 1.394 . S
C3562 C3568 1.465 . S
C3563 C3558 1.399 . S
C3563 C3562 1.394 . S
C3563 C3564 1.516 . S
C3564 C3563 1.516 . S
C3564 C3565 1.502 . S
C3564 C3566 1.561 . S
C3564 C3567 1.526 . S
C3565 H3549 0.959 . S
C3565 H3550 0.959 . S
C3565 H3551 0.961 . S
C3565 C3564 1.502 . S
C3566 H3552 0.960 . S
C3566 H3553 0.961 . S
C3566 H3554 0.959 . S
C3566 C3564 1.561 . S
C3567 C3564 1.526 . S
C3567 C3568 1.396 . S
C3567 C3572 1.390 . S
C3568 C3562 1.465 . S
C3568 C3567 1.396 . S
C3568 C3569 1.399 . S
C3569 H3555 0.929 . S
C3569 C3568 1.399 . S
C3569 C3570 1.385 . S
C3570 H3556 0.931 . S
C3570 C3569 1.385 . S
C3570 C3571 1.389 . S
C3571 C3570 1.389 . S
C3571 C3572 1.387 . S
C3572 H3557 0.930 . S
C3572 C3567 1.390 . S
C3572 C3571 1.387 . S
H3573 C3585 0.930 . S
H3574 C3587 0.930 . S
H3575 C3588 0.930 . S
H3576 C3592 0.959 . S
H3577 C3592 0.959 . S
H3578 C3592 0.961 . S
H3579 C3593 0.960 . S
H3580 C3593 0.961 . S
H3581 C3593 0.959 . S
H3582 C3596 0.929 . S
H3583 C3597 0.931 . S
H3584 C3599 0.930 . S
C3585 H3573 0.930 . S
C3585 C3586 1.399 . S
C3585 C3590 1.399 . S
C3586 C3585 1.399 . S
C3586 C3587 1.376 . S
C3587 H3574 0.930 . S
C3587 C3586 1.376 . S
C3587 C3588 1.388 . S
C3588 H3575 0.930 . S
C3588 C3587 1.388 . S
C3588 C3589 1.390 . S
C3589 C3588 1.390 . S
C3589 C3590 1.394 . S
C3589 C3595 1.465 . S
C3590 C3585 1.399 . S
C3590 C3589 1.394 . S
C3590 C3591 1.516 . S
C3591 C3590 1.516 . S
C3591 C3592 1.502 . S
C3591 C3593 1.561 . S
C3591 C3594 1.526 . S
C3592 H3576 0.959 . S
C3592 H3577 0.959 . S
C3592 H3578 0.961 . S
C3592 C3591 1.502 . S
C3593 H3579 0.960 . S
C3593 H3580 0.961 . S
C3593 H3581 0.959 . S
C3593 C3591 1.561 . S
C3594 C3591 1.526 . S
C3594 C3595 1.396 . S
C3594 C3599 1.390 . S
C3595 C3589 1.465 . S
C3595 C3594 1.396 . S
C3595 C3596 1.399 . S
C3596 H3582 0.929 . S
C3596 C3595 1.399 . S
C3596 C3597 1.385 . S
C3597 H3583 0.931 . S
C3597 C3596 1.385 . S
C3597 C3598 1.389 . S
C3598 C3597 1.389 . S
C3598 C3599 1.387 . S
C3599 H3584 0.930 . S
C3599 C3594 1.390 . S
C3599 C3598 1.387 . S
H3600 C3612 0.930 . S
H3601 C3614 0.930 . S
H3602 C3615 0.930 . S
H3603 C3619 0.959 . S
H3604 C3619 0.959 . S
H3605 C3619 0.961 . S
H3606 C3620 0.960 . S
H3607 C3620 0.961 . S
H3608 C3620 0.959 . S
H3609 C3623 0.929 . S
H3610 C3624 0.931 . S
H3611 C3626 0.930 . S
C3612 H3600 0.930 . S
C3612 C3613 1.399 . S
C3612 C3617 1.399 . S
C3613 C3612 1.399 . S
C3613 C3614 1.376 . S
C3614 H3601 0.930 . S
C3614 C3613 1.376 . S
C3614 C3615 1.388 . S
C3615 H3602 0.930 . S
C3615 C3614 1.388 . S
C3615 C3616 1.390 . S
C3616 C3615 1.390 . S
C3616 C3617 1.394 . S
C3616 C3622 1.465 . S
C3617 C3612 1.399 . S
C3617 C3616 1.394 . S
C3617 C3618 1.516 . S
C3618 C3617 1.516 . S
C3618 C3619 1.502 . S
C3618 C3620 1.561 . S
C3618 C3621 1.526 . S
C3619 H3603 0.959 . S
C3619 H3604 0.959 . S
C3619 H3605 0.961 . S
C3619 C3618 1.502 . S
C3620 H3606 0.960 . S
C3620 H3607 0.961 . S
C3620 H3608 0.959 . S
C3620 C3618 1.561 . S
C3621 C3618 1.526 . S
C3621 C3622 1.396 . S
C3621 C3626 1.390 . S
C3622 C3616 1.465 . S
C3622 C3621 1.396 . S
C3622 C3623 1.399 . S
C3623 H3609 0.929 . S
C3623 C3622 1.399 . S
C3623 C3624 1.385 . S
C3624 H3610 0.931 . S
C3624 C3623 1.385 . S
C3624 C3625 1.389 . S
C3625 C3624 1.389 . S
C3625 C3626 1.387 . S
C3626 H3611 0.930 . S
C3626 C3621 1.390 . S
C3626 C3625 1.387 . S
H3627 C3639 0.930 . S
H3628 C3641 0.930 . S
H3629 C3642 0.930 1_455 S
H3630 C3646 0.959 . S
H3631 C3646 0.959 . S
H3632 C3646 0.961 . S
H3633 C3647 0.960 . S
H3634 C3647 0.961 . S
H3635 C3647 0.933 1_455 S
H3636 C3650 0.929 . S
H3637 C3651 0.931 . S
H3638 C3653 0.930 . S
C3639 H3627 0.930 . S
C3639 C3640 1.399 . S
C3639 C3644 1.399 . S
C3640 C3639 1.399 . S
C3640 C3641 1.376 . S
C3641 H3628 0.930 . S
C3641 C3640 1.376 . S
C3641 C3642 1.388 . S
C3642 H3629 0.930 1_655 S
C3642 C3641 1.388 . S
C3642 C3643 1.390 . S
C3643 C3642 1.390 . S
C3643 C3644 1.394 . S
C3643 C3649 1.465 . S
C3644 C3639 1.399 . S
C3644 C3643 1.394 . S
C3644 C3645 1.516 . S
C3645 C3644 1.516 . S
C3645 C3646 1.502 . S
C3645 C3647 1.561 . S
C3645 C3648 1.526 . S
C3646 H3630 0.959 . S
C3646 H3631 0.959 . S
C3646 H3632 0.961 . S
C3646 C3645 1.502 . S
C3647 H3633 0.960 . S
C3647 H3634 0.961 . S
C3647 H3635 0.933 1_655 S
C3647 C3645 1.561 . S
C3648 C3645 1.526 . S
C3648 C3649 1.396 . S
C3648 C3653 1.390 . S
C3649 C3643 1.465 . S
C3649 C3648 1.396 . S
C3649 C3650 1.399 1_655 S
C3650 H3636 0.929 . S
C3650 C3649 1.399 1_455 S
C3650 C3651 1.385 . S
C3651 H3637 0.931 . S
C3651 C3650 1.385 . S
C3651 C3652 1.389 1_455 S
C3652 C3651 1.389 1_655 S
C3652 C3653 1.387 . S
C3653 H3638 0.930 . S
C3653 C3648 1.390 . S
C3653 C3652 1.387 . S
H3654 C3666 0.930 . S
H3655 C3668 0.930 . S
H3656 C3669 0.930 . S
H3657 C3673 0.959 . S
H3658 C3673 0.959 . S
H3659 C3673 0.961 . S
H3660 C3674 0.960 . S
H3661 C3674 0.961 . S
H3662 C3674 0.959 . S
H3663 C3677 0.929 . S
H3664 C3678 0.931 . S
H3665 C3680 0.930 . S
C3666 H3654 0.930 . S
C3666 C3667 1.399 . S
C3666 C3671 1.399 . S
C3667 C3666 1.399 . S
C3667 C3668 1.376 . S
C3668 H3655 0.930 . S
C3668 C3667 1.376 . S
C3668 C3669 1.388 . S
C3669 H3656 0.930 . S
C3669 C3668 1.388 . S
C3669 C3670 1.390 . S
C3670 C3669 1.390 . S
C3670 C3671 1.394 . S
C3670 C3676 1.465 . S
C3671 C3666 1.399 . S
C3671 C3670 1.394 . S
C3671 C3672 1.516 . S
C3672 C3671 1.516 . S
C3672 C3673 1.502 . S
C3672 C3674 1.561 . S
C3672 C3675 1.526 . S
C3673 H3657 0.959 . S
C3673 H3658 0.959 . S
C3673 H3659 0.961 . S
C3673 C3672 1.502 . S
C3674 H3660 0.960 . S
C3674 H3661 0.961 . S
C3674 H3662 0.959 . S
C3674 C3672 1.561 . S
C3675 C3672 1.526 . S
C3675 C3676 1.396 . S
C3675 C3680 1.390 . S
C3676 C3670 1.465 . S
C3676 C3675 1.396 . S
C3676 C3677 1.399 . S
C3677 H3663 0.929 . S
C3677 C3676 1.399 . S
C3677 C3678 1.385 . S
C3678 H3664 0.931 . S
C3678 C3677 1.385 . S
C3678 C3679 1.389 . S
C3679 C3678 1.389 . S
C3679 C3680 1.387 . S
C3680 H3665 0.930 . S
C3680 C3675 1.390 . S
C3680 C3679 1.387 . S
H3681 C3693 0.966 . S
H3682 C3695 0.930 . S
H3683 C3696 0.930 . S
H3684 C3700 0.959 1_545 S
H3685 C3700 0.959 . S
H3686 C3700 0.961 . S
H3687 C3701 0.960 . S
H3688 C3701 0.961 . S
H3689 C3701 0.959 . S
H3690 C3704 0.929 . S
H3691 C3705 0.931 . S
H3692 C3707 0.967 . S
C3693 H3681 0.966 . S
C3693 C3694 1.399 . S
C3693 C3698 1.399 . S
C3694 C3693 1.399 . S
C3694 C3695 1.376 . S
C3695 H3682 0.930 . S
C3695 C3694 1.376 . S
C3695 C3696 1.388 . S
C3696 H3683 0.930 . S
C3696 C3695 1.388 . S
C3696 C3697 1.390 . S
C3697 C3696 1.390 . S
C3697 C3698 1.394 . S
C3697 C3703 1.465 . S
C3698 C3693 1.399 . S
C3698 C3697 1.394 . S
C3698 C3699 1.516 1_545 S
C3699 C3698 1.516 1_565 S
C3699 C3700 1.502 . S
C3699 C3701 1.561 . S
C3699 C3702 1.526 1_565 S
C3700 H3684 0.959 1_565 S
C3700 H3685 0.959 . S
C3700 H3686 0.961 . S
C3700 C3699 1.502 . S
C3701 H3687 0.960 . S
C3701 H3688 0.961 . S
C3701 H3689 0.959 . S
C3701 C3699 1.561 . S
C3702 C3699 1.526 1_545 S
C3702 C3703 1.396 . S
C3702 C3707 1.404 1_545 S
C3703 C3697 1.465 . S
C3703 C3702 1.396 . S
C3703 C3704 1.399 . S
C3704 H3690 0.929 . S
C3704 C3703 1.399 . S
C3704 C3705 1.385 . S
C3705 H3691 0.931 . S
C3705 C3704 1.385 . S
C3705 C3706 1.389 . S
C3706 C3705 1.389 . S
C3706 C3707 1.339 1_545 S
C3707 H3692 0.967 . S
C3707 C3702 1.404 1_565 S
C3707 C3706 1.339 1_565 S
C1777 C4 1.550 1_655 S
C1789 C1253 1.498 . S
C1804 C38 1.718 . S
C1816 C1297 1.724 . S
C1843 C1377 1.469 . S
C1831 C74 1.548 . S
C1858 C76 1.526 . S
C1870 C1421 1.490 . S
C1885 C2 1.614 . S
C1897 C1501 1.626 . S
C1912 C40 1.565 . S
C1924 C1563 1.552 . S
C1939 C110 1.655 . S
C1951 C1483 1.592 . S
C1978 C1545 1.546 . S
C1966 C148 1.577 . S
C2005 C1439 1.594 . S
C1993 C182 1.589 . S
C2020 C184 1.545 . S
C2032 C1359 1.523 . S
C2059 C1235 1.512 . S
C2047 C112 1.532 1_655 S
C2074 C146 1.668 . S
C2086 C1315 1.661 . S
C2101 C220 1.641 . S
C2113 C1625 1.543 . S
C2128 C254 1.767 . S
C2140 C1669 1.764 . S
C2167 C1749 1.631 . S
C2155 C290 1.665 . S
C2182 C292 1.566 . S
C2194 C695 1.544 . S
C2209 C218 1.726 . S
C2221 C739 1.652 . S
C2236 C256 1.597 . S
C2248 C819 1.539 . S
C2263 C326 1.722 . S
C2275 C757 1.646 . S
C2290 C364 1.623 . S
C2302 C801 1.509 . S
C2329 C677 1.634 . S
C2317 C398 1.729 . S
C2356 C1731 1.558 . S
C2344 C400 1.661 . S
C2383 C1607 1.467 . S
C2371 C328 1.540 . S
C2410 C1687 1.705 . S
C2398 C362 1.705 . S
C2425 C436 1.608 . S
C2437 C881 1.527 . S
C2452 C470 1.778 . S
C2464 C943 1.713 . S
C2479 C506 1.661 . S
C2491 C987 1.627 . S
C2506 C508 1.605 . S
C2518 C1049 1.549 . S
C2545 C1111 1.685 . S
C2533 C434 1.702 . S
C2572 C1191 1.582 . S
C2560 C472 1.599 . S
C2599 C1129 1.711 . S
C2587 C542 1.736 . S
C2626 C1173 1.525 . S
C2614 C580 1.614 . S
C2641 C614 1.721 . S
C2653 C1067 1.659 . S
C2680 C1005 1.601 . S
C2668 C616 1.605 . S
C2695 C544 1.572 . S
C2707 C863 1.513 . S
C2734 C925 1.649 . S
C2722 C578 1.685 . S
C2761 C701 1.479 . S
C2749 C14 1.539 . S
C2776 C39 1.549 . S
C2788 C745 1.446 . S
C2815 C825 1.396 . S
C2803 C75 1.544 . S
C2842 C887 1.311 . S
C2830 C86 1.380 . S
C2869 C949 1.442 . S
C2857 C3 1.568 . S
C2896 C993 1.507 . S
C2884 C50 1.534 . S
C2911 C111 1.548 . S
C2923 C1011 1.538 . S
C2938 C158 1.492 . S
C2950 C869 1.442 . S
C2965 C183 1.640 . S
C2977 C931 1.550 . S
C2992 C194 1.515 . S
C3004 C763 1.532 . S
C3031 C807 1.371 . S
C3019 C122 1.475 . S
C3046 C147 1.463 . S
C3058 C683 1.364 . S
C3085 C1055 1.510 . S
C3073 C230 1.568 . S
C3100 C255 1.606 . S
C3112 C1117 1.510 . S
C3127 C291 1.538 . S
C3139 C1197 1.510 . S
C3166 C1259 1.376 . S
C3154 C302 1.366 . S
C3181 C219 1.535 . S
C3193 C1303 1.528 . S
C3208 C266 1.450 . S
C3220 C1383 1.437 . S
C3235 C327 1.400 . S
C3247 C1365 1.372 . S
C3262 C374 1.367 . S
C3274 C1241 1.368 . S
C3301 C1321 1.522 . S
C3289 C399 1.615 . S
C3316 C410 1.551 . S
C3328 C1135 1.477 . S
C3343 C338 1.508 1_545 S
C3355 C1179 1.501 . S
C3382 C1073 1.461 . S
C3370 C363 1.580 . S
C3409 C1427 1.431 . S
C3397 C446 1.407 . S
C3424 C471 1.451 . S
C3436 C1507 1.443 . S
C3451 C507 1.507 . S
C3463 C1569 1.394 . S
C3490 C1631 1.320 . S
C3478 C518 1.403 . S
C3517 C1675 1.519 . S
C3505 C435 1.667 . S
C3532 C482 1.527 1_455 S
C3544 C1755 1.490 . S
C3559 C543 1.514 . S
C3571 C1737 1.487 . S
C3586 C590 1.499 1_565 S
C3598 C1613 1.487 . S
C3625 C1693 1.558 . S
C3613 C615 1.653 . S
C3652 C1489 1.381 . S
C3640 C626 1.439 . S
C3679 C1551 1.417 . S
C3667 C554 1.509 . S
C3694 C579 1.414 . S
C3706 C1445 1.332 . S
