# Generated by pormake.
# Topology rtl, (3,6)-cn, num edge types: 1
# Building blocks:
#     Node 0, Type 0, BuildingBlock: BETDAH_clean_linker_0, # of connection points: 3
#     Node 1, Type 0, BuildingBlock: BETDAH_clean_linker_0, # of connection points: 3
#     Node 2, Type 0, BuildingBlock: BETDAH_clean_linker_0, # of connection points: 3
#     Node 3, Type 0, BuildingBlock: BETDAH_clean_linker_0, # of connection points: 3
#     Node 4, Type 1, BuildingBlock: KUMBUR_clean_sbu_1, # of connection points: 6
#     Node 5, Type 1, BuildingBlock: KUMBUR_clean_sbu_1, # of connection points: 6
#     Edge 6, Type (0, 1), BuildingBlock: XIVTED_clean_linker_0, # of connection points: 2
#     Edge 7, Type (0, 1), BuildingBlock: XIVTED_clean_linker_0, # of connection points: 2
#     Edge 8, Type (0, 1), BuildingBlock: XIVTED_clean_linker_0, # of connection points: 2
#     Edge 9, Type (0, 1), BuildingBlock: XIVTED_clean_linker_0, # of connection points: 2
#     Edge 10, Type (0, 1), BuildingBlock: XIVTED_clean_linker_0, # of connection points: 2
#     Edge 11, Type (0, 1), BuildingBlock: XIVTED_clean_linker_0, # of connection points: 2
#     Edge 12, Type (0, 1), BuildingBlock: XIVTED_clean_linker_0, # of connection points: 2
#     Edge 13, Type (0, 1), BuildingBlock: XIVTED_clean_linker_0, # of connection points: 2
#     Edge 14, Type (0, 1), BuildingBlock: XIVTED_clean_linker_0, # of connection points: 2
#     Edge 15, Type (0, 1), BuildingBlock: XIVTED_clean_linker_0, # of connection points: 2
#     Edge 16, Type (0, 1), BuildingBlock: XIVTED_clean_linker_0, # of connection points: 2
#     Edge 17, Type (0, 1), BuildingBlock: XIVTED_clean_linker_0, # of connection points: 2
# Relax obj value: 0.049
# Max RMSD: 0.218
# Mean RMSD: 0.157
data_MOF--net-rtl--node1-KUMBUR_clean_sbu_1--node2-BETDAH_clean_linker_0--edge1-XIVTED_clean_linker_0
_symmetry_space_group_name_H-M    P1
_symmetry_Int_Tables_number       1
_symmetry_cell_setting            triclinic
loop_
_symmetry_equiv_pos_as_xyz
'x, y, z'
_cell_length_a     35.628587
_cell_length_b     35.674914
_cell_length_c     27.383354
_cell_angle_alpha  78.46578
_cell_angle_beta   100.90938
_cell_angle_gamma 91.048855
loop_
_atom_site_label
_atom_site_type_symbol
_atom_site_fract_x
_atom_site_fract_y
_atom_site_fract_z
_atom_type_partial_charge
H0 H 0.158 0.89849 0.99029 0.0
H1 H 0.2105 0.8076 0.11046 0.0
H2 H 0.22353 0.80972 0.95704 0.0
C3 C 0.17625 0.8731 0.0033 0.0
C4 C 0.19053 0.8568 0.96764 0.0
C5 C 0.18313 0.85573 0.05494 0.0
C6 C 0.20484 0.82153 0.07076 0.0
C7 C 0.22004 0.80518 0.03606 0.0
C8 C 0.21279 0.82279 0.98428 0.0
N9 N 0.24065 0.76995 0.05468 0.0
C10 C 0.2687 0.75637 0.03315 0.0
H11 H 0.6271 0.6591 0.63603 0.0
H12 H 0.72211 0.72171 0.58594 0.0
H13 H 0.71515 0.6976 0.74412 0.0
C14 C 0.65301 0.67494 0.64425 0.0
C15 C 0.66811 0.67711 0.69473 0.0
C16 C 0.67222 0.69071 0.60468 0.0
C17 C 0.70681 0.70984 0.61595 0.0
C18 C 0.72211 0.7124 0.66648 0.0
C19 C 0.70289 0.69569 0.70535 0.0
N20 N 0.75791 0.72922 0.68066 0.0
C21 C 0.77444 0.75858 0.65063 0.0
H22 H 0.86515 0.12486 0.09411 0.0
H23 H 0.78413 0.20065 0.12551 0.0
H24 H 0.7884 0.19499 0.97116 0.0
C25 C 0.84195 0.14582 0.08055 0.0
C26 C 0.82918 0.15831 0.02821 0.0
C27 C 0.8258 0.16067 0.11588 0.0
C28 C 0.79686 0.18923 0.09849 0.0
C29 C 0.78329 0.20141 0.04593 0.0
C30 C 0.79943 0.18574 0.01144 0.0
N31 N 0.75235 0.22789 0.02561 0.0
C32 C 0.73863 0.25387 0.05001 0.0
H33 H 0.39048 0.3654 0.46077 0.0
H34 H 0.29732 0.29889 0.51002 0.0
H35 H 0.30514 0.32409 0.35209 0.0
C36 C 0.36517 0.34875 0.45239 0.0
C37 C 0.35073 0.34615 0.40186 0.0
C38 C 0.34606 0.33214 0.49173 0.0
C39 C 0.31241 0.31164 0.48016 0.0
C40 C 0.29783 0.30864 0.42959 0.0
C41 C 0.31678 0.32636 0.39091 0.0
N42 N 0.26322 0.28982 0.41532 0.0
C43 C 0.24744 0.26036 0.44615 0.0
Tb44 Tb 0.03246 0.97295 0.50728 0.0
C45 C 0.94336 0.11968 0.50485 0.0
N46 N 0.97855 0.10869 0.53283 0.0
C47 C 1.00112 0.17237 0.51008 0.0
C48 C 0.93593 0.15745 0.47724 0.0
C49 C 0.00718 0.1345 0.5365 0.0
C50 C 0.9654 0.18387 0.4801 0.0
C51 C 0.87854 0.10247 0.47288 0.0
C52 C 0.9152 0.09239 0.50239 0.0
C53 C 0.87103 0.14 0.44499 0.0
C54 C 0.89964 0.16742 0.44719 0.0
Tb55 Tb 0.98539 0.04622 0.57388 0.0
N56 N 0.92384 0.05601 0.52883 0.0
C57 C 0.85038 0.07467 0.47283 0.0
C58 C 0.89538 0.02999 0.53243 0.0
C59 C 0.85866 0.03849 0.50352 0.0
H60 H 0.03445 0.12615 0.56063 0.0
H61 H 0.83652 0.01738 0.50587 0.0
H62 H 0.97555 0.89937 0.49475 0.0
H63 H 0.17919 0.98069 0.60296 0.0
H64 H 0.89995 1.00325 0.55901 0.0
H65 H 0.82186 0.08123 0.45069 0.0
H66 H 0.11904 0.00609 0.54739 0.0
H67 H 0.02397 0.19269 0.51301 0.0
H68 H 0.84311 0.14816 0.42186 0.0
H69 H 0.89342 0.19625 0.42548 0.0
H70 H 0.9771 0.82986 0.52919 0.0
H71 H 0.96085 0.21318 0.45946 0.0
H72 H 0.1862 0.91173 0.64169 0.0
N73 N 0.03131 0.90815 0.53418 0.0
C74 C 0.06394 0.8915 0.56411 0.0
C75 C 1.00163 0.84692 0.53967 0.0
C76 C 0.06642 0.85182 0.58397 0.0
C77 C 1.00056 0.88642 0.52092 0.0
C78 C 0.03462 0.82955 0.5716 0.0
N79 N 0.09057 0.95295 0.55709 0.0
C80 C 0.12089 0.97637 0.56515 0.0
C81 C 0.12898 0.89859 0.60702 0.0
C82 C 0.09476 0.91458 0.57553 0.0
C83 C 0.15942 0.92285 0.6176 0.0
C84 C 0.15547 0.96183 0.59608 0.0
H85 H 0.03537 0.79894 0.58609 0.0
H86 H 0.10283 0.80532 0.63139 0.0
H87 H 0.15761 0.84628 0.65156 0.0
O88 O 0.06657 0.98977 0.45231 0.0
O89 O 0.03801 0.95885 0.59018 0.0
O90 O 0.03781 0.01584 0.61817 0.0
O91 O 0.03055 0.941 0.44998 0.0
O92 O 0.05386 0.03183 0.50148 0.0
O93 O 0.04617 0.05522 0.57246 0.0
O94 O 0.95256 0.03707 0.63128 0.0
O95 O 0.98464 0.06024 0.49156 0.0
O96 O 0.97921 1.00265 0.46579 0.0
O97 O 0.9913 0.08363 0.62534 0.0
O98 O 0.9679 0.98589 0.58489 0.0
O99 O 0.97182 0.96565 0.51083 0.0
C100 C 0.04787 0.97956 0.62499 0.0
C101 C 0.04311 0.97524 0.37212 0.0
C102 C 0.05246 0.96995 0.28769 0.0
C103 C 0.02454 0.99901 0.26637 0.0
C104 C 0.01546 0.00421 0.35023 0.0
C105 C 0.00613 0.0159 0.29754 0.0
C106 C 0.06142 0.95812 0.34083 0.0
C107 C 0.06341 0.05491 0.5339 0.0
C108 C 0.05408 0.96312 0.42744 0.0
C109 C 0.1004 0.83575 0.61561 0.0
C110 C 0.1316 0.85907 0.62709 0.0
C111 C 0.97165 0.03953 0.45766 0.0
C112 C 0.98019 0.05635 0.70697 0.0
C113 C 0.96953 0.06121 0.79103 0.0
C114 C 1.00249 0.03825 0.8129 0.0
C115 C 0.01283 0.03345 0.72953 0.0
C116 C 0.95865 0.07022 0.73775 0.0
C117 C 0.02396 0.02454 0.78224 0.0
C118 C 0.95782 0.96283 0.55261 0.0
C119 C 0.9676 0.06514 0.65154 0.0
H120 H 0.01673 0.00846 0.2256 0.0
H121 H 1.00141 0.01791 0.37384 0.0
H122 H 0.98469 0.03823 0.28083 0.0
H123 H 0.08325 0.93617 0.35801 0.0
H124 H 0.01193 0.03123 0.8537 0.0
H125 H 0.02954 0.02241 0.70644 0.0
H126 H 0.93305 0.0874 0.72018 0.0
H127 H 0.04928 0.00691 0.79938 0.0
Tb128 Tb 0.47179 0.48575 0.00354 0.0
C129 C 0.63449 0.54974 0.08391 0.0
N130 N 0.61487 0.521 0.10782 0.0
C131 C 0.67268 0.48328 0.13862 0.0
C132 C 0.67406 0.54608 0.08567 0.0
C133 C 0.63345 0.48833 0.13591 0.0
C134 C 0.69306 0.5122 0.11319 0.0
C135 C 0.63369 0.61318 0.0312 0.0
C136 C 0.61463 0.58283 0.05706 0.0
C137 C 0.67313 0.6097 0.03273 0.0
C138 C 0.69326 0.57622 0.05987 0.0
Tb139 Tb 0.55085 0.53222 0.09926 0.0
N140 N 0.57615 0.58442 0.05455 0.0
C141 C 0.61243 0.64592 0.00423 0.0
C142 C 0.55557 0.61692 0.03014 0.0
C143 C 0.57327 0.6479 0.00409 0.0
H144 H 0.61814 0.4664 0.15701 0.0
H145 H 0.55672 0.67336 0.98407 0.0
H146 H 0.39286 0.539 0.97568 0.0
H147 H 0.50247 0.33895 0.10472 0.0
H148 H 0.52559 0.61918 0.03055 0.0
H149 H 0.62598 0.66989 0.98377 0.0
H150 H 0.51496 0.39866 0.04922 0.0
H151 H 0.68722 0.45721 0.16059 0.0
H152 H 0.6883 0.63266 0.01293 0.0
H153 H 0.72366 0.57392 0.06065 0.0
H154 H 0.32775 0.5338 0.99481 0.0
H155 H 0.72346 0.50822 0.1154 0.0
H156 H 0.4406 0.33022 0.13347 0.0
N157 N 0.41088 0.48374 0.01815 0.0
C158 C 0.4007 0.45041 0.04582 0.0
C159 C 0.34807 0.51022 0.00968 0.0
C160 C 0.36383 0.44604 0.05759 0.0
C161 C 0.38509 0.5133 0.99935 0.0
C162 C 0.33741 0.4765 0.03912 0.0
N163 N 0.46362 0.42697 0.05274 0.0
C164 C 0.48928 0.397 0.06457 0.0
C165 C 0.41885 0.38664 0.09419 0.0
C166 C 0.42808 0.42129 0.06423 0.0
C167 C 0.44653 0.35728 0.11042 0.0
C168 C 0.48162 0.36224 0.09469 0.0
H169 H 0.30879 0.47429 0.04733 0.0
H170 H 0.32667 0.40797 0.09777 0.0
H171 H 0.37476 0.35588 0.1296 0.0
O172 O 0.47335 0.44618 0.9564 0.0
O173 O 0.46056 0.49357 0.07744 0.0
O174 O 0.51879 0.48343 0.13108 0.0
O175 O 0.43292 0.49285 0.93373 0.0
O176 O 0.53162 0.46511 0.02013 0.0
O177 O 0.5526 0.47056 0.10315 0.0
O178 O 0.5361 0.57153 0.14059 0.0
O179 O 0.56143 0.53526 0.02213 0.0
O180 O 0.5037 0.53288 0.9667 0.0
O181 O 0.5841 0.53291 0.17142 0.0
O182 O 0.49414 0.56047 0.07255 0.0
O183 O 0.46497 0.54795 0.99375 0.0
C184 C 0.48136 0.48112 0.12265 0.0
C185 C 0.45557 0.47024 0.86901 0.0
C186 C 0.44936 0.45125 0.78693 0.0
C187 C 0.47556 0.47957 0.77313 0.0
C188 C 0.48173 0.4981 0.85446 0.0
C189 C 0.4915 0.50285 0.80668 0.0
C190 C 0.43922 0.44698 0.83504 0.0
C191 C 0.55605 0.45631 0.06353 0.0
C192 C 0.44678 0.46386 0.92041 0.0
C193 C 0.35478 0.4118 0.08805 0.0
C194 C 0.38223 0.3822 0.10634 0.0
C195 C 0.54002 0.54186 0.97646 0.0
C196 C 0.55258 0.55396 0.22959 0.0
C197 C 0.55931 0.57182 0.31234 0.0
C198 C 0.53099 0.54539 0.32436 0.0
C199 C 0.52442 0.52788 0.24224 0.0
C200 C 0.57011 0.57572 0.26474 0.0
C201 C 0.51379 0.52353 0.28952 0.0
C202 C 0.46946 0.56897 0.02907 0.0
C203 C 0.56331 0.55973 0.17946 0.0
H204 H 0.48355 0.4839 0.73618 0.0
H205 H 0.49485 0.5159 0.88017 0.0
H206 H 0.5117 0.5245 0.79575 0.0
H207 H 0.41946 0.42498 0.84655 0.0
H208 H 0.52238 0.54137 0.3609 0.0
H209 H 0.51056 0.51118 0.21545 0.0
H210 H 0.59153 0.59627 0.25455 0.0
H211 H 0.49206 0.50326 0.29911 0.0
H212 H 0.21413 0.25008 0.52978 0.0
H213 H 0.09806 0.07089 0.45127 0.0
H214 H 0.23196 0.19767 0.40712 0.0
H215 H 0.0996 0.10229 0.59596 0.0
H216 H 0.14651 0.11818 0.43473 0.0
H217 H 0.17182 0.19727 0.55559 0.0
C218 C 0.20955 0.22708 0.50892 0.0
C219 C 0.22649 0.22778 0.46659 0.0
C220 C 0.13637 0.11475 0.4702 0.0
C221 C 0.17794 0.16817 0.49483 0.0
C222 C 0.10856 0.08768 0.47971 0.0
C223 C 0.09411 0.08287 0.5248 0.0
C224 C 0.1499 0.13763 0.50577 0.0
C225 C 0.10926 0.10547 0.56021 0.0
C226 C 0.1854 0.19709 0.52345 0.0
C227 C 0.21948 0.19784 0.4402 0.0
N228 N 0.13604 0.13212 0.54974 0.0
N229 N 0.19553 0.16941 0.45449 0.0
H230 H 0.34052 0.75343 0.08507 0.0
H231 H 0.41512 0.60062 0.94504 0.0
H232 H 0.26933 0.71459 0.9601 0.0
H233 H 0.46397 0.61439 0.09713 0.0
H234 H 0.36788 0.65127 0.93952 0.0
H235 H 0.39293 0.71246 0.07832 0.0
C236 C 0.33632 0.73678 0.05548 0.0
C237 C 0.30093 0.73732 0.02292 0.0
C238 C 0.38911 0.64318 0.97393 0.0
C239 C 0.36028 0.68994 0.01541 0.0
C240 C 0.41599 0.61414 0.97728 0.0
C241 C 0.44303 0.60227 0.02219 0.0
C242 C 0.38985 0.66111 0.01532 0.0
C243 C 0.44347 0.62194 0.06195 0.0
C244 C 0.36607 0.71322 0.05185 0.0
C245 C 0.29649 0.71498 0.98563 0.0
N246 N 0.41727 0.65016 0.05761 0.0
N247 N 0.32585 0.69192 0.98298 0.0
H248 H 0.8025 0.81261 0.70118 0.0
H249 H 0.91218 0.92378 0.48711 0.0
H250 H 0.79817 0.77635 0.55939 0.0
H251 H 0.93711 0.93513 0.64387 0.0
H252 H 0.86538 0.87471 0.50814 0.0
H253 H 0.84575 0.86364 0.67553 0.0
C254 C 0.81044 0.81581 0.66428 0.0
C255 C 0.79686 0.79061 0.63217 0.0
C256 C 0.88125 0.88788 0.53788 0.0
C257 C 0.84665 0.84856 0.60262 0.0
C258 C 0.90817 0.91568 0.52602 0.0
C259 C 0.92921 0.93311 0.56398 0.0
C260 C 0.87482 0.87796 0.58787 0.0
C261 C 0.9218 0.92239 0.61338 0.0
C262 C 0.83528 0.84475 0.64975 0.0
C263 C 0.80806 0.79554 0.58496 0.0
N264 N 0.89529 0.89562 0.62381 0.0
N265 N 0.83245 0.82403 0.5715 0.0
H266 H 0.73592 0.32621 0.99936 0.0
H267 H 0.58585 0.39991 0.14491 0.0
H268 H 0.69654 0.25289 0.12389 0.0
H269 H 0.5963 0.44902 0.99104 0.0
H270 H 0.6355 0.35184 0.14814 0.0
H271 H 0.69491 0.37815 0.00726 0.0
C272 C 0.71914 0.32143 0.02912 0.0
C273 C 0.71956 0.2856 0.06124 0.0
C274 C 0.62703 0.37331 0.11386 0.0
C275 C 0.67218 0.34442 0.07004 0.0
C276 C 0.59892 0.40075 0.11208 0.0
C277 C 0.58708 0.42831 0.0676 0.0
C278 C 0.64367 0.37395 0.07111 0.0
C279 C 0.60451 0.42805 0.02591 0.0
C280 C 0.69555 0.3509 0.03335 0.0
C281 C 0.69705 0.28041 0.09874 0.0
N282 N 0.63198 0.4014 0.02872 0.0
N283 N 0.67402 0.30957 0.10206 0.0
H284 H 0.1771 0.93161 0.05885 0.0
H285 H 0.07001 0.8941 0.29581 0.0
H286 H 0.15071 0.81882 0.1346 0.0
H287 H 0.08103 0.00588 0.20466 0.0
H288 H 0.10374 0.86603 0.24136 0.0
H289 H 0.14614 0.95931 0.11603 0.0
C290 C 0.16475 0.91263 0.08745 0.0
C291 C 0.16637 0.87277 0.09161 0.0
C292 C 0.09876 0.89669 0.23326 0.0
C293 C 0.13113 0.9044 0.15774 0.0
C294 C 0.07967 0.91275 0.26447 0.0
C295 C 0.07261 0.95241 0.25472 0.0
C296 C 0.11114 0.92045 0.19214 0.0
C297 C 0.0854 0.97513 0.21321 0.0
C298 C 0.14717 0.92849 0.12023 0.0
C299 C 0.15053 0.84965 0.1302 0.0
N300 N 0.10409 0.95885 0.18355 0.0
N301 N 0.13349 0.8658 0.16164 0.0
H302 H 0.5911 0.67637 0.69598 0.0
H303 H 0.61579 0.54155 0.9721 0.0
H304 H 0.69999 0.63496 0.78828 0.0
H305 H 0.5064 0.58621 0.88484 0.0
H306 H 0.64673 0.57558 0.90461 0.0
H307 H 0.55923 0.64338 0.76374 0.0
C308 C 0.60833 0.66032 0.73045 0.0
C309 C 0.64835 0.65848 0.73636 0.0
C310 C 0.61595 0.57794 0.9 0.0
C311 C 0.61199 0.62078 0.81425 0.0
C312 C 0.59823 0.55859 0.93868 0.0
C313 C 0.55841 0.5611 0.93419 0.0
C314 C 0.59375 0.59992 0.85609 0.0
C315 C 0.53714 0.58321 0.88968 0.0
C316 C 0.5901 0.64162 0.76921 0.0
C317 C 0.66917 0.63765 0.78219 0.0
N318 N 0.55507 0.60177 0.85231 0.0
N319 N 0.65076 0.61957 0.8192 0.0
H320 H 0.85566 0.19936 0.19124 0.0
H321 H 0.91884 0.00564 0.39526 0.0
H322 H 0.82829 0.08625 0.16403 0.0
H323 H 0.96765 0.11518 0.41056 0.0
H324 H 0.87782 0.03625 0.31578 0.0
H325 H 0.88805 0.1707 0.2781 0.0
C326 C 0.85583 0.16859 0.20398 0.0
C327 C 0.83955 0.14504 0.1706 0.0
C328 C 0.89731 0.05369 0.33666 0.0
C329 C 0.87664 0.11216 0.26903 0.0
C330 C 0.92085 0.03618 0.38193 0.0
C331 C 0.94656 0.05794 0.40967 0.0
C332 C 0.89945 0.09331 0.31884 0.0
C333 C 0.94779 0.09746 0.39075 0.0
C334 C 0.87455 0.15223 0.25323 0.0
C335 C 0.84077 0.10532 0.18862 0.0
N336 N 0.92459 0.1139 0.34647 0.0
N337 N 0.85917 0.09014 0.23643 0.0
H338 H 0.41973 0.32626 0.54428 0.0
H339 H 0.37461 0.43053 0.76072 0.0
H340 H 0.30532 0.35469 0.55705 0.0
H341 H 0.48745 0.41509 0.73126 0.0
H342 H 0.34846 0.39371 0.69564 0.0
H343 H 0.44455 0.34882 0.62243 0.0
C344 C 0.39978 0.33685 0.56394 0.0
C345 C 0.36043 0.33905 0.54376 0.0
C346 C 0.37897 0.39814 0.70376 0.0
C347 C 0.3887 0.36528 0.63329 0.0
C348 C 0.39392 0.419 0.74101 0.0
C349 C 0.43321 0.42628 0.75097 0.0
C350 C 0.40356 0.38423 0.67661 0.0
C351 C 0.4569 0.41079 0.72416 0.0
C352 C 0.41396 0.34979 0.60855 0.0
C353 C 0.33585 0.35245 0.57129 0.0
N354 N 0.44171 0.39071 0.68815 0.0
N355 N 0.35042 0.36554 0.61433 0.0
H356 H 0.59852 0.6998 0.55261 0.0
H357 H 0.63524 0.58831 0.33896 0.0
H358 H 0.71088 0.66489 0.53967 0.0
H359 H 0.52396 0.60922 0.36974 0.0
H360 H 0.66394 0.6248 0.40316 0.0
H361 H 0.5715 0.67638 0.47577 0.0
C362 C 0.61758 0.68767 0.53309 0.0
C363 C 0.65695 0.68387 0.55288 0.0
C364 C 0.63323 0.62158 0.39561 0.0
C365 C 0.62615 0.65657 0.46501 0.0
C366 C 0.61682 0.60088 0.35887 0.0
C367 C 0.57716 0.59538 0.34932 0.0
C368 C 0.60978 0.63715 0.42273 0.0
C369 C 0.55471 0.61213 0.37647 0.0
C370 C 0.60213 0.67419 0.4893 0.0
C371 C 0.68038 0.66842 0.52567 0.0
N372 N 0.57132 0.6321 0.41195 0.0
N373 N 0.66456 0.65486 0.48344 0.0
H374 H 0.85186 0.08424 0.03322 0.0
H375 H 0.93701 0.13264 0.77753 0.0
H376 H 0.84769 0.1972 0.93902 0.0
H377 H 0.94971 0.02243 0.87921 0.0
H378 H 0.90045 0.15582 0.83305 0.0
H379 H 0.88436 0.06024 0.97442 0.0
C380 C 0.85785 0.10405 1.00024 0.0
C381 C 0.84721 0.1429 0.99131 0.0
C382 C 0.9112 0.12655 0.84318 0.0
C383 C 0.88414 0.11545 0.92337 0.0
C384 C 0.9319 0.11323 0.81134 0.0
C385 C 0.9466 0.07555 0.8238 0.0
C386 C 0.90499 0.102 0.88777 0.0
C387 C 0.93944 0.05184 0.86846 0.0
C388 C 0.87626 0.09027 0.96651 0.0
C389 C 0.85503 0.167 0.94728 0.0
N390 N 0.91919 0.06545 0.89879 0.0
N391 N 0.87313 0.15292 0.91509 0.0
H392 H 0.42762 0.34665 0.40095 0.0
H393 H 0.4071 0.48996 0.13167 0.0
H394 H 0.3191 0.38914 0.30874 0.0
H395 H 0.51204 0.42919 0.20849 0.0
H396 H 0.37501 0.45605 0.19847 0.0
H397 H 0.4598 0.37957 0.33346 0.0
C398 C 0.41057 0.36296 0.36653 0.0
C399 C 0.37058 0.36513 0.36053 0.0
C400 C 0.40504 0.45006 0.20076 0.0
C401 C 0.40724 0.4029 0.28304 0.0
C402 C 0.42334 0.4693 0.1625 0.0
C403 C 0.46215 0.46199 0.16415 0.0
C404 C 0.42584 0.42371 0.24155 0.0
C405 C 0.48205 0.43566 0.20569 0.0
C406 C 0.42893 0.38159 0.32791 0.0
C407 C 0.34992 0.38634 0.31484 0.0
N408 N 0.46368 0.41749 0.24276 0.0
N409 N 0.36848 0.40452 0.278 0.0
H410 H 0.19276 0.93213 0.92213 0.0
H411 H 0.05508 0.9033 0.66704 0.0
H412 H 0.16036 0.82143 0.88937 0.0
H413 H 0.09716 0.01327 0.69258 0.0
H414 H 0.09649 0.87259 0.74591 0.0
H415 H 0.16193 0.96207 0.83588 0.0
C416 C 0.17966 0.9141 0.89639 0.0
C417 C 0.17887 0.87427 0.91297 0.0
C418 C 0.0968 0.90343 0.73431 0.0
C419 C 0.14301 0.90834 0.81439 0.0
C420 C 0.07314 0.92102 0.68921 0.0
C421 C 0.07246 0.96097 0.67333 0.0
C422 C 0.11975 0.92594 0.76425 0.0
C423 C 0.09632 0.98244 0.70378 0.0
C424 C 0.16198 0.93119 0.84721 0.0
C425 C 0.16176 0.85221 0.87806 0.0
N426 N 0.11881 0.96468 0.74793 0.0
N427 N 0.14405 0.86959 0.83062 0.0
loop_
_geom_bond_atom_site_label_1
_geom_bond_atom_site_label_2
_geom_bond_distance
_geom_bond_site_symmetry_2
_ccdc_geom_bond_type
H0 C3 0.929 . S
H1 C6 0.929 . S
H2 C8 0.930 . S
C3 H0 0.929 . S
C3 C4 1.398 1_554 S
C3 C5 1.396 . S
C4 C3 1.398 1_556 S
C4 C8 1.407 . S
C5 C3 1.396 . S
C5 C6 1.394 . S
C6 H1 0.929 . S
C6 C5 1.394 . S
C6 C7 1.382 . S
C7 C6 1.382 . S
C7 C8 1.392 1_554 S
C7 N9 1.420 . S
C8 H2 0.930 . S
C8 C4 1.407 . S
C8 C7 1.392 1_556 S
N9 C7 1.420 . S
N9 C10 1.244 . S
C10 N9 1.244 . S
H11 C14 0.929 . S
H12 C17 0.929 . S
H13 C19 0.930 . S
C14 H11 0.929 . S
C14 C15 1.398 . S
C14 C16 1.396 . S
C15 C14 1.398 . S
C15 C19 1.407 . S
C16 C14 1.396 . S
C16 C17 1.394 . S
C17 H12 0.929 . S
C17 C16 1.394 . S
C17 C18 1.382 . S
C18 C17 1.382 . S
C18 C19 1.392 . S
C18 N20 1.420 . S
C19 H13 0.930 . S
C19 C15 1.407 . S
C19 C18 1.392 . S
N20 C18 1.420 . S
N20 C21 1.244 . S
C21 N20 1.244 . S
H22 C25 0.929 . S
H23 C28 0.929 . S
H24 C30 0.930 1_556 S
C25 H22 0.929 . S
C25 C26 1.398 . S
C25 C27 1.396 . S
C26 C25 1.398 . S
C26 C30 1.407 . S
C27 C25 1.396 . S
C27 C28 1.394 . S
C28 H23 0.929 . S
C28 C27 1.394 . S
C28 C29 1.382 . S
C29 C28 1.382 . S
C29 C30 1.392 . S
C29 N31 1.420 . S
C30 H24 0.930 1_554 S
C30 C26 1.407 . S
C30 C29 1.392 . S
N31 C29 1.420 . S
N31 C32 1.244 . S
C32 N31 1.244 . S
H33 C36 0.929 . S
H34 C39 0.929 . S
H35 C41 0.930 . S
C36 H33 0.929 . S
C36 C37 1.398 . S
C36 C38 1.396 . S
C37 C36 1.398 . S
C37 C41 1.407 . S
C38 C36 1.396 . S
C38 C39 1.394 . S
C39 H34 0.929 . S
C39 C38 1.394 . S
C39 C40 1.382 . S
C40 C39 1.382 . S
C40 C41 1.392 . S
C40 N42 1.420 . S
C41 H35 0.930 . S
C41 C37 1.407 . S
C41 C40 1.392 . S
N42 C40 1.420 . S
N42 C43 1.244 . S
C43 N42 1.244 . S
Tb44 N73 2.617 . S
Tb44 N79 2.572 . S
Tb44 O88 2.465 . S
Tb44 O89 2.387 . S
Tb44 O91 2.428 . S
Tb44 O92 2.308 1_565 S
Tb44 O96 2.349 1_465 S
Tb44 O99 2.393 1_455 S
Tb44 C108 2.802 . S
C45 N46 1.379 . S
C45 C48 1.416 . S
C45 C52 1.424 . S
N46 C45 1.379 . S
N46 C49 1.334 1_655 S
N46 Tb55 2.617 . S
C47 C49 1.390 . S
C47 C50 1.339 1_455 S
C47 H67 0.930 . S
C48 C45 1.416 . S
C48 C50 1.416 . S
C48 C54 1.448 . S
C49 N46 1.334 1_455 S
C49 C47 1.390 . S
C49 H60 0.930 . S
C50 C47 1.339 1_655 S
C50 C48 1.416 . S
C50 H71 0.930 . S
C51 C52 1.413 . S
C51 C53 1.427 . S
C51 C57 1.416 . S
C52 C45 1.424 . S
C52 C51 1.413 . S
C52 N56 1.361 . S
C53 C51 1.427 . S
C53 C54 1.328 . S
C53 H68 0.929 . S
C54 C48 1.448 . S
C54 C53 1.328 . S
C54 H69 0.930 . S
Tb55 N46 2.617 . S
Tb55 N56 2.572 . S
Tb55 O90 2.349 1_655 S
Tb55 O93 2.393 1_655 S
Tb55 O94 2.465 . S
Tb55 O95 2.387 . S
Tb55 O97 2.428 . S
Tb55 O98 2.308 1_545 S
Tb55 C119 2.802 . S
N56 C52 1.361 . S
N56 Tb55 2.572 . S
N56 C58 1.340 . S
C57 C51 1.416 . S
C57 C59 1.332 . S
C57 H65 0.931 . S
C58 N56 1.340 . S
C58 C59 1.407 . S
C58 H64 0.930 . S
C59 C57 1.332 . S
C59 C58 1.407 . S
C59 H61 0.929 . S
H60 C49 0.930 . S
H61 C59 0.929 . S
H62 C77 0.930 1_655 S
H63 C84 0.929 . S
H64 C58 0.930 . S
H65 C57 0.931 . S
H66 C80 0.930 . S
H67 C47 0.930 . S
H68 C53 0.929 . S
H69 C54 0.930 . S
H70 C75 0.930 1_655 S
H71 C50 0.930 . S
H72 C83 0.931 . S
N73 Tb44 2.617 . S
N73 C74 1.379 . S
N73 C77 1.334 . S
C74 N73 1.379 . S
C74 C76 1.416 . S
C74 C82 1.424 . S
C75 H70 0.930 1_455 S
C75 C77 1.390 . S
C75 C78 1.339 . S
C76 C74 1.416 . S
C76 C78 1.416 . S
C76 C109 1.448 . S
C77 H62 0.930 1_455 S
C77 N73 1.334 . S
C77 C75 1.390 . S
C78 C75 1.339 . S
C78 C76 1.416 . S
C78 H85 0.930 . S
N79 Tb44 2.572 . S
N79 C80 1.340 . S
N79 C82 1.361 . S
C80 H66 0.930 . S
C80 N79 1.340 . S
C80 C84 1.407 . S
C81 C82 1.413 . S
C81 C83 1.416 . S
C81 C110 1.427 . S
C82 C74 1.424 . S
C82 N79 1.361 . S
C82 C81 1.413 . S
C83 H72 0.931 . S
C83 C81 1.416 . S
C83 C84 1.332 . S
C84 H63 0.929 . S
C84 C80 1.407 . S
C84 C83 1.332 . S
H85 C78 0.930 . S
H86 C109 0.930 . S
H87 C110 0.929 . S
O88 Tb44 2.465 . S
O88 C108 1.264 . S
O89 Tb44 2.387 . S
O89 C100 1.264 . S
O90 Tb55 2.349 1_455 S
O90 C100 1.243 1_545 S
O91 Tb44 2.428 . S
O91 C108 1.256 . S
O92 Tb44 2.308 1_545 S
O92 C107 1.266 . S
O93 Tb55 2.393 1_455 S
O93 C107 1.248 . S
O94 Tb55 2.465 . S
O94 C119 1.264 . S
O95 Tb55 2.387 . S
O95 C111 1.264 . S
O96 Tb44 2.349 1_645 S
O96 C111 1.243 . S
O97 Tb55 2.428 . S
O97 C119 1.256 . S
O98 Tb55 2.308 1_565 S
O98 C118 1.266 . S
O99 Tb44 2.393 1_655 S
O99 C118 1.248 . S
C100 O89 1.264 . S
C100 O90 1.243 1_565 S
C101 C104 1.399 . S
C101 C106 1.383 . S
C101 C108 1.496 . S
C102 C103 1.399 . S
C102 C106 1.389 . S
C103 C102 1.399 . S
C103 C105 1.380 . S
C103 H120 0.929 . S
C104 C101 1.399 . S
C104 C105 1.392 . S
C104 H121 0.929 . S
C105 C103 1.380 . S
C105 C104 1.392 . S
C105 H122 0.929 . S
C106 C101 1.383 . S
C106 C102 1.389 . S
C106 H123 0.931 . S
C107 O92 1.266 . S
C107 O93 1.248 . S
C108 Tb44 2.802 . S
C108 O88 1.264 . S
C108 O91 1.256 . S
C108 C101 1.496 . S
C109 C76 1.448 . S
C109 H86 0.930 . S
C109 C110 1.328 . S
C110 C81 1.427 . S
C110 H87 0.929 . S
C110 C109 1.328 . S
C111 O95 1.264 . S
C111 O96 1.243 . S
C112 C115 1.399 . S
C112 C116 1.383 . S
C112 C119 1.496 . S
C113 C114 1.399 . S
C113 C116 1.389 . S
C114 C113 1.399 . S
C114 C117 1.380 . S
C114 H124 0.929 . S
C115 C112 1.399 . S
C115 C117 1.392 . S
C115 H125 0.929 . S
C116 C112 1.383 . S
C116 C113 1.389 . S
C116 H126 0.931 . S
C117 C114 1.380 . S
C117 C115 1.392 . S
C117 H127 0.929 . S
C118 O98 1.266 . S
C118 O99 1.248 . S
C119 Tb55 2.802 . S
C119 O94 1.264 . S
C119 O97 1.256 . S
C119 C112 1.496 . S
H120 C103 0.929 . S
H121 C104 0.929 . S
H122 C105 0.929 . S
H123 C106 0.931 . S
H124 C114 0.929 . S
H125 C115 0.929 . S
H126 C116 0.931 . S
H127 C117 0.929 . S
Tb128 N157 2.620 . S
Tb128 N163 2.573 . S
Tb128 O172 2.455 1_554 S
Tb128 O173 2.398 . S
Tb128 O175 2.417 1_554 S
Tb128 O176 2.310 . S
Tb128 O180 2.343 1_554 S
Tb128 O183 2.397 . S
Tb128 C192 2.791 1_554 S
C129 N130 1.379 . S
C129 C132 1.416 . S
C129 C136 1.424 . S
N130 C129 1.379 . S
N130 C133 1.334 . S
N130 Tb139 2.617 . S
C131 C133 1.390 . S
C131 C134 1.339 . S
C131 H151 0.930 . S
C132 C129 1.416 . S
C132 C134 1.416 . S
C132 C138 1.448 . S
C133 N130 1.334 . S
C133 C131 1.390 . S
C133 H144 0.930 . S
C134 C131 1.339 . S
C134 C132 1.416 . S
C134 H155 0.930 . S
C135 C136 1.413 . S
C135 C137 1.427 . S
C135 C141 1.416 . S
C136 C129 1.424 . S
C136 C135 1.413 . S
C136 N140 1.361 . S
C137 C135 1.427 . S
C137 C138 1.328 . S
C137 H152 0.929 . S
C138 C132 1.448 . S
C138 C137 1.328 . S
C138 H153 0.930 . S
Tb139 N130 2.617 . S
Tb139 N140 2.572 . S
Tb139 O174 2.349 . S
Tb139 O177 2.393 . S
Tb139 O178 2.465 . S
Tb139 O179 2.387 . S
Tb139 O181 2.428 . S
Tb139 O182 2.308 . S
Tb139 C203 2.802 . S
N140 C136 1.361 . S
N140 Tb139 2.572 . S
N140 C142 1.340 . S
C141 C135 1.416 . S
C141 C143 1.332 . S
C141 H149 0.931 . S
C142 N140 1.340 . S
C142 C143 1.407 . S
C142 H148 0.930 . S
C143 C141 1.332 . S
C143 C142 1.407 . S
C143 H145 0.929 . S
H144 C133 0.930 . S
H145 C143 0.929 . S
H146 C161 0.930 . S
H147 C168 0.929 . S
H148 C142 0.930 . S
H149 C141 0.931 . S
H150 C164 0.930 . S
H151 C131 0.930 . S
H152 C137 0.929 . S
H153 C138 0.930 . S
H154 C159 0.930 1_556 S
H155 C134 0.930 . S
H156 C167 0.931 . S
N157 Tb128 2.620 . S
N157 C158 1.379 . S
N157 C161 1.334 1_554 S
C158 N157 1.379 . S
C158 C160 1.416 . S
C158 C166 1.424 . S
C159 H154 0.930 1_554 S
C159 C161 1.390 1_554 S
C159 C162 1.338 . S
C160 C158 1.416 . S
C160 C162 1.416 . S
C160 C193 1.448 . S
C161 H146 0.930 . S
C161 N157 1.334 1_556 S
C161 C159 1.390 1_556 S
C162 C159 1.338 . S
C162 C160 1.416 . S
C162 H169 0.930 . S
N163 Tb128 2.573 . S
N163 C164 1.340 . S
N163 C166 1.361 . S
C164 H150 0.930 . S
C164 N163 1.340 . S
C164 C168 1.407 . S
C165 C166 1.413 . S
C165 C167 1.416 . S
C165 C194 1.427 . S
C166 C158 1.424 . S
C166 N163 1.361 . S
C166 C165 1.413 . S
C167 H156 0.931 . S
C167 C165 1.416 . S
C167 C168 1.332 . S
C168 H147 0.929 . S
C168 C164 1.407 . S
C168 C167 1.332 . S
H169 C162 0.930 . S
H170 C193 0.930 . S
H171 C194 0.929 . S
O172 Tb128 2.455 1_556 S
O172 C192 1.264 . S
O173 Tb128 2.398 . S
O173 C184 1.264 . S
O174 Tb139 2.349 . S
O174 C184 1.243 . S
O175 Tb128 2.417 1_556 S
O175 C192 1.256 . S
O176 Tb128 2.310 . S
O176 C191 1.266 . S
O177 Tb139 2.393 . S
O177 C191 1.248 . S
O178 Tb139 2.465 . S
O178 C203 1.264 . S
O179 Tb139 2.387 . S
O179 C195 1.264 1_554 S
O180 Tb128 2.343 1_556 S
O180 C195 1.243 . S
O181 Tb139 2.428 . S
O181 C203 1.256 . S
O182 Tb139 2.308 . S
O182 C202 1.266 . S
O183 Tb128 2.397 . S
O183 C202 1.248 . S
C184 O173 1.264 . S
C184 O174 1.243 . S
C185 C188 1.399 . S
C185 C190 1.383 . S
C185 C192 1.496 . S
C186 C187 1.399 . S
C186 C190 1.389 . S
C187 C186 1.399 . S
C187 C189 1.380 . S
C187 H204 0.929 . S
C188 C185 1.399 . S
C188 C189 1.392 . S
C188 H205 0.929 . S
C189 C187 1.380 . S
C189 C188 1.392 . S
C189 H206 0.929 . S
C190 C185 1.383 . S
C190 C186 1.389 . S
C190 H207 0.931 . S
C191 O176 1.266 . S
C191 O177 1.248 . S
C192 Tb128 2.791 1_556 S
C192 O172 1.264 . S
C192 O175 1.256 . S
C192 C185 1.496 . S
C193 C160 1.448 . S
C193 H170 0.930 . S
C193 C194 1.328 . S
C194 C165 1.427 . S
C194 H171 0.929 . S
C194 C193 1.328 . S
C195 O179 1.264 1_556 S
C195 O180 1.243 . S
C196 C199 1.399 . S
C196 C200 1.383 . S
C196 C203 1.496 . S
C197 C198 1.399 . S
C197 C200 1.389 . S
C198 C197 1.399 . S
C198 C201 1.380 . S
C198 H208 0.929 . S
C199 C196 1.399 . S
C199 C201 1.392 . S
C199 H209 0.929 . S
C200 C196 1.383 . S
C200 C197 1.389 . S
C200 H210 0.931 . S
C201 C198 1.380 . S
C201 C199 1.392 . S
C201 H211 0.929 . S
C202 O182 1.266 . S
C202 O183 1.248 . S
C203 Tb139 2.802 . S
C203 O178 1.264 . S
C203 O181 1.256 . S
C203 C196 1.496 . S
H204 C187 0.929 . S
H205 C188 0.929 . S
H206 C189 0.929 . S
H207 C190 0.931 . S
H208 C198 0.929 . S
H209 C199 0.929 . S
H210 C200 0.931 . S
H211 C201 0.929 . S
H212 C218 0.930 . S
H213 C222 0.930 . S
H214 C227 0.929 . S
H215 C225 0.929 . S
H216 C220 0.929 . S
H217 C226 0.929 . S
C218 H212 0.930 . S
C218 C219 1.367 . S
C218 C226 1.378 . S
C219 C218 1.367 . S
C219 C227 1.433 . S
C220 H216 0.929 . S
C220 C222 1.378 . S
C220 C224 1.350 . S
C221 C224 1.463 . S
C221 C226 1.350 . S
C221 N229 1.427 . S
C222 H213 0.930 . S
C222 C220 1.378 . S
C222 C223 1.367 . S
C223 C222 1.367 . S
C223 C225 1.433 . S
C224 C220 1.350 . S
C224 C221 1.463 . S
C224 N228 1.427 . S
C225 H215 0.929 . S
C225 C223 1.433 . S
C225 N228 1.384 . S
C226 H217 0.929 . S
C226 C218 1.378 . S
C226 C221 1.350 . S
C227 H214 0.929 . S
C227 C219 1.433 . S
C227 N229 1.384 . S
N228 C224 1.427 . S
N228 C225 1.384 . S
N229 C221 1.427 . S
N229 C227 1.384 . S
H230 C236 0.930 . S
H231 C240 0.930 1_556 S
H232 C245 0.929 1_556 S
H233 C243 0.929 . S
H234 C238 0.929 1_556 S
H235 C244 0.929 . S
C236 H230 0.930 . S
C236 C237 1.367 . S
C236 C244 1.378 . S
C237 C236 1.367 . S
C237 C245 1.433 . S
C238 H234 0.929 1_554 S
C238 C240 1.378 . S
C238 C242 1.350 . S
C239 C242 1.463 . S
C239 C244 1.350 . S
C239 N247 1.427 . S
C240 H231 0.930 1_554 S
C240 C238 1.378 . S
C240 C241 1.367 . S
C241 C240 1.367 . S
C241 C243 1.433 . S
C242 C238 1.350 . S
C242 C239 1.463 . S
C242 N246 1.427 . S
C243 H233 0.929 . S
C243 C241 1.433 . S
C243 N246 1.384 . S
C244 H235 0.929 . S
C244 C236 1.378 . S
C244 C239 1.350 . S
C245 H232 0.929 1_554 S
C245 C237 1.433 . S
C245 N247 1.384 . S
N246 C242 1.427 . S
N246 C243 1.384 . S
N247 C239 1.427 . S
N247 C245 1.384 . S
H248 C254 0.930 . S
H249 C258 0.930 . S
H250 C263 0.929 . S
H251 C261 0.929 . S
H252 C256 0.929 . S
H253 C262 0.929 . S
C254 H248 0.930 . S
C254 C255 1.367 . S
C254 C262 1.378 . S
C255 C254 1.367 . S
C255 C263 1.433 . S
C256 H252 0.929 . S
C256 C258 1.378 . S
C256 C260 1.350 . S
C257 C260 1.463 . S
C257 C262 1.350 . S
C257 N265 1.427 . S
C258 H249 0.930 . S
C258 C256 1.378 . S
C258 C259 1.367 . S
C259 C258 1.367 . S
C259 C261 1.433 . S
C260 C256 1.350 . S
C260 C257 1.463 . S
C260 N264 1.427 . S
C261 H251 0.929 . S
C261 C259 1.433 . S
C261 N264 1.384 . S
C262 H253 0.929 . S
C262 C254 1.378 . S
C262 C257 1.350 . S
C263 H250 0.929 . S
C263 C255 1.433 . S
C263 N265 1.384 . S
N264 C260 1.427 . S
N264 C261 1.384 . S
N265 C257 1.427 . S
N265 C263 1.384 . S
H266 C272 0.930 . S
H267 C276 0.930 . S
H268 C281 0.929 . S
H269 C279 0.929 . S
H270 C274 0.929 . S
H271 C280 0.929 . S
C272 H266 0.930 . S
C272 C273 1.367 . S
C272 C280 1.378 . S
C273 C272 1.367 . S
C273 C281 1.433 . S
C274 H270 0.929 . S
C274 C276 1.378 . S
C274 C278 1.350 . S
C275 C278 1.463 . S
C275 C280 1.350 . S
C275 N283 1.427 . S
C276 H267 0.930 . S
C276 C274 1.378 . S
C276 C277 1.367 . S
C277 C276 1.367 . S
C277 C279 1.433 . S
C278 C274 1.350 . S
C278 C275 1.463 . S
C278 N282 1.427 . S
C279 H269 0.929 . S
C279 C277 1.433 . S
C279 N282 1.384 . S
C280 H271 0.929 . S
C280 C272 1.378 . S
C280 C275 1.350 . S
C281 H268 0.929 . S
C281 C273 1.433 . S
C281 N283 1.384 . S
N282 C278 1.427 . S
N282 C279 1.384 . S
N283 C275 1.427 . S
N283 C281 1.384 . S
H284 C290 0.930 . S
H285 C294 0.930 . S
H286 C299 0.929 . S
H287 C297 0.929 1_545 S
H288 C292 0.929 . S
H289 C298 0.929 . S
C290 H284 0.930 . S
C290 C291 1.367 . S
C290 C298 1.378 . S
C291 C290 1.367 . S
C291 C299 1.433 . S
C292 H288 0.929 . S
C292 C294 1.378 . S
C292 C296 1.350 . S
C293 C296 1.463 . S
C293 C298 1.350 . S
C293 N301 1.427 . S
C294 H285 0.930 . S
C294 C292 1.378 . S
C294 C295 1.367 . S
C295 C294 1.367 . S
C295 C297 1.433 . S
C296 C292 1.350 . S
C296 C293 1.463 . S
C296 N300 1.427 . S
C297 H287 0.929 1_565 S
C297 C295 1.433 . S
C297 N300 1.384 . S
C298 H289 0.929 . S
C298 C290 1.378 . S
C298 C293 1.350 . S
C299 H286 0.929 . S
C299 C291 1.433 . S
C299 N301 1.384 . S
N300 C296 1.427 . S
N300 C297 1.384 . S
N301 C293 1.427 . S
N301 C299 1.384 . S
H302 C308 0.930 . S
H303 C312 0.930 . S
H304 C317 0.929 . S
H305 C315 0.929 . S
H306 C310 0.929 . S
H307 C316 0.929 . S
C308 H302 0.930 . S
C308 C309 1.367 . S
C308 C316 1.378 . S
C309 C308 1.367 . S
C309 C317 1.433 . S
C310 H306 0.929 . S
C310 C312 1.378 . S
C310 C314 1.350 . S
C311 C314 1.463 . S
C311 C316 1.350 . S
C311 N319 1.427 . S
C312 H303 0.930 . S
C312 C310 1.378 . S
C312 C313 1.367 . S
C313 C312 1.367 . S
C313 C315 1.433 . S
C314 C310 1.350 . S
C314 C311 1.463 . S
C314 N318 1.427 . S
C315 H305 0.929 . S
C315 C313 1.433 . S
C315 N318 1.384 . S
C316 H307 0.929 . S
C316 C308 1.378 . S
C316 C311 1.350 . S
C317 H304 0.929 . S
C317 C309 1.433 . S
C317 N319 1.384 . S
N318 C314 1.427 . S
N318 C315 1.384 . S
N319 C311 1.427 . S
N319 C317 1.384 . S
H320 C326 0.930 . S
H321 C330 0.930 . S
H322 C335 0.929 . S
H323 C333 0.929 . S
H324 C328 0.929 . S
H325 C334 0.929 . S
C326 H320 0.930 . S
C326 C327 1.367 . S
C326 C334 1.378 . S
C327 C326 1.367 . S
C327 C335 1.433 . S
C328 H324 0.929 . S
C328 C330 1.378 . S
C328 C332 1.350 . S
C329 C332 1.463 . S
C329 C334 1.350 . S
C329 N337 1.427 . S
C330 H321 0.930 . S
C330 C328 1.378 . S
C330 C331 1.367 . S
C331 C330 1.367 . S
C331 C333 1.433 . S
C332 C328 1.350 . S
C332 C329 1.463 . S
C332 N336 1.427 . S
C333 H323 0.929 . S
C333 C331 1.433 . S
C333 N336 1.384 . S
C334 H325 0.929 . S
C334 C326 1.378 . S
C334 C329 1.350 . S
C335 H322 0.929 . S
C335 C327 1.433 . S
C335 N337 1.384 . S
N336 C332 1.427 . S
N336 C333 1.384 . S
N337 C329 1.427 . S
N337 C335 1.384 . S
H338 C344 0.930 . S
H339 C348 0.930 . S
H340 C353 0.929 . S
H341 C351 0.929 . S
H342 C346 0.929 . S
H343 C352 0.929 . S
C344 H338 0.930 . S
C344 C345 1.367 . S
C344 C352 1.378 . S
C345 C344 1.367 . S
C345 C353 1.433 . S
C346 H342 0.929 . S
C346 C348 1.378 . S
C346 C350 1.350 . S
C347 C350 1.463 . S
C347 C352 1.350 . S
C347 N355 1.427 . S
C348 H339 0.930 . S
C348 C346 1.378 . S
C348 C349 1.367 . S
C349 C348 1.367 . S
C349 C351 1.433 . S
C350 C346 1.350 . S
C350 C347 1.463 . S
C350 N354 1.427 . S
C351 H341 0.929 . S
C351 C349 1.433 . S
C351 N354 1.384 . S
C352 H343 0.929 . S
C352 C344 1.378 . S
C352 C347 1.350 . S
C353 H340 0.929 . S
C353 C345 1.433 . S
C353 N355 1.384 . S
N354 C350 1.427 . S
N354 C351 1.384 . S
N355 C347 1.427 . S
N355 C353 1.384 . S
H356 C362 0.930 . S
H357 C366 0.930 . S
H358 C371 0.929 . S
H359 C369 0.929 . S
H360 C364 0.929 . S
H361 C370 0.929 . S
C362 H356 0.930 . S
C362 C363 1.367 . S
C362 C370 1.378 . S
C363 C362 1.367 . S
C363 C371 1.433 . S
C364 H360 0.929 . S
C364 C366 1.378 . S
C364 C368 1.350 . S
C365 C368 1.463 . S
C365 C370 1.350 . S
C365 N373 1.427 . S
C366 H357 0.930 . S
C366 C364 1.378 . S
C366 C367 1.367 . S
C367 C366 1.367 . S
C367 C369 1.433 . S
C368 C364 1.350 . S
C368 C365 1.463 . S
C368 N372 1.427 . S
C369 H359 0.929 . S
C369 C367 1.433 . S
C369 N372 1.384 . S
C370 H361 0.929 . S
C370 C362 1.378 . S
C370 C365 1.350 . S
C371 H358 0.929 . S
C371 C363 1.433 . S
C371 N373 1.384 . S
N372 C368 1.427 . S
N372 C369 1.384 . S
N373 C365 1.427 . S
N373 C371 1.384 . S
H374 C380 0.930 1_554 S
H375 C384 0.930 . S
H376 C389 0.929 . S
H377 C387 0.929 . S
H378 C382 0.929 . S
H379 C388 0.929 . S
C380 H374 0.930 1_556 S
C380 C381 1.367 . S
C380 C388 1.378 . S
C381 C380 1.367 . S
C381 C389 1.433 . S
C382 H378 0.929 . S
C382 C384 1.378 . S
C382 C386 1.350 . S
C383 C386 1.463 . S
C383 C388 1.350 . S
C383 N391 1.427 . S
C384 H375 0.930 . S
C384 C382 1.378 . S
C384 C385 1.367 . S
C385 C384 1.367 . S
C385 C387 1.433 . S
C386 C382 1.350 . S
C386 C383 1.463 . S
C386 N390 1.427 . S
C387 H377 0.929 . S
C387 C385 1.433 . S
C387 N390 1.384 . S
C388 H379 0.929 . S
C388 C380 1.378 . S
C388 C383 1.350 . S
C389 H376 0.929 . S
C389 C381 1.433 . S
C389 N391 1.384 . S
N390 C386 1.427 . S
N390 C387 1.384 . S
N391 C383 1.427 . S
N391 C389 1.384 . S
H392 C398 0.930 . S
H393 C402 0.930 . S
H394 C407 0.929 . S
H395 C405 0.929 . S
H396 C400 0.929 . S
H397 C406 0.929 . S
C398 H392 0.930 . S
C398 C399 1.367 . S
C398 C406 1.378 . S
C399 C398 1.367 . S
C399 C407 1.433 . S
C400 H396 0.929 . S
C400 C402 1.378 . S
C400 C404 1.350 . S
C401 C404 1.463 . S
C401 C406 1.350 . S
C401 N409 1.427 . S
C402 H393 0.930 . S
C402 C400 1.378 . S
C402 C403 1.367 . S
C403 C402 1.367 . S
C403 C405 1.433 . S
C404 C400 1.350 . S
C404 C401 1.463 . S
C404 N408 1.427 . S
C405 H395 0.929 . S
C405 C403 1.433 . S
C405 N408 1.384 . S
C406 H397 0.929 . S
C406 C398 1.378 . S
C406 C401 1.350 . S
C407 H394 0.929 . S
C407 C399 1.433 . S
C407 N409 1.384 . S
N408 C404 1.427 . S
N408 C405 1.384 . S
N409 C401 1.427 . S
N409 C407 1.384 . S
H410 C416 0.930 . S
H411 C420 0.930 . S
H412 C425 0.929 . S
H413 C423 0.929 1_545 S
H414 C418 0.929 . S
H415 C424 0.929 . S
C416 H410 0.930 . S
C416 C417 1.367 . S
C416 C424 1.378 . S
C417 C416 1.367 . S
C417 C425 1.433 . S
C418 H414 0.929 . S
C418 C420 1.378 . S
C418 C422 1.350 . S
C419 C422 1.463 . S
C419 C424 1.350 . S
C419 N427 1.427 . S
C420 H411 0.930 . S
C420 C418 1.378 . S
C420 C421 1.367 . S
C421 C420 1.367 . S
C421 C423 1.433 . S
C422 C418 1.350 . S
C422 C419 1.463 . S
C422 N426 1.427 . S
C423 H413 0.929 1_565 S
C423 C421 1.433 . S
C423 N426 1.384 . S
C424 H415 0.929 . S
C424 C416 1.378 . S
C424 C419 1.350 . S
C425 H412 0.929 . S
C425 C417 1.433 . S
C425 N427 1.384 . S
N426 C422 1.427 . S
N426 C423 1.384 . S
N427 C419 1.427 . S
N427 C425 1.384 . S
C223 C107 1.650 . S
C219 C43 1.657 . S
C237 C10 1.660 . S
C241 C202 1.640 . S
C255 C21 1.666 . S
C259 C118 1.660 . S
C273 C32 1.627 . S
C277 C191 1.625 . S
C295 C102 1.430 . S
C291 C5 1.603 . S
C313 C195 1.707 . S
C309 C15 1.706 . S
C327 C27 1.638 . S
C331 C111 1.655 . S
C345 C38 1.603 . S
C349 C186 1.428 . S
C367 C197 1.394 . S
C363 C16 1.557 . S
C385 C113 1.375 . S
C381 C26 1.555 1_556 S
C403 C184 1.629 . S
C399 C37 1.620 . S
C417 C4 1.575 . S
C421 C100 1.584 . S
