# Generated by pormake.
# Topology zzz, (3,6)-cn, num edge types: 1
# Building blocks:
#     Node 0, Type 0, BuildingBlock: CUQRIR_clean_linker_1, # of connection points: 3
#     Node 1, Type 0, BuildingBlock: CUQRIR_clean_linker_1, # of connection points: 3
#     Node 2, Type 0, BuildingBlock: CUQRIR_clean_linker_1, # of connection points: 3
#     Node 3, Type 0, BuildingBlock: CUQRIR_clean_linker_1, # of connection points: 3
#     Node 4, Type 0, BuildingBlock: CUQRIR_clean_linker_1, # of connection points: 3
#     Node 5, Type 0, BuildingBlock: CUQRIR_clean_linker_1, # of connection points: 3
#     Node 6, Type 0, BuildingBlock: CUQRIR_clean_linker_1, # of connection points: 3
#     Node 7, Type 0, BuildingBlock: CUQRIR_clean_linker_1, # of connection points: 3
#     Node 8, Type 1, BuildingBlock: KUMJIN_clean_sbu_1, # of connection points: 6
#     Node 9, Type 1, BuildingBlock: KUMJIN_clean_sbu_1, # of connection points: 6
#     Node 10, Type 1, BuildingBlock: KUMJIN_clean_sbu_1, # of connection points: 6
#     Node 11, Type 1, BuildingBlock: KUMJIN_clean_sbu_1, # of connection points: 6
#     Edge 12, Type (0, 1), BuildingBlock: CIFDUS_clean_linker_0, # of connection points: 2
#     Edge 13, Type (0, 1), BuildingBlock: CIFDUS_clean_linker_0, # of connection points: 2
#     Edge 14, Type (0, 1), BuildingBlock: CIFDUS_clean_linker_0, # of connection points: 2
#     Edge 15, Type (0, 1), BuildingBlock: CIFDUS_clean_linker_0, # of connection points: 2
#     Edge 16, Type (0, 1), BuildingBlock: CIFDUS_clean_linker_0, # of connection points: 2
#     Edge 17, Type (0, 1), BuildingBlock: CIFDUS_clean_linker_0, # of connection points: 2
#     Edge 18, Type (0, 1), BuildingBlock: CIFDUS_clean_linker_0, # of connection points: 2
#     Edge 19, Type (0, 1), BuildingBlock: CIFDUS_clean_linker_0, # of connection points: 2
#     Edge 20, Type (0, 1), BuildingBlock: CIFDUS_clean_linker_0, # of connection points: 2
#     Edge 21, Type (0, 1), BuildingBlock: CIFDUS_clean_linker_0, # of connection points: 2
#     Edge 22, Type (0, 1), BuildingBlock: CIFDUS_clean_linker_0, # of connection points: 2
#     Edge 23, Type (0, 1), BuildingBlock: CIFDUS_clean_linker_0, # of connection points: 2
#     Edge 24, Type (0, 1), BuildingBlock: CIFDUS_clean_linker_0, # of connection points: 2
#     Edge 25, Type (0, 1), BuildingBlock: CIFDUS_clean_linker_0, # of connection points: 2
#     Edge 26, Type (0, 1), BuildingBlock: CIFDUS_clean_linker_0, # of connection points: 2
#     Edge 27, Type (0, 1), BuildingBlock: CIFDUS_clean_linker_0, # of connection points: 2
#     Edge 28, Type (0, 1), BuildingBlock: CIFDUS_clean_linker_0, # of connection points: 2
#     Edge 29, Type (0, 1), BuildingBlock: CIFDUS_clean_linker_0, # of connection points: 2
#     Edge 30, Type (0, 1), BuildingBlock: CIFDUS_clean_linker_0, # of connection points: 2
#     Edge 31, Type (0, 1), BuildingBlock: CIFDUS_clean_linker_0, # of connection points: 2
#     Edge 32, Type (0, 1), BuildingBlock: CIFDUS_clean_linker_0, # of connection points: 2
#     Edge 33, Type (0, 1), BuildingBlock: CIFDUS_clean_linker_0, # of connection points: 2
#     Edge 34, Type (0, 1), BuildingBlock: CIFDUS_clean_linker_0, # of connection points: 2
#     Edge 35, Type (0, 1), BuildingBlock: CIFDUS_clean_linker_0, # of connection points: 2
# Relax obj value: 0.251
# Max RMSD: 0.123
# Mean RMSD: 0.092
data_MOF--net-zzz--node1-KUMJIN_clean_sbu_1--node2-CUQRIR_clean_linker_1--edge1-CIFDUS_clean_linker_0
_symmetry_space_group_name_H-M    P1
_symmetry_Int_Tables_number       1
_symmetry_cell_setting            triclinic
loop_
_symmetry_equiv_pos_as_xyz
'x, y, z'
_cell_length_a     39.992346
_cell_length_b     40.13521
_cell_length_c     12.320532
_cell_angle_alpha  90.004561
_cell_angle_beta   90.435989
_cell_angle_gamma 90.339288
loop_
_atom_site_label
_atom_site_type_symbol
_atom_site_fract_x
_atom_site_fract_y
_atom_site_fract_z
_atom_type_partial_charge
C0 C 0.74993 0.54891 0.41803 0.0
N1 N 0.7841 0.55251 0.4106 0.0
N2 N 0.73381 0.55902 0.32428 0.0
C3 C 0.73255 0.53318 0.51232 0.0
C4 C 0.75975 0.56834 0.26095 0.0
N5 N 0.78971 0.56218 0.3093 0.0
C6 C 0.75601 0.57636 0.14164 0.0
H7 H 0.70618 0.5416 0.51624 0.0
H8 H 0.74593 0.53928 0.5891 0.0
H9 H 0.73267 0.50572 0.50184 0.0
H10 H 0.73751 0.5965 0.12987 0.0
H11 H 0.74684 0.55394 0.09751 0.0
H12 H 0.77998 0.58471 0.10581 0.0
C13 C 1.00718 0.75977 0.40568 0.0
N14 N 0.02627 0.78788 0.42691 0.0
N15 N 1.0239 0.73705 0.34181 0.0
C16 C 0.97238 0.75444 0.44626 0.0
C17 C 0.05338 0.75294 0.32422 0.0
N18 N 0.05461 0.78324 0.37356 0.0
C19 C 0.07894 0.74119 0.24273 0.0
H20 H 0.96911 0.76684 0.52596 0.0
H21 H 0.96675 0.72741 0.45336 0.0
H22 H 0.95444 0.76548 0.38752 0.0
H23 H 0.0663 0.73144 0.16867 0.0
H24 H 0.09379 0.72077 0.27925 0.0
H25 H 0.09674 0.76094 0.21795 0.0
C26 C 0.81085 0.032 0.402 0.0
N27 N 0.77892 1.0188 0.40405 0.0
N28 N 0.83117 1.0159 0.32858 0.0
C29 C 0.82169 0.06143 0.46863 0.0
C30 C 0.81041 0.99175 0.29011 0.0
N31 N 0.77876 0.99474 0.32879 0.0
C32 C 0.81995 0.967 0.20319 0.0
H33 H 0.84755 0.0694 0.44904 0.0
H34 H 0.82061 0.05482 0.55593 0.0
H35 H 0.8041 0.08233 0.45487 0.0
H36 H 0.83974 0.95035 0.23481 0.0
H37 H 0.82981 0.98027 0.13103 0.0
H38 H 0.79862 0.95088 0.17834 0.0
C39 C 0.56255 0.8088 0.36875 0.0
N40 N 0.54806 0.77769 0.373 0.0
N41 N 0.55573 0.82492 0.27185 0.0
C42 C 0.58263 0.82362 0.45892 0.0
C43 C 0.5363 0.80228 0.21878 0.0
N44 N 0.53211 0.77444 0.27889 0.0
C45 C 0.51959 0.808 0.11024 0.0
H46 H 0.56552 0.83863 0.50873 0.0
H47 H 0.60242 0.8402 0.42608 0.0
H48 H 0.59385 0.80394 0.51062 0.0
H49 H 0.53773 0.80287 0.04477 0.0
H50 H 0.5112 0.8342 0.10254 0.0
H51 H 0.49773 0.79128 0.09791 0.0
C52 C 0.31643 0.51712 0.09019 0.0
N53 N 0.28272 0.52327 0.10179 0.0
N54 N 0.33312 0.51675 0.18901 0.0
C55 C 0.3332 0.51335 0.98282 0.0
C56 C 0.30815 0.52269 0.2595 0.0
N57 N 0.27844 0.52695 0.20777 0.0
C58 C 0.31349 0.52906 0.3795 0.0
H59 H 0.32387 0.49031 0.94275 0.0
H60 H 0.36077 0.51202 0.99253 0.0
H61 H 0.3265 0.53468 0.92977 0.0
H62 H 0.30885 0.55574 0.39732 0.0
H63 H 0.33899 0.52267 0.40788 0.0
H64 H 0.29543 0.51405 0.42708 0.0
C65 C 0.03967 0.32225 0.0995 0.0
N66 N 0.04038 0.28822 0.1149 0.0
N67 N 0.04881 0.33953 0.19228 0.0
C68 C 0.02748 0.33858 0.99766 0.0
C69 C 0.05478 0.31445 0.26303 0.0
N70 N 0.04714 0.28409 0.21991 0.0
C71 C 0.06126 0.32008 0.38289 0.0
H72 H 0.03488 0.32378 0.92574 0.0
H73 H 0.03746 0.36439 0.99158 0.0
H74 H 0.99977 0.33965 0.99937 0.0
H75 H 0.03714 0.31969 0.42689 0.0
H76 H 0.07387 0.3442 0.39897 0.0
H77 H 0.07746 0.3002 0.41626 0.0
C78 C 0.24612 0.06647 0.09595 0.0
N79 N 0.27942 0.07522 0.09776 0.0
N80 N 0.22963 0.07756 0.187 0.0
C81 C 0.23031 0.04524 1.00968 0.0
C82 C 0.2544 0.0935 0.24238 0.0
N83 N 0.28443 0.09057 0.19244 0.0
C84 C 0.25068 0.10675 0.35634 0.0
H85 H 0.24094 0.05148 0.92921 0.0
H86 H 0.20276 0.04853 1.00828 0.0
H87 H 0.23591 1.01872 0.02709 0.0
H88 H 0.2412 0.08675 0.41044 0.0
H89 H 0.2323 0.12731 0.35649 0.0
H90 H 0.27468 0.1166 0.38919 0.0
C91 C 0.50808 0.26536 0.14474 0.0
N92 N 0.52729 0.29125 0.10555 0.0
N93 N 0.52502 0.24694 0.2217 0.0
C94 C 0.47328 0.25755 0.10635 0.0
C95 C 0.55473 0.26327 0.22937 0.0
N96 N 0.55637 0.28909 0.15838 0.0
C97 C 0.57988 0.25764 0.31976 0.0
H98 H 0.46848 0.23031 0.10988 0.0
H99 H 0.4693 0.26673 0.0223 0.0
H100 H 0.45522 0.2701 0.16043 0.0
H101 H 0.60007 0.24126 0.28983 0.0
H102 H 0.5682 0.24579 0.39152 0.0
H103 H 0.59135 0.28143 0.34725 0.0
Eu104 Eu 0.99307 0.04944 0.66518 0.0
C105 C 0.11236 0.0917 0.95024 0.0
N106 N 0.11016 0.07497 0.85464 0.0
C107 C 0.15878 0.10356 0.78887 0.0
C108 C 0.13715 0.11645 0.96649 0.0
C109 C 0.13329 0.07994 0.77525 0.0
C110 C 0.16064 0.12204 0.88471 0.0
C111 C 0.08903 0.10416 0.12636 0.0
C112 C 0.08906 0.08486 0.03049 0.0
C113 C 0.11256 0.12995 0.14016 0.0
C114 C 0.13706 0.13553 0.06177 0.0
Eu115 Eu 0.06998 0.03196 0.84371 0.0
N116 N 0.06678 0.05934 1.01558 0.0
C117 C 0.06543 0.09692 0.206 0.0
C118 C 0.04624 0.05015 0.09877 0.0
C119 C 0.04424 0.06958 0.19258 0.0
H120 H 0.13254 0.06517 0.7022 0.0
H121 H 0.0265 0.0633 0.255 0.0
H122 H 0.92765 0.02756 0.82683 0.0
H123 H 0.03099 0.99668 0.27576 0.0
H124 H 0.0316 0.02764 0.09558 0.0
H125 H 0.06397 0.11169 0.27937 0.0
H126 H 0.03268 0.03666 0.4268 0.0
H127 H 0.17701 0.10744 0.72557 0.0
H128 H 0.11236 0.14544 0.21205 0.0
H129 H 0.15549 0.15506 0.07479 0.0
H130 H 0.88237 0.98619 0.82964 0.0
H131 H 0.18017 0.14065 0.89454 0.0
H132 H 0.98716 0.95328 0.26897 0.0
N133 N 0.94884 1.0099 0.67988 0.0
C134 C 0.94405 0.98984 0.59156 0.0
C135 C 0.8999 0.98651 0.76314 0.0
C136 C 0.91767 0.96629 0.58848 0.0
C137 C 0.92642 1.00934 0.76304 0.0
C138 C 0.89567 0.96469 0.67602 0.0
N139 N 0.99159 1.0148 0.50953 0.0
C140 C 1.01373 1.0176 0.4262 0.0
C141 C 0.96313 0.96997 0.41611 0.0
C142 C 0.96588 0.99237 0.50409 0.0
C143 C 0.98748 0.97102 0.33519 0.0
C144 C 1.01252 0.99527 0.33933 0.0
H145 H 0.87506 0.94704 0.67639 0.0
H146 H 0.89411 0.92664 0.49547 0.0
H147 H 0.93456 0.92907 0.34678 0.0
O148 O 0.9828 0.08748 0.54348 0.0
O149 O 1.01559 0.9959 0.64696 0.0
O150 O 0.04383 0.98218 0.80326 0.0
O151 O 0.94208 0.06606 0.63383 0.0
O152 O 0.04304 0.06924 0.5951 0.0
O153 O 0.07778 0.02892 0.65945 0.0
O154 O 0.10286 1.0077 0.96147 0.0
O155 O 0.06048 0.0872 0.79792 0.0
O156 O 1.00401 0.09186 0.79137 0.0
O157 O 0.11558 1.0078 0.79109 0.0
O158 O 1.01897 1.01421 0.9166 0.0
O159 O 0.98255 0.05258 0.84683 0.0
C160 C 0.02909 0.97313 0.71132 0.0
C161 C 0.94199 0.12374 0.61495 0.0
C162 C 0.95755 0.18101 0.65511 0.0
C163 C 0.92653 0.18612 0.70454 0.0
C164 C 0.91095 0.12882 0.66507 0.0
C165 C 0.90346 0.15984 0.71067 0.0
C166 C 0.96516 0.14978 0.61255 0.0
C167 C 0.07163 0.05285 0.58947 0.0
C168 C 0.95179 0.09078 0.57416 0.0
C169 C 0.91414 0.94491 0.49882 0.0
C170 C 0.93706 0.94644 0.4137 0.0
C171 C 0.03349 0.10529 0.81481 0.0
C172 C 0.13727 0.96437 0.8948 0.0
C173 C 0.13247 0.90753 0.95785 0.0
C174 C 0.16331 0.89991 0.91069 0.0
C175 C 0.16799 0.95674 0.84656 0.0
C176 C 0.11947 0.93963 0.94888 0.0
C177 C 0.18087 0.9245 0.85412 0.0
C178 C 0.99028 0.03082 0.92229 0.0
C179 C 0.12414 0.99817 0.88792 0.0
H180 H 0.91977 0.21057 0.7341 0.0
H181 H 0.8927 0.10882 0.66967 0.0
H182 H 0.87945 0.16373 0.7484 0.0
H183 H 0.98881 0.14641 0.57151 0.0
H184 H 0.17367 0.87512 0.91765 0.0
H185 H 0.182 0.97572 0.80355 0.0
H186 H 0.09577 0.94549 0.98647 0.0
H187 H 0.20458 0.91868 0.81709 0.0
Eu188 Eu 0.54028 0.0735 0.86614 0.0
C189 C 0.54385 0.92925 0.67167 0.0
N190 N 0.55363 0.95879 0.62758 0.0
C191 C 0.60061 0.93223 0.54488 0.0
C192 C 0.56252 0.9 0.65485 0.0
C193 C 0.58149 0.96059 0.56425 0.0
C194 C 0.59125 0.9019 0.59099 0.0
C195 C 0.50796 0.89925 0.79668 0.0
C196 C 0.51711 0.92902 0.74291 0.0
C197 C 0.52556 0.86982 0.77628 0.0
C198 C 0.55299 0.87028 0.70664 0.0
Eu199 Eu 0.51946 1.00555 0.66352 0.0
N200 N 0.50176 0.95836 0.76596 0.0
C201 C 0.48225 0.90019 0.87274 0.0
C202 C 0.47625 0.95898 0.83826 0.0
C203 C 0.46634 0.93025 0.89363 0.0
H204 H 0.58868 0.9838 0.52672 0.0
H205 H 0.44623 0.93128 0.95175 0.0
H206 H 0.46739 0.10319 0.96224 0.0
H207 H 0.64169 0.14274 0.66181 0.0
H208 H 0.46305 0.98127 0.85206 0.0
H209 H 0.47467 0.87796 0.91624 0.0
H210 H 0.61795 0.09693 0.76588 0.0
H211 H 0.62268 0.93381 0.495 0.0
H212 H 0.51891 0.84682 0.81708 0.0
H213 H 0.56729 0.84769 0.69623 0.0
H214 H 0.4341 0.15426 0.95124 0.0
H215 H 0.60681 0.88029 0.57863 0.0
H216 H 0.60824 0.19299 0.62465 0.0
N217 N 0.50583 0.12115 0.8581 0.0
C218 C 0.51896 0.14829 0.80683 0.0
C219 C 0.45761 0.15271 0.90862 0.0
C220 C 0.50066 0.17821 0.79948 0.0
C221 C 0.47635 0.12348 0.91287 0.0
C222 C 0.46957 0.18004 0.85047 0.0
N223 N 0.56879 0.11747 0.77316 0.0
C224 C 0.60168 0.11699 0.74326 0.0
C225 C 0.56448 0.17409 0.70714 0.0
C226 C 0.55083 0.14619 0.76153 0.0
C227 C 0.597 0.17216 0.66714 0.0
C228 C 0.61586 0.14375 0.68718 0.0
H229 H 0.45498 0.20269 0.84752 0.0
H230 H 0.50016 0.22852 0.73592 0.0
H231 H 0.55579 0.22482 0.65417 0.0
O232 O 0.57059 0.10723 0.96274 0.0
O233 O 0.50823 0.0882 0.71572 0.0
O234 O 0.53198 0.05603 0.58895 0.0
O235 O 0.53157 0.07939 0.04068 0.0
O236 O 0.58855 0.04769 0.79312 0.0
O237 O 0.56769 0.03397 0.62588 0.0
O238 O 0.47379 0.99349 0.57439 0.0
O239 O 0.55372 0.98661 0.79866 0.0
O240 O 0.54554 1.02058 0.94504 0.0
O241 O 0.52228 0.98942 0.49435 0.0
O242 O 0.47128 0.03067 0.73843 0.0
O243 O 0.48889 0.05055 0.90369 0.0
C244 C 0.51849 0.08454 0.6153 0.0
C245 C 0.58179 0.08999 0.13481 0.0
C246 C 0.62399 0.04878 0.17011 0.0
C247 C 0.64654 0.0747 0.19748 0.0
C248 C 0.60336 0.11524 0.17188 0.0
C249 C 0.63567 0.10746 0.20476 0.0
C250 C 0.59126 0.05648 0.1423 0.0
C251 C 0.59387 0.03922 0.68976 0.0
C252 C 0.55705 0.09921 0.05424 0.0
C253 C 0.51401 0.20549 0.743 0.0
C254 C 0.5457 0.20337 0.69643 0.0
C255 C 0.55444 0.99143 0.90413 0.0
C256 C 0.4737 0.97383 0.38854 0.0
C257 C 0.4216 0.96725 0.29366 0.0
C258 C 0.43852 0.96258 0.19561 0.0
C259 C 0.49056 0.9734 0.28916 0.0
C260 C 0.43943 0.96796 0.39076 0.0
C261 C 0.47327 0.96549 0.19355 0.0
C262 C 0.46423 0.0433 0.83592 0.0
C263 C 0.49024 0.98527 0.48757 0.0
H264 H 0.67258 0.06943 0.21489 0.0
H265 H 0.59634 0.14121 0.16501 0.0
H266 H 0.65292 0.12705 0.22867 0.0
H267 H 0.5747 0.03681 0.1148 0.0
H268 H 0.42473 0.96098 0.12001 0.0
H269 H 0.51636 0.98112 0.28507 0.0
H270 H 0.42593 0.97104 0.46623 0.0
H271 H 0.48621 0.96488 0.1168 0.0
Eu272 Eu 0.57594 0.52725 0.65236 0.0
C273 C 0.44722 0.4872 0.90493 0.0
N274 N 0.45367 0.50465 0.81219 0.0
C275 C 0.40425 0.48154 0.72857 0.0
C276 C 0.41948 0.46532 0.9108 0.0
C277 C 0.43188 0.50296 0.72633 0.0
C278 C 0.39811 0.46249 0.8209 0.0
C279 C 0.4637 0.47103 0.08802 0.0
C280 C 0.46874 0.49064 0.99426 0.0
C281 C 0.43596 0.44959 0.09376 0.0
C282 C 0.41378 0.44696 1.0059 0.0
Eu283 Eu 0.49753 0.54457 0.82733 0.0
N284 N 0.4958 0.51139 0.98665 0.0
C285 C 0.48728 0.47271 0.17218 0.0
C286 C 0.51778 0.51433 0.07153 0.0
C287 C 0.51443 0.49437 0.16371 0.0
H288 H 0.43415 0.51978 0.65905 0.0
H289 H 0.53266 0.49594 0.22879 0.0
H290 H 0.63949 0.55971 0.79305 0.0
H291 H 0.5274 0.56154 0.24585 0.0
H292 H 0.53772 0.53227 0.07044 0.0
H293 H 0.48489 0.45724 0.24373 0.0
H294 H 0.53393 0.52514 0.40286 0.0
H295 H 0.38714 0.48047 0.66012 0.0
H296 H 0.43163 0.43459 0.16548 0.0
H297 H 0.3925 0.43023 1.01174 0.0
H298 H 0.68509 0.60067 0.76577 0.0
H299 H 0.37646 0.44614 0.82271 0.0
H300 H 0.56552 0.60927 0.22107 0.0
N301 N 0.61572 0.57032 0.64235 0.0
C302 C 0.61692 0.58733 0.54696 0.0
C303 C 0.66593 0.59739 0.70414 0.0
C304 C 0.64232 0.61124 0.52866 0.0
C305 C 0.63993 0.57452 0.7199 0.0
C306 C 0.66711 0.61588 0.60822 0.0
N307 N 0.56936 0.55656 0.48445 0.0
C308 C 0.54815 0.54785 0.40139 0.0
C309 C 0.59164 0.60104 0.37313 0.0
C310 C 0.59216 0.58158 0.46881 0.0
C311 C 0.56711 0.59454 0.29461 0.0
C312 C 0.54554 0.5676 0.30834 0.0
H313 H 0.6871 0.63385 0.59674 0.0
H314 H 0.66059 0.64931 0.41913 0.0
H315 H 0.61546 0.64137 0.28543 0.0
O316 O 0.60708 0.50725 0.52472 0.0
O317 O 0.56797 0.58167 0.70803 0.0
O318 O 0.51169 0.58947 0.71659 0.0
O319 O 0.62307 0.50238 0.69162 0.0
O320 O 0.5253 0.50746 0.58085 0.0
O321 O 0.48942 0.54705 0.64373 0.0
O322 O 0.48088 0.57733 0.95843 0.0
O323 O 0.51533 0.48957 0.83605 0.0
O324 O 0.55453 0.4767 0.70572 0.0
O325 O 0.44657 0.56372 0.82626 0.0
O326 O 0.54793 0.56259 0.90399 0.0
O327 O 0.58393 0.52344 0.83666 0.0
C328 C 0.54181 0.60114 0.69352 0.0
C329 C 0.64752 0.46602 0.56218 0.0
C330 C 0.65759 0.42523 0.42153 0.0
C331 C 0.67065 0.40335 0.50061 0.0
C332 C 0.66016 0.4441 0.64097 0.0
C333 C 0.67284 0.41327 0.6093 0.0
C334 C 0.65013 0.45782 0.45253 0.0
C335 C 0.49643 0.52359 0.57341 0.0
C336 C 0.63055 0.49707 0.59058 0.0
C337 C 0.64163 0.63047 0.43366 0.0
C338 C 0.61594 0.62591 0.35746 0.0
C339 C 0.53431 0.46772 0.78529 0.0
C340 C 0.42327 0.59648 0.97094 0.0
C341 C 0.40854 0.63348 0.11816 0.0
C342 C 0.37885 0.64181 0.0615 0.0
C343 C 0.39419 0.60529 0.91391 0.0
C344 C 0.42746 0.60694 0.07755 0.0
C345 C 0.37126 0.62678 0.96175 0.0
C346 C 0.57663 0.54603 0.91012 0.0
C347 C 0.4503 0.57775 0.92011 0.0
H348 H 0.67672 0.37783 0.48088 0.0
H349 H 0.65963 0.45041 0.72641 0.0
H350 H 0.68218 0.39611 0.66999 0.0
H351 H 0.64196 0.47558 0.39175 0.0
H352 H 0.36245 0.66128 0.08897 0.0
H353 H 0.38955 0.59621 0.83235 0.0
H354 H 0.44779 0.59632 0.12385 0.0
H355 H 0.34883 0.63379 0.91783 0.0
Eu356 Eu 0.04148 0.57805 0.6696 0.0
C357 C 0.08714 0.45218 0.89705 0.0
N358 N 0.06465 0.45777 0.81506 0.0
C359 C 0.08477 0.40939 0.72121 0.0
C360 C 0.11016 0.42567 0.89138 0.0
C361 C 0.06208 0.43553 0.73119 0.0
C362 C 0.1092 0.40468 0.80088 0.0
C363 C 0.1095 0.46711 0.07503 0.0
C364 C 0.08643 0.47216 0.98942 0.0
C365 C 0.13274 0.4412 0.0682 0.0
C366 C 0.13295 0.42042 0.97699 0.0
Eu367 Eu 0.0252 0.50096 0.84838 0.0
N368 N 0.06363 0.49715 0.9945 0.0
C369 C 0.10853 0.48831 0.16513 0.0
C370 C 0.06104 0.51619 0.08558 0.0
C371 C 0.08396 0.51272 0.17097 0.0
H372 H 0.04133 0.43632 0.67529 0.0
H373 H 0.08257 0.52874 0.24139 0.0
H374 H 1.00431 0.63862 0.80548 0.0
H375 H 1.01806 0.53401 0.25259 0.0
H376 H 0.04161 0.5344 0.09094 0.0
H377 H 0.12634 0.48574 0.23125 0.0
H378 H 0.05095 0.54039 0.41836 0.0
H379 H 0.08268 0.3922 0.65374 0.0
H380 H 0.15053 0.43688 0.1334 0.0
H381 H 0.15078 0.40024 0.97363 0.0
H382 H 0.96169 0.68202 0.77461 0.0
H383 H 0.1264 0.38405 0.79373 0.0
H384 H 0.97117 0.57184 0.21383 0.0
N385 N 0.99735 0.61629 0.65067 0.0
C386 C 0.98209 0.61806 0.5521 0.0
C387 C 0.96693 0.66401 0.7117 0.0
C388 C 0.95755 0.64241 0.53082 0.0
C389 C 0.99079 0.63924 0.72938 0.0
C390 C 0.9501 0.66552 0.61214 0.0
N391 N 1.0169 0.57424 0.49232 0.0
C392 C 0.0282 0.55432 0.41056 0.0
C393 C 0.97459 0.59607 0.37051 0.0
C394 C 0.99119 0.59562 0.47225 0.0
C395 C 0.9839 0.57302 0.29172 0.0
C396 C 1.01067 0.55194 0.31247 0.0
H397 H 0.93158 0.68471 0.59863 0.0
H398 H 0.92237 0.66147 0.4118 0.0
H399 H 0.93675 0.62035 0.27216 0.0
O400 O 0.06726 0.61164 0.55794 0.0
O401 O 0.98672 0.5682 0.72073 0.0
O402 O 0.98046 0.5119 0.73019 0.0
O403 O 0.06457 0.62372 0.72854 0.0
O404 O 0.05925 0.5272 0.59935 0.0
O405 O 1.01954 0.49169 0.6651 0.0
O406 O 0.98733 0.48966 0.96979 0.0
O407 O 0.07683 0.52741 0.87127 0.0
O408 O 0.09122 0.55154 0.71013 0.0
O409 O 1.01297 0.44968 0.8897 0.0
O410 O 1.00812 0.55057 0.93083 0.0
O411 O 0.04483 0.58731 0.85276 0.0
C412 C 0.96784 0.54143 0.70549 0.0
C413 C 0.11223 0.64075 0.64 0.0
C414 C 0.16978 0.62472 0.6159 0.0
C415 C 0.1805 0.65551 0.65791 0.0
C416 C 0.12275 0.67141 0.68346 0.0
C417 C 0.15691 0.67866 0.69289 0.0
C418 C 0.13577 0.61738 0.60857 0.0
C419 C 0.04137 0.49935 0.58971 0.0
C420 C 0.07689 0.63195 0.63516 0.0
C421 C 0.94133 0.64303 0.42948 0.0
C422 C 0.94952 0.61963 0.35002 0.0
C423 C 0.10009 0.53815 0.80405 0.0
C424 C 0.95719 0.4399 0.9361 0.0
C425 C 0.89788 0.43984 0.97009 0.0
C426 C 0.89269 0.41596 0.88858 0.0
C427 C 0.95231 0.41609 0.85334 0.0
C428 C 0.93031 0.44957 0.99839 0.0
C429 C 0.92014 0.40363 0.83164 0.0
C430 C 1.02334 0.58016 0.92977 0.0
C431 C 0.98895 0.45751 0.95409 0.0
H432 H 0.20687 0.66177 0.66143 0.0
H433 H 0.10462 0.68952 0.71036 0.0
H434 H 0.16507 0.7024 0.72566 0.0
H435 H 0.12761 0.59376 0.57425 0.0
H436 H 0.86764 0.4079 0.86663 0.0
H437 H 0.97298 0.4077 0.80426 0.0
H438 H 0.93435 0.46716 0.06428 0.0
H439 H 0.91632 0.38551 0.76759 0.0
H440 H 0.1804 0.11716 0.2689 0.0
H441 H 0.20729 1.01444 0.22584 0.0
H442 H 0.16095 0.99725 0.34364 0.0
H443 H 0.11487 1.01167 0.47338 0.0
H444 H 0.08849 0.11479 0.51469 0.0
H445 H 0.13303 0.13134 0.39046 0.0
C446 C 0.17589 0.09093 0.28387 0.0
C447 C 0.19764 0.06721 0.23616 0.0
C448 C 0.14944 0.08124 0.35478 0.0
C449 C 0.19092 0.03336 0.25794 0.0
C450 C 0.16454 1.02354 0.32728 0.0
C451 C 0.11849 0.03777 0.45392 0.0
C452 C 0.09773 0.06189 0.50445 0.0
C453 C 0.14391 0.04724 0.37827 0.0
C454 C 0.10336 0.09552 0.47732 0.0
C455 C 0.12901 0.10505 0.40551 0.0
H456 H 0.56157 0.19147 0.25835 0.0
H457 H 0.46763 0.23636 0.33933 0.0
H458 H 0.45658 0.19106 0.46975 0.0
H459 H 0.47535 0.13868 0.56876 0.0
H460 H 0.57146 0.09769 0.4882 0.0
H461 H 0.58091 0.1425 0.35985 0.0
C462 C 0.53851 0.19139 0.30396 0.0
C463 C 0.51545 0.21763 0.28705 0.0
C464 C 0.533 0.16596 0.38214 0.0
C465 C 0.48568 0.21653 0.34774 0.0
C466 C 0.4796 0.19069 0.42399 0.0
C467 C 0.49817 0.13932 0.52192 0.0
C468 C 0.52242 0.11386 0.53807 0.0
C469 C 0.50327 0.16525 0.44319 0.0
C470 C 0.5519 0.11588 0.47672 0.0
C471 C 0.55729 0.14157 0.40179 0.0
H472 H 0.37683 0.46968 0.26663 0.0
H473 H 0.36753 0.57422 0.19899 0.0
H474 H 0.41723 0.58595 0.31067 0.0
H475 H 0.46083 0.56735 0.44262 0.0
H476 H 0.47267 0.4625 0.50374 0.0
H477 H 0.42552 0.45015 0.38081 0.0
C478 C 0.38668 0.49484 0.27153 0.0
C479 C 0.36859 0.52094 0.2195 0.0
C480 C 0.41575 0.50148 0.33728 0.0
C481 C 0.38134 0.55349 0.23274 0.0
C482 C 0.40959 0.56026 0.29879 0.0
C483 C 0.45361 0.54168 0.42748 0.0
C484 C 0.47084 0.51592 0.48368 0.0
C485 C 0.42671 0.53463 0.35354 0.0
C486 C 0.46057 0.48293 0.46194 0.0
C487 C 0.43323 0.47586 0.39163 0.0
H488 H 0.09284 0.38961 0.24767 0.0
H489 H 0.9881 0.36506 0.23691 0.0
H490 H 0.97601 0.41254 0.35561 0.0
H491 H 0.99584 0.45781 0.48138 0.0
H492 H 0.10059 0.48326 0.4893 0.0
H493 H 0.11192 0.43888 0.35785 0.0
C494 C 0.06718 0.39546 0.26745 0.0
C495 C 0.04131 0.37365 0.22954 0.0
C496 C 0.06047 0.42273 0.33933 0.0
C497 C 1.00844 0.3815 0.26067 0.0
C498 C 1.00161 0.40849 0.33094 0.0
C499 C 1.02113 0.45417 0.45296 0.0
C500 C 0.0473 0.47444 0.49717 0.0
C501 C 0.02747 0.42881 0.37373 0.0
C502 C 0.07978 0.46873 0.4578 0.0
C503 C 0.0863 0.4431 0.38196 0.0
H504 H 0.88669 0.9783 0.28299 0.0
H505 H 0.84645 0.07667 0.24127 0.0
H506 H 0.89251 0.09074 0.1183 0.0
H507 H 0.94214 0.07352 1.00763 0.0
H508 H 0.97917 0.97337 0.03977 0.0
H509 H 0.93498 0.96091 0.17053 0.0
C510 C 0.88784 1.0029 0.24748 0.0
C511 C 0.86248 0.02632 0.27399 0.0
C512 C 0.91371 1.0103 0.17137 0.0
C513 C 0.86547 0.05819 0.22645 0.0
C514 C 0.89176 0.06608 0.15398 0.0
C515 C 0.94117 0.04911 0.04508 0.0
C516 C 0.9649 1.02456 1.013 0.0
C517 C 0.9158 0.04217 0.12386 0.0
C518 C 0.96223 0.99308 0.06261 0.0
C519 C 0.93684 0.98595 0.13856 0.0
H520 H 0.58094 0.84389 0.07564 0.0
H521 H 0.54787 0.8842 0.37956 0.0
H522 H 0.5508 0.9403 0.30352 0.0
H523 H 0.5486 0.97784 0.13195 0.0
H524 H 0.58789 0.93628 0.83794 0.0
H525 H 0.59255 0.88208 0.92287 0.0
C526 C 0.57363 0.86491 0.12505 0.0
C527 C 0.56309 0.859 0.23324 0.0
C528 C 0.57317 0.89739 0.07813 0.0
C529 C 0.55552 0.88723 0.29609 0.0
C530 C 0.55596 0.91967 0.25059 0.0
C531 C 0.55816 0.95696 0.08671 0.0
C532 C 0.56476 0.96123 0.97382 0.0
C533 C 0.56255 0.92509 0.13922 0.0
C534 C 0.57955 0.93387 0.92074 0.0
C535 C 0.58285 0.90255 0.9703 0.0
H536 H 0.68752 0.6025 0.24391 0.0
H537 H 0.7056 0.49803 0.29198 0.0
H538 H 0.65834 0.48431 0.17106 0.0
H539 H 0.61498 0.50206 0.03416 0.0
H540 H 0.59667 0.60682 0.98911 0.0
H541 H 0.64115 0.62016 0.12012 0.0
C542 C 0.68053 0.57669 0.23049 0.0
C543 C 0.70029 0.55138 0.27977 0.0
C544 C 0.65358 0.56899 0.15759 0.0
C545 C 0.6908 0.51813 0.25861 0.0
C546 C 0.66394 0.51029 0.1873 0.0
C547 C 0.62032 0.52785 0.05424 0.0
C548 C 0.60203 0.5534 1.00023 0.0
C549 C 0.64562 0.53546 0.13364 0.0
C550 C 0.6097 0.58655 0.02875 0.0
C551 C 0.63531 0.59422 0.10444 0.0
H552 H 0.0568 0.67772 0.32871 0.0
H553 H 0.9674 0.72654 0.21791 0.0
H554 H 0.95674 0.68066 0.08933 0.0
H555 H 0.97665 0.62908 0.99072 0.0
H556 H 0.07117 0.58688 0.08637 0.0
H557 H 0.07606 0.627 0.23436 0.0
C558 C 0.03477 0.67837 0.27712 0.0
C559 C 1.01308 0.70629 0.28452 0.0
C560 C 0.0299 0.6527 0.19813 0.0
C561 C 0.98446 0.70572 0.21683 0.0
C562 C 0.97866 0.67948 0.14137 0.0
C563 C 0.99801 0.62821 0.04525 0.0
C564 C 1.02286 0.60335 0.02847 0.0
C565 C 1.00171 0.65316 0.12855 0.0
C566 C 0.05085 0.60412 0.09863 0.0
C567 C 0.05391 0.62762 0.18321 0.0
H568 H 0.06792 0.24249 0.37761 0.0
H569 H 0.981 0.28191 0.21602 0.0
H570 H 0.9448 0.25878 0.35387 0.0
H571 H 0.93794 0.2287 0.52243 0.0
H572 H 1.02425 0.19164 0.69346 0.0
H573 H 0.06117 0.21623 0.5581 0.0
C574 C 0.04099 0.24514 0.37218 0.0
C575 C 0.0269 0.26229 0.28424 0.0
C576 C 1.02059 0.23461 0.45768 0.0
C577 C 0.99208 0.26663 0.27876 0.0
C578 C 0.97153 0.25474 0.36007 0.0
C579 C 0.96491 0.22741 0.53272 0.0
C580 C 0.97846 0.20863 0.61741 0.0
C581 C 0.98558 0.23938 0.45089 0.0
C582 C 1.01339 0.20663 0.62968 0.0
C583 C 0.0344 0.21966 0.55026 0.0
H584 H 0.28821 0.04352 0.33903 0.0
H585 H 0.34606 0.11875 0.17595 0.0
H586 H 0.39704 0.08613 0.20564 0.0
H587 H 0.42061 0.03051 0.23553 0.0
H588 H 0.35956 0.95191 0.3688 0.0
H589 H 0.31306 0.99101 0.38982 0.0
C590 C 0.31235 0.05351 0.31539 0.0
C591 C 0.31379 0.08291 0.25408 0.0
C592 C 0.34006 0.033 0.32122 0.0
C593 C 0.34479 0.09604 0.22322 0.0
C594 C 0.37356 0.07701 0.23791 0.0
C595 C 0.39682 1.022 0.26755 0.0
C596 C 0.39215 0.98825 0.29413 0.0
C597 C 0.3707 0.04439 0.27841 0.0
C598 C 0.36244 0.97746 0.34196 0.0
C599 C 0.33643 0.99988 0.35607 0.0
H600 H 0.54678 0.35396 0.18917 0.0
H601 H 0.62306 0.28063 0.13742 0.0
H602 H 0.66622 0.32137 0.19119 0.0
H603 H 0.67865 0.37377 0.29077 0.0
H604 H 0.5996 0.44641 0.32352 0.0
H605 H 0.56197 0.41132 0.22389 0.0
C606 C 0.57288 0.34737 0.1821 0.0
C607 C 0.58185 0.31447 0.16049 0.0
C608 C 0.59719 0.37099 0.20771 0.0
C609 C 0.61583 0.30594 0.15594 0.0
C610 C 0.64037 0.32917 0.18606 0.0
C611 C 0.65351 0.38231 0.27332 0.0
C612 C 0.64182 0.41186 0.32093 0.0
C613 C 0.63097 0.36129 0.2183 0.0
C614 C 0.60971 0.42352 0.29156 0.0
C615 C 0.58757 0.40315 0.23544 0.0
H616 H 0.23625 0.5082 0.36238 0.0
H617 H 0.26761 0.59065 0.1646 0.0
H618 H 0.23744 0.62948 0.27938 0.0
H619 H 0.20704 0.64028 0.44609 0.0
H620 H 0.17961 0.55872 0.65506 0.0
H621 H 0.20559 0.51909 0.53132 0.0
C622 C 0.2353 0.53457 0.34347 0.0
C623 C 0.25271 0.54672 0.25378 0.0
C624 C 0.22062 0.55688 0.41558 0.0
C625 C 0.25259 0.58087 0.23008 0.0
C626 C 0.23644 0.60308 0.29779 0.0
C627 C 0.2077 0.61392 0.4657 0.0
C628 C 0.19248 0.60229 0.56007 0.0
C629 C 0.22151 0.59146 0.3928 0.0
C630 C 0.19219 0.56806 0.58383 0.0
C631 C 0.20634 0.54544 0.51216 0.0
H632 H 0.03085 0.82126 0.21996 0.0
H633 H 0.11818 0.80289 0.41537 0.0
H634 H 0.15157 0.83989 0.29822 0.0
H635 H 0.15569 0.87419 0.13212 0.0
H636 H 0.06802 0.88867 0.93183 0.0
H637 H 0.03458 0.85541 0.05707 0.0
C638 C 0.05701 0.82634 0.23777 0.0
C639 C 0.07234 0.81031 0.3253 0.0
C640 C 0.07586 0.84574 0.16739 0.0
C641 C 0.10623 0.81582 0.34857 0.0
C642 C 0.12518 0.83635 0.28087 0.0
C643 C 0.12941 0.86942 0.11548 0.0
C644 C 0.11417 0.88325 0.02326 0.0
C645 C 0.11039 0.85063 0.18825 0.0
C646 C 0.08005 0.87779 1.00244 0.0
C647 C 0.06096 0.85919 0.07423 0.0
H648 H 0.72034 0.96348 0.37614 0.0
H649 H 0.77424 1.01337 0.12083 0.0
H650 H 0.72435 1.01639 1.01074 0.0
H651 H 0.66546 0.02604 1.02091 0.0
H652 H 0.61088 0.99485 0.30173 0.0
H653 H 0.65835 0.96136 0.36312 0.0
C654 C 0.72099 0.97392 0.29502 0.0
C655 C 0.75064 0.98864 0.25764 0.0
C656 C 0.69116 0.97916 0.23646 0.0
C657 C 0.75166 1.0019 0.15176 0.0
C658 C 0.72301 1.00383 0.08858 0.0
C659 C 0.66357 1.01025 0.09231 0.0
C660 C 0.63646 1.0145 0.16131 0.0
C661 C 0.69234 0.99558 0.13451 0.0
C662 C 0.63261 0.99297 0.25017 0.0
C663 C 0.66006 0.97445 0.28653 0.0
H664 H 0.46582 0.76858 0.27843 0.0
H665 H 0.55757 0.71578 0.2269 0.0
H666 H 0.52662 0.66343 0.2046 0.0
H667 H 0.47485 0.63542 0.18716 0.0
H668 H 0.38098 0.6869 0.23379 0.0
H669 H 0.41209 0.73714 0.28138 0.0
C670 C 0.47855 0.74552 0.25981 0.0
C671 C 0.51341 0.7455 0.24956 0.0
C672 C 0.46063 0.71569 0.25015 0.0
C673 C 0.53052 0.71585 0.23087 0.0
C674 C 0.51294 0.68613 0.2205 0.0
C675 C 0.46016 0.65696 0.2071 0.0
C676 C 0.42497 0.65752 0.1952 0.0
C677 C 0.47798 0.68599 0.22853 0.0
C678 C 0.40797 0.68594 0.23259 0.0
C679 C 0.42575 0.7149 0.25971 0.0
H680 H 0.78856 0.49811 0.27187 0.0
H681 H 0.843 0.58842 0.20441 0.0
H682 H 0.87869 0.55804 0.07603 0.0
H683 H 0.89322 0.50597 0.98579 0.0
H684 H 0.84242 0.41439 0.06917 0.0
H685 H 0.80429 0.44556 0.18627 0.0
C686 C 0.80887 0.51073 0.23048 0.0
C687 C 0.81408 0.54491 0.24736 0.0
C688 C 0.82859 0.49326 0.15835 0.0
C689 C 0.83943 0.5619 0.19266 0.0
C690 C 0.85924 0.54468 0.11905 0.0
C691 C 0.87366 0.49289 0.02949 0.0
C692 C 0.87054 0.45806 1.02077 0.0
C693 C 0.85375 0.51046 0.10112 0.0
C694 C 0.84489 0.44123 0.0749 0.0
C695 C 0.82364 0.45891 0.14274 0.0
H696 H 0.08438 0.24484 0.02273 0.0
H697 H 0.97912 0.26512 0.03972 0.0
H698 H 0.9666 0.2106 0.95749 0.0
H699 H 0.98579 0.15384 0.88839 0.0
H700 H 0.09083 0.14255 0.82643 0.0
H701 H 0.10289 0.19491 0.91778 0.0
C702 C 0.05863 0.23783 1.00644 0.0
C703 C 0.03291 0.25975 0.04082 0.0
C704 C 0.05147 0.2067 0.95302 0.0
C705 C 0.99977 0.24934 1.01741 0.0
C706 C 0.99252 0.21773 0.96978 0.0
C707 C 1.01138 0.16269 0.89453 0.0
C708 C 0.03775 0.14155 0.8575 0.0
C709 C 1.01814 0.19553 0.93898 0.0
C710 C 0.0702 0.15559 0.86241 0.0
C711 C 0.07713 0.18651 0.91258 0.0
H712 H 0.32463 1.02334 0.09375 0.0
H713 H 0.29932 0.11433 0.93023 0.0
H714 H 0.35198 0.11215 0.82845 0.0
H715 H 0.40903 0.08648 0.79506 0.0
H716 H 0.43705 1.00209 0.99013 0.0
H717 H 0.38054 0.99837 0.06146 0.0
C718 C 0.33015 0.04235 0.0341 0.0
C719 C 0.30678 0.06869 1.01928 0.0
C720 C 0.36192 0.04199 0.97965 0.0
C721 C 0.3157 0.09327 0.94252 0.0
C722 C 0.34641 0.09226 0.88501 0.0
C723 C 0.40288 0.06708 0.8528 0.0
C724 C 0.42793 0.04302 0.88015 0.0
C725 C 0.37039 0.06712 0.90425 0.0
C726 C 0.41877 1.0195 0.95999 0.0
C727 C 0.38628 1.01796 1.00419 0.0
H728 H 0.56375 0.31695 0.93758 0.0
H729 H 0.47244 0.33148 0.11365 0.0
H730 H 0.4653 0.38595 0.02645 0.0
H731 H 0.48774 0.43225 0.91191 0.0
H732 H 0.58114 0.41909 0.74619 0.0
H733 H 0.58468 0.36229 0.81684 0.0
C734 C 0.54184 0.33168 0.9553 0.0
C735 C 0.51851 0.31927 0.03268 0.0
C736 C 0.53869 0.36407 0.90811 0.0
C737 C 0.49048 0.33935 0.05372 0.0
C738 C 0.48677 0.37109 1.00501 0.0
C739 C 0.50909 0.41741 0.89181 0.0
C740 C 0.53438 0.43128 0.82407 0.0
C741 C 0.51119 0.38426 0.93435 0.0
C742 C 0.56112 0.41006 0.79731 0.0
C743 C 0.56324 0.37723 0.8383 0.0
H744 H 0.24686 0.57378 0.99924 0.0
H745 H 0.25095 0.46728 0.03558 0.0
H746 H 0.1964 0.46189 0.94438 0.0
H747 H 0.14496 0.48752 0.86314 0.0
H748 H 0.13896 0.59416 0.838 0.0
H749 H 0.19573 0.59934 0.91372 0.0
C750 C 0.23613 0.54928 0.98678 0.0
C751 C 0.25415 0.5208 0.02441 0.0
C752 C 0.2036 0.54643 0.93648 0.0
C753 C 0.23883 0.48957 1.00581 0.0
C754 C 0.20708 0.48655 0.95472 0.0
C755 C 0.15567 0.51196 0.87545 0.0
C756 C 0.1366 0.54041 0.84463 0.0
C757 C 0.18872 0.51478 0.92143 0.0
C758 C 0.15233 0.57168 0.85919 0.0
C759 C 0.18509 0.57465 0.90352 0.0
H760 H 0.06726 0.82321 0.56439 0.0
H761 H 0.96951 0.82661 0.41641 0.0
H762 H 0.96113 0.8825 0.49239 0.0
H763 H 0.98259 0.93249 0.59648 0.0
H764 H 0.08065 0.92892 0.74137 0.0
H765 H 0.08751 0.87201 0.67399 0.0
C766 C 0.04386 0.83594 0.54947 0.0
C767 C 1.01887 0.81954 0.48486 0.0
C768 C 0.0394 0.86883 0.59266 0.0
C769 C 0.98898 0.83731 0.46713 0.0
C770 C 0.9844 0.86988 0.50979 0.0
C771 C 1.00576 0.91981 0.61147 0.0
C772 C 0.03134 0.9365 0.67281 0.0
C773 C 1.00958 0.88631 0.57152 0.0
C774 C 0.06036 0.91776 0.6951 0.0
C775 C 0.0644 0.88487 0.65567 0.0
H776 H 0.71541 0.04037 0.3491 0.0
H777 H 0.77589 1.01634 0.62745 0.0
H778 H 0.72678 1.02281 0.74576 0.0
H779 H 0.66289 0.03092 0.76904 0.0
H780 H 0.60514 0.04758 0.47618 0.0
H781 H 0.65516 0.04521 0.37229 0.0
C782 C 0.71815 0.03582 0.4353 0.0
C783 C 0.7502 0.02703 0.47648 0.0
C784 C 0.68916 0.03769 0.50315 0.0
C785 C 0.75222 1.02309 0.59076 0.0
C786 C 0.72363 0.02645 0.65919 0.0
C787 C 0.66113 0.0347 0.68216 0.0
C788 C 0.62864 0.03986 0.63356 0.0
C789 C 0.69132 0.03316 0.61644 0.0
C790 C 0.62842 0.044 0.51988 0.0
C791 C 0.65758 0.04304 0.45786 0.0
H792 H 0.59529 0.73647 0.47045 0.0
H793 H 0.49084 0.76119 0.47517 0.0
H794 H 0.47792 0.70823 0.56419 0.0
H795 H 0.49584 0.65133 0.62842 0.0
H796 H 0.60084 0.63643 0.6832 0.0
H797 H 0.61397 0.68755 0.58516 0.0
C798 C 0.56985 0.73106 0.49465 0.0
C799 C 0.54399 0.75316 0.462 0.0
C800 C 0.56257 0.70101 0.55384 0.0
C801 C 0.51132 0.74485 0.49619 0.0
C802 C 0.5038 0.7142 0.54708 0.0
C803 C 0.52165 0.65919 0.61991 0.0
C804 C 0.54755 0.63723 0.65398 0.0
C805 C 0.52909 0.69136 0.57389 0.0
C806 C 0.58045 0.65002 0.64715 0.0
C807 C 0.588 0.68021 0.59358 0.0
H808 H 0.82735 0.59463 0.51331 0.0
H809 H 0.80675 0.49038 0.46865 0.0
H810 H 0.86107 0.47658 0.55275 0.0
H811 H 0.91778 0.49474 0.63002 0.0
H812 H 0.93211 0.59913 0.69813 0.0
H813 H 0.8787 0.61189 0.61457 0.0
C814 C 0.83415 0.56878 0.52503 0.0
C815 C 0.8119 0.54372 0.48559 0.0
C816 C 0.86554 0.56096 0.57571 0.0
C817 C 0.82233 0.51041 0.49968 0.0
C818 C 0.85391 0.50251 0.5471 0.0
C819 C 0.90925 0.52029 0.6276 0.0
C820 C 0.93122 0.54618 0.66596 0.0
C821 C 0.87632 0.52759 0.58418 0.0
C822 C 0.91799 0.57873 0.66361 0.0
C823 C 0.88659 0.58612 0.61719 0.0
loop_
_geom_bond_atom_site_label_1
_geom_bond_atom_site_label_2
_geom_bond_distance
_geom_bond_site_symmetry_2
_ccdc_geom_bond_type
C0 N1 1.317 . S
C0 N2 1.348 . S
C0 C3 1.485 . S
N1 C0 1.317 . S
N1 N5 1.370 . S
N2 C0 1.348 . S
N2 C4 1.346 . S
C3 C0 1.485 . S
C3 H7 0.960 . S
C3 H8 0.961 . S
C3 H9 0.960 . S
C4 N2 1.346 . S
C4 N5 1.307 . S
C4 C6 1.486 . S
N5 N1 1.370 . S
N5 C4 1.307 . S
C6 C4 1.486 . S
C6 H10 0.960 . S
C6 H11 0.960 . S
C6 H12 0.959 . S
H7 C3 0.960 . S
H8 C3 0.961 . S
H9 C3 0.960 . S
H10 C6 0.960 . S
H11 C6 0.960 . S
H12 C6 0.959 . S
C13 N14 1.317 . S
C13 N15 1.348 . S
C13 C16 1.485 . S
N14 C13 1.317 . S
N14 N18 1.370 . S
N15 C13 1.348 . S
N15 C17 1.346 . S
C16 C13 1.485 . S
C16 H20 0.960 1_655 S
C16 H21 0.961 . S
C16 H22 0.960 . S
C17 N15 1.346 . S
C17 N18 1.307 . S
C17 C19 1.486 . S
N18 N14 1.370 . S
N18 C17 1.307 . S
C19 C17 1.486 . S
C19 H23 0.960 . S
C19 H24 0.960 1_655 S
C19 H25 0.959 . S
H20 C16 0.960 1_455 S
H21 C16 0.961 . S
H22 C16 0.960 . S
H23 C19 0.960 . S
H24 C19 0.960 1_455 S
H25 C19 0.959 . S
C26 N27 1.317 . S
C26 N28 1.348 . S
C26 C29 1.485 . S
N27 C26 1.317 . S
N27 N31 1.370 . S
N28 C26 1.348 . S
N28 C30 1.346 . S
C29 C26 1.485 . S
C29 H33 0.960 1_565 S
C29 H34 0.961 . S
C29 H35 0.960 . S
C30 N28 1.346 . S
C30 N31 1.307 . S
C30 C32 1.486 . S
N31 N27 1.370 . S
N31 C30 1.307 . S
C32 C30 1.486 . S
C32 H36 0.960 . S
C32 H37 0.960 1_565 S
C32 H38 0.959 . S
H33 C29 0.960 1_545 S
H34 C29 0.961 . S
H35 C29 0.960 . S
H36 C32 0.960 . S
H37 C32 0.960 1_545 S
H38 C32 0.959 . S
C39 N40 1.317 . S
C39 N41 1.348 . S
C39 C42 1.485 . S
N40 C39 1.317 . S
N40 N44 1.370 . S
N41 C39 1.348 . S
N41 C43 1.346 . S
C42 C39 1.485 . S
C42 H46 0.960 . S
C42 H47 0.961 . S
C42 H48 0.960 . S
C43 N41 1.346 . S
C43 N44 1.307 . S
C43 C45 1.486 . S
N44 N40 1.370 . S
N44 C43 1.307 . S
C45 C43 1.486 . S
C45 H49 0.960 . S
C45 H50 0.960 . S
C45 H51 0.959 . S
H46 C42 0.960 . S
H47 C42 0.961 . S
H48 C42 0.960 . S
H49 C45 0.960 . S
H50 C45 0.960 . S
H51 C45 0.959 . S
C52 N53 1.317 . S
C52 N54 1.348 1_556 S
C52 C55 1.485 . S
N53 C52 1.317 . S
N53 N57 1.370 1_556 S
N54 C52 1.348 1_554 S
N54 C56 1.346 . S
C55 C52 1.485 . S
C55 H59 0.960 . S
C55 H60 0.961 . S
C55 H61 0.960 . S
C56 N54 1.346 . S
C56 N57 1.307 . S
C56 C58 1.486 . S
N57 N53 1.370 1_554 S
N57 C56 1.307 . S
C58 C56 1.486 . S
C58 H62 0.960 . S
C58 H63 0.960 . S
C58 H64 0.959 . S
H59 C55 0.960 . S
H60 C55 0.961 . S
H61 C55 0.960 . S
H62 C58 0.960 . S
H63 C58 0.960 . S
H64 C58 0.959 . S
C65 N66 1.317 . S
C65 N67 1.348 1_556 S
C65 C68 1.485 . S
N66 C65 1.317 . S
N66 N70 1.370 1_556 S
N67 C65 1.348 1_554 S
N67 C69 1.346 . S
C68 C65 1.485 . S
C68 H72 0.960 . S
C68 H73 0.961 . S
C68 H74 0.960 . S
C69 N67 1.346 . S
C69 N70 1.307 . S
C69 C71 1.486 . S
N70 N66 1.370 1_554 S
N70 C69 1.307 . S
C71 C69 1.486 . S
C71 H75 0.960 . S
C71 H76 0.960 . S
C71 H77 0.959 . S
H72 C68 0.960 . S
H73 C68 0.961 . S
H74 C68 0.960 . S
H75 C71 0.960 . S
H76 C71 0.960 . S
H77 C71 0.959 . S
C78 N79 1.317 . S
C78 N80 1.348 1_556 S
C78 C81 1.485 . S
N79 C78 1.317 . S
N79 N83 1.370 1_556 S
N80 C78 1.348 1_554 S
N80 C82 1.346 . S
C81 C78 1.485 . S
C81 H85 0.960 . S
C81 H86 0.961 . S
C81 H87 0.960 . S
C82 N80 1.346 . S
C82 N83 1.307 . S
C82 C84 1.486 . S
N83 N79 1.370 1_554 S
N83 C82 1.307 . S
C84 C82 1.486 . S
C84 H88 0.960 . S
C84 H89 0.960 . S
C84 H90 0.959 . S
H85 C81 0.960 . S
H86 C81 0.961 . S
H87 C81 0.960 . S
H88 C84 0.960 . S
H89 C84 0.960 . S
H90 C84 0.959 . S
C91 N92 1.317 . S
C91 N93 1.348 1_556 S
C91 C94 1.485 . S
N92 C91 1.317 . S
N92 N96 1.370 1_556 S
N93 C91 1.348 1_554 S
N93 C95 1.346 . S
C94 C91 1.485 . S
C94 H98 0.960 . S
C94 H99 0.961 . S
C94 H100 0.960 . S
C95 N93 1.346 . S
C95 N96 1.307 . S
C95 C97 1.486 . S
N96 N92 1.370 1_554 S
N96 C95 1.307 . S
C97 C95 1.486 . S
C97 H101 0.960 . S
C97 H102 0.960 . S
C97 H103 0.959 . S
H98 C94 0.960 . S
H99 C94 0.961 . S
H100 C94 0.960 . S
H101 C97 0.960 . S
H102 C97 0.960 . S
H103 C97 0.959 . S
Eu104 N133 2.600 . S
Eu104 N139 2.562 . S
Eu104 O148 2.462 . S
Eu104 O149 2.373 1_545 S
Eu104 O151 2.432 . S
Eu104 O152 2.291 1_655 S
Eu104 O156 2.335 1_655 S
Eu104 O159 2.372 . S
Eu104 C168 2.787 . S
C105 N106 1.365 . S
C105 C108 1.405 1_556 S
C105 C112 1.448 1_556 S
N106 C105 1.365 . S
N106 C109 1.319 . S
N106 Eu115 2.600 1_545 S
C107 C109 1.397 . S
C107 C110 1.367 . S
C107 H127 0.931 . S
C108 C105 1.405 1_554 S
C108 C110 1.403 1_554 S
C108 C114 1.439 . S
C109 N106 1.319 . S
C109 C107 1.397 . S
C109 H120 0.930 1_545 S
C110 C107 1.367 . S
C110 C108 1.403 1_556 S
C110 H131 0.929 . S
C111 C112 1.430 . S
C111 C113 1.387 . S
C111 C117 1.404 . S
C112 C105 1.448 1_554 S
C112 C111 1.430 . S
C112 N116 1.351 . S
C113 C111 1.387 . S
C113 C114 1.374 . S
C113 H128 0.931 . S
C114 C108 1.439 . S
C114 C113 1.374 . S
C114 H129 0.931 . S
Eu115 N106 2.600 1_565 S
Eu115 N116 2.562 1_566 S
Eu115 O150 2.335 . S
Eu115 O153 2.372 . S
Eu115 O154 2.462 . S
Eu115 O155 2.373 1_565 S
Eu115 O157 2.432 . S
Eu115 O158 2.291 1_465 S
Eu115 C179 2.787 . S
N116 C112 1.351 . S
N116 Eu115 2.562 1_544 S
N116 C118 1.325 . S
C117 C111 1.404 . S
C117 C119 1.366 . S
C117 H125 0.930 . S
C118 N116 1.325 . S
C118 C119 1.416 . S
C118 H124 0.930 . S
C119 C117 1.366 . S
C119 C118 1.416 . S
C119 H121 0.930 . S
H120 C109 0.930 1_565 S
H121 C119 0.930 . S
H122 C137 0.930 . S
H123 C144 0.930 1_455 S
H124 C118 0.930 . S
H125 C117 0.930 . S
H126 C140 0.929 1_455 S
H127 C107 0.931 . S
H128 C113 0.931 . S
H129 C114 0.931 . S
H130 C135 0.931 . S
H131 C110 0.929 . S
H132 C143 0.930 . S
N133 Eu104 2.600 . S
N133 C134 1.365 1_545 S
N133 C137 1.319 . S
C134 N133 1.365 1_565 S
C134 C136 1.405 . S
C134 C142 1.448 . S
C135 H130 0.931 . S
C135 C137 1.397 . S
C135 C138 1.367 1_545 S
C136 C134 1.405 . S
C136 C138 1.403 . S
C136 C169 1.439 . S
C137 H122 0.930 . S
C137 N133 1.319 . S
C137 C135 1.397 . S
C138 C135 1.367 1_565 S
C138 C136 1.403 . S
C138 H145 0.929 . S
N139 Eu104 2.562 . S
N139 C140 1.325 . S
N139 C142 1.351 1_545 S
C140 H126 0.929 1_655 S
C140 N139 1.325 . S
C140 C144 1.416 1_545 S
C141 C142 1.430 . S
C141 C143 1.404 . S
C141 C170 1.387 . S
C142 C134 1.448 . S
C142 N139 1.351 1_565 S
C142 C141 1.430 . S
C143 H132 0.930 . S
C143 C141 1.404 . S
C143 C144 1.366 . S
C144 H123 0.930 1_655 S
C144 C140 1.416 1_565 S
C144 C143 1.366 . S
H145 C138 0.929 . S
H146 C169 0.931 . S
H147 C170 0.931 . S
O148 Eu104 2.462 . S
O148 C168 1.252 . S
O149 Eu104 2.373 1_565 S
O149 C160 1.249 . S
O150 Eu115 2.335 . S
O150 C160 1.264 1_455 S
O151 Eu104 2.432 . S
O151 C168 1.268 . S
O152 Eu104 2.291 1_455 S
O152 C167 1.255 . S
O153 Eu115 2.372 . S
O153 C167 1.257 1_565 S
O154 Eu115 2.462 . S
O154 C179 1.252 . S
O155 Eu115 2.373 1_545 S
O155 C171 1.249 . S
O156 Eu104 2.335 1_455 S
O156 C171 1.264 . S
O157 Eu115 2.432 . S
O157 C179 1.268 . S
O158 Eu115 2.291 1_645 S
O158 C178 1.255 . S
O159 Eu104 2.372 . S
O159 C178 1.257 . S
C160 O149 1.249 . S
C160 O150 1.264 1_655 S
C161 C164 1.382 . S
C161 C166 1.390 . S
C161 C168 1.506 . S
C162 C163 1.398 . S
C162 C166 1.392 . S
C163 C162 1.398 . S
C163 C165 1.372 . S
C163 H180 0.931 . S
C164 C161 1.382 . S
C164 C165 1.390 . S
C164 H181 0.931 . S
C165 C163 1.372 . S
C165 C164 1.390 . S
C165 H182 0.929 . S
C166 C161 1.390 . S
C166 C162 1.392 . S
C166 H183 0.930 1_655 S
C167 O152 1.255 . S
C167 O153 1.257 1_545 S
C168 Eu104 2.787 . S
C168 O148 1.252 . S
C168 O151 1.268 . S
C168 C161 1.506 . S
C169 C136 1.439 . S
C169 H146 0.931 . S
C169 C170 1.374 . S
C170 C141 1.387 . S
C170 H147 0.931 . S
C170 C169 1.374 . S
C171 O155 1.249 . S
C171 O156 1.264 . S
C172 C175 1.382 . S
C172 C176 1.390 . S
C172 C179 1.506 1_554 S
C173 C174 1.398 . S
C173 C176 1.392 . S
C174 C173 1.398 . S
C174 C177 1.372 . S
C174 H184 0.931 . S
C175 C172 1.382 . S
C175 C177 1.390 . S
C175 H185 0.931 1_554 S
C176 C172 1.390 . S
C176 C173 1.392 . S
C176 H186 0.930 . S
C177 C174 1.372 . S
C177 C175 1.390 . S
C177 H187 0.929 . S
C178 O158 1.255 . S
C178 O159 1.257 . S
C179 Eu115 2.787 . S
C179 O154 1.252 . S
C179 O157 1.268 . S
C179 C172 1.506 1_556 S
H180 C163 0.931 . S
H181 C164 0.931 . S
H182 C165 0.929 . S
H183 C166 0.930 1_455 S
H184 C174 0.931 . S
H185 C175 0.931 1_556 S
H186 C176 0.930 . S
H187 C177 0.929 . S
Eu188 N217 2.600 . S
Eu188 N223 2.562 . S
Eu188 O232 2.462 . S
Eu188 O233 2.373 . S
Eu188 O235 2.432 1_556 S
Eu188 O236 2.291 . S
Eu188 O240 2.335 1_545 S
Eu188 O243 2.372 . S
Eu188 C252 2.787 1_556 S
C189 N190 1.365 . S
C189 C192 1.405 . S
C189 C196 1.448 . S
N190 C189 1.365 . S
N190 C193 1.319 . S
N190 Eu199 2.600 . S
C191 C193 1.397 . S
C191 C194 1.367 . S
C191 H211 0.931 . S
C192 C189 1.405 . S
C192 C194 1.403 . S
C192 C198 1.439 . S
C193 N190 1.319 . S
C193 C191 1.397 . S
C193 H204 0.930 . S
C194 C191 1.367 . S
C194 C192 1.403 . S
C194 H215 0.929 . S
C195 C196 1.430 . S
C195 C197 1.387 . S
C195 C201 1.404 . S
C196 C189 1.448 . S
C196 C195 1.430 . S
C196 N200 1.351 . S
C197 C195 1.387 . S
C197 C198 1.374 . S
C197 H212 0.931 . S
C198 C192 1.439 . S
C198 C197 1.374 . S
C198 H213 0.931 . S
Eu199 N190 2.600 . S
Eu199 N200 2.562 . S
Eu199 O234 2.335 1_565 S
Eu199 O237 2.372 . S
Eu199 O238 2.462 . S
Eu199 O239 2.373 . S
Eu199 O241 2.432 . S
Eu199 O242 2.291 1_565 S
Eu199 C263 2.787 . S
N200 C196 1.351 . S
N200 Eu199 2.562 . S
N200 C202 1.325 . S
C201 C195 1.404 . S
C201 C203 1.366 . S
C201 H209 0.930 . S
C202 N200 1.325 . S
C202 C203 1.416 . S
C202 H208 0.929 . S
C203 C201 1.366 . S
C203 C202 1.416 . S
C203 H205 0.930 . S
H204 C193 0.930 . S
H205 C203 0.930 . S
H206 C221 0.930 1_554 S
H207 C228 0.930 . S
H208 C202 0.929 . S
H209 C201 0.930 . S
H210 C224 0.929 . S
H211 C191 0.931 . S
H212 C197 0.931 . S
H213 C198 0.931 . S
H214 C219 0.931 . S
H215 C194 0.929 . S
H216 C227 0.930 . S
N217 Eu188 2.600 . S
N217 C218 1.365 . S
N217 C221 1.319 . S
C218 N217 1.365 . S
C218 C220 1.405 . S
C218 C226 1.448 . S
C219 H214 0.931 . S
C219 C221 1.397 1_554 S
C219 C222 1.367 1_554 S
C220 C218 1.405 . S
C220 C222 1.403 . S
C220 C253 1.439 . S
C221 H206 0.930 1_556 S
C221 N217 1.319 . S
C221 C219 1.397 1_556 S
C222 C219 1.367 1_556 S
C222 C220 1.403 . S
C222 H229 0.929 1_556 S
N223 Eu188 2.562 . S
N223 C224 1.325 . S
N223 C226 1.351 . S
C224 H210 0.929 . S
C224 N223 1.325 . S
C224 C228 1.416 . S
C225 C226 1.430 . S
C225 C227 1.404 . S
C225 C254 1.387 . S
C226 C218 1.448 . S
C226 N223 1.351 . S
C226 C225 1.430 . S
C227 H216 0.930 . S
C227 C225 1.404 . S
C227 C228 1.366 . S
C228 H207 0.930 . S
C228 C224 1.416 . S
C228 C227 1.366 . S
H229 C222 0.929 1_554 S
H230 C253 0.931 . S
H231 C254 0.931 . S
O232 Eu188 2.462 . S
O232 C252 1.252 1_556 S
O233 Eu188 2.373 . S
O233 C244 1.249 . S
O234 Eu199 2.335 1_545 S
O234 C244 1.264 . S
O235 Eu188 2.432 1_554 S
O235 C252 1.268 . S
O236 Eu188 2.291 . S
O236 C251 1.255 . S
O237 Eu199 2.372 . S
O237 C251 1.257 1_565 S
O238 Eu199 2.462 . S
O238 C263 1.252 . S
O239 Eu199 2.373 . S
O239 C255 1.249 . S
O240 Eu188 2.335 1_565 S
O240 C255 1.264 . S
O241 Eu199 2.432 . S
O241 C263 1.268 . S
O242 Eu199 2.291 1_545 S
O242 C262 1.255 . S
O243 Eu188 2.372 . S
O243 C262 1.257 . S
C244 O233 1.249 . S
C244 O234 1.264 . S
C245 C248 1.382 . S
C245 C250 1.390 . S
C245 C252 1.506 . S
C246 C247 1.398 . S
C246 C250 1.392 . S
C247 C246 1.398 . S
C247 C249 1.372 . S
C247 H264 0.931 . S
C248 C245 1.382 . S
C248 C249 1.390 . S
C248 H265 0.931 . S
C249 C247 1.372 . S
C249 C248 1.390 . S
C249 H266 0.929 . S
C250 C245 1.390 . S
C250 C246 1.392 . S
C250 H267 0.930 . S
C251 O236 1.255 . S
C251 O237 1.257 1_545 S
C252 Eu188 2.787 1_554 S
C252 O232 1.252 1_554 S
C252 O235 1.268 . S
C252 C245 1.506 . S
C253 C220 1.439 . S
C253 H230 0.931 . S
C253 C254 1.374 . S
C254 C225 1.387 . S
C254 H231 0.931 . S
C254 C253 1.374 . S
C255 O239 1.249 . S
C255 O240 1.264 . S
C256 C259 1.382 . S
C256 C260 1.390 . S
C256 C263 1.506 . S
C257 C258 1.398 . S
C257 C260 1.392 . S
C258 C257 1.398 . S
C258 C261 1.372 . S
C258 H268 0.931 . S
C259 C256 1.382 . S
C259 C261 1.390 . S
C259 H269 0.931 . S
C260 C256 1.390 . S
C260 C257 1.392 . S
C260 H270 0.930 1_565 S
C261 C258 1.372 . S
C261 C259 1.390 . S
C261 H271 0.929 . S
C262 O242 1.255 . S
C262 O243 1.257 . S
C263 Eu199 2.787 . S
C263 O238 1.252 . S
C263 O241 1.268 . S
C263 C256 1.506 . S
H264 C247 0.931 . S
H265 C248 0.931 . S
H266 C249 0.929 . S
H267 C250 0.930 . S
H268 C258 0.931 . S
H269 C259 0.931 . S
H270 C260 0.930 1_545 S
H271 C261 0.929 . S
Eu272 N301 2.600 . S
Eu272 N307 2.562 . S
Eu272 O316 2.462 . S
Eu272 O317 2.373 . S
Eu272 O319 2.432 . S
Eu272 O320 2.291 . S
Eu272 O324 2.335 . S
Eu272 O327 2.372 . S
Eu272 C336 2.787 . S
C273 N274 1.365 . S
C273 C276 1.405 1_556 S
C273 C280 1.448 1_556 S
N274 C273 1.365 . S
N274 C277 1.319 . S
N274 Eu283 2.600 . S
C275 C277 1.397 . S
C275 C278 1.367 . S
C275 H295 0.931 . S
C276 C273 1.405 1_554 S
C276 C278 1.403 1_554 S
C276 C282 1.439 . S
C277 N274 1.319 . S
C277 C275 1.397 . S
C277 H288 0.930 . S
C278 C275 1.367 . S
C278 C276 1.403 1_556 S
C278 H299 0.929 . S
C279 C280 1.430 . S
C279 C281 1.387 . S
C279 C285 1.404 . S
C280 C273 1.448 1_554 S
C280 C279 1.430 . S
C280 N284 1.351 . S
C281 C279 1.387 . S
C281 C282 1.374 . S
C281 H296 0.931 . S
C282 C276 1.439 . S
C282 C281 1.374 . S
C282 H297 0.931 . S
Eu283 N274 2.600 . S
Eu283 N284 2.562 1_556 S
Eu283 O318 2.335 . S
Eu283 O321 2.372 . S
Eu283 O322 2.462 . S
Eu283 O323 2.373 . S
Eu283 O325 2.432 . S
Eu283 O326 2.291 . S
Eu283 C347 2.787 . S
N284 C280 1.351 . S
N284 Eu283 2.562 1_554 S
N284 C286 1.325 . S
C285 C279 1.404 . S
C285 C287 1.366 . S
C285 H293 0.930 . S
C286 N284 1.325 . S
C286 C287 1.416 . S
C286 H292 0.929 . S
C287 C285 1.366 . S
C287 C286 1.416 . S
C287 H289 0.930 . S
H288 C277 0.930 . S
H289 C287 0.930 . S
H290 C305 0.930 . S
H291 C312 0.930 . S
H292 C286 0.929 . S
H293 C285 0.930 . S
H294 C308 0.929 . S
H295 C275 0.931 . S
H296 C281 0.931 . S
H297 C282 0.931 . S
H298 C303 0.931 . S
H299 C278 0.929 . S
H300 C311 0.930 . S
N301 Eu272 2.600 . S
N301 C302 1.365 . S
N301 C305 1.319 . S
C302 N301 1.365 . S
C302 C304 1.405 . S
C302 C310 1.448 . S
C303 H298 0.931 . S
C303 C305 1.397 . S
C303 C306 1.367 . S
C304 C302 1.405 . S
C304 C306 1.403 . S
C304 C337 1.439 . S
C305 H290 0.930 . S
C305 N301 1.319 . S
C305 C303 1.397 . S
C306 C303 1.367 . S
C306 C304 1.403 . S
C306 H313 0.929 . S
N307 Eu272 2.562 . S
N307 C308 1.325 . S
N307 C310 1.351 . S
C308 H294 0.929 . S
C308 N307 1.325 . S
C308 C312 1.416 . S
C309 C310 1.430 . S
C309 C311 1.404 . S
C309 C338 1.387 . S
C310 C302 1.448 . S
C310 N307 1.351 . S
C310 C309 1.430 . S
C311 H300 0.930 . S
C311 C309 1.404 . S
C311 C312 1.366 . S
C312 H291 0.930 . S
C312 C308 1.416 . S
C312 C311 1.366 . S
H313 C306 0.929 . S
H314 C337 0.931 . S
H315 C338 0.931 . S
O316 Eu272 2.462 . S
O316 C336 1.252 . S
O317 Eu272 2.373 . S
O317 C328 1.249 . S
O318 Eu283 2.335 . S
O318 C328 1.264 . S
O319 Eu272 2.432 . S
O319 C336 1.268 . S
O320 Eu272 2.291 . S
O320 C335 1.255 . S
O321 Eu283 2.372 . S
O321 C335 1.257 . S
O322 Eu283 2.462 . S
O322 C347 1.252 . S
O323 Eu283 2.373 . S
O323 C339 1.249 . S
O324 Eu272 2.335 . S
O324 C339 1.264 . S
O325 Eu283 2.432 . S
O325 C347 1.268 . S
O326 Eu283 2.291 . S
O326 C346 1.255 . S
O327 Eu272 2.372 . S
O327 C346 1.257 . S
C328 O317 1.249 . S
C328 O318 1.264 . S
C329 C332 1.382 . S
C329 C334 1.390 . S
C329 C336 1.506 . S
C330 C331 1.398 . S
C330 C334 1.392 . S
C331 C330 1.398 . S
C331 C333 1.372 . S
C331 H348 0.931 . S
C332 C329 1.382 . S
C332 C333 1.390 . S
C332 H349 0.931 . S
C333 C331 1.372 . S
C333 C332 1.390 . S
C333 H350 0.929 . S
C334 C329 1.390 . S
C334 C330 1.392 . S
C334 H351 0.930 . S
C335 O320 1.255 . S
C335 O321 1.257 . S
C336 Eu272 2.787 . S
C336 O316 1.252 . S
C336 O319 1.268 . S
C336 C329 1.506 . S
C337 C304 1.439 . S
C337 H314 0.931 . S
C337 C338 1.374 . S
C338 C309 1.387 . S
C338 H315 0.931 . S
C338 C337 1.374 . S
C339 O323 1.249 . S
C339 O324 1.264 . S
C340 C343 1.382 . S
C340 C344 1.390 . S
C340 C347 1.506 1_554 S
C341 C342 1.398 . S
C341 C344 1.392 . S
C342 C341 1.398 . S
C342 C345 1.372 . S
C342 H352 0.931 . S
C343 C340 1.382 . S
C343 C345 1.390 . S
C343 H353 0.931 1_554 S
C344 C340 1.390 . S
C344 C341 1.392 . S
C344 H354 0.930 . S
C345 C342 1.372 . S
C345 C343 1.390 . S
C345 H355 0.929 . S
C346 O326 1.255 . S
C346 O327 1.257 . S
C347 Eu283 2.787 . S
C347 O322 1.252 . S
C347 O325 1.268 . S
C347 C340 1.506 1_556 S
H348 C331 0.931 . S
H349 C332 0.931 . S
H350 C333 0.929 . S
H351 C334 0.930 . S
H352 C342 0.931 . S
H353 C343 0.931 1_556 S
H354 C344 0.930 . S
H355 C345 0.929 . S
Eu356 N385 2.600 . S
Eu356 N391 2.562 . S
Eu356 O400 2.462 . S
Eu356 O401 2.373 1_455 S
Eu356 O403 2.432 . S
Eu356 O404 2.291 . S
Eu356 O408 2.335 . S
Eu356 O411 2.372 . S
Eu356 C420 2.787 . S
C357 N358 1.365 . S
C357 C360 1.405 1_556 S
C357 C364 1.448 1_556 S
N358 C357 1.365 . S
N358 C361 1.321 . S
N358 Eu367 2.600 1_455 S
C359 C361 1.402 . S
C359 C362 1.367 . S
C359 H379 0.931 . S
C360 C357 1.405 1_554 S
C360 C362 1.403 1_554 S
C360 C366 1.439 . S
C361 N358 1.321 . S
C361 C359 1.402 . S
C361 H372 0.923 1_455 S
C362 C359 1.367 . S
C362 C360 1.403 1_556 S
C362 H383 0.929 . S
C363 C364 1.430 . S
C363 C365 1.387 . S
C363 C369 1.404 . S
C364 C357 1.448 1_554 S
C364 C363 1.430 . S
C364 N368 1.351 . S
C365 C363 1.387 . S
C365 C366 1.374 . S
C365 H380 0.931 . S
C366 C360 1.439 . S
C366 C365 1.374 . S
C366 H381 0.931 . S
Eu367 N358 2.600 1_655 S
Eu367 N368 2.562 1_656 S
Eu367 O402 2.335 . S
Eu367 O405 2.372 . S
Eu367 O406 2.462 . S
Eu367 O407 2.373 1_655 S
Eu367 O409 2.432 . S
Eu367 O410 2.291 1_655 S
Eu367 C431 2.787 . S
N368 C364 1.351 . S
N368 Eu367 2.562 1_454 S
N368 C370 1.325 . S
C369 C363 1.404 . S
C369 C371 1.366 . S
C369 H377 0.930 . S
C370 N368 1.325 . S
C370 C371 1.416 . S
C370 H376 0.929 . S
C371 C369 1.366 . S
C371 C370 1.416 . S
C371 H373 0.930 . S
H372 C361 0.923 1_655 S
H373 C371 0.930 . S
H374 C389 0.930 . S
H375 C396 0.930 . S
H376 C370 0.929 . S
H377 C369 0.930 . S
H378 C392 0.929 . S
H379 C359 0.931 . S
H380 C365 0.931 . S
H381 C366 0.931 . S
H382 C387 0.931 . S
H383 C362 0.929 . S
H384 C395 0.930 . S
N385 Eu356 2.600 . S
N385 C386 1.365 1_455 S
N385 C389 1.319 . S
C386 N385 1.365 1_655 S
C386 C388 1.405 . S
C386 C394 1.448 . S
C387 H382 0.931 . S
C387 C389 1.397 . S
C387 C390 1.367 1_455 S
C388 C386 1.405 . S
C388 C390 1.403 . S
C388 C421 1.439 . S
C389 H374 0.930 . S
C389 N385 1.319 . S
C389 C387 1.397 . S
C390 C387 1.367 1_655 S
C390 C388 1.403 . S
C390 H397 0.929 . S
N391 Eu356 2.562 . S
N391 C392 1.325 . S
N391 C394 1.351 1_455 S
C392 H378 0.929 . S
C392 N391 1.325 . S
C392 C396 1.416 1_455 S
C393 C394 1.430 . S
C393 C395 1.404 . S
C393 C422 1.387 . S
C394 C386 1.448 . S
C394 N391 1.351 1_655 S
C394 C393 1.430 . S
C395 H384 0.930 . S
C395 C393 1.404 . S
C395 C396 1.366 . S
C396 H375 0.930 . S
C396 C392 1.416 1_655 S
C396 C395 1.366 . S
H397 C390 0.929 . S
H398 C421 0.931 . S
H399 C422 0.931 . S
O400 Eu356 2.462 . S
O400 C420 1.252 . S
O401 Eu356 2.373 1_655 S
O401 C412 1.249 . S
O402 Eu367 2.335 . S
O402 C412 1.264 . S
O403 Eu356 2.432 . S
O403 C420 1.268 . S
O404 Eu356 2.291 . S
O404 C419 1.255 . S
O405 Eu367 2.372 . S
O405 C419 1.257 1_655 S
O406 Eu367 2.462 . S
O406 C431 1.252 . S
O407 Eu367 2.373 1_455 S
O407 C423 1.249 . S
O408 Eu356 2.335 . S
O408 C423 1.264 . S
O409 Eu367 2.432 . S
O409 C431 1.268 . S
O410 Eu367 2.291 1_455 S
O410 C430 1.255 . S
O411 Eu356 2.372 . S
O411 C430 1.257 . S
C412 O401 1.249 . S
C412 O402 1.264 . S
C413 C416 1.382 . S
C413 C418 1.390 . S
C413 C420 1.506 . S
C414 C415 1.398 . S
C414 C418 1.392 . S
C415 C414 1.398 . S
C415 C417 1.372 . S
C415 H432 0.931 . S
C416 C413 1.382 . S
C416 C417 1.390 . S
C416 H433 0.931 . S
C417 C415 1.372 . S
C417 C416 1.390 . S
C417 H434 0.929 . S
C418 C413 1.390 . S
C418 C414 1.392 . S
C418 H435 0.930 . S
C419 O404 1.255 . S
C419 O405 1.257 1_455 S
C420 Eu356 2.787 . S
C420 O400 1.252 . S
C420 O403 1.268 . S
C420 C413 1.506 . S
C421 C388 1.439 . S
C421 H398 0.931 . S
C421 C422 1.374 . S
C422 C393 1.387 . S
C422 H399 0.931 . S
C422 C421 1.374 . S
C423 O407 1.249 . S
C423 O408 1.264 . S
C424 C427 1.382 . S
C424 C428 1.390 . S
C424 C431 1.506 1_554 S
C425 C426 1.398 . S
C425 C428 1.392 . S
C426 C425 1.398 . S
C426 C429 1.372 . S
C426 H436 0.931 . S
C427 C424 1.382 . S
C427 C429 1.390 . S
C427 H437 0.931 1_554 S
C428 C424 1.390 . S
C428 C425 1.392 . S
C428 H438 0.930 . S
C429 C426 1.372 . S
C429 C427 1.390 . S
C429 H439 0.929 . S
C430 O410 1.255 . S
C430 O411 1.257 . S
C431 Eu367 2.787 . S
C431 O406 1.252 . S
C431 O409 1.268 . S
C431 C424 1.506 1_556 S
H432 C415 0.931 . S
H433 C416 0.931 . S
H434 C417 0.929 . S
H435 C418 0.930 . S
H436 C426 0.931 . S
H437 C427 0.931 1_556 S
H438 C428 0.930 . S
H439 C429 0.929 . S
H440 C446 0.930 . S
H441 C449 0.930 . S
H442 C450 0.930 . S
H443 C451 0.930 . S
H444 C454 0.930 . S
H445 C455 0.930 . S
C446 H440 0.930 . S
C446 C447 1.355 . S
C446 C448 1.415 . S
C447 C446 1.355 . S
C447 C449 1.419 . S
C448 C446 1.415 . S
C448 C453 1.425 . S
C448 C455 1.409 . S
C449 H441 0.930 . S
C449 C447 1.419 . S
C449 C450 1.362 . S
C450 H442 0.930 . S
C450 C449 1.362 . S
C450 C453 1.409 . S
C451 H443 0.930 . S
C451 C452 1.355 . S
C451 C453 1.415 . S
C452 C451 1.355 . S
C452 C454 1.419 . S
C453 C448 1.425 . S
C453 C450 1.409 . S
C453 C451 1.415 . S
C454 H444 0.930 . S
C454 C452 1.419 . S
C454 C455 1.362 . S
C455 H445 0.930 . S
C455 C448 1.409 . S
C455 C454 1.362 . S
H456 C462 0.930 . S
H457 C465 0.930 . S
H458 C466 0.930 . S
H459 C467 0.930 . S
H460 C470 0.930 . S
H461 C471 0.930 . S
C462 H456 0.930 . S
C462 C463 1.355 . S
C462 C464 1.415 . S
C463 C462 1.355 . S
C463 C465 1.419 . S
C464 C462 1.415 . S
C464 C469 1.425 . S
C464 C471 1.409 . S
C465 H457 0.930 . S
C465 C463 1.419 . S
C465 C466 1.362 . S
C466 H458 0.930 . S
C466 C465 1.362 . S
C466 C469 1.409 . S
C467 H459 0.930 . S
C467 C468 1.355 . S
C467 C469 1.415 . S
C468 C467 1.355 . S
C468 C470 1.419 . S
C469 C464 1.425 . S
C469 C466 1.409 . S
C469 C467 1.415 . S
C470 H460 0.930 . S
C470 C468 1.419 . S
C470 C471 1.362 . S
C471 H461 0.930 . S
C471 C464 1.409 . S
C471 C470 1.362 . S
H472 C478 0.930 . S
H473 C481 0.930 . S
H474 C482 0.930 . S
H475 C483 0.930 . S
H476 C486 0.930 . S
H477 C487 0.930 . S
C478 H472 0.930 . S
C478 C479 1.355 . S
C478 C480 1.415 . S
C479 C478 1.355 . S
C479 C481 1.419 . S
C480 C478 1.415 . S
C480 C485 1.425 . S
C480 C487 1.409 . S
C481 H473 0.930 . S
C481 C479 1.419 . S
C481 C482 1.362 . S
C482 H474 0.930 . S
C482 C481 1.362 . S
C482 C485 1.409 . S
C483 H475 0.930 . S
C483 C484 1.355 . S
C483 C485 1.415 . S
C484 C483 1.355 . S
C484 C486 1.419 . S
C485 C480 1.425 . S
C485 C482 1.409 . S
C485 C483 1.415 . S
C486 H476 0.930 . S
C486 C484 1.419 . S
C486 C487 1.362 . S
C487 H477 0.930 . S
C487 C480 1.409 . S
C487 C486 1.362 . S
H488 C494 0.930 . S
H489 C497 0.930 . S
H490 C498 0.930 . S
H491 C499 0.926 . S
H492 C502 0.930 . S
H493 C503 0.930 . S
C494 H488 0.930 . S
C494 C495 1.355 . S
C494 C496 1.415 . S
C495 C494 1.355 . S
C495 C497 1.419 1_455 S
C496 C494 1.415 . S
C496 C501 1.425 . S
C496 C503 1.409 . S
C497 H489 0.930 . S
C497 C495 1.419 1_655 S
C497 C498 1.362 . S
C498 H490 0.930 . S
C498 C497 1.362 . S
C498 C501 1.409 1_655 S
C499 H491 0.926 . S
C499 C500 1.357 1_655 S
C499 C501 1.416 1_655 S
C500 C499 1.357 1_455 S
C500 C502 1.419 . S
C501 C496 1.425 . S
C501 C498 1.409 1_455 S
C501 C499 1.416 1_455 S
C502 H492 0.930 . S
C502 C500 1.419 . S
C502 C503 1.362 . S
C503 H493 0.930 . S
C503 C496 1.409 . S
C503 C502 1.362 . S
H504 C510 0.930 . S
H505 C513 0.928 1_545 S
H506 C514 0.930 . S
H507 C515 0.930 . S
H508 C518 0.930 . S
H509 C519 0.930 . S
C510 H504 0.930 . S
C510 C511 1.355 . S
C510 C512 1.415 . S
C511 C510 1.355 . S
C511 C513 1.423 . S
C512 C510 1.415 . S
C512 C517 1.432 . S
C512 C519 1.409 . S
C513 H505 0.928 1_565 S
C513 C511 1.423 . S
C513 C514 1.360 1_565 S
C514 H506 0.930 . S
C514 C513 1.360 1_545 S
C514 C517 1.406 1_545 S
C515 H507 0.930 . S
C515 C516 1.355 1_545 S
C515 C517 1.412 1_546 S
C516 C515 1.355 1_565 S
C516 C518 1.419 1_556 S
C517 C512 1.432 . S
C517 C514 1.406 1_565 S
C517 C515 1.412 1_564 S
C518 H508 0.930 . S
C518 C516 1.419 1_554 S
C518 C519 1.362 . S
C519 H509 0.930 . S
C519 C512 1.409 . S
C519 C518 1.362 . S
H520 C526 0.930 . S
H521 C529 0.930 . S
H522 C530 0.930 . S
H523 C531 0.930 . S
H524 C534 0.930 . S
H525 C535 0.930 . S
C526 H520 0.930 . S
C526 C527 1.355 . S
C526 C528 1.415 . S
C527 C526 1.355 . S
C527 C529 1.419 . S
C528 C526 1.415 . S
C528 C533 1.425 . S
C528 C535 1.409 . S
C529 H521 0.930 . S
C529 C527 1.419 . S
C529 C530 1.362 . S
C530 H522 0.930 . S
C530 C529 1.362 . S
C530 C533 1.409 . S
C531 H523 0.930 . S
C531 C532 1.355 1_554 S
C531 C533 1.415 . S
C532 C531 1.355 1_556 S
C532 C534 1.419 . S
C533 C528 1.425 . S
C533 C530 1.409 . S
C533 C531 1.415 . S
C534 H524 0.930 . S
C534 C532 1.419 . S
C534 C535 1.362 1_556 S
C535 H525 0.930 . S
C535 C528 1.409 . S
C535 C534 1.362 1_554 S
H536 C542 0.930 . S
H537 C545 0.930 . S
H538 C546 0.930 . S
H539 C547 0.930 . S
H540 C550 0.930 . S
H541 C551 0.930 . S
C542 H536 0.930 . S
C542 C543 1.355 . S
C542 C544 1.415 . S
C543 C542 1.355 . S
C543 C545 1.419 . S
C544 C542 1.415 . S
C544 C549 1.425 . S
C544 C551 1.409 . S
C545 H537 0.930 . S
C545 C543 1.419 . S
C545 C546 1.362 . S
C546 H538 0.930 . S
C546 C545 1.362 . S
C546 C549 1.409 . S
C547 H539 0.930 . S
C547 C548 1.355 1_554 S
C547 C549 1.415 . S
C548 C547 1.355 1_556 S
C548 C550 1.419 . S
C549 C544 1.425 . S
C549 C546 1.409 . S
C549 C547 1.415 . S
C550 H540 0.930 . S
C550 C548 1.419 . S
C550 C551 1.362 1_556 S
C551 H541 0.930 . S
C551 C544 1.409 . S
C551 C550 1.362 1_554 S
H552 C558 0.930 . S
H553 C561 0.930 . S
H554 C562 0.930 . S
H555 C563 0.930 1_556 S
H556 C566 0.930 1_556 S
H557 C567 0.930 . S
C558 H552 0.930 . S
C558 C559 1.355 1_455 S
C558 C560 1.415 . S
C559 C558 1.355 1_655 S
C559 C561 1.419 . S
C560 C558 1.415 . S
C560 C565 1.425 1_455 S
C560 C567 1.409 . S
C561 H553 0.930 . S
C561 C559 1.419 . S
C561 C562 1.362 . S
C562 H554 0.930 . S
C562 C561 1.362 . S
C562 C565 1.409 . S
C563 H555 0.930 1_554 S
C563 C564 1.355 1_654 S
C563 C565 1.415 . S
C564 C563 1.355 1_456 S
C564 C566 1.419 1_556 S
C565 C560 1.425 1_655 S
C565 C562 1.409 . S
C565 C563 1.415 . S
C566 H556 0.930 1_554 S
C566 C564 1.419 1_554 S
C566 C567 1.362 . S
C567 H557 0.930 . S
C567 C560 1.409 . S
C567 C566 1.362 . S
H568 C574 0.930 . S
H569 C577 0.930 1_556 S
H570 C578 0.930 1_655 S
H571 C579 0.930 . S
H572 C582 0.930 . S
H573 C583 0.930 . S
C574 H568 0.930 . S
C574 C575 1.355 . S
C574 C576 1.415 . S
C575 C574 1.355 . S
C575 C577 1.419 . S
C576 C574 1.415 . S
C576 C581 1.425 . S
C576 C583 1.409 . S
C577 H569 0.930 1_554 S
C577 C575 1.419 . S
C577 C578 1.362 . S
C578 H570 0.930 1_455 S
C578 C577 1.362 . S
C578 C581 1.409 . S
C579 H571 0.930 . S
C579 C580 1.355 . S
C579 C581 1.415 1_655 S
C580 C579 1.355 . S
C580 C582 1.419 1_655 S
C581 C576 1.425 . S
C581 C578 1.409 . S
C581 C579 1.415 1_455 S
C582 H572 0.930 . S
C582 C580 1.419 1_455 S
C582 C583 1.362 . S
C583 H573 0.930 . S
C583 C576 1.409 . S
C583 C582 1.362 . S
H584 C590 0.930 . S
H585 C593 0.930 . S
H586 C594 0.930 . S
H587 C595 0.930 . S
H588 C598 0.930 . S
H589 C599 0.930 . S
C590 H584 0.930 . S
C590 C591 1.355 . S
C590 C592 1.415 . S
C591 C590 1.355 . S
C591 C593 1.419 . S
C592 C590 1.415 . S
C592 C597 1.425 . S
C592 C599 1.409 1_545 S
C593 H585 0.930 . S
C593 C591 1.419 . S
C593 C594 1.362 . S
C594 H586 0.930 . S
C594 C593 1.362 . S
C594 C597 1.409 . S
C595 H587 0.930 . S
C595 C596 1.334 1_545 S
C595 C597 1.415 . S
C596 C595 1.334 1_565 S
C596 C598 1.433 . S
C597 C592 1.425 . S
C597 C594 1.409 . S
C597 C595 1.415 . S
C598 H588 0.930 . S
C598 C596 1.433 . S
C598 C599 1.362 . S
C599 H589 0.930 . S
C599 C592 1.409 1_565 S
C599 C598 1.362 . S
H600 C606 0.930 . S
H601 C609 0.930 . S
H602 C610 0.930 . S
H603 C611 0.930 . S
H604 C614 0.930 . S
H605 C615 0.930 . S
C606 H600 0.930 . S
C606 C607 1.355 . S
C606 C608 1.415 . S
C607 C606 1.355 . S
C607 C609 1.419 . S
C608 C606 1.415 . S
C608 C613 1.425 . S
C608 C615 1.409 . S
C609 H601 0.930 . S
C609 C607 1.419 . S
C609 C610 1.362 . S
C610 H602 0.930 . S
C610 C609 1.362 . S
C610 C613 1.409 . S
C611 H603 0.930 . S
C611 C612 1.355 . S
C611 C613 1.415 . S
C612 C611 1.355 . S
C612 C614 1.419 . S
C613 C608 1.425 . S
C613 C610 1.409 . S
C613 C611 1.415 . S
C614 H604 0.930 . S
C614 C612 1.419 . S
C614 C615 1.362 . S
C615 H605 0.930 . S
C615 C608 1.409 . S
C615 C614 1.362 . S
H616 C622 0.930 . S
H617 C625 0.930 . S
H618 C626 0.930 . S
H619 C627 0.930 . S
H620 C630 0.930 . S
H621 C631 0.930 . S
C622 H616 0.930 . S
C622 C623 1.355 . S
C622 C624 1.415 . S
C623 C622 1.355 . S
C623 C625 1.419 . S
C624 C622 1.415 . S
C624 C629 1.425 . S
C624 C631 1.409 . S
C625 H617 0.930 . S
C625 C623 1.419 . S
C625 C626 1.362 . S
C626 H618 0.930 . S
C626 C625 1.362 . S
C626 C629 1.409 . S
C627 H619 0.930 . S
C627 C628 1.355 . S
C627 C629 1.415 . S
C628 C627 1.355 . S
C628 C630 1.419 . S
C629 C624 1.425 . S
C629 C626 1.409 . S
C629 C627 1.415 . S
C630 H620 0.930 . S
C630 C628 1.419 . S
C630 C631 1.362 . S
C631 H621 0.930 . S
C631 C624 1.409 . S
C631 C630 1.362 . S
H632 C638 0.930 . S
H633 C641 0.930 . S
H634 C642 0.930 . S
H635 C643 0.930 . S
H636 C646 0.930 . S
H637 C647 0.930 . S
C638 H632 0.930 . S
C638 C639 1.355 . S
C638 C640 1.415 . S
C639 C638 1.355 . S
C639 C641 1.419 1_655 S
C640 C638 1.415 . S
C640 C645 1.425 1_655 S
C640 C647 1.409 . S
C641 H633 0.930 . S
C641 C639 1.419 1_455 S
C641 C642 1.362 . S
C642 H634 0.930 . S
C642 C641 1.362 . S
C642 C645 1.409 . S
C643 H635 0.930 . S
C643 C644 1.355 . S
C643 C645 1.415 . S
C644 C643 1.355 . S
C644 C646 1.419 1_455 S
C645 C640 1.425 1_455 S
C645 C642 1.409 . S
C645 C643 1.415 . S
C646 H636 0.930 . S
C646 C644 1.419 1_655 S
C646 C647 1.362 . S
C647 H637 0.930 . S
C647 C640 1.409 . S
C647 C646 1.362 . S
H648 C654 0.930 . S
H649 C657 0.930 . S
H650 C658 0.930 . S
H651 C659 0.930 . S
H652 C662 0.930 . S
H653 C663 0.930 . S
C654 H648 0.930 . S
C654 C655 1.355 . S
C654 C656 1.415 . S
C655 C654 1.355 . S
C655 C657 1.419 1_565 S
C656 C654 1.415 . S
C656 C661 1.425 1_565 S
C656 C663 1.409 . S
C657 H649 0.930 . S
C657 C655 1.419 1_545 S
C657 C658 1.362 . S
C658 H650 0.930 . S
C658 C657 1.362 . S
C658 C661 1.409 . S
C659 H651 0.930 . S
C659 C660 1.355 . S
C659 C661 1.415 . S
C660 C659 1.355 . S
C660 C662 1.419 1_545 S
C661 C656 1.425 1_545 S
C661 C658 1.409 . S
C661 C659 1.415 . S
C662 H652 0.930 . S
C662 C660 1.419 1_565 S
C662 C663 1.362 . S
C663 H653 0.930 . S
C663 C656 1.409 . S
C663 C662 1.362 . S
H664 C670 0.930 . S
H665 C673 0.930 . S
H666 C674 0.930 . S
H667 C675 0.930 . S
H668 C678 0.930 . S
H669 C679 0.930 . S
C670 H664 0.930 . S
C670 C671 1.355 . S
C670 C672 1.415 . S
C671 C670 1.355 . S
C671 C673 1.419 . S
C672 C670 1.415 . S
C672 C677 1.425 . S
C672 C679 1.409 . S
C673 H665 0.930 . S
C673 C671 1.419 . S
C673 C674 1.362 . S
C674 H666 0.930 . S
C674 C673 1.362 . S
C674 C677 1.409 . S
C675 H667 0.930 . S
C675 C676 1.355 . S
C675 C677 1.415 . S
C676 C675 1.355 . S
C676 C678 1.419 . S
C677 C672 1.425 . S
C677 C674 1.409 . S
C677 C675 1.415 . S
C678 H668 0.930 . S
C678 C676 1.419 . S
C678 C679 1.362 . S
C679 H669 0.930 . S
C679 C672 1.409 . S
C679 C678 1.362 . S
H680 C686 0.930 . S
H681 C689 0.930 . S
H682 C690 0.930 . S
H683 C691 0.930 . S
H684 C694 0.930 . S
H685 C695 0.930 . S
C686 H680 0.930 . S
C686 C687 1.355 . S
C686 C688 1.415 . S
C687 C686 1.355 . S
C687 C689 1.419 . S
C688 C686 1.415 . S
C688 C693 1.425 . S
C688 C695 1.409 . S
C689 H681 0.930 . S
C689 C687 1.419 . S
C689 C690 1.362 . S
C690 H682 0.930 . S
C690 C689 1.362 . S
C690 C693 1.409 . S
C691 H683 0.930 . S
C691 C692 1.355 . S
C691 C693 1.415 . S
C692 C691 1.355 . S
C692 C694 1.419 . S
C693 C688 1.425 . S
C693 C690 1.409 . S
C693 C691 1.415 . S
C694 H684 0.930 . S
C694 C692 1.419 . S
C694 C695 1.362 . S
C695 H685 0.930 . S
C695 C688 1.409 . S
C695 C694 1.362 . S
H696 C702 0.930 1_554 S
H697 C705 0.930 . S
H698 C706 0.930 . S
H699 C707 0.930 . S
H700 C710 0.930 1_554 S
H701 C711 0.930 . S
C702 H696 0.930 1_556 S
C702 C703 1.355 . S
C702 C704 1.415 . S
C703 C702 1.355 . S
C703 C705 1.419 . S
C704 C702 1.415 . S
C704 C709 1.425 . S
C704 C711 1.409 1_556 S
C705 H697 0.930 . S
C705 C703 1.419 . S
C705 C706 1.362 . S
C706 H698 0.930 . S
C706 C705 1.362 . S
C706 C709 1.409 . S
C707 H699 0.930 . S
C707 C708 1.355 . S
C707 C709 1.415 . S
C708 C707 1.355 . S
C708 C710 1.419 . S
C709 C704 1.425 . S
C709 C706 1.409 . S
C709 C707 1.415 . S
C710 H700 0.930 1_556 S
C710 C708 1.419 . S
C710 C711 1.362 1_556 S
C711 H701 0.930 . S
C711 C704 1.409 1_554 S
C711 C710 1.362 1_554 S
H712 C718 0.930 1_554 S
H713 C721 0.930 . S
H714 C722 0.930 . S
H715 C723 0.930 . S
H716 C726 0.930 1_565 S
H717 C727 0.930 1_564 S
C718 H712 0.930 1_556 S
C718 C719 1.355 . S
C718 C720 1.415 . S
C719 C718 1.355 . S
C719 C721 1.419 . S
C720 C718 1.415 . S
C720 C725 1.425 . S
C720 C727 1.409 . S
C721 H713 0.930 . S
C721 C719 1.419 . S
C721 C722 1.362 . S
C722 H714 0.930 . S
C722 C721 1.362 . S
C722 C725 1.409 . S
C723 H715 0.930 . S
C723 C724 1.355 . S
C723 C725 1.415 . S
C724 C723 1.355 . S
C724 C726 1.419 . S
C725 C720 1.425 . S
C725 C722 1.409 . S
C725 C723 1.415 . S
C726 H716 0.930 1_545 S
C726 C724 1.419 . S
C726 C727 1.362 . S
C727 H717 0.930 1_546 S
C727 C720 1.409 . S
C727 C726 1.362 . S
H728 C734 0.930 . S
H729 C737 0.930 . S
H730 C738 0.930 1_554 S
H731 C739 0.930 . S
H732 C742 0.930 . S
H733 C743 0.930 . S
C734 H728 0.930 . S
C734 C735 1.355 . S
C734 C736 1.415 . S
C735 C734 1.355 . S
C735 C737 1.419 1_556 S
C736 C734 1.415 . S
C736 C741 1.425 . S
C736 C743 1.409 . S
C737 H729 0.930 . S
C737 C735 1.419 1_554 S
C737 C738 1.362 1_554 S
C738 H730 0.930 1_556 S
C738 C737 1.362 1_556 S
C738 C741 1.409 . S
C739 H731 0.930 . S
C739 C740 1.355 . S
C739 C741 1.415 . S
C740 C739 1.355 . S
C740 C742 1.419 . S
C741 C736 1.425 . S
C741 C738 1.409 . S
C741 C739 1.415 . S
C742 H732 0.930 . S
C742 C740 1.419 . S
C742 C743 1.362 . S
C743 H733 0.930 . S
C743 C736 1.409 . S
C743 C742 1.362 . S
H744 C750 0.930 . S
H745 C753 0.930 1_554 S
H746 C754 0.930 1_554 S
H747 C755 0.930 . S
H748 C758 0.930 . S
H749 C759 0.930 . S
C750 H744 0.930 . S
C750 C751 1.355 . S
C750 C752 1.415 . S
C751 C750 1.355 . S
C751 C753 1.419 . S
C752 C750 1.415 . S
C752 C757 1.425 . S
C752 C759 1.409 . S
C753 H745 0.930 1_556 S
C753 C751 1.419 . S
C753 C754 1.362 . S
C754 H746 0.930 1_556 S
C754 C753 1.362 . S
C754 C757 1.409 . S
C755 H747 0.930 . S
C755 C756 1.355 . S
C755 C757 1.415 . S
C756 C755 1.355 . S
C756 C758 1.419 . S
C757 C752 1.425 . S
C757 C754 1.409 . S
C757 C755 1.415 . S
C758 H748 0.930 . S
C758 C756 1.419 . S
C758 C759 1.362 . S
C759 H749 0.930 . S
C759 C752 1.409 . S
C759 C758 1.362 . S
H760 C766 0.930 . S
H761 C769 0.930 . S
H762 C770 0.930 . S
H763 C771 0.930 . S
H764 C774 0.930 . S
H765 C775 0.930 . S
C766 H760 0.930 . S
C766 C767 1.355 . S
C766 C768 1.415 . S
C767 C766 1.355 . S
C767 C769 1.419 . S
C768 C766 1.415 . S
C768 C773 1.425 . S
C768 C775 1.409 1_655 S
C769 H761 0.930 . S
C769 C767 1.419 . S
C769 C770 1.362 . S
C770 H762 0.930 . S
C770 C769 1.362 . S
C770 C773 1.409 . S
C771 H763 0.930 . S
C771 C772 1.355 . S
C771 C773 1.415 . S
C772 C771 1.355 . S
C772 C774 1.419 1_655 S
C773 C768 1.425 . S
C773 C770 1.409 . S
C773 C771 1.415 . S
C774 H764 0.930 . S
C774 C772 1.419 1_455 S
C774 C775 1.362 . S
C775 H765 0.930 . S
C775 C768 1.409 1_455 S
C775 C774 1.362 . S
H776 C782 0.930 1_545 S
H777 C785 0.930 . S
H778 C786 0.930 . S
H779 C787 0.930 . S
H780 C790 0.930 . S
H781 C791 0.930 . S
C782 H776 0.930 1_565 S
C782 C783 1.355 . S
C782 C784 1.415 . S
C783 C782 1.355 . S
C783 C785 1.419 . S
C784 C782 1.415 . S
C784 C789 1.425 . S
C784 C791 1.409 1_565 S
C785 H777 0.930 . S
C785 C783 1.419 . S
C785 C786 1.362 . S
C786 H778 0.930 . S
C786 C785 1.362 . S
C786 C789 1.409 . S
C787 H779 0.930 . S
C787 C788 1.355 . S
C787 C789 1.415 . S
C788 C787 1.355 . S
C788 C790 1.419 1_565 S
C789 C784 1.425 . S
C789 C786 1.409 . S
C789 C787 1.415 . S
C790 H780 0.930 . S
C790 C788 1.419 1_545 S
C790 C791 1.362 . S
C791 H781 0.930 . S
C791 C784 1.409 1_545 S
C791 C790 1.362 . S
H792 C798 0.930 . S
H793 C801 0.930 . S
H794 C802 0.930 . S
H795 C803 0.930 . S
H796 C806 0.930 . S
H797 C807 0.930 . S
C798 H792 0.930 . S
C798 C799 1.355 . S
C798 C800 1.415 . S
C799 C798 1.355 . S
C799 C801 1.419 . S
C800 C798 1.415 . S
C800 C805 1.425 . S
C800 C807 1.409 . S
C801 H793 0.930 . S
C801 C799 1.419 . S
C801 C802 1.362 . S
C802 H794 0.930 . S
C802 C801 1.362 . S
C802 C805 1.409 . S
C803 H795 0.930 . S
C803 C804 1.355 . S
C803 C805 1.415 . S
C804 C803 1.355 . S
C804 C806 1.419 . S
C805 C800 1.425 . S
C805 C802 1.409 . S
C805 C803 1.415 . S
C806 H796 0.930 . S
C806 C804 1.419 . S
C806 C807 1.362 . S
C807 H797 0.930 . S
C807 C800 1.409 . S
C807 C806 1.362 . S
H808 C814 0.930 . S
H809 C817 0.930 . S
H810 C818 0.930 . S
H811 C819 0.930 . S
H812 C822 0.930 . S
H813 C823 0.930 . S
C814 H808 0.930 . S
C814 C815 1.355 . S
C814 C816 1.415 . S
C815 C814 1.355 . S
C815 C817 1.419 . S
C816 C814 1.415 . S
C816 C821 1.425 . S
C816 C823 1.409 . S
C817 H809 0.930 . S
C817 C815 1.419 . S
C817 C818 1.362 . S
C818 H810 0.930 . S
C818 C817 1.362 . S
C818 C821 1.409 . S
C819 H811 0.930 . S
C819 C820 1.355 . S
C819 C821 1.415 . S
C820 C819 1.355 . S
C820 C822 1.419 . S
C821 C816 1.425 . S
C821 C818 1.409 . S
C821 C819 1.415 . S
C822 H812 0.930 . S
C822 C820 1.419 . S
C822 C823 1.362 . S
C823 H813 0.930 . S
C823 C816 1.409 . S
C823 C822 1.362 . S
C447 N80 1.990 . S
C452 C167 2.073 . S
C468 C244 2.068 . S
C463 N93 1.951 . S
C484 C335 2.050 . S
C479 N54 1.928 . S
C500 C419 2.058 . S
C495 N67 1.940 . S
C516 C178 2.058 1_565 S
C511 N28 1.942 . S
C527 N41 1.998 . S
C532 C255 2.077 . S
C543 N2 1.988 . S
C548 C346 2.072 . S
C559 N15 1.950 . S
C564 C430 2.029 . S
C580 C162 0.589 . S
C575 N70 0.622 . S
C596 C257 0.673 . S
C591 N83 0.645 . S
C612 C330 0.696 . S
C607 N96 0.556 . S
C623 N57 0.544 . S
C628 C414 0.681 . S
C639 N18 0.555 . S
C644 C173 0.710 . S
C660 C246 0.640 . S
C655 N31 0.543 . S
C676 C341 0.574 . S
C671 N44 0.647 . S
C687 N5 0.639 . S
C692 C425 0.535 . S
C703 N66 2.097 . S
C708 C171 2.166 . S
C719 N79 2.100 . S
C724 C262 2.163 . S
C740 C339 2.155 . S
C735 N92 2.054 . S
C756 C423 2.162 . S
C751 N53 2.066 . S
C767 N14 2.047 . S
C772 C160 2.144 . S
C788 C251 2.167 1_565 S
C783 N27 2.111 . S
C804 C328 2.172 . S
C799 N40 2.096 . S
C815 N1 2.119 . S
C820 C412 2.185 . S
