# Generated by pormake.
# Topology llk, (3,12)-cn, num edge types: 1
# Building blocks:
#     Node 0, Type 0, BuildingBlock: KAKCAD_clean_linker_0, # of connection points: 3
#     Node 1, Type 0, BuildingBlock: KAKCAD_clean_linker_0, # of connection points: 3
#     Node 2, Type 0, BuildingBlock: KAKCAD_clean_linker_0, # of connection points: 3
#     Node 3, Type 0, BuildingBlock: KAKCAD_clean_linker_0, # of connection points: 3
#     Node 4, Type 0, BuildingBlock: KAKCAD_clean_linker_0, # of connection points: 3
#     Node 5, Type 0, BuildingBlock: KAKCAD_clean_linker_0, # of connection points: 3
#     Node 6, Type 0, BuildingBlock: KAKCAD_clean_linker_0, # of connection points: 3
#     Node 7, Type 0, BuildingBlock: KAKCAD_clean_linker_0, # of connection points: 3
#     Node 8, Type 0, BuildingBlock: KAKCAD_clean_linker_0, # of connection points: 3
#     Node 9, Type 0, BuildingBlock: KAKCAD_clean_linker_0, # of connection points: 3
#     Node 10, Type 0, BuildingBlock: KAKCAD_clean_linker_0, # of connection points: 3
#     Node 11, Type 0, BuildingBlock: KAKCAD_clean_linker_0, # of connection points: 3
#     Node 12, Type 0, BuildingBlock: KAKCAD_clean_linker_0, # of connection points: 3
#     Node 13, Type 0, BuildingBlock: KAKCAD_clean_linker_0, # of connection points: 3
#     Node 14, Type 0, BuildingBlock: KAKCAD_clean_linker_0, # of connection points: 3
#     Node 15, Type 0, BuildingBlock: KAKCAD_clean_linker_0, # of connection points: 3
#     Node 16, Type 0, BuildingBlock: KAKCAD_clean_linker_0, # of connection points: 3
#     Node 17, Type 0, BuildingBlock: KAKCAD_clean_linker_0, # of connection points: 3
#     Node 18, Type 0, BuildingBlock: KAKCAD_clean_linker_0, # of connection points: 3
#     Node 19, Type 0, BuildingBlock: KAKCAD_clean_linker_0, # of connection points: 3
#     Node 20, Type 0, BuildingBlock: KAKCAD_clean_linker_0, # of connection points: 3
#     Node 21, Type 0, BuildingBlock: KAKCAD_clean_linker_0, # of connection points: 3
#     Node 22, Type 0, BuildingBlock: KAKCAD_clean_linker_0, # of connection points: 3
#     Node 23, Type 0, BuildingBlock: KAKCAD_clean_linker_0, # of connection points: 3
#     Node 24, Type 1, BuildingBlock: EZIPEK_clean_sbu_0, # of connection points: 12
#     Node 25, Type 1, BuildingBlock: EZIPEK_clean_sbu_0, # of connection points: 12
#     Node 26, Type 1, BuildingBlock: EZIPEK_clean_sbu_0, # of connection points: 12
#     Node 27, Type 1, BuildingBlock: EZIPEK_clean_sbu_0, # of connection points: 12
#     Node 28, Type 1, BuildingBlock: EZIPEK_clean_sbu_0, # of connection points: 12
#     Node 29, Type 1, BuildingBlock: EZIPEK_clean_sbu_0, # of connection points: 12
#     Edge 30, Type (0, 1), BuildingBlock: ZUJKAS_clean_linker_0, # of connection points: 2
#     Edge 31, Type (0, 1), BuildingBlock: ZUJKAS_clean_linker_0, # of connection points: 2
#     Edge 32, Type (0, 1), BuildingBlock: ZUJKAS_clean_linker_0, # of connection points: 2
#     Edge 33, Type (0, 1), BuildingBlock: ZUJKAS_clean_linker_0, # of connection points: 2
#     Edge 34, Type (0, 1), BuildingBlock: ZUJKAS_clean_linker_0, # of connection points: 2
#     Edge 35, Type (0, 1), BuildingBlock: ZUJKAS_clean_linker_0, # of connection points: 2
#     Edge 36, Type (0, 1), BuildingBlock: ZUJKAS_clean_linker_0, # of connection points: 2
#     Edge 37, Type (0, 1), BuildingBlock: ZUJKAS_clean_linker_0, # of connection points: 2
#     Edge 38, Type (0, 1), BuildingBlock: ZUJKAS_clean_linker_0, # of connection points: 2
#     Edge 39, Type (0, 1), BuildingBlock: ZUJKAS_clean_linker_0, # of connection points: 2
#     Edge 40, Type (0, 1), BuildingBlock: ZUJKAS_clean_linker_0, # of connection points: 2
#     Edge 41, Type (0, 1), BuildingBlock: ZUJKAS_clean_linker_0, # of connection points: 2
#     Edge 42, Type (0, 1), BuildingBlock: ZUJKAS_clean_linker_0, # of connection points: 2
#     Edge 43, Type (0, 1), BuildingBlock: ZUJKAS_clean_linker_0, # of connection points: 2
#     Edge 44, Type (0, 1), BuildingBlock: ZUJKAS_clean_linker_0, # of connection points: 2
#     Edge 45, Type (0, 1), BuildingBlock: ZUJKAS_clean_linker_0, # of connection points: 2
#     Edge 46, Type (0, 1), BuildingBlock: ZUJKAS_clean_linker_0, # of connection points: 2
#     Edge 47, Type (0, 1), BuildingBlock: ZUJKAS_clean_linker_0, # of connection points: 2
#     Edge 48, Type (0, 1), BuildingBlock: ZUJKAS_clean_linker_0, # of connection points: 2
#     Edge 49, Type (0, 1), BuildingBlock: ZUJKAS_clean_linker_0, # of connection points: 2
#     Edge 50, Type (0, 1), BuildingBlock: ZUJKAS_clean_linker_0, # of connection points: 2
#     Edge 51, Type (0, 1), BuildingBlock: ZUJKAS_clean_linker_0, # of connection points: 2
#     Edge 52, Type (0, 1), BuildingBlock: ZUJKAS_clean_linker_0, # of connection points: 2
#     Edge 53, Type (0, 1), BuildingBlock: ZUJKAS_clean_linker_0, # of connection points: 2
#     Edge 54, Type (0, 1), BuildingBlock: ZUJKAS_clean_linker_0, # of connection points: 2
#     Edge 55, Type (0, 1), BuildingBlock: ZUJKAS_clean_linker_0, # of connection points: 2
#     Edge 56, Type (0, 1), BuildingBlock: ZUJKAS_clean_linker_0, # of connection points: 2
#     Edge 57, Type (0, 1), BuildingBlock: ZUJKAS_clean_linker_0, # of connection points: 2
#     Edge 58, Type (0, 1), BuildingBlock: ZUJKAS_clean_linker_0, # of connection points: 2
#     Edge 59, Type (0, 1), BuildingBlock: ZUJKAS_clean_linker_0, # of connection points: 2
#     Edge 60, Type (0, 1), BuildingBlock: ZUJKAS_clean_linker_0, # of connection points: 2
#     Edge 61, Type (0, 1), BuildingBlock: ZUJKAS_clean_linker_0, # of connection points: 2
#     Edge 62, Type (0, 1), BuildingBlock: ZUJKAS_clean_linker_0, # of connection points: 2
#     Edge 63, Type (0, 1), BuildingBlock: ZUJKAS_clean_linker_0, # of connection points: 2
#     Edge 64, Type (0, 1), BuildingBlock: ZUJKAS_clean_linker_0, # of connection points: 2
#     Edge 65, Type (0, 1), BuildingBlock: ZUJKAS_clean_linker_0, # of connection points: 2
#     Edge 66, Type (0, 1), BuildingBlock: ZUJKAS_clean_linker_0, # of connection points: 2
#     Edge 67, Type (0, 1), BuildingBlock: ZUJKAS_clean_linker_0, # of connection points: 2
#     Edge 68, Type (0, 1), BuildingBlock: ZUJKAS_clean_linker_0, # of connection points: 2
#     Edge 69, Type (0, 1), BuildingBlock: ZUJKAS_clean_linker_0, # of connection points: 2
#     Edge 70, Type (0, 1), BuildingBlock: ZUJKAS_clean_linker_0, # of connection points: 2
#     Edge 71, Type (0, 1), BuildingBlock: ZUJKAS_clean_linker_0, # of connection points: 2
#     Edge 72, Type (0, 1), BuildingBlock: ZUJKAS_clean_linker_0, # of connection points: 2
#     Edge 73, Type (0, 1), BuildingBlock: ZUJKAS_clean_linker_0, # of connection points: 2
#     Edge 74, Type (0, 1), BuildingBlock: ZUJKAS_clean_linker_0, # of connection points: 2
#     Edge 75, Type (0, 1), BuildingBlock: ZUJKAS_clean_linker_0, # of connection points: 2
#     Edge 76, Type (0, 1), BuildingBlock: ZUJKAS_clean_linker_0, # of connection points: 2
#     Edge 77, Type (0, 1), BuildingBlock: ZUJKAS_clean_linker_0, # of connection points: 2
#     Edge 78, Type (0, 1), BuildingBlock: ZUJKAS_clean_linker_0, # of connection points: 2
#     Edge 79, Type (0, 1), BuildingBlock: ZUJKAS_clean_linker_0, # of connection points: 2
#     Edge 80, Type (0, 1), BuildingBlock: ZUJKAS_clean_linker_0, # of connection points: 2
#     Edge 81, Type (0, 1), BuildingBlock: ZUJKAS_clean_linker_0, # of connection points: 2
#     Edge 82, Type (0, 1), BuildingBlock: ZUJKAS_clean_linker_0, # of connection points: 2
#     Edge 83, Type (0, 1), BuildingBlock: ZUJKAS_clean_linker_0, # of connection points: 2
#     Edge 84, Type (0, 1), BuildingBlock: ZUJKAS_clean_linker_0, # of connection points: 2
#     Edge 85, Type (0, 1), BuildingBlock: ZUJKAS_clean_linker_0, # of connection points: 2
#     Edge 86, Type (0, 1), BuildingBlock: ZUJKAS_clean_linker_0, # of connection points: 2
#     Edge 87, Type (0, 1), BuildingBlock: ZUJKAS_clean_linker_0, # of connection points: 2
#     Edge 88, Type (0, 1), BuildingBlock: ZUJKAS_clean_linker_0, # of connection points: 2
#     Edge 89, Type (0, 1), BuildingBlock: ZUJKAS_clean_linker_0, # of connection points: 2
#     Edge 90, Type (0, 1), BuildingBlock: ZUJKAS_clean_linker_0, # of connection points: 2
#     Edge 91, Type (0, 1), BuildingBlock: ZUJKAS_clean_linker_0, # of connection points: 2
#     Edge 92, Type (0, 1), BuildingBlock: ZUJKAS_clean_linker_0, # of connection points: 2
#     Edge 93, Type (0, 1), BuildingBlock: ZUJKAS_clean_linker_0, # of connection points: 2
#     Edge 94, Type (0, 1), BuildingBlock: ZUJKAS_clean_linker_0, # of connection points: 2
#     Edge 95, Type (0, 1), BuildingBlock: ZUJKAS_clean_linker_0, # of connection points: 2
#     Edge 96, Type (0, 1), BuildingBlock: ZUJKAS_clean_linker_0, # of connection points: 2
#     Edge 97, Type (0, 1), BuildingBlock: ZUJKAS_clean_linker_0, # of connection points: 2
#     Edge 98, Type (0, 1), BuildingBlock: ZUJKAS_clean_linker_0, # of connection points: 2
#     Edge 99, Type (0, 1), BuildingBlock: ZUJKAS_clean_linker_0, # of connection points: 2
#     Edge 100, Type (0, 1), BuildingBlock: ZUJKAS_clean_linker_0, # of connection points: 2
#     Edge 101, Type (0, 1), BuildingBlock: ZUJKAS_clean_linker_0, # of connection points: 2
# Relax obj value: 0.107
# Max RMSD: 0.160
# Mean RMSD: 0.134
data_MOF--net-llk--node1-EZIPEK_clean_sbu_0--node2-KAKCAD_clean_linker_0--edge1-ZUJKAS_clean_linker_0
_symmetry_space_group_name_H-M    P1
_symmetry_Int_Tables_number       1
_symmetry_cell_setting            triclinic
loop_
_symmetry_equiv_pos_as_xyz
'x, y, z'
_cell_length_a     68.797686
_cell_length_b     68.804777
_cell_length_c     68.792661
_cell_angle_alpha  90.009776
_cell_angle_beta   89.999519
_cell_angle_gamma 90.010108
loop_
_atom_site_label
_atom_site_type_symbol
_atom_site_fract_x
_atom_site_fract_y
_atom_site_fract_z
_atom_type_partial_charge
C0 C 0.9967 0.31154 0.29447 0.0
C1 C 0.00904 0.30904 0.31055 0.0
C2 C 0.99591 0.29753 0.27986 0.0
C3 C 0.00756 0.28079 0.28093 0.0
C4 C 0.02009 0.2784 0.29688 0.0
C5 C 0.02079 0.29237 0.31157 0.0
C6 C 0.00632 0.26572 0.26562 0.0
C7 C 0.00473 0.27101 0.24607 0.0
C8 C 1.00271 0.25695 0.23146 0.0
C9 C 1.00267 0.23703 0.23652 0.0
C10 C 0.00435 0.23161 0.25628 0.0
C11 C 0.00614 0.24602 0.27057 0.0
C12 C 1.00379 0.21125 0.26324 0.0
C13 C 0.98647 0.20407 0.2713 0.0
C14 C 0.02132 0.20176 0.26754 0.0
C15 C 0.02171 0.18625 0.28075 0.0
C16 C 0.00458 0.18003 0.29012 0.0
C17 C 1.00022 0.26425 0.21134 0.0
C18 C 0.98364 0.27534 0.20702 0.0
C19 C 0.01618 0.2651 0.19867 0.0
C20 C 0.01606 0.27788 0.18275 0.0
C21 C 1.00004 0.29024 0.17931 0.0
C22 C 0.98354 0.28816 0.19125 0.0
C23 C 0.98684 0.18858 0.28454 0.0
H24 H 0.98767 0.32435 0.29312 0.0
H25 H 0.98594 0.29968 0.26787 0.0
H26 H 0.02939 0.26575 0.29801 0.0
H27 H 0.0303 0.28994 0.32387 0.0
H28 H 0.0051 0.28627 0.24209 0.0
H29 H 0.00696 0.24178 0.28573 0.0
H30 H 1.00104 0.22602 0.22539 0.0
H31 H 0.97285 0.21153 0.26867 0.0
H32 H 0.03492 0.20734 0.26189 0.0
H33 H 0.0356 0.1798 0.28439 0.0
H34 H 0.97133 0.27529 0.21684 0.0
H35 H 0.02928 0.25699 0.20192 0.0
H36 H 0.97337 0.18436 0.2915 0.0
H37 H 0.97099 0.29746 0.18938 0.0
H38 H 0.0289 0.27871 0.17369 0.0
C39 C 0.71416 0.01719 0.31022 0.0
C40 C 0.69886 1.00373 0.30915 0.0
C41 C 0.72859 0.01743 0.296 0.0
C42 C 0.72802 0.00417 0.28048 0.0
C43 C 0.7127 0.99071 0.27942 0.0
C44 C 0.69823 0.99051 0.29361 0.0
C45 C 0.74338 0.0044 0.26545 0.0
C46 C 0.76287 0.00653 0.27073 0.0
C47 C 0.77763 0.00691 0.25668 0.0
C48 C 0.77271 0.00495 0.23679 0.0
C49 C 0.75297 1.00281 0.23139 0.0
C50 C 0.73858 1.00256 0.24581 0.0
C51 C 0.74613 1.00112 0.21103 0.0
C52 C 0.74208 0.01803 0.20035 0.0
C53 C 0.73791 0.98345 0.20493 0.0
C54 C 0.72469 0.98294 0.18948 0.0
C55 C 0.7193 1.00013 0.17979 0.0
C56 C 0.79783 0.00914 0.26395 0.0
C57 C 0.80243 0.02562 0.27511 0.0
C58 C 0.8104 0.99309 0.26454 0.0
C59 C 0.82644 0.99299 0.27719 0.0
C60 C 0.83015 0.0089 0.28962 0.0
C61 C 0.81833 0.02551 0.28777 0.0
C62 C 0.72886 0.01753 0.18479 0.0
H63 H 0.71483 0.02773 0.3219 0.0
H64 H 0.74006 0.02817 0.29702 0.0
H65 H 0.71204 0.98015 0.26776 0.0
H66 H 0.68671 0.97982 0.29259 0.0
H67 H 0.76668 0.00758 0.286 0.0
H68 H 0.72343 1.00127 0.2416 0.0
H69 H 0.78395 0.0052 0.22578 0.0
H70 H 0.74777 0.03192 0.2051 0.0
H71 H 0.74046 0.97029 0.2132 0.0
H72 H 0.71787 0.96923 0.1858 0.0
H73 H 0.79275 0.03804 0.27521 0.0
H74 H 0.80698 0.98008 0.25636 0.0
H75 H 0.72501 0.03106 0.17772 0.0
H76 H 0.82042 0.03799 0.29712 0.0
H77 H 0.83541 0.98008 0.27784 0.0
C78 C 0.99535 0.71357 0.31084 0.0
C79 C 0.00835 0.6979 0.30921 0.0
C80 C 0.9949 0.72805 0.29668 0.0
C81 C 0.00756 0.72727 0.28067 0.0
C82 C 0.02069 0.7117 0.27914 0.0
C83 C 0.02103 0.69714 0.29322 0.0
C84 C 0.00694 0.74255 0.26553 0.0
C85 C 0.00455 0.76204 0.27066 0.0
C86 C 1.00361 0.77665 0.25648 0.0
C87 C 0.00539 0.7716 0.23661 0.0
C88 C 0.00798 0.75188 0.23134 0.0
C89 C 0.00859 0.73763 0.24589 0.0
C90 C 0.00978 0.74494 0.21098 0.0
C91 C 0.99332 0.74391 0.19897 0.0
C92 C 0.02644 0.73439 0.20569 0.0
C93 C 0.02618 0.72182 0.18973 0.0
C94 C 0.00923 0.71948 0.17849 0.0
C95 C 1.00097 0.79684 0.26363 0.0
C96 C 0.98432 0.80118 0.27462 0.0
C97 C 0.01687 0.80959 0.26448 0.0
C98 C 0.01665 0.82555 0.27724 0.0
C99 C 1.00058 0.82896 0.28955 0.0
C100 C 0.98411 0.81698 0.28741 0.0
C101 C 0.99307 0.73136 0.18284 0.0
H102 H 0.98557 0.71472 0.32313 0.0
H103 H 0.98446 0.73974 0.29817 0.0
H104 H 0.03079 0.71081 0.2671 0.0
H105 H 0.03106 0.68514 0.29141 0.0
H106 H 1.00368 0.76601 0.2859 0.0
H107 H 0.00997 0.72247 0.24179 0.0
H108 H 0.00476 0.78275 0.22552 0.0
H109 H 0.98017 0.75161 0.2029 0.0
H110 H 0.0392 0.73464 0.21494 0.0
H111 H 0.03888 0.7129 0.18715 0.0
H112 H 0.97202 0.79133 0.27454 0.0
H113 H 0.03002 0.80637 0.25644 0.0
H114 H 0.97988 0.73034 0.17432 0.0
H115 H 0.97152 0.81883 0.29665 0.0
H116 H 0.02945 0.83466 0.27809 0.0
C117 C 0.31037 0.01785 0.29657 0.0
C118 C 0.31028 1.00314 0.3107 0.0
C119 C 0.29628 0.01814 0.28201 0.0
C120 C 0.28179 1.00378 0.28143 0.0
C121 C 0.28166 0.98909 0.2956 0.0
C122 C 0.29583 0.98874 0.31008 0.0
C123 C 0.26681 0.00416 0.26608 0.0
C124 C 0.27207 0.00714 0.24671 0.0
C125 C 0.25803 0.00759 0.23194 0.0
C126 C 0.23817 0.00506 0.23679 0.0
C127 C 0.2328 1.00206 0.25645 0.0
C128 C 0.24726 1.00161 0.27081 0.0
C129 C 0.21244 0.99986 0.26326 0.0
C130 C 0.20024 0.01617 0.2645 0.0
C131 C 0.20739 0.98305 0.27369 0.0
C132 C 0.19153 0.98305 0.28641 0.0
C133 C 0.18016 0.99988 0.28902 0.0
C134 C 0.26533 0.0103 0.21179 0.0
C135 C 0.2765 0.02687 0.20759 0.0
C136 C 0.26606 0.99449 0.19892 0.0
C137 C 0.27889 0.99468 0.18301 0.0
C138 C 0.29138 0.01065 0.17976 0.0
C139 C 0.28936 0.02705 0.19184 0.0
C140 C 0.18422 0.01616 0.27718 0.0
H141 H 0.32147 0.02902 0.29664 0.0
H142 H 0.29659 0.0297 0.27133 0.0
H143 H 0.2707 0.97778 0.29536 0.0
H144 H 0.29537 0.97732 0.32091 0.0
H145 H 0.28732 0.00873 0.24302 0.0
H146 H 0.24317 0.9997 0.28592 0.0
H147 H 0.22716 0.00542 0.22554 0.0
H148 H 0.20399 0.02943 0.25689 0.0
H149 H 0.21677 0.97041 0.27329 0.0
H150 H 0.18918 0.97026 0.29526 0.0
H151 H 0.27649 0.03912 0.2175 0.0
H152 H 0.25787 0.9814 0.20201 0.0
H153 H 0.17558 0.02925 0.27837 0.0
H154 H 0.29872 0.03957 0.19011 0.0
H155 H 0.27964 0.98194 0.17382 0.0
C156 C 0.99083 0.69836 0.71322 0.0
C157 C 0.00426 0.69913 0.69787 0.0
C158 C 0.99094 0.71259 0.72764 0.0
C159 C 0.00454 0.72782 0.72701 0.0
C160 C 0.018 0.72855 0.71167 0.0
C161 C 0.01784 0.71435 0.69722 0.0
C162 C 0.00467 0.74292 0.74231 0.0
C163 C 1.00245 0.73779 0.76183 0.0
C164 C 1.00253 0.75192 0.77653 0.0
C165 C 0.005 0.77172 0.7715 0.0
C166 C 0.00729 0.77697 0.75173 0.0
C167 C 0.00703 0.76247 0.73742 0.0
C168 C 0.00963 0.79727 0.74481 0.0
C169 C 0.99347 0.80969 0.74383 0.0
C170 C 0.02634 0.80206 0.7341 0.0
C171 C 0.02637 0.81794 0.72141 0.0
C172 C 0.00967 0.82955 0.7191 0.0
C173 C 1.0004 0.74477 0.79678 0.0
C174 C 0.98381 0.73388 0.80161 0.0
C175 C 0.01661 0.74394 0.80914 0.0
C176 C 0.01674 0.73127 0.82516 0.0
C177 C 1.0007 0.71906 0.82905 0.0
C178 C 0.98395 0.72119 0.81749 0.0
C179 C 0.99352 0.82572 0.73117 0.0
H180 H 0.98004 0.68691 0.71392 0.0
H181 H 0.98021 0.71183 0.73914 0.0
H182 H 0.02883 0.73996 0.71098 0.0
H183 H 0.02852 0.71512 0.68567 0.0
H184 H 1.00104 0.72257 0.76571 0.0
H185 H 0.00833 0.76654 0.72223 0.0
H186 H 0.00515 0.78278 0.7827 0.0
H187 H 0.98028 0.80613 0.75166 0.0
H188 H 0.03885 0.79249 0.73429 0.0
H189 H 0.03905 0.82012 0.71236 0.0
H190 H 0.97126 0.73398 0.7921 0.0
H191 H 0.0297 0.75192 0.80555 0.0
H192 H 0.98053 0.83454 0.73019 0.0
H193 H 0.97136 0.71203 0.81973 0.0
H194 H 0.02976 0.7304 0.83395 0.0
C195 C 0.31151 0.99098 0.71313 0.0
C196 C 0.31175 0.00582 0.69912 0.0
C197 C 0.29703 0.99052 0.72729 0.0
C198 C 0.28248 0.00481 0.7276 0.0
C199 C 0.28264 0.01959 0.71353 0.0
C200 C 0.2972 0.02013 0.69944 0.0
C201 C 0.26719 0.00435 0.74264 0.0
C202 C 0.27208 1.00138 0.7621 0.0
C203 C 0.25778 1.00095 0.77661 0.0
C204 C 0.23802 1.00348 0.7714 0.0
C205 C 0.233 0.00646 0.75164 0.0
C206 C 0.24772 0.00689 0.73755 0.0
C207 C 0.21274 0.00864 0.74451 0.0
C208 C 0.2003 0.99249 0.74377 0.0
C209 C 0.20792 0.02522 0.7336 0.0
C210 C 0.19201 0.02511 0.72096 0.0
C211 C 0.18036 0.0084 0.71891 0.0
C212 C 0.26472 0.9984 0.7969 0.0
C213 C 0.27589 0.98191 0.80142 0.0
C214 C 0.26513 0.0143 0.80968 0.0
C215 C 0.27769 0.01429 0.8258 0.0
C216 C 0.2902 0.99842 0.82938 0.0
C217 C 0.28847 0.98191 0.81739 0.0
C218 C 0.18423 0.99238 0.73115 0.0
H219 H 0.32267 0.97987 0.71327 0.0
H220 H 0.29712 0.97889 0.7379 0.0
H221 H 0.27164 0.03085 0.71356 0.0
H222 H 0.29699 0.03163 0.68869 0.0
H223 H 0.28727 0.99982 0.76607 0.0
H224 H 0.24392 0.0088 0.72236 0.0
H225 H 0.22681 1.00316 0.78245 0.0
H226 H 0.20385 0.9794 0.75177 0.0
H227 H 0.21748 0.03775 0.73365 0.0
H228 H 0.18978 0.03768 0.71178 0.0
H229 H 0.27611 0.9696 0.79159 0.0
H230 H 0.25694 0.02733 0.80635 0.0
H231 H 0.17539 0.97939 0.73035 0.0
H232 H 0.29786 0.96946 0.81938 0.0
H233 H 0.27824 0.02711 0.83491 0.0
C234 C 0.99151 0.29526 0.69816 0.0
C235 C 0.00515 0.31043 0.69885 0.0
C236 C 0.99155 0.28082 0.71237 0.0
C237 C 0.00525 0.28126 0.7275 0.0
C238 C 0.01893 0.29641 0.72815 0.0
C239 C 0.01886 0.31088 0.71396 0.0
C240 C 0.00524 0.26598 0.7426 0.0
C241 C 1.00283 0.24649 0.73748 0.0
C242 C 1.00265 0.23182 0.75162 0.0
C243 C 0.00505 0.23685 0.77144 0.0
C244 C 0.00755 0.2566 0.77669 0.0
C245 C 0.00757 0.27089 0.76215 0.0
C246 C 0.00972 0.26354 0.79702 0.0
C247 C 0.99351 0.26432 0.80938 0.0
C248 C 0.02633 0.27437 0.80193 0.0
C249 C 0.0262 0.28697 0.81788 0.0
C250 C 0.00944 0.28907 0.82945 0.0
C251 C 1.00032 0.21158 0.74448 0.0
C252 C 0.98376 0.20695 0.73346 0.0
C253 C 0.01638 0.19902 0.74378 0.0
C254 C 0.01641 0.18299 0.73111 0.0
C255 C 1.00042 0.17929 0.71877 0.0
C256 C 0.9838 0.19107 0.72077 0.0
C257 C 0.99339 0.2769 0.82548 0.0
H258 H 0.98062 0.29472 0.68681 0.0
H259 H 0.98066 0.26946 0.71167 0.0
H260 H 0.02983 0.29695 0.73949 0.0
H261 H 0.02971 0.32227 0.71467 0.0
H262 H 1.00143 0.24261 0.72226 0.0
H263 H 0.00902 0.28606 0.7662 0.0
H264 H 0.00496 0.22567 0.78252 0.0
H265 H 0.9804 0.2564 0.80573 0.0
H266 H 0.03888 0.27432 0.79241 0.0
H267 H 0.0388 0.2961 0.82017 0.0
H268 H 0.97132 0.21661 0.73346 0.0
H269 H 0.02945 0.20245 0.75185 0.0
H270 H 0.98036 0.27773 0.83426 0.0
H271 H 0.97126 0.18898 0.71151 0.0
H272 H 0.02933 0.17405 0.73035 0.0
C273 C 0.71464 0.98887 0.69807 0.0
C274 C 0.70059 1.00365 0.69751 0.0
C275 C 0.72875 0.98873 0.71262 0.0
C276 C 0.72893 1.0033 0.72692 0.0
C277 C 0.71478 0.01799 0.72645 0.0
C278 C 0.70076 0.0182 0.71182 0.0
C279 C 0.74397 1.00327 0.74221 0.0
C280 C 0.76347 1.0005 0.73736 0.0
C281 C 0.778 1.00069 0.75165 0.0
C282 C 0.77277 1.00361 0.77135 0.0
C283 C 0.75297 0.00634 0.77632 0.0
C284 C 0.73885 0.00618 0.76162 0.0
C285 C 0.74582 0.00896 0.79652 0.0
C286 C 0.74497 0.99305 0.80925 0.0
C287 C 0.73488 0.02563 0.80094 0.0
C288 C 0.72209 0.02581 0.81674 0.0
C289 C 0.71991 0.0093 0.82865 0.0
C290 C 0.79832 0.99838 0.74474 0.0
C291 C 0.80314 0.98171 0.73398 0.0
C292 C 0.81074 0.01455 0.74383 0.0
C293 C 0.82676 0.01457 0.73115 0.0
C294 C 0.8306 0.99847 0.719 0.0
C295 C 0.81901 0.98174 0.72127 0.0
C296 C 0.73221 0.99323 0.8252 0.0
H297 H 0.71488 0.97757 0.68711 0.0
H298 H 0.73944 0.97717 0.71278 0.0
H299 H 0.71472 0.02945 0.73724 0.0
H300 H 0.68997 0.02966 0.71179 0.0
H301 H 0.76745 0.99867 0.72221 0.0
H302 H 0.72364 0.00795 0.76539 0.0
H303 H 0.78384 1.00378 0.78255 0.0
H304 H 0.75299 0.97989 0.806 0.0
H305 H 0.735 0.03797 0.79115 0.0
H306 H 0.71288 0.03842 0.81863 0.0
H307 H 0.79359 0.96918 0.73414 0.0
H308 H 0.80717 0.02771 0.7517 0.0
H309 H 0.73133 0.98041 0.83427 0.0
H310 H 0.8212 0.9691 0.71217 0.0
H311 H 0.83557 0.02757 0.73021 0.0
C312 C 0.31121 0.29539 0.98886 0.0
C313 C 0.31058 0.31064 1.00242 0.0
C314 C 0.29695 0.28099 0.98898 0.0
C315 C 0.28182 0.28157 1.00268 0.0
C316 C 0.28117 0.29685 0.0162 0.0
C317 C 0.29542 0.31126 0.01607 0.0
C318 C 0.26679 0.26623 1.00289 0.0
C319 C 0.27203 0.24672 1.00089 0.0
C320 C 0.25798 0.23195 1.00109 0.0
C321 C 0.23814 0.2369 1.00344 0.0
C322 C 0.23279 0.25667 0.00539 0.0
C323 C 0.2472 0.27106 0.00511 0.0
C324 C 0.21247 0.26355 0.00744 0.0
C325 C 0.20145 0.26744 0.9907 0.0
C326 C 0.20678 0.27201 0.02513 0.0
C327 C 0.1914 0.28532 0.02579 0.0
C328 C 0.18138 0.29054 0.00874 0.0
C329 C 0.26522 0.21171 0.9991 0.0
C330 C 0.27611 0.20681 0.98253 0.0
C331 C 0.26608 0.19945 0.01538 0.0
C332 C 0.27876 0.18343 0.01557 0.0
C333 C 0.29094 0.17944 0.99954 0.0
C334 C 0.2888 0.19094 0.98274 0.0
C335 C 0.18598 0.28074 0.99135 0.0
H336 H 0.32259 0.29472 0.978 0.0
H337 H 0.29764 0.26953 0.97821 0.0
H338 H 0.26981 0.2975 0.02709 0.0
H339 H 0.29474 0.32271 0.02686 0.0
H340 H 0.28727 0.24291 0.99954 0.0
H341 H 0.24304 0.28623 0.00631 0.0
H342 H 0.22713 0.22566 1.00364 0.0
H343 H 0.2059 0.26156 0.97678 0.0
H344 H 0.21531 0.2696 0.03815 0.0
H345 H 0.18804 0.29232 0.03949 0.0
H346 H 0.27599 0.21625 0.96993 0.0
H347 H 0.25811 0.20309 0.02846 0.0
H348 H 0.17865 0.28445 0.97793 0.0
H349 H 0.29794 0.18863 0.97014 0.0
H350 H 0.27963 0.1747 0.02864 0.0
C351 C 0.31165 0.71383 0.02055 0.0
C352 C 0.31218 0.69928 0.00624 0.0
C353 C 0.29703 0.72787 0.02031 0.0
C354 C 0.28263 0.72748 0.00586 0.0
C355 C 0.28305 0.71281 0.99167 0.0
C356 C 0.29773 0.69887 0.99183 0.0
C357 C 0.26734 0.74251 0.0053 0.0
C358 C 0.27221 0.76213 0.00707 0.0
C359 C 0.25798 0.77664 0.00561 0.0
C360 C 0.23833 0.77131 1.0026 0.0
C361 C 0.23333 0.75141 1.00103 0.0
C362 C 0.24796 0.73729 1.00237 0.0
C363 C 0.2132 0.74422 0.99813 0.0
C364 C 0.20005 0.744 0.01372 0.0
C365 C 0.20917 0.73274 0.98173 0.0
C366 C 0.19326 0.72009 0.98153 0.0
C367 C 0.18087 0.71859 0.99776 0.0
C368 C 0.26494 0.79703 0.00633 0.0
C369 C 0.27404 0.80373 0.02334 0.0
C370 C 0.26787 0.80728 0.98894 0.0
C371 C 0.28088 0.82299 0.98827 0.0
C372 C 0.29127 0.82872 0.00499 0.0
C373 C 0.28698 0.81942 0.02271 0.0
C374 C 0.18401 0.73136 0.01352 0.0
H375 H 0.32271 0.71451 0.03174 0.0
H376 H 0.29693 0.73899 0.03147 0.0
H377 H 0.2722 0.71231 0.98027 0.0
H378 H 0.29773 0.68768 0.98074 0.0
H379 H 0.28733 0.76622 0.0089 0.0
H380 H 0.24415 0.72201 1.00134 0.0
H381 H 0.22722 0.78238 1.00136 0.0
H382 H 0.20302 0.75244 0.02669 0.0
H383 H 0.2193 0.73236 0.96967 0.0
H384 H 0.1916 0.71048 0.96919 0.0
H385 H 0.27239 0.79578 0.03683 0.0
H386 H 0.26137 0.80215 0.97554 0.0
H387 H 0.17459 0.73097 0.02612 0.0
H388 H 0.29474 0.82324 0.03587 0.0
H389 H 0.28354 0.83001 0.97444 0.0
C390 C 0.71398 0.30926 0.98892 0.0
C391 C 0.69953 0.3096 1.00333 0.0
C392 C 0.72846 0.2951 0.98931 0.0
C393 C 0.72865 0.28098 1.00404 0.0
C394 C 0.7142 0.28131 0.01844 0.0
C395 C 0.69979 0.29555 0.01813 0.0
C396 C 0.74386 0.26586 0.00433 0.0
C397 C 0.76333 0.27087 1.00167 0.0
C398 C 0.77798 0.2567 1.0019 0.0
C399 C 0.77289 0.23696 0.00477 0.0
C400 C 0.75312 0.23182 0.00743 0.0
C401 C 0.73889 0.24641 0.00722 0.0
C402 C 0.74609 0.21156 0.00992 0.0
C403 C 0.74541 0.1989 0.99394 0.0
C404 C 0.73507 0.207 0.0265 0.0
C405 C 0.72236 0.19114 0.02653 0.0
C406 C 0.72035 0.17928 0.00995 0.0
C407 C 0.79825 0.26377 0.99955 0.0
C408 C 0.80298 0.27449 0.98283 0.0
C409 C 0.8107 0.26479 0.01568 0.0
C410 C 0.82668 0.27752 0.01561 0.0
C411 C 0.83045 0.28961 0.99946 0.0
C412 C 0.81881 0.28725 0.98277 0.0
C413 C 0.73273 0.18287 0.99398 0.0
H414 H 0.71417 0.32005 0.97745 0.0
H415 H 0.73939 0.29504 0.97796 0.0
H416 H 0.71413 0.27065 0.03003 0.0
H417 H 0.68871 0.29543 0.02931 0.0
H418 H 0.7672 0.28605 0.99982 0.0
H419 H 0.7237 0.24251 0.00887 0.0
H420 H 0.78404 0.22585 0.00493 0.0
H421 H 0.75349 0.20225 0.98085 0.0
H422 H 0.73505 0.21674 0.03889 0.0
H423 H 0.71308 0.18914 0.03907 0.0
H424 H 0.7934 0.27425 0.97032 0.0
H425 H 0.8072 0.25695 0.02888 0.0
H426 H 0.73199 0.17386 0.9811 0.0
H427 H 0.82094 0.2963 0.97009 0.0
H428 H 0.83553 0.27853 0.02859 0.0
C429 C 0.71433 0.69886 0.01845 0.0
C430 C 0.69995 0.69851 1.00398 0.0
C431 C 0.72872 0.71312 0.01822 0.0
C432 C 0.72888 0.72734 1.00359 0.0
C433 C 0.7145 0.727 0.98912 0.0
C434 C 0.70018 0.71266 0.98927 0.0
C435 C 0.744 0.74256 1.00348 0.0
C436 C 0.76348 0.73765 0.00627 0.0
C437 C 0.77804 0.75191 0.00632 0.0
C438 C 0.77285 0.77165 1.00357 0.0
C439 C 0.75308 0.77668 1.00076 0.0
C440 C 0.73894 0.76199 1.0007 0.0
C441 C 0.74595 0.79691 0.99837 0.0
C442 C 0.74499 0.80942 0.01446 0.0
C443 C 0.7351 0.80156 0.9817 0.0
C444 C 0.72231 0.81735 0.98166 0.0
C445 C 0.72003 0.82905 0.99831 0.0
C446 C 0.79832 0.74495 0.00886 0.0
C447 C 0.80291 0.73416 0.02557 0.0
C448 C 0.81092 0.74404 0.99284 0.0
C449 C 0.82693 0.73134 0.993 0.0
C450 C 0.83056 0.71917 0.00913 0.0
C451 C 0.81876 0.72143 0.02571 0.0
C452 C 0.73222 0.82537 0.01442 0.0
H453 H 0.71455 0.68801 0.02986 0.0
H454 H 0.73959 0.71318 0.02962 0.0
H455 H 0.71442 0.73773 0.97759 0.0
H456 H 0.68914 0.71277 0.97804 0.0
H457 H 0.76742 0.72248 0.00804 0.0
H458 H 0.72374 0.76582 0.99893 0.0
H459 H 0.78393 0.78283 1.00363 0.0
H460 H 0.75292 0.80599 0.02762 0.0
H461 H 0.7353 0.79193 0.96922 0.0
H462 H 0.71318 0.81941 0.96902 0.0
H463 H 0.79321 0.73432 0.03798 0.0
H464 H 0.80753 0.75193 0.97965 0.0
H465 H 0.73127 0.83426 0.02736 0.0
H466 H 0.82078 0.71232 0.03837 0.0
H467 H 0.8359 0.73042 0.98011 0.0
C468 C 0.48196 0.80959 0.79422 0.0
C469 C 0.49347 0.8089 0.81107 0.0
C470 C 0.48393 0.79536 0.77987 0.0
C471 C 0.49747 0.78024 0.78214 0.0
C472 C 0.50887 0.77954 0.79907 0.0
C473 C 0.50688 0.7937 0.81338 0.0
C474 C 0.50028 0.76552 0.76672 0.0
C475 C 0.50148 0.77109 0.74722 0.0
C476 C 0.50585 0.75749 0.73267 0.0
C477 C 0.50895 0.73781 0.73777 0.0
C478 C 0.50749 0.73209 0.75745 0.0
C479 C 0.50301 0.746 0.77163 0.0
C480 C 0.51119 0.71208 0.76449 0.0
C481 C 0.49597 0.69852 0.765 0.0
C482 C 0.52772 0.70874 0.77599 0.0
C483 C 0.5284 0.69302 0.78888 0.0
C484 C 0.51253 0.6802 0.79062 0.0
C485 C 0.50816 0.76515 0.71269 0.0
C486 C 0.49155 0.77015 0.70193 0.0
C487 C 0.52622 0.77276 0.70702 0.0
C488 C 0.52745 0.78617 0.69172 0.0
C489 C 0.51063 0.79226 0.68178 0.0
C490 C 0.49278 0.78344 0.68653 0.0
C491 C 0.49668 0.68266 0.77783 0.0
H492 H 0.47139 0.82107 0.79217 0.0
H493 H 0.47484 0.79614 0.76704 0.0
H494 H 0.51972 0.7683 0.80104 0.0
H495 H 0.51623 0.79302 0.82604 0.0
H496 H 0.49979 0.78628 0.74334 0.0
H497 H 0.50187 0.74155 0.78673 0.0
H498 H 0.51271 0.72726 0.7267 0.0
H499 H 0.48288 0.70101 0.7566 0.0
H500 H 0.53942 0.71928 0.77625 0.0
H501 H 0.54079 0.69189 0.79851 0.0
H502 H 0.47738 0.76492 0.70641 0.0
H503 H 0.53915 0.76953 0.7154 0.0
H504 H 0.48435 0.6729 0.77839 0.0
H505 H 0.4795 0.78788 0.67933 0.0
H506 H 0.54146 0.79248 0.68829 0.0
C507 C 0.21521 0.5168 0.81045 0.0
C508 C 0.20001 0.5032 0.80969 0.0
C509 C 0.22956 0.5169 0.79614 0.0
C510 C 0.22883 0.50352 0.78075 0.0
C511 C 0.21357 0.49 0.77992 0.0
C512 C 0.19931 0.48978 0.79433 0.0
C513 C 0.24398 0.50367 0.76558 0.0
C514 C 0.2636 0.50436 0.77072 0.0
C515 C 0.27816 0.50447 0.75648 0.0
C516 C 0.27292 0.50416 0.73659 0.0
C517 C 0.25304 0.50337 0.73137 0.0
C518 C 0.23883 0.50307 0.74596 0.0
C519 C 0.24595 0.50299 0.71105 0.0
C520 C 0.24231 0.52058 0.70139 0.0
C521 C 0.23728 0.48591 0.70399 0.0
C522 C 0.2241 0.48659 0.68848 0.0
C523 C 0.21916 0.50443 0.67976 0.0
C524 C 0.29849 0.50458 0.76356 0.0
C525 C 0.30733 0.52235 0.76827 0.0
C526 C 0.30628 0.48737 0.77127 0.0
C527 C 0.32171 0.488 0.78454 0.0
C528 C 0.32964 0.50591 0.79052 0.0
C529 C 0.32281 0.523 0.78152 0.0
C530 C 0.2291 0.52129 0.68586 0.0
H531 H 0.21612 0.5272 0.82225 0.0
H532 H 0.24112 0.52756 0.79699 0.0
H533 H 0.21278 0.47946 0.76825 0.0
H534 H 0.18765 0.47925 0.79337 0.0
H535 H 0.26763 0.50453 0.78597 0.0
H536 H 0.22357 0.50272 0.74195 0.0
H537 H 0.28405 0.50431 0.72546 0.0
H538 H 0.24844 0.53401 0.70685 0.0
H539 H 0.23943 0.47226 0.71155 0.0
H540 H 0.21669 0.47333 0.68439 0.0
H541 H 0.30127 0.53585 0.7629 0.0
H542 H 0.29933 0.47355 0.76832 0.0
H543 H 0.22594 0.53524 0.67928 0.0
H544 H 0.32877 0.53703 0.78546 0.0
H545 H 0.32638 0.47453 0.79121 0.0
C546 C 0.49245 0.21291 0.8095 0.0
C547 C 0.50673 0.19834 0.80926 0.0
C548 C 0.4925 0.2275 0.79545 0.0
C549 C 0.50677 0.22771 0.78086 0.0
C550 C 0.52109 0.21317 0.78064 0.0
C551 C 0.52112 0.19864 0.79478 0.0
C552 C 0.5065 0.24295 0.76576 0.0
C553 C 0.50375 0.26238 0.7709 0.0
C554 C 0.5028 0.27698 0.75672 0.0
C555 C 0.50459 0.27191 0.73686 0.0
C556 C 0.50739 0.25222 0.73161 0.0
C557 C 0.50845 0.23801 0.74618 0.0
C558 C 0.50834 0.24521 0.71125 0.0
C559 C 0.49107 0.24242 0.70076 0.0
C560 C 0.52537 0.23598 0.70479 0.0
C561 C 0.52486 0.22304 0.68909 0.0
C562 C 0.50723 0.21891 0.67954 0.0
C563 C 0.50013 0.29718 0.76381 0.0
C564 C 0.48371 0.30147 0.77517 0.0
C565 C 0.51588 0.31014 0.76403 0.0
C566 C 0.51579 0.32628 0.77656 0.0
C567 C 0.49999 0.32968 0.78921 0.0
C568 C 0.48363 0.31747 0.7877 0.0
C569 C 0.49052 0.22942 0.68504 0.0
H570 H 0.48131 0.21308 0.82062 0.0
H571 H 0.4812 0.23846 0.79583 0.0
H572 H 0.53231 0.21311 0.76959 0.0
H573 H 0.53221 0.18748 0.79422 0.0
H574 H 0.50258 0.26624 0.78616 0.0
H575 H 0.51015 0.22285 0.74215 0.0
H576 H 0.50368 0.28301 0.72574 0.0
H577 H 0.47766 0.24903 0.7057 0.0
H578 H 0.53876 0.23752 0.71294 0.0
H579 H 0.538 0.21518 0.68546 0.0
H580 H 0.47153 0.29149 0.77553 0.0
H581 H 0.52885 0.30698 0.75569 0.0
H582 H 0.47676 0.22687 0.67782 0.0
H583 H 0.47125 0.31933 0.79723 0.0
H584 H 0.52849 0.33555 0.77697 0.0
C585 C 0.81041 0.51824 0.79593 0.0
C586 C 0.81053 0.5037 0.81025 0.0
C587 C 0.79629 0.51815 0.7814 0.0
C588 C 0.78199 0.50359 0.78102 0.0
C589 C 0.78211 0.48905 0.79534 0.0
C590 C 0.79631 0.48907 0.8098 0.0
C591 C 0.76689 0.50366 0.76579 0.0
C592 C 0.77195 0.50656 0.74636 0.0
C593 C 0.75778 0.50679 0.7317 0.0
C594 C 0.73799 0.50412 0.73674 0.0
C595 C 0.73281 0.50121 0.75646 0.0
C596 C 0.7474 0.50097 0.7707 0.0
C597 C 0.71251 0.49894 0.76343 0.0
C598 C 0.70015 0.51514 0.76444 0.0
C599 C 0.70765 0.48224 0.77412 0.0
C600 C 0.69179 0.48226 0.78684 0.0
C601 C 0.68026 0.49901 0.78919 0.0
C602 C 0.76487 0.50936 0.71147 0.0
C603 C 0.77601 0.52589 0.70703 0.0
C604 C 0.76535 0.49349 0.69866 0.0
C605 C 0.77793 0.49359 0.68256 0.0
C606 C 0.7904 0.50951 0.67905 0.0
C607 C 0.78862 0.52597 0.69108 0.0
C608 C 0.68414 0.51516 0.77713 0.0
H609 H 0.82133 0.52958 0.79587 0.0
H610 H 0.7964 0.5296 0.77059 0.0
H611 H 0.77131 0.47759 0.79526 0.0
H612 H 0.79603 0.47778 0.82078 0.0
H613 H 0.78716 0.50826 0.74253 0.0
H614 H 0.74345 0.49914 0.78586 0.0
H615 H 0.72689 0.50431 0.72559 0.0
H616 H 0.70376 0.52832 0.75662 0.0
H617 H 0.71715 0.46968 0.77389 0.0
H618 H 0.68956 0.46958 0.79588 0.0
H619 H 0.77617 0.53818 0.71688 0.0
H620 H 0.75716 0.48044 0.70192 0.0
H621 H 0.67538 0.52819 0.77814 0.0
H622 H 0.79798 0.53846 0.68914 0.0
H623 H 0.77853 0.4808 0.67341 0.0
C624 C 0.49017 0.19893 0.21233 0.0
C625 C 0.50465 0.19885 0.19795 0.0
C626 C 0.49022 0.21312 0.2268 0.0
C627 C 0.50467 0.22753 0.22703 0.0
C628 C 0.51913 0.22748 0.21262 0.0
C629 C 0.51916 0.21321 0.19824 0.0
C630 C 0.50465 0.2426 0.24229 0.0
C631 C 0.50211 0.23747 0.26175 0.0
C632 C 0.50207 0.25159 0.27645 0.0
C633 C 0.50456 0.2714 0.27143 0.0
C634 C 0.507 0.27664 0.25168 0.0
C635 C 0.50712 0.26213 0.23738 0.0
C636 C 0.50901 0.29693 0.2447 0.0
C637 C 0.49225 0.30791 0.24082 0.0
C638 C 0.52667 0.30262 0.23618 0.0
C639 C 0.52728 0.31794 0.22281 0.0
C640 C 0.5102 0.3279 0.21757 0.0
C641 C 0.49981 0.24444 0.29669 0.0
C642 C 0.48322 0.23351 0.3014 0.0
C643 C 0.51595 0.2436 0.30914 0.0
C644 C 0.51601 0.2309 0.32513 0.0
C645 C 0.49998 0.21866 0.32892 0.0
C646 C 0.48328 0.22079 0.31726 0.0
C647 C 0.49285 0.32333 0.22745 0.0
H648 H 0.47892 0.18792 0.21249 0.0
H649 H 0.47885 0.21295 0.23769 0.0
H650 H 0.5305 0.23837 0.2126 0.0
H651 H 0.53039 0.21352 0.1872 0.0
H652 H 0.50056 0.22224 0.26556 0.0
H653 H 0.50874 0.26616 0.22222 0.0
H654 H 0.5045 0.28248 0.28262 0.0
H655 H 0.47835 0.30348 0.24676 0.0
H656 H 0.53971 0.29412 0.23861 0.0
H657 H 0.54095 0.32129 0.21577 0.0
H658 H 0.47071 0.2336 0.29182 0.0
H659 H 0.52906 0.2516 0.30564 0.0
H660 H 0.4794 0.33062 0.22373 0.0
H661 H 0.47069 0.21161 0.31942 0.0
H662 H 0.52899 0.23003 0.33399 0.0
C663 C 0.81116 0.48985 0.21278 0.0
C664 C 0.81155 0.50443 0.19851 0.0
C665 C 0.79689 0.48999 0.22716 0.0
C666 C 0.78269 0.50464 0.22742 0.0
C667 C 0.78307 0.51922 0.21315 0.0
C668 C 0.79742 0.51915 0.19885 0.0
C669 C 0.76745 0.50466 0.24251 0.0
C670 C 0.77233 0.50178 0.26199 0.0
C671 C 0.75804 0.50168 0.27652 0.0
C672 C 0.73831 0.50443 0.27131 0.0
C673 C 0.73331 0.50731 0.25155 0.0
C674 C 0.74801 0.50745 0.23743 0.0
C675 C 0.71306 0.50962 0.24443 0.0
C676 C 0.70044 0.4936 0.24397 0.0
C677 C 0.70839 0.52609 0.2333 0.0
C678 C 0.69244 0.52597 0.22071 0.0
C679 C 0.68061 0.50935 0.21893 0.0
C680 C 0.76494 0.49919 0.29681 0.0
C681 C 0.77585 0.48257 0.30146 0.0
C682 C 0.7656 0.51519 0.30945 0.0
C683 C 0.77817 0.51513 0.32556 0.0
C684 C 0.79044 0.4991 0.32925 0.0
C685 C 0.78844 0.48251 0.31742 0.0
C686 C 0.68434 0.49348 0.2314 0.0
H687 H 0.822 0.47842 0.21291 0.0
H688 H 0.79681 0.47851 0.23794 0.0
H689 H 0.77234 0.53075 0.21315 0.0
H690 H 0.79733 0.53047 0.1879 0.0
H691 H 0.78749 0.50002 0.26595 0.0
H692 H 0.74421 0.50925 0.22223 0.0
H693 H 0.72711 0.50433 0.28238 0.0
H694 H 0.70387 0.48059 0.25216 0.0
H695 H 0.71808 0.53851 0.23313 0.0
H696 H 0.69032 0.53843 0.21135 0.0
H697 H 0.77588 0.47017 0.29174 0.0
H698 H 0.75761 0.52831 0.30602 0.0
H699 H 0.67535 0.48058 0.23081 0.0
H700 H 0.79765 0.46993 0.31952 0.0
H701 H 0.77893 0.52802 0.33455 0.0
C702 C 0.49881 0.79479 0.19604 0.0
C703 C 0.51274 0.80963 0.19755 0.0
C704 C 0.49739 0.78058 0.21039 0.0
C705 C 0.5099 0.78089 0.22652 0.0
C706 C 0.52389 0.7957 0.22801 0.0
C707 C 0.52528 0.80996 0.21366 0.0
C708 C 0.50809 0.76592 0.24184 0.0
C709 C 0.50506 0.74648 0.23683 0.0
C710 C 0.50239 0.7322 0.25111 0.0
C711 C 0.50291 0.73754 0.27097 0.0
C712 C 0.50617 0.75719 0.27612 0.0
C713 C 0.50876 0.77111 0.26147 0.0
C714 C 0.50617 0.76441 0.29643 0.0
C715 C 0.48847 0.76774 0.30601 0.0
C716 C 0.52312 0.77309 0.30381 0.0
C717 C 0.52221 0.78596 0.31955 0.0
C718 C 0.50427 0.79059 0.32823 0.0
C719 C 0.49912 0.71207 0.24412 0.0
C720 C 0.48292 0.70836 0.23225 0.0
C721 C 0.51438 0.69854 0.24439 0.0
C722 C 0.51408 0.68238 0.2319 0.0
C723 C 0.49857 0.67953 0.21876 0.0
C724 C 0.48263 0.69233 0.21975 0.0
C725 C 0.48752 0.78069 0.32177 0.0
H726 H 0.48873 0.79438 0.18395 0.0
H727 H 0.48624 0.76955 0.20903 0.0
H728 H 0.53386 0.79615 0.24019 0.0
H729 H 0.53627 0.82115 0.21507 0.0
H730 H 0.50491 0.74233 0.22161 0.0
H731 H 0.51069 0.78626 0.26543 0.0
H732 H 0.50073 0.72667 0.28215 0.0
H733 H 0.47513 0.76157 0.30035 0.0
H734 H 0.53687 0.77112 0.29638 0.0
H735 H 0.5354 0.79335 0.32391 0.0
H736 H 0.47116 0.7188 0.23147 0.0
H737 H 0.5272 0.70126 0.25311 0.0
H738 H 0.4735 0.78363 0.32829 0.0
H739 H 0.47049 0.6909 0.20984 0.0
H740 H 0.52644 0.67265 0.2319 0.0
C741 C 0.21638 0.49414 0.1961 0.0
C742 C 0.19993 0.50604 0.19824 0.0
C743 C 0.23066 0.49373 0.21047 0.0
C744 C 0.22877 0.50521 0.22724 0.0
C745 C 0.21233 0.51712 0.22938 0.0
C746 C 0.19804 0.51754 0.21501 0.0
C747 C 0.2439 0.50474 0.24248 0.0
C748 C 0.26357 0.50533 0.23743 0.0
C749 C 0.27809 0.50478 0.25169 0.0
C750 C 0.2728 0.50368 0.27153 0.0
C751 C 0.25291 0.50314 0.27668 0.0
C752 C 0.23872 0.50364 0.26208 0.0
C753 C 0.24581 0.50229 0.29698 0.0
C754 C 0.23719 0.48506 0.3037 0.0
C755 C 0.24217 0.51968 0.30701 0.0
C756 C 0.22901 0.52006 0.32257 0.0
C757 C 0.21913 0.50306 0.32835 0.0
C758 C 0.29844 0.5051 0.24471 0.0
C759 C 0.30789 0.48747 0.24069 0.0
C760 C 0.30577 0.52229 0.2365 0.0
C761 C 0.32135 0.52171 0.22341 0.0
C762 C 0.32984 0.50387 0.21808 0.0
C763 C 0.32347 0.48686 0.22756 0.0
C764 C 0.22407 0.4854 0.31927 0.0
H765 H 0.21806 0.4849 0.18346 0.0
H766 H 0.24306 0.48421 0.20858 0.0
H767 H 0.21065 0.52631 0.24206 0.0
H768 H 0.18565 0.52705 0.21691 0.0
H769 H 0.26767 0.50633 0.22223 0.0
H770 H 0.22347 0.50303 0.26608 0.0
H771 H 0.2839 0.50326 0.28268 0.0
H772 H 0.23935 0.47157 0.29585 0.0
H773 H 0.24827 0.53323 0.3018 0.0
H774 H 0.22583 0.53387 0.32943 0.0
H775 H 0.30221 0.47397 0.24646 0.0
H776 H 0.29838 0.53598 0.23895 0.0
H777 H 0.2167 0.47205 0.32315 0.0
H778 H 0.32986 0.47291 0.22407 0.0
H779 H 0.32569 0.53509 0.21635 0.0
C780 C 0.8125 0.79397 0.49277 0.0
C781 C 0.81058 0.81019 0.50503 0.0
C782 C 0.79822 0.7796 0.49243 0.0
C783 C 0.78177 0.78108 0.50444 0.0
C784 C 0.77988 0.79725 0.51677 0.0
C785 C 0.79411 0.81168 0.51702 0.0
C786 C 0.76659 0.76583 0.50409 0.0
C787 C 0.77174 0.7462 0.50313 0.0
C788 C 0.75754 0.73161 0.50276 0.0
C789 C 0.73766 0.73676 0.50347 0.0
C790 C 0.73239 0.7566 0.50449 0.0
C791 C 0.74692 0.77087 0.50472 0.0
C792 C 0.71204 0.76359 0.50508 0.0
C793 C 0.70214 0.76712 0.4876 0.0
C794 C 0.70511 0.77221 0.52223 0.0
C795 C 0.68949 0.78524 0.52172 0.0
C796 C 0.68051 0.79007 0.50398 0.0
C797 C 0.76463 0.7113 0.50194 0.0
C798 C 0.77359 0.70471 0.48482 0.0
C799 C 0.76786 0.7011 0.51929 0.0
C800 C 0.78092 0.68545 0.51979 0.0
C801 C 0.79111 0.67977 0.50294 0.0
C802 C 0.78661 0.68908 0.48528 0.0
C803 C 0.68649 0.78018 0.48705 0.0
H804 H 0.82514 0.79228 0.48353 0.0
H805 H 0.79998 0.76741 0.48262 0.0
H806 H 0.76748 0.7987 0.52636 0.0
H807 H 0.79208 0.82412 0.52646 0.0
H808 H 0.78698 0.74214 0.503 0.0
H809 H 0.74278 0.78608 0.50509 0.0
H810 H 0.72655 0.72561 0.50324 0.0
H811 H 0.70749 0.76101 0.4741 0.0
H812 H 0.71285 0.77014 0.53579 0.0
H813 H 0.68548 0.79263 0.53503 0.0
H814 H 0.77174 0.7127 0.47136 0.0
H815 H 0.7615 0.70619 0.53277 0.0
H816 H 0.67972 0.78327 0.47318 0.0
H817 H 0.79423 0.6853 0.47203 0.0
H818 H 0.78376 0.67843 0.53358 0.0
C819 C 0.81085 0.21264 0.51686 0.0
C820 C 0.81095 0.19826 0.50237 0.0
C821 C 0.79669 0.22712 0.51678 0.0
C822 C 0.78233 0.22741 0.50228 0.0
C823 C 0.78245 0.21306 0.48777 0.0
C824 C 0.79668 0.19864 0.48777 0.0
C825 C 0.76715 0.24257 0.50243 0.0
C826 C 0.77212 0.262 0.50544 0.0
C827 C 0.75787 0.27655 0.50595 0.0
C828 C 0.73809 0.27142 0.50341 0.0
C829 C 0.73301 0.25171 0.50033 0.0
C830 C 0.74767 0.23756 0.49983 0.0
C831 C 0.71272 0.24464 0.49823 0.0
C832 C 0.70046 0.24367 0.51451 0.0
C833 C 0.70776 0.2339 0.48158 0.0
C834 C 0.69188 0.2212 0.48172 0.0
C835 C 0.68044 0.21891 0.49855 0.0
C836 C 0.76486 0.29677 0.50878 0.0
C837 C 0.77577 0.30108 0.52549 0.0
C838 C 0.76568 0.30964 0.49297 0.0
C839 C 0.77839 0.32563 0.49331 0.0
C840 C 0.79067 0.32897 0.50941 0.0
C841 C 0.78852 0.31692 0.52582 0.0
C842 C 0.68444 0.23099 0.51465 0.0
H843 H 0.8218 0.21276 0.52817 0.0
H844 H 0.79681 0.23795 0.52822 0.0
H845 H 0.7716 0.21307 0.47635 0.0
H846 H 0.79638 0.18762 0.47653 0.0
H847 H 0.78732 0.26591 0.50708 0.0
H848 H 0.7438 0.22239 0.49793 0.0
H849 H 0.72692 0.2825 0.50385 0.0
H850 H 0.70414 0.25153 0.52766 0.0
H851 H 0.71718 0.23411 0.46896 0.0
H852 H 0.68955 0.21215 0.46907 0.0
H853 H 0.77569 0.29118 0.53774 0.0
H854 H 0.75768 0.30647 0.47977 0.0
H855 H 0.67575 0.23001 0.52774 0.0
H856 H 0.79772 0.31872 0.53844 0.0
H857 H 0.77924 0.33481 0.48056 0.0
C858 C 0.21537 0.81137 0.49345 0.0
C859 C 0.1997 0.80989 0.50647 0.0
C860 C 0.22971 0.79708 0.49298 0.0
C861 C 0.22878 0.78107 0.50563 0.0
C862 C 0.2132 0.77967 0.51876 0.0
C863 C 0.19878 0.79389 0.51912 0.0
C864 C 0.24395 0.76583 0.50503 0.0
C865 C 0.26348 0.77083 0.50271 0.0
C866 C 0.27801 0.75657 0.50181 0.0
C867 C 0.27282 0.73673 0.50357 0.0
C868 C 0.25305 0.73158 0.5061 0.0
C869 C 0.23889 0.74623 0.50666 0.0
C870 C 0.24595 0.71127 0.50793 0.0
C871 C 0.24477 0.69927 0.49148 0.0
C872 C 0.23536 0.7061 0.52461 0.0
C873 C 0.22263 0.69026 0.52438 0.0
C874 C 0.22016 0.67903 0.50743 0.0
C875 C 0.29823 0.76364 0.49922 0.0
C876 C 0.30267 0.7745 0.4825 0.0
C877 C 0.31085 0.7647 0.51521 0.0
C878 C 0.32674 0.77755 0.51502 0.0
C879 C 0.33022 0.78976 0.49889 0.0
C880 C 0.3184 0.78739 0.48233 0.0
C881 C 0.23207 0.68325 0.49125 0.0
H882 H 0.21663 0.82365 0.48368 0.0
H883 H 0.24141 0.79846 0.48253 0.0
H884 H 0.21221 0.76764 0.52886 0.0
H885 H 0.18677 0.7922 0.52917 0.0
H886 H 0.26754 0.78605 0.50186 0.0
H887 H 0.2237 0.74223 0.50801 0.0
H888 H 0.2839 0.72557 0.50298 0.0
H889 H 0.25249 0.70312 0.4783 0.0
H890 H 0.23571 0.71535 0.53736 0.0
H891 H 0.21371 0.68778 0.53709 0.0
H892 H 0.29293 0.77426 0.47013 0.0
H893 H 0.30755 0.75678 0.52842 0.0
H894 H 0.23096 0.67474 0.47807 0.0
H895 H 0.32029 0.79653 0.46967 0.0
H896 H 0.33572 0.77856 0.5279 0.0
C897 C 0.21516 0.1983 0.52323 0.0
C898 C 0.19926 0.19881 0.51043 0.0
C899 C 0.22942 0.2127 0.52241 0.0
C900 C 0.22805 0.22782 0.50875 0.0
C901 C 0.21213 0.2283 0.49598 0.0
C902 C 0.19786 0.21396 0.49684 0.0
C903 C 0.24331 0.24292 0.50755 0.0
C904 C 0.26294 0.23784 0.50851 0.0
C905 C 0.27756 0.2519 0.50651 0.0
C906 C 0.27236 0.27157 0.50352 0.0
C907 C 0.25249 0.27679 0.50269 0.0
C908 C 0.23825 0.26239 0.50481 0.0
C909 C 0.24545 0.29693 0.49959 0.0
C910 C 0.24507 0.31015 0.51511 0.0
C911 C 0.23408 0.30083 0.48308 0.0
C912 C 0.22139 0.3167 0.48272 0.0
C913 C 0.21973 0.32916 0.49888 0.0
C914 C 0.2979 0.24477 0.50677 0.0
C915 C 0.30501 0.23595 0.52375 0.0
C916 C 0.30773 0.24159 0.48918 0.0
C917 C 0.32347 0.22864 0.48835 0.0
C918 C 0.32967 0.21858 0.5051 0.0
C919 C 0.32074 0.22308 0.52296 0.0
C920 C 0.23241 0.32616 0.51474 0.0
H921 H 0.21647 0.18688 0.53398 0.0
H922 H 0.24143 0.2121 0.53258 0.0
H923 H 0.21087 0.23957 0.48506 0.0
H924 H 0.18592 0.21451 0.48659 0.0
H925 H 0.26696 0.22268 0.51021 0.0
H926 H 0.22301 0.26645 0.50442 0.0
H927 H 0.28352 0.28254 0.50176 0.0
H928 H 0.25341 0.30726 0.52816 0.0
H929 H 0.2338 0.29061 0.47109 0.0
H930 H 0.21185 0.31824 0.4703 0.0
H931 H 0.29738 0.2378 0.53741 0.0
H932 H 0.30226 0.24788 0.47582 0.0
H933 H 0.23191 0.33564 0.52729 0.0
H934 H 0.32491 0.21556 0.53614 0.0
H935 H 0.33019 0.22581 0.4744 0.0
C936 C 1.00406 0.95744 0.55179 0.0
C937 C 0.00642 0.95713 0.45669 0.0
C938 C 0.00663 0.05126 0.55153 0.0
C939 C 0.00523 0.05098 0.45636 0.0
C940 C 0.95836 0.05136 0.50406 0.0
C941 C 0.95817 0.9572 0.50454 0.0
C942 C 0.05265 0.05118 0.50423 0.0
C943 C 0.05234 0.95695 0.50474 0.0
C944 C 0.05236 0.005 0.45656 0.0
C945 C 0.95853 1.00303 0.45657 0.0
C946 C 0.0523 1.00286 0.55167 0.0
C947 C 0.95849 0.00539 0.55168 0.0
Eu948 Eu 0.00529 0.96712 0.50422 0.0
O949 O 0.988 0.98682 0.48706 0.0
O950 O 0.02269 0.98687 0.52124 0.0
Eu951 Eu 0.96836 0.00426 0.50414 0.0
Eu952 Eu 0.04248 1.00407 0.50411 0.0
O953 O 0.98801 0.98693 0.52127 0.0
O954 O 0.0228 0.98666 0.48703 0.0
Eu955 Eu 0.00539 0.00431 0.54051 0.0
Eu956 Eu 0.00546 1.00406 0.46774 0.0
O957 O 0.98808 0.02169 0.52118 0.0
O958 O 0.98807 0.02156 0.48694 0.0
O959 O 0.02279 0.02146 0.48703 0.0
O960 O 0.02278 0.02157 0.52112 0.0
Eu961 Eu 0.00546 0.0413 0.50399 0.0
O962 O 0.00518 0.95103 0.53342 0.0
O963 O 0.00532 0.95082 0.4751 0.0
O964 O 0.00539 0.05757 0.53313 0.0
O965 O 0.00561 0.05738 0.47477 0.0
O966 O 0.95237 0.03291 0.50435 0.0
O967 O 0.95224 0.97567 0.50465 0.0
O968 O 0.05857 0.0327 0.50423 0.0
O969 O 0.05843 0.97536 0.50422 0.0
O970 O 0.03376 0.00544 0.45116 0.0
O971 O 0.97715 1.0026 0.45118 0.0
O972 O 0.03369 1.00245 0.55706 0.0
O973 O 0.9771 0.00603 0.55707 0.0
O974 O 0.03421 0.05721 0.5041 0.0
O975 O 0.97681 0.05736 0.50375 0.0
O976 O 0.03388 0.95102 0.5049 0.0
O977 O 0.97659 0.95114 0.50418 0.0
O978 O 0.00697 0.97572 0.45125 0.0
O979 O 0.00483 0.03233 0.45109 0.0
O980 O 1.0036 0.97606 0.55714 0.0
O981 O 0.00721 0.03267 0.55696 0.0
O982 O 0.95215 0.0042 0.53329 0.0
O983 O 0.95217 1.00411 0.47496 0.0
O984 O 0.05867 1.004 0.53329 0.0
O985 O 0.05872 1.00398 0.47495 0.0
C986 C 0.50606 0.95719 0.051 0.0
C987 C 0.50558 0.05146 0.05094 0.0
C988 C 0.50405 0.95718 0.95666 0.0
C989 C 0.50514 0.05138 0.95669 0.0
C990 C 0.55261 1.00313 0.95657 0.0
C991 C 0.55341 0.00513 0.05039 0.0
C992 C 0.45748 0.00529 0.9574 0.0
C993 C 0.4583 1.00366 0.05123 0.0
C994 C 0.45809 0.05138 0.00524 0.0
C995 C 0.5532 0.05104 1.00277 0.0
C996 C 0.45767 0.95752 1.00372 0.0
C997 C 0.55285 0.95722 0.00445 0.0
Eu998 Eu 0.50578 0.00433 0.04093 0.0
O999 O 0.52275 0.02167 0.02108 0.0
O1000 O 0.48848 0.98693 0.0214 0.0
Eu1001 Eu 0.54178 0.00416 1.00356 0.0
Eu1002 Eu 0.46912 0.00443 0.00424 0.0
O1003 O 0.52256 0.98687 0.02104 0.0
O1004 O 0.48862 0.02176 0.02136 0.0
Eu1005 Eu 0.50531 0.96717 1.00382 0.0
Eu1006 Eu 0.5056 0.04141 1.00383 0.0
O1007 O 0.52234 0.9868 0.98627 0.0
O1008 O 0.52243 0.02161 0.9863 0.0
O1009 O 0.4883 0.02172 0.98663 0.0
O1010 O 0.48819 0.98701 0.98667 0.0
Eu1011 Eu 0.50512 0.00427 0.96676 0.0
O1012 O 0.50607 0.97566 0.05695 0.0
O1013 O 0.50598 0.03302 0.05695 0.0
O1014 O 0.50435 0.97564 0.95071 0.0
O1015 O 0.50474 0.03292 0.95074 0.0
O1016 O 0.55812 1.00257 0.97514 0.0
O1017 O 0.55862 0.00551 0.03172 0.0
O1018 O 0.45227 0.00579 0.97607 0.0
O1019 O 0.45277 1.0032 0.03266 0.0
O1020 O 0.47648 0.05768 1.00385 0.0
O1021 O 0.53484 0.05746 1.00402 0.0
O1022 O 0.47608 0.9511 1.00402 0.0
O1023 O 0.53444 0.95091 1.00335 0.0
O1024 O 0.47581 0.00428 0.95087 0.0
O1025 O 0.53418 0.00426 0.95034 0.0
O1026 O 0.47676 0.00455 0.05743 0.0
O1027 O 0.53505 0.00429 0.05689 0.0
O1028 O 0.5053 0.05742 0.03248 0.0
O1029 O 0.50568 0.05741 0.97513 0.0
O1030 O 0.50574 0.9512 0.03254 0.0
O1031 O 0.50446 0.95118 0.97511 0.0
O1032 O 0.55827 0.97582 0.00506 0.0
O1033 O 0.55848 0.0324 1.002 0.0
O1034 O 0.45243 0.97618 1.00354 0.0
O1035 O 0.45267 0.03278 0.00594 0.0
C1036 C 0.00651 0.45704 0.05098 0.0
C1037 C 1.00411 0.45656 0.95717 0.0
C1038 C 0.00435 0.55212 0.05057 0.0
C1039 C 0.00676 0.55167 0.95673 0.0
C1040 C 0.95873 0.55198 1.00294 0.0
C1041 C 0.95852 0.4569 0.00507 0.0
C1042 C 0.05257 0.55172 0.00466 0.0
C1043 C 0.05231 0.45663 1.00319 0.0
C1044 C 0.05255 0.50364 0.95667 0.0
C1045 C 0.95829 0.50455 0.95687 0.0
C1046 C 0.05278 0.50451 0.05091 0.0
C1047 C 0.95851 0.50425 0.05108 0.0
Eu1048 Eu 0.00543 0.46801 1.00403 0.0
O1049 O 0.98807 0.48723 0.98657 0.0
O1050 O 0.02288 0.4873 0.02133 0.0
Eu1051 Eu 0.96848 0.50441 1.00394 0.0
Eu1052 Eu 0.04257 0.5042 1.0038 0.0
O1053 O 0.98817 0.48741 0.02138 0.0
O1054 O 0.02281 0.48713 0.98648 0.0
Eu1055 Eu 0.00561 0.50453 0.04099 0.0
Eu1056 Eu 0.00545 0.50416 0.96673 0.0
O1057 O 0.98826 0.52155 0.0212 0.0
O1058 O 0.9882 0.52138 0.98643 0.0
O1059 O 0.02289 0.52128 0.98638 0.0
O1060 O 0.02296 0.52147 0.02114 0.0
Eu1061 Eu 0.00562 0.54071 1.0037 0.0
O1062 O 0.00702 0.45157 0.03239 0.0
O1063 O 1.00364 0.45129 0.97582 0.0
O1064 O 1.00385 0.55741 0.03193 0.0
O1065 O 0.00736 0.55712 0.97532 0.0
O1066 O 0.95236 0.53362 0.0043 0.0
O1067 O 0.95221 0.47528 1.00373 0.0
O1068 O 0.05886 0.53331 1.00347 0.0
O1069 O 0.0587 0.47501 1.00412 0.0
O1070 O 0.03411 0.50405 0.95066 0.0
O1071 O 0.97671 0.50411 0.95079 0.0
O1072 O 0.03433 0.50457 0.05693 0.0
O1073 O 0.97696 0.50464 0.05706 0.0
O1074 O 0.03398 0.55716 0.00532 0.0
O1075 O 0.97734 0.55732 1.00206 0.0
O1076 O 0.03367 0.45132 1.00264 0.0
O1077 O 0.97712 0.45149 0.00581 0.0
O1078 O 0.00532 0.47491 0.9507 0.0
O1079 O 0.00549 0.53327 0.95044 0.0
O1080 O 0.00546 0.47544 0.05728 0.0
O1081 O 0.00557 0.53378 0.05702 0.0
O1082 O 0.95251 0.50401 0.03263 0.0
O1083 O 0.95239 0.50484 0.97535 0.0
O1084 O 0.05868 0.50439 0.03242 0.0
O1085 O 0.05855 0.50353 0.97512 0.0
C1086 C 0.50477 0.4568 0.05137 0.0
C1087 C 0.50645 0.55061 0.05233 0.0
C1088 C 0.50625 0.4578 0.95625 0.0
C1089 C 0.5054 0.55164 0.95725 0.0
C1090 C 0.55255 0.50527 0.95669 0.0
C1091 C 0.55264 0.5026 0.05177 0.0
C1092 C 0.45867 0.50482 0.95674 0.0
C1093 C 0.45881 0.50405 0.05191 0.0
C1094 C 0.45887 0.55162 0.00461 0.0
C1095 C 0.55306 0.55104 0.00506 0.0
C1096 C 0.45821 0.45739 1.00397 0.0
C1097 C 0.55246 0.45681 1.00336 0.0
Eu1098 Eu 0.50573 0.5038 0.0406 0.0
O1099 O 0.52319 0.52131 0.02152 0.0
O1100 O 0.48822 0.48677 0.02115 0.0
Eu1101 Eu 0.54276 0.50399 0.00425 0.0
Eu1102 Eu 0.4686 0.50445 0.00433 0.0
O1103 O 0.52299 0.48649 0.02114 0.0
O1104 O 0.4884 0.52155 0.0216 0.0
Eu1105 Eu 0.50541 0.46712 1.00388 0.0
Eu1106 Eu 0.5059 0.54128 0.0047 0.0
O1107 O 0.52287 0.48696 0.98702 0.0
O1108 O 0.52314 0.52167 0.98736 0.0
O1109 O 0.48843 0.52185 0.98743 0.0
O1110 O 0.48815 0.4871 0.98697 0.0
Eu1111 Eu 0.50564 0.50462 0.96791 0.0
O1112 O 0.5045 0.47537 0.0569 0.0
O1113 O 0.50694 0.53194 0.05752 0.0
O1114 O 0.50681 0.47646 0.95104 0.0
O1115 O 0.50467 0.5331 0.95166 0.0
O1116 O 0.55892 0.50397 0.97506 0.0
O1117 O 0.55899 0.50376 0.03339 0.0
O1118 O 0.45236 0.50495 0.97519 0.0
O1119 O 0.45244 0.50409 0.0335 0.0
O1120 O 0.47736 0.55748 0.00437 0.0
O1121 O 0.53464 0.5571 0.00541 0.0
O1122 O 0.47663 0.45129 1.00385 0.0
O1123 O 0.53397 0.45095 1.00317 0.0
O1124 O 0.47729 0.50443 0.95138 0.0
O1125 O 0.53394 0.50603 0.95133 0.0
O1126 O 0.47745 0.50418 0.05723 0.0
O1127 O 0.53402 0.50215 0.05716 0.0
O1128 O 0.50556 0.55715 0.034 0.0
O1129 O 0.50643 0.55779 0.97571 0.0
O1130 O 0.50554 0.45061 0.0329 0.0
O1131 O 0.50518 0.45126 0.97457 0.0
O1132 O 0.5586 0.47521 1.00395 0.0
O1133 O 0.55897 0.53257 0.0044 0.0
O1134 O 0.45238 0.47589 1.00414 0.0
O1135 O 0.45274 0.53321 0.00483 0.0
C1136 C 0.00538 0.45776 0.55187 0.0
C1137 C 0.0061 0.45632 0.45768 0.0
C1138 C 0.00499 0.55199 0.55063 0.0
C1139 C 0.00571 0.55058 0.45635 0.0
C1140 C 0.95744 0.55091 0.50387 0.0
C1141 C 0.95783 0.4571 0.50352 0.0
C1142 C 0.0526 0.55124 0.50266 0.0
C1143 C 0.05288 0.45746 0.50538 0.0
C1144 C 0.05294 0.5035 0.45731 0.0
C1145 C 0.95783 0.50467 0.45698 0.0
C1146 C 0.05267 0.50543 0.55117 0.0
C1147 C 0.95751 0.50355 0.55081 0.0
Eu1148 Eu 0.00534 0.46714 0.50459 0.0
O1149 O 0.98819 0.48641 0.48678 0.0
O1150 O 0.02226 0.48715 0.52178 0.0
Eu1151 Eu 0.96891 0.50403 0.50391 0.0
Eu1152 Eu 0.04152 0.50431 0.50422 0.0
O1153 O 0.98818 0.48705 0.52164 0.0
O1154 O 0.02242 0.48662 0.48698 0.0
Eu1155 Eu 0.0051 0.50474 0.5412 0.0
Eu1156 Eu 0.00533 0.50358 0.46697 0.0
O1157 O 0.98798 0.52177 0.52121 0.0
O1158 O 0.98821 0.52124 0.48641 0.0
O1159 O 0.02214 0.5213 0.48661 0.0
O1160 O 0.02221 0.52195 0.52134 0.0
Eu1161 Eu 0.00506 0.5413 0.50364 0.0
O1162 O 0.00538 0.45154 0.53349 0.0
O1163 O 0.0061 0.45065 0.47622 0.0
O1164 O 0.00506 0.55771 0.53209 0.0
O1165 O 0.00513 0.55686 0.4747 0.0
O1166 O 0.95221 0.53226 0.50432 0.0
O1167 O 0.95241 0.47568 0.50272 0.0
O1168 O 0.05804 0.53264 0.50265 0.0
O1169 O 0.05822 0.47609 0.5055 0.0
O1170 O 0.03454 0.5035 0.4509 0.0
O1171 O 0.97622 0.50356 0.45066 0.0
O1172 O 0.03422 0.50515 0.55748 0.0
O1173 O 0.97586 0.50476 0.55725 0.0
O1174 O 0.03419 0.55758 0.50343 0.0
O1175 O 0.97583 0.55735 0.50347 0.0
O1176 O 0.03451 0.45103 0.50474 0.0
O1177 O 0.97624 0.45082 0.50473 0.0
O1178 O 0.00561 0.47466 0.45135 0.0
O1179 O 0.00596 0.53204 0.45061 0.0
O1180 O 0.0053 0.47629 0.55761 0.0
O1181 O 0.00493 0.53361 0.55684 0.0
O1182 O 0.95221 0.50288 0.53217 0.0
O1183 O 0.9524 0.50521 0.47558 0.0
O1184 O 0.05802 0.50537 0.53255 0.0
O1185 O 0.0582 0.50356 0.47597 0.0
C1186 C 0.50526 0.95742 0.55183 0.0
C1187 C 0.50404 0.95632 0.45791 0.0
C1188 C 0.50578 0.05248 0.55076 0.0
C1189 C 0.50615 0.05146 0.45687 0.0
C1190 C 0.4588 0.05241 0.50396 0.0
C1191 C 0.45796 0.95726 0.5055 0.0
C1192 C 0.55266 0.05154 0.50445 0.0
C1193 C 0.5518 0.95644 0.50401 0.0
C1194 C 0.55182 1.0034 0.45653 0.0
C1195 C 0.45764 1.00389 0.45767 0.0
C1196 C 0.55303 0.00472 0.55076 0.0
C1197 C 0.45877 0.00567 0.55189 0.0
Eu1198 Eu 0.50495 0.9681 0.50476 0.0
O1199 O 0.48759 0.98732 0.4873 0.0
O1200 O 0.5228 0.98736 0.52169 0.0
Eu1201 Eu 0.46821 0.00474 0.50465 0.0
Eu1202 Eu 0.54237 1.00409 0.50379 0.0
O1203 O 0.48793 0.98772 0.5221 0.0
O1204 O 0.52226 0.98701 0.48689 0.0
Eu1205 Eu 0.50578 0.00482 0.54136 0.0
Eu1206 Eu 0.50484 1.00401 0.46719 0.0
O1207 O 0.48835 0.02178 0.52161 0.0
O1208 O 0.48786 0.02154 0.48687 0.0
O1209 O 0.52262 0.02119 0.48648 0.0
O1210 O 0.52302 0.0215 0.52124 0.0
Eu1211 Eu 0.50566 0.04077 0.50391 0.0
O1212 O 0.50488 0.9518 0.53327 0.0
O1213 O 0.50414 0.95119 0.47661 0.0
O1214 O 0.50546 0.05764 0.53207 0.0
O1215 O 0.50691 0.05702 0.47543 0.0
O1216 O 0.45229 0.03405 0.50446 0.0
O1217 O 0.45174 0.97571 0.50473 0.0
O1218 O 0.55886 0.0331 0.50339 0.0
O1219 O 0.5583 0.97481 0.50377 0.0
O1220 O 0.53329 1.00346 0.45079 0.0
O1221 O 0.47603 1.00358 0.4515 0.0
O1222 O 0.53466 0.00478 0.55701 0.0
O1223 O 0.47729 0.00563 0.55766 0.0
O1224 O 0.53411 0.05709 0.50501 0.0
O1225 O 0.47748 0.05758 0.50354 0.0
O1226 O 0.53313 0.95127 0.50443 0.0
O1227 O 0.47653 0.95173 0.50579 0.0
O1228 O 0.50435 0.97467 0.45137 0.0
O1229 O 0.50481 0.03303 0.4507 0.0
O1230 O 0.50581 0.97591 0.55793 0.0
O1231 O 0.50607 0.03412 0.55727 0.0
O1232 O 0.45254 0.0052 0.53352 0.0
O1233 O 0.45184 0.00454 0.47617 0.0
O1234 O 0.55877 0.00451 0.53222 0.0
O1235 O 0.55802 1.00366 0.47491 0.0
H1236 H 0.15993 0.20337 0.5088 0.0
H1237 H 0.13518 0.17783 0.50838 0.0
H1238 H 0.17999 0.13419 0.51268 0.0
H1239 H 0.20484 0.15965 0.5131 0.0
H1240 H 0.13197 0.14774 0.48105 0.0
H1241 H 0.14177 0.11915 0.55597 0.0
H1242 H 0.15131 0.14238 0.54835 0.0
H1243 H 0.16365 0.12032 0.54178 0.0
C1244 C 0.16448 0.18832 0.50967 0.0
C1245 C 0.18427 0.18345 0.51102 0.0
C1246 C 0.15036 0.1738 0.5095 0.0
C1247 C 0.1558 0.15421 0.51074 0.0
C1248 C 0.17553 0.14928 0.51214 0.0
H1249 H 0.0921 0.04602 0.50599 0.0
H1250 H 0.11715 0.07112 0.50688 0.0
C1251 C 0.18967 0.1638 0.51237 0.0
C1252 C 0.14084 0.13892 0.50975 0.0
H1253 H 0.12096 0.10125 0.53508 0.0
C1254 C 0.12948 0.13761 0.49288 0.0
C1255 C 0.13777 0.12576 0.52522 0.0
C1256 C 0.14914 0.12701 0.54394 0.0
C1257 C 0.11518 0.12326 0.49094 0.0
C1258 C 0.11207 0.11014 0.50642 0.0
C1259 C 0.12348 0.11138 0.52327 0.0
C1260 C 0.09688 0.09509 0.50551 0.0
C1261 C 0.10374 0.12203 0.47226 0.0
C1262 C 0.07724 0.10039 0.5046 0.0
C1263 C 0.06285 0.08613 0.50407 0.0
C1264 C 0.06789 0.06631 0.50454 0.0
C1265 C 0.08766 0.06112 0.50553 0.0
C1266 C 0.10202 0.07541 0.50607 0.0
H1267 H 0.11102 0.12998 0.46023 0.0
H1268 H 0.10163 0.10666 0.4678 0.0
H1269 H 0.08919 0.12862 0.47451 0.0
H1270 H 0.07304 0.11556 0.5045 0.0
H1271 H 0.04781 0.0907 0.50339 0.0
H1272 H 0.83247 0.18506 0.47183 0.0
H1273 H 0.85733 0.15961 0.47232 0.0
H1274 H 0.84777 0.15132 0.53375 0.0
H1275 H 0.82302 0.17685 0.5334 0.0
H1276 H 0.88645 0.15404 0.52416 0.0
H1277 H 0.84849 0.10116 0.4765 0.0
H1278 H 0.85121 0.12482 0.46585 0.0
H1279 H 0.83635 0.12183 0.48715 0.0
C1280 C 0.83557 0.17766 0.48538 0.0
C1281 C 0.82583 0.18283 0.50257 0.0
C1282 C 0.8497 0.16314 0.48563 0.0
C1283 C 0.85411 0.15344 0.50301 0.0
C1284 C 0.84449 0.15864 0.5202 0.0
H1285 H 0.92009 0.04714 0.51371 0.0
H1286 H 0.89502 0.07221 0.51404 0.0
C1287 C 0.83044 0.17323 0.51999 0.0
C1288 C 0.86916 0.13821 0.5034 0.0
H1289 H 0.88155 0.09435 0.48398 0.0
C1290 C 0.88538 0.14094 0.51545 0.0
C1291 C 0.86751 0.12107 0.4922 0.0
C1292 C 0.84987 0.1169 0.47983 0.0
C1293 C 0.90021 0.12704 0.51641 0.0
C1294 C 0.8989 0.11023 0.50465 0.0
C1295 C 0.88255 0.10738 0.49281 0.0
C1296 C 0.91422 0.09526 0.50461 0.0
C1297 C 0.91694 0.13032 0.53022 0.0
C1298 C 0.93324 0.09995 0.499 0.0
C1299 C 0.94766 0.08571 0.49892 0.0
C1300 C 0.94318 0.06647 0.50418 0.0
C1301 C 0.92401 0.06179 0.50952 0.0
C1302 C 0.90967 0.07609 0.50974 0.0
H1303 H 0.91312 0.1409 0.54181 0.0
H1304 H 0.92154 0.1165 0.53717 0.0
H1305 H 0.92949 0.13627 0.52203 0.0
H1306 H 0.93691 0.1146 0.49454 0.0
H1307 H 0.96222 0.08974 0.4945 0.0
H1308 H 0.82511 0.82948 0.5366 0.0
H1309 H 0.84953 0.85526 0.53687 0.0
H1310 H 0.85534 0.85056 0.4746 0.0
H1311 H 0.83025 0.82547 0.47406 0.0
H1312 H 0.88731 0.85387 0.5253 0.0
H1313 H 0.84665 0.90838 0.48204 0.0
H1314 H 0.83526 0.88698 0.49206 0.0
H1315 H 0.8491 0.88542 0.46992 0.0
C1316 C 0.83135 0.83415 0.52292 0.0
C1317 C 0.82565 0.82554 0.50529 0.0
C1318 C 0.8454 0.84876 0.52313 0.0
C1319 C 0.85397 0.85499 0.50573 0.0
C1320 C 0.84858 0.84622 0.48814 0.0
H1321 H 0.96146 0.91907 0.49398 0.0
H1322 H 0.93611 0.89423 0.49474 0.0
C1323 C 0.83444 0.83171 0.48789 0.0
C1324 C 0.86892 0.87035 0.50605 0.0
H1325 H 0.88019 0.91494 0.48762 0.0
C1326 C 0.88574 0.86728 0.51716 0.0
C1327 C 0.86664 0.88791 0.49562 0.0
C1328 C 0.84836 0.89249 0.48439 0.0
C1329 C 0.90056 0.88122 0.51786 0.0
C1330 C 0.89864 0.89841 0.50677 0.0
C1331 C 0.88167 0.90162 0.49593 0.0
C1332 C 0.91399 0.91337 0.50631 0.0
C1333 C 0.91796 0.87754 0.53071 0.0
C1334 C 0.90973 0.93246 0.51203 0.0
C1335 C 0.92408 0.94674 0.51136 0.0
C1336 C 0.94295 0.94214 0.50501 0.0
C1337 C 0.94713 0.92301 0.49917 0.0
C1338 C 0.93271 0.90878 0.49968 0.0
H1339 H 0.91466 0.86671 0.54223 0.0
H1340 H 0.93003 0.87169 0.52175 0.0
H1341 H 0.92302 0.89116 0.53774 0.0
H1342 H 0.89532 0.93627 0.51712 0.0
H1343 H 0.92043 0.96133 0.51605 0.0
H1344 H 0.1814 0.8254 0.53818 0.0
H1345 H 0.15545 0.84963 0.53848 0.0
H1346 H 0.15809 0.8534 0.47594 0.0
H1347 H 0.18326 0.82843 0.47539 0.0
H1348 H 0.15604 0.88685 0.52592 0.0
H1349 H 0.10071 0.84474 0.4852 0.0
H1350 H 0.12251 0.83378 0.4948 0.0
H1351 H 0.12323 0.84703 0.47226 0.0
C1352 C 0.17623 0.83114 0.52446 0.0
C1353 C 0.18429 0.82489 0.50675 0.0
C1354 C 0.16153 0.84508 0.52468 0.0
C1355 C 0.15467 0.85302 0.50722 0.0
C1356 C 0.16291 0.84711 0.48954 0.0
H1357 H 0.09034 0.95997 0.49367 0.0
H1358 H 0.11519 0.93465 0.49486 0.0
C1359 C 0.17748 0.83305 0.48928 0.0
C1360 C 0.13923 0.86788 0.50753 0.0
H1361 H 0.09426 0.8785 0.48968 0.0
C1362 C 0.14247 0.885 0.51811 0.0
C1363 C 0.12145 0.86524 0.49756 0.0
C1364 C 0.11665 0.84662 0.48698 0.0
C1365 C 0.12851 0.8998 0.51868 0.0
C1366 C 0.11112 0.89753 0.50795 0.0
C1367 C 0.10772 0.88025 0.49769 0.0
C1368 C 0.09617 0.91286 0.50726 0.0
C1369 C 0.13239 0.91755 0.53098 0.0
C1370 C 0.07714 0.90876 0.51327 0.0
C1371 C 0.06284 0.92308 0.51234 0.0
C1372 C 0.06739 0.94175 0.50543 0.0
C1373 C 0.08646 0.94578 0.4993 0.0
C1374 C 0.10069 0.93138 0.50005 0.0
H1375 H 0.14336 0.91455 0.54245 0.0
H1376 H 0.13817 0.92933 0.52161 0.0
H1377 H 0.11887 0.92285 0.53802 0.0
H1378 H 0.07338 0.8945 0.5188 0.0
H1379 H 0.04831 0.91956 0.51727 0.0
H1380 H 0.53531 0.17728 0.18519 0.0
H1381 H 0.53514 0.15236 0.15981 0.0
H1382 H 0.47378 0.16176 0.15084 0.0
H1383 H 0.47382 0.18655 0.17636 0.0
H1384 H 0.48332 0.12318 0.15333 0.0
H1385 H 0.53182 0.16139 0.10145 0.0
H1386 H 0.5422 0.15851 0.12521 0.0
H1387 H 0.52094 0.1734 0.12208 0.0
C1388 C 0.52184 0.17413 0.17767 0.0
C1389 C 0.50459 0.18385 0.18263 0.0
C1390 C 0.52177 0.15995 0.16318 0.0
C1391 C 0.50452 0.15551 0.15328 0.0
C1392 C 0.48725 0.16508 0.15831 0.0
H1393 H 0.49607 0.08975 0.04654 0.0
H1394 H 0.49515 0.11478 0.07164 0.0
C1395 C 0.48727 0.17915 0.17289 0.0
C1396 C 0.50437 0.14053 0.13796 0.0
H1397 H 0.52465 0.12829 0.09445 0.0
C1398 C 0.49227 0.1243 0.14039 0.0
C1399 C 0.51589 0.14225 0.12103 0.0
C1400 C 0.52831 0.15991 0.11714 0.0
C1401 C 0.4916 0.10951 0.12643 0.0
C1402 C 0.50369 0.11087 0.10987 0.0
C1403 C 0.51556 0.12724 0.10729 0.0
C1404 C 0.5041 0.09557 0.09487 0.0
C1405 C 0.47773 0.09276 0.12937 0.0
C1406 C 0.50964 0.07656 0.09966 0.0
C1407 C 0.51008 0.06216 0.08539 0.0
C1408 C 0.50523 0.06665 0.06605 0.0
C1409 C 0.49996 0.08581 0.06128 0.0
C1410 C 0.49939 0.10014 0.07559 0.0
H1411 H 0.46591 0.09656 0.1397 0.0
H1412 H 0.47109 0.08818 0.11539 0.0
H1413 H 0.4858 0.08021 0.13548 0.0
H1414 H 0.51378 0.07288 0.1144 0.0
H1415 H 0.51441 0.0476 0.0895 0.0
H1416 H 0.83361 0.53481 0.18591 0.0
H1417 H 0.85846 0.5344 0.16046 0.0
H1418 H 0.84812 0.47323 0.15122 0.0
H1419 H 0.82339 0.47351 0.1768 0.0
H1420 H 0.88689 0.48225 0.15361 0.0
H1421 H 0.84906 0.53143 0.1021 0.0
H1422 H 0.85217 0.54165 0.1259 0.0
H1423 H 0.837 0.5206 0.12273 0.0
C1424 C 0.83655 0.52133 0.17832 0.0
C1425 C 0.82657 0.50421 0.18321 0.0
C1426 C 0.85068 0.52112 0.1638 0.0
C1427 C 0.85484 0.50386 0.1538 0.0
C1428 C 0.84503 0.4867 0.15877 0.0
H1429 H 0.92011 0.49506 0.04674 0.0
H1430 H 0.89514 0.49425 0.07191 0.0
C1431 C 0.83099 0.48687 0.17338 0.0
C1432 C 0.86974 0.50357 0.13841 0.0
H1433 H 0.88202 0.52384 0.0949 0.0
C1434 C 0.88582 0.49126 0.14072 0.0
C1435 C 0.86808 0.51516 0.12153 0.0
C1436 C 0.85056 0.52782 0.11777 0.0
C1437 C 0.90053 0.49046 0.12667 0.0
C1438 C 0.89925 0.50262 0.11017 0.0
C1439 C 0.88301 0.51469 0.10771 0.0
C1440 C 0.91451 0.50292 0.09513 0.0
C1441 C 0.91713 0.47639 0.12949 0.0
C1442 C 0.93358 0.50828 0.09989 0.0
C1443 C 0.94793 0.50865 0.08558 0.0
C1444 C 0.94335 0.50393 0.06623 0.0
C1445 C 0.92413 0.49884 0.06149 0.0
C1446 C 0.90984 0.49834 0.07584 0.0
H1447 H 0.91323 0.46457 0.1398 0.0
H1448 H 0.92158 0.46975 0.11547 0.0
H1449 H 0.9298 0.48428 0.13559 0.0
H1450 H 0.93733 0.51232 0.11463 0.0
H1451 H 0.96255 0.51284 0.08968 0.0
H1452 H 0.51132 0.80494 0.15821 0.0
H1453 H 0.51126 0.83039 0.13338 0.0
H1454 H 0.51633 0.87412 0.17804 0.0
H1455 H 0.51634 0.84876 0.20297 0.0
H1456 H 0.484 0.8607 0.13059 0.0
H1457 H 0.55927 0.88877 0.13912 0.0
H1458 H 0.55166 0.86556 0.14872 0.0
H1459 H 0.54542 0.88762 0.16123 0.0
C1460 C 0.51247 0.81998 0.16272 0.0
C1461 C 0.51384 0.8249 0.1825 0.0
C1462 C 0.51251 0.83445 0.14855 0.0
C1463 C 0.51401 0.85404 0.15392 0.0
C1464 C 0.51556 0.85902 0.17363 0.0
H1465 H 0.50873 0.96228 0.09041 0.0
H1466 H 0.51008 0.93714 0.11538 0.0
C1467 C 0.51557 0.84455 0.18782 0.0
C1468 C 0.51292 0.8693 0.13894 0.0
H1469 H 0.53818 0.90679 0.11863 0.0
C1470 C 0.49585 0.87074 0.12788 0.0
C1471 C 0.52842 0.88235 0.1356 0.0
C1472 C 0.54731 0.88096 0.14666 0.0
C1473 C 0.49377 0.88511 0.11363 0.0
C1474 C 0.50929 0.89812 0.11025 0.0
C1475 C 0.52633 0.89674 0.12135 0.0
C1476 C 0.50818 0.9132 0.0951 0.0
C1477 C 0.47488 0.8865 0.10256 0.0
C1478 C 0.50682 0.90794 0.07548 0.0
C1479 C 0.50601 0.92223 0.06113 0.0
C1480 C 0.50665 0.94204 0.0662 0.0
C1481 C 0.50811 0.94719 0.08595 0.0
C1482 C 0.50894 0.93287 0.10026 0.0
H1483 H 0.46293 0.87863 0.11005 0.0
H1484 H 0.47049 0.9019 0.10056 0.0
H1485 H 0.47679 0.87992 0.08796 0.0
H1486 H 0.50656 0.89278 0.07125 0.0
H1487 H 0.50497 0.91769 0.04609 0.0
H1488 H 0.20504 0.50717 0.1589 0.0
H1489 H 0.17984 0.5073 0.13379 0.0
H1490 H 0.13551 0.50587 0.1781 0.0
H1491 H 0.16058 0.50556 0.2033 0.0
H1492 H 0.15023 0.47885 0.12818 0.0
H1493 H 0.12006 0.55229 0.14318 0.0
H1494 H 0.14355 0.54457 0.15201 0.0
H1495 H 0.12177 0.53658 0.16398 0.0
C1496 C 0.18992 0.5068 0.16328 0.0
C1497 C 0.18475 0.50641 0.18304 0.0
C1498 C 0.17559 0.50697 0.14895 0.0
C1499 C 0.1559 0.50686 0.15417 0.0
C1500 C 0.15066 0.50637 0.17385 0.0
H1501 H 0.0479 0.50453 0.09044 0.0
H1502 H 0.07318 0.50459 0.11531 0.0
C1503 C 0.16498 0.5062 0.1882 0.0
C1504 C 0.14082 0.50668 0.13898 0.0
H1505 H 0.10277 0.53265 0.12076 0.0
C1506 C 0.13989 0.49063 0.12646 0.0
C1507 C 0.1274 0.52208 0.13692 0.0
C1508 C 0.12827 0.53995 0.14961 0.0
C1509 C 0.12558 0.48941 0.11202 0.0
C1510 C 0.11217 0.50482 0.10996 0.0
C1511 C 0.11311 0.52087 0.12247 0.0
C1512 C 0.09702 0.50458 0.09483 0.0
C1513 C 0.12469 0.4715 0.09939 0.0
C1514 C 0.10217 0.50477 0.07513 0.0
C1515 C 0.0878 0.50471 0.06084 0.0
C1516 C 0.06802 0.50458 0.06604 0.0
C1517 C 0.06296 0.50458 0.08586 0.0
C1518 C 0.07736 0.50463 0.10012 0.0
H1519 H 0.13281 0.45915 0.10589 0.0
H1520 H 0.1094 0.46693 0.09693 0.0
H1521 H 0.13129 0.47479 0.08504 0.0
H1522 H 0.11731 0.50511 0.07081 0.0
H1523 H 0.09226 0.50483 0.04574 0.0
H1524 H 0.49124 0.84811 0.80531 0.0
H1525 H 0.49191 0.87365 0.83012 0.0
H1526 H 0.49366 0.83005 0.87512 0.0
H1527 H 0.49283 0.80444 0.85047 0.0
H1528 H 0.46648 0.88031 0.86294 0.0
H1529 H 0.54269 0.86409 0.88436 0.0
H1530 H 0.53212 0.85537 0.86197 0.0
H1531 H 0.52652 0.84358 0.88459 0.0
C1532 C 0.49146 0.84398 0.8205 0.0
C1533 C 0.49214 0.82431 0.82599 0.0
C1534 C 0.49193 0.85855 0.83461 0.0
C1535 C 0.49317 0.85364 0.85434 0.0
C1536 C 0.4931 0.83405 0.8599 0.0
H1537 H 0.50426 0.91765 0.96147 0.0
H1538 H 0.50109 0.89282 0.93633 0.0
C1539 C 0.49263 0.81949 0.84583 0.0
C1540 C 0.49498 0.86899 0.86914 0.0
H1541 H 0.52568 0.88696 0.90366 0.0
C1542 C 0.47942 0.88187 0.87182 0.0
C1543 C 0.51194 0.87088 0.88058 0.0
C1544 C 0.52937 0.85787 0.87768 0.0
C1545 C 0.48021 0.89643 0.88605 0.0
C1546 C 0.49714 0.89823 0.89756 0.0
C1547 C 0.51273 0.88542 0.8948 0.0
C1548 C 0.49898 0.91334 0.91261 0.0
C1549 C 0.46283 0.90948 0.88894 0.0
C1550 C 0.49915 0.93303 0.90746 0.0
C1551 C 0.50096 0.94729 0.92175 0.0
C1552 C 0.50274 0.94206 0.94145 0.0
C1553 C 0.50286 0.92224 0.94648 0.0
C1554 C 0.50105 0.90801 0.93216 0.0
H1555 H 0.4495 0.90333 0.88219 0.0
H1556 H 0.46003 0.91193 0.90465 0.0
H1557 H 0.46574 0.92379 0.8821 0.0
H1558 H 0.49794 0.93736 0.89237 0.0
H1559 H 0.50087 0.96239 0.9173 0.0
H1560 H 0.17997 0.53407 0.82427 0.0
H1561 H 0.15501 0.53363 0.8496 0.0
H1562 H 0.16131 0.47145 0.85486 0.0
H1563 H 0.18609 0.47178 0.82931 0.0
H1564 H 0.12345 0.48268 0.85332 0.0
H1565 H 0.16368 0.52679 0.90751 0.0
H1566 H 0.16113 0.53868 0.88443 0.0
H1567 H 0.17517 0.51669 0.8862 0.0
C1568 C 0.17611 0.52035 0.83096 0.0
C1569 C 0.18496 0.50297 0.82496 0.0
C1570 C 0.16193 0.52012 0.84543 0.0
C1571 C 0.15662 0.50256 0.8543 0.0
C1572 C 0.16531 0.48516 0.84821 0.0
H1573 H 0.09045 0.49263 0.9608 0.0
H1574 H 0.11548 0.49156 0.93568 0.0
C1575 C 0.17937 0.48535 0.83362 0.0
C1576 C 0.14165 0.50225 0.86965 0.0
H1577 H 0.1302 0.52093 0.91409 0.0
C1578 C 0.12494 0.49095 0.86667 0.0
C1579 C 0.14383 0.51284 0.88713 0.0
C1580 C 0.16201 0.52428 0.89164 0.0
C1581 C 0.11013 0.4902 0.88062 0.0
C1582 C 0.11194 0.50145 0.89772 0.0
C1583 C 0.1288 0.51249 0.90084 0.0
C1584 C 0.09662 0.50185 0.91271 0.0
C1585 C 0.09287 0.47713 0.87704 0.0
C1586 C 0.0778 0.50818 0.90809 0.0
C1587 C 0.06341 0.50866 0.92235 0.0
C1588 C 0.06772 0.50313 0.94155 0.0
C1589 C 0.08668 0.49707 0.94617 0.0
C1590 C 0.10099 0.49641 0.93185 0.0
H1591 H 0.0963 0.46555 0.86631 0.0
H1592 H 0.08788 0.47018 0.89072 0.0
H1593 H 0.08071 0.48591 0.8711 0.0
H1594 H 0.07429 0.51291 0.89349 0.0
H1595 H 0.04901 0.51362 0.91839 0.0
H1596 H 0.53733 0.18468 0.83041 0.0
H1597 H 0.53678 0.15918 0.85522 0.0
H1598 H 0.47519 0.15153 0.84613 0.0
H1599 H 0.47561 0.17714 0.82146 0.0
H1600 H 0.48492 0.15401 0.88463 0.0
H1601 H 0.53212 0.10085 0.84655 0.0
H1602 H 0.54303 0.1244 0.84929 0.0
H1603 H 0.52167 0.12165 0.83446 0.0
C1604 C 0.52373 0.1774 0.83359 0.0
C1605 C 0.50652 0.1828 0.82403 0.0
C1606 C 0.52345 0.16285 0.8477 0.0
C1607 C 0.50601 0.15332 0.85224 0.0
C1608 C 0.4888 0.15872 0.84276 0.0
H1609 H 0.49531 0.04706 0.91846 0.0
H1610 H 0.49485 0.07208 0.89333 0.0
C1611 C 0.48904 0.17335 0.82875 0.0
C1612 C 0.50556 0.13808 0.8673 0.0
H1613 H 0.5248 0.09415 0.87968 0.0
C1614 C 0.49356 0.14087 0.88354 0.0
C1615 C 0.51666 0.12088 0.86563 0.0
C1616 C 0.52895 0.11663 0.84796 0.0
C1617 C 0.49257 0.12698 0.89839 0.0
C1618 C 0.50425 0.11013 0.89708 0.0
C1619 C 0.51603 0.10721 0.88069 0.0
C1620 C 0.50431 0.0952 0.91245 0.0
C1621 C 0.4788 0.13033 0.91514 0.0
C1622 C 0.50997 0.09994 0.93144 0.0
C1623 C 0.51014 0.08573 0.94589 0.0
C1624 C 0.50491 0.06647 0.94147 0.0
C1625 C 0.49949 0.06174 0.92234 0.0
C1626 C 0.49919 0.076 0.90796 0.0
H1627 H 0.46721 0.14091 0.9113 0.0
H1628 H 0.47185 0.11653 0.91981 0.0
H1629 H 0.48702 0.13634 0.92765 0.0
H1630 H 0.51443 0.1146 0.93506 0.0
H1631 H 0.5146 0.0898 0.96043 0.0
H1632 H 0.83219 0.47319 0.82323 0.0
H1633 H 0.85705 0.4736 0.84868 0.0
H1634 H 0.84721 0.53492 0.85745 0.0
H1635 H 0.82246 0.53464 0.8319 0.0
H1636 H 0.88588 0.52561 0.85471 0.0
H1637 H 0.8483 0.47719 0.90714 0.0
H1638 H 0.85109 0.46673 0.88339 0.0
H1639 H 0.83608 0.4879 0.88654 0.0
C1640 C 0.83522 0.4867 0.83074 0.0
C1641 C 0.82541 0.50387 0.82569 0.0
C1642 C 0.84936 0.48691 0.84526 0.0
C1643 C 0.85369 0.50423 0.8551 0.0
C1644 C 0.84398 0.52141 0.85003 0.0
H1645 H 0.92 0.51402 0.96137 0.0
H1646 H 0.89482 0.51457 0.93641 0.0
C1647 C 0.82994 0.52124 0.83542 0.0
C1648 C 0.86875 0.50457 0.87033 0.0
H1649 H 0.88137 0.48472 0.91393 0.0
C1650 C 0.88488 0.51675 0.86771 0.0
C1651 C 0.86721 0.49317 0.88735 0.0
C1652 C 0.84965 0.48065 0.89142 0.0
C1653 C 0.89975 0.51763 0.88159 0.0
C1654 C 0.89856 0.50567 0.89825 0.0
C1655 C 0.88228 0.49371 0.90101 0.0
C1656 C 0.91395 0.5055 0.91315 0.0
C1657 C 0.91639 0.53158 0.87843 0.0
C1658 C 0.93297 0.50002 0.90831 0.0
C1659 C 0.94745 0.49981 0.92249 0.0
C1660 C 0.94304 0.5048 0.94182 0.0
C1661 C 0.92388 0.51002 0.94665 0.0
C1662 C 0.90947 0.51038 0.93242 0.0
H1663 H 0.91247 0.54328 0.86801 0.0
H1664 H 0.92101 0.53837 0.89233 0.0
H1665 H 0.92897 0.52353 0.87233 0.0
H1666 H 0.93658 0.49576 0.89359 0.0
H1667 H 0.96201 0.4955 0.91834 0.0
H1668 H 0.68705 0.67657 0.97362 0.0
H1669 H 0.66171 0.65161 0.97422 0.0
H1670 H 0.65311 0.66166 0.03553 0.0
H1671 H 0.67855 0.68652 0.03507 0.0
H1672 H 0.65575 0.62289 0.02627 0.0
H1673 H 0.60329 0.66061 0.97798 0.0
H1674 H 0.627 0.65775 0.96746 0.0
H1675 H 0.62395 0.67277 0.98864 0.0
C1676 C 0.67962 0.67355 0.98717 0.0
C1677 C 0.68466 0.68348 0.00429 0.0
C1678 C 0.66516 0.65935 0.98748 0.0
C1679 C 0.65538 0.65507 0.00485 0.0
C1680 C 0.66049 0.66485 0.02199 0.0
H1681 H 0.54885 0.58929 0.01481 0.0
H1682 H 0.57398 0.61429 0.0155 0.0
C1683 C 0.67503 0.67896 0.02172 0.0
C1684 C 0.64011 0.64006 0.00526 0.0
H1685 H 0.5964 0.62759 0.98557 0.0
C1686 C 0.64271 0.62392 0.01745 0.0
C1687 C 0.62306 0.64166 0.99392 0.0
C1688 C 0.61902 0.65922 0.9814 0.0
C1689 C 0.62878 0.60911 0.01838 0.0
C1690 C 0.61208 0.61036 0.00648 0.0
C1691 C 0.60934 0.62664 0.99452 0.0
C1692 C 0.59711 0.59504 0.00636 0.0
C1693 C 0.63192 0.59247 0.03232 0.0
C1694 C 0.60183 0.57601 1.00082 0.0
C1695 C 0.58755 0.56164 1.00051 0.0
C1696 C 0.56825 0.56616 0.00549 0.0
C1697 C 0.56355 0.58532 0.01082 0.0
C1698 C 0.57788 0.59963 0.01126 0.0
H1699 H 0.6424 0.59634 0.04398 0.0
H1700 H 0.61803 0.58792 0.03917 0.0
H1701 H 0.63793 0.57986 0.02425 0.0
H1702 H 0.61653 0.57232 0.99654 0.0
H1703 H 0.5916 0.54707 0.99613 0.0
H1704 H 0.32571 0.67828 0.03699 0.0
H1705 H 0.35124 0.6535 0.03667 0.0
H1706 H 0.3594 0.6626 0.97514 0.0
H1707 H 0.33375 0.68722 0.97534 0.0
H1708 H 0.35664 0.62417 0.98475 0.0
H1709 H 0.40965 0.66178 0.03251 0.0
H1710 H 0.38601 0.65911 0.04322 0.0
H1711 H 0.38899 0.67402 0.02195 0.0
C1712 C 0.33311 0.67511 0.02346 0.0
C1713 C 0.32783 0.68463 0.0062 0.0
C1714 C 0.34769 0.66102 0.0233 0.0
C1715 C 0.35736 0.65648 0.00594 0.0
C1716 C 0.35211 0.66597 0.98869 0.0
H1717 H 0.46335 0.58993 0.99523 0.0
H1718 H 0.43844 0.61516 0.99503 0.0
C1719 C 0.33745 0.67995 0.98881 0.0
C1720 C 0.37252 0.64134 0.00557 0.0
H1721 H 0.41628 0.62867 0.02504 0.0
C1722 C 0.36973 0.62516 0.99348 0.0
C1723 C 0.38965 0.64287 0.01681 0.0
C1724 C 0.3939 0.66047 0.02922 0.0
C1725 C 0.38356 0.61027 0.9925 0.0
C1726 C 0.40035 0.61145 0.00429 0.0
C1727 C 0.40326 0.62776 0.01618 0.0
C1728 C 0.41525 0.59605 0.00431 0.0
C1729 C 0.38023 0.59361 0.97862 0.0
C1730 C 0.41043 0.57703 0.0098 0.0
C1731 C 0.42459 0.56253 0.00981 0.0
C1732 C 0.44385 0.56691 0.00459 0.0
C1733 C 0.44866 0.58608 0.99938 0.0
C1734 C 0.43446 0.60052 0.99923 0.0
H1735 H 0.36971 0.59753 0.96701 0.0
H1736 H 0.39405 0.58895 0.97169 0.0
H1737 H 0.37418 0.58106 0.98674 0.0
H1738 H 0.39575 0.57343 0.01422 0.0
H1739 H 0.42046 0.54796 0.01412 0.0
H1740 H 0.30565 0.34983 0.00613 0.0
H1741 H 0.33089 0.37491 0.00614 0.0
H1742 H 0.37485 0.33084 0.99868 0.0
H1743 H 0.34974 0.30567 0.99875 0.0
H1744 H 0.363 0.37812 0.03167 0.0
H1745 H 0.38601 0.36987 0.95467 0.0
H1746 H 0.36343 0.3601 0.96381 0.0
H1747 H 0.38594 0.34771 0.96848 0.0
C1748 C 0.32071 0.34549 0.00457 0.0
C1749 C 0.32576 0.32583 1.00235 0.0
C1750 C 0.33506 0.35981 0.0045 0.0
C1751 C 0.35462 0.35467 1.00212 0.0
C1752 C 0.35975 0.33506 1.0001 0.0
H1753 H 0.46285 0.41798 1.00087 0.0
H1754 H 0.43749 0.39318 1.00099 0.0
C1755 C 0.34542 0.32074 1.00014 0.0
C1756 C 0.36975 0.36982 1.00225 0.0
H1757 H 0.4054 0.3903 0.97458 0.0
C1758 C 0.37223 0.38089 0.01918 0.0
C1759 C 0.3817 0.37326 0.9859 0.0
C1760 C 0.37908 0.36224 0.96711 0.0
C1761 C 0.38667 0.39519 0.02033 0.0
C1762 C 0.39864 0.39859 1.004 0.0
C1763 C 0.39615 0.38754 0.98706 0.0
C1764 C 0.41384 0.41364 1.00417 0.0
C1765 C 0.38926 0.40628 0.03908 0.0
C1766 C 0.4088 0.4333 0.00571 0.0
C1767 C 0.42322 0.44754 0.00566 0.0
C1768 C 0.44292 0.44232 1.00397 0.0
C1769 C 0.44785 0.42255 1.00228 0.0
C1770 C 0.43341 0.40834 1.00231 0.0
H1771 H 0.38202 0.39891 0.05149 0.0
H1772 H 0.40492 0.40811 0.04255 0.0
H1773 H 0.38277 0.42096 0.0375 0.0
H1774 H 0.3937 0.43763 0.00683 0.0
H1775 H 0.41886 0.46261 0.00694 0.0
H1776 H 0.68646 0.33164 0.03353 0.0
H1777 H 0.66088 0.35633 0.03279 0.0
H1778 H 0.65243 0.34589 0.97152 0.0
H1779 H 0.67812 0.32129 0.97212 0.0
H1780 H 0.65453 0.38469 0.98054 0.0
H1781 H 0.6026 0.34668 0.02913 0.0
H1782 H 0.62626 0.34981 0.03967 0.0
H1783 H 0.62339 0.3347 0.01852 0.0
C1784 C 0.67901 0.33451 0.01995 0.0
C1785 C 0.68415 0.32454 1.0029 0.0
C1786 C 0.66441 0.34856 0.01956 0.0
C1787 C 0.65459 0.35264 1.00217 0.0
C1788 C 0.65983 0.34284 0.98508 0.0
H1789 H 0.54776 0.41858 0.99365 0.0
H1790 H 0.57271 0.39341 0.99241 0.0
C1791 C 0.67451 0.32888 0.98543 0.0
C1792 C 0.63915 0.36748 1.00171 0.0
H1793 H 0.59557 0.37977 0.0218 0.0
C1794 C 0.64157 0.3836 0.98946 0.0
C1795 C 0.62219 0.36579 0.01317 0.0
C1796 C 0.61831 0.34822 0.02572 0.0
C1797 C 0.62758 0.39836 0.98866 0.0
C1798 C 0.61102 0.39707 1.00076 0.0
C1799 C 0.60842 0.38076 0.0127 0.0
C1800 C 0.59613 0.41247 1.00122 0.0
C1801 C 0.63053 0.41502 0.9747 0.0
C1802 C 0.60108 0.43143 0.00678 0.0
C1803 C 0.5869 0.4459 0.00741 0.0
C1804 C 0.56749 0.44154 1.00273 0.0
C1805 C 0.56256 0.42243 0.99741 0.0
C1806 C 0.57678 0.40802 0.99666 0.0
H1807 H 0.64079 0.41111 0.96285 0.0
H1808 H 0.61655 0.41965 0.96811 0.0
H1809 H 0.63676 0.42758 0.98268 0.0
H1810 H 0.61587 0.43501 0.01082 0.0
H1811 H 0.59114 0.46042 0.01177 0.0
H1812 H 0.00701 0.70445 0.65869 0.0
H1813 H 0.00676 0.67943 0.63338 0.0
H1814 H 1.0011 0.63499 0.67725 0.0
H1815 H 1.00132 0.6599 0.70262 0.0
H1816 H 0.03245 0.64818 0.62882 0.0
H1817 H 0.9565 0.62297 0.63961 0.0
H1818 H 0.96545 0.64555 0.64956 0.0
H1819 H 0.97103 0.62288 0.66129 0.0
C1820 C 0.00578 0.68933 0.66291 0.0
C1821 C 1.0041 0.68408 0.68258 0.0
C1822 C 0.00556 0.67511 0.64847 0.0
C1823 C 1.00361 0.65547 0.65349 0.0
C1824 C 1.00216 0.65014 0.67311 0.0
H1825 H 1.00348 0.54745 0.59015 0.0
H1826 H 1.00364 0.57291 0.61483 0.0
C1827 C 1.00231 0.66435 0.68755 0.0
C1828 C 1.00359 0.64048 0.6382 0.0
H1829 H 0.97629 0.60407 0.61856 0.0
C1830 C 0.02015 0.63859 0.62647 0.0
C1831 C 0.98749 0.62805 0.63528 0.0
C1832 C 0.96903 0.63003 0.64697 0.0
C1833 C 0.0212 0.62427 0.61204 0.0
C1834 C 0.00514 0.61179 0.6092 0.0
C1835 C 0.98856 0.61371 0.62088 0.0
C1836 C 0.00528 0.59655 0.59419 0.0
C1837 C 0.03957 0.62233 0.60021 0.0
C1838 C 0.00595 0.60156 0.57447 0.0
C1839 C 0.00587 0.58708 0.56028 0.0
C1840 C 0.00502 0.56735 0.56563 0.0
C1841 C 0.0042 0.56247 0.58547 0.0
C1842 C 0.00427 0.57697 0.59962 0.0
H1843 H 0.052 0.63003 0.60709 0.0
H1844 H 0.04352 0.60681 0.59826 0.0
H1845 H 0.03719 0.62874 0.58561 0.0
H1846 H 0.0064 0.61666 0.57005 0.0
H1847 H 0.00645 0.59141 0.54516 0.0
H1848 H 0.32514 0.97577 0.6771 0.0
H1849 H 0.35084 0.97672 0.65254 0.0
H1850 H 0.35881 0.03803 0.66309 0.0
H1851 H 0.33299 0.03721 0.68757 0.0
H1852 H 0.35696 0.02902 0.62425 0.0
H1853 H 0.40905 0.98079 0.66245 0.0
H1854 H 0.38548 0.97007 0.65926 0.0
H1855 H 0.38815 0.99125 0.67436 0.0
C1856 C 0.33251 0.98939 0.67428 0.0
C1857 C 0.32719 0.0064 0.68425 0.0
C1858 C 0.34718 0.98991 0.66031 0.0
C1859 C 0.3569 0.00737 0.6563 0.0
C1860 C 0.35149 0.02441 0.66609 0.0
H1861 H 0.4637 0.01568 0.59001 0.0
H1862 H 0.43888 0.01719 0.61531 0.0
C1863 C 0.33674 0.02393 0.67997 0.0
C1864 C 0.37239 0.00795 0.64152 0.0
H1865 H 0.41604 0.98797 0.62928 0.0
C1866 C 0.36995 0.02015 0.62538 0.0
C1867 C 0.38941 0.99656 0.64325 0.0
C1868 C 0.39332 0.98408 0.66086 0.0
C1869 C 0.38394 0.02095 0.61061 0.0
C1870 C 0.40052 0.00889 0.61191 0.0
C1871 C 0.40317 0.99702 0.62827 0.0
C1872 C 0.41533 0.00831 0.59644 0.0
C1873 C 0.38093 0.03484 0.59389 0.0
C1874 C 0.41027 1.00261 0.57754 0.0
C1875 C 0.42438 1.00182 0.56301 0.0
C1876 C 0.44383 0.00646 0.56724 0.0
C1877 C 0.44887 0.01193 0.58628 0.0
C1878 C 0.43472 0.01285 0.60075 0.0
H1879 H 0.37072 0.04672 0.5978 0.0
H1880 H 0.39491 0.04138 0.58917 0.0
H1881 H 0.37463 0.02681 0.5814 0.0
H1882 H 0.39545 0.99859 0.57407 0.0
H1883 H 0.42005 0.99735 0.54854 0.0
H1884 H 0.0087 0.34955 0.70423 0.0
H1885 H 0.00842 0.37493 0.67929 0.0
H1886 H 1.00122 0.3313 0.63482 0.0
H1887 H 1.00152 0.30585 0.65964 0.0
H1888 H 0.03365 0.37901 0.64733 0.0
H1889 H 0.95686 0.36981 0.62409 0.0
H1890 H 0.96616 0.35976 0.64648 0.0
H1891 H 0.97096 0.34784 0.62373 0.0
C1892 C 0.00714 0.34539 0.68912 0.0
C1893 C 0.00504 0.32577 0.68384 0.0
C1894 C 0.0069 0.35986 0.67495 0.0
C1895 C 0.0045 0.35493 0.65533 0.0
C1896 C 1.00265 0.33537 0.64997 0.0
H1897 H 1.00299 0.41828 0.54739 0.0
H1898 H 1.00328 0.39362 0.57285 0.0
C1899 C 1.00283 0.32088 0.66413 0.0
C1900 C 0.00441 0.37025 0.64038 0.0
H1901 H 0.97658 0.39051 0.60474 0.0
C1902 C 0.02116 0.38164 0.63807 0.0
C1903 C 0.98805 0.37354 0.6284 0.0
C1904 C 0.96941 0.36222 0.63086 0.0
C1905 C 0.02213 0.39605 0.62374 0.0
C1906 C 0.00582 0.39923 0.61168 0.0
C1907 C 0.98904 0.38792 0.61404 0.0
C1908 C 0.00588 0.41423 0.59644 0.0
C1909 C 0.0407 0.40748 0.62131 0.0
C1910 C 0.00706 0.43393 0.60142 0.0
C1911 C 0.00691 0.44811 0.58694 0.0
C1912 C 0.0055 0.44277 0.56724 0.0
C1913 C 0.00418 0.42295 0.56238 0.0
C1914 C 0.00431 0.40881 0.57688 0.0
H1915 H 0.05317 0.40036 0.6287 0.0
H1916 H 0.0443 0.40932 0.60568 0.0
H1917 H 0.03879 0.42215 0.62773 0.0
H1918 H 0.00796 0.43834 0.61651 0.0
H1919 H 0.0079 0.46322 0.59124 0.0
H1920 H 0.67861 0.97338 0.6845 0.0
H1921 H 0.65397 0.97401 0.65884 0.0
H1922 H 0.66474 0.03514 0.64988 0.0
H1923 H 0.68926 0.03465 0.67566 0.0
H1924 H 0.626 0.02647 0.6523 0.0
H1925 H 0.66309 0.97707 0.60048 0.0
H1926 H 0.65999 0.96675 0.62424 0.0
H1927 H 0.67534 0.98768 0.62111 0.0
C1928 C 0.67583 0.98689 0.67691 0.0
C1929 C 0.68583 1.00395 0.68196 0.0
C1930 C 0.66182 0.98722 0.66226 0.0
C1931 C 0.65782 0.00454 0.6523 0.0
C1932 C 0.66771 0.02162 0.65739 0.0
H1933 H 0.59139 0.01371 0.54584 0.0
H1934 H 0.61674 0.01441 0.57065 0.0
C1935 C 0.68162 0.02134 0.67212 0.0
C1936 C 0.64287 0.00501 0.63696 0.0
H1937 H 0.63007 0.98481 0.59357 0.0
C1938 C 0.62691 0.01746 0.63939 0.0
C1939 C 0.64431 0.99341 0.62007 0.0
C1940 C 0.6617 0.98061 0.61618 0.0
C1941 C 0.61208 0.01836 0.62548 0.0
C1942 C 0.61312 0.00615 0.60898 0.0
C1943 C 0.62926 0.99398 0.60637 0.0
C1944 C 0.59767 0.00587 0.59415 0.0
C1945 C 0.59562 0.03255 0.62844 0.0
C1946 C 0.57863 1.00062 0.59919 0.0
C1947 C 0.56407 1.00031 0.5851 0.0
C1948 C 0.5684 0.00499 0.56568 0.0
C1949 C 0.58758 0.00996 0.56065 0.0
C1950 C 0.60208 0.0104 0.57479 0.0
H1951 H 0.59971 0.04438 0.63866 0.0
H1952 H 0.59105 0.03916 0.61445 0.0
H1953 H 0.58296 0.02476 0.63472 0.0
H1954 H 0.57507 0.99661 0.61399 0.0
H1955 H 0.5495 0.99619 0.5894 0.0
H1956 H 0.04074 0.32282 0.33024 0.0
H1957 H 0.04118 0.34677 0.3565 0.0
H1958 H 0.97896 0.35303 0.35195 0.0
H1959 H 0.97824 0.32845 0.3264 0.0
H1960 H 0.02983 0.38465 0.35555 0.0
H1961 H 0.98631 0.3438 0.40965 0.0
H1962 H 0.99628 0.33253 0.38816 0.0
H1963 H 0.97413 0.34637 0.38674 0.0
C1964 C 0.02712 0.32906 0.33505 0.0
C1965 C 0.00944 0.32368 0.32631 0.0
C1966 C 0.02742 0.34282 0.34994 0.0
C1967 C 0.01007 0.3514 0.35633 0.0
C1968 C 0.99245 0.34626 0.34749 0.0
H1969 H 0.99636 0.45896 0.41925 0.0
H1970 H 0.9981 0.43332 0.39477 0.0
C1971 C 0.99211 0.33242 0.33271 0.0
C1972 C 0.01045 0.36621 0.37183 0.0
H1973 H 0.99128 0.37755 0.41609 0.0
C1974 C 0.02154 0.38306 0.36887 0.0
C1975 C 0.99982 0.36391 0.38927 0.0
C1976 C 0.98862 0.34559 0.39377 0.0
C1977 C 0.02191 0.39796 0.38274 0.0
C1978 C 0.01051 0.39607 0.39973 0.0
C1979 C 0.99981 0.37902 0.4029 0.0
C1980 C 0.0095 0.41161 0.41448 0.0
C1981 C 0.03467 0.41545 0.37915 0.0
C1982 C 0.01477 0.40767 0.43376 0.0
C1983 C 0.01354 0.42219 0.44784 0.0
C1984 C 0.00704 0.4409 0.44284 0.0
C1985 C 1.00164 0.44476 0.42351 0.0
C1986 C 1.00271 0.43016 0.40948 0.0
H1987 H 0.04648 0.41213 0.36864 0.0
H1988 H 0.02573 0.42734 0.37293 0.0
H1989 H 0.04131 0.42074 0.39287 0.0
H1990 H 0.01996 0.39339 0.43789 0.0
H1991 H 0.01791 0.41878 0.46258 0.0
H1992 H 0.65965 1.00086 0.30386 0.0
H1993 H 0.63439 1.00084 0.32893 0.0
H1994 H 0.67834 0.00592 0.37337 0.0
H1995 H 0.70367 0.00595 0.34842 0.0
H1996 H 0.62975 0.97496 0.36023 0.0
H1997 H 0.64098 0.05083 0.38546 0.0
H1998 H 0.65077 0.04187 0.36281 0.0
H1999 H 0.66259 0.0362 0.38541 0.0
C2000 C 0.66391 1.00188 0.31899 0.0
C2001 C 0.68358 1.00352 0.32423 0.0
C2002 C 0.64949 1.00194 0.33324 0.0
C2003 C 0.65455 1.00369 0.3529 0.0
C2004 C 0.67418 0.00501 0.35821 0.0
H2005 H 0.59136 0.0045 0.46105 0.0
H2006 H 0.61603 1.00395 0.43558 0.0
C2007 C 0.68859 0.00502 0.34398 0.0
C2008 C 0.63929 1.00376 0.36792 0.0
H2009 H 0.61987 0.03115 0.40438 0.0
C2010 C 0.62748 0.98726 0.36983 0.0
C2011 C 0.63647 0.01987 0.38035 0.0
C2012 C 0.64824 0.03828 0.37835 0.0
C2013 C 0.61309 0.98628 0.38419 0.0
C2014 C 0.61037 1.00234 0.39669 0.0
C2015 C 0.62212 0.01886 0.39474 0.0
C2016 C 0.59537 1.00231 0.41195 0.0
C2017 C 0.60118 0.96796 0.38616 0.0
C2018 C 0.57564 1.00175 0.40696 0.0
C2019 C 0.56146 1.00206 0.42144 0.0
C2020 C 0.56682 1.00303 0.44116 0.0
C2021 C 0.58668 1.00369 0.44604 0.0
C2022 C 0.60082 1.0034 0.43153 0.0
H2023 H 0.60799 0.95549 0.37848 0.0
H2024 H 0.5992 0.96404 0.4017 0.0
H2025 H 0.58658 0.9704 0.37975 0.0
H2026 H 0.57121 1.00124 0.39186 0.0
H2027 H 0.54633 1.00159 0.41712 0.0
H2028 H 0.04 0.67934 0.32454 0.0
H2029 H 0.04022 0.6532 0.34856 0.0
H2030 H 0.97769 0.65599 0.35235 0.0
H2031 H 0.97722 0.68135 0.32758 0.0
H2032 H 0.02778 0.65364 0.38573 0.0
H2033 H 0.98666 0.59862 0.34364 0.0
H2034 H 0.9963 0.62042 0.33269 0.0
H2035 H 0.97378 0.62117 0.346 0.0
C2036 C 0.02627 0.67416 0.33023 0.0
C2037 C 0.00858 0.68233 0.32406 0.0
C2038 C 0.02644 0.65934 0.34405 0.0
C2039 C 0.00896 0.65247 0.35195 0.0
C2040 C 0.99131 0.6608 0.34609 0.0
H2041 H 0.99496 0.58869 0.45907 0.0
H2042 H 0.99634 0.61333 0.43357 0.0
C2043 C 0.9911 0.67549 0.33215 0.0
C2044 C 0.00922 0.63699 0.36677 0.0
H2045 H 0.99096 0.59219 0.37746 0.0
C2046 C 0.01985 0.64014 0.38389 0.0
C2047 C 0.9991 0.61929 0.36415 0.0
C2048 C 0.98848 0.61456 0.34554 0.0
C2049 C 0.02029 0.62619 0.3987 0.0
C2050 C 0.00939 0.60891 0.39648 0.0
C2051 C 0.99911 0.60558 0.37918 0.0
C2052 C 0.00848 0.59403 0.41188 0.0
C2053 C 0.03265 0.62998 0.41644 0.0
C2054 C 0.01425 0.5749 0.40789 0.0
C2055 C 0.0132 0.56072 0.42232 0.0
C2056 C 0.00642 0.56548 0.44099 0.0
C2057 C 1.00048 0.58463 0.44489 0.0
C2058 C 1.00136 0.59875 0.43038 0.0
H2059 H 0.04427 0.64077 0.41338 0.0
H2060 H 0.02336 0.63596 0.42819 0.0
H2061 H 0.0395 0.6164 0.4218 0.0
H2062 H 0.0197 0.57099 0.39364 0.0
H2063 H 0.01797 0.54611 0.41888 0.0
H2064 H 0.32292 0.03347 0.33279 0.0
H2065 H 0.34815 0.03295 0.35785 0.0
H2066 H 0.35667 0.97158 0.34814 0.0
H2067 H 0.33132 0.97197 0.32315 0.0
H2068 H 0.35442 0.98126 0.387 0.0
H2069 H 0.4065 0.02898 0.34806 0.0
H2070 H 0.38283 0.03955 0.351 0.0
H2071 H 0.38572 0.01815 0.33626 0.0
C2072 C 0.33029 0.01992 0.33592 0.0
C2073 C 0.3253 1.00278 0.326 0.0
C2074 C 0.34468 0.01965 0.35018 0.0
C2075 C 0.35444 1.0023 0.35454 0.0
C2076 C 0.3493 0.98511 0.34487 0.0
H2077 H 0.46162 0.99363 0.41953 0.0
H2078 H 0.43629 0.99238 0.39475 0.0
C2079 C 0.33483 0.98534 0.33069 0.0
C2080 C 0.36987 1.00203 0.36939 0.0
H2081 H 0.41369 0.02194 0.38114 0.0
C2082 C 0.36743 0.99007 0.38572 0.0
C2083 C 0.38691 0.01335 0.36745 0.0
C2084 C 0.39079 0.02559 0.34966 0.0
C2085 C 0.3815 0.98938 0.40042 0.0
C2086 C 0.39817 1.00129 0.39884 0.0
C2087 C 0.40076 0.01299 0.38235 0.0
C2088 C 0.41327 1.00172 0.41404 0.0
C2089 C 0.37854 0.97571 0.41731 0.0
C2090 C 0.40867 0.00758 0.43301 0.0
C2091 C 0.42308 0.00822 0.44725 0.0
C2092 C 0.44237 1.00327 0.44265 0.0
C2093 C 0.44693 0.99763 0.42354 0.0
C2094 C 0.43249 0.99686 0.40937 0.0
H2095 H 0.36805 0.96396 0.4137 0.0
H2096 H 0.39248 0.96897 0.42186 0.0
H2097 H 0.3726 0.98396 0.42984 0.0
H2098 H 0.39399 0.01184 0.43675 0.0
H2099 H 0.41913 0.01282 0.46178 0.0
H2100 H 0.97893 0.15076 0.29984 0.0
H2101 H 0.97934 0.13013 0.32886 0.0
H2102 H 0.03232 0.15767 0.34785 0.0
H2103 H 0.03198 0.17839 0.31905 0.0
H2104 H 0.03385 0.11819 0.35194 0.0
H2105 H 0.96564 0.14652 0.38416 0.0
H2106 H 0.96278 0.13757 0.35981 0.0
H2107 H 0.97787 0.15846 0.36424 0.0
C2108 C 0.99065 0.15249 0.31021 0.0
C2109 C 0.00543 0.16629 0.30699 0.0
C2110 C 0.99082 0.14072 0.32687 0.0
C2111 C 0.00567 0.14257 0.34078 0.0
C2112 C 0.02066 0.15599 0.33739 0.0
H2113 H 1.00415 0.09119 0.45829 0.0
H2114 H 0.00492 0.11428 0.43103 0.0
C2115 C 0.02052 0.16774 0.32077 0.0
C2116 C 0.00582 0.13034 0.35872 0.0
H2117 H 0.97923 0.11834 0.39903 0.0
C2118 C 0.02193 0.11831 0.36226 0.0
C2119 C 0.99046 0.13071 0.37245 0.0
C2120 C 0.97329 0.14414 0.37013 0.0
C2121 C 0.02284 0.10626 0.37875 0.0
C2122 C 0.00708 0.10597 0.39201 0.0
C2123 C 0.99123 0.11843 0.38881 0.0
C2124 C 0.00646 0.09216 0.40871 0.0
C2125 C 0.04075 0.094 0.38189 0.0
C2126 C 0.00674 0.07209 0.40527 0.0
C2127 C 0.0063 0.05892 0.42071 0.0
C2128 C 0.00545 0.06542 0.44015 0.0
C2129 C 0.00489 0.0856 0.4436 0.0
C2130 C 0.00529 0.09883 0.42801 0.0
H2131 H 0.0535 0.09997 0.37396 0.0
H2132 H 0.04443 0.09296 0.39757 0.0
H2133 H 0.03802 0.0791 0.37634 0.0
H2134 H 0.00722 0.06655 0.39053 0.0
H2135 H 0.00668 0.04356 0.41729 0.0
H2136 H 0.8534 0.03805 0.30454 0.0
H2137 H 0.87432 0.03676 0.33311 0.0
H2138 H 0.86205 0.97565 0.33956 0.0
H2139 H 0.84007 0.97707 0.31176 0.0
H2140 H 0.85988 0.99295 0.37373 0.0
H2141 H 0.92824 0.01653 0.33857 0.0
H2142 H 0.90916 0.03399 0.33551 0.0
H2143 H 0.90689 0.01022 0.32475 0.0
C2144 C 0.85507 0.0243 0.31199 0.0
C2145 C 0.84492 0.00766 0.30564 0.0
C2146 C 0.86731 0.02353 0.32827 0.0
C2147 C 0.8701 0.00603 0.33844 0.0
C2148 C 0.86027 0.98933 0.33197 0.0
H2149 H 0.96333 0.98662 0.4209 0.0
H2150 H 0.94105 0.98685 0.3934 0.0
C2151 C 0.84785 0.99012 0.31583 0.0
C2152 C 0.88269 0.00526 0.35616 0.0
H2153 H 0.92814 0.01597 0.37316 0.0
C2154 C 0.87485 0.9979 0.37356 0.0
C2155 C 0.90232 0.01149 0.35602 0.0
C2156 C 0.91221 0.01831 0.33767 0.0
C2157 C 0.88597 0.9967 0.39073 0.0
C2158 C 0.90539 1.00357 0.39074 0.0
C2159 C 0.91322 0.01086 0.37332 0.0
C2160 C 0.91823 1.00258 0.40828 0.0
C2161 C 0.87692 0.98754 0.40849 0.0
C2162 C 0.91289 0.01116 0.42611 0.0
C2163 C 0.92561 0.01077 0.44211 0.0
C2164 C 0.94409 1.0022 0.44047 0.0
C2165 C 0.94928 0.99351 0.42268 0.0
C2166 C 0.93653 0.99364 0.40687 0.0
H2167 H 0.86445 0.97806 0.40458 0.0
H2168 H 0.8877 0.97875 0.41666 0.0
H2169 H 0.8714 0.99916 0.41821 0.0
H2170 H 0.89909 0.01858 0.42753 0.0
H2171 H 0.92124 0.01777 0.45553 0.0
H2172 H 0.03225 0.83925 0.31185 0.0
H2173 H 0.03316 0.86068 0.34005 0.0
H2174 H 0.97188 0.87204 0.33361 0.0
H2175 H 0.97108 0.8517 0.30456 0.0
H2176 H 0.98952 0.90411 0.34299 0.0
H2177 H 0.0154 0.84723 0.39351 0.0
H2178 H 0.03192 0.85079 0.37368 0.0
H2179 H 0.00777 0.84179 0.36903 0.0
C2180 C 0.019 0.84659 0.3161 0.0
C2181 C 1.00154 0.8435 0.3058 0.0
C2182 C 0.01947 0.85858 0.33257 0.0
C2183 C 1.00246 0.86755 0.33946 0.0
C2184 C 0.98518 0.8651 0.32884 0.0
H2185 H 0.99151 0.91988 0.45596 0.0
H2186 H 0.9899 0.89779 0.42788 0.0
C2187 C 0.98472 0.8533 0.31223 0.0
C2188 C 1.00268 0.87971 0.35751 0.0
H2189 H 0.01619 0.87985 0.40543 0.0
C2190 C 0.99527 0.89872 0.35665 0.0
C2191 C 0.00975 0.87266 0.37556 0.0
C2192 C 0.01645 0.85193 0.37809 0.0
C2193 C 0.99517 0.91095 0.37304 0.0
C2194 C 1.00331 0.9043 0.39078 0.0
C2195 C 0.01023 0.88512 0.39182 0.0
C2196 C 0.00504 0.91716 0.40822 0.0
C2197 C 0.98597 0.93079 0.37121 0.0
C2198 C 0.01463 0.93512 0.4068 0.0
C2199 C 0.01537 0.94776 0.42268 0.0
C2200 C 0.0069 0.94266 0.4406 0.0
C2201 C 0.99816 0.92426 0.44238 0.0
C2202 C 0.9972 0.91165 0.42631 0.0
H2203 H 0.975 0.93112 0.35935 0.0
H2204 H 0.97879 0.93526 0.38495 0.0
H2205 H 0.99736 0.94162 0.36761 0.0
H2206 H 0.02143 0.93948 0.39329 0.0
H2207 H 0.02255 0.96166 0.42086 0.0
H2208 H 0.17085 0.03132 0.31208 0.0
H2209 H 0.14943 0.03224 0.34029 0.0
H2210 H 0.13615 0.97151 0.33239 0.0
H2211 H 0.15644 0.97078 0.30332 0.0
H2212 H 0.10472 0.98971 0.3423 0.0
H2213 H 0.16227 0.01305 0.3933 0.0
H2214 H 0.15912 0.03012 0.37388 0.0
H2215 H 0.1675 0.00587 0.36865 0.0
C2216 C 0.16309 0.01821 0.31601 0.0
C2217 C 0.16563 1.00092 0.30529 0.0
C2218 C 0.1511 0.01867 0.33249 0.0
C2219 C 0.1416 1.00179 0.33899 0.0
C2220 C 0.14351 0.9847 0.32795 0.0
H2221 H 0.08941 0.98965 0.45542 0.0
H2222 H 0.11137 0.98826 0.42723 0.0
C2223 C 0.15529 0.98428 0.31132 0.0
C2224 C 0.12946 1.00195 0.35706 0.0
H2225 H 0.12969 0.01443 0.40526 0.0
C2226 C 0.11026 0.99503 0.35607 0.0
C2227 C 0.13669 0.00846 0.37526 0.0
C2228 C 0.15758 0.01459 0.37792 0.0
C2229 C 0.09806 0.99484 0.37248 0.0
C2230 C 0.10492 1.00243 0.39039 0.0
C2231 C 0.12426 0.00889 0.39154 0.0
C2232 C 0.09213 1.00402 0.40792 0.0
C2233 C 0.07803 0.9861 0.37048 0.0
C2234 C 0.07431 0.01388 0.40676 0.0
C2235 C 0.06172 0.01447 0.4227 0.0
C2236 C 0.06678 0.0056 0.44043 0.0
C2237 C 0.08507 0.99661 0.44198 0.0
C2238 C 0.09761 0.99577 0.42584 0.0
H2239 H 0.07746 0.97538 0.3584 0.0
H2240 H 0.0734 0.97874 0.38408 0.0
H2241 H 0.06744 0.99779 0.36711 0.0
H2242 H 0.06999 0.02101 0.39341 0.0
H2243 H 0.04791 0.02186 0.42107 0.0
H2244 H 0.97807 0.83923 0.69644 0.0
H2245 H 0.97706 0.86069 0.66827 0.0
H2246 H 0.038 0.87334 0.67551 0.0
H2247 H 0.03886 0.85298 0.70453 0.0
H2248 H 0.01987 0.90501 0.6659 0.0
H2249 H 0.99571 0.84764 0.61505 0.0
H2250 H 0.97887 0.85089 0.63466 0.0
H2251 H 1.00313 0.84235 0.63962 0.0
C2252 C 0.99121 0.84685 0.69238 0.0
C2253 C 0.0086 0.84412 0.70288 0.0
C2254 C 0.99069 0.85887 0.67592 0.0
C2255 C 0.0076 0.86821 0.66926 0.0
C2256 C 0.02479 0.86611 0.6801 0.0
H2257 H 0.01929 0.92036 0.55286 0.0
H2258 H 0.02073 0.89841 0.58104 0.0
C2259 C 0.02528 0.8543 0.69669 0.0
C2260 C 0.00736 0.88037 0.65122 0.0
H2261 H 0.9945 0.88023 0.60312 0.0
C2262 C 0.01441 0.89951 0.65217 0.0
C2263 C 1.00066 0.87318 0.63307 0.0
C2264 C 0.99437 0.85233 0.63045 0.0
C2265 C 0.01453 0.91173 0.63577 0.0
C2266 C 0.00676 0.90492 0.61793 0.0
C2267 C 1.00018 0.88562 0.61681 0.0
C2268 C 0.00513 0.9177 0.60042 0.0
C2269 C 0.02339 0.93171 0.63772 0.0
C2270 C 0.99534 0.93557 0.60164 0.0
C2271 C 0.99471 0.94815 0.5857 0.0
C2272 C 1.00347 0.94305 0.56793 0.0
C2273 C 0.0124 0.92473 0.56633 0.0
C2274 C 0.01327 0.9122 0.58246 0.0
H2275 H 0.03418 0.93223 0.64973 0.0
H2276 H 0.0307 0.93629 0.62408 0.0
H2277 H 0.01177 0.94236 0.64115 0.0
H2278 H 0.9883 0.93991 0.61503 0.0
H2279 H 0.98738 0.96199 0.58737 0.0
H2280 H 0.15688 0.03748 0.70422 0.0
H2281 H 0.13604 0.03627 0.67559 0.0
H2282 H 0.14881 0.97533 0.6686 0.0
H2283 H 0.17073 0.97668 0.69644 0.0
H2284 H 0.15089 0.99286 0.63461 0.0
H2285 H 0.0823 0.01574 0.66979 0.0
H2286 H 0.10125 0.03332 0.67302 0.0
H2287 H 0.10367 0.0095 0.68361 0.0
C2288 C 0.15535 0.02378 0.69663 0.0
C2289 C 0.16562 0.00717 0.70285 0.0
C2290 C 0.14314 0.02306 0.68032 0.0
C2291 C 0.14051 0.00563 0.66999 0.0
C2292 C 0.15046 0.98896 0.67632 0.0
H2293 H 0.04754 0.98621 0.58722 0.0
H2294 H 0.06977 0.98639 0.61476 0.0
C2295 C 0.16285 0.9897 0.69249 0.0
C2296 C 0.12797 0.00491 0.65222 0.0
H2297 H 0.08249 0.01544 0.6352 0.0
C2298 C 0.13589 0.99771 0.63478 0.0
C2299 C 0.1083 0.01101 0.65236 0.0
C2300 C 0.09831 0.01763 0.67074 0.0
C2301 C 0.12481 0.99655 0.61759 0.0
C2302 C 0.10535 1.0033 0.61758 0.0
C2303 C 0.09743 0.01043 0.63504 0.0
C2304 C 0.09254 1.00233 0.60001 0.0
C2305 C 0.13395 0.98757 0.59979 0.0
C2306 C 0.09787 0.01104 0.58224 0.0
C2307 C 0.08518 0.01067 0.56621 0.0
C2308 C 0.06674 1.00198 0.56777 0.0
C2309 C 0.06156 0.99317 0.5855 0.0
C2310 C 0.07429 0.99328 0.60133 0.0
H2311 H 0.14647 0.97813 0.60365 0.0
H2312 H 0.12324 0.97876 0.59153 0.0
H2313 H 0.13942 0.99928 0.59015 0.0
H2314 H 0.11162 0.01854 0.58088 0.0
H2315 H 0.08952 0.01777 0.55285 0.0
H2316 H 0.97124 0.15607 0.70385 0.0
H2317 H 0.97244 0.13529 0.67517 0.0
H2318 H 0.03351 0.14767 0.66853 0.0
H2319 H 0.03218 0.16952 0.69643 0.0
H2320 H 0.01608 0.14994 0.63444 0.0
H2321 H 0.99271 0.08142 0.66943 0.0
H2322 H 0.97524 0.10048 0.6726 0.0
H2323 H 0.99903 0.10273 0.68331 0.0
C2324 C 0.98496 0.15446 0.69633 0.0
C2325 C 1.00161 0.1646 0.70267 0.0
C2326 C 0.98568 0.1423 0.68 0.0
C2327 C 1.00314 0.13957 0.66974 0.0
C2328 C 0.01985 0.14939 0.67619 0.0
H2329 H 0.02306 0.04663 0.5872 0.0
H2330 H 0.02262 0.06891 0.61469 0.0
C2331 C 0.01911 0.16174 0.69239 0.0
C2332 C 1.00387 0.12705 0.65196 0.0
H2333 H 0.99331 0.08161 0.63486 0.0
C2334 C 0.01119 0.13496 0.63457 0.0
C2335 C 0.9977 0.10741 0.65206 0.0
C2336 C 0.99092 0.09744 0.6704 0.0
C2337 C 0.01241 0.12388 0.61738 0.0
C2338 C 0.00562 0.10444 0.61733 0.0
C2339 C 0.99835 0.09654 0.63474 0.0
C2340 C 0.00674 0.09161 0.59978 0.0
C2341 C 0.02151 0.133 0.59963 0.0
C2342 C 0.99815 0.09688 0.58195 0.0
C2343 C 0.99866 0.08416 0.56594 0.0
C2344 C 0.00737 0.06574 0.5676 0.0
C2345 C 0.01607 0.06063 0.5854 0.0
C2346 C 0.01582 0.07339 0.60121 0.0
H2347 H 0.0309 0.14555 0.60354 0.0
H2348 H 0.0304 0.12229 0.59146 0.0
H2349 H 0.00986 0.13842 0.58989 0.0
H2350 H 0.99063 0.11062 0.58051 0.0
H2351 H 0.99164 0.08846 0.55252 0.0
H2352 H 0.84025 0.0302 0.69649 0.0
H2353 H 0.86166 0.03136 0.66829 0.0
H2354 H 0.87429 0.97038 0.67514 0.0
H2355 H 0.85399 0.96936 0.7042 0.0
H2356 H 0.90594 0.98849 0.66557 0.0
H2357 H 0.84856 0.0131 0.61497 0.0
H2358 H 0.85186 0.02982 0.63468 0.0
H2359 H 0.84328 0.00555 0.6395 0.0
C2360 C 0.84786 0.01707 0.69234 0.0
C2361 C 0.84514 0.99963 0.70275 0.0
C2362 C 0.85984 0.01769 0.67586 0.0
C2363 C 0.86916 1.00082 0.66908 0.0
C2364 C 0.86708 0.98357 0.67982 0.0
H2365 H 0.9214 0.99012 0.55254 0.0
H2366 H 0.8994 0.98839 0.58066 0.0
C2367 C 0.85529 0.98299 0.69644 0.0
C2368 C 0.8813 1.00116 0.65101 0.0
H2369 H 0.88116 0.01442 0.60302 0.0
C2370 C 0.90043 0.99407 0.65189 0.0
C2371 C 0.87411 0.00801 0.63293 0.0
C2372 C 0.85327 0.01434 0.63037 0.0
C2373 C 0.91264 0.99408 0.63548 0.0
C2374 C 0.90584 1.00201 0.61771 0.0
C2375 C 0.88654 0.00862 0.61666 0.0
C2376 C 0.91864 1.00383 0.60023 0.0
C2377 C 0.93261 0.98518 0.63733 0.0
C2378 C 0.93649 0.01363 0.60156 0.0
C2379 C 0.9491 0.01444 0.58565 0.0
C2380 C 0.94405 0.00583 0.56778 0.0
C2381 C 0.92574 0.99689 0.56608 0.0
C2382 C 0.91318 0.99585 0.58218 0.0
H2383 H 0.93312 0.97427 0.64923 0.0
H2384 H 0.93718 0.978 0.62361 0.0
H2385 H 0.94328 0.99674 0.64088 0.0
H2386 H 0.9408 0.02055 0.61503 0.0
H2387 H 0.96293 0.02177 0.58742 0.0
H2388 H 0.31334 0.97882 0.16919 0.0
H2389 H 0.34155 0.97778 0.14778 0.0
H2390 H 0.33589 0.03924 0.13703 0.0
H2391 H 0.30683 0.04019 0.15734 0.0
H2392 H 0.34507 0.02191 0.10481 0.0
H2393 H 0.39526 0.99458 0.1613 0.0
H2394 H 0.37521 0.97837 0.15755 0.0
H2395 H 0.37089 1.00246 0.16687 0.0
C2396 C 0.31776 0.99209 0.162 0.0
C2397 C 0.30768 0.00964 0.16524 0.0
C2398 C 0.33425 0.99153 0.15001 0.0
C2399 C 0.34136 0.00855 0.14121 0.0
C2400 C 0.33096 0.02593 0.14384 0.0
H2401 H 0.45797 0.01823 0.08865 0.0
H2402 H 0.43001 0.0201 0.11087 0.0
C2403 C 0.31434 0.02647 0.15563 0.0
C2404 C 0.35941 0.00822 0.12903 0.0
H2405 H 0.40711 0.99398 0.12864 0.0
C2406 C 0.35864 0.01589 0.11011 0.0
C2407 C 0.37736 1.0008 0.13596 0.0
C2408 C 0.37983 0.99379 0.1566 0.0
C2409 C 0.37502 0.01589 0.09786 0.0
C2410 C 0.39263 0.00739 0.10437 0.0
C2411 C 0.39359 1.00022 0.12347 0.0
C2412 C 0.41 0.0055 0.09142 0.0
C2413 C 0.3733 0.02537 0.07814 0.0
C2414 C 0.40836 0.99612 0.07338 0.0
C2415 C 0.42417 0.99522 0.06066 0.0
C2416 C 0.44226 1.00333 0.06577 0.0
C2417 C 0.44426 0.01185 0.08426 0.0
C2418 C 0.42826 0.01297 0.09694 0.0
H2419 H 0.36163 0.03654 0.07798 0.0
H2420 H 0.38716 0.03237 0.07373 0.0
H2421 H 0.36948 0.01418 0.06717 0.0
H2422 H 0.39472 0.9896 0.069 0.0
H2423 H 0.42216 0.98821 0.0467 0.0
H2424 H 0.03179 0.31248 0.16919 0.0
H2425 H 0.03285 0.34064 0.14772 0.0
H2426 H 0.97162 0.33424 0.13603 0.0
H2427 H 0.97067 0.30524 0.15643 0.0
H2428 H 0.98955 0.34347 0.10402 0.0
H2429 H 0.01499 0.39413 0.16101 0.0
H2430 H 0.03152 0.37428 0.15762 0.0
H2431 H 0.00729 0.36967 0.16644 0.0
C2432 C 0.01858 0.31673 0.16178 0.0
C2433 C 1.00109 0.30647 0.16478 0.0
C2434 C 0.01914 0.33317 0.14976 0.0
C2435 C 1.00219 0.34005 0.14068 0.0
C2436 C 0.98488 0.32947 0.14306 0.0
H2437 H 0.99144 0.45634 0.08814 0.0
H2438 H 0.98978 0.4283 0.11025 0.0
C2439 C 0.98434 0.31289 0.15489 0.0
C2440 C 1.0025 0.35806 0.12849 0.0
H2441 H 0.016 0.40596 0.12837 0.0
C2442 C 0.99524 0.35714 0.10942 0.0
C2443 C 0.00951 0.37612 0.13557 0.0
C2444 C 0.01606 0.3787 0.15634 0.0
C2445 C 0.99523 0.3735 0.09716 0.0
C2446 C 1.0033 0.39125 0.10385 0.0
C2447 C 0.01008 0.39234 0.12308 0.0
C2448 C 0.00508 0.40866 0.09098 0.0
C2449 C 0.98617 0.37161 0.07726 0.0
C2450 C 0.01479 0.40724 0.07309 0.0
C2451 C 0.01554 0.42309 0.06042 0.0
C2452 C 0.00699 0.44099 0.06546 0.0
C2453 C 0.99816 0.44278 0.08382 0.0
C2454 C 0.99717 0.42673 0.09644 0.0
H2455 H 0.97523 0.35973 0.07686 0.0
H2456 H 0.979 0.38533 0.07271 0.0
H2457 H 0.99766 0.36802 0.06651 0.0
H2458 H 0.02165 0.39375 0.06878 0.0
H2459 H 0.0228 0.42127 0.04656 0.0
H2460 H 0.7156 0.01911 0.14467 0.0
H2461 H 0.68695 0.02013 0.12332 0.0
H2462 H 0.65601 0.9827 0.16286 0.0
H2463 H 0.68439 0.98166 0.18423 0.0
H2464 H 0.66552 0.98516 0.10661 0.0
H2465 H 0.62038 0.03239 0.15427 0.0
H2466 H 0.64659 0.03174 0.15587 0.0
H2467 H 0.63244 0.01211 0.16558 0.0
C2468 C 0.70269 0.0111 0.1488 0.0
C2469 C 0.70238 1.00021 0.16612 0.0
C2470 C 0.68635 0.01167 0.13658 0.0
C2471 C 0.66928 1.00163 0.14159 0.0
C2472 C 0.66896 0.99068 0.15878 0.0
H2473 H 0.55326 0.99356 0.08886 0.0
H2474 H 0.58111 0.99229 0.11121 0.0
C2475 C 0.6853 0.98994 0.17088 0.0
C2476 C 0.65183 1.00238 0.1288 0.0
H2477 H 0.60533 0.01979 0.12612 0.0
C2478 C 0.65238 0.99279 0.11082 0.0
C2479 C 0.6346 0.0121 0.13444 0.0
C2480 C 0.63335 0.0228 0.15353 0.0
C2481 C 0.63613 0.99251 0.09838 0.0
C2482 C 0.61899 1.00263 0.10379 0.0
C2483 C 0.61841 0.01208 0.1219 0.0
C2484 C 0.60179 1.00402 0.09058 0.0
C2485 C 0.63738 0.98094 0.07978 0.0
C2486 C 0.60392 0.01156 0.07175 0.0
C2487 C 0.58814 0.01216 0.05897 0.0
C2488 C 0.56964 0.00553 0.06474 0.0
C2489 C 0.56727 0.99875 0.0839 0.0
C2490 C 0.58321 0.99798 0.09668 0.0
H2491 H 0.64853 0.9693 0.0808 0.0
H2492 H 0.6232 0.97417 0.0761 0.0
H2493 H 0.64165 0.99074 0.06771 0.0
H2494 H 0.61788 0.01695 0.06685 0.0
H2495 H 0.59051 0.01783 0.04447 0.0
H2496 H 0.03804 0.70539 0.15431 0.0
H2497 H 0.0369 0.67679 0.13344 0.0
H2498 H 0.97637 0.6687 0.14749 0.0
H2499 H 0.9777 0.69649 0.16947 0.0
H2500 H 0.99439 0.63508 0.14911 0.0
H2501 H 0.01553 0.67059 0.08015 0.0
H2502 H 0.03345 0.67407 0.09874 0.0
H2503 H 0.00952 0.68432 0.10165 0.0
C2504 C 0.02445 0.69757 0.15305 0.0
C2505 C 0.00796 0.70346 0.16371 0.0
C2506 C 0.02376 0.68128 0.14083 0.0
C2507 C 0.00646 0.67063 0.13854 0.0
C2508 C 0.98989 0.67665 0.14887 0.0
H2509 H 0.98725 0.58744 0.04581 0.0
H2510 H 0.98725 0.61504 0.06797 0.0
C2511 C 0.99062 0.6928 0.16129 0.0
C2512 C 0.0058 0.65287 0.126 0.0
H2513 H 0.01593 0.63599 0.08037 0.0
C2514 C 0.999 0.63533 0.13403 0.0
C2515 C 0.01159 0.65309 0.10623 0.0
C2516 C 0.01773 0.67157 0.09613 0.0
C2517 C 0.99794 0.61811 0.12298 0.0
C2518 C 0.00441 0.61819 0.10342 0.0
C2519 C 0.01113 0.63575 0.09539 0.0
C2520 C 1.00358 0.60058 0.09065 0.0
C2521 C 0.98935 0.60019 0.13226 0.0
C2522 C 0.01258 0.58296 0.09594 0.0
C2523 C 0.0123 0.56688 0.0833 0.0
C2524 C 1.00343 0.56827 0.06494 0.0
C2525 C 0.99436 0.58587 0.05977 0.0
C2526 C 0.99436 0.60173 0.07247 0.0
H2527 H 0.97997 0.60395 0.14486 0.0
H2528 H 0.98058 0.59174 0.12167 0.0
H2529 H 1.00128 0.59079 0.13766 0.0
H2530 H 0.02023 0.58174 0.10963 0.0
H2531 H 0.01961 0.55363 0.08763 0.0
H2532 H 0.30541 0.96915 0.8523 0.0
H2533 H 0.334 0.97048 0.8732 0.0
H2534 H 0.33987 0.03177 0.86162 0.0
H2535 H 0.31207 0.03034 0.83965 0.0
H2536 H 0.37415 0.0149 0.85917 0.0
H2537 H 0.33947 0.99006 0.92734 0.0
H2538 H 0.33657 0.9728 0.90804 0.0
H2539 H 0.32552 0.99646 0.9061 0.0
C2540 C 0.31274 0.98296 0.85412 0.0
C2541 C 0.30622 0.99964 0.84416 0.0
C2542 C 0.32902 0.98374 0.86635 0.0
C2543 C 0.33904 1.0013 0.86933 0.0
C2544 C 0.3324 0.01804 0.8597 0.0
H2545 H 0.4215 0.02096 0.96252 0.0
H2546 H 0.39391 0.02041 0.94036 0.0
C2547 C 0.31625 0.01724 0.84729 0.0
C2548 C 0.3568 1.00211 0.88188 0.0
H2549 H 0.37404 0.9911 0.92717 0.0
C2550 C 0.37408 0.00978 0.87408 0.0
C2551 C 0.35679 0.99564 0.90143 0.0
C2552 C 0.33854 0.98847 0.91129 0.0
C2553 C 0.39126 0.01107 0.88518 0.0
C2554 C 0.39141 1.00399 0.90452 0.0
C2555 C 0.3741 0.99637 0.91231 0.0
C2556 C 0.40896 0.00511 0.91735 0.0
C2557 C 0.40887 0.02057 0.8762 0.0
C2558 C 0.42689 0.99686 0.91188 0.0
C2559 C 0.44294 0.99743 0.92453 0.0
C2560 C 0.44125 0.00588 0.94307 0.0
C2561 C 0.42334 0.0142 0.94842 0.0
C2562 C 0.40747 0.01388 0.93572 0.0
H2563 H 0.40482 0.03012 0.86383 0.0
H2564 H 0.41694 0.02937 0.88706 0.0
H2565 H 0.41875 0.00914 0.87056 0.0
H2566 H 0.42838 0.98956 0.89802 0.0
H2567 H 0.45645 0.9907 0.92004 0.0
H2568 H 0.03846 0.30364 0.8531 0.0
H2569 H 0.03725 0.33228 0.87394 0.0
H2570 H 0.9764 0.33948 0.86083 0.0
H2571 H 0.97776 0.31163 0.83892 0.0
H2572 H 0.99408 0.37338 0.85881 0.0
H2573 H 0.01647 0.33824 0.92756 0.0
H2574 H 0.03414 0.33491 0.90872 0.0
H2575 H 0.01029 0.32441 0.90618 0.0
C2576 C 0.02478 0.31128 0.85456 0.0
C2577 C 0.0082 0.30512 0.8442 0.0
C2578 C 0.02406 0.32758 0.86676 0.0
C2579 C 0.00666 0.33799 0.8693 0.0
C2580 C 0.99001 0.33171 0.85926 0.0
H2581 H 0.98735 0.42108 0.96207 0.0
H2582 H 0.98746 0.39346 0.93993 0.0
C2583 C 0.99076 0.31553 0.84688 0.0
C2584 C 0.00594 0.35577 0.88181 0.0
H2585 H 0.01636 0.37283 0.92732 0.0
C2586 C 0.99886 0.37321 0.87383 0.0
C2587 C 0.01195 0.35564 0.90152 0.0
C2588 C 0.01844 0.33725 0.91156 0.0
C2589 C 0.99772 0.39043 0.88488 0.0
C2590 C 0.0044 0.39046 0.90437 0.0
C2591 C 0.01141 0.37298 0.91235 0.0
C2592 C 1.00349 0.40807 0.91713 0.0
C2593 C 0.98884 0.40824 0.87566 0.0
C2594 C 0.01227 0.42577 0.91175 0.0
C2595 C 0.01194 0.44185 0.92438 0.0
C2596 C 1.00322 0.44039 0.94281 0.0
C2597 C 0.99434 0.42272 0.94805 0.0
C2598 C 0.99441 0.40684 0.93537 0.0
H2599 H 0.97941 0.40437 0.86314 0.0
H2600 H 0.98006 0.41658 0.88633 0.0
H2601 H 1.00062 0.41779 0.87017 0.0
H2602 H 0.01981 0.42706 0.898 0.0
H2603 H 0.0191 0.45517 0.91999 0.0
H2604 H 0.69757 0.97762 0.8388 0.0
H2605 H 0.66931 0.97666 0.86014 0.0
H2606 H 0.67574 0.03791 0.8717 0.0
H2607 H 0.70485 0.03875 0.85145 0.0
H2608 H 0.66625 0.02021 0.90368 0.0
H2609 H 0.61589 0.99442 0.8466 0.0
H2610 H 0.63571 0.97789 0.85017 0.0
H2611 H 0.64038 1.00206 0.84124 0.0
C2612 C 0.69331 0.99085 0.84616 0.0
C2613 C 0.70362 0.00831 0.84316 0.0
C2614 C 0.6768 0.99035 0.8581 0.0
C2615 C 0.66989 0.00734 0.8671 0.0
C2616 C 0.68052 0.02462 0.86473 0.0
H2617 H 0.55329 0.01807 0.91932 0.0
H2618 H 0.58136 0.01974 0.89723 0.0
C2619 C 0.69717 0.0251 0.85298 0.0
C2620 C 0.6518 0.00709 0.87921 0.0
H2621 H 0.6039 0.99352 0.8792 0.0
C2622 C 0.65262 0.01446 0.89824 0.0
C2623 C 0.63377 1.00002 0.87209 0.0
C2624 C 0.63129 0.99336 0.85134 0.0
C2625 C 0.6362 0.01451 0.91044 0.0
C2626 C 0.61848 0.00636 0.90372 0.0
C2627 C 0.61749 0.99949 0.88452 0.0
C2628 C 0.60103 0.00456 0.91656 0.0
C2629 C 0.63798 0.02368 0.9303 0.0
C2630 C 0.60245 0.99491 0.93448 0.0
C2631 C 0.58658 0.99413 0.94712 0.0
C2632 C 0.56866 1.00262 0.94206 0.0
C2633 C 0.56687 0.0114 0.92368 0.0
C2634 C 0.58294 0.0124 0.91107 0.0
H2635 H 0.64981 0.03466 0.93068 0.0
H2636 H 0.62421 0.03082 0.93476 0.0
H2637 H 0.64157 0.01226 0.94111 0.0
H2638 H 0.61596 0.9881 0.93882 0.0
H2639 H 0.58841 0.98691 0.961 0.0
H2640 H 0.97171 0.70441 0.85266 0.0
H2641 H 0.97293 0.6757 0.8734 0.0
H2642 H 0.03375 0.6685 0.86015 0.0
H2643 H 0.03238 0.69644 0.83836 0.0
H2644 H 0.01593 0.63459 0.85804 0.0
H2645 H 0.99393 0.6697 0.92697 0.0
H2646 H 0.97622 0.67308 0.90817 0.0
H2647 H 1.00009 0.68354 0.90559 0.0
C2648 C 0.98538 0.69676 0.85408 0.0
C2649 C 1.00195 0.70295 0.84372 0.0
C2650 C 0.98611 0.68041 0.86621 0.0
C2651 C 1.00351 0.66999 0.86867 0.0
C2652 C 0.02015 0.67629 0.85863 0.0
H2653 H 0.0237 0.5871 0.96122 0.0
H2654 H 0.02334 0.61462 0.93897 0.0
C2655 C 0.01939 0.69251 0.84632 0.0
C2656 C 0.00424 0.65219 0.88115 0.0
H2657 H 0.99413 0.63512 0.92671 0.0
C2658 C 0.01125 0.63474 0.8731 0.0
C2659 C 0.99835 0.65231 0.90088 0.0
C2660 C 0.99192 0.6707 0.91098 0.0
C2661 C 0.01245 0.61752 0.88412 0.0
C2662 C 0.00593 0.6175 0.90366 0.0
C2663 C 0.99897 0.63497 0.9117 0.0
C2664 C 0.00702 0.59993 0.91644 0.0
C2665 C 0.02123 0.5997 0.87484 0.0
C2666 C 0.99817 0.5822 0.91123 0.0
C2667 C 0.99864 0.56617 0.92392 0.0
C2668 C 0.00758 0.56772 0.94225 0.0
C2669 C 0.01654 0.5854 0.94729 0.0
C2670 C 0.01633 0.60122 0.93456 0.0
H2671 H 0.0305 0.60353 0.86218 0.0
H2672 H 0.03016 0.5914 0.88541 0.0
H2673 H 0.00939 0.59011 0.86954 0.0
H2674 H 0.99047 0.58087 0.89758 0.0
H2675 H 0.99141 0.55284 0.91969 0.0
H2676 H 0.14592 0.29421 0.99039 0.0
H2677 H 0.12473 0.32297 0.9894 0.0
H2678 H 0.16515 0.35414 0.0257 0.0
H2679 H 0.18637 0.32565 0.0267 0.0
H2680 H 0.10868 0.34484 0.02415 0.0
H2681 H 0.156 0.38931 0.97595 0.0
H2682 H 0.15757 0.36311 0.97693 0.0
H2683 H 0.1675 0.37751 0.99627 0.0
C2684 C 0.15029 0.30719 0.99816 0.0
C2685 C 0.16781 0.30753 0.00872 0.0
C2686 C 0.13816 0.32359 0.99761 0.0
C2687 C 0.14346 0.34077 0.00732 0.0
C2688 C 0.16084 0.34112 0.01796 0.0
H2689 H 0.09083 0.45699 0.01467 0.0
H2690 H 0.11325 0.4292 0.01616 0.0
C2691 C 0.17286 0.32471 0.01868 0.0
C2692 C 0.13075 0.35828 0.00658 0.0
H2693 H 0.12806 0.40461 0.98872 0.0
C2694 C 0.11286 0.35789 0.01635 0.0
C2695 C 0.13636 0.37539 0.99664 0.0
C2696 C 0.15534 0.37647 0.98572 0.0
C2697 C 0.10049 0.37418 0.01657 0.0
C2698 C 0.10585 0.3912 0.00622 0.0
C2699 C 0.12388 0.39162 0.99662 0.0
C2700 C 0.09263 0.40836 0.00469 0.0
C2701 C 0.08198 0.3731 0.0283 0.0
C2702 C 0.07379 0.40612 0.9972 0.0
C2703 C 0.06098 0.42186 0.99647 0.0
C2704 C 0.06672 0.44044 1.0029 0.0
C2705 C 0.08589 0.44292 0.00963 0.0
C2706 C 0.09871 0.42702 0.01052 0.0
H2707 H 0.08307 0.36208 0.04007 0.0
H2708 H 0.07838 0.38736 0.03494 0.0
H2709 H 0.06982 0.36875 0.01864 0.0
H2710 H 0.06891 0.39209 0.99198 0.0
H2711 H 0.04648 0.41939 0.99085 0.0
H2712 H 0.15853 0.70305 0.96824 0.0
H2713 H 0.13765 0.67442 0.96949 0.0
H2714 H 0.14826 0.66916 0.03103 0.0
H2715 H 0.17015 0.69703 0.02971 0.0
H2716 H 0.15116 0.63465 0.01419 0.0
H2717 H 0.08318 0.66921 0.98862 0.0
H2718 H 0.10272 0.67208 0.97162 0.0
H2719 H 0.10433 0.68319 0.99528 0.0
C2720 C 0.15649 0.69584 0.98208 0.0
C2721 C 0.16613 0.70255 0.99888 0.0
C2722 C 0.14429 0.67954 0.98281 0.0
C2723 C 0.14107 0.66969 1.00042 0.0
C2724 C 0.15039 0.6765 0.01726 0.0
H2725 H 0.04782 0.58768 0.02043 0.0
H2726 H 0.07015 0.61511 0.01976 0.0
C2727 C 0.16275 0.69269 0.01652 0.0
C2728 C 0.12853 0.65194 1.00119 0.0
H2729 H 0.08329 0.63468 0.99004 0.0
C2730 C 0.13628 0.63469 0.00898 0.0
C2731 C 0.10903 0.65193 0.9946 0.0
C2732 C 0.09925 0.67014 0.98725 0.0
C2733 C 0.12517 0.61753 0.0103 0.0
C2734 C 0.10586 0.61738 1.00313 0.0
C2735 C 0.09813 0.63464 0.99538 0.0
C2736 C 0.09298 0.5999 0.00437 0.0
C2737 C 0.13408 0.59994 0.01988 0.0
C2738 C 0.09833 0.58192 0.99614 0.0
C2739 C 0.08557 0.56595 0.99676 0.0
C2740 C 0.06706 0.56778 0.00526 0.0
C2741 C 0.06188 0.58573 0.01361 0.0
C2742 C 0.07467 0.60151 0.01323 0.0
H2743 H 0.14652 0.60398 0.02937 0.0
H2744 H 0.1232 0.592 0.02878 0.0
H2745 H 0.13962 0.58994 0.0085 0.0
H2746 H 0.11215 0.58033 0.98881 0.0
H2747 H 0.08993 0.55241 0.99001 0.0
H2748 H 0.30546 0.15569 0.9706 0.0
H2749 H 0.33409 0.13485 0.97184 0.0
H2750 H 0.34145 0.14827 0.03261 0.0
H2751 H 0.31359 0.17016 0.03121 0.0
H2752 H 0.37535 0.15016 0.01476 0.0
H2753 H 0.33995 0.08133 0.99296 0.0
H2754 H 0.33659 0.10008 0.9752 0.0
H2755 H 0.32619 0.10278 0.99908 0.0
C2756 C 0.31313 0.15429 0.98426 0.0
C2757 C 0.30701 0.16473 1.00081 0.0
C2758 C 0.32943 0.1421 0.98501 0.0
C2759 C 0.33988 0.13965 1.0024 0.0
C2760 C 0.33365 0.14978 0.01901 0.0
H2761 H 0.4227 0.04688 0.02228 0.0
H2762 H 0.39519 0.06915 0.02207 0.0
C2763 C 0.31747 0.16215 0.01824 0.0
C2764 C 0.35764 0.12711 1.00313 0.0
H2765 H 0.37454 0.0815 0.99301 0.0
C2766 C 0.37513 0.13511 0.0101 0.0
C2767 C 0.35743 0.10737 0.99726 0.0
C2768 C 0.33899 0.09732 0.9909 0.0
C2769 C 0.39233 0.12404 0.01125 0.0
C2770 C 0.39227 0.10449 0.00473 0.0
C2771 C 0.37475 0.0965 0.99784 0.0
C2772 C 0.40983 0.09169 0.00572 0.0
C2773 C 0.4102 0.13327 0.01998 0.0
C2774 C 0.42753 0.09688 0.9968 0.0
C2775 C 0.44355 0.08418 0.99718 0.0
C2776 C 0.44203 0.06585 0.0061 0.0
C2777 C 0.42437 0.06081 0.01513 0.0
C2778 C 0.40856 0.07356 0.01501 0.0
H2779 H 0.40642 0.14592 0.02929 0.0
H2780 H 0.41852 0.12267 0.02885 0.0
H2781 H 0.41975 0.13858 0.00811 0.0
H2782 H 0.42884 0.11054 0.98911 0.0
H2783 H 0.45685 0.08842 0.9899 0.0
H2784 H 0.84022 0.31227 0.03106 0.0
H2785 H 0.86165 0.34046 0.03202 0.0
H2786 H 0.87406 0.33333 0.97101 0.0
H2787 H 0.85373 0.30428 0.97019 0.0
H2788 H 0.90579 0.34294 0.98897 0.0
H2789 H 0.84857 0.39371 0.0136 0.0
H2790 H 0.85191 0.37407 0.03038 0.0
H2791 H 0.84323 0.36916 0.00616 0.0
C2792 C 0.84778 0.31636 0.01788 0.0
C2793 C 0.84499 0.30587 1.00049 0.0
C2794 C 0.85979 0.33283 0.01838 0.0
C2795 C 0.86905 0.33953 1.00145 0.0
C2796 C 0.86689 0.32872 0.98425 0.0
H2797 H 0.92136 0.45596 0.98993 0.0
H2798 H 0.89933 0.42783 0.98845 0.0
C2799 C 0.85509 0.31211 0.98378 0.0
C2800 C 0.88122 0.35758 1.00167 0.0
H2801 H 0.88118 0.40564 0.01469 0.0
C2802 C 0.90032 0.35665 0.99451 0.0
C2803 C 0.87408 0.37571 0.00847 0.0
C2804 C 0.85326 0.37831 0.01488 0.0
C2805 C 0.91255 0.37305 0.99438 0.0
C2806 C 0.9058 0.39087 1.00225 0.0
C2807 C 0.88653 0.39197 0.00894 0.0
C2808 C 0.91862 0.40835 1.00391 0.0
C2809 C 0.93249 0.37113 0.98541 0.0
C2810 C 0.93651 0.40706 0.01365 0.0
C2811 C 0.94914 0.42297 0.01431 0.0
C2812 C 0.94407 0.44079 0.00562 0.0
C2813 C 0.92572 0.44245 0.99675 0.0
C2814 C 0.91314 0.42636 0.99586 0.0
H2815 H 0.93294 0.35916 0.97457 0.0
H2816 H 0.93704 0.3848 0.97814 0.0
H2817 H 0.94319 0.36765 0.99696 0.0
H2818 H 0.94084 0.39364 0.02063 0.0
H2819 H 0.96299 0.42124 0.0216 0.0
H2820 H 0.69752 0.83889 0.02999 0.0
H2821 H 0.66934 0.86033 0.03104 0.0
H2822 H 0.67616 0.87255 0.96996 0.0
H2823 H 0.70519 0.85222 0.96905 0.0
H2824 H 0.66669 0.90434 0.98789 0.0
H2825 H 0.61595 0.84726 0.01291 0.0
H2826 H 0.63568 0.85063 0.02959 0.0
H2827 H 0.64046 0.84187 0.00537 0.0
C2828 C 0.69336 0.84642 0.01682 0.0
C2829 C 0.70376 0.84357 0.99938 0.0
C2830 C 0.67689 0.85842 0.01737 0.0
C2831 C 0.67011 0.86764 1.00044 0.0
C2832 C 0.68083 0.86541 0.98319 0.0
H2833 H 0.55367 0.92002 0.98939 0.0
H2834 H 0.58176 0.89797 0.98781 0.0
C2835 C 0.69744 0.85361 0.98267 0.0
C2836 C 0.65207 0.87982 1.00072 0.0
H2837 H 0.60408 0.87988 0.01397 0.0
C2838 C 0.65299 0.8989 0.9935 0.0
C2839 C 0.63397 0.87272 0.00762 0.0
C2840 C 0.63137 0.85193 0.0141 0.0
C2841 C 0.63661 0.91115 0.99342 0.0
C2842 C 0.61882 0.90444 1.00139 0.0
C2843 C 0.61772 0.8852 0.00813 0.0
C2844 C 0.60136 0.91729 1.0031 0.0
C2845 C 0.63853 0.93106 0.98439 0.0
C2846 C 0.60273 0.93521 0.01276 0.0
C2847 C 0.58684 0.94785 0.01347 0.0
C2848 C 0.56895 0.94277 0.00491 0.0
C2849 C 0.56722 0.9244 0.99611 0.0
C2850 C 0.5833 0.9118 0.99516 0.0
H2851 H 0.65044 0.93146 0.97348 0.0
H2852 H 0.62483 0.93561 0.97718 0.0
H2853 H 0.64209 0.94179 0.99589 0.0
H2854 H 0.6162 0.93955 0.01965 0.0
H2855 H 0.58863 0.96172 0.02071 0.0
H2856 H 0.84068 0.69675 0.97747 0.0
H2857 H 0.86214 0.66859 0.97653 0.0
H2858 H 0.87386 0.67526 0.03773 0.0
H2859 H 0.85353 0.70429 0.03854 0.0
H2860 H 0.90578 0.66577 0.0201 0.0
H2861 H 0.84888 0.61519 0.99436 0.0
H2862 H 0.8524 0.63496 0.97776 0.0
H2863 H 0.84344 0.63968 1.00192 0.0
C2864 C 0.8481 0.69257 0.9907 0.0
C2865 C 0.84512 0.70293 0.00814 0.0
C2866 C 0.86011 0.67611 0.99021 0.0
C2867 C 0.86919 0.66928 0.00719 0.0
C2868 C 0.86684 0.67997 0.02445 0.0
H2869 H 0.92147 0.55275 0.01786 0.0
H2870 H 0.89943 0.58083 0.01958 0.0
C2871 C 0.85503 0.69657 0.02491 0.0
C2872 C 0.88136 0.65124 0.00696 0.0
H2873 H 0.88152 0.60332 0.99345 0.0
C2874 C 0.90038 0.65211 0.01436 0.0
C2875 C 0.87431 0.63317 0.99991 0.0
C2876 C 0.85357 0.6306 0.99325 0.0
C2877 C 0.91262 0.63572 0.01445 0.0
C2878 C 0.90598 0.61798 0.00631 0.0
C2879 C 0.88679 0.61693 0.99941 0.0
C2880 C 0.91885 0.60055 0.00456 0.0
C2881 C 0.93246 0.63757 0.02367 0.0
C2882 C 0.93683 0.60199 0.99502 0.0
C2883 C 0.94946 0.58609 0.99422 0.0
C2884 C 0.94431 0.56813 1.00258 0.0
C2885 C 0.92589 0.56635 0.01129 0.0
C2886 C 0.91331 0.58243 0.01231 0.0
H2887 H 0.93276 0.6494 0.03467 0.0
H2888 H 0.93695 0.62382 0.03082 0.0
H2889 H 0.94328 0.64122 0.01229 0.0
H2890 H 0.94122 0.61551 0.98827 0.0
H2891 H 0.96336 0.58794 0.98706 0.0
H2892 H 0.31851 0.83194 0.97601 0.0
H2893 H 0.34734 0.85266 0.9752 0.0
H2894 H 0.33112 0.87765 0.03032 0.0
H2895 H 0.3021 0.85706 0.0312 0.0
H2896 H 0.35188 0.89231 0.97566 0.0
H2897 H 0.38675 0.85976 0.04058 0.0
H2898 H 0.3662 0.84872 0.02857 0.0
H2899 H 0.36264 0.86869 0.04506 0.0
C2900 C 0.32083 0.84206 0.98784 0.0
C2901 C 0.30788 0.84274 1.0037 0.0
C2902 C 0.33747 0.8538 0.98742 0.0
C2903 C 0.34169 0.86644 1.00288 0.0
C2904 C 0.3285 0.86764 0.01845 0.0
H2905 H 0.41861 0.965 0.00466 0.0
H2906 H 0.39178 0.9421 1.00381 0.0
C2907 C 0.31184 0.8559 0.01889 0.0
C2908 C 0.35975 0.87848 1.00259 0.0
H2909 H 0.40122 0.88869 0.02813 0.0
C2910 C 0.3627 0.89143 0.98709 0.0
C2911 C 0.37412 0.87711 0.0173 0.0
C2912 C 0.37243 0.86269 0.03373 0.0
C2913 C 0.37922 0.90346 0.98622 0.0
C2914 C 0.39312 0.90275 1.0014 0.0
C2915 C 0.39052 0.88936 0.01658 0.0
C2916 C 0.40989 0.91648 1.0022 0.0
C2917 C 0.38168 0.91678 0.96897 0.0
C2918 C 0.4292 0.90975 1.00218 0.0
C2919 C 0.44483 0.92293 1.00273 0.0
C2920 C 0.44142 0.9431 1.00348 0.0
C2921 C 0.42199 0.94965 1.00389 0.0
C2922 C 0.4065 0.93654 1.00331 0.0
H2923 H 0.37321 0.91161 0.95623 0.0
H2924 H 0.37632 0.93149 0.97284 0.0
H2925 H 0.3972 0.91801 0.96472 0.0
H2926 H 0.43218 0.89431 1.00149 0.0
H2927 H 0.45953 0.9173 1.00247 0.0
H2928 H 0.69831 0.16905 0.97806 0.0
H2929 H 0.6702 0.14753 0.97684 0.0
H2930 H 0.67622 0.13589 0.03812 0.0
H2931 H 0.7052 0.15631 0.03923 0.0
H2932 H 0.667 0.1039 0.02032 0.0
H2933 H 0.61659 0.16075 0.99418 0.0
H2934 H 0.63654 0.15726 0.9778 0.0
H2935 H 0.641 0.16622 1.00201 0.0
C2936 C 0.694 0.16163 0.99125 0.0
C2937 C 0.70415 0.16467 0.0088 0.0
C2938 C 0.67757 0.14958 0.99059 0.0
C2939 C 0.67058 0.14051 0.00751 0.0
C2940 C 0.68107 0.14291 0.02488 0.0
H2941 H 0.554 0.08832 0.01757 0.0
H2942 H 0.58213 0.11031 0.01933 0.0
C2943 C 0.69763 0.15477 0.02552 0.0
C2944 C 0.65255 0.1283 0.00711 0.0
H2945 H 0.60473 0.12812 0.99326 0.0
C2946 C 0.65338 0.10928 0.01449 0.0
C2947 C 0.63454 0.13534 0.99992 0.0
C2948 C 0.63202 0.15607 0.99324 0.0
C2949 C 0.637 0.09703 0.01446 0.0
C2950 C 0.6193 0.10367 0.00622 0.0
C2951 C 0.6183 0.12286 0.9993 0.0
C2952 C 0.60185 0.09082 0.00442 0.0
C2953 C 0.63879 0.07719 0.02367 0.0
C2954 C 0.60328 0.07281 0.99492 0.0
C2955 C 0.58736 0.06021 0.9941 0.0
C2956 C 0.56939 0.06541 1.0024 0.0
C2957 C 0.56761 0.08385 0.01106 0.0
C2958 C 0.58371 0.09641 0.0121 0.0
H2959 H 0.65058 0.07687 0.03471 0.0
H2960 H 0.62501 0.07271 0.03077 0.0
H2961 H 0.64246 0.06637 0.01229 0.0
H2962 H 0.61682 0.06838 0.98823 0.0
H2963 H 0.5892 0.04628 0.98699 0.0
H2964 H 0.48077 0.66874 0.81214 0.0
H2965 H 0.47997 0.6474 0.84039 0.0
H2966 H 0.54183 0.63859 0.83571 0.0
H2967 H 0.5426 0.65894 0.80663 0.0
H2968 H 0.52486 0.60564 0.84448 0.0
H2969 H 0.496 0.6617 0.89434 0.0
H2970 H 0.48016 0.65769 0.87403 0.0
H2971 H 0.50417 0.66738 0.87009 0.0
C2972 C 0.4942 0.66199 0.81679 0.0
C2973 C 0.51179 0.66577 0.80697 0.0
C2974 C 0.49376 0.65004 0.83328 0.0
C2975 C 0.51093 0.6418 0.84066 0.0
C2976 C 0.5284 0.64497 0.83054 0.0
H2977 H 0.51997 0.58905 0.95717 0.0
H2978 H 0.52206 0.61136 0.9293 0.0
C2979 C 0.52883 0.65676 0.81392 0.0
C2980 C 0.51066 0.62964 0.85868 0.0
H2981 H 0.49577 0.62902 0.90618 0.0
C2982 C 0.51859 0.61084 0.85798 0.0
C2983 C 0.50289 0.63646 0.87654 0.0
C2984 C 0.49553 0.65698 0.87889 0.0
C2985 C 0.51849 0.59856 0.87433 0.0
C2986 C 0.50968 0.60495 0.89183 0.0
C2987 C 0.50227 0.62395 0.89274 0.0
C2988 C 0.50766 0.59195 0.90912 0.0
C2989 C 0.52816 0.57893 0.8727 0.0
C2990 C 0.49831 0.57392 0.90731 0.0
C2991 C 0.49727 0.56116 0.92308 0.0
C2992 C 0.50522 0.56622 0.94125 0.0
C2993 C 0.51372 0.58469 0.94339 0.0
C2994 C 0.51497 0.59743 0.92745 0.0
H2995 H 0.53944 0.57885 0.86114 0.0
H2996 H 0.53505 0.57457 0.88663 0.0
H2997 H 0.51709 0.56787 0.86878 0.0
H2998 H 0.49192 0.56958 0.89359 0.0
H2999 H 0.49026 0.54721 0.92095 0.0
H3000 H 0.35952 0.4808 0.79982 0.0
H3001 H 0.37999 0.48106 0.82894 0.0
H3002 H 0.35141 0.53315 0.84876 0.0
H3003 H 0.33074 0.5329 0.81991 0.0
H3004 H 0.3913 0.53503 0.85285 0.0
H3005 H 0.363 0.46632 0.88407 0.0
H3006 H 0.37188 0.46395 0.85963 0.0
H3007 H 0.351 0.47891 0.86442 0.0
C3008 C 0.35751 0.49229 0.81038 0.0
C3009 C 0.34339 0.50682 0.80739 0.0
C3010 C 0.36921 0.49238 0.82709 0.0
C3011 C 0.36702 0.50693 0.84127 0.0
C3012 C 0.35334 0.52172 0.8381 0.0
H3013 H 0.41844 0.50405 0.95881 0.0
H3014 H 0.39526 0.50526 0.93163 0.0
C3015 C 0.34163 0.52164 0.82144 0.0
C3016 C 0.37914 0.50692 0.85926 0.0
H3017 H 0.39107 0.47981 0.89924 0.0
C3018 C 0.39116 0.52299 0.86303 0.0
C3019 C 0.37874 0.49139 0.87279 0.0
C3020 C 0.36533 0.47424 0.87018 0.0
C3021 C 0.40321 0.52367 0.87954 0.0
C3022 C 0.40347 0.50774 0.8926 0.0
C3023 C 0.39099 0.49195 0.88919 0.0
C3024 C 0.41732 0.50686 0.90926 0.0
C3025 C 0.41553 0.5415 0.88291 0.0
C3026 C 0.43738 0.50702 0.90575 0.0
C3027 C 0.4506 0.50632 0.92114 0.0
C3028 C 0.44416 0.50532 0.94059 0.0
C3029 C 0.42399 0.50489 0.9441 0.0
C3030 C 0.4107 0.50555 0.92857 0.0
H3031 H 0.40962 0.55435 0.87511 0.0
H3032 H 0.41656 0.545 0.89863 0.0
H3033 H 0.43043 0.53878 0.87736 0.0
H3034 H 0.44288 0.50761 0.891 0.0
H3035 H 0.46595 0.50661 0.91767 0.0
H3036 H 0.47064 0.35245 0.80441 0.0
H3037 H 0.47194 0.37345 0.83295 0.0
H3038 H 0.53331 0.36218 0.83869 0.0
H3039 H 0.53193 0.34017 0.81091 0.0
H3040 H 0.51628 0.35958 0.87305 0.0
H3041 H 0.49156 0.4277 0.83822 0.0
H3042 H 0.47436 0.40836 0.83525 0.0
H3043 H 0.49807 0.40647 0.82431 0.0
C3044 C 0.48445 0.35438 0.8117 0.0
C3045 C 0.50118 0.34451 0.80517 0.0
C3046 C 0.48522 0.36665 0.82795 0.0
C3047 C 0.50279 0.36972 0.83791 0.0
C3048 C 0.51957 0.36018 0.83126 0.0
H3049 H 0.52218 0.4629 0.9204 0.0
H3050 H 0.52181 0.44072 0.89281 0.0
C3051 C 0.5188 0.34774 0.81513 0.0
C3052 C 0.50357 0.38228 0.85564 0.0
H3053 H 0.49253 0.42758 0.87279 0.0
C3054 C 0.51117 0.37449 0.87296 0.0
C3055 C 0.49712 0.40183 0.85558 0.0
C3056 C 0.49001 0.41165 0.8373 0.0
C3057 C 0.5124 0.3856 0.89013 0.0
C3058 C 0.50532 0.40494 0.89022 0.0
C3059 C 0.49779 0.41272 0.87288 0.0
C3060 C 0.50635 0.41776 0.90776 0.0
C3061 C 0.52181 0.37663 0.90779 0.0
C3062 C 0.49795 0.4123 0.92563 0.0
C3063 C 0.49841 0.42496 0.94168 0.0
C3064 C 0.50689 0.44349 0.94003 0.0
C3065 C 0.51537 0.44881 0.92218 0.0
C3066 C 0.51516 0.43611 0.90633 0.0
H3067 H 0.53137 0.36425 0.90379 0.0
H3068 H 0.53058 0.38749 0.9159 0.0
H3069 H 0.51033 0.371 0.91762 0.0
H3070 H 0.49063 0.39845 0.92708 0.0
H3071 H 0.49158 0.4205 0.95514 0.0
H3072 H 0.67078 0.53063 0.81192 0.0
H3073 H 0.64938 0.53172 0.84013 0.0
H3074 H 0.63639 0.47085 0.83283 0.0
H3075 H 0.65671 0.46993 0.80377 0.0
H3076 H 0.60482 0.48915 0.84252 0.0
H3077 H 0.6624 0.51292 0.89331 0.0
H3078 H 0.65922 0.5298 0.87373 0.0
H3079 H 0.66762 0.5055 0.86872 0.0
C3080 C 0.66309 0.51752 0.81598 0.0
C3081 C 0.66572 0.50014 0.80545 0.0
C3082 C 0.65111 0.51809 0.83246 0.0
C3083 C 0.64169 0.50122 0.83912 0.0
C3084 C 0.64368 0.48403 0.82825 0.0
H3085 H 0.58953 0.48977 0.95559 0.0
H3086 H 0.61147 0.48818 0.9274 0.0
C3087 C 0.65547 0.4835 0.81163 0.0
C3088 C 0.62956 0.5015 0.85718 0.0
H3089 H 0.62983 0.51431 0.9053 0.0
C3090 C 0.61037 0.49456 0.85625 0.0
C3091 C 0.63681 0.50814 0.87533 0.0
C3092 C 0.6577 0.5143 0.87792 0.0
C3093 C 0.59817 0.4945 0.87267 0.0
C3094 C 0.60505 0.50222 0.89052 0.0
C3095 C 0.62439 0.50868 0.89161 0.0
C3096 C 0.59228 0.50393 0.90803 0.0
C3097 C 0.57813 0.48577 0.87074 0.0
C3098 C 0.5745 0.51385 0.90683 0.0
C3099 C 0.56192 0.51457 0.92278 0.0
C3100 C 0.56695 0.50576 0.94055 0.0
C3101 C 0.58521 0.49669 0.94212 0.0
C3102 C 0.59773 0.49574 0.92599 0.0
H3103 H 0.57753 0.475 0.85872 0.0
H3104 H 0.57352 0.47849 0.88438 0.0
H3105 H 0.56755 0.49746 0.86733 0.0
H3106 H 0.5702 0.52094 0.89345 0.0
H3107 H 0.54814 0.52201 0.92112 0.0
H3108 H 0.49172 0.36328 0.21373 0.0
H3109 H 0.49067 0.38433 0.18488 0.0
H3110 H 0.52714 0.34393 0.15391 0.0
H3111 H 0.52818 0.32283 0.18248 0.0
H3112 H 0.52491 0.40067 0.16323 0.0
H3113 H 0.47794 0.35256 0.11832 0.0
H3114 H 0.47891 0.35084 0.14451 0.0
H3115 H 0.49843 0.34134 0.13007 0.0
C3116 C 0.4995 0.35888 0.20078 0.0
C3117 C 0.51013 0.34139 0.20051 0.0
C3118 C 0.49892 0.37094 0.18432 0.0
C3119 C 0.50866 0.3656 0.16716 0.0
C3120 C 0.51936 0.34826 0.1669 0.0
H3121 H 0.5168 0.41845 0.051 0.0
H3122 H 0.51818 0.39595 0.07877 0.0
C3123 C 0.5201 0.33631 0.18336 0.0
C3124 C 0.50791 0.37826 0.14961 0.0
H3125 H 0.4906 0.38058 0.10303 0.0
C3126 C 0.51735 0.39632 0.15009 0.0
C3127 C 0.49828 0.37245 0.13237 0.0
C3128 C 0.48768 0.3533 0.13118 0.0
C3129 C 0.51756 0.40867 0.13378 0.0
C3130 C 0.50752 0.4031 0.11664 0.0
C3131 C 0.49825 0.38491 0.11611 0.0
C3132 C 0.50596 0.41629 0.09945 0.0
C3133 C 0.52893 0.4274 0.13499 0.0
C3134 C 0.49806 0.43496 0.1016 0.0
C3135 C 0.49739 0.44781 0.08589 0.0
C3136 C 0.50431 0.44226 0.06742 0.0
C3137 C 0.51139 0.42322 0.065 0.0
C3138 C 0.51223 0.41037 0.08088 0.0
H3139 H 0.54055 0.42656 0.14617 0.0
H3140 H 0.5357 0.43109 0.12081 0.0
H3141 H 0.51898 0.43939 0.13917 0.0
H3142 H 0.4925 0.43971 0.11555 0.0
H3143 H 0.49146 0.46219 0.08829 0.0
H3144 H 0.65733 0.53841 0.20392 0.0
H3145 H 0.63647 0.537 0.1753 0.0
H3146 H 0.64884 0.4759 0.16905 0.0
H3147 H 0.67076 0.47743 0.19688 0.0
H3148 H 0.65114 0.49315 0.13485 0.0
H3149 H 0.58259 0.51662 0.16973 0.0
H3150 H 0.60163 0.53413 0.17281 0.0
H3151 H 0.60391 0.51039 0.18363 0.0
C3152 C 0.65569 0.52464 0.1965 0.0
C3153 C 0.66585 0.50804 0.20291 0.0
C3154 C 0.64349 0.5238 0.1802 0.0
C3155 C 0.64075 0.50627 0.17007 0.0
C3156 C 0.65058 0.4896 0.17661 0.0
H3157 H 0.54787 0.48616 0.08742 0.0
H3158 H 0.57009 0.48657 0.11496 0.0
C3159 C 0.66296 0.49046 0.19277 0.0
C3160 C 0.62823 0.50542 0.15231 0.0
H3161 H 0.58279 0.5159 0.13515 0.0
C3162 C 0.63615 0.49804 0.13495 0.0
C3163 C 0.60858 0.51159 0.15237 0.0
C3164 C 0.59861 0.51843 0.17068 0.0
C3165 C 0.62509 0.49674 0.11776 0.0
C3166 C 0.60564 0.50354 0.11767 0.0
C3167 C 0.59772 0.51086 0.13505 0.0
C3168 C 0.59285 0.50242 0.10011 0.0
C3169 C 0.63422 0.48758 0.10005 0.0
C3170 C 0.59819 0.51099 0.08228 0.0
C3171 C 0.58551 0.5105 0.06625 0.0
C3172 C 0.56707 0.50181 0.06787 0.0
C3173 C 0.56189 0.49312 0.08566 0.0
C3174 C 0.57461 0.49336 0.10149 0.0
H3175 H 0.64674 0.47818 0.104 0.0
H3176 H 0.6235 0.47869 0.09188 0.0
H3177 H 0.63969 0.4992 0.09029 0.0
H3178 H 0.61194 0.5185 0.08088 0.0
H3179 H 0.58985 0.51752 0.05284 0.0
H3180 H 0.4689 0.65778 0.20265 0.0
H3181 H 0.47037 0.63664 0.17422 0.0
H3182 H 0.53225 0.64571 0.17044 0.0
H3183 H 0.53077 0.66785 0.1981 0.0
H3184 H 0.51638 0.64881 0.13552 0.0
H3185 H 0.48826 0.58168 0.16975 0.0
H3186 H 0.47168 0.60164 0.1721 0.0
H3187 H 0.49508 0.60273 0.18379 0.0
C3188 C 0.48287 0.65534 0.19582 0.0
C3189 C 0.49972 0.66462 0.20287 0.0
C3190 C 0.48371 0.64299 0.17963 0.0
C3191 C 0.50147 0.63926 0.17025 0.0
C3192 C 0.51837 0.64823 0.17742 0.0
H3193 H 0.52097 0.54524 0.08878 0.0
H3194 H 0.52018 0.56752 0.11627 0.0
C3195 C 0.51752 0.66073 0.19348 0.0
C3196 C 0.50238 0.62661 0.15258 0.0
H3197 H 0.4905 0.58158 0.13524 0.0
C3198 C 0.5108 0.63407 0.1355 0.0
C3199 C 0.4953 0.60727 0.1525 0.0
C3200 C 0.48726 0.59778 0.17057 0.0
C3201 C 0.51225 0.62285 0.11843 0.0
C3202 C 0.50458 0.60373 0.11817 0.0
C3203 C 0.49622 0.59627 0.13528 0.0
C3204 C 0.50583 0.5908 0.10073 0.0
C3205 C 0.5225 0.63143 0.10104 0.0
C3206 C 0.49818 0.59638 0.08257 0.0
C3207 C 0.49887 0.58366 0.06659 0.0
C3208 C 0.50685 0.56494 0.06856 0.0
C3209 C 0.51457 0.55948 0.08671 0.0
C3210 C 0.51412 0.57224 0.10252 0.0
H3211 H 0.53227 0.64358 0.10529 0.0
H3212 H 0.53124 0.62028 0.09331 0.0
H3213 H 0.51153 0.6373 0.09079 0.0
H3214 H 0.49127 0.61041 0.08084 0.0
H3215 H 0.49262 0.58825 0.05289 0.0
H3216 H 0.35946 0.52916 0.20857 0.0
H3217 H 0.38004 0.5287 0.17952 0.0
H3218 H 0.35196 0.47609 0.16029 0.0
H3219 H 0.33131 0.47646 0.18917 0.0
H3220 H 0.3913 0.47427 0.15581 0.0
H3221 H 0.36343 0.54308 0.12457 0.0
H3222 H 0.3726 0.54568 0.14886 0.0
H3223 H 0.35155 0.5308 0.14448 0.0
C3224 C 0.35762 0.5175 0.19816 0.0
C3225 C 0.34367 0.50285 0.2013 0.0
C3226 C 0.36936 0.51731 0.18148 0.0
C3227 C 0.36731 0.50258 0.16747 0.0
C3228 C 0.35378 0.48767 0.17082 0.0
H3229 H 0.41861 0.50544 0.04992 0.0
H3230 H 0.39546 0.50435 0.07712 0.0
C3231 C 0.34207 0.48782 0.18748 0.0
C3232 C 0.37941 0.5025 0.14946 0.0
H3233 H 0.39157 0.52955 0.1095 0.0
C3234 C 0.39127 0.48632 0.14566 0.0
C3235 C 0.37913 0.51805 0.13594 0.0
C3236 C 0.36586 0.53531 0.13851 0.0
C3237 C 0.40327 0.48554 0.12912 0.0
C3238 C 0.40369 0.50149 0.1161 0.0
C3239 C 0.39138 0.51739 0.11954 0.0
C3240 C 0.41752 0.50226 0.09944 0.0
C3241 C 0.41535 0.46756 0.12569 0.0
C3242 C 0.43759 0.50178 0.10292 0.0
C3243 C 0.45079 0.5024 0.08751 0.0
C3244 C 0.44433 0.50364 0.06809 0.0
C3245 C 0.42416 0.5044 0.06461 0.0
C3246 C 0.4109 0.50381 0.08015 0.0
H3247 H 0.40924 0.45475 0.1334 0.0
H3248 H 0.41636 0.46412 0.10995 0.0
H3249 H 0.43027 0.47005 0.13129 0.0
H3250 H 0.44309 0.50101 0.11765 0.0
H3251 H 0.46614 0.50185 0.09095 0.0
H3252 H 0.80549 0.53889 0.65619 0.0
H3253 H 0.83409 0.53773 0.63529 0.0
H3254 H 0.84022 0.47644 0.64676 0.0
H3255 H 0.81241 0.4777 0.66872 0.0
H3256 H 0.87446 0.49356 0.64925 0.0
H3257 H 0.83956 0.51818 0.58111 0.0
H3258 H 0.83657 0.5354 0.60043 0.0
H3259 H 0.82567 0.51167 0.60235 0.0
C3260 C 0.81288 0.52512 0.65435 0.0
C3261 C 0.80643 0.50839 0.66427 0.0
C3262 C 0.82916 0.52444 0.64212 0.0
C3263 C 0.83926 0.50693 0.63911 0.0
C3264 C 0.8327 0.49014 0.64871 0.0
H3265 H 0.92166 0.48755 0.54588 0.0
H3266 H 0.89413 0.48797 0.56812 0.0
C3267 C 0.81654 0.49084 0.66111 0.0
C3268 C 0.857 0.50623 0.62655 0.0
H3269 H 0.87413 0.51729 0.58123 0.0
C3270 C 0.87434 0.49867 0.63433 0.0
C3271 C 0.85693 0.51268 0.60699 0.0
C3272 C 0.83864 0.51974 0.59716 0.0
C3273 C 0.89151 0.49747 0.62322 0.0
C3274 C 0.89159 0.50453 0.60387 0.0
C3275 C 0.87423 0.51204 0.59609 0.0
C3276 C 0.90912 0.50349 0.59102 0.0
C3277 C 0.9092 0.48811 0.63218 0.0
C3278 C 0.927 0.5119 0.59641 0.0
C3279 C 0.94302 0.51142 0.58371 0.0
C3280 C 0.94134 0.5029 0.5652 0.0
C3281 C 0.92348 0.49439 0.55995 0.0
C3282 C 0.90765 0.49463 0.57268 0.0
H3283 H 0.90524 0.47858 0.6446 0.0
H3284 H 0.91729 0.47931 0.62133 0.0
H3285 H 0.91904 0.49961 0.63776 0.0
H3286 H 0.92848 0.51925 0.61024 0.0
H3287 H 0.95649 0.51828 0.58813 0.0
H3288 H 0.49202 0.7964 0.64657 0.0
H3289 H 0.49175 0.82497 0.62526 0.0
H3290 H 0.5296 0.8551 0.66513 0.0
H3291 H 0.5302 0.82657 0.68622 0.0
H3292 H 0.47884 0.86099 0.63185 0.0
H3293 H 0.55749 0.86536 0.61517 0.0
H3294 H 0.54676 0.84442 0.62674 0.0
H3295 H 0.55266 0.86571 0.64078 0.0
C3296 C 0.50043 0.80905 0.65069 0.0
C3297 C 0.51133 0.80906 0.66801 0.0
C3298 C 0.50027 0.8254 0.6385 0.0
C3299 C 0.51094 0.84217 0.64334 0.0
C3300 C 0.52173 0.84221 0.66068 0.0
H3301 H 0.51718 0.95852 0.59015 0.0
H3302 H 0.51813 0.93132 0.61337 0.0
C3303 C 0.52205 0.82584 0.67277 0.0
C3304 C 0.51012 0.85983 0.63071 0.0
H3305 H 0.53824 0.89257 0.60589 0.0
C3306 C 0.49186 0.86781 0.62614 0.0
C3307 C 0.52707 0.86888 0.62321 0.0
C3308 C 0.54708 0.86055 0.62655 0.0
C3309 C 0.49011 0.88452 0.61446 0.0
C3310 C 0.50703 0.89355 0.60708 0.0
C3311 C 0.52529 0.88575 0.61174 0.0
C3312 C 0.50598 0.91029 0.59341 0.0
C3313 C 0.47015 0.89249 0.61013 0.0
C3314 C 0.49889 0.90748 0.57452 0.0
C3315 C 0.49847 0.92285 0.56124 0.0
C3316 C 0.50505 0.94152 0.56654 0.0
C3317 C 0.5119 0.9444 0.58561 0.0
C3318 C 0.51252 0.92886 0.59887 0.0
H3319 H 0.45895 0.88646 0.62008 0.0
H3320 H 0.47008 0.90859 0.61133 0.0
H3321 H 0.46607 0.88864 0.595 0.0
H3322 H 0.49392 0.89325 0.56993 0.0
H3323 H 0.493 0.92004 0.54675 0.0
H3324 H 0.19112 0.53273 0.67766 0.0
H3325 H 0.16217 0.53346 0.65712 0.0
H3326 H 0.17954 0.47953 0.63041 0.0
H3327 H 0.2087 0.47874 0.65081 0.0
H3328 H 0.15766 0.53414 0.61746 0.0
H3329 H 0.12412 0.46755 0.64802 0.0
H3330 H 0.14442 0.47966 0.65943 0.0
H3331 H 0.14832 0.46387 0.63896 0.0
C3332 C 0.18902 0.52115 0.66721 0.0
C3333 C 0.20236 0.50565 0.66596 0.0
C3334 C 0.17231 0.52152 0.65557 0.0
C3335 C 0.16841 0.50636 0.64248 0.0
C3336 C 0.18193 0.49114 0.64076 0.0
H3337 H 0.09177 0.50573 0.54386 0.0
H3338 H 0.11847 0.50658 0.56688 0.0
C3339 C 0.19867 0.49075 0.6524 0.0
C3340 C 0.15033 0.50665 0.63047 0.0
H3341 H 0.10937 0.4806 0.6195 0.0
C3342 C 0.14707 0.52247 0.618 0.0
C3343 C 0.13626 0.49162 0.6314 0.0
C3344 C 0.1383 0.4748 0.64531 0.0
C3345 C 0.13052 0.52338 0.60601 0.0
C3346 C 0.11693 0.50791 0.60626 0.0
C3347 C 0.11984 0.49239 0.61919 0.0
C3348 C 0.10022 0.50716 0.59246 0.0
C3349 C 0.12772 0.54096 0.5932 0.0
C3350 C 0.08089 0.50663 0.59911 0.0
C3351 C 0.06533 0.50607 0.58585 0.0
C3352 C 0.06883 0.50586 0.56568 0.0
C3353 C 0.08829 0.50605 0.55921 0.0
C3354 C 0.10372 0.50663 0.5724 0.0
H3355 H 0.13593 0.55371 0.59875 0.0
H3356 H 0.13317 0.53764 0.57839 0.0
H3357 H 0.11212 0.54492 0.59208 0.0
H3358 H 0.07784 0.50686 0.61456 0.0
H3359 H 0.05061 0.50585 0.59142 0.0
H3360 H 0.47812 0.19186 0.67595 0.0
H3361 H 0.47737 0.16306 0.65519 0.0
H3362 H 0.53287 0.17896 0.63086 0.0
H3363 H 0.5337 0.20794 0.6515 0.0
H3364 H 0.4782 0.15857 0.61558 0.0
H3365 H 0.5426 0.12326 0.64871 0.0
H3366 H 0.53062 0.14388 0.65966 0.0
H3367 H 0.54732 0.14735 0.63985 0.0
C3368 C 0.49005 0.18947 0.66597 0.0
C3369 C 0.506 0.20232 0.66549 0.0
C3370 C 0.48966 0.17285 0.6542 0.0
C3371 C 0.50524 0.16856 0.64173 0.0
C3372 C 0.5209 0.18164 0.64073 0.0
H3373 H 0.50723 0.09151 0.54316 0.0
H3374 H 0.5065 0.11841 0.56599 0.0
C3375 C 0.52132 0.19828 0.65251 0.0
C3376 C 0.50496 0.15052 0.62966 0.0
H3377 H 0.53033 0.10891 0.61965 0.0
C3378 C 0.48956 0.14768 0.61656 0.0
C3379 C 0.51957 0.13607 0.63114 0.0
C3380 C 0.53587 0.13764 0.64573 0.0
C3381 C 0.48869 0.13117 0.60451 0.0
C3382 C 0.50378 0.11718 0.60534 0.0
C3383 C 0.51886 0.11969 0.61887 0.0
C3384 C 0.50456 0.10039 0.59165 0.0
C3385 C 0.47154 0.12882 0.59104 0.0
C3386 C 0.50432 0.0811 0.59844 0.0
C3387 C 0.5048 0.06544 0.5853 0.0
C3388 C 0.50569 0.06878 0.56512 0.0
C3389 C 0.50634 0.08818 0.55852 0.0
C3390 C 0.50583 0.10371 0.57159 0.0
H3391 H 0.45882 0.13739 0.59608 0.0
H3392 H 0.47557 0.13412 0.57635 0.0
H3393 H 0.46718 0.11333 0.58981 0.0
H3394 H 0.50349 0.07817 0.61388 0.0
H3395 H 0.50435 0.05076 0.59097 0.0
H3396 H 0.80519 0.46986 0.35248 0.0
H3397 H 0.83389 0.47094 0.37326 0.0
H3398 H 0.8408 0.53197 0.36087 0.0
H3399 H 0.81288 0.53076 0.33904 0.0
H3400 H 0.87479 0.51434 0.35847 0.0
H3401 H 0.83983 0.49127 0.42713 0.0
H3402 H 0.83651 0.4738 0.40808 0.0
H3403 H 0.82594 0.49766 0.40584 0.0
C3404 C 0.81277 0.48355 0.3541 0.0
C3405 C 0.80652 0.50023 0.34397 0.0
C3406 C 0.82912 0.4842 0.36626 0.0
C3407 C 0.83946 0.50161 0.36896 0.0
C3408 C 0.83308 0.51835 0.35915 0.0
H3409 H 0.92229 0.52132 0.46164 0.0
H3410 H 0.89475 0.52096 0.43941 0.0
C3411 C 0.81686 0.51768 0.34683 0.0
C3412 C 0.85726 0.50227 0.38144 0.0
H3413 H 0.8744 0.49168 0.42686 0.0
C3414 C 0.87467 0.50947 0.37347 0.0
C3415 C 0.85717 0.49612 0.40109 0.0
C3416 C 0.83882 0.48947 0.41111 0.0
C3417 C 0.89189 0.51061 0.3845 0.0
C3418 C 0.89195 0.50386 0.40396 0.0
C3419 C 0.87452 0.4967 0.41191 0.0
C3420 C 0.90952 0.5049 0.41674 0.0
C3421 C 0.90968 0.5196 0.37533 0.0
C3422 C 0.92729 0.49619 0.41146 0.0
C3423 C 0.94332 0.49664 0.42414 0.0
C3424 C 0.94174 0.50543 0.44253 0.0
C3425 C 0.92401 0.51426 0.44766 0.0
C3426 C 0.90818 0.51406 0.43494 0.0
H3427 H 0.9058 0.52897 0.36276 0.0
H3428 H 0.91791 0.52847 0.386 0.0
H3429 H 0.91934 0.50788 0.36992 0.0
H3430 H 0.92865 0.48861 0.39773 0.0
H3431 H 0.95669 0.48952 0.41984 0.0
H3432 H 0.47588 0.81851 0.33086 0.0
H3433 H 0.47511 0.8471 0.35194 0.0
H3434 H 0.5289 0.82912 0.37854 0.0
H3435 H 0.52971 0.80034 0.35763 0.0
H3436 H 0.47453 0.85118 0.39186 0.0
H3437 H 0.54117 0.88463 0.36126 0.0
H3438 H 0.52886 0.86455 0.34969 0.0
H3439 H 0.54471 0.86031 0.37004 0.0
C3440 C 0.4874 0.8204 0.34141 0.0
C3441 C 0.50289 0.80703 0.34244 0.0
C3442 C 0.48702 0.83689 0.35336 0.0
C3443 C 0.50215 0.84053 0.36657 0.0
C3444 C 0.51731 0.82693 0.36812 0.0
H3445 H 0.50321 0.91726 0.46554 0.0
H3446 H 0.50211 0.8904 0.44267 0.0
C3447 C 0.51771 0.81042 0.35617 0.0
C3448 C 0.50199 0.85849 0.37875 0.0
H3449 H 0.52826 0.89926 0.38987 0.0
C3450 C 0.48624 0.86172 0.39134 0.0
C3451 C 0.51708 0.87249 0.37787 0.0
C3452 C 0.53383 0.87048 0.36386 0.0
C3453 C 0.48547 0.87818 0.40347 0.0
C3454 C 0.50099 0.89173 0.40322 0.0
C3455 C 0.51644 0.88883 0.3902 0.0
C3456 C 0.50181 0.90848 0.41697 0.0
C3457 C 0.46796 0.88098 0.41637 0.0
C3458 C 0.50258 0.92776 0.41021 0.0
C3459 C 0.50331 0.94339 0.42336 0.0
C3460 C 0.50345 0.94002 0.44356 0.0
C3461 C 0.50298 0.92062 0.45016 0.0
C3462 C 0.50224 0.90511 0.43706 0.0
H3463 H 0.45515 0.87284 0.41084 0.0
H3464 H 0.47132 0.87544 0.43115 0.0
H3465 H 0.46404 0.89658 0.4176 0.0
H3466 H 0.50243 0.93072 0.39474 0.0
H3467 H 0.50372 0.95806 0.41769 0.0
H3468 H 0.20907 0.47708 0.35716 0.0
H3469 H 0.18006 0.47756 0.3778 0.0
H3470 H 0.16198 0.53139 0.35135 0.0
H3471 H 0.19083 0.53102 0.33067 0.0
H3472 H 0.15758 0.5322 0.39067 0.0
H3473 H 0.1248 0.46484 0.36101 0.0
H3474 H 0.14903 0.46146 0.37008 0.0
H3475 H 0.14497 0.47698 0.34944 0.0
C3476 C 0.19891 0.48901 0.3557 0.0
C3477 C 0.20238 0.50401 0.3422 0.0
C3478 C 0.18226 0.48921 0.36746 0.0
C3479 C 0.16857 0.50431 0.36588 0.0
C3480 C 0.17224 0.51954 0.3528 0.0
H3481 H 0.05099 0.50296 0.41709 0.0
H3482 H 0.07826 0.50382 0.39401 0.0
C3483 C 0.18888 0.51937 0.34108 0.0
C3484 C 0.15059 0.50443 0.37803 0.0
H3485 H 0.11006 0.47796 0.38951 0.0
C3486 C 0.14716 0.52037 0.39032 0.0
C3487 C 0.13674 0.4892 0.37736 0.0
C3488 C 0.13891 0.47224 0.36363 0.0
C3489 C 0.13065 0.5212 0.40236 0.0
C3490 C 0.11728 0.50554 0.40237 0.0
C3491 C 0.12036 0.48988 0.38964 0.0
C3492 C 0.10058 0.50479 0.41616 0.0
C3493 C 0.12762 0.53894 0.41491 0.0
C3494 C 0.10404 0.5047 0.43623 0.0
C3495 C 0.08859 0.5042 0.44939 0.0
C3496 C 0.06915 0.50366 0.44288 0.0
C3497 C 0.0657 0.50343 0.42269 0.0
C3498 C 0.08128 0.50391 0.40947 0.0
H3499 H 0.13564 0.55172 0.40915 0.0
H3500 H 0.11196 0.5427 0.41599 0.0
H3501 H 0.13313 0.53592 0.42976 0.0
H3502 H 0.11877 0.50495 0.44177 0.0
H3503 H 0.09201 0.50429 0.46476 0.0
H3504 H 0.47089 0.20395 0.35238 0.0
H3505 H 0.47205 0.17523 0.37311 0.0
H3506 H 0.53293 0.16808 0.36008 0.0
H3507 H 0.53162 0.19604 0.33831 0.0
H3508 H 0.51508 0.13412 0.3579 0.0
H3509 H 0.49295 0.1693 0.42677 0.0
H3510 H 0.4753 0.17268 0.4079 0.0
H3511 H 0.49919 0.18312 0.4054 0.0
C3512 C 0.48456 0.19631 0.35384 0.0
C3513 C 0.50117 0.20252 0.34356 0.0
C3514 C 0.48526 0.17995 0.36597 0.0
C3515 C 0.50265 0.16954 0.36849 0.0
C3516 C 0.51932 0.17585 0.35851 0.0
H3517 H 0.5231 0.08691 0.46112 0.0
H3518 H 0.52263 0.11434 0.43878 0.0
C3519 C 0.5186 0.19209 0.34621 0.0
C3520 C 0.50336 0.15175 0.38098 0.0
H3521 H 0.49324 0.13474 0.42656 0.0
C3522 C 0.51038 0.13429 0.37295 0.0
C3523 C 0.49745 0.1519 0.40071 0.0
C3524 C 0.491 0.1703 0.41076 0.0
C3525 C 0.51158 0.11708 0.38401 0.0
C3526 C 0.50507 0.1171 0.40355 0.0
C3527 C 0.49808 0.13457 0.41155 0.0
C3528 C 0.50622 0.09956 0.41637 0.0
C3529 C 0.52036 0.09924 0.37475 0.0
C3530 C 0.49736 0.0818 0.41126 0.0
C3531 C 0.49788 0.06583 0.42402 0.0
C3532 C 0.50688 0.06745 0.4423 0.0
C3533 C 0.51588 0.08516 0.44723 0.0
C3534 C 0.51561 0.10092 0.43444 0.0
H3535 H 0.52958 0.10305 0.36205 0.0
H3536 H 0.52934 0.09101 0.38533 0.0
H3537 H 0.50853 0.08961 0.36954 0.0
H3538 H 0.48961 0.08042 0.39764 0.0
H3539 H 0.49064 0.05248 0.41986 0.0
H3540 H 0.67792 0.81812 0.47573 0.0
H3541 H 0.65718 0.84692 0.47526 0.0
H3542 H 0.63111 0.82925 0.52942 0.0
H3543 H 0.65172 0.80024 0.52996 0.0
H3544 H 0.6175 0.85121 0.47498 0.0
H3545 H 0.64858 0.88471 0.54137 0.0
H3546 H 0.65996 0.86449 0.5291 0.0
H3547 H 0.63966 0.86046 0.54507 0.0
C3548 C 0.66757 0.82012 0.48742 0.0
C3549 C 0.66656 0.80675 0.5029 0.0
C3550 C 0.65581 0.83675 0.4872 0.0
C3551 C 0.64284 0.84052 0.50249 0.0
C3552 C 0.64136 0.82696 0.51769 0.0
H3553 H 0.54421 0.91738 0.50386 0.0
H3554 H 0.56708 0.89053 0.50294 0.0
C3555 C 0.65312 0.81031 0.51794 0.0
C3556 C 0.63075 0.85853 0.50237 0.0
H3557 H 0.61995 0.89942 0.52858 0.0
C3558 C 0.61812 0.86178 0.48667 0.0
C3559 C 0.63178 0.87257 0.51742 0.0
C3560 C 0.64586 0.87054 0.53411 0.0
C3561 C 0.6061 0.8783 0.4859 0.0
C3562 C 0.60647 0.89188 0.50138 0.0
C3563 C 0.61954 0.88896 0.51679 0.0
C3564 C 0.59275 0.90863 0.50221 0.0
C3565 C 0.59314 0.88112 0.46842 0.0
C3566 C 0.59952 0.92792 0.50268 0.0
C3567 C 0.58637 0.94355 0.5033 0.0
C3568 C 0.56617 0.94016 0.50363 0.0
C3569 C 0.55958 0.92075 0.5035 0.0
C3570 C 0.57267 0.90525 0.50286 0.0
H3571 H 0.59855 0.87289 0.45562 0.0
H3572 H 0.57834 0.87572 0.47188 0.0
H3573 H 0.59202 0.89672 0.46445 0.0
H3574 H 0.61498 0.93088 0.50235 0.0
H3575 H 0.59203 0.95823 0.50345 0.0
H3576 H 0.65664 0.20445 0.46961 0.0
H3577 H 0.63595 0.1757 0.47076 0.0
H3578 H 0.64965 0.16804 0.53142 0.0
H3579 H 0.67141 0.19601 0.53011 0.0
H3580 H 0.6516 0.13425 0.51336 0.0
H3581 H 0.58254 0.16954 0.49212 0.0
H3582 H 0.60121 0.17306 0.47428 0.0
H3583 H 0.60397 0.18333 0.49822 0.0
C3584 C 0.65534 0.19669 0.48323 0.0
C3585 C 0.66581 0.20276 0.49977 0.0
C3586 C 0.64323 0.18031 0.48392 0.0
C3587 C 0.64091 0.16975 0.50126 0.0
C3588 C 0.65107 0.17593 0.51787 0.0
H3589 H 0.5484 0.08689 0.52155 0.0
H3590 H 0.57071 0.11435 0.52118 0.0
C3591 C 0.66335 0.19218 0.51715 0.0
C3592 C 0.62843 0.15195 0.50195 0.0
H3593 H 0.58279 0.13497 0.49203 0.0
C3594 C 0.63651 0.13445 0.50878 0.0
C3595 C 0.60865 0.15212 0.4962 0.0
C3596 C 0.59852 0.17056 0.48999 0.0
C3597 C 0.62548 0.11722 0.50994 0.0
C3598 C 0.6059 0.11725 0.50355 0.0
C3599 C 0.59783 0.13477 0.49676 0.0
C3600 C 0.5931 0.09969 0.50464 0.0
C3601 C 0.63481 0.09933 0.51853 0.0
C3602 C 0.5982 0.08199 0.49568 0.0
C3603 C 0.58547 0.06599 0.49615 0.0
C3604 C 0.56721 0.06754 0.5052 0.0
C3605 C 0.56227 0.08519 0.51429 0.0
C3606 C 0.57504 0.10098 0.51407 0.0
H3607 H 0.64754 0.1031 0.52773 0.0
H3608 H 0.62429 0.09099 0.52749 0.0
H3609 H 0.64001 0.08981 0.5066 0.0
H3610 H 0.6118 0.08066 0.48788 0.0
H3611 H 0.58962 0.05267 0.48884 0.0
H3612 H 0.80159 0.65142 0.47661 0.0
H3613 H 0.83036 0.63045 0.47742 0.0
H3614 H 0.84735 0.65569 0.53219 0.0
H3615 H 0.8188 0.67675 0.53146 0.0
H3616 H 0.86953 0.64103 0.4785 0.0
H3617 H 0.85003 0.59758 0.5436 0.0
H3618 H 0.83261 0.61255 0.53093 0.0
H3619 H 0.84969 0.62338 0.54748 0.0
C3620 C 0.81139 0.65247 0.48888 0.0
C3621 C 0.80769 0.66572 0.50405 0.0
C3622 C 0.82785 0.64045 0.48932 0.0
C3623 C 0.84095 0.64131 0.50497 0.0
C3624 C 0.83727 0.65443 0.52016 0.0
H3625 H 0.95924 0.59114 0.50481 0.0
H3626 H 0.93188 0.61409 0.50518 0.0
C3627 C 0.82083 0.66644 0.51975 0.0
C3628 C 0.85867 0.62881 0.50518 0.0
H3629 H 0.88176 0.59318 0.53099 0.0
C3630 C 0.87222 0.63057 0.48998 0.0
C3631 C 0.86214 0.61507 0.5201 0.0
C3632 C 0.84779 0.61184 0.53637 0.0
C3633 C 0.8891 0.61901 0.48931 0.0
C3634 C 0.89269 0.60545 0.50437 0.0
C3635 C 0.87914 0.60371 0.51956 0.0
C3636 C 0.90961 0.59189 0.50397 0.0
C3637 C 0.90267 0.62099 0.4722 0.0
C3638 C 0.90626 0.5718 0.50346 0.0
C3639 C 0.92177 0.55871 0.50334 0.0
C3640 C 0.94118 0.56531 0.50382 0.0
C3641 C 0.94456 0.58549 0.50435 0.0
C3642 C 0.92891 0.59865 0.50447 0.0
H3643 H 0.89582 0.62898 0.45995 0.0
H3644 H 0.91582 0.62914 0.47676 0.0
H3645 H 0.90738 0.60648 0.46692 0.0
H3646 H 0.89155 0.5662 0.50306 0.0
H3647 H 0.91841 0.54335 0.50287 0.0
H3648 H 0.34028 0.81222 0.53054 0.0
H3649 H 0.36154 0.84053 0.53146 0.0
H3650 H 0.37308 0.83408 0.47021 0.0
H3651 H 0.35295 0.8049 0.46941 0.0
H3652 H 0.40498 0.84374 0.48765 0.0
H3653 H 0.34798 0.8939 0.51392 0.0
H3654 H 0.35167 0.87411 0.53044 0.0
H3655 H 0.34262 0.86941 0.50631 0.0
C3656 C 0.34761 0.81649 0.51729 0.0
C3657 C 0.34464 0.80614 0.49985 0.0
C3658 C 0.35951 0.83303 0.51778 0.0
C3659 C 0.36848 0.83996 0.50077 0.0
C3660 C 0.36613 0.8293 0.4835 0.0
H3661 H 0.42064 0.95675 0.49072 0.0
H3662 H 0.39852 0.9287 0.48884 0.0
C3663 C 0.35444 0.81261 0.48305 0.0
C3664 C 0.38057 0.85808 0.50101 0.0
H3665 H 0.38061 0.9059 0.51486 0.0
C3666 C 0.39955 0.85734 0.49351 0.0
C3667 C 0.37348 0.87607 0.5082 0.0
C3668 C 0.35275 0.87851 0.51497 0.0
C3669 C 0.41173 0.87378 0.49347 0.0
C3670 C 0.40506 0.89142 0.50179 0.0
C3671 C 0.3859 0.89236 0.50877 0.0
C3672 C 0.41792 0.90886 0.5037 0.0
C3673 C 0.43152 0.87208 0.48415 0.0
C3674 C 0.43589 0.90733 0.51324 0.0
C3675 C 0.44855 0.9232 0.51414 0.0
C3676 C 0.44344 0.94121 0.50588 0.0
C3677 C 0.42502 0.9431 0.49721 0.0
C3678 C 0.4124 0.92704 0.49608 0.0
H3679 H 0.43182 0.86035 0.47304 0.0
H3680 H 0.43594 0.88591 0.4771 0.0
H3681 H 0.44242 0.86838 0.49544 0.0
H3682 H 0.44027 0.89375 0.51988 0.0
H3683 H 0.46246 0.92128 0.52126 0.0
H3684 H 0.19818 0.34027 0.53076 0.0
H3685 H 0.17005 0.36177 0.53177 0.0
H3686 H 0.17519 0.37166 0.4701 0.0
H3687 H 0.20416 0.35121 0.46916 0.0
H3688 H 0.16629 0.4042 0.48733 0.0
H3689 H 0.11622 0.34789 0.51532 0.0
H3690 H 0.1364 0.35175 0.53135 0.0
H3691 H 0.14053 0.34227 0.50728 0.0
C3692 C 0.19366 0.3473 0.51744 0.0
C3693 C 0.20356 0.34377 0.49984 0.0
C3694 C 0.17723 0.35933 0.51798 0.0
C3695 C 0.17 0.3679 0.50091 0.0
C3696 C 0.18023 0.36502 0.48346 0.0
H3697 H 0.05341 0.41998 0.49112 0.0
H3698 H 0.08147 0.39791 0.4894 0.0
C3699 C 0.1968 0.35317 0.48293 0.0
C3700 C 0.15199 0.38008 0.50123 0.0
H3701 H 0.10435 0.38053 0.51566 0.0
C3702 C 0.15274 0.39894 0.49344 0.0
C3703 C 0.13407 0.37318 0.50878 0.0
C3704 C 0.13166 0.3526 0.51595 0.0
C3705 C 0.13636 0.41118 0.49342 0.0
C3706 C 0.11878 0.4047 0.50202 0.0
C3707 C 0.11785 0.38567 0.50933 0.0
C3708 C 0.10139 0.4176 0.5038 0.0
C3709 C 0.13804 0.43084 0.48381 0.0
C3710 C 0.10297 0.43573 0.51302 0.0
C3711 C 0.08709 0.44837 0.51381 0.0
C3712 C 0.06902 0.44307 0.50579 0.0
C3713 C 0.06711 0.42451 0.49743 0.0
C3714 C 0.08316 0.41191 0.4964 0.0
H3715 H 0.1497 0.43095 0.47262 0.0
H3716 H 0.12417 0.43517 0.47679 0.0
H3717 H 0.14185 0.44188 0.49493 0.0
H3718 H 0.11659 0.44024 0.51948 0.0
H3719 H 0.08902 0.46241 0.5207 0.0
H3720 H 0.35868 0.20854 0.53086 0.0
H3721 H 0.37975 0.17987 0.5299 0.0
H3722 H 0.35361 0.16232 0.47573 0.0
H3723 H 0.33241 0.19078 0.47663 0.0
H3724 H 0.36915 0.14071 0.52941 0.0
H3725 H 0.41156 0.15947 0.46341 0.0
H3726 H 0.39681 0.17704 0.47615 0.0
H3727 H 0.38569 0.15979 0.45997 0.0
C3728 C 0.35744 0.19864 0.51869 0.0
C3729 C 0.34387 0.20215 0.50376 0.0
C3730 C 0.36953 0.18224 0.51816 0.0
C3731 C 0.36844 0.16899 0.50265 0.0
C3732 C 0.35504 0.17251 0.48765 0.0
H3733 H 0.41855 0.0507 0.50356 0.0
H3734 H 0.39565 0.07809 0.5031 0.0
C3735 C 0.34296 0.18889 0.48816 0.0
C3736 C 0.38095 0.15127 0.50242 0.0
H3737 H 0.41619 0.1279 0.47632 0.0
C3738 C 0.37943 0.13789 0.5178 0.0
C3739 C 0.39446 0.14763 0.48733 0.0
C3740 C 0.39742 0.1618 0.47086 0.0
C3741 C 0.39102 0.12103 0.51848 0.0
C3742 C 0.40434 0.11726 0.50325 0.0
C3743 C 0.40584 0.13065 0.48789 0.0
C3744 C 0.4179 0.10034 0.50362 0.0
C3745 C 0.38932 0.10767 0.53579 0.0
C3746 C 0.438 0.10365 0.50373 0.0
C3747 C 0.45107 0.08811 0.50389 0.0
C3748 C 0.44444 0.06871 0.50386 0.0
C3749 C 0.42423 0.06537 0.50368 0.0
C3750 C 0.4111 0.08104 0.50351 0.0
H3751 H 0.38157 0.11469 0.54809 0.0
H3752 H 0.38106 0.09449 0.53152 0.0
H3753 H 0.40391 0.10298 0.54086 0.0
H3754 H 0.44364 0.11835 0.5038 0.0
H3755 H 0.46645 0.09145 0.50405 0.0
H3756 H 0.81296 0.33944 0.47779 0.0
H3757 H 0.84119 0.36082 0.47701 0.0
H3758 H 0.83482 0.3718 0.53838 0.0
H3759 H 0.80574 0.35152 0.53906 0.0
H3760 H 0.84427 0.40394 0.521 0.0
H3761 H 0.89464 0.34719 0.49456 0.0
H3762 H 0.87481 0.35089 0.47808 0.0
H3763 H 0.87017 0.34173 0.50217 0.0
C3764 C 0.81723 0.34668 0.49109 0.0
C3765 C 0.80694 0.34351 0.50854 0.0
C3766 C 0.83372 0.35865 0.49069 0.0
C3767 C 0.84065 0.36749 0.50776 0.0
C3768 C 0.83003 0.36495 0.52503 0.0
H3769 H 0.95724 0.41982 0.51839 0.0
H3770 H 0.9292 0.3977 0.52016 0.0
C3771 C 0.8134 0.35318 0.52541 0.0
C3772 C 0.85871 0.37962 0.5076 0.0
H3773 H 0.90657 0.37983 0.49389 0.0
C3774 C 0.8579 0.39858 0.51516 0.0
C3775 C 0.87674 0.37261 0.50042 0.0
C3776 C 0.87923 0.35192 0.49355 0.0
C3777 C 0.8743 0.4108 0.51528 0.0
C3778 C 0.89199 0.4042 0.507 0.0
C3779 C 0.893 0.38506 0.49995 0.0
C3780 C 0.9094 0.41709 0.50522 0.0
C3781 C 0.87252 0.43057 0.52463 0.0
C3782 C 0.90789 0.43507 0.4957 0.0
C3783 C 0.92375 0.44773 0.49486 0.0
C3784 C 0.94174 0.44263 0.50318 0.0
C3785 C 0.9436 0.42421 0.51186 0.0
C3786 C 0.92755 0.41158 0.51291 0.0
H3787 H 0.86073 0.43082 0.53568 0.0
H3788 H 0.88631 0.435 0.53175 0.0
H3789 H 0.86884 0.44147 0.51333 0.0
H3790 H 0.89432 0.43943 0.48901 0.0
H3791 H 0.92184 0.46163 0.48772 0.0
H3792 H 0.20584 0.65508 0.53634 0.0
H3793 H 0.17713 0.63435 0.53524 0.0
H3794 H 0.16925 0.64813 0.47462 0.0
H3795 H 0.19713 0.67 0.47591 0.0
H3796 H 0.13557 0.64984 0.49246 0.0
H3797 H 0.17088 0.581 0.5142 0.0
H3798 H 0.17429 0.59967 0.53204 0.0
H3799 H 0.18467 0.60243 0.50814 0.0
C3800 C 0.19803 0.65381 0.52274 0.0
C3801 C 0.20402 0.66435 0.50621 0.0
C3802 C 0.18168 0.64166 0.52207 0.0
C3803 C 0.17107 0.63932 0.50476 0.0
C3804 C 0.17717 0.64955 0.48816 0.0
H3805 H 0.08798 0.54649 0.4857 0.0
H3806 H 0.11554 0.5687 0.48569 0.0
C3807 C 0.19338 0.6619 0.48887 0.0
C3808 C 0.15327 0.6268 0.5041 0.0
H3809 H 0.13628 0.58125 0.51443 0.0
C3810 C 0.13577 0.6348 0.49717 0.0
C3811 C 0.15344 0.60707 0.51002 0.0
C3812 C 0.17187 0.59698 0.51632 0.0
C3813 C 0.11855 0.62375 0.49609 0.0
C3814 C 0.11857 0.60424 0.50267 0.0
C3815 C 0.13609 0.59624 0.50955 0.0
C3816 C 0.10096 0.59146 0.5018 0.0
C3817 C 0.10068 0.63299 0.48734 0.0
C3818 C 0.08326 0.59678 0.51065 0.0
C3819 C 0.06721 0.58411 0.51038 0.0
C3820 C 0.06869 0.56568 0.50166 0.0
C3821 C 0.08634 0.5605 0.4927 0.0
C3822 C 0.10218 0.57322 0.4927 0.0
H3823 H 0.10449 0.64555 0.47793 0.0
H3824 H 0.09229 0.62236 0.47857 0.0
H3825 H 0.0912 0.63844 0.4992 0.0
H3826 H 0.08198 0.61051 0.51821 0.0
H3827 H 0.0539 0.58845 0.5176 0.0
loop_
_geom_bond_atom_site_label_1
_geom_bond_atom_site_label_2
_geom_bond_distance
_geom_bond_site_symmetry_2
_ccdc_geom_bond_type
C0 C1 1.356 1_655 S
C0 C2 1.397 . S
C0 H24 0.931 . S
C1 C0 1.356 1_455 S
C1 C5 1.430 . S
C2 C0 1.397 . S
C2 C3 1.350 1_655 S
C2 H25 0.930 . S
C3 C2 1.350 1_455 S
C3 C4 1.413 . S
C3 C6 1.480 . S
C4 C3 1.413 . S
C4 C5 1.389 . S
C4 H26 0.929 . S
C5 C1 1.430 . S
C5 C4 1.389 . S
C5 H27 0.931 . S
C6 C3 1.480 . S
C6 C7 1.387 1_455 S
C6 C11 1.390 . S
C7 C6 1.387 1_655 S
C7 C8 1.400 1_655 S
C7 H28 0.928 . S
C8 C7 1.400 1_455 S
C8 C9 1.376 . S
C8 C17 1.510 1_455 S
C9 C8 1.376 . S
C9 C10 1.392 . S
C9 H30 0.930 1_455 S
C10 C9 1.392 . S
C10 C11 1.361 . S
C10 C12 1.502 . S
C11 C6 1.390 . S
C11 C10 1.361 . S
C11 H29 0.931 . S
C12 C10 1.502 . S
C12 C13 1.371 1_455 S
C12 C14 1.365 . S
C13 C12 1.371 1_655 S
C13 C23 1.386 . S
C13 H31 0.931 . S
C14 C12 1.365 . S
C14 C15 1.409 . S
C14 H32 0.929 . S
C15 C14 1.409 . S
C15 C16 1.380 . S
C15 H33 0.930 . S
C16 C15 1.380 . S
C16 C23 1.357 1_455 S
C17 C8 1.510 1_655 S
C17 C18 1.344 . S
C17 C19 1.368 1_655 S
C18 C17 1.344 . S
C18 C22 1.394 . S
C18 H34 0.930 . S
C19 C17 1.368 1_455 S
C19 C20 1.392 . S
C19 H35 0.931 . S
C20 C19 1.392 . S
C20 C21 1.342 . S
C20 H38 0.932 . S
C21 C20 1.342 . S
C21 C22 1.326 1_455 S
C22 C18 1.394 . S
C22 C21 1.326 1_655 S
C22 H37 0.929 . S
C23 C13 1.386 . S
C23 C16 1.357 1_655 S
C23 H36 0.928 . S
H24 C0 0.931 . S
H25 C2 0.930 . S
H26 C4 0.929 . S
H27 C5 0.931 . S
H28 C7 0.928 . S
H29 C11 0.931 . S
H30 C9 0.930 1_655 S
H31 C13 0.931 . S
H32 C14 0.929 . S
H33 C15 0.930 . S
H34 C18 0.930 . S
H35 C19 0.931 . S
H36 C23 0.928 . S
H37 C22 0.929 . S
H38 C20 0.932 . S
C39 C40 1.394 . S
C39 C41 1.397 . S
C39 H63 0.931 . S
C40 C39 1.394 . S
C40 C44 1.389 1_545 S
C41 C39 1.397 . S
C41 C42 1.389 . S
C41 H64 0.930 . S
C42 C41 1.389 . S
C42 C43 1.373 1_545 S
C42 C45 1.480 . S
C43 C42 1.373 1_565 S
C43 C44 1.389 . S
C43 H65 0.929 . S
C44 C40 1.389 1_565 S
C44 C43 1.389 . S
C44 H66 0.931 . S
C45 C42 1.480 . S
C45 C46 1.388 . S
C45 C50 1.390 . S
C46 C45 1.388 . S
C46 C47 1.402 . S
C46 H67 0.930 . S
C47 C46 1.402 . S
C47 C48 1.376 . S
C47 C56 1.513 . S
C48 C47 1.376 . S
C48 C49 1.392 . S
C48 H69 0.934 . S
C49 C48 1.392 . S
C49 C50 1.361 . S
C49 C51 1.499 1_545 S
C50 C45 1.390 . S
C50 C49 1.361 . S
C50 H68 0.931 . S
C51 C49 1.499 1_565 S
C51 C52 1.363 1_565 S
C51 C53 1.374 . S
C52 C51 1.363 1_545 S
C52 C62 1.386 . S
C52 H70 0.931 . S
C53 C51 1.374 . S
C53 C54 1.409 . S
C53 H71 0.929 . S
C54 C53 1.409 . S
C54 C55 1.378 . S
C54 H72 0.930 . S
C55 C54 1.378 . S
C55 C62 1.359 1_565 S
C56 C47 1.513 . S
C56 C57 1.341 . S
C56 C58 1.371 1_545 S
C57 C56 1.341 . S
C57 C61 1.394 . S
C57 H73 0.930 . S
C58 C56 1.371 1_565 S
C58 C59 1.392 . S
C58 H74 0.931 . S
C59 C58 1.392 . S
C59 C60 1.322 1_565 S
C59 H77 0.932 . S
C60 C59 1.322 1_545 S
C60 C61 1.345 . S
C61 C57 1.394 . S
C61 C60 1.345 . S
C61 H76 0.929 . S
C62 C52 1.386 . S
C62 C55 1.359 1_545 S
C62 H75 0.928 . S
H63 C39 0.931 . S
H64 C41 0.930 . S
H65 C43 0.929 . S
H66 C44 0.931 . S
H67 C46 0.930 . S
H68 C50 0.931 . S
H69 C48 0.934 . S
H70 C52 0.931 . S
H71 C53 0.929 . S
H72 C54 0.930 . S
H73 C57 0.930 . S
H74 C58 0.931 . S
H75 C62 0.928 . S
H76 C61 0.929 . S
H77 C59 0.932 . S
C78 C79 1.356 1_655 S
C78 C80 1.397 . S
C78 H102 0.931 . S
C79 C78 1.356 1_455 S
C79 C83 1.430 . S
C80 C78 1.397 . S
C80 C81 1.350 1_655 S
C80 H103 0.930 . S
C81 C80 1.350 1_455 S
C81 C82 1.413 . S
C81 C84 1.480 . S
C82 C81 1.413 . S
C82 C83 1.389 . S
C82 H104 0.929 . S
C83 C79 1.430 . S
C83 C82 1.389 . S
C83 H105 0.931 . S
C84 C81 1.480 . S
C84 C85 1.387 1_455 S
C84 C89 1.390 . S
C85 C84 1.387 1_655 S
C85 C86 1.400 1_655 S
C85 H106 0.928 . S
C86 C85 1.400 1_455 S
C86 C87 1.376 . S
C86 C95 1.510 1_455 S
C87 C86 1.376 . S
C87 C88 1.392 . S
C87 H108 0.930 1_455 S
C88 C87 1.392 . S
C88 C89 1.361 . S
C88 C90 1.502 . S
C89 C84 1.390 . S
C89 C88 1.361 . S
C89 H107 0.931 . S
C90 C88 1.502 . S
C90 C91 1.371 1_455 S
C90 C92 1.365 . S
C91 C90 1.371 1_655 S
C91 C101 1.386 . S
C91 H109 0.931 . S
C92 C90 1.365 . S
C92 C93 1.409 . S
C92 H110 0.929 . S
C93 C92 1.409 . S
C93 C94 1.380 . S
C93 H111 0.930 . S
C94 C93 1.380 . S
C94 C101 1.357 1_455 S
C95 C86 1.510 1_655 S
C95 C96 1.344 . S
C95 C97 1.368 1_655 S
C96 C95 1.344 . S
C96 C100 1.394 . S
C96 H112 0.930 . S
C97 C95 1.368 1_455 S
C97 C98 1.392 . S
C97 H113 0.931 . S
C98 C97 1.392 . S
C98 C99 1.342 . S
C98 H116 0.932 . S
C99 C98 1.342 . S
C99 C100 1.326 1_455 S
C100 C96 1.394 . S
C100 C99 1.326 1_655 S
C100 H115 0.929 . S
C101 C91 1.386 . S
C101 C94 1.357 1_655 S
C101 H114 0.928 . S
H102 C78 0.931 . S
H103 C80 0.930 . S
H104 C82 0.929 . S
H105 C83 0.931 . S
H106 C85 0.928 . S
H107 C89 0.931 . S
H108 C87 0.930 1_655 S
H109 C91 0.931 . S
H110 C92 0.929 . S
H111 C93 0.930 . S
H112 C96 0.930 . S
H113 C97 0.931 . S
H114 C101 0.928 . S
H115 C100 0.929 . S
H116 C98 0.932 . S
C117 C118 1.394 . S
C117 C119 1.397 . S
C117 H141 0.931 . S
C118 C117 1.394 . S
C118 C122 1.389 1_545 S
C119 C117 1.397 . S
C119 C120 1.389 . S
C119 H142 0.930 . S
C120 C119 1.389 . S
C120 C121 1.373 1_545 S
C120 C123 1.480 . S
C121 C120 1.373 1_565 S
C121 C122 1.389 . S
C121 H143 0.929 . S
C122 C118 1.389 1_565 S
C122 C121 1.389 . S
C122 H144 0.931 . S
C123 C120 1.480 . S
C123 C124 1.388 . S
C123 C128 1.390 . S
C124 C123 1.388 . S
C124 C125 1.402 . S
C124 H145 0.930 . S
C125 C124 1.402 . S
C125 C126 1.376 . S
C125 C134 1.513 . S
C126 C125 1.376 . S
C126 C127 1.392 . S
C126 H147 0.934 . S
C127 C126 1.392 . S
C127 C128 1.361 . S
C127 C129 1.499 1_545 S
C128 C123 1.390 . S
C128 C127 1.361 . S
C128 H146 0.931 . S
C129 C127 1.499 1_565 S
C129 C130 1.363 1_565 S
C129 C131 1.374 . S
C130 C129 1.363 1_545 S
C130 C140 1.386 . S
C130 H148 0.931 . S
C131 C129 1.374 . S
C131 C132 1.409 . S
C131 H149 0.929 . S
C132 C131 1.409 . S
C132 C133 1.378 . S
C132 H150 0.930 . S
C133 C132 1.378 . S
C133 C140 1.359 1_565 S
C134 C125 1.513 . S
C134 C135 1.341 . S
C134 C136 1.371 1_545 S
C135 C134 1.341 . S
C135 C139 1.394 . S
C135 H151 0.930 . S
C136 C134 1.371 1_565 S
C136 C137 1.392 . S
C136 H152 0.931 . S
C137 C136 1.392 . S
C137 C138 1.322 1_565 S
C137 H155 0.932 . S
C138 C137 1.322 1_545 S
C138 C139 1.345 . S
C139 C135 1.394 . S
C139 C138 1.345 . S
C139 H154 0.929 . S
C140 C130 1.386 . S
C140 C133 1.359 1_545 S
C140 H153 0.928 . S
H141 C117 0.931 . S
H142 C119 0.930 . S
H143 C121 0.929 . S
H144 C122 0.931 . S
H145 C124 0.930 . S
H146 C128 0.931 . S
H147 C126 0.934 . S
H148 C130 0.931 . S
H149 C131 0.929 . S
H150 C132 0.930 . S
H151 C135 0.930 . S
H152 C136 0.931 . S
H153 C140 0.928 . S
H154 C139 0.929 . S
H155 C137 0.932 . S
C156 C157 1.356 1_655 S
C156 C158 1.397 . S
C156 H180 0.931 . S
C157 C156 1.356 1_455 S
C157 C161 1.430 . S
C158 C156 1.397 . S
C158 C159 1.350 1_655 S
C158 H181 0.930 . S
C159 C158 1.350 1_455 S
C159 C160 1.413 . S
C159 C162 1.480 . S
C160 C159 1.413 . S
C160 C161 1.389 . S
C160 H182 0.929 . S
C161 C157 1.430 . S
C161 C160 1.389 . S
C161 H183 0.931 . S
C162 C159 1.480 . S
C162 C163 1.387 1_455 S
C162 C167 1.390 . S
C163 C162 1.387 1_655 S
C163 C164 1.400 1_655 S
C163 H184 0.928 . S
C164 C163 1.400 1_455 S
C164 C165 1.376 . S
C164 C173 1.510 1_455 S
C165 C164 1.376 . S
C165 C166 1.392 . S
C165 H186 0.930 1_455 S
C166 C165 1.392 . S
C166 C167 1.361 . S
C166 C168 1.502 . S
C167 C162 1.390 . S
C167 C166 1.361 . S
C167 H185 0.931 . S
C168 C166 1.502 . S
C168 C169 1.371 1_455 S
C168 C170 1.365 . S
C169 C168 1.371 1_655 S
C169 C179 1.386 . S
C169 H187 0.931 . S
C170 C168 1.365 . S
C170 C171 1.409 . S
C170 H188 0.929 . S
C171 C170 1.409 . S
C171 C172 1.380 . S
C171 H189 0.930 . S
C172 C171 1.380 . S
C172 C179 1.357 1_455 S
C173 C164 1.510 1_655 S
C173 C174 1.344 . S
C173 C175 1.368 1_655 S
C174 C173 1.344 . S
C174 C178 1.394 . S
C174 H190 0.930 . S
C175 C173 1.368 1_455 S
C175 C176 1.392 . S
C175 H191 0.931 . S
C176 C175 1.392 . S
C176 C177 1.342 . S
C176 H194 0.932 . S
C177 C176 1.342 . S
C177 C178 1.326 1_455 S
C178 C174 1.394 . S
C178 C177 1.326 1_655 S
C178 H193 0.929 . S
C179 C169 1.386 . S
C179 C172 1.357 1_655 S
C179 H192 0.928 . S
H180 C156 0.931 . S
H181 C158 0.930 . S
H182 C160 0.929 . S
H183 C161 0.931 . S
H184 C163 0.928 . S
H185 C167 0.931 . S
H186 C165 0.930 1_655 S
H187 C169 0.931 . S
H188 C170 0.929 . S
H189 C171 0.930 . S
H190 C174 0.930 . S
H191 C175 0.931 . S
H192 C179 0.928 . S
H193 C178 0.929 . S
H194 C176 0.932 . S
C195 C196 1.386 . S
C195 C197 1.397 . S
C195 H219 0.931 . S
C196 C195 1.386 . S
C196 C200 1.397 1_565 S
C197 C195 1.397 . S
C197 C198 1.380 . S
C197 H220 0.930 . S
C198 C197 1.380 . S
C198 C199 1.381 1_565 S
C198 C201 1.480 . S
C199 C198 1.381 1_545 S
C199 C200 1.389 . S
C199 H221 0.929 . S
C200 C196 1.397 1_545 S
C200 C199 1.389 . S
C200 H222 0.931 . S
C201 C198 1.480 . S
C201 C202 1.386 . S
C201 C206 1.390 . S
C202 C201 1.386 . S
C202 C203 1.400 . S
C202 H223 0.936 . S
C203 C202 1.400 . S
C203 C204 1.376 . S
C203 C212 1.512 . S
C204 C203 1.376 . S
C204 C205 1.392 1_565 S
C204 H225 0.933 . S
C205 C204 1.392 1_545 S
C205 C206 1.361 1_545 S
C205 C207 1.499 . S
C206 C201 1.390 . S
C206 C205 1.361 1_565 S
C206 H224 0.931 1_565 S
C207 C205 1.499 . S
C207 C208 1.357 1_545 S
C207 C209 1.380 . S
C208 C207 1.357 1_565 S
C208 C218 1.386 . S
C208 H226 0.931 . S
C209 C207 1.380 . S
C209 C210 1.409 . S
C209 H227 0.929 . S
C210 C209 1.409 . S
C210 C211 1.384 . S
C210 H228 0.930 . S
C211 C210 1.384 . S
C211 C218 1.353 1_545 S
C212 C203 1.512 . S
C212 C213 1.341 . S
C212 C214 1.371 1_565 S
C213 C212 1.341 . S
C213 C217 1.394 . S
C213 H229 0.930 . S
C214 C212 1.371 1_545 S
C214 C215 1.392 . S
C214 H230 0.931 . S
C215 C214 1.392 . S
C215 C216 1.326 1_545 S
C215 H233 0.932 . S
C216 C215 1.326 1_565 S
C216 C217 1.341 . S
C217 C213 1.394 . S
C217 C216 1.341 . S
C217 H232 0.929 . S
C218 C208 1.386 . S
C218 C211 1.353 1_565 S
C218 H231 0.928 . S
H219 C195 0.931 . S
H220 C197 0.930 . S
H221 C199 0.929 . S
H222 C200 0.931 . S
H223 C202 0.936 . S
H224 C206 0.931 1_545 S
H225 C204 0.933 . S
H226 C208 0.931 . S
H227 C209 0.929 . S
H228 C210 0.930 . S
H229 C213 0.930 . S
H230 C214 0.931 . S
H231 C218 0.928 . S
H232 C217 0.929 . S
H233 C215 0.932 . S
C234 C235 1.356 1_655 S
C234 C236 1.397 . S
C234 H258 0.931 . S
C235 C234 1.356 1_455 S
C235 C239 1.430 . S
C236 C234 1.397 . S
C236 C237 1.350 1_655 S
C236 H259 0.930 . S
C237 C236 1.350 1_455 S
C237 C238 1.413 . S
C237 C240 1.480 . S
C238 C237 1.413 . S
C238 C239 1.389 . S
C238 H260 0.929 . S
C239 C235 1.430 . S
C239 C238 1.389 . S
C239 H261 0.931 . S
C240 C237 1.480 . S
C240 C241 1.387 1_455 S
C240 C245 1.390 . S
C241 C240 1.387 1_655 S
C241 C242 1.400 1_655 S
C241 H262 0.928 . S
C242 C241 1.400 1_455 S
C242 C243 1.376 . S
C242 C251 1.510 1_455 S
C243 C242 1.376 . S
C243 C244 1.392 . S
C243 H264 0.930 1_455 S
C244 C243 1.392 . S
C244 C245 1.361 . S
C244 C246 1.502 . S
C245 C240 1.390 . S
C245 C244 1.361 . S
C245 H263 0.931 . S
C246 C244 1.502 . S
C246 C247 1.371 1_455 S
C246 C248 1.365 . S
C247 C246 1.371 1_655 S
C247 C257 1.386 . S
C247 H265 0.931 . S
C248 C246 1.365 . S
C248 C249 1.409 . S
C248 H266 0.929 . S
C249 C248 1.409 . S
C249 C250 1.380 . S
C249 H267 0.930 . S
C250 C249 1.380 . S
C250 C257 1.357 1_455 S
C251 C242 1.510 1_655 S
C251 C252 1.344 . S
C251 C253 1.368 1_655 S
C252 C251 1.344 . S
C252 C256 1.394 . S
C252 H268 0.930 . S
C253 C251 1.368 1_455 S
C253 C254 1.392 . S
C253 H269 0.931 . S
C254 C253 1.392 . S
C254 C255 1.342 . S
C254 H272 0.932 . S
C255 C254 1.342 . S
C255 C256 1.326 1_455 S
C256 C252 1.394 . S
C256 C255 1.326 1_655 S
C256 H271 0.929 . S
C257 C247 1.386 . S
C257 C250 1.357 1_655 S
C257 H270 0.928 . S
H258 C234 0.931 . S
H259 C236 0.930 . S
H260 C238 0.929 . S
H261 C239 0.931 . S
H262 C241 0.928 . S
H263 C245 0.931 . S
H264 C243 0.930 1_655 S
H265 C247 0.931 . S
H266 C248 0.929 . S
H267 C249 0.930 . S
H268 C252 0.930 . S
H269 C253 0.931 . S
H270 C257 0.928 . S
H271 C256 0.929 . S
H272 C254 0.932 . S
C273 C274 1.386 . S
C273 C275 1.397 . S
C273 H297 0.931 . S
C274 C273 1.386 . S
C274 C278 1.397 1_565 S
C275 C273 1.397 . S
C275 C276 1.380 . S
C275 H298 0.930 . S
C276 C275 1.380 . S
C276 C277 1.381 1_565 S
C276 C279 1.480 . S
C277 C276 1.381 1_545 S
C277 C278 1.389 . S
C277 H299 0.929 . S
C278 C274 1.397 1_545 S
C278 C277 1.389 . S
C278 H300 0.931 . S
C279 C276 1.480 . S
C279 C280 1.386 . S
C279 C284 1.390 . S
C280 C279 1.386 . S
C280 C281 1.400 . S
C280 H301 0.936 . S
C281 C280 1.400 . S
C281 C282 1.376 . S
C281 C290 1.512 . S
C282 C281 1.376 . S
C282 C283 1.392 1_565 S
C282 H303 0.933 . S
C283 C282 1.392 1_545 S
C283 C284 1.361 1_545 S
C283 C285 1.499 . S
C284 C279 1.390 . S
C284 C283 1.361 1_565 S
C284 H302 0.931 1_565 S
C285 C283 1.499 . S
C285 C286 1.357 1_545 S
C285 C287 1.380 . S
C286 C285 1.357 1_565 S
C286 C296 1.386 . S
C286 H304 0.931 . S
C287 C285 1.380 . S
C287 C288 1.409 . S
C287 H305 0.929 . S
C288 C287 1.409 . S
C288 C289 1.384 . S
C288 H306 0.930 . S
C289 C288 1.384 . S
C289 C296 1.353 1_545 S
C290 C281 1.512 . S
C290 C291 1.341 . S
C290 C292 1.371 1_565 S
C291 C290 1.341 . S
C291 C295 1.394 . S
C291 H307 0.930 . S
C292 C290 1.371 1_545 S
C292 C293 1.392 . S
C292 H308 0.931 . S
C293 C292 1.392 . S
C293 C294 1.326 1_545 S
C293 H311 0.932 . S
C294 C293 1.326 1_565 S
C294 C295 1.341 . S
C295 C291 1.394 . S
C295 C294 1.341 . S
C295 H310 0.929 . S
C296 C286 1.386 . S
C296 C289 1.353 1_565 S
C296 H309 0.928 . S
H297 C273 0.931 . S
H298 C275 0.930 . S
H299 C277 0.929 . S
H300 C278 0.931 . S
H301 C280 0.936 . S
H302 C284 0.931 1_545 S
H303 C282 0.933 . S
H304 C286 0.931 . S
H305 C287 0.929 . S
H306 C288 0.930 . S
H307 C291 0.930 . S
H308 C292 0.931 . S
H309 C296 0.928 . S
H310 C295 0.929 . S
H311 C293 0.932 . S
C312 C313 1.386 . S
C312 C314 1.397 . S
C312 H336 0.931 . S
C313 C312 1.386 . S
C313 C317 1.397 1_556 S
C314 C312 1.397 . S
C314 C315 1.380 . S
C314 H337 0.930 . S
C315 C314 1.380 . S
C315 C316 1.381 1_556 S
C315 C318 1.480 . S
C316 C315 1.381 1_554 S
C316 C317 1.389 . S
C316 H338 0.929 . S
C317 C313 1.397 1_554 S
C317 C316 1.389 . S
C317 H339 0.931 . S
C318 C315 1.480 . S
C318 C319 1.386 . S
C318 C323 1.390 . S
C319 C318 1.386 . S
C319 C320 1.400 . S
C319 H340 0.936 . S
C320 C319 1.400 . S
C320 C321 1.376 . S
C320 C329 1.512 . S
C321 C320 1.376 . S
C321 C322 1.392 1_556 S
C321 H342 0.933 . S
C322 C321 1.392 1_554 S
C322 C323 1.361 1_554 S
C322 C324 1.499 . S
C323 C318 1.390 . S
C323 C322 1.361 1_556 S
C323 H341 0.931 1_556 S
C324 C322 1.499 . S
C324 C325 1.357 1_554 S
C324 C326 1.380 . S
C325 C324 1.357 1_556 S
C325 C335 1.386 . S
C325 H343 0.931 . S
C326 C324 1.380 . S
C326 C327 1.409 . S
C326 H344 0.929 . S
C327 C326 1.409 . S
C327 C328 1.384 . S
C327 H345 0.930 . S
C328 C327 1.384 . S
C328 C335 1.353 1_554 S
C329 C320 1.512 . S
C329 C330 1.341 . S
C329 C331 1.371 1_556 S
C330 C329 1.341 . S
C330 C334 1.394 . S
C330 H346 0.930 . S
C331 C329 1.371 1_554 S
C331 C332 1.392 . S
C331 H347 0.931 . S
C332 C331 1.392 . S
C332 C333 1.326 1_554 S
C332 H350 0.932 . S
C333 C332 1.326 1_556 S
C333 C334 1.341 . S
C334 C330 1.394 . S
C334 C333 1.341 . S
C334 H349 0.929 . S
C335 C325 1.386 . S
C335 C328 1.353 1_556 S
C335 H348 0.928 . S
H336 C312 0.931 . S
H337 C314 0.930 . S
H338 C316 0.929 . S
H339 C317 0.931 . S
H340 C319 0.936 . S
H341 C323 0.931 1_554 S
H342 C321 0.933 . S
H343 C325 0.931 . S
H344 C326 0.929 . S
H345 C327 0.930 . S
H346 C330 0.930 . S
H347 C331 0.931 . S
H348 C335 0.928 . S
H349 C334 0.929 . S
H350 C332 0.932 . S
C351 C352 1.394 . S
C351 C353 1.397 . S
C351 H375 0.931 . S
C352 C351 1.394 . S
C352 C356 1.389 1_554 S
C353 C351 1.397 . S
C353 C354 1.389 . S
C353 H376 0.930 . S
C354 C353 1.389 . S
C354 C355 1.373 1_554 S
C354 C357 1.480 . S
C355 C354 1.373 1_556 S
C355 C356 1.389 . S
C355 H377 0.929 . S
C356 C352 1.389 1_556 S
C356 C355 1.389 . S
C356 H378 0.931 . S
C357 C354 1.480 . S
C357 C358 1.388 . S
C357 C362 1.390 . S
C358 C357 1.388 . S
C358 C359 1.402 . S
C358 H379 0.930 . S
C359 C358 1.402 . S
C359 C360 1.376 . S
C359 C368 1.513 . S
C360 C359 1.376 . S
C360 C361 1.392 . S
C360 H381 0.934 . S
C361 C360 1.392 . S
C361 C362 1.361 . S
C361 C363 1.499 1_554 S
C362 C357 1.390 . S
C362 C361 1.361 . S
C362 H380 0.931 . S
C363 C361 1.499 1_556 S
C363 C364 1.363 1_556 S
C363 C365 1.374 . S
C364 C363 1.363 1_554 S
C364 C374 1.386 . S
C364 H382 0.931 . S
C365 C363 1.374 . S
C365 C366 1.409 . S
C365 H383 0.929 . S
C366 C365 1.409 . S
C366 C367 1.378 . S
C366 H384 0.930 . S
C367 C366 1.378 . S
C367 C374 1.359 1_556 S
C368 C359 1.513 . S
C368 C369 1.341 . S
C368 C370 1.371 1_554 S
C369 C368 1.341 . S
C369 C373 1.394 . S
C369 H385 0.930 . S
C370 C368 1.371 1_556 S
C370 C371 1.392 . S
C370 H386 0.931 . S
C371 C370 1.392 . S
C371 C372 1.322 1_556 S
C371 H389 0.932 . S
C372 C371 1.322 1_554 S
C372 C373 1.345 . S
C373 C369 1.394 . S
C373 C372 1.345 . S
C373 H388 0.929 . S
C374 C364 1.386 . S
C374 C367 1.359 1_554 S
C374 H387 0.928 . S
H375 C351 0.931 . S
H376 C353 0.930 . S
H377 C355 0.929 . S
H378 C356 0.931 . S
H379 C358 0.930 . S
H380 C362 0.931 . S
H381 C360 0.934 . S
H382 C364 0.931 . S
H383 C365 0.929 . S
H384 C366 0.930 . S
H385 C369 0.930 . S
H386 C370 0.931 . S
H387 C374 0.928 . S
H388 C373 0.929 . S
H389 C371 0.932 . S
C390 C391 1.386 . S
C390 C392 1.397 . S
C390 H414 0.931 . S
C391 C390 1.386 . S
C391 C395 1.397 1_556 S
C392 C390 1.397 . S
C392 C393 1.380 . S
C392 H415 0.930 . S
C393 C392 1.380 . S
C393 C394 1.381 1_556 S
C393 C396 1.480 . S
C394 C393 1.381 1_554 S
C394 C395 1.389 . S
C394 H416 0.929 . S
C395 C391 1.397 1_554 S
C395 C394 1.389 . S
C395 H417 0.931 . S
C396 C393 1.480 . S
C396 C397 1.386 . S
C396 C401 1.390 . S
C397 C396 1.386 . S
C397 C398 1.400 . S
C397 H418 0.936 . S
C398 C397 1.400 . S
C398 C399 1.376 . S
C398 C407 1.512 . S
C399 C398 1.376 . S
C399 C400 1.392 1_556 S
C399 H420 0.933 . S
C400 C399 1.392 1_554 S
C400 C401 1.361 1_554 S
C400 C402 1.499 . S
C401 C396 1.390 . S
C401 C400 1.361 1_556 S
C401 H419 0.931 1_556 S
C402 C400 1.499 . S
C402 C403 1.357 1_554 S
C402 C404 1.380 . S
C403 C402 1.357 1_556 S
C403 C413 1.386 . S
C403 H421 0.931 . S
C404 C402 1.380 . S
C404 C405 1.409 . S
C404 H422 0.929 . S
C405 C404 1.409 . S
C405 C406 1.384 . S
C405 H423 0.930 . S
C406 C405 1.384 . S
C406 C413 1.353 1_554 S
C407 C398 1.512 . S
C407 C408 1.341 . S
C407 C409 1.371 1_556 S
C408 C407 1.341 . S
C408 C412 1.394 . S
C408 H424 0.930 . S
C409 C407 1.371 1_554 S
C409 C410 1.392 . S
C409 H425 0.931 . S
C410 C409 1.392 . S
C410 C411 1.326 1_554 S
C410 H428 0.932 . S
C411 C410 1.326 1_556 S
C411 C412 1.341 . S
C412 C408 1.394 . S
C412 C411 1.341 . S
C412 H427 0.929 . S
C413 C403 1.386 . S
C413 C406 1.353 1_556 S
C413 H426 0.928 . S
H414 C390 0.931 . S
H415 C392 0.930 . S
H416 C394 0.929 . S
H417 C395 0.931 . S
H418 C397 0.936 . S
H419 C401 0.931 1_554 S
H420 C399 0.933 . S
H421 C403 0.931 . S
H422 C404 0.929 . S
H423 C405 0.930 . S
H424 C408 0.930 . S
H425 C409 0.931 . S
H426 C413 0.928 . S
H427 C412 0.929 . S
H428 C410 0.932 . S
C429 C430 1.394 . S
C429 C431 1.397 . S
C429 H453 0.931 . S
C430 C429 1.394 . S
C430 C434 1.389 1_554 S
C431 C429 1.397 . S
C431 C432 1.389 . S
C431 H454 0.930 . S
C432 C431 1.389 . S
C432 C433 1.373 1_554 S
C432 C435 1.480 . S
C433 C432 1.373 1_556 S
C433 C434 1.389 . S
C433 H455 0.929 . S
C434 C430 1.389 1_556 S
C434 C433 1.389 . S
C434 H456 0.931 . S
C435 C432 1.480 . S
C435 C436 1.388 . S
C435 C440 1.390 . S
C436 C435 1.388 . S
C436 C437 1.402 . S
C436 H457 0.930 . S
C437 C436 1.402 . S
C437 C438 1.376 . S
C437 C446 1.513 . S
C438 C437 1.376 . S
C438 C439 1.392 . S
C438 H459 0.934 . S
C439 C438 1.392 . S
C439 C440 1.361 . S
C439 C441 1.499 1_554 S
C440 C435 1.390 . S
C440 C439 1.361 . S
C440 H458 0.931 . S
C441 C439 1.499 1_556 S
C441 C442 1.363 1_556 S
C441 C443 1.374 . S
C442 C441 1.363 1_554 S
C442 C452 1.386 . S
C442 H460 0.931 . S
C443 C441 1.374 . S
C443 C444 1.409 . S
C443 H461 0.929 . S
C444 C443 1.409 . S
C444 C445 1.378 . S
C444 H462 0.930 . S
C445 C444 1.378 . S
C445 C452 1.359 1_556 S
C446 C437 1.513 . S
C446 C447 1.341 . S
C446 C448 1.371 1_554 S
C447 C446 1.341 . S
C447 C451 1.394 . S
C447 H463 0.930 . S
C448 C446 1.371 1_556 S
C448 C449 1.392 . S
C448 H464 0.931 . S
C449 C448 1.392 . S
C449 C450 1.322 1_556 S
C449 H467 0.932 . S
C450 C449 1.322 1_554 S
C450 C451 1.345 . S
C451 C447 1.394 . S
C451 C450 1.345 . S
C451 H466 0.929 . S
C452 C442 1.386 . S
C452 C445 1.359 1_554 S
C452 H465 0.928 . S
H453 C429 0.931 . S
H454 C431 0.930 . S
H455 C433 0.929 . S
H456 C434 0.931 . S
H457 C436 0.930 . S
H458 C440 0.931 . S
H459 C438 0.934 . S
H460 C442 0.931 . S
H461 C443 0.929 . S
H462 C444 0.930 . S
H463 C447 0.930 . S
H464 C448 0.931 . S
H465 C452 0.928 . S
H466 C451 0.929 . S
H467 C449 0.932 . S
C468 C469 1.386 . S
C468 C470 1.397 . S
C468 H492 0.931 . S
C469 C468 1.386 . S
C469 C473 1.397 . S
C470 C468 1.397 . S
C470 C471 1.384 . S
C470 H493 0.930 . S
C471 C470 1.384 . S
C471 C472 1.377 . S
C471 C474 1.481 . S
C472 C471 1.377 . S
C472 C473 1.389 . S
C472 H494 0.929 . S
C473 C469 1.397 . S
C473 C472 1.389 . S
C473 H495 0.931 . S
C474 C471 1.481 . S
C474 C475 1.387 . S
C474 C479 1.390 . S
C475 C474 1.387 . S
C475 C476 1.401 . S
C475 H496 0.930 . S
C476 C475 1.401 . S
C476 C477 1.376 . S
C476 C485 1.511 . S
C477 C476 1.376 . S
C477 C478 1.392 . S
C477 H498 0.931 . S
C478 C477 1.392 . S
C478 C479 1.361 . S
C478 C480 1.500 . S
C479 C474 1.390 . S
C479 C478 1.361 . S
C479 H497 0.931 . S
C480 C478 1.500 . S
C480 C481 1.371 . S
C480 C482 1.365 . S
C481 C480 1.371 . S
C481 C491 1.386 . S
C481 H499 0.931 . S
C482 C480 1.365 . S
C482 C483 1.409 . S
C482 H500 0.929 . S
C483 C482 1.409 . S
C483 C484 1.380 . S
C483 H501 0.930 . S
C484 C483 1.380 . S
C484 C491 1.357 . S
C485 C476 1.511 . S
C485 C486 1.341 . S
C485 C487 1.371 . S
C486 C485 1.341 . S
C486 C490 1.394 . S
C486 H502 0.930 . S
C487 C485 1.371 . S
C487 C488 1.392 . S
C487 H503 0.931 . S
C488 C487 1.392 . S
C488 C489 1.331 . S
C488 H506 0.932 . S
C489 C488 1.331 . S
C489 C490 1.336 . S
C490 C486 1.394 . S
C490 C489 1.336 . S
C490 H505 0.929 . S
C491 C481 1.386 . S
C491 C484 1.357 . S
C491 H504 0.928 . S
H492 C468 0.931 . S
H493 C470 0.930 . S
H494 C472 0.929 . S
H495 C473 0.931 . S
H496 C475 0.930 . S
H497 C479 0.931 . S
H498 C477 0.931 . S
H499 C481 0.931 . S
H500 C482 0.929 . S
H501 C483 0.930 . S
H502 C486 0.930 . S
H503 C487 0.931 . S
H504 C491 0.928 . S
H505 C490 0.929 . S
H506 C488 0.932 . S
C507 C508 1.386 . S
C507 C509 1.397 . S
C507 H531 0.931 . S
C508 C507 1.386 . S
C508 C512 1.397 . S
C509 C507 1.397 . S
C509 C510 1.384 . S
C509 H532 0.930 . S
C510 C509 1.384 . S
C510 C511 1.377 . S
C510 C513 1.481 . S
C511 C510 1.377 . S
C511 C512 1.389 . S
C511 H533 0.929 . S
C512 C508 1.397 . S
C512 C511 1.389 . S
C512 H534 0.931 . S
C513 C510 1.481 . S
C513 C514 1.387 . S
C513 C518 1.390 . S
C514 C513 1.387 . S
C514 C515 1.401 . S
C514 H535 0.930 . S
C515 C514 1.401 . S
C515 C516 1.376 . S
C515 C524 1.511 . S
C516 C515 1.376 . S
C516 C517 1.392 . S
C516 H537 0.931 . S
C517 C516 1.392 . S
C517 C518 1.361 . S
C517 C519 1.500 . S
C518 C513 1.390 . S
C518 C517 1.361 . S
C518 H536 0.931 . S
C519 C517 1.500 . S
C519 C520 1.371 . S
C519 C521 1.365 . S
C520 C519 1.371 . S
C520 C530 1.386 . S
C520 H538 0.931 . S
C521 C519 1.365 . S
C521 C522 1.409 . S
C521 H539 0.929 . S
C522 C521 1.409 . S
C522 C523 1.380 . S
C522 H540 0.930 . S
C523 C522 1.380 . S
C523 C530 1.357 . S
C524 C515 1.511 . S
C524 C525 1.341 . S
C524 C526 1.371 . S
C525 C524 1.341 . S
C525 C529 1.394 . S
C525 H541 0.930 . S
C526 C524 1.371 . S
C526 C527 1.392 . S
C526 H542 0.931 . S
C527 C526 1.392 . S
C527 C528 1.331 . S
C527 H545 0.932 . S
C528 C527 1.331 . S
C528 C529 1.336 . S
C529 C525 1.394 . S
C529 C528 1.336 . S
C529 H544 0.929 . S
C530 C520 1.386 . S
C530 C523 1.357 . S
C530 H543 0.928 . S
H531 C507 0.931 . S
H532 C509 0.930 . S
H533 C511 0.929 . S
H534 C512 0.931 . S
H535 C514 0.930 . S
H536 C518 0.931 . S
H537 C516 0.931 . S
H538 C520 0.931 . S
H539 C521 0.929 . S
H540 C522 0.930 . S
H541 C525 0.930 . S
H542 C526 0.931 . S
H543 C530 0.928 . S
H544 C529 0.929 . S
H545 C527 0.932 . S
C546 C547 1.386 . S
C546 C548 1.397 . S
C546 H570 0.931 . S
C547 C546 1.386 . S
C547 C551 1.397 . S
C548 C546 1.397 . S
C548 C549 1.384 . S
C548 H571 0.930 . S
C549 C548 1.384 . S
C549 C550 1.377 . S
C549 C552 1.481 . S
C550 C549 1.377 . S
C550 C551 1.389 . S
C550 H572 0.929 . S
C551 C547 1.397 . S
C551 C550 1.389 . S
C551 H573 0.931 . S
C552 C549 1.481 . S
C552 C553 1.387 . S
C552 C557 1.390 . S
C553 C552 1.387 . S
C553 C554 1.401 . S
C553 H574 0.930 . S
C554 C553 1.401 . S
C554 C555 1.376 . S
C554 C563 1.511 . S
C555 C554 1.376 . S
C555 C556 1.392 . S
C555 H576 0.931 . S
C556 C555 1.392 . S
C556 C557 1.361 . S
C556 C558 1.500 . S
C557 C552 1.390 . S
C557 C556 1.361 . S
C557 H575 0.931 . S
C558 C556 1.500 . S
C558 C559 1.371 . S
C558 C560 1.365 . S
C559 C558 1.371 . S
C559 C569 1.386 . S
C559 H577 0.931 . S
C560 C558 1.365 . S
C560 C561 1.409 . S
C560 H578 0.929 . S
C561 C560 1.409 . S
C561 C562 1.380 . S
C561 H579 0.930 . S
C562 C561 1.380 . S
C562 C569 1.357 . S
C563 C554 1.511 . S
C563 C564 1.341 . S
C563 C565 1.371 . S
C564 C563 1.341 . S
C564 C568 1.394 . S
C564 H580 0.930 . S
C565 C563 1.371 . S
C565 C566 1.392 . S
C565 H581 0.931 . S
C566 C565 1.392 . S
C566 C567 1.331 . S
C566 H584 0.932 . S
C567 C566 1.331 . S
C567 C568 1.336 . S
C568 C564 1.394 . S
C568 C567 1.336 . S
C568 H583 0.929 . S
C569 C559 1.386 . S
C569 C562 1.357 . S
C569 H582 0.928 . S
H570 C546 0.931 . S
H571 C548 0.930 . S
H572 C550 0.929 . S
H573 C551 0.931 . S
H574 C553 0.930 . S
H575 C557 0.931 . S
H576 C555 0.931 . S
H577 C559 0.931 . S
H578 C560 0.929 . S
H579 C561 0.930 . S
H580 C564 0.930 . S
H581 C565 0.931 . S
H582 C569 0.928 . S
H583 C568 0.929 . S
H584 C566 0.932 . S
C585 C586 1.386 . S
C585 C587 1.397 . S
C585 H609 0.931 . S
C586 C585 1.386 . S
C586 C590 1.397 . S
C587 C585 1.397 . S
C587 C588 1.384 . S
C587 H610 0.930 . S
C588 C587 1.384 . S
C588 C589 1.377 . S
C588 C591 1.481 . S
C589 C588 1.377 . S
C589 C590 1.389 . S
C589 H611 0.929 . S
C590 C586 1.397 . S
C590 C589 1.389 . S
C590 H612 0.931 . S
C591 C588 1.481 . S
C591 C592 1.387 . S
C591 C596 1.390 . S
C592 C591 1.387 . S
C592 C593 1.401 . S
C592 H613 0.930 . S
C593 C592 1.401 . S
C593 C594 1.376 . S
C593 C602 1.511 . S
C594 C593 1.376 . S
C594 C595 1.392 . S
C594 H615 0.931 . S
C595 C594 1.392 . S
C595 C596 1.361 . S
C595 C597 1.500 . S
C596 C591 1.390 . S
C596 C595 1.361 . S
C596 H614 0.931 . S
C597 C595 1.500 . S
C597 C598 1.371 . S
C597 C599 1.365 . S
C598 C597 1.371 . S
C598 C608 1.386 . S
C598 H616 0.931 . S
C599 C597 1.365 . S
C599 C600 1.409 . S
C599 H617 0.929 . S
C600 C599 1.409 . S
C600 C601 1.380 . S
C600 H618 0.930 . S
C601 C600 1.380 . S
C601 C608 1.357 . S
C602 C593 1.511 . S
C602 C603 1.341 . S
C602 C604 1.371 . S
C603 C602 1.341 . S
C603 C607 1.394 . S
C603 H619 0.930 . S
C604 C602 1.371 . S
C604 C605 1.392 . S
C604 H620 0.931 . S
C605 C604 1.392 . S
C605 C606 1.331 . S
C605 H623 0.932 . S
C606 C605 1.331 . S
C606 C607 1.336 . S
C607 C603 1.394 . S
C607 C606 1.336 . S
C607 H622 0.929 . S
C608 C598 1.386 . S
C608 C601 1.357 . S
C608 H621 0.928 . S
H609 C585 0.931 . S
H610 C587 0.930 . S
H611 C589 0.929 . S
H612 C590 0.931 . S
H613 C592 0.930 . S
H614 C596 0.931 . S
H615 C594 0.931 . S
H616 C598 0.931 . S
H617 C599 0.929 . S
H618 C600 0.930 . S
H619 C603 0.930 . S
H620 C604 0.931 . S
H621 C608 0.928 . S
H622 C607 0.929 . S
H623 C605 0.932 . S
C624 C625 1.386 . S
C624 C626 1.397 . S
C624 H648 0.931 . S
C625 C624 1.386 . S
C625 C629 1.397 . S
C626 C624 1.397 . S
C626 C627 1.384 . S
C626 H649 0.930 . S
C627 C626 1.384 . S
C627 C628 1.377 . S
C627 C630 1.481 . S
C628 C627 1.377 . S
C628 C629 1.389 . S
C628 H650 0.929 . S
C629 C625 1.397 . S
C629 C628 1.389 . S
C629 H651 0.931 . S
C630 C627 1.481 . S
C630 C631 1.387 . S
C630 C635 1.390 . S
C631 C630 1.387 . S
C631 C632 1.401 . S
C631 H652 0.930 . S
C632 C631 1.401 . S
C632 C633 1.376 . S
C632 C641 1.511 . S
C633 C632 1.376 . S
C633 C634 1.392 . S
C633 H654 0.931 . S
C634 C633 1.392 . S
C634 C635 1.361 . S
C634 C636 1.500 . S
C635 C630 1.390 . S
C635 C634 1.361 . S
C635 H653 0.931 . S
C636 C634 1.500 . S
C636 C637 1.371 . S
C636 C638 1.365 . S
C637 C636 1.371 . S
C637 C647 1.386 . S
C637 H655 0.931 . S
C638 C636 1.365 . S
C638 C639 1.409 . S
C638 H656 0.929 . S
C639 C638 1.409 . S
C639 C640 1.380 . S
C639 H657 0.930 . S
C640 C639 1.380 . S
C640 C647 1.357 . S
C641 C632 1.511 . S
C641 C642 1.341 . S
C641 C643 1.371 . S
C642 C641 1.341 . S
C642 C646 1.394 . S
C642 H658 0.930 . S
C643 C641 1.371 . S
C643 C644 1.392 . S
C643 H659 0.931 . S
C644 C643 1.392 . S
C644 C645 1.331 . S
C644 H662 0.932 . S
C645 C644 1.331 . S
C645 C646 1.336 . S
C646 C642 1.394 . S
C646 C645 1.336 . S
C646 H661 0.929 . S
C647 C637 1.386 . S
C647 C640 1.357 . S
C647 H660 0.928 . S
H648 C624 0.931 . S
H649 C626 0.930 . S
H650 C628 0.929 . S
H651 C629 0.931 . S
H652 C631 0.930 . S
H653 C635 0.931 . S
H654 C633 0.931 . S
H655 C637 0.931 . S
H656 C638 0.929 . S
H657 C639 0.930 . S
H658 C642 0.930 . S
H659 C643 0.931 . S
H660 C647 0.928 . S
H661 C646 0.929 . S
H662 C644 0.932 . S
C663 C664 1.386 . S
C663 C665 1.397 . S
C663 H687 0.931 . S
C664 C663 1.386 . S
C664 C668 1.397 . S
C665 C663 1.397 . S
C665 C666 1.384 . S
C665 H688 0.930 . S
C666 C665 1.384 . S
C666 C667 1.377 . S
C666 C669 1.481 . S
C667 C666 1.377 . S
C667 C668 1.389 . S
C667 H689 0.929 . S
C668 C664 1.397 . S
C668 C667 1.389 . S
C668 H690 0.931 . S
C669 C666 1.481 . S
C669 C670 1.387 . S
C669 C674 1.390 . S
C670 C669 1.387 . S
C670 C671 1.401 . S
C670 H691 0.930 . S
C671 C670 1.401 . S
C671 C672 1.376 . S
C671 C680 1.511 . S
C672 C671 1.376 . S
C672 C673 1.392 . S
C672 H693 0.931 . S
C673 C672 1.392 . S
C673 C674 1.361 . S
C673 C675 1.500 . S
C674 C669 1.390 . S
C674 C673 1.361 . S
C674 H692 0.931 . S
C675 C673 1.500 . S
C675 C676 1.371 . S
C675 C677 1.365 . S
C676 C675 1.371 . S
C676 C686 1.386 . S
C676 H694 0.931 . S
C677 C675 1.365 . S
C677 C678 1.409 . S
C677 H695 0.929 . S
C678 C677 1.409 . S
C678 C679 1.380 . S
C678 H696 0.930 . S
C679 C678 1.380 . S
C679 C686 1.357 . S
C680 C671 1.511 . S
C680 C681 1.341 . S
C680 C682 1.371 . S
C681 C680 1.341 . S
C681 C685 1.394 . S
C681 H697 0.930 . S
C682 C680 1.371 . S
C682 C683 1.392 . S
C682 H698 0.931 . S
C683 C682 1.392 . S
C683 C684 1.331 . S
C683 H701 0.932 . S
C684 C683 1.331 . S
C684 C685 1.336 . S
C685 C681 1.394 . S
C685 C684 1.336 . S
C685 H700 0.929 . S
C686 C676 1.386 . S
C686 C679 1.357 . S
C686 H699 0.928 . S
H687 C663 0.931 . S
H688 C665 0.930 . S
H689 C667 0.929 . S
H690 C668 0.931 . S
H691 C670 0.930 . S
H692 C674 0.931 . S
H693 C672 0.931 . S
H694 C676 0.931 . S
H695 C677 0.929 . S
H696 C678 0.930 . S
H697 C681 0.930 . S
H698 C682 0.931 . S
H699 C686 0.928 . S
H700 C685 0.929 . S
H701 C683 0.932 . S
C702 C703 1.386 . S
C702 C704 1.397 . S
C702 H726 0.931 . S
C703 C702 1.386 . S
C703 C707 1.397 . S
C704 C702 1.397 . S
C704 C705 1.384 . S
C704 H727 0.930 . S
C705 C704 1.384 . S
C705 C706 1.377 . S
C705 C708 1.481 . S
C706 C705 1.377 . S
C706 C707 1.389 . S
C706 H728 0.929 . S
C707 C703 1.397 . S
C707 C706 1.389 . S
C707 H729 0.931 . S
C708 C705 1.481 . S
C708 C709 1.387 . S
C708 C713 1.390 . S
C709 C708 1.387 . S
C709 C710 1.401 . S
C709 H730 0.930 . S
C710 C709 1.401 . S
C710 C711 1.376 . S
C710 C719 1.511 . S
C711 C710 1.376 . S
C711 C712 1.392 . S
C711 H732 0.931 . S
C712 C711 1.392 . S
C712 C713 1.361 . S
C712 C714 1.500 . S
C713 C708 1.390 . S
C713 C712 1.361 . S
C713 H731 0.931 . S
C714 C712 1.500 . S
C714 C715 1.371 . S
C714 C716 1.365 . S
C715 C714 1.371 . S
C715 C725 1.386 . S
C715 H733 0.931 . S
C716 C714 1.365 . S
C716 C717 1.409 . S
C716 H734 0.929 . S
C717 C716 1.409 . S
C717 C718 1.380 . S
C717 H735 0.930 . S
C718 C717 1.380 . S
C718 C725 1.357 . S
C719 C710 1.511 . S
C719 C720 1.341 . S
C719 C721 1.371 . S
C720 C719 1.341 . S
C720 C724 1.394 . S
C720 H736 0.930 . S
C721 C719 1.371 . S
C721 C722 1.392 . S
C721 H737 0.931 . S
C722 C721 1.392 . S
C722 C723 1.331 . S
C722 H740 0.932 . S
C723 C722 1.331 . S
C723 C724 1.336 . S
C724 C720 1.394 . S
C724 C723 1.336 . S
C724 H739 0.929 . S
C725 C715 1.386 . S
C725 C718 1.357 . S
C725 H738 0.928 . S
H726 C702 0.931 . S
H727 C704 0.930 . S
H728 C706 0.929 . S
H729 C707 0.931 . S
H730 C709 0.930 . S
H731 C713 0.931 . S
H732 C711 0.931 . S
H733 C715 0.931 . S
H734 C716 0.929 . S
H735 C717 0.930 . S
H736 C720 0.930 . S
H737 C721 0.931 . S
H738 C725 0.928 . S
H739 C724 0.929 . S
H740 C722 0.932 . S
C741 C742 1.386 . S
C741 C743 1.397 . S
C741 H765 0.931 . S
C742 C741 1.386 . S
C742 C746 1.397 . S
C743 C741 1.397 . S
C743 C744 1.384 . S
C743 H766 0.930 . S
C744 C743 1.384 . S
C744 C745 1.377 . S
C744 C747 1.481 . S
C745 C744 1.377 . S
C745 C746 1.389 . S
C745 H767 0.929 . S
C746 C742 1.397 . S
C746 C745 1.389 . S
C746 H768 0.931 . S
C747 C744 1.481 . S
C747 C748 1.387 . S
C747 C752 1.390 . S
C748 C747 1.387 . S
C748 C749 1.401 . S
C748 H769 0.930 . S
C749 C748 1.401 . S
C749 C750 1.376 . S
C749 C758 1.511 . S
C750 C749 1.376 . S
C750 C751 1.392 . S
C750 H771 0.931 . S
C751 C750 1.392 . S
C751 C752 1.361 . S
C751 C753 1.500 . S
C752 C747 1.390 . S
C752 C751 1.361 . S
C752 H770 0.931 . S
C753 C751 1.500 . S
C753 C754 1.371 . S
C753 C755 1.365 . S
C754 C753 1.371 . S
C754 C764 1.386 . S
C754 H772 0.931 . S
C755 C753 1.365 . S
C755 C756 1.409 . S
C755 H773 0.929 . S
C756 C755 1.409 . S
C756 C757 1.380 . S
C756 H774 0.930 . S
C757 C756 1.380 . S
C757 C764 1.357 . S
C758 C749 1.511 . S
C758 C759 1.341 . S
C758 C760 1.371 . S
C759 C758 1.341 . S
C759 C763 1.394 . S
C759 H775 0.930 . S
C760 C758 1.371 . S
C760 C761 1.392 . S
C760 H776 0.931 . S
C761 C760 1.392 . S
C761 C762 1.331 . S
C761 H779 0.932 . S
C762 C761 1.331 . S
C762 C763 1.336 . S
C763 C759 1.394 . S
C763 C762 1.336 . S
C763 H778 0.929 . S
C764 C754 1.386 . S
C764 C757 1.357 . S
C764 H777 0.928 . S
H765 C741 0.931 . S
H766 C743 0.930 . S
H767 C745 0.929 . S
H768 C746 0.931 . S
H769 C748 0.930 . S
H770 C752 0.931 . S
H771 C750 0.931 . S
H772 C754 0.931 . S
H773 C755 0.929 . S
H774 C756 0.930 . S
H775 C759 0.930 . S
H776 C760 0.931 . S
H777 C764 0.928 . S
H778 C763 0.929 . S
H779 C761 0.932 . S
C780 C781 1.386 . S
C780 C782 1.397 . S
C780 H804 0.931 . S
C781 C780 1.386 . S
C781 C785 1.397 . S
C782 C780 1.397 . S
C782 C783 1.384 . S
C782 H805 0.930 . S
C783 C782 1.384 . S
C783 C784 1.377 . S
C783 C786 1.481 . S
C784 C783 1.377 . S
C784 C785 1.389 . S
C784 H806 0.929 . S
C785 C781 1.397 . S
C785 C784 1.389 . S
C785 H807 0.931 . S
C786 C783 1.481 . S
C786 C787 1.387 . S
C786 C791 1.390 . S
C787 C786 1.387 . S
C787 C788 1.401 . S
C787 H808 0.930 . S
C788 C787 1.401 . S
C788 C789 1.376 . S
C788 C797 1.511 . S
C789 C788 1.376 . S
C789 C790 1.392 . S
C789 H810 0.931 . S
C790 C789 1.392 . S
C790 C791 1.361 . S
C790 C792 1.500 . S
C791 C786 1.390 . S
C791 C790 1.361 . S
C791 H809 0.931 . S
C792 C790 1.500 . S
C792 C793 1.371 . S
C792 C794 1.365 . S
C793 C792 1.371 . S
C793 C803 1.386 . S
C793 H811 0.931 . S
C794 C792 1.365 . S
C794 C795 1.409 . S
C794 H812 0.929 . S
C795 C794 1.409 . S
C795 C796 1.380 . S
C795 H813 0.930 . S
C796 C795 1.380 . S
C796 C803 1.357 . S
C797 C788 1.511 . S
C797 C798 1.341 . S
C797 C799 1.371 . S
C798 C797 1.341 . S
C798 C802 1.394 . S
C798 H814 0.930 . S
C799 C797 1.371 . S
C799 C800 1.392 . S
C799 H815 0.931 . S
C800 C799 1.392 . S
C800 C801 1.331 . S
C800 H818 0.932 . S
C801 C800 1.331 . S
C801 C802 1.336 . S
C802 C798 1.394 . S
C802 C801 1.336 . S
C802 H817 0.929 . S
C803 C793 1.386 . S
C803 C796 1.357 . S
C803 H816 0.928 . S
H804 C780 0.931 . S
H805 C782 0.930 . S
H806 C784 0.929 . S
H807 C785 0.931 . S
H808 C787 0.930 . S
H809 C791 0.931 . S
H810 C789 0.931 . S
H811 C793 0.931 . S
H812 C794 0.929 . S
H813 C795 0.930 . S
H814 C798 0.930 . S
H815 C799 0.931 . S
H816 C803 0.928 . S
H817 C802 0.929 . S
H818 C800 0.932 . S
C819 C820 1.386 . S
C819 C821 1.397 . S
C819 H843 0.931 . S
C820 C819 1.386 . S
C820 C824 1.397 . S
C821 C819 1.397 . S
C821 C822 1.384 . S
C821 H844 0.930 . S
C822 C821 1.384 . S
C822 C823 1.377 . S
C822 C825 1.481 . S
C823 C822 1.377 . S
C823 C824 1.389 . S
C823 H845 0.929 . S
C824 C820 1.397 . S
C824 C823 1.389 . S
C824 H846 0.931 . S
C825 C822 1.481 . S
C825 C826 1.387 . S
C825 C830 1.390 . S
C826 C825 1.387 . S
C826 C827 1.401 . S
C826 H847 0.930 . S
C827 C826 1.401 . S
C827 C828 1.376 . S
C827 C836 1.511 . S
C828 C827 1.376 . S
C828 C829 1.392 . S
C828 H849 0.931 . S
C829 C828 1.392 . S
C829 C830 1.361 . S
C829 C831 1.500 . S
C830 C825 1.390 . S
C830 C829 1.361 . S
C830 H848 0.931 . S
C831 C829 1.500 . S
C831 C832 1.371 . S
C831 C833 1.365 . S
C832 C831 1.371 . S
C832 C842 1.386 . S
C832 H850 0.931 . S
C833 C831 1.365 . S
C833 C834 1.409 . S
C833 H851 0.929 . S
C834 C833 1.409 . S
C834 C835 1.380 . S
C834 H852 0.930 . S
C835 C834 1.380 . S
C835 C842 1.357 . S
C836 C827 1.511 . S
C836 C837 1.341 . S
C836 C838 1.371 . S
C837 C836 1.341 . S
C837 C841 1.394 . S
C837 H853 0.930 . S
C838 C836 1.371 . S
C838 C839 1.392 . S
C838 H854 0.931 . S
C839 C838 1.392 . S
C839 C840 1.331 . S
C839 H857 0.932 . S
C840 C839 1.331 . S
C840 C841 1.336 . S
C841 C837 1.394 . S
C841 C840 1.336 . S
C841 H856 0.929 . S
C842 C832 1.386 . S
C842 C835 1.357 . S
C842 H855 0.928 . S
H843 C819 0.931 . S
H844 C821 0.930 . S
H845 C823 0.929 . S
H846 C824 0.931 . S
H847 C826 0.930 . S
H848 C830 0.931 . S
H849 C828 0.931 . S
H850 C832 0.931 . S
H851 C833 0.929 . S
H852 C834 0.930 . S
H853 C837 0.930 . S
H854 C838 0.931 . S
H855 C842 0.928 . S
H856 C841 0.929 . S
H857 C839 0.932 . S
C858 C859 1.386 . S
C858 C860 1.397 . S
C858 H882 0.931 . S
C859 C858 1.386 . S
C859 C863 1.397 . S
C860 C858 1.397 . S
C860 C861 1.384 . S
C860 H883 0.930 . S
C861 C860 1.384 . S
C861 C862 1.377 . S
C861 C864 1.481 . S
C862 C861 1.377 . S
C862 C863 1.389 . S
C862 H884 0.929 . S
C863 C859 1.397 . S
C863 C862 1.389 . S
C863 H885 0.931 . S
C864 C861 1.481 . S
C864 C865 1.387 . S
C864 C869 1.390 . S
C865 C864 1.387 . S
C865 C866 1.401 . S
C865 H886 0.930 . S
C866 C865 1.401 . S
C866 C867 1.376 . S
C866 C875 1.511 . S
C867 C866 1.376 . S
C867 C868 1.392 . S
C867 H888 0.931 . S
C868 C867 1.392 . S
C868 C869 1.361 . S
C868 C870 1.500 . S
C869 C864 1.390 . S
C869 C868 1.361 . S
C869 H887 0.931 . S
C870 C868 1.500 . S
C870 C871 1.371 . S
C870 C872 1.365 . S
C871 C870 1.371 . S
C871 C881 1.386 . S
C871 H889 0.931 . S
C872 C870 1.365 . S
C872 C873 1.409 . S
C872 H890 0.929 . S
C873 C872 1.409 . S
C873 C874 1.380 . S
C873 H891 0.930 . S
C874 C873 1.380 . S
C874 C881 1.357 . S
C875 C866 1.511 . S
C875 C876 1.341 . S
C875 C877 1.371 . S
C876 C875 1.341 . S
C876 C880 1.394 . S
C876 H892 0.930 . S
C877 C875 1.371 . S
C877 C878 1.392 . S
C877 H893 0.931 . S
C878 C877 1.392 . S
C878 C879 1.331 . S
C878 H896 0.932 . S
C879 C878 1.331 . S
C879 C880 1.336 . S
C880 C876 1.394 . S
C880 C879 1.336 . S
C880 H895 0.929 . S
C881 C871 1.386 . S
C881 C874 1.357 . S
C881 H894 0.928 . S
H882 C858 0.931 . S
H883 C860 0.930 . S
H884 C862 0.929 . S
H885 C863 0.931 . S
H886 C865 0.930 . S
H887 C869 0.931 . S
H888 C867 0.931 . S
H889 C871 0.931 . S
H890 C872 0.929 . S
H891 C873 0.930 . S
H892 C876 0.930 . S
H893 C877 0.931 . S
H894 C881 0.928 . S
H895 C880 0.929 . S
H896 C878 0.932 . S
C897 C898 1.386 . S
C897 C899 1.397 . S
C897 H921 0.931 . S
C898 C897 1.386 . S
C898 C902 1.397 . S
C899 C897 1.397 . S
C899 C900 1.384 . S
C899 H922 0.930 . S
C900 C899 1.384 . S
C900 C901 1.377 . S
C900 C903 1.481 . S
C901 C900 1.377 . S
C901 C902 1.389 . S
C901 H923 0.929 . S
C902 C898 1.397 . S
C902 C901 1.389 . S
C902 H924 0.931 . S
C903 C900 1.481 . S
C903 C904 1.387 . S
C903 C908 1.390 . S
C904 C903 1.387 . S
C904 C905 1.401 . S
C904 H925 0.930 . S
C905 C904 1.401 . S
C905 C906 1.376 . S
C905 C914 1.511 . S
C906 C905 1.376 . S
C906 C907 1.392 . S
C906 H927 0.931 . S
C907 C906 1.392 . S
C907 C908 1.361 . S
C907 C909 1.500 . S
C908 C903 1.390 . S
C908 C907 1.361 . S
C908 H926 0.931 . S
C909 C907 1.500 . S
C909 C910 1.371 . S
C909 C911 1.365 . S
C910 C909 1.371 . S
C910 C920 1.386 . S
C910 H928 0.931 . S
C911 C909 1.365 . S
C911 C912 1.409 . S
C911 H929 0.929 . S
C912 C911 1.409 . S
C912 C913 1.380 . S
C912 H930 0.930 . S
C913 C912 1.380 . S
C913 C920 1.357 . S
C914 C905 1.511 . S
C914 C915 1.341 . S
C914 C916 1.371 . S
C915 C914 1.341 . S
C915 C919 1.394 . S
C915 H931 0.930 . S
C916 C914 1.371 . S
C916 C917 1.392 . S
C916 H932 0.931 . S
C917 C916 1.392 . S
C917 C918 1.331 . S
C917 H935 0.932 . S
C918 C917 1.331 . S
C918 C919 1.336 . S
C919 C915 1.394 . S
C919 C918 1.336 . S
C919 H934 0.929 . S
C920 C910 1.386 . S
C920 C913 1.357 . S
C920 H933 0.928 . S
H921 C897 0.931 . S
H922 C899 0.930 . S
H923 C901 0.929 . S
H924 C902 0.931 . S
H925 C904 0.930 . S
H926 C908 0.931 . S
H927 C906 0.931 . S
H928 C910 0.931 . S
H929 C911 0.929 . S
H930 C912 0.930 . S
H931 C915 0.930 . S
H932 C916 0.931 . S
H933 C920 0.928 . S
H934 C919 0.929 . S
H935 C917 0.932 . S
C936 O962 1.283 . S
C936 O980 1.283 . S
C937 O963 1.283 . S
C937 O978 1.283 . S
C938 O964 1.283 . S
C938 O981 1.283 . S
C939 O965 1.283 . S
C939 O979 1.283 . S
C940 O966 1.283 . S
C940 O975 1.283 . S
C941 O967 1.283 . S
C941 O977 1.283 . S
C942 O968 1.283 . S
C942 O974 1.283 . S
C943 O969 1.283 . S
C943 O976 1.283 . S
C944 O970 1.283 . S
C944 O985 1.283 . S
C945 O971 1.283 . S
C945 O983 1.283 . S
C946 O972 1.283 . S
C946 O984 1.283 . S
C947 O973 1.283 . S
C947 O982 1.283 . S
Eu948 O949 2.370 1_455 S
Eu948 O950 2.370 . S
Eu948 O953 2.370 1_455 S
Eu948 O954 2.370 . S
Eu948 O962 2.363 . S
Eu948 O963 2.363 . S
Eu948 O976 2.363 . S
Eu948 O977 2.363 1_455 S
O949 Eu948 2.370 1_655 S
O949 Eu951 2.370 1_565 S
O949 Eu956 2.370 1_665 S
O950 Eu948 2.370 . S
O950 Eu952 2.370 1_565 S
O950 Eu955 2.370 1_565 S
Eu951 O949 2.370 1_545 S
Eu951 O953 2.370 1_545 S
Eu951 O957 2.370 . S
Eu951 O958 2.370 . S
Eu951 O966 2.363 . S
Eu951 O967 2.363 1_545 S
Eu951 O982 2.363 . S
Eu951 O983 2.363 . S
Eu952 O950 2.370 1_545 S
Eu952 O954 2.370 1_545 S
Eu952 O959 2.370 . S
Eu952 O960 2.370 . S
Eu952 O968 2.363 . S
Eu952 O969 2.363 1_545 S
Eu952 O984 2.363 . S
Eu952 O985 2.363 . S
O953 Eu948 2.370 1_655 S
O953 Eu951 2.370 1_565 S
O953 Eu955 2.370 1_665 S
O954 Eu948 2.370 . S
O954 Eu952 2.370 1_565 S
O954 Eu956 2.370 1_565 S
Eu955 O950 2.370 1_545 S
Eu955 O953 2.370 1_445 S
Eu955 O957 2.370 1_455 S
Eu955 O960 2.370 . S
Eu955 O972 2.363 . S
Eu955 O973 2.363 1_455 S
Eu955 O980 2.363 1_545 S
Eu955 O981 2.363 . S
Eu956 O949 2.370 1_445 S
Eu956 O954 2.370 1_545 S
Eu956 O958 2.370 1_455 S
Eu956 O959 2.370 . S
Eu956 O970 2.363 . S
Eu956 O971 2.363 1_455 S
Eu956 O978 2.363 1_545 S
Eu956 O979 2.363 . S
O957 Eu951 2.370 . S
O957 Eu955 2.370 1_655 S
O957 Eu961 2.370 1_655 S
O958 Eu951 2.370 . S
O958 Eu956 2.370 1_655 S
O958 Eu961 2.370 1_655 S
O959 Eu952 2.370 . S
O959 Eu956 2.370 . S
O959 Eu961 2.370 . S
O960 Eu952 2.370 . S
O960 Eu955 2.370 . S
O960 Eu961 2.370 . S
Eu961 O957 2.370 1_455 S
Eu961 O958 2.370 1_455 S
Eu961 O959 2.370 . S
Eu961 O960 2.370 . S
Eu961 O964 2.363 . S
Eu961 O965 2.363 . S
Eu961 O974 2.363 . S
Eu961 O975 2.363 1_455 S
O962 C936 1.283 . S
O962 Eu948 2.363 . S
O963 C937 1.283 . S
O963 Eu948 2.363 . S
O964 C938 1.283 . S
O964 Eu961 2.363 . S
O965 C939 1.283 . S
O965 Eu961 2.363 . S
O966 C940 1.283 . S
O966 Eu951 2.363 . S
O967 C941 1.283 . S
O967 Eu951 2.363 1_565 S
O968 C942 1.283 . S
O968 Eu952 2.363 . S
O969 C943 1.283 . S
O969 Eu952 2.363 1_565 S
O970 C944 1.283 . S
O970 Eu956 2.363 . S
O971 C945 1.283 . S
O971 Eu956 2.363 1_655 S
O972 C946 1.283 . S
O972 Eu955 2.363 . S
O973 C947 1.283 . S
O973 Eu955 2.363 1_655 S
O974 C942 1.283 . S
O974 Eu961 2.363 . S
O975 C940 1.283 . S
O975 Eu961 2.363 1_655 S
O976 C943 1.283 . S
O976 Eu948 2.363 . S
O977 C941 1.283 . S
O977 Eu948 2.363 1_655 S
O978 C937 1.283 . S
O978 Eu956 2.363 1_565 S
O979 C939 1.283 . S
O979 Eu956 2.363 . S
O980 C936 1.283 . S
O980 Eu955 2.363 1_565 S
O981 C938 1.283 . S
O981 Eu955 2.363 . S
O982 C947 1.283 . S
O982 Eu951 2.363 . S
O983 C945 1.283 . S
O983 Eu951 2.363 . S
O984 C946 1.283 . S
O984 Eu952 2.363 . S
O985 C944 1.283 . S
O985 Eu952 2.363 . S
C986 O1012 1.283 . S
C986 O1030 1.283 . S
C987 O1013 1.283 . S
C987 O1028 1.283 . S
C988 O1014 1.283 . S
C988 O1031 1.283 . S
C989 O1015 1.283 . S
C989 O1029 1.283 . S
C990 O1016 1.283 . S
C990 O1025 1.283 . S
C991 O1017 1.283 . S
C991 O1027 1.283 . S
C992 O1018 1.283 . S
C992 O1024 1.283 . S
C993 O1019 1.283 . S
C993 O1026 1.283 . S
C994 O1020 1.283 . S
C994 O1035 1.283 . S
C995 O1021 1.283 . S
C995 O1033 1.283 . S
C996 O1022 1.283 . S
C996 O1034 1.283 . S
C997 O1023 1.283 . S
C997 O1032 1.283 . S
Eu998 O999 2.371 . S
Eu998 O1000 2.369 1_545 S
Eu998 O1003 2.369 1_545 S
Eu998 O1004 2.371 . S
Eu998 O1012 2.362 1_545 S
Eu998 O1013 2.364 . S
Eu998 O1026 2.363 . S
Eu998 O1027 2.363 . S
O999 Eu998 2.371 . S
O999 Eu1001 2.370 . S
O999 Eu1006 2.369 . S
O1000 Eu998 2.369 1_565 S
O1000 Eu1002 2.370 1_565 S
O1000 Eu1005 2.371 . S
Eu1001 O999 2.370 . S
Eu1001 O1003 2.370 1_545 S
Eu1001 O1007 2.370 1_544 S
Eu1001 O1008 2.370 1_554 S
Eu1001 O1016 2.363 1_554 S
Eu1001 O1017 2.363 . S
Eu1001 O1032 2.363 1_545 S
Eu1001 O1033 2.363 . S
Eu1002 O1000 2.370 1_545 S
Eu1002 O1004 2.370 . S
Eu1002 O1009 2.370 1_554 S
Eu1002 O1010 2.370 1_544 S
Eu1002 O1018 2.363 1_554 S
Eu1002 O1019 2.363 . S
Eu1002 O1034 2.363 1_545 S
Eu1002 O1035 2.363 . S
O1003 Eu998 2.369 1_565 S
O1003 Eu1001 2.370 1_565 S
O1003 Eu1005 2.371 . S
O1004 Eu998 2.371 . S
O1004 Eu1002 2.370 . S
O1004 Eu1006 2.369 . S
Eu1005 O1000 2.371 . S
Eu1005 O1003 2.371 . S
Eu1005 O1007 2.369 1_554 S
Eu1005 O1010 2.369 1_554 S
Eu1005 O1022 2.363 . S
Eu1005 O1023 2.363 . S
Eu1005 O1030 2.364 . S
Eu1005 O1031 2.362 1_554 S
Eu1006 O999 2.369 . S
Eu1006 O1004 2.369 . S
Eu1006 O1008 2.371 1_554 S
Eu1006 O1009 2.371 1_554 S
Eu1006 O1020 2.363 . S
Eu1006 O1021 2.363 . S
Eu1006 O1028 2.362 . S
Eu1006 O1029 2.364 1_554 S
O1007 Eu1001 2.370 1_566 S
O1007 Eu1005 2.369 1_556 S
O1007 Eu1011 2.371 1_565 S
O1008 Eu1001 2.370 1_556 S
O1008 Eu1006 2.371 1_556 S
O1008 Eu1011 2.369 . S
O1009 Eu1002 2.370 1_556 S
O1009 Eu1006 2.371 1_556 S
O1009 Eu1011 2.369 . S
O1010 Eu1002 2.370 1_566 S
O1010 Eu1005 2.369 1_556 S
O1010 Eu1011 2.371 1_565 S
Eu1011 O1007 2.371 1_545 S
Eu1011 O1008 2.369 . S
Eu1011 O1009 2.369 . S
Eu1011 O1010 2.371 1_545 S
Eu1011 O1014 2.364 1_545 S
Eu1011 O1015 2.362 . S
Eu1011 O1024 2.363 . S
Eu1011 O1025 2.363 . S
O1012 C986 1.283 . S
O1012 Eu998 2.362 1_565 S
O1013 C987 1.283 . S
O1013 Eu998 2.364 . S
O1014 C988 1.283 . S
O1014 Eu1011 2.364 1_565 S
O1015 C989 1.283 . S
O1015 Eu1011 2.362 . S
O1016 C990 1.283 . S
O1016 Eu1001 2.363 1_556 S
O1017 C991 1.283 . S
O1017 Eu1001 2.363 . S
O1018 C992 1.283 . S
O1018 Eu1002 2.363 1_556 S
O1019 C993 1.283 . S
O1019 Eu1002 2.363 . S
O1020 C994 1.283 . S
O1020 Eu1006 2.363 . S
O1021 C995 1.283 . S
O1021 Eu1006 2.363 . S
O1022 C996 1.283 . S
O1022 Eu1005 2.363 . S
O1023 C997 1.283 . S
O1023 Eu1005 2.363 . S
O1024 C992 1.283 . S
O1024 Eu1011 2.363 . S
O1025 C990 1.283 . S
O1025 Eu1011 2.363 . S
O1026 C993 1.283 . S
O1026 Eu998 2.363 . S
O1027 C991 1.283 . S
O1027 Eu998 2.363 . S
O1028 C987 1.283 . S
O1028 Eu1006 2.362 . S
O1029 C989 1.283 . S
O1029 Eu1006 2.364 1_556 S
O1030 C986 1.283 . S
O1030 Eu1005 2.364 . S
O1031 C988 1.283 . S
O1031 Eu1005 2.362 1_556 S
O1032 C997 1.283 . S
O1032 Eu1001 2.363 1_565 S
O1033 C995 1.283 . S
O1033 Eu1001 2.363 . S
O1034 C996 1.283 . S
O1034 Eu1002 2.363 1_565 S
O1035 C994 1.283 . S
O1035 Eu1002 2.363 . S
C1036 O1062 1.283 . S
C1036 O1080 1.283 . S
C1037 O1063 1.283 . S
C1037 O1078 1.283 . S
C1038 O1064 1.283 . S
C1038 O1081 1.283 . S
C1039 O1065 1.283 . S
C1039 O1079 1.283 . S
C1040 O1066 1.283 . S
C1040 O1075 1.283 . S
C1041 O1067 1.283 . S
C1041 O1077 1.283 . S
C1042 O1068 1.283 . S
C1042 O1074 1.283 . S
C1043 O1069 1.283 . S
C1043 O1076 1.283 . S
C1044 O1070 1.283 . S
C1044 O1085 1.283 . S
C1045 O1071 1.283 . S
C1045 O1083 1.283 . S
C1046 O1072 1.283 . S
C1046 O1084 1.283 . S
C1047 O1073 1.283 . S
C1047 O1082 1.283 . S
Eu1048 O1049 2.370 1_454 S
Eu1048 O1050 2.370 . S
Eu1048 O1053 2.370 1_455 S
Eu1048 O1054 2.370 1_554 S
Eu1048 O1062 2.363 . S
Eu1048 O1063 2.363 1_554 S
Eu1048 O1076 2.363 . S
Eu1048 O1077 2.363 1_455 S
O1049 Eu1048 2.370 1_656 S
O1049 Eu1051 2.370 1_556 S
O1049 Eu1056 2.370 1_655 S
O1050 Eu1048 2.370 . S
O1050 Eu1052 2.370 . S
O1050 Eu1055 2.370 . S
Eu1051 O1049 2.370 1_554 S
Eu1051 O1053 2.370 . S
Eu1051 O1057 2.370 . S
Eu1051 O1058 2.370 1_554 S
Eu1051 O1066 2.363 . S
Eu1051 O1067 2.363 . S
Eu1051 O1082 2.363 . S
Eu1051 O1083 2.363 1_554 S
Eu1052 O1050 2.370 . S
Eu1052 O1054 2.370 1_554 S
Eu1052 O1059 2.370 1_554 S
Eu1052 O1060 2.370 . S
Eu1052 O1068 2.363 . S
Eu1052 O1069 2.363 . S
Eu1052 O1084 2.363 . S
Eu1052 O1085 2.363 1_554 S
O1053 Eu1048 2.370 1_655 S
O1053 Eu1051 2.370 . S
O1053 Eu1055 2.370 1_655 S
O1054 Eu1048 2.370 1_556 S
O1054 Eu1052 2.370 1_556 S
O1054 Eu1056 2.370 . S
Eu1055 O1050 2.370 . S
Eu1055 O1053 2.370 1_455 S
Eu1055 O1057 2.370 1_455 S
Eu1055 O1060 2.370 . S
Eu1055 O1072 2.363 . S
Eu1055 O1073 2.363 1_455 S
Eu1055 O1080 2.363 . S
Eu1055 O1081 2.363 . S
Eu1056 O1049 2.370 1_455 S
Eu1056 O1054 2.370 . S
Eu1056 O1058 2.370 1_455 S
Eu1056 O1059 2.370 . S
Eu1056 O1070 2.363 . S
Eu1056 O1071 2.363 1_455 S
Eu1056 O1078 2.363 . S
Eu1056 O1079 2.363 . S
O1057 Eu1051 2.370 . S
O1057 Eu1055 2.370 1_655 S
O1057 Eu1061 2.370 1_655 S
O1058 Eu1051 2.370 1_556 S
O1058 Eu1056 2.370 1_655 S
O1058 Eu1061 2.370 1_656 S
O1059 Eu1052 2.370 1_556 S
O1059 Eu1056 2.370 . S
O1059 Eu1061 2.370 1_556 S
O1060 Eu1052 2.370 . S
O1060 Eu1055 2.370 . S
O1060 Eu1061 2.370 . S
Eu1061 O1057 2.370 1_455 S
Eu1061 O1058 2.370 1_454 S
Eu1061 O1059 2.370 1_554 S
Eu1061 O1060 2.370 . S
Eu1061 O1064 2.363 . S
Eu1061 O1065 2.363 1_554 S
Eu1061 O1074 2.363 . S
Eu1061 O1075 2.363 1_455 S
O1062 C1036 1.283 . S
O1062 Eu1048 2.363 . S
O1063 C1037 1.283 . S
O1063 Eu1048 2.363 1_556 S
O1064 C1038 1.283 . S
O1064 Eu1061 2.363 . S
O1065 C1039 1.283 . S
O1065 Eu1061 2.363 1_556 S
O1066 C1040 1.283 . S
O1066 Eu1051 2.363 . S
O1067 C1041 1.283 . S
O1067 Eu1051 2.363 . S
O1068 C1042 1.283 . S
O1068 Eu1052 2.363 . S
O1069 C1043 1.283 . S
O1069 Eu1052 2.363 . S
O1070 C1044 1.283 . S
O1070 Eu1056 2.363 . S
O1071 C1045 1.283 . S
O1071 Eu1056 2.363 1_655 S
O1072 C1046 1.283 . S
O1072 Eu1055 2.363 . S
O1073 C1047 1.283 . S
O1073 Eu1055 2.363 1_655 S
O1074 C1042 1.283 . S
O1074 Eu1061 2.363 . S
O1075 C1040 1.283 . S
O1075 Eu1061 2.363 1_655 S
O1076 C1043 1.283 . S
O1076 Eu1048 2.363 . S
O1077 C1041 1.283 . S
O1077 Eu1048 2.363 1_655 S
O1078 C1037 1.283 . S
O1078 Eu1056 2.363 . S
O1079 C1039 1.283 . S
O1079 Eu1056 2.363 . S
O1080 C1036 1.283 . S
O1080 Eu1055 2.363 . S
O1081 C1038 1.283 . S
O1081 Eu1055 2.363 . S
O1082 C1047 1.283 . S
O1082 Eu1051 2.363 . S
O1083 C1045 1.283 . S
O1083 Eu1051 2.363 1_556 S
O1084 C1046 1.283 . S
O1084 Eu1052 2.363 . S
O1085 C1044 1.283 . S
O1085 Eu1052 2.363 1_556 S
C1086 O1112 1.283 . S
C1086 O1130 1.283 . S
C1087 O1113 1.283 . S
C1087 O1128 1.283 . S
C1088 O1114 1.283 . S
C1088 O1131 1.283 . S
C1089 O1115 1.283 . S
C1089 O1129 1.283 . S
C1090 O1116 1.283 . S
C1090 O1125 1.283 . S
C1091 O1117 1.283 . S
C1091 O1127 1.283 . S
C1092 O1118 1.283 . S
C1092 O1124 1.283 . S
C1093 O1119 1.283 . S
C1093 O1126 1.283 . S
C1094 O1120 1.283 . S
C1094 O1135 1.283 . S
C1095 O1121 1.283 . S
C1095 O1133 1.283 . S
C1096 O1122 1.283 . S
C1096 O1134 1.283 . S
C1097 O1123 1.283 . S
C1097 O1132 1.283 . S
Eu1098 O1099 2.370 . S
Eu1098 O1100 2.370 . S
Eu1098 O1103 2.370 . S
Eu1098 O1104 2.370 . S
Eu1098 O1112 2.363 . S
Eu1098 O1113 2.363 . S
Eu1098 O1126 2.363 . S
Eu1098 O1127 2.363 . S
O1099 Eu1098 2.370 . S
O1099 Eu1101 2.370 . S
O1099 Eu1106 2.370 . S
O1100 Eu1098 2.370 . S
O1100 Eu1102 2.370 . S
O1100 Eu1105 2.370 . S
Eu1101 O1099 2.370 . S
Eu1101 O1103 2.370 . S
Eu1101 O1107 2.370 1_554 S
Eu1101 O1108 2.370 1_554 S
Eu1101 O1116 2.363 1_554 S
Eu1101 O1117 2.363 . S
Eu1101 O1132 2.363 . S
Eu1101 O1133 2.363 . S
Eu1102 O1100 2.370 . S
Eu1102 O1104 2.370 . S
Eu1102 O1109 2.370 1_554 S
Eu1102 O1110 2.370 1_554 S
Eu1102 O1118 2.363 1_554 S
Eu1102 O1119 2.363 . S
Eu1102 O1134 2.363 . S
Eu1102 O1135 2.363 . S
O1103 Eu1098 2.370 . S
O1103 Eu1101 2.370 . S
O1103 Eu1105 2.370 . S
O1104 Eu1098 2.370 . S
O1104 Eu1102 2.370 . S
O1104 Eu1106 2.370 . S
Eu1105 O1100 2.370 . S
Eu1105 O1103 2.370 . S
Eu1105 O1107 2.370 1_554 S
Eu1105 O1110 2.370 1_554 S
Eu1105 O1122 2.363 . S
Eu1105 O1123 2.363 . S
Eu1105 O1130 2.363 . S
Eu1105 O1131 2.363 1_554 S
Eu1106 O1099 2.370 . S
Eu1106 O1104 2.370 . S
Eu1106 O1108 2.370 1_554 S
Eu1106 O1109 2.370 1_554 S
Eu1106 O1120 2.363 . S
Eu1106 O1121 2.363 . S
Eu1106 O1128 2.363 . S
Eu1106 O1129 2.363 1_554 S
O1107 Eu1101 2.370 1_556 S
O1107 Eu1105 2.370 1_556 S
O1107 Eu1111 2.370 . S
O1108 Eu1101 2.370 1_556 S
O1108 Eu1106 2.370 1_556 S
O1108 Eu1111 2.370 . S
O1109 Eu1102 2.370 1_556 S
O1109 Eu1106 2.370 1_556 S
O1109 Eu1111 2.370 . S
O1110 Eu1102 2.370 1_556 S
O1110 Eu1105 2.370 1_556 S
O1110 Eu1111 2.370 . S
Eu1111 O1107 2.370 . S
Eu1111 O1108 2.370 . S
Eu1111 O1109 2.370 . S
Eu1111 O1110 2.370 . S
Eu1111 O1114 2.363 . S
Eu1111 O1115 2.363 . S
Eu1111 O1124 2.363 . S
Eu1111 O1125 2.363 . S
O1112 C1086 1.283 . S
O1112 Eu1098 2.363 . S
O1113 C1087 1.283 . S
O1113 Eu1098 2.363 . S
O1114 C1088 1.283 . S
O1114 Eu1111 2.363 . S
O1115 C1089 1.283 . S
O1115 Eu1111 2.363 . S
O1116 C1090 1.283 . S
O1116 Eu1101 2.363 1_556 S
O1117 C1091 1.283 . S
O1117 Eu1101 2.363 . S
O1118 C1092 1.283 . S
O1118 Eu1102 2.363 1_556 S
O1119 C1093 1.283 . S
O1119 Eu1102 2.363 . S
O1120 C1094 1.283 . S
O1120 Eu1106 2.363 . S
O1121 C1095 1.283 . S
O1121 Eu1106 2.363 . S
O1122 C1096 1.283 . S
O1122 Eu1105 2.363 . S
O1123 C1097 1.283 . S
O1123 Eu1105 2.363 . S
O1124 C1092 1.283 . S
O1124 Eu1111 2.363 . S
O1125 C1090 1.283 . S
O1125 Eu1111 2.363 . S
O1126 C1093 1.283 . S
O1126 Eu1098 2.363 . S
O1127 C1091 1.283 . S
O1127 Eu1098 2.363 . S
O1128 C1087 1.283 . S
O1128 Eu1106 2.363 . S
O1129 C1089 1.283 . S
O1129 Eu1106 2.363 1_556 S
O1130 C1086 1.283 . S
O1130 Eu1105 2.363 . S
O1131 C1088 1.283 . S
O1131 Eu1105 2.363 1_556 S
O1132 C1097 1.283 . S
O1132 Eu1101 2.363 . S
O1133 C1095 1.283 . S
O1133 Eu1101 2.363 . S
O1134 C1096 1.283 . S
O1134 Eu1102 2.363 . S
O1135 C1094 1.283 . S
O1135 Eu1102 2.363 . S
C1136 O1162 1.283 . S
C1136 O1180 1.283 . S
C1137 O1163 1.283 . S
C1137 O1178 1.283 . S
C1138 O1164 1.283 . S
C1138 O1181 1.283 . S
C1139 O1165 1.283 . S
C1139 O1179 1.283 . S
C1140 O1166 1.283 . S
C1140 O1175 1.283 . S
C1141 O1167 1.283 . S
C1141 O1177 1.283 . S
C1142 O1168 1.283 . S
C1142 O1174 1.283 . S
C1143 O1169 1.283 . S
C1143 O1176 1.283 . S
C1144 O1170 1.283 . S
C1144 O1185 1.283 . S
C1145 O1171 1.283 . S
C1145 O1183 1.283 . S
C1146 O1172 1.283 . S
C1146 O1184 1.283 . S
C1147 O1173 1.283 . S
C1147 O1182 1.283 . S
Eu1148 O1149 2.370 1_455 S
Eu1148 O1150 2.370 . S
Eu1148 O1153 2.370 1_455 S
Eu1148 O1154 2.370 . S
Eu1148 O1162 2.363 . S
Eu1148 O1163 2.363 . S
Eu1148 O1176 2.363 . S
Eu1148 O1177 2.363 1_455 S
O1149 Eu1148 2.370 1_655 S
O1149 Eu1151 2.370 . S
O1149 Eu1156 2.370 1_655 S
O1150 Eu1148 2.370 . S
O1150 Eu1152 2.370 . S
O1150 Eu1155 2.370 . S
Eu1151 O1149 2.370 . S
Eu1151 O1153 2.370 . S
Eu1151 O1157 2.370 . S
Eu1151 O1158 2.370 . S
Eu1151 O1166 2.363 . S
Eu1151 O1167 2.363 . S
Eu1151 O1182 2.363 . S
Eu1151 O1183 2.363 . S
Eu1152 O1150 2.370 . S
Eu1152 O1154 2.370 . S
Eu1152 O1159 2.370 . S
Eu1152 O1160 2.370 . S
Eu1152 O1168 2.363 . S
Eu1152 O1169 2.363 . S
Eu1152 O1184 2.363 . S
Eu1152 O1185 2.363 . S
O1153 Eu1148 2.370 1_655 S
O1153 Eu1151 2.370 . S
O1153 Eu1155 2.370 1_655 S
O1154 Eu1148 2.370 . S
O1154 Eu1152 2.370 . S
O1154 Eu1156 2.370 . S
Eu1155 O1150 2.370 . S
Eu1155 O1153 2.370 1_455 S
Eu1155 O1157 2.370 1_455 S
Eu1155 O1160 2.370 . S
Eu1155 O1172 2.363 . S
Eu1155 O1173 2.363 1_455 S
Eu1155 O1180 2.363 . S
Eu1155 O1181 2.363 . S
Eu1156 O1149 2.370 1_455 S
Eu1156 O1154 2.370 . S
Eu1156 O1158 2.370 1_455 S
Eu1156 O1159 2.370 . S
Eu1156 O1170 2.363 . S
Eu1156 O1171 2.363 1_455 S
Eu1156 O1178 2.363 . S
Eu1156 O1179 2.363 . S
O1157 Eu1151 2.370 . S
O1157 Eu1155 2.370 1_655 S
O1157 Eu1161 2.370 1_655 S
O1158 Eu1151 2.370 . S
O1158 Eu1156 2.370 1_655 S
O1158 Eu1161 2.370 1_655 S
O1159 Eu1152 2.370 . S
O1159 Eu1156 2.370 . S
O1159 Eu1161 2.370 . S
O1160 Eu1152 2.370 . S
O1160 Eu1155 2.370 . S
O1160 Eu1161 2.370 . S
Eu1161 O1157 2.370 1_455 S
Eu1161 O1158 2.370 1_455 S
Eu1161 O1159 2.370 . S
Eu1161 O1160 2.370 . S
Eu1161 O1164 2.363 . S
Eu1161 O1165 2.363 . S
Eu1161 O1174 2.363 . S
Eu1161 O1175 2.363 1_455 S
O1162 C1136 1.283 . S
O1162 Eu1148 2.363 . S
O1163 C1137 1.283 . S
O1163 Eu1148 2.363 . S
O1164 C1138 1.283 . S
O1164 Eu1161 2.363 . S
O1165 C1139 1.283 . S
O1165 Eu1161 2.363 . S
O1166 C1140 1.283 . S
O1166 Eu1151 2.363 . S
O1167 C1141 1.283 . S
O1167 Eu1151 2.363 . S
O1168 C1142 1.283 . S
O1168 Eu1152 2.363 . S
O1169 C1143 1.283 . S
O1169 Eu1152 2.363 . S
O1170 C1144 1.283 . S
O1170 Eu1156 2.363 . S
O1171 C1145 1.283 . S
O1171 Eu1156 2.363 1_655 S
O1172 C1146 1.283 . S
O1172 Eu1155 2.363 . S
O1173 C1147 1.283 . S
O1173 Eu1155 2.363 1_655 S
O1174 C1142 1.283 . S
O1174 Eu1161 2.363 . S
O1175 C1140 1.283 . S
O1175 Eu1161 2.363 1_655 S
O1176 C1143 1.283 . S
O1176 Eu1148 2.363 . S
O1177 C1141 1.283 . S
O1177 Eu1148 2.363 1_655 S
O1178 C1137 1.283 . S
O1178 Eu1156 2.363 . S
O1179 C1139 1.283 . S
O1179 Eu1156 2.363 . S
O1180 C1136 1.283 . S
O1180 Eu1155 2.363 . S
O1181 C1138 1.283 . S
O1181 Eu1155 2.363 . S
O1182 C1147 1.283 . S
O1182 Eu1151 2.363 . S
O1183 C1145 1.283 . S
O1183 Eu1151 2.363 . S
O1184 C1146 1.283 . S
O1184 Eu1152 2.363 . S
O1185 C1144 1.283 . S
O1185 Eu1152 2.363 . S
C1186 O1212 1.283 . S
C1186 O1230 1.283 . S
C1187 O1213 1.283 . S
C1187 O1228 1.283 . S
C1188 O1214 1.283 . S
C1188 O1231 1.283 . S
C1189 O1215 1.283 . S
C1189 O1229 1.283 . S
C1190 O1216 1.283 . S
C1190 O1225 1.283 . S
C1191 O1217 1.283 . S
C1191 O1227 1.283 . S
C1192 O1218 1.283 . S
C1192 O1224 1.283 . S
C1193 O1219 1.283 . S
C1193 O1226 1.283 . S
C1194 O1220 1.283 . S
C1194 O1235 1.283 . S
C1195 O1221 1.283 . S
C1195 O1233 1.283 . S
C1196 O1222 1.283 . S
C1196 O1234 1.283 . S
C1197 O1223 1.283 . S
C1197 O1232 1.283 . S
Eu1198 O1199 2.370 . S
Eu1198 O1200 2.370 . S
Eu1198 O1203 2.370 . S
Eu1198 O1204 2.370 . S
Eu1198 O1212 2.363 . S
Eu1198 O1213 2.363 . S
Eu1198 O1226 2.363 . S
Eu1198 O1227 2.363 . S
O1199 Eu1198 2.370 . S
O1199 Eu1201 2.370 1_565 S
O1199 Eu1206 2.370 1_565 S
O1200 Eu1198 2.370 . S
O1200 Eu1202 2.370 1_565 S
O1200 Eu1205 2.370 1_565 S
Eu1201 O1199 2.370 1_545 S
Eu1201 O1203 2.370 1_545 S
Eu1201 O1207 2.370 . S
Eu1201 O1208 2.370 . S
Eu1201 O1216 2.363 . S
Eu1201 O1217 2.363 1_545 S
Eu1201 O1232 2.363 . S
Eu1201 O1233 2.363 . S
Eu1202 O1200 2.370 1_545 S
Eu1202 O1204 2.370 1_545 S
Eu1202 O1209 2.370 . S
Eu1202 O1210 2.370 . S
Eu1202 O1218 2.363 . S
Eu1202 O1219 2.363 1_545 S
Eu1202 O1234 2.363 . S
Eu1202 O1235 2.363 . S
O1203 Eu1198 2.370 . S
O1203 Eu1201 2.370 1_565 S
O1203 Eu1205 2.370 1_565 S
O1204 Eu1198 2.370 . S
O1204 Eu1202 2.370 1_565 S
O1204 Eu1206 2.370 1_565 S
Eu1205 O1200 2.370 1_545 S
Eu1205 O1203 2.370 1_545 S
Eu1205 O1207 2.370 . S
Eu1205 O1210 2.370 . S
Eu1205 O1222 2.363 . S
Eu1205 O1223 2.363 . S
Eu1205 O1230 2.363 1_545 S
Eu1205 O1231 2.363 . S
Eu1206 O1199 2.370 1_545 S
Eu1206 O1204 2.370 1_545 S
Eu1206 O1208 2.370 . S
Eu1206 O1209 2.370 . S
Eu1206 O1220 2.363 . S
Eu1206 O1221 2.363 . S
Eu1206 O1228 2.363 1_545 S
Eu1206 O1229 2.363 . S
O1207 Eu1201 2.370 . S
O1207 Eu1205 2.370 . S
O1207 Eu1211 2.370 . S
O1208 Eu1201 2.370 . S
O1208 Eu1206 2.370 . S
O1208 Eu1211 2.370 . S
O1209 Eu1202 2.370 . S
O1209 Eu1206 2.370 . S
O1209 Eu1211 2.370 . S
O1210 Eu1202 2.370 . S
O1210 Eu1205 2.370 . S
O1210 Eu1211 2.370 . S
Eu1211 O1207 2.370 . S
Eu1211 O1208 2.370 . S
Eu1211 O1209 2.370 . S
Eu1211 O1210 2.370 . S
Eu1211 O1214 2.363 . S
Eu1211 O1215 2.363 . S
Eu1211 O1224 2.363 . S
Eu1211 O1225 2.363 . S
O1212 C1186 1.283 . S
O1212 Eu1198 2.363 . S
O1213 C1187 1.283 . S
O1213 Eu1198 2.363 . S
O1214 C1188 1.283 . S
O1214 Eu1211 2.363 . S
O1215 C1189 1.283 . S
O1215 Eu1211 2.363 . S
O1216 C1190 1.283 . S
O1216 Eu1201 2.363 . S
O1217 C1191 1.283 . S
O1217 Eu1201 2.363 1_565 S
O1218 C1192 1.283 . S
O1218 Eu1202 2.363 . S
O1219 C1193 1.283 . S
O1219 Eu1202 2.363 1_565 S
O1220 C1194 1.283 . S
O1220 Eu1206 2.363 . S
O1221 C1195 1.283 . S
O1221 Eu1206 2.363 . S
O1222 C1196 1.283 . S
O1222 Eu1205 2.363 . S
O1223 C1197 1.283 . S
O1223 Eu1205 2.363 . S
O1224 C1192 1.283 . S
O1224 Eu1211 2.363 . S
O1225 C1190 1.283 . S
O1225 Eu1211 2.363 . S
O1226 C1193 1.283 . S
O1226 Eu1198 2.363 . S
O1227 C1191 1.283 . S
O1227 Eu1198 2.363 . S
O1228 C1187 1.283 . S
O1228 Eu1206 2.363 1_565 S
O1229 C1189 1.283 . S
O1229 Eu1206 2.363 . S
O1230 C1186 1.283 . S
O1230 Eu1205 2.363 1_565 S
O1231 C1188 1.283 . S
O1231 Eu1205 2.363 . S
O1232 C1197 1.283 . S
O1232 Eu1201 2.363 . S
O1233 C1195 1.283 . S
O1233 Eu1201 2.363 . S
O1234 C1196 1.283 . S
O1234 Eu1202 2.363 . S
O1235 C1194 1.283 . S
O1235 Eu1202 2.363 . S
H1236 C1244 0.929 . S
H1237 C1246 0.930 . S
H1238 C1248 0.930 . S
H1239 C1251 0.929 . S
H1240 C1254 0.930 . S
H1241 C1256 0.960 . S
H1242 C1256 0.960 . S
H1243 C1256 0.960 . S
C1244 H1236 0.929 . S
C1244 C1245 1.377 . S
C1244 C1246 1.384 . S
C1245 C1244 1.377 . S
C1245 C1251 1.390 . S
C1246 H1237 0.930 . S
C1246 C1244 1.384 . S
C1246 C1247 1.372 . S
C1247 C1246 1.372 . S
C1247 C1248 1.400 . S
C1247 C1252 1.490 . S
C1248 H1238 0.930 . S
C1248 C1247 1.400 . S
C1248 C1251 1.386 . S
H1249 C1265 0.930 . S
H1250 C1266 0.931 . S
C1251 H1239 0.929 . S
C1251 C1245 1.390 . S
C1251 C1248 1.386 . S
C1252 C1247 1.490 . S
C1252 C1254 1.395 . S
C1252 C1255 1.403 . S
H1253 C1259 0.930 . S
C1254 H1240 0.930 . S
C1254 C1252 1.395 . S
C1254 C1257 1.403 . S
C1255 C1252 1.403 . S
C1255 C1256 1.524 . S
C1255 C1259 1.400 . S
C1256 H1241 0.960 . S
C1256 H1242 0.960 . S
C1256 H1243 0.960 . S
C1256 C1255 1.524 . S
C1257 C1254 1.403 . S
C1257 C1258 1.392 . S
C1257 C1261 1.495 . S
C1258 C1257 1.392 . S
C1258 C1259 1.385 . S
C1258 C1260 1.478 . S
C1259 H1253 0.930 . S
C1259 C1255 1.400 . S
C1259 C1258 1.385 . S
C1260 C1258 1.478 . S
C1260 C1262 1.381 . S
C1260 C1266 1.383 . S
C1261 C1257 1.495 . S
C1261 H1267 0.959 . S
C1261 H1268 0.961 . S
C1261 H1269 0.960 . S
C1262 C1260 1.381 . S
C1262 C1263 1.394 . S
C1262 H1270 0.930 . S
C1263 C1262 1.394 . S
C1263 C1264 1.383 . S
C1263 H1271 0.929 . S
C1264 C1263 1.383 . S
C1264 C1265 1.377 . S
C1265 H1249 0.930 . S
C1265 C1264 1.377 . S
C1265 C1266 1.379 . S
C1266 H1250 0.931 . S
C1266 C1260 1.383 . S
C1266 C1265 1.379 . S
H1267 C1261 0.959 . S
H1268 C1261 0.961 . S
H1269 C1261 0.960 . S
H1270 C1262 0.930 . S
H1271 C1263 0.929 . S
H1272 C1280 0.929 . S
H1273 C1282 0.930 . S
H1274 C1284 0.930 . S
H1275 C1287 0.929 . S
H1276 C1290 0.930 . S
H1277 C1292 0.960 . S
H1278 C1292 0.960 . S
H1279 C1292 0.960 . S
C1280 H1272 0.929 . S
C1280 C1281 1.377 . S
C1280 C1282 1.384 . S
C1281 C1280 1.377 . S
C1281 C1287 1.390 . S
C1282 H1273 0.930 . S
C1282 C1280 1.384 . S
C1282 C1283 1.372 . S
C1283 C1282 1.372 . S
C1283 C1284 1.400 . S
C1283 C1288 1.490 . S
C1284 H1274 0.930 . S
C1284 C1283 1.400 . S
C1284 C1287 1.386 . S
H1285 C1301 0.930 . S
H1286 C1302 0.931 . S
C1287 H1275 0.929 . S
C1287 C1281 1.390 . S
C1287 C1284 1.386 . S
C1288 C1283 1.490 . S
C1288 C1290 1.395 . S
C1288 C1291 1.403 . S
H1289 C1295 0.930 . S
C1290 H1276 0.930 . S
C1290 C1288 1.395 . S
C1290 C1293 1.403 . S
C1291 C1288 1.403 . S
C1291 C1292 1.524 . S
C1291 C1295 1.400 . S
C1292 H1277 0.960 . S
C1292 H1278 0.960 . S
C1292 H1279 0.960 . S
C1292 C1291 1.524 . S
C1293 C1290 1.403 . S
C1293 C1294 1.392 . S
C1293 C1297 1.495 . S
C1294 C1293 1.392 . S
C1294 C1295 1.385 . S
C1294 C1296 1.478 . S
C1295 H1289 0.930 . S
C1295 C1291 1.400 . S
C1295 C1294 1.385 . S
C1296 C1294 1.478 . S
C1296 C1298 1.381 . S
C1296 C1302 1.383 . S
C1297 C1293 1.495 . S
C1297 H1303 0.959 . S
C1297 H1304 0.961 . S
C1297 H1305 0.960 . S
C1298 C1296 1.381 . S
C1298 C1299 1.394 . S
C1298 H1306 0.930 . S
C1299 C1298 1.394 . S
C1299 C1300 1.383 . S
C1299 H1307 0.929 . S
C1300 C1299 1.383 . S
C1300 C1301 1.377 . S
C1301 H1285 0.930 . S
C1301 C1300 1.377 . S
C1301 C1302 1.379 . S
C1302 H1286 0.931 . S
C1302 C1296 1.383 . S
C1302 C1301 1.379 . S
H1303 C1297 0.959 . S
H1304 C1297 0.961 . S
H1305 C1297 0.960 . S
H1306 C1298 0.930 . S
H1307 C1299 0.929 . S
H1308 C1316 0.929 . S
H1309 C1318 0.930 . S
H1310 C1320 0.930 . S
H1311 C1323 0.929 . S
H1312 C1326 0.930 . S
H1313 C1328 0.960 . S
H1314 C1328 0.960 . S
H1315 C1328 0.960 . S
C1316 H1308 0.929 . S
C1316 C1317 1.377 . S
C1316 C1318 1.384 . S
C1317 C1316 1.377 . S
C1317 C1323 1.390 . S
C1318 H1309 0.930 . S
C1318 C1316 1.384 . S
C1318 C1319 1.372 . S
C1319 C1318 1.372 . S
C1319 C1320 1.400 . S
C1319 C1324 1.490 . S
C1320 H1310 0.930 . S
C1320 C1319 1.400 . S
C1320 C1323 1.386 . S
H1321 C1337 0.930 . S
H1322 C1338 0.931 . S
C1323 H1311 0.929 . S
C1323 C1317 1.390 . S
C1323 C1320 1.386 . S
C1324 C1319 1.490 . S
C1324 C1326 1.395 . S
C1324 C1327 1.403 . S
H1325 C1331 0.930 . S
C1326 H1312 0.930 . S
C1326 C1324 1.395 . S
C1326 C1329 1.403 . S
C1327 C1324 1.403 . S
C1327 C1328 1.524 . S
C1327 C1331 1.400 . S
C1328 H1313 0.960 . S
C1328 H1314 0.960 . S
C1328 H1315 0.960 . S
C1328 C1327 1.524 . S
C1329 C1326 1.403 . S
C1329 C1330 1.392 . S
C1329 C1333 1.495 . S
C1330 C1329 1.392 . S
C1330 C1331 1.385 . S
C1330 C1332 1.478 . S
C1331 H1325 0.930 . S
C1331 C1327 1.400 . S
C1331 C1330 1.385 . S
C1332 C1330 1.478 . S
C1332 C1334 1.381 . S
C1332 C1338 1.383 . S
C1333 C1329 1.495 . S
C1333 H1339 0.959 . S
C1333 H1340 0.961 . S
C1333 H1341 0.960 . S
C1334 C1332 1.381 . S
C1334 C1335 1.394 . S
C1334 H1342 0.930 . S
C1335 C1334 1.394 . S
C1335 C1336 1.383 . S
C1335 H1343 0.929 . S
C1336 C1335 1.383 . S
C1336 C1337 1.377 . S
C1337 H1321 0.930 . S
C1337 C1336 1.377 . S
C1337 C1338 1.379 . S
C1338 H1322 0.931 . S
C1338 C1332 1.383 . S
C1338 C1337 1.379 . S
H1339 C1333 0.959 . S
H1340 C1333 0.961 . S
H1341 C1333 0.960 . S
H1342 C1334 0.930 . S
H1343 C1335 0.929 . S
H1344 C1352 0.929 . S
H1345 C1354 0.930 . S
H1346 C1356 0.930 . S
H1347 C1359 0.929 . S
H1348 C1362 0.930 . S
H1349 C1364 0.960 . S
H1350 C1364 0.960 . S
H1351 C1364 0.960 . S
C1352 H1344 0.929 . S
C1352 C1353 1.377 . S
C1352 C1354 1.384 . S
C1353 C1352 1.377 . S
C1353 C1359 1.390 . S
C1354 H1345 0.930 . S
C1354 C1352 1.384 . S
C1354 C1355 1.372 . S
C1355 C1354 1.372 . S
C1355 C1356 1.400 . S
C1355 C1360 1.490 . S
C1356 H1346 0.930 . S
C1356 C1355 1.400 . S
C1356 C1359 1.386 . S
H1357 C1373 0.930 . S
H1358 C1374 0.931 . S
C1359 H1347 0.929 . S
C1359 C1353 1.390 . S
C1359 C1356 1.386 . S
C1360 C1355 1.490 . S
C1360 C1362 1.395 . S
C1360 C1363 1.403 . S
H1361 C1367 0.930 . S
C1362 H1348 0.930 . S
C1362 C1360 1.395 . S
C1362 C1365 1.403 . S
C1363 C1360 1.403 . S
C1363 C1364 1.524 . S
C1363 C1367 1.400 . S
C1364 H1349 0.960 . S
C1364 H1350 0.960 . S
C1364 H1351 0.960 . S
C1364 C1363 1.524 . S
C1365 C1362 1.403 . S
C1365 C1366 1.392 . S
C1365 C1369 1.495 . S
C1366 C1365 1.392 . S
C1366 C1367 1.385 . S
C1366 C1368 1.478 . S
C1367 H1361 0.930 . S
C1367 C1363 1.400 . S
C1367 C1366 1.385 . S
C1368 C1366 1.478 . S
C1368 C1370 1.381 . S
C1368 C1374 1.383 . S
C1369 C1365 1.495 . S
C1369 H1375 0.959 . S
C1369 H1376 0.961 . S
C1369 H1377 0.960 . S
C1370 C1368 1.381 . S
C1370 C1371 1.394 . S
C1370 H1378 0.930 . S
C1371 C1370 1.394 . S
C1371 C1372 1.383 . S
C1371 H1379 0.929 . S
C1372 C1371 1.383 . S
C1372 C1373 1.377 . S
C1373 H1357 0.930 . S
C1373 C1372 1.377 . S
C1373 C1374 1.379 . S
C1374 H1358 0.931 . S
C1374 C1368 1.383 . S
C1374 C1373 1.379 . S
H1375 C1369 0.959 . S
H1376 C1369 0.961 . S
H1377 C1369 0.960 . S
H1378 C1370 0.930 . S
H1379 C1371 0.929 . S
H1380 C1388 0.929 . S
H1381 C1390 0.930 . S
H1382 C1392 0.930 . S
H1383 C1395 0.929 . S
H1384 C1398 0.930 . S
H1385 C1400 0.960 . S
H1386 C1400 0.960 . S
H1387 C1400 0.960 . S
C1388 H1380 0.929 . S
C1388 C1389 1.377 . S
C1388 C1390 1.384 . S
C1389 C1388 1.377 . S
C1389 C1395 1.390 . S
C1390 H1381 0.930 . S
C1390 C1388 1.384 . S
C1390 C1391 1.372 . S
C1391 C1390 1.372 . S
C1391 C1392 1.400 . S
C1391 C1396 1.490 . S
C1392 H1382 0.930 . S
C1392 C1391 1.400 . S
C1392 C1395 1.386 . S
H1393 C1409 0.930 . S
H1394 C1410 0.931 . S
C1395 H1383 0.929 . S
C1395 C1389 1.390 . S
C1395 C1392 1.386 . S
C1396 C1391 1.490 . S
C1396 C1398 1.395 . S
C1396 C1399 1.403 . S
H1397 C1403 0.930 . S
C1398 H1384 0.930 . S
C1398 C1396 1.395 . S
C1398 C1401 1.403 . S
C1399 C1396 1.403 . S
C1399 C1400 1.524 . S
C1399 C1403 1.400 . S
C1400 H1385 0.960 . S
C1400 H1386 0.960 . S
C1400 H1387 0.960 . S
C1400 C1399 1.524 . S
C1401 C1398 1.403 . S
C1401 C1402 1.392 . S
C1401 C1405 1.495 . S
C1402 C1401 1.392 . S
C1402 C1403 1.385 . S
C1402 C1404 1.478 . S
C1403 H1397 0.930 . S
C1403 C1399 1.400 . S
C1403 C1402 1.385 . S
C1404 C1402 1.478 . S
C1404 C1406 1.381 . S
C1404 C1410 1.383 . S
C1405 C1401 1.495 . S
C1405 H1411 0.959 . S
C1405 H1412 0.961 . S
C1405 H1413 0.960 . S
C1406 C1404 1.381 . S
C1406 C1407 1.394 . S
C1406 H1414 0.930 . S
C1407 C1406 1.394 . S
C1407 C1408 1.383 . S
C1407 H1415 0.929 . S
C1408 C1407 1.383 . S
C1408 C1409 1.377 . S
C1409 H1393 0.930 . S
C1409 C1408 1.377 . S
C1409 C1410 1.379 . S
C1410 H1394 0.931 . S
C1410 C1404 1.383 . S
C1410 C1409 1.379 . S
H1411 C1405 0.959 . S
H1412 C1405 0.961 . S
H1413 C1405 0.960 . S
H1414 C1406 0.930 . S
H1415 C1407 0.929 . S
H1416 C1424 0.929 . S
H1417 C1426 0.930 . S
H1418 C1428 0.930 . S
H1419 C1431 0.929 . S
H1420 C1434 0.930 . S
H1421 C1436 0.960 . S
H1422 C1436 0.960 . S
H1423 C1436 0.960 . S
C1424 H1416 0.929 . S
C1424 C1425 1.377 . S
C1424 C1426 1.384 . S
C1425 C1424 1.377 . S
C1425 C1431 1.390 . S
C1426 H1417 0.930 . S
C1426 C1424 1.384 . S
C1426 C1427 1.372 . S
C1427 C1426 1.372 . S
C1427 C1428 1.400 . S
C1427 C1432 1.490 . S
C1428 H1418 0.930 . S
C1428 C1427 1.400 . S
C1428 C1431 1.386 . S
H1429 C1445 0.930 . S
H1430 C1446 0.931 . S
C1431 H1419 0.929 . S
C1431 C1425 1.390 . S
C1431 C1428 1.386 . S
C1432 C1427 1.490 . S
C1432 C1434 1.395 . S
C1432 C1435 1.403 . S
H1433 C1439 0.930 . S
C1434 H1420 0.930 . S
C1434 C1432 1.395 . S
C1434 C1437 1.403 . S
C1435 C1432 1.403 . S
C1435 C1436 1.524 . S
C1435 C1439 1.400 . S
C1436 H1421 0.960 . S
C1436 H1422 0.960 . S
C1436 H1423 0.960 . S
C1436 C1435 1.524 . S
C1437 C1434 1.403 . S
C1437 C1438 1.392 . S
C1437 C1441 1.495 . S
C1438 C1437 1.392 . S
C1438 C1439 1.385 . S
C1438 C1440 1.478 . S
C1439 H1433 0.930 . S
C1439 C1435 1.400 . S
C1439 C1438 1.385 . S
C1440 C1438 1.478 . S
C1440 C1442 1.381 . S
C1440 C1446 1.383 . S
C1441 C1437 1.495 . S
C1441 H1447 0.959 . S
C1441 H1448 0.961 . S
C1441 H1449 0.960 . S
C1442 C1440 1.381 . S
C1442 C1443 1.394 . S
C1442 H1450 0.930 . S
C1443 C1442 1.394 . S
C1443 C1444 1.383 . S
C1443 H1451 0.929 . S
C1444 C1443 1.383 . S
C1444 C1445 1.377 . S
C1445 H1429 0.930 . S
C1445 C1444 1.377 . S
C1445 C1446 1.379 . S
C1446 H1430 0.931 . S
C1446 C1440 1.383 . S
C1446 C1445 1.379 . S
H1447 C1441 0.959 . S
H1448 C1441 0.961 . S
H1449 C1441 0.960 . S
H1450 C1442 0.930 . S
H1451 C1443 0.929 . S
H1452 C1460 0.929 . S
H1453 C1462 0.930 . S
H1454 C1464 0.930 . S
H1455 C1467 0.929 . S
H1456 C1470 0.930 . S
H1457 C1472 0.960 . S
H1458 C1472 0.960 . S
H1459 C1472 0.960 . S
C1460 H1452 0.929 . S
C1460 C1461 1.377 . S
C1460 C1462 1.384 . S
C1461 C1460 1.377 . S
C1461 C1467 1.390 . S
C1462 H1453 0.930 . S
C1462 C1460 1.384 . S
C1462 C1463 1.372 . S
C1463 C1462 1.372 . S
C1463 C1464 1.400 . S
C1463 C1468 1.490 . S
C1464 H1454 0.930 . S
C1464 C1463 1.400 . S
C1464 C1467 1.386 . S
H1465 C1481 0.930 . S
H1466 C1482 0.931 . S
C1467 H1455 0.929 . S
C1467 C1461 1.390 . S
C1467 C1464 1.386 . S
C1468 C1463 1.490 . S
C1468 C1470 1.395 . S
C1468 C1471 1.403 . S
H1469 C1475 0.930 . S
C1470 H1456 0.930 . S
C1470 C1468 1.395 . S
C1470 C1473 1.403 . S
C1471 C1468 1.403 . S
C1471 C1472 1.524 . S
C1471 C1475 1.400 . S
C1472 H1457 0.960 . S
C1472 H1458 0.960 . S
C1472 H1459 0.960 . S
C1472 C1471 1.524 . S
C1473 C1470 1.403 . S
C1473 C1474 1.392 . S
C1473 C1477 1.495 . S
C1474 C1473 1.392 . S
C1474 C1475 1.385 . S
C1474 C1476 1.478 . S
C1475 H1469 0.930 . S
C1475 C1471 1.400 . S
C1475 C1474 1.385 . S
C1476 C1474 1.478 . S
C1476 C1478 1.381 . S
C1476 C1482 1.383 . S
C1477 C1473 1.495 . S
C1477 H1483 0.959 . S
C1477 H1484 0.961 . S
C1477 H1485 0.960 . S
C1478 C1476 1.381 . S
C1478 C1479 1.394 . S
C1478 H1486 0.930 . S
C1479 C1478 1.394 . S
C1479 C1480 1.383 . S
C1479 H1487 0.929 . S
C1480 C1479 1.383 . S
C1480 C1481 1.377 . S
C1481 H1465 0.930 . S
C1481 C1480 1.377 . S
C1481 C1482 1.379 . S
C1482 H1466 0.931 . S
C1482 C1476 1.383 . S
C1482 C1481 1.379 . S
H1483 C1477 0.959 . S
H1484 C1477 0.961 . S
H1485 C1477 0.960 . S
H1486 C1478 0.930 . S
H1487 C1479 0.929 . S
H1488 C1496 0.929 . S
H1489 C1498 0.930 . S
H1490 C1500 0.930 . S
H1491 C1503 0.929 . S
H1492 C1506 0.930 . S
H1493 C1508 0.960 . S
H1494 C1508 0.960 . S
H1495 C1508 0.960 . S
C1496 H1488 0.929 . S
C1496 C1497 1.377 . S
C1496 C1498 1.384 . S
C1497 C1496 1.377 . S
C1497 C1503 1.390 . S
C1498 H1489 0.930 . S
C1498 C1496 1.384 . S
C1498 C1499 1.372 . S
C1499 C1498 1.372 . S
C1499 C1500 1.400 . S
C1499 C1504 1.490 . S
C1500 H1490 0.930 . S
C1500 C1499 1.400 . S
C1500 C1503 1.386 . S
H1501 C1517 0.930 . S
H1502 C1518 0.931 . S
C1503 H1491 0.929 . S
C1503 C1497 1.390 . S
C1503 C1500 1.386 . S
C1504 C1499 1.490 . S
C1504 C1506 1.395 . S
C1504 C1507 1.403 . S
H1505 C1511 0.930 . S
C1506 H1492 0.930 . S
C1506 C1504 1.395 . S
C1506 C1509 1.403 . S
C1507 C1504 1.403 . S
C1507 C1508 1.524 . S
C1507 C1511 1.400 . S
C1508 H1493 0.960 . S
C1508 H1494 0.960 . S
C1508 H1495 0.960 . S
C1508 C1507 1.524 . S
C1509 C1506 1.403 . S
C1509 C1510 1.392 . S
C1509 C1513 1.495 . S
C1510 C1509 1.392 . S
C1510 C1511 1.385 . S
C1510 C1512 1.478 . S
C1511 H1505 0.930 . S
C1511 C1507 1.400 . S
C1511 C1510 1.385 . S
C1512 C1510 1.478 . S
C1512 C1514 1.381 . S
C1512 C1518 1.383 . S
C1513 C1509 1.495 . S
C1513 H1519 0.959 . S
C1513 H1520 0.961 . S
C1513 H1521 0.960 . S
C1514 C1512 1.381 . S
C1514 C1515 1.394 . S
C1514 H1522 0.930 . S
C1515 C1514 1.394 . S
C1515 C1516 1.383 . S
C1515 H1523 0.929 . S
C1516 C1515 1.383 . S
C1516 C1517 1.377 . S
C1517 H1501 0.930 . S
C1517 C1516 1.377 . S
C1517 C1518 1.379 . S
C1518 H1502 0.931 . S
C1518 C1512 1.383 . S
C1518 C1517 1.379 . S
H1519 C1513 0.959 . S
H1520 C1513 0.961 . S
H1521 C1513 0.960 . S
H1522 C1514 0.930 . S
H1523 C1515 0.929 . S
H1524 C1532 0.929 . S
H1525 C1534 0.930 . S
H1526 C1536 0.930 . S
H1527 C1539 0.929 . S
H1528 C1542 0.930 . S
H1529 C1544 0.960 . S
H1530 C1544 0.960 . S
H1531 C1544 0.960 . S
C1532 H1524 0.929 . S
C1532 C1533 1.377 . S
C1532 C1534 1.384 . S
C1533 C1532 1.377 . S
C1533 C1539 1.390 . S
C1534 H1525 0.930 . S
C1534 C1532 1.384 . S
C1534 C1535 1.372 . S
C1535 C1534 1.372 . S
C1535 C1536 1.400 . S
C1535 C1540 1.490 . S
C1536 H1526 0.930 . S
C1536 C1535 1.400 . S
C1536 C1539 1.386 . S
H1537 C1553 0.930 . S
H1538 C1554 0.931 . S
C1539 H1527 0.929 . S
C1539 C1533 1.390 . S
C1539 C1536 1.386 . S
C1540 C1535 1.490 . S
C1540 C1542 1.395 . S
C1540 C1543 1.403 . S
H1541 C1547 0.930 . S
C1542 H1528 0.930 . S
C1542 C1540 1.395 . S
C1542 C1545 1.403 . S
C1543 C1540 1.403 . S
C1543 C1544 1.524 . S
C1543 C1547 1.400 . S
C1544 H1529 0.960 . S
C1544 H1530 0.960 . S
C1544 H1531 0.960 . S
C1544 C1543 1.524 . S
C1545 C1542 1.403 . S
C1545 C1546 1.392 . S
C1545 C1549 1.495 . S
C1546 C1545 1.392 . S
C1546 C1547 1.385 . S
C1546 C1548 1.478 . S
C1547 H1541 0.930 . S
C1547 C1543 1.400 . S
C1547 C1546 1.385 . S
C1548 C1546 1.478 . S
C1548 C1550 1.381 . S
C1548 C1554 1.383 . S
C1549 C1545 1.495 . S
C1549 H1555 0.959 . S
C1549 H1556 0.961 . S
C1549 H1557 0.960 . S
C1550 C1548 1.381 . S
C1550 C1551 1.394 . S
C1550 H1558 0.930 . S
C1551 C1550 1.394 . S
C1551 C1552 1.383 . S
C1551 H1559 0.929 . S
C1552 C1551 1.383 . S
C1552 C1553 1.377 . S
C1553 H1537 0.930 . S
C1553 C1552 1.377 . S
C1553 C1554 1.379 . S
C1554 H1538 0.931 . S
C1554 C1548 1.383 . S
C1554 C1553 1.379 . S
H1555 C1549 0.959 . S
H1556 C1549 0.961 . S
H1557 C1549 0.960 . S
H1558 C1550 0.930 . S
H1559 C1551 0.929 . S
H1560 C1568 0.929 . S
H1561 C1570 0.930 . S
H1562 C1572 0.930 . S
H1563 C1575 0.929 . S
H1564 C1578 0.930 . S
H1565 C1580 0.960 . S
H1566 C1580 0.960 . S
H1567 C1580 0.960 . S
C1568 H1560 0.929 . S
C1568 C1569 1.377 . S
C1568 C1570 1.384 . S
C1569 C1568 1.377 . S
C1569 C1575 1.390 . S
C1570 H1561 0.930 . S
C1570 C1568 1.384 . S
C1570 C1571 1.372 . S
C1571 C1570 1.372 . S
C1571 C1572 1.400 . S
C1571 C1576 1.490 . S
C1572 H1562 0.930 . S
C1572 C1571 1.400 . S
C1572 C1575 1.386 . S
H1573 C1589 0.930 . S
H1574 C1590 0.931 . S
C1575 H1563 0.929 . S
C1575 C1569 1.390 . S
C1575 C1572 1.386 . S
C1576 C1571 1.490 . S
C1576 C1578 1.395 . S
C1576 C1579 1.403 . S
H1577 C1583 0.930 . S
C1578 H1564 0.930 . S
C1578 C1576 1.395 . S
C1578 C1581 1.403 . S
C1579 C1576 1.403 . S
C1579 C1580 1.524 . S
C1579 C1583 1.400 . S
C1580 H1565 0.960 . S
C1580 H1566 0.960 . S
C1580 H1567 0.960 . S
C1580 C1579 1.524 . S
C1581 C1578 1.403 . S
C1581 C1582 1.392 . S
C1581 C1585 1.495 . S
C1582 C1581 1.392 . S
C1582 C1583 1.385 . S
C1582 C1584 1.478 . S
C1583 H1577 0.930 . S
C1583 C1579 1.400 . S
C1583 C1582 1.385 . S
C1584 C1582 1.478 . S
C1584 C1586 1.381 . S
C1584 C1590 1.383 . S
C1585 C1581 1.495 . S
C1585 H1591 0.959 . S
C1585 H1592 0.961 . S
C1585 H1593 0.960 . S
C1586 C1584 1.381 . S
C1586 C1587 1.394 . S
C1586 H1594 0.930 . S
C1587 C1586 1.394 . S
C1587 C1588 1.383 . S
C1587 H1595 0.929 . S
C1588 C1587 1.383 . S
C1588 C1589 1.377 . S
C1589 H1573 0.930 . S
C1589 C1588 1.377 . S
C1589 C1590 1.379 . S
C1590 H1574 0.931 . S
C1590 C1584 1.383 . S
C1590 C1589 1.379 . S
H1591 C1585 0.959 . S
H1592 C1585 0.961 . S
H1593 C1585 0.960 . S
H1594 C1586 0.930 . S
H1595 C1587 0.929 . S
H1596 C1604 0.929 . S
H1597 C1606 0.930 . S
H1598 C1608 0.930 . S
H1599 C1611 0.929 . S
H1600 C1614 0.930 . S
H1601 C1616 0.960 . S
H1602 C1616 0.960 . S
H1603 C1616 0.960 . S
C1604 H1596 0.929 . S
C1604 C1605 1.377 . S
C1604 C1606 1.384 . S
C1605 C1604 1.377 . S
C1605 C1611 1.390 . S
C1606 H1597 0.930 . S
C1606 C1604 1.384 . S
C1606 C1607 1.372 . S
C1607 C1606 1.372 . S
C1607 C1608 1.400 . S
C1607 C1612 1.490 . S
C1608 H1598 0.930 . S
C1608 C1607 1.400 . S
C1608 C1611 1.386 . S
H1609 C1625 0.930 . S
H1610 C1626 0.931 . S
C1611 H1599 0.929 . S
C1611 C1605 1.390 . S
C1611 C1608 1.386 . S
C1612 C1607 1.490 . S
C1612 C1614 1.395 . S
C1612 C1615 1.403 . S
H1613 C1619 0.930 . S
C1614 H1600 0.930 . S
C1614 C1612 1.395 . S
C1614 C1617 1.403 . S
C1615 C1612 1.403 . S
C1615 C1616 1.524 . S
C1615 C1619 1.400 . S
C1616 H1601 0.960 . S
C1616 H1602 0.960 . S
C1616 H1603 0.960 . S
C1616 C1615 1.524 . S
C1617 C1614 1.403 . S
C1617 C1618 1.392 . S
C1617 C1621 1.495 . S
C1618 C1617 1.392 . S
C1618 C1619 1.385 . S
C1618 C1620 1.478 . S
C1619 H1613 0.930 . S
C1619 C1615 1.400 . S
C1619 C1618 1.385 . S
C1620 C1618 1.478 . S
C1620 C1622 1.381 . S
C1620 C1626 1.383 . S
C1621 C1617 1.495 . S
C1621 H1627 0.959 . S
C1621 H1628 0.961 . S
C1621 H1629 0.960 . S
C1622 C1620 1.381 . S
C1622 C1623 1.394 . S
C1622 H1630 0.930 . S
C1623 C1622 1.394 . S
C1623 C1624 1.383 . S
C1623 H1631 0.929 . S
C1624 C1623 1.383 . S
C1624 C1625 1.377 . S
C1625 H1609 0.930 . S
C1625 C1624 1.377 . S
C1625 C1626 1.379 . S
C1626 H1610 0.931 . S
C1626 C1620 1.383 . S
C1626 C1625 1.379 . S
H1627 C1621 0.959 . S
H1628 C1621 0.961 . S
H1629 C1621 0.960 . S
H1630 C1622 0.930 . S
H1631 C1623 0.929 . S
H1632 C1640 0.929 . S
H1633 C1642 0.930 . S
H1634 C1644 0.930 . S
H1635 C1647 0.929 . S
H1636 C1650 0.930 . S
H1637 C1652 0.960 . S
H1638 C1652 0.960 . S
H1639 C1652 0.960 . S
C1640 H1632 0.929 . S
C1640 C1641 1.377 . S
C1640 C1642 1.384 . S
C1641 C1640 1.377 . S
C1641 C1647 1.390 . S
C1642 H1633 0.930 . S
C1642 C1640 1.384 . S
C1642 C1643 1.372 . S
C1643 C1642 1.372 . S
C1643 C1644 1.400 . S
C1643 C1648 1.490 . S
C1644 H1634 0.930 . S
C1644 C1643 1.400 . S
C1644 C1647 1.386 . S
H1645 C1661 0.930 . S
H1646 C1662 0.931 . S
C1647 H1635 0.929 . S
C1647 C1641 1.390 . S
C1647 C1644 1.386 . S
C1648 C1643 1.490 . S
C1648 C1650 1.395 . S
C1648 C1651 1.403 . S
H1649 C1655 0.930 . S
C1650 H1636 0.930 . S
C1650 C1648 1.395 . S
C1650 C1653 1.403 . S
C1651 C1648 1.403 . S
C1651 C1652 1.524 . S
C1651 C1655 1.400 . S
C1652 H1637 0.960 . S
C1652 H1638 0.960 . S
C1652 H1639 0.960 . S
C1652 C1651 1.524 . S
C1653 C1650 1.403 . S
C1653 C1654 1.392 . S
C1653 C1657 1.495 . S
C1654 C1653 1.392 . S
C1654 C1655 1.385 . S
C1654 C1656 1.478 . S
C1655 H1649 0.930 . S
C1655 C1651 1.400 . S
C1655 C1654 1.385 . S
C1656 C1654 1.478 . S
C1656 C1658 1.381 . S
C1656 C1662 1.383 . S
C1657 C1653 1.495 . S
C1657 H1663 0.959 . S
C1657 H1664 0.961 . S
C1657 H1665 0.960 . S
C1658 C1656 1.381 . S
C1658 C1659 1.394 . S
C1658 H1666 0.930 . S
C1659 C1658 1.394 . S
C1659 C1660 1.383 . S
C1659 H1667 0.929 . S
C1660 C1659 1.383 . S
C1660 C1661 1.377 . S
C1661 H1645 0.930 . S
C1661 C1660 1.377 . S
C1661 C1662 1.379 . S
C1662 H1646 0.931 . S
C1662 C1656 1.383 . S
C1662 C1661 1.379 . S
H1663 C1657 0.959 . S
H1664 C1657 0.961 . S
H1665 C1657 0.960 . S
H1666 C1658 0.930 . S
H1667 C1659 0.929 . S
H1668 C1676 0.929 . S
H1669 C1678 0.930 . S
H1670 C1680 0.930 . S
H1671 C1683 0.929 . S
H1672 C1686 0.930 . S
H1673 C1688 0.960 . S
H1674 C1688 0.960 1_556 S
H1675 C1688 0.960 . S
C1676 H1668 0.929 . S
C1676 C1677 1.379 . S
C1676 C1678 1.384 . S
C1677 C1676 1.379 . S
C1677 C1683 1.388 1_556 S
C1678 H1669 0.930 . S
C1678 C1676 1.384 . S
C1678 C1679 1.416 . S
C1679 C1678 1.416 . S
C1679 C1680 1.355 1_556 S
C1679 C1684 1.490 . S
C1680 H1670 0.930 . S
C1680 C1679 1.355 1_554 S
C1680 C1683 1.386 . S
H1681 C1697 0.930 . S
H1682 C1698 0.931 . S
C1683 H1671 0.929 . S
C1683 C1677 1.388 1_554 S
C1683 C1680 1.386 . S
C1684 C1679 1.490 . S
C1684 C1686 1.401 . S
C1684 C1687 1.399 1_556 S
H1685 C1691 0.935 . S
C1686 H1672 0.930 . S
C1686 C1684 1.401 . S
C1686 C1689 1.403 . S
C1687 C1684 1.399 1_554 S
C1687 C1688 1.525 . S
C1687 C1691 1.400 . S
C1688 H1673 0.960 . S
C1688 H1674 0.960 1_554 S
C1688 H1675 0.960 . S
C1688 C1687 1.525 . S
C1689 C1686 1.403 . S
C1689 C1690 1.397 . S
C1689 C1693 1.495 . S
C1690 C1689 1.397 . S
C1690 C1691 1.381 1_556 S
C1690 C1692 1.477 . S
C1691 H1685 0.935 . S
C1691 C1687 1.400 . S
C1691 C1690 1.381 1_554 S
C1692 C1690 1.477 . S
C1692 C1694 1.392 . S
C1692 C1698 1.372 1_556 S
C1693 C1689 1.495 . S
C1693 H1699 0.959 . S
C1693 H1700 0.961 1_556 S
C1693 H1701 0.960 . S
C1694 C1692 1.392 . S
C1694 C1695 1.394 . S
C1694 H1702 0.930 . S
C1695 C1694 1.394 . S
C1695 C1696 1.383 1_556 S
C1695 H1703 0.929 . S
C1696 C1695 1.383 1_554 S
C1696 C1697 1.377 . S
C1697 H1681 0.930 . S
C1697 C1696 1.377 . S
C1697 C1698 1.379 . S
C1698 H1682 0.931 . S
C1698 C1692 1.372 1_554 S
C1698 C1697 1.379 . S
H1699 C1693 0.959 . S
H1700 C1693 0.961 1_554 S
H1701 C1693 0.960 . S
H1702 C1694 0.930 . S
H1703 C1695 0.929 . S
H1704 C1712 0.929 . S
H1705 C1714 0.930 . S
H1706 C1716 0.930 . S
H1707 C1719 0.929 . S
H1708 C1722 0.930 . S
H1709 C1724 0.960 . S
H1710 C1724 0.960 1_554 S
H1711 C1724 0.960 . S
C1712 H1704 0.929 . S
C1712 C1713 1.392 . S
C1712 C1714 1.384 . S
C1713 C1712 1.392 . S
C1713 C1719 1.376 1_554 S
C1714 H1705 0.930 . S
C1714 C1712 1.384 . S
C1714 C1715 1.372 . S
C1715 C1714 1.372 . S
C1715 C1716 1.400 1_554 S
C1715 C1720 1.490 . S
C1716 H1706 0.930 . S
C1716 C1715 1.400 1_556 S
C1716 C1719 1.386 . S
H1717 C1733 0.930 . S
H1718 C1734 0.931 . S
C1719 H1707 0.929 . S
C1719 C1713 1.376 1_556 S
C1719 C1716 1.386 . S
C1720 C1715 1.490 . S
C1720 C1722 1.395 . S
C1720 C1723 1.403 1_554 S
H1721 C1727 0.930 . S
C1722 H1708 0.930 . S
C1722 C1720 1.395 . S
C1722 C1725 1.403 . S
C1723 C1720 1.403 1_556 S
C1723 C1724 1.524 . S
C1723 C1727 1.400 . S
C1724 H1709 0.960 . S
C1724 H1710 0.960 1_556 S
C1724 H1711 0.960 . S
C1724 C1723 1.524 . S
C1725 C1722 1.403 . S
C1725 C1726 1.392 . S
C1725 C1729 1.495 . S
C1726 C1725 1.392 . S
C1726 C1727 1.385 1_554 S
C1726 C1728 1.480 . S
C1727 H1721 0.930 . S
C1727 C1723 1.400 . S
C1727 C1726 1.385 1_556 S
C1728 C1726 1.480 . S
C1728 C1730 1.431 . S
C1728 C1734 1.333 1_554 S
C1729 C1725 1.495 . S
C1729 H1735 0.959 . S
C1729 H1736 0.961 1_554 S
C1729 H1737 0.960 . S
C1730 C1728 1.431 . S
C1730 C1731 1.394 . S
C1730 H1738 0.930 . S
C1731 C1730 1.394 . S
C1731 C1732 1.392 . S
C1731 H1739 0.929 . S
C1732 C1731 1.392 . S
C1732 C1733 1.369 1_554 S
C1733 H1717 0.930 . S
C1733 C1732 1.369 1_556 S
C1733 C1734 1.379 . S
C1734 H1718 0.931 . S
C1734 C1728 1.333 1_556 S
C1734 C1733 1.379 . S
H1735 C1729 0.959 . S
H1736 C1729 0.961 1_556 S
H1737 C1729 0.960 . S
H1738 C1730 0.930 . S
H1739 C1731 0.929 . S
H1740 C1748 0.929 . S
H1741 C1750 0.930 . S
H1742 C1752 0.930 . S
H1743 C1755 0.929 . S
H1744 C1758 0.930 . S
H1745 C1760 0.960 . S
H1746 C1760 0.960 . S
H1747 C1760 0.960 . S
C1748 H1740 0.929 . S
C1748 C1749 1.379 1_554 S
C1748 C1750 1.384 . S
C1749 C1748 1.379 1_556 S
C1749 C1755 1.388 . S
C1750 H1741 0.930 . S
C1750 C1748 1.384 . S
C1750 C1751 1.381 . S
C1751 C1750 1.381 . S
C1751 C1752 1.390 1_554 S
C1751 C1756 1.491 . S
C1752 H1742 0.930 . S
C1752 C1751 1.390 1_556 S
C1752 C1755 1.386 . S
H1753 C1769 0.930 . S
H1754 C1770 0.931 . S
C1755 H1743 0.929 . S
C1755 C1749 1.388 . S
C1755 C1752 1.386 . S
C1756 C1751 1.491 . S
C1756 C1758 1.395 . S
C1756 C1759 1.403 1_554 S
H1757 C1763 0.930 . S
C1758 H1744 0.930 . S
C1758 C1756 1.395 . S
C1758 C1761 1.403 . S
C1759 C1756 1.403 1_556 S
C1759 C1760 1.524 . S
C1759 C1763 1.400 . S
C1760 H1745 0.960 . S
C1760 H1746 0.960 . S
C1760 H1747 0.960 . S
C1760 C1759 1.524 . S
C1761 C1758 1.403 . S
C1761 C1762 1.392 . S
C1761 C1765 1.495 . S
C1762 C1761 1.392 . S
C1762 C1763 1.385 1_554 S
C1762 C1764 1.478 . S
C1763 H1757 0.930 . S
C1763 C1759 1.400 . S
C1763 C1762 1.385 1_556 S
C1764 C1762 1.478 . S
C1764 C1766 1.381 . S
C1764 C1770 1.383 1_554 S
C1765 C1761 1.495 . S
C1765 H1771 0.959 . S
C1765 H1772 0.961 . S
C1765 H1773 0.960 . S
C1766 C1764 1.381 . S
C1766 C1767 1.394 . S
C1766 H1774 0.930 . S
C1767 C1766 1.394 . S
C1767 C1768 1.383 . S
C1767 H1775 0.929 . S
C1768 C1767 1.383 . S
C1768 C1769 1.377 1_554 S
C1769 H1753 0.930 . S
C1769 C1768 1.377 1_556 S
C1769 C1770 1.379 . S
C1770 H1754 0.931 . S
C1770 C1764 1.383 1_556 S
C1770 C1769 1.379 . S
H1771 C1765 0.959 . S
H1772 C1765 0.961 . S
H1773 C1765 0.960 . S
H1774 C1766 0.930 . S
H1775 C1767 0.929 . S
H1776 C1784 0.929 . S
H1777 C1786 0.930 . S
H1778 C1788 0.930 . S
H1779 C1791 0.929 . S
H1780 C1794 0.930 . S
H1781 C1796 0.960 . S
H1782 C1796 0.960 . S
H1783 C1796 0.960 1_556 S
C1784 H1776 0.929 . S
C1784 C1785 1.390 . S
C1784 C1786 1.384 . S
C1785 C1784 1.390 . S
C1785 C1791 1.378 1_554 S
C1786 H1777 0.930 . S
C1786 C1784 1.384 . S
C1786 C1787 1.372 . S
C1787 C1786 1.372 . S
C1787 C1788 1.400 1_554 S
C1787 C1792 1.491 . S
C1788 H1778 0.930 . S
C1788 C1787 1.400 1_556 S
C1788 C1791 1.386 . S
H1789 C1805 0.930 . S
H1790 C1806 0.931 . S
C1791 H1779 0.929 . S
C1791 C1785 1.378 1_556 S
C1791 C1788 1.386 . S
C1792 C1787 1.491 . S
C1792 C1794 1.389 1_554 S
C1792 C1795 1.411 . S
H1793 C1799 0.930 . S
C1794 H1780 0.930 . S
C1794 C1792 1.389 1_556 S
C1794 C1797 1.403 . S
C1795 C1792 1.411 . S
C1795 C1796 1.524 . S
C1795 C1799 1.400 . S
C1796 H1781 0.960 . S
C1796 H1782 0.960 . S
C1796 H1783 0.960 1_554 S
C1796 C1795 1.524 . S
C1797 C1794 1.403 . S
C1797 C1798 1.392 1_556 S
C1797 C1801 1.495 . S
C1798 C1797 1.392 1_554 S
C1798 C1799 1.385 . S
C1798 C1800 1.477 1_554 S
C1799 H1793 0.930 . S
C1799 C1795 1.400 . S
C1799 C1798 1.385 . S
C1800 C1798 1.477 1_556 S
C1800 C1802 1.366 1_556 S
C1800 C1806 1.398 . S
C1801 C1797 1.495 . S
C1801 H1807 0.959 . S
C1801 H1808 0.961 . S
C1801 H1809 0.960 1_556 S
C1802 C1800 1.366 1_554 S
C1802 C1803 1.394 . S
C1802 H1810 0.930 . S
C1803 C1802 1.394 . S
C1803 C1804 1.376 1_554 S
C1803 H1811 0.929 . S
C1804 C1803 1.376 1_556 S
C1804 C1805 1.384 . S
C1805 H1789 0.930 . S
C1805 C1804 1.384 . S
C1805 C1806 1.379 . S
C1806 H1790 0.931 . S
C1806 C1800 1.398 . S
C1806 C1805 1.379 . S
H1807 C1801 0.959 . S
H1808 C1801 0.961 . S
H1809 C1801 0.960 1_554 S
H1810 C1802 0.930 . S
H1811 C1803 0.929 . S
H1812 C1820 0.929 . S
H1813 C1822 0.930 . S
H1814 C1824 0.930 . S
H1815 C1827 0.929 . S
H1816 C1830 0.930 . S
H1817 C1832 0.960 . S
H1818 C1832 0.960 . S
H1819 C1832 0.960 . S
C1820 H1812 0.929 . S
C1820 C1821 1.353 1_655 S
C1820 C1822 1.384 . S
C1821 C1820 1.353 1_455 S
C1821 C1827 1.415 . S
C1822 H1813 0.930 . S
C1822 C1820 1.384 . S
C1822 C1823 1.366 1_655 S
C1823 C1822 1.366 1_455 S
C1823 C1824 1.405 . S
C1823 C1828 1.490 . S
C1824 H1814 0.930 . S
C1824 C1823 1.405 . S
C1824 C1827 1.386 . S
H1825 C1841 0.930 . S
H1826 C1842 0.931 . S
C1827 H1815 0.929 . S
C1827 C1821 1.415 . S
C1827 C1824 1.386 . S
C1828 C1823 1.490 . S
C1828 C1830 1.404 . S
C1828 C1831 1.394 1_455 S
H1829 C1835 0.930 . S
C1830 H1816 0.930 . S
C1830 C1828 1.404 . S
C1830 C1833 1.403 . S
C1831 C1828 1.394 1_655 S
C1831 C1832 1.524 . S
C1831 C1835 1.400 . S
C1832 H1817 0.960 . S
C1832 H1818 0.960 . S
C1832 H1819 0.960 . S
C1832 C1831 1.524 . S
C1833 C1830 1.403 . S
C1833 C1834 1.392 . S
C1833 C1837 1.495 . S
C1834 C1833 1.392 . S
C1834 C1835 1.385 1_455 S
C1834 C1836 1.478 . S
C1835 H1829 0.930 . S
C1835 C1831 1.400 . S
C1835 C1834 1.385 1_655 S
C1836 C1834 1.478 . S
C1836 C1838 1.381 1_455 S
C1836 C1842 1.383 . S
C1837 C1833 1.495 . S
C1837 H1843 0.959 . S
C1837 H1844 0.961 . S
C1837 H1845 0.960 . S
C1838 C1836 1.381 1_655 S
C1838 C1839 1.394 . S
C1838 H1846 0.930 . S
C1839 C1838 1.394 . S
C1839 C1840 1.383 1_655 S
C1839 H1847 0.929 . S
C1840 C1839 1.383 1_455 S
C1840 C1841 1.377 . S
C1841 H1825 0.930 . S
C1841 C1840 1.377 . S
C1841 C1842 1.379 . S
C1842 H1826 0.931 . S
C1842 C1836 1.383 . S
C1842 C1841 1.379 . S
H1843 C1837 0.959 . S
H1844 C1837 0.961 . S
H1845 C1837 0.960 . S
H1846 C1838 0.930 . S
H1847 C1839 0.929 . S
H1848 C1856 0.929 . S
H1849 C1858 0.930 . S
H1850 C1860 0.930 . S
H1851 C1863 0.929 . S
H1852 C1866 0.930 . S
H1853 C1868 0.960 . S
H1854 C1868 0.960 1_565 S
H1855 C1868 0.960 . S
C1856 H1848 0.929 . S
C1856 C1857 1.381 . S
C1856 C1858 1.384 . S
C1857 C1856 1.381 . S
C1857 C1863 1.386 1_565 S
C1858 H1849 0.930 . S
C1858 C1856 1.384 . S
C1858 C1859 1.418 . S
C1859 C1858 1.418 . S
C1859 C1860 1.354 1_565 S
C1859 C1864 1.491 . S
C1860 H1850 0.930 . S
C1860 C1859 1.354 1_545 S
C1860 C1863 1.386 . S
H1861 C1877 0.930 . S
H1862 C1878 0.931 . S
C1863 H1851 0.929 . S
C1863 C1857 1.386 1_545 S
C1863 C1860 1.386 . S
C1864 C1859 1.491 . S
C1864 C1866 1.395 . S
C1864 C1867 1.401 1_565 S
H1865 C1871 0.936 . S
C1866 H1852 0.930 . S
C1866 C1864 1.395 . S
C1866 C1869 1.403 . S
C1867 C1864 1.401 1_545 S
C1867 C1868 1.525 . S
C1867 C1871 1.400 . S
C1868 H1853 0.960 . S
C1868 H1854 0.960 1_545 S
C1868 H1855 0.960 . S
C1868 C1867 1.525 . S
C1869 C1866 1.403 . S
C1869 C1870 1.398 . S
C1869 C1873 1.495 . S
C1870 C1869 1.398 . S
C1870 C1871 1.381 1_565 S
C1870 C1872 1.477 . S
C1871 H1865 0.936 . S
C1871 C1867 1.400 . S
C1871 C1870 1.381 1_545 S
C1872 C1870 1.477 . S
C1872 C1874 1.393 . S
C1872 C1878 1.371 1_565 S
C1873 C1869 1.495 . S
C1873 H1879 0.959 . S
C1873 H1880 0.961 1_565 S
C1873 H1881 0.960 . S
C1874 C1872 1.393 . S
C1874 C1875 1.394 . S
C1874 H1882 0.930 . S
C1875 C1874 1.394 . S
C1875 C1876 1.382 1_565 S
C1875 H1883 0.929 . S
C1876 C1875 1.382 1_545 S
C1876 C1877 1.378 . S
C1877 H1861 0.930 . S
C1877 C1876 1.378 . S
C1877 C1878 1.379 . S
C1878 H1862 0.931 . S
C1878 C1872 1.371 1_545 S
C1878 C1877 1.379 . S
H1879 C1873 0.959 . S
H1880 C1873 0.961 1_545 S
H1881 C1873 0.960 . S
H1882 C1874 0.930 . S
H1883 C1875 0.929 . S
H1884 C1892 0.933 . S
H1885 C1894 0.932 . S
H1886 C1896 0.930 . S
H1887 C1899 0.929 . S
H1888 C1902 0.930 . S
H1889 C1904 0.960 . S
H1890 C1904 0.960 . S
H1891 C1904 0.960 . S
C1892 H1884 0.933 . S
C1892 C1893 1.374 1_655 S
C1892 C1894 1.384 . S
C1893 C1892 1.374 1_455 S
C1893 C1899 1.394 . S
C1894 H1885 0.932 . S
C1894 C1892 1.384 . S
C1894 C1895 1.369 1_655 S
C1895 C1894 1.369 1_455 S
C1895 C1896 1.403 . S
C1895 C1900 1.492 . S
C1896 H1886 0.930 . S
C1896 C1895 1.403 . S
C1896 C1899 1.386 . S
H1897 C1913 0.930 . S
H1898 C1914 0.931 . S
C1899 H1887 0.929 . S
C1899 C1893 1.394 . S
C1899 C1896 1.386 . S
C1900 C1895 1.492 . S
C1900 C1902 1.395 . S
C1900 C1903 1.403 1_455 S
H1901 C1907 0.930 . S
C1902 H1888 0.930 . S
C1902 C1900 1.395 . S
C1902 C1905 1.403 . S
C1903 C1900 1.403 1_655 S
C1903 C1904 1.524 . S
C1903 C1907 1.400 . S
C1904 H1889 0.960 . S
C1904 H1890 0.960 . S
C1904 H1891 0.960 . S
C1904 C1903 1.524 . S
C1905 C1902 1.403 . S
C1905 C1906 1.392 . S
C1905 C1909 1.495 . S
C1906 C1905 1.392 . S
C1906 C1907 1.385 1_455 S
C1906 C1908 1.478 . S
C1907 H1901 0.930 . S
C1907 C1903 1.400 . S
C1907 C1906 1.385 1_655 S
C1908 C1906 1.478 . S
C1908 C1910 1.390 . S
C1908 C1914 1.383 . S
C1909 C1905 1.495 . S
C1909 H1915 0.959 . S
C1909 H1916 0.961 . S
C1909 H1917 0.960 . S
C1910 C1908 1.390 . S
C1910 C1911 1.392 1_455 S
C1910 H1918 0.923 1_455 S
C1911 C1910 1.392 1_655 S
C1911 C1912 1.380 1_655 S
C1911 H1919 0.934 . S
C1912 C1911 1.380 1_455 S
C1912 C1913 1.377 . S
C1913 H1897 0.930 . S
C1913 C1912 1.377 . S
C1913 C1914 1.379 . S
C1914 H1898 0.931 . S
C1914 C1908 1.383 . S
C1914 C1913 1.379 . S
H1915 C1909 0.959 . S
H1916 C1909 0.961 . S
H1917 C1909 0.960 . S
H1918 C1910 0.923 1_655 S
H1919 C1911 0.934 . S
H1920 C1928 0.929 . S
H1921 C1930 0.930 . S
H1922 C1932 0.930 . S
H1923 C1935 0.929 . S
H1924 C1938 0.930 . S
H1925 C1940 0.960 . S
H1926 C1940 0.960 . S
H1927 C1940 0.960 . S
C1928 H1920 0.929 . S
C1928 C1929 1.382 . S
C1928 C1930 1.384 . S
C1929 C1928 1.382 . S
C1929 C1935 1.386 1_565 S
C1930 H1921 0.930 . S
C1930 C1928 1.384 . S
C1930 C1931 1.398 . S
C1931 C1930 1.398 . S
C1931 C1932 1.374 1_565 S
C1931 C1936 1.490 . S
C1932 H1922 0.930 . S
C1932 C1931 1.374 1_545 S
C1932 C1935 1.386 . S
H1933 C1949 0.930 . S
H1934 C1950 0.931 . S
C1935 H1923 0.929 . S
C1935 C1929 1.386 1_545 S
C1935 C1932 1.386 . S
C1936 C1931 1.490 . S
C1936 C1938 1.387 1_565 S
C1936 C1939 1.411 . S
H1937 C1943 0.930 . S
C1938 H1924 0.930 . S
C1938 C1936 1.387 1_545 S
C1938 C1941 1.403 . S
C1939 C1936 1.411 . S
C1939 C1940 1.524 . S
C1939 C1943 1.400 . S
C1940 H1925 0.960 . S
C1940 H1926 0.960 . S
C1940 H1927 0.960 . S
C1940 C1939 1.524 . S
C1941 C1938 1.403 . S
C1941 C1942 1.405 . S
C1941 C1945 1.495 . S
C1942 C1941 1.405 . S
C1942 C1943 1.372 1_545 S
C1942 C1944 1.480 . S
C1943 H1937 0.930 . S
C1943 C1939 1.400 . S
C1943 C1942 1.372 1_565 S
C1944 C1942 1.480 . S
C1944 C1946 1.381 1_545 S
C1944 C1950 1.383 . S
C1945 C1941 1.495 . S
C1945 H1951 0.959 . S
C1945 H1952 0.961 . S
C1945 H1953 0.960 . S
C1946 C1944 1.381 1_565 S
C1946 C1947 1.394 . S
C1946 H1954 0.930 . S
C1947 C1946 1.394 . S
C1947 C1948 1.356 1_565 S
C1947 H1955 0.929 . S
C1948 C1947 1.356 1_545 S
C1948 C1949 1.405 . S
C1949 H1933 0.930 . S
C1949 C1948 1.405 . S
C1949 C1950 1.379 . S
C1950 H1934 0.931 . S
C1950 C1944 1.383 . S
C1950 C1949 1.379 . S
H1951 C1945 0.959 . S
H1952 C1945 0.961 . S
H1953 C1945 0.960 . S
H1954 C1946 0.930 . S
H1955 C1947 0.929 . S
H1956 C1964 0.929 . S
H1957 C1966 0.930 . S
H1958 C1968 0.930 . S
H1959 C1971 0.929 . S
H1960 C1974 0.930 . S
H1961 C1976 0.960 . S
H1962 C1976 0.960 . S
H1963 C1976 0.960 . S
C1964 H1956 0.929 . S
C1964 C1965 1.377 . S
C1964 C1966 1.384 . S
C1965 C1964 1.377 . S
C1965 C1971 1.390 1_455 S
C1966 H1957 0.930 . S
C1966 C1964 1.384 . S
C1966 C1967 1.372 . S
C1967 C1966 1.372 . S
C1967 C1968 1.400 1_455 S
C1967 C1972 1.490 . S
C1968 H1958 0.930 . S
C1968 C1967 1.400 1_655 S
C1968 C1971 1.386 . S
H1969 C1985 0.930 . S
H1970 C1986 0.931 . S
C1971 H1959 0.929 . S
C1971 C1965 1.390 1_655 S
C1971 C1968 1.386 . S
C1972 C1967 1.490 . S
C1972 C1974 1.395 . S
C1972 C1975 1.403 1_455 S
H1973 C1979 0.930 . S
C1974 H1960 0.930 . S
C1974 C1972 1.395 . S
C1974 C1977 1.403 . S
C1975 C1972 1.403 1_655 S
C1975 C1976 1.524 . S
C1975 C1979 1.400 . S
C1976 H1961 0.960 . S
C1976 H1962 0.960 . S
C1976 H1963 0.960 . S
C1976 C1975 1.524 . S
C1977 C1974 1.403 . S
C1977 C1978 1.392 . S
C1977 C1981 1.495 . S
C1978 C1977 1.392 . S
C1978 C1979 1.385 1_455 S
C1978 C1980 1.478 . S
C1979 H1973 0.930 . S
C1979 C1975 1.400 . S
C1979 C1978 1.385 1_655 S
C1980 C1978 1.478 . S
C1980 C1982 1.381 . S
C1980 C1986 1.383 1_455 S
C1981 C1977 1.495 . S
C1981 H1987 0.959 . S
C1981 H1988 0.961 . S
C1981 H1989 0.960 . S
C1982 C1980 1.381 . S
C1982 C1983 1.394 . S
C1982 H1990 0.930 . S
C1983 C1982 1.394 . S
C1983 C1984 1.383 . S
C1983 H1991 0.929 . S
C1984 C1983 1.383 . S
C1984 C1985 1.377 1_455 S
C1985 H1969 0.930 . S
C1985 C1984 1.377 1_655 S
C1985 C1986 1.379 . S
C1986 H1970 0.931 . S
C1986 C1980 1.383 1_655 S
C1986 C1985 1.379 . S
H1987 C1981 0.959 . S
H1988 C1981 0.961 . S
H1989 C1981 0.960 . S
H1990 C1982 0.930 . S
H1991 C1983 0.929 . S
H1992 C2000 0.929 . S
H1993 C2002 0.930 . S
H1994 C2004 0.930 . S
H1995 C2007 0.929 . S
H1996 C2010 0.930 . S
H1997 C2012 0.960 . S
H1998 C2012 0.960 . S
H1999 C2012 0.960 . S
C2000 H1992 0.929 . S
C2000 C2001 1.390 . S
C2000 C2002 1.384 . S
C2001 C2000 1.390 . S
C2001 C2007 1.378 1_545 S
C2002 H1993 0.930 . S
C2002 C2000 1.384 . S
C2002 C2003 1.403 . S
C2003 C2002 1.403 . S
C2003 C2004 1.370 1_545 S
C2003 C2008 1.490 . S
C2004 H1994 0.930 . S
C2004 C2003 1.370 1_565 S
C2004 C2007 1.386 . S
H2005 C2021 0.930 . S
H2006 C2022 0.931 . S
C2007 H1995 0.929 . S
C2007 C2001 1.378 1_565 S
C2007 C2004 1.386 . S
C2008 C2003 1.490 . S
C2008 C2010 1.382 1_545 S
C2008 C2011 1.416 . S
H2009 C2015 0.930 . S
C2010 H1996 0.930 . S
C2010 C2008 1.382 1_565 S
C2010 C2013 1.403 . S
C2011 C2008 1.416 . S
C2011 C2012 1.524 . S
C2011 C2015 1.400 . S
C2012 H1997 0.960 . S
C2012 H1998 0.960 . S
C2012 H1999 0.960 . S
C2012 C2011 1.524 . S
C2013 C2010 1.403 . S
C2013 C2014 1.410 . S
C2013 C2017 1.495 . S
C2014 C2013 1.410 . S
C2014 C2015 1.367 1_565 S
C2014 C2016 1.480 . S
C2015 H2009 0.930 . S
C2015 C2011 1.400 . S
C2015 C2014 1.367 1_545 S
C2016 C2014 1.480 . S
C2016 C2018 1.381 1_565 S
C2016 C2022 1.383 . S
C2017 C2013 1.495 . S
C2017 H2023 0.959 . S
C2017 H2024 0.961 . S
C2017 H2025 0.960 . S
C2018 C2016 1.381 1_545 S
C2018 C2019 1.394 . S
C2018 H2026 0.930 . S
C2019 C2018 1.394 . S
C2019 C2020 1.364 1_545 S
C2019 H2027 0.929 . S
C2020 C2019 1.364 1_565 S
C2020 C2021 1.397 . S
C2021 H2005 0.930 . S
C2021 C2020 1.397 . S
C2021 C2022 1.379 . S
C2022 H2006 0.931 . S
C2022 C2016 1.383 . S
C2022 C2021 1.379 . S
H2023 C2017 0.959 . S
H2024 C2017 0.961 . S
H2025 C2017 0.960 . S
H2026 C2018 0.930 . S
H2027 C2019 0.929 . S
H2028 C2036 0.929 . S
H2029 C2038 0.930 . S
H2030 C2040 0.930 . S
H2031 C2043 0.929 . S
H2032 C2046 0.930 . S
H2033 C2048 0.960 . S
H2034 C2048 0.960 . S
H2035 C2048 0.960 . S
C2036 H2028 0.929 . S
C2036 C2037 1.377 . S
C2036 C2038 1.384 . S
C2037 C2036 1.377 . S
C2037 C2043 1.390 1_455 S
C2038 H2029 0.930 . S
C2038 C2036 1.384 . S
C2038 C2039 1.372 . S
C2039 C2038 1.372 . S
C2039 C2040 1.400 1_455 S
C2039 C2044 1.490 . S
C2040 H2030 0.930 . S
C2040 C2039 1.400 1_655 S
C2040 C2043 1.386 . S
H2041 C2057 0.930 . S
H2042 C2058 0.931 . S
C2043 H2031 0.929 . S
C2043 C2037 1.390 1_655 S
C2043 C2040 1.386 . S
C2044 C2039 1.490 . S
C2044 C2046 1.395 . S
C2044 C2047 1.403 1_455 S
H2045 C2051 0.930 . S
C2046 H2032 0.930 . S
C2046 C2044 1.395 . S
C2046 C2049 1.403 . S
C2047 C2044 1.403 1_655 S
C2047 C2048 1.524 . S
C2047 C2051 1.400 . S
C2048 H2033 0.960 . S
C2048 H2034 0.960 . S
C2048 H2035 0.960 . S
C2048 C2047 1.524 . S
C2049 C2046 1.403 . S
C2049 C2050 1.392 . S
C2049 C2053 1.495 . S
C2050 C2049 1.392 . S
C2050 C2051 1.385 1_455 S
C2050 C2052 1.478 . S
C2051 H2045 0.930 . S
C2051 C2047 1.400 . S
C2051 C2050 1.385 1_655 S
C2052 C2050 1.478 . S
C2052 C2054 1.381 . S
C2052 C2058 1.383 1_455 S
C2053 C2049 1.495 . S
C2053 H2059 0.959 . S
C2053 H2060 0.961 . S
C2053 H2061 0.960 . S
C2054 C2052 1.381 . S
C2054 C2055 1.394 . S
C2054 H2062 0.930 . S
C2055 C2054 1.394 . S
C2055 C2056 1.383 . S
C2055 H2063 0.929 . S
C2056 C2055 1.383 . S
C2056 C2057 1.377 1_455 S
C2057 H2041 0.930 . S
C2057 C2056 1.377 1_655 S
C2057 C2058 1.379 . S
C2058 H2042 0.931 . S
C2058 C2052 1.383 1_655 S
C2058 C2057 1.379 . S
H2059 C2053 0.959 . S
H2060 C2053 0.961 . S
H2061 C2053 0.960 . S
H2062 C2054 0.930 . S
H2063 C2055 0.929 . S
H2064 C2072 0.929 . S
H2065 C2074 0.930 . S
H2066 C2076 0.930 . S
H2067 C2079 0.929 . S
H2068 C2082 0.930 . S
H2069 C2084 0.960 . S
H2070 C2084 0.960 1_545 S
H2071 C2084 0.960 . S
C2072 H2064 0.929 . S
C2072 C2073 1.394 . S
C2072 C2074 1.384 . S
C2073 C2072 1.394 . S
C2073 C2079 1.374 1_545 S
C2074 H2065 0.930 . S
C2074 C2072 1.384 . S
C2074 C2075 1.372 . S
C2075 C2074 1.372 . S
C2075 C2076 1.400 1_545 S
C2075 C2080 1.490 . S
C2076 H2066 0.930 . S
C2076 C2075 1.400 1_565 S
C2076 C2079 1.386 . S
H2077 C2093 0.930 . S
H2078 C2094 0.931 . S
C2079 H2067 0.929 . S
C2079 C2073 1.374 1_565 S
C2079 C2076 1.386 . S
C2080 C2075 1.490 . S
C2080 C2082 1.395 . S
C2080 C2083 1.401 1_545 S
H2081 C2087 0.935 . S
C2082 H2068 0.930 . S
C2082 C2080 1.395 . S
C2082 C2085 1.403 . S
C2083 C2080 1.401 1_565 S
C2083 C2084 1.525 . S
C2083 C2087 1.400 . S
C2084 H2069 0.960 . S
C2084 H2070 0.960 1_565 S
C2084 H2071 0.960 . S
C2084 C2083 1.525 . S
C2085 C2082 1.403 . S
C2085 C2086 1.392 . S
C2085 C2089 1.495 . S
C2086 C2085 1.392 . S
C2086 C2087 1.382 1_545 S
C2086 C2088 1.479 . S
C2087 H2081 0.935 . S
C2087 C2083 1.400 . S
C2087 C2086 1.382 1_565 S
C2088 C2086 1.479 . S
C2088 C2090 1.408 . S
C2088 C2094 1.355 1_545 S
C2089 C2085 1.495 . S
C2089 H2095 0.959 . S
C2089 H2096 0.961 1_545 S
C2089 H2097 0.960 . S
C2090 C2088 1.408 . S
C2090 C2091 1.394 . S
C2090 H2098 0.930 . S
C2091 C2090 1.394 . S
C2091 C2092 1.385 . S
C2091 H2099 0.929 . S
C2092 C2091 1.385 . S
C2092 C2093 1.376 1_545 S
C2093 H2077 0.930 . S
C2093 C2092 1.376 1_565 S
C2093 C2094 1.379 . S
C2094 H2078 0.931 . S
C2094 C2088 1.355 1_565 S
C2094 C2093 1.379 . S
H2095 C2089 0.959 . S
H2096 C2089 0.961 1_565 S
H2097 C2089 0.960 . S
H2098 C2090 0.930 . S
H2099 C2091 0.929 . S
H2100 C2108 0.928 . S
H2101 C2110 0.930 1_655 S
H2102 C2112 0.930 . S
H2103 C2115 0.929 . S
H2104 C2118 0.930 . S
H2105 C2120 0.960 . S
H2106 C2120 0.960 . S
H2107 C2120 0.960 . S
C2108 H2100 0.928 . S
C2108 C2109 1.376 1_655 S
C2108 C2110 1.384 1_655 S
C2109 C2108 1.376 1_455 S
C2109 C2115 1.392 . S
C2110 H2101 0.930 1_455 S
C2110 C2108 1.384 1_455 S
C2110 C2111 1.371 . S
C2111 C2110 1.371 . S
C2111 C2112 1.402 . S
C2111 C2116 1.492 . S
C2112 H2102 0.930 . S
C2112 C2111 1.402 . S
C2112 C2115 1.386 . S
H2113 C2129 0.930 . S
H2114 C2130 0.931 . S
C2115 H2103 0.929 . S
C2115 C2109 1.392 . S
C2115 C2112 1.386 . S
C2116 C2111 1.492 . S
C2116 C2118 1.395 . S
C2116 C2119 1.403 1_455 S
H2117 C2123 0.930 . S
C2118 H2104 0.930 . S
C2118 C2116 1.395 . S
C2118 C2121 1.403 . S
C2119 C2116 1.403 1_655 S
C2119 C2120 1.524 . S
C2119 C2123 1.400 . S
C2120 H2105 0.960 . S
C2120 H2106 0.960 . S
C2120 H2107 0.960 . S
C2120 C2119 1.524 . S
C2121 C2118 1.403 . S
C2121 C2122 1.392 . S
C2121 C2125 1.495 . S
C2122 C2121 1.392 . S
C2122 C2123 1.385 1_455 S
C2122 C2124 1.478 . S
C2123 H2117 0.930 . S
C2123 C2119 1.400 . S
C2123 C2122 1.385 1_655 S
C2124 C2122 1.478 . S
C2124 C2126 1.381 . S
C2124 C2130 1.383 . S
C2125 C2121 1.495 . S
C2125 H2131 0.959 . S
C2125 H2132 0.961 . S
C2125 H2133 0.960 . S
C2126 C2124 1.381 . S
C2126 C2127 1.395 . S
C2126 H2134 0.930 . S
C2127 C2126 1.395 . S
C2127 C2128 1.384 . S
C2127 H2135 0.928 1_455 S
C2128 C2127 1.384 . S
C2128 C2129 1.377 . S
C2129 H2113 0.930 . S
C2129 C2128 1.377 . S
C2129 C2130 1.379 . S
C2130 H2114 0.931 . S
C2130 C2124 1.383 . S
C2130 C2129 1.379 . S
H2131 C2125 0.959 . S
H2132 C2125 0.961 . S
H2133 C2125 0.960 . S
H2134 C2126 0.930 . S
H2135 C2127 0.928 1_655 S
H2136 C2144 0.929 . S
H2137 C2146 0.930 . S
H2138 C2148 0.930 . S
H2139 C2151 0.929 . S
H2140 C2154 0.930 . S
H2141 C2156 0.960 . S
H2142 C2156 0.960 . S
H2143 C2156 0.960 . S
C2144 H2136 0.929 . S
C2144 C2145 1.390 . S
C2144 C2146 1.384 . S
C2145 C2144 1.390 . S
C2145 C2151 1.378 1_545 S
C2146 H2137 0.930 . S
C2146 C2144 1.384 . S
C2146 C2147 1.408 . S
C2147 C2146 1.408 . S
C2147 C2148 1.365 1_545 S
C2147 C2152 1.490 . S
C2148 H2138 0.930 . S
C2148 C2147 1.365 1_565 S
C2148 C2151 1.386 . S
H2149 C2165 0.930 . S
H2150 C2166 0.931 . S
C2151 H2139 0.929 . S
C2151 C2145 1.378 1_565 S
C2151 C2148 1.386 . S
C2152 C2147 1.490 . S
C2152 C2154 1.383 1_545 S
C2152 C2155 1.415 . S
H2153 C2159 0.930 . S
C2154 H2140 0.930 . S
C2154 C2152 1.383 1_565 S
C2154 C2157 1.403 . S
C2155 C2152 1.415 . S
C2155 C2156 1.524 . S
C2155 C2159 1.400 . S
C2156 H2141 0.960 . S
C2156 H2142 0.960 . S
C2156 H2143 0.960 . S
C2156 C2155 1.524 . S
C2157 C2154 1.403 . S
C2157 C2158 1.400 . S
C2157 C2161 1.495 . S
C2158 C2157 1.400 . S
C2158 C2159 1.377 1_565 S
C2158 C2160 1.479 . S
C2159 H2153 0.930 . S
C2159 C2155 1.400 . S
C2159 C2158 1.377 1_545 S
C2160 C2158 1.479 . S
C2160 C2162 1.381 1_565 S
C2160 C2166 1.383 . S
C2161 C2157 1.495 . S
C2161 H2167 0.959 . S
C2161 H2168 0.961 . S
C2161 H2169 0.960 . S
C2162 C2160 1.381 1_545 S
C2162 C2163 1.394 . S
C2162 H2170 0.930 . S
C2163 C2162 1.394 . S
C2163 C2164 1.366 1_545 S
C2163 H2171 0.929 . S
C2164 C2163 1.366 1_565 S
C2164 C2165 1.395 . S
C2165 H2149 0.930 . S
C2165 C2164 1.395 . S
C2165 C2166 1.379 . S
C2166 H2150 0.931 . S
C2166 C2160 1.383 . S
C2166 C2165 1.379 . S
H2167 C2161 0.959 . S
H2168 C2161 0.961 . S
H2169 C2161 0.960 . S
H2170 C2162 0.930 . S
H2171 C2163 0.929 . S
H2172 C2180 0.929 . S
H2173 C2182 0.930 . S
H2174 C2184 0.930 . S
H2175 C2187 0.929 . S
H2176 C2190 0.932 . S
H2177 C2192 0.960 . S
H2178 C2192 0.960 . S
H2179 C2192 0.960 1_655 S
C2180 H2172 0.929 . S
C2180 C2181 1.377 . S
C2180 C2182 1.384 . S
C2181 C2180 1.377 . S
C2181 C2187 1.390 1_455 S
C2182 H2173 0.930 . S
C2182 C2180 1.384 . S
C2182 C2183 1.372 . S
C2183 C2182 1.372 . S
C2183 C2184 1.400 1_455 S
C2183 C2188 1.490 . S
C2184 H2174 0.930 . S
C2184 C2183 1.400 1_655 S
C2184 C2187 1.386 . S
H2185 C2201 0.930 . S
H2186 C2202 0.931 . S
C2187 H2175 0.929 . S
C2187 C2181 1.390 1_655 S
C2187 C2184 1.386 . S
C2188 C2183 1.490 . S
C2188 C2190 1.392 1_455 S
C2188 C2191 1.403 . S
H2189 C2195 0.930 . S
C2190 H2176 0.932 . S
C2190 C2188 1.392 1_655 S
C2190 C2193 1.403 . S
C2191 C2188 1.403 . S
C2191 C2192 1.524 . S
C2191 C2195 1.400 . S
C2192 H2177 0.960 . S
C2192 H2178 0.960 . S
C2192 H2179 0.960 1_455 S
C2192 C2191 1.524 . S
C2193 C2190 1.403 . S
C2193 C2194 1.388 1_655 S
C2193 C2197 1.504 . S
C2194 C2193 1.388 1_455 S
C2194 C2195 1.385 . S
C2194 C2196 1.479 . S
C2195 H2189 0.930 . S
C2195 C2191 1.400 . S
C2195 C2194 1.385 . S
C2196 C2194 1.479 . S
C2196 C2198 1.405 . S
C2196 C2202 1.359 1_455 S
C2197 C2193 1.504 . S
C2197 H2203 0.959 . S
C2197 H2204 0.961 . S
C2197 H2205 0.960 1_655 S
C2198 C2196 1.405 . S
C2198 C2199 1.394 . S
C2198 H2206 0.930 . S
C2199 C2198 1.394 . S
C2199 C2200 1.415 . S
C2199 H2207 0.929 . S
C2200 C2199 1.415 . S
C2200 C2201 1.345 1_455 S
C2201 H2185 0.930 . S
C2201 C2200 1.345 1_655 S
C2201 C2202 1.379 . S
C2202 H2186 0.931 . S
C2202 C2196 1.359 1_655 S
C2202 C2201 1.379 . S
H2203 C2197 0.959 . S
H2204 C2197 0.961 . S
H2205 C2197 0.960 1_455 S
H2206 C2198 0.930 . S
H2207 C2199 0.929 . S
H2208 C2216 0.929 . S
H2209 C2218 0.930 . S
H2210 C2220 0.930 . S
H2211 C2223 0.929 . S
H2212 C2226 0.930 . S
H2213 C2228 0.960 . S
H2214 C2228 0.960 1_545 S
H2215 C2228 0.960 . S
C2216 H2208 0.929 . S
C2216 C2217 1.391 . S
C2216 C2218 1.384 . S
C2217 C2216 1.391 . S
C2217 C2223 1.376 1_545 S
C2218 H2209 0.930 . S
C2218 C2216 1.384 . S
C2218 C2219 1.372 . S
C2219 C2218 1.372 . S
C2219 C2220 1.400 1_545 S
C2219 C2224 1.490 . S
C2220 H2210 0.930 . S
C2220 C2219 1.400 1_565 S
C2220 C2223 1.386 . S
H2221 C2237 0.930 . S
H2222 C2238 0.931 . S
C2223 H2211 0.929 . S
C2223 C2217 1.376 1_565 S
C2223 C2220 1.386 . S
C2224 C2219 1.490 . S
C2224 C2226 1.395 . S
C2224 C2227 1.403 1_545 S
H2225 C2231 0.930 . S
C2226 H2212 0.930 . S
C2226 C2224 1.395 . S
C2226 C2229 1.403 . S
C2227 C2224 1.403 1_565 S
C2227 C2228 1.524 . S
C2227 C2231 1.400 . S
C2228 H2213 0.960 . S
C2228 H2214 0.960 1_565 S
C2228 H2215 0.960 . S
C2228 C2227 1.524 . S
C2229 C2226 1.403 . S
C2229 C2230 1.392 . S
C2229 C2233 1.495 . S
C2230 C2229 1.392 . S
C2230 C2231 1.385 1_545 S
C2230 C2232 1.478 . S
C2231 H2225 0.930 . S
C2231 C2227 1.400 . S
C2231 C2230 1.385 1_565 S
C2232 C2230 1.478 . S
C2232 C2234 1.381 . S
C2232 C2238 1.383 1_545 S
C2233 C2229 1.495 . S
C2233 H2239 0.959 . S
C2233 H2240 0.961 . S
C2233 H2241 0.960 . S
C2234 C2232 1.381 . S
C2234 C2235 1.394 . S
C2234 H2242 0.930 . S
C2235 C2234 1.394 . S
C2235 C2236 1.398 . S
C2235 H2243 0.929 . S
C2236 C2235 1.398 . S
C2236 C2237 1.362 1_545 S
C2237 H2221 0.930 . S
C2237 C2236 1.362 1_565 S
C2237 C2238 1.379 . S
C2238 H2222 0.931 . S
C2238 C2232 1.383 1_565 S
C2238 C2237 1.379 . S
H2239 C2233 0.959 . S
H2240 C2233 0.961 . S
H2241 C2233 0.960 . S
H2242 C2234 0.930 . S
H2243 C2235 0.929 . S
H2244 C2252 0.929 . S
H2245 C2254 0.930 . S
H2246 C2256 0.930 . S
H2247 C2259 0.929 . S
H2248 C2262 0.930 . S
H2249 C2264 0.960 . S
H2250 C2264 0.924 1_655 S
H2251 C2264 0.960 . S
C2252 H2244 0.929 . S
C2252 C2253 1.335 1_655 S
C2252 C2254 1.384 . S
C2253 C2252 1.335 1_455 S
C2253 C2259 1.432 . S
C2254 H2245 0.930 . S
C2254 C2252 1.384 . S
C2254 C2255 1.368 . S
C2255 C2254 1.368 . S
C2255 C2256 1.404 1_655 S
C2255 C2260 1.490 . S
C2256 H2246 0.930 . S
C2256 C2255 1.404 1_455 S
C2256 C2259 1.386 . S
H2257 C2273 0.930 . S
H2258 C2274 0.931 . S
C2259 H2247 0.929 . S
C2259 C2253 1.432 . S
C2259 C2256 1.386 . S
C2260 C2255 1.490 . S
C2260 C2262 1.397 . S
C2260 C2263 1.400 1_655 S
H2261 C2267 0.930 . S
C2262 H2248 0.930 . S
C2262 C2260 1.397 . S
C2262 C2265 1.403 . S
C2263 C2260 1.400 1_455 S
C2263 C2264 1.524 . S
C2263 C2267 1.400 . S
C2264 H2249 0.960 . S
C2264 H2250 0.924 1_455 S
C2264 H2251 0.960 . S
C2264 C2263 1.524 . S
C2265 C2262 1.403 . S
C2265 C2266 1.404 . S
C2265 C2269 1.495 . S
C2266 C2265 1.404 . S
C2266 C2267 1.375 1_655 S
C2266 C2268 1.477 . S
C2267 H2261 0.930 . S
C2267 C2263 1.400 . S
C2267 C2266 1.375 1_455 S
C2268 C2266 1.477 . S
C2268 C2270 1.388 . S
C2268 C2274 1.375 1_655 S
C2269 C2265 1.495 . S
C2269 H2275 0.959 . S
C2269 H2276 0.961 . S
C2269 H2277 0.960 . S
C2270 C2268 1.388 . S
C2270 C2271 1.394 . S
C2270 H2278 0.930 . S
C2271 C2270 1.394 . S
C2271 C2272 1.345 1_655 S
C2271 H2279 0.929 . S
C2272 C2271 1.345 1_455 S
C2272 C2273 1.414 . S
C2273 H2257 0.930 . S
C2273 C2272 1.414 . S
C2273 C2274 1.379 . S
C2274 H2258 0.931 . S
C2274 C2268 1.375 1_455 S
C2274 C2273 1.379 . S
H2275 C2269 0.959 . S
H2276 C2269 0.961 . S
H2277 C2269 0.960 . S
H2278 C2270 0.930 . S
H2279 C2271 0.929 . S
H2280 C2288 0.929 . S
H2281 C2290 0.930 . S
H2282 C2292 0.930 . S
H2283 C2295 0.929 . S
H2284 C2298 0.930 1_565 S
H2285 C2300 0.960 . S
H2286 C2300 0.960 . S
H2287 C2300 0.960 1_565 S
C2288 H2280 0.929 . S
C2288 C2289 1.390 . S
C2288 C2290 1.384 . S
C2289 C2288 1.390 . S
C2289 C2295 1.377 1_545 S
C2290 H2281 0.930 . S
C2290 C2288 1.384 . S
C2290 C2291 1.372 . S
C2291 C2290 1.372 . S
C2291 C2292 1.400 1_545 S
C2291 C2296 1.490 . S
C2292 H2282 0.930 . S
C2292 C2291 1.400 1_565 S
C2292 C2295 1.386 . S
H2293 C2309 0.930 . S
H2294 C2310 0.931 . S
C2295 H2283 0.929 . S
C2295 C2289 1.377 1_565 S
C2295 C2292 1.386 . S
C2296 C2291 1.490 . S
C2296 C2298 1.395 . S
C2296 C2299 1.403 . S
H2297 C2303 0.930 . S
C2298 H2284 0.930 1_545 S
C2298 C2296 1.395 . S
C2298 C2301 1.403 1_545 S
C2299 C2296 1.403 . S
C2299 C2300 1.524 . S
C2299 C2303 1.400 . S
C2300 H2285 0.960 . S
C2300 H2286 0.960 . S
C2300 H2287 0.960 1_545 S
C2300 C2299 1.524 . S
C2301 C2298 1.403 1_565 S
C2301 C2302 1.392 1_565 S
C2301 C2305 1.495 . S
C2302 C2301 1.392 1_545 S
C2302 C2303 1.387 . S
C2302 C2304 1.477 1_545 S
C2303 H2297 0.930 . S
C2303 C2299 1.400 . S
C2303 C2302 1.387 . S
C2304 C2302 1.477 1_565 S
C2304 C2306 1.384 1_565 S
C2304 C2310 1.380 . S
C2305 C2301 1.495 . S
C2305 H2311 0.959 . S
C2305 H2312 0.961 . S
C2305 H2313 0.960 1_565 S
C2306 C2304 1.384 1_545 S
C2306 C2307 1.394 . S
C2306 H2314 0.930 . S
C2307 C2306 1.394 . S
C2307 C2308 1.383 1_545 S
C2307 H2315 0.929 . S
C2308 C2307 1.383 1_565 S
C2308 C2309 1.377 . S
C2309 H2293 0.930 . S
C2309 C2308 1.377 . S
C2309 C2310 1.379 . S
C2310 H2294 0.931 . S
C2310 C2304 1.380 . S
C2310 C2309 1.379 . S
H2311 C2305 0.959 . S
H2312 C2305 0.961 . S
H2313 C2305 0.960 1_545 S
H2314 C2306 0.930 . S
H2315 C2307 0.929 . S
H2316 C2324 0.929 . S
H2317 C2326 0.930 . S
H2318 C2328 0.930 . S
H2319 C2331 0.929 . S
H2320 C2334 0.930 . S
H2321 C2336 0.960 . S
H2322 C2336 0.960 . S
H2323 C2336 0.960 . S
C2324 H2316 0.929 . S
C2324 C2325 1.350 1_655 S
C2324 C2326 1.384 . S
C2325 C2324 1.350 1_455 S
C2325 C2331 1.417 . S
C2326 H2317 0.930 . S
C2326 C2324 1.384 . S
C2326 C2327 1.369 1_655 S
C2327 C2326 1.369 1_455 S
C2327 C2328 1.402 . S
C2327 C2332 1.490 . S
C2328 H2318 0.930 . S
C2328 C2327 1.402 . S
C2328 C2331 1.386 . S
H2329 C2345 0.930 . S
H2330 C2346 0.931 . S
C2331 H2319 0.929 . S
C2331 C2325 1.417 . S
C2331 C2328 1.386 . S
C2332 C2327 1.490 . S
C2332 C2334 1.399 . S
C2332 C2335 1.399 1_455 S
H2333 C2339 0.930 . S
C2334 H2320 0.930 . S
C2334 C2332 1.399 . S
C2334 C2337 1.403 . S
C2335 C2332 1.399 1_655 S
C2335 C2336 1.524 . S
C2335 C2339 1.400 . S
C2336 H2321 0.960 . S
C2336 H2322 0.960 . S
C2336 H2323 0.960 . S
C2336 C2335 1.524 . S
C2337 C2334 1.403 . S
C2337 C2338 1.392 . S
C2337 C2341 1.495 . S
C2338 C2337 1.392 . S
C2338 C2339 1.385 1_455 S
C2338 C2340 1.478 . S
C2339 H2333 0.930 . S
C2339 C2335 1.400 . S
C2339 C2338 1.385 1_655 S
C2340 C2338 1.478 . S
C2340 C2342 1.381 1_455 S
C2340 C2346 1.383 . S
C2341 C2337 1.495 . S
C2341 H2347 0.959 . S
C2341 H2348 0.961 . S
C2341 H2349 0.960 . S
C2342 C2340 1.381 1_655 S
C2342 C2343 1.394 . S
C2342 H2350 0.930 . S
C2343 C2342 1.394 . S
C2343 C2344 1.383 1_655 S
C2343 H2351 0.929 . S
C2344 C2343 1.383 1_455 S
C2344 C2345 1.377 . S
C2345 H2329 0.930 . S
C2345 C2344 1.377 . S
C2345 C2346 1.379 . S
C2346 H2330 0.931 . S
C2346 C2340 1.383 . S
C2346 C2345 1.379 . S
H2347 C2341 0.959 . S
H2348 C2341 0.961 . S
H2349 C2341 0.960 . S
H2350 C2342 0.930 . S
H2351 C2343 0.929 . S
H2352 C2360 0.929 . S
H2353 C2362 0.930 . S
H2354 C2364 0.930 . S
H2355 C2367 0.929 . S
H2356 C2370 0.930 . S
H2357 C2372 0.960 . S
H2358 C2372 0.960 1_545 S
H2359 C2372 0.960 . S
C2360 H2352 0.929 . S
C2360 C2361 1.390 . S
C2360 C2362 1.384 . S
C2361 C2360 1.390 . S
C2361 C2367 1.378 1_545 S
C2362 H2353 0.930 . S
C2362 C2360 1.384 . S
C2362 C2363 1.372 . S
C2363 C2362 1.372 . S
C2363 C2364 1.400 1_545 S
C2363 C2368 1.490 . S
C2364 H2354 0.930 . S
C2364 C2363 1.400 1_565 S
C2364 C2367 1.386 . S
H2365 C2381 0.930 . S
H2366 C2382 0.931 . S
C2367 H2355 0.929 . S
C2367 C2361 1.378 1_565 S
C2367 C2364 1.386 . S
C2368 C2363 1.490 . S
C2368 C2370 1.395 . S
C2368 C2371 1.398 1_545 S
H2369 C2375 0.930 . S
C2370 H2356 0.930 . S
C2370 C2368 1.395 . S
C2370 C2373 1.403 . S
C2371 C2368 1.398 1_565 S
C2371 C2372 1.528 . S
C2371 C2375 1.401 . S
C2372 H2357 0.960 . S
C2372 H2358 0.960 1_565 S
C2372 H2359 0.960 . S
C2372 C2371 1.528 . S
C2373 C2370 1.403 . S
C2373 C2374 1.392 . S
C2373 C2377 1.495 . S
C2374 C2373 1.392 . S
C2374 C2375 1.385 1_545 S
C2374 C2376 1.479 . S
C2375 H2369 0.930 . S
C2375 C2371 1.401 . S
C2375 C2374 1.385 1_565 S
C2376 C2374 1.479 . S
C2376 C2378 1.412 . S
C2376 C2382 1.352 1_545 S
C2377 C2373 1.495 . S
C2377 H2383 0.959 . S
C2377 H2384 0.961 1_545 S
C2377 H2385 0.960 . S
C2378 C2376 1.412 . S
C2378 C2379 1.394 . S
C2378 H2386 0.930 . S
C2379 C2378 1.394 . S
C2379 C2380 1.386 . S
C2379 H2387 0.929 . S
C2380 C2379 1.386 . S
C2380 C2381 1.374 1_545 S
C2381 H2365 0.930 . S
C2381 C2380 1.374 1_565 S
C2381 C2382 1.379 . S
C2382 H2366 0.931 . S
C2382 C2376 1.352 1_565 S
C2382 C2381 1.379 . S
H2383 C2377 0.959 . S
H2384 C2377 0.961 1_565 S
H2385 C2377 0.960 . S
H2386 C2378 0.930 . S
H2387 C2379 0.929 . S
H2388 C2396 0.929 . S
H2389 C2398 0.930 . S
H2390 C2400 0.930 . S
H2391 C2403 0.929 . S
H2392 C2406 0.930 . S
H2393 C2408 0.960 . S
H2394 C2408 0.960 . S
H2395 C2408 0.960 . S
C2396 H2388 0.929 . S
C2396 C2397 1.380 . S
C2396 C2398 1.384 . S
C2397 C2396 1.380 . S
C2397 C2403 1.388 1_565 S
C2398 H2389 0.930 . S
C2398 C2396 1.384 . S
C2398 C2399 1.388 . S
C2399 C2398 1.388 . S
C2399 C2400 1.384 1_565 S
C2399 C2404 1.490 . S
C2400 H2390 0.930 . S
C2400 C2399 1.384 1_545 S
C2400 C2403 1.386 . S
H2401 C2417 0.930 . S
H2402 C2418 0.931 . S
C2403 H2391 0.929 . S
C2403 C2397 1.388 1_545 S
C2403 C2400 1.386 . S
C2404 C2399 1.490 . S
C2404 C2406 1.389 1_565 S
C2404 C2407 1.408 . S
H2405 C2411 0.930 . S
C2406 H2392 0.930 . S
C2406 C2404 1.389 1_545 S
C2406 C2409 1.403 . S
C2407 C2404 1.408 . S
C2407 C2408 1.524 . S
C2407 C2411 1.400 . S
C2408 H2393 0.960 . S
C2408 H2394 0.960 . S
C2408 H2395 0.960 . S
C2408 C2407 1.524 . S
C2409 C2406 1.403 . S
C2409 C2410 1.392 . S
C2409 C2413 1.495 . S
C2410 C2409 1.392 . S
C2410 C2411 1.385 1_545 S
C2410 C2412 1.478 . S
C2411 H2405 0.930 . S
C2411 C2407 1.400 . S
C2411 C2410 1.385 1_565 S
C2412 C2410 1.478 . S
C2412 C2414 1.381 1_545 S
C2412 C2418 1.383 . S
C2413 C2409 1.495 . S
C2413 H2419 0.959 . S
C2413 H2420 0.961 . S
C2413 H2421 0.960 . S
C2414 C2412 1.381 1_565 S
C2414 C2415 1.394 . S
C2414 H2422 0.930 . S
C2415 C2414 1.394 . S
C2415 C2416 1.354 1_565 S
C2415 H2423 0.929 . S
C2416 C2415 1.354 1_545 S
C2416 C2417 1.409 . S
C2417 H2401 0.930 . S
C2417 C2416 1.409 . S
C2417 C2418 1.379 . S
C2418 H2402 0.931 . S
C2418 C2412 1.383 . S
C2418 C2417 1.379 . S
H2419 C2413 0.959 . S
H2420 C2413 0.961 . S
H2421 C2413 0.960 . S
H2422 C2414 0.930 . S
H2423 C2415 0.929 . S
H2424 C2432 0.929 . S
H2425 C2434 0.930 . S
H2426 C2436 0.930 . S
H2427 C2439 0.929 . S
H2428 C2442 0.930 . S
H2429 C2444 0.960 . S
H2430 C2444 0.960 1_455 S
H2431 C2444 0.960 . S
C2432 H2424 0.929 . S
C2432 C2433 1.377 . S
C2432 C2434 1.384 . S
C2433 C2432 1.377 . S
C2433 C2439 1.390 1_455 S
C2434 H2425 0.930 . S
C2434 C2432 1.384 . S
C2434 C2435 1.372 . S
C2435 C2434 1.372 . S
C2435 C2436 1.400 1_455 S
C2435 C2440 1.490 . S
C2436 H2426 0.930 . S
C2436 C2435 1.400 1_655 S
C2436 C2439 1.386 . S
H2437 C2453 0.930 . S
H2438 C2454 0.931 . S
C2439 H2427 0.929 . S
C2439 C2433 1.390 1_655 S
C2439 C2436 1.386 . S
C2440 C2435 1.490 . S
C2440 C2442 1.395 . S
C2440 C2443 1.403 1_455 S
H2441 C2447 0.930 . S
C2442 H2428 0.930 . S
C2442 C2440 1.395 . S
C2442 C2445 1.403 . S
C2443 C2440 1.403 1_655 S
C2443 C2444 1.524 . S
C2443 C2447 1.400 . S
C2444 H2429 0.960 . S
C2444 H2430 0.960 1_655 S
C2444 H2431 0.960 . S
C2444 C2443 1.524 . S
C2445 C2442 1.403 . S
C2445 C2446 1.392 . S
C2445 C2449 1.495 . S
C2446 C2445 1.392 . S
C2446 C2447 1.385 1_455 S
C2446 C2448 1.478 . S
C2447 H2441 0.930 . S
C2447 C2443 1.400 . S
C2447 C2446 1.385 1_655 S
C2448 C2446 1.478 . S
C2448 C2450 1.381 . S
C2448 C2454 1.383 1_455 S
C2449 C2445 1.495 . S
C2449 H2455 0.959 . S
C2449 H2456 0.961 . S
C2449 H2457 0.960 . S
C2450 C2448 1.381 . S
C2450 C2451 1.394 . S
C2450 H2458 0.930 . S
C2451 C2450 1.394 . S
C2451 C2452 1.383 . S
C2451 H2459 0.929 . S
C2452 C2451 1.383 . S
C2452 C2453 1.377 1_455 S
C2453 H2437 0.930 . S
C2453 C2452 1.377 1_655 S
C2453 C2454 1.379 . S
C2454 H2438 0.931 . S
C2454 C2448 1.383 1_655 S
C2454 C2453 1.379 . S
H2455 C2449 0.959 . S
H2456 C2449 0.961 . S
H2457 C2449 0.960 . S
H2458 C2450 0.930 . S
H2459 C2451 0.929 . S
H2460 C2468 0.929 . S
H2461 C2470 0.930 . S
H2462 C2472 0.930 . S
H2463 C2475 0.929 . S
H2464 C2478 0.930 . S
H2465 C2480 0.960 . S
H2466 C2480 0.960 . S
H2467 C2480 0.960 . S
C2468 H2460 0.929 . S
C2468 C2469 1.387 . S
C2468 C2470 1.384 . S
C2469 C2468 1.387 . S
C2469 C2475 1.381 1_545 S
C2470 H2461 0.930 . S
C2470 C2468 1.384 . S
C2470 C2471 1.391 . S
C2471 C2470 1.391 . S
C2471 C2472 1.382 1_545 S
C2471 C2476 1.490 . S
C2472 H2462 0.930 . S
C2472 C2471 1.382 1_565 S
C2472 C2475 1.386 . S
H2473 C2489 0.930 . S
H2474 C2490 0.931 . S
C2475 H2463 0.929 . S
C2475 C2469 1.381 1_565 S
C2475 C2472 1.386 . S
C2476 C2471 1.490 . S
C2476 C2478 1.385 1_545 S
C2476 C2479 1.412 . S
H2477 C2483 0.930 . S
C2478 H2464 0.930 . S
C2478 C2476 1.385 1_565 S
C2478 C2481 1.403 . S
C2479 C2476 1.412 . S
C2479 C2480 1.524 . S
C2479 C2483 1.400 . S
C2480 H2465 0.960 . S
C2480 H2466 0.960 . S
C2480 H2467 0.960 . S
C2480 C2479 1.524 . S
C2481 C2478 1.403 . S
C2481 C2482 1.392 . S
C2481 C2485 1.495 . S
C2482 C2481 1.392 . S
C2482 C2483 1.385 1_565 S
C2482 C2484 1.478 . S
C2483 H2477 0.930 . S
C2483 C2479 1.400 . S
C2483 C2482 1.385 1_545 S
C2484 C2482 1.478 . S
C2484 C2486 1.381 1_565 S
C2484 C2490 1.383 . S
C2485 C2481 1.495 . S
C2485 H2491 0.959 . S
C2485 H2492 0.961 . S
C2485 H2493 0.960 . S
C2486 C2484 1.381 1_545 S
C2486 C2487 1.394 . S
C2486 H2494 0.930 . S
C2487 C2486 1.394 . S
C2487 C2488 1.362 1_545 S
C2487 H2495 0.929 . S
C2488 C2487 1.362 1_565 S
C2488 C2489 1.401 . S
C2489 H2473 0.930 . S
C2489 C2488 1.401 . S
C2489 C2490 1.379 . S
C2490 H2474 0.931 . S
C2490 C2484 1.383 . S
C2490 C2489 1.379 . S
H2491 C2485 0.959 . S
H2492 C2485 0.961 . S
H2493 C2485 0.960 . S
H2494 C2486 0.930 . S
H2495 C2487 0.929 . S
H2496 C2504 0.929 . S
H2497 C2506 0.930 . S
H2498 C2508 0.930 . S
H2499 C2511 0.929 . S
H2500 C2514 0.930 . S
H2501 C2516 0.961 . S
H2502 C2516 0.947 1_455 S
H2503 C2516 0.972 . S
C2504 H2496 0.929 . S
C2504 C2505 1.377 . S
C2504 C2506 1.384 . S
C2505 C2504 1.377 . S
C2505 C2511 1.390 1_455 S
C2506 H2497 0.930 . S
C2506 C2504 1.384 . S
C2506 C2507 1.372 . S
C2507 C2506 1.372 . S
C2507 C2508 1.400 1_455 S
C2507 C2512 1.490 . S
C2508 H2498 0.930 . S
C2508 C2507 1.400 1_655 S
C2508 C2511 1.386 . S
H2509 C2525 0.930 . S
H2510 C2526 0.931 . S
C2511 H2499 0.929 . S
C2511 C2505 1.390 1_655 S
C2511 C2508 1.386 . S
C2512 C2507 1.490 . S
C2512 C2514 1.395 . S
C2512 C2515 1.406 . S
H2513 C2519 0.926 1_655 S
C2514 H2500 0.930 . S
C2514 C2512 1.395 . S
C2514 C2517 1.403 . S
C2515 C2512 1.406 . S
C2515 C2516 1.522 1_455 S
C2515 C2519 1.400 . S
C2516 H2501 0.961 . S
C2516 H2502 0.947 1_655 S
C2516 H2503 0.972 . S
C2516 C2515 1.522 1_655 S
C2517 C2514 1.403 . S
C2517 C2518 1.392 . S
C2517 C2521 1.495 . S
C2518 C2517 1.392 . S
C2518 C2519 1.387 . S
C2518 C2520 1.478 . S
C2519 H2513 0.926 1_455 S
C2519 C2515 1.400 . S
C2519 C2518 1.387 . S
C2520 C2518 1.478 . S
C2520 C2522 1.381 . S
C2520 C2526 1.383 1_455 S
C2521 C2517 1.495 . S
C2521 H2527 0.959 . S
C2521 H2528 0.961 1_455 S
C2521 H2529 0.960 . S
C2522 C2520 1.381 . S
C2522 C2523 1.394 . S
C2522 H2530 0.930 . S
C2523 C2522 1.394 . S
C2523 C2524 1.383 . S
C2523 H2531 0.929 . S
C2524 C2523 1.383 . S
C2524 C2525 1.377 1_455 S
C2525 H2509 0.930 . S
C2525 C2524 1.377 1_655 S
C2525 C2526 1.379 . S
C2526 H2510 0.931 . S
C2526 C2520 1.383 1_655 S
C2526 C2525 1.379 . S
H2527 C2521 0.959 . S
H2528 C2521 0.961 1_655 S
H2529 C2521 0.960 . S
H2530 C2522 0.930 . S
H2531 C2523 0.929 . S
H2532 C2540 0.929 . S
H2533 C2542 0.930 . S
H2534 C2544 0.930 . S
H2535 C2547 0.929 . S
H2536 C2550 0.930 . S
H2537 C2552 0.960 . S
H2538 C2552 0.960 . S
H2539 C2552 0.960 . S
C2540 H2532 0.929 . S
C2540 C2541 1.382 . S
C2540 C2542 1.384 . S
C2541 C2540 1.382 . S
C2541 C2547 1.386 1_565 S
C2542 H2533 0.930 . S
C2542 C2540 1.384 . S
C2542 C2543 1.401 . S
C2543 C2542 1.401 . S
C2543 C2544 1.372 1_565 S
C2543 C2548 1.490 . S
C2544 H2534 0.930 . S
C2544 C2543 1.372 1_545 S
C2544 C2547 1.386 . S
H2545 C2561 0.930 . S
H2546 C2562 0.931 . S
C2547 H2535 0.929 . S
C2547 C2541 1.386 1_545 S
C2547 C2544 1.386 . S
C2548 C2543 1.490 . S
C2548 C2550 1.387 1_565 S
C2548 C2551 1.411 . S
H2549 C2555 0.930 . S
C2550 H2536 0.930 . S
C2550 C2548 1.387 1_545 S
C2550 C2553 1.403 . S
C2551 C2548 1.411 . S
C2551 C2552 1.524 . S
C2551 C2555 1.400 . S
C2552 H2537 0.960 . S
C2552 H2538 0.960 . S
C2552 H2539 0.960 . S
C2552 C2551 1.524 . S
C2553 C2550 1.403 . S
C2553 C2554 1.401 . S
C2553 C2557 1.495 . S
C2554 C2553 1.401 . S
C2554 C2555 1.376 1_545 S
C2554 C2556 1.479 . S
C2555 H2549 0.930 . S
C2555 C2551 1.400 . S
C2555 C2554 1.376 1_565 S
C2556 C2554 1.479 . S
C2556 C2558 1.381 1_545 S
C2556 C2562 1.383 . S
C2557 C2553 1.495 . S
C2557 H2563 0.959 . S
C2557 H2564 0.961 . S
C2557 H2565 0.986 . S
C2558 C2556 1.381 1_565 S
C2558 C2559 1.394 . S
C2558 H2566 0.930 . S
C2559 C2558 1.394 . S
C2559 C2560 1.358 1_565 S
C2559 H2567 0.929 . S
C2560 C2559 1.358 1_545 S
C2560 C2561 1.403 . S
C2561 H2545 0.930 . S
C2561 C2560 1.403 . S
C2561 C2562 1.379 . S
C2562 H2546 0.931 . S
C2562 C2556 1.383 . S
C2562 C2561 1.379 . S
H2563 C2557 0.959 . S
H2564 C2557 0.961 . S
H2565 C2557 0.986 . S
H2566 C2558 0.930 . S
H2567 C2559 0.929 . S
H2568 C2576 0.929 . S
H2569 C2578 0.930 . S
H2570 C2580 0.930 . S
H2571 C2583 0.929 . S
H2572 C2586 0.930 . S
H2573 C2588 0.960 . S
H2574 C2588 0.960 1_455 S
H2575 C2588 0.960 . S
C2576 H2568 0.929 . S
C2576 C2577 1.377 . S
C2576 C2578 1.384 . S
C2577 C2576 1.377 . S
C2577 C2583 1.390 1_455 S
C2578 H2569 0.930 . S
C2578 C2576 1.384 . S
C2578 C2579 1.372 . S
C2579 C2578 1.372 . S
C2579 C2580 1.400 1_455 S
C2579 C2584 1.490 . S
C2580 H2570 0.930 . S
C2580 C2579 1.400 1_655 S
C2580 C2583 1.386 . S
H2581 C2597 0.930 . S
H2582 C2598 0.931 . S
C2583 H2571 0.929 . S
C2583 C2577 1.390 1_655 S
C2583 C2580 1.386 . S
C2584 C2579 1.490 . S
C2584 C2586 1.395 . S
C2584 C2587 1.403 1_455 S
H2585 C2591 0.931 . S
C2586 H2572 0.930 . S
C2586 C2584 1.395 . S
C2586 C2589 1.403 . S
C2587 C2584 1.403 1_655 S
C2587 C2588 1.524 . S
C2587 C2591 1.400 . S
C2588 H2573 0.960 . S
C2588 H2574 0.960 1_655 S
C2588 H2575 0.960 . S
C2588 C2587 1.524 . S
C2589 C2586 1.403 . S
C2589 C2590 1.392 . S
C2589 C2593 1.495 . S
C2590 C2589 1.392 . S
C2590 C2591 1.384 1_455 S
C2590 C2592 1.478 . S
C2591 H2585 0.931 . S
C2591 C2587 1.400 . S
C2591 C2590 1.384 1_655 S
C2592 C2590 1.478 . S
C2592 C2594 1.381 . S
C2592 C2598 1.383 1_455 S
C2593 C2589 1.495 . S
C2593 H2599 0.959 . S
C2593 H2600 0.961 1_455 S
C2593 H2601 0.960 . S
C2594 C2592 1.381 . S
C2594 C2595 1.394 . S
C2594 H2602 0.930 . S
C2595 C2594 1.394 . S
C2595 C2596 1.383 . S
C2595 H2603 0.929 . S
C2596 C2595 1.383 . S
C2596 C2597 1.377 1_455 S
C2597 H2581 0.930 . S
C2597 C2596 1.377 1_655 S
C2597 C2598 1.379 . S
C2598 H2582 0.931 . S
C2598 C2592 1.383 1_655 S
C2598 C2597 1.379 . S
H2599 C2593 0.959 . S
H2600 C2593 0.961 1_655 S
H2601 C2593 0.960 . S
H2602 C2594 0.930 . S
H2603 C2595 0.929 . S
H2604 C2612 0.929 . S
H2605 C2614 0.930 . S
H2606 C2616 0.930 . S
H2607 C2619 0.929 . S
H2608 C2622 0.930 . S
H2609 C2624 0.960 . S
H2610 C2624 0.960 . S
H2611 C2624 0.960 . S
C2612 H2604 0.929 . S
C2612 C2613 1.383 . S
C2612 C2614 1.384 . S
C2613 C2612 1.383 . S
C2613 C2619 1.384 1_565 S
C2614 H2605 0.930 . S
C2614 C2612 1.384 . S
C2614 C2615 1.398 . S
C2615 C2614 1.398 . S
C2615 C2616 1.375 1_565 S
C2615 C2620 1.490 . S
C2616 H2606 0.930 . S
C2616 C2615 1.375 1_545 S
C2616 C2619 1.386 . S
H2617 C2633 0.930 . S
H2618 C2634 0.931 . S
C2619 H2607 0.929 . S
C2619 C2613 1.384 1_545 S
C2619 C2616 1.386 . S
C2620 C2615 1.490 . S
C2620 C2622 1.386 1_565 S
C2620 C2623 1.412 . S
H2621 C2627 0.930 . S
C2622 H2608 0.930 . S
C2622 C2620 1.386 1_545 S
C2622 C2625 1.403 . S
C2623 C2620 1.412 . S
C2623 C2624 1.524 . S
C2623 C2627 1.400 . S
C2624 H2609 0.960 . S
C2624 H2610 0.960 . S
C2624 H2611 0.960 . S
C2624 C2623 1.524 . S
C2625 C2622 1.403 . S
C2625 C2626 1.409 . S
C2625 C2629 1.495 . S
C2626 C2625 1.409 . S
C2626 C2627 1.368 1_545 S
C2626 C2628 1.480 . S
C2627 H2621 0.930 . S
C2627 C2623 1.400 . S
C2627 C2626 1.368 1_565 S
C2628 C2626 1.480 . S
C2628 C2630 1.381 1_545 S
C2628 C2634 1.383 . S
C2629 C2625 1.495 . S
C2629 H2635 0.959 . S
C2629 H2636 0.961 . S
C2629 H2637 0.960 . S
C2630 C2628 1.381 1_565 S
C2630 C2631 1.394 . S
C2630 H2638 0.930 . S
C2631 C2630 1.394 . S
C2631 C2632 1.358 1_565 S
C2631 H2639 0.929 . S
C2632 C2631 1.358 1_545 S
C2632 C2633 1.404 . S
C2633 H2617 0.930 . S
C2633 C2632 1.404 . S
C2633 C2634 1.379 . S
C2634 H2618 0.931 . S
C2634 C2628 1.383 . S
C2634 C2633 1.379 . S
H2635 C2629 0.959 . S
H2636 C2629 0.961 . S
H2637 C2629 0.960 . S
H2638 C2630 0.930 . S
H2639 C2631 0.929 . S
H2640 C2648 0.929 . S
H2641 C2650 0.930 . S
H2642 C2652 0.930 . S
H2643 C2655 0.929 . S
H2644 C2658 0.930 . S
H2645 C2660 0.960 . S
H2646 C2660 0.960 1_655 S
H2647 C2660 0.960 . S
C2648 H2640 0.929 . S
C2648 C2649 1.337 1_655 S
C2648 C2650 1.384 . S
C2649 C2648 1.337 1_455 S
C2649 C2655 1.430 . S
C2650 H2641 0.930 . S
C2650 C2648 1.384 . S
C2650 C2651 1.368 . S
C2651 C2650 1.368 . S
C2651 C2652 1.404 1_655 S
C2651 C2656 1.490 . S
C2652 H2642 0.930 . S
C2652 C2651 1.404 1_455 S
C2652 C2655 1.386 . S
H2653 C2669 0.930 . S
H2654 C2670 0.931 . S
C2655 H2643 0.929 . S
C2655 C2649 1.430 . S
C2655 C2652 1.386 . S
C2656 C2651 1.490 . S
C2656 C2658 1.396 . S
C2656 C2659 1.402 1_655 S
H2657 C2663 0.930 . S
C2658 H2644 0.930 . S
C2658 C2656 1.396 . S
C2658 C2661 1.403 . S
C2659 C2656 1.402 1_455 S
C2659 C2660 1.524 . S
C2659 C2663 1.400 . S
C2660 H2645 0.960 . S
C2660 H2646 0.960 1_455 S
C2660 H2647 0.960 . S
C2660 C2659 1.524 . S
C2661 C2658 1.403 . S
C2661 C2662 1.396 . S
C2661 C2665 1.495 . S
C2662 C2661 1.396 . S
C2662 C2663 1.382 1_655 S
C2662 C2664 1.477 1_655 S
C2663 H2657 0.930 . S
C2663 C2659 1.400 . S
C2663 C2662 1.382 1_455 S
C2664 C2662 1.477 1_455 S
C2664 C2666 1.379 1_455 S
C2664 C2670 1.384 . S
C2665 C2661 1.495 . S
C2665 H2671 0.959 . S
C2665 H2672 0.961 1_655 S
C2665 H2673 0.960 . S
C2666 C2664 1.379 1_655 S
C2666 C2667 1.394 . S
C2666 H2674 0.930 . S
C2667 C2666 1.394 . S
C2667 C2668 1.338 1_655 S
C2667 H2675 0.929 . S
C2668 C2667 1.338 1_455 S
C2668 C2669 1.421 . S
C2669 H2653 0.930 . S
C2669 C2668 1.421 . S
C2669 C2670 1.379 . S
C2670 H2654 0.931 . S
C2670 C2664 1.384 . S
C2670 C2669 1.379 . S
H2671 C2665 0.959 . S
H2672 C2665 0.961 1_455 S
H2673 C2665 0.960 . S
H2674 C2666 0.930 . S
H2675 C2667 0.929 . S
H2676 C2684 0.929 . S
H2677 C2686 0.930 . S
H2678 C2688 0.930 . S
H2679 C2691 0.929 . S
H2680 C2694 0.930 . S
H2681 C2696 0.960 . S
H2682 C2696 0.960 . S
H2683 C2696 0.960 . S
C2684 H2676 0.929 . S
C2684 C2685 1.380 . S
C2684 C2686 1.384 . S
C2685 C2684 1.380 . S
C2685 C2691 1.387 1_556 S
C2686 H2677 0.930 . S
C2686 C2684 1.384 . S
C2686 C2687 1.380 . S
C2687 C2686 1.380 . S
C2687 C2688 1.392 1_556 S
C2687 C2692 1.490 . S
C2688 H2678 0.930 . S
C2688 C2687 1.392 1_554 S
C2688 C2691 1.386 . S
H2689 C2705 0.930 . S
H2690 C2706 0.931 . S
C2691 H2679 0.929 . S
C2691 C2685 1.387 1_554 S
C2691 C2688 1.386 . S
C2692 C2687 1.490 . S
C2692 C2694 1.398 1_556 S
C2692 C2695 1.400 . S
H2693 C2699 0.930 . S
C2694 H2680 0.930 . S
C2694 C2692 1.398 1_554 S
C2694 C2697 1.403 . S
C2695 C2692 1.400 . S
C2695 C2696 1.524 . S
C2695 C2699 1.400 . S
C2696 H2681 0.960 . S
C2696 H2682 0.960 . S
C2696 H2683 0.960 . S
C2696 C2695 1.524 . S
C2697 C2694 1.403 . S
C2697 C2698 1.392 . S
C2697 C2701 1.495 . S
C2698 C2697 1.392 . S
C2698 C2699 1.385 1_554 S
C2698 C2700 1.478 . S
C2699 H2693 0.930 . S
C2699 C2695 1.400 . S
C2699 C2698 1.385 1_556 S
C2700 C2698 1.478 . S
C2700 C2702 1.381 1_554 S
C2700 C2706 1.383 . S
C2701 C2697 1.495 . S
C2701 H2707 0.959 . S
C2701 H2708 0.961 . S
C2701 H2709 0.960 . S
C2702 C2700 1.381 1_556 S
C2702 C2703 1.394 . S
C2702 H2710 0.930 . S
C2703 C2702 1.394 . S
C2703 C2704 1.383 1_556 S
C2703 H2711 0.929 . S
C2704 C2703 1.383 1_554 S
C2704 C2705 1.377 . S
C2705 H2689 0.930 . S
C2705 C2704 1.377 . S
C2705 C2706 1.379 . S
C2706 H2690 0.931 . S
C2706 C2700 1.383 . S
C2706 C2705 1.379 . S
H2707 C2701 0.959 . S
H2708 C2701 0.961 . S
H2709 C2701 0.960 . S
H2710 C2702 0.930 . S
H2711 C2703 0.929 . S
H2712 C2720 0.929 . S
H2713 C2722 0.930 . S
H2714 C2724 0.930 . S
H2715 C2727 0.929 . S
H2716 C2730 0.930 . S
H2717 C2732 0.960 . S
H2718 C2732 0.960 . S
H2719 C2732 0.960 . S
C2720 H2712 0.929 . S
C2720 C2721 1.381 . S
C2720 C2722 1.384 . S
C2721 C2720 1.381 . S
C2721 C2727 1.386 1_556 S
C2722 H2713 0.930 . S
C2722 C2720 1.384 . S
C2722 C2723 1.395 . S
C2723 C2722 1.395 . S
C2723 C2724 1.377 1_556 S
C2723 C2728 1.490 . S
C2724 H2714 0.930 . S
C2724 C2723 1.377 1_554 S
C2724 C2727 1.386 . S
H2725 C2741 0.930 . S
H2726 C2742 0.931 . S
C2727 H2715 0.929 . S
C2727 C2721 1.386 1_554 S
C2727 C2724 1.386 . S
C2728 C2723 1.490 . S
C2728 C2730 1.386 1_556 S
C2728 C2731 1.411 . S
H2729 C2735 0.930 . S
C2730 H2716 0.930 . S
C2730 C2728 1.386 1_554 S
C2730 C2733 1.403 . S
C2731 C2728 1.411 . S
C2731 C2732 1.524 . S
C2731 C2735 1.400 . S
C2732 H2717 0.960 . S
C2732 H2718 0.960 . S
C2732 H2719 0.960 . S
C2732 C2731 1.524 . S
C2733 C2730 1.403 . S
C2733 C2734 1.392 . S
C2733 C2737 1.495 . S
C2734 C2733 1.392 . S
C2734 C2735 1.385 1_554 S
C2734 C2736 1.478 . S
C2735 H2729 0.930 . S
C2735 C2731 1.400 . S
C2735 C2734 1.385 1_556 S
C2736 C2734 1.478 . S
C2736 C2738 1.381 1_554 S
C2736 C2742 1.383 . S
C2737 C2733 1.495 . S
C2737 H2743 0.959 . S
C2737 H2744 0.961 . S
C2737 H2745 0.960 . S
C2738 C2736 1.381 1_556 S
C2738 C2739 1.394 . S
C2738 H2746 0.930 . S
C2739 C2738 1.394 . S
C2739 C2740 1.357 1_556 S
C2739 H2747 0.929 . S
C2740 C2739 1.357 1_554 S
C2740 C2741 1.405 . S
C2741 H2725 0.930 . S
C2741 C2740 1.405 . S
C2741 C2742 1.379 . S
C2742 H2726 0.931 . S
C2742 C2736 1.383 . S
C2742 C2741 1.379 . S
H2743 C2737 0.959 . S
H2744 C2737 0.961 . S
H2745 C2737 0.960 . S
H2746 C2738 0.930 . S
H2747 C2739 0.929 . S
H2748 C2756 0.929 . S
H2749 C2758 0.930 . S
H2750 C2760 0.930 . S
H2751 C2763 0.929 . S
H2752 C2766 0.930 . S
H2753 C2768 0.960 . S
H2754 C2768 0.960 1_556 S
H2755 C2768 0.960 . S
C2756 H2748 0.929 . S
C2756 C2757 1.382 . S
C2756 C2758 1.384 . S
C2757 C2756 1.382 . S
C2757 C2763 1.385 1_556 S
C2758 H2749 0.930 . S
C2758 C2756 1.384 . S
C2758 C2759 1.372 . S
C2759 C2758 1.372 . S
C2759 C2760 1.400 1_556 S
C2759 C2764 1.490 . S
C2760 H2750 0.930 . S
C2760 C2759 1.400 1_554 S
C2760 C2763 1.386 . S
H2761 C2777 0.930 . S
H2762 C2778 0.931 . S
C2763 H2751 0.929 . S
C2763 C2757 1.385 1_554 S
C2763 C2760 1.386 . S
C2764 C2759 1.490 . S
C2764 C2766 1.395 . S
C2764 C2767 1.403 1_556 S
H2765 C2771 0.930 . S
C2766 H2752 0.930 . S
C2766 C2764 1.395 . S
C2766 C2769 1.403 . S
C2767 C2764 1.403 1_554 S
C2767 C2768 1.524 . S
C2767 C2771 1.400 . S
C2768 H2753 0.960 . S
C2768 H2754 0.960 1_554 S
C2768 H2755 0.960 . S
C2768 C2767 1.524 . S
C2769 C2766 1.403 . S
C2769 C2770 1.392 . S
C2769 C2773 1.495 . S
C2770 C2769 1.392 . S
C2770 C2771 1.385 1_556 S
C2770 C2772 1.480 . S
C2771 H2765 0.930 . S
C2771 C2767 1.400 . S
C2771 C2770 1.385 1_554 S
C2772 C2770 1.480 . S
C2772 C2774 1.429 . S
C2772 C2778 1.334 1_556 S
C2773 C2769 1.495 . S
C2773 H2779 0.959 . S
C2773 H2780 0.917 1_556 S
C2773 H2781 0.960 . S
C2774 C2772 1.429 . S
C2774 C2775 1.394 . S
C2774 H2782 0.930 . S
C2775 C2774 1.394 . S
C2775 C2776 1.385 . S
C2775 H2783 0.929 . S
C2776 C2775 1.385 . S
C2776 C2777 1.375 1_556 S
C2777 H2761 0.930 . S
C2777 C2776 1.375 1_554 S
C2777 C2778 1.379 . S
C2778 H2762 0.931 . S
C2778 C2772 1.334 1_554 S
C2778 C2777 1.379 . S
H2779 C2773 0.959 . S
H2780 C2773 0.917 1_554 S
H2781 C2773 0.960 . S
H2782 C2774 0.930 . S
H2783 C2775 0.929 . S
H2784 C2792 0.929 . S
H2785 C2794 0.930 . S
H2786 C2796 0.930 . S
H2787 C2799 0.929 . S
H2788 C2802 0.930 . S
H2789 C2804 0.960 . S
H2790 C2804 0.960 1_554 S
H2791 C2804 0.960 . S
C2792 H2784 0.929 . S
C2792 C2793 1.390 . S
C2792 C2794 1.384 . S
C2793 C2792 1.390 . S
C2793 C2799 1.377 1_554 S
C2794 H2785 0.930 . S
C2794 C2792 1.384 . S
C2794 C2795 1.372 . S
C2795 C2794 1.372 . S
C2795 C2796 1.400 1_554 S
C2795 C2800 1.490 . S
C2796 H2786 0.930 . S
C2796 C2795 1.400 1_556 S
C2796 C2799 1.386 . S
H2797 C2813 0.930 . S
H2798 C2814 0.931 . S
C2799 H2787 0.929 . S
C2799 C2793 1.377 1_556 S
C2799 C2796 1.386 . S
C2800 C2795 1.490 . S
C2800 C2802 1.395 . S
C2800 C2803 1.401 1_554 S
H2801 C2807 0.935 . S
C2802 H2788 0.930 . S
C2802 C2800 1.395 . S
C2802 C2805 1.403 . S
C2803 C2800 1.401 1_556 S
C2803 C2804 1.525 . S
C2803 C2807 1.400 . S
C2804 H2789 0.960 . S
C2804 H2790 0.960 1_556 S
C2804 H2791 0.960 . S
C2804 C2803 1.525 . S
C2805 C2802 1.403 . S
C2805 C2806 1.392 . S
C2805 C2809 1.495 . S
C2806 C2805 1.392 . S
C2806 C2807 1.382 1_554 S
C2806 C2808 1.479 . S
C2807 H2801 0.935 . S
C2807 C2803 1.400 . S
C2807 C2806 1.382 1_556 S
C2808 C2806 1.479 . S
C2808 C2810 1.406 . S
C2808 C2814 1.358 1_554 S
C2809 C2805 1.495 . S
C2809 H2815 0.959 . S
C2809 H2816 0.961 1_554 S
C2809 H2817 0.960 . S
C2810 C2808 1.406 . S
C2810 C2811 1.394 . S
C2810 H2818 0.930 . S
C2811 C2810 1.394 . S
C2811 C2812 1.384 . S
C2811 H2819 0.929 . S
C2812 C2811 1.384 . S
C2812 C2813 1.377 1_554 S
C2813 H2797 0.930 . S
C2813 C2812 1.377 1_556 S
C2813 C2814 1.379 . S
C2814 H2798 0.931 . S
C2814 C2808 1.358 1_556 S
C2814 C2813 1.379 . S
H2815 C2809 0.959 . S
H2816 C2809 0.961 1_556 S
H2817 C2809 0.960 . S
H2818 C2810 0.930 . S
H2819 C2811 0.929 . S
H2820 C2828 0.929 . S
H2821 C2830 0.930 . S
H2822 C2832 0.930 . S
H2823 C2835 0.929 . S
H2824 C2838 0.930 . S
H2825 C2840 0.960 . S
H2826 C2840 0.960 1_554 S
H2827 C2840 0.960 . S
C2828 H2820 0.929 . S
C2828 C2829 1.392 . S
C2828 C2830 1.384 . S
C2829 C2828 1.392 . S
C2829 C2835 1.376 1_554 S
C2830 H2821 0.930 . S
C2830 C2828 1.384 . S
C2830 C2831 1.372 . S
C2831 C2830 1.372 . S
C2831 C2832 1.400 1_554 S
C2831 C2836 1.490 . S
C2832 H2822 0.930 . S
C2832 C2831 1.400 1_556 S
C2832 C2835 1.386 . S
H2833 C2849 0.930 . S
H2834 C2850 0.931 . S
C2835 H2823 0.929 . S
C2835 C2829 1.376 1_556 S
C2835 C2832 1.386 . S
C2836 C2831 1.490 . S
C2836 C2838 1.395 . S
C2836 C2839 1.403 1_554 S
H2837 C2843 0.930 . S
C2838 H2824 0.930 . S
C2838 C2836 1.395 . S
C2838 C2841 1.403 . S
C2839 C2836 1.403 1_556 S
C2839 C2840 1.524 . S
C2839 C2843 1.400 . S
C2840 H2825 0.960 . S
C2840 H2826 0.960 1_556 S
C2840 H2827 0.960 . S
C2840 C2839 1.524 . S
C2841 C2838 1.403 . S
C2841 C2842 1.392 . S
C2841 C2845 1.495 . S
C2842 C2841 1.392 . S
C2842 C2843 1.385 1_554 S
C2842 C2844 1.479 . S
C2843 H2837 0.930 . S
C2843 C2839 1.400 . S
C2843 C2842 1.385 1_556 S
C2844 C2842 1.479 . S
C2844 C2846 1.418 . S
C2844 C2850 1.345 1_554 S
C2845 C2841 1.495 . S
C2845 H2851 0.959 . S
C2845 H2852 0.961 1_554 S
C2845 H2853 0.960 . S
C2846 C2844 1.418 . S
C2846 C2847 1.394 . S
C2846 H2854 0.930 . S
C2847 C2846 1.394 . S
C2847 C2848 1.388 . S
C2847 H2855 0.929 . S
C2848 C2847 1.388 . S
C2848 C2849 1.372 1_554 S
C2849 H2833 0.930 . S
C2849 C2848 1.372 1_556 S
C2849 C2850 1.379 . S
C2850 H2834 0.931 . S
C2850 C2844 1.345 1_556 S
C2850 C2849 1.379 . S
H2851 C2845 0.959 . S
H2852 C2845 0.961 1_556 S
H2853 C2845 0.960 . S
H2854 C2846 0.930 . S
H2855 C2847 0.929 . S
H2856 C2864 0.929 . S
H2857 C2866 0.930 . S
H2858 C2868 0.930 . S
H2859 C2871 0.929 . S
H2860 C2874 0.930 . S
H2861 C2876 0.960 . S
H2862 C2876 0.960 . S
H2863 C2876 0.960 1_554 S
C2864 H2856 0.929 . S
C2864 C2865 1.382 . S
C2864 C2866 1.384 . S
C2865 C2864 1.382 . S
C2865 C2871 1.385 1_556 S
C2866 H2857 0.930 . S
C2866 C2864 1.384 . S
C2866 C2867 1.414 . S
C2867 C2866 1.414 . S
C2867 C2868 1.358 1_556 S
C2867 C2872 1.490 . S
C2868 H2858 0.930 . S
C2868 C2867 1.358 1_554 S
C2868 C2871 1.386 . S
H2869 C2885 0.930 . S
H2870 C2886 0.931 . S
C2871 H2859 0.929 . S
C2871 C2865 1.385 1_554 S
C2871 C2868 1.386 . S
C2872 C2867 1.490 . S
C2872 C2874 1.394 . S
C2872 C2875 1.405 . S
H2873 C2879 0.930 . S
C2874 H2860 0.930 . S
C2874 C2872 1.394 . S
C2874 C2877 1.403 . S
C2875 C2872 1.405 . S
C2875 C2876 1.524 . S
C2875 C2879 1.402 . S
C2876 H2861 0.960 . S
C2876 H2862 0.960 . S
C2876 H2863 0.960 1_556 S
C2876 C2875 1.524 . S
C2877 C2874 1.403 . S
C2877 C2878 1.392 . S
C2877 C2881 1.495 1_556 S
C2878 C2877 1.392 . S
C2878 C2879 1.385 . S
C2878 C2880 1.477 1_556 S
C2879 H2873 0.930 . S
C2879 C2875 1.402 . S
C2879 C2878 1.385 . S
C2880 C2878 1.477 1_554 S
C2880 C2882 1.381 1_554 S
C2880 C2886 1.383 . S
C2881 C2877 1.495 1_554 S
C2881 H2887 0.959 . S
C2881 H2888 0.974 . S
C2881 H2889 0.948 1_554 S
C2882 C2880 1.381 1_556 S
C2882 C2883 1.394 . S
C2882 H2890 0.930 . S
C2883 C2882 1.394 . S
C2883 C2884 1.376 1_556 S
C2883 H2891 0.929 . S
C2884 C2883 1.376 1_554 S
C2884 C2885 1.384 . S
C2885 H2869 0.930 . S
C2885 C2884 1.384 . S
C2885 C2886 1.379 . S
C2886 H2870 0.931 . S
C2886 C2880 1.383 . S
C2886 C2885 1.379 . S
H2887 C2881 0.959 . S
H2888 C2881 0.974 . S
H2889 C2881 0.948 1_556 S
H2890 C2882 0.930 . S
H2891 C2883 0.929 . S
H2892 C2900 0.929 . S
H2893 C2902 0.930 . S
H2894 C2904 0.930 . S
H2895 C2907 0.929 . S
H2896 C2910 0.930 . S
H2897 C2912 0.960 . S
H2898 C2912 0.960 . S
H2899 C2912 0.960 . S
C2900 H2892 0.929 . S
C2900 C2901 1.375 . S
C2900 C2902 1.384 . S
C2901 C2900 1.375 . S
C2901 C2907 1.392 1_556 S
C2902 H2893 0.930 . S
C2902 C2900 1.384 . S
C2902 C2903 1.421 . S
C2903 C2902 1.421 . S
C2903 C2904 1.350 1_556 S
C2903 C2908 1.492 . S
C2904 H2894 0.930 . S
C2904 C2903 1.350 1_554 S
C2904 C2907 1.386 . S
H2905 C2921 0.930 . S
H2906 C2922 0.931 . S
C2907 H2895 0.929 . S
C2907 C2901 1.392 1_554 S
C2907 C2904 1.386 . S
C2908 C2903 1.492 . S
C2908 C2910 1.395 . S
C2908 C2911 1.403 1_556 S
H2909 C2915 0.930 . S
C2910 H2896 0.930 . S
C2910 C2908 1.395 . S
C2910 C2913 1.403 . S
C2911 C2908 1.403 1_554 S
C2911 C2912 1.524 . S
C2911 C2915 1.400 . S
C2912 H2897 0.960 . S
C2912 H2898 0.960 . S
C2912 H2899 0.960 . S
C2912 C2911 1.524 . S
C2913 C2910 1.403 . S
C2913 C2914 1.392 . S
C2913 C2917 1.495 . S
C2914 C2913 1.392 . S
C2914 C2915 1.385 1_556 S
C2914 C2916 1.478 . S
C2915 H2909 0.930 . S
C2915 C2911 1.400 . S
C2915 C2914 1.385 1_554 S
C2916 C2914 1.478 . S
C2916 C2918 1.381 . S
C2916 C2922 1.383 1_556 S
C2917 C2913 1.495 . S
C2917 H2923 0.959 . S
C2917 H2924 0.961 . S
C2917 H2925 0.960 . S
C2918 C2916 1.381 . S
C2918 C2919 1.394 . S
C2918 H2926 0.930 . S
C2919 C2918 1.394 . S
C2919 C2920 1.403 . S
C2919 H2927 0.929 . S
C2920 C2919 1.403 . S
C2920 C2921 1.358 1_556 S
C2921 H2905 0.930 . S
C2921 C2920 1.358 1_554 S
C2921 C2922 1.379 . S
C2922 H2906 0.931 . S
C2922 C2916 1.383 1_554 S
C2922 C2921 1.379 . S
H2923 C2917 0.959 . S
H2924 C2917 0.961 . S
H2925 C2917 0.960 . S
H2926 C2918 0.930 . S
H2927 C2919 0.929 . S
H2928 C2936 0.929 . S
H2929 C2938 0.930 . S
H2930 C2940 0.930 . S
H2931 C2943 0.929 . S
H2932 C2946 0.930 . S
H2933 C2948 0.960 . S
H2934 C2948 0.960 . S
H2935 C2948 0.960 . S
C2936 H2928 0.929 . S
C2936 C2937 1.383 . S
C2936 C2938 1.384 . S
C2937 C2936 1.383 . S
C2937 C2943 1.384 1_556 S
C2938 H2929 0.930 . S
C2938 C2936 1.384 . S
C2938 C2939 1.400 . S
C2939 C2938 1.400 . S
C2939 C2940 1.373 1_556 S
C2939 C2944 1.490 . S
C2940 H2930 0.930 . S
C2940 C2939 1.373 1_554 S
C2940 C2943 1.386 . S
H2941 C2957 0.930 . S
H2942 C2958 0.931 . S
C2943 H2931 0.929 . S
C2943 C2937 1.384 1_554 S
C2943 C2940 1.386 . S
C2944 C2939 1.490 . S
C2944 C2946 1.386 1_556 S
C2944 C2947 1.412 . S
H2945 C2951 0.930 . S
C2946 H2932 0.930 . S
C2946 C2944 1.386 1_554 S
C2946 C2949 1.403 . S
C2947 C2944 1.412 . S
C2947 C2948 1.524 . S
C2947 C2951 1.400 . S
C2948 H2933 0.960 . S
C2948 H2934 0.960 . S
C2948 H2935 0.960 . S
C2948 C2947 1.524 . S
C2949 C2946 1.403 . S
C2949 C2950 1.405 . S
C2949 C2953 1.495 . S
C2950 C2949 1.405 . S
C2950 C2951 1.372 1_554 S
C2950 C2952 1.479 . S
C2951 H2945 0.930 . S
C2951 C2947 1.400 . S
C2951 C2950 1.372 1_556 S
C2952 C2950 1.479 . S
C2952 C2954 1.381 1_554 S
C2952 C2958 1.383 . S
C2953 C2949 1.495 . S
C2953 H2959 0.959 . S
C2953 H2960 0.961 . S
C2953 H2961 0.960 . S
C2954 C2952 1.381 1_556 S
C2954 C2955 1.394 . S
C2954 H2962 0.930 . S
C2955 C2954 1.394 . S
C2955 C2956 1.359 1_556 S
C2955 H2963 0.929 . S
C2956 C2955 1.359 1_554 S
C2956 C2957 1.403 . S
C2957 H2941 0.930 . S
C2957 C2956 1.403 . S
C2957 C2958 1.379 . S
C2958 H2942 0.931 . S
C2958 C2952 1.383 . S
C2958 C2957 1.379 . S
H2959 C2953 0.959 . S
H2960 C2953 0.961 . S
H2961 C2953 0.960 . S
H2962 C2954 0.930 . S
H2963 C2955 0.929 . S
H2964 C2972 0.929 . S
H2965 C2974 0.930 . S
H2966 C2976 0.930 . S
H2967 C2979 0.929 . S
H2968 C2982 0.930 . S
H2969 C2984 0.960 . S
H2970 C2984 0.960 . S
H2971 C2984 0.960 . S
C2972 H2964 0.929 . S
C2972 C2973 1.377 . S
C2972 C2974 1.384 . S
C2973 C2972 1.377 . S
C2973 C2979 1.390 . S
C2974 H2965 0.930 . S
C2974 C2972 1.384 . S
C2974 C2975 1.372 . S
C2975 C2974 1.372 . S
C2975 C2976 1.400 . S
C2975 C2980 1.490 . S
C2976 H2966 0.930 . S
C2976 C2975 1.400 . S
C2976 C2979 1.386 . S
H2977 C2993 0.930 . S
H2978 C2994 0.931 . S
C2979 H2967 0.929 . S
C2979 C2973 1.390 . S
C2979 C2976 1.386 . S
C2980 C2975 1.490 . S
C2980 C2982 1.395 . S
C2980 C2983 1.403 . S
H2981 C2987 0.930 . S
C2982 H2968 0.930 . S
C2982 C2980 1.395 . S
C2982 C2985 1.403 . S
C2983 C2980 1.403 . S
C2983 C2984 1.524 . S
C2983 C2987 1.400 . S
C2984 H2969 0.960 . S
C2984 H2970 0.960 . S
C2984 H2971 0.960 . S
C2984 C2983 1.524 . S
C2985 C2982 1.403 . S
C2985 C2986 1.392 . S
C2985 C2989 1.495 . S
C2986 C2985 1.392 . S
C2986 C2987 1.385 . S
C2986 C2988 1.478 . S
C2987 H2981 0.930 . S
C2987 C2983 1.400 . S
C2987 C2986 1.385 . S
C2988 C2986 1.478 . S
C2988 C2990 1.381 . S
C2988 C2994 1.383 . S
C2989 C2985 1.495 . S
C2989 H2995 0.959 . S
C2989 H2996 0.961 . S
C2989 H2997 0.960 . S
C2990 C2988 1.381 . S
C2990 C2991 1.394 . S
C2990 H2998 0.930 . S
C2991 C2990 1.394 . S
C2991 C2992 1.383 . S
C2991 H2999 0.929 . S
C2992 C2991 1.383 . S
C2992 C2993 1.377 . S
C2993 H2977 0.930 . S
C2993 C2992 1.377 . S
C2993 C2994 1.379 . S
C2994 H2978 0.931 . S
C2994 C2988 1.383 . S
C2994 C2993 1.379 . S
H2995 C2989 0.959 . S
H2996 C2989 0.961 . S
H2997 C2989 0.960 . S
H2998 C2990 0.930 . S
H2999 C2991 0.929 . S
H3000 C3008 0.929 . S
H3001 C3010 0.930 . S
H3002 C3012 0.930 . S
H3003 C3015 0.929 . S
H3004 C3018 0.930 . S
H3005 C3020 0.960 . S
H3006 C3020 0.960 . S
H3007 C3020 0.960 . S
C3008 H3000 0.929 . S
C3008 C3009 1.377 . S
C3008 C3010 1.384 . S
C3009 C3008 1.377 . S
C3009 C3015 1.390 . S
C3010 H3001 0.930 . S
C3010 C3008 1.384 . S
C3010 C3011 1.372 . S
C3011 C3010 1.372 . S
C3011 C3012 1.400 . S
C3011 C3016 1.490 . S
C3012 H3002 0.930 . S
C3012 C3011 1.400 . S
C3012 C3015 1.386 . S
H3013 C3029 0.930 . S
H3014 C3030 0.931 . S
C3015 H3003 0.929 . S
C3015 C3009 1.390 . S
C3015 C3012 1.386 . S
C3016 C3011 1.490 . S
C3016 C3018 1.395 . S
C3016 C3019 1.403 . S
H3017 C3023 0.930 . S
C3018 H3004 0.930 . S
C3018 C3016 1.395 . S
C3018 C3021 1.403 . S
C3019 C3016 1.403 . S
C3019 C3020 1.524 . S
C3019 C3023 1.400 . S
C3020 H3005 0.960 . S
C3020 H3006 0.960 . S
C3020 H3007 0.960 . S
C3020 C3019 1.524 . S
C3021 C3018 1.403 . S
C3021 C3022 1.392 . S
C3021 C3025 1.495 . S
C3022 C3021 1.392 . S
C3022 C3023 1.385 . S
C3022 C3024 1.478 . S
C3023 H3017 0.930 . S
C3023 C3019 1.400 . S
C3023 C3022 1.385 . S
C3024 C3022 1.478 . S
C3024 C3026 1.381 . S
C3024 C3030 1.383 . S
C3025 C3021 1.495 . S
C3025 H3031 0.959 . S
C3025 H3032 0.961 . S
C3025 H3033 0.960 . S
C3026 C3024 1.381 . S
C3026 C3027 1.394 . S
C3026 H3034 0.930 . S
C3027 C3026 1.394 . S
C3027 C3028 1.383 . S
C3027 H3035 0.929 . S
C3028 C3027 1.383 . S
C3028 C3029 1.377 . S
C3029 H3013 0.930 . S
C3029 C3028 1.377 . S
C3029 C3030 1.379 . S
C3030 H3014 0.931 . S
C3030 C3024 1.383 . S
C3030 C3029 1.379 . S
H3031 C3025 0.959 . S
H3032 C3025 0.961 . S
H3033 C3025 0.960 . S
H3034 C3026 0.930 . S
H3035 C3027 0.929 . S
H3036 C3044 0.929 . S
H3037 C3046 0.930 . S
H3038 C3048 0.930 . S
H3039 C3051 0.929 . S
H3040 C3054 0.930 . S
H3041 C3056 0.960 . S
H3042 C3056 0.960 . S
H3043 C3056 0.960 . S
C3044 H3036 0.929 . S
C3044 C3045 1.377 . S
C3044 C3046 1.384 . S
C3045 C3044 1.377 . S
C3045 C3051 1.390 . S
C3046 H3037 0.930 . S
C3046 C3044 1.384 . S
C3046 C3047 1.372 . S
C3047 C3046 1.372 . S
C3047 C3048 1.400 . S
C3047 C3052 1.490 . S
C3048 H3038 0.930 . S
C3048 C3047 1.400 . S
C3048 C3051 1.386 . S
H3049 C3065 0.930 . S
H3050 C3066 0.931 . S
C3051 H3039 0.929 . S
C3051 C3045 1.390 . S
C3051 C3048 1.386 . S
C3052 C3047 1.490 . S
C3052 C3054 1.395 . S
C3052 C3055 1.403 . S
H3053 C3059 0.930 . S
C3054 H3040 0.930 . S
C3054 C3052 1.395 . S
C3054 C3057 1.403 . S
C3055 C3052 1.403 . S
C3055 C3056 1.524 . S
C3055 C3059 1.400 . S
C3056 H3041 0.960 . S
C3056 H3042 0.960 . S
C3056 H3043 0.960 . S
C3056 C3055 1.524 . S
C3057 C3054 1.403 . S
C3057 C3058 1.392 . S
C3057 C3061 1.495 . S
C3058 C3057 1.392 . S
C3058 C3059 1.385 . S
C3058 C3060 1.478 . S
C3059 H3053 0.930 . S
C3059 C3055 1.400 . S
C3059 C3058 1.385 . S
C3060 C3058 1.478 . S
C3060 C3062 1.381 . S
C3060 C3066 1.383 . S
C3061 C3057 1.495 . S
C3061 H3067 0.959 . S
C3061 H3068 0.961 . S
C3061 H3069 0.960 . S
C3062 C3060 1.381 . S
C3062 C3063 1.394 . S
C3062 H3070 0.930 . S
C3063 C3062 1.394 . S
C3063 C3064 1.383 . S
C3063 H3071 0.929 . S
C3064 C3063 1.383 . S
C3064 C3065 1.377 . S
C3065 H3049 0.930 . S
C3065 C3064 1.377 . S
C3065 C3066 1.379 . S
C3066 H3050 0.931 . S
C3066 C3060 1.383 . S
C3066 C3065 1.379 . S
H3067 C3061 0.959 . S
H3068 C3061 0.961 . S
H3069 C3061 0.960 . S
H3070 C3062 0.930 . S
H3071 C3063 0.929 . S
H3072 C3080 0.929 . S
H3073 C3082 0.930 . S
H3074 C3084 0.930 . S
H3075 C3087 0.929 . S
H3076 C3090 0.930 . S
H3077 C3092 0.960 . S
H3078 C3092 0.960 . S
H3079 C3092 0.960 . S
C3080 H3072 0.929 . S
C3080 C3081 1.377 . S
C3080 C3082 1.384 . S
C3081 C3080 1.377 . S
C3081 C3087 1.390 . S
C3082 H3073 0.930 . S
C3082 C3080 1.384 . S
C3082 C3083 1.372 . S
C3083 C3082 1.372 . S
C3083 C3084 1.400 . S
C3083 C3088 1.490 . S
C3084 H3074 0.930 . S
C3084 C3083 1.400 . S
C3084 C3087 1.386 . S
H3085 C3101 0.930 . S
H3086 C3102 0.931 . S
C3087 H3075 0.929 . S
C3087 C3081 1.390 . S
C3087 C3084 1.386 . S
C3088 C3083 1.490 . S
C3088 C3090 1.395 . S
C3088 C3091 1.403 . S
H3089 C3095 0.930 . S
C3090 H3076 0.930 . S
C3090 C3088 1.395 . S
C3090 C3093 1.403 . S
C3091 C3088 1.403 . S
C3091 C3092 1.524 . S
C3091 C3095 1.400 . S
C3092 H3077 0.960 . S
C3092 H3078 0.960 . S
C3092 H3079 0.960 . S
C3092 C3091 1.524 . S
C3093 C3090 1.403 . S
C3093 C3094 1.392 . S
C3093 C3097 1.495 . S
C3094 C3093 1.392 . S
C3094 C3095 1.385 . S
C3094 C3096 1.478 . S
C3095 H3089 0.930 . S
C3095 C3091 1.400 . S
C3095 C3094 1.385 . S
C3096 C3094 1.478 . S
C3096 C3098 1.381 . S
C3096 C3102 1.383 . S
C3097 C3093 1.495 . S
C3097 H3103 0.959 . S
C3097 H3104 0.961 . S
C3097 H3105 0.960 . S
C3098 C3096 1.381 . S
C3098 C3099 1.394 . S
C3098 H3106 0.930 . S
C3099 C3098 1.394 . S
C3099 C3100 1.383 . S
C3099 H3107 0.929 . S
C3100 C3099 1.383 . S
C3100 C3101 1.377 . S
C3101 H3085 0.930 . S
C3101 C3100 1.377 . S
C3101 C3102 1.379 . S
C3102 H3086 0.931 . S
C3102 C3096 1.383 . S
C3102 C3101 1.379 . S
H3103 C3097 0.959 . S
H3104 C3097 0.961 . S
H3105 C3097 0.960 . S
H3106 C3098 0.930 . S
H3107 C3099 0.929 . S
H3108 C3116 0.929 . S
H3109 C3118 0.930 . S
H3110 C3120 0.930 . S
H3111 C3123 0.929 . S
H3112 C3126 0.930 . S
H3113 C3128 0.960 . S
H3114 C3128 0.960 . S
H3115 C3128 0.960 . S
C3116 H3108 0.929 . S
C3116 C3117 1.377 . S
C3116 C3118 1.384 . S
C3117 C3116 1.377 . S
C3117 C3123 1.390 . S
C3118 H3109 0.930 . S
C3118 C3116 1.384 . S
C3118 C3119 1.372 . S
C3119 C3118 1.372 . S
C3119 C3120 1.400 . S
C3119 C3124 1.490 . S
C3120 H3110 0.930 . S
C3120 C3119 1.400 . S
C3120 C3123 1.386 . S
H3121 C3137 0.930 . S
H3122 C3138 0.931 . S
C3123 H3111 0.929 . S
C3123 C3117 1.390 . S
C3123 C3120 1.386 . S
C3124 C3119 1.490 . S
C3124 C3126 1.395 . S
C3124 C3127 1.403 . S
H3125 C3131 0.930 . S
C3126 H3112 0.930 . S
C3126 C3124 1.395 . S
C3126 C3129 1.403 . S
C3127 C3124 1.403 . S
C3127 C3128 1.524 . S
C3127 C3131 1.400 . S
C3128 H3113 0.960 . S
C3128 H3114 0.960 . S
C3128 H3115 0.960 . S
C3128 C3127 1.524 . S
C3129 C3126 1.403 . S
C3129 C3130 1.392 . S
C3129 C3133 1.495 . S
C3130 C3129 1.392 . S
C3130 C3131 1.385 . S
C3130 C3132 1.478 . S
C3131 H3125 0.930 . S
C3131 C3127 1.400 . S
C3131 C3130 1.385 . S
C3132 C3130 1.478 . S
C3132 C3134 1.381 . S
C3132 C3138 1.383 . S
C3133 C3129 1.495 . S
C3133 H3139 0.959 . S
C3133 H3140 0.961 . S
C3133 H3141 0.960 . S
C3134 C3132 1.381 . S
C3134 C3135 1.394 . S
C3134 H3142 0.930 . S
C3135 C3134 1.394 . S
C3135 C3136 1.383 . S
C3135 H3143 0.929 . S
C3136 C3135 1.383 . S
C3136 C3137 1.377 . S
C3137 H3121 0.930 . S
C3137 C3136 1.377 . S
C3137 C3138 1.379 . S
C3138 H3122 0.931 . S
C3138 C3132 1.383 . S
C3138 C3137 1.379 . S
H3139 C3133 0.959 . S
H3140 C3133 0.961 . S
H3141 C3133 0.960 . S
H3142 C3134 0.930 . S
H3143 C3135 0.929 . S
H3144 C3152 0.929 . S
H3145 C3154 0.930 . S
H3146 C3156 0.930 . S
H3147 C3159 0.929 . S
H3148 C3162 0.930 . S
H3149 C3164 0.960 . S
H3150 C3164 0.960 . S
H3151 C3164 0.960 . S
C3152 H3144 0.929 . S
C3152 C3153 1.377 . S
C3152 C3154 1.384 . S
C3153 C3152 1.377 . S
C3153 C3159 1.390 . S
C3154 H3145 0.930 . S
C3154 C3152 1.384 . S
C3154 C3155 1.372 . S
C3155 C3154 1.372 . S
C3155 C3156 1.400 . S
C3155 C3160 1.490 . S
C3156 H3146 0.930 . S
C3156 C3155 1.400 . S
C3156 C3159 1.386 . S
H3157 C3173 0.930 . S
H3158 C3174 0.931 . S
C3159 H3147 0.929 . S
C3159 C3153 1.390 . S
C3159 C3156 1.386 . S
C3160 C3155 1.490 . S
C3160 C3162 1.395 . S
C3160 C3163 1.403 . S
H3161 C3167 0.930 . S
C3162 H3148 0.930 . S
C3162 C3160 1.395 . S
C3162 C3165 1.403 . S
C3163 C3160 1.403 . S
C3163 C3164 1.524 . S
C3163 C3167 1.400 . S
C3164 H3149 0.960 . S
C3164 H3150 0.960 . S
C3164 H3151 0.960 . S
C3164 C3163 1.524 . S
C3165 C3162 1.403 . S
C3165 C3166 1.392 . S
C3165 C3169 1.495 . S
C3166 C3165 1.392 . S
C3166 C3167 1.385 . S
C3166 C3168 1.478 . S
C3167 H3161 0.930 . S
C3167 C3163 1.400 . S
C3167 C3166 1.385 . S
C3168 C3166 1.478 . S
C3168 C3170 1.381 . S
C3168 C3174 1.383 . S
C3169 C3165 1.495 . S
C3169 H3175 0.959 . S
C3169 H3176 0.961 . S
C3169 H3177 0.960 . S
C3170 C3168 1.381 . S
C3170 C3171 1.394 . S
C3170 H3178 0.930 . S
C3171 C3170 1.394 . S
C3171 C3172 1.383 . S
C3171 H3179 0.929 . S
C3172 C3171 1.383 . S
C3172 C3173 1.377 . S
C3173 H3157 0.930 . S
C3173 C3172 1.377 . S
C3173 C3174 1.379 . S
C3174 H3158 0.931 . S
C3174 C3168 1.383 . S
C3174 C3173 1.379 . S
H3175 C3169 0.959 . S
H3176 C3169 0.961 . S
H3177 C3169 0.960 . S
H3178 C3170 0.930 . S
H3179 C3171 0.929 . S
H3180 C3188 0.929 . S
H3181 C3190 0.930 . S
H3182 C3192 0.930 . S
H3183 C3195 0.929 . S
H3184 C3198 0.930 . S
H3185 C3200 0.960 . S
H3186 C3200 0.960 . S
H3187 C3200 0.960 . S
C3188 H3180 0.929 . S
C3188 C3189 1.377 . S
C3188 C3190 1.384 . S
C3189 C3188 1.377 . S
C3189 C3195 1.390 . S
C3190 H3181 0.930 . S
C3190 C3188 1.384 . S
C3190 C3191 1.372 . S
C3191 C3190 1.372 . S
C3191 C3192 1.400 . S
C3191 C3196 1.490 . S
C3192 H3182 0.930 . S
C3192 C3191 1.400 . S
C3192 C3195 1.386 . S
H3193 C3209 0.930 . S
H3194 C3210 0.931 . S
C3195 H3183 0.929 . S
C3195 C3189 1.390 . S
C3195 C3192 1.386 . S
C3196 C3191 1.490 . S
C3196 C3198 1.395 . S
C3196 C3199 1.403 . S
H3197 C3203 0.930 . S
C3198 H3184 0.930 . S
C3198 C3196 1.395 . S
C3198 C3201 1.403 . S
C3199 C3196 1.403 . S
C3199 C3200 1.524 . S
C3199 C3203 1.400 . S
C3200 H3185 0.960 . S
C3200 H3186 0.960 . S
C3200 H3187 0.960 . S
C3200 C3199 1.524 . S
C3201 C3198 1.403 . S
C3201 C3202 1.392 . S
C3201 C3205 1.495 . S
C3202 C3201 1.392 . S
C3202 C3203 1.385 . S
C3202 C3204 1.478 . S
C3203 H3197 0.930 . S
C3203 C3199 1.400 . S
C3203 C3202 1.385 . S
C3204 C3202 1.478 . S
C3204 C3206 1.381 . S
C3204 C3210 1.383 . S
C3205 C3201 1.495 . S
C3205 H3211 0.959 . S
C3205 H3212 0.961 . S
C3205 H3213 0.960 . S
C3206 C3204 1.381 . S
C3206 C3207 1.394 . S
C3206 H3214 0.930 . S
C3207 C3206 1.394 . S
C3207 C3208 1.383 . S
C3207 H3215 0.929 . S
C3208 C3207 1.383 . S
C3208 C3209 1.377 . S
C3209 H3193 0.930 . S
C3209 C3208 1.377 . S
C3209 C3210 1.379 . S
C3210 H3194 0.931 . S
C3210 C3204 1.383 . S
C3210 C3209 1.379 . S
H3211 C3205 0.959 . S
H3212 C3205 0.961 . S
H3213 C3205 0.960 . S
H3214 C3206 0.930 . S
H3215 C3207 0.929 . S
H3216 C3224 0.929 . S
H3217 C3226 0.930 . S
H3218 C3228 0.930 . S
H3219 C3231 0.929 . S
H3220 C3234 0.930 . S
H3221 C3236 0.960 . S
H3222 C3236 0.960 . S
H3223 C3236 0.960 . S
C3224 H3216 0.929 . S
C3224 C3225 1.377 . S
C3224 C3226 1.384 . S
C3225 C3224 1.377 . S
C3225 C3231 1.390 . S
C3226 H3217 0.930 . S
C3226 C3224 1.384 . S
C3226 C3227 1.372 . S
C3227 C3226 1.372 . S
C3227 C3228 1.400 . S
C3227 C3232 1.490 . S
C3228 H3218 0.930 . S
C3228 C3227 1.400 . S
C3228 C3231 1.386 . S
H3229 C3245 0.930 . S
H3230 C3246 0.931 . S
C3231 H3219 0.929 . S
C3231 C3225 1.390 . S
C3231 C3228 1.386 . S
C3232 C3227 1.490 . S
C3232 C3234 1.395 . S
C3232 C3235 1.403 . S
H3233 C3239 0.930 . S
C3234 H3220 0.930 . S
C3234 C3232 1.395 . S
C3234 C3237 1.403 . S
C3235 C3232 1.403 . S
C3235 C3236 1.524 . S
C3235 C3239 1.400 . S
C3236 H3221 0.960 . S
C3236 H3222 0.960 . S
C3236 H3223 0.960 . S
C3236 C3235 1.524 . S
C3237 C3234 1.403 . S
C3237 C3238 1.392 . S
C3237 C3241 1.495 . S
C3238 C3237 1.392 . S
C3238 C3239 1.385 . S
C3238 C3240 1.478 . S
C3239 H3233 0.930 . S
C3239 C3235 1.400 . S
C3239 C3238 1.385 . S
C3240 C3238 1.478 . S
C3240 C3242 1.381 . S
C3240 C3246 1.383 . S
C3241 C3237 1.495 . S
C3241 H3247 0.959 . S
C3241 H3248 0.961 . S
C3241 H3249 0.960 . S
C3242 C3240 1.381 . S
C3242 C3243 1.394 . S
C3242 H3250 0.930 . S
C3243 C3242 1.394 . S
C3243 C3244 1.383 . S
C3243 H3251 0.929 . S
C3244 C3243 1.383 . S
C3244 C3245 1.377 . S
C3245 H3229 0.930 . S
C3245 C3244 1.377 . S
C3245 C3246 1.379 . S
C3246 H3230 0.931 . S
C3246 C3240 1.383 . S
C3246 C3245 1.379 . S
H3247 C3241 0.959 . S
H3248 C3241 0.961 . S
H3249 C3241 0.960 . S
H3250 C3242 0.930 . S
H3251 C3243 0.929 . S
H3252 C3260 0.929 . S
H3253 C3262 0.930 . S
H3254 C3264 0.930 . S
H3255 C3267 0.929 . S
H3256 C3270 0.930 . S
H3257 C3272 0.960 . S
H3258 C3272 0.960 . S
H3259 C3272 0.960 . S
C3260 H3252 0.929 . S
C3260 C3261 1.377 . S
C3260 C3262 1.384 . S
C3261 C3260 1.377 . S
C3261 C3267 1.390 . S
C3262 H3253 0.930 . S
C3262 C3260 1.384 . S
C3262 C3263 1.372 . S
C3263 C3262 1.372 . S
C3263 C3264 1.400 . S
C3263 C3268 1.490 . S
C3264 H3254 0.930 . S
C3264 C3263 1.400 . S
C3264 C3267 1.386 . S
H3265 C3281 0.930 . S
H3266 C3282 0.931 . S
C3267 H3255 0.929 . S
C3267 C3261 1.390 . S
C3267 C3264 1.386 . S
C3268 C3263 1.490 . S
C3268 C3270 1.395 . S
C3268 C3271 1.403 . S
H3269 C3275 0.930 . S
C3270 H3256 0.930 . S
C3270 C3268 1.395 . S
C3270 C3273 1.403 . S
C3271 C3268 1.403 . S
C3271 C3272 1.524 . S
C3271 C3275 1.400 . S
C3272 H3257 0.960 . S
C3272 H3258 0.960 . S
C3272 H3259 0.960 . S
C3272 C3271 1.524 . S
C3273 C3270 1.403 . S
C3273 C3274 1.392 . S
C3273 C3277 1.495 . S
C3274 C3273 1.392 . S
C3274 C3275 1.385 . S
C3274 C3276 1.478 . S
C3275 H3269 0.930 . S
C3275 C3271 1.400 . S
C3275 C3274 1.385 . S
C3276 C3274 1.478 . S
C3276 C3278 1.381 . S
C3276 C3282 1.383 . S
C3277 C3273 1.495 . S
C3277 H3283 0.959 . S
C3277 H3284 0.961 . S
C3277 H3285 0.960 . S
C3278 C3276 1.381 . S
C3278 C3279 1.394 . S
C3278 H3286 0.930 . S
C3279 C3278 1.394 . S
C3279 C3280 1.383 . S
C3279 H3287 0.929 . S
C3280 C3279 1.383 . S
C3280 C3281 1.377 . S
C3281 H3265 0.930 . S
C3281 C3280 1.377 . S
C3281 C3282 1.379 . S
C3282 H3266 0.931 . S
C3282 C3276 1.383 . S
C3282 C3281 1.379 . S
H3283 C3277 0.959 . S
H3284 C3277 0.961 . S
H3285 C3277 0.960 . S
H3286 C3278 0.930 . S
H3287 C3279 0.929 . S
H3288 C3296 0.929 . S
H3289 C3298 0.930 . S
H3290 C3300 0.930 . S
H3291 C3303 0.929 . S
H3292 C3306 0.930 . S
H3293 C3308 0.960 . S
H3294 C3308 0.960 . S
H3295 C3308 0.960 . S
C3296 H3288 0.929 . S
C3296 C3297 1.377 . S
C3296 C3298 1.384 . S
C3297 C3296 1.377 . S
C3297 C3303 1.390 . S
C3298 H3289 0.930 . S
C3298 C3296 1.384 . S
C3298 C3299 1.372 . S
C3299 C3298 1.372 . S
C3299 C3300 1.400 . S
C3299 C3304 1.490 . S
C3300 H3290 0.930 . S
C3300 C3299 1.400 . S
C3300 C3303 1.386 . S
H3301 C3317 0.930 . S
H3302 C3318 0.931 . S
C3303 H3291 0.929 . S
C3303 C3297 1.390 . S
C3303 C3300 1.386 . S
C3304 C3299 1.490 . S
C3304 C3306 1.395 . S
C3304 C3307 1.403 . S
H3305 C3311 0.930 . S
C3306 H3292 0.930 . S
C3306 C3304 1.395 . S
C3306 C3309 1.403 . S
C3307 C3304 1.403 . S
C3307 C3308 1.524 . S
C3307 C3311 1.400 . S
C3308 H3293 0.960 . S
C3308 H3294 0.960 . S
C3308 H3295 0.960 . S
C3308 C3307 1.524 . S
C3309 C3306 1.403 . S
C3309 C3310 1.392 . S
C3309 C3313 1.495 . S
C3310 C3309 1.392 . S
C3310 C3311 1.385 . S
C3310 C3312 1.478 . S
C3311 H3305 0.930 . S
C3311 C3307 1.400 . S
C3311 C3310 1.385 . S
C3312 C3310 1.478 . S
C3312 C3314 1.381 . S
C3312 C3318 1.383 . S
C3313 C3309 1.495 . S
C3313 H3319 0.959 . S
C3313 H3320 0.961 . S
C3313 H3321 0.960 . S
C3314 C3312 1.381 . S
C3314 C3315 1.394 . S
C3314 H3322 0.930 . S
C3315 C3314 1.394 . S
C3315 C3316 1.383 . S
C3315 H3323 0.929 . S
C3316 C3315 1.383 . S
C3316 C3317 1.377 . S
C3317 H3301 0.930 . S
C3317 C3316 1.377 . S
C3317 C3318 1.379 . S
C3318 H3302 0.931 . S
C3318 C3312 1.383 . S
C3318 C3317 1.379 . S
H3319 C3313 0.959 . S
H3320 C3313 0.961 . S
H3321 C3313 0.960 . S
H3322 C3314 0.930 . S
H3323 C3315 0.929 . S
H3324 C3332 0.929 . S
H3325 C3334 0.930 . S
H3326 C3336 0.930 . S
H3327 C3339 0.929 . S
H3328 C3342 0.930 . S
H3329 C3344 0.960 . S
H3330 C3344 0.960 . S
H3331 C3344 0.960 . S
C3332 H3324 0.929 . S
C3332 C3333 1.377 . S
C3332 C3334 1.384 . S
C3333 C3332 1.377 . S
C3333 C3339 1.390 . S
C3334 H3325 0.930 . S
C3334 C3332 1.384 . S
C3334 C3335 1.372 . S
C3335 C3334 1.372 . S
C3335 C3336 1.400 . S
C3335 C3340 1.490 . S
C3336 H3326 0.930 . S
C3336 C3335 1.400 . S
C3336 C3339 1.386 . S
H3337 C3353 0.930 . S
H3338 C3354 0.931 . S
C3339 H3327 0.929 . S
C3339 C3333 1.390 . S
C3339 C3336 1.386 . S
C3340 C3335 1.490 . S
C3340 C3342 1.395 . S
C3340 C3343 1.403 . S
H3341 C3347 0.930 . S
C3342 H3328 0.930 . S
C3342 C3340 1.395 . S
C3342 C3345 1.403 . S
C3343 C3340 1.403 . S
C3343 C3344 1.524 . S
C3343 C3347 1.400 . S
C3344 H3329 0.960 . S
C3344 H3330 0.960 . S
C3344 H3331 0.960 . S
C3344 C3343 1.524 . S
C3345 C3342 1.403 . S
C3345 C3346 1.392 . S
C3345 C3349 1.495 . S
C3346 C3345 1.392 . S
C3346 C3347 1.385 . S
C3346 C3348 1.478 . S
C3347 H3341 0.930 . S
C3347 C3343 1.400 . S
C3347 C3346 1.385 . S
C3348 C3346 1.478 . S
C3348 C3350 1.381 . S
C3348 C3354 1.383 . S
C3349 C3345 1.495 . S
C3349 H3355 0.959 . S
C3349 H3356 0.961 . S
C3349 H3357 0.960 . S
C3350 C3348 1.381 . S
C3350 C3351 1.394 . S
C3350 H3358 0.930 . S
C3351 C3350 1.394 . S
C3351 C3352 1.383 . S
C3351 H3359 0.929 . S
C3352 C3351 1.383 . S
C3352 C3353 1.377 . S
C3353 H3337 0.930 . S
C3353 C3352 1.377 . S
C3353 C3354 1.379 . S
C3354 H3338 0.931 . S
C3354 C3348 1.383 . S
C3354 C3353 1.379 . S
H3355 C3349 0.959 . S
H3356 C3349 0.961 . S
H3357 C3349 0.960 . S
H3358 C3350 0.930 . S
H3359 C3351 0.929 . S
H3360 C3368 0.929 . S
H3361 C3370 0.930 . S
H3362 C3372 0.930 . S
H3363 C3375 0.929 . S
H3364 C3378 0.930 . S
H3365 C3380 0.960 . S
H3366 C3380 0.960 . S
H3367 C3380 0.960 . S
C3368 H3360 0.929 . S
C3368 C3369 1.377 . S
C3368 C3370 1.384 . S
C3369 C3368 1.377 . S
C3369 C3375 1.390 . S
C3370 H3361 0.930 . S
C3370 C3368 1.384 . S
C3370 C3371 1.372 . S
C3371 C3370 1.372 . S
C3371 C3372 1.400 . S
C3371 C3376 1.490 . S
C3372 H3362 0.930 . S
C3372 C3371 1.400 . S
C3372 C3375 1.386 . S
H3373 C3389 0.930 . S
H3374 C3390 0.931 . S
C3375 H3363 0.929 . S
C3375 C3369 1.390 . S
C3375 C3372 1.386 . S
C3376 C3371 1.490 . S
C3376 C3378 1.395 . S
C3376 C3379 1.403 . S
H3377 C3383 0.930 . S
C3378 H3364 0.930 . S
C3378 C3376 1.395 . S
C3378 C3381 1.403 . S
C3379 C3376 1.403 . S
C3379 C3380 1.524 . S
C3379 C3383 1.400 . S
C3380 H3365 0.960 . S
C3380 H3366 0.960 . S
C3380 H3367 0.960 . S
C3380 C3379 1.524 . S
C3381 C3378 1.403 . S
C3381 C3382 1.392 . S
C3381 C3385 1.495 . S
C3382 C3381 1.392 . S
C3382 C3383 1.385 . S
C3382 C3384 1.478 . S
C3383 H3377 0.930 . S
C3383 C3379 1.400 . S
C3383 C3382 1.385 . S
C3384 C3382 1.478 . S
C3384 C3386 1.381 . S
C3384 C3390 1.383 . S
C3385 C3381 1.495 . S
C3385 H3391 0.959 . S
C3385 H3392 0.961 . S
C3385 H3393 0.960 . S
C3386 C3384 1.381 . S
C3386 C3387 1.394 . S
C3386 H3394 0.930 . S
C3387 C3386 1.394 . S
C3387 C3388 1.383 . S
C3387 H3395 0.929 . S
C3388 C3387 1.383 . S
C3388 C3389 1.377 . S
C3389 H3373 0.930 . S
C3389 C3388 1.377 . S
C3389 C3390 1.379 . S
C3390 H3374 0.931 . S
C3390 C3384 1.383 . S
C3390 C3389 1.379 . S
H3391 C3385 0.959 . S
H3392 C3385 0.961 . S
H3393 C3385 0.960 . S
H3394 C3386 0.930 . S
H3395 C3387 0.929 . S
H3396 C3404 0.929 . S
H3397 C3406 0.930 . S
H3398 C3408 0.930 . S
H3399 C3411 0.929 . S
H3400 C3414 0.930 . S
H3401 C3416 0.960 . S
H3402 C3416 0.960 . S
H3403 C3416 0.960 . S
C3404 H3396 0.929 . S
C3404 C3405 1.377 . S
C3404 C3406 1.384 . S
C3405 C3404 1.377 . S
C3405 C3411 1.390 . S
C3406 H3397 0.930 . S
C3406 C3404 1.384 . S
C3406 C3407 1.372 . S
C3407 C3406 1.372 . S
C3407 C3408 1.400 . S
C3407 C3412 1.490 . S
C3408 H3398 0.930 . S
C3408 C3407 1.400 . S
C3408 C3411 1.386 . S
H3409 C3425 0.930 . S
H3410 C3426 0.931 . S
C3411 H3399 0.929 . S
C3411 C3405 1.390 . S
C3411 C3408 1.386 . S
C3412 C3407 1.490 . S
C3412 C3414 1.395 . S
C3412 C3415 1.403 . S
H3413 C3419 0.930 . S
C3414 H3400 0.930 . S
C3414 C3412 1.395 . S
C3414 C3417 1.403 . S
C3415 C3412 1.403 . S
C3415 C3416 1.524 . S
C3415 C3419 1.400 . S
C3416 H3401 0.960 . S
C3416 H3402 0.960 . S
C3416 H3403 0.960 . S
C3416 C3415 1.524 . S
C3417 C3414 1.403 . S
C3417 C3418 1.392 . S
C3417 C3421 1.495 . S
C3418 C3417 1.392 . S
C3418 C3419 1.385 . S
C3418 C3420 1.478 . S
C3419 H3413 0.930 . S
C3419 C3415 1.400 . S
C3419 C3418 1.385 . S
C3420 C3418 1.478 . S
C3420 C3422 1.381 . S
C3420 C3426 1.383 . S
C3421 C3417 1.495 . S
C3421 H3427 0.959 . S
C3421 H3428 0.961 . S
C3421 H3429 0.960 . S
C3422 C3420 1.381 . S
C3422 C3423 1.394 . S
C3422 H3430 0.930 . S
C3423 C3422 1.394 . S
C3423 C3424 1.383 . S
C3423 H3431 0.929 . S
C3424 C3423 1.383 . S
C3424 C3425 1.377 . S
C3425 H3409 0.930 . S
C3425 C3424 1.377 . S
C3425 C3426 1.379 . S
C3426 H3410 0.931 . S
C3426 C3420 1.383 . S
C3426 C3425 1.379 . S
H3427 C3421 0.959 . S
H3428 C3421 0.961 . S
H3429 C3421 0.960 . S
H3430 C3422 0.930 . S
H3431 C3423 0.929 . S
H3432 C3440 0.929 . S
H3433 C3442 0.930 . S
H3434 C3444 0.930 . S
H3435 C3447 0.929 . S
H3436 C3450 0.930 . S
H3437 C3452 0.960 . S
H3438 C3452 0.960 . S
H3439 C3452 0.960 . S
C3440 H3432 0.929 . S
C3440 C3441 1.377 . S
C3440 C3442 1.384 . S
C3441 C3440 1.377 . S
C3441 C3447 1.390 . S
C3442 H3433 0.930 . S
C3442 C3440 1.384 . S
C3442 C3443 1.372 . S
C3443 C3442 1.372 . S
C3443 C3444 1.400 . S
C3443 C3448 1.490 . S
C3444 H3434 0.930 . S
C3444 C3443 1.400 . S
C3444 C3447 1.386 . S
H3445 C3461 0.930 . S
H3446 C3462 0.931 . S
C3447 H3435 0.929 . S
C3447 C3441 1.390 . S
C3447 C3444 1.386 . S
C3448 C3443 1.490 . S
C3448 C3450 1.395 . S
C3448 C3451 1.403 . S
H3449 C3455 0.930 . S
C3450 H3436 0.930 . S
C3450 C3448 1.395 . S
C3450 C3453 1.403 . S
C3451 C3448 1.403 . S
C3451 C3452 1.524 . S
C3451 C3455 1.400 . S
C3452 H3437 0.960 . S
C3452 H3438 0.960 . S
C3452 H3439 0.960 . S
C3452 C3451 1.524 . S
C3453 C3450 1.403 . S
C3453 C3454 1.392 . S
C3453 C3457 1.495 . S
C3454 C3453 1.392 . S
C3454 C3455 1.385 . S
C3454 C3456 1.478 . S
C3455 H3449 0.930 . S
C3455 C3451 1.400 . S
C3455 C3454 1.385 . S
C3456 C3454 1.478 . S
C3456 C3458 1.381 . S
C3456 C3462 1.383 . S
C3457 C3453 1.495 . S
C3457 H3463 0.959 . S
C3457 H3464 0.961 . S
C3457 H3465 0.960 . S
C3458 C3456 1.381 . S
C3458 C3459 1.394 . S
C3458 H3466 0.930 . S
C3459 C3458 1.394 . S
C3459 C3460 1.383 . S
C3459 H3467 0.929 . S
C3460 C3459 1.383 . S
C3460 C3461 1.377 . S
C3461 H3445 0.930 . S
C3461 C3460 1.377 . S
C3461 C3462 1.379 . S
C3462 H3446 0.931 . S
C3462 C3456 1.383 . S
C3462 C3461 1.379 . S
H3463 C3457 0.959 . S
H3464 C3457 0.961 . S
H3465 C3457 0.960 . S
H3466 C3458 0.930 . S
H3467 C3459 0.929 . S
H3468 C3476 0.929 . S
H3469 C3478 0.930 . S
H3470 C3480 0.930 . S
H3471 C3483 0.929 . S
H3472 C3486 0.930 . S
H3473 C3488 0.960 . S
H3474 C3488 0.960 . S
H3475 C3488 0.960 . S
C3476 H3468 0.929 . S
C3476 C3477 1.377 . S
C3476 C3478 1.384 . S
C3477 C3476 1.377 . S
C3477 C3483 1.390 . S
C3478 H3469 0.930 . S
C3478 C3476 1.384 . S
C3478 C3479 1.372 . S
C3479 C3478 1.372 . S
C3479 C3480 1.400 . S
C3479 C3484 1.490 . S
C3480 H3470 0.930 . S
C3480 C3479 1.400 . S
C3480 C3483 1.386 . S
H3481 C3497 0.930 . S
H3482 C3498 0.931 . S
C3483 H3471 0.929 . S
C3483 C3477 1.390 . S
C3483 C3480 1.386 . S
C3484 C3479 1.490 . S
C3484 C3486 1.395 . S
C3484 C3487 1.403 . S
H3485 C3491 0.930 . S
C3486 H3472 0.930 . S
C3486 C3484 1.395 . S
C3486 C3489 1.403 . S
C3487 C3484 1.403 . S
C3487 C3488 1.524 . S
C3487 C3491 1.400 . S
C3488 H3473 0.960 . S
C3488 H3474 0.960 . S
C3488 H3475 0.960 . S
C3488 C3487 1.524 . S
C3489 C3486 1.403 . S
C3489 C3490 1.392 . S
C3489 C3493 1.495 . S
C3490 C3489 1.392 . S
C3490 C3491 1.385 . S
C3490 C3492 1.478 . S
C3491 H3485 0.930 . S
C3491 C3487 1.400 . S
C3491 C3490 1.385 . S
C3492 C3490 1.478 . S
C3492 C3494 1.381 . S
C3492 C3498 1.383 . S
C3493 C3489 1.495 . S
C3493 H3499 0.959 . S
C3493 H3500 0.961 . S
C3493 H3501 0.960 . S
C3494 C3492 1.381 . S
C3494 C3495 1.394 . S
C3494 H3502 0.930 . S
C3495 C3494 1.394 . S
C3495 C3496 1.383 . S
C3495 H3503 0.929 . S
C3496 C3495 1.383 . S
C3496 C3497 1.377 . S
C3497 H3481 0.930 . S
C3497 C3496 1.377 . S
C3497 C3498 1.379 . S
C3498 H3482 0.931 . S
C3498 C3492 1.383 . S
C3498 C3497 1.379 . S
H3499 C3493 0.959 . S
H3500 C3493 0.961 . S
H3501 C3493 0.960 . S
H3502 C3494 0.930 . S
H3503 C3495 0.929 . S
H3504 C3512 0.929 . S
H3505 C3514 0.930 . S
H3506 C3516 0.930 . S
H3507 C3519 0.929 . S
H3508 C3522 0.930 . S
H3509 C3524 0.960 . S
H3510 C3524 0.960 . S
H3511 C3524 0.960 . S
C3512 H3504 0.929 . S
C3512 C3513 1.377 . S
C3512 C3514 1.384 . S
C3513 C3512 1.377 . S
C3513 C3519 1.390 . S
C3514 H3505 0.930 . S
C3514 C3512 1.384 . S
C3514 C3515 1.372 . S
C3515 C3514 1.372 . S
C3515 C3516 1.400 . S
C3515 C3520 1.490 . S
C3516 H3506 0.930 . S
C3516 C3515 1.400 . S
C3516 C3519 1.386 . S
H3517 C3533 0.930 . S
H3518 C3534 0.931 . S
C3519 H3507 0.929 . S
C3519 C3513 1.390 . S
C3519 C3516 1.386 . S
C3520 C3515 1.490 . S
C3520 C3522 1.395 . S
C3520 C3523 1.403 . S
H3521 C3527 0.930 . S
C3522 H3508 0.930 . S
C3522 C3520 1.395 . S
C3522 C3525 1.403 . S
C3523 C3520 1.403 . S
C3523 C3524 1.524 . S
C3523 C3527 1.400 . S
C3524 H3509 0.960 . S
C3524 H3510 0.960 . S
C3524 H3511 0.960 . S
C3524 C3523 1.524 . S
C3525 C3522 1.403 . S
C3525 C3526 1.392 . S
C3525 C3529 1.495 . S
C3526 C3525 1.392 . S
C3526 C3527 1.385 . S
C3526 C3528 1.478 . S
C3527 H3521 0.930 . S
C3527 C3523 1.400 . S
C3527 C3526 1.385 . S
C3528 C3526 1.478 . S
C3528 C3530 1.381 . S
C3528 C3534 1.383 . S
C3529 C3525 1.495 . S
C3529 H3535 0.959 . S
C3529 H3536 0.961 . S
C3529 H3537 0.960 . S
C3530 C3528 1.381 . S
C3530 C3531 1.394 . S
C3530 H3538 0.930 . S
C3531 C3530 1.394 . S
C3531 C3532 1.383 . S
C3531 H3539 0.929 . S
C3532 C3531 1.383 . S
C3532 C3533 1.377 . S
C3533 H3517 0.930 . S
C3533 C3532 1.377 . S
C3533 C3534 1.379 . S
C3534 H3518 0.931 . S
C3534 C3528 1.383 . S
C3534 C3533 1.379 . S
H3535 C3529 0.959 . S
H3536 C3529 0.961 . S
H3537 C3529 0.960 . S
H3538 C3530 0.930 . S
H3539 C3531 0.929 . S
H3540 C3548 0.929 . S
H3541 C3550 0.930 . S
H3542 C3552 0.930 . S
H3543 C3555 0.929 . S
H3544 C3558 0.930 . S
H3545 C3560 0.960 . S
H3546 C3560 0.960 . S
H3547 C3560 0.960 . S
C3548 H3540 0.929 . S
C3548 C3549 1.377 . S
C3548 C3550 1.384 . S
C3549 C3548 1.377 . S
C3549 C3555 1.390 . S
C3550 H3541 0.930 . S
C3550 C3548 1.384 . S
C3550 C3551 1.372 . S
C3551 C3550 1.372 . S
C3551 C3552 1.400 . S
C3551 C3556 1.490 . S
C3552 H3542 0.930 . S
C3552 C3551 1.400 . S
C3552 C3555 1.386 . S
H3553 C3569 0.930 . S
H3554 C3570 0.931 . S
C3555 H3543 0.929 . S
C3555 C3549 1.390 . S
C3555 C3552 1.386 . S
C3556 C3551 1.490 . S
C3556 C3558 1.395 . S
C3556 C3559 1.403 . S
H3557 C3563 0.930 . S
C3558 H3544 0.930 . S
C3558 C3556 1.395 . S
C3558 C3561 1.403 . S
C3559 C3556 1.403 . S
C3559 C3560 1.524 . S
C3559 C3563 1.400 . S
C3560 H3545 0.960 . S
C3560 H3546 0.960 . S
C3560 H3547 0.960 . S
C3560 C3559 1.524 . S
C3561 C3558 1.403 . S
C3561 C3562 1.392 . S
C3561 C3565 1.495 . S
C3562 C3561 1.392 . S
C3562 C3563 1.385 . S
C3562 C3564 1.478 . S
C3563 H3557 0.930 . S
C3563 C3559 1.400 . S
C3563 C3562 1.385 . S
C3564 C3562 1.478 . S
C3564 C3566 1.381 . S
C3564 C3570 1.383 . S
C3565 C3561 1.495 . S
C3565 H3571 0.959 . S
C3565 H3572 0.961 . S
C3565 H3573 0.960 . S
C3566 C3564 1.381 . S
C3566 C3567 1.394 . S
C3566 H3574 0.930 . S
C3567 C3566 1.394 . S
C3567 C3568 1.383 . S
C3567 H3575 0.929 . S
C3568 C3567 1.383 . S
C3568 C3569 1.377 . S
C3569 H3553 0.930 . S
C3569 C3568 1.377 . S
C3569 C3570 1.379 . S
C3570 H3554 0.931 . S
C3570 C3564 1.383 . S
C3570 C3569 1.379 . S
H3571 C3565 0.959 . S
H3572 C3565 0.961 . S
H3573 C3565 0.960 . S
H3574 C3566 0.930 . S
H3575 C3567 0.929 . S
H3576 C3584 0.929 . S
H3577 C3586 0.930 . S
H3578 C3588 0.930 . S
H3579 C3591 0.929 . S
H3580 C3594 0.930 . S
H3581 C3596 0.960 . S
H3582 C3596 0.960 . S
H3583 C3596 0.960 . S
C3584 H3576 0.929 . S
C3584 C3585 1.377 . S
C3584 C3586 1.384 . S
C3585 C3584 1.377 . S
C3585 C3591 1.390 . S
C3586 H3577 0.930 . S
C3586 C3584 1.384 . S
C3586 C3587 1.372 . S
C3587 C3586 1.372 . S
C3587 C3588 1.400 . S
C3587 C3592 1.490 . S
C3588 H3578 0.930 . S
C3588 C3587 1.400 . S
C3588 C3591 1.386 . S
H3589 C3605 0.930 . S
H3590 C3606 0.931 . S
C3591 H3579 0.929 . S
C3591 C3585 1.390 . S
C3591 C3588 1.386 . S
C3592 C3587 1.490 . S
C3592 C3594 1.395 . S
C3592 C3595 1.403 . S
H3593 C3599 0.930 . S
C3594 H3580 0.930 . S
C3594 C3592 1.395 . S
C3594 C3597 1.403 . S
C3595 C3592 1.403 . S
C3595 C3596 1.524 . S
C3595 C3599 1.400 . S
C3596 H3581 0.960 . S
C3596 H3582 0.960 . S
C3596 H3583 0.960 . S
C3596 C3595 1.524 . S
C3597 C3594 1.403 . S
C3597 C3598 1.392 . S
C3597 C3601 1.495 . S
C3598 C3597 1.392 . S
C3598 C3599 1.385 . S
C3598 C3600 1.478 . S
C3599 H3593 0.930 . S
C3599 C3595 1.400 . S
C3599 C3598 1.385 . S
C3600 C3598 1.478 . S
C3600 C3602 1.381 . S
C3600 C3606 1.383 . S
C3601 C3597 1.495 . S
C3601 H3607 0.959 . S
C3601 H3608 0.961 . S
C3601 H3609 0.960 . S
C3602 C3600 1.381 . S
C3602 C3603 1.394 . S
C3602 H3610 0.930 . S
C3603 C3602 1.394 . S
C3603 C3604 1.383 . S
C3603 H3611 0.929 . S
C3604 C3603 1.383 . S
C3604 C3605 1.377 . S
C3605 H3589 0.930 . S
C3605 C3604 1.377 . S
C3605 C3606 1.379 . S
C3606 H3590 0.931 . S
C3606 C3600 1.383 . S
C3606 C3605 1.379 . S
H3607 C3601 0.959 . S
H3608 C3601 0.961 . S
H3609 C3601 0.960 . S
H3610 C3602 0.930 . S
H3611 C3603 0.929 . S
H3612 C3620 0.929 . S
H3613 C3622 0.930 . S
H3614 C3624 0.930 . S
H3615 C3627 0.929 . S
H3616 C3630 0.930 . S
H3617 C3632 0.960 . S
H3618 C3632 0.960 . S
H3619 C3632 0.960 . S
C3620 H3612 0.929 . S
C3620 C3621 1.377 . S
C3620 C3622 1.384 . S
C3621 C3620 1.377 . S
C3621 C3627 1.390 . S
C3622 H3613 0.930 . S
C3622 C3620 1.384 . S
C3622 C3623 1.372 . S
C3623 C3622 1.372 . S
C3623 C3624 1.400 . S
C3623 C3628 1.490 . S
C3624 H3614 0.930 . S
C3624 C3623 1.400 . S
C3624 C3627 1.386 . S
H3625 C3641 0.930 . S
H3626 C3642 0.931 . S
C3627 H3615 0.929 . S
C3627 C3621 1.390 . S
C3627 C3624 1.386 . S
C3628 C3623 1.490 . S
C3628 C3630 1.395 . S
C3628 C3631 1.403 . S
H3629 C3635 0.930 . S
C3630 H3616 0.930 . S
C3630 C3628 1.395 . S
C3630 C3633 1.403 . S
C3631 C3628 1.403 . S
C3631 C3632 1.524 . S
C3631 C3635 1.400 . S
C3632 H3617 0.960 . S
C3632 H3618 0.960 . S
C3632 H3619 0.960 . S
C3632 C3631 1.524 . S
C3633 C3630 1.403 . S
C3633 C3634 1.392 . S
C3633 C3637 1.495 . S
C3634 C3633 1.392 . S
C3634 C3635 1.385 . S
C3634 C3636 1.478 . S
C3635 H3629 0.930 . S
C3635 C3631 1.400 . S
C3635 C3634 1.385 . S
C3636 C3634 1.478 . S
C3636 C3638 1.381 . S
C3636 C3642 1.383 . S
C3637 C3633 1.495 . S
C3637 H3643 0.959 . S
C3637 H3644 0.961 . S
C3637 H3645 0.960 . S
C3638 C3636 1.381 . S
C3638 C3639 1.394 . S
C3638 H3646 0.930 . S
C3639 C3638 1.394 . S
C3639 C3640 1.383 . S
C3639 H3647 0.929 . S
C3640 C3639 1.383 . S
C3640 C3641 1.377 . S
C3641 H3625 0.930 . S
C3641 C3640 1.377 . S
C3641 C3642 1.379 . S
C3642 H3626 0.931 . S
C3642 C3636 1.383 . S
C3642 C3641 1.379 . S
H3643 C3637 0.959 . S
H3644 C3637 0.961 . S
H3645 C3637 0.960 . S
H3646 C3638 0.930 . S
H3647 C3639 0.929 . S
H3648 C3656 0.929 . S
H3649 C3658 0.930 . S
H3650 C3660 0.930 . S
H3651 C3663 0.929 . S
H3652 C3666 0.930 . S
H3653 C3668 0.960 . S
H3654 C3668 0.960 . S
H3655 C3668 0.960 . S
C3656 H3648 0.929 . S
C3656 C3657 1.377 . S
C3656 C3658 1.384 . S
C3657 C3656 1.377 . S
C3657 C3663 1.390 . S
C3658 H3649 0.930 . S
C3658 C3656 1.384 . S
C3658 C3659 1.372 . S
C3659 C3658 1.372 . S
C3659 C3660 1.400 . S
C3659 C3664 1.490 . S
C3660 H3650 0.930 . S
C3660 C3659 1.400 . S
C3660 C3663 1.386 . S
H3661 C3677 0.930 . S
H3662 C3678 0.931 . S
C3663 H3651 0.929 . S
C3663 C3657 1.390 . S
C3663 C3660 1.386 . S
C3664 C3659 1.490 . S
C3664 C3666 1.395 . S
C3664 C3667 1.403 . S
H3665 C3671 0.930 . S
C3666 H3652 0.930 . S
C3666 C3664 1.395 . S
C3666 C3669 1.403 . S
C3667 C3664 1.403 . S
C3667 C3668 1.524 . S
C3667 C3671 1.400 . S
C3668 H3653 0.960 . S
C3668 H3654 0.960 . S
C3668 H3655 0.960 . S
C3668 C3667 1.524 . S
C3669 C3666 1.403 . S
C3669 C3670 1.392 . S
C3669 C3673 1.495 . S
C3670 C3669 1.392 . S
C3670 C3671 1.385 . S
C3670 C3672 1.478 . S
C3671 H3665 0.930 . S
C3671 C3667 1.400 . S
C3671 C3670 1.385 . S
C3672 C3670 1.478 . S
C3672 C3674 1.381 . S
C3672 C3678 1.383 . S
C3673 C3669 1.495 . S
C3673 H3679 0.959 . S
C3673 H3680 0.961 . S
C3673 H3681 0.960 . S
C3674 C3672 1.381 . S
C3674 C3675 1.394 . S
C3674 H3682 0.930 . S
C3675 C3674 1.394 . S
C3675 C3676 1.383 . S
C3675 H3683 0.929 . S
C3676 C3675 1.383 . S
C3676 C3677 1.377 . S
C3677 H3661 0.930 . S
C3677 C3676 1.377 . S
C3677 C3678 1.379 . S
C3678 H3662 0.931 . S
C3678 C3672 1.383 . S
C3678 C3677 1.379 . S
H3679 C3673 0.959 . S
H3680 C3673 0.961 . S
H3681 C3673 0.960 . S
H3682 C3674 0.930 . S
H3683 C3675 0.929 . S
H3684 C3692 0.929 . S
H3685 C3694 0.930 . S
H3686 C3696 0.930 . S
H3687 C3699 0.929 . S
H3688 C3702 0.930 . S
H3689 C3704 0.960 . S
H3690 C3704 0.960 . S
H3691 C3704 0.960 . S
C3692 H3684 0.929 . S
C3692 C3693 1.377 . S
C3692 C3694 1.384 . S
C3693 C3692 1.377 . S
C3693 C3699 1.390 . S
C3694 H3685 0.930 . S
C3694 C3692 1.384 . S
C3694 C3695 1.372 . S
C3695 C3694 1.372 . S
C3695 C3696 1.400 . S
C3695 C3700 1.490 . S
C3696 H3686 0.930 . S
C3696 C3695 1.400 . S
C3696 C3699 1.386 . S
H3697 C3713 0.930 . S
H3698 C3714 0.931 . S
C3699 H3687 0.929 . S
C3699 C3693 1.390 . S
C3699 C3696 1.386 . S
C3700 C3695 1.490 . S
C3700 C3702 1.395 . S
C3700 C3703 1.403 . S
H3701 C3707 0.930 . S
C3702 H3688 0.930 . S
C3702 C3700 1.395 . S
C3702 C3705 1.403 . S
C3703 C3700 1.403 . S
C3703 C3704 1.524 . S
C3703 C3707 1.400 . S
C3704 H3689 0.960 . S
C3704 H3690 0.960 . S
C3704 H3691 0.960 . S
C3704 C3703 1.524 . S
C3705 C3702 1.403 . S
C3705 C3706 1.392 . S
C3705 C3709 1.495 . S
C3706 C3705 1.392 . S
C3706 C3707 1.385 . S
C3706 C3708 1.478 . S
C3707 H3701 0.930 . S
C3707 C3703 1.400 . S
C3707 C3706 1.385 . S
C3708 C3706 1.478 . S
C3708 C3710 1.381 . S
C3708 C3714 1.383 . S
C3709 C3705 1.495 . S
C3709 H3715 0.959 . S
C3709 H3716 0.961 . S
C3709 H3717 0.960 . S
C3710 C3708 1.381 . S
C3710 C3711 1.394 . S
C3710 H3718 0.930 . S
C3711 C3710 1.394 . S
C3711 C3712 1.383 . S
C3711 H3719 0.929 . S
C3712 C3711 1.383 . S
C3712 C3713 1.377 . S
C3713 H3697 0.930 . S
C3713 C3712 1.377 . S
C3713 C3714 1.379 . S
C3714 H3698 0.931 . S
C3714 C3708 1.383 . S
C3714 C3713 1.379 . S
H3715 C3709 0.959 . S
H3716 C3709 0.961 . S
H3717 C3709 0.960 . S
H3718 C3710 0.930 . S
H3719 C3711 0.929 . S
H3720 C3728 0.929 . S
H3721 C3730 0.930 . S
H3722 C3732 0.930 . S
H3723 C3735 0.929 . S
H3724 C3738 0.930 . S
H3725 C3740 0.960 . S
H3726 C3740 0.960 . S
H3727 C3740 0.960 . S
C3728 H3720 0.929 . S
C3728 C3729 1.377 . S
C3728 C3730 1.384 . S
C3729 C3728 1.377 . S
C3729 C3735 1.390 . S
C3730 H3721 0.930 . S
C3730 C3728 1.384 . S
C3730 C3731 1.372 . S
C3731 C3730 1.372 . S
C3731 C3732 1.400 . S
C3731 C3736 1.490 . S
C3732 H3722 0.930 . S
C3732 C3731 1.400 . S
C3732 C3735 1.386 . S
H3733 C3749 0.930 . S
H3734 C3750 0.931 . S
C3735 H3723 0.929 . S
C3735 C3729 1.390 . S
C3735 C3732 1.386 . S
C3736 C3731 1.490 . S
C3736 C3738 1.395 . S
C3736 C3739 1.403 . S
H3737 C3743 0.930 . S
C3738 H3724 0.930 . S
C3738 C3736 1.395 . S
C3738 C3741 1.403 . S
C3739 C3736 1.403 . S
C3739 C3740 1.524 . S
C3739 C3743 1.400 . S
C3740 H3725 0.960 . S
C3740 H3726 0.960 . S
C3740 H3727 0.960 . S
C3740 C3739 1.524 . S
C3741 C3738 1.403 . S
C3741 C3742 1.392 . S
C3741 C3745 1.495 . S
C3742 C3741 1.392 . S
C3742 C3743 1.385 . S
C3742 C3744 1.478 . S
C3743 H3737 0.930 . S
C3743 C3739 1.400 . S
C3743 C3742 1.385 . S
C3744 C3742 1.478 . S
C3744 C3746 1.381 . S
C3744 C3750 1.383 . S
C3745 C3741 1.495 . S
C3745 H3751 0.959 . S
C3745 H3752 0.961 . S
C3745 H3753 0.960 . S
C3746 C3744 1.381 . S
C3746 C3747 1.394 . S
C3746 H3754 0.930 . S
C3747 C3746 1.394 . S
C3747 C3748 1.383 . S
C3747 H3755 0.929 . S
C3748 C3747 1.383 . S
C3748 C3749 1.377 . S
C3749 H3733 0.930 . S
C3749 C3748 1.377 . S
C3749 C3750 1.379 . S
C3750 H3734 0.931 . S
C3750 C3744 1.383 . S
C3750 C3749 1.379 . S
H3751 C3745 0.959 . S
H3752 C3745 0.961 . S
H3753 C3745 0.960 . S
H3754 C3746 0.930 . S
H3755 C3747 0.929 . S
H3756 C3764 0.929 . S
H3757 C3766 0.930 . S
H3758 C3768 0.930 . S
H3759 C3771 0.929 . S
H3760 C3774 0.930 . S
H3761 C3776 0.960 . S
H3762 C3776 0.960 . S
H3763 C3776 0.960 . S
C3764 H3756 0.929 . S
C3764 C3765 1.377 . S
C3764 C3766 1.384 . S
C3765 C3764 1.377 . S
C3765 C3771 1.390 . S
C3766 H3757 0.930 . S
C3766 C3764 1.384 . S
C3766 C3767 1.372 . S
C3767 C3766 1.372 . S
C3767 C3768 1.400 . S
C3767 C3772 1.490 . S
C3768 H3758 0.930 . S
C3768 C3767 1.400 . S
C3768 C3771 1.386 . S
H3769 C3785 0.930 . S
H3770 C3786 0.931 . S
C3771 H3759 0.929 . S
C3771 C3765 1.390 . S
C3771 C3768 1.386 . S
C3772 C3767 1.490 . S
C3772 C3774 1.395 . S
C3772 C3775 1.403 . S
H3773 C3779 0.930 . S
C3774 H3760 0.930 . S
C3774 C3772 1.395 . S
C3774 C3777 1.403 . S
C3775 C3772 1.403 . S
C3775 C3776 1.524 . S
C3775 C3779 1.400 . S
C3776 H3761 0.960 . S
C3776 H3762 0.960 . S
C3776 H3763 0.960 . S
C3776 C3775 1.524 . S
C3777 C3774 1.403 . S
C3777 C3778 1.392 . S
C3777 C3781 1.495 . S
C3778 C3777 1.392 . S
C3778 C3779 1.385 . S
C3778 C3780 1.478 . S
C3779 H3773 0.930 . S
C3779 C3775 1.400 . S
C3779 C3778 1.385 . S
C3780 C3778 1.478 . S
C3780 C3782 1.381 . S
C3780 C3786 1.383 . S
C3781 C3777 1.495 . S
C3781 H3787 0.959 . S
C3781 H3788 0.961 . S
C3781 H3789 0.960 . S
C3782 C3780 1.381 . S
C3782 C3783 1.394 . S
C3782 H3790 0.930 . S
C3783 C3782 1.394 . S
C3783 C3784 1.383 . S
C3783 H3791 0.929 . S
C3784 C3783 1.383 . S
C3784 C3785 1.377 . S
C3785 H3769 0.930 . S
C3785 C3784 1.377 . S
C3785 C3786 1.379 . S
C3786 H3770 0.931 . S
C3786 C3780 1.383 . S
C3786 C3785 1.379 . S
H3787 C3781 0.959 . S
H3788 C3781 0.961 . S
H3789 C3781 0.960 . S
H3790 C3782 0.930 . S
H3791 C3783 0.929 . S
H3792 C3800 0.929 . S
H3793 C3802 0.930 . S
H3794 C3804 0.930 . S
H3795 C3807 0.929 . S
H3796 C3810 0.930 . S
H3797 C3812 0.960 . S
H3798 C3812 0.960 . S
H3799 C3812 0.960 . S
C3800 H3792 0.929 . S
C3800 C3801 1.377 . S
C3800 C3802 1.384 . S
C3801 C3800 1.377 . S
C3801 C3807 1.390 . S
C3802 H3793 0.930 . S
C3802 C3800 1.384 . S
C3802 C3803 1.372 . S
C3803 C3802 1.372 . S
C3803 C3804 1.400 . S
C3803 C3808 1.490 . S
C3804 H3794 0.930 . S
C3804 C3803 1.400 . S
C3804 C3807 1.386 . S
H3805 C3821 0.930 . S
H3806 C3822 0.931 . S
C3807 H3795 0.929 . S
C3807 C3801 1.390 . S
C3807 C3804 1.386 . S
C3808 C3803 1.490 . S
C3808 C3810 1.395 . S
C3808 C3811 1.403 . S
H3809 C3815 0.930 . S
C3810 H3796 0.930 . S
C3810 C3808 1.395 . S
C3810 C3813 1.403 . S
C3811 C3808 1.403 . S
C3811 C3812 1.524 . S
C3811 C3815 1.400 . S
C3812 H3797 0.960 . S
C3812 H3798 0.960 . S
C3812 H3799 0.960 . S
C3812 C3811 1.524 . S
C3813 C3810 1.403 . S
C3813 C3814 1.392 . S
C3813 C3817 1.495 . S
C3814 C3813 1.392 . S
C3814 C3815 1.385 . S
C3814 C3816 1.478 . S
C3815 H3809 0.930 . S
C3815 C3811 1.400 . S
C3815 C3814 1.385 . S
C3816 C3814 1.478 . S
C3816 C3818 1.381 . S
C3816 C3822 1.383 . S
C3817 C3813 1.495 . S
C3817 H3823 0.959 . S
C3817 H3824 0.961 . S
C3817 H3825 0.960 . S
C3818 C3816 1.381 . S
C3818 C3819 1.394 . S
C3818 H3826 0.930 . S
C3819 C3818 1.394 . S
C3819 C3820 1.383 . S
C3819 H3827 0.929 . S
C3820 C3819 1.383 . S
C3820 C3821 1.377 . S
C3821 H3805 0.930 . S
C3821 C3820 1.377 . S
C3821 C3822 1.379 . S
C3822 H3806 0.931 . S
C3822 C3816 1.383 . S
C3822 C3821 1.379 . S
H3823 C3817 0.959 . S
H3824 C3817 0.961 . S
H3825 C3817 0.960 . S
H3826 C3818 0.930 . S
H3827 C3819 0.929 . S
C1264 C942 0.939 . S
C1245 C898 0.938 . S
C1281 C820 0.941 . S
C1300 C940 0.937 . S
C1336 C941 0.940 . S
C1317 C781 0.944 . S
C1353 C859 0.942 . S
C1372 C943 0.943 . S
C1408 C987 0.940 . S
C1389 C625 0.935 . S
C1444 C1047 0.940 . S
C1425 C664 0.938 . S
C1461 C703 0.941 . S
C1480 C986 0.940 . S
C1516 C1046 0.940 . S
C1497 C742 0.938 . S
C1533 C469 0.941 . S
C1552 C988 0.945 . S
C1588 C1044 0.940 . S
C1569 C508 0.943 . S
C1605 C547 0.941 . S
C1624 C989 0.939 . S
C1641 C586 0.941 . S
C1660 C1045 0.943 . S
C1696 C1095 0.940 . S
C1677 C430 0.941 1_556 S
C1713 C352 0.940 . S
C1732 C1094 0.939 . S
C1749 C313 0.941 . S
C1768 C1096 0.940 . S
C1804 C1097 0.940 1_556 S
C1785 C391 0.941 1_554 S
C1821 C157 0.940 . S
C1840 C1138 0.939 . S
C1857 C196 0.940 . S
C1876 C1197 0.939 . S
C1893 C235 0.941 . S
C1912 C1136 0.939 . S
C1929 C274 0.941 . S
C1948 C1196 0.939 . S
C1984 C1137 0.940 . S
C1965 C1 0.945 . S
C2020 C1194 0.939 1_565 S
C2001 C40 0.941 . S
C2037 C79 0.944 . S
C2056 C1139 0.940 . S
C2092 C1195 0.939 . S
C2073 C118 0.940 . S
C2128 C939 1.863 . S
C2109 C16 1.778 . S
C2145 C60 1.775 . S
C2164 C945 1.869 1_565 S
C2181 C99 1.778 . S
C2200 C937 1.863 . S
C2217 C133 1.776 1_545 S
C2236 C944 1.863 . S
C2253 C172 1.774 . S
C2272 C936 1.863 . S
C2308 C946 1.876 1_565 S
C2289 C211 1.781 . S
C2325 C255 1.778 . S
C2344 C938 1.870 . S
C2380 C947 1.856 . S
C2361 C294 1.771 1_545 S
C2416 C993 1.858 . S
C2397 C138 1.773 1_565 S
C2433 C21 1.776 . S
C2452 C1036 1.857 . S
C2488 C991 1.862 1_565 S
C2469 C55 1.776 1_545 S
C2524 C1038 1.873 . S
C2505 C94 1.775 . S
C2541 C216 1.776 . S
C2560 C992 1.873 . S
C2596 C1037 1.873 . S
C2577 C250 1.782 . S
C2632 C990 1.862 . S
C2613 C289 1.781 1_565 S
C2668 C1039 1.874 . S
C2649 C177 1.783 . S
C2704 C1043 1.865 . S
C2685 C328 1.781 1_556 S
C2721 C367 1.779 . S
C2740 C1042 1.875 . S
C2776 C994 1.871 1_556 S
C2757 C333 1.776 . S
C2812 C1041 1.856 . S
C2793 C411 1.772 1_554 S
C2829 C445 1.775 1_554 S
C2848 C997 1.864 . S
C2865 C450 1.772 1_556 S
C2884 C1040 1.856 . S
C2920 C996 1.858 1_556 S
C2901 C372 1.774 1_556 S
C2956 C995 1.861 . S
C2937 C406 1.774 1_556 S
C2992 C1089 1.860 . S
C2973 C484 1.778 . S
C3028 C1092 1.860 . S
C3009 C528 1.781 . S
C3045 C567 1.781 . S
C3064 C1088 1.876 . S
C3100 C1090 1.863 . S
C3081 C601 1.778 . S
C3136 C1086 1.861 . S
C3117 C640 1.774 . S
C3153 C679 1.780 . S
C3172 C1091 1.873 . S
C3189 C723 1.777 . S
C3208 C1087 1.869 . S
C3244 C1093 1.861 . S
C3225 C762 1.776 . S
C3280 C1147 1.871 . S
C3261 C606 1.776 . S
C3297 C489 1.783 . S
C3316 C1186 1.869 . S
C3352 C1146 1.862 . S
C3333 C523 1.773 . S
C3388 C1188 1.860 . S
C3369 C562 1.769 . S
C3424 C1145 1.871 . S
C3405 C684 1.778 . S
C3441 C718 1.771 . S
C3460 C1187 1.865 . S
C3496 C1144 1.866 . S
C3477 C757 1.782 . S
C3532 C1189 1.873 . S
C3513 C645 1.778 . S
C3568 C1193 1.864 . S
C3549 C796 1.777 . S
C3585 C835 1.782 . S
C3604 C1192 1.873 . S
C3640 C1140 1.868 . S
C3621 C801 1.781 . S
C3657 C879 1.773 . S
C3676 C1191 1.859 . S
C3712 C1143 1.862 . S
C3693 C913 1.777 . S
C3748 C1190 1.869 . S
C3729 C918 1.776 . S
C3784 C1141 1.858 . S
C3765 C840 1.776 . S
C3801 C874 1.780 . S
C3820 C1142 1.875 . S
