# Generated by pormake.
# Topology zzz, (3,6)-cn, num edge types: 1
# Building blocks:
#     Node 0, Type 0, BuildingBlock: MIDCAF_clean_linker_0, # of connection points: 3
#     Node 1, Type 0, BuildingBlock: MIDCAF_clean_linker_0, # of connection points: 3
#     Node 2, Type 0, BuildingBlock: MIDCAF_clean_linker_0, # of connection points: 3
#     Node 3, Type 0, BuildingBlock: MIDCAF_clean_linker_0, # of connection points: 3
#     Node 4, Type 0, BuildingBlock: MIDCAF_clean_linker_0, # of connection points: 3
#     Node 5, Type 0, BuildingBlock: MIDCAF_clean_linker_0, # of connection points: 3
#     Node 6, Type 0, BuildingBlock: MIDCAF_clean_linker_0, # of connection points: 3
#     Node 7, Type 0, BuildingBlock: MIDCAF_clean_linker_0, # of connection points: 3
#     Node 8, Type 1, BuildingBlock: PAMTOO_clean_sbu_0, # of connection points: 6
#     Node 9, Type 1, BuildingBlock: PAMTOO_clean_sbu_0, # of connection points: 6
#     Node 10, Type 1, BuildingBlock: PAMTOO_clean_sbu_0, # of connection points: 6
#     Node 11, Type 1, BuildingBlock: PAMTOO_clean_sbu_0, # of connection points: 6
#     Edge 12, Type (0, 1), BuildingBlock: XUDNAN_clean_linker_2, # of connection points: 2
#     Edge 13, Type (0, 1), BuildingBlock: XUDNAN_clean_linker_2, # of connection points: 2
#     Edge 14, Type (0, 1), BuildingBlock: XUDNAN_clean_linker_2, # of connection points: 2
#     Edge 15, Type (0, 1), BuildingBlock: XUDNAN_clean_linker_2, # of connection points: 2
#     Edge 16, Type (0, 1), BuildingBlock: XUDNAN_clean_linker_2, # of connection points: 2
#     Edge 17, Type (0, 1), BuildingBlock: XUDNAN_clean_linker_2, # of connection points: 2
#     Edge 18, Type (0, 1), BuildingBlock: XUDNAN_clean_linker_2, # of connection points: 2
#     Edge 19, Type (0, 1), BuildingBlock: XUDNAN_clean_linker_2, # of connection points: 2
#     Edge 20, Type (0, 1), BuildingBlock: XUDNAN_clean_linker_2, # of connection points: 2
#     Edge 21, Type (0, 1), BuildingBlock: XUDNAN_clean_linker_2, # of connection points: 2
#     Edge 22, Type (0, 1), BuildingBlock: XUDNAN_clean_linker_2, # of connection points: 2
#     Edge 23, Type (0, 1), BuildingBlock: XUDNAN_clean_linker_2, # of connection points: 2
#     Edge 24, Type (0, 1), BuildingBlock: XUDNAN_clean_linker_2, # of connection points: 2
#     Edge 25, Type (0, 1), BuildingBlock: XUDNAN_clean_linker_2, # of connection points: 2
#     Edge 26, Type (0, 1), BuildingBlock: XUDNAN_clean_linker_2, # of connection points: 2
#     Edge 27, Type (0, 1), BuildingBlock: XUDNAN_clean_linker_2, # of connection points: 2
#     Edge 28, Type (0, 1), BuildingBlock: XUDNAN_clean_linker_2, # of connection points: 2
#     Edge 29, Type (0, 1), BuildingBlock: XUDNAN_clean_linker_2, # of connection points: 2
#     Edge 30, Type (0, 1), BuildingBlock: XUDNAN_clean_linker_2, # of connection points: 2
#     Edge 31, Type (0, 1), BuildingBlock: XUDNAN_clean_linker_2, # of connection points: 2
#     Edge 32, Type (0, 1), BuildingBlock: XUDNAN_clean_linker_2, # of connection points: 2
#     Edge 33, Type (0, 1), BuildingBlock: XUDNAN_clean_linker_2, # of connection points: 2
#     Edge 34, Type (0, 1), BuildingBlock: XUDNAN_clean_linker_2, # of connection points: 2
#     Edge 35, Type (0, 1), BuildingBlock: XUDNAN_clean_linker_2, # of connection points: 2
# Relax obj value: 0.351
# Max RMSD: 0.278
# Mean RMSD: 0.220
data_MOF--net-zzz--node1-PAMTOO_clean_sbu_0--node2-MIDCAF_clean_linker_0--edge1-XUDNAN_clean_linker_2
_symmetry_space_group_name_H-M    P1
_symmetry_Int_Tables_number       1
_symmetry_cell_setting            triclinic
loop_
_symmetry_equiv_pos_as_xyz
'x, y, z'
_cell_length_a     64.120141
_cell_length_b     55.452815
_cell_length_c     20.890386
_cell_angle_alpha  91.067761
_cell_angle_beta   81.660564
_cell_angle_gamma 84.580807
loop_
_atom_site_label
_atom_site_type_symbol
_atom_site_fract_x
_atom_site_fract_y
_atom_site_fract_z
_atom_type_partial_charge
C0 C 0.83458 0.56097 0.53987 0.0
C1 C 0.83707 0.5369 0.55897 0.0
C2 C 0.82237 0.52105 0.54392 0.0
C3 C 0.80637 0.52885 0.50695 0.0
H4 H 0.72472 0.54979 0.44327 0.0
H5 H 0.69292 0.54085 0.39783 0.0
H6 H 0.73061 0.52829 0.2092 0.0
H7 H 0.76201 0.53677 0.25493 0.0
H8 H 0.77367 0.59979 0.23366 0.0
H9 H 0.79688 0.61297 0.14109 0.0
H10 H 0.84388 0.62478 0.26374 0.0
H11 H 0.82074 0.612 0.35636 0.0
H12 H 0.81773 0.58742 0.48918 0.0
H13 H 0.84527 0.57381 0.55188 0.0
H14 H 0.82382 0.50237 0.5583 0.0
H15 H 0.79602 0.51594 0.49317 0.0
N16 N 0.77404 0.5488 0.42287 0.0
N17 N 0.76994 0.5748 0.33651 0.0
N18 N 0.79666 0.57949 0.39874 0.0
C19 C 0.76343 0.55618 0.37301 0.0
C20 C 0.78639 0.5867 0.3492 0.0
C21 C 0.79081 0.56076 0.43603 0.0
C22 C 0.74586 0.54371 0.35281 0.0
C23 C 0.72625 0.5441 0.39279 0.0
C24 C 0.708 0.53938 0.36633 0.0
C25 C 0.70903 0.53414 0.2994 0.0
C26 C 0.72905 0.532 0.26084 0.0
C27 C 0.74713 0.53683 0.28712 0.0
C28 C 0.79587 0.60357 0.30169 0.0
C29 C 0.78855 0.60621 0.24164 0.0
C30 C 0.80178 0.61396 0.18851 0.0
C31 C 0.82246 0.61902 0.19481 0.0
C32 C 0.82812 0.62072 0.25711 0.0
C33 C 0.8149 0.61303 0.31027 0.0
C34 C 0.80468 0.55272 0.48499 0.0
C35 C 0.81862 0.56878 0.50397 0.0
C36 C 0.9672 0.79474 0.51961 0.0
C37 C 0.98886 0.79623 0.49843 0.0
C38 C 0.99929 0.7796 0.44936 0.0
C39 C 0.98783 0.76406 0.41718 0.0
H40 H 0.91952 0.70992 0.2324 0.0
H41 H 0.92848 0.67959 0.14526 0.0
H42 H 0.9939 0.67405 0.17565 0.0
H43 H 0.98484 0.7047 0.2645 0.0
H44 H 0.90506 0.77114 0.2199 0.0
H45 H 0.89448 0.80902 0.17114 0.0
H46 H 0.90115 0.84826 0.34665 0.0
H47 H 0.91039 0.81065 0.39616 0.0
H48 H 0.93886 0.78005 0.50213 0.0
H49 H 0.95843 0.80711 0.55682 0.0
H50 H 0.01609 0.77966 0.43287 0.0
H51 H 0.99591 0.75323 0.37565 0.0
N52 N 0.95808 0.73634 0.34742 0.0
N53 N 0.92928 0.74741 0.29201 0.0
N54 N 0.9355 0.77182 0.37771 0.0
C55 C 0.94599 0.73138 0.30076 0.0
C56 C 0.92396 0.76772 0.33013 0.0
C57 C 0.95241 0.75646 0.3872 0.0
C58 C 0.95153 0.7101 0.25491 0.0
C59 C 0.93584 0.70218 0.22117 0.0
C60 C 0.94097 0.6848 0.17088 0.0
C61 C 0.96198 0.67479 0.15244 0.0
C62 C 0.97756 0.68149 0.18862 0.0
C63 C 0.97238 0.69902 0.2395 0.0
C64 C 0.90964 0.78799 0.31077 0.0
C65 C 0.90335 0.78775 0.24906 0.0
C66 C 0.89742 0.80956 0.22087 0.0
C67 C 0.89804 0.83187 0.25357 0.0
C68 C 0.90079 0.83162 0.31915 0.0
C69 C 0.90636 0.80986 0.34761 0.0
C70 C 0.96577 0.7648 0.43384 0.0
C71 C 0.95586 0.77918 0.48791 0.0
C72 C 0.7156 0.979 0.38359 0.0
C73 C 0.69763 0.99484 0.40938 0.0
C74 C 0.69662 0.01893 0.38945 0.0
C75 C 0.71226 0.02654 0.34249 0.0
H76 H 0.81275 0.0285 0.19799 0.0
H77 H 0.84619 0.01994 0.12412 0.0
H78 H 0.81725 0.9684 0.01664 0.0
H79 H 0.784 0.97704 0.09054 0.0
H80 H 0.76211 0.05869 0.04424 0.0
H81 H 0.74245 0.07847 0.96502 0.0
H82 H 0.68469 0.0797 0.10116 0.0
H83 H 0.70427 0.06103 0.18047 0.0
H84 H 0.7444 0.97375 0.31539 0.0
H85 H 0.71718 0.9604 0.39846 0.0
H86 H 0.6831 0.03169 0.40733 0.0
H87 H 0.71031 0.04501 0.32676 0.0
N88 N 0.76339 0.00711 0.23438 0.0
N89 N 0.76549 0.0313 0.14238 0.0
N90 N 0.73475 0.03495 0.2181 0.0
C91 C 0.77461 0.01429 0.1782 0.0
C92 C 0.74558 0.04173 0.16188 0.0
C93 C 0.74332 0.01787 0.25498 0.0
C94 C 0.79594 0.00299 0.15091 0.0
C95 C 0.81393 0.01446 0.16051 0.0
C96 C 0.83302 0.00969 0.1178 0.0
C97 C 0.83435 0.99371 0.06386 0.0
C98 C 0.81673 0.981 0.05721 0.0
C99 C 0.79776 0.98564 0.10013 0.0
C100 C 0.73473 0.05779 0.11839 0.0
C101 C 0.74529 0.06374 0.05777 0.0
C102 C 0.73401 0.075 0.01218 0.0
C103 C 0.71191 0.08044 0.02612 0.0
C104 C 0.7017 0.07614 0.08856 0.0
C105 C 0.71297 0.06511 0.13417 0.0
C106 C 0.72952 0.01038 0.31369 0.0
C107 C 0.73139 0.98669 0.33641 0.0
C108 C 0.45419 0.66014 0.20761 0.0
C109 C 0.45299 0.66032 0.14116 0.0
C110 C 0.45877 0.6806 0.10586 0.0
C111 C 0.46759 0.69932 0.13541 0.0
H112 H 0.47808 0.77893 0.1627 0.0
H113 H 0.48778 0.81331 0.09752 0.0
H114 H 0.55101 0.80342 0.14694 0.0
H115 H 0.54122 0.76904 0.21321 0.0
H116 H 0.5106 0.73725 0.42209 0.0
H117 H 0.51695 0.71357 0.51672 0.0
H118 H 0.53522 0.64966 0.3922 0.0
H119 H 0.52931 0.67337 0.29894 0.0
H120 H 0.46467 0.67732 0.28766 0.0
H121 H 0.44963 0.64479 0.23589 0.0
H122 H 0.45808 0.68105 0.05439 0.0
H123 H 0.47339 0.71386 0.10607 0.0
N124 N 0.48924 0.73517 0.20208 0.0
N125 N 0.5136 0.73977 0.27503 0.0
N126 N 0.49475 0.70545 0.27717 0.0
C127 C 0.50356 0.7484 0.22531 0.0
C128 C 0.50909 0.71813 0.30095 0.0
C129 C 0.48466 0.71374 0.22829 0.0
C130 C 0.50891 0.77115 0.19297 0.0
C131 C 0.49398 0.78429 0.16055 0.0
C132 C 0.49948 0.8041 0.12345 0.0
C133 C 0.52017 0.81103 0.11685 0.0
C134 C 0.53496 0.79841 0.15087 0.0
C135 C 0.52932 0.77882 0.18912 0.0
C136 C 0.51952 0.70712 0.35338 0.0
C137 C 0.51693 0.71842 0.41501 0.0
C138 C 0.52027 0.70472 0.46919 0.0
C139 C 0.52626 0.67952 0.46246 0.0
C140 C 0.53079 0.66894 0.3997 0.0
C141 C 0.52738 0.68256 0.34599 0.0
C142 C 0.47072 0.69787 0.20053 0.0
C143 C 0.46289 0.67874 0.23704 0.0
C144 C 0.20457 0.49528 0.97162 0.0
C145 C 0.19587 0.47978 0.93036 0.0
C146 C 0.20595 0.45627 0.91677 0.0
C147 C 0.22317 0.44787 0.9471 0.0
H148 H 0.2834 0.4952 0.10605 0.0
H149 H 0.31066 0.50995 0.16466 0.0
H150 H 0.32246 0.43859 0.23867 0.0
H151 H 0.2958 0.42406 0.18153 0.0
H152 H 0.24105 0.41263 0.23971 0.0
H153 H 0.20949 0.40032 0.29997 0.0
H154 H 0.19297 0.36862 0.12507 0.0
H155 H 0.22408 0.38349 0.06366 0.0
H156 H 0.22711 0.49842 0.03786 0.0
H157 H 0.19722 0.51353 0.98315 0.0
H158 H 0.20009 0.44402 0.88414 0.0
H159 H 0.22968 0.42915 0.93827 0.0
N160 N 0.25966 0.46078 0.06331 0.0
N161 N 0.26199 0.42821 0.13371 0.0
N162 N 0.23721 0.42957 0.06246 0.0
C163 C 0.26935 0.44899 0.11006 0.0
C164 C 0.24606 0.41835 0.11009 0.0
C165 C 0.24367 0.45061 0.03864 0.0
C166 C 0.28704 0.4585 0.13947 0.0
C167 C 0.29196 0.48268 0.13444 0.0
C168 C 0.30757 0.49112 0.16811 0.0
C169 C 0.31849 0.47557 0.20764 0.0
C170 C 0.31402 0.4513 0.21043 0.0
C171 C 0.29866 0.44294 0.17704 0.0
C172 C 0.23439 0.40013 0.14668 0.0
C173 C 0.23112 0.40221 0.21437 0.0
C174 C 0.21268 0.39497 0.24925 0.0
C175 C 0.19743 0.38495 0.21699 0.0
C176 C 0.20339 0.37792 0.15116 0.0
C177 C 0.22148 0.38602 0.11587 0.0
C178 C 0.23086 0.46263 0.9922 0.0
C179 C 0.22188 0.48676 1.00244 0.0
C180 C 0.03471 0.19795 0.05164 0.0
C181 C 0.03549 0.20085 0.98466 0.0
C182 C 0.04231 0.22246 0.95802 0.0
C183 C 0.04955 0.23993 0.99683 0.0
H184 H 0.02709 0.30135 0.20759 0.0
H185 H 0.01464 0.33314 0.29095 0.0
H186 H 0.07942 0.3439 0.30858 0.0
H187 H 0.09178 0.31256 0.22519 0.0
H188 H 0.11646 0.25654 0.25077 0.0
H189 H 0.13034 0.22576 0.31842 0.0
H190 H 0.11968 0.17046 0.18046 0.0
H191 H 0.1081 0.201 0.11182 0.0
H192 H 0.04233 0.21187 0.14085 0.0
H193 H 0.02923 0.18178 0.07401 0.0
H194 H 0.04324 0.22522 0.90655 0.0
H195 H 0.0562 0.2555 0.97441 0.0
N196 N 0.05619 0.27168 0.12998 0.0
N197 N 0.08661 0.26933 0.1816 0.0
N198 N 0.08143 0.23781 0.11204 0.0
C199 C 0.06826 0.2818 0.17023 0.0
C200 C 0.09334 0.24733 0.15271 0.0
C201 C 0.06314 0.24976 0.0997 0.0
C202 C 0.06043 0.30421 0.2101 0.0
C203 C 0.03864 0.31095 0.22802 0.0
C204 C 0.03152 0.32901 0.27632 0.0
C205 C 0.04603 0.34086 0.30722 0.0
C206 C 0.06778 0.33527 0.28583 0.0
C207 C 0.07487 0.31716 0.23811 0.0
C208 C 0.10971 0.23109 0.17819 0.0
C209 C 0.11789 0.23777 0.23406 0.0
C210 C 0.12548 0.2199 0.27368 0.0
C211 C 0.12413 0.19514 0.25938 0.0
C212 C 0.1201 0.18896 0.19671 0.0
C213 C 0.1132 0.20677 0.15641 0.0
C214 C 0.04982 0.2362 0.06294 0.0
C215 C 0.04186 0.21537 0.09018 0.0
C216 C 0.31327 0.99024 0.03772 0.0
C217 C 0.32738 0.00813 0.02231 0.0
C218 C 0.32171 0.03138 0.05155 0.0
C219 C 0.30346 0.03608 0.09751 0.0
H220 H 0.22637 0.97462 0.24444 0.0
H221 H 0.19312 0.96578 0.30902 0.0
H222 H 0.17326 0.04242 0.33208 0.0
H223 H 0.20646 0.05102 0.26745 0.0
H224 H 0.25309 0.01778 0.41123 0.0
H225 H 0.27294 0.00687 0.49912 0.0
H226 H 0.32946 0.0295 0.38738 0.0
H227 H 0.30973 0.04065 0.30018 0.0
H228 H 0.28503 0.98057 0.09651 0.0
H229 H 0.31699 0.97196 0.01759 0.0
H230 H 0.33162 0.04593 0.04031 0.0
H231 H 0.30033 0.05375 0.1219 0.0
N232 N 0.25387 0.01639 0.17971 0.0
N233 N 0.24954 0.02469 0.29216 0.0
N234 N 0.28246 0.02711 0.22985 0.0
C235 C 0.24116 0.01893 0.23867 0.0
C236 C 0.27013 0.02865 0.28843 0.0
C237 C 0.27463 0.02119 0.17536 0.0
C238 C 0.21882 0.01348 0.24963 0.0
C239 C 0.21437 0.98946 0.26024 0.0
C240 C 0.19548 0.98446 0.29847 0.0
C241 C 0.18062 0.00341 0.32695 0.0
C242 C 0.18421 0.02734 0.31087 0.0
C243 C 0.20317 0.03231 0.27314 0.0
C244 C 0.28002 0.02944 0.34791 0.0
C245 C 0.26958 0.02125 0.40628 0.0
C246 C 0.28093 0.01486 0.45661 0.0
C247 C 0.30279 0.01685 0.44962 0.0
C248 C 0.3126 0.02777 0.39444 0.0
C249 C 0.30131 0.03402 0.34407 0.0
C250 C 0.28996 0.01793 0.1146 0.0
C251 C 0.29475 0.99513 0.08291 0.0
C252 C 0.5128 0.33392 0.35662 0.0
C253 C 0.527 0.32998 0.40141 0.0
C254 C 0.53258 0.30611 0.41889 0.0
C255 C 0.52473 0.28652 0.38992 0.0
H256 H 0.50813 0.21576 0.41169 0.0
H257 H 0.50725 0.17657 0.45978 0.0
H258 H 0.49148 0.14593 0.28336 0.0
H259 H 0.49168 0.18583 0.23521 0.0
H260 H 0.51061 0.23924 0.09146 0.0
H261 H 0.51157 0.26272 0.99312 0.0
H262 H 0.46411 0.3161 0.09442 0.0
H263 H 0.46266 0.29214 0.19034 0.0
H264 H 0.49439 0.31838 0.29271 0.0
H265 H 0.50761 0.35211 0.34369 0.0
H266 H 0.54342 0.30256 0.4536 0.0
H267 H 0.52975 0.26826 0.40267 0.0
N268 N 0.5054 0.24739 0.3277 0.0
N269 N 0.49345 0.23366 0.23296 0.0
N270 N 0.49779 0.27479 0.24907 0.0
C271 C 0.49971 0.22892 0.29193 0.0
C272 C 0.49233 0.25688 0.212 0.0
C273 C 0.50445 0.27035 0.30643 0.0
C274 C 0.49996 0.20418 0.31917 0.0
C275 C 0.50455 0.20077 0.38253 0.0
C276 C 0.50422 0.17806 0.41028 0.0
C277 C 0.49943 0.15784 0.37563 0.0
C278 C 0.49501 0.1611 0.31194 0.0
C279 C 0.49524 0.18399 0.28408 0.0
C280 C 0.48657 0.26387 0.14844 0.0
C281 C 0.49954 0.25525 0.09119 0.0
C282 C 0.50038 0.26906 0.03529 0.0
C283 C 0.48841 0.29184 0.036 0.0
C284 C 0.47359 0.29878 0.09122 0.0
C285 C 0.47268 0.28495 0.14658 0.0
C286 C 0.51121 0.29057 0.34305 0.0
C287 C 0.50507 0.31452 0.32773 0.0
Dy288 Dy 1.00296 0.0134 0.65364 0.0
Dy289 Dy 0.0203 0.99079 0.78081 0.0
C290 C 0.05261 1.00119 0.65462 0.0
O291 O 0.01297 0.97442 0.62845 0.0
O292 O 0.00892 0.95944 0.73026 0.0
O293 O 1.00229 0.01243 0.55048 0.0
O294 O 0.98504 0.04204 0.61002 0.0
O295 O 0.98537 1.00069 0.80926 0.0
O296 O 0.97446 0.99905 0.70969 0.0
O297 O 0.02805 0.02943 0.77891 0.0
O298 O 1.00101 0.0438 0.72635 0.0
O299 O 0.02689 0.99714 0.87774 0.0
O300 O 0.03228 0.9609 0.83491 0.0
C301 C 0.0113 0.95612 0.66708 0.0
O302 O 0.0378 0.01726 0.63965 0.0
O303 O 0.04863 0.98662 0.70303 0.0
C304 C 1.00629 0.0521 0.51411 0.0
C305 C 0.03644 0.08448 0.47077 0.0
C306 C 0.03997 0.05982 0.45191 0.0
C307 C 0.02512 0.0438 0.47328 0.0
C308 C 1.00178 0.07712 0.52766 0.0
C309 C 0.01668 0.09314 0.50622 0.0
C310 C 0.99363 0.0347 0.55164 0.0
C311 C 0.97033 0.99888 0.77331 0.0
C312 C 0.01535 0.04757 0.76307 0.0
C313 C 0.0158 0.96518 0.94336 0.0
C314 C 0.98481 0.94505 0.03049 0.0
C315 C 0.9822 0.96963 0.01556 0.0
C316 C 0.99744 0.97956 0.9721 0.0
C317 C 0.01921 0.94115 0.96199 0.0
C318 C 1.00386 0.93117 0.00518 0.0
C319 C 0.02983 0.97407 0.88834 0.0
H320 H 0.05474 0.05259 0.42365 0.0
H321 H 0.02909 0.02469 0.4611 0.0
H322 H 0.98727 0.08416 0.55817 0.0
H323 H 0.01296 0.1122 0.5194 0.0
H324 H 0.96785 0.98091 0.03444 0.0
H325 H 0.99427 0.99818 0.95875 0.0
H326 H 0.03326 0.92976 0.94075 0.0
H327 H 1.00663 0.91232 0.01711 0.0
Dy328 Dy 0.51137 0.95919 0.68163 0.0
Dy329 Dy 0.52263 0.99959 0.78286 0.0
C330 C 0.50882 0.0151 0.65002 0.0
O331 O 0.54468 0.96423 0.64122 0.0
O332 O 0.5543 0.98773 0.72258 0.0
O333 O 0.5075 0.94799 0.58472 0.0
O334 O 0.49877 0.92517 0.66517 0.0
O335 O 0.51941 0.96447 0.83407 0.0
O336 O 0.53115 0.93916 0.74655 0.0
O337 O 0.48683 1.00179 0.8001 0.0
O338 O 0.4841 0.96352 0.76208 0.0
O339 O 0.53906 0.00786 0.8623 0.0
O340 O 0.51881 0.03599 0.82432 0.0
C341 C 0.55892 0.97512 0.66724 0.0
O342 O 0.49837 0.99584 0.65353 0.0
O343 O 0.52297 0.01773 0.68824 0.0
C344 C 0.47415 0.93394 0.5955 0.0
C345 C 0.43127 0.94295 0.58096 0.0
C346 C 0.44063 0.95865 0.61904 0.0
C347 C 0.46182 0.95436 0.62537 0.0
C348 C 0.46493 0.91761 0.55877 0.0
C349 C 0.44349 0.92215 0.55134 0.0
C350 C 0.4963 0.93053 0.606 0.0
C351 C 0.52769 0.94315 0.80938 0.0
C352 C 0.47555 0.98348 0.79393 0.0
C353 C 0.5504 0.04667 0.85758 0.0
C354 C 0.58755 0.0705 0.85054 0.0
C355 C 0.57992 0.06366 0.79366 0.0
C356 C 0.56155 0.05172 0.79717 0.0
C357 C 0.55733 0.05444 0.91426 0.0
C358 C 0.57574 0.06621 0.91087 0.0
C359 C 0.5331 0.03101 0.862 0.0
H360 H 0.4316 0.97447 0.64388 0.0
H361 H 0.46858 0.96713 0.6541 0.0
H362 H 0.47425 0.90167 0.53563 0.0
H363 H 0.43664 0.90979 0.52145 0.0
H364 H 0.5885 0.06683 0.74647 0.0
H365 H 0.5565 0.04565 0.75278 0.0
H366 H 0.54903 0.05042 0.96122 0.0
H367 H 0.5813 0.07067 0.95575 0.0
Dy368 Dy 0.53065 0.49374 0.81169 0.0
Dy369 Dy 0.4861 0.4902 0.73909 0.0
C370 C 0.50443 0.4456 0.82128 0.0
O371 O 0.53801 0.46678 0.72955 0.0
O372 O 0.51539 0.48503 0.66596 0.0
O373 O 0.5451 0.48772 0.89712 0.0
O374 O 0.56365 0.50099 0.81183 0.0
O375 O 0.49448 0.52833 0.7299 0.0
O376 O 0.52988 0.52477 0.74381 0.0
O377 O 0.47473 0.50041 0.84285 0.0
O378 O 0.50415 0.51738 0.86841 0.0
O379 O 0.45447 0.50394 0.72235 0.0
O380 O 0.47044 0.47148 0.67088 0.0
C381 C 0.53154 0.4695 0.67324 0.0
O382 O 0.51885 0.45834 0.84023 0.0
O383 O 0.49103 0.45382 0.78282 0.0
C384 C 0.57563 0.50681 0.91586 0.0
C385 C 0.60103 0.52064 0.00887 0.0
C386 C 0.57876 0.52231 0.02391 0.0
C387 C 0.56624 0.51552 0.97808 0.0
C388 C 0.59773 0.50608 0.89981 0.0
C389 C 0.61027 0.51296 0.94553 0.0
C390 C 0.56335 0.49455 0.87188 0.0
C391 C 0.51305 0.53697 0.72624 0.0
C392 C 0.48377 0.51481 0.87876 0.0
C393 C 0.44209 0.4923 0.62393 0.0
C394 C 0.41833 0.49688 0.51917 0.0
C395 C 0.44065 0.49307 0.50777 0.0
C396 C 0.4524 0.49067 0.5596 0.0
C397 C 0.41994 0.49692 0.63529 0.0
C398 C 0.40821 0.49915 0.58374 0.0
C399 C 0.4534 0.48671 0.67993 0.0
H400 H 0.57095 0.52785 0.07209 0.0
H401 H 0.54927 0.51609 0.99244 0.0
H402 H 0.60544 0.4992 0.85252 0.0
H403 H 0.62727 0.51186 0.93142 0.0
H404 H 0.44899 0.49108 0.45876 0.0
H405 H 0.46946 0.48693 0.54933 0.0
H406 H 0.41158 0.49812 0.68437 0.0
H407 H 0.39113 0.50246 0.59456 0.0
Dy408 Dy 0.02307 0.51824 0.68037 0.0
Dy409 Dy 0.00939 0.48798 0.80839 0.0
C410 C 0.02345 0.46091 0.67176 0.0
O411 O 0.98946 0.51183 0.67443 0.0
O412 O 0.97861 0.50444 0.78109 0.0
O413 O 0.0219 0.52474 0.57923 0.0
O414 O 0.04339 0.54294 0.6295 0.0
O415 O 0.00973 0.52657 0.84135 0.0
O416 O 1.00476 0.54672 0.7491 0.0
O417 O 0.04498 0.48224 0.79108 0.0
O418 O 0.04876 0.51833 0.74261 0.0
O419 O 0.01102 0.48204 0.9097 0.0
O420 O 0.99179 0.46081 0.85858 0.0
C421 C 0.97433 0.50915 0.72261 0.0
O422 O 0.03443 0.47923 0.65603 0.0
O423 O 0.0102 0.46169 0.72584 0.0
C424 C 0.05682 0.52281 0.53012 0.0
C425 C 0.08409 0.48878 0.44759 0.0
C426 C 0.08208 0.48705 0.51528 0.0
C427 C 0.06894 0.50405 0.5558 0.0
C428 C 0.05916 0.52536 0.46299 0.0
C429 C 0.07297 0.50869 0.422 0.0
C430 C 0.03908 0.5358 0.57341 0.0
C431 C 1.00422 0.54645 0.81229 0.0
C432 C 0.05656 0.50002 0.77366 0.0
C433 C 0.97534 0.48142 0.95539 0.0
C434 C 0.9422 0.51798 0.99629 0.0
C435 C 0.96103 0.51686 0.02369 0.0
C436 C 0.97742 0.4987 1.00361 0.0
C437 C 0.95554 0.48088 0.93404 0.0
C438 C 0.93924 0.4991 0.95371 0.0
C439 C 0.99457 0.46964 0.91474 0.0
H440 H 0.08969 0.47188 0.53771 0.0
H441 H 0.06725 0.50156 0.60754 0.0
H442 H 0.04973 0.53957 0.44225 0.0
H443 H 0.07443 0.51114 0.37035 0.0
H444 H 0.9635 0.53063 0.0585 0.0
H445 H 0.99237 0.49951 0.02158 0.0
H446 H 0.95323 0.46774 0.89733 0.0
H447 H 0.92491 0.49925 0.93189 0.0
H448 H 0.13894 0.02416 0.34817 0.0
H449 H 0.18277 0.97221 0.42632 0.0
H450 H 0.15517 0.96611 0.5182 0.0
H451 H 0.11321 0.05194 0.49713 0.0
H452 H 0.08698 0.05462 0.47515 0.0
H453 H 0.10971 0.05461 0.41352 0.0
H454 H 0.09694 0.01985 0.35334 0.0
H455 H 0.07466 0.01628 0.41469 0.0
H456 H 0.09414 0.99117 0.39134 0.0
H457 H 0.123 0.96687 0.60489 0.0
H458 H 0.08831 0.97261 0.67516 0.0
H459 H 0.06515 0.02369 0.54056 0.0
C460 C 0.14273 0.01146 0.38452 0.0
C461 C 0.1631 0.99856 0.37943 0.0
C462 C 0.16725 0.98199 0.4281 0.0
C463 C 0.1517 0.97856 0.481 0.0
C464 C 0.13191 0.99171 0.48482 0.0
C465 C 0.12731 0.00766 0.43758 0.0
C466 C 0.10457 0.01895 0.45232 0.0
C467 C 0.10355 0.04668 0.45996 0.0
C468 C 0.09183 0.01117 0.39978 0.0
C469 C 0.09736 0.00764 0.51637 0.0
C470 C 0.11332 0.99184 0.5341 0.0
C471 C 0.11038 0.97919 0.59132 0.0
C472 C 0.0906 0.98265 0.63113 0.0
C473 C 0.07391 0.99873 0.61395 0.0
C474 C 0.07753 0.01141 0.55568 0.0
H475 H 0.52504 0.13756 0.46014 0.0
H476 H 0.47157 0.12363 0.36365 0.0
H477 H 0.4688 0.08518 0.42056 0.0
H478 H 0.54802 0.07534 0.46158 0.0
H479 H 0.55558 0.07881 0.5408 0.0
H480 H 0.55414 0.10446 0.4894 0.0
H481 H 0.52814 0.1286 0.57986 0.0
H482 H 0.52945 0.10301 0.63143 0.0
H483 H 0.50417 0.11604 0.61366 0.0
H484 H 0.47101 0.04872 0.49187 0.0
H485 H 0.47827 0.01731 0.57024 0.0
H486 H 0.52948 0.05591 0.62286 0.0
C487 C 0.51268 0.12652 0.45088 0.0
C488 C 0.49853 0.13381 0.40702 0.0
C489 C 0.48284 0.11844 0.39599 0.0
C490 C 0.48104 0.09658 0.42854 0.0
C491 C 0.49502 0.09024 0.47214 0.0
C492 C 0.51058 0.10475 0.48319 0.0
C493 C 0.52328 0.09416 0.53369 0.0
C494 C 0.54664 0.08781 0.50461 0.0
C495 C 0.52112 0.11149 0.59318 0.0
C496 C 0.51232 0.07152 0.54984 0.0
C497 C 0.49612 0.0695 0.5136 0.0
C498 C 0.48369 0.05012 0.52035 0.0
C499 C 0.48794 0.03236 0.56512 0.0
C500 C 0.50442 0.03408 0.60299 0.0
C501 C 0.51672 0.05401 0.59493 0.0
H502 H 0.32335 0.46461 0.33274 0.0
H503 H 0.34992 0.50555 0.17107 0.0
H504 H 0.37797 0.51648 0.23336 0.0
H505 H 0.33389 0.50505 0.46066 0.0
H506 H 0.34009 0.48056 0.51241 0.0
H507 H 0.32172 0.47718 0.45603 0.0
H508 H 0.34443 0.43839 0.40629 0.0
H509 H 0.3629 0.44169 0.46231 0.0
H510 H 0.37211 0.43977 0.37648 0.0
H511 H 0.40476 0.52059 0.31272 0.0
H512 H 0.42607 0.51954 0.40272 0.0
H513 H 0.38159 0.47572 0.51119 0.0
C514 C 0.33503 0.47593 0.31027 0.0
C515 C 0.33442 0.48411 0.24661 0.0
C516 C 0.34988 0.4992 0.21978 0.0
C517 C 0.36597 0.50538 0.25475 0.0
C518 C 0.36632 0.49652 0.31685 0.0
C519 C 0.35107 0.48231 0.34448 0.0
C520 C 0.35499 0.47476 0.41146 0.0
C521 C 0.33658 0.485 0.46319 0.0
C522 C 0.35884 0.44701 0.41426 0.0
C523 C 0.37498 0.48668 0.41724 0.0
C524 C 0.38135 0.49915 0.36224 0.0
C525 C 0.39978 0.511 0.35606 0.0
C526 C 0.41187 0.51018 0.40735 0.0
C527 C 0.40551 0.49769 0.46448 0.0
C528 C 0.38676 0.48582 0.46891 0.0
H529 H 0.06103 0.38404 0.3393 0.0
H530 H 0.01498 0.33428 0.4081 0.0
H531 H 1.00478 0.35906 0.50901 0.0
H532 H 0.07823 0.39498 0.49032 0.0
H533 H 0.08072 0.42677 0.48025 0.0
H534 H 0.08427 0.40644 0.41029 0.0
H535 H 0.05531 0.43179 0.36045 0.0
H536 H 0.0516 0.45302 0.42856 0.0
H537 H 0.02941 0.43876 0.40694 0.0
H538 H 1.00058 0.38821 0.60468 0.0
H539 H 1.00062 0.4215 0.68456 0.0
H540 H 0.0492 0.45267 0.55397 0.0
C541 C 0.04874 0.37839 0.37546 0.0
C542 C 0.03874 0.3572 0.36538 0.0
C543 C 0.02263 0.35061 0.41395 0.0
C544 C 0.01686 0.36446 0.47181 0.0
C545 C 0.02724 0.38497 0.48056 0.0
C546 C 0.04268 0.39209 0.43348 0.0
C547 C 0.05125 0.41503 0.455 0.0
C548 C 0.07503 0.41053 0.45914 0.0
C549 C 0.04663 0.43588 0.41004 0.0
C550 C 0.03835 0.41955 0.52167 0.0
C551 C 0.02467 0.40193 0.53554 0.0
C552 C 0.01118 0.40217 0.59423 0.0
C553 C 0.01139 0.42114 0.63947 0.0
C554 C 0.02494 0.43977 0.62587 0.0
C555 C 0.03871 0.43873 0.56619 0.0
H556 H 0.87737 0.98955 0.07273 0.0
H557 H 0.83305 0.99601 0.93411 0.0
H558 H 0.86278 0.99671 0.84511 0.0
H559 H 0.91394 0.02821 0.99998 0.0
H560 H 0.93741 0.00982 0.01425 0.0
H561 H 0.9129 0.00845 0.06773 0.0
H562 H 0.91557 0.96242 0.04797 0.0
H563 H 0.93964 0.96253 0.99134 0.0
H564 H 0.91713 0.94995 0.96694 0.0
H565 H 0.8973 0.99874 0.77096 0.0
H566 H 0.934 1.00087 0.71739 0.0
H567 H 0.95636 0.99258 0.903 0.0
C568 C 0.87396 0.99101 0.02361 0.0
C569 C 0.85279 0.99258 0.01059 0.0
C570 C 0.84907 0.99437 0.94545 0.0
C571 C 0.86588 0.99493 0.89445 0.0
C572 C 0.88649 0.99347 0.90888 0.0
C573 C 0.89063 0.99131 0.97177 0.0
C574 C 0.91431 0.9897 0.97367 0.0
C575 C 0.91997 0.01027 0.01645 0.0
C576 C 0.92212 0.96468 0.99643 0.0
C577 C 0.92273 0.99265 0.90267 0.0
C578 C 0.90642 0.99441 0.86599 0.0
C579 C 0.9102 0.99729 0.79922 0.0
C580 C 0.93116 0.9985 0.76915 0.0
C581 C 0.9482 0.99701 0.80568 0.0
C582 C 0.94378 0.99392 0.87345 0.0
H583 H 0.49952 0.85624 0.10422 0.0
H584 H 0.55496 0.80847 0.02367 0.0
H585 H 0.56399 0.83803 0.93945 0.0
H586 H 0.48506 0.87668 0.9565 0.0
H587 H 0.47692 0.90751 0.98477 0.0
H588 H 0.47547 0.88332 0.04105 0.0
H589 H 0.49876 0.90493 0.11106 0.0
H590 H 0.5002 0.92926 0.05507 0.0
H591 H 0.52418 0.91325 0.07434 0.0
H592 H 0.56475 0.87067 0.85695 0.0
H593 H 0.55906 0.90588 0.78827 0.0
H594 H 0.50463 0.93401 0.92612 0.0
C595 C 0.5137 0.85217 0.06928 0.0
C596 C 0.52659 0.83006 0.07062 0.0
C597 C 0.54501 0.8254 0.0241 0.0
C598 C 0.5502 0.84203 0.97587 0.0
C599 C 0.537 0.86348 0.9753 0.0
C600 C 0.51931 0.86879 0.0214 0.0
C601 C 0.50764 0.89302 0.00939 0.0
C602 C 0.48493 0.88993 0.9972 0.0
C603 C 0.50771 0.91119 0.06583 0.0
C604 C 0.52125 0.90024 0.94851 0.0
C605 C 0.53804 0.88286 0.92944 0.0
C606 C 0.5519 0.88461 0.8721 0.0
C607 C 0.54852 0.90461 0.8333 0.0
C608 C 0.53164 0.92281 0.85242 0.0
C609 C 0.51798 0.92065 0.91113 0.0
H610 H 0.70214 0.50451 0.19737 0.0
H611 H 0.67152 0.56311 0.32881 0.0
H612 H 0.64059 0.56549 0.2707 0.0
H613 H 0.68548 0.5287 0.05491 0.0
H614 H 0.68138 0.49988 0.01992 0.0
H615 H 0.70058 0.50143 0.07444 0.0
H616 H 0.68198 0.47031 0.14783 0.0
H617 H 0.66284 0.46847 0.09316 0.0
H618 H 0.65409 0.47609 0.17765 0.0
H619 H 0.61386 0.56356 0.19318 0.0
H620 H 0.59261 0.55573 0.10704 0.0
H621 H 0.64018 0.49793 0.02646 0.0
C622 C 0.68889 0.51775 0.21435 0.0
C623 C 0.68938 0.53353 0.2683 0.0
C624 C 0.67153 0.55046 0.2887 0.0
C625 C 0.6539 0.55213 0.2555 0.0
C626 C 0.65417 0.53669 0.20186 0.0
C627 C 0.67112 0.51965 0.18179 0.0
C628 C 0.66758 0.50551 0.12192 0.0
C629 C 0.68478 0.5091 0.06441 0.0
C630 C 0.66656 0.47849 0.13601 0.0
C631 C 0.64614 0.51748 0.11097 0.0
C632 C 0.63869 0.53542 0.15763 0.0
C633 C 0.61945 0.54934 0.15687 0.0
C634 C 0.6074 0.54464 0.10771 0.0
C635 C 0.61448 0.52608 0.05962 0.0
C636 C 0.63425 0.51244 0.06166 0.0
H637 H 0.98793 0.63153 0.13421 0.0
H638 H 0.94832 0.68188 0.03603 0.0
H639 H 0.95542 0.65511 0.93834 0.0
H640 H 0.02734 0.61387 0.99006 0.0
H641 H 0.03108 0.5828 0.01337 0.0
H642 H 0.02383 0.60667 0.07449 0.0
H643 H 0.99248 0.58421 0.12174 0.0
H644 H 0.99767 0.56081 0.05893 0.0
H645 H 0.97228 0.57851 0.07382 0.0
H646 H 0.96675 0.62315 0.85074 0.0
H647 H 0.98032 0.58692 0.78089 0.0
H648 H 0.01156 0.55633 0.93608 0.0
C649 C 0.98097 0.63702 0.09188 0.0
C650 C 0.96743 0.65877 0.09306 0.0
C651 C 0.95847 0.66517 0.03674 0.0
C652 C 0.96252 0.65015 0.98078 0.0
C653 C 0.97564 0.62871 0.98144 0.0
C654 C 0.98479 0.62212 0.03537 0.0
C655 C 0.99787 0.59775 0.02344 0.0
C656 C 0.02142 0.60044 0.02545 0.0
C657 C 0.98958 0.5792 0.07226 0.0
C658 C 0.99413 0.59147 0.95517 0.0
C659 C 0.98161 0.60983 0.93143 0.0
C660 C 0.97654 0.6086 0.86878 0.0
C661 C 0.9844 0.58802 0.82931 0.0
C662 C 0.99697 0.56877 0.85286 0.0
C663 C 1.00187 0.57066 0.91671 0.0
H664 H 0.12669 0.1445 0.24978 0.0
H665 H 0.11406 0.20436 0.39251 0.0
H666 H 0.0967 0.17801 0.47003 0.0
H667 H 0.07672 0.13235 0.27193 0.0
H668 H 0.08123 0.09993 0.2589 0.0
H669 H 0.10053 0.11889 0.22256 0.0
H670 H 0.12979 0.09567 0.27772 0.0
H671 H 0.11058 0.07599 0.31179 0.0
H672 H 0.12533 0.09173 0.36388 0.0
H673 H 0.07245 0.15 0.52291 0.0
H674 H 0.04506 0.12202 0.54739 0.0
H675 H 0.06729 0.08364 0.36326 0.0
C676 C 0.12061 0.15232 0.29727 0.0
C677 C 0.12138 0.17723 0.31255 0.0
C678 C 0.11403 0.18564 0.37747 0.0
C679 C 0.10385 0.17067 0.4227 0.0
C680 C 0.10093 0.14732 0.40283 0.0
C681 C 0.10929 0.13805 0.34171 0.0
C682 C 0.10019 0.11464 0.32711 0.0
C683 C 0.089 0.1166 0.2666 0.0
C684 C 0.1175 0.09323 0.31978 0.0
C685 C 0.08447 0.11304 0.38804 0.0
C686 C 0.08569 0.1316 0.43196 0.0
C687 C 0.07157 0.13516 0.48934 0.0
C688 C 0.05575 0.11941 0.50216 0.0
C689 C 0.05371 0.10069 0.45697 0.0
C690 C 0.06852 0.09742 0.39952 0.0
H691 H 0.33668 0.03274 0.49742 0.0
H692 H 0.29979 0.97119 0.49464 0.0
H693 H 0.3274 0.94587 0.54009 0.0
H694 H 0.38323 0.0024 0.43688 0.0
H695 H 0.39965 0.01799 0.48363 0.0
H696 H 0.37499 0.03297 0.46736 0.0
H697 H 0.36224 0.04078 0.59021 0.0
H698 H 0.38715 0.02631 0.60699 0.0
H699 H 0.36265 0.01577 0.64408 0.0
H700 H 0.36198 0.92546 0.56573 0.0
H701 H 0.39922 0.91308 0.5798 0.0
H702 H 0.41348 0.98769 0.55769 0.0
C703 C 0.33408 0.01417 0.50864 0.0
C704 C 0.3161 0.00398 0.49287 0.0
C705 C 0.31328 0.97954 0.50757 0.0
C706 C 0.32895 0.96493 0.53294 0.0
C707 C 0.3472 0.97514 0.54382 0.0
C708 C 0.34962 0.99936 0.53328 0.0
C709 C 0.3716 0.00535 0.54119 0.0
C710 C 0.38302 0.01524 0.47854 0.0
C711 C 0.37086 0.0231 0.59908 0.0
C712 C 0.38144 0.98053 0.55476 0.0
C713 C 0.36714 0.96335 0.5572 0.0
C714 C 0.37322 0.93887 0.56523 0.0
C715 C 0.3944 0.93194 0.5723 0.0
C716 C 0.40913 0.94947 0.57065 0.0
C717 C 0.40247 0.97395 0.56102 0.0
H718 H 0.53159 0.33849 0.52835 0.0
H719 H 0.54106 0.36935 0.3382 0.0
H720 H 0.54903 0.40756 0.38693 0.0
H721 H 0.50509 0.38793 0.60984 0.0
H722 H 0.5168 0.38485 0.68305 0.0
H723 H 0.51561 0.35855 0.63271 0.0
H724 H 0.55629 0.34874 0.62401 0.0
H725 H 0.55749 0.37507 0.67483 0.0
H726 H 0.57354 0.37145 0.59627 0.0
H727 H 0.54786 0.4444 0.45674 0.0
H728 H 0.54125 0.47635 0.54375 0.0
H729 H 0.53625 0.4212 0.68777 0.0
C730 C 0.53616 0.35296 0.49679 0.0
C731 C 0.53551 0.35105 0.42963 0.0
C732 C 0.54112 0.37058 0.38998 0.0
C733 C 0.54587 0.39228 0.41709 0.0
C734 C 0.54544 0.394 0.48379 0.0
C735 C 0.54118 0.37471 0.5231 0.0
C736 C 0.53984 0.38205 0.59389 0.0
C737 C 0.51804 0.37812 0.63205 0.0
C738 C 0.55787 0.36852 0.62401 0.0
C739 C 0.54279 0.40873 0.58816 0.0
C740 C 0.54614 0.41525 0.52421 0.0
C741 C 0.5461 0.43946 0.50697 0.0
C742 C 0.54228 0.45747 0.55642 0.0
C743 C 0.53896 0.45103 0.6219 0.0
C744 C 0.53971 0.42641 0.63791 0.0
H745 H 0.17996 0.38829 0.34703 0.0
H746 H 0.16218 0.39068 0.15381 0.0
H747 H 0.12781 0.4112 0.19827 0.0
H748 H 0.12433 0.3916 0.44457 0.0
H749 H 0.13172 0.41246 0.50253 0.0
H750 H 0.15105 0.38913 0.4629 0.0
H751 H 0.17587 0.42185 0.42418 0.0
H752 H 0.15668 0.4453 0.46236 0.0
H753 H 0.16634 0.44634 0.3771 0.0
H754 H 0.09909 0.44028 0.25673 0.0
H755 H 0.07822 0.4731 0.32534 0.0
H756 H 0.11912 0.45942 0.47228 0.0
C757 C 0.16881 0.39257 0.31381 0.0
C758 C 0.17451 0.38818 0.24628 0.0
C759 C 0.15873 0.39339 0.20576 0.0
C760 C 0.13892 0.40539 0.2306 0.0
C761 C 0.13502 0.41223 0.29592 0.0
C762 C 0.14945 0.40573 0.33727 0.0
C763 C 0.14366 0.41945 0.40172 0.0
C764 C 0.13731 0.40212 0.45615 0.0
C765 C 0.1617 0.4341 0.41715 0.0
C766 C 0.12472 0.43586 0.38825 0.0
C767 C 0.11941 0.43074 0.32818 0.0
C768 C 0.10297 0.44427 0.30426 0.0
C769 C 0.09148 0.46331 0.34324 0.0
C770 C 0.09684 0.46917 0.40487 0.0
C771 C 0.11395 0.45525 0.42668 0.0
H772 H 0.91976 0.835 0.13216 0.0
H773 H 0.88515 0.87967 0.29305 0.0
H774 H 0.90105 0.91546 0.24647 0.0
H775 H 0.96524 0.8575 0.12589 0.0
H776 H 0.97266 0.8572 0.03928 0.0
H777 H 0.95494 0.83633 0.0749 0.0
H778 H 0.92641 0.85198 0.00558 0.0
H779 H 0.94438 0.87234 0.96748 0.0
H780 H 0.91824 0.88399 0.00553 0.0
H781 H 0.92686 0.94389 0.19544 0.0
H782 H 0.95669 0.96354 0.13664 0.0
H783 H 0.97252 0.90033 0.00694 0.0
C784 C 0.91445 0.85243 0.15607 0.0
C785 C 0.90125 0.85432 0.21673 0.0
C786 C 0.89543 0.87759 0.24698 0.0
C787 C 0.90433 0.89808 0.22072 0.0
C788 C 0.91856 0.89512 0.16333 0.0
C789 C 0.92303 0.87298 0.13031 0.0
C790 C 0.94043 0.87381 0.07338 0.0
C791 C 0.95942 0.85511 0.07878 0.0
C792 C 0.93184 0.87033 0.00919 0.0
C793 C 0.94601 0.89939 0.08195 0.0
C794 C 0.93309 0.91159 0.13343 0.0
C795 C 0.93667 0.93473 0.15393 0.0
C796 C 0.95372 0.9457 0.12044 0.0
C797 C 0.96705 0.93344 0.06732 0.0
C798 C 0.96286 0.9101 0.04779 0.0
H799 H 0.67526 0.11114 0.03543 0.0
H800 H 0.7187 0.0633 0.90019 0.0
H801 H 0.6929 0.06528 0.82407 0.0
H802 H 0.63378 0.08218 0.02572 0.0
H803 H 0.61387 0.10766 0.03173 0.0
H804 H 0.63783 0.11026 0.06492 0.0
H805 H 0.64543 0.14746 0.99521 0.0
H806 H 0.62121 0.14516 0.96204 0.0
H807 H 0.64599 0.14516 0.90878 0.0
H808 H 0.66005 0.06234 0.77814 0.0
H809 H 0.62355 0.05518 0.76681 0.0
H810 H 0.6001 0.10445 0.93064 0.0
C811 C 0.67964 0.1018 0.98877 0.0
C812 C 0.69905 0.08709 0.97405 0.0
C813 C 0.70417 0.07512 0.91246 0.0
C814 C 0.68952 0.07607 0.86871 0.0
C815 C 0.66986 0.08924 0.88683 0.0
C816 C 0.66501 0.10226 0.9451 0.0
C817 C 0.64166 0.11114 0.95868 0.0
C818 C 0.63119 0.10225 0.02406 0.0
C819 C 0.63838 0.13888 0.95599 0.0
C820 C 0.63384 0.09919 0.90212 0.0
C821 C 0.65045 0.08737 0.85998 0.0
C822 C 0.64696 0.07221 0.80944 0.0
C823 C 0.62607 0.06827 0.80327 0.0
C824 C 0.60887 0.07927 0.84782 0.0
C825 C 0.61289 0.09579 0.89584 0.0
H826 H 0.47469 0.61661 0.1472 0.0
H827 H 0.4249 0.65368 0.05569 0.0
H828 H 0.42264 0.61605 0.99166 0.0
H829 H 0.50151 0.58878 0.00886 0.0
H830 H 0.51035 0.56128 0.04578 0.0
H831 H 0.50465 0.58905 0.09325 0.0
H832 H 0.47799 0.56862 0.17528 0.0
H833 H 0.48357 0.54071 0.12757 0.0
H834 H 0.4567 0.5544 0.14709 0.0
H835 H 0.42877 0.57568 0.92977 0.0
H836 H 0.4457 0.53915 0.86585 0.0
H837 H 0.49296 0.53024 0.99433 0.0
C838 C 0.46276 0.61651 0.11541 0.0
C839 C 0.44956 0.63771 0.10735 0.0
C840 C 0.43487 0.6374 0.06308 0.0
C841 C 0.43342 0.6161 0.02701 0.0
C842 C 0.44692 0.59549 0.03559 0.0
C843 C 0.46144 0.59568 0.07847 0.0
C844 C 0.4764 0.57272 0.07202 0.0
C845 C 0.49958 0.57831 0.05386 0.0
C846 C 0.47348 0.55826 0.13419 0.0
C847 C 0.46862 0.55986 0.01705 0.0
C848 C 0.45117 0.57284 0.99795 0.0
C849 C 0.44219 0.5652 0.94501 0.0
C850 C 0.45181 0.54436 0.90926 0.0
C851 C 0.47046 0.53188 0.92586 0.0
C852 C 0.4785 0.53931 0.98147 0.0
H853 H 0.82774 0.58054 0.11232 0.0
H854 H 0.85686 0.64479 0.15835 0.0
H855 H 0.89041 0.62799 0.09192 0.0
H856 H 0.86618 0.54257 0.14378 0.0
H857 H 0.86517 0.51948 0.08272 0.0
H858 H 0.8419 0.53932 0.11181 0.0
H859 H 0.83855 0.55286 0.99545 0.0
H860 H 0.86157 0.5324 0.9652 0.0
H861 H 0.86087 0.56402 0.94627 0.0
H862 H 0.92222 0.60072 0.03943 0.0
H863 H 0.94898 0.56589 0.00828 0.0
H864 H 0.89899 0.51823 0.01227 0.0
C865 C 0.84072 0.59183 0.10499 0.0
C866 C 0.83958 0.61421 0.13916 0.0
C867 C 0.85732 0.62782 0.1314 0.0
C868 C 0.87642 0.61837 0.09384 0.0
C869 C 0.87743 0.59532 0.06475 0.0
C870 C 0.8599 0.58234 0.0695 0.0
C871 C 0.8658 0.5563 0.04592 0.0
C872 C 0.85939 0.5384 0.09925 0.0
C873 C 0.85613 0.5511 0.98454 0.0
C874 C 0.88953 0.55617 0.03084 0.0
C875 C 0.89593 0.57897 0.03968 0.0
C876 C 0.9173 0.58286 0.03214 0.0
C877 C 0.9324 0.56288 0.01591 0.0
C878 C 0.92611 0.53921 0.00972 0.0
C879 C 0.90436 0.53605 0.01614 0.0
H880 H 0.0471 0.15198 0.99098 0.0
H881 H 0.01266 0.20414 0.8828 0.0
H882 H 1.00447 0.17073 0.81328 0.0
H883 H 0.06979 0.11224 0.85509 0.0
H884 H 0.06741 0.08496 0.90006 0.0
H885 H 0.07064 0.11295 0.94098 0.0
H886 H 0.03635 0.10879 0.02069 0.0
H887 H 0.03303 0.08076 0.98015 0.0
H888 H 0.01204 0.10515 0.98931 0.0
H889 H 0.99925 0.13145 0.75745 0.0
H890 H 0.99787 0.08956 0.71789 0.0
H891 H 0.03613 0.06273 0.86157 0.0
C892 C 0.03766 0.1564 0.95304 0.0
C893 C 0.0304 0.18076 0.94267 0.0
C894 C 0.0185 0.18571 0.89153 0.0
C895 C 0.01371 0.16682 0.85194 0.0
C896 C 0.02106 0.14305 0.86371 0.0
C897 C 0.03285 0.13779 0.91288 0.0
C898 C 0.03894 0.11072 0.91518 0.0
C899 C 0.06313 0.10488 0.90204 0.0
C900 C 0.02952 0.10077 0.98019 0.0
C901 C 0.02857 0.10149 0.85993 0.0
C902 C 0.01833 0.12046 0.83096 0.0
C903 C 1.00726 0.11649 0.7797 0.0
C904 C 1.00654 0.09256 0.75767 0.0
C905 C 0.01689 0.07276 0.78654 0.0
C906 C 0.02817 0.07742 0.83814 0.0
H907 H 0.36585 0.02783 0.02475 0.0
H908 H 0.33666 0.97524 0.9186 0.0
H909 H 0.37099 0.96371 0.85119 0.0
H910 H 0.39995 0.04723 0.88222 0.0
H911 H 0.4216 0.05142 0.92621 0.0
H912 H 0.39472 0.05558 0.96726 0.0
H913 H 0.40429 0.02416 0.05107 0.0
H914 H 0.43115 0.01979 0.01008 0.0
H915 H 0.41586 0.99421 0.02343 0.0
H916 H 0.40877 0.95573 0.79975 0.0
H917 H 0.4468 0.9543 0.76044 0.0
H918 H 0.45184 0.01501 0.88975 0.0
C919 C 0.36642 0.01419 0.98669 0.0
C920 C 0.34818 0.00232 0.97826 0.0
C921 C 0.35019 0.98428 0.92801 0.0
C922 C 0.36969 0.9777 0.88879 0.0
C923 C 0.38722 0.98951 0.89913 0.0
C924 C 0.38575 0.00764 0.94612 0.0
C925 C 0.4071 0.01765 0.94623 0.0
C926 C 0.40576 0.04457 0.92947 0.0
C927 C 0.41506 0.01371 0.01159 0.0
C928 C 0.42085 0.00207 0.89246 0.0
C929 C 0.40897 0.98584 0.86656 0.0
C930 C 0.41812 0.96864 0.81891 0.0
C931 C 0.43987 0.96804 0.79674 0.0
C932 C 0.45248 0.98485 0.82073 0.0
C933 C 0.44269 0.00215 0.86945 0.0
H934 H 0.46168 0.32768 0.98895 0.0
H935 H 0.52767 0.29846 0.97101 0.0
H936 H 0.53792 0.33238 0.90376 0.0
H937 H 0.46487 0.35459 0.82448 0.0
H938 H 0.44726 0.38087 0.8549 0.0
H939 H 0.44441 0.35208 0.89231 0.0
H940 H 0.44765 0.37186 1.00327 0.0
H941 H 0.45071 0.40059 0.9662 0.0
H942 H 0.47056 0.3875 0.01166 0.0
H943 H 0.54209 0.37221 0.85428 0.0
H944 H 0.53948 0.41441 0.81892 0.0
H945 H 0.47107 0.41904 0.86632 0.0
C946 C 0.47825 0.32809 0.96983 0.0
C947 C 0.49377 0.30999 0.98531 0.0
C948 C 0.51528 0.31148 0.95899 0.0
C949 C 0.52136 0.33091 0.92097 0.0
C950 C 0.5058 0.34882 0.90896 0.0
C951 C 0.48464 0.34748 0.93175 0.0
C952 C 0.47135 0.3702 0.91592 0.0
C953 C 0.45607 0.36406 0.86911 0.0
C954 C 0.45937 0.3833 0.97796 0.0
C955 C 0.48848 0.38488 0.88311 0.0
C956 C 0.50821 0.37202 0.87928 0.0
C957 C 0.52671 0.38227 0.85593 0.0
C958 C 0.52508 0.40632 0.8364 0.0
C959 C 0.5051 0.41991 0.83972 0.0
C960 C 0.48651 0.4089 0.86235 0.0
H961 H 0.16179 0.45347 0.92269 0.0
H962 H 0.18444 0.52343 0.87827 0.0
H963 H 0.15158 0.53577 0.83313 0.0
H964 H 0.13671 0.44633 0.78058 0.0
H965 H 0.1146 0.43243 0.82274 0.0
H966 H 0.13987 0.42905 0.8514 0.0
H967 H 0.12217 0.44645 0.96421 0.0
H968 H 0.09685 0.44986 0.93594 0.0
H969 H 0.10688 0.47562 0.97059 0.0
H970 H 0.11666 0.54011 0.79028 0.0
H971 H 0.08157 0.53732 0.75794 0.0
H972 H 0.08068 0.4647 0.83206 0.0
C973 C 0.15994 0.47134 0.903 0.0
C974 C 0.17588 0.48744 0.90372 0.0
C975 C 0.17252 0.51082 0.87864 0.0
C976 C 0.15392 0.51793 0.8526 0.0
C977 C 0.13865 0.50157 0.85234 0.0
C978 C 0.14138 0.47881 0.8773 0.0
C979 C 0.12232 0.46486 0.87225 0.0
C980 C 0.12877 0.4418 0.82917 0.0
C981 C 0.11141 0.45885 0.93977 0.0
C982 C 0.10845 0.48328 0.84019 0.0
C983 C 0.11828 0.50427 0.82891 0.0
C984 C 0.10882 0.5238 0.79915 0.0
C985 C 0.0888 0.52196 0.7808 0.0
C986 C 0.07815 0.50079 0.7924 0.0
C987 C 0.08826 0.48117 0.82254 0.0
H988 H 0.98251 0.82022 0.61907 0.0
H989 H 0.01805 0.82145 0.42562 0.0
H990 H 0.03048 0.86025 0.45328 0.0
H991 H 0.9635 0.88095 0.628 0.0
H992 H 0.96509 0.88606 0.71255 0.0
H993 H 0.96177 0.85622 0.68276 0.0
H994 H 0.99537 0.83876 0.72804 0.0
H995 H 0.99869 0.86857 0.7586 0.0
H996 H 0.01999 0.8518 0.7053 0.0
H997 H 0.03473 0.90138 0.4942 0.0
H998 H 0.0325 0.94141 0.54896 0.0
H999 H 0.99412 0.91506 0.71673 0.0
C1000 C 0.99322 0.82837 0.58279 0.0
C1001 C 0.99935 0.81736 0.52007 0.0
C1002 C 0.01345 0.82887 0.47445 0.0
C1003 C 0.02049 0.85117 0.48952 0.0
C1004 C 0.01346 0.86188 0.5506 0.0
C1005 C 1.00035 0.85079 0.59694 0.0
C1006 C 0.99383 0.8672 0.65709 0.0
C1007 C 0.96961 0.87294 0.67087 0.0
C1008 C 1.00249 0.85591 0.71574 0.0
C1009 C 1.00471 0.88956 0.63625 0.0
C1010 C 0.01606 0.88591 0.57475 0.0
C1011 C 0.02621 0.90432 0.54278 0.0
C1012 C 0.02472 0.92707 0.5742 0.0
C1013 C 0.01321 0.93137 0.63724 0.0
C1014 C 1.00331 0.9122 0.66899 0.0
H1015 H 0.67084 0.01885 0.51282 0.0
H1016 H 0.68152 0.95101 0.40022 0.0
H1017 H 0.64889 0.93775 0.46021 0.0
H1018 H 0.64728 0.99357 0.66618 0.0
H1019 H 0.62804 0.01939 0.6867 0.0
H1020 H 0.65334 0.02322 0.63979 0.0
H1021 H 0.63469 0.04311 0.54957 0.0
H1022 H 0.60932 0.03969 0.59635 0.0
H1023 H 0.61553 0.02727 0.51469 0.0
H1024 H 0.61335 0.93337 0.5231 0.0
H1025 H 0.578 0.93727 0.58895 0.0
H1026 H 0.58956 0.00755 0.66373 0.0
C1027 C 0.66648 1.00109 0.50115 0.0
C1028 C 0.67908 0.98595 0.45164 0.0
C1029 C 0.67262 0.96282 0.43851 0.0
C1030 C 0.65393 0.95516 0.47212 0.0
C1031 C 0.64175 0.97069 0.51937 0.0
C1032 C 0.64782 0.99308 0.5345 0.0
C1033 C 0.63127 0.00661 0.5857 0.0
C1034 C 0.64055 0.01095 0.6483 0.0
C1035 C 0.62217 0.03059 0.56001 0.0
C1036 C 0.61473 0.98857 0.59559 0.0
C1037 C 0.62121 0.96795 0.55685 0.0
C1038 C 0.60825 0.94927 0.55428 0.0
C1039 C 0.58812 0.95171 0.59178 0.0
C1040 C 0.581 0.9726 0.63199 0.0
C1041 C 0.59467 0.99115 0.63443 0.0
H1042 H 0.55199 0.63812 0.48285 0.0
H1043 H 0.49605 0.68398 0.57003 0.0
H1044 H 0.48918 0.65423 0.65442 0.0
H1045 H 0.5298 0.58387 0.50053 0.0
H1046 H 0.553 0.566 0.51911 0.0
H1047 H 0.55582 0.59252 0.47156 0.0
H1048 H 0.57774 0.61016 0.55284 0.0
H1049 H 0.57516 0.58354 0.60049 0.0
H1050 H 0.56691 0.61318 0.63752 0.0
H1051 H 0.48471 0.617 0.71763 0.0
H1052 H 0.48475 0.57593 0.76137 0.0
H1053 H 0.54391 0.5538 0.63704 0.0
C1054 C 0.53856 0.64219 0.52053 0.0
C1055 C 0.52468 0.66364 0.51972 0.0
C1056 C 0.50725 0.6681 0.57 0.0
C1057 C 0.50309 0.65115 0.61807 0.0
C1058 C 0.5166 0.62985 0.61594 0.0
C1059 C 0.53419 0.62544 0.56913 0.0
C1060 C 0.54528 0.6003 0.57517 0.0
C1061 C 0.546 0.58476 0.5129 0.0
C1062 C 0.5676 0.6019 0.59256 0.0
C1063 C 0.5307 0.59094 0.63109 0.0
C1064 C 0.5143 0.60838 0.65396 0.0
C1065 C 0.49773 0.60341 0.70122 0.0
C1066 C 0.49782 0.58001 0.72554 0.0
C1067 C 0.51447 0.56189 0.7032 0.0
C1068 C 0.53129 0.56755 0.65608 0.0
H1069 H 0.87873 0.54432 0.52297 0.0
H1070 H 0.83707 0.51117 0.67067 0.0
H1071 H 0.86745 0.50061 0.72975 0.0
H1072 H 0.92432 0.50017 0.52319 0.0
H1073 H 0.94305 0.52247 0.50939 0.0
H1074 H 0.91807 0.52695 0.47934 0.0
H1075 H 0.91007 0.56857 0.54078 0.0
H1076 H 0.93496 0.56415 0.57138 0.0
H1077 H 0.91063 0.57022 0.62679 0.0
H1078 H 0.90266 0.496 0.77585 0.0
H1079 H 0.93956 0.49412 0.7989 0.0
H1080 H 0.95814 0.52886 0.61792 0.0
C1081 C 0.87599 0.53477 0.56771 0.0
C1082 C 0.85546 0.52869 0.59246 0.0
C1083 C 0.85264 0.51591 0.65068 0.0
C1084 C 0.8698 0.50998 0.68469 0.0
C1085 C 0.88977 0.51664 0.65941 0.0
C1086 C 0.89294 0.52846 0.60166 0.0
C1087 C 0.91593 0.53332 0.58403 0.0
C1088 C 0.92593 0.51992 0.52021 0.0
C1089 C 0.91801 0.56069 0.58056 0.0
C1090 C 0.92526 0.52263 0.64114 0.0
C1091 C 0.90992 0.51326 0.68446 0.0
C1092 C 0.91477 0.50309 0.74182 0.0
C1093 C 0.9358 0.5022 0.75468 0.0
C1094 C 0.95188 0.51121 0.71018 0.0
C1095 C 0.94635 0.52161 0.6528 0.0
loop_
_geom_bond_atom_site_label_1
_geom_bond_atom_site_label_2
_geom_bond_distance
_geom_bond_site_symmetry_2
_ccdc_geom_bond_type
C0 C1 1.384 . S
C0 H13 0.947 . S
C0 C35 1.382 . S
C1 C0 1.384 . S
C1 C2 1.378 . S
C2 C1 1.378 . S
C2 C3 1.378 . S
C2 H14 0.952 . S
C3 C2 1.378 . S
C3 H15 0.950 . S
C3 C34 1.383 . S
H4 C23 0.947 . S
H5 C24 0.946 . S
H6 C26 0.953 . S
H7 C27 0.945 . S
H8 C29 0.952 . S
H9 C30 0.949 . S
H10 C32 0.950 . S
H11 C33 0.948 . S
H12 C35 0.951 . S
H13 C0 0.947 . S
H14 C2 0.952 . S
H15 C3 0.950 . S
N16 C19 1.382 . S
N16 C21 1.363 . S
N17 C19 1.371 . S
N17 C20 1.372 . S
N18 C20 1.361 . S
N18 C21 1.377 . S
C19 N16 1.382 . S
C19 N17 1.371 . S
C19 C22 1.480 . S
C20 N17 1.372 . S
C20 N18 1.361 . S
C20 C28 1.457 . S
C21 N16 1.363 . S
C21 N18 1.377 . S
C21 C34 1.479 . S
C22 C19 1.480 . S
C22 C23 1.383 . S
C22 C27 1.385 . S
C23 H4 0.947 . S
C23 C22 1.383 . S
C23 C24 1.388 . S
C24 H5 0.946 . S
C24 C23 1.388 . S
C24 C25 1.384 . S
C25 C24 1.384 . S
C25 C26 1.377 . S
C26 H6 0.953 . S
C26 C25 1.377 . S
C26 C27 1.369 . S
C27 H7 0.945 . S
C27 C22 1.385 . S
C27 C26 1.369 . S
C28 C20 1.457 . S
C28 C29 1.372 . S
C28 C33 1.364 . S
C29 H8 0.952 . S
C29 C28 1.372 . S
C29 C30 1.389 . S
C30 H9 0.949 . S
C30 C29 1.389 . S
C30 C31 1.387 . S
C31 C30 1.387 . S
C31 C32 1.372 . S
C32 H10 0.950 . S
C32 C31 1.372 . S
C32 C33 1.379 . S
C33 H11 0.948 . S
C33 C28 1.364 . S
C33 C32 1.379 . S
C34 C3 1.383 . S
C34 C21 1.479 . S
C34 C35 1.398 . S
C35 C0 1.382 . S
C35 H12 0.951 . S
C35 C34 1.398 . S
C36 C37 1.384 . S
C36 H49 0.947 . S
C36 C71 1.382 . S
C37 C36 1.384 . S
C37 C38 1.378 . S
C38 C37 1.378 . S
C38 C39 1.378 . S
C38 H50 0.952 . S
C39 C38 1.378 . S
C39 H51 0.950 1_655 S
C39 C70 1.383 . S
H40 C59 0.947 . S
H41 C60 0.946 . S
H42 C62 0.953 . S
H43 C63 0.941 1_455 S
H44 C65 0.952 . S
H45 C66 0.949 . S
H46 C68 0.950 1_455 S
H47 C69 0.947 . S
H48 C71 0.951 . S
H49 C36 0.947 . S
H50 C38 0.952 . S
H51 C39 0.950 1_455 S
N52 C55 1.382 . S
N52 C57 1.363 . S
N53 C55 1.371 . S
N53 C56 1.387 . S
N54 C56 1.356 . S
N54 C57 1.377 . S
C55 N52 1.382 . S
C55 N53 1.371 . S
C55 C58 1.480 . S
C56 N53 1.387 . S
C56 N54 1.356 . S
C56 C64 1.461 . S
C57 N52 1.363 . S
C57 N54 1.377 . S
C57 C70 1.479 . S
C58 C55 1.480 . S
C58 C59 1.383 . S
C58 C63 1.383 . S
C59 H40 0.947 . S
C59 C58 1.383 . S
C59 C60 1.388 . S
C60 H41 0.946 . S
C60 C59 1.388 . S
C60 C61 1.384 . S
C61 C60 1.384 . S
C61 C62 1.377 . S
C62 H42 0.953 . S
C62 C61 1.377 . S
C62 C63 1.378 . S
C63 H43 0.941 1_655 S
C63 C58 1.383 . S
C63 C62 1.378 . S
C64 C56 1.461 . S
C64 C65 1.372 . S
C64 C69 1.365 1_655 S
C65 H44 0.952 . S
C65 C64 1.372 . S
C65 C66 1.389 . S
C66 H45 0.949 . S
C66 C65 1.389 . S
C66 C67 1.387 . S
C67 C66 1.387 . S
C67 C68 1.372 . S
C68 H46 0.950 1_655 S
C68 C67 1.372 . S
C68 C69 1.379 1_655 S
C69 H47 0.947 . S
C69 C64 1.365 1_455 S
C69 C68 1.379 1_455 S
C70 C39 1.383 . S
C70 C57 1.479 . S
C70 C71 1.398 . S
C71 C36 1.382 . S
C71 H48 0.951 . S
C71 C70 1.398 . S
C72 C73 1.383 1_565 S
C72 H85 0.948 . S
C72 C107 1.381 1_565 S
C73 C72 1.383 1_545 S
C73 C74 1.378 . S
C74 C73 1.378 . S
C74 C75 1.378 . S
C74 H86 0.952 . S
C75 C74 1.378 . S
C75 H87 0.950 . S
C75 C106 1.383 . S
H76 C95 0.947 . S
H77 C96 0.951 . S
H78 C98 0.953 . S
H79 C99 0.945 . S
H80 C101 0.951 1_565 S
H81 C102 0.954 . S
H82 C104 0.950 . S
H83 C105 0.948 . S
H84 C107 0.951 1_565 S
H85 C72 0.948 . S
H86 C74 0.952 . S
H87 C75 0.950 . S
N88 C91 1.382 . S
N88 C93 1.363 . S
N89 C91 1.371 . S
N89 C92 1.372 . S
N90 C92 1.361 . S
N90 C93 1.377 . S
C91 N88 1.382 . S
C91 N89 1.371 . S
C91 C94 1.480 . S
C92 N89 1.372 . S
C92 N90 1.361 . S
C92 C100 1.457 . S
C93 N88 1.363 . S
C93 N90 1.377 . S
C93 C106 1.479 . S
C94 C91 1.480 . S
C94 C95 1.383 . S
C94 C99 1.385 . S
C95 H76 0.947 . S
C95 C94 1.383 . S
C95 C96 1.389 1_545 S
C96 H77 0.951 . S
C96 C95 1.389 1_565 S
C96 C97 1.380 1_565 S
C97 C96 1.380 1_545 S
C97 C98 1.377 . S
C98 H78 0.953 . S
C98 C97 1.377 . S
C98 C99 1.369 . S
C99 H79 0.945 . S
C99 C94 1.385 . S
C99 C98 1.369 . S
C100 C92 1.457 . S
C100 C101 1.375 . S
C100 C105 1.364 . S
C101 H80 0.951 1_545 S
C101 C100 1.375 . S
C101 C102 1.384 1_545 S
C102 H81 0.954 . S
C102 C101 1.384 1_565 S
C102 C103 1.387 1_565 S
C103 C102 1.387 1_545 S
C103 C104 1.372 . S
C104 H82 0.950 . S
C104 C103 1.372 . S
C104 C105 1.379 . S
C105 H83 0.948 . S
C105 C100 1.364 . S
C105 C104 1.379 . S
C106 C75 1.383 . S
C106 C93 1.479 . S
C106 C107 1.398 . S
C107 C72 1.381 1_545 S
C107 H84 0.951 1_545 S
C107 C106 1.398 . S
C108 C109 1.384 . S
C108 H121 0.947 . S
C108 C143 1.382 1_556 S
C109 C108 1.384 . S
C109 C110 1.378 . S
C110 C109 1.378 . S
C110 C111 1.378 . S
C110 H122 0.952 . S
C111 C110 1.378 . S
C111 H123 0.950 . S
C111 C142 1.383 1_556 S
H112 C131 0.947 1_556 S
H113 C132 0.946 1_556 S
H114 C134 0.953 . S
H115 C135 0.945 . S
H116 C137 0.952 . S
H117 C138 0.949 . S
H118 C140 0.950 . S
H119 C141 0.948 . S
H120 C143 0.951 . S
H121 C108 0.947 . S
H122 C110 0.952 . S
H123 C111 0.950 . S
N124 C127 1.382 . S
N124 C129 1.363 . S
N125 C127 1.371 . S
N125 C128 1.372 . S
N126 C128 1.361 . S
N126 C129 1.377 . S
C127 N124 1.382 . S
C127 N125 1.371 . S
C127 C130 1.480 . S
C128 N125 1.372 . S
C128 N126 1.361 . S
C128 C136 1.457 . S
C129 N124 1.363 . S
C129 N126 1.377 . S
C129 C142 1.479 . S
C130 C127 1.480 . S
C130 C131 1.383 . S
C130 C135 1.385 . S
C131 H112 0.947 1_554 S
C131 C130 1.383 . S
C131 C132 1.388 . S
C132 H113 0.946 1_554 S
C132 C131 1.388 . S
C132 C133 1.384 . S
C133 C132 1.384 . S
C133 C134 1.377 . S
C134 H114 0.953 . S
C134 C133 1.377 . S
C134 C135 1.369 . S
C135 H115 0.945 . S
C135 C130 1.385 . S
C135 C134 1.369 . S
C136 C128 1.457 . S
C136 C137 1.372 . S
C136 C141 1.364 . S
C137 H116 0.952 . S
C137 C136 1.372 . S
C137 C138 1.389 . S
C138 H117 0.949 . S
C138 C137 1.389 . S
C138 C139 1.387 . S
C139 C138 1.387 . S
C139 C140 1.372 . S
C140 H118 0.950 . S
C140 C139 1.372 . S
C140 C141 1.379 . S
C141 H119 0.948 . S
C141 C136 1.364 . S
C141 C140 1.379 . S
C142 C111 1.383 1_554 S
C142 C129 1.479 . S
C142 C143 1.398 . S
C143 C108 1.382 1_554 S
C143 H120 0.951 . S
C143 C142 1.398 . S
C144 C145 1.384 . S
C144 H157 0.947 . S
C144 C179 1.382 . S
C145 C144 1.384 . S
C145 C146 1.378 . S
C146 C145 1.378 . S
C146 C147 1.378 . S
C146 H158 0.952 . S
C147 C146 1.378 . S
C147 H159 0.950 . S
C147 C178 1.383 . S
H148 C167 0.947 . S
H149 C168 0.946 . S
H150 C170 0.953 . S
H151 C171 0.945 . S
H152 C173 0.952 . S
H153 C174 0.949 . S
H154 C176 0.950 . S
H155 C177 0.948 . S
H156 C179 0.951 . S
H157 C144 0.947 . S
H158 C146 0.952 . S
H159 C147 0.950 . S
N160 C163 1.382 1_556 S
N160 C165 1.363 . S
N161 C163 1.371 . S
N161 C164 1.372 . S
N162 C164 1.361 1_556 S
N162 C165 1.377 . S
C163 N160 1.382 1_554 S
C163 N161 1.371 . S
C163 C166 1.480 . S
C164 N161 1.372 . S
C164 N162 1.361 1_554 S
C164 C172 1.457 . S
C165 N160 1.363 . S
C165 N162 1.377 . S
C165 C178 1.479 . S
C166 C163 1.480 . S
C166 C167 1.383 1_554 S
C166 C171 1.385 . S
C167 H148 0.947 . S
C167 C166 1.383 1_556 S
C167 C168 1.388 . S
C168 H149 0.946 . S
C168 C167 1.388 . S
C168 C169 1.384 1_556 S
C169 C168 1.384 1_554 S
C169 C170 1.377 . S
C170 H150 0.953 . S
C170 C169 1.377 . S
C170 C171 1.369 . S
C171 H151 0.945 . S
C171 C166 1.385 . S
C171 C170 1.369 . S
C172 C164 1.457 . S
C172 C173 1.372 . S
C172 C177 1.364 . S
C173 H152 0.952 . S
C173 C172 1.372 . S
C173 C174 1.389 . S
C174 H153 0.949 . S
C174 C173 1.389 . S
C174 C175 1.387 . S
C175 C174 1.387 . S
C175 C176 1.372 . S
C176 H154 0.950 . S
C176 C175 1.372 . S
C176 C177 1.379 . S
C177 H155 0.948 . S
C177 C172 1.364 . S
C177 C176 1.379 . S
C178 C147 1.383 . S
C178 C165 1.479 . S
C178 C179 1.398 . S
C179 C144 1.382 . S
C179 H156 0.951 . S
C179 C178 1.398 . S
C180 C181 1.384 . S
C180 H193 0.947 . S
C180 C215 1.382 . S
C181 C180 1.384 . S
C181 C182 1.378 . S
C182 C181 1.378 . S
C182 C183 1.378 . S
C182 H194 0.952 . S
C183 C182 1.378 . S
C183 H195 0.950 . S
C183 C214 1.383 . S
H184 C203 0.947 . S
H185 C204 0.946 . S
H186 C206 0.953 . S
H187 C207 0.945 . S
H188 C209 0.952 . S
H189 C210 0.949 . S
H190 C212 0.950 . S
H191 C213 0.948 . S
H192 C215 0.951 1_554 S
H193 C180 0.947 . S
H194 C182 0.952 . S
H195 C183 0.950 . S
N196 C199 1.382 . S
N196 C201 1.363 . S
N197 C199 1.371 . S
N197 C200 1.372 . S
N198 C200 1.361 . S
N198 C201 1.377 . S
C199 N196 1.382 . S
C199 N197 1.371 . S
C199 C202 1.480 . S
C200 N197 1.372 . S
C200 N198 1.361 . S
C200 C208 1.457 . S
C201 N196 1.363 . S
C201 N198 1.377 . S
C201 C214 1.479 1_554 S
C202 C199 1.480 . S
C202 C203 1.383 . S
C202 C207 1.385 . S
C203 H184 0.947 . S
C203 C202 1.383 . S
C203 C204 1.388 . S
C204 H185 0.946 . S
C204 C203 1.388 . S
C204 C205 1.384 . S
C205 C204 1.384 . S
C205 C206 1.377 . S
C206 H186 0.953 . S
C206 C205 1.377 . S
C206 C207 1.369 . S
C207 H187 0.945 . S
C207 C202 1.385 . S
C207 C206 1.369 . S
C208 C200 1.457 . S
C208 C209 1.372 . S
C208 C213 1.364 . S
C209 H188 0.952 . S
C209 C208 1.372 . S
C209 C210 1.389 . S
C210 H189 0.949 . S
C210 C209 1.389 . S
C210 C211 1.387 . S
C211 C210 1.387 . S
C211 C212 1.372 . S
C212 H190 0.950 . S
C212 C211 1.372 . S
C212 C213 1.379 . S
C213 H191 0.948 . S
C213 C208 1.364 . S
C213 C212 1.379 . S
C214 C183 1.383 . S
C214 C201 1.479 1_556 S
C214 C215 1.398 . S
C215 C180 1.382 . S
C215 H192 0.951 1_556 S
C215 C214 1.398 . S
C216 C217 1.384 . S
C216 H229 0.947 1_545 S
C216 C251 1.383 1_556 S
C217 C216 1.384 . S
C217 C218 1.378 . S
C218 C217 1.378 . S
C218 C219 1.378 1_556 S
C218 H230 0.952 . S
C219 C218 1.378 1_554 S
C219 H231 0.950 . S
C219 C250 1.383 . S
H220 C239 0.947 . S
H221 C240 0.950 . S
H222 C242 0.953 . S
H223 C243 0.945 . S
H224 C245 0.944 1_565 S
H225 C246 0.956 . S
H226 C248 0.950 . S
H227 C249 0.948 . S
H228 C251 0.951 1_565 S
H229 C216 0.947 1_565 S
H230 C218 0.952 . S
H231 C219 0.950 . S
N232 C235 1.382 . S
N232 C237 1.363 . S
N233 C235 1.371 . S
N233 C236 1.372 . S
N234 C236 1.361 . S
N234 C237 1.377 . S
C235 N232 1.382 . S
C235 N233 1.371 . S
C235 C238 1.480 . S
C236 N233 1.372 . S
C236 N234 1.361 . S
C236 C244 1.457 . S
C237 N232 1.363 . S
C237 N234 1.377 . S
C237 C250 1.479 . S
C238 C235 1.480 . S
C238 C239 1.383 . S
C238 C243 1.385 . S
C239 H220 0.947 . S
C239 C238 1.383 . S
C239 C240 1.385 1_545 S
C240 H221 0.950 . S
C240 C239 1.385 1_565 S
C240 C241 1.383 1_565 S
C241 C240 1.383 1_545 S
C241 C242 1.377 . S
C242 H222 0.953 . S
C242 C241 1.377 . S
C242 C243 1.369 . S
C243 H223 0.945 . S
C243 C238 1.385 . S
C243 C242 1.369 . S
C244 C236 1.457 . S
C244 C245 1.381 . S
C244 C249 1.364 . S
C245 H224 0.944 1_545 S
C245 C244 1.381 . S
C245 C246 1.390 1_545 S
C246 H225 0.956 . S
C246 C245 1.390 1_565 S
C246 C247 1.380 1_565 S
C247 C246 1.380 1_545 S
C247 C248 1.372 . S
C248 H226 0.950 . S
C248 C247 1.372 . S
C248 C249 1.379 . S
C249 H227 0.948 . S
C249 C244 1.364 . S
C249 C248 1.379 . S
C250 C219 1.383 . S
C250 C237 1.479 . S
C250 C251 1.398 . S
C251 C216 1.383 1_554 S
C251 H228 0.951 1_545 S
C251 C250 1.398 . S
C252 C253 1.384 . S
C252 H265 0.947 . S
C252 C287 1.382 . S
C253 C252 1.384 . S
C253 C254 1.378 . S
C254 C253 1.378 . S
C254 C255 1.378 . S
C254 H266 0.952 . S
C255 C254 1.378 . S
C255 H267 0.950 . S
C255 C286 1.383 . S
H256 C275 0.947 . S
H257 C276 0.946 . S
H258 C278 0.953 . S
H259 C279 0.945 . S
H260 C281 0.952 . S
H261 C282 0.949 . S
H262 C284 0.950 . S
H263 C285 0.948 . S
H264 C287 0.951 . S
H265 C252 0.947 . S
H266 C254 0.952 . S
H267 C255 0.950 . S
N268 C271 1.382 . S
N268 C273 1.363 . S
N269 C271 1.371 . S
N269 C272 1.372 . S
N270 C272 1.361 . S
N270 C273 1.377 . S
C271 N268 1.382 . S
C271 N269 1.371 . S
C271 C274 1.480 . S
C272 N269 1.372 . S
C272 N270 1.361 . S
C272 C280 1.457 . S
C273 N268 1.363 . S
C273 N270 1.377 . S
C273 C286 1.479 . S
C274 C271 1.480 . S
C274 C275 1.383 . S
C274 C279 1.385 . S
C275 H256 0.947 . S
C275 C274 1.383 . S
C275 C276 1.388 . S
C276 H257 0.946 . S
C276 C275 1.388 . S
C276 C277 1.384 . S
C277 C276 1.384 . S
C277 C278 1.377 . S
C278 H258 0.953 . S
C278 C277 1.377 . S
C278 C279 1.369 . S
C279 H259 0.945 . S
C279 C274 1.385 . S
C279 C278 1.369 . S
C280 C272 1.457 . S
C280 C281 1.372 . S
C280 C285 1.364 . S
C281 H260 0.952 . S
C281 C280 1.372 . S
C281 C282 1.389 . S
C282 H261 0.949 . S
C282 C281 1.389 . S
C282 C283 1.387 . S
C283 C282 1.387 . S
C283 C284 1.372 . S
C284 H262 0.950 . S
C284 C283 1.372 . S
C284 C285 1.379 . S
C285 H263 0.948 . S
C285 C280 1.364 . S
C285 C284 1.379 . S
C286 C255 1.383 . S
C286 C273 1.479 . S
C286 C287 1.398 . S
C287 C252 1.382 . S
C287 H264 0.951 . S
C287 C286 1.398 . S
Dy288 O291 2.307 1_545 S
Dy288 O293 2.395 1_655 S
Dy288 O294 2.379 . S
Dy288 O296 2.339 . S
Dy288 O298 2.298 . S
Dy288 O302 2.275 1_655 S
Dy288 C310 2.738 . S
Dy289 O292 2.298 . S
Dy289 O295 2.275 1_455 S
Dy289 O297 2.307 1_565 S
Dy289 O299 2.390 1_455 S
Dy289 O300 2.379 . S
Dy289 O303 2.339 . S
Dy289 C319 2.738 . S
C290 O302 1.254 1_565 S
C290 O303 1.257 . S
O291 Dy288 2.307 1_565 S
O291 C301 1.266 . S
O292 Dy289 2.298 . S
O292 C301 1.236 1_455 S
O293 Dy288 2.395 1_455 S
O293 C310 1.255 1_455 S
O294 Dy288 2.379 . S
O294 C310 1.249 . S
O295 Dy289 2.275 1_655 S
O295 C311 1.254 1_565 S
O296 Dy288 2.339 . S
O296 C311 1.257 . S
O297 Dy289 2.307 1_545 S
O297 C312 1.266 . S
O298 Dy288 2.298 . S
O298 C312 1.236 1_655 S
O299 Dy289 2.390 1_655 S
O299 C319 1.246 1_655 S
O300 Dy289 2.379 . S
O300 C319 1.249 . S
C301 O291 1.266 . S
C301 O292 1.236 1_655 S
O302 Dy288 2.275 1_455 S
O302 C290 1.254 1_545 S
O303 Dy289 2.339 . S
O303 C290 1.257 . S
C304 C307 1.344 1_655 S
C304 C308 1.328 . S
C304 C310 1.516 . S
C305 C306 1.304 1_655 S
C305 C309 1.323 . S
C306 C305 1.304 1_455 S
C306 C307 1.371 . S
C306 H320 0.930 . S
C307 C304 1.344 1_455 S
C307 C306 1.371 . S
C307 H321 0.931 . S
C308 C304 1.328 . S
C308 C309 1.433 . S
C308 H322 0.931 . S
C309 C305 1.323 . S
C309 C308 1.433 . S
C309 H323 0.933 . S
C310 Dy288 2.738 . S
C310 O293 1.255 1_655 S
C310 O294 1.249 . S
C310 C304 1.516 . S
C311 O295 1.254 1_545 S
C311 O296 1.257 . S
C312 O297 1.266 . S
C312 O298 1.236 1_455 S
C313 C316 1.388 . S
C313 C317 1.328 . S
C313 C319 1.516 . S
C314 C315 1.304 . S
C314 C318 1.323 . S
C315 C314 1.304 . S
C315 C316 1.374 . S
C315 H324 0.930 1_455 S
C316 C313 1.388 . S
C316 C315 1.374 . S
C316 H325 0.885 1_455 S
C317 C313 1.328 . S
C317 C318 1.433 . S
C317 H326 0.931 . S
C318 C314 1.323 . S
C318 C317 1.433 . S
C318 H327 0.933 . S
C319 Dy289 2.738 . S
C319 O299 1.246 1_455 S
C319 O300 1.249 . S
C319 C313 1.516 . S
H320 C306 0.930 . S
H321 C307 0.931 . S
H322 C308 0.931 . S
H323 C309 0.933 . S
H324 C315 0.930 1_655 S
H325 C316 0.885 1_655 S
H326 C317 0.931 . S
H327 C318 0.933 . S
Dy328 O331 2.307 . S
Dy328 O333 2.395 1_565 S
Dy328 O334 2.379 . S
Dy328 O336 2.339 . S
Dy328 O338 2.298 . S
Dy328 O342 2.275 1_565 S
Dy328 C350 2.738 . S
Dy329 O332 2.298 . S
Dy329 O335 2.275 1_545 S
Dy329 O337 2.307 . S
Dy329 O339 2.395 1_545 S
Dy329 O340 2.379 . S
Dy329 O343 2.339 . S
Dy329 C359 2.738 . S
C330 O342 1.254 . S
C330 O343 1.257 . S
O331 Dy328 2.307 . S
O331 C341 1.266 . S
O332 Dy329 2.298 . S
O332 C341 1.236 1_545 S
O333 Dy328 2.395 1_545 S
O333 C350 1.255 1_545 S
O334 Dy328 2.379 . S
O334 C350 1.249 . S
O335 Dy329 2.275 1_565 S
O335 C351 1.254 . S
O336 Dy328 2.339 . S
O336 C351 1.257 . S
O337 Dy329 2.307 . S
O337 C352 1.266 . S
O338 Dy328 2.298 . S
O338 C352 1.236 1_565 S
O339 Dy329 2.395 1_565 S
O339 C359 1.255 1_565 S
O340 Dy329 2.379 . S
O340 C359 1.249 . S
C341 O331 1.266 . S
C341 O332 1.236 1_565 S
O342 Dy328 2.275 1_545 S
O342 C330 1.254 . S
O343 Dy329 2.339 . S
O343 C330 1.257 . S
C344 C347 1.332 1_565 S
C344 C348 1.328 . S
C344 C350 1.516 . S
C345 C346 1.304 . S
C345 C349 1.323 . S
C346 C345 1.304 . S
C346 C347 1.369 1_565 S
C346 H360 0.930 1_565 S
C347 C344 1.332 1_545 S
C347 C346 1.369 1_545 S
C347 H361 0.945 . S
C348 C344 1.328 . S
C348 C349 1.433 . S
C348 H362 0.931 . S
C349 C345 1.323 . S
C349 C348 1.433 . S
C349 H363 0.933 . S
C350 Dy328 2.738 . S
C350 O333 1.255 1_565 S
C350 O334 1.249 . S
C350 C344 1.516 . S
C351 O335 1.254 . S
C351 O336 1.257 . S
C352 O337 1.266 . S
C352 O338 1.236 1_545 S
C353 C356 1.341 1_545 S
C353 C357 1.328 . S
C353 C359 1.516 . S
C354 C355 1.304 . S
C354 C358 1.323 . S
C355 C354 1.304 . S
C355 C356 1.370 1_545 S
C355 H364 0.930 1_545 S
C356 C353 1.341 1_565 S
C356 C355 1.370 1_565 S
C356 H365 0.935 . S
C357 C353 1.328 . S
C357 C358 1.433 . S
C357 H366 0.931 . S
C358 C354 1.323 . S
C358 C357 1.433 . S
C358 H367 0.933 . S
C359 Dy329 2.738 . S
C359 O339 1.255 1_545 S
C359 O340 1.249 . S
C359 C353 1.516 . S
H360 C346 0.930 1_545 S
H361 C347 0.945 . S
H362 C348 0.931 . S
H363 C349 0.933 . S
H364 C355 0.930 1_565 S
H365 C356 0.935 . S
H366 C357 0.931 . S
H367 C358 0.933 . S
Dy368 O371 2.307 . S
Dy368 O373 2.395 . S
Dy368 O374 2.379 . S
Dy368 O376 2.339 . S
Dy368 O378 2.298 . S
Dy368 O382 2.275 . S
Dy368 C390 2.738 . S
Dy369 O372 2.298 . S
Dy369 O375 2.275 . S
Dy369 O377 2.307 . S
Dy369 O379 2.395 . S
Dy369 O380 2.379 . S
Dy369 O383 2.339 . S
Dy369 C399 2.738 . S
C370 O382 1.254 . S
C370 O383 1.257 . S
O371 Dy368 2.307 . S
O371 C381 1.266 . S
O372 Dy369 2.298 . S
O372 C381 1.236 . S
O373 Dy368 2.395 . S
O373 C390 1.255 . S
O374 Dy368 2.379 . S
O374 C390 1.249 . S
O375 Dy369 2.275 . S
O375 C391 1.254 . S
O376 Dy368 2.339 . S
O376 C391 1.257 . S
O377 Dy369 2.307 . S
O377 C392 1.266 . S
O378 Dy368 2.298 . S
O378 C392 1.236 . S
O379 Dy369 2.395 . S
O379 C399 1.255 . S
O380 Dy369 2.379 . S
O380 C399 1.249 . S
C381 O371 1.266 . S
C381 O372 1.236 . S
O382 Dy368 2.275 . S
O382 C370 1.254 . S
O383 Dy369 2.339 . S
O383 C370 1.257 . S
C384 C387 1.344 . S
C384 C388 1.328 . S
C384 C390 1.516 . S
C385 C386 1.304 . S
C385 C389 1.323 . S
C386 C385 1.304 . S
C386 C387 1.371 . S
C386 H400 0.930 . S
C387 C384 1.344 . S
C387 C386 1.371 . S
C387 H401 0.931 . S
C388 C384 1.328 . S
C388 C389 1.433 . S
C388 H402 0.931 . S
C389 C385 1.323 . S
C389 C388 1.433 . S
C389 H403 0.933 . S
C390 Dy368 2.738 . S
C390 O373 1.255 . S
C390 O374 1.249 . S
C390 C384 1.516 . S
C391 O375 1.254 . S
C391 O376 1.257 . S
C392 O377 1.266 . S
C392 O378 1.236 . S
C393 C396 1.344 . S
C393 C397 1.328 . S
C393 C399 1.516 . S
C394 C395 1.304 . S
C394 C398 1.323 . S
C395 C394 1.304 . S
C395 C396 1.371 . S
C395 H404 0.930 . S
C396 C393 1.344 . S
C396 C395 1.371 . S
C396 H405 0.931 . S
C397 C393 1.328 . S
C397 C398 1.433 . S
C397 H406 0.931 . S
C398 C394 1.323 . S
C398 C397 1.433 . S
C398 H407 0.933 . S
C399 Dy369 2.738 . S
C399 O379 1.255 . S
C399 O380 1.249 . S
C399 C393 1.516 . S
H400 C386 0.930 . S
H401 C387 0.931 . S
H402 C388 0.931 . S
H403 C389 0.933 . S
H404 C395 0.930 . S
H405 C396 0.931 . S
H406 C397 0.931 . S
H407 C398 0.933 . S
Dy408 O411 2.307 1_455 S
Dy408 O413 2.395 . S
Dy408 O414 2.379 . S
Dy408 O416 2.339 . S
Dy408 O418 2.298 . S
Dy408 O422 2.275 . S
Dy408 C430 2.738 . S
Dy409 O412 2.298 . S
Dy409 O415 2.275 . S
Dy409 O417 2.307 1_655 S
Dy409 O419 2.395 . S
Dy409 O420 2.379 . S
Dy409 O423 2.339 . S
Dy409 C439 2.738 . S
C410 O422 1.272 . S
C410 O423 1.236 1_455 S
O411 Dy408 2.307 1_655 S
O411 C421 1.266 . S
O412 Dy409 2.298 . S
O412 C421 1.236 . S
O413 Dy408 2.395 . S
O413 C430 1.255 . S
O414 Dy408 2.379 . S
O414 C430 1.249 . S
O415 Dy409 2.275 . S
O415 C431 1.254 1_655 S
O416 Dy408 2.339 . S
O416 C431 1.257 . S
O417 Dy409 2.307 1_455 S
O417 C432 1.266 . S
O418 Dy408 2.298 . S
O418 C432 1.236 . S
O419 Dy409 2.395 . S
O419 C439 1.255 . S
O420 Dy409 2.379 . S
O420 C439 1.249 . S
C421 O411 1.266 . S
C421 O412 1.236 . S
O422 Dy408 2.275 . S
O422 C410 1.272 . S
O423 Dy409 2.339 . S
O423 C410 1.236 1_655 S
C424 C427 1.344 . S
C424 C428 1.328 . S
C424 C430 1.516 . S
C425 C426 1.304 . S
C425 C429 1.323 . S
C426 C425 1.304 . S
C426 C427 1.371 . S
C426 H440 0.930 . S
C427 C424 1.344 . S
C427 C426 1.371 . S
C427 H441 0.931 . S
C428 C424 1.328 . S
C428 C429 1.433 . S
C428 H442 0.931 . S
C429 C425 1.323 . S
C429 C428 1.433 . S
C429 H443 0.933 . S
C430 Dy408 2.738 . S
C430 O413 1.255 . S
C430 O414 1.249 . S
C430 C424 1.516 . S
C431 O415 1.254 1_455 S
C431 O416 1.257 . S
C432 O417 1.266 . S
C432 O418 1.236 . S
C433 C436 1.344 . S
C433 C437 1.328 . S
C433 C439 1.516 . S
C434 C435 1.304 1_554 S
C434 C438 1.323 1_554 S
C435 C434 1.304 1_556 S
C435 C436 1.371 . S
C435 H444 0.930 1_556 S
C436 C433 1.344 . S
C436 C435 1.371 . S
C436 H445 0.931 . S
C437 C433 1.328 . S
C437 C438 1.433 . S
C437 H446 0.931 . S
C438 C434 1.323 1_556 S
C438 C437 1.433 . S
C438 H447 0.933 . S
C439 Dy409 2.738 . S
C439 O419 1.255 . S
C439 O420 1.249 . S
C439 C433 1.516 . S
H440 C426 0.930 . S
H441 C427 0.931 . S
H442 C428 0.931 . S
H443 C429 0.933 . S
H444 C435 0.930 1_554 S
H445 C436 0.931 . S
H446 C437 0.931 . S
H447 C438 0.933 . S
H448 C460 0.930 . S
H449 C462 0.930 . S
H450 C463 0.930 . S
H451 C467 0.959 . S
H452 C467 0.959 . S
H453 C467 0.961 . S
H454 C468 0.960 . S
H455 C468 0.961 . S
H456 C468 0.959 . S
H457 C471 0.929 . S
H458 C472 0.931 . S
H459 C474 0.930 . S
C460 H448 0.930 . S
C460 C461 1.399 1_545 S
C460 C465 1.399 . S
C461 C460 1.399 1_565 S
C461 C462 1.376 . S
C462 H449 0.930 . S
C462 C461 1.376 . S
C462 C463 1.388 . S
C463 H450 0.930 . S
C463 C462 1.388 . S
C463 C464 1.390 . S
C464 C463 1.390 . S
C464 C465 1.394 1_565 S
C464 C470 1.465 . S
C465 C460 1.399 . S
C465 C464 1.394 1_545 S
C465 C466 1.516 . S
C466 C465 1.516 . S
C466 C467 1.502 . S
C466 C468 1.561 . S
C466 C469 1.526 . S
C467 H451 0.959 . S
C467 H452 0.959 . S
C467 H453 0.961 . S
C467 C466 1.502 . S
C468 H454 0.960 . S
C468 H455 0.961 . S
C468 H456 0.959 . S
C468 C466 1.561 . S
C469 C466 1.526 . S
C469 C470 1.396 1_545 S
C469 C474 1.390 . S
C470 C464 1.465 . S
C470 C469 1.396 1_565 S
C470 C471 1.399 . S
C471 H457 0.929 . S
C471 C470 1.399 . S
C471 C472 1.385 . S
C472 H458 0.931 . S
C472 C471 1.385 . S
C472 C473 1.389 . S
C473 C472 1.389 . S
C473 C474 1.387 1_565 S
C474 H459 0.930 . S
C474 C469 1.390 . S
C474 C473 1.387 1_545 S
H475 C487 0.930 . S
H476 C489 0.930 . S
H477 C490 0.930 . S
H478 C494 0.959 . S
H479 C494 0.959 . S
H480 C494 0.961 . S
H481 C495 0.960 . S
H482 C495 0.961 . S
H483 C495 0.959 . S
H484 C498 0.929 . S
H485 C499 0.931 . S
H486 C501 0.930 . S
C487 H475 0.930 . S
C487 C488 1.399 . S
C487 C492 1.399 . S
C488 C487 1.399 . S
C488 C489 1.376 . S
C489 H476 0.930 . S
C489 C488 1.376 . S
C489 C490 1.388 . S
C490 H477 0.930 . S
C490 C489 1.388 . S
C490 C491 1.390 . S
C491 C490 1.390 . S
C491 C492 1.394 . S
C491 C497 1.465 . S
C492 C487 1.399 . S
C492 C491 1.394 . S
C492 C493 1.516 . S
C493 C492 1.516 . S
C493 C494 1.502 . S
C493 C495 1.561 . S
C493 C496 1.526 . S
C494 H478 0.959 . S
C494 H479 0.959 . S
C494 H480 0.961 . S
C494 C493 1.502 . S
C495 H481 0.960 . S
C495 H482 0.961 . S
C495 H483 0.959 . S
C495 C493 1.561 . S
C496 C493 1.526 . S
C496 C497 1.396 . S
C496 C501 1.390 . S
C497 C491 1.465 . S
C497 C496 1.396 . S
C497 C498 1.399 . S
C498 H484 0.929 . S
C498 C497 1.399 . S
C498 C499 1.385 . S
C499 H485 0.931 . S
C499 C498 1.385 . S
C499 C500 1.389 . S
C500 C499 1.389 . S
C500 C501 1.387 . S
C501 H486 0.930 . S
C501 C496 1.390 . S
C501 C500 1.387 . S
H502 C514 0.930 . S
H503 C516 0.930 . S
H504 C517 0.930 . S
H505 C521 0.959 . S
H506 C521 0.959 . S
H507 C521 0.961 . S
H508 C522 0.960 . S
H509 C522 0.961 . S
H510 C522 0.959 . S
H511 C525 0.929 . S
H512 C526 0.931 . S
H513 C528 0.930 . S
C514 H502 0.930 . S
C514 C515 1.399 . S
C514 C519 1.399 . S
C515 C514 1.399 . S
C515 C516 1.376 . S
C516 H503 0.930 . S
C516 C515 1.376 . S
C516 C517 1.388 . S
C517 H504 0.930 . S
C517 C516 1.388 . S
C517 C518 1.390 . S
C518 C517 1.390 . S
C518 C519 1.394 . S
C518 C524 1.465 . S
C519 C514 1.399 . S
C519 C518 1.394 . S
C519 C520 1.516 . S
C520 C519 1.516 . S
C520 C521 1.502 . S
C520 C522 1.561 . S
C520 C523 1.526 . S
C521 H505 0.959 . S
C521 H506 0.959 . S
C521 H507 0.961 . S
C521 C520 1.502 . S
C522 H508 0.960 . S
C522 H509 0.961 . S
C522 H510 0.959 . S
C522 C520 1.561 . S
C523 C520 1.526 . S
C523 C524 1.396 . S
C523 C528 1.390 . S
C524 C518 1.465 . S
C524 C523 1.396 . S
C524 C525 1.399 . S
C525 H511 0.929 . S
C525 C524 1.399 . S
C525 C526 1.385 . S
C526 H512 0.931 . S
C526 C525 1.385 . S
C526 C527 1.389 . S
C527 C526 1.389 . S
C527 C528 1.387 . S
C528 H513 0.930 . S
C528 C523 1.390 . S
C528 C527 1.387 . S
H529 C541 0.930 . S
H530 C543 0.932 1_655 S
H531 C544 0.930 . S
H532 C548 0.959 . S
H533 C548 0.959 . S
H534 C548 0.961 . S
H535 C549 0.960 . S
H536 C549 0.961 . S
H537 C549 0.959 . S
H538 C552 0.929 . S
H539 C553 0.931 . S
H540 C555 0.930 . S
C541 H529 0.930 . S
C541 C542 1.399 . S
C541 C546 1.399 . S
C542 C541 1.399 . S
C542 C543 1.374 . S
C543 H530 0.932 1_455 S
C543 C542 1.374 . S
C543 C544 1.388 1_455 S
C544 H531 0.930 . S
C544 C543 1.388 1_655 S
C544 C545 1.390 1_655 S
C545 C544 1.390 1_455 S
C545 C546 1.394 . S
C545 C551 1.465 . S
C546 C541 1.399 . S
C546 C545 1.394 . S
C546 C547 1.516 . S
C547 C546 1.516 . S
C547 C548 1.502 . S
C547 C549 1.561 1_455 S
C547 C550 1.526 . S
C548 H532 0.959 . S
C548 H533 0.959 . S
C548 H534 0.961 . S
C548 C547 1.502 . S
C549 H535 0.960 . S
C549 H536 0.961 . S
C549 H537 0.959 . S
C549 C547 1.561 1_655 S
C550 C547 1.526 . S
C550 C551 1.396 . S
C550 C555 1.390 . S
C551 C545 1.465 . S
C551 C550 1.396 . S
C551 C552 1.399 1_455 S
C552 H538 0.929 . S
C552 C551 1.399 1_655 S
C552 C553 1.385 . S
C553 H539 0.931 . S
C553 C552 1.385 . S
C553 C554 1.389 1_655 S
C554 C553 1.389 1_455 S
C554 C555 1.387 . S
C555 H540 0.930 . S
C555 C550 1.390 . S
C555 C554 1.387 . S
H556 C568 0.930 . S
H557 C570 0.930 . S
H558 C571 0.930 . S
H559 C575 0.959 . S
H560 C575 0.959 . S
H561 C575 0.961 . S
H562 C576 0.960 1_554 S
H563 C576 0.961 . S
H564 C576 0.959 . S
H565 C579 0.929 . S
H566 C580 0.931 . S
H567 C582 0.930 . S
C568 H556 0.930 . S
C568 C569 1.399 1_565 S
C568 C573 1.399 . S
C569 C568 1.399 1_545 S
C569 C570 1.376 . S
C570 H557 0.930 . S
C570 C569 1.376 . S
C570 C571 1.388 . S
C571 H558 0.930 . S
C571 C570 1.388 . S
C571 C572 1.390 . S
C572 C571 1.390 . S
C572 C573 1.394 1_545 S
C572 C578 1.465 1_554 S
C573 C568 1.399 . S
C573 C572 1.394 1_565 S
C573 C574 1.516 . S
C574 C573 1.516 . S
C574 C575 1.502 . S
C574 C576 1.561 1_554 S
C574 C577 1.526 1_554 S
C575 H559 0.959 . S
C575 H560 0.959 . S
C575 H561 0.961 . S
C575 C574 1.502 . S
C576 H562 0.960 1_556 S
C576 H563 0.961 . S
C576 H564 0.959 . S
C576 C574 1.561 1_556 S
C577 C574 1.526 1_556 S
C577 C578 1.396 1_565 S
C577 C582 1.390 . S
C578 C572 1.465 1_556 S
C578 C577 1.396 1_545 S
C578 C579 1.399 . S
C579 H565 0.929 . S
C579 C578 1.399 . S
C579 C580 1.385 . S
C580 H566 0.931 . S
C580 C579 1.385 . S
C580 C581 1.389 . S
C581 C580 1.389 . S
C581 C582 1.387 1_545 S
C582 H567 0.930 . S
C582 C577 1.390 . S
C582 C581 1.387 1_565 S
H583 C595 0.930 . S
H584 C597 0.930 . S
H585 C598 0.930 . S
H586 C602 0.959 . S
H587 C602 0.959 . S
H588 C602 0.961 . S
H589 C603 0.960 . S
H590 C603 0.961 . S
H591 C603 0.959 . S
H592 C606 0.929 . S
H593 C607 0.931 . S
H594 C609 0.930 . S
C595 H583 0.930 . S
C595 C596 1.399 . S
C595 C600 1.399 1_554 S
C596 C595 1.399 . S
C596 C597 1.376 1_554 S
C597 H584 0.930 . S
C597 C596 1.376 1_556 S
C597 C598 1.388 . S
C598 H585 0.930 . S
C598 C597 1.388 . S
C598 C599 1.390 . S
C599 C598 1.390 . S
C599 C600 1.394 . S
C599 C605 1.465 . S
C600 C595 1.399 1_556 S
C600 C599 1.394 . S
C600 C601 1.516 . S
C601 C600 1.516 . S
C601 C602 1.502 . S
C601 C603 1.561 1_556 S
C601 C604 1.526 . S
C602 H586 0.959 . S
C602 H587 0.959 . S
C602 H588 0.961 . S
C602 C601 1.502 . S
C603 H589 0.960 . S
C603 H590 0.961 . S
C603 H591 0.959 . S
C603 C601 1.561 1_554 S
C604 C601 1.526 . S
C604 C605 1.396 . S
C604 C609 1.390 . S
C605 C599 1.465 . S
C605 C604 1.396 . S
C605 C606 1.399 . S
C606 H592 0.929 . S
C606 C605 1.399 . S
C606 C607 1.385 . S
C607 H593 0.931 . S
C607 C606 1.385 . S
C607 C608 1.389 . S
C608 C607 1.389 . S
C608 C609 1.387 . S
C609 H594 0.930 . S
C609 C604 1.390 . S
C609 C608 1.387 . S
H610 C622 0.930 . S
H611 C624 0.930 . S
H612 C625 0.930 . S
H613 C629 0.959 . S
H614 C629 0.959 . S
H615 C629 0.961 . S
H616 C630 0.960 . S
H617 C630 0.961 . S
H618 C630 0.959 . S
H619 C633 0.929 . S
H620 C634 0.931 . S
H621 C636 0.930 . S
C622 H610 0.930 . S
C622 C623 1.399 . S
C622 C627 1.399 . S
C623 C622 1.399 . S
C623 C624 1.376 . S
C624 H611 0.930 . S
C624 C623 1.376 . S
C624 C625 1.388 . S
C625 H612 0.930 . S
C625 C624 1.388 . S
C625 C626 1.390 . S
C626 C625 1.390 . S
C626 C627 1.394 . S
C626 C632 1.465 . S
C627 C622 1.399 . S
C627 C626 1.394 . S
C627 C628 1.516 . S
C628 C627 1.516 . S
C628 C629 1.502 . S
C628 C630 1.561 . S
C628 C631 1.526 . S
C629 H613 0.959 . S
C629 H614 0.959 . S
C629 H615 0.961 . S
C629 C628 1.502 . S
C630 H616 0.960 . S
C630 H617 0.961 . S
C630 H618 0.959 . S
C630 C628 1.561 . S
C631 C628 1.526 . S
C631 C632 1.396 . S
C631 C636 1.390 . S
C632 C626 1.465 . S
C632 C631 1.396 . S
C632 C633 1.399 . S
C633 H619 0.929 . S
C633 C632 1.399 . S
C633 C634 1.385 . S
C634 H620 0.931 . S
C634 C633 1.385 . S
C634 C635 1.389 . S
C635 C634 1.389 . S
C635 C636 1.387 . S
C636 H621 0.930 . S
C636 C631 1.390 . S
C636 C635 1.387 . S
H637 C649 0.930 1_455 S
H638 C651 0.930 . S
H639 C652 0.930 . S
H640 C656 0.959 . S
H641 C656 0.959 . S
H642 C656 0.961 . S
H643 C657 0.960 . S
H644 C657 0.961 . S
H645 C657 0.959 . S
H646 C660 0.929 . S
H647 C661 0.931 . S
H648 C663 0.930 . S
C649 H637 0.930 1_655 S
C649 C650 1.399 . S
C649 C654 1.399 . S
C650 C649 1.399 . S
C650 C651 1.376 . S
C651 H638 0.930 . S
C651 C650 1.376 . S
C651 C652 1.388 . S
C652 H639 0.930 . S
C652 C651 1.388 . S
C652 C653 1.390 . S
C653 C652 1.390 . S
C653 C654 1.394 . S
C653 C659 1.465 . S
C654 C649 1.399 . S
C654 C653 1.394 . S
C654 C655 1.517 1_655 S
C655 C654 1.517 1_455 S
C655 C656 1.540 . S
C655 C657 1.527 1_455 S
C655 C658 1.518 1_454 S
C656 H640 0.959 . S
C656 H641 0.959 . S
C656 H642 0.961 . S
C656 C655 1.540 . S
C657 H643 0.960 . S
C657 H644 0.961 . S
C657 H645 0.959 . S
C657 C655 1.527 1_655 S
C658 C655 1.518 1_656 S
C658 C659 1.396 1_556 S
C658 C663 1.390 1_655 S
C659 C653 1.465 . S
C659 C658 1.396 1_554 S
C659 C660 1.399 1_554 S
C660 H646 0.929 . S
C660 C659 1.399 1_556 S
C660 C661 1.385 . S
C661 H647 0.931 . S
C661 C660 1.385 . S
C661 C662 1.389 . S
C662 C661 1.389 . S
C662 C663 1.387 1_655 S
C663 H648 0.930 . S
C663 C658 1.390 1_455 S
C663 C662 1.387 1_455 S
H664 C676 0.930 . S
H665 C678 0.930 . S
H666 C679 0.930 . S
H667 C683 0.959 1_655 S
H668 C683 0.959 . S
H669 C683 0.961 . S
H670 C684 0.960 . S
H671 C684 0.961 . S
H672 C684 0.959 . S
H673 C687 0.929 . S
H674 C688 0.931 . S
H675 C690 0.926 1_455 S
C676 H664 0.930 . S
C676 C677 1.399 . S
C676 C681 1.399 . S
C677 C676 1.399 . S
C677 C678 1.376 1_455 S
C678 H665 0.930 . S
C678 C677 1.376 1_655 S
C678 C679 1.388 . S
C679 H666 0.930 . S
C679 C678 1.388 . S
C679 C680 1.390 . S
C680 C679 1.390 . S
C680 C681 1.394 1_655 S
C680 C686 1.465 . S
C681 C676 1.399 . S
C681 C680 1.394 1_455 S
C681 C682 1.516 . S
C682 C681 1.516 . S
C682 C683 1.502 . S
C682 C684 1.561 . S
C682 C685 1.526 1_455 S
C683 H667 0.959 1_455 S
C683 H668 0.959 . S
C683 H669 0.961 . S
C683 C682 1.502 . S
C684 H670 0.960 . S
C684 H671 0.961 . S
C684 H672 0.959 . S
C684 C682 1.561 . S
C685 C682 1.526 1_655 S
C685 C686 1.396 . S
C685 C690 1.390 . S
C686 C680 1.465 . S
C686 C685 1.396 . S
C686 C687 1.399 . S
C687 H673 0.929 . S
C687 C686 1.399 . S
C687 C688 1.385 . S
C688 H674 0.931 . S
C688 C687 1.385 . S
C688 C689 1.389 . S
C689 C688 1.389 . S
C689 C690 1.387 . S
C690 H675 0.926 1_655 S
C690 C685 1.390 . S
C690 C689 1.387 . S
H691 C703 0.930 . S
H692 C705 0.930 . S
H693 C706 0.930 . S
H694 C710 0.959 . S
H695 C710 0.959 . S
H696 C710 0.961 . S
H697 C711 0.960 . S
H698 C711 0.961 . S
H699 C711 0.959 . S
H700 C714 0.929 . S
H701 C715 0.931 . S
H702 C717 0.930 1_545 S
C703 H691 0.930 . S
C703 C704 1.382 1_545 S
C703 C708 1.399 . S
C704 C703 1.382 1_565 S
C704 C705 1.402 . S
C705 H692 0.930 . S
C705 C704 1.402 . S
C705 C706 1.388 . S
C706 H693 0.930 . S
C706 C705 1.388 . S
C706 C707 1.390 . S
C707 C706 1.390 . S
C707 C708 1.394 1_565 S
C707 C713 1.465 . S
C708 C703 1.399 . S
C708 C707 1.394 1_545 S
C708 C709 1.516 . S
C709 C708 1.516 . S
C709 C710 1.502 . S
C709 C711 1.561 . S
C709 C712 1.526 1_545 S
C710 H694 0.959 . S
C710 H695 0.959 . S
C710 H696 0.961 . S
C710 C709 1.502 . S
C711 H697 0.960 . S
C711 H698 0.961 . S
C711 H699 0.959 . S
C711 C709 1.561 . S
C712 C709 1.526 1_565 S
C712 C713 1.396 . S
C712 C717 1.390 . S
C713 C707 1.465 . S
C713 C712 1.396 . S
C713 C714 1.399 . S
C714 H700 0.929 . S
C714 C713 1.399 . S
C714 C715 1.385 . S
C715 H701 0.931 . S
C715 C714 1.385 . S
C715 C716 1.389 . S
C716 C715 1.389 . S
C716 C717 1.387 . S
C717 H702 0.930 1_565 S
C717 C712 1.390 . S
C717 C716 1.387 . S
H718 C730 0.930 . S
H719 C732 0.930 . S
H720 C733 0.930 . S
H721 C737 0.959 . S
H722 C737 0.959 . S
H723 C737 0.961 . S
H724 C738 0.960 . S
H725 C738 0.961 . S
H726 C738 0.959 . S
H727 C741 0.929 . S
H728 C742 0.931 . S
H729 C744 0.930 . S
C730 H718 0.930 . S
C730 C731 1.399 . S
C730 C735 1.399 . S
C731 C730 1.399 . S
C731 C732 1.376 . S
C732 H719 0.930 . S
C732 C731 1.376 . S
C732 C733 1.388 . S
C733 H720 0.930 . S
C733 C732 1.388 . S
C733 C734 1.390 . S
C734 C733 1.390 . S
C734 C735 1.394 . S
C734 C740 1.465 . S
C735 C730 1.399 . S
C735 C734 1.394 . S
C735 C736 1.516 . S
C736 C735 1.516 . S
C736 C737 1.502 . S
C736 C738 1.561 . S
C736 C739 1.526 . S
C737 H721 0.959 . S
C737 H722 0.959 . S
C737 H723 0.961 . S
C737 C736 1.502 . S
C738 H724 0.960 . S
C738 H725 0.961 . S
C738 H726 0.959 . S
C738 C736 1.561 . S
C739 C736 1.526 . S
C739 C740 1.396 . S
C739 C744 1.390 . S
C740 C734 1.465 . S
C740 C739 1.396 . S
C740 C741 1.399 . S
C741 H727 0.929 . S
C741 C740 1.399 . S
C741 C742 1.385 . S
C742 H728 0.931 . S
C742 C741 1.385 . S
C742 C743 1.389 . S
C743 C742 1.389 . S
C743 C744 1.387 . S
C744 H729 0.930 . S
C744 C739 1.390 . S
C744 C743 1.387 . S
H745 C757 0.930 . S
H746 C759 0.930 . S
H747 C760 0.930 . S
H748 C764 0.959 . S
H749 C764 0.959 . S
H750 C764 0.961 . S
H751 C765 0.960 . S
H752 C765 0.961 . S
H753 C765 0.959 . S
H754 C768 0.929 . S
H755 C769 0.931 . S
H756 C771 0.930 . S
C757 H745 0.930 . S
C757 C758 1.399 . S
C757 C762 1.399 . S
C758 C757 1.399 . S
C758 C759 1.376 . S
C759 H746 0.930 . S
C759 C758 1.376 . S
C759 C760 1.388 . S
C760 H747 0.930 . S
C760 C759 1.388 . S
C760 C761 1.390 . S
C761 C760 1.390 . S
C761 C762 1.394 . S
C761 C767 1.465 . S
C762 C757 1.399 . S
C762 C761 1.394 . S
C762 C763 1.516 . S
C763 C762 1.516 . S
C763 C764 1.502 . S
C763 C765 1.561 . S
C763 C766 1.526 . S
C764 H748 0.959 . S
C764 H749 0.959 . S
C764 H750 0.961 . S
C764 C763 1.502 . S
C765 H751 0.960 . S
C765 H752 0.961 . S
C765 H753 0.959 . S
C765 C763 1.561 . S
C766 C763 1.526 . S
C766 C767 1.396 . S
C766 C771 1.390 . S
C767 C761 1.465 . S
C767 C766 1.396 . S
C767 C768 1.399 . S
C768 H754 0.929 . S
C768 C767 1.399 . S
C768 C769 1.385 . S
C769 H755 0.931 . S
C769 C768 1.385 . S
C769 C770 1.389 . S
C770 C769 1.389 . S
C770 C771 1.387 . S
C771 H756 0.930 . S
C771 C766 1.390 . S
C771 C770 1.387 . S
H772 C784 0.930 . S
H773 C786 0.930 . S
H774 C787 0.930 . S
H775 C791 0.959 . S
H776 C791 0.959 1_556 S
H777 C791 0.961 . S
H778 C792 0.960 . S
H779 C792 0.961 . S
H780 C792 0.959 . S
H781 C795 0.929 . S
H782 C796 0.931 . S
H783 C798 0.930 . S
C784 H772 0.930 . S
C784 C785 1.399 1_455 S
C784 C789 1.399 . S
C785 C784 1.399 1_655 S
C785 C786 1.376 . S
C786 H773 0.930 . S
C786 C785 1.376 . S
C786 C787 1.388 . S
C787 H774 0.930 . S
C787 C786 1.388 . S
C787 C788 1.390 . S
C788 C787 1.390 . S
C788 C789 1.394 1_655 S
C788 C794 1.465 1_655 S
C789 C784 1.399 . S
C789 C788 1.394 1_455 S
C789 C790 1.516 . S
C790 C789 1.516 . S
C790 C791 1.502 . S
C790 C792 1.561 1_554 S
C790 C793 1.526 . S
C791 H775 0.959 . S
C791 H776 0.959 1_554 S
C791 H777 0.961 . S
C791 C790 1.502 . S
C792 H778 0.960 . S
C792 H779 0.961 . S
C792 H780 0.959 . S
C792 C790 1.561 1_556 S
C793 C790 1.526 . S
C793 C794 1.396 . S
C793 C798 1.390 1_554 S
C794 C788 1.465 1_455 S
C794 C793 1.396 . S
C794 C795 1.399 1_455 S
C795 H781 0.929 . S
C795 C794 1.399 1_655 S
C795 C796 1.385 1_655 S
C796 H782 0.931 . S
C796 C795 1.385 1_455 S
C796 C797 1.389 1_554 S
C797 C796 1.389 1_556 S
C797 C798 1.387 . S
C798 H783 0.930 . S
C798 C793 1.390 1_556 S
C798 C797 1.387 . S
H799 C811 0.930 1_556 S
H800 C813 0.930 . S
H801 C814 0.930 . S
H802 C818 0.959 . S
H803 C818 0.959 . S
H804 C818 0.961 . S
H805 C819 0.960 . S
H806 C819 0.961 . S
H807 C819 0.959 1_565 S
H808 C822 0.929 1_565 S
H809 C823 0.931 . S
H810 C825 0.930 . S
C811 H799 0.930 1_554 S
C811 C812 1.399 1_545 S
C811 C816 1.399 . S
C812 C811 1.399 1_565 S
C812 C813 1.376 . S
C813 H800 0.930 . S
C813 C812 1.376 . S
C813 C814 1.388 . S
C814 H801 0.930 . S
C814 C813 1.388 . S
C814 C815 1.390 1_565 S
C815 C814 1.390 1_545 S
C815 C816 1.394 . S
C815 C821 1.465 . S
C816 C811 1.399 . S
C816 C815 1.394 . S
C816 C817 1.516 1_554 S
C817 C816 1.516 1_556 S
C817 C818 1.502 . S
C817 C819 1.561 . S
C817 C820 1.526 . S
C818 H802 0.959 . S
C818 H803 0.959 . S
C818 H804 0.961 . S
C818 C817 1.502 . S
C819 H805 0.960 . S
C819 H806 0.961 . S
C819 H807 0.959 1_545 S
C819 C817 1.561 . S
C820 C817 1.526 . S
C820 C821 1.396 1_556 S
C820 C825 1.390 . S
C821 C815 1.465 . S
C821 C820 1.396 1_554 S
C821 C822 1.399 . S
C822 H808 0.929 1_545 S
C822 C821 1.399 . S
C822 C823 1.385 . S
C823 H809 0.931 . S
C823 C822 1.385 . S
C823 C824 1.389 1_554 S
C824 C823 1.389 1_556 S
C824 C825 1.387 . S
C825 H810 0.930 . S
C825 C820 1.390 . S
C825 C824 1.387 . S
H826 C838 0.930 . S
H827 C840 0.930 . S
H828 C841 0.930 . S
H829 C845 0.959 . S
H830 C845 0.959 . S
H831 C845 0.961 . S
H832 C846 0.960 . S
H833 C846 0.961 . S
H834 C846 0.959 . S
H835 C849 0.929 . S
H836 C850 0.931 . S
H837 C852 0.930 . S
C838 H826 0.930 . S
C838 C839 1.399 . S
C838 C843 1.399 . S
C839 C838 1.399 . S
C839 C840 1.376 . S
C840 H827 0.930 . S
C840 C839 1.376 . S
C840 C841 1.388 . S
C841 H828 0.930 . S
C841 C840 1.388 . S
C841 C842 1.390 . S
C842 C841 1.390 . S
C842 C843 1.394 . S
C842 C848 1.465 . S
C843 C838 1.399 . S
C843 C842 1.394 . S
C843 C844 1.516 . S
C844 C843 1.516 . S
C844 C845 1.502 . S
C844 C846 1.561 . S
C844 C847 1.526 . S
C845 H829 0.959 . S
C845 H830 0.959 . S
C845 H831 0.961 . S
C845 C844 1.502 . S
C846 H832 0.960 . S
C846 H833 0.961 . S
C846 H834 0.959 . S
C846 C844 1.561 . S
C847 C844 1.526 . S
C847 C848 1.396 . S
C847 C852 1.390 . S
C848 C842 1.465 . S
C848 C847 1.396 . S
C848 C849 1.399 . S
C849 H835 0.929 . S
C849 C848 1.399 . S
C849 C850 1.385 . S
C850 H836 0.931 . S
C850 C849 1.385 . S
C850 C851 1.389 . S
C851 C850 1.389 . S
C851 C852 1.387 . S
C852 H837 0.930 . S
C852 C847 1.390 . S
C852 C851 1.387 . S
H853 C865 0.930 . S
H854 C867 0.930 . S
H855 C868 0.930 . S
H856 C872 0.959 . S
H857 C872 0.959 . S
H858 C872 0.961 . S
H859 C873 0.960 . S
H860 C873 0.961 . S
H861 C873 0.959 . S
H862 C876 0.929 . S
H863 C877 0.931 1_556 S
H864 C879 0.930 . S
C865 H853 0.930 . S
C865 C866 1.399 . S
C865 C870 1.399 . S
C866 C865 1.399 . S
C866 C867 1.376 . S
C867 H854 0.930 . S
C867 C866 1.376 . S
C867 C868 1.388 . S
C868 H855 0.930 . S
C868 C867 1.388 . S
C868 C869 1.390 . S
C869 C868 1.390 . S
C869 C870 1.394 . S
C869 C875 1.465 . S
C870 C865 1.399 . S
C870 C869 1.394 . S
C870 C871 1.516 . S
C871 C870 1.516 . S
C871 C872 1.502 . S
C871 C873 1.561 . S
C871 C874 1.526 . S
C872 H856 0.959 . S
C872 H857 0.959 . S
C872 H858 0.961 . S
C872 C871 1.502 . S
C873 H859 0.960 . S
C873 H860 0.961 . S
C873 H861 0.959 . S
C873 C871 1.561 . S
C874 C871 1.526 . S
C874 C875 1.396 . S
C874 C879 1.390 . S
C875 C869 1.465 . S
C875 C874 1.396 . S
C875 C876 1.399 . S
C876 H862 0.929 . S
C876 C875 1.399 . S
C876 C877 1.385 . S
C877 H863 0.931 1_554 S
C877 C876 1.385 . S
C877 C878 1.389 . S
C878 C877 1.389 . S
C878 C879 1.387 . S
C879 H864 0.930 . S
C879 C874 1.390 . S
C879 C878 1.387 . S
H880 C892 0.930 . S
H881 C894 0.930 . S
H882 C895 0.930 . S
H883 C899 0.959 . S
H884 C899 0.959 . S
H885 C899 0.961 . S
H886 C900 0.960 . S
H887 C900 0.961 . S
H888 C900 0.959 1_655 S
H889 C903 0.929 . S
H890 C904 0.931 . S
H891 C906 0.930 . S
C892 H880 0.930 . S
C892 C893 1.399 . S
C892 C897 1.399 . S
C893 C892 1.399 . S
C893 C894 1.376 1_455 S
C894 H881 0.930 . S
C894 C893 1.376 1_655 S
C894 C895 1.388 . S
C895 H882 0.930 . S
C895 C894 1.388 . S
C895 C896 1.390 1_655 S
C896 C895 1.390 1_455 S
C896 C897 1.394 . S
C896 C902 1.465 . S
C897 C892 1.399 . S
C897 C896 1.394 . S
C897 C898 1.516 . S
C898 C897 1.516 . S
C898 C899 1.502 . S
C898 C900 1.561 . S
C898 C901 1.526 . S
C899 H883 0.959 . S
C899 H884 0.959 . S
C899 H885 0.961 . S
C899 C898 1.502 . S
C900 H886 0.960 . S
C900 H887 0.961 . S
C900 H888 0.959 1_455 S
C900 C898 1.561 . S
C901 C898 1.526 . S
C901 C902 1.396 . S
C901 C906 1.390 . S
C902 C896 1.465 . S
C902 C901 1.396 . S
C902 C903 1.399 1_455 S
C903 H889 0.929 . S
C903 C902 1.399 1_655 S
C903 C904 1.385 . S
C904 H890 0.931 . S
C904 C903 1.385 . S
C904 C905 1.389 1_655 S
C905 C904 1.389 1_455 S
C905 C906 1.387 . S
C906 H891 0.930 . S
C906 C901 1.390 . S
C906 C905 1.387 . S
H907 C919 0.930 . S
H908 C921 0.930 . S
H909 C922 0.930 . S
H910 C926 0.959 . S
H911 C926 0.959 . S
H912 C926 0.961 . S
H913 C927 0.960 . S
H914 C927 0.961 . S
H915 C927 0.959 . S
H916 C930 0.929 . S
H917 C931 0.931 . S
H918 C933 0.930 . S
C919 H907 0.930 . S
C919 C920 1.366 1_545 S
C919 C924 1.399 . S
C920 C919 1.366 1_565 S
C920 C921 1.412 . S
C921 H908 0.930 . S
C921 C920 1.412 . S
C921 C922 1.388 . S
C922 H909 0.930 . S
C922 C921 1.388 . S
C922 C923 1.390 . S
C923 C922 1.390 . S
C923 C924 1.394 1_565 S
C923 C929 1.465 . S
C924 C919 1.399 . S
C924 C923 1.394 1_545 S
C924 C925 1.516 . S
C925 C924 1.516 . S
C925 C926 1.502 . S
C925 C927 1.561 . S
C925 C928 1.526 . S
C926 H910 0.959 . S
C926 H911 0.959 . S
C926 H912 0.961 . S
C926 C925 1.502 . S
C927 H913 0.960 . S
C927 H914 0.961 . S
C927 H915 0.959 . S
C927 C925 1.561 . S
C928 C925 1.526 . S
C928 C929 1.396 1_545 S
C928 C933 1.390 . S
C929 C923 1.465 . S
C929 C928 1.396 1_565 S
C929 C930 1.399 . S
C930 H916 0.929 . S
C930 C929 1.399 . S
C930 C931 1.385 . S
C931 H917 0.931 . S
C931 C930 1.385 . S
C931 C932 1.389 1_565 S
C932 C931 1.389 1_545 S
C932 C933 1.387 . S
C933 H918 0.930 . S
C933 C928 1.390 . S
C933 C932 1.387 . S
H934 C946 0.930 . S
H935 C948 0.930 . S
H936 C949 0.930 . S
H937 C953 0.959 . S
H938 C953 0.959 . S
H939 C953 0.961 . S
H940 C954 0.960 . S
H941 C954 0.961 . S
H942 C954 0.959 . S
H943 C957 0.929 . S
H944 C958 0.931 . S
H945 C960 0.930 . S
C946 H934 0.930 . S
C946 C947 1.399 . S
C946 C951 1.399 1_554 S
C947 C946 1.399 . S
C947 C948 1.376 . S
C948 H935 0.930 . S
C948 C947 1.376 . S
C948 C949 1.388 1_554 S
C949 H936 0.930 . S
C949 C948 1.388 1_556 S
C949 C950 1.390 . S
C950 C949 1.390 . S
C950 C951 1.394 . S
C950 C956 1.465 . S
C951 C946 1.399 1_556 S
C951 C950 1.394 . S
C951 C952 1.516 . S
C952 C951 1.516 . S
C952 C953 1.502 . S
C952 C954 1.561 1_556 S
C952 C955 1.526 . S
C953 H937 0.959 . S
C953 H938 0.959 . S
C953 H939 0.961 . S
C953 C952 1.502 . S
C954 H940 0.960 . S
C954 H941 0.961 . S
C954 H942 0.959 . S
C954 C952 1.561 1_554 S
C955 C952 1.526 . S
C955 C956 1.396 . S
C955 C960 1.390 . S
C956 C950 1.465 . S
C956 C955 1.396 . S
C956 C957 1.399 . S
C957 H943 0.929 . S
C957 C956 1.399 . S
C957 C958 1.385 . S
C958 H944 0.931 . S
C958 C957 1.385 . S
C958 C959 1.389 . S
C959 C958 1.389 . S
C959 C960 1.387 . S
C960 H945 0.930 . S
C960 C955 1.390 . S
C960 C959 1.387 . S
H961 C973 0.930 . S
H962 C975 0.930 . S
H963 C976 0.930 . S
H964 C980 0.959 . S
H965 C980 0.959 . S
H966 C980 0.961 . S
H967 C981 0.960 . S
H968 C981 0.961 . S
H969 C981 0.959 . S
H970 C984 0.929 . S
H971 C985 0.931 . S
H972 C987 0.930 . S
C973 H961 0.930 . S
C973 C974 1.399 . S
C973 C978 1.399 . S
C974 C973 1.399 . S
C974 C975 1.376 . S
C975 H962 0.930 . S
C975 C974 1.376 . S
C975 C976 1.388 . S
C976 H963 0.930 . S
C976 C975 1.388 . S
C976 C977 1.390 . S
C977 C976 1.390 . S
C977 C978 1.394 . S
C977 C983 1.465 . S
C978 C973 1.399 . S
C978 C977 1.394 . S
C978 C979 1.516 . S
C979 C978 1.516 . S
C979 C980 1.502 . S
C979 C981 1.561 . S
C979 C982 1.526 . S
C980 H964 0.959 . S
C980 H965 0.959 . S
C980 H966 0.961 . S
C980 C979 1.502 . S
C981 H967 0.960 . S
C981 H968 0.961 . S
C981 H969 0.959 . S
C981 C979 1.561 . S
C982 C979 1.526 . S
C982 C983 1.396 . S
C982 C987 1.390 . S
C983 C977 1.465 . S
C983 C982 1.396 . S
C983 C984 1.399 . S
C984 H970 0.929 . S
C984 C983 1.399 . S
C984 C985 1.385 . S
C985 H971 0.931 . S
C985 C984 1.385 . S
C985 C986 1.389 . S
C986 C985 1.389 . S
C986 C987 1.387 . S
C987 H972 0.930 . S
C987 C982 1.390 . S
C987 C986 1.387 . S
H988 C1000 0.930 . S
H989 C1002 0.930 . S
H990 C1003 0.930 . S
H991 C1007 0.959 . S
H992 C1007 0.959 . S
H993 C1007 0.961 . S
H994 C1008 0.960 . S
H995 C1008 0.961 . S
H996 C1008 0.959 1_455 S
H997 C1011 0.929 . S
H998 C1012 0.931 . S
H999 C1014 0.930 . S
C1000 H988 0.930 . S
C1000 C1001 1.399 . S
C1000 C1005 1.399 . S
C1001 C1000 1.399 . S
C1001 C1002 1.376 1_655 S
C1002 H989 0.930 . S
C1002 C1001 1.376 1_455 S
C1002 C1003 1.388 . S
C1003 H990 0.930 . S
C1003 C1002 1.388 . S
C1003 C1004 1.406 . S
C1004 C1003 1.406 . S
C1004 C1005 1.368 1_455 S
C1004 C1010 1.468 . S
C1005 C1000 1.399 . S
C1005 C1004 1.368 1_655 S
C1005 C1006 1.516 . S
C1006 C1005 1.516 . S
C1006 C1007 1.502 . S
C1006 C1008 1.561 . S
C1006 C1009 1.526 . S
C1007 H991 0.959 . S
C1007 H992 0.959 . S
C1007 H993 0.961 . S
C1007 C1006 1.502 . S
C1008 H994 0.960 . S
C1008 H995 0.961 . S
C1008 H996 0.959 1_655 S
C1008 C1006 1.561 . S
C1009 C1006 1.526 . S
C1009 C1010 1.385 1_655 S
C1009 C1014 1.390 . S
C1010 C1004 1.468 . S
C1010 C1009 1.385 1_455 S
C1010 C1011 1.411 . S
C1011 H997 0.929 . S
C1011 C1010 1.411 . S
C1011 C1012 1.385 . S
C1012 H998 0.931 . S
C1012 C1011 1.385 . S
C1012 C1013 1.389 1_455 S
C1013 C1012 1.389 1_655 S
C1013 C1014 1.387 . S
C1014 H999 0.930 . S
C1014 C1009 1.390 . S
C1014 C1013 1.387 . S
H1015 C1027 0.930 . S
H1016 C1029 0.930 . S
H1017 C1030 0.930 . S
H1018 C1034 0.959 . S
H1019 C1034 0.959 . S
H1020 C1034 0.961 . S
H1021 C1035 0.960 . S
H1022 C1035 0.961 . S
H1023 C1035 0.959 . S
H1024 C1038 0.929 . S
H1025 C1039 0.931 . S
H1026 C1041 0.930 . S
C1027 H1015 0.930 . S
C1027 C1028 1.399 . S
C1027 C1032 1.399 . S
C1028 C1027 1.399 . S
C1028 C1029 1.377 1_565 S
C1029 H1016 0.930 . S
C1029 C1028 1.377 1_545 S
C1029 C1030 1.388 . S
C1030 H1017 0.930 . S
C1030 C1029 1.388 . S
C1030 C1031 1.401 . S
C1031 C1030 1.401 . S
C1031 C1032 1.388 1_545 S
C1031 C1037 1.454 1_545 S
C1032 C1027 1.399 . S
C1032 C1031 1.388 1_565 S
C1032 C1033 1.516 . S
C1033 C1032 1.516 . S
C1033 C1034 1.502 . S
C1033 C1035 1.561 1_565 S
C1033 C1036 1.526 . S
C1034 H1018 0.959 . S
C1034 H1019 0.959 . S
C1034 H1020 0.961 . S
C1034 C1033 1.502 . S
C1035 H1021 0.960 . S
C1035 H1022 0.961 . S
C1035 H1023 0.959 . S
C1035 C1033 1.561 1_545 S
C1036 C1033 1.526 . S
C1036 C1037 1.405 . S
C1036 C1041 1.390 . S
C1037 C1031 1.454 1_565 S
C1037 C1036 1.405 . S
C1037 C1038 1.398 1_565 S
C1038 H1024 0.929 . S
C1038 C1037 1.398 1_545 S
C1038 C1039 1.385 1_545 S
C1039 H1025 0.931 . S
C1039 C1038 1.385 1_565 S
C1039 C1040 1.389 . S
C1040 C1039 1.389 . S
C1040 C1041 1.387 . S
C1041 H1026 0.930 . S
C1041 C1036 1.390 . S
C1041 C1040 1.387 . S
H1042 C1054 0.930 . S
H1043 C1056 0.930 . S
H1044 C1057 0.930 . S
H1045 C1061 0.959 . S
H1046 C1061 0.959 . S
H1047 C1061 0.961 . S
H1048 C1062 0.960 . S
H1049 C1062 0.961 . S
H1050 C1062 0.959 . S
H1051 C1065 0.929 . S
H1052 C1066 0.931 . S
H1053 C1068 0.930 . S
C1054 H1042 0.930 . S
C1054 C1055 1.399 . S
C1054 C1059 1.399 . S
C1055 C1054 1.399 . S
C1055 C1056 1.376 . S
C1056 H1043 0.930 . S
C1056 C1055 1.376 . S
C1056 C1057 1.388 . S
C1057 H1044 0.930 . S
C1057 C1056 1.388 . S
C1057 C1058 1.390 . S
C1058 C1057 1.390 . S
C1058 C1059 1.394 . S
C1058 C1064 1.465 . S
C1059 C1054 1.399 . S
C1059 C1058 1.394 . S
C1059 C1060 1.516 . S
C1060 C1059 1.516 . S
C1060 C1061 1.502 . S
C1060 C1062 1.561 . S
C1060 C1063 1.526 . S
C1061 H1045 0.959 . S
C1061 H1046 0.959 . S
C1061 H1047 0.961 . S
C1061 C1060 1.502 . S
C1062 H1048 0.960 . S
C1062 H1049 0.961 . S
C1062 H1050 0.959 . S
C1062 C1060 1.561 . S
C1063 C1060 1.526 . S
C1063 C1064 1.396 . S
C1063 C1068 1.390 . S
C1064 C1058 1.465 . S
C1064 C1063 1.396 . S
C1064 C1065 1.399 . S
C1065 H1051 0.929 . S
C1065 C1064 1.399 . S
C1065 C1066 1.385 . S
C1066 H1052 0.931 . S
C1066 C1065 1.385 . S
C1066 C1067 1.389 . S
C1067 C1066 1.389 . S
C1067 C1068 1.387 . S
C1068 H1053 0.930 . S
C1068 C1063 1.390 . S
C1068 C1067 1.387 . S
H1069 C1081 0.930 . S
H1070 C1083 0.930 . S
H1071 C1084 0.930 . S
H1072 C1088 0.959 . S
H1073 C1088 0.959 . S
H1074 C1088 0.961 . S
H1075 C1089 0.960 . S
H1076 C1089 0.961 . S
H1077 C1089 0.959 . S
H1078 C1092 0.929 . S
H1079 C1093 0.931 . S
H1080 C1095 0.930 . S
C1081 H1069 0.930 . S
C1081 C1082 1.399 . S
C1081 C1086 1.399 . S
C1082 C1081 1.399 . S
C1082 C1083 1.376 . S
C1083 H1070 0.930 . S
C1083 C1082 1.376 . S
C1083 C1084 1.388 . S
C1084 H1071 0.930 . S
C1084 C1083 1.388 . S
C1084 C1085 1.390 . S
C1085 C1084 1.390 . S
C1085 C1086 1.394 . S
C1085 C1091 1.465 . S
C1086 C1081 1.399 . S
C1086 C1085 1.394 . S
C1086 C1087 1.516 . S
C1087 C1086 1.516 . S
C1087 C1088 1.502 . S
C1087 C1089 1.561 . S
C1087 C1090 1.526 . S
C1088 H1072 0.959 . S
C1088 H1073 0.959 . S
C1088 H1074 0.961 . S
C1088 C1087 1.502 . S
C1089 H1075 0.960 . S
C1089 H1076 0.961 . S
C1089 H1077 0.959 . S
C1089 C1087 1.561 . S
C1090 C1087 1.526 . S
C1090 C1091 1.396 . S
C1090 C1095 1.390 . S
C1091 C1085 1.465 . S
C1091 C1090 1.396 . S
C1091 C1092 1.399 . S
C1092 H1078 0.929 . S
C1092 C1091 1.399 . S
C1092 C1093 1.385 . S
C1093 H1079 0.931 . S
C1093 C1092 1.385 . S
C1093 C1094 1.389 . S
C1094 C1093 1.389 . S
C1094 C1095 1.387 . S
C1095 H1080 0.930 . S
C1095 C1090 1.390 . S
C1095 C1094 1.387 . S
C461 C241 2.028 1_565 S
C473 C290 2.110 . S
C500 C330 2.154 . S
C488 C277 2.083 . S
C527 C394 2.483 . S
C515 C169 2.403 . S
C554 C410 2.178 . S
C542 C205 1.885 . S
C581 C311 2.116 . S
C569 C97 1.965 . S
C596 C133 2.119 . S
C608 C351 2.158 . S
C623 C25 2.375 . S
C635 C385 2.473 1_554 S
C650 C61 1.877 . S
C662 C431 2.194 1_655 S
C689 C305 0.488 . S
C677 C211 0.385 . S
C716 C345 0.621 . S
C704 C247 0.618 1_565 S
C743 C381 0.675 . S
C731 C253 0.389 . S
C758 C175 0.620 . S
C770 C425 0.672 . S
C785 C67 0.494 . S
C797 C314 0.323 . S
C824 C354 0.549 . S
C812 C103 0.583 1_565 S
C851 C392 0.610 . S
C839 C109 0.376 . S
C866 C31 0.777 . S
C878 C434 0.566 . S
C893 C181 2.642 . S
C905 C312 2.903 . S
C920 C217 2.447 1_565 S
C932 C352 2.693 . S
C959 C370 1.974 . S
C947 C283 1.839 . S
C986 C432 3.309 . S
C974 C145 2.966 . S
C1001 C37 2.595 . S
C1013 C301 2.928 . S
C1040 C341 2.712 . S
C1028 C73 2.413 1_565 S
C1067 C391 1.977 . S
C1055 C139 1.913 . S
C1082 C1 2.963 . S
C1094 C421 3.309 . S
