# Generated by pormake.
# Topology pyr, (3,6)-cn, num edge types: 1
# Building blocks:
#     Node 0, Type 0, BuildingBlock: CUQRIR_clean_linker_1, # of connection points: 3
#     Node 1, Type 0, BuildingBlock: CUQRIR_clean_linker_1, # of connection points: 3
#     Node 2, Type 0, BuildingBlock: CUQRIR_clean_linker_1, # of connection points: 3
#     Node 3, Type 0, BuildingBlock: CUQRIR_clean_linker_1, # of connection points: 3
#     Node 4, Type 0, BuildingBlock: CUQRIR_clean_linker_1, # of connection points: 3
#     Node 5, Type 0, BuildingBlock: CUQRIR_clean_linker_1, # of connection points: 3
#     Node 6, Type 0, BuildingBlock: CUQRIR_clean_linker_1, # of connection points: 3
#     Node 7, Type 0, BuildingBlock: CUQRIR_clean_linker_1, # of connection points: 3
#     Node 8, Type 1, BuildingBlock: BETDEL_clean_sbu_0, # of connection points: 6
#     Node 9, Type 1, BuildingBlock: BETDEL_clean_sbu_0, # of connection points: 6
#     Node 10, Type 1, BuildingBlock: BETDEL_clean_sbu_0, # of connection points: 6
#     Node 11, Type 1, BuildingBlock: BETDEL_clean_sbu_0, # of connection points: 6
#     Edge 12, Type (0, 1), BuildingBlock: UVAHIK_clean_linker_0, # of connection points: 2
#     Edge 13, Type (0, 1), BuildingBlock: UVAHIK_clean_linker_0, # of connection points: 2
#     Edge 14, Type (0, 1), BuildingBlock: UVAHIK_clean_linker_0, # of connection points: 2
#     Edge 15, Type (0, 1), BuildingBlock: UVAHIK_clean_linker_0, # of connection points: 2
#     Edge 16, Type (0, 1), BuildingBlock: UVAHIK_clean_linker_0, # of connection points: 2
#     Edge 17, Type (0, 1), BuildingBlock: UVAHIK_clean_linker_0, # of connection points: 2
#     Edge 18, Type (0, 1), BuildingBlock: UVAHIK_clean_linker_0, # of connection points: 2
#     Edge 19, Type (0, 1), BuildingBlock: UVAHIK_clean_linker_0, # of connection points: 2
#     Edge 20, Type (0, 1), BuildingBlock: UVAHIK_clean_linker_0, # of connection points: 2
#     Edge 21, Type (0, 1), BuildingBlock: UVAHIK_clean_linker_0, # of connection points: 2
#     Edge 22, Type (0, 1), BuildingBlock: UVAHIK_clean_linker_0, # of connection points: 2
#     Edge 23, Type (0, 1), BuildingBlock: UVAHIK_clean_linker_0, # of connection points: 2
#     Edge 24, Type (0, 1), BuildingBlock: UVAHIK_clean_linker_0, # of connection points: 2
#     Edge 25, Type (0, 1), BuildingBlock: UVAHIK_clean_linker_0, # of connection points: 2
#     Edge 26, Type (0, 1), BuildingBlock: UVAHIK_clean_linker_0, # of connection points: 2
#     Edge 27, Type (0, 1), BuildingBlock: UVAHIK_clean_linker_0, # of connection points: 2
#     Edge 28, Type (0, 1), BuildingBlock: UVAHIK_clean_linker_0, # of connection points: 2
#     Edge 29, Type (0, 1), BuildingBlock: UVAHIK_clean_linker_0, # of connection points: 2
#     Edge 30, Type (0, 1), BuildingBlock: UVAHIK_clean_linker_0, # of connection points: 2
#     Edge 31, Type (0, 1), BuildingBlock: UVAHIK_clean_linker_0, # of connection points: 2
#     Edge 32, Type (0, 1), BuildingBlock: UVAHIK_clean_linker_0, # of connection points: 2
#     Edge 33, Type (0, 1), BuildingBlock: UVAHIK_clean_linker_0, # of connection points: 2
#     Edge 34, Type (0, 1), BuildingBlock: UVAHIK_clean_linker_0, # of connection points: 2
#     Edge 35, Type (0, 1), BuildingBlock: UVAHIK_clean_linker_0, # of connection points: 2
# Relax obj value: 0.094
# Max RMSD: 0.226
# Mean RMSD: 0.154
data_MOF--net-pyr--node1-BETDEL_clean_sbu_0--node2-CUQRIR_clean_linker_1--edge1-UVAHIK_clean_linker_0
_symmetry_space_group_name_H-M    P1
_symmetry_Int_Tables_number       1
_symmetry_cell_setting            triclinic
loop_
_symmetry_equiv_pos_as_xyz
'x, y, z'
_cell_length_a     44.899621
_cell_length_b     46.719604
_cell_length_c     42.077984
_cell_angle_alpha  90.309097
_cell_angle_beta   90.988196
_cell_angle_gamma 98.271742
loop_
_atom_site_label
_atom_site_type_symbol
_atom_site_fract_x
_atom_site_fract_y
_atom_site_fract_z
_atom_type_partial_charge
C0 C 0.20599 0.25485 0.1613 0.0
N1 N 0.22111 0.23269 0.16872 0.0
N2 N 0.21547 0.26671 0.13332 0.0
C3 C 0.17968 0.26282 0.17946 0.0
C4 C 0.23648 0.25069 0.12367 0.0
N5 N 0.23986 0.22995 0.1452 0.0
C6 C 0.2542 0.25586 0.09376 0.0
H7 H 0.16394 0.27265 0.16371 0.0
H8 H 0.18824 0.27876 0.19829 0.0
H9 H 0.16707 0.24358 0.19096 0.0
H10 H 0.27731 0.25052 0.0973 0.0
H11 H 0.25538 0.27868 0.0861 0.0
H12 H 0.24289 0.24166 0.0746 0.0
C13 C 0.29039 0.83062 0.65324 0.0
N14 N 0.28573 0.85404 0.67067 0.0
N15 N 0.31568 0.82048 0.66336 0.0
C16 C 0.27182 0.81926 0.62454 0.0
C17 C 0.32637 0.83868 0.68739 0.0
N18 N 0.30841 0.85925 0.69159 0.0
C19 C 0.35337 0.83538 0.70802 0.0
H20 H 0.25257 0.80344 0.63239 0.0
H21 H 0.2853 0.80824 0.60775 0.0
H22 H 0.26275 0.83703 0.61193 0.0
H23 H 0.35762 0.81257 0.70843 0.0
H24 H 0.35025 0.8427 0.73271 0.0
H25 H 0.37343 0.84899 0.69837 0.0
C26 C 0.61865 0.33826 0.84825 0.0
N27 N 0.63586 0.33533 0.87451 0.0
N28 N 0.6296 0.36241 0.83223 0.0
C29 C 0.59065 0.31817 0.83875 0.0
C30 C 0.65403 0.37405 0.84949 0.0
N31 N 0.65799 0.35751 0.87502 0.0
C32 C 0.67351 0.40203 0.8419 0.0
H33 H 0.5871 0.31788 0.81261 0.0
H34 H 0.57095 0.32589 0.84976 0.0
H35 H 0.5919 0.29586 0.84706 0.0
H36 H 0.66507 0.41989 0.85488 0.0
H37 H 0.67272 0.40655 0.81606 0.0
H38 H 0.69715 0.40145 0.84969 0.0
C39 C 0.82954 0.67283 0.32097 0.0
N40 N 0.85495 0.69139 0.31488 0.0
N41 N 0.8176 0.67963 0.3488 0.0
C42 C 0.8169 0.64734 0.30041 0.0
C43 C 0.83664 0.70275 0.35974 0.0
N44 N 0.85966 0.70973 0.33942 0.0
C45 C 0.8324 0.7188 0.39005 0.0
H46 H 0.80223 0.63089 0.31412 0.0
H47 H 0.83531 0.63719 0.2898 0.0
H48 H 0.80319 0.65491 0.28084 0.0
H49 H 0.80866 0.71489 0.3977 0.0
H50 H 0.83943 0.74238 0.38703 0.0
H51 H 0.8467 0.71121 0.40909 0.0
C52 C 0.7858 0.85088 0.85887 0.0
N53 N 0.81145 0.84679 0.84414 0.0
N54 N 0.7777 0.87666 0.8507 0.0
C55 C 0.77059 0.83133 0.88397 0.0
C56 C 0.79947 0.88834 0.8309 0.0
N57 N 0.82018 0.87026 0.82707 0.0
C58 C 0.79951 0.91674 0.81422 0.0
H59 H 0.75388 0.8146 0.87228 0.0
H60 H 0.75863 0.84357 0.90107 0.0
H61 H 0.78713 0.82032 0.89731 0.0
H62 H 0.81288 0.93415 0.82862 0.0
H63 H 0.77627 0.92197 0.81145 0.0
H64 H 0.80979 0.9162 0.79047 0.0
C65 C 0.75988 0.23833 0.39368 0.0
N66 N 0.76787 0.21789 0.3737 0.0
N67 N 0.74056 0.25394 0.37891 0.0
C68 C 0.77196 0.24402 0.42698 0.0
C69 C 0.73691 0.24219 0.3494 0.0
N70 N 0.75385 0.22065 0.34604 0.0
C71 C 0.71419 0.24959 0.32509 0.0
H72 H 0.75768 0.22988 0.44353 0.0
H73 H 0.77148 0.26687 0.43402 0.0
H74 H 0.79535 0.23905 0.42918 0.0
H75 H 0.72568 0.26545 0.30816 0.0
H76 H 0.69579 0.2592 0.33641 0.0
H77 H 0.7041 0.23009 0.31145 0.0
C78 C 0.33901 0.67511 0.17522 0.0
N79 N 0.36716 0.68913 0.18075 0.0
N80 N 0.32819 0.68306 0.14701 0.0
C81 C 0.32229 0.65323 0.197 0.0
C82 C 0.35062 0.70234 0.13544 0.0
N83 N 0.37465 0.70578 0.15579 0.0
C84 C 0.34771 0.72007 0.10603 0.0
H85 H 0.30402 0.6391 0.18402 0.0
H86 H 0.31216 0.6648 0.2162 0.0
H87 H 0.33791 0.6397 0.20815 0.0
H88 H 0.324 0.71853 0.09756 0.0
H89 H 0.36115 0.71214 0.08686 0.0
H90 H 0.35661 0.74314 0.11075 0.0
C91 C 0.14037 0.36214 0.6932 0.0
N92 N 0.16077 0.35658 0.67146 0.0
N93 N 0.14996 0.38721 0.70896 0.0
C94 C 0.11146 0.34266 0.6997 0.0
C95 C 0.17702 0.39668 0.69606 0.0
N96 N 0.1838 0.37795 0.67339 0.0
C97 C 0.19563 0.42533 0.70398 0.0
H98 H 0.10477 0.34484 0.72476 0.0
H99 H 0.11348 0.3197 0.69462 0.0
H100 H 0.09343 0.34895 0.684 0.0
H101 H 0.21243 0.42211 0.72279 0.0
H102 H 0.18133 0.44099 0.71297 0.0
H103 H 0.20782 0.43456 0.68282 0.0
Dy104 Dy 0.04786 0.03779 0.46849 0.0
C105 C 0.00705 0.98726 0.58765 0.0
C106 C 0.07592 0.06536 0.41813 0.0
Dy107 Dy 0.01707 0.01643 0.53222 0.0
O108 O 0.08909 0.05841 0.44402 0.0
O109 O 0.04695 0.05747 0.4196 0.0
O110 O 0.07645 1.00212 0.47435 0.0
O111 O 0.06248 0.0227 0.51451 0.0
C112 C 0.07638 0.00282 0.50518 0.0
C113 C 0.9782 0.04236 0.49678 0.0
O114 O 0.04483 0.0582 0.54811 0.0
O115 O 0.05287 0.07848 0.49798 0.0
O116 O 0.00425 0.01435 0.58361 0.0
O117 O 0.01547 0.97621 0.56146 0.0
O118 O 0.97182 0.03115 0.5245 0.0
O119 O 0.00462 0.03857 0.49013 0.0
O120 O 0.01682 0.9996 0.44989 0.0
O121 O 0.0078 0.97763 0.49907 0.0
C122 C 0.05373 0.08061 0.52948 0.0
C123 C 0.00639 0.97696 0.46741 0.0
Dy124 Dy 0.53162 0.04211 0.07069 0.0
C125 C 0.44988 0.99382 0.96527 0.0
C126 C 0.57702 0.07116 0.10704 0.0
Dy127 Dy 0.48508 0.0197 0.01389 0.0
O128 O 0.57101 0.04325 0.10418 0.0
O129 O 0.55809 0.08355 0.08994 0.0
O130 O 0.51824 0.00517 0.10447 0.0
O131 O 0.49789 0.0057 0.06005 0.0
C132 C 0.49886 0.99096 0.08479 0.0
C133 C 0.51322 0.07439 0.01138 0.0
O134 O 0.4548 0.03498 0.0497 0.0
O135 O 0.49115 0.06349 0.08144 0.0
O136 O 0.47546 0.01042 0.96213 0.0
O137 O 0.44354 0.99088 0.99531 0.0
O138 O 0.48622 0.06631 1.00007 0.0
O139 O 0.52434 0.05276 0.02111 0.0
O140 O 0.56034 0.02195 0.03665 0.0
O141 O 0.52269 0.99395 0.00646 0.0
C142 C 0.46273 0.05486 0.0722 0.0
C143 C 0.55127 1.00121 0.01546 0.0
Dy144 Dy 0.50748 0.4961 0.48095 0.0
C145 C 0.45902 0.58492 0.54986 0.0
C146 C 0.54527 0.46103 0.45628 0.0
Dy147 Dy 0.48858 0.54487 0.52106 0.0
O148 O 0.51605 0.45645 0.45328 0.0
O149 O 0.55353 0.4849 0.47195 0.0
O150 O 0.45942 0.4745 0.47648 0.0
O151 O 0.47402 0.49835 0.51764 0.0
C152 C 0.4513 0.48488 0.50325 0.0
C153 C 0.54499 0.5546 0.49923 0.0
O154 O 0.50276 0.51857 0.5611 0.0
O155 O 0.52709 0.48863 0.52949 0.0
O156 O 0.48761 0.58815 0.54422 0.0
O157 O 0.44644 0.55953 0.54009 0.0
O158 O 0.53732 0.56418 0.52648 0.0
O159 O 0.52197 0.54233 0.4845 0.0
O160 O 0.49374 0.52366 0.44142 0.0
O161 O 0.46687 0.5511 0.4734 0.0
C162 C 0.52063 0.49856 0.55781 0.0
C163 C 0.47475 0.54273 0.4449 0.0
Dy164 Dy 0.99838 0.51271 0.01734 0.0
C165 C 0.94637 0.61126 0.96492 0.0
C166 C 0.02901 0.46692 0.0225 0.0
Dy167 Dy 0.97458 0.56745 0.98695 0.0
O168 O 0.00318 0.46846 0.03552 0.0
O169 O 0.03793 0.4903 0.00669 0.0
O170 O 0.9883 0.52189 0.06902 0.0
O171 O 0.97883 0.54938 0.03323 0.0
C172 C 0.97774 0.54581 0.06275 0.0
C173 C 0.00781 0.53773 0.94985 0.0
O174 O 0.01664 0.58852 0.01125 0.0
O175 O 0.0391 0.54664 0.01633 0.0
O176 O 0.95229 0.58951 0.94807 0.0
O177 O 0.95547 0.60899 0.99421 0.0
O178 O 0.00819 0.56554 0.94833 0.0
O179 O 0.98854 0.52715 0.96963 0.0
O180 O 0.95304 0.49294 0.99937 0.0
O181 O 0.9323 0.53555 0.99161 0.0
C182 C 0.04024 0.57518 0.0173 0.0
C183 C 0.92977 0.5069 0.99379 0.0
C184 C 0.2139 0.22286 0.22556 0.0
C185 C 0.21427 0.21265 0.19424 0.0
C186 C 0.20219 0.20442 0.24968 0.0
C187 C 0.14833 0.13808 0.26017 0.0
H188 H 0.17741 0.1459 0.34747 0.0
C189 C 0.07694 0.09074 0.36579 0.0
C190 C 0.09223 0.07973 0.39124 0.0
C191 C 0.09311 0.10514 0.34101 0.0
C192 C 0.16915 0.14313 0.32316 0.0
H193 H 0.20435 0.17521 0.16344 0.0
H194 H 0.18481 0.14241 0.2058 0.0
H195 H 0.20595 0.17284 0.30601 0.0
H196 H 0.13611 0.07417 0.4105 0.0
H197 H 0.16418 0.09843 0.3671 0.0
H198 H 0.11181 0.10793 0.27728 0.0
C199 C 0.19289 0.1648 0.21172 0.0
C200 C 0.18537 0.15886 0.29943 0.0
C201 C 0.20446 0.18336 0.18758 0.0
C202 C 0.12377 0.08274 0.39127 0.0
C203 C 0.13987 0.09681 0.36647 0.0
C204 C 0.1322 0.12218 0.28389 0.0
C205 C 0.19081 0.17534 0.24287 0.0
C206 C 0.17499 0.15678 0.2677 0.0
C207 C 0.12481 0.10851 0.34122 0.0
C208 C 0.14228 0.12472 0.31572 0.0
H209 H 0.22143 0.24545 0.23099 0.0
H210 H 0.2007 0.21337 0.27329 0.0
H211 H 0.13944 0.13626 0.23604 0.0
H212 H 0.05259 0.08869 0.36531 0.0
H213 H 0.08081 0.11418 0.3221 0.0
C214 C 0.33808 0.90205 0.71606 0.0
C215 C 0.31235 0.88117 0.71599 0.0
C216 C 0.34685 0.9184 0.74342 0.0
C217 C 0.34242 0.91084 0.82971 0.0
H218 H 0.38444 0.98935 0.82989 0.0
C219 C 0.40201 0.9657 0.943 0.0
C220 C 0.43045 0.98184 0.93823 0.0
C221 C 0.38353 0.95546 0.91693 0.0
C222 C 0.37291 0.96734 0.83024 0.0
H223 H 0.27464 0.86178 0.74337 0.0
H224 H 0.28964 0.89064 0.79157 0.0
H225 H 0.35777 0.96956 0.78187 0.0
H226 H 0.46197 0.99972 0.90258 0.0
H227 H 0.43017 0.98162 0.85737 0.0
H228 H 0.35838 0.90827 0.87774 0.0
C229 C 0.30319 0.89434 0.77054 0.0
C230 C 0.35752 0.95605 0.80272 0.0
C231 C 0.29433 0.87813 0.74297 0.0
C232 C 0.44012 0.9874 0.90702 0.0
C233 C 0.42173 0.97724 0.88107 0.0
C234 C 0.35788 0.92212 0.85723 0.0
C235 C 0.33014 0.91396 0.7714 0.0
C236 C 0.34265 0.92744 0.80187 0.0
C237 C 0.39312 0.96127 0.88561 0.0
C238 C 0.37394 0.95028 0.8576 0.0
H239 H 0.35244 0.90427 0.69554 0.0
H240 H 0.36786 0.93305 0.74325 0.0
H241 H 0.33157 0.88858 0.82979 0.0
H242 H 0.39396 0.9612 0.96683 0.0
H243 H 0.36157 0.94335 0.92131 0.0
C244 C 0.61759 0.36261 0.77508 0.0
C245 C 0.61647 0.37492 0.80535 0.0
C246 C 0.60638 0.37584 0.74861 0.0
C247 C 0.58764 0.44653 0.72157 0.0
H248 H 0.54554 0.40052 0.65325 0.0
C249 C 0.52749 0.49611 0.61699 0.0
C250 C 0.53212 0.48527 0.58651 0.0
C251 C 0.5376 0.48287 0.64404 0.0
C252 C 0.55747 0.41363 0.67205 0.0
H253 H 0.60291 0.41007 0.8324 0.0
H254 H 0.58251 0.43311 0.78631 0.0
H255 H 0.56274 0.37655 0.70003 0.0
H256 H 0.55124 0.45214 0.56059 0.0
H257 H 0.56875 0.42913 0.60776 0.0
H258 H 0.58206 0.48362 0.69359 0.0
C259 C 0.59244 0.41357 0.78269 0.0
C260 C 0.56738 0.39991 0.69882 0.0
C261 C 0.60381 0.40039 0.80905 0.0
C262 C 0.54725 0.46106 0.58368 0.0
C263 C 0.55713 0.44773 0.61071 0.0
C264 C 0.57755 0.46025 0.69488 0.0
C265 C 0.59381 0.40159 0.75208 0.0
C266 C 0.58271 0.41618 0.72386 0.0
C267 C 0.5523 0.45841 0.64116 0.0
C268 C 0.5625 0.44393 0.66978 0.0
H269 H 0.62769 0.34311 0.77197 0.0
H270 H 0.60824 0.36626 0.72537 0.0
H271 H 0.59982 0.45972 0.74014 0.0
H272 H 0.51593 0.51472 0.62001 0.0
H273 H 0.5334 0.49144 0.66725 0.0
C274 C 0.90372 0.684 0.29223 0.0
C275 C 0.8741 0.68966 0.28793 0.0
C276 C 0.91955 0.67473 0.26652 0.0
C277 C 0.91446 0.6612 0.17755 0.0
H278 H 0.96172 0.60078 0.19924 0.0
C279 C 0.9655 0.59443 0.08015 0.0
C280 C 0.96744 0.56533 0.0868 0.0
C281 C 0.95721 0.61288 0.10389 0.0
C282 C 0.94829 0.61733 0.19256 0.0
H283 H 0.83873 0.69263 0.25325 0.0
H284 H 0.86538 0.67561 0.20878 0.0
H285 H 0.9425 0.62821 0.24117 0.0
H286 H 0.96164 0.53254 0.12317 0.0
H287 H 0.94582 0.5639 0.16387 0.0
H288 H 0.91852 0.64883 0.12895 0.0
C289 C 0.87702 0.67854 0.23155 0.0
C290 C 0.93772 0.63365 0.21683 0.0
C291 C 0.86151 0.68818 0.25711 0.0
C292 C 0.9605 0.55493 0.11739 0.0
C293 C 0.95173 0.57313 0.1409 0.0
C294 C 0.92461 0.6445 0.15327 0.0
C295 C 0.9059 0.67058 0.236 0.0
C296 C 0.92017 0.65557 0.20982 0.0
C297 C 0.95027 0.60253 0.13474 0.0
C298 C 0.94123 0.62191 0.1604 0.0
H299 H 0.91386 0.68494 0.31582 0.0
H300 H 0.94205 0.66973 0.27092 0.0
H301 H 0.90164 0.67822 0.17089 0.0
H302 H 0.97111 0.60311 0.05686 0.0
H303 H 0.9568 0.63537 0.09812 0.0
C304 C 0.28225 0.20835 0.16773 0.0
C305 C 0.26034 0.20909 0.14374 0.0
C306 C 0.30325 0.18909 0.16549 0.0
C307 C 0.31732 0.12166 0.12731 0.0
H308 H 0.40154 0.15493 0.13212 0.0
C309 C 0.40968 0.06527 0.07257 0.0
C310 C 0.43865 0.06897 0.08651 0.0
C311 C 0.38737 0.08006 0.08448 0.0
C312 C 0.37819 0.14506 0.13138 0.0
H313 H 0.24189 0.18994 0.09954 0.0
H314 H 0.27845 0.15587 0.09553 0.0
H315 H 0.36299 0.18481 0.14458 0.0
H316 H 0.46657 0.09032 0.12474 0.0
H317 H 0.42733 0.11564 0.14606 0.0
H318 H 0.33231 0.08194 0.11407 0.0
C319 C 0.27959 0.17021 0.11597 0.0
C320 C 0.35612 0.16225 0.13842 0.0
C321 C 0.25892 0.18974 0.11804 0.0
C322 C 0.44455 0.08716 0.11328 0.0
C323 C 0.42209 0.10179 0.12541 0.0
C324 C 0.33938 0.10436 0.12065 0.0
C325 C 0.3022 0.16998 0.13945 0.0
C326 C 0.32549 0.15087 0.13571 0.0
C327 C 0.39333 0.09872 0.11086 0.0
C328 C 0.37008 0.11604 0.1218 0.0
H329 H 0.28348 0.22318 0.18774 0.0
H330 H 0.32037 0.18921 0.18396 0.0
H331 H 0.29383 0.1123 0.12547 0.0
H332 H 0.40435 0.05158 0.05179 0.0
H333 H 0.36574 0.07755 0.07223 0.0
C334 C 0.23214 0.85874 0.66419 0.0
C335 C 0.26235 0.87162 0.66515 0.0
C336 C 0.20979 0.87377 0.65198 0.0
C337 C 0.19265 0.94587 0.62681 0.0
H338 H 0.13969 0.90068 0.56549 0.0
C339 C 0.09674 0.99227 0.55898 0.0
C340 C 0.09449 0.98644 0.52615 0.0
C341 C 0.11548 0.97815 0.57852 0.0
C342 C 0.15431 0.91363 0.58249 0.0
H343 H 0.29288 0.91068 0.65604 0.0
H344 H 0.25379 0.93735 0.63478 0.0
H345 H 0.17562 0.8775 0.59657 0.0
H346 H 0.10945 0.96083 0.48814 0.0
H347 H 0.14206 0.93606 0.5222 0.0
H348 H 0.17171 0.98219 0.61201 0.0
C349 C 0.24725 0.91565 0.64357 0.0
C350 C 0.17469 0.90027 0.60061 0.0
C351 C 0.26963 0.90051 0.65581 0.0
C352 C 0.11074 0.96573 0.51336 0.0
C353 C 0.12932 0.95147 0.53291 0.0
C354 C 0.17207 0.95923 0.60878 0.0
C355 C 0.21722 0.90206 0.64045 0.0
C356 C 0.19431 0.91624 0.62282 0.0
C357 C 0.13216 0.95772 0.56568 0.0
C358 C 0.15289 0.94331 0.58614 0.0
H359 H 0.22613 0.83649 0.67146 0.0
H360 H 0.18682 0.86287 0.65055 0.0
H361 H 0.20733 0.95877 0.64379 0.0
H362 H 0.08437 0.00809 0.56951 0.0
H363 H 0.11686 0.98319 0.60371 0.0
C364 C 0.67689 0.38704 0.92124 0.0
C365 C 0.68017 0.36475 0.89975 0.0
C366 C 0.70147 0.39984 0.93964 0.0
C367 C 0.77896 0.394 0.96674 0.0
H368 H 0.79375 0.47637 0.95035 0.0
C369 C 0.89701 0.46027 0.9806 0.0
C370 C 0.89972 0.48964 0.98918 0.0
C371 C 0.86869 0.44411 0.97518 0.0
C372 C 0.78983 0.45356 0.95592 0.0
H373 H 0.71083 0.33764 0.88095 0.0
H374 H 0.75384 0.35926 0.91391 0.0
H375 H 0.74618 0.44846 0.9337 0.0
H376 H 0.87485 0.52484 1.00004 0.0
H377 H 0.8254 0.49647 0.99171 0.0
H378 H 0.82264 0.39901 0.98893 0.0
C379 C 0.73228 0.36668 0.91689 0.0
C380 C 0.76249 0.43754 0.94628 0.0
C381 C 0.70775 0.35417 0.89822 0.0
C382 C 0.8735 0.50234 0.99304 0.0
C383 C 0.84513 0.48605 0.98813 0.0
C384 C 0.8062 0.41011 0.97685 0.0
C385 C 0.72966 0.39039 0.93684 0.0
C386 C 0.757 0.40754 0.95104 0.0
C387 C 0.84234 0.45681 0.9787 0.0
C388 C 0.81226 0.44003 0.97094 0.0
H389 H 0.65584 0.39577 0.92209 0.0
H390 H 0.69885 0.41804 0.95488 0.0
H391 H 0.77519 0.3709 0.97082 0.0
H392 H 0.91681 0.44989 0.97726 0.0
H393 H 0.86759 0.42187 0.96736 0.0
C394 C 0.79162 0.64049 0.38144 0.0
C395 C 0.79079 0.66551 0.36344 0.0
C396 C 0.76554 0.62682 0.39586 0.0
C397 C 0.71158 0.61262 0.43903 0.0
H398 H 0.63476 0.60718 0.39425 0.0
C399 C 0.59762 0.58098 0.50127 0.0
C400 C 0.57439 0.56378 0.48428 0.0
C401 C 0.62467 0.59145 0.48649 0.0
C402 C 0.65605 0.60823 0.407 0.0
H403 H 0.76281 0.69613 0.34616 0.0
H404 H 0.71699 0.67254 0.37154 0.0
H405 H 0.68045 0.62898 0.36815 0.0
H406 H 0.56154 0.54329 0.4388 0.0
H407 H 0.60886 0.56132 0.41304 0.0
H408 H 0.68719 0.59161 0.47777 0.0
C409 C 0.73754 0.66311 0.37429 0.0
C410 C 0.68223 0.62109 0.39216 0.0
C411 C 0.76365 0.67674 0.35993 0.0
C412 C 0.57901 0.55662 0.45245 0.0
C413 C 0.60605 0.56712 0.43765 0.0
C414 C 0.68538 0.59982 0.4539 0.0
C415 C 0.73813 0.63796 0.39249 0.0
C416 C 0.71034 0.6236 0.40803 0.0
C417 C 0.62911 0.58498 0.45436 0.0
C418 C 0.65723 0.59758 0.43814 0.0
H419 H 0.81248 0.63161 0.38423 0.0
H420 H 0.76677 0.60734 0.40936 0.0
H421 H 0.73277 0.61439 0.45208 0.0
H422 H 0.59468 0.58686 0.52583 0.0
H423 H 0.64177 0.60536 0.50002 0.0
C424 C 0.18863 0.28278 0.08684 0.0
C425 C 0.20306 0.28891 0.11639 0.0
C426 C 0.17195 0.30263 0.07298 0.0
C427 C 0.12937 0.35962 0.09783 0.0
H428 H 0.12415 0.37592 0.0078 0.0
C429 C 0.03737 0.42072 0.0481 0.0
C430 C 0.04725 0.44359 0.02767 0.0
C431 C 0.05623 0.40041 0.05583 0.0
C432 C 0.12546 0.37159 0.03301 0.0
H433 H 0.21334 0.3207 0.15388 0.0
H434 H 0.18456 0.35585 0.12957 0.0
H435 H 0.16045 0.34535 0.02712 0.0
H436 H 0.08376 0.46259 0.99799 0.0
H437 H 0.11687 0.42723 0.01169 0.0
H438 H 0.09482 0.38604 0.10396 0.0
C439 C 0.18558 0.33559 0.11729 0.0
C440 C 0.14608 0.35401 0.04402 0.0
C441 C 0.20217 0.31572 0.13108 0.0
C442 C 0.07568 0.44514 0.0139 0.0
C443 C 0.09455 0.42483 0.02161 0.0
C444 C 0.10876 0.37705 0.08686 0.0
C445 C 0.1695 0.32885 0.08861 0.0
C446 C 0.14832 0.34798 0.07658 0.0
C447 C 0.08528 0.40267 0.04324 0.0
C448 C 0.10656 0.38324 0.05436 0.0
H449 H 0.1889 0.26199 0.07543 0.0
H450 H 0.15965 0.29677 0.05098 0.0
H451 H 0.13019 0.35496 0.123 0.0
H452 H 0.01544 0.41899 0.05886 0.0
H453 H 0.04831 0.38326 0.07217 0.0
C454 C 0.65067 0.29489 0.90556 0.0
C455 C 0.62991 0.31381 0.89878 0.0
C456 C 0.64311 0.27155 0.92601 0.0
C457 C 0.58385 0.23907 0.98246 0.0
H458 H 0.60681 0.1669 0.95236 0.0
C459 C 0.51462 0.12686 1.00037 0.0
C460 C 0.53 0.1037 0.00821 0.0
C461 C 0.53053 0.15418 0.99435 0.0
C462 C 0.60063 0.18694 0.96143 0.0
H463 H 0.58582 0.32444 0.90895 0.0
H464 H 0.57183 0.28321 0.9435 0.0
H465 H 0.6285 0.21217 0.92829 0.0
H466 H 0.57392 0.09096 0.01711 0.0
H467 H 0.6019 0.13874 0.00569 0.0
H468 H 0.55439 0.21325 0.01416 0.0
C469 C 0.59425 0.28643 0.93387 0.0
C470 C 0.61316 0.213 0.94772 0.0
C471 C 0.60203 0.30989 0.9138 0.0
C472 C 0.56155 0.1085 0.01102 0.0
C473 C 0.57753 0.13574 0.00445 0.0
C474 C 0.57097 0.21294 0.99581 0.0
C475 C 0.61442 0.2665 0.93971 0.0
C476 C 0.60439 0.23938 0.9575 0.0
C477 C 0.56215 0.15871 0.9956 0.0
C478 C 0.57878 0.1866 0.98493 0.0
H479 H 0.67215 0.29735 0.8939 0.0
H480 H 0.65944 0.25701 0.93033 0.0
H481 H 0.57706 0.25896 0.99118 0.0
H482 H 0.49028 0.12372 0.99819 0.0
H483 H 0.51814 0.17143 0.98731 0.0
C484 C 0.90156 0.73558 0.37122 0.0
C485 C 0.88357 0.73369 0.34351 0.0
C486 C 0.91899 0.76169 0.38025 0.0
C487 C 0.92097 0.84074 0.3685 0.0
H488 H 0.99243 0.84493 0.42237 0.0
C489 C 0.98571 0.94917 0.41844 0.0
C490 C 0.99366 0.94947 0.45097 0.0
C491 C 0.97426 0.9232 0.40284 0.0
C492 C 0.9724 0.8441 0.40747 0.0
H493 H 0.87119 0.75682 0.30223 0.0
H494 H 0.90271 0.80249 0.31706 0.0
H495 H 0.97154 0.79906 0.39736 0.0
H496 H 0.99586 0.92245 0.49246 0.0
H497 H 0.97622 0.87721 0.46516 0.0
H498 H 0.92215 0.88597 0.37857 0.0
C499 C 0.90276 0.78402 0.33247 0.0
C500 C 0.96034 0.81774 0.3931 0.0
C501 C 0.88512 0.75779 0.32358 0.0
C502 C 0.98991 0.92311 0.46745 0.0
C503 C 0.97886 0.89711 0.45174 0.0
C504 C 0.93329 0.86719 0.38257 0.0
C505 C 0.91909 0.78664 0.36158 0.0
C506 C 0.93407 0.81547 0.37387 0.0
C507 C 0.97088 0.89681 0.41924 0.0
C508 C 0.95884 0.86909 0.40269 0.0
H509 H 0.90051 0.71723 0.38699 0.0
H510 H 0.93086 0.76262 0.40292 0.0
H511 H 0.90049 0.83997 0.35439 0.0
H512 H 0.98825 0.96903 0.40497 0.0
H513 H 0.96846 0.92372 0.37778 0.0
C514 C 0.35897 0.80001 0.64215 0.0
C515 C 0.3287 0.79638 0.65099 0.0
C516 C 0.37189 0.77655 0.63084 0.0
C517 C 0.36159 0.69634 0.62959 0.0
H518 H 0.41999 0.70811 0.56238 0.0
C519 C 0.41205 0.6027 0.5682 0.0
C520 C 0.44317 0.60776 0.56303 0.0
C521 C 0.39706 0.62506 0.57912 0.0
C522 C 0.40389 0.70452 0.58133 0.0
H523 H 0.28805 0.76574 0.65484 0.0
H524 H 0.31029 0.72462 0.63422 0.0
H525 H 0.39541 0.74837 0.58018 0.0
H526 H 0.48314 0.63985 0.56565 0.0
H527 H 0.45707 0.67877 0.58465 0.0
H528 H 0.37005 0.65233 0.63042 0.0
C529 C 0.32428 0.74546 0.63653 0.0
C530 C 0.38982 0.72762 0.5916 0.0
C531 C 0.31142 0.76896 0.648 0.0
C532 C 0.45911 0.63536 0.56937 0.0
C533 C 0.44415 0.6577 0.58004 0.0
C534 C 0.37556 0.67316 0.61914 0.0
C535 C 0.35473 0.74894 0.62789 0.0
C536 C 0.36872 0.72394 0.6161 0.0
C537 C 0.41292 0.6529 0.58478 0.0
C538 C 0.3971 0.67709 0.59514 0.0
H539 H 0.37259 0.82105 0.64406 0.0
H540 H 0.39549 0.78001 0.62485 0.0
H541 H 0.34575 0.69278 0.64877 0.0
H542 H 0.39924 0.5816 0.56343 0.0
H543 H 0.37296 0.62075 0.5824 0.0
C544 C 0.86658 0.90132 0.81178 0.0
C545 C 0.84681 0.8754 0.80821 0.0
C546 C 0.89055 0.90796 0.7912 0.0
C547 C 0.91195 0.89043 0.71006 0.0
H548 H 0.98406 0.94314 0.73292 0.0
C549 C 0.99438 0.94026 0.61555 0.0
C550 C 0.99825 0.97062 0.61642 0.0
C551 C 0.98207 0.92435 0.6414 0.0
C552 C 0.96413 0.92823 0.72628 0.0
H553 H 0.83748 0.83506 0.78212 0.0
H554 H 0.88017 0.84599 0.74656 0.0
H555 H 0.95128 0.9213 0.77464 0.0
H556 H 0.99414 0.00824 0.64544 0.0
H557 H 0.97303 0.98045 0.69087 0.0
H558 H 0.9247 0.89772 0.66169 0.0
C559 C 0.87669 0.86171 0.76461 0.0
C560 C 0.94525 0.91584 0.7501 0.0
C561 C 0.85245 0.85527 0.78507 0.0
C562 C 0.99129 0.98484 0.64419 0.0
C563 C 0.9794 0.96894 0.67021 0.0
C564 C 0.93105 0.90249 0.68632 0.0
C565 C 0.89553 0.88853 0.76683 0.0
C566 C 0.91835 0.89757 0.74222 0.0
C567 C 0.97391 0.93858 0.66871 0.0
C568 C 0.95679 0.92221 0.69415 0.0
H569 H 0.86291 0.91683 0.82999 0.0
H570 H 0.90425 0.92893 0.79356 0.0
H571 H 0.89129 0.87683 0.70294 0.0
H572 H 0.99962 0.9288 0.59438 0.0
H573 H 0.97817 0.90096 0.63975 0.0
C574 C 0.75747 0.2129 0.28869 0.0
C575 C 0.75232 0.20135 0.31914 0.0
C576 C 0.74622 0.19704 0.26181 0.0
C577 C 0.71244 0.12682 0.22899 0.0
H578 H 0.65378 0.16987 0.19029 0.0
C579 C 0.61393 0.07051 0.15163 0.0
C580 C 0.60133 0.08604 0.12769 0.0
C581 C 0.63654 0.08424 0.17193 0.0
C582 C 0.67045 0.15764 0.20007 0.0
H583 H 0.73456 0.16336 0.34553 0.0
H584 H 0.71564 0.13495 0.29827 0.0
H585 H 0.68913 0.19306 0.23007 0.0
H586 H 0.60299 0.12779 0.10531 0.0
H587 H 0.64357 0.15171 0.13972 0.0
H588 H 0.69422 0.09148 0.19876 0.0
C589 C 0.72805 0.15638 0.29521 0.0
C590 C 0.69067 0.17098 0.22304 0.0
C591 C 0.739 0.17248 0.32219 0.0
C592 C 0.61217 0.11545 0.12386 0.0
C593 C 0.63533 0.12912 0.14376 0.0
C594 C 0.69262 0.1136 0.20544 0.0
C595 C 0.73012 0.16916 0.265 0.0
C596 C 0.71149 0.15557 0.2381 0.0
C597 C 0.64762 0.11378 0.16836 0.0
C598 C 0.67084 0.12862 0.19112 0.0
H599 H 0.76773 0.23517 0.28601 0.0
H600 H 0.74831 0.20724 0.23874 0.0
H601 H 0.72837 0.11455 0.24025 0.0
H602 H 0.60583 0.04779 0.15518 0.0
H603 H 0.64471 0.07172 0.1909 0.0
C604 C 0.41031 0.66869 0.20296 0.0
C605 C 0.38627 0.68431 0.20731 0.0
C606 C 0.42344 0.65646 0.22907 0.0
C607 C 0.40058 0.62922 0.30802 0.0
H608 H 0.48395 0.61772 0.31867 0.0
C609 C 0.44327 0.57697 0.42013 0.0
C610 C 0.46428 0.55761 0.41666 0.0
C611 C 0.43502 0.59294 0.39433 0.0
C612 C 0.46052 0.6205 0.31579 0.0
H613 H 0.35862 0.7017 0.24184 0.0
H614 H 0.38206 0.6813 0.28776 0.0
H615 H 0.46944 0.6476 0.27502 0.0
H616 H 0.49277 0.53963 0.383 0.0
H617 H 0.47798 0.56735 0.3377 0.0
H618 H 0.39146 0.60203 0.34839 0.0
C619 C 0.39038 0.67771 0.26428 0.0
C620 C 0.45225 0.63771 0.29087 0.0
C621 C 0.37722 0.68971 0.23818 0.0
C622 C 0.47645 0.55426 0.38651 0.0
C623 C 0.46822 0.57036 0.36061 0.0
C624 C 0.40881 0.61209 0.33281 0.0
C625 C 0.41266 0.65979 0.25991 0.0
C626 C 0.42217 0.6424 0.28682 0.0
C627 C 0.44751 0.59001 0.36429 0.0
C628 C 0.43888 0.60759 0.33713 0.0
H629 H 0.41723 0.66404 0.17918 0.0
H630 H 0.44049 0.64275 0.22482 0.0
H631 H 0.37706 0.63166 0.30511 0.0
H632 H 0.43346 0.58021 0.44297 0.0
H633 H 0.4193 0.60811 0.39813 0.0
C634 C 0.14972 0.40694 0.76352 0.0
C635 C 0.13512 0.40055 0.73403 0.0
C636 C 0.13555 0.42026 0.78777 0.0
C637 C 0.07672 0.46637 0.80067 0.0
H638 H 0.08155 0.44236 0.8885 0.0
C639 C 0.02034 0.49051 0.9285 0.0
C640 C 0.02371 0.52087 0.92744 0.0
C641 C 0.03425 0.47488 0.90592 0.0
C642 C 0.07987 0.44921 0.86407 0.0
H643 H 0.09447 0.40291 0.70658 0.0
H644 H 0.06949 0.42628 0.74888 0.0
H645 H 0.10456 0.41638 0.84695 0.0
H646 H 0.0448 0.55865 0.90241 0.0
H647 H 0.06884 0.53151 0.86308 0.0
H648 H 0.0521 0.49917 0.81765 0.0
C649 C 0.09193 0.4211 0.75334 0.0
C650 C 0.09327 0.43449 0.84029 0.0
C651 C 0.10605 0.40757 0.72921 0.0
C652 C 0.04165 0.53527 0.90376 0.0
C653 C 0.05529 0.5197 0.8811 0.0
C654 C 0.06359 0.48122 0.82442 0.0
C655 C 0.10654 0.4277 0.78292 0.0
C656 C 0.09188 0.44292 0.80828 0.0
C657 C 0.05153 0.4893 0.88163 0.0
C658 C 0.06508 0.47292 0.85644 0.0
H659 H 0.17211 0.40157 0.76772 0.0
H660 H 0.14756 0.42527 0.81011 0.0
H661 H 0.07543 0.47361 0.77634 0.0
H662 H 0.00658 0.47883 0.94645 0.0
H663 H 0.0308 0.45148 0.90693 0.0
C664 C 0.72419 0.87667 0.86191 0.0
C665 C 0.75409 0.89024 0.86405 0.0
C666 C 0.70158 0.88858 0.87744 0.0
C667 C 0.6909 0.93439 0.94563 0.0
H668 H 0.61399 0.94151 0.90542 0.0
C669 C 0.60493 0.99749 0.00357 0.0
C670 C 0.57422 0.98664 0.99983 0.0
C671 C 0.62653 0.98483 0.98727 0.0
C672 C 0.63518 0.93926 0.91713 0.0
H673 H 0.78421 0.92665 0.88334 0.0
H674 H 0.74465 0.94781 0.91051 0.0
H675 H 0.65233 0.92166 0.87524 0.0
H676 H 0.54216 0.9534 0.97681 0.0
H677 H 0.57997 0.93094 0.94891 0.0
H678 H 0.67381 0.9516 0.98761 0.0
C679 C 0.73863 0.92797 0.89698 0.0
C680 C 0.65713 0.92802 0.8998 0.0
C681 C 0.76113 0.91614 0.88127 0.0
C682 C 0.56562 0.96243 0.98002 0.0
C683 C 0.58727 0.94966 0.96387 0.0
C684 C 0.66891 0.94543 0.96302 0.0
C685 C 0.70871 0.91409 0.89555 0.0
C686 C 0.68526 0.9257 0.91384 0.0
C687 C 0.61794 0.96091 0.96707 0.0
C688 C 0.64088 0.94818 0.94891 0.0
H689 H 0.71856 0.85659 0.84874 0.0
H690 H 0.67872 0.87737 0.87615 0.0
H691 H 0.71223 0.93233 0.95718 0.0
H692 H 0.61231 0.01621 0.0185 0.0
H693 H 0.64993 0.99428 0.98992 0.0
C694 C 0.78375 0.17908 0.40675 0.0
C695 C 0.7883 0.19743 0.38048 0.0
C696 C 0.8044 0.16034 0.41441 0.0
C697 C 0.88386 0.15087 0.4054 0.0
H698 H 0.85605 0.07358 0.43562 0.0
C699 C 0.96619 0.07271 0.4499 0.0
C700 C 0.95746 0.05787 0.47796 0.0
C701 C 0.94605 0.08821 0.43365 0.0
C702 C 0.86426 0.09517 0.42742 0.0
H703 H 0.81745 0.21037 0.34122 0.0
H704 H 0.85391 0.17755 0.35457 0.0
H705 H 0.81971 0.10339 0.41559 0.0
H706 H 0.9209 0.04744 0.51081 0.0
H707 H 0.8863 0.07428 0.48302 0.0
H708 H 0.9284 0.14288 0.41814 0.0
C709 C 0.83445 0.17774 0.36938 0.0
C710 C 0.84337 0.11226 0.41591 0.0
C711 C 0.81356 0.19632 0.36157 0.0
C712 C 0.92829 0.05853 0.48918 0.0
C713 C 0.9083 0.0738 0.47304 0.0
C714 C 0.90481 0.13378 0.41711 0.0
C715 C 0.8302 0.15962 0.39603 0.0
C716 C 0.85281 0.14055 0.40536 0.0
C717 C 0.9168 0.08893 0.44509 0.0
C718 C 0.89521 0.10593 0.42897 0.0
H719 H 0.76425 0.17944 0.42145 0.0
H720 H 0.80053 0.1469 0.43525 0.0
H721 H 0.89189 0.17263 0.39763 0.0
H722 H 0.98858 0.07262 0.44078 0.0
H723 H 0.95332 0.0995 0.41211 0.0
C724 C 0.2947 0.65855 0.10565 0.0
C725 C 0.29865 0.67505 0.1336 0.0
C726 C 0.26611 0.65163 0.09181 0.0
C727 C 0.18499 0.64788 0.10966 0.0
H728 H 0.17674 0.64023 0.01797 0.0
C729 C 0.07014 0.61814 0.04403 0.0
C730 C 0.06917 0.59247 0.02629 0.0
C731 C 0.0977 0.63266 0.05542 0.0
C732 C 0.17878 0.64251 0.04358 0.0
H733 H 0.27686 0.69782 0.16911 0.0
H734 H 0.22664 0.68665 0.14454 0.0
H735 H 0.22598 0.65733 0.04196 0.0
H736 H 0.09597 0.56257 0.0051 0.0
H737 H 0.14412 0.58839 0.02425 0.0
H738 H 0.13756 0.6332 0.11098 0.0
C739 C 0.24527 0.67825 0.1336 0.0
C740 C 0.20696 0.652 0.05739 0.0
C741 C 0.27387 0.68475 0.14764 0.0
C742 C 0.09615 0.58226 0.01887 0.0
C743 C 0.12365 0.59709 0.02963 0.0
C744 C 0.15671 0.63886 0.09577 0.0
C745 C 0.24102 0.66159 0.10546 0.0
C746 C 0.21057 0.6541 0.09066 0.0
C747 C 0.1246 0.62205 0.04851 0.0
C748 C 0.15354 0.63549 0.0627 0.0
H749 H 0.31382 0.651 0.09468 0.0
H750 H 0.26367 0.63821 0.0706 0.0
H751 H 0.1869 0.64887 0.13534 0.0
H752 H 0.04957 0.6263 0.05019 0.0
H753 H 0.09801 0.6519 0.06998 0.0
C754 C 0.20859 0.38263 0.62115 0.0
C755 C 0.21059 0.38126 0.65445 0.0
C756 C 0.23442 0.39139 0.60329 0.0
C757 C 0.30642 0.43833 0.61121 0.0
H758 H 0.33026 0.40057 0.53549 0.0
C759 C 0.41998 0.47753 0.55205 0.0
C760 C 0.42258 0.47421 0.51907 0.0
C761 C 0.39371 0.46573 0.56748 0.0
C762 C 0.32372 0.41177 0.55625 0.0
H763 H 0.24115 0.38604 0.69498 0.0
H764 H 0.28615 0.40185 0.66403 0.0
H765 H 0.28538 0.37939 0.56376 0.0
H766 H 0.39935 0.45663 0.47624 0.0
H767 H 0.35294 0.43712 0.50281 0.0
H768 H 0.34372 0.47123 0.60349 0.0
C769 C 0.2647 0.39636 0.65168 0.0
C770 C 0.29805 0.39943 0.57256 0.0
C771 C 0.23904 0.38722 0.66937 0.0
C772 C 0.39803 0.45942 0.50173 0.0
C773 C 0.3715 0.44797 0.5171 0.0
C774 C 0.3317 0.45092 0.59467 0.0
C775 C 0.26259 0.39929 0.61852 0.0
C776 C 0.28935 0.4124 0.60045 0.0
C777 C 0.369 0.45068 0.55031 0.0
C778 C 0.34106 0.4377 0.56712 0.0
H779 H 0.18688 0.37858 0.60916 0.0
H780 H 0.2321 0.39351 0.57778 0.0
H781 H 0.29995 0.44914 0.63231 0.0
H782 H 0.43859 0.48864 0.56614 0.0
H783 H 0.39318 0.4679 0.59308 0.0
C784 C 0.85792 0.82846 0.86111 0.0
C785 C 0.82816 0.8232 0.84947 0.0
C786 C 0.87251 0.80545 0.87093 0.0
C787 C 0.85501 0.73537 0.90665 0.0
H788 H 0.93472 0.72173 0.88221 0.0
C789 C 0.92288 0.65618 0.97186 0.0
C790 C 0.9332 0.63577 0.9518 0.0
C791 C 0.91077 0.67958 0.95892 0.0
C792 C 0.91246 0.72541 0.88922 0.0
H793 H 0.79082 0.79028 0.83707 0.0
H794 H 0.81603 0.7499 0.85499 0.0
H795 H 0.91252 0.76168 0.85813 0.0
H796 H 0.93943 0.62377 0.90276 0.0
H797 H 0.91885 0.665 0.88024 0.0
H798 H 0.85506 0.69941 0.93803 0.0
C799 C 0.82803 0.77172 0.85655 0.0
C800 C 0.89988 0.74819 0.87556 0.0
C801 C 0.81369 0.79465 0.8463 0.0
C802 C 0.93151 0.63919 0.91872 0.0
C803 C 0.91995 0.66281 0.90584 0.0
C804 C 0.86781 0.71295 0.92072 0.0
C805 C 0.85729 0.77701 0.86963 0.0
C806 C 0.87093 0.75313 0.88396 0.0
C807 C 0.90941 0.68314 0.92581 0.0
C808 C 0.89652 0.70767 0.91194 0.0
H809 H 0.86927 0.85039 0.86407 0.0
H810 H 0.89505 0.81 0.88106 0.0
H811 H 0.83276 0.73901 0.91371 0.0
H812 H 0.92402 0.65396 0.99745 0.0
H813 H 0.9028 0.69509 0.97474 0.0
C814 C 0.41619 0.73258 0.12624 0.0
C815 C 0.39954 0.72877 0.15421 0.0
C816 C 0.43235 0.75954 0.1192 0.0
C817 C 0.46272 0.83179 0.14957 0.0
H818 H 0.42973 0.85942 0.07156 0.0
C819 C 0.47878 0.95269 0.12212 0.0
C820 C 0.4836 0.96154 0.09063 0.0
C821 C 0.46948 0.9237 0.12908 0.0
C822 C 0.43966 0.85204 0.09308 0.0
H823 H 0.38937 0.74873 0.19837 0.0
H824 H 0.4188 0.79572 0.18683 0.0
H825 H 0.41697 0.80883 0.08629 0.0
H826 H 0.48178 0.9475 0.04148 0.0
H827 H 0.46642 0.89634 0.05354 0.0
H828 H 0.48585 0.87465 0.15633 0.0
C829 C 0.41892 0.77806 0.17007 0.0
C830 C 0.43233 0.82301 0.10151 0.0
C831 C 0.40235 0.75116 0.17685 0.0
C832 C 0.47782 0.94113 0.06594 0.0
C833 C 0.46909 0.91184 0.07295 0.0
C834 C 0.47051 0.86069 0.14089 0.0
C835 C 0.43264 0.78287 0.14042 0.0
C836 C 0.44342 0.81274 0.13006 0.0
C837 C 0.46554 0.90267 0.10474 0.0
C838 C 0.45858 0.87139 0.11285 0.0
H839 H 0.41437 0.71543 0.1086 0.0
H840 H 0.44311 0.76264 0.09637 0.0
H841 H 0.47166 0.82433 0.17162 0.0
H842 H 0.48298 0.96815 0.14154 0.0
H843 H 0.46595 0.91776 0.15371 0.0
C844 C 0.14236 0.32793 0.62406 0.0
C845 C 0.15899 0.33053 0.65269 0.0
C846 C 0.13468 0.30087 0.60924 0.0
C847 C 0.11714 0.22478 0.62964 0.0
H848 H 0.12323 0.20996 0.53948 0.0
C849 C 0.07796 0.11084 0.57525 0.0
C850 C 0.06611 0.10899 0.54406 0.0
C851 C 0.09102 0.13754 0.5882 0.0
C852 C 0.12083 0.21374 0.56465 0.0
H853 H 0.18078 0.3074 0.6884 0.0
H854 H 0.16717 0.25978 0.66277 0.0
H855 H 0.14387 0.2572 0.56152 0.0
H856 H 0.0579 0.13397 0.50237 0.0
H857 H 0.07924 0.18043 0.52523 0.0
H858 H 0.09299 0.18203 0.63287 0.0
C859 C 0.16043 0.27867 0.65146 0.0
C860 C 0.13295 0.24083 0.57728 0.0
C861 C 0.16854 0.30583 0.66591 0.0
C862 C 0.06708 0.13455 0.52638 0.0
C863 C 0.07964 0.16127 0.53948 0.0
C864 C 0.10456 0.19786 0.61697 0.0
C865 C 0.14286 0.2758 0.6233 0.0
C866 C 0.13123 0.24666 0.60991 0.0
C867 C 0.09213 0.16323 0.5705 0.0
C868 C 0.1061 0.19188 0.58422 0.0
H869 H 0.13412 0.34667 0.61404 0.0
H870 H 0.1209 0.29933 0.58775 0.0
H871 H 0.11505 0.22878 0.65483 0.0
H872 H 0.07783 0.09154 0.58943 0.0
H873 H 0.10076 0.13786 0.61193 0.0
C874 C 0.70716 0.27236 0.41778 0.0
C875 C 0.72577 0.2769 0.39132 0.0
C876 C 0.68915 0.29311 0.42664 0.0
C877 C 0.63862 0.33023 0.42559 0.0
H878 H 0.66524 0.41226 0.41534 0.0
C879 C 0.55572 0.41446 0.43162 0.0
C880 C 0.56616 0.44085 0.44693 0.0
C881 C 0.57564 0.39475 0.42499 0.0
C882 C 0.65744 0.38947 0.41864 0.0
H883 H 0.7413 0.30681 0.35419 0.0
H884 H 0.70974 0.3429 0.36908 0.0
H885 H 0.70036 0.37808 0.40676 0.0
H886 H 0.60552 0.46745 0.46716 0.0
H887 H 0.63998 0.43313 0.45623 0.0
H888 H 0.5959 0.34174 0.43833 0.0
C889 C 0.70909 0.32365 0.38341 0.0
C890 C 0.67755 0.36978 0.41335 0.0
C891 C 0.7271 0.30299 0.37472 0.0
C892 C 0.59685 0.44734 0.45511 0.0
C893 C 0.61667 0.42767 0.44869 0.0
C894 C 0.61852 0.34996 0.43107 0.0
C895 C 0.6894 0.31878 0.40912 0.0
C896 C 0.6684 0.33986 0.41655 0.0
C897 C 0.60636 0.40101 0.43368 0.0
C898 C 0.62762 0.37986 0.42756 0.0
H899 H 0.70565 0.25225 0.43073 0.0
H900 H 0.67466 0.28882 0.44689 0.0
H901 H 0.63058 0.30736 0.42787 0.0
H902 H 0.53215 0.40891 0.42508 0.0
H903 H 0.56695 0.37465 0.41297 0.0
loop_
_geom_bond_atom_site_label_1
_geom_bond_atom_site_label_2
_geom_bond_distance
_geom_bond_site_symmetry_2
_ccdc_geom_bond_type
C0 N1 1.317 . S
C0 N2 1.348 . S
C0 C3 1.485 . S
N1 C0 1.317 . S
N1 N5 1.370 . S
N2 C0 1.348 . S
N2 C4 1.346 . S
C3 C0 1.485 . S
C3 H7 0.960 . S
C3 H8 0.961 . S
C3 H9 0.960 . S
C4 N2 1.346 . S
C4 N5 1.307 . S
C4 C6 1.486 . S
N5 N1 1.370 . S
N5 C4 1.307 . S
C6 C4 1.486 . S
C6 H10 0.960 . S
C6 H11 0.960 . S
C6 H12 0.959 . S
H7 C3 0.960 . S
H8 C3 0.961 . S
H9 C3 0.960 . S
H10 C6 0.960 . S
H11 C6 0.960 . S
H12 C6 0.959 . S
C13 N14 1.317 . S
C13 N15 1.348 . S
C13 C16 1.485 . S
N14 C13 1.317 . S
N14 N18 1.370 . S
N15 C13 1.348 . S
N15 C17 1.346 . S
C16 C13 1.485 . S
C16 H20 0.960 . S
C16 H21 0.961 . S
C16 H22 0.960 . S
C17 N15 1.346 . S
C17 N18 1.307 . S
C17 C19 1.486 . S
N18 N14 1.370 . S
N18 C17 1.307 . S
C19 C17 1.486 . S
C19 H23 0.960 . S
C19 H24 0.960 . S
C19 H25 0.959 . S
H20 C16 0.960 . S
H21 C16 0.961 . S
H22 C16 0.960 . S
H23 C19 0.960 . S
H24 C19 0.960 . S
H25 C19 0.959 . S
C26 N27 1.317 . S
C26 N28 1.348 . S
C26 C29 1.485 . S
N27 C26 1.317 . S
N27 N31 1.370 . S
N28 C26 1.348 . S
N28 C30 1.346 . S
C29 C26 1.485 . S
C29 H33 0.960 . S
C29 H34 0.961 . S
C29 H35 0.960 . S
C30 N28 1.346 . S
C30 N31 1.307 . S
C30 C32 1.486 . S
N31 N27 1.370 . S
N31 C30 1.307 . S
C32 C30 1.486 . S
C32 H36 0.960 . S
C32 H37 0.960 . S
C32 H38 0.959 . S
H33 C29 0.960 . S
H34 C29 0.961 . S
H35 C29 0.960 . S
H36 C32 0.960 . S
H37 C32 0.960 . S
H38 C32 0.959 . S
C39 N40 1.317 . S
C39 N41 1.348 . S
C39 C42 1.485 . S
N40 C39 1.317 . S
N40 N44 1.370 . S
N41 C39 1.348 . S
N41 C43 1.346 . S
C42 C39 1.485 . S
C42 H46 0.960 . S
C42 H47 0.961 . S
C42 H48 0.960 . S
C43 N41 1.346 . S
C43 N44 1.307 . S
C43 C45 1.486 . S
N44 N40 1.370 . S
N44 C43 1.307 . S
C45 C43 1.486 . S
C45 H49 0.960 . S
C45 H50 0.960 . S
C45 H51 0.959 . S
H46 C42 0.960 . S
H47 C42 0.961 . S
H48 C42 0.960 . S
H49 C45 0.960 . S
H50 C45 0.960 . S
H51 C45 0.959 . S
C52 N53 1.317 . S
C52 N54 1.348 . S
C52 C55 1.485 . S
N53 C52 1.317 . S
N53 N57 1.370 . S
N54 C52 1.348 . S
N54 C56 1.346 . S
C55 C52 1.485 . S
C55 H59 0.960 . S
C55 H60 0.961 . S
C55 H61 0.960 . S
C56 N54 1.346 . S
C56 N57 1.307 . S
C56 C58 1.486 . S
N57 N53 1.370 . S
N57 C56 1.307 . S
C58 C56 1.486 . S
C58 H62 0.960 . S
C58 H63 0.960 . S
C58 H64 0.959 . S
H59 C55 0.960 . S
H60 C55 0.961 . S
H61 C55 0.960 . S
H62 C58 0.960 . S
H63 C58 0.960 . S
H64 C58 0.959 . S
C65 N66 1.317 . S
C65 N67 1.348 . S
C65 C68 1.485 . S
N66 C65 1.317 . S
N66 N70 1.370 . S
N67 C65 1.348 . S
N67 C69 1.346 . S
C68 C65 1.485 . S
C68 H72 0.960 . S
C68 H73 0.961 . S
C68 H74 0.960 . S
C69 N67 1.346 . S
C69 N70 1.307 . S
C69 C71 1.486 . S
N70 N66 1.370 . S
N70 C69 1.307 . S
C71 C69 1.486 . S
C71 H75 0.960 . S
C71 H76 0.960 . S
C71 H77 0.959 . S
H72 C68 0.960 . S
H73 C68 0.961 . S
H74 C68 0.960 . S
H75 C71 0.960 . S
H76 C71 0.960 . S
H77 C71 0.959 . S
C78 N79 1.317 . S
C78 N80 1.348 . S
C78 C81 1.485 . S
N79 C78 1.317 . S
N79 N83 1.370 . S
N80 C78 1.348 . S
N80 C82 1.346 . S
C81 C78 1.485 . S
C81 H85 0.960 . S
C81 H86 0.961 . S
C81 H87 0.960 . S
C82 N80 1.346 . S
C82 N83 1.307 . S
C82 C84 1.486 . S
N83 N79 1.370 . S
N83 C82 1.307 . S
C84 C82 1.486 . S
C84 H88 0.960 . S
C84 H89 0.960 . S
C84 H90 0.959 . S
H85 C81 0.960 . S
H86 C81 0.961 . S
H87 C81 0.960 . S
H88 C84 0.960 . S
H89 C84 0.960 . S
H90 C84 0.959 . S
C91 N92 1.317 . S
C91 N93 1.348 . S
C91 C94 1.485 . S
N92 C91 1.317 . S
N92 N96 1.370 . S
N93 C91 1.348 . S
N93 C95 1.346 . S
C94 C91 1.485 . S
C94 H98 0.960 . S
C94 H99 0.961 . S
C94 H100 0.960 . S
C95 N93 1.346 . S
C95 N96 1.307 . S
C95 C97 1.486 . S
N96 N92 1.370 . S
N96 C95 1.307 . S
C97 C95 1.486 . S
C97 H101 0.960 . S
C97 H102 0.960 . S
C97 H103 0.959 . S
H98 C94 0.960 . S
H99 C94 0.961 . S
H100 C94 0.960 . S
H101 C97 0.960 . S
H102 C97 0.960 . S
H103 C97 0.959 . S
Dy104 O108 2.398 . S
Dy104 O109 2.491 . S
Dy104 O110 2.403 . S
Dy104 O111 2.645 1_545 S
Dy104 O115 2.326 . S
Dy104 O119 2.310 . S
Dy104 O120 2.351 1_545 S
C105 O116 1.185 . S
C105 O117 1.355 1_655 S
C106 O108 1.185 . S
C106 O109 1.355 . S
Dy107 O111 2.296 1_545 S
Dy107 O114 2.351 . S
Dy107 O116 2.398 1_445 S
Dy107 O117 2.491 1_545 S
Dy107 O118 2.403 1_455 S
Dy107 O119 2.664 . S
Dy107 O121 2.326 1_445 S
O108 Dy104 2.398 . S
O108 C106 1.185 . S
O109 Dy104 2.491 . S
O109 C106 1.355 . S
O110 Dy104 2.403 . S
O110 C112 1.254 1_545 S
O111 Dy104 2.645 1_565 S
O111 Dy107 2.296 1_565 S
O111 C112 1.280 . S
C112 O110 1.254 1_565 S
C112 O111 1.280 . S
C113 O118 1.254 . S
C113 O119 1.268 1_655 S
O114 Dy107 2.351 . S
O114 C122 1.249 . S
O115 Dy104 2.326 . S
O115 C122 1.267 . S
O116 C105 1.185 . S
O116 Dy107 2.398 1_665 S
O117 C105 1.355 1_455 S
O117 Dy107 2.491 1_565 S
O118 Dy107 2.403 1_655 S
O118 C113 1.254 . S
O119 Dy104 2.310 . S
O119 Dy107 2.664 . S
O119 C113 1.268 1_455 S
O120 Dy104 2.351 1_565 S
O120 C123 1.249 . S
O121 Dy107 2.326 1_665 S
O121 C123 1.267 1_655 S
C122 O114 1.249 . S
C122 O115 1.267 . S
C123 O120 1.249 . S
C123 O121 1.267 1_455 S
Dy124 O128 2.398 . S
Dy124 O129 2.491 . S
Dy124 O130 2.403 1_545 S
Dy124 O131 2.664 1_545 S
Dy124 O135 2.326 . S
Dy124 O139 2.310 . S
Dy124 O140 2.351 . S
C125 O136 1.185 1_565 S
C125 O137 1.355 . S
C126 O128 1.185 . S
C126 O129 1.355 . S
Dy127 O131 2.309 1_546 S
Dy127 O134 2.351 1_556 S
Dy127 O136 2.398 . S
Dy127 O137 2.491 1_545 S
Dy127 O138 2.403 . S
Dy127 O139 2.664 1_556 S
Dy127 O141 2.326 . S
O128 Dy124 2.398 . S
O128 C126 1.185 . S
O129 Dy124 2.491 . S
O129 C126 1.355 . S
O130 Dy124 2.403 1_565 S
O130 C132 1.254 . S
O131 Dy124 2.664 1_565 S
O131 Dy127 2.309 1_564 S
O131 C132 1.268 . S
C132 O130 1.254 . S
C132 O131 1.268 . S
C133 O138 1.254 1_554 S
C133 O139 1.268 . S
O134 Dy127 2.351 1_554 S
O134 C142 1.249 . S
O135 Dy124 2.326 . S
O135 C142 1.267 . S
O136 C125 1.185 1_545 S
O136 Dy127 2.398 . S
O137 C125 1.355 . S
O137 Dy127 2.491 1_565 S
O138 Dy127 2.403 . S
O138 C133 1.254 1_556 S
O139 Dy124 2.310 . S
O139 Dy127 2.664 1_554 S
O139 C133 1.268 . S
O140 Dy124 2.351 . S
O140 C143 1.285 . S
O141 Dy127 2.326 . S
O141 C143 1.252 1_556 S
C142 O134 1.249 . S
C142 O135 1.267 . S
C143 O140 1.285 . S
C143 O141 1.252 1_554 S
Dy144 O148 2.398 . S
Dy144 O149 2.491 . S
Dy144 O150 2.403 . S
Dy144 O151 2.664 . S
Dy144 O155 2.326 . S
Dy144 O159 2.310 . S
Dy144 O160 2.351 . S
C145 O156 1.185 . S
C145 O157 1.355 . S
C146 O148 1.185 . S
C146 O149 1.355 . S
Dy147 O151 2.310 . S
Dy147 O154 2.351 . S
Dy147 O156 2.398 . S
Dy147 O157 2.491 . S
Dy147 O158 2.403 . S
Dy147 O159 2.664 . S
Dy147 O161 2.326 . S
O148 Dy144 2.398 . S
O148 C146 1.185 . S
O149 Dy144 2.491 . S
O149 C146 1.355 . S
O150 Dy144 2.403 . S
O150 C152 1.254 . S
O151 Dy144 2.664 . S
O151 Dy147 2.310 . S
O151 C152 1.268 . S
C152 O150 1.254 . S
C152 O151 1.268 . S
C153 O158 1.254 . S
C153 O159 1.268 . S
O154 Dy147 2.351 . S
O154 C162 1.249 . S
O155 Dy144 2.326 . S
O155 C162 1.267 . S
O156 C145 1.185 . S
O156 Dy147 2.398 . S
O157 C145 1.355 . S
O157 Dy147 2.491 . S
O158 Dy147 2.403 . S
O158 C153 1.254 . S
O159 Dy144 2.310 . S
O159 Dy147 2.664 . S
O159 C153 1.268 . S
O160 Dy144 2.351 . S
O160 C163 1.249 . S
O161 Dy147 2.326 . S
O161 C163 1.267 . S
C162 O154 1.249 . S
C162 O155 1.267 . S
C163 O160 1.249 . S
C163 O161 1.267 . S
Dy164 O168 2.398 . S
Dy164 O169 2.491 . S
Dy164 O170 2.403 1_455 S
Dy164 O171 2.664 1_455 S
Dy164 O175 2.326 . S
Dy164 O179 2.310 1_554 S
Dy164 O180 2.351 1_454 S
C165 O176 1.185 . S
C165 O177 1.355 . S
C166 O168 1.185 . S
C166 O169 1.355 . S
Dy167 O171 2.310 1_556 S
Dy167 O174 2.351 1_656 S
Dy167 O176 2.398 . S
Dy167 O177 2.491 . S
Dy167 O178 2.403 1_655 S
Dy167 O179 2.664 1_655 S
Dy167 O181 2.326 . S
O168 Dy164 2.398 . S
O168 C166 1.185 . S
O169 Dy164 2.491 . S
O169 C166 1.355 . S
O170 Dy164 2.403 1_655 S
O170 C172 1.254 . S
O171 Dy164 2.664 1_655 S
O171 Dy167 2.310 1_554 S
O171 C172 1.268 . S
C172 O170 1.254 . S
C172 O171 1.268 . S
C173 O178 1.254 . S
C173 O179 1.268 . S
O174 Dy167 2.351 1_454 S
O174 C182 1.249 . S
O175 Dy164 2.326 . S
O175 C182 1.267 . S
O176 C165 1.185 . S
O176 Dy167 2.398 . S
O177 C165 1.355 . S
O177 Dy167 2.491 . S
O178 Dy167 2.403 1_455 S
O178 C173 1.254 . S
O179 Dy164 2.310 1_556 S
O179 Dy167 2.664 1_455 S
O179 C173 1.268 . S
O180 Dy164 2.351 1_656 S
O180 C183 1.249 . S
O181 Dy167 2.326 . S
O181 C183 1.267 . S
C182 O174 1.249 . S
C182 O175 1.267 . S
C183 O180 1.249 . S
C183 O181 1.267 . S
C184 C185 1.349 . S
C184 C186 1.327 . S
C184 H209 0.950 . S
C185 C184 1.349 . S
C185 C201 1.349 . S
C186 C184 1.327 . S
C186 C205 1.429 . S
C186 H210 0.950 . S
C187 C204 1.574 . S
C187 C206 1.368 . S
C187 H211 0.949 . S
H188 C192 0.949 . S
C189 C190 1.349 . S
C189 C191 1.327 . S
C189 H212 0.950 . S
C190 C189 1.349 . S
C190 C202 1.349 . S
C191 C189 1.327 . S
C191 C207 1.429 . S
C191 H213 0.950 . S
C192 H188 0.949 . S
C192 C200 1.574 . S
C192 C208 1.368 . S
H193 C201 0.950 . S
H194 C199 0.950 . S
H195 C200 0.949 . S
H196 C202 0.950 . S
H197 C203 0.950 . S
H198 C204 0.949 . S
C199 H194 0.950 . S
C199 C201 1.327 . S
C199 C205 1.429 . S
C200 C192 1.574 . S
C200 H195 0.949 . S
C200 C206 1.368 . S
C201 C185 1.349 . S
C201 H193 0.950 . S
C201 C199 1.327 . S
C202 C190 1.349 . S
C202 H196 0.950 . S
C202 C203 1.327 . S
C203 H197 0.950 . S
C203 C202 1.327 . S
C203 C207 1.429 . S
C204 C187 1.574 . S
C204 H198 0.949 . S
C204 C208 1.368 . S
C205 C186 1.429 . S
C205 C199 1.429 . S
C205 C206 1.523 . S
C206 C187 1.368 . S
C206 C200 1.368 . S
C206 C205 1.523 . S
C207 C191 1.429 . S
C207 C203 1.429 . S
C207 C208 1.523 . S
C208 C192 1.368 . S
C208 C204 1.368 . S
C208 C207 1.523 . S
H209 C184 0.950 . S
H210 C186 0.950 . S
H211 C187 0.949 . S
H212 C189 0.950 . S
H213 C191 0.950 . S
C214 C215 1.349 . S
C214 C216 1.327 . S
C214 H239 0.950 . S
C215 C214 1.349 . S
C215 C231 1.349 . S
C216 C214 1.327 . S
C216 C235 1.429 . S
C216 H240 0.950 . S
C217 C234 1.574 . S
C217 C236 1.368 . S
C217 H241 0.949 . S
H218 C222 0.949 . S
C219 C220 1.349 . S
C219 C221 1.327 . S
C219 H242 0.950 . S
C220 C219 1.349 . S
C220 C232 1.349 . S
C221 C219 1.327 . S
C221 C237 1.429 . S
C221 H243 0.950 . S
C222 H218 0.949 . S
C222 C230 1.574 . S
C222 C238 1.368 . S
H223 C231 0.950 . S
H224 C229 0.950 . S
H225 C230 0.949 . S
H226 C232 0.950 1_545 S
H227 C233 0.950 1_545 S
H228 C234 0.949 . S
C229 H224 0.950 . S
C229 C231 1.327 . S
C229 C235 1.429 . S
C230 C222 1.574 . S
C230 H225 0.949 . S
C230 C236 1.368 . S
C231 C215 1.349 . S
C231 H223 0.950 . S
C231 C229 1.327 . S
C232 C220 1.349 . S
C232 H226 0.950 1_565 S
C232 C233 1.327 . S
C233 H227 0.950 1_565 S
C233 C232 1.327 . S
C233 C237 1.429 . S
C234 C217 1.574 . S
C234 H228 0.949 . S
C234 C238 1.368 . S
C235 C216 1.429 . S
C235 C229 1.429 . S
C235 C236 1.523 . S
C236 C217 1.368 . S
C236 C230 1.368 . S
C236 C235 1.523 . S
C237 C221 1.429 . S
C237 C233 1.429 . S
C237 C238 1.523 . S
C238 C222 1.368 . S
C238 C234 1.368 . S
C238 C237 1.523 . S
H239 C214 0.950 . S
H240 C216 0.950 . S
H241 C217 0.949 . S
H242 C219 0.950 . S
H243 C221 0.950 . S
C244 C245 1.349 . S
C244 C246 1.327 . S
C244 H269 0.950 . S
C245 C244 1.349 . S
C245 C261 1.349 . S
C246 C244 1.327 . S
C246 C265 1.429 . S
C246 H270 0.950 . S
C247 C264 1.574 . S
C247 C266 1.368 . S
C247 H271 0.949 . S
H248 C252 0.949 . S
C249 C250 1.349 . S
C249 C251 1.327 . S
C249 H272 0.950 . S
C250 C249 1.349 . S
C250 C262 1.349 . S
C251 C249 1.327 . S
C251 C267 1.429 . S
C251 H273 0.950 . S
C252 H248 0.949 . S
C252 C260 1.574 . S
C252 C268 1.368 . S
H253 C261 0.950 . S
H254 C259 0.950 . S
H255 C260 0.949 . S
H256 C262 0.950 . S
H257 C263 0.950 . S
H258 C264 0.949 . S
C259 H254 0.950 . S
C259 C261 1.327 . S
C259 C265 1.429 . S
C260 C252 1.574 . S
C260 H255 0.949 . S
C260 C266 1.368 . S
C261 C245 1.349 . S
C261 H253 0.950 . S
C261 C259 1.327 . S
C262 C250 1.349 . S
C262 H256 0.950 . S
C262 C263 1.327 . S
C263 H257 0.950 . S
C263 C262 1.327 . S
C263 C267 1.429 . S
C264 C247 1.574 . S
C264 H258 0.949 . S
C264 C268 1.368 . S
C265 C246 1.429 . S
C265 C259 1.429 . S
C265 C266 1.523 . S
C266 C247 1.368 . S
C266 C260 1.368 . S
C266 C265 1.523 . S
C267 C251 1.429 . S
C267 C263 1.429 . S
C267 C268 1.523 . S
C268 C252 1.368 . S
C268 C264 1.368 . S
C268 C267 1.523 . S
H269 C244 0.950 . S
H270 C246 0.950 . S
H271 C247 0.949 . S
H272 C249 0.950 . S
H273 C251 0.950 . S
C274 C275 1.349 . S
C274 C276 1.327 . S
C274 H299 0.950 . S
C275 C274 1.349 . S
C275 C291 1.349 . S
C276 C274 1.327 . S
C276 C295 1.429 . S
C276 H300 0.950 . S
C277 C294 1.574 . S
C277 C296 1.368 . S
C277 H301 0.949 . S
H278 C282 0.949 . S
C279 C280 1.349 . S
C279 C281 1.327 . S
C279 H302 0.950 . S
C280 C279 1.349 . S
C280 C292 1.349 . S
C281 C279 1.327 . S
C281 C297 1.429 . S
C281 H303 0.950 . S
C282 H278 0.949 . S
C282 C290 1.574 . S
C282 C298 1.368 . S
H283 C291 0.950 . S
H284 C289 0.950 . S
H285 C290 0.949 . S
H286 C292 0.950 . S
H287 C293 0.950 . S
H288 C294 0.949 . S
C289 H284 0.950 . S
C289 C291 1.327 . S
C289 C295 1.429 . S
C290 C282 1.574 . S
C290 H285 0.949 . S
C290 C296 1.368 . S
C291 C275 1.349 . S
C291 H283 0.950 . S
C291 C289 1.327 . S
C292 C280 1.349 . S
C292 H286 0.950 . S
C292 C293 1.327 . S
C293 H287 0.950 . S
C293 C292 1.327 . S
C293 C297 1.429 . S
C294 C277 1.574 . S
C294 H288 0.949 . S
C294 C298 1.368 . S
C295 C276 1.429 . S
C295 C289 1.429 . S
C295 C296 1.523 . S
C296 C277 1.368 . S
C296 C290 1.368 . S
C296 C295 1.523 . S
C297 C281 1.429 . S
C297 C293 1.429 . S
C297 C298 1.523 . S
C298 C282 1.368 . S
C298 C294 1.368 . S
C298 C297 1.523 . S
H299 C274 0.950 . S
H300 C276 0.950 . S
H301 C277 0.949 . S
H302 C279 0.950 . S
H303 C281 0.950 . S
C304 C305 1.349 . S
C304 C306 1.327 . S
C304 H329 0.950 . S
C305 C304 1.349 . S
C305 C321 1.349 . S
C306 C304 1.327 . S
C306 C325 1.429 . S
C306 H330 0.950 . S
C307 C324 1.574 . S
C307 C326 1.368 . S
C307 H331 0.949 . S
H308 C312 0.949 . S
C309 C310 1.349 . S
C309 C311 1.327 . S
C309 H332 0.950 . S
C310 C309 1.349 . S
C310 C322 1.349 . S
C311 C309 1.327 . S
C311 C327 1.429 . S
C311 H333 0.950 . S
C312 H308 0.949 . S
C312 C320 1.574 . S
C312 C328 1.368 . S
H313 C321 0.950 . S
H314 C319 0.950 . S
H315 C320 0.949 . S
H316 C322 0.950 . S
H317 C323 0.950 . S
H318 C324 0.949 . S
C319 H314 0.950 . S
C319 C321 1.327 . S
C319 C325 1.429 . S
C320 C312 1.574 . S
C320 H315 0.949 . S
C320 C326 1.368 . S
C321 C305 1.349 . S
C321 H313 0.950 . S
C321 C319 1.327 . S
C322 C310 1.349 . S
C322 H316 0.950 . S
C322 C323 1.327 . S
C323 H317 0.950 . S
C323 C322 1.327 . S
C323 C327 1.429 . S
C324 C307 1.574 . S
C324 H318 0.949 . S
C324 C328 1.368 . S
C325 C306 1.429 . S
C325 C319 1.429 . S
C325 C326 1.523 . S
C326 C307 1.368 . S
C326 C320 1.368 . S
C326 C325 1.523 . S
C327 C311 1.429 . S
C327 C323 1.429 . S
C327 C328 1.523 . S
C328 C312 1.368 . S
C328 C324 1.368 . S
C328 C327 1.523 . S
H329 C304 0.950 . S
H330 C306 0.950 . S
H331 C307 0.949 . S
H332 C309 0.950 . S
H333 C311 0.950 . S
C334 C335 1.349 . S
C334 C336 1.327 . S
C334 H359 0.950 . S
C335 C334 1.349 . S
C335 C351 1.349 . S
C336 C334 1.327 . S
C336 C355 1.429 . S
C336 H360 0.950 . S
C337 C354 1.574 . S
C337 C356 1.368 . S
C337 H361 0.949 . S
H338 C342 0.949 . S
C339 C340 1.345 1_545 S
C339 C341 1.323 1_545 S
C339 H362 0.958 . S
C340 C339 1.345 1_565 S
C340 C352 1.349 . S
C341 C339 1.323 1_565 S
C341 C357 1.429 . S
C341 H363 0.950 1_565 S
C342 H338 0.949 . S
C342 C350 1.574 . S
C342 C358 1.368 . S
H343 C351 0.950 . S
H344 C349 0.950 . S
H345 C350 0.949 . S
H346 C352 0.950 . S
H347 C353 0.950 . S
H348 C354 0.949 . S
C349 H344 0.950 . S
C349 C351 1.327 . S
C349 C355 1.429 . S
C350 C342 1.574 . S
C350 H345 0.949 . S
C350 C356 1.368 . S
C351 C335 1.349 . S
C351 H343 0.950 . S
C351 C349 1.327 . S
C352 C340 1.349 . S
C352 H346 0.950 . S
C352 C353 1.327 . S
C353 H347 0.950 . S
C353 C352 1.327 . S
C353 C357 1.429 . S
C354 C337 1.574 . S
C354 H348 0.949 . S
C354 C358 1.368 . S
C355 C336 1.429 . S
C355 C349 1.429 . S
C355 C356 1.523 . S
C356 C337 1.368 . S
C356 C350 1.368 . S
C356 C355 1.523 . S
C357 C341 1.429 . S
C357 C353 1.429 . S
C357 C358 1.523 . S
C358 C342 1.368 . S
C358 C354 1.368 . S
C358 C357 1.523 . S
H359 C334 0.950 . S
H360 C336 0.950 . S
H361 C337 0.949 . S
H362 C339 0.958 . S
H363 C341 0.950 1_545 S
C364 C365 1.349 . S
C364 C366 1.327 . S
C364 H389 0.950 . S
C365 C364 1.349 . S
C365 C381 1.349 . S
C366 C364 1.327 . S
C366 C385 1.429 . S
C366 H390 0.950 . S
C367 C384 1.574 . S
C367 C386 1.368 . S
C367 H391 0.949 . S
H368 C372 0.949 . S
C369 C370 1.349 . S
C369 C371 1.327 . S
C369 H392 0.950 . S
C370 C369 1.349 . S
C370 C382 1.349 . S
C371 C369 1.327 . S
C371 C387 1.429 . S
C371 H393 0.950 . S
C372 H368 0.949 . S
C372 C380 1.574 . S
C372 C388 1.368 . S
H373 C381 0.950 . S
H374 C379 0.950 . S
H375 C380 0.949 . S
H376 C382 0.950 . S
H377 C383 0.950 . S
H378 C384 0.949 . S
C379 H374 0.950 . S
C379 C381 1.327 . S
C379 C385 1.429 . S
C380 C372 1.574 . S
C380 H375 0.949 . S
C380 C386 1.368 . S
C381 C365 1.349 . S
C381 H373 0.950 . S
C381 C379 1.327 . S
C382 C370 1.349 . S
C382 H376 0.950 . S
C382 C383 1.327 . S
C383 H377 0.950 . S
C383 C382 1.327 . S
C383 C387 1.429 . S
C384 C367 1.574 . S
C384 H378 0.949 . S
C384 C388 1.368 . S
C385 C366 1.429 . S
C385 C379 1.429 . S
C385 C386 1.523 . S
C386 C367 1.368 . S
C386 C380 1.368 . S
C386 C385 1.523 . S
C387 C371 1.429 . S
C387 C383 1.429 . S
C387 C388 1.523 . S
C388 C372 1.368 . S
C388 C384 1.368 . S
C388 C387 1.523 . S
H389 C364 0.950 . S
H390 C366 0.950 . S
H391 C367 0.949 . S
H392 C369 0.950 . S
H393 C371 0.950 . S
C394 C395 1.349 . S
C394 C396 1.327 . S
C394 H419 0.950 . S
C395 C394 1.349 . S
C395 C411 1.349 . S
C396 C394 1.327 . S
C396 C415 1.429 . S
C396 H420 0.950 . S
C397 C414 1.574 . S
C397 C416 1.368 . S
C397 H421 0.949 . S
H398 C402 0.949 . S
C399 C400 1.349 . S
C399 C401 1.327 . S
C399 H422 0.950 . S
C400 C399 1.349 . S
C400 C412 1.349 . S
C401 C399 1.327 . S
C401 C417 1.429 . S
C401 H423 0.950 . S
C402 H398 0.949 . S
C402 C410 1.574 . S
C402 C418 1.368 . S
H403 C411 0.950 . S
H404 C409 0.950 . S
H405 C410 0.949 . S
H406 C412 0.950 . S
H407 C413 0.950 . S
H408 C414 0.949 . S
C409 H404 0.950 . S
C409 C411 1.327 . S
C409 C415 1.429 . S
C410 C402 1.574 . S
C410 H405 0.949 . S
C410 C416 1.368 . S
C411 C395 1.349 . S
C411 H403 0.950 . S
C411 C409 1.327 . S
C412 C400 1.349 . S
C412 H406 0.950 . S
C412 C413 1.327 . S
C413 H407 0.950 . S
C413 C412 1.327 . S
C413 C417 1.429 . S
C414 C397 1.574 . S
C414 H408 0.949 . S
C414 C418 1.368 . S
C415 C396 1.429 . S
C415 C409 1.429 . S
C415 C416 1.523 . S
C416 C397 1.368 . S
C416 C410 1.368 . S
C416 C415 1.523 . S
C417 C401 1.429 . S
C417 C413 1.429 . S
C417 C418 1.523 . S
C418 C402 1.368 . S
C418 C414 1.368 . S
C418 C417 1.523 . S
H419 C394 0.950 . S
H420 C396 0.950 . S
H421 C397 0.949 . S
H422 C399 0.950 . S
H423 C401 0.950 . S
C424 C425 1.349 . S
C424 C426 1.327 . S
C424 H449 0.950 . S
C425 C424 1.349 . S
C425 C441 1.349 . S
C426 C424 1.327 . S
C426 C445 1.429 . S
C426 H450 0.950 . S
C427 C444 1.574 . S
C427 C446 1.368 . S
C427 H451 0.949 . S
H428 C432 0.949 . S
C429 C430 1.349 . S
C429 C431 1.327 . S
C429 H452 0.950 . S
C430 C429 1.349 . S
C430 C442 1.349 . S
C431 C429 1.327 . S
C431 C447 1.429 . S
C431 H453 0.950 . S
C432 H428 0.949 . S
C432 C440 1.574 . S
C432 C448 1.368 . S
H433 C441 0.950 . S
H434 C439 0.950 . S
H435 C440 0.949 . S
H436 C442 0.950 . S
H437 C443 0.950 . S
H438 C444 0.949 . S
C439 H434 0.950 . S
C439 C441 1.327 . S
C439 C445 1.429 . S
C440 C432 1.574 . S
C440 H435 0.949 . S
C440 C446 1.368 . S
C441 C425 1.349 . S
C441 H433 0.950 . S
C441 C439 1.327 . S
C442 C430 1.349 . S
C442 H436 0.950 . S
C442 C443 1.327 . S
C443 H437 0.950 . S
C443 C442 1.327 . S
C443 C447 1.429 . S
C444 C427 1.574 . S
C444 H438 0.949 . S
C444 C448 1.368 . S
C445 C426 1.429 . S
C445 C439 1.429 . S
C445 C446 1.523 . S
C446 C427 1.368 . S
C446 C440 1.368 . S
C446 C445 1.523 . S
C447 C431 1.429 . S
C447 C443 1.429 . S
C447 C448 1.523 . S
C448 C432 1.368 . S
C448 C444 1.368 . S
C448 C447 1.523 . S
H449 C424 0.950 . S
H450 C426 0.950 . S
H451 C427 0.949 . S
H452 C429 0.950 . S
H453 C431 0.950 . S
C454 C455 1.349 . S
C454 C456 1.327 . S
C454 H479 0.950 . S
C455 C454 1.349 . S
C455 C471 1.349 . S
C456 C454 1.327 . S
C456 C475 1.429 . S
C456 H480 0.950 . S
C457 C474 1.574 . S
C457 C476 1.368 . S
C457 H481 0.949 . S
H458 C462 0.949 . S
C459 C460 1.337 1_554 S
C459 C461 1.311 1_554 S
C459 H482 0.979 . S
C460 C459 1.337 1_556 S
C460 C472 1.349 . S
C461 C459 1.311 1_556 S
C461 C477 1.429 . S
C461 H483 0.950 . S
C462 H458 0.949 . S
C462 C470 1.574 . S
C462 C478 1.368 . S
H463 C471 0.950 . S
H464 C469 0.950 . S
H465 C470 0.949 . S
H466 C472 0.950 . S
H467 C473 0.950 . S
H468 C474 0.949 . S
C469 H464 0.950 . S
C469 C471 1.327 . S
C469 C475 1.429 . S
C470 C462 1.574 . S
C470 H465 0.949 . S
C470 C476 1.368 . S
C471 C455 1.349 . S
C471 H463 0.950 . S
C471 C469 1.327 . S
C472 C460 1.349 . S
C472 H466 0.950 . S
C472 C473 1.327 . S
C473 H467 0.950 . S
C473 C472 1.327 . S
C473 C477 1.429 . S
C474 C457 1.574 . S
C474 H468 0.949 . S
C474 C478 1.368 . S
C475 C456 1.429 . S
C475 C469 1.429 . S
C475 C476 1.523 . S
C476 C457 1.368 . S
C476 C470 1.368 . S
C476 C475 1.523 . S
C477 C461 1.429 . S
C477 C473 1.429 . S
C477 C478 1.523 . S
C478 C462 1.368 . S
C478 C474 1.368 . S
C478 C477 1.523 . S
H479 C454 0.950 . S
H480 C456 0.950 . S
H481 C457 0.949 . S
H482 C459 0.979 . S
H483 C461 0.950 . S
C484 C485 1.349 . S
C484 C486 1.327 . S
C484 H509 0.950 . S
C485 C484 1.349 . S
C485 C501 1.349 . S
C486 C484 1.327 . S
C486 C505 1.429 . S
C486 H510 0.950 . S
C487 C504 1.574 . S
C487 C506 1.368 . S
C487 H511 0.949 . S
H488 C492 0.949 . S
C489 C490 1.349 . S
C489 C491 1.327 . S
C489 H512 0.950 . S
C490 C489 1.349 . S
C490 C502 1.351 . S
C491 C489 1.327 . S
C491 C507 1.429 . S
C491 H513 0.950 . S
C492 H488 0.949 . S
C492 C500 1.574 . S
C492 C508 1.368 . S
H493 C501 0.950 . S
H494 C499 0.950 . S
H495 C500 0.949 . S
H496 C502 0.945 1_455 S
H497 C503 0.950 . S
H498 C504 0.949 . S
C499 H494 0.950 . S
C499 C501 1.327 . S
C499 C505 1.429 . S
C500 C492 1.574 . S
C500 H495 0.949 . S
C500 C506 1.368 . S
C501 C485 1.349 . S
C501 H493 0.950 . S
C501 C499 1.327 . S
C502 C490 1.351 . S
C502 H496 0.945 1_655 S
C502 C503 1.329 . S
C503 H497 0.950 . S
C503 C502 1.329 . S
C503 C507 1.429 . S
C504 C487 1.574 . S
C504 H498 0.949 . S
C504 C508 1.368 . S
C505 C486 1.429 . S
C505 C499 1.429 . S
C505 C506 1.523 . S
C506 C487 1.368 . S
C506 C500 1.368 . S
C506 C505 1.523 . S
C507 C491 1.429 . S
C507 C503 1.429 . S
C507 C508 1.523 . S
C508 C492 1.368 . S
C508 C504 1.368 . S
C508 C507 1.523 . S
H509 C484 0.950 . S
H510 C486 0.950 . S
H511 C487 0.949 . S
H512 C489 0.950 . S
H513 C491 0.950 . S
C514 C515 1.349 . S
C514 C516 1.327 . S
C514 H539 0.950 . S
C515 C514 1.349 . S
C515 C531 1.349 . S
C516 C514 1.327 . S
C516 C535 1.429 . S
C516 H540 0.950 . S
C517 C534 1.574 . S
C517 C536 1.368 . S
C517 H541 0.949 . S
H518 C522 0.949 . S
C519 C520 1.349 . S
C519 C521 1.327 . S
C519 H542 0.950 . S
C520 C519 1.349 . S
C520 C532 1.349 . S
C521 C519 1.327 . S
C521 C537 1.429 . S
C521 H543 0.950 . S
C522 H518 0.949 . S
C522 C530 1.574 . S
C522 C538 1.368 . S
H523 C531 0.950 . S
H524 C529 0.950 . S
H525 C530 0.949 . S
H526 C532 0.950 . S
H527 C533 0.950 . S
H528 C534 0.949 . S
C529 H524 0.950 . S
C529 C531 1.327 . S
C529 C535 1.429 . S
C530 C522 1.574 . S
C530 H525 0.949 . S
C530 C536 1.368 . S
C531 C515 1.349 . S
C531 H523 0.950 . S
C531 C529 1.327 . S
C532 C520 1.349 . S
C532 H526 0.950 . S
C532 C533 1.327 . S
C533 H527 0.950 . S
C533 C532 1.327 . S
C533 C537 1.429 . S
C534 C517 1.574 . S
C534 H528 0.949 . S
C534 C538 1.368 . S
C535 C516 1.429 . S
C535 C529 1.429 . S
C535 C536 1.523 . S
C536 C517 1.368 . S
C536 C530 1.368 . S
C536 C535 1.523 . S
C537 C521 1.429 . S
C537 C533 1.429 . S
C537 C538 1.523 . S
C538 C522 1.368 . S
C538 C534 1.368 . S
C538 C537 1.523 . S
H539 C514 0.950 . S
H540 C516 0.950 . S
H541 C517 0.949 . S
H542 C519 0.950 . S
H543 C521 0.950 . S
C544 C545 1.349 . S
C544 C546 1.327 . S
C544 H569 0.950 . S
C545 C544 1.349 . S
C545 C561 1.349 . S
C546 C544 1.327 . S
C546 C565 1.429 . S
C546 H570 0.950 . S
C547 C564 1.574 . S
C547 C566 1.368 . S
C547 H571 0.949 . S
H548 C552 0.949 . S
C549 C550 1.349 . S
C549 C551 1.327 . S
C549 H572 0.950 . S
C550 C549 1.349 . S
C550 C562 1.349 . S
C551 C549 1.327 . S
C551 C567 1.429 . S
C551 H573 0.950 . S
C552 H548 0.949 . S
C552 C560 1.574 . S
C552 C568 1.368 . S
H553 C561 0.950 . S
H554 C559 0.950 . S
H555 C560 0.949 . S
H556 C562 0.950 . S
H557 C563 0.950 . S
H558 C564 0.949 . S
C559 H554 0.950 . S
C559 C561 1.327 . S
C559 C565 1.429 . S
C560 C552 1.574 . S
C560 H555 0.949 . S
C560 C566 1.368 . S
C561 C545 1.349 . S
C561 H553 0.950 . S
C561 C559 1.327 . S
C562 C550 1.349 . S
C562 H556 0.950 . S
C562 C563 1.327 . S
C563 H557 0.950 . S
C563 C562 1.327 . S
C563 C567 1.429 . S
C564 C547 1.574 . S
C564 H558 0.949 . S
C564 C568 1.368 . S
C565 C546 1.429 . S
C565 C559 1.429 . S
C565 C566 1.523 . S
C566 C547 1.368 . S
C566 C560 1.368 . S
C566 C565 1.523 . S
C567 C551 1.429 . S
C567 C563 1.429 . S
C567 C568 1.523 . S
C568 C552 1.368 . S
C568 C564 1.368 . S
C568 C567 1.523 . S
H569 C544 0.950 . S
H570 C546 0.950 . S
H571 C547 0.949 . S
H572 C549 0.950 . S
H573 C551 0.950 . S
C574 C575 1.349 . S
C574 C576 1.327 . S
C574 H599 0.950 . S
C575 C574 1.349 . S
C575 C591 1.349 . S
C576 C574 1.327 . S
C576 C595 1.429 . S
C576 H600 0.950 . S
C577 C594 1.574 . S
C577 C596 1.368 . S
C577 H601 0.949 . S
H578 C582 0.949 . S
C579 C580 1.349 . S
C579 C581 1.327 . S
C579 H602 0.950 . S
C580 C579 1.349 . S
C580 C592 1.349 . S
C581 C579 1.327 . S
C581 C597 1.429 . S
C581 H603 0.950 . S
C582 H578 0.949 . S
C582 C590 1.574 . S
C582 C598 1.368 . S
H583 C591 0.950 . S
H584 C589 0.950 . S
H585 C590 0.949 . S
H586 C592 0.950 . S
H587 C593 0.950 . S
H588 C594 0.949 . S
C589 H584 0.950 . S
C589 C591 1.327 . S
C589 C595 1.429 . S
C590 C582 1.574 . S
C590 H585 0.949 . S
C590 C596 1.368 . S
C591 C575 1.349 . S
C591 H583 0.950 . S
C591 C589 1.327 . S
C592 C580 1.349 . S
C592 H586 0.950 . S
C592 C593 1.327 . S
C593 H587 0.950 . S
C593 C592 1.327 . S
C593 C597 1.429 . S
C594 C577 1.574 . S
C594 H588 0.949 . S
C594 C598 1.368 . S
C595 C576 1.429 . S
C595 C589 1.429 . S
C595 C596 1.523 . S
C596 C577 1.368 . S
C596 C590 1.368 . S
C596 C595 1.523 . S
C597 C581 1.429 . S
C597 C593 1.429 . S
C597 C598 1.523 . S
C598 C582 1.368 . S
C598 C594 1.368 . S
C598 C597 1.523 . S
H599 C574 0.950 . S
H600 C576 0.950 . S
H601 C577 0.949 . S
H602 C579 0.950 . S
H603 C581 0.950 . S
C604 C605 1.349 . S
C604 C606 1.327 . S
C604 H629 0.950 . S
C605 C604 1.349 . S
C605 C621 1.349 . S
C606 C604 1.327 . S
C606 C625 1.429 . S
C606 H630 0.950 . S
C607 C624 1.574 . S
C607 C626 1.368 . S
C607 H631 0.949 . S
H608 C612 0.949 . S
C609 C610 1.349 . S
C609 C611 1.327 . S
C609 H632 0.950 . S
C610 C609 1.349 . S
C610 C622 1.349 . S
C611 C609 1.327 . S
C611 C627 1.429 . S
C611 H633 0.950 . S
C612 H608 0.949 . S
C612 C620 1.574 . S
C612 C628 1.368 . S
H613 C621 0.950 . S
H614 C619 0.950 . S
H615 C620 0.949 . S
H616 C622 0.950 . S
H617 C623 0.950 . S
H618 C624 0.949 . S
C619 H614 0.950 . S
C619 C621 1.327 . S
C619 C625 1.429 . S
C620 C612 1.574 . S
C620 H615 0.949 . S
C620 C626 1.368 . S
C621 C605 1.349 . S
C621 H613 0.950 . S
C621 C619 1.327 . S
C622 C610 1.349 . S
C622 H616 0.950 . S
C622 C623 1.327 . S
C623 H617 0.950 . S
C623 C622 1.327 . S
C623 C627 1.429 . S
C624 C607 1.574 . S
C624 H618 0.949 . S
C624 C628 1.368 . S
C625 C606 1.429 . S
C625 C619 1.429 . S
C625 C626 1.523 . S
C626 C607 1.368 . S
C626 C620 1.368 . S
C626 C625 1.523 . S
C627 C611 1.429 . S
C627 C623 1.429 . S
C627 C628 1.523 . S
C628 C612 1.368 . S
C628 C624 1.368 . S
C628 C627 1.523 . S
H629 C604 0.950 . S
H630 C606 0.950 . S
H631 C607 0.949 . S
H632 C609 0.950 . S
H633 C611 0.950 . S
C634 C635 1.349 . S
C634 C636 1.327 . S
C634 H659 0.950 . S
C635 C634 1.349 . S
C635 C651 1.349 . S
C636 C634 1.327 . S
C636 C655 1.429 . S
C636 H660 0.950 . S
C637 C654 1.574 . S
C637 C656 1.368 . S
C637 H661 0.949 . S
H638 C642 0.949 . S
C639 C640 1.349 . S
C639 C641 1.327 . S
C639 H662 0.950 . S
C640 C639 1.349 . S
C640 C652 1.349 . S
C641 C639 1.327 . S
C641 C657 1.429 . S
C641 H663 0.950 . S
C642 H638 0.949 . S
C642 C650 1.574 . S
C642 C658 1.368 . S
H643 C651 0.950 . S
H644 C649 0.950 . S
H645 C650 0.949 . S
H646 C652 0.950 . S
H647 C653 0.950 . S
H648 C654 0.949 . S
C649 H644 0.950 . S
C649 C651 1.327 . S
C649 C655 1.429 . S
C650 C642 1.574 . S
C650 H645 0.949 . S
C650 C656 1.368 . S
C651 C635 1.349 . S
C651 H643 0.950 . S
C651 C649 1.327 . S
C652 C640 1.349 . S
C652 H646 0.950 . S
C652 C653 1.327 . S
C653 H647 0.950 . S
C653 C652 1.327 . S
C653 C657 1.429 . S
C654 C637 1.574 . S
C654 H648 0.949 . S
C654 C658 1.368 . S
C655 C636 1.429 . S
C655 C649 1.429 . S
C655 C656 1.523 . S
C656 C637 1.368 . S
C656 C650 1.368 . S
C656 C655 1.523 . S
C657 C641 1.429 . S
C657 C653 1.429 . S
C657 C658 1.523 . S
C658 C642 1.368 . S
C658 C654 1.368 . S
C658 C657 1.523 . S
H659 C634 0.950 . S
H660 C636 0.950 . S
H661 C637 0.949 . S
H662 C639 0.950 . S
H663 C641 0.950 . S
C664 C665 1.349 . S
C664 C666 1.327 . S
C664 H689 0.950 . S
C665 C664 1.349 . S
C665 C681 1.349 . S
C666 C664 1.327 . S
C666 C685 1.429 . S
C666 H690 0.950 . S
C667 C684 1.574 . S
C667 C686 1.368 . S
C667 H691 0.949 . S
H668 C672 0.949 . S
C669 C670 1.349 . S
C669 C671 1.327 . S
C669 H692 0.950 1_556 S
C670 C669 1.349 . S
C670 C682 1.349 . S
C671 C669 1.327 . S
C671 C687 1.429 . S
C671 H693 0.950 . S
C672 H668 0.949 . S
C672 C680 1.574 . S
C672 C688 1.368 . S
H673 C681 0.950 . S
H674 C679 0.950 . S
H675 C680 0.949 . S
H676 C682 0.950 . S
H677 C683 0.950 . S
H678 C684 0.949 . S
C679 H674 0.950 . S
C679 C681 1.327 . S
C679 C685 1.429 . S
C680 C672 1.574 . S
C680 H675 0.949 . S
C680 C686 1.368 . S
C681 C665 1.349 . S
C681 H673 0.950 . S
C681 C679 1.327 . S
C682 C670 1.349 . S
C682 H676 0.950 . S
C682 C683 1.327 . S
C683 H677 0.950 . S
C683 C682 1.327 . S
C683 C687 1.429 . S
C684 C667 1.574 . S
C684 H678 0.949 . S
C684 C688 1.368 . S
C685 C666 1.429 . S
C685 C679 1.429 . S
C685 C686 1.523 . S
C686 C667 1.368 . S
C686 C680 1.368 . S
C686 C685 1.523 . S
C687 C671 1.429 . S
C687 C683 1.429 . S
C687 C688 1.523 . S
C688 C672 1.368 . S
C688 C684 1.368 . S
C688 C687 1.523 . S
H689 C664 0.950 . S
H690 C666 0.950 . S
H691 C667 0.949 . S
H692 C669 0.950 1_554 S
H693 C671 0.950 . S
C694 C695 1.349 . S
C694 C696 1.327 . S
C694 H719 0.950 . S
C695 C694 1.349 . S
C695 C711 1.349 . S
C696 C694 1.327 . S
C696 C715 1.429 . S
C696 H720 0.950 . S
C697 C714 1.574 . S
C697 C716 1.368 . S
C697 H721 0.949 . S
H698 C702 0.949 . S
C699 C700 1.349 . S
C699 C701 1.327 . S
C699 H722 0.950 . S
C700 C699 1.349 . S
C700 C712 1.349 . S
C701 C699 1.327 . S
C701 C717 1.429 . S
C701 H723 0.950 . S
C702 H698 0.949 . S
C702 C710 1.574 . S
C702 C718 1.368 . S
H703 C711 0.950 . S
H704 C709 0.950 . S
H705 C710 0.949 . S
H706 C712 0.950 . S
H707 C713 0.950 . S
H708 C714 0.949 . S
C709 H704 0.950 . S
C709 C711 1.327 . S
C709 C715 1.429 . S
C710 C702 1.574 . S
C710 H705 0.949 . S
C710 C716 1.368 . S
C711 C695 1.349 . S
C711 H703 0.950 . S
C711 C709 1.327 . S
C712 C700 1.349 . S
C712 H706 0.950 . S
C712 C713 1.327 . S
C713 H707 0.950 . S
C713 C712 1.327 . S
C713 C717 1.429 . S
C714 C697 1.574 . S
C714 H708 0.949 . S
C714 C718 1.368 . S
C715 C696 1.429 . S
C715 C709 1.429 . S
C715 C716 1.523 . S
C716 C697 1.368 . S
C716 C710 1.368 . S
C716 C715 1.523 . S
C717 C701 1.429 . S
C717 C713 1.429 . S
C717 C718 1.523 . S
C718 C702 1.368 . S
C718 C714 1.368 . S
C718 C717 1.523 . S
H719 C694 0.950 . S
H720 C696 0.950 . S
H721 C697 0.949 . S
H722 C699 0.950 . S
H723 C701 0.950 . S
C724 C725 1.349 . S
C724 C726 1.327 . S
C724 H749 0.950 . S
C725 C724 1.349 . S
C725 C741 1.349 . S
C726 C724 1.327 . S
C726 C745 1.429 . S
C726 H750 0.950 . S
C727 C744 1.574 . S
C727 C746 1.368 . S
C727 H751 0.949 . S
H728 C732 0.949 . S
C729 C730 1.349 . S
C729 C731 1.327 . S
C729 H752 0.950 . S
C730 C729 1.349 . S
C730 C742 1.349 . S
C731 C729 1.327 . S
C731 C747 1.429 . S
C731 H753 0.950 . S
C732 H728 0.949 . S
C732 C740 1.574 . S
C732 C748 1.368 . S
H733 C741 0.950 . S
H734 C739 0.950 . S
H735 C740 0.949 . S
H736 C742 0.950 1_556 S
H737 C743 0.950 . S
H738 C744 0.949 . S
C739 H734 0.950 . S
C739 C741 1.327 . S
C739 C745 1.429 . S
C740 C732 1.574 . S
C740 H735 0.949 . S
C740 C746 1.368 . S
C741 C725 1.349 . S
C741 H733 0.950 . S
C741 C739 1.327 . S
C742 C730 1.349 . S
C742 H736 0.950 1_554 S
C742 C743 1.327 . S
C743 H737 0.950 . S
C743 C742 1.327 . S
C743 C747 1.429 . S
C744 C727 1.574 . S
C744 H738 0.949 . S
C744 C748 1.368 . S
C745 C726 1.429 . S
C745 C739 1.429 . S
C745 C746 1.523 . S
C746 C727 1.368 . S
C746 C740 1.368 . S
C746 C745 1.523 . S
C747 C731 1.429 . S
C747 C743 1.429 . S
C747 C748 1.523 . S
C748 C732 1.368 . S
C748 C744 1.368 . S
C748 C747 1.523 . S
H749 C724 0.950 . S
H750 C726 0.950 . S
H751 C727 0.949 . S
H752 C729 0.950 . S
H753 C731 0.950 . S
C754 C755 1.349 . S
C754 C756 1.327 . S
C754 H779 0.950 . S
C755 C754 1.349 . S
C755 C771 1.349 . S
C756 C754 1.327 . S
C756 C775 1.429 . S
C756 H780 0.950 . S
C757 C774 1.574 . S
C757 C776 1.368 . S
C757 H781 0.949 . S
H758 C762 0.949 . S
C759 C760 1.349 . S
C759 C761 1.327 . S
C759 H782 0.950 . S
C760 C759 1.349 . S
C760 C772 1.349 . S
C761 C759 1.327 . S
C761 C777 1.429 . S
C761 H783 0.950 . S
C762 H758 0.949 . S
C762 C770 1.574 . S
C762 C778 1.368 . S
H763 C771 0.950 . S
H764 C769 0.950 . S
H765 C770 0.949 . S
H766 C772 0.950 . S
H767 C773 0.950 . S
H768 C774 0.949 . S
C769 H764 0.950 . S
C769 C771 1.327 . S
C769 C775 1.429 . S
C770 C762 1.574 . S
C770 H765 0.949 . S
C770 C776 1.368 . S
C771 C755 1.349 . S
C771 H763 0.950 . S
C771 C769 1.327 . S
C772 C760 1.349 . S
C772 H766 0.950 . S
C772 C773 1.327 . S
C773 H767 0.950 . S
C773 C772 1.327 . S
C773 C777 1.429 . S
C774 C757 1.574 . S
C774 H768 0.949 . S
C774 C778 1.368 . S
C775 C756 1.429 . S
C775 C769 1.429 . S
C775 C776 1.523 . S
C776 C757 1.368 . S
C776 C770 1.368 . S
C776 C775 1.523 . S
C777 C761 1.429 . S
C777 C773 1.429 . S
C777 C778 1.523 . S
C778 C762 1.368 . S
C778 C774 1.368 . S
C778 C777 1.523 . S
H779 C754 0.950 . S
H780 C756 0.950 . S
H781 C757 0.949 . S
H782 C759 0.950 . S
H783 C761 0.950 . S
C784 C785 1.349 . S
C784 C786 1.327 . S
C784 H809 0.950 . S
C785 C784 1.349 . S
C785 C801 1.349 . S
C786 C784 1.327 . S
C786 C805 1.429 . S
C786 H810 0.950 . S
C787 C804 1.574 . S
C787 C806 1.368 . S
C787 H811 0.949 . S
H788 C792 0.949 . S
C789 C790 1.349 . S
C789 C791 1.327 . S
C789 H812 0.950 . S
C790 C789 1.349 . S
C790 C802 1.349 . S
C791 C789 1.327 . S
C791 C807 1.429 . S
C791 H813 0.950 . S
C792 H788 0.949 . S
C792 C800 1.574 . S
C792 C808 1.368 . S
H793 C801 0.950 . S
H794 C799 0.950 . S
H795 C800 0.949 . S
H796 C802 0.950 . S
H797 C803 0.950 . S
H798 C804 0.949 . S
C799 H794 0.950 . S
C799 C801 1.327 . S
C799 C805 1.429 . S
C800 C792 1.574 . S
C800 H795 0.949 . S
C800 C806 1.368 . S
C801 C785 1.349 . S
C801 H793 0.950 . S
C801 C799 1.327 . S
C802 C790 1.349 . S
C802 H796 0.950 . S
C802 C803 1.327 . S
C803 H797 0.950 . S
C803 C802 1.327 . S
C803 C807 1.429 . S
C804 C787 1.574 . S
C804 H798 0.949 . S
C804 C808 1.368 . S
C805 C786 1.429 . S
C805 C799 1.429 . S
C805 C806 1.523 . S
C806 C787 1.368 . S
C806 C800 1.368 . S
C806 C805 1.523 . S
C807 C791 1.429 . S
C807 C803 1.429 . S
C807 C808 1.523 . S
C808 C792 1.368 . S
C808 C804 1.368 . S
C808 C807 1.523 . S
H809 C784 0.950 . S
H810 C786 0.950 . S
H811 C787 0.949 . S
H812 C789 0.950 . S
H813 C791 0.950 . S
C814 C815 1.349 . S
C814 C816 1.327 . S
C814 H839 0.950 . S
C815 C814 1.349 . S
C815 C831 1.349 . S
C816 C814 1.327 . S
C816 C835 1.429 . S
C816 H840 0.950 . S
C817 C834 1.574 . S
C817 C836 1.368 . S
C817 H841 0.949 . S
H818 C822 0.949 . S
C819 C820 1.349 . S
C819 C821 1.327 . S
C819 H842 0.950 . S
C820 C819 1.349 . S
C820 C832 1.349 . S
C821 C819 1.327 . S
C821 C837 1.429 . S
C821 H843 0.950 . S
C822 H818 0.949 . S
C822 C830 1.574 . S
C822 C838 1.368 . S
H823 C831 0.950 . S
H824 C829 0.950 . S
H825 C830 0.949 . S
H826 C832 0.950 . S
H827 C833 0.950 . S
H828 C834 0.949 . S
C829 H824 0.950 . S
C829 C831 1.327 . S
C829 C835 1.429 . S
C830 C822 1.574 . S
C830 H825 0.949 . S
C830 C836 1.368 . S
C831 C815 1.349 . S
C831 H823 0.950 . S
C831 C829 1.327 . S
C832 C820 1.349 . S
C832 H826 0.950 . S
C832 C833 1.327 . S
C833 H827 0.950 . S
C833 C832 1.327 . S
C833 C837 1.429 . S
C834 C817 1.574 . S
C834 H828 0.949 . S
C834 C838 1.368 . S
C835 C816 1.429 . S
C835 C829 1.429 . S
C835 C836 1.523 . S
C836 C817 1.368 . S
C836 C830 1.368 . S
C836 C835 1.523 . S
C837 C821 1.429 . S
C837 C833 1.429 . S
C837 C838 1.523 . S
C838 C822 1.368 . S
C838 C834 1.368 . S
C838 C837 1.523 . S
H839 C814 0.950 . S
H840 C816 0.950 . S
H841 C817 0.949 . S
H842 C819 0.950 . S
H843 C821 0.950 . S
C844 C845 1.349 . S
C844 C846 1.327 . S
C844 H869 0.950 . S
C845 C844 1.349 . S
C845 C861 1.349 . S
C846 C844 1.327 . S
C846 C865 1.429 . S
C846 H870 0.950 . S
C847 C864 1.574 . S
C847 C866 1.368 . S
C847 H871 0.949 . S
H848 C852 0.949 . S
C849 C850 1.349 . S
C849 C851 1.327 . S
C849 H872 0.950 . S
C850 C849 1.349 . S
C850 C862 1.349 . S
C851 C849 1.327 . S
C851 C867 1.429 . S
C851 H873 0.950 . S
C852 H848 0.949 . S
C852 C860 1.574 . S
C852 C868 1.368 . S
H853 C861 0.950 . S
H854 C859 0.950 . S
H855 C860 0.949 . S
H856 C862 0.950 . S
H857 C863 0.950 . S
H858 C864 0.949 . S
C859 H854 0.950 . S
C859 C861 1.327 . S
C859 C865 1.429 . S
C860 C852 1.574 . S
C860 H855 0.949 . S
C860 C866 1.368 . S
C861 C845 1.349 . S
C861 H853 0.950 . S
C861 C859 1.327 . S
C862 C850 1.349 . S
C862 H856 0.950 . S
C862 C863 1.327 . S
C863 H857 0.950 . S
C863 C862 1.327 . S
C863 C867 1.429 . S
C864 C847 1.574 . S
C864 H858 0.949 . S
C864 C868 1.368 . S
C865 C846 1.429 . S
C865 C859 1.429 . S
C865 C866 1.523 . S
C866 C847 1.368 . S
C866 C860 1.368 . S
C866 C865 1.523 . S
C867 C851 1.429 . S
C867 C863 1.429 . S
C867 C868 1.523 . S
C868 C852 1.368 . S
C868 C864 1.368 . S
C868 C867 1.523 . S
H869 C844 0.950 . S
H870 C846 0.950 . S
H871 C847 0.949 . S
H872 C849 0.950 . S
H873 C851 0.950 . S
C874 C875 1.349 . S
C874 C876 1.327 . S
C874 H899 0.950 . S
C875 C874 1.349 . S
C875 C891 1.349 . S
C876 C874 1.327 . S
C876 C895 1.429 . S
C876 H900 0.950 . S
C877 C894 1.574 . S
C877 C896 1.368 . S
C877 H901 0.949 . S
H878 C882 0.949 . S
C879 C880 1.349 . S
C879 C881 1.327 . S
C879 H902 0.950 . S
C880 C879 1.349 . S
C880 C892 1.349 . S
C881 C879 1.327 . S
C881 C897 1.429 . S
C881 H903 0.950 . S
C882 H878 0.949 . S
C882 C890 1.574 . S
C882 C898 1.368 . S
H883 C891 0.950 . S
H884 C889 0.950 . S
H885 C890 0.949 . S
H886 C892 0.950 . S
H887 C893 0.950 . S
H888 C894 0.949 . S
C889 H884 0.950 . S
C889 C891 1.327 . S
C889 C895 1.429 . S
C890 C882 1.574 . S
C890 H885 0.949 . S
C890 C896 1.368 . S
C891 C875 1.349 . S
C891 H883 0.950 . S
C891 C889 1.327 . S
C892 C880 1.349 . S
C892 H886 0.950 . S
C892 C893 1.327 . S
C893 H887 0.950 . S
C893 C892 1.327 . S
C893 C897 1.429 . S
C894 C877 1.574 . S
C894 H888 0.949 . S
C894 C898 1.368 . S
C895 C876 1.429 . S
C895 C889 1.429 . S
C895 C896 1.523 . S
C896 C877 1.368 . S
C896 C890 1.368 . S
C896 C895 1.523 . S
C897 C881 1.429 . S
C897 C893 1.429 . S
C897 C898 1.523 . S
C898 C882 1.368 . S
C898 C894 1.368 . S
C898 C897 1.523 . S
H899 C874 0.950 . S
H900 C876 0.950 . S
H901 C877 0.949 . S
H902 C879 0.950 . S
H903 C881 0.950 . S
C185 N1 1.374 . S
C190 C106 1.389 . S
C215 N18 1.635 . S
C220 C125 1.645 . S
C250 C162 1.264 . S
C245 N28 1.283 . S
C275 N40 1.836 . S
C280 C172 1.821 . S
C310 C142 2.318 . S
C305 N5 2.303 . S
C340 C112 1.500 . S
C335 N14 1.530 . S
C370 C183 1.573 . S
C365 N31 1.565 . S
C400 C153 0.983 . S
C395 N41 1.000 . S
C425 N2 1.562 . S
C430 C166 1.562 . S
C460 C133 1.800 1_556 S
C455 N27 1.848 . S
C485 N44 1.803 . S
C490 C123 1.822 1_655 S
C515 N15 1.041 . S
C520 C145 1.022 . S
C550 C105 1.753 . S
C545 N57 1.771 . S
C575 N70 1.217 . S
C580 C126 1.226 . S
C605 N79 1.571 . S
C610 C163 1.593 . S
C635 N93 1.566 . S
C640 C173 1.543 . S
C665 N54 1.732 . S
C670 C143 1.729 1_566 S
C700 C113 1.981 . S
C695 N66 2.057 . S
C730 C182 0.865 . S
C725 N80 0.872 . S
C760 C152 1.399 . S
C755 N96 1.404 . S
C785 N53 1.574 . S
C790 C165 1.593 . S
C820 C132 1.593 . S
C815 N83 1.592 . S
C850 C122 1.982 . S
C845 N92 1.957 . S
C875 N67 1.120 . S
C880 C146 1.126 . S
