# Generated by pormake.
# Topology pyr, (3,6)-cn, num edge types: 1
# Building blocks:
#     Node 0, Type 0, BuildingBlock: BETDIP_clean_linker_0, # of connection points: 3
#     Node 1, Type 0, BuildingBlock: BETDIP_clean_linker_0, # of connection points: 3
#     Node 2, Type 0, BuildingBlock: BETDIP_clean_linker_0, # of connection points: 3
#     Node 3, Type 0, BuildingBlock: BETDIP_clean_linker_0, # of connection points: 3
#     Node 4, Type 0, BuildingBlock: BETDIP_clean_linker_0, # of connection points: 3
#     Node 5, Type 0, BuildingBlock: BETDIP_clean_linker_0, # of connection points: 3
#     Node 6, Type 0, BuildingBlock: BETDIP_clean_linker_0, # of connection points: 3
#     Node 7, Type 0, BuildingBlock: BETDIP_clean_linker_0, # of connection points: 3
#     Node 8, Type 1, BuildingBlock: CIFDUS_clean_sbu_1, # of connection points: 6
#     Node 9, Type 1, BuildingBlock: CIFDUS_clean_sbu_1, # of connection points: 6
#     Node 10, Type 1, BuildingBlock: CIFDUS_clean_sbu_1, # of connection points: 6
#     Node 11, Type 1, BuildingBlock: CIFDUS_clean_sbu_1, # of connection points: 6
#     Edge 12, Type (0, 1), BuildingBlock: XUDNAN_clean_linker_2, # of connection points: 2
#     Edge 13, Type (0, 1), BuildingBlock: XUDNAN_clean_linker_2, # of connection points: 2
#     Edge 14, Type (0, 1), BuildingBlock: XUDNAN_clean_linker_2, # of connection points: 2
#     Edge 15, Type (0, 1), BuildingBlock: XUDNAN_clean_linker_2, # of connection points: 2
#     Edge 16, Type (0, 1), BuildingBlock: XUDNAN_clean_linker_2, # of connection points: 2
#     Edge 17, Type (0, 1), BuildingBlock: XUDNAN_clean_linker_2, # of connection points: 2
#     Edge 18, Type (0, 1), BuildingBlock: XUDNAN_clean_linker_2, # of connection points: 2
#     Edge 19, Type (0, 1), BuildingBlock: XUDNAN_clean_linker_2, # of connection points: 2
#     Edge 20, Type (0, 1), BuildingBlock: XUDNAN_clean_linker_2, # of connection points: 2
#     Edge 21, Type (0, 1), BuildingBlock: XUDNAN_clean_linker_2, # of connection points: 2
#     Edge 22, Type (0, 1), BuildingBlock: XUDNAN_clean_linker_2, # of connection points: 2
#     Edge 23, Type (0, 1), BuildingBlock: XUDNAN_clean_linker_2, # of connection points: 2
#     Edge 24, Type (0, 1), BuildingBlock: XUDNAN_clean_linker_2, # of connection points: 2
#     Edge 25, Type (0, 1), BuildingBlock: XUDNAN_clean_linker_2, # of connection points: 2
#     Edge 26, Type (0, 1), BuildingBlock: XUDNAN_clean_linker_2, # of connection points: 2
#     Edge 27, Type (0, 1), BuildingBlock: XUDNAN_clean_linker_2, # of connection points: 2
#     Edge 28, Type (0, 1), BuildingBlock: XUDNAN_clean_linker_2, # of connection points: 2
#     Edge 29, Type (0, 1), BuildingBlock: XUDNAN_clean_linker_2, # of connection points: 2
#     Edge 30, Type (0, 1), BuildingBlock: XUDNAN_clean_linker_2, # of connection points: 2
#     Edge 31, Type (0, 1), BuildingBlock: XUDNAN_clean_linker_2, # of connection points: 2
#     Edge 32, Type (0, 1), BuildingBlock: XUDNAN_clean_linker_2, # of connection points: 2
#     Edge 33, Type (0, 1), BuildingBlock: XUDNAN_clean_linker_2, # of connection points: 2
#     Edge 34, Type (0, 1), BuildingBlock: XUDNAN_clean_linker_2, # of connection points: 2
#     Edge 35, Type (0, 1), BuildingBlock: XUDNAN_clean_linker_2, # of connection points: 2
# Relax obj value: 0.084
# Max RMSD: 0.172
# Mean RMSD: 0.137
data_MOF--net-pry--node1-CIFDUS_clean_sbu_1--node2-BETDIP_clean_linker_0--edge1-XUDNAN_clean_linker_2
_symmetry_space_group_name_H-M    P1
_symmetry_Int_Tables_number       1
_symmetry_cell_setting            triclinic
loop_
_symmetry_equiv_pos_as_xyz
'x, y, z'
_cell_length_a     36.27993
_cell_length_b     34.523423
_cell_length_c     35.839473
_cell_angle_alpha  94.890045
_cell_angle_beta   87.244278
_cell_angle_gamma 99.717642
loop_
_atom_site_label
_atom_site_type_symbol
_atom_site_fract_x
_atom_site_fract_y
_atom_site_fract_z
_atom_type_partial_charge
H0 H 0.12597 0.1916 0.21735 0.0
H1 H 0.19795 0.17719 0.12022 0.0
H2 H 0.21154 0.11901 0.21904 0.0
H3 H 0.18655 0.24509 0.11683 0.0
C4 C 0.15634 0.23879 0.12102 0.0
C5 C 0.14901 0.17895 0.20374 0.0
C6 C 0.16757 0.15454 0.22321 0.0
C7 C 0.16038 0.18819 0.16709 0.0
C8 C 0.18983 0.17133 0.14894 0.0
C9 C 0.20837 0.14621 0.16752 0.0
C10 C 0.19759 0.13868 0.20486 0.0
N11 N 0.14045 0.21293 0.14869 0.0
H12 H 0.34855 0.93488 0.69002 0.0
H13 H 0.36669 0.84706 0.6024 0.0
H14 H 0.42693 0.85607 0.70364 0.0
H15 H 0.30817 0.85026 0.588 0.0
C16 C 0.30356 0.88014 0.59596 0.0
C17 C 0.36251 0.91046 0.68004 0.0
C18 C 0.38897 0.89824 0.70217 0.0
C19 C 0.35321 0.89131 0.64484 0.0
C20 C 0.37254 0.86115 0.63009 0.0
C21 C 0.39957 0.84877 0.651 0.0
C22 C 0.407 0.86675 0.68727 0.0
N23 N 0.32431 0.90328 0.62519 0.0
H24 H 0.74212 0.38328 0.80974 0.0
H25 H 0.65818 0.28106 0.78755 0.0
H26 H 0.73011 0.28702 0.88054 0.0
H27 H 0.66827 0.30186 0.72583 0.0
C28 C 0.67119 0.33367 0.73113 0.0
C29 C 0.7289 0.35406 0.81655 0.0
C30 C 0.74013 0.33757 0.84781 0.0
C31 C 0.70018 0.33365 0.79409 0.0
C32 C 0.68143 0.29643 0.80372 0.0
C33 C 0.69219 0.27944 0.83503 0.0
C34 C 0.72184 0.30002 0.85644 0.0
N35 N 0.6896 0.35274 0.76354 0.0
H36 H 0.8301 0.62029 0.37937 0.0
H37 H 0.94366 0.6788 0.37848 0.0
H38 H 0.87316 0.68668 0.47873 0.0
H39 H 0.93426 0.68398 0.31711 0.0
C40 C 0.91215 0.66012 0.30829 0.0
C41 C 0.85313 0.63828 0.39416 0.0
C42 C 0.84845 0.65093 0.43202 0.0
C43 C 0.88664 0.6499 0.37442 0.0
C44 C 0.91714 0.67216 0.39348 0.0
C45 C 0.91315 0.686 0.43157 0.0
C46 C 0.87831 0.67492 0.45038 0.0
N47 N 0.88774 0.63985 0.33512 0.0
H48 H 0.81657 0.88143 0.93708 0.0
H49 H 0.89028 0.85581 0.84413 0.0
H50 H 0.81008 0.93192 0.83212 0.0
H51 H 0.92438 0.83893 0.88995 0.0
C52 C 0.90432 0.82671 0.91108 0.0
C53 C 0.82592 0.8851 0.90825 0.0
C54 C 0.80947 0.9095 0.88669 0.0
C55 C 0.85517 0.86584 0.89354 0.0
C56 C 0.86834 0.87108 0.85627 0.0
C57 C 0.85211 0.89495 0.83387 0.0
C58 C 0.82268 0.91378 0.84936 0.0
N59 N 0.86945 0.84051 0.91678 0.0
H60 H 0.67404 0.1171 0.36824 0.0
H61 H 0.65782 0.20382 0.45759 0.0
H62 H 0.59599 0.19695 0.35759 0.0
H63 H 0.71592 0.19888 0.47177 0.0
C64 C 0.72031 0.16915 0.46275 0.0
C65 C 0.6604 0.14155 0.37891 0.0
C66 C 0.63377 0.15446 0.35753 0.0
C67 C 0.67029 0.15997 0.41424 0.0
C68 C 0.65143 0.1902 0.42985 0.0
C69 C 0.62415 0.20323 0.40973 0.0
C70 C 0.61612 0.18585 0.37335 0.0
N71 N 0.69924 0.14714 0.43313 0.0
H72 H 0.28967 0.67607 0.25044 0.0
H73 H 0.36974 0.77877 0.28103 0.0
H74 H 0.31399 0.76876 0.17612 0.0
H75 H 0.35901 0.75635 0.34021 0.0
C76 C 0.35482 0.72452 0.33466 0.0
C77 C 0.30419 0.705 0.24419 0.0
C78 C 0.2976 0.72072 0.21073 0.0
C79 C 0.32994 0.72564 0.26963 0.0
C80 C 0.34977 0.7629 0.26145 0.0
C81 C 0.34454 0.77908 0.22748 0.0
C82 C 0.31824 0.75743 0.2025 0.0
N83 N 0.33676 0.70646 0.30169 0.0
H84 H 0.07897 0.35704 0.68159 0.0
H85 H 0.19299 0.41345 0.68169 0.0
H86 H 0.14839 0.35548 0.57974 0.0
H87 H 0.19156 0.39146 0.7385 0.0
C88 C 0.16359 0.39306 0.75006 0.0
C89 C 0.1051 0.36441 0.66603 0.0
C90 C 0.10856 0.3532 0.62723 0.0
C91 C 0.136 0.38351 0.6862 0.0
C92 C 0.16975 0.39617 0.66683 0.0
C93 C 0.17382 0.38685 0.62817 0.0
C94 C 0.1435 0.36497 0.60879 0.0
N95 N 0.13268 0.38833 0.72604 0.0
O96 O 0.96221 0.04736 0.52373 0.0
Mn97 Mn 0.01068 0.02145 0.52809 0.0
O98 O 0.92996 0.01386 0.47591 0.0
Mn99 Mn 0.97031 0.99362 0.45426 0.0
O100 O 0.05923 0.99575 0.53256 0.0
O101 O 0.02925 0.06616 0.56492 0.0
Mn102 Mn 0.05113 0.05002 0.60201 0.0
O103 O 0.98315 0.98982 0.57262 0.0
O104 O 0.09152 0.03006 0.58004 0.0
O105 O 0.03841 0.05308 0.48369 0.0
O106 O 1.00663 0.02932 0.43181 0.0
O107 O 0.05168 0.10331 0.61293 0.0
O108 O 0.01504 0.01398 0.62439 0.0
C109 C 0.98656 0.94219 0.4735 0.0
C110 C 0.93272 0.03935 0.50389 0.0
C111 C 0.08884 1.00437 0.5522 0.0
C112 C 0.03411 0.10082 0.582 0.0
C113 C 0.9884 0.99074 0.60819 0.0
C114 C 0.03337 0.05228 0.44812 0.0
O115 O 0.99204 0.97665 0.4911 0.0
O116 O 0.96891 0.94043 0.44268 0.0
O117 O 0.48709 0.01653 0.97572 0.0
Mn118 Mn 0.51007 0.0305 0.0293 0.0
O119 O 0.48294 0.9507 0.96342 0.0
Mn120 Mn 0.50707 0.94143 1.00529 0.0
O121 O 0.53316 0.04394 0.08294 0.0
O122 O 0.52476 0.08769 0.01685 0.0
Mn123 Mn 0.51046 0.11765 0.05575 0.0
O124 O 0.45664 0.04085 0.05082 0.0
O125 O 0.5361 0.10926 0.0968 0.0
O126 O 0.5631 0.01838 1.00716 0.0
O127 O 0.55853 0.95216 1.00118 0.0
O128 O 0.53158 0.15227 0.02181 0.0
O129 O 0.45932 0.10627 0.0622 0.0
C130 C 0.48083 0.94406 0.06006 0.0
C131 C 0.47814 0.98444 0.95455 0.0
C132 C 0.54179 0.07557 0.10477 0.0
C133 C 0.53714 0.12061 1.00178 0.0
C134 C 0.44131 0.07133 0.06118 0.0
C135 C 0.5776 0.98658 0.99975 0.0
O136 O 0.49464 0.97435 0.04206 0.0
O137 O 0.48338 0.91058 0.04183 0.0
O138 O 0.56587 0.54991 0.52047 0.0
Mn139 Mn 0.51008 0.52496 0.5311 0.0
O140 O 0.57373 0.5509 0.45802 0.0
Mn141 Mn 0.52854 0.51945 0.44715 0.0
O142 O 0.45426 0.49985 0.54147 0.0
O143 O 0.52554 0.5146 0.58305 0.0
Mn144 Mn 0.49079 0.52966 0.61484 0.0
O145 O 0.49907 0.58176 0.55042 0.0
O146 O 0.44623 0.4972 0.60371 0.0
O147 O 0.52124 0.46811 0.51189 0.0
O148 O 0.52725 0.46618 0.44929 0.0
O149 O 0.5235 0.51309 0.64431 0.0
O150 O 0.491 0.5828 0.61286 0.0
C151 C 0.47954 0.54537 0.4498 0.0
C152 C 0.58577 0.55941 0.49101 0.0
C153 C 0.43439 0.48926 0.57062 0.0
C154 C 0.54058 0.50523 0.61268 0.0
C155 C 0.49306 0.59982 0.58259 0.0
C156 C 0.52628 0.4496 0.47972 0.0
O157 O 0.49459 0.53553 0.47923 0.0
O158 O 0.49604 0.5369 0.418 0.0
O159 O 0.97451 0.50086 0.99609 0.0
Mn160 Mn 0.02235 0.52951 0.02326 0.0
O161 O 0.97998 0.51958 0.93703 0.0
Mn162 Mn 0.0252 0.55432 0.9417 0.0
O163 O 0.0703 0.55829 0.05068 0.0
O164 O 0.99459 0.52444 0.07266 0.0
Mn165 Mn 0.01981 0.50343 0.10406 0.0
O166 O 0.04012 0.47397 0.02563 0.0
O167 O 0.06446 0.53865 0.10946 0.0
O168 O 1.00429 0.58497 0.02007 0.0
O169 O 0.02196 0.60417 0.9625 0.0
O170 O 0.97739 0.51466 0.13017 0.0
O171 O 0.0238 0.45379 0.08308 0.0
C172 C 0.07336 0.52687 0.94738 0.0
C173 C 0.96238 0.49957 0.96275 0.0
C174 C 0.08206 0.55927 0.08418 0.0
C175 C 0.97094 0.52977 0.09979 0.0
C176 C 0.03622 0.44766 0.04974 0.0
C177 C 0.00855 0.6109 0.99544 0.0
O178 O 0.04996 0.53429 0.97401 0.0
O179 O 0.06747 0.54106 0.91635 0.0
H180 H 0.09542 0.13451 0.25063 0.0
H181 H 0.21073 0.15131 0.28384 0.0
H182 H 0.18923 0.13323 0.34768 0.0
H183 H 0.05555 0.17165 0.33957 0.0
H184 H 0.01361 0.13534 0.33614 0.0
H185 H 0.03826 0.15238 0.29422 0.0
H186 H 0.04337 0.08037 0.27039 0.0
H187 H 0.01856 0.06316 0.31206 0.0
H188 H 0.06397 0.05036 0.29963 0.0
H189 H 0.15383 0.11038 0.40846 0.0
H190 H 0.10898 0.08016 0.45664 0.0
H191 H 0.01797 0.0787 0.38217 0.0
C192 C 0.1162 0.13513 0.27147 0.0
C193 C 0.15481 0.14467 0.26215 0.0
C194 C 0.181 0.14399 0.29016 0.0
C195 C 0.16902 0.13403 0.32663 0.0
C196 C 0.13068 0.12472 0.33483 0.0
C197 C 0.10475 0.12505 0.30783 0.0
C198 C 0.06532 0.11154 0.32267 0.0
C199 C 0.04181 0.14471 0.32318 0.0
C200 C 0.04673 0.07414 0.29984 0.0
C201 C 0.07299 0.10294 0.36205 0.0
C202 C 0.11074 0.11116 0.36896 0.0
C203 C 0.12419 0.1041 0.4033 0.0
C204 C 0.09852 0.08718 0.43066 0.0
C205 C 0.05994 0.07704 0.4233 0.0
C206 C 0.04726 0.08609 0.38881 0.0
H207 H 0.45501 0.90758 0.74095 0.0
H208 H 0.34152 0.93328 0.7524 0.0
H209 H 0.35526 0.96658 0.81466 0.0
H210 H 0.45634 0.88085 0.83441 0.0
H211 H 0.50532 0.90019 0.83965 0.0
H212 H 0.48796 0.88294 0.79398 0.0
H213 H 0.51552 0.9508 0.76967 0.0
H214 H 0.53246 0.96843 0.81552 0.0
H215 H 0.50218 0.99497 0.79299 0.0
H216 H 0.38086 0.99582 0.87782 0.0
H217 H 0.41318 0.00923 0.93832 0.0
H218 H 0.50665 0.95831 0.88779 0.0
C219 C 0.43276 0.91992 0.7563 0.0
C220 C 0.39726 0.91809 0.74065 0.0
C221 C 0.36944 0.93518 0.76248 0.0
C222 C 0.37687 0.9541 0.79828 0.0
C223 C 0.41211 0.95539 0.81256 0.0
C224 C 0.43936 0.93812 0.79244 0.0
C225 C 0.47372 0.94018 0.81544 0.0
C226 C 0.48126 0.89858 0.82122 0.0
C227 C 0.50799 0.96509 0.79731 0.0
C228 C 0.46134 0.96078 0.85179 0.0
C229 C 0.42606 0.97021 0.84939 0.0
C230 C 0.40859 0.98872 0.87991 0.0
C231 C 0.42719 0.99657 0.91405 0.0
C232 C 0.46247 0.98524 0.91739 0.0
C233 C 0.47988 0.96778 0.88568 0.0
H234 H 0.66507 0.41225 0.73811 0.0
H235 H 0.64776 0.30788 0.66071 0.0
H236 H 0.62361 0.346 0.61442 0.0
H237 H 0.58231 0.44305 0.72202 0.0
H238 H 0.60078 0.49501 0.72697 0.0
H239 H 0.6223 0.46108 0.75033 0.0
H240 H 0.68601 0.48724 0.71779 0.0
H241 H 0.66431 0.52086 0.69378 0.0
H242 H 0.68969 0.48643 0.66739 0.0
H243 H 0.59504 0.39452 0.57921 0.0
H244 H 0.55788 0.44471 0.56367 0.0
H245 H 0.59293 0.5156 0.66487 0.0
C246 C 0.65708 0.3976 0.71108 0.0
C247 C 0.65869 0.3572 0.70277 0.0
C248 C 0.64699 0.33893 0.66747 0.0
C249 C 0.63351 0.36043 0.64093 0.0
C250 C 0.63198 0.40027 0.6501 0.0
C251 C 0.64331 0.41853 0.68452 0.0
C252 C 0.63466 0.46004 0.68969 0.0
C253 C 0.60845 0.46505 0.72427 0.0
C254 C 0.67083 0.49043 0.69231 0.0
C255 C 0.61528 0.46185 0.65355 0.0
C256 C 0.61485 0.42761 0.63046 0.0
C257 C 0.59571 0.42162 0.59692 0.0
C258 C 0.57484 0.45033 0.58801 0.0
C259 C 0.57259 0.48384 0.61293 0.0
C260 C 0.59463 0.49043 0.64501 0.0
H261 H 0.96153 0.68083 0.25101 0.0
H262 H 0.85223 0.61331 0.27454 0.0
H263 H 0.84773 0.58872 0.2082 0.0
H264 H 0.94341 0.69791 0.14762 0.0
H265 H 0.99065 0.69186 0.1338 0.0
H266 H 0.98069 0.71435 0.17968 0.0
H267 H 0.01122 0.66289 0.21073 0.0
H268 H 0.0221 0.64155 0.16517 0.0
H269 H 0.99537 0.61113 0.19878 0.0
H270 H 0.86135 0.55797 0.14663 0.0
H271 H 0.8953 0.51853 0.10101 0.0
H272 H 0.99443 0.60676 0.11197 0.0
C273 C 0.93614 0.66201 0.24169 0.0
C274 C 0.90731 0.64899 0.26777 0.0
C275 C 0.87478 0.62363 0.25507 0.0
C276 C 0.87174 0.60992 0.21722 0.0
C277 C 0.90126 0.62208 0.19222 0.0
C278 C 0.93288 0.64778 0.20392 0.0
C279 C 0.96348 0.65033 0.17345 0.0
C280 C 0.96992 0.69104 0.15771 0.0
C281 C 1.00013 0.64084 0.18789 0.0
C282 C 0.94573 0.61877 0.14459 0.0
C283 C 0.90907 0.60426 0.15514 0.0
C284 C 0.88944 0.56995 0.13726 0.0
C285 C 0.90875 0.54784 0.11082 0.0
C286 C 0.94715 0.56017 0.10273 0.0
C287 C 0.96462 0.59782 0.11681 0.0
H288 H 0.27992 0.14668 0.18949 0.0
H289 H 0.20411 0.10236 0.10008 0.0
H290 H 0.25355 0.07025 0.06635 0.0
H291 H 0.35939 0.17167 0.13026 0.0
H292 H 0.392 0.15875 0.16158 0.0
H293 H 0.34934 0.1741 0.18009 0.0
H294 H 0.33241 0.10923 0.21326 0.0
H295 H 0.37493 0.09354 0.1944 0.0
H296 H 0.33042 0.06256 0.18607 0.0
H297 H 0.313 0.04475 0.04116 0.0
H298 H 0.37848 0.0363 0.02354 0.0
H299 H 0.41547 0.1004 0.12785 0.0
C300 C 0.27364 0.12972 0.16307 0.0
C301 C 0.23813 0.12671 0.1475 0.0
C302 C 0.23117 0.10502 0.11246 0.0
C303 C 0.25899 0.08643 0.09327 0.0
C304 C 0.29381 0.09001 0.10931 0.0
C305 C 0.30129 0.11155 0.14326 0.0
C306 C 0.34187 0.11406 0.15289 0.0
C307 C 0.36182 0.1572 0.15639 0.0
C308 C 0.34508 0.09362 0.18879 0.0
C309 C 0.35628 0.09127 0.1188 0.0
C310 C 0.32805 0.07675 0.0943 0.0
C311 C 0.33522 0.05576 0.06031 0.0
C312 C 0.37237 0.05076 0.05061 0.0
C313 C 0.40175 0.06728 0.07455 0.0
C314 C 0.39332 0.08697 0.10932 0.0
H315 H 0.28227 0.95319 0.60742 0.0
H316 H 0.25254 0.83799 0.54841 0.0
H317 H 0.19672 0.85897 0.52424 0.0
H318 H 0.19176 0.96562 0.63706 0.0
H319 H 0.19895 0.01779 0.63149 0.0
H320 H 0.23792 0.99449 0.64077 0.0
H321 H 0.27294 0.02101 0.58095 0.0
H322 H 0.23388 0.04426 0.5714 0.0
H323 H 0.25079 0.01019 0.53643 0.0
H324 H 0.1405 0.89162 0.51136 0.0
H325 H 0.08996 0.9321 0.51237 0.0
H326 H 0.15904 0.02563 0.57837 0.0
C327 C 0.26434 0.93251 0.58902 0.0
C328 C 0.27166 0.89394 0.57976 0.0
C329 C 0.24739 0.86775 0.55573 0.0
C330 C 0.2157 0.87943 0.54182 0.0
C331 C 0.20895 0.9176 0.55187 0.0
C332 C 0.23282 0.94375 0.57477 0.0
C333 C 0.21854 0.98232 0.58322 0.0
C334 C 0.21136 0.9905 0.62564 0.0
C335 C 0.24565 0.01646 0.56702 0.0
C336 C 0.1824 0.9735 0.56244 0.0
C337 C 0.17728 0.93624 0.54416 0.0
C338 C 0.14452 0.92108 0.52515 0.0
C339 C 0.116 0.94431 0.5257 0.0
C340 C 0.12045 0.98208 0.54538 0.0
C341 C 0.15462 0.99695 0.56296 0.0
H342 H 0.80587 0.38399 0.82604 0.0
H343 H 0.74241 0.34211 0.92469 0.0
H344 H 0.79243 0.37802 0.96479 0.0
H345 H 0.89695 0.37945 0.85802 0.0
H346 H 0.91899 0.42398 0.83778 0.0
H347 H 0.87842 0.39444 0.81675 0.0
H348 H 0.84448 0.45511 0.82237 0.0
H349 H 0.88499 0.48486 0.84331 0.0
H350 H 0.83996 0.48168 0.86744 0.0
H351 H 0.85003 0.41842 0.99436 0.0
H352 H 0.90964 0.4614 1.01078 0.0
H353 H 0.93398 0.47853 0.89291 0.0
C354 C 0.80226 0.38259 0.85608 0.0
C355 C 0.77018 0.35985 0.87206 0.0
C356 C 0.76696 0.35859 0.91158 0.0
C357 C 0.79514 0.37914 0.93468 0.0
C358 C 0.82639 0.40108 0.91797 0.0
C359 C 0.83001 0.40307 0.87958 0.0
C360 C 0.86621 0.42904 0.86865 0.0
C361 C 0.89164 0.4053 0.84384 0.0
C362 C 0.85843 0.46479 0.84931 0.0
C363 C 0.88236 0.44136 0.90688 0.0
C364 C 0.85909 0.42483 0.93499 0.0
C365 C 0.86842 0.43162 0.97256 0.0
C366 C 0.90239 0.45604 0.98162 0.0
C367 C 0.92655 0.47357 0.95323 0.0
C368 C 0.91615 0.46593 0.9154 0.0
H369 H 0.7804 0.65449 0.4047 0.0
H370 H 0.83278 0.62612 0.50286 0.0
H371 H 0.77015 0.60688 0.533 0.0
H372 H 0.70043 0.69145 0.4537 0.0
H373 H 0.66902 0.66995 0.41724 0.0
H374 H 0.71785 0.68596 0.4059 0.0
H375 H 0.72287 0.61617 0.37511 0.0
H376 H 0.67415 0.60007 0.38618 0.0
H377 H 0.70879 0.57396 0.40196 0.0
H378 H 0.70091 0.58465 0.54942 0.0
H379 H 0.63267 0.55969 0.54934 0.0
H380 H 0.62774 0.6026 0.43967 0.0
C381 C 0.77877 0.64441 0.43263 0.0
C382 C 0.81136 0.64152 0.45139 0.0
C383 C 0.80806 0.62874 0.48811 0.0
C384 C 0.77266 0.6178 0.50542 0.0
C385 C 0.741 0.62027 0.48572 0.0
C386 C 0.74389 0.63345 0.45015 0.0
C387 C 0.70602 0.63081 0.43357 0.0
C388 C 0.69786 0.672 0.42725 0.0
C389 C 0.70279 0.60363 0.39707 0.0
C390 C 0.68128 0.61278 0.46477 0.0
C391 C 0.70168 0.60745 0.49496 0.0
C392 C 0.68463 0.58916 0.52612 0.0
C393 C 0.64589 0.57519 0.5259 0.0
C394 C 0.62499 0.57918 0.49448 0.0
C395 C 0.64294 0.5991 0.46411 0.0
H396 H 0.17833 0.31036 0.09223 0.0
H397 H 0.08116 0.22066 0.10847 0.0
H398 H 0.04184 0.26082 0.0792 0.0
H399 H 0.13231 0.39033 0.1183 0.0
H400 H 0.15782 0.42256 0.08548 0.0
H401 H 0.17895 0.38411 0.10216 0.0
H402 H 0.1901 0.35718 0.03352 0.0
H403 H 0.16829 0.3953 0.01673 0.0
H404 H 0.15106 0.34424 1.00304 0.0
H405 H 0.01198 0.31299 0.05398 0.0
H406 H 0.99257 0.37613 0.04287 0.0
H407 H 0.10811 0.43365 0.04415 0.0
C408 C 0.14889 0.29892 0.08888 0.0
C409 C 0.13282 0.26224 0.10229 0.0
C410 C 0.09406 0.24861 0.09835 0.0
C411 C 0.07158 0.2711 0.08144 0.0
C412 C 0.08817 0.30732 0.06873 0.0
C413 C 0.1259 0.32139 0.07262 0.0
C414 C 0.13587 0.36327 0.06085 0.0
C415 C 0.15218 0.39173 0.09365 0.0
C416 C 0.16294 0.36508 0.02649 0.0
C417 C 0.09768 0.37103 0.05084 0.0
C418 C 0.07074 0.33794 0.05467 0.0
C419 C 0.03293 0.33876 0.05012 0.0
C420 C 0.02214 0.37466 0.04338 0.0
C421 C 0.04894 0.40934 0.04125 0.0
C422 C 0.0873 0.40715 0.04382 0.0
H423 H 0.61657 0.25936 0.84714 0.0
H424 H 0.72101 0.21585 0.8542 0.0
H425 H 0.68803 0.15973 0.88769 0.0
H426 H 0.58541 0.24414 0.93523 0.0
H427 H 0.53649 0.2293 0.92571 0.0
H428 H 0.56619 0.26009 0.89479 0.0
H429 H 0.54716 0.20937 0.83866 0.0
H430 H 0.51726 0.17827 0.8696 0.0
H431 H 0.55298 0.15877 0.84075 0.0
H432 H 0.64729 0.11797 0.93218 0.0
H433 H 0.60209 0.09494 0.98294 0.0
H434 H 0.52316 0.16203 0.94499 0.0
C435 C 0.63209 0.23698 0.85423 0.0
C436 C 0.67125 0.24169 0.84774 0.0
C437 C 0.69095 0.21266 0.85874 0.0
C438 C 0.67239 0.18057 0.87763 0.0
C439 C 0.63398 0.1776 0.88505 0.0
C440 C 0.61394 0.20482 0.87328 0.0
C441 C 0.57407 0.19812 0.88911 0.0
C442 C 0.56506 0.23509 0.91261 0.0
C443 C 0.54622 0.18536 0.85765 0.0
C444 C 0.57544 0.1645 0.91336 0.0
C445 C 0.60999 0.15241 0.91003 0.0
C446 C 0.61954 0.12572 0.93365 0.0
C447 C 0.59355 0.11193 0.96188 0.0
C448 C 0.55846 0.12438 0.96596 0.0
C449 C 0.54911 0.15038 0.94095 0.0
H450 H 0.96856 0.7381 0.39809 0.0
H451 H 0.92599 0.70375 0.50788 0.0
H452 H 0.95952 0.76605 0.53632 0.0
H453 H 0.06414 0.79799 0.43697 0.0
H454 H 0.06412 0.83152 0.40109 0.0
H455 H 0.04706 0.77962 0.39134 0.0
H456 H 0.98466 0.79616 0.37031 0.0
H457 H 1.00109 0.84744 0.38014 0.0
H458 H 0.95802 0.82491 0.40233 0.0
H459 H 0.97631 0.83894 0.54835 0.0
H460 H 0.97875 0.91005 0.54162 0.0
H461 H 0.02098 0.89458 0.42762 0.0
C462 C 0.9677 0.74201 0.42827 0.0
C463 C 0.94286 0.71617 0.45013 0.0
C464 C 0.94297 0.72367 0.48976 0.0
C465 C 0.96275 0.7588 0.50649 0.0
C466 C 0.98426 0.78524 0.4836 0.0
C467 C 0.98834 0.77622 0.44541 0.0
C468 C 0.00875 0.81126 0.42604 0.0
C469 C 0.04838 0.8047 0.41311 0.0
C470 C 0.98676 0.82046 0.39288 0.0
C471 C 0.01023 0.84283 0.45816 0.0
C472 C 0.99733 0.82722 0.49164 0.0
C473 C 0.9882 0.85147 0.5229 0.0
C474 C 0.9898 0.89196 0.51903 0.0
C475 C 1.00038 0.90729 0.48415 0.0
C476 C 0.01357 0.88315 0.45468 0.0
H477 H 0.40897 0.78218 0.68359 0.0
H478 H 0.43383 0.84185 0.5815 0.0
H479 H 0.46342 0.78625 0.55306 0.0
H480 H 0.4935 0.73794 0.68212 0.0
H481 H 0.46913 0.69274 0.69944 0.0
H482 H 0.45228 0.73841 0.71221 0.0
H483 H 0.38731 0.70766 0.68661 0.0
H484 H 0.40398 0.66197 0.67372 0.0
H485 H 0.38414 0.68632 0.63894 0.0
H486 H 0.48948 0.72231 0.53541 0.0
H487 H 0.50714 0.65567 0.52996 0.0
H488 H 0.4621 0.63803 0.64282 0.0
C489 C 0.42124 0.78384 0.6555 0.0
C490 C 0.41935 0.81643 0.63484 0.0
C491 C 0.43495 0.81708 0.5978 0.0
C492 C 0.45192 0.78572 0.58147 0.0
C493 C 0.45296 0.75376 0.60246 0.0
C494 C 0.43791 0.75263 0.63867 0.0
C495 C 0.44079 0.71414 0.65466 0.0
C496 C 0.4654 0.72125 0.68915 0.0
C497 C 0.40174 0.69118 0.66401 0.0
C498 C 0.45966 0.69373 0.62185 0.0
C499 C 0.46677 0.71698 0.59201 0.0
C500 C 0.48382 0.7038 0.5586 0.0
C501 C 0.49346 0.66574 0.55558 0.0
C502 C 0.48546 0.64109 0.58558 0.0
C503 C 0.46874 0.65585 0.61919 0.0
H504 H 0.92492 0.91301 0.80747 0.0
H505 H 0.81053 0.8916 0.77117 0.0
H506 H 0.83309 0.90665 0.70688 0.0
H507 H 0.95515 0.99494 0.75621 0.0
H508 H 1.00139 0.98372 0.74522 0.0
H509 H 0.97632 0.96687 0.78687 0.0
H510 H 0.98409 0.89503 0.76523 0.0
H511 H 0.00915 0.91172 0.72337 0.0
H512 H 0.96827 0.874 0.71984 0.0
H513 H 0.86883 0.92878 0.64655 0.0
H514 H 0.91354 0.95969 0.59867 0.0
H515 H 1.00368 0.96683 0.67546 0.0
C516 C 0.90467 0.91058 0.7858 0.0
C517 C 0.86594 0.90087 0.7944 0.0
C518 C 0.84033 0.89907 0.76534 0.0
C519 C 0.85292 0.90735 0.72864 0.0
C520 C 0.89129 0.91742 0.72121 0.0
C521 C 0.91675 0.91907 0.74911 0.0
C522 C 0.9562 0.93363 0.73482 0.0
C523 C 0.97325 0.97207 0.75709 0.0
C524 C 0.98088 0.90169 0.73588 0.0
C525 C 0.94897 0.94073 0.69484 0.0
C526 C 0.9115 0.93069 0.68714 0.0
C527 C 0.89829 0.9364 0.65227 0.0
C528 C 0.92389 0.95378 0.6251 0.0
C529 C 0.96214 0.96575 0.63316 0.0
C530 C 0.97465 0.95806 0.66825 0.0
H531 H 0.5674 0.14689 0.31947 0.0
H532 H 0.6803 0.1197 0.30599 0.0
H533 H 0.66578 0.08819 0.24323 0.0
H534 H 0.51891 0.06144 0.26565 0.0
H535 H 0.48895 0.08931 0.24432 0.0
H536 H 0.50631 0.1053 0.29033 0.0
H537 H 0.53458 0.17376 0.26773 0.0
H538 H 0.51684 0.15812 0.2219 0.0
H539 H 0.56599 0.17659 0.22715 0.0
H540 H 0.6394 0.06085 0.17982 0.0
H541 H 0.60654 0.04944 0.11958 0.0
H542 H 0.51444 0.1011 0.17233 0.0
C543 C 0.58939 0.13461 0.30359 0.0
C544 C 0.62494 0.1355 0.31881 0.0
C545 C 0.65234 0.11849 0.29626 0.0
C546 C 0.64448 0.1006 0.26016 0.0
C547 C 0.60922 0.10029 0.2463 0.0
C548 C 0.58236 0.11749 0.26714 0.0
C549 C 0.54794 0.1167 0.24455 0.0
C550 C 0.5135 0.09169 0.26228 0.0
C551 C 0.54095 0.15879 0.24006 0.0
C552 C 0.55985 0.09692 0.20759 0.0
C553 C 0.59492 0.08674 0.20932 0.0
C554 C 0.61187 0.06861 0.17823 0.0
C555 C 0.59297 0.06192 0.14423 0.0
C556 C 0.55796 0.07408 0.14158 0.0
C557 C 0.54106 0.09114 0.17384 0.0
H558 H 0.35796 0.64521 0.32689 0.0
H559 H 0.37896 0.7486 0.4052 0.0
H560 H 0.40199 0.70875 0.4507 0.0
H561 H 0.33162 0.57052 0.39708 0.0
H562 H 0.35556 0.53532 0.36998 0.0
H563 H 0.33481 0.57021 0.3467 0.0
H564 H 0.39867 0.59461 0.31361 0.0
H565 H 0.41926 0.55947 0.33627 0.0
H566 H 0.43925 0.61103 0.34151 0.0
H567 H 0.42931 0.65856 0.48482 0.0
H568 H 0.46483 0.60663 0.49925 0.0
H569 H 0.42695 0.53767 0.39798 0.0
C570 C 0.36649 0.65931 0.35398 0.0
C571 C 0.36625 0.69993 0.36275 0.0
C572 C 0.37864 0.71741 0.3981 0.0
C573 C 0.39151 0.69494 0.42419 0.0
C574 C 0.39175 0.65492 0.41454 0.0
C575 C 0.37967 0.6374 0.3801 0.0
C576 C 0.38696 0.5954 0.37434 0.0
C577 C 0.35003 0.56614 0.37189 0.0
C578 C 0.41256 0.58984 0.3394 0.0
C579 C 0.4065 0.59243 0.41014 0.0
C580 C 0.40813 0.62657 0.43358 0.0
C581 C 0.42763 0.63153 0.46685 0.0
C582 C 0.44756 0.60181 0.47516 0.0
C583 C 0.44852 0.56825 0.44996 0.0
C584 C 0.42621 0.56282 0.4181 0.0
H585 H 0.09958 0.37971 0.79438 0.0
H586 H 0.21748 0.42873 0.797 0.0
H587 H 0.2094 0.45345 0.86311 0.0
H588 H 0.06567 0.4534 0.83964 0.0
H589 H 0.02883 0.42514 0.86639 0.0
H590 H 0.04644 0.40347 0.82354 0.0
H591 H 0.0609 0.34582 0.85939 0.0
H592 H 0.04406 0.36835 0.90274 0.0
H593 H 0.09055 0.35617 0.89919 0.0
H594 H 0.18549 0.48903 0.91913 0.0
H595 H 0.14782 0.53146 0.95774 0.0
H596 H 0.04686 0.45269 0.92617 0.0
C597 C 0.12381 0.39461 0.80937 0.0
C598 C 0.15906 0.40273 0.79078 0.0
C599 C 0.19024 0.42228 0.81096 0.0
C600 C 0.18595 0.43609 0.8486 0.0
C601 C 0.15052 0.42884 0.86603 0.0
C602 C 0.1201 0.4077 0.84727 0.0
C603 C 0.08423 0.40823 0.87054 0.0
C604 C 0.05462 0.42352 0.84875 0.0
C605 C 0.06905 0.36719 0.88374 0.0
C606 C 0.09852 0.43674 0.90324 0.0
C607 C 0.13709 0.44738 0.90078 0.0
C608 C 0.1556 0.4797 0.92258 0.0
C609 C 0.13409 0.50353 0.94491 0.0
C610 C 0.0947 0.49442 0.94558 0.0
C611 C 0.0771 0.45887 0.92728 0.0
H612 H 0.75285 0.88352 0.93777 0.0
H613 H 0.79573 0.98337 0.87316 0.0
H614 H 0.74377 0.01664 0.89838 0.0
H615 H 0.65717 0.8838 0.92761 0.0
H616 H 0.64346 0.87117 0.97462 0.0
H617 H 0.68468 0.85596 0.95222 0.0
H618 H 0.72419 0.89063 1.00761 0.0
H619 H 0.68303 0.90611 0.03014 0.0
H620 H 0.7238 0.94214 0.0208 0.0
H621 H 0.68316 0.0366 0.927 0.0
H622 H 0.62102 0.04082 0.95686 0.0
H623 H 0.62225 0.93203 1.00803 0.0
C624 C 0.75196 0.91271 0.92936 0.0
C625 C 0.77864 0.93046 0.9031 0.0
C626 C 0.77545 0.96847 0.89252 0.0
C627 C 0.74616 0.98792 0.90705 0.0
C628 C 0.72039 0.96943 0.93271 0.0
C629 C 0.72326 0.93279 0.94398 0.0
C630 C 0.69156 0.91878 0.97124 0.0
C631 C 0.66782 0.88016 0.95546 0.0
C632 C 0.70655 0.91415 1.00973 0.0
C633 C 0.66996 0.95288 0.973 0.0
C634 C 0.68696 0.9819 0.95065 0.0
C635 C 0.67029 0.01463 0.94553 0.0
C636 C 0.6352 0.01736 0.96326 0.0
C637 C 0.61729 0.98798 0.98627 0.0
C638 C 0.63548 0.95565 0.99142 0.0
H639 H 0.7414 0.0962 0.44826 0.0
H640 H 0.7712 0.2089 0.51174 0.0
H641 H 0.82653 0.18624 0.53512 0.0
H642 H 0.77124 0.03555 0.51672 0.0
H643 H 0.78838 1.00268 0.48074 0.0
H644 H 0.74983 0.02696 0.47174 0.0
H645 H 0.7861 0.05583 0.41351 0.0
H646 H 0.82457 0.03152 0.42224 0.0
H647 H 0.83237 0.08407 0.41876 0.0
H648 H 0.88208 0.15212 0.54727 0.0
H649 H 0.93181 0.1106 0.54571 0.0
H650 H 0.86313 0.02053 0.47561 0.0
C651 C 0.75926 0.11599 0.46743 0.0
C652 C 0.75206 0.15434 0.47822 0.0
C653 C 0.77625 0.17933 0.50323 0.0
C654 C 0.80767 0.16669 0.5167 0.0
C655 C 0.81427 0.12877 0.50518 0.0
C656 C 0.79052 0.10378 0.48124 0.0
C657 C 0.80453 0.06523 0.47149 0.0
C658 C 0.77684 0.03056 0.48606 0.0
C659 C 0.81237 0.05882 0.42899 0.0
C660 C 0.84031 0.0727 0.49287 0.0
C661 C 0.84553 0.1093 0.51245 0.0
C662 C 0.87797 0.12318 0.53241 0.0
C663 C 0.90603 0.09935 0.53153 0.0
C664 C 0.90148 0.06222 0.51063 0.0
C665 C 0.86765 0.04866 0.49199 0.0
H666 H 0.22889 0.67789 0.22828 0.0
H667 H 0.30204 0.71317 0.13334 0.0
H668 H 0.25447 0.67748 0.0902 0.0
H669 H 0.19501 0.57982 0.1891 0.0
H670 H 0.14846 0.57917 0.20932 0.0
H671 H 0.18785 0.60869 0.23237 0.0
H672 H 0.1563 0.67061 0.23139 0.0
H673 H 0.11689 0.6413 0.20817 0.0
H674 H 0.14214 0.68419 0.18744 0.0
H675 H 0.19776 0.63739 0.05715 0.0
H676 H 0.13866 0.59465 0.03793 0.0
H677 H 0.10505 0.5841 0.15501 0.0
C678 C 0.23519 0.6779 0.19844 0.0
C679 C 0.2693 0.69864 0.18437 0.0
C680 C 0.27594 0.69819 0.14498 0.0
C681 C 0.24914 0.67777 0.12018 0.0
C682 C 0.21584 0.65771 0.1351 0.0
C683 C 0.20895 0.6575 0.17336 0.0
C684 C 0.17135 0.63318 0.18245 0.0
C685 C 0.17596 0.59814 0.20461 0.0
C686 C 0.14513 0.65886 0.20361 0.0
C687 C 0.15818 0.61955 0.14335 0.0
C688 C 0.18398 0.63416 0.11631 0.0
C689 C 0.17743 0.6257 0.07815 0.0
C690 C 0.14376 0.60149 0.06747 0.0
C691 C 0.11726 0.58574 0.09488 0.0
C692 C 0.12479 0.59522 0.13325 0.0
H693 H 0.24267 0.38227 0.65327 0.0
H694 H 0.18815 0.4169 0.55927 0.0
H695 H 0.25016 0.43953 0.52937 0.0
H696 H 0.31209 0.46441 0.66031 0.0
H697 H 0.34794 0.43836 0.67346 0.0
H698 H 0.2996 0.41989 0.68417 0.0
H699 H 0.30656 0.3527 0.64861 0.0
H700 H 0.35502 0.37109 0.63765 0.0
H701 H 0.32376 0.3513 0.60056 0.0
H702 H 0.31886 0.4644 0.51309 0.0
H703 H 0.38668 0.49144 0.51362 0.0
H704 H 0.39416 0.4415 0.6195 0.0
C705 C 0.24369 0.39438 0.62627 0.0
C706 C 0.21063 0.39801 0.60866 0.0
C707 C 0.21319 0.41356 0.57311 0.0
C708 C 0.24826 0.42647 0.55594 0.0
C709 C 0.28036 0.42326 0.57458 0.0
C710 C 0.27823 0.40746 0.60895 0.0
C711 C 0.3164 0.41012 0.6249 0.0
C712 C 0.31915 0.43467 0.66294 0.0
C713 C 0.32599 0.36884 0.6281 0.0
C714 C 0.34038 0.43118 0.59482 0.0
C715 C 0.31938 0.43792 0.5656 0.0
C716 C 0.33561 0.45885 0.53562 0.0
C717 C 0.3741 0.474 0.53609 0.0
C718 C 0.39555 0.46861 0.56665 0.0
C719 C 0.37847 0.44612 0.59577 0.0
H720 H 0.9712 0.80118 0.90967 0.0
H721 H 0.86192 0.78555 0.96592 0.0
H722 H 0.8805 0.73463 1.00257 0.0
H723 H 0.98012 0.7021 0.89884 0.0
H724 H 0.02972 0.71046 0.90624 0.0
H725 H 0.00858 0.74817 0.88825 0.0
H726 H 0.03561 0.79746 0.94277 0.0
H727 H 0.05639 0.75953 0.96123 0.0
H728 H 0.02516 0.78539 0.9905 0.0
H729 H 0.91003 0.67964 0.02854 0.0
H730 H 0.94504 0.62515 0.0366 0.0
H731 H 0.03513 0.67964 0.96491 0.0
C732 C 0.95138 0.7875 0.93016 0.0
C733 C 0.91522 0.79749 0.93501 0.0
C734 C 0.8899 0.77858 0.96181 0.0
C735 C 0.9003 0.74968 0.98289 0.0
C736 C 0.93625 0.7403 0.97723 0.0
C737 C 0.96137 0.75889 0.95149 0.0
C738 C 0.99728 0.74185 0.94834 0.0
C739 C 1.00431 0.72462 0.90805 0.0
C740 C 0.03057 0.77292 0.9615 0.0
C741 C 0.98815 0.70983 0.97531 0.0
C742 C 0.95309 0.70952 0.99226 0.0
C743 C 0.93776 0.68013 0.01585 0.0
C744 C 0.958 0.64944 0.02067 0.0
C745 C 0.99299 0.64825 1.00168 0.0
C746 C 0.00869 0.67995 0.98023 0.0
H747 H 0.3258 0.83393 0.18239 0.0
H748 H 0.41741 0.81032 0.24615 0.0
H749 H 0.45809 0.86709 0.22125 0.0
H750 H 0.37799 0.84476 0.1022 0.0
H751 H 0.35505 0.88191 0.0852 0.0
H752 H 0.3303 0.84818 0.11674 0.0
H753 H 0.31689 0.90737 0.16194 0.0
H754 H 0.34244 0.94131 0.13056 0.0
H755 H 0.35527 0.94387 0.17878 0.0
H756 H 0.49248 0.91776 0.18105 0.0
H757 H 0.51855 0.94858 0.12371 0.0
H758 H 0.40747 0.9344 0.08065 0.0
C759 C 0.35425 0.84067 0.19166 0.0
C760 C 0.36788 0.81704 0.21663 0.0
C761 C 0.40541 0.82801 0.22802 0.0
C762 C 0.42901 0.86044 0.21386 0.0
C763 C 0.41504 0.88181 0.18803 0.0
C764 C 0.3785 0.8721 0.17682 0.0
C765 C 0.37219 0.89429 0.14356 0.0
C766 C 0.3581 0.86558 0.10996 0.0
C767 C 0.34509 0.92344 0.15437 0.0
C768 C 0.41148 0.91598 0.13617 0.0
C769 C 0.43541 0.90991 0.16325 0.0
C770 C 0.47384 0.92351 0.16025 0.0
C771 C 0.48845 0.94143 0.12775 0.0
C772 C 0.46479 0.94489 0.09847 0.0
C773 C 0.42577 0.93365 0.10349 0.0
H774 H 0.04972 0.30241 0.65823 0.0
H775 H 0.09698 0.33774 0.55015 0.0
H776 H 0.06316 0.27663 0.52016 0.0
H777 H 0.05808 0.21591 0.65457 0.0
H778 H 0.01375 0.19375 0.67463 0.0
H779 H 0.03043 0.24479 0.68534 0.0
H780 H 0.9698 0.26255 0.66125 0.0
H781 H 0.95247 0.21084 0.65061 0.0
H782 H 0.95479 0.24483 0.61475 0.0
H783 H 0.04633 0.20399 0.5073 0.0
H784 H 0.04392 0.13295 0.51401 0.0
H785 H 0.99687 0.14721 0.6262 0.0
C786 C 0.05181 0.2991 0.6281 0.0
C787 C 0.0783 0.3246 0.6074 0.0
C788 C 0.07912 0.3179 0.56767 0.0
C789 C 0.05908 0.28346 0.54995 0.0
C790 C 0.03621 0.25705 0.57187 0.0
C791 C 0.03091 0.26565 0.60996 0.0
C792 C 0.00909 0.2306 0.62835 0.0
C793 C 0.02911 0.2207 0.66261 0.0
C794 C 0.96916 0.23763 0.63937 0.0
C795 C 0.00865 0.19928 0.59608 0.0
C796 C 0.02294 0.21522 0.56313 0.0
C797 C 0.03336 0.19123 0.53223 0.0
C798 C 0.03176 0.15075 0.53608 0.0
C799 C 0.01988 0.13515 0.57057 0.0
C800 C 1.00526 0.15891 0.59942 0.0
H801 H 0.6116 0.26888 0.37732 0.0
H802 H 0.59322 0.21093 0.48087 0.0
H803 H 0.56326 0.26594 0.51004 0.0
H804 H 0.63527 0.36602 0.41951 0.0
H805 H 0.61261 0.3884 0.3853 0.0
H806 H 0.63051 0.34342 0.37237 0.0
H807 H 0.565 0.30977 0.35016 0.0
H808 H 0.5469 0.35472 0.36306 0.0
H809 H 0.52502 0.30944 0.38208 0.0
H810 H 0.53583 0.32915 0.52815 0.0
H811 H 0.51614 0.39487 0.53354 0.0
H812 H 0.55499 0.41079 0.41851 0.0
C813 C 0.60073 0.26744 0.40593 0.0
C814 C 0.60461 0.2355 0.42674 0.0
C815 C 0.59073 0.23521 0.46443 0.0
C816 C 0.5735 0.26623 0.48119 0.0
C817 C 0.57038 0.29746 0.45995 0.0
C818 C 0.58373 0.29823 0.42314 0.0
C819 C 0.57853 0.33582 0.40677 0.0
C820 C 0.61648 0.35982 0.39533 0.0
C821 C 0.5523 0.32689 0.37356 0.0
C822 C 0.5604 0.35621 0.44009 0.0
C823 C 0.5556 0.33369 0.47052 0.0
C824 C 0.53966 0.34707 0.50448 0.0
C825 C 0.52884 0.38461 0.50743 0.0
C826 C 0.53455 0.40857 0.4768 0.0
C827 C 0.55008 0.39353 0.44265 0.0
loop_
_geom_bond_atom_site_label_1
_geom_bond_atom_site_label_2
_geom_bond_distance
_geom_bond_site_symmetry_2
_ccdc_geom_bond_type
H0 C5 0.930 . S
H1 C8 0.930 . S
H2 C10 0.930 . S
H3 C4 1.016 . S
C4 H3 1.016 . S
C4 N11 1.286 . S
C5 H0 0.930 . S
C5 C6 1.397 . S
C5 C7 1.361 . S
C6 C5 1.397 . S
C6 C10 1.390 . S
C7 C5 1.361 . S
C7 C8 1.393 . S
C7 N11 1.413 . S
C8 H1 0.930 . S
C8 C7 1.393 . S
C8 C9 1.399 . S
C9 C8 1.399 . S
C9 C10 1.381 . S
C10 H2 0.930 . S
C10 C6 1.390 . S
C10 C9 1.381 . S
N11 C4 1.286 . S
N11 C7 1.413 . S
H12 C17 0.930 . S
H13 C20 0.930 . S
H14 C22 0.930 . S
H15 C16 1.016 . S
C16 H15 1.016 . S
C16 N23 1.286 . S
C17 H12 0.930 . S
C17 C18 1.397 . S
C17 C19 1.361 . S
C18 C17 1.397 . S
C18 C22 1.390 . S
C19 C17 1.361 . S
C19 C20 1.393 . S
C19 N23 1.413 . S
C20 H13 0.930 . S
C20 C19 1.393 . S
C20 C21 1.399 . S
C21 C20 1.399 . S
C21 C22 1.381 . S
C22 H14 0.930 . S
C22 C18 1.390 . S
C22 C21 1.381 . S
N23 C16 1.286 . S
N23 C19 1.413 . S
H24 C29 0.930 . S
H25 C32 0.930 . S
H26 C34 0.930 . S
H27 C28 1.016 . S
C28 H27 1.016 . S
C28 N35 1.286 . S
C29 H24 0.930 . S
C29 C30 1.397 . S
C29 C31 1.361 . S
C30 C29 1.397 . S
C30 C34 1.390 . S
C31 C29 1.361 . S
C31 C32 1.393 . S
C31 N35 1.413 . S
C32 H25 0.930 . S
C32 C31 1.393 . S
C32 C33 1.399 . S
C33 C32 1.399 . S
C33 C34 1.381 . S
C34 H26 0.930 . S
C34 C30 1.390 . S
C34 C33 1.381 . S
N35 C28 1.286 . S
N35 C31 1.413 . S
H36 C41 0.930 . S
H37 C44 0.930 . S
H38 C46 0.930 . S
H39 C40 1.016 . S
C40 H39 1.016 . S
C40 N47 1.286 . S
C41 H36 0.930 . S
C41 C42 1.397 . S
C41 C43 1.361 . S
C42 C41 1.397 . S
C42 C46 1.390 . S
C43 C41 1.361 . S
C43 C44 1.393 . S
C43 N47 1.413 . S
C44 H37 0.930 . S
C44 C43 1.393 . S
C44 C45 1.399 . S
C45 C44 1.399 . S
C45 C46 1.381 . S
C46 H38 0.930 . S
C46 C42 1.390 . S
C46 C45 1.381 . S
N47 C40 1.286 . S
N47 C43 1.413 . S
H48 C53 0.930 . S
H49 C56 0.930 . S
H50 C58 0.930 . S
H51 C52 1.016 . S
C52 H51 1.016 . S
C52 N59 1.286 . S
C53 H48 0.930 . S
C53 C54 1.397 . S
C53 C55 1.361 . S
C54 C53 1.397 . S
C54 C58 1.390 . S
C55 C53 1.361 . S
C55 C56 1.393 . S
C55 N59 1.413 . S
C56 H49 0.930 . S
C56 C55 1.393 . S
C56 C57 1.399 . S
C57 C56 1.399 . S
C57 C58 1.381 . S
C58 H50 0.930 . S
C58 C54 1.390 . S
C58 C57 1.381 . S
N59 C52 1.286 . S
N59 C55 1.413 . S
H60 C65 0.930 . S
H61 C68 0.930 . S
H62 C70 0.930 . S
H63 C64 1.016 . S
C64 H63 1.016 . S
C64 N71 1.286 . S
C65 H60 0.930 . S
C65 C66 1.397 . S
C65 C67 1.361 . S
C66 C65 1.397 . S
C66 C70 1.390 . S
C67 C65 1.361 . S
C67 C68 1.393 . S
C67 N71 1.413 . S
C68 H61 0.930 . S
C68 C67 1.393 . S
C68 C69 1.399 . S
C69 C68 1.399 . S
C69 C70 1.381 . S
C70 H62 0.930 . S
C70 C66 1.390 . S
C70 C69 1.381 . S
N71 C64 1.286 . S
N71 C67 1.413 . S
H72 C77 0.930 . S
H73 C80 0.930 . S
H74 C82 0.930 . S
H75 C76 1.016 . S
C76 H75 1.016 . S
C76 N83 1.286 . S
C77 H72 0.930 . S
C77 C78 1.397 . S
C77 C79 1.361 . S
C78 C77 1.397 . S
C78 C82 1.390 . S
C79 C77 1.361 . S
C79 C80 1.393 . S
C79 N83 1.413 . S
C80 H73 0.930 . S
C80 C79 1.393 . S
C80 C81 1.399 . S
C81 C80 1.399 . S
C81 C82 1.381 . S
C82 H74 0.930 . S
C82 C78 1.390 . S
C82 C81 1.381 . S
N83 C76 1.286 . S
N83 C79 1.413 . S
H84 C89 0.930 . S
H85 C92 0.930 . S
H86 C94 0.930 . S
H87 C88 1.016 . S
C88 H87 1.016 . S
C88 N95 1.286 . S
C89 H84 0.930 . S
C89 C90 1.397 . S
C89 C91 1.361 . S
C90 C89 1.397 . S
C90 C94 1.390 . S
C91 C89 1.361 . S
C91 C92 1.393 . S
C91 N95 1.413 . S
C92 H85 0.930 . S
C92 C91 1.393 . S
C92 C93 1.399 . S
C93 C92 1.399 . S
C93 C94 1.381 . S
C94 H86 0.930 . S
C94 C90 1.390 . S
C94 C93 1.381 . S
N95 C88 1.286 . S
N95 C91 1.413 . S
O96 Mn97 2.163 1_655 S
O96 C110 1.244 . S
Mn97 O96 2.163 1_455 S
Mn97 O100 2.160 1_545 S
Mn97 O101 2.221 . S
Mn97 O103 2.163 1_445 S
Mn97 O105 2.160 . S
Mn97 O115 2.221 1_445 S
O98 Mn99 2.091 . S
O98 C110 1.251 1_565 S
Mn99 O98 2.091 . S
Mn99 O106 2.089 1_565 S
Mn99 O115 2.290 . S
Mn99 O116 2.251 . S
O100 Mn97 2.160 1_565 S
O100 C111 1.239 . S
O101 Mn97 2.221 . S
O101 Mn102 2.290 . S
O101 C112 1.278 . S
Mn102 O101 2.290 . S
Mn102 O104 2.089 . S
Mn102 O107 2.251 . S
Mn102 O108 2.087 . S
O103 Mn97 2.163 1_665 S
O103 C113 1.244 . S
O104 Mn102 2.089 . S
O104 C111 1.256 1_545 S
O105 Mn97 2.160 . S
O105 C114 1.239 . S
O106 Mn99 2.089 1_545 S
O106 C114 1.256 1_655 S
O107 Mn102 2.251 . S
O107 C112 1.241 . S
O108 Mn102 2.087 . S
O108 C113 1.256 1_445 S
C109 O115 1.278 . S
C109 O116 1.241 . S
C110 O96 1.244 . S
C110 O98 1.251 1_545 S
C111 O100 1.239 . S
C111 O104 1.256 1_565 S
C112 O101 1.278 . S
C112 O107 1.241 . S
C113 O103 1.244 . S
C113 O108 1.256 1_665 S
C114 O105 1.239 . S
C114 O106 1.256 1_455 S
O115 Mn97 2.221 1_665 S
O115 Mn99 2.290 . S
O115 C109 1.278 . S
O116 Mn99 2.251 . S
O116 C109 1.241 . S
O117 Mn118 2.163 1_556 S
O117 C131 1.244 1_545 S
Mn118 O117 2.163 1_554 S
Mn118 O121 2.160 . S
Mn118 O122 2.221 . S
Mn118 O124 2.163 . S
Mn118 O126 2.160 . S
Mn118 O136 2.221 1_545 S
O119 Mn120 2.087 . S
O119 C131 1.256 . S
Mn120 O119 2.087 . S
Mn120 O127 2.089 . S
Mn120 O136 2.290 1_556 S
Mn120 O137 2.251 1_556 S
O121 Mn118 2.160 . S
O121 C132 1.239 . S
O122 Mn118 2.221 . S
O122 Mn123 2.290 . S
O122 C133 1.278 1_554 S
Mn123 O122 2.290 . S
Mn123 O125 2.089 . S
Mn123 O128 2.236 1_554 S
Mn123 O129 2.087 . S
O124 Mn118 2.163 . S
O124 C134 1.244 . S
O125 Mn123 2.089 . S
O125 C132 1.256 . S
O126 Mn118 2.160 . S
O126 C135 1.239 1_544 S
O127 Mn120 2.089 . S
O127 C135 1.256 . S
O128 Mn123 2.236 1_556 S
O128 C133 1.244 . S
O129 Mn123 2.087 . S
O129 C134 1.256 . S
C130 O136 1.278 . S
C130 O137 1.241 . S
C131 O117 1.244 1_565 S
C131 O119 1.256 . S
C132 O121 1.239 . S
C132 O125 1.256 . S
C133 O122 1.278 1_556 S
C133 O128 1.244 . S
C134 O124 1.244 . S
C134 O129 1.256 . S
C135 O126 1.239 1_566 S
C135 O127 1.256 . S
O136 Mn118 2.221 1_565 S
O136 Mn120 2.290 1_554 S
O136 C130 1.278 . S
O137 Mn120 2.251 1_554 S
O137 C130 1.241 . S
O138 Mn139 2.163 . S
O138 C152 1.244 . S
Mn139 O138 2.163 . S
Mn139 O142 2.160 . S
Mn139 O143 2.221 . S
Mn139 O145 2.163 . S
Mn139 O147 2.160 . S
Mn139 O157 2.221 . S
O140 Mn141 2.087 . S
O140 C152 1.256 . S
Mn141 O140 2.087 . S
Mn141 O148 2.089 . S
Mn141 O157 2.290 . S
Mn141 O158 2.251 . S
O142 Mn139 2.160 . S
O142 C153 1.239 . S
O143 Mn139 2.221 . S
O143 Mn144 2.290 . S
O143 C154 1.278 . S
Mn144 O143 2.290 . S
Mn144 O146 2.089 . S
Mn144 O149 2.251 . S
Mn144 O150 2.087 . S
O145 Mn139 2.163 . S
O145 C155 1.244 . S
O146 Mn144 2.089 . S
O146 C153 1.256 . S
O147 Mn139 2.160 . S
O147 C156 1.239 . S
O148 Mn141 2.089 . S
O148 C156 1.256 . S
O149 Mn144 2.251 . S
O149 C154 1.241 . S
O150 Mn144 2.087 . S
O150 C155 1.256 . S
C151 O157 1.278 . S
C151 O158 1.241 . S
C152 O138 1.244 . S
C152 O140 1.256 . S
C153 O142 1.239 . S
C153 O146 1.256 . S
C154 O143 1.278 . S
C154 O149 1.241 . S
C155 O145 1.244 . S
C155 O150 1.256 . S
C156 O147 1.239 . S
C156 O148 1.256 . S
O157 Mn139 2.221 . S
O157 Mn141 2.290 . S
O157 C151 1.278 . S
O158 Mn141 2.251 . S
O158 C151 1.241 . S
O159 Mn160 2.163 1_655 S
O159 C173 1.244 1_554 S
Mn160 O159 2.163 1_455 S
Mn160 O163 2.160 . S
Mn160 O164 2.221 . S
Mn160 O166 2.163 . S
Mn160 O168 2.160 . S
Mn160 O178 2.221 1_554 S
O161 Mn162 2.087 . S
O161 C173 1.256 . S
Mn162 O161 2.087 . S
Mn162 O169 2.089 . S
Mn162 O178 2.290 1_655 S
Mn162 O179 2.251 1_655 S
O163 Mn160 2.160 . S
O163 C174 1.239 . S
O164 Mn160 2.221 . S
O164 Mn165 2.290 . S
O164 C175 1.278 1_455 S
Mn165 O164 2.290 . S
Mn165 O167 2.089 . S
Mn165 O170 2.251 1_455 S
Mn165 O171 2.087 . S
O166 Mn160 2.163 . S
O166 C176 1.244 . S
O167 Mn165 2.089 . S
O167 C174 1.256 . S
O168 Mn160 2.160 . S
O168 C177 1.239 1_454 S
O169 Mn162 2.089 . S
O169 C177 1.256 . S
O170 Mn165 2.251 1_655 S
O170 C175 1.241 . S
O171 Mn165 2.087 . S
O171 C176 1.256 . S
C172 O178 1.278 . S
C172 O179 1.241 . S
C173 O159 1.244 1_556 S
C173 O161 1.256 . S
C174 O163 1.239 . S
C174 O167 1.256 . S
C175 O164 1.278 1_655 S
C175 O170 1.241 . S
C176 O166 1.244 . S
C176 O171 1.256 . S
C177 O168 1.239 1_656 S
C177 O169 1.256 . S
O178 Mn160 2.221 1_556 S
O178 Mn162 2.290 1_455 S
O178 C172 1.278 . S
O179 Mn162 2.251 1_455 S
O179 C172 1.241 . S
H180 C192 0.930 . S
H181 C194 0.930 . S
H182 C195 0.930 . S
H183 C199 0.959 . S
H184 C199 0.959 . S
H185 C199 0.961 . S
H186 C200 0.960 . S
H187 C200 0.961 . S
H188 C200 0.959 . S
H189 C203 0.929 1_565 S
H190 C204 0.931 1_565 S
H191 C206 0.930 . S
C192 H180 0.930 . S
C192 C193 1.399 . S
C192 C197 1.399 . S
C193 C192 1.399 . S
C193 C194 1.376 . S
C194 H181 0.930 . S
C194 C193 1.376 . S
C194 C195 1.388 . S
C195 H182 0.930 . S
C195 C194 1.388 . S
C195 C196 1.390 . S
C196 C195 1.390 . S
C196 C197 1.394 . S
C196 C202 1.465 . S
C197 C192 1.399 . S
C197 C196 1.394 . S
C197 C198 1.516 . S
C198 C197 1.516 . S
C198 C199 1.502 . S
C198 C200 1.561 . S
C198 C201 1.526 . S
C199 H183 0.959 . S
C199 H184 0.959 . S
C199 H185 0.961 . S
C199 C198 1.502 . S
C200 H186 0.960 . S
C200 H187 0.961 . S
C200 H188 0.959 . S
C200 C198 1.561 . S
C201 C198 1.526 . S
C201 C202 1.396 . S
C201 C206 1.390 . S
C202 C196 1.465 . S
C202 C201 1.396 . S
C202 C203 1.399 . S
C203 H189 0.929 1_545 S
C203 C202 1.399 . S
C203 C204 1.385 . S
C204 H190 0.931 1_545 S
C204 C203 1.385 . S
C204 C205 1.389 . S
C205 C204 1.389 . S
C205 C206 1.387 . S
C206 H191 0.930 . S
C206 C201 1.390 . S
C206 C205 1.387 . S
H207 C219 0.930 . S
H208 C221 0.930 . S
H209 C222 0.930 . S
H210 C226 0.959 . S
H211 C226 0.959 . S
H212 C226 0.961 . S
H213 C227 0.960 . S
H214 C227 0.961 . S
H215 C227 0.969 . S
H216 C230 0.929 . S
H217 C231 0.931 . S
H218 C233 0.930 . S
C219 H207 0.930 . S
C219 C220 1.399 . S
C219 C224 1.399 . S
C220 C219 1.399 . S
C220 C221 1.376 . S
C221 H208 0.930 . S
C221 C220 1.376 . S
C221 C222 1.388 . S
C222 H209 0.930 . S
C222 C221 1.388 . S
C222 C223 1.390 . S
C223 C222 1.390 . S
C223 C224 1.394 . S
C223 C229 1.465 . S
C224 C219 1.399 . S
C224 C223 1.394 . S
C224 C225 1.517 1_565 S
C225 C224 1.517 1_545 S
C225 C226 1.501 . S
C225 C227 1.560 . S
C225 C228 1.527 1_545 S
C226 H210 0.959 . S
C226 H211 0.959 . S
C226 H212 0.961 . S
C226 C225 1.501 . S
C227 H213 0.960 . S
C227 H214 0.961 . S
C227 H215 0.969 . S
C227 C225 1.560 . S
C228 C225 1.527 1_565 S
C228 C229 1.396 . S
C228 C233 1.390 1_565 S
C229 C223 1.465 . S
C229 C228 1.396 . S
C229 C230 1.399 . S
C230 H216 0.929 . S
C230 C229 1.399 . S
C230 C231 1.385 . S
C231 H217 0.931 . S
C231 C230 1.385 . S
C231 C232 1.389 . S
C232 C231 1.389 . S
C232 C233 1.387 1_565 S
C233 H218 0.930 . S
C233 C228 1.390 1_545 S
C233 C232 1.387 1_545 S
H234 C246 0.930 . S
H235 C248 0.930 . S
H236 C249 0.930 . S
H237 C253 0.959 . S
H238 C253 0.959 . S
H239 C253 0.961 . S
H240 C254 0.960 . S
H241 C254 0.961 . S
H242 C254 0.959 . S
H243 C257 0.929 . S
H244 C258 0.931 . S
H245 C260 0.930 . S
C246 H234 0.930 . S
C246 C247 1.399 . S
C246 C251 1.399 . S
C247 C246 1.399 . S
C247 C248 1.376 . S
C248 H235 0.930 . S
C248 C247 1.376 . S
C248 C249 1.388 . S
C249 H236 0.930 . S
C249 C248 1.388 . S
C249 C250 1.390 . S
C250 C249 1.390 . S
C250 C251 1.394 . S
C250 C256 1.465 . S
C251 C246 1.399 . S
C251 C250 1.394 . S
C251 C252 1.516 . S
C252 C251 1.516 . S
C252 C253 1.502 . S
C252 C254 1.561 . S
C252 C255 1.526 . S
C253 H237 0.959 . S
C253 H238 0.959 . S
C253 H239 0.961 . S
C253 C252 1.502 . S
C254 H240 0.960 . S
C254 H241 0.961 . S
C254 H242 0.959 . S
C254 C252 1.561 . S
C255 C252 1.526 . S
C255 C256 1.396 . S
C255 C260 1.390 . S
C256 C250 1.465 . S
C256 C255 1.396 . S
C256 C257 1.399 . S
C257 H243 0.929 . S
C257 C256 1.399 . S
C257 C258 1.385 . S
C258 H244 0.931 . S
C258 C257 1.385 . S
C258 C259 1.389 . S
C259 C258 1.389 . S
C259 C260 1.387 . S
C260 H245 0.930 . S
C260 C255 1.390 . S
C260 C259 1.387 . S
H261 C273 0.930 . S
H262 C275 0.930 . S
H263 C276 0.930 . S
H264 C280 0.959 . S
H265 C280 0.959 . S
H266 C280 0.961 . S
H267 C281 0.960 . S
H268 C281 0.961 . S
H269 C281 0.959 . S
H270 C284 0.929 . S
H271 C285 0.931 . S
H272 C287 0.930 . S
C273 H261 0.930 . S
C273 C274 1.399 . S
C273 C278 1.399 . S
C274 C273 1.399 . S
C274 C275 1.376 . S
C275 H262 0.930 . S
C275 C274 1.376 . S
C275 C276 1.388 . S
C276 H263 0.930 . S
C276 C275 1.388 . S
C276 C277 1.390 . S
C277 C276 1.390 . S
C277 C278 1.394 . S
C277 C283 1.465 . S
C278 C273 1.399 . S
C278 C277 1.394 . S
C278 C279 1.516 . S
C279 C278 1.516 . S
C279 C280 1.502 . S
C279 C281 1.561 . S
C279 C282 1.526 . S
C280 H264 0.959 . S
C280 H265 0.959 . S
C280 H266 0.961 . S
C280 C279 1.502 . S
C281 H267 0.960 . S
C281 H268 0.961 . S
C281 H269 0.959 . S
C281 C279 1.561 . S
C282 C279 1.526 . S
C282 C283 1.396 . S
C282 C287 1.390 . S
C283 C277 1.465 . S
C283 C282 1.396 . S
C283 C284 1.399 . S
C284 H270 0.929 . S
C284 C283 1.399 . S
C284 C285 1.385 . S
C285 H271 0.931 . S
C285 C284 1.385 . S
C285 C286 1.389 . S
C286 C285 1.389 . S
C286 C287 1.387 . S
C287 H272 0.930 . S
C287 C282 1.390 . S
C287 C286 1.387 . S
H288 C300 0.930 . S
H289 C302 0.930 . S
H290 C303 0.930 . S
H291 C307 0.959 . S
H292 C307 0.959 . S
H293 C307 0.961 . S
H294 C308 0.960 . S
H295 C308 0.961 . S
H296 C308 0.959 . S
H297 C311 0.929 . S
H298 C312 0.931 . S
H299 C314 0.930 . S
C300 H288 0.930 . S
C300 C301 1.399 . S
C300 C305 1.399 . S
C301 C300 1.399 . S
C301 C302 1.376 . S
C302 H289 0.930 . S
C302 C301 1.376 . S
C302 C303 1.388 . S
C303 H290 0.930 . S
C303 C302 1.388 . S
C303 C304 1.390 . S
C304 C303 1.390 . S
C304 C305 1.394 . S
C304 C310 1.465 . S
C305 C300 1.399 . S
C305 C304 1.394 . S
C305 C306 1.516 . S
C306 C305 1.516 . S
C306 C307 1.502 . S
C306 C308 1.561 . S
C306 C309 1.526 . S
C307 H291 0.959 . S
C307 H292 0.959 . S
C307 H293 0.961 . S
C307 C306 1.502 . S
C308 H294 0.960 . S
C308 H295 0.961 . S
C308 H296 0.959 . S
C308 C306 1.561 . S
C309 C306 1.526 . S
C309 C310 1.396 . S
C309 C314 1.390 . S
C310 C304 1.465 . S
C310 C309 1.396 . S
C310 C311 1.399 . S
C311 H297 0.929 . S
C311 C310 1.399 . S
C311 C312 1.385 . S
C312 H298 0.931 . S
C312 C311 1.385 . S
C312 C313 1.389 . S
C313 C312 1.389 . S
C313 C314 1.387 . S
C314 H299 0.930 . S
C314 C309 1.390 . S
C314 C313 1.387 . S
H315 C327 0.930 . S
H316 C329 0.930 . S
H317 C330 0.930 . S
H318 C334 0.959 . S
H319 C334 0.959 . S
H320 C334 0.961 . S
H321 C335 0.960 . S
H322 C335 0.961 . S
H323 C335 0.959 . S
H324 C338 0.929 . S
H325 C339 0.931 . S
H326 C341 0.930 . S
C327 H315 0.930 . S
C327 C328 1.399 . S
C327 C332 1.399 . S
C328 C327 1.399 . S
C328 C329 1.376 . S
C329 H316 0.930 . S
C329 C328 1.376 . S
C329 C330 1.388 . S
C330 H317 0.930 . S
C330 C329 1.388 . S
C330 C331 1.390 . S
C331 C330 1.390 . S
C331 C332 1.394 . S
C331 C337 1.465 . S
C332 C327 1.399 . S
C332 C331 1.394 . S
C332 C333 1.516 . S
C333 C332 1.516 . S
C333 C334 1.502 . S
C333 C335 1.561 1_565 S
C333 C336 1.526 . S
C334 H318 0.959 . S
C334 H319 0.959 . S
C334 H320 0.961 . S
C334 C333 1.502 . S
C335 H321 0.960 . S
C335 H322 0.961 . S
C335 H323 0.959 . S
C335 C333 1.561 1_545 S
C336 C333 1.526 . S
C336 C337 1.396 . S
C336 C341 1.390 . S
C337 C331 1.465 . S
C337 C336 1.396 . S
C337 C338 1.399 . S
C338 H324 0.929 . S
C338 C337 1.399 . S
C338 C339 1.385 . S
C339 H325 0.931 . S
C339 C338 1.385 . S
C339 C340 1.389 . S
C340 C339 1.389 . S
C340 C341 1.387 . S
C341 H326 0.930 . S
C341 C336 1.390 . S
C341 C340 1.387 . S
H342 C354 0.930 . S
H343 C356 0.930 . S
H344 C357 0.930 . S
H345 C361 0.959 . S
H346 C361 0.959 . S
H347 C361 0.961 . S
H348 C362 0.960 . S
H349 C362 0.961 . S
H350 C362 0.959 . S
H351 C365 0.929 . S
H352 C366 0.931 . S
H353 C368 0.930 . S
C354 H342 0.930 . S
C354 C355 1.399 . S
C354 C359 1.399 . S
C355 C354 1.399 . S
C355 C356 1.376 . S
C356 H343 0.930 . S
C356 C355 1.376 . S
C356 C357 1.388 . S
C357 H344 0.930 . S
C357 C356 1.388 . S
C357 C358 1.390 . S
C358 C357 1.390 . S
C358 C359 1.394 . S
C358 C364 1.465 . S
C359 C354 1.399 . S
C359 C358 1.394 . S
C359 C360 1.516 . S
C360 C359 1.516 . S
C360 C361 1.502 . S
C360 C362 1.561 . S
C360 C363 1.526 . S
C361 H345 0.959 . S
C361 H346 0.959 . S
C361 H347 0.961 . S
C361 C360 1.502 . S
C362 H348 0.960 . S
C362 H349 0.961 . S
C362 H350 0.959 . S
C362 C360 1.561 . S
C363 C360 1.526 . S
C363 C364 1.396 . S
C363 C368 1.390 . S
C364 C358 1.465 . S
C364 C363 1.396 . S
C364 C365 1.399 1_556 S
C365 H351 0.929 . S
C365 C364 1.399 1_554 S
C365 C366 1.385 . S
C366 H352 0.931 . S
C366 C365 1.385 . S
C366 C367 1.389 1_554 S
C367 C366 1.389 1_556 S
C367 C368 1.387 . S
C368 H353 0.930 . S
C368 C363 1.390 . S
C368 C367 1.387 . S
H369 C381 0.930 . S
H370 C383 0.930 . S
H371 C384 0.930 . S
H372 C388 0.959 . S
H373 C388 0.959 . S
H374 C388 0.961 . S
H375 C389 0.960 . S
H376 C389 0.961 . S
H377 C389 0.959 . S
H378 C392 0.929 . S
H379 C393 0.931 . S
H380 C395 0.930 . S
C381 H369 0.930 . S
C381 C382 1.399 . S
C381 C386 1.399 . S
C382 C381 1.399 . S
C382 C383 1.376 . S
C383 H370 0.930 . S
C383 C382 1.376 . S
C383 C384 1.388 . S
C384 H371 0.930 . S
C384 C383 1.388 . S
C384 C385 1.390 . S
C385 C384 1.390 . S
C385 C386 1.394 . S
C385 C391 1.465 . S
C386 C381 1.399 . S
C386 C385 1.394 . S
C386 C387 1.516 . S
C387 C386 1.516 . S
C387 C388 1.502 . S
C387 C389 1.561 . S
C387 C390 1.526 . S
C388 H372 0.959 . S
C388 H373 0.959 . S
C388 H374 0.961 . S
C388 C387 1.502 . S
C389 H375 0.960 . S
C389 H376 0.961 . S
C389 H377 0.959 . S
C389 C387 1.561 . S
C390 C387 1.526 . S
C390 C391 1.396 . S
C390 C395 1.390 . S
C391 C385 1.465 . S
C391 C390 1.396 . S
C391 C392 1.399 . S
C392 H378 0.929 . S
C392 C391 1.399 . S
C392 C393 1.385 . S
C393 H379 0.931 . S
C393 C392 1.385 . S
C393 C394 1.389 . S
C394 C393 1.389 . S
C394 C395 1.387 . S
C395 H380 0.930 . S
C395 C390 1.390 . S
C395 C394 1.387 . S
H396 C408 0.930 . S
H397 C410 0.930 . S
H398 C411 0.930 . S
H399 C415 0.959 . S
H400 C415 0.959 . S
H401 C415 0.961 . S
H402 C416 0.960 . S
H403 C416 0.961 1_556 S
H404 C416 0.959 . S
H405 C419 0.929 . S
H406 C420 0.931 . S
H407 C422 0.934 . S
C408 H396 0.930 . S
C408 C409 1.399 . S
C408 C413 1.399 . S
C409 C408 1.399 . S
C409 C410 1.376 . S
C410 H397 0.930 . S
C410 C409 1.376 . S
C410 C411 1.388 . S
C411 H398 0.930 . S
C411 C410 1.388 . S
C411 C412 1.390 . S
C412 C411 1.390 . S
C412 C413 1.394 . S
C412 C418 1.465 . S
C413 C408 1.399 . S
C413 C412 1.394 . S
C413 C414 1.516 . S
C414 C413 1.516 . S
C414 C415 1.502 1_554 S
C414 C416 1.561 . S
C414 C417 1.526 . S
C415 H399 0.959 . S
C415 H400 0.959 . S
C415 H401 0.961 . S
C415 C414 1.502 1_556 S
C416 H402 0.960 . S
C416 H403 0.961 1_554 S
C416 H404 0.959 . S
C416 C414 1.561 . S
C417 C414 1.526 . S
C417 C418 1.396 . S
C417 C422 1.390 . S
C418 C412 1.465 . S
C418 C417 1.396 . S
C418 C419 1.399 . S
C419 H405 0.929 . S
C419 C418 1.399 . S
C419 C420 1.385 . S
C420 H406 0.931 . S
C420 C419 1.385 . S
C420 C421 1.389 . S
C421 C420 1.389 . S
C421 C422 1.387 . S
C422 H407 0.934 . S
C422 C417 1.390 . S
C422 C421 1.387 . S
H423 C435 0.930 . S
H424 C437 0.930 . S
H425 C438 0.930 . S
H426 C442 0.959 . S
H427 C442 0.959 . S
H428 C442 0.961 . S
H429 C443 0.960 . S
H430 C443 0.961 . S
H431 C443 0.959 . S
H432 C446 0.929 1_554 S
H433 C447 0.931 1_554 S
H434 C449 0.930 . S
C435 H423 0.930 . S
C435 C436 1.399 . S
C435 C440 1.399 . S
C436 C435 1.399 . S
C436 C437 1.376 . S
C437 H424 0.930 . S
C437 C436 1.376 . S
C437 C438 1.388 . S
C438 H425 0.930 . S
C438 C437 1.388 . S
C438 C439 1.390 . S
C439 C438 1.390 . S
C439 C440 1.394 . S
C439 C445 1.465 . S
C440 C435 1.399 . S
C440 C439 1.394 . S
C440 C441 1.516 . S
C441 C440 1.516 . S
C441 C442 1.502 . S
C441 C443 1.561 . S
C441 C444 1.526 . S
C442 H426 0.959 . S
C442 H427 0.959 . S
C442 H428 0.961 . S
C442 C441 1.502 . S
C443 H429 0.960 . S
C443 H430 0.961 . S
C443 H431 0.959 . S
C443 C441 1.561 . S
C444 C441 1.526 . S
C444 C445 1.396 . S
C444 C449 1.390 . S
C445 C439 1.465 . S
C445 C444 1.396 . S
C445 C446 1.399 . S
C446 H432 0.929 1_556 S
C446 C445 1.399 . S
C446 C447 1.385 . S
C447 H433 0.931 1_556 S
C447 C446 1.385 . S
C447 C448 1.389 . S
C448 C447 1.389 . S
C448 C449 1.387 . S
C449 H434 0.930 . S
C449 C444 1.390 . S
C449 C448 1.387 . S
H450 C462 0.930 . S
H451 C464 0.930 . S
H452 C465 0.930 . S
H453 C469 0.959 . S
H454 C469 0.959 . S
H455 C469 0.961 . S
H456 C470 0.960 . S
H457 C470 0.961 . S
H458 C470 0.959 . S
H459 C473 0.929 . S
H460 C474 0.931 . S
H461 C476 0.930 . S
C462 H450 0.930 . S
C462 C463 1.399 . S
C462 C467 1.399 . S
C463 C462 1.399 . S
C463 C464 1.376 . S
C464 H451 0.930 . S
C464 C463 1.376 . S
C464 C465 1.388 . S
C465 H452 0.930 . S
C465 C464 1.388 . S
C465 C466 1.390 . S
C466 C465 1.390 . S
C466 C467 1.394 . S
C466 C472 1.465 . S
C467 C462 1.399 . S
C467 C466 1.394 . S
C467 C468 1.516 . S
C468 C467 1.516 . S
C468 C469 1.502 . S
C468 C470 1.561 . S
C468 C471 1.526 . S
C469 H453 0.959 . S
C469 H454 0.959 . S
C469 H455 0.961 . S
C469 C468 1.502 . S
C470 H456 0.960 . S
C470 H457 0.961 . S
C470 H458 0.959 . S
C470 C468 1.561 . S
C471 C468 1.526 . S
C471 C472 1.396 . S
C471 C476 1.390 . S
C472 C466 1.465 . S
C472 C471 1.396 . S
C472 C473 1.399 . S
C473 H459 0.929 . S
C473 C472 1.399 . S
C473 C474 1.385 . S
C474 H460 0.931 . S
C474 C473 1.385 . S
C474 C475 1.389 . S
C475 C474 1.389 . S
C475 C476 1.387 . S
C476 H461 0.930 . S
C476 C471 1.390 . S
C476 C475 1.387 . S
H477 C489 0.930 . S
H478 C491 0.930 . S
H479 C492 0.930 . S
H480 C496 0.959 . S
H481 C496 0.959 . S
H482 C496 0.961 . S
H483 C497 0.960 . S
H484 C497 0.961 . S
H485 C497 0.959 . S
H486 C500 0.929 . S
H487 C501 0.931 . S
H488 C503 0.930 . S
C489 H477 0.930 . S
C489 C490 1.399 . S
C489 C494 1.399 . S
C490 C489 1.399 . S
C490 C491 1.376 . S
C491 H478 0.930 . S
C491 C490 1.376 . S
C491 C492 1.388 . S
C492 H479 0.930 . S
C492 C491 1.388 . S
C492 C493 1.390 . S
C493 C492 1.390 . S
C493 C494 1.394 . S
C493 C499 1.465 . S
C494 C489 1.399 . S
C494 C493 1.394 . S
C494 C495 1.516 . S
C495 C494 1.516 . S
C495 C496 1.502 . S
C495 C497 1.561 . S
C495 C498 1.526 . S
C496 H480 0.959 . S
C496 H481 0.959 . S
C496 H482 0.961 . S
C496 C495 1.502 . S
C497 H483 0.960 . S
C497 H484 0.961 . S
C497 H485 0.959 . S
C497 C495 1.561 . S
C498 C495 1.526 . S
C498 C499 1.396 . S
C498 C503 1.390 . S
C499 C493 1.465 . S
C499 C498 1.396 . S
C499 C500 1.399 . S
C500 H486 0.929 . S
C500 C499 1.399 . S
C500 C501 1.385 . S
C501 H487 0.931 . S
C501 C500 1.385 . S
C501 C502 1.389 . S
C502 C501 1.389 . S
C502 C503 1.387 . S
C503 H488 0.930 . S
C503 C498 1.390 . S
C503 C502 1.387 . S
H504 C516 0.930 . S
H505 C518 0.930 . S
H506 C519 0.930 1_545 S
H507 C523 0.959 1_455 S
H508 C523 0.959 . S
H509 C523 0.961 . S
H510 C524 0.960 . S
H511 C524 0.961 . S
H512 C524 0.959 . S
H513 C527 0.929 . S
H514 C528 0.931 . S
H515 C530 0.930 . S
C516 H504 0.930 . S
C516 C517 1.399 . S
C516 C521 1.399 . S
C517 C516 1.399 . S
C517 C518 1.376 . S
C518 H505 0.930 . S
C518 C517 1.376 . S
C518 C519 1.388 . S
C519 H506 0.930 1_565 S
C519 C518 1.388 . S
C519 C520 1.390 . S
C520 C519 1.390 . S
C520 C521 1.394 . S
C520 C526 1.465 . S
C521 C516 1.399 . S
C521 C520 1.394 . S
C521 C522 1.516 . S
C522 C521 1.516 . S
C522 C523 1.502 . S
C522 C524 1.561 . S
C522 C525 1.526 . S
C523 H507 0.959 1_655 S
C523 H508 0.959 . S
C523 H509 0.961 . S
C523 C522 1.502 . S
C524 H510 0.960 . S
C524 H511 0.961 . S
C524 H512 0.959 . S
C524 C522 1.561 . S
C525 C522 1.526 . S
C525 C526 1.396 . S
C525 C530 1.390 . S
C526 C520 1.465 . S
C526 C525 1.396 . S
C526 C527 1.399 1_565 S
C527 H513 0.929 . S
C527 C526 1.399 1_545 S
C527 C528 1.385 . S
C528 H514 0.931 . S
C528 C527 1.385 . S
C528 C529 1.389 1_545 S
C529 C528 1.389 1_565 S
C529 C530 1.387 . S
C530 H515 0.930 . S
C530 C525 1.390 . S
C530 C529 1.387 . S
H531 C543 0.930 . S
H532 C545 0.930 . S
H533 C546 0.930 . S
H534 C550 0.959 . S
H535 C550 0.959 . S
H536 C550 0.961 . S
H537 C551 0.960 . S
H538 C551 0.961 . S
H539 C551 0.959 . S
H540 C554 0.929 . S
H541 C555 0.931 . S
H542 C557 0.930 . S
C543 H531 0.930 . S
C543 C544 1.399 . S
C543 C548 1.399 . S
C544 C543 1.399 . S
C544 C545 1.376 . S
C545 H532 0.930 . S
C545 C544 1.376 . S
C545 C546 1.388 . S
C546 H533 0.930 . S
C546 C545 1.388 . S
C546 C547 1.390 . S
C547 C546 1.390 . S
C547 C548 1.394 . S
C547 C553 1.465 . S
C548 C543 1.399 . S
C548 C547 1.394 . S
C548 C549 1.516 . S
C549 C548 1.516 . S
C549 C550 1.502 . S
C549 C551 1.561 . S
C549 C552 1.526 . S
C550 H534 0.959 . S
C550 H535 0.959 . S
C550 H536 0.961 . S
C550 C549 1.502 . S
C551 H537 0.960 . S
C551 H538 0.961 . S
C551 H539 0.959 . S
C551 C549 1.561 . S
C552 C549 1.526 . S
C552 C553 1.396 . S
C552 C557 1.390 . S
C553 C547 1.465 . S
C553 C552 1.396 . S
C553 C554 1.399 . S
C554 H540 0.929 . S
C554 C553 1.399 . S
C554 C555 1.385 . S
C555 H541 0.931 . S
C555 C554 1.385 . S
C555 C556 1.389 . S
C556 C555 1.389 . S
C556 C557 1.387 . S
C557 H542 0.930 . S
C557 C552 1.390 . S
C557 C556 1.387 . S
H558 C570 0.930 . S
H559 C572 0.930 . S
H560 C573 0.930 . S
H561 C577 0.959 . S
H562 C577 0.959 . S
H563 C577 0.961 . S
H564 C578 0.960 . S
H565 C578 0.961 . S
H566 C578 0.959 . S
H567 C581 0.929 . S
H568 C582 0.931 . S
H569 C584 0.930 . S
C570 H558 0.930 . S
C570 C571 1.399 . S
C570 C575 1.399 . S
C571 C570 1.399 . S
C571 C572 1.376 . S
C572 H559 0.930 . S
C572 C571 1.376 . S
C572 C573 1.388 . S
C573 H560 0.930 . S
C573 C572 1.388 . S
C573 C574 1.390 . S
C574 C573 1.390 . S
C574 C575 1.394 . S
C574 C580 1.465 . S
C575 C570 1.399 . S
C575 C574 1.394 . S
C575 C576 1.516 . S
C576 C575 1.516 . S
C576 C577 1.502 . S
C576 C578 1.561 . S
C576 C579 1.526 . S
C577 H561 0.959 . S
C577 H562 0.959 . S
C577 H563 0.961 . S
C577 C576 1.502 . S
C578 H564 0.960 . S
C578 H565 0.961 . S
C578 H566 0.959 . S
C578 C576 1.561 . S
C579 C576 1.526 . S
C579 C580 1.396 . S
C579 C584 1.390 . S
C580 C574 1.465 . S
C580 C579 1.396 . S
C580 C581 1.399 . S
C581 H567 0.929 . S
C581 C580 1.399 . S
C581 C582 1.385 . S
C582 H568 0.931 . S
C582 C581 1.385 . S
C582 C583 1.389 . S
C583 C582 1.389 . S
C583 C584 1.387 . S
C584 H569 0.930 . S
C584 C579 1.390 . S
C584 C583 1.387 . S
H585 C597 0.930 . S
H586 C599 0.930 . S
H587 C600 0.930 . S
H588 C604 0.959 . S
H589 C604 0.959 . S
H590 C604 0.961 . S
H591 C605 0.960 . S
H592 C605 0.961 . S
H593 C605 0.959 . S
H594 C608 0.929 . S
H595 C609 0.931 . S
H596 C611 0.930 . S
C597 H585 0.930 . S
C597 C598 1.399 . S
C597 C602 1.399 . S
C598 C597 1.399 . S
C598 C599 1.376 . S
C599 H586 0.930 . S
C599 C598 1.376 . S
C599 C600 1.388 . S
C600 H587 0.930 . S
C600 C599 1.388 . S
C600 C601 1.390 . S
C601 C600 1.390 . S
C601 C602 1.394 . S
C601 C607 1.465 . S
C602 C597 1.399 . S
C602 C601 1.394 . S
C602 C603 1.516 . S
C603 C602 1.516 . S
C603 C604 1.502 . S
C603 C605 1.561 . S
C603 C606 1.526 . S
C604 H588 0.959 . S
C604 H589 0.959 . S
C604 H590 0.961 . S
C604 C603 1.502 . S
C605 H591 0.960 . S
C605 H592 0.961 . S
C605 H593 0.959 . S
C605 C603 1.561 . S
C606 C603 1.526 . S
C606 C607 1.396 . S
C606 C611 1.390 . S
C607 C601 1.465 . S
C607 C606 1.396 . S
C607 C608 1.399 . S
C608 H594 0.929 . S
C608 C607 1.399 . S
C608 C609 1.385 . S
C609 H595 0.931 . S
C609 C608 1.385 . S
C609 C610 1.389 . S
C610 C609 1.389 . S
C610 C611 1.387 . S
C611 H596 0.930 . S
C611 C606 1.390 . S
C611 C610 1.387 . S
H612 C624 0.930 . S
H613 C626 0.930 . S
H614 C627 0.930 . S
H615 C631 0.959 1_554 S
H616 C631 0.965 . S
H617 C631 0.961 . S
H618 C632 0.960 . S
H619 C632 0.961 . S
H620 C632 0.959 . S
H621 C635 0.929 . S
H622 C636 0.931 . S
H623 C638 0.930 . S
C624 H612 0.930 . S
C624 C625 1.399 . S
C624 C629 1.399 . S
C625 C624 1.399 . S
C625 C626 1.376 . S
C626 H613 0.930 . S
C626 C625 1.376 . S
C626 C627 1.388 . S
C627 H614 0.930 . S
C627 C626 1.388 . S
C627 C628 1.390 . S
C628 C627 1.390 . S
C628 C629 1.394 . S
C628 C634 1.465 . S
C629 C624 1.399 . S
C629 C628 1.394 . S
C629 C630 1.516 1_565 S
C630 C629 1.516 1_545 S
C630 C631 1.502 . S
C630 C632 1.561 . S
C630 C633 1.526 1_545 S
C631 H615 0.959 1_556 S
C631 H616 0.965 . S
C631 H617 0.961 . S
C631 C630 1.502 . S
C632 H618 0.960 . S
C632 H619 0.961 . S
C632 H620 0.959 . S
C632 C630 1.561 . S
C633 C630 1.526 1_565 S
C633 C634 1.396 . S
C633 C638 1.390 1_565 S
C634 C628 1.465 . S
C634 C633 1.396 . S
C634 C635 1.399 . S
C635 H621 0.929 . S
C635 C634 1.399 . S
C635 C636 1.385 . S
C636 H622 0.931 . S
C636 C635 1.385 . S
C636 C637 1.389 . S
C637 C636 1.389 . S
C637 C638 1.387 1_565 S
C638 H623 0.930 . S
C638 C633 1.390 1_545 S
C638 C637 1.387 1_545 S
H639 C651 0.930 . S
H640 C653 0.930 . S
H641 C654 0.930 . S
H642 C658 0.959 . S
H643 C658 0.968 . S
H644 C658 0.961 . S
H645 C659 0.960 . S
H646 C659 0.961 . S
H647 C659 0.959 . S
H648 C662 0.929 . S
H649 C663 0.931 . S
H650 C665 0.930 . S
C651 H639 0.930 . S
C651 C652 1.399 . S
C651 C656 1.399 . S
C652 C651 1.399 . S
C652 C653 1.376 . S
C653 H640 0.930 . S
C653 C652 1.376 . S
C653 C654 1.388 . S
C654 H641 0.930 . S
C654 C653 1.388 . S
C654 C655 1.390 . S
C655 C654 1.390 . S
C655 C656 1.394 . S
C655 C661 1.465 . S
C656 C651 1.399 . S
C656 C655 1.394 . S
C656 C657 1.516 . S
C657 C656 1.516 . S
C657 C658 1.502 . S
C657 C659 1.561 . S
C657 C660 1.526 . S
C658 H642 0.959 . S
C658 H643 0.968 . S
C658 H644 0.961 . S
C658 C657 1.502 . S
C659 H645 0.960 . S
C659 H646 0.961 . S
C659 H647 0.959 . S
C659 C657 1.561 . S
C660 C657 1.526 . S
C660 C661 1.396 . S
C660 C665 1.390 . S
C661 C655 1.465 . S
C661 C660 1.396 . S
C661 C662 1.399 . S
C662 H648 0.929 . S
C662 C661 1.399 . S
C662 C663 1.385 . S
C663 H649 0.931 . S
C663 C662 1.385 . S
C663 C664 1.389 . S
C664 C663 1.389 . S
C664 C665 1.387 . S
C665 H650 0.930 . S
C665 C660 1.390 . S
C665 C664 1.387 . S
H666 C678 0.930 . S
H667 C680 0.930 . S
H668 C681 0.930 . S
H669 C685 0.959 . S
H670 C685 0.959 . S
H671 C685 0.961 . S
H672 C686 0.960 . S
H673 C686 0.961 . S
H674 C686 0.959 . S
H675 C689 0.929 . S
H676 C690 0.931 . S
H677 C692 0.930 . S
C678 H666 0.930 . S
C678 C679 1.399 . S
C678 C683 1.399 . S
C679 C678 1.399 . S
C679 C680 1.376 . S
C680 H667 0.930 . S
C680 C679 1.376 . S
C680 C681 1.388 . S
C681 H668 0.930 . S
C681 C680 1.388 . S
C681 C682 1.390 . S
C682 C681 1.390 . S
C682 C683 1.394 . S
C682 C688 1.465 . S
C683 C678 1.399 . S
C683 C682 1.394 . S
C683 C684 1.516 . S
C684 C683 1.516 . S
C684 C685 1.502 . S
C684 C686 1.561 . S
C684 C687 1.526 . S
C685 H669 0.959 . S
C685 H670 0.959 . S
C685 H671 0.961 . S
C685 C684 1.502 . S
C686 H672 0.960 . S
C686 H673 0.961 . S
C686 H674 0.959 . S
C686 C684 1.561 . S
C687 C684 1.526 . S
C687 C688 1.396 . S
C687 C692 1.390 . S
C688 C682 1.465 . S
C688 C687 1.396 . S
C688 C689 1.399 . S
C689 H675 0.929 . S
C689 C688 1.399 . S
C689 C690 1.385 . S
C690 H676 0.931 . S
C690 C689 1.385 . S
C690 C691 1.389 . S
C691 C690 1.389 . S
C691 C692 1.387 . S
C692 H677 0.930 . S
C692 C687 1.390 . S
C692 C691 1.387 . S
H693 C705 0.930 . S
H694 C707 0.930 . S
H695 C708 0.930 . S
H696 C712 0.959 . S
H697 C712 0.959 . S
H698 C712 0.961 . S
H699 C713 0.960 . S
H700 C713 0.961 . S
H701 C713 0.959 . S
H702 C716 0.929 . S
H703 C717 0.931 . S
H704 C719 0.930 . S
C705 H693 0.930 . S
C705 C706 1.399 . S
C705 C710 1.399 . S
C706 C705 1.399 . S
C706 C707 1.376 . S
C707 H694 0.930 . S
C707 C706 1.376 . S
C707 C708 1.388 . S
C708 H695 0.930 . S
C708 C707 1.388 . S
C708 C709 1.390 . S
C709 C708 1.390 . S
C709 C710 1.394 . S
C709 C715 1.465 . S
C710 C705 1.399 . S
C710 C709 1.394 . S
C710 C711 1.516 . S
C711 C710 1.516 . S
C711 C712 1.502 . S
C711 C713 1.561 . S
C711 C714 1.526 . S
C712 H696 0.959 . S
C712 H697 0.959 . S
C712 H698 0.961 . S
C712 C711 1.502 . S
C713 H699 0.960 . S
C713 H700 0.961 . S
C713 H701 0.959 . S
C713 C711 1.561 . S
C714 C711 1.526 . S
C714 C715 1.396 . S
C714 C719 1.390 . S
C715 C709 1.465 . S
C715 C714 1.396 . S
C715 C716 1.399 . S
C716 H702 0.929 . S
C716 C715 1.399 . S
C716 C717 1.385 . S
C717 H703 0.931 . S
C717 C716 1.385 . S
C717 C718 1.389 . S
C718 C717 1.389 . S
C718 C719 1.387 . S
C719 H704 0.930 . S
C719 C714 1.390 . S
C719 C718 1.387 . S
H720 C732 0.930 . S
H721 C734 0.930 . S
H722 C735 0.930 . S
H723 C739 0.959 . S
H724 C739 0.959 . S
H725 C739 0.961 . S
H726 C740 0.960 . S
H727 C740 0.961 . S
H728 C740 0.959 . S
H729 C743 0.930 . S
H730 C744 0.931 . S
H731 C746 0.930 . S
C732 H720 0.930 . S
C732 C733 1.399 . S
C732 C737 1.399 . S
C733 C732 1.399 . S
C733 C734 1.376 . S
C734 H721 0.930 . S
C734 C733 1.376 . S
C734 C735 1.388 . S
C735 H722 0.930 . S
C735 C734 1.388 . S
C735 C736 1.390 . S
C736 C735 1.390 . S
C736 C737 1.394 . S
C736 C742 1.465 . S
C737 C732 1.399 . S
C737 C736 1.394 . S
C737 C738 1.516 . S
C738 C737 1.516 . S
C738 C739 1.502 . S
C738 C740 1.561 . S
C738 C741 1.526 . S
C739 H723 0.959 . S
C739 H724 0.959 . S
C739 H725 0.961 . S
C739 C738 1.502 . S
C740 H726 0.960 . S
C740 H727 0.961 . S
C740 H728 0.959 . S
C740 C738 1.561 . S
C741 C738 1.526 . S
C741 C742 1.396 . S
C741 C746 1.390 . S
C742 C736 1.465 . S
C742 C741 1.396 . S
C742 C743 1.398 1_656 S
C743 H729 0.930 . S
C743 C742 1.398 1_454 S
C743 C744 1.386 . S
C744 H730 0.931 . S
C744 C743 1.386 . S
C744 C745 1.389 1_454 S
C745 C744 1.389 1_656 S
C745 C746 1.387 . S
C746 H731 0.930 . S
C746 C741 1.390 . S
C746 C745 1.387 . S
H747 C759 0.930 . S
H748 C761 0.930 . S
H749 C762 0.930 . S
H750 C766 0.959 . S
H751 C766 0.959 . S
H752 C766 0.961 . S
H753 C767 0.960 . S
H754 C767 0.961 . S
H755 C767 0.959 . S
H756 C770 0.929 . S
H757 C771 0.931 . S
H758 C773 0.930 . S
C759 H747 0.930 . S
C759 C760 1.399 . S
C759 C764 1.399 . S
C760 C759 1.399 . S
C760 C761 1.376 . S
C761 H748 0.930 . S
C761 C760 1.376 . S
C761 C762 1.388 . S
C762 H749 0.930 . S
C762 C761 1.388 . S
C762 C763 1.390 . S
C763 C762 1.390 . S
C763 C764 1.394 . S
C763 C769 1.465 . S
C764 C759 1.399 . S
C764 C763 1.394 . S
C764 C765 1.516 . S
C765 C764 1.516 . S
C765 C766 1.502 . S
C765 C767 1.561 . S
C765 C768 1.526 . S
C766 H750 0.959 . S
C766 H751 0.959 . S
C766 H752 0.961 . S
C766 C765 1.502 . S
C767 H753 0.960 . S
C767 H754 0.961 . S
C767 H755 0.959 . S
C767 C765 1.561 . S
C768 C765 1.526 . S
C768 C769 1.396 . S
C768 C773 1.390 . S
C769 C763 1.465 . S
C769 C768 1.396 . S
C769 C770 1.399 . S
C770 H756 0.929 . S
C770 C769 1.399 . S
C770 C771 1.385 . S
C771 H757 0.931 . S
C771 C770 1.385 . S
C771 C772 1.389 . S
C772 C771 1.389 . S
C772 C773 1.387 . S
C773 H758 0.930 . S
C773 C768 1.390 . S
C773 C772 1.387 . S
H774 C786 0.930 . S
H775 C788 0.930 . S
H776 C789 0.930 . S
H777 C793 0.959 . S
H778 C793 0.959 . S
H779 C793 0.961 . S
H780 C794 0.960 . S
H781 C794 0.961 . S
H782 C794 0.959 . S
H783 C797 0.929 . S
H784 C798 0.931 . S
H785 C800 0.930 . S
C786 H774 0.930 . S
C786 C787 1.399 . S
C786 C791 1.399 . S
C787 C786 1.399 . S
C787 C788 1.376 . S
C788 H775 0.930 . S
C788 C787 1.376 . S
C788 C789 1.388 . S
C789 H776 0.930 . S
C789 C788 1.388 . S
C789 C790 1.390 . S
C790 C789 1.390 . S
C790 C791 1.394 . S
C790 C796 1.465 . S
C791 C786 1.399 . S
C791 C790 1.394 . S
C791 C792 1.516 . S
C792 C791 1.516 . S
C792 C793 1.502 . S
C792 C794 1.561 . S
C792 C795 1.526 . S
C793 H777 0.959 . S
C793 H778 0.959 . S
C793 H779 0.961 . S
C793 C792 1.502 . S
C794 H780 0.960 . S
C794 H781 0.961 . S
C794 H782 0.959 . S
C794 C792 1.561 . S
C795 C792 1.526 . S
C795 C796 1.396 . S
C795 C800 1.390 . S
C796 C790 1.465 . S
C796 C795 1.396 . S
C796 C797 1.399 . S
C797 H783 0.929 . S
C797 C796 1.399 . S
C797 C798 1.385 . S
C798 H784 0.931 . S
C798 C797 1.385 . S
C798 C799 1.389 . S
C799 C798 1.389 . S
C799 C800 1.387 . S
C800 H785 0.930 . S
C800 C795 1.390 . S
C800 C799 1.387 . S
H801 C813 0.930 . S
H802 C815 0.930 . S
H803 C816 0.930 . S
H804 C820 0.959 . S
H805 C820 0.959 . S
H806 C820 0.961 . S
H807 C821 0.960 . S
H808 C821 0.961 . S
H809 C821 0.959 . S
H810 C824 0.929 . S
H811 C825 0.931 . S
H812 C827 0.930 . S
C813 H801 0.930 . S
C813 C814 1.399 . S
C813 C818 1.399 . S
C814 C813 1.399 . S
C814 C815 1.376 . S
C815 H802 0.930 . S
C815 C814 1.376 . S
C815 C816 1.388 . S
C816 H803 0.930 . S
C816 C815 1.388 . S
C816 C817 1.390 . S
C817 C816 1.390 . S
C817 C818 1.394 . S
C817 C823 1.465 . S
C818 C813 1.399 . S
C818 C817 1.394 . S
C818 C819 1.516 . S
C819 C818 1.516 . S
C819 C820 1.502 . S
C819 C821 1.561 . S
C819 C822 1.526 . S
C820 H804 0.959 . S
C820 H805 0.959 . S
C820 H806 0.961 . S
C820 C819 1.502 . S
C821 H807 0.960 . S
C821 H808 0.961 . S
C821 H809 0.959 . S
C821 C819 1.561 . S
C822 C819 1.526 . S
C822 C823 1.396 . S
C822 C827 1.390 . S
C823 C817 1.465 . S
C823 C822 1.396 . S
C823 C824 1.399 . S
C824 H810 0.929 . S
C824 C823 1.399 . S
C824 C825 1.385 . S
C825 H811 0.931 . S
C825 C824 1.385 . S
C825 C826 1.389 . S
C826 C825 1.389 . S
C826 C827 1.387 . S
C827 H812 0.930 . S
C827 C822 1.390 . S
C827 C826 1.387 . S
C193 C6 1.753 . S
C205 C114 1.670 . S
C220 C18 1.734 . S
C232 C131 1.671 . S
C259 C154 1.306 . S
C247 C28 1.444 . S
C274 C40 1.309 . S
C286 C175 0.955 . S
C313 C134 1.954 . S
C301 C9 2.011 . S
C340 C111 1.633 . S
C328 C16 1.662 . S
C367 C173 1.354 . S
C355 C30 1.373 . S
C394 C152 1.083 . S
C382 C42 1.144 . S
C409 C4 1.666 . S
C421 C176 1.582 . S
C448 C133 1.330 . S
C436 C33 1.645 . S
C463 C45 1.434 . S
C475 C109 1.318 . S
C490 C21 1.693 . S
C502 C155 1.663 . S
C529 C113 1.714 . S
C517 C57 1.818 . S
C544 C66 1.581 . S
C556 C132 1.570 . S
C571 C76 1.548 . S
C583 C151 1.337 . S
C598 C88 1.141 . S
C610 C172 0.917 . S
C625 C54 1.924 . S
C637 C135 1.855 . S
C664 C110 1.752 . S
C652 C64 1.756 . S
C691 C174 1.107 . S
C679 C78 1.201 . S
C718 C153 1.217 . S
C706 C93 1.307 . S
C733 C52 1.477 . S
C745 C177 1.460 . S
C772 C130 1.259 . S
C760 C81 1.580 . S
C799 C112 1.170 . S
C787 C90 1.253 . S
C814 C69 1.706 . S
C826 C156 1.690 . S
