# Generated by pormake.
# Topology anh, (6,3)-cn, num edge types: 1
# Building blocks:
#     Node 0, Type 0, BuildingBlock: HISSIN_clean_sbu_0, # of connection points: 6
#     Node 1, Type 0, BuildingBlock: HISSIN_clean_sbu_0, # of connection points: 6
#     Node 2, Type 0, BuildingBlock: HISSIN_clean_sbu_0, # of connection points: 6
#     Node 3, Type 1, BuildingBlock: QEWDON_clean_linker_0, # of connection points: 3
#     Node 4, Type 1, BuildingBlock: QEWDON_clean_linker_0, # of connection points: 3
#     Node 5, Type 1, BuildingBlock: QEWDON_clean_linker_0, # of connection points: 3
#     Node 6, Type 1, BuildingBlock: QEWDON_clean_linker_0, # of connection points: 3
#     Node 7, Type 1, BuildingBlock: QEWDON_clean_linker_0, # of connection points: 3
#     Node 8, Type 1, BuildingBlock: QEWDON_clean_linker_0, # of connection points: 3
#     Edge 9, Type (0, 1), BuildingBlock: EZIPEK_clean_linker_0, # of connection points: 2
#     Edge 10, Type (0, 1), BuildingBlock: EZIPEK_clean_linker_0, # of connection points: 2
#     Edge 11, Type (0, 1), BuildingBlock: EZIPEK_clean_linker_0, # of connection points: 2
#     Edge 12, Type (0, 1), BuildingBlock: EZIPEK_clean_linker_0, # of connection points: 2
#     Edge 13, Type (0, 1), BuildingBlock: EZIPEK_clean_linker_0, # of connection points: 2
#     Edge 14, Type (0, 1), BuildingBlock: EZIPEK_clean_linker_0, # of connection points: 2
#     Edge 15, Type (0, 1), BuildingBlock: EZIPEK_clean_linker_0, # of connection points: 2
#     Edge 16, Type (0, 1), BuildingBlock: EZIPEK_clean_linker_0, # of connection points: 2
#     Edge 17, Type (0, 1), BuildingBlock: EZIPEK_clean_linker_0, # of connection points: 2
#     Edge 18, Type (0, 1), BuildingBlock: EZIPEK_clean_linker_0, # of connection points: 2
#     Edge 19, Type (0, 1), BuildingBlock: EZIPEK_clean_linker_0, # of connection points: 2
#     Edge 20, Type (0, 1), BuildingBlock: EZIPEK_clean_linker_0, # of connection points: 2
#     Edge 21, Type (0, 1), BuildingBlock: EZIPEK_clean_linker_0, # of connection points: 2
#     Edge 22, Type (0, 1), BuildingBlock: EZIPEK_clean_linker_0, # of connection points: 2
#     Edge 23, Type (0, 1), BuildingBlock: EZIPEK_clean_linker_0, # of connection points: 2
#     Edge 24, Type (0, 1), BuildingBlock: EZIPEK_clean_linker_0, # of connection points: 2
#     Edge 25, Type (0, 1), BuildingBlock: EZIPEK_clean_linker_0, # of connection points: 2
#     Edge 26, Type (0, 1), BuildingBlock: EZIPEK_clean_linker_0, # of connection points: 2
# Relax obj value: 0.324
# Max RMSD: 0.146
# Mean RMSD: 0.121
data_MOF--net-anh--node1-HISSIN_clean_sbu_0--node2-QEWDON_clean_linker_0--edge1-EZIPEK_clean_linker_0
_symmetry_space_group_name_H-M    P1
_symmetry_Int_Tables_number       1
_symmetry_cell_setting            triclinic
loop_
_symmetry_equiv_pos_as_xyz
'x, y, z'
_cell_length_a     24.259036
_cell_length_b     24.355221
_cell_length_c     36.08297
_cell_angle_alpha  96.498317
_cell_angle_beta   92.360809
_cell_angle_gamma 120.36593
loop_
_atom_site_label
_atom_site_type_symbol
_atom_site_fract_x
_atom_site_fract_y
_atom_site_fract_z
_atom_type_partial_charge
Eu0 Eu 0.19091 0.56276 0.13635 0.0
Eu1 Eu 0.26914 0.71549 0.16299 0.0
C2 C 0.21273 0.62479 0.22572 0.0
C3 C 1.04149 0.40968 0.11199 0.0
C4 C 1.01231 0.42536 0.08382 0.0
C5 C 0.95297 0.38893 0.14866 0.0
C6 C 0.95847 0.43005 0.09022 0.0
C7 C 1.00741 0.38478 0.14249 0.0
C8 C 0.93274 0.41824 0.12443 0.0
C9 C 1.11237 0.43959 0.11621 0.0
O10 O 0.35025 0.68975 0.1626 0.0
O11 O 0.29466 0.58235 0.13726 0.0
C12 C 0.35014 0.63619 0.14941 0.0
O13 O 0.2161 0.60599 0.0823 0.0
O14 O 0.343 0.80202 0.19973 0.0
O15 O 0.28218 0.80833 0.15631 0.0
O16 O 0.29829 0.70743 0.10638 0.0
C17 C 0.26573 0.6619 0.07812 0.0
O18 O 1.10891 0.58557 0.13511 0.0
O19 O 0.1664 0.6954 0.14421 0.0
O20 O 0.23127 0.68101 0.21609 0.0
O21 O 1.14296 0.4782 0.09246 0.0
O22 O 1.14037 0.46515 0.15037 0.0
O23 O 0.20199 0.57539 0.20084 0.0
C24 C 0.38986 0.89134 0.1678 0.0
C25 C 0.3999 0.88894 0.1296 0.0
C26 C 0.48296 0.99812 0.18146 0.0
C27 C 0.45012 0.94233 0.11719 0.0
C28 C 0.43271 0.94531 0.19373 0.0
C29 C 0.49067 0.99774 0.14303 0.0
C30 C 0.33332 0.83959 0.18079 0.0
C31 C 1.11003 0.64074 0.13693 0.0
H32 H 1.03566 0.44237 0.05914 0.0
H33 H 0.93237 0.37764 0.17481 0.0
H34 H 0.94112 0.44894 0.07013 0.0
H35 H 1.02771 0.37075 0.16424 0.0
H36 H 0.3676 0.84691 0.10923 0.0
H37 H 0.5139 1.04083 0.20176 0.0
H38 H 0.45562 0.94143 0.08752 0.0
H39 H 0.42587 0.94757 0.22324 0.0
Eu40 Eu 0.69275 1.07705 0.4728 0.0
Eu41 Eu 0.62032 0.15186 0.49541 0.0
C42 C 0.67076 0.10196 0.56036 0.0
C43 C 0.69741 0.93224 0.43095 0.0
C44 C 0.67203 0.88673 0.45556 0.0
C45 C 0.63284 0.84702 0.37826 0.0
C46 C 0.62564 0.8229 0.44184 0.0
C47 C 0.67956 0.91115 0.39199 0.0
C48 C 0.604 0.80336 0.40337 0.0
C49 C 0.73387 1.00196 0.44581 0.0
O50 O 0.72551 0.23031 0.48675 0.0
O51 O 0.78213 0.17871 0.48499 0.0
C52 C 0.78146 0.23273 0.48562 0.0
O53 O 0.69287 0.13164 0.4256 0.0
O54 O 0.6179 0.22225 0.5371 0.0
O55 O 0.55652 0.18871 0.48445 0.0
O56 O 0.59773 0.12431 0.43309 0.0
C57 C 0.64431 0.13613 0.41262 0.0
O58 O 0.58425 0.99604 0.46526 0.0
O59 O 0.53395 1.04765 0.49012 0.0
O60 O 0.62861 0.11639 0.54876 0.0
O61 O 0.72282 1.03763 0.42606 0.0
O62 O 0.73569 1.01866 0.48175 0.0
O63 O 0.70602 1.09124 0.53707 0.0
C64 C 0.60755 0.2989 0.50905 0.0
C65 C 0.66952 0.33369 0.49796 0.0
C66 C 0.59856 0.39357 0.51061 0.0
C67 C 0.6956 0.39751 0.49268 0.0
C68 C 0.57199 0.32911 0.51519 0.0
C69 C 0.66065 0.42805 0.49961 0.0
C70 C 0.58105 0.23174 0.5147 0.0
C71 C 0.53113 0.99362 0.47554 0.0
H72 H 0.68498 0.901 0.48563 0.0
H73 H 0.61668 0.83242 0.34847 0.0
H74 H 0.60388 0.78941 0.46152 0.0
H75 H 0.69874 0.94508 0.37232 0.0
H76 H 0.69809 0.31183 0.49344 0.0
H77 H 0.57097 0.41683 0.51593 0.0
H78 H 0.74336 0.4234 0.484 0.0
H79 H 0.52422 0.30319 0.52384 0.0
Eu80 Eu 0.59263 0.52266 0.81797 0.0
Eu81 Eu 0.7379 0.6004 0.80422 0.0
C82 C 0.70548 0.57981 0.88936 0.0
C83 C 0.42839 0.4926 0.80574 0.0
C84 C 0.42782 0.54509 0.82595 0.0
C85 C 0.39356 0.51538 0.7481 0.0
C86 C 0.41591 0.58534 0.80697 0.0
C87 C 0.4048 0.47447 0.76727 0.0
C88 C 0.40368 0.5733 0.76769 0.0
C89 C 0.46949 0.47016 0.82166 0.0
O90 O 0.71324 0.49296 0.79684 0.0
O91 O 0.61551 0.44137 0.81914 0.0
C92 C 0.66511 0.43951 0.80638 0.0
O93 O 0.59753 0.50721 0.75518 0.0
O94 O 0.83825 0.67628 0.8119 0.0
O95 O 0.80087 0.60247 0.76243 0.0
O96 O 0.67849 0.60727 0.75796 0.0
C97 C 0.62913 0.55721 0.73846 0.0
O98 O 0.61175 0.62705 0.81369 0.0
O99 O 0.7212 0.68594 0.8152 0.0
O100 O 0.75026 0.60474 0.86689 0.0
O101 O 0.49367 0.44699 0.79731 0.0
O102 O 0.51289 0.50967 0.84935 0.0
O103 O 0.64373 0.54641 0.87695 0.0
C104 C 0.90722 0.64487 0.78757 0.0
C105 C 0.95823 0.67468 0.76609 0.0
C106 C 0.97012 0.61751 0.82669 0.0
C107 C 1.01612 0.67799 0.77578 0.0
C108 C 0.91213 0.61362 0.81676 0.0
C109 C 1.02289 0.65201 0.8072 0.0
C110 C 0.85166 0.65193 0.78192 0.0
C111 C 0.6657 0.68413 0.81495 0.0
H112 H 0.4438 0.55945 0.85577 0.0
H113 H 0.38286 0.50484 0.71781 0.0
H114 H 0.42268 0.62939 0.82261 0.0
H115 H 0.40183 0.4325 0.75127 0.0
H116 H 0.95452 0.69851 0.74332 0.0
H117 H 0.97521 0.59758 0.8511 0.0
H118 H 1.05696 0.70506 0.76077 0.0
H119 H 0.87254 0.58989 0.83327 0.0
H120 H 0.69872 0.34742 0.30233 0.0
C121 C 0.67558 0.31323 0.27669 0.0
C122 C 0.64806 0.24665 0.27738 0.0
C123 C 0.67509 0.33538 0.24245 0.0
H124 H 0.59914 0.15213 0.24393 0.0
C125 C 0.62005 0.20336 0.2437 0.0
C126 C 0.62196 0.22583 0.20949 0.0
C127 C 0.64877 0.29136 0.209 0.0
C128 C 0.70938 0.40426 0.23919 0.0
H129 H 0.65081 0.30829 0.18224 0.0
C130 C 0.75733 0.42513 0.21526 0.0
C131 C 0.77995 0.48365 0.20209 0.0
C132 C 0.68769 0.44532 0.25301 0.0
H133 H 0.64976 0.42954 0.27118 0.0
C134 C 0.71267 0.50585 0.24141 0.0
H135 H 0.77405 0.39321 0.20458 0.0
C136 C 0.75786 0.52462 0.21535 0.0
H137 H 0.77493 0.57021 0.20548 0.0
H138 H 0.69526 0.53722 0.25156 0.0
H139 H 0.48036 0.57711 0.58145 0.0
C140 C 0.5217 0.58523 0.5672 0.0
C141 C 0.5749 0.58866 0.58678 0.0
C142 C 0.52171 0.59067 0.52886 0.0
H143 H 0.66639 0.59742 0.58333 0.0
C144 C 0.62778 0.59827 0.56784 0.0
C145 C 0.63005 0.60605 0.52976 0.0
C146 C 0.57626 0.60221 0.5109 0.0
C147 C 0.46402 0.57868 0.50525 0.0
H148 H 0.57455 0.60426 0.48125 0.0
C149 C 0.47317 0.61565 0.47658 0.0
C150 C 0.42816 0.59216 0.44478 0.0
C151 C 0.40386 0.52264 0.50499 0.0
H152 H 0.39536 0.49277 0.52665 0.0
C153 C 0.35597 0.50196 0.47479 0.0
H154 H 0.51907 0.6597 0.4769 0.0
C155 C 0.36881 0.53529 0.444 0.0
H156 H 0.33346 0.51617 0.41953 0.0
H157 H 0.31028 0.45789 0.47421 0.0
H158 H 0.43916 0.79021 0.93303 0.0
C159 C 0.39237 0.77291 0.91802 0.0
C160 C 0.33564 0.73483 0.93437 0.0
C161 C 0.38722 0.7884 0.88199 0.0
H162 H 0.23185 0.68244 0.92678 0.0
C163 C 0.27552 0.71119 0.91423 0.0
C164 C 0.27113 0.7277 0.87908 0.0
C165 C 0.32644 0.76669 0.86329 0.0
C166 C 0.44155 0.81971 0.85982 0.0
H167 H 0.32205 0.77889 0.83572 0.0
C168 C 0.4426 0.77997 0.82908 0.0
C169 C 0.4665 0.80411 0.79609 0.0
C170 C 0.47303 0.88635 0.85955 0.0
H171 H 0.47093 0.91784 0.88244 0.0
C172 C 0.50244 0.91183 0.82797 0.0
H173 H 0.41643 0.72829 0.82897 0.0
C174 C 0.49732 0.87069 0.79577 0.0
H175 H 0.51502 0.89055 0.77051 0.0
H176 H 0.52554 0.96311 0.82756 0.0
H177 H 1.13237 0.5661 0.39804 0.0
C178 C 0.17171 0.61285 0.41108 0.0
C179 C 0.21371 0.65463 0.38779 0.0
C180 C 0.18149 0.6296 0.45057 0.0
H181 H 0.29772 0.7467 0.38514 0.0
C182 C 0.26632 0.71549 0.40366 0.0
C183 C 0.28083 0.73614 0.44274 0.0
C184 C 0.23703 0.69267 0.46596 0.0
C185 C 1.13716 0.57925 0.47516 0.0
H186 H 0.24662 0.70868 0.49593 0.0
C187 C 1.07173 0.52478 0.46322 0.0
C188 C 1.03534 0.47872 0.48799 0.0
C189 C 0.16319 0.58401 0.51178 0.0
H190 H 0.21201 0.62105 0.52239 0.0
C191 C 1.12836 0.54012 0.53552 0.0
H192 H 1.04905 0.51839 0.43538 0.0
C193 C 1.06605 0.48883 0.52398 0.0
H194 H 1.04145 0.45609 0.5436 0.0
H195 H 1.15045 0.54564 0.56345 0.0
H196 H 0.68052 1.03964 0.73348 0.0
C197 C 0.67706 1.08009 0.74615 0.0
C198 C 0.67584 0.12236 0.72275 0.0
C199 C 0.67635 1.0907 0.78537 0.0
H200 H 0.67236 0.20837 0.71954 0.0
C201 C 0.67329 0.17683 0.73818 0.0
C202 C 0.67178 0.19157 0.77686 0.0
C203 C 0.67318 0.14752 0.80032 0.0
C204 C 0.68498 1.04605 0.8102 0.0
H205 H 0.67131 0.15767 0.83003 0.0
C206 C 0.66985 0.97962 0.79814 0.0
C207 C 0.68393 0.94372 0.82312 0.0
C208 C 0.71417 1.07327 0.84726 0.0
H209 H 0.72883 0.12248 0.85814 0.0
C210 C 0.72818 1.0395 0.87101 0.0
H211 H 0.6472 0.95599 0.76997 0.0
C212 C 0.71394 0.97676 0.85924 0.0
H213 H 0.72647 0.95337 0.87901 0.0
H214 H 0.75136 1.06286 0.89919 0.0
H215 H 0.69842 0.62656 0.06329 0.0
C216 C 0.74106 0.62876 0.07545 0.0
C217 C 0.7833 0.62597 0.05076 0.0
C218 C 0.75317 0.63453 0.11467 0.0
H219 H 0.87367 0.63172 0.04503 0.0
C220 C 0.84133 0.6317 0.06488 0.0
C221 C 0.85702 0.63419 0.10346 0.0
C222 C 0.8114 0.63495 0.12808 0.0
C223 C 0.70573 0.64149 0.14053 0.0
H224 H 0.82192 0.6354 0.15746 0.0
C225 C 0.64292 0.6329 0.12803 0.0
C226 C 0.60318 0.6428 0.15405 0.0
C227 C 0.72519 0.66024 0.17943 0.0
H228 H 0.77124 0.6698 0.19137 0.0
C229 C 0.68688 0.66903 0.20441 0.0
H230 H 0.62424 0.61832 0.09869 0.0
C231 C 0.62749 0.66059 0.1921 0.0
H232 H 0.60006 0.66844 0.21281 0.0
H233 H 0.70397 0.68335 0.23408 0.0
C234 C 0.4229 0.58796 0.16225 0.0
C235 C 0.41463 0.63611 0.14782 0.0
C236 C 0.52904 0.68533 0.13244 0.0
C237 C 0.53576 0.63508 0.14488 0.0
N238 N 0.48195 0.53132 0.16474 0.0
N239 N 0.45864 0.72286 0.11125 0.0
C240 C 0.48019 0.58425 0.15748 0.0
C241 C 0.46757 0.68257 0.13074 0.0
N242 N 0.37763 0.54761 0.18286 0.0
N243 N 0.58232 0.73753 0.12336 0.0
H244 H 0.41516 0.72173 0.10848 0.0
H245 H 0.49208 0.75294 0.09479 0.0
H246 H 0.62653 0.74012 0.12279 0.0
H247 H 0.58367 0.77963 0.11877 0.0
H248 H 0.38347 0.51633 0.19773 0.0
H249 H 0.33699 0.54997 0.18841 0.0
H250 H 0.44185 0.48941 0.1702 0.0
H251 H 0.52224 0.52702 0.16148 0.0
C252 C 0.86054 0.35673 0.5061 0.0
C253 C 0.84461 0.29766 0.48302 0.0
C254 C 0.95147 0.35979 0.45815 0.0
C255 C 0.96553 0.4192 0.47972 0.0
N256 N 0.92371 0.47435 0.51743 0.0
N257 N 0.8709 0.25036 0.4293 0.0
C258 C 0.91662 0.41733 0.50132 0.0
C259 C 0.8891 0.3015 0.45688 0.0
N260 N 0.82465 0.355 0.53462 0.0
N261 N 0.99863 0.35805 0.43966 0.0
H262 H 0.82563 0.2087 0.42598 0.0
H263 H 0.89784 0.25206 0.40725 0.0
H264 H 1.04315 0.39922 0.43877 0.0
H265 H 0.99505 0.31537 0.42739 0.0
H266 H 0.83711 0.39476 0.55477 0.0
H267 H 0.78617 0.31241 0.5407 0.0
H268 H 0.88758 0.47775 0.53021 0.0
H269 H 0.96331 0.51875 0.51437 0.0
C270 C 0.63259 0.7677 0.84008 0.0
C271 C 0.66446 0.74794 0.81403 0.0
C272 C 0.70426 0.85426 0.79043 0.0
C273 C 0.66971 0.87257 0.81511 0.0
N274 N 0.59244 0.83906 0.85984 0.0
N275 N 0.71867 0.76949 0.75826 0.0
C276 C 0.63117 0.8265 0.83858 0.0
C277 C 0.69695 0.79067 0.78761 0.0
N278 N 0.60662 0.73224 0.86813 0.0
N279 N 0.74671 0.8987 0.77045 0.0
H280 H 0.71328 0.72399 0.75444 0.0
H281 H 0.73577 0.79409 0.73564 0.0
H282 H 0.75226 0.9441 0.77085 0.0
H283 H 0.7796 0.89235 0.75571 0.0
H284 H 0.58955 0.74696 0.89083 0.0
H285 H 0.60737 0.69045 0.87077 0.0
H286 H 0.55829 0.8061 0.87475 0.0
H287 H 0.59047 0.88082 0.85994 0.0
C288 C 1.02734 0.67761 0.15412 0.0
C289 C 1.04542 0.64035 0.1294 0.0
C290 C 0.93574 0.59111 0.09381 0.0
C291 C 0.92031 0.63375 0.11551 0.0
N292 N 0.9626 0.72796 0.16278 0.0
N293 N 1.01901 0.57457 0.069 0.0
C294 C 0.9692 0.67957 0.14485 0.0
C295 C 0.99999 0.60078 0.09744 0.0
N296 N 1.06472 0.7103 0.18737 0.0
N297 N 0.88798 0.53904 0.07022 0.0
H298 H 1.06516 0.58154 0.06974 0.0
H299 H 0.99128 0.55189 0.04311 0.0
H300 H 0.83981 0.52591 0.06966 0.0
H301 H 0.89464 0.5048 0.05447 0.0
H302 H 1.05083 0.7319 0.20858 0.0
H303 H 1.1068 0.71074 0.19513 0.0
H304 H 0.99897 0.76655 0.18145 0.0
H305 H 0.92355 0.73327 0.15612 0.0
C306 C 0.40952 0.92017 0.4495 0.0
C307 C 0.46574 0.92781 0.46958 0.0
C308 C 0.3993 0.81006 0.47574 0.0
C309 C 0.34254 0.80349 0.45705 0.0
N310 N 0.29284 0.85855 0.43371 0.0
N311 N 0.5095 0.87913 0.50633 0.0
C312 C 0.34784 0.86063 0.4463 0.0
C313 C 0.45905 0.87225 0.48381 0.0
N314 N 0.41549 0.96873 0.43121 0.0
N315 N 0.39709 0.75609 0.48477 0.0
H316 H 0.55353 0.92218 0.51235 0.0
H317 H 0.50651 0.84395 0.52144 0.0
H318 H 0.35466 0.71141 0.48135 0.0
H319 H 0.43762 0.75434 0.49325 0.0
H320 H 0.37904 0.96411 0.41249 0.0
H321 H 0.459 1.01166 0.43168 0.0
H322 H 0.2912 0.89919 0.42918 0.0
H323 H 0.24752 0.817 0.43154 0.0
C324 C 0.61256 0.31578 0.78171 0.0
C325 C 0.6659 0.3748 0.80145 0.0
C326 C 0.72281 0.31288 0.80783 0.0
C327 C 0.6679 0.2532 0.79026 0.0
N328 N 0.55583 0.19823 0.76708 0.0
N329 N 0.7679 0.42363 0.83948 0.0
C330 C 0.61158 0.25519 0.77936 0.0
C331 C 0.71986 0.3714 0.81612 0.0
N332 N 0.56377 0.31778 0.76285 0.0
N333 N 0.77926 0.31458 0.81551 0.0
H334 H 0.76726 0.46596 0.84674 0.0
H335 H 0.80515 0.42301 0.85445 0.0
H336 H 0.78286 0.2735 0.81104 0.0
H337 H 0.82315 0.35708 0.82381 0.0
H338 H 0.52725 0.27888 0.74445 0.0
H339 H 0.56313 0.36017 0.76243 0.0
H340 H 0.51127 0.1944 0.76252 0.0
H341 H 0.55314 0.15383 0.76508 0.0
C342 C 0.5531 0.68455 0.38711 0.0
C343 C 0.54608 0.73903 0.39134 0.0
C344 C 0.43636 0.67393 0.4066 0.0
C345 C 0.44997 0.62542 0.41174 0.0
N346 N 0.50635 0.57141 0.39369 0.0
N347 N 0.47763 0.78373 0.39455 0.0
C348 C 0.50297 0.62594 0.39645 0.0
C349 C 0.48543 0.73227 0.39633 0.0
N350 N 0.60953 0.69104 0.37714 0.0
N351 N 0.37787 0.66482 0.41349 0.0
H352 H 0.51324 0.82626 0.38647 0.0
H353 H 0.43655 0.78474 0.40045 0.0
H354 H 0.34296 0.6232 0.4227 0.0
H355 H 0.36285 0.6963 0.40806 0.0
H356 H 0.62056 0.65486 0.37607 0.0
H357 H 0.64571 0.73392 0.36965 0.0
H358 H 0.54268 0.56682 0.38217 0.0
H359 H 0.46938 0.52894 0.40115 0.0
C360 C 1.1137 0.63209 0.81562 0.0
C361 C 1.08745 0.67174 0.8242 0.0
C362 C 0.18049 0.7464 0.86967 0.0
C363 C 0.20811 0.70836 0.85987 0.0
N364 N 0.20725 0.62049 0.82104 0.0
N365 N 1.09737 0.77027 0.85509 0.0
C366 C 0.17656 0.65272 0.83203 0.0
C367 C 1.12133 0.73003 0.84999 0.0
N368 N 1.0778 0.57426 0.79253 0.0
N369 N 0.21029 0.79733 0.89839 0.0
H370 H 1.05263 0.75896 0.84257 0.0
H371 H 1.12341 0.81697 0.86975 0.0
H372 H 0.25548 0.8131 0.91235 0.0
H373 H 0.18883 0.82183 0.91017 0.0
H374 H 1.09113 0.5398 0.7882 0.0
H375 H 1.03226 0.55886 0.77919 0.0
H376 H 0.18976 0.58351 0.7983 0.0
H377 H 0.25267 0.63331 0.83332 0.0
C378 C 0.5112 1.10035 0.1286 0.0
C379 C 0.53586 1.05943 0.13116 0.0
C380 C 0.63513 0.14872 0.16503 0.0
C381 C 0.6006 0.1802 0.17411 0.0
N382 N 0.50938 0.19244 0.16022 0.0
N383 N 0.62672 1.0472 0.14002 0.0
C384 C 0.54054 0.15939 0.15352 0.0
C385 C 0.60108 1.08577 0.14411 0.0
N386 N 0.45664 1.07924 0.10511 0.0
N387 N 0.69878 0.17803 0.17798 0.0
H388 H 0.60025 1.00075 0.12468 0.0
H389 H 0.67233 1.06029 0.15188 0.0
H390 H 0.72383 0.22451 0.19327 0.0
H391 H 0.72746 0.15869 0.17136 0.0
H392 H 0.43722 0.10778 0.10045 0.0
H393 H 0.43472 1.03457 0.08779 0.0
H394 H 0.46242 0.17546 0.14885 0.0
H395 H 0.52965 0.2359 0.17847 0.0
C396 C 0.66115 0.51235 0.46629 0.0
C397 C 0.68802 0.49639 0.49587 0.0
C398 C 0.73197 0.60487 0.52955 0.0
C399 C 0.68291 0.60684 0.50867 0.0
N400 N 0.65485 0.59915 0.44307 0.0
N401 N 0.76353 0.53337 0.55188 0.0
C402 C 0.66513 0.5727 0.47186 0.0
C403 C 0.73037 0.54543 0.52578 0.0
N404 N 0.62938 0.46905 0.43445 0.0
N405 N 0.77423 0.65706 0.55501 0.0
H406 H 0.76322 0.49016 0.54952 0.0
H407 H 0.78988 0.56558 0.57619 0.0
H408 H 0.7714 0.69874 0.55821 0.0
H409 H 0.81305 0.65997 0.57052 0.0
H410 H 0.60355 0.47635 0.41374 0.0
H411 H 0.62801 0.42525 0.42964 0.0
H412 H 0.64585 0.57795 0.41505 0.0
H413 H 0.66124 0.64526 0.44784 0.0
C414 C 0.47802 0.67498 0.74506 0.0
C415 C 0.41361 0.62751 0.74837 0.0
C416 C 0.38326 0.70893 0.75302 0.0
C417 C 0.44937 0.75603 0.76184 0.0
N418 N 0.55587 0.78911 0.74722 0.0
N419 N 0.30208 0.59441 0.74368 0.0
C420 C 0.49565 0.74074 0.75092 0.0
C421 C 0.36482 0.6429 0.74715 0.0
N422 N 0.52256 0.6571 0.74 0.0
N423 N 0.33946 0.72829 0.75452 0.0
H424 H 0.2894 0.54611 0.73929 0.0
H425 H 0.26326 0.60146 0.74434 0.0
H426 H 0.35438 0.77719 0.75974 0.0
H427 H 0.28992 0.69733 0.74929 0.0
H428 H 0.57164 0.68935 0.74087 0.0
H429 H 0.50961 0.60881 0.73489 0.0
H430 H 0.59108 0.78151 0.73659 0.0
H431 H 0.56808 0.83716 0.7516 0.0
C432 C 0.92676 0.50185 0.16896 0.0
C433 C 0.89678 0.44955 0.13845 0.0
C434 C 0.79883 0.45507 0.1384 0.0
C435 C 0.82441 0.49667 0.17308 0.0
N436 N 0.91606 0.57724 0.21441 0.0
N437 N 0.8054 0.37821 0.09254 0.0
C438 C 0.89007 0.5264 0.18578 0.0
C439 C 0.83357 0.42777 0.12197 0.0
N440 N 0.98928 0.52587 0.18278 0.0
N441 N 0.74001 0.44033 0.12253 0.0
H442 H 0.82904 0.35621 0.08039 0.0
H443 H 0.75753 0.35633 0.08136 0.0
H444 H 0.71497 0.4605 0.13516 0.0
H445 H 0.7191 0.41359 0.096 0.0
H446 H 1.01168 0.5583 0.2074 0.0
H447 H 1.01917 0.51234 0.17002 0.0
H448 H 0.96451 0.60443 0.22474 0.0
H449 H 0.88871 0.59537 0.22605 0.0
C450 C 0.28862 0.73535 0.03086 0.0
C451 C 0.28457 0.67864 0.04061 0.0
C452 C 0.32818 0.66504 0.98237 0.0
C453 C 0.33503 0.7235 0.97388 0.0
N454 N 0.3374 0.82223 -0.00585 0.0
N455 N 0.31277 0.59675 0.02976 0.0
C456 C 0.3209 0.76148 -0.00021 0.0
C457 C 0.30793 0.64541 0.01757 0.0
N458 N 0.25852 0.76234 0.05012 0.0
N459 N 0.33901 0.62743 0.95625 0.0
H460 H 0.29811 0.58098 0.05523 0.0
H461 H 0.33565 0.57532 0.01599 0.0
H462 H 0.35691 0.6423 0.93112 0.0
H463 H 0.32751 0.58072 0.95874 0.0
H464 H 0.2547 0.80011 0.04203 0.0
H465 H 0.23145 0.74274 0.07192 0.0
H466 H 0.33378 0.85464 0.01388 0.0
H467 H 0.36089 0.84238 0.97136 0.0
C468 C 0.66882 0.14785 0.34545 0.0
C469 C 0.64753 0.16576 0.37817 0.0
C470 C 0.62232 0.23325 0.34394 0.0
C471 C 0.65044 0.22133 0.31278 0.0
N472 N 0.71673 0.18084 0.28847 0.0
N473 N 0.62641 0.24431 0.41117 0.0
C474 C 0.67872 0.1827 0.31489 0.0
C475 C 0.63054 0.21381 0.37823 0.0
N476 N 0.67712 1.09614 0.34269 0.0
N477 N 0.58611 0.26129 0.3408 0.0
H478 H 0.63943 0.23694 0.43711 0.0
H479 H 0.61912 0.28314 0.4126 0.0
H480 H 0.57654 0.27407 0.31576 0.0
H481 H 0.5601 0.26544 0.36213 0.0
H482 H 0.68695 1.07787 0.31795 0.0
H483 H 0.6673 1.06727 0.36361 0.0
H484 H 0.74283 0.15781 0.29064 0.0
H485 H 0.72789 0.20828 0.26674 0.0
C486 C 0.65594 0.61243 0.68145 0.0
C487 C 0.61012 0.5612 0.69904 0.0
C488 C 0.53571 0.52507 0.64113 0.0
C489 C 0.5785 0.58258 0.62735 0.0
N490 N 0.66957 0.6909 0.64212 0.0
N491 N 0.49711 0.47772 0.69658 0.0
C492 C 0.63459 0.63009 0.65063 0.0
C493 C 0.547 0.51999 0.67937 0.0
N494 N 0.72051 0.64048 0.69132 0.0
N495 N 0.48627 0.47411 0.61779 0.0
H496 H 0.50053 0.4741 0.72479 0.0
H497 H 0.44992 0.45149 0.68357 0.0
H498 H 0.47713 0.47474 0.58944 0.0
H499 H 0.45819 0.42911 0.62599 0.0
H500 H 0.75464 0.67582 0.67743 0.0
H501 H 0.73971 0.6213 0.70855 0.0
H502 H 0.70942 0.7277 0.65983 0.0
H503 H 0.65446 0.70548 0.61964 0.0
C504 C 0.73407 0.14497 0.62526 0.0
C505 C 0.67717 1.09859 0.6015 0.0
C506 C 0.62039 1.06457 0.65736 0.0
C507 C 0.67752 0.11011 0.68109 0.0
N508 N 0.79196 0.18371 0.68811 0.0
N509 N 0.57069 1.00514 0.59489 0.0
C510 C 0.73543 0.14703 0.6651 0.0
C511 C 0.62181 1.05549 0.61767 0.0
N512 N 0.78557 0.18972 0.60999 0.0
N513 N 0.56396 1.03199 0.67263 0.0
H514 H 0.57031 0.99734 0.56585 0.0
H515 H 0.53143 0.96803 0.60483 0.0
H516 H 0.56111 1.03641 0.70148 0.0
H517 H 0.51923 1.00399 0.65674 0.0
H518 H 0.82533 0.2296 0.62588 0.0
H519 H 0.78685 0.18962 0.58114 0.0
H520 H 0.83682 0.2066 0.67828 0.0
H521 H 0.79449 0.18672 0.71727 0.0
C522 C 0.75056 0.65393 0.9516 0.0
C523 C 0.72561 0.59148 0.93064 0.0
C524 C 0.73585 0.55111 -0.01138 0.0
C525 C 0.76495 0.6145 0.00909 0.0
N526 N 0.80827 0.72793 0.0094 0.0
N527 N 0.70319 0.48275 0.92777 0.0
C528 C 0.77465 0.66641 -0.00967 0.0
C529 C 0.72058 0.54061 0.9488 0.0
N530 N 0.74899 0.70078 0.93477 0.0
N531 N 0.72102 0.50052 0.00745 0.0
H532 H 0.691 0.47316 0.89874 0.0
H533 H 0.70559 0.44599 0.93848 0.0
H534 H 0.73223 0.50626 0.03638 0.0
H535 H 0.69341 0.45248 -0.00499 0.0
H536 H 0.75964 0.74506 0.94928 0.0
H537 H 0.73198 0.6936 0.90656 0.0
H538 H 0.82327 0.76868 -0.0034 0.0
H539 H 0.82568 0.73864 0.0378 0.0
C540 C 0.23852 0.60102 0.28913 0.0
C541 C 0.2029 0.61896 0.26627 0.0
C542 C 0.16848 0.65401 0.32314 0.0
C543 C 0.20332 0.63526 0.34583 0.0
N544 N 0.25619 0.57469 0.3498 0.0
N545 N 1.12118 0.64706 0.26094 0.0
C546 C 0.23332 0.60339 0.32855 0.0
C547 C 0.16384 0.64059 0.28321 0.0
N548 N 0.28046 0.58562 0.2738 0.0
N549 N 1.14132 0.68643 0.33977 0.0
H550 H 1.11607 0.6368 0.23174 0.0
H551 H 1.08678 0.6564 0.27121 0.0
H552 H 1.14129 0.6946 0.36878 0.0
H553 H 1.12218 0.70852 0.32504 0.0
H554 H 0.31332 0.57973 0.28978 0.0
H555 H 0.28614 0.58367 0.24531 0.0
H556 H 0.27375 0.54602 0.33854 0.0
H557 H 0.25125 0.57405 0.37833 0.0
loop_
_geom_bond_atom_site_label_1
_geom_bond_atom_site_label_2
_geom_bond_distance
_geom_bond_site_symmetry_2
_ccdc_geom_bond_type
Eu0 C9 2.828 . S
Eu0 O11 2.392 1_655 S
Eu0 O13 2.418 . S
Eu0 O18 2.373 . S
Eu0 O21 2.488 . S
Eu0 O22 2.471 . S
Eu0 O23 2.349 1_655 S
Eu1 O10 2.373 . S
Eu1 O14 2.488 . S
Eu1 O15 2.471 . S
Eu1 O16 2.349 . S
Eu1 O19 2.392 1_455 S
Eu1 O20 2.418 . S
Eu1 C30 2.828 . S
C2 O20 1.244 . S
C2 O23 1.265 . S
C3 C4 1.379 . S
C3 C7 1.373 . S
C3 C9 1.505 . S
C4 C3 1.379 . S
C4 C6 1.369 . S
C4 H32 0.930 . S
C5 C7 1.383 . S
C5 C8 1.382 . S
C5 H33 0.930 . S
C6 C4 1.369 . S
C6 C8 1.392 . S
C6 H34 0.930 . S
C7 C3 1.373 . S
C7 C5 1.383 . S
C7 H35 0.931 . S
C8 C5 1.382 . S
C8 C6 1.392 . S
C9 Eu0 2.828 . S
C9 C3 1.505 . S
C9 O21 1.249 . S
C9 O22 1.244 . S
O10 Eu1 2.373 . S
O10 C12 1.258 . S
O11 Eu0 2.392 1_455 S
O11 C12 1.242 . S
C12 O10 1.258 . S
C12 O11 1.242 . S
O13 Eu0 2.418 . S
O13 C17 1.244 1_655 S
O14 Eu1 2.488 . S
O14 C30 1.249 . S
O15 Eu1 2.471 . S
O15 C30 1.244 . S
O16 Eu1 2.349 . S
O16 C17 1.265 . S
C17 O13 1.244 1_455 S
C17 O16 1.265 . S
O18 Eu0 2.373 . S
O18 C31 1.258 . S
O19 Eu1 2.392 1_655 S
O19 C31 1.242 . S
O20 Eu1 2.418 . S
O20 C2 1.244 . S
O21 Eu0 2.488 . S
O21 C9 1.249 . S
O22 Eu0 2.471 . S
O22 C9 1.244 . S
O23 Eu0 2.349 1_455 S
O23 C2 1.265 . S
C24 C25 1.379 . S
C24 C28 1.373 . S
C24 C30 1.505 . S
C25 C24 1.379 . S
C25 C27 1.369 . S
C25 H36 0.930 . S
C26 C28 1.383 . S
C26 C29 1.382 . S
C26 H37 0.930 . S
C27 C25 1.369 . S
C27 C29 1.392 . S
C27 H38 0.930 . S
C28 C24 1.373 . S
C28 C26 1.383 . S
C28 H39 0.931 . S
C29 C26 1.382 . S
C29 C27 1.392 . S
C30 Eu1 2.828 . S
C30 O14 1.249 . S
C30 O15 1.244 . S
C30 C24 1.505 . S
C31 O18 1.258 . S
C31 O19 1.242 . S
H32 C4 0.930 . S
H33 C5 0.930 . S
H34 C6 0.930 . S
H35 C7 0.931 . S
H36 C25 0.930 . S
H37 C26 0.930 . S
H38 C27 0.930 . S
H39 C28 0.931 . S
Eu40 C49 2.828 . S
Eu40 O51 2.392 1_565 S
Eu40 O53 2.418 . S
Eu40 O58 2.373 . S
Eu40 O61 2.488 . S
Eu40 O62 2.471 . S
Eu40 O63 2.349 1_565 S
Eu41 O50 2.373 . S
Eu41 O54 2.488 . S
Eu41 O55 2.471 . S
Eu41 O56 2.349 . S
Eu41 O59 2.392 1_545 S
Eu41 O60 2.418 . S
Eu41 C70 2.828 . S
C42 O60 1.244 . S
C42 O63 1.265 . S
C43 C44 1.379 . S
C43 C47 1.373 . S
C43 C49 1.505 . S
C44 C43 1.379 . S
C44 C46 1.369 . S
C44 H72 0.930 . S
C45 C47 1.383 . S
C45 C48 1.382 . S
C45 H73 0.930 . S
C46 C44 1.369 . S
C46 C48 1.392 . S
C46 H74 0.930 . S
C47 C43 1.373 . S
C47 C45 1.383 . S
C47 H75 0.931 . S
C48 C45 1.382 . S
C48 C46 1.392 . S
C49 Eu40 2.828 . S
C49 C43 1.505 . S
C49 O61 1.249 . S
C49 O62 1.244 . S
O50 Eu41 2.373 . S
O50 C52 1.258 . S
O51 Eu40 2.392 1_545 S
O51 C52 1.242 . S
C52 O50 1.258 . S
C52 O51 1.242 . S
O53 Eu40 2.418 . S
O53 C57 1.244 1_565 S
O54 Eu41 2.488 . S
O54 C70 1.249 . S
O55 Eu41 2.471 . S
O55 C70 1.244 . S
O56 Eu41 2.349 . S
O56 C57 1.265 . S
C57 O53 1.244 1_545 S
C57 O56 1.265 . S
O58 Eu40 2.373 . S
O58 C71 1.258 . S
O59 Eu41 2.392 1_565 S
O59 C71 1.242 . S
O60 Eu41 2.418 . S
O60 C42 1.244 . S
O61 Eu40 2.488 . S
O61 C49 1.249 . S
O62 Eu40 2.471 . S
O62 C49 1.244 . S
O63 Eu40 2.349 1_545 S
O63 C42 1.265 . S
C64 C65 1.379 . S
C64 C68 1.373 . S
C64 C70 1.505 . S
C65 C64 1.379 . S
C65 C67 1.369 . S
C65 H76 0.930 . S
C66 C68 1.383 . S
C66 C69 1.382 . S
C66 H77 0.930 . S
C67 C65 1.369 . S
C67 C69 1.392 . S
C67 H78 0.930 . S
C68 C64 1.373 . S
C68 C66 1.383 . S
C68 H79 0.931 . S
C69 C66 1.382 . S
C69 C67 1.392 . S
C70 Eu41 2.828 . S
C70 O54 1.249 . S
C70 O55 1.244 . S
C70 C64 1.505 . S
C71 O58 1.258 . S
C71 O59 1.242 . S
H72 C44 0.930 . S
H73 C45 0.930 . S
H74 C46 0.930 . S
H75 C47 0.931 . S
H76 C65 0.930 . S
H77 C66 0.930 . S
H78 C67 0.930 . S
H79 C68 0.931 . S
Eu80 C89 2.828 . S
Eu80 O91 2.392 . S
Eu80 O93 2.418 . S
Eu80 O98 2.373 . S
Eu80 O101 2.488 . S
Eu80 O102 2.471 . S
Eu80 O103 2.349 . S
Eu81 O90 2.373 . S
Eu81 O94 2.488 . S
Eu81 O95 2.471 . S
Eu81 O96 2.349 . S
Eu81 O99 2.392 . S
Eu81 O100 2.418 . S
Eu81 C110 2.828 . S
C82 O100 1.244 . S
C82 O103 1.265 . S
C83 C84 1.379 . S
C83 C87 1.373 . S
C83 C89 1.505 . S
C84 C83 1.379 . S
C84 C86 1.369 . S
C84 H112 0.930 . S
C85 C87 1.383 . S
C85 C88 1.382 . S
C85 H113 0.930 . S
C86 C84 1.369 . S
C86 C88 1.392 . S
C86 H114 0.930 . S
C87 C83 1.373 . S
C87 C85 1.383 . S
C87 H115 0.931 . S
C88 C85 1.382 . S
C88 C86 1.392 . S
C89 Eu80 2.828 . S
C89 C83 1.505 . S
C89 O101 1.249 . S
C89 O102 1.244 . S
O90 Eu81 2.373 . S
O90 C92 1.258 . S
O91 Eu80 2.392 . S
O91 C92 1.242 . S
C92 O90 1.258 . S
C92 O91 1.242 . S
O93 Eu80 2.418 . S
O93 C97 1.244 . S
O94 Eu81 2.488 . S
O94 C110 1.249 . S
O95 Eu81 2.471 . S
O95 C110 1.244 . S
O96 Eu81 2.349 . S
O96 C97 1.265 . S
C97 O93 1.244 . S
C97 O96 1.265 . S
O98 Eu80 2.373 . S
O98 C111 1.258 . S
O99 Eu81 2.392 . S
O99 C111 1.242 . S
O100 Eu81 2.418 . S
O100 C82 1.244 . S
O101 Eu80 2.488 . S
O101 C89 1.249 . S
O102 Eu80 2.471 . S
O102 C89 1.244 . S
O103 Eu80 2.349 . S
O103 C82 1.265 . S
C104 C105 1.379 . S
C104 C108 1.373 . S
C104 C110 1.505 . S
C105 C104 1.379 . S
C105 C107 1.369 . S
C105 H116 0.930 . S
C106 C108 1.383 . S
C106 C109 1.382 . S
C106 H117 0.930 . S
C107 C105 1.369 . S
C107 C109 1.392 . S
C107 H118 0.930 . S
C108 C104 1.373 . S
C108 C106 1.383 . S
C108 H119 0.931 . S
C109 C106 1.382 . S
C109 C107 1.392 . S
C110 Eu81 2.828 . S
C110 O94 1.249 . S
C110 O95 1.244 . S
C110 C104 1.505 . S
C111 O98 1.258 . S
C111 O99 1.242 . S
H112 C84 0.930 . S
H113 C85 0.930 . S
H114 C86 0.930 . S
H115 C87 0.931 . S
H116 C105 0.930 . S
H117 C106 0.930 . S
H118 C107 0.930 . S
H119 C108 0.931 . S
H120 C121 0.949 . S
C121 H120 0.949 . S
C121 C122 1.395 . S
C121 C123 1.391 . S
C122 C121 1.395 . S
C122 C125 1.390 1_545 S
C123 C121 1.391 . S
C123 C127 1.387 . S
C123 C128 1.491 . S
H124 C125 0.950 . S
C125 C122 1.390 1_565 S
C125 H124 0.950 . S
C125 C126 1.378 . S
C126 C125 1.378 . S
C126 C127 1.409 1_565 S
C127 C123 1.387 . S
C127 C126 1.409 1_545 S
C127 H129 0.950 . S
C128 C123 1.491 . S
C128 C130 1.382 . S
C128 C132 1.404 . S
H129 C127 0.950 . S
C130 C128 1.382 . S
C130 C131 1.390 . S
C130 H135 0.949 . S
C131 C130 1.390 . S
C131 C136 1.399 . S
C132 C128 1.404 . S
C132 H133 0.950 . S
C132 C134 1.375 . S
H133 C132 0.950 . S
C134 C132 1.375 . S
C134 C136 1.382 . S
C134 H138 0.950 . S
H135 C130 0.949 . S
C136 C131 1.399 . S
C136 C134 1.382 . S
C136 H137 0.952 . S
H137 C136 0.952 . S
H138 C134 0.950 . S
H139 C140 0.949 . S
C140 H139 0.949 . S
C140 C141 1.395 . S
C140 C142 1.391 . S
C141 C140 1.395 . S
C141 C144 1.390 . S
C142 C140 1.391 . S
C142 C146 1.387 . S
C142 C147 1.491 . S
H143 C144 0.950 . S
C144 C141 1.390 . S
C144 H143 0.950 . S
C144 C145 1.378 . S
C145 C144 1.378 . S
C145 C146 1.409 . S
C146 C142 1.387 . S
C146 C145 1.409 . S
C146 H148 0.951 . S
C147 C142 1.491 . S
C147 C149 1.382 . S
C147 C151 1.404 . S
H148 C146 0.951 . S
C149 C147 1.382 . S
C149 C150 1.390 . S
C149 H154 0.949 . S
C150 C149 1.390 . S
C150 C155 1.399 . S
C151 C147 1.404 . S
C151 H152 0.950 . S
C151 C153 1.375 . S
H152 C151 0.950 . S
C153 C151 1.375 . S
C153 C155 1.382 . S
C153 H157 0.950 . S
H154 C149 0.949 . S
C155 C150 1.399 . S
C155 C153 1.382 . S
C155 H156 0.952 . S
H156 C155 0.952 . S
H157 C153 0.950 . S
H158 C159 0.949 . S
C159 H158 0.949 . S
C159 C160 1.395 . S
C159 C161 1.391 . S
C160 C159 1.395 . S
C160 C163 1.390 1_455 S
C161 C159 1.391 . S
C161 C165 1.387 . S
C161 C166 1.491 . S
H162 C163 0.950 . S
C163 C160 1.390 1_655 S
C163 H162 0.950 . S
C163 C164 1.378 . S
C164 C163 1.378 . S
C164 C165 1.409 1_655 S
C165 C161 1.387 . S
C165 C164 1.409 1_455 S
C165 H167 0.951 . S
C166 C161 1.491 . S
C166 C168 1.382 . S
C166 C170 1.404 . S
H167 C165 0.951 . S
C168 C166 1.382 . S
C168 C169 1.390 . S
C168 H173 0.949 . S
C169 C168 1.390 . S
C169 C174 1.399 . S
C170 C166 1.404 . S
C170 H171 0.950 . S
C170 C172 1.375 . S
H171 C170 0.950 . S
C172 C170 1.375 . S
C172 C174 1.382 . S
C172 H176 0.950 . S
H173 C168 0.949 . S
C174 C169 1.399 . S
C174 C172 1.382 . S
C174 H175 0.952 . S
H175 C174 0.952 . S
H176 C172 0.950 . S
H177 C178 0.949 1_655 S
C178 H177 0.949 1_455 S
C178 C179 1.395 . S
C178 C180 1.391 . S
C179 C178 1.395 . S
C179 C182 1.390 . S
C180 C178 1.391 . S
C180 C184 1.387 . S
C180 C185 1.491 1_455 S
H181 C182 0.950 . S
C182 C179 1.390 . S
C182 H181 0.950 . S
C182 C183 1.378 . S
C183 C182 1.378 . S
C183 C184 1.409 . S
C184 C180 1.387 . S
C184 C183 1.409 . S
C184 H186 0.951 . S
C185 C180 1.491 1_655 S
C185 C187 1.382 . S
C185 C189 1.404 . S
H186 C184 0.951 . S
C187 C185 1.382 . S
C187 C188 1.390 . S
C187 H192 0.949 . S
C188 C187 1.390 . S
C188 C193 1.399 . S
C189 C185 1.404 . S
C189 H190 0.950 . S
C189 C191 1.375 . S
H190 C189 0.950 . S
C191 C189 1.375 . S
C191 C193 1.382 . S
C191 H195 0.950 . S
H192 C187 0.949 . S
C193 C188 1.399 . S
C193 C191 1.382 . S
C193 H194 0.952 . S
H194 C193 0.952 . S
H195 C191 0.950 . S
H196 C197 0.949 1_565 S
C197 H196 0.949 1_545 S
C197 C198 1.395 . S
C197 C199 1.391 . S
C198 C197 1.395 . S
C198 C201 1.390 . S
C199 C197 1.391 . S
C199 C203 1.387 . S
C199 C204 1.491 1_545 S
H200 C201 0.950 . S
C201 C198 1.390 . S
C201 H200 0.950 . S
C201 C202 1.378 . S
C202 C201 1.378 . S
C202 C203 1.409 . S
C203 C199 1.387 . S
C203 C202 1.409 . S
C203 H205 0.951 . S
C204 C199 1.491 1_565 S
C204 C206 1.382 . S
C204 C208 1.404 . S
H205 C203 0.951 . S
C206 C204 1.382 . S
C206 C207 1.390 . S
C206 H211 0.949 . S
C207 C206 1.390 . S
C207 C212 1.399 . S
C208 C204 1.404 . S
C208 H209 0.950 1_565 S
C208 C210 1.375 . S
H209 C208 0.950 1_545 S
C210 C208 1.375 . S
C210 C212 1.382 . S
C210 H214 0.950 . S
H211 C206 0.949 . S
C212 C207 1.399 . S
C212 C210 1.382 . S
C212 H213 0.952 . S
H213 C212 0.952 . S
H214 C210 0.950 . S
H215 C216 0.949 . S
C216 H215 0.949 . S
C216 C217 1.395 . S
C216 C218 1.391 . S
C217 C216 1.395 . S
C217 C220 1.390 . S
C218 C216 1.391 . S
C218 C222 1.387 . S
C218 C223 1.491 . S
H219 C220 0.950 . S
C220 C217 1.390 . S
C220 H219 0.950 . S
C220 C221 1.378 . S
C221 C220 1.378 . S
C221 C222 1.409 . S
C222 C218 1.387 . S
C222 C221 1.409 . S
C222 H224 0.951 . S
C223 C218 1.491 . S
C223 C225 1.382 . S
C223 C227 1.404 . S
H224 C222 0.951 . S
C225 C223 1.382 . S
C225 C226 1.390 . S
C225 H230 0.949 . S
C226 C225 1.390 . S
C226 C231 1.399 . S
C227 C223 1.404 . S
C227 H228 0.950 . S
C227 C229 1.375 . S
H228 C227 0.950 . S
C229 C227 1.375 . S
C229 C231 1.382 . S
C229 H233 0.950 . S
H230 C225 0.949 . S
C231 C226 1.399 . S
C231 C229 1.382 . S
C231 H232 0.952 . S
H232 C231 0.952 . S
H233 C229 0.950 . S
C234 C235 1.363 . S
C234 C240 1.379 . S
C234 N242 1.356 . S
C235 C234 1.363 . S
C235 C241 1.363 . S
C236 C237 1.363 . S
C236 C241 1.379 . S
C236 N243 1.356 . S
C237 C236 1.363 . S
C237 C240 1.363 . S
N238 C240 1.356 . S
N238 H250 0.984 . S
N238 H251 0.985 . S
N239 C241 1.356 . S
N239 H244 0.984 . S
N239 H245 0.985 . S
C240 C234 1.379 . S
C240 C237 1.363 . S
C240 N238 1.356 . S
C241 C235 1.363 . S
C241 C236 1.379 . S
C241 N239 1.356 . S
N242 C234 1.356 . S
N242 H248 0.984 . S
N242 H249 0.984 . S
N243 C236 1.356 . S
N243 H246 0.984 . S
N243 H247 0.985 . S
H244 N239 0.984 . S
H245 N239 0.985 . S
H246 N243 0.984 . S
H247 N243 0.985 . S
H248 N242 0.984 . S
H249 N242 0.984 . S
H250 N238 0.984 . S
H251 N238 0.985 . S
C252 C253 1.363 . S
C252 C258 1.379 . S
C252 N260 1.356 . S
C253 C252 1.363 . S
C253 C259 1.363 . S
C254 C255 1.363 . S
C254 C259 1.379 . S
C254 N261 1.356 . S
C255 C254 1.363 . S
C255 C258 1.363 . S
N256 C258 1.356 . S
N256 H268 0.984 . S
N256 H269 0.985 . S
N257 C259 1.356 . S
N257 H262 0.984 . S
N257 H263 0.985 . S
C258 C252 1.379 . S
C258 C255 1.363 . S
C258 N256 1.356 . S
C259 C253 1.363 . S
C259 C254 1.379 . S
C259 N257 1.356 . S
N260 C252 1.356 . S
N260 H266 0.984 . S
N260 H267 0.984 . S
N261 C254 1.356 . S
N261 H264 0.984 . S
N261 H265 0.985 . S
H262 N257 0.984 . S
H263 N257 0.985 . S
H264 N261 0.984 . S
H265 N261 0.985 . S
H266 N260 0.984 . S
H267 N260 0.984 . S
H268 N256 0.984 . S
H269 N256 0.985 . S
C270 C271 1.363 . S
C270 C276 1.379 . S
C270 N278 1.356 . S
C271 C270 1.363 . S
C271 C277 1.363 . S
C272 C273 1.363 . S
C272 C277 1.379 . S
C272 N279 1.356 . S
C273 C272 1.363 . S
C273 C276 1.363 . S
N274 C276 1.356 . S
N274 H286 0.984 . S
N274 H287 0.985 . S
N275 C277 1.356 . S
N275 H280 0.984 . S
N275 H281 0.985 . S
C276 C270 1.379 . S
C276 C273 1.363 . S
C276 N274 1.356 . S
C277 C271 1.363 . S
C277 C272 1.379 . S
C277 N275 1.356 . S
N278 C270 1.356 . S
N278 H284 0.984 . S
N278 H285 0.984 . S
N279 C272 1.356 . S
N279 H282 0.984 . S
N279 H283 0.985 . S
H280 N275 0.984 . S
H281 N275 0.985 . S
H282 N279 0.984 . S
H283 N279 0.985 . S
H284 N278 0.984 . S
H285 N278 0.984 . S
H286 N274 0.984 . S
H287 N274 0.985 . S
C288 C289 1.363 . S
C288 C294 1.379 . S
C288 N296 1.356 . S
C289 C288 1.363 . S
C289 C295 1.363 . S
C290 C291 1.363 . S
C290 C295 1.379 . S
C290 N297 1.356 . S
C291 C290 1.363 . S
C291 C294 1.363 . S
N292 C294 1.356 . S
N292 H304 0.984 . S
N292 H305 0.985 . S
N293 C295 1.356 . S
N293 H298 0.984 . S
N293 H299 0.985 . S
C294 C288 1.379 . S
C294 C291 1.363 . S
C294 N292 1.356 . S
C295 C289 1.363 . S
C295 C290 1.379 . S
C295 N293 1.356 . S
N296 C288 1.356 . S
N296 H302 0.984 . S
N296 H303 0.984 . S
N297 C290 1.356 . S
N297 H300 0.984 . S
N297 H301 0.985 . S
H298 N293 0.984 . S
H299 N293 0.985 . S
H300 N297 0.984 . S
H301 N297 0.985 . S
H302 N296 0.984 . S
H303 N296 0.984 . S
H304 N292 0.984 . S
H305 N292 0.985 . S
C306 C307 1.363 . S
C306 C312 1.379 . S
C306 N314 1.356 . S
C307 C306 1.363 . S
C307 C313 1.363 . S
C308 C309 1.363 . S
C308 C313 1.379 . S
C308 N315 1.356 . S
C309 C308 1.363 . S
C309 C312 1.363 . S
N310 C312 1.356 . S
N310 H322 0.984 . S
N310 H323 0.985 . S
N311 C313 1.356 . S
N311 H316 0.984 . S
N311 H317 0.985 . S
C312 C306 1.379 . S
C312 C309 1.363 . S
C312 N310 1.356 . S
C313 C307 1.363 . S
C313 C308 1.379 . S
C313 N311 1.356 . S
N314 C306 1.356 . S
N314 H320 0.984 . S
N314 H321 0.984 . S
N315 C308 1.356 . S
N315 H318 0.984 . S
N315 H319 0.985 . S
H316 N311 0.984 . S
H317 N311 0.985 . S
H318 N315 0.984 . S
H319 N315 0.985 . S
H320 N314 0.984 . S
H321 N314 0.984 . S
H322 N310 0.984 . S
H323 N310 0.985 . S
C324 C325 1.363 . S
C324 C330 1.379 . S
C324 N332 1.356 . S
C325 C324 1.363 . S
C325 C331 1.363 . S
C326 C327 1.363 . S
C326 C331 1.379 . S
C326 N333 1.356 . S
C327 C326 1.363 . S
C327 C330 1.363 . S
N328 C330 1.356 . S
N328 H340 0.984 . S
N328 H341 0.985 . S
N329 C331 1.356 . S
N329 H334 0.984 . S
N329 H335 0.985 . S
C330 C324 1.379 . S
C330 C327 1.363 . S
C330 N328 1.356 . S
C331 C325 1.363 . S
C331 C326 1.379 . S
C331 N329 1.356 . S
N332 C324 1.356 . S
N332 H338 0.984 . S
N332 H339 0.984 . S
N333 C326 1.356 . S
N333 H336 0.984 . S
N333 H337 0.985 . S
H334 N329 0.984 . S
H335 N329 0.985 . S
H336 N333 0.984 . S
H337 N333 0.985 . S
H338 N332 0.984 . S
H339 N332 0.984 . S
H340 N328 0.984 . S
H341 N328 0.985 . S
C342 C343 1.363 . S
C342 C348 1.379 . S
C342 N350 1.356 . S
C343 C342 1.363 . S
C343 C349 1.363 . S
C344 C345 1.363 . S
C344 C349 1.379 . S
C344 N351 1.356 . S
C345 C344 1.363 . S
C345 C348 1.363 . S
N346 C348 1.356 . S
N346 H358 0.984 . S
N346 H359 0.985 . S
N347 C349 1.356 . S
N347 H352 0.984 . S
N347 H353 0.985 . S
C348 C342 1.379 . S
C348 C345 1.363 . S
C348 N346 1.356 . S
C349 C343 1.363 . S
C349 C344 1.379 . S
C349 N347 1.356 . S
N350 C342 1.356 . S
N350 H356 0.984 . S
N350 H357 0.984 . S
N351 C344 1.356 . S
N351 H354 0.984 . S
N351 H355 0.985 . S
H352 N347 0.984 . S
H353 N347 0.985 . S
H354 N351 0.984 . S
H355 N351 0.985 . S
H356 N350 0.984 . S
H357 N350 0.984 . S
H358 N346 0.984 . S
H359 N346 0.985 . S
C360 C361 1.363 . S
C360 C366 1.379 . S
C360 N368 1.356 . S
C361 C360 1.363 . S
C361 C367 1.363 . S
C362 C363 1.363 . S
C362 C367 1.379 . S
C362 N369 1.356 1_655 S
C363 C362 1.363 . S
C363 C366 1.363 . S
N364 C366 1.356 . S
N364 H376 0.984 . S
N364 H377 0.985 . S
N365 C367 1.356 . S
N365 H370 0.984 . S
N365 H371 0.985 . S
C366 C360 1.379 . S
C366 C363 1.363 . S
C366 N364 1.356 . S
C367 C361 1.363 . S
C367 C362 1.379 . S
C367 N365 1.356 . S
N368 C360 1.356 . S
N368 H374 0.984 . S
N368 H375 0.984 . S
N369 C362 1.356 1_455 S
N369 H372 0.984 . S
N369 H373 0.985 . S
H370 N365 0.984 . S
H371 N365 0.985 . S
H372 N369 0.984 . S
H373 N369 0.985 . S
H374 N368 0.984 . S
H375 N368 0.984 . S
H376 N364 0.984 . S
H377 N364 0.985 . S
C378 C379 1.363 . S
C378 C384 1.379 . S
C378 N386 1.356 . S
C379 C378 1.363 . S
C379 C385 1.363 . S
C380 C381 1.363 . S
C380 C385 1.379 . S
C380 N387 1.356 . S
C381 C380 1.363 . S
C381 C384 1.363 . S
N382 C384 1.356 1_545 S
N382 H394 0.984 . S
N382 H395 0.985 . S
N383 C385 1.356 . S
N383 H388 0.984 . S
N383 H389 0.985 . S
C384 C378 1.379 . S
C384 C381 1.363 . S
C384 N382 1.356 1_565 S
C385 C379 1.363 . S
C385 C380 1.379 . S
C385 N383 1.356 . S
N386 C378 1.356 . S
N386 H392 0.984 . S
N386 H393 0.984 . S
N387 C380 1.356 . S
N387 H390 0.984 . S
N387 H391 0.985 . S
H388 N383 0.984 . S
H389 N383 0.985 . S
H390 N387 0.984 . S
H391 N387 0.985 . S
H392 N386 0.984 . S
H393 N386 0.984 . S
H394 N382 0.984 . S
H395 N382 0.985 . S
C396 C397 1.363 . S
C396 C402 1.379 . S
C396 N404 1.356 . S
C397 C396 1.363 . S
C397 C403 1.363 . S
C398 C399 1.363 . S
C398 C403 1.379 . S
C398 N405 1.356 . S
C399 C398 1.363 . S
C399 C402 1.363 . S
N400 C402 1.356 . S
N400 H412 0.984 . S
N400 H413 0.985 . S
N401 C403 1.356 . S
N401 H406 0.984 . S
N401 H407 0.985 . S
C402 C396 1.379 . S
C402 C399 1.363 . S
C402 N400 1.356 . S
C403 C397 1.363 . S
C403 C398 1.379 . S
C403 N401 1.356 . S
N404 C396 1.356 . S
N404 H410 0.984 . S
N404 H411 0.984 . S
N405 C398 1.356 . S
N405 H408 0.984 . S
N405 H409 0.985 . S
H406 N401 0.984 . S
H407 N401 0.985 . S
H408 N405 0.984 . S
H409 N405 0.985 . S
H410 N404 0.984 . S
H411 N404 0.984 . S
H412 N400 0.984 . S
H413 N400 0.985 . S
C414 C415 1.363 . S
C414 C420 1.379 . S
C414 N422 1.356 . S
C415 C414 1.363 . S
C415 C421 1.363 . S
C416 C417 1.363 . S
C416 C421 1.379 . S
C416 N423 1.356 . S
C417 C416 1.363 . S
C417 C420 1.363 . S
N418 C420 1.356 . S
N418 H430 0.984 . S
N418 H431 0.985 . S
N419 C421 1.356 . S
N419 H424 0.984 . S
N419 H425 0.985 . S
C420 C414 1.379 . S
C420 C417 1.363 . S
C420 N418 1.356 . S
C421 C415 1.363 . S
C421 C416 1.379 . S
C421 N419 1.356 . S
N422 C414 1.356 . S
N422 H428 0.984 . S
N422 H429 0.984 . S
N423 C416 1.356 . S
N423 H426 0.984 . S
N423 H427 0.985 . S
H424 N419 0.984 . S
H425 N419 0.985 . S
H426 N423 0.984 . S
H427 N423 0.985 . S
H428 N422 0.984 . S
H429 N422 0.984 . S
H430 N418 0.984 . S
H431 N418 0.985 . S
C432 C433 1.363 . S
C432 C438 1.379 . S
C432 N440 1.356 . S
C433 C432 1.363 . S
C433 C439 1.363 . S
C434 C435 1.363 . S
C434 C439 1.379 . S
C434 N441 1.356 . S
C435 C434 1.363 . S
C435 C438 1.363 . S
N436 C438 1.356 . S
N436 H448 0.984 . S
N436 H449 0.985 . S
N437 C439 1.356 . S
N437 H442 0.984 . S
N437 H443 0.985 . S
C438 C432 1.379 . S
C438 C435 1.363 . S
C438 N436 1.356 . S
C439 C433 1.363 . S
C439 C434 1.379 . S
C439 N437 1.356 . S
N440 C432 1.356 . S
N440 H446 0.984 . S
N440 H447 0.984 . S
N441 C434 1.356 . S
N441 H444 0.984 . S
N441 H445 0.985 . S
H442 N437 0.984 . S
H443 N437 0.985 . S
H444 N441 0.984 . S
H445 N441 0.985 . S
H446 N440 0.984 . S
H447 N440 0.984 . S
H448 N436 0.984 . S
H449 N436 0.985 . S
C450 C451 1.363 . S
C450 C456 1.379 1_554 S
C450 N458 1.356 1_455 S
C451 C450 1.363 . S
C451 C457 1.363 . S
C452 C453 1.363 . S
C452 C457 1.379 1_556 S
C452 N459 1.356 . S
C453 C452 1.363 . S
C453 C456 1.363 . S
N454 C456 1.356 . S
N454 H466 0.984 . S
N454 H467 0.985 . S
N455 C457 1.356 . S
N455 H460 0.984 . S
N455 H461 0.985 . S
C456 C450 1.379 1_556 S
C456 C453 1.363 . S
C456 N454 1.356 . S
C457 C451 1.363 . S
C457 C452 1.379 1_554 S
C457 N455 1.356 . S
N458 C450 1.356 1_655 S
N458 H464 0.984 . S
N458 H465 0.984 . S
N459 C452 1.356 . S
N459 H462 0.984 . S
N459 H463 0.985 . S
H460 N455 0.984 . S
H461 N455 0.985 . S
H462 N459 0.984 . S
H463 N459 0.985 . S
H464 N458 0.984 . S
H465 N458 0.984 . S
H466 N454 0.984 . S
H467 N454 0.985 . S
C468 C469 1.363 1_565 S
C468 C474 1.379 . S
C468 N476 1.356 . S
C469 C468 1.363 1_545 S
C469 C475 1.363 . S
C470 C471 1.363 . S
C470 C475 1.379 . S
C470 N477 1.356 . S
C471 C470 1.363 . S
C471 C474 1.363 1_545 S
N472 C474 1.356 . S
N472 H484 0.984 . S
N472 H485 0.985 . S
N473 C475 1.356 . S
N473 H478 0.984 . S
N473 H479 0.985 . S
C474 C468 1.379 . S
C474 C471 1.363 1_565 S
C474 N472 1.356 . S
C475 C469 1.363 . S
C475 C470 1.379 . S
C475 N473 1.356 . S
N476 C468 1.356 . S
N476 H482 0.984 . S
N476 H483 0.984 . S
N477 C470 1.356 . S
N477 H480 0.984 . S
N477 H481 0.985 . S
H478 N473 0.984 . S
H479 N473 0.985 . S
H480 N477 0.984 . S
H481 N477 0.985 . S
H482 N476 0.984 . S
H483 N476 0.984 . S
H484 N472 0.984 . S
H485 N472 0.985 . S
C486 C487 1.363 . S
C486 C492 1.379 . S
C486 N494 1.356 . S
C487 C486 1.363 . S
C487 C493 1.363 . S
C488 C489 1.363 . S
C488 C493 1.379 . S
C488 N495 1.356 . S
C489 C488 1.363 . S
C489 C492 1.363 . S
N490 C492 1.356 . S
N490 H502 0.984 . S
N490 H503 0.985 . S
N491 C493 1.356 . S
N491 H496 0.984 . S
N491 H497 0.985 . S
C492 C486 1.379 . S
C492 C489 1.363 . S
C492 N490 1.356 . S
C493 C487 1.363 . S
C493 C488 1.379 . S
C493 N491 1.356 . S
N494 C486 1.356 . S
N494 H500 0.984 . S
N494 H501 0.984 . S
N495 C488 1.356 . S
N495 H498 0.984 . S
N495 H499 0.985 . S
H496 N491 0.984 . S
H497 N491 0.985 . S
H498 N495 0.984 . S
H499 N495 0.985 . S
H500 N494 0.984 . S
H501 N494 0.984 . S
H502 N490 0.984 . S
H503 N490 0.985 . S
C504 C505 1.363 . S
C504 C510 1.379 . S
C504 N512 1.356 . S
C505 C504 1.363 . S
C505 C511 1.363 . S
C506 C507 1.363 . S
C506 C511 1.379 . S
C506 N513 1.356 1_545 S
C507 C506 1.363 . S
C507 C510 1.363 . S
N508 C510 1.356 . S
N508 H520 0.984 . S
N508 H521 0.985 . S
N509 C511 1.356 1_565 S
N509 H514 0.984 . S
N509 H515 0.985 . S
C510 C504 1.379 . S
C510 C507 1.363 . S
C510 N508 1.356 . S
C511 C505 1.363 . S
C511 C506 1.379 . S
C511 N509 1.356 1_545 S
N512 C504 1.356 . S
N512 H518 0.984 . S
N512 H519 0.984 . S
N513 C506 1.356 1_565 S
N513 H516 0.984 . S
N513 H517 0.985 . S
H514 N509 0.984 . S
H515 N509 0.985 . S
H516 N513 0.984 . S
H517 N513 0.985 . S
H518 N512 0.984 . S
H519 N512 0.984 . S
H520 N508 0.984 . S
H521 N508 0.985 . S
C522 C523 1.363 . S
C522 C528 1.379 1_556 S
C522 N530 1.356 . S
C523 C522 1.363 . S
C523 C529 1.363 . S
C524 C525 1.363 1_556 S
C524 C529 1.379 . S
C524 N531 1.356 1_556 S
C525 C524 1.363 1_554 S
C525 C528 1.363 . S
N526 C528 1.356 . S
N526 H538 0.984 . S
N526 H539 0.985 . S
N527 C529 1.356 . S
N527 H532 0.984 . S
N527 H533 0.985 . S
C528 C522 1.379 1_554 S
C528 C525 1.363 . S
C528 N526 1.356 . S
C529 C523 1.363 . S
C529 C524 1.379 . S
C529 N527 1.356 . S
N530 C522 1.356 . S
N530 H536 0.984 . S
N530 H537 0.984 . S
N531 C524 1.356 1_554 S
N531 H534 0.984 . S
N531 H535 0.985 . S
H532 N527 0.984 . S
H533 N527 0.985 . S
H534 N531 0.984 . S
H535 N531 0.985 . S
H536 N530 0.984 . S
H537 N530 0.984 . S
H538 N526 0.984 . S
H539 N526 0.985 . S
C540 C541 1.363 . S
C540 C546 1.379 . S
C540 N548 1.356 . S
C541 C540 1.363 . S
C541 C547 1.363 1_455 S
C542 C543 1.363 1_655 S
C542 C547 1.379 . S
C542 N549 1.356 . S
C543 C542 1.363 1_455 S
C543 C546 1.363 . S
N544 C546 1.356 . S
N544 H556 0.984 . S
N544 H557 0.985 . S
N545 C547 1.356 . S
N545 H550 0.984 . S
N545 H551 0.985 . S
C546 C540 1.379 . S
C546 C543 1.363 . S
C546 N544 1.356 . S
C547 C541 1.363 1_655 S
C547 C542 1.379 . S
C547 N545 1.356 . S
N548 C540 1.356 . S
N548 H554 0.984 . S
N548 H555 0.984 . S
N549 C542 1.356 . S
N549 H552 0.984 . S
N549 H553 0.985 . S
H550 N545 0.984 . S
H551 N545 0.985 . S
H552 N549 0.984 . S
H553 N549 0.985 . S
H554 N548 0.984 . S
H555 N548 0.984 . S
H556 N544 0.984 . S
H557 N544 0.985 . S
C235 C12 3.117 . S
C237 C226 3.028 . S
C253 C52 3.118 . S
C255 C188 3.031 . S
C271 C111 3.134 . S
C273 C207 3.047 . S
C289 C31 3.091 . S
C291 C221 3.037 . S
C309 C183 3.038 . S
C307 C71 3.095 . S
C327 C202 3.012 . S
C325 C92 3.063 . S
C343 C48 0.858 . S
C345 C150 0.802 . S
C361 C109 0.597 . S
C363 C164 0.395 . S
C379 C29 0.498 . S
C381 C126 0.288 . S
C399 C145 0.593 . S
C397 C69 0.627 . S
C417 C169 0.620 . S
C415 C88 0.504 . S
C433 C8 0.628 . S
C435 C131 0.693 . S
C453 C160 1.248 . S
C451 C17 1.213 . S
C469 C57 1.198 . S
C471 C122 1.232 . S
C487 C97 1.264 . S
C489 C141 1.262 . S
C507 C198 1.747 . S
C505 C42 1.734 . S
C525 C217 1.771 . S
C523 C82 1.749 . S
C541 C2 1.770 . S
C543 C179 1.774 . S
