# Generated by pormake.
# Topology rtl, (3,6)-cn, num edge types: 1
# Building blocks:
#     Node 0, Type 0, BuildingBlock: BETDIP_clean_linker_0, # of connection points: 3
#     Node 1, Type 0, BuildingBlock: BETDIP_clean_linker_0, # of connection points: 3
#     Node 2, Type 0, BuildingBlock: BETDIP_clean_linker_0, # of connection points: 3
#     Node 3, Type 0, BuildingBlock: BETDIP_clean_linker_0, # of connection points: 3
#     Node 4, Type 1, BuildingBlock: FUNLAD_clean_sbu_0, # of connection points: 6
#     Node 5, Type 1, BuildingBlock: FUNLAD_clean_sbu_0, # of connection points: 6
#     Edge 6, Type (0, 1), BuildingBlock: KIFKEQ_clean_linker_1, # of connection points: 2
#     Edge 7, Type (0, 1), BuildingBlock: KIFKEQ_clean_linker_1, # of connection points: 2
#     Edge 8, Type (0, 1), BuildingBlock: KIFKEQ_clean_linker_1, # of connection points: 2
#     Edge 9, Type (0, 1), BuildingBlock: KIFKEQ_clean_linker_1, # of connection points: 2
#     Edge 10, Type (0, 1), BuildingBlock: KIFKEQ_clean_linker_1, # of connection points: 2
#     Edge 11, Type (0, 1), BuildingBlock: KIFKEQ_clean_linker_1, # of connection points: 2
#     Edge 12, Type (0, 1), BuildingBlock: KIFKEQ_clean_linker_1, # of connection points: 2
#     Edge 13, Type (0, 1), BuildingBlock: KIFKEQ_clean_linker_1, # of connection points: 2
#     Edge 14, Type (0, 1), BuildingBlock: KIFKEQ_clean_linker_1, # of connection points: 2
#     Edge 15, Type (0, 1), BuildingBlock: KIFKEQ_clean_linker_1, # of connection points: 2
#     Edge 16, Type (0, 1), BuildingBlock: KIFKEQ_clean_linker_1, # of connection points: 2
#     Edge 17, Type (0, 1), BuildingBlock: KIFKEQ_clean_linker_1, # of connection points: 2
# Relax obj value: 0.002
# Max RMSD: 0.040
# Mean RMSD: 0.028
data_MOF--net-rtl--node1-FUNLAD_clean_sbu_0--node2-BETDIP_clean_linker_0--edge1-KIFKEQ_clean_linker_1
_symmetry_space_group_name_H-M    P1
_symmetry_Int_Tables_number       1
_symmetry_cell_setting            triclinic
loop_
_symmetry_equiv_pos_as_xyz
'x, y, z'
_cell_length_a     40.895976
_cell_length_b     40.770669
_cell_length_c     21.561395
_cell_angle_alpha  90.909008
_cell_angle_beta   91.956217
_cell_angle_gamma 90.046089
loop_
_atom_site_label
_atom_site_type_symbol
_atom_site_fract_x
_atom_site_fract_y
_atom_site_fract_z
_atom_type_partial_charge
H0 H 0.19259 0.83433 0.90821 0.0
H1 H 0.19049 0.83439 0.10814 0.0
H2 H 0.12066 0.89099 0.00336 0.0
H3 H 0.22297 0.7928 0.10315 0.0
C4 C 0.2338 0.79057 0.05811 0.0
C5 C 0.1819 0.84264 0.951 0.0
C6 C 0.1548 0.86374 0.94899 0.0
C7 C 0.19476 0.83128 0.00789 0.0
C8 C 0.1808 0.84216 0.06355 0.0
C9 C 0.15369 0.86327 0.06197 0.0
C10 C 0.141 0.87393 0.00463 0.0
N11 N 0.22134 0.80877 0.00677 0.0
H12 H 0.69261 0.69478 0.62441 0.0
H13 H 0.69044 0.68766 0.42442 0.0
H14 H 0.62252 0.6323 0.52762 0.0
H15 H 0.71605 0.73442 0.42948 0.0
C16 C 0.72939 0.73684 0.47364 0.0
C17 C 0.68222 0.6846 0.58136 0.0
C18 C 0.65588 0.66255 0.58262 0.0
C19 C 0.69445 0.6946 0.5246 0.0
C20 C 0.68095 0.68111 0.46871 0.0
C21 C 0.65462 0.65905 0.46959 0.0
C22 C 0.64237 0.64992 0.52665 0.0
N23 N 0.71996 0.71842 0.52564 0.0
H24 H 0.83252 0.1979 0.896 0.0
H25 H 0.82897 0.19112 0.09519 0.0
H26 H 0.89634 0.13178 -0.0046 0.0
H27 H 0.78171 0.21526 0.08439 0.0
C28 C 0.78085 0.22916 0.04191 0.0
C29 C 0.84114 0.1872 0.93925 0.0
C30 C 0.86644 0.16394 0.93917 0.0
C31 C 0.82706 0.19708 -0.00499 0.0
C32 C 0.83879 0.18353 0.05137 0.0
C33 C 0.86344 0.15961 0.05144 0.0
C34 C 0.87714 0.15012 -0.00467 0.0
N35 N 0.80165 0.22093 -0.00754 0.0
H36 H 0.33253 0.32586 0.38993 0.0
H37 H 0.33363 0.3304 0.59005 0.0
H38 H 0.38931 0.39948 0.48969 0.0
H39 H 0.30982 0.28295 0.5844 0.0
C40 C 0.29851 0.27901 0.53869 0.0
C41 C 0.34116 0.33702 0.43343 0.0
C42 C 0.36173 0.3646 0.43315 0.0
C43 C 0.33097 0.32411 0.48959 0.0
C44 C 0.34177 0.3391 0.54612 0.0
C45 C 0.36263 0.36647 0.54629 0.0
C46 C 0.37252 0.37888 0.48971 0.0
N47 N 0.30896 0.297 0.48692 0.0
C48 C 0.04156 0.97741 0.41175 0.0
N49 N 0.06564 0.06639 0.50218 0.0
C50 C 0.09739 0.05656 0.50014 0.0
C51 C 0.12261 0.07969 0.50115 0.0
C52 C 0.11513 0.11325 0.50487 0.0
C53 C 0.08216 0.12271 0.50681 0.0
C54 C 0.05768 0.09877 0.50513 0.0
Zn55 Zn 0.0294 0.03172 0.50164 0.0
C56 C 0.97508 0.0467 0.41091 0.0
N57 N 0.95392 0.95911 0.50061 0.0
C58 C 0.9624 0.92685 0.49958 0.0
C59 C 0.92201 0.96846 0.50141 0.0
C60 C 0.89715 0.94494 0.50102 0.0
C61 C 0.90516 0.91141 0.49961 0.0
C62 C 0.93834 0.90252 0.49898 0.0
Zn63 Zn 0.98993 0.99399 0.50095 0.0
O64 O 0.05337 1.0044 0.43253 0.0
C65 C 0.04403 0.97857 0.59134 0.0
O66 O 0.01465 0.96713 0.43198 0.0
H67 H 0.91579 0.99424 0.50237 0.0
H68 H 0.10321 0.03071 0.49815 0.0
H69 H 0.9879 0.91992 0.49891 0.0
O70 O 0.0556 1.00523 0.57147 0.0
O71 O 0.01644 0.96839 0.57009 0.0
H72 H 0.03229 0.10607 0.50639 0.0
O73 O 0.96577 0.02154 0.56999 0.0
O74 O 0.0048 0.0585 0.57059 0.0
O75 O 0.96397 0.02004 0.43154 0.0
O76 O 1.00255 0.05752 0.43186 0.0
C77 C 0.97776 0.0485 0.59068 0.0
H78 H 0.14774 0.07137 0.50028 0.0
H79 H 0.07536 0.14836 0.50909 0.0
H80 H 0.87195 0.95296 0.50237 0.0
H81 H 0.94568 0.87702 0.49699 0.0
C82 C 0.47593 0.48103 0.9102 0.0
N83 N 0.56345 0.45763 0.00723 0.0
C84 C 0.55395 0.4257 0.0017 0.0
C85 C 0.57719 0.40064 0.00288 0.0
C86 C 0.6106 0.40841 0.01016 0.0
C87 C 0.6197 0.44163 0.01529 0.0
C88 C 0.59563 0.46593 0.01361 0.0
Zn89 Zn 0.52847 0.4935 0.00717 0.0
C90 C 0.54443 0.54876 0.92479 0.0
N91 N 0.45496 0.56791 0.00725 0.0
C92 C 0.42281 0.55923 0.00347 0.0
C93 C 0.46418 0.59993 0.01283 0.0
C94 C 0.44065 0.62466 0.01559 0.0
C95 C 0.40726 0.6164 0.01264 0.0
C96 C 0.39848 0.58317 0.00606 0.0
Zn97 Zn 0.48999 0.53216 0.00671 0.0
O98 O 0.50263 0.46944 0.93237 0.0
C99 C 0.47382 0.47723 0.08934 0.0
O100 O 0.46497 0.50775 0.93233 0.0
H101 H 0.48986 0.60631 0.01592 0.0
H102 H 0.52825 0.41961 -0.00341 0.0
H103 H 0.416 0.53365 -0.00109 0.0
O104 O 0.50111 0.46647 0.07119 0.0
O105 O 0.46334 0.50465 0.06981 0.0
H106 H 0.60266 0.49146 0.01799 0.0
O107 O 0.51547 0.55604 0.08112 0.0
O108 O 0.5536 0.51822 0.08199 0.0
O109 O 0.51718 0.55915 0.94371 0.0
O110 O 0.55523 0.52122 0.94328 0.0
C111 C 0.5422 0.54485 0.10377 0.0
H112 H 0.56902 0.37544 -0.0022 0.0
H113 H 0.6451 0.4488 0.02176 0.0
H114 H 0.44855 0.64991 0.02143 0.0
H115 H 0.37305 0.57571 0.00274 0.0
H116 H 0.26913 0.24714 0.63064 0.0
H117 H 0.26759 0.25603 0.43125 0.0
H118 H 0.2244 0.20735 0.62148 0.0
H119 H 0.22286 0.21624 0.42207 0.0
H120 H 0.16931 0.11597 0.43421 0.0
H121 H 0.21373 0.15619 0.44133 0.0
H122 H 0.16496 0.20713 0.58892 0.0
H123 H 0.12079 0.16672 0.58237 0.0
C124 C 0.2592 0.24054 0.5849 0.0
C125 C 0.27176 0.25467 0.53177 0.0
C126 C 0.23352 0.21795 0.57967 0.0
C127 C 0.22009 0.20878 0.52107 0.0
C128 C 0.23289 0.22269 0.46779 0.0
C129 C 0.25839 0.24557 0.47309 0.0
C130 C 0.16816 0.13572 0.46826 0.0
C131 C 0.14162 0.13818 0.5078 0.0
C132 C 0.19343 0.15887 0.47197 0.0
C133 C 0.19283 0.18475 0.51576 0.0
C134 C 0.16621 0.18728 0.55509 0.0
C135 C 0.1408 0.16433 0.55096 0.0
H136 H 0.26036 0.75149 0.14643 0.0
H137 H 0.26632 0.77435 0.95227 0.0
H138 H 0.30273 0.70988 0.13523 0.0
H139 H 0.30822 0.7323 0.94063 0.0
H140 H 0.40598 0.67717 0.95994 0.0
H141 H 0.36486 0.72 0.9712 0.0
H142 H 0.30931 0.65633 0.08655 0.0
H143 H 0.35097 0.61407 0.07733 0.0
C144 C 0.27075 0.74754 0.10136 0.0
C145 C 0.26003 0.76606 0.05031 0.0
C146 C 0.29484 0.72359 0.0948 0.0
C147 C 0.30874 0.71763 0.03694 0.0
C148 C 0.29824 0.73649 0.98595 0.0
C149 C 0.27411 0.76047 -0.00745 0.0
C150 C 0.38512 0.67243 0.98811 0.0
C151 C 0.38179 0.6422 0.01779 0.0
C152 C 0.36138 0.69684 -0.00599 0.0
C153 C 0.33383 0.69161 0.02986 0.0
C154 C 0.33044 0.66131 0.05922 0.0
C155 C 0.35412 0.63692 0.05328 0.0
H156 H 0.76602 0.75563 0.57779 0.0
H157 H 0.75189 0.77427 0.38215 0.0
H158 H 0.80811 0.79816 0.58539 0.0
H159 H 0.79451 0.81616 0.38918 0.0
H160 H 0.84633 0.91224 0.43513 0.0
H161 H 0.80384 0.87038 0.43153 0.0
H162 H 0.86309 0.81012 0.5541 0.0
H163 H 0.90498 0.85273 0.56009 0.0
C164 C 0.77206 0.76868 0.53634 0.0
C165 C 0.75565 0.76176 0.47932 0.0
C166 C 0.7963 0.79294 0.54061 0.0
C167 C 0.80463 0.81069 0.48794 0.0
C168 C 0.78833 0.8034 0.43088 0.0
C169 C 0.76409 0.77926 0.42671 0.0
C170 C 0.85013 0.89028 0.46203 0.0
C171 C 0.87911 0.88589 0.4979 0.0
C172 C 0.82593 0.86606 0.45932 0.0
C173 C 0.83011 0.83677 0.49224 0.0
C174 C 0.85894 0.83248 0.52858 0.0
C175 C 0.88315 0.85676 0.5314 0.0
H176 H 0.76619 0.26711 0.94022 0.0
H177 H 0.74036 0.25103 0.12983 0.0
H178 H 0.72488 0.31012 0.93162 0.0
H179 H 0.6997 0.29464 0.12204 0.0
H180 H 0.60679 0.34932 0.06811 0.0
H181 H 0.64756 0.30599 0.07325 0.0
H182 H 0.71287 0.36495 0.96767 0.0
H183 H 0.67135 0.40767 0.95977 0.0
C184 C 0.75181 0.2729 0.98018 0.0
C185 C 0.75638 0.2557 0.03574 0.0
C186 C 0.72825 0.29769 0.97539 0.0
C187 C 0.70888 0.30584 0.0261 0.0
C188 C 0.71375 0.28867 0.08173 0.0
C189 C 0.73718 0.26384 0.08639 0.0
C190 C 0.62964 0.3529 0.04521 0.0
C191 C 0.6357 0.38201 0.0134 0.0
C192 C 0.65324 0.3282 0.0489 0.0
C193 C 0.6836 0.332 0.02113 0.0
C194 C 0.68965 0.36105 0.9891 0.0
C195 C 0.66598 0.38574 0.98524 0.0
H196 H 0.18398 0.88746 0.16835 0.0
H197 H 0.08876 0.86543 0.08529 0.0
H198 H 0.15796 0.91197 0.2585 0.0
H199 H 0.06281 0.89074 0.1739 0.0
H200 H 0.0985 0.99325 0.35657 0.0
H201 H 0.12673 0.96198 0.2775 0.0
H202 H 0.05332 0.88591 0.28354 0.0
H203 H 0.02465 0.9175 0.36168 0.0
C204 C 0.15753 0.88747 0.1698 0.0
C205 C 0.13837 0.87481 0.11968 0.0
C206 C 0.14263 0.90179 0.221 0.0
C207 C 0.10832 0.90354 0.2231 0.0
C208 C 0.08927 0.88958 0.17405 0.0
C209 C 0.10412 0.87536 0.12299 0.0
C210 C 0.08841 0.96982 0.34115 0.0
C211 C 0.05916 0.95801 0.36498 0.0
C212 C 0.10477 0.95175 0.29624 0.0
C213 C 0.09228 0.92145 0.27424 0.0
C214 C 0.06336 0.90935 0.29899 0.0
C215 C 0.04697 0.92744 0.34384 0.0
H216 H 0.68793 0.63869 0.68597 0.0
H217 H 0.59185 0.66279 0.61119 0.0
H218 H 0.66308 0.6144 0.77652 0.0
H219 H 0.56706 0.63809 0.70011 0.0
H220 H 0.53035 0.61042 0.88462 0.0
H221 H 0.55989 0.64265 0.81071 0.0
H222 H 0.63049 0.56457 0.79307 0.0
H223 H 0.60131 0.5325 0.86826 0.0
C224 C 0.66158 0.6393 0.68955 0.0
C225 C 0.64175 0.65236 0.6416 0.0
C226 C 0.64734 0.62513 0.7409 0.0
C227 C 0.61309 0.62411 0.74527 0.0
C228 C 0.59349 0.63871 0.69859 0.0
C229 C 0.60766 0.65266 0.6474 0.0
C230 C 0.55227 0.60015 0.86528 0.0
C231 C 0.56326 0.56871 0.88175 0.0
C232 C 0.56919 0.61864 0.82287 0.0
C233 C 0.59742 0.6061 0.79573 0.0
C234 C 0.60902 0.57508 0.81366 0.0
C235 C 0.59213 0.55658 0.8563 0.0
H236 H 0.87059 0.0945 0.07247 0.0
H237 H 0.8832 0.18963 0.16085 0.0
H238 H 0.89542 0.06854 0.16346 0.0
H239 H 0.9077 0.16353 0.25299 0.0
H240 H 0.99042 0.10532 0.35877 0.0
H241 H 0.95996 0.13388 0.27662 0.0
H242 H 0.88621 0.05792 0.27337 0.0
H243 H 0.91671 0.02915 0.35477 0.0
C244 C 0.87841 0.1098 0.11178 0.0
C245 C 0.87521 0.14405 0.1096 0.0
C246 C 0.89238 0.09494 0.16406 0.0
C247 C 0.90359 0.11402 0.21529 0.0
C248 C 0.89955 0.14826 0.21389 0.0
C249 C 0.88529 0.16316 0.16156 0.0
C250 C 0.96764 0.09478 0.34069 0.0
C251 C 0.95615 0.0648 0.36288 0.0
C252 C 0.95007 0.11129 0.29403 0.0
C253 C 0.92074 0.09808 0.26849 0.0
C254 C 0.90892 0.0685 0.29167 0.0
C255 C 0.9264 0.05206 0.33839 0.0
H256 H 0.36527 0.43184 0.57399 0.0
H257 H 0.38754 0.33694 0.65078 0.0
H258 H 0.3911 0.4585 0.66478 0.0
H259 H 0.41257 0.36369 0.7431 0.0
H260 H 0.4167 0.49752 0.85738 0.0
H261 H 0.38597 0.46843 0.77488 0.0
H262 H 0.4624 0.39553 0.76663 0.0
H263 H 0.49288 0.42423 0.85019 0.0
C264 C 0.3754 0.4167 0.61072 0.0
C265 C 0.37468 0.38232 0.60509 0.0
C266 C 0.38994 0.43196 0.66302 0.0
C267 C 0.40405 0.41322 0.71103 0.0
C268 C 0.40228 0.37879 0.70647 0.0
C269 C 0.38764 0.36348 0.65403 0.0
C270 C 0.42696 0.47526 0.83806 0.0
C271 C 0.45736 0.46331 0.86004 0.0
C272 C 0.40935 0.45862 0.79068 0.0
C273 C 0.42176 0.4297 0.76411 0.0
C274 C 0.45196 0.41751 0.78669 0.0
C275 C 0.46957 0.43413 0.83418 0.0
H276 H 0.68491 0.6331 0.3685 0.0
H277 H 0.58965 0.6542 0.43979 0.0
H278 H 0.65888 0.60723 0.27613 0.0
H279 H 0.56376 0.62759 0.3491 0.0
H280 H 0.526 0.60396 0.15496 0.0
H281 H 0.55474 0.63403 0.23854 0.0
H282 H 0.62717 0.55711 0.25111 0.0
H283 H 0.59876 0.52721 0.16629 0.0
C284 C 0.65845 0.63246 0.36411 0.0
C285 C 0.63929 0.64548 0.4114 0.0
C286 C 0.64356 0.61737 0.31166 0.0
C287 C 0.60926 0.61525 0.30545 0.0
C288 C 0.59021 0.62908 0.35211 0.0
C289 C 0.60504 0.64405 0.40437 0.0
C290 C 0.54808 0.59343 0.17542 0.0
C291 C 0.55996 0.56305 0.15431 0.0
C292 C 0.56451 0.61066 0.22345 0.0
C293 C 0.59315 0.59789 0.25164 0.0
C294 C 0.60536 0.56777 0.22986 0.0
C295 C 0.58893 0.55052 0.18164 0.0
H296 H 0.83616 0.14361 0.83008 0.0
H297 H 0.93138 0.15944 0.91804 0.0
H298 H 0.86201 0.11876 0.73986 0.0
H299 H 0.95712 0.13411 0.82918 0.0
H300 H 0.99622 0.10754 0.64235 0.0
H301 H 0.96783 0.13996 0.71962 0.0
H302 H 0.89136 0.06684 0.72126 0.0
H303 H 0.91943 0.03462 0.64309 0.0
C304 C 0.8626 0.14227 0.82957 0.0
C305 C 0.88179 0.1532 0.88106 0.0
C306 C 0.87738 0.12776 0.77836 0.0
C307 C 0.9116 0.12423 0.77763 0.0
C308 C 0.93075 0.13666 0.82799 0.0
C309 C 0.91601 0.15096 0.8791 0.0
C310 C 0.9733 0.0984 0.65901 0.0
C311 C 0.96024 0.06834 0.63698 0.0
C312 C 0.95706 0.11698 0.70334 0.0
C313 C 0.92738 0.10595 0.72664 0.0
C314 C 0.91397 0.07622 0.70365 0.0
C315 C 0.93023 0.05761 0.6593 0.0
H316 H 0.36112 0.42888 0.40225 0.0
H317 H 0.38699 0.33285 0.33256 0.0
H318 H 0.38573 0.45399 0.31362 0.0
H319 H 0.411 0.358 0.24213 0.0
H320 H 0.49097 0.42052 0.14853 0.0
H321 H 0.45984 0.39118 0.22474 0.0
H322 H 0.38108 0.46109 0.203 0.0
H323 H 0.41244 0.49084 0.12813 0.0
C324 C 0.37169 0.41313 0.36732 0.0
C325 C 0.37245 0.37896 0.37451 0.0
C326 C 0.38556 0.42748 0.31621 0.0
C327 C 0.40048 0.40801 0.27089 0.0
C328 C 0.40003 0.37367 0.27668 0.0
C329 C 0.38601 0.35925 0.32798 0.0
C330 C 0.46694 0.42952 0.15981 0.0
C331 C 0.45436 0.45825 0.13291 0.0
C332 C 0.44897 0.41253 0.20307 0.0
C333 C 0.41803 0.42389 0.22016 0.0
C334 C 0.40505 0.452 0.19159 0.0
C335 C 0.42303 0.46902 0.14859 0.0
H336 H 0.18655 0.88939 0.85083 0.0
H337 H 0.09048 0.86507 0.91349 0.0
H338 H 0.16161 0.91453 0.75819 0.0
H339 H 0.06562 0.89088 0.82272 0.0
H340 H 0.10074 0.99538 0.6555 0.0
H341 H 0.12942 0.96406 0.73614 0.0
H342 H 0.05815 0.88621 0.71183 0.0
H343 H 0.02909 0.91773 0.63266 0.0
C344 C 0.16017 0.88904 0.84431 0.0
C345 C 0.14041 0.87553 0.88944 0.0
C346 C 0.14588 0.90372 0.79175 0.0
C347 C 0.11163 0.90488 0.78328 0.0
C348 C 0.09206 0.89015 0.82738 0.0
C349 C 0.10628 0.87561 0.87972 0.0
C350 C 0.09128 0.97153 0.66728 0.0
C351 C 0.0624 0.95924 0.63829 0.0
C352 C 0.10788 0.95346 0.71308 0.0
C353 C 0.09597 0.9227 0.73061 0.0
C354 C 0.06766 0.91005 0.70015 0.0
C355 C 0.05103 0.92812 0.65468 0.0
loop_
_geom_bond_atom_site_label_1
_geom_bond_atom_site_label_2
_geom_bond_distance
_geom_bond_site_symmetry_2
_ccdc_geom_bond_type
H0 C5 0.930 . S
H1 C8 0.930 . S
H2 C10 0.930 . S
H3 C4 1.016 . S
C4 H3 1.016 . S
C4 N11 1.286 1_554 S
C5 H0 0.930 . S
C5 C6 1.397 . S
C5 C7 1.361 1_556 S
C6 C5 1.397 . S
C6 C10 1.390 1_556 S
C7 C5 1.361 1_554 S
C7 C8 1.393 . S
C7 N11 1.413 1_554 S
C8 H1 0.930 . S
C8 C7 1.393 . S
C8 C9 1.399 . S
C9 C8 1.399 . S
C9 C10 1.381 . S
C10 H2 0.930 . S
C10 C6 1.390 1_554 S
C10 C9 1.381 . S
N11 C4 1.286 1_556 S
N11 C7 1.413 1_556 S
H12 C17 0.930 . S
H13 C20 0.930 . S
H14 C22 0.930 . S
H15 C16 1.016 . S
C16 H15 1.016 . S
C16 N23 1.286 . S
C17 H12 0.930 . S
C17 C18 1.397 . S
C17 C19 1.361 . S
C18 C17 1.397 . S
C18 C22 1.390 . S
C19 C17 1.361 . S
C19 C20 1.393 . S
C19 N23 1.413 . S
C20 H13 0.930 . S
C20 C19 1.393 . S
C20 C21 1.399 . S
C21 C20 1.399 . S
C21 C22 1.381 . S
C22 H14 0.930 . S
C22 C18 1.390 . S
C22 C21 1.381 . S
N23 C16 1.286 . S
N23 C19 1.413 . S
H24 C29 0.930 . S
H25 C32 0.930 . S
H26 C34 0.930 . S
H27 C28 1.016 . S
C28 H27 1.016 . S
C28 N35 1.286 1_554 S
C29 H24 0.930 . S
C29 C30 1.397 . S
C29 C31 1.361 . S
C30 C29 1.397 . S
C30 C34 1.390 1_556 S
C31 C29 1.361 . S
C31 C32 1.393 1_556 S
C31 N35 1.413 . S
C32 H25 0.930 . S
C32 C31 1.393 1_554 S
C32 C33 1.399 . S
C33 C32 1.399 . S
C33 C34 1.381 . S
C34 H26 0.930 . S
C34 C30 1.390 1_554 S
C34 C33 1.381 . S
N35 C28 1.286 1_556 S
N35 C31 1.413 . S
H36 C41 0.930 . S
H37 C44 0.930 . S
H38 C46 0.930 . S
H39 C40 1.016 . S
C40 H39 1.016 . S
C40 N47 1.286 . S
C41 H36 0.930 . S
C41 C42 1.397 . S
C41 C43 1.361 . S
C42 C41 1.397 . S
C42 C46 1.390 . S
C43 C41 1.361 . S
C43 C44 1.393 . S
C43 N47 1.413 . S
C44 H37 0.930 . S
C44 C43 1.393 . S
C44 C45 1.399 . S
C45 C44 1.399 . S
C45 C46 1.381 . S
C46 H38 0.930 . S
C46 C42 1.390 . S
C46 C45 1.381 . S
N47 C40 1.286 . S
N47 C43 1.413 . S
C48 O64 1.251 1_565 S
C48 O66 1.254 . S
N49 C50 1.333 . S
N49 C54 1.307 . S
N49 Zn55 2.020 . S
C50 N49 1.333 . S
C50 C51 1.379 . S
C50 H68 0.952 . S
C51 C50 1.379 . S
C51 C52 1.390 . S
C51 H78 0.949 . S
C52 C51 1.390 . S
C52 C53 1.357 . S
C53 C52 1.357 . S
C53 C54 1.370 . S
C53 H79 0.950 . S
C54 N49 1.307 . S
C54 C53 1.370 . S
C54 H72 0.948 . S
Zn55 N49 2.020 . S
Zn55 O64 2.039 . S
Zn55 O70 2.034 . S
Zn55 O74 2.025 1_455 S
Zn55 O76 2.024 1_455 S
C56 O75 1.246 . S
C56 O76 1.249 . S
N57 C58 1.307 . S
N57 C59 1.333 . S
N57 Zn63 2.020 . S
C58 N57 1.307 . S
C58 C62 1.370 . S
C58 H69 0.948 . S
C59 N57 1.333 . S
C59 C60 1.379 . S
C59 H67 0.952 . S
C60 C59 1.379 . S
C60 C61 1.390 . S
C60 H80 0.949 . S
C61 C60 1.390 . S
C61 C62 1.357 . S
C62 C58 1.370 . S
C62 C61 1.357 . S
C62 H81 0.950 . S
Zn63 N57 2.020 . S
Zn63 O66 2.025 1_655 S
Zn63 O71 2.024 1_655 S
Zn63 O73 2.039 1_565 S
Zn63 O75 2.034 1_565 S
O64 C48 1.251 1_545 S
O64 Zn55 2.039 . S
C65 O70 1.246 1_565 S
C65 O71 1.249 . S
O66 C48 1.254 . S
O66 Zn63 2.025 1_455 S
H67 C59 0.952 . S
H68 C50 0.952 . S
H69 C58 0.948 . S
O70 Zn55 2.034 . S
O70 C65 1.246 1_545 S
O71 Zn63 2.024 1_455 S
O71 C65 1.249 . S
H72 C54 0.948 . S
O73 Zn63 2.039 1_545 S
O73 C77 1.251 . S
O74 Zn55 2.025 1_655 S
O74 C77 1.254 . S
O75 C56 1.246 . S
O75 Zn63 2.034 1_545 S
O76 Zn55 2.024 1_655 S
O76 C56 1.249 . S
C77 O73 1.251 . S
C77 O74 1.254 . S
H78 C51 0.949 . S
H79 C53 0.950 . S
H80 C60 0.949 . S
H81 C62 0.950 . S
C82 O98 1.251 . S
C82 O100 1.254 . S
N83 C84 1.333 . S
N83 C88 1.307 . S
N83 Zn89 2.020 . S
C84 N83 1.333 . S
C84 C85 1.379 . S
C84 H102 0.952 1_554 S
C85 C84 1.379 . S
C85 C86 1.390 . S
C85 H112 0.949 1_554 S
C86 C85 1.390 . S
C86 C87 1.357 . S
C87 C86 1.357 . S
C87 C88 1.370 . S
C87 H113 0.950 . S
C88 N83 1.307 . S
C88 C87 1.370 . S
C88 H106 0.948 . S
Zn89 N83 2.020 . S
Zn89 O98 2.039 1_554 S
Zn89 O104 2.034 . S
Zn89 O108 2.025 . S
Zn89 O110 2.024 1_554 S
C90 O109 1.246 . S
C90 O110 1.249 . S
N91 C92 1.307 . S
N91 C93 1.333 . S
N91 Zn97 2.020 . S
C92 N91 1.307 . S
C92 C96 1.370 . S
C92 H103 0.948 1_554 S
C93 N91 1.333 . S
C93 C94 1.379 . S
C93 H101 0.952 . S
C94 C93 1.379 . S
C94 C95 1.390 . S
C94 H114 0.949 . S
C95 C94 1.390 . S
C95 C96 1.357 . S
C96 C92 1.370 . S
C96 C95 1.357 . S
C96 H115 0.950 1_554 S
Zn97 N91 2.020 . S
Zn97 O100 2.025 1_554 S
Zn97 O105 2.024 . S
Zn97 O107 2.039 . S
Zn97 O109 2.034 1_554 S
O98 C82 1.251 . S
O98 Zn89 2.039 1_556 S
C99 O104 1.246 . S
C99 O105 1.249 . S
O100 C82 1.254 . S
O100 Zn97 2.025 1_556 S
H101 C93 0.952 . S
H102 C84 0.952 1_556 S
H103 C92 0.948 1_556 S
O104 Zn89 2.034 . S
O104 C99 1.246 . S
O105 Zn97 2.024 . S
O105 C99 1.249 . S
H106 C88 0.948 . S
O107 Zn97 2.039 . S
O107 C111 1.251 . S
O108 Zn89 2.025 . S
O108 C111 1.254 . S
O109 C90 1.246 . S
O109 Zn97 2.034 1_556 S
O110 Zn89 2.024 1_556 S
O110 C90 1.249 . S
C111 O107 1.251 . S
C111 O108 1.254 . S
H112 C85 0.949 1_556 S
H113 C87 0.950 . S
H114 C94 0.949 . S
H115 C96 0.950 1_556 S
H116 C124 0.950 . S
H117 C129 0.950 . S
H118 C126 0.950 . S
H119 C128 0.950 . S
H120 C130 0.950 . S
H121 C132 0.950 . S
H122 C134 0.950 . S
H123 C135 0.950 . S
C124 H116 0.950 . S
C124 C125 1.386 . S
C124 C126 1.391 . S
C125 C124 1.386 . S
C125 C129 1.393 . S
C126 H118 0.950 . S
C126 C124 1.391 . S
C126 C127 1.400 . S
C127 C126 1.400 . S
C127 C128 1.398 . S
C127 C133 1.491 . S
C128 H119 0.950 . S
C128 C127 1.398 . S
C128 C129 1.391 . S
C129 H117 0.950 . S
C129 C125 1.393 . S
C129 C128 1.391 . S
C130 H120 0.950 . S
C130 C131 1.386 . S
C130 C132 1.391 . S
C131 C130 1.386 . S
C131 C135 1.393 . S
C132 H121 0.950 . S
C132 C130 1.391 . S
C132 C133 1.400 . S
C133 C127 1.491 . S
C133 C132 1.400 . S
C133 C134 1.398 . S
C134 H122 0.950 . S
C134 C133 1.398 . S
C134 C135 1.391 . S
C135 H123 0.950 . S
C135 C131 1.393 . S
C135 C134 1.391 . S
H136 C144 0.950 . S
H137 C149 0.950 . S
H138 C146 0.950 . S
H139 C148 0.950 . S
H140 C150 0.950 . S
H141 C152 0.950 . S
H142 C154 0.950 . S
H143 C155 0.950 . S
C144 H136 0.950 . S
C144 C145 1.386 . S
C144 C146 1.391 . S
C145 C144 1.386 . S
C145 C149 1.393 1_554 S
C146 H138 0.950 . S
C146 C144 1.391 . S
C146 C147 1.400 . S
C147 C146 1.400 . S
C147 C148 1.398 1_554 S
C147 C153 1.491 . S
C148 H139 0.950 . S
C148 C147 1.398 1_556 S
C148 C149 1.391 . S
C149 H137 0.950 . S
C149 C145 1.393 1_556 S
C149 C148 1.391 . S
C150 H140 0.950 . S
C150 C151 1.386 1_556 S
C150 C152 1.391 . S
C151 C150 1.386 1_554 S
C151 C155 1.393 . S
C152 H141 0.950 . S
C152 C150 1.391 . S
C152 C153 1.400 1_556 S
C153 C147 1.491 . S
C153 C152 1.400 1_554 S
C153 C154 1.398 . S
C154 H142 0.950 . S
C154 C153 1.398 . S
C154 C155 1.391 . S
C155 H143 0.950 . S
C155 C151 1.393 . S
C155 C154 1.391 . S
H156 C164 0.950 . S
H157 C169 0.950 . S
H158 C166 0.950 . S
H159 C168 0.950 . S
H160 C170 0.950 . S
H161 C172 0.950 . S
H162 C174 0.950 . S
H163 C175 0.950 . S
C164 H156 0.950 . S
C164 C165 1.386 . S
C164 C166 1.391 . S
C165 C164 1.386 . S
C165 C169 1.393 . S
C166 H158 0.950 . S
C166 C164 1.391 . S
C166 C167 1.400 . S
C167 C166 1.400 . S
C167 C168 1.398 . S
C167 C173 1.491 . S
C168 H159 0.950 . S
C168 C167 1.398 . S
C168 C169 1.391 . S
C169 H157 0.950 . S
C169 C165 1.393 . S
C169 C168 1.391 . S
C170 H160 0.950 . S
C170 C171 1.386 . S
C170 C172 1.391 . S
C171 C170 1.386 . S
C171 C175 1.393 . S
C172 H161 0.950 . S
C172 C170 1.391 . S
C172 C173 1.400 . S
C173 C167 1.491 . S
C173 C172 1.400 . S
C173 C174 1.398 . S
C174 H162 0.950 . S
C174 C173 1.398 . S
C174 C175 1.391 . S
C175 H163 0.950 . S
C175 C171 1.393 . S
C175 C174 1.391 . S
H176 C184 0.950 . S
H177 C189 0.950 . S
H178 C186 0.950 . S
H179 C188 0.950 . S
H180 C190 0.950 . S
H181 C192 0.950 . S
H182 C194 0.950 . S
H183 C195 0.950 . S
C184 H176 0.950 . S
C184 C185 1.386 1_556 S
C184 C186 1.391 . S
C185 C184 1.386 1_554 S
C185 C189 1.393 . S
C186 H178 0.950 . S
C186 C184 1.391 . S
C186 C187 1.400 1_556 S
C187 C186 1.400 1_554 S
C187 C188 1.398 . S
C187 C193 1.491 . S
C188 H179 0.950 . S
C188 C187 1.398 . S
C188 C189 1.391 . S
C189 H177 0.950 . S
C189 C185 1.393 . S
C189 C188 1.391 . S
C190 H180 0.950 . S
C190 C191 1.386 . S
C190 C192 1.391 . S
C191 C190 1.386 . S
C191 C195 1.393 1_554 S
C192 H181 0.950 . S
C192 C190 1.391 . S
C192 C193 1.400 . S
C193 C187 1.491 . S
C193 C192 1.400 . S
C193 C194 1.398 1_554 S
C194 H182 0.950 . S
C194 C193 1.398 1_556 S
C194 C195 1.391 . S
C195 H183 0.950 . S
C195 C191 1.393 1_556 S
C195 C194 1.391 . S
H196 C204 0.950 . S
H197 C209 0.950 . S
H198 C206 0.950 . S
H199 C208 0.950 . S
H200 C210 0.950 . S
H201 C212 0.950 . S
H202 C214 0.950 . S
H203 C215 0.950 . S
C204 H196 0.950 . S
C204 C205 1.386 . S
C204 C206 1.391 . S
C205 C204 1.386 . S
C205 C209 1.393 . S
C206 H198 0.950 . S
C206 C204 1.391 . S
C206 C207 1.400 . S
C207 C206 1.400 . S
C207 C208 1.398 . S
C207 C213 1.491 . S
C208 H199 0.950 . S
C208 C207 1.398 . S
C208 C209 1.391 . S
C209 H197 0.950 . S
C209 C205 1.393 . S
C209 C208 1.391 . S
C210 H200 0.950 . S
C210 C211 1.386 . S
C210 C212 1.391 . S
C211 C210 1.386 . S
C211 C215 1.393 . S
C212 H201 0.950 . S
C212 C210 1.391 . S
C212 C213 1.400 . S
C213 C207 1.491 . S
C213 C212 1.400 . S
C213 C214 1.398 . S
C214 H202 0.950 . S
C214 C213 1.398 . S
C214 C215 1.391 . S
C215 H203 0.950 . S
C215 C211 1.393 . S
C215 C214 1.391 . S
H216 C224 0.950 . S
H217 C229 0.950 . S
H218 C226 0.950 . S
H219 C228 0.950 . S
H220 C230 0.950 . S
H221 C232 0.950 . S
H222 C234 0.950 . S
H223 C235 0.950 . S
C224 H216 0.950 . S
C224 C225 1.386 . S
C224 C226 1.391 . S
C225 C224 1.386 . S
C225 C229 1.393 . S
C226 H218 0.950 . S
C226 C224 1.391 . S
C226 C227 1.400 . S
C227 C226 1.400 . S
C227 C228 1.398 . S
C227 C233 1.491 . S
C228 H219 0.950 . S
C228 C227 1.398 . S
C228 C229 1.391 . S
C229 H217 0.950 . S
C229 C225 1.393 . S
C229 C228 1.391 . S
C230 H220 0.950 . S
C230 C231 1.386 . S
C230 C232 1.391 . S
C231 C230 1.386 . S
C231 C235 1.393 . S
C232 H221 0.950 . S
C232 C230 1.391 . S
C232 C233 1.400 . S
C233 C227 1.491 . S
C233 C232 1.400 . S
C233 C234 1.398 . S
C234 H222 0.950 . S
C234 C233 1.398 . S
C234 C235 1.391 . S
C235 H223 0.950 . S
C235 C231 1.393 . S
C235 C234 1.391 . S
H236 C244 0.950 . S
H237 C249 0.950 . S
H238 C246 0.950 . S
H239 C248 0.950 . S
H240 C250 0.950 . S
H241 C252 0.950 . S
H242 C254 0.950 . S
H243 C255 0.950 . S
C244 H236 0.950 . S
C244 C245 1.386 . S
C244 C246 1.391 . S
C245 C244 1.386 . S
C245 C249 1.393 . S
C246 H238 0.950 . S
C246 C244 1.391 . S
C246 C247 1.400 . S
C247 C246 1.400 . S
C247 C248 1.398 . S
C247 C253 1.491 . S
C248 H239 0.950 . S
C248 C247 1.398 . S
C248 C249 1.391 . S
C249 H237 0.950 . S
C249 C245 1.393 . S
C249 C248 1.391 . S
C250 H240 0.950 . S
C250 C251 1.386 . S
C250 C252 1.391 . S
C251 C250 1.386 . S
C251 C255 1.393 . S
C252 H241 0.950 . S
C252 C250 1.391 . S
C252 C253 1.400 . S
C253 C247 1.491 . S
C253 C252 1.400 . S
C253 C254 1.398 . S
C254 H242 0.950 . S
C254 C253 1.398 . S
C254 C255 1.391 . S
C255 H243 0.950 . S
C255 C251 1.393 . S
C255 C254 1.391 . S
H256 C264 0.950 . S
H257 C269 0.950 . S
H258 C266 0.950 . S
H259 C268 0.950 . S
H260 C270 0.950 . S
H261 C272 0.950 . S
H262 C274 0.950 . S
H263 C275 0.950 . S
C264 H256 0.950 . S
C264 C265 1.386 . S
C264 C266 1.391 . S
C265 C264 1.386 . S
C265 C269 1.393 . S
C266 H258 0.950 . S
C266 C264 1.391 . S
C266 C267 1.400 . S
C267 C266 1.400 . S
C267 C268 1.398 . S
C267 C273 1.491 . S
C268 H259 0.950 . S
C268 C267 1.398 . S
C268 C269 1.391 . S
C269 H257 0.950 . S
C269 C265 1.393 . S
C269 C268 1.391 . S
C270 H260 0.950 . S
C270 C271 1.386 . S
C270 C272 1.391 . S
C271 C270 1.386 . S
C271 C275 1.393 . S
C272 H261 0.950 . S
C272 C270 1.391 . S
C272 C273 1.400 . S
C273 C267 1.491 . S
C273 C272 1.400 . S
C273 C274 1.398 . S
C274 H262 0.950 . S
C274 C273 1.398 . S
C274 C275 1.391 . S
C275 H263 0.950 . S
C275 C271 1.393 . S
C275 C274 1.391 . S
H276 C284 0.950 . S
H277 C289 0.950 . S
H278 C286 0.950 . S
H279 C288 0.950 . S
H280 C290 0.950 . S
H281 C292 0.950 . S
H282 C294 0.950 . S
H283 C295 0.950 . S
C284 H276 0.950 . S
C284 C285 1.386 . S
C284 C286 1.391 . S
C285 C284 1.386 . S
C285 C289 1.393 . S
C286 H278 0.950 . S
C286 C284 1.391 . S
C286 C287 1.400 . S
C287 C286 1.400 . S
C287 C288 1.398 . S
C287 C293 1.491 . S
C288 H279 0.950 . S
C288 C287 1.398 . S
C288 C289 1.391 . S
C289 H277 0.950 . S
C289 C285 1.393 . S
C289 C288 1.391 . S
C290 H280 0.950 . S
C290 C291 1.386 . S
C290 C292 1.391 . S
C291 C290 1.386 . S
C291 C295 1.393 . S
C292 H281 0.950 . S
C292 C290 1.391 . S
C292 C293 1.400 . S
C293 C287 1.491 . S
C293 C292 1.400 . S
C293 C294 1.398 . S
C294 H282 0.950 . S
C294 C293 1.398 . S
C294 C295 1.391 . S
C295 H283 0.950 . S
C295 C291 1.393 . S
C295 C294 1.391 . S
H296 C304 0.950 . S
H297 C309 0.950 . S
H298 C306 0.950 . S
H299 C308 0.950 . S
H300 C310 0.950 . S
H301 C312 0.950 . S
H302 C314 0.950 . S
H303 C315 0.950 . S
C304 H296 0.950 . S
C304 C305 1.386 . S
C304 C306 1.391 . S
C305 C304 1.386 . S
C305 C309 1.393 . S
C306 H298 0.950 . S
C306 C304 1.391 . S
C306 C307 1.400 . S
C307 C306 1.400 . S
C307 C308 1.398 . S
C307 C313 1.491 . S
C308 H299 0.950 . S
C308 C307 1.398 . S
C308 C309 1.391 . S
C309 H297 0.950 . S
C309 C305 1.393 . S
C309 C308 1.391 . S
C310 H300 0.950 . S
C310 C311 1.386 . S
C310 C312 1.391 . S
C311 C310 1.386 . S
C311 C315 1.393 . S
C312 H301 0.950 . S
C312 C310 1.391 . S
C312 C313 1.400 . S
C313 C307 1.491 . S
C313 C312 1.400 . S
C313 C314 1.398 . S
C314 H302 0.950 . S
C314 C313 1.398 . S
C314 C315 1.391 . S
C315 H303 0.950 . S
C315 C311 1.393 . S
C315 C314 1.391 . S
H316 C324 0.950 . S
H317 C329 0.950 . S
H318 C326 0.950 . S
H319 C328 0.950 . S
H320 C330 0.950 . S
H321 C332 0.950 . S
H322 C334 0.950 . S
H323 C335 0.950 . S
C324 H316 0.950 . S
C324 C325 1.386 . S
C324 C326 1.391 . S
C325 C324 1.386 . S
C325 C329 1.393 . S
C326 H318 0.950 . S
C326 C324 1.391 . S
C326 C327 1.400 . S
C327 C326 1.400 . S
C327 C328 1.398 . S
C327 C333 1.491 . S
C328 H319 0.950 . S
C328 C327 1.398 . S
C328 C329 1.391 . S
C329 H317 0.950 . S
C329 C325 1.393 . S
C329 C328 1.391 . S
C330 H320 0.950 . S
C330 C331 1.386 . S
C330 C332 1.391 . S
C331 C330 1.386 . S
C331 C335 1.393 . S
C332 H321 0.950 . S
C332 C330 1.391 . S
C332 C333 1.400 . S
C333 C327 1.491 . S
C333 C332 1.400 . S
C333 C334 1.398 . S
C334 H322 0.950 . S
C334 C333 1.398 . S
C334 C335 1.391 . S
C335 H323 0.950 . S
C335 C331 1.393 . S
C335 C334 1.391 . S
H336 C344 0.950 . S
H337 C349 0.950 . S
H338 C346 0.950 . S
H339 C348 0.950 . S
H340 C350 0.950 . S
H341 C352 0.950 . S
H342 C354 0.950 . S
H343 C355 0.950 . S
C344 H336 0.950 . S
C344 C345 1.386 . S
C344 C346 1.391 . S
C345 C344 1.386 . S
C345 C349 1.393 . S
C346 H338 0.950 . S
C346 C344 1.391 . S
C346 C347 1.400 . S
C347 C346 1.400 . S
C347 C348 1.398 . S
C347 C353 1.491 . S
C348 H339 0.950 . S
C348 C347 1.398 . S
C348 C349 1.391 . S
C349 H337 0.950 . S
C349 C345 1.393 . S
C349 C348 1.391 . S
C350 H340 0.950 . S
C350 C351 1.386 . S
C350 C352 1.391 . S
C351 C350 1.386 . S
C351 C355 1.393 . S
C352 H341 0.950 . S
C352 C350 1.391 . S
C352 C353 1.400 . S
C353 C347 1.491 . S
C353 C352 1.400 . S
C353 C354 1.398 . S
C354 H342 0.950 . S
C354 C353 1.398 . S
C354 C355 1.391 . S
C355 H343 0.950 . S
C355 C351 1.393 . S
C355 C354 1.391 . S
C131 C52 1.508 . S
C125 C40 1.508 . S
C145 C4 1.511 . S
C151 C95 1.513 . S
C165 C16 1.496 . S
C171 C61 1.512 . S
C185 C28 1.507 . S
C191 C86 1.506 . S
C211 C48 1.555 . S
C205 C9 1.534 . S
C231 C90 1.540 . S
C225 C18 1.539 . S
C245 C33 1.529 . S
C251 C56 1.548 . S
C265 C45 1.520 . S
C271 C82 1.540 . S
C291 C111 1.481 . S
C285 C21 1.459 . S
C311 C77 1.470 . S
C305 C30 1.463 . S
C331 C99 1.478 . S
C325 C42 1.477 . S
C345 C6 1.461 . S
C351 C65 1.467 . S
