# Generated by pormake.
# Topology zzz, (3,6)-cn, num edge types: 1
# Building blocks:
#     Node 0, Type 0, BuildingBlock: ESEHIV_clean_linker_0, # of connection points: 3
#     Node 1, Type 0, BuildingBlock: ESEHIV_clean_linker_0, # of connection points: 3
#     Node 2, Type 0, BuildingBlock: ESEHIV_clean_linker_0, # of connection points: 3
#     Node 3, Type 0, BuildingBlock: ESEHIV_clean_linker_0, # of connection points: 3
#     Node 4, Type 0, BuildingBlock: ESEHIV_clean_linker_0, # of connection points: 3
#     Node 5, Type 0, BuildingBlock: ESEHIV_clean_linker_0, # of connection points: 3
#     Node 6, Type 0, BuildingBlock: ESEHIV_clean_linker_0, # of connection points: 3
#     Node 7, Type 0, BuildingBlock: ESEHIV_clean_linker_0, # of connection points: 3
#     Node 8, Type 1, BuildingBlock: MIFKUJ_clean_sbu_0, # of connection points: 6
#     Node 9, Type 1, BuildingBlock: MIFKUJ_clean_sbu_0, # of connection points: 6
#     Node 10, Type 1, BuildingBlock: MIFKUJ_clean_sbu_0, # of connection points: 6
#     Node 11, Type 1, BuildingBlock: MIFKUJ_clean_sbu_0, # of connection points: 6
#     Edge 12, Type (0, 1), BuildingBlock: ZUJKAS_clean_linker_0, # of connection points: 2
#     Edge 13, Type (0, 1), BuildingBlock: ZUJKAS_clean_linker_0, # of connection points: 2
#     Edge 14, Type (0, 1), BuildingBlock: ZUJKAS_clean_linker_0, # of connection points: 2
#     Edge 15, Type (0, 1), BuildingBlock: ZUJKAS_clean_linker_0, # of connection points: 2
#     Edge 16, Type (0, 1), BuildingBlock: ZUJKAS_clean_linker_0, # of connection points: 2
#     Edge 17, Type (0, 1), BuildingBlock: ZUJKAS_clean_linker_0, # of connection points: 2
#     Edge 18, Type (0, 1), BuildingBlock: ZUJKAS_clean_linker_0, # of connection points: 2
#     Edge 19, Type (0, 1), BuildingBlock: ZUJKAS_clean_linker_0, # of connection points: 2
#     Edge 20, Type (0, 1), BuildingBlock: ZUJKAS_clean_linker_0, # of connection points: 2
#     Edge 21, Type (0, 1), BuildingBlock: ZUJKAS_clean_linker_0, # of connection points: 2
#     Edge 22, Type (0, 1), BuildingBlock: ZUJKAS_clean_linker_0, # of connection points: 2
#     Edge 23, Type (0, 1), BuildingBlock: ZUJKAS_clean_linker_0, # of connection points: 2
#     Edge 24, Type (0, 1), BuildingBlock: ZUJKAS_clean_linker_0, # of connection points: 2
#     Edge 25, Type (0, 1), BuildingBlock: ZUJKAS_clean_linker_0, # of connection points: 2
#     Edge 26, Type (0, 1), BuildingBlock: ZUJKAS_clean_linker_0, # of connection points: 2
#     Edge 27, Type (0, 1), BuildingBlock: ZUJKAS_clean_linker_0, # of connection points: 2
#     Edge 28, Type (0, 1), BuildingBlock: ZUJKAS_clean_linker_0, # of connection points: 2
#     Edge 29, Type (0, 1), BuildingBlock: ZUJKAS_clean_linker_0, # of connection points: 2
#     Edge 30, Type (0, 1), BuildingBlock: ZUJKAS_clean_linker_0, # of connection points: 2
#     Edge 31, Type (0, 1), BuildingBlock: ZUJKAS_clean_linker_0, # of connection points: 2
#     Edge 32, Type (0, 1), BuildingBlock: ZUJKAS_clean_linker_0, # of connection points: 2
#     Edge 33, Type (0, 1), BuildingBlock: ZUJKAS_clean_linker_0, # of connection points: 2
#     Edge 34, Type (0, 1), BuildingBlock: ZUJKAS_clean_linker_0, # of connection points: 2
#     Edge 35, Type (0, 1), BuildingBlock: ZUJKAS_clean_linker_0, # of connection points: 2
# Relax obj value: 0.309
# Max RMSD: 0.212
# Mean RMSD: 0.192
data_MOF--net-zzz--node1-MIFKUJ_clean_sbu_0--node2-ESEHIV_clean_linker_0--edge1-ZUJKAS_clean_linker_0
_symmetry_space_group_name_H-M    P1
_symmetry_Int_Tables_number       1
_symmetry_cell_setting            triclinic
loop_
_symmetry_equiv_pos_as_xyz
'x, y, z'
_cell_length_a     57.413795
_cell_length_b     58.164394
_cell_length_c     21.432386
_cell_angle_alpha  89.351834
_cell_angle_beta   89.742373
_cell_angle_gamma 91.011312
loop_
_atom_site_label
_atom_site_type_symbol
_atom_site_fract_x
_atom_site_fract_y
_atom_site_fract_z
_atom_type_partial_charge
H0 H 0.77611 0.57631 0.09085 0.0
H1 H 0.71391 0.56952 0.98225 0.0
H2 H 0.70927 0.57428 0.18269 0.0
C3 C 0.75723 0.57584 0.08801 0.0
C4 C 0.74403 0.57648 0.14309 0.0
C5 C 0.74655 0.573 0.03008 0.0
C6 C 0.72226 0.57174 0.02714 0.0
C7 C 0.70862 0.57252 0.08166 0.0
C8 C 0.71958 0.57435 0.14022 0.0
H9 H 0.05072 0.79906 0.09835 0.0
H10 H 0.0573 0.7431 0.97129 0.0
H11 H 0.01285 0.73565 0.1334 0.0
C12 C 0.04684 0.78136 0.08603 0.0
C13 C 0.03137 0.76827 0.12342 0.0
C14 C 0.05594 0.77258 0.03073 0.0
C15 C 0.0503 0.74996 0.01421 0.0
C16 C 0.03503 0.73635 0.05115 0.0
C17 C 0.02505 0.74578 0.1053 0.0
H18 H 0.73472 0.95525 0.15457 0.0
H19 H 0.79186 0.96015 0.02533 0.0
H20 H 0.80433 0.96662 0.22266 0.0
C21 C 0.75333 0.95654 0.14571 0.0
C22 C 0.76851 0.95991 0.19593 0.0
C23 C 0.76149 0.95698 0.08417 0.0
C24 C 0.78538 0.95978 0.07298 0.0
C25 C 0.80095 0.96288 0.12257 0.0
C26 C 0.79251 0.96335 0.18438 0.0
H27 H 0.43089 0.70674 0.11997 0.0
H28 H 0.47249 0.76879 0.1312 0.0
H29 H 0.42574 0.75827 0.97652 0.0
C30 C 0.43544 0.72375 0.10197 0.0
C31 C 0.42613 0.7311 0.04509 0.0
C32 C 0.45213 0.73712 0.13335 0.0
C33 C 0.45935 0.75853 0.10767 0.0
C34 C 0.4492 0.76669 0.05185 0.0
C35 C 0.43277 0.75271 0.02097 0.0
H36 H 0.22809 0.45398 0.02856 0.0
H37 H 0.27262 0.45667 0.18833 0.0
H38 H 0.30213 0.44875 0.00429 0.0
C39 C 0.24531 0.45265 0.04882 0.0
C40 C 0.26459 0.4502 0.00936 0.0
C41 C 0.24803 0.45527 0.11309 0.0
C42 C 0.27043 0.4545 0.13851 0.0
C43 C 0.29009 0.45179 0.09993 0.0
C44 C 0.28713 0.45016 0.03478 0.0
H45 H 0.9557 0.21896 0.0631 0.0
H46 H 0.95052 0.26488 0.21771 0.0
H47 H 0.99403 0.28309 0.05951 0.0
C48 C 0.96019 0.23515 0.085 0.0
C49 C 0.97573 0.25035 0.05447 0.0
C50 C 0.95144 0.23987 0.14446 0.0
C51 C 0.95694 0.26114 0.17135 0.0
C52 C 0.97187 0.27714 0.14073 0.0
C53 C 0.98189 0.27133 0.08274 0.0
H54 H 0.2719 0.07679 0.06836 0.0
H55 H 0.20948 0.06744 0.17705 0.0
H56 H 0.20553 0.07148 0.97645 0.0
C57 C 0.25304 0.07564 0.07116 0.0
C58 C 0.24006 0.07548 0.01587 0.0
C59 C 0.24224 0.0724 0.12933 0.0
C60 C 0.21802 0.06984 0.13213 0.0
C61 C 0.20466 0.06971 0.07751 0.0
C62 C 0.21568 0.07227 0.01889 0.0
H63 H 0.54769 0.29778 0.09313 0.0
H64 H 0.52126 0.22863 0.07547 0.0
H65 H 0.55281 0.25087 0.24789 0.0
C66 C 0.54478 0.28075 0.11321 0.0
C67 C 0.55147 0.27634 0.17474 0.0
C68 C 0.53374 0.26385 0.07744 0.0
C69 C 0.52978 0.24174 0.10319 0.0
C70 C 0.53744 0.23659 0.16441 0.0
C71 C 0.54804 0.25418 0.1998 0.0
Zn72 Zn 0.98107 0.0327 0.56658 0.0
Zn73 Zn 0.01779 0.99102 0.5986 0.0
C74 C 0.98259 0.06427 0.66665 0.0
O75 O 0.96139 0.0556 0.6727 0.0
C76 C 0.01563 0.96215 0.49361 0.0
O77 O 0.03702 0.97051 0.49033 0.0
O78 O 0.95495 0.05024 0.52796 0.0
O79 O 0.00321 0.0257 0.49565 0.0
O80 O 0.03399 0.01703 0.55158 0.0
C81 C 0.94784 0.04719 0.47262 0.0
O82 O 0.95713 0.03102 0.43875 0.0
O83 O 0.99584 0.05624 0.62467 0.0
C84 C 0.03582 0.95063 0.64892 0.0
O85 O 0.01416 0.94456 0.63701 0.0
O86 O 0.04254 0.97118 0.63722 0.0
O87 O 0.99664 0.9981 0.67133 0.0
O88 O 0.96568 0.00717 0.61698 0.0
O89 O 0.00208 0.96971 0.53561 0.0
C90 C 0.02519 0.02449 0.50109 0.0
C91 C 0.97472 1.00009 0.66745 0.0
Zn92 Zn 0.46598 1.00134 0.58989 0.0
Zn93 Zn 0.52928 1.00112 0.61963 0.0
C94 C 0.43948 0.01026 0.69597 0.0
O95 O 0.43671 0.98793 0.69 0.0
C96 C 0.56653 0.00823 0.53763 0.0
O97 O 0.56528 0.02787 0.56707 0.0
O98 O 0.43682 0.99975 0.53917 0.0
O99 O 0.48873 0.01803 0.53204 0.0
O100 O 0.51487 0.03186 0.59723 0.0
C101 C 0.42908 0.01977 0.52862 0.0
O102 O 0.44131 0.03771 0.54731 0.0
O103 O 0.45452 0.0207 0.66165 0.0
C104 C 0.56389 0.98622 0.69425 0.0
O105 O 0.558 0.96862 0.65945 0.0
O106 O 0.55262 0.00476 0.68847 0.0
O107 O 0.50987 0.97333 0.64794 0.0
O108 O 0.47284 0.9696 0.62189 0.0
O109 O 0.55075 0.99298 0.54796 0.0
C110 C 0.50267 0.03405 0.54821 0.0
C111 C 0.49085 0.96182 0.64827 0.0
Zn112 Zn 0.51846 0.48649 0.58859 0.0
Zn113 Zn 0.47904 0.51845 0.64117 0.0
C114 C 0.52351 0.44931 0.67314 0.0
O115 O 0.54504 0.4571 0.66721 0.0
C116 C 0.47544 0.55211 0.54643 0.0
O117 O 0.45446 0.54271 0.54807 0.0
O118 O 0.54495 0.47248 0.54188 0.0
O119 O 0.49377 0.49337 0.5241 0.0
O120 O 0.46419 0.49355 0.58959 0.0
C121 C 0.54881 0.47475 0.48377 0.0
O122 O 0.53585 0.48866 0.4506 0.0
O123 O 0.50736 0.4601 0.64542 0.0
C124 C 0.46143 0.54928 0.72563 0.0
O125 O 0.48397 0.55361 0.7266 0.0
O126 O 0.45373 0.5335 0.69035 0.0
O127 O 0.5029 0.50967 0.70596 0.0
O128 O 0.53246 0.51174 0.64103 0.0
O129 O 0.49091 0.54409 0.58269 0.0
C130 C 0.47213 0.49048 0.53494 0.0
C131 C 0.5244 0.51357 0.69596 0.0
Zn132 Zn 0.04161 0.50896 0.57772 0.0
Zn133 Zn 0.97357 0.51724 0.5644 0.0
C134 C 0.08927 0.51046 0.61554 0.0
O135 O 0.08772 0.53106 0.59026 0.0
C136 C 0.94866 0.52282 0.4543 0.0
O137 O 0.94781 0.5004 0.46254 0.0
O138 O 0.05322 0.52472 0.49955 0.0
O139 O 0.02352 0.48049 0.55151 0.0
O140 O 0.98568 0.48619 0.53927 0.0
C141 C 0.04647 0.51921 0.44529 0.0
O142 O 0.02751 0.50648 0.43943 0.0
O143 O 0.07123 0.49743 0.61742 0.0
C144 C 0.93228 0.53048 0.61605 0.0
O145 O 0.94203 0.54979 0.59584 0.0
O146 O 0.94324 0.51183 0.60962 0.0
O147 O 0.99109 0.53743 0.62522 0.0
O148 O 0.02888 0.53202 0.63803 0.0
O149 O 0.96226 0.53467 0.48848 0.0
C150 C 0.00334 0.47335 0.53581 0.0
C151 C 0.01023 0.54226 0.65202 0.0
H152 H 0.18265 0.02896 0.09768 0.0
H153 H 0.1451 0.02362 0.15022 0.0
H154 H 0.13292 0.09641 0.13342 0.0
H155 H 0.17092 0.10174 0.08186 0.0
H156 H 0.13224 0.08258 0.25174 0.0
H157 H 0.07613 0.02271 0.11936 0.0
H158 H 0.10477 0.01145 0.12894 0.0
H159 H 0.1009 0.03753 0.08431 0.0
C160 C 0.17135 0.04358 0.10219 0.0
C161 C 0.17937 0.06568 0.08487 0.0
C162 C 0.14987 0.04055 0.13238 0.0
C163 C 0.13602 0.05958 0.14553 0.0
C164 C 0.14321 0.08145 0.12343 0.0
H165 H 0.01229 0.04079 0.38603 0.0
H166 H 0.03759 0.05102 0.29738 0.0
C167 C 0.16477 0.08448 0.09337 0.0
C168 C 0.11665 0.05718 0.19161 0.0
H169 H 0.06901 0.024 0.23108 0.0
C170 C 0.11815 0.07007 0.24655 0.0
C171 C 0.09818 0.04097 0.18505 0.0
C172 C 0.09475 0.02756 0.12588 0.0
C173 C 0.10244 0.06643 0.29613 0.0
C174 C 0.08498 0.0491 0.29128 0.0
C175 C 0.08266 0.03702 0.23517 0.0
C176 C 0.06958 0.04275 0.34482 0.0
C177 C 0.10487 0.08101 0.35361 0.0
C178 C 0.07916 0.03442 0.40068 0.0
C179 C 0.06479 0.0286 0.45149 0.0
C180 C 0.04049 0.03086 0.44737 0.0
C181 C 0.03093 0.03894 0.39099 0.0
C182 C 0.04534 0.04475 0.34017 0.0
H183 H 0.11418 0.09752 0.3431 0.0
H184 H 0.08757 0.08482 0.37406 0.0
H185 H 0.1151 0.07158 0.38912 0.0
H186 H 0.09779 0.0323 0.40488 0.0
H187 H 0.07274 0.02224 0.49388 0.0
H188 H 0.56828 0.21296 0.23621 0.0
H189 H 0.56154 0.17732 0.2947 0.0
H190 H 0.49273 0.17113 0.21609 0.0
H191 H 0.49902 0.2076 0.15917 0.0
H192 H 0.49179 0.16456 0.34073 0.0
H193 H 0.56163 0.1115 0.24236 0.0
H194 H 0.57294 0.13822 0.27134 0.0
H195 H 0.55303 0.13826 0.2066 0.0
C196 C 0.55171 0.20401 0.23104 0.0
C197 C 0.53413 0.21328 0.19322 0.0
C198 C 0.54799 0.18341 0.264 0.0
C199 C 0.52675 0.17127 0.25924 0.0
C200 C 0.50933 0.18011 0.22025 0.0
H201 H 0.47574 0.04649 0.44897 0.0
H202 H 0.48095 0.07968 0.37907 0.0
C203 C 0.51301 0.20086 0.18732 0.0
C204 C 0.52233 0.15029 0.29841 0.0
H205 H 0.54525 0.09846 0.3402 0.0
C206 C 0.50332 0.14999 0.33998 0.0
C207 C 0.53737 0.13122 0.29766 0.0
C208 C 0.55723 0.12968 0.25161 0.0
C209 C 0.49939 0.13155 0.38195 0.0
C210 C 0.51483 0.11289 0.38235 0.0
C211 C 0.5336 0.11295 0.34025 0.0
C212 C 0.51156 0.09299 0.42569 0.0
C213 C 0.47908 0.13234 0.42672 0.0
C214 C 0.52715 0.08939 0.47499 0.0
C215 C 0.52415 0.07048 0.51554 0.0
C216 C 0.50568 0.05462 0.50689 0.0
C217 C 0.49016 0.05831 0.45716 0.0
C218 C 0.49305 0.07732 0.41714 0.0
H219 H 0.47102 0.14957 0.42752 0.0
H220 H 0.46559 0.11955 0.41255 0.0
H221 H 0.48472 0.12774 0.47469 0.0
H222 H 0.54159 0.10129 0.48221 0.0
H223 H 0.53644 0.06815 0.55316 0.0
H224 H 0.30415 0.42682 0.20046 0.0
H225 H 0.33986 0.43226 0.26063 0.0
H226 H 0.36458 0.48278 0.12601 0.0
H227 H 0.32856 0.47761 0.06582 0.0
H228 H 0.38869 0.42999 0.23299 0.0
H229 H 0.3599 0.518 0.29304 0.0
H230 H 0.34058 0.49702 0.25824 0.0
H231 H 0.36229 0.51169 0.21135 0.0
C232 C 0.31737 0.43883 0.18318 0.0
C233 C 0.3135 0.452 0.12892 0.0
C234 C 0.33778 0.44186 0.21744 0.0
C235 C 0.35467 0.45818 0.1983 0.0
C236 C 0.35159 0.4703 0.14193 0.0
H237 H 0.48314 0.48152 0.41311 0.0
H238 H 0.45627 0.47365 0.32723 0.0
C239 C 0.33113 0.46721 0.10736 0.0
C240 C 0.37428 0.46375 0.2406 0.0
H241 H 0.39418 0.50507 0.34002 0.0
C242 C 0.39014 0.44649 0.25584 0.0
C243 C 0.37582 0.4852 0.27097 0.0
C244 C 0.35869 0.50405 0.25815 0.0
C245 C 0.40731 0.45 0.30149 0.0
C246 C 0.40867 0.47136 0.33226 0.0
C247 C 0.39311 0.48875 0.31612 0.0
C248 C 0.42515 0.47562 0.38406 0.0
C249 C 0.42325 0.43056 0.3183 0.0
C250 C 0.41654 0.4796 0.44427 0.0
C251 C 0.43179 0.48414 0.4934 0.0
C252 C 0.45601 0.48495 0.48317 0.0
C253 C 0.46459 0.48095 0.42268 0.0
C254 C 0.44929 0.47635 0.37356 0.0
H255 H 0.41718 0.41394 0.2985 0.0
H256 H 0.44096 0.43449 0.29972 0.0
H257 H 0.42457 0.4286 0.36976 0.0
H258 H 0.39795 0.47919 0.45326 0.0
H259 H 0.42457 0.48722 0.53925 0.0
H260 H 0.01467 0.29745 0.16227 0.0
H261 H 0.0229 0.33138 0.22674 0.0
H262 H 0.94924 0.34024 0.25528 0.0
H263 H 0.94096 0.30668 0.19086 0.0
H264 H 0.97505 0.38194 0.22909 0.0
H265 H 0.01424 0.32994 0.41992 0.0
H266 H 0.02629 0.32652 0.34303 0.0
H267 H 0.9969 0.31714 0.35897 0.0
C268 C 0.00027 0.30692 0.18142 0.0
C269 C 0.97718 0.29935 0.17188 0.0
C270 C 0.00499 0.32612 0.21875 0.0
C271 C 0.98668 0.33809 0.24674 0.0
C272 C 0.96363 0.33119 0.2346 0.0
H273 H 0.96335 0.45165 0.49581 0.0
H274 H 0.96021 0.41852 0.42705 0.0
C275 C 0.95894 0.312 0.19783 0.0
C276 C 0.99122 0.35741 0.29017 0.0
H277 H 0.01191 0.36985 0.43555 0.0
C278 C 0.98322 0.37934 0.2741 0.0
C279 C 0.00188 0.35398 0.3489 0.0
C280 C 0.01022 0.33062 0.36928 0.0
C281 C 0.98553 0.39792 0.31513 0.0
C282 C 0.99558 0.39436 0.37465 0.0
C283 C 0.00406 0.37253 0.39019 0.0
C284 C 0.99735 0.4131 0.4213 0.0
C285 C 0.97743 0.42127 0.29393 0.0
C286 C 0.01916 0.4203 0.44393 0.0
C287 C 0.02101 0.43909 0.48404 0.0
C288 C 0.00105 0.45108 0.5025 0.0
C289 C 0.97911 0.443 0.48235 0.0
C290 C 0.97729 0.42416 0.44246 0.0
H291 H 0.97649 0.42257 0.24224 0.0
H292 H 0.95972 0.42419 0.31287 0.0
H293 H 0.98922 0.43515 0.311 0.0
H294 H 0.03487 0.41191 0.42877 0.0
H295 H 0.03821 0.44478 0.49842 0.0
H296 H 0.8217 0.00351 0.09182 0.0
H297 H 0.85725 0.00834 0.029 0.0
H298 H 0.8704 0.93585 0.04876 0.0
H299 H 0.83453 0.93098 0.11074 0.0
H300 H 0.90559 0.99786 0.03473 0.0
H301 H 0.857 0.94528 0.86162 0.0
H302 H 0.84336 0.9564 0.93067 0.0
H303 H 0.86149 0.93159 0.93603 0.0
C304 C 0.8328 0.98886 0.08509 0.0
C305 C 0.82567 0.96694 0.10649 0.0
C306 C 0.853 0.99157 0.0489 0.0
C307 C 0.86621 0.97237 0.03325 0.0
C308 C 0.86027 0.95083 0.05967 0.0
H309 H 0.98746 0.98189 0.78065 0.0
H310 H 0.96261 0.97441 0.87204 0.0
C311 C 0.84 0.94809 0.09568 0.0
C312 C 0.88392 0.97446 0.98276 0.0
H313 H 0.8941 0.95911 0.83183 0.0
C314 C 0.90326 0.98923 0.99055 0.0
C315 C 0.88053 0.96353 0.9247 0.0
C316 C 0.8594 0.94846 0.91223 0.0
C317 C 0.91925 0.99347 0.94162 0.0
C318 C 0.9159 0.98241 0.88374 0.0
C319 C 0.8967 0.96745 0.87634 0.0
C320 C 0.93125 0.98702 0.8289 0.0
C321 C 0.93906 0.01041 0.95148 0.0
C322 C 0.92177 0.99605 0.77374 0.0
C323 C 0.93584 1.00011 0.72127 0.0
C324 C 0.95973 0.9952 0.72276 0.0
C325 C 0.96916 0.98599 0.77798 0.0
C326 C 0.95503 0.98185 0.83046 0.0
H327 H 0.93615 0.02124 0.99307 0.0
H328 H 0.95541 1.00086 0.95871 0.0
H329 H 0.94149 0.02182 0.90999 0.0
H330 H 0.90344 1.00009 0.77141 0.0
H331 H 0.92798 0.00728 0.67968 0.0
H332 H 0.42057 0.79951 0.00591 0.0
H333 H 0.4312 0.83259 0.93976 0.0
H334 H 0.50392 0.81771 0.96343 0.0
H335 H 0.49334 0.7842 0.02957 0.0
H336 H 0.4887 0.86817 0.96864 0.0
H337 H 0.4594 0.8202 0.75955 0.0
H338 H 0.43934 0.82003 0.82426 0.0
H339 H 0.46681 0.80603 0.83206 0.0
C340 C 0.43886 0.80343 0.99774 0.0
C341 C 0.45612 0.7891 0.0224 0.0
C342 C 0.44489 0.82231 0.95987 0.0
C343 C 0.46831 0.82733 0.94583 0.0
C344 C 0.48573 0.81401 0.9735 0.0
H345 H 0.52583 0.93909 0.70886 0.0
H346 H 0.52213 0.90586 0.77913 0.0
C347 C 0.47968 0.79499 0.01155 0.0
C348 C 0.4742 0.84569 0.89943 0.0
H349 H 0.46775 0.85997 0.74546 0.0
C350 C 0.4844 0.86636 0.9197 0.0
C351 C 0.46846 0.84324 0.83569 0.0
C352 C 0.45806 0.82114 0.81119 0.0
C353 C 0.48822 0.88501 0.87822 0.0
C354 C 0.48212 0.88269 0.8145 0.0
C355 C 0.47239 0.86178 0.79418 0.0
C356 C 0.4848 0.90201 0.76866 0.0
C357 C 0.49783 0.90732 0.90357 0.0
C358 C 0.46525 0.91027 0.73688 0.0
C359 C 0.46735 0.9291 0.69584 0.0
C360 C 0.48909 0.9401 0.68559 0.0
C361 C 0.5088 0.9312 0.71572 0.0
C362 C 0.50668 0.91229 0.75652 0.0
H363 H 0.49603 0.9081 0.95514 0.0
H364 H 0.51665 0.90887 0.89189 0.0
H365 H 0.48888 0.92228 0.88257 0.0
H366 H 0.4482 0.90251 0.74507 0.0
H367 H 0.45178 0.93545 0.67365 0.0
H368 H 0.68027 0.60006 0.01526 0.0
H369 H 0.64202 0.58951 0.97476 0.0
H370 H 0.64148 0.52779 0.08847 0.0
H371 H 0.68028 0.53824 0.12818 0.0
H372 H 0.63662 0.51802 0.96885 0.0
H373 H 0.57464 0.58632 0.02274 0.0
H374 H 0.60094 0.5987 0.99075 0.0
H375 H 0.60176 0.58334 0.06425 0.0
C376 C 0.67151 0.58475 0.03361 0.0
C377 C 0.68311 0.56997 0.07485 0.0
C378 C 0.64958 0.57875 0.01063 0.0
C379 C 0.63871 0.55791 0.02879 0.0
C380 C 0.64946 0.54402 0.07406 0.0
H381 H 0.5127 0.51892 0.81893 0.0
H382 H 0.53872 0.52774 0.90594 0.0
C383 C 0.67151 0.55006 0.09715 0.0
C384 C 0.61861 0.54902 0.99221 0.0
H385 H 0.56738 0.5654 0.92622 0.0
C386 C 0.62122 0.52816 0.96073 0.0
C387 C 0.59837 0.56204 0.98178 0.0
C388 C 0.59367 0.58371 0.01729 0.0
C389 C 0.60496 0.52075 0.91629 0.0
C390 C 0.58583 0.5348 0.90187 0.0
C391 C 0.58233 0.55486 0.93632 0.0
C392 C 0.56997 0.52951 0.84923 0.0
C393 C 0.6087 0.4981 0.88437 0.0
C394 C 0.57885 0.52799 0.78827 0.0
C395 C 0.56407 0.5229 0.73847 0.0
C396 C 0.54005 0.51941 0.74854 0.0
C397 C 0.53114 0.52138 0.80954 0.0
C398 C 0.54596 0.52645 0.85937 0.0
H399 H 0.61926 0.48637 0.91363 0.0
H400 H 0.59186 0.48937 0.87359 0.0
H401 H 0.61829 0.50125 0.83994 0.0
H402 H 0.59725 0.53084 0.77913 0.0
H403 H 0.5715 0.52167 0.69211 0.0
H404 H 0.06532 0.70194 0.03179 0.0
H405 H 0.05824 0.66658 0.97355 0.0
H406 H 0.98541 0.68269 0.95967 0.0
H407 H 0.99245 0.71811 0.01919 0.0
H408 H 0.99506 0.63392 0.97716 0.0
H409 H 0.04673 0.67419 0.78437 0.0
H410 H 0.06181 0.67315 0.85753 0.0
H411 H 0.03623 0.69035 0.84983 0.0
C412 C 0.04768 0.69759 0.0178 0.0
C413 C 0.02943 0.71272 0.02982 0.0
C414 C 0.04368 0.6775 0.98415 0.0
C415 C 0.02141 0.67226 0.96101 0.0
C416 C 0.00277 0.68647 0.9768 0.0
H417 H 0.97378 0.56725 0.69749 0.0
H418 H 0.97525 0.59803 0.77435 0.0
C419 C 0.00675 0.7066 0.01105 0.0
C420 C 0.01824 0.65313 0.91615 0.0
H421 H 0.03653 0.63478 0.77345 0.0
C422 C 0.00398 0.63412 0.93244 0.0
C423 C 0.02977 0.65351 0.85757 0.0
C424 C 0.04432 0.67397 0.83585 0.0
C425 C 0.00163 0.61512 0.89257 0.0
C426 C 0.01361 0.61532 0.83462 0.0
C427 C 0.02751 0.63453 0.81804 0.0
C428 C 0.01232 0.59577 0.79045 0.0
C429 C 0.98691 0.59471 0.91351 0.0
C430 C 0.03271 0.58444 0.77307 0.0
C431 C 0.03199 0.56693 0.72883 0.0
C432 C 0.01084 0.56042 0.7005 0.0
C433 C 0.99038 0.57173 0.71831 0.0
C434 C 0.99114 0.58924 0.76269 0.0
H435 H 0.98344 0.59489 0.96454 0.0
H436 H 0.96991 0.5951 0.88909 0.0
H437 H 0.99549 0.57835 0.9017 0.0
H438 H 0.04928 0.58927 0.79356 0.0
H439 H 0.0481 0.55867 0.71639 0.0
H440 H 0.91403 0.24408 0.22502 0.0
H441 H 0.89597 0.21356 0.29043 0.0
H442 H 0.94194 0.16406 0.20989 0.0
H443 H 0.96059 0.19409 0.1471 0.0
H444 H 0.88845 0.15163 0.22775 0.0
H445 H 0.93873 0.1821 0.43401 0.0
H446 H 0.92277 0.20188 0.38566 0.0
H447 H 0.94891 0.18941 0.35639 0.0
C448 C 0.9202 0.22666 0.22115 0.0
C449 C 0.93871 0.22156 0.18046 0.0
C450 C 0.90972 0.20928 0.25805 0.0
C451 C 0.91755 0.18663 0.25428 0.0
C452 C 0.93545 0.18142 0.21257 0.0
H453 H 0.94164 0.05586 0.34863 0.0
H454 H 0.92422 0.08975 0.30234 0.0
C455 C 0.94603 0.19866 0.17644 0.0
C456 C 0.90932 0.16836 0.29765 0.0
H457 H 0.9266 0.14344 0.43362 0.0
C458 C 0.89605 0.15003 0.27381 0.0
C459 C 0.91901 0.16651 0.35784 0.0
C460 C 0.93315 0.18597 0.3855 0.0
C461 C 0.89402 0.12903 0.30648 0.0
C462 C 0.90624 0.12622 0.36318 0.0
C463 C 0.91738 0.14542 0.3899 0.0
C464 C 0.91143 0.10321 0.38978 0.0
C465 C 0.87971 0.10982 0.2784 0.0
C466 C 0.90993 0.09918 0.45441 0.0
C467 C 0.92049 0.08002 0.48121 0.0
C468 C 0.93258 0.06447 0.44375 0.0
C469 C 0.93238 0.06747 0.3787 0.0
C470 C 0.92215 0.0868 0.35204 0.0
H471 H 0.86416 0.11676 0.25452 0.0
H472 H 0.89028 0.10104 0.24264 0.0
H473 H 0.87388 0.097 0.3142 0.0
H474 H 0.90183 0.11159 0.48453 0.0
H475 H 0.92021 0.07803 0.53153 0.0
H476 H 0.28076 0.09727 0.16451 0.0
H477 H 0.30851 0.08701 0.24622 0.0
H478 H 0.26421 0.02985 0.30284 0.0
H479 H 0.23657 0.03963 0.22059 0.0
H480 H 0.2896 0.06017 0.40445 0.0
H481 H 0.34322 0.0222 0.21585 0.0
H482 H 0.33266 0.05076 0.20201 0.0
H483 H 0.31238 0.027 0.20749 0.0
C484 C 0.27677 0.08273 0.19499 0.0
C485 C 0.25664 0.06911 0.18576 0.0
C486 C 0.29253 0.07699 0.24169 0.0
C487 C 0.28835 0.05762 0.27985 0.0
C488 C 0.26757 0.04491 0.27375 0.0
H489 H 0.40102 0.98758 0.47235 0.0
H490 H 0.36408 0.99436 0.41861 0.0
C491 C 0.2518 0.05059 0.22692 0.0
C492 C 0.30687 0.04918 0.32087 0.0
H493 H 0.36007 0.0242 0.31603 0.0
C494 C 0.30496 0.05215 0.38546 0.0
C495 C 0.32656 0.03837 0.29559 0.0
C496 C 0.32891 0.03418 0.22648 0.0
C497 C 0.3229 0.04534 0.42552 0.0
C498 C 0.34312 0.03553 0.39981 0.0
C499 C 0.34451 0.03174 0.33546 0.0
C500 C 0.3639 0.03082 0.43768 0.0
C501 C 0.32021 0.04886 0.4948 0.0
C502 C 0.37594 0.04911 0.46566 0.0
C503 C 0.397 0.04535 0.49571 0.0
C504 C 0.40645 0.02323 0.49812 0.0
C505 C 0.39416 0.0048 0.47107 0.0
C506 C 0.37307 0.00862 0.44065 0.0
H507 H 0.30158 0.04998 0.50853 0.0
H508 H 0.32828 0.03469 0.5218 0.0
H509 H 0.32905 0.06523 0.50777 0.0
H510 H 0.36941 0.06644 0.4626 0.0
H511 H 0.40599 0.0599 0.51637 0.0
H512 H 0.58827 0.27607 0.25687 0.0
H513 H 0.60328 0.30864 0.31832 0.0
H514 H 0.55063 0.35204 0.23953 0.0
H515 H 0.53524 0.31987 0.17992 0.0
H516 H 0.60429 0.36836 0.24233 0.0
H517 H 0.56098 0.34045 0.46471 0.0
H518 H 0.57608 0.32031 0.41619 0.0
H519 H 0.54874 0.33154 0.39125 0.0
C520 C 0.57988 0.29255 0.25305 0.0
C521 C 0.56072 0.29548 0.21312 0.0
C522 C 0.58857 0.3111 0.28766 0.0
C523 C 0.57817 0.33268 0.28258 0.0
C524 C 0.55905 0.33555 0.24319 0.0
H525 H 0.55067 0.46451 0.35993 0.0
H526 H 0.56762 0.43051 0.31445 0.0
C527 C 0.55033 0.31715 0.20909 0.0
C528 C 0.58602 0.35244 0.3199 0.0
H529 H 0.57145 0.37953 0.45391 0.0
C530 C 0.59782 0.37069 0.28944 0.0
C531 C 0.57777 0.35522 0.38136 0.0
C532 C 0.5652 0.3359 0.41579 0.0
C533 C 0.59988 0.39236 0.31719 0.0
C534 C 0.58926 0.39587 0.37592 0.0
C535 C 0.57949 0.37694 0.40871 0.0
C536 C 0.58439 0.41917 0.39956 0.0
C537 C 0.61248 0.41146 0.28207 0.0
C538 C 0.58849 0.42448 0.46231 0.0
C539 C 0.57838 0.44376 0.48878 0.0
C540 C 0.56401 0.45806 0.45287 0.0
C541 C 0.56167 0.45388 0.3888 0.0
C542 C 0.57158 0.43447 0.36254 0.0
H543 H 0.62725 0.4046 0.25474 0.0
H544 H 0.60033 0.41949 0.24846 0.0
H545 H 0.61924 0.42491 0.31397 0.0
H546 H 0.59826 0.41291 0.4918 0.0
H547 H 0.58066 0.44665 0.53824 0.0
H548 H 0.2047 0.43516 0.11127 0.0
H549 H 0.16935 0.44897 0.16155 0.0
H550 H 0.2096 0.50207 0.25251 0.0
H551 H 0.24495 0.4888 0.20081 0.0
H552 H 0.15758 0.45451 0.28613 0.0
H553 H 0.15971 0.53831 0.15911 0.0
H554 H 0.17759 0.51451 0.1368 0.0
H555 H 0.18575 0.53212 0.2018 0.0
C556 C 0.20602 0.4497 0.14227 0.0
C557 C 0.22752 0.46104 0.15169 0.0
C558 C 0.18585 0.45755 0.17094 0.0
C559 C 0.18683 0.47688 0.20938 0.0
C560 C 0.20845 0.48746 0.22174 0.0
H561 H 0.08784 0.54314 0.44239 0.0
H562 H 0.12114 0.53491 0.37553 0.0
C563 C 0.22865 0.47964 0.19297 0.0
C564 C 0.16512 0.48603 0.23594 0.0
H565 H 0.13088 0.53348 0.23838 0.0
C566 C 0.15166 0.47171 0.27543 0.0
C567 C 0.15746 0.50848 0.22154 0.0
C568 C 0.17074 0.52421 0.17705 0.0
C569 C 0.13093 0.4794 0.30213 0.0
C570 C 0.12335 0.50188 0.28809 0.0
C571 C 0.13674 0.51622 0.2485 0.0
C572 C 0.10219 0.51096 0.31744 0.0
C573 C 0.11758 0.46363 0.34647 0.0
C574 C 0.08024 0.50132 0.30402 0.0
C575 C 0.06112 0.506 0.34204 0.0
C576 C 0.06382 0.52028 0.39415 0.0
C577 C 0.08526 0.53186 0.40304 0.0
C578 C 0.10433 0.52719 0.36494 0.0
H579 H 0.12791 0.44852 0.3609 0.0
H580 H 0.11229 0.47303 0.38892 0.0
H581 H 0.10152 0.45726 0.32326 0.0
H582 H 0.07828 0.48898 0.26684 0.0
H583 H 0.04482 0.49694 0.33359 0.0
H584 H 0.09187 0.80269 0.05622 0.0
H585 H 0.10652 0.834 0.98823 0.0
H586 H 0.06232 0.8096 0.83986 0.0
H587 H 0.04814 0.77817 0.90669 0.0
H588 H 0.10395 0.82816 0.79532 0.0
H589 H 0.06198 0.88657 0.96562 0.0
H590 H 0.08526 0.86919 0.99408 0.0
H591 H 0.05826 0.8558 0.97091 0.0
C592 C 0.08576 0.80376 0.00855 0.0
C593 C 0.06868 0.7882 0.98688 0.0
C594 C 0.09407 0.82165 0.9699 0.0
C595 C 0.08507 0.82444 0.90956 0.0
C596 C 0.06949 0.8078 0.88631 0.0
H597 H 0.03233 0.90436 0.6411 0.0
H598 H 0.05382 0.87591 0.70045 0.0
C599 C 0.0614 0.7898 0.92455 0.0
C600 C 0.08904 0.84596 0.87312 0.0
H601 H 0.07157 0.90172 0.86802 0.0
C602 C 0.09744 0.84442 0.8117 0.0
C603 C 0.08069 0.86725 0.89469 0.0
C604 C 0.0709 0.86993 0.95972 0.0
C605 C 0.09593 0.86305 0.76984 0.0
C606 C 0.08565 0.88359 0.78995 0.0
C607 C 0.07944 0.88589 0.85286 0.0
C608 C 0.07659 0.90074 0.74517 0.0
C609 C 0.1041 0.86016 0.70349 0.0
C610 C 0.08234 0.92422 0.75025 0.0
C611 C 0.07 0.94063 0.71605 0.0
C612 C 0.05143 0.93372 0.67766 0.0
C613 C 0.04646 0.91018 0.67069 0.0
C614 C 0.05894 0.89386 0.704 0.0
H615 H 0.11867 0.84787 0.70109 0.0
H616 H 0.08954 0.85308 0.6753 0.0
H617 H 0.10988 0.87685 0.6824 0.0
H618 H 0.09567 0.92986 0.78252 0.0
H619 H 0.0741 0.95871 0.72231 0.0
H620 H 0.76138 0.98626 0.98397 0.0
H621 H 0.7294 0.99219 0.91074 0.0
H622 H 0.69108 0.9355 0.99565 0.0
H623 H 0.72306 0.92933 0.06881 0.0
H624 H 0.70434 0.96241 0.82502 0.0
H625 H 0.65016 0.9934 0.02128 0.0
H626 H 0.68133 0.99036 0.0269 0.0
H627 H 0.66241 0.96551 0.03374 0.0
C628 C 0.74644 0.97463 0.98584 0.0
C629 C 0.74456 0.95746 0.0324 0.0
C630 C 0.72816 0.97815 0.94431 0.0
C631 C 0.7078 0.9646 0.94898 0.0
C632 C 0.70655 0.9464 0.99236 0.0
H633 H 0.58907 0.94813 0.718 0.0
H634 H 0.6248 0.9453 0.77794 0.0
C635 C 0.7248 0.94286 0.03388 0.0
C636 C 0.68723 0.97041 0.91148 0.0
H637 H 0.63096 0.98767 0.92449 0.0
C638 C 0.68833 0.96807 0.84655 0.0
C639 C 0.66662 0.97829 0.93988 0.0
C640 C 0.66502 0.98228 0.00923 0.0
C641 C 0.66886 0.97249 0.80932 0.0
C642 C 0.64786 0.97915 0.83816 0.0
C643 C 0.64709 0.98241 0.90277 0.0
C644 C 0.62608 0.98126 0.80259 0.0
C645 C 0.67086 0.96985 0.73955 0.0
C646 C 0.61454 1.0023 0.79868 0.0
C647 C 0.59391 0.004 0.76457 0.0
C648 C 0.58457 0.9846 0.73445 0.0
C649 C 0.5959 0.96346 0.74019 0.0
C650 C 0.61642 0.96181 0.77405 0.0
H651 H 0.68928 0.97116 0.72357 0.0
H652 H 0.66393 0.95265 0.7264 0.0
H653 H 0.66063 0.98308 0.71458 0.0
H654 H 0.62169 0.01742 0.8212 0.0
H655 H 0.58554 0.0205 0.76093 0.0
H656 H 0.43288 0.72113 0.92319 0.0
H657 H 0.4183 0.68767 0.86854 0.0
H658 H 0.37423 0.66961 0.02599 0.0
H659 H 0.3895 0.7031 0.08201 0.0
H660 H 0.40023 0.63612 0.00353 0.0
H661 H 0.36592 0.66061 0.77543 0.0
H662 H 0.39274 0.67633 0.78383 0.0
H663 H 0.36892 0.68133 0.8372 0.0
C664 C 0.41934 0.71064 0.94523 0.0
C665 C 0.41246 0.71462 0.00703 0.0
C666 C 0.41081 0.69148 0.91362 0.0
C667 C 0.39489 0.67611 0.94265 0.0
C668 C 0.38642 0.68122 0.00245 0.0
H669 H 0.41382 0.55272 0.71652 0.0
H670 H 0.38872 0.57891 0.7748 0.0
C671 C 0.3952 0.7003 0.03449 0.0
C672 C 0.39157 0.65278 0.91623 0.0
H673 H 0.39265 0.62647 0.77496 0.0
C674 C 0.3976 0.63388 0.95388 0.0
C675 C 0.38746 0.64934 0.85191 0.0
C676 C 0.37812 0.66804 0.81021 0.0
C677 C 0.40296 0.61271 0.92745 0.0
C678 C 0.40281 0.61062 0.86186 0.0
C679 C 0.39347 0.62831 0.82521 0.0
C680 C 0.41675 0.59291 0.83068 0.0
C681 C 0.41054 0.59334 0.96967 0.0
C682 C 0.44074 0.59229 0.84258 0.0
C683 C 0.45499 0.57763 0.80945 0.0
C684 C 0.44561 0.5633 0.76334 0.0
C685 C 0.42148 0.56352 0.7521 0.0
C686 C 0.40715 0.57842 0.78523 0.0
H687 H 0.40114 0.59378 0.01506 0.0
H688 H 0.40743 0.57631 0.948 0.0
H689 H 0.42943 0.59539 0.97947 0.0
H690 H 0.44865 0.60376 0.8762 0.0
H691 H 0.47349 0.57789 0.81926 0.0
H692 H 0.78522 0.59738 0.99241 0.0
H693 H 0.81259 0.58724 0.90977 0.0
H694 H 0.76835 0.52969 0.85987 0.0
H695 H 0.74091 0.53968 0.94259 0.0
H696 H 0.8342 0.54366 0.91124 0.0
H697 H 0.78673 0.5601 0.68971 0.0
H698 H 0.77861 0.57318 0.76254 0.0
H699 H 0.77143 0.54353 0.74881 0.0
C700 C 0.78116 0.58279 0.96313 0.0
C701 C 0.76102 0.56926 0.97397 0.0
C702 C 0.79674 0.57706 0.91597 0.0
C703 C 0.79239 0.55779 0.87878 0.0
C704 C 0.77179 0.54484 0.88751 0.0
H705 H 0.90966 0.49579 0.68124 0.0
H706 H 0.87315 0.4987 0.7405 0.0
C707 C 0.75615 0.55059 0.93468 0.0
C708 C 0.8106 0.55003 0.83551 0.0
H709 H 0.82402 0.54383 0.6815 0.0
C710 C 0.83197 0.54352 0.861 0.0
C711 C 0.80745 0.54986 0.77021 0.0
C712 C 0.7849 0.55717 0.74083 0.0
C713 C 0.85065 0.53747 0.82274 0.0
C714 C 0.84765 0.53756 0.75731 0.0
C715 C 0.82607 0.54352 0.73179 0.0
C716 C 0.8676 0.53429 0.71491 0.0
C717 C 0.87374 0.53209 0.85251 0.0
C718 C 0.87591 0.55303 0.67925 0.0
C719 C 0.8966 0.55144 0.64564 0.0
C720 C 0.90933 0.53102 0.64696 0.0
C721 C 0.90031 0.5118 0.67992 0.0
C722 C 0.87953 0.51344 0.71376 0.0
H723 H 0.87415 0.53664 0.90272 0.0
H724 H 0.87699 0.51341 0.84874 0.0
H725 H 0.88817 0.54152 0.82815 0.0
H726 H 0.86688 0.56924 0.6795 0.0
H727 H 0.90289 0.56644 0.61989 0.0
H728 H 0.02021 0.23656 0.03627 0.0
H729 H 0.03253 0.20937 0.95637 0.0
H730 H 0.96612 0.21605 0.8652 0.0
H731 H 0.95409 0.24334 0.94418 0.0
H732 H 0.01023 0.16903 0.9498 0.0
H733 H 0.00769 0.2091 0.71567 0.0
H734 H 0.00904 0.22594 0.78593 0.0
H735 H 0.98151 0.2149 0.75807 0.0
C736 C 0.00885 0.23322 0.99704 0.0
C737 C 0.98634 0.24227 0.99576 0.0
C738 C 0.01577 0.21746 0.95179 0.0
C739 C 0.00032 0.21063 0.9044 0.0
C740 C 0.97862 0.22133 0.90015 0.0
H741 H 0.96056 0.08109 0.76871 0.0
H742 H 0.96959 0.11627 0.82516 0.0
C743 C 0.97173 0.23702 0.9453 0.0
C744 C 0.00478 0.18966 0.86709 0.0
H745 H -0.00024 0.16773 0.72031 0.0
C746 C 0.0085 0.1689 0.89943 0.0
C747 C 0.00274 0.1893 0.80128 0.0
C748 C 0.00027 0.21108 0.76325 0.0
C749 C 0.00864 0.14775 0.86844 0.0
C750 C 0.0046 0.14722 0.80343 0.0
C751 C 0.00253 0.16807 0.77033 0.0
C752 C 0.00024 0.12521 0.77037 0.0
C753 C 0.01244 0.12605 0.90597 0.0
C754 C 0.01438 0.11853 0.72031 0.0
C755 C 0.00927 0.09824 0.6878 0.0
C756 C 0.9897 0.0845 0.70424 0.0
C757 C 0.97579 0.09119 0.75483 0.0
C758 C 0.98099 0.11129 0.78741 0.0
H759 H 0.02234 0.12964 0.9493 0.0
H760 H 0.99529 0.11844 0.91975 0.0
H761 H 0.02198 0.11317 0.87834 0.0
H762 H 0.02925 0.12909 0.70612 0.0
H763 H 0.02024 0.09367 0.64877 0.0
H764 H 0.24451 0.04095 0.93255 0.0
H765 H 0.27795 0.03642 0.86233 0.0
H766 H 0.30053 0.10594 0.89985 0.0
H767 H 0.26727 0.11042 0.97038 0.0
H768 H 0.3024 0.06279 0.75667 0.0
H769 H 0.34871 0.06122 0.98449 0.0
H770 H 0.31746 0.05816 0.97901 0.0
H771 H 0.33118 0.08591 0.9686 0.0
C772 C 0.25591 0.05563 0.9231 0.0
C773 C 0.25334 0.07605 0.95657 0.0
C774 C 0.27512 0.05298 0.88341 0.0
C775 C 0.29189 0.07073 0.87681 0.0
C776 C 0.28786 0.09201 0.90468 0.0
H777 H 0.42532 0.05458 0.67582 0.0
H778 H 0.39024 0.07229 0.71863 0.0
C779 C 0.26876 0.09462 0.94446 0.0
C780 C 0.31517 0.06571 0.85048 0.0
H781 H 0.37117 0.05529 0.89457 0.0
C782 C 0.31753 0.06142 0.7865 0.0
C783 C 0.33478 0.06365 0.88988 0.0
C784 C 0.33304 0.0673 0.95941 0.0
C785 C 0.33903 0.05487 0.76097 0.0
C786 C 0.35856 0.05265 0.80058 0.0
C787 C 0.35622 0.05726 0.86432 0.0
C788 C 0.38091 0.04325 0.77817 0.0
C789 C 0.34054 0.04949 0.69237 0.0
C790 C 0.38779 0.02153 0.79952 0.0
C791 C 0.40776 0.01146 0.77547 0.0
C792 C 0.42144 0.02301 0.73006 0.0
C793 C 0.41527 0.04535 0.71124 0.0
C794 C 0.39509 0.05536 0.73501 0.0
H795 H 0.32312 0.04891 0.66997 0.0
H796 H 0.35133 0.06291 0.66826 0.0
H797 H 0.34907 0.03271 0.68543 0.0
H798 H 0.37719 0.01197 0.83316 0.0
H799 H 0.41203 0.99424 0.79081 0.0
H800 H 0.56082 0.27522 0.97795 0.0
H801 H 0.55 0.30153 0.8938 0.0
H802 H 0.47816 0.29668 0.95301 0.0
H803 H 0.48921 0.27073 0.03876 0.0
H804 H 0.52047 0.3053 0.79466 0.0
H805 H 0.49398 0.36358 0.98584 0.0
H806 H 0.50852 0.3369 0.00093 0.0
H807 H 0.47808 0.3368 0.98154 0.0
C808 C 0.54257 0.27894 0.97119 0.0
C809 C 0.52583 0.27093 0.0146 0.0
C810 C 0.53639 0.29415 0.92339 0.0
C811 C 0.51337 0.30167 0.91817 0.0
C812 C 0.49614 0.29159 0.9571 0.0
H813 H 0.4812 0.42942 0.70653 0.0
H814 H 0.47454 0.39235 0.76097 0.0
C815 C 0.50236 0.27641 0.00534 0.0
C816 C 0.50848 0.322 0.87771 0.0
H817 H 0.49536 0.37911 0.88482 0.0
C818 C 0.51456 0.32131 0.81419 0.0
C819 C 0.50092 0.34304 0.90319 0.0
C820 C 0.49516 0.34532 0.97164 0.0
C821 C 0.51417 0.34119 0.77627 0.0
C822 C 0.50761 0.36233 0.80249 0.0
C823 C 0.50028 0.36282 0.8649 0.0
C824 C 0.51111 0.38449 0.76835 0.0
C825 C 0.52153 0.33964 0.70884 0.0
C826 C 0.53383 0.3925 0.75571 0.0
C827 C 0.53768 0.41365 0.72566 0.0
C828 C 0.51887 0.4273 0.70717 0.0
C829 C 0.49605 0.41931 0.72008 0.0
C830 C 0.49221 0.39814 0.75099 0.0
H831 H 0.52022 0.32171 0.6917 0.0
H832 H 0.51071 0.35085 0.6788 0.0
H833 H 0.53994 0.34556 0.70411 0.0
H834 H 0.54866 0.38242 0.76964 0.0
H835 H 0.55549 0.41917 0.71647 0.0
H836 H 0.23936 0.41889 0.9447 0.0
H837 H 0.21746 0.42757 0.85056 0.0
H838 H 0.256 0.49153 0.82867 0.0
H839 H 0.27759 0.48299 0.92429 0.0
H840 H 0.21087 0.49825 0.84759 0.0
H841 H 0.21855 0.43302 0.66403 0.0
H842 H 0.21342 0.41972 0.73879 0.0
H843 H 0.23989 0.43617 0.72518 0.0
C844 C 0.24408 0.43415 0.91772 0.0
C845 C 0.2601 0.4503 0.94156 0.0
C846 C 0.23153 0.43914 0.86374 0.0
C847 C 0.235 0.46025 0.83238 0.0
C848 C 0.25306 0.47511 0.85203 0.0
H849 H 0.13113 0.53343 0.6115 0.0
H850 H 0.16809 0.52149 0.65634 0.0
C851 C 0.26558 0.47014 0.9063 0.0
C852 C 0.21664 0.46879 0.78979 0.0
H853 H 0.18194 0.45349 0.66734 0.0
C854 C 0.20494 0.48875 0.80722 0.0
C855 C 0.20859 0.45621 0.73777 0.0
C856 C 0.22095 0.43521 0.71505 0.0
C857 C 0.18486 0.49589 0.77607 0.0
C858 C 0.1764 0.48292 0.72531 0.0
C859 C 0.18843 0.46335 0.70647 0.0
C860 C 0.15457 0.48913 0.69306 0.0
C861 C 0.17221 0.51662 0.79974 0.0
C862 C 0.13485 0.47457 0.69735 0.0
C863 C 0.11363 0.48131 0.67163 0.0
C864 C 0.11181 0.50274 0.64109 0.0
C865 C 0.13182 0.51693 0.63531 0.0
C866 C 0.153 0.51015 0.66086 0.0
H867 H 0.17813 0.52167 0.84702 0.0
H868 H 0.17555 0.5314 0.76755 0.0
H869 H 0.15312 0.51325 0.80145 0.0
H870 H 0.13573 0.45825 0.72205 0.0
H871 H 0.09859 0.46992 0.67656 0.0
H872 H 0.98621 0.78045 0.14341 0.0
H873 H 0.97318 0.80996 0.21652 0.0
H874 H 0.04189 0.8129 0.29688 0.0
H875 H 0.05471 0.78336 0.22481 0.0
H876 H 0.00657 0.8198 0.38516 0.0
H877 H 0.99644 0.87541 0.17412 0.0
H878 H 0.97897 0.84948 0.17718 0.0
H879 H 0.0101 0.84776 0.17098 0.0
C880 C 0.99815 0.78671 0.17859 0.0
C881 C 0.02141 0.77961 0.1788 0.0
C882 C 0.99082 0.80379 0.21971 0.0
C883 C 0.00671 0.81403 0.26125 0.0
C884 C 0.02932 0.80535 0.2652 0.0
H885 H 0.0386 0.94609 0.39227 0.0
H886 H 0.03165 0.91009 0.33769 0.0
C887 C 0.03662 0.78838 0.22424 0.0
C888 C 0.00115 0.83549 0.29515 0.0
H889 H 0.99326 0.89305 0.27118 0.0
C890 C 0.00319 0.83576 0.36044 0.0
C891 C 0.99708 0.85639 0.26268 0.0
C892 C 0.99567 0.85745 0.19237 0.0
C893 C 0.00215 0.85643 0.39384 0.0
C894 C 0.99871 0.87738 0.36112 0.0
C895 C 0.99572 0.87697 0.29618 0.0
C896 C 0.0012 0.90008 0.39201 0.0
C897 C 0.00613 0.85588 0.46338 0.0
C898 C 0.98598 0.90685 0.4397 0.0
C899 C 0.98989 0.92762 0.47112 0.0
C900 C 0.00913 0.94191 0.45537 0.0
C901 C 0.02369 0.93548 0.40585 0.0
C902 C 0.01973 0.91487 0.37448 0.0
H903 H 0.01215 0.83884 0.48004 0.0
H904 H 0.01924 0.86919 0.47666 0.0
H905 H 0.98959 0.8597 0.48785 0.0
H906 H 0.97134 0.8959 0.45334 0.0
H907 H 0.97837 0.93205 0.50911 0.0
H908 H 0.7661 0.99891 0.2636 0.0
H909 H 0.73514 0.00709 0.33889 0.0
H910 H 0.71336 0.93575 0.33737 0.0
H911 H 0.74437 0.92761 0.26285 0.0
H912 H 0.69038 1.00007 0.29628 0.0
H913 H 0.70172 0.95229 0.51887 0.0
H914 H 0.72559 0.95823 0.46549 0.0
H915 H 0.70548 0.93484 0.45114 0.0
C916 C 0.75558 0.98478 0.28233 0.0
C917 C 0.75771 0.96261 0.25805 0.0
C918 C 0.73771 0.98949 0.32472 0.0
C919 C 0.72188 0.97204 0.34378 0.0
C920 C 0.72555 0.94942 0.32436 0.0
H921 H 0.5806 0.96645 0.49359 0.0
H922 H 0.61824 0.95776 0.44521 0.0
C923 C 0.74335 0.94474 0.28193 0.0
C924 C 0.69941 0.97802 0.37358 0.0
H925 H 0.66326 0.96545 0.49687 0.0
C926 C 0.6846 0.99275 0.3406 0.0
C927 C 0.69168 0.96811 0.43073 0.0
C928 C 0.70703 0.95264 0.46894 0.0
C929 C 0.66216 0.99752 0.36255 0.0
C930 C 0.6544 0.98762 0.41969 0.0
C931 C 0.6692 0.97295 0.45291 0.0
C932 C 0.63124 0.99289 0.44651 0.0
C933 C 0.64671 0.01263 0.32344 0.0
C934 C 0.62604 0.01551 0.46282 0.0
C935 C 0.60459 0.02053 0.48996 0.0
C936 C 0.5879 0.00301 0.50182 0.0
C937 C 0.59298 0.98037 0.48451 0.0
C938 C 0.61453 0.97535 0.45735 0.0
H939 H 0.65262 0.01356 0.27403 0.0
H940 H 0.62836 0.00625 0.32475 0.0
H941 H 0.6472 0.03033 0.34221 0.0
H942 H 0.63878 0.02926 0.45577 0.0
H943 H 0.60134 0.03813 0.503 0.0
H944 H 0.49744 0.72505 0.15108 0.0
H945 H 0.51139 0.69754 0.22994 0.0
H946 H 0.44385 0.69711 0.31883 0.0
H947 H 0.43005 0.7246 0.24076 0.0
H948 H 0.48148 0.69288 0.40439 0.0
H949 H 0.48629 0.63112 0.20814 0.0
H950 H 0.50371 0.65701 0.20089 0.0
H951 H 0.47251 0.6586 0.20006 0.0
C952 C 0.48595 0.71979 0.18906 0.0
C953 C 0.46271 0.72695 0.19007 0.0
C954 C 0.49381 0.70387 0.2336 0.0
C955 C 0.47851 0.69491 0.27957 0.0
C956 C 0.45596 0.70371 0.2838 0.0
H957 H 0.44798 0.56816 0.45322 0.0
H958 H 0.45331 0.60304 0.39038 0.0
C959 C 0.44811 0.71949 0.23935 0.0
C960 C 0.48456 0.67448 0.31832 0.0
H961 H 0.49113 0.6163 0.30904 0.0
C962 C 0.48409 0.67619 0.38365 0.0
C963 C 0.48762 0.65264 0.29111 0.0
C964 C 0.48743 0.64953 0.22126 0.0
C965 C 0.48578 0.65657 0.42239 0.0
C966 C 0.48812 0.63469 0.39504 0.0
C967 C 0.48951 0.63311 0.32985 0.0
C968 C 0.48606 0.61304 0.43247 0.0
C969 C 0.48371 0.65917 0.49212 0.0
C970 C 0.50296 0.60677 0.47647 0.0
C971 C 0.5 0.5866 0.51263 0.0
C972 C 0.48004 0.57249 0.50548 0.0
C973 C 0.4635 0.57865 0.46031 0.0
C974 C 0.46653 0.5986 0.42416 0.0
H975 H 0.47911 0.67694 0.50546 0.0
H976 H 0.47026 0.64704 0.51122 0.0
H977 H 0.50056 0.65493 0.51421 0.0
H978 H 0.51833 0.61751 0.48311 0.0
H979 H 0.51306 0.58235 0.547 0.0
H980 H 0.76914 0.61255 0.18703 0.0
H981 H 0.80296 0.60933 0.2556 0.0
H982 H 0.7842 0.53857 0.29531 0.0
H983 H 0.75022 0.54183 0.22689 0.0
H984 H 0.80835 0.56684 0.39936 0.0
H985 H 0.85214 0.56591 0.16685 0.0
H986 H 0.83334 0.58963 0.18233 0.0
H987 H 0.82116 0.56114 0.17604 0.0
C988 C 0.77152 0.59673 0.21324 0.0
C989 C 0.75706 0.57747 0.20222 0.0
C990 C 0.79095 0.59484 0.25187 0.0
C991 C 0.79622 0.57363 0.27967 0.0
C992 C 0.78036 0.5551 0.27432 0.0
H993 H 0.92133 0.5037 0.3648 0.0
H994 H 0.88506 0.51876 0.32282 0.0
C995 C 0.76085 0.55701 0.23572 0.0
C996 C 0.81993 0.56959 0.30396 0.0
H997 H 0.87583 0.56124 0.25491 0.0
C998 C 0.82319 0.56586 0.36807 0.0
C999 C 0.83914 0.56804 0.26265 0.0
C1000 C 0.83642 0.57122 0.19304 0.0
C1001 C 0.84526 0.56045 0.39192 0.0
C1002 C 0.86441 0.5588 0.35046 0.0
C1003 C 0.86114 0.56275 0.28651 0.0
C1004 C 0.88753 0.55102 0.37177 0.0
C1005 C 0.84782 0.55572 0.4609 0.0
C1006 C 0.90141 0.5646 0.41115 0.0
C1007 C 0.92236 0.55615 0.43463 0.0
C1008 C 0.92962 0.5339 0.41939 0.0
C1009 C 0.91622 0.52089 0.3774 0.0
C1010 C 0.89545 0.52942 0.35359 0.0
H1011 H 0.8307 0.55443 0.48519 0.0
H1012 H 0.85731 0.53948 0.46884 0.0
H1013 H 0.85816 0.56985 0.48225 0.0
H1014 H 0.89573 0.58147 0.42496 0.0
H1015 H 0.93219 0.56654 0.46722 0.0
loop_
_geom_bond_atom_site_label_1
_geom_bond_atom_site_label_2
_geom_bond_distance
_geom_bond_site_symmetry_2
_ccdc_geom_bond_type
H0 C3 0.931 . S
H1 C6 0.928 . S
H2 C8 0.930 . S
C3 H0 0.931 . S
C3 C4 1.413 . S
C3 C5 1.360 1_554 S
C4 C3 1.413 . S
C4 C8 1.429 . S
C5 C3 1.360 1_556 S
C5 C6 1.372 . S
C6 H1 0.928 . S
C6 C5 1.372 . S
C6 C7 1.404 . S
C7 C6 1.404 . S
C7 C8 1.391 1_556 S
C8 H2 0.930 . S
C8 C4 1.429 . S
C8 C7 1.391 1_554 S
H9 C12 0.930 . S
H10 C15 0.928 . S
H11 C17 0.929 . S
C12 H9 0.930 . S
C12 C13 1.413 . S
C12 C14 1.360 1_554 S
C13 C12 1.413 . S
C13 C17 1.429 1_655 S
C14 C12 1.360 1_556 S
C14 C15 1.372 . S
C15 H10 0.928 . S
C15 C14 1.372 . S
C15 C16 1.405 1_556 S
C16 C15 1.405 1_554 S
C16 C17 1.391 1_655 S
C17 H11 0.929 . S
C17 C13 1.429 1_455 S
C17 C16 1.391 1_455 S
H18 C21 0.931 . S
H19 C24 0.928 . S
H20 C26 0.930 . S
C21 H18 0.931 . S
C21 C22 1.413 . S
C21 C23 1.360 1_554 S
C22 C21 1.413 . S
C22 C26 1.429 . S
C23 C21 1.360 1_556 S
C23 C24 1.372 . S
C24 H19 0.928 . S
C24 C23 1.372 . S
C24 C25 1.404 1_556 S
C25 C24 1.404 1_554 S
C25 C26 1.391 . S
C26 H20 0.930 . S
C26 C22 1.429 . S
C26 C25 1.391 . S
H27 C30 0.931 . S
H28 C33 0.928 . S
H29 C35 0.930 . S
C30 H27 0.931 . S
C30 C31 1.413 1_554 S
C30 C32 1.360 . S
C31 C30 1.413 1_556 S
C31 C35 1.429 . S
C32 C30 1.360 . S
C32 C33 1.372 . S
C33 H28 0.928 . S
C33 C32 1.372 . S
C33 C34 1.404 . S
C34 C33 1.404 . S
C34 C35 1.391 1_554 S
C35 H29 0.930 . S
C35 C31 1.429 . S
C35 C34 1.391 1_556 S
H36 C39 0.931 . S
H37 C42 0.928 . S
H38 C44 0.930 . S
C39 H36 0.931 . S
C39 C40 1.413 . S
C39 C41 1.360 . S
C40 C39 1.413 . S
C40 C44 1.429 . S
C41 C39 1.360 . S
C41 C42 1.372 . S
C42 H37 0.928 . S
C42 C41 1.372 . S
C42 C43 1.404 . S
C43 C42 1.404 . S
C43 C44 1.391 . S
C44 H38 0.930 . S
C44 C40 1.429 . S
C44 C43 1.391 . S
H45 C48 0.931 . S
H46 C51 0.928 . S
H47 C53 0.930 . S
C48 H45 0.931 . S
C48 C49 1.413 . S
C48 C50 1.360 . S
C49 C48 1.413 . S
C49 C53 1.429 1_655 S
C50 C48 1.360 . S
C50 C51 1.372 . S
C51 H46 0.928 . S
C51 C50 1.372 . S
C51 C52 1.404 . S
C52 C51 1.404 . S
C52 C53 1.390 1_655 S
C53 H47 0.930 . S
C53 C49 1.429 1_455 S
C53 C52 1.390 1_455 S
H54 C57 0.931 . S
H55 C60 0.928 . S
H56 C62 0.930 . S
C57 H54 0.931 . S
C57 C58 1.413 . S
C57 C59 1.360 . S
C58 C57 1.413 . S
C58 C62 1.429 . S
C59 C57 1.360 . S
C59 C60 1.372 . S
C60 H55 0.928 . S
C60 C59 1.372 . S
C60 C61 1.404 . S
C61 C60 1.404 . S
C61 C62 1.391 . S
C62 H56 0.930 . S
C62 C58 1.429 . S
C62 C61 1.391 . S
H63 C66 0.931 . S
H64 C69 0.928 . S
H65 C71 0.930 . S
C66 H63 0.931 . S
C66 C67 1.413 . S
C66 C68 1.360 . S
C67 C66 1.413 . S
C67 C71 1.429 . S
C68 C66 1.360 . S
C68 C69 1.372 . S
C69 H64 0.928 . S
C69 C68 1.372 . S
C69 C70 1.404 . S
C70 C69 1.404 . S
C70 C71 1.391 . S
C71 H65 0.930 . S
C71 C67 1.429 . S
C71 C70 1.391 . S
Zn72 O78 1.969 . S
Zn72 O79 1.965 1_655 S
Zn72 O83 2.024 1_655 S
Zn72 O88 1.969 . S
Zn73 O80 1.969 . S
Zn73 O86 1.969 . S
Zn73 O87 1.965 1_455 S
Zn73 O89 2.024 1_455 S
C74 O75 1.229 1_455 S
C74 O83 1.058 . S
O75 C74 1.229 1_655 S
C76 O77 1.229 1_655 S
C76 O89 1.058 . S
O77 C76 1.229 1_455 S
O78 Zn72 1.969 . S
O78 C81 1.267 . S
O79 Zn72 1.965 1_455 S
O79 C90 1.260 . S
O80 Zn73 1.969 . S
O80 C90 1.258 1_565 S
C81 O78 1.267 . S
C81 O82 1.228 1_655 S
O82 C81 1.228 1_455 S
O83 Zn72 2.024 1_455 S
O83 C74 1.058 . S
C84 O85 1.228 1_455 S
C84 O86 1.267 . S
O85 C84 1.228 1_655 S
O86 Zn73 1.969 . S
O86 C84 1.267 . S
O87 Zn73 1.965 1_655 S
O87 C91 1.260 1_565 S
O88 Zn72 1.969 . S
O88 C91 1.258 . S
O89 Zn73 2.024 1_655 S
O89 C76 1.058 . S
C90 O79 1.260 . S
C90 O80 1.258 1_545 S
C91 O87 1.260 1_545 S
C91 O88 1.258 . S
Zn92 O98 1.969 . S
Zn92 O99 1.965 . S
Zn92 O103 2.024 . S
Zn92 O108 1.969 1_545 S
Zn93 O100 1.952 1_565 S
Zn93 O106 1.963 1_565 S
Zn93 O107 1.970 . S
Zn93 O109 2.035 . S
C94 O95 1.229 . S
C94 O103 1.058 . S
O95 C94 1.229 . S
C96 O97 1.260 . S
C96 O109 1.058 . S
O97 C96 1.260 . S
O98 Zn92 1.969 . S
O98 C101 1.267 . S
O99 Zn92 1.965 . S
O99 C110 1.260 . S
O100 Zn93 1.952 1_545 S
O100 C110 1.258 . S
C101 O98 1.267 . S
C101 O102 1.228 . S
O102 C101 1.228 . S
O103 Zn92 2.024 . S
O103 C94 1.058 . S
C104 O105 1.228 . S
C104 O106 1.267 1_565 S
O105 C104 1.228 . S
O106 Zn93 1.963 1_545 S
O106 C104 1.267 1_545 S
O107 Zn93 1.970 . S
O107 C111 1.260 . S
O108 Zn92 1.969 1_565 S
O108 C111 1.258 . S
O109 Zn93 2.035 . S
O109 C96 1.058 . S
C110 O99 1.260 . S
C110 O100 1.258 . S
C111 O107 1.260 . S
C111 O108 1.258 . S
Zn112 O118 1.969 . S
Zn112 O119 1.965 . S
Zn112 O123 2.024 . S
Zn112 O128 1.969 . S
Zn113 O120 1.969 . S
Zn113 O126 1.969 . S
Zn113 O127 1.965 . S
Zn113 O129 2.024 . S
C114 O115 1.229 . S
C114 O123 1.058 . S
O115 C114 1.229 . S
C116 O117 1.229 . S
C116 O129 1.058 . S
O117 C116 1.229 . S
O118 Zn112 1.969 . S
O118 C121 1.267 . S
O119 Zn112 1.965 . S
O119 C130 1.260 . S
O120 Zn113 1.969 . S
O120 C130 1.258 . S
C121 O118 1.267 . S
C121 O122 1.228 . S
O122 C121 1.228 . S
O123 Zn112 2.024 . S
O123 C114 1.058 . S
C124 O125 1.228 . S
C124 O126 1.267 . S
O125 C124 1.228 . S
O126 Zn113 1.969 . S
O126 C124 1.267 . S
O127 Zn113 1.965 . S
O127 C131 1.260 . S
O128 Zn112 1.969 . S
O128 C131 1.258 . S
O129 Zn113 2.024 . S
O129 C116 1.058 . S
C130 O119 1.260 . S
C130 O120 1.258 . S
C131 O127 1.260 . S
C131 O128 1.258 . S
Zn132 O138 1.969 . S
Zn132 O139 1.965 . S
Zn132 O143 2.024 . S
Zn132 O148 1.969 . S
Zn133 O140 1.969 . S
Zn133 O146 1.969 . S
Zn133 O147 1.965 . S
Zn133 O149 2.024 . S
C134 O135 1.229 . S
C134 O143 1.058 . S
O135 C134 1.229 . S
C136 O137 1.229 . S
C136 O149 1.058 . S
O137 C136 1.229 . S
O138 Zn132 1.969 . S
O138 C141 1.267 . S
O139 Zn132 1.965 . S
O139 C150 1.260 1_455 S
O140 Zn133 1.969 . S
O140 C150 1.258 . S
C141 O138 1.267 . S
C141 O142 1.228 . S
O142 C141 1.228 . S
O143 Zn132 2.024 . S
O143 C134 1.058 . S
C144 O145 1.228 . S
C144 O146 1.267 . S
O145 C144 1.228 . S
O146 Zn133 1.969 . S
O146 C144 1.267 . S
O147 Zn133 1.965 . S
O147 C151 1.260 1_655 S
O148 Zn132 1.969 . S
O148 C151 1.258 . S
O149 Zn133 2.024 . S
O149 C136 1.058 . S
C150 O139 1.260 1_655 S
C150 O140 1.258 . S
C151 O147 1.260 1_455 S
C151 O148 1.258 . S
H152 C160 0.929 . S
H153 C162 0.930 . S
H154 C164 0.930 . S
H155 C167 0.929 . S
H156 C170 0.930 . S
H157 C172 0.960 . S
H158 C172 0.960 . S
H159 C172 0.960 . S
C160 H152 0.929 . S
C160 C161 1.377 . S
C160 C162 1.384 . S
C161 C160 1.377 . S
C161 C167 1.390 . S
C162 H153 0.930 . S
C162 C160 1.384 . S
C162 C163 1.372 . S
C163 C162 1.372 . S
C163 C164 1.400 . S
C163 C168 1.490 . S
C164 H154 0.930 . S
C164 C163 1.400 . S
C164 C167 1.386 . S
H165 C181 0.930 . S
H166 C182 0.931 . S
C167 H155 0.929 . S
C167 C161 1.390 . S
C167 C164 1.386 . S
C168 C163 1.490 . S
C168 C170 1.395 . S
C168 C171 1.403 . S
H169 C175 0.930 . S
C170 H156 0.930 . S
C170 C168 1.395 . S
C170 C173 1.403 . S
C171 C168 1.403 . S
C171 C172 1.524 . S
C171 C175 1.400 . S
C172 H157 0.960 . S
C172 H158 0.960 . S
C172 H159 0.960 . S
C172 C171 1.524 . S
C173 C170 1.403 . S
C173 C174 1.392 . S
C173 C177 1.495 . S
C174 C173 1.392 . S
C174 C175 1.385 . S
C174 C176 1.478 . S
C175 H169 0.930 . S
C175 C171 1.400 . S
C175 C174 1.385 . S
C176 C174 1.478 . S
C176 C178 1.381 . S
C176 C182 1.383 . S
C177 C173 1.495 . S
C177 H183 0.959 . S
C177 H184 0.961 . S
C177 H185 0.960 . S
C178 C176 1.381 . S
C178 C179 1.394 . S
C178 H186 0.930 . S
C179 C178 1.394 . S
C179 C180 1.383 . S
C179 H187 0.929 1_545 S
C180 C179 1.383 . S
C180 C181 1.377 . S
C181 H165 0.930 . S
C181 C180 1.377 . S
C181 C182 1.379 . S
C182 H166 0.931 . S
C182 C176 1.383 . S
C182 C181 1.379 . S
H183 C177 0.959 . S
H184 C177 0.961 . S
H185 C177 0.960 . S
H186 C178 0.930 . S
H187 C179 0.929 1_565 S
H188 C196 0.929 . S
H189 C198 0.930 . S
H190 C200 0.930 . S
H191 C203 0.929 . S
H192 C206 0.930 . S
H193 C208 0.960 . S
H194 C208 0.960 . S
H195 C208 0.960 . S
C196 H188 0.929 . S
C196 C197 1.377 . S
C196 C198 1.384 . S
C197 C196 1.377 . S
C197 C203 1.390 . S
C198 H189 0.930 . S
C198 C196 1.384 . S
C198 C199 1.372 . S
C199 C198 1.372 . S
C199 C200 1.400 . S
C199 C204 1.490 . S
C200 H190 0.930 . S
C200 C199 1.400 . S
C200 C203 1.386 . S
H201 C217 0.930 . S
H202 C218 0.931 . S
C203 H191 0.929 . S
C203 C197 1.390 . S
C203 C200 1.386 . S
C204 C199 1.490 . S
C204 C206 1.395 . S
C204 C207 1.403 . S
H205 C211 0.930 . S
C206 H192 0.930 . S
C206 C204 1.395 . S
C206 C209 1.403 . S
C207 C204 1.403 . S
C207 C208 1.524 . S
C207 C211 1.400 . S
C208 H193 0.960 . S
C208 H194 0.960 . S
C208 H195 0.960 . S
C208 C207 1.524 . S
C209 C206 1.403 . S
C209 C210 1.392 . S
C209 C213 1.495 . S
C210 C209 1.392 . S
C210 C211 1.385 . S
C210 C212 1.478 . S
C211 H205 0.930 . S
C211 C207 1.400 . S
C211 C210 1.385 . S
C212 C210 1.478 . S
C212 C214 1.381 . S
C212 C218 1.383 . S
C213 C209 1.495 . S
C213 H219 0.959 . S
C213 H220 0.961 . S
C213 H221 0.960 . S
C214 C212 1.381 . S
C214 C215 1.394 . S
C214 H222 0.930 . S
C215 C214 1.394 . S
C215 C216 1.383 . S
C215 H223 0.929 . S
C216 C215 1.383 . S
C216 C217 1.377 . S
C217 H201 0.930 . S
C217 C216 1.377 . S
C217 C218 1.379 . S
C218 H202 0.931 . S
C218 C212 1.383 . S
C218 C217 1.379 . S
H219 C213 0.959 . S
H220 C213 0.961 . S
H221 C213 0.960 . S
H222 C214 0.930 . S
H223 C215 0.929 . S
H224 C232 0.929 . S
H225 C234 0.930 . S
H226 C236 0.930 . S
H227 C239 0.929 . S
H228 C242 0.930 . S
H229 C244 0.960 . S
H230 C244 0.960 . S
H231 C244 0.960 . S
C232 H224 0.929 . S
C232 C233 1.377 . S
C232 C234 1.384 . S
C233 C232 1.377 . S
C233 C239 1.390 . S
C234 H225 0.930 . S
C234 C232 1.384 . S
C234 C235 1.372 . S
C235 C234 1.372 . S
C235 C236 1.400 . S
C235 C240 1.490 . S
C236 H226 0.930 . S
C236 C235 1.400 . S
C236 C239 1.386 . S
H237 C253 0.930 . S
H238 C254 0.931 . S
C239 H227 0.929 . S
C239 C233 1.390 . S
C239 C236 1.386 . S
C240 C235 1.490 . S
C240 C242 1.395 . S
C240 C243 1.403 . S
H241 C247 0.930 . S
C242 H228 0.930 . S
C242 C240 1.395 . S
C242 C245 1.403 . S
C243 C240 1.403 . S
C243 C244 1.524 . S
C243 C247 1.400 . S
C244 H229 0.960 . S
C244 H230 0.960 . S
C244 H231 0.960 . S
C244 C243 1.524 . S
C245 C242 1.403 . S
C245 C246 1.392 . S
C245 C249 1.495 . S
C246 C245 1.392 . S
C246 C247 1.385 . S
C246 C248 1.478 . S
C247 H241 0.930 . S
C247 C243 1.400 . S
C247 C246 1.385 . S
C248 C246 1.478 . S
C248 C250 1.381 . S
C248 C254 1.383 . S
C249 C245 1.495 . S
C249 H255 0.959 . S
C249 H256 0.961 . S
C249 H257 0.960 . S
C250 C248 1.381 . S
C250 C251 1.394 . S
C250 H258 0.930 . S
C251 C250 1.394 . S
C251 C252 1.383 . S
C251 H259 0.929 . S
C252 C251 1.383 . S
C252 C253 1.377 . S
C253 H237 0.930 . S
C253 C252 1.377 . S
C253 C254 1.379 . S
C254 H238 0.931 . S
C254 C248 1.383 . S
C254 C253 1.379 . S
H255 C249 0.959 . S
H256 C249 0.961 . S
H257 C249 0.960 . S
H258 C250 0.930 . S
H259 C251 0.929 . S
H260 C268 0.929 . S
H261 C270 0.930 . S
H262 C272 0.930 . S
H263 C275 0.929 . S
H264 C278 0.930 . S
H265 C280 0.960 . S
H266 C280 0.960 . S
H267 C280 0.960 . S
C268 H260 0.929 . S
C268 C269 1.381 . S
C268 C270 1.384 . S
C269 C268 1.381 . S
C269 C275 1.386 1_455 S
C270 H261 0.930 . S
C270 C268 1.384 . S
C270 C271 1.364 1_455 S
C271 C270 1.364 1_655 S
C271 C272 1.407 . S
C271 C276 1.491 . S
C272 H262 0.930 . S
C272 C271 1.407 . S
C272 C275 1.386 . S
H273 C289 0.930 . S
H274 C290 0.931 . S
C275 H263 0.929 . S
C275 C269 1.386 1_655 S
C275 C272 1.386 . S
C276 C271 1.491 . S
C276 C278 1.395 . S
C276 C279 1.403 1_655 S
H277 C283 0.930 . S
C278 H264 0.930 . S
C278 C276 1.395 . S
C278 C281 1.403 . S
C279 C276 1.403 1_455 S
C279 C280 1.524 . S
C279 C283 1.400 . S
C280 H265 0.960 . S
C280 H266 0.960 . S
C280 H267 0.960 . S
C280 C279 1.524 . S
C281 C278 1.403 . S
C281 C282 1.392 . S
C281 C285 1.495 . S
C282 C281 1.392 . S
C282 C283 1.385 1_655 S
C282 C284 1.478 . S
C283 H277 0.930 . S
C283 C279 1.400 . S
C283 C282 1.385 1_455 S
C284 C282 1.478 . S
C284 C286 1.381 1_655 S
C284 C290 1.383 . S
C285 C281 1.495 . S
C285 H291 0.959 . S
C285 H292 0.961 . S
C285 H293 0.960 . S
C286 C284 1.381 1_455 S
C286 C287 1.394 . S
C286 H294 0.930 . S
C287 C286 1.394 . S
C287 C288 1.383 1_455 S
C287 H295 0.929 . S
C288 C287 1.383 1_655 S
C288 C289 1.377 . S
C289 H273 0.930 . S
C289 C288 1.377 . S
C289 C290 1.379 . S
C290 H274 0.931 . S
C290 C284 1.383 . S
C290 C289 1.379 . S
H291 C285 0.959 . S
H292 C285 0.961 . S
H293 C285 0.960 . S
H294 C286 0.930 . S
H295 C287 0.929 . S
H296 C304 0.929 . S
H297 C306 0.930 . S
H298 C308 0.930 . S
H299 C311 0.929 1_554 S
H300 C314 0.930 . S
H301 C316 0.960 . S
H302 C316 0.960 . S
H303 C316 0.960 . S
C304 H296 0.929 . S
C304 C305 1.377 . S
C304 C306 1.384 . S
C305 C304 1.377 . S
C305 C311 1.390 . S
C306 H297 0.930 . S
C306 C304 1.384 . S
C306 C307 1.372 . S
C307 C306 1.372 . S
C307 C308 1.400 . S
C307 C312 1.490 . S
C308 H298 0.930 . S
C308 C307 1.400 . S
C308 C311 1.386 . S
H309 C325 0.930 . S
H310 C326 0.931 . S
C311 H299 0.929 1_556 S
C311 C305 1.390 . S
C311 C308 1.386 . S
C312 C307 1.490 . S
C312 C314 1.395 . S
C312 C315 1.403 . S
H313 C319 0.930 . S
C314 H300 0.930 . S
C314 C312 1.395 . S
C314 C317 1.403 . S
C315 C312 1.403 . S
C315 C316 1.524 . S
C315 C319 1.400 . S
C316 H301 0.960 . S
C316 H302 0.960 . S
C316 H303 0.960 . S
C316 C315 1.524 . S
C317 C314 1.403 . S
C317 C318 1.392 . S
C317 C321 1.495 1_565 S
C318 C317 1.392 . S
C318 C319 1.385 . S
C318 C320 1.478 . S
C319 H313 0.930 . S
C319 C315 1.400 . S
C319 C318 1.385 . S
C320 C318 1.478 . S
C320 C322 1.357 1_565 S
C320 C326 1.383 . S
C321 C317 1.495 1_545 S
C321 H327 0.959 . S
C321 H328 0.961 . S
C321 H329 0.960 . S
C322 C320 1.357 1_545 S
C322 C323 1.402 . S
C322 H330 0.948 . S
C323 C322 1.402 . S
C323 C324 1.383 1_545 S
C323 H331 0.929 . S
C324 C323 1.383 1_565 S
C324 C325 1.377 . S
C325 H309 0.930 . S
C325 C324 1.377 . S
C325 C326 1.379 . S
C326 H310 0.931 . S
C326 C320 1.383 . S
C326 C325 1.379 . S
H327 C321 0.959 . S
H328 C321 0.961 . S
H329 C321 0.960 . S
H330 C322 0.948 . S
H331 C323 0.929 . S
H332 C340 0.925 1_554 S
H333 C342 0.930 . S
H334 C344 0.930 . S
H335 C347 0.929 . S
H336 C350 0.930 . S
H337 C352 0.960 . S
H338 C352 0.960 . S
H339 C352 0.960 . S
C340 H332 0.925 1_556 S
C340 C341 1.378 . S
C340 C342 1.388 . S
C341 C340 1.378 . S
C341 C347 1.390 . S
C342 H333 0.930 . S
C342 C340 1.388 . S
C342 C343 1.372 . S
C343 C342 1.372 . S
C343 C344 1.400 . S
C343 C348 1.490 . S
C344 H334 0.930 . S
C344 C343 1.400 . S
C344 C347 1.386 . S
H345 C361 0.930 . S
H346 C362 0.931 . S
C347 H335 0.929 . S
C347 C341 1.390 . S
C347 C344 1.386 . S
C348 C343 1.490 . S
C348 C350 1.395 . S
C348 C351 1.403 . S
H349 C355 0.930 . S
C350 H336 0.930 . S
C350 C348 1.395 . S
C350 C353 1.403 . S
C351 C348 1.403 . S
C351 C352 1.524 . S
C351 C355 1.400 . S
C352 H337 0.960 . S
C352 H338 0.960 . S
C352 H339 0.960 . S
C352 C351 1.524 . S
C353 C350 1.403 . S
C353 C354 1.392 . S
C353 C357 1.495 . S
C354 C353 1.392 . S
C354 C355 1.385 . S
C354 C356 1.478 . S
C355 H349 0.930 . S
C355 C351 1.400 . S
C355 C354 1.385 . S
C356 C354 1.478 . S
C356 C358 1.381 . S
C356 C362 1.383 . S
C357 C353 1.495 . S
C357 H363 0.959 . S
C357 H364 0.961 . S
C357 H365 0.960 . S
C358 C356 1.381 . S
C358 C359 1.394 . S
C358 H366 0.930 . S
C359 C358 1.394 . S
C359 C360 1.383 . S
C359 H367 0.929 . S
C360 C359 1.383 . S
C360 C361 1.377 . S
C361 H345 0.930 . S
C361 C360 1.377 . S
C361 C362 1.379 . S
C362 H346 0.931 . S
C362 C356 1.383 . S
C362 C361 1.379 . S
H363 C357 0.959 . S
H364 C357 0.961 . S
H365 C357 0.960 . S
H366 C358 0.930 . S
H367 C359 0.929 . S
H368 C376 0.929 . S
H369 C378 0.930 . S
H370 C380 0.930 . S
H371 C383 0.929 1_554 S
H372 C386 0.930 . S
H373 C388 0.960 . S
H374 C388 0.960 . S
H375 C388 0.960 . S
C376 H368 0.929 . S
C376 C377 1.377 . S
C376 C378 1.384 . S
C377 C376 1.377 . S
C377 C383 1.390 . S
C378 H369 0.930 . S
C378 C376 1.384 . S
C378 C379 1.372 . S
C379 C378 1.372 . S
C379 C380 1.400 . S
C379 C384 1.490 . S
C380 H370 0.930 . S
C380 C379 1.400 . S
C380 C383 1.386 . S
H381 C397 0.930 . S
H382 C398 0.931 . S
C383 H371 0.929 1_556 S
C383 C377 1.390 . S
C383 C380 1.386 . S
C384 C379 1.490 . S
C384 C386 1.395 . S
C384 C387 1.403 . S
H385 C391 0.930 . S
C386 H372 0.930 . S
C386 C384 1.395 . S
C386 C389 1.403 . S
C387 C384 1.403 . S
C387 C388 1.524 . S
C387 C391 1.400 . S
C388 H373 0.960 . S
C388 H374 0.960 . S
C388 H375 0.960 . S
C388 C387 1.524 . S
C389 C386 1.403 . S
C389 C390 1.392 . S
C389 C393 1.495 . S
C390 C389 1.392 . S
C390 C391 1.385 . S
C390 C392 1.478 . S
C391 H385 0.930 . S
C391 C387 1.400 . S
C391 C390 1.385 . S
C392 C390 1.478 . S
C392 C394 1.381 . S
C392 C398 1.383 . S
C393 C389 1.495 . S
C393 H399 0.959 . S
C393 H400 0.961 . S
C393 H401 0.960 . S
C394 C392 1.381 . S
C394 C395 1.394 . S
C394 H402 0.930 . S
C395 C394 1.394 . S
C395 C396 1.383 . S
C395 H403 0.929 . S
C396 C395 1.383 . S
C396 C397 1.377 . S
C397 H381 0.930 . S
C397 C396 1.377 . S
C397 C398 1.379 . S
C398 H382 0.931 . S
C398 C392 1.383 . S
C398 C397 1.379 . S
H399 C393 0.959 . S
H400 C393 0.961 . S
H401 C393 0.960 . S
H402 C394 0.930 . S
H403 C395 0.929 . S
H404 C412 0.929 . S
H405 C414 0.930 . S
H406 C416 0.930 . S
H407 C419 0.929 . S
H408 C422 0.930 . S
H409 C424 0.960 . S
H410 C424 0.960 . S
H411 C424 0.960 . S
C412 H404 0.929 . S
C412 C413 1.388 1_554 S
C412 C414 1.384 1_554 S
C413 C412 1.388 1_556 S
C413 C419 1.381 1_455 S
C414 H405 0.930 . S
C414 C412 1.384 1_556 S
C414 C415 1.372 . S
C415 C414 1.372 . S
C415 C416 1.400 1_455 S
C415 C420 1.490 . S
C416 H406 0.930 . S
C416 C415 1.400 1_655 S
C416 C419 1.386 . S
H417 C433 0.930 . S
H418 C434 0.931 . S
C419 H407 0.929 . S
C419 C413 1.381 1_655 S
C419 C416 1.386 . S
C420 C415 1.490 . S
C420 C422 1.395 1_455 S
C420 C423 1.403 . S
H421 C427 0.930 . S
C422 H408 0.930 . S
C422 C420 1.395 1_655 S
C422 C425 1.403 . S
C423 C420 1.403 . S
C423 C424 1.524 . S
C423 C427 1.400 . S
C424 H409 0.960 . S
C424 H410 0.960 . S
C424 H411 0.960 . S
C424 C423 1.524 . S
C425 C422 1.403 . S
C425 C426 1.392 1_655 S
C425 C429 1.495 . S
C426 C425 1.392 1_455 S
C426 C427 1.385 . S
C426 C428 1.478 . S
C427 H421 0.930 . S
C427 C423 1.400 . S
C427 C426 1.385 . S
C428 C426 1.478 . S
C428 C430 1.381 . S
C428 C434 1.383 1_455 S
C429 C425 1.495 . S
C429 H435 0.959 . S
C429 H436 0.961 . S
C429 H437 0.960 . S
C430 C428 1.381 . S
C430 C431 1.394 . S
C430 H438 0.930 . S
C431 C430 1.394 . S
C431 C432 1.383 . S
C431 H439 0.929 . S
C432 C431 1.383 . S
C432 C433 1.377 1_455 S
C433 H417 0.930 . S
C433 C432 1.377 1_655 S
C433 C434 1.379 . S
C434 H418 0.931 . S
C434 C428 1.383 1_655 S
C434 C433 1.379 . S
H435 C429 0.959 . S
H436 C429 0.961 . S
H437 C429 0.960 . S
H438 C430 0.930 . S
H439 C431 0.929 . S
H440 C448 0.929 . S
H441 C450 0.930 . S
H442 C452 0.930 . S
H443 C455 0.929 . S
H444 C458 0.930 . S
H445 C460 0.960 . S
H446 C460 0.960 1_655 S
H447 C460 0.960 . S
C448 H440 0.929 . S
C448 C449 1.368 1_655 S
C448 C450 1.384 . S
C449 C448 1.368 1_455 S
C449 C455 1.398 . S
C450 H441 0.930 . S
C450 C448 1.384 . S
C450 C451 1.372 . S
C451 C450 1.372 . S
C451 C452 1.400 1_655 S
C451 C456 1.490 . S
C452 H442 0.930 . S
C452 C451 1.400 1_455 S
C452 C455 1.386 . S
H453 C469 0.930 . S
H454 C470 0.931 . S
C455 H443 0.929 . S
C455 C449 1.398 . S
C455 C452 1.386 . S
C456 C451 1.490 . S
C456 C458 1.395 . S
C456 C459 1.403 . S
H457 C463 0.930 . S
C458 H444 0.930 . S
C458 C456 1.395 . S
C458 C461 1.403 . S
C459 C456 1.403 . S
C459 C460 1.524 1_655 S
C459 C463 1.400 . S
C460 H445 0.960 . S
C460 H446 0.960 1_455 S
C460 H447 0.960 . S
C460 C459 1.524 1_455 S
C461 C458 1.403 . S
C461 C462 1.392 . S
C461 C465 1.495 . S
C462 C461 1.392 . S
C462 C463 1.385 . S
C462 C464 1.478 . S
C463 H457 0.930 . S
C463 C459 1.400 . S
C463 C462 1.385 . S
C464 C462 1.478 . S
C464 C466 1.381 . S
C464 C470 1.383 1_655 S
C465 C461 1.495 . S
C465 H471 0.959 . S
C465 H472 0.961 . S
C465 H473 0.960 . S
C466 C464 1.381 . S
C466 C467 1.394 . S
C466 H474 0.930 . S
C467 C466 1.394 . S
C467 C468 1.383 . S
C467 H475 0.929 . S
C468 C467 1.383 . S
C468 C469 1.377 1_655 S
C469 H453 0.930 . S
C469 C468 1.377 1_455 S
C469 C470 1.379 . S
C470 H454 0.931 . S
C470 C464 1.383 1_455 S
C470 C469 1.379 . S
H471 C465 0.959 . S
H472 C465 0.961 . S
H473 C465 0.960 . S
H474 C466 0.930 . S
H475 C467 0.929 . S
H476 C484 0.929 . S
H477 C486 0.930 . S
H478 C488 0.930 . S
H479 C491 0.929 . S
H480 C494 0.930 . S
H481 C496 0.960 . S
H482 C496 0.960 . S
H483 C496 0.960 . S
C484 H476 0.929 . S
C484 C485 1.377 . S
C484 C486 1.384 . S
C485 C484 1.377 . S
C485 C491 1.390 . S
C486 H477 0.930 . S
C486 C484 1.384 . S
C486 C487 1.372 . S
C487 C486 1.372 . S
C487 C488 1.400 . S
C487 C492 1.490 . S
C488 H478 0.930 . S
C488 C487 1.400 . S
C488 C491 1.386 . S
H489 C505 0.930 1_565 S
H490 C506 0.938 . S
C491 H479 0.929 . S
C491 C485 1.390 . S
C491 C488 1.386 . S
C492 C487 1.490 . S
C492 C494 1.395 . S
C492 C495 1.403 . S
H493 C499 0.930 . S
C494 H480 0.930 . S
C494 C492 1.395 . S
C494 C497 1.403 . S
C495 C492 1.403 . S
C495 C496 1.524 . S
C495 C499 1.400 . S
C496 H481 0.960 . S
C496 H482 0.960 . S
C496 H483 0.960 . S
C496 C495 1.524 . S
C497 C494 1.403 . S
C497 C498 1.392 . S
C497 C501 1.495 . S
C498 C497 1.392 . S
C498 C499 1.385 . S
C498 C500 1.478 . S
C499 H493 0.930 . S
C499 C495 1.400 . S
C499 C498 1.385 . S
C500 C498 1.478 . S
C500 C502 1.381 . S
C500 C506 1.383 . S
C501 C497 1.495 . S
C501 H507 0.959 . S
C501 H508 0.961 . S
C501 H509 0.960 . S
C502 C500 1.381 . S
C502 C503 1.394 . S
C502 H510 0.930 . S
C503 C502 1.394 . S
C503 C504 1.383 . S
C503 H511 0.929 . S
C504 C503 1.383 . S
C504 C505 1.377 . S
C505 H489 0.930 1_545 S
C505 C504 1.377 . S
C505 C506 1.379 . S
C506 H490 0.938 . S
C506 C500 1.383 . S
C506 C505 1.379 . S
H507 C501 0.959 . S
H508 C501 0.961 . S
H509 C501 0.960 . S
H510 C502 0.930 . S
H511 C503 0.929 . S
H512 C520 0.929 . S
H513 C522 0.930 . S
H514 C524 0.930 . S
H515 C527 0.929 . S
H516 C530 0.930 . S
H517 C532 0.960 . S
H518 C532 0.960 . S
H519 C532 0.960 . S
C520 H512 0.929 . S
C520 C521 1.377 . S
C520 C522 1.384 . S
C521 C520 1.377 . S
C521 C527 1.390 . S
C522 H513 0.930 . S
C522 C520 1.384 . S
C522 C523 1.372 . S
C523 C522 1.372 . S
C523 C524 1.400 . S
C523 C528 1.490 . S
C524 H514 0.930 . S
C524 C523 1.400 . S
C524 C527 1.386 . S
H525 C541 0.930 . S
H526 C542 0.931 . S
C527 H515 0.929 . S
C527 C521 1.390 . S
C527 C524 1.386 . S
C528 C523 1.490 . S
C528 C530 1.395 . S
C528 C531 1.403 . S
H529 C535 0.930 . S
C530 H516 0.930 . S
C530 C528 1.395 . S
C530 C533 1.403 . S
C531 C528 1.403 . S
C531 C532 1.524 . S
C531 C535 1.400 . S
C532 H517 0.960 . S
C532 H518 0.960 . S
C532 H519 0.960 . S
C532 C531 1.524 . S
C533 C530 1.403 . S
C533 C534 1.392 . S
C533 C537 1.495 . S
C534 C533 1.392 . S
C534 C535 1.385 . S
C534 C536 1.478 . S
C535 H529 0.930 . S
C535 C531 1.400 . S
C535 C534 1.385 . S
C536 C534 1.478 . S
C536 C538 1.381 . S
C536 C542 1.383 . S
C537 C533 1.495 . S
C537 H543 0.959 . S
C537 H544 0.961 . S
C537 H545 0.960 . S
C538 C536 1.381 . S
C538 C539 1.394 . S
C538 H546 0.930 . S
C539 C538 1.394 . S
C539 C540 1.383 . S
C539 H547 0.929 . S
C540 C539 1.383 . S
C540 C541 1.377 . S
C541 H525 0.930 . S
C541 C540 1.377 . S
C541 C542 1.379 . S
C542 H526 0.931 . S
C542 C536 1.383 . S
C542 C541 1.379 . S
H543 C537 0.959 . S
H544 C537 0.961 . S
H545 C537 0.960 . S
H546 C538 0.930 . S
H547 C539 0.929 . S
H548 C556 0.929 . S
H549 C558 0.930 . S
H550 C560 0.930 . S
H551 C563 0.929 . S
H552 C566 0.930 . S
H553 C568 0.960 . S
H554 C568 0.960 . S
H555 C568 0.960 . S
C556 H548 0.929 . S
C556 C557 1.377 . S
C556 C558 1.384 . S
C557 C556 1.377 . S
C557 C563 1.390 . S
C558 H549 0.930 . S
C558 C556 1.384 . S
C558 C559 1.372 . S
C559 C558 1.372 . S
C559 C560 1.400 . S
C559 C564 1.490 . S
C560 H550 0.930 . S
C560 C559 1.400 . S
C560 C563 1.386 . S
H561 C577 0.930 . S
H562 C578 0.931 . S
C563 H551 0.929 . S
C563 C557 1.390 . S
C563 C560 1.386 . S
C564 C559 1.490 . S
C564 C566 1.395 . S
C564 C567 1.403 . S
H565 C571 0.930 . S
C566 H552 0.930 . S
C566 C564 1.395 . S
C566 C569 1.403 . S
C567 C564 1.403 . S
C567 C568 1.524 . S
C567 C571 1.400 . S
C568 H553 0.960 . S
C568 H554 0.960 . S
C568 H555 0.960 . S
C568 C567 1.524 . S
C569 C566 1.403 . S
C569 C570 1.392 . S
C569 C573 1.495 . S
C570 C569 1.392 . S
C570 C571 1.385 . S
C570 C572 1.478 . S
C571 H565 0.930 . S
C571 C567 1.400 . S
C571 C570 1.385 . S
C572 C570 1.478 . S
C572 C574 1.381 . S
C572 C578 1.383 . S
C573 C569 1.495 . S
C573 H579 0.959 . S
C573 H580 0.961 . S
C573 H581 0.960 . S
C574 C572 1.381 . S
C574 C575 1.394 . S
C574 H582 0.930 . S
C575 C574 1.394 . S
C575 C576 1.383 . S
C575 H583 0.929 . S
C576 C575 1.383 . S
C576 C577 1.377 . S
C577 H561 0.930 . S
C577 C576 1.377 . S
C577 C578 1.379 . S
C578 H562 0.931 . S
C578 C572 1.383 . S
C578 C577 1.379 . S
H579 C573 0.959 . S
H580 C573 0.961 . S
H581 C573 0.960 . S
H582 C574 0.930 . S
H583 C575 0.929 . S
H584 C592 0.929 1_554 S
H585 C594 0.930 . S
H586 C596 0.930 . S
H587 C599 0.929 . S
H588 C602 0.930 . S
H589 C604 0.960 . S
H590 C604 0.960 . S
H591 C604 0.960 . S
C592 H584 0.929 1_556 S
C592 C593 1.361 1_455 S
C592 C594 1.384 . S
C593 C592 1.361 1_655 S
C593 C599 1.404 . S
C594 H585 0.930 . S
C594 C592 1.384 . S
C594 C595 1.372 . S
C595 C594 1.372 . S
C595 C596 1.400 1_455 S
C595 C600 1.490 . S
C596 H586 0.930 . S
C596 C595 1.400 1_655 S
C596 C599 1.386 . S
H597 C613 0.930 . S
H598 C614 0.931 . S
C599 H587 0.929 . S
C599 C593 1.404 . S
C599 C596 1.386 . S
C600 C595 1.490 . S
C600 C602 1.395 . S
C600 C603 1.403 1_455 S
H601 C607 0.930 . S
C602 H588 0.930 . S
C602 C600 1.395 . S
C602 C605 1.403 . S
C603 C600 1.403 1_655 S
C603 C604 1.524 . S
C603 C607 1.400 . S
C604 H589 0.960 . S
C604 H590 0.960 . S
C604 H591 0.960 . S
C604 C603 1.524 . S
C605 C602 1.403 . S
C605 C606 1.392 . S
C605 C609 1.495 . S
C606 C605 1.392 . S
C606 C607 1.385 1_455 S
C606 C608 1.478 . S
C607 H601 0.930 . S
C607 C603 1.400 . S
C607 C606 1.385 1_655 S
C608 C606 1.478 . S
C608 C610 1.381 . S
C608 C614 1.383 . S
C609 C605 1.495 . S
C609 H615 0.959 . S
C609 H616 0.961 . S
C609 H617 0.960 . S
C610 C608 1.381 . S
C610 C611 1.394 . S
C610 H618 0.930 . S
C611 C610 1.394 . S
C611 C612 1.383 . S
C611 H619 0.929 . S
C612 C611 1.383 . S
C612 C613 1.377 . S
C613 H597 0.930 . S
C613 C612 1.377 . S
C613 C614 1.379 . S
C614 H598 0.931 . S
C614 C608 1.383 . S
C614 C613 1.379 . S
H615 C609 0.959 . S
H616 C609 0.961 . S
H617 C609 0.960 . S
H618 C610 0.930 . S
H619 C611 0.929 . S
H620 C628 0.929 . S
H621 C630 0.930 . S
H622 C632 0.930 . S
H623 C635 0.929 1_554 S
H624 C638 0.930 . S
H625 C640 0.960 1_545 S
H626 C640 0.960 . S
H627 C640 0.960 . S
C628 H620 0.929 . S
C628 C629 1.377 . S
C628 C630 1.384 . S
C629 C628 1.377 . S
C629 C635 1.390 . S
C630 H621 0.930 . S
C630 C628 1.384 . S
C630 C631 1.372 . S
C631 C630 1.372 . S
C631 C632 1.400 . S
C631 C636 1.490 . S
C632 H622 0.930 . S
C632 C631 1.400 . S
C632 C635 1.386 . S
H633 C649 0.930 . S
H634 C650 0.931 . S
C635 H623 0.929 1_556 S
C635 C629 1.390 . S
C635 C632 1.386 . S
C636 C631 1.490 . S
C636 C638 1.395 . S
C636 C639 1.403 . S
H637 C643 0.930 . S
C638 H624 0.930 . S
C638 C636 1.395 . S
C638 C641 1.403 . S
C639 C636 1.403 . S
C639 C640 1.524 . S
C639 C643 1.400 . S
C640 H625 0.960 1_565 S
C640 H626 0.960 . S
C640 H627 0.960 . S
C640 C639 1.524 . S
C641 C638 1.403 . S
C641 C642 1.392 . S
C641 C645 1.495 . S
C642 C641 1.392 . S
C642 C643 1.385 . S
C642 C644 1.478 . S
C643 H637 0.930 . S
C643 C639 1.400 . S
C643 C642 1.385 . S
C644 C642 1.478 . S
C644 C646 1.381 . S
C644 C650 1.383 . S
C645 C641 1.495 . S
C645 H651 0.959 . S
C645 H652 0.961 . S
C645 H653 0.960 . S
C646 C644 1.381 . S
C646 C647 1.394 . S
C646 H654 0.930 . S
C647 C646 1.394 . S
C647 C648 1.383 . S
C647 H655 0.929 1_565 S
C648 C647 1.383 . S
C648 C649 1.377 . S
C649 H633 0.930 . S
C649 C648 1.377 . S
C649 C650 1.379 . S
C650 H634 0.931 . S
C650 C644 1.383 . S
C650 C649 1.379 . S
H651 C645 0.959 . S
H652 C645 0.961 . S
H653 C645 0.960 . S
H654 C646 0.930 . S
H655 C647 0.929 1_545 S
H656 C664 0.929 . S
H657 C666 0.930 . S
H658 C668 0.930 . S
H659 C671 0.929 . S
H660 C674 0.930 . S
H661 C676 0.960 . S
H662 C676 0.960 . S
H663 C676 0.960 . S
C664 H656 0.929 . S
C664 C665 1.377 . S
C664 C666 1.384 . S
C665 C664 1.377 . S
C665 C671 1.390 . S
C666 H657 0.930 . S
C666 C664 1.384 . S
C666 C667 1.372 . S
C667 C666 1.372 . S
C667 C668 1.400 . S
C667 C672 1.490 . S
C668 H658 0.930 . S
C668 C667 1.400 . S
C668 C671 1.386 . S
H669 C685 0.930 . S
H670 C686 0.931 . S
C671 H659 0.929 . S
C671 C665 1.390 . S
C671 C668 1.386 . S
C672 C667 1.490 . S
C672 C674 1.395 . S
C672 C675 1.403 . S
H673 C679 0.930 . S
C674 H660 0.930 . S
C674 C672 1.395 . S
C674 C677 1.403 . S
C675 C672 1.403 . S
C675 C676 1.524 . S
C675 C679 1.400 . S
C676 H661 0.960 . S
C676 H662 0.960 . S
C676 H663 0.960 . S
C676 C675 1.524 . S
C677 C674 1.403 . S
C677 C678 1.392 . S
C677 C681 1.495 . S
C678 C677 1.392 . S
C678 C679 1.385 . S
C678 C680 1.478 . S
C679 H673 0.930 . S
C679 C675 1.400 . S
C679 C678 1.385 . S
C680 C678 1.478 . S
C680 C682 1.381 . S
C680 C686 1.383 . S
C681 C677 1.495 . S
C681 H687 0.959 . S
C681 H688 0.961 . S
C681 H689 0.960 . S
C682 C680 1.381 . S
C682 C683 1.394 . S
C682 H690 0.930 . S
C683 C682 1.394 . S
C683 C684 1.383 . S
C683 H691 0.929 . S
C684 C683 1.383 . S
C684 C685 1.377 . S
C685 H669 0.930 . S
C685 C684 1.377 . S
C685 C686 1.379 . S
C686 H670 0.931 . S
C686 C680 1.383 . S
C686 C685 1.379 . S
H687 C681 0.959 . S
H688 C681 0.961 . S
H689 C681 0.960 . S
H690 C682 0.930 . S
H691 C683 0.929 . S
H692 C700 0.929 . S
H693 C702 0.930 . S
H694 C704 0.930 . S
H695 C707 0.929 . S
H696 C710 0.930 . S
H697 C712 0.960 . S
H698 C712 0.960 . S
H699 C712 0.960 . S
C700 H692 0.929 . S
C700 C701 1.377 . S
C700 C702 1.384 . S
C701 C700 1.377 . S
C701 C707 1.390 . S
C702 H693 0.930 . S
C702 C700 1.384 . S
C702 C703 1.372 . S
C703 C702 1.372 . S
C703 C704 1.400 . S
C703 C708 1.490 . S
C704 H694 0.930 . S
C704 C703 1.400 . S
C704 C707 1.386 . S
H705 C721 0.930 . S
H706 C722 0.931 . S
C707 H695 0.929 . S
C707 C701 1.390 . S
C707 C704 1.386 . S
C708 C703 1.490 . S
C708 C710 1.395 . S
C708 C711 1.403 . S
H709 C715 0.930 . S
C710 H696 0.930 . S
C710 C708 1.395 . S
C710 C713 1.403 . S
C711 C708 1.403 . S
C711 C712 1.524 . S
C711 C715 1.400 . S
C712 H697 0.960 . S
C712 H698 0.960 . S
C712 H699 0.960 . S
C712 C711 1.524 . S
C713 C710 1.403 . S
C713 C714 1.392 . S
C713 C717 1.495 . S
C714 C713 1.392 . S
C714 C715 1.385 . S
C714 C716 1.478 . S
C715 H709 0.930 . S
C715 C711 1.400 . S
C715 C714 1.385 . S
C716 C714 1.478 . S
C716 C718 1.381 . S
C716 C722 1.383 . S
C717 C713 1.495 . S
C717 H723 0.959 . S
C717 H724 0.961 . S
C717 H725 0.960 . S
C718 C716 1.381 . S
C718 C719 1.394 . S
C718 H726 0.930 . S
C719 C718 1.394 . S
C719 C720 1.383 . S
C719 H727 0.929 . S
C720 C719 1.383 . S
C720 C721 1.377 . S
C721 H705 0.930 . S
C721 C720 1.377 . S
C721 C722 1.379 . S
C722 H706 0.931 . S
C722 C716 1.383 . S
C722 C721 1.379 . S
H723 C717 0.959 . S
H724 C717 0.961 . S
H725 C717 0.960 . S
H726 C718 0.930 . S
H727 C719 0.929 . S
H728 C736 0.929 . S
H729 C738 0.930 . S
H730 C740 0.930 . S
H731 C743 0.929 . S
H732 C746 0.930 . S
H733 C748 0.960 . S
H734 C748 0.960 . S
H735 C748 0.960 . S
C736 H728 0.929 . S
C736 C737 1.411 . S
C736 C738 1.384 1_554 S
C737 C736 1.411 . S
C737 C743 1.358 1_455 S
C738 H729 0.930 . S
C738 C736 1.384 1_556 S
C738 C739 1.372 . S
C739 C738 1.372 . S
C739 C740 1.400 1_455 S
C739 C744 1.490 . S
C740 H730 0.930 . S
C740 C739 1.400 1_655 S
C740 C743 1.386 1_556 S
H741 C757 0.930 . S
H742 C758 0.931 . S
C743 H731 0.929 . S
C743 C737 1.358 1_655 S
C743 C740 1.386 1_554 S
C744 C739 1.490 . S
C744 C746 1.395 . S
C744 C747 1.403 1_455 S
H745 C751 0.930 . S
C746 H732 0.930 . S
C746 C744 1.395 . S
C746 C749 1.403 . S
C747 C744 1.403 1_655 S
C747 C748 1.524 . S
C747 C751 1.400 . S
C748 H733 0.960 . S
C748 H734 0.960 . S
C748 H735 0.960 . S
C748 C747 1.524 . S
C749 C746 1.403 . S
C749 C750 1.392 . S
C749 C753 1.495 . S
C750 C749 1.392 . S
C750 C751 1.385 1_455 S
C750 C752 1.478 . S
C751 H745 0.930 . S
C751 C747 1.400 . S
C751 C750 1.385 1_655 S
C752 C750 1.478 . S
C752 C754 1.381 . S
C752 C758 1.383 1_455 S
C753 C749 1.495 . S
C753 H759 0.959 . S
C753 H760 0.961 . S
C753 H761 0.960 . S
C754 C752 1.381 . S
C754 C755 1.394 . S
C754 H762 0.930 . S
C755 C754 1.394 . S
C755 C756 1.383 . S
C755 H763 0.929 . S
C756 C755 1.383 . S
C756 C757 1.377 1_455 S
C757 H741 0.930 . S
C757 C756 1.377 1_655 S
C757 C758 1.379 . S
C758 H742 0.931 . S
C758 C752 1.383 1_655 S
C758 C757 1.379 . S
H759 C753 0.959 . S
H760 C753 0.961 . S
H761 C753 0.960 . S
H762 C754 0.930 . S
H763 C755 0.929 . S
H764 C772 0.929 . S
H765 C774 0.930 . S
H766 C776 0.930 . S
H767 C779 0.929 . S
H768 C782 0.930 . S
H769 C784 0.960 . S
H770 C784 0.960 . S
H771 C784 0.960 . S
C772 H764 0.929 . S
C772 C773 1.377 1_556 S
C772 C774 1.384 . S
C773 C772 1.377 1_554 S
C773 C779 1.390 . S
C774 H765 0.930 . S
C774 C772 1.384 . S
C774 C775 1.372 . S
C775 C774 1.372 . S
C775 C776 1.400 . S
C775 C780 1.490 . S
C776 H766 0.930 . S
C776 C775 1.400 . S
C776 C779 1.386 1_556 S
H777 C793 0.930 . S
H778 C794 0.931 . S
C779 H767 0.929 . S
C779 C773 1.390 . S
C779 C776 1.386 1_554 S
C780 C775 1.490 . S
C780 C782 1.395 . S
C780 C783 1.403 . S
H781 C787 0.930 . S
C782 H768 0.930 . S
C782 C780 1.395 . S
C782 C785 1.403 . S
C783 C780 1.403 . S
C783 C784 1.524 1_556 S
C783 C787 1.400 . S
C784 H769 0.960 . S
C784 H770 0.960 . S
C784 H771 0.960 . S
C784 C783 1.524 1_554 S
C785 C782 1.403 . S
C785 C786 1.392 . S
C785 C789 1.495 . S
C786 C785 1.392 . S
C786 C787 1.385 . S
C786 C788 1.478 . S
C787 H781 0.930 . S
C787 C783 1.400 . S
C787 C786 1.385 . S
C788 C786 1.478 . S
C788 C790 1.381 . S
C788 C794 1.383 . S
C789 C785 1.495 . S
C789 H795 0.959 . S
C789 H796 0.961 . S
C789 H797 0.960 . S
C790 C788 1.381 . S
C790 C791 1.394 . S
C790 H798 0.930 . S
C791 C790 1.394 . S
C791 C792 1.383 . S
C791 H799 0.929 . S
C792 C791 1.383 . S
C792 C793 1.377 . S
C793 H777 0.930 . S
C793 C792 1.377 . S
C793 C794 1.379 . S
C794 H778 0.931 . S
C794 C788 1.383 . S
C794 C793 1.379 . S
H795 C789 0.959 . S
H796 C789 0.961 . S
H797 C789 0.960 . S
H798 C790 0.930 . S
H799 C791 0.929 . S
H800 C808 0.929 . S
H801 C810 0.930 . S
H802 C812 0.930 . S
H803 C815 0.929 . S
H804 C818 0.930 . S
H805 C820 0.960 . S
H806 C820 0.960 1_554 S
H807 C820 0.960 . S
C808 H800 0.929 . S
C808 C809 1.377 . S
C808 C810 1.384 1_554 S
C809 C808 1.377 . S
C809 C815 1.390 . S
C810 H801 0.930 . S
C810 C808 1.384 1_556 S
C810 C811 1.372 . S
C811 C810 1.372 . S
C811 C812 1.400 . S
C811 C816 1.490 . S
C812 H802 0.930 . S
C812 C811 1.400 . S
C812 C815 1.386 1_556 S
H813 C829 0.930 . S
H814 C830 0.931 . S
C815 H803 0.929 . S
C815 C809 1.390 . S
C815 C812 1.386 1_554 S
C816 C811 1.490 . S
C816 C818 1.395 . S
C816 C819 1.403 . S
H817 C823 0.930 . S
C818 H804 0.930 . S
C818 C816 1.395 . S
C818 C821 1.403 . S
C819 C816 1.403 . S
C819 C820 1.524 . S
C819 C823 1.400 . S
C820 H805 0.960 . S
C820 H806 0.960 1_556 S
C820 H807 0.960 . S
C820 C819 1.524 . S
C821 C818 1.403 . S
C821 C822 1.392 . S
C821 C825 1.495 . S
C822 C821 1.392 . S
C822 C823 1.385 . S
C822 C824 1.478 . S
C823 H817 0.930 . S
C823 C819 1.400 . S
C823 C822 1.385 . S
C824 C822 1.478 . S
C824 C826 1.381 . S
C824 C830 1.383 . S
C825 C821 1.495 . S
C825 H831 0.959 . S
C825 H832 0.961 . S
C825 H833 0.960 . S
C826 C824 1.381 . S
C826 C827 1.394 . S
C826 H834 0.930 . S
C827 C826 1.394 . S
C827 C828 1.383 . S
C827 H835 0.929 . S
C828 C827 1.383 . S
C828 C829 1.377 . S
C829 H813 0.930 . S
C829 C828 1.377 . S
C829 C830 1.379 . S
C830 H814 0.931 . S
C830 C824 1.383 . S
C830 C829 1.379 . S
H831 C825 0.959 . S
H832 C825 0.961 . S
H833 C825 0.960 . S
H834 C826 0.930 . S
H835 C827 0.929 . S
H836 C844 0.929 . S
H837 C846 0.930 . S
H838 C848 0.930 . S
H839 C851 0.929 . S
H840 C854 0.930 . S
H841 C856 0.960 . S
H842 C856 0.960 . S
H843 C856 0.960 . S
C844 H836 0.929 . S
C844 C845 1.377 . S
C844 C846 1.384 . S
C845 C844 1.377 . S
C845 C851 1.390 1_554 S
C846 H837 0.930 . S
C846 C844 1.384 . S
C846 C847 1.372 1_554 S
C847 C846 1.372 1_556 S
C847 C848 1.400 . S
C847 C852 1.490 . S
C848 H838 0.930 . S
C848 C847 1.400 . S
C848 C851 1.386 . S
H849 C865 0.930 . S
H850 C866 0.931 . S
C851 H839 0.929 . S
C851 C845 1.390 1_556 S
C851 C848 1.386 . S
C852 C847 1.490 . S
C852 C854 1.395 . S
C852 C855 1.403 . S
H853 C859 0.930 . S
C854 H840 0.930 . S
C854 C852 1.395 . S
C854 C857 1.403 . S
C855 C852 1.403 . S
C855 C856 1.524 . S
C855 C859 1.400 . S
C856 H841 0.960 . S
C856 H842 0.960 . S
C856 H843 0.960 . S
C856 C855 1.524 . S
C857 C854 1.403 . S
C857 C858 1.392 . S
C857 C861 1.495 . S
C858 C857 1.392 . S
C858 C859 1.385 . S
C858 C860 1.478 . S
C859 H853 0.930 . S
C859 C855 1.400 . S
C859 C858 1.385 . S
C860 C858 1.478 . S
C860 C862 1.381 . S
C860 C866 1.383 . S
C861 C857 1.495 . S
C861 H867 0.959 . S
C861 H868 0.961 . S
C861 H869 0.960 . S
C862 C860 1.381 . S
C862 C863 1.394 . S
C862 H870 0.930 . S
C863 C862 1.394 . S
C863 C864 1.383 . S
C863 H871 0.929 . S
C864 C863 1.383 . S
C864 C865 1.377 . S
C865 H849 0.930 . S
C865 C864 1.377 . S
C865 C866 1.379 . S
C866 H850 0.931 . S
C866 C860 1.383 . S
C866 C865 1.379 . S
H867 C861 0.959 . S
H868 C861 0.961 . S
H869 C861 0.960 . S
H870 C862 0.930 . S
H871 C863 0.929 . S
H872 C880 0.929 . S
H873 C882 0.928 1_455 S
H874 C884 0.930 . S
H875 C887 0.929 . S
H876 C890 0.930 . S
H877 C892 0.960 . S
H878 C892 0.960 . S
H879 C892 0.960 . S
C880 H872 0.929 . S
C880 C881 1.376 1_455 S
C880 C882 1.383 1_455 S
C881 C880 1.376 1_655 S
C881 C887 1.395 . S
C882 H873 0.928 1_655 S
C882 C880 1.383 1_655 S
C882 C883 1.374 . S
C883 C882 1.374 . S
C883 C884 1.400 . S
C883 C888 1.490 . S
C884 H874 0.930 . S
C884 C883 1.400 . S
C884 C887 1.386 . S
H885 C901 0.930 . S
H886 C902 0.932 . S
C887 H875 0.929 . S
C887 C881 1.395 . S
C887 C884 1.386 . S
C888 C883 1.490 . S
C888 C890 1.395 1_655 S
C888 C891 1.403 . S
H889 C895 0.930 . S
C890 H876 0.930 . S
C890 C888 1.395 1_455 S
C890 C893 1.403 . S
C891 C888 1.403 . S
C891 C892 1.524 . S
C891 C895 1.400 . S
C892 H877 0.960 . S
C892 H878 0.960 . S
C892 H879 0.960 . S
C892 C891 1.524 . S
C893 C890 1.403 . S
C893 C894 1.356 1_455 S
C893 C897 1.495 . S
C894 C893 1.356 1_655 S
C894 C895 1.422 . S
C894 C896 1.480 . S
C895 H889 0.930 . S
C895 C891 1.400 . S
C895 C894 1.422 . S
C896 C894 1.480 . S
C896 C898 1.381 . S
C896 C902 1.383 . S
C897 C893 1.495 . S
C897 H903 0.959 . S
C897 H904 0.961 . S
C897 H905 0.960 . S
C898 C896 1.381 . S
C898 C899 1.394 . S
C898 H906 0.930 . S
C899 C898 1.394 . S
C899 C900 1.383 . S
C899 H907 0.929 . S
C900 C899 1.383 . S
C900 C901 1.377 . S
C901 H885 0.930 . S
C901 C900 1.377 . S
C901 C902 1.379 . S
C902 H886 0.932 . S
C902 C896 1.383 . S
C902 C901 1.379 . S
H903 C897 0.959 . S
H904 C897 0.961 . S
H905 C897 0.960 . S
H906 C898 0.930 . S
H907 C899 0.929 . S
H908 C916 0.929 . S
H909 C918 0.930 . S
H910 C920 0.930 . S
H911 C923 0.929 . S
H912 C926 0.930 . S
H913 C928 0.960 . S
H914 C928 0.960 . S
H915 C928 0.960 . S
C916 H908 0.929 . S
C916 C917 1.377 . S
C916 C918 1.384 . S
C917 C916 1.377 . S
C917 C923 1.390 . S
C918 H909 0.930 . S
C918 C916 1.384 . S
C918 C919 1.372 . S
C919 C918 1.372 . S
C919 C920 1.400 . S
C919 C924 1.490 . S
C920 H910 0.930 . S
C920 C919 1.400 . S
C920 C923 1.386 . S
H921 C937 0.930 . S
H922 C938 0.931 . S
C923 H911 0.929 . S
C923 C917 1.390 . S
C923 C920 1.386 . S
C924 C919 1.490 . S
C924 C926 1.395 . S
C924 C927 1.403 . S
H925 C931 0.930 . S
C926 H912 0.930 . S
C926 C924 1.395 . S
C926 C929 1.403 . S
C927 C924 1.403 . S
C927 C928 1.524 . S
C927 C931 1.400 . S
C928 H913 0.960 . S
C928 H914 0.960 . S
C928 H915 0.960 . S
C928 C927 1.524 . S
C929 C926 1.403 . S
C929 C930 1.392 . S
C929 C933 1.495 . S
C930 C929 1.392 . S
C930 C931 1.385 . S
C930 C932 1.478 . S
C931 H925 0.930 . S
C931 C927 1.400 . S
C931 C930 1.385 . S
C932 C930 1.478 . S
C932 C934 1.381 . S
C932 C938 1.383 . S
C933 C929 1.495 . S
C933 H939 0.959 . S
C933 H940 0.961 . S
C933 H941 0.960 . S
C934 C932 1.381 . S
C934 C935 1.394 . S
C934 H942 0.930 1_565 S
C935 C934 1.394 . S
C935 C936 1.383 . S
C935 H943 0.929 1_565 S
C936 C935 1.383 . S
C936 C937 1.377 . S
C937 H921 0.930 . S
C937 C936 1.377 . S
C937 C938 1.379 . S
C938 H922 0.931 . S
C938 C932 1.383 . S
C938 C937 1.379 . S
H939 C933 0.959 . S
H940 C933 0.961 . S
H941 C933 0.960 . S
H942 C934 0.930 1_545 S
H943 C935 0.929 1_545 S
H944 C952 0.929 . S
H945 C954 0.930 . S
H946 C956 0.930 . S
H947 C959 0.929 . S
H948 C962 0.930 . S
H949 C964 0.960 . S
H950 C964 0.960 . S
H951 C964 0.960 . S
C952 H944 0.929 . S
C952 C953 1.377 . S
C952 C954 1.384 . S
C953 C952 1.377 . S
C953 C959 1.390 . S
C954 H945 0.930 . S
C954 C952 1.384 . S
C954 C955 1.372 . S
C955 C954 1.372 . S
C955 C956 1.400 . S
C955 C960 1.490 . S
C956 H946 0.930 . S
C956 C955 1.400 . S
C956 C959 1.386 . S
H957 C973 0.930 . S
H958 C974 0.931 . S
C959 H947 0.929 . S
C959 C953 1.390 . S
C959 C956 1.386 . S
C960 C955 1.490 . S
C960 C962 1.395 . S
C960 C963 1.403 . S
H961 C967 0.930 . S
C962 H948 0.930 . S
C962 C960 1.395 . S
C962 C965 1.403 . S
C963 C960 1.403 . S
C963 C964 1.524 . S
C963 C967 1.400 . S
C964 H949 0.960 . S
C964 H950 0.960 . S
C964 H951 0.960 . S
C964 C963 1.524 . S
C965 C962 1.403 . S
C965 C966 1.392 . S
C965 C969 1.495 . S
C966 C965 1.392 . S
C966 C967 1.385 . S
C966 C968 1.478 . S
C967 H961 0.930 . S
C967 C963 1.400 . S
C967 C966 1.385 . S
C968 C966 1.478 . S
C968 C970 1.381 . S
C968 C974 1.383 . S
C969 C965 1.495 . S
C969 H975 0.959 . S
C969 H976 0.961 . S
C969 H977 0.960 . S
C970 C968 1.381 . S
C970 C971 1.394 . S
C970 H978 0.930 . S
C971 C970 1.394 . S
C971 C972 1.383 . S
C971 H979 0.929 . S
C972 C971 1.383 . S
C972 C973 1.377 . S
C973 H957 0.930 . S
C973 C972 1.377 . S
C973 C974 1.379 . S
C974 H958 0.931 . S
C974 C968 1.383 . S
C974 C973 1.379 . S
H975 C969 0.959 . S
H976 C969 0.961 . S
H977 C969 0.960 . S
H978 C970 0.930 . S
H979 C971 0.929 . S
H980 C988 0.929 . S
H981 C990 0.930 . S
H982 C992 0.930 . S
H983 C995 0.929 . S
H984 C998 0.930 . S
H985 C1000 0.960 . S
H986 C1000 0.960 . S
H987 C1000 0.960 . S
C988 H980 0.929 . S
C988 C989 1.377 . S
C988 C990 1.384 . S
C989 C988 1.377 . S
C989 C995 1.390 . S
C990 H981 0.930 . S
C990 C988 1.384 . S
C990 C991 1.372 . S
C991 C990 1.372 . S
C991 C992 1.400 . S
C991 C996 1.490 . S
C992 H982 0.930 . S
C992 C991 1.400 . S
C992 C995 1.386 . S
H993 C1009 0.930 . S
H994 C1010 0.931 . S
C995 H983 0.929 . S
C995 C989 1.390 . S
C995 C992 1.386 . S
C996 C991 1.490 . S
C996 C998 1.395 . S
C996 C999 1.403 . S
H997 C1003 0.930 . S
C998 H984 0.930 . S
C998 C996 1.395 . S
C998 C1001 1.403 . S
C999 C996 1.403 . S
C999 C1000 1.524 . S
C999 C1003 1.400 . S
C1000 H985 0.960 . S
C1000 H986 0.960 . S
C1000 H987 0.960 . S
C1000 C999 1.524 . S
C1001 C998 1.403 . S
C1001 C1002 1.392 . S
C1001 C1005 1.495 . S
C1002 C1001 1.392 . S
C1002 C1003 1.385 . S
C1002 C1004 1.478 . S
C1003 H997 0.930 . S
C1003 C999 1.400 . S
C1003 C1002 1.385 . S
C1004 C1002 1.478 . S
C1004 C1006 1.381 . S
C1004 C1010 1.383 . S
C1005 C1001 1.495 . S
C1005 H1011 0.959 . S
C1005 H1012 0.961 . S
C1005 H1013 0.960 . S
C1006 C1004 1.381 . S
C1006 C1007 1.394 . S
C1006 H1014 0.930 . S
C1007 C1006 1.394 . S
C1007 C1008 1.383 . S
C1007 H1015 0.929 . S
C1008 C1007 1.383 . S
C1008 C1009 1.377 . S
C1009 H993 0.930 . S
C1009 C1008 1.377 . S
C1009 C1010 1.379 . S
C1010 H994 0.931 . S
C1010 C1004 1.383 . S
C1010 C1009 1.379 . S
H1011 C1005 0.959 . S
H1012 C1005 0.961 . S
H1013 C1005 0.960 . S
H1014 C1006 0.930 . S
H1015 C1007 0.929 . S
C161 C61 1.468 . S
C180 C90 1.504 . S
C216 C110 1.314 . S
C197 C70 1.302 . S
C252 C130 1.474 . S
C233 C43 1.452 . S
C288 C150 1.254 . S
C269 C52 1.288 1_455 S
C324 C91 1.470 1_565 S
C305 C25 1.477 1_556 S
C341 C34 1.305 1_556 S
C360 C111 1.267 . S
C377 C7 1.465 . S
C396 C131 1.476 . S
C413 C16 1.288 1_456 S
C432 C151 1.265 . S
C468 C81 0.584 . S
C449 C50 0.449 1_455 S
C504 C101 0.526 . S
C485 C59 0.546 . S
C540 C121 0.623 . S
C521 C67 0.515 . S
C557 C41 0.479 . S
C576 C141 0.463 . S
C593 C14 0.438 . S
C612 C84 0.581 . S
C648 C104 0.496 . S
C629 C23 0.532 . S
C684 C124 0.553 . S
C665 C31 0.514 . S
C701 C5 0.494 . S
C720 C144 0.528 . S
C737 C49 1.517 1_455 S
C756 C74 1.516 . S
C773 C58 1.537 . S
C792 C94 1.482 . S
C828 C114 1.363 . S
C809 C68 1.425 . S
C864 C134 1.624 . S
C845 C40 1.645 . S
C881 C13 1.515 . S
C900 C76 1.453 . S
C936 C96 1.529 . S
C917 C22 1.547 . S
C972 C116 1.425 . S
C953 C32 1.427 . S
C989 C4 1.656 . S
C1008 C136 1.592 . S
