# Generated by pormake.
# Topology pyr, (3,6)-cn, num edge types: 1
# Building blocks:
#     Node 0, Type 0, BuildingBlock: BETDIP_clean_linker_0, # of connection points: 3
#     Node 1, Type 0, BuildingBlock: BETDIP_clean_linker_0, # of connection points: 3
#     Node 2, Type 0, BuildingBlock: BETDIP_clean_linker_0, # of connection points: 3
#     Node 3, Type 0, BuildingBlock: BETDIP_clean_linker_0, # of connection points: 3
#     Node 4, Type 0, BuildingBlock: BETDIP_clean_linker_0, # of connection points: 3
#     Node 5, Type 0, BuildingBlock: BETDIP_clean_linker_0, # of connection points: 3
#     Node 6, Type 0, BuildingBlock: BETDIP_clean_linker_0, # of connection points: 3
#     Node 7, Type 0, BuildingBlock: BETDIP_clean_linker_0, # of connection points: 3
#     Node 8, Type 1, BuildingBlock: BETFEN_clean_sbu_0, # of connection points: 6
#     Node 9, Type 1, BuildingBlock: BETFEN_clean_sbu_0, # of connection points: 6
#     Node 10, Type 1, BuildingBlock: BETFEN_clean_sbu_0, # of connection points: 6
#     Node 11, Type 1, BuildingBlock: BETFEN_clean_sbu_0, # of connection points: 6
#     Edge 12, Type (0, 1), BuildingBlock: EZIPEK_clean_linker_0, # of connection points: 2
#     Edge 13, Type (0, 1), BuildingBlock: EZIPEK_clean_linker_0, # of connection points: 2
#     Edge 14, Type (0, 1), BuildingBlock: EZIPEK_clean_linker_0, # of connection points: 2
#     Edge 15, Type (0, 1), BuildingBlock: EZIPEK_clean_linker_0, # of connection points: 2
#     Edge 16, Type (0, 1), BuildingBlock: EZIPEK_clean_linker_0, # of connection points: 2
#     Edge 17, Type (0, 1), BuildingBlock: EZIPEK_clean_linker_0, # of connection points: 2
#     Edge 18, Type (0, 1), BuildingBlock: EZIPEK_clean_linker_0, # of connection points: 2
#     Edge 19, Type (0, 1), BuildingBlock: EZIPEK_clean_linker_0, # of connection points: 2
#     Edge 20, Type (0, 1), BuildingBlock: EZIPEK_clean_linker_0, # of connection points: 2
#     Edge 21, Type (0, 1), BuildingBlock: EZIPEK_clean_linker_0, # of connection points: 2
#     Edge 22, Type (0, 1), BuildingBlock: EZIPEK_clean_linker_0, # of connection points: 2
#     Edge 23, Type (0, 1), BuildingBlock: EZIPEK_clean_linker_0, # of connection points: 2
#     Edge 24, Type (0, 1), BuildingBlock: EZIPEK_clean_linker_0, # of connection points: 2
#     Edge 25, Type (0, 1), BuildingBlock: EZIPEK_clean_linker_0, # of connection points: 2
#     Edge 26, Type (0, 1), BuildingBlock: EZIPEK_clean_linker_0, # of connection points: 2
#     Edge 27, Type (0, 1), BuildingBlock: EZIPEK_clean_linker_0, # of connection points: 2
#     Edge 28, Type (0, 1), BuildingBlock: EZIPEK_clean_linker_0, # of connection points: 2
#     Edge 29, Type (0, 1), BuildingBlock: EZIPEK_clean_linker_0, # of connection points: 2
#     Edge 30, Type (0, 1), BuildingBlock: EZIPEK_clean_linker_0, # of connection points: 2
#     Edge 31, Type (0, 1), BuildingBlock: EZIPEK_clean_linker_0, # of connection points: 2
#     Edge 32, Type (0, 1), BuildingBlock: EZIPEK_clean_linker_0, # of connection points: 2
#     Edge 33, Type (0, 1), BuildingBlock: EZIPEK_clean_linker_0, # of connection points: 2
#     Edge 34, Type (0, 1), BuildingBlock: EZIPEK_clean_linker_0, # of connection points: 2
#     Edge 35, Type (0, 1), BuildingBlock: EZIPEK_clean_linker_0, # of connection points: 2
# Relax obj value: 0.246
# Max RMSD: 0.342
# Mean RMSD: 0.164
data_MOF--net-pyr--node1-BETFEN_clean_sbu_0--node2-BETDIP_clean_linker_0--edge1-EZIPEK_clean_linker_0
_symmetry_space_group_name_H-M    P1
_symmetry_Int_Tables_number       1
_symmetry_cell_setting            triclinic
loop_
_symmetry_equiv_pos_as_xyz
'x, y, z'
_cell_length_a     26.757818
_cell_length_b     30.248887
_cell_length_c     28.037565
_cell_angle_alpha  93.014357
_cell_angle_beta   99.336025
_cell_angle_gamma 121.05126
loop_
_atom_site_label
_atom_site_type_symbol
_atom_site_fract_x
_atom_site_fract_y
_atom_site_fract_z
_atom_type_partial_charge
H0 H 0.46543 0.44565 0.32906 0.0
H1 H 0.53729 0.4458 0.20232 0.0
H2 H 0.42295 0.30081 0.24911 0.0
H3 H 0.52034 0.53421 0.19323 0.0
C4 C 0.48769 0.51032 0.21387 0.0
C5 C 0.47053 0.42446 0.29978 0.0
C6 C 0.44108 0.3697 0.29403 0.0
C7 C 0.5004 0.45108 0.26416 0.0
C8 C 0.51145 0.42482 0.22837 0.0
C9 C 0.48404 0.37054 0.22363 0.0
C10 C 0.44613 0.34317 0.25441 0.0
N11 N 0.50921 0.50075 0.25943 0.0
H12 H 0.26415 0.86043 0.75824 0.0
H13 H 0.31061 0.82225 0.62883 0.0
H14 H 0.40211 0.82615 0.77149 0.0
H15 H 0.17458 0.83067 0.70167 0.0
C16 C 0.19429 0.85301 0.67357 0.0
C17 C 0.28924 0.84802 0.741 0.0
C18 C 0.33469 0.84507 0.77071 0.0
C19 C 0.28129 0.8411 0.68974 0.0
C20 C 0.31623 0.82729 0.66829 0.0
C21 C 0.35778 0.81922 0.69764 0.0
C22 C 0.36757 0.82932 0.74873 0.0
N23 N 0.24308 0.85301 0.65963 0.0
H24 H 0.69748 0.38155 0.81458 0.0
H25 H 0.53135 0.24284 0.82343 0.0
H26 H 0.69436 0.29072 0.92762 0.0
H27 H 0.63904 0.33506 0.72399 0.0
C28 C 0.60567 0.34297 0.7317 0.0
C29 C 0.67268 0.34758 0.83148 0.0
C30 C 0.70206 0.34024 0.87351 0.0
C31 C 0.61083 0.31294 0.8131 0.0
C32 C 0.57906 0.26958 0.83693 0.0
C33 C 0.60962 0.26045 0.87771 0.0
C34 C 0.67082 0.29644 0.89559 0.0
N35 N 0.58038 0.32363 0.77291 0.0
H36 H 0.80449 0.58048 0.35052 0.0
H37 H 0.93166 0.7368 0.32919 0.0
H38 H 0.83113 0.7136 0.44052 0.0
H39 H 0.91165 0.69399 0.25168 0.0
C40 C 0.90598 0.65638 0.25633 0.0
C41 C 0.82702 0.6225 0.36045 0.0
C42 C 0.81233 0.6433 0.39807 0.0
C43 C 0.8693 0.65559 0.33455 0.0
C44 C 0.89807 0.71044 0.34776 0.0
C45 C 0.8849 0.73157 0.38653 0.0
C46 C 0.84201 0.6976 0.41117 0.0
N47 N 0.88274 0.63243 0.29667 0.0
H48 H 0.55143 0.64404 0.83627 0.0
H49 H 0.65145 0.59027 0.77411 0.0
H50 H 0.70936 0.75299 0.78911 0.0
H51 H 0.53096 0.48358 0.82693 0.0
C52 C 0.56667 0.52409 0.82983 0.0
C53 C 0.58795 0.65184 0.81893 0.0
C54 C 0.63017 0.70319 0.81476 0.0
C55 C 0.59492 0.61088 0.80391 0.0
C56 C 0.64479 0.62152 0.78437 0.0
C57 C 0.68607 0.67284 0.77835 0.0
C58 C 0.67724 0.713 0.7926 0.0
N59 N 0.55219 0.55966 0.81064 0.0
H60 H 0.80304 0.18166 0.33917 0.0
H61 H 0.78121 0.24312 0.47108 0.0
H62 H 0.68329 0.23597 0.32987 0.0
H63 H 0.88822 0.19854 0.38502 0.0
C64 C 0.87692 0.18874 0.42002 0.0
C65 C 0.78605 0.2018 0.35746 0.0
C66 C 0.74355 0.20917 0.32912 0.0
C67 C 0.80066 0.21445 0.40886 0.0
C68 C 0.77245 0.23545 0.43148 0.0
C69 C 0.73107 0.24453 0.403 0.0
C70 C 0.71765 0.23196 0.35181 0.0
N71 N 0.83797 0.20088 0.4383 0.0
H72 H 0.36111 0.64215 0.23414 0.0
H73 H 0.53638 0.78507 0.26743 0.0
H74 H 0.39713 0.76499 0.15039 0.0
H75 H 0.40561 0.60749 0.27431 0.0
C76 C 0.44159 0.63738 0.3032 0.0
C77 C 0.39313 0.68025 0.22685 0.0
C78 C 0.37401 0.70001 0.18863 0.0
C79 C 0.45194 0.71037 0.25606 0.0
C80 C 0.49109 0.76118 0.24573 0.0
C81 C 0.47121 0.78065 0.20691 0.0
C82 C 0.41271 0.74999 0.17977 0.0
N83 N 0.47149 0.69124 0.2964 0.0
H84 H 0.11875 0.301 0.76527 0.0
H85 H 0.22984 0.45846 0.73733 0.0
H86 H 0.2278 0.33088 0.65984 0.0
H87 H 0.21817 0.48188 0.811 0.0
C88 C 0.17771 0.45021 0.81919 0.0
C89 C 0.15117 0.32843 0.74637 0.0
C90 C 0.17032 0.30976 0.71079 0.0
C91 C 0.17294 0.38212 0.75736 0.0
C92 C 0.21401 0.41729 0.73118 0.0
C93 C 0.23492 0.39889 0.69652 0.0
C94 C 0.21272 0.3453 0.68698 0.0
N95 N 0.1511 0.39831 0.79377 0.0
Pr96 Pr 0.99603 0.99801 0.57643 0.0
Pr97 Pr 0.08613 0.05025 0.52073 0.0
C98 C 0.90159 0.93886 0.61545 0.0
C99 C 0.88334 0.89342 0.64051 0.0
C100 C 0.82887 0.87026 0.65511 0.0
C101 C 0.81219 0.82832 0.68077 0.0
C102 C 0.84987 0.80916 0.69224 0.0
C103 C 0.90454 0.8323 0.67772 0.0
C104 C 0.92127 0.87442 0.65199 0.0
C105 C 0.08586 0.0985 0.62518 0.0
C106 C 0.10551 0.98009 0.59889 0.0
C107 C 0.18649 0.10629 0.48724 0.0
C108 C 0.21931 0.15227 0.46358 0.0
C109 C 0.19808 0.15264 0.41439 0.0
C110 C 0.23378 0.19312 0.39053 0.0
C111 C 0.29094 0.23376 0.4155 0.0
C112 C 0.31101 0.23503 0.46523 0.0
C113 C 0.27551 0.19437 0.48906 0.0
C114 C 0.99556 0.94895 0.47289 0.0
C115 C 0.97947 0.07286 0.49983 0.0
O116 O 0.90007 0.93127 0.5687 0.0
O117 O 0.94965 0.98196 0.63936 0.0
O118 O 0.06167 0.08666 0.58007 0.0
O119 O 0.06591 0.0571 0.64599 0.0
O120 O 0.13343 0.02328 0.58025 0.0
O121 O 0.04782 0.95665 0.5962 0.0
O122 O 0.18394 0.11458 0.53276 0.0
O123 O 0.13732 0.06572 0.4609 0.0
O124 O 1.02077 0.96133 0.51777 0.0
O125 O 1.01658 0.98977 0.45125 0.0
O126 O 0.95167 0.03277 0.52295 0.0
O127 O 0.03519 0.09137 0.49665 0.0
H128 H 0.79937 0.88469 0.64679 0.0
H129 H 0.76955 0.81043 0.69146 0.0
H130 H 0.93373 0.81756 0.68594 0.0
H131 H 0.96377 0.89224 0.64122 0.0
H132 H 0.15496 0.12076 0.39376 0.0
H133 H 0.2179 0.19165 0.35203 0.0
H134 H 0.35512 0.26616 0.48488 0.0
H135 H 0.29295 0.19483 0.52689 0.0
Pr136 Pr 0.49033 0.02107 0.06087 0.0
Pr137 Pr 0.58475 0.02314 1.03223 0.0
C138 C 0.41512 0.03517 0.10239 0.0
C139 C 0.41584 0.08392 0.10827 0.0
C140 C 0.43862 0.11905 0.07519 0.0
C141 C 0.45304 0.17026 0.08583 0.0
C142 C 0.44423 0.18682 0.12945 0.0
C143 C 0.41855 0.15117 0.1614 0.0
C144 C 0.40467 0.0999 0.15096 0.0
C145 C 0.53348 0.09099 0.99307 0.0
C146 C 0.62241 0.09605 0.13317 0.0
C147 C 0.65868 0.02072 0.97905 0.0
C148 C 0.6596 0.97668 0.95556 0.0
C149 C 0.64719 0.93371 0.97959 0.0
C150 C 0.64133 0.88934 0.95546 0.0
C151 C 0.64823 0.8874 0.90708 0.0
C152 C 0.66162 0.93053 0.88311 0.0
C153 C 0.667 0.97494 0.90723 0.0
C154 C 0.54674 0.95274 0.09951 0.0
C155 C 0.44639 0.93704 0.97008 0.0
O156 O 0.46226 0.03806 0.12803 0.0
O157 O 0.40018 1.01178 0.05741 0.0
O158 O 0.56615 0.08928 1.02998 0.0
O159 O 0.47833 0.05542 0.9897 0.0
O160 O 0.64306 0.09637 0.09371 0.0
O161 O 0.56563 0.06359 0.13194 0.0
O162 O 0.61293 0.02385 0.96018 0.0
O163 O 0.67146 0.02927 1.02688 0.0
O164 O 0.51109 0.9557 0.06588 0.0
O165 O 0.60155 0.98282 0.09595 0.0
O166 O 0.42982 0.94083 1.01066 0.0
O167 O 0.5018 0.96992 0.96677 0.0
H168 H 0.44837 0.10783 0.04232 0.0
H169 H 0.47309 0.19748 0.06105 0.0
H170 H 0.41191 0.16378 0.19543 0.0
H171 H 0.38821 0.07367 0.17726 0.0
H172 H 0.64118 0.93411 1.01681 0.0
H173 H 0.63131 0.85641 0.97446 0.0
H174 H 0.6673 0.92951 0.84576 0.0
H175 H 0.6759 1.00749 0.88797 0.0
Pr176 Pr 0.55236 0.56252 0.57671 0.0
Pr177 Pr 0.48595 0.46055 0.51204 0.0
C178 C 0.58677 0.65528 0.62785 0.0
C179 C 0.55602 0.68296 0.63565 0.0
C180 C 0.50626 0.66061 0.65734 0.0
C181 C 0.4759 0.68599 0.66268 0.0
C182 C 0.49438 0.73399 0.64628 0.0
C183 C 0.5435 0.7561 0.62394 0.0
C184 C 0.57448 0.73099 0.61912 0.0
C185 C 0.56787 0.48555 0.61769 0.0
C186 C 0.4108 0.48332 0.57883 0.0
C187 C 0.46123 0.36764 0.47046 0.0
C188 C 0.50188 0.34919 0.46487 0.0
C189 C 0.54903 0.37583 0.44081 0.0
C190 C 0.58733 0.35812 0.43617 0.0
C191 C 0.58052 0.3145 0.4568 0.0
C192 C 0.5355 0.28969 0.48318 0.0
C193 C 0.49599 0.30637 0.4865 0.0
C194 C 0.46961 0.53567 0.46806 0.0
C195 C 0.62775 0.54596 0.50736 0.0
O196 O 0.59499 0.6504 0.58371 0.0
O197 O 0.57048 0.61297 0.64742 0.0
O198 O 0.51943 0.47932 0.59511 0.0
O199 O 0.61115 0.53336 0.61946 0.0
O200 O 0.41347 0.44508 0.55713 0.0
O201 O 0.45252 0.53246 0.57953 0.0
O202 O 0.4572 0.3763 0.51533 0.0
O203 O 0.46332 0.4032 0.44474 0.0
O204 O 0.51815 0.54321 0.4927 0.0
O205 O 0.42754 0.48642 0.46397 0.0
O206 O 0.62489 0.58242 0.53191 0.0
O207 O 0.58571 0.4961 0.50323 0.0
H208 H 0.49047 0.62343 0.67011 0.0
H209 H 0.43795 0.66822 0.67984 0.0
H210 H 0.55802 0.79289 0.61063 0.0
H211 H 0.61243 0.74875 0.60197 0.0
H212 H 0.55562 0.40964 0.42459 0.0
H213 H 0.62195 0.37812 0.41595 0.0
H214 H 0.52999 0.25648 0.50003 0.0
H215 H 0.46095 0.28593 0.50621 0.0
Pr216 Pr 0.02982 0.58111 1.00368 0.0
Pr217 Pr 0.04203 0.50674 0.07218 0.0
C218 C 0.99041 0.62922 0.94533 0.0
C219 C 0.93331 0.6263 0.93564 0.0
C220 C 0.91509 0.64036 0.89241 0.0
C221 C 0.8563 0.62833 0.87869 0.0
C222 C 0.81555 0.6021 0.90815 0.0
C223 C 0.83461 0.59044 0.95255 0.0
C224 C 0.89316 0.60228 0.96614 0.0
C225 C 0.14519 0.61874 0.05792 0.0
C226 C 0.98522 0.57412 0.11082 0.0
C227 C 0.08428 0.47073 0.14327 0.0
C228 C 0.14114 0.47279 0.15477 0.0
C229 C 0.17388 0.48758 0.2034 0.0
C230 C 0.23089 0.49507 0.2141 0.0
C231 C 0.25549 0.48757 0.17624 0.0
C232 C 0.2229 0.47282 0.12767 0.0
C233 C 0.16626 0.46579 0.11693 0.0
C234 C 0.93511 0.45902 1.00102 0.0
C235 C 0.0796 0.50998 0.96553 0.0
O236 O 0.98642 0.58566 0.92982 0.0
O237 O 1.02439 0.65157 0.98932 0.0
O238 O 0.09723 0.59371 0.07172 0.0
O239 O 0.13579 0.63048 1.01485 0.0
O240 O 1.00133 0.54032 0.12093 0.0
O241 O 0.98871 0.59244 0.06868 0.0
O242 O 0.08954 0.5161 0.14988 0.0
O243 O 0.0462 0.4406 0.10279 0.0
O244 O 0.96209 0.50441 1.02486 0.0
O245 O 0.96003 0.43399 1.01758 0.0
O246 O 0.04284 0.5261 0.95147 0.0
O247 O 0.0964 0.50927 1.01252 0.0
H248 H 0.94537 0.65825 0.86822 0.0
H249 H 0.84181 0.6372 0.84413 0.0
H250 H 0.80338 0.56981 0.97536 0.0
H251 H 0.90616 0.5903 0.99919 0.0
H252 H 0.15576 0.49421 0.23293 0.0
H253 H 0.25575 0.50653 0.25178 0.0
H254 H 0.2415 0.467 0.09812 0.0
H255 H 0.14255 0.45567 0.079 0.0
C256 C 0.41729 0.30187 0.34901 0.0
C257 C 0.40545 0.33873 0.32904 0.0
C258 C 0.32399 0.31157 0.37251 0.0
C259 C 0.33211 0.27152 0.38794 0.0
N260 N 0.37884 0.2217 0.38335 0.0
N261 N 0.33952 0.37261 0.31811 0.0
C262 C 0.37659 0.26466 0.37403 0.0
C263 C 0.35723 0.34227 0.33986 0.0
N264 N 0.46869 0.30361 0.34561 0.0
N265 N 0.28279 0.3195 0.38765 0.0
H266 H 0.35777 0.39416 0.29101 0.0
H267 H 0.35777 0.39416 0.29101 0.0
H268 H 0.25752 0.29817 0.41208 0.0
H269 H 0.2757 0.34874 0.37699 0.0
H270 H 0.48124 0.27957 0.36163 0.0
H271 H 0.50272 0.33332 0.33199 0.0
H272 H 0.40504 0.21106 0.36845 0.0
H273 H 0.35053 0.19383 0.40233 0.0
C274 C 0.36674 0.91448 0.84276 0.0
C275 C 0.35251 0.86364 0.82452 0.0
C276 C 0.39082 0.85559 0.90715 0.0
C277 C 0.40155 0.90502 0.92475 0.0
N278 N 0.37511 0.96913 0.91314 0.0
N279 N 0.33484 0.7801 0.84276 0.0
C280 C 0.38086 0.93014 0.8938 0.0
C281 C 0.35927 0.83215 0.85787 0.0
N282 N 0.37196 0.94967 0.81221 0.0
N283 N 0.41191 0.83182 0.93695 0.0
H284 H 0.30931 0.76144 0.80747 0.0
H285 H 0.33479 0.75475 0.86654 0.0
H286 H 0.43295 0.84743 0.97375 0.0
H287 H 0.41109 0.79835 0.92442 0.0
H288 H 0.38709 0.9884 0.82522 0.0
H289 H 0.3688 0.94261 0.77475 0.0
H290 H 0.35713 0.98693 0.89177 0.0
H291 H 0.38031 0.97784 0.95076 0.0
C292 C 0.64066 0.41818 0.68341 0.0
C293 C 0.59362 0.37804 0.70192 0.0
C294 C 0.52926 0.41 0.66814 0.0
C295 C 0.57429 0.44615 0.64483 0.0
N296 N 0.66559 0.47028 0.61868 0.0
N297 N 0.48739 0.3272 0.69818 0.0
C298 C 0.62784 0.44599 0.64907 0.0
C299 C 0.53619 0.37141 0.69037 0.0
N300 N 0.6985 0.43193 0.70015 0.0
N301 N 0.48096 0.41334 0.67144 0.0
H302 H 0.48952 0.29637 0.71097 0.0
H303 H 0.44382 0.3184 0.68613 0.0
H304 H 0.47423 0.4415 0.65779 0.0
H305 H 0.45077 0.39147 0.69258 0.0
H306 H 0.73462 0.4643 0.69107 0.0
H307 H 0.71125 0.41533 0.72743 0.0
H308 H 0.7026 0.46741 0.61763 0.0
H309 H 0.65559 0.48719 0.5902 0.0
C310 C 0.89077 0.57993 0.19855 0.0
C311 C 0.92674 0.63325 0.22126 0.0
C312 C 0.99745 0.64849 0.16833 0.0
C313 C 0.96472 0.59411 0.14894 0.0
N314 N 0.88478 0.50659 0.15243 0.0
N315 N 1.02138 0.71516 0.23523 0.0
C316 C 0.91313 0.55935 0.16652 0.0
C317 C 0.98198 0.6666 0.20813 0.0
N318 N 0.83355 0.54962 0.20467 0.0
N319 N 0.04339 0.68344 0.14881 0.0
H320 H 1.01279 0.72954 0.26547 0.0
H321 H 0.06512 0.739 0.23113 0.0
H322 H 0.05849 0.67265 0.12122 0.0
H323 H 0.06358 0.72378 0.1573 0.0
H324 H 0.80305 0.51229 0.1849 0.0
H325 H 0.81422 0.56357 0.22551 0.0
H326 H 0.85153 0.47937 0.16849 0.0
H327 H 0.89736 0.48969 0.12741 0.0
C328 C 0.5303 0.32078 0.20592 0.0
C329 C 0.49402 0.33998 0.18782 0.0
C330 C 0.4346 0.26464 0.12253 0.0
C331 C 0.46674 0.2426 0.14408 0.0
N332 N 0.55488 0.25576 0.19962 0.0
N333 N 0.43003 0.3426 0.11916 0.0
C334 C 0.51804 0.27275 0.18281 0.0
C335 C 0.45225 0.31597 0.14257 0.0
N336 N 0.57531 0.34757 0.24667 0.0
N337 N 0.38531 0.23555 0.08519 0.0
H338 H 0.44638 0.38155 0.13228 0.0
H339 H 0.40187 0.32883 0.08446 0.0
H340 H 0.37121 0.19784 0.06946 0.0
H341 H 0.35631 0.2475 0.07174 0.0
H342 H 0.60189 0.33382 0.26211 0.0
H343 H 0.58618 0.38377 0.26406 0.0
H344 H 0.54991 0.22114 0.18422 0.0
H345 H 0.54991 0.22114 0.18422 0.0
C346 C 0.16334 0.91743 0.68816 0.0
C347 C 0.17512 0.88844 0.65508 0.0
C348 C 0.15861 0.93284 0.5894 0.0
C349 C 0.13737 0.95508 0.62023 0.0
N350 N 0.11578 0.96605 0.69869 0.0
N351 N 0.16954 0.85978 0.5712 0.0
C352 C 0.13846 0.94647 0.66954 0.0
C353 C 0.16931 0.89398 0.6049 0.0
N354 N 0.17842 0.91932 0.73755 0.0
N355 N 0.16855 0.94843 0.54527 0.0
H356 H 0.17238 0.82803 0.58017 0.0
H357 H 0.15944 0.85907 0.53355 0.0
H358 H 0.16218 0.97721 0.53253 0.0
H359 H 0.18934 0.93677 0.52377 0.0
H360 H 0.17646 0.94403 0.76345 0.0
H361 H 0.19864 0.90024 0.75304 0.0
H362 H 0.10808 0.9553 0.73271 0.0
H363 H 0.10175 0.99108 0.68776 0.0
C364 C 0.77804 0.41989 0.93381 0.0
C365 C 0.76537 0.37928 0.89727 0.0
C366 C 0.86865 0.40112 0.92116 0.0
C367 C 0.87792 0.43476 0.96357 0.0
N368 N 0.83683 0.47081 1.01317 0.0
N369 N 0.79704 0.32963 0.85568 0.0
C370 C 0.8319 0.44365 0.97031 0.0
C371 C 0.81045 0.36975 0.89051 0.0
N372 N 0.73781 0.43481 0.93437 0.0
N373 N 0.91573 0.4003 0.90922 0.0
H374 H 0.75582 0.30791 0.8308 0.0
H375 H 0.8255 0.31618 0.85313 0.0
H376 H 0.95934 0.42356 0.92984 0.0
H377 H 0.91276 0.38054 0.8763 0.0
H378 H 0.74735 0.468 0.95678 0.0
H379 H 0.69708 0.4171 0.90899 0.0
H380 H 0.80194 0.47346 1.02177 0.0
H381 H 0.87303 0.4861 0.04271 0.0
C382 C 0.77992 0.60536 0.47326 0.0
C383 C 0.76419 0.60912 0.42345 0.0
C384 C 0.65785 0.55937 0.42654 0.0
C385 C 0.67429 0.56212 0.47799 0.0
N386 N 0.75073 0.58993 0.55132 0.0
N387 N 0.68878 0.59422 0.35336 0.0
C388 C 0.73531 0.58548 0.5016 0.0
C389 C 0.7032 0.58662 0.40002 0.0
N390 N 0.83756 0.62037 0.49317 0.0
N391 N 0.5988 0.53147 0.40299 0.0
H392 H 0.72036 0.61338 0.33241 0.0
H393 H 0.64618 0.58497 0.33647 0.0
H394 H 0.56382 0.51325 0.42097 0.0
H395 H 0.58434 0.52297 0.36504 0.0
H396 H 0.85121 0.61434 0.52783 0.0
H397 H 0.87095 0.6348 0.47317 0.0
H398 H 0.79464 0.61181 0.57162 0.0
H399 H 0.71913 0.57424 0.57288 0.0
C400 C 0.37475 0.45444 0.20039 0.0
C401 C 0.42769 0.50411 0.20314 0.0
C402 C 0.36528 0.54015 0.18117 0.0
C403 C 0.31482 0.49349 0.18729 0.0
N404 N 0.27141 0.40661 0.20757 0.0
N405 N 0.47334 0.59691 0.20252 0.0
C406 C 0.31972 0.45098 0.19927 0.0
C407 C 0.4231 0.5479 0.19504 0.0
N408 N 0.37548 0.40998 0.19311 0.0
N409 N 0.35625 0.57557 0.1601 0.0
H410 H 0.51645 0.60445 0.21398 0.0
H411 H 0.47205 0.63071 0.20206 0.0
H412 H 0.3899 0.60873 0.14974 0.0
H413 H 0.3899 0.60873 0.14974 0.0
H414 H 0.33752 0.37245 0.18751 0.0
H415 H 0.41222 0.41106 0.18463 0.0
H416 H 0.27403 0.37596 0.22029 0.0
H417 H 0.22959 0.40197 0.20502 0.0
C418 C 0.56557 0.16426 0.88327 0.0
C419 C 0.58004 0.21444 0.90396 0.0
C420 C 0.56855 0.18497 0.9842 0.0
C421 C 0.55185 0.13419 0.96304 0.0
N422 N 0.52288 0.07263 0.89027 0.0
N423 N 0.58258 0.26912 0.97094 0.0
C424 C 0.54645 0.12295 0.91183 0.0
C425 C 0.5776 0.22362 0.95356 0.0
N426 N 0.57318 0.15669 0.83715 0.0
N427 N 0.57614 0.19653 1.03364 0.0
H428 H 0.58818 0.29759 0.94914 0.0
H429 H 0.57549 0.27658 1.00508 0.0
H430 H 0.56724 0.16895 0.05702 0.0
H431 H 0.59486 0.23421 0.05213 0.0
H432 H 0.57078 0.1232 0.82226 0.0
H433 H 0.586 0.18541 0.81475 0.0
H434 H 0.5109 0.06083 0.85249 0.0
H435 H 0.51138 0.04174 0.90998 0.0
C436 C 0.88067 0.81281 0.3991 0.0
C437 C 0.9153 0.78937 0.40245 0.0
C438 C 1.00443 0.87436 0.4415 0.0
C439 C 0.96812 0.89517 0.44557 0.0
N440 N 0.87047 0.88326 0.43124 0.0
N441 N 1.00934 0.79673 0.43393 0.0
C442 C 0.90585 0.86421 0.42492 0.0
C443 C 0.97713 0.81992 0.42528 0.0
N444 N 0.82411 0.78629 0.37034 0.0
N445 N 0.06517 0.90695 0.45158 0.0
H446 H 0.99113 0.75689 0.42352 0.0
H447 H 0.05272 0.81626 0.45536 0.0
H448 H 0.08641 0.94729 0.46155 0.0
H449 H 0.09373 0.8948 0.44472 0.0
H450 H 0.79856 0.80291 0.36277 0.0
H451 H 0.80492 0.74917 0.35013 0.0
H452 H 0.82393 0.8606 0.42181 0.0
H453 H 0.88769 0.92091 0.44929 0.0
C454 C 0.45642 0.83255 0.68977 0.0
C455 C 0.39302 0.80148 0.67607 0.0
C456 C 0.39946 0.73396 0.63057 0.0
C457 C 0.46133 0.76031 0.6526 0.0
N458 N 0.54738 0.83206 0.70967 0.0
N459 N 0.3034 0.7183 0.6387 0.0
C460 C 0.4898 0.80925 0.68363 0.0
C461 C 0.36413 0.75117 0.64735 0.0
N462 N 0.48465 0.88436 0.70852 0.0
N463 N 0.37456 0.69267 0.59344 0.0
H464 H 0.27556 0.72823 0.65166 0.0
H465 H 0.2812 0.67926 0.62251 0.0
H466 H 0.39956 0.67976 0.57957 0.0
H467 H 0.33081 0.67505 0.57318 0.0
H468 H 0.53092 0.90978 0.71532 0.0
H469 H 0.46135 0.90289 0.71227 0.0
H470 H 0.56759 0.86477 0.73683 0.0
H471 H 0.57308 0.81561 0.70775 0.0
C472 C 0.73756 0.67724 0.70936 0.0
C473 C 0.74124 0.68816 0.75996 0.0
C474 C 0.83852 0.76864 0.76845 0.0
C475 C 0.82835 0.76254 0.71675 0.0
N476 N 0.78488 0.70457 0.64015 0.0
N477 N 0.80256 0.7285 0.83935 0.0
C478 C 0.78378 0.71396 0.68804 0.0
C479 C 0.79577 0.72845 0.79017 0.0
N480 N 0.68822 0.63413 0.68129 0.0
N481 N 0.88571 0.81428 0.79572 0.0
H482 H 0.84127 0.75527 0.8653 0.0
H483 H 0.84127 0.75527 0.8653 0.0
H484 H 0.91782 0.8431 0.77982 0.0
H485 H 0.89237 0.82421 0.83329 0.0
H486 H 0.67918 0.62826 0.64326 0.0
H487 H 0.65568 0.60496 0.69635 0.0
H488 H 0.75587 0.66887 0.61725 0.0
H489 H 0.81885 0.73186 0.6246 0.0
C490 C 0.72553 0.21014 0.23785 0.0
C491 C 0.71625 0.18192 0.27779 0.0
C492 C 0.66053 0.0997 0.2211 0.0
C493 C 0.66234 0.12701 0.18119 0.0
N494 N 0.69141 0.2085 0.1516 0.0
N495 N 0.66289 0.09963 0.30728 0.0
C496 C 0.69391 0.18248 0.18939 0.0
C497 C 0.68035 0.12664 0.26939 0.0
N498 N 0.76488 0.26301 0.24621 0.0
N499 N 0.64153 0.04803 0.21292 0.0
H500 H 0.67497 0.11762 0.34352 0.0
H501 H 0.63122 0.05964 0.30202 0.0
H502 H 0.62977 0.02777 0.17796 0.0
H503 H 0.64451 0.02733 0.24067 0.0
H504 H 0.77796 0.28513 0.21831 0.0
H505 H 0.78794 0.28419 0.28132 0.0
H506 H 0.70778 0.24839 0.15635 0.0
H507 H 0.66935 0.18952 0.11572 0.0
C508 C 0.50865 0.62913 0.37322 0.0
C509 C 0.45171 0.61952 0.35101 0.0
C510 C 0.40812 0.56308 0.4123 0.0
C511 C 0.46515 0.57166 0.43375 0.0
N512 N 0.57206 0.63354 0.44751 0.0
N513 N 0.3494 0.5861 0.35518 0.0
C514 C 0.51627 0.61087 0.41819 0.0
C515 C 0.40202 0.58888 0.37227 0.0
N516 N 0.55524 0.65367 0.35047 0.0
N517 N 0.3599 0.53127 0.43118 0.0
H518 H 0.3438 0.60526 0.32685 0.0
H519 H 0.31255 0.56837 0.37107 0.0
H520 H 0.36439 0.52019 0.46541 0.0
H521 H 0.31572 0.51624 0.41349 0.0
H522 H 0.59569 0.65599 0.36202 0.0
H523 H 0.55165 0.66738 0.31752 0.0
H524 H 0.61017 0.66421 0.43892 0.0
H525 H 0.57903 0.62849 0.48381 0.0
C526 C 0.13115 0.43393 0.89429 0.0
C527 C 0.14986 0.46338 0.85579 0.0
C528 C 0.12875 0.5263 0.89245 0.0
C529 C 0.1037 0.49375 0.92768 0.0
N530 N 0.06982 0.41023 0.95461 0.0
N531 N 0.15481 0.53229 0.81317 0.0
C532 C 0.10172 0.44574 0.92646 0.0
C533 C 0.14526 0.50802 0.85349 0.0
N534 N 0.14434 0.39653 0.90218 0.0
N535 N 0.1398 0.57593 0.89731 0.0
H536 H 0.16591 0.51984 0.78344 0.0
H537 H 0.14572 0.56136 0.80698 0.0
H538 H 0.13047 0.5919 0.92582 0.0
H539 H 0.16412 0.60326 0.87603 0.0
H540 H 0.13731 0.37774 0.93274 0.0
H541 H 0.16825 0.38827 0.88131 0.0
H542 H 0.06168 0.37248 0.95136 0.0
H543 H 0.0462 0.41636 0.97751 0.0
C544 C 0.58808 0.76057 0.82117 0.0
C545 C 0.63112 0.74813 0.8397 0.0
C546 C 0.68797 0.82953 0.89829 0.0
C547 C 0.64286 0.84026 0.88237 0.0
N548 N 0.5452 0.81277 0.83447 0.0
N549 N 0.71342 0.76375 0.90352 0.0
C550 C 0.59142 0.80484 0.84538 0.0
C551 C 0.67855 0.78057 0.88059 0.0
N552 N 0.54511 0.7309 0.77984 0.0
N553 N 0.74068 0.8668 0.92916 0.0
H554 H 0.70682 0.72729 0.89251 0.0
H555 H 0.74481 0.78351 0.93639 0.0
H556 H 0.74967 0.9036 0.94255 0.0
H557 H 0.7776 0.86312 0.93776 0.0
H558 H 0.51603 0.74084 0.76176 0.0
H559 H 0.54092 0.69775 0.7618 0.0
H560 H 0.504 0.7857 0.81149 0.0
H561 H 0.54627 0.84491 0.85131 0.0
C562 C 0.87327 0.10435 0.4229 0.0
C563 C 0.89748 0.15679 0.44462 0.0
C564 C 0.9751 0.15434 0.50212 0.0
C565 C 0.94998 0.10112 0.48154 0.0
N566 N 0.87132 0.02337 0.42621 0.0
N567 N 0.96353 0.22875 0.50999 0.0
C568 C 0.89753 0.07537 0.44334 0.0
C569 C 0.9458 0.18073 0.48595 0.0
N570 N 0.828 0.0828 0.38183 0.0
N571 N 1.02801 0.1804 0.53619 0.0
H572 H 0.94431 0.24988 0.49826 0.0
H573 H 0.99376 0.24591 0.54368 0.0
H574 H 0.04987 0.1626 0.55124 0.0
H575 H 0.05261 0.22069 0.54753 0.0
H576 H 0.81289 0.0473 0.36042 0.0
H577 H 0.80694 0.10173 0.36759 0.0
H578 H 0.8294 1.00063 0.40269 0.0
H579 H 0.89018 1.00186 0.43742 0.0
C580 C 0.26548 0.66822 0.17458 0.0
C581 C 0.31303 0.67023 0.15673 0.0
C582 C 0.24899 0.63416 0.07387 0.0
C583 C 0.20435 0.63861 0.09075 0.0
N584 N 0.17758 0.67313 0.15495 0.0
N585 N 0.35356 0.66308 0.08756 0.0
C586 C 0.21428 0.65869 0.14065 0.0
C587 C 0.30569 0.65513 0.10586 0.0
N588 N 0.26987 0.67737 0.2238 0.0
N589 N 0.23718 0.60894 1.0278 0.0
H590 H 0.39587 0.67748 0.10946 0.0
H591 H 0.35248 0.65907 0.05021 0.0
H592 H 0.19717 0.59454 1.00249 0.0
H593 H 0.2654 0.59875 1.01599 0.0
H594 H 0.23368 0.67042 0.23867 0.0
H595 H 0.30792 0.6876 0.25011 0.0
H596 H 0.18571 0.69244 0.18984 0.0
H597 H 0.14355 0.6723 0.13021 0.0
C598 C 0.34055 0.46583 0.6906 0.0
C599 C 0.2789 0.43349 0.66774 0.0
C600 C 0.3037 0.44454 0.58629 0.0
C601 C 0.36537 0.47119 0.6091 0.0
N602 N 0.44384 0.50916 0.68274 0.0
N603 N 0.20018 0.39835 0.59519 0.0
C604 C 0.38419 0.48355 0.66122 0.0
C605 C 0.26013 0.4254 0.61582 0.0
N606 N 0.35739 0.4788 0.74052 0.0
N607 N 0.28727 0.43794 0.53639 0.0
H608 H 0.16797 0.38726 0.6162 0.0
H609 H 0.18167 0.38697 0.55783 0.0
H610 H 0.31836 0.45176 0.51427 0.0
H611 H 0.2436 0.42065 0.51645 0.0
H612 H 0.40051 0.50678 0.75975 0.0
H613 H 0.32732 0.46416 0.76336 0.0
H614 H 0.46087 0.51409 0.71999 0.0
H615 H 0.47747 0.52318 0.66317 0.0
C616 C 0.65565 0.51558 0.83531 0.0
C617 C 0.62881 0.54074 0.8538 0.0
C618 C 0.725 0.60746 0.90689 0.0
C619 C 0.75122 0.58108 0.88985 0.0
N620 N 0.74029 0.5049 0.84554 0.0
N621 N 0.63346 0.60188 0.91582 0.0
C622 C 0.7161 0.53346 0.85643 0.0
C623 C 0.66219 0.58414 0.89229 0.0
N624 N 0.62445 0.47643 0.79584 0.0
N625 N 0.76031 0.65532 0.93597 0.0
H626 H 0.5871 0.58428 0.90709 0.0
H627 H 0.65461 0.63055 0.94687 0.0
H628 H 0.80653 0.67327 0.9477 0.0
H629 H 0.74459 0.67899 0.94529 0.0
H630 H 0.6443 0.46148 0.77702 0.0
H631 H 0.57978 0.46152 0.77945 0.0
H632 H 0.71524 0.46731 0.82555 0.0
H633 H 0.78467 0.51689 0.85981 0.0
C634 C 0.53426 0.83356 0.15091 0.0
C635 C 0.50808 0.83251 0.19123 0.0
C636 C 0.50961 0.91211 0.17309 0.0
C637 C 0.52933 0.90945 0.12945 0.0
N638 N 0.55265 0.86349 0.07322 0.0
N639 N 0.47081 0.87016 0.2417 0.0
C640 C 0.54025 0.86935 0.1177 0.0
C641 C 0.49684 0.87235 0.20306 0.0
N642 N 0.55225 0.79931 0.14408 0.0
N643 N 0.50318 0.95277 0.18591 0.0
H644 H 0.46439 0.84333 0.26565 0.0
H645 H 0.45396 0.89335 0.24927 0.0
H646 H 0.50726 0.97981 0.16295 0.0
H647 H 0.49625 0.96111 0.21983 0.0
H648 H 0.57627 0.80036 0.11798 0.0
H649 H 0.5479 0.77279 0.16793 0.0
H650 H 0.55607 0.83251 0.0602 0.0
H651 H 0.55361 0.88697 0.04701 0.0
C652 C 0.18445 0.23365 0.70423 0.0
C653 C 0.14559 0.25278 0.69633 0.0
C654 C 0.06434 0.16603 0.65288 0.0
C655 C 0.1058 0.15001 0.65332 0.0
N656 N 0.206 0.16853 0.678 0.0
N657 N 0.05007 0.23872 0.65706 0.0
C658 C 0.16603 0.18366 0.67903 0.0
C659 C 0.08567 0.21924 0.66946 0.0
N660 N 0.23858 0.26312 0.73645 0.0
N661 N 1.00439 0.13026 0.63704 0.0
H662 H 0.06392 0.27761 0.66754 0.0
H663 H 1.00852 0.21739 0.63272 0.0
H664 H 0.98692 0.0908 0.625 0.0
H665 H 0.97181 0.13868 0.64026 0.0
H666 H 0.26685 0.24969 0.7472 0.0
H667 H 0.25276 0.29941 0.75599 0.0
H668 H 0.25195 0.1935 0.69119 0.0
H669 H 0.19351 0.13168 0.66102 0.0
C670 C 0.72045 0.31243 0.44918 0.0
C671 C 0.69486 0.26042 0.42568 0.0
C672 C 0.59438 0.24291 0.42401 0.0
C673 C 0.61972 0.29428 0.44943 0.0
N674 N 0.70687 0.37254 0.49787 0.0
N675 N 0.60929 0.17219 0.40468 0.0
C676 C 0.68288 0.3274 0.46572 0.0
C677 C 0.63235 0.22436 0.41785 0.0
N678 N 0.78 0.34813 0.45379 0.0
N679 N 0.53464 0.21275 0.40299 0.0
H680 H 0.63613 0.15722 0.40074 0.0
H681 H 0.56471 0.14356 0.4029 0.0
H682 H 0.50493 0.22483 0.40512 0.0
H683 H 0.51548 0.17756 0.37942 0.0
H684 H 0.79972 0.38798 0.46549 0.0
H685 H 0.80897 0.33849 0.44255 0.0
H686 H 0.75222 0.39583 0.51442 0.0
H687 H 0.68061 0.38389 0.51182 0.0
loop_
_geom_bond_atom_site_label_1
_geom_bond_atom_site_label_2
_geom_bond_distance
_geom_bond_site_symmetry_2
_ccdc_geom_bond_type
H0 C5 0.930 . S
H1 C8 0.930 . S
H2 C10 0.930 . S
H3 C4 1.016 . S
C4 H3 1.016 . S
C4 N11 1.286 . S
C5 H0 0.930 . S
C5 C6 1.397 . S
C5 C7 1.361 . S
C6 C5 1.397 . S
C6 C10 1.390 . S
C7 C5 1.361 . S
C7 C8 1.393 . S
C7 N11 1.413 . S
C8 H1 0.930 . S
C8 C7 1.393 . S
C8 C9 1.399 . S
C9 C8 1.399 . S
C9 C10 1.381 . S
C10 H2 0.930 . S
C10 C6 1.390 . S
C10 C9 1.381 . S
N11 C4 1.286 . S
N11 C7 1.413 . S
H12 C17 0.930 . S
H13 C20 0.930 . S
H14 C22 0.930 . S
H15 C16 1.016 . S
C16 H15 1.016 . S
C16 N23 1.286 . S
C17 H12 0.930 . S
C17 C18 1.397 . S
C17 C19 1.361 . S
C18 C17 1.397 . S
C18 C22 1.390 . S
C19 C17 1.361 . S
C19 C20 1.393 . S
C19 N23 1.413 . S
C20 H13 0.930 . S
C20 C19 1.393 . S
C20 C21 1.399 . S
C21 C20 1.399 . S
C21 C22 1.381 . S
C22 H14 0.930 . S
C22 C18 1.390 . S
C22 C21 1.381 . S
N23 C16 1.286 . S
N23 C19 1.413 . S
H24 C29 0.930 . S
H25 C32 0.930 . S
H26 C34 0.930 . S
H27 C28 1.016 . S
C28 H27 1.016 . S
C28 N35 1.286 . S
C29 H24 0.930 . S
C29 C30 1.397 . S
C29 C31 1.361 . S
C30 C29 1.397 . S
C30 C34 1.390 . S
C31 C29 1.361 . S
C31 C32 1.393 . S
C31 N35 1.413 . S
C32 H25 0.930 . S
C32 C31 1.393 . S
C32 C33 1.399 . S
C33 C32 1.399 . S
C33 C34 1.381 . S
C34 H26 0.930 . S
C34 C30 1.390 . S
C34 C33 1.381 . S
N35 C28 1.286 . S
N35 C31 1.413 . S
H36 C41 0.930 . S
H37 C44 0.930 . S
H38 C46 0.930 . S
H39 C40 1.016 . S
C40 H39 1.016 . S
C40 N47 1.286 . S
C41 H36 0.930 . S
C41 C42 1.397 . S
C41 C43 1.361 . S
C42 C41 1.397 . S
C42 C46 1.390 . S
C43 C41 1.361 . S
C43 C44 1.393 . S
C43 N47 1.413 . S
C44 H37 0.930 . S
C44 C43 1.393 . S
C44 C45 1.399 . S
C45 C44 1.399 . S
C45 C46 1.381 . S
C46 H38 0.930 . S
C46 C42 1.390 . S
C46 C45 1.381 . S
N47 C40 1.286 . S
N47 C43 1.413 . S
H48 C53 0.930 . S
H49 C56 0.930 . S
H50 C58 0.930 . S
H51 C52 1.016 . S
C52 H51 1.016 . S
C52 N59 1.286 . S
C53 H48 0.930 . S
C53 C54 1.397 . S
C53 C55 1.361 . S
C54 C53 1.397 . S
C54 C58 1.390 . S
C55 C53 1.361 . S
C55 C56 1.393 . S
C55 N59 1.413 . S
C56 H49 0.930 . S
C56 C55 1.393 . S
C56 C57 1.399 . S
C57 C56 1.399 . S
C57 C58 1.381 . S
C58 H50 0.930 . S
C58 C54 1.390 . S
C58 C57 1.381 . S
N59 C52 1.286 . S
N59 C55 1.413 . S
H60 C65 0.930 . S
H61 C68 0.930 . S
H62 C70 0.930 . S
H63 C64 1.016 . S
C64 H63 1.016 . S
C64 N71 1.286 . S
C65 H60 0.930 . S
C65 C66 1.397 . S
C65 C67 1.361 . S
C66 C65 1.397 . S
C66 C70 1.390 . S
C67 C65 1.361 . S
C67 C68 1.393 . S
C67 N71 1.413 . S
C68 H61 0.930 . S
C68 C67 1.393 . S
C68 C69 1.399 . S
C69 C68 1.399 . S
C69 C70 1.381 . S
C70 H62 0.930 . S
C70 C66 1.390 . S
C70 C69 1.381 . S
N71 C64 1.286 . S
N71 C67 1.413 . S
H72 C77 0.930 . S
H73 C80 0.930 . S
H74 C82 0.930 . S
H75 C76 1.016 . S
C76 H75 1.016 . S
C76 N83 1.286 . S
C77 H72 0.930 . S
C77 C78 1.397 . S
C77 C79 1.361 . S
C78 C77 1.397 . S
C78 C82 1.390 . S
C79 C77 1.361 . S
C79 C80 1.393 . S
C79 N83 1.413 . S
C80 H73 0.930 . S
C80 C79 1.393 . S
C80 C81 1.399 . S
C81 C80 1.399 . S
C81 C82 1.381 . S
C82 H74 0.930 . S
C82 C78 1.390 . S
C82 C81 1.381 . S
N83 C76 1.286 . S
N83 C79 1.413 . S
H84 C89 0.930 . S
H85 C92 0.930 . S
H86 C94 0.930 . S
H87 C88 1.016 . S
C88 H87 1.016 . S
C88 N95 1.286 . S
C89 H84 0.930 . S
C89 C90 1.397 . S
C89 C91 1.361 . S
C90 C89 1.397 . S
C90 C94 1.390 . S
C91 C89 1.361 . S
C91 C92 1.393 . S
C91 N95 1.413 . S
C92 H85 0.930 . S
C92 C91 1.393 . S
C92 C93 1.399 . S
C93 C92 1.399 . S
C93 C94 1.381 . S
C94 H86 0.930 . S
C94 C90 1.390 . S
C94 C93 1.381 . S
N95 C88 1.286 . S
N95 C91 1.413 . S
Pr96 C98 2.880 . S
Pr96 O116 2.562 . S
Pr96 O117 2.490 . S
Pr96 O118 2.695 1_665 S
Pr96 O119 2.512 1_665 S
Pr96 O121 2.437 1_655 S
Pr96 O124 2.436 . S
Pr96 O126 2.438 1_565 S
Pr97 C107 2.880 . S
Pr97 O118 2.436 . S
Pr97 O120 2.438 1_545 S
Pr97 O122 2.562 . S
Pr97 O123 2.490 . S
Pr97 O124 2.695 1_445 S
Pr97 O125 2.512 1_545 S
Pr97 O127 2.437 . S
C98 Pr96 2.880 . S
C98 C99 1.491 . S
C98 O116 1.254 . S
C98 O117 1.225 . S
C99 C98 1.491 . S
C99 C100 1.392 . S
C99 C104 1.356 . S
C100 C99 1.392 . S
C100 C101 1.368 . S
C100 H128 0.929 . S
C101 C100 1.368 . S
C101 C102 1.386 . S
C101 H129 0.929 . S
C102 C101 1.386 . S
C102 C103 1.373 . S
C103 C102 1.373 . S
C103 C104 1.409 . S
C103 H130 0.931 . S
C104 C99 1.356 . S
C104 C103 1.409 . S
C104 H131 0.930 . S
C105 O118 1.270 . S
C105 O119 1.248 . S
C106 O120 1.267 . S
C106 O121 1.278 . S
C107 Pr97 2.880 . S
C107 C108 1.491 . S
C107 O122 1.254 . S
C107 O123 1.225 . S
C108 C107 1.491 . S
C108 C109 1.392 . S
C108 C113 1.356 . S
C109 C108 1.392 . S
C109 C110 1.368 . S
C109 H132 0.929 . S
C110 C109 1.368 . S
C110 C111 1.386 . S
C110 H133 0.929 . S
C111 C110 1.386 . S
C111 C112 1.373 . S
C112 C111 1.373 . S
C112 C113 1.409 . S
C112 H134 0.931 . S
C113 C108 1.356 . S
C113 C112 1.409 . S
C113 H135 0.930 . S
C114 O124 1.270 . S
C114 O125 1.248 1_655 S
C115 O126 1.267 . S
C115 O127 1.278 1_655 S
O116 Pr96 2.562 . S
O116 C98 1.254 . S
O117 Pr96 2.490 . S
O117 C98 1.225 . S
O118 Pr96 2.695 1_445 S
O118 Pr97 2.436 . S
O118 C105 1.270 . S
O119 Pr96 2.512 1_445 S
O119 C105 1.248 . S
O120 Pr97 2.438 1_565 S
O120 C106 1.267 . S
O121 Pr96 2.437 1_455 S
O121 C106 1.278 . S
O122 Pr97 2.562 . S
O122 C107 1.254 . S
O123 Pr97 2.490 . S
O123 C107 1.225 . S
O124 Pr96 2.436 . S
O124 Pr97 2.695 1_665 S
O124 C114 1.270 . S
O125 Pr97 2.512 1_565 S
O125 C114 1.248 1_455 S
O126 Pr96 2.438 1_545 S
O126 C115 1.267 . S
O127 Pr97 2.437 . S
O127 C115 1.278 1_455 S
H128 C100 0.929 . S
H129 C101 0.929 . S
H130 C103 0.931 . S
H131 C104 0.930 . S
H132 C109 0.929 . S
H133 C110 0.929 . S
H134 C112 0.931 . S
H135 C113 0.930 . S
Pr136 C138 2.880 . S
Pr136 O156 2.562 . S
Pr136 O157 2.490 . S
Pr136 O158 2.695 1_554 S
Pr136 O159 2.512 1_554 S
Pr136 O161 2.437 . S
Pr136 O164 2.436 1_545 S
Pr136 O166 2.438 1_544 S
Pr137 C147 2.888 . S
Pr137 O158 2.440 1_565 S
Pr137 O160 2.431 1_566 S
Pr137 O162 2.573 . S
Pr137 O163 2.494 . S
Pr137 O164 2.687 1_556 S
Pr137 O165 2.503 1_556 S
Pr137 O167 2.440 . S
C138 Pr136 2.880 . S
C138 C139 1.491 . S
C138 O156 1.254 . S
C138 O157 1.225 . S
C139 C138 1.491 . S
C139 C140 1.392 . S
C139 C144 1.356 . S
C140 C139 1.392 . S
C140 C141 1.368 . S
C140 H168 0.929 . S
C141 C140 1.368 . S
C141 C142 1.386 . S
C141 H169 0.929 . S
C142 C141 1.386 . S
C142 C143 1.373 . S
C143 C142 1.373 . S
C143 C144 1.409 . S
C143 H170 0.931 . S
C144 C139 1.356 . S
C144 C143 1.409 . S
C144 H171 0.930 . S
C145 O158 1.270 . S
C145 O159 1.248 . S
C146 O160 1.267 . S
C146 O161 1.278 . S
C147 Pr137 2.888 . S
C147 C148 1.491 . S
C147 O162 1.254 . S
C147 O163 1.225 . S
C148 C147 1.491 . S
C148 C149 1.392 . S
C148 C153 1.356 . S
C149 C148 1.392 . S
C149 C150 1.368 . S
C149 H172 0.929 . S
C150 C149 1.368 . S
C150 C151 1.386 . S
C150 H173 0.929 . S
C151 C150 1.386 . S
C151 C152 1.373 . S
C152 C151 1.373 . S
C152 C153 1.409 . S
C152 H174 0.931 . S
C153 C148 1.356 . S
C153 C152 1.409 . S
C153 H175 0.930 . S
C154 O164 1.270 . S
C154 O165 1.248 . S
C155 O166 1.267 . S
C155 O167 1.278 . S
O156 Pr136 2.562 . S
O156 C138 1.254 . S
O157 Pr136 2.490 . S
O157 C138 1.225 . S
O158 Pr136 2.695 1_556 S
O158 Pr137 2.440 1_545 S
O158 C145 1.270 . S
O159 Pr136 2.512 1_556 S
O159 C145 1.248 . S
O160 Pr137 2.431 1_544 S
O160 C146 1.267 . S
O161 Pr136 2.437 . S
O161 C146 1.278 . S
O162 Pr137 2.573 . S
O162 C147 1.254 . S
O163 Pr137 2.494 . S
O163 C147 1.225 . S
O164 Pr136 2.436 1_565 S
O164 Pr137 2.687 1_554 S
O164 C154 1.270 . S
O165 Pr137 2.503 1_554 S
O165 C154 1.248 . S
O166 Pr136 2.438 1_566 S
O166 C155 1.267 . S
O167 Pr137 2.440 . S
O167 C155 1.278 . S
H168 C140 0.929 . S
H169 C141 0.929 . S
H170 C143 0.931 . S
H171 C144 0.930 . S
H172 C149 0.929 . S
H173 C150 0.929 . S
H174 C152 0.931 . S
H175 C153 0.930 . S
Pr176 C178 2.880 . S
Pr176 O196 2.562 . S
Pr176 O197 2.490 . S
Pr176 O198 2.695 . S
Pr176 O199 2.512 . S
Pr176 O201 2.437 . S
Pr176 O204 2.436 . S
Pr176 O206 2.438 . S
Pr177 C187 2.880 . S
Pr177 O198 2.436 . S
Pr177 O200 2.438 . S
Pr177 O202 2.562 . S
Pr177 O203 2.490 . S
Pr177 O204 2.695 . S
Pr177 O205 2.512 . S
Pr177 O207 2.437 . S
C178 Pr176 2.880 . S
C178 C179 1.491 . S
C178 O196 1.254 . S
C178 O197 1.225 . S
C179 C178 1.491 . S
C179 C180 1.392 . S
C179 C184 1.356 . S
C180 C179 1.392 . S
C180 C181 1.368 . S
C180 H208 0.929 . S
C181 C180 1.368 . S
C181 C182 1.386 . S
C181 H209 0.929 . S
C182 C181 1.386 . S
C182 C183 1.373 . S
C183 C182 1.373 . S
C183 C184 1.409 . S
C183 H210 0.931 . S
C184 C179 1.356 . S
C184 C183 1.409 . S
C184 H211 0.930 . S
C185 O198 1.270 . S
C185 O199 1.248 . S
C186 O200 1.267 . S
C186 O201 1.278 . S
C187 Pr177 2.880 . S
C187 C188 1.491 . S
C187 O202 1.254 . S
C187 O203 1.225 . S
C188 C187 1.491 . S
C188 C189 1.392 . S
C188 C193 1.356 . S
C189 C188 1.392 . S
C189 C190 1.368 . S
C189 H212 0.929 . S
C190 C189 1.368 . S
C190 C191 1.386 . S
C190 H213 0.929 . S
C191 C190 1.386 . S
C191 C192 1.373 . S
C192 C191 1.373 . S
C192 C193 1.409 . S
C192 H214 0.931 . S
C193 C188 1.356 . S
C193 C192 1.409 . S
C193 H215 0.930 . S
C194 O204 1.270 . S
C194 O205 1.248 . S
C195 O206 1.267 . S
C195 O207 1.278 . S
O196 Pr176 2.562 . S
O196 C178 1.254 . S
O197 Pr176 2.490 . S
O197 C178 1.225 . S
O198 Pr176 2.695 . S
O198 Pr177 2.436 . S
O198 C185 1.270 . S
O199 Pr176 2.512 . S
O199 C185 1.248 . S
O200 Pr177 2.438 . S
O200 C186 1.267 . S
O201 Pr176 2.437 . S
O201 C186 1.278 . S
O202 Pr177 2.562 . S
O202 C187 1.254 . S
O203 Pr177 2.490 . S
O203 C187 1.225 . S
O204 Pr176 2.436 . S
O204 Pr177 2.695 . S
O204 C194 1.270 . S
O205 Pr177 2.512 . S
O205 C194 1.248 . S
O206 Pr176 2.438 . S
O206 C195 1.267 . S
O207 Pr177 2.437 . S
O207 C195 1.278 . S
H208 C180 0.929 . S
H209 C181 0.929 . S
H210 C183 0.931 . S
H211 C184 0.930 . S
H212 C189 0.929 . S
H213 C190 0.929 . S
H214 C192 0.931 . S
H215 C193 0.930 . S
Pr216 C218 2.880 1_455 S
Pr216 O236 2.562 1_455 S
Pr216 O237 2.490 . S
Pr216 O238 2.695 1_556 S
Pr216 O239 2.512 1_556 S
Pr216 O241 2.430 1_456 S
Pr216 O244 2.436 1_455 S
Pr216 O246 2.438 . S
Pr217 C227 2.880 . S
Pr217 O238 2.436 . S
Pr217 O240 2.438 1_455 S
Pr217 O242 2.562 . S
Pr217 O243 2.490 . S
Pr217 O244 2.695 1_454 S
Pr217 O245 2.512 1_454 S
Pr217 O247 2.437 1_554 S
C218 Pr216 2.880 1_655 S
C218 C219 1.491 . S
C218 O236 1.254 . S
C218 O237 1.225 1_655 S
C219 C218 1.491 . S
C219 C220 1.392 . S
C219 C224 1.356 . S
C220 C219 1.392 . S
C220 C221 1.368 . S
C220 H248 0.929 1_655 S
C221 C220 1.368 . S
C221 C222 1.386 . S
C221 H249 0.929 . S
C222 C221 1.386 . S
C222 C223 1.373 . S
C223 C222 1.373 . S
C223 C224 1.409 . S
C223 H250 0.931 . S
C224 C219 1.356 . S
C224 C223 1.409 . S
C224 H251 0.930 . S
C225 O238 1.270 . S
C225 O239 1.248 . S
C226 O240 1.267 . S
C226 O241 1.281 . S
C227 Pr217 2.880 . S
C227 C228 1.491 . S
C227 O242 1.254 . S
C227 O243 1.225 . S
C228 C227 1.491 . S
C228 C229 1.392 . S
C228 C233 1.356 . S
C229 C228 1.392 . S
C229 C230 1.368 . S
C229 H252 0.929 . S
C230 C229 1.368 . S
C230 C231 1.386 . S
C230 H253 0.929 . S
C231 C230 1.386 . S
C231 C232 1.373 . S
C232 C231 1.373 . S
C232 C233 1.409 . S
C232 H254 0.931 . S
C233 C228 1.356 . S
C233 C232 1.409 . S
C233 H255 0.930 . S
C234 O244 1.270 . S
C234 O245 1.248 . S
C235 O246 1.267 . S
C235 O247 1.278 . S
O236 Pr216 2.562 1_655 S
O236 C218 1.254 . S
O237 Pr216 2.490 . S
O237 C218 1.225 1_455 S
O238 Pr216 2.695 1_554 S
O238 Pr217 2.436 . S
O238 C225 1.270 . S
O239 Pr216 2.512 1_554 S
O239 C225 1.248 . S
O240 Pr217 2.438 1_655 S
O240 C226 1.267 . S
O241 Pr216 2.430 1_654 S
O241 C226 1.281 . S
O242 Pr217 2.562 . S
O242 C227 1.254 . S
O243 Pr217 2.490 . S
O243 C227 1.225 . S
O244 Pr216 2.436 1_655 S
O244 Pr217 2.695 1_656 S
O244 C234 1.270 . S
O245 Pr217 2.512 1_656 S
O245 C234 1.248 . S
O246 Pr216 2.438 . S
O246 C235 1.267 . S
O247 Pr217 2.437 1_556 S
O247 C235 1.278 . S
H248 C220 0.929 1_455 S
H249 C221 0.929 . S
H250 C223 0.931 . S
H251 C224 0.930 . S
H252 C229 0.929 . S
H253 C230 0.929 . S
H254 C232 0.931 . S
H255 C233 0.930 . S
C256 C257 1.363 . S
C256 C262 1.379 . S
C256 N264 1.356 . S
C257 C256 1.363 . S
C257 C263 1.363 . S
C258 C259 1.363 . S
C258 C263 1.379 . S
C258 N265 1.356 . S
C259 C258 1.363 . S
C259 C262 1.363 . S
N260 C262 1.356 . S
N260 H272 0.984 . S
N260 H273 0.985 . S
N261 C263 1.356 . S
N261 H266 0.984 . S
N261 H267 0.985 . S
C262 C256 1.379 . S
C262 C259 1.363 . S
C262 N260 1.356 . S
C263 C257 1.363 . S
C263 C258 1.379 . S
C263 N261 1.356 . S
N264 C256 1.356 . S
N264 H270 0.984 . S
N264 H271 0.984 . S
N265 C258 1.356 . S
N265 H268 0.984 . S
N265 H269 0.985 . S
H266 N261 0.984 . S
H267 N261 0.985 . S
H268 N265 0.984 . S
H269 N265 0.985 . S
H270 N264 0.984 . S
H271 N264 0.984 . S
H272 N260 0.984 . S
H273 N260 0.985 . S
C274 C275 1.363 . S
C274 C280 1.379 . S
C274 N282 1.356 . S
C275 C274 1.363 . S
C275 C281 1.363 . S
C276 C277 1.363 . S
C276 C281 1.379 . S
C276 N283 1.356 . S
C277 C276 1.363 . S
C277 C280 1.363 . S
N278 C280 1.356 . S
N278 H290 0.984 . S
N278 H291 0.985 . S
N279 C281 1.356 . S
N279 H284 0.984 . S
N279 H285 0.985 . S
C280 C274 1.379 . S
C280 C277 1.363 . S
C280 N278 1.356 . S
C281 C275 1.363 . S
C281 C276 1.379 . S
C281 N279 1.356 . S
N282 C274 1.356 . S
N282 H288 0.984 . S
N282 H289 0.984 . S
N283 C276 1.356 . S
N283 H286 0.984 . S
N283 H287 0.985 . S
H284 N279 0.984 . S
H285 N279 0.985 . S
H286 N283 0.984 . S
H287 N283 0.985 . S
H288 N282 0.984 . S
H289 N282 0.984 . S
H290 N278 0.984 . S
H291 N278 0.985 . S
C292 C293 1.363 . S
C292 C298 1.379 . S
C292 N300 1.356 . S
C293 C292 1.363 . S
C293 C299 1.363 . S
C294 C295 1.363 . S
C294 C299 1.379 . S
C294 N301 1.356 . S
C295 C294 1.363 . S
C295 C298 1.363 . S
N296 C298 1.356 . S
N296 H308 0.984 . S
N296 H309 0.985 . S
N297 C299 1.356 . S
N297 H302 0.984 . S
N297 H303 0.985 . S
C298 C292 1.379 . S
C298 C295 1.363 . S
C298 N296 1.356 . S
C299 C293 1.363 . S
C299 C294 1.379 . S
C299 N297 1.356 . S
N300 C292 1.356 . S
N300 H306 0.984 . S
N300 H307 0.984 . S
N301 C294 1.356 . S
N301 H304 0.984 . S
N301 H305 0.985 . S
H302 N297 0.984 . S
H303 N297 0.985 . S
H304 N301 0.984 . S
H305 N301 0.985 . S
H306 N300 0.984 . S
H307 N300 0.984 . S
H308 N296 0.984 . S
H309 N296 0.985 . S
C310 C311 1.363 . S
C310 C316 1.379 . S
C310 N318 1.356 . S
C311 C310 1.363 . S
C311 C317 1.363 . S
C312 C313 1.363 . S
C312 C317 1.379 . S
C312 N319 1.356 . S
C313 C312 1.363 . S
C313 C316 1.363 . S
N314 C316 1.356 . S
N314 H326 0.984 . S
N314 H327 0.985 . S
N315 C317 1.356 . S
N315 H320 0.984 . S
N315 H321 0.985 . S
C316 C310 1.379 . S
C316 C313 1.363 . S
C316 N314 1.356 . S
C317 C311 1.363 . S
C317 C312 1.379 . S
C317 N315 1.356 . S
N318 C310 1.356 . S
N318 H324 0.984 . S
N318 H325 0.984 . S
N319 C312 1.356 . S
N319 H322 0.984 1_655 S
N319 H323 0.985 1_655 S
H320 N315 0.984 . S
H321 N315 0.985 . S
H322 N319 0.984 1_455 S
H323 N319 0.985 1_455 S
H324 N318 0.984 . S
H325 N318 0.984 . S
H326 N314 0.984 . S
H327 N314 0.985 . S
C328 C329 1.363 . S
C328 C334 1.379 . S
C328 N336 1.356 . S
C329 C328 1.363 . S
C329 C335 1.363 . S
C330 C331 1.363 . S
C330 C335 1.379 . S
C330 N337 1.356 . S
C331 C330 1.363 . S
C331 C334 1.363 . S
N332 C334 1.356 . S
N332 H344 0.984 . S
N332 H345 0.985 . S
N333 C335 1.356 . S
N333 H338 0.984 . S
N333 H339 0.985 . S
C334 C328 1.379 . S
C334 C331 1.363 . S
C334 N332 1.356 . S
C335 C329 1.363 . S
C335 C330 1.379 . S
C335 N333 1.356 . S
N336 C328 1.356 . S
N336 H342 0.984 . S
N336 H343 0.984 . S
N337 C330 1.356 . S
N337 H340 0.984 . S
N337 H341 0.985 . S
H338 N333 0.984 . S
H339 N333 0.985 . S
H340 N337 0.984 . S
H341 N337 0.985 . S
H342 N336 0.984 . S
H343 N336 0.984 . S
H344 N332 0.984 . S
H345 N332 0.985 . S
C346 C347 1.363 . S
C346 C352 1.379 . S
C346 N354 1.356 . S
C347 C346 1.363 . S
C347 C353 1.363 . S
C348 C349 1.363 . S
C348 C353 1.379 . S
C348 N355 1.356 . S
C349 C348 1.363 . S
C349 C352 1.363 . S
N350 C352 1.356 . S
N350 H362 0.984 1_455 S
N350 H363 0.985 . S
N351 C353 1.356 . S
N351 H356 0.984 . S
N351 H357 0.985 . S
C352 C346 1.379 . S
C352 C349 1.363 . S
C352 N350 1.356 . S
C353 C347 1.363 . S
C353 C348 1.379 . S
C353 N351 1.356 . S
N354 C346 1.356 . S
N354 H360 0.992 . S
N354 H361 0.984 . S
N355 C348 1.356 . S
N355 H358 0.984 . S
N355 H359 0.985 . S
H356 N351 0.984 . S
H357 N351 0.985 . S
H358 N355 0.984 . S
H359 N355 0.985 . S
H360 N354 0.992 . S
H361 N354 0.984 . S
H362 N350 0.984 1_655 S
H363 N350 0.985 . S
C364 C365 1.363 . S
C364 C370 1.379 . S
C364 N372 1.356 . S
C365 C364 1.363 . S
C365 C371 1.363 . S
C366 C367 1.363 . S
C366 C371 1.379 . S
C366 N373 1.356 . S
C367 C366 1.363 . S
C367 C370 1.363 . S
N368 C370 1.356 . S
N368 H380 0.984 . S
N368 H381 0.985 . S
N369 C371 1.356 . S
N369 H374 0.984 . S
N369 H375 0.985 . S
C370 C364 1.379 . S
C370 C367 1.363 . S
C370 N368 1.356 . S
C371 C365 1.363 . S
C371 C366 1.379 . S
C371 N369 1.356 . S
N372 C364 1.356 . S
N372 H378 0.984 . S
N372 H379 0.984 . S
N373 C366 1.356 . S
N373 H376 0.984 . S
N373 H377 0.985 . S
H374 N369 0.984 . S
H375 N369 0.985 . S
H376 N373 0.984 . S
H377 N373 0.985 . S
H378 N372 0.984 . S
H379 N372 0.984 . S
H380 N368 0.984 . S
H381 N368 0.985 . S
C382 C383 1.363 . S
C382 C388 1.379 . S
C382 N390 1.356 . S
C383 C382 1.363 . S
C383 C389 1.363 . S
C384 C385 1.363 . S
C384 C389 1.379 . S
C384 N391 1.356 . S
C385 C384 1.363 . S
C385 C388 1.363 . S
N386 C388 1.356 . S
N386 H398 0.984 . S
N386 H399 0.985 . S
N387 C389 1.356 . S
N387 H392 0.984 . S
N387 H393 0.985 . S
C388 C382 1.379 . S
C388 C385 1.363 . S
C388 N386 1.356 . S
C389 C383 1.363 . S
C389 C384 1.379 . S
C389 N387 1.356 . S
N390 C382 1.356 . S
N390 H396 0.984 . S
N390 H397 0.984 . S
N391 C384 1.356 . S
N391 H394 0.984 . S
N391 H395 0.985 . S
H392 N387 0.984 . S
H393 N387 0.985 . S
H394 N391 0.984 . S
H395 N391 0.985 . S
H396 N390 0.984 . S
H397 N390 0.984 . S
H398 N386 0.984 . S
H399 N386 0.985 . S
C400 C401 1.363 . S
C400 C406 1.379 . S
C400 N408 1.356 . S
C401 C400 1.363 . S
C401 C407 1.363 . S
C402 C403 1.363 . S
C402 C407 1.379 . S
C402 N409 1.356 . S
C403 C402 1.363 . S
C403 C406 1.363 . S
N404 C406 1.356 . S
N404 H416 0.984 . S
N404 H417 0.985 . S
N405 C407 1.356 . S
N405 H410 0.984 . S
N405 H411 0.985 . S
C406 C400 1.379 . S
C406 C403 1.363 . S
C406 N404 1.356 . S
C407 C401 1.363 . S
C407 C402 1.379 . S
C407 N405 1.356 . S
N408 C400 1.356 . S
N408 H414 0.984 . S
N408 H415 0.984 . S
N409 C402 1.356 . S
N409 H412 0.984 . S
N409 H413 0.985 . S
H410 N405 0.984 . S
H411 N405 0.985 . S
H412 N409 0.984 . S
H413 N409 0.985 . S
H414 N408 0.984 . S
H415 N408 0.984 . S
H416 N404 0.984 . S
H417 N404 0.985 . S
C418 C419 1.363 . S
C418 C424 1.379 . S
C418 N426 1.356 . S
C419 C418 1.363 . S
C419 C425 1.363 . S
C420 C421 1.363 . S
C420 C425 1.379 . S
C420 N427 1.356 . S
C421 C420 1.363 . S
C421 C424 1.363 . S
N422 C424 1.356 . S
N422 H434 0.984 . S
N422 H435 0.985 . S
N423 C425 1.356 . S
N423 H428 0.984 . S
N423 H429 0.985 . S
C424 C418 1.379 . S
C424 C421 1.363 . S
C424 N422 1.356 . S
C425 C419 1.363 . S
C425 C420 1.379 . S
C425 N423 1.356 . S
N426 C418 1.356 . S
N426 H432 0.984 . S
N426 H433 0.984 . S
N427 C420 1.356 . S
N427 H430 0.984 . S
N427 H431 0.985 . S
H428 N423 0.984 . S
H429 N423 0.985 . S
H430 N427 0.984 . S
H431 N427 0.985 . S
H432 N426 0.984 . S
H433 N426 0.984 . S
H434 N422 0.984 . S
H435 N422 0.985 . S
C436 C437 1.363 . S
C436 C442 1.379 . S
C436 N444 1.356 . S
C437 C436 1.363 . S
C437 C443 1.363 . S
C438 C439 1.363 . S
C438 C443 1.379 . S
C438 N445 1.356 . S
C439 C438 1.363 . S
C439 C442 1.363 . S
N440 C442 1.356 . S
N440 H452 0.984 . S
N440 H453 0.985 . S
N441 C443 1.356 . S
N441 H446 0.984 . S
N441 H447 0.985 . S
C442 C436 1.379 . S
C442 C439 1.363 . S
C442 N440 1.356 . S
C443 C437 1.363 . S
C443 C438 1.379 . S
C443 N441 1.356 . S
N444 C436 1.356 . S
N444 H450 0.984 . S
N444 H451 0.984 . S
N445 C438 1.356 . S
N445 H448 0.984 1_655 S
N445 H449 0.985 1_655 S
H446 N441 0.984 . S
H447 N441 0.985 . S
H448 N445 0.984 1_455 S
H449 N445 0.985 1_455 S
H450 N444 0.984 . S
H451 N444 0.984 . S
H452 N440 0.984 . S
H453 N440 0.985 . S
C454 C455 1.363 . S
C454 C460 1.379 . S
C454 N462 1.356 . S
C455 C454 1.363 . S
C455 C461 1.363 . S
C456 C457 1.363 . S
C456 C461 1.379 . S
C456 N463 1.356 . S
C457 C456 1.363 . S
C457 C460 1.363 . S
N458 C460 1.356 . S
N458 H470 0.984 . S
N458 H471 0.985 . S
N459 C461 1.356 . S
N459 H464 0.984 . S
N459 H465 0.985 . S
C460 C454 1.379 . S
C460 C457 1.363 . S
C460 N458 1.356 . S
C461 C455 1.363 . S
C461 C456 1.379 . S
C461 N459 1.356 . S
N462 C454 1.356 . S
N462 H468 0.984 . S
N462 H469 0.984 . S
N463 C456 1.356 . S
N463 H466 0.984 . S
N463 H467 0.985 . S
H464 N459 0.984 . S
H465 N459 0.985 . S
H466 N463 0.984 . S
H467 N463 0.985 . S
H468 N462 0.984 . S
H469 N462 0.984 . S
H470 N458 0.984 . S
H471 N458 0.985 . S
C472 C473 1.363 . S
C472 C478 1.379 . S
C472 N480 1.356 . S
C473 C472 1.363 . S
C473 C479 1.363 . S
C474 C475 1.363 . S
C474 C479 1.379 . S
C474 N481 1.356 . S
C475 C474 1.363 . S
C475 C478 1.363 . S
N476 C478 1.356 . S
N476 H488 0.984 . S
N476 H489 0.985 . S
N477 C479 1.356 . S
N477 H482 0.984 . S
N477 H483 0.985 . S
C478 C472 1.379 . S
C478 C475 1.363 . S
C478 N476 1.356 . S
C479 C473 1.363 . S
C479 C474 1.379 . S
C479 N477 1.356 . S
N480 C472 1.356 . S
N480 H486 0.984 . S
N480 H487 0.984 . S
N481 C474 1.356 . S
N481 H484 0.984 . S
N481 H485 0.985 . S
H482 N477 0.984 . S
H483 N477 0.985 . S
H484 N481 0.984 . S
H485 N481 0.985 . S
H486 N480 0.984 . S
H487 N480 0.984 . S
H488 N476 0.984 . S
H489 N476 0.985 . S
C490 C491 1.363 . S
C490 C496 1.379 . S
C490 N498 1.356 . S
C491 C490 1.363 . S
C491 C497 1.363 . S
C492 C493 1.363 . S
C492 C497 1.379 . S
C492 N499 1.356 . S
C493 C492 1.363 . S
C493 C496 1.363 . S
N494 C496 1.356 . S
N494 H506 0.984 . S
N494 H507 0.985 . S
N495 C497 1.356 . S
N495 H500 0.984 . S
N495 H501 0.985 . S
C496 C490 1.379 . S
C496 C493 1.363 . S
C496 N494 1.356 . S
C497 C491 1.363 . S
C497 C492 1.379 . S
C497 N495 1.356 . S
N498 C490 1.356 . S
N498 H504 0.984 . S
N498 H505 0.984 . S
N499 C492 1.356 . S
N499 H502 0.984 . S
N499 H503 0.985 . S
H500 N495 0.984 . S
H501 N495 0.985 . S
H502 N499 0.984 . S
H503 N499 0.985 . S
H504 N498 0.984 . S
H505 N498 0.984 . S
H506 N494 0.984 . S
H507 N494 0.985 . S
C508 C509 1.363 . S
C508 C514 1.379 . S
C508 N516 1.356 . S
C509 C508 1.363 . S
C509 C515 1.363 . S
C510 C511 1.363 . S
C510 C515 1.379 . S
C510 N517 1.356 . S
C511 C510 1.363 . S
C511 C514 1.363 . S
N512 C514 1.356 . S
N512 H524 0.984 . S
N512 H525 0.985 . S
N513 C515 1.356 . S
N513 H518 0.984 . S
N513 H519 0.985 . S
C514 C508 1.379 . S
C514 C511 1.363 . S
C514 N512 1.356 . S
C515 C509 1.363 . S
C515 C510 1.379 . S
C515 N513 1.356 . S
N516 C508 1.356 . S
N516 H522 0.984 . S
N516 H523 0.984 . S
N517 C510 1.356 . S
N517 H520 0.984 . S
N517 H521 0.985 . S
H518 N513 0.984 . S
H519 N513 0.985 . S
H520 N517 0.984 . S
H521 N517 0.985 . S
H522 N516 0.984 . S
H523 N516 0.984 . S
H524 N512 0.984 . S
H525 N512 0.985 . S
C526 C527 1.363 . S
C526 C532 1.379 . S
C526 N534 1.356 . S
C527 C526 1.363 . S
C527 C533 1.363 . S
C528 C529 1.363 . S
C528 C533 1.379 . S
C528 N535 1.356 . S
C529 C528 1.363 . S
C529 C532 1.363 . S
N530 C532 1.356 . S
N530 H542 0.984 . S
N530 H543 0.985 . S
N531 C533 1.356 . S
N531 H536 0.984 . S
N531 H537 0.985 . S
C532 C526 1.379 . S
C532 C529 1.363 . S
C532 N530 1.356 . S
C533 C527 1.363 . S
C533 C528 1.379 . S
C533 N531 1.356 . S
N534 C526 1.356 . S
N534 H540 0.984 . S
N534 H541 0.984 . S
N535 C528 1.356 . S
N535 H538 0.984 . S
N535 H539 0.985 . S
H536 N531 0.984 . S
H537 N531 0.985 . S
H538 N535 0.984 . S
H539 N535 0.985 . S
H540 N534 0.984 . S
H541 N534 0.984 . S
H542 N530 0.984 . S
H543 N530 0.985 . S
C544 C545 1.363 . S
C544 C550 1.379 . S
C544 N552 1.356 . S
C545 C544 1.363 . S
C545 C551 1.363 . S
C546 C547 1.363 . S
C546 C551 1.379 . S
C546 N553 1.356 . S
C547 C546 1.363 . S
C547 C550 1.363 . S
N548 C550 1.356 . S
N548 H560 0.984 . S
N548 H561 0.985 . S
N549 C551 1.356 . S
N549 H554 0.984 . S
N549 H555 0.985 . S
C550 C544 1.379 . S
C550 C547 1.363 . S
C550 N548 1.356 . S
C551 C545 1.363 . S
C551 C546 1.379 . S
C551 N549 1.356 . S
N552 C544 1.356 . S
N552 H558 0.984 . S
N552 H559 0.984 . S
N553 C546 1.356 . S
N553 H556 0.984 . S
N553 H557 0.985 . S
H554 N549 0.984 . S
H555 N549 0.985 . S
H556 N553 0.984 . S
H557 N553 0.985 . S
H558 N552 0.984 . S
H559 N552 0.984 . S
H560 N548 0.984 . S
H561 N548 0.985 . S
C562 C563 1.363 . S
C562 C568 1.379 . S
C562 N570 1.356 . S
C563 C562 1.363 . S
C563 C569 1.363 . S
C564 C565 1.363 . S
C564 C569 1.379 . S
C564 N571 1.356 1_655 S
C565 C564 1.363 . S
C565 C568 1.363 . S
N566 C568 1.356 . S
N566 H578 0.984 . S
N566 H579 0.985 . S
N567 C569 1.356 1_455 S
N567 H572 0.976 1_455 S
N567 H573 0.985 . S
C568 C562 1.379 . S
C568 C565 1.363 . S
C568 N566 1.356 . S
C569 C563 1.363 . S
C569 C564 1.379 . S
C569 N567 1.356 1_655 S
N570 C562 1.356 . S
N570 H576 0.984 . S
N570 H577 0.984 . S
N571 C564 1.356 1_455 S
N571 H574 0.984 . S
N571 H575 0.985 . S
H572 N567 0.976 1_655 S
H573 N567 0.985 . S
H574 N571 0.984 . S
H575 N571 0.985 . S
H576 N570 0.984 . S
H577 N570 0.984 . S
H578 N566 0.984 . S
H579 N566 0.985 . S
C580 C581 1.363 . S
C580 C586 1.379 . S
C580 N588 1.356 . S
C581 C580 1.363 . S
C581 C587 1.363 . S
C582 C583 1.363 . S
C582 C587 1.379 . S
C582 N589 1.356 . S
C583 C582 1.363 . S
C583 C586 1.363 . S
N584 C586 1.356 . S
N584 H596 0.984 . S
N584 H597 0.985 . S
N585 C587 1.356 . S
N585 H590 0.984 . S
N585 H591 0.985 . S
C586 C580 1.379 . S
C586 C583 1.363 . S
C586 N584 1.356 . S
C587 C581 1.363 . S
C587 C582 1.379 . S
C587 N585 1.356 . S
N588 C580 1.356 . S
N588 H594 0.984 . S
N588 H595 0.984 . S
N589 C582 1.356 . S
N589 H592 0.984 . S
N589 H593 0.985 . S
H590 N585 0.984 . S
H591 N585 0.985 . S
H592 N589 0.984 . S
H593 N589 0.985 . S
H594 N588 0.984 . S
H595 N588 0.984 . S
H596 N584 0.984 . S
H597 N584 0.985 . S
C598 C599 1.363 . S
C598 C604 1.379 . S
C598 N606 1.356 . S
C599 C598 1.363 . S
C599 C605 1.363 . S
C600 C601 1.363 . S
C600 C605 1.379 . S
C600 N607 1.356 . S
C601 C600 1.363 . S
C601 C604 1.363 . S
N602 C604 1.356 . S
N602 H614 0.984 . S
N602 H615 0.985 . S
N603 C605 1.356 . S
N603 H608 0.984 . S
N603 H609 0.985 . S
C604 C598 1.379 . S
C604 C601 1.363 . S
C604 N602 1.356 . S
C605 C599 1.363 . S
C605 C600 1.379 . S
C605 N603 1.356 . S
N606 C598 1.356 . S
N606 H612 0.984 . S
N606 H613 0.984 . S
N607 C600 1.356 . S
N607 H610 0.984 . S
N607 H611 0.985 . S
H608 N603 0.984 . S
H609 N603 0.985 . S
H610 N607 0.984 . S
H611 N607 0.985 . S
H612 N606 0.984 . S
H613 N606 0.984 . S
H614 N602 0.984 . S
H615 N602 0.985 . S
C616 C617 1.363 . S
C616 C622 1.379 . S
C616 N624 1.356 . S
C617 C616 1.363 . S
C617 C623 1.363 . S
C618 C619 1.363 . S
C618 C623 1.379 . S
C618 N625 1.356 . S
C619 C618 1.363 . S
C619 C622 1.363 . S
N620 C622 1.356 . S
N620 H632 0.984 . S
N620 H633 0.985 . S
N621 C623 1.356 . S
N621 H626 0.984 . S
N621 H627 0.985 . S
C622 C616 1.379 . S
C622 C619 1.363 . S
C622 N620 1.356 . S
C623 C617 1.363 . S
C623 C618 1.379 . S
C623 N621 1.356 . S
N624 C616 1.356 . S
N624 H630 0.984 . S
N624 H631 0.984 . S
N625 C618 1.356 . S
N625 H628 0.984 . S
N625 H629 0.985 . S
H626 N621 0.984 . S
H627 N621 0.985 . S
H628 N625 0.984 . S
H629 N625 0.985 . S
H630 N624 0.984 . S
H631 N624 0.984 . S
H632 N620 0.984 . S
H633 N620 0.985 . S
C634 C635 1.363 . S
C634 C640 1.379 . S
C634 N642 1.356 . S
C635 C634 1.363 . S
C635 C641 1.363 . S
C636 C637 1.363 . S
C636 C641 1.379 . S
C636 N643 1.356 . S
C637 C636 1.363 . S
C637 C640 1.363 . S
N638 C640 1.356 . S
N638 H650 0.984 . S
N638 H651 0.985 . S
N639 C641 1.356 . S
N639 H644 0.984 . S
N639 H645 0.985 . S
C640 C634 1.379 . S
C640 C637 1.363 . S
C640 N638 1.356 . S
C641 C635 1.363 . S
C641 C636 1.379 . S
C641 N639 1.356 . S
N642 C634 1.356 . S
N642 H648 0.984 . S
N642 H649 0.984 . S
N643 C636 1.356 . S
N643 H646 0.984 . S
N643 H647 0.985 . S
H644 N639 0.984 . S
H645 N639 0.985 . S
H646 N643 0.984 . S
H647 N643 0.985 . S
H648 N642 0.984 . S
H649 N642 0.984 . S
H650 N638 0.984 . S
H651 N638 0.985 . S
C652 C653 1.363 . S
C652 C658 1.379 . S
C652 N660 1.356 . S
C653 C652 1.363 . S
C653 C659 1.363 . S
C654 C655 1.363 . S
C654 C659 1.379 . S
C654 N661 1.356 . S
C655 C654 1.363 . S
C655 C658 1.363 . S
N656 C658 1.356 . S
N656 H668 0.984 . S
N656 H669 0.985 . S
N657 C659 1.356 . S
N657 H662 0.984 . S
N657 H663 0.985 . S
C658 C652 1.379 . S
C658 C655 1.363 . S
C658 N656 1.356 . S
C659 C653 1.363 . S
C659 C654 1.379 . S
C659 N657 1.356 . S
N660 C652 1.356 . S
N660 H666 0.984 . S
N660 H667 0.984 . S
N661 C654 1.356 . S
N661 H664 0.984 . S
N661 H665 0.985 . S
H662 N657 0.984 . S
H663 N657 0.985 . S
H664 N661 0.984 . S
H665 N661 0.985 . S
H666 N660 0.984 . S
H667 N660 0.984 . S
H668 N656 0.984 . S
H669 N656 0.985 . S
C670 C671 1.363 . S
C670 C676 1.379 . S
C670 N678 1.356 . S
C671 C670 1.363 . S
C671 C677 1.363 . S
C672 C673 1.363 . S
C672 C677 1.379 . S
C672 N679 1.356 . S
C673 C672 1.363 . S
C673 C676 1.363 . S
N674 C676 1.356 . S
N674 H686 0.984 . S
N674 H687 0.985 . S
N675 C677 1.356 . S
N675 H680 0.984 . S
N675 H681 0.985 . S
C676 C670 1.379 . S
C676 C673 1.363 . S
C676 N674 1.356 . S
C677 C671 1.363 . S
C677 C672 1.379 . S
C677 N675 1.356 . S
N678 C670 1.356 . S
N678 H684 0.984 . S
N678 H685 0.984 . S
N679 C672 1.356 . S
N679 H682 0.984 . S
N679 H683 0.985 . S
H680 N675 0.984 . S
H681 N675 0.985 . S
H682 N679 0.984 . S
H683 N679 0.985 . S
H684 N678 0.984 . S
H685 N678 0.984 . S
H686 N674 0.984 . S
H687 N674 0.985 . S
C257 C6 1.135 . S
C259 C111 1.225 . S
C275 C18 1.561 . S
C277 C155 1.586 . S
C295 C185 2.442 . S
C293 C28 2.432 . S
C311 C40 2.211 . S
C313 C226 2.191 . S
C331 C142 1.213 . S
C329 C9 1.133 . S
C349 C106 2.392 . S
C347 C16 2.320 . S
C367 C234 1.143 . S
C365 C30 1.125 . S
C385 C195 1.942 . S
C383 C42 2.001 . S
C401 C4 1.726 . S
C403 C231 1.754 . S
C421 C145 2.177 . S
C419 C33 2.201 . S
C437 C45 1.780 . S
C439 C114 1.769 . S
C455 C21 2.274 . S
C457 C182 2.277 . S
C475 C102 1.185 . S
C473 C57 1.128 . S
C491 C66 1.514 . S
C493 C146 1.574 . S
C509 C76 2.480 . S
C511 C194 2.504 . S
C527 C88 2.131 . S
C529 C235 2.102 . S
C545 C54 1.166 . S
C547 C151 1.223 . S
C565 C115 2.467 . S
C563 C64 2.424 . S
C583 C225 1.068 . S
C581 C78 1.049 . S
C601 C186 1.995 . S
C599 C93 2.042 . S
C617 C52 1.876 . S
C619 C222 1.909 . S
C637 C154 2.155 . S
C635 C81 2.178 . S
C655 C105 1.745 . S
C653 C90 1.754 . S
C671 C69 2.237 . S
C673 C191 2.264 . S
