# Generated by pormake.
# Topology the, (3,8)-cn, num edge types: 1
# Building blocks:
#     Node 0, Type 0, BuildingBlock: MIDCAF_clean_linker_0, # of connection points: 3
#     Node 1, Type 0, BuildingBlock: MIDCAF_clean_linker_0, # of connection points: 3
#     Node 2, Type 0, BuildingBlock: MIDCAF_clean_linker_0, # of connection points: 3
#     Node 3, Type 0, BuildingBlock: MIDCAF_clean_linker_0, # of connection points: 3
#     Node 4, Type 0, BuildingBlock: MIDCAF_clean_linker_0, # of connection points: 3
#     Node 5, Type 0, BuildingBlock: MIDCAF_clean_linker_0, # of connection points: 3
#     Node 6, Type 0, BuildingBlock: MIDCAF_clean_linker_0, # of connection points: 3
#     Node 7, Type 0, BuildingBlock: MIDCAF_clean_linker_0, # of connection points: 3
#     Node 8, Type 1, BuildingBlock: GIZVER_clean_sbu_0, # of connection points: 8
#     Node 9, Type 1, BuildingBlock: GIZVER_clean_sbu_0, # of connection points: 8
#     Node 10, Type 1, BuildingBlock: GIZVER_clean_sbu_0, # of connection points: 8
#     Edge 11, Type (0, 1), BuildingBlock: TEMPAE_clean_linker_10, # of connection points: 2
#     Edge 12, Type (0, 1), BuildingBlock: TEMPAE_clean_linker_10, # of connection points: 2
#     Edge 13, Type (0, 1), BuildingBlock: TEMPAE_clean_linker_10, # of connection points: 2
#     Edge 14, Type (0, 1), BuildingBlock: TEMPAE_clean_linker_10, # of connection points: 2
#     Edge 15, Type (0, 1), BuildingBlock: TEMPAE_clean_linker_10, # of connection points: 2
#     Edge 16, Type (0, 1), BuildingBlock: TEMPAE_clean_linker_10, # of connection points: 2
#     Edge 17, Type (0, 1), BuildingBlock: TEMPAE_clean_linker_10, # of connection points: 2
#     Edge 18, Type (0, 1), BuildingBlock: TEMPAE_clean_linker_10, # of connection points: 2
#     Edge 19, Type (0, 1), BuildingBlock: TEMPAE_clean_linker_10, # of connection points: 2
#     Edge 20, Type (0, 1), BuildingBlock: TEMPAE_clean_linker_10, # of connection points: 2
#     Edge 21, Type (0, 1), BuildingBlock: TEMPAE_clean_linker_10, # of connection points: 2
#     Edge 22, Type (0, 1), BuildingBlock: TEMPAE_clean_linker_10, # of connection points: 2
#     Edge 23, Type (0, 1), BuildingBlock: TEMPAE_clean_linker_10, # of connection points: 2
#     Edge 24, Type (0, 1), BuildingBlock: TEMPAE_clean_linker_10, # of connection points: 2
#     Edge 25, Type (0, 1), BuildingBlock: TEMPAE_clean_linker_10, # of connection points: 2
#     Edge 26, Type (0, 1), BuildingBlock: TEMPAE_clean_linker_10, # of connection points: 2
#     Edge 27, Type (0, 1), BuildingBlock: TEMPAE_clean_linker_10, # of connection points: 2
#     Edge 28, Type (0, 1), BuildingBlock: TEMPAE_clean_linker_10, # of connection points: 2
#     Edge 29, Type (0, 1), BuildingBlock: TEMPAE_clean_linker_10, # of connection points: 2
#     Edge 30, Type (0, 1), BuildingBlock: TEMPAE_clean_linker_10, # of connection points: 2
#     Edge 31, Type (0, 1), BuildingBlock: TEMPAE_clean_linker_10, # of connection points: 2
#     Edge 32, Type (0, 1), BuildingBlock: TEMPAE_clean_linker_10, # of connection points: 2
#     Edge 33, Type (0, 1), BuildingBlock: TEMPAE_clean_linker_10, # of connection points: 2
#     Edge 34, Type (0, 1), BuildingBlock: TEMPAE_clean_linker_10, # of connection points: 2
# Relax obj value: 0.045
# Max RMSD: 0.138
# Mean RMSD: 0.067
data_MOF--net-the--node1-GIZVER_clean_sbu_0--node2-MIDCAF_clean_linker_0--edge1-TEMPAE_clean_linker_10
_symmetry_space_group_name_H-M    P1
_symmetry_Int_Tables_number       1
_symmetry_cell_setting            triclinic
loop_
_symmetry_equiv_pos_as_xyz
'x, y, z'
_cell_length_a     50.417719
_cell_length_b     47.622265
_cell_length_c     44.33304
_cell_angle_alpha  86.635224
_cell_angle_beta   94.368723
_cell_angle_gamma 101.24027
loop_
_atom_site_label
_atom_site_type_symbol
_atom_site_fract_x
_atom_site_fract_y
_atom_site_fract_z
_atom_type_partial_charge
C0 C 0.27036 0.40947 0.44655 0.0
C1 C 0.25395 0.39187 0.46723 0.0
C2 C 0.25419 0.36235 0.46928 0.0
C3 C 0.26959 0.35057 0.45041 0.0
H4 H 0.30504 0.28081 0.44418 0.0
H5 H 0.31974 0.2358 0.4584 0.0
H6 H 0.35791 0.24004 0.37381 0.0
H7 H 0.34279 0.28459 0.3592 0.0
H8 H 0.32268 0.33049 0.30738 0.0
H9 H 0.33788 0.35368 0.25988 0.0
H10 H 0.34464 0.43666 0.29755 0.0
H11 H 0.32825 0.41327 0.34503 0.0
H12 H 0.29731 0.41156 0.41104 0.0
H13 H 0.27109 0.43238 0.44475 0.0
H14 H 0.24147 0.34798 0.48445 0.0
H15 H 0.26858 0.3276 0.45204 0.0
N16 N 0.30412 0.32803 0.41315 0.0
N17 N 0.3224 0.32883 0.36613 0.0
N18 N 0.30569 0.36856 0.38003 0.0
C19 C 0.316 0.31499 0.39297 0.0
C20 C 0.31729 0.35553 0.35946 0.0
C21 C 0.29889 0.35474 0.40689 0.0
C22 C 0.32294 0.28651 0.40064 0.0
C23 C 0.31633 0.27203 0.42844 0.0
C24 C 0.32483 0.24628 0.43668 0.0
C25 C 0.34011 0.23448 0.41731 0.0
C26 C 0.34589 0.24841 0.38909 0.0
C27 C 0.33737 0.2741 0.38081 0.0
C28 C 0.32462 0.37006 0.33007 0.0
C29 C 0.32725 0.3537 0.30553 0.0
C30 C 0.33608 0.36701 0.27831 0.0
C31 C 0.34299 0.39703 0.27508 0.0
C32 C 0.33938 0.4135 0.29925 0.0
C33 C 0.33011 0.40011 0.32647 0.0
C34 C 0.2848 0.36793 0.42867 0.0
C35 C 0.28544 0.39758 0.42727 0.0
C36 C 0.66441 0.23209 0.37116 0.0
C37 C 0.64238 0.21603 0.35447 0.0
C38 C 0.63469 0.22648 0.3255 0.0
C39 C 0.64833 0.25274 0.3137 0.0
H40 H 0.62815 0.33056 0.27388 0.0
H41 H 0.60276 0.35292 0.23353 0.0
H42 H 0.67751 0.40088 0.20081 0.0
H43 H 0.70322 0.37871 0.24176 0.0
H44 H 0.74537 0.39289 0.3183 0.0
H45 H 0.78869 0.41444 0.3433 0.0
H46 H 0.80328 0.33006 0.37174 0.0
H47 H 0.75947 0.30877 0.34807 0.0
H48 H 0.69513 0.27018 0.37265 0.0
H49 H 0.67081 0.22445 0.39352 0.0
H50 H 0.61764 0.21467 0.31226 0.0
H51 H 0.6416 0.26033 0.29146 0.0
N52 N 0.67099 0.31164 0.29616 0.0
N53 N 0.70817 0.34998 0.29613 0.0
N54 N 0.70912 0.30967 0.32923 0.0
C55 C 0.68285 0.33786 0.28496 0.0
C56 C 0.72145 0.33591 0.31833 0.0
C57 C 0.68392 0.29737 0.31821 0.0
C58 C 0.66776 0.3528 0.26104 0.0
C59 C 0.63927 0.34596 0.25822 0.0
C60 C 0.62467 0.35887 0.2352 0.0
C61 C 0.63814 0.37862 0.21404 0.0
C62 C 0.66663 0.38562 0.21677 0.0
C63 C 0.68131 0.37307 0.24028 0.0
C64 C 0.74879 0.34911 0.33136 0.0
C65 C 0.75792 0.37896 0.32974 0.0
C66 C 0.78292 0.39131 0.34399 0.0
C67 C 0.79967 0.3741 0.35983 0.0
C68 C 0.79082 0.34416 0.36048 0.0
C69 C 0.76568 0.33188 0.34668 0.0
C70 C 0.67026 0.26899 0.33042 0.0
C71 C 0.67838 0.25818 0.35914 0.0
C72 C 0.66673 0.64541 0.23571 0.0
C73 C 0.64498 0.65548 0.21979 0.0
C74 C 0.63786 0.68062 0.2292 0.0
C75 C 0.652 0.69515 0.25393 0.0
H76 H 0.65352 0.76365 0.30952 0.0
H77 H 0.63569 0.80072 0.33268 0.0
H78 H 0.69275 0.79773 0.40992 0.0
H79 H 0.71062 0.76057 0.38695 0.0
H80 H 0.76504 0.73211 0.37372 0.0
H81 H 0.80562 0.71561 0.39529 0.0
H82 H 0.7814 0.63758 0.34682 0.0
H83 H 0.74168 0.65451 0.32448 0.0
H84 H 0.69741 0.6513 0.27197 0.0
H85 H 0.67254 0.62588 0.22958 0.0
H86 H 0.62144 0.68925 0.21729 0.0
H87 H 0.64592 0.7144 0.26048 0.0
N88 N 0.68009 0.72211 0.30823 0.0
N89 N 0.71643 0.72664 0.34526 0.0
N90 N 0.7114 0.69152 0.30925 0.0
C91 C 0.69373 0.73548 0.33277 0.0
C92 C 0.72542 0.70467 0.33357 0.0
C93 C 0.6888 0.70006 0.29633 0.0
C94 C 0.68352 0.75894 0.34633 0.0
C95 C 0.6624 0.77091 0.33139 0.0
C96 C 0.65225 0.79234 0.34458 0.0
C97 C 0.66278 0.8022 0.37317 0.0
C98 C 0.68404 0.79044 0.388 0.0
C99 C 0.69436 0.76921 0.3747 0.0
C100 C 0.75005 0.69473 0.34724 0.0
C101 C 0.76843 0.71146 0.36762 0.0
C102 C 0.7917 0.70192 0.38011 0.0
C103 C 0.79703 0.67526 0.37276 0.0
C104 C 0.77847 0.65851 0.35253 0.0
C105 C 0.75545 0.66817 0.33984 0.0
C106 C 0.67373 0.68499 0.26984 0.0
C107 C 0.68093 0.65997 0.26027 0.0
C108 C 0.21639 0.67265 0.36661 0.0
C109 C 0.20131 0.64765 0.3538 0.0
C110 C 0.21131 0.63679 0.32905 0.0
C111 C 0.23608 0.65013 0.31791 0.0
H112 H 0.30708 0.62993 0.28236 0.0
H113 H 0.32712 0.60477 0.24676 0.0
H114 H 0.36677 0.68605 0.20745 0.0
H115 H 0.3481 0.71101 0.24482 0.0
H116 H 0.36276 0.76123 0.30205 0.0
H117 H 0.38848 0.80405 0.32567 0.0
H118 H 0.33275 0.79183 0.39681 0.0
H119 H 0.30659 0.74985 0.37271 0.0
H120 H 0.25238 0.70498 0.36623 0.0
H121 H 0.2095 0.68139 0.38595 0.0
H122 H 0.20005 0.61781 0.31836 0.0
H123 H 0.24321 0.64092 0.29903 0.0
N124 N 0.28947 0.67541 0.29896 0.0
N125 N 0.32775 0.71252 0.30007 0.0
N126 N 0.29239 0.71307 0.33148 0.0
C127 C 0.31405 0.6874 0.28877 0.0
C128 C 0.31707 0.72541 0.32164 0.0
C129 C 0.27835 0.68821 0.3201 0.0
C130 C 0.32604 0.67246 0.26642 0.0
C131 C 0.32011 0.64241 0.26609 0.0
C132 C 0.33147 0.62796 0.24537 0.0
C133 C 0.34857 0.64318 0.22378 0.0
C134 C 0.35419 0.67339 0.22396 0.0
C135 C 0.34335 0.68781 0.24527 0.0
C136 C 0.33254 0.75199 0.3354 0.0
C137 C 0.35591 0.76777 0.32265 0.0
C138 C 0.37077 0.79228 0.33632 0.0
C139 C 0.36279 0.80153 0.36325 0.0
C140 C 0.33931 0.7858 0.37582 0.0
C141 C 0.32434 0.7615 0.36203 0.0
C142 C 0.25149 0.67476 0.33117 0.0
C143 C 0.24114 0.68607 0.35541 0.0
C144 C 0.24026 0.62488 0.67534 0.0
C145 C 0.2241 0.64067 0.65667 0.0
C146 C 0.23327 0.67032 0.65203 0.0
C147 C 0.25825 0.68379 0.66538 0.0
H148 H 0.31722 0.76086 0.66177 0.0
H149 H 0.34175 0.80601 0.63968 0.0
H150 H 0.41655 0.78901 0.68401 0.0
H151 H 0.39228 0.74428 0.70634 0.0
H152 H 0.37887 0.70769 0.77372 0.0
H153 H 0.40172 0.68562 0.81644 0.0
H154 H 0.35021 0.60383 0.7989 0.0
H155 H 0.32705 0.62594 0.75594 0.0
H156 H 0.27693 0.62555 0.70328 0.0
H157 H 0.23361 0.60204 0.67953 0.0
H158 H 0.22133 0.68301 0.63764 0.0
H159 H 0.26478 0.70663 0.66112 0.0
N160 N 0.31368 0.70827 0.68678 0.0
N161 N 0.35007 0.70805 0.72296 0.0
N162 N 0.31335 0.66932 0.72201 0.0
C163 C 0.3383 0.72119 0.69899 0.0
C164 C 0.33776 0.68225 0.73476 0.0
C165 C 0.30109 0.68227 0.69809 0.0
C166 C 0.35275 0.74889 0.68584 0.0
C167 C 0.33889 0.76678 0.66686 0.0
C168 C 0.35287 0.79268 0.65433 0.0
C169 C 0.38105 0.80093 0.66007 0.0
C170 C 0.39486 0.78308 0.67902 0.0
C171 C 0.38088 0.75751 0.69193 0.0
C172 C 0.3511 0.6686 0.76125 0.0
C173 C 0.37228 0.685 0.7789 0.0
C174 C 0.38529 0.67241 0.80358 0.0
C175 C 0.37773 0.64301 0.8111 0.0
C176 C 0.35655 0.62653 0.79355 0.0
C177 C 0.34322 0.63923 0.76904 0.0
C178 C 0.27444 0.66802 0.68412 0.0
C179 C 0.26502 0.63841 0.68908 0.0
C180 C 0.22208 0.34331 0.67697 0.0
C181 C 0.20436 0.32625 0.65632 0.0
C182 C 0.21147 0.30103 0.64732 0.0
C183 C 0.23592 0.29321 0.6585 0.0
H184 H 0.31023 0.26434 0.629 0.0
H185 H 0.33063 0.23045 0.60401 0.0
H186 H 0.36107 0.19999 0.6913 0.0
H187 H 0.3424 0.23552 0.71573 0.0
H188 H 0.36973 0.30888 0.74838 0.0
H189 H 0.39488 0.33488 0.79044 0.0
H190 H 0.32247 0.36355 0.81159 0.0
H191 H 0.29766 0.33856 0.76867 0.0
H192 H 0.25936 0.34902 0.70436 0.0
H193 H 0.21706 0.36274 0.68454 0.0
H194 H 0.19829 0.28755 0.6313 0.0
H195 H 0.24081 0.2737 0.65101 0.0
N196 N 0.28988 0.28197 0.67801 0.0
N197 N 0.3267 0.28698 0.71442 0.0
N198 N 0.29303 0.31441 0.71658 0.0
C199 C 0.31345 0.27433 0.68935 0.0
C200 C 0.31666 0.30714 0.72814 0.0
C201 C 0.27945 0.30193 0.6916 0.0
C202 C 0.32483 0.25271 0.67431 0.0
C203 C 0.32132 0.25036 0.64277 0.0
C204 C 0.3329 0.23065 0.62847 0.0
C205 C 0.34771 0.21214 0.6454 0.0
C206 C 0.35055 0.21418 0.67715 0.0
C207 C 0.33962 0.23445 0.69133 0.0
C208 C 0.33166 0.32168 0.75494 0.0
C209 C 0.35911 0.32062 0.76207 0.0
C210 C 0.37354 0.33544 0.78642 0.0
C211 C 0.36084 0.35147 0.80463 0.0
C212 C 0.33318 0.35197 0.79785 0.0
C213 C 0.31885 0.33744 0.77326 0.0
C214 C 0.25361 0.31023 0.6793 0.0
C215 C 0.24629 0.33533 0.68845 0.0
C216 C 0.67641 0.24428 0.62644 0.0
C217 C 0.65402 0.22738 0.64014 0.0
C218 C 0.64689 0.23584 0.66786 0.0
C219 C 0.66134 0.26072 0.68115 0.0
H220 H 0.66639 0.3149 0.75799 0.0
H221 H 0.64726 0.33713 0.79721 0.0
H222 H 0.68688 0.42072 0.76347 0.0
H223 H 0.7073 0.39821 0.72586 0.0
H224 H 0.77231 0.38636 0.70976 0.0
H225 H 0.81612 0.41057 0.69293 0.0
H226 H 0.80474 0.35763 0.61548 0.0
H227 H 0.76067 0.3332 0.63226 0.0
H228 H 0.70789 0.28162 0.62841 0.0
H229 H 0.68232 0.23882 0.60489 0.0
H230 H 0.63014 0.22317 0.67945 0.0
H231 H 0.65508 0.26654 0.70239 0.0
N232 N 0.68758 0.31633 0.7034 0.0
N233 N 0.72474 0.35461 0.70491 0.0
N234 N 0.7226 0.31831 0.67078 0.0
C235 C 0.70059 0.3414 0.71531 0.0
C236 C 0.73603 0.34317 0.68284 0.0
C237 C 0.69837 0.30469 0.68097 0.0
C238 C 0.68843 0.35477 0.7389 0.0
C239 C 0.67104 0.33801 0.75912 0.0
C240 C 0.65993 0.35088 0.78153 0.0
C241 C 0.66539 0.38091 0.78381 0.0
C242 C 0.68262 0.39756 0.7632 0.0
C243 C 0.69421 0.38465 0.74133 0.0
C244 C 0.76283 0.35777 0.67238 0.0
C245 C 0.77903 0.37978 0.68912 0.0
C246 C 0.80429 0.39358 0.6796 0.0
C247 C 0.81394 0.38597 0.65294 0.0
C248 C 0.79777 0.36408 0.63605 0.0
C249 C 0.77257 0.35 0.64576 0.0
C250 C 0.68353 0.27774 0.66728 0.0
C251 C 0.69103 0.26902 0.63989 0.0
C252 C 0.64804 0.63688 0.72493 0.0
C253 C 0.66355 0.62027 0.74344 0.0
C254 C 0.68911 0.61766 0.73461 0.0
C255 C 0.69917 0.63188 0.70818 0.0
H256 H 0.76192 0.64197 0.65331 0.0
H257 H 0.80171 0.63022 0.63318 0.0
H258 H 0.78558 0.67615 0.54905 0.0
H259 H 0.74546 0.68826 0.56922 0.0
H260 H 0.69469 0.7275 0.56889 0.0
H261 H 0.67556 0.7692 0.55041 0.0
H262 H 0.65325 0.77936 0.64089 0.0
H263 H 0.67088 0.73711 0.6587 0.0
H264 H 0.64581 0.66417 0.68522 0.0
H265 H 0.62799 0.63879 0.7307 0.0
H266 H 0.70167 0.60526 0.74851 0.0
H267 H 0.71914 0.62986 0.70226 0.0
N268 N 0.71628 0.65839 0.65036 0.0
N269 N 0.71579 0.69589 0.61363 0.0
N270 N 0.68448 0.68806 0.65121 0.0
C271 C 0.7267 0.67342 0.62558 0.0
C272 C 0.69475 0.70339 0.62655 0.0
C273 C 0.69502 0.66542 0.66311 0.0
C274 C 0.75053 0.66606 0.61284 0.0
C275 C 0.76671 0.64957 0.63048 0.0
C276 C 0.78962 0.64301 0.61909 0.0
C277 C 0.79669 0.65251 0.58973 0.0
C278 C 0.78043 0.66864 0.5718 0.0
C279 C 0.75761 0.67561 0.58338 0.0
C280 C 0.68394 0.72889 0.61512 0.0
C281 C 0.68558 0.73869 0.58469 0.0
C282 C 0.67478 0.76266 0.57419 0.0
C283 C 0.66259 0.77752 0.59408 0.0
C284 C 0.66172 0.76801 0.62469 0.0
C285 C 0.67198 0.74383 0.63498 0.0
C286 C 0.68396 0.64919 0.69024 0.0
C287 C 0.6582 0.65133 0.69877 0.0
Co288 Co 0.04497 0.45802 0.55986 0.0
Co289 Co 0.06276 0.47524 0.51073 0.0
Co290 Co 0.01284 0.50482 0.51122 0.0
O291 O 0.02815 0.46916 0.52078 0.0
H292 H 0.01747 0.45283 0.51072 0.0
O293 O 0.99722 0.54015 0.50189 0.0
Co294 Co 0.95949 0.53793 0.48952 0.0
Co295 Co 0.98996 0.55296 0.53927 0.0
H296 H 0.00907 0.55497 0.49088 0.0
O297 O 0.07497 0.44579 0.49581 0.0
O298 O 0.08159 0.46277 0.54322 0.0
O299 O 0.07737 0.51299 0.49617 0.0
O300 O 0.037 0.51909 0.47639 0.0
O301 O 0.98435 0.48236 0.48275 0.0
O302 O 0.92537 0.5392 0.47698 0.0
O303 O 0.96189 0.57476 0.47477 0.0
O304 O 0.95211 0.49911 0.50226 0.0
O305 O 0.98881 0.4905 0.5455 0.0
O306 O 0.99123 0.52728 0.57462 0.0
O307 O 0.95313 0.54877 0.53003 0.0
O308 O 0.98153 0.58927 0.54335 0.0
C309 C 0.05239 0.42032 0.58051 0.0
C310 C 0.0545 0.522 0.56248 0.0
C311 C 0.06292 0.52655 0.47844 0.0
C312 C 0.08812 0.44759 0.52229 0.0
C313 C 0.93586 0.56562 0.46941 0.0
C314 C 0.95912 0.48155 0.48542 0.0
C315 C 0.98407 0.50074 0.57009 0.0
C316 C 0.9571 0.57501 0.53815 0.0
O317 O 0.05885 0.4443 0.59429 0.0
O318 O 0.03916 0.41983 0.55393 0.0
O319 O 0.04055 0.52843 0.53887 0.0
O320 O 0.05491 0.49625 0.57116 0.0
Co321 Co 0.53777 0.95734 0.48876 0.0
Co322 Co 0.54986 0.979 0.54231 0.0
Co323 Co 0.5078 0.01205 0.50554 0.0
O324 O 0.54088 0.9949 0.5043 0.0
H325 H 0.55612 0.00847 0.49703 0.0
O326 O 0.47473 0.02884 0.50708 0.0
Co327 Co 0.47668 0.06671 0.52066 0.0
Co328 Co 0.46465 0.04227 0.46856 0.0
H329 H 0.45977 0.01526 0.51503 0.0
O330 O 0.58435 0.97189 0.55266 0.0
O331 O 0.5494 0.94256 0.52923 0.0
O332 O 0.52339 0.97396 0.57237 0.0
O333 O 0.4914 0.98435 0.53864 0.0
O334 O 0.52818 0.03985 0.53563 0.0
O335 O 0.4753 0.10087 0.53409 0.0
O336 O 0.44214 0.06167 0.53214 0.0
O337 O 0.51358 0.07672 0.51203 0.0
O338 O 0.52394 0.03952 0.47218 0.0
O339 O 0.49076 0.04652 0.43829 0.0
O340 O 0.46517 0.07931 0.47925 0.0
O341 O 0.4296 0.04834 0.45891 0.0
C342 C 0.56237 0.93564 0.46785 0.0
C343 C 0.48429 0.95783 0.48023 0.0
C344 C 0.49862 0.97284 0.56393 0.0
C345 C 0.57397 0.94713 0.54175 0.0
C346 C 0.45066 0.0883 0.53934 0.0
C347 C 0.53077 0.06691 0.53011 0.0
C348 C 0.51579 0.04923 0.44634 0.0
C349 C 0.44034 0.07383 0.46767 0.0
O350 O 0.53754 0.92395 0.47309 0.0
O351 O 0.5722 0.9616 0.47662 0.0
O352 O 0.48733 0.98486 0.47513 0.0
O353 O 0.50117 0.94765 0.49827 0.0
Co354 Co 0.47311 0.51924 0.06902 0.0
Co355 Co 0.46184 0.46683 0.04998 0.0
Co356 Co 0.50579 0.5053 0.0092 0.0
O357 O 0.47191 0.50279 0.03038 0.0
H358 H 0.45712 0.50705 0.01685 0.0
O359 O 0.53982 0.50736 0.98822 0.0
Co360 Co 0.53888 0.49234 0.94886 0.0
Co361 Co 0.55069 0.5438 0.97055 0.0
H362 H 0.55437 0.50238 1.00166 0.0
O363 O 0.42637 0.45347 0.06084 0.0
O364 O 0.4602 0.48089 0.08773 0.0
O365 O 0.48883 0.44283 0.05601 0.0
O366 O 0.52114 0.4771 0.03818 0.0
O367 O 0.48597 0.4739 0.98271 0.0
O368 O 0.54101 0.47816 0.91315 0.0
O369 O 0.57322 0.48544 0.95152 0.0
O370 O 0.50255 0.49617 0.94133 0.0
O371 O 0.49067 0.53391 0.98029 0.0
O372 O 0.52458 0.5686 0.96678 0.0
O373 O 0.55122 0.53143 0.93189 0.0
O374 O 0.58608 0.55688 0.95922 0.0
C375 C 0.44713 0.53689 0.09218 0.0
C376 C 0.52732 0.53292 0.06439 0.0
C377 C 0.51366 0.45353 0.05325 0.0
C378 C 0.43557 0.46629 0.08561 0.0
C379 C 0.56525 0.47646 0.9244 0.0
C380 C 0.48502 0.47712 0.95383 0.0
C381 C 0.49941 0.55845 0.96754 0.0
C382 C 0.57602 0.54555 0.93392 0.0
O383 O 0.4712 0.53503 0.10389 0.0
O384 O 0.43906 0.52678 0.06554 0.0
O385 O 0.52558 0.53673 0.0356 0.0
O386 O 0.50934 0.5148 0.07736 0.0
C387 C 0.22765 0.39201 0.51317 0.0
C388 C 0.23442 0.40342 0.48421 0.0
C389 C 0.20547 0.39855 0.52673 0.0
C390 C 0.19032 0.41774 0.51136 0.0
C391 C 0.19859 0.4313 0.48341 0.0
C392 C 0.2203 0.42373 0.47003 0.0
C393 C 0.19792 0.38418 0.55694 0.0
C394 C 0.18325 0.45225 0.46642 0.0
C395 C 0.11489 0.41147 0.5111 0.0
C396 C 0.11303 0.43571 0.52655 0.0
C397 C 0.13993 0.40356 0.50884 0.0
C398 C 0.16373 0.42085 0.52161 0.0
C399 C 0.16168 0.44388 0.53951 0.0
C400 C 0.13617 0.45091 0.54206 0.0
C401 C 0.14115 0.37801 0.49073 0.0
C402 C 0.18655 0.46248 0.55387 0.0
H403 H 0.23905 0.37705 0.52478 0.0
H404 H 0.2251 0.43255 0.44757 0.0
H405 H 0.2076 0.36529 0.56239 0.0
H406 H 0.20484 0.39971 0.57489 0.0
H407 H 0.17568 0.37716 0.55757 0.0
H408 H 0.19421 0.46348 0.44702 0.0
H409 H 0.16317 0.44062 0.45758 0.0
H410 H 0.17967 0.46852 0.48176 0.0
H411 H 0.09687 0.39942 0.49957 0.0
H412 H 0.13471 0.46965 0.55413 0.0
H413 H 0.15424 0.36436 0.50318 0.0
H414 H 0.15017 0.38547 0.46892 0.0
H415 H 0.12075 0.36472 0.48577 0.0
H416 H 0.20055 0.44911 0.56493 0.0
H417 H 0.18133 0.47635 0.57093 0.0
H418 H 0.19753 0.4764 0.53606 0.0
C419 C 0.62018 0.16435 0.35063 0.0
C420 C 0.62666 0.18902 0.36757 0.0
C421 C 0.6038 0.13923 0.36199 0.0
C422 C 0.59322 0.13898 0.39071 0.0
C423 C 0.60017 0.16367 0.40817 0.0
C424 C 0.61699 0.18831 0.39647 0.0
C425 C 0.59737 0.11315 0.34301 0.0
C426 C 0.58906 0.16441 0.43875 0.0
C427 C 0.52693 0.08927 0.40753 0.0
C428 C 0.5357 0.06902 0.42826 0.0
C429 C 0.54551 0.11166 0.39449 0.0
C430 C 0.57362 0.11358 0.40186 0.0
C431 C 0.5827 0.09224 0.42132 0.0
C432 C 0.56363 0.07036 0.43451 0.0
C433 C 0.53494 0.13418 0.37418 0.0
C434 C 0.61251 0.09319 0.42923 0.0
H435 H 0.62788 0.16477 0.32839 0.0
H436 H 0.62178 0.20743 0.40949 0.0
H437 H 0.60204 0.09412 0.35649 0.0
H438 H 0.57542 0.10851 0.33605 0.0
H439 H 0.60893 0.11607 0.32233 0.0
H440 H 0.59704 0.18496 0.44984 0.0
H441 H 0.56662 0.16133 0.43617 0.0
H442 H 0.5942 0.14663 0.45395 0.0
H443 H 0.50542 0.08862 0.40272 0.0
H444 H 0.5706 0.05479 0.45046 0.0
H445 H 0.54469 0.13682 0.35233 0.0
H446 H 0.54013 0.15514 0.38505 0.0
H447 H 0.51261 0.12883 0.36947 0.0
H448 H 0.62389 0.09658 0.40845 0.0
H449 H 0.61636 0.07321 0.44152 0.0
H450 H 0.62068 0.11149 0.44378 0.0
C451 C 0.83045 0.66915 0.4169 0.0
C452 C 0.82133 0.66437 0.38656 0.0
C453 C 0.8516 0.65666 0.4309 0.0
C454 C 0.86388 0.63867 0.41427 0.0
C455 C 0.85598 0.63529 0.38315 0.0
C456 C 0.8349 0.64814 0.36971 0.0
C457 C 0.8604 0.66305 0.46346 0.0
C458 C 0.86936 0.61744 0.36416 0.0
C459 C 0.9282 0.61345 0.44662 0.0
C460 C 0.91781 0.58506 0.45615 0.0
C461 C 0.91093 0.63141 0.43337 0.0
C462 C 0.88264 0.62082 0.42978 0.0
C463 C 0.87203 0.59251 0.44033 0.0
C464 C 0.88969 0.57501 0.45317 0.0
C465 C 0.92291 0.66165 0.42306 0.0
C466 C 0.84198 0.58039 0.43762 0.0
H467 H 0.82046 0.68186 0.43021 0.0
H468 H 0.82882 0.64515 0.34596 0.0
H469 H 0.87161 0.6472 0.47489 0.0
H470 H 0.87392 0.68442 0.46414 0.0
H471 H 0.84268 0.66408 0.47651 0.0
H472 H 0.86325 0.61971 0.33966 0.0
H473 H 0.89175 0.62369 0.36736 0.0
H474 H 0.86376 0.59451 0.37152 0.0
H475 H 0.94984 0.62155 0.44921 0.0
H476 H 0.88131 0.55327 0.46077 0.0
H477 H 0.91501 0.67696 0.43626 0.0
H478 H 0.91668 0.66549 0.39885 0.0
H479 H 0.94539 0.66624 0.42598 0.0
H480 H 0.83023 0.59615 0.44437 0.0
H481 H 0.83659 0.56033 0.45178 0.0
H482 H 0.83561 0.57556 0.41368 0.0
C483 C 0.36656 0.84555 0.3935 0.0
C484 C 0.37921 0.82689 0.37874 0.0
C485 C 0.38181 0.86841 0.40975 0.0
C486 C 0.41046 0.87309 0.411 0.0
C487 C 0.42338 0.8549 0.39547 0.0
C488 C 0.40765 0.83198 0.37973 0.0
C489 C 0.36726 0.88717 0.42618 0.0
C490 C 0.45391 0.85923 0.39609 0.0
C491 C 0.45341 0.94462 0.43409 0.0
C492 C 0.46285 0.93769 0.46361 0.0
C493 C 0.4358 0.92401 0.41684 0.0
C494 C 0.42705 0.89606 0.4297 0.0
C495 C 0.4354 0.88954 0.4601 0.0
C496 C 0.45339 0.91032 0.47655 0.0
C497 C 0.42756 0.93174 0.38444 0.0
C498 C 0.42608 0.8603 0.47499 0.0
H499 H 0.34464 0.84222 0.39248 0.0
H500 H 0.41773 0.81757 0.36886 0.0
H501 H 0.37254 0.88533 0.45088 0.0
H502 H 0.37387 0.90997 0.41882 0.0
H503 H 0.34488 0.88129 0.42221 0.0
H504 H 0.46082 0.84441 0.3813 0.0
H505 H 0.46252 0.8816 0.38868 0.0
H506 H 0.46227 0.85571 0.41958 0.0
H507 H 0.4608 0.96571 0.42398 0.0
H508 H 0.46042 0.90499 0.49952 0.0
H509 H 0.40522 0.9263 0.38033 0.0
H510 H 0.43637 0.91904 0.36899 0.0
H511 H 0.43448 0.95486 0.3785 0.0
H512 H 0.40367 0.85413 0.47238 0.0
H513 H 0.43253 0.85948 0.49951 0.0
H514 H 0.43452 0.84408 0.46376 0.0
C515 C 0.17419 0.63726 0.6435 0.0
C516 C 0.19785 0.62615 0.64197 0.0
C517 C 0.14911 0.62308 0.63064 0.0
C518 C 0.14773 0.59742 0.61545 0.0
C519 C 0.17172 0.58654 0.61318 0.0
C520 C 0.1964 0.60089 0.62667 0.0
C521 C 0.12399 0.63513 0.63399 0.0
C522 C 0.17129 0.55952 0.59678 0.0
C523 C 0.0837 0.54037 0.6079 0.0
C524 C 0.07475 0.54461 0.57754 0.0
C525 C 0.10649 0.55849 0.621 0.0
C526 C 0.12115 0.58103 0.60313 0.0
C527 C 0.11148 0.58623 0.57283 0.0
C528 C 0.08818 0.56817 0.56052 0.0
C529 C 0.1157 0.5525 0.65355 0.0
C530 C 0.1267 0.60968 0.5528 0.0
H531 H 0.17518 0.65668 0.65548 0.0
H532 H 0.21468 0.59242 0.62509 0.0
H533 H 0.1136 0.63838 0.61145 0.0
H534 H 0.10958 0.61962 0.6474 0.0
H535 H 0.12861 0.65584 0.64539 0.0
H536 H 0.19189 0.5548 0.59552 0.0
H537 H 0.15865 0.54103 0.60854 0.0
H538 H 0.162 0.56143 0.57342 0.0
H539 H 0.07337 0.52221 0.62117 0.0
H540 H 0.08153 0.57139 0.53696 0.0
H541 H 0.11973 0.5725 0.66616 0.0
H542 H 0.13493 0.54437 0.65438 0.0
H543 H 0.10048 0.53636 0.66529 0.0
H544 H 0.13071 0.63038 0.56414 0.0
H545 H 0.1155 0.61233 0.53057 0.0
H546 H 0.14664 0.60457 0.5487 0.0
C547 C 0.38477 0.18358 0.64235 0.0
C548 C 0.36053 0.19132 0.63002 0.0
C549 C 0.39726 0.16457 0.62793 0.0
C550 C 0.38613 0.15391 0.59959 0.0
C551 C 0.3614 0.16108 0.58722 0.0
C552 C 0.3488 0.17928 0.60274 0.0
C553 C 0.42252 0.15599 0.64312 0.0
C554 C 0.34766 0.14992 0.55764 0.0
C555 C 0.43874 0.13476 0.5513 0.0
C556 C 0.43269 0.1047 0.55291 0.0
C557 C 0.42323 0.15095 0.56553 0.0
C558 C 0.40136 0.13679 0.58243 0.0
C559 C 0.39478 0.10642 0.58362 0.0
C560 C 0.41032 0.09073 0.56852 0.0
C561 C 0.43086 0.18325 0.56299 0.0
C562 C 0.37173 0.09052 0.60144 0.0
H563 H 0.39445 0.19272 0.66312 0.0
H564 H 0.32964 0.18402 0.59324 0.0
H565 H 0.42141 0.13256 0.64197 0.0
H566 H 0.4405 0.16702 0.63129 0.0
H567 H 0.42564 0.16168 0.66725 0.0
H568 H 0.3278 0.13611 0.56209 0.0
H569 H 0.34337 0.1681 0.54244 0.0
H570 H 0.35952 0.13734 0.54561 0.0
H571 H 0.45578 0.14578 0.53895 0.0
H572 H 0.40551 0.06751 0.5698 0.0
H573 H 0.44314 0.1907 0.54327 0.0
H574 H 0.44316 0.19114 0.58365 0.0
H575 H 0.41261 0.19321 0.56091 0.0
H576 H 0.37429 0.0976 0.62508 0.0
H577 H 0.37035 0.06693 0.60188 0.0
H578 H 0.35231 0.09556 0.59129 0.0
C579 C 0.84327 0.4112 0.61248 0.0
C580 C 0.84065 0.40118 0.6427 0.0
C581 C 0.86806 0.42676 0.60285 0.0
C582 C 0.89091 0.43216 0.62386 0.0
C583 C 0.88852 0.4216 0.65426 0.0
C584 C 0.8634 0.40639 0.66334 0.0
C585 C 0.86965 0.43791 0.5703 0.0
C586 C 0.91247 0.42653 0.67721 0.0
C587 C 0.95881 0.453 0.58845 0.0
C588 C 0.9636 0.48299 0.58911 0.0
C589 C 0.93592 0.43607 0.60104 0.0
C590 C 0.91706 0.44946 0.61405 0.0
C591 C 0.92241 0.47966 0.61594 0.0
C592 C 0.94574 0.49602 0.60375 0.0
C593 C 0.93123 0.40393 0.59901 0.0
C594 C 0.90264 0.49488 0.62915 0.0
H595 H 0.8257 0.40749 0.59651 0.0
H596 H 0.86157 0.39842 0.68665 0.0
H597 H 0.8754 0.46165 0.5694 0.0
H598 H 0.88558 0.42965 0.55955 0.0
H599 H 0.85014 0.43166 0.55675 0.0
H600 H 0.90755 0.41599 0.69966 0.0
H601 H 0.92961 0.41824 0.66904 0.0
H602 H 0.91947 0.44985 0.68009 0.0
H603 H 0.97248 0.44282 0.57709 0.0
H604 H 0.949 0.5192 0.60394 0.0
H605 H 0.91372 0.39682 0.58273 0.0
H606 H 0.92622 0.3932 0.62131 0.0
H607 H 0.94918 0.39667 0.59141 0.0
H608 H 0.88331 0.49166 0.6149 0.0
H609 H 0.91049 0.51828 0.63052 0.0
H610 H 0.89797 0.48574 0.65216 0.0
C611 C 0.62673 0.80699 0.59525 0.0
C612 C 0.65048 0.80265 0.58322 0.0
C613 C 0.61579 0.83133 0.58688 0.0
C614 C 0.62824 0.8514 0.56496 0.0
C615 C 0.65178 0.84684 0.55196 0.0
C616 C 0.6628 0.82267 0.56154 0.0
C617 C 0.59103 0.83568 0.60186 0.0
C618 C 0.66609 0.86753 0.52859 0.0
C619 C 0.57939 0.89764 0.53137 0.0
C620 C 0.58927 0.92352 0.5455 0.0
C621 C 0.59297 0.87461 0.53575 0.0
C622 C 0.6163 0.877 0.55604 0.0
C623 C 0.62658 0.90317 0.57018 0.0
C624 C 0.61321 0.92631 0.56428 0.0
C625 C 0.5812 0.84757 0.51941 0.0
C626 C 0.65094 0.90634 0.59261 0.0
H627 H 0.61663 0.79133 0.61142 0.0
H628 H 0.68137 0.8198 0.55236 0.0
H629 H 0.59413 0.85774 0.61006 0.0
H630 H 0.57331 0.83293 0.58515 0.0
H631 H 0.58612 0.8202 0.6213 0.0
H632 H 0.67334 0.85568 0.51103 0.0
H633 H 0.65315 0.88193 0.51732 0.0
H634 H 0.68427 0.88091 0.53975 0.0
H635 H 0.56073 0.895 0.51716 0.0
H636 H 0.62095 0.94622 0.57538 0.0
H637 H 0.56224 0.83685 0.52971 0.0
H638 H 0.59516 0.83219 0.52014 0.0
H639 H 0.57563 0.85301 0.49534 0.0
H640 H 0.64775 0.88914 0.61074 0.0
H641 H 0.65516 0.92743 0.60327 0.0
H642 H 0.66909 0.90407 0.58104 0.0
C643 C 0.35208 0.18755 0.40674 0.0
C644 C 0.35154 0.20878 0.42718 0.0
C645 C 0.36538 0.16472 0.4149 0.0
C646 C 0.37824 0.163 0.44428 0.0
C647 C 0.37684 0.18371 0.4654 0.0
C648 C 0.36361 0.20644 0.45655 0.0
C649 C 0.36658 0.14308 0.39171 0.0
C650 C 0.39054 0.18289 0.49679 0.0
C651 C 0.39717 0.09148 0.46877 0.0
C652 C 0.42474 0.09689 0.46346 0.0
C653 C 0.38195 0.11322 0.46383 0.0
C654 C 0.39448 0.14049 0.4522 0.0
C655 C 0.42248 0.14609 0.44725 0.0
C656 C 0.43741 0.12428 0.45348 0.0
C657 C 0.35251 0.10705 0.47092 0.0
C658 C 0.43648 0.17482 0.43457 0.0
H659 H 0.34246 0.18908 0.38414 0.0
H660 H 0.36368 0.22301 0.47233 0.0
H661 H 0.38798 0.14387 0.38679 0.0
H662 H 0.35855 0.12111 0.40078 0.0
H663 H 0.35485 0.147 0.37015 0.0
H664 H 0.38199 0.19564 0.51245 0.0
H665 H 0.38878 0.1606 0.50632 0.0
H666 H 0.4124 0.19215 0.49564 0.0
H667 H 0.38761 0.07033 0.47706 0.0
H668 H 0.4588 0.12832 0.44945 0.0
H669 H 0.33952 0.10888 0.44983 0.0
H670 H 0.34871 0.12311 0.48641 0.0
H671 H 0.34629 0.0853 0.48162 0.0
H672 H 0.42651 0.17973 0.41222 0.0
H673 H 0.45831 0.17552 0.43174 0.0
H674 H 0.43471 0.19196 0.44975 0.0
C675 C 0.84177 0.41267 0.36528 0.0
C676 C 0.82568 0.3873 0.37654 0.0
C677 C 0.86514 0.42635 0.38189 0.0
C678 C 0.873 0.41421 0.41032 0.0
C679 C 0.85759 0.388 0.42123 0.0
C680 C 0.83406 0.37506 0.40442 0.0
C681 C 0.88078 0.45446 0.36958 0.0
C682 C 0.86532 0.37418 0.4513 0.0
C683 C 0.94349 0.44373 0.44674 0.0
C684 C 0.93752 0.46283 0.46702 0.0
C685 C 0.92271 0.42736 0.42839 0.0
C686 C 0.89544 0.43047 0.43009 0.0
C687 C 0.88937 0.44948 0.45076 0.0
C688 C 0.91032 0.46511 0.46905 0.0
C689 C 0.92992 0.40691 0.40704 0.0
C690 C 0.86068 0.45372 0.45326 0.0
H691 H 0.83597 0.4221 0.34354 0.0
H692 H 0.82175 0.35576 0.41376 0.0
H693 H 0.87914 0.47187 0.3845 0.0
H694 H 0.90259 0.45358 0.36943 0.0
H695 H 0.8732 0.46008 0.34626 0.0
H696 H 0.85331 0.35222 0.45485 0.0
H697 H 0.88716 0.37306 0.45292 0.0
H698 H 0.86194 0.38738 0.46994 0.0
H699 H 0.96436 0.44172 0.44505 0.0
H700 H 0.90529 0.4796 0.48472 0.0
H701 H 0.92441 0.41345 0.38332 0.0
H702 H 0.91813 0.38501 0.41151 0.0
H703 H 0.95186 0.4061 0.4092 0.0
H704 H 0.85236 0.46117 0.43097 0.0
H705 H 0.85942 0.4696 0.47022 0.0
H706 H 0.84754 0.43308 0.45975 0.0
C707 C 0.64486 0.84813 0.37112 0.0
C708 C 0.65103 0.824 0.38783 0.0
C709 C 0.63246 0.868 0.38433 0.0
C710 C 0.62582 0.86359 0.41497 0.0
C711 C 0.63256 0.83959 0.43211 0.0
C712 C 0.6451 0.82018 0.41838 0.0
C713 C 0.6257 0.89327 0.36522 0.0
C714 C 0.62529 0.83332 0.46451 0.0
C715 C 0.60754 0.92516 0.45582 0.0
C716 C 0.57913 0.91838 0.45343 0.0
C717 C 0.62307 0.90749 0.44357 0.0
C718 C 0.60989 0.88274 0.42823 0.0
C719 C 0.58124 0.87596 0.4257 0.0
C720 C 0.56629 0.89374 0.43835 0.0
C721 C 0.65357 0.91499 0.44746 0.0
C722 C 0.56628 0.84965 0.40993 0.0
H723 H 0.64964 0.85142 0.34759 0.0
H724 H 0.6494 0.80139 0.43137 0.0
H725 H 0.60338 0.89149 0.36248 0.0
H726 H 0.63415 0.9135 0.37667 0.0
H727 H 0.63368 0.89468 0.3424 0.0
H728 H 0.63856 0.8199 0.47706 0.0
H729 H 0.62663 0.85328 0.47664 0.0
H730 H 0.60409 0.82134 0.46472 0.0
H731 H 0.61762 0.94387 0.46785 0.0
H732 H 0.54435 0.88822 0.43644 0.0
H733 H 0.66218 0.91849 0.42494 0.0
H734 H 0.66155 0.89687 0.45932 0.0
H735 H 0.66078 0.93452 0.46055 0.0
H736 H 0.57252 0.85013 0.38641 0.0
H737 H 0.54393 0.84781 0.40914 0.0
H738 H 0.57156 0.83014 0.42187 0.0
C739 C 0.17157 0.60203 0.3713 0.0
C740 C 0.17618 0.632 0.36741 0.0
C741 C 0.14948 0.58701 0.38672 0.0
C742 C 0.13151 0.60227 0.39869 0.0
C743 C 0.13523 0.63237 0.39359 0.0
C744 C 0.15756 0.64689 0.37806 0.0
C745 C 0.14635 0.55491 0.39175 0.0
C746 C 0.11644 0.64938 0.40581 0.0
C747 C 0.06834 0.55465 0.42867 0.0
C748 C 0.07744 0.54976 0.45882 0.0
C749 C 0.08512 0.57312 0.40892 0.0
C750 C 0.11131 0.58701 0.41983 0.0
C751 C 0.11955 0.58373 0.45085 0.0
C752 C 0.10257 0.56512 0.46986 0.0
C753 C 0.07555 0.57629 0.37605 0.0
C754 C 0.14708 0.59838 0.46365 0.0
H755 H 0.18596 0.59034 0.36351 0.0
H756 H 0.16071 0.67 0.37471 0.0
H757 H 0.15062 0.54958 0.41612 0.0
H758 H 0.12525 0.54422 0.38543 0.0
H759 H 0.16033 0.54594 0.37849 0.0
H760 H 0.11969 0.67181 0.3963 0.0
H761 H 0.09498 0.6391 0.40071 0.0
H762 H 0.1199 0.64989 0.43081 0.0
H763 H 0.04891 0.54282 0.4201 0.0
H764 H 0.1095 0.5617 0.49331 0.0
H765 H 0.0865 0.56419 0.36219 0.0
H766 H 0.08011 0.59909 0.36791 0.0
H767 H 0.05345 0.568 0.37219 0.0
H768 H 0.1631 0.5895 0.45378 0.0
H769 H 0.14942 0.59547 0.48869 0.0
H770 H 0.15053 0.62166 0.45755 0.0
C771 C 0.41959 0.82726 0.63095 0.0
C772 C 0.39626 0.8278 0.64603 0.0
C773 C 0.43463 0.85244 0.61805 0.0
C774 C 0.42645 0.87896 0.62077 0.0
C775 C 0.40286 0.87963 0.63595 0.0
C776 C 0.38789 0.85398 0.64817 0.0
C777 C 0.45931 0.85064 0.6015 0.0
C778 C 0.39369 0.90749 0.63966 0.0
C779 C 0.48305 0.94379 0.61062 0.0
C780 C 0.47789 0.95242 0.58031 0.0
C781 C 0.46557 0.92092 0.62464 0.0
C782 C 0.44278 0.90585 0.6077 0.0
C783 C 0.43694 0.91515 0.57743 0.0
C784 C 0.45433 0.93854 0.56426 0.0
C785 C 0.47222 0.91204 0.65714 0.0
C786 C 0.41329 0.89931 0.55827 0.0
H787 H 0.42593 0.807 0.62899 0.0
H788 H 0.36996 0.85446 0.66002 0.0
H789 H 0.45725 0.85969 0.57798 0.0
H790 H 0.47765 0.86358 0.61281 0.0
H791 H 0.46247 0.82827 0.60062 0.0
H792 H 0.37494 0.9044 0.65209 0.0
H793 H 0.40993 0.92241 0.65215 0.0
H794 H 0.38989 0.91794 0.61715 0.0
H795 H 0.50119 0.95441 0.62314 0.0
H796 H 0.45031 0.94479 0.5407 0.0
H797 H 0.47864 0.89099 0.65806 0.0
H798 H 0.45402 0.90947 0.67037 0.0
H799 H 0.48875 0.92783 0.66815 0.0
H800 H 0.41668 0.87747 0.55455 0.0
H801 H 0.41046 0.91039 0.53583 0.0
H802 H 0.39432 0.89683 0.57011 0.0
C803 C 0.15392 0.31542 0.64398 0.0
C804 C 0.17866 0.33501 0.64422 0.0
C805 C 0.1294 0.32398 0.63394 0.0
C806 C 0.1297 0.35273 0.6235 0.0
C807 C 0.15472 0.37242 0.62321 0.0
C808 C 0.1788 0.36337 0.63366 0.0
C809 C 0.10315 0.30259 0.63572 0.0
C810 C 0.15599 0.40323 0.61213 0.0
C811 C 0.07463 0.37905 0.57277 0.0
C812 C 0.06502 0.39604 0.59262 0.0
C813 C 0.09433 0.36278 0.58297 0.0
C814 C 0.10407 0.36304 0.61383 0.0
C815 C 0.09194 0.37741 0.63451 0.0
C816 C 0.07283 0.39404 0.62359 0.0
C817 C 0.10648 0.34749 0.56024 0.0
C818 C 0.10089 0.3774 0.66778 0.0
H819 H 0.15366 0.29357 0.65251 0.0
H820 H 0.19788 0.37852 0.63349 0.0
H821 H 0.09172 0.30813 0.65423 0.0
H822 H 0.0902 0.30335 0.61443 0.0
H823 H 0.10658 0.28035 0.64031 0.0
H824 H 0.14608 0.404 0.58898 0.0
H825 H 0.14474 0.41407 0.62694 0.0
H826 H 0.1771 0.41549 0.61182 0.0
H827 H 0.06866 0.3805 0.54881 0.0
H828 H 0.06526 0.40694 0.63909 0.0
H829 H 0.10678 0.32508 0.56835 0.0
H830 H 0.12778 0.35829 0.55766 0.0
H831 H 0.09523 0.34731 0.53769 0.0
H832 H 0.10334 0.35565 0.67638 0.0
H833 H 0.08625 0.38484 0.68147 0.0
H834 H 0.12085 0.39193 0.67119 0.0
C835 C 0.65027 0.18369 0.60916 0.0
C836 C 0.63773 0.20157 0.62517 0.0
C837 C 0.63497 0.16013 0.59391 0.0
C838 C 0.6064 0.15401 0.59488 0.0
C839 C 0.59366 0.17151 0.61155 0.0
C840 C 0.6094 0.19508 0.62628 0.0
C841 C 0.64933 0.14214 0.57626 0.0
C842 C 0.56326 0.16576 0.61324 0.0
C843 C 0.56086 0.11511 0.53201 0.0
C844 C 0.55277 0.08763 0.54544 0.0
C845 C 0.5792 0.13645 0.54735 0.0
C846 C 0.58954 0.1304 0.57711 0.0
C847 C 0.58228 0.10235 0.59038 0.0
C848 C 0.56412 0.0812 0.57427 0.0
C849 C 0.58676 0.16581 0.53203 0.0
C850 C 0.5927 0.09506 0.62211 0.0
H851 H 0.67213 0.1881 0.6085 0.0
H852 H 0.59933 0.20889 0.63807 0.0
H853 H 0.64394 0.11927 0.58391 0.0
H854 H 0.64265 0.14364 0.55188 0.0
H855 H 0.67172 0.14898 0.5787 0.0
H856 H 0.55662 0.18021 0.62867 0.0
H857 H 0.55339 0.16869 0.59034 0.0
H858 H 0.55596 0.14325 0.6212 0.0
H859 H 0.55242 0.12012 0.50956 0.0
H860 H 0.55787 0.06005 0.58481 0.0
H861 H 0.60912 0.17235 0.53215 0.0
H862 H 0.57928 0.18181 0.54468 0.0
H863 H 0.57814 0.16658 0.50824 0.0
H864 H 0.61508 0.10151 0.62459 0.0
H865 H 0.587 0.07182 0.62825 0.0
H866 H 0.58428 0.10719 0.63847 0.0
C867 C 0.84553 0.64979 0.5956 0.0
C868 C 0.82092 0.64505 0.57808 0.0
C869 C 0.868 0.63989 0.58677 0.0
C870 C 0.86572 0.62494 0.55974 0.0
C871 C 0.84109 0.62088 0.54144 0.0
C872 C 0.81897 0.63118 0.5508 0.0
C873 C 0.89377 0.64426 0.6071 0.0
C874 C 0.83716 0.60425 0.51296 0.0
C875 C 0.9334 0.61641 0.53331 0.0
C876 C 0.93361 0.58785 0.54238 0.0
C877 C 0.91083 0.62856 0.53745 0.0
C878 C 0.88858 0.61191 0.55209 0.0
C879 C 0.88885 0.58297 0.56122 0.0
C880 C 0.91118 0.57112 0.55565 0.0
C881 C 0.91164 0.65939 0.5268 0.0
C882 C 0.86602 0.56474 0.5778 0.0
H883 H 0.84697 0.66072 0.61662 0.0
H884 H 0.79977 0.62722 0.53746 0.0
H885 H 0.89939 0.62325 0.6138 0.0
H886 H 0.9106 0.65718 0.59469 0.0
H887 H 0.89181 0.65536 0.62794 0.0
H888 H 0.82396 0.61368 0.49563 0.0
H889 H 0.85655 0.60333 0.50319 0.0
H890 H 0.82663 0.58199 0.51822 0.0
H891 H 0.95071 0.62914 0.52263 0.0
H892 H 0.91154 0.54897 0.56267 0.0
H893 H 0.92566 0.67354 0.54249 0.0
H894 H 0.89153 0.66568 0.52568 0.0
H895 H 0.91984 0.66333 0.50404 0.0
H896 H 0.86199 0.57585 0.59781 0.0
H897 H 0.87053 0.54345 0.58557 0.0
H898 H 0.84722 0.56131 0.56272 0.0
C899 C 0.34845 0.43613 0.2339 0.0
C900 C 0.35527 0.41074 0.24714 0.0
C901 C 0.36004 0.44878 0.20733 0.0
C902 C 0.37862 0.43554 0.19366 0.0
C903 C 0.38573 0.41011 0.20708 0.0
C904 C 0.37416 0.3982 0.23372 0.0
C905 C 0.35238 0.47616 0.1938 0.0
C906 C 0.40557 0.39537 0.19327 0.0
C907 C 0.39298 0.44532 0.11084 0.0
C908 C 0.41924 0.46189 0.11241 0.0
C909 C 0.37865 0.4381 0.13698 0.0
C910 C 0.39085 0.44786 0.16525 0.0
C911 C 0.41657 0.46618 0.16664 0.0
C912 C 0.43054 0.47282 0.14022 0.0
C913 C 0.35124 0.41848 0.13463 0.0
C914 C 0.43009 0.47729 0.19632 0.0
H915 H 0.33379 0.44588 0.24407 0.0
H916 H 0.38013 0.37905 0.24422 0.0
H917 H 0.37083 0.49294 0.19137 0.0
H918 H 0.34247 0.47253 0.17077 0.0
H919 H 0.3384 0.48434 0.20777 0.0
H920 H 0.40868 0.37555 0.2064 0.0
H921 H 0.39818 0.38966 0.16978 0.0
H922 H 0.42547 0.41011 0.19204 0.0
H923 H 0.384 0.437 0.0894 0.0
H924 H 0.4508 0.4857 0.14166 0.0
H925 H 0.33646 0.42695 0.14711 0.0
H926 H 0.35292 0.39713 0.14517 0.0
H927 H 0.34317 0.41566 0.11075 0.0
H928 H 0.41595 0.48686 0.20865 0.0
H929 H 0.44877 0.49361 0.19311 0.0
H930 H 0.43559 0.45926 0.21087 0.0
C931 C 0.39831 0.64287 0.86451 0.0
C932 C 0.39257 0.62966 0.83665 0.0
C933 C 0.41394 0.63162 0.88813 0.0
C934 C 0.42445 0.60679 0.88367 0.0
C935 C 0.41818 0.59298 0.85583 0.0
C936 C 0.40218 0.60448 0.83275 0.0
C937 C 0.41972 0.64669 0.91761 0.0
C938 C 0.42919 0.56664 0.85 0.0
C939 C 0.48946 0.59552 0.92796 0.0
C940 C 0.47994 0.57324 0.94892 0.0
C941 C 0.47158 0.60696 0.90707 0.0
C942 C 0.44335 0.59622 0.9073 0.0
C943 C 0.43346 0.57466 0.92926 0.0
C944 C 0.45185 0.5633 0.94967 0.0
C945 C 0.48303 0.62976 0.88391 0.0
C946 C 0.40349 0.56296 0.9306 0.0
H947 H 0.39066 0.66215 0.86777 0.0
H948 H 0.39801 0.59433 0.81119 0.0
H949 H 0.41435 0.63123 0.93691 0.0
H950 H 0.4417 0.6557 0.92085 0.0
H951 H 0.40835 0.66439 0.91834 0.0
H952 H 0.42154 0.55776 0.82767 0.0
H953 H 0.45165 0.57202 0.85071 0.0
H954 H 0.4236 0.54976 0.86795 0.0
H955 H 0.51108 0.60332 0.92699 0.0
H956 H 0.44422 0.54615 0.96575 0.0
H957 H 0.47365 0.64888 0.88485 0.0
H958 H 0.47815 0.62155 0.86083 0.0
H959 H 0.50538 0.63652 0.88739 0.0
H960 H 0.39227 0.58074 0.93128 0.0
H961 H 0.39891 0.54817 0.95066 0.0
H962 H 0.39578 0.55117 0.90989 0.0
C963 C 0.3715 0.39529 0.83607 0.0
C964 C 0.3766 0.36827 0.82989 0.0
C965 C 0.38717 0.41204 0.85851 0.0
C966 C 0.40884 0.40187 0.87499 0.0
C967 C 0.41368 0.37436 0.8695 0.0
C968 C 0.39742 0.35785 0.84726 0.0
C969 C 0.38116 0.44116 0.86376 0.0
C970 C 0.43673 0.36279 0.88632 0.0
C971 C 0.46849 0.45807 0.90304 0.0
C972 C 0.465 0.45785 0.93421 0.0
C973 C 0.45052 0.43985 0.88378 0.0
C974 C 0.42804 0.42111 0.89569 0.0
C975 C 0.42412 0.42092 0.92706 0.0
C976 C 0.44277 0.43914 0.94602 0.0
C977 C 0.45577 0.44058 0.8506 0.0
C978 C 0.40015 0.40158 0.94053 0.0
H979 H 0.35579 0.40388 0.82267 0.0
H980 H 0.40126 0.33682 0.84328 0.0
H981 H 0.37996 0.44375 0.8883 0.0
H982 H 0.39785 0.45812 0.85583 0.0
H983 H 0.36188 0.44462 0.85162 0.0
H984 H 0.43676 0.34031 0.88089 0.0
H985 H 0.45633 0.37629 0.88034 0.0
H986 H 0.43556 0.36373 0.91111 0.0
H987 H 0.48558 0.47235 0.89357 0.0
H988 H 0.43983 0.43889 0.97001 0.0
H989 H 0.43843 0.44671 0.83658 0.0
H990 H 0.45764 0.41895 0.84407 0.0
H991 H 0.47451 0.45595 0.84504 0.0
H992 H 0.38104 0.4062 0.92904 0.0
H993 H 0.39975 0.40421 0.96522 0.0
H994 H 0.40067 0.37887 0.9368 0.0
C995 C 0.6666 0.42063 0.81966 0.0
C996 C 0.65285 0.39493 0.80705 0.0
C997 C 0.65433 0.43501 0.83988 0.0
C998 C 0.628 0.42296 0.84877 0.0
C999 C 0.61439 0.39653 0.83715 0.0
C1000 C 0.62675 0.38311 0.81616 0.0
C1001 C 0.66944 0.46334 0.85137 0.0
C1002 C 0.58645 0.38267 0.84639 0.0
C1003 C 0.6018 0.44849 0.91887 0.0
C1004 C 0.58344 0.465 0.90572 0.0
C1005 C 0.61677 0.43488 0.90067 0.0
C1006 C 0.61389 0.43871 0.8687 0.0
C1007 C 0.59644 0.45668 0.85551 0.0
C1008 C 0.58107 0.46912 0.87413 0.0
C1009 C 0.63472 0.41544 0.91556 0.0
C1010 C 0.59343 0.46221 0.82165 0.0
H1011 H 0.68701 0.42973 0.81365 0.0
H1012 H 0.61556 0.36362 0.8064 0.0
H1013 H 0.65616 0.47947 0.84927 0.0
H1014 H 0.67569 0.46066 0.87573 0.0
H1015 H 0.68786 0.47184 0.83895 0.0
H1016 H 0.57971 0.36086 0.83765 0.0
H1017 H 0.58613 0.38115 0.87144 0.0
H1018 H 0.57161 0.39607 0.83763 0.0
H1019 H 0.60352 0.44513 0.94328 0.0
H1020 H 0.56699 0.482 0.86388 0.0
H1021 H 0.65567 0.4222 0.90833 0.0
H1022 H 0.62722 0.39322 0.90829 0.0
H1023 H 0.63532 0.41532 0.94067 0.0
H1024 H 0.61363 0.46822 0.81221 0.0
H1025 H 0.58185 0.47952 0.81535 0.0
H1026 H 0.58267 0.44238 0.81082 0.0
C1027 C 0.63951 0.62129 0.79041 0.0
C1028 C 0.65326 0.60651 0.77226 0.0
C1029 C 0.62873 0.60854 0.81715 0.0
C1030 C 0.63217 0.58044 0.82631 0.0
C1031 C 0.64658 0.56556 0.80858 0.0
C1032 C 0.65693 0.57877 0.78165 0.0
C1033 C 0.61327 0.62503 0.83536 0.0
C1034 C 0.65097 0.53574 0.818 0.0
C1035 C 0.61922 0.56373 0.90886 0.0
C1036 C 0.59177 0.55064 0.90675 0.0
C1037 C 0.6334 0.57167 0.88271 0.0
C1038 C 0.61964 0.56661 0.85395 0.0
C1039 C 0.59247 0.55165 0.85179 0.0
C1040 C 0.57885 0.54384 0.87825 0.0
C1041 C 0.66258 0.58699 0.88585 0.0
C1042 C 0.57714 0.54568 0.82151 0.0
H1043 H 0.63717 0.64298 0.78372 0.0
H1044 H 0.66745 0.56717 0.76768 0.0
H1045 H 0.5922 0.61306 0.83721 0.0
H1046 H 0.62284 0.62739 0.85868 0.0
H1047 H 0.61248 0.64672 0.82508 0.0
H1048 H 0.66045 0.52607 0.80041 0.0
H1049 H 0.66429 0.53652 0.83916 0.0
H1050 H 0.63146 0.52153 0.82295 0.0
H1051 H 0.62944 0.56861 0.93087 0.0
H1052 H 0.55769 0.53348 0.87644 0.0
H1053 H 0.66387 0.60997 0.87896 0.0
H1054 H 0.67503 0.57799 0.87071 0.0
H1055 H 0.67143 0.58549 0.90948 0.0
H1056 H 0.57278 0.56604 0.81068 0.0
H1057 H 0.55763 0.53039 0.82376 0.0
H1058 H 0.58948 0.53681 0.80614 0.0
C1059 C 0.64285 0.62626 0.17371 0.0
C1060 C 0.62948 0.63935 0.19403 0.0
C1061 C 0.62835 0.60955 0.15052 0.0
C1062 C 0.59975 0.60595 0.14732 0.0
C1063 C 0.58618 0.61973 0.16718 0.0
C1064 C 0.60116 0.63613 0.19029 0.0
C1065 C 0.64359 0.59515 0.12993 0.0
C1066 C 0.55571 0.6165 0.16453 0.0
C1067 C 0.55958 0.57914 0.07474 0.0
C1068 C 0.5487 0.55074 0.08358 0.0
C1069 C 0.57688 0.59724 0.09494 0.0
C1070 C 0.58377 0.5865 0.12442 0.0
C1071 C 0.57403 0.55734 0.13272 0.0
C1072 C 0.55646 0.53994 0.11233 0.0
C1073 C 0.58675 0.62819 0.08524 0.0
C1074 C 0.5813 0.54474 0.16359 0.0
H1075 H 0.66474 0.62898 0.17598 0.0
H1076 H 0.59053 0.64577 0.20602 0.0
H1077 H 0.63746 0.57154 0.13293 0.0
H1078 H 0.63843 0.60099 0.1059 0.0
H1079 H 0.6659 0.60109 0.13449 0.0
H1080 H 0.54837 0.63002 0.18044 0.0
H1081 H 0.5487 0.62239 0.1411 0.0
H1082 H 0.54622 0.59379 0.16934 0.0
H1083 H 0.55353 0.5876 0.05258 0.0
H1084 H 0.54835 0.51787 0.11914 0.0
H1085 H 0.60905 0.63414 0.08954 0.0
H1086 H 0.57755 0.64218 0.09882 0.0
H1087 H 0.58146 0.63264 0.06087 0.0
H1088 H 0.60357 0.54949 0.16862 0.0
H1089 H 0.57415 0.52114 0.16546 0.0
H1090 H 0.57206 0.55465 0.18117 0.0
C1091 C 0.34692 0.60098 0.19112 0.0
C1092 C 0.36081 0.62751 0.20173 0.0
C1093 C 0.35896 0.58511 0.17217 0.0
C1094 C 0.38519 0.5964 0.16256 0.0
C1095 C 0.39891 0.6236 0.17207 0.0
C1096 C 0.38679 0.63857 0.19184 0.0
C1097 C 0.34384 0.55595 0.16299 0.0
C1098 C 0.42678 0.63662 0.162 0.0
C1099 C 0.43186 0.5481 0.14143 0.0
C1100 C 0.42924 0.54998 0.1097 0.0
C1101 C 0.41665 0.56197 0.15881 0.0
C1102 C 0.3991 0.57912 0.14414 0.0
C1103 C 0.39605 0.58078 0.11205 0.0
C1104 C 0.41085 0.56576 0.09518 0.0
C1105 C 0.4197 0.55863 0.19292 0.0
C1106 C 0.3781 0.59941 0.09555 0.0
H1107 H 0.32659 0.59238 0.19775 0.0
H1108 H 0.3981 0.65868 0.20009 0.0
H1109 H 0.33995 0.55587 0.13804 0.0
H1110 H 0.35635 0.53954 0.16954 0.0
H1111 H 0.32416 0.54958 0.17359 0.0
H1112 H 0.43362 0.65904 0.16899 0.0
H1113 H 0.44164 0.6237 0.17188 0.0
H1114 H 0.42693 0.63638 0.137 0.0
H1115 H 0.446 0.53585 0.15275 0.0
H1116 H 0.40897 0.56743 0.07065 0.0
H1117 H 0.39964 0.55007 0.20197 0.0
H1118 H 0.42746 0.5798 0.20273 0.0
H1119 H 0.43376 0.54403 0.20078 0.0
H1120 H 0.35733 0.5938 0.10351 0.0
H1121 H 0.37692 0.59735 0.07063 0.0
H1122 H 0.38608 0.62217 0.10059 0.0
C1123 C 0.62831 0.39009 0.15879 0.0
C1124 C 0.62224 0.39126 0.18899 0.0
C1125 C 0.612 0.39989 0.13482 0.0
C1126 C 0.58937 0.41158 0.14124 0.0
C1127 C 0.58367 0.41358 0.17176 0.0
C1128 C 0.60001 0.40316 0.19522 0.0
C1129 C 0.61859 0.39711 0.10261 0.0
C1130 C 0.56014 0.42649 0.17967 0.0
C1131 C 0.55864 0.45961 0.08247 0.0
C1132 C 0.5345 0.44146 0.07256 0.0
C1133 C 0.57691 0.45006 0.10437 0.0
C1134 C 0.57132 0.4214 0.11616 0.0
C1135 C 0.54762 0.40258 0.10521 0.0
C1136 C 0.52932 0.41293 0.08384 0.0
C1137 C 0.60148 0.4711 0.11595 0.0
C1138 C 0.54114 0.37174 0.11682 0.0
H1139 H 0.64534 0.38066 0.1539 0.0
H1140 H 0.5954 0.4043 0.21855 0.0
H1141 H 0.60134 0.38315 0.09051 0.0
H1142 H 0.62159 0.41839 0.09042 0.0
H1143 H 0.6371 0.38793 0.10141 0.0
H1144 H 0.55915 0.42758 0.20451 0.0
H1145 H 0.56178 0.44845 0.1692 0.0
H1146 H 0.54083 0.41356 0.17042 0.0
H1147 H 0.56266 0.48182 0.07426 0.0
H1148 H 0.51072 0.39881 0.07634 0.0
H1149 H 0.62014 0.46236 0.11436 0.0
H1150 H 0.59981 0.4746 0.1402 0.0
H1151 H 0.60372 0.49216 0.10326 0.0
H1152 H 0.55877 0.36129 0.11507 0.0
H1153 H 0.52323 0.35928 0.10419 0.0
H1154 H 0.53699 0.37085 0.14111 0.0
loop_
_geom_bond_atom_site_label_1
_geom_bond_atom_site_label_2
_geom_bond_distance
_geom_bond_site_symmetry_2
_ccdc_geom_bond_type
C0 C1 1.384 . S
C0 H13 0.947 . S
C0 C35 1.382 . S
C1 C0 1.384 . S
C1 C2 1.378 . S
C2 C1 1.378 . S
C2 C3 1.378 . S
C2 H14 0.952 . S
C3 C2 1.378 . S
C3 H15 0.950 . S
C3 C34 1.383 . S
H4 C23 0.947 . S
H5 C24 0.946 . S
H6 C26 0.953 . S
H7 C27 0.945 . S
H8 C29 0.952 . S
H9 C30 0.949 . S
H10 C32 0.950 . S
H11 C33 0.948 . S
H12 C35 0.951 . S
H13 C0 0.947 . S
H14 C2 0.952 . S
H15 C3 0.950 . S
N16 C19 1.382 . S
N16 C21 1.363 . S
N17 C19 1.371 . S
N17 C20 1.372 . S
N18 C20 1.361 . S
N18 C21 1.377 . S
C19 N16 1.382 . S
C19 N17 1.371 . S
C19 C22 1.480 . S
C20 N17 1.372 . S
C20 N18 1.361 . S
C20 C28 1.457 . S
C21 N16 1.363 . S
C21 N18 1.377 . S
C21 C34 1.479 . S
C22 C19 1.480 . S
C22 C23 1.383 . S
C22 C27 1.385 . S
C23 H4 0.947 . S
C23 C22 1.383 . S
C23 C24 1.388 . S
C24 H5 0.946 . S
C24 C23 1.388 . S
C24 C25 1.384 . S
C25 C24 1.384 . S
C25 C26 1.377 . S
C26 H6 0.953 . S
C26 C25 1.377 . S
C26 C27 1.369 . S
C27 H7 0.945 . S
C27 C22 1.385 . S
C27 C26 1.369 . S
C28 C20 1.457 . S
C28 C29 1.372 . S
C28 C33 1.364 . S
C29 H8 0.952 . S
C29 C28 1.372 . S
C29 C30 1.389 . S
C30 H9 0.949 . S
C30 C29 1.389 . S
C30 C31 1.387 . S
C31 C30 1.387 . S
C31 C32 1.372 . S
C32 H10 0.950 . S
C32 C31 1.372 . S
C32 C33 1.379 . S
C33 H11 0.948 . S
C33 C28 1.364 . S
C33 C32 1.379 . S
C34 C3 1.383 . S
C34 C21 1.479 . S
C34 C35 1.398 . S
C35 C0 1.382 . S
C35 H12 0.951 . S
C35 C34 1.398 . S
C36 C37 1.384 . S
C36 H49 0.947 . S
C36 C71 1.382 . S
C37 C36 1.384 . S
C37 C38 1.378 . S
C38 C37 1.378 . S
C38 C39 1.378 . S
C38 H50 0.952 . S
C39 C38 1.378 . S
C39 H51 0.950 . S
C39 C70 1.383 . S
H40 C59 0.947 . S
H41 C60 0.946 . S
H42 C62 0.953 . S
H43 C63 0.945 . S
H44 C65 0.952 . S
H45 C66 0.949 . S
H46 C68 0.950 . S
H47 C69 0.948 . S
H48 C71 0.951 . S
H49 C36 0.947 . S
H50 C38 0.952 . S
H51 C39 0.950 . S
N52 C55 1.382 . S
N52 C57 1.363 . S
N53 C55 1.371 . S
N53 C56 1.372 . S
N54 C56 1.361 . S
N54 C57 1.377 . S
C55 N52 1.382 . S
C55 N53 1.371 . S
C55 C58 1.480 . S
C56 N53 1.372 . S
C56 N54 1.361 . S
C56 C64 1.457 . S
C57 N52 1.363 . S
C57 N54 1.377 . S
C57 C70 1.479 . S
C58 C55 1.480 . S
C58 C59 1.383 . S
C58 C63 1.385 . S
C59 H40 0.947 . S
C59 C58 1.383 . S
C59 C60 1.388 . S
C60 H41 0.946 . S
C60 C59 1.388 . S
C60 C61 1.384 . S
C61 C60 1.384 . S
C61 C62 1.377 . S
C62 H42 0.953 . S
C62 C61 1.377 . S
C62 C63 1.369 . S
C63 H43 0.945 . S
C63 C58 1.385 . S
C63 C62 1.369 . S
C64 C56 1.457 . S
C64 C65 1.372 . S
C64 C69 1.364 . S
C65 H44 0.952 . S
C65 C64 1.372 . S
C65 C66 1.389 . S
C66 H45 0.949 . S
C66 C65 1.389 . S
C66 C67 1.387 . S
C67 C66 1.387 . S
C67 C68 1.372 . S
C68 H46 0.950 . S
C68 C67 1.372 . S
C68 C69 1.379 . S
C69 H47 0.948 . S
C69 C64 1.364 . S
C69 C68 1.379 . S
C70 C39 1.383 . S
C70 C57 1.479 . S
C70 C71 1.398 . S
C71 C36 1.382 . S
C71 H48 0.951 . S
C71 C70 1.398 . S
C72 C73 1.384 . S
C72 H85 0.947 . S
C72 C107 1.382 . S
C73 C72 1.384 . S
C73 C74 1.378 . S
C74 C73 1.378 . S
C74 C75 1.378 . S
C74 H86 0.952 . S
C75 C74 1.378 . S
C75 H87 0.950 . S
C75 C106 1.383 . S
H76 C95 0.947 . S
H77 C96 0.946 . S
H78 C98 0.953 . S
H79 C99 0.945 . S
H80 C101 0.952 . S
H81 C102 0.949 . S
H82 C104 0.950 . S
H83 C105 0.948 . S
H84 C107 0.951 . S
H85 C72 0.947 . S
H86 C74 0.952 . S
H87 C75 0.950 . S
N88 C91 1.382 . S
N88 C93 1.363 . S
N89 C91 1.371 . S
N89 C92 1.372 . S
N90 C92 1.361 . S
N90 C93 1.377 . S
C91 N88 1.382 . S
C91 N89 1.371 . S
C91 C94 1.480 . S
C92 N89 1.372 . S
C92 N90 1.361 . S
C92 C100 1.457 . S
C93 N88 1.363 . S
C93 N90 1.377 . S
C93 C106 1.479 . S
C94 C91 1.480 . S
C94 C95 1.383 . S
C94 C99 1.385 . S
C95 H76 0.947 . S
C95 C94 1.383 . S
C95 C96 1.388 . S
C96 H77 0.946 . S
C96 C95 1.388 . S
C96 C97 1.384 . S
C97 C96 1.384 . S
C97 C98 1.377 . S
C98 H78 0.953 . S
C98 C97 1.377 . S
C98 C99 1.369 . S
C99 H79 0.945 . S
C99 C94 1.385 . S
C99 C98 1.369 . S
C100 C92 1.457 . S
C100 C101 1.372 . S
C100 C105 1.364 . S
C101 H80 0.952 . S
C101 C100 1.372 . S
C101 C102 1.389 . S
C102 H81 0.949 . S
C102 C101 1.389 . S
C102 C103 1.387 . S
C103 C102 1.387 . S
C103 C104 1.372 . S
C104 H82 0.950 . S
C104 C103 1.372 . S
C104 C105 1.379 . S
C105 H83 0.948 . S
C105 C100 1.364 . S
C105 C104 1.379 . S
C106 C75 1.383 . S
C106 C93 1.479 . S
C106 C107 1.398 . S
C107 C72 1.382 . S
C107 H84 0.951 . S
C107 C106 1.398 . S
C108 C109 1.384 . S
C108 H121 0.947 . S
C108 C143 1.382 . S
C109 C108 1.384 . S
C109 C110 1.378 . S
C110 C109 1.378 . S
C110 C111 1.378 . S
C110 H122 0.952 . S
C111 C110 1.378 . S
C111 H123 0.950 . S
C111 C142 1.383 . S
H112 C131 0.947 . S
H113 C132 0.946 . S
H114 C134 0.953 . S
H115 C135 0.945 . S
H116 C137 0.952 . S
H117 C138 0.949 . S
H118 C140 0.950 . S
H119 C141 0.948 . S
H120 C143 0.951 . S
H121 C108 0.947 . S
H122 C110 0.952 . S
H123 C111 0.950 . S
N124 C127 1.382 . S
N124 C129 1.363 . S
N125 C127 1.371 . S
N125 C128 1.372 . S
N126 C128 1.361 . S
N126 C129 1.377 . S
C127 N124 1.382 . S
C127 N125 1.371 . S
C127 C130 1.480 . S
C128 N125 1.372 . S
C128 N126 1.361 . S
C128 C136 1.457 . S
C129 N124 1.363 . S
C129 N126 1.377 . S
C129 C142 1.479 . S
C130 C127 1.480 . S
C130 C131 1.383 . S
C130 C135 1.385 . S
C131 H112 0.947 . S
C131 C130 1.383 . S
C131 C132 1.388 . S
C132 H113 0.946 . S
C132 C131 1.388 . S
C132 C133 1.384 . S
C133 C132 1.384 . S
C133 C134 1.377 . S
C134 H114 0.953 . S
C134 C133 1.377 . S
C134 C135 1.369 . S
C135 H115 0.945 . S
C135 C130 1.385 . S
C135 C134 1.369 . S
C136 C128 1.457 . S
C136 C137 1.372 . S
C136 C141 1.364 . S
C137 H116 0.952 . S
C137 C136 1.372 . S
C137 C138 1.389 . S
C138 H117 0.949 . S
C138 C137 1.389 . S
C138 C139 1.387 . S
C139 C138 1.387 . S
C139 C140 1.372 . S
C140 H118 0.950 . S
C140 C139 1.372 . S
C140 C141 1.379 . S
C141 H119 0.948 . S
C141 C136 1.364 . S
C141 C140 1.379 . S
C142 C111 1.383 . S
C142 C129 1.479 . S
C142 C143 1.398 . S
C143 C108 1.382 . S
C143 H120 0.951 . S
C143 C142 1.398 . S
C144 C145 1.384 . S
C144 H157 0.947 . S
C144 C179 1.382 . S
C145 C144 1.384 . S
C145 C146 1.378 . S
C146 C145 1.378 . S
C146 C147 1.378 . S
C146 H158 0.952 . S
C147 C146 1.378 . S
C147 H159 0.950 . S
C147 C178 1.383 . S
H148 C167 0.947 . S
H149 C168 0.946 . S
H150 C170 0.953 . S
H151 C171 0.945 . S
H152 C173 0.952 . S
H153 C174 0.949 . S
H154 C176 0.950 . S
H155 C177 0.948 . S
H156 C179 0.951 . S
H157 C144 0.947 . S
H158 C146 0.952 . S
H159 C147 0.950 . S
N160 C163 1.382 . S
N160 C165 1.363 . S
N161 C163 1.371 . S
N161 C164 1.372 . S
N162 C164 1.361 . S
N162 C165 1.377 . S
C163 N160 1.382 . S
C163 N161 1.371 . S
C163 C166 1.480 . S
C164 N161 1.372 . S
C164 N162 1.361 . S
C164 C172 1.457 . S
C165 N160 1.363 . S
C165 N162 1.377 . S
C165 C178 1.479 . S
C166 C163 1.480 . S
C166 C167 1.383 . S
C166 C171 1.385 . S
C167 H148 0.947 . S
C167 C166 1.383 . S
C167 C168 1.388 . S
C168 H149 0.946 . S
C168 C167 1.388 . S
C168 C169 1.384 . S
C169 C168 1.384 . S
C169 C170 1.377 . S
C170 H150 0.953 . S
C170 C169 1.377 . S
C170 C171 1.369 . S
C171 H151 0.945 . S
C171 C166 1.385 . S
C171 C170 1.369 . S
C172 C164 1.457 . S
C172 C173 1.372 . S
C172 C177 1.364 . S
C173 H152 0.952 . S
C173 C172 1.372 . S
C173 C174 1.389 . S
C174 H153 0.949 . S
C174 C173 1.389 . S
C174 C175 1.387 . S
C175 C174 1.387 . S
C175 C176 1.372 . S
C176 H154 0.950 . S
C176 C175 1.372 . S
C176 C177 1.379 . S
C177 H155 0.948 . S
C177 C172 1.364 . S
C177 C176 1.379 . S
C178 C147 1.383 . S
C178 C165 1.479 . S
C178 C179 1.398 . S
C179 C144 1.382 . S
C179 H156 0.951 . S
C179 C178 1.398 . S
C180 C181 1.384 . S
C180 H193 0.947 . S
C180 C215 1.382 . S
C181 C180 1.384 . S
C181 C182 1.378 . S
C182 C181 1.378 . S
C182 C183 1.378 . S
C182 H194 0.952 . S
C183 C182 1.378 . S
C183 H195 0.950 . S
C183 C214 1.383 . S
H184 C203 0.947 . S
H185 C204 0.946 . S
H186 C206 0.953 . S
H187 C207 0.945 . S
H188 C209 0.952 . S
H189 C210 0.949 . S
H190 C212 0.950 . S
H191 C213 0.948 . S
H192 C215 0.951 . S
H193 C180 0.947 . S
H194 C182 0.952 . S
H195 C183 0.950 . S
N196 C199 1.382 . S
N196 C201 1.363 . S
N197 C199 1.371 . S
N197 C200 1.372 . S
N198 C200 1.361 . S
N198 C201 1.377 . S
C199 N196 1.382 . S
C199 N197 1.371 . S
C199 C202 1.480 . S
C200 N197 1.372 . S
C200 N198 1.361 . S
C200 C208 1.457 . S
C201 N196 1.363 . S
C201 N198 1.377 . S
C201 C214 1.479 . S
C202 C199 1.480 . S
C202 C203 1.383 . S
C202 C207 1.385 . S
C203 H184 0.947 . S
C203 C202 1.383 . S
C203 C204 1.388 . S
C204 H185 0.946 . S
C204 C203 1.388 . S
C204 C205 1.384 . S
C205 C204 1.384 . S
C205 C206 1.377 . S
C206 H186 0.953 . S
C206 C205 1.377 . S
C206 C207 1.369 . S
C207 H187 0.945 . S
C207 C202 1.385 . S
C207 C206 1.369 . S
C208 C200 1.457 . S
C208 C209 1.372 . S
C208 C213 1.364 . S
C209 H188 0.952 . S
C209 C208 1.372 . S
C209 C210 1.389 . S
C210 H189 0.949 . S
C210 C209 1.389 . S
C210 C211 1.387 . S
C211 C210 1.387 . S
C211 C212 1.372 . S
C212 H190 0.950 . S
C212 C211 1.372 . S
C212 C213 1.379 . S
C213 H191 0.948 . S
C213 C208 1.364 . S
C213 C212 1.379 . S
C214 C183 1.383 . S
C214 C201 1.479 . S
C214 C215 1.398 . S
C215 C180 1.382 . S
C215 H192 0.951 . S
C215 C214 1.398 . S
C216 C217 1.384 . S
C216 H229 0.947 . S
C216 C251 1.382 . S
C217 C216 1.384 . S
C217 C218 1.378 . S
C218 C217 1.378 . S
C218 C219 1.378 . S
C218 H230 0.952 . S
C219 C218 1.378 . S
C219 H231 0.950 . S
C219 C250 1.383 . S
H220 C239 0.947 . S
H221 C240 0.946 . S
H222 C242 0.953 . S
H223 C243 0.945 . S
H224 C245 0.952 . S
H225 C246 0.949 . S
H226 C248 0.950 . S
H227 C249 0.948 . S
H228 C251 0.951 . S
H229 C216 0.947 . S
H230 C218 0.952 . S
H231 C219 0.950 . S
N232 C235 1.382 . S
N232 C237 1.363 . S
N233 C235 1.371 . S
N233 C236 1.372 . S
N234 C236 1.361 . S
N234 C237 1.377 . S
C235 N232 1.382 . S
C235 N233 1.371 . S
C235 C238 1.480 . S
C236 N233 1.372 . S
C236 N234 1.361 . S
C236 C244 1.457 . S
C237 N232 1.363 . S
C237 N234 1.377 . S
C237 C250 1.479 . S
C238 C235 1.480 . S
C238 C239 1.383 . S
C238 C243 1.385 . S
C239 H220 0.947 . S
C239 C238 1.383 . S
C239 C240 1.388 . S
C240 H221 0.946 . S
C240 C239 1.388 . S
C240 C241 1.384 . S
C241 C240 1.384 . S
C241 C242 1.377 . S
C242 H222 0.953 . S
C242 C241 1.377 . S
C242 C243 1.369 . S
C243 H223 0.945 . S
C243 C238 1.385 . S
C243 C242 1.369 . S
C244 C236 1.457 . S
C244 C245 1.372 . S
C244 C249 1.364 . S
C245 H224 0.952 . S
C245 C244 1.372 . S
C245 C246 1.389 . S
C246 H225 0.949 . S
C246 C245 1.389 . S
C246 C247 1.387 . S
C247 C246 1.387 . S
C247 C248 1.372 . S
C248 H226 0.950 . S
C248 C247 1.372 . S
C248 C249 1.379 . S
C249 H227 0.948 . S
C249 C244 1.364 . S
C249 C248 1.379 . S
C250 C219 1.383 . S
C250 C237 1.479 . S
C250 C251 1.398 . S
C251 C216 1.382 . S
C251 H228 0.951 . S
C251 C250 1.398 . S
C252 C253 1.384 . S
C252 H265 0.947 . S
C252 C287 1.382 . S
C253 C252 1.384 . S
C253 C254 1.378 . S
C254 C253 1.378 . S
C254 C255 1.378 . S
C254 H266 0.952 . S
C255 C254 1.378 . S
C255 H267 0.950 . S
C255 C286 1.383 . S
H256 C275 0.947 . S
H257 C276 0.946 . S
H258 C278 0.953 . S
H259 C279 0.945 . S
H260 C281 0.952 . S
H261 C282 0.949 . S
H262 C284 0.950 . S
H263 C285 0.948 . S
H264 C287 0.951 . S
H265 C252 0.947 . S
H266 C254 0.952 . S
H267 C255 0.950 . S
N268 C271 1.382 . S
N268 C273 1.363 . S
N269 C271 1.371 . S
N269 C272 1.372 . S
N270 C272 1.361 . S
N270 C273 1.377 . S
C271 N268 1.382 . S
C271 N269 1.371 . S
C271 C274 1.480 . S
C272 N269 1.372 . S
C272 N270 1.361 . S
C272 C280 1.457 . S
C273 N268 1.363 . S
C273 N270 1.377 . S
C273 C286 1.479 . S
C274 C271 1.480 . S
C274 C275 1.383 . S
C274 C279 1.385 . S
C275 H256 0.947 . S
C275 C274 1.383 . S
C275 C276 1.388 . S
C276 H257 0.946 . S
C276 C275 1.388 . S
C276 C277 1.384 . S
C277 C276 1.384 . S
C277 C278 1.377 . S
C278 H258 0.953 . S
C278 C277 1.377 . S
C278 C279 1.369 . S
C279 H259 0.945 . S
C279 C274 1.385 . S
C279 C278 1.369 . S
C280 C272 1.457 . S
C280 C281 1.372 . S
C280 C285 1.364 . S
C281 H260 0.952 . S
C281 C280 1.372 . S
C281 C282 1.389 . S
C282 H261 0.949 . S
C282 C281 1.389 . S
C282 C283 1.387 . S
C283 C282 1.387 . S
C283 C284 1.372 . S
C284 H262 0.950 . S
C284 C283 1.372 . S
C284 C285 1.379 . S
C285 H263 0.948 . S
C285 C280 1.364 . S
C285 C284 1.379 . S
C286 C255 1.383 . S
C286 C273 1.479 . S
C286 C287 1.398 . S
C287 C252 1.382 . S
C287 H264 0.951 . S
C287 C286 1.398 . S
Co288 O291 2.042 . S
Co288 O298 2.264 . S
Co288 O317 2.286 . S
Co288 O318 2.069 . S
Co288 O320 2.015 . S
Co289 O291 2.122 . S
Co289 O297 2.073 . S
Co289 O298 2.327 . S
Co289 O299 1.976 . S
Co290 O291 2.087 . S
Co290 O293 2.087 1_455 S
Co290 O300 2.111 . S
Co290 O301 2.143 1_455 S
Co290 O305 2.111 1_455 S
Co290 O319 2.143 . S
O291 Co288 2.042 . S
O291 Co289 2.122 . S
O291 Co290 2.087 . S
O291 H292 0.980 . S
H292 O291 0.980 . S
O293 Co290 2.087 1_655 S
O293 Co294 2.042 . S
O293 Co295 2.122 . S
O293 H296 0.980 . S
Co294 O293 2.042 . S
Co294 O302 2.286 . S
Co294 O303 2.069 . S
Co294 O304 2.015 . S
Co294 O307 2.264 . S
Co295 O293 2.122 . S
Co295 O306 1.976 . S
Co295 O307 2.327 . S
Co295 O308 2.073 . S
H296 O293 0.980 . S
O297 Co289 2.073 . S
O297 C312 1.245 . S
O298 Co288 2.264 . S
O298 Co289 2.327 . S
O298 C312 1.257 . S
O299 Co289 1.976 . S
O299 C311 1.251 . S
O300 Co290 2.111 . S
O300 C311 1.274 . S
O301 Co290 2.143 1_655 S
O301 C314 1.246 . S
O302 Co294 2.286 . S
O302 C313 1.259 . S
O303 Co294 2.069 . S
O303 C313 1.289 . S
O304 Co294 2.015 . S
O304 C314 1.257 . S
O305 Co290 2.111 1_655 S
O305 C315 1.274 . S
O306 Co295 1.976 . S
O306 C315 1.251 . S
O307 Co294 2.264 . S
O307 Co295 2.327 . S
O307 C316 1.257 . S
O308 Co295 2.073 . S
O308 C316 1.245 . S
C309 O317 1.259 . S
C309 O318 1.289 . S
C310 O319 1.246 . S
C310 O320 1.257 . S
C311 O299 1.251 . S
C311 O300 1.274 . S
C312 O297 1.245 . S
C312 O298 1.257 . S
C313 O302 1.259 . S
C313 O303 1.289 . S
C314 O301 1.246 . S
C314 O304 1.257 . S
C315 O305 1.274 . S
C315 O306 1.251 . S
C316 O307 1.257 . S
C316 O308 1.245 . S
O317 Co288 2.286 . S
O317 C309 1.259 . S
O318 Co288 2.069 . S
O318 C309 1.289 . S
O319 Co290 2.143 . S
O319 C310 1.246 . S
O320 Co288 2.015 . S
O320 C310 1.257 . S
Co321 O324 2.042 . S
Co321 O331 2.264 . S
Co321 O350 2.286 . S
Co321 O351 2.069 . S
Co321 O353 2.015 . S
Co322 O324 2.122 . S
Co322 O330 2.073 . S
Co322 O331 2.327 . S
Co322 O332 1.976 . S
Co323 O324 2.087 1_545 S
Co323 O326 2.087 . S
Co323 O333 2.111 1_545 S
Co323 O334 2.143 . S
Co323 O338 2.111 . S
Co323 O352 2.143 1_545 S
O324 Co321 2.042 . S
O324 Co322 2.122 . S
O324 Co323 2.087 1_565 S
O324 H325 0.980 . S
H325 O324 0.980 . S
O326 Co323 2.087 . S
O326 Co327 2.042 . S
O326 Co328 2.122 . S
O326 H329 0.980 . S
Co327 O326 2.042 . S
Co327 O335 2.286 . S
Co327 O336 2.069 . S
Co327 O337 2.015 . S
Co327 O340 2.264 . S
Co328 O326 2.122 . S
Co328 O339 1.976 . S
Co328 O340 2.327 . S
Co328 O341 2.073 . S
H329 O326 0.980 . S
O330 Co322 2.073 . S
O330 C345 1.245 . S
O331 Co321 2.264 . S
O331 Co322 2.327 . S
O331 C345 1.257 . S
O332 Co322 1.976 . S
O332 C344 1.251 . S
O333 Co323 2.111 1_565 S
O333 C344 1.274 . S
O334 Co323 2.143 . S
O334 C347 1.246 . S
O335 Co327 2.286 . S
O335 C346 1.259 . S
O336 Co327 2.069 . S
O336 C346 1.289 . S
O337 Co327 2.015 . S
O337 C347 1.257 . S
O338 Co323 2.111 . S
O338 C348 1.274 . S
O339 Co328 1.976 . S
O339 C348 1.251 . S
O340 Co327 2.264 . S
O340 Co328 2.327 . S
O340 C349 1.257 . S
O341 Co328 2.073 . S
O341 C349 1.245 . S
C342 O350 1.259 . S
C342 O351 1.289 . S
C343 O352 1.246 . S
C343 O353 1.257 . S
C344 O332 1.251 . S
C344 O333 1.274 . S
C345 O330 1.245 . S
C345 O331 1.257 . S
C346 O335 1.259 . S
C346 O336 1.289 . S
C347 O334 1.246 . S
C347 O337 1.257 . S
C348 O338 1.274 . S
C348 O339 1.251 . S
C349 O340 1.257 . S
C349 O341 1.245 . S
O350 Co321 2.286 . S
O350 C342 1.259 . S
O351 Co321 2.069 . S
O351 C342 1.289 . S
O352 Co323 2.143 1_565 S
O352 C343 1.246 . S
O353 Co321 2.015 . S
O353 C343 1.257 . S
Co354 O357 2.042 . S
Co354 O364 2.264 . S
Co354 O383 2.286 . S
Co354 O384 2.069 . S
Co354 O386 2.015 . S
Co355 O357 2.122 . S
Co355 O363 2.073 . S
Co355 O364 2.327 . S
Co355 O365 1.976 . S
Co356 O357 2.087 . S
Co356 O359 2.087 1_554 S
Co356 O366 2.111 . S
Co356 O367 2.143 1_554 S
Co356 O371 2.111 1_554 S
Co356 O385 2.143 . S
O357 Co354 2.042 . S
O357 Co355 2.122 . S
O357 Co356 2.087 . S
O357 H358 0.980 . S
H358 O357 0.980 . S
O359 Co356 2.087 1_556 S
O359 Co360 2.042 . S
O359 Co361 2.122 . S
O359 H362 0.980 . S
Co360 O359 2.042 . S
Co360 O368 2.286 . S
Co360 O369 2.069 . S
Co360 O370 2.015 . S
Co360 O373 2.264 . S
Co361 O359 2.122 . S
Co361 O372 1.976 . S
Co361 O373 2.327 . S
Co361 O374 2.073 . S
H362 O359 0.980 . S
O363 Co355 2.073 . S
O363 C378 1.245 . S
O364 Co354 2.264 . S
O364 Co355 2.327 . S
O364 C378 1.257 . S
O365 Co355 1.976 . S
O365 C377 1.251 . S
O366 Co356 2.111 . S
O366 C377 1.274 . S
O367 Co356 2.143 1_556 S
O367 C380 1.246 . S
O368 Co360 2.286 . S
O368 C379 1.259 . S
O369 Co360 2.069 . S
O369 C379 1.289 . S
O370 Co360 2.015 . S
O370 C380 1.257 . S
O371 Co356 2.111 1_556 S
O371 C381 1.274 . S
O372 Co361 1.976 . S
O372 C381 1.251 . S
O373 Co360 2.264 . S
O373 Co361 2.327 . S
O373 C382 1.257 . S
O374 Co361 2.073 . S
O374 C382 1.245 . S
C375 O383 1.259 . S
C375 O384 1.289 . S
C376 O385 1.246 . S
C376 O386 1.257 . S
C377 O365 1.251 . S
C377 O366 1.274 . S
C378 O363 1.245 . S
C378 O364 1.257 . S
C379 O368 1.259 . S
C379 O369 1.289 . S
C380 O367 1.246 . S
C380 O370 1.257 . S
C381 O371 1.274 . S
C381 O372 1.251 . S
C382 O373 1.257 . S
C382 O374 1.245 . S
O383 Co354 2.286 . S
O383 C375 1.259 . S
O384 Co354 2.069 . S
O384 C375 1.289 . S
O385 Co356 2.143 . S
O385 C376 1.246 . S
O386 Co354 2.015 . S
O386 C376 1.257 . S
C387 C388 1.391 . S
C387 C389 1.394 . S
C387 H403 0.931 . S
C388 C387 1.391 . S
C388 C392 1.376 . S
C389 C387 1.394 . S
C389 C390 1.369 . S
C389 C393 1.531 . S
C390 C389 1.369 . S
C390 C391 1.410 . S
C390 C398 1.503 . S
C391 C390 1.410 . S
C391 C392 1.392 . S
C391 C394 1.511 . S
C392 C388 1.376 . S
C392 C391 1.392 . S
C392 H404 0.929 . S
C393 C389 1.531 . S
C393 H405 0.960 . S
C393 H406 0.962 . S
C393 H407 0.960 . S
C394 C391 1.511 . S
C394 H408 0.961 . S
C394 H409 0.961 . S
C394 H410 0.961 . S
C395 C396 1.370 . S
C395 C397 1.363 . S
C395 H411 0.931 . S
C396 C395 1.370 . S
C396 C400 1.408 . S
C397 C395 1.363 . S
C397 C398 1.370 . S
C397 C401 1.524 . S
C398 C390 1.503 . S
C398 C397 1.370 . S
C398 C399 1.403 . S
C399 C398 1.403 . S
C399 C400 1.404 . S
C399 C402 1.539 . S
C400 C396 1.408 . S
C400 C399 1.404 . S
C400 H412 0.930 . S
C401 C397 1.524 . S
C401 H413 0.956 . S
C401 H414 0.961 . S
C401 H415 0.961 . S
C402 C399 1.539 . S
C402 H416 0.958 . S
C402 H417 0.961 . S
C402 H418 0.960 . S
H403 C387 0.931 . S
H404 C392 0.929 . S
H405 C393 0.960 . S
H406 C393 0.962 . S
H407 C393 0.960 . S
H408 C394 0.961 . S
H409 C394 0.961 . S
H410 C394 0.961 . S
H411 C395 0.931 . S
H412 C400 0.930 . S
H413 C401 0.956 . S
H414 C401 0.961 . S
H415 C401 0.961 . S
H416 C402 0.958 . S
H417 C402 0.961 . S
H418 C402 0.960 . S
C419 C420 1.391 . S
C419 C421 1.394 . S
C419 H435 0.931 . S
C420 C419 1.391 . S
C420 C424 1.376 . S
C421 C419 1.394 . S
C421 C422 1.369 . S
C421 C425 1.531 . S
C422 C421 1.369 . S
C422 C423 1.410 . S
C422 C430 1.503 . S
C423 C422 1.410 . S
C423 C424 1.392 . S
C423 C426 1.511 . S
C424 C420 1.376 . S
C424 C423 1.392 . S
C424 H436 0.929 . S
C425 C421 1.531 . S
C425 H437 0.960 . S
C425 H438 0.962 . S
C425 H439 0.960 . S
C426 C423 1.511 . S
C426 H440 0.961 . S
C426 H441 0.961 . S
C426 H442 0.961 . S
C427 C428 1.370 . S
C427 C429 1.363 . S
C427 H443 0.931 . S
C428 C427 1.370 . S
C428 C432 1.408 . S
C429 C427 1.363 . S
C429 C430 1.370 . S
C429 C433 1.524 . S
C430 C422 1.503 . S
C430 C429 1.370 . S
C430 C431 1.403 . S
C431 C430 1.403 . S
C431 C432 1.404 . S
C431 C434 1.539 . S
C432 C428 1.408 . S
C432 C431 1.404 . S
C432 H444 0.930 . S
C433 C429 1.524 . S
C433 H445 0.956 . S
C433 H446 0.961 . S
C433 H447 0.961 . S
C434 C431 1.539 . S
C434 H448 0.958 . S
C434 H449 0.961 . S
C434 H450 0.960 . S
H435 C419 0.931 . S
H436 C424 0.929 . S
H437 C425 0.960 . S
H438 C425 0.962 . S
H439 C425 0.960 . S
H440 C426 0.961 . S
H441 C426 0.961 . S
H442 C426 0.961 . S
H443 C427 0.931 . S
H444 C432 0.930 . S
H445 C433 0.956 . S
H446 C433 0.961 . S
H447 C433 0.961 . S
H448 C434 0.958 . S
H449 C434 0.961 . S
H450 C434 0.960 . S
C451 C452 1.391 . S
C451 C453 1.394 . S
C451 H467 0.931 . S
C452 C451 1.391 . S
C452 C456 1.376 . S
C453 C451 1.394 . S
C453 C454 1.369 . S
C453 C457 1.531 . S
C454 C453 1.369 . S
C454 C455 1.410 . S
C454 C462 1.503 . S
C455 C454 1.410 . S
C455 C456 1.392 . S
C455 C458 1.511 . S
C456 C452 1.376 . S
C456 C455 1.392 . S
C456 H468 0.929 . S
C457 C453 1.531 . S
C457 H469 0.960 . S
C457 H470 0.962 . S
C457 H471 0.960 . S
C458 C455 1.511 . S
C458 H472 0.961 . S
C458 H473 0.961 . S
C458 H474 0.961 . S
C459 C460 1.370 . S
C459 C461 1.363 . S
C459 H475 0.931 . S
C460 C459 1.370 . S
C460 C464 1.408 . S
C461 C459 1.363 . S
C461 C462 1.370 . S
C461 C465 1.524 . S
C462 C454 1.503 . S
C462 C461 1.370 . S
C462 C463 1.403 . S
C463 C462 1.403 . S
C463 C464 1.404 . S
C463 C466 1.539 . S
C464 C460 1.408 . S
C464 C463 1.404 . S
C464 H476 0.930 . S
C465 C461 1.524 . S
C465 H477 0.956 . S
C465 H478 0.961 . S
C465 H479 0.961 . S
C466 C463 1.539 . S
C466 H480 0.958 . S
C466 H481 0.961 . S
C466 H482 0.960 . S
H467 C451 0.931 . S
H468 C456 0.929 . S
H469 C457 0.960 . S
H470 C457 0.962 . S
H471 C457 0.960 . S
H472 C458 0.961 . S
H473 C458 0.961 . S
H474 C458 0.961 . S
H475 C459 0.931 . S
H476 C464 0.930 . S
H477 C465 0.956 . S
H478 C465 0.961 . S
H479 C465 0.961 . S
H480 C466 0.958 . S
H481 C466 0.961 . S
H482 C466 0.960 . S
C483 C484 1.391 . S
C483 C485 1.394 . S
C483 H499 0.931 . S
C484 C483 1.391 . S
C484 C488 1.376 . S
C485 C483 1.394 . S
C485 C486 1.369 . S
C485 C489 1.531 . S
C486 C485 1.369 . S
C486 C487 1.410 . S
C486 C494 1.503 . S
C487 C486 1.410 . S
C487 C488 1.392 . S
C487 C490 1.511 . S
C488 C484 1.376 . S
C488 C487 1.392 . S
C488 H500 0.929 . S
C489 C485 1.531 . S
C489 H501 0.960 . S
C489 H502 0.962 . S
C489 H503 0.960 . S
C490 C487 1.511 . S
C490 H504 0.961 . S
C490 H505 0.961 . S
C490 H506 0.961 . S
C491 C492 1.370 . S
C491 C493 1.363 . S
C491 H507 0.931 . S
C492 C491 1.370 . S
C492 C496 1.408 . S
C493 C491 1.363 . S
C493 C494 1.370 . S
C493 C497 1.524 . S
C494 C486 1.503 . S
C494 C493 1.370 . S
C494 C495 1.403 . S
C495 C494 1.403 . S
C495 C496 1.404 . S
C495 C498 1.539 . S
C496 C492 1.408 . S
C496 C495 1.404 . S
C496 H508 0.930 . S
C497 C493 1.524 . S
C497 H509 0.956 . S
C497 H510 0.961 . S
C497 H511 0.961 . S
C498 C495 1.539 . S
C498 H512 0.958 . S
C498 H513 0.961 . S
C498 H514 0.960 . S
H499 C483 0.931 . S
H500 C488 0.929 . S
H501 C489 0.960 . S
H502 C489 0.962 . S
H503 C489 0.960 . S
H504 C490 0.961 . S
H505 C490 0.961 . S
H506 C490 0.961 . S
H507 C491 0.931 . S
H508 C496 0.930 . S
H509 C497 0.956 . S
H510 C497 0.961 . S
H511 C497 0.961 . S
H512 C498 0.958 . S
H513 C498 0.961 . S
H514 C498 0.960 . S
C515 C516 1.391 . S
C515 C517 1.394 . S
C515 H531 0.931 . S
C516 C515 1.391 . S
C516 C520 1.376 . S
C517 C515 1.394 . S
C517 C518 1.369 . S
C517 C521 1.531 . S
C518 C517 1.369 . S
C518 C519 1.410 . S
C518 C526 1.503 . S
C519 C518 1.410 . S
C519 C520 1.392 . S
C519 C522 1.511 . S
C520 C516 1.376 . S
C520 C519 1.392 . S
C520 H532 0.929 . S
C521 C517 1.531 . S
C521 H533 0.960 . S
C521 H534 0.962 . S
C521 H535 0.960 . S
C522 C519 1.511 . S
C522 H536 0.961 . S
C522 H537 0.961 . S
C522 H538 0.961 . S
C523 C524 1.370 . S
C523 C525 1.363 . S
C523 H539 0.931 . S
C524 C523 1.370 . S
C524 C528 1.408 . S
C525 C523 1.363 . S
C525 C526 1.370 . S
C525 C529 1.524 . S
C526 C518 1.503 . S
C526 C525 1.370 . S
C526 C527 1.403 . S
C527 C526 1.403 . S
C527 C528 1.404 . S
C527 C530 1.539 . S
C528 C524 1.408 . S
C528 C527 1.404 . S
C528 H540 0.930 . S
C529 C525 1.524 . S
C529 H541 0.956 . S
C529 H542 0.961 . S
C529 H543 0.961 . S
C530 C527 1.539 . S
C530 H544 0.958 . S
C530 H545 0.961 . S
C530 H546 0.960 . S
H531 C515 0.931 . S
H532 C520 0.929 . S
H533 C521 0.960 . S
H534 C521 0.962 . S
H535 C521 0.960 . S
H536 C522 0.961 . S
H537 C522 0.961 . S
H538 C522 0.961 . S
H539 C523 0.931 . S
H540 C528 0.930 . S
H541 C529 0.956 . S
H542 C529 0.961 . S
H543 C529 0.961 . S
H544 C530 0.958 . S
H545 C530 0.961 . S
H546 C530 0.960 . S
C547 C548 1.391 . S
C547 C549 1.394 . S
C547 H563 0.931 . S
C548 C547 1.391 . S
C548 C552 1.376 . S
C549 C547 1.394 . S
C549 C550 1.369 . S
C549 C553 1.531 . S
C550 C549 1.369 . S
C550 C551 1.410 . S
C550 C558 1.503 . S
C551 C550 1.410 . S
C551 C552 1.392 . S
C551 C554 1.511 . S
C552 C548 1.376 . S
C552 C551 1.392 . S
C552 H564 0.929 . S
C553 C549 1.531 . S
C553 H565 0.960 . S
C553 H566 0.962 . S
C553 H567 0.960 . S
C554 C551 1.511 . S
C554 H568 0.961 . S
C554 H569 0.961 . S
C554 H570 0.961 . S
C555 C556 1.370 . S
C555 C557 1.363 . S
C555 H571 0.931 . S
C556 C555 1.370 . S
C556 C560 1.408 . S
C557 C555 1.363 . S
C557 C558 1.370 . S
C557 C561 1.524 . S
C558 C550 1.503 . S
C558 C557 1.370 . S
C558 C559 1.403 . S
C559 C558 1.403 . S
C559 C560 1.404 . S
C559 C562 1.539 . S
C560 C556 1.408 . S
C560 C559 1.404 . S
C560 H572 0.930 . S
C561 C557 1.524 . S
C561 H573 0.956 . S
C561 H574 0.961 . S
C561 H575 0.961 . S
C562 C559 1.539 . S
C562 H576 0.958 . S
C562 H577 0.961 . S
C562 H578 0.960 . S
H563 C547 0.931 . S
H564 C552 0.929 . S
H565 C553 0.960 . S
H566 C553 0.962 . S
H567 C553 0.960 . S
H568 C554 0.961 . S
H569 C554 0.961 . S
H570 C554 0.961 . S
H571 C555 0.931 . S
H572 C560 0.930 . S
H573 C561 0.956 . S
H574 C561 0.961 . S
H575 C561 0.961 . S
H576 C562 0.958 . S
H577 C562 0.961 . S
H578 C562 0.960 . S
C579 C580 1.391 . S
C579 C581 1.394 . S
C579 H595 0.931 . S
C580 C579 1.391 . S
C580 C584 1.376 . S
C581 C579 1.394 . S
C581 C582 1.369 . S
C581 C585 1.531 . S
C582 C581 1.369 . S
C582 C583 1.410 . S
C582 C590 1.503 . S
C583 C582 1.410 . S
C583 C584 1.392 . S
C583 C586 1.511 . S
C584 C580 1.376 . S
C584 C583 1.392 . S
C584 H596 0.929 . S
C585 C581 1.531 . S
C585 H597 0.960 . S
C585 H598 0.962 . S
C585 H599 0.960 . S
C586 C583 1.511 . S
C586 H600 0.961 . S
C586 H601 0.961 . S
C586 H602 0.961 . S
C587 C588 1.370 . S
C587 C589 1.363 . S
C587 H603 0.931 . S
C588 C587 1.370 . S
C588 C592 1.408 . S
C589 C587 1.363 . S
C589 C590 1.370 . S
C589 C593 1.524 . S
C590 C582 1.503 . S
C590 C589 1.370 . S
C590 C591 1.403 . S
C591 C590 1.403 . S
C591 C592 1.404 . S
C591 C594 1.539 . S
C592 C588 1.408 . S
C592 C591 1.404 . S
C592 H604 0.930 . S
C593 C589 1.524 . S
C593 H605 0.956 . S
C593 H606 0.961 . S
C593 H607 0.961 . S
C594 C591 1.539 . S
C594 H608 0.958 . S
C594 H609 0.961 . S
C594 H610 0.960 . S
H595 C579 0.931 . S
H596 C584 0.929 . S
H597 C585 0.960 . S
H598 C585 0.962 . S
H599 C585 0.960 . S
H600 C586 0.961 . S
H601 C586 0.961 . S
H602 C586 0.961 . S
H603 C587 0.931 . S
H604 C592 0.930 . S
H605 C593 0.956 . S
H606 C593 0.961 . S
H607 C593 0.961 . S
H608 C594 0.958 . S
H609 C594 0.961 . S
H610 C594 0.960 . S
C611 C612 1.391 . S
C611 C613 1.394 . S
C611 H627 0.931 . S
C612 C611 1.391 . S
C612 C616 1.376 . S
C613 C611 1.394 . S
C613 C614 1.369 . S
C613 C617 1.531 . S
C614 C613 1.369 . S
C614 C615 1.410 . S
C614 C622 1.503 . S
C615 C614 1.410 . S
C615 C616 1.392 . S
C615 C618 1.511 . S
C616 C612 1.376 . S
C616 C615 1.392 . S
C616 H628 0.929 . S
C617 C613 1.531 . S
C617 H629 0.960 . S
C617 H630 0.962 . S
C617 H631 0.960 . S
C618 C615 1.511 . S
C618 H632 0.961 . S
C618 H633 0.961 . S
C618 H634 0.961 . S
C619 C620 1.370 . S
C619 C621 1.363 . S
C619 H635 0.931 . S
C620 C619 1.370 . S
C620 C624 1.408 . S
C621 C619 1.363 . S
C621 C622 1.370 . S
C621 C625 1.524 . S
C622 C614 1.503 . S
C622 C621 1.370 . S
C622 C623 1.403 . S
C623 C622 1.403 . S
C623 C624 1.404 . S
C623 C626 1.539 . S
C624 C620 1.408 . S
C624 C623 1.404 . S
C624 H636 0.930 . S
C625 C621 1.524 . S
C625 H637 0.956 . S
C625 H638 0.961 . S
C625 H639 0.961 . S
C626 C623 1.539 . S
C626 H640 0.958 . S
C626 H641 0.961 . S
C626 H642 0.960 . S
H627 C611 0.931 . S
H628 C616 0.929 . S
H629 C617 0.960 . S
H630 C617 0.962 . S
H631 C617 0.960 . S
H632 C618 0.961 . S
H633 C618 0.961 . S
H634 C618 0.961 . S
H635 C619 0.931 . S
H636 C624 0.930 . S
H637 C625 0.956 . S
H638 C625 0.961 . S
H639 C625 0.961 . S
H640 C626 0.958 . S
H641 C626 0.961 . S
H642 C626 0.960 . S
C643 C644 1.391 . S
C643 C645 1.394 . S
C643 H659 0.931 . S
C644 C643 1.391 . S
C644 C648 1.376 . S
C645 C643 1.394 . S
C645 C646 1.369 . S
C645 C649 1.531 . S
C646 C645 1.369 . S
C646 C647 1.410 . S
C646 C654 1.503 . S
C647 C646 1.410 . S
C647 C648 1.392 . S
C647 C650 1.511 . S
C648 C644 1.376 . S
C648 C647 1.392 . S
C648 H660 0.929 . S
C649 C645 1.531 . S
C649 H661 0.960 . S
C649 H662 0.962 . S
C649 H663 0.960 . S
C650 C647 1.511 . S
C650 H664 0.961 . S
C650 H665 0.961 . S
C650 H666 0.961 . S
C651 C652 1.370 . S
C651 C653 1.363 . S
C651 H667 0.931 . S
C652 C651 1.370 . S
C652 C656 1.408 . S
C653 C651 1.363 . S
C653 C654 1.370 . S
C653 C657 1.524 . S
C654 C646 1.503 . S
C654 C653 1.370 . S
C654 C655 1.403 . S
C655 C654 1.403 . S
C655 C656 1.404 . S
C655 C658 1.539 . S
C656 C652 1.408 . S
C656 C655 1.404 . S
C656 H668 0.930 . S
C657 C653 1.524 . S
C657 H669 0.956 . S
C657 H670 0.961 . S
C657 H671 0.961 . S
C658 C655 1.539 . S
C658 H672 0.958 . S
C658 H673 0.961 . S
C658 H674 0.960 . S
H659 C643 0.931 . S
H660 C648 0.929 . S
H661 C649 0.960 . S
H662 C649 0.962 . S
H663 C649 0.960 . S
H664 C650 0.961 . S
H665 C650 0.961 . S
H666 C650 0.961 . S
H667 C651 0.931 . S
H668 C656 0.930 . S
H669 C657 0.956 . S
H670 C657 0.961 . S
H671 C657 0.961 . S
H672 C658 0.958 . S
H673 C658 0.961 . S
H674 C658 0.960 . S
C675 C676 1.391 . S
C675 C677 1.394 . S
C675 H691 0.931 . S
C676 C675 1.391 . S
C676 C680 1.376 . S
C677 C675 1.394 . S
C677 C678 1.369 . S
C677 C681 1.531 . S
C678 C677 1.369 . S
C678 C679 1.410 . S
C678 C686 1.503 . S
C679 C678 1.410 . S
C679 C680 1.392 . S
C679 C682 1.511 . S
C680 C676 1.376 . S
C680 C679 1.392 . S
C680 H692 0.929 . S
C681 C677 1.531 . S
C681 H693 0.960 . S
C681 H694 0.962 . S
C681 H695 0.960 . S
C682 C679 1.511 . S
C682 H696 0.961 . S
C682 H697 0.961 . S
C682 H698 0.961 . S
C683 C684 1.370 . S
C683 C685 1.363 . S
C683 H699 0.931 . S
C684 C683 1.370 . S
C684 C688 1.408 . S
C685 C683 1.363 . S
C685 C686 1.370 . S
C685 C689 1.524 . S
C686 C678 1.503 . S
C686 C685 1.370 . S
C686 C687 1.403 . S
C687 C686 1.403 . S
C687 C688 1.404 . S
C687 C690 1.539 . S
C688 C684 1.408 . S
C688 C687 1.404 . S
C688 H700 0.930 . S
C689 C685 1.524 . S
C689 H701 0.956 . S
C689 H702 0.961 . S
C689 H703 0.961 . S
C690 C687 1.539 . S
C690 H704 0.958 . S
C690 H705 0.961 . S
C690 H706 0.960 . S
H691 C675 0.931 . S
H692 C680 0.929 . S
H693 C681 0.960 . S
H694 C681 0.962 . S
H695 C681 0.960 . S
H696 C682 0.961 . S
H697 C682 0.961 . S
H698 C682 0.961 . S
H699 C683 0.931 . S
H700 C688 0.930 . S
H701 C689 0.956 . S
H702 C689 0.961 . S
H703 C689 0.961 . S
H704 C690 0.958 . S
H705 C690 0.961 . S
H706 C690 0.960 . S
C707 C708 1.391 . S
C707 C709 1.394 . S
C707 H723 0.931 . S
C708 C707 1.391 . S
C708 C712 1.376 . S
C709 C707 1.394 . S
C709 C710 1.369 . S
C709 C713 1.531 . S
C710 C709 1.369 . S
C710 C711 1.410 . S
C710 C718 1.503 . S
C711 C710 1.410 . S
C711 C712 1.392 . S
C711 C714 1.511 . S
C712 C708 1.376 . S
C712 C711 1.392 . S
C712 H724 0.929 . S
C713 C709 1.531 . S
C713 H725 0.960 . S
C713 H726 0.962 . S
C713 H727 0.960 . S
C714 C711 1.511 . S
C714 H728 0.961 . S
C714 H729 0.961 . S
C714 H730 0.961 . S
C715 C716 1.370 . S
C715 C717 1.363 . S
C715 H731 0.931 . S
C716 C715 1.370 . S
C716 C720 1.408 . S
C717 C715 1.363 . S
C717 C718 1.370 . S
C717 C721 1.524 . S
C718 C710 1.503 . S
C718 C717 1.370 . S
C718 C719 1.403 . S
C719 C718 1.403 . S
C719 C720 1.404 . S
C719 C722 1.539 . S
C720 C716 1.408 . S
C720 C719 1.404 . S
C720 H732 0.930 . S
C721 C717 1.524 . S
C721 H733 0.956 . S
C721 H734 0.961 . S
C721 H735 0.961 . S
C722 C719 1.539 . S
C722 H736 0.958 . S
C722 H737 0.961 . S
C722 H738 0.960 . S
H723 C707 0.931 . S
H724 C712 0.929 . S
H725 C713 0.960 . S
H726 C713 0.962 . S
H727 C713 0.960 . S
H728 C714 0.961 . S
H729 C714 0.961 . S
H730 C714 0.961 . S
H731 C715 0.931 . S
H732 C720 0.930 . S
H733 C721 0.956 . S
H734 C721 0.961 . S
H735 C721 0.961 . S
H736 C722 0.958 . S
H737 C722 0.961 . S
H738 C722 0.960 . S
C739 C740 1.391 . S
C739 C741 1.394 . S
C739 H755 0.931 . S
C740 C739 1.391 . S
C740 C744 1.376 . S
C741 C739 1.394 . S
C741 C742 1.369 . S
C741 C745 1.531 . S
C742 C741 1.369 . S
C742 C743 1.410 . S
C742 C750 1.503 . S
C743 C742 1.410 . S
C743 C744 1.392 . S
C743 C746 1.511 . S
C744 C740 1.376 . S
C744 C743 1.392 . S
C744 H756 0.929 . S
C745 C741 1.531 . S
C745 H757 0.960 . S
C745 H758 0.962 . S
C745 H759 0.960 . S
C746 C743 1.511 . S
C746 H760 0.961 . S
C746 H761 0.961 . S
C746 H762 0.961 . S
C747 C748 1.370 . S
C747 C749 1.363 . S
C747 H763 0.931 . S
C748 C747 1.370 . S
C748 C752 1.408 . S
C749 C747 1.363 . S
C749 C750 1.370 . S
C749 C753 1.524 . S
C750 C742 1.503 . S
C750 C749 1.370 . S
C750 C751 1.403 . S
C751 C750 1.403 . S
C751 C752 1.404 . S
C751 C754 1.539 . S
C752 C748 1.408 . S
C752 C751 1.404 . S
C752 H764 0.930 . S
C753 C749 1.524 . S
C753 H765 0.956 . S
C753 H766 0.961 . S
C753 H767 0.961 . S
C754 C751 1.539 . S
C754 H768 0.958 . S
C754 H769 0.961 . S
C754 H770 0.960 . S
H755 C739 0.931 . S
H756 C744 0.929 . S
H757 C745 0.960 . S
H758 C745 0.962 . S
H759 C745 0.960 . S
H760 C746 0.961 . S
H761 C746 0.961 . S
H762 C746 0.961 . S
H763 C747 0.931 . S
H764 C752 0.930 . S
H765 C753 0.956 . S
H766 C753 0.961 . S
H767 C753 0.961 . S
H768 C754 0.958 . S
H769 C754 0.961 . S
H770 C754 0.960 . S
C771 C772 1.391 . S
C771 C773 1.394 . S
C771 H787 0.931 . S
C772 C771 1.391 . S
C772 C776 1.376 . S
C773 C771 1.394 . S
C773 C774 1.369 . S
C773 C777 1.531 . S
C774 C773 1.369 . S
C774 C775 1.410 . S
C774 C782 1.503 . S
C775 C774 1.410 . S
C775 C776 1.392 . S
C775 C778 1.511 . S
C776 C772 1.376 . S
C776 C775 1.392 . S
C776 H788 0.929 . S
C777 C773 1.531 . S
C777 H789 0.960 . S
C777 H790 0.962 . S
C777 H791 0.960 . S
C778 C775 1.511 . S
C778 H792 0.961 . S
C778 H793 0.961 . S
C778 H794 0.961 . S
C779 C780 1.370 . S
C779 C781 1.363 . S
C779 H795 0.931 . S
C780 C779 1.370 . S
C780 C784 1.408 . S
C781 C779 1.363 . S
C781 C782 1.370 . S
C781 C785 1.524 . S
C782 C774 1.503 . S
C782 C781 1.370 . S
C782 C783 1.403 . S
C783 C782 1.403 . S
C783 C784 1.404 . S
C783 C786 1.539 . S
C784 C780 1.408 . S
C784 C783 1.404 . S
C784 H796 0.930 . S
C785 C781 1.524 . S
C785 H797 0.956 . S
C785 H798 0.961 . S
C785 H799 0.961 . S
C786 C783 1.539 . S
C786 H800 0.958 . S
C786 H801 0.961 . S
C786 H802 0.960 . S
H787 C771 0.931 . S
H788 C776 0.929 . S
H789 C777 0.960 . S
H790 C777 0.962 . S
H791 C777 0.960 . S
H792 C778 0.961 . S
H793 C778 0.961 . S
H794 C778 0.961 . S
H795 C779 0.931 . S
H796 C784 0.930 . S
H797 C785 0.956 . S
H798 C785 0.961 . S
H799 C785 0.961 . S
H800 C786 0.958 . S
H801 C786 0.961 . S
H802 C786 0.960 . S
C803 C804 1.391 . S
C803 C805 1.394 . S
C803 H819 0.931 . S
C804 C803 1.391 . S
C804 C808 1.376 . S
C805 C803 1.394 . S
C805 C806 1.369 . S
C805 C809 1.531 . S
C806 C805 1.369 . S
C806 C807 1.410 . S
C806 C814 1.503 . S
C807 C806 1.410 . S
C807 C808 1.392 . S
C807 C810 1.511 . S
C808 C804 1.376 . S
C808 C807 1.392 . S
C808 H820 0.929 . S
C809 C805 1.531 . S
C809 H821 0.960 . S
C809 H822 0.962 . S
C809 H823 0.960 . S
C810 C807 1.511 . S
C810 H824 0.961 . S
C810 H825 0.961 . S
C810 H826 0.961 . S
C811 C812 1.370 . S
C811 C813 1.363 . S
C811 H827 0.931 . S
C812 C811 1.370 . S
C812 C816 1.408 . S
C813 C811 1.363 . S
C813 C814 1.370 . S
C813 C817 1.524 . S
C814 C806 1.503 . S
C814 C813 1.370 . S
C814 C815 1.403 . S
C815 C814 1.403 . S
C815 C816 1.404 . S
C815 C818 1.539 . S
C816 C812 1.408 . S
C816 C815 1.404 . S
C816 H828 0.930 . S
C817 C813 1.524 . S
C817 H829 0.956 . S
C817 H830 0.961 . S
C817 H831 0.961 . S
C818 C815 1.539 . S
C818 H832 0.958 . S
C818 H833 0.961 . S
C818 H834 0.960 . S
H819 C803 0.931 . S
H820 C808 0.929 . S
H821 C809 0.960 . S
H822 C809 0.962 . S
H823 C809 0.960 . S
H824 C810 0.961 . S
H825 C810 0.961 . S
H826 C810 0.961 . S
H827 C811 0.931 . S
H828 C816 0.930 . S
H829 C817 0.956 . S
H830 C817 0.961 . S
H831 C817 0.961 . S
H832 C818 0.958 . S
H833 C818 0.961 . S
H834 C818 0.960 . S
C835 C836 1.391 . S
C835 C837 1.394 . S
C835 H851 0.931 . S
C836 C835 1.391 . S
C836 C840 1.376 . S
C837 C835 1.394 . S
C837 C838 1.369 . S
C837 C841 1.531 . S
C838 C837 1.369 . S
C838 C839 1.410 . S
C838 C846 1.503 . S
C839 C838 1.410 . S
C839 C840 1.392 . S
C839 C842 1.511 . S
C840 C836 1.376 . S
C840 C839 1.392 . S
C840 H852 0.929 . S
C841 C837 1.531 . S
C841 H853 0.960 . S
C841 H854 0.962 . S
C841 H855 0.960 . S
C842 C839 1.511 . S
C842 H856 0.961 . S
C842 H857 0.961 . S
C842 H858 0.961 . S
C843 C844 1.370 . S
C843 C845 1.363 . S
C843 H859 0.931 . S
C844 C843 1.370 . S
C844 C848 1.408 . S
C845 C843 1.363 . S
C845 C846 1.370 . S
C845 C849 1.524 . S
C846 C838 1.503 . S
C846 C845 1.370 . S
C846 C847 1.403 . S
C847 C846 1.403 . S
C847 C848 1.404 . S
C847 C850 1.539 . S
C848 C844 1.408 . S
C848 C847 1.404 . S
C848 H860 0.930 . S
C849 C845 1.524 . S
C849 H861 0.956 . S
C849 H862 0.961 . S
C849 H863 0.961 . S
C850 C847 1.539 . S
C850 H864 0.958 . S
C850 H865 0.961 . S
C850 H866 0.960 . S
H851 C835 0.931 . S
H852 C840 0.929 . S
H853 C841 0.960 . S
H854 C841 0.962 . S
H855 C841 0.960 . S
H856 C842 0.961 . S
H857 C842 0.961 . S
H858 C842 0.961 . S
H859 C843 0.931 . S
H860 C848 0.930 . S
H861 C849 0.956 . S
H862 C849 0.961 . S
H863 C849 0.961 . S
H864 C850 0.958 . S
H865 C850 0.961 . S
H866 C850 0.960 . S
C867 C868 1.391 . S
C867 C869 1.394 . S
C867 H883 0.931 . S
C868 C867 1.391 . S
C868 C872 1.376 . S
C869 C867 1.394 . S
C869 C870 1.369 . S
C869 C873 1.531 . S
C870 C869 1.369 . S
C870 C871 1.410 . S
C870 C878 1.503 . S
C871 C870 1.410 . S
C871 C872 1.392 . S
C871 C874 1.511 . S
C872 C868 1.376 . S
C872 C871 1.392 . S
C872 H884 0.929 . S
C873 C869 1.531 . S
C873 H885 0.960 . S
C873 H886 0.962 . S
C873 H887 0.960 . S
C874 C871 1.511 . S
C874 H888 0.961 . S
C874 H889 0.961 . S
C874 H890 0.961 . S
C875 C876 1.370 . S
C875 C877 1.363 . S
C875 H891 0.931 . S
C876 C875 1.370 . S
C876 C880 1.408 . S
C877 C875 1.363 . S
C877 C878 1.370 . S
C877 C881 1.524 . S
C878 C870 1.503 . S
C878 C877 1.370 . S
C878 C879 1.403 . S
C879 C878 1.403 . S
C879 C880 1.404 . S
C879 C882 1.539 . S
C880 C876 1.408 . S
C880 C879 1.404 . S
C880 H892 0.930 . S
C881 C877 1.524 . S
C881 H893 0.956 . S
C881 H894 0.961 . S
C881 H895 0.961 . S
C882 C879 1.539 . S
C882 H896 0.958 . S
C882 H897 0.961 . S
C882 H898 0.960 . S
H883 C867 0.931 . S
H884 C872 0.929 . S
H885 C873 0.960 . S
H886 C873 0.962 . S
H887 C873 0.960 . S
H888 C874 0.961 . S
H889 C874 0.961 . S
H890 C874 0.961 . S
H891 C875 0.931 . S
H892 C880 0.930 . S
H893 C881 0.956 . S
H894 C881 0.961 . S
H895 C881 0.961 . S
H896 C882 0.958 . S
H897 C882 0.961 . S
H898 C882 0.960 . S
C899 C900 1.391 . S
C899 C901 1.394 . S
C899 H915 0.931 . S
C900 C899 1.391 . S
C900 C904 1.376 . S
C901 C899 1.394 . S
C901 C902 1.369 . S
C901 C905 1.531 . S
C902 C901 1.369 . S
C902 C903 1.410 . S
C902 C910 1.503 . S
C903 C902 1.410 . S
C903 C904 1.392 . S
C903 C906 1.511 . S
C904 C900 1.376 . S
C904 C903 1.392 . S
C904 H916 0.929 . S
C905 C901 1.531 . S
C905 H917 0.960 . S
C905 H918 0.962 . S
C905 H919 0.960 . S
C906 C903 1.511 . S
C906 H920 0.961 . S
C906 H921 0.961 . S
C906 H922 0.961 . S
C907 C908 1.370 . S
C907 C909 1.363 . S
C907 H923 0.931 . S
C908 C907 1.370 . S
C908 C912 1.408 . S
C909 C907 1.363 . S
C909 C910 1.370 . S
C909 C913 1.524 . S
C910 C902 1.503 . S
C910 C909 1.370 . S
C910 C911 1.403 . S
C911 C910 1.403 . S
C911 C912 1.404 . S
C911 C914 1.539 . S
C912 C908 1.408 . S
C912 C911 1.404 . S
C912 H924 0.930 . S
C913 C909 1.524 . S
C913 H925 0.956 . S
C913 H926 0.961 . S
C913 H927 0.961 . S
C914 C911 1.539 . S
C914 H928 0.958 . S
C914 H929 0.961 . S
C914 H930 0.960 . S
H915 C899 0.931 . S
H916 C904 0.929 . S
H917 C905 0.960 . S
H918 C905 0.962 . S
H919 C905 0.960 . S
H920 C906 0.961 . S
H921 C906 0.961 . S
H922 C906 0.961 . S
H923 C907 0.931 . S
H924 C912 0.930 . S
H925 C913 0.956 . S
H926 C913 0.961 . S
H927 C913 0.961 . S
H928 C914 0.958 . S
H929 C914 0.961 . S
H930 C914 0.960 . S
C931 C932 1.391 . S
C931 C933 1.394 . S
C931 H947 0.931 . S
C932 C931 1.391 . S
C932 C936 1.376 . S
C933 C931 1.394 . S
C933 C934 1.369 . S
C933 C937 1.531 . S
C934 C933 1.369 . S
C934 C935 1.410 . S
C934 C942 1.503 . S
C935 C934 1.410 . S
C935 C936 1.392 . S
C935 C938 1.511 . S
C936 C932 1.376 . S
C936 C935 1.392 . S
C936 H948 0.929 . S
C937 C933 1.531 . S
C937 H949 0.960 . S
C937 H950 0.962 . S
C937 H951 0.960 . S
C938 C935 1.511 . S
C938 H952 0.961 . S
C938 H953 0.961 . S
C938 H954 0.961 . S
C939 C940 1.370 . S
C939 C941 1.363 . S
C939 H955 0.931 . S
C940 C939 1.370 . S
C940 C944 1.408 . S
C941 C939 1.363 . S
C941 C942 1.370 . S
C941 C945 1.524 . S
C942 C934 1.503 . S
C942 C941 1.370 . S
C942 C943 1.403 . S
C943 C942 1.403 . S
C943 C944 1.404 . S
C943 C946 1.539 . S
C944 C940 1.408 . S
C944 C943 1.404 . S
C944 H956 0.930 . S
C945 C941 1.524 . S
C945 H957 0.956 . S
C945 H958 0.961 . S
C945 H959 0.961 . S
C946 C943 1.539 . S
C946 H960 0.958 . S
C946 H961 0.961 . S
C946 H962 0.960 . S
H947 C931 0.931 . S
H948 C936 0.929 . S
H949 C937 0.960 . S
H950 C937 0.962 . S
H951 C937 0.960 . S
H952 C938 0.961 . S
H953 C938 0.961 . S
H954 C938 0.961 . S
H955 C939 0.931 . S
H956 C944 0.930 . S
H957 C945 0.956 . S
H958 C945 0.961 . S
H959 C945 0.961 . S
H960 C946 0.958 . S
H961 C946 0.961 . S
H962 C946 0.960 . S
C963 C964 1.391 . S
C963 C965 1.394 . S
C963 H979 0.931 . S
C964 C963 1.391 . S
C964 C968 1.376 . S
C965 C963 1.394 . S
C965 C966 1.369 . S
C965 C969 1.531 . S
C966 C965 1.369 . S
C966 C967 1.410 . S
C966 C974 1.503 . S
C967 C966 1.410 . S
C967 C968 1.392 . S
C967 C970 1.511 . S
C968 C964 1.376 . S
C968 C967 1.392 . S
C968 H980 0.929 . S
C969 C965 1.531 . S
C969 H981 0.960 . S
C969 H982 0.962 . S
C969 H983 0.960 . S
C970 C967 1.511 . S
C970 H984 0.961 . S
C970 H985 0.961 . S
C970 H986 0.961 . S
C971 C972 1.370 . S
C971 C973 1.363 . S
C971 H987 0.931 . S
C972 C971 1.370 . S
C972 C976 1.408 . S
C973 C971 1.363 . S
C973 C974 1.370 . S
C973 C977 1.524 . S
C974 C966 1.503 . S
C974 C973 1.370 . S
C974 C975 1.403 . S
C975 C974 1.403 . S
C975 C976 1.404 . S
C975 C978 1.539 . S
C976 C972 1.408 . S
C976 C975 1.404 . S
C976 H988 0.930 . S
C977 C973 1.524 . S
C977 H989 0.956 . S
C977 H990 0.961 . S
C977 H991 0.961 . S
C978 C975 1.539 . S
C978 H992 0.958 . S
C978 H993 0.961 . S
C978 H994 0.960 . S
H979 C963 0.931 . S
H980 C968 0.929 . S
H981 C969 0.960 . S
H982 C969 0.962 . S
H983 C969 0.960 . S
H984 C970 0.961 . S
H985 C970 0.961 . S
H986 C970 0.961 . S
H987 C971 0.931 . S
H988 C976 0.930 . S
H989 C977 0.956 . S
H990 C977 0.961 . S
H991 C977 0.961 . S
H992 C978 0.958 . S
H993 C978 0.961 . S
H994 C978 0.960 . S
C995 C996 1.391 . S
C995 C997 1.394 . S
C995 H1011 0.931 . S
C996 C995 1.391 . S
C996 C1000 1.376 . S
C997 C995 1.394 . S
C997 C998 1.369 . S
C997 C1001 1.531 . S
C998 C997 1.369 . S
C998 C999 1.410 . S
C998 C1006 1.503 . S
C999 C998 1.410 . S
C999 C1000 1.392 . S
C999 C1002 1.511 . S
C1000 C996 1.376 . S
C1000 C999 1.392 . S
C1000 H1012 0.929 . S
C1001 C997 1.531 . S
C1001 H1013 0.960 . S
C1001 H1014 0.962 . S
C1001 H1015 0.960 . S
C1002 C999 1.511 . S
C1002 H1016 0.961 . S
C1002 H1017 0.961 . S
C1002 H1018 0.961 . S
C1003 C1004 1.370 . S
C1003 C1005 1.363 . S
C1003 H1019 0.931 . S
C1004 C1003 1.370 . S
C1004 C1008 1.408 . S
C1005 C1003 1.363 . S
C1005 C1006 1.370 . S
C1005 C1009 1.524 . S
C1006 C998 1.503 . S
C1006 C1005 1.370 . S
C1006 C1007 1.403 . S
C1007 C1006 1.403 . S
C1007 C1008 1.404 . S
C1007 C1010 1.539 . S
C1008 C1004 1.408 . S
C1008 C1007 1.404 . S
C1008 H1020 0.930 . S
C1009 C1005 1.524 . S
C1009 H1021 0.956 . S
C1009 H1022 0.961 . S
C1009 H1023 0.961 . S
C1010 C1007 1.539 . S
C1010 H1024 0.958 . S
C1010 H1025 0.961 . S
C1010 H1026 0.960 . S
H1011 C995 0.931 . S
H1012 C1000 0.929 . S
H1013 C1001 0.960 . S
H1014 C1001 0.962 . S
H1015 C1001 0.960 . S
H1016 C1002 0.961 . S
H1017 C1002 0.961 . S
H1018 C1002 0.961 . S
H1019 C1003 0.931 . S
H1020 C1008 0.930 . S
H1021 C1009 0.956 . S
H1022 C1009 0.961 . S
H1023 C1009 0.961 . S
H1024 C1010 0.958 . S
H1025 C1010 0.961 . S
H1026 C1010 0.960 . S
C1027 C1028 1.391 . S
C1027 C1029 1.394 . S
C1027 H1043 0.931 . S
C1028 C1027 1.391 . S
C1028 C1032 1.376 . S
C1029 C1027 1.394 . S
C1029 C1030 1.369 . S
C1029 C1033 1.531 . S
C1030 C1029 1.369 . S
C1030 C1031 1.410 . S
C1030 C1038 1.503 . S
C1031 C1030 1.410 . S
C1031 C1032 1.392 . S
C1031 C1034 1.511 . S
C1032 C1028 1.376 . S
C1032 C1031 1.392 . S
C1032 H1044 0.929 . S
C1033 C1029 1.531 . S
C1033 H1045 0.960 . S
C1033 H1046 0.962 . S
C1033 H1047 0.960 . S
C1034 C1031 1.511 . S
C1034 H1048 0.961 . S
C1034 H1049 0.961 . S
C1034 H1050 0.961 . S
C1035 C1036 1.370 . S
C1035 C1037 1.363 . S
C1035 H1051 0.931 . S
C1036 C1035 1.370 . S
C1036 C1040 1.408 . S
C1037 C1035 1.363 . S
C1037 C1038 1.370 . S
C1037 C1041 1.524 . S
C1038 C1030 1.503 . S
C1038 C1037 1.370 . S
C1038 C1039 1.403 . S
C1039 C1038 1.403 . S
C1039 C1040 1.404 . S
C1039 C1042 1.539 . S
C1040 C1036 1.408 . S
C1040 C1039 1.404 . S
C1040 H1052 0.930 . S
C1041 C1037 1.524 . S
C1041 H1053 0.956 . S
C1041 H1054 0.961 . S
C1041 H1055 0.961 . S
C1042 C1039 1.539 . S
C1042 H1056 0.958 . S
C1042 H1057 0.961 . S
C1042 H1058 0.960 . S
H1043 C1027 0.931 . S
H1044 C1032 0.929 . S
H1045 C1033 0.960 . S
H1046 C1033 0.962 . S
H1047 C1033 0.960 . S
H1048 C1034 0.961 . S
H1049 C1034 0.961 . S
H1050 C1034 0.961 . S
H1051 C1035 0.931 . S
H1052 C1040 0.930 . S
H1053 C1041 0.956 . S
H1054 C1041 0.961 . S
H1055 C1041 0.961 . S
H1056 C1042 0.958 . S
H1057 C1042 0.961 . S
H1058 C1042 0.960 . S
C1059 C1060 1.391 . S
C1059 C1061 1.394 . S
C1059 H1075 0.931 . S
C1060 C1059 1.391 . S
C1060 C1064 1.376 . S
C1061 C1059 1.394 . S
C1061 C1062 1.369 . S
C1061 C1065 1.531 . S
C1062 C1061 1.369 . S
C1062 C1063 1.410 . S
C1062 C1070 1.503 . S
C1063 C1062 1.410 . S
C1063 C1064 1.392 . S
C1063 C1066 1.511 . S
C1064 C1060 1.376 . S
C1064 C1063 1.392 . S
C1064 H1076 0.929 . S
C1065 C1061 1.531 . S
C1065 H1077 0.960 . S
C1065 H1078 0.962 . S
C1065 H1079 0.960 . S
C1066 C1063 1.511 . S
C1066 H1080 0.961 . S
C1066 H1081 0.961 . S
C1066 H1082 0.961 . S
C1067 C1068 1.370 . S
C1067 C1069 1.363 . S
C1067 H1083 0.931 . S
C1068 C1067 1.370 . S
C1068 C1072 1.408 . S
C1069 C1067 1.363 . S
C1069 C1070 1.370 . S
C1069 C1073 1.524 . S
C1070 C1062 1.503 . S
C1070 C1069 1.370 . S
C1070 C1071 1.403 . S
C1071 C1070 1.403 . S
C1071 C1072 1.404 . S
C1071 C1074 1.539 . S
C1072 C1068 1.408 . S
C1072 C1071 1.404 . S
C1072 H1084 0.930 . S
C1073 C1069 1.524 . S
C1073 H1085 0.956 . S
C1073 H1086 0.961 . S
C1073 H1087 0.961 . S
C1074 C1071 1.539 . S
C1074 H1088 0.958 . S
C1074 H1089 0.961 . S
C1074 H1090 0.960 . S
H1075 C1059 0.931 . S
H1076 C1064 0.929 . S
H1077 C1065 0.960 . S
H1078 C1065 0.962 . S
H1079 C1065 0.960 . S
H1080 C1066 0.961 . S
H1081 C1066 0.961 . S
H1082 C1066 0.961 . S
H1083 C1067 0.931 . S
H1084 C1072 0.930 . S
H1085 C1073 0.956 . S
H1086 C1073 0.961 . S
H1087 C1073 0.961 . S
H1088 C1074 0.958 . S
H1089 C1074 0.961 . S
H1090 C1074 0.960 . S
C1091 C1092 1.391 . S
C1091 C1093 1.394 . S
C1091 H1107 0.931 . S
C1092 C1091 1.391 . S
C1092 C1096 1.376 . S
C1093 C1091 1.394 . S
C1093 C1094 1.369 . S
C1093 C1097 1.531 . S
C1094 C1093 1.369 . S
C1094 C1095 1.410 . S
C1094 C1102 1.503 . S
C1095 C1094 1.410 . S
C1095 C1096 1.392 . S
C1095 C1098 1.511 . S
C1096 C1092 1.376 . S
C1096 C1095 1.392 . S
C1096 H1108 0.929 . S
C1097 C1093 1.531 . S
C1097 H1109 0.960 . S
C1097 H1110 0.962 . S
C1097 H1111 0.960 . S
C1098 C1095 1.511 . S
C1098 H1112 0.961 . S
C1098 H1113 0.961 . S
C1098 H1114 0.961 . S
C1099 C1100 1.370 . S
C1099 C1101 1.363 . S
C1099 H1115 0.931 . S
C1100 C1099 1.370 . S
C1100 C1104 1.408 . S
C1101 C1099 1.363 . S
C1101 C1102 1.370 . S
C1101 C1105 1.524 . S
C1102 C1094 1.503 . S
C1102 C1101 1.370 . S
C1102 C1103 1.403 . S
C1103 C1102 1.403 . S
C1103 C1104 1.404 . S
C1103 C1106 1.539 . S
C1104 C1100 1.408 . S
C1104 C1103 1.404 . S
C1104 H1116 0.930 . S
C1105 C1101 1.524 . S
C1105 H1117 0.956 . S
C1105 H1118 0.961 . S
C1105 H1119 0.961 . S
C1106 C1103 1.539 . S
C1106 H1120 0.958 . S
C1106 H1121 0.961 . S
C1106 H1122 0.960 . S
H1107 C1091 0.931 . S
H1108 C1096 0.929 . S
H1109 C1097 0.960 . S
H1110 C1097 0.962 . S
H1111 C1097 0.960 . S
H1112 C1098 0.961 . S
H1113 C1098 0.961 . S
H1114 C1098 0.961 . S
H1115 C1099 0.931 . S
H1116 C1104 0.930 . S
H1117 C1105 0.956 . S
H1118 C1105 0.961 . S
H1119 C1105 0.961 . S
H1120 C1106 0.958 . S
H1121 C1106 0.961 . S
H1122 C1106 0.960 . S
C1123 C1124 1.391 . S
C1123 C1125 1.394 . S
C1123 H1139 0.931 . S
C1124 C1123 1.391 . S
C1124 C1128 1.376 . S
C1125 C1123 1.394 . S
C1125 C1126 1.369 . S
C1125 C1129 1.531 . S
C1126 C1125 1.369 . S
C1126 C1127 1.410 . S
C1126 C1134 1.503 . S
C1127 C1126 1.410 . S
C1127 C1128 1.392 . S
C1127 C1130 1.511 . S
C1128 C1124 1.376 . S
C1128 C1127 1.392 . S
C1128 H1140 0.929 . S
C1129 C1125 1.531 . S
C1129 H1141 0.960 . S
C1129 H1142 0.962 . S
C1129 H1143 0.960 . S
C1130 C1127 1.511 . S
C1130 H1144 0.961 . S
C1130 H1145 0.961 . S
C1130 H1146 0.961 . S
C1131 C1132 1.370 . S
C1131 C1133 1.363 . S
C1131 H1147 0.931 . S
C1132 C1131 1.370 . S
C1132 C1136 1.408 . S
C1133 C1131 1.363 . S
C1133 C1134 1.370 . S
C1133 C1137 1.524 . S
C1134 C1126 1.503 . S
C1134 C1133 1.370 . S
C1134 C1135 1.403 . S
C1135 C1134 1.403 . S
C1135 C1136 1.404 . S
C1135 C1138 1.539 . S
C1136 C1132 1.408 . S
C1136 C1135 1.404 . S
C1136 H1148 0.930 . S
C1137 C1133 1.524 . S
C1137 H1149 0.956 . S
C1137 H1150 0.961 . S
C1137 H1151 0.961 . S
C1138 C1135 1.539 . S
C1138 H1152 0.958 . S
C1138 H1153 0.961 . S
C1138 H1154 0.960 . S
H1139 C1123 0.931 . S
H1140 C1128 0.929 . S
H1141 C1129 0.960 . S
H1142 C1129 0.962 . S
H1143 C1129 0.960 . S
H1144 C1130 0.961 . S
H1145 C1130 0.961 . S
H1146 C1130 0.961 . S
H1147 C1131 0.931 . S
H1148 C1136 0.930 . S
H1149 C1137 0.956 . S
H1150 C1137 0.961 . S
H1151 C1137 0.961 . S
H1152 C1138 0.958 . S
H1153 C1138 0.961 . S
H1154 C1138 0.960 . S
C396 C312 1.058 . S
C388 C1 1.115 . S
C428 C348 1.665 . S
C420 C37 1.769 . S
C460 C313 1.404 . S
C452 C103 1.402 . S
C492 C343 1.560 . S
C484 C139 1.558 . S
C524 C310 1.488 . S
C516 C145 1.494 . S
C548 C205 1.699 . S
C556 C346 1.703 . S
C580 C247 1.178 . S
C588 C315 1.110 . S
C620 C345 1.444 . S
C612 C283 1.454 . S
C652 C349 1.434 . S
C644 C25 1.422 . S
C684 C314 1.485 . S
C676 C67 1.534 . S
C716 C342 1.693 . S
C708 C97 1.700 . S
C748 C311 1.141 . S
C740 C109 1.202 . S
C780 C344 1.663 . S
C772 C169 1.717 . S
C804 C181 1.412 . S
C812 C309 1.398 . S
C836 C217 1.544 . S
C844 C347 1.524 . S
C876 C316 1.049 . S
C868 C277 1.104 . S
C908 C378 1.681 . S
C900 C31 1.750 . S
C932 C175 2.003 . S
C940 C381 1.910 . S
C972 C380 1.697 . S
C964 C211 1.765 . S
C996 C241 2.033 . S
C1004 C379 2.078 . S
C1036 C382 1.656 . S
C1028 C253 1.753 . S
C1060 C73 1.734 . S
C1068 C376 1.688 . S
C1100 C375 2.065 . S
C1092 C133 2.061 . S
C1124 C61 2.024 . S
C1132 C377 1.881 . S
