# Generated by pormake.
# Topology anh, (6,3)-cn, num edge types: 1
# Building blocks:
#     Node 0, Type 0, BuildingBlock: BETFAJ_clean_sbu_0, # of connection points: 6
#     Node 1, Type 0, BuildingBlock: BETFAJ_clean_sbu_0, # of connection points: 6
#     Node 2, Type 0, BuildingBlock: BETFAJ_clean_sbu_0, # of connection points: 6
#     Node 3, Type 1, BuildingBlock: KAKCAD_clean_linker_0, # of connection points: 3
#     Node 4, Type 1, BuildingBlock: KAKCAD_clean_linker_0, # of connection points: 3
#     Node 5, Type 1, BuildingBlock: KAKCAD_clean_linker_0, # of connection points: 3
#     Node 6, Type 1, BuildingBlock: KAKCAD_clean_linker_0, # of connection points: 3
#     Node 7, Type 1, BuildingBlock: KAKCAD_clean_linker_0, # of connection points: 3
#     Node 8, Type 1, BuildingBlock: KAKCAD_clean_linker_0, # of connection points: 3
#     Edge 9, Type (0, 1), BuildingBlock: XIVTED_clean_linker_0, # of connection points: 2
#     Edge 10, Type (0, 1), BuildingBlock: XIVTED_clean_linker_0, # of connection points: 2
#     Edge 11, Type (0, 1), BuildingBlock: XIVTED_clean_linker_0, # of connection points: 2
#     Edge 12, Type (0, 1), BuildingBlock: XIVTED_clean_linker_0, # of connection points: 2
#     Edge 13, Type (0, 1), BuildingBlock: XIVTED_clean_linker_0, # of connection points: 2
#     Edge 14, Type (0, 1), BuildingBlock: XIVTED_clean_linker_0, # of connection points: 2
#     Edge 15, Type (0, 1), BuildingBlock: XIVTED_clean_linker_0, # of connection points: 2
#     Edge 16, Type (0, 1), BuildingBlock: XIVTED_clean_linker_0, # of connection points: 2
#     Edge 17, Type (0, 1), BuildingBlock: XIVTED_clean_linker_0, # of connection points: 2
#     Edge 18, Type (0, 1), BuildingBlock: XIVTED_clean_linker_0, # of connection points: 2
#     Edge 19, Type (0, 1), BuildingBlock: XIVTED_clean_linker_0, # of connection points: 2
#     Edge 20, Type (0, 1), BuildingBlock: XIVTED_clean_linker_0, # of connection points: 2
#     Edge 21, Type (0, 1), BuildingBlock: XIVTED_clean_linker_0, # of connection points: 2
#     Edge 22, Type (0, 1), BuildingBlock: XIVTED_clean_linker_0, # of connection points: 2
#     Edge 23, Type (0, 1), BuildingBlock: XIVTED_clean_linker_0, # of connection points: 2
#     Edge 24, Type (0, 1), BuildingBlock: XIVTED_clean_linker_0, # of connection points: 2
#     Edge 25, Type (0, 1), BuildingBlock: XIVTED_clean_linker_0, # of connection points: 2
#     Edge 26, Type (0, 1), BuildingBlock: XIVTED_clean_linker_0, # of connection points: 2
# Relax obj value: 0.182
# Max RMSD: 0.208
# Mean RMSD: 0.155
data_MOF--net-anh--node1-BETFAJ_clean_sbu_0--node2-KAKCAD_clean_linker_0--edge1-XIVTED_clean_linker_0
_symmetry_space_group_name_H-M    P1
_symmetry_Int_Tables_number       1
_symmetry_cell_setting            triclinic
loop_
_symmetry_equiv_pos_as_xyz
'x, y, z'
_cell_length_a     36.607632
_cell_length_b     44.368174
_cell_length_c     66.884059
_cell_angle_alpha  93.116845
_cell_angle_beta   88.727995
_cell_angle_gamma 128.60079
loop_
_atom_site_label
_atom_site_type_symbol
_atom_site_fract_x
_atom_site_fract_y
_atom_site_fract_z
_atom_type_partial_charge
Sm0 Sm 0.14263 0.54111 0.14402 0.0
Sm1 Sm 0.08682 0.57132 0.16173 0.0
C2 C 0.17688 0.51487 0.12052 0.0
C3 C 0.17423 0.48029 0.12051 0.0
C4 C 0.21551 0.48475 0.12207 0.0
C5 C 0.21364 0.45251 0.1233 0.0
C6 C 0.17042 0.41513 0.12281 0.0
C7 C 0.12908 0.41058 0.12096 0.0
C8 C 0.13092 0.44288 0.11997 0.0
C9 C 0.13934 0.54042 0.18539 0.0
C10 C 0.19836 0.63305 0.15582 0.0
C11 C 1.03606 0.58629 0.18169 0.0
C12 C 0.98967 0.56348 0.19069 0.0
C13 C 0.9734 0.58194 0.20012 0.0
C14 C 0.92636 0.5605 0.20534 0.0
C15 C 0.89481 0.52035 0.20086 0.0
C16 C 0.91247 0.50182 0.19278 0.0
C17 C 0.95949 0.52322 0.18786 0.0
C18 C 0.10422 0.57639 0.12132 0.0
C19 C 1.03186 0.47668 0.15469 0.0
O20 O 0.20121 0.54074 0.13523 0.0
O21 O 0.13813 0.50918 0.11634 0.0
O22 O 0.12333 0.55105 0.17383 0.0
O23 O 0.15974 0.52951 0.17478 0.0
O24 O 0.19529 0.60781 0.14283 0.0
O25 O 0.16329 0.62374 0.16743 0.0
O26 O 0.06766 0.58608 0.19031 0.0
O27 O 1.0359 0.5826 0.16213 0.0
O28 O 0.09263 0.54917 0.13188 0.0
O29 O 0.10539 0.60243 0.13193 0.0
O30 O 1.03031 0.5047 0.16117 0.0
O31 O 0.06987 0.48324 0.1472 0.0
H32 H 0.24924 0.51326 0.12254 0.0
H33 H 0.2461 0.4568 0.12438 0.0
H34 H 0.09535 0.38209 0.1206 0.0
H35 H 0.09838 0.43849 0.11897 0.0
H36 H 0.99648 0.61307 0.20257 0.0
H37 H 0.91434 0.57566 0.21199 0.0
H38 H 0.88957 0.47115 0.18884 0.0
H39 H 0.97166 0.50858 0.18073 0.0
Sm40 Sm 0.62305 0.02454 0.48522 0.0
Sm41 Sm 0.55896 0.04376 0.47725 0.0
C42 C 0.66472 0.99749 0.49863 0.0
C43 C 0.65566 0.96049 0.50018 0.0
C44 C 0.68721 0.95946 0.51091 0.0
C45 C 0.67973 0.92471 0.51236 0.0
C46 C 0.64044 0.89028 0.50311 0.0
C47 C 0.6086 0.89143 0.49246 0.0
C48 C 0.61624 0.92632 0.49097 0.0
C49 C 0.6187 0.03703 0.44597 0.0
C50 C 0.51023 0.95398 0.47599 0.0
C51 C 0.51973 0.07393 0.46561 0.0
C52 C 0.52863 0.11057 0.4709 0.0
C53 C 0.50062 0.11853 0.46286 0.0
C54 C 0.50812 0.15284 0.46864 0.0
C55 C 0.54372 0.17963 0.4826 0.0
C56 C 0.57221 0.17167 0.4903 0.0
C57 C 0.56462 0.13743 0.48455 0.0
C58 C 0.56556 0.03322 0.51672 0.0
C59 C 0.67261 0.11474 0.48463 0.0
O60 O 0.6396 0.00309 0.50993 0.0
O61 O 0.67018 0.00945 0.48057 0.0
O62 O 0.58395 0.01776 0.45727 0.0
O63 O 0.65705 0.0491 0.45495 0.0
O64 O 0.54878 0.96478 0.48509 0.0
O65 O 0.50795 0.9795 0.46827 0.0
O66 O 0.5527 0.07664 0.4556 0.0
O67 O 0.50345 0.05003 0.48004 0.0
O68 O 0.59923 0.05166 0.5049 0.0
O69 O 0.52685 0.02118 0.50817 0.0
O70 O 0.63253 0.10325 0.47697 0.0
O71 O 0.67698 0.08991 0.49167 0.0
H72 H 0.71773 0.98559 0.51816 0.0
H73 H 0.70448 0.92475 0.52097 0.0
H74 H 0.57821 0.86551 0.48503 0.0
H75 H 0.59162 0.92672 0.48255 0.0
H76 H 0.47257 0.09799 0.45235 0.0
H77 H 0.4853 0.15792 0.46258 0.0
H78 H 0.60041 0.19191 0.50081 0.0
H79 H 0.58656 0.1317 0.49093 0.0
Sm80 Sm 0.63143 0.56344 0.84217 0.0
Sm81 Sm 0.5629 0.47618 0.84223 0.0
C82 C 0.67829 0.63768 0.83605 0.0
C83 C 0.66858 0.66449 0.83237 0.0
C84 C 0.6281 0.65214 0.82197 0.0
C85 C 0.62022 0.67841 0.81824 0.0
C86 C 0.65259 0.71748 0.82492 0.0
C87 C 0.69261 0.72939 0.83567 0.0
C88 C 0.70052 0.70316 0.83931 0.0
C89 C 0.61412 0.53263 0.87901 0.0
C90 C 0.5177 0.51934 0.84433 0.0
C91 C 0.51727 0.40232 0.84882 0.0
C92 C 0.52418 0.37315 0.84468 0.0
C93 C 0.5649 0.37937 0.85101 0.0
C94 C 0.57151 0.35204 0.84603 0.0
C95 C 0.53778 0.31822 0.83449 0.0
C96 C 0.49678 0.31181 0.82849 0.0
C97 C 0.49 0.33894 0.83361 0.0
C98 C 0.57717 0.50475 0.80512 0.0
C99 C 0.67796 0.52119 0.84011 0.0
O100 O 0.66671 0.61171 0.82173 0.0
O101 O 0.66872 0.62405 0.85389 0.0
O102 O 0.58422 0.52217 0.86564 0.0
O103 O 0.65576 0.56143 0.8735 0.0
O104 O 0.55905 0.5494 0.8381 0.0
O105 O 0.51152 0.48842 0.85011 0.0
O106 O 0.54514 0.43036 0.8621 0.0
O107 O 0.50922 0.41405 0.83322 0.0
O108 O 0.60906 0.51719 0.81797 0.0
O109 O 0.53689 0.47522 0.81126 0.0
O110 O 0.63544 0.48929 0.84385 0.0
O111 O 0.68536 0.55363 0.83672 0.0
H112 H 0.60285 0.62231 0.81654 0.0
H113 H 0.58928 0.66826 0.80975 0.0
H114 H 0.71783 0.75902 0.84139 0.0
H115 H 0.73175 0.71313 0.84751 0.0
H116 H 0.59199 0.40557 0.85951 0.0
H117 H 0.60361 0.35789 0.85071 0.0
H118 H 0.46995 0.28581 0.81978 0.0
H119 H 0.45826 0.33344 0.82865 0.0
C120 C 0.61738 0.08701 0.28872 0.0
C121 C 0.61002 0.05634 0.29837 0.0
C122 C 0.61929 0.08771 0.26782 0.0
C123 C 0.61466 0.05804 0.25617 0.0
C124 C 0.6082 0.02779 0.26601 0.0
C125 C 0.60546 0.02678 0.28683 0.0
C126 C 0.61602 0.0582 0.23387 0.0
C127 C 0.64589 0.09281 0.22403 0.0
C128 C 0.64738 0.09294 0.20297 0.0
C129 C 0.61901 0.05751 0.19165 0.0
C130 C 0.58949 0.02257 0.20134 0.0
C131 C 0.58766 0.0234 0.22233 0.0
C132 C 0.55982 0.98449 0.19016 0.0
C133 C 0.52745 0.97621 0.17546 0.0
C134 C 0.55926 0.95445 0.19636 0.0
C135 C 0.52461 0.91645 0.18938 0.0
C136 C 0.48981 0.90758 0.17597 0.0
C137 C 0.67998 0.13035 0.19321 0.0
C138 C 0.68524 0.1631 0.20075 0.0
C139 C 0.70855 0.13448 0.17742 0.0
C140 C 0.74309 0.17089 0.17002 0.0
C141 C 0.74972 0.20395 0.1782 0.0
C142 C 0.71968 0.19939 0.19339 0.0
C143 C 0.49263 0.93793 0.16838 0.0
H144 H 0.62083 0.11009 0.29734 0.0
H145 H 0.62366 0.11118 0.2608 0.0
H146 H 0.60571 0.00495 0.25766 0.0
H147 H 0.60058 0.00317 0.29395 0.0
H148 H 0.66915 0.11975 0.2328 0.0
H149 H 0.56334 0.99654 0.22968 0.0
H150 H 0.62007 0.05705 0.17544 0.0
H151 H 0.52707 0.99885 0.1705 0.0
H152 H 0.58424 0.96014 0.20747 0.0
H153 H 0.52368 0.89368 0.19523 0.0
H154 H 0.66336 0.16082 0.21273 0.0
H155 H 0.70551 0.10986 0.17133 0.0
H156 H 0.46613 0.93181 0.15805 0.0
H157 H 0.72387 0.22409 0.20022 0.0
H158 H 0.76511 0.17322 0.15809 0.0
C159 C 0.58869 0.56034 0.64857 0.0
C160 C 0.6163 0.55416 0.65896 0.0
C161 C 0.58851 0.55961 0.62768 0.0
C162 C 0.61606 0.55281 0.61663 0.0
C163 C 0.64469 0.5477 0.62703 0.0
C164 C 0.64483 0.5484 0.64796 0.0
C165 C 0.61365 0.54981 0.59437 0.0
C166 C 0.61114 0.57491 0.58376 0.0
C167 C 0.60661 0.57119 0.56277 0.0
C168 C 0.60524 0.54211 0.5523 0.0
C169 C 0.60816 0.51692 0.56268 0.0
C170 C 0.61224 0.52098 0.58368 0.0
C171 C 0.60563 0.48548 0.55188 0.0
C172 C 0.57166 0.46172 0.53682 0.0
C173 C 0.63564 0.47764 0.55744 0.0
C174 C 0.63066 0.44593 0.54873 0.0
C175 C 0.59546 0.42116 0.53427 0.0
C176 C 0.60372 0.59812 0.55202 0.0
C177 C 0.57645 0.60829 0.55968 0.0
C178 C 0.62994 0.61541 0.53474 0.0
C179 C 0.63038 0.64345 0.52582 0.0
C180 C 0.60448 0.65469 0.53395 0.0
C181 C 0.57686 0.63623 0.55078 0.0
C182 C 0.5666 0.42985 0.52811 0.0
H183 H 0.56675 0.56535 0.65659 0.0
H184 H 0.56576 0.56334 0.62016 0.0
H185 H 0.66677 0.54288 0.61897 0.0
H186 H 0.66623 0.54324 0.65548 0.0
H187 H 0.61349 0.5979 0.59187 0.0
H188 H 0.61268 0.50071 0.59179 0.0
H189 H 0.60174 0.539 0.53612 0.0
H190 H 0.54779 0.46685 0.53233 0.0
H191 H 0.66272 0.49585 0.56873 0.0
H192 H 0.65419 0.44061 0.55349 0.0
H193 H 0.55532 0.59507 0.57282 0.0
H194 H 0.65141 0.60827 0.52851 0.0
H195 H 0.53892 0.4112 0.51711 0.0
H196 H 0.55681 0.64436 0.55758 0.0
H197 H 0.65157 0.65675 0.51271 0.0
C198 C 0.15712 0.58564 0.96035 0.0
C199 C 0.11601 0.56185 0.97137 0.0
C200 C 0.15601 0.58092 0.93945 0.0
C201 C 0.11367 0.55263 0.92917 0.0
C202 C 0.07251 0.52921 0.94019 0.0
C203 C 0.0737 0.53367 0.96106 0.0
C204 C 0.11223 0.54724 0.90702 0.0
C205 C 0.14515 0.54563 0.89712 0.0
C206 C 0.1433 0.53929 0.8762 0.0
C207 C 0.1073 0.53442 0.86503 0.0
C208 C 0.0748 0.5373 0.87486 0.0
C209 C 0.07755 0.54333 0.89577 0.0
C210 C 1.03833 0.5357 0.86408 0.0
C211 C 1.03864 0.56756 0.86608 0.0
C212 C 0.9989 0.5009 0.85525 0.0
C213 C 0.95976 0.49763 0.84941 0.0
C214 C 0.95927 0.52917 0.85221 0.0
C215 C 0.18022 0.53858 0.86682 0.0
C216 C 0.22757 0.56943 0.87111 0.0
C217 C 0.16897 0.50538 0.85633 0.0
C218 C 0.20421 0.50245 0.85114 0.0
C219 C 0.25156 0.53283 0.85615 0.0
C220 C 0.26267 0.56668 0.8658 0.0
C221 C 0.99987 0.56443 0.86018 0.0
H222 H 0.19028 0.60743 0.96791 0.0
H223 H 0.18821 0.59956 0.93132 0.0
H224 H 1.03944 0.507 0.93269 0.0
H225 H 1.04138 0.51514 0.96913 0.0
H226 H 0.1719 0.54848 0.90581 0.0
H227 H 1.05262 0.54539 0.90336 0.0
H228 H 0.10563 0.52987 0.84889 0.0
H229 H 0.06824 0.59457 0.87315 0.0
H230 H 0.99736 0.47569 0.85386 0.0
H231 H 0.92949 0.47013 0.84312 0.0
H232 H 0.23733 0.59528 0.87932 0.0
H233 H 0.13279 0.48097 0.85303 0.0
H234 H 1.00097 0.58926 0.86289 0.0
H235 H 0.29841 0.59056 0.87014 0.0
H236 H 0.19426 0.47609 0.84352 0.0
C237 C 1.06014 0.49966 0.34356 0.0
C238 C 0.10371 0.51844 0.33427 0.0
C239 C 1.05712 0.49982 0.36444 0.0
C240 C 0.09764 0.51894 0.37647 0.0
C241 C 0.14106 0.5371 0.36718 0.0
C242 C 0.14407 0.53685 0.34634 0.0
C243 C 0.09503 0.52144 0.39863 0.0
C244 C 1.05993 0.48917 0.40909 0.0
C245 C 1.05692 0.49174 0.43005 0.0
C246 C 0.09011 0.5273 0.44062 0.0
C247 C 0.12483 0.56014 0.4302 0.0
C248 C 0.12717 0.5567 0.40931 0.0
C249 C 0.15812 0.59881 0.44053 0.0
C250 C 0.16526 0.63085 0.43273 0.0
C251 C 0.18586 0.60476 0.45683 0.0
C252 C 0.22171 0.64236 0.46448 0.0
C253 C 0.23007 0.67458 0.45607 0.0
C254 C 1.01788 0.45723 0.44045 0.0
C255 C 0.97225 0.43503 0.43248 0.0
C256 C 1.02591 0.445 0.45758 0.0
C257 C 0.98923 0.41046 0.46611 0.0
C258 C 0.94374 0.38781 0.4578 0.0
C259 C 0.9357 0.40084 0.44103 0.0
C260 C 0.20073 0.66817 0.44035 0.0
H261 H 1.02835 0.48486 0.33468 0.0
H262 H 1.0232 0.48582 0.37117 0.0
H263 H 0.17285 0.55175 0.37605 0.0
H264 H 0.17822 0.5519 0.33968 0.0
H265 H 1.03515 0.46174 0.40091 0.0
H266 H 0.15388 0.58194 0.40126 0.0
H267 H 0.08768 0.52983 0.45671 0.0
H268 H 0.14414 0.62708 0.42025 0.0
H269 H 0.18113 0.58054 0.46309 0.0
H270 H 0.24331 0.64623 0.47675 0.0
H271 H 0.96486 0.4439 0.4194 0.0
H272 H 1.06077 0.46148 0.464 0.0
H273 H 0.20632 0.69211 0.43329 0.0
H274 H 0.90133 0.38399 0.43408 0.0
H275 H 0.99649 0.40138 0.47912 0.0
C276 C 0.56846 0.98122 0.67327 0.0
C277 C 0.59752 0.01575 0.66321 0.0
C278 C 0.5705 0.98164 0.69414 0.0
C279 C 0.60139 0.01662 0.70539 0.0
C280 C 0.63098 0.05103 0.69531 0.0
C281 C 0.62914 0.0506 0.67446 0.0
C282 C 0.60195 0.01753 0.72761 0.0
C283 C 0.60135 0.99036 0.73771 0.0
C284 C 0.60225 0.9914 0.75876 0.0
C285 C 0.60362 0.02011 0.76973 0.0
C286 C 0.604 0.04746 0.7598 0.0
C287 C 0.60301 0.04576 0.73876 0.0
C288 C 0.60429 0.07748 0.77105 0.0
C289 C 0.57504 0.06815 0.78754 0.0
C290 C 0.63147 0.11522 0.76435 0.0
C291 C 0.62748 0.14229 0.77311 0.0
C292 C 0.5965 0.13242 0.7889 0.0
C293 C 0.60304 0.96296 0.76906 0.0
C294 C 0.57373 0.92385 0.76236 0.0
C295 C 0.63486 0.97498 0.78485 0.0
C296 C 0.63848 0.94872 0.79324 0.0
C297 C 0.61014 0.90983 0.78611 0.0
C298 C 0.57716 0.89758 0.77081 0.0
C299 C 0.57126 0.09543 0.79642 0.0
H300 H 0.54403 0.95388 0.66499 0.0
H301 H 0.5471 0.95469 0.70152 0.0
H302 H 0.6555 0.07839 0.70357 0.0
H303 H 0.65168 0.07773 0.66718 0.0
H304 H 0.60155 0.969 0.72915 0.0
H305 H 0.60182 0.06592 0.73096 0.0
H306 H 0.60441 0.02116 0.78595 0.0
H307 H 0.55346 0.03928 0.79299 0.0
H308 H 0.65516 0.12362 0.75198 0.0
H309 H 0.64809 0.17083 0.76727 0.0
H310 H 0.54853 0.91365 0.75035 0.0
H311 H 0.65808 0.00496 0.79026 0.0
H312 H 0.54696 0.08699 0.80853 0.0
H313 H 0.55506 0.86793 0.76486 0.0
H314 H 0.66387 0.95896 0.80516 0.0
C315 C 0.54789 0.37423 0.01284 0.0
C316 C 0.52594 0.38702 0.00361 0.0
C317 C 0.53065 0.35508 0.0308 0.0
C318 C 0.49134 0.34863 0.03982 0.0
C319 C 0.47042 0.36241 0.03071 0.0
C320 C 0.48733 0.38115 0.01285 0.0
C321 C 0.47276 0.32938 0.05913 0.0
C322 C 0.50301 0.3389 0.07514 0.0
C323 C 0.48542 0.32691 0.09445 0.0
C324 C 0.43731 0.30572 0.09771 0.0
C325 C 0.40638 0.2955 0.08182 0.0
C326 C 0.4244 0.30558 0.06242 0.0
C327 C 0.35752 0.28056 0.08592 0.0
C328 C 0.33277 0.25813 0.10247 0.0
C329 C 0.33762 0.29312 0.07466 0.0
C330 C 0.29616 0.28579 0.0805 0.0
C331 C 0.27377 0.26642 0.09799 0.0
C332 C 0.51794 0.34001 0.1116 0.0
C333 C 0.55371 0.3368 0.11033 0.0
C334 C 0.51437 0.35708 0.12907 0.0
C335 C 0.54675 0.3716 0.14477 0.0
C336 C 0.58306 0.36904 0.14335 0.0
C337 C 0.58583 0.35099 0.12611 0.0
C338 C 0.29159 0.25156 0.10861 0.0
H339 H 0.57778 0.37843 0.00601 0.0
H340 H 0.5477 0.345 0.03749 0.0
H341 H 0.44123 0.35934 0.03755 0.0
H342 H 0.47041 0.39156 0.00638 0.0
H343 H 0.54046 0.35785 0.07292 0.0
H344 H 0.40094 0.29692 0.04989 0.0
H345 H 0.42455 0.29889 0.11286 0.0
H346 H 0.34623 0.24711 0.11126 0.0
H347 H 0.35558 0.31123 0.06212 0.0
H348 H 0.28389 0.29831 0.0722 0.0
H349 H 0.5571 0.32365 0.09705 0.0
H350 H 0.48741 0.36031 0.13036 0.0
H351 H 0.27484 0.23639 0.12213 0.0
H352 H 0.61387 0.34911 0.12448 0.0
H353 H 0.54379 0.38533 0.15789 0.0
H354 H 0.11992 0.34873 0.09882 0.0
H355 H 0.26995 0.28881 0.13621 0.0
H356 H 0.21779 0.40436 0.14858 0.0
H357 H 0.19759 0.2511 0.07916 0.0
H358 H 0.22854 0.31363 0.14675 0.0
H359 H 0.12739 0.29749 0.09722 0.0
C360 C 0.14223 0.34971 0.10966 0.0
C361 C 0.16904 0.38115 0.12359 0.0
C362 C 0.22077 0.29901 0.13212 0.0
C363 C 0.17777 0.32288 0.12183 0.0
C364 C 0.24399 0.2844 0.12617 0.0
C365 C 0.23786 0.26863 0.10662 0.0
C366 C 0.19145 0.29791 0.11837 0.0
C367 C 0.20398 0.26384 0.09422 0.0
C368 C 0.14655 0.32055 0.10872 0.0
C369 C 0.19739 0.38105 0.1373 0.0
N370 N 0.18274 0.27921 0.10013 0.0
N371 N 0.20145 0.35262 0.13593 0.0
H372 H 0.76518 0.14946 0.4921 0.0
H373 H 0.85255 0.35797 0.46328 0.0
H374 H 0.67348 0.17493 0.47658 0.0
H375 H 0.94605 0.33104 0.47054 0.0
H376 H 0.78734 0.29298 0.47268 0.0
H377 H 0.83239 0.21763 0.48874 0.0
C378 C 0.7591 0.16939 0.4882 0.0
C379 C 0.71356 0.15631 0.48449 0.0
C380 C 0.82213 0.30129 0.47235 0.0
C381 C 0.7903 0.23431 0.48061 0.0
C382 C 0.85942 0.33842 0.46693 0.0
C383 C 0.90486 0.34992 0.46586 0.0
C384 C 0.83007 0.27519 0.47676 0.0
C385 C 0.91169 0.32353 0.47121 0.0
C386 C 0.79751 0.20828 0.48622 0.0
C387 C 0.70787 0.18351 0.47945 0.0
N388 N 0.87465 0.28729 0.47625 0.0
N389 N 0.74571 0.22106 0.47759 0.0
H390 H 0.57025 0.70728 0.82456 0.0
H391 H 0.69229 0.92326 0.79423 0.0
H392 H 0.7183 0.79264 0.81474 0.0
H393 H 0.54269 0.83408 0.79518 0.0
H394 H 0.70249 0.87713 0.80488 0.0
H395 H 0.55945 0.75433 0.81633 0.0
C396 C 0.60049 0.73582 0.82062 0.0
C397 C 0.64529 0.74589 0.82036 0.0
C398 C 0.6674 0.86764 0.80283 0.0
C399 C 0.63317 0.80011 0.81118 0.0
C400 C 0.66155 0.89408 0.79691 0.0
C401 C 0.61655 0.88254 0.79378 0.0
C402 C 0.628 0.82931 0.80573 0.0
C403 C 0.57803 0.84412 0.79718 0.0
C404 C 0.5943 0.76274 0.81603 0.0
C405 C 0.6832 0.78362 0.81546 0.0
N406 N 0.58463 0.81888 0.80295 0.0
N407 N 0.67626 0.80926 0.81106 0.0
H408 H 0.84636 0.54705 0.1932 0.0
H409 H 0.62236 0.3404 0.16053 0.0
H410 H 0.82509 0.44416 0.20939 0.0
H411 H 0.62908 0.44106 0.16135 0.0
H412 H 0.69236 0.37637 0.182 0.0
H413 H 0.76338 0.5085 0.18614 0.0
C414 C 0.82426 0.51654 0.19585 0.0
C415 C 0.84335 0.49883 0.20147 0.0
C416 C 0.67798 0.39036 0.17783 0.0
C417 C 0.74787 0.4541 0.19257 0.0
C418 C 0.63824 0.36991 0.16548 0.0
C419 C 0.62037 0.38798 0.15893 0.0
C420 C 0.70045 0.42935 0.18335 0.0
C421 C 0.64176 0.42604 0.16602 0.0
C422 C 0.77663 0.49439 0.19161 0.0
C423 C 0.81238 0.45896 0.20439 0.0
N424 N 0.68118 0.44569 0.17755 0.0
N425 N 0.76635 0.43778 0.19944 0.0
H426 H 0.42175 0.92275 0.46386 0.0
H427 H 0.31938 0.70313 0.46625 0.0
H428 H 0.50344 0.89068 0.48478 0.0
H429 H 0.23375 0.73833 0.46052 0.0
H430 H 0.3875 0.77088 0.47286 0.0
H431 H 0.35328 0.85481 0.46145 0.0
C432 C 0.4254 0.90144 0.46792 0.0
C433 C 0.46861 0.91256 0.47445 0.0
C434 C 0.3537 0.76367 0.47032 0.0
C435 C 0.3899 0.8343 0.47172 0.0
C436 C 0.31466 0.72494 0.46669 0.0
C437 C 0.27067 0.71488 0.4626 0.0
C438 C 0.34882 0.79261 0.46972 0.0
C439 C 0.26702 0.74463 0.46314 0.0
C440 C 0.38611 0.86256 0.46664 0.0
C441 C 0.47091 0.88348 0.47963 0.0
N442 N 0.30555 0.78204 0.46642 0.0
N443 N 0.43217 0.84566 0.47803 0.0
H444 H 0.52418 0.28422 0.79724 0.0
H445 H 0.59094 0.15211 0.82797 0.0
H446 H 0.57027 0.28908 0.85698 0.0
H447 H 0.58287 0.1747 0.76696 0.0
H448 H 0.57644 0.19727 0.83962 0.0
H449 H 0.53814 0.23873 0.78656 0.0
C450 C 0.53697 0.27548 0.80814 0.0
C451 C 0.54596 0.29036 0.82804 0.0
C452 C 0.57805 0.19239 0.82369 0.0
C453 C 0.56227 0.23837 0.81589 0.0
C454 C 0.58609 0.16655 0.81706 0.0
C455 C 0.58842 0.15987 0.79648 0.0
C456 C 0.57158 0.21115 0.80963 0.0
C457 C 0.58205 0.17942 0.78296 0.0
C458 C 0.54524 0.24972 0.80201 0.0
C459 C 0.56318 0.27848 0.84147 0.0
N460 N 0.57375 0.20399 0.78976 0.0
N461 N 0.5706 0.25301 0.83517 0.0
H462 H 0.55813 0.81815 0.50942 0.0
H463 H 0.68303 0.72278 0.52074 0.0
H464 H 0.70547 0.8784 0.50055 0.0
H465 H 0.53518 0.66111 0.52899 0.0
H466 H 0.69042 0.77826 0.5105 0.0
H467 H 0.54762 0.75885 0.514 0.0
C468 C 0.5882 0.81885 0.50823 0.0
C469 C 0.63284 0.85344 0.50477 0.0
C470 C 0.65627 0.75251 0.51441 0.0
C471 C 0.62113 0.78571 0.5102 0.0
C472 C 0.65194 0.72063 0.52011 0.0
C473 C 0.60843 0.68719 0.52585 0.0
C474 C 0.61687 0.75113 0.51449 0.0
C475 C 0.56956 0.68648 0.52503 0.0
C476 C 0.58221 0.785 0.51095 0.0
C477 C 0.67057 0.85262 0.50358 0.0
N478 N 0.57475 0.71803 0.51959 0.0
N479 N 0.66389 0.81941 0.50638 0.0
H480 H 0.76941 0.57986 0.83113 0.0
H481 H 0.8667 0.46709 0.85834 0.0
H482 H 0.68004 0.4622 0.84923 0.0
H483 H 0.95287 0.58229 0.83685 0.0
H484 H 0.79775 0.46349 0.85404 0.0
H485 H 0.83628 0.58024 0.83244 0.0
C486 C 0.76367 0.55398 0.83533 0.0
C487 C 0.71868 0.52096 0.84012 0.0
C488 C 0.83172 0.48949 0.85017 0.0
C489 C 0.79593 0.52129 0.84173 0.0
C490 C 0.87124 0.49149 0.85247 0.0
C491 C 0.91615 0.52516 0.84806 0.0
C492 C 0.83681 0.52137 0.8434 0.0
C493 C 0.91938 0.55595 0.84081 0.0
C494 C 0.80206 0.55424 0.83607 0.0
C495 C 0.71388 0.48836 0.84541 0.0
N496 N 0.88051 0.55336 0.83881 0.0
N497 N 0.75193 0.48941 0.84615 0.0
H498 H 0.26804 0.67347 0.12811 0.0
H499 H 0.43665 0.85465 0.20363 0.0
H500 H 0.22881 0.68419 0.18782 0.0
H501 H 0.44735 0.86788 0.13986 0.0
H502 H 0.36679 0.78773 0.19805 0.0
H503 H 0.34013 0.74086 0.13205 0.0
C504 C 0.27465 0.68989 0.14204 0.0
C505 C 0.24238 0.67323 0.15766 0.0
C506 C 0.38439 0.80517 0.18525 0.0
C507 C 0.32448 0.74967 0.16227 0.0
C508 C 0.42444 0.84328 0.1884 0.0
C509 C 0.44792 0.86673 0.17216 0.0
C510 C 0.36773 0.79 0.16567 0.0
C511 C 0.43012 0.85068 0.15276 0.0
C512 C 0.31554 0.72829 0.1442 0.0
C513 C 0.25251 0.69585 0.17534 0.0
N514 N 0.39111 0.81309 0.15001 0.0
N515 N 0.29273 0.73272 0.1772 0.0
H516 H 0.53972 0.22822 0.46056 0.0
H517 H 0.59829 0.37135 0.55516 0.0
H518 H 0.56277 0.21209 0.52072 0.0
H519 H 0.57419 0.38925 0.49563 0.0
H520 H 0.58565 0.31302 0.54241 0.0
H521 H 0.5515 0.28685 0.47277 0.0
C522 C 0.54705 0.23688 0.47634 0.0
C523 C 0.55049 0.21524 0.48961 0.0
C524 C 0.58315 0.32965 0.53208 0.0
C525 C 0.56434 0.28244 0.50364 0.0
C526 C 0.59072 0.3632 0.53934 0.0
C527 C 0.58769 0.3855 0.52643 0.0
C528 C 0.57237 0.31804 0.51171 0.0
C529 C 0.57661 0.37285 0.50616 0.0
C530 C 0.554 0.27046 0.48328 0.0
C531 C 0.56058 0.22813 0.50986 0.0
N532 N 0.56945 0.34 0.49941 0.0
N533 N 0.56713 0.2608 0.51622 0.0
H534 H 0.51817 0.57931 0.83518 0.0
H535 H 0.24726 0.46907 0.86022 0.0
H536 H 0.42626 0.46297 0.85512 0.0
H537 H 0.3422 0.58772 0.8439 0.0
H538 H 0.31071 0.46485 0.8565 0.0
H539 H 0.4532 0.58167 0.83676 0.0
C540 C 0.48435 0.55417 0.83987 0.0
C541 C 0.47799 0.52088 0.84506 0.0
C542 C 0.31764 0.49178 0.85366 0.0
C543 C 0.40282 0.52343 0.84687 0.0
C544 C 0.28121 0.49414 0.85562 0.0
C545 C 0.28909 0.52886 0.85244 0.0
C546 C 0.36254 0.52432 0.84839 0.0
C547 C 0.33434 0.56047 0.8468 0.0
C548 C 0.44713 0.55557 0.84077 0.0
C549 C 0.43308 0.48931 0.85101 0.0
N550 N 0.36914 0.55745 0.845 0.0
N551 N 0.39738 0.49137 0.85176 0.0
H552 H 1.02453 0.41138 0.14939 0.0
H553 H 0.75119 0.26597 0.17332 0.0
H554 H 0.94198 0.44858 0.16322 0.0
H555 H 0.83921 0.2322 0.16898 0.0
H556 H 0.81878 0.3319 0.16622 0.0
H557 H 0.95507 0.34462 0.153 0.0
C558 C 0.99181 0.40561 0.15314 0.0
C559 C 0.98936 0.43589 0.1562 0.0
C560 C 0.82322 0.31 0.16672 0.0
C561 C 0.90941 0.35915 0.16033 0.0
C562 C 0.78465 0.27231 0.17084 0.0
C563 C 0.78939 0.24334 0.17191 0.0
C564 C 0.867 0.31893 0.16356 0.0
C565 C 0.83356 0.25331 0.16812 0.0
C566 C 0.95212 0.36738 0.15523 0.0
C567 C 0.94583 0.42638 0.16099 0.0
N568 N 0.8706 0.29023 0.16422 0.0
N569 N 0.90764 0.3889 0.16294 0.0
H570 H 0.07961 0.5153 0.09689 0.0
H571 H 0.16091 0.62821 0.99559 0.0
H572 H 0.13885 0.63507 0.0959 0.0
H573 H 0.07379 0.50426 0.99768 0.0
H574 H 0.16076 0.63323 0.03232 0.0
H575 H 0.08518 0.51277 0.06056 0.0
C576 C 0.09427 0.54123 0.089 0.0
C577 C 0.10905 0.57551 0.09939 0.0
C578 C 0.1417 0.60497 0.02471 0.0
C579 C 0.11502 0.57273 0.05767 0.0
C580 C 0.14197 0.6021 0.00378 0.0
C581 C 0.11713 0.56574 0.99358 0.0
C582 C 0.11685 0.57127 0.03548 0.0
C583 C 0.09289 0.53283 0.00492 0.0
C584 C 0.09713 0.53969 0.06823 0.0
C585 C 0.12704 0.60806 0.08839 0.0
N586 N 0.09344 0.5364 0.02522 0.0
N587 N 0.12958 0.60592 0.06807 0.0
H588 H 0.69031 0.0885 0.42209 0.0
H589 H 0.54329 0.99659 0.32088 0.0
H590 H 0.54102 0.99802 0.42162 0.0
H591 H 0.67211 0.11339 0.3259 0.0
H592 H 0.54318 0.99373 0.3574 0.0
H593 H 0.68625 0.09558 0.38635 0.0
C594 C 0.65667 0.07019 0.41443 0.0
C595 C 0.61597 0.04249 0.4247 0.0
C596 C 0.57122 0.02009 0.35051 0.0
C597 C 0.61112 0.05016 0.3839 0.0
C598 C 0.57141 0.02166 0.32973 0.0
C599 C 0.60785 0.05524 0.32045 0.0
C600 C 0.60822 0.05205 0.36203 0.0
C601 C 0.64331 0.08705 0.33253 0.0
C602 C 0.65434 0.07437 0.3941 0.0
C603 C 0.57319 0.01967 0.41418 0.0
N604 N 0.64293 0.08453 0.35271 0.0
N605 N 0.57192 0.02369 0.39424 0.0
H606 H 0.51085 0.48355 0.77768 0.0
H607 H 0.68728 0.58287 0.68654 0.0
H608 H 0.66032 0.55335 0.78542 0.0
H609 H 0.53804 0.51892 0.68182 0.0
H610 H 0.6797 0.57478 0.72276 0.0
H611 H 0.52166 0.49918 0.74266 0.0
C612 C 0.54607 0.50235 0.77197 0.0
C613 C 0.58474 0.51692 0.78437 0.0
C614 C 0.64873 0.56281 0.71378 0.0
C615 C 0.59752 0.53486 0.74413 0.0
C616 C 0.65297 0.56722 0.6931 0.0
C617 C 0.61322 0.55155 0.68109 0.0
C618 C 0.60439 0.5424 0.72247 0.0
C619 C 0.56975 0.53197 0.69045 0.0
C620 C 0.55225 0.51132 0.75195 0.0
C621 C 0.62959 0.54143 0.77628 0.0
N622 N 0.56653 0.52782 0.71051 0.0
N623 N 0.63479 0.54941 0.75656 0.0
H624 H 0.49561 0.99216 0.54347 0.0
H625 H 0.66842 0.05603 0.63628 0.0
H626 H 0.64541 0.06323 0.53809 0.0
H627 H 0.51802 0.9759 0.63995 0.0
H628 H 0.66103 0.05871 0.60028 0.0
H629 H 0.50329 0.98545 0.57884 0.0
C630 C 0.53013 0.00632 0.54977 0.0
C631 C 0.56996 0.02844 0.53794 0.0
C632 C 0.62965 0.04037 0.60894 0.0
C633 C 0.57911 0.02095 0.57837 0.0
C634 C 0.63384 0.03896 0.6295 0.0
C635 C 0.59377 0.0158 0.64116 0.0
C636 C 0.58504 0.01866 0.59997 0.0
C637 C 0.54986 0.99386 0.63153 0.0
C638 C 0.53451 0.00242 0.56994 0.0
C639 C 0.61385 0.04602 0.54677 0.0
N640 N 0.54668 0.99602 0.61154 0.0
N641 N 0.61728 0.04205 0.5665 0.0
H642 H 0.52824 0.47289 0.89139 0.0
H643 H 0.61598 0.44549 0.99232 0.0
H644 H 0.67424 0.54381 0.90805 0.0
H645 H 0.47287 0.37254 0.97111 0.0
H646 H 0.63983 0.48103 0.9615 0.0
H647 H 0.50871 0.43581 0.92075 0.0
C648 C 0.55626 0.4807 0.90131 0.0
C649 C 0.60292 0.51143 0.89731 0.0
C650 C 0.60329 0.45708 0.96358 0.0
C651 C 0.58082 0.46896 0.93116 0.0
C652 C 0.58973 0.43667 0.98107 0.0
C653 C 0.54232 0.40633 0.98434 0.0
C654 C 0.56911 0.44688 0.94934 0.0
C655 C 0.50968 0.39619 0.96937 0.0
C656 C 0.54511 0.45942 0.91809 0.0
C657 C 0.63779 0.52032 0.91068 0.0
N658 N 0.52364 0.41651 0.95263 0.0
N659 N 0.62604 0.49916 0.92709 0.0
H660 H 0.08021 0.54489 0.20863 0.0
H661 H 0.15859 0.51005 0.31009 0.0
H662 H 0.18374 0.52802 0.21161 0.0
H663 H 1.05754 0.53008 0.30797 0.0
H664 H 0.16704 0.51542 0.27388 0.0
H665 H 0.07039 0.53889 0.24491 0.0
C666 C 0.1013 0.54049 0.21699 0.0
C667 C 0.13334 0.53761 0.20723 0.0
C668 C 0.14293 0.51857 0.28131 0.0
C669 C 0.12175 0.52983 0.24858 0.0
C670 C 0.13823 0.51566 0.30201 0.0
C671 C 0.10743 0.51976 0.31212 0.0
C672 C 0.11671 0.52571 0.27056 0.0
C673 C 0.08135 0.52633 0.30079 0.0
C674 C 0.09543 0.5367 0.23766 0.0
C675 C 0.15881 0.53063 0.21862 0.0
N676 N 0.08669 0.52923 0.28064 0.0
N677 N 0.15254 0.52704 0.23869 0.0
loop_
_geom_bond_atom_site_label_1
_geom_bond_atom_site_label_2
_geom_bond_distance
_geom_bond_site_symmetry_2
_ccdc_geom_bond_type
Sm0 C2 2.846 . S
Sm0 O20 2.543 . S
Sm0 O21 2.450 . S
Sm0 O22 2.681 . S
Sm0 O23 2.464 . S
Sm0 O24 2.396 . S
Sm0 O28 2.386 . S
Sm0 O31 2.408 1_455 S
Sm1 C11 2.846 . S
Sm1 O22 2.386 1_655 S
Sm1 O25 2.408 1_655 S
Sm1 O26 2.543 . S
Sm1 O27 2.450 . S
Sm1 O28 2.681 1_655 S
Sm1 O29 2.463 . S
Sm1 O30 2.396 . S
C2 Sm0 2.846 . S
C2 C3 1.506 . S
C2 O20 1.261 . S
C2 O21 1.242 . S
C3 C2 1.506 . S
C3 C4 1.358 . S
C3 C8 1.382 . S
C4 C3 1.358 . S
C4 C5 1.385 . S
C4 H32 0.930 . S
C5 C4 1.385 . S
C5 C6 1.395 . S
C5 H33 0.929 . S
C6 C5 1.395 . S
C6 C7 1.335 . S
C7 C6 1.335 . S
C7 C8 1.398 . S
C7 H34 0.930 . S
C8 C3 1.382 . S
C8 C7 1.398 . S
C8 H35 0.929 . S
C9 O22 1.271 . S
C9 O23 1.251 . S
C10 O24 1.252 . S
C10 O25 1.272 . S
C11 Sm1 2.846 . S
C11 C12 1.506 . S
C11 O26 1.261 . S
C11 O27 1.242 . S
C12 C11 1.506 . S
C12 C13 1.358 . S
C12 C17 1.382 . S
C13 C12 1.358 . S
C13 C14 1.385 . S
C13 H36 0.930 . S
C14 C13 1.385 . S
C14 C15 1.395 . S
C14 H37 0.929 . S
C15 C14 1.395 . S
C15 C16 1.335 . S
C16 C15 1.335 . S
C16 C17 1.398 . S
C16 H38 0.930 . S
C17 C12 1.382 . S
C17 C16 1.398 . S
C17 H39 0.929 . S
C18 O28 1.271 . S
C18 O29 1.253 1_455 S
C19 O30 1.252 . S
C19 O31 1.272 . S
O20 Sm0 2.543 . S
O20 C2 1.261 . S
O21 Sm0 2.450 . S
O21 C2 1.242 . S
O22 Sm0 2.681 . S
O22 Sm1 2.386 1_455 S
O22 C9 1.271 . S
O23 Sm0 2.464 . S
O23 C9 1.251 . S
O24 Sm0 2.396 . S
O24 C10 1.252 . S
O25 Sm1 2.408 1_455 S
O25 C10 1.272 . S
O26 Sm1 2.543 . S
O26 C11 1.261 . S
O27 Sm1 2.450 . S
O27 C11 1.242 . S
O28 Sm0 2.386 . S
O28 Sm1 2.681 1_455 S
O28 C18 1.271 . S
O29 Sm1 2.463 . S
O29 C18 1.253 1_655 S
O30 Sm1 2.396 . S
O30 C19 1.252 . S
O31 Sm0 2.408 1_655 S
O31 C19 1.272 . S
H32 C4 0.930 . S
H33 C5 0.929 . S
H34 C7 0.930 . S
H35 C8 0.929 . S
H36 C13 0.930 . S
H37 C14 0.929 . S
H38 C16 0.930 . S
H39 C17 0.929 . S
Sm40 C42 2.846 . S
Sm40 O60 2.543 . S
Sm40 O61 2.450 . S
Sm40 O62 2.681 1_565 S
Sm40 O63 2.464 . S
Sm40 O64 2.396 . S
Sm40 O68 2.387 1_565 S
Sm40 O71 2.408 1_565 S
Sm41 C51 2.846 . S
Sm41 O62 2.386 . S
Sm41 O65 2.408 1_545 S
Sm41 O66 2.543 . S
Sm41 O67 2.450 . S
Sm41 O68 2.680 . S
Sm41 O69 2.464 . S
Sm41 O70 2.396 . S
C42 Sm40 2.846 . S
C42 C43 1.506 . S
C42 O60 1.261 . S
C42 O61 1.242 . S
C43 C42 1.506 . S
C43 C44 1.358 . S
C43 C48 1.382 . S
C44 C43 1.358 . S
C44 C45 1.385 . S
C44 H72 0.930 . S
C45 C44 1.385 . S
C45 C46 1.395 . S
C45 H73 0.929 . S
C46 C45 1.395 . S
C46 C47 1.335 . S
C47 C46 1.335 . S
C47 C48 1.398 . S
C47 H74 0.930 . S
C48 C43 1.382 . S
C48 C47 1.398 . S
C48 H75 0.929 . S
C49 O62 1.271 . S
C49 O63 1.251 1_545 S
C50 O64 1.252 . S
C50 O65 1.272 . S
C51 Sm41 2.846 . S
C51 C52 1.506 . S
C51 O66 1.261 . S
C51 O67 1.242 . S
C52 C51 1.506 . S
C52 C53 1.358 . S
C52 C57 1.382 . S
C53 C52 1.358 . S
C53 C54 1.385 . S
C53 H76 0.930 . S
C54 C53 1.385 . S
C54 C55 1.395 . S
C54 H77 0.929 . S
C55 C54 1.395 . S
C55 C56 1.335 . S
C56 C55 1.335 . S
C56 C57 1.398 . S
C56 H78 0.930 . S
C57 C52 1.382 . S
C57 C56 1.398 . S
C57 H79 0.929 . S
C58 O68 1.271 . S
C58 O69 1.251 . S
C59 O70 1.252 . S
C59 O71 1.272 . S
O60 Sm40 2.543 . S
O60 C42 1.261 . S
O61 Sm40 2.450 . S
O61 C42 1.242 . S
O62 Sm40 2.681 1_545 S
O62 Sm41 2.386 . S
O62 C49 1.271 . S
O63 Sm40 2.464 . S
O63 C49 1.251 1_565 S
O64 Sm40 2.396 . S
O64 C50 1.252 . S
O65 Sm41 2.408 1_565 S
O65 C50 1.272 . S
O66 Sm41 2.543 . S
O66 C51 1.261 . S
O67 Sm41 2.450 . S
O67 C51 1.242 . S
O68 Sm40 2.387 1_545 S
O68 Sm41 2.680 . S
O68 C58 1.271 . S
O69 Sm41 2.464 . S
O69 C58 1.251 . S
O70 Sm41 2.396 . S
O70 C59 1.252 . S
O71 Sm40 2.408 1_545 S
O71 C59 1.272 . S
H72 C44 0.930 . S
H73 C45 0.929 . S
H74 C47 0.930 . S
H75 C48 0.929 . S
H76 C53 0.930 . S
H77 C54 0.929 . S
H78 C56 0.930 . S
H79 C57 0.929 . S
Sm80 C82 2.846 . S
Sm80 O100 2.543 . S
Sm80 O101 2.450 . S
Sm80 O102 2.681 . S
Sm80 O103 2.464 . S
Sm80 O104 2.396 . S
Sm80 O108 2.386 . S
Sm80 O111 2.408 . S
Sm81 C91 2.846 . S
Sm81 O102 2.386 . S
Sm81 O105 2.408 . S
Sm81 O106 2.543 . S
Sm81 O107 2.450 . S
Sm81 O108 2.681 . S
Sm81 O109 2.464 . S
Sm81 O110 2.396 . S
C82 Sm80 2.846 . S
C82 C83 1.506 . S
C82 O100 1.261 . S
C82 O101 1.242 . S
C83 C82 1.506 . S
C83 C84 1.358 . S
C83 C88 1.382 . S
C84 C83 1.358 . S
C84 C85 1.385 . S
C84 H112 0.930 . S
C85 C84 1.385 . S
C85 C86 1.395 . S
C85 H113 0.929 . S
C86 C85 1.395 . S
C86 C87 1.335 . S
C87 C86 1.335 . S
C87 C88 1.398 . S
C87 H114 0.930 . S
C88 C83 1.382 . S
C88 C87 1.398 . S
C88 H115 0.929 . S
C89 O102 1.271 . S
C89 O103 1.251 . S
C90 O104 1.252 . S
C90 O105 1.272 . S
C91 Sm81 2.846 . S
C91 C92 1.506 . S
C91 O106 1.261 . S
C91 O107 1.242 . S
C92 C91 1.506 . S
C92 C93 1.358 . S
C92 C97 1.382 . S
C93 C92 1.358 . S
C93 C94 1.385 . S
C93 H116 0.930 . S
C94 C93 1.385 . S
C94 C95 1.395 . S
C94 H117 0.929 . S
C95 C94 1.395 . S
C95 C96 1.335 . S
C96 C95 1.335 . S
C96 C97 1.398 . S
C96 H118 0.930 . S
C97 C92 1.382 . S
C97 C96 1.398 . S
C97 H119 0.929 . S
C98 O108 1.271 . S
C98 O109 1.251 . S
C99 O110 1.252 . S
C99 O111 1.272 . S
O100 Sm80 2.543 . S
O100 C82 1.261 . S
O101 Sm80 2.450 . S
O101 C82 1.242 . S
O102 Sm80 2.681 . S
O102 Sm81 2.386 . S
O102 C89 1.271 . S
O103 Sm80 2.464 . S
O103 C89 1.251 . S
O104 Sm80 2.396 . S
O104 C90 1.252 . S
O105 Sm81 2.408 . S
O105 C90 1.272 . S
O106 Sm81 2.543 . S
O106 C91 1.261 . S
O107 Sm81 2.450 . S
O107 C91 1.242 . S
O108 Sm80 2.386 . S
O108 Sm81 2.681 . S
O108 C98 1.271 . S
O109 Sm81 2.464 . S
O109 C98 1.251 . S
O110 Sm81 2.396 . S
O110 C99 1.252 . S
O111 Sm80 2.408 . S
O111 C99 1.272 . S
H112 C84 0.930 . S
H113 C85 0.929 . S
H114 C87 0.930 . S
H115 C88 0.929 . S
H116 C93 0.930 . S
H117 C94 0.929 . S
H118 C96 0.930 . S
H119 C97 0.929 . S
C120 C121 1.386 . S
C120 C122 1.397 . S
C120 H144 0.931 . S
C121 C120 1.386 . S
C121 C125 1.397 1_545 S
C122 C120 1.397 . S
C122 C123 1.384 . S
C122 H145 0.930 . S
C123 C122 1.384 . S
C123 C124 1.377 1_545 S
C123 C126 1.481 . S
C124 C123 1.377 1_565 S
C124 C125 1.389 . S
C124 H146 0.929 . S
C125 C121 1.397 1_565 S
C125 C124 1.389 . S
C125 H147 0.931 . S
C126 C123 1.481 . S
C126 C127 1.387 . S
C126 C131 1.390 1_545 S
C127 C126 1.387 . S
C127 C128 1.401 . S
C127 H148 0.930 . S
C128 C127 1.401 . S
C128 C129 1.376 . S
C128 C137 1.511 . S
C129 C128 1.376 . S
C129 C130 1.392 1_545 S
C129 H150 0.931 . S
C130 C129 1.392 1_565 S
C130 C131 1.361 . S
C130 C132 1.500 . S
C131 C126 1.390 1_565 S
C131 C130 1.361 . S
C131 H149 0.931 . S
C132 C130 1.500 . S
C132 C133 1.371 . S
C132 C134 1.365 . S
C133 C132 1.371 . S
C133 C143 1.386 . S
C133 H151 0.931 . S
C134 C132 1.365 . S
C134 C135 1.409 . S
C134 H152 0.929 . S
C135 C134 1.409 . S
C135 C136 1.380 . S
C135 H153 0.930 . S
C136 C135 1.380 . S
C136 C143 1.357 . S
C137 C128 1.511 . S
C137 C138 1.341 . S
C137 C139 1.371 . S
C138 C137 1.341 . S
C138 C142 1.394 . S
C138 H154 0.930 . S
C139 C137 1.371 . S
C139 C140 1.392 . S
C139 H155 0.931 . S
C140 C139 1.392 . S
C140 C141 1.331 . S
C140 H158 0.932 . S
C141 C140 1.331 . S
C141 C142 1.336 . S
C142 C138 1.394 . S
C142 C141 1.336 . S
C142 H157 0.929 . S
C143 C133 1.386 . S
C143 C136 1.357 . S
C143 H156 0.928 . S
H144 C120 0.931 . S
H145 C122 0.930 . S
H146 C124 0.929 . S
H147 C125 0.931 . S
H148 C127 0.930 . S
H149 C131 0.931 . S
H150 C129 0.931 . S
H151 C133 0.931 . S
H152 C134 0.929 . S
H153 C135 0.930 . S
H154 C138 0.930 . S
H155 C139 0.931 . S
H156 C143 0.928 . S
H157 C142 0.929 . S
H158 C140 0.932 . S
C159 C160 1.386 . S
C159 C161 1.397 . S
C159 H183 0.931 . S
C160 C159 1.386 . S
C160 C164 1.397 . S
C161 C159 1.397 . S
C161 C162 1.384 . S
C161 H184 0.930 . S
C162 C161 1.384 . S
C162 C163 1.377 . S
C162 C165 1.481 . S
C163 C162 1.377 . S
C163 C164 1.389 . S
C163 H185 0.929 . S
C164 C160 1.397 . S
C164 C163 1.389 . S
C164 H186 0.931 . S
C165 C162 1.481 . S
C165 C166 1.387 . S
C165 C170 1.390 . S
C166 C165 1.387 . S
C166 C167 1.401 . S
C166 H187 0.930 . S
C167 C166 1.401 . S
C167 C168 1.376 . S
C167 C176 1.511 . S
C168 C167 1.376 . S
C168 C169 1.392 . S
C168 H189 0.931 . S
C169 C168 1.392 . S
C169 C170 1.361 . S
C169 C171 1.500 . S
C170 C165 1.390 . S
C170 C169 1.361 . S
C170 H188 0.931 . S
C171 C169 1.500 . S
C171 C172 1.371 . S
C171 C173 1.365 . S
C172 C171 1.371 . S
C172 C182 1.386 . S
C172 H190 0.931 . S
C173 C171 1.365 . S
C173 C174 1.409 . S
C173 H191 0.929 . S
C174 C173 1.409 . S
C174 C175 1.380 . S
C174 H192 0.930 . S
C175 C174 1.380 . S
C175 C182 1.357 . S
C176 C167 1.511 . S
C176 C177 1.341 . S
C176 C178 1.371 . S
C177 C176 1.341 . S
C177 C181 1.394 . S
C177 H193 0.930 . S
C178 C176 1.371 . S
C178 C179 1.392 . S
C178 H194 0.931 . S
C179 C178 1.392 . S
C179 C180 1.331 . S
C179 H197 0.932 . S
C180 C179 1.331 . S
C180 C181 1.336 . S
C181 C177 1.394 . S
C181 C180 1.336 . S
C181 H196 0.929 . S
C182 C172 1.386 . S
C182 C175 1.357 . S
C182 H195 0.928 . S
H183 C159 0.931 . S
H184 C161 0.930 . S
H185 C163 0.929 . S
H186 C164 0.931 . S
H187 C166 0.930 . S
H188 C170 0.931 . S
H189 C168 0.931 . S
H190 C172 0.931 . S
H191 C173 0.929 . S
H192 C174 0.930 . S
H193 C177 0.930 . S
H194 C178 0.931 . S
H195 C182 0.928 . S
H196 C181 0.929 . S
H197 C179 0.932 . S
C198 C199 1.386 . S
C198 C200 1.397 . S
C198 H222 0.931 . S
C199 C198 1.386 . S
C199 C203 1.397 . S
C200 C198 1.397 . S
C200 C201 1.384 . S
C200 H223 0.930 . S
C201 C200 1.384 . S
C201 C202 1.377 . S
C201 C204 1.481 . S
C202 C201 1.377 . S
C202 C203 1.389 . S
C202 H224 0.929 1_455 S
C203 C199 1.397 . S
C203 C202 1.389 . S
C203 H225 0.931 1_455 S
C204 C201 1.481 . S
C204 C205 1.387 . S
C204 C209 1.390 . S
C205 C204 1.387 . S
C205 C206 1.401 . S
C205 H226 0.930 . S
C206 C205 1.401 . S
C206 C207 1.376 . S
C206 C215 1.511 . S
C207 C206 1.376 . S
C207 C208 1.392 . S
C207 H228 0.931 . S
C208 C207 1.392 . S
C208 C209 1.361 . S
C208 C210 1.500 1_455 S
C209 C204 1.390 . S
C209 C208 1.361 . S
C209 H227 0.931 1_455 S
C210 C208 1.500 1_655 S
C210 C211 1.371 . S
C210 C212 1.365 . S
C211 C210 1.371 . S
C211 C221 1.386 . S
C211 H229 0.931 1_655 S
C212 C210 1.365 . S
C212 C213 1.409 . S
C212 H230 0.929 . S
C213 C212 1.409 . S
C213 C214 1.380 . S
C213 H231 0.930 . S
C214 C213 1.380 . S
C214 C221 1.357 . S
C215 C206 1.511 . S
C215 C216 1.341 . S
C215 C217 1.371 . S
C216 C215 1.341 . S
C216 C220 1.394 . S
C216 H232 0.930 . S
C217 C215 1.371 . S
C217 C218 1.392 . S
C217 H233 0.931 . S
C218 C217 1.392 . S
C218 C219 1.331 . S
C218 H236 0.932 . S
C219 C218 1.331 . S
C219 C220 1.336 . S
C220 C216 1.394 . S
C220 C219 1.336 . S
C220 H235 0.929 . S
C221 C211 1.386 . S
C221 C214 1.357 . S
C221 H234 0.928 . S
H222 C198 0.931 . S
H223 C200 0.930 . S
H224 C202 0.929 1_655 S
H225 C203 0.931 1_655 S
H226 C205 0.930 . S
H227 C209 0.931 1_655 S
H228 C207 0.931 . S
H229 C211 0.931 1_455 S
H230 C212 0.929 . S
H231 C213 0.930 . S
H232 C216 0.930 . S
H233 C217 0.931 . S
H234 C221 0.928 . S
H235 C220 0.929 . S
H236 C218 0.932 . S
C237 C238 1.398 . S
C237 C239 1.397 . S
C237 H261 0.931 . S
C238 C237 1.398 . S
C238 C242 1.385 1_655 S
C239 C237 1.397 . S
C239 C240 1.384 . S
C239 H262 0.930 . S
C240 C239 1.384 . S
C240 C241 1.377 1_655 S
C240 C243 1.481 . S
C241 C240 1.377 1_455 S
C241 C242 1.389 . S
C241 H263 0.929 . S
C242 C238 1.385 1_455 S
C242 C241 1.389 . S
C242 H264 0.931 . S
C243 C240 1.481 . S
C243 C244 1.387 . S
C243 C248 1.390 1_655 S
C244 C243 1.387 . S
C244 C245 1.401 . S
C244 H265 0.930 . S
C245 C244 1.401 . S
C245 C246 1.376 . S
C245 C254 1.511 . S
C246 C245 1.376 . S
C246 C247 1.392 1_655 S
C246 H267 0.931 . S
C247 C246 1.392 1_455 S
C247 C248 1.361 . S
C247 C249 1.500 . S
C248 C243 1.390 1_455 S
C248 C247 1.361 . S
C248 H266 0.931 . S
C249 C247 1.500 . S
C249 C250 1.371 . S
C249 C251 1.365 . S
C250 C249 1.371 . S
C250 C260 1.386 . S
C250 H268 0.931 . S
C251 C249 1.365 . S
C251 C252 1.409 . S
C251 H269 0.929 . S
C252 C251 1.409 . S
C252 C253 1.380 . S
C252 H270 0.930 . S
C253 C252 1.380 . S
C253 C260 1.357 . S
C254 C245 1.511 . S
C254 C255 1.341 . S
C254 C256 1.371 . S
C255 C254 1.341 . S
C255 C259 1.394 . S
C255 H271 0.930 . S
C256 C254 1.371 . S
C256 C257 1.392 . S
C256 H272 0.931 . S
C257 C256 1.392 . S
C257 C258 1.331 . S
C257 H275 0.932 . S
C258 C257 1.331 . S
C258 C259 1.336 . S
C259 C255 1.394 . S
C259 C258 1.336 . S
C259 H274 0.929 . S
C260 C250 1.386 . S
C260 C253 1.357 . S
C260 H273 0.928 . S
H261 C237 0.931 . S
H262 C239 0.930 . S
H263 C241 0.929 . S
H264 C242 0.931 . S
H265 C244 0.930 . S
H266 C248 0.931 . S
H267 C246 0.931 . S
H268 C250 0.931 . S
H269 C251 0.929 . S
H270 C252 0.930 . S
H271 C255 0.930 . S
H272 C256 0.931 . S
H273 C260 0.928 . S
H274 C259 0.929 . S
H275 C257 0.932 . S
C276 C277 1.386 . S
C276 C278 1.397 . S
C276 H300 0.931 . S
C277 C276 1.386 . S
C277 C281 1.397 1_565 S
C278 C276 1.397 . S
C278 C279 1.407 . S
C278 H301 0.930 . S
C279 C278 1.407 . S
C279 C280 1.353 1_565 S
C279 C282 1.482 1_565 S
C280 C279 1.353 1_545 S
C280 C281 1.389 . S
C280 H302 0.929 . S
C281 C277 1.397 1_545 S
C281 C280 1.389 . S
C281 H303 0.931 . S
C282 C279 1.482 1_545 S
C282 C283 1.377 1_545 S
C282 C287 1.401 . S
C283 C282 1.377 1_565 S
C283 C284 1.401 . S
C283 H304 0.930 . S
C284 C283 1.401 . S
C284 C285 1.376 1_565 S
C284 C293 1.511 . S
C285 C284 1.376 1_545 S
C285 C286 1.392 . S
C285 H306 0.931 . S
C286 C285 1.392 . S
C286 C287 1.361 . S
C286 C288 1.500 . S
C287 C282 1.401 . S
C287 C286 1.361 . S
C287 H305 0.931 . S
C288 C286 1.500 . S
C288 C289 1.371 . S
C288 C290 1.365 . S
C289 C288 1.371 . S
C289 C299 1.386 . S
C289 H307 0.931 . S
C290 C288 1.365 . S
C290 C291 1.409 . S
C290 H308 0.929 . S
C291 C290 1.409 . S
C291 C292 1.380 . S
C291 H309 0.930 . S
C292 C291 1.380 . S
C292 C299 1.357 . S
C293 C284 1.511 . S
C293 C294 1.341 . S
C293 C295 1.371 . S
C294 C293 1.341 . S
C294 C298 1.394 . S
C294 H310 0.930 . S
C295 C293 1.371 . S
C295 C296 1.392 . S
C295 H311 0.931 . S
C296 C295 1.392 . S
C296 C297 1.331 . S
C296 H314 0.932 . S
C297 C296 1.331 . S
C297 C298 1.336 . S
C298 C294 1.394 . S
C298 C297 1.336 . S
C298 H313 0.929 . S
C299 C289 1.386 . S
C299 C292 1.357 . S
C299 H312 0.928 . S
H300 C276 0.931 . S
H301 C278 0.930 . S
H302 C280 0.929 . S
H303 C281 0.931 . S
H304 C283 0.930 . S
H305 C287 0.931 . S
H306 C285 0.931 . S
H307 C289 0.931 . S
H308 C290 0.929 . S
H309 C291 0.930 . S
H310 C294 0.930 . S
H311 C295 0.931 . S
H312 C299 0.928 . S
H313 C298 0.929 . S
H314 C296 0.932 . S
C315 C316 1.386 . S
C315 C317 1.397 . S
C315 H339 0.931 . S
C316 C315 1.386 . S
C316 C320 1.397 . S
C317 C315 1.397 . S
C317 C318 1.384 . S
C317 H340 0.930 . S
C318 C317 1.384 . S
C318 C319 1.377 . S
C318 C321 1.481 . S
C319 C318 1.377 . S
C319 C320 1.389 . S
C319 H341 0.929 . S
C320 C316 1.397 . S
C320 C319 1.389 . S
C320 H342 0.931 . S
C321 C318 1.481 . S
C321 C322 1.387 . S
C321 C326 1.390 . S
C322 C321 1.387 . S
C322 C323 1.401 . S
C322 H343 0.930 . S
C323 C322 1.401 . S
C323 C324 1.376 . S
C323 C332 1.511 . S
C324 C323 1.376 . S
C324 C325 1.392 . S
C324 H345 0.931 . S
C325 C324 1.392 . S
C325 C326 1.361 . S
C325 C327 1.500 . S
C326 C321 1.390 . S
C326 C325 1.361 . S
C326 H344 0.931 . S
C327 C325 1.500 . S
C327 C328 1.371 . S
C327 C329 1.365 . S
C328 C327 1.371 . S
C328 C338 1.386 . S
C328 H346 0.931 . S
C329 C327 1.365 . S
C329 C330 1.409 . S
C329 H347 0.929 . S
C330 C329 1.409 . S
C330 C331 1.380 . S
C330 H348 0.930 . S
C331 C330 1.380 . S
C331 C338 1.357 . S
C332 C323 1.511 . S
C332 C333 1.341 . S
C332 C334 1.371 . S
C333 C332 1.341 . S
C333 C337 1.394 . S
C333 H349 0.930 . S
C334 C332 1.371 . S
C334 C335 1.392 . S
C334 H350 0.931 . S
C335 C334 1.392 . S
C335 C336 1.331 . S
C335 H353 0.932 . S
C336 C335 1.331 . S
C336 C337 1.336 . S
C337 C333 1.394 . S
C337 C336 1.336 . S
C337 H352 0.929 . S
C338 C328 1.386 . S
C338 C331 1.357 . S
C338 H351 0.928 . S
H339 C315 0.931 . S
H340 C317 0.930 . S
H341 C319 0.929 . S
H342 C320 0.931 . S
H343 C322 0.930 . S
H344 C326 0.931 . S
H345 C324 0.931 . S
H346 C328 0.931 . S
H347 C329 0.929 . S
H348 C330 0.930 . S
H349 C333 0.930 . S
H350 C334 0.931 . S
H351 C338 0.928 . S
H352 C337 0.929 . S
H353 C335 0.932 . S
H354 C360 0.930 . S
H355 C364 0.930 . S
H356 C369 0.929 . S
H357 C367 0.929 . S
H358 C362 0.929 . S
H359 C368 0.929 . S
C360 H354 0.930 . S
C360 C361 1.367 . S
C360 C368 1.378 . S
C361 C360 1.367 . S
C361 C369 1.433 . S
C362 H358 0.929 . S
C362 C364 1.378 . S
C362 C366 1.350 . S
C363 C366 1.463 . S
C363 C368 1.350 . S
C363 N371 1.427 . S
C364 H355 0.930 . S
C364 C362 1.378 . S
C364 C365 1.367 . S
C365 C364 1.367 . S
C365 C367 1.433 . S
C366 C362 1.350 . S
C366 C363 1.463 . S
C366 N370 1.427 . S
C367 H357 0.929 . S
C367 C365 1.433 . S
C367 N370 1.384 . S
C368 H359 0.929 . S
C368 C360 1.378 . S
C368 C363 1.350 . S
C369 H356 0.929 . S
C369 C361 1.433 . S
C369 N371 1.384 . S
N370 C366 1.427 . S
N370 C367 1.384 . S
N371 C363 1.427 . S
N371 C369 1.384 . S
H372 C378 0.930 . S
H373 C382 0.930 . S
H374 C387 0.929 . S
H375 C385 0.929 . S
H376 C380 0.929 . S
H377 C386 0.929 . S
C378 H372 0.930 . S
C378 C379 1.367 . S
C378 C386 1.378 . S
C379 C378 1.367 . S
C379 C387 1.433 . S
C380 H376 0.929 . S
C380 C382 1.378 . S
C380 C384 1.350 . S
C381 C384 1.463 . S
C381 C386 1.350 . S
C381 N389 1.427 . S
C382 H373 0.930 . S
C382 C380 1.378 . S
C382 C383 1.367 . S
C383 C382 1.367 . S
C383 C385 1.433 . S
C384 C380 1.350 . S
C384 C381 1.463 . S
C384 N388 1.427 . S
C385 H375 0.929 . S
C385 C383 1.433 . S
C385 N388 1.384 . S
C386 H377 0.929 . S
C386 C378 1.378 . S
C386 C381 1.350 . S
C387 H374 0.929 . S
C387 C379 1.433 . S
C387 N389 1.384 . S
N388 C384 1.427 . S
N388 C385 1.384 . S
N389 C381 1.427 . S
N389 C387 1.384 . S
H390 C396 0.930 . S
H391 C400 0.930 . S
H392 C405 0.929 . S
H393 C403 0.929 . S
H394 C398 0.929 . S
H395 C404 0.929 . S
C396 H390 0.930 . S
C396 C397 1.367 . S
C396 C404 1.378 . S
C397 C396 1.367 . S
C397 C405 1.433 . S
C398 H394 0.929 . S
C398 C400 1.378 . S
C398 C402 1.350 . S
C399 C402 1.463 . S
C399 C404 1.350 . S
C399 N407 1.427 . S
C400 H391 0.930 . S
C400 C398 1.378 . S
C400 C401 1.367 . S
C401 C400 1.367 . S
C401 C403 1.433 . S
C402 C398 1.350 . S
C402 C399 1.463 . S
C402 N406 1.427 . S
C403 H393 0.929 . S
C403 C401 1.433 . S
C403 N406 1.384 . S
C404 H395 0.929 . S
C404 C396 1.378 . S
C404 C399 1.350 . S
C405 H392 0.929 . S
C405 C397 1.433 . S
C405 N407 1.384 . S
N406 C402 1.427 . S
N406 C403 1.384 . S
N407 C399 1.427 . S
N407 C405 1.384 . S
H408 C414 0.930 . S
H409 C418 0.930 . S
H410 C423 0.929 . S
H411 C421 0.929 . S
H412 C416 0.929 . S
H413 C422 0.929 . S
C414 H408 0.930 . S
C414 C415 1.367 . S
C414 C422 1.378 . S
C415 C414 1.367 . S
C415 C423 1.433 . S
C416 H412 0.929 . S
C416 C418 1.378 . S
C416 C420 1.350 . S
C417 C420 1.463 . S
C417 C422 1.350 . S
C417 N425 1.427 . S
C418 H409 0.930 . S
C418 C416 1.378 . S
C418 C419 1.367 . S
C419 C418 1.367 . S
C419 C421 1.433 . S
C420 C416 1.350 . S
C420 C417 1.463 . S
C420 N424 1.427 . S
C421 H411 0.929 . S
C421 C419 1.433 . S
C421 N424 1.384 . S
C422 H413 0.929 . S
C422 C414 1.378 . S
C422 C417 1.350 . S
C423 H410 0.929 . S
C423 C415 1.433 . S
C423 N425 1.384 . S
N424 C420 1.427 . S
N424 C421 1.384 . S
N425 C417 1.427 . S
N425 C423 1.384 . S
H426 C432 0.930 . S
H427 C436 0.930 . S
H428 C441 0.929 . S
H429 C439 0.929 . S
H430 C434 0.929 . S
H431 C440 0.929 . S
C432 H426 0.930 . S
C432 C433 1.367 . S
C432 C440 1.378 . S
C433 C432 1.367 . S
C433 C441 1.433 . S
C434 H430 0.929 . S
C434 C436 1.378 . S
C434 C438 1.350 . S
C435 C438 1.463 . S
C435 C440 1.350 . S
C435 N443 1.427 . S
C436 H427 0.930 . S
C436 C434 1.378 . S
C436 C437 1.367 . S
C437 C436 1.367 . S
C437 C439 1.433 . S
C438 C434 1.350 . S
C438 C435 1.463 . S
C438 N442 1.427 . S
C439 H429 0.929 . S
C439 C437 1.433 . S
C439 N442 1.384 . S
C440 H431 0.929 . S
C440 C432 1.378 . S
C440 C435 1.350 . S
C441 H428 0.929 . S
C441 C433 1.433 . S
C441 N443 1.384 . S
N442 C438 1.427 . S
N442 C439 1.384 . S
N443 C435 1.427 . S
N443 C441 1.384 . S
H444 C450 0.930 . S
H445 C454 0.930 . S
H446 C459 0.929 . S
H447 C457 0.929 . S
H448 C452 0.929 . S
H449 C458 0.929 . S
C450 H444 0.930 . S
C450 C451 1.367 . S
C450 C458 1.378 . S
C451 C450 1.367 . S
C451 C459 1.433 . S
C452 H448 0.929 . S
C452 C454 1.378 . S
C452 C456 1.350 . S
C453 C456 1.463 . S
C453 C458 1.350 . S
C453 N461 1.427 . S
C454 H445 0.930 . S
C454 C452 1.378 . S
C454 C455 1.367 . S
C455 C454 1.367 . S
C455 C457 1.433 . S
C456 C452 1.350 . S
C456 C453 1.463 . S
C456 N460 1.427 . S
C457 H447 0.929 . S
C457 C455 1.433 . S
C457 N460 1.384 . S
C458 H449 0.929 . S
C458 C450 1.378 . S
C458 C453 1.350 . S
C459 H446 0.929 . S
C459 C451 1.433 . S
C459 N461 1.384 . S
N460 C456 1.427 . S
N460 C457 1.384 . S
N461 C453 1.427 . S
N461 C459 1.384 . S
H462 C468 0.930 . S
H463 C472 0.930 . S
H464 C477 0.929 . S
H465 C475 0.929 . S
H466 C470 0.929 . S
H467 C476 0.929 . S
C468 H462 0.930 . S
C468 C469 1.367 . S
C468 C476 1.378 . S
C469 C468 1.367 . S
C469 C477 1.433 . S
C470 H466 0.929 . S
C470 C472 1.378 . S
C470 C474 1.350 . S
C471 C474 1.463 . S
C471 C476 1.350 . S
C471 N479 1.427 . S
C472 H463 0.930 . S
C472 C470 1.378 . S
C472 C473 1.367 . S
C473 C472 1.367 . S
C473 C475 1.433 . S
C474 C470 1.350 . S
C474 C471 1.463 . S
C474 N478 1.427 . S
C475 H465 0.929 . S
C475 C473 1.433 . S
C475 N478 1.384 . S
C476 H467 0.929 . S
C476 C468 1.378 . S
C476 C471 1.350 . S
C477 H464 0.929 . S
C477 C469 1.433 . S
C477 N479 1.384 . S
N478 C474 1.427 . S
N478 C475 1.384 . S
N479 C471 1.427 . S
N479 C477 1.384 . S
H480 C486 0.930 . S
H481 C490 0.930 . S
H482 C495 0.929 . S
H483 C493 0.929 . S
H484 C488 0.929 . S
H485 C494 0.929 . S
C486 H480 0.930 . S
C486 C487 1.367 . S
C486 C494 1.378 . S
C487 C486 1.367 . S
C487 C495 1.433 . S
C488 H484 0.929 . S
C488 C490 1.378 . S
C488 C492 1.350 . S
C489 C492 1.463 . S
C489 C494 1.350 . S
C489 N497 1.427 . S
C490 H481 0.930 . S
C490 C488 1.378 . S
C490 C491 1.367 . S
C491 C490 1.367 . S
C491 C493 1.433 . S
C492 C488 1.350 . S
C492 C489 1.463 . S
C492 N496 1.427 . S
C493 H483 0.929 . S
C493 C491 1.433 . S
C493 N496 1.384 . S
C494 H485 0.929 . S
C494 C486 1.378 . S
C494 C489 1.350 . S
C495 H482 0.929 . S
C495 C487 1.433 . S
C495 N497 1.384 . S
N496 C492 1.427 . S
N496 C493 1.384 . S
N497 C489 1.427 . S
N497 C495 1.384 . S
H498 C504 0.930 . S
H499 C508 0.930 . S
H500 C513 0.929 . S
H501 C511 0.929 . S
H502 C506 0.929 . S
H503 C512 0.929 . S
C504 H498 0.930 . S
C504 C505 1.367 . S
C504 C512 1.378 . S
C505 C504 1.367 . S
C505 C513 1.433 . S
C506 H502 0.929 . S
C506 C508 1.378 . S
C506 C510 1.350 . S
C507 C510 1.463 . S
C507 C512 1.350 . S
C507 N515 1.427 . S
C508 H499 0.930 . S
C508 C506 1.378 . S
C508 C509 1.367 . S
C509 C508 1.367 . S
C509 C511 1.433 . S
C510 C506 1.350 . S
C510 C507 1.463 . S
C510 N514 1.427 . S
C511 H501 0.929 . S
C511 C509 1.433 . S
C511 N514 1.384 . S
C512 H503 0.929 . S
C512 C504 1.378 . S
C512 C507 1.350 . S
C513 H500 0.929 . S
C513 C505 1.433 . S
C513 N515 1.384 . S
N514 C510 1.427 . S
N514 C511 1.384 . S
N515 C507 1.427 . S
N515 C513 1.384 . S
H516 C522 0.930 . S
H517 C526 0.930 . S
H518 C531 0.929 . S
H519 C529 0.929 . S
H520 C524 0.929 . S
H521 C530 0.929 . S
C522 H516 0.930 . S
C522 C523 1.367 . S
C522 C530 1.378 . S
C523 C522 1.367 . S
C523 C531 1.433 . S
C524 H520 0.929 . S
C524 C526 1.378 . S
C524 C528 1.350 . S
C525 C528 1.463 . S
C525 C530 1.350 . S
C525 N533 1.427 . S
C526 H517 0.930 . S
C526 C524 1.378 . S
C526 C527 1.367 . S
C527 C526 1.367 . S
C527 C529 1.433 . S
C528 C524 1.350 . S
C528 C525 1.463 . S
C528 N532 1.427 . S
C529 H519 0.929 . S
C529 C527 1.433 . S
C529 N532 1.384 . S
C530 H521 0.929 . S
C530 C522 1.378 . S
C530 C525 1.350 . S
C531 H518 0.929 . S
C531 C523 1.433 . S
C531 N533 1.384 . S
N532 C528 1.427 . S
N532 C529 1.384 . S
N533 C525 1.427 . S
N533 C531 1.384 . S
H534 C540 0.930 . S
H535 C544 0.930 . S
H536 C549 0.929 . S
H537 C547 0.929 . S
H538 C542 0.929 . S
H539 C548 0.929 . S
C540 H534 0.930 . S
C540 C541 1.367 . S
C540 C548 1.378 . S
C541 C540 1.367 . S
C541 C549 1.433 . S
C542 H538 0.929 . S
C542 C544 1.378 . S
C542 C546 1.350 . S
C543 C546 1.463 . S
C543 C548 1.350 . S
C543 N551 1.427 . S
C544 H535 0.930 . S
C544 C542 1.378 . S
C544 C545 1.367 . S
C545 C544 1.367 . S
C545 C547 1.433 . S
C546 C542 1.350 . S
C546 C543 1.463 . S
C546 N550 1.427 . S
C547 H537 0.929 . S
C547 C545 1.433 . S
C547 N550 1.384 . S
C548 H539 0.929 . S
C548 C540 1.378 . S
C548 C543 1.350 . S
C549 H536 0.929 . S
C549 C541 1.433 . S
C549 N551 1.384 . S
N550 C546 1.427 . S
N550 C547 1.384 . S
N551 C543 1.427 . S
N551 C549 1.384 . S
H552 C558 0.930 . S
H553 C562 0.930 . S
H554 C567 0.929 . S
H555 C565 0.929 . S
H556 C560 0.929 . S
H557 C566 0.929 . S
C558 H552 0.930 . S
C558 C559 1.367 . S
C558 C566 1.378 . S
C559 C558 1.367 . S
C559 C567 1.433 . S
C560 H556 0.929 . S
C560 C562 1.378 . S
C560 C564 1.350 . S
C561 C564 1.463 . S
C561 C566 1.350 . S
C561 N569 1.427 . S
C562 H553 0.930 . S
C562 C560 1.378 . S
C562 C563 1.367 . S
C563 C562 1.367 . S
C563 C565 1.433 . S
C564 C560 1.350 . S
C564 C561 1.463 . S
C564 N568 1.427 . S
C565 H555 0.929 . S
C565 C563 1.433 . S
C565 N568 1.384 . S
C566 H557 0.929 . S
C566 C558 1.378 . S
C566 C561 1.350 . S
C567 H554 0.929 . S
C567 C559 1.433 . S
C567 N569 1.384 . S
N568 C564 1.427 . S
N568 C565 1.384 . S
N569 C561 1.427 . S
N569 C567 1.384 . S
H570 C576 0.930 . S
H571 C580 0.930 . S
H572 C585 0.929 . S
H573 C583 0.954 1_655 S
H574 C578 0.929 . S
H575 C584 0.928 1_655 S
C576 H570 0.930 . S
C576 C577 1.367 1_655 S
C576 C584 1.378 1_655 S
C577 C576 1.367 1_455 S
C577 C585 1.433 . S
C578 H574 0.929 . S
C578 C580 1.378 . S
C578 C582 1.350 . S
C579 C582 1.463 . S
C579 C584 1.351 . S
C579 N587 1.427 . S
C580 H571 0.930 . S
C580 C578 1.378 . S
C580 C581 1.367 . S
C581 C580 1.367 . S
C581 C583 1.433 . S
C582 C578 1.350 . S
C582 C579 1.463 . S
C582 N586 1.427 . S
C583 H573 0.954 1_455 S
C583 C581 1.433 . S
C583 N586 1.384 . S
C584 H575 0.928 1_455 S
C584 C576 1.378 1_455 S
C584 C579 1.351 . S
C585 H572 0.929 . S
C585 C577 1.433 . S
C585 N587 1.384 . S
N586 C582 1.427 . S
N586 C583 1.384 . S
N587 C579 1.427 . S
N587 C585 1.384 . S
H588 C594 0.930 . S
H589 C598 0.930 . S
H590 C603 0.929 . S
H591 C601 0.929 . S
H592 C596 0.929 . S
H593 C602 0.929 . S
C594 H588 0.930 . S
C594 C595 1.367 . S
C594 C602 1.378 . S
C595 C594 1.367 . S
C595 C603 1.433 1_545 S
C596 H592 0.929 . S
C596 C598 1.378 . S
C596 C600 1.350 1_565 S
C597 C600 1.463 . S
C597 C602 1.350 . S
C597 N605 1.427 1_545 S
C598 H589 0.930 . S
C598 C596 1.378 . S
C598 C599 1.367 1_565 S
C599 C598 1.367 1_545 S
C599 C601 1.433 . S
C600 C596 1.350 1_545 S
C600 C597 1.463 . S
C600 N604 1.427 . S
C601 H591 0.929 . S
C601 C599 1.433 . S
C601 N604 1.384 . S
C602 H593 0.929 . S
C602 C594 1.378 . S
C602 C597 1.350 . S
C603 H590 0.929 . S
C603 C595 1.433 1_565 S
C603 N605 1.384 . S
N604 C600 1.427 . S
N604 C601 1.384 . S
N605 C597 1.427 1_565 S
N605 C603 1.384 . S
H606 C612 0.930 . S
H607 C616 0.930 . S
H608 C621 0.929 . S
H609 C619 0.929 . S
H610 C614 0.929 . S
H611 C620 0.929 . S
C612 H606 0.930 . S
C612 C613 1.367 . S
C612 C620 1.378 . S
C613 C612 1.367 . S
C613 C621 1.433 . S
C614 H610 0.929 . S
C614 C616 1.378 . S
C614 C618 1.350 . S
C615 C618 1.463 . S
C615 C620 1.350 . S
C615 N623 1.427 . S
C616 H607 0.930 . S
C616 C614 1.378 . S
C616 C617 1.367 . S
C617 C616 1.367 . S
C617 C619 1.433 . S
C618 C614 1.350 . S
C618 C615 1.463 . S
C618 N622 1.427 . S
C619 H609 0.929 . S
C619 C617 1.433 . S
C619 N622 1.384 . S
C620 H611 0.929 . S
C620 C612 1.378 . S
C620 C615 1.350 . S
C621 H608 0.929 . S
C621 C613 1.433 . S
C621 N623 1.384 . S
N622 C618 1.427 . S
N622 C619 1.384 . S
N623 C615 1.427 . S
N623 C621 1.384 . S
H624 C630 0.930 . S
H625 C634 0.930 . S
H626 C639 0.929 . S
H627 C637 0.929 . S
H628 C632 0.929 . S
H629 C638 0.929 . S
C630 H624 0.930 . S
C630 C631 1.367 . S
C630 C638 1.378 . S
C631 C630 1.367 . S
C631 C639 1.433 . S
C632 H628 0.929 . S
C632 C634 1.378 . S
C632 C636 1.326 1_565 S
C633 C636 1.468 . S
C633 C638 1.350 . S
C633 N641 1.449 . S
C634 H625 0.930 . S
C634 C632 1.378 . S
C634 C635 1.367 . S
C635 C634 1.367 . S
C635 C637 1.433 1_565 S
C636 C632 1.326 1_545 S
C636 C633 1.468 . S
C636 N640 1.450 . S
C637 H627 0.929 . S
C637 C635 1.433 1_545 S
C637 N640 1.384 . S
C638 H629 0.929 . S
C638 C630 1.378 . S
C638 C633 1.350 . S
C639 H626 0.929 . S
C639 C631 1.433 . S
C639 N641 1.387 . S
N640 C636 1.450 . S
N640 C637 1.384 . S
N641 C633 1.449 . S
N641 C639 1.387 . S
H642 C648 0.930 . S
H643 C652 0.930 . S
H644 C657 0.929 . S
H645 C655 0.929 . S
H646 C650 0.929 . S
H647 C656 0.929 . S
C648 H642 0.930 . S
C648 C649 1.367 . S
C648 C656 1.378 . S
C649 C648 1.367 . S
C649 C657 1.433 . S
C650 H646 0.929 . S
C650 C652 1.378 . S
C650 C654 1.350 . S
C651 C654 1.463 . S
C651 C656 1.350 . S
C651 N659 1.427 . S
C652 H643 0.930 . S
C652 C650 1.378 . S
C652 C653 1.367 . S
C653 C652 1.367 . S
C653 C655 1.433 . S
C654 C650 1.350 . S
C654 C651 1.463 . S
C654 N658 1.427 . S
C655 H645 0.929 . S
C655 C653 1.433 . S
C655 N658 1.384 . S
C656 H647 0.929 . S
C656 C648 1.378 . S
C656 C651 1.350 . S
C657 H644 0.929 . S
C657 C649 1.433 . S
C657 N659 1.384 . S
N658 C654 1.427 . S
N658 C655 1.384 . S
N659 C651 1.427 . S
N659 C657 1.384 . S
H660 C666 0.930 . S
H661 C670 0.930 . S
H662 C675 0.929 . S
H663 C673 0.929 . S
H664 C668 0.929 . S
H665 C674 0.929 . S
C666 H660 0.930 . S
C666 C667 1.367 1_655 S
C666 C674 1.378 . S
C667 C666 1.367 1_455 S
C667 C675 1.433 . S
C668 H664 0.929 . S
C668 C670 1.378 . S
C668 C672 1.350 . S
C669 C672 1.463 . S
C669 C674 1.350 1_455 S
C669 N677 1.427 . S
C670 H661 0.930 . S
C670 C668 1.378 . S
C670 C671 1.367 . S
C671 C670 1.367 . S
C671 C673 1.433 1_455 S
C672 C668 1.350 . S
C672 C669 1.463 . S
C672 N676 1.427 1_455 S
C673 H663 0.929 . S
C673 C671 1.433 1_655 S
C673 N676 1.384 . S
C674 H665 0.929 . S
C674 C666 1.378 . S
C674 C669 1.350 1_655 S
C675 H662 0.929 . S
C675 C667 1.433 . S
C675 N677 1.384 . S
N676 C672 1.427 1_655 S
N676 C673 1.384 . S
N677 C669 1.427 . S
N677 C675 1.384 . S
C361 C6 0.598 . S
C365 C331 0.572 . S
C379 C59 1.941 . S
C383 C258 1.907 . S
C397 C86 1.229 . S
C401 C297 1.243 . S
C415 C15 0.399 . S
C419 C336 0.319 . S
C437 C253 1.979 . S
C433 C50 2.034 . S
C455 C292 1.311 . S
C451 C95 1.295 . S
C469 C46 1.226 . S
C473 C180 1.226 . S
C487 C99 3.123 . S
C491 C214 3.071 . S
C505 C10 2.062 . S
C509 C136 2.016 . S
C527 C175 1.297 . S
C523 C55 1.290 . S
C545 C219 2.976 . S
C541 C90 3.008 . S
C559 C19 1.934 . S
C563 C141 1.904 . S
C581 C199 1.774 1_554 S
C577 C18 1.706 . S
C595 C49 1.333 . S
C599 C121 1.379 . S
C613 C98 1.450 . S
C617 C160 1.509 . S
C635 C277 1.489 . S
C631 C58 1.437 . S
C653 C316 1.097 1_556 S
C649 C89 1.077 . S
C667 C9 1.335 . S
C671 C238 1.366 1_455 S
