# Generated by pormake.
# Topology wbl, (4,4)-cn, num edge types: 1
# Building blocks:
#     Node 0, Type 0, BuildingBlock: MIFKUJ_clean_linker_1, # of connection points: 4
#     Node 1, Type 0, BuildingBlock: MIFKUJ_clean_linker_1, # of connection points: 4
#     Node 2, Type 0, BuildingBlock: MIFKUJ_clean_linker_1, # of connection points: 4
#     Node 3, Type 0, BuildingBlock: MIFKUJ_clean_linker_1, # of connection points: 4
#     Node 4, Type 0, BuildingBlock: MIFKUJ_clean_linker_1, # of connection points: 4
#     Node 5, Type 0, BuildingBlock: MIFKUJ_clean_linker_1, # of connection points: 4
#     Node 6, Type 0, BuildingBlock: MIFKUJ_clean_linker_1, # of connection points: 4
#     Node 7, Type 0, BuildingBlock: MIFKUJ_clean_linker_1, # of connection points: 4
#     Node 8, Type 1, BuildingBlock: QUQFOY_clean_sbu_3, # of connection points: 4
#     Node 9, Type 1, BuildingBlock: QUQFOY_clean_sbu_3, # of connection points: 4
#     Node 10, Type 1, BuildingBlock: QUQFOY_clean_sbu_3, # of connection points: 4
#     Node 11, Type 1, BuildingBlock: QUQFOY_clean_sbu_3, # of connection points: 4
#     Node 12, Type 1, BuildingBlock: QUQFOY_clean_sbu_3, # of connection points: 4
#     Node 13, Type 1, BuildingBlock: QUQFOY_clean_sbu_3, # of connection points: 4
#     Node 14, Type 1, BuildingBlock: QUQFOY_clean_sbu_3, # of connection points: 4
#     Node 15, Type 1, BuildingBlock: QUQFOY_clean_sbu_3, # of connection points: 4
#     Edge 16, Type (0, 1), BuildingBlock: EZIPEK_clean_linker_0, # of connection points: 2
#     Edge 17, Type (0, 1), BuildingBlock: EZIPEK_clean_linker_0, # of connection points: 2
#     Edge 18, Type (0, 1), BuildingBlock: EZIPEK_clean_linker_0, # of connection points: 2
#     Edge 19, Type (0, 1), BuildingBlock: EZIPEK_clean_linker_0, # of connection points: 2
#     Edge 20, Type (0, 1), BuildingBlock: EZIPEK_clean_linker_0, # of connection points: 2
#     Edge 21, Type (0, 1), BuildingBlock: EZIPEK_clean_linker_0, # of connection points: 2
#     Edge 22, Type (0, 1), BuildingBlock: EZIPEK_clean_linker_0, # of connection points: 2
#     Edge 23, Type (0, 1), BuildingBlock: EZIPEK_clean_linker_0, # of connection points: 2
#     Edge 24, Type (0, 1), BuildingBlock: EZIPEK_clean_linker_0, # of connection points: 2
#     Edge 25, Type (0, 1), BuildingBlock: EZIPEK_clean_linker_0, # of connection points: 2
#     Edge 26, Type (0, 1), BuildingBlock: EZIPEK_clean_linker_0, # of connection points: 2
#     Edge 27, Type (0, 1), BuildingBlock: EZIPEK_clean_linker_0, # of connection points: 2
#     Edge 28, Type (0, 1), BuildingBlock: EZIPEK_clean_linker_0, # of connection points: 2
#     Edge 29, Type (0, 1), BuildingBlock: EZIPEK_clean_linker_0, # of connection points: 2
#     Edge 30, Type (0, 1), BuildingBlock: EZIPEK_clean_linker_0, # of connection points: 2
#     Edge 31, Type (0, 1), BuildingBlock: EZIPEK_clean_linker_0, # of connection points: 2
#     Edge 32, Type (0, 1), BuildingBlock: EZIPEK_clean_linker_0, # of connection points: 2
#     Edge 33, Type (0, 1), BuildingBlock: EZIPEK_clean_linker_0, # of connection points: 2
#     Edge 34, Type (0, 1), BuildingBlock: EZIPEK_clean_linker_0, # of connection points: 2
#     Edge 35, Type (0, 1), BuildingBlock: EZIPEK_clean_linker_0, # of connection points: 2
#     Edge 36, Type (0, 1), BuildingBlock: EZIPEK_clean_linker_0, # of connection points: 2
#     Edge 37, Type (0, 1), BuildingBlock: EZIPEK_clean_linker_0, # of connection points: 2
#     Edge 38, Type (0, 1), BuildingBlock: EZIPEK_clean_linker_0, # of connection points: 2
#     Edge 39, Type (0, 1), BuildingBlock: EZIPEK_clean_linker_0, # of connection points: 2
#     Edge 40, Type (0, 1), BuildingBlock: EZIPEK_clean_linker_0, # of connection points: 2
#     Edge 41, Type (0, 1), BuildingBlock: EZIPEK_clean_linker_0, # of connection points: 2
#     Edge 42, Type (0, 1), BuildingBlock: EZIPEK_clean_linker_0, # of connection points: 2
#     Edge 43, Type (0, 1), BuildingBlock: EZIPEK_clean_linker_0, # of connection points: 2
#     Edge 44, Type (0, 1), BuildingBlock: EZIPEK_clean_linker_0, # of connection points: 2
#     Edge 45, Type (0, 1), BuildingBlock: EZIPEK_clean_linker_0, # of connection points: 2
#     Edge 46, Type (0, 1), BuildingBlock: EZIPEK_clean_linker_0, # of connection points: 2
#     Edge 47, Type (0, 1), BuildingBlock: EZIPEK_clean_linker_0, # of connection points: 2
# Relax obj value: 0.160
# Max RMSD: 0.160
# Mean RMSD: 0.137
data_MOF--net-wbl--node1-QUQFOY_clean_sbu_3--node2-MIFKUJ_clean_linker_1--edge1-EZIPEK_clean_linker_0
_symmetry_space_group_name_H-M    P1
_symmetry_Int_Tables_number       1
_symmetry_cell_setting            triclinic
loop_
_symmetry_equiv_pos_as_xyz
'x, y, z'
_cell_length_a     36.989286
_cell_length_b     37.345122
_cell_length_c     57.820109
_cell_angle_alpha  90.940888
_cell_angle_beta   90.252892
_cell_angle_gamma 90.084457
loop_
_atom_site_label
_atom_site_type_symbol
_atom_site_fract_x
_atom_site_fract_y
_atom_site_fract_z
_atom_type_partial_charge
H0 H 0.00772 0.07695 0.37285 0.0
H1 H 0.96859 0.10517 0.40164 0.0
H2 H 0.87462 0.07191 0.36236 0.0
H3 H 0.91366 0.04024 0.33471 0.0
H4 H 0.01176 0.01026 0.36733 0.0
H5 H 0.98214 0.10563 0.31304 0.0
H6 H 0.93227 0.14162 0.29745 0.0
H7 H 0.8842 0.04607 0.26776 0.0
H8 H 0.93401 0.01015 0.28314 0.0
H9 H 0.02184 0.93117 0.28237 0.0
H10 H 0.06705 0.88952 0.26595 0.0
H11 H 0.15248 0.95301 0.29689 0.0
H12 H 0.10768 -0.00558 0.31317 0.0
H13 H 0.00995 0.00877 0.28155 0.0
H14 H 0.04016 0.91457 0.33506 0.0
H15 H 0.07261 0.87641 0.36254 0.0
H16 H 0.11499 0.9706 0.39728 0.0
H17 H 0.08343 0.00866 0.36968 0.0
C18 C 0.96383 0.05627 0.35153 0.0
C19 C 0.9787 0.07577 0.37027 0.0
C20 C 0.95638 0.0921 0.38666 0.0
C21 C 0.91866 0.09025 0.38431 0.0
C22 C 0.90369 0.07339 0.36457 0.0
C23 C 0.92605 0.05567 0.34864 0.0
C24 C -0.01206 0.03337 0.33701 0.0
C25 C 0.0119 0.01073 0.34856 0.0
C26 C -0.013 0.03253 0.31249 0.0
C27 C 0.96144 0.05518 0.29947 0.0
C28 C 0.96132 0.09258 0.30269 0.0
C29 C 0.933 0.11309 0.29382 0.0
C30 C 0.90447 0.09632 0.28176 0.0
C31 C 0.90598 0.05936 0.27712 0.0
C32 C 0.93439 0.03893 0.28582 0.0
C33 C 0.06153 0.96566 0.29906 0.0
C34 C 0.05035 0.93653 0.2851 0.0
C35 C 0.07599 0.91281 0.27583 0.0
C36 C 0.11292 0.91834 0.28032 0.0
C37 C 0.12406 0.94847 0.29326 0.0
C38 C 0.09857 0.97201 0.30251 0.0
C39 C 0.03494 -0.01263 0.31213 0.0
C40 C 0.01029 0.00919 0.30031 0.0
C41 C 0.03539 -0.0121 0.33656 0.0
C42 C 0.0593 0.96449 0.35038 0.0
C43 C 0.05729 0.92698 0.34815 0.0
C44 C 0.07562 0.90523 0.36383 0.0
C45 C 0.09576 0.92085 0.382 0.0
C46 C 0.09943 0.95817 0.38339 0.0
C47 C 0.08136 0.97982 0.36772 0.0
H48 H 0.98269 0.43704 0.53703 0.0
H49 H 0.95007 0.38404 0.52222 0.0
H50 H 0.84949 0.42933 0.54611 0.0
H51 H 0.88204 0.48238 0.56093 0.0
H52 H 0.97939 0.51196 0.53131 0.0
H53 H 0.96592 0.4263 0.59544 0.0
H54 H 0.93944 0.39083 0.62658 0.0
H55 H 0.8658 0.47716 0.64242 0.0
H56 H 0.89282 0.51288 0.61167 0.0
H57 H -0.01303 0.61397 0.60024 0.0
H58 H 0.02651 0.6492 0.62617 0.0
H59 H 0.09981 0.5597 0.63024 0.0
H60 H 0.06185 0.52573 0.60273 0.0
H61 H 0.97281 0.52493 0.61679 0.0
H62 H -0.00893 0.61333 0.5594 0.0
H63 H 0.03222 0.65613 0.54204 0.0
H64 H 0.09437 0.56904 0.51266 0.0
H65 H 0.05461 0.52581 0.53205 0.0
C66 C 0.93477 0.46335 0.55027 0.0
C67 C 0.95352 0.43598 0.53855 0.0
C68 C 0.935 0.40583 0.53013 0.0
C69 C 0.89752 0.40293 0.5332 0.0
C70 C 0.87843 0.43129 0.54359 0.0
C71 C 0.89697 0.46135 0.5521 0.0
C72 C 0.95507 0.4921 0.5625 0.0
C73 C 0.97791 0.5148 0.54998 0.0
C74 C 0.95263 0.49643 0.58676 0.0
C75 C 0.93131 0.47217 0.60138 0.0
C76 C 0.94335 0.43711 0.60516 0.0
C77 C 0.92829 0.41694 0.62288 0.0
C78 C 0.90089 0.43156 0.63683 0.0
C79 C 0.8869 0.46549 0.63178 0.0
C80 C 0.90229 0.48581 0.61431 0.0
C81 C 0.02203 0.56764 0.59919 0.0
C82 C 0.0123 0.60253 0.60595 0.0
C83 C 0.03467 0.62247 0.62086 0.0
C84 C 0.06595 0.60695 0.63026 0.0
C85 C 0.0759 0.57222 0.62314 0.0
C86 C 0.05427 0.55286 0.60753 0.0
C87 C -0.00319 0.54469 0.58573 0.0
C88 C 0.97352 0.52266 0.59805 0.0
C89 C -0.00154 0.54147 0.56138 0.0
C90 C 0.02071 0.5665 0.54786 0.0
C91 C 0.014 0.60335 0.54971 0.0
C92 C 0.03723 0.62775 0.53956 0.0
C93 C 0.06687 0.61578 0.52651 0.0
C94 C 0.07209 0.57878 0.52308 0.0
C95 C 0.04934 0.55422 0.53397 0.0
H96 H 0.48264 0.5567 0.87094 0.0
H97 H 0.44442 0.59256 0.89684 0.0
H98 H 0.34966 0.55766 0.85901 0.0
H99 H 0.38795 0.52095 0.83321 0.0
H100 H 0.47902 0.48376 0.86614 0.0
H101 H 0.4665 0.5888 0.81461 0.0
H102 H 0.42098 0.62989 0.7988 0.0
H103 H 0.36705 0.54053 0.76531 0.0
H104 H 0.41272 0.49967 0.78071 0.0
H105 H 0.51341 0.39628 0.8036 0.0
H106 H 0.5655 0.36174 0.78917 0.0
H107 H 0.62414 0.46 0.77875 0.0
H108 H 0.572 0.49453 0.79284 0.0
H109 H 0.49312 0.49651 0.78133 0.0
H110 H 0.4858 0.40057 0.85316 0.0
H111 H 0.5177 0.36648 0.88299 0.0
H112 H 0.60715 0.44047 0.88005 0.0
H113 H 0.57561 0.474 0.84984 0.0
C114 C 0.43815 0.53621 0.85015 0.0
C115 C 0.45367 0.5569 0.86808 0.0
C116 C 0.43195 0.57742 0.88278 0.0
C117 C 0.39433 0.57758 0.87983 0.0
C118 C 0.3787 0.55779 0.86149 0.0
C119 C 0.40051 0.53702 0.84679 0.0
C120 C 0.46163 0.51236 0.83605 0.0
C121 C 0.48181 0.48641 0.84756 0.0
C122 C 0.46522 0.51567 0.81183 0.0
C123 C 0.44269 0.54124 0.79892 0.0
C124 C 0.44543 0.57827 0.80333 0.0
C125 C 0.41959 0.60163 0.79435 0.0
C126 C 0.39053 0.58805 0.78118 0.0
C127 C 0.38924 0.55139 0.77552 0.0
C128 C 0.41528 0.52815 0.78424 0.0
C129 C 0.53901 0.44788 0.79924 0.0
C130 C 0.53714 0.41036 0.79763 0.0
C131 C 0.5667 0.39072 0.78942 0.0
C132 C 0.5985 0.40846 0.78304 0.0
C133 C 0.5997 0.446 0.78357 0.0
C134 C 0.57002 0.46562 0.79152 0.0
C135 C 0.51082 0.46837 0.81165 0.0
C136 C 0.48986 0.49363 0.79984 0.0
C137 C 0.50625 0.46443 0.83567 0.0
C138 C 0.52843 0.43972 0.84944 0.0
C139 C 0.51279 0.40868 0.85841 0.0
C140 C 0.53094 0.38927 0.87534 0.0
C141 C 0.56452 0.40129 0.88385 0.0
C142 C 0.58123 0.43088 0.87369 0.0
C143 C 0.5633 0.44996 0.85652 0.0
H144 H 0.4895 0.92294 0.03471 0.0
H145 H 0.45452 0.87125 0.02038 0.0
H146 H 0.35684 0.91875 0.04725 0.0
H147 H 0.39181 0.97072 0.06154 0.0
H148 H 0.48857 -0.00121 0.03046 0.0
H149 H 0.47684 0.90951 0.09517 0.0
H150 H 0.44791 0.87471 0.12576 0.0
H151 H 0.37555 0.96274 0.14 0.0
H152 H 0.40506 -0.00221 0.10984 0.0
H153 H 0.51815 0.09823 0.08676 0.0
H154 H 0.55636 0.13469 0.11295 0.0
H155 H 0.60178 0.03846 0.14123 0.0
H156 H 0.56455 0.0021 0.11469 0.0
H157 H 0.48948 0.00418 0.11631 0.0
H158 H 0.49305 0.0845 0.03922 0.0
H159 H 0.53386 0.131 0.02494 0.0
H160 H 0.62553 0.0632 0.0386 0.0
H161 H 0.58467 0.01712 0.05377 0.0
C162 C 0.44325 0.95043 0.04932 0.0
C163 C 0.46044 0.92273 0.03696 0.0
C164 C 0.44058 0.89325 0.02889 0.0
C165 C 0.4033 0.89124 0.033 0.0
C166 C 0.38564 0.91996 0.04403 0.0
C167 C 0.40555 0.94944 0.05216 0.0
C168 C 0.46539 0.97768 0.06166 0.0
C169 C 0.48858 0.00013 0.04921 0.0
C170 C 0.46543 0.97973 0.08606 0.0
C171 C 0.44306 0.95614 0.10042 0.0
C172 C 0.45408 0.92085 0.10445 0.0
C173 C 0.43759 0.90105 0.12181 0.0
C174 C 0.4098 0.91633 0.13515 0.0
C175 C 0.3969 0.95057 0.12981 0.0
C176 C 0.41373 0.97051 0.11271 0.0
C177 C 0.53869 0.04746 0.09872 0.0
C178 C 0.53711 0.08502 0.09808 0.0
C179 C 0.55869 0.10578 0.11307 0.0
C180 C 0.58158 0.08912 0.12905 0.0
C181 C 0.58423 0.0517 0.129 0.0
C182 C 0.56295 0.03103 0.11395 0.0
C183 C 0.51289 0.02493 0.08527 0.0
C184 C 0.48909 0.00326 0.09753 0.0
C185 C 0.51225 0.02383 0.06084 0.0
C186 C 0.53598 0.04759 0.04755 0.0
C187 C 0.52183 0.07928 0.03856 0.0
C188 C 0.54505 0.10577 0.03054 0.0
C189 C 0.5826 0.10056 0.03101 0.0
C190 C 0.5966 0.06761 0.0382 0.0
C191 C 0.57338 0.04142 0.04675 0.0
H192 H -0.00981 0.56549 0.88822 0.0
H193 H 0.02889 0.59504 0.86028 0.0
H194 H 0.12308 0.56656 0.90014 0.0
H195 H 0.08469 0.53321 0.92672 0.0
H196 H -0.01461 0.49975 0.89486 0.0
H197 H 0.02033 0.59915 0.94698 0.0
H198 H 0.07086 0.63474 0.96292 0.0
H199 H 0.11244 0.54105 0.99648 0.0
H200 H 0.06242 0.5053 0.98032 0.0
H201 H 0.97246 0.42061 0.97513 0.0
H202 H 0.92388 0.38274 0.99076 0.0
H203 H 0.84488 0.46105 0.97028 0.0
H204 H 0.89307 0.49848 0.95457 0.0
H205 H -0.01125 0.5058 0.98068 0.0
H206 H 0.96348 0.40736 0.92598 0.0
H207 H 0.92431 0.36697 0.90541 0.0
H208 H 0.86806 0.45755 0.87604 0.0
H209 H 0.90833 0.49739 0.8969 0.0
C210 C 0.03432 0.54714 0.90978 0.0
C211 C 0.01918 0.56541 0.89101 0.0
C212 C 0.04123 0.58257 0.87514 0.0
C213 C 0.07892 0.58287 0.87804 0.0
C214 C 0.09406 0.56656 0.89755 0.0
C215 C 0.07206 0.54787 0.91287 0.0
C216 C 0.01051 0.52517 0.9247 0.0
C217 C -0.01398 0.50171 0.9136 0.0
C218 C 0.01193 0.52634 0.94928 0.0
C219 C 0.03806 0.54944 0.96211 0.0
C220 C 0.03992 0.58643 0.95813 0.0
C221 C 0.06851 0.60675 0.96731 0.0
C222 C 0.09523 0.59037 0.98079 0.0
C223 C 0.09188 0.55407 0.9862 0.0
C224 C 0.06341 0.53374 0.97697 0.0
C225 C 0.93618 0.46236 0.96394 0.0
C226 C 0.94476 0.42996 0.97463 0.0
C227 C 0.91719 0.40835 0.98334 0.0
C228 C 0.88098 0.41927 0.9816 0.0
C229 C 0.87272 0.45236 0.97181 0.0
C230 C 0.90012 0.47374 0.96301 0.0
C231 C 0.96355 0.48185 0.95058 0.0
C232 C -0.01161 0.50449 0.96192 0.0
C233 C 0.96281 0.48002 0.92623 0.0
C234 C 0.93797 0.45535 0.91365 0.0
C235 C 0.94172 0.4183 0.91568 0.0
C236 C 0.9181 0.39492 0.90404 0.0
C237 C 0.88886 0.40789 0.89067 0.0
C238 C 0.88714 0.44551 0.88777 0.0
C239 C 0.91096 0.46879 0.89928 0.0
H240 H 0.48984 0.56114 0.22963 0.0
H241 H 0.45671 0.61348 0.24455 0.0
H242 H 0.3564 0.56672 0.22057 0.0
H243 H 0.38952 0.51411 0.20577 0.0
H244 H 0.48346 0.48117 0.23398 0.0
H245 H 0.48028 0.57434 0.1664 0.0
H246 H 0.44992 0.6095 0.13641 0.0
H247 H 0.3664 0.52909 0.13069 0.0
H248 H 0.39712 0.49368 0.16031 0.0
H249 H 0.49145 0.41721 0.14096 0.0
H250 H 0.53343 0.38516 0.11541 0.0
H251 H 0.6229 0.41847 0.15875 0.0
H252 H 0.58101 0.45163 0.1841 0.0
H253 H 0.4867 0.48474 0.14824 0.0
H254 H 0.50454 0.3856 0.19343 0.0
H255 H 0.54106 0.33884 0.21076 0.0
H256 H 0.58453 0.41554 0.26011 0.0
H257 H 0.54987 0.46347 0.24143 0.0
C258 C 0.4421 0.53399 0.2165 0.0
C259 C 0.46063 0.56166 0.2282 0.0
C260 C 0.44181 0.59149 0.23659 0.0
C261 C 0.40429 0.59389 0.23343 0.0
C262 C 0.38539 0.5652 0.22309 0.0
C263 C 0.40424 0.53535 0.21467 0.0
C264 C 0.46285 0.50668 0.20347 0.0
C265 C 0.48435 0.4818 0.21525 0.0
C266 C 0.463 0.50674 0.1791 0.0
C267 C 0.4408 0.53157 0.16547 0.0
C268 C 0.45485 0.5649 0.15918 0.0
C269 C 0.43756 0.58491 0.14217 0.0
C270 C 0.40608 0.57172 0.13137 0.0
C271 C 0.39058 0.53968 0.13895 0.0
C272 C 0.40807 0.51954 0.15576 0.0
C273 C 0.53305 0.43692 0.16442 0.0
C274 C 0.52006 0.41759 0.14506 0.0
C275 C 0.54391 0.39919 0.13057 0.0
C276 C 0.58113 0.39973 0.1352 0.0
C277 C 0.5942 0.41788 0.15497 0.0
C278 C 0.57031 0.43663 0.16941 0.0
C279 C 0.50777 0.45899 0.17853 0.0
C280 C 0.48569 0.48335 0.16697 0.0
C281 C 0.50611 0.45712 0.20299 0.0
C282 C 0.52528 0.42837 0.2156 0.0
C283 C 0.52231 0.39269 0.20772 0.0
C284 C 0.54297 0.3659 0.21772 0.0
C285 C 0.56603 0.37384 0.23644 0.0
C286 C 0.56736 0.40903 0.24541 0.0
C287 C 0.54738 0.43623 0.23489 0.0
H288 H 0.49314 0.92626 0.39504 0.0
H289 H 0.45353 0.89065 0.36956 0.0
H290 H 0.36018 0.93079 0.40605 0.0
H291 H 0.39985 0.96726 0.43136 0.0
H292 H 0.49225 -0.00067 0.39805 0.0
H293 H 0.47894 0.89844 0.45247 0.0
H294 H 0.43299 0.85793 0.46827 0.0
H295 H 0.37685 0.94876 0.49784 0.0
H296 H 0.42306 -0.01096 0.48257 0.0
H297 H 0.526 0.09131 0.45668 0.0
H298 H 0.57652 0.1272 0.47251 0.0
H299 H 0.63196 0.03028 0.49116 0.0
H300 H 0.58137 -0.00553 0.47572 0.0
H301 H 0.50399 -0.00729 0.48343 0.0
H302 H 0.49847 0.07788 0.40336 0.0
H303 H 0.53347 0.10739 0.37311 0.0
H304 H 0.62616 0.04281 0.39003 0.0
H305 H 0.59132 0.01371 0.42059 0.0
C306 C 0.44944 0.94935 0.41509 0.0
C307 C 0.46418 0.9272 0.39772 0.0
C308 C 0.44167 0.90682 0.38327 0.0
C309 C 0.40405 0.90828 0.38594 0.0
C310 C 0.3892 0.9294 0.40381 0.0
C311 C 0.41179 0.95003 0.41824 0.0
C312 C 0.47366 0.97331 0.42873 0.0
C313 C 0.49459 -0.00195 0.41674 0.0
C314 C 0.47684 0.97151 0.45305 0.0
C315 C 0.4541 0.94666 0.46628 0.0
C316 C 0.4573 0.90944 0.46295 0.0
C317 C 0.43121 0.88641 0.47191 0.0
C318 C 0.40137 0.90055 0.48386 0.0
C319 C 0.39963 0.93749 0.48853 0.0
C320 C 0.42596 0.96041 0.47991 0.0
C321 C 0.55016 0.04032 0.46503 0.0
C322 C 0.54871 0.07789 0.46464 0.0
C323 C 0.57736 0.09829 0.47363 0.0
C324 C 0.60786 0.08121 0.48278 0.0
C325 C 0.60856 0.04376 0.48411 0.0
C326 C 0.57975 0.02342 0.47541 0.0
C327 C 0.52282 0.01851 0.45257 0.0
C328 C 0.50133 -0.00577 0.46478 0.0
C329 C 0.51917 0.02054 0.42833 0.0
C330 C 0.54237 0.04366 0.41411 0.0
C331 C 0.52668 0.07097 0.40108 0.0
C332 C 0.5466 0.0878 0.38391 0.0
C333 C 0.58223 0.07702 0.37931 0.0
C334 C 0.59873 0.0515 0.39342 0.0
C335 C 0.57891 0.03495 0.4108 0.0
H336 H -0.0021 0.08086 0.73149 0.0
H337 H 0.96015 0.12999 0.74633 0.0
H338 H 0.86591 0.08042 0.71539 0.0
H339 H 0.9038 0.03133 0.70025 0.0
H340 H -0.00204 0.00272 0.73247 0.0
H341 H 0.97778 0.10228 0.67919 0.0
H342 H 0.9429 0.14216 0.65408 0.0
H343 H 0.89766 0.05017 0.61829 0.0
H344 H 0.93161 0.01038 0.64368 0.0
H345 H 0.02549 0.90857 0.67524 0.0
H346 H 0.05927 0.87032 0.64792 0.0
H347 H 0.11031 0.96389 0.61989 0.0
H348 H 0.0774 0.00203 0.64749 0.0
H349 H 0.00471 0.00693 0.64684 0.0
H350 H -0.00171 0.92529 0.72705 0.0
H351 H 0.03372 0.87551 0.74258 0.0
H352 H 0.13217 0.92711 0.72127 0.0
H353 H 0.09671 0.97671 0.70534 0.0
C354 C 0.95365 0.05269 0.71466 0.0
C355 C 0.96899 0.08001 0.72845 0.0
C356 C 0.94753 0.10806 0.7368 0.0
C357 C 0.91043 0.10892 0.73166 0.0
C358 C 0.89453 0.08018 0.7194 0.0
C359 C 0.91609 0.05227 0.71084 0.0
C360 C 0.97755 0.02783 0.70171 0.0
C361 C -0.00054 0.00363 0.71376 0.0
C362 C 0.97948 0.02887 0.67732 0.0
C363 C 0.95706 0.05337 0.66338 0.0
C364 C 0.95983 0.09071 0.66624 0.0
C365 C 0.94013 0.11341 0.65191 0.0
C366 C 0.9179 0.099 0.63435 0.0
C367 C 0.9147 0.06173 0.63177 0.0
C368 C 0.93411 0.0391 0.64616 0.0
C369 C 0.04909 0.95816 0.66348 0.0
C370 C 0.0447 0.92078 0.66369 0.0
C371 C 0.06374 0.899 0.64804 0.0
C372 C 0.08698 0.91443 0.63184 0.0
C373 C 0.09244 0.95158 0.63226 0.0
C374 C 0.07366 0.97327 0.64796 0.0
C375 C 0.02531 0.98196 0.67745 0.0
C376 C 0.00335 0.00605 0.66557 0.0
C377 C 0.02323 0.98054 0.70184 0.0
C378 C 0.04493 0.95444 0.71492 0.0
C379 C 0.02753 0.92636 0.72627 0.0
C380 C 0.04766 0.89803 0.73509 0.0
C381 C 0.08542 0.89777 0.73297 0.0
C382 C 0.10305 0.92707 0.72312 0.0
C383 C 0.08287 0.95519 0.714 0.0
C384 C 0.36626 0.63911 0.04598 0.0
O385 O 0.39379 0.644 0.03339 0.0
Cd386 Cd 0.3925 0.66927 0.99591 0.0
O387 O 0.33458 0.64702 0.0389 0.0
Cd388 Cd 0.30819 0.67242 1.00269 0.0
C389 C 0.35421 0.75004 0.00962 0.0
O390 O 0.34526 0.6371 0.97638 0.0
O391 O 0.31331 0.67805 0.96016 0.0
O392 O 0.25856 0.63035 0.00664 0.0
C393 C 0.3336 0.65092 0.95798 0.0
O394 O 0.38181 0.73274 1.00273 0.0
C395 C 0.23376 0.65301 1.0031 0.0
O396 O 0.3238 0.73466 0.01218 0.0
O397 O 0.24321 0.68539 1.00053 0.0
C398 C 0.37328 0.84696 0.2205 0.0
O399 O 0.4008 0.84107 0.23306 0.0
Cd400 Cd 0.39894 0.81584 0.27057 0.0
O401 O 0.34146 0.83985 0.22753 0.0
Cd402 Cd 0.31407 0.81473 0.26335 0.0
C403 C 0.35831 0.736 0.25672 0.0
O404 O 0.35237 0.84904 0.28965 0.0
O405 O 0.31828 0.80996 0.30597 0.0
O406 O 0.2665 0.85849 0.25783 0.0
C407 C 0.34006 0.83603 0.30808 0.0
O408 O 0.38637 0.75274 0.26367 0.0
C409 C 0.24059 0.83727 0.26185 0.0
O410 O 0.32824 0.752 0.25405 0.0
O411 O 0.24842 0.80461 0.26506 0.0
C412 C 0.15515 0.87029 0.46621 0.0
O413 O 0.16195 0.89853 0.47792 0.0
Cd414 Cd 0.18376 0.89692 0.51662 0.0
O415 O 0.15979 0.83932 0.47471 0.0
Cd416 Cd 0.18071 0.81166 0.51164 0.0
C417 C 0.26268 0.84915 0.50748 0.0
O418 O 0.14424 0.85431 0.53377 0.0
O419 O 0.178 0.81961 0.55402 0.0
O420 O 0.14581 0.76394 0.49213 0.0
C421 C 0.15358 0.8433 0.55351 0.0
O422 O 0.24647 0.87842 0.51203 0.0
C423 C 0.15107 0.74074 0.5075 0.0
O424 O 0.24555 0.81963 0.50582 0.0
O425 O 0.17239 0.7497 0.52383 0.0
C426 C 0.14768 0.63119 0.79542 0.0
O427 O 0.14882 0.60465 0.78141 0.0
Cd428 Cd 0.17177 0.60583 0.74327 0.0
O429 O 0.1571 0.6624 0.78901 0.0
Cd430 Cd 0.17531 0.69008 0.75139 0.0
C431 C 0.25404 0.64536 0.75527 0.0
O432 O 0.13684 0.65255 0.72718 0.0
O433 O 0.17407 0.68534 0.70841 0.0
O434 O 0.13323 0.73842 0.76061 0.0
C435 C 0.14724 0.66419 0.70793 0.0
O436 O 0.23588 0.61773 0.74937 0.0
C437 C 0.15383 0.76323 0.75374 0.0
O438 O 0.23906 0.67584 0.75767 0.0
O439 O 0.18538 0.75443 0.74724 0.0
C440 C 0.85201 0.13203 0.47002 0.0
O441 O 0.85347 0.10571 0.48363 0.0
Cd442 Cd 0.83046 0.1054 0.52191 0.0
O443 O 0.84015 0.1624 0.47697 0.0
Cd444 Cd 0.82028 0.18916 0.51485 0.0
C445 C 0.74564 0.13823 0.50981 0.0
O446 O 0.85945 0.15524 0.53985 0.0
O447 O 0.81669 0.18383 0.55741 0.0
O448 O 0.86063 0.2394 0.50892 0.0
C449 C 0.84531 0.16533 0.55872 0.0
O450 O 0.76548 0.11226 0.51601 0.0
C451 C 0.83733 0.26319 0.51384 0.0
O452 O 0.75856 0.16945 0.50708 0.0
O453 O 0.8052 0.25283 0.51766 0.0
C454 C 0.86841 0.36132 0.72274 0.0
O455 O 0.89589 0.35653 0.73553 0.0
Cd456 Cd 0.89355 0.32885 0.77239 0.0
O457 O 0.83696 0.35216 0.72939 0.0
Cd458 Cd 0.81109 0.32447 0.76481 0.0
C459 C 0.8574 0.24792 0.75644 0.0
O460 O 0.84637 0.3579 0.79389 0.0
O461 O 0.81654 0.3123 0.8063 0.0
O462 O 0.76159 0.36679 0.76137 0.0
C463 C 0.83474 0.3403 0.81085 0.0
O464 O 0.88448 0.26535 0.76428 0.0
C465 C 0.7367 0.34398 0.76434 0.0
O466 O 0.8269 0.26299 0.75356 0.0
O467 O 0.74603 0.3115 0.76647 0.0
C468 C 0.63178 0.36205 0.96959 0.0
O469 O 0.63568 0.39012 0.98203 0.0
Cd470 Cd 0.66284 0.39296 0.01935 0.0
O471 O 0.64185 0.33149 0.97677 0.0
Cd472 Cd 0.67056 0.30804 0.01291 0.0
C473 C 0.74576 0.35798 0.00551 0.0
O474 O 0.63598 0.34507 0.03969 0.0
O475 O 0.67977 0.31557 0.05518 0.0
O476 O 0.62973 0.25731 0.00882 0.0
C477 C 0.6523 0.33541 0.05781 0.0
O478 O 0.72694 0.38443 0.01254 0.0
C479 C 0.65339 0.23363 0.01275 0.0
O480 O 0.73197 0.32692 1.00272 0.0
O481 O 0.68582 0.24413 0.01559 0.0
C482 C 0.65233 0.11421 0.29379 0.0
O483 O 0.66116 0.08751 0.28119 0.0
Cd484 Cd 0.68565 0.09377 0.24357 0.0
O485 O 0.65653 0.14617 0.28678 0.0
Cd486 Cd 0.67993 0.17743 0.25178 0.0
C487 C 0.76282 0.14147 0.25711 0.0
O488 O 0.6457 0.13661 0.22681 0.0
O489 O 0.68028 0.17362 0.20905 0.0
O490 O 0.63862 0.22144 0.26909 0.0
C491 C 0.6557 0.15003 0.20793 0.0
O492 O 0.74783 0.11241 0.25046 0.0
C493 C 0.64804 0.24708 0.25636 0.0
O494 O 0.74461 0.17013 0.25984 0.0
O495 O 0.67454 0.24124 0.24298 0.0
C496 C 0.15357 0.86794 0.29068 0.0
C497 C 0.14033 0.89128 0.27354 0.0
C498 C 0.18671 0.86983 0.2466 0.0
C499 C 0.2035 0.85129 0.26496 0.0
N500 N 0.20488 0.83518 0.30533 0.0
N501 N 0.14377 0.91551 0.23528 0.0
C502 C 0.18715 0.85039 0.28715 0.0
C503 C 0.15644 0.89218 0.25137 0.0
N504 N 0.1341 0.86289 0.31041 0.0
N505 N 0.1996 0.86564 0.2246 0.0
H506 H 0.12094 0.93137 0.23801 0.0
H507 H 0.15689 0.9206 0.21979 0.0
H508 H 0.22152 0.8491 0.22066 0.0
H509 H 0.18677 0.87583 0.21007 0.0
H510 H 0.14047 0.84359 0.32257 0.0
H511 H 0.10954 0.87573 0.31361 0.0
H512 H 0.19638 0.83777 0.32242 0.0
H513 H 0.22973 0.8223 0.30379 0.0
C514 C 0.07684 0.66953 0.50233 0.0
C515 C 0.09169 0.64292 0.51666 0.0
C516 C 0.14923 0.67527 0.51666 0.0
C517 C 0.13159 0.70577 0.50755 0.0
N518 N 0.07475 0.73275 0.49545 0.0
N519 N 0.14201 0.62266 0.53993 0.0
C520 C 0.09447 0.70313 0.50094 0.0
C521 C 0.12809 0.64602 0.5243 0.0
N522 N 0.04538 0.66301 0.49055 0.0
N523 N 0.18608 0.67395 0.51774 0.0
H524 H 0.12734 0.60143 0.54664 0.0
H525 H 0.16721 0.62639 0.54777 0.0
H526 H 0.20246 0.69402 0.51105 0.0
H527 H 0.20015 0.6511 0.52263 0.0
H528 H 0.03494 0.68056 0.47838 0.0
H529 H 0.03208 0.63836 0.49114 0.0
H530 H 0.04688 0.73186 0.49274 0.0
H531 H 0.08463 0.7588 0.4963 0.0
C532 C 0.35306 0.61971 0.75167 0.0
C533 C 0.35924 0.611 0.77513 0.0
C534 C 0.30088 0.63742 0.78583 0.0
C535 C 0.29225 0.6403 0.76201 0.0
N536 N 0.30941 0.63539 0.722 0.0
N537 N 0.33871 0.60975 0.81473 0.0
C538 C 0.31835 0.63219 0.74483 0.0
C539 C 0.33339 0.62004 0.79237 0.0
N540 N 0.38054 0.61613 0.73608 0.0
N541 N 0.27762 0.65059 0.80219 0.0
H542 H 0.3622 0.59725 0.82039 0.0
H543 H 0.31894 0.61132 0.82746 0.0
H544 H 0.25288 0.66228 0.79813 0.0
H545 H 0.2841 0.65278 0.8197 0.0
H546 H 0.37897 0.62475 0.71908 0.0
H547 H 0.40623 0.6072 0.74078 0.0
H548 H 0.32544 0.62599 0.70847 0.0
H549 H 0.2849 0.64635 0.71659 0.0
C550 C 0.37449 0.84917 1.00423 0.0
C551 C 0.38379 0.85747 0.0275 0.0
C552 C 0.36275 0.79834 0.03947 0.0
C553 C 0.35874 0.78829 0.01584 0.0
N554 N 0.36017 0.80311 0.97548 0.0
N555 N 0.38877 0.84016 0.06745 0.0
C556 C 0.36409 0.81357 0.99813 0.0
C557 C 0.37789 0.83233 0.04527 0.0
N558 N 0.37534 0.87553 0.9881 0.0
N559 N 0.35256 0.77517 0.05633 0.0
H560 H 0.39957 0.86488 0.07253 0.0
H561 H 0.38935 0.82152 0.08063 0.0
H562 H 0.34252 0.74958 0.05274 0.0
H563 H 0.35123 0.7822 0.07381 0.0
H564 H 0.36586 0.87227 0.97123 0.0
H565 H 0.38291 0.90183 0.99218 0.0
H566 H 0.36779 0.81876 0.96159 0.0
H567 H 0.35056 0.77782 0.97052 0.0
C568 C 0.15672 0.61112 0.96921 0.0
C569 C 0.12941 0.60954 0.98634 0.0
C570 C 0.17017 0.63804 0.01477 0.0
C571 C 0.19681 0.64079 0.99734 0.0
N572 N 0.21372 0.63655 0.95713 0.0
N573 N 0.10737 0.62582 0.02418 0.0
C574 C 0.18946 0.62946 0.97427 0.0
C575 C 0.13529 0.62438 0.00879 0.0
N576 N 0.15203 0.59362 0.94844 0.0
N577 N 0.17863 0.64758 0.03707 0.0
H578 H 0.08171 0.61567 0.0203 0.0
H579 H 0.1087 0.63924 0.04007 0.0
H580 H 0.20355 0.65872 0.04174 0.0
H581 H 0.1619 0.64273 0.0511 0.0
H582 H 0.17252 0.59003 0.93634 0.0
H583 H 0.12834 0.58006 0.94392 0.0
H584 H 0.20817 0.63264 0.9396 0.0
H585 H 0.23848 0.64921 0.96018 0.0
C586 C 0.37731 0.63667 0.26233 0.0
C587 C 0.38569 0.62805 0.23901 0.0
C588 C 0.36517 0.68733 0.22696 0.0
C589 C 0.36195 0.69762 0.25059 0.0
N590 N 0.36438 0.68312 0.291 0.0
N591 N 0.3896 0.64489 0.19896 0.0
C592 C 0.36751 0.67243 0.26836 0.0
C593 C 0.3796 0.6531 0.22119 0.0
N594 N 0.37846 0.61048 0.27857 0.0
N595 N 0.3549 0.71049 0.21008 0.0
H596 H 0.39973 0.61994 0.1939 0.0
H597 H 0.39012 0.6634 0.18571 0.0
H598 H 0.34545 0.73627 0.21363 0.0
H599 H 0.35296 0.70334 0.19264 0.0
H600 H 0.36961 0.61399 0.29551 0.0
H601 H 0.38568 0.5841 0.27456 0.0
H602 H 0.37223 0.66755 0.3049 0.0
H603 H 0.35515 0.70851 0.29591 0.0
C604 C 0.34492 0.86752 0.47196 0.0
C605 C 0.36986 0.87778 0.48964 0.0
C606 C 0.32689 0.85978 0.5194 0.0
C607 C 0.3015 0.85105 0.50176 0.0
N608 N 0.28897 0.83719 0.46165 0.0
N609 N 0.38894 0.87531 0.52939 0.0
C610 C 0.31162 0.85142 0.47816 0.0
C611 C 0.36225 0.87098 0.51316 0.0
N612 N 0.35185 0.87555 0.4494 0.0
N613 N 0.3166 0.85856 0.54205 0.0
H614 H 0.41509 0.88331 0.52509 0.0
H615 H 0.38625 0.86817 0.54661 0.0
H616 H 0.29152 0.84853 0.54707 0.0
H617 H 0.33216 0.86856 0.55574 0.0
H618 H 0.33284 0.87312 0.43614 0.0
H619 H 0.37601 0.88691 0.44397 0.0
H620 H 0.29631 0.83337 0.44442 0.0
H621 H 0.26385 0.82618 0.46549 0.0
C622 C 0.11668 0.85771 0.7614 0.0
C623 C 0.10577 0.8647 0.73833 0.0
C624 C 0.12666 0.80536 0.72568 0.0
C625 C 0.13893 0.79888 0.74853 0.0
N626 N 0.15033 0.81948 0.7875 0.0
N627 N 0.10507 0.84811 0.69779 0.0
C628 C 0.13533 0.82528 0.76624 0.0
C629 C 0.11234 0.83943 0.72024 0.0
N630 N 0.10849 0.88179 0.77865 0.0
N631 N 0.1271 0.7783 0.7094 0.0
H632 H 0.09288 0.87206 0.69307 0.0
H633 H 0.11343 0.83278 0.6836 0.0
H634 H 0.1379 0.75303 0.71245 0.0
H635 H 0.11436 0.77981 0.69336 0.0
H636 H 0.11208 0.87684 0.79616 0.0
H637 H 0.09617 0.90636 0.77549 0.0
H638 H 0.1518 0.8388 0.80064 0.0
H639 H 0.16368 0.79577 0.79152 0.0
C640 C 0.6543 0.37758 0.79683 0.0
C641 C 0.63195 0.38797 0.77808 0.0
C642 C 0.67556 0.3629 0.75036 0.0
C643 C 0.69937 0.35589 0.76899 0.0
N644 N 0.71336 0.35788 0.80978 0.0
N645 N 0.62075 0.39219 0.73715 0.0
C646 C 0.68911 0.36323 0.79222 0.0
C647 C 0.64232 0.38087 0.75484 0.0
N648 N 0.64213 0.38141 0.81906 0.0
N649 N 0.68468 0.35186 0.72849 0.0
H650 H 0.59557 0.40405 0.73988 0.0
H651 H 0.6283 0.39152 0.71984 0.0
H652 H 0.709 0.33888 0.72479 0.0
H653 H 0.66737 0.3531 0.7143 0.0
H654 H 0.65517 0.37068 0.83333 0.0
H655 H 0.61753 0.39338 0.8233 0.0
H656 H 0.70964 0.36703 0.8267 0.0
H657 H 0.73853 0.3459 0.80728 0.0
C658 C 0.62187 0.15144 0.0447 0.0
C659 C 0.6069 0.13112 0.02598 0.0
C660 C 0.63141 0.17392 0.99829 0.0
C661 C 0.64232 0.19629 0.01708 0.0
N662 N 0.64803 0.2077 0.0581 0.0
N663 N 0.59746 0.12158 0.98511 0.0
C664 C 0.63822 0.1851 0.04027 0.0
C665 C 0.61202 0.14179 1.00276 0.0
N666 N 0.62003 0.13874 0.06674 0.0
N667 N 0.64014 0.18338 0.97626 0.0
H668 H 0.58491 0.09695 0.98776 0.0
H669 H 0.59648 0.12955 0.96797 0.0
H670 H 0.65446 0.20672 0.97267 0.0
H671 H 0.63576 0.16716 0.96172 0.0
H672 H 0.63397 0.14995 0.08075 0.0
H673 H 0.60631 0.11541 0.07101 0.0
H674 H 0.64139 0.20364 0.07533 0.0
H675 H 0.66149 0.23187 0.05564 0.0
C676 C 0.86351 0.12424 0.2525 0.0
C677 C 0.87106 0.11629 0.27591 0.0
C678 C 0.81108 0.13818 0.28723 0.0
C679 C 0.80154 0.14019 0.26352 0.0
N680 N 0.81792 0.13653 0.22332 0.0
N681 N 0.85202 0.11398 0.31577 0.0
C682 C 0.82773 0.13405 0.24606 0.0
C683 C 0.84511 0.12348 0.29343 0.0
N684 N 0.89068 0.1225 0.23659 0.0
N685 N 0.7873 0.14959 0.30382 0.0
H686 H 0.87667 0.1035 0.32115 0.0
H687 H 0.83264 0.11414 0.32876 0.0
H688 H 0.76164 0.15936 0.29999 0.0
H689 H 0.79403 0.15232 0.32126 0.0
H690 H 0.88796 0.13078 0.21957 0.0
H691 H 0.9171 0.11544 0.24098 0.0
H692 H 0.83421 0.12831 0.2096 0.0
H693 H 0.79254 0.14575 0.21817 0.0
C694 C 0.87092 0.35835 0.50487 0.0
C695 C 0.87912 0.36842 0.52807 0.0
C696 C 0.85356 0.31211 0.54181 0.0
C697 C 0.84874 0.30053 0.51848 0.0
N698 N 0.85489 0.3106 0.47766 0.0
N699 N 0.88295 0.35362 0.56852 0.0
C700 C 0.85794 0.32313 0.49993 0.0
C701 C 0.87142 0.34509 0.54656 0.0
N702 N 0.87486 0.38278 0.48771 0.0
N703 N 0.84132 0.29144 0.55948 0.0
H704 H 0.89614 0.37752 0.57284 0.0
H705 H 0.88211 0.33593 0.58223 0.0
H706 H 0.82995 0.26611 0.55695 0.0
H707 H 0.84001 0.30035 0.57661 0.0
H708 H 0.8661 0.37846 0.47076 0.0
H709 H 0.8845 0.4087 0.49081 0.0
H710 H 0.86497 0.32404 0.46343 0.0
H711 H 0.84386 0.28559 0.47346 0.0
C712 C 0.64748 0.11023 0.51304 0.0
C713 C 0.64054 0.10196 0.48939 0.0
C714 C 0.70106 0.12257 0.47882 0.0
C715 C 0.7082 0.13028 0.50252 0.0
N716 N 0.68732 0.13847 0.54156 0.0
N717 N 0.65712 0.10622 0.4492 0.0
C718 C 0.681 0.12638 0.51946 0.0
C719 C 0.66616 0.11029 0.47207 0.0
N720 N 0.62239 0.10158 0.52934 0.0
N721 N 0.72829 0.12514 0.46297 0.0
H722 H 0.63241 0.09576 0.44354 0.0
H723 H 0.67294 0.1155 0.43571 0.0
H724 H 0.75391 0.13514 0.46707 0.0
H725 H 0.72638 0.11554 0.44601 0.0
H726 H 0.62714 0.10304 0.54708 0.0
H727 H 0.59693 0.09131 0.52506 0.0
H728 H 0.66776 0.13937 0.55443 0.0
H729 H 0.71175 0.1503 0.54662 0.0
C730 C 0.88182 0.16689 0.71995 0.0
C731 C 0.88937 0.14166 0.73747 0.0
C732 C 0.86928 0.18442 0.76731 0.0
C733 C 0.86258 0.20987 0.74985 0.0
N734 N 0.85429 0.22333 0.70952 0.0
N735 N 0.88268 0.12263 0.77675 0.0
C736 C 0.86586 0.20027 0.72613 0.0
C737 C 0.88056 0.14926 0.76086 0.0
N738 N 0.89203 0.15987 0.69763 0.0
N739 N 0.86574 0.19429 0.79007 0.0
H740 H 0.89072 0.09662 0.77237 0.0
H741 H 0.8737 0.12528 0.79372 0.0
H742 H 0.85538 0.2191 0.7953 0.0
H743 H 0.87435 0.17866 0.80377 0.0
H744 H 0.8916 0.17876 0.6846 0.0
H745 H 0.90326 0.1356 0.69228 0.0
H746 H 0.8523 0.21641 0.69205 0.0
H747 H 0.84384 0.24863 0.71333 0.0
C748 C 0.83014 0.37814 0.97099 0.0
C749 C 0.85092 0.39554 0.98853 0.0
C750 C 0.80779 0.37616 0.01777 0.0
C751 C 0.78405 0.36463 0.99983 0.0
N752 N 0.77143 0.3553 0.95918 0.0
N753 N 0.86017 0.41191 0.02862 0.0
C754 C 0.79513 0.36509 0.97637 0.0
C755 C 0.84027 0.39425 0.01202 0.0
N756 N 0.84397 0.37437 0.94919 0.0
N757 N 0.79914 0.36958 0.04027 0.0
H758 H 0.88455 0.42472 0.02508 0.0
H759 H 0.8516 0.41564 0.04561 0.0
H760 H 0.77555 0.35611 0.04486 0.0
H761 H 0.81664 0.3744 0.05412 0.0
H762 H 0.83162 0.3593 0.93607 0.0
H763 H 0.86959 0.38374 0.94481 0.0
H764 H 0.77627 0.3593 0.94168 0.0
H765 H 0.74573 0.34508 0.9624 0.0
C766 C 0.56989 0.31379 0.25459 0.0
C767 C 0.588 0.34445 0.24641 0.0
C768 C 0.64584 0.31407 0.25244 0.0
C769 C 0.62726 0.28118 0.2555 0.0
N770 N 0.56975 0.24943 0.25441 0.0
N771 N 0.64402 0.37222 0.23472 0.0
C772 C 0.58873 0.28086 0.25557 0.0
C773 C 0.6263 0.34443 0.24477 0.0
N774 N 0.53447 0.31599 0.26102 0.0
N775 N 0.68195 0.31657 0.25724 0.0
H776 H 0.63085 0.39461 0.22828 0.0
H777 H 0.67154 0.37149 0.23095 0.0
H778 H 0.69674 0.29536 0.26398 0.0
H779 H 0.69606 0.34075 0.25708 0.0
H780 H 0.5209 0.29502 0.26893 0.0
H781 H 0.52007 0.34001 0.26076 0.0
H782 H 0.54177 0.24855 0.25223 0.0
H783 H 0.58166 0.22433 0.25265 0.0
C784 C 0.08713 0.88861 0.4193 0.0
C785 C 0.11039 0.89905 0.40111 0.0
C786 C 0.1635 0.88319 0.42421 0.0
C787 C 0.14025 0.87401 0.44263 0.0
N788 N 0.08076 0.8585 0.45595 0.0
N789 N 0.16922 0.89818 0.3836 0.0
C790 C 0.10228 0.87334 0.43948 0.0
C791 C 0.1482 0.89354 0.40271 0.0
N792 N 0.05087 0.89547 0.41795 0.0
N793 N 0.2001 0.8831 0.42761 0.0
H794 H 0.15841 0.90556 0.36767 0.0
H795 H 0.19659 0.89188 0.38291 0.0
H796 H 0.21205 0.87391 0.44279 0.0
H797 H 0.21856 0.89337 0.41591 0.0
H798 H 0.03323 0.89272 0.43178 0.0
H799 H 0.03852 0.90616 0.40338 0.0
H800 H 0.05319 0.85395 0.45368 0.0
H801 H 0.09106 0.84773 0.47114 0.0
C802 C 0.12415 0.63254 0.64634 0.0
C803 C 0.08666 0.62559 0.64902 0.0
C804 C 0.08882 0.6544 0.68722 0.0
C805 C 0.12712 0.65471 0.68643 0.0
N806 N 0.18186 0.63923 0.66578 0.0
N807 N 0.03502 0.6233 0.67461 0.0
C808 C 0.14512 0.64283 0.66605 0.0
C809 C 0.06932 0.63486 0.67013 0.0
N810 N 0.13962 0.62982 0.62498 0.0
N811 N 0.07092 0.67342 0.70399 0.0
H812 H 0.02025 0.60687 0.66328 0.0
H813 H 0.02285 0.62673 0.69071 0.0
H814 H 0.08424 0.68983 0.71608 0.0
H815 H 0.04288 0.67628 0.70406 0.0
H816 H 0.16611 0.63774 0.62173 0.0
H817 H 0.12483 0.62314 0.6101 0.0
H818 H 0.19569 0.62711 0.65208 0.0
H819 H 0.19833 0.64515 0.67998 0.0
C820 C 0.37347 0.63521 0.898 0.0
C821 C 0.37177 0.59728 0.89695 0.0
C822 C 0.33435 0.59752 0.93173 0.0
C823 C 0.34222 0.63436 0.93525 0.0
N824 N 0.37078 0.68862 0.92231 0.0
N825 N 0.35285 0.54157 0.91387 0.0
C826 C 0.36165 0.65357 0.91834 0.0
C827 C 0.35235 0.57817 0.91391 0.0
N828 N 0.38638 0.65353 0.8795 0.0
N829 N 0.30924 0.58119 0.94529 0.0
H830 H 0.36581 0.52616 0.90122 0.0
H831 H 0.34276 0.52647 0.9274 0.0
H832 H 0.29495 0.59494 0.95817 0.0
H833 H 0.29987 0.55523 0.94214 0.0
H834 H 0.3853 0.6813 0.87832 0.0
H835 H 0.39497 0.64063 0.86434 0.0
H836 H 0.38847 0.70272 0.91185 0.0
H837 H 0.36274 0.70303 0.93699 0.0
C838 C 0.37694 0.86727 0.156 0.0
C839 C 0.39815 0.89897 0.1568 0.0
C840 C 0.39567 0.89973 0.19908 0.0
C841 C 0.37865 0.86571 0.19842 0.0
N842 N 0.35617 0.81486 0.17644 0.0
N843 N 0.4338 0.94157 0.17916 0.0
C844 C 0.36982 0.8489 0.17692 0.0
C845 C 0.40912 0.91425 0.17836 0.0
N846 N 0.36318 0.85514 0.13534 0.0
N847 N 0.39813 0.91866 0.21947 0.0
H848 H 0.44528 0.95256 0.16444 0.0
H849 H 0.44563 0.95096 0.19448 0.0
H850 H 0.38776 0.90929 0.235 0.0
H851 H 0.40695 0.94515 0.22052 0.0
H852 H 0.34462 0.83422 0.13387 0.0
H853 H 0.3681 0.86793 0.11975 0.0
H854 H 0.35293 0.79969 0.16131 0.0
H855 H 0.35049 0.8007 0.1914 0.0
C856 C 0.12795 0.57715 0.84784 0.0
C857 C 0.10207 0.59855 0.85972 0.0
C858 C 0.10909 0.64532 0.83077 0.0
C859 C 0.13606 0.62433 0.81954 0.0
N860 N 0.18052 0.57752 0.82322 0.0
N861 N 0.07748 0.65753 0.86667 0.0
C862 C 0.1487 0.59272 0.83013 0.0
C863 C 0.09588 0.63425 0.85259 0.0
N864 N 0.13105 0.54137 0.85201 0.0
N865 N 0.09415 0.67422 0.82019 0.0
H866 H 0.06831 0.6504 0.88301 0.0
H867 H 0.07487 0.68469 0.86317 0.0
H868 H 0.10186 0.68292 0.80394 0.0
H869 H 0.0717 0.68774 0.82676 0.0
H870 H 0.14731 0.5244 0.84205 0.0
H871 H 0.11461 0.52776 0.86352 0.0
H872 H 0.19218 0.55594 0.83169 0.0
H873 H 0.19715 0.58918 0.81088 0.0
C874 C 0.39992 0.57096 0.08827 0.0
C875 C 0.39276 0.58829 0.1098 0.0
C876 C 0.36586 0.6391 0.08959 0.0
C877 C 0.37142 0.62073 0.06821 0.0
N878 N 0.38493 0.56579 0.04758 0.0
N879 N 0.36367 0.63561 0.13152 0.0
C880 C 0.38569 0.58556 0.0677 0.0
C881 C 0.37403 0.62142 0.11064 0.0
N882 N 0.42184 0.54149 0.08728 0.0
N883 N 0.35436 0.67387 0.08973 0.0
H884 H 0.36951 0.62333 0.14718 0.0
H885 H 0.34695 0.65788 0.13325 0.0
H886 H 0.34769 0.6874 0.07467 0.0
H887 H 0.35366 0.69004 0.10456 0.0
H888 H 0.43125 0.53032 0.07183 0.0
H889 H 0.43349 0.53006 0.10185 0.0
H890 H 0.39152 0.5387 0.0467 0.0
H891 H 0.37413 0.57546 0.03219 0.0
C892 C 0.38037 0.85125 0.36822 0.0
C893 C 0.3807 0.88922 0.36882 0.0
C894 C 0.34349 0.88993 0.33378 0.0
C895 C 0.34936 0.85267 0.33073 0.0
N896 N 0.37483 0.79741 0.34448 0.0
N897 N 0.36506 0.94533 0.35107 0.0
C898 C 0.36764 0.83296 0.34799 0.0
C899 C 0.36248 0.90882 0.35149 0.0
N900 N 0.39221 0.83284 0.38701 0.0
N901 N 0.31936 0.90713 0.31986 0.0
H902 H 0.37887 0.96042 0.3636 0.0
H903 H 0.35591 0.96049 0.33727 0.0
H904 H 0.30435 0.89378 0.30704 0.0
H905 H 0.31143 0.9336 0.32265 0.0
H906 H 0.38964 0.8052 0.3885 0.0
H907 H 0.40146 0.8457 0.40208 0.0
H908 H 0.39167 0.78272 0.35523 0.0
H909 H 0.36604 0.78304 0.32991 0.0
C910 C 0.14177 0.8874 0.61304 0.0
C911 C 0.10379 0.89235 0.6132 0.0
C912 C 0.09864 0.85826 0.57678 0.0
C913 C 0.13687 0.85813 0.57486 0.0
N914 N 0.1951 0.87721 0.58974 0.0
N915 N 0.0462 0.88709 0.59351 0.0
C916 C 0.15863 0.87363 0.59271 0.0
C917 C 0.08217 0.87886 0.59467 0.0
N918 N 0.16164 0.89552 0.63241 0.0
N919 N 0.07807 0.83781 0.56194 0.0
H920 H 0.03295 0.90238 0.6061 0.0
H921 H 0.03019 0.88139 0.57904 0.0
H922 H 0.08919 0.82149 0.54901 0.0
H923 H 0.05035 0.83411 0.564 0.0
H924 H 0.18892 0.88918 0.63412 0.0
H925 H 0.15 0.90551 0.64761 0.0
H926 H 0.21161 0.89176 0.60112 0.0
H927 H 0.20851 0.86857 0.57486 0.0
C928 C 0.56249 0.39374 0.92684 0.0
C929 C 0.57984 0.38633 0.90542 0.0
C930 C 0.63078 0.35905 0.92595 0.0
C931 C 0.61262 0.36537 0.9472 0.0
N932 N 0.55723 0.37892 0.96726 0.0
N933 N 0.62635 0.35543 0.88403 0.0
C934 C 0.57713 0.3795 0.9474 0.0
C935 C 0.61271 0.3668 0.9048 0.0
N936 N 0.53331 0.41616 0.92783 0.0
N937 N 0.6658 0.34743 0.926 0.0
H938 H 0.61352 0.36061 0.86833 0.0
H939 H 0.64844 0.33832 0.88247 0.0
H940 H 0.67973 0.34115 0.94111 0.0
H941 H 0.68182 0.34629 0.91124 0.0
H942 H 0.5223 0.42558 0.94332 0.0
H943 H 0.52207 0.4282 0.91335 0.0
H944 H 0.52992 0.38564 0.96787 0.0
H945 H 0.567 0.36807 0.9826 0.0
C946 C 0.63883 0.11281 0.14699 0.0
C947 C 0.6006 0.11021 0.14737 0.0
C948 C 0.59948 0.14272 0.18445 0.0
C949 C 0.63762 0.13975 0.18592 0.0
N950 N 0.69399 0.11938 0.16944 0.0
N951 N 0.54428 0.11895 0.16776 0.0
C952 C 0.65757 0.12456 0.16728 0.0
C953 C 0.58076 0.12447 0.16634 0.0
N954 N 0.6571 0.1042 0.12718 0.0
N955 N 0.58123 0.16367 0.20009 0.0
H956 H 0.52931 0.10551 0.155 0.0
H957 H 0.52931 0.12509 0.18251 0.0
H958 H 0.59422 0.17824 0.21326 0.0
H959 H 0.55383 0.16963 0.19852 0.0
H960 H 0.68466 0.10881 0.12506 0.0
H961 H 0.644 0.09551 0.11207 0.0
H962 H 0.70921 0.10479 0.15747 0.0
H963 H 0.70871 0.12726 0.18408 0.0
C964 C 0.89971 0.13963 0.4117 0.0
C965 C 0.89554 0.10378 0.40358 0.0
C966 C 0.85202 0.09356 0.43443 0.0
C967 C 0.86301 0.1259 0.44558 0.0
N968 N 0.90098 0.17887 0.44532 0.0
N969 N 0.87156 0.04432 0.41025 0.0
C970 C 0.88744 0.14915 0.43424 0.0
C971 C 0.87236 0.08012 0.41555 0.0
N972 N 0.91542 0.1645 0.39788 0.0
N973 N 0.82205 0.07573 0.44182 0.0
H974 H 0.88782 0.03234 0.39769 0.0
H975 H 0.85753 0.02587 0.42017 0.0
H976 H 0.80557 0.08572 0.45504 0.0
H977 H 0.81138 0.0535 0.43302 0.0
H978 H 0.91636 0.19169 0.40217 0.0
H979 H 0.92394 0.1584 0.38108 0.0
H980 H 0.92175 0.19431 0.43852 0.0
H981 H 0.89404 0.18643 0.46213 0.0
C982 C 0.87029 0.38154 0.65814 0.0
C983 C 0.89061 0.41381 0.65866 0.0
C984 C 0.88945 0.41449 0.701 0.0
C985 C 0.87325 0.38007 0.70057 0.0
N986 N 0.85208 0.32843 0.67877 0.0
N987 N 0.92589 0.45724 0.68057 0.0
C988 C 0.86443 0.36296 0.67914 0.0
C989 C 0.9019 0.42932 0.68009 0.0
N990 N 0.85612 0.36906 0.63768 0.0
N991 N 0.89199 0.43356 0.72133 0.0
H992 H 0.93661 0.46848 0.6657 0.0
H993 H 0.93797 0.46692 0.69574 0.0
H994 H 0.88227 0.42402 0.73699 0.0
H995 H 0.90019 0.46025 0.72224 0.0
H996 H 0.83806 0.34768 0.63649 0.0
H997 H 0.86012 0.38196 0.62202 0.0
H998 H 0.84898 0.31322 0.66364 0.0
H999 H 0.8476 0.31392 0.69374 0.0
C1000 C 0.58666 0.07441 0.33618 0.0
C1001 C 0.60001 0.08815 0.3576 0.0
C1002 C 0.64881 0.11908 0.33732 0.0
C1003 C 0.63354 0.10757 0.31587 0.0
N1004 N 0.58297 0.08203 0.29482 0.0
N1005 N 0.64021 0.12776 0.37869 0.0
C1006 C 0.60097 0.08753 0.31529 0.0
C1007 C 0.63006 0.11181 0.35823 0.0
N1008 N 0.56136 0.04764 0.33572 0.0
N1009 N 0.68184 0.13553 0.3378 0.0
H1010 H 0.62719 0.12273 0.39428 0.0
H1011 H 0.65956 0.14799 0.37994 0.0
H1012 H 0.6963 0.14125 0.32286 0.0
H1013 H 0.69616 0.14107 0.35298 0.0
H1014 H 0.5537 0.03401 0.32061 0.0
H1015 H 0.55057 0.0365 0.35061 0.0
H1016 H 0.55719 0.07083 0.29377 0.0
H1017 H 0.59203 0.09207 0.27914 0.0
C1018 C 0.86045 0.12262 0.61743 0.0
C1019 C 0.89878 0.12241 0.61782 0.0
C1020 C 0.89948 0.16104 0.58411 0.0
C1021 C 0.86192 0.15501 0.58097 0.0
N1022 N 0.80655 0.12726 0.59383 0.0
N1023 N 0.95538 0.13859 0.59996 0.0
C1024 C 0.84211 0.13556 0.59761 0.0
C1025 C 0.91856 0.14126 0.60092 0.0
N1026 N 0.8417 0.11047 0.63605 0.0
N1027 N 0.91681 0.18603 0.57115 0.0
H1028 H 0.97061 0.12388 0.61165 0.0
H1029 H 0.97059 0.14851 0.58635 0.0
H1030 H 0.90331 0.20173 0.5591 0.0
H1031 H 0.94349 0.19387 0.57416 0.0
H1032 H 0.81378 0.11299 0.63767 0.0
H1033 H 0.85454 0.10117 0.6509 0.0
H1034 H 0.79213 0.10969 0.60414 0.0
H1035 H 0.79209 0.13551 0.57938 0.0
C1036 C 0.87164 0.3471 0.87216 0.0
C1037 C 0.8632 0.38334 0.8772 0.0
C1038 C 0.82345 0.38399 0.84334 0.0
C1039 C 0.84114 0.35271 0.83488 0.0
N1040 N 0.88027 0.30223 0.84217 0.0
N1041 N 0.81132 0.42172 0.87703 0.0
C1042 C 0.86434 0.33323 0.84966 0.0
C1043 C 0.83276 0.39759 0.86567 0.0
N1044 N 0.88035 0.32461 0.88962 0.0
N1045 N 0.7987 0.40117 0.8299 0.0
H1046 H 0.81661 0.42923 0.89421 0.0
H1047 H 0.78686 0.43101 0.87048 0.0
H1048 H 0.79012 0.39112 0.81384 0.0
H1049 H 0.788 0.42616 0.83423 0.0
H1050 H 0.88395 0.29714 0.8871 0.0
H1051 H 0.87797 0.33277 0.90691 0.0
H1052 H 0.90008 0.28924 0.85179 0.0
H1053 H 0.87542 0.29092 0.82583 0.0
C1054 C 0.62577 0.40408 0.10278 0.0
C1055 C 0.60612 0.3826 0.1184 0.0
C1056 C 0.6224 0.32848 0.09632 0.0
C1057 C 0.64161 0.35011 0.08062 0.0
N1058 N 0.67115 0.40594 0.07269 0.0
N1059 N 0.59321 0.32443 0.13374 0.0
C1060 C 0.64643 0.38715 0.08513 0.0
C1061 C 0.60701 0.34471 0.1164 0.0
N1062 N 0.62308 0.44058 0.10393 0.0
N1063 N 0.61734 0.2929 0.09145 0.0
H1064 H 0.58189 0.33575 0.14866 0.0
H1065 H 0.59585 0.29671 0.13435 0.0
H1066 H 0.62896 0.28009 0.07715 0.0
H1067 H 0.6001 0.27653 0.10075 0.0
H1068 H 0.63335 0.45734 0.09131 0.0
H1069 H 0.6083 0.45419 0.1166 0.0
H1070 H 0.67827 0.43237 0.07647 0.0
H1071 H 0.68742 0.39374 0.06013 0.0
loop_
_geom_bond_atom_site_label_1
_geom_bond_atom_site_label_2
_geom_bond_distance
_geom_bond_site_symmetry_2
_ccdc_geom_bond_type
H0 C19 0.949 . S
H1 C20 0.950 . S
H2 C22 0.950 . S
H3 C23 0.950 . S
H4 C25 0.950 . S
H5 C28 0.950 . S
H6 C29 0.950 . S
H7 C31 0.951 . S
H8 C32 0.949 . S
H9 C34 0.949 . S
H10 C35 0.950 . S
H11 C37 0.950 . S
H12 C38 0.950 . S
H13 C40 0.952 . S
H14 C43 0.950 . S
H15 C44 0.950 . S
H16 C46 0.951 . S
H17 C47 0.949 1_545 S
C18 C19 1.376 . S
C18 C23 1.386 . S
C18 C24 1.483 . S
C19 H0 0.949 . S
C19 C18 1.376 . S
C19 C20 1.397 . S
C20 H1 0.950 . S
C20 C19 1.397 . S
C20 C21 1.391 . S
C21 C20 1.391 . S
C21 C22 1.405 . S
C22 H2 0.950 . S
C22 C21 1.405 . S
C22 C23 1.367 . S
C23 H3 0.950 . S
C23 C18 1.386 . S
C23 C22 1.367 . S
C24 C18 1.483 . S
C24 C25 1.382 1_655 S
C24 C26 1.403 . S
C25 H4 0.950 . S
C25 C24 1.382 1_455 S
C25 C41 1.411 1_545 S
C26 C24 1.403 . S
C26 C27 1.489 . S
C26 C40 1.411 1_655 S
C27 C26 1.489 . S
C27 C28 1.383 . S
C27 C32 1.382 . S
C28 H5 0.950 . S
C28 C27 1.383 . S
C28 C29 1.395 . S
C29 H6 0.950 . S
C29 C28 1.395 . S
C29 C30 1.288 . S
C30 C29 1.288 . S
C30 C31 1.392 . S
C31 H7 0.951 . S
C31 C30 1.392 . S
C31 C32 1.392 . S
C32 H8 0.949 . S
C32 C27 1.382 . S
C32 C31 1.392 . S
C33 C34 1.376 . S
C33 C38 1.386 . S
C33 C39 1.483 . S
C34 H9 0.949 . S
C34 C33 1.376 . S
C34 C35 1.397 . S
C35 H10 0.950 . S
C35 C34 1.397 . S
C35 C36 1.391 . S
C36 C35 1.391 . S
C36 C37 1.405 . S
C37 H11 0.950 . S
C37 C36 1.405 . S
C37 C38 1.367 . S
C38 H12 0.950 . S
C38 C33 1.386 . S
C38 C37 1.367 . S
C39 C33 1.483 . S
C39 C40 1.382 1_565 S
C39 C41 1.403 . S
C40 H13 0.952 . S
C40 C26 1.411 1_455 S
C40 C39 1.382 1_545 S
C41 C25 1.411 1_565 S
C41 C39 1.403 . S
C41 C42 1.489 . S
C42 C41 1.489 . S
C42 C43 1.383 . S
C42 C47 1.382 . S
C43 H14 0.950 . S
C43 C42 1.383 . S
C43 C44 1.395 . S
C44 H15 0.950 . S
C44 C43 1.395 . S
C44 C45 1.288 . S
C45 C44 1.288 . S
C45 C46 1.392 . S
C46 H16 0.951 . S
C46 C45 1.392 . S
C46 C47 1.392 . S
C47 H17 0.949 1_565 S
C47 C42 1.382 . S
C47 C46 1.392 . S
H48 C67 0.949 1_455 S
H49 C68 0.950 . S
H50 C70 0.950 . S
H51 C71 0.950 . S
H52 C73 0.950 . S
H53 C76 0.950 . S
H54 C77 0.950 . S
H55 C79 0.951 . S
H56 C80 0.949 . S
H57 C82 0.949 . S
H58 C83 0.950 . S
H59 C85 0.950 . S
H60 C86 0.950 . S
H61 C88 0.950 . S
H62 C91 0.950 . S
H63 C92 0.950 . S
H64 C94 0.951 . S
H65 C95 0.949 . S
C66 C67 1.376 . S
C66 C71 1.386 . S
C66 C72 1.483 . S
C67 H48 0.949 1_655 S
C67 C66 1.376 . S
C67 C68 1.397 . S
C68 H49 0.950 . S
C68 C67 1.397 . S
C68 C69 1.391 . S
C69 C68 1.391 . S
C69 C70 1.405 . S
C70 H50 0.950 . S
C70 C69 1.405 . S
C70 C71 1.367 . S
C71 H51 0.950 . S
C71 C66 1.386 . S
C71 C70 1.367 . S
C72 C66 1.483 . S
C72 C73 1.382 1_655 S
C72 C74 1.403 . S
C73 H52 0.950 . S
C73 C72 1.382 1_455 S
C73 C89 1.411 . S
C74 C72 1.403 . S
C74 C75 1.489 . S
C74 C88 1.411 1_655 S
C75 C74 1.489 . S
C75 C76 1.383 . S
C75 C80 1.382 . S
C76 H53 0.950 . S
C76 C75 1.383 . S
C76 C77 1.395 . S
C77 H54 0.950 . S
C77 C76 1.395 . S
C77 C78 1.288 . S
C78 C77 1.288 . S
C78 C79 1.392 . S
C79 H55 0.951 . S
C79 C78 1.392 . S
C79 C80 1.392 . S
C80 H56 0.949 . S
C80 C75 1.382 . S
C80 C79 1.392 . S
C81 C82 1.376 . S
C81 C86 1.386 . S
C81 C87 1.483 . S
C82 H57 0.949 . S
C82 C81 1.376 . S
C82 C83 1.397 . S
C83 H58 0.950 . S
C83 C82 1.397 . S
C83 C84 1.391 . S
C84 C83 1.391 . S
C84 C85 1.405 . S
C85 H59 0.950 . S
C85 C84 1.405 . S
C85 C86 1.367 . S
C86 H60 0.950 . S
C86 C81 1.386 . S
C86 C85 1.367 . S
C87 C81 1.483 . S
C87 C88 1.382 . S
C87 C89 1.403 . S
C88 H61 0.950 . S
C88 C74 1.411 1_455 S
C88 C87 1.382 . S
C89 C73 1.411 . S
C89 C87 1.403 . S
C89 C90 1.489 . S
C90 C89 1.489 . S
C90 C91 1.383 . S
C90 C95 1.382 . S
C91 H62 0.950 . S
C91 C90 1.383 . S
C91 C92 1.395 . S
C92 H63 0.950 . S
C92 C91 1.395 . S
C92 C93 1.288 . S
C93 C92 1.288 . S
C93 C94 1.392 . S
C94 H64 0.951 . S
C94 C93 1.392 . S
C94 C95 1.392 . S
C95 H65 0.949 . S
C95 C90 1.382 . S
C95 C94 1.392 . S
H96 C115 0.949 . S
H97 C116 0.950 . S
H98 C118 0.950 . S
H99 C119 0.950 . S
H100 C121 0.950 . S
H101 C124 0.950 . S
H102 C125 0.950 . S
H103 C127 0.951 . S
H104 C128 0.949 . S
H105 C130 0.949 . S
H106 C131 0.950 . S
H107 C133 0.950 . S
H108 C134 0.950 . S
H109 C136 0.950 . S
H110 C139 0.950 . S
H111 C140 0.950 . S
H112 C142 0.951 . S
H113 C143 0.949 . S
C114 C115 1.376 . S
C114 C119 1.386 . S
C114 C120 1.483 . S
C115 H96 0.949 . S
C115 C114 1.376 . S
C115 C116 1.397 . S
C116 H97 0.950 . S
C116 C115 1.397 . S
C116 C117 1.391 . S
C117 C116 1.391 . S
C117 C118 1.405 . S
C118 H98 0.950 . S
C118 C117 1.405 . S
C118 C119 1.367 . S
C119 H99 0.950 . S
C119 C114 1.386 . S
C119 C118 1.367 . S
C120 C114 1.483 . S
C120 C121 1.382 . S
C120 C122 1.403 . S
C121 H100 0.950 . S
C121 C120 1.382 . S
C121 C137 1.411 . S
C122 C120 1.403 . S
C122 C123 1.489 . S
C122 C136 1.411 . S
C123 C122 1.489 . S
C123 C124 1.383 . S
C123 C128 1.382 . S
C124 H101 0.950 . S
C124 C123 1.383 . S
C124 C125 1.395 . S
C125 H102 0.950 . S
C125 C124 1.395 . S
C125 C126 1.288 . S
C126 C125 1.288 . S
C126 C127 1.392 . S
C127 H103 0.951 . S
C127 C126 1.392 . S
C127 C128 1.392 . S
C128 H104 0.949 . S
C128 C123 1.382 . S
C128 C127 1.392 . S
C129 C130 1.376 . S
C129 C134 1.386 . S
C129 C135 1.483 . S
C130 H105 0.949 . S
C130 C129 1.376 . S
C130 C131 1.397 . S
C131 H106 0.950 . S
C131 C130 1.397 . S
C131 C132 1.391 . S
C132 C131 1.391 . S
C132 C133 1.405 . S
C133 H107 0.950 . S
C133 C132 1.405 . S
C133 C134 1.367 . S
C134 H108 0.950 . S
C134 C129 1.386 . S
C134 C133 1.367 . S
C135 C129 1.483 . S
C135 C136 1.382 . S
C135 C137 1.403 . S
C136 H109 0.950 . S
C136 C122 1.411 . S
C136 C135 1.382 . S
C137 C121 1.411 . S
C137 C135 1.403 . S
C137 C138 1.489 . S
C138 C137 1.489 . S
C138 C139 1.383 . S
C138 C143 1.382 . S
C139 H110 0.950 . S
C139 C138 1.383 . S
C139 C140 1.395 . S
C140 H111 0.950 . S
C140 C139 1.395 . S
C140 C141 1.288 . S
C141 C140 1.288 . S
C141 C142 1.392 . S
C142 H112 0.951 . S
C142 C141 1.392 . S
C142 C143 1.392 . S
C143 H113 0.949 . S
C143 C138 1.382 . S
C143 C142 1.392 . S
H144 C163 0.949 . S
H145 C164 0.950 . S
H146 C166 0.950 . S
H147 C167 0.950 . S
H148 C169 0.950 . S
H149 C172 0.950 . S
H150 C173 0.950 . S
H151 C175 0.951 . S
H152 C176 0.949 . S
H153 C178 0.949 . S
H154 C179 0.950 . S
H155 C181 0.950 . S
H156 C182 0.950 . S
H157 C184 0.950 . S
H158 C187 0.950 . S
H159 C188 0.950 . S
H160 C190 0.951 . S
H161 C191 0.949 . S
C162 C163 1.376 . S
C162 C167 1.386 . S
C162 C168 1.483 . S
C163 H144 0.949 . S
C163 C162 1.376 . S
C163 C164 1.397 . S
C164 H145 0.950 . S
C164 C163 1.397 . S
C164 C165 1.391 . S
C165 C164 1.391 . S
C165 C166 1.405 . S
C166 H146 0.950 . S
C166 C165 1.405 . S
C166 C167 1.367 . S
C167 H147 0.950 . S
C167 C162 1.386 . S
C167 C166 1.367 . S
C168 C162 1.483 . S
C168 C169 1.382 . S
C168 C170 1.403 . S
C169 H148 0.950 . S
C169 C168 1.382 . S
C169 C185 1.411 1_565 S
C170 C168 1.403 . S
C170 C171 1.489 . S
C170 C184 1.411 1_565 S
C171 C170 1.489 . S
C171 C172 1.383 . S
C171 C176 1.382 . S
C172 H149 0.950 . S
C172 C171 1.383 . S
C172 C173 1.395 . S
C173 H150 0.950 . S
C173 C172 1.395 . S
C173 C174 1.288 . S
C174 C173 1.288 . S
C174 C175 1.392 . S
C175 H151 0.951 . S
C175 C174 1.392 . S
C175 C176 1.392 . S
C176 H152 0.949 . S
C176 C171 1.382 . S
C176 C175 1.392 . S
C177 C178 1.376 . S
C177 C182 1.386 . S
C177 C183 1.483 . S
C178 H153 0.949 . S
C178 C177 1.376 . S
C178 C179 1.397 . S
C179 H154 0.950 . S
C179 C178 1.397 . S
C179 C180 1.391 . S
C180 C179 1.391 . S
C180 C181 1.405 . S
C181 H155 0.950 . S
C181 C180 1.405 . S
C181 C182 1.367 . S
C182 H156 0.950 . S
C182 C177 1.386 . S
C182 C181 1.367 . S
C183 C177 1.483 . S
C183 C184 1.382 . S
C183 C185 1.403 . S
C184 H157 0.950 . S
C184 C170 1.411 1_545 S
C184 C183 1.382 . S
C185 C169 1.411 1_545 S
C185 C183 1.403 . S
C185 C186 1.489 . S
C186 C185 1.489 . S
C186 C187 1.383 . S
C186 C191 1.382 . S
C187 H158 0.950 . S
C187 C186 1.383 . S
C187 C188 1.395 . S
C188 H159 0.950 . S
C188 C187 1.395 . S
C188 C189 1.288 . S
C189 C188 1.288 . S
C189 C190 1.392 . S
C190 H160 0.951 . S
C190 C189 1.392 . S
C190 C191 1.392 . S
C191 H161 0.949 . S
C191 C186 1.382 . S
C191 C190 1.392 . S
H192 C211 0.949 . S
H193 C212 0.950 . S
H194 C214 0.950 . S
H195 C215 0.950 . S
H196 C217 0.950 . S
H197 C220 0.950 . S
H198 C221 0.950 . S
H199 C223 0.951 . S
H200 C224 0.949 . S
H201 C226 0.949 . S
H202 C227 0.950 . S
H203 C229 0.950 . S
H204 C230 0.950 . S
H205 C232 0.950 . S
H206 C235 0.950 . S
H207 C236 0.950 . S
H208 C238 0.951 . S
H209 C239 0.949 . S
C210 C211 1.376 . S
C210 C215 1.386 . S
C210 C216 1.483 . S
C211 H192 0.949 . S
C211 C210 1.376 . S
C211 C212 1.397 . S
C212 H193 0.950 . S
C212 C211 1.397 . S
C212 C213 1.391 . S
C213 C212 1.391 . S
C213 C214 1.405 . S
C214 H194 0.950 . S
C214 C213 1.405 . S
C214 C215 1.367 . S
C215 H195 0.950 . S
C215 C210 1.386 . S
C215 C214 1.367 . S
C216 C210 1.483 . S
C216 C217 1.382 1_455 S
C216 C218 1.403 . S
C217 H196 0.950 . S
C217 C216 1.382 1_655 S
C217 C233 1.411 . S
C218 C216 1.403 . S
C218 C219 1.489 . S
C218 C232 1.411 . S
C219 C218 1.489 . S
C219 C220 1.383 . S
C219 C224 1.382 . S
C220 H197 0.950 . S
C220 C219 1.383 . S
C220 C221 1.395 . S
C221 H198 0.950 . S
C221 C220 1.395 . S
C221 C222 1.288 . S
C222 C221 1.288 . S
C222 C223 1.392 . S
C223 H199 0.951 . S
C223 C222 1.392 . S
C223 C224 1.392 . S
C224 H200 0.949 . S
C224 C219 1.382 . S
C224 C223 1.392 . S
C225 C226 1.376 . S
C225 C230 1.386 . S
C225 C231 1.483 . S
C226 H201 0.949 . S
C226 C225 1.376 . S
C226 C227 1.397 . S
C227 H202 0.950 . S
C227 C226 1.397 . S
C227 C228 1.391 . S
C228 C227 1.391 . S
C228 C229 1.405 . S
C229 H203 0.950 . S
C229 C228 1.405 . S
C229 C230 1.367 . S
C230 H204 0.950 . S
C230 C225 1.386 . S
C230 C229 1.367 . S
C231 C225 1.483 . S
C231 C232 1.382 1_655 S
C231 C233 1.403 . S
C232 H205 0.950 . S
C232 C218 1.411 . S
C232 C231 1.382 1_455 S
C233 C217 1.411 . S
C233 C231 1.403 . S
C233 C234 1.489 . S
C234 C233 1.489 . S
C234 C235 1.383 . S
C234 C239 1.382 . S
C235 H206 0.950 . S
C235 C234 1.383 . S
C235 C236 1.395 . S
C236 H207 0.950 . S
C236 C235 1.395 . S
C236 C237 1.288 . S
C237 C236 1.288 . S
C237 C238 1.392 . S
C238 H208 0.951 . S
C238 C237 1.392 . S
C238 C239 1.392 . S
C239 H209 0.949 . S
C239 C234 1.382 . S
C239 C238 1.392 . S
H240 C259 0.949 . S
H241 C260 0.950 . S
H242 C262 0.950 . S
H243 C263 0.950 . S
H244 C265 0.950 . S
H245 C268 0.950 . S
H246 C269 0.950 . S
H247 C271 0.951 . S
H248 C272 0.949 . S
H249 C274 0.949 . S
H250 C275 0.950 . S
H251 C277 0.950 . S
H252 C278 0.950 . S
H253 C280 0.950 . S
H254 C283 0.950 . S
H255 C284 0.950 . S
H256 C286 0.951 . S
H257 C287 0.949 . S
C258 C259 1.376 . S
C258 C263 1.386 . S
C258 C264 1.483 . S
C259 H240 0.949 . S
C259 C258 1.376 . S
C259 C260 1.397 . S
C260 H241 0.950 . S
C260 C259 1.397 . S
C260 C261 1.391 . S
C261 C260 1.391 . S
C261 C262 1.405 . S
C262 H242 0.950 . S
C262 C261 1.405 . S
C262 C263 1.367 . S
C263 H243 0.950 . S
C263 C258 1.386 . S
C263 C262 1.367 . S
C264 C258 1.483 . S
C264 C265 1.382 . S
C264 C266 1.403 . S
C265 H244 0.950 . S
C265 C264 1.382 . S
C265 C281 1.411 . S
C266 C264 1.403 . S
C266 C267 1.489 . S
C266 C280 1.411 . S
C267 C266 1.489 . S
C267 C268 1.383 . S
C267 C272 1.382 . S
C268 H245 0.950 . S
C268 C267 1.383 . S
C268 C269 1.395 . S
C269 H246 0.950 . S
C269 C268 1.395 . S
C269 C270 1.288 . S
C270 C269 1.288 . S
C270 C271 1.392 . S
C271 H247 0.951 . S
C271 C270 1.392 . S
C271 C272 1.392 . S
C272 H248 0.949 . S
C272 C267 1.382 . S
C272 C271 1.392 . S
C273 C274 1.376 . S
C273 C278 1.386 . S
C273 C279 1.483 . S
C274 H249 0.949 . S
C274 C273 1.376 . S
C274 C275 1.397 . S
C275 H250 0.950 . S
C275 C274 1.397 . S
C275 C276 1.391 . S
C276 C275 1.391 . S
C276 C277 1.405 . S
C277 H251 0.950 . S
C277 C276 1.405 . S
C277 C278 1.367 . S
C278 H252 0.950 . S
C278 C273 1.386 . S
C278 C277 1.367 . S
C279 C273 1.483 . S
C279 C280 1.382 . S
C279 C281 1.403 . S
C280 H253 0.950 . S
C280 C266 1.411 . S
C280 C279 1.382 . S
C281 C265 1.411 . S
C281 C279 1.403 . S
C281 C282 1.489 . S
C282 C281 1.489 . S
C282 C283 1.383 . S
C282 C287 1.382 . S
C283 H254 0.950 . S
C283 C282 1.383 . S
C283 C284 1.395 . S
C284 H255 0.950 . S
C284 C283 1.395 . S
C284 C285 1.288 . S
C285 C284 1.288 . S
C285 C286 1.392 . S
C286 H256 0.951 . S
C286 C285 1.392 . S
C286 C287 1.392 . S
C287 H257 0.949 . S
C287 C282 1.382 . S
C287 C286 1.392 . S
H288 C307 0.949 . S
H289 C308 0.950 . S
H290 C310 0.950 . S
H291 C311 0.950 . S
H292 C313 0.950 1_565 S
H293 C316 0.950 . S
H294 C317 0.950 . S
H295 C319 0.951 . S
H296 C320 0.949 1_545 S
H297 C322 0.949 . S
H298 C323 0.950 . S
H299 C325 0.950 . S
H300 C326 0.950 . S
H301 C328 0.950 . S
H302 C331 0.950 . S
H303 C332 0.950 . S
H304 C334 0.951 . S
H305 C335 0.949 . S
C306 C307 1.376 . S
C306 C311 1.386 . S
C306 C312 1.483 . S
C307 H288 0.949 . S
C307 C306 1.376 . S
C307 C308 1.397 . S
C308 H289 0.950 . S
C308 C307 1.397 . S
C308 C309 1.391 . S
C309 C308 1.391 . S
C309 C310 1.405 . S
C310 H290 0.950 . S
C310 C309 1.405 . S
C310 C311 1.367 . S
C311 H291 0.950 . S
C311 C306 1.386 . S
C311 C310 1.367 . S
C312 C306 1.483 . S
C312 C313 1.382 1_565 S
C312 C314 1.403 . S
C313 H292 0.950 1_545 S
C313 C312 1.382 1_545 S
C313 C329 1.411 . S
C314 C312 1.403 . S
C314 C315 1.489 . S
C314 C328 1.411 1_565 S
C315 C314 1.489 . S
C315 C316 1.383 . S
C315 C320 1.382 . S
C316 H293 0.950 . S
C316 C315 1.383 . S
C316 C317 1.395 . S
C317 H294 0.950 . S
C317 C316 1.395 . S
C317 C318 1.288 . S
C318 C317 1.288 . S
C318 C319 1.392 . S
C319 H295 0.951 . S
C319 C318 1.392 . S
C319 C320 1.392 . S
C320 H296 0.949 1_565 S
C320 C315 1.382 . S
C320 C319 1.392 . S
C321 C322 1.376 . S
C321 C326 1.386 . S
C321 C327 1.483 . S
C322 H297 0.949 . S
C322 C321 1.376 . S
C322 C323 1.397 . S
C323 H298 0.950 . S
C323 C322 1.397 . S
C323 C324 1.391 . S
C324 C323 1.391 . S
C324 C325 1.405 . S
C325 H299 0.950 . S
C325 C324 1.405 . S
C325 C326 1.367 . S
C326 H300 0.950 . S
C326 C321 1.386 . S
C326 C325 1.367 . S
C327 C321 1.483 . S
C327 C328 1.382 . S
C327 C329 1.403 . S
C328 H301 0.950 . S
C328 C314 1.411 1_545 S
C328 C327 1.382 . S
C329 C313 1.411 . S
C329 C327 1.403 . S
C329 C330 1.489 . S
C330 C329 1.489 . S
C330 C331 1.383 . S
C330 C335 1.382 . S
C331 H302 0.950 . S
C331 C330 1.383 . S
C331 C332 1.395 . S
C332 H303 0.950 . S
C332 C331 1.395 . S
C332 C333 1.288 . S
C333 C332 1.288 . S
C333 C334 1.392 . S
C334 H304 0.951 . S
C334 C333 1.392 . S
C334 C335 1.392 . S
C335 H305 0.949 . S
C335 C330 1.382 . S
C335 C334 1.392 . S
H336 C355 0.949 1_455 S
H337 C356 0.950 . S
H338 C358 0.950 . S
H339 C359 0.950 . S
H340 C361 0.950 . S
H341 C364 0.950 . S
H342 C365 0.950 . S
H343 C367 0.951 . S
H344 C368 0.949 . S
H345 C370 0.949 . S
H346 C371 0.950 . S
H347 C373 0.950 . S
H348 C374 0.950 . S
H349 C376 0.950 . S
H350 C379 0.950 . S
H351 C380 0.950 . S
H352 C382 0.951 . S
H353 C383 0.949 1_545 S
C354 C355 1.376 . S
C354 C359 1.386 . S
C354 C360 1.483 . S
C355 H336 0.949 1_655 S
C355 C354 1.376 . S
C355 C356 1.397 . S
C356 H337 0.950 . S
C356 C355 1.397 . S
C356 C357 1.391 . S
C357 C356 1.391 . S
C357 C358 1.405 . S
C358 H338 0.950 . S
C358 C357 1.405 . S
C358 C359 1.367 . S
C359 H339 0.950 . S
C359 C354 1.386 . S
C359 C358 1.367 . S
C360 C354 1.483 . S
C360 C361 1.382 1_655 S
C360 C362 1.403 . S
C361 H340 0.950 . S
C361 C360 1.382 1_455 S
C361 C377 1.411 . S
C362 C360 1.403 . S
C362 C363 1.489 . S
C362 C376 1.411 1_655 S
C363 C362 1.489 . S
C363 C364 1.383 . S
C363 C368 1.382 . S
C364 H341 0.950 . S
C364 C363 1.383 . S
C364 C365 1.395 . S
C365 H342 0.950 . S
C365 C364 1.395 . S
C365 C366 1.288 . S
C366 C365 1.288 . S
C366 C367 1.392 . S
C367 H343 0.951 . S
C367 C366 1.392 . S
C367 C368 1.392 . S
C368 H344 0.949 . S
C368 C363 1.382 . S
C368 C367 1.392 . S
C369 C370 1.376 . S
C369 C374 1.386 . S
C369 C375 1.483 . S
C370 H345 0.949 . S
C370 C369 1.376 . S
C370 C371 1.397 . S
C371 H346 0.950 . S
C371 C370 1.397 . S
C371 C372 1.391 . S
C372 C371 1.391 . S
C372 C373 1.405 . S
C373 H347 0.950 . S
C373 C372 1.405 . S
C373 C374 1.367 . S
C374 H348 0.950 . S
C374 C369 1.386 . S
C374 C373 1.367 . S
C375 C369 1.483 . S
C375 C376 1.382 1_565 S
C375 C377 1.403 1_565 S
C376 H349 0.950 . S
C376 C362 1.411 1_455 S
C376 C375 1.382 1_545 S
C377 C361 1.411 . S
C377 C375 1.403 1_545 S
C377 C378 1.489 1_545 S
C378 C377 1.489 1_565 S
C378 C379 1.383 . S
C378 C383 1.382 . S
C379 H350 0.950 . S
C379 C378 1.383 . S
C379 C380 1.395 . S
C380 H351 0.950 . S
C380 C379 1.395 . S
C380 C381 1.288 . S
C381 C380 1.288 . S
C381 C382 1.392 . S
C382 H352 0.951 . S
C382 C381 1.392 . S
C382 C383 1.392 . S
C383 H353 0.949 1_565 S
C383 C378 1.382 . S
C383 C382 1.392 . S
C384 O385 1.306 . S
C384 O387 1.160 . S
O385 C384 1.306 . S
O385 Cd386 2.228 . S
Cd386 O385 2.228 . S
Cd386 O390 2.273 1_554 S
Cd386 O394 2.277 . S
O387 C384 1.160 . S
O387 Cd388 2.203 . S
Cd388 O387 2.203 . S
Cd388 O390 2.411 1_554 S
Cd388 O391 2.333 1_554 S
Cd388 O392 2.351 1_554 S
Cd388 O396 2.277 . S
Cd388 O397 2.356 1_554 S
C389 O394 1.209 . S
C389 O396 1.226 . S
O390 Cd386 2.273 1_556 S
O390 Cd388 2.411 1_556 S
O390 C393 1.320 . S
O391 Cd388 2.333 1_556 S
O391 C393 1.214 . S
O392 Cd388 2.351 1_556 S
O392 C395 1.260 . S
C393 O390 1.320 . S
C393 O391 1.214 . S
O394 Cd386 2.277 . S
O394 C389 1.209 . S
C395 O392 1.260 . S
C395 O397 1.282 . S
O396 Cd388 2.277 . S
O396 C389 1.226 . S
O397 Cd388 2.356 1_556 S
O397 C395 1.282 . S
C398 O399 1.306 . S
C398 O401 1.160 . S
O399 C398 1.306 . S
O399 Cd400 2.228 . S
Cd400 O399 2.228 . S
Cd400 O404 2.273 . S
Cd400 O408 2.277 . S
O401 C398 1.160 . S
O401 Cd402 2.203 . S
Cd402 O401 2.203 . S
Cd402 O404 2.411 . S
Cd402 O405 2.333 . S
Cd402 O406 2.352 . S
Cd402 O410 2.277 . S
Cd402 O411 2.356 . S
C403 O408 1.209 . S
C403 O410 1.226 . S
O404 Cd400 2.273 . S
O404 Cd402 2.411 . S
O404 C407 1.320 . S
O405 Cd402 2.333 . S
O405 C407 1.214 . S
O406 Cd402 2.352 . S
O406 C409 1.258 . S
C407 O404 1.320 . S
C407 O405 1.214 . S
O408 Cd400 2.277 . S
O408 C403 1.209 . S
C409 O406 1.258 . S
C409 O411 1.282 . S
O410 Cd402 2.277 . S
O410 C403 1.226 . S
O411 Cd402 2.356 . S
O411 C409 1.282 . S
C412 O413 1.306 . S
C412 O415 1.160 . S
O413 C412 1.306 . S
O413 Cd414 2.228 . S
Cd414 O413 2.228 . S
Cd414 O418 2.273 . S
Cd414 O422 2.277 . S
O415 C412 1.160 . S
O415 Cd416 2.203 . S
Cd416 O415 2.203 . S
Cd416 O418 2.411 . S
Cd416 O419 2.333 . S
Cd416 O420 2.352 . S
Cd416 O424 2.277 . S
Cd416 O425 2.356 . S
C417 O422 1.209 . S
C417 O424 1.226 . S
O418 Cd414 2.273 . S
O418 Cd416 2.411 . S
O418 C421 1.320 . S
O419 Cd416 2.333 . S
O419 C421 1.214 . S
O420 Cd416 2.352 . S
O420 C423 1.258 . S
C421 O418 1.320 . S
C421 O419 1.214 . S
O422 Cd414 2.277 . S
O422 C417 1.209 . S
C423 O420 1.258 . S
C423 O425 1.282 . S
O424 Cd416 2.277 . S
O424 C417 1.226 . S
O425 Cd416 2.356 . S
O425 C423 1.282 . S
C426 O427 1.306 . S
C426 O429 1.160 . S
O427 C426 1.306 . S
O427 Cd428 2.228 . S
Cd428 O427 2.228 . S
Cd428 O432 2.273 . S
Cd428 O436 2.277 . S
O429 C426 1.160 . S
O429 Cd430 2.203 . S
Cd430 O429 2.203 . S
Cd430 O432 2.411 . S
Cd430 O433 2.333 . S
Cd430 O434 2.352 . S
Cd430 O438 2.277 . S
Cd430 O439 2.356 . S
C431 O436 1.209 . S
C431 O438 1.226 . S
O432 Cd428 2.273 . S
O432 Cd430 2.411 . S
O432 C435 1.320 . S
O433 Cd430 2.333 . S
O433 C435 1.214 . S
O434 Cd430 2.352 . S
O434 C437 1.258 . S
C435 O432 1.320 . S
C435 O433 1.214 . S
O436 Cd428 2.277 . S
O436 C431 1.209 . S
C437 O434 1.258 . S
C437 O439 1.282 . S
O438 Cd430 2.277 . S
O438 C431 1.226 . S
O439 Cd430 2.356 . S
O439 C437 1.282 . S
C440 O441 1.306 . S
C440 O443 1.160 . S
O441 C440 1.306 . S
O441 Cd442 2.228 . S
Cd442 O441 2.228 . S
Cd442 O446 2.273 . S
Cd442 O450 2.277 . S
O443 C440 1.160 . S
O443 Cd444 2.203 . S
Cd444 O443 2.203 . S
Cd444 O446 2.411 . S
Cd444 O447 2.333 . S
Cd444 O448 2.352 . S
Cd444 O452 2.277 . S
Cd444 O453 2.356 . S
C445 O450 1.209 . S
C445 O452 1.226 . S
O446 Cd442 2.273 . S
O446 Cd444 2.411 . S
O446 C449 1.320 . S
O447 Cd444 2.333 . S
O447 C449 1.214 . S
O448 Cd444 2.352 . S
O448 C451 1.258 . S
C449 O446 1.320 . S
C449 O447 1.214 . S
O450 Cd442 2.277 . S
O450 C445 1.209 . S
C451 O448 1.258 . S
C451 O453 1.282 . S
O452 Cd444 2.277 . S
O452 C445 1.226 . S
O453 Cd444 2.356 . S
O453 C451 1.282 . S
C454 O455 1.306 . S
C454 O457 1.160 . S
O455 C454 1.306 . S
O455 Cd456 2.228 . S
Cd456 O455 2.228 . S
Cd456 O460 2.273 . S
Cd456 O464 2.277 . S
O457 C454 1.160 . S
O457 Cd458 2.203 . S
Cd458 O457 2.203 . S
Cd458 O460 2.411 . S
Cd458 O461 2.333 . S
Cd458 O462 2.352 . S
Cd458 O466 2.277 . S
Cd458 O467 2.356 . S
C459 O464 1.209 . S
C459 O466 1.226 . S
O460 Cd456 2.273 . S
O460 Cd458 2.411 . S
O460 C463 1.320 . S
O461 Cd458 2.333 . S
O461 C463 1.214 . S
O462 Cd458 2.352 . S
O462 C465 1.258 . S
C463 O460 1.320 . S
C463 O461 1.214 . S
O464 Cd456 2.277 . S
O464 C459 1.209 . S
C465 O462 1.258 . S
C465 O467 1.282 . S
O466 Cd458 2.277 . S
O466 C459 1.226 . S
O467 Cd458 2.356 . S
O467 C465 1.282 . S
C468 O469 1.306 . S
C468 O471 1.160 . S
O469 C468 1.306 . S
O469 Cd470 2.228 . S
Cd470 O469 2.228 . S
Cd470 O474 2.273 1_556 S
Cd470 O478 2.277 . S
O471 C468 1.160 . S
O471 Cd472 2.203 1_556 S
Cd472 O471 2.203 1_554 S
Cd472 O474 2.411 . S
Cd472 O475 2.333 . S
Cd472 O476 2.352 . S
Cd472 O480 2.277 1_554 S
Cd472 O481 2.356 . S
C473 O478 1.209 . S
C473 O480 1.226 . S
O474 Cd470 2.273 1_554 S
O474 Cd472 2.411 . S
O474 C477 1.320 . S
O475 Cd472 2.333 . S
O475 C477 1.214 . S
O476 Cd472 2.352 . S
O476 C479 1.258 . S
C477 O474 1.320 . S
C477 O475 1.214 . S
O478 Cd470 2.277 . S
O478 C473 1.209 . S
C479 O476 1.258 . S
C479 O481 1.282 . S
O480 Cd472 2.277 1_556 S
O480 C473 1.226 . S
O481 Cd472 2.356 . S
O481 C479 1.282 . S
C482 O483 1.306 . S
C482 O485 1.160 . S
O483 C482 1.306 . S
O483 Cd484 2.228 . S
Cd484 O483 2.228 . S
Cd484 O488 2.273 . S
Cd484 O492 2.277 . S
O485 C482 1.160 . S
O485 Cd486 2.203 . S
Cd486 O485 2.203 . S
Cd486 O488 2.411 . S
Cd486 O489 2.333 . S
Cd486 O490 2.352 . S
Cd486 O494 2.277 . S
Cd486 O495 2.356 . S
C487 O492 1.209 . S
C487 O494 1.226 . S
O488 Cd484 2.273 . S
O488 Cd486 2.411 . S
O488 C491 1.320 . S
O489 Cd486 2.333 . S
O489 C491 1.214 . S
O490 Cd486 2.352 . S
O490 C493 1.258 . S
C491 O488 1.320 . S
C491 O489 1.214 . S
O492 Cd484 2.277 . S
O492 C487 1.209 . S
C493 O490 1.258 . S
C493 O495 1.282 . S
O494 Cd486 2.277 . S
O494 C487 1.226 . S
O495 Cd486 2.356 . S
O495 C493 1.282 . S
C496 C497 1.363 . S
C496 C502 1.379 . S
C496 N504 1.356 . S
C497 C496 1.363 . S
C497 C503 1.363 . S
C498 C499 1.363 . S
C498 C503 1.379 . S
C498 N505 1.356 . S
C499 C498 1.363 . S
C499 C502 1.363 . S
N500 C502 1.356 . S
N500 H512 0.984 . S
N500 H513 0.985 . S
N501 C503 1.356 . S
N501 H506 0.984 . S
N501 H507 0.985 . S
C502 C496 1.379 . S
C502 C499 1.363 . S
C502 N500 1.356 . S
C503 C497 1.363 . S
C503 C498 1.379 . S
C503 N501 1.356 . S
N504 C496 1.356 . S
N504 H510 0.984 . S
N504 H511 0.984 . S
N505 C498 1.356 . S
N505 H508 0.984 . S
N505 H509 0.985 . S
H506 N501 0.984 . S
H507 N501 0.985 . S
H508 N505 0.984 . S
H509 N505 0.985 . S
H510 N504 0.984 . S
H511 N504 0.984 . S
H512 N500 0.984 . S
H513 N500 0.985 . S
C514 C515 1.363 . S
C514 C520 1.379 . S
C514 N522 1.356 . S
C515 C514 1.363 . S
C515 C521 1.363 . S
C516 C517 1.363 . S
C516 C521 1.379 . S
C516 N523 1.356 . S
C517 C516 1.363 . S
C517 C520 1.363 . S
N518 C520 1.356 . S
N518 H530 0.984 . S
N518 H531 0.985 . S
N519 C521 1.356 . S
N519 H524 0.984 . S
N519 H525 0.985 . S
C520 C514 1.379 . S
C520 C517 1.363 . S
C520 N518 1.356 . S
C521 C515 1.363 . S
C521 C516 1.379 . S
C521 N519 1.356 . S
N522 C514 1.356 . S
N522 H528 0.984 . S
N522 H529 0.984 . S
N523 C516 1.356 . S
N523 H526 0.984 . S
N523 H527 0.985 . S
H524 N519 0.984 . S
H525 N519 0.985 . S
H526 N523 0.984 . S
H527 N523 0.985 . S
H528 N522 0.984 . S
H529 N522 0.984 . S
H530 N518 0.984 . S
H531 N518 0.985 . S
C532 C533 1.363 . S
C532 C538 1.379 . S
C532 N540 1.356 . S
C533 C532 1.363 . S
C533 C539 1.363 . S
C534 C535 1.363 . S
C534 C539 1.379 . S
C534 N541 1.356 . S
C535 C534 1.363 . S
C535 C538 1.363 . S
N536 C538 1.356 . S
N536 H548 0.984 . S
N536 H549 0.985 . S
N537 C539 1.356 . S
N537 H542 0.984 . S
N537 H543 0.985 . S
C538 C532 1.379 . S
C538 C535 1.363 . S
C538 N536 1.356 . S
C539 C533 1.363 . S
C539 C534 1.379 . S
C539 N537 1.356 . S
N540 C532 1.356 . S
N540 H546 0.984 . S
N540 H547 0.984 . S
N541 C534 1.356 . S
N541 H544 0.984 . S
N541 H545 0.985 . S
H542 N537 0.984 . S
H543 N537 0.985 . S
H544 N541 0.984 . S
H545 N541 0.985 . S
H546 N540 0.984 . S
H547 N540 0.984 . S
H548 N536 0.984 . S
H549 N536 0.985 . S
C550 C551 1.338 1_556 S
C550 C556 1.379 . S
C550 N558 1.378 . S
C551 C550 1.338 1_554 S
C551 C557 1.363 . S
C552 C553 1.363 . S
C552 C557 1.379 . S
C552 N559 1.356 . S
C553 C552 1.363 . S
C553 C556 1.336 1_554 S
N554 C556 1.378 . S
N554 H566 0.984 . S
N554 H567 0.985 . S
N555 C557 1.356 . S
N555 H560 0.984 . S
N555 H561 0.985 . S
C556 C550 1.379 . S
C556 C553 1.336 1_556 S
C556 N554 1.378 . S
C557 C551 1.363 . S
C557 C552 1.379 . S
C557 N555 1.356 . S
N558 C550 1.378 . S
N558 H564 0.984 . S
N558 H565 0.984 . S
N559 C552 1.356 . S
N559 H562 0.984 . S
N559 H563 0.985 . S
H560 N555 0.984 . S
H561 N555 0.985 . S
H562 N559 0.984 . S
H563 N559 0.985 . S
H564 N558 0.984 . S
H565 N558 0.984 . S
H566 N554 0.984 . S
H567 N554 0.985 . S
C568 C569 1.363 . S
C568 C574 1.379 . S
C568 N576 1.356 . S
C569 C568 1.363 . S
C569 C575 1.363 1_556 S
C570 C571 1.363 1_554 S
C570 C575 1.379 . S
C570 N577 1.356 . S
C571 C570 1.363 1_556 S
C571 C574 1.363 . S
N572 C574 1.356 . S
N572 H584 0.984 . S
N572 H585 0.985 . S
N573 C575 1.356 . S
N573 H578 0.984 . S
N573 H579 0.985 . S
C574 C568 1.379 . S
C574 C571 1.363 . S
C574 N572 1.356 . S
C575 C569 1.363 1_554 S
C575 C570 1.379 . S
C575 N573 1.356 . S
N576 C568 1.356 . S
N576 H582 0.984 . S
N576 H583 0.984 . S
N577 C570 1.356 . S
N577 H580 0.984 . S
N577 H581 0.985 . S
H578 N573 0.984 . S
H579 N573 0.985 . S
H580 N577 0.984 . S
H581 N577 0.985 . S
H582 N576 0.984 . S
H583 N576 0.984 . S
H584 N572 0.984 . S
H585 N572 0.985 . S
C586 C587 1.363 . S
C586 C592 1.379 . S
C586 N594 1.356 . S
C587 C586 1.363 . S
C587 C593 1.363 . S
C588 C589 1.363 . S
C588 C593 1.379 . S
C588 N595 1.356 . S
C589 C588 1.363 . S
C589 C592 1.363 . S
N590 C592 1.356 . S
N590 H602 0.984 . S
N590 H603 0.985 . S
N591 C593 1.356 . S
N591 H596 0.984 . S
N591 H597 0.985 . S
C592 C586 1.379 . S
C592 C589 1.363 . S
C592 N590 1.356 . S
C593 C587 1.363 . S
C593 C588 1.379 . S
C593 N591 1.356 . S
N594 C586 1.356 . S
N594 H600 0.984 . S
N594 H601 0.984 . S
N595 C588 1.356 . S
N595 H598 0.984 . S
N595 H599 0.985 . S
H596 N591 0.984 . S
H597 N591 0.985 . S
H598 N595 0.984 . S
H599 N595 0.985 . S
H600 N594 0.984 . S
H601 N594 0.984 . S
H602 N590 0.984 . S
H603 N590 0.985 . S
C604 C605 1.363 . S
C604 C610 1.379 . S
C604 N612 1.356 . S
C605 C604 1.363 . S
C605 C611 1.363 . S
C606 C607 1.363 . S
C606 C611 1.379 . S
C606 N613 1.356 . S
C607 C606 1.363 . S
C607 C610 1.363 . S
N608 C610 1.356 . S
N608 H620 0.984 . S
N608 H621 0.985 . S
N609 C611 1.356 . S
N609 H614 0.984 . S
N609 H615 0.985 . S
C610 C604 1.379 . S
C610 C607 1.363 . S
C610 N608 1.356 . S
C611 C605 1.363 . S
C611 C606 1.379 . S
C611 N609 1.356 . S
N612 C604 1.356 . S
N612 H618 0.984 . S
N612 H619 0.984 . S
N613 C606 1.356 . S
N613 H616 0.984 . S
N613 H617 0.985 . S
H614 N609 0.984 . S
H615 N609 0.985 . S
H616 N613 0.984 . S
H617 N613 0.985 . S
H618 N612 0.984 . S
H619 N612 0.984 . S
H620 N608 0.984 . S
H621 N608 0.985 . S
C622 C623 1.363 . S
C622 C628 1.379 . S
C622 N630 1.356 . S
C623 C622 1.363 . S
C623 C629 1.363 . S
C624 C625 1.363 . S
C624 C629 1.379 . S
C624 N631 1.356 . S
C625 C624 1.363 . S
C625 C628 1.363 . S
N626 C628 1.356 . S
N626 H638 0.984 . S
N626 H639 0.985 . S
N627 C629 1.356 . S
N627 H632 0.984 . S
N627 H633 0.985 . S
C628 C622 1.379 . S
C628 C625 1.363 . S
C628 N626 1.356 . S
C629 C623 1.363 . S
C629 C624 1.379 . S
C629 N627 1.356 . S
N630 C622 1.356 . S
N630 H636 0.984 . S
N630 H637 0.984 . S
N631 C624 1.356 . S
N631 H634 0.984 . S
N631 H635 0.985 . S
H632 N627 0.984 . S
H633 N627 0.985 . S
H634 N631 0.984 . S
H635 N631 0.985 . S
H636 N630 0.984 . S
H637 N630 0.984 . S
H638 N626 0.984 . S
H639 N626 0.985 . S
C640 C641 1.363 . S
C640 C646 1.379 . S
C640 N648 1.356 . S
C641 C640 1.363 . S
C641 C647 1.363 . S
C642 C643 1.363 . S
C642 C647 1.379 . S
C642 N649 1.356 . S
C643 C642 1.363 . S
C643 C646 1.363 . S
N644 C646 1.356 . S
N644 H656 0.984 . S
N644 H657 0.985 . S
N645 C647 1.356 . S
N645 H650 0.984 . S
N645 H651 0.985 . S
C646 C640 1.379 . S
C646 C643 1.363 . S
C646 N644 1.356 . S
C647 C641 1.363 . S
C647 C642 1.379 . S
C647 N645 1.356 . S
N648 C640 1.356 . S
N648 H654 0.984 . S
N648 H655 0.984 . S
N649 C642 1.356 . S
N649 H652 0.984 . S
N649 H653 0.985 . S
H650 N645 0.984 . S
H651 N645 0.985 . S
H652 N649 0.984 . S
H653 N649 0.985 . S
H654 N648 0.984 . S
H655 N648 0.984 . S
H656 N644 0.984 . S
H657 N644 0.985 . S
C658 C659 1.363 . S
C658 C664 1.379 . S
C658 N666 1.356 . S
C659 C658 1.363 . S
C659 C665 1.363 1_554 S
C660 C661 1.363 1_556 S
C660 C665 1.379 . S
C660 N667 1.356 . S
C661 C660 1.363 1_554 S
C661 C664 1.363 . S
N662 C664 1.356 . S
N662 H674 0.984 . S
N662 H675 0.985 . S
N663 C665 1.356 . S
N663 H668 0.984 . S
N663 H669 0.985 . S
C664 C658 1.379 . S
C664 C661 1.363 . S
C664 N662 1.356 . S
C665 C659 1.363 1_556 S
C665 C660 1.379 . S
C665 N663 1.356 . S
N666 C658 1.356 . S
N666 H672 0.984 . S
N666 H673 0.984 . S
N667 C660 1.356 . S
N667 H670 0.984 . S
N667 H671 0.985 . S
H668 N663 0.984 . S
H669 N663 0.985 . S
H670 N667 0.984 . S
H671 N667 0.985 . S
H672 N666 0.984 . S
H673 N666 0.984 . S
H674 N662 0.984 . S
H675 N662 0.985 . S
C676 C677 1.363 . S
C676 C682 1.379 . S
C676 N684 1.356 . S
C677 C676 1.363 . S
C677 C683 1.363 . S
C678 C679 1.363 . S
C678 C683 1.379 . S
C678 N685 1.356 . S
C679 C678 1.363 . S
C679 C682 1.363 . S
N680 C682 1.356 . S
N680 H692 0.984 . S
N680 H693 0.985 . S
N681 C683 1.356 . S
N681 H686 0.984 . S
N681 H687 0.985 . S
C682 C676 1.379 . S
C682 C679 1.363 . S
C682 N680 1.356 . S
C683 C677 1.363 . S
C683 C678 1.379 . S
C683 N681 1.356 . S
N684 C676 1.356 . S
N684 H690 0.984 . S
N684 H691 0.984 . S
N685 C678 1.356 . S
N685 H688 0.984 . S
N685 H689 0.985 . S
H686 N681 0.984 . S
H687 N681 0.985 . S
H688 N685 0.984 . S
H689 N685 0.985 . S
H690 N684 0.984 . S
H691 N684 0.984 . S
H692 N680 0.984 . S
H693 N680 0.985 . S
C694 C695 1.363 . S
C694 C700 1.379 . S
C694 N702 1.356 . S
C695 C694 1.363 . S
C695 C701 1.363 . S
C696 C697 1.363 . S
C696 C701 1.379 . S
C696 N703 1.356 . S
C697 C696 1.363 . S
C697 C700 1.363 . S
N698 C700 1.356 . S
N698 H710 0.984 . S
N698 H711 0.985 . S
N699 C701 1.356 . S
N699 H704 0.984 . S
N699 H705 0.985 . S
C700 C694 1.379 . S
C700 C697 1.363 . S
C700 N698 1.356 . S
C701 C695 1.363 . S
C701 C696 1.379 . S
C701 N699 1.356 . S
N702 C694 1.356 . S
N702 H708 0.984 . S
N702 H709 0.984 . S
N703 C696 1.356 . S
N703 H706 0.984 . S
N703 H707 0.985 . S
H704 N699 0.984 . S
H705 N699 0.985 . S
H706 N703 0.984 . S
H707 N703 0.985 . S
H708 N702 0.984 . S
H709 N702 0.984 . S
H710 N698 0.984 . S
H711 N698 0.985 . S
C712 C713 1.363 . S
C712 C718 1.379 . S
C712 N720 1.356 . S
C713 C712 1.363 . S
C713 C719 1.363 . S
C714 C715 1.363 . S
C714 C719 1.379 . S
C714 N721 1.356 . S
C715 C714 1.363 . S
C715 C718 1.363 . S
N716 C718 1.356 . S
N716 H728 0.984 . S
N716 H729 0.985 . S
N717 C719 1.356 . S
N717 H722 0.984 . S
N717 H723 0.985 . S
C718 C712 1.379 . S
C718 C715 1.363 . S
C718 N716 1.356 . S
C719 C713 1.363 . S
C719 C714 1.379 . S
C719 N717 1.356 . S
N720 C712 1.356 . S
N720 H726 0.984 . S
N720 H727 0.984 . S
N721 C714 1.356 . S
N721 H724 0.984 . S
N721 H725 0.985 . S
H722 N717 0.984 . S
H723 N717 0.985 . S
H724 N721 0.984 . S
H725 N721 0.985 . S
H726 N720 0.984 . S
H727 N720 0.984 . S
H728 N716 0.984 . S
H729 N716 0.985 . S
C730 C731 1.363 . S
C730 C736 1.379 . S
C730 N738 1.356 . S
C731 C730 1.363 . S
C731 C737 1.363 . S
C732 C733 1.363 . S
C732 C737 1.379 . S
C732 N739 1.356 . S
C733 C732 1.363 . S
C733 C736 1.363 . S
N734 C736 1.356 . S
N734 H746 0.984 . S
N734 H747 0.985 . S
N735 C737 1.356 . S
N735 H740 0.984 . S
N735 H741 0.985 . S
C736 C730 1.379 . S
C736 C733 1.363 . S
C736 N734 1.356 . S
C737 C731 1.363 . S
C737 C732 1.379 . S
C737 N735 1.356 . S
N738 C730 1.356 . S
N738 H744 0.984 . S
N738 H745 0.984 . S
N739 C732 1.356 . S
N739 H742 0.984 . S
N739 H743 0.985 . S
H740 N735 0.984 . S
H741 N735 0.985 . S
H742 N739 0.984 . S
H743 N739 0.985 . S
H744 N738 0.984 . S
H745 N738 0.984 . S
H746 N734 0.984 . S
H747 N734 0.985 . S
C748 C749 1.363 . S
C748 C754 1.379 . S
C748 N756 1.356 . S
C749 C748 1.363 . S
C749 C755 1.363 1_556 S
C750 C751 1.363 1_554 S
C750 C755 1.379 . S
C750 N757 1.356 . S
C751 C750 1.363 1_556 S
C751 C754 1.363 . S
N752 C754 1.356 . S
N752 H764 0.984 . S
N752 H765 0.985 . S
N753 C755 1.356 . S
N753 H758 0.984 . S
N753 H759 0.985 . S
C754 C748 1.379 . S
C754 C751 1.363 . S
C754 N752 1.356 . S
C755 C749 1.363 1_554 S
C755 C750 1.379 . S
C755 N753 1.356 . S
N756 C748 1.356 . S
N756 H762 0.984 . S
N756 H763 0.984 . S
N757 C750 1.356 . S
N757 H760 0.984 . S
N757 H761 0.985 . S
H758 N753 0.984 . S
H759 N753 0.985 . S
H760 N757 0.984 . S
H761 N757 0.985 . S
H762 N756 0.984 . S
H763 N756 0.984 . S
H764 N752 0.984 . S
H765 N752 0.985 . S
C766 C767 1.363 . S
C766 C772 1.379 . S
C766 N774 1.356 . S
C767 C766 1.363 . S
C767 C773 1.363 . S
C768 C769 1.363 . S
C768 C773 1.379 . S
C768 N775 1.356 . S
C769 C768 1.363 . S
C769 C772 1.363 . S
N770 C772 1.356 . S
N770 H782 0.984 . S
N770 H783 0.985 . S
N771 C773 1.356 . S
N771 H776 0.984 . S
N771 H777 0.985 . S
C772 C766 1.379 . S
C772 C769 1.363 . S
C772 N770 1.356 . S
C773 C767 1.363 . S
C773 C768 1.379 . S
C773 N771 1.356 . S
N774 C766 1.356 . S
N774 H780 0.984 . S
N774 H781 0.984 . S
N775 C768 1.356 . S
N775 H778 0.984 . S
N775 H779 0.985 . S
H776 N771 0.984 . S
H777 N771 0.985 . S
H778 N775 0.984 . S
H779 N775 0.985 . S
H780 N774 0.984 . S
H781 N774 0.984 . S
H782 N770 0.984 . S
H783 N770 0.985 . S
C784 C785 1.363 . S
C784 C790 1.379 . S
C784 N792 1.356 . S
C785 C784 1.363 . S
C785 C791 1.363 . S
C786 C787 1.363 . S
C786 C791 1.379 . S
C786 N793 1.356 . S
C787 C786 1.363 . S
C787 C790 1.363 . S
N788 C790 1.356 . S
N788 H800 0.984 . S
N788 H801 0.985 . S
N789 C791 1.356 . S
N789 H794 0.984 . S
N789 H795 0.985 . S
C790 C784 1.379 . S
C790 C787 1.363 . S
C790 N788 1.356 . S
C791 C785 1.363 . S
C791 C786 1.379 . S
C791 N789 1.356 . S
N792 C784 1.356 . S
N792 H798 0.984 . S
N792 H799 0.984 . S
N793 C786 1.356 . S
N793 H796 0.984 . S
N793 H797 0.985 . S
H794 N789 0.984 . S
H795 N789 0.985 . S
H796 N793 0.984 . S
H797 N793 0.985 . S
H798 N792 0.984 . S
H799 N792 0.984 . S
H800 N788 0.984 . S
H801 N788 0.985 . S
C802 C803 1.363 . S
C802 C808 1.379 . S
C802 N810 1.356 . S
C803 C802 1.363 . S
C803 C809 1.363 . S
C804 C805 1.363 . S
C804 C809 1.379 . S
C804 N811 1.356 . S
C805 C804 1.363 . S
C805 C808 1.363 . S
N806 C808 1.356 . S
N806 H818 0.984 . S
N806 H819 0.985 . S
N807 C809 1.356 . S
N807 H812 0.984 . S
N807 H813 0.985 . S
C808 C802 1.379 . S
C808 C805 1.363 . S
C808 N806 1.356 . S
C809 C803 1.363 . S
C809 C804 1.379 . S
C809 N807 1.356 . S
N810 C802 1.356 . S
N810 H816 0.984 . S
N810 H817 0.984 . S
N811 C804 1.356 . S
N811 H814 0.984 . S
N811 H815 0.985 . S
H812 N807 0.984 . S
H813 N807 0.985 . S
H814 N811 0.984 . S
H815 N811 0.985 . S
H816 N810 0.984 . S
H817 N810 0.984 . S
H818 N806 0.984 . S
H819 N806 0.985 . S
C820 C821 1.363 . S
C820 C826 1.379 . S
C820 N828 1.356 . S
C821 C820 1.363 . S
C821 C827 1.363 . S
C822 C823 1.363 . S
C822 C827 1.379 . S
C822 N829 1.356 . S
C823 C822 1.363 . S
C823 C826 1.363 . S
N824 C826 1.356 . S
N824 H836 0.984 . S
N824 H837 0.985 . S
N825 C827 1.356 . S
N825 H830 0.984 . S
N825 H831 0.985 . S
C826 C820 1.379 . S
C826 C823 1.363 . S
C826 N824 1.356 . S
C827 C821 1.363 . S
C827 C822 1.379 . S
C827 N825 1.356 . S
N828 C820 1.356 . S
N828 H834 0.984 . S
N828 H835 0.984 . S
N829 C822 1.356 . S
N829 H832 0.984 . S
N829 H833 0.985 . S
H830 N825 0.984 . S
H831 N825 0.985 . S
H832 N829 0.984 . S
H833 N829 0.985 . S
H834 N828 0.984 . S
H835 N828 0.984 . S
H836 N824 0.984 . S
H837 N824 0.985 . S
C838 C839 1.363 . S
C838 C844 1.379 . S
C838 N846 1.356 . S
C839 C838 1.363 . S
C839 C845 1.363 . S
C840 C841 1.363 . S
C840 C845 1.379 . S
C840 N847 1.356 . S
C841 C840 1.363 . S
C841 C844 1.363 . S
N842 C844 1.356 . S
N842 H854 0.984 . S
N842 H855 0.985 . S
N843 C845 1.356 . S
N843 H848 0.984 . S
N843 H849 0.985 . S
C844 C838 1.379 . S
C844 C841 1.363 . S
C844 N842 1.356 . S
C845 C839 1.363 . S
C845 C840 1.379 . S
C845 N843 1.356 . S
N846 C838 1.356 . S
N846 H852 0.984 . S
N846 H853 0.984 . S
N847 C840 1.356 . S
N847 H850 0.984 . S
N847 H851 0.985 . S
H848 N843 0.984 . S
H849 N843 0.985 . S
H850 N847 0.984 . S
H851 N847 0.985 . S
H852 N846 0.984 . S
H853 N846 0.984 . S
H854 N842 0.984 . S
H855 N842 0.985 . S
C856 C857 1.363 . S
C856 C862 1.379 . S
C856 N864 1.356 . S
C857 C856 1.363 . S
C857 C863 1.363 . S
C858 C859 1.363 . S
C858 C863 1.379 . S
C858 N865 1.356 . S
C859 C858 1.363 . S
C859 C862 1.363 . S
N860 C862 1.356 . S
N860 H872 0.984 . S
N860 H873 0.985 . S
N861 C863 1.356 . S
N861 H866 0.984 . S
N861 H867 0.985 . S
C862 C856 1.379 . S
C862 C859 1.363 . S
C862 N860 1.356 . S
C863 C857 1.363 . S
C863 C858 1.379 . S
C863 N861 1.356 . S
N864 C856 1.356 . S
N864 H870 0.984 . S
N864 H871 0.984 . S
N865 C858 1.356 . S
N865 H868 0.984 . S
N865 H869 0.985 . S
H866 N861 0.984 . S
H867 N861 0.985 . S
H868 N865 0.984 . S
H869 N865 0.985 . S
H870 N864 0.984 . S
H871 N864 0.984 . S
H872 N860 0.984 . S
H873 N860 0.985 . S
C874 C875 1.363 . S
C874 C880 1.379 . S
C874 N882 1.356 . S
C875 C874 1.363 . S
C875 C881 1.363 . S
C876 C877 1.363 . S
C876 C881 1.379 . S
C876 N883 1.356 . S
C877 C876 1.363 . S
C877 C880 1.363 . S
N878 C880 1.356 . S
N878 H890 0.984 . S
N878 H891 0.985 . S
N879 C881 1.356 . S
N879 H884 0.984 . S
N879 H885 0.985 . S
C880 C874 1.379 . S
C880 C877 1.363 . S
C880 N878 1.356 . S
C881 C875 1.363 . S
C881 C876 1.379 . S
C881 N879 1.356 . S
N882 C874 1.356 . S
N882 H888 0.984 . S
N882 H889 0.984 . S
N883 C876 1.356 . S
N883 H886 0.984 . S
N883 H887 0.985 . S
H884 N879 0.984 . S
H885 N879 0.985 . S
H886 N883 0.984 . S
H887 N883 0.985 . S
H888 N882 0.984 . S
H889 N882 0.984 . S
H890 N878 0.984 . S
H891 N878 0.985 . S
C892 C893 1.363 . S
C892 C898 1.379 . S
C892 N900 1.356 . S
C893 C892 1.363 . S
C893 C899 1.363 . S
C894 C895 1.363 . S
C894 C899 1.379 . S
C894 N901 1.356 . S
C895 C894 1.363 . S
C895 C898 1.363 . S
N896 C898 1.356 . S
N896 H908 0.984 . S
N896 H909 0.985 . S
N897 C899 1.356 . S
N897 H902 0.984 . S
N897 H903 0.985 . S
C898 C892 1.379 . S
C898 C895 1.363 . S
C898 N896 1.356 . S
C899 C893 1.363 . S
C899 C894 1.379 . S
C899 N897 1.356 . S
N900 C892 1.356 . S
N900 H906 0.984 . S
N900 H907 0.984 . S
N901 C894 1.356 . S
N901 H904 0.984 . S
N901 H905 0.985 . S
H902 N897 0.984 . S
H903 N897 0.985 . S
H904 N901 0.984 . S
H905 N901 0.985 . S
H906 N900 0.984 . S
H907 N900 0.984 . S
H908 N896 0.984 . S
H909 N896 0.985 . S
C910 C911 1.363 . S
C910 C916 1.379 . S
C910 N918 1.356 . S
C911 C910 1.363 . S
C911 C917 1.363 . S
C912 C913 1.363 . S
C912 C917 1.379 . S
C912 N919 1.356 . S
C913 C912 1.363 . S
C913 C916 1.363 . S
N914 C916 1.356 . S
N914 H926 0.984 . S
N914 H927 0.985 . S
N915 C917 1.356 . S
N915 H920 0.984 . S
N915 H921 0.985 . S
C916 C910 1.379 . S
C916 C913 1.363 . S
C916 N914 1.356 . S
C917 C911 1.363 . S
C917 C912 1.379 . S
C917 N915 1.356 . S
N918 C910 1.356 . S
N918 H924 0.984 . S
N918 H925 0.984 . S
N919 C912 1.356 . S
N919 H922 0.984 . S
N919 H923 0.985 . S
H920 N915 0.984 . S
H921 N915 0.985 . S
H922 N919 0.984 . S
H923 N919 0.985 . S
H924 N918 0.984 . S
H925 N918 0.984 . S
H926 N914 0.984 . S
H927 N914 0.985 . S
C928 C929 1.363 . S
C928 C934 1.379 . S
C928 N936 1.356 . S
C929 C928 1.363 . S
C929 C935 1.363 . S
C930 C931 1.363 . S
C930 C935 1.379 . S
C930 N937 1.356 . S
C931 C930 1.363 . S
C931 C934 1.363 . S
N932 C934 1.356 . S
N932 H944 0.984 . S
N932 H945 0.985 . S
N933 C935 1.356 . S
N933 H938 0.984 . S
N933 H939 0.985 . S
C934 C928 1.379 . S
C934 C931 1.363 . S
C934 N932 1.356 . S
C935 C929 1.363 . S
C935 C930 1.379 . S
C935 N933 1.356 . S
N936 C928 1.356 . S
N936 H942 0.984 . S
N936 H943 0.984 . S
N937 C930 1.356 . S
N937 H940 0.984 . S
N937 H941 0.985 . S
H938 N933 0.984 . S
H939 N933 0.985 . S
H940 N937 0.984 . S
H941 N937 0.985 . S
H942 N936 0.984 . S
H943 N936 0.984 . S
H944 N932 0.984 . S
H945 N932 0.985 . S
C946 C947 1.363 . S
C946 C952 1.379 . S
C946 N954 1.356 . S
C947 C946 1.363 . S
C947 C953 1.363 . S
C948 C949 1.363 . S
C948 C953 1.379 . S
C948 N955 1.356 . S
C949 C948 1.363 . S
C949 C952 1.363 . S
N950 C952 1.356 . S
N950 H962 0.984 . S
N950 H963 0.985 . S
N951 C953 1.356 . S
N951 H956 0.984 . S
N951 H957 0.985 . S
C952 C946 1.379 . S
C952 C949 1.363 . S
C952 N950 1.356 . S
C953 C947 1.363 . S
C953 C948 1.379 . S
C953 N951 1.356 . S
N954 C946 1.356 . S
N954 H960 0.984 . S
N954 H961 0.984 . S
N955 C948 1.356 . S
N955 H958 0.984 . S
N955 H959 0.985 . S
H956 N951 0.984 . S
H957 N951 0.985 . S
H958 N955 0.984 . S
H959 N955 0.985 . S
H960 N954 0.984 . S
H961 N954 0.984 . S
H962 N950 0.984 . S
H963 N950 0.985 . S
C964 C965 1.363 . S
C964 C970 1.379 . S
C964 N972 1.356 . S
C965 C964 1.363 . S
C965 C971 1.363 . S
C966 C967 1.363 . S
C966 C971 1.379 . S
C966 N973 1.356 . S
C967 C966 1.363 . S
C967 C970 1.363 . S
N968 C970 1.356 . S
N968 H980 0.984 . S
N968 H981 0.985 . S
N969 C971 1.356 . S
N969 H974 0.984 . S
N969 H975 0.985 . S
C970 C964 1.379 . S
C970 C967 1.363 . S
C970 N968 1.356 . S
C971 C965 1.363 . S
C971 C966 1.379 . S
C971 N969 1.356 . S
N972 C964 1.356 . S
N972 H978 0.984 . S
N972 H979 0.984 . S
N973 C966 1.356 . S
N973 H976 0.984 . S
N973 H977 0.985 . S
H974 N969 0.984 . S
H975 N969 0.985 . S
H976 N973 0.984 . S
H977 N973 0.985 . S
H978 N972 0.984 . S
H979 N972 0.984 . S
H980 N968 0.984 . S
H981 N968 0.985 . S
C982 C983 1.363 . S
C982 C988 1.379 . S
C982 N990 1.356 . S
C983 C982 1.363 . S
C983 C989 1.363 . S
C984 C985 1.363 . S
C984 C989 1.379 . S
C984 N991 1.356 . S
C985 C984 1.363 . S
C985 C988 1.363 . S
N986 C988 1.356 . S
N986 H998 0.984 . S
N986 H999 0.985 . S
N987 C989 1.356 . S
N987 H992 0.984 . S
N987 H993 0.985 . S
C988 C982 1.379 . S
C988 C985 1.363 . S
C988 N986 1.356 . S
C989 C983 1.363 . S
C989 C984 1.379 . S
C989 N987 1.356 . S
N990 C982 1.356 . S
N990 H996 0.984 . S
N990 H997 0.984 . S
N991 C984 1.356 . S
N991 H994 0.984 . S
N991 H995 0.985 . S
H992 N987 0.984 . S
H993 N987 0.985 . S
H994 N991 0.984 . S
H995 N991 0.985 . S
H996 N990 0.984 . S
H997 N990 0.984 . S
H998 N986 0.984 . S
H999 N986 0.985 . S
C1000 C1001 1.363 . S
C1000 C1006 1.379 . S
C1000 N1008 1.356 . S
C1001 C1000 1.363 . S
C1001 C1007 1.363 . S
C1002 C1003 1.363 . S
C1002 C1007 1.379 . S
C1002 N1009 1.356 . S
C1003 C1002 1.363 . S
C1003 C1006 1.363 . S
N1004 C1006 1.356 . S
N1004 H1016 0.984 . S
N1004 H1017 0.985 . S
N1005 C1007 1.356 . S
N1005 H1010 0.984 . S
N1005 H1011 0.985 . S
C1006 C1000 1.379 . S
C1006 C1003 1.363 . S
C1006 N1004 1.356 . S
C1007 C1001 1.363 . S
C1007 C1002 1.379 . S
C1007 N1005 1.356 . S
N1008 C1000 1.356 . S
N1008 H1014 0.984 . S
N1008 H1015 0.984 . S
N1009 C1002 1.356 . S
N1009 H1012 0.984 . S
N1009 H1013 0.985 . S
H1010 N1005 0.984 . S
H1011 N1005 0.985 . S
H1012 N1009 0.984 . S
H1013 N1009 0.985 . S
H1014 N1008 0.984 . S
H1015 N1008 0.984 . S
H1016 N1004 0.984 . S
H1017 N1004 0.985 . S
C1018 C1019 1.363 . S
C1018 C1024 1.379 . S
C1018 N1026 1.356 . S
C1019 C1018 1.363 . S
C1019 C1025 1.363 . S
C1020 C1021 1.363 . S
C1020 C1025 1.379 . S
C1020 N1027 1.356 . S
C1021 C1020 1.363 . S
C1021 C1024 1.363 . S
N1022 C1024 1.356 . S
N1022 H1034 0.984 . S
N1022 H1035 0.985 . S
N1023 C1025 1.356 . S
N1023 H1028 0.984 . S
N1023 H1029 0.985 . S
C1024 C1018 1.379 . S
C1024 C1021 1.363 . S
C1024 N1022 1.356 . S
C1025 C1019 1.363 . S
C1025 C1020 1.379 . S
C1025 N1023 1.356 . S
N1026 C1018 1.356 . S
N1026 H1032 0.984 . S
N1026 H1033 0.984 . S
N1027 C1020 1.356 . S
N1027 H1030 0.984 . S
N1027 H1031 0.985 . S
H1028 N1023 0.984 . S
H1029 N1023 0.985 . S
H1030 N1027 0.984 . S
H1031 N1027 0.985 . S
H1032 N1026 0.984 . S
H1033 N1026 0.984 . S
H1034 N1022 0.984 . S
H1035 N1022 0.985 . S
C1036 C1037 1.363 . S
C1036 C1042 1.379 . S
C1036 N1044 1.356 . S
C1037 C1036 1.363 . S
C1037 C1043 1.363 . S
C1038 C1039 1.363 . S
C1038 C1043 1.379 . S
C1038 N1045 1.356 . S
C1039 C1038 1.363 . S
C1039 C1042 1.363 . S
N1040 C1042 1.356 . S
N1040 H1052 0.984 . S
N1040 H1053 0.985 . S
N1041 C1043 1.356 . S
N1041 H1046 0.984 . S
N1041 H1047 0.985 . S
C1042 C1036 1.379 . S
C1042 C1039 1.363 . S
C1042 N1040 1.356 . S
C1043 C1037 1.363 . S
C1043 C1038 1.379 . S
C1043 N1041 1.356 . S
N1044 C1036 1.356 . S
N1044 H1050 0.984 . S
N1044 H1051 0.984 . S
N1045 C1038 1.356 . S
N1045 H1048 0.984 . S
N1045 H1049 0.985 . S
H1046 N1041 0.984 . S
H1047 N1041 0.985 . S
H1048 N1045 0.984 . S
H1049 N1045 0.985 . S
H1050 N1044 0.984 . S
H1051 N1044 0.984 . S
H1052 N1040 0.984 . S
H1053 N1040 0.985 . S
C1054 C1055 1.363 . S
C1054 C1060 1.379 . S
C1054 N1062 1.356 . S
C1055 C1054 1.363 . S
C1055 C1061 1.363 . S
C1056 C1057 1.363 . S
C1056 C1061 1.379 . S
C1056 N1063 1.356 . S
C1057 C1056 1.363 . S
C1057 C1060 1.363 . S
N1058 C1060 1.356 . S
N1058 H1070 0.984 . S
N1058 H1071 0.985 . S
N1059 C1061 1.356 . S
N1059 H1064 0.984 . S
N1059 H1065 0.985 . S
C1060 C1054 1.379 . S
C1060 C1057 1.363 . S
C1060 N1058 1.356 . S
C1061 C1055 1.363 . S
C1061 C1056 1.379 . S
C1061 N1059 1.356 . S
N1062 C1054 1.356 . S
N1062 H1068 0.984 . S
N1062 H1069 0.984 . S
N1063 C1056 1.356 . S
N1063 H1066 0.984 . S
N1063 H1067 0.985 . S
H1064 N1059 0.984 . S
H1065 N1059 0.985 . S
H1066 N1063 0.984 . S
H1067 N1063 0.985 . S
H1068 N1062 0.984 . S
H1069 N1062 0.984 . S
H1070 N1058 0.984 . S
H1071 N1058 0.985 . S
C499 C409 1.476 . S
C497 C36 1.403 . S
C517 C423 1.462 . S
C515 C93 1.418 . S
C535 C431 1.482 . S
C533 C126 1.439 . S
C551 C165 1.399 . S
C553 C389 1.458 . S
C569 C222 1.387 . S
C571 C395 1.444 . S
C587 C261 1.379 . S
C589 C403 1.443 . S
C607 C417 1.530 . S
C605 C318 1.465 . S
C625 C437 1.491 . S
C623 C381 1.449 . S
C641 C132 1.383 . S
C643 C465 1.451 . S
C661 C479 1.520 . S
C659 C189 1.472 . S
C677 C30 1.400 . S
C679 C487 1.453 . S
C697 C451 1.414 . S
C695 C69 1.346 . S
C713 C324 1.419 . S
C715 C445 1.483 . S
C731 C357 1.419 . S
C733 C459 1.475 . S
C751 C473 1.476 . S
C749 C228 1.422 . S
C767 C285 1.463 . S
C769 C493 1.510 . S
C787 C412 1.693 . S
C785 C45 1.731 . S
C805 C435 1.735 . S
C803 C84 1.751 . S
C821 C117 1.755 . S
C823 C393 1.755 . S
C839 C174 1.720 . S
C841 C398 1.728 . S
C857 C213 1.722 . S
C859 C426 1.679 . S
C877 C384 1.704 . S
C875 C270 1.707 . S
C895 C407 1.737 . S
C893 C309 1.742 . S
C913 C421 1.731 . S
C911 C372 1.751 . S
C931 C468 1.682 . S
C929 C141 1.726 . S
C949 C491 1.720 . S
C947 C180 1.734 . S
C965 C21 1.723 . S
C967 C440 1.690 . S
C985 C454 1.676 . S
C983 C78 1.685 . S
C1003 C482 1.726 . S
C1001 C333 1.773 . S
C1019 C366 1.737 . S
C1021 C449 1.771 . S
C1039 C463 1.757 . S
C1037 C237 1.777 . S
C1057 C477 1.740 . S
C1055 C276 1.754 . S
