# Generated by pormake.
# Topology pyr, (3,6)-cn, num edge types: 1
# Building blocks:
#     Node 0, Type 0, BuildingBlock: MIDCAF_clean_linker_0, # of connection points: 3
#     Node 1, Type 0, BuildingBlock: MIDCAF_clean_linker_0, # of connection points: 3
#     Node 2, Type 0, BuildingBlock: MIDCAF_clean_linker_0, # of connection points: 3
#     Node 3, Type 0, BuildingBlock: MIDCAF_clean_linker_0, # of connection points: 3
#     Node 4, Type 0, BuildingBlock: MIDCAF_clean_linker_0, # of connection points: 3
#     Node 5, Type 0, BuildingBlock: MIDCAF_clean_linker_0, # of connection points: 3
#     Node 6, Type 0, BuildingBlock: MIDCAF_clean_linker_0, # of connection points: 3
#     Node 7, Type 0, BuildingBlock: MIDCAF_clean_linker_0, # of connection points: 3
#     Node 8, Type 1, BuildingBlock: GEDQOX_clean_sbu_0, # of connection points: 6
#     Node 9, Type 1, BuildingBlock: GEDQOX_clean_sbu_0, # of connection points: 6
#     Node 10, Type 1, BuildingBlock: GEDQOX_clean_sbu_0, # of connection points: 6
#     Node 11, Type 1, BuildingBlock: GEDQOX_clean_sbu_0, # of connection points: 6
#     Edge 12, Type (0, 1), BuildingBlock: CIFDUS_clean_linker_0, # of connection points: 2
#     Edge 13, Type (0, 1), BuildingBlock: CIFDUS_clean_linker_0, # of connection points: 2
#     Edge 14, Type (0, 1), BuildingBlock: CIFDUS_clean_linker_0, # of connection points: 2
#     Edge 15, Type (0, 1), BuildingBlock: CIFDUS_clean_linker_0, # of connection points: 2
#     Edge 16, Type (0, 1), BuildingBlock: CIFDUS_clean_linker_0, # of connection points: 2
#     Edge 17, Type (0, 1), BuildingBlock: CIFDUS_clean_linker_0, # of connection points: 2
#     Edge 18, Type (0, 1), BuildingBlock: CIFDUS_clean_linker_0, # of connection points: 2
#     Edge 19, Type (0, 1), BuildingBlock: CIFDUS_clean_linker_0, # of connection points: 2
#     Edge 20, Type (0, 1), BuildingBlock: CIFDUS_clean_linker_0, # of connection points: 2
#     Edge 21, Type (0, 1), BuildingBlock: CIFDUS_clean_linker_0, # of connection points: 2
#     Edge 22, Type (0, 1), BuildingBlock: CIFDUS_clean_linker_0, # of connection points: 2
#     Edge 23, Type (0, 1), BuildingBlock: CIFDUS_clean_linker_0, # of connection points: 2
#     Edge 24, Type (0, 1), BuildingBlock: CIFDUS_clean_linker_0, # of connection points: 2
#     Edge 25, Type (0, 1), BuildingBlock: CIFDUS_clean_linker_0, # of connection points: 2
#     Edge 26, Type (0, 1), BuildingBlock: CIFDUS_clean_linker_0, # of connection points: 2
#     Edge 27, Type (0, 1), BuildingBlock: CIFDUS_clean_linker_0, # of connection points: 2
#     Edge 28, Type (0, 1), BuildingBlock: CIFDUS_clean_linker_0, # of connection points: 2
#     Edge 29, Type (0, 1), BuildingBlock: CIFDUS_clean_linker_0, # of connection points: 2
#     Edge 30, Type (0, 1), BuildingBlock: CIFDUS_clean_linker_0, # of connection points: 2
#     Edge 31, Type (0, 1), BuildingBlock: CIFDUS_clean_linker_0, # of connection points: 2
#     Edge 32, Type (0, 1), BuildingBlock: CIFDUS_clean_linker_0, # of connection points: 2
#     Edge 33, Type (0, 1), BuildingBlock: CIFDUS_clean_linker_0, # of connection points: 2
#     Edge 34, Type (0, 1), BuildingBlock: CIFDUS_clean_linker_0, # of connection points: 2
#     Edge 35, Type (0, 1), BuildingBlock: CIFDUS_clean_linker_0, # of connection points: 2
# Relax obj value: 0.116
# Max RMSD: 0.159
# Mean RMSD: 0.064
data_MOF--net-pyr--node1-GEDQOX_clean_sbu_0--node2-MIDCAF_clean_linker_0--edge1-CIFDUS_clean_linker_0
_symmetry_space_group_name_H-M    P1
_symmetry_Int_Tables_number       1
_symmetry_cell_setting            triclinic
loop_
_symmetry_equiv_pos_as_xyz
'x, y, z'
_cell_length_a     43.755549
_cell_length_b     43.641062
_cell_length_c     38.093375
_cell_angle_alpha  87.884788
_cell_angle_beta   91.342763
_cell_angle_gamma 86.72359
loop_
_atom_site_label
_atom_site_type_symbol
_atom_site_fract_x
_atom_site_fract_y
_atom_site_fract_z
_atom_type_partial_charge
C0 C 0.14016 0.15344 0.27205 0.0
C1 C 0.15365 0.12628 0.28865 0.0
C2 C 0.18191 0.115 0.27535 0.0
C3 C 0.1957 0.12977 0.24662 0.0
H4 H 0.27248 0.12509 0.18701 0.0
H5 H 0.32021 0.10061 0.16836 0.0
H6 H 0.3185 0.16121 0.07641 0.0
H7 H 0.26988 0.18631 0.09537 0.0
H8 H 0.20563 0.24705 0.09168 0.0
H9 H 0.17742 0.2943 0.06847 0.0
H10 H 0.1243 0.29631 0.16243 0.0
H11 H 0.15122 0.24949 0.18452 0.0
H12 H 0.14249 0.18884 0.23143 0.0
H13 H 0.1184 0.16305 0.28075 0.0
H14 H 0.19378 0.09469 0.28733 0.0
H15 H 0.21728 0.11994 0.23762 0.0
N16 N 0.22312 0.15991 0.1848 0.0
N17 N 0.22305 0.20022 0.14161 0.0
N18 N 0.18397 0.19894 0.18336 0.0
C19 C 0.2367 0.17333 0.15648 0.0
C20 C 0.19656 0.21338 0.15507 0.0
C21 C 0.19678 0.17225 0.19849 0.0
C22 C 0.26661 0.15825 0.14314 0.0
C23 C 0.28187 0.13351 0.16269 0.0
C24 C 0.30973 0.11927 0.15191 0.0
C25 C 0.32401 0.12866 0.12073 0.0
C26 C 0.30854 0.15292 0.10045 0.0
C27 C 0.28055 0.16758 0.11156 0.0
C28 C 0.18084 0.24353 0.1401 0.0
C29 C 0.18788 0.25756 0.10737 0.0
C30 C 0.17161 0.285 0.09403 0.0
C31 C 0.14765 0.29964 0.11287 0.0
C32 C 0.14153 0.28591 0.14599 0.0
C33 C 0.15745 0.25867 0.15905 0.0
C34 C 0.18204 0.15667 0.22979 0.0
C35 C 0.15403 0.16828 0.2433 0.0
C36 C 0.26541 0.81865 0.71585 0.0
C37 C 0.2599 0.80093 0.68659 0.0
C38 C 0.27848 0.77434 0.68158 0.0
C39 C 0.30307 0.76623 0.70461 0.0
H40 H 0.36534 0.68951 0.75976 0.0
H41 H 0.39162 0.64691 0.73115 0.0
H42 H 0.46984 0.70178 0.7158 0.0
H43 H 0.44401 0.7436 0.74637 0.0
H44 H 0.434 0.79445 0.82489 0.0
H45 H 0.45538 0.835 0.8583 0.0
H46 H 0.37473 0.89418 0.83338 0.0
H47 H 0.35336 0.85386 0.79952 0.0
H48 H 0.29494 0.82561 0.76018 0.0
H49 H 0.25134 0.83937 0.72003 0.0
H50 H 0.27451 0.76033 0.6592 0.0
H51 H 0.31751 0.74605 0.6992 0.0
N52 N 0.3557 0.75214 0.74924 0.0
N53 N 0.39585 0.76961 0.7835 0.0
N54 N 0.35058 0.80066 0.77329 0.0
C55 C 0.38403 0.74736 0.76417 0.0
C56 C 0.37897 0.79621 0.78868 0.0
C57 C 0.33884 0.77869 0.75345 0.0
C58 C 0.40265 0.71979 0.75501 0.0
C59 C 0.38855 0.69199 0.75122 0.0
C60 C 0.4035 0.66775 0.73445 0.0
C61 C 0.43256 0.67112 0.72024 0.0
C62 C 0.44757 0.6982 0.7265 0.0
C63 C 0.4328 0.72224 0.74403 0.0
C64 C 0.39189 0.82076 0.80946 0.0
C65 C 0.42075 0.81606 0.82647 0.0
C66 C 0.43298 0.83927 0.8458 0.0
C67 C 0.41672 0.86778 0.84854 0.0
C68 C 0.38795 0.87257 0.83147 0.0
C69 C 0.37564 0.84933 0.81223 0.0
C70 C 0.30994 0.78491 0.73276 0.0
C71 C 0.2904 0.81083 0.73866 0.0
C72 C 0.6988 0.32244 0.94682 0.0
C73 C 0.66719 0.32144 0.93991 0.0
C74 C 0.65233 0.34408 0.91747 0.0
C75 C 0.66915 0.36583 0.89998 0.0
H76 H 0.67687 0.38209 0.79442 0.0
H77 H 0.65429 0.39339 0.73659 0.0
H78 H 0.72382 0.45726 0.71449 0.0
H79 H 0.74667 0.44613 0.77337 0.0
H80 H 0.81175 0.42856 0.82858 0.0
H81 H 0.86274 0.44112 0.84872 0.0
H82 H 0.83847 0.42063 0.95604 0.0
H83 H 0.78821 0.40719 0.93598 0.0
H84 H 0.74017 0.34388 0.93413 0.0
H85 H 0.7107 0.3052 0.96411 0.0
H86 H 0.62802 0.34366 0.91151 0.0
H87 H 0.65733 0.38198 0.8813 0.0
N88 N 0.7087 0.39184 0.84846 0.0
N89 N 0.75412 0.41543 0.83545 0.0
N90 N 0.74751 0.39265 0.89151 0.0
C91 C 0.72584 0.4071 0.82515 0.0
C92 C 0.76501 0.40832 0.86881 0.0
C93 C 0.71926 0.38457 0.88155 0.0
C94 C 0.71354 0.41339 0.7888 0.0
C95 C 0.68761 0.3985 0.77739 0.0
C96 C 0.67477 0.4047 0.74393 0.0
C97 C 0.68735 0.42605 0.72082 0.0
C98 C 0.71357 0.44073 0.73182 0.0
C99 C 0.72668 0.43431 0.76546 0.0
C100 C 0.79584 0.41681 0.88059 0.0
C101 C 0.81733 0.42674 0.85645 0.0
C102 C 0.84655 0.43403 0.86804 0.0
C103 C 0.85482 0.43179 0.90404 0.0
C104 C 0.83321 0.42202 0.92809 0.0
C105 C 0.80419 0.41452 0.91653 0.0
C106 C 0.70107 0.36559 0.90501 0.0
C107 C 0.71559 0.34458 0.92974 0.0
C108 C 0.74264 0.81729 0.35187 0.0
C109 C 0.72534 0.79526 0.33589 0.0
C110 C 0.72789 0.79113 0.2997 0.0
C111 C 0.74943 0.80653 0.28052 0.0
H112 H 0.89314 0.81029 0.21724 0.0
H113 H 0.90959 0.76876 0.17913 0.0
H114 H 0.81512 0.75267 0.15499 0.0
H115 H 0.79862 0.79387 0.19264 0.0
H116 H 0.90626 0.85862 0.28154 0.0
H117 H 0.93961 0.88864 0.31741 0.0
H118 H 0.86009 0.93906 0.35586 0.0
H119 H 0.82699 0.9083 0.32132 0.0
H120 H 0.77886 0.84792 0.34631 0.0
H121 H 0.74109 0.82091 0.37977 0.0
H122 H 0.71437 0.77468 0.28664 0.0
H123 H 0.75198 0.80144 0.25309 0.0
N124 N 0.8063 0.82078 0.25074 0.0
N125 N 0.85296 0.84459 0.25243 0.0
N126 N 0.81553 0.85565 0.29423 0.0
C127 C 0.8341 0.82499 0.23698 0.0
C128 C 0.84345 0.86047 0.28073 0.0
C129 C 0.79681 0.83581 0.27933 0.0
C130 C 0.84458 0.805 0.20852 0.0
C131 C 0.87591 0.79844 0.20306 0.0
C132 C 0.88534 0.77468 0.18127 0.0
C133 C 0.86357 0.75719 0.16472 0.0
C134 C 0.83235 0.76541 0.16801 0.0
C135 C 0.82296 0.78907 0.18957 0.0
C136 C 0.86399 0.88087 0.29891 0.0
C137 C 0.89599 0.87634 0.29743 0.0
C138 C 0.9151 0.8936 0.31796 0.0
C139 C 0.90257 0.91598 0.34004 0.0
C140 C 0.87057 0.92142 0.34005 0.0
C141 C 0.85155 0.90393 0.32 0.0
C142 C 0.769 0.82627 0.29721 0.0
C143 C 0.76433 0.83272 0.33266 0.0
C144 C 0.75759 0.92666 0.88477 0.0
C145 C 0.74419 0.91602 0.91602 0.0
C146 C 0.76085 0.89193 0.93533 0.0
C147 C 0.78912 0.87864 0.92327 0.0
H148 H 0.86324 0.79937 0.93775 0.0
H149 H 0.89233 0.75222 0.95957 0.0
H150 H 0.95029 0.75759 0.86975 0.0
H151 H 0.92231 0.8043 0.84897 0.0
H152 H 0.92472 0.86215 0.79937 0.0
H153 H 0.9484 0.88928 0.75079 0.0
H154 H 0.87587 0.96049 0.75128 0.0
H155 H 0.85257 0.93367 0.80023 0.0
H156 H 0.79448 0.92308 0.84877 0.0
H157 H 0.74618 0.94526 0.86901 0.0
H158 H 0.75162 0.88271 0.95937 0.0
H159 H 0.80069 0.85997 0.93877 0.0
N160 N 0.84683 0.8486 0.89136 0.0
N161 N 0.88561 0.85206 0.84953 0.0
N162 N 0.84551 0.8901 0.84953 0.0
C163 C 0.87356 0.83654 0.8774 0.0
C164 C 0.8721 0.87879 0.83531 0.0
C165 C 0.83242 0.87549 0.87748 0.0
C166 C 0.89019 0.80653 0.89149 0.0
C167 C 0.88223 0.79053 0.92266 0.0
C168 C 0.89902 0.76313 0.93519 0.0
C169 C 0.9245 0.75053 0.91708 0.0
C170 C 0.93174 0.76632 0.88555 0.0
C171 C 0.91522 0.7935 0.87325 0.0
C172 C 0.88648 0.89546 0.80446 0.0
C173 C 0.91367 0.88361 0.78924 0.0
C174 C 0.92731 0.89923 0.76089 0.0
C175 C 0.91449 0.92754 0.74646 0.0
C176 C 0.88713 0.9392 0.76153 0.0
C177 C 0.87346 0.92355 0.7898 0.0
C178 C 0.80221 0.88921 0.89166 0.0
C179 C 0.78577 0.91378 0.87306 0.0
C180 C 0.62682 0.16805 0.22891 0.0
C181 C 0.61742 0.18306 0.19681 0.0
C182 C 0.6169 0.21538 0.1944 0.0
C183 C 0.62555 0.23215 0.22333 0.0
H184 H 0.5973 0.31507 0.28467 0.0
H185 H 0.57831 0.36665 0.3002 0.0
H186 H 0.65227 0.36905 0.37719 0.0
H187 H 0.67154 0.31893 0.36096 0.0
H188 H 0.67503 0.25011 0.40897 0.0
H189 H 0.71215 0.23034 0.45385 0.0
H190 H 0.75087 0.16652 0.3805 0.0
H191 H 0.71281 0.18563 0.33591 0.0
H192 H 0.64286 0.17224 0.28177 0.0
H193 H 0.62675 0.14331 0.23226 0.0
H194 H 0.61014 0.22778 0.17006 0.0
H195 H 0.62503 0.25696 0.22056 0.0
N196 N 0.63617 0.26456 0.28865 0.0
N197 N 0.66253 0.26479 0.3429 0.0
N198 N 0.66281 0.2196 0.3119 0.0
C199 C 0.6451 0.27996 0.31724 0.0
C200 C 0.67147 0.2348 0.34057 0.0
C201 C 0.64503 0.23425 0.28588 0.0
C202 C 0.63562 0.31266 0.32196 0.0
C203 C 0.60981 0.32704 0.30429 0.0
C204 C 0.59885 0.35648 0.31337 0.0
C205 C 0.61361 0.37204 0.34014 0.0
C206 C 0.64045 0.3582 0.35612 0.0
C207 C 0.65132 0.32906 0.34709 0.0
C208 C 0.69131 0.21969 0.36876 0.0
C209 C 0.69121 0.23155 0.40256 0.0
C210 C 0.71257 0.2203 0.42827 0.0
C211 C 0.73485 0.19721 0.42066 0.0
C212 C 0.73389 0.18416 0.3874 0.0
C213 C 0.71217 0.19518 0.36174 0.0
C214 C 0.63529 0.21695 0.25516 0.0
C215 C 0.63586 0.18472 0.25753 0.0
C216 C 0.22421 0.58476 0.19944 0.0
C217 C 0.20358 0.60193 0.17643 0.0
C218 C 0.20853 0.63309 0.1693 0.0
C219 C 0.23328 0.64675 0.18492 0.0
H220 H 0.30049 0.71243 0.16357 0.0
H221 H 0.32528 0.75627 0.13739 0.0
H222 H 0.37154 0.76957 0.2366 0.0
H223 H 0.34666 0.72635 0.26283 0.0
H224 H 0.33073 0.67355 0.332 0.0
H225 H 0.36467 0.65312 0.37977 0.0
H226 H 0.37434 0.56634 0.32856 0.0
H227 H 0.33847 0.58649 0.28203 0.0
H228 H 0.26408 0.58466 0.23313 0.0
H229 H 0.2215 0.56059 0.20508 0.0
H230 H 0.19289 0.64722 0.15225 0.0
H231 H 0.23608 0.6709 0.17912 0.0
N232 N 0.28774 0.67237 0.21351 0.0
N233 N 0.32387 0.67348 0.25965 0.0
N234 N 0.29339 0.63123 0.25528 0.0
C235 C 0.3103 0.68682 0.23014 0.0
C236 C 0.31566 0.6458 0.2723 0.0
C237 C 0.27895 0.6447 0.22609 0.0
C238 C 0.32182 0.71566 0.21521 0.0
C239 C 0.31551 0.72506 0.17994 0.0
C240 C 0.32984 0.75004 0.16488 0.0
C241 C 0.35049 0.76625 0.18488 0.0
C242 C 0.35554 0.75777 0.22055 0.0
C243 C 0.34143 0.73277 0.23552 0.0
C244 C 0.3322 0.63159 0.3034 0.0
C245 C 0.33965 0.64989 0.33147 0.0
C246 C 0.35941 0.63823 0.35861 0.0
C247 C 0.37304 0.60827 0.35772 0.0
C248 C 0.36425 0.58943 0.33038 0.0
C249 C 0.34375 0.60093 0.30363 0.0
C250 C 0.25353 0.62972 0.20842 0.0
C251 C 0.24877 0.59853 0.21541 0.0
C252 C 0.19666 0.1628 0.65428 0.0
C253 C 0.17247 0.1488 0.67087 0.0
C254 C 0.16979 0.15076 0.70741 0.0
C255 C 0.19063 0.167 0.72688 0.0
H256 H 0.28759 0.2461 0.83105 0.0
H257 H 0.27509 0.28526 0.87315 0.0
H258 H 0.17953 0.28427 0.84236 0.0
H259 H 0.19199 0.24463 0.80061 0.0
H260 H 0.33092 0.25192 0.76277 0.0
H261 H 0.36858 0.28155 0.73287 0.0
H262 H 0.3344 0.25311 0.63269 0.0
H263 H 0.29661 0.22314 0.66254 0.0
H264 H 0.23595 0.18918 0.65989 0.0
H265 H 0.19947 0.16135 0.62619 0.0
H266 H 0.15128 0.1402 0.72081 0.0
H267 H 0.18784 0.1684 0.75496 0.0
N268 N 0.22974 0.20942 0.76246 0.0
N269 N 0.27628 0.23339 0.76494 0.0
N270 N 0.26354 0.20633 0.71542 0.0
C271 C 0.24964 0.2266 0.78004 0.0
C272 C 0.28347 0.22349 0.73274 0.0
C273 C 0.23685 0.19876 0.73028 0.0
C274 C 0.24083 0.2427 0.81207 0.0
C275 C 0.26378 0.25356 0.83403 0.0
C276 C 0.25666 0.27612 0.85802 0.0
C277 C 0.22646 0.28841 0.86045 0.0
C278 C 0.20305 0.27526 0.84114 0.0
C279 C 0.21017 0.25249 0.8172 0.0
C280 C 0.31029 0.23562 0.71502 0.0
C281 C 0.3317 0.25145 0.73439 0.0
C282 C 0.35327 0.26853 0.71729 0.0
C283 C 0.354 0.27012 0.68046 0.0
C284 C 0.33435 0.25229 0.66114 0.0
C285 C 0.31267 0.23515 0.67827 0.0
C286 C 0.21484 0.18109 0.7102 0.0
C287 C 0.21769 0.17858 0.6737 0.0
Nd288 Nd 0.05099 0.99996 0.51172 0.0
Nd289 Nd 1.01274 0.05602 0.52257 0.0
C290 C 0.07999 0.9477 0.49663 0.0
C291 C 0.09308 0.92268 0.51997 0.0
C292 C 0.11084 0.89827 0.50672 0.0
C293 C 0.12611 0.87653 0.52981 0.0
C294 C 0.12414 0.87923 0.56648 0.0
C295 C 0.10507 0.90309 0.57937 0.0
C296 C 0.08958 0.92447 0.55632 0.0
C297 C 0.07191 0.03424 0.566 0.0
C298 C 1.00276 0.99783 0.57625 0.0
C299 C 0.98382 0.10997 0.53034 0.0
C300 C 0.95135 0.11972 0.53263 0.0
C301 C 0.94113 0.14871 0.51872 0.0
C302 C 0.90992 0.1557 0.5124 0.0
C303 C 0.88839 0.13373 0.51992 0.0
C304 C 0.89866 0.10544 0.53623 0.0
C305 C 0.92993 0.09842 0.54236 0.0
C306 C 0.98292 1.01254 0.48654 0.0
C307 C 0.06291 0.05873 0.45831 0.0
O308 O 0.05007 0.95155 0.49639 0.0
O309 O 0.09361 0.97354 0.49874 0.0
O310 O 0.07157 1.00462 0.56758 0.0
O311 O 0.06209 0.04472 0.53648 0.0
O312 O 1.01545 0.98188 0.55088 0.0
O313 O 1.00331 0.02821 0.57458 0.0
O314 O 0.99119 0.09941 0.49985 0.0
O315 O 0.99633 0.09336 0.55682 0.0
O316 O 0.97063 0.0285 0.51094 0.0
O317 O 1.00976 1.02008 0.4812 0.0
O318 O 0.04459 0.07452 0.47924 0.0
O319 O 0.06777 0.02869 0.46379 0.0
H320 H 0.11359 0.89651 0.47866 0.0
H321 H 0.14009 0.85811 0.51894 0.0
H322 H 0.10324 0.9063 0.60731 0.0
H323 H 0.07578 0.94313 0.56697 0.0
H324 H 0.9574 0.16522 0.51056 0.0
H325 H 0.90296 0.17754 0.49935 0.0
H326 H 0.88266 0.08821 0.5428 0.0
H327 H 0.93747 0.07574 0.55279 0.0
Nd328 Nd 0.53389 0.99971 0.05067 0.0
Nd329 Nd 0.53307 0.03675 0.99365 0.0
C330 C 0.53361 0.95377 0.09802 0.0
C331 C 0.50973 0.93472 0.11224 0.0
C332 C 0.51462 0.90267 0.11377 0.0
C333 C 0.49156 0.88409 0.12517 0.0
C334 C 0.46326 0.89727 0.13546 0.0
C335 C 0.4585 0.92941 0.13428 0.0
C336 C 0.48145 0.94799 0.12253 0.0
C337 C 0.483 0.04222 0.05346 0.0
C338 C 0.4997 0.97676 0.98048 0.0
C339 C 0.53207 0.08509 0.94946 0.0
C340 C 0.54888 0.11337 0.94899 0.0
C341 C 0.55095 0.13102 0.97902 0.0
C342 C 0.56932 0.15614 0.97924 0.0
C343 C 0.58612 0.16385 0.94957 0.0
C344 C 0.5836 0.14651 0.91937 0.0
C345 C 0.56507 0.12152 0.91907 0.0
C346 C 0.58336 0.9939 0.98982 0.0
C347 C 0.57002 0.05702 0.06262 0.0
O348 O 0.53995 0.94995 0.06513 0.0
O349 O 0.53242 0.9826 0.10609 0.0
O350 O 0.50258 0.0353 0.07883 0.0
O351 O 0.49117 0.02763 0.02652 0.0
O352 O 0.51557 0.96807 1.00913 0.0
O353 O 0.49876 1.00565 0.96965 0.0
O354 O 0.51231 0.08192 0.97423 0.0
O355 O 0.5485 0.05982 0.94477 0.0
O356 O 0.5633 1.00088 0.96481 0.0
O357 O 0.57568 1.00828 1.01719 0.0
O358 O 0.55088 0.06724 0.03727 0.0
O359 O 0.57311 0.02742 0.06937 0.0
H360 H 0.53618 0.89199 0.10577 0.0
H361 H 0.49595 0.85938 0.12618 0.0
H362 H 0.43681 0.94014 0.14177 0.0
H363 H 0.47691 0.97267 0.12111 0.0
H364 H 0.53892 0.12512 1.00262 0.0
H365 H 0.57102 0.16902 1.00291 0.0
H366 H 0.59603 0.15225 0.89599 0.0
H367 H 0.56387 0.10816 0.89571 0.0
Nd368 Nd 0.52422 0.51506 0.52888 0.0
Nd369 Nd 0.5726 0.56039 0.52319 0.0
C370 C 0.47437 0.48368 0.53356 0.0
C371 C 0.46114 0.46044 0.55678 0.0
C372 C 0.43101 0.46544 0.56792 0.0
C373 C 0.41738 0.44302 0.58836 0.0
C374 C 0.43359 0.41506 0.59775 0.0
C375 C 0.46389 0.41022 0.58692 0.0
C376 C 0.47762 0.43276 0.56676 0.0
C377 C 0.57781 0.49727 0.56623 0.0
C378 C 0.52573 0.56944 0.58441 0.0
C379 C 0.62257 0.59143 0.51837 0.0
C380 C 0.63505 0.61343 0.49314 0.0
C381 C 0.66631 0.61109 0.48588 0.0
C382 C 0.67862 0.6321 0.46236 0.0
C383 C 0.65983 0.65592 0.44596 0.0
C384 C 0.62848 0.65815 0.45318 0.0
C385 C 0.61613 0.63696 0.4764 0.0
C386 C 0.51901 0.57936 0.48721 0.0
C387 C 0.57003 0.50644 0.46666 0.0
O388 O 0.47607 0.51129 0.54541 0.0
O389 O 0.49841 0.47478 0.51607 0.0
O390 O 0.56079 0.47821 0.55089 0.0
O391 O 0.56508 0.5237 0.56399 0.0
O392 O 0.50749 0.55402 0.56439 0.0
O393 O 0.55517 0.5696 0.57804 0.0
O394 O 0.62131 0.56313 0.50853 0.0
O395 O 0.59821 0.60108 0.53483 0.0
O396 O 0.53684 0.59785 0.50223 0.0
O397 O 0.5311 0.55256 0.4884 0.0
O398 O 0.58855 0.52209 0.4861 0.0
O399 O 0.5408 0.50607 0.47386 0.0
H400 H 0.41786 0.48655 0.56038 0.0
H401 H 0.39389 0.44725 0.59609 0.0
H402 H 0.47699 0.38901 0.59414 0.0
H403 H 0.50098 0.42834 0.55869 0.0
H404 H 0.68124 0.5931 0.49853 0.0
H405 H 0.70291 0.63002 0.45741 0.0
H406 H 0.61347 0.67608 0.44055 0.0
H407 H 0.59183 0.63904 0.48132 0.0
Nd408 Nd 1.01202 0.51676 0.03796 0.0
Nd409 Nd 0.06017 0.53184 0.98753 0.0
C410 C 0.95934 0.51166 0.06946 0.0
C411 C 0.93601 0.53521 0.07969 0.0
C412 C 0.92965 0.53842 0.11535 0.0
C413 C 0.91291 0.56443 0.12629 0.0
C414 C 0.90253 0.58775 0.10173 0.0
C415 C 0.90707 0.58355 0.06586 0.0
C416 C 0.92339 0.55733 0.05489 0.0
C417 C 0.06103 0.5435 0.06773 0.0
C418 C 1.0064 0.58539 0.99224 0.0
C419 C 0.11297 0.53148 0.95668 0.0
C420 C 0.12848 0.50304 0.94455 0.0
C421 C 0.15939 0.49541 0.95335 0.0
C422 C 0.17209 0.46575 0.94793 0.0
C423 C 0.1539 0.44327 0.93406 0.0
C424 C 0.12329 0.45137 0.92435 0.0
C425 C 0.11072 0.48078 0.92963 0.0
C426 C 1.01131 0.50581 0.95724 0.0
C427 C 0.06608 0.46338 0.03348 0.0
O428 O 0.96259 0.50794 0.03576 0.0
O429 O 0.98558 0.51184 0.08654 0.0
O430 O 0.04718 0.52131 0.08289 0.0
O431 O 0.04819 0.55187 0.03874 0.0
O432 O 0.99268 0.56337 1.00999 0.0
O433 O 0.03554 0.58071 0.9838 0.0
O434 O 0.11088 0.53261 0.99083 0.0
O435 O 0.08727 0.54041 0.94004 0.0
O436 O 1.02568 0.52769 0.94231 0.0
O437 O 1.02384 0.49696 0.98635 0.0
O438 O 0.07938 0.48504 1.01486 0.0
O439 O 0.03735 0.46836 0.04298 0.0
H440 H 0.93907 0.52163 0.13495 0.0
H441 H 0.90968 0.56718 0.15414 0.0
H442 H 0.89884 0.60103 0.04642 0.0
H443 H 0.92741 0.55514 0.02715 0.0
H444 H 0.1733 0.51195 0.96566 0.0
H445 H 0.19577 0.4601 0.95569 0.0
H446 H 0.10884 0.43479 0.91296 0.0
H447 H 0.08663 0.48563 0.92328 0.0
H448 H 0.11674 0.14963 0.34173 0.0
H449 H 0.15508 0.06381 0.30449 0.0
H450 H 0.13187 0.03601 0.35261 0.0
H451 H 0.09997 0.03512 0.40588 0.0
H452 H 0.06053 0.12073 0.44217 0.0
H453 H 0.08426 0.1487 0.39433 0.0
C454 C 0.11995 0.12482 0.34374 0.0
C455 C 0.13833 0.10934 0.31886 0.0
C456 C 0.10607 0.10851 0.37178 0.0
C457 C 0.14196 0.07699 0.32304 0.0
C458 C 0.12834 0.0608 0.35069 0.0
C459 C 0.09652 0.0599 0.40347 0.0
C460 C 0.07819 0.07546 0.42826 0.0
C461 C 0.11034 0.0762 0.37538 0.0
C462 C 0.07428 0.10773 0.42399 0.0
C463 C 0.08796 0.12392 0.39639 0.0
H464 H 0.44501 0.86146 0.91273 0.0
H465 H 0.41735 0.92922 0.83115 0.0
H466 H 0.43962 0.96929 0.86513 0.0
H467 H 0.46834 0.98476 0.9175 0.0
H468 H 0.49615 0.91621 0.99842 0.0
H469 H 0.47267 0.87688 0.9651 0.0
C470 C 0.44405 0.88496 0.90225 0.0
C471 C 0.42971 0.89229 0.86938 0.0
C472 C 0.45699 0.90779 0.92181 0.0
C473 C 0.42809 0.92298 0.85651 0.0
C474 C 0.44094 0.94589 0.87585 0.0
C475 C 0.46915 0.96125 0.92788 0.0
C476 C 0.48414 0.95351 0.96036 0.0
C477 C 0.45561 0.93853 0.90848 0.0
C478 C 0.48492 0.92289 0.97344 0.0
C479 C 0.47148 0.90029 0.9544 0.0
H480 H 0.67491 0.483 0.6908 0.0
H481 H 0.66379 0.38702 0.67405 0.0
H482 H 0.63046 0.40044 0.62279 0.0
H483 H 0.60056 0.43966 0.58611 0.0
H484 H 0.6116 0.53557 0.60344 0.0
H485 H 0.64918 0.522 0.65058 0.0
C486 C 0.66581 0.46501 0.67544 0.0
C487 C 0.67157 0.43409 0.68646 0.0
C488 C 0.64636 0.47289 0.64624 0.0
C489 C 0.65931 0.41105 0.66643 0.0
C490 C 0.64026 0.41868 0.6371 0.0
C491 C 0.6115 0.45752 0.59995 0.0
C492 C 0.60302 0.48851 0.5917 0.0
C493 C 0.63294 0.44956 0.62733 0.0
C494 C 0.6175 0.51149 0.60963 0.0
C495 C 0.639 0.50377 0.6366 0.0
H496 H 0.84107 0.70148 0.17551 0.0
H497 H 0.90768 0.74861 0.11556 0.0
H498 H 0.92413 0.70035 0.08873 0.0
H499 H 0.92078 0.64439 0.08438 0.0
H500 H 0.85594 0.59723 0.14698 0.0
H501 H 0.83718 0.64604 0.17058 0.0
C502 C 0.8589 0.70125 0.15619 0.0
C503 C 0.87301 0.72853 0.14723 0.0
C504 C 0.86849 0.67347 0.14148 0.0
C505 C 0.89656 0.72784 0.12282 0.0
C506 C 0.90588 0.70031 0.10749 0.0
C507 C 0.90223 0.64496 0.10281 0.0
C508 C 0.88953 0.61742 0.11385 0.0
C509 C 0.89216 0.67296 0.11685 0.0
C510 C 0.86597 0.61822 0.13821 0.0
C511 C 0.85531 0.64606 0.15167 0.0
H512 H 0.34719 0.10933 0.05576 0.0
H513 H 0.37317 0.11475 0.16522 0.0
H514 H 0.42293 0.08959 0.15433 0.0
H515 H 0.45991 0.0649 0.1146 0.0
H516 H 0.43527 0.05762 1.00526 0.0
H517 H 0.38524 0.08421 1.01515 0.0
C518 C 0.36375 0.10521 0.07724 0.0
C519 C 0.35554 0.11411 0.11162 0.0
C520 C 0.39304 0.09007 0.07082 0.0
C521 C 0.37791 0.10807 0.1387 0.0
C522 C 0.40675 0.09363 0.13245 0.0
C523 C 0.44371 0.06908 0.09275 0.0
C524 C 0.45194 0.05894 0.05904 0.0
C525 C 0.41465 0.08428 0.09876 0.0
C526 C 0.43008 0.06487 0.03146 0.0
C527 C 0.40125 0.08021 0.03718 0.0
H528 H 0.19896 0.81353 0.69447 0.0
H529 H 0.26993 0.81275 0.61789 0.0
H530 H 0.23351 0.83475 0.57293 0.0
H531 H 0.18288 0.85803 0.55699 0.0
H532 H 0.11059 0.85636 0.6322 0.0
H533 H 0.14618 0.83153 0.67618 0.0
C534 C 0.20621 0.818 0.66782 0.0
C535 C 0.23693 0.81182 0.65935 0.0
C536 C 0.18506 0.83033 0.64203 0.0
C537 C 0.24627 0.81733 0.6248 0.0
C538 C 0.22552 0.82996 0.59918 0.0
C539 C 0.17454 0.85152 0.58261 0.0
C540 C 0.14412 0.8595 0.59128 0.0
C541 C 0.19498 0.83697 0.60764 0.0
C542 C 0.13406 0.85117 0.62497 0.0
C543 C 0.15436 0.83686 0.65015 0.0
H544 H 0.88752 0.47915 0.88011 0.0
H545 H 0.89117 0.40368 0.9569 0.0
H546 H 0.9398 0.41984 0.98042 0.0
H547 H 0.98099 0.45625 0.97999 0.0
H548 H 0.97789 0.53014 0.90134 0.0
H549 H 0.92971 0.51343 0.87743 0.0
C550 C 0.89915 0.46587 0.90159 0.0
C551 C 0.88549 0.44036 0.91679 0.0
C552 C 0.92728 0.47503 0.91474 0.0
C553 C 0.9008 0.42378 0.94504 0.0
C554 C 0.92874 0.43289 0.95843 0.0
C555 C 0.96977 0.46852 0.95753 0.0
C556 C 0.98288 0.49438 0.94248 0.0
C557 C 0.94207 0.45866 0.94369 0.0
C558 C 0.96824 0.5101 0.91334 0.0
C559 C 0.94066 0.50061 0.89967 0.0
H560 H 0.72887 0.73364 0.33372 0.0
H561 H 0.68443 0.80846 0.38747 0.0
H562 H 0.65919 0.77171 0.42573 0.0
H563 H 0.65146 0.71813 0.44501 0.0
H564 H 0.69774 0.64382 0.39203 0.0
H565 H 0.72065 0.68062 0.35214 0.0
C566 C 0.71322 0.74191 0.35341 0.0
C567 C 0.70815 0.77364 0.35756 0.0
C568 C 0.6994 0.72076 0.37554 0.0
C569 C 0.68854 0.78409 0.3838 0.0
C570 C 0.67418 0.76311 0.40562 0.0
C571 C 0.66634 0.71008 0.42448 0.0
C572 C 0.67297 0.67838 0.42139 0.0
C573 C 0.67967 0.73138 0.4019 0.0
C574 C 0.69257 0.66814 0.39506 0.0
C575 C 0.70555 0.68913 0.3722 0.0
H576 H 0.16356 0.3491 0.06817 0.0
H577 H 0.08671 0.31565 0.12412 0.0
H578 H 0.05576 0.36161 0.10573 0.0
H579 H 0.04944 0.41269 0.07441 0.0
H580 H 0.12515 0.44568 1.01634 0.0
H581 H 0.15635 0.39927 0.03411 0.0
C582 C 0.14 0.35155 0.07625 0.0
C583 C 0.12835 0.32829 0.09863 0.0
C584 C 0.12155 0.37852 0.06499 0.0
C585 C 0.09739 0.33285 0.10817 0.0
C586 C 0.07923 0.35935 0.09728 0.0
C587 C 0.07273 0.40984 0.06549 0.0
C588 C 0.08453 0.43346 0.04399 0.0
C589 C 0.09098 0.38261 0.07592 0.0
C590 C 0.11499 0.42854 0.03294 0.0
C591 C 0.13309 0.40172 0.0432 0.0
H592 H 0.68464 0.26222 0.93127 0.0
H593 H 0.61197 0.32046 0.97201 0.0
H594 H 0.58099 0.27592 0.98112 0.0
H595 H 0.57299 0.22131 0.97212 0.0
H596 H 0.64498 0.16406 0.92826 0.0
H597 H 0.67794 0.20737 0.92564 0.0
C598 C 0.66234 0.26499 0.94299 0.0
C599 C 0.6506 0.29439 0.95123 0.0
C600 C 0.64441 0.23958 0.94699 0.0
C601 C 0.6214 0.29792 0.96559 0.0
C602 C 0.60369 0.27254 0.97062 0.0
C603 C 0.59605 0.2183 0.96246 0.0
C604 C 0.60651 0.18971 0.95011 0.0
C605 C 0.61468 0.2434 0.96057 0.0
C606 C 0.63631 0.18605 0.93738 0.0
C607 C 0.65519 0.21071 0.93604 0.0
H608 H 0.89107 0.93206 0.40695 0.0
H609 H 0.95911 0.93788 0.32707 0.0
H610 H 0.99105 0.96643 0.36628 0.0
H611 H 0.99859 0.99176 0.42252 0.0
H612 H 0.92855 0.98865 0.50021 0.0
H613 H 0.89823 0.95738 0.46235 0.0
C614 C 0.91268 0.93989 0.3978 0.0
C615 C 0.92246 0.93298 0.36389 0.0
C616 C 0.93056 0.95687 0.42012 0.0
C617 C 0.95103 0.9426 0.35308 0.0
C618 C 0.96925 0.95911 0.37542 0.0
C619 C 0.97676 0.98406 0.43114 0.0
C620 C 0.96571 0.99248 0.464 0.0
C621 C 0.95913 0.96659 0.4089 0.0
C622 C 0.9374 0.98252 0.47492 0.0
C623 C 0.92007 0.96466 0.45331 0.0
H624 H 0.4927 0.6519 0.71236 0.0
H625 H 0.40137 0.63919 0.67196 0.0
H626 H 0.42201 0.60493 0.62848 0.0
H627 H 0.46591 0.58136 0.59894 0.0
H628 H 0.55751 0.59655 0.63627 0.0
H629 H 0.53682 0.62742 0.68333 0.0
C630 C 0.47729 0.64171 0.69404 0.0
C631 C 0.44547 0.64816 0.69578 0.0
C632 C 0.48935 0.62267 0.66816 0.0
C633 C 0.4259 0.63426 0.67199 0.0
C634 C 0.43769 0.61487 0.64671 0.0
C635 C 0.48137 0.59122 0.61751 0.0
C636 C 0.51318 0.58676 0.61398 0.0
C637 C 0.46937 0.60929 0.6442 0.0
C638 C 0.53289 0.59978 0.63824 0.0
C639 C 0.52109 0.61742 0.66521 0.0
H640 H 0.94778 0.9052 0.69006 0.0
H641 H 0.9163 0.9904 0.7348 0.0
H642 H 0.93979 1.01921 0.68753 0.0
H643 H 0.96994 1.02105 0.63267 0.0
H644 H 1.00163 0.93565 0.58859 0.0
H645 H 0.97808 0.90696 0.63587 0.0
C646 C 0.94614 0.93007 0.68985 0.0
C647 C 0.92969 0.94514 0.71664 0.0
C648 C 0.96003 0.9469 0.66224 0.0
C649 C 0.92798 0.97762 0.71478 0.0
C650 C 0.94175 0.99435 0.68762 0.0
C651 C 0.97178 0.99616 0.63333 0.0
C652 C 0.98785 0.98089 0.60644 0.0
C653 C 0.95787 0.97936 0.66103 0.0
C654 C 0.9896 0.94847 0.60836 0.0
C655 C 0.97603 0.93183 0.63566 0.0
H656 H 0.64117 0.12715 0.17733 0.0
H657 H 0.57131 0.19794 0.14778 0.0
H658 H 0.55289 0.16654 0.10097 0.0
H659 H 0.55362 0.11714 0.07177 0.0
H660 H 0.62035 0.04471 0.10526 0.0
H661 H 0.64263 0.07842 0.14751 0.0
C662 C 0.62173 0.13571 0.16092 0.0
C663 C 0.60755 0.16488 0.16652 0.0
C664 C 0.61052 0.1171 0.13483 0.0
C665 C 0.58297 0.17579 0.14408 0.0
C666 C 0.5722 0.15771 0.11741 0.0
C667 C 0.57329 0.10888 0.088 0.0
C668 C 0.58529 0.07846 0.08547 0.0
C669 C 0.58542 0.1281 0.11298 0.0
C670 C 0.61061 0.06799 0.10686 0.0
C671 C 0.62334 0.08724 0.13104 0.0
H672 H 0.41657 0.64256 0.38648 0.0
H673 H 0.38611 0.5501 0.38707 0.0
H674 H 0.42888 0.5329 0.42671 0.0
H675 H 0.47543 0.54414 0.46083 0.0
H676 H 0.50295 0.63743 0.46303 0.0
H677 H 0.46018 0.65443 0.42337 0.0
C678 C 0.41867 0.61874 0.3958 0.0
C679 C 0.3979 0.59775 0.38365 0.0
C680 C 0.44284 0.60914 0.41916 0.0
C681 C 0.40187 0.56679 0.39545 0.0
C682 C 0.42625 0.55693 0.41833 0.0
C683 C 0.47193 0.56818 0.45261 0.0
C684 C 0.49236 0.5895 0.4645 0.0
C685 C 0.44699 0.57788 0.43018 0.0
C686 C 0.48751 0.62062 0.45412 0.0
C687 C 0.46312 0.63033 0.43141 0.0
H688 H 0.17854 0.30353 0.90251 0.0
H689 H 0.25992 0.3391 0.85846 0.0
H690 H 0.24645 0.38949 0.88084 0.0
H691 H 0.2086 0.42501 0.90683 0.0
H692 H 0.12691 0.38994 0.9505 0.0
H693 H 0.14333 0.33805 0.93429 0.0
C694 C 0.19344 0.32226 0.89815 0.0
C695 C 0.22011 0.3175 0.87874 0.0
C696 C 0.18531 0.35144 0.91064 0.0
C697 C 0.23942 0.34193 0.87367 0.0
C698 C 0.2316 0.37091 0.88618 0.0
C699 C 0.19473 0.40591 0.91345 0.0
C700 C 0.16633 0.4114 0.92917 0.0
C701 C 0.20422 0.37614 0.90389 0.0
C702 C 0.14856 0.38639 0.93758 0.0
C703 C 0.15796 0.3567 0.92844 0.0
H704 H 0.72136 0.93261 0.9822 0.0
H705 H 0.69389 0.92929 0.87295 0.0
H706 H 0.64344 0.95186 0.88582 0.0
H707 H 0.60618 0.97368 0.92729 0.0
H708 H 0.6324 0.97908 0.03644 0.0
H709 H 0.68313 0.95494 1.02453 0.0
C710 C 0.70434 0.93662 0.96117 0.0
C711 C 0.71234 0.92909 0.92626 0.0
C712 C 0.67463 0.95028 0.96877 0.0
C713 C 0.68935 0.93496 0.89984 0.0
C714 C 0.66009 0.9479 0.90724 0.0
C715 C 0.62286 0.96959 0.94868 0.0
C716 C 0.61483 0.97845 0.98296 0.0
C717 C 0.65238 0.95589 0.94148 0.0
C718 C 0.63737 0.97274 1.00987 0.0
C719 C 0.66662 0.95882 1.00296 0.0
H720 H 0.76238 0.14034 0.43608 0.0
H721 H 0.76555 0.23562 0.46207 0.0
H722 H 0.81084 0.22343 0.49929 0.0
H723 H 0.85252 0.18691 0.51975 0.0
H724 H 0.85208 0.09255 0.48958 0.0
H725 H 0.80269 0.10309 0.45943 0.0
C726 C 0.77294 0.15842 0.44994 0.0
C727 C 0.76055 0.18885 0.44607 0.0
C728 C 0.79958 0.15144 0.47064 0.0
C729 C 0.77425 0.2119 0.46481 0.0
C730 C 0.80037 0.20502 0.48593 0.0
C731 C 0.84156 0.16861 0.50673 0.0
C732 C 0.8562 0.13908 0.50676 0.0
C733 C 0.81365 0.17504 0.48834 0.0
C734 C 0.84129 0.11546 0.49039 0.0
C735 C 0.81315 0.12153 0.47273 0.0
H736 H 0.17854 0.61215 0.11026 0.0
H737 H 0.1676 0.55963 0.20706 0.0
H738 H 0.12324 0.5365 0.18162 0.0
H739 H 0.08683 0.53179 0.13239 0.0
H740 H 0.09586 0.58621 0.03676 0.0
H741 H 0.14131 0.60847 0.06153 0.0
C742 C 0.1663 0.59591 0.126 0.0
C743 C 0.17663 0.58765 0.16056 0.0
C744 C 0.14032 0.58315 0.11148 0.0
C745 C 0.16066 0.56608 0.1802 0.0
C746 C 0.13507 0.553 0.16579 0.0
C747 C 0.09875 0.54856 0.11702 0.0
C748 C 0.08808 0.55739 0.08286 0.0
C749 C 0.12465 0.56142 0.13152 0.0
C750 C 0.10365 0.57914 0.06319 0.0
C751 C 0.12964 0.59182 0.07731 0.0
H752 H 0.3585 0.32954 0.69604 0.0
H753 H 0.3907 0.2618 0.62381 0.0
H754 H 0.4192 0.3006 0.59246 0.0
H755 H 0.43345 0.35425 0.58468 0.0
H756 H 0.39997 0.42181 0.65651 0.0
H757 H 0.37351 0.38249 0.68916 0.0
C758 C 0.37217 0.32313 0.67378 0.0
C759 C 0.37276 0.29282 0.66241 0.0
C760 C 0.38807 0.34555 0.65577 0.0
C761 C 0.3899 0.28503 0.63299 0.0
C762 C 0.40619 0.30717 0.61513 0.0
C763 C 0.42064 0.36023 0.60773 0.0
C764 C 0.41864 0.39085 0.61822 0.0
C765 C 0.40525 0.33755 0.62615 0.0
C766 C 0.4016 0.39844 0.64778 0.0
C767 C 0.38657 0.37597 0.6665 0.0
H768 H 0.90783 0.69832 0.95629 0.0
H769 H 0.98656 0.73694 0.90937 0.0
H770 H 1.01799 0.691 0.92713 0.0
H771 H 1.0242 0.63849 0.95575 0.0
H772 H 0.94596 0.60073 1.00411 0.0
H773 H 0.91449 0.64682 0.98687 0.0
C774 C 0.93189 0.69703 0.95007 0.0
C775 C 0.94402 0.72178 0.93053 0.0
C776 C 0.95052 0.6701 0.96089 0.0
C777 C 0.97561 0.71863 0.9232 0.0
C778 C 0.994 0.69212 0.93374 0.0
C779 C 1.0003 0.64024 0.96266 0.0
C780 C 0.98792 0.61531 0.98153 0.0
C781 C 0.98182 0.66745 0.95242 0.0
C782 C 0.95666 0.61886 0.98986 0.0
C783 C 0.93837 0.64554 0.97983 0.0
H784 H 0.36328 0.82159 0.21067 0.0
H785 H 0.37908 0.76446 0.12206 0.0
H786 H 0.41425 0.8008 0.09803 0.0
H787 H 0.44336 0.84689 0.10436 0.0
H788 H 0.42841 0.90352 0.19348 0.0
H789 H 0.39015 0.86928 0.21523 0.0
C790 C 0.37434 0.81719 0.18602 0.0
C791 C 0.36869 0.79028 0.1683 0.0
C792 C 0.39489 0.83794 0.17262 0.0
C793 C 0.38278 0.78513 0.13608 0.0
C794 C 0.40313 0.80576 0.12247 0.0
C795 C 0.43171 0.85167 0.12855 0.0
C796 C 0.43887 0.87747 0.14749 0.0
C797 C 0.40982 0.83189 0.14089 0.0
C798 C 0.4232 0.88381 0.17841 0.0
C799 C 0.40143 0.8642 0.19091 0.0
H800 H 0.15313 0.09126 0.6833 0.0
H801 H 0.14224 0.16956 0.61074 0.0
H802 H 0.10853 0.1416 0.57298 0.0
H803 H 0.0844 0.0941 0.55897 0.0
H804 H 0.09671 1.01481 0.62992 0.0
H805 H 0.1273 0.04396 0.67014 0.0
C806 C 0.14302 0.10225 0.65944 0.0
C807 C 0.15022 0.13234 0.6497 0.0
C808 C 0.12404 0.08583 0.63753 0.0
C809 C 0.13725 0.14628 0.61856 0.0
C810 C 0.11795 0.13035 0.59701 0.0
C811 C 0.09361 0.08327 0.58337 0.0
C812 C 0.08849 0.05234 0.59144 0.0
C813 C 0.11156 0.09998 0.60596 0.0
C814 C 0.10049 0.03859 0.62311 0.0
C815 C 0.11799 0.05523 0.64607 0.0
H816 H 0.64278 0.42145 0.36365 0.0
H817 H 0.55289 0.38685 0.35015 0.0
H818 H 0.53102 0.42813 0.38468 0.0
H819 H 0.53837 0.46926 0.42539 0.0
H820 H 0.6288 0.50123 0.44337 0.0
H821 H 0.64952 0.46542 0.4009 0.0
C822 C 0.61836 0.423 0.36808 0.0
C823 C 0.59966 0.40068 0.35465 0.0
C824 C 0.60609 0.446 0.38934 0.0
C825 C 0.56792 0.40368 0.35984 0.0
C826 C 0.55539 0.42711 0.38003 0.0
C827 C 0.56257 0.46872 0.41978 0.0
C828 C 0.58207 0.48765 0.43792 0.0
C829 C 0.57443 0.44766 0.39594 0.0
C830 C 0.61332 0.48674 0.43005 0.0
C831 C 0.62519 0.46625 0.40576 0.0
loop_
_geom_bond_atom_site_label_1
_geom_bond_atom_site_label_2
_geom_bond_distance
_geom_bond_site_symmetry_2
_ccdc_geom_bond_type
C0 C1 1.384 . S
C0 H13 0.947 . S
C0 C35 1.382 . S
C1 C0 1.384 . S
C1 C2 1.378 . S
C2 C1 1.378 . S
C2 C3 1.378 . S
C2 H14 0.952 . S
C3 C2 1.378 . S
C3 H15 0.950 . S
C3 C34 1.383 . S
H4 C23 0.947 . S
H5 C24 0.946 . S
H6 C26 0.953 . S
H7 C27 0.945 . S
H8 C29 0.952 . S
H9 C30 0.949 . S
H10 C32 0.950 . S
H11 C33 0.948 . S
H12 C35 0.951 . S
H13 C0 0.947 . S
H14 C2 0.952 . S
H15 C3 0.950 . S
N16 C19 1.382 . S
N16 C21 1.363 . S
N17 C19 1.371 . S
N17 C20 1.372 . S
N18 C20 1.361 . S
N18 C21 1.377 . S
C19 N16 1.382 . S
C19 N17 1.371 . S
C19 C22 1.480 . S
C20 N17 1.372 . S
C20 N18 1.361 . S
C20 C28 1.457 . S
C21 N16 1.363 . S
C21 N18 1.377 . S
C21 C34 1.479 . S
C22 C19 1.480 . S
C22 C23 1.383 . S
C22 C27 1.385 . S
C23 H4 0.947 . S
C23 C22 1.383 . S
C23 C24 1.388 . S
C24 H5 0.946 . S
C24 C23 1.388 . S
C24 C25 1.384 . S
C25 C24 1.384 . S
C25 C26 1.377 . S
C26 H6 0.953 . S
C26 C25 1.377 . S
C26 C27 1.369 . S
C27 H7 0.945 . S
C27 C22 1.385 . S
C27 C26 1.369 . S
C28 C20 1.457 . S
C28 C29 1.372 . S
C28 C33 1.364 . S
C29 H8 0.952 . S
C29 C28 1.372 . S
C29 C30 1.389 . S
C30 H9 0.949 . S
C30 C29 1.389 . S
C30 C31 1.387 . S
C31 C30 1.387 . S
C31 C32 1.372 . S
C32 H10 0.950 . S
C32 C31 1.372 . S
C32 C33 1.379 . S
C33 H11 0.948 . S
C33 C28 1.364 . S
C33 C32 1.379 . S
C34 C3 1.383 . S
C34 C21 1.479 . S
C34 C35 1.398 . S
C35 C0 1.382 . S
C35 H12 0.951 . S
C35 C34 1.398 . S
C36 C37 1.384 . S
C36 H49 0.947 . S
C36 C71 1.382 . S
C37 C36 1.384 . S
C37 C38 1.378 . S
C38 C37 1.378 . S
C38 C39 1.378 . S
C38 H50 0.952 . S
C39 C38 1.378 . S
C39 H51 0.950 . S
C39 C70 1.383 . S
H40 C59 0.947 . S
H41 C60 0.946 . S
H42 C62 0.953 . S
H43 C63 0.945 . S
H44 C65 0.952 . S
H45 C66 0.949 . S
H46 C68 0.950 . S
H47 C69 0.948 . S
H48 C71 0.951 . S
H49 C36 0.947 . S
H50 C38 0.952 . S
H51 C39 0.950 . S
N52 C55 1.382 . S
N52 C57 1.363 . S
N53 C55 1.371 . S
N53 C56 1.372 . S
N54 C56 1.361 . S
N54 C57 1.377 . S
C55 N52 1.382 . S
C55 N53 1.371 . S
C55 C58 1.480 . S
C56 N53 1.372 . S
C56 N54 1.361 . S
C56 C64 1.457 . S
C57 N52 1.363 . S
C57 N54 1.377 . S
C57 C70 1.479 . S
C58 C55 1.480 . S
C58 C59 1.383 . S
C58 C63 1.385 . S
C59 H40 0.947 . S
C59 C58 1.383 . S
C59 C60 1.388 . S
C60 H41 0.946 . S
C60 C59 1.388 . S
C60 C61 1.384 . S
C61 C60 1.384 . S
C61 C62 1.377 . S
C62 H42 0.953 . S
C62 C61 1.377 . S
C62 C63 1.369 . S
C63 H43 0.945 . S
C63 C58 1.385 . S
C63 C62 1.369 . S
C64 C56 1.457 . S
C64 C65 1.372 . S
C64 C69 1.364 . S
C65 H44 0.952 . S
C65 C64 1.372 . S
C65 C66 1.389 . S
C66 H45 0.949 . S
C66 C65 1.389 . S
C66 C67 1.387 . S
C67 C66 1.387 . S
C67 C68 1.372 . S
C68 H46 0.950 . S
C68 C67 1.372 . S
C68 C69 1.379 . S
C69 H47 0.948 . S
C69 C64 1.364 . S
C69 C68 1.379 . S
C70 C39 1.383 . S
C70 C57 1.479 . S
C70 C71 1.398 . S
C71 C36 1.382 . S
C71 H48 0.951 . S
C71 C70 1.398 . S
C72 C73 1.384 . S
C72 H85 0.947 . S
C72 C107 1.382 . S
C73 C72 1.384 . S
C73 C74 1.378 . S
C74 C73 1.378 . S
C74 C75 1.378 . S
C74 H86 0.952 . S
C75 C74 1.378 . S
C75 H87 0.950 . S
C75 C106 1.383 . S
H76 C95 0.947 . S
H77 C96 0.946 . S
H78 C98 0.953 . S
H79 C99 0.945 . S
H80 C101 0.952 . S
H81 C102 0.949 . S
H82 C104 0.950 . S
H83 C105 0.948 . S
H84 C107 0.951 . S
H85 C72 0.947 . S
H86 C74 0.952 . S
H87 C75 0.950 . S
N88 C91 1.382 . S
N88 C93 1.363 . S
N89 C91 1.371 . S
N89 C92 1.372 . S
N90 C92 1.361 . S
N90 C93 1.377 . S
C91 N88 1.382 . S
C91 N89 1.371 . S
C91 C94 1.480 . S
C92 N89 1.372 . S
C92 N90 1.361 . S
C92 C100 1.457 . S
C93 N88 1.363 . S
C93 N90 1.377 . S
C93 C106 1.479 . S
C94 C91 1.480 . S
C94 C95 1.383 . S
C94 C99 1.385 . S
C95 H76 0.947 . S
C95 C94 1.383 . S
C95 C96 1.388 . S
C96 H77 0.946 . S
C96 C95 1.388 . S
C96 C97 1.384 . S
C97 C96 1.384 . S
C97 C98 1.377 . S
C98 H78 0.953 . S
C98 C97 1.377 . S
C98 C99 1.369 . S
C99 H79 0.945 . S
C99 C94 1.385 . S
C99 C98 1.369 . S
C100 C92 1.457 . S
C100 C101 1.372 . S
C100 C105 1.364 . S
C101 H80 0.952 . S
C101 C100 1.372 . S
C101 C102 1.389 . S
C102 H81 0.949 . S
C102 C101 1.389 . S
C102 C103 1.387 . S
C103 C102 1.387 . S
C103 C104 1.372 . S
C104 H82 0.950 . S
C104 C103 1.372 . S
C104 C105 1.379 . S
C105 H83 0.948 . S
C105 C100 1.364 . S
C105 C104 1.379 . S
C106 C75 1.383 . S
C106 C93 1.479 . S
C106 C107 1.398 . S
C107 C72 1.382 . S
C107 H84 0.951 . S
C107 C106 1.398 . S
C108 C109 1.384 . S
C108 H121 0.947 . S
C108 C143 1.382 . S
C109 C108 1.384 . S
C109 C110 1.378 . S
C110 C109 1.378 . S
C110 C111 1.378 . S
C110 H122 0.952 . S
C111 C110 1.378 . S
C111 H123 0.950 . S
C111 C142 1.383 . S
H112 C131 0.947 . S
H113 C132 0.946 . S
H114 C134 0.953 . S
H115 C135 0.945 . S
H116 C137 0.952 . S
H117 C138 0.949 . S
H118 C140 0.950 . S
H119 C141 0.948 . S
H120 C143 0.951 . S
H121 C108 0.947 . S
H122 C110 0.952 . S
H123 C111 0.950 . S
N124 C127 1.382 . S
N124 C129 1.363 . S
N125 C127 1.371 . S
N125 C128 1.372 . S
N126 C128 1.361 . S
N126 C129 1.377 . S
C127 N124 1.382 . S
C127 N125 1.371 . S
C127 C130 1.480 . S
C128 N125 1.372 . S
C128 N126 1.361 . S
C128 C136 1.457 . S
C129 N124 1.363 . S
C129 N126 1.377 . S
C129 C142 1.479 . S
C130 C127 1.480 . S
C130 C131 1.383 . S
C130 C135 1.385 . S
C131 H112 0.947 . S
C131 C130 1.383 . S
C131 C132 1.388 . S
C132 H113 0.946 . S
C132 C131 1.388 . S
C132 C133 1.384 . S
C133 C132 1.384 . S
C133 C134 1.377 . S
C134 H114 0.953 . S
C134 C133 1.377 . S
C134 C135 1.369 . S
C135 H115 0.945 . S
C135 C130 1.385 . S
C135 C134 1.369 . S
C136 C128 1.457 . S
C136 C137 1.372 . S
C136 C141 1.364 . S
C137 H116 0.952 . S
C137 C136 1.372 . S
C137 C138 1.389 . S
C138 H117 0.949 . S
C138 C137 1.389 . S
C138 C139 1.387 . S
C139 C138 1.387 . S
C139 C140 1.372 . S
C140 H118 0.950 . S
C140 C139 1.372 . S
C140 C141 1.379 . S
C141 H119 0.948 . S
C141 C136 1.364 . S
C141 C140 1.379 . S
C142 C111 1.383 . S
C142 C129 1.479 . S
C142 C143 1.398 . S
C143 C108 1.382 . S
C143 H120 0.951 . S
C143 C142 1.398 . S
C144 C145 1.384 . S
C144 H157 0.947 . S
C144 C179 1.382 . S
C145 C144 1.384 . S
C145 C146 1.378 . S
C146 C145 1.378 . S
C146 C147 1.378 . S
C146 H158 0.952 . S
C147 C146 1.378 . S
C147 H159 0.950 . S
C147 C178 1.383 . S
H148 C167 0.947 . S
H149 C168 0.946 . S
H150 C170 0.953 . S
H151 C171 0.945 . S
H152 C173 0.952 . S
H153 C174 0.949 . S
H154 C176 0.950 . S
H155 C177 0.948 . S
H156 C179 0.951 . S
H157 C144 0.947 . S
H158 C146 0.952 . S
H159 C147 0.950 . S
N160 C163 1.382 . S
N160 C165 1.363 . S
N161 C163 1.371 . S
N161 C164 1.372 . S
N162 C164 1.361 . S
N162 C165 1.377 . S
C163 N160 1.382 . S
C163 N161 1.371 . S
C163 C166 1.480 . S
C164 N161 1.372 . S
C164 N162 1.361 . S
C164 C172 1.457 . S
C165 N160 1.363 . S
C165 N162 1.377 . S
C165 C178 1.479 . S
C166 C163 1.480 . S
C166 C167 1.383 . S
C166 C171 1.385 . S
C167 H148 0.947 . S
C167 C166 1.383 . S
C167 C168 1.388 . S
C168 H149 0.946 . S
C168 C167 1.388 . S
C168 C169 1.384 . S
C169 C168 1.384 . S
C169 C170 1.377 . S
C170 H150 0.953 . S
C170 C169 1.377 . S
C170 C171 1.369 . S
C171 H151 0.945 . S
C171 C166 1.385 . S
C171 C170 1.369 . S
C172 C164 1.457 . S
C172 C173 1.372 . S
C172 C177 1.364 . S
C173 H152 0.952 . S
C173 C172 1.372 . S
C173 C174 1.389 . S
C174 H153 0.949 . S
C174 C173 1.389 . S
C174 C175 1.387 . S
C175 C174 1.387 . S
C175 C176 1.372 . S
C176 H154 0.950 . S
C176 C175 1.372 . S
C176 C177 1.379 . S
C177 H155 0.948 . S
C177 C172 1.364 . S
C177 C176 1.379 . S
C178 C147 1.383 . S
C178 C165 1.479 . S
C178 C179 1.398 . S
C179 C144 1.382 . S
C179 H156 0.951 . S
C179 C178 1.398 . S
C180 C181 1.384 . S
C180 H193 0.947 . S
C180 C215 1.382 . S
C181 C180 1.384 . S
C181 C182 1.378 . S
C182 C181 1.378 . S
C182 C183 1.378 . S
C182 H194 0.952 . S
C183 C182 1.378 . S
C183 H195 0.950 . S
C183 C214 1.383 . S
H184 C203 0.947 . S
H185 C204 0.946 . S
H186 C206 0.953 . S
H187 C207 0.945 . S
H188 C209 0.952 . S
H189 C210 0.949 . S
H190 C212 0.950 . S
H191 C213 0.948 . S
H192 C215 0.951 . S
H193 C180 0.947 . S
H194 C182 0.952 . S
H195 C183 0.950 . S
N196 C199 1.382 . S
N196 C201 1.363 . S
N197 C199 1.371 . S
N197 C200 1.372 . S
N198 C200 1.361 . S
N198 C201 1.377 . S
C199 N196 1.382 . S
C199 N197 1.371 . S
C199 C202 1.480 . S
C200 N197 1.372 . S
C200 N198 1.361 . S
C200 C208 1.457 . S
C201 N196 1.363 . S
C201 N198 1.377 . S
C201 C214 1.479 . S
C202 C199 1.480 . S
C202 C203 1.383 . S
C202 C207 1.385 . S
C203 H184 0.947 . S
C203 C202 1.383 . S
C203 C204 1.388 . S
C204 H185 0.946 . S
C204 C203 1.388 . S
C204 C205 1.384 . S
C205 C204 1.384 . S
C205 C206 1.377 . S
C206 H186 0.953 . S
C206 C205 1.377 . S
C206 C207 1.369 . S
C207 H187 0.945 . S
C207 C202 1.385 . S
C207 C206 1.369 . S
C208 C200 1.457 . S
C208 C209 1.372 . S
C208 C213 1.364 . S
C209 H188 0.952 . S
C209 C208 1.372 . S
C209 C210 1.389 . S
C210 H189 0.949 . S
C210 C209 1.389 . S
C210 C211 1.387 . S
C211 C210 1.387 . S
C211 C212 1.372 . S
C212 H190 0.950 . S
C212 C211 1.372 . S
C212 C213 1.379 . S
C213 H191 0.948 . S
C213 C208 1.364 . S
C213 C212 1.379 . S
C214 C183 1.383 . S
C214 C201 1.479 . S
C214 C215 1.398 . S
C215 C180 1.382 . S
C215 H192 0.951 . S
C215 C214 1.398 . S
C216 C217 1.384 . S
C216 H229 0.947 . S
C216 C251 1.382 . S
C217 C216 1.384 . S
C217 C218 1.378 . S
C218 C217 1.378 . S
C218 C219 1.378 . S
C218 H230 0.952 . S
C219 C218 1.378 . S
C219 H231 0.950 . S
C219 C250 1.383 . S
H220 C239 0.947 . S
H221 C240 0.946 . S
H222 C242 0.953 . S
H223 C243 0.945 . S
H224 C245 0.952 . S
H225 C246 0.949 . S
H226 C248 0.950 . S
H227 C249 0.948 . S
H228 C251 0.951 . S
H229 C216 0.947 . S
H230 C218 0.952 . S
H231 C219 0.950 . S
N232 C235 1.382 . S
N232 C237 1.363 . S
N233 C235 1.371 . S
N233 C236 1.372 . S
N234 C236 1.361 . S
N234 C237 1.377 . S
C235 N232 1.382 . S
C235 N233 1.371 . S
C235 C238 1.480 . S
C236 N233 1.372 . S
C236 N234 1.361 . S
C236 C244 1.457 . S
C237 N232 1.363 . S
C237 N234 1.377 . S
C237 C250 1.479 . S
C238 C235 1.480 . S
C238 C239 1.383 . S
C238 C243 1.385 . S
C239 H220 0.947 . S
C239 C238 1.383 . S
C239 C240 1.388 . S
C240 H221 0.946 . S
C240 C239 1.388 . S
C240 C241 1.384 . S
C241 C240 1.384 . S
C241 C242 1.377 . S
C242 H222 0.953 . S
C242 C241 1.377 . S
C242 C243 1.369 . S
C243 H223 0.945 . S
C243 C238 1.385 . S
C243 C242 1.369 . S
C244 C236 1.457 . S
C244 C245 1.372 . S
C244 C249 1.364 . S
C245 H224 0.952 . S
C245 C244 1.372 . S
C245 C246 1.389 . S
C246 H225 0.949 . S
C246 C245 1.389 . S
C246 C247 1.387 . S
C247 C246 1.387 . S
C247 C248 1.372 . S
C248 H226 0.950 . S
C248 C247 1.372 . S
C248 C249 1.379 . S
C249 H227 0.948 . S
C249 C244 1.364 . S
C249 C248 1.379 . S
C250 C219 1.383 . S
C250 C237 1.479 . S
C250 C251 1.398 . S
C251 C216 1.382 . S
C251 H228 0.951 . S
C251 C250 1.398 . S
C252 C253 1.384 . S
C252 H265 0.947 . S
C252 C287 1.382 . S
C253 C252 1.384 . S
C253 C254 1.378 . S
C254 C253 1.378 . S
C254 C255 1.378 . S
C254 H266 0.952 . S
C255 C254 1.378 . S
C255 H267 0.950 . S
C255 C286 1.383 . S
H256 C275 0.947 . S
H257 C276 0.946 . S
H258 C278 0.953 . S
H259 C279 0.945 . S
H260 C281 0.952 . S
H261 C282 0.949 . S
H262 C284 0.950 . S
H263 C285 0.948 . S
H264 C287 0.951 . S
H265 C252 0.947 . S
H266 C254 0.952 . S
H267 C255 0.950 . S
N268 C271 1.382 . S
N268 C273 1.363 . S
N269 C271 1.371 . S
N269 C272 1.372 . S
N270 C272 1.361 . S
N270 C273 1.377 . S
C271 N268 1.382 . S
C271 N269 1.371 . S
C271 C274 1.480 . S
C272 N269 1.372 . S
C272 N270 1.361 . S
C272 C280 1.457 . S
C273 N268 1.363 . S
C273 N270 1.377 . S
C273 C286 1.479 . S
C274 C271 1.480 . S
C274 C275 1.383 . S
C274 C279 1.385 . S
C275 H256 0.947 . S
C275 C274 1.383 . S
C275 C276 1.388 . S
C276 H257 0.946 . S
C276 C275 1.388 . S
C276 C277 1.384 . S
C277 C276 1.384 . S
C277 C278 1.377 . S
C278 H258 0.953 . S
C278 C277 1.377 . S
C278 C279 1.369 . S
C279 H259 0.945 . S
C279 C274 1.385 . S
C279 C278 1.369 . S
C280 C272 1.457 . S
C280 C281 1.372 . S
C280 C285 1.364 . S
C281 H260 0.952 . S
C281 C280 1.372 . S
C281 C282 1.389 . S
C282 H261 0.949 . S
C282 C281 1.389 . S
C282 C283 1.387 . S
C283 C282 1.387 . S
C283 C284 1.372 . S
C284 H262 0.950 . S
C284 C283 1.372 . S
C284 C285 1.379 . S
C285 H263 0.948 . S
C285 C280 1.364 . S
C285 C284 1.379 . S
C286 C255 1.383 . S
C286 C273 1.479 . S
C286 C287 1.398 . S
C287 C252 1.382 . S
C287 H264 0.951 . S
C287 C286 1.398 . S
Nd288 C290 2.836 . S
Nd288 O308 2.500 . S
Nd288 O309 2.492 . S
Nd288 O310 2.487 1_565 S
Nd288 O311 2.682 1_565 S
Nd288 O312 2.410 . S
Nd288 O317 2.414 1_455 S
Nd288 O319 2.424 1_565 S
Nd289 C299 2.836 . S
Nd289 O311 2.414 1_655 S
Nd289 O313 2.424 1_545 S
Nd289 O314 2.500 . S
Nd289 O315 2.492 . S
Nd289 O316 2.487 1_545 S
Nd289 O317 2.682 1_545 S
Nd289 O318 2.410 . S
C290 Nd288 2.836 . S
C290 C291 1.498 . S
C290 O308 1.258 . S
C290 O309 1.239 . S
C291 C290 1.498 . S
C291 C292 1.366 . S
C291 C296 1.407 . S
C292 C291 1.366 . S
C292 C293 1.392 . S
C292 H320 0.930 . S
C293 C292 1.392 . S
C293 C294 1.398 . S
C293 H321 0.929 . S
C294 C293 1.398 . S
C294 C295 1.352 . S
C295 C294 1.352 . S
C295 C296 1.384 . S
C295 H322 0.930 . S
C296 C291 1.407 . S
C296 C295 1.384 . S
C296 H323 0.929 . S
C297 O310 1.241 . S
C297 O311 1.273 . S
C298 O312 1.251 1_655 S
C298 O313 1.268 . S
C299 Nd289 2.836 . S
C299 C300 1.498 . S
C299 O314 1.258 . S
C299 O315 1.239 . S
C300 C299 1.498 . S
C300 C301 1.366 . S
C300 C305 1.407 . S
C301 C300 1.366 . S
C301 C302 1.392 . S
C301 H324 0.930 . S
C302 C301 1.392 . S
C302 C303 1.398 . S
C302 H325 0.929 . S
C303 C302 1.398 . S
C303 C304 1.352 . S
C304 C303 1.352 . S
C304 C305 1.384 . S
C304 H326 0.930 . S
C305 C300 1.407 . S
C305 C304 1.384 . S
C305 H327 0.929 . S
C306 O316 1.241 . S
C306 O317 1.273 . S
C307 O318 1.251 1_455 S
C307 O319 1.268 . S
O308 Nd288 2.500 . S
O308 C290 1.258 . S
O309 Nd288 2.492 . S
O309 C290 1.239 . S
O310 Nd288 2.487 1_545 S
O310 C297 1.241 . S
O311 Nd288 2.682 1_545 S
O311 Nd289 2.414 1_455 S
O311 C297 1.273 . S
O312 Nd288 2.410 . S
O312 C298 1.251 1_455 S
O313 Nd289 2.424 1_565 S
O313 C298 1.268 . S
O314 Nd289 2.500 . S
O314 C299 1.258 . S
O315 Nd289 2.492 . S
O315 C299 1.239 . S
O316 Nd289 2.487 1_565 S
O316 C306 1.241 . S
O317 Nd288 2.414 1_655 S
O317 Nd289 2.682 1_565 S
O317 C306 1.273 . S
O318 Nd289 2.410 . S
O318 C307 1.251 1_655 S
O319 Nd288 2.424 1_545 S
O319 C307 1.268 . S
H320 C292 0.930 . S
H321 C293 0.929 . S
H322 C295 0.930 . S
H323 C296 0.929 . S
H324 C301 0.930 . S
H325 C302 0.929 . S
H326 C304 0.930 . S
H327 C305 0.929 . S
Nd328 C330 2.836 . S
Nd328 O348 2.500 . S
Nd328 O349 2.492 . S
Nd328 O350 2.487 1_565 S
Nd328 O351 2.682 1_565 S
Nd328 O352 2.410 1_554 S
Nd328 O357 2.414 1_554 S
Nd328 O359 2.424 1_565 S
Nd329 C339 2.836 . S
Nd329 O351 2.414 1_556 S
Nd329 O353 2.424 1_545 S
Nd329 O354 2.500 . S
Nd329 O355 2.492 . S
Nd329 O356 2.487 1_545 S
Nd329 O357 2.682 1_545 S
Nd329 O358 2.410 1_556 S
C330 Nd328 2.836 . S
C330 C331 1.498 . S
C330 O348 1.258 . S
C330 O349 1.239 . S
C331 C330 1.498 . S
C331 C332 1.366 . S
C331 C336 1.407 . S
C332 C331 1.366 . S
C332 C333 1.392 . S
C332 H360 0.930 . S
C333 C332 1.392 . S
C333 C334 1.398 . S
C333 H361 0.929 . S
C334 C333 1.398 . S
C334 C335 1.352 . S
C335 C334 1.352 . S
C335 C336 1.384 . S
C335 H362 0.930 . S
C336 C331 1.407 . S
C336 C335 1.384 . S
C336 H363 0.929 . S
C337 O350 1.241 . S
C337 O351 1.273 . S
C338 O352 1.251 . S
C338 O353 1.268 . S
C339 Nd329 2.836 . S
C339 C340 1.498 . S
C339 O354 1.258 . S
C339 O355 1.239 . S
C340 C339 1.498 . S
C340 C341 1.366 . S
C340 C345 1.407 . S
C341 C340 1.366 . S
C341 C342 1.392 . S
C341 H364 0.930 . S
C342 C341 1.392 . S
C342 C343 1.398 . S
C342 H365 0.929 . S
C343 C342 1.398 . S
C343 C344 1.352 . S
C344 C343 1.352 . S
C344 C345 1.384 . S
C344 H366 0.930 . S
C345 C340 1.407 . S
C345 C344 1.384 . S
C345 H367 0.929 . S
C346 O356 1.241 . S
C346 O357 1.273 . S
C347 O358 1.251 . S
C347 O359 1.268 . S
O348 Nd328 2.500 . S
O348 C330 1.258 . S
O349 Nd328 2.492 . S
O349 C330 1.239 . S
O350 Nd328 2.487 1_545 S
O350 C337 1.241 . S
O351 Nd328 2.682 1_545 S
O351 Nd329 2.414 1_554 S
O351 C337 1.273 . S
O352 Nd328 2.410 1_556 S
O352 C338 1.251 . S
O353 Nd329 2.424 1_565 S
O353 C338 1.268 . S
O354 Nd329 2.500 . S
O354 C339 1.258 . S
O355 Nd329 2.492 . S
O355 C339 1.239 . S
O356 Nd329 2.487 1_565 S
O356 C346 1.241 . S
O357 Nd328 2.414 1_556 S
O357 Nd329 2.682 1_565 S
O357 C346 1.273 . S
O358 Nd329 2.410 1_554 S
O358 C347 1.251 . S
O359 Nd328 2.424 1_545 S
O359 C347 1.268 . S
H360 C332 0.930 . S
H361 C333 0.929 . S
H362 C335 0.930 . S
H363 C336 0.929 . S
H364 C341 0.930 . S
H365 C342 0.929 . S
H366 C344 0.930 . S
H367 C345 0.929 . S
Nd368 C370 2.836 . S
Nd368 O388 2.500 . S
Nd368 O389 2.492 . S
Nd368 O390 2.487 . S
Nd368 O391 2.682 . S
Nd368 O392 2.410 . S
Nd368 O397 2.414 . S
Nd368 O399 2.424 . S
Nd369 C379 2.836 . S
Nd369 O391 2.414 . S
Nd369 O393 2.424 . S
Nd369 O394 2.500 . S
Nd369 O395 2.492 . S
Nd369 O396 2.487 . S
Nd369 O397 2.682 . S
Nd369 O398 2.410 . S
C370 Nd368 2.836 . S
C370 C371 1.498 . S
C370 O388 1.258 . S
C370 O389 1.239 . S
C371 C370 1.498 . S
C371 C372 1.366 . S
C371 C376 1.407 . S
C372 C371 1.366 . S
C372 C373 1.392 . S
C372 H400 0.930 . S
C373 C372 1.392 . S
C373 C374 1.398 . S
C373 H401 0.929 . S
C374 C373 1.398 . S
C374 C375 1.352 . S
C375 C374 1.352 . S
C375 C376 1.384 . S
C375 H402 0.930 . S
C376 C371 1.407 . S
C376 C375 1.384 . S
C376 H403 0.929 . S
C377 O390 1.241 . S
C377 O391 1.273 . S
C378 O392 1.251 . S
C378 O393 1.268 . S
C379 Nd369 2.836 . S
C379 C380 1.498 . S
C379 O394 1.258 . S
C379 O395 1.239 . S
C380 C379 1.498 . S
C380 C381 1.366 . S
C380 C385 1.407 . S
C381 C380 1.366 . S
C381 C382 1.392 . S
C381 H404 0.930 . S
C382 C381 1.392 . S
C382 C383 1.398 . S
C382 H405 0.929 . S
C383 C382 1.398 . S
C383 C384 1.352 . S
C384 C383 1.352 . S
C384 C385 1.384 . S
C384 H406 0.930 . S
C385 C380 1.407 . S
C385 C384 1.384 . S
C385 H407 0.929 . S
C386 O396 1.241 . S
C386 O397 1.273 . S
C387 O398 1.251 . S
C387 O399 1.268 . S
O388 Nd368 2.500 . S
O388 C370 1.258 . S
O389 Nd368 2.492 . S
O389 C370 1.239 . S
O390 Nd368 2.487 . S
O390 C377 1.241 . S
O391 Nd368 2.682 . S
O391 Nd369 2.414 . S
O391 C377 1.273 . S
O392 Nd368 2.410 . S
O392 C378 1.251 . S
O393 Nd369 2.424 . S
O393 C378 1.268 . S
O394 Nd369 2.500 . S
O394 C379 1.258 . S
O395 Nd369 2.492 . S
O395 C379 1.239 . S
O396 Nd369 2.487 . S
O396 C386 1.241 . S
O397 Nd368 2.414 . S
O397 Nd369 2.682 . S
O397 C386 1.273 . S
O398 Nd369 2.410 . S
O398 C387 1.251 . S
O399 Nd368 2.424 . S
O399 C387 1.268 . S
H400 C372 0.930 . S
H401 C373 0.929 . S
H402 C375 0.930 . S
H403 C376 0.929 . S
H404 C381 0.930 . S
H405 C382 0.929 . S
H406 C384 0.930 . S
H407 C385 0.929 . S
Nd408 C410 2.836 . S
Nd408 O428 2.500 . S
Nd408 O429 2.492 . S
Nd408 O430 2.487 1_655 S
Nd408 O431 2.682 1_655 S
Nd408 O432 2.410 . S
Nd408 O437 2.414 1_554 S
Nd408 O439 2.424 1_655 S
Nd409 C419 2.836 . S
Nd409 O431 2.414 1_556 S
Nd409 O433 2.424 1_455 S
Nd409 O434 2.500 . S
Nd409 O435 2.492 . S
Nd409 O436 2.487 1_455 S
Nd409 O437 2.682 1_455 S
Nd409 O438 2.410 . S
C410 Nd408 2.836 . S
C410 C411 1.498 . S
C410 O428 1.258 . S
C410 O429 1.239 . S
C411 C410 1.498 . S
C411 C412 1.366 . S
C411 C416 1.407 . S
C412 C411 1.366 . S
C412 C413 1.392 . S
C412 H440 0.930 . S
C413 C412 1.392 . S
C413 C414 1.398 . S
C413 H441 0.929 . S
C414 C413 1.398 . S
C414 C415 1.352 . S
C415 C414 1.352 . S
C415 C416 1.384 . S
C415 H442 0.930 . S
C416 C411 1.407 . S
C416 C415 1.384 . S
C416 H443 0.929 . S
C417 O430 1.241 . S
C417 O431 1.273 . S
C418 O432 1.251 1_556 S
C418 O433 1.268 . S
C419 Nd409 2.836 . S
C419 C420 1.498 . S
C419 O434 1.258 . S
C419 O435 1.239 . S
C420 C419 1.498 . S
C420 C421 1.366 . S
C420 C425 1.407 . S
C421 C420 1.366 . S
C421 C422 1.392 . S
C421 H444 0.930 . S
C422 C421 1.392 . S
C422 C423 1.398 . S
C422 H445 0.929 . S
C423 C422 1.398 . S
C423 C424 1.352 . S
C424 C423 1.352 . S
C424 C425 1.384 . S
C424 H446 0.930 . S
C425 C420 1.407 . S
C425 C424 1.384 . S
C425 H447 0.929 . S
C426 O436 1.241 . S
C426 O437 1.273 . S
C427 O438 1.251 1_554 S
C427 O439 1.268 . S
O428 Nd408 2.500 . S
O428 C410 1.258 . S
O429 Nd408 2.492 . S
O429 C410 1.239 . S
O430 Nd408 2.487 1_455 S
O430 C417 1.241 . S
O431 Nd408 2.682 1_455 S
O431 Nd409 2.414 1_554 S
O431 C417 1.273 . S
O432 Nd408 2.410 . S
O432 C418 1.251 1_554 S
O433 Nd409 2.424 1_655 S
O433 C418 1.268 . S
O434 Nd409 2.500 . S
O434 C419 1.258 . S
O435 Nd409 2.492 . S
O435 C419 1.239 . S
O436 Nd409 2.487 1_655 S
O436 C426 1.241 . S
O437 Nd408 2.414 1_556 S
O437 Nd409 2.682 1_655 S
O437 C426 1.273 . S
O438 Nd409 2.410 . S
O438 C427 1.251 1_556 S
O439 Nd408 2.424 1_455 S
O439 C427 1.268 . S
H440 C412 0.930 . S
H441 C413 0.929 . S
H442 C415 0.930 . S
H443 C416 0.929 . S
H444 C421 0.930 . S
H445 C422 0.929 . S
H446 C424 0.930 . S
H447 C425 0.929 . S
H448 C454 0.930 . S
H449 C457 0.930 . S
H450 C458 0.930 . S
H451 C459 0.930 . S
H452 C462 0.930 . S
H453 C463 0.930 . S
C454 H448 0.930 . S
C454 C455 1.355 . S
C454 C456 1.415 . S
C455 C454 1.355 . S
C455 C457 1.419 . S
C456 C454 1.415 . S
C456 C461 1.425 . S
C456 C463 1.409 . S
C457 H449 0.930 . S
C457 C455 1.419 . S
C457 C458 1.362 . S
C458 H450 0.930 . S
C458 C457 1.362 . S
C458 C461 1.409 . S
C459 H451 0.930 . S
C459 C460 1.355 . S
C459 C461 1.415 . S
C460 C459 1.355 . S
C460 C462 1.419 . S
C461 C456 1.425 . S
C461 C458 1.409 . S
C461 C459 1.415 . S
C462 H452 0.930 . S
C462 C460 1.419 . S
C462 C463 1.362 . S
C463 H453 0.930 . S
C463 C456 1.409 . S
C463 C462 1.362 . S
H464 C470 0.930 . S
H465 C473 0.930 . S
H466 C474 0.930 . S
H467 C475 0.930 . S
H468 C478 0.930 . S
H469 C479 0.930 . S
C470 H464 0.930 . S
C470 C471 1.355 . S
C470 C472 1.415 . S
C471 C470 1.355 . S
C471 C473 1.419 . S
C472 C470 1.415 . S
C472 C477 1.425 . S
C472 C479 1.409 . S
C473 H465 0.930 . S
C473 C471 1.419 . S
C473 C474 1.362 . S
C474 H466 0.930 . S
C474 C473 1.362 . S
C474 C477 1.409 . S
C475 H467 0.930 . S
C475 C476 1.355 . S
C475 C477 1.415 . S
C476 C475 1.355 . S
C476 C478 1.419 . S
C477 C472 1.425 . S
C477 C474 1.409 . S
C477 C475 1.415 . S
C478 H468 0.930 . S
C478 C476 1.419 . S
C478 C479 1.362 . S
C479 H469 0.930 . S
C479 C472 1.409 . S
C479 C478 1.362 . S
H480 C486 0.930 . S
H481 C489 0.930 . S
H482 C490 0.930 . S
H483 C491 0.930 . S
H484 C494 0.930 . S
H485 C495 0.930 . S
C486 H480 0.930 . S
C486 C487 1.355 . S
C486 C488 1.415 . S
C487 C486 1.355 . S
C487 C489 1.419 . S
C488 C486 1.415 . S
C488 C493 1.425 . S
C488 C495 1.409 . S
C489 H481 0.930 . S
C489 C487 1.419 . S
C489 C490 1.362 . S
C490 H482 0.930 . S
C490 C489 1.362 . S
C490 C493 1.409 . S
C491 H483 0.930 . S
C491 C492 1.355 . S
C491 C493 1.415 . S
C492 C491 1.355 . S
C492 C494 1.419 . S
C493 C488 1.425 . S
C493 C490 1.409 . S
C493 C491 1.415 . S
C494 H484 0.930 . S
C494 C492 1.419 . S
C494 C495 1.362 . S
C495 H485 0.930 . S
C495 C488 1.409 . S
C495 C494 1.362 . S
H496 C502 0.930 . S
H497 C505 0.930 . S
H498 C506 0.930 . S
H499 C507 0.930 . S
H500 C510 0.930 . S
H501 C511 0.930 . S
C502 H496 0.930 . S
C502 C503 1.355 . S
C502 C504 1.415 . S
C503 C502 1.355 . S
C503 C505 1.419 . S
C504 C502 1.415 . S
C504 C509 1.425 . S
C504 C511 1.409 . S
C505 H497 0.930 . S
C505 C503 1.419 . S
C505 C506 1.362 . S
C506 H498 0.930 . S
C506 C505 1.362 . S
C506 C509 1.409 . S
C507 H499 0.930 . S
C507 C508 1.355 . S
C507 C509 1.415 . S
C508 C507 1.355 . S
C508 C510 1.419 . S
C509 C504 1.425 . S
C509 C506 1.409 . S
C509 C507 1.415 . S
C510 H500 0.930 . S
C510 C508 1.419 . S
C510 C511 1.362 . S
C511 H501 0.930 . S
C511 C504 1.409 . S
C511 C510 1.362 . S
H512 C518 0.930 . S
H513 C521 0.930 . S
H514 C522 0.930 . S
H515 C523 0.930 . S
H516 C526 0.930 . S
H517 C527 0.930 . S
C518 H512 0.930 . S
C518 C519 1.355 . S
C518 C520 1.415 . S
C519 C518 1.355 . S
C519 C521 1.419 . S
C520 C518 1.415 . S
C520 C525 1.425 . S
C520 C527 1.409 1_554 S
C521 H513 0.930 . S
C521 C519 1.419 . S
C521 C522 1.362 . S
C522 H514 0.930 . S
C522 C521 1.362 . S
C522 C525 1.409 . S
C523 H515 0.930 . S
C523 C524 1.355 . S
C523 C525 1.415 . S
C524 C523 1.355 . S
C524 C526 1.419 1_554 S
C525 C520 1.425 . S
C525 C522 1.409 . S
C525 C523 1.415 . S
C526 H516 0.930 . S
C526 C524 1.419 1_556 S
C526 C527 1.362 . S
C527 H517 0.930 . S
C527 C520 1.409 1_556 S
C527 C526 1.362 . S
H528 C534 0.930 . S
H529 C537 0.930 . S
H530 C538 0.930 . S
H531 C539 0.930 . S
H532 C542 0.930 . S
H533 C543 0.930 . S
C534 H528 0.930 . S
C534 C535 1.355 . S
C534 C536 1.415 . S
C535 C534 1.355 . S
C535 C537 1.419 . S
C536 C534 1.415 . S
C536 C541 1.425 . S
C536 C543 1.409 . S
C537 H529 0.930 . S
C537 C535 1.419 . S
C537 C538 1.362 . S
C538 H530 0.930 . S
C538 C537 1.362 . S
C538 C541 1.409 . S
C539 H531 0.930 . S
C539 C540 1.355 . S
C539 C541 1.415 . S
C540 C539 1.355 . S
C540 C542 1.419 . S
C541 C536 1.425 . S
C541 C538 1.409 . S
C541 C539 1.415 . S
C542 H532 0.930 . S
C542 C540 1.419 . S
C542 C543 1.362 . S
C543 H533 0.930 . S
C543 C536 1.409 . S
C543 C542 1.362 . S
H544 C550 0.930 . S
H545 C553 0.930 . S
H546 C554 0.930 . S
H547 C555 0.930 . S
H548 C558 0.930 1_554 S
H549 C559 0.930 . S
C550 H544 0.930 . S
C550 C551 1.355 . S
C550 C552 1.415 . S
C551 C550 1.355 . S
C551 C553 1.419 . S
C552 C550 1.415 . S
C552 C557 1.425 . S
C552 C559 1.409 . S
C553 H545 0.930 . S
C553 C551 1.419 . S
C553 C554 1.362 . S
C554 H546 0.930 . S
C554 C553 1.362 . S
C554 C557 1.409 . S
C555 H547 0.930 . S
C555 C556 1.355 . S
C555 C557 1.415 . S
C556 C555 1.355 . S
C556 C558 1.419 . S
C557 C552 1.425 . S
C557 C554 1.409 . S
C557 C555 1.415 . S
C558 H548 0.930 1_556 S
C558 C556 1.419 . S
C558 C559 1.362 . S
C559 H549 0.930 . S
C559 C552 1.409 . S
C559 C558 1.362 . S
H560 C566 0.930 . S
H561 C569 0.930 . S
H562 C570 0.930 . S
H563 C571 0.930 . S
H564 C574 0.930 . S
H565 C575 0.930 . S
C566 H560 0.930 . S
C566 C567 1.355 . S
C566 C568 1.415 . S
C567 C566 1.355 . S
C567 C569 1.419 . S
C568 C566 1.415 . S
C568 C573 1.425 . S
C568 C575 1.409 . S
C569 H561 0.930 . S
C569 C567 1.419 . S
C569 C570 1.362 . S
C570 H562 0.930 . S
C570 C569 1.362 . S
C570 C573 1.409 . S
C571 H563 0.930 . S
C571 C572 1.355 . S
C571 C573 1.415 . S
C572 C571 1.355 . S
C572 C574 1.419 . S
C573 C568 1.425 . S
C573 C570 1.409 . S
C573 C571 1.415 . S
C574 H564 0.930 . S
C574 C572 1.419 . S
C574 C575 1.362 . S
C575 H565 0.930 . S
C575 C568 1.409 . S
C575 C574 1.362 . S
H576 C582 0.930 . S
H577 C585 0.930 . S
H578 C586 0.930 . S
H579 C587 0.930 . S
H580 C590 0.930 1_556 S
H581 C591 0.930 1_556 S
C582 H576 0.930 . S
C582 C583 1.355 . S
C582 C584 1.415 . S
C583 C582 1.355 . S
C583 C585 1.419 . S
C584 C582 1.415 . S
C584 C589 1.425 . S
C584 C591 1.409 . S
C585 H577 0.930 . S
C585 C583 1.419 . S
C585 C586 1.362 . S
C586 H578 0.930 . S
C586 C585 1.362 . S
C586 C589 1.409 . S
C587 H579 0.930 . S
C587 C588 1.355 . S
C587 C589 1.415 . S
C588 C587 1.355 . S
C588 C590 1.419 . S
C589 C584 1.425 . S
C589 C586 1.409 . S
C589 C587 1.415 . S
C590 H580 0.930 1_554 S
C590 C588 1.419 . S
C590 C591 1.362 . S
C591 H581 0.930 1_554 S
C591 C584 1.409 . S
C591 C590 1.362 . S
H592 C598 0.930 . S
H593 C601 0.930 . S
H594 C602 0.930 . S
H595 C603 0.930 . S
H596 C606 0.930 . S
H597 C607 0.930 . S
C598 H592 0.930 . S
C598 C599 1.355 . S
C598 C600 1.415 . S
C599 C598 1.355 . S
C599 C601 1.419 . S
C600 C598 1.415 . S
C600 C605 1.425 . S
C600 C607 1.409 . S
C601 H593 0.930 . S
C601 C599 1.419 . S
C601 C602 1.362 . S
C602 H594 0.930 . S
C602 C601 1.362 . S
C602 C605 1.409 . S
C603 H595 0.930 . S
C603 C604 1.355 . S
C603 C605 1.415 . S
C604 C603 1.355 . S
C604 C606 1.419 . S
C605 C600 1.425 . S
C605 C602 1.409 . S
C605 C603 1.415 . S
C606 H596 0.930 . S
C606 C604 1.419 . S
C606 C607 1.362 . S
C607 H597 0.930 . S
C607 C600 1.409 . S
C607 C606 1.362 . S
H608 C614 0.930 . S
H609 C617 0.930 . S
H610 C618 0.930 . S
H611 C619 0.930 . S
H612 C622 0.930 . S
H613 C623 0.930 . S
C614 H608 0.930 . S
C614 C615 1.355 . S
C614 C616 1.415 . S
C615 C614 1.355 . S
C615 C617 1.419 . S
C616 C614 1.415 . S
C616 C621 1.425 . S
C616 C623 1.409 . S
C617 H609 0.930 . S
C617 C615 1.419 . S
C617 C618 1.362 . S
C618 H610 0.930 . S
C618 C617 1.362 . S
C618 C621 1.409 . S
C619 H611 0.930 . S
C619 C620 1.355 . S
C619 C621 1.415 . S
C620 C619 1.355 . S
C620 C622 1.419 . S
C621 C616 1.425 . S
C621 C618 1.409 . S
C621 C619 1.415 . S
C622 H612 0.930 . S
C622 C620 1.419 . S
C622 C623 1.362 . S
C623 H613 0.930 . S
C623 C616 1.409 . S
C623 C622 1.362 . S
H624 C630 0.930 . S
H625 C633 0.930 . S
H626 C634 0.930 . S
H627 C635 0.930 . S
H628 C638 0.930 . S
H629 C639 0.930 . S
C630 H624 0.930 . S
C630 C631 1.355 . S
C630 C632 1.415 . S
C631 C630 1.355 . S
C631 C633 1.419 . S
C632 C630 1.415 . S
C632 C637 1.425 . S
C632 C639 1.409 . S
C633 H625 0.930 . S
C633 C631 1.419 . S
C633 C634 1.362 . S
C634 H626 0.930 . S
C634 C633 1.362 . S
C634 C637 1.409 . S
C635 H627 0.930 . S
C635 C636 1.355 . S
C635 C637 1.415 . S
C636 C635 1.355 . S
C636 C638 1.419 . S
C637 C632 1.425 . S
C637 C634 1.409 . S
C637 C635 1.415 . S
C638 H628 0.930 . S
C638 C636 1.419 . S
C638 C639 1.362 . S
C639 H629 0.930 . S
C639 C632 1.409 . S
C639 C638 1.362 . S
H640 C646 0.930 . S
H641 C649 0.930 . S
H642 C650 0.930 . S
H643 C651 0.930 . S
H644 C654 0.930 . S
H645 C655 0.930 . S
C646 H640 0.930 . S
C646 C647 1.355 . S
C646 C648 1.415 . S
C647 C646 1.355 . S
C647 C649 1.419 . S
C648 C646 1.415 . S
C648 C653 1.425 . S
C648 C655 1.409 . S
C649 H641 0.930 . S
C649 C647 1.419 . S
C649 C650 1.362 . S
C650 H642 0.930 . S
C650 C649 1.362 . S
C650 C653 1.409 . S
C651 H643 0.930 . S
C651 C652 1.355 . S
C651 C653 1.415 . S
C652 C651 1.355 . S
C652 C654 1.419 . S
C653 C648 1.425 . S
C653 C650 1.409 . S
C653 C651 1.415 . S
C654 H644 0.930 . S
C654 C652 1.419 . S
C654 C655 1.362 . S
C655 H645 0.930 . S
C655 C648 1.409 . S
C655 C654 1.362 . S
H656 C662 0.930 . S
H657 C665 0.930 . S
H658 C666 0.930 . S
H659 C667 0.930 . S
H660 C670 0.930 . S
H661 C671 0.930 . S
C662 H656 0.930 . S
C662 C663 1.355 . S
C662 C664 1.415 . S
C663 C662 1.355 . S
C663 C665 1.419 . S
C664 C662 1.415 . S
C664 C669 1.425 . S
C664 C671 1.409 . S
C665 H657 0.930 . S
C665 C663 1.419 . S
C665 C666 1.362 . S
C666 H658 0.930 . S
C666 C665 1.362 . S
C666 C669 1.409 . S
C667 H659 0.930 . S
C667 C668 1.355 . S
C667 C669 1.415 . S
C668 C667 1.355 . S
C668 C670 1.419 . S
C669 C664 1.425 . S
C669 C666 1.409 . S
C669 C667 1.415 . S
C670 H660 0.930 . S
C670 C668 1.419 . S
C670 C671 1.362 . S
C671 H661 0.930 . S
C671 C664 1.409 . S
C671 C670 1.362 . S
H672 C678 0.930 . S
H673 C681 0.930 . S
H674 C682 0.930 . S
H675 C683 0.930 . S
H676 C686 0.930 . S
H677 C687 0.930 . S
C678 H672 0.930 . S
C678 C679 1.355 . S
C678 C680 1.415 . S
C679 C678 1.355 . S
C679 C681 1.419 . S
C680 C678 1.415 . S
C680 C685 1.425 . S
C680 C687 1.409 . S
C681 H673 0.930 . S
C681 C679 1.419 . S
C681 C682 1.362 . S
C682 H674 0.930 . S
C682 C681 1.362 . S
C682 C685 1.409 . S
C683 H675 0.930 . S
C683 C684 1.355 . S
C683 C685 1.415 . S
C684 C683 1.355 . S
C684 C686 1.419 . S
C685 C680 1.425 . S
C685 C682 1.409 . S
C685 C683 1.415 . S
C686 H676 0.930 . S
C686 C684 1.419 . S
C686 C687 1.362 . S
C687 H677 0.930 . S
C687 C680 1.409 . S
C687 C686 1.362 . S
H688 C694 0.930 . S
H689 C697 0.930 . S
H690 C698 0.930 . S
H691 C699 0.930 . S
H692 C702 0.930 . S
H693 C703 0.930 . S
C694 H688 0.930 . S
C694 C695 1.355 . S
C694 C696 1.415 . S
C695 C694 1.355 . S
C695 C697 1.419 . S
C696 C694 1.415 . S
C696 C701 1.425 . S
C696 C703 1.409 . S
C697 H689 0.930 . S
C697 C695 1.419 . S
C697 C698 1.362 . S
C698 H690 0.930 . S
C698 C697 1.362 . S
C698 C701 1.409 . S
C699 H691 0.930 . S
C699 C700 1.355 . S
C699 C701 1.415 . S
C700 C699 1.355 . S
C700 C702 1.419 . S
C701 C696 1.425 . S
C701 C698 1.409 . S
C701 C699 1.415 . S
C702 H692 0.930 . S
C702 C700 1.419 . S
C702 C703 1.362 . S
C703 H693 0.930 . S
C703 C696 1.409 . S
C703 C702 1.362 . S
H704 C710 0.930 . S
H705 C713 0.930 . S
H706 C714 0.930 . S
H707 C715 0.930 . S
H708 C718 0.930 . S
H709 C719 0.930 . S
C710 H704 0.930 . S
C710 C711 1.355 . S
C710 C712 1.415 . S
C711 C710 1.355 . S
C711 C713 1.419 . S
C712 C710 1.415 . S
C712 C717 1.425 . S
C712 C719 1.409 . S
C713 H705 0.930 . S
C713 C711 1.419 . S
C713 C714 1.362 . S
C714 H706 0.930 . S
C714 C713 1.362 . S
C714 C717 1.409 . S
C715 H707 0.930 . S
C715 C716 1.355 . S
C715 C717 1.415 . S
C716 C715 1.355 . S
C716 C718 1.419 . S
C717 C712 1.425 . S
C717 C714 1.409 . S
C717 C715 1.415 . S
C718 H708 0.930 . S
C718 C716 1.419 . S
C718 C719 1.362 . S
C719 H709 0.930 . S
C719 C712 1.409 . S
C719 C718 1.362 . S
H720 C726 0.930 . S
H721 C729 0.930 . S
H722 C730 0.930 . S
H723 C731 0.930 . S
H724 C734 0.930 . S
H725 C735 0.930 . S
C726 H720 0.930 . S
C726 C727 1.355 . S
C726 C728 1.415 . S
C727 C726 1.355 . S
C727 C729 1.419 . S
C728 C726 1.415 . S
C728 C733 1.425 . S
C728 C735 1.409 . S
C729 H721 0.930 . S
C729 C727 1.419 . S
C729 C730 1.362 . S
C730 H722 0.930 . S
C730 C729 1.362 . S
C730 C733 1.409 . S
C731 H723 0.930 . S
C731 C732 1.355 . S
C731 C733 1.415 . S
C732 C731 1.355 . S
C732 C734 1.419 . S
C733 C728 1.425 . S
C733 C730 1.409 . S
C733 C731 1.415 . S
C734 H724 0.930 . S
C734 C732 1.419 . S
C734 C735 1.362 . S
C735 H725 0.930 . S
C735 C728 1.409 . S
C735 C734 1.362 . S
H736 C742 0.930 . S
H737 C745 0.930 . S
H738 C746 0.930 . S
H739 C747 0.930 . S
H740 C750 0.930 1_556 S
H741 C751 0.930 . S
C742 H736 0.930 . S
C742 C743 1.355 . S
C742 C744 1.415 . S
C743 C742 1.355 . S
C743 C745 1.419 . S
C744 C742 1.415 . S
C744 C749 1.425 . S
C744 C751 1.409 . S
C745 H737 0.930 . S
C745 C743 1.419 . S
C745 C746 1.362 . S
C746 H738 0.930 . S
C746 C745 1.362 . S
C746 C749 1.409 . S
C747 H739 0.930 . S
C747 C748 1.355 . S
C747 C749 1.415 . S
C748 C747 1.355 . S
C748 C750 1.419 . S
C749 C744 1.425 . S
C749 C746 1.409 . S
C749 C747 1.415 . S
C750 H740 0.930 1_554 S
C750 C748 1.419 . S
C750 C751 1.362 . S
C751 H741 0.930 . S
C751 C744 1.409 . S
C751 C750 1.362 . S
H752 C758 0.930 . S
H753 C761 0.930 . S
H754 C762 0.930 . S
H755 C763 0.930 . S
H756 C766 0.930 . S
H757 C767 0.930 . S
C758 H752 0.930 . S
C758 C759 1.355 . S
C758 C760 1.415 . S
C759 C758 1.355 . S
C759 C761 1.419 . S
C760 C758 1.415 . S
C760 C765 1.425 . S
C760 C767 1.409 . S
C761 H753 0.930 . S
C761 C759 1.419 . S
C761 C762 1.362 . S
C762 H754 0.930 . S
C762 C761 1.362 . S
C762 C765 1.409 . S
C763 H755 0.930 . S
C763 C764 1.355 . S
C763 C765 1.415 . S
C764 C763 1.355 . S
C764 C766 1.419 . S
C765 C760 1.425 . S
C765 C762 1.409 . S
C765 C763 1.415 . S
C766 H756 0.930 . S
C766 C764 1.419 . S
C766 C767 1.362 . S
C767 H757 0.930 . S
C767 C760 1.409 . S
C767 C766 1.362 . S
H768 C774 0.930 . S
H769 C777 0.930 . S
H770 C778 0.930 . S
H771 C779 0.930 . S
H772 C782 0.930 1_554 S
H773 C783 0.930 . S
C774 H768 0.930 . S
C774 C775 1.355 . S
C774 C776 1.415 . S
C775 C774 1.355 . S
C775 C777 1.419 . S
C776 C774 1.415 . S
C776 C781 1.425 . S
C776 C783 1.409 . S
C777 H769 0.930 . S
C777 C775 1.419 . S
C777 C778 1.362 . S
C778 H770 0.930 . S
C778 C777 1.362 . S
C778 C781 1.409 . S
C779 H771 0.930 . S
C779 C780 1.355 . S
C779 C781 1.415 . S
C780 C779 1.355 . S
C780 C782 1.419 . S
C781 C776 1.425 . S
C781 C778 1.409 . S
C781 C779 1.415 . S
C782 H772 0.930 1_556 S
C782 C780 1.419 . S
C782 C783 1.362 . S
C783 H773 0.930 . S
C783 C776 1.409 . S
C783 C782 1.362 . S
H784 C790 0.930 . S
H785 C793 0.930 . S
H786 C794 0.930 . S
H787 C795 0.930 . S
H788 C798 0.930 . S
H789 C799 0.930 . S
C790 H784 0.930 . S
C790 C791 1.355 . S
C790 C792 1.415 . S
C791 C790 1.355 . S
C791 C793 1.419 . S
C792 C790 1.415 . S
C792 C797 1.425 . S
C792 C799 1.409 . S
C793 H785 0.930 . S
C793 C791 1.419 . S
C793 C794 1.362 . S
C794 H786 0.930 . S
C794 C793 1.362 . S
C794 C797 1.409 . S
C795 H787 0.930 . S
C795 C796 1.355 . S
C795 C797 1.415 . S
C796 C795 1.355 . S
C796 C798 1.419 . S
C797 C792 1.425 . S
C797 C794 1.409 . S
C797 C795 1.415 . S
C798 H788 0.930 . S
C798 C796 1.419 . S
C798 C799 1.362 . S
C799 H789 0.930 . S
C799 C792 1.409 . S
C799 C798 1.362 . S
H800 C806 0.930 . S
H801 C809 0.930 . S
H802 C810 0.930 . S
H803 C811 0.930 . S
H804 C814 0.930 . S
H805 C815 0.930 . S
C806 H800 0.930 . S
C806 C807 1.355 . S
C806 C808 1.415 . S
C807 C806 1.355 . S
C807 C809 1.419 . S
C808 C806 1.415 . S
C808 C813 1.425 . S
C808 C815 1.409 . S
C809 H801 0.930 . S
C809 C807 1.419 . S
C809 C810 1.362 . S
C810 H802 0.930 . S
C810 C809 1.362 . S
C810 C813 1.409 . S
C811 H803 0.930 . S
C811 C812 1.355 . S
C811 C813 1.415 . S
C812 C811 1.355 . S
C812 C814 1.419 . S
C813 C808 1.425 . S
C813 C810 1.409 . S
C813 C811 1.415 . S
C814 H804 0.930 . S
C814 C812 1.419 . S
C814 C815 1.362 . S
C815 H805 0.930 . S
C815 C808 1.409 . S
C815 C814 1.362 . S
H816 C822 0.930 . S
H817 C825 0.930 . S
H818 C826 0.930 . S
H819 C827 0.930 . S
H820 C830 0.930 . S
H821 C831 0.930 . S
C822 H816 0.930 . S
C822 C823 1.355 . S
C822 C824 1.415 . S
C823 C822 1.355 . S
C823 C825 1.419 . S
C824 C822 1.415 . S
C824 C829 1.425 . S
C824 C831 1.409 . S
C825 H817 0.930 . S
C825 C823 1.419 . S
C825 C826 1.362 . S
C826 H818 0.930 . S
C826 C825 1.362 . S
C826 C829 1.409 . S
C827 H819 0.930 . S
C827 C828 1.355 . S
C827 C829 1.415 . S
C828 C827 1.355 . S
C828 C830 1.419 . S
C829 C824 1.425 . S
C829 C826 1.409 . S
C829 C827 1.415 . S
C830 H820 0.930 . S
C830 C828 1.419 . S
C830 C831 1.362 . S
C831 H821 0.930 . S
C831 C824 1.409 . S
C831 C830 1.362 . S
C455 C1 2.860 . S
C460 C307 2.843 . S
C471 C67 2.437 . S
C476 C338 2.536 . S
C492 C377 1.427 . S
C487 C97 1.387 . S
C503 C133 0.538 . S
C508 C414 0.618 . S
C524 C337 2.810 . S
C519 C25 2.856 . S
C540 C294 1.492 . S
C535 C37 1.475 . S
C556 C426 1.500 . S
C551 C103 1.479 . S
C572 C383 1.203 . S
C567 C109 1.200 . S
C583 C31 2.278 . S
C588 C427 2.302 . S
C604 C343 1.286 . S
C599 C73 1.270 . S
C615 C139 0.611 . S
C620 C306 0.643 . S
C631 C61 2.510 . S
C636 C378 2.509 . S
C652 C298 2.866 . S
C647 C175 2.886 . S
C663 C181 2.465 . S
C668 C347 2.524 . S
C679 C247 1.461 . S
C684 C386 1.383 . S
C695 C277 0.494 . S
C700 C423 0.526 . S
C711 C145 2.879 . S
C716 C346 2.807 . S
C732 C303 1.493 . S
C727 C211 1.497 . S
C748 C417 1.491 . S
C743 C217 1.503 . S
C764 C374 1.215 . S
C759 C283 1.224 . S
C775 C169 2.280 . S
C780 C418 2.304 . S
C796 C334 1.303 . S
C791 C241 1.308 . S
C812 C297 0.507 . S
C807 C253 0.503 . S
C823 C205 2.511 . S
C828 C387 2.538 . S
