# Generated by pormake.
# Topology tbo, (3,4)-cn, num edge types: 1
# Building blocks:
#     Node 0, Type 0, BuildingBlock: WUSLED_clean_sbu_0, # of connection points: 3
#     Node 1, Type 0, BuildingBlock: WUSLED_clean_sbu_0, # of connection points: 3
#     Node 2, Type 0, BuildingBlock: WUSLED_clean_sbu_0, # of connection points: 3
#     Node 3, Type 0, BuildingBlock: WUSLED_clean_sbu_0, # of connection points: 3
#     Node 4, Type 0, BuildingBlock: WUSLED_clean_sbu_0, # of connection points: 3
#     Node 5, Type 0, BuildingBlock: WUSLED_clean_sbu_0, # of connection points: 3
#     Node 6, Type 0, BuildingBlock: WUSLED_clean_sbu_0, # of connection points: 3
#     Node 7, Type 0, BuildingBlock: WUSLED_clean_sbu_0, # of connection points: 3
#     Node 8, Type 0, BuildingBlock: WUSLED_clean_sbu_0, # of connection points: 3
#     Node 9, Type 0, BuildingBlock: WUSLED_clean_sbu_0, # of connection points: 3
#     Node 10, Type 0, BuildingBlock: WUSLED_clean_sbu_0, # of connection points: 3
#     Node 11, Type 0, BuildingBlock: WUSLED_clean_sbu_0, # of connection points: 3
#     Node 12, Type 0, BuildingBlock: WUSLED_clean_sbu_0, # of connection points: 3
#     Node 13, Type 0, BuildingBlock: WUSLED_clean_sbu_0, # of connection points: 3
#     Node 14, Type 0, BuildingBlock: WUSLED_clean_sbu_0, # of connection points: 3
#     Node 15, Type 0, BuildingBlock: WUSLED_clean_sbu_0, # of connection points: 3
#     Node 16, Type 0, BuildingBlock: WUSLED_clean_sbu_0, # of connection points: 3
#     Node 17, Type 0, BuildingBlock: WUSLED_clean_sbu_0, # of connection points: 3
#     Node 18, Type 0, BuildingBlock: WUSLED_clean_sbu_0, # of connection points: 3
#     Node 19, Type 0, BuildingBlock: WUSLED_clean_sbu_0, # of connection points: 3
#     Node 20, Type 0, BuildingBlock: WUSLED_clean_sbu_0, # of connection points: 3
#     Node 21, Type 0, BuildingBlock: WUSLED_clean_sbu_0, # of connection points: 3
#     Node 22, Type 0, BuildingBlock: WUSLED_clean_sbu_0, # of connection points: 3
#     Node 23, Type 0, BuildingBlock: WUSLED_clean_sbu_0, # of connection points: 3
#     Node 24, Type 0, BuildingBlock: WUSLED_clean_sbu_0, # of connection points: 3
#     Node 25, Type 0, BuildingBlock: WUSLED_clean_sbu_0, # of connection points: 3
#     Node 26, Type 0, BuildingBlock: WUSLED_clean_sbu_0, # of connection points: 3
#     Node 27, Type 0, BuildingBlock: WUSLED_clean_sbu_0, # of connection points: 3
#     Node 28, Type 0, BuildingBlock: WUSLED_clean_sbu_0, # of connection points: 3
#     Node 29, Type 0, BuildingBlock: WUSLED_clean_sbu_0, # of connection points: 3
#     Node 30, Type 0, BuildingBlock: WUSLED_clean_sbu_0, # of connection points: 3
#     Node 31, Type 0, BuildingBlock: WUSLED_clean_sbu_0, # of connection points: 3
#     Node 32, Type 1, BuildingBlock: MUDLON_clean_linker_0, # of connection points: 4
#     Node 33, Type 1, BuildingBlock: MUDLON_clean_linker_0, # of connection points: 4
#     Node 34, Type 1, BuildingBlock: MUDLON_clean_linker_0, # of connection points: 4
#     Node 35, Type 1, BuildingBlock: MUDLON_clean_linker_0, # of connection points: 4
#     Node 36, Type 1, BuildingBlock: MUDLON_clean_linker_0, # of connection points: 4
#     Node 37, Type 1, BuildingBlock: MUDLON_clean_linker_0, # of connection points: 4
#     Node 38, Type 1, BuildingBlock: MUDLON_clean_linker_0, # of connection points: 4
#     Node 39, Type 1, BuildingBlock: MUDLON_clean_linker_0, # of connection points: 4
#     Node 40, Type 1, BuildingBlock: MUDLON_clean_linker_0, # of connection points: 4
#     Node 41, Type 1, BuildingBlock: MUDLON_clean_linker_0, # of connection points: 4
#     Node 42, Type 1, BuildingBlock: MUDLON_clean_linker_0, # of connection points: 4
#     Node 43, Type 1, BuildingBlock: MUDLON_clean_linker_0, # of connection points: 4
#     Node 44, Type 1, BuildingBlock: MUDLON_clean_linker_0, # of connection points: 4
#     Node 45, Type 1, BuildingBlock: MUDLON_clean_linker_0, # of connection points: 4
#     Node 46, Type 1, BuildingBlock: MUDLON_clean_linker_0, # of connection points: 4
#     Node 47, Type 1, BuildingBlock: MUDLON_clean_linker_0, # of connection points: 4
#     Node 48, Type 1, BuildingBlock: MUDLON_clean_linker_0, # of connection points: 4
#     Node 49, Type 1, BuildingBlock: MUDLON_clean_linker_0, # of connection points: 4
#     Node 50, Type 1, BuildingBlock: MUDLON_clean_linker_0, # of connection points: 4
#     Node 51, Type 1, BuildingBlock: MUDLON_clean_linker_0, # of connection points: 4
#     Node 52, Type 1, BuildingBlock: MUDLON_clean_linker_0, # of connection points: 4
#     Node 53, Type 1, BuildingBlock: MUDLON_clean_linker_0, # of connection points: 4
#     Node 54, Type 1, BuildingBlock: MUDLON_clean_linker_0, # of connection points: 4
#     Node 55, Type 1, BuildingBlock: MUDLON_clean_linker_0, # of connection points: 4
#     Edge 56, Type (0, 1), BuildingBlock: UVAHIK_clean_linker_0, # of connection points: 2
#     Edge 57, Type (0, 1), BuildingBlock: UVAHIK_clean_linker_0, # of connection points: 2
#     Edge 58, Type (0, 1), BuildingBlock: UVAHIK_clean_linker_0, # of connection points: 2
#     Edge 59, Type (0, 1), BuildingBlock: UVAHIK_clean_linker_0, # of connection points: 2
#     Edge 60, Type (0, 1), BuildingBlock: UVAHIK_clean_linker_0, # of connection points: 2
#     Edge 61, Type (0, 1), BuildingBlock: UVAHIK_clean_linker_0, # of connection points: 2
#     Edge 62, Type (0, 1), BuildingBlock: UVAHIK_clean_linker_0, # of connection points: 2
#     Edge 63, Type (0, 1), BuildingBlock: UVAHIK_clean_linker_0, # of connection points: 2
#     Edge 64, Type (0, 1), BuildingBlock: UVAHIK_clean_linker_0, # of connection points: 2
#     Edge 65, Type (0, 1), BuildingBlock: UVAHIK_clean_linker_0, # of connection points: 2
#     Edge 66, Type (0, 1), BuildingBlock: UVAHIK_clean_linker_0, # of connection points: 2
#     Edge 67, Type (0, 1), BuildingBlock: UVAHIK_clean_linker_0, # of connection points: 2
#     Edge 68, Type (0, 1), BuildingBlock: UVAHIK_clean_linker_0, # of connection points: 2
#     Edge 69, Type (0, 1), BuildingBlock: UVAHIK_clean_linker_0, # of connection points: 2
#     Edge 70, Type (0, 1), BuildingBlock: UVAHIK_clean_linker_0, # of connection points: 2
#     Edge 71, Type (0, 1), BuildingBlock: UVAHIK_clean_linker_0, # of connection points: 2
#     Edge 72, Type (0, 1), BuildingBlock: UVAHIK_clean_linker_0, # of connection points: 2
#     Edge 73, Type (0, 1), BuildingBlock: UVAHIK_clean_linker_0, # of connection points: 2
#     Edge 74, Type (0, 1), BuildingBlock: UVAHIK_clean_linker_0, # of connection points: 2
#     Edge 75, Type (0, 1), BuildingBlock: UVAHIK_clean_linker_0, # of connection points: 2
#     Edge 76, Type (0, 1), BuildingBlock: UVAHIK_clean_linker_0, # of connection points: 2
#     Edge 77, Type (0, 1), BuildingBlock: UVAHIK_clean_linker_0, # of connection points: 2
#     Edge 78, Type (0, 1), BuildingBlock: UVAHIK_clean_linker_0, # of connection points: 2
#     Edge 79, Type (0, 1), BuildingBlock: UVAHIK_clean_linker_0, # of connection points: 2
#     Edge 80, Type (0, 1), BuildingBlock: UVAHIK_clean_linker_0, # of connection points: 2
#     Edge 81, Type (0, 1), BuildingBlock: UVAHIK_clean_linker_0, # of connection points: 2
#     Edge 82, Type (0, 1), BuildingBlock: UVAHIK_clean_linker_0, # of connection points: 2
#     Edge 83, Type (0, 1), BuildingBlock: UVAHIK_clean_linker_0, # of connection points: 2
#     Edge 84, Type (0, 1), BuildingBlock: UVAHIK_clean_linker_0, # of connection points: 2
#     Edge 85, Type (0, 1), BuildingBlock: UVAHIK_clean_linker_0, # of connection points: 2
#     Edge 86, Type (0, 1), BuildingBlock: UVAHIK_clean_linker_0, # of connection points: 2
#     Edge 87, Type (0, 1), BuildingBlock: UVAHIK_clean_linker_0, # of connection points: 2
#     Edge 88, Type (0, 1), BuildingBlock: UVAHIK_clean_linker_0, # of connection points: 2
#     Edge 89, Type (0, 1), BuildingBlock: UVAHIK_clean_linker_0, # of connection points: 2
#     Edge 90, Type (0, 1), BuildingBlock: UVAHIK_clean_linker_0, # of connection points: 2
#     Edge 91, Type (0, 1), BuildingBlock: UVAHIK_clean_linker_0, # of connection points: 2
#     Edge 92, Type (0, 1), BuildingBlock: UVAHIK_clean_linker_0, # of connection points: 2
#     Edge 93, Type (0, 1), BuildingBlock: UVAHIK_clean_linker_0, # of connection points: 2
#     Edge 94, Type (0, 1), BuildingBlock: UVAHIK_clean_linker_0, # of connection points: 2
#     Edge 95, Type (0, 1), BuildingBlock: UVAHIK_clean_linker_0, # of connection points: 2
#     Edge 96, Type (0, 1), BuildingBlock: UVAHIK_clean_linker_0, # of connection points: 2
#     Edge 97, Type (0, 1), BuildingBlock: UVAHIK_clean_linker_0, # of connection points: 2
#     Edge 98, Type (0, 1), BuildingBlock: UVAHIK_clean_linker_0, # of connection points: 2
#     Edge 99, Type (0, 1), BuildingBlock: UVAHIK_clean_linker_0, # of connection points: 2
#     Edge 100, Type (0, 1), BuildingBlock: UVAHIK_clean_linker_0, # of connection points: 2
#     Edge 101, Type (0, 1), BuildingBlock: UVAHIK_clean_linker_0, # of connection points: 2
#     Edge 102, Type (0, 1), BuildingBlock: UVAHIK_clean_linker_0, # of connection points: 2
#     Edge 103, Type (0, 1), BuildingBlock: UVAHIK_clean_linker_0, # of connection points: 2
#     Edge 104, Type (0, 1), BuildingBlock: UVAHIK_clean_linker_0, # of connection points: 2
#     Edge 105, Type (0, 1), BuildingBlock: UVAHIK_clean_linker_0, # of connection points: 2
#     Edge 106, Type (0, 1), BuildingBlock: UVAHIK_clean_linker_0, # of connection points: 2
#     Edge 107, Type (0, 1), BuildingBlock: UVAHIK_clean_linker_0, # of connection points: 2
#     Edge 108, Type (0, 1), BuildingBlock: UVAHIK_clean_linker_0, # of connection points: 2
#     Edge 109, Type (0, 1), BuildingBlock: UVAHIK_clean_linker_0, # of connection points: 2
#     Edge 110, Type (0, 1), BuildingBlock: UVAHIK_clean_linker_0, # of connection points: 2
#     Edge 111, Type (0, 1), BuildingBlock: UVAHIK_clean_linker_0, # of connection points: 2
#     Edge 112, Type (0, 1), BuildingBlock: UVAHIK_clean_linker_0, # of connection points: 2
#     Edge 113, Type (0, 1), BuildingBlock: UVAHIK_clean_linker_0, # of connection points: 2
#     Edge 114, Type (0, 1), BuildingBlock: UVAHIK_clean_linker_0, # of connection points: 2
#     Edge 115, Type (0, 1), BuildingBlock: UVAHIK_clean_linker_0, # of connection points: 2
#     Edge 116, Type (0, 1), BuildingBlock: UVAHIK_clean_linker_0, # of connection points: 2
#     Edge 117, Type (0, 1), BuildingBlock: UVAHIK_clean_linker_0, # of connection points: 2
#     Edge 118, Type (0, 1), BuildingBlock: UVAHIK_clean_linker_0, # of connection points: 2
#     Edge 119, Type (0, 1), BuildingBlock: UVAHIK_clean_linker_0, # of connection points: 2
#     Edge 120, Type (0, 1), BuildingBlock: UVAHIK_clean_linker_0, # of connection points: 2
#     Edge 121, Type (0, 1), BuildingBlock: UVAHIK_clean_linker_0, # of connection points: 2
#     Edge 122, Type (0, 1), BuildingBlock: UVAHIK_clean_linker_0, # of connection points: 2
#     Edge 123, Type (0, 1), BuildingBlock: UVAHIK_clean_linker_0, # of connection points: 2
#     Edge 124, Type (0, 1), BuildingBlock: UVAHIK_clean_linker_0, # of connection points: 2
#     Edge 125, Type (0, 1), BuildingBlock: UVAHIK_clean_linker_0, # of connection points: 2
#     Edge 126, Type (0, 1), BuildingBlock: UVAHIK_clean_linker_0, # of connection points: 2
#     Edge 127, Type (0, 1), BuildingBlock: UVAHIK_clean_linker_0, # of connection points: 2
#     Edge 128, Type (0, 1), BuildingBlock: UVAHIK_clean_linker_0, # of connection points: 2
#     Edge 129, Type (0, 1), BuildingBlock: UVAHIK_clean_linker_0, # of connection points: 2
#     Edge 130, Type (0, 1), BuildingBlock: UVAHIK_clean_linker_0, # of connection points: 2
#     Edge 131, Type (0, 1), BuildingBlock: UVAHIK_clean_linker_0, # of connection points: 2
#     Edge 132, Type (0, 1), BuildingBlock: UVAHIK_clean_linker_0, # of connection points: 2
#     Edge 133, Type (0, 1), BuildingBlock: UVAHIK_clean_linker_0, # of connection points: 2
#     Edge 134, Type (0, 1), BuildingBlock: UVAHIK_clean_linker_0, # of connection points: 2
#     Edge 135, Type (0, 1), BuildingBlock: UVAHIK_clean_linker_0, # of connection points: 2
#     Edge 136, Type (0, 1), BuildingBlock: UVAHIK_clean_linker_0, # of connection points: 2
#     Edge 137, Type (0, 1), BuildingBlock: UVAHIK_clean_linker_0, # of connection points: 2
#     Edge 138, Type (0, 1), BuildingBlock: UVAHIK_clean_linker_0, # of connection points: 2
#     Edge 139, Type (0, 1), BuildingBlock: UVAHIK_clean_linker_0, # of connection points: 2
#     Edge 140, Type (0, 1), BuildingBlock: UVAHIK_clean_linker_0, # of connection points: 2
#     Edge 141, Type (0, 1), BuildingBlock: UVAHIK_clean_linker_0, # of connection points: 2
#     Edge 142, Type (0, 1), BuildingBlock: UVAHIK_clean_linker_0, # of connection points: 2
#     Edge 143, Type (0, 1), BuildingBlock: UVAHIK_clean_linker_0, # of connection points: 2
#     Edge 144, Type (0, 1), BuildingBlock: UVAHIK_clean_linker_0, # of connection points: 2
#     Edge 145, Type (0, 1), BuildingBlock: UVAHIK_clean_linker_0, # of connection points: 2
#     Edge 146, Type (0, 1), BuildingBlock: UVAHIK_clean_linker_0, # of connection points: 2
#     Edge 147, Type (0, 1), BuildingBlock: UVAHIK_clean_linker_0, # of connection points: 2
#     Edge 148, Type (0, 1), BuildingBlock: UVAHIK_clean_linker_0, # of connection points: 2
#     Edge 149, Type (0, 1), BuildingBlock: UVAHIK_clean_linker_0, # of connection points: 2
#     Edge 150, Type (0, 1), BuildingBlock: UVAHIK_clean_linker_0, # of connection points: 2
#     Edge 151, Type (0, 1), BuildingBlock: UVAHIK_clean_linker_0, # of connection points: 2
# Relax obj value: 0.001
# Max RMSD: 0.044
# Mean RMSD: 0.020
data_MOF--net-tbo--node1-WUSLED_clean_sbu_0--node2-MUDLON_clean_linker_0--edge1-UVAHIK_clean_linker_0
_symmetry_space_group_name_H-M    P1
_symmetry_Int_Tables_number       1
_symmetry_cell_setting            triclinic
loop_
_symmetry_equiv_pos_as_xyz
'x, y, z'
_cell_length_a     140.59202
_cell_length_b     141.10435
_cell_length_c     140.83563
_cell_angle_alpha  89.537265
_cell_angle_beta   90.423902
_cell_angle_gamma 90.973419
loop_
_atom_site_label
_atom_site_type_symbol
_atom_site_fract_x
_atom_site_fract_y
_atom_site_fract_z
_atom_type_partial_charge
C0 C 0.18739 0.15403 0.19175 0.0
C1 C 0.19519 0.151 0.18647 0.0
C2 C 0.19814 0.13844 0.19808 0.0
C3 C 0.20051 0.14326 0.1896 0.0
C4 C 0.1903 0.14154 0.20331 0.0
C5 C 0.18499 0.14926 0.20017 0.0
U6 U 0.18274 0.17481 0.17484 0.0
O7 O 0.16927 0.17974 0.16864 0.0
O8 O 0.17773 0.18915 0.17786 0.0
C9 C 0.16969 0.18784 0.17319 0.0
C10 C 0.1817 0.16213 0.18858 0.0
C11 C 0.16104 0.19035 0.17834 0.0
C12 C 0.15011 0.18799 0.19148 0.0
C13 C 0.15831 0.18541 0.1866 0.0
C14 C 0.14729 0.2004 0.17986 0.0
C15 C 0.14451 0.19553 0.18818 0.0
C16 C 0.15548 0.19783 0.175 0.0
C17 C 0.2 0.17998 0.15446 0.0
C18 C 0.1975 0.19241 0.14269 0.0
C19 C 0.21178 0.18305 0.14225 0.0
C20 C 0.20869 0.17793 0.15021 0.0
C21 C 0.20621 0.19034 0.13835 0.0
C22 C 0.19442 0.18727 0.15068 0.0
C23 C 0.1969 0.17443 0.16279 0.0
O24 O 0.18578 0.17051 0.1896 0.0
O25 O 0.17735 0.16113 0.18035 0.0
O26 O 0.18898 0.16946 0.16169 0.0
O27 O 0.19739 0.17887 0.17095 0.0
H28 H 0.19716 0.15464 0.17995 0.0
H29 H 0.20655 0.14114 0.18545 0.0
H30 H 0.1882 0.13792 0.2098 0.0
H31 H 0.17897 0.15149 0.20432 0.0
H32 H 0.14812 0.18402 0.19779 0.0
H33 H 0.16251 0.17959 0.18926 0.0
H34 H 0.14324 0.20632 0.17719 0.0
H35 H 0.15751 0.20173 0.16865 0.0
H36 H 0.193 0.19791 0.13984 0.0
H37 H 0.21859 0.18137 0.13921 0.0
H38 H 0.21311 0.17235 0.15307 0.0
H39 H 0.18768 0.18894 0.15389 0.0
C40 C 0.81871 0.17712 0.15747 0.0
C41 C 0.82348 0.18548 0.15466 0.0
C42 C 0.81254 0.18727 0.14128 0.0
C43 C 0.82042 0.19051 0.14664 0.0
C44 C 0.80781 0.17886 0.14415 0.0
C45 C 0.81087 0.17384 0.15218 0.0
U46 U 0.83592 0.17373 0.17812 0.0
O47 O 0.83326 0.1695 0.19295 0.0
O48 O 0.84227 0.16078 0.18398 0.0
C49 C 0.83792 0.16156 0.19217 0.0
C50 C 0.82185 0.17178 0.1659 0.0
C51 C 0.83287 0.15298 0.19553 0.0
C52 C 0.82062 0.14077 0.19364 0.0
C53 C 0.82529 0.14898 0.19032 0.0
C54 C 0.83104 0.14055 0.20742 0.0
C55 C 0.82346 0.13644 0.20222 0.0
C56 C 0.8357 0.14874 0.20409 0.0
C57 C 0.85655 0.1915 0.18129 0.0
C58 C 0.8691 0.1895 0.19306 0.0
C59 C 0.86853 0.20388 0.18356 0.0
C60 C 0.86038 0.20042 0.17891 0.0
C61 C 0.873 0.19846 0.19068 0.0
C62 C 0.86093 0.18605 0.18841 0.0
C63 C 0.84803 0.18799 0.17623 0.0
O64 O 0.83002 0.16748 0.16504 0.0
O65 O 0.82104 0.17622 0.17402 0.0
O66 O 0.83999 0.1886 0.18088 0.0
O67 O 0.84893 0.17986 0.17186 0.0
H68 H 0.82958 0.18809 0.15867 0.0
H69 H 0.82429 0.19689 0.14457 0.0
H70 H 0.80165 0.17622 0.14026 0.0
H71 H 0.8071 0.1674 0.15427 0.0
H72 H 0.81487 0.13775 0.18942 0.0
H73 H 0.82302 0.15219 0.18369 0.0
H74 H 0.83331 0.13751 0.21413 0.0
H75 H 0.84151 0.15177 0.20823 0.0
H76 H 0.87232 0.1852 0.19858 0.0
H77 H 0.87141 0.21074 0.18146 0.0
H78 H 0.8571 0.2047 0.17341 0.0
H79 H 0.85802 0.17915 0.19036 0.0
C80 C 0.82079 0.83783 0.1549 0.0
C81 C 0.82537 0.82957 0.15209 0.0
C82 C 0.81417 0.82768 0.13889 0.0
C83 C 0.82209 0.82453 0.14415 0.0
C84 C 0.80966 0.83601 0.14174 0.0
C85 C 0.81294 0.84102 0.14967 0.0
U86 U 0.83828 0.84227 0.17543 0.0
O87 O 0.84392 0.85576 0.18105 0.0
O88 O 0.83546 0.84627 0.19019 0.0
C89 C 0.83962 0.85463 0.18924 0.0
C90 C 0.82405 0.84318 0.16327 0.0
C91 C 0.83402 0.86272 0.19238 0.0
C92 C 0.82002 0.87254 0.19114 0.0
C93 C 0.82531 0.86486 0.18801 0.0
C94 C 0.83213 0.87604 0.20298 0.0
C95 C 0.82336 0.87822 0.19867 0.0
C96 C 0.8374 0.86836 0.19986 0.0
C97 C 0.85971 0.82618 0.17891 0.0
C98 C 0.87079 0.82783 0.19215 0.0
C99 C 0.87324 0.81577 0.18031 0.0
C100 C 0.86508 0.81869 0.17546 0.0
C101 C 0.87619 0.82028 0.18874 0.0
C102 C 0.86262 0.83076 0.18727 0.0
C103 C 0.85107 0.82903 0.17376 0.0
O104 O 0.82353 0.8386 0.17142 0.0
O105 O 0.83206 0.848 0.16224 0.0
O106 O 0.85162 0.83724 0.1693 0.0
O107 O 0.84305 0.82777 0.17837 0.0
H108 H 0.83145 0.82699 0.15606 0.0
H109 H 0.82567 0.8181 0.14222 0.0
H110 H 0.80365 0.83873 0.13779 0.0
H111 H 0.80935 0.84741 0.15173 0.0
H112 H 0.81335 0.87408 0.18759 0.0
H113 H 0.82261 0.86059 0.18219 0.0
H114 H 0.83486 0.88018 0.20888 0.0
H115 H 0.8441 0.86678 0.20333 0.0
H116 H 0.87291 0.83153 0.19855 0.0
H117 H 0.87714 0.80985 0.17756 0.0
H118 H 0.86291 0.81506 0.16903 0.0
H119 H 0.85856 0.83658 0.19002 0.0
C120 C 0.16558 0.81669 0.18122 0.0
C121 C 0.16524 0.81643 0.19118 0.0
C122 C 0.14862 0.81115 0.19061 0.0
C123 C 0.15687 0.81365 0.19583 0.0
C124 C 0.149 0.81149 0.18063 0.0
C125 C 0.1574 0.8142 0.17599 0.0
U126 U 0.18724 0.83312 0.1778 0.0
O127 O 0.202 0.82994 0.17409 0.0
O128 O 0.1935 0.83899 0.16468 0.0
C129 C 0.20154 0.83451 0.16593 0.0
C130 C 0.17434 0.81956 0.17613 0.0
C131 C 0.20507 0.82942 0.15763 0.0
C132 C 0.20503 0.81572 0.14726 0.0
C133 C 0.20139 0.82047 0.15511 0.0
C134 C 0.21594 0.82887 0.14435 0.0
C135 C 0.2124 0.81984 0.14181 0.0
C136 C 0.21232 0.83359 0.15218 0.0
C137 C 0.19111 0.854 0.1946 0.0
C138 C 0.2047 0.8648 0.19332 0.0
C139 C 0.19252 0.86761 0.205 0.0
C140 C 0.18756 0.85949 0.20197 0.0
C141 C 0.20116 0.87038 0.20071 0.0
C142 C 0.19972 0.85668 0.19029 0.0
C143 C 0.1857 0.84558 0.19143 0.0
O144 O 0.17392 0.82761 0.1714 0.0
O145 O 0.18242 0.81849 0.18076 0.0
O146 O 0.18998 0.83744 0.19256 0.0
O147 O 0.18145 0.84643 0.18314 0.0
H148 H 0.17144 0.81835 0.1954 0.0
H149 H 0.15691 0.81335 0.20351 0.0
H150 H 0.14278 0.80979 0.17636 0.0
H151 H 0.15749 0.8144 0.1683 0.0
H152 H 0.20219 0.80875 0.14557 0.0
H153 H 0.19577 0.81714 0.15926 0.0
H154 H 0.22148 0.83234 0.14023 0.0
H155 H 0.2152 0.84052 0.154 0.0
H156 H 0.21138 0.86666 0.18993 0.0
H157 H 0.18951 0.87179 0.21061 0.0
H158 H 0.1809 0.85754 0.20535 0.0
H159 H 0.20257 0.85251 0.18458 0.0
C160 C 0.16432 0.81089 0.83508 0.0
C161 C 0.15713 0.81741 0.83301 0.0
C162 C 0.14778 0.80513 0.82496 0.0
C163 C 0.14893 0.81455 0.82805 0.0
C164 C 0.15507 0.79867 0.82693 0.0
C165 C 0.16323 0.80152 0.83196 0.0
U166 U 0.18537 0.82769 0.84033 0.0
O167 O 0.19113 0.83268 0.85401 0.0
O168 O 0.20013 0.82457 0.84446 0.0
C169 C 0.19921 0.82827 0.85295 0.0
C170 C 0.1729 0.81364 0.84059 0.0
C171 C 0.20241 0.82251 0.86119 0.0
C172 C 0.20484 0.82103 0.87827 0.0
C173 C 0.2016 0.82616 0.87039 0.0
C174 C 0.20986 0.80848 0.86791 0.0
C175 C 0.20906 0.81215 0.87713 0.0
C176 C 0.20658 0.81361 0.86002 0.0
C177 C 0.18899 0.85012 0.8251 0.0
C178 C 0.20365 0.85894 0.82188 0.0
C179 C 0.18848 0.8667 0.82033 0.0
C180 C 0.1838 0.85828 0.82299 0.0
C181 C 0.19846 0.86713 0.81965 0.0
C182 C 0.19896 0.85054 0.82461 0.0
C183 C 0.18381 0.84127 0.82761 0.0
O184 O 0.18101 0.81326 0.83603 0.0
O185 O 0.17223 0.82121 0.84592 0.0
O186 O 0.17931 0.8413 0.83575 0.0
O187 O 0.18824 0.83331 0.82603 0.0
H188 H 0.15779 0.8247 0.8353 0.0
H189 H 0.14344 0.8197 0.82678 0.0
H190 H 0.15453 0.79141 0.82452 0.0
H191 H 0.1687 0.79639 0.83344 0.0
H192 H 0.20399 0.82402 0.88526 0.0
H193 H 0.19848 0.83303 0.8715 0.0
H194 H 0.21319 0.80173 0.86676 0.0
H195 H 0.2074 0.81061 0.85303 0.0
H196 H 0.21133 0.85896 0.82133 0.0
H197 H 0.18425 0.8729 0.81885 0.0
H198 H 0.17611 0.85813 0.82337 0.0
H199 H 0.20314 0.84434 0.82623 0.0
C200 C 0.15845 0.17598 0.8287 0.0
C201 C 0.15465 0.18358 0.83371 0.0
C202 C 0.1423 0.18542 0.8216 0.0
C203 C 0.14662 0.18825 0.83021 0.0
C204 C 0.14615 0.17777 0.81666 0.0
C205 C 0.15414 0.17311 0.82018 0.0
U206 U 0.17951 0.17323 0.84588 0.0
O207 O 0.18547 0.16033 0.85226 0.0
O208 O 0.19426 0.16929 0.84289 0.0
C209 C 0.19354 0.16128 0.84767 0.0
C210 C 0.16694 0.17103 0.83215 0.0
C211 C 0.19671 0.15283 0.84262 0.0
C212 C 0.1941 0.14041 0.83097 0.0
C213 C 0.1909 0.14839 0.83577 0.0
C214 C 0.20894 0.14125 0.83981 0.0
C215 C 0.20318 0.13676 0.83291 0.0
C216 C 0.20572 0.1492 0.84462 0.0
C217 C 0.18364 0.19109 0.86587 0.0
C218 C 0.1976 0.19095 0.87616 0.0
C219 C 0.18524 0.2024 0.8787 0.0
C220 C 0.18007 0.19866 0.87104 0.0
C221 C 0.19411 0.19865 0.88131 0.0
C222 C 0.19241 0.18721 0.86849 0.0
C223 C 0.17817 0.18746 0.85769 0.0
O224 O 0.17505 0.17566 0.83107 0.0
O225 O 0.16616 0.16686 0.8405 0.0
O226 O 0.1738 0.17925 0.859 0.0
O227 O 0.18247 0.18814 0.84945 0.0
H228 H 0.15792 0.18591 0.8403 0.0
H229 H 0.1439 0.19417 0.83414 0.0
H230 H 0.14293 0.17532 0.8101 0.0
H231 H 0.15697 0.16724 0.81623 0.0
H232 H 0.18953 0.13719 0.82563 0.0
H233 H 0.18393 0.15114 0.83411 0.0
H234 H 0.21591 0.13856 0.84156 0.0
H235 H 0.21029 0.15253 0.84989 0.0
H236 H 0.20443 0.18795 0.87793 0.0
H237 H 0.18226 0.20821 0.8826 0.0
H238 H 0.17329 0.20171 0.86914 0.0
H239 H 0.19526 0.18135 0.86455 0.0
C240 C 0.82424 0.15238 0.84187 0.0
C241 C 0.82889 0.1497 0.83355 0.0
C242 C 0.81814 0.13605 0.83192 0.0
C243 C 0.82586 0.14161 0.82862 0.0
C244 C 0.81356 0.13876 0.84031 0.0
C245 C 0.81659 0.14685 0.84522 0.0
U246 U 0.84113 0.17352 0.84555 0.0
O247 O 0.83798 0.1883 0.84905 0.0
O248 O 0.84672 0.17979 0.85874 0.0
C249 C 0.84225 0.18781 0.85736 0.0
C250 C 0.82721 0.16095 0.84704 0.0
C251 C 0.83672 0.19118 0.86544 0.0
C252 C 0.82422 0.18895 0.87713 0.0
C253 C 0.82943 0.18557 0.86946 0.0
C254 C 0.83352 0.20356 0.8768 0.0
C255 C 0.8262 0.198 0.88088 0.0
C256 C 0.83873 0.20017 0.86916 0.0
C257 C 0.86235 0.1773 0.82909 0.0
C258 C 0.87272 0.19122 0.83005 0.0
C259 C 0.8761 0.17883 0.81882 0.0
C260 C 0.8681 0.1737 0.82193 0.0
C261 C 0.8785 0.18767 0.82281 0.0
C262 C 0.86472 0.18607 0.83317 0.0
C263 C 0.85389 0.17187 0.83216 0.0
O264 O 0.83525 0.16034 0.85181 0.0
O265 O 0.82645 0.16895 0.84226 0.0
O266 O 0.84572 0.1761 0.83085 0.0
O267 O 0.85459 0.16768 0.8405 0.0
H268 H 0.83484 0.15388 0.83088 0.0
H269 H 0.82961 0.13967 0.82225 0.0
H270 H 0.80752 0.13472 0.84299 0.0
H271 H 0.8129 0.14884 0.85162 0.0
H272 H 0.81857 0.18453 0.88004 0.0
H273 H 0.82775 0.17862 0.86664 0.0
H274 H 0.83531 0.2105 0.87958 0.0
H275 H 0.84435 0.20458 0.86615 0.0
H276 H 0.87442 0.19795 0.83336 0.0
H277 H 0.88031 0.17594 0.81315 0.0
H278 H 0.86635 0.16695 0.81868 0.0
H279 H 0.86037 0.18893 0.83875 0.0
C280 C 0.83771 0.85802 0.82486 0.0
C281 C 0.82924 0.86079 0.82917 0.0
C282 C 0.82809 0.87421 0.8182 0.0
C283 C 0.82447 0.86881 0.82586 0.0
C284 C 0.83659 0.87137 0.81393 0.0
C285 C 0.84135 0.86335 0.81724 0.0
U286 U 0.84044 0.83697 0.84181 0.0
O287 O 0.84479 0.82237 0.83895 0.0
O288 O 0.85332 0.83127 0.8486 0.0
C289 C 0.85267 0.82323 0.84397 0.0
C290 C 0.84282 0.84961 0.82821 0.0
C291 C 0.86139 0.8203 0.83919 0.0
C292 C 0.87271 0.82179 0.82627 0.0
C293 C 0.86443 0.82474 0.83076 0.0
C294 C 0.87503 0.80999 0.83863 0.0
C295 C 0.87812 0.81437 0.83016 0.0
C296 C 0.86675 0.81293 0.8431 0.0
C297 C 0.82189 0.83285 0.86134 0.0
C298 C 0.8231 0.8206 0.87352 0.0
C299 C 0.80907 0.83031 0.87258 0.0
C300 C 0.81294 0.8352 0.86481 0.0
C301 C 0.81409 0.82294 0.87703 0.0
C302 C 0.82696 0.8255 0.86572 0.0
C303 C 0.82579 0.83815 0.85319 0.0
O304 O 0.84683 0.85036 0.83663 0.0
O305 O 0.83835 0.84146 0.82696 0.0
O306 O 0.82543 0.83373 0.84501 0.0
O307 O 0.83393 0.84263 0.85469 0.0
H308 H 0.82635 0.85676 0.83509 0.0
H309 H 0.818 0.87085 0.82938 0.0
H310 H 0.83951 0.87526 0.80794 0.0
H311 H 0.84786 0.86129 0.81381 0.0
H312 H 0.87494 0.82538 0.81982 0.0
H313 H 0.86039 0.83047 0.82767 0.0
H314 H 0.87894 0.80418 0.84175 0.0
H315 H 0.86449 0.80941 0.84959 0.0
H316 H 0.82711 0.81491 0.87673 0.0
H317 H 0.80219 0.83239 0.87517 0.0
H318 H 0.80894 0.84087 0.86153 0.0
H319 H 0.83389 0.82357 0.8631 0.0
C320 C 0.17953 0.6537 0.6916 0.0
C321 C 0.18175 0.64645 0.68524 0.0
C322 C 0.18944 0.63753 0.698 0.0
C323 C 0.18662 0.63844 0.68842 0.0
C324 C 0.18729 0.64488 0.70429 0.0
C325 C 0.18237 0.65285 0.70113 0.0
U326 U 0.17512 0.67473 0.67473 0.0
O327 O 0.16175 0.68051 0.66917 0.0
O328 O 0.17116 0.68938 0.67805 0.0
C329 C 0.16285 0.68853 0.67378 0.0
C330 C 0.17417 0.66214 0.68854 0.0
C331 C 0.15458 0.69182 0.67918 0.0
C332 C 0.13925 0.68902 0.68674 0.0
C333 C 0.14723 0.68558 0.68206 0.0
C334 C 0.14596 0.70492 0.68595 0.0
C335 C 0.13847 0.69875 0.68867 0.0
C336 C 0.1539 0.70149 0.68123 0.0
C337 C 0.19155 0.67897 0.6535 0.0
C338 C 0.18897 0.69135 0.64169 0.0
C339 C 0.20314 0.68185 0.64106 0.0
C340 C 0.20014 0.6768 0.64911 0.0
C341 C 0.19759 0.68917 0.63722 0.0
C342 C 0.18598 0.68629 0.64977 0.0
C343 C 0.18857 0.67356 0.66197 0.0
O344 O 0.17871 0.67031 0.68935 0.0
O345 O 0.16922 0.66141 0.6806 0.0
O346 O 0.18034 0.66904 0.66128 0.0
O347 O 0.18975 0.67794 0.6701 0.0
H348 H 0.17968 0.64692 0.67784 0.0
H349 H 0.18804 0.63289 0.68338 0.0
H350 H 0.18949 0.64454 0.71167 0.0
H351 H 0.18077 0.65837 0.70615 0.0
H352 H 0.13359 0.68407 0.68863 0.0
H353 H 0.14758 0.67807 0.68059 0.0
H354 H 0.14572 0.71242 0.68748 0.0
H355 H 0.15949 0.70642 0.67911 0.0
H356 H 0.18447 0.69687 0.63888 0.0
H357 H 0.20989 0.68008 0.63793 0.0
H358 H 0.20455 0.67121 0.65194 0.0
H359 H 0.17932 0.68806 0.65308 0.0
C360 C 0.82254 0.68165 0.66049 0.0
C361 C 0.82719 0.6902 0.65807 0.0
C362 C 0.817 0.69184 0.64409 0.0
C363 C 0.82443 0.69526 0.64995 0.0
C364 C 0.81242 0.68322 0.64653 0.0
C365 C 0.81517 0.67819 0.65467 0.0
U366 U 0.8387 0.67821 0.682 0.0
O367 O 0.83522 0.6741 0.6967 0.0
O368 O 0.84457 0.66521 0.68826 0.0
C369 C 0.83981 0.66609 0.69619 0.0
C370 C 0.82527 0.67634 0.66907 0.0
C371 C 0.83448 0.6576 0.69935 0.0
C372 C 0.82272 0.64508 0.69656 0.0
C373 C 0.82773 0.65316 0.69341 0.0
C374 C 0.83111 0.64588 0.71164 0.0
C375 C 0.82435 0.64136 0.70573 0.0
C376 C 0.83613 0.65392 0.70847 0.0
C377 C 0.85928 0.69563 0.68641 0.0
C378 C 0.86984 0.69413 0.70006 0.0
C379 C 0.8723 0.70692 0.6887 0.0
C380 C 0.86447 0.70364 0.68341 0.0
C381 C 0.87507 0.70222 0.6971 0.0
C382 C 0.86201 0.69087 0.69475 0.0
C383 C 0.85107 0.69231 0.68077 0.0
O384 O 0.83345 0.672 0.66863 0.0
O385 O 0.82408 0.68081 0.67712 0.0
O386 O 0.84276 0.69304 0.68488 0.0
O387 O 0.85213 0.68417 0.67646 0.0
H388 H 0.83293 0.69296 0.66248 0.0
H389 H 0.82818 0.70181 0.64821 0.0
H390 H 0.8066 0.68045 0.64225 0.0
H391 H 0.81149 0.6716 0.65645 0.0
H392 H 0.81749 0.64183 0.69188 0.0
H393 H 0.82633 0.65595 0.68636 0.0
H394 H 0.83262 0.64313 0.71868 0.0
H395 H 0.84132 0.65726 0.71314 0.0
H396 H 0.87172 0.69041 0.70654 0.0
H397 H 0.87624 0.71307 0.68614 0.0
H398 H 0.86248 0.70737 0.67696 0.0
H399 H 0.85805 0.68466 0.69718 0.0
C400 C 0.82619 0.33081 0.65928 0.0
C401 C 0.83297 0.3279 0.65267 0.0
C402 C 0.82051 0.32035 0.64311 0.0
C403 C 0.83015 0.32276 0.64463 0.0
C404 C 0.81377 0.3232 0.64978 0.0
C405 C 0.81658 0.32841 0.65776 0.0
U406 U 0.84242 0.33562 0.68072 0.0
O407 O 0.84794 0.34902 0.68661 0.0
O408 O 0.83875 0.33973 0.69529 0.0
C409 C 0.8431 0.34802 0.69452 0.0
C410 C 0.82893 0.33634 0.66776 0.0
C411 C 0.83765 0.3563 0.69764 0.0
C412 C 0.83066 0.37173 0.6947 0.0
C413 C 0.83537 0.36375 0.69139 0.0
C414 C 0.83019 0.36482 0.71048 0.0
C415 C 0.82808 0.37241 0.70431 0.0
C416 C 0.83495 0.35688 0.70718 0.0
C417 C 0.8635 0.31919 0.6853 0.0
C418 C 0.87574 0.32199 0.69729 0.0
C419 C 0.87539 0.30729 0.68851 0.0
C420 C 0.86738 0.31032 0.68349 0.0
C421 C 0.87972 0.3131 0.69545 0.0
C422 C 0.86769 0.32501 0.69225 0.0
C423 C 0.85512 0.32222 0.67982 0.0
O424 O 0.82787 0.33192 0.67595 0.0
O425 O 0.83691 0.34133 0.66723 0.0
O426 O 0.85598 0.33039 0.67533 0.0
O427 O 0.8469 0.32109 0.68409 0.0
H428 H 0.84045 0.32958 0.6537 0.0
H429 H 0.83552 0.32057 0.63967 0.0
H430 H 0.80628 0.32154 0.64876 0.0
H431 H 0.81123 0.33058 0.66276 0.0
H432 H 0.82924 0.37746 0.68976 0.0
H433 H 0.83735 0.3635 0.68398 0.0
H434 H 0.82816 0.36498 0.71788 0.0
H435 H 0.83661 0.35121 0.71213 0.0
H436 H 0.87893 0.32668 0.70251 0.0
H437 H 0.87813 0.30033 0.68703 0.0
H438 H 0.86419 0.30571 0.67818 0.0
H439 H 0.86477 0.33189 0.69375 0.0
C440 C 0.16102 0.31253 0.68442 0.0
C441 C 0.15275 0.318 0.68467 0.0
C442 C 0.14479 0.30603 0.69449 0.0
C443 C 0.14472 0.31477 0.68963 0.0
C444 C 0.15309 0.3006 0.6943 0.0
C445 C 0.16109 0.3038 0.68929 0.0
U446 U 0.18209 0.32956 0.67964 0.0
O447 O 0.19675 0.32652 0.67539 0.0
O448 O 0.1877 0.3352 0.66615 0.0
C449 C 0.19581 0.33078 0.66711 0.0
C450 C 0.16949 0.31562 0.67893 0.0
C451 C 0.19875 0.3253 0.65883 0.0
C452 C 0.19706 0.31159 0.64856 0.0
C453 C 0.19422 0.31667 0.65653 0.0
C454 C 0.20896 0.32373 0.64512 0.0
C455 C 0.20445 0.31508 0.64274 0.0
C456 C 0.20613 0.32878 0.65309 0.0
C457 C 0.18594 0.35085 0.69619 0.0
C458 C 0.19785 0.36332 0.69376 0.0
C459 C 0.18842 0.363 0.7081 0.0
C460 C 0.18366 0.35484 0.70493 0.0
C461 C 0.19559 0.36734 0.70257 0.0
C462 C 0.19307 0.35512 0.69061 0.0
C463 C 0.18078 0.34226 0.69309 0.0
O464 O 0.16876 0.32349 0.67392 0.0
O465 O 0.17774 0.31491 0.68332 0.0
O466 O 0.18534 0.33427 0.69419 0.0
O467 O 0.17628 0.34288 0.6849 0.0
H468 H 0.15243 0.32477 0.68101 0.0
H469 H 0.13847 0.31915 0.68972 0.0
H470 H 0.15333 0.29379 0.69788 0.0
H471 H 0.16733 0.2994 0.68914 0.0
H472 H 0.19337 0.30501 0.64688 0.0
H473 H 0.18847 0.3139 0.66088 0.0
H474 H 0.21476 0.32656 0.64087 0.0
H475 H 0.20971 0.33542 0.65477 0.0
H476 H 0.20339 0.36644 0.68938 0.0
H477 H 0.1864 0.36597 0.71484 0.0
H478 H 0.17815 0.35165 0.70932 0.0
H479 H 0.19495 0.3521 0.68384 0.0
C480 C 0.15794 0.30922 0.3372 0.0
C481 C 0.15542 0.31315 0.32837 0.0
C482 C 0.14174 0.30235 0.32732 0.0
C483 C 0.14741 0.30972 0.32345 0.0
C484 C 0.14429 0.29849 0.33621 0.0
C485 C 0.15232 0.3019 0.34109 0.0
U486 U 0.17808 0.3273 0.34069 0.0
O487 O 0.18386 0.33363 0.35377 0.0
O488 O 0.19306 0.32522 0.3447 0.0
C489 C 0.19219 0.32966 0.35281 0.0
C490 C 0.16635 0.31271 0.34244 0.0
C491 C 0.19575 0.32459 0.36123 0.0
C492 C 0.19423 0.31208 0.37313 0.0
C493 C 0.19079 0.31672 0.365 0.0
C494 C 0.20764 0.32309 0.37372 0.0
C495 C 0.20268 0.31524 0.37761 0.0
C496 C 0.20419 0.32771 0.36561 0.0
C497 C 0.18027 0.34838 0.32355 0.0
C498 C 0.19343 0.35976 0.32412 0.0
C499 C 0.18018 0.36233 0.31336 0.0
C500 C 0.17585 0.35392 0.31657 0.0
C501 C 0.18904 0.36535 0.31707 0.0
C502 C 0.18907 0.35134 0.32734 0.0
C503 C 0.17556 0.33958 0.32683 0.0
O504 O 0.17444 0.31237 0.33783 0.0
O505 O 0.16525 0.32072 0.34696 0.0
O506 O 0.17125 0.3401 0.33506 0.0
O507 O 0.18048 0.33181 0.32591 0.0
H508 H 0.15966 0.31885 0.32529 0.0
H509 H 0.14558 0.31292 0.31668 0.0
H510 H 0.14015 0.29274 0.33933 0.0
H511 H 0.15417 0.29879 0.34791 0.0
H512 H 0.19019 0.30613 0.37598 0.0
H513 H 0.18424 0.31422 0.3617 0.0
H514 H 0.21424 0.32561 0.37688 0.0
H515 H 0.20813 0.33375 0.36276 0.0
H516 H 0.20029 0.36181 0.32706 0.0
H517 H 0.17652 0.36653 0.30805 0.0
H518 H 0.16902 0.35176 0.31362 0.0
H519 H 0.19258 0.34714 0.33276 0.0
C520 C 0.15271 0.68072 0.32469 0.0
C521 C 0.14567 0.68387 0.3309 0.0
C522 C 0.13712 0.6912 0.31768 0.0
C523 C 0.13795 0.68902 0.32742 0.0
C524 C 0.14425 0.68809 0.31151 0.0
C525 C 0.15192 0.68288 0.31498 0.0
U526 U 0.17346 0.67659 0.34194 0.0
O527 O 0.17851 0.66342 0.34863 0.0
O528 O 0.18794 0.67167 0.33922 0.0
C529 C 0.18669 0.66382 0.34418 0.0
C530 C 0.16088 0.67514 0.32814 0.0
C531 C 0.1895 0.65502 0.33949 0.0
C532 C 0.18886 0.64424 0.32611 0.0
C533 C 0.18596 0.65259 0.33047 0.0
C534 C 0.19875 0.64064 0.33978 0.0
C535 C 0.1953 0.63817 0.33071 0.0
C536 C 0.19588 0.64899 0.34411 0.0
C537 C 0.17823 0.69465 0.36171 0.0
C538 C 0.19046 0.69284 0.37387 0.0
C539 C 0.18163 0.70741 0.37275 0.0
C540 C 0.17644 0.70375 0.36507 0.0
C541 C 0.18874 0.70203 0.37722 0.0
C542 C 0.18526 0.68919 0.36615 0.0
C543 C 0.17279 0.69108 0.35349 0.0
O544 O 0.1693 0.67916 0.32703 0.0
O545 O 0.15989 0.67087 0.33642 0.0
O546 O 0.16794 0.68315 0.35485 0.0
O547 O 0.1773 0.69136 0.34535 0.0
H548 H 0.1461 0.68234 0.33844 0.0
H549 H 0.13256 0.69117 0.33238 0.0
H550 H 0.14397 0.68976 0.304 0.0
H551 H 0.15728 0.68055 0.31007 0.0
H552 H 0.18599 0.6425 0.31917 0.0
H553 H 0.18098 0.65715 0.32681 0.0
H554 H 0.20382 0.63621 0.34347 0.0
H555 H 0.1987 0.65077 0.35107 0.0
H556 H 0.19593 0.68855 0.37709 0.0
H557 H 0.18002 0.71445 0.37523 0.0
H558 H 0.17102 0.70806 0.36174 0.0
H559 H 0.18676 0.68215 0.3636 0.0
C560 C 0.82837 0.65701 0.3372 0.0
C561 C 0.83365 0.65376 0.3295 0.0
C562 C 0.8226 0.64037 0.32758 0.0
C563 C 0.83079 0.64551 0.32473 0.0
C564 C 0.81734 0.64373 0.33529 0.0
C565 C 0.8202 0.65196 0.34005 0.0
U566 U 0.8445 0.67885 0.34018 0.0
O567 O 0.84102 0.69336 0.34435 0.0
O568 O 0.8508 0.68502 0.35314 0.0
C569 C 0.84591 0.69284 0.35233 0.0
C570 C 0.83128 0.66564 0.34232 0.0
C571 C 0.84084 0.6957 0.36092 0.0
C572 C 0.8275 0.6941 0.37174 0.0
C573 C 0.83226 0.69122 0.36358 0.0
C574 C 0.8399 0.70587 0.37469 0.0
C575 C 0.83127 0.70146 0.3774 0.0
C576 C 0.84462 0.70301 0.36653 0.0
C577 C 0.86434 0.68371 0.32222 0.0
C578 C 0.87537 0.6971 0.32347 0.0
C579 C 0.87626 0.68648 0.31008 0.0
C580 C 0.86865 0.68112 0.31371 0.0
C581 C 0.87971 0.69455 0.3149 0.0
C582 C 0.86773 0.69173 0.32709 0.0
C583 C 0.8563 0.67799 0.32585 0.0
O584 O 0.83964 0.66534 0.34654 0.0
O585 O 0.82984 0.67366 0.33777 0.0
O586 O 0.84794 0.68199 0.32526 0.0
O587 O 0.85776 0.67368 0.33402 0.0
H588 H 0.83999 0.65758 0.32721 0.0
H589 H 0.83507 0.64308 0.3189 0.0
H590 H 0.81092 0.64005 0.33758 0.0
H591 H 0.81603 0.65441 0.34595 0.0
H592 H 0.82094 0.69048 0.37368 0.0
H593 H 0.82926 0.68552 0.35934 0.0
H594 H 0.84293 0.71164 0.37881 0.0
H595 H 0.85123 0.70655 0.36456 0.0
H596 H 0.87778 0.70332 0.3273 0.0
H597 H 0.87951 0.68424 0.30354 0.0
H598 H 0.86613 0.67493 0.30987 0.0
H599 H 0.86446 0.69384 0.33367 0.0
C600 C 0.84665 0.35785 0.32344 0.0
C601 C 0.83917 0.36158 0.32871 0.0
C602 C 0.83753 0.37448 0.3172 0.0
C603 C 0.83464 0.36983 0.32561 0.0
C604 C 0.84499 0.37063 0.31194 0.0
C605 C 0.8495 0.36241 0.31504 0.0
U606 U 0.84991 0.33683 0.34048 0.0
O607 O 0.85361 0.3221 0.33749 0.0
O608 O 0.86316 0.33089 0.34629 0.0
C609 C 0.86195 0.32285 0.34174 0.0
C610 C 0.85162 0.34929 0.32662 0.0
C611 C 0.87021 0.31961 0.3363 0.0
C612 C 0.87802 0.3164 0.32134 0.0
C613 C 0.87024 0.31982 0.32633 0.0
C614 C 0.88597 0.31278 0.33621 0.0
C615 C 0.88598 0.31279 0.32621 0.0
C616 C 0.87815 0.31612 0.34119 0.0
C617 C 0.83267 0.33313 0.36136 0.0
C618 C 0.8352 0.32541 0.37667 0.0
C619 C 0.81922 0.32694 0.37037 0.0
C620 C 0.82286 0.33153 0.36231 0.0
C621 C 0.82533 0.32391 0.37772 0.0
C622 C 0.83883 0.32996 0.36857 0.0
C623 C 0.8362 0.33833 0.35291 0.0
O624 O 0.85622 0.35002 0.33474 0.0
O625 O 0.8468 0.34128 0.32578 0.0
O626 O 0.83509 0.33397 0.34476 0.0
O627 O 0.84449 0.34273 0.35375 0.0
H628 H 0.83688 0.35815 0.33523 0.0
H629 H 0.82898 0.37264 0.32987 0.0
H630 H 0.84729 0.37392 0.30535 0.0
H631 H 0.85524 0.3596 0.31087 0.0
H632 H 0.87771 0.31643 0.31365 0.0
H633 H 0.86421 0.32252 0.32238 0.0
H634 H 0.89202 0.31022 0.34021 0.0
H635 H 0.8783 0.31596 0.34888 0.0
H636 H 0.84011 0.32326 0.38221 0.0
H637 H 0.81161 0.32574 0.37082 0.0
H638 H 0.81797 0.33388 0.35683 0.0
H639 H 0.84645 0.33107 0.368 0.0
C640 C 0.68739 0.15654 0.69813 0.0
C641 C 0.69502 0.15316 0.69284 0.0
C642 C 0.69735 0.1404 0.70438 0.0
C643 C 0.69995 0.14515 0.69593 0.0
C644 C 0.6897 0.14387 0.70965 0.0
C645 C 0.68477 0.15185 0.70654 0.0
U646 U 0.68367 0.17742 0.68114 0.0
O647 O 0.67052 0.18303 0.67491 0.0
O648 O 0.67942 0.19204 0.68415 0.0
C649 C 0.67132 0.1911 0.67949 0.0
C650 C 0.6821 0.16491 0.69498 0.0
C651 C 0.66277 0.19442 0.68442 0.0
C652 C 0.64682 0.1918 0.69067 0.0
C653 C 0.65507 0.18829 0.68655 0.0
C654 C 0.65394 0.20754 0.69087 0.0
C655 C 0.64611 0.2015 0.69279 0.0
C656 C 0.66215 0.20404 0.6867 0.0
C657 C 0.70097 0.18166 0.6605 0.0
C658 C 0.69803 0.18932 0.64523 0.0
C659 C 0.71412 0.18832 0.65136 0.0
C660 C 0.71072 0.1836 0.65945 0.0
C661 C 0.70783 0.19116 0.64408 0.0
C662 C 0.69462 0.18465 0.65336 0.0
C663 C 0.69765 0.17635 0.66896 0.0
O664 O 0.68662 0.17308 0.6959 0.0
O665 O 0.67761 0.16407 0.68679 0.0
O666 O 0.68957 0.17159 0.66806 0.0
O667 O 0.69847 0.1808 0.67709 0.0
H668 H 0.69716 0.15672 0.68633 0.0
H669 H 0.70587 0.14274 0.69176 0.0
H670 H 0.68742 0.14032 0.71611 0.0
H671 H 0.67888 0.15436 0.7107 0.0
H672 H 0.64091 0.18695 0.69197 0.0
H673 H 0.65535 0.18082 0.68489 0.0
H674 H 0.65374 0.21501 0.69256 0.0
H675 H 0.668 0.20889 0.68516 0.0
H676 H 0.69298 0.1913 0.63975 0.0
H677 H 0.72168 0.18977 0.65083 0.0
H678 H 0.71573 0.1814 0.66489 0.0
H679 H 0.68705 0.18329 0.65401 0.0
C680 C 0.32194 0.17211 0.65967 0.0
C681 C 0.32801 0.17505 0.6523 0.0
C682 C 0.31444 0.1806 0.64302 0.0
C683 C 0.3243 0.17922 0.64404 0.0
C684 C 0.30843 0.17778 0.65052 0.0
C685 C 0.31214 0.17356 0.65873 0.0
U686 U 0.34 0.16989 0.68009 0.0
O687 O 0.33761 0.16663 0.69519 0.0
O688 O 0.3462 0.15715 0.68659 0.0
C689 C 0.34199 0.15848 0.69477 0.0
C690 C 0.3256 0.16746 0.66835 0.0
C691 C 0.33663 0.15027 0.69853 0.0
C692 C 0.32261 0.13996 0.69848 0.0
C693 C 0.32769 0.14773 0.69476 0.0
C694 C 0.33541 0.13711 0.70971 0.0
C695 C 0.3264 0.13457 0.70602 0.0
C696 C 0.34047 0.14491 0.706 0.0
C697 C 0.36076 0.18766 0.68201 0.0
C698 C 0.37292 0.18673 0.69434 0.0
C699 C 0.37259 0.20028 0.68367 0.0
C700 C 0.36466 0.19637 0.67901 0.0
C701 C 0.37678 0.19555 0.69143 0.0
C702 C 0.36494 0.18284 0.68969 0.0
C703 C 0.35222 0.18387 0.6772 0.0
O704 O 0.33368 0.16297 0.66756 0.0
O705 O 0.32504 0.1724 0.67619 0.0
O706 O 0.34423 0.18485 0.68184 0.0
O707 O 0.35303 0.17547 0.67336 0.0
H708 H 0.33562 0.17406 0.65286 0.0
H709 H 0.32914 0.1812 0.6384 0.0
H710 H 0.30083 0.17889 0.65009 0.0
H711 H 0.30733 0.17139 0.66435 0.0
H712 H 0.31575 0.13812 0.6954 0.0
H713 H 0.32465 0.15177 0.68894 0.0
H714 H 0.33848 0.13319 0.71558 0.0
H715 H 0.34736 0.14678 0.709 0.0
H716 H 0.37592 0.18295 0.70034 0.0
H717 H 0.37547 0.20701 0.68116 0.0
H718 H 0.36152 0.20018 0.67309 0.0
H719 H 0.36198 0.17611 0.69212 0.0
C720 C 0.32034 0.83425 0.66022 0.0
C721 C 0.32588 0.82732 0.65595 0.0
C722 C 0.31337 0.82433 0.64421 0.0
C723 C 0.32244 0.82242 0.64799 0.0
C724 C 0.30784 0.83127 0.64857 0.0
C725 C 0.3113 0.83618 0.65649 0.0
U726 U 0.33811 0.83801 0.68058 0.0
O727 O 0.34465 0.85118 0.68602 0.0
O728 O 0.33569 0.84232 0.69533 0.0
C729 C 0.34049 0.85033 0.69432 0.0
C730 C 0.32385 0.83954 0.66853 0.0
C731 C 0.33578 0.85885 0.69779 0.0
C732 C 0.32393 0.87113 0.69623 0.0
C733 C 0.32822 0.86296 0.69277 0.0
C734 C 0.33469 0.87107 0.70974 0.0
C735 C 0.32715 0.87531 0.70474 0.0
C736 C 0.33896 0.86293 0.70629 0.0
C737 C 0.35875 0.82079 0.68416 0.0
C738 C 0.37509 0.82315 0.68963 0.0
C739 C 0.36697 0.80815 0.69255 0.0
C740 C 0.35885 0.81156 0.68795 0.0
C741 C 0.37521 0.81389 0.6934 0.0
C742 C 0.36694 0.82658 0.68509 0.0
C743 C 0.35015 0.82408 0.67906 0.0
O744 O 0.32315 0.83507 0.67673 0.0
O745 O 0.33206 0.844 0.66744 0.0
O746 O 0.35095 0.83209 0.67427 0.0
O747 O 0.3421 0.82327 0.68372 0.0
H748 H 0.33287 0.8257 0.65877 0.0
H749 H 0.32683 0.81704 0.64488 0.0
H750 H 0.30088 0.833 0.64578 0.0
H751 H 0.30693 0.84152 0.6597 0.0
H752 H 0.3182 0.87424 0.69216 0.0
H753 H 0.32567 0.85988 0.68619 0.0
H754 H 0.33725 0.87398 0.7164 0.0
H755 H 0.34476 0.85982 0.71028 0.0
H756 H 0.38129 0.82777 0.69025 0.0
H757 H 0.36686 0.80095 0.69528 0.0
H758 H 0.35266 0.80693 0.68727 0.0
H759 H 0.3671 0.83375 0.68228 0.0
C760 C 0.6612 0.8185 0.68063 0.0
C761 C 0.6569 0.82405 0.68756 0.0
C762 C 0.64472 0.81177 0.69004 0.0
C763 C 0.64873 0.82072 0.69222 0.0
C764 C 0.64915 0.80623 0.68313 0.0
C765 C 0.6573 0.80957 0.67847 0.0
U766 U 0.68189 0.83611 0.67763 0.0
O767 O 0.69677 0.83372 0.67371 0.0
O768 O 0.68779 0.84266 0.66467 0.0
C769 C 0.696 0.83844 0.66567 0.0
C770 C 0.66973 0.82193 0.67558 0.0
C771 C 0.69945 0.83359 0.65719 0.0
C772 C 0.69924 0.82016 0.64648 0.0
C773 C 0.69584 0.82465 0.65458 0.0
C774 C 0.70984 0.83355 0.64349 0.0
C775 C 0.70628 0.82457 0.64083 0.0
C776 C 0.70645 0.83801 0.65159 0.0
C777 C 0.68492 0.85654 0.69514 0.0
C778 C 0.69815 0.86781 0.69436 0.0
C779 C 0.68588 0.86967 0.70616 0.0
C780 C 0.68118 0.86157 0.70274 0.0
C781 C 0.69444 0.8729 0.70202 0.0
C782 C 0.69343 0.8597 0.69094 0.0
C783 C 0.67986 0.84802 0.69168 0.0
O784 O 0.66888 0.83011 0.67115 0.0
O785 O 0.67779 0.8212 0.6803 0.0
O786 O 0.68452 0.84006 0.69251 0.0
O787 O 0.67553 0.84896 0.68343 0.0
H788 H 0.65984 0.83097 0.68932 0.0
H789 H 0.64546 0.82522 0.69742 0.0
H790 H 0.64637 0.79924 0.68139 0.0
H791 H 0.66056 0.80517 0.67317 0.0
H792 H 0.69628 0.81329 0.64458 0.0
H793 H 0.69038 0.82115 0.65881 0.0
H794 H 0.71535 0.83709 0.63938 0.0
H795 H 0.70933 0.84491 0.65351 0.0
H796 H 0.70478 0.87003 0.69108 0.0
H797 H 0.68275 0.87347 0.71197 0.0
H798 H 0.67459 0.85924 0.70604 0.0
H799 H 0.69642 0.85588 0.68506 0.0
C800 C 0.65673 0.81633 0.33855 0.0
C801 C 0.6541 0.82068 0.32995 0.0
C802 C 0.64049 0.80984 0.32847 0.0
C803 C 0.64606 0.81746 0.32494 0.0
C804 C 0.64317 0.80554 0.33711 0.0
C805 C 0.65122 0.80876 0.3421 0.0
U806 U 0.67698 0.83417 0.34223 0.0
O807 O 0.68277 0.84035 0.35542 0.0
O808 O 0.69196 0.83211 0.34616 0.0
C809 C 0.69106 0.83632 0.3544 0.0
C810 C 0.66515 0.81967 0.34388 0.0
C811 C 0.69467 0.83115 0.3628 0.0
C812 C 0.69896 0.81652 0.37091 0.0
C813 C 0.6953 0.82122 0.36293 0.0
C814 C 0.70121 0.83157 0.37883 0.0
C815 C 0.702 0.82163 0.37896 0.0
C816 C 0.69762 0.83627 0.37082 0.0
C817 C 0.67917 0.85517 0.32485 0.0
C818 C 0.69275 0.86605 0.32426 0.0
C819 C 0.67881 0.86903 0.31454 0.0
C820 C 0.67442 0.86083 0.31819 0.0
C821 C 0.68806 0.87171 0.31746 0.0
C822 C 0.68833 0.85785 0.32793 0.0
C823 C 0.67448 0.84645 0.32836 0.0
O824 O 0.67325 0.81927 0.33932 0.0
O825 O 0.6641 0.82766 0.34845 0.0
O826 O 0.67029 0.84708 0.33663 0.0
O827 O 0.67933 0.83863 0.32744 0.0
H828 H 0.65826 0.82659 0.32713 0.0
H829 H 0.64414 0.821 0.31837 0.0
H830 H 0.63911 0.79959 0.33997 0.0
H831 H 0.65316 0.80532 0.34872 0.0
H832 H 0.69956 0.80889 0.37068 0.0
H833 H 0.69303 0.81709 0.35684 0.0
H834 H 0.7033 0.83574 0.38494 0.0
H835 H 0.69714 0.84392 0.3709 0.0
H836 H 0.6999 0.86786 0.32661 0.0
H837 H 0.67492 0.87329 0.30945 0.0
H838 H 0.66732 0.85889 0.31577 0.0
H839 H 0.6921 0.85355 0.33309 0.0
C840 C 0.65739 0.18226 0.32384 0.0
C841 C 0.64988 0.1836 0.33022 0.0
C842 C 0.64122 0.1927 0.31825 0.0
C843 C 0.64189 0.18875 0.32744 0.0
C844 C 0.64879 0.19141 0.31194 0.0
C845 C 0.65675 0.18622 0.31469 0.0
U846 U 0.67942 0.17738 0.33931 0.0
O847 O 0.68499 0.16399 0.34495 0.0
O848 O 0.69363 0.17263 0.33513 0.0
C849 C 0.69267 0.16449 0.33967 0.0
C850 C 0.66581 0.1766 0.32646 0.0
C851 C 0.69507 0.15591 0.33424 0.0
C852 C 0.69177 0.13962 0.32942 0.0
C853 C 0.6891 0.14779 0.33422 0.0
C854 C 0.70632 0.14754 0.32442 0.0
C855 C 0.70042 0.13939 0.32448 0.0
C856 C 0.70369 0.15568 0.32928 0.0
C857 C 0.68551 0.19453 0.35966 0.0
C858 C 0.69819 0.19219 0.37124 0.0
C859 C 0.68925 0.20671 0.37123 0.0
C860 C 0.68382 0.20343 0.36355 0.0
C861 C 0.69651 0.20114 0.37518 0.0
C862 C 0.69275 0.18891 0.36352 0.0
C863 C 0.67961 0.19128 0.35162 0.0
O864 O 0.67413 0.18069 0.32492 0.0
O865 O 0.66545 0.17191 0.33457 0.0
O866 O 0.67487 0.18327 0.35293 0.0
O867 O 0.68358 0.19195 0.34322 0.0
H868 H 0.65013 0.18063 0.33732 0.0
H869 H 0.63615 0.18947 0.33246 0.0
H870 H 0.64863 0.19447 0.30487 0.0
H871 H 0.66243 0.18528 0.30964 0.0
H872 H 0.68703 0.13349 0.32953 0.0
H873 H 0.68241 0.14771 0.33797 0.0
H874 H 0.71308 0.14755 0.32079 0.0
H875 H 0.70846 0.16179 0.32924 0.0
H876 H 0.70378 0.18776 0.37405 0.0
H877 H 0.68766 0.21357 0.37417 0.0
H878 H 0.67824 0.20785 0.36068 0.0
H879 H 0.69417 0.18202 0.36056 0.0
C880 C 0.32798 0.15037 0.33768 0.0
C881 C 0.33267 0.14849 0.32916 0.0
C882 C 0.32235 0.13467 0.32655 0.0
C883 C 0.32987 0.14072 0.32363 0.0
C884 C 0.31774 0.13658 0.33515 0.0
C885 C 0.32053 0.14436 0.34065 0.0
U886 U 0.34432 0.17161 0.34269 0.0
O887 O 0.34094 0.18598 0.34739 0.0
O888 O 0.35005 0.17698 0.35624 0.0
C889 C 0.3454 0.18496 0.35556 0.0
C890 C 0.33076 0.15859 0.34349 0.0
C891 C 0.33998 0.18758 0.36401 0.0
C892 C 0.32596 0.18612 0.37395 0.0
C893 C 0.33109 0.18336 0.36598 0.0
C894 C 0.33861 0.19723 0.37812 0.0
C895 C 0.32966 0.19311 0.38011 0.0
C896 C 0.34371 0.19449 0.37014 0.0
C897 C 0.36508 0.17703 0.32598 0.0
C898 C 0.37503 0.19123 0.32725 0.0
C899 C 0.37878 0.17921 0.31574 0.0
C900 C 0.37094 0.17377 0.31874 0.0
C901 C 0.38091 0.18803 0.31992 0.0
C902 C 0.36719 0.18577 0.33026 0.0
C903 C 0.35679 0.17125 0.32891 0.0
O904 O 0.3389 0.15787 0.34806 0.0
O905 O 0.32968 0.1669 0.33937 0.0
O906 O 0.34852 0.1754 0.32812 0.0
O907 O 0.35779 0.16651 0.33691 0.0
H908 H 0.33847 0.15305 0.32678 0.0
H909 H 0.33364 0.13939 0.31711 0.0
H910 H 0.31185 0.13215 0.33755 0.0
H911 H 0.31683 0.14573 0.34721 0.0
H912 H 0.31914 0.18273 0.37533 0.0
H913 H 0.32812 0.17798 0.36133 0.0
H914 H 0.34161 0.20271 0.38263 0.0
H915 H 0.35056 0.19783 0.36871 0.0
H916 H 0.37639 0.19802 0.33056 0.0
H917 H 0.38323 0.17645 0.31019 0.0
H918 H 0.36944 0.16702 0.31539 0.0
H919 H 0.36272 0.18839 0.33586 0.0
C920 C 0.34135 0.85762 0.32063 0.0
C921 C 0.333 0.86087 0.32483 0.0
C922 C 0.33255 0.87414 0.31362 0.0
C923 C 0.32863 0.86905 0.32135 0.0
C924 C 0.34095 0.87085 0.3095 0.0
C925 C 0.3453 0.86267 0.31297 0.0
U926 U 0.34333 0.83695 0.33819 0.0
O927 O 0.34638 0.82193 0.33555 0.0
O928 O 0.35595 0.83043 0.3446 0.0
C929 C 0.35452 0.82235 0.34019 0.0
C930 C 0.34595 0.84896 0.32407 0.0
C931 C 0.36278 0.8184 0.33526 0.0
C932 C 0.3783 0.82017 0.32783 0.0
C933 C 0.37037 0.82419 0.33209 0.0
C934 C 0.37106 0.80457 0.32959 0.0
C935 C 0.37879 0.8103 0.32659 0.0
C936 C 0.36317 0.80858 0.3339 0.0
C937 C 0.32584 0.83475 0.35883 0.0
C938 C 0.32527 0.82117 0.36957 0.0
C939 C 0.31567 0.83489 0.3727 0.0
C940 C 0.31924 0.83933 0.36452 0.0
C941 C 0.31864 0.82576 0.37533 0.0
C942 C 0.32886 0.82565 0.3614 0.0
C943 C 0.32951 0.83959 0.35029 0.0
O944 O 0.35043 0.84968 0.33226 0.0
O945 O 0.34082 0.84112 0.32332 0.0
O946 O 0.32835 0.83499 0.34227 0.0
O947 O 0.33799 0.84353 0.35119 0.0
H948 H 0.32987 0.85706 0.33077 0.0
H949 H 0.32223 0.87144 0.32475 0.0
H950 H 0.34409 0.8745 0.30346 0.0
H951 H 0.35172 0.86024 0.30963 0.0
H952 H 0.38414 0.8248 0.32571 0.0
H953 H 0.37023 0.8318 0.33302 0.0
H954 H 0.37107 0.79697 0.32859 0.0
H955 H 0.35738 0.80399 0.33624 0.0
H956 H 0.32777 0.81418 0.37145 0.0
H957 H 0.31049 0.83857 0.37688 0.0
H958 H 0.31683 0.84636 0.36263 0.0
H959 H 0.334 0.82202 0.35711 0.0
C960 C 0.68751 0.65342 0.19979 0.0
C961 C 0.69599 0.65124 0.19517 0.0
C962 C 0.698 0.63743 0.20549 0.0
C963 C 0.7012 0.64332 0.198 0.0
C964 C 0.68946 0.63966 0.21005 0.0
C965 C 0.68427 0.64759 0.20723 0.0
U966 U 0.68304 0.67464 0.18342 0.0
O967 O 0.66965 0.68017 0.17765 0.0
O968 O 0.67861 0.6891 0.18691 0.0
C969 C 0.67042 0.68812 0.18243 0.0
C970 C 0.68199 0.66175 0.19696 0.0
C971 C 0.66194 0.6911 0.18769 0.0
C972 C 0.64639 0.68786 0.19463 0.0
C973 C 0.65459 0.68468 0.19013 0.0
C974 C 0.6529 0.70385 0.19457 0.0
C975 C 0.6454 0.69751 0.19682 0.0
C976 C 0.66104 0.70069 0.19002 0.0
C977 C 0.69992 0.67961 0.16247 0.0
C978 C 0.71275 0.68756 0.15387 0.0
C979 C 0.69712 0.68614 0.14664 0.0
C980 C 0.69377 0.68141 0.15477 0.0
C981 C 0.70669 0.6892 0.14604 0.0
C982 C 0.70941 0.68279 0.16195 0.0
C983 C 0.69677 0.6741 0.17089 0.0
O984 O 0.68636 0.66999 0.198 0.0
O985 O 0.67736 0.66103 0.18885 0.0
O986 O 0.68874 0.66924 0.17006 0.0
O987 O 0.6977 0.67837 0.17912 0.0
H988 H 0.69858 0.65566 0.18938 0.0
H989 H 0.70768 0.64175 0.19426 0.0
H990 H 0.68685 0.63537 0.21592 0.0
H991 H 0.67775 0.64919 0.21088 0.0
H992 H 0.64074 0.68278 0.19617 0.0
H993 H 0.65509 0.67723 0.18844 0.0
H994 H 0.65249 0.7113 0.19631 0.0
H995 H 0.66664 0.70576 0.18825 0.0
H996 H 0.72011 0.68996 0.15375 0.0
H997 H 0.69226 0.68717 0.14074 0.0
H998 H 0.6864 0.67906 0.15495 0.0
H999 H 0.71429 0.6815 0.1678 0.0
C1000 C 0.32234 0.67138 0.16135 0.0
C1001 C 0.32724 0.67959 0.15833 0.0
C1002 C 0.3168 0.68079 0.14448 0.0
C1003 C 0.3245 0.68426 0.14997 0.0
C1004 C 0.31197 0.6725 0.14754 0.0
C1005 C 0.31472 0.66785 0.1559 0.0
U1006 U 0.33876 0.66843 0.1828 0.0
O1007 O 0.33527 0.66533 0.19773 0.0
O1008 O 0.34404 0.65551 0.18972 0.0
C1009 C 0.3394 0.65705 0.19762 0.0
C1010 C 0.32504 0.66649 0.17019 0.0
C1011 C 0.33361 0.64904 0.20122 0.0
C1012 C 0.32189 0.6364 0.19882 0.0
C1013 C 0.32729 0.64405 0.19525 0.0
C1014 C 0.32898 0.63876 0.21437 0.0
C1015 C 0.32267 0.63368 0.20842 0.0
C1016 C 0.33441 0.64636 0.21079 0.0
C1017 C 0.36026 0.68499 0.18599 0.0
C1018 C 0.37062 0.68401 0.19983 0.0
C1019 C 0.37413 0.69539 0.18731 0.0
C1020 C 0.36608 0.69225 0.18229 0.0
C1021 C 0.3765 0.69132 0.19616 0.0
C1022 C 0.36258 0.68086 0.19478 0.0
C1023 C 0.35181 0.6818 0.18062 0.0
O1024 O 0.33299 0.66175 0.16987 0.0
O1025 O 0.32423 0.67149 0.17796 0.0
O1026 O 0.34361 0.68319 0.18478 0.0
O1027 O 0.35239 0.67337 0.17679 0.0
H1028 H 0.33315 0.68242 0.16248 0.0
H1029 H 0.3283 0.69068 0.1479 0.0
H1030 H 0.30611 0.66955 0.14343 0.0
H1031 H 0.31088 0.6615 0.15812 0.0
H1032 H 0.31701 0.6327 0.19408 0.0
H1033 H 0.32653 0.64606 0.18785 0.0
H1034 H 0.32984 0.63678 0.22177 0.0
H1035 H 0.33926 0.65014 0.21549 0.0
H1036 H 0.3723 0.68064 0.20656 0.0
H1037 H 0.37842 0.70111 0.18434 0.0
H1038 H 0.36438 0.69552 0.17551 0.0
H1039 H 0.35816 0.67521 0.19773 0.0
C1040 C 0.32286 0.33796 0.162 0.0
C1041 C 0.32896 0.3312 0.15823 0.0
C1042 C 0.31756 0.32789 0.14547 0.0
C1043 C 0.32634 0.32622 0.15003 0.0
C1044 C 0.31149 0.33467 0.14934 0.0
C1045 C 0.31412 0.33965 0.15752 0.0
U1046 U 0.33898 0.3421 0.18357 0.0
O1047 O 0.34447 0.35542 0.1897 0.0
O1048 O 0.33536 0.3459 0.1982 0.0
C1049 C 0.33972 0.3542 0.19764 0.0
C1050 C 0.32551 0.34327 0.1706 0.0
C1051 C 0.33414 0.36234 0.20068 0.0
C1052 C 0.32042 0.3725 0.19902 0.0
C1053 C 0.32569 0.36478 0.19596 0.0
C1054 C 0.33203 0.37545 0.2115 0.0
C1055 C 0.32353 0.37793 0.20684 0.0
C1056 C 0.33728 0.36773 0.20844 0.0
C1057 C 0.35998 0.32562 0.18794 0.0
C1058 C 0.37143 0.32782 0.20079 0.0
C1059 C 0.37233 0.31407 0.19067 0.0
C1060 C 0.36444 0.31719 0.1855 0.0
C1061 C 0.37592 0.31933 0.19839 0.0
C1062 C 0.36351 0.33093 0.19562 0.0
C1063 C 0.35167 0.32871 0.18241 0.0
O1064 O 0.32444 0.33861 0.17865 0.0
O1065 O 0.33356 0.34811 0.17016 0.0
O1066 O 0.35256 0.33698 0.17811 0.0
O1067 O 0.3434 0.32749 0.18658 0.0
H1068 H 0.33574 0.3298 0.16161 0.0
H1069 H 0.33124 0.32115 0.1472 0.0
H1070 H 0.30462 0.33603 0.14613 0.0
H1071 H 0.30931 0.34481 0.16037 0.0
H1072 H 0.31397 0.37428 0.1952 0.0
H1073 H 0.32319 0.36071 0.18992 0.0
H1074 H 0.33457 0.37939 0.21761 0.0
H1075 H 0.34377 0.36592 0.21218 0.0
H1076 H 0.37395 0.33199 0.20675 0.0
H1077 H 0.37569 0.30758 0.18854 0.0
H1078 H 0.36182 0.31302 0.17958 0.0
H1079 H 0.36012 0.33745 0.19762 0.0
C1080 C 0.66202 0.31973 0.1872 0.0
C1081 C 0.65901 0.32491 0.19505 0.0
C1082 C 0.64569 0.31384 0.19736 0.0
C1083 C 0.65091 0.322 0.20009 0.0
C1084 C 0.6488 0.30868 0.18948 0.0
C1085 C 0.65689 0.3116 0.18446 0.0
U1086 U 0.68355 0.33616 0.18343 0.0
O1087 O 0.698 0.33296 0.17867 0.0
O1088 O 0.68912 0.3426 0.17027 0.0
C1089 C 0.6971 0.3379 0.17077 0.0
C1090 C 0.67046 0.32275 0.18178 0.0
C1091 C 0.69985 0.33305 0.16202 0.0
C1092 C 0.69847 0.31984 0.1511 0.0
C1093 C 0.69571 0.32431 0.15946 0.0
C1094 C 0.70947 0.33284 0.14778 0.0
C1095 C 0.70538 0.32406 0.14515 0.0
C1096 C 0.70672 0.33728 0.15614 0.0
C1097 C 0.68876 0.35612 0.201 0.0
C1098 C 0.70155 0.3677 0.19867 0.0
C1099 C 0.69199 0.36813 0.21291 0.0
C1100 C 0.68669 0.3603 0.20972 0.0
C1101 C 0.69948 0.37195 0.20742 0.0
C1102 C 0.69624 0.35985 0.1955 0.0
C1103 C 0.68302 0.34795 0.19775 0.0
O1104 O 0.66988 0.33106 0.17754 0.0
O1105 O 0.67868 0.32146 0.18606 0.0
O1106 O 0.68724 0.33971 0.19821 0.0
O1107 O 0.67829 0.34924 0.18977 0.0
H1108 H 0.6629 0.33123 0.19725 0.0
H1109 H 0.64867 0.3262 0.20604 0.0
H1110 H 0.64505 0.30229 0.18727 0.0
H1111 H 0.65914 0.30751 0.17843 0.0
H1112 H 0.69513 0.31313 0.14923 0.0
H1113 H 0.69035 0.32097 0.16391 0.0
H1114 H 0.7149 0.33622 0.14345 0.0
H1115 H 0.71 0.34401 0.15803 0.0
H1116 H 0.70733 0.37039 0.19432 0.0
H1117 H 0.69013 0.37129 0.21961 0.0
H1118 H 0.68092 0.35753 0.21404 0.0
H1119 H 0.69795 0.35667 0.18875 0.0
C1120 C 0.65671 0.32037 0.83684 0.0
C1121 C 0.64956 0.32674 0.83421 0.0
C1122 C 0.64061 0.31406 0.82632 0.0
C1123 C 0.64158 0.32361 0.82905 0.0
C1124 C 0.64783 0.30773 0.82893 0.0
C1125 C 0.65576 0.31085 0.83416 0.0
U1126 U 0.67761 0.33752 0.84119 0.0
O1127 O 0.68346 0.3433 0.85452 0.0
O1128 O 0.6924 0.33468 0.84539 0.0
C1129 C 0.69159 0.33896 0.8536 0.0
C1130 C 0.66519 0.32348 0.84232 0.0
C1131 C 0.69471 0.33349 0.86195 0.0
C1132 C 0.69343 0.31964 0.87225 0.0
C1133 C 0.69037 0.32476 0.86428 0.0
C1134 C 0.70513 0.33198 0.87568 0.0
C1135 C 0.70085 0.32319 0.87806 0.0
C1136 C 0.70209 0.33707 0.8677 0.0
C1137 C 0.68128 0.35862 0.8243 0.0
C1138 C 0.69531 0.36892 0.82482 0.0
C1139 C 0.68241 0.37237 0.81389 0.0
C1140 C 0.67738 0.3644 0.81721 0.0
C1141 C 0.69147 0.3747 0.81759 0.0
C1142 C 0.69025 0.36094 0.82815 0.0
C1143 C 0.676 0.3501 0.82746 0.0
O1144 O 0.67335 0.3228 0.83791 0.0
O1145 O 0.66444 0.33138 0.84712 0.0
O1146 O 0.67163 0.3508 0.83564 0.0
O1147 O 0.68046 0.34206 0.82651 0.0
H1148 H 0.6501 0.33414 0.83615 0.0
H1149 H 0.63612 0.32867 0.8273 0.0
H1150 H 0.64744 0.30037 0.82683 0.0
H1151 H 0.66121 0.30582 0.83607 0.0
H1152 H 0.68991 0.31296 0.87394 0.0
H1153 H 0.68462 0.32192 0.85993 0.0
H1154 H 0.71094 0.33485 0.87992 0.0
H1155 H 0.70551 0.3438 0.86599 0.0
H1156 H 0.7023 0.37044 0.82776 0.0
H1157 H 0.67917 0.37674 0.80844 0.0
H1158 H 0.67044 0.36272 0.8142 0.0
H1159 H 0.69337 0.35654 0.83364 0.0
C1160 C 0.65459 0.67568 0.82258 0.0
C1161 C 0.65243 0.68433 0.82683 0.0
C1162 C 0.63862 0.68597 0.81637 0.0
C1163 C 0.64452 0.68945 0.82374 0.0
C1164 C 0.64082 0.67724 0.81222 0.0
C1165 C 0.64873 0.67216 0.81529 0.0
U1166 U 0.67586 0.67164 0.83914 0.0
O1167 O 0.68163 0.65836 0.8449 0.0
O1168 O 0.69046 0.66752 0.83576 0.0
C1169 C 0.68959 0.65926 0.84008 0.0
C1170 C 0.66298 0.6703 0.82558 0.0
C1171 C 0.69268 0.65088 0.83465 0.0
C1172 C 0.69173 0.63398 0.83119 0.0
C1173 C 0.68846 0.64187 0.83609 0.0
C1174 C 0.70353 0.64391 0.82335 0.0
C1175 C 0.6993 0.63491 0.82476 0.0
C1176 C 0.70029 0.65178 0.82827 0.0
C1177 C 0.68068 0.68893 0.85974 0.0
C1178 C 0.68817 0.6865 0.8752 0.0
C1179 C 0.68807 0.70219 0.86811 0.0
C1180 C 0.68314 0.69859 0.86023 0.0
C1181 C 0.69058 0.69621 0.87572 0.0
C1182 C 0.6833 0.68289 0.86727 0.0
C1183 C 0.67513 0.68547 0.85147 0.0
O1184 O 0.67121 0.67472 0.82451 0.0
O1185 O 0.66225 0.66581 0.83376 0.0
O1186 O 0.67049 0.67737 0.85251 0.0
O1187 O 0.67931 0.68637 0.84318 0.0
H1188 H 0.65687 0.68714 0.8325 0.0
H1189 H 0.64297 0.69608 0.82717 0.0
H1190 H 0.63652 0.67442 0.80645 0.0
H1191 H 0.65032 0.6655 0.81192 0.0
H1192 H 0.68828 0.62716 0.83239 0.0
H1193 H 0.68265 0.64089 0.84103 0.0
H1194 H 0.70948 0.64485 0.81858 0.0
H1195 H 0.70382 0.65857 0.82712 0.0
H1196 H 0.69009 0.6817 0.88091 0.0
H1197 H 0.68971 0.70971 0.86833 0.0
H1198 H 0.68116 0.7034 0.85454 0.0
H1199 H 0.68153 0.67539 0.86707 0.0
C1200 C 0.32626 0.64919 0.83471 0.0
C1201 C 0.33198 0.64528 0.82768 0.0
C1202 C 0.31953 0.63359 0.82399 0.0
C1203 C 0.32865 0.63754 0.82237 0.0
C1204 C 0.31383 0.6376 0.83104 0.0
C1205 C 0.31718 0.64532 0.83634 0.0
U1206 U 0.34382 0.66963 0.83915 0.0
O1207 O 0.34123 0.68423 0.84378 0.0
O1208 O 0.35009 0.67487 0.8525 0.0
C1209 C 0.34582 0.68307 0.85185 0.0
C1210 C 0.32961 0.65736 0.84032 0.0
C1211 C 0.34073 0.68601 0.8604 0.0
C1212 C 0.32836 0.6835 0.87216 0.0
C1213 C 0.33308 0.6806 0.86398 0.0
C1214 C 0.33889 0.69723 0.87321 0.0
C1215 C 0.33121 0.69185 0.87688 0.0
C1216 C 0.34359 0.69433 0.86505 0.0
C1217 C 0.36467 0.67367 0.82195 0.0
C1218 C 0.37281 0.6881 0.8166 0.0
C1219 C 0.38104 0.67317 0.8165 0.0
C1220 C 0.37293 0.66857 0.8201 0.0
C1221 C 0.38106 0.68297 0.81458 0.0
C1222 C 0.36472 0.68351 0.82026 0.0
C1223 C 0.35606 0.6685 0.82524 0.0
O1224 O 0.33777 0.65628 0.84479 0.0
O1225 O 0.32891 0.66565 0.83608 0.0
O1226 O 0.34795 0.67297 0.82447 0.0
O1227 O 0.35692 0.66375 0.83326 0.0
H1228 H 0.33902 0.6482 0.82631 0.0
H1229 H 0.33328 0.63458 0.81709 0.0
H1230 H 0.30672 0.63487 0.83237 0.0
H1231 H 0.31264 0.6483 0.84171 0.0
H1232 H 0.32255 0.67914 0.87484 0.0
H1233 H 0.33079 0.67414 0.86047 0.0
H1234 H 0.34118 0.70376 0.87657 0.0
H1235 H 0.34947 0.6986 0.86235 0.0
H1236 H 0.37251 0.69563 0.81512 0.0
H1237 H 0.38729 0.66901 0.81521 0.0
H1238 H 0.37307 0.66099 0.82135 0.0
H1239 H 0.35846 0.68764 0.82163 0.0
C1240 C 0.33938 0.35981 0.8177 0.0
C1241 C 0.3325 0.364 0.82339 0.0
C1242 C 0.32923 0.37559 0.81088 0.0
C1243 C 0.32748 0.37185 0.82002 0.0
C1244 C 0.33617 0.37135 0.80525 0.0
C1245 C 0.3412 0.36354 0.80863 0.0
U1246 U 0.34353 0.33936 0.83523 0.0
O1247 O 0.34737 0.3246 0.8324 0.0
O1248 O 0.35695 0.3337 0.84083 0.0
C1249 C 0.35571 0.32549 0.8366 0.0
C1250 C 0.34466 0.35148 0.82101 0.0
C1251 C 0.36386 0.32216 0.83114 0.0
C1252 C 0.3749 0.32382 0.81801 0.0
C1253 C 0.36714 0.32715 0.82312 0.0
C1254 C 0.37614 0.31052 0.82891 0.0
C1255 C 0.37948 0.31545 0.82083 0.0
C1256 C 0.36841 0.31385 0.83401 0.0
C1257 C 0.3273 0.33565 0.85682 0.0
C1258 C 0.32057 0.32168 0.86472 0.0
C1259 C 0.32486 0.33553 0.87393 0.0
C1260 C 0.32787 0.3402 0.86565 0.0
C1261 C 0.32111 0.32623 0.87358 0.0
C1262 C 0.32364 0.32632 0.85645 0.0
C1263 C 0.33026 0.34086 0.84812 0.0
O1264 O 0.34944 0.35252 0.829 0.0
O1265 O 0.34 0.34335 0.8205 0.0
O1266 O 0.3289 0.33651 0.83998 0.0
O1267 O 0.33847 0.34545 0.8486 0.0
H1268 H 0.33098 0.36117 0.8304 0.0
H1269 H 0.32211 0.37489 0.8245 0.0
H1270 H 0.33778 0.37412 0.79824 0.0
H1271 H 0.3465 0.36039 0.80415 0.0
H1272 H 0.37722 0.32773 0.81177 0.0
H1273 H 0.36368 0.33358 0.8208 0.0
H1274 H 0.37958 0.30413 0.83136 0.0
H1275 H 0.36598 0.30994 0.84021 0.0
H1276 H 0.31759 0.31458 0.86413 0.0
H1277 H 0.32552 0.33923 0.88062 0.0
H1278 H 0.33063 0.34739 0.86614 0.0
H1279 H 0.32304 0.32261 0.84977 0.0
H1280 H 0.26737 0.24698 0.96802 0.0
N1281 N 0.2619 0.26419 0.97459 0.0
H1282 H 0.25822 0.23677 0.95718 0.0
H1283 H 0.24378 0.26594 0.96967 0.0
H1284 H 0.23443 0.25565 0.95912 0.0
H1285 H 0.25896 0.2813 0.96734 0.0
H1286 H 0.2687 0.28986 0.95569 0.0
H1287 H 0.27963 0.25915 0.96872 0.0
H1288 H 0.28963 0.26779 0.95743 0.0
H1289 H 0.27525 0.25295 0.98305 0.0
H1290 H 0.25232 0.27191 0.98861 0.0
H1291 H 0.27811 0.2511 1.00005 0.0
H1292 H 0.25461 0.2696 0.00568 0.0
H1293 H 0.27579 0.23912 0.0547 0.0
H1294 H 0.26449 0.23055 0.06488 0.0
H1295 H 0.24239 0.24976 0.05622 0.0
H1296 H 0.2538 0.25828 0.046 0.0
H1297 H 0.26445 0.27021 0.05257 0.0
H1298 H 0.27171 0.28097 0.06408 0.0
H1299 H 0.29849 0.26674 0.06113 0.0
H1300 H 0.29107 0.25587 0.04966 0.0
H1301 H 0.27535 0.24228 0.03097 0.0
H1302 H 0.27256 0.24426 0.01395 0.0
H1303 H 0.26408 0.27316 0.01869 0.0
N1304 N 0.27282 0.25477 0.04465 0.0
H1305 H 0.26629 0.27088 0.03567 0.0
C1306 C 0.25624 0.25726 0.96956 0.0
C1307 C 0.26015 0.24884 0.9662 0.0
C1308 C 0.25489 0.24299 0.96002 0.0
C1309 C 0.24563 0.24547 0.95715 0.0
C1310 C 0.2416 0.25364 0.961 0.0
C1311 C 0.24688 0.25947 0.96711 0.0
C1312 C 0.26857 0.26966 0.96898 0.0
C1313 C 0.26574 0.27843 0.96533 0.0
C1314 C 0.27135 0.28331 0.95868 0.0
C1315 C 0.27997 0.27952 0.95555 0.0
C1316 C 0.28297 0.27087 0.95954 0.0
C1317 C 0.2773 0.26596 0.96614 0.0
C1318 C 0.26368 0.26274 0.98457 0.0
C1319 C 0.27083 0.25674 0.98793 0.0
C1320 C 0.27236 0.25558 0.99772 0.0
C1321 C 0.26662 0.26022 0.00436 0.0
C1322 C 0.25935 0.26608 1.00088 0.0
C1323 C 0.25795 0.26735 0.99111 0.0
C1324 C 0.26565 0.24931 0.04964 0.0
C1325 C 0.26846 0.24136 0.05489 0.0
C1326 C 0.26199 0.23647 0.06068 0.0
C1327 C 0.25254 0.23949 0.06138 0.0
C1328 C 0.24964 0.24733 0.0559 0.0
C1329 C 0.25613 0.25218 0.05004 0.0
C1330 C 0.27724 0.26221 0.05021 0.0
C1331 C 0.27192 0.26951 0.05422 0.0
C1332 C 0.2761 0.27569 0.06082 0.0
C1333 C 0.28567 0.27468 0.06359 0.0
C1334 C 0.29107 0.26764 0.05925 0.0
C1335 C 0.28688 0.26148 0.05263 0.0
C1336 C 0.27115 0.25641 0.03464 0.0
C1337 C 0.27286 0.24903 0.0283 0.0
C1338 C 0.27134 0.25022 0.01855 0.0
C1339 C 0.26815 0.25891 0.01483 0.0
C1340 C 0.2664 0.26631 0.02123 0.0
C1341 C 0.26777 0.26505 0.03102 0.0
H1342 H 0.76768 0.25802 0.96806 0.0
N1343 N 0.75176 0.24963 0.97577 0.0
H1344 H 0.77879 0.2507 0.95725 0.0
H1345 H 0.75249 0.23141 0.97117 0.0
H1346 H 0.76347 0.22403 0.96013 0.0
H1347 H 0.73629 0.24571 0.96556 0.0
H1348 H 0.72819 0.25609 0.95423 0.0
H1349 H 0.75546 0.26858 0.97316 0.0
H1350 H 0.74766 0.27896 0.96157 0.0
H1351 H 0.76906 0.25283 0.98504 0.0
H1352 H 0.73862 0.25224 0.98895 0.0
H1353 H 0.77138 0.25616 1.00169 0.0
H1354 H 0.74091 0.25614 0.00566 0.0
H1355 H 0.77974 0.26491 0.05387 0.0
H1356 H 0.78719 0.25355 0.0647 0.0
H1357 H 0.7645 0.23333 0.05887 0.0
H1358 H 0.75707 0.24476 0.04822 0.0
H1359 H 0.74652 0.25705 0.05333 0.0
H1360 H 0.73726 0.26588 0.06475 0.0
H1361 H 0.75567 0.29035 0.06044 0.0
H1362 H 0.76505 0.28133 0.04919 0.0
H1363 H 0.77317 0.26986 0.03054 0.0
H1364 H 0.77035 0.26739 0.01359 0.0
H1365 H 0.74567 0.24992 0.02027 0.0
N1366 N 0.76311 0.26311 0.04499 0.0
H1367 H 0.74823 0.25299 0.03709 0.0
C1368 C 0.75924 0.24523 0.97048 0.0
C1369 C 0.76678 0.25056 0.96649 0.0
C1370 C 0.7731 0.24638 0.96024 0.0
C1371 C 0.77198 0.23679 0.95772 0.0
C1372 C 0.76463 0.23139 0.96197 0.0
C1373 C 0.75834 0.23559 0.96828 0.0
C1374 C 0.74647 0.25634 0.97014 0.0
C1375 C 0.73867 0.25302 0.96483 0.0
C1376 C 0.73413 0.25894 0.95829 0.0
C1377 C 0.73736 0.26833 0.95686 0.0
C1378 C 0.74495 0.27179 0.96251 0.0
C1379 C 0.74946 0.26585 0.9691 0.0
C1380 C 0.75358 0.25226 0.98557 0.0
C1381 C 0.76282 0.25355 0.98936 0.0
C1382 C 0.76416 0.25554 0.99901 0.0
C1383 C 0.75635 0.25644 0.00512 0.0
C1384 C 0.74714 0.25533 1.00127 0.0
C1385 C 0.7458 0.2532 0.99167 0.0
C1386 C 0.76789 0.25573 0.05021 0.0
C1387 C 0.77649 0.25795 0.05481 0.0
C1388 C 0.78074 0.25144 0.06098 0.0
C1389 C 0.77641 0.24253 0.0627 0.0
C1390 C 0.76795 0.24018 0.05781 0.0
C1391 C 0.76372 0.2467 0.05163 0.0
C1392 C 0.75653 0.26855 0.05042 0.0
C1393 C 0.74846 0.26436 0.05468 0.0
C1394 C 0.74314 0.26944 0.06123 0.0
C1395 C 0.74578 0.2788 0.06362 0.0
C1396 C 0.75354 0.2831 0.05892 0.0
C1397 C 0.75886 0.27801 0.05241 0.0
C1398 C 0.76102 0.26154 0.03509 0.0
C1399 C 0.76713 0.26555 0.0283 0.0
C1400 C 0.76554 0.26404 0.01861 0.0
C1401 C 0.75783 0.25836 0.01547 0.0
C1402 C 0.75163 0.25443 0.02234 0.0
C1403 C 0.75316 0.25607 0.03204 0.0
H1404 H 0.74482 0.77797 0.96512 0.0
N1405 N 0.7485 0.76225 0.97479 0.0
H1406 H 0.75531 0.78659 0.95416 0.0
H1407 H 0.76744 0.75886 0.9721 0.0
H1408 H 0.77804 0.76747 0.9612 0.0
H1409 H 0.75616 0.74734 0.96529 0.0
H1410 H 0.74782 0.73699 0.95414 0.0
H1411 H 0.72981 0.7608 0.97206 0.0
H1412 H 0.72127 0.75018 0.96116 0.0
H1413 H 0.74405 0.77305 0.98936 0.0
H1414 H 0.75817 0.7472 0.98238 0.0
H1415 H 0.74772 0.77049 0.00619 0.0
H1416 H 0.76162 0.74439 0.99918 0.0
H1417 H 0.75831 0.76933 0.04573 0.0
H1418 H 0.76571 0.7812 0.05613 0.0
H1419 H 0.78772 0.7614 0.06355 0.0
H1420 H 0.78029 0.74962 0.05308 0.0
H1421 H 0.76487 0.73245 0.04708 0.0
H1422 H 0.75555 0.72311 0.05854 0.0
H1423 H 0.73934 0.74796 0.06508 0.0
H1424 H 0.74841 0.75706 0.05341 0.0
H1425 H 0.74748 0.75833 0.03633 0.0
H1426 H 0.74369 0.76074 0.01955 0.0
H1427 H 0.77126 0.75011 0.01202 0.0
N1428 N 0.76397 0.75096 0.04367 0.0
H1429 H 0.77484 0.74745 0.02885 0.0
C1430 C 0.75531 0.76781 0.96942 0.0
C1431 C 0.75212 0.77577 0.96441 0.0
C1432 C 0.75814 0.78068 0.95817 0.0
C1433 C 0.76752 0.7777 0.95677 0.0
C1434 C 0.77082 0.76988 0.96203 0.0
C1435 C 0.76478 0.76499 0.96832 0.0
C1436 C 0.7436 0.75493 0.96948 0.0
C1437 C 0.74853 0.74792 0.96456 0.0
C1438 C 0.74372 0.74195 0.95819 0.0
C1439 C 0.73387 0.7428 0.95663 0.0
C1440 C 0.72889 0.74945 0.962 0.0
C1441 C 0.73372 0.75545 0.96832 0.0
C1442 C 0.75077 0.76034 0.98462 0.0
C1443 C 0.74789 0.76678 0.99149 0.0
C1444 C 0.74994 0.76526 1.00111 0.0
C1445 C 0.75494 0.7572 0.0041 0.0
C1446 C 0.75786 0.75073 0.99716 0.0
C1447 C 0.75583 0.75229 0.98752 0.0
C1448 C 0.76878 0.75857 0.04864 0.0
C1449 C 0.76481 0.7676 0.04947 0.0
C1450 C 0.76901 0.77436 0.05548 0.0
C1451 C 0.77729 0.77224 0.06072 0.0
C1452 C 0.78143 0.76333 0.05954 0.0
C1453 C 0.7772 0.75658 0.05358 0.0
C1454 C 0.75741 0.74543 0.04939 0.0
C1455 C 0.75916 0.73579 0.05085 0.0
C1456 C 0.75389 0.73051 0.05748 0.0
C1457 C 0.74677 0.7348 0.06287 0.0
C1458 C 0.7447 0.74438 0.06104 0.0
C1459 C 0.74994 0.74963 0.05435 0.0
C1460 C 0.76146 0.75263 0.03385 0.0
C1461 C 0.7527 0.75648 0.03109 0.0
C1462 C 0.75056 0.75792 0.02145 0.0
C1463 C 0.75715 0.7556 0.01438 0.0
C1464 C 0.76593 0.75182 0.01722 0.0
C1465 C 0.76803 0.75036 0.02684 0.0
H1466 H 0.28041 0.74772 0.97102 0.0
N1467 N 0.26235 0.74223 0.97614 0.0
H1468 H 0.29042 0.73968 0.95964 0.0
H1469 H 0.25978 0.72486 0.96947 0.0
H1470 H 0.26995 0.7165 0.95841 0.0
H1471 H 0.24429 0.74033 0.9707 0.0
H1472 H 0.23562 0.75026 0.95932 0.0
H1473 H 0.26869 0.75909 0.96844 0.0
H1474 H 0.26018 0.76894 0.95711 0.0
H1475 H 0.27356 0.75653 0.9836 0.0
H1476 H 0.25544 0.73269 0.99091 0.0
H1477 H 0.27591 0.76002 1.00035 0.0
H1478 H 0.25808 0.73586 0.00779 0.0
H1479 H 0.28929 0.7577 0.05551 0.0
H1480 H 0.29578 0.746 0.06659 0.0
H1481 H 0.27342 0.72617 0.05857 0.0
H1482 H 0.26696 0.73799 0.04755 0.0
H1483 H 0.25694 0.75045 0.05383 0.0
H1484 H 0.24748 0.75977 0.06464 0.0
H1485 H 0.26558 0.78422 0.0591 0.0
H1486 H 0.27516 0.77472 0.0484 0.0
H1487 H 0.28586 0.75822 0.03118 0.0
H1488 H 0.28348 0.75469 0.01436 0.0
H1489 H 0.25431 0.74642 0.0201 0.0
N1490 N 0.2735 0.75624 0.04519 0.0
H1491 H 0.25693 0.74957 0.03692 0.0
C1492 C 0.26926 0.73692 0.97101 0.0
C1493 C 0.27812 0.74087 0.9684 0.0
C1494 C 0.28388 0.73622 0.96191 0.0
C1495 C 0.28093 0.7275 0.95796 0.0
C1496 C 0.27235 0.72331 0.96111 0.0
C1497 C 0.26658 0.728 0.96752 0.0
C1498 C 0.25709 0.74897 0.97052 0.0
C1499 C 0.2477 0.74669 0.9679 0.0
C1500 C 0.24281 0.75232 0.96134 0.0
C1501 C 0.24723 0.76038 0.95727 0.0
C1502 C 0.25652 0.76286 0.96019 0.0
C1503 C 0.26142 0.7572 0.96672 0.0
C1504 C 0.26424 0.74436 0.98597 0.0
C1505 C 0.27011 0.752 0.98879 0.0
C1506 C 0.27152 0.75395 0.99844 0.0
C1507 C 0.26717 0.74825 0.00549 0.0
C1508 C 0.2614 0.74053 0.00261 0.0
C1509 C 0.25995 0.73864 0.99296 0.0
C1510 C 0.27768 0.74874 0.05073 0.0
C1511 C 0.28591 0.75077 0.05604 0.0
C1512 C 0.2896 0.74406 0.06234 0.0
C1513 C 0.2851 0.73515 0.06349 0.0
C1514 C 0.27699 0.73301 0.05793 0.0
C1515 C 0.27332 0.73973 0.05159 0.0
C1516 C 0.2668 0.7619 0.05028 0.0
C1517 C 0.25877 0.75785 0.05476 0.0
C1518 C 0.25334 0.76322 0.06096 0.0
C1519 C 0.25582 0.77273 0.06283 0.0
C1520 C 0.26356 0.77687 0.05796 0.0
C1521 C 0.26899 0.7715 0.05177 0.0
C1522 C 0.27159 0.75427 0.03531 0.0
C1523 C 0.27896 0.75566 0.02877 0.0
C1524 C 0.27755 0.75369 0.01915 0.0
C1525 C 0.26867 0.75031 0.0158 0.0
C1526 C 0.26128 0.7489 0.0224 0.0
C1527 C 0.26273 0.75079 0.03206 0.0
H1528 H 0.96672 0.24956 0.26399 0.0
N1529 N 0.97645 0.25786 0.2492 0.0
H1530 H 0.95688 0.2576 0.27542 0.0
H1531 H 0.97529 0.27644 0.2518 0.0
H1532 H 0.96571 0.28466 0.26352 0.0
H1533 H 0.96618 0.26275 0.23414 0.0
H1534 H 0.95437 0.25306 0.22562 0.0
H1535 H 0.97301 0.23885 0.252 0.0
H1536 H 0.96123 0.22907 0.24351 0.0
H1537 H 0.98395 0.24772 0.26415 0.0
H1538 H 0.99084 0.26144 0.23758 0.0
H1539 H 1.00059 0.24364 0.26644 0.0
H1540 H 0.00749 0.25702 0.23957 0.0
H1541 H 0.04828 0.24016 0.27864 0.0
H1542 H 0.05943 0.25001 0.28785 0.0
H1543 H 0.06501 0.26713 0.26284 0.0
H1544 H 0.05418 0.25708 0.2537 0.0
H1545 H 0.04842 0.24633 0.24165 0.0
H1546 H 0.06007 0.23912 0.23123 0.0
H1547 H 0.06489 0.21727 0.25232 0.0
H1548 H 0.05349 0.22475 0.2628 0.0
H1549 H 0.02968 0.23033 0.26404 0.0
H1550 H 0.01293 0.23386 0.26112 0.0
H1551 H 0.0213 0.26073 0.24849 0.0
N1552 N 0.04482 0.24107 0.26009 0.0
H1553 H 0.03793 0.25694 0.25105 0.0
C1554 C 0.97171 0.26242 0.25695 0.0
C1555 C 0.96665 0.25721 0.26388 0.0
C1556 C 0.96104 0.26186 0.27049 0.0
C1557 C 0.9604 0.2718 0.27037 0.0
C1558 C 0.96586 0.27699 0.26371 0.0
C1559 C 0.97142 0.27233 0.25707 0.0
C1560 C 0.97046 0.25156 0.24368 0.0
C1561 C 0.96524 0.25535 0.23609 0.0
C1562 C 0.95851 0.2498 0.23123 0.0
C1563 C 0.95683 0.24029 0.23391 0.0
C1564 C 0.96229 0.2364 0.24135 0.0
C1565 C 0.96906 0.24196 0.24617 0.0
C1566 C 0.98616 0.25503 0.25072 0.0
C1567 C 0.98903 0.24983 0.25878 0.0
C1568 C 0.99858 0.24742 0.26003 0.0
C1569 C 0.00546 0.25003 0.25321 0.0
C1570 C 0.00248 0.25505 0.24508 0.0
C1571 C 0.99296 0.25753 0.24388 0.0
C1572 C 0.05032 0.24787 0.26552 0.0
C1573 C 0.0518 0.24615 0.27522 0.0
C1574 C 0.05816 0.25181 0.28046 0.0
C1575 C 0.06319 0.25934 0.27607 0.0
C1576 C 0.06139 0.26129 0.26642 0.0
C1577 C 0.05507 0.2556 0.26119 0.0
C1578 C 0.05015 0.23609 0.25306 0.0
C1579 C 0.05188 0.23991 0.24397 0.0
C1580 C 0.05853 0.23575 0.23799 0.0
C1581 C 0.06354 0.22769 0.24099 0.0
C1582 C 0.06133 0.22359 0.24986 0.0
C1583 C 0.05474 0.22777 0.25582 0.0
C1584 C 0.03508 0.24335 0.25786 0.0
C1585 C 0.02786 0.23694 0.26058 0.0
C1586 C 0.01829 0.23903 0.25897 0.0
C1587 C 0.01569 0.24763 0.25463 0.0
C1588 C 0.02298 0.25399 0.25176 0.0
C1589 C 0.03256 0.25185 0.2533 0.0
H1590 H 0.77544 0.04887 0.26988 0.0
N1591 N 0.75944 0.0395 0.26589 0.0
H1592 H 0.7845 0.05956 0.25943 0.0
H1593 H 0.75618 0.04221 0.24687 0.0
H1594 H 0.76518 0.05292 0.23633 0.0
H1595 H 0.74446 0.0486 0.25742 0.0
H1596 H 0.73395 0.05977 0.26501 0.0
H1597 H 0.75802 0.04286 0.28435 0.0
H1598 H 0.74753 0.05413 0.29203 0.0
H1599 H 0.77069 0.02516 0.27006 0.0
H1600 H 0.74395 0.03167 0.2566 0.0
H1601 H 0.76821 0.00839 0.26645 0.0
H1602 H 0.74115 0.01491 0.25336 0.0
H1603 H 0.76646 0.9684 0.25559 0.0
H1604 H 0.77711 0.95768 0.24742 0.0
H1605 H 0.75463 0.95084 0.22739 0.0
H1606 H 0.74397 0.96132 0.23583 0.0
H1607 H 0.72897 0.96648 0.25262 0.0
H1608 H 0.72098 0.95514 0.26326 0.0
H1609 H 0.74764 0.9505 0.27791 0.0
H1610 H 0.75556 0.96157 0.26711 0.0
H1611 H 0.75671 0.97811 0.26738 0.0
H1612 H 0.75929 0.99484 0.27074 0.0
H1613 H 0.74596 0.00213 0.24395 0.0
N1614 N 0.74746 0.9706 0.2518 0.0
H1615 H 0.74299 0.9853 0.2409 0.0
C1616 C 0.76516 0.04478 0.25918 0.0
C1617 C 0.77328 0.04961 0.26251 0.0
C1618 C 0.77845 0.05569 0.25653 0.0
C1619 C 0.77554 0.05711 0.24705 0.0
C1620 C 0.76753 0.05205 0.24362 0.0
C1621 C 0.76241 0.04589 0.24962 0.0
C1622 C 0.75208 0.04487 0.27034 0.0
C1623 C 0.74507 0.04959 0.265 0.0
C1624 C 0.7391 0.05605 0.26934 0.0
C1625 C 0.73996 0.05793 0.27911 0.0
C1626 C 0.74662 0.05281 0.28451 0.0
C1627 C 0.75262 0.04637 0.28015 0.0
C1628 C 0.7575 0.02967 0.26372 0.0
C1629 C 0.76423 0.02294 0.26641 0.0
C1630 C 0.76275 0.01334 0.26439 0.0
C1631 C 0.75443 0.01021 0.25966 0.0
C1632 C 0.7477 0.01702 0.25691 0.0
C1633 C 0.74924 0.02665 0.25885 0.0
C1634 C 0.75438 0.9656 0.24633 0.0
C1635 C 0.76387 0.96468 0.24938 0.0
C1636 C 0.76997 0.95857 0.24466 0.0
C1637 C 0.7667 0.95328 0.2368 0.0
C1638 C 0.75734 0.95462 0.23352 0.0
C1639 C 0.75126 0.96069 0.23826 0.0
C1640 C 0.74283 0.96493 0.25904 0.0
C1641 C 0.73303 0.96313 0.25824 0.0
C1642 C 0.72848 0.95666 0.26435 0.0
C1643 C 0.73368 0.95184 0.27142 0.0
C1644 C 0.74345 0.95396 0.27246 0.0
C1645 C 0.74798 0.9604 0.26632 0.0
C1646 C 0.74953 0.98042 0.2539 0.0
C1647 C 0.75428 0.98327 0.26224 0.0
C1648 C 0.75584 0.9929 0.26412 0.0
C1649 C 0.75281 0.99992 0.25764 0.0
C1650 C 0.74823 0.997 0.24921 0.0
C1651 C 0.7466 0.98737 0.2474 0.0
H1652 H 0.05836 0.77269 0.27791 0.0
N1653 N 0.04635 0.76973 0.26361 0.0
H1654 H 0.06818 0.76106 0.28611 0.0
H1655 H 0.04522 0.75053 0.26128 0.0
H1656 H 0.05484 0.73871 0.26963 0.0
H1657 H 0.05373 0.7603 0.24855 0.0
H1658 H 0.06529 0.76667 0.23727 0.0
H1659 H 0.05123 0.78786 0.26111 0.0
H1660 H 0.06243 0.79448 0.24951 0.0
H1661 H 0.03409 0.77522 0.27654 0.0
H1662 H 0.0356 0.76263 0.24886 0.0
H1663 H 0.01676 0.77492 0.27558 0.0
H1664 H 0.01821 0.76274 0.24755 0.0
H1665 H 0.96858 0.77078 0.27853 0.0
H1666 H 0.95767 0.75949 0.28626 0.0
H1667 H 0.95896 0.74134 0.26173 0.0
H1668 H 0.96967 0.7528 0.25402 0.0
H1669 H 0.97149 0.76546 0.24244 0.0
H1670 H 0.9599 0.77311 0.23189 0.0
H1671 H 0.95527 0.79437 0.25322 0.0
H1672 H 0.96656 0.78644 0.26378 0.0
H1673 H 0.987 0.78298 0.26793 0.0
H1674 H 0.00435 0.78281 0.26801 0.0
H1675 H 0.00349 0.75621 0.25295 0.0
N1676 N 0.97506 0.77009 0.26086 0.0
H1677 H 0.98609 0.7568 0.25247 0.0
C1678 C 0.05106 0.76248 0.26905 0.0
C1679 C 0.05746 0.76525 0.2762 0.0
C1680 C 0.06304 0.75858 0.2809 0.0
C1681 C 0.06232 0.74891 0.27856 0.0
C1682 C 0.05567 0.74609 0.27154 0.0
C1683 C 0.0501 0.75282 0.26682 0.0
C1684 C 0.05171 0.77361 0.25576 0.0
C1685 C 0.0555 0.76778 0.24873 0.0
C1686 C 0.0621 0.77147 0.24222 0.0
C1687 C 0.06496 0.78108 0.24254 0.0
C1688 C 0.06062 0.787 0.24919 0.0
C1689 C 0.05412 0.78327 0.25575 0.0
C1690 C 0.03613 0.76909 0.26276 0.0
C1691 C 0.03064 0.77245 0.27021 0.0
C1692 C 0.02072 0.77235 0.26959 0.0
C1693 C 0.01601 0.76898 0.2614 0.0
C1694 C 0.02155 0.76537 0.25398 0.0
C1695 C 0.03152 0.76536 0.25468 0.0
C1696 C 0.96996 0.76261 0.26576 0.0
C1697 C 0.96665 0.76425 0.27494 0.0
C1698 C 0.96043 0.75778 0.27933 0.0
C1699 C 0.95737 0.74952 0.27459 0.0
C1700 C 0.96105 0.7477 0.26553 0.0
C1701 C 0.96727 0.7542 0.26114 0.0
C1702 C 0.96978 0.77537 0.2539 0.0
C1703 C 0.96805 0.77184 0.24475 0.0
C1704 C 0.96146 0.77625 0.23873 0.0
C1705 C 0.95652 0.78428 0.24177 0.0
C1706 C 0.95876 0.78809 0.25073 0.0
C1707 C 0.96529 0.78365 0.25673 0.0
C1708 C 0.98527 0.76987 0.26032 0.0
C1709 C 0.99059 0.77717 0.26458 0.0
C1710 C 1.00051 0.77698 0.2647 0.0
C1711 C 0.0054 0.76939 0.26065 0.0
C1712 C 1.00002 0.76219 0.25612 0.0
C1713 C 0.99004 0.76246 0.2559 0.0
H1714 H 0.29302 0.96506 0.24536 0.0
N1715 N 0.27513 0.97077 0.24569 0.0
H1716 H 0.30079 0.95437 0.25664 0.0
H1717 H 0.26808 0.96517 0.26294 0.0
H1718 H 0.27584 0.95472 0.27438 0.0
H1719 H 0.25647 0.96896 0.25077 0.0
H1720 H 0.24476 0.95778 0.24395 0.0
H1721 H 0.27719 0.9602 0.23041 0.0
H1722 H 0.26562 0.94904 0.22354 0.0
H1723 H 0.28041 0.98278 0.23214 0.0
H1724 H 0.26766 0.98163 0.25983 0.0
H1725 H 0.27954 1.00003 0.23209 0.0
H1726 H 0.2672 0.99895 0.26013 0.0
H1727 H 0.28961 0.05219 0.24309 0.0
H1728 H 0.29736 0.06272 0.2546 0.0
H1729 H 0.27686 0.05387 0.27576 0.0
H1730 H 0.26942 0.04307 0.26424 0.0
H1731 H 0.2568 0.04644 0.25318 0.0
H1732 H 0.24514 0.05714 0.24626 0.0
H1733 H 0.26228 0.05984 0.221 0.0
H1734 H 0.27377 0.04889 0.22793 0.0
H1735 H 0.28685 0.03049 0.23854 0.0
H1736 H 0.28699 0.01321 0.239 0.0
H1737 H 0.26019 0.0129 0.25388 0.0
N1738 N 0.27389 0.04185 0.24547 0.0
H1739 H 0.26042 0.03025 0.25378 0.0
C1740 C 0.28002 0.96595 0.2533 0.0
C1741 C 0.28934 0.96299 0.25181 0.0
C1742 C 0.29376 0.95689 0.25828 0.0
C1743 C 0.28892 0.95361 0.2664 0.0
C1744 C 0.27973 0.95698 0.26813 0.0
C1745 C 0.27531 0.96307 0.26163 0.0
C1746 C 0.2677 0.96535 0.24107 0.0
C1747 C 0.25845 0.96471 0.24475 0.0
C1748 C 0.25179 0.9583 0.24087 0.0
C1749 C 0.25427 0.95248 0.23322 0.0
C1750 C 0.26342 0.95347 0.22934 0.0
C1751 C 0.27006 0.95982 0.23326 0.0
C1752 C 0.27425 0.98092 0.246 0.0
C1753 C 0.27748 0.98629 0.23824 0.0
C1754 C 0.27705 0.99617 0.23829 0.0
C1755 C 0.27345 1.00097 0.24618 0.0
C1756 C 0.26998 0.99553 0.2539 0.0
C1757 C 0.27032 0.9856 0.25379 0.0
C1758 C 0.27894 0.04693 0.25279 0.0
C1759 C 0.28693 0.05242 0.25027 0.0
C1760 C 0.29126 0.0585 0.25683 0.0
C1761 C 0.28764 0.05929 0.26607 0.0
C1762 C 0.27986 0.05343 0.26873 0.0
C1763 C 0.27556 0.04729 0.26214 0.0
C1764 C 0.26615 0.04681 0.24102 0.0
C1765 C 0.25793 0.04911 0.24606 0.0
C1766 C 0.25131 0.05535 0.24212 0.0
C1767 C 0.2528 0.05945 0.2331 0.0
C1768 C 0.26082 0.05676 0.22791 0.0
C1769 C 0.26741 0.05051 0.23185 0.0
C1770 C 0.27359 0.03166 0.24599 0.0
C1771 C 0.28102 0.02667 0.24191 0.0
C1772 C 0.28103 0.01677 0.24212 0.0
C1773 C 0.27352 0.01157 0.24634 0.0
C1774 C 0.26612 0.01662 0.2506 0.0
C1775 C 0.26619 0.02657 0.25048 0.0
H1776 H 0.05365 0.74629 0.7591 0.0
N1777 N 0.04457 0.76213 0.75263 0.0
H1778 H 0.06359 0.73598 0.74975 0.0
H1779 H 0.04569 0.76166 0.7338 0.0
H1780 H 0.05526 0.75106 0.72423 0.0
H1781 H 0.05669 0.77637 0.74944 0.0
H1782 H 0.06873 0.78285 0.76026 0.0
H1783 H 0.04663 0.75743 0.77143 0.0
H1784 H 0.05846 0.76407 0.78248 0.0
H1785 H 0.03553 0.74572 0.7587 0.0
H1786 H 0.03145 0.77539 0.75283 0.0
H1787 H 0.01872 0.7438 0.76242 0.0
H1788 H 0.01473 0.77373 0.75716 0.0
H1789 H 0.967 0.73681 0.77106 0.0
H1790 H 0.95507 0.72898 0.76092 0.0
H1791 H 0.95842 0.75142 0.7401 0.0
H1792 H 0.97004 0.75926 0.75032 0.0
H1793 H 0.96917 0.77102 0.76218 0.0
H1794 H 0.95868 0.7815 0.77074 0.0
H1795 H 0.95935 0.76246 0.79491 0.0
H1796 H 0.96999 0.75208 0.7863 0.0
H1797 H 0.98969 0.74463 0.77636 0.0
H1798 H 0.00667 0.74669 0.77319 0.0
H1799 H 1.00014 0.76798 0.75196 0.0
N1800 N 0.97528 0.75364 0.76832 0.0
H1801 H 0.98339 0.76632 0.75568 0.0
C1802 C 0.04901 0.75485 0.74714 0.0
C1803 C 0.05387 0.74731 0.75149 0.0
C1804 C 0.05952 0.74136 0.74609 0.0
C1805 C 0.06037 0.74275 0.73621 0.0
C1806 C 0.05498 0.74991 0.73184 0.0
C1807 C 0.04941 0.75591 0.73726 0.0
C1808 C 0.05075 0.76649 0.75962 0.0
C1809 C 0.05697 0.77378 0.75669 0.0
C1810 C 0.06382 0.77748 0.76292 0.0
C1811 C 0.06459 0.77399 0.77227 0.0
C1812 C 0.05815 0.76684 0.77529 0.0
C1813 C 0.05131 0.7631 0.76902 0.0
C1814 C 0.03474 0.76071 0.75529 0.0
C1815 C 0.03104 0.75185 0.75825 0.0
C1816 C 0.02138 0.75079 0.7605 0.0
C1817 C 0.01524 0.75859 0.76004 0.0
C1818 C 0.01909 0.76748 0.75736 0.0
C1819 C 0.02869 0.76849 0.75496 0.0
C1820 C 0.96948 0.74858 0.76149 0.0
C1821 C 0.96527 0.73992 0.76422 0.0
C1822 C 0.95848 0.73545 0.7584 0.0
C1823 C 0.95573 0.73961 0.74972 0.0
C1824 C 0.96025 0.7481 0.74681 0.0
C1825 C 0.96702 0.75257 0.75265 0.0
C1826 C 0.97041 0.76074 0.77363 0.0
C1827 C 0.96726 0.76918 0.76938 0.0
C1828 C 0.96116 0.77515 0.77427 0.0
C1829 C 0.95809 0.77279 0.78349 0.0
C1830 C 0.96163 0.76456 0.78787 0.0
C1831 C 0.96771 0.75861 0.78297 0.0
C1832 C 0.98522 0.75521 0.76622 0.0
C1833 C 0.99197 0.74977 0.77107 0.0
C1834 C 1.00168 0.75091 0.76916 0.0
C1835 C 0.00488 0.75747 0.76225 0.0
C1836 C 0.99804 0.76295 0.75743 0.0
C1837 C 0.98835 0.76191 0.75946 0.0
H1838 H 0.2722 0.04131 0.7655 0.0
N1839 N 0.25309 0.03857 0.76245 0.0
H1840 H 0.28247 0.05276 0.75719 0.0
H1841 H 0.24888 0.04841 0.74692 0.0
H1842 H 0.25916 0.05964 0.73832 0.0
H1843 H 0.23477 0.0426 0.76392 0.0
H1844 H 0.22759 0.05387 0.77476 0.0
H1845 H 0.26188 0.0468 0.77786 0.0
H1846 H 0.25475 0.05773 0.78889 0.0
H1847 H 0.26272 0.03047 0.77751 0.0
H1848 H 0.24874 0.02442 0.75086 0.0
H1849 H 0.26617 0.01376 0.77963 0.0
H1850 H 0.25255 0.00767 0.75268 0.0
H1851 H 0.28439 0.96066 0.77514 0.0
H1852 H 0.29292 0.9506 0.76412 0.0
H1853 H 0.27311 0.95806 0.7418 0.0
H1854 H 0.26464 0.96815 0.7529 0.0
H1855 H 0.25359 0.96003 0.76349 0.0
H1856 H 0.2432 0.94833 0.77102 0.0
H1857 H 0.25639 0.9544 0.79818 0.0
H1858 H 0.26706 0.96594 0.79043 0.0
H1859 H 0.27914 0.98469 0.77654 0.0
H1860 H 0.27573 1.00147 0.77411 0.0
H1861 H 0.24872 0.99372 0.76121 0.0
N1862 N 0.26836 0.9698 0.77197 0.0
H1863 H 0.25243 0.97702 0.76326 0.0
C1864 C 0.25974 0.04407 0.75684 0.0
C1865 C 0.26934 0.04521 0.75951 0.0
C1866 C 0.27522 0.05173 0.75471 0.0
C1867 C 0.27162 0.05722 0.74715 0.0
C1868 C 0.26213 0.05569 0.74423 0.0
C1869 C 0.25626 0.04921 0.74905 0.0
C1870 C 0.24882 0.04377 0.77007 0.0
C1871 C 0.2391 0.04572 0.76951 0.0
C1872 C 0.23501 0.05216 0.77572 0.0
C1873 C 0.24061 0.0568 0.78266 0.0
C1874 C 0.25026 0.05443 0.78354 0.0
C1875 C 0.25434 0.04804 0.77729 0.0
C1876 C 0.25533 0.02873 0.76404 0.0
C1877 C 0.26038 0.02558 0.77209 0.0
C1878 C 0.26245 0.01596 0.77325 0.0
C1879 C 0.25964 0.00928 0.76634 0.0
C1880 C 0.25468 0.01252 0.75825 0.0
C1881 C 0.25254 0.02211 0.75716 0.0
C1882 C 0.2739 0.96513 0.76488 0.0
C1883 C 0.28203 0.96027 0.76782 0.0
C1884 C 0.28689 0.95454 0.7615 0.0
C1885 C 0.28366 0.95349 0.75209 0.0
C1886 C 0.2757 0.95864 0.74903 0.0
C1887 C 0.27089 0.96445 0.75536 0.0
C1888 C 0.26118 0.96385 0.77641 0.0
C1889 C 0.2542 0.95896 0.77108 0.0
C1890 C 0.24819 0.95227 0.77543 0.0
C1891 C 0.24898 0.95034 0.78522 0.0
C1892 C 0.25569 0.95557 0.7906 0.0
C1893 C 0.26173 0.96223 0.78622 0.0
C1894 C 0.26605 0.97959 0.77019 0.0
C1895 C 0.27251 0.98665 0.77315 0.0
C1896 C 0.2705 0.99624 0.77183 0.0
C1897 C 0.26189 0.99902 0.76754 0.0
C1898 C 0.25546 0.9919 0.76445 0.0
C1899 C 0.25754 0.98229 0.7657 0.0
H1900 H 0.97316 0.24187 0.7663 0.0
N1901 N 0.97621 0.26084 0.7694 0.0
H1902 H 0.96162 0.23166 0.77455 0.0
H1903 H 0.96672 0.26484 0.78503 0.0
H1904 H 0.95541 0.2546 0.79356 0.0
H1905 H 0.97246 0.27921 0.768 0.0
H1906 H 0.96127 0.28683 0.75707 0.0
H1907 H 0.96735 0.25249 0.75409 0.0
H1908 H 0.95653 0.26005 0.74297 0.0
H1909 H 0.98367 0.25119 0.75431 0.0
H1910 H 0.99091 0.26514 0.78055 0.0
H1911 H 1.00035 0.2479 0.75168 0.0
H1912 H 0.00767 0.26148 0.77822 0.0
H1913 H 0.05343 0.22992 0.75451 0.0
H1914 H 0.06399 0.22125 0.76523 0.0
H1915 H 0.05843 0.24136 0.78741 0.0
H1916 H 0.04785 0.24998 0.77658 0.0
H1917 H 0.05489 0.26111 0.76534 0.0
H1918 H 0.0664 0.27123 0.75703 0.0
H1919 H 0.0596 0.25693 0.73078 0.0
H1920 H 0.04801 0.24684 0.73918 0.0
H1921 H 0.02976 0.23528 0.75383 0.0
H1922 H 0.01304 0.2385 0.75686 0.0
H1923 H 0.02122 0.26546 0.76912 0.0
N1924 N 0.04483 0.24613 0.75775 0.0
H1925 H 0.03791 0.26193 0.76646 0.0
C1926 C 0.97075 0.25416 0.77503 0.0
C1927 C 0.96941 0.24466 0.77232 0.0
C1928 C 0.96282 0.23881 0.77708 0.0
C1929 C 0.95748 0.24234 0.78465 0.0
C1930 C 0.95924 0.2517 0.78764 0.0
C1931 C 0.96578 0.25753 0.78285 0.0
C1932 C 0.97084 0.26532 0.76187 0.0
C1933 C 0.96914 0.27505 0.76242 0.0
C1934 C 0.96274 0.27939 0.75615 0.0
C1935 C 0.95791 0.27404 0.74917 0.0
C1936 C 0.95997 0.26436 0.74836 0.0
C1937 C 0.96631 0.26003 0.75466 0.0
C1938 C 0.986 0.25855 0.76762 0.0
C1939 C 0.98882 0.25354 0.75954 0.0
C1940 C 0.99842 0.25157 0.75809 0.0
C1941 C 0.00544 0.25442 0.76472 0.0
C1942 C 0.00255 0.25931 0.77285 0.0
C1943 C 0.99296 0.26136 0.77425 0.0
C1944 C 0.04988 0.24057 0.76472 0.0
C1945 C 0.05436 0.23233 0.76174 0.0
C1946 C 0.06037 0.22739 0.76789 0.0
C1947 C 0.06209 0.23063 0.77717 0.0
C1948 C 0.05733 0.23874 0.78027 0.0
C1949 C 0.05125 0.24365 0.77411 0.0
C1950 C 0.05057 0.25317 0.75286 0.0
C1951 C 0.05572 0.26024 0.75777 0.0
C1952 C 0.06237 0.26599 0.75302 0.0
C1953 C 0.06399 0.26483 0.74326 0.0
C1954 C 0.05848 0.25807 0.73828 0.0
C1955 C 0.05186 0.25229 0.74305 0.0
C1956 C 0.03509 0.24836 0.75981 0.0
C1957 C 0.02791 0.24186 0.7572 0.0
C1958 C 0.01835 0.24377 0.75887 0.0
C1959 C 0.0157 0.2523 0.76316 0.0
C1960 C 0.02295 0.25877 0.76589 0.0
C1961 C 0.03254 0.25681 0.76429 0.0
H1962 H 0.78562 0.96487 0.75202 0.0
N1963 N 0.76782 0.97078 0.75282 0.0
H1964 H 0.79356 0.95406 0.76307 0.0
H1965 H 0.76102 0.96497 0.77006 0.0
H1966 H 0.76894 0.95433 0.78127 0.0
H1967 H 0.74925 0.96852 0.75796 0.0
H1968 H 0.73752 0.95776 0.75055 0.0
H1969 H 0.76983 0.96115 0.7369 0.0
H1970 H 0.75824 0.95041 0.72943 0.0
H1971 H 0.7743 0.98286 0.73983 0.0
H1972 H 0.75986 0.98155 0.76667 0.0
H1973 H 0.77402 1.00014 0.74013 0.0
H1974 H 0.75992 0.99891 0.76731 0.0
H1975 H 0.78511 0.05186 0.75273 0.0
H1976 H 0.79235 0.06192 0.76496 0.0
H1977 H 0.77049 0.05289 0.78464 0.0
H1978 H 0.76332 0.04282 0.77228 0.0
H1979 H 0.75181 0.04749 0.76034 0.0
H1980 H 0.74126 0.05871 0.75247 0.0
H1981 H 0.75973 0.05937 0.72807 0.0
H1982 H 0.77037 0.04829 0.73615 0.0
H1983 H 0.78214 0.03008 0.74786 0.0
H1984 H 0.78161 0.01279 0.74801 0.0
H1985 H 0.7537 0.01328 0.7607 0.0
N1986 N 0.76906 0.04182 0.75386 0.0
H1987 H 0.75456 0.03064 0.76088 0.0
C1988 C 0.77278 0.96574 0.76022 0.0
C1989 C 0.78205 0.96274 0.75851 0.0
C1990 C 0.78656 0.95658 0.76485 0.0
C1991 C 0.78187 0.95327 0.77305 0.0
C1992 C 0.77271 0.95663 0.77496 0.0
C1993 C 0.7682 0.9628 0.7686 0.0
C1994 C 0.7604 0.96558 0.74796 0.0
C1995 C 0.75119 0.96467 0.75167 0.0
C1996 C 0.74452 0.95849 0.74745 0.0
C1997 C 0.74695 0.95319 0.73941 0.0
C1998 C 0.75608 0.95445 0.73553 0.0
C1999 C 0.76272 0.96056 0.73978 0.0
C2000 C 0.76724 0.98094 0.75325 0.0
C2001 C 0.77112 0.98634 0.74582 0.0
C2002 C 0.77101 0.99623 0.74606 0.0
C2003 C 0.76709 1.00099 0.75383 0.0
C2004 C 0.76297 0.99552 0.76119 0.0
C2005 C 0.763 0.98558 0.76089 0.0
C2006 C 0.7737 0.04665 0.7616 0.0
C2007 C 0.782 0.05194 0.75974 0.0
C2008 C 0.78613 0.05765 0.76675 0.0
C2009 C 0.78198 0.05823 0.77578 0.0
C2010 C 0.77379 0.05268 0.77773 0.0
C2011 C 0.76971 0.0469 0.7707 0.0
C2012 C 0.76189 0.04706 0.74881 0.0
C2013 C 0.75349 0.04989 0.75324 0.0
C2014 C 0.74744 0.05632 0.7487 0.0
C2015 C 0.74969 0.06004 0.73967 0.0
C2016 C 0.75787 0.05679 0.73509 0.0
C2017 C 0.7639 0.05038 0.73964 0.0
C2018 C 0.76838 0.03163 0.75422 0.0
C2019 C 0.77593 0.02643 0.75068 0.0
C2020 C 0.77556 0.01654 0.75071 0.0
C2021 C 0.76754 0.01157 0.75423 0.0
C2022 C 0.76001 0.01683 0.75797 0.0
C2023 C 0.76045 0.02678 0.75801 0.0
H2024 H 0.25451 0.7488 0.47098 0.0
N2025 N 0.2517 0.76776 0.47359 0.0
H2026 H 0.24607 0.73869 0.4595 0.0
H2027 H 0.23614 0.77193 0.46381 0.0
H2028 H 0.22747 0.76185 0.45253 0.0
H2029 H 0.25324 0.78615 0.4696 0.0
H2030 H 0.26422 0.79389 0.45846 0.0
H2031 H 0.26699 0.75951 0.4652 0.0
H2032 H 0.27815 0.76718 0.45432 0.0
H2033 H 0.26667 0.75832 0.4818 0.0
H2034 H 0.2403 0.7721 0.48776 0.0
H2035 H 0.26922 0.7555 0.49869 0.0
H2036 H 0.2425 0.76888 0.5047 0.0
H2037 H 0.2657 0.73915 0.55261 0.0
H2038 H 0.25472 0.73015 0.56277 0.0
H2039 H 0.23221 0.74928 0.55505 0.0
H2040 H 0.24329 0.75823 0.54489 0.0
H2041 H 0.25381 0.77021 0.55154 0.0
H2042 H 0.26098 0.78088 0.56314 0.0
H2043 H 0.28782 0.76673 0.56019 0.0
H2044 H 0.2806 0.75625 0.54829 0.0
H2045 H 0.26698 0.744 0.52889 0.0
H2046 H 0.26423 0.74659 0.51192 0.0
H2047 H 0.25136 0.77345 0.5181 0.0
N2048 N 0.26238 0.7551 0.54319 0.0
H2049 H 0.25371 0.77054 0.53499 0.0
C2050 C 0.24596 0.76115 0.46819 0.0
C2051 C 0.24853 0.75164 0.46708 0.0
C2052 C 0.24367 0.74586 0.46053 0.0
C2053 C 0.23617 0.7495 0.45499 0.0
C2054 C 0.23333 0.75887 0.45653 0.0
C2055 C 0.23819 0.76462 0.46303 0.0
C2056 C 0.25928 0.7723 0.4683 0.0
C2057 C 0.2588 0.78204 0.46643 0.0
C2058 C 0.2651 0.78644 0.46007 0.0
C2059 C 0.27204 0.78114 0.45541 0.0
C2060 C 0.2728 0.77144 0.45765 0.0
C2061 C 0.26647 0.76706 0.46399 0.0
C2062 C 0.25332 0.76557 0.48349 0.0
C2063 C 0.26139 0.76071 0.48672 0.0
C2064 C 0.26279 0.75901 0.49644 0.0
C2065 C 0.25609 0.76199 0.50316 0.0
C2066 C 0.24793 0.76666 0.49983 0.0
C2067 C 0.2466 0.76844 0.49013 0.0
C2068 C 0.25535 0.74933 0.54802 0.0
C2069 C 0.25835 0.74127 0.55298 0.0
C2070 C 0.25205 0.73614 0.55876 0.0
C2071 C 0.24258 0.73902 0.55975 0.0
C2072 C 0.23948 0.74695 0.55452 0.0
C2073 C 0.2458 0.75204 0.54867 0.0
C2074 C 0.2667 0.76243 0.54895 0.0
C2075 C 0.26129 0.76954 0.55317 0.0
C2076 C 0.26539 0.77559 0.55993 0.0
C2077 C 0.27496 0.77462 0.56271 0.0
C2078 C 0.28046 0.76777 0.55817 0.0
C2079 C 0.27635 0.76175 0.55137 0.0
C2080 C 0.26067 0.75707 0.53325 0.0
C2081 C 0.26356 0.75044 0.52655 0.0
C2082 C 0.26203 0.75198 0.51684 0.0
C2083 C 0.25762 0.76028 0.51355 0.0
C2084 C 0.25467 0.76692 0.52031 0.0
C2085 C 0.25611 0.7653 0.53005 0.0
H2086 H 0.77017 0.78334 0.54767 0.0
N2087 N 0.7704 0.76492 0.54395 0.0
H2088 H 0.75963 0.79148 0.55857 0.0
H2089 H 0.75434 0.7573 0.55219 0.0
H2090 H 0.74363 0.76539 0.56279 0.0
H2091 H 0.76602 0.74615 0.54703 0.0
H2092 H 0.77344 0.73584 0.55887 0.0
H2093 H 0.7862 0.76845 0.55378 0.0
H2094 H 0.7939 0.75809 0.56541 0.0
H2095 H 0.78186 0.76935 0.52967 0.0
H2096 H 0.75519 0.75527 0.53596 0.0
H2097 H 0.77969 0.76576 0.51282 0.0
H2098 H 0.75275 0.75198 0.51917 0.0
H2099 H 0.76689 0.76588 0.46515 0.0
H2100 H 0.75841 0.77633 0.45434 0.0
H2101 H 0.7319 0.76224 0.46173 0.0
H2102 H 0.74059 0.7515 0.47229 0.0
H2103 H 0.75631 0.73511 0.46487 0.0
H2104 H 0.76732 0.72753 0.45404 0.0
H2105 H 0.78937 0.74762 0.46223 0.0
H2106 H 0.77826 0.75519 0.47298 0.0
H2107 H 0.76803 0.76657 0.4824 0.0
H2108 H 0.77059 0.76992 0.49919 0.0
H2109 H 0.7582 0.74259 0.50649 0.0
N2110 N 0.7593 0.75069 0.47493 0.0
H2111 H 0.75533 0.73949 0.48964 0.0
C2112 C 0.76306 0.76975 0.54903 0.0
C2113 C 0.76425 0.77946 0.55079 0.0
C2114 C 0.75821 0.78409 0.55702 0.0
C2115 C 0.75081 0.77907 0.56164 0.0
C2116 C 0.74934 0.76943 0.55949 0.0
C2117 C 0.75541 0.76481 0.55329 0.0
C2118 C 0.77554 0.75811 0.54958 0.0
C2119 C 0.77218 0.74876 0.55092 0.0
C2120 C 0.77646 0.74285 0.55768 0.0
C2121 C 0.7842 0.74617 0.5632 0.0
C2122 C 0.78784 0.75536 0.56144 0.0
C2123 C 0.78353 0.76126 0.55473 0.0
C2124 C 0.7687 0.76268 0.53409 0.0
C2125 C 0.7755 0.76554 0.52739 0.0
C2126 C 0.7742 0.76354 0.51775 0.0
C2127 C 0.76601 0.75861 0.51457 0.0
C2128 C 0.75921 0.75568 0.52134 0.0
C2129 C 0.76056 0.75764 0.53099 0.0
C2130 C 0.75436 0.75782 0.46949 0.0
C2131 C 0.75925 0.76507 0.46454 0.0
C2132 C 0.75435 0.77112 0.45837 0.0
C2133 C 0.74445 0.77011 0.45707 0.0
C2134 C 0.73954 0.76312 0.46239 0.0
C2135 C 0.74446 0.75703 0.4685 0.0
C2136 C 0.76642 0.74568 0.46973 0.0
C2137 C 0.76357 0.73775 0.46445 0.0
C2138 C 0.76989 0.73342 0.45829 0.0
C2139 C 0.77922 0.737 0.45723 0.0
C2140 C 0.78219 0.74477 0.46279 0.0
C2141 C 0.77586 0.74906 0.469 0.0
C2142 C 0.76138 0.75278 0.48475 0.0
C2143 C 0.76584 0.7613 0.48759 0.0
C2144 C 0.76737 0.76318 0.49724 0.0
C2145 C 0.76456 0.75655 0.50426 0.0
C2146 C 0.76029 0.74795 0.50134 0.0
C2147 C 0.75871 0.74612 0.49171 0.0
H2148 H 0.78536 0.24428 0.55532 0.0
N2149 N 0.77121 0.24847 0.54357 0.0
H2150 H 0.79343 0.25476 0.56661 0.0
H2151 H 0.76977 0.26795 0.54407 0.0
H2152 H 0.77805 0.27852 0.555 0.0
H2153 H 0.75674 0.25752 0.55251 0.0
H2154 H 0.74554 0.25033 0.56375 0.0
H2155 H 0.76849 0.2301 0.54707 0.0
H2156 H 0.7573 0.22282 0.55835 0.0
H2157 H 0.78032 0.24096 0.52909 0.0
H2158 H 0.75772 0.26001 0.53562 0.0
H2159 H 0.77741 0.24341 0.51213 0.0
H2160 H 0.75522 0.26313 0.5188 0.0
H2161 H 0.77431 0.25484 0.46433 0.0
H2162 H 0.78479 0.26369 0.45366 0.0
H2163 H 0.77169 0.28978 0.46213 0.0
H2164 H 0.76087 0.28072 0.47245 0.0
H2165 H 0.74373 0.26585 0.46452 0.0
H2166 H 0.73511 0.2556 0.45337 0.0
H2167 H 0.75434 0.23286 0.45998 0.0
H2168 H 0.76294 0.24326 0.47114 0.0
H2169 H 0.77633 0.2566 0.48255 0.0
H2170 H 0.77912 0.25351 0.49934 0.0
H2171 H 0.74919 0.25739 0.5048 0.0
N2172 N 0.7594 0.26198 0.47426 0.0
H2173 H 0.74666 0.26121 0.48807 0.0
C2174 C 0.77699 0.25524 0.54879 0.0
C2175 C 0.7839 0.25178 0.55509 0.0
C2176 C 0.78851 0.25782 0.56153 0.0
C2177 C 0.78636 0.26751 0.5618 0.0
C2178 C 0.77977 0.27107 0.55514 0.0
C2179 C 0.77508 0.265 0.54876 0.0
C2180 C 0.76349 0.24431 0.54896 0.0
C2181 C 0.75678 0.24992 0.55357 0.0
C2182 C 0.75043 0.24581 0.56007 0.0
C2183 C 0.75059 0.23602 0.56201 0.0
C2184 C 0.75694 0.23037 0.55697 0.0
C2185 C 0.76333 0.2345 0.55053 0.0
C2186 C 0.76936 0.25037 0.53364 0.0
C2187 C 0.77482 0.2458 0.52684 0.0
C2188 C 0.77318 0.24728 0.51713 0.0
C2189 C 0.76609 0.25353 0.51397 0.0
C2190 C 0.76063 0.25814 0.52086 0.0
C2191 C 0.76215 0.25648 0.53056 0.0
C2192 C 0.7667 0.26713 0.46911 0.0
C2193 C 0.77372 0.26246 0.46395 0.0
C2194 C 0.77979 0.26757 0.45789 0.0
C2195 C 0.77904 0.27747 0.45691 0.0
C2196 C 0.77234 0.28215 0.46251 0.0
C2197 C 0.76622 0.27702 0.4685 0.0
C2198 C 0.75394 0.25533 0.46863 0.0
C2199 C 0.74597 0.2586 0.46366 0.0
C2200 C 0.74105 0.25272 0.45732 0.0
C2201 C 0.74404 0.2434 0.45577 0.0
C2202 C 0.75191 0.24003 0.46095 0.0
C2203 C 0.7568 0.24593 0.46736 0.0
C2204 C 0.76126 0.25932 0.48403 0.0
C2205 C 0.77037 0.25686 0.48734 0.0
C2206 C 0.77193 0.25498 0.49701 0.0
C2207 C 0.76441 0.25527 0.50357 0.0
C2208 C 0.75525 0.25736 0.50011 0.0
C2209 C 0.75374 0.25944 0.4905 0.0
H2210 H 0.28362 0.25343 0.47253 0.0
N2211 N 0.26512 0.25351 0.47616 0.0
H2212 H 0.29192 0.24316 0.46152 0.0
H2213 H 0.25755 0.23773 0.46749 0.0
H2214 H 0.2658 0.22725 0.45677 0.0
H2215 H 0.24637 0.24936 0.4724 0.0
H2216 H 0.23603 0.25793 0.46132 0.0
H2217 H 0.26891 0.2698 0.46738 0.0
H2218 H 0.25866 0.27843 0.45631 0.0
H2219 H 0.27005 0.26429 0.49077 0.0
H2220 H 0.2549 0.23849 0.48368 0.0
H2221 H 0.26637 0.26174 0.50756 0.0
H2222 H 0.25149 0.23567 0.50041 0.0
H2223 H 0.26569 0.24804 0.55491 0.0
H2224 H 0.27572 0.23904 0.5657 0.0
H2225 H 0.26086 0.21324 0.55759 0.0
H2226 H 0.25052 0.22245 0.54707 0.0
H2227 H 0.23472 0.23861 0.55513 0.0
H2228 H 0.22767 0.24972 0.5662 0.0
H2229 H 0.2484 0.27111 0.55787 0.0
H2230 H 0.25545 0.25991 0.5469 0.0
H2231 H 0.26663 0.2493 0.53762 0.0
H2232 H 0.27016 0.2521 0.5209 0.0
H2233 H 0.24226 0.24113 0.51326 0.0
N2234 N 0.25029 0.24118 0.54486 0.0
H2235 H 0.23897 0.23802 0.53004 0.0
C2236 C 0.27001 0.24636 0.4709 0.0
C2237 C 0.27976 0.2476 0.46925 0.0
C2238 C 0.28448 0.2417 0.46297 0.0
C2239 C 0.27952 0.2344 0.45819 0.0
C2240 C 0.26982 0.23289 0.4602 0.0
C2241 C 0.2651 0.23883 0.46646 0.0
C2242 C 0.25844 0.25896 0.47069 0.0
C2243 C 0.24906 0.25575 0.469 0.0
C2244 C 0.24317 0.26063 0.46263 0.0
C2245 C 0.24653 0.26884 0.45791 0.0
C2246 C 0.2558 0.2722 0.45991 0.0
C2247 C 0.26168 0.26729 0.46621 0.0
C2248 C 0.26285 0.25158 0.48596 0.0
C2249 C 0.266 0.25803 0.49286 0.0
C2250 C 0.26393 0.25652 0.50246 0.0
C2251 C 0.25866 0.24846 0.5054 0.0
C2252 C 0.25546 0.24201 0.49843 0.0
C2253 C 0.25749 0.24357 0.48882 0.0
C2254 C 0.25725 0.23591 0.55023 0.0
C2255 C 0.26462 0.24044 0.55536 0.0
C2256 C 0.27043 0.23525 0.56152 0.0
C2257 C 0.26907 0.2254 0.56262 0.0
C2258 C 0.262 0.22083 0.55709 0.0
C2259 C 0.25614 0.22606 0.551 0.0
C2260 C 0.24557 0.2484 0.55019 0.0
C2261 C 0.2376 0.24577 0.55557 0.0
C2262 C 0.23359 0.25213 0.56187 0.0
C2263 C 0.2375 0.2613 0.56296 0.0
C2264 C 0.24529 0.26407 0.55729 0.0
C2265 C 0.24929 0.25768 0.55095 0.0
C2266 C 0.25253 0.24335 0.53509 0.0
C2267 C 0.26128 0.24747 0.53237 0.0
C2268 C 0.26326 0.24914 0.52276 0.0
C2269 C 0.25652 0.24681 0.51566 0.0
C2270 C 0.24771 0.24285 0.51847 0.0
C2271 C 0.24577 0.24114 0.52806 0.0
H2272 H 0.77077 0.45974 0.78101 0.0
N2273 N 0.76797 0.47044 0.7657 0.0
H2274 H 0.7594 0.44889 0.78868 0.0
H2275 H 0.74895 0.46883 0.7615 0.0
H2276 H 0.73747 0.45811 0.7692 0.0
H2277 H 0.76 0.46147 0.75027 0.0
H2278 H 0.76796 0.45055 0.73975 0.0
H2279 H 0.78652 0.46721 0.76483 0.0
H2280 H 0.79458 0.4562 0.75432 0.0
H2281 H 0.77116 0.48459 0.77763 0.0
H2282 H 0.76006 0.47853 0.74969 0.0
H2283 H 0.76764 0.50136 0.77536 0.0
H2284 H 0.75692 0.49529 0.74716 0.0
H2285 H 0.75678 0.54149 0.77375 0.0
H2286 H 0.74821 0.55245 0.78385 0.0
H2287 H 0.72952 0.55914 0.76033 0.0
H2288 H 0.73833 0.54838 0.75024 0.0
H2289 H 0.75562 0.54402 0.73633 0.0
H2290 H 0.76624 0.55606 0.72932 0.0
H2291 H 0.7799 0.55997 0.75663 0.0
H2292 H 0.76909 0.54826 0.76359 0.0
H2293 H 0.7691 0.53193 0.7648 0.0
H2294 H 0.77248 0.51524 0.76719 0.0
H2295 H 0.74685 0.50768 0.75165 0.0
N2296 N 0.75413 0.53931 0.75457 0.0
H2297 H 0.74378 0.52449 0.74893 0.0
C2298 C 0.76074 0.46509 0.77072 0.0
C2299 C 0.76347 0.45952 0.77852 0.0
C2300 C 0.75694 0.45335 0.7829 0.0
C2301 C 0.74752 0.4526 0.77953 0.0
C2302 C 0.7447 0.45843 0.77189 0.0
C2303 C 0.75124 0.46462 0.76752 0.0
C2304 C 0.77268 0.46518 0.75839 0.0
C2305 C 0.76757 0.46053 0.75111 0.0
C2306 C 0.77213 0.45421 0.74513 0.0
C2307 C 0.78189 0.45242 0.74626 0.0
C2308 C 0.78707 0.45746 0.75321 0.0
C2309 C 0.78249 0.46375 0.75922 0.0
C2310 C 0.76599 0.48029 0.76384 0.0
C2311 C 0.76806 0.48691 0.77096 0.0
C2312 C 0.76609 0.49651 0.76961 0.0
C2313 C 0.76203 0.49976 0.76104 0.0
C2314 C 0.75993 0.49308 0.7539 0.0
C2315 C 0.76183 0.48345 0.7553 0.0
C2316 C 0.74821 0.54417 0.7612 0.0
C2317 C 0.75074 0.54518 0.77082 0.0
C2318 C 0.74581 0.55144 0.7766 0.0
C2319 C 0.73826 0.55679 0.77286 0.0
C2320 C 0.73542 0.55529 0.76339 0.0
C2321 C 0.74035 0.54907 0.75764 0.0
C2322 C 0.76155 0.54517 0.75044 0.0
C2323 C 0.76105 0.54735 0.74073 0.0
C2324 C 0.76714 0.55422 0.73674 0.0
C2325 C 0.77388 0.55906 0.74243 0.0
C2326 C 0.77469 0.55651 0.75207 0.0
C2327 C 0.76857 0.54968 0.75605 0.0
C2328 C 0.7562 0.5295 0.75656 0.0
C2329 C 0.76422 0.52673 0.76186 0.0
C2330 C 0.76611 0.51711 0.7633 0.0
C2331 C 0.75997 0.51003 0.75958 0.0
C2332 C 0.75186 0.51287 0.75446 0.0
C2333 C 0.75003 0.52248 0.75296 0.0
H2334 H 0.25717 0.54941 0.76195 0.0
N2335 N 0.26481 0.54102 0.74632 0.0
H2336 H 0.26551 0.55981 0.7731 0.0
H2337 H 0.2834 0.54473 0.74719 0.0
H2338 H 0.29188 0.55511 0.75843 0.0
H2339 H 0.26757 0.55271 0.73175 0.0
H2340 H 0.2562 0.56355 0.72454 0.0
H2341 H 0.24573 0.54157 0.75021 0.0
H2342 H 0.23417 0.55215 0.74284 0.0
H2343 H 0.25715 0.53246 0.76223 0.0
H2344 H 0.26795 0.52706 0.73427 0.0
H2345 H 0.25489 0.51554 0.76494 0.0
H2346 H 0.26523 0.51005 0.7367 0.0
H2347 H 0.25724 0.46725 0.7774 0.0
H2348 H 0.26861 0.4564 0.78472 0.0
H2349 H 0.28238 0.45334 0.75761 0.0
H2350 H 0.27083 0.46385 0.75035 0.0
H2351 H 0.25757 0.46734 0.74022 0.0
H2352 H 0.24893 0.45497 0.73139 0.0
H2353 H 0.23075 0.45005 0.75562 0.0
H2354 H 0.23969 0.46213 0.76445 0.0
H2355 H 0.24414 0.48517 0.76454 0.0
H2356 H 0.24575 0.50212 0.7611 0.0
H2357 H 0.27105 0.49677 0.74483 0.0
N2358 N 0.25532 0.47134 0.75905 0.0
H2359 H 0.26904 0.47985 0.74789 0.0
C2360 C 0.2697 0.54624 0.75372 0.0
C2361 C 0.26477 0.55046 0.76121 0.0
C2362 C 0.26956 0.55641 0.76761 0.0
C2363 C 0.27936 0.55833 0.76663 0.0
C2364 C 0.28431 0.55387 0.75931 0.0
C2365 C 0.27951 0.54788 0.75294 0.0
C2366 C 0.25752 0.5463 0.74145 0.0
C2367 C 0.26024 0.55246 0.73407 0.0
C2368 C 0.2537 0.55863 0.72995 0.0
C2369 C 0.24423 0.55876 0.7331 0.0
C2370 C 0.24143 0.55235 0.74031 0.0
C2371 C 0.24801 0.5462 0.74448 0.0
C2372 C 0.26288 0.53106 0.74806 0.0
C2373 C 0.259 0.52766 0.75663 0.0
C2374 C 0.2576 0.51791 0.75813 0.0
C2375 C 0.2599 0.51133 0.75106 0.0
C2376 C 0.26356 0.51482 0.7424 0.0
C2377 C 0.26505 0.52456 0.74096 0.0
C2378 C 0.26319 0.46644 0.76337 0.0
C2379 C 0.26287 0.4644 0.77311 0.0
C2380 C 0.26938 0.4582 0.77728 0.0
C2381 C 0.27638 0.45391 0.77174 0.0
C2382 C 0.277 0.45638 0.76206 0.0
C2383 C 0.27045 0.46253 0.7579 0.0
C2384 C 0.24931 0.46556 0.75304 0.0
C2385 C 0.25165 0.46367 0.74356 0.0
C2386 C 0.24667 0.45662 0.73851 0.0
C2387 C 0.23925 0.45138 0.74286 0.0
C2388 C 0.23656 0.45376 0.75213 0.0
C2389 C 0.24157 0.46074 0.75716 0.0
C2390 C 0.2565 0.48123 0.75661 0.0
C2391 C 0.25 0.48768 0.76019 0.0
C2392 C 0.25099 0.49739 0.75827 0.0
C2393 C 0.2586 0.50091 0.75276 0.0
C2394 C 0.26504 0.49437 0.74902 0.0
C2395 C 0.26396 0.48463 0.75086 0.0
H2396 H 0.27343 0.54853 0.27756 0.0
N2397 N 0.25751 0.53883 0.27397 0.0
H2398 H 0.28217 0.55915 0.26679 0.0
H2399 H 0.25392 0.54118 0.25496 0.0
H2400 H 0.26262 0.55178 0.2441 0.0
H2401 H 0.2421 0.54729 0.2656 0.0
H2402 H 0.23137 0.55828 0.27312 0.0
H2403 H 0.25656 0.54289 0.29232 0.0
H2404 H 0.24599 0.55412 0.29989 0.0
H2405 H 0.26895 0.52467 0.27827 0.0
H2406 H 0.24204 0.53068 0.26489 0.0
H2407 H 0.26675 0.50785 0.27472 0.0
H2408 H 0.23954 0.51388 0.2617 0.0
H2409 H 0.2658 0.46741 0.2639 0.0
H2410 H 0.27669 0.45689 0.25577 0.0
H2411 H 0.25499 0.45103 0.23461 0.0
H2412 H 0.24407 0.46127 0.24302 0.0
H2413 H 0.22864 0.46491 0.25922 0.0
H2414 H 0.22065 0.45284 0.26903 0.0
H2415 H 0.24663 0.44913 0.28513 0.0
H2416 H 0.25458 0.4609 0.27512 0.0
H2417 H 0.2559 0.47729 0.27527 0.0
H2418 H 0.25808 0.49403 0.27887 0.0
H2419 H 0.24468 0.50137 0.25213 0.0
N2420 N 0.24696 0.4698 0.2595 0.0
H2421 H 0.24213 0.48453 0.24883 0.0
C2422 C 0.26305 0.54409 0.26709 0.0
C2423 C 0.27115 0.5491 0.27022 0.0
C2424 C 0.27614 0.55514 0.26404 0.0
C2425 C 0.27308 0.55633 0.25459 0.0
C2426 C 0.26509 0.55109 0.25137 0.0
C2427 C 0.26014 0.54499 0.25756 0.0
C2428 C 0.25014 0.54419 0.27843 0.0
C2429 C 0.24287 0.54853 0.27313 0.0
C2430 C 0.23678 0.55493 0.27743 0.0
C2431 C 0.23786 0.55718 0.2871 0.0
C2432 C 0.24487 0.5525 0.29246 0.0
C2433 C 0.25093 0.54608 0.28815 0.0
C2434 C 0.25567 0.52895 0.27196 0.0
C2435 C 0.26251 0.52233 0.27466 0.0
C2436 C 0.2612 0.5127 0.27267 0.0
C2437 C 0.25293 0.50943 0.26795 0.0
C2438 C 0.24605 0.51611 0.26523 0.0
C2439 C 0.24743 0.52577 0.26715 0.0
C2440 C 0.25408 0.46505 0.25408 0.0
C2441 C 0.26343 0.46395 0.25745 0.0
C2442 C 0.26967 0.45796 0.25276 0.0
C2443 C 0.26668 0.45299 0.2446 0.0
C2444 C 0.25748 0.45456 0.24099 0.0
C2445 C 0.25126 0.46049 0.2457 0.0
C2446 C 0.24217 0.46388 0.26643 0.0
C2447 C 0.23253 0.46162 0.265 0.0
C2448 C 0.22798 0.45473 0.27063 0.0
C2449 C 0.23301 0.44994 0.27784 0.0
C2450 C 0.24257 0.45255 0.27955 0.0
C2451 C 0.24712 0.45941 0.27388 0.0
C2452 C 0.24873 0.47963 0.26179 0.0
C2453 C 0.25337 0.48246 0.2702 0.0
C2454 C 0.25469 0.4921 0.27221 0.0
C2455 C 0.25153 0.49913 0.26582 0.0
C2456 C 0.24704 0.49622 0.25733 0.0
C2457 C 0.24565 0.48659 0.25538 0.0
H2458 H 0.79129 0.46193 0.25041 0.0
N2459 N 0.77523 0.47077 0.25392 0.0
H2460 H 0.8002 0.45164 0.26121 0.0
H2461 H 0.77185 0.46838 0.27284 0.0
H2462 H 0.78067 0.45799 0.28375 0.0
H2463 H 0.75877 0.46475 0.26238 0.0
H2464 H 0.74705 0.45362 0.25577 0.0
H2465 H 0.77446 0.46434 0.23625 0.0
H2466 H 0.7629 0.453 0.22961 0.0
H2467 H 0.78791 0.48306 0.24708 0.0
H2468 H 0.76149 0.48138 0.2623 0.0
H2469 H 0.78755 0.50032 0.24753 0.0
H2470 H 0.76071 0.49869 0.26232 0.0
H2471 H 0.79219 0.54871 0.25411 0.0
H2472 H 0.79938 0.55969 0.26557 0.0
H2473 H 0.77402 0.5575 0.28268 0.0
H2474 H 0.76685 0.54678 0.27105 0.0
H2475 H 0.75571 0.54367 0.25835 0.0
H2476 H 0.74468 0.55483 0.25088 0.0
H2477 H 0.76628 0.56267 0.23045 0.0
H2478 H 0.7773 0.55182 0.23824 0.0
H2479 H 0.78028 0.53038 0.24058 0.0
H2480 H 0.7799 0.5131 0.24059 0.0
H2481 H 0.767 0.51306 0.26839 0.0
N2482 N 0.77447 0.54188 0.25404 0.0
H2483 H 0.76692 0.53038 0.26799 0.0
C2484 C 0.78093 0.46584 0.26082 0.0
C2485 C 0.78906 0.46123 0.25774 0.0
C2486 C 0.79414 0.45538 0.26392 0.0
C2487 C 0.79112 0.45397 0.27333 0.0
C2488 C 0.78311 0.45886 0.27651 0.0
C2489 C 0.77808 0.46481 0.27031 0.0
C2490 C 0.76747 0.46542 0.24976 0.0
C2491 C 0.7596 0.46241 0.25515 0.0
C2492 C 0.75295 0.45595 0.25139 0.0
C2493 C 0.75406 0.45233 0.24218 0.0
C2494 C 0.76174 0.4557 0.23668 0.0
C2495 C 0.76837 0.46217 0.24045 0.0
C2496 C 0.7747 0.48094 0.25451 0.0
C2497 C 0.78198 0.48646 0.25045 0.0
C2498 C 0.78169 0.49634 0.25064 0.0
C2499 C 0.774 0.50099 0.25481 0.0
C2500 C 0.76677 0.49541 0.25908 0.0
C2501 C 0.76715 0.48547 0.259 0.0
C2502 C 0.77904 0.54688 0.26174 0.0
C2503 C 0.7883 0.55045 0.26046 0.0
C2504 C 0.79239 0.55671 0.26703 0.0
C2505 C 0.78726 0.55955 0.27503 0.0
C2506 C 0.77812 0.55559 0.27653 0.0
C2507 C 0.77404 0.54935 0.26993 0.0
C2508 C 0.76734 0.54703 0.24887 0.0
C2509 C 0.758 0.54774 0.25221 0.0
C2510 C 0.75169 0.55409 0.24789 0.0
C2511 C 0.75464 0.55978 0.24015 0.0
C2512 C 0.76384 0.55859 0.23653 0.0
C2513 C 0.77012 0.55232 0.24088 0.0
C2514 C 0.77378 0.53168 0.25431 0.0
C2515 C 0.77732 0.52662 0.24664 0.0
C2516 C 0.77718 0.51672 0.24672 0.0
C2517 C 0.77358 0.51159 0.25458 0.0
C2518 C 0.76979 0.51671 0.26219 0.0
C2519 C 0.76982 0.52666 0.26202 0.0
H2520 H 0.55868 0.28077 0.74339 0.0
N2521 N 0.54647 0.26644 0.74558 0.0
H2522 H 0.56912 0.28788 0.7554 0.0
H2523 H 0.54627 0.26228 0.76456 0.0
H2524 H 0.55651 0.26953 0.77678 0.0
H2525 H 0.55418 0.25052 0.75345 0.0
H2526 H 0.56513 0.23988 0.74565 0.0
H2527 H 0.54992 0.26559 0.72709 0.0
H2528 H 0.56045 0.25468 0.71905 0.0
H2529 H 0.53437 0.27998 0.74124 0.0
H2530 H 0.53566 0.25143 0.75211 0.0
H2531 H 0.51706 0.27942 0.74218 0.0
H2532 H 0.51823 0.25057 0.75268 0.0
H2533 H 0.46857 0.28249 0.74673 0.0
H2534 H 0.45789 0.28984 0.75806 0.0
H2535 H 0.46019 0.26529 0.77643 0.0
H2536 H 0.47066 0.25795 0.76494 0.0
H2537 H 0.47212 0.24648 0.75227 0.0
H2538 H 0.46041 0.2357 0.74485 0.0
H2539 H 0.45437 0.25713 0.72365 0.0
H2540 H 0.46583 0.26789 0.73132 0.0
H2541 H 0.48663 0.27277 0.73462 0.0
H2542 H 0.50398 0.27258 0.73425 0.0
H2543 H 0.50416 0.25605 0.76025 0.0
N2544 N 0.47521 0.26499 0.74745 0.0
H2545 H 0.48671 0.25592 0.76022 0.0
C2546 C 0.55171 0.27107 0.75309 0.0
C2547 C 0.5581 0.2784 0.7507 0.0
C2548 C 0.56402 0.28247 0.7576 0.0
C2549 C 0.56366 0.2793 0.76709 0.0
C2550 C 0.55706 0.27207 0.76952 0.0
C2551 C 0.55114 0.26798 0.76258 0.0
C2552 C 0.55136 0.25895 0.74085 0.0
C2553 C 0.55543 0.25139 0.74592 0.0
C2554 C 0.56166 0.24527 0.74141 0.0
C2555 C 0.56385 0.2465 0.73173 0.0
C2556 C 0.55917 0.25366 0.72656 0.0
C2557 C 0.55305 0.25984 0.7311 0.0
C2558 C 0.53628 0.26574 0.74646 0.0
C2559 C 0.53087 0.27356 0.74377 0.0
C2560 C 0.52096 0.27317 0.74424 0.0
C2561 C 0.51617 0.26488 0.74735 0.0
C2562 C 0.52164 0.25708 0.75028 0.0
C2563 C 0.53162 0.25753 0.74989 0.0
C2564 C 0.47043 0.26973 0.75501 0.0
C2565 C 0.46693 0.27883 0.75332 0.0
C2566 C 0.46084 0.283 0.75981 0.0
C2567 C 0.45811 0.27813 0.76814 0.0
C2568 C 0.46203 0.26918 0.77003 0.0
C2569 C 0.46811 0.26501 0.76351 0.0
C2570 C 0.46973 0.25799 0.74235 0.0
C2571 C 0.46835 0.24877 0.74596 0.0
C2572 C 0.46169 0.24261 0.74168 0.0
C2573 C 0.45634 0.24561 0.73374 0.0
C2574 C 0.4582 0.25467 0.72987 0.0
C2575 C 0.46481 0.26079 0.73416 0.0
C2576 C 0.48542 0.2645 0.74748 0.0
C2577 C 0.49044 0.26909 0.7402 0.0
C2578 C 0.50037 0.26902 0.74007 0.0
C2579 C 0.50554 0.26444 0.74732 0.0
C2580 C 0.50044 0.25963 0.75453 0.0
C2581 C 0.49046 0.25962 0.75459 0.0
H2582 H 0.46462 0.73339 0.7429 0.0
N2583 N 0.4753 0.7483 0.74761 0.0
H2584 H 0.45415 0.72394 0.75316 0.0
H2585 H 0.47415 0.74973 0.76696 0.0
H2586 H 0.46386 0.74017 0.77739 0.0
H2587 H 0.46608 0.76221 0.75721 0.0
H2588 H 0.45473 0.77333 0.75042 0.0
H2589 H 0.47177 0.75148 0.7293 0.0
H2590 H 0.46037 0.76259 0.72242 0.0
H2591 H 0.48959 0.73712 0.74335 0.0
H2592 H 0.4834 0.76353 0.75694 0.0
H2593 H 0.50651 0.73954 0.74676 0.0
H2594 H 0.5003 0.7663 0.75993 0.0
H2595 H 0.54689 0.74113 0.75775 0.0
H2596 H 0.55771 0.73066 0.76637 0.0
H2597 H 0.56488 0.75349 0.78557 0.0
H2598 H 0.55433 0.76396 0.77666 0.0
H2599 H 0.54965 0.77842 0.75939 0.0
H2600 H 0.56127 0.78577 0.74864 0.0
H2601 H 0.56462 0.75886 0.73472 0.0
H2602 H 0.55335 0.75156 0.74567 0.0
H2603 H 0.53685 0.75098 0.74538 0.0
H2604 H 0.51998 0.7484 0.74231 0.0
H2605 H 0.51346 0.76161 0.76904 0.0
N2606 N 0.54487 0.76015 0.76076 0.0
H2607 H 0.53043 0.76462 0.77177 0.0
C2608 C 0.47018 0.7422 0.75414 0.0
C2609 C 0.46459 0.73478 0.75045 0.0
C2610 C 0.45864 0.72938 0.75635 0.0
C2611 C 0.45815 0.73129 0.76613 0.0
C2612 C 0.46397 0.73858 0.76988 0.0
C2613 C 0.46993 0.744 0.76394 0.0
C2614 C 0.46978 0.75597 0.74373 0.0
C2615 C 0.46502 0.76235 0.74959 0.0
C2616 C 0.45847 0.76867 0.74571 0.0
C2617 C 0.45656 0.76878 0.73589 0.0
C2618 C 0.46171 0.76274 0.73 0.0
C2619 C 0.46823 0.75639 0.7339 0.0
C2620 C 0.48522 0.75015 0.74976 0.0
C2621 C 0.49191 0.74349 0.74699 0.0
C2622 C 0.5016 0.74494 0.74889 0.0
C2623 C 0.50487 0.75317 0.75356 0.0
C2624 C 0.4981 0.75982 0.75642 0.0
C2625 C 0.48838 0.75829 0.75461 0.0
C2626 C 0.54987 0.75336 0.76654 0.0
C2627 C 0.55071 0.74384 0.76387 0.0
C2628 C 0.55688 0.73784 0.76885 0.0
C2629 C 0.56229 0.74126 0.7766 0.0
C2630 C 0.56101 0.75067 0.77952 0.0
C2631 C 0.5549 0.75664 0.77452 0.0
C2632 C 0.55054 0.76448 0.75334 0.0
C2633 C 0.55277 0.77418 0.75389 0.0
C2634 C 0.55941 0.77836 0.74772 0.0
C2635 C 0.56397 0.7729 0.74084 0.0
C2636 C 0.56139 0.76325 0.74003 0.0
C2637 C 0.55481 0.75907 0.74624 0.0
C2638 C 0.53495 0.75815 0.75878 0.0
C2639 C 0.53184 0.7534 0.75056 0.0
C2640 C 0.52211 0.75183 0.74886 0.0
C2641 C 0.51526 0.75481 0.7554 0.0
C2642 C 0.51845 0.75938 0.76372 0.0
C2643 C 0.52816 0.76105 0.76535 0.0
H2644 H 0.55344 0.77239 0.25144 0.0
N2645 N 0.544 0.75622 0.25446 0.0
H2646 H 0.56432 0.78065 0.26236 0.0
H2647 H 0.54665 0.75197 0.27339 0.0
H2648 H 0.55733 0.76022 0.28434 0.0
H2649 H 0.55352 0.74105 0.26194 0.0
H2650 H 0.56498 0.73143 0.25365 0.0
H2651 H 0.54702 0.75587 0.23589 0.0
H2652 H 0.55816 0.74595 0.22737 0.0
H2653 H 0.52921 0.76541 0.24744 0.0
H2654 H 0.53654 0.74173 0.26536 0.0
H2655 H 0.51234 0.76215 0.25018 0.0
H2656 H 0.51981 0.73886 0.26882 0.0
H2657 H 0.46554 0.7583 0.26161 0.0
H2658 H 0.45487 0.76867 0.27 0.0
H2659 H 0.46258 0.75513 0.29654 0.0
H2660 H 0.47294 0.74443 0.28794 0.0
H2661 H 0.46486 0.72774 0.2731 0.0
H2662 H 0.45336 0.71961 0.26275 0.0
H2663 H 0.46043 0.73918 0.23999 0.0
H2664 H 0.47215 0.74704 0.25036 0.0
H2665 H 0.48351 0.76043 0.26433 0.0
H2666 H 0.50017 0.7633 0.26084 0.0
H2667 H 0.50535 0.73324 0.26347 0.0
N2668 N 0.47509 0.74323 0.26922 0.0
H2669 H 0.48874 0.73056 0.2677 0.0
C2670 C 0.5492 0.76159 0.26154 0.0
C2671 C 0.55414 0.76982 0.25867 0.0
C2672 C 0.56033 0.77453 0.26493 0.0
C2673 C 0.56175 0.77105 0.27421 0.0
C2674 C 0.55651 0.763 0.2772 0.0
C2675 C 0.55031 0.75831 0.27093 0.0
C2676 C 0.54948 0.74929 0.24953 0.0
C2677 C 0.55438 0.74209 0.25438 0.0
C2678 C 0.56093 0.73653 0.24959 0.0
C2679 C 0.56264 0.73798 0.23984 0.0
C2680 C 0.55724 0.74478 0.23492 0.0
C2681 C 0.55077 0.75039 0.23974 0.0
C2682 C 0.53414 0.75394 0.25629 0.0
C2683 C 0.52715 0.75957 0.25208 0.0
C2684 C 0.5175 0.75774 0.25374 0.0
C2685 C 0.51459 0.75028 0.25983 0.0
C2686 C 0.52167 0.74459 0.26399 0.0
C2687 C 0.53132 0.74632 0.26215 0.0
C2688 C 0.46998 0.75049 0.27415 0.0
C2689 C 0.465 0.75759 0.26923 0.0
C2690 C 0.45894 0.7636 0.27408 0.0
C2691 C 0.45775 0.7627 0.28397 0.0
C2692 C 0.46314 0.7559 0.28891 0.0
C2693 C 0.46915 0.74985 0.28404 0.0
C2694 C 0.46931 0.73798 0.26253 0.0
C2695 C 0.46403 0.73014 0.26582 0.0
C2696 C 0.4574 0.72559 0.25993 0.0
C2697 C 0.45585 0.72883 0.25058 0.0
C2698 C 0.46146 0.73646 0.24713 0.0
C2699 C 0.46814 0.74099 0.25305 0.0
C2700 C 0.48482 0.74524 0.26644 0.0
C2701 C 0.48819 0.75444 0.26423 0.0
C2702 C 0.4978 0.75606 0.26211 0.0
C2703 C 0.50426 0.74852 0.26189 0.0
C2704 C 0.50075 0.7393 0.26379 0.0
C2705 C 0.4912 0.73772 0.26611 0.0
H2706 H 0.55527 0.2714 0.28727 0.0
N2707 N 0.54524 0.26924 0.27138 0.0
H2708 H 0.56588 0.25995 0.29474 0.0
H2709 H 0.54661 0.25056 0.26663 0.0
H2710 H 0.55685 0.23893 0.27424 0.0
H2711 H 0.54963 0.26231 0.25398 0.0
H2712 H 0.56129 0.26921 0.24297 0.0
H2713 H 0.55299 0.28648 0.27222 0.0
H2714 H 0.56443 0.29362 0.26116 0.0
H2715 H 0.53402 0.28044 0.28106 0.0
H2716 H 0.53345 0.25803 0.26052 0.0
H2717 H 0.51668 0.28073 0.28091 0.0
H2718 H 0.51606 0.25774 0.26075 0.0
H2719 H 0.46278 0.27182 0.28753 0.0
H2720 H 0.45262 0.25949 0.29463 0.0
H2721 H 0.46332 0.23921 0.27469 0.0
H2722 H 0.47348 0.25168 0.26763 0.0
H2723 H 0.46787 0.26276 0.25561 0.0
H2724 H 0.45698 0.26997 0.24421 0.0
H2725 H 0.45657 0.29532 0.26122 0.0
H2726 H 0.46771 0.28809 0.27246 0.0
H2727 H 0.4861 0.27331 0.28655 0.0
H2728 H 0.50339 0.2725 0.28622 0.0
H2729 H 0.50201 0.26539 0.25641 0.0
N2730 N 0.47385 0.27039 0.27248 0.0
H2731 H 0.48469 0.26563 0.25703 0.0
C2732 C 0.5501 0.26184 0.27647 0.0
C2733 C 0.55546 0.26425 0.28454 0.0
C2734 C 0.5615 0.25768 0.2888 0.0
C2735 C 0.56229 0.24849 0.28508 0.0
C2736 C 0.55656 0.24597 0.27721 0.0
C2737 C 0.55058 0.2526 0.27291 0.0
C2738 C 0.55052 0.27389 0.26394 0.0
C2739 C 0.5527 0.26922 0.25548 0.0
C2740 C 0.55936 0.2732 0.24919 0.0
C2741 C 0.56392 0.28192 0.25125 0.0
C2742 C 0.56122 0.28681 0.25944 0.0
C2743 C 0.55461 0.28281 0.26572 0.0
C2744 C 0.53501 0.26913 0.27096 0.0
C2745 C 0.5301 0.2755 0.27661 0.0
C2746 C 0.52017 0.27556 0.27656 0.0
C2747 C 0.51486 0.26914 0.27094 0.0
C2748 C 0.51985 0.26283 0.26514 0.0
C2749 C 0.52983 0.26289 0.26509 0.0
C2750 C 0.46884 0.26267 0.27708 0.0
C2751 C 0.46303 0.26467 0.28481 0.0
C2752 C 0.45726 0.25761 0.28887 0.0
C2753 C 0.45714 0.24836 0.28522 0.0
C2754 C 0.46318 0.24629 0.2776 0.0
C2755 C 0.46901 0.25338 0.27358 0.0
C2756 C 0.46866 0.27493 0.26488 0.0
C2757 C 0.46563 0.26994 0.25678 0.0
C2758 C 0.4593 0.27405 0.2503 0.0
C2759 C 0.45579 0.2832 0.25183 0.0
C2760 C 0.45918 0.28831 0.25974 0.0
C2761 C 0.46554 0.2842 0.26619 0.0
C2762 C 0.48406 0.26969 0.27183 0.0
C2763 C 0.48955 0.27154 0.27997 0.0
C2764 C 0.49946 0.27116 0.27971 0.0
C2765 C 0.50421 0.26904 0.27123 0.0
C2766 C 0.49867 0.26699 0.2631 0.0
C2767 C 0.4887 0.26722 0.26341 0.0
C2768 C 0.21405 0.19102 0.12237 0.0
C2769 C 0.20953 0.19572 0.12982 0.0
C2770 C 0.2175 0.19607 0.1145 0.0
C2771 C 0.2253 0.22011 0.10703 0.0
H2772 H 0.22415 0.20923 0.08184 0.0
C2773 C 0.2402 0.24007 0.07419 0.0
C2774 C 0.24594 0.23471 0.06819 0.0
C2775 C 0.23469 0.23562 0.08122 0.0
C2776 C 0.22457 0.21235 0.08884 0.0
H2777 H 0.20502 0.20944 0.13474 0.0
H2778 H 0.21089 0.21824 0.12092 0.0
H2779 H 0.21647 0.20095 0.09506 0.0
H2780 H 0.25006 0.22046 0.0646 0.0
H2781 H 0.24052 0.2127 0.07689 0.0
H2782 H 0.23349 0.23146 0.10082 0.0
C2783 C 0.21186 0.21064 0.12123 0.0
C2784 C 0.22018 0.20759 0.09643 0.0
C2785 C 0.2084 0.20558 0.12911 0.0
C2786 C 0.24579 0.22479 0.06917 0.0
C2787 C 0.24024 0.22034 0.07616 0.0
C2788 C 0.22967 0.22488 0.09944 0.0
C2789 C 0.21652 0.20596 0.11385 0.0
C2790 C 0.2206 0.21135 0.10565 0.0
C2791 C 0.23475 0.22571 0.08237 0.0
C2792 C 0.22947 0.22099 0.09028 0.0
H2793 H 0.21493 0.18341 0.1226 0.0
H2794 H 0.22114 0.19223 0.10902 0.0
H2795 H 0.22589 0.22316 0.11405 0.0
H2796 H 0.24022 0.24773 0.07367 0.0
H2797 H 0.23046 0.23995 0.08582 0.0
C2798 C 0.80894 0.2026 0.13287 0.0
C2799 C 0.80923 0.19264 0.13277 0.0
C2800 C 0.80572 0.20765 0.12492 0.0
C2801 C 0.79116 0.20493 0.10311 0.0
H2802 H 0.80352 0.22864 0.09584 0.0
C2803 C 0.77439 0.23113 0.07635 0.0
C2804 C 0.78043 0.23599 0.06998 0.0
C2805 C 0.77813 0.22543 0.08358 0.0
C2806 C 0.80004 0.22198 0.0977 0.0
H2807 H 0.80654 0.18021 0.12414 0.0
H2808 H 0.80092 0.18901 0.11028 0.0
H2809 H 0.80977 0.21952 0.10919 0.0
H2810 H 0.79516 0.23841 0.06606 0.0
H2811 H 0.80171 0.22844 0.07867 0.0
H2812 H 0.78149 0.20735 0.09156 0.0
C2813 C 0.80305 0.19291 0.11656 0.0
C2814 C 0.80356 0.21681 0.10544 0.0
C2815 C 0.80626 0.18786 0.12451 0.0
C2816 C 0.79031 0.23487 0.07092 0.0
C2817 C 0.79406 0.22917 0.07816 0.0
C2818 C 0.78764 0.21011 0.09538 0.0
C2819 C 0.80271 0.20287 0.11668 0.0
C2820 C 0.79913 0.20824 0.10828 0.0
C2821 C 0.78802 0.22445 0.08463 0.0
C2822 C 0.792 0.21873 0.09261 0.0
H2823 H 0.81103 0.2065 0.13916 0.0
H2824 H 0.80541 0.2153 0.12532 0.0
H2825 H 0.78752 0.19841 0.10515 0.0
H2826 H 0.76675 0.23196 0.07595 0.0
H2827 H 0.77328 0.22202 0.08852 0.0
C2828 C 0.81693 0.81828 0.12405 0.0
C2829 C 0.81058 0.82231 0.13048 0.0
C2830 C 0.81354 0.81329 0.11614 0.0
C2831 C 0.7922 0.81009 0.10082 0.0
H2832 H 0.80413 0.7866 0.09384 0.0
C2833 C 0.77524 0.78389 0.07393 0.0
C2834 C 0.78129 0.77902 0.06781 0.0
C2835 C 0.77899 0.78966 0.08112 0.0
C2836 C 0.8008 0.79322 0.09559 0.0
H2837 H 0.79565 0.82405 0.13369 0.0
H2838 H 0.78974 0.81538 0.11991 0.0
H2839 H 0.81034 0.7956 0.10728 0.0
H2840 H 0.79604 0.77671 0.06425 0.0
H2841 H 0.80258 0.78682 0.07675 0.0
H2842 H 0.78262 0.80768 0.08916 0.0
C2843 C 0.79736 0.81622 0.12089 0.0
C2844 C 0.80435 0.79838 0.10332 0.0
C2845 C 0.80075 0.8212 0.12881 0.0
C2846 C 0.79118 0.78025 0.06892 0.0
C2847 C 0.79493 0.78603 0.0761 0.0
C2848 C 0.78865 0.80493 0.09308 0.0
C2849 C 0.80371 0.81221 0.11445 0.0
C2850 C 0.80007 0.80685 0.10607 0.0
C2851 C 0.78888 0.79071 0.08238 0.0
C2852 C 0.79287 0.7964 0.0904 0.0
H2853 H 0.82455 0.81911 0.12504 0.0
H2854 H 0.81863 0.8104 0.11125 0.0
H2855 H 0.78882 0.81666 0.10264 0.0
H2856 H 0.76759 0.78299 0.07337 0.0
H2857 H 0.77411 0.79304 0.0859 0.0
C2858 C 0.22629 0.81522 0.13181 0.0
C2859 C 0.21645 0.8148 0.13355 0.0
C2860 C 0.23011 0.81077 0.12391 0.0
C2861 C 0.22531 0.79209 0.10619 0.0
H2862 H 0.245 0.80542 0.09201 0.0
C2863 C 0.24087 0.77719 0.07141 0.0
C2864 C 0.25078 0.77808 0.0703 0.0
C2865 C 0.23628 0.78188 0.07877 0.0
C2866 C 0.23958 0.80156 0.09593 0.0
H2867 H 0.20293 0.80926 0.1283 0.0
H2868 H 0.20962 0.80144 0.11452 0.0
H2869 H 0.2378 0.81301 0.1056 0.0
H2870 H 0.26363 0.78453 0.07617 0.0
H2871 H 0.25567 0.79266 0.08893 0.0
H2872 H 0.22717 0.78059 0.09657 0.0
C2873 C 0.21438 0.80518 0.11934 0.0
C2874 C 0.23544 0.80591 0.10373 0.0
C2875 C 0.21055 0.80965 0.12725 0.0
C2876 C 0.25597 0.78383 0.07668 0.0
C2877 C 0.25139 0.7885 0.08402 0.0
C2878 C 0.22946 0.78772 0.09839 0.0
C2879 C 0.2242 0.80575 0.11753 0.0
C2880 C 0.22832 0.8012 0.10902 0.0
C2881 C 0.24149 0.78756 0.0852 0.0
C2882 C 0.23672 0.79237 0.09321 0.0
H2883 H 0.23108 0.81893 0.13661 0.0
H2884 H 0.23772 0.81119 0.12284 0.0
H2885 H 0.21991 0.78823 0.11016 0.0
H2886 H 0.23665 0.7729 0.06658 0.0
H2887 H 0.22863 0.7811 0.07939 0.0
C2888 C 0.2116 0.79691 0.88618 0.0
C2889 C 0.21273 0.80681 0.88553 0.0
C2890 C 0.21504 0.79193 0.89409 0.0
C2891 C 0.23227 0.79398 0.91403 0.0
H2892 H 0.2174 0.77323 0.92487 0.0
C2893 C 0.24317 0.77579 0.94922 0.0
C2894 C 0.24243 0.76585 0.94958 0.0
C2895 C 0.23918 0.78086 0.94164 0.0
C2896 C 0.22168 0.77895 0.92188 0.0
H2897 H 0.21853 0.81922 0.89268 0.0
H2898 H 0.22431 0.81059 0.90653 0.0
H2899 H 0.21127 0.78186 0.91111 0.0
H2900 H 0.23689 0.75345 0.94225 0.0
H2901 H 0.22994 0.76228 0.92906 0.0
H2902 H 0.24269 0.79106 0.92476 0.0
C2903 C 0.22084 0.80664 0.90088 0.0
C2904 C 0.21817 0.78389 0.91398 0.0
C2905 C 0.21741 0.81161 0.89298 0.0
C2906 C 0.23745 0.76111 0.94228 0.0
C2907 C 0.23348 0.76618 0.9347 0.0
C2908 C 0.23577 0.78904 0.92192 0.0
C2909 C 0.21971 0.79674 0.90154 0.0
C2910 C 0.22343 0.79146 0.90995 0.0
C2911 C 0.23437 0.77611 0.93424 0.0
C2912 C 0.23053 0.78147 0.92595 0.0
H2913 H 0.20795 0.79299 0.88062 0.0
H2914 H 0.21414 0.7843 0.89431 0.0
H2915 H 0.23658 0.79966 0.91101 0.0
H2916 H 0.24685 0.77966 0.95479 0.0
H2917 H 0.23986 0.78852 0.9416 0.0
C2918 C 0.20008 0.21276 0.89049 0.0
C2919 C 0.1997 0.20288 0.88931 0.0
C2920 C 0.20508 0.21679 0.8981 0.0
C2921 C 0.22392 0.21224 0.91592 0.0
H2922 H 0.21247 0.23335 0.92876 0.0
C2923 C 0.24062 0.23 0.94951 0.0
C2924 C 0.24038 0.23996 0.94973 0.0
C2925 C 0.23565 0.22495 0.94245 0.0
C2926 C 0.21581 0.22752 0.92521 0.0
H2927 H 0.20438 0.18949 0.8952 0.0
H2928 H 0.21315 0.19654 0.90851 0.0
H2929 H 0.2039 0.22554 0.91586 0.0
H2930 H 0.23502 0.2524 0.94244 0.0
H2931 H 0.22638 0.24366 0.93027 0.0
H2932 H 0.23588 0.2143 0.92527 0.0
C2933 C 0.20962 0.20117 0.90348 0.0
C2934 C 0.2109 0.22304 0.9178 0.0
C2935 C 0.2046 0.19713 0.89585 0.0
C2936 C 0.23517 0.24473 0.94266 0.0
C2937 C 0.23021 0.23971 0.93565 0.0
C2938 C 0.22885 0.21673 0.92336 0.0
C2939 C 0.20985 0.21105 0.90474 0.0
C2940 C 0.21494 0.21543 0.91297 0.0
C2941 C 0.23033 0.22976 0.93548 0.0
C2942 C 0.22491 0.22452 0.928 0.0
H2943 H 0.19657 0.21743 0.88547 0.0
H2944 H 0.20527 0.22444 0.89873 0.0
H2945 H 0.22727 0.20644 0.91231 0.0
H2946 H 0.24452 0.22609 0.95487 0.0
H2947 H 0.23584 0.21728 0.94256 0.0
C2948 C 0.81827 0.19579 0.89674 0.0
C2949 C 0.82064 0.20168 0.88898 0.0
C2950 C 0.81325 0.19935 0.90444 0.0
C2951 C 0.80725 0.22195 0.91608 0.0
H2952 H 0.78734 0.20687 0.92809 0.0
C2953 C 0.78066 0.23794 0.9422 0.0
C2954 C 0.77811 0.2326 0.9503 0.0
C2955 C 0.78615 0.234 0.93506 0.0
C2956 C 0.79296 0.21112 0.92489 0.0
H2957 H 0.81933 0.21586 0.88312 0.0
H2958 H 0.81054 0.22204 0.89648 0.0
H2959 H 0.79621 0.20028 0.91492 0.0
H2960 H 0.77948 0.21891 0.95725 0.0
H2961 H 0.78903 0.212 0.94473 0.0
H2962 H 0.80394 0.23282 0.92598 0.0
C2963 C 0.81274 0.21472 0.89674 0.0
C2964 C 0.79805 0.20735 0.91734 0.0
C2965 C 0.81777 0.21117 0.88906 0.0
C2966 C 0.78122 0.2232 0.95107 0.0
C2967 C 0.78669 0.21923 0.94389 0.0
C2968 C 0.80216 0.22572 0.92361 0.0
C2969 C 0.81046 0.20888 0.90456 0.0
C2970 C 0.80521 0.21275 0.91279 0.0
C2971 C 0.78921 0.22459 0.9358 0.0
C2972 C 0.7949 0.22039 0.92806 0.0
H2973 H 0.82047 0.18847 0.89696 0.0
H2974 H 0.81171 0.19467 0.91039 0.0
H2975 H 0.81285 0.22624 0.91288 0.0
H2976 H 0.77823 0.24513 0.94125 0.0
H2977 H 0.78781 0.23827 0.92885 0.0
C2978 C 0.81554 0.81547 0.89328 0.0
C2979 C 0.80991 0.8178 0.88533 0.0
C2980 C 0.81147 0.81102 0.90124 0.0
C2981 C 0.78828 0.80735 0.91309 0.0
H2982 H 0.80129 0.7875 0.92694 0.0
C2983 C 0.77352 0.79235 0.94827 0.0
C2984 C 0.77359 0.78245 0.94946 0.0
C2985 C 0.77855 0.79673 0.94088 0.0
C2986 C 0.79754 0.79301 0.92313 0.0
H2987 H 0.79565 0.81691 0.87938 0.0
H2988 H 0.78859 0.80915 0.8932 0.0
H2989 H 0.80872 0.7947 0.91295 0.0
H2990 H 0.77919 0.76941 0.94387 0.0
H2991 H 0.78796 0.77706 0.93096 0.0
H2992 H 0.77701 0.80553 0.92308 0.0
C2993 C 0.79611 0.81095 0.89339 0.0
C2994 C 0.80184 0.7972 0.91516 0.0
C2995 C 0.80016 0.81539 0.88546 0.0
C2996 C 0.77907 0.77707 0.94324 0.0
C2997 C 0.7841 0.78145 0.93583 0.0
C2998 C 0.78399 0.80318 0.92104 0.0
C2999 C 0.80168 0.80879 0.90143 0.0
C3000 C 0.79723 0.80439 0.91001 0.0
C3001 C 0.78378 0.79133 0.93446 0.0
C3002 C 0.78855 0.79593 0.92616 0.0
H3003 H 0.82305 0.81731 0.89347 0.0
H3004 H 0.81596 0.80955 0.90734 0.0
H3005 H 0.78457 0.81296 0.90937 0.0
H3006 H 0.7695 0.79672 0.95303 0.0
H3007 H 0.7783 0.80437 0.94015 0.0
C3008 C 0.13597 0.19877 0.20342 0.0
C3009 C 0.13589 0.19843 0.19344 0.0
C3010 C 0.12799 0.20177 0.20836 0.0
C3011 C 0.10199 0.2052 0.20601 0.0
H3012 H 0.10589 0.22182 0.22752 0.0
C3013 C 0.07092 0.22352 0.2253 0.0
C3014 C 0.07151 0.22396 0.23526 0.0
C3015 C 0.0786 0.2203 0.21999 0.0
C3016 C 0.10467 0.2171 0.2216 0.0
H3017 H 0.12723 0.20078 0.18086 0.0
H3018 H 0.11335 0.20614 0.18948 0.0
H3019 H 0.11956 0.21632 0.21874 0.0
H3020 H 0.08073 0.22145 0.24742 0.0
H3021 H 0.09395 0.21566 0.23824 0.0
H3022 H 0.08708 0.20598 0.2089 0.0
C3023 C 0.11958 0.20403 0.19348 0.0
C3024 C 0.11252 0.21394 0.21656 0.0
C3025 C 0.12758 0.20106 0.18854 0.0
C3026 C 0.07994 0.22107 0.23977 0.0
C3027 C 0.0876 0.21787 0.23449 0.0
C3028 C 0.09413 0.20836 0.21106 0.0
C3029 C 0.1197 0.20449 0.20346 0.0
C3030 C 0.11129 0.20791 0.20873 0.0
C3031 C 0.08707 0.2175 0.22453 0.0
C3032 C 0.09538 0.2143 0.21896 0.0
H3033 H 0.14228 0.19689 0.20742 0.0
H3034 H 0.12829 0.20192 0.21604 0.0
H3035 H 0.1008 0.20048 0.20008 0.0
H3036 H 0.06451 0.22564 0.22159 0.0
H3037 H 0.07797 0.22017 0.21233 0.0
C3038 C 0.82383 0.12039 0.21009 0.0
C3039 C 0.81857 0.12768 0.2058 0.0
C3040 C 0.81925 0.11234 0.21382 0.0
C3041 C 0.79675 0.09837 0.2131 0.0
H3042 H 0.80517 0.08944 0.23782 0.0
C3043 C 0.77544 0.07074 0.23547 0.0
C3044 C 0.78059 0.06424 0.241 0.0
C3045 C 0.78016 0.07803 0.2305 0.0
C3046 C 0.80281 0.09173 0.23085 0.0
H3047 H 0.80435 0.13211 0.20197 0.0
H3048 H 0.79635 0.11801 0.20845 0.0
H3049 H 0.81318 0.10298 0.23045 0.0
H3050 H 0.79474 0.05998 0.24527 0.0
H3051 H 0.80298 0.0726 0.23652 0.0
H3052 H 0.78634 0.08711 0.21353 0.0
C3053 C 0.80404 0.11851 0.20885 0.0
C3054 C 0.80741 0.09952 0.22662 0.0
C3055 C 0.80863 0.1266 0.20514 0.0
C3056 C 0.79057 0.06498 0.24119 0.0
C3057 C 0.79528 0.07223 0.23619 0.0
C3058 C 0.79215 0.09054 0.21732 0.0
C3059 C 0.8093 0.11133 0.21333 0.0
C3060 C 0.80443 0.10295 0.21771 0.0
C3061 C 0.79013 0.07896 0.23093 0.0
C3062 C 0.79513 0.08713 0.22626 0.0
H3063 H 0.83152 0.12089 0.21055 0.0
H3064 H 0.82353 0.10686 0.21706 0.0
H3065 H 0.79435 0.10077 0.20618 0.0
H3066 H 0.76774 0.07044 0.23527 0.0
H3067 H 0.77595 0.08314 0.22662 0.0
C3068 C 0.88474 0.81628 0.20398 0.0
C3069 C 0.88477 0.81698 0.19401 0.0
C3070 C 0.89267 0.81288 0.20891 0.0
C3071 C 0.91853 0.80878 0.2067 0.0
H3072 H 0.91425 0.79148 0.22782 0.0
C3073 C 0.94919 0.78904 0.22603 0.0
C3074 C 0.9486 0.78829 0.23597 0.0
C3075 C 0.94157 0.79259 0.22067 0.0
C3076 C 0.91558 0.79638 0.22201 0.0
H3077 H 0.89329 0.81486 0.18145 0.0
H3078 H 0.90706 0.8088 0.19006 0.0
H3079 H 0.90072 0.79768 0.21903 0.0
H3080 H 0.93942 0.79056 0.24804 0.0
H3081 H 0.92633 0.79692 0.23879 0.0
H3082 H 0.93342 0.80747 0.20972 0.0
C3083 C 0.90092 0.81093 0.19406 0.0
C3084 C 0.90781 0.79995 0.21697 0.0
C3085 C 0.89298 0.81432 0.18912 0.0
C3086 C 0.94021 0.79118 0.24042 0.0
C3087 C 0.93263 0.79471 0.23509 0.0
C3088 C 0.92632 0.80521 0.21176 0.0
C3089 C 0.90084 0.81011 0.20402 0.0
C3090 C 0.90917 0.80624 0.20928 0.0
C3091 C 0.93317 0.79541 0.22514 0.0
C3092 C 0.92494 0.79901 0.21953 0.0
H3093 H 0.87852 0.81819 0.20797 0.0
H3094 H 0.8924 0.81246 0.21659 0.0
H3095 H 0.91984 0.81368 0.20088 0.0
H3096 H 0.95556 0.78693 0.22238 0.0
H3097 H 0.94221 0.79297 0.21302 0.0
C3098 C 0.21076 0.88523 0.19729 0.0
C3099 C 0.20638 0.87907 0.20391 0.0
C3100 C 0.21554 0.89346 0.20029 0.0
C3101 C 0.21743 0.91012 0.22043 0.0
H3102 H 0.24155 0.91721 0.20901 0.0
C3103 C 0.24245 0.93919 0.236 0.0
C3104 C 0.24761 0.94499 0.22963 0.0
C3105 C 0.23693 0.93155 0.23269 0.0
C3106 C 0.23475 0.91542 0.21219 0.0
H3107 H 0.2038 0.8767 0.21892 0.0
H3108 H 0.21213 0.89105 0.22414 0.0
H3109 H 0.23304 0.90306 0.2036 0.0
H3110 H 0.25063 0.94757 0.21475 0.0
H3111 H 0.24092 0.9343 0.20897 0.0
H3112 H 0.21916 0.92248 0.22904 0.0
C3113 C 0.21172 0.88959 0.2166 0.0
C3114 C 0.22988 0.90729 0.20908 0.0
C3115 C 0.20695 0.88135 0.21361 0.0
C3116 C 0.24686 0.94315 0.21985 0.0
C3117 C 0.24132 0.93552 0.21654 0.0
C3118 C 0.2223 0.91828 0.22352 0.0
C3119 C 0.21607 0.89575 0.20999 0.0
C3120 C 0.22117 0.90451 0.21319 0.0
C3121 C 0.2364 0.92953 0.22293 0.0
C3122 C 0.23104 0.92102 0.21946 0.0
H3123 H 0.21034 0.88378 0.18976 0.0
H3124 H 0.2187 0.89812 0.19499 0.0
H3125 H 0.21067 0.90827 0.22364 0.0
H3126 H 0.24298 0.94033 0.24358 0.0
H3127 H 0.23333 0.92702 0.23783 0.0
C3128 C 0.13453 0.80813 0.81322 0.0
C3129 C 0.13898 0.80204 0.81977 0.0
C3130 C 0.12623 0.80526 0.80843 0.0
C3131 C 0.10642 0.78743 0.80932 0.0
H3132 H 0.10286 0.79493 0.78301 0.0
C3133 C 0.07727 0.77123 0.78468 0.0
C3134 C 0.07238 0.77751 0.77864 0.0
C3135 C 0.08504 0.7744 0.79012 0.0
C3136 C 0.10371 0.79286 0.79039 0.0
H3137 H 0.13806 0.78814 0.82645 0.0
H3138 H 0.12386 0.78302 0.81784 0.0
H3139 H 0.11721 0.79997 0.79149 0.0
H3140 H 0.07164 0.79218 0.77395 0.0
H3141 H 0.08529 0.79764 0.78331 0.0
H3142 H 0.09297 0.78013 0.80809 0.0
C3143 C 0.12667 0.79009 0.81653 0.0
C3144 C 0.11193 0.79577 0.79527 0.0
C3145 C 0.13492 0.79299 0.82137 0.0
C3146 C 0.07534 0.78709 0.77837 0.0
C3147 C 0.08315 0.79024 0.78374 0.0
C3148 C 0.09823 0.78445 0.80441 0.0
C3149 C 0.1222 0.79619 0.81 0.0
C3150 C 0.1134 0.7931 0.80481 0.0
C3151 C 0.08816 0.78391 0.78959 0.0
C3152 C 0.09678 0.78715 0.79489 0.0
H3153 H 0.13749 0.81511 0.8117 0.0
H3154 H 0.12294 0.81021 0.80355 0.0
H3155 H 0.10722 0.78536 0.81671 0.0
H3156 H 0.0753 0.76378 0.78498 0.0
H3157 H 0.08881 0.76934 0.7945 0.0
C3158 C 0.2007 0.12051 0.82596 0.0
C3159 C 0.2067 0.12839 0.82772 0.0
C3160 C 0.20409 0.11261 0.82116 0.0
C3161 C 0.22307 0.10535 0.80485 0.0
H3162 H 0.21696 0.07993 0.81383 0.0
C3163 C 0.24206 0.07284 0.7902 0.0
C3164 C 0.23661 0.06459 0.78842 0.0
C3165 C 0.23822 0.08041 0.79512 0.0
C3166 C 0.21864 0.08697 0.81116 0.0
H3167 H 0.22093 0.13418 0.82566 0.0
H3168 H 0.22685 0.1204 0.8174 0.0
H3169 H 0.21051 0.09357 0.82202 0.0
H3170 H 0.22284 0.0578 0.79066 0.0
H3171 H 0.21606 0.07111 0.7991 0.0
H3172 H 0.23115 0.09881 0.79399 0.0
C3173 C 0.21951 0.12033 0.81968 0.0
C3174 C 0.21495 0.0948 0.81585 0.0
C3175 C 0.21614 0.1282 0.82451 0.0
C3176 C 0.22722 0.06407 0.79182 0.0
C3177 C 0.22336 0.07167 0.79675 0.0
C3178 C 0.22673 0.09755 0.80015 0.0
C3179 C 0.21353 0.11244 0.81795 0.0
C3180 C 0.21718 0.10408 0.8128 0.0
C3181 C 0.22879 0.07998 0.79837 0.0
C3182 C 0.22464 0.08825 0.80328 0.0
H3183 H 0.19341 0.12039 0.8284 0.0
H3184 H 0.19928 0.10667 0.81987 0.0
H3185 H 0.22479 0.11239 0.8022 0.0
H3186 H 0.24926 0.07358 0.78758 0.0
H3187 H 0.24266 0.08663 0.79636 0.0
C3188 C 0.88637 0.20307 0.81793 0.0
C3189 C 0.8869 0.19322 0.81933 0.0
C3190 C 0.89416 0.20824 0.81438 0.0
C3191 C 0.92025 0.20741 0.81118 0.0
H3192 H 0.91561 0.22683 0.79215 0.0
C3193 C 0.9507 0.22676 0.79071 0.0
C3194 C 0.94969 0.23654 0.78903 0.0
C3195 C 0.9432 0.22134 0.79455 0.0
C3196 C 0.91704 0.22151 0.79754 0.0
H3197 H 0.89613 0.18112 0.81829 0.0
H3198 H 0.90968 0.19013 0.81198 0.0
H3199 H 0.90228 0.21772 0.79865 0.0
H3200 H 0.9399 0.24822 0.79001 0.0
H3201 H 0.92699 0.23885 0.79688 0.0
H3202 H 0.93502 0.21123 0.81007 0.0
C3203 C 0.90325 0.19386 0.81368 0.0
C3204 C 0.90938 0.21629 0.80127 0.0
C3205 C 0.89545 0.18868 0.8172 0.0
C3206 C 0.94101 0.24074 0.79133 0.0
C3207 C 0.93354 0.23534 0.79515 0.0
C3208 C 0.92792 0.21266 0.80746 0.0
C3209 C 0.90268 0.2037 0.81216 0.0
C3210 C 0.91088 0.2092 0.80817 0.0
C3211 C 0.9345 0.22555 0.79676 0.0
C3212 C 0.9264 0.21981 0.80062 0.0
H3213 H 0.87987 0.20678 0.8194 0.0
H3214 H 0.89351 0.21583 0.81341 0.0
H3215 H 0.92164 0.20207 0.81656 0.0
H3216 H 0.95731 0.2233 0.78909 0.0
H3217 H 0.94417 0.21381 0.79562 0.0
C3218 C 0.82812 0.89093 0.81185 0.0
C3219 C 0.82301 0.88271 0.8146 0.0
C3220 C 0.82339 0.89881 0.80818 0.0
C3221 C 0.80092 0.90555 0.79641 0.0
H3222 H 0.80913 0.93111 0.80278 0.0
C3223 C 0.7807 0.9382 0.78265 0.0
C3224 C 0.78625 0.94584 0.77918 0.0
C3225 C 0.78491 0.93079 0.78772 0.0
C3226 C 0.8068 0.92402 0.80087 0.0
H3227 H 0.80888 0.8764 0.8157 0.0
H3228 H 0.80062 0.8902 0.80946 0.0
H3229 H 0.81696 0.91761 0.81022 0.0
H3230 H 0.80054 0.95183 0.77865 0.0
H3231 H 0.80791 0.93883 0.78735 0.0
H3232 H 0.79083 0.91193 0.78699 0.0
C3233 C 0.80831 0.89051 0.81004 0.0
C3234 C 0.81129 0.91628 0.80513 0.0
C3235 C 0.81304 0.88263 0.81372 0.0
C3236 C 0.79607 0.94601 0.78113 0.0
C3237 C 0.80028 0.93859 0.78621 0.0
C3238 C 0.79643 0.91328 0.79215 0.0
C3239 C 0.81343 0.89868 0.80717 0.0
C3240 C 0.80844 0.90694 0.80291 0.0
C3241 C 0.79478 0.93082 0.78945 0.0
C3242 C 0.79934 0.92262 0.79428 0.0
H3243 H 0.83579 0.89128 0.81253 0.0
H3244 H 0.82757 0.90494 0.80596 0.0
H3245 H 0.79864 0.89847 0.79441 0.0
H3246 H 0.77313 0.93777 0.78119 0.0
H3247 H 0.78043 0.92498 0.79021 0.0
C3248 C 0.20602 0.12917 0.21118 0.0
C3249 C 0.2038 0.13024 0.20148 0.0
C3250 C 0.21123 0.12142 0.21442 0.0
C3251 C 0.21805 0.09711 0.208 0.0
H3252 H 0.23748 0.10089 0.22734 0.0
C3253 C 0.24408 0.06762 0.2197 0.0
C3254 C 0.24645 0.06702 0.22941 0.0
C3255 C 0.23867 0.07514 0.21619 0.0
C3256 C 0.232 0.09968 0.22203 0.0
H3257 H 0.2053 0.12392 0.1876 0.0
H3258 H 0.21451 0.11046 0.19325 0.0
H3259 H 0.22862 0.1144 0.22138 0.0
H3260 H 0.24491 0.0739 0.24303 0.0
H3261 H 0.23531 0.08682 0.23696 0.0
H3262 H 0.22143 0.08236 0.20867 0.0
C3263 C 0.21214 0.11559 0.19835 0.0
C3264 C 0.22692 0.10744 0.2186 0.0
C3265 C 0.20695 0.12336 0.1951 0.0
C3266 C 0.24312 0.07404 0.23553 0.0
C3267 C 0.23773 0.08154 0.23203 0.0
C3268 C 0.22313 0.08933 0.21145 0.0
C3269 C 0.21435 0.11452 0.20806 0.0
C3270 C 0.21986 0.10625 0.21157 0.0
C3271 C 0.23552 0.08226 0.22229 0.0
C3272 C 0.23014 0.09051 0.21854 0.0
H3273 H 0.2038 0.13438 0.21628 0.0
H3274 H 0.21271 0.12078 0.22196 0.0
H3275 H 0.21258 0.09592 0.20267 0.0
H3276 H 0.24645 0.0623 0.21479 0.0
H3277 H 0.23716 0.07549 0.20864 0.0
C3278 C 0.19942 0.88179 0.80936 0.0
C3279 C 0.20341 0.87604 0.8165 0.0
C3280 C 0.20405 0.89011 0.80634 0.0
C3281 C 0.22293 0.90752 0.81337 0.0
H3282 H 0.22229 0.91416 0.78661 0.0
C3283 C 0.24729 0.9365 0.79651 0.0
C3284 C 0.24322 0.94253 0.78965 0.0
C3285 C 0.24213 0.92876 0.80018 0.0
C3286 C 0.22244 0.91246 0.79412 0.0
H3287 H 0.21545 0.87466 0.82612 0.0
H3288 H 0.22369 0.88897 0.82064 0.0
H3289 H 0.21406 0.89985 0.79213 0.0
H3290 H 0.23034 0.94531 0.78157 0.0
H3291 H 0.22141 0.93172 0.78789 0.0
H3292 H 0.2315 0.92008 0.81529 0.0
C3293 C 0.21687 0.88714 0.81748 0.0
C3294 C 0.21771 0.90426 0.7973 0.0
C3295 C 0.21219 0.87884 0.82054 0.0
C3296 C 0.23377 0.94073 0.78671 0.0
C3297 C 0.22864 0.93295 0.79034 0.0
C3298 C 0.22772 0.9157 0.81018 0.0
C3299 C 0.21286 0.89288 0.81033 0.0
C3300 C 0.21788 0.90167 0.80697 0.0
C3301 C 0.23279 0.92682 0.79704 0.0
C3302 C 0.22753 0.91826 0.80051 0.0
H3303 H 0.19273 0.87981 0.80599 0.0
H3304 H 0.20068 0.8944 0.80092 0.0
H3305 H 0.2231 0.90585 0.82089 0.0
H3306 H 0.25459 0.93755 0.79883 0.0
H3307 H 0.24557 0.92411 0.80526 0.0
C3308 C 0.13307 0.19234 0.80795 0.0
C3309 C 0.13385 0.19042 0.81773 0.0
C3310 C 0.12501 0.19672 0.80421 0.0
C3311 C 0.10429 0.21116 0.81066 0.0
H3312 H 0.09432 0.20204 0.7866 0.0
C3313 C 0.07601 0.23125 0.78847 0.0
C3314 C 0.06926 0.22588 0.78331 0.0
C3315 C 0.08339 0.22681 0.79343 0.0
C3316 C 0.09693 0.20461 0.79338 0.0
H3317 H 0.12674 0.19167 0.83127 0.0
H3318 H 0.11264 0.1993 0.82473 0.0
H3319 H 0.10813 0.19455 0.79371 0.0
H3320 H 0.06467 0.21159 0.77976 0.0
H3321 H 0.07746 0.20383 0.78847 0.0
H3322 H 0.09297 0.22115 0.81035 0.0
C3323 C 0.11833 0.19751 0.81996 0.0
C3324 C 0.10495 0.2004 0.7974 0.0
C3325 C 0.12642 0.19313 0.82371 0.0
C3326 C 0.06985 0.21594 0.78354 0.0
C3327 C 0.0772 0.2115 0.78851 0.0
C3328 C 0.09625 0.21538 0.80662 0.0
C3329 C 0.11749 0.19928 0.81015 0.0
C3330 C 0.10878 0.20365 0.80605 0.0
C3331 C 0.08418 0.21688 0.79336 0.0
C3332 C 0.09249 0.21219 0.79791 0.0
H3333 H 0.13874 0.19052 0.80316 0.0
H3334 H 0.12471 0.19816 0.79665 0.0
H3335 H 0.10709 0.21389 0.81729 0.0
H3336 H 0.07584 0.23892 0.78836 0.0
H3337 H 0.08869 0.23119 0.797 0.0
C3338 C 0.8142 0.12774 0.81663 0.0
C3339 C 0.81478 0.12754 0.8266 0.0
C3340 C 0.81089 0.11981 0.81162 0.0
C3341 C 0.79673 0.09761 0.81446 0.0
H3342 H 0.80852 0.0911 0.79064 0.0
C3343 C 0.77981 0.07087 0.78802 0.0
C3344 C 0.78591 0.06505 0.78287 0.0
C3345 C 0.78352 0.07795 0.79396 0.0
C3346 C 0.8052 0.09274 0.79733 0.0
H3347 H 0.8125 0.11875 0.8391 0.0
H3348 H 0.80677 0.1049 0.83037 0.0
H3349 H 0.81479 0.10443 0.79975 0.0
H3350 H 0.80067 0.06179 0.7803 0.0
H3351 H 0.80715 0.07406 0.79072 0.0
H3352 H 0.78722 0.08583 0.81209 0.0
C3353 C 0.80872 0.11125 0.82643 0.0
C3354 C 0.80872 0.10048 0.8025 0.0
C3355 C 0.81202 0.11919 0.83143 0.0
C3356 C 0.79579 0.06625 0.78406 0.0
C3357 C 0.7995 0.07331 0.79001 0.0
C3358 C 0.79321 0.08987 0.80929 0.0
C3359 C 0.8081 0.11146 0.81645 0.0
C3360 C 0.8045 0.10305 0.8111 0.0
C3361 C 0.79342 0.07936 0.7949 0.0
C3362 C 0.79737 0.08736 0.80064 0.0
H3363 H 0.81612 0.1341 0.81268 0.0
H3364 H 0.81036 0.12029 0.80396 0.0
H3365 H 0.79325 0.09944 0.82102 0.0
H3366 H 0.77217 0.07021 0.78717 0.0
H3367 H 0.77863 0.08254 0.79752 0.0
C3368 C 0.895 0.80874 0.83073 0.0
C3369 C 0.88689 0.81113 0.82537 0.0
C3370 C 0.90313 0.80537 0.82628 0.0
C3371 C 0.9151 0.80401 0.80293 0.0
H3372 H 0.92805 0.78283 0.81465 0.0
C3373 C 0.94283 0.78184 0.78314 0.0
C3374 C 0.95072 0.77849 0.78829 0.0
C3375 C 0.93551 0.78652 0.78773 0.0
C3376 C 0.92461 0.78884 0.81135 0.0
H3377 H 0.88101 0.81185 0.81112 0.0
H3378 H 0.89517 0.80596 0.80336 0.0
H3379 H 0.91441 0.78962 0.82249 0.0
H3380 H 0.95724 0.77779 0.80227 0.0
H3381 H 0.94447 0.786 0.81028 0.0
H3382 H 0.92526 0.80314 0.79173 0.0
C3383 C 0.8953 0.80682 0.811 0.0
C3384 C 0.91678 0.79274 0.81584 0.0
C3385 C 0.88717 0.8102 0.81545 0.0
C3386 C 0.9512 0.78016 0.79811 0.0
C3387 C 0.94387 0.78485 0.80271 0.0
C3388 C 0.92294 0.80011 0.79843 0.0
C3389 C 0.90336 0.80429 0.81637 0.0
C3390 C 0.91188 0.80034 0.81168 0.0
C3391 C 0.93587 0.78799 0.79759 0.0
C3392 C 0.92777 0.79244 0.80255 0.0
H3393 H 0.8951 0.80952 0.83837 0.0
H3394 H 0.90926 0.80365 0.83063 0.0
H3395 H 0.91159 0.80996 0.79959 0.0
H3396 H 0.94214 0.78054 0.77559 0.0
H3397 H 0.9294 0.78871 0.78358 0.0
C3398 C 0.80777 0.88549 0.20298 0.0
C3399 C 0.8177 0.88633 0.2021 0.0
C3400 C 0.80247 0.89305 0.20636 0.0
C3401 C 0.80477 0.91519 0.22022 0.0
H3402 H 0.78004 0.92042 0.20918 0.0
C3403 C 0.78261 0.94766 0.23107 0.0
C3404 C 0.7728 0.94603 0.23235 0.0
C3405 C 0.78829 0.9407 0.22706 0.0
C3406 C 0.7869 0.91901 0.2124 0.0
H3407 H 0.82982 0.89589 0.20389 0.0
H3408 H 0.82058 0.90907 0.20975 0.0
H3409 H 0.78953 0.9077 0.20278 0.0
H3410 H 0.76136 0.93566 0.23059 0.0
H3411 H 0.77121 0.92362 0.22358 0.0
H3412 H 0.8021 0.92648 0.22987 0.0
C3413 C 0.8169 0.9025 0.20799 0.0
C3414 C 0.79234 0.9117 0.20873 0.0
C3415 C 0.8222 0.89494 0.20462 0.0
C3416 C 0.76884 0.93727 0.22952 0.0
C3417 C 0.7745 0.93034 0.2255 0.0
C3418 C 0.79933 0.92251 0.22388 0.0
C3419 C 0.80696 0.90165 0.20892 0.0
C3420 C 0.80131 0.90964 0.21264 0.0
C3421 C 0.7843 0.93195 0.22423 0.0
C3422 C 0.79029 0.92446 0.22007 0.0
H3423 H 0.80409 0.87892 0.20125 0.0
H3424 H 0.79486 0.89207 0.20714 0.0
H3425 H 0.81159 0.91372 0.22349 0.0
H3426 H 0.78589 0.95436 0.23308 0.0
H3427 H 0.7958 0.94222 0.22609 0.0
C3428 C 0.137 0.81258 0.20406 0.0
C3429 C 0.13967 0.80822 0.19556 0.0
C3430 C 0.12863 0.80982 0.2087 0.0
C3431 C 0.11073 0.79014 0.21018 0.0
H3432 H 0.09588 0.80897 0.22306 0.0
C3433 C 0.07412 0.78141 0.22716 0.0
C3434 C 0.07287 0.78477 0.23645 0.0
C3435 C 0.08191 0.78447 0.22173 0.0
C3436 C 0.09998 0.80362 0.21953 0.0
H3437 H 0.13557 0.79741 0.18536 0.0
H3438 H 0.12084 0.79286 0.19325 0.0
H3439 H 0.11012 0.81388 0.21443 0.0
H3440 H 0.07897 0.79399 0.24726 0.0
H3441 H 0.09235 0.79945 0.23772 0.0
H3442 H 0.10049 0.7799 0.21524 0.0
C3443 C 0.1253 0.79832 0.19643 0.0
C3444 C 0.10818 0.80642 0.21461 0.0
C3445 C 0.13371 0.80103 0.19182 0.0
C3446 C 0.07953 0.79139 0.24007 0.0
C3447 C 0.08725 0.79451 0.23462 0.0
C3448 C 0.10248 0.78735 0.21503 0.0
C3449 C 0.12264 0.80266 0.20495 0.0
C3450 C 0.11372 0.79971 0.20994 0.0
C3451 C 0.08859 0.79102 0.22542 0.0
C3452 C 0.09706 0.79405 0.21984 0.0
H3453 H 0.14133 0.81822 0.2071 0.0
H3454 H 0.12691 0.81325 0.21531 0.0
H3455 H 0.11488 0.78473 0.20681 0.0
H3456 H 0.06908 0.77642 0.22406 0.0
H3457 H 0.08269 0.78174 0.21461 0.0
C3458 C 0.88246 0.21174 0.19814 0.0
C3459 C 0.88173 0.20216 0.19553 0.0
C3460 C 0.89078 0.21534 0.20235 0.0
C3461 C 0.91275 0.20831 0.21507 0.0
H3462 H 0.92166 0.23327 0.20712 0.0
C3463 C 0.94277 0.22908 0.23473 0.0
C3464 C 0.94906 0.2347 0.22926 0.0
C3465 C 0.93494 0.22451 0.23049 0.0
C3466 C 0.91935 0.22624 0.20935 0.0
H3467 H 0.88918 0.18884 0.19537 0.0
H3468 H 0.90373 0.19513 0.2027 0.0
H3469 H 0.90728 0.22651 0.20003 0.0
H3470 H 0.95229 0.23953 0.21498 0.0
H3471 H 0.93868 0.23151 0.20757 0.0
H3472 H 0.92493 0.20801 0.2243 0.0
C3473 C 0.89781 0.19984 0.20159 0.0
C3474 C 0.91101 0.22242 0.20538 0.0
C3475 C 0.88947 0.19623 0.19739 0.0
C3476 C 0.9475 0.23538 0.21941 0.0
C3477 C 0.93968 0.2308 0.21517 0.0
C3478 C 0.9211 0.21214 0.21905 0.0
C3479 C 0.8986 0.20946 0.20405 0.0
C3480 C 0.90757 0.21343 0.20822 0.0
C3481 C 0.93321 0.22544 0.22067 0.0
C3482 C 0.92449 0.22117 0.21626 0.0
H3483 H 0.87657 0.21647 0.19697 0.0
H3484 H 0.89106 0.22275 0.20433 0.0
H3485 H 0.91027 0.20139 0.21747 0.0
H3486 H 0.94369 0.2285 0.24235 0.0
H3487 H 0.93005 0.22053 0.23496 0.0
C3488 C 0.19975 0.7044 0.62794 0.0
C3489 C 0.20085 0.69452 0.62864 0.0
C3490 C 0.20315 0.70944 0.62003 0.0
C3491 C 0.2113 0.7064 0.59516 0.0
H3492 H 0.22447 0.73035 0.59949 0.0
C3493 C 0.23622 0.72413 0.56752 0.0
C3494 C 0.23621 0.73407 0.56664 0.0
C3495 C 0.23089 0.71953 0.57459 0.0
C3496 C 0.22069 0.72374 0.59813 0.0
H3497 H 0.20614 0.6822 0.62138 0.0
H3498 H 0.21228 0.691 0.60776 0.0
H3499 H 0.2171 0.72195 0.61277 0.0
H3500 H 0.23041 0.74693 0.5724 0.0
H3501 H 0.22102 0.7389 0.58466 0.0
H3502 H 0.21508 0.70812 0.58054 0.0
C3503 C 0.2087 0.69485 0.61326 0.0
C3504 C 0.21645 0.71892 0.60575 0.0
C3505 C 0.20529 0.68981 0.62115 0.0
C3506 C 0.23052 0.73927 0.57283 0.0
C3507 C 0.22522 0.73467 0.57992 0.0
C3508 C 0.21556 0.71121 0.58754 0.0
C3509 C 0.20774 0.70474 0.61262 0.0
C3510 C 0.21178 0.71013 0.60439 0.0
C3511 C 0.22544 0.72476 0.58097 0.0
C3512 C 0.22039 0.7199 0.58895 0.0
H3513 H 0.19643 0.70827 0.6336 0.0
H3514 H 0.20219 0.71704 0.61973 0.0
H3515 H 0.20761 0.69973 0.59382 0.0
H3516 H 0.24046 0.71991 0.56282 0.0
H3517 H 0.23128 0.7119 0.57523 0.0
C3518 C 0.81318 0.7072 0.63586 0.0
C3519 C 0.81394 0.69729 0.63553 0.0
C3520 C 0.81011 0.71232 0.6279 0.0
C3521 C 0.80744 0.71096 0.60179 0.0
H3522 H 0.78966 0.7313 0.60538 0.0
C3523 C 0.78906 0.7305 0.57035 0.0
C3524 C 0.78805 0.74036 0.57119 0.0
C3525 C 0.79235 0.72508 0.57805 0.0
C3526 C 0.79471 0.72572 0.60425 0.0
H3527 H 0.81224 0.685 0.62648 0.0
H3528 H 0.80676 0.69392 0.61262 0.0
H3529 H 0.79519 0.72223 0.61906 0.0
H3530 H 0.78964 0.75221 0.58084 0.0
H3531 H 0.79557 0.74284 0.59409 0.0
H3532 H 0.80696 0.71449 0.58697 0.0
C3533 C 0.8086 0.69774 0.61903 0.0
C3534 C 0.79788 0.72051 0.6121 0.0
C3535 C 0.81164 0.69262 0.62701 0.0
C3536 C 0.79046 0.74466 0.57988 0.0
C3537 C 0.79373 0.73926 0.58754 0.0
C3538 C 0.80427 0.71619 0.59392 0.0
C3539 C 0.80775 0.70765 0.61939 0.0
C3540 C 0.80431 0.71309 0.61098 0.0
C3541 C 0.79466 0.7294 0.58676 0.0
C3542 C 0.7979 0.72367 0.59506 0.0
H3543 H 0.81481 0.71102 0.64233 0.0
H3544 H 0.80964 0.71995 0.62839 0.0
H3545 H 0.81247 0.70536 0.60069 0.0
H3546 H 0.78733 0.72697 0.56375 0.0
H3547 H 0.7929 0.71749 0.57722 0.0
C3548 C 0.82105 0.31729 0.62555 0.0
C3549 C 0.81747 0.31491 0.63457 0.0
C3550 C 0.81797 0.31234 0.61749 0.0
C3551 C 0.79825 0.29666 0.6089 0.0
H3552 H 0.81564 0.29161 0.58839 0.0
C3553 C 0.78482 0.2806 0.57371 0.0
C3554 C 0.79044 0.27371 0.5694 0.0
C3555 C 0.78837 0.28595 0.5813 0.0
C3556 C 0.8107 0.29289 0.59408 0.0
H3557 H 0.80807 0.30528 0.64223 0.0
H3558 H 0.80282 0.29653 0.62825 0.0
H3559 H 0.82142 0.29985 0.60249 0.0
H3560 H 0.80438 0.26733 0.56958 0.0
H3561 H 0.81044 0.27642 0.58302 0.0
H3562 H 0.78761 0.28941 0.60069 0.0
C3563 C 0.80782 0.30239 0.62733 0.0
C3564 C 0.81399 0.29773 0.60213 0.0
C3565 C 0.81085 0.30738 0.63537 0.0
C3566 C 0.79979 0.27247 0.57279 0.0
C3567 C 0.80331 0.27778 0.58044 0.0
C3568 C 0.79497 0.29177 0.6009 0.0
C3569 C 0.81127 0.30484 0.61826 0.0
C3570 C 0.80781 0.29968 0.60966 0.0
C3571 C 0.79761 0.28452 0.58488 0.0
C3572 C 0.80114 0.28982 0.59336 0.0
H3573 H 0.82608 0.32313 0.6247 0.0
H3574 H 0.82068 0.31454 0.61063 0.0
H3575 H 0.79323 0.29814 0.61448 0.0
H3576 H 0.77756 0.28169 0.57142 0.0
H3577 H 0.78381 0.29118 0.58441 0.0
C3578 C 0.20826 0.29983 0.63453 0.0
C3579 C 0.20746 0.30975 0.63421 0.0
C3580 C 0.21125 0.29486 0.62656 0.0
C3581 C 0.22419 0.29811 0.6039 0.0
H3582 H 0.21267 0.27374 0.59781 0.0
C3583 C 0.24011 0.27297 0.57617 0.0
C3584 C 0.23379 0.26771 0.57039 0.0
C3585 C 0.2367 0.27843 0.58362 0.0
C3586 C 0.2159 0.28058 0.59935 0.0
H3587 H 0.20897 0.32218 0.62515 0.0
H3588 H 0.21415 0.31352 0.61126 0.0
H3589 H 0.20695 0.28255 0.61138 0.0
H3590 H 0.21891 0.26437 0.5677 0.0
H3591 H 0.21296 0.27396 0.58064 0.0
H3592 H 0.23304 0.29621 0.59179 0.0
C3593 C 0.21264 0.30959 0.61773 0.0
C3594 C 0.2127 0.28558 0.60721 0.0
C3595 C 0.20966 0.31456 0.6257 0.0
C3596 C 0.22398 0.26823 0.5721 0.0
C3597 C 0.22057 0.27371 0.57954 0.0
C3598 C 0.22739 0.29311 0.59604 0.0
C3599 C 0.21351 0.29968 0.61806 0.0
C3600 C 0.21682 0.2944 0.60961 0.0
C3601 C 0.22689 0.2788 0.58546 0.0
C3602 C 0.22331 0.28426 0.59368 0.0
H3603 H 0.20675 0.29591 0.64101 0.0
H3604 H 0.21198 0.28724 0.62713 0.0
H3605 H 0.2276 0.30484 0.60559 0.0
H3606 H 0.24772 0.27261 0.57515 0.0
H3607 H 0.24179 0.28215 0.58811 0.0
C3608 C 0.20599 0.30049 0.38721 0.0
C3609 C 0.20633 0.31043 0.38633 0.0
C3610 C 0.20969 0.29601 0.3953 0.0
C3611 C 0.22678 0.29993 0.41495 0.0
H3612 H 0.21396 0.27828 0.42658 0.0
C3613 C 0.2405 0.28359 0.44993 0.0
C3614 C 0.24066 0.27364 0.45054 0.0
C3615 C 0.23568 0.2881 0.4425 0.0
C3616 C 0.21768 0.28427 0.42337 0.0
H3617 H 0.21051 0.32344 0.39346 0.0
H3618 H 0.21697 0.31563 0.40751 0.0
H3619 H 0.20682 0.28605 0.41277 0.0
H3620 H 0.2357 0.26065 0.44389 0.0
H3621 H 0.22732 0.26851 0.43089 0.0
H3622 H 0.23769 0.29812 0.42543 0.0
C3623 C 0.214 0.31129 0.40188 0.0
C3624 C 0.21358 0.28871 0.41545 0.0
C3625 C 0.2103 0.31577 0.39381 0.0
C3626 C 0.23562 0.26832 0.44369 0.0
C3627 C 0.23082 0.27283 0.43623 0.0
C3628 C 0.23088 0.29548 0.42284 0.0
C3629 C 0.21381 0.30135 0.4027 0.0
C3630 C 0.21809 0.29661 0.41115 0.0
C3631 C 0.23091 0.28278 0.43546 0.0
C3632 C 0.22639 0.28759 0.42716 0.0
H3633 H 0.20308 0.29616 0.38155 0.0
H3634 H 0.20952 0.28833 0.39566 0.0
H3635 H 0.23053 0.30588 0.41172 0.0
H3636 H 0.24418 0.28789 0.45517 0.0
H3637 H 0.23573 0.29577 0.44224 0.0
C3638 C 0.19648 0.70058 0.39336 0.0
C3639 C 0.19437 0.70608 0.38526 0.0
C3640 C 0.20154 0.70454 0.40101 0.0
C3641 C 0.21759 0.72469 0.40727 0.0
H3642 H 0.20893 0.71995 0.43298 0.0
C3643 C 0.2297 0.74812 0.43841 0.0
C3644 C 0.2317 0.74382 0.44723 0.0
C3645 C 0.22562 0.7429 0.43101 0.0
C3646 C 0.21153 0.72124 0.42586 0.0
H3647 H 0.19614 0.71998 0.37878 0.0
H3648 H 0.20482 0.7269 0.39211 0.0
H3649 H 0.20103 0.7119 0.41973 0.0
H3650 H 0.23096 0.73059 0.45515 0.0
H3651 H 0.22388 0.7214 0.44214 0.0
H3652 H 0.22801 0.73409 0.41336 0.0
C3653 C 0.20263 0.71951 0.39255 0.0
C3654 C 0.207 0.71662 0.41826 0.0
C3655 C 0.19755 0.71558 0.38494 0.0
C3656 C 0.22955 0.73412 0.44844 0.0
C3657 C 0.22542 0.72887 0.44101 0.0
C3658 C 0.22211 0.72929 0.41486 0.0
C3659 C 0.20466 0.71406 0.4007 0.0
C3660 C 0.20988 0.71841 0.40886 0.0
C3661 C 0.22344 0.73321 0.43219 0.0
C3662 C 0.21905 0.72774 0.42423 0.0
H3663 H 0.19408 0.69326 0.39386 0.0
H3664 H 0.20306 0.70013 0.40714 0.0
H3665 H 0.22013 0.72608 0.40015 0.0
H3666 H 0.2314 0.75554 0.43717 0.0
H3667 H 0.22408 0.7465 0.42437 0.0
C3668 C 0.81626 0.70556 0.38597 0.0
C3669 C 0.8262 0.70461 0.38604 0.0
C3670 C 0.81153 0.70873 0.39402 0.0
C3671 C 0.81558 0.72188 0.41641 0.0
H3672 H 0.79095 0.71112 0.42308 0.0
C3673 C 0.79106 0.73898 0.44404 0.0
C3674 C 0.78559 0.73297 0.44994 0.0
C3675 C 0.79644 0.73527 0.43667 0.0
C3676 C 0.79787 0.71414 0.42139 0.0
H3677 H 0.83892 0.70603 0.39475 0.0
H3678 H 0.83068 0.7115 0.4088 0.0
H3679 H 0.79944 0.70495 0.40951 0.0
H3680 H 0.78182 0.71829 0.45296 0.0
H3681 H 0.79127 0.71181 0.44017 0.0
H3682 H 0.81407 0.73098 0.42838 0.0
C3683 C 0.82655 0.70997 0.40246 0.0
C3684 C 0.80269 0.71068 0.41352 0.0
C3685 C 0.83128 0.70682 0.3944 0.0
C3686 C 0.78584 0.72313 0.44846 0.0
C3687 C 0.79124 0.71942 0.4411 0.0
C3688 C 0.81076 0.72534 0.42428 0.0
C3689 C 0.81661 0.711 0.40237 0.0
C3690 C 0.81158 0.71454 0.41089 0.0
C3691 C 0.79651 0.72544 0.43504 0.0
C3692 C 0.80182 0.72155 0.42685 0.0
H3693 H 0.81215 0.70405 0.37961 0.0
H3694 H 0.8039 0.70958 0.39363 0.0
H3695 H 0.82237 0.72509 0.41454 0.0
H3696 H 0.79091 0.7466 0.44489 0.0
H3697 H 0.8003 0.74014 0.43207 0.0
C3698 C 0.81282 0.32254 0.39037 0.0
C3699 C 0.82136 0.31935 0.38646 0.0
C3700 C 0.80899 0.31822 0.39848 0.0
C3701 C 0.80975 0.29605 0.4128 0.0
H3702 H 0.79659 0.31123 0.43122 0.0
C3703 C 0.79418 0.28021 0.44764 0.0
C3704 C 0.78479 0.28279 0.44969 0.0
C3705 C 0.79929 0.28486 0.44043 0.0
C3706 C 0.80021 0.30689 0.42612 0.0
H3707 H 0.83256 0.30906 0.38812 0.0
H3708 H 0.82602 0.30171 0.40244 0.0
H3709 H 0.8044 0.31896 0.41777 0.0
H3710 H 0.77347 0.29234 0.44566 0.0
H3711 H 0.78245 0.30054 0.43331 0.0
H3712 H 0.80555 0.28398 0.42121 0.0
C3713 C 0.8222 0.30747 0.39912 0.0
C3714 C 0.80466 0.31131 0.41838 0.0
C3715 C 0.82602 0.31177 0.39097 0.0
C3716 C 0.78074 0.29027 0.44446 0.0
C3717 C 0.78588 0.29496 0.43733 0.0
C3718 C 0.80535 0.29163 0.42058 0.0
C3719 C 0.81361 0.31062 0.40297 0.0
C3720 C 0.80938 0.30594 0.41153 0.0
C3721 C 0.79518 0.29226 0.43517 0.0
C3722 C 0.80042 0.29699 0.42726 0.0
H3723 H 0.8091 0.32844 0.38721 0.0
H3724 H 0.8023 0.32077 0.40114 0.0
H3725 H 0.8132 0.29166 0.40762 0.0
H3726 H 0.79759 0.27459 0.4516 0.0
H3727 H 0.80649 0.28269 0.439 0.0
C3728 C 0.12522 0.69742 0.70064 0.0
C3729 C 0.12983 0.70252 0.69333 0.0
C3730 C 0.11714 0.70102 0.705 0.0
C3731 C 0.09821 0.71895 0.70163 0.0
H3732 H 0.0953 0.71621 0.72888 0.0
C3733 C 0.07265 0.74167 0.72337 0.0
C3734 C 0.06734 0.73723 0.73064 0.0
C3735 C 0.07962 0.73675 0.71852 0.0
C3736 C 0.09595 0.71692 0.72125 0.0
H3737 H 0.12936 0.71537 0.68477 0.0
H3738 H 0.11555 0.72178 0.69256 0.0
H3739 H 0.10878 0.70898 0.72108 0.0
H3740 H 0.06514 0.72396 0.73828 0.0
H3741 H 0.07747 0.71543 0.72991 0.0
H3742 H 0.08551 0.72711 0.70187 0.0
C3743 C 0.11807 0.71491 0.69485 0.0
C3744 C 0.10367 0.71277 0.71676 0.0
C3745 C 0.12611 0.71129 0.69047 0.0
C3746 C 0.06915 0.72767 0.73283 0.0
C3747 C 0.07621 0.72277 0.72803 0.0
C3748 C 0.09054 0.72315 0.70613 0.0
C3749 C 0.11346 0.70983 0.70217 0.0
C3750 C 0.10497 0.71381 0.7069 0.0
C3751 C 0.08156 0.72727 0.72085 0.0
C3752 C 0.08937 0.72227 0.716 0.0
H3753 H 0.12792 0.69068 0.70309 0.0
H3754 H 0.11373 0.69686 0.71054 0.0
H3755 H 0.09884 0.71973 0.69401 0.0
H3756 H 0.07164 0.74907 0.7216 0.0
H3757 H 0.08372 0.74047 0.71313 0.0
C3758 C 0.81549 0.63241 0.71847 0.0
C3759 C 0.819 0.63282 0.70916 0.0
C3760 C 0.81059 0.62436 0.72177 0.0
C3761 C 0.80717 0.59878 0.71739 0.0
H3762 H 0.78473 0.60172 0.73286 0.0
C3763 C 0.78318 0.56697 0.72921 0.0
C3764 C 0.77956 0.56718 0.73849 0.0
C3765 C 0.78808 0.57484 0.72542 0.0
C3766 C 0.79105 0.60077 0.72864 0.0
H3767 H 0.82014 0.62504 0.69601 0.0
H3768 H 0.81147 0.611 0.70174 0.0
H3769 H 0.79298 0.61572 0.7266 0.0
H3770 H 0.77824 0.5759 0.75103 0.0
H3771 H 0.78697 0.58944 0.74454 0.0
H3772 H 0.80527 0.58381 0.7195 0.0
C3773 C 0.81258 0.6169 0.70651 0.0
C3774 C 0.79577 0.6088 0.72504 0.0
C3775 C 0.81746 0.62499 0.7032 0.0
C3776 C 0.78105 0.57541 0.74391 0.0
C3777 C 0.78594 0.58325 0.74014 0.0
C3778 C 0.80245 0.59073 0.72101 0.0
C3779 C 0.80909 0.61649 0.71584 0.0
C3780 C 0.80392 0.60791 0.71942 0.0
C3781 C 0.78944 0.58311 0.73081 0.0
C3782 C 0.79437 0.59163 0.72674 0.0
H3783 H 0.81648 0.63836 0.72322 0.0
H3784 H 0.80807 0.62424 0.72902 0.0
H3785 H 0.81349 0.59785 0.71317 0.0
H3786 H 0.78223 0.56073 0.72487 0.0
H3787 H 0.79062 0.57451 0.7182 0.0
C3788 C 0.88942 0.31152 0.7105 0.0
C3789 C 0.88831 0.30983 0.70071 0.0
C3790 C 0.89733 0.30811 0.71547 0.0
C3791 C 0.91546 0.2896 0.71436 0.0
H3792 H 0.9284 0.30452 0.73368 0.0
C3793 C 0.94195 0.27323 0.74102 0.0
C3794 C 0.95034 0.27838 0.74315 0.0
C3795 C 0.9347 0.2773 0.7356 0.0
C3796 C 0.92491 0.3003 0.72826 0.0
H3797 H 0.8949 0.30352 0.68845 0.0
H3798 H 0.90862 0.29753 0.69714 0.0
H3799 H 0.91526 0.31139 0.72464 0.0
H3800 H 0.95767 0.29189 0.74112 0.0
H3801 H 0.94495 0.29904 0.73172 0.0
H3802 H 0.9251 0.27853 0.71793 0.0
C3803 C 0.90329 0.30136 0.70099 0.0
C3804 C 0.91732 0.30419 0.72314 0.0
C3805 C 0.89541 0.30479 0.69601 0.0
C3806 C 0.95127 0.28775 0.73972 0.0
C3807 C 0.94398 0.29184 0.73432 0.0
C3808 C 0.923 0.28569 0.7195 0.0
C3809 C 0.90431 0.30291 0.7108 0.0
C3810 C 0.91249 0.29888 0.71615 0.0
C3811 C 0.93561 0.28666 0.7322 0.0
C3812 C 0.92779 0.29097 0.72654 0.0
H3813 H 0.88404 0.31527 0.71437 0.0
H3814 H 0.89784 0.30933 0.72304 0.0
H3815 H 0.91184 0.28528 0.70909 0.0
H3816 H 0.94086 0.26609 0.74372 0.0
H3817 H 0.92828 0.27317 0.73425 0.0
C3818 C 0.20324 0.3768 0.71568 0.0
C3819 C 0.20063 0.37603 0.70605 0.0
C3820 C 0.20748 0.38512 0.71912 0.0
C3821 C 0.22033 0.40712 0.71194 0.0
H3822 H 0.21182 0.41588 0.73643 0.0
C3823 C 0.23256 0.44319 0.72829 0.0
C3824 C 0.23472 0.44305 0.73807 0.0
C3825 C 0.22832 0.43526 0.72393 0.0
C3826 C 0.21435 0.4135 0.72962 0.0
H3827 H 0.20061 0.38338 0.69247 0.0
H3828 H 0.20804 0.39794 0.69851 0.0
H3829 H 0.20477 0.40157 0.72967 0.0
H3830 H 0.23447 0.43427 0.75079 0.0
H3831 H 0.22709 0.42058 0.74325 0.0
H3832 H 0.22995 0.41909 0.71195 0.0
C3833 C 0.20686 0.39206 0.70337 0.0
C3834 C 0.21031 0.40527 0.72574 0.0
C3835 C 0.2026 0.38371 0.69991 0.0
C3836 C 0.23267 0.43475 0.74332 0.0
C3837 C 0.22844 0.42687 0.73898 0.0
C3838 C 0.22439 0.41537 0.71583 0.0
C3839 C 0.20923 0.39291 0.71305 0.0
C3840 C 0.21333 0.4019 0.71691 0.0
C3841 C 0.22616 0.42703 0.72925 0.0
C3842 C 0.22152 0.41859 0.72478 0.0
H3843 H 0.20201 0.37096 0.72057 0.0
H3844 H 0.20941 0.38544 0.72657 0.0
H3845 H 0.22287 0.40469 0.70515 0.0
H3846 H 0.234 0.44948 0.72405 0.0
H3847 H 0.2266 0.43563 0.71643 0.0
C3848 C 0.12475 0.29648 0.32692 0.0
C3849 C 0.13324 0.29865 0.32209 0.0
C3850 C 0.11683 0.29282 0.32204 0.0
C3851 C 0.10643 0.29028 0.29786 0.0
H3852 H 0.0916 0.26999 0.30957 0.0
C3853 C 0.07929 0.26731 0.27693 0.0
C3854 C 0.07068 0.26475 0.28137 0.0
C3855 C 0.08653 0.27199 0.28197 0.0
C3856 C 0.09559 0.27574 0.30625 0.0
H3857 H 0.14006 0.29859 0.30833 0.0
H3858 H 0.12627 0.29215 0.29983 0.0
H3859 H 0.105 0.27706 0.31819 0.0
H3860 H 0.06289 0.26535 0.29459 0.0
H3861 H 0.07559 0.27349 0.30341 0.0
H3862 H 0.09709 0.28885 0.28586 0.0
C3863 C 0.12567 0.29344 0.30737 0.0
C3864 C 0.10327 0.2798 0.3112 0.0
C3865 C 0.13359 0.29713 0.31225 0.0
C3866 C 0.06947 0.2671 0.29097 0.0
C3867 C 0.07675 0.27176 0.29603 0.0
C3868 C 0.09876 0.2862 0.29291 0.0
C3869 C 0.1172 0.29121 0.31221 0.0
C3870 C 0.10883 0.28709 0.30705 0.0
C3871 C 0.08538 0.27422 0.29159 0.0
C3872 C 0.09328 0.27884 0.29702 0.0
H3873 H 0.1242 0.29771 0.33448 0.0
H3874 H 0.11037 0.29134 0.32597 0.0
H3875 H 0.11045 0.29599 0.29451 0.0
H3876 H 0.08056 0.26545 0.26961 0.0
H3877 H 0.09315 0.27364 0.27838 0.0
C3878 C 0.19957 0.62093 0.33138 0.0
C3879 C 0.19854 0.62934 0.32608 0.0
C3880 C 0.203 0.61275 0.32714 0.0
C3881 C 0.20709 0.60157 0.30375 0.0
H3882 H 0.22535 0.58667 0.31793 0.0
C3883 C 0.23032 0.57321 0.28628 0.0
C3884 C 0.23215 0.56483 0.29142 0.0
C3885 C 0.2255 0.58067 0.29048 0.0
C3886 C 0.22015 0.59066 0.31392 0.0
H3887 H 0.20027 0.63571 0.31212 0.0
H3888 H 0.2063 0.62146 0.30473 0.0
H3889 H 0.21832 0.60044 0.32526 0.0
H3890 H 0.23006 0.55766 0.30494 0.0
H3891 H 0.22168 0.5707 0.31228 0.0
H3892 H 0.20904 0.59184 0.29236 0.0
C3893 C 0.20432 0.62114 0.31214 0.0
C3894 C 0.21612 0.59857 0.31812 0.0
C3895 C 0.20087 0.62932 0.31638 0.0
C3896 C 0.22889 0.56405 0.30082 0.0
C3897 C 0.22409 0.57153 0.30503 0.0
C3898 C 0.21114 0.59366 0.29954 0.0
C3899 C 0.20551 0.61277 0.31749 0.0
C3900 C 0.20957 0.60416 0.31308 0.0
C3901 C 0.22242 0.57997 0.29994 0.0
C3902 C 0.21777 0.58814 0.30455 0.0
H3903 H 0.19769 0.62065 0.33882 0.0
H3904 H 0.20365 0.60639 0.33143 0.0
H3905 H 0.20196 0.60561 0.29971 0.0
H3906 H 0.23287 0.57415 0.2791 0.0
H3907 H 0.22447 0.58711 0.2864 0.0
C3908 C 0.8883 0.70216 0.30114 0.0
C3909 C 0.88777 0.70028 0.31094 0.0
C3910 C 0.89592 0.70741 0.29737 0.0
C3911 C 0.92072 0.71501 0.30248 0.0
H3912 H 0.91599 0.73354 0.2826 0.0
C3913 C 0.94981 0.74121 0.28863 0.0
C3914 C 0.94991 0.74319 0.27882 0.0
C3915 C 0.94242 0.73578 0.29264 0.0
C3916 C 0.91746 0.72831 0.28806 0.0
H3917 H 0.89492 0.70245 0.32447 0.0
H3918 H 0.90816 0.71175 0.31791 0.0
H3919 H 0.9027 0.72464 0.28947 0.0
H3920 H 0.94228 0.74094 0.26555 0.0
H3921 H 0.92956 0.73131 0.2725 0.0
H3922 H 0.93549 0.7187 0.30106 0.0
C3923 C 0.9027 0.70907 0.31312 0.0
C3924 C 0.90983 0.72321 0.29201 0.0
C3925 C 0.89505 0.70383 0.3169 0.0
C3926 C 0.94252 0.73946 0.27311 0.0
C3927 C 0.93514 0.73405 0.27712 0.0
C3928 C 0.92836 0.72012 0.29852 0.0
C3929 C 0.90323 0.71092 0.30331 0.0
C3930 C 0.91136 0.71647 0.29925 0.0
C3931 C 0.93493 0.73223 0.28695 0.0
C3932 C 0.92683 0.72681 0.29123 0.0
H3933 H 0.88276 0.69962 0.29635 0.0
H3934 H 0.89614 0.70862 0.28977 0.0
H3935 H 0.92216 0.70979 0.30796 0.0
H3936 H 0.95543 0.7439 0.29322 0.0
H3937 H 0.94246 0.73457 0.30024 0.0
C3938 C 0.83822 0.39078 0.30986 0.0
C3939 C 0.83282 0.3833 0.31386 0.0
C3940 C 0.83381 0.3989 0.30634 0.0
C3941 C 0.81155 0.41253 0.30708 0.0
H3942 H 0.82024 0.42228 0.28277 0.0
C3943 C 0.79077 0.4403 0.28489 0.0
C3944 C 0.79603 0.44698 0.27954 0.0
C3945 C 0.79535 0.43304 0.28987 0.0
C3946 C 0.81781 0.41977 0.28964 0.0
H3947 H 0.8185 0.37859 0.31738 0.0
H3948 H 0.8108 0.39278 0.31124 0.0
H3949 H 0.82799 0.40868 0.28992 0.0
H3950 H 0.81027 0.45158 0.27565 0.0
H3951 H 0.81829 0.43903 0.28442 0.0
H3952 H 0.80132 0.42363 0.30674 0.0
C3953 C 0.81848 0.39239 0.31092 0.0
C3954 C 0.82226 0.41194 0.29374 0.0
C3955 C 0.82289 0.38425 0.31444 0.0
C3956 C 0.80601 0.44646 0.27959 0.0
C3957 C 0.81059 0.43924 0.28459 0.0
C3958 C 0.8071 0.4204 0.30298 0.0
C3959 C 0.82388 0.39977 0.30672 0.0
C3960 C 0.81918 0.40821 0.3025 0.0
C3961 C 0.80532 0.43231 0.28962 0.0
C3962 C 0.81017 0.42411 0.2942 0.0
H3963 H 0.8459 0.39039 0.30948 0.0
H3964 H 0.83821 0.40452 0.30332 0.0
H3965 H 0.80907 0.4099 0.31388 0.0
H3966 H 0.78307 0.44044 0.28491 0.0
H3967 H 0.79105 0.42779 0.29358 0.0
C3968 C 0.20133 0.62455 0.69573 0.0
C3969 C 0.19455 0.62895 0.70144 0.0
C3970 C 0.20618 0.61657 0.69903 0.0
C3971 C 0.21346 0.60444 0.72104 0.0
H3972 H 0.21718 0.58284 0.70472 0.0
C3973 C 0.23107 0.57045 0.7352 0.0
C3974 C 0.23752 0.56593 0.72921 0.0
C3975 C 0.22529 0.57769 0.73173 0.0
C3976 C 0.21631 0.58885 0.70935 0.0
H3977 H 0.1874 0.62816 0.71505 0.0
H3978 H 0.19599 0.61439 0.72083 0.0
H3979 H 0.20833 0.59642 0.69879 0.0
H3980 H 0.24261 0.56529 0.71473 0.0
H3981 H 0.23281 0.5781 0.70876 0.0
H3982 H 0.2216 0.59704 0.73152 0.0
C3983 C 0.19761 0.61719 0.71383 0.0
C3984 C 0.21122 0.59663 0.70594 0.0
C3985 C 0.19271 0.62511 0.71052 0.0
C3986 C 0.23784 0.56869 0.71959 0.0
C3987 C 0.23211 0.57598 0.71613 0.0
C3988 C 0.21862 0.59671 0.72442 0.0
C3989 C 0.20441 0.61284 0.70814 0.0
C3990 C 0.20974 0.60451 0.71175 0.0
C3991 C 0.22584 0.58066 0.72218 0.0
C3992 C 0.22012 0.5888 0.71862 0.0
H3993 H 0.20305 0.62738 0.68877 0.0
H3994 H 0.21146 0.61345 0.69451 0.0
H3995 H 0.21256 0.61047 0.72565 0.0
H3996 H 0.23067 0.56861 0.74267 0.0
H3997 H 0.22044 0.58101 0.73657 0.0
C3998 C 0.1984 0.38048 0.31987 0.0
C3999 C 0.19364 0.3743 0.31357 0.0
C4000 C 0.20258 0.38894 0.31657 0.0
C4001 C 0.20173 0.40604 0.29655 0.0
H4002 H 0.22672 0.4139 0.30565 0.0
C4003 C 0.21889 0.44203 0.28575 0.0
C4004 C 0.22851 0.44184 0.28309 0.0
C4005 C 0.21456 0.43415 0.29012 0.0
C4006 C 0.21974 0.41179 0.30303 0.0
H4007 H 0.1898 0.3721 0.29879 0.0
H4008 H 0.19704 0.38685 0.29307 0.0
H4009 H 0.21937 0.39932 0.3118 0.0
H4010 H 0.24109 0.43313 0.28298 0.0
H4011 H 0.23357 0.41947 0.29065 0.0
H4012 H 0.20219 0.41838 0.28763 0.0
C4013 C 0.19739 0.38523 0.30059 0.0
C4014 C 0.21549 0.40348 0.30661 0.0
C4015 C 0.19324 0.37677 0.30388 0.0
C4016 C 0.23373 0.43362 0.28508 0.0
C4017 C 0.22941 0.42576 0.28947 0.0
C4018 C 0.20596 0.41436 0.293 0.0
C4019 C 0.20209 0.39144 0.3069 0.0
C4020 C 0.20647 0.40046 0.30335 0.0
C4021 C 0.21975 0.42589 0.29196 0.0
C4022 C 0.21505 0.4173 0.29613 0.0
H4023 H 0.19874 0.37887 0.3274 0.0
H4024 H 0.20605 0.39362 0.32163 0.0
H4025 H 0.19473 0.40397 0.29397 0.0
H4026 H 0.21469 0.44828 0.28444 0.0
H4027 H 0.20714 0.43452 0.29206 0.0
C4028 C 0.12512 0.70416 0.31925 0.0
C4029 C 0.1289 0.69672 0.31396 0.0
C4030 C 0.11746 0.70938 0.31573 0.0
C4031 C 0.09804 0.70881 0.29755 0.0
H4032 H 0.09779 0.73587 0.30206 0.0
C4033 C 0.07295 0.73473 0.27773 0.0
C4034 C 0.06886 0.74196 0.2831 0.0
C4035 C 0.07974 0.72875 0.28179 0.0
C4036 C 0.09769 0.7283 0.30083 0.0
H4037 H 0.12741 0.68886 0.30083 0.0
H4038 H 0.11435 0.69816 0.29455 0.0
H4039 H 0.11075 0.72648 0.30845 0.0
H4040 H 0.06841 0.74821 0.29711 0.0
H4041 H 0.08034 0.73789 0.30411 0.0
H4042 H 0.08507 0.71074 0.28972 0.0
C4043 C 0.11719 0.69988 0.30151 0.0
C4044 C 0.10513 0.7229 0.30451 0.0
C4045 C 0.1248 0.69462 0.30506 0.0
C4046 C 0.07154 0.74286 0.2927 0.0
C4047 C 0.07837 0.73694 0.29673 0.0
C4048 C 0.09065 0.71424 0.29379 0.0
C4049 C 0.11342 0.70734 0.30678 0.0
C4050 C 0.10541 0.71307 0.30293 0.0
C4051 C 0.08265 0.7299 0.29128 0.0
C4052 C 0.09039 0.72405 0.2954 0.0
H4053 H 0.12814 0.70608 0.32607 0.0
H4054 H 0.11469 0.71498 0.32006 0.0
H4055 H 0.09792 0.70125 0.2963 0.0
H4056 H 0.07117 0.73389 0.27029 0.0
H4057 H 0.08296 0.72345 0.27738 0.0
C4058 C 0.81587 0.62373 0.32761 0.0
C4059 C 0.81952 0.63159 0.32253 0.0
C4060 C 0.81275 0.61556 0.32287 0.0
C4061 C 0.81463 0.60282 0.30009 0.0
H4062 H 0.79105 0.59064 0.30809 0.0
C4063 C 0.80089 0.5676 0.28371 0.0
C4064 C 0.79114 0.5671 0.2814 0.0
C4065 C 0.80458 0.57507 0.28917 0.0
C4066 C 0.79763 0.59397 0.30575 0.0
H4067 H 0.82271 0.63699 0.30842 0.0
H4068 H 0.8173 0.62274 0.30016 0.0
H4069 H 0.79707 0.60453 0.31654 0.0
H4070 H 0.77766 0.57416 0.28303 0.0
H4071 H 0.78407 0.58709 0.29258 0.0
H4072 H 0.81506 0.59237 0.28916 0.0
C4073 C 0.81697 0.62285 0.30784 0.0
C4074 C 0.80114 0.60188 0.31065 0.0
C4075 C 0.82007 0.63102 0.31258 0.0
C4076 C 0.78516 0.57419 0.28482 0.0
C4077 C 0.78885 0.58163 0.29029 0.0
C4078 C 0.81113 0.59488 0.29521 0.0
C4079 C 0.81322 0.61504 0.31292 0.0
C4080 C 0.80965 0.60644 0.30785 0.0
C4081 C 0.79861 0.58222 0.29246 0.0
C4082 C 0.80255 0.5904 0.29793 0.0
H4083 H 0.8155 0.62384 0.33529 0.0
H4084 H 0.81005 0.60962 0.32702 0.0
H4085 H 0.82125 0.6061 0.29781 0.0
H4086 H 0.80568 0.5622 0.28131 0.0
H4087 H 0.81211 0.57524 0.29083 0.0
C4088 C 0.89724 0.31316 0.31233 0.0
C4089 C 0.89419 0.30893 0.32089 0.0
C4090 C 0.9048 0.3094 0.30726 0.0
C4091 C 0.91859 0.28734 0.30464 0.0
H4092 H 0.93625 0.30396 0.29121 0.0
C4093 C 0.95207 0.27333 0.28608 0.0
C4094 C 0.95367 0.27668 0.27678 0.0
C4095 C 0.94525 0.27751 0.29183 0.0
C4096 C 0.93134 0.29923 0.29488 0.0
H4097 H 0.89678 0.29735 0.33076 0.0
H4098 H 0.91014 0.29104 0.32213 0.0
H4099 H 0.92356 0.31076 0.30057 0.0
H4100 H 0.94931 0.28715 0.26631 0.0
H4101 H 0.93761 0.29452 0.2764 0.0
H4102 H 0.92645 0.27582 0.29899 0.0
C4103 C 0.90658 0.29717 0.31924 0.0
C4104 C 0.92404 0.30312 0.30023 0.0
C4105 C 0.89898 0.30089 0.32427 0.0
C4106 C 0.94843 0.28447 0.27348 0.0
C4107 C 0.94168 0.28869 0.27925 0.0
C4108 C 0.92594 0.28346 0.29936 0.0
C4109 C 0.90957 0.30134 0.31063 0.0
C4110 C 0.91752 0.29722 0.30513 0.0
C4111 C 0.93993 0.28519 0.28845 0.0
C4112 C 0.93236 0.28935 0.29437 0.0
H4113 H 0.89382 0.31942 0.30955 0.0
H4114 H 0.90681 0.31275 0.30061 0.0
H4115 H 0.91363 0.28256 0.30816 0.0
H4116 H 0.95607 0.26745 0.28894 0.0
H4117 H 0.94416 0.27473 0.29894 0.0
C4118 C 0.81655 0.38583 0.70244 0.0
C4119 C 0.82336 0.38104 0.70795 0.0
C4120 C 0.81216 0.39394 0.70589 0.0
C4121 C 0.8148 0.41261 0.72433 0.0
H4122 H 0.78797 0.4163 0.71934 0.0
C4123 C 0.79568 0.44615 0.73701 0.0
C4124 C 0.78648 0.44484 0.74069 0.0
C4125 C 0.80016 0.43878 0.73228 0.0
C4126 C 0.79545 0.41536 0.72086 0.0
H4127 H 0.831 0.3812 0.7214 0.0
H4128 H 0.82314 0.39506 0.72753 0.0
H4129 H 0.79579 0.40257 0.71282 0.0
H4130 H 0.7748 0.43474 0.74232 0.0
H4131 H 0.78261 0.4219 0.73421 0.0
H4132 H 0.81438 0.42518 0.73269 0.0
C4133 C 0.82128 0.39266 0.72047 0.0
C4134 C 0.79998 0.40753 0.71701 0.0
C4135 C 0.82569 0.3846 0.717 0.0
C4136 C 0.78182 0.43604 0.73943 0.0
C4137 C 0.78631 0.42867 0.73475 0.0
C4138 C 0.81027 0.42041 0.72822 0.0
C4139 C 0.81446 0.39745 0.71497 0.0
C4140 C 0.8097 0.406 0.71875 0.0
C4141 C 0.79557 0.4299 0.73117 0.0
C4142 C 0.80051 0.42185 0.72661 0.0
H4143 H 0.8145 0.38327 0.69548 0.0
H4144 H 0.80703 0.39749 0.70141 0.0
H4145 H 0.82233 0.41176 0.72571 0.0
H4146 H 0.79942 0.45288 0.73779 0.0
H4147 H 0.80722 0.44006 0.72948 0.0
C4148 C 0.12712 0.30319 0.69546 0.0
C4149 C 0.13621 0.3025 0.69963 0.0
C4150 C 0.11907 0.29968 0.70019 0.0
C4151 C 0.11009 0.2932 0.72396 0.0
H4152 H 0.09163 0.2779 0.71005 0.0
C4153 C 0.08078 0.27115 0.74286 0.0
C4154 C 0.07182 0.27016 0.73843 0.0
C4155 C 0.08835 0.27565 0.73817 0.0
C4156 C 0.09662 0.28229 0.71402 0.0
H4157 H 0.14392 0.29777 0.71213 0.0
H4158 H 0.12986 0.29163 0.72039 0.0
H4159 H 0.10534 0.28472 0.70181 0.0
H4160 H 0.06374 0.27336 0.72568 0.0
H4161 H 0.07691 0.28136 0.71752 0.0
H4162 H 0.10137 0.29082 0.73617 0.0
C4163 C 0.12897 0.29489 0.71346 0.0
C4164 C 0.1045 0.28618 0.70929 0.0
C4165 C 0.13704 0.29833 0.70869 0.0
C4166 C 0.07058 0.27392 0.72924 0.0
C4167 C 0.07815 0.27848 0.72456 0.0
C4168 C 0.10217 0.28937 0.72869 0.0
C4169 C 0.1199 0.29549 0.70924 0.0
C4170 C 0.11136 0.29161 0.71422 0.0
C4171 C 0.08716 0.27933 0.72892 0.0
C4172 C 0.09537 0.28379 0.7238 0.0
H4173 H 0.12625 0.30629 0.68845 0.0
H4174 H 0.11217 0.30031 0.69679 0.0
H4175 H 0.11517 0.29747 0.72793 0.0
H4176 H 0.08202 0.26819 0.74987 0.0
H4177 H 0.09521 0.276 0.7417 0.0
C4178 C 0.88485 0.71555 0.70407 0.0
C4179 C 0.88337 0.70577 0.70275 0.0
C4180 C 0.89269 0.71893 0.70927 0.0
C4181 C 0.91664 0.71224 0.71767 0.0
H4182 H 0.91357 0.73333 0.73479 0.0
C4183 C 0.94669 0.72557 0.74299 0.0
C4184 C 0.94776 0.73544 0.74401 0.0
C4185 C 0.93893 0.72171 0.73797 0.0
C4186 C 0.91458 0.7275 0.72996 0.0
H4187 H 0.88903 0.69187 0.70584 0.0
H4188 H 0.90263 0.69776 0.71505 0.0
H4189 H 0.89982 0.72703 0.72616 0.0
H4190 H 0.94143 0.74898 0.74057 0.0
H4191 H 0.92808 0.74228 0.73167 0.0
H4192 H 0.93143 0.71275 0.72148 0.0
C4193 C 0.89776 0.70282 0.71198 0.0
C4194 C 0.90669 0.72389 0.72501 0.0
C4195 C 0.88991 0.69944 0.70679 0.0
C4196 C 0.94092 0.74135 0.73982 0.0
C4197 C 0.93318 0.7375 0.73483 0.0
C4198 C 0.92455 0.71587 0.72263 0.0
C4199 C 0.89925 0.71261 0.71328 0.0
C4200 C 0.90763 0.71625 0.71876 0.0
C4201 C 0.93204 0.72764 0.7339 0.0
C4202 C 0.92362 0.72359 0.72878 0.0
H4203 H 0.8799 0.72062 0.70115 0.0
H4204 H 0.89367 0.72651 0.71004 0.0
H4205 H 0.91764 0.70643 0.71282 0.0
H4206 H 0.95186 0.72082 0.74607 0.0
H4207 H 0.93824 0.71408 0.73745 0.0
C4208 C 0.72014 0.19301 0.63127 0.0
C4209 C 0.71152 0.19586 0.63529 0.0
C4210 C 0.72364 0.19739 0.62304 0.0
C4211 C 0.72149 0.21922 0.60832 0.0
H4212 H 0.73489 0.20427 0.58989 0.0
C4213 C 0.74423 0.23638 0.5786 0.0
C4214 C 0.74474 0.23181 0.56979 0.0
C4215 C 0.73942 0.23211 0.5862 0.0
C4216 C 0.73106 0.20855 0.59488 0.0
H4217 H 0.69987 0.20565 0.63373 0.0
H4218 H 0.70581 0.21308 0.61921 0.0
H4219 H 0.72785 0.19652 0.60368 0.0
H4220 H 0.74028 0.21933 0.56195 0.0
H4221 H 0.7317 0.21195 0.57516 0.0
H4222 H 0.72451 0.23122 0.59939 0.0
C4223 C 0.70995 0.20754 0.62252 0.0
C4224 C 0.72714 0.20412 0.60289 0.0
C4225 C 0.70647 0.20319 0.6308 0.0
C4226 C 0.7401 0.22298 0.56868 0.0
C4227 C 0.73522 0.21874 0.57628 0.0
C4228 C 0.72537 0.22365 0.60027 0.0
C4229 C 0.71859 0.20471 0.61853 0.0
C4230 C 0.72239 0.2094 0.60978 0.0
C4231 C 0.73492 0.22318 0.58519 0.0
C4232 C 0.7303 0.2184 0.59348 0.0
H4233 H 0.72417 0.18731 0.63442 0.0
H4234 H 0.73038 0.1951 0.62028 0.0
H4235 H 0.71797 0.22355 0.61349 0.0
H4236 H 0.74786 0.24311 0.57973 0.0
H4237 H 0.7395 0.23569 0.59298 0.0
C4238 C 0.30167 0.18161 0.63045 0.0
C4239 C 0.31042 0.18489 0.63418 0.0
C4240 C 0.29781 0.18569 0.62224 0.0
C4241 C 0.29919 0.20743 0.60725 0.0
H4242 H 0.28502 0.19184 0.58932 0.0
C4243 C 0.28417 0.22239 0.5719 0.0
C4244 C 0.27459 0.22003 0.56992 0.0
C4245 C 0.28909 0.21781 0.57923 0.0
C4246 C 0.28893 0.19629 0.59429 0.0
H4247 H 0.32196 0.1951 0.63212 0.0
H4248 H 0.31538 0.202 0.61764 0.0
H4249 H 0.29266 0.18444 0.60303 0.0
H4250 H 0.26275 0.21089 0.57416 0.0
H4251 H 0.27141 0.2028 0.58676 0.0
H4252 H 0.29547 0.21926 0.59844 0.0
C4253 C 0.31142 0.19636 0.62116 0.0
C4254 C 0.29328 0.19206 0.60217 0.0
C4255 C 0.31525 0.19231 0.62941 0.0
C4256 C 0.27016 0.2128 0.57532 0.0
C4257 C 0.27511 0.20816 0.58259 0.0
C4258 C 0.2949 0.21164 0.59932 0.0
C4259 C 0.30262 0.19313 0.61748 0.0
C4260 C 0.29838 0.19758 0.60883 0.0
C4261 C 0.2846 0.2107 0.5847 0.0
C4262 C 0.28963 0.20614 0.59281 0.0
H4263 H 0.29781 0.17582 0.63382 0.0
H4264 H 0.29097 0.18309 0.61972 0.0
H4265 H 0.30292 0.21194 0.61228 0.0
H4266 H 0.28787 0.22781 0.5678 0.0
H4267 H 0.29644 0.21983 0.58062 0.0
C4268 C 0.30011 0.81599 0.63536 0.0
C4269 C 0.30965 0.81913 0.63576 0.0
C4270 C 0.29657 0.81121 0.62739 0.0
C4271 C 0.30103 0.80748 0.60187 0.0
H4272 H 0.28412 0.78575 0.60531 0.0
C4273 C 0.28847 0.78366 0.5706 0.0
C4274 C 0.279 0.78027 0.57074 0.0
C4275 C 0.29235 0.78852 0.57839 0.0
C4276 C 0.28874 0.79188 0.6042 0.0
H4277 H 0.32293 0.81974 0.62802 0.0
H4278 H 0.31677 0.8113 0.61415 0.0
H4279 H 0.29064 0.79388 0.61915 0.0
H4280 H 0.26621 0.77938 0.57926 0.0
H4281 H 0.27285 0.78806 0.59265 0.0
H4282 H 0.29907 0.80551 0.58691 0.0
C4283 C 0.31202 0.8126 0.61999 0.0
C4284 C 0.29249 0.79653 0.61216 0.0
C4285 C 0.31557 0.81735 0.62799 0.0
C4286 C 0.27348 0.78199 0.57882 0.0
C4287 C 0.27735 0.78685 0.58658 0.0
C4288 C 0.29725 0.80284 0.59391 0.0
C4289 C 0.30247 0.80947 0.61959 0.0
C4290 C 0.29865 0.80442 0.6111 0.0
C4291 C 0.28685 0.79011 0.58652 0.0
C4292 C 0.29102 0.795 0.59497 0.0
H4293 H 0.29538 0.81716 0.64125 0.0
H4294 H 0.28916 0.80899 0.62729 0.0
H4295 H 0.30566 0.8136 0.6008 0.0
H4296 H 0.29291 0.78254 0.56447 0.0
H4297 H 0.29972 0.79086 0.57812 0.0
C4298 C 0.71194 0.81009 0.63236 0.0
C4299 C 0.70998 0.81983 0.63223 0.0
C4300 C 0.71571 0.80572 0.62437 0.0
C4301 C 0.72891 0.81115 0.60226 0.0
H4302 H 0.72099 0.78566 0.59534 0.0
C4303 C 0.74232 0.79319 0.56819 0.0
C4304 C 0.7451 0.78369 0.56913 0.0
C4305 C 0.73745 0.79763 0.57551 0.0
C4306 C 0.72333 0.79276 0.59722 0.0
H4307 H 0.71017 0.83253 0.62346 0.0
H4308 H 0.71669 0.82491 0.60952 0.0
H4309 H 0.7136 0.79332 0.60882 0.0
H4310 H 0.74494 0.77147 0.57859 0.0
H4311 H 0.73641 0.77918 0.59127 0.0
H4312 H 0.73867 0.81057 0.59069 0.0
C4313 C 0.7155 0.82068 0.61587 0.0
C4314 C 0.7191 0.79715 0.60496 0.0
C4315 C 0.71175 0.82505 0.62386 0.0
C4316 C 0.74275 0.77872 0.57752 0.0
C4317 C 0.73787 0.78315 0.58482 0.0
C4318 C 0.73312 0.80677 0.59451 0.0
C4319 C 0.71759 0.81097 0.61604 0.0
C4320 C 0.72188 0.80638 0.60762 0.0
C4321 C 0.73523 0.79269 0.58395 0.0
C4322 C 0.73043 0.7975 0.59193 0.0
H4323 H 0.71078 0.80588 0.63873 0.0
H4324 H 0.71737 0.79826 0.62481 0.0
H4325 H 0.73134 0.81821 0.60419 0.0
H4326 H 0.74391 0.79719 0.56179 0.0
H4327 H 0.73541 0.80494 0.57456 0.0
C4328 C 0.71368 0.82069 0.39257 0.0
C4329 C 0.70605 0.81665 0.38742 0.0
C4330 C 0.71753 0.81601 0.40046 0.0
C4331 C 0.71236 0.7967 0.41795 0.0
H4332 H 0.73966 0.7978 0.42206 0.0
C4333 C 0.73209 0.77194 0.44419 0.0
C4334 C 0.73939 0.77597 0.44983 0.0
C4335 C 0.7277 0.77724 0.43701 0.0
C4336 C 0.73201 0.79752 0.42107 0.0
H4337 H 0.69642 0.80449 0.38667 0.0
H4338 H 0.70334 0.79617 0.40018 0.0
H4339 H 0.73272 0.80625 0.40861 0.0
H4340 H 0.74754 0.78889 0.45247 0.0
H4341 H 0.74 0.79806 0.43982 0.0
H4342 H 0.71173 0.78777 0.43032 0.0
C4343 C 0.70626 0.80306 0.39823 0.0
C4344 C 0.72802 0.80237 0.41337 0.0
C4345 C 0.70237 0.80778 0.39038 0.0
C4346 C 0.74207 0.78549 0.44818 0.0
C4347 C 0.73774 0.79076 0.44094 0.0
C4348 C 0.71637 0.79178 0.42562 0.0
C4349 C 0.7139 0.80711 0.40338 0.0
C4350 C 0.71814 0.80202 0.41168 0.0
C4351 C 0.73056 0.78667 0.43523 0.0
C4352 C 0.72624 0.79212 0.42725 0.0
H4353 H 0.7168 0.82745 0.39045 0.0
H4354 H 0.72333 0.81941 0.40431 0.0
H4355 H 0.70471 0.7964 0.417 0.0
H4356 H 0.72994 0.76459 0.44511 0.0
H4357 H 0.72227 0.77385 0.43265 0.0
C4358 C 0.70511 0.21428 0.38381 0.0
C4359 C 0.7022 0.2047 0.38342 0.0
C4360 C 0.70992 0.21781 0.39178 0.0
C4361 C 0.7237 0.21086 0.41317 0.0
H4362 H 0.71601 0.23544 0.42218 0.0
C4363 C 0.74451 0.23217 0.44198 0.0
C4364 C 0.7392 0.23748 0.44842 0.0
C4365 C 0.74001 0.22743 0.43445 0.0
C4366 C 0.71819 0.22853 0.41983 0.0
H4367 H 0.70226 0.1913 0.39106 0.0
H4368 H 0.71068 0.19749 0.40499 0.0
H4369 H 0.70831 0.22868 0.40822 0.0
H4370 H 0.72493 0.24148 0.45229 0.0
H4371 H 0.71708 0.23319 0.43921 0.0
H4372 H 0.73353 0.2107 0.42489 0.0
C4373 C 0.7093 0.20224 0.39908 0.0
C4374 C 0.71386 0.2247 0.41173 0.0
C4375 C 0.70447 0.19869 0.39109 0.0
C4376 C 0.72925 0.23761 0.44736 0.0
C4377 C 0.72475 0.23287 0.43985 0.0
C4378 C 0.72807 0.21471 0.42127 0.0
C4379 C 0.71196 0.21188 0.39958 0.0
C4380 C 0.71658 0.21584 0.40827 0.0
C4381 C 0.73009 0.22788 0.43318 0.0
C4382 C 0.72536 0.2236 0.4247 0.0
H4383 H 0.70366 0.21906 0.37795 0.0
H4384 H 0.71205 0.22523 0.39183 0.0
H4385 H 0.72601 0.20404 0.41065 0.0
H4386 H 0.75219 0.23201 0.44253 0.0
H4387 H 0.74434 0.22373 0.4294 0.0
C4388 C 0.32872 0.19803 0.39721 0.0
C4389 C 0.32414 0.19624 0.38848 0.0
C4390 C 0.32362 0.20137 0.40495 0.0
C4391 C 0.3018 0.21421 0.41067 0.0
H4392 H 0.30668 0.20522 0.43631 0.0
C4393 C 0.27941 0.22662 0.44218 0.0
C4394 C 0.28427 0.22884 0.45066 0.0
C4395 C 0.28401 0.22199 0.43483 0.0
C4396 C 0.30529 0.20788 0.42921 0.0
H4397 H 0.31056 0.19651 0.38108 0.0
H4398 H 0.30164 0.20223 0.39462 0.0
H4399 H 0.31517 0.19833 0.42304 0.0
H4400 H 0.29776 0.22765 0.45812 0.0
H4401 H 0.30585 0.21977 0.44519 0.0
H4402 H 0.29204 0.22383 0.41679 0.0
C4403 C 0.30921 0.20112 0.39545 0.0
C4404 C 0.31016 0.20392 0.4216 0.0
C4405 C 0.3143 0.19774 0.38772 0.0
C4406 C 0.29382 0.22614 0.45166 0.0
C4407 C 0.29843 0.22152 0.44428 0.0
C4408 C 0.29696 0.21818 0.41826 0.0
C4409 C 0.31382 0.20305 0.40414 0.0
C4410 C 0.30848 0.20705 0.41224 0.0
C4411 C 0.29361 0.21949 0.43572 0.0
C4412 C 0.29865 0.21508 0.42764 0.0
H4413 H 0.33627 0.19685 0.39807 0.0
H4414 H 0.32741 0.20286 0.41151 0.0
H4415 H 0.30046 0.21691 0.40357 0.0
H4416 H 0.27209 0.22868 0.4411 0.0
H4417 H 0.28003 0.22042 0.4284 0.0
C4418 C 0.3135 0.82622 0.39238 0.0
C4419 C 0.31475 0.82104 0.384 0.0
C4420 C 0.30957 0.82188 0.40045 0.0
C4421 C 0.30443 0.79837 0.4115 0.0
H4422 H 0.28609 0.81236 0.42602 0.0
C4423 C 0.27989 0.78059 0.43944 0.0
C4424 C 0.27802 0.78557 0.44782 0.0
C4425 C 0.28499 0.78489 0.43204 0.0
C4426 C 0.2913 0.8084 0.42213 0.0
H4427 H 0.31286 0.80723 0.37757 0.0
H4428 H 0.30596 0.79968 0.39161 0.0
H4429 H 0.29376 0.81986 0.41238 0.0
H4430 H 0.28033 0.79894 0.45505 0.0
H4431 H 0.28922 0.80645 0.44212 0.0
H4432 H 0.30186 0.78686 0.4212 0.0
C4433 C 0.30815 0.80706 0.392 0.0
C4434 C 0.2957 0.8127 0.41429 0.0
C4435 C 0.3121 0.81139 0.38394 0.0
C4436 C 0.28152 0.79493 0.44866 0.0
C4437 C 0.28661 0.79924 0.44124 0.0
C4438 C 0.30001 0.79406 0.41933 0.0
C4439 C 0.30678 0.81226 0.40035 0.0
C4440 C 0.30229 0.80773 0.40885 0.0
C4441 C 0.28834 0.7943 0.43281 0.0
C4442 C 0.29335 0.799 0.42471 0.0
H4443 H 0.31562 0.83362 0.39273 0.0
H4444 H 0.30879 0.82607 0.4068 0.0
H4445 H 0.30958 0.79438 0.40757 0.0
H4446 H 0.27715 0.77344 0.43845 0.0
H4447 H 0.28606 0.78092 0.4256 0.0
C4448 C 0.63178 0.20027 0.70346 0.0
C4449 C 0.63716 0.20539 0.69671 0.0
C4450 C 0.62336 0.20395 0.70706 0.0
C4451 C 0.60508 0.22211 0.7019 0.0
H4452 H 0.59929 0.21935 0.72867 0.0
C4453 C 0.57769 0.24522 0.72063 0.0
C4454 C 0.57147 0.24088 0.72721 0.0
C4455 C 0.58514 0.24018 0.71668 0.0
C4456 C 0.60074 0.22007 0.72115 0.0
H4457 H 0.63775 0.21837 0.68835 0.0
H4458 H 0.62334 0.22491 0.69483 0.0
H4459 H 0.61344 0.21195 0.7223 0.0
H4460 H 0.56822 0.22769 0.73464 0.0
H4461 H 0.58137 0.21895 0.72784 0.0
H4462 H 0.59251 0.23043 0.70081 0.0
C4463 C 0.62551 0.21797 0.69726 0.0
C4464 C 0.60885 0.21582 0.71749 0.0
C4465 C 0.63389 0.21427 0.69364 0.0
C4466 C 0.57291 0.23132 0.72969 0.0
C4467 C 0.58044 0.22629 0.72579 0.0
C4468 C 0.59702 0.2264 0.70557 0.0
C4469 C 0.62011 0.21286 0.704 0.0
C4470 C 0.61119 0.21689 0.70783 0.0
C4471 C 0.58664 0.23068 0.71925 0.0
C4472 C 0.59482 0.22553 0.71526 0.0
H4473 H 0.63411 0.19344 0.70606 0.0
H4474 H 0.61935 0.19978 0.71218 0.0
H4475 H 0.60651 0.2229 0.69439 0.0
H4476 H 0.577 0.25262 0.71871 0.0
H4477 H 0.58989 0.24382 0.7118 0.0
C4478 C 0.31111 0.12704 0.71166 0.0
C4479 C 0.32094 0.12639 0.71009 0.0
C4480 C 0.306 0.11943 0.71565 0.0
C4481 C 0.30668 0.09355 0.71968 0.0
H4482 H 0.28789 0.09867 0.7389 0.0
C4483 C 0.28724 0.06367 0.74092 0.0
C4484 C 0.2775 0.06489 0.74267 0.0
C4485 C 0.29275 0.07103 0.73694 0.0
C4486 C 0.29303 0.09711 0.73347 0.0
H4487 H 0.33307 0.11716 0.71134 0.0
H4488 H 0.32416 0.10391 0.7184 0.0
H4489 H 0.29703 0.11174 0.73192 0.0
H4490 H 0.26598 0.07491 0.74171 0.0
H4491 H 0.27548 0.08758 0.73458 0.0
H4492 H 0.30263 0.07891 0.72119 0.0
C4493 C 0.3204 0.11029 0.71649 0.0
C4494 C 0.29828 0.10462 0.72947 0.0
C4495 C 0.32552 0.11792 0.71254 0.0
C4496 C 0.27342 0.07364 0.74033 0.0
C4497 C 0.27891 0.08098 0.73636 0.0
C4498 C 0.30141 0.08603 0.72367 0.0
C4499 C 0.31058 0.11097 0.71814 0.0
C4500 C 0.30513 0.10294 0.72249 0.0
C4501 C 0.28865 0.0798 0.73466 0.0
C4502 C 0.29448 0.08773 0.73057 0.0
H4503 H 0.30738 0.13349 0.70994 0.0
H4504 H 0.29843 0.12016 0.71673 0.0
H4505 H 0.31184 0.09202 0.71425 0.0
H4506 H 0.29061 0.057 0.74258 0.0
H4507 H 0.30025 0.0699 0.7358 0.0
C4508 C 0.38332 0.80488 0.70654 0.0
C4509 C 0.38393 0.81015 0.69804 0.0
C4510 C 0.39149 0.80118 0.71079 0.0
C4511 C 0.41577 0.79376 0.70532 0.0
H4512 H 0.41962 0.79504 0.73257 0.0
C4513 C 0.44989 0.77957 0.72324 0.0
C4514 C 0.44878 0.77465 0.73189 0.0
C4515 C 0.44233 0.78461 0.71925 0.0
C4516 C 0.41862 0.79452 0.72496 0.0
H4517 H 0.39361 0.81564 0.68734 0.0
H4518 H 0.40789 0.80917 0.69477 0.0
H4519 H 0.40571 0.80237 0.72535 0.0
H4520 H 0.43881 0.77114 0.7431 0.0
H4521 H 0.42563 0.77979 0.73614 0.0
H4522 H 0.42852 0.78572 0.7049 0.0
C4523 C 0.40108 0.8079 0.69813 0.0
C4524 C 0.41065 0.79875 0.72083 0.0
C4525 C 0.39291 0.81167 0.69392 0.0
C4526 C 0.43996 0.77499 0.73652 0.0
C4527 C 0.4324 0.77997 0.73251 0.0
C4528 C 0.4237 0.78947 0.70945 0.0
C4529 C 0.40046 0.80259 0.7066 0.0
C4530 C 0.4091 0.79837 0.71096 0.0
C4531 C 0.43345 0.7848 0.72379 0.0
C4532 C 0.42521 0.78974 0.71934 0.0
H4533 H 0.37651 0.80364 0.70993 0.0
H4534 H 0.39077 0.79705 0.71727 0.0
H4535 H 0.41472 0.79324 0.69771 0.0
H4536 H 0.45662 0.77952 0.71955 0.0
H4537 H 0.44347 0.78837 0.71261 0.0
C4538 C 0.7 0.88323 0.71553 0.0
C4539 C 0.69946 0.88151 0.70571 0.0
C4540 C 0.70465 0.89134 0.719 0.0
C4541 C 0.7226 0.90963 0.7125 0.0
H4542 H 0.71187 0.92342 0.73346 0.0
C4543 C 0.73945 0.94477 0.7255 0.0
C4544 C 0.74027 0.94595 0.73538 0.0
C4545 C 0.73391 0.93738 0.72173 0.0
C4546 C 0.715 0.91961 0.72766 0.0
H4547 H 0.70331 0.88711 0.69185 0.0
H4548 H 0.71145 0.90124 0.69791 0.0
H4549 H 0.70344 0.90954 0.72719 0.0
H4550 H 0.73574 0.94036 0.74903 0.0
H4551 H 0.72608 0.92745 0.74246 0.0
H4552 H 0.73421 0.91962 0.71301 0.0
C4553 C 0.70837 0.89623 0.70293 0.0
C4554 C 0.71017 0.91164 0.72407 0.0
C4555 C 0.70371 0.88812 0.69945 0.0
C4556 C 0.73517 0.93973 0.74138 0.0
C4557 C 0.72963 0.93232 0.73761 0.0
C4558 C 0.72743 0.91758 0.71609 0.0
C4559 C 0.70889 0.89795 0.71275 0.0
C4560 C 0.71393 0.90654 0.71646 0.0
C4561 C 0.72905 0.93095 0.72773 0.0
C4562 C 0.72372 0.92266 0.72374 0.0
H4563 H 0.69695 0.87822 0.72056 0.0
H4564 H 0.70505 0.89235 0.72661 0.0
H4565 H 0.72577 0.90578 0.70673 0.0
H4566 H 0.74318 0.94953 0.72067 0.0
H4567 H 0.73347 0.93666 0.71408 0.0
C4568 C 0.62355 0.80385 0.32794 0.0
C4569 C 0.63196 0.80637 0.32314 0.0
C4570 C 0.61558 0.80045 0.32295 0.0
C4571 C 0.60485 0.79945 0.29881 0.0
H4572 H 0.59019 0.77845 0.30945 0.0
C4573 C 0.57031 0.78537 0.28089 0.0
C4574 C 0.56907 0.77547 0.28054 0.0
C4575 C 0.57756 0.78945 0.28645 0.0
C4576 C 0.59423 0.78429 0.30635 0.0
H4577 H 0.6386 0.8072 0.3093 0.0
H4578 H 0.62473 0.80122 0.3006 0.0
H4579 H 0.60378 0.78489 0.31823 0.0
H4580 H 0.57454 0.7621 0.28575 0.0
H4581 H 0.58715 0.76919 0.29541 0.0
H4582 H 0.59546 0.79865 0.2868 0.0
C4583 C 0.62423 0.80204 0.30821 0.0
C4584 C 0.60196 0.78806 0.31144 0.0
C4585 C 0.63219 0.80545 0.31321 0.0
C4586 C 0.57517 0.76976 0.28599 0.0
C4587 C 0.58242 0.77383 0.29153 0.0
C4588 C 0.59711 0.79567 0.29372 0.0
C4589 C 0.61583 0.79947 0.31302 0.0
C4590 C 0.60741 0.79565 0.30772 0.0
C4591 C 0.58376 0.78373 0.29178 0.0
C4592 C 0.59174 0.788 0.29739 0.0
H4593 H 0.62308 0.80461 0.33557 0.0
H4594 H 0.60918 0.79869 0.32686 0.0
H4595 H 0.60881 0.80537 0.29578 0.0
H4596 H 0.56566 0.78998 0.27687 0.0
H4597 H 0.57829 0.7971 0.2866 0.0
C4598 C 0.70237 0.12171 0.32406 0.0
C4599 C 0.70341 0.13062 0.3196 0.0
C4600 C 0.7055 0.11351 0.31962 0.0
C4601 C 0.71169 0.10373 0.29626 0.0
H4602 H 0.72655 0.08594 0.31105 0.0
C4603 C 0.7336 0.07444 0.27879 0.0
C4604 C 0.73448 0.06567 0.2835 0.0
C4605 C 0.72906 0.08198 0.28313 0.0
C4606 C 0.72228 0.09073 0.30683 0.0
H4607 H 0.70835 0.13785 0.30688 0.0
H4608 H 0.71384 0.12353 0.29914 0.0
H4609 H 0.71999 0.09977 0.31872 0.0
H4610 H 0.73099 0.05788 0.29636 0.0
H4611 H 0.72291 0.071 0.3039 0.0
H4612 H 0.71395 0.0947 0.28437 0.0
C4613 C 0.71058 0.12289 0.30607 0.0
C4614 C 0.71853 0.09869 0.31124 0.0
C4615 C 0.70752 0.13111 0.31053 0.0
C4616 C 0.73052 0.06457 0.29259 0.0
C4617 C 0.72592 0.07211 0.29691 0.0
C4618 C 0.71538 0.09574 0.29186 0.0
C4619 C 0.70967 0.114 0.31059 0.0
C4620 C 0.71328 0.10533 0.30598 0.0
C4621 C 0.72522 0.08096 0.29228 0.0
C4622 C 0.72081 0.08918 0.29707 0.0
H4623 H 0.6993 0.12111 0.33108 0.0
H4624 H 0.70463 0.10676 0.32326 0.0
H4625 H 0.70755 0.10864 0.29204 0.0
H4626 H 0.73672 0.07559 0.27185 0.0
H4627 H 0.72882 0.08872 0.2794 0.0
C4628 C 0.39135 0.19449 0.30686 0.0
C4629 C 0.38918 0.19387 0.31659 0.0
C4630 C 0.39912 0.19994 0.30371 0.0
C4631 C 0.41498 0.21984 0.3107 0.0
H4632 H 0.43106 0.21052 0.2907 0.0
C4633 C 0.44874 0.24039 0.2989 0.0
C4634 C 0.45037 0.2411 0.28908 0.0
C4635 C 0.44179 0.23415 0.30247 0.0
C4636 C 0.42659 0.21327 0.29623 0.0
H4637 H 0.39361 0.19846 0.33063 0.0
H4638 H 0.40713 0.20802 0.32512 0.0
H4639 H 0.41788 0.20067 0.2965 0.0
H4640 H 0.44603 0.23568 0.27533 0.0
H4641 H 0.43388 0.22483 0.28154 0.0
H4642 H 0.4236 0.23248 0.31037 0.0
C4643 C 0.40274 0.20436 0.31992 0.0
C4644 C 0.41903 0.20762 0.29956 0.0
C4645 C 0.39498 0.19888 0.32308 0.0
C4646 C 0.44505 0.23522 0.28294 0.0
C4647 C 0.43807 0.229 0.28651 0.0
C4648 C 0.42253 0.2255 0.30736 0.0
C4649 C 0.40491 0.20495 0.3102 0.0
C4650 C 0.4131 0.21086 0.30681 0.0
C4651 C 0.43626 0.22848 0.29631 0.0
C4652 C 0.42841 0.2223 0.30006 0.0
H4653 H 0.38695 0.19087 0.30165 0.0
H4654 H 0.40048 0.20038 0.29616 0.0
H4655 H 0.41047 0.22262 0.3162 0.0
H4656 H 0.45282 0.24472 0.30384 0.0
H4657 H 0.44072 0.23381 0.31008 0.0
C4658 C 0.31789 0.88298 0.30872 0.0
C4659 C 0.32784 0.88274 0.30976 0.0
C4660 C 0.3135 0.89092 0.30475 0.0
C4661 C 0.31736 0.91645 0.29925 0.0
H4662 H 0.29711 0.91224 0.28086 0.0
C4663 C 0.30296 0.94621 0.2747 0.0
C4664 C 0.29315 0.94616 0.27262 0.0
C4665 C 0.30701 0.93877 0.27988 0.0
C4666 C 0.30265 0.91356 0.28608 0.0
H4667 H 0.34094 0.89081 0.30768 0.0
H4668 H 0.3333 0.90459 0.30063 0.0
H4669 H 0.30445 0.89874 0.28868 0.0
H4670 H 0.27992 0.93824 0.27452 0.0
H4671 H 0.28693 0.92546 0.28374 0.0
H4672 H 0.31559 0.93129 0.29658 0.0
C4673 C 0.32888 0.89866 0.30294 0.0
C4674 C 0.30687 0.90581 0.29057 0.0
C4675 C 0.33327 0.89071 0.30688 0.0
C4676 C 0.28747 0.9386 0.27607 0.0
C4677 C 0.29152 0.93118 0.28125 0.0
C4678 C 0.31313 0.92422 0.29476 0.0
C4679 C 0.31894 0.89884 0.30175 0.0
C4680 C 0.3143 0.90714 0.29718 0.0
C4681 C 0.30136 0.9311 0.28311 0.0
C4682 C 0.30574 0.92287 0.2881 0.0
H4683 H 0.31349 0.87695 0.31078 0.0
H4684 H 0.30582 0.89086 0.30404 0.0
H4685 H 0.32298 0.91774 0.3044 0.0
H4686 H 0.30753 0.95196 0.27224 0.0
H4687 H 0.31462 0.93892 0.28112 0.0
C4688 C 0.70472 0.13058 0.71739 0.0
C4689 C 0.70256 0.13187 0.7077 0.0
C4690 C 0.70953 0.12253 0.72053 0.0
C4691 C 0.72505 0.1034 0.71221 0.0
H4692 H 0.71786 0.09133 0.73599 0.0
C4693 C 0.74843 0.07546 0.73076 0.0
C4694 C 0.74392 0.06772 0.73533 0.0
C4695 C 0.74312 0.08293 0.72704 0.0
C4696 C 0.7199 0.09455 0.72928 0.0
H4697 H 0.70368 0.12562 0.69375 0.0
H4698 H 0.71206 0.11158 0.69923 0.0
H4699 H 0.70903 0.10494 0.73017 0.0
H4700 H 0.73023 0.06173 0.7394 0.0
H4701 H 0.72095 0.07477 0.73288 0.0
H4702 H 0.73584 0.09294 0.71126 0.0
C4703 C 0.71016 0.11686 0.70439 0.0
C4704 C 0.71491 0.10244 0.726 0.0
C4705 C 0.70536 0.12492 0.70124 0.0
C4706 C 0.73394 0.06762 0.73601 0.0
C4707 C 0.72862 0.0751 0.73229 0.0
C4708 C 0.73004 0.09552 0.71549 0.0
C4709 C 0.7123 0.11556 0.71408 0.0
C4710 C 0.71746 0.10701 0.71745 0.0
C4711 C 0.73316 0.08288 0.7278 0.0
C4712 C 0.72758 0.09103 0.7241 0.0
H4713 H 0.70282 0.13586 0.72254 0.0
H4714 H 0.71121 0.12186 0.72802 0.0
H4715 H 0.72726 0.10679 0.70564 0.0
H4716 H 0.75611 0.07589 0.73027 0.0
H4717 H 0.74687 0.08887 0.72379 0.0
C4718 C 0.69174 0.88246 0.30361 0.0
C4719 C 0.69279 0.8803 0.31332 0.0
C4720 C 0.69606 0.89056 0.29969 0.0
C4721 C 0.71559 0.9079 0.30357 0.0
H4722 H 0.70178 0.92278 0.28493 0.0
C4723 C 0.7339 0.93581 0.27931 0.0
C4724 C 0.72907 0.94425 0.27729 0.0
C4725 C 0.72945 0.92844 0.28438 0.0
C4726 C 0.70571 0.91877 0.2902 0.0
H4727 H 0.69923 0.88505 0.32654 0.0
H4728 H 0.70684 0.89917 0.31967 0.0
H4729 H 0.69399 0.90917 0.29252 0.0
H4730 H 0.71584 0.95164 0.27927 0.0
H4731 H 0.70805 0.93875 0.28809 0.0
H4732 H 0.72731 0.91753 0.30127 0.0
C4733 C 0.70271 0.89453 0.31508 0.0
C4734 C 0.70128 0.9109 0.29447 0.0
C4735 C 0.69836 0.88643 0.31901 0.0
C4736 C 0.71972 0.94519 0.28059 0.0
C4737 C 0.71526 0.9378 0.28565 0.0
C4738 C 0.72004 0.91576 0.29928 0.0
C4739 C 0.70158 0.89671 0.30538 0.0
C4740 C 0.70619 0.90532 0.30114 0.0
C4741 C 0.72004 0.92931 0.28754 0.0
C4742 C 0.71517 0.92125 0.29248 0.0
H4743 H 0.68766 0.87781 0.29897 0.0
H4744 H 0.6952 0.89193 0.29216 0.0
H4745 H 0.7196 0.90372 0.30864 0.0
H4746 H 0.74103 0.93475 0.27673 0.0
H4747 H 0.73329 0.92195 0.28557 0.0
C4748 C 0.628 0.20405 0.3216 0.0
C4749 C 0.63264 0.19807 0.31523 0.0
C4750 C 0.61997 0.20909 0.31874 0.0
C4751 C 0.60117 0.20985 0.29998 0.0
H4752 H 0.59808 0.23558 0.30877 0.0
C4753 C 0.57467 0.23602 0.28293 0.0
C4754 C 0.56948 0.24183 0.28902 0.0
C4755 C 0.58187 0.23024 0.28649 0.0
C4756 C 0.59878 0.22836 0.30634 0.0
H4757 H 0.63229 0.19264 0.30086 0.0
H4758 H 0.61856 0.20166 0.29579 0.0
H4759 H 0.6117 0.22649 0.31421 0.0
H4760 H 0.56764 0.24581 0.30374 0.0
H4761 H 0.58033 0.23585 0.30992 0.0
H4762 H 0.58835 0.21185 0.29193 0.0
C4763 C 0.62102 0.20235 0.30306 0.0
C4764 C 0.60658 0.22313 0.30947 0.0
C4765 C 0.62901 0.19727 0.30593 0.0
C4766 C 0.57158 0.24157 0.2988 0.0
C4767 C 0.57885 0.23585 0.30236 0.0
C4768 C 0.59341 0.21511 0.29679 0.0
C4769 C 0.61638 0.20833 0.30942 0.0
C4770 C 0.60791 0.21381 0.3063 0.0
C4771 C 0.58412 0.23018 0.29623 0.0
C4772 C 0.59215 0.22444 0.29991 0.0
H4773 H 0.63064 0.20494 0.32879 0.0
H4774 H 0.61654 0.21353 0.32388 0.0
H4775 H 0.60183 0.20264 0.29752 0.0
H4776 H 0.57341 0.23615 0.27533 0.0
H4777 H 0.58589 0.22605 0.28157 0.0
C4778 C 0.31679 0.11771 0.32479 0.0
C4779 C 0.31924 0.12649 0.3206 0.0
C4780 C 0.31375 0.11007 0.31919 0.0
C4781 C 0.31399 0.10126 0.29445 0.0
H4782 H 0.29286 0.08533 0.30278 0.0
C4783 C 0.29432 0.07559 0.26921 0.0
C4784 C 0.29165 0.06656 0.27268 0.0
C4785 C 0.29801 0.0825 0.27531 0.0
C4786 C 0.29885 0.08963 0.30041 0.0
H4787 H 0.32028 0.13414 0.30722 0.0
H4788 H 0.31497 0.12086 0.29747 0.0
H4789 H 0.29868 0.09816 0.31292 0.0
H4790 H 0.29079 0.05775 0.28535 0.0
H4791 H 0.2972 0.06989 0.29604 0.0
H4792 H 0.31408 0.09281 0.28189 0.0
C4793 C 0.31556 0.11981 0.30508 0.0
C4794 C 0.30219 0.09699 0.30622 0.0
C4795 C 0.3186 0.12744 0.31067 0.0
C4796 C 0.2927 0.06465 0.28245 0.0
C4797 C 0.29637 0.07161 0.28858 0.0
C4798 C 0.31064 0.09392 0.28864 0.0
C4799 C 0.31309 0.11103 0.30926 0.0
C4800 C 0.30975 0.10295 0.30327 0.0
C4801 C 0.2991 0.08061 0.28506 0.0
C4802 C 0.30296 0.08808 0.2915 0.0
H4803 H 0.31733 0.1167 0.33241 0.0
H4804 H 0.31204 0.10338 0.32264 0.0
H4805 H 0.31995 0.10558 0.29203 0.0
H4806 H 0.2934 0.0774 0.26178 0.0
H4807 H 0.29984 0.08942 0.2724 0.0
C4808 C 0.39225 0.81043 0.31483 0.0
C4809 C 0.38736 0.80595 0.32235 0.0
C4810 C 0.4003 0.80632 0.3109 0.0
C4811 C 0.41867 0.78818 0.31587 0.0
H4812 H 0.42243 0.78937 0.28864 0.0
C4813 C 0.44499 0.7643 0.29627 0.0
C4814 C 0.45051 0.76841 0.28898 0.0
C4815 C 0.4378 0.76941 0.3006 0.0
C4816 C 0.42154 0.78907 0.29627 0.0
H4817 H 0.38728 0.79365 0.33171 0.0
H4818 H 0.40103 0.78635 0.32465 0.0
H4819 H 0.40883 0.79718 0.29559 0.0
H4820 H 0.45291 0.78129 0.28075 0.0
H4821 H 0.44024 0.79014 0.28821 0.0
H4822 H 0.43127 0.77986 0.31649 0.0
C4823 C 0.39876 0.79313 0.32188 0.0
C4824 C 0.41375 0.79357 0.30027 0.0
C4825 C 0.39075 0.79726 0.32584 0.0
C4826 C 0.44872 0.77783 0.28623 0.0
C4827 C 0.44146 0.78292 0.29051 0.0
C4828 C 0.42642 0.78363 0.31186 0.0
C4829 C 0.40366 0.7976 0.31436 0.0
C4830 C 0.41216 0.79312 0.31012 0.0
C4831 C 0.43588 0.77874 0.2977 0.0
C4832 C 0.42791 0.78397 0.30201 0.0
H4833 H 0.3898 0.81708 0.31189 0.0
H4834 H 0.40394 0.81004 0.30519 0.0
H4835 H 0.41781 0.78784 0.3235 0.0
H4836 H 0.446 0.75701 0.29846 0.0
H4837 H 0.43354 0.76595 0.30603 0.0
C4838 C 0.32837 0.89119 0.71267 0.0
C4839 C 0.32271 0.88403 0.70847 0.0
C4840 C 0.32422 0.89917 0.71661 0.0
C4841 C 0.30224 0.91324 0.71681 0.0
H4842 H 0.31181 0.92141 0.74135 0.0
C4843 C 0.28272 0.94029 0.74023 0.0
C4844 C 0.28827 0.94658 0.74573 0.0
C4845 C 0.28701 0.93315 0.735 0.0
C4846 C 0.30914 0.91934 0.73443 0.0
H4847 H 0.30821 0.87977 0.70501 0.0
H4848 H 0.30096 0.89374 0.71186 0.0
H4849 H 0.31905 0.90807 0.73353 0.0
H4850 H 0.3027 0.95062 0.74966 0.0
H4851 H 0.31019 0.93827 0.74045 0.0
H4852 H 0.29229 0.92453 0.71773 0.0
C4853 C 0.30863 0.8932 0.71203 0.0
C4854 C 0.31329 0.91166 0.72995 0.0
C4855 C 0.31279 0.88519 0.7081 0.0
C4856 C 0.29822 0.94579 0.74561 0.0
C4857 C 0.30251 0.93868 0.74035 0.0
C4858 C 0.29809 0.92097 0.72128 0.0
C4859 C 0.3143 0.90023 0.71644 0.0
C4860 C 0.30989 0.9085 0.72109 0.0
C4861 C 0.29695 0.93215 0.73512 0.0
C4862 C 0.30148 0.92411 0.73016 0.0
H4863 H 0.33604 0.89065 0.7129 0.0
H4864 H 0.32881 0.90454 0.71978 0.0
H4865 H 0.29952 0.91106 0.70993 0.0
H4866 H 0.27503 0.94063 0.74026 0.0
H4867 H 0.28249 0.92819 0.73115 0.0
C4868 C 0.63469 0.80977 0.7047 0.0
C4869 C 0.63599 0.80821 0.69494 0.0
C4870 C 0.62656 0.80627 0.70932 0.0
C4871 C 0.60771 0.78788 0.70731 0.0
H4872 H 0.59494 0.80289 0.72616 0.0
C4873 C 0.57991 0.77179 0.733 0.0
C4874 C 0.57176 0.77707 0.73493 0.0
C4875 C 0.58741 0.77574 0.72777 0.0
C4876 C 0.59837 0.79864 0.72085 0.0
H4877 H 0.62958 0.80194 0.68236 0.0
H4878 H 0.61547 0.79578 0.69043 0.0
H4879 H 0.60858 0.80964 0.71767 0.0
H4880 H 0.5651 0.79067 0.7327 0.0
H4881 H 0.57826 0.79761 0.72361 0.0
H4882 H 0.59749 0.7769 0.71045 0.0
C4883 C 0.6208 0.7996 0.69453 0.0
C4884 C 0.60625 0.80247 0.71607 0.0
C4885 C 0.62891 0.80313 0.68991 0.0
C4886 C 0.57131 0.78643 0.73145 0.0
C4887 C 0.57885 0.79041 0.72624 0.0
C4888 C 0.59986 0.78404 0.71212 0.0
C4889 C 0.61955 0.8011 0.7043 0.0
C4890 C 0.61104 0.79712 0.70926 0.0
C4891 C 0.587 0.78511 0.72435 0.0
C4892 C 0.59513 0.78935 0.71899 0.0
H4893 H 0.64005 0.81352 0.70883 0.0
H4894 H 0.62588 0.80743 0.71687 0.0
H4895 H 0.61127 0.78354 0.70217 0.0
H4896 H 0.58063 0.76464 0.73574 0.0
H4897 H 0.59365 0.77152 0.72659 0.0
C4898 C 0.39285 0.19444 0.69938 0.0
C4899 C 0.38504 0.19991 0.69653 0.0
C4900 C 0.40067 0.19866 0.70401 0.0
C4901 C 0.40775 0.21994 0.71773 0.0
H4902 H 0.43335 0.21404 0.7099 0.0
C4903 C 0.43974 0.24385 0.72732 0.0
C4904 C 0.44839 0.23965 0.72988 0.0
C4905 C 0.43216 0.23838 0.72381 0.0
C4906 C 0.42626 0.21566 0.71227 0.0
H4907 H 0.37924 0.21405 0.69653 0.0
H4908 H 0.39288 0.2214 0.70448 0.0
H4909 H 0.41979 0.20557 0.70281 0.0
H4910 H 0.45584 0.22634 0.73075 0.0
H4911 H 0.44251 0.21671 0.72466 0.0
H4912 H 0.41417 0.23008 0.72709 0.0
C4913 C 0.39296 0.21385 0.70319 0.0
C4914 C 0.41848 0.21081 0.70821 0.0
C4915 C 0.38519 0.20966 0.69853 0.0
C4916 C 0.44926 0.22979 0.72887 0.0
C4917 C 0.44165 0.22429 0.72532 0.0
C4918 C 0.4155 0.22477 0.72178 0.0
C4919 C 0.40081 0.20842 0.70597 0.0
C4920 C 0.40913 0.21301 0.71077 0.0
C4921 C 0.433 0.22853 0.72278 0.0
C4922 C 0.42484 0.22281 0.71899 0.0
H4923 H 0.39298 0.18693 0.69789 0.0
H4924 H 0.40658 0.19426 0.70612 0.0
H4925 H 0.40065 0.22167 0.72001 0.0
H4926 H 0.43876 0.2514 0.72814 0.0
H4927 H 0.42566 0.24191 0.7218 0.0
C4928 C 0.71956 0.69186 0.13393 0.0
C4929 C 0.71039 0.69385 0.13723 0.0
C4930 C 0.72304 0.69611 0.12563 0.0
C4931 C 0.71925 0.71644 0.1092 0.0
H4932 H 0.73497 0.70182 0.09241 0.0
C4933 C 0.73231 0.73094 0.07282 0.0
C4934 C 0.74197 0.72951 0.07076 0.0
C4935 C 0.72802 0.72637 0.08059 0.0
C4936 C 0.73064 0.70602 0.09706 0.0
H4937 H 0.69774 0.702 0.13433 0.0
H4938 H 0.7037 0.70921 0.1197 0.0
H4939 H 0.72831 0.69435 0.10659 0.0
H4940 H 0.75464 0.72215 0.07537 0.0
H4941 H 0.74713 0.7141 0.08876 0.0
H4942 H 0.72159 0.7281 0.09961 0.0
C4943 C 0.70826 0.70445 0.12363 0.0
C4944 C 0.72684 0.70175 0.10521 0.0
C4945 C 0.70479 0.70022 0.13197 0.0
C4946 C 0.74715 0.72328 0.07659 0.0
C4947 C 0.74285 0.71868 0.0843 0.0
C4948 C 0.72302 0.7207 0.10101 0.0
C4949 C 0.71743 0.70244 0.12034 0.0
C4950 C 0.72117 0.70692 0.11145 0.0
C4951 C 0.73326 0.72022 0.08644 0.0
C4952 C 0.72884 0.71556 0.09489 0.0
H4953 H 0.72404 0.6869 0.1377 0.0
H4954 H 0.73018 0.69449 0.12341 0.0
H4955 H 0.71503 0.72069 0.11389 0.0
H4956 H 0.72805 0.73558 0.06842 0.0
H4957 H 0.72058 0.72761 0.08198 0.0
C4958 C 0.30404 0.6868 0.13348 0.0
C4959 C 0.31375 0.68582 0.13567 0.0
C4960 C 0.30116 0.69158 0.12524 0.0
C4961 C 0.30949 0.70926 0.1076 0.0
H4962 H 0.28816 0.69974 0.09266 0.0
C4963 C 0.29837 0.72715 0.07234 0.0
C4964 C 0.28857 0.72839 0.07084 0.0
C4965 C 0.30164 0.72138 0.07976 0.0
C4966 C 0.29408 0.70254 0.0968 0.0
H4967 H 0.32806 0.68899 0.13077 0.0
H4968 H 0.32304 0.69737 0.11642 0.0
H4969 H 0.29349 0.69086 0.1066 0.0
H4970 H 0.27452 0.72442 0.07591 0.0
H4971 H 0.28021 0.71439 0.08884 0.0
H4972 H 0.31002 0.72099 0.09788 0.0
C4973 C 0.31764 0.69453 0.12115 0.0
C4974 C 0.29713 0.69745 0.10479 0.0
C4975 C 0.32052 0.68973 0.12939 0.0
C4976 C 0.28211 0.72352 0.07678 0.0
C4977 C 0.28538 0.71776 0.08421 0.0
C4978 C 0.30643 0.71435 0.09962 0.0
C4979 C 0.30793 0.69552 0.11898 0.0
C4980 C 0.30484 0.70078 0.11032 0.0
C4981 C 0.29519 0.71672 0.08587 0.0
C4982 C 0.29865 0.71108 0.09414 0.0
H4983 H 0.29863 0.68402 0.13823 0.0
H4984 H 0.29362 0.69235 0.12387 0.0
H4985 H 0.31536 0.7121 0.11177 0.0
H4986 H 0.30353 0.73068 0.0678 0.0
H4987 H 0.30924 0.7206 0.08072 0.0
C4988 C 0.30991 0.3271 0.12925 0.0
C4989 C 0.31472 0.32256 0.13677 0.0
C4990 C 0.3071 0.32207 0.12116 0.0
C4991 C 0.30227 0.29762 0.11272 0.0
H4992 H 0.30398 0.30927 0.08774 0.0
C4993 C 0.2954 0.27626 0.07854 0.0
C4994 C 0.28977 0.2805 0.07144 0.0
C4995 C 0.29875 0.28151 0.08628 0.0
C4996 C 0.30338 0.30595 0.09467 0.0
H4997 H 0.3203 0.30911 0.14161 0.0
H4998 H 0.31562 0.3004 0.12742 0.0
H4999 H 0.30925 0.31815 0.10167 0.0
H5000 H 0.28347 0.29369 0.06682 0.0
H5001 H 0.28927 0.30287 0.08039 0.0
H5002 H 0.29643 0.28542 0.10572 0.0
C5003 C 0.3139 0.30784 0.12783 0.0
C5004 C 0.30639 0.31104 0.10267 0.0
C5005 C 0.3167 0.31287 0.13593 0.0
C5006 C 0.28773 0.29019 0.0722 0.0
C5007 C 0.29112 0.29547 0.07993 0.0
C5008 C 0.29929 0.29253 0.10473 0.0
C5009 C 0.30903 0.31236 0.12035 0.0
C5010 C 0.30588 0.30694 0.1118 0.0
C5011 C 0.29658 0.29116 0.08713 0.0
C5012 C 0.29981 0.29662 0.0956 0.0
H5013 H 0.30837 0.33459 0.12959 0.0
H5014 H 0.30328 0.32577 0.11559 0.0
H5015 H 0.30159 0.2943 0.11964 0.0
H5016 H 0.29702 0.26879 0.07826 0.0
H5017 H 0.30303 0.278 0.09164 0.0
C5018 C 0.70999 0.32469 0.12794 0.0
C5019 C 0.70841 0.31935 0.13627 0.0
C5020 C 0.71329 0.32038 0.11972 0.0
C5021 C 0.71609 0.29707 0.10809 0.0
H5022 H 0.73572 0.3105 0.09393 0.0
C5023 C 0.731 0.283 0.07264 0.0
C5024 C 0.74091 0.28381 0.07144 0.0
C5025 C 0.72657 0.28747 0.08023 0.0
C5026 C 0.73027 0.30663 0.09782 0.0
H5027 H 0.70897 0.30523 0.14243 0.0
H5028 H 0.71477 0.29771 0.12809 0.0
H5029 H 0.72886 0.31783 0.10782 0.0
H5030 H 0.75392 0.28981 0.07744 0.0
H5031 H 0.74621 0.29758 0.09058 0.0
H5032 H 0.71772 0.28575 0.09822 0.0
C5033 C 0.71333 0.30522 0.12788 0.0
C5034 C 0.72625 0.31088 0.10573 0.0
C5035 C 0.71002 0.30954 0.13611 0.0
C5036 C 0.74625 0.2892 0.078 0.0
C5037 C 0.74183 0.29366 0.08556 0.0
C5038 C 0.72011 0.29281 0.10016 0.0
C5039 C 0.71511 0.31061 0.11961 0.0
C5040 C 0.71914 0.30614 0.11101 0.0
C5041 C 0.73193 0.29285 0.08679 0.0
C5042 C 0.72731 0.29751 0.09497 0.0
H5043 H 0.70866 0.33223 0.12777 0.0
H5044 H 0.7144 0.32472 0.11344 0.0
H5045 H 0.71056 0.29326 0.11194 0.0
H5046 H 0.72666 0.27898 0.06767 0.0
H5047 H 0.71892 0.28679 0.08091 0.0
C5048 C 0.7064 0.32237 0.89507 0.0
C5049 C 0.70417 0.31774 0.88651 0.0
C5050 C 0.70963 0.31726 0.90298 0.0
C5051 C 0.71036 0.29293 0.9131 0.0
H5052 H 0.73097 0.30325 0.92851 0.0
C5053 C 0.73072 0.27022 0.94037 0.0
C5054 C 0.73314 0.27427 0.94917 0.0
C5055 C 0.72687 0.27572 0.93306 0.0
C5056 C 0.72513 0.30032 0.92435 0.0
H5057 H 0.70369 0.30409 0.87955 0.0
H5058 H 0.70935 0.29518 0.8933 0.0
H5059 H 0.72487 0.31243 0.9151 0.0
H5060 H 0.73334 0.28735 0.95717 0.0
H5061 H 0.72665 0.29699 0.94434 0.0
H5062 H 0.71069 0.28078 0.92228 0.0
C5063 C 0.70844 0.30275 0.89397 0.0
C5064 C 0.72163 0.30559 0.91666 0.0
C5065 C 0.70521 0.30786 0.88607 0.0
C5066 C 0.73165 0.28401 0.95045 0.0
C5067 C 0.72781 0.28954 0.94311 0.0
C5068 C 0.71387 0.28767 0.92077 0.0
C5069 C 0.71071 0.30738 0.90252 0.0
C5070 C 0.71424 0.30193 0.91089 0.0
C5071 C 0.72536 0.28545 0.93433 0.0
C5072 C 0.72135 0.29126 0.92644 0.0
H5073 H 0.70555 0.32996 0.89569 0.0
H5074 H 0.71116 0.32104 0.90949 0.0
H5075 H 0.70454 0.28997 0.90893 0.0
H5076 H 0.73197 0.26279 0.93904 0.0
H5077 H 0.72524 0.27238 0.92633 0.0
C5078 C 0.69265 0.6975 0.89343 0.0
C5079 C 0.69553 0.70016 0.88423 0.0
C5080 C 0.69695 0.70163 0.90142 0.0
C5081 C 0.71087 0.723 0.90857 0.0
H5082 H 0.71519 0.70869 0.93178 0.0
C5083 C 0.72201 0.74162 0.94321 0.0
C5084 C 0.72896 0.7373 0.94896 0.0
C5085 C 0.71783 0.73676 0.9356 0.0
C5086 C 0.71411 0.71278 0.92533 0.0
H5087 H 0.70545 0.70896 0.87623 0.0
H5088 H 0.71303 0.71606 0.89013 0.0
H5089 H 0.70861 0.70069 0.91785 0.0
H5090 H 0.73672 0.72433 0.95131 0.0
H5091 H 0.72961 0.71593 0.93787 0.0
H5092 H 0.71658 0.73502 0.91593 0.0
C5093 C 0.70729 0.71096 0.8912 0.0
C5094 C 0.71022 0.70821 0.91737 0.0
C5095 C 0.70296 0.70687 0.88322 0.0
C5096 C 0.73148 0.72792 0.94698 0.0
C5097 C 0.72731 0.72306 0.93933 0.0
C5098 C 0.71477 0.72755 0.91651 0.0
C5099 C 0.70426 0.7085 0.90041 0.0
C5100 C 0.70854 0.71327 0.90888 0.0
C5101 C 0.72052 0.72746 0.93347 0.0
C5102 C 0.71641 0.72252 0.92501 0.0
H5103 H 0.68688 0.69242 0.89445 0.0
H5104 H 0.69434 0.69964 0.90838 0.0
H5105 H 0.70956 0.72716 0.90222 0.0
H5106 H 0.71997 0.74887 0.94441 0.0
H5107 H 0.71251 0.74033 0.93136 0.0
C5108 C 0.31622 0.69428 0.88614 0.0
C5109 C 0.32618 0.695 0.88555 0.0
C5110 C 0.31147 0.69748 0.89417 0.0
C5111 C 0.31506 0.70365 0.9195 0.0
H5112 H 0.29182 0.71764 0.91578 0.0
C5113 C 0.29639 0.72345 0.95002 0.0
C5114 C 0.28638 0.72314 0.95012 0.0
C5115 C 0.30139 0.71977 0.94235 0.0
C5116 C 0.29823 0.71365 0.91697 0.0
H5117 H 0.33898 0.69947 0.89309 0.0
H5118 H 0.3307 0.70521 0.90701 0.0
H5119 H 0.30018 0.71163 0.90207 0.0
H5120 H 0.27382 0.7187 0.94213 0.0
H5121 H 0.28251 0.71207 0.92899 0.0
H5122 H 0.31309 0.70568 0.93441 0.0
C5123 C 0.32655 0.7021 0.90129 0.0
C5124 C 0.30303 0.7102 0.90909 0.0
C5125 C 0.33129 0.69891 0.89325 0.0
C5126 C 0.28152 0.71895 0.94241 0.0
C5127 C 0.28651 0.71526 0.93477 0.0
C5128 C 0.31024 0.7071 0.92739 0.0
C5129 C 0.31658 0.70148 0.90182 0.0
C5130 C 0.31149 0.70513 0.91025 0.0
C5131 C 0.2965 0.71571 0.93458 0.0
C5132 C 0.30174 0.71211 0.92622 0.0
H5133 H 0.31204 0.69139 0.88032 0.0
H5134 H 0.3038 0.69679 0.89439 0.0
H5135 H 0.3215 0.69969 0.92065 0.0
H5136 H 0.30036 0.72655 0.95586 0.0
H5137 H 0.30908 0.72029 0.94241 0.0
C5138 C 0.31285 0.32641 0.8894 0.0
C5139 C 0.31764 0.32135 0.88237 0.0
C5140 C 0.30947 0.32181 0.89757 0.0
C5141 C 0.30197 0.29839 0.90663 0.0
H5142 H 0.30516 0.30988 0.93139 0.0
C5143 C 0.28985 0.27888 0.94072 0.0
C5144 C 0.28546 0.28427 0.94777 0.0
C5145 C 0.29443 0.2833 0.93306 0.0
C5146 C 0.3041 0.30662 0.92452 0.0
H5147 H 0.32277 0.30746 0.87859 0.0
H5148 H 0.31671 0.29944 0.89277 0.0
H5149 H 0.31176 0.31781 0.91739 0.0
H5150 H 0.28279 0.29862 0.95237 0.0
H5151 H 0.29046 0.3063 0.93886 0.0
H5152 H 0.29412 0.28732 0.91365 0.0
C5153 C 0.31552 0.30696 0.8919 0.0
C5154 C 0.30791 0.31116 0.9165 0.0
C5155 C 0.31897 0.31157 0.88376 0.0
C5156 C 0.28596 0.29422 0.94703 0.0
C5157 C 0.29049 0.29864 0.93932 0.0
C5158 C 0.29809 0.29389 0.91462 0.0
C5159 C 0.31072 0.31203 0.89889 0.0
C5160 C 0.30687 0.30711 0.90746 0.0
C5161 C 0.29469 0.29324 0.93217 0.0
C5162 C 0.29908 0.29794 0.92369 0.0
H5163 H 0.31152 0.3339 0.88851 0.0
H5164 H 0.30567 0.32589 0.90277 0.0
H5165 H 0.30092 0.29515 0.89974 0.0
H5166 H 0.28952 0.27121 0.94096 0.0
H5167 H 0.29772 0.2789 0.92779 0.0
C5168 C 0.63275 0.70979 0.19837 0.0
C5169 C 0.6365 0.70102 0.2012 0.0
C5170 C 0.62441 0.71313 0.20242 0.0
C5171 C 0.60878 0.71014 0.22339 0.0
H5172 H 0.59105 0.7241 0.20761 0.0
C5173 C 0.57259 0.72347 0.23729 0.0
C5174 C 0.57045 0.73292 0.23497 0.0
C5175 C 0.58025 0.71896 0.23303 0.0
C5176 C 0.59596 0.72026 0.21212 0.0
H5177 H 0.63437 0.68892 0.21059 0.0
H5178 H 0.61967 0.69463 0.21746 0.0
H5179 H 0.60511 0.71734 0.20049 0.0
H5180 H 0.57486 0.74504 0.22637 0.0
H5181 H 0.58801 0.73715 0.21884 0.0
H5182 H 0.59955 0.71308 0.23501 0.0
C5183 C 0.62327 0.69899 0.21219 0.0
C5184 C 0.60404 0.7164 0.20805 0.0
C5185 C 0.63165 0.69566 0.20817 0.0
C5186 C 0.57611 0.7377 0.22819 0.0
C5187 C 0.5837 0.73318 0.22388 0.0
C5188 C 0.60064 0.71396 0.22745 0.0
C5189 C 0.61954 0.70777 0.20936 0.0
C5190 C 0.61064 0.71141 0.21365 0.0
C5191 C 0.5859 0.72378 0.22629 0.0
C5192 C 0.59421 0.71917 0.22189 0.0
H5193 H 0.63619 0.71407 0.19294 0.0
H5194 H 0.62185 0.71998 0.20015 0.0
H5195 H 0.61375 0.70644 0.22794 0.0
H5196 H 0.56833 0.71951 0.24238 0.0
H5197 H 0.58172 0.71168 0.23495 0.0
C5198 C 0.31598 0.61709 0.20711 0.0
C5199 C 0.31697 0.62556 0.21226 0.0
C5200 C 0.31086 0.60936 0.21088 0.0
C5201 C 0.2927 0.60291 0.22876 0.0
H5202 H 0.30343 0.57783 0.22725 0.0
C5203 C 0.28789 0.56437 0.24837 0.0
C5204 C 0.27792 0.56341 0.24832 0.0
C5205 C 0.29239 0.57156 0.24309 0.0
C5206 C 0.30035 0.58479 0.22774 0.0
H5207 H 0.31318 0.6326 0.22528 0.0
H5208 H 0.30433 0.6191 0.23188 0.0
H5209 H 0.31172 0.5913 0.21987 0.0
H5210 H 0.26487 0.56916 0.24253 0.0
H5211 H 0.27275 0.58164 0.23323 0.0
H5212 H 0.28145 0.59644 0.23681 0.0
C5213 C 0.30747 0.61845 0.22492 0.0
C5214 C 0.30505 0.59249 0.22343 0.0
C5215 C 0.31262 0.62615 0.22118 0.0
C5216 C 0.27257 0.56965 0.24266 0.0
C5217 C 0.27707 0.57687 0.23741 0.0
C5218 C 0.28798 0.5952 0.23302 0.0
C5219 C 0.30657 0.60994 0.21984 0.0
C5220 C 0.30133 0.60166 0.22398 0.0
C5221 C 0.28703 0.57799 0.23766 0.0
C5222 C 0.29179 0.58606 0.23264 0.0
H5223 H 0.3193 0.61638 0.20025 0.0
H5224 H 0.31024 0.60293 0.20675 0.0
H5225 H 0.2896 0.60986 0.22922 0.0
H5226 H 0.29221 0.55963 0.25259 0.0
H5227 H 0.30007 0.57226 0.24349 0.0
C5228 C 0.38521 0.30625 0.2061 0.0
C5229 C 0.38432 0.31593 0.20388 0.0
C5230 C 0.39319 0.30298 0.21104 0.0
C5231 C 0.41312 0.31083 0.2266 0.0
H5232 H 0.42403 0.28699 0.2191 0.0
C5233 C 0.4481 0.29683 0.24317 0.0
C5234 C 0.44819 0.28713 0.24558 0.0
C5235 C 0.44064 0.30056 0.23774 0.0
C5236 C 0.42103 0.29362 0.22134 0.0
H5237 H 0.39115 0.32976 0.20512 0.0
H5238 H 0.4051 0.32405 0.21372 0.0
H5239 H 0.41035 0.29311 0.21044 0.0
H5240 H 0.44041 0.2738 0.24419 0.0
H5241 H 0.42751 0.28026 0.23469 0.0
H5242 H 0.42379 0.3113 0.23753 0.0
C5243 C 0.39956 0.319 0.21174 0.0
C5244 C 0.41317 0.29713 0.21638 0.0
C5245 C 0.39156 0.32227 0.20681 0.0
C5246 C 0.4407 0.28125 0.24232 0.0
C5247 C 0.43327 0.28497 0.23688 0.0
C5248 C 0.42099 0.30732 0.23156 0.0
C5249 C 0.4005 0.30929 0.21387 0.0
C5250 C 0.40906 0.30573 0.21899 0.0
C5251 C 0.43311 0.29468 0.23457 0.0
C5252 C 0.425 0.29864 0.22903 0.0
H5253 H 0.37969 0.30119 0.20411 0.0
H5254 H 0.39357 0.29549 0.21272 0.0
H5255 H 0.41007 0.31742 0.22889 0.0
H5256 H 0.45381 0.30155 0.24546 0.0
H5257 H 0.4408 0.30804 0.23597 0.0
C5258 C 0.70768 0.38116 0.22043 0.0
C5259 C 0.70506 0.38035 0.21081 0.0
C5260 C 0.71272 0.38914 0.22367 0.0
C5261 C 0.72791 0.40927 0.2155 0.0
H5262 H 0.7214 0.41993 0.23985 0.0
C5263 C 0.74476 0.44444 0.22896 0.0
C5264 C 0.74763 0.44464 0.23855 0.0
C5265 C 0.73921 0.43688 0.22547 0.0
C5266 C 0.72337 0.417 0.23307 0.0
H5267 H 0.70567 0.38737 0.19707 0.0
H5268 H 0.71446 0.4013 0.20272 0.0
H5269 H 0.71257 0.40616 0.23395 0.0
H5270 H 0.74691 0.43699 0.25196 0.0
H5271 H 0.73722 0.4239 0.24591 0.0
H5272 H 0.73873 0.4201 0.21465 0.0
C5273 C 0.71272 0.39569 0.20774 0.0
C5274 C 0.71831 0.40908 0.22969 0.0
C5275 C 0.70768 0.3877 0.2045 0.0
C5276 C 0.74469 0.43718 0.24459 0.0
C5277 C 0.73913 0.42964 0.2411 0.0
C5278 C 0.73297 0.41719 0.21888 0.0
C5279 C 0.71527 0.39653 0.21738 0.0
C5280 C 0.72055 0.40508 0.22089 0.0
C5281 C 0.73639 0.42936 0.23149 0.0
C5282 C 0.73079 0.42113 0.22774 0.0
H5283 H 0.70592 0.37556 0.22546 0.0
H5284 H 0.71473 0.38945 0.2311 0.0
H5285 H 0.72992 0.4063 0.20876 0.0
H5286 H 0.74679 0.45012 0.22414 0.0
H5287 H 0.7371 0.43696 0.21806 0.0
C5288 C 0.62815 0.31654 0.81364 0.0
C5289 C 0.63217 0.31073 0.82072 0.0
C5290 C 0.6203 0.31338 0.80832 0.0
C5291 C 0.60082 0.29513 0.80799 0.0
H5292 H 0.59972 0.30168 0.78122 0.0
C5293 C 0.57479 0.27733 0.78105 0.0
C5294 C 0.57047 0.28326 0.77425 0.0
C5295 C 0.58181 0.28091 0.78722 0.0
C5296 C 0.59987 0.29988 0.78871 0.0
H5297 H 0.63089 0.29706 0.82782 0.0
H5298 H 0.61747 0.29143 0.8183 0.0
H5299 H 0.61303 0.30736 0.79086 0.0
H5300 H 0.56983 0.29774 0.769 0.0
H5301 H 0.58216 0.30391 0.77964 0.0
H5302 H 0.58773 0.28744 0.80571 0.0
C5303 C 0.62028 0.29851 0.81697 0.0
C5304 C 0.6075 0.30316 0.79426 0.0
C5305 C 0.62809 0.30169 0.82234 0.0
C5306 C 0.57314 0.29292 0.77399 0.0
C5307 C 0.5802 0.29647 0.7801 0.0
C5308 C 0.59323 0.29178 0.80241 0.0
C5309 C 0.61629 0.3043 0.80986 0.0
C5310 C 0.60808 0.30084 0.80398 0.0
C5311 C 0.5847 0.29048 0.78669 0.0
C5312 C 0.59266 0.29413 0.79271 0.0
H5313 H 0.63114 0.32349 0.81209 0.0
H5314 H 0.61735 0.31811 0.80301 0.0
H5315 H 0.60094 0.29333 0.81548 0.0
H5316 H 0.57302 0.26984 0.78138 0.0
H5317 H 0.58521 0.2761 0.79217 0.0
C5318 C 0.70538 0.62727 0.80999 0.0
C5319 C 0.70289 0.62652 0.81961 0.0
C5320 C 0.70904 0.6195 0.8052 0.0
C5321 C 0.71103 0.59332 0.80632 0.0
H5322 H 0.73162 0.59795 0.78863 0.0
C5323 C 0.7318 0.5631 0.78822 0.0
C5324 C 0.73385 0.5644 0.77853 0.0
C5325 C 0.72793 0.57046 0.7935 0.0
C5326 C 0.72581 0.59654 0.79348 0.0
H5327 H 0.70229 0.61699 0.83176 0.0
H5328 H 0.70872 0.60344 0.82342 0.0
H5329 H 0.72502 0.61114 0.79728 0.0
H5330 H 0.73353 0.57453 0.76685 0.0
H5331 H 0.72667 0.58722 0.77599 0.0
H5332 H 0.71188 0.57868 0.80249 0.0
C5333 C 0.70772 0.61 0.81953 0.0
C5334 C 0.72201 0.60411 0.79843 0.0
C5335 C 0.70403 0.61777 0.82431 0.0
C5336 C 0.73191 0.57321 0.77426 0.0
C5337 C 0.72809 0.58055 0.77953 0.0
C5338 C 0.71486 0.58572 0.80136 0.0
C5339 C 0.71033 0.61079 0.80992 0.0
C5340 C 0.71451 0.60263 0.80485 0.0
C5341 C 0.7261 0.5793 0.78923 0.0
C5342 C 0.72224 0.58726 0.79481 0.0
H5343 H 0.70444 0.63385 0.80611 0.0
H5344 H 0.71078 0.62032 0.79776 0.0
H5345 H 0.70519 0.59193 0.81114 0.0
H5346 H 0.73317 0.55639 0.79171 0.0
H5347 H 0.72653 0.56928 0.80098 0.0
C5348 C 0.39482 0.68317 0.80325 0.0
C5349 C 0.38953 0.68776 0.81024 0.0
C5350 C 0.40263 0.6877 0.799 0.0
C5351 C 0.41977 0.70787 0.80186 0.0
H5352 H 0.4235 0.70426 0.77489 0.0
C5353 C 0.44595 0.73068 0.77914 0.0
C5354 C 0.45122 0.72597 0.77221 0.0
C5355 C 0.43888 0.72584 0.78429 0.0
C5356 C 0.42263 0.70526 0.78245 0.0
H5357 H 0.38848 0.70072 0.81833 0.0
H5358 H 0.40192 0.70874 0.81069 0.0
H5359 H 0.41022 0.69631 0.78278 0.0
H5360 H 0.45347 0.71234 0.76563 0.0
H5361 H 0.44108 0.70397 0.77454 0.0
H5362 H 0.43213 0.71699 0.80144 0.0
C5363 C 0.40011 0.70156 0.8086 0.0
C5364 C 0.41502 0.70068 0.78699 0.0
C5365 C 0.39231 0.697 0.8129 0.0
C5366 C 0.44943 0.71624 0.77077 0.0
C5367 C 0.44233 0.71143 0.77588 0.0
C5368 C 0.42737 0.7125 0.7973 0.0
C5369 C 0.40534 0.69698 0.80156 0.0
C5370 C 0.41349 0.7019 0.79676 0.0
C5371 C 0.43688 0.71621 0.7826 0.0
C5372 C 0.4289 0.71123 0.78754 0.0
H5373 H 0.39284 0.67611 0.80092 0.0
H5374 H 0.40656 0.68389 0.79371 0.0
H5375 H 0.41891 0.70888 0.80942 0.0
H5376 H 0.44704 0.73819 0.78035 0.0
H5377 H 0.43474 0.72974 0.78936 0.0
C5378 C 0.32189 0.3916 0.81297 0.0
C5379 C 0.32378 0.3838 0.80717 0.0
C5380 C 0.31687 0.39935 0.80939 0.0
C5381 C 0.30018 0.40613 0.7902 0.0
H5382 H 0.30863 0.4318 0.79579 0.0
C5383 C 0.28442 0.4382 0.77056 0.0
C5384 C 0.28248 0.44634 0.77585 0.0
C5385 C 0.28962 0.43079 0.77453 0.0
C5386 C 0.3061 0.42468 0.79425 0.0
H5387 H 0.3217 0.37797 0.79308 0.0
H5388 H 0.31305 0.3915 0.78682 0.0
H5389 H 0.31722 0.41841 0.80255 0.0
H5390 H 0.28473 0.45313 0.78947 0.0
H5391 H 0.29366 0.4401 0.79648 0.0
H5392 H 0.28905 0.41234 0.78194 0.0
C5393 C 0.31541 0.39162 0.79416 0.0
C5394 C 0.31104 0.41701 0.79812 0.0
C5395 C 0.32047 0.38391 0.79772 0.0
C5396 C 0.28602 0.44693 0.78521 0.0
C5397 C 0.29122 0.4395 0.7892 0.0
C5398 C 0.29524 0.41379 0.78635 0.0
C5399 C 0.31355 0.39944 0.79994 0.0
C5400 C 0.30817 0.40764 0.79608 0.0
C5401 C 0.293 0.43128 0.78394 0.0
C5402 C 0.29818 0.42317 0.78826 0.0
H5403 H 0.32441 0.39178 0.82025 0.0
H5404 H 0.31549 0.40523 0.81405 0.0
H5405 H 0.29767 0.39901 0.78862 0.0
H5406 H 0.28171 0.43741 0.76339 0.0
H5407 H 0.29097 0.42465 0.77022 0.0
C5408 C 0.69896 0.62046 0.21103 0.0
C5409 C 0.70357 0.62906 0.2086 0.0
C5410 C 0.70419 0.61264 0.21409 0.0
C5411 C 0.72852 0.60285 0.21396 0.0
H5412 H 0.71929 0.58741 0.23497 0.0
C5413 C 0.75236 0.57618 0.23355 0.0
C5414 C 0.74841 0.56731 0.23618 0.0
C5415 C 0.74663 0.58334 0.22989 0.0
C5416 C 0.7219 0.59157 0.22902 0.0
H5417 H 0.71732 0.63617 0.2076 0.0
H5418 H 0.72643 0.62257 0.21294 0.0
H5419 H 0.70983 0.60062 0.22915 0.0
H5420 H 0.73527 0.55909 0.237 0.0
H5421 H 0.72522 0.57167 0.23064 0.0
H5422 H 0.74063 0.59387 0.21389 0.0
C5423 C 0.71877 0.62181 0.21233 0.0
C5424 C 0.71648 0.59915 0.22567 0.0
C5425 C 0.71355 0.62962 0.20927 0.0
C5426 C 0.73854 0.56585 0.23512 0.0
C5427 C 0.73278 0.57305 0.23147 0.0
C5428 C 0.73394 0.59529 0.21731 0.0
C5429 C 0.71417 0.61322 0.2148 0.0
C5430 C 0.71976 0.60494 0.21815 0.0
C5431 C 0.73678 0.58188 0.22879 0.0
C5432 C 0.73074 0.58961 0.22494 0.0
H5433 H 0.69129 0.61973 0.21047 0.0
H5434 H 0.70041 0.6061 0.21579 0.0
H5435 H 0.73118 0.60702 0.20804 0.0
H5436 H 0.75989 0.57766 0.23448 0.0
H5437 H 0.74992 0.59011 0.22808 0.0
C5438 C 0.70224 0.38896 0.81991 0.0
C5439 C 0.69694 0.38302 0.81381 0.0
C5440 C 0.7074 0.39674 0.81631 0.0
C5441 C 0.71798 0.40612 0.79407 0.0
H5442 H 0.71864 0.43001 0.8075 0.0
C5443 C 0.73499 0.43984 0.77767 0.0
C5444 C 0.74087 0.44537 0.78363 0.0
C5445 C 0.72926 0.43255 0.78142 0.0
C5446 C 0.71859 0.42336 0.80371 0.0
H5447 H 0.693 0.38058 0.79909 0.0
H5448 H 0.7018 0.39423 0.79285 0.0
H5449 H 0.70947 0.41661 0.81393 0.0
H5450 H 0.74508 0.44777 0.79827 0.0
H5451 H 0.73517 0.43497 0.80481 0.0
H5452 H 0.72711 0.41284 0.78386 0.0
C5453 C 0.70206 0.39283 0.80042 0.0
C5454 C 0.71335 0.41568 0.8074 0.0
C5455 C 0.69691 0.38506 0.80402 0.0
C5456 C 0.7407 0.44359 0.79347 0.0
C5457 C 0.73496 0.43631 0.79723 0.0
C5458 C 0.72321 0.41379 0.79038 0.0
C5459 C 0.70739 0.39876 0.80651 0.0
C5460 C 0.71298 0.40696 0.80262 0.0
C5461 C 0.72926 0.43062 0.79123 0.0
C5462 C 0.72358 0.42251 0.79514 0.0
H5463 H 0.70235 0.38764 0.8275 0.0
H5464 H 0.7115 0.4011 0.82119 0.0
H5465 H 0.718 0.39946 0.79029 0.0
H5466 H 0.73501 0.44095 0.77005 0.0
H5467 H 0.72487 0.42838 0.77662 0.0
C5468 C 0.62167 0.68687 0.8106 0.0
C5469 C 0.63032 0.69148 0.81292 0.0
C5470 C 0.61394 0.69202 0.80714 0.0
C5471 C 0.60444 0.71637 0.80567 0.0
H5472 H 0.58935 0.7062 0.78483 0.0
C5473 C 0.57845 0.73929 0.784 0.0
C5474 C 0.56962 0.73528 0.78129 0.0
C5475 C 0.58546 0.73375 0.78824 0.0
C5476 C 0.59341 0.70909 0.79073 0.0
H5477 H 0.63762 0.70513 0.81333 0.0
H5478 H 0.62418 0.71409 0.80728 0.0
H5479 H 0.60232 0.69695 0.79152 0.0
H5480 H 0.56127 0.72222 0.78101 0.0
H5481 H 0.57356 0.7125 0.78838 0.0
H5482 H 0.5956 0.72856 0.80481 0.0
C5483 C 0.6233 0.70651 0.80829 0.0
C5484 C 0.60085 0.70378 0.79457 0.0
C5485 C 0.63102 0.70137 0.81176 0.0
C5486 C 0.56801 0.72553 0.78291 0.0
C5487 C 0.57506 0.71996 0.78714 0.0
C5488 C 0.59701 0.72168 0.80182 0.0
C5489 C 0.61467 0.7019 0.8059 0.0
C5490 C 0.60652 0.70739 0.80204 0.0
C5491 C 0.58387 0.72401 0.78986 0.0
C5492 C 0.59146 0.71814 0.79425 0.0
H5493 H 0.62083 0.67928 0.81154 0.0
H5494 H 0.60736 0.68825 0.80552 0.0
H5495 H 0.60852 0.7193 0.81153 0.0
H5496 H 0.58005 0.74672 0.78266 0.0
H5497 H 0.59223 0.73706 0.79006 0.0
C5498 C 0.3178 0.62481 0.80855 0.0
C5499 C 0.31592 0.62538 0.81833 0.0
C5500 C 0.31425 0.61719 0.80321 0.0
C5501 C 0.29533 0.59875 0.80316 0.0
H5502 H 0.31091 0.58701 0.7841 0.0
C5503 C 0.2823 0.56561 0.78268 0.0
C5504 C 0.28425 0.56535 0.77291 0.0
C5505 C 0.28653 0.57254 0.78845 0.0
C5506 C 0.30642 0.59027 0.78933 0.0
H5507 H 0.30903 0.61822 0.83017 0.0
H5508 H 0.30278 0.605 0.82084 0.0
H5509 H 0.31755 0.59989 0.79366 0.0
H5510 H 0.29219 0.57221 0.76156 0.0
H5511 H 0.29951 0.58431 0.77159 0.0
H5512 H 0.28416 0.58924 0.79876 0.0
C5513 C 0.3069 0.61051 0.81729 0.0
C5514 C 0.31024 0.59765 0.79481 0.0
C5515 C 0.31047 0.61811 0.82263 0.0
C5516 C 0.29065 0.57211 0.76908 0.0
C5517 C 0.29485 0.57906 0.77484 0.0
C5518 C 0.2915 0.59139 0.79766 0.0
C5519 C 0.30871 0.60998 0.8075 0.0
C5520 C 0.30473 0.602 0.80178 0.0
C5521 C 0.29279 0.57941 0.78459 0.0
C5522 C 0.29698 0.58707 0.79064 0.0
H5523 H 0.32184 0.63034 0.80496 0.0
H5524 H 0.31567 0.61706 0.79566 0.0
H5525 H 0.29084 0.60204 0.80837 0.0
H5526 H 0.2775 0.56043 0.78587 0.0
H5527 H 0.28491 0.57249 0.79596 0.0
C5528 C 0.38848 0.30204 0.8137 0.0
C5529 C 0.38767 0.3118 0.81539 0.0
C5530 C 0.39623 0.29857 0.80872 0.0
C5531 C 0.4209 0.30459 0.80165 0.0
H5532 H 0.41675 0.28454 0.78335 0.0
C5533 C 0.45033 0.29182 0.77627 0.0
C5534 C 0.45066 0.28204 0.77441 0.0
C5535 C 0.44287 0.29554 0.78153 0.0
C5536 C 0.41806 0.29005 0.78852 0.0
H5537 H 0.39444 0.32556 0.81316 0.0
H5538 H 0.4079 0.31951 0.80433 0.0
H5539 H 0.40327 0.29091 0.7918 0.0
H5540 H 0.44342 0.26853 0.77676 0.0
H5541 H 0.4306 0.27498 0.78611 0.0
H5542 H 0.43571 0.30371 0.79836 0.0
C5543 C 0.40257 0.31453 0.80695 0.0
C5544 C 0.41032 0.29372 0.79336 0.0
C5545 C 0.39479 0.31801 0.81192 0.0
C5546 C 0.44347 0.27607 0.77814 0.0
C5547 C 0.43603 0.27979 0.78339 0.0
C5548 C 0.42866 0.30091 0.79681 0.0
C5549 C 0.40338 0.30476 0.80529 0.0
C5550 C 0.41163 0.30101 0.80002 0.0
C5551 C 0.43556 0.28958 0.78505 0.0
C5552 C 0.42734 0.29356 0.79021 0.0
H5553 H 0.38308 0.29707 0.81617 0.0
H5554 H 0.39667 0.29099 0.80766 0.0
H5555 H 0.42218 0.31011 0.80682 0.0
H5556 H 0.45579 0.29661 0.77358 0.0
H5557 H 0.44271 0.30312 0.78263 0.0
C5558 C 0.30791 0.38545 0.21061 0.0
C5559 C 0.31789 0.38609 0.21019 0.0
C5560 C 0.30263 0.39303 0.21394 0.0
C5561 C 0.30477 0.41472 0.22851 0.0
H5562 H 0.28069 0.4208 0.21655 0.0
C5563 C 0.28274 0.44729 0.23938 0.0
C5564 C 0.27286 0.44578 0.24018 0.0
C5565 C 0.28848 0.44035 0.2354 0.0
C5566 C 0.28737 0.41915 0.22002 0.0
H5567 H 0.33012 0.39531 0.21277 0.0
H5568 H 0.32091 0.40854 0.21857 0.0
H5569 H 0.2902 0.40808 0.21019 0.0
H5570 H 0.26134 0.43566 0.23762 0.0
H5571 H 0.27129 0.42368 0.23066 0.0
H5572 H 0.3019 0.42578 0.23836 0.0
C5573 C 0.31717 0.40211 0.21646 0.0
C5574 C 0.29282 0.41184 0.21638 0.0
C5575 C 0.32245 0.39453 0.21314 0.0
C5576 C 0.26888 0.43718 0.23692 0.0
C5577 C 0.2746 0.43028 0.23293 0.0
C5578 C 0.29932 0.42205 0.23214 0.0
C5579 C 0.30719 0.40146 0.21694 0.0
C5580 C 0.30155 0.40947 0.22062 0.0
C5581 C 0.28447 0.43177 0.23212 0.0
C5582 C 0.29051 0.4243 0.22799 0.0
H5583 H 0.30418 0.37901 0.20854 0.0
H5584 H 0.29498 0.39221 0.21436 0.0
H5585 H 0.31141 0.41301 0.23203 0.0
H5586 H 0.28603 0.45386 0.24173 0.0
H5587 H 0.29605 0.44176 0.23479 0.0
C5588 C 0.63689 0.31117 0.21267 0.0
C5589 C 0.63707 0.3107 0.2027 0.0
C5590 C 0.62885 0.3081 0.2177 0.0
C5591 C 0.60301 0.303 0.21499 0.0
H5592 H 0.60652 0.28885 0.23842 0.0
C5593 C 0.57174 0.28486 0.23538 0.0
C5594 C 0.57196 0.28555 0.24534 0.0
C5595 C 0.57952 0.28797 0.22996 0.0
C5596 C 0.60541 0.29288 0.23194 0.0
H5597 H 0.62882 0.30679 0.19021 0.0
H5598 H 0.61488 0.30128 0.19899 0.0
H5599 H 0.62036 0.2942 0.22944 0.0
H5600 H 0.58064 0.28997 0.25738 0.0
H5601 H 0.59405 0.29554 0.24796 0.0
H5602 H 0.58803 0.30166 0.21751 0.0
C5603 C 0.62093 0.30409 0.20292 0.0
C5604 C 0.61335 0.29596 0.22679 0.0
C5605 C 0.62898 0.30715 0.19789 0.0
C5606 C 0.58014 0.28946 0.24973 0.0
C5607 C 0.5879 0.29253 0.24433 0.0
C5608 C 0.59505 0.29991 0.22014 0.0
C5609 C 0.62077 0.30449 0.21289 0.0
C5610 C 0.61227 0.30111 0.21828 0.0
C5611 C 0.58773 0.29178 0.23438 0.0
C5612 C 0.59615 0.29487 0.22872 0.0
H5613 H 0.64302 0.31377 0.21662 0.0
H5614 H 0.62894 0.30863 0.22536 0.0
H5615 H 0.60191 0.30705 0.20851 0.0
H5616 H 0.56554 0.28193 0.23178 0.0
H5617 H 0.57918 0.28723 0.22232 0.0
C5618 C 0.38461 0.69596 0.21144 0.0
C5619 C 0.38501 0.69475 0.20156 0.0
C5620 C 0.39256 0.6993 0.2165 0.0
C5621 C 0.41532 0.71252 0.21349 0.0
H5622 H 0.42107 0.70193 0.23832 0.0
C5623 C 0.4493 0.72304 0.23488 0.0
C5624 C 0.4481 0.72455 0.24466 0.0
C5625 C 0.44189 0.71912 0.22939 0.0
C5626 C 0.41952 0.70502 0.23143 0.0
H5627 H 0.39417 0.69596 0.18927 0.0
H5628 H 0.40805 0.70177 0.19809 0.0
H5629 H 0.40763 0.69561 0.22922 0.0
H5630 H 0.43804 0.72333 0.25625 0.0
H5631 H 0.42523 0.71646 0.24672 0.0
H5632 H 0.42721 0.72196 0.21575 0.0
C5633 C 0.40153 0.70028 0.20192 0.0
C5634 C 0.4118 0.7014 0.22621 0.0
C5635 C 0.39358 0.69694 0.19686 0.0
C5636 C 0.43931 0.72207 0.24879 0.0
C5637 C 0.43194 0.71814 0.24332 0.0
C5638 C 0.42306 0.71613 0.21871 0.0
C5639 C 0.40113 0.70151 0.21181 0.0
C5640 C 0.40955 0.70516 0.21721 0.0
C5641 C 0.43313 0.7166 0.23356 0.0
C5642 C 0.4252 0.71248 0.22779 0.0
H5643 H 0.37809 0.69449 0.21527 0.0
H5644 H 0.39194 0.70032 0.22408 0.0
H5645 H 0.41372 0.71566 0.20663 0.0
H5646 H 0.456 0.72479 0.23149 0.0
H5647 H 0.44308 0.71794 0.22191 0.0
loop_
_geom_bond_atom_site_label_1
_geom_bond_atom_site_label_2
_geom_bond_distance
_geom_bond_site_symmetry_2
_ccdc_geom_bond_type
C0 C1 1.264 . S
C0 C5 1.479 . S
C0 C10 1.465 . S
C1 C0 1.264 . S
C1 C3 1.339 . S
C1 H28 0.931 . S
C2 C3 1.395 . S
C2 C4 1.320 . S
C3 C1 1.339 . S
C3 C2 1.395 . S
C3 H29 0.929 . S
C4 C2 1.320 . S
C4 C5 1.405 . S
C4 H30 0.930 . S
C5 C0 1.479 . S
C5 C4 1.405 . S
C5 H31 0.931 . S
U6 O7 2.454 . S
U6 O8 2.458 . S
U6 C9 2.984 . S
U6 C10 2.847 . S
U6 C23 2.882 . S
U6 O24 2.441 . S
U6 O25 2.420 . S
U6 O26 2.455 . S
U6 O27 2.449 . S
O7 U6 2.454 . S
O7 C9 1.353 . S
O8 U6 2.458 . S
O8 C9 1.286 . S
C9 U6 2.984 . S
C9 O7 1.353 . S
C9 O8 1.286 . S
C9 C11 1.363 . S
C10 C0 1.465 . S
C10 U6 2.847 . S
C10 O24 1.249 . S
C10 O25 1.202 . S
C11 C9 1.363 . S
C11 C13 1.408 . S
C11 C16 1.342 . S
C12 C13 1.310 . S
C12 C15 1.461 . S
C12 H32 0.932 . S
C13 C11 1.408 . S
C13 C12 1.310 . S
C13 H33 0.930 . S
C14 C15 1.474 . S
C14 C16 1.285 . S
C14 H34 0.929 . S
C15 C12 1.461 . S
C15 C14 1.474 . S
C16 C11 1.342 . S
C16 C14 1.285 . S
C16 H35 0.930 . S
C17 C20 1.424 . S
C17 C22 1.245 . S
C17 C23 1.428 . S
C18 C21 1.260 . S
C18 C22 1.477 . S
C18 H36 0.932 . S
C19 C20 1.384 . S
C19 C21 1.479 . S
C19 H37 0.929 . S
C20 C17 1.424 . S
C20 C19 1.384 . S
C20 H38 0.928 . S
C21 C18 1.260 . S
C21 C19 1.479 . S
C22 C17 1.245 . S
C22 C18 1.477 . S
C22 H39 0.932 . S
C23 U6 2.882 . S
C23 C17 1.428 . S
C23 O26 1.301 . S
C23 O27 1.282 . S
O24 U6 2.441 . S
O24 C10 1.249 . S
O25 U6 2.420 . S
O25 C10 1.202 . S
O26 U6 2.455 . S
O26 C23 1.301 . S
O27 U6 2.449 . S
O27 C23 1.282 . S
H28 C1 0.931 . S
H29 C3 0.929 . S
H30 C4 0.930 . S
H31 C5 0.931 . S
H32 C12 0.932 . S
H33 C13 0.930 . S
H34 C14 0.929 . S
H35 C16 0.930 . S
H36 C18 0.932 . S
H37 C19 0.929 . S
H38 C20 0.928 . S
H39 C22 0.932 . S
C40 C41 1.264 . S
C40 C45 1.479 . S
C40 C50 1.465 . S
C41 C40 1.264 . S
C41 C43 1.339 . S
C41 H68 0.931 . S
C42 C43 1.395 . S
C42 C44 1.320 . S
C43 C41 1.339 . S
C43 C42 1.395 . S
C43 H69 0.929 . S
C44 C42 1.320 . S
C44 C45 1.405 . S
C44 H70 0.930 . S
C45 C40 1.479 . S
C45 C44 1.405 . S
C45 H71 0.931 . S
U46 O47 2.454 . S
U46 O48 2.458 . S
U46 C49 2.984 . S
U46 C50 2.847 . S
U46 C63 2.882 . S
U46 O64 2.441 . S
U46 O65 2.420 . S
U46 O66 2.455 . S
U46 O67 2.449 . S
O47 U46 2.454 . S
O47 C49 1.353 . S
O48 U46 2.458 . S
O48 C49 1.286 . S
C49 U46 2.984 . S
C49 O47 1.353 . S
C49 O48 1.286 . S
C49 C51 1.363 . S
C50 C40 1.465 . S
C50 U46 2.847 . S
C50 O64 1.249 . S
C50 O65 1.202 . S
C51 C49 1.363 . S
C51 C53 1.408 . S
C51 C56 1.342 . S
C52 C53 1.310 . S
C52 C55 1.461 . S
C52 H72 0.932 . S
C53 C51 1.408 . S
C53 C52 1.310 . S
C53 H73 0.930 . S
C54 C55 1.474 . S
C54 C56 1.285 . S
C54 H74 0.929 . S
C55 C52 1.461 . S
C55 C54 1.474 . S
C56 C51 1.342 . S
C56 C54 1.285 . S
C56 H75 0.930 . S
C57 C60 1.424 . S
C57 C62 1.245 . S
C57 C63 1.428 . S
C58 C61 1.260 . S
C58 C62 1.477 . S
C58 H76 0.932 . S
C59 C60 1.384 . S
C59 C61 1.479 . S
C59 H77 0.929 . S
C60 C57 1.424 . S
C60 C59 1.384 . S
C60 H78 0.928 . S
C61 C58 1.260 . S
C61 C59 1.479 . S
C62 C57 1.245 . S
C62 C58 1.477 . S
C62 H79 0.932 . S
C63 U46 2.882 . S
C63 C57 1.428 . S
C63 O66 1.301 . S
C63 O67 1.282 . S
O64 U46 2.441 . S
O64 C50 1.249 . S
O65 U46 2.420 . S
O65 C50 1.202 . S
O66 U46 2.455 . S
O66 C63 1.301 . S
O67 U46 2.449 . S
O67 C63 1.282 . S
H68 C41 0.931 . S
H69 C43 0.929 . S
H70 C44 0.930 . S
H71 C45 0.931 . S
H72 C52 0.932 . S
H73 C53 0.930 . S
H74 C54 0.929 . S
H75 C56 0.930 . S
H76 C58 0.932 . S
H77 C59 0.929 . S
H78 C60 0.928 . S
H79 C62 0.932 . S
C80 C81 1.264 . S
C80 C85 1.479 . S
C80 C90 1.465 . S
C81 C80 1.264 . S
C81 C83 1.339 . S
C81 H108 0.931 . S
C82 C83 1.395 . S
C82 C84 1.320 . S
C83 C81 1.339 . S
C83 C82 1.395 . S
C83 H109 0.929 . S
C84 C82 1.320 . S
C84 C85 1.405 . S
C84 H110 0.930 . S
C85 C80 1.479 . S
C85 C84 1.405 . S
C85 H111 0.931 . S
U86 O87 2.454 . S
U86 O88 2.458 . S
U86 C89 2.984 . S
U86 C90 2.847 . S
U86 C103 2.882 . S
U86 O104 2.441 . S
U86 O105 2.420 . S
U86 O106 2.455 . S
U86 O107 2.449 . S
O87 U86 2.454 . S
O87 C89 1.353 . S
O88 U86 2.458 . S
O88 C89 1.286 . S
C89 U86 2.984 . S
C89 O87 1.353 . S
C89 O88 1.286 . S
C89 C91 1.363 . S
C90 C80 1.465 . S
C90 U86 2.847 . S
C90 O104 1.249 . S
C90 O105 1.202 . S
C91 C89 1.363 . S
C91 C93 1.408 . S
C91 C96 1.342 . S
C92 C93 1.310 . S
C92 C95 1.461 . S
C92 H112 0.932 . S
C93 C91 1.408 . S
C93 C92 1.310 . S
C93 H113 0.930 . S
C94 C95 1.474 . S
C94 C96 1.285 . S
C94 H114 0.929 . S
C95 C92 1.461 . S
C95 C94 1.474 . S
C96 C91 1.342 . S
C96 C94 1.285 . S
C96 H115 0.930 . S
C97 C100 1.424 . S
C97 C102 1.245 . S
C97 C103 1.428 . S
C98 C101 1.260 . S
C98 C102 1.477 . S
C98 H116 0.932 . S
C99 C100 1.384 . S
C99 C101 1.479 . S
C99 H117 0.929 . S
C100 C97 1.424 . S
C100 C99 1.384 . S
C100 H118 0.928 . S
C101 C98 1.260 . S
C101 C99 1.479 . S
C102 C97 1.245 . S
C102 C98 1.477 . S
C102 H119 0.932 . S
C103 U86 2.882 . S
C103 C97 1.428 . S
C103 O106 1.301 . S
C103 O107 1.282 . S
O104 U86 2.441 . S
O104 C90 1.249 . S
O105 U86 2.420 . S
O105 C90 1.202 . S
O106 U86 2.455 . S
O106 C103 1.301 . S
O107 U86 2.449 . S
O107 C103 1.282 . S
H108 C81 0.931 . S
H109 C83 0.929 . S
H110 C84 0.930 . S
H111 C85 0.931 . S
H112 C92 0.932 . S
H113 C93 0.930 . S
H114 C94 0.929 . S
H115 C96 0.930 . S
H116 C98 0.932 . S
H117 C99 0.929 . S
H118 C100 0.928 . S
H119 C102 0.932 . S
C120 C121 1.264 . S
C120 C125 1.479 . S
C120 C130 1.465 . S
C121 C120 1.264 . S
C121 C123 1.339 . S
C121 H148 0.931 . S
C122 C123 1.395 . S
C122 C124 1.320 . S
C123 C121 1.339 . S
C123 C122 1.395 . S
C123 H149 0.929 . S
C124 C122 1.320 . S
C124 C125 1.405 . S
C124 H150 0.930 . S
C125 C120 1.479 . S
C125 C124 1.405 . S
C125 H151 0.931 . S
U126 O127 2.454 . S
U126 O128 2.458 . S
U126 C129 2.984 . S
U126 C130 2.847 . S
U126 C143 2.882 . S
U126 O144 2.441 . S
U126 O145 2.420 . S
U126 O146 2.455 . S
U126 O147 2.449 . S
O127 U126 2.454 . S
O127 C129 1.353 . S
O128 U126 2.458 . S
O128 C129 1.286 . S
C129 U126 2.984 . S
C129 O127 1.353 . S
C129 O128 1.286 . S
C129 C131 1.363 . S
C130 C120 1.465 . S
C130 U126 2.847 . S
C130 O144 1.249 . S
C130 O145 1.202 . S
C131 C129 1.363 . S
C131 C133 1.408 . S
C131 C136 1.342 . S
C132 C133 1.310 . S
C132 C135 1.461 . S
C132 H152 0.932 . S
C133 C131 1.408 . S
C133 C132 1.310 . S
C133 H153 0.930 . S
C134 C135 1.474 . S
C134 C136 1.285 . S
C134 H154 0.929 . S
C135 C132 1.461 . S
C135 C134 1.474 . S
C136 C131 1.342 . S
C136 C134 1.285 . S
C136 H155 0.930 . S
C137 C140 1.424 . S
C137 C142 1.245 . S
C137 C143 1.428 . S
C138 C141 1.260 . S
C138 C142 1.477 . S
C138 H156 0.932 . S
C139 C140 1.384 . S
C139 C141 1.479 . S
C139 H157 0.929 . S
C140 C137 1.424 . S
C140 C139 1.384 . S
C140 H158 0.928 . S
C141 C138 1.260 . S
C141 C139 1.479 . S
C142 C137 1.245 . S
C142 C138 1.477 . S
C142 H159 0.932 . S
C143 U126 2.882 . S
C143 C137 1.428 . S
C143 O146 1.301 . S
C143 O147 1.282 . S
O144 U126 2.441 . S
O144 C130 1.249 . S
O145 U126 2.420 . S
O145 C130 1.202 . S
O146 U126 2.455 . S
O146 C143 1.301 . S
O147 U126 2.449 . S
O147 C143 1.282 . S
H148 C121 0.931 . S
H149 C123 0.929 . S
H150 C124 0.930 . S
H151 C125 0.931 . S
H152 C132 0.932 . S
H153 C133 0.930 . S
H154 C134 0.929 . S
H155 C136 0.930 . S
H156 C138 0.932 . S
H157 C139 0.929 . S
H158 C140 0.928 . S
H159 C142 0.932 . S
C160 C161 1.264 . S
C160 C165 1.479 . S
C160 C170 1.465 . S
C161 C160 1.264 . S
C161 C163 1.339 . S
C161 H188 0.931 . S
C162 C163 1.395 . S
C162 C164 1.320 . S
C163 C161 1.339 . S
C163 C162 1.395 . S
C163 H189 0.929 . S
C164 C162 1.320 . S
C164 C165 1.405 . S
C164 H190 0.930 . S
C165 C160 1.479 . S
C165 C164 1.405 . S
C165 H191 0.931 . S
U166 O167 2.454 . S
U166 O168 2.458 . S
U166 C169 2.984 . S
U166 C170 2.847 . S
U166 C183 2.882 . S
U166 O184 2.441 . S
U166 O185 2.420 . S
U166 O186 2.455 . S
U166 O187 2.449 . S
O167 U166 2.454 . S
O167 C169 1.353 . S
O168 U166 2.458 . S
O168 C169 1.286 . S
C169 U166 2.984 . S
C169 O167 1.353 . S
C169 O168 1.286 . S
C169 C171 1.363 . S
C170 C160 1.465 . S
C170 U166 2.847 . S
C170 O184 1.249 . S
C170 O185 1.202 . S
C171 C169 1.363 . S
C171 C173 1.408 . S
C171 C176 1.342 . S
C172 C173 1.310 . S
C172 C175 1.461 . S
C172 H192 0.932 . S
C173 C171 1.408 . S
C173 C172 1.310 . S
C173 H193 0.930 . S
C174 C175 1.474 . S
C174 C176 1.285 . S
C174 H194 0.929 . S
C175 C172 1.461 . S
C175 C174 1.474 . S
C176 C171 1.342 . S
C176 C174 1.285 . S
C176 H195 0.930 . S
C177 C180 1.424 . S
C177 C182 1.245 . S
C177 C183 1.428 . S
C178 C181 1.260 . S
C178 C182 1.477 . S
C178 H196 0.932 . S
C179 C180 1.384 . S
C179 C181 1.479 . S
C179 H197 0.929 . S
C180 C177 1.424 . S
C180 C179 1.384 . S
C180 H198 0.928 . S
C181 C178 1.260 . S
C181 C179 1.479 . S
C182 C177 1.245 . S
C182 C178 1.477 . S
C182 H199 0.932 . S
C183 U166 2.882 . S
C183 C177 1.428 . S
C183 O186 1.301 . S
C183 O187 1.282 . S
O184 U166 2.441 . S
O184 C170 1.249 . S
O185 U166 2.420 . S
O185 C170 1.202 . S
O186 U166 2.455 . S
O186 C183 1.301 . S
O187 U166 2.449 . S
O187 C183 1.282 . S
H188 C161 0.931 . S
H189 C163 0.929 . S
H190 C164 0.930 . S
H191 C165 0.931 . S
H192 C172 0.932 . S
H193 C173 0.930 . S
H194 C174 0.929 . S
H195 C176 0.930 . S
H196 C178 0.932 . S
H197 C179 0.929 . S
H198 C180 0.928 . S
H199 C182 0.932 . S
C200 C201 1.264 . S
C200 C205 1.479 . S
C200 C210 1.465 . S
C201 C200 1.264 . S
C201 C203 1.339 . S
C201 H228 0.931 . S
C202 C203 1.395 . S
C202 C204 1.320 . S
C203 C201 1.339 . S
C203 C202 1.395 . S
C203 H229 0.929 . S
C204 C202 1.320 . S
C204 C205 1.405 . S
C204 H230 0.930 . S
C205 C200 1.479 . S
C205 C204 1.405 . S
C205 H231 0.931 . S
U206 O207 2.454 . S
U206 O208 2.458 . S
U206 C209 2.984 . S
U206 C210 2.847 . S
U206 C223 2.882 . S
U206 O224 2.441 . S
U206 O225 2.420 . S
U206 O226 2.455 . S
U206 O227 2.449 . S
O207 U206 2.454 . S
O207 C209 1.353 . S
O208 U206 2.458 . S
O208 C209 1.286 . S
C209 U206 2.984 . S
C209 O207 1.353 . S
C209 O208 1.286 . S
C209 C211 1.363 . S
C210 C200 1.465 . S
C210 U206 2.847 . S
C210 O224 1.249 . S
C210 O225 1.202 . S
C211 C209 1.363 . S
C211 C213 1.408 . S
C211 C216 1.342 . S
C212 C213 1.310 . S
C212 C215 1.461 . S
C212 H232 0.932 . S
C213 C211 1.408 . S
C213 C212 1.310 . S
C213 H233 0.930 . S
C214 C215 1.474 . S
C214 C216 1.285 . S
C214 H234 0.929 . S
C215 C212 1.461 . S
C215 C214 1.474 . S
C216 C211 1.342 . S
C216 C214 1.285 . S
C216 H235 0.930 . S
C217 C220 1.424 . S
C217 C222 1.245 . S
C217 C223 1.428 . S
C218 C221 1.260 . S
C218 C222 1.477 . S
C218 H236 0.932 . S
C219 C220 1.384 . S
C219 C221 1.479 . S
C219 H237 0.929 . S
C220 C217 1.424 . S
C220 C219 1.384 . S
C220 H238 0.928 . S
C221 C218 1.260 . S
C221 C219 1.479 . S
C222 C217 1.245 . S
C222 C218 1.477 . S
C222 H239 0.932 . S
C223 U206 2.882 . S
C223 C217 1.428 . S
C223 O226 1.301 . S
C223 O227 1.282 . S
O224 U206 2.441 . S
O224 C210 1.249 . S
O225 U206 2.420 . S
O225 C210 1.202 . S
O226 U206 2.455 . S
O226 C223 1.301 . S
O227 U206 2.449 . S
O227 C223 1.282 . S
H228 C201 0.931 . S
H229 C203 0.929 . S
H230 C204 0.930 . S
H231 C205 0.931 . S
H232 C212 0.932 . S
H233 C213 0.930 . S
H234 C214 0.929 . S
H235 C216 0.930 . S
H236 C218 0.932 . S
H237 C219 0.929 . S
H238 C220 0.928 . S
H239 C222 0.932 . S
C240 C241 1.264 . S
C240 C245 1.479 . S
C240 C250 1.465 . S
C241 C240 1.264 . S
C241 C243 1.339 . S
C241 H268 0.931 . S
C242 C243 1.395 . S
C242 C244 1.320 . S
C243 C241 1.339 . S
C243 C242 1.395 . S
C243 H269 0.929 . S
C244 C242 1.320 . S
C244 C245 1.405 . S
C244 H270 0.930 . S
C245 C240 1.479 . S
C245 C244 1.405 . S
C245 H271 0.931 . S
U246 O247 2.454 . S
U246 O248 2.458 . S
U246 C249 2.984 . S
U246 C250 2.847 . S
U246 C263 2.882 . S
U246 O264 2.441 . S
U246 O265 2.420 . S
U246 O266 2.455 . S
U246 O267 2.449 . S
O247 U246 2.454 . S
O247 C249 1.353 . S
O248 U246 2.458 . S
O248 C249 1.286 . S
C249 U246 2.984 . S
C249 O247 1.353 . S
C249 O248 1.286 . S
C249 C251 1.363 . S
C250 C240 1.465 . S
C250 U246 2.847 . S
C250 O264 1.249 . S
C250 O265 1.202 . S
C251 C249 1.363 . S
C251 C253 1.408 . S
C251 C256 1.342 . S
C252 C253 1.310 . S
C252 C255 1.461 . S
C252 H272 0.932 . S
C253 C251 1.408 . S
C253 C252 1.310 . S
C253 H273 0.930 . S
C254 C255 1.474 . S
C254 C256 1.285 . S
C254 H274 0.929 . S
C255 C252 1.461 . S
C255 C254 1.474 . S
C256 C251 1.342 . S
C256 C254 1.285 . S
C256 H275 0.930 . S
C257 C260 1.424 . S
C257 C262 1.245 . S
C257 C263 1.428 . S
C258 C261 1.260 . S
C258 C262 1.477 . S
C258 H276 0.932 . S
C259 C260 1.384 . S
C259 C261 1.479 . S
C259 H277 0.929 . S
C260 C257 1.424 . S
C260 C259 1.384 . S
C260 H278 0.928 . S
C261 C258 1.260 . S
C261 C259 1.479 . S
C262 C257 1.245 . S
C262 C258 1.477 . S
C262 H279 0.932 . S
C263 U246 2.882 . S
C263 C257 1.428 . S
C263 O266 1.301 . S
C263 O267 1.282 . S
O264 U246 2.441 . S
O264 C250 1.249 . S
O265 U246 2.420 . S
O265 C250 1.202 . S
O266 U246 2.455 . S
O266 C263 1.301 . S
O267 U246 2.449 . S
O267 C263 1.282 . S
H268 C241 0.931 . S
H269 C243 0.929 . S
H270 C244 0.930 . S
H271 C245 0.931 . S
H272 C252 0.932 . S
H273 C253 0.930 . S
H274 C254 0.929 . S
H275 C256 0.930 . S
H276 C258 0.932 . S
H277 C259 0.929 . S
H278 C260 0.928 . S
H279 C262 0.932 . S
C280 C281 1.264 . S
C280 C285 1.479 . S
C280 C290 1.465 . S
C281 C280 1.264 . S
C281 C283 1.339 . S
C281 H308 0.931 . S
C282 C283 1.395 . S
C282 C284 1.320 . S
C283 C281 1.339 . S
C283 C282 1.395 . S
C283 H309 0.929 . S
C284 C282 1.320 . S
C284 C285 1.405 . S
C284 H310 0.930 . S
C285 C280 1.479 . S
C285 C284 1.405 . S
C285 H311 0.931 . S
U286 O287 2.454 . S
U286 O288 2.458 . S
U286 C289 2.984 . S
U286 C290 2.847 . S
U286 C303 2.882 . S
U286 O304 2.441 . S
U286 O305 2.420 . S
U286 O306 2.455 . S
U286 O307 2.449 . S
O287 U286 2.454 . S
O287 C289 1.353 . S
O288 U286 2.458 . S
O288 C289 1.286 . S
C289 U286 2.984 . S
C289 O287 1.353 . S
C289 O288 1.286 . S
C289 C291 1.363 . S
C290 C280 1.465 . S
C290 U286 2.847 . S
C290 O304 1.249 . S
C290 O305 1.202 . S
C291 C289 1.363 . S
C291 C293 1.408 . S
C291 C296 1.342 . S
C292 C293 1.310 . S
C292 C295 1.461 . S
C292 H312 0.932 . S
C293 C291 1.408 . S
C293 C292 1.310 . S
C293 H313 0.930 . S
C294 C295 1.474 . S
C294 C296 1.285 . S
C294 H314 0.929 . S
C295 C292 1.461 . S
C295 C294 1.474 . S
C296 C291 1.342 . S
C296 C294 1.285 . S
C296 H315 0.930 . S
C297 C300 1.424 . S
C297 C302 1.245 . S
C297 C303 1.428 . S
C298 C301 1.260 . S
C298 C302 1.477 . S
C298 H316 0.932 . S
C299 C300 1.384 . S
C299 C301 1.479 . S
C299 H317 0.929 . S
C300 C297 1.424 . S
C300 C299 1.384 . S
C300 H318 0.928 . S
C301 C298 1.260 . S
C301 C299 1.479 . S
C302 C297 1.245 . S
C302 C298 1.477 . S
C302 H319 0.932 . S
C303 U286 2.882 . S
C303 C297 1.428 . S
C303 O306 1.301 . S
C303 O307 1.282 . S
O304 U286 2.441 . S
O304 C290 1.249 . S
O305 U286 2.420 . S
O305 C290 1.202 . S
O306 U286 2.455 . S
O306 C303 1.301 . S
O307 U286 2.449 . S
O307 C303 1.282 . S
H308 C281 0.931 . S
H309 C283 0.929 . S
H310 C284 0.930 . S
H311 C285 0.931 . S
H312 C292 0.932 . S
H313 C293 0.930 . S
H314 C294 0.929 . S
H315 C296 0.930 . S
H316 C298 0.932 . S
H317 C299 0.929 . S
H318 C300 0.928 . S
H319 C302 0.932 . S
C320 C321 1.264 . S
C320 C325 1.479 . S
C320 C330 1.465 . S
C321 C320 1.264 . S
C321 C323 1.339 . S
C321 H348 0.931 . S
C322 C323 1.395 . S
C322 C324 1.320 . S
C323 C321 1.339 . S
C323 C322 1.395 . S
C323 H349 0.929 . S
C324 C322 1.320 . S
C324 C325 1.405 . S
C324 H350 0.930 . S
C325 C320 1.479 . S
C325 C324 1.405 . S
C325 H351 0.931 . S
U326 O327 2.454 . S
U326 O328 2.458 . S
U326 C329 2.984 . S
U326 C330 2.847 . S
U326 C343 2.882 . S
U326 O344 2.441 . S
U326 O345 2.420 . S
U326 O346 2.455 . S
U326 O347 2.449 . S
O327 U326 2.454 . S
O327 C329 1.353 . S
O328 U326 2.458 . S
O328 C329 1.286 . S
C329 U326 2.984 . S
C329 O327 1.353 . S
C329 O328 1.286 . S
C329 C331 1.363 . S
C330 C320 1.465 . S
C330 U326 2.847 . S
C330 O344 1.249 . S
C330 O345 1.202 . S
C331 C329 1.363 . S
C331 C333 1.408 . S
C331 C336 1.342 . S
C332 C333 1.310 . S
C332 C335 1.461 . S
C332 H352 0.932 . S
C333 C331 1.408 . S
C333 C332 1.310 . S
C333 H353 0.930 . S
C334 C335 1.474 . S
C334 C336 1.285 . S
C334 H354 0.929 . S
C335 C332 1.461 . S
C335 C334 1.474 . S
C336 C331 1.342 . S
C336 C334 1.285 . S
C336 H355 0.930 . S
C337 C340 1.424 . S
C337 C342 1.245 . S
C337 C343 1.428 . S
C338 C341 1.260 . S
C338 C342 1.477 . S
C338 H356 0.932 . S
C339 C340 1.384 . S
C339 C341 1.479 . S
C339 H357 0.929 . S
C340 C337 1.424 . S
C340 C339 1.384 . S
C340 H358 0.928 . S
C341 C338 1.260 . S
C341 C339 1.479 . S
C342 C337 1.245 . S
C342 C338 1.477 . S
C342 H359 0.932 . S
C343 U326 2.882 . S
C343 C337 1.428 . S
C343 O346 1.301 . S
C343 O347 1.282 . S
O344 U326 2.441 . S
O344 C330 1.249 . S
O345 U326 2.420 . S
O345 C330 1.202 . S
O346 U326 2.455 . S
O346 C343 1.301 . S
O347 U326 2.449 . S
O347 C343 1.282 . S
H348 C321 0.931 . S
H349 C323 0.929 . S
H350 C324 0.930 . S
H351 C325 0.931 . S
H352 C332 0.932 . S
H353 C333 0.930 . S
H354 C334 0.929 . S
H355 C336 0.930 . S
H356 C338 0.932 . S
H357 C339 0.929 . S
H358 C340 0.928 . S
H359 C342 0.932 . S
C360 C361 1.264 . S
C360 C365 1.479 . S
C360 C370 1.465 . S
C361 C360 1.264 . S
C361 C363 1.339 . S
C361 H388 0.931 . S
C362 C363 1.395 . S
C362 C364 1.320 . S
C363 C361 1.339 . S
C363 C362 1.395 . S
C363 H389 0.929 . S
C364 C362 1.320 . S
C364 C365 1.405 . S
C364 H390 0.930 . S
C365 C360 1.479 . S
C365 C364 1.405 . S
C365 H391 0.931 . S
U366 O367 2.454 . S
U366 O368 2.458 . S
U366 C369 2.984 . S
U366 C370 2.847 . S
U366 C383 2.882 . S
U366 O384 2.441 . S
U366 O385 2.420 . S
U366 O386 2.455 . S
U366 O387 2.449 . S
O367 U366 2.454 . S
O367 C369 1.353 . S
O368 U366 2.458 . S
O368 C369 1.286 . S
C369 U366 2.984 . S
C369 O367 1.353 . S
C369 O368 1.286 . S
C369 C371 1.363 . S
C370 C360 1.465 . S
C370 U366 2.847 . S
C370 O384 1.249 . S
C370 O385 1.202 . S
C371 C369 1.363 . S
C371 C373 1.408 . S
C371 C376 1.342 . S
C372 C373 1.310 . S
C372 C375 1.461 . S
C372 H392 0.932 . S
C373 C371 1.408 . S
C373 C372 1.310 . S
C373 H393 0.930 . S
C374 C375 1.474 . S
C374 C376 1.285 . S
C374 H394 0.929 . S
C375 C372 1.461 . S
C375 C374 1.474 . S
C376 C371 1.342 . S
C376 C374 1.285 . S
C376 H395 0.930 . S
C377 C380 1.424 . S
C377 C382 1.245 . S
C377 C383 1.428 . S
C378 C381 1.260 . S
C378 C382 1.477 . S
C378 H396 0.932 . S
C379 C380 1.384 . S
C379 C381 1.479 . S
C379 H397 0.929 . S
C380 C377 1.424 . S
C380 C379 1.384 . S
C380 H398 0.928 . S
C381 C378 1.260 . S
C381 C379 1.479 . S
C382 C377 1.245 . S
C382 C378 1.477 . S
C382 H399 0.932 . S
C383 U366 2.882 . S
C383 C377 1.428 . S
C383 O386 1.301 . S
C383 O387 1.282 . S
O384 U366 2.441 . S
O384 C370 1.249 . S
O385 U366 2.420 . S
O385 C370 1.202 . S
O386 U366 2.455 . S
O386 C383 1.301 . S
O387 U366 2.449 . S
O387 C383 1.282 . S
H388 C361 0.931 . S
H389 C363 0.929 . S
H390 C364 0.930 . S
H391 C365 0.931 . S
H392 C372 0.932 . S
H393 C373 0.930 . S
H394 C374 0.929 . S
H395 C376 0.930 . S
H396 C378 0.932 . S
H397 C379 0.929 . S
H398 C380 0.928 . S
H399 C382 0.932 . S
C400 C401 1.264 . S
C400 C405 1.479 . S
C400 C410 1.465 . S
C401 C400 1.264 . S
C401 C403 1.339 . S
C401 H428 0.931 . S
C402 C403 1.395 . S
C402 C404 1.320 . S
C403 C401 1.339 . S
C403 C402 1.395 . S
C403 H429 0.929 . S
C404 C402 1.320 . S
C404 C405 1.405 . S
C404 H430 0.930 . S
C405 C400 1.479 . S
C405 C404 1.405 . S
C405 H431 0.931 . S
U406 O407 2.454 . S
U406 O408 2.458 . S
U406 C409 2.984 . S
U406 C410 2.847 . S
U406 C423 2.882 . S
U406 O424 2.441 . S
U406 O425 2.420 . S
U406 O426 2.455 . S
U406 O427 2.449 . S
O407 U406 2.454 . S
O407 C409 1.353 . S
O408 U406 2.458 . S
O408 C409 1.286 . S
C409 U406 2.984 . S
C409 O407 1.353 . S
C409 O408 1.286 . S
C409 C411 1.363 . S
C410 C400 1.465 . S
C410 U406 2.847 . S
C410 O424 1.249 . S
C410 O425 1.202 . S
C411 C409 1.363 . S
C411 C413 1.408 . S
C411 C416 1.342 . S
C412 C413 1.310 . S
C412 C415 1.461 . S
C412 H432 0.932 . S
C413 C411 1.408 . S
C413 C412 1.310 . S
C413 H433 0.930 . S
C414 C415 1.474 . S
C414 C416 1.285 . S
C414 H434 0.929 . S
C415 C412 1.461 . S
C415 C414 1.474 . S
C416 C411 1.342 . S
C416 C414 1.285 . S
C416 H435 0.930 . S
C417 C420 1.424 . S
C417 C422 1.245 . S
C417 C423 1.428 . S
C418 C421 1.260 . S
C418 C422 1.477 . S
C418 H436 0.932 . S
C419 C420 1.384 . S
C419 C421 1.479 . S
C419 H437 0.929 . S
C420 C417 1.424 . S
C420 C419 1.384 . S
C420 H438 0.928 . S
C421 C418 1.260 . S
C421 C419 1.479 . S
C422 C417 1.245 . S
C422 C418 1.477 . S
C422 H439 0.932 . S
C423 U406 2.882 . S
C423 C417 1.428 . S
C423 O426 1.301 . S
C423 O427 1.282 . S
O424 U406 2.441 . S
O424 C410 1.249 . S
O425 U406 2.420 . S
O425 C410 1.202 . S
O426 U406 2.455 . S
O426 C423 1.301 . S
O427 U406 2.449 . S
O427 C423 1.282 . S
H428 C401 0.931 . S
H429 C403 0.929 . S
H430 C404 0.930 . S
H431 C405 0.931 . S
H432 C412 0.932 . S
H433 C413 0.930 . S
H434 C414 0.929 . S
H435 C416 0.930 . S
H436 C418 0.932 . S
H437 C419 0.929 . S
H438 C420 0.928 . S
H439 C422 0.932 . S
C440 C441 1.264 . S
C440 C445 1.479 . S
C440 C450 1.465 . S
C441 C440 1.264 . S
C441 C443 1.339 . S
C441 H468 0.931 . S
C442 C443 1.395 . S
C442 C444 1.320 . S
C443 C441 1.339 . S
C443 C442 1.395 . S
C443 H469 0.929 . S
C444 C442 1.320 . S
C444 C445 1.405 . S
C444 H470 0.930 . S
C445 C440 1.479 . S
C445 C444 1.405 . S
C445 H471 0.931 . S
U446 O447 2.454 . S
U446 O448 2.458 . S
U446 C449 2.984 . S
U446 C450 2.847 . S
U446 C463 2.882 . S
U446 O464 2.441 . S
U446 O465 2.420 . S
U446 O466 2.455 . S
U446 O467 2.449 . S
O447 U446 2.454 . S
O447 C449 1.353 . S
O448 U446 2.458 . S
O448 C449 1.286 . S
C449 U446 2.984 . S
C449 O447 1.353 . S
C449 O448 1.286 . S
C449 C451 1.363 . S
C450 C440 1.465 . S
C450 U446 2.847 . S
C450 O464 1.249 . S
C450 O465 1.202 . S
C451 C449 1.363 . S
C451 C453 1.408 . S
C451 C456 1.342 . S
C452 C453 1.310 . S
C452 C455 1.461 . S
C452 H472 0.932 . S
C453 C451 1.408 . S
C453 C452 1.310 . S
C453 H473 0.930 . S
C454 C455 1.474 . S
C454 C456 1.285 . S
C454 H474 0.929 . S
C455 C452 1.461 . S
C455 C454 1.474 . S
C456 C451 1.342 . S
C456 C454 1.285 . S
C456 H475 0.930 . S
C457 C460 1.424 . S
C457 C462 1.245 . S
C457 C463 1.428 . S
C458 C461 1.260 . S
C458 C462 1.477 . S
C458 H476 0.932 . S
C459 C460 1.384 . S
C459 C461 1.479 . S
C459 H477 0.929 . S
C460 C457 1.424 . S
C460 C459 1.384 . S
C460 H478 0.928 . S
C461 C458 1.260 . S
C461 C459 1.479 . S
C462 C457 1.245 . S
C462 C458 1.477 . S
C462 H479 0.932 . S
C463 U446 2.882 . S
C463 C457 1.428 . S
C463 O466 1.301 . S
C463 O467 1.282 . S
O464 U446 2.441 . S
O464 C450 1.249 . S
O465 U446 2.420 . S
O465 C450 1.202 . S
O466 U446 2.455 . S
O466 C463 1.301 . S
O467 U446 2.449 . S
O467 C463 1.282 . S
H468 C441 0.931 . S
H469 C443 0.929 . S
H470 C444 0.930 . S
H471 C445 0.931 . S
H472 C452 0.932 . S
H473 C453 0.930 . S
H474 C454 0.929 . S
H475 C456 0.930 . S
H476 C458 0.932 . S
H477 C459 0.929 . S
H478 C460 0.928 . S
H479 C462 0.932 . S
C480 C481 1.264 . S
C480 C485 1.479 . S
C480 C490 1.465 . S
C481 C480 1.264 . S
C481 C483 1.339 . S
C481 H508 0.931 . S
C482 C483 1.395 . S
C482 C484 1.320 . S
C483 C481 1.339 . S
C483 C482 1.395 . S
C483 H509 0.929 . S
C484 C482 1.320 . S
C484 C485 1.405 . S
C484 H510 0.930 . S
C485 C480 1.479 . S
C485 C484 1.405 . S
C485 H511 0.931 . S
U486 O487 2.454 . S
U486 O488 2.458 . S
U486 C489 2.984 . S
U486 C490 2.847 . S
U486 C503 2.882 . S
U486 O504 2.441 . S
U486 O505 2.420 . S
U486 O506 2.455 . S
U486 O507 2.449 . S
O487 U486 2.454 . S
O487 C489 1.353 . S
O488 U486 2.458 . S
O488 C489 1.286 . S
C489 U486 2.984 . S
C489 O487 1.353 . S
C489 O488 1.286 . S
C489 C491 1.363 . S
C490 C480 1.465 . S
C490 U486 2.847 . S
C490 O504 1.249 . S
C490 O505 1.202 . S
C491 C489 1.363 . S
C491 C493 1.408 . S
C491 C496 1.342 . S
C492 C493 1.310 . S
C492 C495 1.461 . S
C492 H512 0.932 . S
C493 C491 1.408 . S
C493 C492 1.310 . S
C493 H513 0.930 . S
C494 C495 1.474 . S
C494 C496 1.285 . S
C494 H514 0.929 . S
C495 C492 1.461 . S
C495 C494 1.474 . S
C496 C491 1.342 . S
C496 C494 1.285 . S
C496 H515 0.930 . S
C497 C500 1.424 . S
C497 C502 1.245 . S
C497 C503 1.428 . S
C498 C501 1.260 . S
C498 C502 1.477 . S
C498 H516 0.932 . S
C499 C500 1.384 . S
C499 C501 1.479 . S
C499 H517 0.929 . S
C500 C497 1.424 . S
C500 C499 1.384 . S
C500 H518 0.928 . S
C501 C498 1.260 . S
C501 C499 1.479 . S
C502 C497 1.245 . S
C502 C498 1.477 . S
C502 H519 0.932 . S
C503 U486 2.882 . S
C503 C497 1.428 . S
C503 O506 1.301 . S
C503 O507 1.282 . S
O504 U486 2.441 . S
O504 C490 1.249 . S
O505 U486 2.420 . S
O505 C490 1.202 . S
O506 U486 2.455 . S
O506 C503 1.301 . S
O507 U486 2.449 . S
O507 C503 1.282 . S
H508 C481 0.931 . S
H509 C483 0.929 . S
H510 C484 0.930 . S
H511 C485 0.931 . S
H512 C492 0.932 . S
H513 C493 0.930 . S
H514 C494 0.929 . S
H515 C496 0.930 . S
H516 C498 0.932 . S
H517 C499 0.929 . S
H518 C500 0.928 . S
H519 C502 0.932 . S
C520 C521 1.264 . S
C520 C525 1.479 . S
C520 C530 1.465 . S
C521 C520 1.264 . S
C521 C523 1.339 . S
C521 H548 0.931 . S
C522 C523 1.395 . S
C522 C524 1.320 . S
C523 C521 1.339 . S
C523 C522 1.395 . S
C523 H549 0.929 . S
C524 C522 1.320 . S
C524 C525 1.405 . S
C524 H550 0.930 . S
C525 C520 1.479 . S
C525 C524 1.405 . S
C525 H551 0.931 . S
U526 O527 2.454 . S
U526 O528 2.458 . S
U526 C529 2.984 . S
U526 C530 2.847 . S
U526 C543 2.882 . S
U526 O544 2.441 . S
U526 O545 2.420 . S
U526 O546 2.455 . S
U526 O547 2.449 . S
O527 U526 2.454 . S
O527 C529 1.353 . S
O528 U526 2.458 . S
O528 C529 1.286 . S
C529 U526 2.984 . S
C529 O527 1.353 . S
C529 O528 1.286 . S
C529 C531 1.363 . S
C530 C520 1.465 . S
C530 U526 2.847 . S
C530 O544 1.249 . S
C530 O545 1.202 . S
C531 C529 1.363 . S
C531 C533 1.408 . S
C531 C536 1.342 . S
C532 C533 1.310 . S
C532 C535 1.461 . S
C532 H552 0.932 . S
C533 C531 1.408 . S
C533 C532 1.310 . S
C533 H553 0.930 . S
C534 C535 1.474 . S
C534 C536 1.285 . S
C534 H554 0.929 . S
C535 C532 1.461 . S
C535 C534 1.474 . S
C536 C531 1.342 . S
C536 C534 1.285 . S
C536 H555 0.930 . S
C537 C540 1.424 . S
C537 C542 1.245 . S
C537 C543 1.428 . S
C538 C541 1.260 . S
C538 C542 1.477 . S
C538 H556 0.932 . S
C539 C540 1.384 . S
C539 C541 1.479 . S
C539 H557 0.929 . S
C540 C537 1.424 . S
C540 C539 1.384 . S
C540 H558 0.928 . S
C541 C538 1.260 . S
C541 C539 1.479 . S
C542 C537 1.245 . S
C542 C538 1.477 . S
C542 H559 0.932 . S
C543 U526 2.882 . S
C543 C537 1.428 . S
C543 O546 1.301 . S
C543 O547 1.282 . S
O544 U526 2.441 . S
O544 C530 1.249 . S
O545 U526 2.420 . S
O545 C530 1.202 . S
O546 U526 2.455 . S
O546 C543 1.301 . S
O547 U526 2.449 . S
O547 C543 1.282 . S
H548 C521 0.931 . S
H549 C523 0.929 . S
H550 C524 0.930 . S
H551 C525 0.931 . S
H552 C532 0.932 . S
H553 C533 0.930 . S
H554 C534 0.929 . S
H555 C536 0.930 . S
H556 C538 0.932 . S
H557 C539 0.929 . S
H558 C540 0.928 . S
H559 C542 0.932 . S
C560 C561 1.264 . S
C560 C565 1.479 . S
C560 C570 1.465 . S
C561 C560 1.264 . S
C561 C563 1.339 . S
C561 H588 0.931 . S
C562 C563 1.395 . S
C562 C564 1.320 . S
C563 C561 1.339 . S
C563 C562 1.395 . S
C563 H589 0.929 . S
C564 C562 1.320 . S
C564 C565 1.405 . S
C564 H590 0.930 . S
C565 C560 1.479 . S
C565 C564 1.405 . S
C565 H591 0.931 . S
U566 O567 2.454 . S
U566 O568 2.458 . S
U566 C569 2.984 . S
U566 C570 2.847 . S
U566 C583 2.882 . S
U566 O584 2.441 . S
U566 O585 2.420 . S
U566 O586 2.455 . S
U566 O587 2.449 . S
O567 U566 2.454 . S
O567 C569 1.353 . S
O568 U566 2.458 . S
O568 C569 1.286 . S
C569 U566 2.984 . S
C569 O567 1.353 . S
C569 O568 1.286 . S
C569 C571 1.363 . S
C570 C560 1.465 . S
C570 U566 2.847 . S
C570 O584 1.249 . S
C570 O585 1.202 . S
C571 C569 1.363 . S
C571 C573 1.408 . S
C571 C576 1.342 . S
C572 C573 1.310 . S
C572 C575 1.461 . S
C572 H592 0.932 . S
C573 C571 1.408 . S
C573 C572 1.310 . S
C573 H593 0.930 . S
C574 C575 1.474 . S
C574 C576 1.285 . S
C574 H594 0.929 . S
C575 C572 1.461 . S
C575 C574 1.474 . S
C576 C571 1.342 . S
C576 C574 1.285 . S
C576 H595 0.930 . S
C577 C580 1.424 . S
C577 C582 1.245 . S
C577 C583 1.428 . S
C578 C581 1.260 . S
C578 C582 1.477 . S
C578 H596 0.932 . S
C579 C580 1.384 . S
C579 C581 1.479 . S
C579 H597 0.929 . S
C580 C577 1.424 . S
C580 C579 1.384 . S
C580 H598 0.928 . S
C581 C578 1.260 . S
C581 C579 1.479 . S
C582 C577 1.245 . S
C582 C578 1.477 . S
C582 H599 0.932 . S
C583 U566 2.882 . S
C583 C577 1.428 . S
C583 O586 1.301 . S
C583 O587 1.282 . S
O584 U566 2.441 . S
O584 C570 1.249 . S
O585 U566 2.420 . S
O585 C570 1.202 . S
O586 U566 2.455 . S
O586 C583 1.301 . S
O587 U566 2.449 . S
O587 C583 1.282 . S
H588 C561 0.931 . S
H589 C563 0.929 . S
H590 C564 0.930 . S
H591 C565 0.931 . S
H592 C572 0.932 . S
H593 C573 0.930 . S
H594 C574 0.929 . S
H595 C576 0.930 . S
H596 C578 0.932 . S
H597 C579 0.929 . S
H598 C580 0.928 . S
H599 C582 0.932 . S
C600 C601 1.264 . S
C600 C605 1.479 . S
C600 C610 1.465 . S
C601 C600 1.264 . S
C601 C603 1.339 . S
C601 H628 0.931 . S
C602 C603 1.395 . S
C602 C604 1.320 . S
C603 C601 1.339 . S
C603 C602 1.395 . S
C603 H629 0.929 . S
C604 C602 1.320 . S
C604 C605 1.405 . S
C604 H630 0.930 . S
C605 C600 1.479 . S
C605 C604 1.405 . S
C605 H631 0.931 . S
U606 O607 2.454 . S
U606 O608 2.458 . S
U606 C609 2.984 . S
U606 C610 2.847 . S
U606 C623 2.882 . S
U606 O624 2.441 . S
U606 O625 2.420 . S
U606 O626 2.455 . S
U606 O627 2.449 . S
O607 U606 2.454 . S
O607 C609 1.353 . S
O608 U606 2.458 . S
O608 C609 1.286 . S
C609 U606 2.984 . S
C609 O607 1.353 . S
C609 O608 1.286 . S
C609 C611 1.363 . S
C610 C600 1.465 . S
C610 U606 2.847 . S
C610 O624 1.249 . S
C610 O625 1.202 . S
C611 C609 1.363 . S
C611 C613 1.408 . S
C611 C616 1.342 . S
C612 C613 1.310 . S
C612 C615 1.461 . S
C612 H632 0.932 . S
C613 C611 1.408 . S
C613 C612 1.310 . S
C613 H633 0.930 . S
C614 C615 1.474 . S
C614 C616 1.285 . S
C614 H634 0.929 . S
C615 C612 1.461 . S
C615 C614 1.474 . S
C616 C611 1.342 . S
C616 C614 1.285 . S
C616 H635 0.930 . S
C617 C620 1.424 . S
C617 C622 1.245 . S
C617 C623 1.428 . S
C618 C621 1.260 . S
C618 C622 1.477 . S
C618 H636 0.932 . S
C619 C620 1.384 . S
C619 C621 1.479 . S
C619 H637 0.929 . S
C620 C617 1.424 . S
C620 C619 1.384 . S
C620 H638 0.928 . S
C621 C618 1.260 . S
C621 C619 1.479 . S
C622 C617 1.245 . S
C622 C618 1.477 . S
C622 H639 0.932 . S
C623 U606 2.882 . S
C623 C617 1.428 . S
C623 O626 1.301 . S
C623 O627 1.282 . S
O624 U606 2.441 . S
O624 C610 1.249 . S
O625 U606 2.420 . S
O625 C610 1.202 . S
O626 U606 2.455 . S
O626 C623 1.301 . S
O627 U606 2.449 . S
O627 C623 1.282 . S
H628 C601 0.931 . S
H629 C603 0.929 . S
H630 C604 0.930 . S
H631 C605 0.931 . S
H632 C612 0.932 . S
H633 C613 0.930 . S
H634 C614 0.929 . S
H635 C616 0.930 . S
H636 C618 0.932 . S
H637 C619 0.929 . S
H638 C620 0.928 . S
H639 C622 0.932 . S
C640 C641 1.264 . S
C640 C645 1.479 . S
C640 C650 1.465 . S
C641 C640 1.264 . S
C641 C643 1.339 . S
C641 H668 0.931 . S
C642 C643 1.395 . S
C642 C644 1.320 . S
C643 C641 1.339 . S
C643 C642 1.395 . S
C643 H669 0.929 . S
C644 C642 1.320 . S
C644 C645 1.405 . S
C644 H670 0.930 . S
C645 C640 1.479 . S
C645 C644 1.405 . S
C645 H671 0.931 . S
U646 O647 2.454 . S
U646 O648 2.458 . S
U646 C649 2.984 . S
U646 C650 2.847 . S
U646 C663 2.882 . S
U646 O664 2.441 . S
U646 O665 2.420 . S
U646 O666 2.455 . S
U646 O667 2.449 . S
O647 U646 2.454 . S
O647 C649 1.353 . S
O648 U646 2.458 . S
O648 C649 1.286 . S
C649 U646 2.984 . S
C649 O647 1.353 . S
C649 O648 1.286 . S
C649 C651 1.363 . S
C650 C640 1.465 . S
C650 U646 2.847 . S
C650 O664 1.249 . S
C650 O665 1.202 . S
C651 C649 1.363 . S
C651 C653 1.408 . S
C651 C656 1.342 . S
C652 C653 1.310 . S
C652 C655 1.461 . S
C652 H672 0.932 . S
C653 C651 1.408 . S
C653 C652 1.310 . S
C653 H673 0.930 . S
C654 C655 1.474 . S
C654 C656 1.285 . S
C654 H674 0.929 . S
C655 C652 1.461 . S
C655 C654 1.474 . S
C656 C651 1.342 . S
C656 C654 1.285 . S
C656 H675 0.930 . S
C657 C660 1.424 . S
C657 C662 1.245 . S
C657 C663 1.428 . S
C658 C661 1.260 . S
C658 C662 1.477 . S
C658 H676 0.932 . S
C659 C660 1.384 . S
C659 C661 1.479 . S
C659 H677 0.929 . S
C660 C657 1.424 . S
C660 C659 1.384 . S
C660 H678 0.928 . S
C661 C658 1.260 . S
C661 C659 1.479 . S
C662 C657 1.245 . S
C662 C658 1.477 . S
C662 H679 0.932 . S
C663 U646 2.882 . S
C663 C657 1.428 . S
C663 O666 1.301 . S
C663 O667 1.282 . S
O664 U646 2.441 . S
O664 C650 1.249 . S
O665 U646 2.420 . S
O665 C650 1.202 . S
O666 U646 2.455 . S
O666 C663 1.301 . S
O667 U646 2.449 . S
O667 C663 1.282 . S
H668 C641 0.931 . S
H669 C643 0.929 . S
H670 C644 0.930 . S
H671 C645 0.931 . S
H672 C652 0.932 . S
H673 C653 0.930 . S
H674 C654 0.929 . S
H675 C656 0.930 . S
H676 C658 0.932 . S
H677 C659 0.929 . S
H678 C660 0.928 . S
H679 C662 0.932 . S
C680 C681 1.264 . S
C680 C685 1.479 . S
C680 C690 1.465 . S
C681 C680 1.264 . S
C681 C683 1.339 . S
C681 H708 0.931 . S
C682 C683 1.395 . S
C682 C684 1.320 . S
C683 C681 1.339 . S
C683 C682 1.395 . S
C683 H709 0.929 . S
C684 C682 1.320 . S
C684 C685 1.405 . S
C684 H710 0.930 . S
C685 C680 1.479 . S
C685 C684 1.405 . S
C685 H711 0.931 . S
U686 O687 2.454 . S
U686 O688 2.458 . S
U686 C689 2.984 . S
U686 C690 2.847 . S
U686 C703 2.882 . S
U686 O704 2.441 . S
U686 O705 2.420 . S
U686 O706 2.455 . S
U686 O707 2.449 . S
O687 U686 2.454 . S
O687 C689 1.353 . S
O688 U686 2.458 . S
O688 C689 1.286 . S
C689 U686 2.984 . S
C689 O687 1.353 . S
C689 O688 1.286 . S
C689 C691 1.363 . S
C690 C680 1.465 . S
C690 U686 2.847 . S
C690 O704 1.249 . S
C690 O705 1.202 . S
C691 C689 1.363 . S
C691 C693 1.408 . S
C691 C696 1.342 . S
C692 C693 1.310 . S
C692 C695 1.461 . S
C692 H712 0.932 . S
C693 C691 1.408 . S
C693 C692 1.310 . S
C693 H713 0.930 . S
C694 C695 1.474 . S
C694 C696 1.285 . S
C694 H714 0.929 . S
C695 C692 1.461 . S
C695 C694 1.474 . S
C696 C691 1.342 . S
C696 C694 1.285 . S
C696 H715 0.930 . S
C697 C700 1.424 . S
C697 C702 1.245 . S
C697 C703 1.428 . S
C698 C701 1.260 . S
C698 C702 1.477 . S
C698 H716 0.932 . S
C699 C700 1.384 . S
C699 C701 1.479 . S
C699 H717 0.929 . S
C700 C697 1.424 . S
C700 C699 1.384 . S
C700 H718 0.928 . S
C701 C698 1.260 . S
C701 C699 1.479 . S
C702 C697 1.245 . S
C702 C698 1.477 . S
C702 H719 0.932 . S
C703 U686 2.882 . S
C703 C697 1.428 . S
C703 O706 1.301 . S
C703 O707 1.282 . S
O704 U686 2.441 . S
O704 C690 1.249 . S
O705 U686 2.420 . S
O705 C690 1.202 . S
O706 U686 2.455 . S
O706 C703 1.301 . S
O707 U686 2.449 . S
O707 C703 1.282 . S
H708 C681 0.931 . S
H709 C683 0.929 . S
H710 C684 0.930 . S
H711 C685 0.931 . S
H712 C692 0.932 . S
H713 C693 0.930 . S
H714 C694 0.929 . S
H715 C696 0.930 . S
H716 C698 0.932 . S
H717 C699 0.929 . S
H718 C700 0.928 . S
H719 C702 0.932 . S
C720 C721 1.264 . S
C720 C725 1.479 . S
C720 C730 1.465 . S
C721 C720 1.264 . S
C721 C723 1.339 . S
C721 H748 0.931 . S
C722 C723 1.395 . S
C722 C724 1.320 . S
C723 C721 1.339 . S
C723 C722 1.395 . S
C723 H749 0.929 . S
C724 C722 1.320 . S
C724 C725 1.405 . S
C724 H750 0.930 . S
C725 C720 1.479 . S
C725 C724 1.405 . S
C725 H751 0.931 . S
U726 O727 2.454 . S
U726 O728 2.458 . S
U726 C729 2.984 . S
U726 C730 2.847 . S
U726 C743 2.882 . S
U726 O744 2.441 . S
U726 O745 2.420 . S
U726 O746 2.455 . S
U726 O747 2.449 . S
O727 U726 2.454 . S
O727 C729 1.353 . S
O728 U726 2.458 . S
O728 C729 1.286 . S
C729 U726 2.984 . S
C729 O727 1.353 . S
C729 O728 1.286 . S
C729 C731 1.363 . S
C730 C720 1.465 . S
C730 U726 2.847 . S
C730 O744 1.249 . S
C730 O745 1.202 . S
C731 C729 1.363 . S
C731 C733 1.408 . S
C731 C736 1.342 . S
C732 C733 1.310 . S
C732 C735 1.461 . S
C732 H752 0.932 . S
C733 C731 1.408 . S
C733 C732 1.310 . S
C733 H753 0.930 . S
C734 C735 1.474 . S
C734 C736 1.285 . S
C734 H754 0.929 . S
C735 C732 1.461 . S
C735 C734 1.474 . S
C736 C731 1.342 . S
C736 C734 1.285 . S
C736 H755 0.930 . S
C737 C740 1.424 . S
C737 C742 1.245 . S
C737 C743 1.428 . S
C738 C741 1.260 . S
C738 C742 1.477 . S
C738 H756 0.932 . S
C739 C740 1.384 . S
C739 C741 1.479 . S
C739 H757 0.929 . S
C740 C737 1.424 . S
C740 C739 1.384 . S
C740 H758 0.928 . S
C741 C738 1.260 . S
C741 C739 1.479 . S
C742 C737 1.245 . S
C742 C738 1.477 . S
C742 H759 0.932 . S
C743 U726 2.882 . S
C743 C737 1.428 . S
C743 O746 1.301 . S
C743 O747 1.282 . S
O744 U726 2.441 . S
O744 C730 1.249 . S
O745 U726 2.420 . S
O745 C730 1.202 . S
O746 U726 2.455 . S
O746 C743 1.301 . S
O747 U726 2.449 . S
O747 C743 1.282 . S
H748 C721 0.931 . S
H749 C723 0.929 . S
H750 C724 0.930 . S
H751 C725 0.931 . S
H752 C732 0.932 . S
H753 C733 0.930 . S
H754 C734 0.929 . S
H755 C736 0.930 . S
H756 C738 0.932 . S
H757 C739 0.929 . S
H758 C740 0.928 . S
H759 C742 0.932 . S
C760 C761 1.264 . S
C760 C765 1.479 . S
C760 C770 1.465 . S
C761 C760 1.264 . S
C761 C763 1.339 . S
C761 H788 0.931 . S
C762 C763 1.395 . S
C762 C764 1.320 . S
C763 C761 1.339 . S
C763 C762 1.395 . S
C763 H789 0.929 . S
C764 C762 1.320 . S
C764 C765 1.405 . S
C764 H790 0.930 . S
C765 C760 1.479 . S
C765 C764 1.405 . S
C765 H791 0.931 . S
U766 O767 2.454 . S
U766 O768 2.458 . S
U766 C769 2.984 . S
U766 C770 2.847 . S
U766 C783 2.882 . S
U766 O784 2.441 . S
U766 O785 2.420 . S
U766 O786 2.455 . S
U766 O787 2.449 . S
O767 U766 2.454 . S
O767 C769 1.353 . S
O768 U766 2.458 . S
O768 C769 1.286 . S
C769 U766 2.984 . S
C769 O767 1.353 . S
C769 O768 1.286 . S
C769 C771 1.363 . S
C770 C760 1.465 . S
C770 U766 2.847 . S
C770 O784 1.249 . S
C770 O785 1.202 . S
C771 C769 1.363 . S
C771 C773 1.408 . S
C771 C776 1.342 . S
C772 C773 1.310 . S
C772 C775 1.461 . S
C772 H792 0.932 . S
C773 C771 1.408 . S
C773 C772 1.310 . S
C773 H793 0.930 . S
C774 C775 1.474 . S
C774 C776 1.285 . S
C774 H794 0.929 . S
C775 C772 1.461 . S
C775 C774 1.474 . S
C776 C771 1.342 . S
C776 C774 1.285 . S
C776 H795 0.930 . S
C777 C780 1.424 . S
C777 C782 1.245 . S
C777 C783 1.428 . S
C778 C781 1.260 . S
C778 C782 1.477 . S
C778 H796 0.932 . S
C779 C780 1.384 . S
C779 C781 1.479 . S
C779 H797 0.929 . S
C780 C777 1.424 . S
C780 C779 1.384 . S
C780 H798 0.928 . S
C781 C778 1.260 . S
C781 C779 1.479 . S
C782 C777 1.245 . S
C782 C778 1.477 . S
C782 H799 0.932 . S
C783 U766 2.882 . S
C783 C777 1.428 . S
C783 O786 1.301 . S
C783 O787 1.282 . S
O784 U766 2.441 . S
O784 C770 1.249 . S
O785 U766 2.420 . S
O785 C770 1.202 . S
O786 U766 2.455 . S
O786 C783 1.301 . S
O787 U766 2.449 . S
O787 C783 1.282 . S
H788 C761 0.931 . S
H789 C763 0.929 . S
H790 C764 0.930 . S
H791 C765 0.931 . S
H792 C772 0.932 . S
H793 C773 0.930 . S
H794 C774 0.929 . S
H795 C776 0.930 . S
H796 C778 0.932 . S
H797 C779 0.929 . S
H798 C780 0.928 . S
H799 C782 0.932 . S
C800 C801 1.264 . S
C800 C805 1.479 . S
C800 C810 1.465 . S
C801 C800 1.264 . S
C801 C803 1.339 . S
C801 H828 0.931 . S
C802 C803 1.395 . S
C802 C804 1.320 . S
C803 C801 1.339 . S
C803 C802 1.395 . S
C803 H829 0.929 . S
C804 C802 1.320 . S
C804 C805 1.405 . S
C804 H830 0.930 . S
C805 C800 1.479 . S
C805 C804 1.405 . S
C805 H831 0.931 . S
U806 O807 2.454 . S
U806 O808 2.458 . S
U806 C809 2.984 . S
U806 C810 2.847 . S
U806 C823 2.882 . S
U806 O824 2.441 . S
U806 O825 2.420 . S
U806 O826 2.455 . S
U806 O827 2.449 . S
O807 U806 2.454 . S
O807 C809 1.353 . S
O808 U806 2.458 . S
O808 C809 1.286 . S
C809 U806 2.984 . S
C809 O807 1.353 . S
C809 O808 1.286 . S
C809 C811 1.363 . S
C810 C800 1.465 . S
C810 U806 2.847 . S
C810 O824 1.249 . S
C810 O825 1.202 . S
C811 C809 1.363 . S
C811 C813 1.408 . S
C811 C816 1.342 . S
C812 C813 1.310 . S
C812 C815 1.461 . S
C812 H832 0.932 . S
C813 C811 1.408 . S
C813 C812 1.310 . S
C813 H833 0.930 . S
C814 C815 1.474 . S
C814 C816 1.285 . S
C814 H834 0.929 . S
C815 C812 1.461 . S
C815 C814 1.474 . S
C816 C811 1.342 . S
C816 C814 1.285 . S
C816 H835 0.930 . S
C817 C820 1.424 . S
C817 C822 1.245 . S
C817 C823 1.428 . S
C818 C821 1.260 . S
C818 C822 1.477 . S
C818 H836 0.932 . S
C819 C820 1.384 . S
C819 C821 1.479 . S
C819 H837 0.929 . S
C820 C817 1.424 . S
C820 C819 1.384 . S
C820 H838 0.928 . S
C821 C818 1.260 . S
C821 C819 1.479 . S
C822 C817 1.245 . S
C822 C818 1.477 . S
C822 H839 0.932 . S
C823 U806 2.882 . S
C823 C817 1.428 . S
C823 O826 1.301 . S
C823 O827 1.282 . S
O824 U806 2.441 . S
O824 C810 1.249 . S
O825 U806 2.420 . S
O825 C810 1.202 . S
O826 U806 2.455 . S
O826 C823 1.301 . S
O827 U806 2.449 . S
O827 C823 1.282 . S
H828 C801 0.931 . S
H829 C803 0.929 . S
H830 C804 0.930 . S
H831 C805 0.931 . S
H832 C812 0.932 . S
H833 C813 0.930 . S
H834 C814 0.929 . S
H835 C816 0.930 . S
H836 C818 0.932 . S
H837 C819 0.929 . S
H838 C820 0.928 . S
H839 C822 0.932 . S
C840 C841 1.264 . S
C840 C845 1.479 . S
C840 C850 1.465 . S
C841 C840 1.264 . S
C841 C843 1.339 . S
C841 H868 0.931 . S
C842 C843 1.395 . S
C842 C844 1.320 . S
C843 C841 1.339 . S
C843 C842 1.395 . S
C843 H869 0.929 . S
C844 C842 1.320 . S
C844 C845 1.405 . S
C844 H870 0.930 . S
C845 C840 1.479 . S
C845 C844 1.405 . S
C845 H871 0.931 . S
U846 O847 2.454 . S
U846 O848 2.458 . S
U846 C849 2.984 . S
U846 C850 2.847 . S
U846 C863 2.882 . S
U846 O864 2.441 . S
U846 O865 2.420 . S
U846 O866 2.455 . S
U846 O867 2.449 . S
O847 U846 2.454 . S
O847 C849 1.353 . S
O848 U846 2.458 . S
O848 C849 1.286 . S
C849 U846 2.984 . S
C849 O847 1.353 . S
C849 O848 1.286 . S
C849 C851 1.363 . S
C850 C840 1.465 . S
C850 U846 2.847 . S
C850 O864 1.249 . S
C850 O865 1.202 . S
C851 C849 1.363 . S
C851 C853 1.408 . S
C851 C856 1.342 . S
C852 C853 1.310 . S
C852 C855 1.461 . S
C852 H872 0.932 . S
C853 C851 1.408 . S
C853 C852 1.310 . S
C853 H873 0.930 . S
C854 C855 1.474 . S
C854 C856 1.285 . S
C854 H874 0.929 . S
C855 C852 1.461 . S
C855 C854 1.474 . S
C856 C851 1.342 . S
C856 C854 1.285 . S
C856 H875 0.930 . S
C857 C860 1.424 . S
C857 C862 1.245 . S
C857 C863 1.428 . S
C858 C861 1.260 . S
C858 C862 1.477 . S
C858 H876 0.932 . S
C859 C860 1.384 . S
C859 C861 1.479 . S
C859 H877 0.929 . S
C860 C857 1.424 . S
C860 C859 1.384 . S
C860 H878 0.928 . S
C861 C858 1.260 . S
C861 C859 1.479 . S
C862 C857 1.245 . S
C862 C858 1.477 . S
C862 H879 0.932 . S
C863 U846 2.882 . S
C863 C857 1.428 . S
C863 O866 1.301 . S
C863 O867 1.282 . S
O864 U846 2.441 . S
O864 C850 1.249 . S
O865 U846 2.420 . S
O865 C850 1.202 . S
O866 U846 2.455 . S
O866 C863 1.301 . S
O867 U846 2.449 . S
O867 C863 1.282 . S
H868 C841 0.931 . S
H869 C843 0.929 . S
H870 C844 0.930 . S
H871 C845 0.931 . S
H872 C852 0.932 . S
H873 C853 0.930 . S
H874 C854 0.929 . S
H875 C856 0.930 . S
H876 C858 0.932 . S
H877 C859 0.929 . S
H878 C860 0.928 . S
H879 C862 0.932 . S
C880 C881 1.264 . S
C880 C885 1.479 . S
C880 C890 1.465 . S
C881 C880 1.264 . S
C881 C883 1.339 . S
C881 H908 0.931 . S
C882 C883 1.395 . S
C882 C884 1.320 . S
C883 C881 1.339 . S
C883 C882 1.395 . S
C883 H909 0.929 . S
C884 C882 1.320 . S
C884 C885 1.405 . S
C884 H910 0.930 . S
C885 C880 1.479 . S
C885 C884 1.405 . S
C885 H911 0.931 . S
U886 O887 2.454 . S
U886 O888 2.458 . S
U886 C889 2.984 . S
U886 C890 2.847 . S
U886 C903 2.882 . S
U886 O904 2.441 . S
U886 O905 2.420 . S
U886 O906 2.455 . S
U886 O907 2.449 . S
O887 U886 2.454 . S
O887 C889 1.353 . S
O888 U886 2.458 . S
O888 C889 1.286 . S
C889 U886 2.984 . S
C889 O887 1.353 . S
C889 O888 1.286 . S
C889 C891 1.363 . S
C890 C880 1.465 . S
C890 U886 2.847 . S
C890 O904 1.249 . S
C890 O905 1.202 . S
C891 C889 1.363 . S
C891 C893 1.408 . S
C891 C896 1.342 . S
C892 C893 1.310 . S
C892 C895 1.461 . S
C892 H912 0.932 . S
C893 C891 1.408 . S
C893 C892 1.310 . S
C893 H913 0.930 . S
C894 C895 1.474 . S
C894 C896 1.285 . S
C894 H914 0.929 . S
C895 C892 1.461 . S
C895 C894 1.474 . S
C896 C891 1.342 . S
C896 C894 1.285 . S
C896 H915 0.930 . S
C897 C900 1.424 . S
C897 C902 1.245 . S
C897 C903 1.428 . S
C898 C901 1.260 . S
C898 C902 1.477 . S
C898 H916 0.932 . S
C899 C900 1.384 . S
C899 C901 1.479 . S
C899 H917 0.929 . S
C900 C897 1.424 . S
C900 C899 1.384 . S
C900 H918 0.928 . S
C901 C898 1.260 . S
C901 C899 1.479 . S
C902 C897 1.245 . S
C902 C898 1.477 . S
C902 H919 0.932 . S
C903 U886 2.882 . S
C903 C897 1.428 . S
C903 O906 1.301 . S
C903 O907 1.282 . S
O904 U886 2.441 . S
O904 C890 1.249 . S
O905 U886 2.420 . S
O905 C890 1.202 . S
O906 U886 2.455 . S
O906 C903 1.301 . S
O907 U886 2.449 . S
O907 C903 1.282 . S
H908 C881 0.931 . S
H909 C883 0.929 . S
H910 C884 0.930 . S
H911 C885 0.931 . S
H912 C892 0.932 . S
H913 C893 0.930 . S
H914 C894 0.929 . S
H915 C896 0.930 . S
H916 C898 0.932 . S
H917 C899 0.929 . S
H918 C900 0.928 . S
H919 C902 0.932 . S
C920 C921 1.264 . S
C920 C925 1.479 . S
C920 C930 1.465 . S
C921 C920 1.264 . S
C921 C923 1.339 . S
C921 H948 0.931 . S
C922 C923 1.395 . S
C922 C924 1.320 . S
C923 C921 1.339 . S
C923 C922 1.395 . S
C923 H949 0.929 . S
C924 C922 1.320 . S
C924 C925 1.405 . S
C924 H950 0.930 . S
C925 C920 1.479 . S
C925 C924 1.405 . S
C925 H951 0.931 . S
U926 O927 2.454 . S
U926 O928 2.458 . S
U926 C929 2.984 . S
U926 C930 2.847 . S
U926 C943 2.882 . S
U926 O944 2.441 . S
U926 O945 2.420 . S
U926 O946 2.455 . S
U926 O947 2.449 . S
O927 U926 2.454 . S
O927 C929 1.353 . S
O928 U926 2.458 . S
O928 C929 1.286 . S
C929 U926 2.984 . S
C929 O927 1.353 . S
C929 O928 1.286 . S
C929 C931 1.363 . S
C930 C920 1.465 . S
C930 U926 2.847 . S
C930 O944 1.249 . S
C930 O945 1.202 . S
C931 C929 1.363 . S
C931 C933 1.408 . S
C931 C936 1.342 . S
C932 C933 1.310 . S
C932 C935 1.461 . S
C932 H952 0.932 . S
C933 C931 1.408 . S
C933 C932 1.310 . S
C933 H953 0.930 . S
C934 C935 1.474 . S
C934 C936 1.285 . S
C934 H954 0.929 . S
C935 C932 1.461 . S
C935 C934 1.474 . S
C936 C931 1.342 . S
C936 C934 1.285 . S
C936 H955 0.930 . S
C937 C940 1.424 . S
C937 C942 1.245 . S
C937 C943 1.428 . S
C938 C941 1.260 . S
C938 C942 1.477 . S
C938 H956 0.932 . S
C939 C940 1.384 . S
C939 C941 1.479 . S
C939 H957 0.929 . S
C940 C937 1.424 . S
C940 C939 1.384 . S
C940 H958 0.928 . S
C941 C938 1.260 . S
C941 C939 1.479 . S
C942 C937 1.245 . S
C942 C938 1.477 . S
C942 H959 0.932 . S
C943 U926 2.882 . S
C943 C937 1.428 . S
C943 O946 1.301 . S
C943 O947 1.282 . S
O944 U926 2.441 . S
O944 C930 1.249 . S
O945 U926 2.420 . S
O945 C930 1.202 . S
O946 U926 2.455 . S
O946 C943 1.301 . S
O947 U926 2.449 . S
O947 C943 1.282 . S
H948 C921 0.931 . S
H949 C923 0.929 . S
H950 C924 0.930 . S
H951 C925 0.931 . S
H952 C932 0.932 . S
H953 C933 0.930 . S
H954 C934 0.929 . S
H955 C936 0.930 . S
H956 C938 0.932 . S
H957 C939 0.929 . S
H958 C940 0.928 . S
H959 C942 0.932 . S
C960 C961 1.264 . S
C960 C965 1.479 . S
C960 C970 1.465 . S
C961 C960 1.264 . S
C961 C963 1.339 . S
C961 H988 0.931 . S
C962 C963 1.395 . S
C962 C964 1.320 . S
C963 C961 1.339 . S
C963 C962 1.395 . S
C963 H989 0.929 . S
C964 C962 1.320 . S
C964 C965 1.405 . S
C964 H990 0.930 . S
C965 C960 1.479 . S
C965 C964 1.405 . S
C965 H991 0.931 . S
U966 O967 2.454 . S
U966 O968 2.458 . S
U966 C969 2.984 . S
U966 C970 2.847 . S
U966 C983 2.882 . S
U966 O984 2.441 . S
U966 O985 2.420 . S
U966 O986 2.455 . S
U966 O987 2.449 . S
O967 U966 2.454 . S
O967 C969 1.353 . S
O968 U966 2.458 . S
O968 C969 1.286 . S
C969 U966 2.984 . S
C969 O967 1.353 . S
C969 O968 1.286 . S
C969 C971 1.363 . S
C970 C960 1.465 . S
C970 U966 2.847 . S
C970 O984 1.249 . S
C970 O985 1.202 . S
C971 C969 1.363 . S
C971 C973 1.408 . S
C971 C976 1.342 . S
C972 C973 1.310 . S
C972 C975 1.461 . S
C972 H992 0.932 . S
C973 C971 1.408 . S
C973 C972 1.310 . S
C973 H993 0.930 . S
C974 C975 1.474 . S
C974 C976 1.285 . S
C974 H994 0.929 . S
C975 C972 1.461 . S
C975 C974 1.474 . S
C976 C971 1.342 . S
C976 C974 1.285 . S
C976 H995 0.930 . S
C977 C980 1.424 . S
C977 C982 1.245 . S
C977 C983 1.428 . S
C978 C981 1.260 . S
C978 C982 1.477 . S
C978 H996 0.932 . S
C979 C980 1.384 . S
C979 C981 1.479 . S
C979 H997 0.929 . S
C980 C977 1.424 . S
C980 C979 1.384 . S
C980 H998 0.928 . S
C981 C978 1.260 . S
C981 C979 1.479 . S
C982 C977 1.245 . S
C982 C978 1.477 . S
C982 H999 0.932 . S
C983 U966 2.882 . S
C983 C977 1.428 . S
C983 O986 1.301 . S
C983 O987 1.282 . S
O984 U966 2.441 . S
O984 C970 1.249 . S
O985 U966 2.420 . S
O985 C970 1.202 . S
O986 U966 2.455 . S
O986 C983 1.301 . S
O987 U966 2.449 . S
O987 C983 1.282 . S
H988 C961 0.931 . S
H989 C963 0.929 . S
H990 C964 0.930 . S
H991 C965 0.931 . S
H992 C972 0.932 . S
H993 C973 0.930 . S
H994 C974 0.929 . S
H995 C976 0.930 . S
H996 C978 0.932 . S
H997 C979 0.929 . S
H998 C980 0.928 . S
H999 C982 0.932 . S
C1000 C1001 1.264 . S
C1000 C1005 1.479 . S
C1000 C1010 1.465 . S
C1001 C1000 1.264 . S
C1001 C1003 1.339 . S
C1001 H1028 0.931 . S
C1002 C1003 1.395 . S
C1002 C1004 1.320 . S
C1003 C1001 1.339 . S
C1003 C1002 1.395 . S
C1003 H1029 0.929 . S
C1004 C1002 1.320 . S
C1004 C1005 1.405 . S
C1004 H1030 0.930 . S
C1005 C1000 1.479 . S
C1005 C1004 1.405 . S
C1005 H1031 0.931 . S
U1006 O1007 2.454 . S
U1006 O1008 2.458 . S
U1006 C1009 2.984 . S
U1006 C1010 2.847 . S
U1006 C1023 2.882 . S
U1006 O1024 2.441 . S
U1006 O1025 2.420 . S
U1006 O1026 2.455 . S
U1006 O1027 2.449 . S
O1007 U1006 2.454 . S
O1007 C1009 1.353 . S
O1008 U1006 2.458 . S
O1008 C1009 1.286 . S
C1009 U1006 2.984 . S
C1009 O1007 1.353 . S
C1009 O1008 1.286 . S
C1009 C1011 1.363 . S
C1010 C1000 1.465 . S
C1010 U1006 2.847 . S
C1010 O1024 1.249 . S
C1010 O1025 1.202 . S
C1011 C1009 1.363 . S
C1011 C1013 1.408 . S
C1011 C1016 1.342 . S
C1012 C1013 1.310 . S
C1012 C1015 1.461 . S
C1012 H1032 0.932 . S
C1013 C1011 1.408 . S
C1013 C1012 1.310 . S
C1013 H1033 0.930 . S
C1014 C1015 1.474 . S
C1014 C1016 1.285 . S
C1014 H1034 0.929 . S
C1015 C1012 1.461 . S
C1015 C1014 1.474 . S
C1016 C1011 1.342 . S
C1016 C1014 1.285 . S
C1016 H1035 0.930 . S
C1017 C1020 1.424 . S
C1017 C1022 1.245 . S
C1017 C1023 1.428 . S
C1018 C1021 1.260 . S
C1018 C1022 1.477 . S
C1018 H1036 0.932 . S
C1019 C1020 1.384 . S
C1019 C1021 1.479 . S
C1019 H1037 0.929 . S
C1020 C1017 1.424 . S
C1020 C1019 1.384 . S
C1020 H1038 0.928 . S
C1021 C1018 1.260 . S
C1021 C1019 1.479 . S
C1022 C1017 1.245 . S
C1022 C1018 1.477 . S
C1022 H1039 0.932 . S
C1023 U1006 2.882 . S
C1023 C1017 1.428 . S
C1023 O1026 1.301 . S
C1023 O1027 1.282 . S
O1024 U1006 2.441 . S
O1024 C1010 1.249 . S
O1025 U1006 2.420 . S
O1025 C1010 1.202 . S
O1026 U1006 2.455 . S
O1026 C1023 1.301 . S
O1027 U1006 2.449 . S
O1027 C1023 1.282 . S
H1028 C1001 0.931 . S
H1029 C1003 0.929 . S
H1030 C1004 0.930 . S
H1031 C1005 0.931 . S
H1032 C1012 0.932 . S
H1033 C1013 0.930 . S
H1034 C1014 0.929 . S
H1035 C1016 0.930 . S
H1036 C1018 0.932 . S
H1037 C1019 0.929 . S
H1038 C1020 0.928 . S
H1039 C1022 0.932 . S
C1040 C1041 1.264 . S
C1040 C1045 1.479 . S
C1040 C1050 1.465 . S
C1041 C1040 1.264 . S
C1041 C1043 1.339 . S
C1041 H1068 0.931 . S
C1042 C1043 1.395 . S
C1042 C1044 1.320 . S
C1043 C1041 1.339 . S
C1043 C1042 1.395 . S
C1043 H1069 0.929 . S
C1044 C1042 1.320 . S
C1044 C1045 1.405 . S
C1044 H1070 0.930 . S
C1045 C1040 1.479 . S
C1045 C1044 1.405 . S
C1045 H1071 0.931 . S
U1046 O1047 2.454 . S
U1046 O1048 2.458 . S
U1046 C1049 2.984 . S
U1046 C1050 2.847 . S
U1046 C1063 2.882 . S
U1046 O1064 2.441 . S
U1046 O1065 2.420 . S
U1046 O1066 2.455 . S
U1046 O1067 2.449 . S
O1047 U1046 2.454 . S
O1047 C1049 1.353 . S
O1048 U1046 2.458 . S
O1048 C1049 1.286 . S
C1049 U1046 2.984 . S
C1049 O1047 1.353 . S
C1049 O1048 1.286 . S
C1049 C1051 1.363 . S
C1050 C1040 1.465 . S
C1050 U1046 2.847 . S
C1050 O1064 1.249 . S
C1050 O1065 1.202 . S
C1051 C1049 1.363 . S
C1051 C1053 1.408 . S
C1051 C1056 1.342 . S
C1052 C1053 1.310 . S
C1052 C1055 1.461 . S
C1052 H1072 0.932 . S
C1053 C1051 1.408 . S
C1053 C1052 1.310 . S
C1053 H1073 0.930 . S
C1054 C1055 1.474 . S
C1054 C1056 1.285 . S
C1054 H1074 0.929 . S
C1055 C1052 1.461 . S
C1055 C1054 1.474 . S
C1056 C1051 1.342 . S
C1056 C1054 1.285 . S
C1056 H1075 0.930 . S
C1057 C1060 1.424 . S
C1057 C1062 1.245 . S
C1057 C1063 1.428 . S
C1058 C1061 1.260 . S
C1058 C1062 1.477 . S
C1058 H1076 0.932 . S
C1059 C1060 1.384 . S
C1059 C1061 1.479 . S
C1059 H1077 0.929 . S
C1060 C1057 1.424 . S
C1060 C1059 1.384 . S
C1060 H1078 0.928 . S
C1061 C1058 1.260 . S
C1061 C1059 1.479 . S
C1062 C1057 1.245 . S
C1062 C1058 1.477 . S
C1062 H1079 0.932 . S
C1063 U1046 2.882 . S
C1063 C1057 1.428 . S
C1063 O1066 1.301 . S
C1063 O1067 1.282 . S
O1064 U1046 2.441 . S
O1064 C1050 1.249 . S
O1065 U1046 2.420 . S
O1065 C1050 1.202 . S
O1066 U1046 2.455 . S
O1066 C1063 1.301 . S
O1067 U1046 2.449 . S
O1067 C1063 1.282 . S
H1068 C1041 0.931 . S
H1069 C1043 0.929 . S
H1070 C1044 0.930 . S
H1071 C1045 0.931 . S
H1072 C1052 0.932 . S
H1073 C1053 0.930 . S
H1074 C1054 0.929 . S
H1075 C1056 0.930 . S
H1076 C1058 0.932 . S
H1077 C1059 0.929 . S
H1078 C1060 0.928 . S
H1079 C1062 0.932 . S
C1080 C1081 1.264 . S
C1080 C1085 1.479 . S
C1080 C1090 1.465 . S
C1081 C1080 1.264 . S
C1081 C1083 1.339 . S
C1081 H1108 0.931 . S
C1082 C1083 1.395 . S
C1082 C1084 1.320 . S
C1083 C1081 1.339 . S
C1083 C1082 1.395 . S
C1083 H1109 0.929 . S
C1084 C1082 1.320 . S
C1084 C1085 1.405 . S
C1084 H1110 0.930 . S
C1085 C1080 1.479 . S
C1085 C1084 1.405 . S
C1085 H1111 0.931 . S
U1086 O1087 2.454 . S
U1086 O1088 2.458 . S
U1086 C1089 2.984 . S
U1086 C1090 2.847 . S
U1086 C1103 2.882 . S
U1086 O1104 2.441 . S
U1086 O1105 2.420 . S
U1086 O1106 2.455 . S
U1086 O1107 2.449 . S
O1087 U1086 2.454 . S
O1087 C1089 1.353 . S
O1088 U1086 2.458 . S
O1088 C1089 1.286 . S
C1089 U1086 2.984 . S
C1089 O1087 1.353 . S
C1089 O1088 1.286 . S
C1089 C1091 1.363 . S
C1090 C1080 1.465 . S
C1090 U1086 2.847 . S
C1090 O1104 1.249 . S
C1090 O1105 1.202 . S
C1091 C1089 1.363 . S
C1091 C1093 1.408 . S
C1091 C1096 1.342 . S
C1092 C1093 1.310 . S
C1092 C1095 1.461 . S
C1092 H1112 0.932 . S
C1093 C1091 1.408 . S
C1093 C1092 1.310 . S
C1093 H1113 0.930 . S
C1094 C1095 1.474 . S
C1094 C1096 1.285 . S
C1094 H1114 0.929 . S
C1095 C1092 1.461 . S
C1095 C1094 1.474 . S
C1096 C1091 1.342 . S
C1096 C1094 1.285 . S
C1096 H1115 0.930 . S
C1097 C1100 1.424 . S
C1097 C1102 1.245 . S
C1097 C1103 1.428 . S
C1098 C1101 1.260 . S
C1098 C1102 1.477 . S
C1098 H1116 0.932 . S
C1099 C1100 1.384 . S
C1099 C1101 1.479 . S
C1099 H1117 0.929 . S
C1100 C1097 1.424 . S
C1100 C1099 1.384 . S
C1100 H1118 0.928 . S
C1101 C1098 1.260 . S
C1101 C1099 1.479 . S
C1102 C1097 1.245 . S
C1102 C1098 1.477 . S
C1102 H1119 0.932 . S
C1103 U1086 2.882 . S
C1103 C1097 1.428 . S
C1103 O1106 1.301 . S
C1103 O1107 1.282 . S
O1104 U1086 2.441 . S
O1104 C1090 1.249 . S
O1105 U1086 2.420 . S
O1105 C1090 1.202 . S
O1106 U1086 2.455 . S
O1106 C1103 1.301 . S
O1107 U1086 2.449 . S
O1107 C1103 1.282 . S
H1108 C1081 0.931 . S
H1109 C1083 0.929 . S
H1110 C1084 0.930 . S
H1111 C1085 0.931 . S
H1112 C1092 0.932 . S
H1113 C1093 0.930 . S
H1114 C1094 0.929 . S
H1115 C1096 0.930 . S
H1116 C1098 0.932 . S
H1117 C1099 0.929 . S
H1118 C1100 0.928 . S
H1119 C1102 0.932 . S
C1120 C1121 1.264 . S
C1120 C1125 1.479 . S
C1120 C1130 1.465 . S
C1121 C1120 1.264 . S
C1121 C1123 1.339 . S
C1121 H1148 0.931 . S
C1122 C1123 1.395 . S
C1122 C1124 1.320 . S
C1123 C1121 1.339 . S
C1123 C1122 1.395 . S
C1123 H1149 0.929 . S
C1124 C1122 1.320 . S
C1124 C1125 1.405 . S
C1124 H1150 0.930 . S
C1125 C1120 1.479 . S
C1125 C1124 1.405 . S
C1125 H1151 0.931 . S
U1126 O1127 2.454 . S
U1126 O1128 2.458 . S
U1126 C1129 2.984 . S
U1126 C1130 2.847 . S
U1126 C1143 2.882 . S
U1126 O1144 2.441 . S
U1126 O1145 2.420 . S
U1126 O1146 2.455 . S
U1126 O1147 2.449 . S
O1127 U1126 2.454 . S
O1127 C1129 1.353 . S
O1128 U1126 2.458 . S
O1128 C1129 1.286 . S
C1129 U1126 2.984 . S
C1129 O1127 1.353 . S
C1129 O1128 1.286 . S
C1129 C1131 1.363 . S
C1130 C1120 1.465 . S
C1130 U1126 2.847 . S
C1130 O1144 1.249 . S
C1130 O1145 1.202 . S
C1131 C1129 1.363 . S
C1131 C1133 1.408 . S
C1131 C1136 1.342 . S
C1132 C1133 1.310 . S
C1132 C1135 1.461 . S
C1132 H1152 0.932 . S
C1133 C1131 1.408 . S
C1133 C1132 1.310 . S
C1133 H1153 0.930 . S
C1134 C1135 1.474 . S
C1134 C1136 1.285 . S
C1134 H1154 0.929 . S
C1135 C1132 1.461 . S
C1135 C1134 1.474 . S
C1136 C1131 1.342 . S
C1136 C1134 1.285 . S
C1136 H1155 0.930 . S
C1137 C1140 1.424 . S
C1137 C1142 1.245 . S
C1137 C1143 1.428 . S
C1138 C1141 1.260 . S
C1138 C1142 1.477 . S
C1138 H1156 0.932 . S
C1139 C1140 1.384 . S
C1139 C1141 1.479 . S
C1139 H1157 0.929 . S
C1140 C1137 1.424 . S
C1140 C1139 1.384 . S
C1140 H1158 0.928 . S
C1141 C1138 1.260 . S
C1141 C1139 1.479 . S
C1142 C1137 1.245 . S
C1142 C1138 1.477 . S
C1142 H1159 0.932 . S
C1143 U1126 2.882 . S
C1143 C1137 1.428 . S
C1143 O1146 1.301 . S
C1143 O1147 1.282 . S
O1144 U1126 2.441 . S
O1144 C1130 1.249 . S
O1145 U1126 2.420 . S
O1145 C1130 1.202 . S
O1146 U1126 2.455 . S
O1146 C1143 1.301 . S
O1147 U1126 2.449 . S
O1147 C1143 1.282 . S
H1148 C1121 0.931 . S
H1149 C1123 0.929 . S
H1150 C1124 0.930 . S
H1151 C1125 0.931 . S
H1152 C1132 0.932 . S
H1153 C1133 0.930 . S
H1154 C1134 0.929 . S
H1155 C1136 0.930 . S
H1156 C1138 0.932 . S
H1157 C1139 0.929 . S
H1158 C1140 0.928 . S
H1159 C1142 0.932 . S
C1160 C1161 1.264 . S
C1160 C1165 1.479 . S
C1160 C1170 1.465 . S
C1161 C1160 1.264 . S
C1161 C1163 1.339 . S
C1161 H1188 0.931 . S
C1162 C1163 1.395 . S
C1162 C1164 1.320 . S
C1163 C1161 1.339 . S
C1163 C1162 1.395 . S
C1163 H1189 0.929 . S
C1164 C1162 1.320 . S
C1164 C1165 1.405 . S
C1164 H1190 0.930 . S
C1165 C1160 1.479 . S
C1165 C1164 1.405 . S
C1165 H1191 0.931 . S
U1166 O1167 2.454 . S
U1166 O1168 2.458 . S
U1166 C1169 2.984 . S
U1166 C1170 2.847 . S
U1166 C1183 2.882 . S
U1166 O1184 2.441 . S
U1166 O1185 2.420 . S
U1166 O1186 2.455 . S
U1166 O1187 2.449 . S
O1167 U1166 2.454 . S
O1167 C1169 1.353 . S
O1168 U1166 2.458 . S
O1168 C1169 1.286 . S
C1169 U1166 2.984 . S
C1169 O1167 1.353 . S
C1169 O1168 1.286 . S
C1169 C1171 1.363 . S
C1170 C1160 1.465 . S
C1170 U1166 2.847 . S
C1170 O1184 1.249 . S
C1170 O1185 1.202 . S
C1171 C1169 1.363 . S
C1171 C1173 1.408 . S
C1171 C1176 1.342 . S
C1172 C1173 1.310 . S
C1172 C1175 1.461 . S
C1172 H1192 0.932 . S
C1173 C1171 1.408 . S
C1173 C1172 1.310 . S
C1173 H1193 0.930 . S
C1174 C1175 1.474 . S
C1174 C1176 1.285 . S
C1174 H1194 0.929 . S
C1175 C1172 1.461 . S
C1175 C1174 1.474 . S
C1176 C1171 1.342 . S
C1176 C1174 1.285 . S
C1176 H1195 0.930 . S
C1177 C1180 1.424 . S
C1177 C1182 1.245 . S
C1177 C1183 1.428 . S
C1178 C1181 1.260 . S
C1178 C1182 1.477 . S
C1178 H1196 0.932 . S
C1179 C1180 1.384 . S
C1179 C1181 1.479 . S
C1179 H1197 0.929 . S
C1180 C1177 1.424 . S
C1180 C1179 1.384 . S
C1180 H1198 0.928 . S
C1181 C1178 1.260 . S
C1181 C1179 1.479 . S
C1182 C1177 1.245 . S
C1182 C1178 1.477 . S
C1182 H1199 0.932 . S
C1183 U1166 2.882 . S
C1183 C1177 1.428 . S
C1183 O1186 1.301 . S
C1183 O1187 1.282 . S
O1184 U1166 2.441 . S
O1184 C1170 1.249 . S
O1185 U1166 2.420 . S
O1185 C1170 1.202 . S
O1186 U1166 2.455 . S
O1186 C1183 1.301 . S
O1187 U1166 2.449 . S
O1187 C1183 1.282 . S
H1188 C1161 0.931 . S
H1189 C1163 0.929 . S
H1190 C1164 0.930 . S
H1191 C1165 0.931 . S
H1192 C1172 0.932 . S
H1193 C1173 0.930 . S
H1194 C1174 0.929 . S
H1195 C1176 0.930 . S
H1196 C1178 0.932 . S
H1197 C1179 0.929 . S
H1198 C1180 0.928 . S
H1199 C1182 0.932 . S
C1200 C1201 1.264 . S
C1200 C1205 1.479 . S
C1200 C1210 1.465 . S
C1201 C1200 1.264 . S
C1201 C1203 1.339 . S
C1201 H1228 0.931 . S
C1202 C1203 1.395 . S
C1202 C1204 1.320 . S
C1203 C1201 1.339 . S
C1203 C1202 1.395 . S
C1203 H1229 0.929 . S
C1204 C1202 1.320 . S
C1204 C1205 1.405 . S
C1204 H1230 0.930 . S
C1205 C1200 1.479 . S
C1205 C1204 1.405 . S
C1205 H1231 0.931 . S
U1206 O1207 2.454 . S
U1206 O1208 2.458 . S
U1206 C1209 2.984 . S
U1206 C1210 2.847 . S
U1206 C1223 2.882 . S
U1206 O1224 2.441 . S
U1206 O1225 2.420 . S
U1206 O1226 2.455 . S
U1206 O1227 2.449 . S
O1207 U1206 2.454 . S
O1207 C1209 1.353 . S
O1208 U1206 2.458 . S
O1208 C1209 1.286 . S
C1209 U1206 2.984 . S
C1209 O1207 1.353 . S
C1209 O1208 1.286 . S
C1209 C1211 1.363 . S
C1210 C1200 1.465 . S
C1210 U1206 2.847 . S
C1210 O1224 1.249 . S
C1210 O1225 1.202 . S
C1211 C1209 1.363 . S
C1211 C1213 1.408 . S
C1211 C1216 1.342 . S
C1212 C1213 1.310 . S
C1212 C1215 1.461 . S
C1212 H1232 0.932 . S
C1213 C1211 1.408 . S
C1213 C1212 1.310 . S
C1213 H1233 0.930 . S
C1214 C1215 1.474 . S
C1214 C1216 1.285 . S
C1214 H1234 0.929 . S
C1215 C1212 1.461 . S
C1215 C1214 1.474 . S
C1216 C1211 1.342 . S
C1216 C1214 1.285 . S
C1216 H1235 0.930 . S
C1217 C1220 1.424 . S
C1217 C1222 1.245 . S
C1217 C1223 1.428 . S
C1218 C1221 1.260 . S
C1218 C1222 1.477 . S
C1218 H1236 0.932 . S
C1219 C1220 1.384 . S
C1219 C1221 1.479 . S
C1219 H1237 0.929 . S
C1220 C1217 1.424 . S
C1220 C1219 1.384 . S
C1220 H1238 0.928 . S
C1221 C1218 1.260 . S
C1221 C1219 1.479 . S
C1222 C1217 1.245 . S
C1222 C1218 1.477 . S
C1222 H1239 0.932 . S
C1223 U1206 2.882 . S
C1223 C1217 1.428 . S
C1223 O1226 1.301 . S
C1223 O1227 1.282 . S
O1224 U1206 2.441 . S
O1224 C1210 1.249 . S
O1225 U1206 2.420 . S
O1225 C1210 1.202 . S
O1226 U1206 2.455 . S
O1226 C1223 1.301 . S
O1227 U1206 2.449 . S
O1227 C1223 1.282 . S
H1228 C1201 0.931 . S
H1229 C1203 0.929 . S
H1230 C1204 0.930 . S
H1231 C1205 0.931 . S
H1232 C1212 0.932 . S
H1233 C1213 0.930 . S
H1234 C1214 0.929 . S
H1235 C1216 0.930 . S
H1236 C1218 0.932 . S
H1237 C1219 0.929 . S
H1238 C1220 0.928 . S
H1239 C1222 0.932 . S
C1240 C1241 1.264 . S
C1240 C1245 1.479 . S
C1240 C1250 1.465 . S
C1241 C1240 1.264 . S
C1241 C1243 1.339 . S
C1241 H1268 0.931 . S
C1242 C1243 1.395 . S
C1242 C1244 1.320 . S
C1243 C1241 1.339 . S
C1243 C1242 1.395 . S
C1243 H1269 0.929 . S
C1244 C1242 1.320 . S
C1244 C1245 1.405 . S
C1244 H1270 0.930 . S
C1245 C1240 1.479 . S
C1245 C1244 1.405 . S
C1245 H1271 0.931 . S
U1246 O1247 2.454 . S
U1246 O1248 2.458 . S
U1246 C1249 2.984 . S
U1246 C1250 2.847 . S
U1246 C1263 2.882 . S
U1246 O1264 2.441 . S
U1246 O1265 2.420 . S
U1246 O1266 2.455 . S
U1246 O1267 2.449 . S
O1247 U1246 2.454 . S
O1247 C1249 1.353 . S
O1248 U1246 2.458 . S
O1248 C1249 1.286 . S
C1249 U1246 2.984 . S
C1249 O1247 1.353 . S
C1249 O1248 1.286 . S
C1249 C1251 1.363 . S
C1250 C1240 1.465 . S
C1250 U1246 2.847 . S
C1250 O1264 1.249 . S
C1250 O1265 1.202 . S
C1251 C1249 1.363 . S
C1251 C1253 1.408 . S
C1251 C1256 1.342 . S
C1252 C1253 1.310 . S
C1252 C1255 1.461 . S
C1252 H1272 0.932 . S
C1253 C1251 1.408 . S
C1253 C1252 1.310 . S
C1253 H1273 0.930 . S
C1254 C1255 1.474 . S
C1254 C1256 1.285 . S
C1254 H1274 0.929 . S
C1255 C1252 1.461 . S
C1255 C1254 1.474 . S
C1256 C1251 1.342 . S
C1256 C1254 1.285 . S
C1256 H1275 0.930 . S
C1257 C1260 1.424 . S
C1257 C1262 1.245 . S
C1257 C1263 1.428 . S
C1258 C1261 1.260 . S
C1258 C1262 1.477 . S
C1258 H1276 0.932 . S
C1259 C1260 1.384 . S
C1259 C1261 1.479 . S
C1259 H1277 0.929 . S
C1260 C1257 1.424 . S
C1260 C1259 1.384 . S
C1260 H1278 0.928 . S
C1261 C1258 1.260 . S
C1261 C1259 1.479 . S
C1262 C1257 1.245 . S
C1262 C1258 1.477 . S
C1262 H1279 0.932 . S
C1263 U1246 2.882 . S
C1263 C1257 1.428 . S
C1263 O1266 1.301 . S
C1263 O1267 1.282 . S
O1264 U1246 2.441 . S
O1264 C1250 1.249 . S
O1265 U1246 2.420 . S
O1265 C1250 1.202 . S
O1266 U1246 2.455 . S
O1266 C1263 1.301 . S
O1267 U1246 2.449 . S
O1267 C1263 1.282 . S
H1268 C1241 0.931 . S
H1269 C1243 0.929 . S
H1270 C1244 0.930 . S
H1271 C1245 0.931 . S
H1272 C1252 0.932 . S
H1273 C1253 0.930 . S
H1274 C1254 0.929 . S
H1275 C1256 0.930 . S
H1276 C1258 0.932 . S
H1277 C1259 0.929 . S
H1278 C1260 0.928 . S
H1279 C1262 0.932 . S
H1280 C1307 0.929 . S
N1281 C1306 1.433 . S
N1281 C1312 1.435 . S
N1281 C1318 1.423 . S
H1282 C1308 0.930 . S
H1283 C1311 0.931 . S
H1284 C1310 0.929 . S
H1285 C1313 0.930 . S
H1286 C1314 0.932 . S
H1287 C1317 0.929 . S
H1288 C1316 0.931 . S
H1289 C1319 0.929 . S
H1290 C1323 0.932 . S
H1291 C1320 0.931 . S
H1292 C1322 0.929 . S
H1293 C1325 0.929 . S
H1294 C1326 0.930 . S
H1295 C1328 0.929 . S
H1296 C1329 0.931 . S
H1297 C1331 0.930 . S
H1298 C1332 0.932 . S
H1299 C1334 0.931 . S
H1300 C1335 0.929 . S
H1301 C1337 0.929 . S
H1302 C1338 0.931 . S
H1303 C1340 0.929 . S
N1304 C1324 1.433 . S
N1304 C1330 1.435 . S
N1304 C1336 1.423 . S
H1305 C1341 0.932 . S
C1306 N1281 1.433 . S
C1306 C1307 1.363 . S
C1306 C1311 1.370 . S
C1307 H1280 0.929 . S
C1307 C1306 1.363 . S
C1307 C1308 1.385 . S
C1308 H1282 0.930 . S
C1308 C1307 1.385 . S
C1308 C1309 1.357 . S
C1309 C1308 1.357 . S
C1309 C1310 1.406 . S
C1310 H1284 0.929 . S
C1310 C1309 1.406 . S
C1310 C1311 1.391 . S
C1311 H1283 0.931 . S
C1311 C1306 1.370 . S
C1311 C1310 1.391 . S
C1312 N1281 1.435 . S
C1312 C1313 1.358 . S
C1312 C1317 1.371 . S
C1313 H1285 0.930 . S
C1313 C1312 1.358 . S
C1313 C1314 1.405 . S
C1314 H1286 0.932 . S
C1314 C1313 1.405 . S
C1314 C1315 1.383 . S
C1315 C1314 1.383 . S
C1315 C1316 1.393 . S
C1316 H1288 0.931 . S
C1316 C1315 1.393 . S
C1316 C1317 1.382 . S
C1317 H1287 0.929 . S
C1317 C1312 1.371 . S
C1317 C1316 1.382 . S
C1318 N1281 1.423 . S
C1318 C1319 1.362 . S
C1318 C1323 1.388 . S
C1319 H1289 0.929 . S
C1319 C1318 1.362 . S
C1319 C1320 1.376 . S
C1320 H1291 0.931 . S
C1320 C1319 1.376 . S
C1320 C1321 1.358 1_556 S
C1321 C1320 1.358 1_554 S
C1321 C1322 1.309 1_554 S
C1321 C1339 1.547 . S
C1322 H1292 0.929 . S
C1322 C1321 1.309 1_556 S
C1322 C1323 1.443 . S
C1323 H1290 0.932 . S
C1323 C1318 1.388 . S
C1323 C1322 1.443 . S
C1324 N1304 1.433 . S
C1324 C1325 1.363 . S
C1324 C1329 1.370 . S
C1325 H1293 0.929 . S
C1325 C1324 1.363 . S
C1325 C1326 1.385 . S
C1326 H1294 0.930 . S
C1326 C1325 1.385 . S
C1326 C1327 1.357 . S
C1327 C1326 1.357 . S
C1327 C1328 1.406 . S
C1328 H1295 0.929 . S
C1328 C1327 1.406 . S
C1328 C1329 1.391 . S
C1329 H1296 0.931 . S
C1329 C1324 1.370 . S
C1329 C1328 1.391 . S
C1330 N1304 1.435 . S
C1330 C1331 1.358 . S
C1330 C1335 1.371 . S
C1331 H1297 0.930 . S
C1331 C1330 1.358 . S
C1331 C1332 1.405 . S
C1332 H1298 0.932 . S
C1332 C1331 1.405 . S
C1332 C1333 1.383 . S
C1333 C1332 1.383 . S
C1333 C1334 1.393 . S
C1334 H1299 0.931 . S
C1334 C1333 1.393 . S
C1334 C1335 1.382 . S
C1335 H1300 0.929 . S
C1335 C1330 1.371 . S
C1335 C1334 1.382 . S
C1336 N1304 1.423 . S
C1336 C1337 1.362 . S
C1336 C1341 1.388 . S
C1337 H1301 0.929 . S
C1337 C1336 1.362 . S
C1337 C1338 1.376 . S
C1338 H1302 0.931 . S
C1338 C1337 1.376 . S
C1338 C1339 1.396 . S
C1339 C1321 1.547 . S
C1339 C1338 1.396 . S
C1339 C1340 1.348 . S
C1340 H1303 0.929 . S
C1340 C1339 1.348 . S
C1340 C1341 1.443 . S
C1341 H1305 0.932 . S
C1341 C1336 1.388 . S
C1341 C1340 1.443 . S
H1342 C1369 0.929 . S
N1343 C1368 1.433 . S
N1343 C1374 1.435 . S
N1343 C1380 1.423 . S
H1344 C1370 0.930 . S
H1345 C1373 0.931 . S
H1346 C1372 0.929 . S
H1347 C1375 0.930 . S
H1348 C1376 0.932 . S
H1349 C1379 0.929 . S
H1350 C1378 0.931 . S
H1351 C1381 0.929 . S
H1352 C1385 0.932 . S
H1353 C1382 0.882 1_554 S
H1354 C1384 0.929 1_554 S
H1355 C1387 0.929 . S
H1356 C1388 0.930 . S
H1357 C1390 0.929 . S
H1358 C1391 0.931 . S
H1359 C1393 0.930 . S
H1360 C1394 0.932 . S
H1361 C1396 0.931 . S
H1362 C1397 0.929 . S
H1363 C1399 0.929 . S
H1364 C1400 0.931 . S
H1365 C1402 0.929 . S
N1366 C1386 1.433 . S
N1366 C1392 1.435 . S
N1366 C1398 1.423 . S
H1367 C1403 0.932 . S
C1368 N1343 1.433 . S
C1368 C1369 1.363 . S
C1368 C1373 1.370 . S
C1369 H1342 0.929 . S
C1369 C1368 1.363 . S
C1369 C1370 1.385 . S
C1370 H1344 0.930 . S
C1370 C1369 1.385 . S
C1370 C1371 1.357 . S
C1371 C1370 1.357 . S
C1371 C1372 1.406 . S
C1372 H1346 0.929 . S
C1372 C1371 1.406 . S
C1372 C1373 1.391 . S
C1373 H1345 0.931 . S
C1373 C1368 1.370 . S
C1373 C1372 1.391 . S
C1374 N1343 1.435 . S
C1374 C1375 1.358 . S
C1374 C1379 1.371 . S
C1375 H1347 0.930 . S
C1375 C1374 1.358 . S
C1375 C1376 1.405 . S
C1376 H1348 0.932 . S
C1376 C1375 1.405 . S
C1376 C1377 1.383 . S
C1377 C1376 1.383 . S
C1377 C1378 1.393 . S
C1378 H1350 0.931 . S
C1378 C1377 1.393 . S
C1378 C1379 1.382 . S
C1379 H1349 0.929 . S
C1379 C1374 1.371 . S
C1379 C1378 1.382 . S
C1380 N1343 1.423 . S
C1380 C1381 1.362 . S
C1380 C1385 1.388 . S
C1381 H1351 0.929 . S
C1381 C1380 1.362 . S
C1381 C1382 1.376 . S
C1382 H1353 0.882 1_556 S
C1382 C1381 1.376 . S
C1382 C1383 1.396 1_556 S
C1383 C1382 1.396 1_554 S
C1383 C1384 1.348 1_554 S
C1383 C1401 1.472 . S
C1384 H1354 0.929 1_556 S
C1384 C1383 1.348 1_556 S
C1384 C1385 1.443 . S
C1385 H1352 0.932 . S
C1385 C1380 1.388 . S
C1385 C1384 1.443 . S
C1386 N1366 1.433 . S
C1386 C1387 1.363 . S
C1386 C1391 1.370 . S
C1387 H1355 0.929 . S
C1387 C1386 1.363 . S
C1387 C1388 1.385 . S
C1388 H1356 0.930 . S
C1388 C1387 1.385 . S
C1388 C1389 1.357 . S
C1389 C1388 1.357 . S
C1389 C1390 1.406 . S
C1390 H1357 0.929 . S
C1390 C1389 1.406 . S
C1390 C1391 1.391 . S
C1391 H1358 0.931 . S
C1391 C1386 1.370 . S
C1391 C1390 1.391 . S
C1392 N1366 1.435 . S
C1392 C1393 1.358 . S
C1392 C1397 1.371 . S
C1393 H1359 0.930 . S
C1393 C1392 1.358 . S
C1393 C1394 1.405 . S
C1394 H1360 0.932 . S
C1394 C1393 1.405 . S
C1394 C1395 1.383 . S
C1395 C1394 1.383 . S
C1395 C1396 1.393 . S
C1396 H1361 0.931 . S
C1396 C1395 1.393 . S
C1396 C1397 1.382 . S
C1397 H1362 0.929 . S
C1397 C1392 1.371 . S
C1397 C1396 1.382 . S
C1398 N1366 1.423 . S
C1398 C1399 1.362 . S
C1398 C1403 1.388 . S
C1399 H1363 0.929 . S
C1399 C1398 1.362 . S
C1399 C1400 1.376 . S
C1400 H1364 0.931 . S
C1400 C1399 1.376 . S
C1400 C1401 1.396 . S
C1401 C1383 1.472 . S
C1401 C1400 1.396 . S
C1401 C1402 1.348 . S
C1402 H1365 0.929 . S
C1402 C1401 1.348 . S
C1402 C1403 1.443 . S
C1403 H1367 0.932 . S
C1403 C1398 1.388 . S
C1403 C1402 1.443 . S
H1404 C1431 0.929 . S
N1405 C1430 1.433 . S
N1405 C1436 1.435 . S
N1405 C1442 1.423 . S
H1406 C1432 0.930 . S
H1407 C1435 0.931 . S
H1408 C1434 0.929 . S
H1409 C1437 0.930 . S
H1410 C1438 0.932 . S
H1411 C1441 0.929 . S
H1412 C1440 0.931 . S
H1413 C1443 0.929 . S
H1414 C1447 0.932 . S
H1415 C1444 0.931 . S
H1416 C1446 0.981 . S
H1417 C1449 0.929 . S
H1418 C1450 0.930 . S
H1419 C1452 0.929 . S
H1420 C1453 0.931 . S
H1421 C1455 0.930 . S
H1422 C1456 0.932 . S
H1423 C1458 0.931 . S
H1424 C1459 0.929 . S
H1425 C1461 0.929 . S
H1426 C1462 0.931 . S
H1427 C1464 0.929 . S
N1428 C1448 1.433 . S
N1428 C1454 1.435 . S
N1428 C1460 1.423 . S
H1429 C1465 0.932 . S
C1430 N1405 1.433 . S
C1430 C1431 1.363 . S
C1430 C1435 1.370 . S
C1431 H1404 0.929 . S
C1431 C1430 1.363 . S
C1431 C1432 1.385 . S
C1432 H1406 0.930 . S
C1432 C1431 1.385 . S
C1432 C1433 1.357 . S
C1433 C1432 1.357 . S
C1433 C1434 1.406 . S
C1434 H1408 0.929 . S
C1434 C1433 1.406 . S
C1434 C1435 1.391 . S
C1435 H1407 0.931 . S
C1435 C1430 1.370 . S
C1435 C1434 1.391 . S
C1436 N1405 1.435 . S
C1436 C1437 1.358 . S
C1436 C1441 1.371 . S
C1437 H1409 0.930 . S
C1437 C1436 1.358 . S
C1437 C1438 1.405 . S
C1438 H1410 0.932 . S
C1438 C1437 1.405 . S
C1438 C1439 1.383 . S
C1439 C1438 1.383 . S
C1439 C1440 1.393 . S
C1440 H1412 0.931 . S
C1440 C1439 1.393 . S
C1440 C1441 1.382 . S
C1441 H1411 0.929 . S
C1441 C1436 1.371 . S
C1441 C1440 1.382 . S
C1442 N1405 1.423 . S
C1442 C1443 1.362 . S
C1442 C1447 1.388 . S
C1443 H1413 0.929 . S
C1443 C1442 1.362 . S
C1443 C1444 1.376 . S
C1444 H1415 0.931 . S
C1444 C1443 1.376 . S
C1444 C1445 1.350 1_556 S
C1445 C1444 1.350 1_554 S
C1445 C1446 1.305 1_554 S
C1445 C1463 1.560 . S
C1446 H1416 0.981 . S
C1446 C1445 1.305 1_556 S
C1446 C1447 1.443 . S
C1447 H1414 0.932 . S
C1447 C1442 1.388 . S
C1447 C1446 1.443 . S
C1448 N1428 1.433 . S
C1448 C1449 1.363 . S
C1448 C1453 1.370 . S
C1449 H1417 0.929 . S
C1449 C1448 1.363 . S
C1449 C1450 1.385 . S
C1450 H1418 0.930 . S
C1450 C1449 1.385 . S
C1450 C1451 1.357 . S
C1451 C1450 1.357 . S
C1451 C1452 1.406 . S
C1452 H1419 0.929 . S
C1452 C1451 1.406 . S
C1452 C1453 1.391 . S
C1453 H1420 0.931 . S
C1453 C1448 1.370 . S
C1453 C1452 1.391 . S
C1454 N1428 1.435 . S
C1454 C1455 1.358 . S
C1454 C1459 1.371 . S
C1455 H1421 0.930 . S
C1455 C1454 1.358 . S
C1455 C1456 1.405 . S
C1456 H1422 0.932 . S
C1456 C1455 1.405 . S
C1456 C1457 1.383 . S
C1457 C1456 1.383 . S
C1457 C1458 1.393 . S
C1458 H1423 0.931 . S
C1458 C1457 1.393 . S
C1458 C1459 1.382 . S
C1459 H1424 0.929 . S
C1459 C1454 1.371 . S
C1459 C1458 1.382 . S
C1460 N1428 1.423 . S
C1460 C1461 1.362 . S
C1460 C1465 1.388 . S
C1461 H1425 0.929 . S
C1461 C1460 1.362 . S
C1461 C1462 1.376 . S
C1462 H1426 0.931 . S
C1462 C1461 1.376 . S
C1462 C1463 1.396 . S
C1463 C1445 1.560 . S
C1463 C1462 1.396 . S
C1463 C1464 1.348 . S
C1464 H1427 0.929 . S
C1464 C1463 1.348 . S
C1464 C1465 1.443 . S
C1465 H1429 0.932 . S
C1465 C1460 1.388 . S
C1465 C1464 1.443 . S
H1466 C1493 0.929 . S
N1467 C1492 1.433 . S
N1467 C1498 1.435 . S
N1467 C1504 1.423 . S
H1468 C1494 0.930 . S
H1469 C1497 0.931 . S
H1470 C1496 0.929 . S
H1471 C1499 0.930 . S
H1472 C1500 0.932 . S
H1473 C1503 0.929 . S
H1474 C1502 0.931 . S
H1475 C1505 0.929 . S
H1476 C1509 0.932 . S
H1477 C1506 0.910 1_554 S
H1478 C1508 0.930 1_554 S
H1479 C1511 0.929 . S
H1480 C1512 0.930 . S
H1481 C1514 0.929 . S
H1482 C1515 0.931 . S
H1483 C1517 0.930 . S
H1484 C1518 0.932 . S
H1485 C1520 0.931 . S
H1486 C1521 0.929 . S
H1487 C1523 0.929 . S
H1488 C1524 0.931 . S
H1489 C1526 0.929 . S
N1490 C1510 1.433 . S
N1490 C1516 1.435 . S
N1490 C1522 1.423 . S
H1491 C1527 0.932 . S
C1492 N1467 1.433 . S
C1492 C1493 1.363 . S
C1492 C1497 1.370 . S
C1493 H1466 0.929 . S
C1493 C1492 1.363 . S
C1493 C1494 1.385 . S
C1494 H1468 0.930 . S
C1494 C1493 1.385 . S
C1494 C1495 1.357 . S
C1495 C1494 1.357 . S
C1495 C1496 1.406 . S
C1496 H1470 0.929 . S
C1496 C1495 1.406 . S
C1496 C1497 1.391 . S
C1497 H1469 0.931 . S
C1497 C1492 1.370 . S
C1497 C1496 1.391 . S
C1498 N1467 1.435 . S
C1498 C1499 1.358 . S
C1498 C1503 1.371 . S
C1499 H1471 0.930 . S
C1499 C1498 1.358 . S
C1499 C1500 1.405 . S
C1500 H1472 0.932 . S
C1500 C1499 1.405 . S
C1500 C1501 1.383 . S
C1501 C1500 1.383 . S
C1501 C1502 1.393 . S
C1502 H1474 0.931 . S
C1502 C1501 1.393 . S
C1502 C1503 1.382 . S
C1503 H1473 0.929 . S
C1503 C1498 1.371 . S
C1503 C1502 1.382 . S
C1504 N1467 1.423 . S
C1504 C1505 1.362 . S
C1504 C1509 1.388 . S
C1505 H1475 0.929 . S
C1505 C1504 1.362 . S
C1505 C1506 1.376 . S
C1506 H1477 0.910 1_556 S
C1506 C1505 1.376 . S
C1506 C1507 1.396 1_556 S
C1507 C1506 1.396 1_554 S
C1507 C1508 1.348 1_554 S
C1507 C1525 1.472 . S
C1508 H1478 0.930 1_556 S
C1508 C1507 1.348 1_556 S
C1508 C1509 1.443 . S
C1509 H1476 0.932 . S
C1509 C1504 1.388 . S
C1509 C1508 1.443 . S
C1510 N1490 1.433 . S
C1510 C1511 1.363 . S
C1510 C1515 1.370 . S
C1511 H1479 0.929 . S
C1511 C1510 1.363 . S
C1511 C1512 1.385 . S
C1512 H1480 0.930 . S
C1512 C1511 1.385 . S
C1512 C1513 1.357 . S
C1513 C1512 1.357 . S
C1513 C1514 1.406 . S
C1514 H1481 0.929 . S
C1514 C1513 1.406 . S
C1514 C1515 1.391 . S
C1515 H1482 0.931 . S
C1515 C1510 1.370 . S
C1515 C1514 1.391 . S
C1516 N1490 1.435 . S
C1516 C1517 1.358 . S
C1516 C1521 1.371 . S
C1517 H1483 0.930 . S
C1517 C1516 1.358 . S
C1517 C1518 1.405 . S
C1518 H1484 0.932 . S
C1518 C1517 1.405 . S
C1518 C1519 1.383 . S
C1519 C1518 1.383 . S
C1519 C1520 1.393 . S
C1520 H1485 0.931 . S
C1520 C1519 1.393 . S
C1520 C1521 1.382 . S
C1521 H1486 0.929 . S
C1521 C1516 1.371 . S
C1521 C1520 1.382 . S
C1522 N1490 1.423 . S
C1522 C1523 1.362 . S
C1522 C1527 1.388 . S
C1523 H1487 0.929 . S
C1523 C1522 1.362 . S
C1523 C1524 1.376 . S
C1524 H1488 0.931 . S
C1524 C1523 1.376 . S
C1524 C1525 1.396 . S
C1525 C1507 1.472 . S
C1525 C1524 1.396 . S
C1525 C1526 1.348 . S
C1526 H1489 0.929 . S
C1526 C1525 1.348 . S
C1526 C1527 1.443 . S
C1527 H1491 0.932 . S
C1527 C1522 1.388 . S
C1527 C1526 1.443 . S
H1528 C1555 0.929 . S
N1529 C1554 1.433 . S
N1529 C1560 1.435 . S
N1529 C1566 1.423 . S
H1530 C1556 0.930 . S
H1531 C1559 0.931 . S
H1532 C1558 0.929 . S
H1533 C1561 0.930 . S
H1534 C1562 0.932 . S
H1535 C1565 0.929 . S
H1536 C1564 0.931 . S
H1537 C1567 0.929 . S
H1538 C1571 0.932 . S
H1539 C1568 0.887 1_455 S
H1540 C1570 0.918 1_455 S
H1541 C1573 0.929 . S
H1542 C1574 0.930 . S
H1543 C1576 0.929 . S
H1544 C1577 0.931 . S
H1545 C1579 0.930 . S
H1546 C1580 0.932 . S
H1547 C1582 0.931 . S
H1548 C1583 0.929 . S
H1549 C1585 0.929 . S
H1550 C1586 0.931 . S
H1551 C1588 0.929 . S
N1552 C1572 1.433 . S
N1552 C1578 1.435 . S
N1552 C1584 1.423 . S
H1553 C1589 0.932 . S
C1554 N1529 1.433 . S
C1554 C1555 1.363 . S
C1554 C1559 1.370 . S
C1555 H1528 0.929 . S
C1555 C1554 1.363 . S
C1555 C1556 1.385 . S
C1556 H1530 0.930 . S
C1556 C1555 1.385 . S
C1556 C1557 1.357 . S
C1557 C1556 1.357 . S
C1557 C1558 1.406 . S
C1558 H1532 0.929 . S
C1558 C1557 1.406 . S
C1558 C1559 1.391 . S
C1559 H1531 0.931 . S
C1559 C1554 1.370 . S
C1559 C1558 1.391 . S
C1560 N1529 1.435 . S
C1560 C1561 1.358 . S
C1560 C1565 1.371 . S
C1561 H1533 0.930 . S
C1561 C1560 1.358 . S
C1561 C1562 1.405 . S
C1562 H1534 0.932 . S
C1562 C1561 1.405 . S
C1562 C1563 1.383 . S
C1563 C1562 1.383 . S
C1563 C1564 1.393 . S
C1564 H1536 0.931 . S
C1564 C1563 1.393 . S
C1564 C1565 1.382 . S
C1565 H1535 0.929 . S
C1565 C1560 1.371 . S
C1565 C1564 1.382 . S
C1566 N1529 1.423 . S
C1566 C1567 1.362 . S
C1566 C1571 1.388 . S
C1567 H1537 0.929 . S
C1567 C1566 1.362 . S
C1567 C1568 1.376 . S
C1568 H1539 0.887 1_655 S
C1568 C1567 1.376 . S
C1568 C1569 1.396 1_655 S
C1569 C1568 1.396 1_455 S
C1569 C1570 1.348 1_455 S
C1569 C1587 1.472 . S
C1570 H1540 0.918 1_655 S
C1570 C1569 1.348 1_655 S
C1570 C1571 1.443 . S
C1571 H1538 0.932 . S
C1571 C1566 1.388 . S
C1571 C1570 1.443 . S
C1572 N1552 1.433 . S
C1572 C1573 1.363 . S
C1572 C1577 1.370 . S
C1573 H1541 0.929 . S
C1573 C1572 1.363 . S
C1573 C1574 1.385 . S
C1574 H1542 0.930 . S
C1574 C1573 1.385 . S
C1574 C1575 1.357 . S
C1575 C1574 1.357 . S
C1575 C1576 1.406 . S
C1576 H1543 0.929 . S
C1576 C1575 1.406 . S
C1576 C1577 1.391 . S
C1577 H1544 0.931 . S
C1577 C1572 1.370 . S
C1577 C1576 1.391 . S
C1578 N1552 1.435 . S
C1578 C1579 1.358 . S
C1578 C1583 1.371 . S
C1579 H1545 0.930 . S
C1579 C1578 1.358 . S
C1579 C1580 1.405 . S
C1580 H1546 0.932 . S
C1580 C1579 1.405 . S
C1580 C1581 1.383 . S
C1581 C1580 1.383 . S
C1581 C1582 1.393 . S
C1582 H1547 0.931 . S
C1582 C1581 1.393 . S
C1582 C1583 1.382 . S
C1583 H1548 0.929 . S
C1583 C1578 1.371 . S
C1583 C1582 1.382 . S
C1584 N1552 1.423 . S
C1584 C1585 1.362 . S
C1584 C1589 1.388 . S
C1585 H1549 0.929 . S
C1585 C1584 1.362 . S
C1585 C1586 1.376 . S
C1586 H1550 0.931 . S
C1586 C1585 1.376 . S
C1586 C1587 1.396 . S
C1587 C1569 1.472 . S
C1587 C1586 1.396 . S
C1587 C1588 1.348 . S
C1588 H1551 0.929 . S
C1588 C1587 1.348 . S
C1588 C1589 1.443 . S
C1589 H1553 0.932 . S
C1589 C1584 1.388 . S
C1589 C1588 1.443 . S
H1590 C1617 0.929 . S
N1591 C1616 1.433 . S
N1591 C1622 1.435 . S
N1591 C1628 1.423 . S
H1592 C1618 0.930 . S
H1593 C1621 0.931 . S
H1594 C1620 0.929 . S
H1595 C1623 0.930 . S
H1596 C1624 0.932 . S
H1597 C1627 0.929 . S
H1598 C1626 0.931 . S
H1599 C1629 0.929 . S
H1600 C1633 0.932 . S
H1601 C1630 0.931 . S
H1602 C1632 0.929 . S
H1603 C1635 0.929 . S
H1604 C1636 0.930 . S
H1605 C1638 0.929 . S
H1606 C1639 0.931 . S
H1607 C1641 0.930 . S
H1608 C1642 0.932 . S
H1609 C1644 0.931 . S
H1610 C1645 0.929 . S
H1611 C1647 0.929 . S
H1612 C1648 0.931 . S
H1613 C1650 0.929 . S
N1614 C1634 1.433 . S
N1614 C1640 1.435 . S
N1614 C1646 1.423 . S
H1615 C1651 0.932 . S
C1616 N1591 1.433 . S
C1616 C1617 1.363 . S
C1616 C1621 1.370 . S
C1617 H1590 0.929 . S
C1617 C1616 1.363 . S
C1617 C1618 1.385 . S
C1618 H1592 0.930 . S
C1618 C1617 1.385 . S
C1618 C1619 1.357 . S
C1619 C1618 1.357 . S
C1619 C1620 1.406 . S
C1620 H1594 0.929 . S
C1620 C1619 1.406 . S
C1620 C1621 1.391 . S
C1621 H1593 0.931 . S
C1621 C1616 1.370 . S
C1621 C1620 1.391 . S
C1622 N1591 1.435 . S
C1622 C1623 1.358 . S
C1622 C1627 1.371 . S
C1623 H1595 0.930 . S
C1623 C1622 1.358 . S
C1623 C1624 1.405 . S
C1624 H1596 0.932 . S
C1624 C1623 1.405 . S
C1624 C1625 1.383 . S
C1625 C1624 1.383 . S
C1625 C1626 1.393 . S
C1626 H1598 0.931 . S
C1626 C1625 1.393 . S
C1626 C1627 1.382 . S
C1627 H1597 0.929 . S
C1627 C1622 1.371 . S
C1627 C1626 1.382 . S
C1628 N1591 1.423 . S
C1628 C1629 1.362 . S
C1628 C1633 1.388 . S
C1629 H1599 0.929 . S
C1629 C1628 1.362 . S
C1629 C1630 1.376 . S
C1630 H1601 0.931 . S
C1630 C1629 1.376 . S
C1630 C1631 1.396 . S
C1631 C1630 1.396 . S
C1631 C1632 1.348 . S
C1631 C1649 1.472 1_545 S
C1632 H1602 0.929 . S
C1632 C1631 1.348 . S
C1632 C1633 1.443 . S
C1633 H1600 0.932 . S
C1633 C1628 1.388 . S
C1633 C1632 1.443 . S
C1634 N1614 1.433 . S
C1634 C1635 1.363 . S
C1634 C1639 1.370 . S
C1635 H1603 0.929 . S
C1635 C1634 1.363 . S
C1635 C1636 1.385 . S
C1636 H1604 0.930 . S
C1636 C1635 1.385 . S
C1636 C1637 1.357 . S
C1637 C1636 1.357 . S
C1637 C1638 1.406 . S
C1638 H1605 0.929 . S
C1638 C1637 1.406 . S
C1638 C1639 1.391 . S
C1639 H1606 0.931 . S
C1639 C1634 1.370 . S
C1639 C1638 1.391 . S
C1640 N1614 1.435 . S
C1640 C1641 1.358 . S
C1640 C1645 1.371 . S
C1641 H1607 0.930 . S
C1641 C1640 1.358 . S
C1641 C1642 1.405 . S
C1642 H1608 0.932 . S
C1642 C1641 1.405 . S
C1642 C1643 1.383 . S
C1643 C1642 1.383 . S
C1643 C1644 1.393 . S
C1644 H1609 0.931 . S
C1644 C1643 1.393 . S
C1644 C1645 1.382 . S
C1645 H1610 0.929 . S
C1645 C1640 1.371 . S
C1645 C1644 1.382 . S
C1646 N1614 1.423 . S
C1646 C1647 1.362 . S
C1646 C1651 1.388 . S
C1647 H1611 0.929 . S
C1647 C1646 1.362 . S
C1647 C1648 1.376 . S
C1648 H1612 0.931 . S
C1648 C1647 1.376 . S
C1648 C1649 1.396 . S
C1649 C1631 1.472 1_565 S
C1649 C1648 1.396 . S
C1649 C1650 1.348 . S
C1650 H1613 0.929 . S
C1650 C1649 1.348 . S
C1650 C1651 1.443 . S
C1651 H1615 0.932 . S
C1651 C1646 1.388 . S
C1651 C1650 1.443 . S
H1652 C1679 0.929 . S
N1653 C1678 1.433 . S
N1653 C1684 1.435 . S
N1653 C1690 1.423 . S
H1654 C1680 0.930 . S
H1655 C1683 0.931 . S
H1656 C1682 0.929 . S
H1657 C1685 0.930 . S
H1658 C1686 0.932 . S
H1659 C1689 0.929 . S
H1660 C1688 0.931 . S
H1661 C1691 0.929 . S
H1662 C1695 0.932 . S
H1663 C1692 0.931 . S
H1664 C1694 0.929 . S
H1665 C1697 0.929 . S
H1666 C1698 0.930 . S
H1667 C1700 0.929 . S
H1668 C1701 0.931 . S
H1669 C1703 0.930 . S
H1670 C1704 0.932 . S
H1671 C1706 0.931 . S
H1672 C1707 0.929 . S
H1673 C1709 0.929 . S
H1674 C1710 0.930 . S
H1675 C1712 0.896 1_455 S
N1676 C1696 1.433 . S
N1676 C1702 1.435 . S
N1676 C1708 1.423 . S
H1677 C1713 0.932 . S
C1678 N1653 1.433 . S
C1678 C1679 1.363 . S
C1678 C1683 1.370 . S
C1679 H1652 0.929 . S
C1679 C1678 1.363 . S
C1679 C1680 1.385 . S
C1680 H1654 0.930 . S
C1680 C1679 1.385 . S
C1680 C1681 1.357 . S
C1681 C1680 1.357 . S
C1681 C1682 1.406 . S
C1682 H1656 0.929 . S
C1682 C1681 1.406 . S
C1682 C1683 1.391 . S
C1683 H1655 0.931 . S
C1683 C1678 1.370 . S
C1683 C1682 1.391 . S
C1684 N1653 1.435 . S
C1684 C1685 1.358 . S
C1684 C1689 1.371 . S
C1685 H1657 0.930 . S
C1685 C1684 1.358 . S
C1685 C1686 1.405 . S
C1686 H1658 0.932 . S
C1686 C1685 1.405 . S
C1686 C1687 1.383 . S
C1687 C1686 1.383 . S
C1687 C1688 1.393 . S
C1688 H1660 0.931 . S
C1688 C1687 1.393 . S
C1688 C1689 1.382 . S
C1689 H1659 0.929 . S
C1689 C1684 1.371 . S
C1689 C1688 1.382 . S
C1690 N1653 1.423 . S
C1690 C1691 1.362 . S
C1690 C1695 1.388 . S
C1691 H1661 0.929 . S
C1691 C1690 1.362 . S
C1691 C1692 1.376 . S
C1692 H1663 0.931 . S
C1692 C1691 1.376 . S
C1692 C1693 1.396 . S
C1693 C1692 1.396 . S
C1693 C1694 1.348 . S
C1693 C1711 1.472 . S
C1694 H1664 0.929 . S
C1694 C1693 1.348 . S
C1694 C1695 1.443 . S
C1695 H1662 0.932 . S
C1695 C1690 1.388 . S
C1695 C1694 1.443 . S
C1696 N1676 1.433 . S
C1696 C1697 1.363 . S
C1696 C1701 1.370 . S
C1697 H1665 0.929 . S
C1697 C1696 1.363 . S
C1697 C1698 1.385 . S
C1698 H1666 0.930 . S
C1698 C1697 1.385 . S
C1698 C1699 1.357 . S
C1699 C1698 1.357 . S
C1699 C1700 1.406 . S
C1700 H1667 0.929 . S
C1700 C1699 1.406 . S
C1700 C1701 1.391 . S
C1701 H1668 0.931 . S
C1701 C1696 1.370 . S
C1701 C1700 1.391 . S
C1702 N1676 1.435 . S
C1702 C1703 1.358 . S
C1702 C1707 1.371 . S
C1703 H1669 0.930 . S
C1703 C1702 1.358 . S
C1703 C1704 1.405 . S
C1704 H1670 0.932 . S
C1704 C1703 1.405 . S
C1704 C1705 1.383 . S
C1705 C1704 1.383 . S
C1705 C1706 1.393 . S
C1706 H1671 0.931 . S
C1706 C1705 1.393 . S
C1706 C1707 1.382 . S
C1707 H1672 0.929 . S
C1707 C1702 1.371 . S
C1707 C1706 1.382 . S
C1708 N1676 1.423 . S
C1708 C1709 1.362 . S
C1708 C1713 1.388 . S
C1709 H1673 0.929 . S
C1709 C1708 1.362 . S
C1709 C1710 1.376 . S
C1710 H1674 0.930 . S
C1710 C1709 1.376 . S
C1710 C1711 1.396 1_655 S
C1711 C1693 1.472 . S
C1711 C1710 1.396 1_455 S
C1711 C1712 1.348 1_455 S
C1712 H1675 0.896 1_655 S
C1712 C1711 1.348 1_655 S
C1712 C1713 1.443 . S
C1713 H1677 0.932 . S
C1713 C1708 1.388 . S
C1713 C1712 1.443 . S
H1714 C1741 0.929 . S
N1715 C1740 1.433 . S
N1715 C1746 1.435 . S
N1715 C1752 1.423 . S
H1716 C1742 0.930 . S
H1717 C1745 0.931 . S
H1718 C1744 0.929 . S
H1719 C1747 0.930 . S
H1720 C1748 0.932 . S
H1721 C1751 0.929 . S
H1722 C1750 0.931 . S
H1723 C1753 0.929 . S
H1724 C1757 0.932 . S
H1725 C1754 0.931 . S
H1726 C1756 0.929 . S
H1727 C1759 0.929 . S
H1728 C1760 0.930 . S
H1729 C1762 0.929 . S
H1730 C1763 0.931 . S
H1731 C1765 0.930 . S
H1732 C1766 0.932 . S
H1733 C1768 0.931 . S
H1734 C1769 0.929 . S
H1735 C1771 0.929 . S
H1736 C1772 0.931 . S
H1737 C1774 0.929 . S
N1738 C1758 1.433 . S
N1738 C1764 1.435 . S
N1738 C1770 1.423 . S
H1739 C1775 0.932 . S
C1740 N1715 1.433 . S
C1740 C1741 1.363 . S
C1740 C1745 1.370 . S
C1741 H1714 0.929 . S
C1741 C1740 1.363 . S
C1741 C1742 1.385 . S
C1742 H1716 0.930 . S
C1742 C1741 1.385 . S
C1742 C1743 1.357 . S
C1743 C1742 1.357 . S
C1743 C1744 1.406 . S
C1744 H1718 0.929 . S
C1744 C1743 1.406 . S
C1744 C1745 1.391 . S
C1745 H1717 0.931 . S
C1745 C1740 1.370 . S
C1745 C1744 1.391 . S
C1746 N1715 1.435 . S
C1746 C1747 1.358 . S
C1746 C1751 1.371 . S
C1747 H1719 0.930 . S
C1747 C1746 1.358 . S
C1747 C1748 1.405 . S
C1748 H1720 0.932 . S
C1748 C1747 1.405 . S
C1748 C1749 1.383 . S
C1749 C1748 1.383 . S
C1749 C1750 1.393 . S
C1750 H1722 0.931 . S
C1750 C1749 1.393 . S
C1750 C1751 1.382 . S
C1751 H1721 0.929 . S
C1751 C1746 1.371 . S
C1751 C1750 1.382 . S
C1752 N1715 1.423 . S
C1752 C1753 1.362 . S
C1752 C1757 1.388 . S
C1753 H1723 0.929 . S
C1753 C1752 1.362 . S
C1753 C1754 1.376 . S
C1754 H1725 0.931 . S
C1754 C1753 1.376 . S
C1754 C1755 1.396 . S
C1755 C1754 1.396 . S
C1755 C1756 1.348 . S
C1755 C1773 1.472 1_565 S
C1756 H1726 0.929 . S
C1756 C1755 1.348 . S
C1756 C1757 1.443 . S
C1757 H1724 0.932 . S
C1757 C1752 1.388 . S
C1757 C1756 1.443 . S
C1758 N1738 1.433 . S
C1758 C1759 1.363 . S
C1758 C1763 1.370 . S
C1759 H1727 0.929 . S
C1759 C1758 1.363 . S
C1759 C1760 1.385 . S
C1760 H1728 0.930 . S
C1760 C1759 1.385 . S
C1760 C1761 1.357 . S
C1761 C1760 1.357 . S
C1761 C1762 1.406 . S
C1762 H1729 0.929 . S
C1762 C1761 1.406 . S
C1762 C1763 1.391 . S
C1763 H1730 0.931 . S
C1763 C1758 1.370 . S
C1763 C1762 1.391 . S
C1764 N1738 1.435 . S
C1764 C1765 1.358 . S
C1764 C1769 1.371 . S
C1765 H1731 0.930 . S
C1765 C1764 1.358 . S
C1765 C1766 1.405 . S
C1766 H1732 0.932 . S
C1766 C1765 1.405 . S
C1766 C1767 1.383 . S
C1767 C1766 1.383 . S
C1767 C1768 1.393 . S
C1768 H1733 0.931 . S
C1768 C1767 1.393 . S
C1768 C1769 1.382 . S
C1769 H1734 0.929 . S
C1769 C1764 1.371 . S
C1769 C1768 1.382 . S
C1770 N1738 1.423 . S
C1770 C1771 1.362 . S
C1770 C1775 1.388 . S
C1771 H1735 0.929 . S
C1771 C1770 1.362 . S
C1771 C1772 1.376 . S
C1772 H1736 0.931 . S
C1772 C1771 1.376 . S
C1772 C1773 1.396 . S
C1773 C1755 1.472 1_545 S
C1773 C1772 1.396 . S
C1773 C1774 1.348 . S
C1774 H1737 0.929 . S
C1774 C1773 1.348 . S
C1774 C1775 1.443 . S
C1775 H1739 0.932 . S
C1775 C1770 1.388 . S
C1775 C1774 1.443 . S
H1776 C1803 0.929 . S
N1777 C1802 1.433 . S
N1777 C1808 1.435 . S
N1777 C1814 1.423 . S
H1778 C1804 0.930 . S
H1779 C1807 0.931 . S
H1780 C1806 0.929 . S
H1781 C1809 0.930 . S
H1782 C1810 0.932 . S
H1783 C1813 0.929 . S
H1784 C1812 0.931 . S
H1785 C1815 0.929 . S
H1786 C1819 0.932 . S
H1787 C1816 0.931 . S
H1788 C1818 0.929 . S
H1789 C1821 0.929 . S
H1790 C1822 0.930 . S
H1791 C1824 0.929 . S
H1792 C1825 0.931 . S
H1793 C1827 0.930 . S
H1794 C1828 0.932 . S
H1795 C1830 0.931 . S
H1796 C1831 0.929 . S
H1797 C1833 0.929 . S
H1798 C1834 0.919 1_455 S
H1799 C1836 0.929 1_455 S
N1800 C1820 1.433 . S
N1800 C1826 1.435 . S
N1800 C1832 1.423 . S
H1801 C1837 0.932 . S
C1802 N1777 1.433 . S
C1802 C1803 1.363 . S
C1802 C1807 1.370 . S
C1803 H1776 0.929 . S
C1803 C1802 1.363 . S
C1803 C1804 1.385 . S
C1804 H1778 0.930 . S
C1804 C1803 1.385 . S
C1804 C1805 1.357 . S
C1805 C1804 1.357 . S
C1805 C1806 1.406 . S
C1806 H1780 0.929 . S
C1806 C1805 1.406 . S
C1806 C1807 1.391 . S
C1807 H1779 0.931 . S
C1807 C1802 1.370 . S
C1807 C1806 1.391 . S
C1808 N1777 1.435 . S
C1808 C1809 1.358 . S
C1808 C1813 1.371 . S
C1809 H1781 0.930 . S
C1809 C1808 1.358 . S
C1809 C1810 1.405 . S
C1810 H1782 0.932 . S
C1810 C1809 1.405 . S
C1810 C1811 1.383 . S
C1811 C1810 1.383 . S
C1811 C1812 1.393 . S
C1812 H1784 0.931 . S
C1812 C1811 1.393 . S
C1812 C1813 1.382 . S
C1813 H1783 0.929 . S
C1813 C1808 1.371 . S
C1813 C1812 1.382 . S
C1814 N1777 1.423 . S
C1814 C1815 1.362 . S
C1814 C1819 1.388 . S
C1815 H1785 0.929 . S
C1815 C1814 1.362 . S
C1815 C1816 1.376 . S
C1816 H1787 0.931 . S
C1816 C1815 1.376 . S
C1816 C1817 1.396 . S
C1817 C1816 1.396 . S
C1817 C1818 1.348 . S
C1817 C1835 1.472 . S
C1818 H1788 0.929 . S
C1818 C1817 1.348 . S
C1818 C1819 1.443 . S
C1819 H1786 0.932 . S
C1819 C1814 1.388 . S
C1819 C1818 1.443 . S
C1820 N1800 1.433 . S
C1820 C1821 1.363 . S
C1820 C1825 1.370 . S
C1821 H1789 0.929 . S
C1821 C1820 1.363 . S
C1821 C1822 1.385 . S
C1822 H1790 0.930 . S
C1822 C1821 1.385 . S
C1822 C1823 1.357 . S
C1823 C1822 1.357 . S
C1823 C1824 1.406 . S
C1824 H1791 0.929 . S
C1824 C1823 1.406 . S
C1824 C1825 1.391 . S
C1825 H1792 0.931 . S
C1825 C1820 1.370 . S
C1825 C1824 1.391 . S
C1826 N1800 1.435 . S
C1826 C1827 1.358 . S
C1826 C1831 1.371 . S
C1827 H1793 0.930 . S
C1827 C1826 1.358 . S
C1827 C1828 1.405 . S
C1828 H1794 0.932 . S
C1828 C1827 1.405 . S
C1828 C1829 1.383 . S
C1829 C1828 1.383 . S
C1829 C1830 1.393 . S
C1830 H1795 0.931 . S
C1830 C1829 1.393 . S
C1830 C1831 1.382 . S
C1831 H1796 0.929 . S
C1831 C1826 1.371 . S
C1831 C1830 1.382 . S
C1832 N1800 1.423 . S
C1832 C1833 1.362 . S
C1832 C1837 1.388 . S
C1833 H1797 0.929 . S
C1833 C1832 1.362 . S
C1833 C1834 1.376 . S
C1834 H1798 0.919 1_655 S
C1834 C1833 1.376 . S
C1834 C1835 1.396 1_655 S
C1835 C1817 1.472 . S
C1835 C1834 1.396 1_455 S
C1835 C1836 1.348 1_455 S
C1836 H1799 0.929 1_655 S
C1836 C1835 1.348 1_655 S
C1836 C1837 1.443 . S
C1837 H1801 0.932 . S
C1837 C1832 1.388 . S
C1837 C1836 1.443 . S
H1838 C1865 0.929 . S
N1839 C1864 1.433 . S
N1839 C1870 1.435 . S
N1839 C1876 1.423 . S
H1840 C1866 0.930 . S
H1841 C1869 0.931 . S
H1842 C1868 0.929 . S
H1843 C1871 0.930 . S
H1844 C1872 0.932 . S
H1845 C1875 0.929 . S
H1846 C1874 0.931 . S
H1847 C1877 0.929 . S
H1848 C1881 0.932 . S
H1849 C1878 0.931 . S
H1850 C1880 0.929 . S
H1851 C1883 0.929 . S
H1852 C1884 0.930 . S
H1853 C1886 0.929 . S
H1854 C1887 0.931 . S
H1855 C1889 0.930 . S
H1856 C1890 0.932 . S
H1857 C1892 0.931 . S
H1858 C1893 0.929 . S
H1859 C1895 0.929 . S
H1860 C1896 0.931 . S
H1861 C1898 0.929 . S
N1862 C1882 1.433 . S
N1862 C1888 1.435 . S
N1862 C1894 1.423 . S
H1863 C1899 0.932 . S
C1864 N1839 1.433 . S
C1864 C1865 1.363 . S
C1864 C1869 1.370 . S
C1865 H1838 0.929 . S
C1865 C1864 1.363 . S
C1865 C1866 1.385 . S
C1866 H1840 0.930 . S
C1866 C1865 1.385 . S
C1866 C1867 1.357 . S
C1867 C1866 1.357 . S
C1867 C1868 1.406 . S
C1868 H1842 0.929 . S
C1868 C1867 1.406 . S
C1868 C1869 1.391 . S
C1869 H1841 0.931 . S
C1869 C1864 1.370 . S
C1869 C1868 1.391 . S
C1870 N1839 1.435 . S
C1870 C1871 1.358 . S
C1870 C1875 1.371 . S
C1871 H1843 0.930 . S
C1871 C1870 1.358 . S
C1871 C1872 1.405 . S
C1872 H1844 0.932 . S
C1872 C1871 1.405 . S
C1872 C1873 1.383 . S
C1873 C1872 1.383 . S
C1873 C1874 1.393 . S
C1874 H1846 0.931 . S
C1874 C1873 1.393 . S
C1874 C1875 1.382 . S
C1875 H1845 0.929 . S
C1875 C1870 1.371 . S
C1875 C1874 1.382 . S
C1876 N1839 1.423 . S
C1876 C1877 1.362 . S
C1876 C1881 1.388 . S
C1877 H1847 0.929 . S
C1877 C1876 1.362 . S
C1877 C1878 1.376 . S
C1878 H1849 0.931 . S
C1878 C1877 1.376 . S
C1878 C1879 1.396 . S
C1879 C1878 1.396 . S
C1879 C1880 1.348 . S
C1879 C1897 1.472 1_545 S
C1880 H1850 0.929 . S
C1880 C1879 1.348 . S
C1880 C1881 1.443 . S
C1881 H1848 0.932 . S
C1881 C1876 1.388 . S
C1881 C1880 1.443 . S
C1882 N1862 1.433 . S
C1882 C1883 1.363 . S
C1882 C1887 1.370 . S
C1883 H1851 0.929 . S
C1883 C1882 1.363 . S
C1883 C1884 1.385 . S
C1884 H1852 0.930 . S
C1884 C1883 1.385 . S
C1884 C1885 1.357 . S
C1885 C1884 1.357 . S
C1885 C1886 1.406 . S
C1886 H1853 0.929 . S
C1886 C1885 1.406 . S
C1886 C1887 1.391 . S
C1887 H1854 0.931 . S
C1887 C1882 1.370 . S
C1887 C1886 1.391 . S
C1888 N1862 1.435 . S
C1888 C1889 1.358 . S
C1888 C1893 1.371 . S
C1889 H1855 0.930 . S
C1889 C1888 1.358 . S
C1889 C1890 1.405 . S
C1890 H1856 0.932 . S
C1890 C1889 1.405 . S
C1890 C1891 1.383 . S
C1891 C1890 1.383 . S
C1891 C1892 1.393 . S
C1892 H1857 0.931 . S
C1892 C1891 1.393 . S
C1892 C1893 1.382 . S
C1893 H1858 0.929 . S
C1893 C1888 1.371 . S
C1893 C1892 1.382 . S
C1894 N1862 1.423 . S
C1894 C1895 1.362 . S
C1894 C1899 1.388 . S
C1895 H1859 0.929 . S
C1895 C1894 1.362 . S
C1895 C1896 1.376 . S
C1896 H1860 0.931 . S
C1896 C1895 1.376 . S
C1896 C1897 1.396 . S
C1897 C1879 1.472 1_565 S
C1897 C1896 1.396 . S
C1897 C1898 1.348 . S
C1898 H1861 0.929 . S
C1898 C1897 1.348 . S
C1898 C1899 1.443 . S
C1899 H1863 0.932 . S
C1899 C1894 1.388 . S
C1899 C1898 1.443 . S
H1900 C1927 0.929 . S
N1901 C1926 1.433 . S
N1901 C1932 1.435 . S
N1901 C1938 1.423 . S
H1902 C1928 0.930 . S
H1903 C1931 0.931 . S
H1904 C1930 0.929 . S
H1905 C1933 0.930 . S
H1906 C1934 0.932 . S
H1907 C1937 0.929 . S
H1908 C1936 0.931 . S
H1909 C1939 0.929 . S
H1910 C1943 0.932 . S
H1911 C1940 0.980 . S
H1912 C1942 0.932 1_455 S
H1913 C1945 0.929 . S
H1914 C1946 0.930 . S
H1915 C1948 0.929 . S
H1916 C1949 0.931 . S
H1917 C1951 0.930 . S
H1918 C1952 0.932 . S
H1919 C1954 0.931 . S
H1920 C1955 0.929 . S
H1921 C1957 0.929 . S
H1922 C1958 0.931 . S
H1923 C1960 0.929 . S
N1924 C1944 1.433 . S
N1924 C1950 1.435 . S
N1924 C1956 1.423 . S
H1925 C1961 0.932 . S
C1926 N1901 1.433 . S
C1926 C1927 1.363 . S
C1926 C1931 1.370 . S
C1927 H1900 0.929 . S
C1927 C1926 1.363 . S
C1927 C1928 1.385 . S
C1928 H1902 0.930 . S
C1928 C1927 1.385 . S
C1928 C1929 1.357 . S
C1929 C1928 1.357 . S
C1929 C1930 1.406 . S
C1930 H1904 0.929 . S
C1930 C1929 1.406 . S
C1930 C1931 1.391 . S
C1931 H1903 0.931 . S
C1931 C1926 1.370 . S
C1931 C1930 1.391 . S
C1932 N1901 1.435 . S
C1932 C1933 1.358 . S
C1932 C1937 1.371 . S
C1933 H1905 0.930 . S
C1933 C1932 1.358 . S
C1933 C1934 1.405 . S
C1934 H1906 0.932 . S
C1934 C1933 1.405 . S
C1934 C1935 1.383 . S
C1935 C1934 1.383 . S
C1935 C1936 1.393 . S
C1936 H1908 0.931 . S
C1936 C1935 1.393 . S
C1936 C1937 1.382 . S
C1937 H1907 0.929 . S
C1937 C1932 1.371 . S
C1937 C1936 1.382 . S
C1938 N1901 1.423 . S
C1938 C1939 1.362 . S
C1938 C1943 1.388 . S
C1939 H1909 0.929 . S
C1939 C1938 1.362 . S
C1939 C1940 1.376 . S
C1940 H1911 0.980 . S
C1940 C1939 1.376 . S
C1940 C1941 1.396 1_655 S
C1941 C1940 1.396 1_455 S
C1941 C1942 1.348 1_455 S
C1941 C1959 1.472 . S
C1942 H1912 0.932 1_655 S
C1942 C1941 1.348 1_655 S
C1942 C1943 1.443 . S
C1943 H1910 0.932 . S
C1943 C1938 1.388 . S
C1943 C1942 1.443 . S
C1944 N1924 1.433 . S
C1944 C1945 1.363 . S
C1944 C1949 1.370 . S
C1945 H1913 0.929 . S
C1945 C1944 1.363 . S
C1945 C1946 1.385 . S
C1946 H1914 0.930 . S
C1946 C1945 1.385 . S
C1946 C1947 1.357 . S
C1947 C1946 1.357 . S
C1947 C1948 1.406 . S
C1948 H1915 0.929 . S
C1948 C1947 1.406 . S
C1948 C1949 1.391 . S
C1949 H1916 0.931 . S
C1949 C1944 1.370 . S
C1949 C1948 1.391 . S
C1950 N1924 1.435 . S
C1950 C1951 1.358 . S
C1950 C1955 1.371 . S
C1951 H1917 0.930 . S
C1951 C1950 1.358 . S
C1951 C1952 1.405 . S
C1952 H1918 0.932 . S
C1952 C1951 1.405 . S
C1952 C1953 1.383 . S
C1953 C1952 1.383 . S
C1953 C1954 1.393 . S
C1954 H1919 0.931 . S
C1954 C1953 1.393 . S
C1954 C1955 1.382 . S
C1955 H1920 0.929 . S
C1955 C1950 1.371 . S
C1955 C1954 1.382 . S
C1956 N1924 1.423 . S
C1956 C1957 1.362 . S
C1956 C1961 1.388 . S
C1957 H1921 0.929 . S
C1957 C1956 1.362 . S
C1957 C1958 1.376 . S
C1958 H1922 0.931 . S
C1958 C1957 1.376 . S
C1958 C1959 1.396 . S
C1959 C1941 1.472 . S
C1959 C1958 1.396 . S
C1959 C1960 1.348 . S
C1960 H1923 0.929 . S
C1960 C1959 1.348 . S
C1960 C1961 1.443 . S
C1961 H1925 0.932 . S
C1961 C1956 1.388 . S
C1961 C1960 1.443 . S
H1962 C1989 0.929 . S
N1963 C1988 1.433 . S
N1963 C1994 1.435 . S
N1963 C2000 1.423 . S
H1964 C1990 0.930 . S
H1965 C1993 0.931 . S
H1966 C1992 0.929 . S
H1967 C1995 0.930 . S
H1968 C1996 0.932 . S
H1969 C1999 0.929 . S
H1970 C1998 0.931 . S
H1971 C2001 0.929 . S
H1972 C2005 0.932 . S
H1973 C2002 0.931 . S
H1974 C2004 0.929 . S
H1975 C2007 0.929 . S
H1976 C2008 0.930 . S
H1977 C2010 0.929 . S
H1978 C2011 0.931 . S
H1979 C2013 0.930 . S
H1980 C2014 0.932 . S
H1981 C2016 0.931 . S
H1982 C2017 0.929 . S
H1983 C2019 0.929 . S
H1984 C2020 0.931 . S
H1985 C2022 0.929 . S
N1986 C2006 1.433 . S
N1986 C2012 1.435 . S
N1986 C2018 1.423 . S
H1987 C2023 0.932 . S
C1988 N1963 1.433 . S
C1988 C1989 1.363 . S
C1988 C1993 1.370 . S
C1989 H1962 0.929 . S
C1989 C1988 1.363 . S
C1989 C1990 1.385 . S
C1990 H1964 0.930 . S
C1990 C1989 1.385 . S
C1990 C1991 1.357 . S
C1991 C1990 1.357 . S
C1991 C1992 1.406 . S
C1992 H1966 0.929 . S
C1992 C1991 1.406 . S
C1992 C1993 1.391 . S
C1993 H1965 0.931 . S
C1993 C1988 1.370 . S
C1993 C1992 1.391 . S
C1994 N1963 1.435 . S
C1994 C1995 1.358 . S
C1994 C1999 1.371 . S
C1995 H1967 0.930 . S
C1995 C1994 1.358 . S
C1995 C1996 1.405 . S
C1996 H1968 0.932 . S
C1996 C1995 1.405 . S
C1996 C1997 1.383 . S
C1997 C1996 1.383 . S
C1997 C1998 1.393 . S
C1998 H1970 0.931 . S
C1998 C1997 1.393 . S
C1998 C1999 1.382 . S
C1999 H1969 0.929 . S
C1999 C1994 1.371 . S
C1999 C1998 1.382 . S
C2000 N1963 1.423 . S
C2000 C2001 1.362 . S
C2000 C2005 1.388 . S
C2001 H1971 0.929 . S
C2001 C2000 1.362 . S
C2001 C2002 1.376 . S
C2002 H1973 0.931 . S
C2002 C2001 1.376 . S
C2002 C2003 1.421 . S
C2003 C2002 1.421 . S
C2003 C2004 1.372 . S
C2003 C2021 1.427 1_565 S
C2004 H1974 0.929 . S
C2004 C2003 1.372 . S
C2004 C2005 1.443 . S
C2005 H1972 0.932 . S
C2005 C2000 1.388 . S
C2005 C2004 1.443 . S
C2006 N1986 1.433 . S
C2006 C2007 1.363 . S
C2006 C2011 1.370 . S
C2007 H1975 0.929 . S
C2007 C2006 1.363 . S
C2007 C2008 1.385 . S
C2008 H1976 0.930 . S
C2008 C2007 1.385 . S
C2008 C2009 1.357 . S
C2009 C2008 1.357 . S
C2009 C2010 1.406 . S
C2010 H1977 0.929 . S
C2010 C2009 1.406 . S
C2010 C2011 1.391 . S
C2011 H1978 0.931 . S
C2011 C2006 1.370 . S
C2011 C2010 1.391 . S
C2012 N1986 1.435 . S
C2012 C2013 1.358 . S
C2012 C2017 1.371 . S
C2013 H1979 0.930 . S
C2013 C2012 1.358 . S
C2013 C2014 1.405 . S
C2014 H1980 0.932 . S
C2014 C2013 1.405 . S
C2014 C2015 1.383 . S
C2015 C2014 1.383 . S
C2015 C2016 1.393 . S
C2016 H1981 0.931 . S
C2016 C2015 1.393 . S
C2016 C2017 1.382 . S
C2017 H1982 0.929 . S
C2017 C2012 1.371 . S
C2017 C2016 1.382 . S
C2018 N1986 1.423 . S
C2018 C2019 1.362 . S
C2018 C2023 1.388 . S
C2019 H1983 0.929 . S
C2019 C2018 1.362 . S
C2019 C2020 1.376 . S
C2020 H1984 0.931 . S
C2020 C2019 1.376 . S
C2020 C2021 1.396 . S
C2021 C2003 1.427 1_545 S
C2021 C2020 1.396 . S
C2021 C2022 1.348 . S
C2022 H1985 0.929 . S
C2022 C2021 1.348 . S
C2022 C2023 1.443 . S
C2023 H1987 0.932 . S
C2023 C2018 1.388 . S
C2023 C2022 1.443 . S
H2024 C2051 0.929 . S
N2025 C2050 1.433 . S
N2025 C2056 1.435 . S
N2025 C2062 1.423 . S
H2026 C2052 0.930 . S
H2027 C2055 0.931 . S
H2028 C2054 0.929 . S
H2029 C2057 0.930 . S
H2030 C2058 0.932 . S
H2031 C2061 0.929 . S
H2032 C2060 0.931 . S
H2033 C2063 0.929 . S
H2034 C2067 0.932 . S
H2035 C2064 0.931 . S
H2036 C2066 0.929 . S
H2037 C2069 0.929 . S
H2038 C2070 0.930 . S
H2039 C2072 0.929 . S
H2040 C2073 0.931 . S
H2041 C2075 0.930 . S
H2042 C2076 0.932 . S
H2043 C2078 0.931 . S
H2044 C2079 0.929 . S
H2045 C2081 0.929 . S
H2046 C2082 0.931 . S
H2047 C2084 0.929 . S
N2048 C2068 1.433 . S
N2048 C2074 1.435 . S
N2048 C2080 1.423 . S
H2049 C2085 0.932 . S
C2050 N2025 1.433 . S
C2050 C2051 1.363 . S
C2050 C2055 1.370 . S
C2051 H2024 0.929 . S
C2051 C2050 1.363 . S
C2051 C2052 1.385 . S
C2052 H2026 0.930 . S
C2052 C2051 1.385 . S
C2052 C2053 1.357 . S
C2053 C2052 1.357 . S
C2053 C2054 1.406 . S
C2054 H2028 0.929 . S
C2054 C2053 1.406 . S
C2054 C2055 1.391 . S
C2055 H2027 0.931 . S
C2055 C2050 1.370 . S
C2055 C2054 1.391 . S
C2056 N2025 1.435 . S
C2056 C2057 1.358 . S
C2056 C2061 1.371 . S
C2057 H2029 0.930 . S
C2057 C2056 1.358 . S
C2057 C2058 1.405 . S
C2058 H2030 0.932 . S
C2058 C2057 1.405 . S
C2058 C2059 1.383 . S
C2059 C2058 1.383 . S
C2059 C2060 1.393 . S
C2060 H2032 0.931 . S
C2060 C2059 1.393 . S
C2060 C2061 1.382 . S
C2061 H2031 0.929 . S
C2061 C2056 1.371 . S
C2061 C2060 1.382 . S
C2062 N2025 1.423 . S
C2062 C2063 1.362 . S
C2062 C2067 1.388 . S
C2063 H2033 0.929 . S
C2063 C2062 1.362 . S
C2063 C2064 1.376 . S
C2064 H2035 0.931 . S
C2064 C2063 1.376 . S
C2064 C2065 1.396 . S
C2065 C2064 1.396 . S
C2065 C2066 1.348 . S
C2065 C2083 1.472 . S
C2066 H2036 0.929 . S
C2066 C2065 1.348 . S
C2066 C2067 1.443 . S
C2067 H2034 0.932 . S
C2067 C2062 1.388 . S
C2067 C2066 1.443 . S
C2068 N2048 1.433 . S
C2068 C2069 1.363 . S
C2068 C2073 1.370 . S
C2069 H2037 0.929 . S
C2069 C2068 1.363 . S
C2069 C2070 1.385 . S
C2070 H2038 0.930 . S
C2070 C2069 1.385 . S
C2070 C2071 1.357 . S
C2071 C2070 1.357 . S
C2071 C2072 1.406 . S
C2072 H2039 0.929 . S
C2072 C2071 1.406 . S
C2072 C2073 1.391 . S
C2073 H2040 0.931 . S
C2073 C2068 1.370 . S
C2073 C2072 1.391 . S
C2074 N2048 1.435 . S
C2074 C2075 1.358 . S
C2074 C2079 1.371 . S
C2075 H2041 0.930 . S
C2075 C2074 1.358 . S
C2075 C2076 1.405 . S
C2076 H2042 0.932 . S
C2076 C2075 1.405 . S
C2076 C2077 1.383 . S
C2077 C2076 1.383 . S
C2077 C2078 1.393 . S
C2078 H2043 0.931 . S
C2078 C2077 1.393 . S
C2078 C2079 1.382 . S
C2079 H2044 0.929 . S
C2079 C2074 1.371 . S
C2079 C2078 1.382 . S
C2080 N2048 1.423 . S
C2080 C2081 1.362 . S
C2080 C2085 1.388 . S
C2081 H2045 0.929 . S
C2081 C2080 1.362 . S
C2081 C2082 1.376 . S
C2082 H2046 0.931 . S
C2082 C2081 1.376 . S
C2082 C2083 1.396 . S
C2083 C2065 1.472 . S
C2083 C2082 1.396 . S
C2083 C2084 1.348 . S
C2084 H2047 0.929 . S
C2084 C2083 1.348 . S
C2084 C2085 1.443 . S
C2085 H2049 0.932 . S
C2085 C2080 1.388 . S
C2085 C2084 1.443 . S
H2086 C2113 0.929 . S
N2087 C2112 1.433 . S
N2087 C2118 1.435 . S
N2087 C2124 1.423 . S
H2088 C2114 0.930 . S
H2089 C2117 0.931 . S
H2090 C2116 0.929 . S
H2091 C2119 0.930 . S
H2092 C2120 0.932 . S
H2093 C2123 0.929 . S
H2094 C2122 0.931 . S
H2095 C2125 0.929 . S
H2096 C2129 0.932 . S
H2097 C2126 0.931 . S
H2098 C2128 0.929 . S
H2099 C2131 0.929 . S
H2100 C2132 0.930 . S
H2101 C2134 0.929 . S
H2102 C2135 0.931 . S
H2103 C2137 0.930 . S
H2104 C2138 0.932 . S
H2105 C2140 0.931 . S
H2106 C2141 0.929 . S
H2107 C2143 0.929 . S
H2108 C2144 0.931 . S
H2109 C2146 0.929 . S
N2110 C2130 1.433 . S
N2110 C2136 1.435 . S
N2110 C2142 1.423 . S
H2111 C2147 0.932 . S
C2112 N2087 1.433 . S
C2112 C2113 1.363 . S
C2112 C2117 1.370 . S
C2113 H2086 0.929 . S
C2113 C2112 1.363 . S
C2113 C2114 1.385 . S
C2114 H2088 0.930 . S
C2114 C2113 1.385 . S
C2114 C2115 1.357 . S
C2115 C2114 1.357 . S
C2115 C2116 1.406 . S
C2116 H2090 0.929 . S
C2116 C2115 1.406 . S
C2116 C2117 1.391 . S
C2117 H2089 0.931 . S
C2117 C2112 1.370 . S
C2117 C2116 1.391 . S
C2118 N2087 1.435 . S
C2118 C2119 1.358 . S
C2118 C2123 1.371 . S
C2119 H2091 0.930 . S
C2119 C2118 1.358 . S
C2119 C2120 1.405 . S
C2120 H2092 0.932 . S
C2120 C2119 1.405 . S
C2120 C2121 1.383 . S
C2121 C2120 1.383 . S
C2121 C2122 1.393 . S
C2122 H2094 0.931 . S
C2122 C2121 1.393 . S
C2122 C2123 1.382 . S
C2123 H2093 0.929 . S
C2123 C2118 1.371 . S
C2123 C2122 1.382 . S
C2124 N2087 1.423 . S
C2124 C2125 1.362 . S
C2124 C2129 1.388 . S
C2125 H2095 0.929 . S
C2125 C2124 1.362 . S
C2125 C2126 1.376 . S
C2126 H2097 0.931 . S
C2126 C2125 1.376 . S
C2126 C2127 1.396 . S
C2127 C2126 1.396 . S
C2127 C2128 1.348 . S
C2127 C2145 1.472 . S
C2128 H2098 0.929 . S
C2128 C2127 1.348 . S
C2128 C2129 1.443 . S
C2129 H2096 0.932 . S
C2129 C2124 1.388 . S
C2129 C2128 1.443 . S
C2130 N2110 1.433 . S
C2130 C2131 1.363 . S
C2130 C2135 1.370 . S
C2131 H2099 0.929 . S
C2131 C2130 1.363 . S
C2131 C2132 1.385 . S
C2132 H2100 0.930 . S
C2132 C2131 1.385 . S
C2132 C2133 1.357 . S
C2133 C2132 1.357 . S
C2133 C2134 1.406 . S
C2134 H2101 0.929 . S
C2134 C2133 1.406 . S
C2134 C2135 1.391 . S
C2135 H2102 0.931 . S
C2135 C2130 1.370 . S
C2135 C2134 1.391 . S
C2136 N2110 1.435 . S
C2136 C2137 1.358 . S
C2136 C2141 1.371 . S
C2137 H2103 0.930 . S
C2137 C2136 1.358 . S
C2137 C2138 1.405 . S
C2138 H2104 0.932 . S
C2138 C2137 1.405 . S
C2138 C2139 1.383 . S
C2139 C2138 1.383 . S
C2139 C2140 1.393 . S
C2140 H2105 0.931 . S
C2140 C2139 1.393 . S
C2140 C2141 1.382 . S
C2141 H2106 0.929 . S
C2141 C2136 1.371 . S
C2141 C2140 1.382 . S
C2142 N2110 1.423 . S
C2142 C2143 1.362 . S
C2142 C2147 1.388 . S
C2143 H2107 0.929 . S
C2143 C2142 1.362 . S
C2143 C2144 1.376 . S
C2144 H2108 0.931 . S
C2144 C2143 1.376 . S
C2144 C2145 1.396 . S
C2145 C2127 1.472 . S
C2145 C2144 1.396 . S
C2145 C2146 1.348 . S
C2146 H2109 0.929 . S
C2146 C2145 1.348 . S
C2146 C2147 1.443 . S
C2147 H2111 0.932 . S
C2147 C2142 1.388 . S
C2147 C2146 1.443 . S
H2148 C2175 0.929 . S
N2149 C2174 1.433 . S
N2149 C2180 1.435 . S
N2149 C2186 1.423 . S
H2150 C2176 0.930 . S
H2151 C2179 0.931 . S
H2152 C2178 0.929 . S
H2153 C2181 0.930 . S
H2154 C2182 0.932 . S
H2155 C2185 0.929 . S
H2156 C2184 0.931 . S
H2157 C2187 0.929 . S
H2158 C2191 0.932 . S
H2159 C2188 0.931 . S
H2160 C2190 0.929 . S
H2161 C2193 0.929 . S
H2162 C2194 0.930 . S
H2163 C2196 0.929 . S
H2164 C2197 0.931 . S
H2165 C2199 0.930 . S
H2166 C2200 0.932 . S
H2167 C2202 0.931 . S
H2168 C2203 0.929 . S
H2169 C2205 0.929 . S
H2170 C2206 0.931 . S
H2171 C2208 0.929 . S
N2172 C2192 1.433 . S
N2172 C2198 1.435 . S
N2172 C2204 1.423 . S
H2173 C2209 0.932 . S
C2174 N2149 1.433 . S
C2174 C2175 1.363 . S
C2174 C2179 1.370 . S
C2175 H2148 0.929 . S
C2175 C2174 1.363 . S
C2175 C2176 1.385 . S
C2176 H2150 0.930 . S
C2176 C2175 1.385 . S
C2176 C2177 1.357 . S
C2177 C2176 1.357 . S
C2177 C2178 1.406 . S
C2178 H2152 0.929 . S
C2178 C2177 1.406 . S
C2178 C2179 1.391 . S
C2179 H2151 0.931 . S
C2179 C2174 1.370 . S
C2179 C2178 1.391 . S
C2180 N2149 1.435 . S
C2180 C2181 1.358 . S
C2180 C2185 1.371 . S
C2181 H2153 0.930 . S
C2181 C2180 1.358 . S
C2181 C2182 1.405 . S
C2182 H2154 0.932 . S
C2182 C2181 1.405 . S
C2182 C2183 1.383 . S
C2183 C2182 1.383 . S
C2183 C2184 1.393 . S
C2184 H2156 0.931 . S
C2184 C2183 1.393 . S
C2184 C2185 1.382 . S
C2185 H2155 0.929 . S
C2185 C2180 1.371 . S
C2185 C2184 1.382 . S
C2186 N2149 1.423 . S
C2186 C2187 1.362 . S
C2186 C2191 1.388 . S
C2187 H2157 0.929 . S
C2187 C2186 1.362 . S
C2187 C2188 1.376 . S
C2188 H2159 0.931 . S
C2188 C2187 1.376 . S
C2188 C2189 1.396 . S
C2189 C2188 1.396 . S
C2189 C2190 1.348 . S
C2189 C2207 1.472 . S
C2190 H2160 0.929 . S
C2190 C2189 1.348 . S
C2190 C2191 1.443 . S
C2191 H2158 0.932 . S
C2191 C2186 1.388 . S
C2191 C2190 1.443 . S
C2192 N2172 1.433 . S
C2192 C2193 1.363 . S
C2192 C2197 1.370 . S
C2193 H2161 0.929 . S
C2193 C2192 1.363 . S
C2193 C2194 1.385 . S
C2194 H2162 0.930 . S
C2194 C2193 1.385 . S
C2194 C2195 1.357 . S
C2195 C2194 1.357 . S
C2195 C2196 1.406 . S
C2196 H2163 0.929 . S
C2196 C2195 1.406 . S
C2196 C2197 1.391 . S
C2197 H2164 0.931 . S
C2197 C2192 1.370 . S
C2197 C2196 1.391 . S
C2198 N2172 1.435 . S
C2198 C2199 1.358 . S
C2198 C2203 1.371 . S
C2199 H2165 0.930 . S
C2199 C2198 1.358 . S
C2199 C2200 1.405 . S
C2200 H2166 0.932 . S
C2200 C2199 1.405 . S
C2200 C2201 1.383 . S
C2201 C2200 1.383 . S
C2201 C2202 1.393 . S
C2202 H2167 0.931 . S
C2202 C2201 1.393 . S
C2202 C2203 1.382 . S
C2203 H2168 0.929 . S
C2203 C2198 1.371 . S
C2203 C2202 1.382 . S
C2204 N2172 1.423 . S
C2204 C2205 1.362 . S
C2204 C2209 1.388 . S
C2205 H2169 0.929 . S
C2205 C2204 1.362 . S
C2205 C2206 1.376 . S
C2206 H2170 0.931 . S
C2206 C2205 1.376 . S
C2206 C2207 1.396 . S
C2207 C2189 1.472 . S
C2207 C2206 1.396 . S
C2207 C2208 1.348 . S
C2208 H2171 0.929 . S
C2208 C2207 1.348 . S
C2208 C2209 1.443 . S
C2209 H2173 0.932 . S
C2209 C2204 1.388 . S
C2209 C2208 1.443 . S
H2210 C2237 0.929 . S
N2211 C2236 1.433 . S
N2211 C2242 1.435 . S
N2211 C2248 1.423 . S
H2212 C2238 0.930 . S
H2213 C2241 0.931 . S
H2214 C2240 0.929 . S
H2215 C2243 0.930 . S
H2216 C2244 0.932 . S
H2217 C2247 0.929 . S
H2218 C2246 0.931 . S
H2219 C2249 0.929 . S
H2220 C2253 0.932 . S
H2221 C2250 0.931 . S
H2222 C2252 0.929 . S
H2223 C2255 0.929 . S
H2224 C2256 0.930 . S
H2225 C2258 0.929 . S
H2226 C2259 0.931 . S
H2227 C2261 0.930 . S
H2228 C2262 0.932 . S
H2229 C2264 0.931 . S
H2230 C2265 0.929 . S
H2231 C2267 0.929 . S
H2232 C2268 0.931 . S
H2233 C2270 0.929 . S
N2234 C2254 1.433 . S
N2234 C2260 1.435 . S
N2234 C2266 1.423 . S
H2235 C2271 0.932 . S
C2236 N2211 1.433 . S
C2236 C2237 1.363 . S
C2236 C2241 1.370 . S
C2237 H2210 0.929 . S
C2237 C2236 1.363 . S
C2237 C2238 1.385 . S
C2238 H2212 0.930 . S
C2238 C2237 1.385 . S
C2238 C2239 1.357 . S
C2239 C2238 1.357 . S
C2239 C2240 1.406 . S
C2240 H2214 0.929 . S
C2240 C2239 1.406 . S
C2240 C2241 1.391 . S
C2241 H2213 0.931 . S
C2241 C2236 1.370 . S
C2241 C2240 1.391 . S
C2242 N2211 1.435 . S
C2242 C2243 1.358 . S
C2242 C2247 1.371 . S
C2243 H2215 0.930 . S
C2243 C2242 1.358 . S
C2243 C2244 1.405 . S
C2244 H2216 0.932 . S
C2244 C2243 1.405 . S
C2244 C2245 1.383 . S
C2245 C2244 1.383 . S
C2245 C2246 1.393 . S
C2246 H2218 0.931 . S
C2246 C2245 1.393 . S
C2246 C2247 1.382 . S
C2247 H2217 0.929 . S
C2247 C2242 1.371 . S
C2247 C2246 1.382 . S
C2248 N2211 1.423 . S
C2248 C2249 1.362 . S
C2248 C2253 1.388 . S
C2249 H2219 0.929 . S
C2249 C2248 1.362 . S
C2249 C2250 1.376 . S
C2250 H2221 0.931 . S
C2250 C2249 1.376 . S
C2250 C2251 1.396 . S
C2251 C2250 1.396 . S
C2251 C2252 1.348 . S
C2251 C2269 1.472 . S
C2252 H2222 0.929 . S
C2252 C2251 1.348 . S
C2252 C2253 1.443 . S
C2253 H2220 0.932 . S
C2253 C2248 1.388 . S
C2253 C2252 1.443 . S
C2254 N2234 1.433 . S
C2254 C2255 1.363 . S
C2254 C2259 1.370 . S
C2255 H2223 0.929 . S
C2255 C2254 1.363 . S
C2255 C2256 1.385 . S
C2256 H2224 0.930 . S
C2256 C2255 1.385 . S
C2256 C2257 1.357 . S
C2257 C2256 1.357 . S
C2257 C2258 1.406 . S
C2258 H2225 0.929 . S
C2258 C2257 1.406 . S
C2258 C2259 1.391 . S
C2259 H2226 0.931 . S
C2259 C2254 1.370 . S
C2259 C2258 1.391 . S
C2260 N2234 1.435 . S
C2260 C2261 1.358 . S
C2260 C2265 1.371 . S
C2261 H2227 0.930 . S
C2261 C2260 1.358 . S
C2261 C2262 1.405 . S
C2262 H2228 0.932 . S
C2262 C2261 1.405 . S
C2262 C2263 1.383 . S
C2263 C2262 1.383 . S
C2263 C2264 1.393 . S
C2264 H2229 0.931 . S
C2264 C2263 1.393 . S
C2264 C2265 1.382 . S
C2265 H2230 0.929 . S
C2265 C2260 1.371 . S
C2265 C2264 1.382 . S
C2266 N2234 1.423 . S
C2266 C2267 1.362 . S
C2266 C2271 1.388 . S
C2267 H2231 0.929 . S
C2267 C2266 1.362 . S
C2267 C2268 1.376 . S
C2268 H2232 0.931 . S
C2268 C2267 1.376 . S
C2268 C2269 1.396 . S
C2269 C2251 1.472 . S
C2269 C2268 1.396 . S
C2269 C2270 1.348 . S
C2270 H2233 0.929 . S
C2270 C2269 1.348 . S
C2270 C2271 1.443 . S
C2271 H2235 0.932 . S
C2271 C2266 1.388 . S
C2271 C2270 1.443 . S
H2272 C2299 0.929 . S
N2273 C2298 1.433 . S
N2273 C2304 1.435 . S
N2273 C2310 1.423 . S
H2274 C2300 0.930 . S
H2275 C2303 0.931 . S
H2276 C2302 0.929 . S
H2277 C2305 0.930 . S
H2278 C2306 0.932 . S
H2279 C2309 0.929 . S
H2280 C2308 0.931 . S
H2281 C2311 0.929 . S
H2282 C2315 0.932 . S
H2283 C2312 0.931 . S
H2284 C2314 0.929 . S
H2285 C2317 0.929 . S
H2286 C2318 0.930 . S
H2287 C2320 0.929 . S
H2288 C2321 0.931 . S
H2289 C2323 0.930 . S
H2290 C2324 0.932 . S
H2291 C2326 0.931 . S
H2292 C2327 0.929 . S
H2293 C2329 0.929 . S
H2294 C2330 0.931 . S
H2295 C2332 0.929 . S
N2296 C2316 1.433 . S
N2296 C2322 1.435 . S
N2296 C2328 1.423 . S
H2297 C2333 0.932 . S
C2298 N2273 1.433 . S
C2298 C2299 1.363 . S
C2298 C2303 1.370 . S
C2299 H2272 0.929 . S
C2299 C2298 1.363 . S
C2299 C2300 1.385 . S
C2300 H2274 0.930 . S
C2300 C2299 1.385 . S
C2300 C2301 1.357 . S
C2301 C2300 1.357 . S
C2301 C2302 1.406 . S
C2302 H2276 0.929 . S
C2302 C2301 1.406 . S
C2302 C2303 1.391 . S
C2303 H2275 0.931 . S
C2303 C2298 1.370 . S
C2303 C2302 1.391 . S
C2304 N2273 1.435 . S
C2304 C2305 1.358 . S
C2304 C2309 1.371 . S
C2305 H2277 0.930 . S
C2305 C2304 1.358 . S
C2305 C2306 1.405 . S
C2306 H2278 0.932 . S
C2306 C2305 1.405 . S
C2306 C2307 1.383 . S
C2307 C2306 1.383 . S
C2307 C2308 1.393 . S
C2308 H2280 0.931 . S
C2308 C2307 1.393 . S
C2308 C2309 1.382 . S
C2309 H2279 0.929 . S
C2309 C2304 1.371 . S
C2309 C2308 1.382 . S
C2310 N2273 1.423 . S
C2310 C2311 1.362 . S
C2310 C2315 1.388 . S
C2311 H2281 0.929 . S
C2311 C2310 1.362 . S
C2311 C2312 1.376 . S
C2312 H2283 0.931 . S
C2312 C2311 1.376 . S
C2312 C2313 1.396 . S
C2313 C2312 1.396 . S
C2313 C2314 1.348 . S
C2313 C2331 1.472 . S
C2314 H2284 0.929 . S
C2314 C2313 1.348 . S
C2314 C2315 1.443 . S
C2315 H2282 0.932 . S
C2315 C2310 1.388 . S
C2315 C2314 1.443 . S
C2316 N2296 1.433 . S
C2316 C2317 1.363 . S
C2316 C2321 1.370 . S
C2317 H2285 0.929 . S
C2317 C2316 1.363 . S
C2317 C2318 1.385 . S
C2318 H2286 0.930 . S
C2318 C2317 1.385 . S
C2318 C2319 1.357 . S
C2319 C2318 1.357 . S
C2319 C2320 1.406 . S
C2320 H2287 0.929 . S
C2320 C2319 1.406 . S
C2320 C2321 1.391 . S
C2321 H2288 0.931 . S
C2321 C2316 1.370 . S
C2321 C2320 1.391 . S
C2322 N2296 1.435 . S
C2322 C2323 1.358 . S
C2322 C2327 1.371 . S
C2323 H2289 0.930 . S
C2323 C2322 1.358 . S
C2323 C2324 1.405 . S
C2324 H2290 0.932 . S
C2324 C2323 1.405 . S
C2324 C2325 1.383 . S
C2325 C2324 1.383 . S
C2325 C2326 1.393 . S
C2326 H2291 0.931 . S
C2326 C2325 1.393 . S
C2326 C2327 1.382 . S
C2327 H2292 0.929 . S
C2327 C2322 1.371 . S
C2327 C2326 1.382 . S
C2328 N2296 1.423 . S
C2328 C2329 1.362 . S
C2328 C2333 1.388 . S
C2329 H2293 0.929 . S
C2329 C2328 1.362 . S
C2329 C2330 1.376 . S
C2330 H2294 0.931 . S
C2330 C2329 1.376 . S
C2330 C2331 1.396 . S
C2331 C2313 1.472 . S
C2331 C2330 1.396 . S
C2331 C2332 1.348 . S
C2332 H2295 0.929 . S
C2332 C2331 1.348 . S
C2332 C2333 1.443 . S
C2333 H2297 0.932 . S
C2333 C2328 1.388 . S
C2333 C2332 1.443 . S
H2334 C2361 0.929 . S
N2335 C2360 1.433 . S
N2335 C2366 1.435 . S
N2335 C2372 1.423 . S
H2336 C2362 0.930 . S
H2337 C2365 0.931 . S
H2338 C2364 0.929 . S
H2339 C2367 0.930 . S
H2340 C2368 0.932 . S
H2341 C2371 0.929 . S
H2342 C2370 0.931 . S
H2343 C2373 0.929 . S
H2344 C2377 0.932 . S
H2345 C2374 0.931 . S
H2346 C2376 0.929 . S
H2347 C2379 0.929 . S
H2348 C2380 0.930 . S
H2349 C2382 0.929 . S
H2350 C2383 0.931 . S
H2351 C2385 0.930 . S
H2352 C2386 0.932 . S
H2353 C2388 0.931 . S
H2354 C2389 0.929 . S
H2355 C2391 0.929 . S
H2356 C2392 0.931 . S
H2357 C2394 0.929 . S
N2358 C2378 1.433 . S
N2358 C2384 1.435 . S
N2358 C2390 1.423 . S
H2359 C2395 0.932 . S
C2360 N2335 1.433 . S
C2360 C2361 1.363 . S
C2360 C2365 1.370 . S
C2361 H2334 0.929 . S
C2361 C2360 1.363 . S
C2361 C2362 1.385 . S
C2362 H2336 0.930 . S
C2362 C2361 1.385 . S
C2362 C2363 1.357 . S
C2363 C2362 1.357 . S
C2363 C2364 1.406 . S
C2364 H2338 0.929 . S
C2364 C2363 1.406 . S
C2364 C2365 1.391 . S
C2365 H2337 0.931 . S
C2365 C2360 1.370 . S
C2365 C2364 1.391 . S
C2366 N2335 1.435 . S
C2366 C2367 1.358 . S
C2366 C2371 1.371 . S
C2367 H2339 0.930 . S
C2367 C2366 1.358 . S
C2367 C2368 1.405 . S
C2368 H2340 0.932 . S
C2368 C2367 1.405 . S
C2368 C2369 1.383 . S
C2369 C2368 1.383 . S
C2369 C2370 1.393 . S
C2370 H2342 0.931 . S
C2370 C2369 1.393 . S
C2370 C2371 1.382 . S
C2371 H2341 0.929 . S
C2371 C2366 1.371 . S
C2371 C2370 1.382 . S
C2372 N2335 1.423 . S
C2372 C2373 1.362 . S
C2372 C2377 1.388 . S
C2373 H2343 0.929 . S
C2373 C2372 1.362 . S
C2373 C2374 1.376 . S
C2374 H2345 0.931 . S
C2374 C2373 1.376 . S
C2374 C2375 1.396 . S
C2375 C2374 1.396 . S
C2375 C2376 1.348 . S
C2375 C2393 1.472 . S
C2376 H2346 0.929 . S
C2376 C2375 1.348 . S
C2376 C2377 1.443 . S
C2377 H2344 0.932 . S
C2377 C2372 1.388 . S
C2377 C2376 1.443 . S
C2378 N2358 1.433 . S
C2378 C2379 1.363 . S
C2378 C2383 1.370 . S
C2379 H2347 0.929 . S
C2379 C2378 1.363 . S
C2379 C2380 1.385 . S
C2380 H2348 0.930 . S
C2380 C2379 1.385 . S
C2380 C2381 1.357 . S
C2381 C2380 1.357 . S
C2381 C2382 1.406 . S
C2382 H2349 0.929 . S
C2382 C2381 1.406 . S
C2382 C2383 1.391 . S
C2383 H2350 0.931 . S
C2383 C2378 1.370 . S
C2383 C2382 1.391 . S
C2384 N2358 1.435 . S
C2384 C2385 1.358 . S
C2384 C2389 1.371 . S
C2385 H2351 0.930 . S
C2385 C2384 1.358 . S
C2385 C2386 1.405 . S
C2386 H2352 0.932 . S
C2386 C2385 1.405 . S
C2386 C2387 1.383 . S
C2387 C2386 1.383 . S
C2387 C2388 1.393 . S
C2388 H2353 0.931 . S
C2388 C2387 1.393 . S
C2388 C2389 1.382 . S
C2389 H2354 0.929 . S
C2389 C2384 1.371 . S
C2389 C2388 1.382 . S
C2390 N2358 1.423 . S
C2390 C2391 1.362 . S
C2390 C2395 1.388 . S
C2391 H2355 0.929 . S
C2391 C2390 1.362 . S
C2391 C2392 1.376 . S
C2392 H2356 0.931 . S
C2392 C2391 1.376 . S
C2392 C2393 1.396 . S
C2393 C2375 1.472 . S
C2393 C2392 1.396 . S
C2393 C2394 1.348 . S
C2394 H2357 0.929 . S
C2394 C2393 1.348 . S
C2394 C2395 1.443 . S
C2395 H2359 0.932 . S
C2395 C2390 1.388 . S
C2395 C2394 1.443 . S
H2396 C2423 0.929 . S
N2397 C2422 1.433 . S
N2397 C2428 1.435 . S
N2397 C2434 1.423 . S
H2398 C2424 0.930 . S
H2399 C2427 0.931 . S
H2400 C2426 0.929 . S
H2401 C2429 0.930 . S
H2402 C2430 0.932 . S
H2403 C2433 0.929 . S
H2404 C2432 0.931 . S
H2405 C2435 0.929 . S
H2406 C2439 0.932 . S
H2407 C2436 0.931 . S
H2408 C2438 0.929 . S
H2409 C2441 0.929 . S
H2410 C2442 0.930 . S
H2411 C2444 0.929 . S
H2412 C2445 0.931 . S
H2413 C2447 0.930 . S
H2414 C2448 0.932 . S
H2415 C2450 0.931 . S
H2416 C2451 0.929 . S
H2417 C2453 0.929 . S
H2418 C2454 0.931 . S
H2419 C2456 0.929 . S
N2420 C2440 1.433 . S
N2420 C2446 1.435 . S
N2420 C2452 1.423 . S
H2421 C2457 0.932 . S
C2422 N2397 1.433 . S
C2422 C2423 1.363 . S
C2422 C2427 1.370 . S
C2423 H2396 0.929 . S
C2423 C2422 1.363 . S
C2423 C2424 1.385 . S
C2424 H2398 0.930 . S
C2424 C2423 1.385 . S
C2424 C2425 1.357 . S
C2425 C2424 1.357 . S
C2425 C2426 1.406 . S
C2426 H2400 0.929 . S
C2426 C2425 1.406 . S
C2426 C2427 1.391 . S
C2427 H2399 0.931 . S
C2427 C2422 1.370 . S
C2427 C2426 1.391 . S
C2428 N2397 1.435 . S
C2428 C2429 1.358 . S
C2428 C2433 1.371 . S
C2429 H2401 0.930 . S
C2429 C2428 1.358 . S
C2429 C2430 1.405 . S
C2430 H2402 0.932 . S
C2430 C2429 1.405 . S
C2430 C2431 1.383 . S
C2431 C2430 1.383 . S
C2431 C2432 1.393 . S
C2432 H2404 0.931 . S
C2432 C2431 1.393 . S
C2432 C2433 1.382 . S
C2433 H2403 0.929 . S
C2433 C2428 1.371 . S
C2433 C2432 1.382 . S
C2434 N2397 1.423 . S
C2434 C2435 1.362 . S
C2434 C2439 1.388 . S
C2435 H2405 0.929 . S
C2435 C2434 1.362 . S
C2435 C2436 1.376 . S
C2436 H2407 0.931 . S
C2436 C2435 1.376 . S
C2436 C2437 1.396 . S
C2437 C2436 1.396 . S
C2437 C2438 1.348 . S
C2437 C2455 1.472 . S
C2438 H2408 0.929 . S
C2438 C2437 1.348 . S
C2438 C2439 1.443 . S
C2439 H2406 0.932 . S
C2439 C2434 1.388 . S
C2439 C2438 1.443 . S
C2440 N2420 1.433 . S
C2440 C2441 1.363 . S
C2440 C2445 1.370 . S
C2441 H2409 0.929 . S
C2441 C2440 1.363 . S
C2441 C2442 1.385 . S
C2442 H2410 0.930 . S
C2442 C2441 1.385 . S
C2442 C2443 1.357 . S
C2443 C2442 1.357 . S
C2443 C2444 1.406 . S
C2444 H2411 0.929 . S
C2444 C2443 1.406 . S
C2444 C2445 1.391 . S
C2445 H2412 0.931 . S
C2445 C2440 1.370 . S
C2445 C2444 1.391 . S
C2446 N2420 1.435 . S
C2446 C2447 1.358 . S
C2446 C2451 1.371 . S
C2447 H2413 0.930 . S
C2447 C2446 1.358 . S
C2447 C2448 1.405 . S
C2448 H2414 0.932 . S
C2448 C2447 1.405 . S
C2448 C2449 1.383 . S
C2449 C2448 1.383 . S
C2449 C2450 1.393 . S
C2450 H2415 0.931 . S
C2450 C2449 1.393 . S
C2450 C2451 1.382 . S
C2451 H2416 0.929 . S
C2451 C2446 1.371 . S
C2451 C2450 1.382 . S
C2452 N2420 1.423 . S
C2452 C2453 1.362 . S
C2452 C2457 1.388 . S
C2453 H2417 0.929 . S
C2453 C2452 1.362 . S
C2453 C2454 1.376 . S
C2454 H2418 0.931 . S
C2454 C2453 1.376 . S
C2454 C2455 1.396 . S
C2455 C2437 1.472 . S
C2455 C2454 1.396 . S
C2455 C2456 1.348 . S
C2456 H2419 0.929 . S
C2456 C2455 1.348 . S
C2456 C2457 1.443 . S
C2457 H2421 0.932 . S
C2457 C2452 1.388 . S
C2457 C2456 1.443 . S
H2458 C2485 0.929 . S
N2459 C2484 1.433 . S
N2459 C2490 1.435 . S
N2459 C2496 1.423 . S
H2460 C2486 0.930 . S
H2461 C2489 0.931 . S
H2462 C2488 0.929 . S
H2463 C2491 0.930 . S
H2464 C2492 0.932 . S
H2465 C2495 0.929 . S
H2466 C2494 0.931 . S
H2467 C2497 0.929 . S
H2468 C2501 0.932 . S
H2469 C2498 0.931 . S
H2470 C2500 0.929 . S
H2471 C2503 0.929 . S
H2472 C2504 0.930 . S
H2473 C2506 0.929 . S
H2474 C2507 0.931 . S
H2475 C2509 0.930 . S
H2476 C2510 0.932 . S
H2477 C2512 0.931 . S
H2478 C2513 0.929 . S
H2479 C2515 0.929 . S
H2480 C2516 0.931 . S
H2481 C2518 0.929 . S
N2482 C2502 1.433 . S
N2482 C2508 1.435 . S
N2482 C2514 1.423 . S
H2483 C2519 0.932 . S
C2484 N2459 1.433 . S
C2484 C2485 1.363 . S
C2484 C2489 1.370 . S
C2485 H2458 0.929 . S
C2485 C2484 1.363 . S
C2485 C2486 1.385 . S
C2486 H2460 0.930 . S
C2486 C2485 1.385 . S
C2486 C2487 1.357 . S
C2487 C2486 1.357 . S
C2487 C2488 1.406 . S
C2488 H2462 0.929 . S
C2488 C2487 1.406 . S
C2488 C2489 1.391 . S
C2489 H2461 0.931 . S
C2489 C2484 1.370 . S
C2489 C2488 1.391 . S
C2490 N2459 1.435 . S
C2490 C2491 1.358 . S
C2490 C2495 1.371 . S
C2491 H2463 0.930 . S
C2491 C2490 1.358 . S
C2491 C2492 1.405 . S
C2492 H2464 0.932 . S
C2492 C2491 1.405 . S
C2492 C2493 1.383 . S
C2493 C2492 1.383 . S
C2493 C2494 1.393 . S
C2494 H2466 0.931 . S
C2494 C2493 1.393 . S
C2494 C2495 1.382 . S
C2495 H2465 0.929 . S
C2495 C2490 1.371 . S
C2495 C2494 1.382 . S
C2496 N2459 1.423 . S
C2496 C2497 1.362 . S
C2496 C2501 1.388 . S
C2497 H2467 0.929 . S
C2497 C2496 1.362 . S
C2497 C2498 1.376 . S
C2498 H2469 0.931 . S
C2498 C2497 1.376 . S
C2498 C2499 1.396 . S
C2499 C2498 1.396 . S
C2499 C2500 1.348 . S
C2499 C2517 1.472 . S
C2500 H2470 0.929 . S
C2500 C2499 1.348 . S
C2500 C2501 1.443 . S
C2501 H2468 0.932 . S
C2501 C2496 1.388 . S
C2501 C2500 1.443 . S
C2502 N2482 1.433 . S
C2502 C2503 1.363 . S
C2502 C2507 1.370 . S
C2503 H2471 0.929 . S
C2503 C2502 1.363 . S
C2503 C2504 1.385 . S
C2504 H2472 0.930 . S
C2504 C2503 1.385 . S
C2504 C2505 1.357 . S
C2505 C2504 1.357 . S
C2505 C2506 1.406 . S
C2506 H2473 0.929 . S
C2506 C2505 1.406 . S
C2506 C2507 1.391 . S
C2507 H2474 0.931 . S
C2507 C2502 1.370 . S
C2507 C2506 1.391 . S
C2508 N2482 1.435 . S
C2508 C2509 1.358 . S
C2508 C2513 1.371 . S
C2509 H2475 0.930 . S
C2509 C2508 1.358 . S
C2509 C2510 1.405 . S
C2510 H2476 0.932 . S
C2510 C2509 1.405 . S
C2510 C2511 1.383 . S
C2511 C2510 1.383 . S
C2511 C2512 1.393 . S
C2512 H2477 0.931 . S
C2512 C2511 1.393 . S
C2512 C2513 1.382 . S
C2513 H2478 0.929 . S
C2513 C2508 1.371 . S
C2513 C2512 1.382 . S
C2514 N2482 1.423 . S
C2514 C2515 1.362 . S
C2514 C2519 1.388 . S
C2515 H2479 0.929 . S
C2515 C2514 1.362 . S
C2515 C2516 1.376 . S
C2516 H2480 0.931 . S
C2516 C2515 1.376 . S
C2516 C2517 1.396 . S
C2517 C2499 1.472 . S
C2517 C2516 1.396 . S
C2517 C2518 1.348 . S
C2518 H2481 0.929 . S
C2518 C2517 1.348 . S
C2518 C2519 1.443 . S
C2519 H2483 0.932 . S
C2519 C2514 1.388 . S
C2519 C2518 1.443 . S
H2520 C2547 0.929 . S
N2521 C2546 1.433 . S
N2521 C2552 1.435 . S
N2521 C2558 1.423 . S
H2522 C2548 0.930 . S
H2523 C2551 0.931 . S
H2524 C2550 0.929 . S
H2525 C2553 0.930 . S
H2526 C2554 0.932 . S
H2527 C2557 0.929 . S
H2528 C2556 0.931 . S
H2529 C2559 0.929 . S
H2530 C2563 0.932 . S
H2531 C2560 0.931 . S
H2532 C2562 0.929 . S
H2533 C2565 0.929 . S
H2534 C2566 0.930 . S
H2535 C2568 0.929 . S
H2536 C2569 0.931 . S
H2537 C2571 0.930 . S
H2538 C2572 0.932 . S
H2539 C2574 0.931 . S
H2540 C2575 0.929 . S
H2541 C2577 0.929 . S
H2542 C2578 0.931 . S
H2543 C2580 0.929 . S
N2544 C2564 1.433 . S
N2544 C2570 1.435 . S
N2544 C2576 1.423 . S
H2545 C2581 0.932 . S
C2546 N2521 1.433 . S
C2546 C2547 1.363 . S
C2546 C2551 1.370 . S
C2547 H2520 0.929 . S
C2547 C2546 1.363 . S
C2547 C2548 1.385 . S
C2548 H2522 0.930 . S
C2548 C2547 1.385 . S
C2548 C2549 1.357 . S
C2549 C2548 1.357 . S
C2549 C2550 1.406 . S
C2550 H2524 0.929 . S
C2550 C2549 1.406 . S
C2550 C2551 1.391 . S
C2551 H2523 0.931 . S
C2551 C2546 1.370 . S
C2551 C2550 1.391 . S
C2552 N2521 1.435 . S
C2552 C2553 1.358 . S
C2552 C2557 1.371 . S
C2553 H2525 0.930 . S
C2553 C2552 1.358 . S
C2553 C2554 1.405 . S
C2554 H2526 0.932 . S
C2554 C2553 1.405 . S
C2554 C2555 1.383 . S
C2555 C2554 1.383 . S
C2555 C2556 1.393 . S
C2556 H2528 0.931 . S
C2556 C2555 1.393 . S
C2556 C2557 1.382 . S
C2557 H2527 0.929 . S
C2557 C2552 1.371 . S
C2557 C2556 1.382 . S
C2558 N2521 1.423 . S
C2558 C2559 1.362 . S
C2558 C2563 1.388 . S
C2559 H2529 0.929 . S
C2559 C2558 1.362 . S
C2559 C2560 1.376 . S
C2560 H2531 0.931 . S
C2560 C2559 1.376 . S
C2560 C2561 1.396 . S
C2561 C2560 1.396 . S
C2561 C2562 1.348 . S
C2561 C2579 1.472 . S
C2562 H2532 0.929 . S
C2562 C2561 1.348 . S
C2562 C2563 1.443 . S
C2563 H2530 0.932 . S
C2563 C2558 1.388 . S
C2563 C2562 1.443 . S
C2564 N2544 1.433 . S
C2564 C2565 1.363 . S
C2564 C2569 1.370 . S
C2565 H2533 0.929 . S
C2565 C2564 1.363 . S
C2565 C2566 1.385 . S
C2566 H2534 0.930 . S
C2566 C2565 1.385 . S
C2566 C2567 1.357 . S
C2567 C2566 1.357 . S
C2567 C2568 1.406 . S
C2568 H2535 0.929 . S
C2568 C2567 1.406 . S
C2568 C2569 1.391 . S
C2569 H2536 0.931 . S
C2569 C2564 1.370 . S
C2569 C2568 1.391 . S
C2570 N2544 1.435 . S
C2570 C2571 1.358 . S
C2570 C2575 1.371 . S
C2571 H2537 0.930 . S
C2571 C2570 1.358 . S
C2571 C2572 1.405 . S
C2572 H2538 0.932 . S
C2572 C2571 1.405 . S
C2572 C2573 1.383 . S
C2573 C2572 1.383 . S
C2573 C2574 1.393 . S
C2574 H2539 0.931 . S
C2574 C2573 1.393 . S
C2574 C2575 1.382 . S
C2575 H2540 0.929 . S
C2575 C2570 1.371 . S
C2575 C2574 1.382 . S
C2576 N2544 1.423 . S
C2576 C2577 1.362 . S
C2576 C2581 1.388 . S
C2577 H2541 0.929 . S
C2577 C2576 1.362 . S
C2577 C2578 1.376 . S
C2578 H2542 0.931 . S
C2578 C2577 1.376 . S
C2578 C2579 1.396 . S
C2579 C2561 1.472 . S
C2579 C2578 1.396 . S
C2579 C2580 1.348 . S
C2580 H2543 0.929 . S
C2580 C2579 1.348 . S
C2580 C2581 1.443 . S
C2581 H2545 0.932 . S
C2581 C2576 1.388 . S
C2581 C2580 1.443 . S
H2582 C2609 0.929 . S
N2583 C2608 1.433 . S
N2583 C2614 1.435 . S
N2583 C2620 1.423 . S
H2584 C2610 0.930 . S
H2585 C2613 0.931 . S
H2586 C2612 0.929 . S
H2587 C2615 0.930 . S
H2588 C2616 0.932 . S
H2589 C2619 0.929 . S
H2590 C2618 0.931 . S
H2591 C2621 0.929 . S
H2592 C2625 0.932 . S
H2593 C2622 0.931 . S
H2594 C2624 0.929 . S
H2595 C2627 0.929 . S
H2596 C2628 0.930 . S
H2597 C2630 0.929 . S
H2598 C2631 0.931 . S
H2599 C2633 0.930 . S
H2600 C2634 0.932 . S
H2601 C2636 0.931 . S
H2602 C2637 0.929 . S
H2603 C2639 0.929 . S
H2604 C2640 0.931 . S
H2605 C2642 0.929 . S
N2606 C2626 1.433 . S
N2606 C2632 1.435 . S
N2606 C2638 1.423 . S
H2607 C2643 0.932 . S
C2608 N2583 1.433 . S
C2608 C2609 1.363 . S
C2608 C2613 1.370 . S
C2609 H2582 0.929 . S
C2609 C2608 1.363 . S
C2609 C2610 1.385 . S
C2610 H2584 0.930 . S
C2610 C2609 1.385 . S
C2610 C2611 1.357 . S
C2611 C2610 1.357 . S
C2611 C2612 1.406 . S
C2612 H2586 0.929 . S
C2612 C2611 1.406 . S
C2612 C2613 1.391 . S
C2613 H2585 0.931 . S
C2613 C2608 1.370 . S
C2613 C2612 1.391 . S
C2614 N2583 1.435 . S
C2614 C2615 1.358 . S
C2614 C2619 1.371 . S
C2615 H2587 0.930 . S
C2615 C2614 1.358 . S
C2615 C2616 1.405 . S
C2616 H2588 0.932 . S
C2616 C2615 1.405 . S
C2616 C2617 1.383 . S
C2617 C2616 1.383 . S
C2617 C2618 1.393 . S
C2618 H2590 0.931 . S
C2618 C2617 1.393 . S
C2618 C2619 1.382 . S
C2619 H2589 0.929 . S
C2619 C2614 1.371 . S
C2619 C2618 1.382 . S
C2620 N2583 1.423 . S
C2620 C2621 1.362 . S
C2620 C2625 1.388 . S
C2621 H2591 0.929 . S
C2621 C2620 1.362 . S
C2621 C2622 1.376 . S
C2622 H2593 0.931 . S
C2622 C2621 1.376 . S
C2622 C2623 1.396 . S
C2623 C2622 1.396 . S
C2623 C2624 1.348 . S
C2623 C2641 1.472 . S
C2624 H2594 0.929 . S
C2624 C2623 1.348 . S
C2624 C2625 1.443 . S
C2625 H2592 0.932 . S
C2625 C2620 1.388 . S
C2625 C2624 1.443 . S
C2626 N2606 1.433 . S
C2626 C2627 1.363 . S
C2626 C2631 1.370 . S
C2627 H2595 0.929 . S
C2627 C2626 1.363 . S
C2627 C2628 1.385 . S
C2628 H2596 0.930 . S
C2628 C2627 1.385 . S
C2628 C2629 1.357 . S
C2629 C2628 1.357 . S
C2629 C2630 1.406 . S
C2630 H2597 0.929 . S
C2630 C2629 1.406 . S
C2630 C2631 1.391 . S
C2631 H2598 0.931 . S
C2631 C2626 1.370 . S
C2631 C2630 1.391 . S
C2632 N2606 1.435 . S
C2632 C2633 1.358 . S
C2632 C2637 1.371 . S
C2633 H2599 0.930 . S
C2633 C2632 1.358 . S
C2633 C2634 1.405 . S
C2634 H2600 0.932 . S
C2634 C2633 1.405 . S
C2634 C2635 1.383 . S
C2635 C2634 1.383 . S
C2635 C2636 1.393 . S
C2636 H2601 0.931 . S
C2636 C2635 1.393 . S
C2636 C2637 1.382 . S
C2637 H2602 0.929 . S
C2637 C2632 1.371 . S
C2637 C2636 1.382 . S
C2638 N2606 1.423 . S
C2638 C2639 1.362 . S
C2638 C2643 1.388 . S
C2639 H2603 0.929 . S
C2639 C2638 1.362 . S
C2639 C2640 1.376 . S
C2640 H2604 0.931 . S
C2640 C2639 1.376 . S
C2640 C2641 1.396 . S
C2641 C2623 1.472 . S
C2641 C2640 1.396 . S
C2641 C2642 1.348 . S
C2642 H2605 0.929 . S
C2642 C2641 1.348 . S
C2642 C2643 1.443 . S
C2643 H2607 0.932 . S
C2643 C2638 1.388 . S
C2643 C2642 1.443 . S
H2644 C2671 0.929 . S
N2645 C2670 1.433 . S
N2645 C2676 1.435 . S
N2645 C2682 1.423 . S
H2646 C2672 0.930 . S
H2647 C2675 0.931 . S
H2648 C2674 0.929 . S
H2649 C2677 0.930 . S
H2650 C2678 0.932 . S
H2651 C2681 0.929 . S
H2652 C2680 0.931 . S
H2653 C2683 0.929 . S
H2654 C2687 0.932 . S
H2655 C2684 0.931 . S
H2656 C2686 0.929 . S
H2657 C2689 0.929 . S
H2658 C2690 0.930 . S
H2659 C2692 0.929 . S
H2660 C2693 0.931 . S
H2661 C2695 0.930 . S
H2662 C2696 0.932 . S
H2663 C2698 0.931 . S
H2664 C2699 0.929 . S
H2665 C2701 0.929 . S
H2666 C2702 0.931 . S
H2667 C2704 0.929 . S
N2668 C2688 1.433 . S
N2668 C2694 1.435 . S
N2668 C2700 1.423 . S
H2669 C2705 0.932 . S
C2670 N2645 1.433 . S
C2670 C2671 1.363 . S
C2670 C2675 1.370 . S
C2671 H2644 0.929 . S
C2671 C2670 1.363 . S
C2671 C2672 1.385 . S
C2672 H2646 0.930 . S
C2672 C2671 1.385 . S
C2672 C2673 1.357 . S
C2673 C2672 1.357 . S
C2673 C2674 1.406 . S
C2674 H2648 0.929 . S
C2674 C2673 1.406 . S
C2674 C2675 1.391 . S
C2675 H2647 0.931 . S
C2675 C2670 1.370 . S
C2675 C2674 1.391 . S
C2676 N2645 1.435 . S
C2676 C2677 1.358 . S
C2676 C2681 1.371 . S
C2677 H2649 0.930 . S
C2677 C2676 1.358 . S
C2677 C2678 1.405 . S
C2678 H2650 0.932 . S
C2678 C2677 1.405 . S
C2678 C2679 1.383 . S
C2679 C2678 1.383 . S
C2679 C2680 1.393 . S
C2680 H2652 0.931 . S
C2680 C2679 1.393 . S
C2680 C2681 1.382 . S
C2681 H2651 0.929 . S
C2681 C2676 1.371 . S
C2681 C2680 1.382 . S
C2682 N2645 1.423 . S
C2682 C2683 1.362 . S
C2682 C2687 1.388 . S
C2683 H2653 0.929 . S
C2683 C2682 1.362 . S
C2683 C2684 1.376 . S
C2684 H2655 0.931 . S
C2684 C2683 1.376 . S
C2684 C2685 1.396 . S
C2685 C2684 1.396 . S
C2685 C2686 1.348 . S
C2685 C2703 1.472 . S
C2686 H2656 0.929 . S
C2686 C2685 1.348 . S
C2686 C2687 1.443 . S
C2687 H2654 0.932 . S
C2687 C2682 1.388 . S
C2687 C2686 1.443 . S
C2688 N2668 1.433 . S
C2688 C2689 1.363 . S
C2688 C2693 1.370 . S
C2689 H2657 0.929 . S
C2689 C2688 1.363 . S
C2689 C2690 1.385 . S
C2690 H2658 0.930 . S
C2690 C2689 1.385 . S
C2690 C2691 1.357 . S
C2691 C2690 1.357 . S
C2691 C2692 1.406 . S
C2692 H2659 0.929 . S
C2692 C2691 1.406 . S
C2692 C2693 1.391 . S
C2693 H2660 0.931 . S
C2693 C2688 1.370 . S
C2693 C2692 1.391 . S
C2694 N2668 1.435 . S
C2694 C2695 1.358 . S
C2694 C2699 1.371 . S
C2695 H2661 0.930 . S
C2695 C2694 1.358 . S
C2695 C2696 1.405 . S
C2696 H2662 0.932 . S
C2696 C2695 1.405 . S
C2696 C2697 1.383 . S
C2697 C2696 1.383 . S
C2697 C2698 1.393 . S
C2698 H2663 0.931 . S
C2698 C2697 1.393 . S
C2698 C2699 1.382 . S
C2699 H2664 0.929 . S
C2699 C2694 1.371 . S
C2699 C2698 1.382 . S
C2700 N2668 1.423 . S
C2700 C2701 1.362 . S
C2700 C2705 1.388 . S
C2701 H2665 0.929 . S
C2701 C2700 1.362 . S
C2701 C2702 1.376 . S
C2702 H2666 0.931 . S
C2702 C2701 1.376 . S
C2702 C2703 1.396 . S
C2703 C2685 1.472 . S
C2703 C2702 1.396 . S
C2703 C2704 1.348 . S
C2704 H2667 0.929 . S
C2704 C2703 1.348 . S
C2704 C2705 1.443 . S
C2705 H2669 0.932 . S
C2705 C2700 1.388 . S
C2705 C2704 1.443 . S
H2706 C2733 0.929 . S
N2707 C2732 1.433 . S
N2707 C2738 1.435 . S
N2707 C2744 1.423 . S
H2708 C2734 0.930 . S
H2709 C2737 0.931 . S
H2710 C2736 0.929 . S
H2711 C2739 0.930 . S
H2712 C2740 0.932 . S
H2713 C2743 0.929 . S
H2714 C2742 0.931 . S
H2715 C2745 0.929 . S
H2716 C2749 0.932 . S
H2717 C2746 0.931 . S
H2718 C2748 0.929 . S
H2719 C2751 0.929 . S
H2720 C2752 0.930 . S
H2721 C2754 0.929 . S
H2722 C2755 0.931 . S
H2723 C2757 0.930 . S
H2724 C2758 0.932 . S
H2725 C2760 0.931 . S
H2726 C2761 0.929 . S
H2727 C2763 0.929 . S
H2728 C2764 0.931 . S
H2729 C2766 0.929 . S
N2730 C2750 1.433 . S
N2730 C2756 1.435 . S
N2730 C2762 1.423 . S
H2731 C2767 0.932 . S
C2732 N2707 1.433 . S
C2732 C2733 1.363 . S
C2732 C2737 1.370 . S
C2733 H2706 0.929 . S
C2733 C2732 1.363 . S
C2733 C2734 1.385 . S
C2734 H2708 0.930 . S
C2734 C2733 1.385 . S
C2734 C2735 1.357 . S
C2735 C2734 1.357 . S
C2735 C2736 1.406 . S
C2736 H2710 0.929 . S
C2736 C2735 1.406 . S
C2736 C2737 1.391 . S
C2737 H2709 0.931 . S
C2737 C2732 1.370 . S
C2737 C2736 1.391 . S
C2738 N2707 1.435 . S
C2738 C2739 1.358 . S
C2738 C2743 1.371 . S
C2739 H2711 0.930 . S
C2739 C2738 1.358 . S
C2739 C2740 1.405 . S
C2740 H2712 0.932 . S
C2740 C2739 1.405 . S
C2740 C2741 1.383 . S
C2741 C2740 1.383 . S
C2741 C2742 1.393 . S
C2742 H2714 0.931 . S
C2742 C2741 1.393 . S
C2742 C2743 1.382 . S
C2743 H2713 0.929 . S
C2743 C2738 1.371 . S
C2743 C2742 1.382 . S
C2744 N2707 1.423 . S
C2744 C2745 1.362 . S
C2744 C2749 1.388 . S
C2745 H2715 0.929 . S
C2745 C2744 1.362 . S
C2745 C2746 1.376 . S
C2746 H2717 0.931 . S
C2746 C2745 1.376 . S
C2746 C2747 1.396 . S
C2747 C2746 1.396 . S
C2747 C2748 1.348 . S
C2747 C2765 1.472 . S
C2748 H2718 0.929 . S
C2748 C2747 1.348 . S
C2748 C2749 1.443 . S
C2749 H2716 0.932 . S
C2749 C2744 1.388 . S
C2749 C2748 1.443 . S
C2750 N2730 1.433 . S
C2750 C2751 1.363 . S
C2750 C2755 1.370 . S
C2751 H2719 0.929 . S
C2751 C2750 1.363 . S
C2751 C2752 1.385 . S
C2752 H2720 0.930 . S
C2752 C2751 1.385 . S
C2752 C2753 1.357 . S
C2753 C2752 1.357 . S
C2753 C2754 1.406 . S
C2754 H2721 0.929 . S
C2754 C2753 1.406 . S
C2754 C2755 1.391 . S
C2755 H2722 0.931 . S
C2755 C2750 1.370 . S
C2755 C2754 1.391 . S
C2756 N2730 1.435 . S
C2756 C2757 1.358 . S
C2756 C2761 1.371 . S
C2757 H2723 0.930 . S
C2757 C2756 1.358 . S
C2757 C2758 1.405 . S
C2758 H2724 0.932 . S
C2758 C2757 1.405 . S
C2758 C2759 1.383 . S
C2759 C2758 1.383 . S
C2759 C2760 1.393 . S
C2760 H2725 0.931 . S
C2760 C2759 1.393 . S
C2760 C2761 1.382 . S
C2761 H2726 0.929 . S
C2761 C2756 1.371 . S
C2761 C2760 1.382 . S
C2762 N2730 1.423 . S
C2762 C2763 1.362 . S
C2762 C2767 1.388 . S
C2763 H2727 0.929 . S
C2763 C2762 1.362 . S
C2763 C2764 1.376 . S
C2764 H2728 0.931 . S
C2764 C2763 1.376 . S
C2764 C2765 1.396 . S
C2765 C2747 1.472 . S
C2765 C2764 1.396 . S
C2765 C2766 1.348 . S
C2766 H2729 0.929 . S
C2766 C2765 1.348 . S
C2766 C2767 1.443 . S
C2767 H2731 0.932 . S
C2767 C2762 1.388 . S
C2767 C2766 1.443 . S
C2768 C2769 1.349 . S
C2768 C2770 1.327 . S
C2768 H2793 0.950 . S
C2769 C2768 1.349 . S
C2769 C2785 1.349 . S
C2770 C2768 1.327 . S
C2770 C2789 1.429 . S
C2770 H2794 0.950 . S
C2771 C2788 1.574 . S
C2771 C2790 1.368 . S
C2771 H2795 0.949 . S
H2772 C2776 0.949 . S
C2773 C2774 1.349 . S
C2773 C2775 1.327 . S
C2773 H2796 0.950 . S
C2774 C2773 1.349 . S
C2774 C2786 1.349 . S
C2775 C2773 1.327 . S
C2775 C2791 1.429 . S
C2775 H2797 0.950 . S
C2776 H2772 0.949 . S
C2776 C2784 1.574 . S
C2776 C2792 1.368 . S
H2777 C2785 0.950 . S
H2778 C2783 0.950 . S
H2779 C2784 0.949 . S
H2780 C2786 0.950 . S
H2781 C2787 0.950 . S
H2782 C2788 0.949 . S
C2783 H2778 0.950 . S
C2783 C2785 1.327 . S
C2783 C2789 1.429 . S
C2784 C2776 1.574 . S
C2784 H2779 0.949 . S
C2784 C2790 1.368 . S
C2785 C2769 1.349 . S
C2785 H2777 0.950 . S
C2785 C2783 1.327 . S
C2786 C2774 1.349 . S
C2786 H2780 0.950 . S
C2786 C2787 1.327 . S
C2787 H2781 0.950 . S
C2787 C2786 1.327 . S
C2787 C2791 1.429 . S
C2788 C2771 1.574 . S
C2788 H2782 0.949 . S
C2788 C2792 1.368 . S
C2789 C2770 1.429 . S
C2789 C2783 1.429 . S
C2789 C2790 1.523 . S
C2790 C2771 1.368 . S
C2790 C2784 1.368 . S
C2790 C2789 1.523 . S
C2791 C2775 1.429 . S
C2791 C2787 1.429 . S
C2791 C2792 1.523 . S
C2792 C2776 1.368 . S
C2792 C2788 1.368 . S
C2792 C2791 1.523 . S
H2793 C2768 0.950 . S
H2794 C2770 0.950 . S
H2795 C2771 0.949 . S
H2796 C2773 0.950 . S
H2797 C2775 0.950 . S
C2798 C2799 1.349 . S
C2798 C2800 1.327 . S
C2798 H2823 0.950 . S
C2799 C2798 1.349 . S
C2799 C2815 1.349 . S
C2800 C2798 1.327 . S
C2800 C2819 1.429 . S
C2800 H2824 0.950 . S
C2801 C2818 1.574 . S
C2801 C2820 1.368 . S
C2801 H2825 0.949 . S
H2802 C2806 0.949 . S
C2803 C2804 1.349 . S
C2803 C2805 1.327 . S
C2803 H2826 0.950 . S
C2804 C2803 1.349 . S
C2804 C2816 1.349 . S
C2805 C2803 1.327 . S
C2805 C2821 1.429 . S
C2805 H2827 0.950 . S
C2806 H2802 0.949 . S
C2806 C2814 1.574 . S
C2806 C2822 1.368 . S
H2807 C2815 0.950 . S
H2808 C2813 0.950 . S
H2809 C2814 0.949 . S
H2810 C2816 0.950 . S
H2811 C2817 0.950 . S
H2812 C2818 0.949 . S
C2813 H2808 0.950 . S
C2813 C2815 1.327 . S
C2813 C2819 1.429 . S
C2814 C2806 1.574 . S
C2814 H2809 0.949 . S
C2814 C2820 1.368 . S
C2815 C2799 1.349 . S
C2815 H2807 0.950 . S
C2815 C2813 1.327 . S
C2816 C2804 1.349 . S
C2816 H2810 0.950 . S
C2816 C2817 1.327 . S
C2817 H2811 0.950 . S
C2817 C2816 1.327 . S
C2817 C2821 1.429 . S
C2818 C2801 1.574 . S
C2818 H2812 0.949 . S
C2818 C2822 1.368 . S
C2819 C2800 1.429 . S
C2819 C2813 1.429 . S
C2819 C2820 1.523 . S
C2820 C2801 1.368 . S
C2820 C2814 1.368 . S
C2820 C2819 1.523 . S
C2821 C2805 1.429 . S
C2821 C2817 1.429 . S
C2821 C2822 1.523 . S
C2822 C2806 1.368 . S
C2822 C2818 1.368 . S
C2822 C2821 1.523 . S
H2823 C2798 0.950 . S
H2824 C2800 0.950 . S
H2825 C2801 0.949 . S
H2826 C2803 0.950 . S
H2827 C2805 0.950 . S
C2828 C2829 1.349 . S
C2828 C2830 1.327 . S
C2828 H2853 0.950 . S
C2829 C2828 1.349 . S
C2829 C2845 1.349 . S
C2830 C2828 1.327 . S
C2830 C2849 1.429 . S
C2830 H2854 0.950 . S
C2831 C2848 1.574 . S
C2831 C2850 1.368 . S
C2831 H2855 0.949 . S
H2832 C2836 0.949 . S
C2833 C2834 1.349 . S
C2833 C2835 1.327 . S
C2833 H2856 0.950 . S
C2834 C2833 1.349 . S
C2834 C2846 1.349 . S
C2835 C2833 1.327 . S
C2835 C2851 1.429 . S
C2835 H2857 0.950 . S
C2836 H2832 0.949 . S
C2836 C2844 1.574 . S
C2836 C2852 1.368 . S
H2837 C2845 0.950 . S
H2838 C2843 0.950 . S
H2839 C2844 0.949 . S
H2840 C2846 0.950 . S
H2841 C2847 0.950 . S
H2842 C2848 0.949 . S
C2843 H2838 0.950 . S
C2843 C2845 1.327 . S
C2843 C2849 1.429 . S
C2844 C2836 1.574 . S
C2844 H2839 0.949 . S
C2844 C2850 1.368 . S
C2845 C2829 1.349 . S
C2845 H2837 0.950 . S
C2845 C2843 1.327 . S
C2846 C2834 1.349 . S
C2846 H2840 0.950 . S
C2846 C2847 1.327 . S
C2847 H2841 0.950 . S
C2847 C2846 1.327 . S
C2847 C2851 1.429 . S
C2848 C2831 1.574 . S
C2848 H2842 0.949 . S
C2848 C2852 1.368 . S
C2849 C2830 1.429 . S
C2849 C2843 1.429 . S
C2849 C2850 1.523 . S
C2850 C2831 1.368 . S
C2850 C2844 1.368 . S
C2850 C2849 1.523 . S
C2851 C2835 1.429 . S
C2851 C2847 1.429 . S
C2851 C2852 1.523 . S
C2852 C2836 1.368 . S
C2852 C2848 1.368 . S
C2852 C2851 1.523 . S
H2853 C2828 0.950 . S
H2854 C2830 0.950 . S
H2855 C2831 0.949 . S
H2856 C2833 0.950 . S
H2857 C2835 0.950 . S
C2858 C2859 1.349 . S
C2858 C2860 1.327 . S
C2858 H2883 0.950 . S
C2859 C2858 1.349 . S
C2859 C2875 1.349 . S
C2860 C2858 1.327 . S
C2860 C2879 1.429 . S
C2860 H2884 0.950 . S
C2861 C2878 1.574 . S
C2861 C2880 1.368 . S
C2861 H2885 0.949 . S
H2862 C2866 0.949 . S
C2863 C2864 1.349 . S
C2863 C2865 1.327 . S
C2863 H2886 0.950 . S
C2864 C2863 1.349 . S
C2864 C2876 1.349 . S
C2865 C2863 1.327 . S
C2865 C2881 1.429 . S
C2865 H2887 0.950 . S
C2866 H2862 0.949 . S
C2866 C2874 1.574 . S
C2866 C2882 1.368 . S
H2867 C2875 0.950 . S
H2868 C2873 0.950 . S
H2869 C2874 0.949 . S
H2870 C2876 0.950 . S
H2871 C2877 0.950 . S
H2872 C2878 0.949 . S
C2873 H2868 0.950 . S
C2873 C2875 1.327 . S
C2873 C2879 1.429 . S
C2874 C2866 1.574 . S
C2874 H2869 0.949 . S
C2874 C2880 1.368 . S
C2875 C2859 1.349 . S
C2875 H2867 0.950 . S
C2875 C2873 1.327 . S
C2876 C2864 1.349 . S
C2876 H2870 0.950 . S
C2876 C2877 1.327 . S
C2877 H2871 0.950 . S
C2877 C2876 1.327 . S
C2877 C2881 1.429 . S
C2878 C2861 1.574 . S
C2878 H2872 0.949 . S
C2878 C2882 1.368 . S
C2879 C2860 1.429 . S
C2879 C2873 1.429 . S
C2879 C2880 1.523 . S
C2880 C2861 1.368 . S
C2880 C2874 1.368 . S
C2880 C2879 1.523 . S
C2881 C2865 1.429 . S
C2881 C2877 1.429 . S
C2881 C2882 1.523 . S
C2882 C2866 1.368 . S
C2882 C2878 1.368 . S
C2882 C2881 1.523 . S
H2883 C2858 0.950 . S
H2884 C2860 0.950 . S
H2885 C2861 0.949 . S
H2886 C2863 0.950 . S
H2887 C2865 0.950 . S
C2888 C2889 1.349 . S
C2888 C2890 1.327 . S
C2888 H2913 0.950 . S
C2889 C2888 1.349 . S
C2889 C2905 1.349 . S
C2890 C2888 1.327 . S
C2890 C2909 1.429 . S
C2890 H2914 0.950 . S
C2891 C2908 1.574 . S
C2891 C2910 1.368 . S
C2891 H2915 0.949 . S
H2892 C2896 0.949 . S
C2893 C2894 1.349 . S
C2893 C2895 1.327 . S
C2893 H2916 0.950 . S
C2894 C2893 1.349 . S
C2894 C2906 1.349 . S
C2895 C2893 1.327 . S
C2895 C2911 1.429 . S
C2895 H2917 0.950 . S
C2896 H2892 0.949 . S
C2896 C2904 1.574 . S
C2896 C2912 1.368 . S
H2897 C2905 0.950 . S
H2898 C2903 0.950 . S
H2899 C2904 0.949 . S
H2900 C2906 0.950 . S
H2901 C2907 0.950 . S
H2902 C2908 0.949 . S
C2903 H2898 0.950 . S
C2903 C2905 1.327 . S
C2903 C2909 1.429 . S
C2904 C2896 1.574 . S
C2904 H2899 0.949 . S
C2904 C2910 1.368 . S
C2905 C2889 1.349 . S
C2905 H2897 0.950 . S
C2905 C2903 1.327 . S
C2906 C2894 1.349 . S
C2906 H2900 0.950 . S
C2906 C2907 1.327 . S
C2907 H2901 0.950 . S
C2907 C2906 1.327 . S
C2907 C2911 1.429 . S
C2908 C2891 1.574 . S
C2908 H2902 0.949 . S
C2908 C2912 1.368 . S
C2909 C2890 1.429 . S
C2909 C2903 1.429 . S
C2909 C2910 1.523 . S
C2910 C2891 1.368 . S
C2910 C2904 1.368 . S
C2910 C2909 1.523 . S
C2911 C2895 1.429 . S
C2911 C2907 1.429 . S
C2911 C2912 1.523 . S
C2912 C2896 1.368 . S
C2912 C2908 1.368 . S
C2912 C2911 1.523 . S
H2913 C2888 0.950 . S
H2914 C2890 0.950 . S
H2915 C2891 0.949 . S
H2916 C2893 0.950 . S
H2917 C2895 0.950 . S
C2918 C2919 1.349 . S
C2918 C2920 1.327 . S
C2918 H2943 0.950 . S
C2919 C2918 1.349 . S
C2919 C2935 1.349 . S
C2920 C2918 1.327 . S
C2920 C2939 1.429 . S
C2920 H2944 0.950 . S
C2921 C2938 1.574 . S
C2921 C2940 1.368 . S
C2921 H2945 0.949 . S
H2922 C2926 0.949 . S
C2923 C2924 1.349 . S
C2923 C2925 1.327 . S
C2923 H2946 0.950 . S
C2924 C2923 1.349 . S
C2924 C2936 1.349 . S
C2925 C2923 1.327 . S
C2925 C2941 1.429 . S
C2925 H2947 0.950 . S
C2926 H2922 0.949 . S
C2926 C2934 1.574 . S
C2926 C2942 1.368 . S
H2927 C2935 0.950 . S
H2928 C2933 0.950 . S
H2929 C2934 0.949 . S
H2930 C2936 0.950 . S
H2931 C2937 0.950 . S
H2932 C2938 0.949 . S
C2933 H2928 0.950 . S
C2933 C2935 1.327 . S
C2933 C2939 1.429 . S
C2934 C2926 1.574 . S
C2934 H2929 0.949 . S
C2934 C2940 1.368 . S
C2935 C2919 1.349 . S
C2935 H2927 0.950 . S
C2935 C2933 1.327 . S
C2936 C2924 1.349 . S
C2936 H2930 0.950 . S
C2936 C2937 1.327 . S
C2937 H2931 0.950 . S
C2937 C2936 1.327 . S
C2937 C2941 1.429 . S
C2938 C2921 1.574 . S
C2938 H2932 0.949 . S
C2938 C2942 1.368 . S
C2939 C2920 1.429 . S
C2939 C2933 1.429 . S
C2939 C2940 1.523 . S
C2940 C2921 1.368 . S
C2940 C2934 1.368 . S
C2940 C2939 1.523 . S
C2941 C2925 1.429 . S
C2941 C2937 1.429 . S
C2941 C2942 1.523 . S
C2942 C2926 1.368 . S
C2942 C2938 1.368 . S
C2942 C2941 1.523 . S
H2943 C2918 0.950 . S
H2944 C2920 0.950 . S
H2945 C2921 0.949 . S
H2946 C2923 0.950 . S
H2947 C2925 0.950 . S
C2948 C2949 1.349 . S
C2948 C2950 1.327 . S
C2948 H2973 0.950 . S
C2949 C2948 1.349 . S
C2949 C2965 1.349 . S
C2950 C2948 1.327 . S
C2950 C2969 1.429 . S
C2950 H2974 0.950 . S
C2951 C2968 1.574 . S
C2951 C2970 1.368 . S
C2951 H2975 0.949 . S
H2952 C2956 0.949 . S
C2953 C2954 1.349 . S
C2953 C2955 1.327 . S
C2953 H2976 0.950 . S
C2954 C2953 1.349 . S
C2954 C2966 1.349 . S
C2955 C2953 1.327 . S
C2955 C2971 1.429 . S
C2955 H2977 0.950 . S
C2956 H2952 0.949 . S
C2956 C2964 1.574 . S
C2956 C2972 1.368 . S
H2957 C2965 0.950 . S
H2958 C2963 0.950 . S
H2959 C2964 0.949 . S
H2960 C2966 0.950 . S
H2961 C2967 0.950 . S
H2962 C2968 0.949 . S
C2963 H2958 0.950 . S
C2963 C2965 1.327 . S
C2963 C2969 1.429 . S
C2964 C2956 1.574 . S
C2964 H2959 0.949 . S
C2964 C2970 1.368 . S
C2965 C2949 1.349 . S
C2965 H2957 0.950 . S
C2965 C2963 1.327 . S
C2966 C2954 1.349 . S
C2966 H2960 0.950 . S
C2966 C2967 1.327 . S
C2967 H2961 0.950 . S
C2967 C2966 1.327 . S
C2967 C2971 1.429 . S
C2968 C2951 1.574 . S
C2968 H2962 0.949 . S
C2968 C2972 1.368 . S
C2969 C2950 1.429 . S
C2969 C2963 1.429 . S
C2969 C2970 1.523 . S
C2970 C2951 1.368 . S
C2970 C2964 1.368 . S
C2970 C2969 1.523 . S
C2971 C2955 1.429 . S
C2971 C2967 1.429 . S
C2971 C2972 1.523 . S
C2972 C2956 1.368 . S
C2972 C2968 1.368 . S
C2972 C2971 1.523 . S
H2973 C2948 0.950 . S
H2974 C2950 0.950 . S
H2975 C2951 0.949 . S
H2976 C2953 0.950 . S
H2977 C2955 0.950 . S
C2978 C2979 1.349 . S
C2978 C2980 1.327 . S
C2978 H3003 0.950 . S
C2979 C2978 1.349 . S
C2979 C2995 1.349 . S
C2980 C2978 1.327 . S
C2980 C2999 1.429 . S
C2980 H3004 0.950 . S
C2981 C2998 1.574 . S
C2981 C3000 1.368 . S
C2981 H3005 0.949 . S
H2982 C2986 0.949 . S
C2983 C2984 1.349 . S
C2983 C2985 1.327 . S
C2983 H3006 0.950 . S
C2984 C2983 1.349 . S
C2984 C2996 1.349 . S
C2985 C2983 1.327 . S
C2985 C3001 1.429 . S
C2985 H3007 0.950 . S
C2986 H2982 0.949 . S
C2986 C2994 1.574 . S
C2986 C3002 1.368 . S
H2987 C2995 0.950 . S
H2988 C2993 0.950 . S
H2989 C2994 0.949 . S
H2990 C2996 0.950 . S
H2991 C2997 0.950 . S
H2992 C2998 0.949 . S
C2993 H2988 0.950 . S
C2993 C2995 1.327 . S
C2993 C2999 1.429 . S
C2994 C2986 1.574 . S
C2994 H2989 0.949 . S
C2994 C3000 1.368 . S
C2995 C2979 1.349 . S
C2995 H2987 0.950 . S
C2995 C2993 1.327 . S
C2996 C2984 1.349 . S
C2996 H2990 0.950 . S
C2996 C2997 1.327 . S
C2997 H2991 0.950 . S
C2997 C2996 1.327 . S
C2997 C3001 1.429 . S
C2998 C2981 1.574 . S
C2998 H2992 0.949 . S
C2998 C3002 1.368 . S
C2999 C2980 1.429 . S
C2999 C2993 1.429 . S
C2999 C3000 1.523 . S
C3000 C2981 1.368 . S
C3000 C2994 1.368 . S
C3000 C2999 1.523 . S
C3001 C2985 1.429 . S
C3001 C2997 1.429 . S
C3001 C3002 1.523 . S
C3002 C2986 1.368 . S
C3002 C2998 1.368 . S
C3002 C3001 1.523 . S
H3003 C2978 0.950 . S
H3004 C2980 0.950 . S
H3005 C2981 0.949 . S
H3006 C2983 0.950 . S
H3007 C2985 0.950 . S
C3008 C3009 1.349 . S
C3008 C3010 1.327 . S
C3008 H3033 0.950 . S
C3009 C3008 1.349 . S
C3009 C3025 1.349 . S
C3010 C3008 1.327 . S
C3010 C3029 1.429 . S
C3010 H3034 0.950 . S
C3011 C3028 1.574 . S
C3011 C3030 1.368 . S
C3011 H3035 0.949 . S
H3012 C3016 0.949 . S
C3013 C3014 1.349 . S
C3013 C3015 1.327 . S
C3013 H3036 0.950 . S
C3014 C3013 1.349 . S
C3014 C3026 1.349 . S
C3015 C3013 1.327 . S
C3015 C3031 1.429 . S
C3015 H3037 0.950 . S
C3016 H3012 0.949 . S
C3016 C3024 1.574 . S
C3016 C3032 1.368 . S
H3017 C3025 0.950 . S
H3018 C3023 0.950 . S
H3019 C3024 0.949 . S
H3020 C3026 0.950 . S
H3021 C3027 0.950 . S
H3022 C3028 0.949 . S
C3023 H3018 0.950 . S
C3023 C3025 1.327 . S
C3023 C3029 1.429 . S
C3024 C3016 1.574 . S
C3024 H3019 0.949 . S
C3024 C3030 1.368 . S
C3025 C3009 1.349 . S
C3025 H3017 0.950 . S
C3025 C3023 1.327 . S
C3026 C3014 1.349 . S
C3026 H3020 0.950 . S
C3026 C3027 1.327 . S
C3027 H3021 0.950 . S
C3027 C3026 1.327 . S
C3027 C3031 1.429 . S
C3028 C3011 1.574 . S
C3028 H3022 0.949 . S
C3028 C3032 1.368 . S
C3029 C3010 1.429 . S
C3029 C3023 1.429 . S
C3029 C3030 1.523 . S
C3030 C3011 1.368 . S
C3030 C3024 1.368 . S
C3030 C3029 1.523 . S
C3031 C3015 1.429 . S
C3031 C3027 1.429 . S
C3031 C3032 1.523 . S
C3032 C3016 1.368 . S
C3032 C3028 1.368 . S
C3032 C3031 1.523 . S
H3033 C3008 0.950 . S
H3034 C3010 0.950 . S
H3035 C3011 0.949 . S
H3036 C3013 0.950 . S
H3037 C3015 0.950 . S
C3038 C3039 1.349 . S
C3038 C3040 1.327 . S
C3038 H3063 0.950 . S
C3039 C3038 1.349 . S
C3039 C3055 1.349 . S
C3040 C3038 1.327 . S
C3040 C3059 1.429 . S
C3040 H3064 0.950 . S
C3041 C3058 1.574 . S
C3041 C3060 1.368 . S
C3041 H3065 0.949 . S
H3042 C3046 0.949 . S
C3043 C3044 1.349 . S
C3043 C3045 1.327 . S
C3043 H3066 0.950 . S
C3044 C3043 1.349 . S
C3044 C3056 1.349 . S
C3045 C3043 1.327 . S
C3045 C3061 1.429 . S
C3045 H3067 0.950 . S
C3046 H3042 0.949 . S
C3046 C3054 1.574 . S
C3046 C3062 1.368 . S
H3047 C3055 0.950 . S
H3048 C3053 0.950 . S
H3049 C3054 0.949 . S
H3050 C3056 0.950 . S
H3051 C3057 0.950 . S
H3052 C3058 0.949 . S
C3053 H3048 0.950 . S
C3053 C3055 1.327 . S
C3053 C3059 1.429 . S
C3054 C3046 1.574 . S
C3054 H3049 0.949 . S
C3054 C3060 1.368 . S
C3055 C3039 1.349 . S
C3055 H3047 0.950 . S
C3055 C3053 1.327 . S
C3056 C3044 1.349 . S
C3056 H3050 0.950 . S
C3056 C3057 1.327 . S
C3057 H3051 0.950 . S
C3057 C3056 1.327 . S
C3057 C3061 1.429 . S
C3058 C3041 1.574 . S
C3058 H3052 0.949 . S
C3058 C3062 1.368 . S
C3059 C3040 1.429 . S
C3059 C3053 1.429 . S
C3059 C3060 1.523 . S
C3060 C3041 1.368 . S
C3060 C3054 1.368 . S
C3060 C3059 1.523 . S
C3061 C3045 1.429 . S
C3061 C3057 1.429 . S
C3061 C3062 1.523 . S
C3062 C3046 1.368 . S
C3062 C3058 1.368 . S
C3062 C3061 1.523 . S
H3063 C3038 0.950 . S
H3064 C3040 0.950 . S
H3065 C3041 0.949 . S
H3066 C3043 0.950 . S
H3067 C3045 0.950 . S
C3068 C3069 1.349 . S
C3068 C3070 1.327 . S
C3068 H3093 0.950 . S
C3069 C3068 1.349 . S
C3069 C3085 1.349 . S
C3070 C3068 1.327 . S
C3070 C3089 1.429 . S
C3070 H3094 0.950 . S
C3071 C3088 1.574 . S
C3071 C3090 1.368 . S
C3071 H3095 0.949 . S
H3072 C3076 0.949 . S
C3073 C3074 1.349 . S
C3073 C3075 1.327 . S
C3073 H3096 0.950 . S
C3074 C3073 1.349 . S
C3074 C3086 1.349 . S
C3075 C3073 1.327 . S
C3075 C3091 1.429 . S
C3075 H3097 0.950 . S
C3076 H3072 0.949 . S
C3076 C3084 1.574 . S
C3076 C3092 1.368 . S
H3077 C3085 0.950 . S
H3078 C3083 0.950 . S
H3079 C3084 0.949 . S
H3080 C3086 0.950 . S
H3081 C3087 0.950 . S
H3082 C3088 0.949 . S
C3083 H3078 0.950 . S
C3083 C3085 1.327 . S
C3083 C3089 1.429 . S
C3084 C3076 1.574 . S
C3084 H3079 0.949 . S
C3084 C3090 1.368 . S
C3085 C3069 1.349 . S
C3085 H3077 0.950 . S
C3085 C3083 1.327 . S
C3086 C3074 1.349 . S
C3086 H3080 0.950 . S
C3086 C3087 1.327 . S
C3087 H3081 0.950 . S
C3087 C3086 1.327 . S
C3087 C3091 1.429 . S
C3088 C3071 1.574 . S
C3088 H3082 0.949 . S
C3088 C3092 1.368 . S
C3089 C3070 1.429 . S
C3089 C3083 1.429 . S
C3089 C3090 1.523 . S
C3090 C3071 1.368 . S
C3090 C3084 1.368 . S
C3090 C3089 1.523 . S
C3091 C3075 1.429 . S
C3091 C3087 1.429 . S
C3091 C3092 1.523 . S
C3092 C3076 1.368 . S
C3092 C3088 1.368 . S
C3092 C3091 1.523 . S
H3093 C3068 0.950 . S
H3094 C3070 0.950 . S
H3095 C3071 0.949 . S
H3096 C3073 0.950 . S
H3097 C3075 0.950 . S
C3098 C3099 1.349 . S
C3098 C3100 1.327 . S
C3098 H3123 0.950 . S
C3099 C3098 1.349 . S
C3099 C3115 1.349 . S
C3100 C3098 1.327 . S
C3100 C3119 1.429 . S
C3100 H3124 0.950 . S
C3101 C3118 1.574 . S
C3101 C3120 1.368 . S
C3101 H3125 0.949 . S
H3102 C3106 0.949 . S
C3103 C3104 1.349 . S
C3103 C3105 1.327 . S
C3103 H3126 0.950 . S
C3104 C3103 1.349 . S
C3104 C3116 1.349 . S
C3105 C3103 1.327 . S
C3105 C3121 1.429 . S
C3105 H3127 0.950 . S
C3106 H3102 0.949 . S
C3106 C3114 1.574 . S
C3106 C3122 1.368 . S
H3107 C3115 0.950 . S
H3108 C3113 0.950 . S
H3109 C3114 0.949 . S
H3110 C3116 0.950 . S
H3111 C3117 0.950 . S
H3112 C3118 0.949 . S
C3113 H3108 0.950 . S
C3113 C3115 1.327 . S
C3113 C3119 1.429 . S
C3114 C3106 1.574 . S
C3114 H3109 0.949 . S
C3114 C3120 1.368 . S
C3115 C3099 1.349 . S
C3115 H3107 0.950 . S
C3115 C3113 1.327 . S
C3116 C3104 1.349 . S
C3116 H3110 0.950 . S
C3116 C3117 1.327 . S
C3117 H3111 0.950 . S
C3117 C3116 1.327 . S
C3117 C3121 1.429 . S
C3118 C3101 1.574 . S
C3118 H3112 0.949 . S
C3118 C3122 1.368 . S
C3119 C3100 1.429 . S
C3119 C3113 1.429 . S
C3119 C3120 1.523 . S
C3120 C3101 1.368 . S
C3120 C3114 1.368 . S
C3120 C3119 1.523 . S
C3121 C3105 1.429 . S
C3121 C3117 1.429 . S
C3121 C3122 1.523 . S
C3122 C3106 1.368 . S
C3122 C3118 1.368 . S
C3122 C3121 1.523 . S
H3123 C3098 0.950 . S
H3124 C3100 0.950 . S
H3125 C3101 0.949 . S
H3126 C3103 0.950 . S
H3127 C3105 0.950 . S
C3128 C3129 1.349 . S
C3128 C3130 1.327 . S
C3128 H3153 0.950 . S
C3129 C3128 1.349 . S
C3129 C3145 1.349 . S
C3130 C3128 1.327 . S
C3130 C3149 1.429 . S
C3130 H3154 0.950 . S
C3131 C3148 1.574 . S
C3131 C3150 1.368 . S
C3131 H3155 0.949 . S
H3132 C3136 0.949 . S
C3133 C3134 1.349 . S
C3133 C3135 1.327 . S
C3133 H3156 0.950 . S
C3134 C3133 1.349 . S
C3134 C3146 1.349 . S
C3135 C3133 1.327 . S
C3135 C3151 1.429 . S
C3135 H3157 0.950 . S
C3136 H3132 0.949 . S
C3136 C3144 1.574 . S
C3136 C3152 1.368 . S
H3137 C3145 0.950 . S
H3138 C3143 0.950 . S
H3139 C3144 0.949 . S
H3140 C3146 0.950 . S
H3141 C3147 0.950 . S
H3142 C3148 0.949 . S
C3143 H3138 0.950 . S
C3143 C3145 1.327 . S
C3143 C3149 1.429 . S
C3144 C3136 1.574 . S
C3144 H3139 0.949 . S
C3144 C3150 1.368 . S
C3145 C3129 1.349 . S
C3145 H3137 0.950 . S
C3145 C3143 1.327 . S
C3146 C3134 1.349 . S
C3146 H3140 0.950 . S
C3146 C3147 1.327 . S
C3147 H3141 0.950 . S
C3147 C3146 1.327 . S
C3147 C3151 1.429 . S
C3148 C3131 1.574 . S
C3148 H3142 0.949 . S
C3148 C3152 1.368 . S
C3149 C3130 1.429 . S
C3149 C3143 1.429 . S
C3149 C3150 1.523 . S
C3150 C3131 1.368 . S
C3150 C3144 1.368 . S
C3150 C3149 1.523 . S
C3151 C3135 1.429 . S
C3151 C3147 1.429 . S
C3151 C3152 1.523 . S
C3152 C3136 1.368 . S
C3152 C3148 1.368 . S
C3152 C3151 1.523 . S
H3153 C3128 0.950 . S
H3154 C3130 0.950 . S
H3155 C3131 0.949 . S
H3156 C3133 0.950 . S
H3157 C3135 0.950 . S
C3158 C3159 1.349 . S
C3158 C3160 1.327 . S
C3158 H3183 0.950 . S
C3159 C3158 1.349 . S
C3159 C3175 1.349 . S
C3160 C3158 1.327 . S
C3160 C3179 1.429 . S
C3160 H3184 0.950 . S
C3161 C3178 1.574 . S
C3161 C3180 1.368 . S
C3161 H3185 0.949 . S
H3162 C3166 0.949 . S
C3163 C3164 1.349 . S
C3163 C3165 1.327 . S
C3163 H3186 0.950 . S
C3164 C3163 1.349 . S
C3164 C3176 1.349 . S
C3165 C3163 1.327 . S
C3165 C3181 1.429 . S
C3165 H3187 0.950 . S
C3166 H3162 0.949 . S
C3166 C3174 1.574 . S
C3166 C3182 1.368 . S
H3167 C3175 0.950 . S
H3168 C3173 0.950 . S
H3169 C3174 0.949 . S
H3170 C3176 0.950 . S
H3171 C3177 0.950 . S
H3172 C3178 0.949 . S
C3173 H3168 0.950 . S
C3173 C3175 1.327 . S
C3173 C3179 1.429 . S
C3174 C3166 1.574 . S
C3174 H3169 0.949 . S
C3174 C3180 1.368 . S
C3175 C3159 1.349 . S
C3175 H3167 0.950 . S
C3175 C3173 1.327 . S
C3176 C3164 1.349 . S
C3176 H3170 0.950 . S
C3176 C3177 1.327 . S
C3177 H3171 0.950 . S
C3177 C3176 1.327 . S
C3177 C3181 1.429 . S
C3178 C3161 1.574 . S
C3178 H3172 0.949 . S
C3178 C3182 1.368 . S
C3179 C3160 1.429 . S
C3179 C3173 1.429 . S
C3179 C3180 1.523 . S
C3180 C3161 1.368 . S
C3180 C3174 1.368 . S
C3180 C3179 1.523 . S
C3181 C3165 1.429 . S
C3181 C3177 1.429 . S
C3181 C3182 1.523 . S
C3182 C3166 1.368 . S
C3182 C3178 1.368 . S
C3182 C3181 1.523 . S
H3183 C3158 0.950 . S
H3184 C3160 0.950 . S
H3185 C3161 0.949 . S
H3186 C3163 0.950 . S
H3187 C3165 0.950 . S
C3188 C3189 1.349 . S
C3188 C3190 1.327 . S
C3188 H3213 0.950 . S
C3189 C3188 1.349 . S
C3189 C3205 1.349 . S
C3190 C3188 1.327 . S
C3190 C3209 1.429 . S
C3190 H3214 0.950 . S
C3191 C3208 1.574 . S
C3191 C3210 1.368 . S
C3191 H3215 0.949 . S
H3192 C3196 0.949 . S
C3193 C3194 1.349 . S
C3193 C3195 1.327 . S
C3193 H3216 0.950 . S
C3194 C3193 1.349 . S
C3194 C3206 1.349 . S
C3195 C3193 1.327 . S
C3195 C3211 1.429 . S
C3195 H3217 0.950 . S
C3196 H3192 0.949 . S
C3196 C3204 1.574 . S
C3196 C3212 1.368 . S
H3197 C3205 0.950 . S
H3198 C3203 0.950 . S
H3199 C3204 0.949 . S
H3200 C3206 0.950 . S
H3201 C3207 0.950 . S
H3202 C3208 0.949 . S
C3203 H3198 0.950 . S
C3203 C3205 1.327 . S
C3203 C3209 1.429 . S
C3204 C3196 1.574 . S
C3204 H3199 0.949 . S
C3204 C3210 1.368 . S
C3205 C3189 1.349 . S
C3205 H3197 0.950 . S
C3205 C3203 1.327 . S
C3206 C3194 1.349 . S
C3206 H3200 0.950 . S
C3206 C3207 1.327 . S
C3207 H3201 0.950 . S
C3207 C3206 1.327 . S
C3207 C3211 1.429 . S
C3208 C3191 1.574 . S
C3208 H3202 0.949 . S
C3208 C3212 1.368 . S
C3209 C3190 1.429 . S
C3209 C3203 1.429 . S
C3209 C3210 1.523 . S
C3210 C3191 1.368 . S
C3210 C3204 1.368 . S
C3210 C3209 1.523 . S
C3211 C3195 1.429 . S
C3211 C3207 1.429 . S
C3211 C3212 1.523 . S
C3212 C3196 1.368 . S
C3212 C3208 1.368 . S
C3212 C3211 1.523 . S
H3213 C3188 0.950 . S
H3214 C3190 0.950 . S
H3215 C3191 0.949 . S
H3216 C3193 0.950 . S
H3217 C3195 0.950 . S
C3218 C3219 1.349 . S
C3218 C3220 1.327 . S
C3218 H3243 0.950 . S
C3219 C3218 1.349 . S
C3219 C3235 1.349 . S
C3220 C3218 1.327 . S
C3220 C3239 1.429 . S
C3220 H3244 0.950 . S
C3221 C3238 1.574 . S
C3221 C3240 1.368 . S
C3221 H3245 0.949 . S
H3222 C3226 0.949 . S
C3223 C3224 1.349 . S
C3223 C3225 1.327 . S
C3223 H3246 0.950 . S
C3224 C3223 1.349 . S
C3224 C3236 1.349 . S
C3225 C3223 1.327 . S
C3225 C3241 1.429 . S
C3225 H3247 0.950 . S
C3226 H3222 0.949 . S
C3226 C3234 1.574 . S
C3226 C3242 1.368 . S
H3227 C3235 0.950 . S
H3228 C3233 0.950 . S
H3229 C3234 0.949 . S
H3230 C3236 0.950 . S
H3231 C3237 0.950 . S
H3232 C3238 0.949 . S
C3233 H3228 0.950 . S
C3233 C3235 1.327 . S
C3233 C3239 1.429 . S
C3234 C3226 1.574 . S
C3234 H3229 0.949 . S
C3234 C3240 1.368 . S
C3235 C3219 1.349 . S
C3235 H3227 0.950 . S
C3235 C3233 1.327 . S
C3236 C3224 1.349 . S
C3236 H3230 0.950 . S
C3236 C3237 1.327 . S
C3237 H3231 0.950 . S
C3237 C3236 1.327 . S
C3237 C3241 1.429 . S
C3238 C3221 1.574 . S
C3238 H3232 0.949 . S
C3238 C3242 1.368 . S
C3239 C3220 1.429 . S
C3239 C3233 1.429 . S
C3239 C3240 1.523 . S
C3240 C3221 1.368 . S
C3240 C3234 1.368 . S
C3240 C3239 1.523 . S
C3241 C3225 1.429 . S
C3241 C3237 1.429 . S
C3241 C3242 1.523 . S
C3242 C3226 1.368 . S
C3242 C3238 1.368 . S
C3242 C3241 1.523 . S
H3243 C3218 0.950 . S
H3244 C3220 0.950 . S
H3245 C3221 0.949 . S
H3246 C3223 0.950 . S
H3247 C3225 0.950 . S
C3248 C3249 1.349 . S
C3248 C3250 1.327 . S
C3248 H3273 0.950 . S
C3249 C3248 1.349 . S
C3249 C3265 1.349 . S
C3250 C3248 1.327 . S
C3250 C3269 1.429 . S
C3250 H3274 0.950 . S
C3251 C3268 1.574 . S
C3251 C3270 1.368 . S
C3251 H3275 0.949 . S
H3252 C3256 0.949 . S
C3253 C3254 1.349 . S
C3253 C3255 1.327 . S
C3253 H3276 0.950 . S
C3254 C3253 1.349 . S
C3254 C3266 1.349 . S
C3255 C3253 1.327 . S
C3255 C3271 1.429 . S
C3255 H3277 0.950 . S
C3256 H3252 0.949 . S
C3256 C3264 1.574 . S
C3256 C3272 1.368 . S
H3257 C3265 0.950 . S
H3258 C3263 0.950 . S
H3259 C3264 0.949 . S
H3260 C3266 0.950 . S
H3261 C3267 0.950 . S
H3262 C3268 0.949 . S
C3263 H3258 0.950 . S
C3263 C3265 1.327 . S
C3263 C3269 1.429 . S
C3264 C3256 1.574 . S
C3264 H3259 0.949 . S
C3264 C3270 1.368 . S
C3265 C3249 1.349 . S
C3265 H3257 0.950 . S
C3265 C3263 1.327 . S
C3266 C3254 1.349 . S
C3266 H3260 0.950 . S
C3266 C3267 1.327 . S
C3267 H3261 0.950 . S
C3267 C3266 1.327 . S
C3267 C3271 1.429 . S
C3268 C3251 1.574 . S
C3268 H3262 0.949 . S
C3268 C3272 1.368 . S
C3269 C3250 1.429 . S
C3269 C3263 1.429 . S
C3269 C3270 1.523 . S
C3270 C3251 1.368 . S
C3270 C3264 1.368 . S
C3270 C3269 1.523 . S
C3271 C3255 1.429 . S
C3271 C3267 1.429 . S
C3271 C3272 1.523 . S
C3272 C3256 1.368 . S
C3272 C3268 1.368 . S
C3272 C3271 1.523 . S
H3273 C3248 0.950 . S
H3274 C3250 0.950 . S
H3275 C3251 0.949 . S
H3276 C3253 0.950 . S
H3277 C3255 0.950 . S
C3278 C3279 1.349 . S
C3278 C3280 1.327 . S
C3278 H3303 0.950 . S
C3279 C3278 1.349 . S
C3279 C3295 1.349 . S
C3280 C3278 1.327 . S
C3280 C3299 1.429 . S
C3280 H3304 0.950 . S
C3281 C3298 1.574 . S
C3281 C3300 1.368 . S
C3281 H3305 0.949 . S
H3282 C3286 0.949 . S
C3283 C3284 1.349 . S
C3283 C3285 1.327 . S
C3283 H3306 0.950 . S
C3284 C3283 1.349 . S
C3284 C3296 1.349 . S
C3285 C3283 1.327 . S
C3285 C3301 1.429 . S
C3285 H3307 0.950 . S
C3286 H3282 0.949 . S
C3286 C3294 1.574 . S
C3286 C3302 1.368 . S
H3287 C3295 0.950 . S
H3288 C3293 0.950 . S
H3289 C3294 0.949 . S
H3290 C3296 0.950 . S
H3291 C3297 0.950 . S
H3292 C3298 0.949 . S
C3293 H3288 0.950 . S
C3293 C3295 1.327 . S
C3293 C3299 1.429 . S
C3294 C3286 1.574 . S
C3294 H3289 0.949 . S
C3294 C3300 1.368 . S
C3295 C3279 1.349 . S
C3295 H3287 0.950 . S
C3295 C3293 1.327 . S
C3296 C3284 1.349 . S
C3296 H3290 0.950 . S
C3296 C3297 1.327 . S
C3297 H3291 0.950 . S
C3297 C3296 1.327 . S
C3297 C3301 1.429 . S
C3298 C3281 1.574 . S
C3298 H3292 0.949 . S
C3298 C3302 1.368 . S
C3299 C3280 1.429 . S
C3299 C3293 1.429 . S
C3299 C3300 1.523 . S
C3300 C3281 1.368 . S
C3300 C3294 1.368 . S
C3300 C3299 1.523 . S
C3301 C3285 1.429 . S
C3301 C3297 1.429 . S
C3301 C3302 1.523 . S
C3302 C3286 1.368 . S
C3302 C3298 1.368 . S
C3302 C3301 1.523 . S
H3303 C3278 0.950 . S
H3304 C3280 0.950 . S
H3305 C3281 0.949 . S
H3306 C3283 0.950 . S
H3307 C3285 0.950 . S
C3308 C3309 1.349 . S
C3308 C3310 1.327 . S
C3308 H3333 0.950 . S
C3309 C3308 1.349 . S
C3309 C3325 1.349 . S
C3310 C3308 1.327 . S
C3310 C3329 1.429 . S
C3310 H3334 0.950 . S
C3311 C3328 1.574 . S
C3311 C3330 1.368 . S
C3311 H3335 0.949 . S
H3312 C3316 0.949 . S
C3313 C3314 1.349 . S
C3313 C3315 1.327 . S
C3313 H3336 0.950 . S
C3314 C3313 1.349 . S
C3314 C3326 1.349 . S
C3315 C3313 1.327 . S
C3315 C3331 1.429 . S
C3315 H3337 0.950 . S
C3316 H3312 0.949 . S
C3316 C3324 1.574 . S
C3316 C3332 1.368 . S
H3317 C3325 0.950 . S
H3318 C3323 0.950 . S
H3319 C3324 0.949 . S
H3320 C3326 0.950 . S
H3321 C3327 0.950 . S
H3322 C3328 0.949 . S
C3323 H3318 0.950 . S
C3323 C3325 1.327 . S
C3323 C3329 1.429 . S
C3324 C3316 1.574 . S
C3324 H3319 0.949 . S
C3324 C3330 1.368 . S
C3325 C3309 1.349 . S
C3325 H3317 0.950 . S
C3325 C3323 1.327 . S
C3326 C3314 1.349 . S
C3326 H3320 0.950 . S
C3326 C3327 1.327 . S
C3327 H3321 0.950 . S
C3327 C3326 1.327 . S
C3327 C3331 1.429 . S
C3328 C3311 1.574 . S
C3328 H3322 0.949 . S
C3328 C3332 1.368 . S
C3329 C3310 1.429 . S
C3329 C3323 1.429 . S
C3329 C3330 1.523 . S
C3330 C3311 1.368 . S
C3330 C3324 1.368 . S
C3330 C3329 1.523 . S
C3331 C3315 1.429 . S
C3331 C3327 1.429 . S
C3331 C3332 1.523 . S
C3332 C3316 1.368 . S
C3332 C3328 1.368 . S
C3332 C3331 1.523 . S
H3333 C3308 0.950 . S
H3334 C3310 0.950 . S
H3335 C3311 0.949 . S
H3336 C3313 0.950 . S
H3337 C3315 0.950 . S
C3338 C3339 1.349 . S
C3338 C3340 1.327 . S
C3338 H3363 0.950 . S
C3339 C3338 1.349 . S
C3339 C3355 1.349 . S
C3340 C3338 1.327 . S
C3340 C3359 1.429 . S
C3340 H3364 0.950 . S
C3341 C3358 1.574 . S
C3341 C3360 1.368 . S
C3341 H3365 0.949 . S
H3342 C3346 0.949 . S
C3343 C3344 1.349 . S
C3343 C3345 1.327 . S
C3343 H3366 0.950 . S
C3344 C3343 1.349 . S
C3344 C3356 1.349 . S
C3345 C3343 1.327 . S
C3345 C3361 1.429 . S
C3345 H3367 0.950 . S
C3346 H3342 0.949 . S
C3346 C3354 1.574 . S
C3346 C3362 1.368 . S
H3347 C3355 0.950 . S
H3348 C3353 0.950 . S
H3349 C3354 0.949 . S
H3350 C3356 0.950 . S
H3351 C3357 0.950 . S
H3352 C3358 0.949 . S
C3353 H3348 0.950 . S
C3353 C3355 1.327 . S
C3353 C3359 1.429 . S
C3354 C3346 1.574 . S
C3354 H3349 0.949 . S
C3354 C3360 1.368 . S
C3355 C3339 1.349 . S
C3355 H3347 0.950 . S
C3355 C3353 1.327 . S
C3356 C3344 1.349 . S
C3356 H3350 0.950 . S
C3356 C3357 1.327 . S
C3357 H3351 0.950 . S
C3357 C3356 1.327 . S
C3357 C3361 1.429 . S
C3358 C3341 1.574 . S
C3358 H3352 0.949 . S
C3358 C3362 1.368 . S
C3359 C3340 1.429 . S
C3359 C3353 1.429 . S
C3359 C3360 1.523 . S
C3360 C3341 1.368 . S
C3360 C3354 1.368 . S
C3360 C3359 1.523 . S
C3361 C3345 1.429 . S
C3361 C3357 1.429 . S
C3361 C3362 1.523 . S
C3362 C3346 1.368 . S
C3362 C3358 1.368 . S
C3362 C3361 1.523 . S
H3363 C3338 0.950 . S
H3364 C3340 0.950 . S
H3365 C3341 0.949 . S
H3366 C3343 0.950 . S
H3367 C3345 0.950 . S
C3368 C3369 1.349 . S
C3368 C3370 1.327 . S
C3368 H3393 0.950 . S
C3369 C3368 1.349 . S
C3369 C3385 1.349 . S
C3370 C3368 1.327 . S
C3370 C3389 1.429 . S
C3370 H3394 0.950 . S
C3371 C3388 1.574 . S
C3371 C3390 1.368 . S
C3371 H3395 0.949 . S
H3372 C3376 0.949 . S
C3373 C3374 1.349 . S
C3373 C3375 1.327 . S
C3373 H3396 0.950 . S
C3374 C3373 1.349 . S
C3374 C3386 1.349 . S
C3375 C3373 1.327 . S
C3375 C3391 1.429 . S
C3375 H3397 0.950 . S
C3376 H3372 0.949 . S
C3376 C3384 1.574 . S
C3376 C3392 1.368 . S
H3377 C3385 0.950 . S
H3378 C3383 0.950 . S
H3379 C3384 0.949 . S
H3380 C3386 0.950 . S
H3381 C3387 0.950 . S
H3382 C3388 0.949 . S
C3383 H3378 0.950 . S
C3383 C3385 1.327 . S
C3383 C3389 1.429 . S
C3384 C3376 1.574 . S
C3384 H3379 0.949 . S
C3384 C3390 1.368 . S
C3385 C3369 1.349 . S
C3385 H3377 0.950 . S
C3385 C3383 1.327 . S
C3386 C3374 1.349 . S
C3386 H3380 0.950 . S
C3386 C3387 1.327 . S
C3387 H3381 0.950 . S
C3387 C3386 1.327 . S
C3387 C3391 1.429 . S
C3388 C3371 1.574 . S
C3388 H3382 0.949 . S
C3388 C3392 1.368 . S
C3389 C3370 1.429 . S
C3389 C3383 1.429 . S
C3389 C3390 1.523 . S
C3390 C3371 1.368 . S
C3390 C3384 1.368 . S
C3390 C3389 1.523 . S
C3391 C3375 1.429 . S
C3391 C3387 1.429 . S
C3391 C3392 1.523 . S
C3392 C3376 1.368 . S
C3392 C3388 1.368 . S
C3392 C3391 1.523 . S
H3393 C3368 0.950 . S
H3394 C3370 0.950 . S
H3395 C3371 0.949 . S
H3396 C3373 0.950 . S
H3397 C3375 0.950 . S
C3398 C3399 1.349 . S
C3398 C3400 1.327 . S
C3398 H3423 0.950 . S
C3399 C3398 1.349 . S
C3399 C3415 1.349 . S
C3400 C3398 1.327 . S
C3400 C3419 1.429 . S
C3400 H3424 0.950 . S
C3401 C3418 1.574 . S
C3401 C3420 1.368 . S
C3401 H3425 0.949 . S
H3402 C3406 0.949 . S
C3403 C3404 1.349 . S
C3403 C3405 1.327 . S
C3403 H3426 0.950 . S
C3404 C3403 1.349 . S
C3404 C3416 1.349 . S
C3405 C3403 1.327 . S
C3405 C3421 1.429 . S
C3405 H3427 0.950 . S
C3406 H3402 0.949 . S
C3406 C3414 1.574 . S
C3406 C3422 1.368 . S
H3407 C3415 0.950 . S
H3408 C3413 0.950 . S
H3409 C3414 0.949 . S
H3410 C3416 0.950 . S
H3411 C3417 0.950 . S
H3412 C3418 0.949 . S
C3413 H3408 0.950 . S
C3413 C3415 1.327 . S
C3413 C3419 1.429 . S
C3414 C3406 1.574 . S
C3414 H3409 0.949 . S
C3414 C3420 1.368 . S
C3415 C3399 1.349 . S
C3415 H3407 0.950 . S
C3415 C3413 1.327 . S
C3416 C3404 1.349 . S
C3416 H3410 0.950 . S
C3416 C3417 1.327 . S
C3417 H3411 0.950 . S
C3417 C3416 1.327 . S
C3417 C3421 1.429 . S
C3418 C3401 1.574 . S
C3418 H3412 0.949 . S
C3418 C3422 1.368 . S
C3419 C3400 1.429 . S
C3419 C3413 1.429 . S
C3419 C3420 1.523 . S
C3420 C3401 1.368 . S
C3420 C3414 1.368 . S
C3420 C3419 1.523 . S
C3421 C3405 1.429 . S
C3421 C3417 1.429 . S
C3421 C3422 1.523 . S
C3422 C3406 1.368 . S
C3422 C3418 1.368 . S
C3422 C3421 1.523 . S
H3423 C3398 0.950 . S
H3424 C3400 0.950 . S
H3425 C3401 0.949 . S
H3426 C3403 0.950 . S
H3427 C3405 0.950 . S
C3428 C3429 1.349 . S
C3428 C3430 1.327 . S
C3428 H3453 0.950 . S
C3429 C3428 1.349 . S
C3429 C3445 1.349 . S
C3430 C3428 1.327 . S
C3430 C3449 1.429 . S
C3430 H3454 0.950 . S
C3431 C3448 1.574 . S
C3431 C3450 1.368 . S
C3431 H3455 0.949 . S
H3432 C3436 0.949 . S
C3433 C3434 1.349 . S
C3433 C3435 1.327 . S
C3433 H3456 0.950 . S
C3434 C3433 1.349 . S
C3434 C3446 1.349 . S
C3435 C3433 1.327 . S
C3435 C3451 1.429 . S
C3435 H3457 0.950 . S
C3436 H3432 0.949 . S
C3436 C3444 1.574 . S
C3436 C3452 1.368 . S
H3437 C3445 0.950 . S
H3438 C3443 0.950 . S
H3439 C3444 0.949 . S
H3440 C3446 0.950 . S
H3441 C3447 0.950 . S
H3442 C3448 0.949 . S
C3443 H3438 0.950 . S
C3443 C3445 1.327 . S
C3443 C3449 1.429 . S
C3444 C3436 1.574 . S
C3444 H3439 0.949 . S
C3444 C3450 1.368 . S
C3445 C3429 1.349 . S
C3445 H3437 0.950 . S
C3445 C3443 1.327 . S
C3446 C3434 1.349 . S
C3446 H3440 0.950 . S
C3446 C3447 1.327 . S
C3447 H3441 0.950 . S
C3447 C3446 1.327 . S
C3447 C3451 1.429 . S
C3448 C3431 1.574 . S
C3448 H3442 0.949 . S
C3448 C3452 1.368 . S
C3449 C3430 1.429 . S
C3449 C3443 1.429 . S
C3449 C3450 1.523 . S
C3450 C3431 1.368 . S
C3450 C3444 1.368 . S
C3450 C3449 1.523 . S
C3451 C3435 1.429 . S
C3451 C3447 1.429 . S
C3451 C3452 1.523 . S
C3452 C3436 1.368 . S
C3452 C3448 1.368 . S
C3452 C3451 1.523 . S
H3453 C3428 0.950 . S
H3454 C3430 0.950 . S
H3455 C3431 0.949 . S
H3456 C3433 0.950 . S
H3457 C3435 0.950 . S
C3458 C3459 1.349 . S
C3458 C3460 1.327 . S
C3458 H3483 0.950 . S
C3459 C3458 1.349 . S
C3459 C3475 1.349 . S
C3460 C3458 1.327 . S
C3460 C3479 1.429 . S
C3460 H3484 0.950 . S
C3461 C3478 1.574 . S
C3461 C3480 1.368 . S
C3461 H3485 0.949 . S
H3462 C3466 0.949 . S
C3463 C3464 1.349 . S
C3463 C3465 1.327 . S
C3463 H3486 0.950 . S
C3464 C3463 1.349 . S
C3464 C3476 1.349 . S
C3465 C3463 1.327 . S
C3465 C3481 1.429 . S
C3465 H3487 0.950 . S
C3466 H3462 0.949 . S
C3466 C3474 1.574 . S
C3466 C3482 1.368 . S
H3467 C3475 0.950 . S
H3468 C3473 0.950 . S
H3469 C3474 0.949 . S
H3470 C3476 0.950 . S
H3471 C3477 0.950 . S
H3472 C3478 0.949 . S
C3473 H3468 0.950 . S
C3473 C3475 1.327 . S
C3473 C3479 1.429 . S
C3474 C3466 1.574 . S
C3474 H3469 0.949 . S
C3474 C3480 1.368 . S
C3475 C3459 1.349 . S
C3475 H3467 0.950 . S
C3475 C3473 1.327 . S
C3476 C3464 1.349 . S
C3476 H3470 0.950 . S
C3476 C3477 1.327 . S
C3477 H3471 0.950 . S
C3477 C3476 1.327 . S
C3477 C3481 1.429 . S
C3478 C3461 1.574 . S
C3478 H3472 0.949 . S
C3478 C3482 1.368 . S
C3479 C3460 1.429 . S
C3479 C3473 1.429 . S
C3479 C3480 1.523 . S
C3480 C3461 1.368 . S
C3480 C3474 1.368 . S
C3480 C3479 1.523 . S
C3481 C3465 1.429 . S
C3481 C3477 1.429 . S
C3481 C3482 1.523 . S
C3482 C3466 1.368 . S
C3482 C3478 1.368 . S
C3482 C3481 1.523 . S
H3483 C3458 0.950 . S
H3484 C3460 0.950 . S
H3485 C3461 0.949 . S
H3486 C3463 0.950 . S
H3487 C3465 0.950 . S
C3488 C3489 1.349 . S
C3488 C3490 1.327 . S
C3488 H3513 0.950 . S
C3489 C3488 1.349 . S
C3489 C3505 1.349 . S
C3490 C3488 1.327 . S
C3490 C3509 1.429 . S
C3490 H3514 0.950 . S
C3491 C3508 1.574 . S
C3491 C3510 1.368 . S
C3491 H3515 0.949 . S
H3492 C3496 0.949 . S
C3493 C3494 1.349 . S
C3493 C3495 1.327 . S
C3493 H3516 0.950 . S
C3494 C3493 1.349 . S
C3494 C3506 1.349 . S
C3495 C3493 1.327 . S
C3495 C3511 1.429 . S
C3495 H3517 0.950 . S
C3496 H3492 0.949 . S
C3496 C3504 1.574 . S
C3496 C3512 1.368 . S
H3497 C3505 0.950 . S
H3498 C3503 0.950 . S
H3499 C3504 0.949 . S
H3500 C3506 0.950 . S
H3501 C3507 0.950 . S
H3502 C3508 0.949 . S
C3503 H3498 0.950 . S
C3503 C3505 1.327 . S
C3503 C3509 1.429 . S
C3504 C3496 1.574 . S
C3504 H3499 0.949 . S
C3504 C3510 1.368 . S
C3505 C3489 1.349 . S
C3505 H3497 0.950 . S
C3505 C3503 1.327 . S
C3506 C3494 1.349 . S
C3506 H3500 0.950 . S
C3506 C3507 1.327 . S
C3507 H3501 0.950 . S
C3507 C3506 1.327 . S
C3507 C3511 1.429 . S
C3508 C3491 1.574 . S
C3508 H3502 0.949 . S
C3508 C3512 1.368 . S
C3509 C3490 1.429 . S
C3509 C3503 1.429 . S
C3509 C3510 1.523 . S
C3510 C3491 1.368 . S
C3510 C3504 1.368 . S
C3510 C3509 1.523 . S
C3511 C3495 1.429 . S
C3511 C3507 1.429 . S
C3511 C3512 1.523 . S
C3512 C3496 1.368 . S
C3512 C3508 1.368 . S
C3512 C3511 1.523 . S
H3513 C3488 0.950 . S
H3514 C3490 0.950 . S
H3515 C3491 0.949 . S
H3516 C3493 0.950 . S
H3517 C3495 0.950 . S
C3518 C3519 1.349 . S
C3518 C3520 1.327 . S
C3518 H3543 0.950 . S
C3519 C3518 1.349 . S
C3519 C3535 1.349 . S
C3520 C3518 1.327 . S
C3520 C3539 1.429 . S
C3520 H3544 0.950 . S
C3521 C3538 1.574 . S
C3521 C3540 1.368 . S
C3521 H3545 0.949 . S
H3522 C3526 0.949 . S
C3523 C3524 1.349 . S
C3523 C3525 1.327 . S
C3523 H3546 0.950 . S
C3524 C3523 1.349 . S
C3524 C3536 1.349 . S
C3525 C3523 1.327 . S
C3525 C3541 1.429 . S
C3525 H3547 0.950 . S
C3526 H3522 0.949 . S
C3526 C3534 1.574 . S
C3526 C3542 1.368 . S
H3527 C3535 0.950 . S
H3528 C3533 0.950 . S
H3529 C3534 0.949 . S
H3530 C3536 0.950 . S
H3531 C3537 0.950 . S
H3532 C3538 0.949 . S
C3533 H3528 0.950 . S
C3533 C3535 1.327 . S
C3533 C3539 1.429 . S
C3534 C3526 1.574 . S
C3534 H3529 0.949 . S
C3534 C3540 1.368 . S
C3535 C3519 1.349 . S
C3535 H3527 0.950 . S
C3535 C3533 1.327 . S
C3536 C3524 1.349 . S
C3536 H3530 0.950 . S
C3536 C3537 1.327 . S
C3537 H3531 0.950 . S
C3537 C3536 1.327 . S
C3537 C3541 1.429 . S
C3538 C3521 1.574 . S
C3538 H3532 0.949 . S
C3538 C3542 1.368 . S
C3539 C3520 1.429 . S
C3539 C3533 1.429 . S
C3539 C3540 1.523 . S
C3540 C3521 1.368 . S
C3540 C3534 1.368 . S
C3540 C3539 1.523 . S
C3541 C3525 1.429 . S
C3541 C3537 1.429 . S
C3541 C3542 1.523 . S
C3542 C3526 1.368 . S
C3542 C3538 1.368 . S
C3542 C3541 1.523 . S
H3543 C3518 0.950 . S
H3544 C3520 0.950 . S
H3545 C3521 0.949 . S
H3546 C3523 0.950 . S
H3547 C3525 0.950 . S
C3548 C3549 1.349 . S
C3548 C3550 1.327 . S
C3548 H3573 0.950 . S
C3549 C3548 1.349 . S
C3549 C3565 1.349 . S
C3550 C3548 1.327 . S
C3550 C3569 1.429 . S
C3550 H3574 0.950 . S
C3551 C3568 1.574 . S
C3551 C3570 1.368 . S
C3551 H3575 0.949 . S
H3552 C3556 0.949 . S
C3553 C3554 1.349 . S
C3553 C3555 1.327 . S
C3553 H3576 0.950 . S
C3554 C3553 1.349 . S
C3554 C3566 1.349 . S
C3555 C3553 1.327 . S
C3555 C3571 1.429 . S
C3555 H3577 0.950 . S
C3556 H3552 0.949 . S
C3556 C3564 1.574 . S
C3556 C3572 1.368 . S
H3557 C3565 0.950 . S
H3558 C3563 0.950 . S
H3559 C3564 0.949 . S
H3560 C3566 0.950 . S
H3561 C3567 0.950 . S
H3562 C3568 0.949 . S
C3563 H3558 0.950 . S
C3563 C3565 1.327 . S
C3563 C3569 1.429 . S
C3564 C3556 1.574 . S
C3564 H3559 0.949 . S
C3564 C3570 1.368 . S
C3565 C3549 1.349 . S
C3565 H3557 0.950 . S
C3565 C3563 1.327 . S
C3566 C3554 1.349 . S
C3566 H3560 0.950 . S
C3566 C3567 1.327 . S
C3567 H3561 0.950 . S
C3567 C3566 1.327 . S
C3567 C3571 1.429 . S
C3568 C3551 1.574 . S
C3568 H3562 0.949 . S
C3568 C3572 1.368 . S
C3569 C3550 1.429 . S
C3569 C3563 1.429 . S
C3569 C3570 1.523 . S
C3570 C3551 1.368 . S
C3570 C3564 1.368 . S
C3570 C3569 1.523 . S
C3571 C3555 1.429 . S
C3571 C3567 1.429 . S
C3571 C3572 1.523 . S
C3572 C3556 1.368 . S
C3572 C3568 1.368 . S
C3572 C3571 1.523 . S
H3573 C3548 0.950 . S
H3574 C3550 0.950 . S
H3575 C3551 0.949 . S
H3576 C3553 0.950 . S
H3577 C3555 0.950 . S
C3578 C3579 1.349 . S
C3578 C3580 1.327 . S
C3578 H3603 0.950 . S
C3579 C3578 1.349 . S
C3579 C3595 1.349 . S
C3580 C3578 1.327 . S
C3580 C3599 1.429 . S
C3580 H3604 0.950 . S
C3581 C3598 1.574 . S
C3581 C3600 1.368 . S
C3581 H3605 0.949 . S
H3582 C3586 0.949 . S
C3583 C3584 1.349 . S
C3583 C3585 1.327 . S
C3583 H3606 0.950 . S
C3584 C3583 1.349 . S
C3584 C3596 1.349 . S
C3585 C3583 1.327 . S
C3585 C3601 1.429 . S
C3585 H3607 0.950 . S
C3586 H3582 0.949 . S
C3586 C3594 1.574 . S
C3586 C3602 1.368 . S
H3587 C3595 0.950 . S
H3588 C3593 0.950 . S
H3589 C3594 0.949 . S
H3590 C3596 0.950 . S
H3591 C3597 0.950 . S
H3592 C3598 0.949 . S
C3593 H3588 0.950 . S
C3593 C3595 1.327 . S
C3593 C3599 1.429 . S
C3594 C3586 1.574 . S
C3594 H3589 0.949 . S
C3594 C3600 1.368 . S
C3595 C3579 1.349 . S
C3595 H3587 0.950 . S
C3595 C3593 1.327 . S
C3596 C3584 1.349 . S
C3596 H3590 0.950 . S
C3596 C3597 1.327 . S
C3597 H3591 0.950 . S
C3597 C3596 1.327 . S
C3597 C3601 1.429 . S
C3598 C3581 1.574 . S
C3598 H3592 0.949 . S
C3598 C3602 1.368 . S
C3599 C3580 1.429 . S
C3599 C3593 1.429 . S
C3599 C3600 1.523 . S
C3600 C3581 1.368 . S
C3600 C3594 1.368 . S
C3600 C3599 1.523 . S
C3601 C3585 1.429 . S
C3601 C3597 1.429 . S
C3601 C3602 1.523 . S
C3602 C3586 1.368 . S
C3602 C3598 1.368 . S
C3602 C3601 1.523 . S
H3603 C3578 0.950 . S
H3604 C3580 0.950 . S
H3605 C3581 0.949 . S
H3606 C3583 0.950 . S
H3607 C3585 0.950 . S
C3608 C3609 1.349 . S
C3608 C3610 1.327 . S
C3608 H3633 0.950 . S
C3609 C3608 1.349 . S
C3609 C3625 1.349 . S
C3610 C3608 1.327 . S
C3610 C3629 1.429 . S
C3610 H3634 0.950 . S
C3611 C3628 1.574 . S
C3611 C3630 1.368 . S
C3611 H3635 0.949 . S
H3612 C3616 0.949 . S
C3613 C3614 1.349 . S
C3613 C3615 1.327 . S
C3613 H3636 0.950 . S
C3614 C3613 1.349 . S
C3614 C3626 1.349 . S
C3615 C3613 1.327 . S
C3615 C3631 1.429 . S
C3615 H3637 0.950 . S
C3616 H3612 0.949 . S
C3616 C3624 1.574 . S
C3616 C3632 1.368 . S
H3617 C3625 0.950 . S
H3618 C3623 0.950 . S
H3619 C3624 0.949 . S
H3620 C3626 0.950 . S
H3621 C3627 0.950 . S
H3622 C3628 0.949 . S
C3623 H3618 0.950 . S
C3623 C3625 1.327 . S
C3623 C3629 1.429 . S
C3624 C3616 1.574 . S
C3624 H3619 0.949 . S
C3624 C3630 1.368 . S
C3625 C3609 1.349 . S
C3625 H3617 0.950 . S
C3625 C3623 1.327 . S
C3626 C3614 1.349 . S
C3626 H3620 0.950 . S
C3626 C3627 1.327 . S
C3627 H3621 0.950 . S
C3627 C3626 1.327 . S
C3627 C3631 1.429 . S
C3628 C3611 1.574 . S
C3628 H3622 0.949 . S
C3628 C3632 1.368 . S
C3629 C3610 1.429 . S
C3629 C3623 1.429 . S
C3629 C3630 1.523 . S
C3630 C3611 1.368 . S
C3630 C3624 1.368 . S
C3630 C3629 1.523 . S
C3631 C3615 1.429 . S
C3631 C3627 1.429 . S
C3631 C3632 1.523 . S
C3632 C3616 1.368 . S
C3632 C3628 1.368 . S
C3632 C3631 1.523 . S
H3633 C3608 0.950 . S
H3634 C3610 0.950 . S
H3635 C3611 0.949 . S
H3636 C3613 0.950 . S
H3637 C3615 0.950 . S
C3638 C3639 1.349 . S
C3638 C3640 1.327 . S
C3638 H3663 0.950 . S
C3639 C3638 1.349 . S
C3639 C3655 1.349 . S
C3640 C3638 1.327 . S
C3640 C3659 1.429 . S
C3640 H3664 0.950 . S
C3641 C3658 1.574 . S
C3641 C3660 1.368 . S
C3641 H3665 0.949 . S
H3642 C3646 0.949 . S
C3643 C3644 1.349 . S
C3643 C3645 1.327 . S
C3643 H3666 0.950 . S
C3644 C3643 1.349 . S
C3644 C3656 1.349 . S
C3645 C3643 1.327 . S
C3645 C3661 1.429 . S
C3645 H3667 0.950 . S
C3646 H3642 0.949 . S
C3646 C3654 1.574 . S
C3646 C3662 1.368 . S
H3647 C3655 0.950 . S
H3648 C3653 0.950 . S
H3649 C3654 0.949 . S
H3650 C3656 0.950 . S
H3651 C3657 0.950 . S
H3652 C3658 0.949 . S
C3653 H3648 0.950 . S
C3653 C3655 1.327 . S
C3653 C3659 1.429 . S
C3654 C3646 1.574 . S
C3654 H3649 0.949 . S
C3654 C3660 1.368 . S
C3655 C3639 1.349 . S
C3655 H3647 0.950 . S
C3655 C3653 1.327 . S
C3656 C3644 1.349 . S
C3656 H3650 0.950 . S
C3656 C3657 1.327 . S
C3657 H3651 0.950 . S
C3657 C3656 1.327 . S
C3657 C3661 1.429 . S
C3658 C3641 1.574 . S
C3658 H3652 0.949 . S
C3658 C3662 1.368 . S
C3659 C3640 1.429 . S
C3659 C3653 1.429 . S
C3659 C3660 1.523 . S
C3660 C3641 1.368 . S
C3660 C3654 1.368 . S
C3660 C3659 1.523 . S
C3661 C3645 1.429 . S
C3661 C3657 1.429 . S
C3661 C3662 1.523 . S
C3662 C3646 1.368 . S
C3662 C3658 1.368 . S
C3662 C3661 1.523 . S
H3663 C3638 0.950 . S
H3664 C3640 0.950 . S
H3665 C3641 0.949 . S
H3666 C3643 0.950 . S
H3667 C3645 0.950 . S
C3668 C3669 1.349 . S
C3668 C3670 1.327 . S
C3668 H3693 0.950 . S
C3669 C3668 1.349 . S
C3669 C3685 1.349 . S
C3670 C3668 1.327 . S
C3670 C3689 1.429 . S
C3670 H3694 0.950 . S
C3671 C3688 1.574 . S
C3671 C3690 1.368 . S
C3671 H3695 0.949 . S
H3672 C3676 0.949 . S
C3673 C3674 1.349 . S
C3673 C3675 1.327 . S
C3673 H3696 0.950 . S
C3674 C3673 1.349 . S
C3674 C3686 1.349 . S
C3675 C3673 1.327 . S
C3675 C3691 1.429 . S
C3675 H3697 0.950 . S
C3676 H3672 0.949 . S
C3676 C3684 1.574 . S
C3676 C3692 1.368 . S
H3677 C3685 0.950 . S
H3678 C3683 0.950 . S
H3679 C3684 0.949 . S
H3680 C3686 0.950 . S
H3681 C3687 0.950 . S
H3682 C3688 0.949 . S
C3683 H3678 0.950 . S
C3683 C3685 1.327 . S
C3683 C3689 1.429 . S
C3684 C3676 1.574 . S
C3684 H3679 0.949 . S
C3684 C3690 1.368 . S
C3685 C3669 1.349 . S
C3685 H3677 0.950 . S
C3685 C3683 1.327 . S
C3686 C3674 1.349 . S
C3686 H3680 0.950 . S
C3686 C3687 1.327 . S
C3687 H3681 0.950 . S
C3687 C3686 1.327 . S
C3687 C3691 1.429 . S
C3688 C3671 1.574 . S
C3688 H3682 0.949 . S
C3688 C3692 1.368 . S
C3689 C3670 1.429 . S
C3689 C3683 1.429 . S
C3689 C3690 1.523 . S
C3690 C3671 1.368 . S
C3690 C3684 1.368 . S
C3690 C3689 1.523 . S
C3691 C3675 1.429 . S
C3691 C3687 1.429 . S
C3691 C3692 1.523 . S
C3692 C3676 1.368 . S
C3692 C3688 1.368 . S
C3692 C3691 1.523 . S
H3693 C3668 0.950 . S
H3694 C3670 0.950 . S
H3695 C3671 0.949 . S
H3696 C3673 0.950 . S
H3697 C3675 0.950 . S
C3698 C3699 1.349 . S
C3698 C3700 1.327 . S
C3698 H3723 0.950 . S
C3699 C3698 1.349 . S
C3699 C3715 1.349 . S
C3700 C3698 1.327 . S
C3700 C3719 1.429 . S
C3700 H3724 0.950 . S
C3701 C3718 1.574 . S
C3701 C3720 1.368 . S
C3701 H3725 0.949 . S
H3702 C3706 0.949 . S
C3703 C3704 1.349 . S
C3703 C3705 1.327 . S
C3703 H3726 0.950 . S
C3704 C3703 1.349 . S
C3704 C3716 1.349 . S
C3705 C3703 1.327 . S
C3705 C3721 1.429 . S
C3705 H3727 0.950 . S
C3706 H3702 0.949 . S
C3706 C3714 1.574 . S
C3706 C3722 1.368 . S
H3707 C3715 0.950 . S
H3708 C3713 0.950 . S
H3709 C3714 0.949 . S
H3710 C3716 0.950 . S
H3711 C3717 0.950 . S
H3712 C3718 0.949 . S
C3713 H3708 0.950 . S
C3713 C3715 1.327 . S
C3713 C3719 1.429 . S
C3714 C3706 1.574 . S
C3714 H3709 0.949 . S
C3714 C3720 1.368 . S
C3715 C3699 1.349 . S
C3715 H3707 0.950 . S
C3715 C3713 1.327 . S
C3716 C3704 1.349 . S
C3716 H3710 0.950 . S
C3716 C3717 1.327 . S
C3717 H3711 0.950 . S
C3717 C3716 1.327 . S
C3717 C3721 1.429 . S
C3718 C3701 1.574 . S
C3718 H3712 0.949 . S
C3718 C3722 1.368 . S
C3719 C3700 1.429 . S
C3719 C3713 1.429 . S
C3719 C3720 1.523 . S
C3720 C3701 1.368 . S
C3720 C3714 1.368 . S
C3720 C3719 1.523 . S
C3721 C3705 1.429 . S
C3721 C3717 1.429 . S
C3721 C3722 1.523 . S
C3722 C3706 1.368 . S
C3722 C3718 1.368 . S
C3722 C3721 1.523 . S
H3723 C3698 0.950 . S
H3724 C3700 0.950 . S
H3725 C3701 0.949 . S
H3726 C3703 0.950 . S
H3727 C3705 0.950 . S
C3728 C3729 1.349 . S
C3728 C3730 1.327 . S
C3728 H3753 0.950 . S
C3729 C3728 1.349 . S
C3729 C3745 1.349 . S
C3730 C3728 1.327 . S
C3730 C3749 1.429 . S
C3730 H3754 0.950 . S
C3731 C3748 1.574 . S
C3731 C3750 1.368 . S
C3731 H3755 0.949 . S
H3732 C3736 0.949 . S
C3733 C3734 1.349 . S
C3733 C3735 1.327 . S
C3733 H3756 0.950 . S
C3734 C3733 1.349 . S
C3734 C3746 1.349 . S
C3735 C3733 1.327 . S
C3735 C3751 1.429 . S
C3735 H3757 0.950 . S
C3736 H3732 0.949 . S
C3736 C3744 1.574 . S
C3736 C3752 1.368 . S
H3737 C3745 0.950 . S
H3738 C3743 0.950 . S
H3739 C3744 0.949 . S
H3740 C3746 0.950 . S
H3741 C3747 0.950 . S
H3742 C3748 0.949 . S
C3743 H3738 0.950 . S
C3743 C3745 1.327 . S
C3743 C3749 1.429 . S
C3744 C3736 1.574 . S
C3744 H3739 0.949 . S
C3744 C3750 1.368 . S
C3745 C3729 1.349 . S
C3745 H3737 0.950 . S
C3745 C3743 1.327 . S
C3746 C3734 1.349 . S
C3746 H3740 0.950 . S
C3746 C3747 1.327 . S
C3747 H3741 0.950 . S
C3747 C3746 1.327 . S
C3747 C3751 1.429 . S
C3748 C3731 1.574 . S
C3748 H3742 0.949 . S
C3748 C3752 1.368 . S
C3749 C3730 1.429 . S
C3749 C3743 1.429 . S
C3749 C3750 1.523 . S
C3750 C3731 1.368 . S
C3750 C3744 1.368 . S
C3750 C3749 1.523 . S
C3751 C3735 1.429 . S
C3751 C3747 1.429 . S
C3751 C3752 1.523 . S
C3752 C3736 1.368 . S
C3752 C3748 1.368 . S
C3752 C3751 1.523 . S
H3753 C3728 0.950 . S
H3754 C3730 0.950 . S
H3755 C3731 0.949 . S
H3756 C3733 0.950 . S
H3757 C3735 0.950 . S
C3758 C3759 1.349 . S
C3758 C3760 1.327 . S
C3758 H3783 0.950 . S
C3759 C3758 1.349 . S
C3759 C3775 1.349 . S
C3760 C3758 1.327 . S
C3760 C3779 1.429 . S
C3760 H3784 0.950 . S
C3761 C3778 1.574 . S
C3761 C3780 1.368 . S
C3761 H3785 0.949 . S
H3762 C3766 0.949 . S
C3763 C3764 1.349 . S
C3763 C3765 1.327 . S
C3763 H3786 0.950 . S
C3764 C3763 1.349 . S
C3764 C3776 1.349 . S
C3765 C3763 1.327 . S
C3765 C3781 1.429 . S
C3765 H3787 0.950 . S
C3766 H3762 0.949 . S
C3766 C3774 1.574 . S
C3766 C3782 1.368 . S
H3767 C3775 0.950 . S
H3768 C3773 0.950 . S
H3769 C3774 0.949 . S
H3770 C3776 0.950 . S
H3771 C3777 0.950 . S
H3772 C3778 0.949 . S
C3773 H3768 0.950 . S
C3773 C3775 1.327 . S
C3773 C3779 1.429 . S
C3774 C3766 1.574 . S
C3774 H3769 0.949 . S
C3774 C3780 1.368 . S
C3775 C3759 1.349 . S
C3775 H3767 0.950 . S
C3775 C3773 1.327 . S
C3776 C3764 1.349 . S
C3776 H3770 0.950 . S
C3776 C3777 1.327 . S
C3777 H3771 0.950 . S
C3777 C3776 1.327 . S
C3777 C3781 1.429 . S
C3778 C3761 1.574 . S
C3778 H3772 0.949 . S
C3778 C3782 1.368 . S
C3779 C3760 1.429 . S
C3779 C3773 1.429 . S
C3779 C3780 1.523 . S
C3780 C3761 1.368 . S
C3780 C3774 1.368 . S
C3780 C3779 1.523 . S
C3781 C3765 1.429 . S
C3781 C3777 1.429 . S
C3781 C3782 1.523 . S
C3782 C3766 1.368 . S
C3782 C3778 1.368 . S
C3782 C3781 1.523 . S
H3783 C3758 0.950 . S
H3784 C3760 0.950 . S
H3785 C3761 0.949 . S
H3786 C3763 0.950 . S
H3787 C3765 0.950 . S
C3788 C3789 1.349 . S
C3788 C3790 1.327 . S
C3788 H3813 0.950 . S
C3789 C3788 1.349 . S
C3789 C3805 1.349 . S
C3790 C3788 1.327 . S
C3790 C3809 1.429 . S
C3790 H3814 0.950 . S
C3791 C3808 1.574 . S
C3791 C3810 1.368 . S
C3791 H3815 0.949 . S
H3792 C3796 0.949 . S
C3793 C3794 1.349 . S
C3793 C3795 1.327 . S
C3793 H3816 0.950 . S
C3794 C3793 1.349 . S
C3794 C3806 1.349 . S
C3795 C3793 1.327 . S
C3795 C3811 1.429 . S
C3795 H3817 0.950 . S
C3796 H3792 0.949 . S
C3796 C3804 1.574 . S
C3796 C3812 1.368 . S
H3797 C3805 0.950 . S
H3798 C3803 0.950 . S
H3799 C3804 0.949 . S
H3800 C3806 0.950 . S
H3801 C3807 0.950 . S
H3802 C3808 0.949 . S
C3803 H3798 0.950 . S
C3803 C3805 1.327 . S
C3803 C3809 1.429 . S
C3804 C3796 1.574 . S
C3804 H3799 0.949 . S
C3804 C3810 1.368 . S
C3805 C3789 1.349 . S
C3805 H3797 0.950 . S
C3805 C3803 1.327 . S
C3806 C3794 1.349 . S
C3806 H3800 0.950 . S
C3806 C3807 1.327 . S
C3807 H3801 0.950 . S
C3807 C3806 1.327 . S
C3807 C3811 1.429 . S
C3808 C3791 1.574 . S
C3808 H3802 0.949 . S
C3808 C3812 1.368 . S
C3809 C3790 1.429 . S
C3809 C3803 1.429 . S
C3809 C3810 1.523 . S
C3810 C3791 1.368 . S
C3810 C3804 1.368 . S
C3810 C3809 1.523 . S
C3811 C3795 1.429 . S
C3811 C3807 1.429 . S
C3811 C3812 1.523 . S
C3812 C3796 1.368 . S
C3812 C3808 1.368 . S
C3812 C3811 1.523 . S
H3813 C3788 0.950 . S
H3814 C3790 0.950 . S
H3815 C3791 0.949 . S
H3816 C3793 0.950 . S
H3817 C3795 0.950 . S
C3818 C3819 1.349 . S
C3818 C3820 1.327 . S
C3818 H3843 0.950 . S
C3819 C3818 1.349 . S
C3819 C3835 1.349 . S
C3820 C3818 1.327 . S
C3820 C3839 1.429 . S
C3820 H3844 0.950 . S
C3821 C3838 1.574 . S
C3821 C3840 1.368 . S
C3821 H3845 0.949 . S
H3822 C3826 0.949 . S
C3823 C3824 1.349 . S
C3823 C3825 1.327 . S
C3823 H3846 0.950 . S
C3824 C3823 1.349 . S
C3824 C3836 1.349 . S
C3825 C3823 1.327 . S
C3825 C3841 1.429 . S
C3825 H3847 0.950 . S
C3826 H3822 0.949 . S
C3826 C3834 1.574 . S
C3826 C3842 1.368 . S
H3827 C3835 0.950 . S
H3828 C3833 0.950 . S
H3829 C3834 0.949 . S
H3830 C3836 0.950 . S
H3831 C3837 0.950 . S
H3832 C3838 0.949 . S
C3833 H3828 0.950 . S
C3833 C3835 1.327 . S
C3833 C3839 1.429 . S
C3834 C3826 1.574 . S
C3834 H3829 0.949 . S
C3834 C3840 1.368 . S
C3835 C3819 1.349 . S
C3835 H3827 0.950 . S
C3835 C3833 1.327 . S
C3836 C3824 1.349 . S
C3836 H3830 0.950 . S
C3836 C3837 1.327 . S
C3837 H3831 0.950 . S
C3837 C3836 1.327 . S
C3837 C3841 1.429 . S
C3838 C3821 1.574 . S
C3838 H3832 0.949 . S
C3838 C3842 1.368 . S
C3839 C3820 1.429 . S
C3839 C3833 1.429 . S
C3839 C3840 1.523 . S
C3840 C3821 1.368 . S
C3840 C3834 1.368 . S
C3840 C3839 1.523 . S
C3841 C3825 1.429 . S
C3841 C3837 1.429 . S
C3841 C3842 1.523 . S
C3842 C3826 1.368 . S
C3842 C3838 1.368 . S
C3842 C3841 1.523 . S
H3843 C3818 0.950 . S
H3844 C3820 0.950 . S
H3845 C3821 0.949 . S
H3846 C3823 0.950 . S
H3847 C3825 0.950 . S
C3848 C3849 1.349 . S
C3848 C3850 1.327 . S
C3848 H3873 0.950 . S
C3849 C3848 1.349 . S
C3849 C3865 1.349 . S
C3850 C3848 1.327 . S
C3850 C3869 1.429 . S
C3850 H3874 0.950 . S
C3851 C3868 1.574 . S
C3851 C3870 1.368 . S
C3851 H3875 0.949 . S
H3852 C3856 0.949 . S
C3853 C3854 1.349 . S
C3853 C3855 1.327 . S
C3853 H3876 0.950 . S
C3854 C3853 1.349 . S
C3854 C3866 1.349 . S
C3855 C3853 1.327 . S
C3855 C3871 1.429 . S
C3855 H3877 0.950 . S
C3856 H3852 0.949 . S
C3856 C3864 1.574 . S
C3856 C3872 1.368 . S
H3857 C3865 0.950 . S
H3858 C3863 0.950 . S
H3859 C3864 0.949 . S
H3860 C3866 0.950 . S
H3861 C3867 0.950 . S
H3862 C3868 0.949 . S
C3863 H3858 0.950 . S
C3863 C3865 1.327 . S
C3863 C3869 1.429 . S
C3864 C3856 1.574 . S
C3864 H3859 0.949 . S
C3864 C3870 1.368 . S
C3865 C3849 1.349 . S
C3865 H3857 0.950 . S
C3865 C3863 1.327 . S
C3866 C3854 1.349 . S
C3866 H3860 0.950 . S
C3866 C3867 1.327 . S
C3867 H3861 0.950 . S
C3867 C3866 1.327 . S
C3867 C3871 1.429 . S
C3868 C3851 1.574 . S
C3868 H3862 0.949 . S
C3868 C3872 1.368 . S
C3869 C3850 1.429 . S
C3869 C3863 1.429 . S
C3869 C3870 1.523 . S
C3870 C3851 1.368 . S
C3870 C3864 1.368 . S
C3870 C3869 1.523 . S
C3871 C3855 1.429 . S
C3871 C3867 1.429 . S
C3871 C3872 1.523 . S
C3872 C3856 1.368 . S
C3872 C3868 1.368 . S
C3872 C3871 1.523 . S
H3873 C3848 0.950 . S
H3874 C3850 0.950 . S
H3875 C3851 0.949 . S
H3876 C3853 0.950 . S
H3877 C3855 0.950 . S
C3878 C3879 1.349 . S
C3878 C3880 1.327 . S
C3878 H3903 0.950 . S
C3879 C3878 1.349 . S
C3879 C3895 1.349 . S
C3880 C3878 1.327 . S
C3880 C3899 1.429 . S
C3880 H3904 0.950 . S
C3881 C3898 1.574 . S
C3881 C3900 1.368 . S
C3881 H3905 0.949 . S
H3882 C3886 0.949 . S
C3883 C3884 1.349 . S
C3883 C3885 1.327 . S
C3883 H3906 0.950 . S
C3884 C3883 1.349 . S
C3884 C3896 1.349 . S
C3885 C3883 1.327 . S
C3885 C3901 1.429 . S
C3885 H3907 0.950 . S
C3886 H3882 0.949 . S
C3886 C3894 1.574 . S
C3886 C3902 1.368 . S
H3887 C3895 0.950 . S
H3888 C3893 0.950 . S
H3889 C3894 0.949 . S
H3890 C3896 0.950 . S
H3891 C3897 0.950 . S
H3892 C3898 0.949 . S
C3893 H3888 0.950 . S
C3893 C3895 1.327 . S
C3893 C3899 1.429 . S
C3894 C3886 1.574 . S
C3894 H3889 0.949 . S
C3894 C3900 1.368 . S
C3895 C3879 1.349 . S
C3895 H3887 0.950 . S
C3895 C3893 1.327 . S
C3896 C3884 1.349 . S
C3896 H3890 0.950 . S
C3896 C3897 1.327 . S
C3897 H3891 0.950 . S
C3897 C3896 1.327 . S
C3897 C3901 1.429 . S
C3898 C3881 1.574 . S
C3898 H3892 0.949 . S
C3898 C3902 1.368 . S
C3899 C3880 1.429 . S
C3899 C3893 1.429 . S
C3899 C3900 1.523 . S
C3900 C3881 1.368 . S
C3900 C3894 1.368 . S
C3900 C3899 1.523 . S
C3901 C3885 1.429 . S
C3901 C3897 1.429 . S
C3901 C3902 1.523 . S
C3902 C3886 1.368 . S
C3902 C3898 1.368 . S
C3902 C3901 1.523 . S
H3903 C3878 0.950 . S
H3904 C3880 0.950 . S
H3905 C3881 0.949 . S
H3906 C3883 0.950 . S
H3907 C3885 0.950 . S
C3908 C3909 1.349 . S
C3908 C3910 1.327 . S
C3908 H3933 0.950 . S
C3909 C3908 1.349 . S
C3909 C3925 1.349 . S
C3910 C3908 1.327 . S
C3910 C3929 1.429 . S
C3910 H3934 0.950 . S
C3911 C3928 1.574 . S
C3911 C3930 1.368 . S
C3911 H3935 0.949 . S
H3912 C3916 0.949 . S
C3913 C3914 1.349 . S
C3913 C3915 1.327 . S
C3913 H3936 0.950 . S
C3914 C3913 1.349 . S
C3914 C3926 1.349 . S
C3915 C3913 1.327 . S
C3915 C3931 1.429 . S
C3915 H3937 0.950 . S
C3916 H3912 0.949 . S
C3916 C3924 1.574 . S
C3916 C3932 1.368 . S
H3917 C3925 0.950 . S
H3918 C3923 0.950 . S
H3919 C3924 0.949 . S
H3920 C3926 0.950 . S
H3921 C3927 0.950 . S
H3922 C3928 0.949 . S
C3923 H3918 0.950 . S
C3923 C3925 1.327 . S
C3923 C3929 1.429 . S
C3924 C3916 1.574 . S
C3924 H3919 0.949 . S
C3924 C3930 1.368 . S
C3925 C3909 1.349 . S
C3925 H3917 0.950 . S
C3925 C3923 1.327 . S
C3926 C3914 1.349 . S
C3926 H3920 0.950 . S
C3926 C3927 1.327 . S
C3927 H3921 0.950 . S
C3927 C3926 1.327 . S
C3927 C3931 1.429 . S
C3928 C3911 1.574 . S
C3928 H3922 0.949 . S
C3928 C3932 1.368 . S
C3929 C3910 1.429 . S
C3929 C3923 1.429 . S
C3929 C3930 1.523 . S
C3930 C3911 1.368 . S
C3930 C3924 1.368 . S
C3930 C3929 1.523 . S
C3931 C3915 1.429 . S
C3931 C3927 1.429 . S
C3931 C3932 1.523 . S
C3932 C3916 1.368 . S
C3932 C3928 1.368 . S
C3932 C3931 1.523 . S
H3933 C3908 0.950 . S
H3934 C3910 0.950 . S
H3935 C3911 0.949 . S
H3936 C3913 0.950 . S
H3937 C3915 0.950 . S
C3938 C3939 1.349 . S
C3938 C3940 1.327 . S
C3938 H3963 0.950 . S
C3939 C3938 1.349 . S
C3939 C3955 1.349 . S
C3940 C3938 1.327 . S
C3940 C3959 1.429 . S
C3940 H3964 0.950 . S
C3941 C3958 1.574 . S
C3941 C3960 1.368 . S
C3941 H3965 0.949 . S
H3942 C3946 0.949 . S
C3943 C3944 1.349 . S
C3943 C3945 1.327 . S
C3943 H3966 0.950 . S
C3944 C3943 1.349 . S
C3944 C3956 1.349 . S
C3945 C3943 1.327 . S
C3945 C3961 1.429 . S
C3945 H3967 0.950 . S
C3946 H3942 0.949 . S
C3946 C3954 1.574 . S
C3946 C3962 1.368 . S
H3947 C3955 0.950 . S
H3948 C3953 0.950 . S
H3949 C3954 0.949 . S
H3950 C3956 0.950 . S
H3951 C3957 0.950 . S
H3952 C3958 0.949 . S
C3953 H3948 0.950 . S
C3953 C3955 1.327 . S
C3953 C3959 1.429 . S
C3954 C3946 1.574 . S
C3954 H3949 0.949 . S
C3954 C3960 1.368 . S
C3955 C3939 1.349 . S
C3955 H3947 0.950 . S
C3955 C3953 1.327 . S
C3956 C3944 1.349 . S
C3956 H3950 0.950 . S
C3956 C3957 1.327 . S
C3957 H3951 0.950 . S
C3957 C3956 1.327 . S
C3957 C3961 1.429 . S
C3958 C3941 1.574 . S
C3958 H3952 0.949 . S
C3958 C3962 1.368 . S
C3959 C3940 1.429 . S
C3959 C3953 1.429 . S
C3959 C3960 1.523 . S
C3960 C3941 1.368 . S
C3960 C3954 1.368 . S
C3960 C3959 1.523 . S
C3961 C3945 1.429 . S
C3961 C3957 1.429 . S
C3961 C3962 1.523 . S
C3962 C3946 1.368 . S
C3962 C3958 1.368 . S
C3962 C3961 1.523 . S
H3963 C3938 0.950 . S
H3964 C3940 0.950 . S
H3965 C3941 0.949 . S
H3966 C3943 0.950 . S
H3967 C3945 0.950 . S
C3968 C3969 1.349 . S
C3968 C3970 1.327 . S
C3968 H3993 0.950 . S
C3969 C3968 1.349 . S
C3969 C3985 1.349 . S
C3970 C3968 1.327 . S
C3970 C3989 1.429 . S
C3970 H3994 0.950 . S
C3971 C3988 1.574 . S
C3971 C3990 1.368 . S
C3971 H3995 0.949 . S
H3972 C3976 0.949 . S
C3973 C3974 1.349 . S
C3973 C3975 1.327 . S
C3973 H3996 0.950 . S
C3974 C3973 1.349 . S
C3974 C3986 1.349 . S
C3975 C3973 1.327 . S
C3975 C3991 1.429 . S
C3975 H3997 0.950 . S
C3976 H3972 0.949 . S
C3976 C3984 1.574 . S
C3976 C3992 1.368 . S
H3977 C3985 0.950 . S
H3978 C3983 0.950 . S
H3979 C3984 0.949 . S
H3980 C3986 0.950 . S
H3981 C3987 0.950 . S
H3982 C3988 0.949 . S
C3983 H3978 0.950 . S
C3983 C3985 1.327 . S
C3983 C3989 1.429 . S
C3984 C3976 1.574 . S
C3984 H3979 0.949 . S
C3984 C3990 1.368 . S
C3985 C3969 1.349 . S
C3985 H3977 0.950 . S
C3985 C3983 1.327 . S
C3986 C3974 1.349 . S
C3986 H3980 0.950 . S
C3986 C3987 1.327 . S
C3987 H3981 0.950 . S
C3987 C3986 1.327 . S
C3987 C3991 1.429 . S
C3988 C3971 1.574 . S
C3988 H3982 0.949 . S
C3988 C3992 1.368 . S
C3989 C3970 1.429 . S
C3989 C3983 1.429 . S
C3989 C3990 1.523 . S
C3990 C3971 1.368 . S
C3990 C3984 1.368 . S
C3990 C3989 1.523 . S
C3991 C3975 1.429 . S
C3991 C3987 1.429 . S
C3991 C3992 1.523 . S
C3992 C3976 1.368 . S
C3992 C3988 1.368 . S
C3992 C3991 1.523 . S
H3993 C3968 0.950 . S
H3994 C3970 0.950 . S
H3995 C3971 0.949 . S
H3996 C3973 0.950 . S
H3997 C3975 0.950 . S
C3998 C3999 1.349 . S
C3998 C4000 1.327 . S
C3998 H4023 0.950 . S
C3999 C3998 1.349 . S
C3999 C4015 1.349 . S
C4000 C3998 1.327 . S
C4000 C4019 1.429 . S
C4000 H4024 0.950 . S
C4001 C4018 1.574 . S
C4001 C4020 1.368 . S
C4001 H4025 0.949 . S
H4002 C4006 0.949 . S
C4003 C4004 1.349 . S
C4003 C4005 1.327 . S
C4003 H4026 0.950 . S
C4004 C4003 1.349 . S
C4004 C4016 1.349 . S
C4005 C4003 1.327 . S
C4005 C4021 1.429 . S
C4005 H4027 0.950 . S
C4006 H4002 0.949 . S
C4006 C4014 1.574 . S
C4006 C4022 1.368 . S
H4007 C4015 0.950 . S
H4008 C4013 0.950 . S
H4009 C4014 0.949 . S
H4010 C4016 0.950 . S
H4011 C4017 0.950 . S
H4012 C4018 0.949 . S
C4013 H4008 0.950 . S
C4013 C4015 1.327 . S
C4013 C4019 1.429 . S
C4014 C4006 1.574 . S
C4014 H4009 0.949 . S
C4014 C4020 1.368 . S
C4015 C3999 1.349 . S
C4015 H4007 0.950 . S
C4015 C4013 1.327 . S
C4016 C4004 1.349 . S
C4016 H4010 0.950 . S
C4016 C4017 1.327 . S
C4017 H4011 0.950 . S
C4017 C4016 1.327 . S
C4017 C4021 1.429 . S
C4018 C4001 1.574 . S
C4018 H4012 0.949 . S
C4018 C4022 1.368 . S
C4019 C4000 1.429 . S
C4019 C4013 1.429 . S
C4019 C4020 1.523 . S
C4020 C4001 1.368 . S
C4020 C4014 1.368 . S
C4020 C4019 1.523 . S
C4021 C4005 1.429 . S
C4021 C4017 1.429 . S
C4021 C4022 1.523 . S
C4022 C4006 1.368 . S
C4022 C4018 1.368 . S
C4022 C4021 1.523 . S
H4023 C3998 0.950 . S
H4024 C4000 0.950 . S
H4025 C4001 0.949 . S
H4026 C4003 0.950 . S
H4027 C4005 0.950 . S
C4028 C4029 1.349 . S
C4028 C4030 1.327 . S
C4028 H4053 0.950 . S
C4029 C4028 1.349 . S
C4029 C4045 1.349 . S
C4030 C4028 1.327 . S
C4030 C4049 1.429 . S
C4030 H4054 0.950 . S
C4031 C4048 1.574 . S
C4031 C4050 1.368 . S
C4031 H4055 0.949 . S
H4032 C4036 0.949 . S
C4033 C4034 1.349 . S
C4033 C4035 1.327 . S
C4033 H4056 0.950 . S
C4034 C4033 1.349 . S
C4034 C4046 1.349 . S
C4035 C4033 1.327 . S
C4035 C4051 1.429 . S
C4035 H4057 0.950 . S
C4036 H4032 0.949 . S
C4036 C4044 1.574 . S
C4036 C4052 1.368 . S
H4037 C4045 0.950 . S
H4038 C4043 0.950 . S
H4039 C4044 0.949 . S
H4040 C4046 0.950 . S
H4041 C4047 0.950 . S
H4042 C4048 0.949 . S
C4043 H4038 0.950 . S
C4043 C4045 1.327 . S
C4043 C4049 1.429 . S
C4044 C4036 1.574 . S
C4044 H4039 0.949 . S
C4044 C4050 1.368 . S
C4045 C4029 1.349 . S
C4045 H4037 0.950 . S
C4045 C4043 1.327 . S
C4046 C4034 1.349 . S
C4046 H4040 0.950 . S
C4046 C4047 1.327 . S
C4047 H4041 0.950 . S
C4047 C4046 1.327 . S
C4047 C4051 1.429 . S
C4048 C4031 1.574 . S
C4048 H4042 0.949 . S
C4048 C4052 1.368 . S
C4049 C4030 1.429 . S
C4049 C4043 1.429 . S
C4049 C4050 1.523 . S
C4050 C4031 1.368 . S
C4050 C4044 1.368 . S
C4050 C4049 1.523 . S
C4051 C4035 1.429 . S
C4051 C4047 1.429 . S
C4051 C4052 1.523 . S
C4052 C4036 1.368 . S
C4052 C4048 1.368 . S
C4052 C4051 1.523 . S
H4053 C4028 0.950 . S
H4054 C4030 0.950 . S
H4055 C4031 0.949 . S
H4056 C4033 0.950 . S
H4057 C4035 0.950 . S
C4058 C4059 1.349 . S
C4058 C4060 1.327 . S
C4058 H4083 0.950 . S
C4059 C4058 1.349 . S
C4059 C4075 1.349 . S
C4060 C4058 1.327 . S
C4060 C4079 1.429 . S
C4060 H4084 0.950 . S
C4061 C4078 1.574 . S
C4061 C4080 1.368 . S
C4061 H4085 0.949 . S
H4062 C4066 0.949 . S
C4063 C4064 1.349 . S
C4063 C4065 1.327 . S
C4063 H4086 0.950 . S
C4064 C4063 1.349 . S
C4064 C4076 1.349 . S
C4065 C4063 1.327 . S
C4065 C4081 1.429 . S
C4065 H4087 0.950 . S
C4066 H4062 0.949 . S
C4066 C4074 1.574 . S
C4066 C4082 1.368 . S
H4067 C4075 0.950 . S
H4068 C4073 0.950 . S
H4069 C4074 0.949 . S
H4070 C4076 0.950 . S
H4071 C4077 0.950 . S
H4072 C4078 0.949 . S
C4073 H4068 0.950 . S
C4073 C4075 1.327 . S
C4073 C4079 1.429 . S
C4074 C4066 1.574 . S
C4074 H4069 0.949 . S
C4074 C4080 1.368 . S
C4075 C4059 1.349 . S
C4075 H4067 0.950 . S
C4075 C4073 1.327 . S
C4076 C4064 1.349 . S
C4076 H4070 0.950 . S
C4076 C4077 1.327 . S
C4077 H4071 0.950 . S
C4077 C4076 1.327 . S
C4077 C4081 1.429 . S
C4078 C4061 1.574 . S
C4078 H4072 0.949 . S
C4078 C4082 1.368 . S
C4079 C4060 1.429 . S
C4079 C4073 1.429 . S
C4079 C4080 1.523 . S
C4080 C4061 1.368 . S
C4080 C4074 1.368 . S
C4080 C4079 1.523 . S
C4081 C4065 1.429 . S
C4081 C4077 1.429 . S
C4081 C4082 1.523 . S
C4082 C4066 1.368 . S
C4082 C4078 1.368 . S
C4082 C4081 1.523 . S
H4083 C4058 0.950 . S
H4084 C4060 0.950 . S
H4085 C4061 0.949 . S
H4086 C4063 0.950 . S
H4087 C4065 0.950 . S
C4088 C4089 1.349 . S
C4088 C4090 1.327 . S
C4088 H4113 0.950 . S
C4089 C4088 1.349 . S
C4089 C4105 1.349 . S
C4090 C4088 1.327 . S
C4090 C4109 1.429 . S
C4090 H4114 0.950 . S
C4091 C4108 1.574 . S
C4091 C4110 1.368 . S
C4091 H4115 0.949 . S
H4092 C4096 0.949 . S
C4093 C4094 1.349 . S
C4093 C4095 1.327 . S
C4093 H4116 0.950 . S
C4094 C4093 1.349 . S
C4094 C4106 1.349 . S
C4095 C4093 1.327 . S
C4095 C4111 1.429 . S
C4095 H4117 0.950 . S
C4096 H4092 0.949 . S
C4096 C4104 1.574 . S
C4096 C4112 1.368 . S
H4097 C4105 0.950 . S
H4098 C4103 0.950 . S
H4099 C4104 0.949 . S
H4100 C4106 0.950 . S
H4101 C4107 0.950 . S
H4102 C4108 0.949 . S
C4103 H4098 0.950 . S
C4103 C4105 1.327 . S
C4103 C4109 1.429 . S
C4104 C4096 1.574 . S
C4104 H4099 0.949 . S
C4104 C4110 1.368 . S
C4105 C4089 1.349 . S
C4105 H4097 0.950 . S
C4105 C4103 1.327 . S
C4106 C4094 1.349 . S
C4106 H4100 0.950 . S
C4106 C4107 1.327 . S
C4107 H4101 0.950 . S
C4107 C4106 1.327 . S
C4107 C4111 1.429 . S
C4108 C4091 1.574 . S
C4108 H4102 0.949 . S
C4108 C4112 1.368 . S
C4109 C4090 1.429 . S
C4109 C4103 1.429 . S
C4109 C4110 1.523 . S
C4110 C4091 1.368 . S
C4110 C4104 1.368 . S
C4110 C4109 1.523 . S
C4111 C4095 1.429 . S
C4111 C4107 1.429 . S
C4111 C4112 1.523 . S
C4112 C4096 1.368 . S
C4112 C4108 1.368 . S
C4112 C4111 1.523 . S
H4113 C4088 0.950 . S
H4114 C4090 0.950 . S
H4115 C4091 0.949 . S
H4116 C4093 0.950 . S
H4117 C4095 0.950 . S
C4118 C4119 1.349 . S
C4118 C4120 1.327 . S
C4118 H4143 0.950 . S
C4119 C4118 1.349 . S
C4119 C4135 1.349 . S
C4120 C4118 1.327 . S
C4120 C4139 1.429 . S
C4120 H4144 0.950 . S
C4121 C4138 1.574 . S
C4121 C4140 1.368 . S
C4121 H4145 0.949 . S
H4122 C4126 0.949 . S
C4123 C4124 1.349 . S
C4123 C4125 1.327 . S
C4123 H4146 0.950 . S
C4124 C4123 1.349 . S
C4124 C4136 1.349 . S
C4125 C4123 1.327 . S
C4125 C4141 1.429 . S
C4125 H4147 0.950 . S
C4126 H4122 0.949 . S
C4126 C4134 1.574 . S
C4126 C4142 1.368 . S
H4127 C4135 0.950 . S
H4128 C4133 0.950 . S
H4129 C4134 0.949 . S
H4130 C4136 0.950 . S
H4131 C4137 0.950 . S
H4132 C4138 0.949 . S
C4133 H4128 0.950 . S
C4133 C4135 1.327 . S
C4133 C4139 1.429 . S
C4134 C4126 1.574 . S
C4134 H4129 0.949 . S
C4134 C4140 1.368 . S
C4135 C4119 1.349 . S
C4135 H4127 0.950 . S
C4135 C4133 1.327 . S
C4136 C4124 1.349 . S
C4136 H4130 0.950 . S
C4136 C4137 1.327 . S
C4137 H4131 0.950 . S
C4137 C4136 1.327 . S
C4137 C4141 1.429 . S
C4138 C4121 1.574 . S
C4138 H4132 0.949 . S
C4138 C4142 1.368 . S
C4139 C4120 1.429 . S
C4139 C4133 1.429 . S
C4139 C4140 1.523 . S
C4140 C4121 1.368 . S
C4140 C4134 1.368 . S
C4140 C4139 1.523 . S
C4141 C4125 1.429 . S
C4141 C4137 1.429 . S
C4141 C4142 1.523 . S
C4142 C4126 1.368 . S
C4142 C4138 1.368 . S
C4142 C4141 1.523 . S
H4143 C4118 0.950 . S
H4144 C4120 0.950 . S
H4145 C4121 0.949 . S
H4146 C4123 0.950 . S
H4147 C4125 0.950 . S
C4148 C4149 1.349 . S
C4148 C4150 1.327 . S
C4148 H4173 0.950 . S
C4149 C4148 1.349 . S
C4149 C4165 1.349 . S
C4150 C4148 1.327 . S
C4150 C4169 1.429 . S
C4150 H4174 0.950 . S
C4151 C4168 1.574 . S
C4151 C4170 1.368 . S
C4151 H4175 0.949 . S
H4152 C4156 0.949 . S
C4153 C4154 1.349 . S
C4153 C4155 1.327 . S
C4153 H4176 0.950 . S
C4154 C4153 1.349 . S
C4154 C4166 1.349 . S
C4155 C4153 1.327 . S
C4155 C4171 1.429 . S
C4155 H4177 0.950 . S
C4156 H4152 0.949 . S
C4156 C4164 1.574 . S
C4156 C4172 1.368 . S
H4157 C4165 0.950 . S
H4158 C4163 0.950 . S
H4159 C4164 0.949 . S
H4160 C4166 0.950 . S
H4161 C4167 0.950 . S
H4162 C4168 0.949 . S
C4163 H4158 0.950 . S
C4163 C4165 1.327 . S
C4163 C4169 1.429 . S
C4164 C4156 1.574 . S
C4164 H4159 0.949 . S
C4164 C4170 1.368 . S
C4165 C4149 1.349 . S
C4165 H4157 0.950 . S
C4165 C4163 1.327 . S
C4166 C4154 1.349 . S
C4166 H4160 0.950 . S
C4166 C4167 1.327 . S
C4167 H4161 0.950 . S
C4167 C4166 1.327 . S
C4167 C4171 1.429 . S
C4168 C4151 1.574 . S
C4168 H4162 0.949 . S
C4168 C4172 1.368 . S
C4169 C4150 1.429 . S
C4169 C4163 1.429 . S
C4169 C4170 1.523 . S
C4170 C4151 1.368 . S
C4170 C4164 1.368 . S
C4170 C4169 1.523 . S
C4171 C4155 1.429 . S
C4171 C4167 1.429 . S
C4171 C4172 1.523 . S
C4172 C4156 1.368 . S
C4172 C4168 1.368 . S
C4172 C4171 1.523 . S
H4173 C4148 0.950 . S
H4174 C4150 0.950 . S
H4175 C4151 0.949 . S
H4176 C4153 0.950 . S
H4177 C4155 0.950 . S
C4178 C4179 1.349 . S
C4178 C4180 1.327 . S
C4178 H4203 0.950 . S
C4179 C4178 1.349 . S
C4179 C4195 1.349 . S
C4180 C4178 1.327 . S
C4180 C4199 1.429 . S
C4180 H4204 0.950 . S
C4181 C4198 1.574 . S
C4181 C4200 1.368 . S
C4181 H4205 0.949 . S
H4182 C4186 0.949 . S
C4183 C4184 1.349 . S
C4183 C4185 1.327 . S
C4183 H4206 0.950 . S
C4184 C4183 1.349 . S
C4184 C4196 1.349 . S
C4185 C4183 1.327 . S
C4185 C4201 1.429 . S
C4185 H4207 0.950 . S
C4186 H4182 0.949 . S
C4186 C4194 1.574 . S
C4186 C4202 1.368 . S
H4187 C4195 0.950 . S
H4188 C4193 0.950 . S
H4189 C4194 0.949 . S
H4190 C4196 0.950 . S
H4191 C4197 0.950 . S
H4192 C4198 0.949 . S
C4193 H4188 0.950 . S
C4193 C4195 1.327 . S
C4193 C4199 1.429 . S
C4194 C4186 1.574 . S
C4194 H4189 0.949 . S
C4194 C4200 1.368 . S
C4195 C4179 1.349 . S
C4195 H4187 0.950 . S
C4195 C4193 1.327 . S
C4196 C4184 1.349 . S
C4196 H4190 0.950 . S
C4196 C4197 1.327 . S
C4197 H4191 0.950 . S
C4197 C4196 1.327 . S
C4197 C4201 1.429 . S
C4198 C4181 1.574 . S
C4198 H4192 0.949 . S
C4198 C4202 1.368 . S
C4199 C4180 1.429 . S
C4199 C4193 1.429 . S
C4199 C4200 1.523 . S
C4200 C4181 1.368 . S
C4200 C4194 1.368 . S
C4200 C4199 1.523 . S
C4201 C4185 1.429 . S
C4201 C4197 1.429 . S
C4201 C4202 1.523 . S
C4202 C4186 1.368 . S
C4202 C4198 1.368 . S
C4202 C4201 1.523 . S
H4203 C4178 0.950 . S
H4204 C4180 0.950 . S
H4205 C4181 0.949 . S
H4206 C4183 0.950 . S
H4207 C4185 0.950 . S
C4208 C4209 1.349 . S
C4208 C4210 1.327 . S
C4208 H4233 0.950 . S
C4209 C4208 1.349 . S
C4209 C4225 1.349 . S
C4210 C4208 1.327 . S
C4210 C4229 1.429 . S
C4210 H4234 0.950 . S
C4211 C4228 1.574 . S
C4211 C4230 1.368 . S
C4211 H4235 0.949 . S
H4212 C4216 0.949 . S
C4213 C4214 1.349 . S
C4213 C4215 1.327 . S
C4213 H4236 0.950 . S
C4214 C4213 1.349 . S
C4214 C4226 1.349 . S
C4215 C4213 1.327 . S
C4215 C4231 1.429 . S
C4215 H4237 0.950 . S
C4216 H4212 0.949 . S
C4216 C4224 1.574 . S
C4216 C4232 1.368 . S
H4217 C4225 0.950 . S
H4218 C4223 0.950 . S
H4219 C4224 0.949 . S
H4220 C4226 0.950 . S
H4221 C4227 0.950 . S
H4222 C4228 0.949 . S
C4223 H4218 0.950 . S
C4223 C4225 1.327 . S
C4223 C4229 1.429 . S
C4224 C4216 1.574 . S
C4224 H4219 0.949 . S
C4224 C4230 1.368 . S
C4225 C4209 1.349 . S
C4225 H4217 0.950 . S
C4225 C4223 1.327 . S
C4226 C4214 1.349 . S
C4226 H4220 0.950 . S
C4226 C4227 1.327 . S
C4227 H4221 0.950 . S
C4227 C4226 1.327 . S
C4227 C4231 1.429 . S
C4228 C4211 1.574 . S
C4228 H4222 0.949 . S
C4228 C4232 1.368 . S
C4229 C4210 1.429 . S
C4229 C4223 1.429 . S
C4229 C4230 1.523 . S
C4230 C4211 1.368 . S
C4230 C4224 1.368 . S
C4230 C4229 1.523 . S
C4231 C4215 1.429 . S
C4231 C4227 1.429 . S
C4231 C4232 1.523 . S
C4232 C4216 1.368 . S
C4232 C4228 1.368 . S
C4232 C4231 1.523 . S
H4233 C4208 0.950 . S
H4234 C4210 0.950 . S
H4235 C4211 0.949 . S
H4236 C4213 0.950 . S
H4237 C4215 0.950 . S
C4238 C4239 1.349 . S
C4238 C4240 1.327 . S
C4238 H4263 0.950 . S
C4239 C4238 1.349 . S
C4239 C4255 1.349 . S
C4240 C4238 1.327 . S
C4240 C4259 1.429 . S
C4240 H4264 0.950 . S
C4241 C4258 1.574 . S
C4241 C4260 1.368 . S
C4241 H4265 0.949 . S
H4242 C4246 0.949 . S
C4243 C4244 1.349 . S
C4243 C4245 1.327 . S
C4243 H4266 0.950 . S
C4244 C4243 1.349 . S
C4244 C4256 1.349 . S
C4245 C4243 1.327 . S
C4245 C4261 1.429 . S
C4245 H4267 0.950 . S
C4246 H4242 0.949 . S
C4246 C4254 1.574 . S
C4246 C4262 1.368 . S
H4247 C4255 0.950 . S
H4248 C4253 0.950 . S
H4249 C4254 0.949 . S
H4250 C4256 0.950 . S
H4251 C4257 0.950 . S
H4252 C4258 0.949 . S
C4253 H4248 0.950 . S
C4253 C4255 1.327 . S
C4253 C4259 1.429 . S
C4254 C4246 1.574 . S
C4254 H4249 0.949 . S
C4254 C4260 1.368 . S
C4255 C4239 1.349 . S
C4255 H4247 0.950 . S
C4255 C4253 1.327 . S
C4256 C4244 1.349 . S
C4256 H4250 0.950 . S
C4256 C4257 1.327 . S
C4257 H4251 0.950 . S
C4257 C4256 1.327 . S
C4257 C4261 1.429 . S
C4258 C4241 1.574 . S
C4258 H4252 0.949 . S
C4258 C4262 1.368 . S
C4259 C4240 1.429 . S
C4259 C4253 1.429 . S
C4259 C4260 1.523 . S
C4260 C4241 1.368 . S
C4260 C4254 1.368 . S
C4260 C4259 1.523 . S
C4261 C4245 1.429 . S
C4261 C4257 1.429 . S
C4261 C4262 1.523 . S
C4262 C4246 1.368 . S
C4262 C4258 1.368 . S
C4262 C4261 1.523 . S
H4263 C4238 0.950 . S
H4264 C4240 0.950 . S
H4265 C4241 0.949 . S
H4266 C4243 0.950 . S
H4267 C4245 0.950 . S
C4268 C4269 1.349 . S
C4268 C4270 1.327 . S
C4268 H4293 0.950 . S
C4269 C4268 1.349 . S
C4269 C4285 1.349 . S
C4270 C4268 1.327 . S
C4270 C4289 1.429 . S
C4270 H4294 0.950 . S
C4271 C4288 1.574 . S
C4271 C4290 1.368 . S
C4271 H4295 0.949 . S
H4272 C4276 0.949 . S
C4273 C4274 1.349 . S
C4273 C4275 1.327 . S
C4273 H4296 0.950 . S
C4274 C4273 1.349 . S
C4274 C4286 1.349 . S
C4275 C4273 1.327 . S
C4275 C4291 1.429 . S
C4275 H4297 0.950 . S
C4276 H4272 0.949 . S
C4276 C4284 1.574 . S
C4276 C4292 1.368 . S
H4277 C4285 0.950 . S
H4278 C4283 0.950 . S
H4279 C4284 0.949 . S
H4280 C4286 0.950 . S
H4281 C4287 0.950 . S
H4282 C4288 0.949 . S
C4283 H4278 0.950 . S
C4283 C4285 1.327 . S
C4283 C4289 1.429 . S
C4284 C4276 1.574 . S
C4284 H4279 0.949 . S
C4284 C4290 1.368 . S
C4285 C4269 1.349 . S
C4285 H4277 0.950 . S
C4285 C4283 1.327 . S
C4286 C4274 1.349 . S
C4286 H4280 0.950 . S
C4286 C4287 1.327 . S
C4287 H4281 0.950 . S
C4287 C4286 1.327 . S
C4287 C4291 1.429 . S
C4288 C4271 1.574 . S
C4288 H4282 0.949 . S
C4288 C4292 1.368 . S
C4289 C4270 1.429 . S
C4289 C4283 1.429 . S
C4289 C4290 1.523 . S
C4290 C4271 1.368 . S
C4290 C4284 1.368 . S
C4290 C4289 1.523 . S
C4291 C4275 1.429 . S
C4291 C4287 1.429 . S
C4291 C4292 1.523 . S
C4292 C4276 1.368 . S
C4292 C4288 1.368 . S
C4292 C4291 1.523 . S
H4293 C4268 0.950 . S
H4294 C4270 0.950 . S
H4295 C4271 0.949 . S
H4296 C4273 0.950 . S
H4297 C4275 0.950 . S
C4298 C4299 1.349 . S
C4298 C4300 1.327 . S
C4298 H4323 0.950 . S
C4299 C4298 1.349 . S
C4299 C4315 1.349 . S
C4300 C4298 1.327 . S
C4300 C4319 1.429 . S
C4300 H4324 0.950 . S
C4301 C4318 1.574 . S
C4301 C4320 1.368 . S
C4301 H4325 0.949 . S
H4302 C4306 0.949 . S
C4303 C4304 1.349 . S
C4303 C4305 1.327 . S
C4303 H4326 0.950 . S
C4304 C4303 1.349 . S
C4304 C4316 1.349 . S
C4305 C4303 1.327 . S
C4305 C4321 1.429 . S
C4305 H4327 0.950 . S
C4306 H4302 0.949 . S
C4306 C4314 1.574 . S
C4306 C4322 1.368 . S
H4307 C4315 0.950 . S
H4308 C4313 0.950 . S
H4309 C4314 0.949 . S
H4310 C4316 0.950 . S
H4311 C4317 0.950 . S
H4312 C4318 0.949 . S
C4313 H4308 0.950 . S
C4313 C4315 1.327 . S
C4313 C4319 1.429 . S
C4314 C4306 1.574 . S
C4314 H4309 0.949 . S
C4314 C4320 1.368 . S
C4315 C4299 1.349 . S
C4315 H4307 0.950 . S
C4315 C4313 1.327 . S
C4316 C4304 1.349 . S
C4316 H4310 0.950 . S
C4316 C4317 1.327 . S
C4317 H4311 0.950 . S
C4317 C4316 1.327 . S
C4317 C4321 1.429 . S
C4318 C4301 1.574 . S
C4318 H4312 0.949 . S
C4318 C4322 1.368 . S
C4319 C4300 1.429 . S
C4319 C4313 1.429 . S
C4319 C4320 1.523 . S
C4320 C4301 1.368 . S
C4320 C4314 1.368 . S
C4320 C4319 1.523 . S
C4321 C4305 1.429 . S
C4321 C4317 1.429 . S
C4321 C4322 1.523 . S
C4322 C4306 1.368 . S
C4322 C4318 1.368 . S
C4322 C4321 1.523 . S
H4323 C4298 0.950 . S
H4324 C4300 0.950 . S
H4325 C4301 0.949 . S
H4326 C4303 0.950 . S
H4327 C4305 0.950 . S
C4328 C4329 1.349 . S
C4328 C4330 1.327 . S
C4328 H4353 0.950 . S
C4329 C4328 1.349 . S
C4329 C4345 1.349 . S
C4330 C4328 1.327 . S
C4330 C4349 1.429 . S
C4330 H4354 0.950 . S
C4331 C4348 1.574 . S
C4331 C4350 1.368 . S
C4331 H4355 0.949 . S
H4332 C4336 0.949 . S
C4333 C4334 1.349 . S
C4333 C4335 1.327 . S
C4333 H4356 0.950 . S
C4334 C4333 1.349 . S
C4334 C4346 1.349 . S
C4335 C4333 1.327 . S
C4335 C4351 1.429 . S
C4335 H4357 0.950 . S
C4336 H4332 0.949 . S
C4336 C4344 1.574 . S
C4336 C4352 1.368 . S
H4337 C4345 0.950 . S
H4338 C4343 0.950 . S
H4339 C4344 0.949 . S
H4340 C4346 0.950 . S
H4341 C4347 0.950 . S
H4342 C4348 0.949 . S
C4343 H4338 0.950 . S
C4343 C4345 1.327 . S
C4343 C4349 1.429 . S
C4344 C4336 1.574 . S
C4344 H4339 0.949 . S
C4344 C4350 1.368 . S
C4345 C4329 1.349 . S
C4345 H4337 0.950 . S
C4345 C4343 1.327 . S
C4346 C4334 1.349 . S
C4346 H4340 0.950 . S
C4346 C4347 1.327 . S
C4347 H4341 0.950 . S
C4347 C4346 1.327 . S
C4347 C4351 1.429 . S
C4348 C4331 1.574 . S
C4348 H4342 0.949 . S
C4348 C4352 1.368 . S
C4349 C4330 1.429 . S
C4349 C4343 1.429 . S
C4349 C4350 1.523 . S
C4350 C4331 1.368 . S
C4350 C4344 1.368 . S
C4350 C4349 1.523 . S
C4351 C4335 1.429 . S
C4351 C4347 1.429 . S
C4351 C4352 1.523 . S
C4352 C4336 1.368 . S
C4352 C4348 1.368 . S
C4352 C4351 1.523 . S
H4353 C4328 0.950 . S
H4354 C4330 0.950 . S
H4355 C4331 0.949 . S
H4356 C4333 0.950 . S
H4357 C4335 0.950 . S
C4358 C4359 1.349 . S
C4358 C4360 1.327 . S
C4358 H4383 0.950 . S
C4359 C4358 1.349 . S
C4359 C4375 1.349 . S
C4360 C4358 1.327 . S
C4360 C4379 1.429 . S
C4360 H4384 0.950 . S
C4361 C4378 1.574 . S
C4361 C4380 1.368 . S
C4361 H4385 0.949 . S
H4362 C4366 0.949 . S
C4363 C4364 1.349 . S
C4363 C4365 1.327 . S
C4363 H4386 0.950 . S
C4364 C4363 1.349 . S
C4364 C4376 1.349 . S
C4365 C4363 1.327 . S
C4365 C4381 1.429 . S
C4365 H4387 0.950 . S
C4366 H4362 0.949 . S
C4366 C4374 1.574 . S
C4366 C4382 1.368 . S
H4367 C4375 0.950 . S
H4368 C4373 0.950 . S
H4369 C4374 0.949 . S
H4370 C4376 0.950 . S
H4371 C4377 0.950 . S
H4372 C4378 0.949 . S
C4373 H4368 0.950 . S
C4373 C4375 1.327 . S
C4373 C4379 1.429 . S
C4374 C4366 1.574 . S
C4374 H4369 0.949 . S
C4374 C4380 1.368 . S
C4375 C4359 1.349 . S
C4375 H4367 0.950 . S
C4375 C4373 1.327 . S
C4376 C4364 1.349 . S
C4376 H4370 0.950 . S
C4376 C4377 1.327 . S
C4377 H4371 0.950 . S
C4377 C4376 1.327 . S
C4377 C4381 1.429 . S
C4378 C4361 1.574 . S
C4378 H4372 0.949 . S
C4378 C4382 1.368 . S
C4379 C4360 1.429 . S
C4379 C4373 1.429 . S
C4379 C4380 1.523 . S
C4380 C4361 1.368 . S
C4380 C4374 1.368 . S
C4380 C4379 1.523 . S
C4381 C4365 1.429 . S
C4381 C4377 1.429 . S
C4381 C4382 1.523 . S
C4382 C4366 1.368 . S
C4382 C4378 1.368 . S
C4382 C4381 1.523 . S
H4383 C4358 0.950 . S
H4384 C4360 0.950 . S
H4385 C4361 0.949 . S
H4386 C4363 0.950 . S
H4387 C4365 0.950 . S
C4388 C4389 1.349 . S
C4388 C4390 1.327 . S
C4388 H4413 0.950 . S
C4389 C4388 1.349 . S
C4389 C4405 1.349 . S
C4390 C4388 1.327 . S
C4390 C4409 1.429 . S
C4390 H4414 0.950 . S
C4391 C4408 1.574 . S
C4391 C4410 1.368 . S
C4391 H4415 0.949 . S
H4392 C4396 0.949 . S
C4393 C4394 1.349 . S
C4393 C4395 1.327 . S
C4393 H4416 0.950 . S
C4394 C4393 1.349 . S
C4394 C4406 1.349 . S
C4395 C4393 1.327 . S
C4395 C4411 1.429 . S
C4395 H4417 0.950 . S
C4396 H4392 0.949 . S
C4396 C4404 1.574 . S
C4396 C4412 1.368 . S
H4397 C4405 0.950 . S
H4398 C4403 0.950 . S
H4399 C4404 0.949 . S
H4400 C4406 0.950 . S
H4401 C4407 0.950 . S
H4402 C4408 0.949 . S
C4403 H4398 0.950 . S
C4403 C4405 1.327 . S
C4403 C4409 1.429 . S
C4404 C4396 1.574 . S
C4404 H4399 0.949 . S
C4404 C4410 1.368 . S
C4405 C4389 1.349 . S
C4405 H4397 0.950 . S
C4405 C4403 1.327 . S
C4406 C4394 1.349 . S
C4406 H4400 0.950 . S
C4406 C4407 1.327 . S
C4407 H4401 0.950 . S
C4407 C4406 1.327 . S
C4407 C4411 1.429 . S
C4408 C4391 1.574 . S
C4408 H4402 0.949 . S
C4408 C4412 1.368 . S
C4409 C4390 1.429 . S
C4409 C4403 1.429 . S
C4409 C4410 1.523 . S
C4410 C4391 1.368 . S
C4410 C4404 1.368 . S
C4410 C4409 1.523 . S
C4411 C4395 1.429 . S
C4411 C4407 1.429 . S
C4411 C4412 1.523 . S
C4412 C4396 1.368 . S
C4412 C4408 1.368 . S
C4412 C4411 1.523 . S
H4413 C4388 0.950 . S
H4414 C4390 0.950 . S
H4415 C4391 0.949 . S
H4416 C4393 0.950 . S
H4417 C4395 0.950 . S
C4418 C4419 1.349 . S
C4418 C4420 1.327 . S
C4418 H4443 0.950 . S
C4419 C4418 1.349 . S
C4419 C4435 1.349 . S
C4420 C4418 1.327 . S
C4420 C4439 1.429 . S
C4420 H4444 0.950 . S
C4421 C4438 1.574 . S
C4421 C4440 1.368 . S
C4421 H4445 0.949 . S
H4422 C4426 0.949 . S
C4423 C4424 1.349 . S
C4423 C4425 1.327 . S
C4423 H4446 0.950 . S
C4424 C4423 1.349 . S
C4424 C4436 1.349 . S
C4425 C4423 1.327 . S
C4425 C4441 1.429 . S
C4425 H4447 0.950 . S
C4426 H4422 0.949 . S
C4426 C4434 1.574 . S
C4426 C4442 1.368 . S
H4427 C4435 0.950 . S
H4428 C4433 0.950 . S
H4429 C4434 0.949 . S
H4430 C4436 0.950 . S
H4431 C4437 0.950 . S
H4432 C4438 0.949 . S
C4433 H4428 0.950 . S
C4433 C4435 1.327 . S
C4433 C4439 1.429 . S
C4434 C4426 1.574 . S
C4434 H4429 0.949 . S
C4434 C4440 1.368 . S
C4435 C4419 1.349 . S
C4435 H4427 0.950 . S
C4435 C4433 1.327 . S
C4436 C4424 1.349 . S
C4436 H4430 0.950 . S
C4436 C4437 1.327 . S
C4437 H4431 0.950 . S
C4437 C4436 1.327 . S
C4437 C4441 1.429 . S
C4438 C4421 1.574 . S
C4438 H4432 0.949 . S
C4438 C4442 1.368 . S
C4439 C4420 1.429 . S
C4439 C4433 1.429 . S
C4439 C4440 1.523 . S
C4440 C4421 1.368 . S
C4440 C4434 1.368 . S
C4440 C4439 1.523 . S
C4441 C4425 1.429 . S
C4441 C4437 1.429 . S
C4441 C4442 1.523 . S
C4442 C4426 1.368 . S
C4442 C4438 1.368 . S
C4442 C4441 1.523 . S
H4443 C4418 0.950 . S
H4444 C4420 0.950 . S
H4445 C4421 0.949 . S
H4446 C4423 0.950 . S
H4447 C4425 0.950 . S
C4448 C4449 1.349 . S
C4448 C4450 1.327 . S
C4448 H4473 0.950 . S
C4449 C4448 1.349 . S
C4449 C4465 1.349 . S
C4450 C4448 1.327 . S
C4450 C4469 1.429 . S
C4450 H4474 0.950 . S
C4451 C4468 1.574 . S
C4451 C4470 1.368 . S
C4451 H4475 0.949 . S
H4452 C4456 0.949 . S
C4453 C4454 1.349 . S
C4453 C4455 1.327 . S
C4453 H4476 0.950 . S
C4454 C4453 1.349 . S
C4454 C4466 1.349 . S
C4455 C4453 1.327 . S
C4455 C4471 1.429 . S
C4455 H4477 0.950 . S
C4456 H4452 0.949 . S
C4456 C4464 1.574 . S
C4456 C4472 1.368 . S
H4457 C4465 0.950 . S
H4458 C4463 0.950 . S
H4459 C4464 0.949 . S
H4460 C4466 0.950 . S
H4461 C4467 0.950 . S
H4462 C4468 0.949 . S
C4463 H4458 0.950 . S
C4463 C4465 1.327 . S
C4463 C4469 1.429 . S
C4464 C4456 1.574 . S
C4464 H4459 0.949 . S
C4464 C4470 1.368 . S
C4465 C4449 1.349 . S
C4465 H4457 0.950 . S
C4465 C4463 1.327 . S
C4466 C4454 1.349 . S
C4466 H4460 0.950 . S
C4466 C4467 1.327 . S
C4467 H4461 0.950 . S
C4467 C4466 1.327 . S
C4467 C4471 1.429 . S
C4468 C4451 1.574 . S
C4468 H4462 0.949 . S
C4468 C4472 1.368 . S
C4469 C4450 1.429 . S
C4469 C4463 1.429 . S
C4469 C4470 1.523 . S
C4470 C4451 1.368 . S
C4470 C4464 1.368 . S
C4470 C4469 1.523 . S
C4471 C4455 1.429 . S
C4471 C4467 1.429 . S
C4471 C4472 1.523 . S
C4472 C4456 1.368 . S
C4472 C4468 1.368 . S
C4472 C4471 1.523 . S
H4473 C4448 0.950 . S
H4474 C4450 0.950 . S
H4475 C4451 0.949 . S
H4476 C4453 0.950 . S
H4477 C4455 0.950 . S
C4478 C4479 1.349 . S
C4478 C4480 1.327 . S
C4478 H4503 0.950 . S
C4479 C4478 1.349 . S
C4479 C4495 1.349 . S
C4480 C4478 1.327 . S
C4480 C4499 1.429 . S
C4480 H4504 0.950 . S
C4481 C4498 1.574 . S
C4481 C4500 1.368 . S
C4481 H4505 0.949 . S
H4482 C4486 0.949 . S
C4483 C4484 1.349 . S
C4483 C4485 1.327 . S
C4483 H4506 0.950 . S
C4484 C4483 1.349 . S
C4484 C4496 1.349 . S
C4485 C4483 1.327 . S
C4485 C4501 1.429 . S
C4485 H4507 0.950 . S
C4486 H4482 0.949 . S
C4486 C4494 1.574 . S
C4486 C4502 1.368 . S
H4487 C4495 0.950 . S
H4488 C4493 0.950 . S
H4489 C4494 0.949 . S
H4490 C4496 0.950 . S
H4491 C4497 0.950 . S
H4492 C4498 0.949 . S
C4493 H4488 0.950 . S
C4493 C4495 1.327 . S
C4493 C4499 1.429 . S
C4494 C4486 1.574 . S
C4494 H4489 0.949 . S
C4494 C4500 1.368 . S
C4495 C4479 1.349 . S
C4495 H4487 0.950 . S
C4495 C4493 1.327 . S
C4496 C4484 1.349 . S
C4496 H4490 0.950 . S
C4496 C4497 1.327 . S
C4497 H4491 0.950 . S
C4497 C4496 1.327 . S
C4497 C4501 1.429 . S
C4498 C4481 1.574 . S
C4498 H4492 0.949 . S
C4498 C4502 1.368 . S
C4499 C4480 1.429 . S
C4499 C4493 1.429 . S
C4499 C4500 1.523 . S
C4500 C4481 1.368 . S
C4500 C4494 1.368 . S
C4500 C4499 1.523 . S
C4501 C4485 1.429 . S
C4501 C4497 1.429 . S
C4501 C4502 1.523 . S
C4502 C4486 1.368 . S
C4502 C4498 1.368 . S
C4502 C4501 1.523 . S
H4503 C4478 0.950 . S
H4504 C4480 0.950 . S
H4505 C4481 0.949 . S
H4506 C4483 0.950 . S
H4507 C4485 0.950 . S
C4508 C4509 1.349 . S
C4508 C4510 1.327 . S
C4508 H4533 0.950 . S
C4509 C4508 1.349 . S
C4509 C4525 1.349 . S
C4510 C4508 1.327 . S
C4510 C4529 1.429 . S
C4510 H4534 0.950 . S
C4511 C4528 1.574 . S
C4511 C4530 1.368 . S
C4511 H4535 0.949 . S
H4512 C4516 0.949 . S
C4513 C4514 1.349 . S
C4513 C4515 1.327 . S
C4513 H4536 0.950 . S
C4514 C4513 1.349 . S
C4514 C4526 1.349 . S
C4515 C4513 1.327 . S
C4515 C4531 1.429 . S
C4515 H4537 0.950 . S
C4516 H4512 0.949 . S
C4516 C4524 1.574 . S
C4516 C4532 1.368 . S
H4517 C4525 0.950 . S
H4518 C4523 0.950 . S
H4519 C4524 0.949 . S
H4520 C4526 0.950 . S
H4521 C4527 0.950 . S
H4522 C4528 0.949 . S
C4523 H4518 0.950 . S
C4523 C4525 1.327 . S
C4523 C4529 1.429 . S
C4524 C4516 1.574 . S
C4524 H4519 0.949 . S
C4524 C4530 1.368 . S
C4525 C4509 1.349 . S
C4525 H4517 0.950 . S
C4525 C4523 1.327 . S
C4526 C4514 1.349 . S
C4526 H4520 0.950 . S
C4526 C4527 1.327 . S
C4527 H4521 0.950 . S
C4527 C4526 1.327 . S
C4527 C4531 1.429 . S
C4528 C4511 1.574 . S
C4528 H4522 0.949 . S
C4528 C4532 1.368 . S
C4529 C4510 1.429 . S
C4529 C4523 1.429 . S
C4529 C4530 1.523 . S
C4530 C4511 1.368 . S
C4530 C4524 1.368 . S
C4530 C4529 1.523 . S
C4531 C4515 1.429 . S
C4531 C4527 1.429 . S
C4531 C4532 1.523 . S
C4532 C4516 1.368 . S
C4532 C4528 1.368 . S
C4532 C4531 1.523 . S
H4533 C4508 0.950 . S
H4534 C4510 0.950 . S
H4535 C4511 0.949 . S
H4536 C4513 0.950 . S
H4537 C4515 0.950 . S
C4538 C4539 1.349 . S
C4538 C4540 1.327 . S
C4538 H4563 0.950 . S
C4539 C4538 1.349 . S
C4539 C4555 1.349 . S
C4540 C4538 1.327 . S
C4540 C4559 1.429 . S
C4540 H4564 0.950 . S
C4541 C4558 1.574 . S
C4541 C4560 1.368 . S
C4541 H4565 0.949 . S
H4542 C4546 0.949 . S
C4543 C4544 1.349 . S
C4543 C4545 1.327 . S
C4543 H4566 0.950 . S
C4544 C4543 1.349 . S
C4544 C4556 1.349 . S
C4545 C4543 1.327 . S
C4545 C4561 1.429 . S
C4545 H4567 0.950 . S
C4546 H4542 0.949 . S
C4546 C4554 1.574 . S
C4546 C4562 1.368 . S
H4547 C4555 0.950 . S
H4548 C4553 0.950 . S
H4549 C4554 0.949 . S
H4550 C4556 0.950 . S
H4551 C4557 0.950 . S
H4552 C4558 0.949 . S
C4553 H4548 0.950 . S
C4553 C4555 1.327 . S
C4553 C4559 1.429 . S
C4554 C4546 1.574 . S
C4554 H4549 0.949 . S
C4554 C4560 1.368 . S
C4555 C4539 1.349 . S
C4555 H4547 0.950 . S
C4555 C4553 1.327 . S
C4556 C4544 1.349 . S
C4556 H4550 0.950 . S
C4556 C4557 1.327 . S
C4557 H4551 0.950 . S
C4557 C4556 1.327 . S
C4557 C4561 1.429 . S
C4558 C4541 1.574 . S
C4558 H4552 0.949 . S
C4558 C4562 1.368 . S
C4559 C4540 1.429 . S
C4559 C4553 1.429 . S
C4559 C4560 1.523 . S
C4560 C4541 1.368 . S
C4560 C4554 1.368 . S
C4560 C4559 1.523 . S
C4561 C4545 1.429 . S
C4561 C4557 1.429 . S
C4561 C4562 1.523 . S
C4562 C4546 1.368 . S
C4562 C4558 1.368 . S
C4562 C4561 1.523 . S
H4563 C4538 0.950 . S
H4564 C4540 0.950 . S
H4565 C4541 0.949 . S
H4566 C4543 0.950 . S
H4567 C4545 0.950 . S
C4568 C4569 1.349 . S
C4568 C4570 1.327 . S
C4568 H4593 0.950 . S
C4569 C4568 1.349 . S
C4569 C4585 1.349 . S
C4570 C4568 1.327 . S
C4570 C4589 1.429 . S
C4570 H4594 0.950 . S
C4571 C4588 1.574 . S
C4571 C4590 1.368 . S
C4571 H4595 0.949 . S
H4572 C4576 0.949 . S
C4573 C4574 1.349 . S
C4573 C4575 1.327 . S
C4573 H4596 0.950 . S
C4574 C4573 1.349 . S
C4574 C4586 1.349 . S
C4575 C4573 1.327 . S
C4575 C4591 1.429 . S
C4575 H4597 0.950 . S
C4576 H4572 0.949 . S
C4576 C4584 1.574 . S
C4576 C4592 1.368 . S
H4577 C4585 0.950 . S
H4578 C4583 0.950 . S
H4579 C4584 0.949 . S
H4580 C4586 0.950 . S
H4581 C4587 0.950 . S
H4582 C4588 0.949 . S
C4583 H4578 0.950 . S
C4583 C4585 1.327 . S
C4583 C4589 1.429 . S
C4584 C4576 1.574 . S
C4584 H4579 0.949 . S
C4584 C4590 1.368 . S
C4585 C4569 1.349 . S
C4585 H4577 0.950 . S
C4585 C4583 1.327 . S
C4586 C4574 1.349 . S
C4586 H4580 0.950 . S
C4586 C4587 1.327 . S
C4587 H4581 0.950 . S
C4587 C4586 1.327 . S
C4587 C4591 1.429 . S
C4588 C4571 1.574 . S
C4588 H4582 0.949 . S
C4588 C4592 1.368 . S
C4589 C4570 1.429 . S
C4589 C4583 1.429 . S
C4589 C4590 1.523 . S
C4590 C4571 1.368 . S
C4590 C4584 1.368 . S
C4590 C4589 1.523 . S
C4591 C4575 1.429 . S
C4591 C4587 1.429 . S
C4591 C4592 1.523 . S
C4592 C4576 1.368 . S
C4592 C4588 1.368 . S
C4592 C4591 1.523 . S
H4593 C4568 0.950 . S
H4594 C4570 0.950 . S
H4595 C4571 0.949 . S
H4596 C4573 0.950 . S
H4597 C4575 0.950 . S
C4598 C4599 1.349 . S
C4598 C4600 1.327 . S
C4598 H4623 0.950 . S
C4599 C4598 1.349 . S
C4599 C4615 1.349 . S
C4600 C4598 1.327 . S
C4600 C4619 1.429 . S
C4600 H4624 0.950 . S
C4601 C4618 1.574 . S
C4601 C4620 1.368 . S
C4601 H4625 0.949 . S
H4602 C4606 0.949 . S
C4603 C4604 1.349 . S
C4603 C4605 1.327 . S
C4603 H4626 0.950 . S
C4604 C4603 1.349 . S
C4604 C4616 1.349 . S
C4605 C4603 1.327 . S
C4605 C4621 1.429 . S
C4605 H4627 0.950 . S
C4606 H4602 0.949 . S
C4606 C4614 1.574 . S
C4606 C4622 1.368 . S
H4607 C4615 0.950 . S
H4608 C4613 0.950 . S
H4609 C4614 0.949 . S
H4610 C4616 0.950 . S
H4611 C4617 0.950 . S
H4612 C4618 0.949 . S
C4613 H4608 0.950 . S
C4613 C4615 1.327 . S
C4613 C4619 1.429 . S
C4614 C4606 1.574 . S
C4614 H4609 0.949 . S
C4614 C4620 1.368 . S
C4615 C4599 1.349 . S
C4615 H4607 0.950 . S
C4615 C4613 1.327 . S
C4616 C4604 1.349 . S
C4616 H4610 0.950 . S
C4616 C4617 1.327 . S
C4617 H4611 0.950 . S
C4617 C4616 1.327 . S
C4617 C4621 1.429 . S
C4618 C4601 1.574 . S
C4618 H4612 0.949 . S
C4618 C4622 1.368 . S
C4619 C4600 1.429 . S
C4619 C4613 1.429 . S
C4619 C4620 1.523 . S
C4620 C4601 1.368 . S
C4620 C4614 1.368 . S
C4620 C4619 1.523 . S
C4621 C4605 1.429 . S
C4621 C4617 1.429 . S
C4621 C4622 1.523 . S
C4622 C4606 1.368 . S
C4622 C4618 1.368 . S
C4622 C4621 1.523 . S
H4623 C4598 0.950 . S
H4624 C4600 0.950 . S
H4625 C4601 0.949 . S
H4626 C4603 0.950 . S
H4627 C4605 0.950 . S
C4628 C4629 1.349 . S
C4628 C4630 1.327 . S
C4628 H4653 0.950 . S
C4629 C4628 1.349 . S
C4629 C4645 1.349 . S
C4630 C4628 1.327 . S
C4630 C4649 1.429 . S
C4630 H4654 0.950 . S
C4631 C4648 1.574 . S
C4631 C4650 1.368 . S
C4631 H4655 0.949 . S
H4632 C4636 0.949 . S
C4633 C4634 1.349 . S
C4633 C4635 1.327 . S
C4633 H4656 0.950 . S
C4634 C4633 1.349 . S
C4634 C4646 1.349 . S
C4635 C4633 1.327 . S
C4635 C4651 1.429 . S
C4635 H4657 0.950 . S
C4636 H4632 0.949 . S
C4636 C4644 1.574 . S
C4636 C4652 1.368 . S
H4637 C4645 0.950 . S
H4638 C4643 0.950 . S
H4639 C4644 0.949 . S
H4640 C4646 0.950 . S
H4641 C4647 0.950 . S
H4642 C4648 0.949 . S
C4643 H4638 0.950 . S
C4643 C4645 1.327 . S
C4643 C4649 1.429 . S
C4644 C4636 1.574 . S
C4644 H4639 0.949 . S
C4644 C4650 1.368 . S
C4645 C4629 1.349 . S
C4645 H4637 0.950 . S
C4645 C4643 1.327 . S
C4646 C4634 1.349 . S
C4646 H4640 0.950 . S
C4646 C4647 1.327 . S
C4647 H4641 0.950 . S
C4647 C4646 1.327 . S
C4647 C4651 1.429 . S
C4648 C4631 1.574 . S
C4648 H4642 0.949 . S
C4648 C4652 1.368 . S
C4649 C4630 1.429 . S
C4649 C4643 1.429 . S
C4649 C4650 1.523 . S
C4650 C4631 1.368 . S
C4650 C4644 1.368 . S
C4650 C4649 1.523 . S
C4651 C4635 1.429 . S
C4651 C4647 1.429 . S
C4651 C4652 1.523 . S
C4652 C4636 1.368 . S
C4652 C4648 1.368 . S
C4652 C4651 1.523 . S
H4653 C4628 0.950 . S
H4654 C4630 0.950 . S
H4655 C4631 0.949 . S
H4656 C4633 0.950 . S
H4657 C4635 0.950 . S
C4658 C4659 1.349 . S
C4658 C4660 1.327 . S
C4658 H4683 0.950 . S
C4659 C4658 1.349 . S
C4659 C4675 1.349 . S
C4660 C4658 1.327 . S
C4660 C4679 1.429 . S
C4660 H4684 0.950 . S
C4661 C4678 1.574 . S
C4661 C4680 1.368 . S
C4661 H4685 0.949 . S
H4662 C4666 0.949 . S
C4663 C4664 1.349 . S
C4663 C4665 1.327 . S
C4663 H4686 0.950 . S
C4664 C4663 1.349 . S
C4664 C4676 1.349 . S
C4665 C4663 1.327 . S
C4665 C4681 1.429 . S
C4665 H4687 0.950 . S
C4666 H4662 0.949 . S
C4666 C4674 1.574 . S
C4666 C4682 1.368 . S
H4667 C4675 0.950 . S
H4668 C4673 0.950 . S
H4669 C4674 0.949 . S
H4670 C4676 0.950 . S
H4671 C4677 0.950 . S
H4672 C4678 0.949 . S
C4673 H4668 0.950 . S
C4673 C4675 1.327 . S
C4673 C4679 1.429 . S
C4674 C4666 1.574 . S
C4674 H4669 0.949 . S
C4674 C4680 1.368 . S
C4675 C4659 1.349 . S
C4675 H4667 0.950 . S
C4675 C4673 1.327 . S
C4676 C4664 1.349 . S
C4676 H4670 0.950 . S
C4676 C4677 1.327 . S
C4677 H4671 0.950 . S
C4677 C4676 1.327 . S
C4677 C4681 1.429 . S
C4678 C4661 1.574 . S
C4678 H4672 0.949 . S
C4678 C4682 1.368 . S
C4679 C4660 1.429 . S
C4679 C4673 1.429 . S
C4679 C4680 1.523 . S
C4680 C4661 1.368 . S
C4680 C4674 1.368 . S
C4680 C4679 1.523 . S
C4681 C4665 1.429 . S
C4681 C4677 1.429 . S
C4681 C4682 1.523 . S
C4682 C4666 1.368 . S
C4682 C4678 1.368 . S
C4682 C4681 1.523 . S
H4683 C4658 0.950 . S
H4684 C4660 0.950 . S
H4685 C4661 0.949 . S
H4686 C4663 0.950 . S
H4687 C4665 0.950 . S
C4688 C4689 1.349 . S
C4688 C4690 1.327 . S
C4688 H4713 0.950 . S
C4689 C4688 1.349 . S
C4689 C4705 1.349 . S
C4690 C4688 1.327 . S
C4690 C4709 1.429 . S
C4690 H4714 0.950 . S
C4691 C4708 1.574 . S
C4691 C4710 1.368 . S
C4691 H4715 0.949 . S
H4692 C4696 0.949 . S
C4693 C4694 1.349 . S
C4693 C4695 1.327 . S
C4693 H4716 0.950 . S
C4694 C4693 1.349 . S
C4694 C4706 1.349 . S
C4695 C4693 1.327 . S
C4695 C4711 1.429 . S
C4695 H4717 0.950 . S
C4696 H4692 0.949 . S
C4696 C4704 1.574 . S
C4696 C4712 1.368 . S
H4697 C4705 0.950 . S
H4698 C4703 0.950 . S
H4699 C4704 0.949 . S
H4700 C4706 0.950 . S
H4701 C4707 0.950 . S
H4702 C4708 0.949 . S
C4703 H4698 0.950 . S
C4703 C4705 1.327 . S
C4703 C4709 1.429 . S
C4704 C4696 1.574 . S
C4704 H4699 0.949 . S
C4704 C4710 1.368 . S
C4705 C4689 1.349 . S
C4705 H4697 0.950 . S
C4705 C4703 1.327 . S
C4706 C4694 1.349 . S
C4706 H4700 0.950 . S
C4706 C4707 1.327 . S
C4707 H4701 0.950 . S
C4707 C4706 1.327 . S
C4707 C4711 1.429 . S
C4708 C4691 1.574 . S
C4708 H4702 0.949 . S
C4708 C4712 1.368 . S
C4709 C4690 1.429 . S
C4709 C4703 1.429 . S
C4709 C4710 1.523 . S
C4710 C4691 1.368 . S
C4710 C4704 1.368 . S
C4710 C4709 1.523 . S
C4711 C4695 1.429 . S
C4711 C4707 1.429 . S
C4711 C4712 1.523 . S
C4712 C4696 1.368 . S
C4712 C4708 1.368 . S
C4712 C4711 1.523 . S
H4713 C4688 0.950 . S
H4714 C4690 0.950 . S
H4715 C4691 0.949 . S
H4716 C4693 0.950 . S
H4717 C4695 0.950 . S
C4718 C4719 1.349 . S
C4718 C4720 1.327 . S
C4718 H4743 0.950 . S
C4719 C4718 1.349 . S
C4719 C4735 1.349 . S
C4720 C4718 1.327 . S
C4720 C4739 1.429 . S
C4720 H4744 0.950 . S
C4721 C4738 1.574 . S
C4721 C4740 1.368 . S
C4721 H4745 0.949 . S
H4722 C4726 0.949 . S
C4723 C4724 1.349 . S
C4723 C4725 1.327 . S
C4723 H4746 0.950 . S
C4724 C4723 1.349 . S
C4724 C4736 1.349 . S
C4725 C4723 1.327 . S
C4725 C4741 1.429 . S
C4725 H4747 0.950 . S
C4726 H4722 0.949 . S
C4726 C4734 1.574 . S
C4726 C4742 1.368 . S
H4727 C4735 0.950 . S
H4728 C4733 0.950 . S
H4729 C4734 0.949 . S
H4730 C4736 0.950 . S
H4731 C4737 0.950 . S
H4732 C4738 0.949 . S
C4733 H4728 0.950 . S
C4733 C4735 1.327 . S
C4733 C4739 1.429 . S
C4734 C4726 1.574 . S
C4734 H4729 0.949 . S
C4734 C4740 1.368 . S
C4735 C4719 1.349 . S
C4735 H4727 0.950 . S
C4735 C4733 1.327 . S
C4736 C4724 1.349 . S
C4736 H4730 0.950 . S
C4736 C4737 1.327 . S
C4737 H4731 0.950 . S
C4737 C4736 1.327 . S
C4737 C4741 1.429 . S
C4738 C4721 1.574 . S
C4738 H4732 0.949 . S
C4738 C4742 1.368 . S
C4739 C4720 1.429 . S
C4739 C4733 1.429 . S
C4739 C4740 1.523 . S
C4740 C4721 1.368 . S
C4740 C4734 1.368 . S
C4740 C4739 1.523 . S
C4741 C4725 1.429 . S
C4741 C4737 1.429 . S
C4741 C4742 1.523 . S
C4742 C4726 1.368 . S
C4742 C4738 1.368 . S
C4742 C4741 1.523 . S
H4743 C4718 0.950 . S
H4744 C4720 0.950 . S
H4745 C4721 0.949 . S
H4746 C4723 0.950 . S
H4747 C4725 0.950 . S
C4748 C4749 1.349 . S
C4748 C4750 1.327 . S
C4748 H4773 0.950 . S
C4749 C4748 1.349 . S
C4749 C4765 1.349 . S
C4750 C4748 1.327 . S
C4750 C4769 1.429 . S
C4750 H4774 0.950 . S
C4751 C4768 1.574 . S
C4751 C4770 1.368 . S
C4751 H4775 0.949 . S
H4752 C4756 0.949 . S
C4753 C4754 1.349 . S
C4753 C4755 1.327 . S
C4753 H4776 0.950 . S
C4754 C4753 1.349 . S
C4754 C4766 1.349 . S
C4755 C4753 1.327 . S
C4755 C4771 1.429 . S
C4755 H4777 0.950 . S
C4756 H4752 0.949 . S
C4756 C4764 1.574 . S
C4756 C4772 1.368 . S
H4757 C4765 0.950 . S
H4758 C4763 0.950 . S
H4759 C4764 0.949 . S
H4760 C4766 0.950 . S
H4761 C4767 0.950 . S
H4762 C4768 0.949 . S
C4763 H4758 0.950 . S
C4763 C4765 1.327 . S
C4763 C4769 1.429 . S
C4764 C4756 1.574 . S
C4764 H4759 0.949 . S
C4764 C4770 1.368 . S
C4765 C4749 1.349 . S
C4765 H4757 0.950 . S
C4765 C4763 1.327 . S
C4766 C4754 1.349 . S
C4766 H4760 0.950 . S
C4766 C4767 1.327 . S
C4767 H4761 0.950 . S
C4767 C4766 1.327 . S
C4767 C4771 1.429 . S
C4768 C4751 1.574 . S
C4768 H4762 0.949 . S
C4768 C4772 1.368 . S
C4769 C4750 1.429 . S
C4769 C4763 1.429 . S
C4769 C4770 1.523 . S
C4770 C4751 1.368 . S
C4770 C4764 1.368 . S
C4770 C4769 1.523 . S
C4771 C4755 1.429 . S
C4771 C4767 1.429 . S
C4771 C4772 1.523 . S
C4772 C4756 1.368 . S
C4772 C4768 1.368 . S
C4772 C4771 1.523 . S
H4773 C4748 0.950 . S
H4774 C4750 0.950 . S
H4775 C4751 0.949 . S
H4776 C4753 0.950 . S
H4777 C4755 0.950 . S
C4778 C4779 1.349 . S
C4778 C4780 1.327 . S
C4778 H4803 0.950 . S
C4779 C4778 1.349 . S
C4779 C4795 1.349 . S
C4780 C4778 1.327 . S
C4780 C4799 1.429 . S
C4780 H4804 0.950 . S
C4781 C4798 1.574 . S
C4781 C4800 1.368 . S
C4781 H4805 0.949 . S
H4782 C4786 0.949 . S
C4783 C4784 1.349 . S
C4783 C4785 1.327 . S
C4783 H4806 0.950 . S
C4784 C4783 1.349 . S
C4784 C4796 1.349 . S
C4785 C4783 1.327 . S
C4785 C4801 1.429 . S
C4785 H4807 0.950 . S
C4786 H4782 0.949 . S
C4786 C4794 1.574 . S
C4786 C4802 1.368 . S
H4787 C4795 0.950 . S
H4788 C4793 0.950 . S
H4789 C4794 0.949 . S
H4790 C4796 0.950 . S
H4791 C4797 0.950 . S
H4792 C4798 0.949 . S
C4793 H4788 0.950 . S
C4793 C4795 1.327 . S
C4793 C4799 1.429 . S
C4794 C4786 1.574 . S
C4794 H4789 0.949 . S
C4794 C4800 1.368 . S
C4795 C4779 1.349 . S
C4795 H4787 0.950 . S
C4795 C4793 1.327 . S
C4796 C4784 1.349 . S
C4796 H4790 0.950 . S
C4796 C4797 1.327 . S
C4797 H4791 0.950 . S
C4797 C4796 1.327 . S
C4797 C4801 1.429 . S
C4798 C4781 1.574 . S
C4798 H4792 0.949 . S
C4798 C4802 1.368 . S
C4799 C4780 1.429 . S
C4799 C4793 1.429 . S
C4799 C4800 1.523 . S
C4800 C4781 1.368 . S
C4800 C4794 1.368 . S
C4800 C4799 1.523 . S
C4801 C4785 1.429 . S
C4801 C4797 1.429 . S
C4801 C4802 1.523 . S
C4802 C4786 1.368 . S
C4802 C4798 1.368 . S
C4802 C4801 1.523 . S
H4803 C4778 0.950 . S
H4804 C4780 0.950 . S
H4805 C4781 0.949 . S
H4806 C4783 0.950 . S
H4807 C4785 0.950 . S
C4808 C4809 1.349 . S
C4808 C4810 1.327 . S
C4808 H4833 0.950 . S
C4809 C4808 1.349 . S
C4809 C4825 1.349 . S
C4810 C4808 1.327 . S
C4810 C4829 1.429 . S
C4810 H4834 0.950 . S
C4811 C4828 1.574 . S
C4811 C4830 1.368 . S
C4811 H4835 0.949 . S
H4812 C4816 0.949 . S
C4813 C4814 1.349 . S
C4813 C4815 1.327 . S
C4813 H4836 0.950 . S
C4814 C4813 1.349 . S
C4814 C4826 1.349 . S
C4815 C4813 1.327 . S
C4815 C4831 1.429 . S
C4815 H4837 0.950 . S
C4816 H4812 0.949 . S
C4816 C4824 1.574 . S
C4816 C4832 1.368 . S
H4817 C4825 0.950 . S
H4818 C4823 0.950 . S
H4819 C4824 0.949 . S
H4820 C4826 0.950 . S
H4821 C4827 0.950 . S
H4822 C4828 0.949 . S
C4823 H4818 0.950 . S
C4823 C4825 1.327 . S
C4823 C4829 1.429 . S
C4824 C4816 1.574 . S
C4824 H4819 0.949 . S
C4824 C4830 1.368 . S
C4825 C4809 1.349 . S
C4825 H4817 0.950 . S
C4825 C4823 1.327 . S
C4826 C4814 1.349 . S
C4826 H4820 0.950 . S
C4826 C4827 1.327 . S
C4827 H4821 0.950 . S
C4827 C4826 1.327 . S
C4827 C4831 1.429 . S
C4828 C4811 1.574 . S
C4828 H4822 0.949 . S
C4828 C4832 1.368 . S
C4829 C4810 1.429 . S
C4829 C4823 1.429 . S
C4829 C4830 1.523 . S
C4830 C4811 1.368 . S
C4830 C4824 1.368 . S
C4830 C4829 1.523 . S
C4831 C4815 1.429 . S
C4831 C4827 1.429 . S
C4831 C4832 1.523 . S
C4832 C4816 1.368 . S
C4832 C4828 1.368 . S
C4832 C4831 1.523 . S
H4833 C4808 0.950 . S
H4834 C4810 0.950 . S
H4835 C4811 0.949 . S
H4836 C4813 0.950 . S
H4837 C4815 0.950 . S
C4838 C4839 1.349 . S
C4838 C4840 1.327 . S
C4838 H4863 0.950 . S
C4839 C4838 1.349 . S
C4839 C4855 1.349 . S
C4840 C4838 1.327 . S
C4840 C4859 1.429 . S
C4840 H4864 0.950 . S
C4841 C4858 1.574 . S
C4841 C4860 1.368 . S
C4841 H4865 0.949 . S
H4842 C4846 0.949 . S
C4843 C4844 1.349 . S
C4843 C4845 1.327 . S
C4843 H4866 0.950 . S
C4844 C4843 1.349 . S
C4844 C4856 1.349 . S
C4845 C4843 1.327 . S
C4845 C4861 1.429 . S
C4845 H4867 0.950 . S
C4846 H4842 0.949 . S
C4846 C4854 1.574 . S
C4846 C4862 1.368 . S
H4847 C4855 0.950 . S
H4848 C4853 0.950 . S
H4849 C4854 0.949 . S
H4850 C4856 0.950 . S
H4851 C4857 0.950 . S
H4852 C4858 0.949 . S
C4853 H4848 0.950 . S
C4853 C4855 1.327 . S
C4853 C4859 1.429 . S
C4854 C4846 1.574 . S
C4854 H4849 0.949 . S
C4854 C4860 1.368 . S
C4855 C4839 1.349 . S
C4855 H4847 0.950 . S
C4855 C4853 1.327 . S
C4856 C4844 1.349 . S
C4856 H4850 0.950 . S
C4856 C4857 1.327 . S
C4857 H4851 0.950 . S
C4857 C4856 1.327 . S
C4857 C4861 1.429 . S
C4858 C4841 1.574 . S
C4858 H4852 0.949 . S
C4858 C4862 1.368 . S
C4859 C4840 1.429 . S
C4859 C4853 1.429 . S
C4859 C4860 1.523 . S
C4860 C4841 1.368 . S
C4860 C4854 1.368 . S
C4860 C4859 1.523 . S
C4861 C4845 1.429 . S
C4861 C4857 1.429 . S
C4861 C4862 1.523 . S
C4862 C4846 1.368 . S
C4862 C4858 1.368 . S
C4862 C4861 1.523 . S
H4863 C4838 0.950 . S
H4864 C4840 0.950 . S
H4865 C4841 0.949 . S
H4866 C4843 0.950 . S
H4867 C4845 0.950 . S
C4868 C4869 1.349 . S
C4868 C4870 1.327 . S
C4868 H4893 0.950 . S
C4869 C4868 1.349 . S
C4869 C4885 1.349 . S
C4870 C4868 1.327 . S
C4870 C4889 1.429 . S
C4870 H4894 0.950 . S
C4871 C4888 1.574 . S
C4871 C4890 1.368 . S
C4871 H4895 0.949 . S
H4872 C4876 0.949 . S
C4873 C4874 1.349 . S
C4873 C4875 1.327 . S
C4873 H4896 0.950 . S
C4874 C4873 1.349 . S
C4874 C4886 1.349 . S
C4875 C4873 1.327 . S
C4875 C4891 1.429 . S
C4875 H4897 0.950 . S
C4876 H4872 0.949 . S
C4876 C4884 1.574 . S
C4876 C4892 1.368 . S
H4877 C4885 0.950 . S
H4878 C4883 0.950 . S
H4879 C4884 0.949 . S
H4880 C4886 0.950 . S
H4881 C4887 0.950 . S
H4882 C4888 0.949 . S
C4883 H4878 0.950 . S
C4883 C4885 1.327 . S
C4883 C4889 1.429 . S
C4884 C4876 1.574 . S
C4884 H4879 0.949 . S
C4884 C4890 1.368 . S
C4885 C4869 1.349 . S
C4885 H4877 0.950 . S
C4885 C4883 1.327 . S
C4886 C4874 1.349 . S
C4886 H4880 0.950 . S
C4886 C4887 1.327 . S
C4887 H4881 0.950 . S
C4887 C4886 1.327 . S
C4887 C4891 1.429 . S
C4888 C4871 1.574 . S
C4888 H4882 0.949 . S
C4888 C4892 1.368 . S
C4889 C4870 1.429 . S
C4889 C4883 1.429 . S
C4889 C4890 1.523 . S
C4890 C4871 1.368 . S
C4890 C4884 1.368 . S
C4890 C4889 1.523 . S
C4891 C4875 1.429 . S
C4891 C4887 1.429 . S
C4891 C4892 1.523 . S
C4892 C4876 1.368 . S
C4892 C4888 1.368 . S
C4892 C4891 1.523 . S
H4893 C4868 0.950 . S
H4894 C4870 0.950 . S
H4895 C4871 0.949 . S
H4896 C4873 0.950 . S
H4897 C4875 0.950 . S
C4898 C4899 1.349 . S
C4898 C4900 1.327 . S
C4898 H4923 0.950 . S
C4899 C4898 1.349 . S
C4899 C4915 1.349 . S
C4900 C4898 1.327 . S
C4900 C4919 1.429 . S
C4900 H4924 0.950 . S
C4901 C4918 1.574 . S
C4901 C4920 1.368 . S
C4901 H4925 0.949 . S
H4902 C4906 0.949 . S
C4903 C4904 1.349 . S
C4903 C4905 1.327 . S
C4903 H4926 0.950 . S
C4904 C4903 1.349 . S
C4904 C4916 1.349 . S
C4905 C4903 1.327 . S
C4905 C4921 1.429 . S
C4905 H4927 0.950 . S
C4906 H4902 0.949 . S
C4906 C4914 1.574 . S
C4906 C4922 1.368 . S
H4907 C4915 0.950 . S
H4908 C4913 0.950 . S
H4909 C4914 0.949 . S
H4910 C4916 0.950 . S
H4911 C4917 0.950 . S
H4912 C4918 0.949 . S
C4913 H4908 0.950 . S
C4913 C4915 1.327 . S
C4913 C4919 1.429 . S
C4914 C4906 1.574 . S
C4914 H4909 0.949 . S
C4914 C4920 1.368 . S
C4915 C4899 1.349 . S
C4915 H4907 0.950 . S
C4915 C4913 1.327 . S
C4916 C4904 1.349 . S
C4916 H4910 0.950 . S
C4916 C4917 1.327 . S
C4917 H4911 0.950 . S
C4917 C4916 1.327 . S
C4917 C4921 1.429 . S
C4918 C4901 1.574 . S
C4918 H4912 0.949 . S
C4918 C4922 1.368 . S
C4919 C4900 1.429 . S
C4919 C4913 1.429 . S
C4919 C4920 1.523 . S
C4920 C4901 1.368 . S
C4920 C4914 1.368 . S
C4920 C4919 1.523 . S
C4921 C4905 1.429 . S
C4921 C4917 1.429 . S
C4921 C4922 1.523 . S
C4922 C4906 1.368 . S
C4922 C4918 1.368 . S
C4922 C4921 1.523 . S
H4923 C4898 0.950 . S
H4924 C4900 0.950 . S
H4925 C4901 0.949 . S
H4926 C4903 0.950 . S
H4927 C4905 0.950 . S
C4928 C4929 1.349 . S
C4928 C4930 1.327 . S
C4928 H4953 0.950 . S
C4929 C4928 1.349 . S
C4929 C4945 1.349 . S
C4930 C4928 1.327 . S
C4930 C4949 1.429 . S
C4930 H4954 0.950 . S
C4931 C4948 1.574 . S
C4931 C4950 1.368 . S
C4931 H4955 0.949 . S
H4932 C4936 0.949 . S
C4933 C4934 1.349 . S
C4933 C4935 1.327 . S
C4933 H4956 0.950 . S
C4934 C4933 1.349 . S
C4934 C4946 1.349 . S
C4935 C4933 1.327 . S
C4935 C4951 1.429 . S
C4935 H4957 0.950 . S
C4936 H4932 0.949 . S
C4936 C4944 1.574 . S
C4936 C4952 1.368 . S
H4937 C4945 0.950 . S
H4938 C4943 0.950 . S
H4939 C4944 0.949 . S
H4940 C4946 0.950 . S
H4941 C4947 0.950 . S
H4942 C4948 0.949 . S
C4943 H4938 0.950 . S
C4943 C4945 1.327 . S
C4943 C4949 1.429 . S
C4944 C4936 1.574 . S
C4944 H4939 0.949 . S
C4944 C4950 1.368 . S
C4945 C4929 1.349 . S
C4945 H4937 0.950 . S
C4945 C4943 1.327 . S
C4946 C4934 1.349 . S
C4946 H4940 0.950 . S
C4946 C4947 1.327 . S
C4947 H4941 0.950 . S
C4947 C4946 1.327 . S
C4947 C4951 1.429 . S
C4948 C4931 1.574 . S
C4948 H4942 0.949 . S
C4948 C4952 1.368 . S
C4949 C4930 1.429 . S
C4949 C4943 1.429 . S
C4949 C4950 1.523 . S
C4950 C4931 1.368 . S
C4950 C4944 1.368 . S
C4950 C4949 1.523 . S
C4951 C4935 1.429 . S
C4951 C4947 1.429 . S
C4951 C4952 1.523 . S
C4952 C4936 1.368 . S
C4952 C4948 1.368 . S
C4952 C4951 1.523 . S
H4953 C4928 0.950 . S
H4954 C4930 0.950 . S
H4955 C4931 0.949 . S
H4956 C4933 0.950 . S
H4957 C4935 0.950 . S
C4958 C4959 1.349 . S
C4958 C4960 1.327 . S
C4958 H4983 0.950 . S
C4959 C4958 1.349 . S
C4959 C4975 1.349 . S
C4960 C4958 1.327 . S
C4960 C4979 1.429 . S
C4960 H4984 0.950 . S
C4961 C4978 1.574 . S
C4961 C4980 1.368 . S
C4961 H4985 0.949 . S
H4962 C4966 0.949 . S
C4963 C4964 1.349 . S
C4963 C4965 1.327 . S
C4963 H4986 0.950 . S
C4964 C4963 1.349 . S
C4964 C4976 1.349 . S
C4965 C4963 1.327 . S
C4965 C4981 1.429 . S
C4965 H4987 0.950 . S
C4966 H4962 0.949 . S
C4966 C4974 1.574 . S
C4966 C4982 1.368 . S
H4967 C4975 0.950 . S
H4968 C4973 0.950 . S
H4969 C4974 0.949 . S
H4970 C4976 0.950 . S
H4971 C4977 0.950 . S
H4972 C4978 0.949 . S
C4973 H4968 0.950 . S
C4973 C4975 1.327 . S
C4973 C4979 1.429 . S
C4974 C4966 1.574 . S
C4974 H4969 0.949 . S
C4974 C4980 1.368 . S
C4975 C4959 1.349 . S
C4975 H4967 0.950 . S
C4975 C4973 1.327 . S
C4976 C4964 1.349 . S
C4976 H4970 0.950 . S
C4976 C4977 1.327 . S
C4977 H4971 0.950 . S
C4977 C4976 1.327 . S
C4977 C4981 1.429 . S
C4978 C4961 1.574 . S
C4978 H4972 0.949 . S
C4978 C4982 1.368 . S
C4979 C4960 1.429 . S
C4979 C4973 1.429 . S
C4979 C4980 1.523 . S
C4980 C4961 1.368 . S
C4980 C4974 1.368 . S
C4980 C4979 1.523 . S
C4981 C4965 1.429 . S
C4981 C4977 1.429 . S
C4981 C4982 1.523 . S
C4982 C4966 1.368 . S
C4982 C4978 1.368 . S
C4982 C4981 1.523 . S
H4983 C4958 0.950 . S
H4984 C4960 0.950 . S
H4985 C4961 0.949 . S
H4986 C4963 0.950 . S
H4987 C4965 0.950 . S
C4988 C4989 1.349 . S
C4988 C4990 1.327 . S
C4988 H5013 0.950 . S
C4989 C4988 1.349 . S
C4989 C5005 1.349 . S
C4990 C4988 1.327 . S
C4990 C5009 1.429 . S
C4990 H5014 0.950 . S
C4991 C5008 1.574 . S
C4991 C5010 1.368 . S
C4991 H5015 0.949 . S
H4992 C4996 0.949 . S
C4993 C4994 1.349 . S
C4993 C4995 1.327 . S
C4993 H5016 0.950 . S
C4994 C4993 1.349 . S
C4994 C5006 1.349 . S
C4995 C4993 1.327 . S
C4995 C5011 1.429 . S
C4995 H5017 0.950 . S
C4996 H4992 0.949 . S
C4996 C5004 1.574 . S
C4996 C5012 1.368 . S
H4997 C5005 0.950 . S
H4998 C5003 0.950 . S
H4999 C5004 0.949 . S
H5000 C5006 0.950 . S
H5001 C5007 0.950 . S
H5002 C5008 0.949 . S
C5003 H4998 0.950 . S
C5003 C5005 1.327 . S
C5003 C5009 1.429 . S
C5004 C4996 1.574 . S
C5004 H4999 0.949 . S
C5004 C5010 1.368 . S
C5005 C4989 1.349 . S
C5005 H4997 0.950 . S
C5005 C5003 1.327 . S
C5006 C4994 1.349 . S
C5006 H5000 0.950 . S
C5006 C5007 1.327 . S
C5007 H5001 0.950 . S
C5007 C5006 1.327 . S
C5007 C5011 1.429 . S
C5008 C4991 1.574 . S
C5008 H5002 0.949 . S
C5008 C5012 1.368 . S
C5009 C4990 1.429 . S
C5009 C5003 1.429 . S
C5009 C5010 1.523 . S
C5010 C4991 1.368 . S
C5010 C5004 1.368 . S
C5010 C5009 1.523 . S
C5011 C4995 1.429 . S
C5011 C5007 1.429 . S
C5011 C5012 1.523 . S
C5012 C4996 1.368 . S
C5012 C5008 1.368 . S
C5012 C5011 1.523 . S
H5013 C4988 0.950 . S
H5014 C4990 0.950 . S
H5015 C4991 0.949 . S
H5016 C4993 0.950 . S
H5017 C4995 0.950 . S
C5018 C5019 1.349 . S
C5018 C5020 1.327 . S
C5018 H5043 0.950 . S
C5019 C5018 1.349 . S
C5019 C5035 1.349 . S
C5020 C5018 1.327 . S
C5020 C5039 1.429 . S
C5020 H5044 0.950 . S
C5021 C5038 1.574 . S
C5021 C5040 1.368 . S
C5021 H5045 0.949 . S
H5022 C5026 0.949 . S
C5023 C5024 1.349 . S
C5023 C5025 1.327 . S
C5023 H5046 0.950 . S
C5024 C5023 1.349 . S
C5024 C5036 1.349 . S
C5025 C5023 1.327 . S
C5025 C5041 1.429 . S
C5025 H5047 0.950 . S
C5026 H5022 0.949 . S
C5026 C5034 1.574 . S
C5026 C5042 1.368 . S
H5027 C5035 0.950 . S
H5028 C5033 0.950 . S
H5029 C5034 0.949 . S
H5030 C5036 0.950 . S
H5031 C5037 0.950 . S
H5032 C5038 0.949 . S
C5033 H5028 0.950 . S
C5033 C5035 1.327 . S
C5033 C5039 1.429 . S
C5034 C5026 1.574 . S
C5034 H5029 0.949 . S
C5034 C5040 1.368 . S
C5035 C5019 1.349 . S
C5035 H5027 0.950 . S
C5035 C5033 1.327 . S
C5036 C5024 1.349 . S
C5036 H5030 0.950 . S
C5036 C5037 1.327 . S
C5037 H5031 0.950 . S
C5037 C5036 1.327 . S
C5037 C5041 1.429 . S
C5038 C5021 1.574 . S
C5038 H5032 0.949 . S
C5038 C5042 1.368 . S
C5039 C5020 1.429 . S
C5039 C5033 1.429 . S
C5039 C5040 1.523 . S
C5040 C5021 1.368 . S
C5040 C5034 1.368 . S
C5040 C5039 1.523 . S
C5041 C5025 1.429 . S
C5041 C5037 1.429 . S
C5041 C5042 1.523 . S
C5042 C5026 1.368 . S
C5042 C5038 1.368 . S
C5042 C5041 1.523 . S
H5043 C5018 0.950 . S
H5044 C5020 0.950 . S
H5045 C5021 0.949 . S
H5046 C5023 0.950 . S
H5047 C5025 0.950 . S
C5048 C5049 1.349 . S
C5048 C5050 1.327 . S
C5048 H5073 0.950 . S
C5049 C5048 1.349 . S
C5049 C5065 1.349 . S
C5050 C5048 1.327 . S
C5050 C5069 1.429 . S
C5050 H5074 0.950 . S
C5051 C5068 1.574 . S
C5051 C5070 1.368 . S
C5051 H5075 0.949 . S
H5052 C5056 0.949 . S
C5053 C5054 1.349 . S
C5053 C5055 1.327 . S
C5053 H5076 0.950 . S
C5054 C5053 1.349 . S
C5054 C5066 1.349 . S
C5055 C5053 1.327 . S
C5055 C5071 1.429 . S
C5055 H5077 0.950 . S
C5056 H5052 0.949 . S
C5056 C5064 1.574 . S
C5056 C5072 1.368 . S
H5057 C5065 0.950 . S
H5058 C5063 0.950 . S
H5059 C5064 0.949 . S
H5060 C5066 0.950 . S
H5061 C5067 0.950 . S
H5062 C5068 0.949 . S
C5063 H5058 0.950 . S
C5063 C5065 1.327 . S
C5063 C5069 1.429 . S
C5064 C5056 1.574 . S
C5064 H5059 0.949 . S
C5064 C5070 1.368 . S
C5065 C5049 1.349 . S
C5065 H5057 0.950 . S
C5065 C5063 1.327 . S
C5066 C5054 1.349 . S
C5066 H5060 0.950 . S
C5066 C5067 1.327 . S
C5067 H5061 0.950 . S
C5067 C5066 1.327 . S
C5067 C5071 1.429 . S
C5068 C5051 1.574 . S
C5068 H5062 0.949 . S
C5068 C5072 1.368 . S
C5069 C5050 1.429 . S
C5069 C5063 1.429 . S
C5069 C5070 1.523 . S
C5070 C5051 1.368 . S
C5070 C5064 1.368 . S
C5070 C5069 1.523 . S
C5071 C5055 1.429 . S
C5071 C5067 1.429 . S
C5071 C5072 1.523 . S
C5072 C5056 1.368 . S
C5072 C5068 1.368 . S
C5072 C5071 1.523 . S
H5073 C5048 0.950 . S
H5074 C5050 0.950 . S
H5075 C5051 0.949 . S
H5076 C5053 0.950 . S
H5077 C5055 0.950 . S
C5078 C5079 1.349 . S
C5078 C5080 1.327 . S
C5078 H5103 0.950 . S
C5079 C5078 1.349 . S
C5079 C5095 1.349 . S
C5080 C5078 1.327 . S
C5080 C5099 1.429 . S
C5080 H5104 0.950 . S
C5081 C5098 1.574 . S
C5081 C5100 1.368 . S
C5081 H5105 0.949 . S
H5082 C5086 0.949 . S
C5083 C5084 1.349 . S
C5083 C5085 1.327 . S
C5083 H5106 0.950 . S
C5084 C5083 1.349 . S
C5084 C5096 1.349 . S
C5085 C5083 1.327 . S
C5085 C5101 1.429 . S
C5085 H5107 0.950 . S
C5086 H5082 0.949 . S
C5086 C5094 1.574 . S
C5086 C5102 1.368 . S
H5087 C5095 0.950 . S
H5088 C5093 0.950 . S
H5089 C5094 0.949 . S
H5090 C5096 0.950 . S
H5091 C5097 0.950 . S
H5092 C5098 0.949 . S
C5093 H5088 0.950 . S
C5093 C5095 1.327 . S
C5093 C5099 1.429 . S
C5094 C5086 1.574 . S
C5094 H5089 0.949 . S
C5094 C5100 1.368 . S
C5095 C5079 1.349 . S
C5095 H5087 0.950 . S
C5095 C5093 1.327 . S
C5096 C5084 1.349 . S
C5096 H5090 0.950 . S
C5096 C5097 1.327 . S
C5097 H5091 0.950 . S
C5097 C5096 1.327 . S
C5097 C5101 1.429 . S
C5098 C5081 1.574 . S
C5098 H5092 0.949 . S
C5098 C5102 1.368 . S
C5099 C5080 1.429 . S
C5099 C5093 1.429 . S
C5099 C5100 1.523 . S
C5100 C5081 1.368 . S
C5100 C5094 1.368 . S
C5100 C5099 1.523 . S
C5101 C5085 1.429 . S
C5101 C5097 1.429 . S
C5101 C5102 1.523 . S
C5102 C5086 1.368 . S
C5102 C5098 1.368 . S
C5102 C5101 1.523 . S
H5103 C5078 0.950 . S
H5104 C5080 0.950 . S
H5105 C5081 0.949 . S
H5106 C5083 0.950 . S
H5107 C5085 0.950 . S
C5108 C5109 1.349 . S
C5108 C5110 1.327 . S
C5108 H5133 0.950 . S
C5109 C5108 1.349 . S
C5109 C5125 1.349 . S
C5110 C5108 1.327 . S
C5110 C5129 1.429 . S
C5110 H5134 0.950 . S
C5111 C5128 1.574 . S
C5111 C5130 1.368 . S
C5111 H5135 0.949 . S
H5112 C5116 0.949 . S
C5113 C5114 1.349 . S
C5113 C5115 1.327 . S
C5113 H5136 0.950 . S
C5114 C5113 1.349 . S
C5114 C5126 1.349 . S
C5115 C5113 1.327 . S
C5115 C5131 1.429 . S
C5115 H5137 0.950 . S
C5116 H5112 0.949 . S
C5116 C5124 1.574 . S
C5116 C5132 1.368 . S
H5117 C5125 0.950 . S
H5118 C5123 0.950 . S
H5119 C5124 0.949 . S
H5120 C5126 0.950 . S
H5121 C5127 0.950 . S
H5122 C5128 0.949 . S
C5123 H5118 0.950 . S
C5123 C5125 1.327 . S
C5123 C5129 1.429 . S
C5124 C5116 1.574 . S
C5124 H5119 0.949 . S
C5124 C5130 1.368 . S
C5125 C5109 1.349 . S
C5125 H5117 0.950 . S
C5125 C5123 1.327 . S
C5126 C5114 1.349 . S
C5126 H5120 0.950 . S
C5126 C5127 1.327 . S
C5127 H5121 0.950 . S
C5127 C5126 1.327 . S
C5127 C5131 1.429 . S
C5128 C5111 1.574 . S
C5128 H5122 0.949 . S
C5128 C5132 1.368 . S
C5129 C5110 1.429 . S
C5129 C5123 1.429 . S
C5129 C5130 1.523 . S
C5130 C5111 1.368 . S
C5130 C5124 1.368 . S
C5130 C5129 1.523 . S
C5131 C5115 1.429 . S
C5131 C5127 1.429 . S
C5131 C5132 1.523 . S
C5132 C5116 1.368 . S
C5132 C5128 1.368 . S
C5132 C5131 1.523 . S
H5133 C5108 0.950 . S
H5134 C5110 0.950 . S
H5135 C5111 0.949 . S
H5136 C5113 0.950 . S
H5137 C5115 0.950 . S
C5138 C5139 1.349 . S
C5138 C5140 1.327 . S
C5138 H5163 0.950 . S
C5139 C5138 1.349 . S
C5139 C5155 1.349 . S
C5140 C5138 1.327 . S
C5140 C5159 1.429 . S
C5140 H5164 0.950 . S
C5141 C5158 1.574 . S
C5141 C5160 1.368 . S
C5141 H5165 0.949 . S
H5142 C5146 0.949 . S
C5143 C5144 1.349 . S
C5143 C5145 1.327 . S
C5143 H5166 0.950 . S
C5144 C5143 1.349 . S
C5144 C5156 1.349 . S
C5145 C5143 1.327 . S
C5145 C5161 1.429 . S
C5145 H5167 0.950 . S
C5146 H5142 0.949 . S
C5146 C5154 1.574 . S
C5146 C5162 1.368 . S
H5147 C5155 0.950 . S
H5148 C5153 0.950 . S
H5149 C5154 0.949 . S
H5150 C5156 0.950 . S
H5151 C5157 0.950 . S
H5152 C5158 0.949 . S
C5153 H5148 0.950 . S
C5153 C5155 1.327 . S
C5153 C5159 1.429 . S
C5154 C5146 1.574 . S
C5154 H5149 0.949 . S
C5154 C5160 1.368 . S
C5155 C5139 1.349 . S
C5155 H5147 0.950 . S
C5155 C5153 1.327 . S
C5156 C5144 1.349 . S
C5156 H5150 0.950 . S
C5156 C5157 1.327 . S
C5157 H5151 0.950 . S
C5157 C5156 1.327 . S
C5157 C5161 1.429 . S
C5158 C5141 1.574 . S
C5158 H5152 0.949 . S
C5158 C5162 1.368 . S
C5159 C5140 1.429 . S
C5159 C5153 1.429 . S
C5159 C5160 1.523 . S
C5160 C5141 1.368 . S
C5160 C5154 1.368 . S
C5160 C5159 1.523 . S
C5161 C5145 1.429 . S
C5161 C5157 1.429 . S
C5161 C5162 1.523 . S
C5162 C5146 1.368 . S
C5162 C5158 1.368 . S
C5162 C5161 1.523 . S
H5163 C5138 0.950 . S
H5164 C5140 0.950 . S
H5165 C5141 0.949 . S
H5166 C5143 0.950 . S
H5167 C5145 0.950 . S
C5168 C5169 1.349 . S
C5168 C5170 1.327 . S
C5168 H5193 0.950 . S
C5169 C5168 1.349 . S
C5169 C5185 1.349 . S
C5170 C5168 1.327 . S
C5170 C5189 1.429 . S
C5170 H5194 0.950 . S
C5171 C5188 1.574 . S
C5171 C5190 1.368 . S
C5171 H5195 0.949 . S
H5172 C5176 0.949 . S
C5173 C5174 1.349 . S
C5173 C5175 1.327 . S
C5173 H5196 0.950 . S
C5174 C5173 1.349 . S
C5174 C5186 1.349 . S
C5175 C5173 1.327 . S
C5175 C5191 1.429 . S
C5175 H5197 0.950 . S
C5176 H5172 0.949 . S
C5176 C5184 1.574 . S
C5176 C5192 1.368 . S
H5177 C5185 0.950 . S
H5178 C5183 0.950 . S
H5179 C5184 0.949 . S
H5180 C5186 0.950 . S
H5181 C5187 0.950 . S
H5182 C5188 0.949 . S
C5183 H5178 0.950 . S
C5183 C5185 1.327 . S
C5183 C5189 1.429 . S
C5184 C5176 1.574 . S
C5184 H5179 0.949 . S
C5184 C5190 1.368 . S
C5185 C5169 1.349 . S
C5185 H5177 0.950 . S
C5185 C5183 1.327 . S
C5186 C5174 1.349 . S
C5186 H5180 0.950 . S
C5186 C5187 1.327 . S
C5187 H5181 0.950 . S
C5187 C5186 1.327 . S
C5187 C5191 1.429 . S
C5188 C5171 1.574 . S
C5188 H5182 0.949 . S
C5188 C5192 1.368 . S
C5189 C5170 1.429 . S
C5189 C5183 1.429 . S
C5189 C5190 1.523 . S
C5190 C5171 1.368 . S
C5190 C5184 1.368 . S
C5190 C5189 1.523 . S
C5191 C5175 1.429 . S
C5191 C5187 1.429 . S
C5191 C5192 1.523 . S
C5192 C5176 1.368 . S
C5192 C5188 1.368 . S
C5192 C5191 1.523 . S
H5193 C5168 0.950 . S
H5194 C5170 0.950 . S
H5195 C5171 0.949 . S
H5196 C5173 0.950 . S
H5197 C5175 0.950 . S
C5198 C5199 1.349 . S
C5198 C5200 1.327 . S
C5198 H5223 0.950 . S
C5199 C5198 1.349 . S
C5199 C5215 1.349 . S
C5200 C5198 1.327 . S
C5200 C5219 1.429 . S
C5200 H5224 0.950 . S
C5201 C5218 1.574 . S
C5201 C5220 1.368 . S
C5201 H5225 0.949 . S
H5202 C5206 0.949 . S
C5203 C5204 1.349 . S
C5203 C5205 1.327 . S
C5203 H5226 0.950 . S
C5204 C5203 1.349 . S
C5204 C5216 1.349 . S
C5205 C5203 1.327 . S
C5205 C5221 1.429 . S
C5205 H5227 0.950 . S
C5206 H5202 0.949 . S
C5206 C5214 1.574 . S
C5206 C5222 1.368 . S
H5207 C5215 0.950 . S
H5208 C5213 0.950 . S
H5209 C5214 0.949 . S
H5210 C5216 0.950 . S
H5211 C5217 0.950 . S
H5212 C5218 0.949 . S
C5213 H5208 0.950 . S
C5213 C5215 1.327 . S
C5213 C5219 1.429 . S
C5214 C5206 1.574 . S
C5214 H5209 0.949 . S
C5214 C5220 1.368 . S
C5215 C5199 1.349 . S
C5215 H5207 0.950 . S
C5215 C5213 1.327 . S
C5216 C5204 1.349 . S
C5216 H5210 0.950 . S
C5216 C5217 1.327 . S
C5217 H5211 0.950 . S
C5217 C5216 1.327 . S
C5217 C5221 1.429 . S
C5218 C5201 1.574 . S
C5218 H5212 0.949 . S
C5218 C5222 1.368 . S
C5219 C5200 1.429 . S
C5219 C5213 1.429 . S
C5219 C5220 1.523 . S
C5220 C5201 1.368 . S
C5220 C5214 1.368 . S
C5220 C5219 1.523 . S
C5221 C5205 1.429 . S
C5221 C5217 1.429 . S
C5221 C5222 1.523 . S
C5222 C5206 1.368 . S
C5222 C5218 1.368 . S
C5222 C5221 1.523 . S
H5223 C5198 0.950 . S
H5224 C5200 0.950 . S
H5225 C5201 0.949 . S
H5226 C5203 0.950 . S
H5227 C5205 0.950 . S
C5228 C5229 1.349 . S
C5228 C5230 1.327 . S
C5228 H5253 0.950 . S
C5229 C5228 1.349 . S
C5229 C5245 1.349 . S
C5230 C5228 1.327 . S
C5230 C5249 1.429 . S
C5230 H5254 0.950 . S
C5231 C5248 1.574 . S
C5231 C5250 1.368 . S
C5231 H5255 0.949 . S
H5232 C5236 0.949 . S
C5233 C5234 1.349 . S
C5233 C5235 1.327 . S
C5233 H5256 0.950 . S
C5234 C5233 1.349 . S
C5234 C5246 1.349 . S
C5235 C5233 1.327 . S
C5235 C5251 1.429 . S
C5235 H5257 0.950 . S
C5236 H5232 0.949 . S
C5236 C5244 1.574 . S
C5236 C5252 1.368 . S
H5237 C5245 0.950 . S
H5238 C5243 0.950 . S
H5239 C5244 0.949 . S
H5240 C5246 0.950 . S
H5241 C5247 0.950 . S
H5242 C5248 0.949 . S
C5243 H5238 0.950 . S
C5243 C5245 1.327 . S
C5243 C5249 1.429 . S
C5244 C5236 1.574 . S
C5244 H5239 0.949 . S
C5244 C5250 1.368 . S
C5245 C5229 1.349 . S
C5245 H5237 0.950 . S
C5245 C5243 1.327 . S
C5246 C5234 1.349 . S
C5246 H5240 0.950 . S
C5246 C5247 1.327 . S
C5247 H5241 0.950 . S
C5247 C5246 1.327 . S
C5247 C5251 1.429 . S
C5248 C5231 1.574 . S
C5248 H5242 0.949 . S
C5248 C5252 1.368 . S
C5249 C5230 1.429 . S
C5249 C5243 1.429 . S
C5249 C5250 1.523 . S
C5250 C5231 1.368 . S
C5250 C5244 1.368 . S
C5250 C5249 1.523 . S
C5251 C5235 1.429 . S
C5251 C5247 1.429 . S
C5251 C5252 1.523 . S
C5252 C5236 1.368 . S
C5252 C5248 1.368 . S
C5252 C5251 1.523 . S
H5253 C5228 0.950 . S
H5254 C5230 0.950 . S
H5255 C5231 0.949 . S
H5256 C5233 0.950 . S
H5257 C5235 0.950 . S
C5258 C5259 1.349 . S
C5258 C5260 1.327 . S
C5258 H5283 0.950 . S
C5259 C5258 1.349 . S
C5259 C5275 1.349 . S
C5260 C5258 1.327 . S
C5260 C5279 1.429 . S
C5260 H5284 0.950 . S
C5261 C5278 1.574 . S
C5261 C5280 1.368 . S
C5261 H5285 0.949 . S
H5262 C5266 0.949 . S
C5263 C5264 1.349 . S
C5263 C5265 1.327 . S
C5263 H5286 0.950 . S
C5264 C5263 1.349 . S
C5264 C5276 1.349 . S
C5265 C5263 1.327 . S
C5265 C5281 1.429 . S
C5265 H5287 0.950 . S
C5266 H5262 0.949 . S
C5266 C5274 1.574 . S
C5266 C5282 1.368 . S
H5267 C5275 0.950 . S
H5268 C5273 0.950 . S
H5269 C5274 0.949 . S
H5270 C5276 0.950 . S
H5271 C5277 0.950 . S
H5272 C5278 0.949 . S
C5273 H5268 0.950 . S
C5273 C5275 1.327 . S
C5273 C5279 1.429 . S
C5274 C5266 1.574 . S
C5274 H5269 0.949 . S
C5274 C5280 1.368 . S
C5275 C5259 1.349 . S
C5275 H5267 0.950 . S
C5275 C5273 1.327 . S
C5276 C5264 1.349 . S
C5276 H5270 0.950 . S
C5276 C5277 1.327 . S
C5277 H5271 0.950 . S
C5277 C5276 1.327 . S
C5277 C5281 1.429 . S
C5278 C5261 1.574 . S
C5278 H5272 0.949 . S
C5278 C5282 1.368 . S
C5279 C5260 1.429 . S
C5279 C5273 1.429 . S
C5279 C5280 1.523 . S
C5280 C5261 1.368 . S
C5280 C5274 1.368 . S
C5280 C5279 1.523 . S
C5281 C5265 1.429 . S
C5281 C5277 1.429 . S
C5281 C5282 1.523 . S
C5282 C5266 1.368 . S
C5282 C5278 1.368 . S
C5282 C5281 1.523 . S
H5283 C5258 0.950 . S
H5284 C5260 0.950 . S
H5285 C5261 0.949 . S
H5286 C5263 0.950 . S
H5287 C5265 0.950 . S
C5288 C5289 1.349 . S
C5288 C5290 1.327 . S
C5288 H5313 0.950 . S
C5289 C5288 1.349 . S
C5289 C5305 1.349 . S
C5290 C5288 1.327 . S
C5290 C5309 1.429 . S
C5290 H5314 0.950 . S
C5291 C5308 1.574 . S
C5291 C5310 1.368 . S
C5291 H5315 0.949 . S
H5292 C5296 0.949 . S
C5293 C5294 1.349 . S
C5293 C5295 1.327 . S
C5293 H5316 0.950 . S
C5294 C5293 1.349 . S
C5294 C5306 1.349 . S
C5295 C5293 1.327 . S
C5295 C5311 1.429 . S
C5295 H5317 0.950 . S
C5296 H5292 0.949 . S
C5296 C5304 1.574 . S
C5296 C5312 1.368 . S
H5297 C5305 0.950 . S
H5298 C5303 0.950 . S
H5299 C5304 0.949 . S
H5300 C5306 0.950 . S
H5301 C5307 0.950 . S
H5302 C5308 0.949 . S
C5303 H5298 0.950 . S
C5303 C5305 1.327 . S
C5303 C5309 1.429 . S
C5304 C5296 1.574 . S
C5304 H5299 0.949 . S
C5304 C5310 1.368 . S
C5305 C5289 1.349 . S
C5305 H5297 0.950 . S
C5305 C5303 1.327 . S
C5306 C5294 1.349 . S
C5306 H5300 0.950 . S
C5306 C5307 1.327 . S
C5307 H5301 0.950 . S
C5307 C5306 1.327 . S
C5307 C5311 1.429 . S
C5308 C5291 1.574 . S
C5308 H5302 0.949 . S
C5308 C5312 1.368 . S
C5309 C5290 1.429 . S
C5309 C5303 1.429 . S
C5309 C5310 1.523 . S
C5310 C5291 1.368 . S
C5310 C5304 1.368 . S
C5310 C5309 1.523 . S
C5311 C5295 1.429 . S
C5311 C5307 1.429 . S
C5311 C5312 1.523 . S
C5312 C5296 1.368 . S
C5312 C5308 1.368 . S
C5312 C5311 1.523 . S
H5313 C5288 0.950 . S
H5314 C5290 0.950 . S
H5315 C5291 0.949 . S
H5316 C5293 0.950 . S
H5317 C5295 0.950 . S
C5318 C5319 1.349 . S
C5318 C5320 1.327 . S
C5318 H5343 0.950 . S
C5319 C5318 1.349 . S
C5319 C5335 1.349 . S
C5320 C5318 1.327 . S
C5320 C5339 1.429 . S
C5320 H5344 0.950 . S
C5321 C5338 1.574 . S
C5321 C5340 1.368 . S
C5321 H5345 0.949 . S
H5322 C5326 0.949 . S
C5323 C5324 1.349 . S
C5323 C5325 1.327 . S
C5323 H5346 0.950 . S
C5324 C5323 1.349 . S
C5324 C5336 1.349 . S
C5325 C5323 1.327 . S
C5325 C5341 1.429 . S
C5325 H5347 0.950 . S
C5326 H5322 0.949 . S
C5326 C5334 1.574 . S
C5326 C5342 1.368 . S
H5327 C5335 0.950 . S
H5328 C5333 0.950 . S
H5329 C5334 0.949 . S
H5330 C5336 0.950 . S
H5331 C5337 0.950 . S
H5332 C5338 0.949 . S
C5333 H5328 0.950 . S
C5333 C5335 1.327 . S
C5333 C5339 1.429 . S
C5334 C5326 1.574 . S
C5334 H5329 0.949 . S
C5334 C5340 1.368 . S
C5335 C5319 1.349 . S
C5335 H5327 0.950 . S
C5335 C5333 1.327 . S
C5336 C5324 1.349 . S
C5336 H5330 0.950 . S
C5336 C5337 1.327 . S
C5337 H5331 0.950 . S
C5337 C5336 1.327 . S
C5337 C5341 1.429 . S
C5338 C5321 1.574 . S
C5338 H5332 0.949 . S
C5338 C5342 1.368 . S
C5339 C5320 1.429 . S
C5339 C5333 1.429 . S
C5339 C5340 1.523 . S
C5340 C5321 1.368 . S
C5340 C5334 1.368 . S
C5340 C5339 1.523 . S
C5341 C5325 1.429 . S
C5341 C5337 1.429 . S
C5341 C5342 1.523 . S
C5342 C5326 1.368 . S
C5342 C5338 1.368 . S
C5342 C5341 1.523 . S
H5343 C5318 0.950 . S
H5344 C5320 0.950 . S
H5345 C5321 0.949 . S
H5346 C5323 0.950 . S
H5347 C5325 0.950 . S
C5348 C5349 1.349 . S
C5348 C5350 1.327 . S
C5348 H5373 0.950 . S
C5349 C5348 1.349 . S
C5349 C5365 1.349 . S
C5350 C5348 1.327 . S
C5350 C5369 1.429 . S
C5350 H5374 0.950 . S
C5351 C5368 1.574 . S
C5351 C5370 1.368 . S
C5351 H5375 0.949 . S
H5352 C5356 0.949 . S
C5353 C5354 1.349 . S
C5353 C5355 1.327 . S
C5353 H5376 0.950 . S
C5354 C5353 1.349 . S
C5354 C5366 1.349 . S
C5355 C5353 1.327 . S
C5355 C5371 1.429 . S
C5355 H5377 0.950 . S
C5356 H5352 0.949 . S
C5356 C5364 1.574 . S
C5356 C5372 1.368 . S
H5357 C5365 0.950 . S
H5358 C5363 0.950 . S
H5359 C5364 0.949 . S
H5360 C5366 0.950 . S
H5361 C5367 0.950 . S
H5362 C5368 0.949 . S
C5363 H5358 0.950 . S
C5363 C5365 1.327 . S
C5363 C5369 1.429 . S
C5364 C5356 1.574 . S
C5364 H5359 0.949 . S
C5364 C5370 1.368 . S
C5365 C5349 1.349 . S
C5365 H5357 0.950 . S
C5365 C5363 1.327 . S
C5366 C5354 1.349 . S
C5366 H5360 0.950 . S
C5366 C5367 1.327 . S
C5367 H5361 0.950 . S
C5367 C5366 1.327 . S
C5367 C5371 1.429 . S
C5368 C5351 1.574 . S
C5368 H5362 0.949 . S
C5368 C5372 1.368 . S
C5369 C5350 1.429 . S
C5369 C5363 1.429 . S
C5369 C5370 1.523 . S
C5370 C5351 1.368 . S
C5370 C5364 1.368 . S
C5370 C5369 1.523 . S
C5371 C5355 1.429 . S
C5371 C5367 1.429 . S
C5371 C5372 1.523 . S
C5372 C5356 1.368 . S
C5372 C5368 1.368 . S
C5372 C5371 1.523 . S
H5373 C5348 0.950 . S
H5374 C5350 0.950 . S
H5375 C5351 0.949 . S
H5376 C5353 0.950 . S
H5377 C5355 0.950 . S
C5378 C5379 1.349 . S
C5378 C5380 1.327 . S
C5378 H5403 0.950 . S
C5379 C5378 1.349 . S
C5379 C5395 1.349 . S
C5380 C5378 1.327 . S
C5380 C5399 1.429 . S
C5380 H5404 0.950 . S
C5381 C5398 1.574 . S
C5381 C5400 1.368 . S
C5381 H5405 0.949 . S
H5382 C5386 0.949 . S
C5383 C5384 1.349 . S
C5383 C5385 1.327 . S
C5383 H5406 0.950 . S
C5384 C5383 1.349 . S
C5384 C5396 1.349 . S
C5385 C5383 1.327 . S
C5385 C5401 1.429 . S
C5385 H5407 0.950 . S
C5386 H5382 0.949 . S
C5386 C5394 1.574 . S
C5386 C5402 1.368 . S
H5387 C5395 0.950 . S
H5388 C5393 0.950 . S
H5389 C5394 0.949 . S
H5390 C5396 0.950 . S
H5391 C5397 0.950 . S
H5392 C5398 0.949 . S
C5393 H5388 0.950 . S
C5393 C5395 1.327 . S
C5393 C5399 1.429 . S
C5394 C5386 1.574 . S
C5394 H5389 0.949 . S
C5394 C5400 1.368 . S
C5395 C5379 1.349 . S
C5395 H5387 0.950 . S
C5395 C5393 1.327 . S
C5396 C5384 1.349 . S
C5396 H5390 0.950 . S
C5396 C5397 1.327 . S
C5397 H5391 0.950 . S
C5397 C5396 1.327 . S
C5397 C5401 1.429 . S
C5398 C5381 1.574 . S
C5398 H5392 0.949 . S
C5398 C5402 1.368 . S
C5399 C5380 1.429 . S
C5399 C5393 1.429 . S
C5399 C5400 1.523 . S
C5400 C5381 1.368 . S
C5400 C5394 1.368 . S
C5400 C5399 1.523 . S
C5401 C5385 1.429 . S
C5401 C5397 1.429 . S
C5401 C5402 1.523 . S
C5402 C5386 1.368 . S
C5402 C5398 1.368 . S
C5402 C5401 1.523 . S
H5403 C5378 0.950 . S
H5404 C5380 0.950 . S
H5405 C5381 0.949 . S
H5406 C5383 0.950 . S
H5407 C5385 0.950 . S
C5408 C5409 1.349 . S
C5408 C5410 1.327 . S
C5408 H5433 0.950 . S
C5409 C5408 1.349 . S
C5409 C5425 1.349 . S
C5410 C5408 1.327 . S
C5410 C5429 1.429 . S
C5410 H5434 0.950 . S
C5411 C5428 1.574 . S
C5411 C5430 1.368 . S
C5411 H5435 0.949 . S
H5412 C5416 0.949 . S
C5413 C5414 1.349 . S
C5413 C5415 1.327 . S
C5413 H5436 0.950 . S
C5414 C5413 1.349 . S
C5414 C5426 1.349 . S
C5415 C5413 1.327 . S
C5415 C5431 1.429 . S
C5415 H5437 0.950 . S
C5416 H5412 0.949 . S
C5416 C5424 1.574 . S
C5416 C5432 1.368 . S
H5417 C5425 0.950 . S
H5418 C5423 0.950 . S
H5419 C5424 0.949 . S
H5420 C5426 0.950 . S
H5421 C5427 0.950 . S
H5422 C5428 0.949 . S
C5423 H5418 0.950 . S
C5423 C5425 1.327 . S
C5423 C5429 1.429 . S
C5424 C5416 1.574 . S
C5424 H5419 0.949 . S
C5424 C5430 1.368 . S
C5425 C5409 1.349 . S
C5425 H5417 0.950 . S
C5425 C5423 1.327 . S
C5426 C5414 1.349 . S
C5426 H5420 0.950 . S
C5426 C5427 1.327 . S
C5427 H5421 0.950 . S
C5427 C5426 1.327 . S
C5427 C5431 1.429 . S
C5428 C5411 1.574 . S
C5428 H5422 0.949 . S
C5428 C5432 1.368 . S
C5429 C5410 1.429 . S
C5429 C5423 1.429 . S
C5429 C5430 1.523 . S
C5430 C5411 1.368 . S
C5430 C5424 1.368 . S
C5430 C5429 1.523 . S
C5431 C5415 1.429 . S
C5431 C5427 1.429 . S
C5431 C5432 1.523 . S
C5432 C5416 1.368 . S
C5432 C5428 1.368 . S
C5432 C5431 1.523 . S
H5433 C5408 0.950 . S
H5434 C5410 0.950 . S
H5435 C5411 0.949 . S
H5436 C5413 0.950 . S
H5437 C5415 0.950 . S
C5438 C5439 1.349 . S
C5438 C5440 1.327 . S
C5438 H5463 0.950 . S
C5439 C5438 1.349 . S
C5439 C5455 1.349 . S
C5440 C5438 1.327 . S
C5440 C5459 1.429 . S
C5440 H5464 0.950 . S
C5441 C5458 1.574 . S
C5441 C5460 1.368 . S
C5441 H5465 0.949 . S
H5442 C5446 0.949 . S
C5443 C5444 1.349 . S
C5443 C5445 1.327 . S
C5443 H5466 0.950 . S
C5444 C5443 1.349 . S
C5444 C5456 1.349 . S
C5445 C5443 1.327 . S
C5445 C5461 1.429 . S
C5445 H5467 0.950 . S
C5446 H5442 0.949 . S
C5446 C5454 1.574 . S
C5446 C5462 1.368 . S
H5447 C5455 0.950 . S
H5448 C5453 0.950 . S
H5449 C5454 0.949 . S
H5450 C5456 0.950 . S
H5451 C5457 0.950 . S
H5452 C5458 0.949 . S
C5453 H5448 0.950 . S
C5453 C5455 1.327 . S
C5453 C5459 1.429 . S
C5454 C5446 1.574 . S
C5454 H5449 0.949 . S
C5454 C5460 1.368 . S
C5455 C5439 1.349 . S
C5455 H5447 0.950 . S
C5455 C5453 1.327 . S
C5456 C5444 1.349 . S
C5456 H5450 0.950 . S
C5456 C5457 1.327 . S
C5457 H5451 0.950 . S
C5457 C5456 1.327 . S
C5457 C5461 1.429 . S
C5458 C5441 1.574 . S
C5458 H5452 0.949 . S
C5458 C5462 1.368 . S
C5459 C5440 1.429 . S
C5459 C5453 1.429 . S
C5459 C5460 1.523 . S
C5460 C5441 1.368 . S
C5460 C5454 1.368 . S
C5460 C5459 1.523 . S
C5461 C5445 1.429 . S
C5461 C5457 1.429 . S
C5461 C5462 1.523 . S
C5462 C5446 1.368 . S
C5462 C5458 1.368 . S
C5462 C5461 1.523 . S
H5463 C5438 0.950 . S
H5464 C5440 0.950 . S
H5465 C5441 0.949 . S
H5466 C5443 0.950 . S
H5467 C5445 0.950 . S
C5468 C5469 1.349 . S
C5468 C5470 1.327 . S
C5468 H5493 0.950 . S
C5469 C5468 1.349 . S
C5469 C5485 1.349 . S
C5470 C5468 1.327 . S
C5470 C5489 1.429 . S
C5470 H5494 0.950 . S
C5471 C5488 1.574 . S
C5471 C5490 1.368 . S
C5471 H5495 0.949 . S
H5472 C5476 0.949 . S
C5473 C5474 1.349 . S
C5473 C5475 1.327 . S
C5473 H5496 0.950 . S
C5474 C5473 1.349 . S
C5474 C5486 1.349 . S
C5475 C5473 1.327 . S
C5475 C5491 1.429 . S
C5475 H5497 0.950 . S
C5476 H5472 0.949 . S
C5476 C5484 1.574 . S
C5476 C5492 1.368 . S
H5477 C5485 0.950 . S
H5478 C5483 0.950 . S
H5479 C5484 0.949 . S
H5480 C5486 0.950 . S
H5481 C5487 0.950 . S
H5482 C5488 0.949 . S
C5483 H5478 0.950 . S
C5483 C5485 1.327 . S
C5483 C5489 1.429 . S
C5484 C5476 1.574 . S
C5484 H5479 0.949 . S
C5484 C5490 1.368 . S
C5485 C5469 1.349 . S
C5485 H5477 0.950 . S
C5485 C5483 1.327 . S
C5486 C5474 1.349 . S
C5486 H5480 0.950 . S
C5486 C5487 1.327 . S
C5487 H5481 0.950 . S
C5487 C5486 1.327 . S
C5487 C5491 1.429 . S
C5488 C5471 1.574 . S
C5488 H5482 0.949 . S
C5488 C5492 1.368 . S
C5489 C5470 1.429 . S
C5489 C5483 1.429 . S
C5489 C5490 1.523 . S
C5490 C5471 1.368 . S
C5490 C5484 1.368 . S
C5490 C5489 1.523 . S
C5491 C5475 1.429 . S
C5491 C5487 1.429 . S
C5491 C5492 1.523 . S
C5492 C5476 1.368 . S
C5492 C5488 1.368 . S
C5492 C5491 1.523 . S
H5493 C5468 0.950 . S
H5494 C5470 0.950 . S
H5495 C5471 0.949 . S
H5496 C5473 0.950 . S
H5497 C5475 0.950 . S
C5498 C5499 1.349 . S
C5498 C5500 1.327 . S
C5498 H5523 0.950 . S
C5499 C5498 1.349 . S
C5499 C5515 1.349 . S
C5500 C5498 1.327 . S
C5500 C5519 1.429 . S
C5500 H5524 0.950 . S
C5501 C5518 1.574 . S
C5501 C5520 1.368 . S
C5501 H5525 0.949 . S
H5502 C5506 0.949 . S
C5503 C5504 1.349 . S
C5503 C5505 1.327 . S
C5503 H5526 0.950 . S
C5504 C5503 1.349 . S
C5504 C5516 1.349 . S
C5505 C5503 1.327 . S
C5505 C5521 1.429 . S
C5505 H5527 0.950 . S
C5506 H5502 0.949 . S
C5506 C5514 1.574 . S
C5506 C5522 1.368 . S
H5507 C5515 0.950 . S
H5508 C5513 0.950 . S
H5509 C5514 0.949 . S
H5510 C5516 0.950 . S
H5511 C5517 0.950 . S
H5512 C5518 0.949 . S
C5513 H5508 0.950 . S
C5513 C5515 1.327 . S
C5513 C5519 1.429 . S
C5514 C5506 1.574 . S
C5514 H5509 0.949 . S
C5514 C5520 1.368 . S
C5515 C5499 1.349 . S
C5515 H5507 0.950 . S
C5515 C5513 1.327 . S
C5516 C5504 1.349 . S
C5516 H5510 0.950 . S
C5516 C5517 1.327 . S
C5517 H5511 0.950 . S
C5517 C5516 1.327 . S
C5517 C5521 1.429 . S
C5518 C5501 1.574 . S
C5518 H5512 0.949 . S
C5518 C5522 1.368 . S
C5519 C5500 1.429 . S
C5519 C5513 1.429 . S
C5519 C5520 1.523 . S
C5520 C5501 1.368 . S
C5520 C5514 1.368 . S
C5520 C5519 1.523 . S
C5521 C5505 1.429 . S
C5521 C5517 1.429 . S
C5521 C5522 1.523 . S
C5522 C5506 1.368 . S
C5522 C5518 1.368 . S
C5522 C5521 1.523 . S
H5523 C5498 0.950 . S
H5524 C5500 0.950 . S
H5525 C5501 0.949 . S
H5526 C5503 0.950 . S
H5527 C5505 0.950 . S
C5528 C5529 1.349 . S
C5528 C5530 1.327 . S
C5528 H5553 0.950 . S
C5529 C5528 1.349 . S
C5529 C5545 1.349 . S
C5530 C5528 1.327 . S
C5530 C5549 1.429 . S
C5530 H5554 0.950 . S
C5531 C5548 1.574 . S
C5531 C5550 1.368 . S
C5531 H5555 0.949 . S
H5532 C5536 0.949 . S
C5533 C5534 1.349 . S
C5533 C5535 1.327 . S
C5533 H5556 0.950 . S
C5534 C5533 1.349 . S
C5534 C5546 1.349 . S
C5535 C5533 1.327 . S
C5535 C5551 1.429 . S
C5535 H5557 0.950 . S
C5536 H5532 0.949 . S
C5536 C5544 1.574 . S
C5536 C5552 1.368 . S
H5537 C5545 0.950 . S
H5538 C5543 0.950 . S
H5539 C5544 0.949 . S
H5540 C5546 0.950 . S
H5541 C5547 0.950 . S
H5542 C5548 0.949 . S
C5543 H5538 0.950 . S
C5543 C5545 1.327 . S
C5543 C5549 1.429 . S
C5544 C5536 1.574 . S
C5544 H5539 0.949 . S
C5544 C5550 1.368 . S
C5545 C5529 1.349 . S
C5545 H5537 0.950 . S
C5545 C5543 1.327 . S
C5546 C5534 1.349 . S
C5546 H5540 0.950 . S
C5546 C5547 1.327 . S
C5547 H5541 0.950 . S
C5547 C5546 1.327 . S
C5547 C5551 1.429 . S
C5548 C5531 1.574 . S
C5548 H5542 0.949 . S
C5548 C5552 1.368 . S
C5549 C5530 1.429 . S
C5549 C5543 1.429 . S
C5549 C5550 1.523 . S
C5550 C5531 1.368 . S
C5550 C5544 1.368 . S
C5550 C5549 1.523 . S
C5551 C5535 1.429 . S
C5551 C5547 1.429 . S
C5551 C5552 1.523 . S
C5552 C5536 1.368 . S
C5552 C5548 1.368 . S
C5552 C5551 1.523 . S
H5553 C5528 0.950 . S
H5554 C5530 0.950 . S
H5555 C5531 0.949 . S
H5556 C5533 0.950 . S
H5557 C5535 0.950 . S
C5558 C5559 1.349 . S
C5558 C5560 1.327 . S
C5558 H5583 0.950 . S
C5559 C5558 1.349 . S
C5559 C5575 1.349 . S
C5560 C5558 1.327 . S
C5560 C5579 1.429 . S
C5560 H5584 0.950 . S
C5561 C5578 1.574 . S
C5561 C5580 1.368 . S
C5561 H5585 0.949 . S
H5562 C5566 0.949 . S
C5563 C5564 1.349 . S
C5563 C5565 1.327 . S
C5563 H5586 0.950 . S
C5564 C5563 1.349 . S
C5564 C5576 1.349 . S
C5565 C5563 1.327 . S
C5565 C5581 1.429 . S
C5565 H5587 0.950 . S
C5566 H5562 0.949 . S
C5566 C5574 1.574 . S
C5566 C5582 1.368 . S
H5567 C5575 0.950 . S
H5568 C5573 0.950 . S
H5569 C5574 0.949 . S
H5570 C5576 0.950 . S
H5571 C5577 0.950 . S
H5572 C5578 0.949 . S
C5573 H5568 0.950 . S
C5573 C5575 1.327 . S
C5573 C5579 1.429 . S
C5574 C5566 1.574 . S
C5574 H5569 0.949 . S
C5574 C5580 1.368 . S
C5575 C5559 1.349 . S
C5575 H5567 0.950 . S
C5575 C5573 1.327 . S
C5576 C5564 1.349 . S
C5576 H5570 0.950 . S
C5576 C5577 1.327 . S
C5577 H5571 0.950 . S
C5577 C5576 1.327 . S
C5577 C5581 1.429 . S
C5578 C5561 1.574 . S
C5578 H5572 0.949 . S
C5578 C5582 1.368 . S
C5579 C5560 1.429 . S
C5579 C5573 1.429 . S
C5579 C5580 1.523 . S
C5580 C5561 1.368 . S
C5580 C5574 1.368 . S
C5580 C5579 1.523 . S
C5581 C5565 1.429 . S
C5581 C5577 1.429 . S
C5581 C5582 1.523 . S
C5582 C5566 1.368 . S
C5582 C5578 1.368 . S
C5582 C5581 1.523 . S
H5583 C5558 0.950 . S
H5584 C5560 0.950 . S
H5585 C5561 0.949 . S
H5586 C5563 0.950 . S
H5587 C5565 0.950 . S
C5588 C5589 1.349 . S
C5588 C5590 1.327 . S
C5588 H5613 0.950 . S
C5589 C5588 1.349 . S
C5589 C5605 1.349 . S
C5590 C5588 1.327 . S
C5590 C5609 1.429 . S
C5590 H5614 0.950 . S
C5591 C5608 1.574 . S
C5591 C5610 1.368 . S
C5591 H5615 0.949 . S
H5592 C5596 0.949 . S
C5593 C5594 1.349 . S
C5593 C5595 1.327 . S
C5593 H5616 0.950 . S
C5594 C5593 1.349 . S
C5594 C5606 1.349 . S
C5595 C5593 1.327 . S
C5595 C5611 1.429 . S
C5595 H5617 0.950 . S
C5596 H5592 0.949 . S
C5596 C5604 1.574 . S
C5596 C5612 1.368 . S
H5597 C5605 0.950 . S
H5598 C5603 0.950 . S
H5599 C5604 0.949 . S
H5600 C5606 0.950 . S
H5601 C5607 0.950 . S
H5602 C5608 0.949 . S
C5603 H5598 0.950 . S
C5603 C5605 1.327 . S
C5603 C5609 1.429 . S
C5604 C5596 1.574 . S
C5604 H5599 0.949 . S
C5604 C5610 1.368 . S
C5605 C5589 1.349 . S
C5605 H5597 0.950 . S
C5605 C5603 1.327 . S
C5606 C5594 1.349 . S
C5606 H5600 0.950 . S
C5606 C5607 1.327 . S
C5607 H5601 0.950 . S
C5607 C5606 1.327 . S
C5607 C5611 1.429 . S
C5608 C5591 1.574 . S
C5608 H5602 0.949 . S
C5608 C5612 1.368 . S
C5609 C5590 1.429 . S
C5609 C5603 1.429 . S
C5609 C5610 1.523 . S
C5610 C5591 1.368 . S
C5610 C5604 1.368 . S
C5610 C5609 1.523 . S
C5611 C5595 1.429 . S
C5611 C5607 1.429 . S
C5611 C5612 1.523 . S
C5612 C5596 1.368 . S
C5612 C5608 1.368 . S
C5612 C5611 1.523 . S
H5613 C5588 0.950 . S
H5614 C5590 0.950 . S
H5615 C5591 0.949 . S
H5616 C5593 0.950 . S
H5617 C5595 0.950 . S
C5618 C5619 1.349 . S
C5618 C5620 1.327 . S
C5618 H5643 0.950 . S
C5619 C5618 1.349 . S
C5619 C5635 1.349 . S
C5620 C5618 1.327 . S
C5620 C5639 1.429 . S
C5620 H5644 0.950 . S
C5621 C5638 1.574 . S
C5621 C5640 1.368 . S
C5621 H5645 0.949 . S
H5622 C5626 0.949 . S
C5623 C5624 1.349 . S
C5623 C5625 1.327 . S
C5623 H5646 0.950 . S
C5624 C5623 1.349 . S
C5624 C5636 1.349 . S
C5625 C5623 1.327 . S
C5625 C5641 1.429 . S
C5625 H5647 0.950 . S
C5626 H5622 0.949 . S
C5626 C5634 1.574 . S
C5626 C5642 1.368 . S
H5627 C5635 0.950 . S
H5628 C5633 0.950 . S
H5629 C5634 0.949 . S
H5630 C5636 0.950 . S
H5631 C5637 0.950 . S
H5632 C5638 0.949 . S
C5633 H5628 0.950 . S
C5633 C5635 1.327 . S
C5633 C5639 1.429 . S
C5634 C5626 1.574 . S
C5634 H5629 0.949 . S
C5634 C5640 1.368 . S
C5635 C5619 1.349 . S
C5635 H5627 0.950 . S
C5635 C5633 1.327 . S
C5636 C5624 1.349 . S
C5636 H5630 0.950 . S
C5636 C5637 1.327 . S
C5637 H5631 0.950 . S
C5637 C5636 1.327 . S
C5637 C5641 1.429 . S
C5638 C5621 1.574 . S
C5638 H5632 0.949 . S
C5638 C5642 1.368 . S
C5639 C5620 1.429 . S
C5639 C5633 1.429 . S
C5639 C5640 1.523 . S
C5640 C5621 1.368 . S
C5640 C5634 1.368 . S
C5640 C5639 1.523 . S
C5641 C5625 1.429 . S
C5641 C5637 1.429 . S
C5641 C5642 1.523 . S
C5642 C5626 1.368 . S
C5642 C5638 1.368 . S
C5642 C5641 1.523 . S
H5643 C5618 0.950 . S
H5644 C5620 0.950 . S
H5645 C5621 0.949 . S
H5646 C5623 0.950 . S
H5647 C5625 0.950 . S
C2774 C1327 1.438 . S
C2769 C21 1.535 . S
C2804 C1389 1.356 . S
C2799 C42 1.477 . S
C2829 C82 1.542 . S
C2834 C1451 1.443 . S
C2864 C1519 1.421 . S
C2859 C135 1.462 . S
C2889 C175 1.398 . S
C2894 C1501 1.365 . S
C2919 C221 1.613 . S
C2924 C1309 1.532 . S
C2949 C255 1.631 . S
C2954 C1371 1.529 . S
C2984 C1433 1.530 . S
C2979 C301 1.634 . S
C3014 C1581 1.483 . S
C3009 C15 1.533 . S
C3039 C55 1.513 . S
C3044 C1619 1.390 . S
C3069 C101 1.630 . S
C3074 C1705 1.609 . S
C3104 C1749 1.466 . S
C3099 C141 1.521 . S
C3129 C162 1.384 . S
C3134 C1811 1.374 . S
C3164 C1873 1.554 . S
C3159 C215 1.588 . S
C3189 C261 1.619 . S
C3194 C1929 1.511 . S
C3224 C1991 1.443 . S
C3219 C282 1.551 . S
C3249 C2 1.579 . S
C3254 C1767 1.568 . S
C3279 C181 1.358 . S
C3284 C1891 1.342 . S
C3314 C1947 1.443 . S
C3309 C202 1.546 . S
C3339 C242 1.573 . S
C3344 C2009 1.463 . S
C3374 C1829 1.477 . S
C3369 C295 1.518 . S
C3404 C1637 1.527 . S
C3399 C95 1.635 . S
C3429 C122 1.507 . S
C3434 C1687 1.452 . S
C3464 C1563 1.540 . S
C3459 C61 1.575 . S
C3494 C2071 1.533 . S
C3489 C341 1.636 . S
C3519 C362 1.412 . S
C3524 C2121 1.368 . S
C3549 C402 1.486 . S
C3554 C2177 1.380 . S
C3584 C2263 1.450 . S
C3579 C455 1.501 . S
C3609 C495 1.482 . S
C3614 C2245 1.447 . S
C3639 C541 1.617 . S
C3644 C2053 1.527 . S
C3669 C575 1.516 . S
C3674 C2139 1.481 . S
C3699 C621 1.688 . S
C3704 C2195 1.591 . S
C3734 C1805 1.462 . S
C3729 C335 1.581 . S
C3759 C375 1.438 . S
C3764 C2325 1.397 . S
C3794 C1935 1.558 . S
C3789 C421 1.571 . S
C3819 C461 1.532 . S
C3824 C2387 1.466 . S
C3849 C482 1.425 . S
C3854 C1575 1.339 . S
C3884 C2431 1.550 . S
C3879 C535 1.592 . S
C3909 C581 1.566 . S
C3914 C1699 1.469 . S
C3944 C2487 1.504 . S
C3939 C602 1.604 . S
C3969 C322 1.663 . S
C3974 C2369 1.647 . S
C4004 C2449 1.410 . S
C3999 C501 1.431 . S
C4029 C522 1.539 . S
C4034 C1681 1.448 . S
C4064 C2505 1.387 . S
C4059 C562 1.517 . S
C4089 C615 1.682 . S
C4094 C1557 1.591 . S
C4119 C415 1.517 . S
C4124 C2307 1.481 . S
C4149 C442 1.490 . S
C4154 C1953 1.439 . S
C4179 C381 1.491 . S
C4184 C1823 1.362 . S
C4209 C661 1.446 . S
C4214 C2183 1.428 . S
C4244 C2257 1.326 . S
C4239 C682 1.446 . S
C4269 C722 1.515 . S
C4274 C2077 1.499 . S
C4299 C775 1.536 . S
C4304 C2115 1.410 . S
C4329 C815 1.553 . S
C4334 C2133 1.447 . S
C4359 C861 1.558 . S
C4364 C2201 1.550 . S
C4394 C2239 1.476 . S
C4389 C895 1.592 . S
C4419 C941 1.631 . S
C4424 C2059 1.595 . S
C4454 C2555 1.433 . S
C4449 C655 1.477 . S
C4479 C695 1.539 . S
C4484 C1867 1.438 . S
C4514 C2617 1.568 . S
C4509 C741 1.580 . S
C4539 C781 1.551 . S
C4544 C1997 1.509 . S
C4569 C802 1.477 . S
C4574 C2673 1.380 . S
C4599 C855 1.507 . S
C4604 C1625 1.462 . S
C4634 C2753 1.546 . S
C4629 C901 1.636 . S
C4659 C922 1.552 . S
C4664 C1743 1.432 . S
C4694 C2015 1.477 . S
C4689 C642 1.488 . S
C4724 C1643 1.494 . S
C4719 C821 1.511 . S
C4749 C842 1.481 . S
C4754 C2735 1.382 . S
C4779 C882 1.636 . S
C4784 C1761 1.542 . S
C4814 C2691 1.493 . S
C4809 C935 1.613 . S
C4844 C1885 1.374 . S
C4839 C735 1.503 . S
C4874 C2635 1.500 . S
C4869 C762 1.541 . S
C4904 C2573 1.494 . S
C4899 C701 1.525 . S
C4929 C981 1.487 . S
C4934 C1457 1.471 . S
C4959 C1002 1.467 . S
C4964 C1513 1.341 . S
C4994 C1333 1.462 . S
C4989 C1042 1.485 . S
C5024 C1395 1.423 . S
C5019 C1095 1.473 . S
C5054 C1377 1.516 . S
C5049 C1135 1.547 . S
C5084 C1439 1.585 . S
C5079 C1181 1.602 . S
C5114 C1495 1.432 . S
C5109 C1215 1.560 . S
C5139 C1261 1.624 . S
C5144 C1315 1.588 . S
C5169 C975 1.491 . S
C5174 C2679 1.443 . S
C5204 C2425 1.420 . S
C5199 C1015 1.517 . S
C5234 C2759 1.570 . S
C5229 C1061 1.582 . S
C5264 C2493 1.470 . S
C5259 C1101 1.512 . S
C5289 C1122 1.482 . S
C5294 C2549 1.390 . S
C5324 C2319 1.462 . S
C5319 C1175 1.582 . S
C5354 C2611 1.512 . S
C5349 C1221 1.611 . S
C5379 C1242 1.520 . S
C5384 C2381 1.399 . S
C5414 C2511 1.443 . S
C5409 C962 1.457 . S
C5444 C2301 1.404 . S
C5439 C1141 1.495 . S
C5474 C2629 1.490 . S
C5469 C1162 1.579 . S
C5499 C1202 1.662 . S
C5504 C2363 1.572 . S
C5529 C1255 1.592 . S
C5534 C2567 1.483 . S
C5559 C1055 1.495 . S
C5564 C2443 1.382 . S
C5589 C1082 1.490 . S
C5594 C2741 1.429 . S
C5624 C2697 1.484 . S
C5619 C1021 1.518 . S
