# Generated by pormake.
# Topology eea, (3,6)-cn, num edge types: 1
# Building blocks:
#     Node 0, Type 0, BuildingBlock: VETTIZ_charged_linker_0, # of connection points: 3
#     Node 1, Type 0, BuildingBlock: VETTIZ_charged_linker_0, # of connection points: 3
#     Node 2, Type 0, BuildingBlock: VETTIZ_charged_linker_0, # of connection points: 3
#     Node 3, Type 0, BuildingBlock: VETTIZ_charged_linker_0, # of connection points: 3
#     Node 4, Type 0, BuildingBlock: VETTIZ_charged_linker_0, # of connection points: 3
#     Node 5, Type 0, BuildingBlock: VETTIZ_charged_linker_0, # of connection points: 3
#     Node 6, Type 0, BuildingBlock: VETTIZ_charged_linker_0, # of connection points: 3
#     Node 7, Type 0, BuildingBlock: VETTIZ_charged_linker_0, # of connection points: 3
#     Node 8, Type 0, BuildingBlock: VETTIZ_charged_linker_0, # of connection points: 3
#     Node 9, Type 0, BuildingBlock: VETTIZ_charged_linker_0, # of connection points: 3
#     Node 10, Type 0, BuildingBlock: VETTIZ_charged_linker_0, # of connection points: 3
#     Node 11, Type 0, BuildingBlock: VETTIZ_charged_linker_0, # of connection points: 3
#     Node 12, Type 0, BuildingBlock: VETTIZ_charged_linker_0, # of connection points: 3
#     Node 13, Type 0, BuildingBlock: VETTIZ_charged_linker_0, # of connection points: 3
#     Node 14, Type 0, BuildingBlock: VETTIZ_charged_linker_0, # of connection points: 3
#     Node 15, Type 0, BuildingBlock: VETTIZ_charged_linker_0, # of connection points: 3
#     Node 16, Type 0, BuildingBlock: VETTIZ_charged_linker_0, # of connection points: 3
#     Node 17, Type 0, BuildingBlock: VETTIZ_charged_linker_0, # of connection points: 3
#     Node 18, Type 1, BuildingBlock: KUMJIN_clean_sbu_0, # of connection points: 6
#     Node 19, Type 1, BuildingBlock: KUMJIN_clean_sbu_0, # of connection points: 6
#     Node 20, Type 1, BuildingBlock: KUMJIN_clean_sbu_0, # of connection points: 6
#     Node 21, Type 1, BuildingBlock: KUMJIN_clean_sbu_0, # of connection points: 6
#     Node 22, Type 1, BuildingBlock: KUMJIN_clean_sbu_0, # of connection points: 6
#     Node 23, Type 1, BuildingBlock: KUMJIN_clean_sbu_0, # of connection points: 6
#     Node 24, Type 1, BuildingBlock: KUMJIN_clean_sbu_0, # of connection points: 6
#     Node 25, Type 1, BuildingBlock: KUMJIN_clean_sbu_0, # of connection points: 6
#     Node 26, Type 1, BuildingBlock: KUMJIN_clean_sbu_0, # of connection points: 6
#     Edge 27, Type (0, 1), BuildingBlock: OJICUG_clean_linker_0, # of connection points: 2
#     Edge 28, Type (0, 1), BuildingBlock: OJICUG_clean_linker_0, # of connection points: 2
#     Edge 29, Type (0, 1), BuildingBlock: OJICUG_clean_linker_0, # of connection points: 2
#     Edge 30, Type (0, 1), BuildingBlock: OJICUG_clean_linker_0, # of connection points: 2
#     Edge 31, Type (0, 1), BuildingBlock: OJICUG_clean_linker_0, # of connection points: 2
#     Edge 32, Type (0, 1), BuildingBlock: OJICUG_clean_linker_0, # of connection points: 2
#     Edge 33, Type (0, 1), BuildingBlock: OJICUG_clean_linker_0, # of connection points: 2
#     Edge 34, Type (0, 1), BuildingBlock: OJICUG_clean_linker_0, # of connection points: 2
#     Edge 35, Type (0, 1), BuildingBlock: OJICUG_clean_linker_0, # of connection points: 2
#     Edge 36, Type (0, 1), BuildingBlock: OJICUG_clean_linker_0, # of connection points: 2
#     Edge 37, Type (0, 1), BuildingBlock: OJICUG_clean_linker_0, # of connection points: 2
#     Edge 38, Type (0, 1), BuildingBlock: OJICUG_clean_linker_0, # of connection points: 2
#     Edge 39, Type (0, 1), BuildingBlock: OJICUG_clean_linker_0, # of connection points: 2
#     Edge 40, Type (0, 1), BuildingBlock: OJICUG_clean_linker_0, # of connection points: 2
#     Edge 41, Type (0, 1), BuildingBlock: OJICUG_clean_linker_0, # of connection points: 2
#     Edge 42, Type (0, 1), BuildingBlock: OJICUG_clean_linker_0, # of connection points: 2
#     Edge 43, Type (0, 1), BuildingBlock: OJICUG_clean_linker_0, # of connection points: 2
#     Edge 44, Type (0, 1), BuildingBlock: OJICUG_clean_linker_0, # of connection points: 2
#     Edge 45, Type (0, 1), BuildingBlock: OJICUG_clean_linker_0, # of connection points: 2
#     Edge 46, Type (0, 1), BuildingBlock: OJICUG_clean_linker_0, # of connection points: 2
#     Edge 47, Type (0, 1), BuildingBlock: OJICUG_clean_linker_0, # of connection points: 2
#     Edge 48, Type (0, 1), BuildingBlock: OJICUG_clean_linker_0, # of connection points: 2
#     Edge 49, Type (0, 1), BuildingBlock: OJICUG_clean_linker_0, # of connection points: 2
#     Edge 50, Type (0, 1), BuildingBlock: OJICUG_clean_linker_0, # of connection points: 2
#     Edge 51, Type (0, 1), BuildingBlock: OJICUG_clean_linker_0, # of connection points: 2
#     Edge 52, Type (0, 1), BuildingBlock: OJICUG_clean_linker_0, # of connection points: 2
#     Edge 53, Type (0, 1), BuildingBlock: OJICUG_clean_linker_0, # of connection points: 2
#     Edge 54, Type (0, 1), BuildingBlock: OJICUG_clean_linker_0, # of connection points: 2
#     Edge 55, Type (0, 1), BuildingBlock: OJICUG_clean_linker_0, # of connection points: 2
#     Edge 56, Type (0, 1), BuildingBlock: OJICUG_clean_linker_0, # of connection points: 2
#     Edge 57, Type (0, 1), BuildingBlock: OJICUG_clean_linker_0, # of connection points: 2
#     Edge 58, Type (0, 1), BuildingBlock: OJICUG_clean_linker_0, # of connection points: 2
#     Edge 59, Type (0, 1), BuildingBlock: OJICUG_clean_linker_0, # of connection points: 2
#     Edge 60, Type (0, 1), BuildingBlock: OJICUG_clean_linker_0, # of connection points: 2
#     Edge 61, Type (0, 1), BuildingBlock: OJICUG_clean_linker_0, # of connection points: 2
#     Edge 62, Type (0, 1), BuildingBlock: OJICUG_clean_linker_0, # of connection points: 2
#     Edge 63, Type (0, 1), BuildingBlock: OJICUG_clean_linker_0, # of connection points: 2
#     Edge 64, Type (0, 1), BuildingBlock: OJICUG_clean_linker_0, # of connection points: 2
#     Edge 65, Type (0, 1), BuildingBlock: OJICUG_clean_linker_0, # of connection points: 2
#     Edge 66, Type (0, 1), BuildingBlock: OJICUG_clean_linker_0, # of connection points: 2
#     Edge 67, Type (0, 1), BuildingBlock: OJICUG_clean_linker_0, # of connection points: 2
#     Edge 68, Type (0, 1), BuildingBlock: OJICUG_clean_linker_0, # of connection points: 2
#     Edge 69, Type (0, 1), BuildingBlock: OJICUG_clean_linker_0, # of connection points: 2
#     Edge 70, Type (0, 1), BuildingBlock: OJICUG_clean_linker_0, # of connection points: 2
#     Edge 71, Type (0, 1), BuildingBlock: OJICUG_clean_linker_0, # of connection points: 2
#     Edge 72, Type (0, 1), BuildingBlock: OJICUG_clean_linker_0, # of connection points: 2
#     Edge 73, Type (0, 1), BuildingBlock: OJICUG_clean_linker_0, # of connection points: 2
#     Edge 74, Type (0, 1), BuildingBlock: OJICUG_clean_linker_0, # of connection points: 2
#     Edge 75, Type (0, 1), BuildingBlock: OJICUG_clean_linker_0, # of connection points: 2
#     Edge 76, Type (0, 1), BuildingBlock: OJICUG_clean_linker_0, # of connection points: 2
#     Edge 77, Type (0, 1), BuildingBlock: OJICUG_clean_linker_0, # of connection points: 2
#     Edge 78, Type (0, 1), BuildingBlock: OJICUG_clean_linker_0, # of connection points: 2
#     Edge 79, Type (0, 1), BuildingBlock: OJICUG_clean_linker_0, # of connection points: 2
#     Edge 80, Type (0, 1), BuildingBlock: OJICUG_clean_linker_0, # of connection points: 2
# Relax obj value: 0.008
# Max RMSD: 0.091
# Mean RMSD: 0.072
data_MOF--net-eea--node1-KUMJIN_clean_sbu_0--node2-VETTIZ_charged_linker_0--edge1-OJICUG_clean_linker_0
_symmetry_space_group_name_H-M    P1
_symmetry_Int_Tables_number       1
_symmetry_cell_setting            triclinic
loop_
_symmetry_equiv_pos_as_xyz
'x, y, z'
_cell_length_a     47.539654
_cell_length_b     49.058334
_cell_length_c     71.595373
_cell_angle_alpha  89.79201
_cell_angle_beta   90.023384
_cell_angle_gamma 119.83864
loop_
_atom_site_label
_atom_site_type_symbol
_atom_site_fract_x
_atom_site_fract_y
_atom_site_fract_z
_atom_type_partial_charge
C0 C 0.21065 0.17707 0.39446 0.0
C1 C 0.21992 0.2075 0.40074 0.0
C2 C 0.23886 0.21857 0.41712 0.0
C3 C 0.23891 0.1694 0.42042 0.0
C4 C 0.22064 0.15874 0.40431 0.0
C5 C 0.21417 0.12666 0.3988 0.0
H6 H 0.23931 0.00454 0.41297 0.0
C7 C 0.24563 0.14463 0.42706 0.0
C8 C 0.2314 0.11969 0.41431 0.0
H9 H 0.1835 0.01655 0.36917 0.0
H10 H 0.19463 0.06583 0.38244 0.0
H11 H 0.29764 0.07636 0.41488 0.0
H12 H 0.20831 0.02389 0.44517 0.0
H13 H 0.23586 0.05111 0.46114 0.0
H14 H 0.24381 0.02181 0.45118 0.0
H15 H 0.2899 0.04537 0.4311 0.0
H16 H 0.30597 0.08532 0.43875 0.0
C17 C 0.23023 0.12952 0.37948 0.0
C18 C 0.17701 0.10394 0.3993 0.0
C19 C 0.30769 0.15827 0.48757 0.0
C20 C 0.31706 0.13884 0.49706 0.0
C21 C 0.3093 0.10962 0.48919 0.0
C22 C 0.29266 0.09991 0.47223 0.0
C23 C 0.28346 0.1195 0.46295 0.0
C24 C 0.29092 0.14813 0.4706 0.0
C25 C 0.27903 0.16569 0.45866 0.0
C26 C 0.26261 0.1425 0.44284 0.0
C27 C 0.26552 0.11562 0.44543 0.0
C28 C 0.30884 0.19652 0.45178 0.0
C29 C 0.25448 0.17064 0.47026 0.0
C30 C 0.22923 0.0176 0.40628 0.0
C31 C 0.21085 0.00667 0.38979 0.0
C32 C 0.19841 0.02468 0.38159 0.0
C33 C 0.20471 0.05326 0.38941 0.0
C34 C 0.22354 0.06404 0.40569 0.0
C35 C 0.23501 0.04607 0.41401 0.0
C36 C 0.25337 0.06061 0.4317 0.0
C37 C 0.25184 0.09078 0.43228 0.0
C38 C 0.23457 0.0927 0.41694 0.0
C39 C 0.28857 0.06718 0.42917 0.0
C40 C 0.23469 0.03829 0.44822 0.0
H41 H 0.26267 0.20944 0.43931 0.0
H42 H 0.19581 0.1675 0.38211 0.0
H43 H 0.16535 0.11069 0.41045 0.0
H44 H 0.17047 0.07951 0.40273 0.0
H45 H 0.16559 0.10423 0.38582 0.0
H46 H 0.25334 0.15225 0.3782 0.0
H47 H 0.21409 0.12849 0.36795 0.0
H48 H 0.23719 0.11144 0.37716 0.0
H49 H 0.31354 0.181 0.49312 0.0
H50 H 0.31568 0.09393 0.49631 0.0
H51 H 0.28753 0.07742 0.46704 0.0
H52 H 0.33028 0.19337 0.44985 0.0
H53 H 0.31564 0.21583 0.46196 0.0
H54 H 0.30498 0.20414 0.43794 0.0
H55 H 0.23792 0.14891 0.47818 0.0
H56 H 0.23855 0.17585 0.46158 0.0
H57 H 0.26718 0.18992 0.48051 0.0
H58 H 0.24697 0.2421 0.42217 0.0
C59 C 0.24826 0.19966 0.42701 0.0
C60 C 0.98448 0.18713 0.38727 0.0
C61 C 1.00536 0.21783 0.39357 0.0
C62 C 0.99942 0.22709 0.41108 0.0
C63 C 0.95197 0.1758 0.41555 0.0
C64 C 0.9578 0.16669 0.39837 0.0
C65 C 0.93193 0.13393 0.39329 0.0
H66 H 0.78712 0.0058 0.4131 0.0
C67 C 0.92182 0.14942 0.42335 0.0
C68 C 0.90984 0.12486 0.41028 0.0
H69 H 0.8484 0.02149 0.36489 0.0
H70 H 0.88844 0.07144 0.37737 0.0
H71 H 0.84311 0.02621 0.44185 0.0
H72 H 0.7993 0.07604 0.41733 0.0
H73 H 0.80352 0.08404 0.44144 0.0
H74 H 0.77915 0.04414 0.43364 0.0
H75 H 0.80641 0.02275 0.45106 0.0
H76 H 0.84582 0.05287 0.45899 0.0
C77 C 0.94798 0.11326 0.39144 0.0
C78 C 0.91492 0.13602 0.37531 0.0
C79 C 0.87974 0.15891 0.48729 0.0
C80 C 0.85261 0.13781 0.498 0.0
C81 C 0.83131 0.10782 0.49068 0.0
C82 C 0.8367 0.09896 0.47308 0.0
C83 C 0.86377 0.1202 0.46254 0.0
C84 C 0.88496 0.14952 0.46971 0.0
C85 C 0.91273 0.16862 0.45651 0.0
C86 C 0.90472 0.14579 0.44036 0.0
C87 C 0.87583 0.11765 0.44397 0.0
C88 C 0.94465 0.17575 0.46637 0.0
C89 C 0.91106 0.19821 0.45063 0.0
C90 C 0.80923 0.0197 0.40523 0.0
C91 C 0.81412 0.00955 0.38779 0.0
C92 C 0.84338 0.02887 0.37811 0.0
C93 C 0.86682 0.05787 0.38545 0.0
C94 C 0.8612 0.0678 0.40274 0.0
C95 C 0.83303 0.04851 0.41245 0.0
C96 C 0.83174 0.06205 0.43101 0.0
C97 C 0.8633 0.09317 0.43057 0.0
C98 C 0.88036 0.09658 0.41392 0.0
C99 C 0.83153 0.03989 0.44662 0.0
C100 C 0.80181 0.06673 0.43105 0.0
H101 H 0.96986 0.21478 0.43527 0.0
H102 H 0.9883 0.17953 0.37379 0.0
H103 H 0.91214 0.15723 0.37556 0.0
H104 H 0.89007 0.11611 0.3737 0.0
H105 H 0.92924 0.13761 0.36268 0.0
H106 H 0.96789 0.12032 0.40177 0.0
H107 H 0.95855 0.11553 0.37729 0.0
H108 H 0.93103 0.08818 0.39443 0.0
H109 H 0.89668 0.18205 0.49257 0.0
H110 H 0.81002 0.0913 0.49847 0.0
H111 H 0.81935 0.07593 0.46832 0.0
H112 H 0.94138 0.15483 0.47431 0.0
H113 H 0.95243 0.19542 0.47641 0.0
H114 H 0.96468 0.18139 0.45653 0.0
H115 H 0.88548 0.19301 0.44984 0.0
H116 H 0.92101 0.20676 0.43652 0.0
H117 H 0.92389 0.21756 0.46082 0.0
H118 H 0.01538 0.25058 0.41625 0.0
C119 C 0.97302 0.20625 0.42212 0.0
C120 C 0.97975 0.79377 0.38431 0.0
C121 C 1.00271 0.78595 0.39116 0.0
C122 C 0.99832 0.77287 0.40921 0.0
C123 C 0.94841 0.77431 0.41312 0.0
C124 C 0.95261 0.78743 0.39547 0.0
C125 C 0.92465 0.79243 0.39026 0.0
H126 H 0.77506 0.77087 0.4121 0.0
C127 C 0.91744 0.7696 0.42097 0.0
C128 C 0.90314 0.78002 0.40759 0.0
H129 H 0.83069 0.81404 0.36218 0.0
H130 H 0.87497 0.80763 0.37412 0.0
H131 H 0.79288 0.71571 0.41634 0.0
H132 H 0.83301 0.80831 0.43958 0.0
H133 H 0.83633 0.785 0.45709 0.0
H134 H 0.79668 0.77567 0.44871 0.0
H135 H 0.77214 0.72626 0.43327 0.0
H136 H 0.79979 0.71303 0.44023 0.0
C137 C 0.90792 0.77243 0.37279 0.0
C138 C 0.93801 0.82804 0.38741 0.0
C139 C 0.88094 0.72078 0.48592 0.0
C140 C 0.85317 0.71294 0.49682 0.0
C141 C 0.82951 0.71936 0.48947 0.0
C142 C 0.83316 0.73293 0.47172 0.0
C143 C 0.86082 0.74034 0.46096 0.0
C144 C 0.88427 0.73448 0.46816 0.0
C145 C 0.91207 0.74404 0.4547 0.0
C146 C 0.90148 0.75672 0.43831 0.0
C147 C 0.87134 0.75428 0.44204 0.0
C148 C 0.91359 0.71418 0.44938 0.0
C149 C 0.94322 0.77015 0.46405 0.0
C150 C 0.79667 0.77869 0.40366 0.0
C151 C 0.7992 0.79254 0.38607 0.0
C152 C 0.82813 0.8032 0.37576 0.0
C153 C 0.85372 0.79933 0.38269 0.0
C154 C 0.85055 0.78492 0.40023 0.0
C155 C 0.82249 0.77542 0.41048 0.0
C156 C 0.82359 0.76206 0.42919 0.0
C157 C 0.85652 0.7642 0.42842 0.0
C158 C 0.87233 0.77734 0.41135 0.0
C159 C 0.79559 0.7275 0.43 0.0
C160 C 0.82211 0.78357 0.44454 0.0
H161 H 0.96981 0.75709 0.43375 0.0
H162 H 0.98238 0.80366 0.37045 0.0
H163 H 0.95685 0.84182 0.39803 0.0
H164 H 0.91926 0.83483 0.38918 0.0
H165 H 0.94928 0.83578 0.37339 0.0
H166 H 0.90526 0.74866 0.37418 0.0
H167 H 0.92241 0.78359 0.36 0.0
H168 H 0.88317 0.76838 0.37068 0.0
H169 H 0.89979 0.71647 0.4911 0.0
H170 H 0.80763 0.71319 0.4973 0.0
H171 H 0.81402 0.73681 0.46698 0.0
H172 H 0.88901 0.69296 0.44955 0.0
H173 H 0.92895 0.70991 0.45933 0.0
H174 H 0.92254 0.71513 0.43502 0.0
H175 H 0.93789 0.78645 0.47206 0.0
H176 H 0.96209 0.78524 0.45388 0.0
H177 H 0.95357 0.75998 0.47394 0.0
H178 H 0.01574 0.76691 0.41485 0.0
C179 C 0.97157 0.76719 0.42019 0.0
C180 C 0.18802 0.20508 0.63692 0.0
C181 C 0.2189 0.21315 0.62977 0.0
C182 C 0.22754 0.22659 0.6118 0.0
C183 C 0.17592 0.2249 0.60851 0.0
C184 C 0.16706 0.21149 0.6261 0.0
C185 C 0.13398 0.20624 0.63164 0.0
H186 H 0.00544 0.22719 0.61169 0.0
C187 C 0.14952 0.22953 0.60102 0.0
C188 C 0.12477 0.21883 0.61454 0.0
H189 H 0.01856 0.18361 0.66089 0.0
H190 H 0.06914 0.19051 0.64826 0.0
H191 H 0.08016 0.28293 0.60682 0.0
H192 H 0.02611 0.19033 0.58306 0.0
H193 H 0.05163 0.21544 0.56546 0.0
H194 H 0.02069 0.22223 0.57529 0.0
H195 H 0.0477 0.27219 0.59045 0.0
H196 H 0.08859 0.28564 0.58273 0.0
C197 C 0.13805 0.22594 0.64928 0.0
C198 C 0.11099 0.17055 0.63434 0.0
C199 C 0.1627 0.27908 0.53654 0.0
C200 C 0.14336 0.28752 0.52575 0.0
C201 C 0.11309 0.28114 0.5331 0.0
C202 C 0.10259 0.26717 0.55081 0.0
C203 C 0.12244 0.25932 0.56149 0.0
C204 C 0.15183 0.26512 0.5542 0.0
C205 C 0.16987 0.25537 0.56744 0.0
C206 C 0.14643 0.24258 0.58385 0.0
C207 C 0.11872 0.24504 0.58037 0.0
C208 C 0.20218 0.28515 0.57277 0.0
C209 C 0.17398 0.22927 0.55787 0.0
C210 C 0.01935 0.21938 0.61982 0.0
C211 C 0.00818 0.20524 0.63744 0.0
C212 C 0.02664 0.19463 0.64732 0.0
C213 C 0.05608 0.19881 0.63999 0.0
C214 C 0.06718 0.2135 0.62247 0.0
C215 C 0.04848 0.22297 0.61258 0.0
C216 C 0.06294 0.2367 0.5938 0.0
C217 C 0.09386 0.2348 0.59416 0.0
C218 C 0.09656 0.22143 0.61108 0.0
C219 C 0.07014 0.27114 0.59323 0.0
C220 C 0.03919 0.21536 0.5785 0.0
H221 H 0.21463 0.24264 0.58763 0.0
H222 H 0.18078 0.19487 0.65073 0.0
H223 H 0.11569 0.15699 0.62358 0.0
H224 H 0.0852 0.16361 0.63267 0.0
H225 H 0.11451 0.16267 0.64828 0.0
H226 H 0.15976 0.24975 0.64794 0.0
H227 H 0.1413 0.21458 0.66192 0.0
H228 H 0.11749 0.22995 0.65165 0.0
H229 H 0.18589 0.28319 0.53137 0.0
H230 H 0.09775 0.28764 0.52533 0.0
H231 H 0.07951 0.26334 0.55561 0.0
H232 H 0.19981 0.3066 0.57221 0.0
H233 H 0.22206 0.28893 0.5631 0.0
H234 H 0.20971 0.28443 0.58729 0.0
H235 H 0.15184 0.21318 0.54983 0.0
H236 H 0.17725 0.21394 0.5679 0.0
H237 H 0.19473 0.23949 0.54796 0.0
H238 H 0.25097 0.23272 0.60593 0.0
C239 C 0.20632 0.23233 0.60116 0.0
C240 C 0.77737 0.80621 0.6361 0.0
C241 C 0.76607 0.77505 0.63027 0.0
C242 C 0.74655 0.76446 0.61403 0.0
C243 C 0.75199 0.81582 0.60935 0.0
C244 C 0.76961 0.82579 0.6257 0.0
C245 C 0.77811 0.8587 0.63076 0.0
H246 H 0.77515 0.9915 0.60955 0.0
C247 C 0.74912 0.84233 0.6016 0.0
C248 C 0.76399 0.86734 0.61428 0.0
H249 H 0.80945 0.96951 0.66028 0.0
H250 H 0.79648 0.9191 0.64775 0.0
H251 H 0.80554 0.96392 0.58164 0.0
H252 H 0.7105 0.92409 0.60595 0.0
H253 H 0.70549 0.91375 0.5822 0.0
H254 H 0.72554 0.95464 0.58859 0.0
H255 H 0.77568 0.9727 0.57271 0.0
H256 H 0.77857 0.93942 0.56447 0.0
C257 C 0.81553 0.87922 0.63147 0.0
C258 C 0.7607 0.85742 0.64937 0.0
C259 C 0.69965 0.83453 0.53718 0.0
C260 C 0.69628 0.85649 0.52606 0.0
C261 C 0.7071 0.88688 0.53312 0.0
C262 C 0.72103 0.89537 0.55087 0.0
C263 C 0.72437 0.87331 0.56179 0.0
C264 C 0.71397 0.84352 0.55491 0.0
C265 C 0.72027 0.82355 0.56846 0.0
C266 C 0.7363 0.84641 0.58451 0.0
C267 C 0.73833 0.87539 0.58051 0.0
C268 C 0.74375 0.81452 0.55903 0.0
C269 C 0.68729 0.79509 0.57428 0.0
C270 C 0.77957 0.97573 0.61807 0.0
C271 C 0.79327 0.98459 0.63598 0.0
C272 C 0.79925 0.9635 0.64637 0.0
C273 C 0.79138 0.93405 0.63915 0.0
C274 C 0.7772 0.92539 0.62136 0.0
C275 C 0.7716 0.94612 0.61113 0.0
C276 C 0.75604 0.9328 0.59259 0.0
C277 C 0.7524 0.90028 0.59362 0.0
C278 C 0.76506 0.89621 0.61042 0.0
C279 C 0.7799 0.95322 0.57695 0.0
C280 C 0.72271 0.93132 0.59211 0.0
H281 H 0.72511 0.77523 0.59125 0.0
H282 H 0.79239 0.81563 0.64838 0.0
H283 H 0.73879 0.834 0.65161 0.0
H284 H 0.75141 0.8741 0.64956 0.0
H285 H 0.77693 0.86206 0.66155 0.0
H286 H 0.82679 0.87373 0.61951 0.0
H287 H 0.82527 0.87486 0.64455 0.0
H288 H 0.82413 0.90461 0.63035 0.0
H289 H 0.69176 0.81105 0.53209 0.0
H290 H 0.70438 0.90408 0.52497 0.0
H291 H 0.72861 0.91882 0.5554 0.0
H292 H 0.76394 0.83532 0.552 0.0
H293 H 0.73098 0.79612 0.54829 0.0
H294 H 0.75541 0.80607 0.56899 0.0
H295 H 0.66777 0.80134 0.57426 0.0
H296 H 0.68748 0.78709 0.58871 0.0
H297 H 0.6799 0.77509 0.56455 0.0
H298 H 0.73623 0.74041 0.60939 0.0
C299 C 0.73975 0.78468 0.60351 0.0
C300 C 0.03099 0.81104 0.6386 0.0
C301 C 0.00815 0.78079 0.6326 0.0
C302 C 0.01384 0.76924 0.61585 0.0
C303 C 0.06364 0.81864 0.61084 0.0
C304 C 0.05856 0.82933 0.62766 0.0
C305 C 0.08538 0.86179 0.63226 0.0
H306 H 0.22502 0.99189 0.60787 0.0
C307 C 0.09392 0.84414 0.60249 0.0
C308 C 0.10684 0.86932 0.61515 0.0
H309 H 0.17143 0.97282 0.65966 0.0
H310 H 0.1317 0.92187 0.64834 0.0
H311 H 0.21843 0.92312 0.60464 0.0
H312 H 0.16465 0.9641 0.58129 0.0
H313 H 0.16546 0.93924 0.56403 0.0
H314 H 0.20306 0.97223 0.57193 0.0
H315 H 0.23421 0.95259 0.58664 0.0
H316 H 0.21058 0.91136 0.58117 0.0
C317 C 0.10246 0.85977 0.65027 0.0
C318 C 0.07059 0.88362 0.63378 0.0
C319 C 0.13057 0.83276 0.53729 0.0
C320 C 0.15664 0.85362 0.52583 0.0
C321 C 0.17841 0.8839 0.5326 0.0
C322 C 0.17449 0.8933 0.55037 0.0
C323 C 0.14845 0.87231 0.56166 0.0
C324 C 0.12683 0.84267 0.55507 0.0
C325 C 0.1002 0.82396 0.569 0.0
C326 C 0.10961 0.84724 0.58502 0.0
C327 C 0.13802 0.87543 0.58058 0.0
C328 C 0.1022 0.7945 0.57468 0.0
C329 C 0.06752 0.81658 0.56007 0.0
C330 C 0.2049 0.97661 0.61685 0.0
C331 C 0.20137 0.98652 0.63468 0.0
C332 C 0.17452 0.966 0.64577 0.0
C333 C 0.15155 0.93627 0.63922 0.0
C334 C 0.15534 0.92675 0.62136 0.0
C335 C 0.18172 0.94675 0.61053 0.0
C336 C 0.18183 0.93255 0.59196 0.0
C337 C 0.15141 0.90055 0.59358 0.0
C338 C 0.13596 0.89741 0.61077 0.0
C339 C 0.2129 0.92985 0.59084 0.0
C340 C 0.17884 0.95304 0.57639 0.0
H341 H 0.04414 0.77815 0.59216 0.0
H342 H 0.02739 0.82032 0.65153 0.0
H343 H 0.05214 0.87808 0.62269 0.0
H344 H 0.08859 0.90869 0.63177 0.0
H345 H 0.05846 0.88066 0.64749 0.0
H346 H 0.10028 0.83621 0.65184 0.0
H347 H 0.09172 0.86399 0.66294 0.0
H348 H 0.12889 0.87633 0.65011 0.0
H349 H 0.11329 0.80942 0.53246 0.0
H350 H 0.19894 0.90025 0.52423 0.0
H351 H 0.19205 0.91659 0.55465 0.0
H352 H 0.12788 0.79996 0.57531 0.0
H353 H 0.08938 0.77523 0.56444 0.0
H354 H 0.09237 0.78577 0.58878 0.0
H355 H 0.07002 0.83749 0.55245 0.0
H356 H 0.04813 0.81059 0.57042 0.0
H357 H 0.05924 0.79702 0.54991 0.0
H358 H 0.99641 0.74599 0.61094 0.0
C359 C 0.04139 0.78803 0.60491 0.0
C360 C 0.89828 0.52163 0.71849 0.0
C361 C 0.91009 0.5529 0.72431 0.0
C362 C 0.93039 0.56355 0.74023 0.0
C363 C 0.92434 0.51198 0.74487 0.0
C364 C 0.90615 0.50194 0.72872 0.0
C365 C 0.8972 0.46883 0.72374 0.0
H366 H 0.89922 0.3356 0.74565 0.0
C367 C 0.92701 0.4854 0.75261 0.0
C368 C 0.9116 0.46021 0.7401 0.0
H369 H 0.86465 0.35689 0.6948 0.0
H370 H 0.87818 0.40773 0.70698 0.0
H371 H 0.96423 0.40262 0.74869 0.0
H372 H 0.86959 0.36416 0.77338 0.0
H373 H 0.89693 0.38887 0.79034 0.0
H374 H 0.8993 0.35519 0.78233 0.0
H375 H 0.94913 0.37243 0.76627 0.0
H376 H 0.96966 0.41345 0.77236 0.0
C377 C 0.91402 0.46967 0.70499 0.0
C378 C 0.85977 0.44854 0.72333 0.0
C379 C 0.97698 0.49389 0.81684 0.0
C380 C 0.98018 0.47201 0.82811 0.0
C381 C 0.96897 0.44141 0.8213 0.0
C382 C 0.95484 0.43266 0.8036 0.0
C383 C 0.95169 0.45467 0.79252 0.0
C384 C 0.96247 0.48465 0.7992 0.0
C385 C 0.9563 0.50456 0.78555 0.0
C386 C 0.93993 0.48145 0.76967 0.0
C387 C 0.93757 0.4524 0.77384 0.0
C388 C 0.98938 0.53275 0.77954 0.0
C389 C 0.93312 0.514 0.79498 0.0
C390 C 0.89487 0.35129 0.73702 0.0
C391 C 0.88097 0.34214 0.71918 0.0
C392 C 0.87505 0.36314 0.70865 0.0
C393 C 0.88322 0.39282 0.71567 0.0
C394 C 0.89765 0.40177 0.73338 0.0
C395 C 0.90316 0.38109 0.74374 0.0
C396 C 0.91904 0.39467 0.76215 0.0
C397 C 0.92305 0.4273 0.7609 0.0
C398 C 0.91023 0.43122 0.7441 0.0
C399 C 0.95219 0.39577 0.7626 0.0
C400 C 0.89528 0.37473 0.77797 0.0
H401 H 0.95247 0.55276 0.76261 0.0
H402 H 0.88278 0.51222 0.7064 0.0
H403 H 0.84895 0.45395 0.73555 0.0
H404 H 0.85105 0.42311 0.7242 0.0
H405 H 0.84976 0.45322 0.71047 0.0
H406 H 0.93604 0.49293 0.70256 0.0
H407 H 0.89751 0.46507 0.69295 0.0
H408 H 0.92298 0.45274 0.70471 0.0
H409 H 0.98514 0.51752 0.82175 0.0
H410 H 0.97154 0.42426 0.8296 0.0
H411 H 0.94696 0.40905 0.79925 0.0
H412 H 0.00901 0.52668 0.78021 0.0
H413 H 0.9965 0.55335 0.78874 0.0
H414 H 0.98943 0.5398 0.76484 0.0
H415 H 0.91284 0.49337 0.80208 0.0
H416 H 0.92159 0.52259 0.78502 0.0
H417 H 0.94612 0.53245 0.80567 0.0
H418 H 0.94121 0.58769 0.74478 0.0
C419 C 0.93727 0.54327 0.75057 0.0
C420 C 0.64529 0.5188 0.71925 0.0
C421 C 0.66822 0.54884 0.72546 0.0
C422 C 0.66255 0.56002 0.74237 0.0
C423 C 0.6124 0.51069 0.74699 0.0
C424 C 0.61764 0.50037 0.73006 0.0
C425 C 0.5909 0.46811 0.72515 0.0
H426 H 0.45021 0.33794 0.74737 0.0
C427 C 0.58177 0.48509 0.75501 0.0
C428 C 0.56909 0.46027 0.7421 0.0
H429 H 0.50624 0.35815 0.69645 0.0
H430 H 0.54559 0.40863 0.70846 0.0
H431 H 0.50998 0.36555 0.77514 0.0
H432 H 0.45638 0.40572 0.75054 0.0
H433 H 0.46425 0.41887 0.77373 0.0
H434 H 0.44043 0.37731 0.7691 0.0
H435 H 0.47044 0.35609 0.78326 0.0
H436 H 0.50677 0.38909 0.79244 0.0
C437 C 0.60565 0.44624 0.72357 0.0
C438 C 0.57428 0.47067 0.70707 0.0
C439 C 0.54148 0.49526 0.81954 0.0
C440 C 0.51374 0.47474 0.83004 0.0
C441 C 0.49231 0.44471 0.82282 0.0
C442 C 0.49778 0.43543 0.8054 0.0
C443 C 0.52502 0.4563 0.79487 0.0
C444 C 0.54656 0.48559 0.80197 0.0
C445 C 0.57408 0.50448 0.78852 0.0
C446 C 0.56533 0.48164 0.77229 0.0
C447 C 0.53649 0.45351 0.77619 0.0
C448 C 0.60611 0.51123 0.79802 0.0
C449 C 0.57287 0.53434 0.78285 0.0
C450 C 0.47082 0.35337 0.73875 0.0
C451 C 0.47512 0.3439 0.72095 0.0
C452 C 0.50254 0.3646 0.71031 0.0
C453 C 0.5253 0.39408 0.71727 0.0
C454 C 0.52072 0.40318 0.73507 0.0
C455 C 0.49381 0.38299 0.74548 0.0
C456 C 0.49284 0.39682 0.76402 0.0
C457 C 0.52349 0.42875 0.76294 0.0
C458 C 0.5397 0.4322 0.746 0.0
C459 C 0.49486 0.37585 0.77963 0.0
C460 C 0.46183 0.39974 0.76459 0.0
H461 H 0.63207 0.55063 0.76608 0.0
H462 H 0.64887 0.50977 0.70621 0.0
H463 H 0.57633 0.49421 0.70577 0.0
H464 H 0.54788 0.45398 0.7069 0.0
H465 H 0.5855 0.46704 0.69442 0.0
H466 H 0.6244 0.45194 0.73451 0.0
H467 H 0.61743 0.44893 0.70977 0.0
H468 H 0.58772 0.42121 0.72583 0.0
H469 H 0.55834 0.51854 0.82465 0.0
H470 H 0.47112 0.42825 0.83072 0.0
H471 H 0.48035 0.41233 0.80077 0.0
H472 H 0.60308 0.48983 0.80527 0.0
H473 H 0.61371 0.53013 0.80859 0.0
H474 H 0.62615 0.51791 0.78802 0.0
H475 H 0.54734 0.52909 0.78145 0.0
H476 H 0.58406 0.54372 0.7691 0.0
H477 H 0.58484 0.55307 0.79351 0.0
H478 H 0.68007 0.58312 0.74746 0.0
C479 C 0.63483 0.54106 0.75321 0.0
C480 C 0.64545 0.12372 0.7194 0.0
C481 C 0.66807 0.11555 0.72634 0.0
C482 C 0.66306 0.10207 0.74433 0.0
C483 C 0.61328 0.10394 0.74793 0.0
C484 C 0.61809 0.11738 0.73034 0.0
C485 C 0.59048 0.12272 0.72485 0.0
H486 H 0.44047 0.10154 0.7445 0.0
C487 C 0.58214 0.09935 0.75551 0.0
C488 C 0.56844 0.11015 0.74195 0.0
H489 H 0.49853 0.14576 0.69551 0.0
H490 H 0.54211 0.13887 0.70813 0.0
H491 H 0.45788 0.04619 0.74918 0.0
H492 H 0.49709 0.13839 0.7728 0.0
H493 H 0.50003 0.11498 0.7904 0.0
H494 H 0.46058 0.10557 0.78162 0.0
H495 H 0.43652 0.05657 0.76578 0.0
H496 H 0.46373 0.04305 0.77317 0.0
C497 C 0.5742 0.10304 0.7072 0.0
C498 C 0.60418 0.15842 0.72218 0.0
C499 C 0.54251 0.04947 0.82018 0.0
C500 C 0.51388 0.04101 0.8304 0.0
C501 C 0.49091 0.04803 0.82264 0.0
C502 C 0.49575 0.06231 0.80504 0.0
C503 C 0.52394 0.06987 0.79481 0.0
C504 C 0.54695 0.06376 0.80245 0.0
C505 C 0.57525 0.07327 0.78932 0.0
C506 C 0.5655 0.08632 0.7727 0.0
C507 C 0.53531 0.08406 0.77601 0.0
C508 C 0.57673 0.04336 0.78412 0.0
C509 C 0.60615 0.09907 0.799 0.0
C510 C 0.46247 0.10949 0.73642 0.0
C511 C 0.46587 0.12374 0.71887 0.0
C512 C 0.49528 0.13458 0.70903 0.0
C513 C 0.52047 0.13043 0.71636 0.0
C514 C 0.51642 0.11559 0.73385 0.0
C515 C 0.48792 0.10598 0.74366 0.0
C516 C 0.48818 0.09228 0.76242 0.0
C517 C 0.52109 0.09429 0.76215 0.0
C518 C 0.53761 0.10765 0.74531 0.0
C519 C 0.46006 0.05776 0.76286 0.0
C520 C 0.48614 0.11361 0.7777 0.0
H521 H 0.63385 0.08605 0.76865 0.0
H522 H 0.64849 0.13391 0.70558 0.0
H523 H 0.62301 0.17196 0.73285 0.0
H524 H 0.5856 0.16543 0.72401 0.0
H525 H 0.61556 0.16628 0.70819 0.0
H526 H 0.57145 0.07922 0.70851 0.0
H527 H 0.58904 0.11441 0.69455 0.0
H528 H 0.54952 0.09905 0.70489 0.0
H529 H 0.56061 0.04428 0.8256 0.0
H530 H 0.46895 0.04239 0.83022 0.0
H531 H 0.47706 0.06661 0.80001 0.0
H532 H 0.55206 0.02229 0.7839 0.0
H533 H 0.59145 0.03875 0.79436 0.0
H534 H 0.58639 0.04452 0.76993 0.0
H535 H 0.60089 0.11592 0.80644 0.0
H536 H 0.62579 0.11352 0.78908 0.0
H537 H 0.61539 0.08866 0.80946 0.0
H538 H 0.68021 0.09584 0.75008 0.0
C539 C 0.63608 0.09641 0.75513 0.0
C540 C 0.85509 0.53713 0.96917 0.0
C541 C 0.88577 0.54527 0.96169 0.0
C542 C 0.89375 0.55841 0.94362 0.0
C543 C 0.84194 0.55643 0.94093 0.0
C544 C 0.83369 0.54323 0.9586 0.0
C545 C 0.80076 0.53787 0.96452 0.0
H546 H 0.67175 0.55874 0.94615 0.0
C547 C 0.81527 0.56092 0.93378 0.0
C548 C 0.79096 0.55027 0.94759 0.0
H549 H 0.68587 0.51521 0.99504 0.0
H550 H 0.73613 0.5219 0.9819 0.0
H551 H 0.74548 0.61411 0.94117 0.0
H552 H 0.69105 0.52187 0.91723 0.0
H553 H 0.71654 0.54659 0.8995 0.0
H554 H 0.68614 0.55407 0.90947 0.0
H555 H 0.71352 0.60381 0.92453 0.0
H556 H 0.75467 0.61745 0.9172 0.0
C557 C 0.80528 0.55767 0.98219 0.0
C558 C 0.77796 0.50219 0.96738 0.0
C559 C 0.82598 0.61057 0.86946 0.0
C560 C 0.80628 0.61938 0.85934 0.0
C561 C 0.77642 0.61306 0.86726 0.0
C562 C 0.76662 0.59881 0.8849 0.0
C563 C 0.78683 0.59071 0.89497 0.0
C564 C 0.81586 0.59643 0.88716 0.0
C565 C 0.83444 0.58672 0.90003 0.0
C566 C 0.81163 0.57393 0.91674 0.0
C567 C 0.78383 0.57641 0.91372 0.0
C568 C 0.86695 0.61651 0.90505 0.0
C569 C 0.8382 0.56065 0.89018 0.0
C570 C 0.68579 0.55085 0.9541 0.0
C571 C 0.67509 0.53686 0.97177 0.0
C572 C 0.69366 0.52615 0.98143 0.0
C573 C 0.72288 0.5302 0.9738 0.0
C574 C 0.73357 0.54487 0.95623 0.0
C575 C 0.71465 0.55435 0.9466 0.0
C576 C 0.7286 0.56815 0.92779 0.0
C577 C 0.75946 0.5662 0.92777 0.0
C578 C 0.76264 0.55282 0.94454 0.0
C579 C 0.73584 0.60264 0.92746 0.0
C580 C 0.70441 0.54687 0.91261 0.0
H581 H 0.87992 0.57401 0.91961 0.0
H582 H 0.84836 0.52715 0.98307 0.0
H583 H 0.78233 0.48861 0.95647 0.0
H584 H 0.7521 0.49517 0.96606 0.0
H585 H 0.78204 0.49444 0.98121 0.0
H586 H 0.82676 0.58157 0.98063 0.0
H587 H 0.80917 0.54653 0.99472 0.0
H588 H 0.78462 0.5614 0.98489 0.0
H589 H 0.84924 0.61538 0.86397 0.0
H590 H 0.76049 0.61912 0.85975 0.0
H591 H 0.74373 0.5949 0.89008 0.0
H592 H 0.86456 0.63795 0.90471 0.0
H593 H 0.88645 0.62027 0.89507 0.0
H594 H 0.87505 0.6158 0.91943 0.0
H595 H 0.81561 0.54431 0.88257 0.0
H596 H 0.84229 0.54559 0.90001 0.0
H597 H 0.85831 0.57085 0.87984 0.0
H598 H 0.91703 0.56457 0.9375 0.0
C599 C 0.8721 0.56386 0.93322 0.0
C600 C 0.46384 0.15096 0.96231 0.0
C601 C 0.45836 0.12235 0.95475 0.0
C602 C 0.4442 0.11357 0.93684 0.0
C603 C 0.44057 0.16104 0.93473 0.0
C604 C 0.45497 0.16984 0.9521 0.0
C605 C 0.45956 0.20102 0.95821 0.0
H606 H 0.43675 0.32424 0.94281 0.0
C607 C 0.43388 0.18582 0.92805 0.0
C608 C 0.44518 0.20934 0.94175 0.0
H609 H 0.48675 0.3094 0.98889 0.0
H610 H 0.47628 0.26042 0.97554 0.0
H611 H 0.47086 0.30638 0.91207 0.0
H612 H 0.3783 0.25204 0.93892 0.0
H613 H 0.37268 0.24404 0.91485 0.0
H614 H 0.38744 0.28361 0.92289 0.0
H615 H 0.4362 0.30927 0.9051 0.0
H616 H 0.44492 0.28057 0.895 0.0
C617 C 0.49648 0.2242 0.96029 0.0
C618 C 0.43957 0.19572 0.97631 0.0
C619 C 0.37633 0.17435 0.86603 0.0
C620 C 0.36752 0.19405 0.85642 0.0
C621 C 0.3744 0.22285 0.86451 0.0
C622 C 0.38974 0.23194 0.88187 0.0
C623 C 0.39851 0.21213 0.8913 0.0
C624 C 0.39198 0.18394 0.88336 0.0
C625 C 0.404 0.16646 0.89528 0.0
C626 C 0.4186 0.18877 0.91169 0.0
C627 C 0.41506 0.21533 0.90927 0.0
C628 C 0.43005 0.16321 0.88408 0.0
C629 C 0.37439 0.13479 0.90121 0.0
C630 C 0.44572 0.31064 0.94999 0.0
C631 C 0.46238 0.32078 0.96708 0.0
C632 C 0.47324 0.30197 0.97595 0.0
C633 C 0.46742 0.27358 0.96806 0.0
C634 C 0.45077 0.26385 0.95101 0.0
C635 C 0.4405 0.28241 0.94219 0.0
C636 C 0.42442 0.26895 0.92377 0.0
C637 C 0.42646 0.23905 0.92314 0.0
C638 C 0.44162 0.23612 0.9392 0.0
C639 C 0.44484 0.29242 0.90809 0.0
C640 C 0.38887 0.26188 0.92497 0.0
H641 H 0.42451 0.12468 0.91334 0.0
H642 H 0.47435 0.1584 0.97606 0.0
H643 H 0.41579 0.17362 0.97542 0.0
H644 H 0.43351 0.21435 0.9789 0.0
H645 H 0.45259 0.19376 0.98868 0.0
H646 H 0.51095 0.21773 0.95097 0.0
H647 H 0.50471 0.22439 0.97483 0.0
H648 H 0.50343 0.24847 0.95606 0.0
H649 H 0.37166 0.15223 0.86004 0.0
H650 H 0.36755 0.23826 0.85745 0.0
H651 H 0.39415 0.25408 0.88727 0.0
H652 H 0.44443 0.18421 0.87508 0.0
H653 H 0.41875 0.14229 0.87487 0.0
H654 H 0.44814 0.16187 0.89314 0.0
H655 H 0.35354 0.13804 0.90496 0.0
H656 H 0.37897 0.12444 0.91373 0.0
H657 H 0.3665 0.11747 0.88966 0.0
H658 H 0.44023 0.09195 0.93047 0.0
C659 C 0.43524 0.1327 0.92684 0.0
C660 C 0.69331 0.14318 0.96962 0.0
C661 C 0.6726 0.11232 0.9635 0.0
C662 C 0.67858 0.10283 0.94608 0.0
C663 C 0.72566 0.15424 0.94131 0.0
C664 C 0.71985 0.16358 0.95842 0.0
C665 C 0.74553 0.19657 0.96324 0.0
H666 H 0.88922 0.32533 0.94211 0.0
C667 C 0.75553 0.18064 0.9333 0.0
C668 C 0.76744 0.20549 0.94617 0.0
H669 H 0.82873 0.31012 0.99063 0.0
H670 H 0.78887 0.25964 0.97865 0.0
H671 H 0.87797 0.25536 0.93853 0.0
H672 H 0.83256 0.30344 0.91366 0.0
H673 H 0.83012 0.27659 0.89674 0.0
H674 H 0.86941 0.30731 0.90442 0.0
H675 H 0.89747 0.28681 0.92188 0.0
H676 H 0.87335 0.24662 0.91452 0.0
C677 C 0.76288 0.19509 0.98122 0.0
C678 C 0.72914 0.21695 0.96496 0.0
C679 C 0.79676 0.17019 0.86937 0.0
C680 C 0.8236 0.19116 0.85845 0.0
C681 C 0.84484 0.22139 0.86548 0.0
C682 C 0.83966 0.23059 0.88303 0.0
C683 C 0.81286 0.20945 0.89379 0.0
C684 C 0.79175 0.1799 0.88689 0.0
C685 C 0.76429 0.16092 0.90028 0.0
C686 C 0.77238 0.18407 0.91623 0.0
C687 C 0.80102 0.21229 0.91236 0.0
C688 C 0.7664 0.13162 0.90634 0.0
C689 C 0.73212 0.1533 0.89054 0.0
C690 C 0.86732 0.31142 0.95015 0.0
C691 C 0.86258 0.32186 0.96753 0.0
C692 C 0.8336 0.30252 0.97745 0.0
C693 C 0.81028 0.27322 0.9704 0.0
C694 C 0.81575 0.263 0.95317 0.0
C695 C 0.84365 0.2823 0.94323 0.0
C696 C 0.84483 0.26839 0.92479 0.0
C697 C 0.81352 0.23708 0.92555 0.0
C698 C 0.79668 0.23388 0.94227 0.0
C699 C 0.87503 0.26415 0.92473 0.0
C700 C 0.84444 0.28999 0.909 0.0
H701 H 0.708 0.1149 0.92186 0.0
H702 H 0.68942 0.15097 0.98302 0.0
H703 H 0.70919 0.20957 0.95462 0.0
H704 H 0.74588 0.24203 0.96187 0.0
H705 H 0.71855 0.21473 0.97909 0.0
H706 H 0.76603 0.17408 0.9811 0.0
H707 H 0.74861 0.19352 0.99386 0.0
H708 H 0.78761 0.21526 0.98269 0.0
H709 H 0.77987 0.14687 0.86431 0.0
H710 H 0.86593 0.23783 0.85751 0.0
H711 H 0.85694 0.25379 0.88758 0.0
H712 H 0.79204 0.13693 0.90679 0.0
H713 H 0.75316 0.11187 0.89645 0.0
H714 H 0.75714 0.12359 0.92063 0.0
H715 H 0.73507 0.17396 0.88243 0.0
H716 H 0.71222 0.14776 0.90046 0.0
H717 H 0.72431 0.13341 0.88067 0.0
H718 H 0.66273 0.07922 0.94103 0.0
C719 C 0.70482 0.1236 0.93494 0.0
C720 C 0.54965 0.8465 0.05851 0.0
C721 C 0.55449 0.87465 0.06646 0.0
C722 C 0.56757 0.88261 0.08464 0.0
C723 C 0.57103 0.83505 0.08641 0.0
C724 C 0.55785 0.82712 0.0687 0.0
C725 C 0.55354 0.79616 0.06232 0.0
H726 H 0.56543 0.66716 0.08026 0.0
C727 C 0.57674 0.80971 0.09314 0.0
C728 C 0.56626 0.78677 0.07912 0.0
H729 H 0.53025 0.68962 0.03007 0.0
H730 H 0.54062 0.73865 0.04356 0.0
H731 H 0.62712 0.73525 0.0846 0.0
H732 H 0.53214 0.69089 0.10932 0.0
H733 H 0.5596 0.71274 0.12707 0.0
H734 H 0.56257 0.68128 0.11599 0.0
H735 H 0.61543 0.70663 0.10294 0.0
H736 H 0.63254 0.74794 0.10785 0.0
C737 C 0.57502 0.80214 0.04479 0.0
C738 C 0.51682 0.77346 0.05918 0.0
C739 C 0.63111 0.8188 0.15593 0.0
C740 C 0.6397 0.79885 0.16547 0.0
C741 C 0.63127 0.76944 0.15764 0.0
C742 C 0.61539 0.76034 0.14044 0.0
C743 C 0.60769 0.78078 0.13087 0.0
C744 C 0.61514 0.8093 0.1387 0.0
C745 C 0.60445 0.82761 0.12654 0.0
C746 C 0.5902 0.80567 0.10995 0.0
C747 C 0.59226 0.77837 0.11262 0.0
C748 C 0.63485 0.85899 0.12102 0.0
C749 C 0.57837 0.83146 0.13729 0.0
C750 C 0.56024 0.68276 0.07209 0.0
C751 C 0.54687 0.6744 0.05409 0.0
C752 C 0.54009 0.69525 0.04407 0.0
C753 C 0.5463 0.72382 0.0519 0.0
C754 C 0.55949 0.73172 0.06994 0.0
C755 C 0.56643 0.71142 0.07966 0.0
C756 C 0.58102 0.72398 0.09848 0.0
C757 C 0.58132 0.75504 0.09855 0.0
C758 C 0.56859 0.75935 0.08185 0.0
C759 C 0.61575 0.72857 0.09869 0.0
C760 C 0.55793 0.70108 0.11361 0.0
H761 H 0.58578 0.87038 0.10835 0.0
H762 H 0.54002 0.83976 0.04452 0.0
H763 H 0.50201 0.77775 0.06954 0.0
H764 H 0.50969 0.74851 0.06116 0.0
H765 H 0.50926 0.77663 0.04503 0.0
H766 H 0.59776 0.82525 0.04567 0.0
H767 H 0.56215 0.8023 0.03188 0.0
H768 H 0.58328 0.78482 0.04325 0.0
H769 H 0.63723 0.84157 0.16153 0.0
H770 H 0.63684 0.75327 0.16487 0.0
H771 H 0.60986 0.73774 0.13525 0.0
H772 H 0.65534 0.85508 0.11742 0.0
H773 H 0.64282 0.87603 0.13272 0.0
H774 H 0.63111 0.87002 0.10853 0.0
H775 H 0.56381 0.81092 0.14659 0.0
H776 H 0.56038 0.83242 0.12795 0.0
H777 H 0.58964 0.8528 0.14618 0.0
H778 H 0.57107 0.90389 0.09127 0.0
C779 C 0.57591 0.86302 0.09462 0.0
C780 C 0.32013 0.85386 0.05289 0.0
C781 C 0.3408 0.88459 0.05921 0.0
C782 C 0.33485 0.89369 0.07675 0.0
C783 C 0.28779 0.84215 0.08125 0.0
C784 C 0.29361 0.83322 0.06402 0.0
C785 C 0.26792 0.80037 0.05895 0.0
H786 H 0.12342 0.67184 0.07861 0.0
C787 C 0.25785 0.81558 0.0891 0.0
C788 C 0.24596 0.79107 0.07601 0.0
H789 H 0.18494 0.68806 0.03043 0.0
H790 H 0.22489 0.73782 0.04309 0.0
H791 H 0.17967 0.69207 0.10739 0.0
H792 H 0.13575 0.74224 0.0834 0.0
H793 H 0.13969 0.74938 0.10762 0.0
H794 H 0.11549 0.70977 0.09933 0.0
H795 H 0.14292 0.68836 0.11669 0.0
H796 H 0.18229 0.7185 0.12466 0.0
C797 C 0.28427 0.77998 0.05694 0.0
C798 C 0.25066 0.80236 0.04105 0.0
C799 C 0.21623 0.82471 0.15319 0.0
C800 C 0.18925 0.80361 0.16398 0.0
C801 C 0.16805 0.77351 0.15676 0.0
C802 C 0.17335 0.76462 0.13913 0.0
C803 C 0.20023 0.78593 0.12848 0.0
C804 C 0.22136 0.81531 0.1356 0.0
C805 C 0.24892 0.83454 0.12232 0.0
C806 C 0.24088 0.81175 0.10618 0.0
C807 C 0.21215 0.78348 0.10984 0.0
C808 C 0.281 0.84187 0.13205 0.0
C809 C 0.24694 0.86402 0.11653 0.0
C810 C 0.14556 0.68582 0.07078 0.0
C811 C 0.15049 0.67588 0.05326 0.0
C812 C 0.17983 0.69528 0.04368 0.0
C813 C 0.20323 0.72418 0.05112 0.0
C814 C 0.19752 0.73394 0.06844 0.0
C815 C 0.16936 0.71454 0.07812 0.0
C816 C 0.16811 0.72788 0.09677 0.0
C817 C 0.19963 0.75906 0.09638 0.0
C818 C 0.21663 0.76264 0.07968 0.0
C819 C 0.16802 0.70561 0.11226 0.0
C820 C 0.13814 0.73248 0.09698 0.0
H821 H 0.30545 0.88106 0.10102 0.0
H822 H 0.32399 0.84637 0.03938 0.0
H823 H 0.24751 0.82336 0.04144 0.0
H824 H 0.22594 0.78224 0.03942 0.0
H825 H 0.26501 0.8043 0.02837 0.0
H826 H 0.30446 0.78733 0.06711 0.0
H827 H 0.29452 0.7822 0.04271 0.0
H828 H 0.26759 0.7549 0.06008 0.0
H829 H 0.23312 0.84793 0.15839 0.0
H830 H 0.14686 0.75697 0.16462 0.0
H831 H 0.15607 0.74152 0.13441 0.0
H832 H 0.27798 0.82098 0.13993 0.0
H833 H 0.28875 0.86148 0.14213 0.0
H834 H 0.30098 0.84768 0.12213 0.0
H835 H 0.22133 0.85879 0.1161 0.0
H836 H 0.25629 0.87235 0.10229 0.0
H837 H 0.26017 0.88354 0.12656 0.0
H838 H 0.35067 0.91721 0.08195 0.0
C839 C 0.30863 0.87265 0.08783 0.0
C840 C 0.31257 0.45849 0.05135 0.0
C841 C 0.33517 0.45011 0.05804 0.0
C842 C 0.33052 0.43661 0.07598 0.0
C843 C 0.28118 0.43904 0.08014 0.0
C844 C 0.28559 0.4524 0.06255 0.0
C845 C 0.25798 0.45792 0.05738 0.0
H846 H 0.10943 0.43876 0.07864 0.0
C847 C 0.25048 0.43494 0.08808 0.0
C848 C 0.23655 0.44581 0.07475 0.0
H849 H 0.16582 0.48051 0.02873 0.0
H850 H 0.20959 0.47387 0.04117 0.0
H851 H 0.12686 0.38288 0.08405 0.0
H852 H 0.16782 0.47635 0.10631 0.0
H853 H 0.17086 0.45316 0.12402 0.0
H854 H 0.13131 0.44423 0.11567 0.0
H855 H 0.10582 0.3947 0.10002 0.0
H856 H 0.13259 0.38123 0.10826 0.0
C857 C 0.24097 0.43792 0.03994 0.0
C858 C 0.27187 0.49362 0.05452 0.0
C859 C 0.21383 0.38675 0.15315 0.0
C860 C 0.1866 0.37993 0.16429 0.0
C861 C 0.16357 0.38744 0.15718 0.0
C862 C 0.16722 0.40092 0.13936 0.0
C863 C 0.19431 0.40722 0.12834 0.0
C864 C 0.21726 0.40049 0.13538 0.0
C865 C 0.24474 0.40929 0.12179 0.0
C866 C 0.23452 0.42243 0.10548 0.0
C867 C 0.20479 0.42087 0.10933 0.0
C868 C 0.2452 0.37892 0.11642 0.0
C869 C 0.27637 0.43486 0.13101 0.0
C870 C 0.13112 0.44623 0.07033 0.0
C871 C 0.134 0.45974 0.05257 0.0
C872 C 0.163 0.46996 0.04242 0.0
C873 C 0.18829 0.46592 0.04964 0.0
C874 C 0.18475 0.45175 0.06729 0.0
C875 C 0.15669 0.44276 0.07744 0.0
C876 C 0.1576 0.42965 0.09633 0.0
C877 C 0.19027 0.43113 0.09567 0.0
C878 C 0.20611 0.44386 0.07855 0.0
C879 C 0.12918 0.39535 0.09741 0.0
C880 C 0.15663 0.4517 0.11147 0.0
H881 H 0.30196 0.42081 0.10053 0.0
H882 H 0.31536 0.46867 0.03755 0.0
H883 H 0.29116 0.50724 0.06495 0.0
H884 H 0.25354 0.50089 0.0566 0.0
H885 H 0.28273 0.50115 0.04039 0.0
H886 H 0.23862 0.41425 0.04114 0.0
H887 H 0.25507 0.44925 0.02707 0.0
H888 H 0.21603 0.43349 0.03811 0.0
H889 H 0.23221 0.38163 0.15816 0.0
H890 H 0.14216 0.38217 0.16525 0.0
H891 H 0.14856 0.40561 0.13477 0.0
H892 H 0.22028 0.3582 0.1165 0.0
H893 H 0.26002 0.37398 0.12639 0.0
H894 H 0.25416 0.37972 0.10208 0.0
H895 H 0.27179 0.45163 0.13906 0.0
H896 H 0.2953 0.44954 0.12077 0.0
H897 H 0.28632 0.42424 0.14085 0.0
H898 H 0.34767 0.43018 0.0815 0.0
C899 C 0.30392 0.43121 0.08705 0.0
C900 C 0.52199 0.87297 0.30281 0.0
C901 C 0.55278 0.8808 0.29568 0.0
C902 C 0.56136 0.89397 0.27762 0.0
C903 C 0.50986 0.89254 0.27429 0.0
C904 C 0.50109 0.87938 0.29196 0.0
C905 C 0.46821 0.87441 0.2976 0.0
H906 H 0.34051 0.89679 0.27875 0.0
C907 C 0.48355 0.89745 0.26687 0.0
C908 C 0.45905 0.88709 0.28054 0.0
H909 H 0.35363 0.8521 0.32742 0.0
H910 H 0.40392 0.85882 0.31447 0.0
H911 H 0.41461 0.95191 0.27397 0.0
H912 H 0.36066 0.85991 0.24953 0.0
H913 H 0.3856 0.88553 0.23192 0.0
H914 H 0.35486 0.89189 0.24245 0.0
H915 H 0.38317 0.9421 0.25703 0.0
H916 H 0.42445 0.95539 0.25009 0.0
C917 C 0.47263 0.89426 0.31524 0.0
C918 C 0.445 0.83876 0.30034 0.0
C919 C 0.49535 0.94632 0.20208 0.0
C920 C 0.47633 0.9559 0.19191 0.0
C921 C 0.44693 0.95081 0.19989 0.0
C922 C 0.43682 0.93682 0.21759 0.0
C923 C 0.4563 0.92784 0.22771 0.0
C924 C 0.48502 0.93261 0.2199 0.0
C925 C 0.50317 0.92265 0.23298 0.0
C926 C 0.48033 0.91054 0.24973 0.0
C927 C 0.45289 0.91363 0.24657 0.0
C928 C 0.53601 0.95213 0.23788 0.0
C929 C 0.50632 0.89602 0.22345 0.0
C930 C 0.35436 0.88868 0.28669 0.0
C931 C 0.34329 0.87429 0.30426 0.0
C932 C 0.36165 0.86332 0.31389 0.0
C933 C 0.3909 0.86737 0.30636 0.0
C934 C 0.40191 0.8823 0.28889 0.0
C935 C 0.38329 0.89212 0.27924 0.0
C936 C 0.39763 0.90603 0.26047 0.0
C937 C 0.42833 0.90371 0.26054 0.0
C938 C 0.43105 0.89009 0.27732 0.0
C939 C 0.40526 0.94062 0.26018 0.0
C940 C 0.37352 0.88505 0.24519 0.0
H941 H 0.54836 0.90978 0.25332 0.0
H942 H 0.51478 0.86299 0.31668 0.0
H943 H 0.44993 0.82501 0.28983 0.0
H944 H 0.4193 0.8319 0.2983 0.0
H945 H 0.44801 0.83096 0.31442 0.0
H946 H 0.4945 0.91794 0.31385 0.0
H947 H 0.47579 0.88283 0.32787 0.0
H948 H 0.45228 0.89857 0.31765 0.0
H949 H 0.5183 0.95028 0.19655 0.0
H950 H 0.43163 0.95766 0.19237 0.0
H951 H 0.41428 0.9338 0.2228 0.0
H952 H 0.53435 0.97394 0.23704 0.0
H953 H 0.55549 0.95499 0.22814 0.0
H954 H 0.54372 0.9517 0.2524 0.0
H955 H 0.48327 0.8793 0.21637 0.0
H956 H 0.51111 0.8816 0.23341 0.0
H957 H 0.5258 0.90565 0.21271 0.0
H958 H 0.58474 0.89991 0.27174 0.0
C959 C 0.54015 0.89969 0.26691 0.0
C960 C 0.12963 0.48426 0.2966 0.0
C961 C 0.12504 0.45617 0.28872 0.0
C962 C 0.11215 0.44812 0.27049 0.0
C963 C 0.10829 0.49546 0.26859 0.0
C964 C 0.12131 0.50348 0.28632 0.0
C965 C 0.12519 0.53427 0.29268 0.0
H966 H 0.11221 0.66259 0.27467 0.0
C967 C 0.10233 0.52061 0.26179 0.0
C968 C 0.11246 0.54349 0.27582 0.0
H969 H 0.14649 0.63981 0.32513 0.0
H970 H 0.13687 0.59115 0.31153 0.0
H971 H 0.14643 0.63983 0.2459 0.0
H972 H 0.0507 0.5935 0.26975 0.0
H973 H 0.04634 0.58238 0.2462 0.0
H974 H 0.06292 0.62328 0.25205 0.0
H975 H 0.11564 0.64863 0.23872 0.0
H976 H 0.11975 0.61758 0.22795 0.0
C977 C 0.16182 0.55725 0.29593 0.0
C978 C 0.10347 0.52804 0.31014 0.0
C979 C 0.04911 0.51148 0.1986 0.0
C980 C 0.0414 0.53175 0.18873 0.0
C981 C 0.04946 0.56108 0.19649 0.0
C982 C 0.06454 0.56999 0.21393 0.0
C983 C 0.07178 0.54942 0.22376 0.0
C984 C 0.06446 0.52088 0.21601 0.0
C985 C 0.07508 0.50265 0.22829 0.0
C986 C 0.08901 0.52458 0.2449 0.0
C987 C 0.08683 0.55182 0.24214 0.0
C988 C 0.1014 0.4989 0.21772 0.0
C989 C 0.04469 0.47121 0.23371 0.0
C990 C 0.11736 0.64699 0.28287 0.0
C991 C 0.1303 0.65519 0.30098 0.0
C992 C 0.13702 0.63433 0.31104 0.0
C993 C 0.13124 0.60596 0.30315 0.0
C994 C 0.11851 0.59823 0.285 0.0
C995 C 0.11156 0.61848 0.27524 0.0
C996 C 0.09744 0.60603 0.2563 0.0
C997 C 0.09741 0.57509 0.25624 0.0
C998 C 0.1099 0.57078 0.27303 0.0
C999 C 0.12073 0.62917 0.24133 0.0
C1000 C 0.06261 0.60116 0.25584 0.0
H1001 H 0.09396 0.46012 0.24667 0.0
H1002 H 0.13909 0.49105 0.31062 0.0
H1003 H 0.08118 0.50455 0.3094 0.0
H1004 H 0.0944 0.54477 0.31142 0.0
H1005 H 0.11651 0.52863 0.32315 0.0
H1006 H 0.17682 0.55336 0.28551 0.0
H1007 H 0.16939 0.55391 0.31004 0.0
H1008 H 0.16866 0.58215 0.29414 0.0
H1009 H 0.04362 0.48899 0.19282 0.0
H1010 H 0.04356 0.57696 0.18919 0.0
H1011 H 0.06982 0.59253 0.21911 0.0
H1012 H 0.11586 0.51932 0.20832 0.0
H1013 H 0.09035 0.4774 0.20897 0.0
H1014 H 0.11945 0.49831 0.22719 0.0
H1015 H 0.02418 0.47508 0.23733 0.0
H1016 H 0.04842 0.46006 0.24614 0.0
H1017 H 0.03676 0.4543 0.22194 0.0
H1018 H 0.10883 0.42687 0.26392 0.0
C1019 C 0.10371 0.46756 0.26042 0.0
C1020 C 0.35923 0.47527 0.30498 0.0
C1021 C 0.33819 0.44466 0.29856 0.0
C1022 C 0.34378 0.43567 0.28089 0.0
C1023 C 0.39085 0.4872 0.2763 0.0
C1024 C 0.38556 0.49597 0.29373 0.0
C1025 C 0.41149 0.52875 0.29878 0.0
H1026 H 0.55076 0.66157 0.27584 0.0
C1027 C 0.42033 0.51399 0.26819 0.0
C1028 C 0.43267 0.53838 0.28137 0.0
H1029 H 0.49702 0.64018 0.32767 0.0
H1030 H 0.45672 0.59002 0.3154 0.0
H1031 H 0.54367 0.59309 0.27086 0.0
H1032 H 0.49026 0.63571 0.24917 0.0
H1033 H 0.49088 0.6116 0.23133 0.0
H1034 H 0.52858 0.64416 0.23952 0.0
H1035 H 0.55984 0.62413 0.2538 0.0
H1036 H 0.53649 0.5835 0.24705 0.0
C1037 C 0.42965 0.52663 0.31623 0.0
C1038 C 0.3952 0.54903 0.30152 0.0
C1039 C 0.45906 0.50569 0.20306 0.0
C1040 C 0.48519 0.52708 0.19184 0.0
C1041 C 0.50583 0.55761 0.19868 0.0
C1042 C 0.50095 0.56657 0.2164 0.0
C1043 C 0.4751 0.54485 0.22755 0.0
C1044 C 0.45438 0.51512 0.22075 0.0
C1045 C 0.42779 0.4955 0.23448 0.0
C1046 C 0.43623 0.51828 0.25067 0.0
C1047 C 0.46413 0.54702 0.24655 0.0
C1048 C 0.43095 0.46654 0.23991 0.0
C1049 C 0.39495 0.48738 0.22543 0.0
C1050 C 0.53051 0.64599 0.28464 0.0
C1051 C 0.52727 0.65492 0.30281 0.0
C1052 C 0.50005 0.63409 0.31358 0.0
C1053 C 0.47674 0.60482 0.30648 0.0
C1054 C 0.48061 0.5961 0.28839 0.0
C1055 C 0.50708 0.61666 0.27778 0.0
C1056 C 0.50732 0.60355 0.25888 0.0
C1057 C 0.47697 0.57147 0.26 0.0
C1058 C 0.46135 0.56721 0.2773 0.0
C1059 C 0.53847 0.60102 0.25736 0.0
C1060 C 0.50435 0.62481 0.24384 0.0
H1061 H 0.37266 0.44843 0.25641 0.0
H1062 H 0.3557 0.48264 0.31861 0.0
H1063 H 0.37634 0.54347 0.29069 0.0
H1064 H 0.41232 0.57445 0.30004 0.0
H1065 H 0.38323 0.54453 0.3154 0.0
H1066 H 0.43038 0.5043 0.31635 0.0
H1067 H 0.41755 0.52743 0.32932 0.0
H1068 H 0.45537 0.54526 0.31659 0.0
H1069 H 0.44254 0.48215 0.19816 0.0
H1070 H 0.52633 0.57445 0.19047 0.0
H1071 H 0.51777 0.59003 0.2208 0.0
H1072 H 0.45684 0.47261 0.24018 0.0
H1073 H 0.41815 0.44713 0.22976 0.0
H1074 H 0.42186 0.45771 0.25412 0.0
H1075 H 0.39714 0.50779 0.21737 0.0
H1076 H 0.37562 0.48187 0.23576 0.0
H1077 H 0.38674 0.46734 0.21563 0.0
H1078 H 0.32773 0.41226 0.27563 0.0
C1079 C 0.36982 0.45675 0.26972 0.0
Eu1080 Eu 0.49136 0.9734 0.99005 0.0
C1081 C 0.56256 0.09958 0.03574 0.0
C1082 C 0.61949 0.11527 0.03397 0.0
C1083 C 0.6034 0.15499 0.03672 0.0
C1084 C 0.58653 0.09167 0.03403 0.0
C1085 C 0.57069 0.13129 0.03744 0.0
C1086 C 0.62776 0.147 0.03497 0.0
C1087 C 0.51371 0.11364 0.04161 0.0
N1088 N 0.53128 0.07612 0.03646 0.0
C1089 C 0.50691 0.08255 0.03992 0.0
C1090 C 0.54572 0.13816 0.04017 0.0
Eu1091 Eu 0.52129 0.0242 0.03225 0.0
N1092 N 0.57766 0.06082 0.03317 0.0
C1093 C 0.60063 0.05184 0.03357 0.0
C1094 C 0.64312 0.10623 0.03331 0.0
C1095 C 0.63363 0.07435 0.03337 0.0
H1096 H 0.4821 0.06373 0.04092 0.0
H1097 H 0.65171 0.06707 0.03319 0.0
H1098 H 0.65293 0.16547 0.03478 0.0
H1099 H 0.49427 0.11867 0.04398 0.0
H1100 H 0.59372 0.02732 0.0335 0.0
H1101 H 0.36102 0.931 0.98927 0.0
H1102 H 0.6687 0.12363 0.03316 0.0
H1103 H 0.53021 0.93354 0.98145 0.0
H1104 H 0.41905 0.97057 0.98884 0.0
H1105 H 0.51779 0.8785 0.97852 0.0
H1106 H 0.61013 0.17952 0.03785 0.0
H1107 H 0.3438 0.87439 0.98943 0.0
H1108 H 0.35932 0.83237 0.98792 0.0
H1109 H 0.55094 0.16223 0.04152 0.0
H1110 H 0.40194 0.81807 0.98488 0.0
N1111 N 0.43492 0.93695 0.98921 0.0
C1112 C 0.41205 0.94604 0.98881 0.0
C1113 C 0.36939 0.89171 0.98922 0.0
C1114 C 0.39293 0.88254 0.98858 0.0
C1115 C 0.37902 0.92362 0.98909 0.0
C1116 C 0.42592 0.90605 0.98844 0.0
H1117 H 0.46106 0.83511 0.98113 0.0
N1118 N 0.48111 0.92137 0.98599 0.0
C1119 C 0.49843 0.88364 0.9809 0.0
C1120 C 0.44979 0.898 0.98677 0.0
C1121 C 0.50537 0.91478 0.98251 0.0
C1122 C 0.46639 0.85922 0.98242 0.0
C1123 C 0.44152 0.86623 0.98515 0.0
O1124 O 0.51597 0.97978 0.96321 0.0
O1125 O 0.53164 0.01651 1.00295 0.0
O1126 O 0.5137 0.05185 1.00929 0.0
O1127 O 0.47574 0.01041 0.99108 0.0
O1128 O 0.54481 0.98952 0.98716 0.0
O1129 O 0.47345 0.98481 0.96466 0.0
O1130 O 0.49641 0.01704 0.05907 0.0
O1131 O 0.48106 0.98115 0.01933 0.0
O1132 O 0.49891 0.94582 0.013 0.0
O1133 O 0.53701 0.98724 0.03115 0.0
O1134 O 0.46781 0.00803 0.03511 0.0
O1135 O 0.53953 0.01305 0.05759 0.0
C1136 C 0.55567 0.01509 0.99663 0.0
C1137 C 0.48514 0.96957 0.93557 0.0
C1138 C 0.48397 0.97272 0.90134 0.0
C1139 C 0.49417 0.98752 0.91891 0.0
C1140 C 0.4651 0.9397 0.90085 0.0
C1141 C 0.46622 0.93679 0.93461 0.0
C1142 C 0.45638 0.92199 0.91732 0.0
C1143 C 0.49121 0.04038 0.99608 0.0
C1144 C 0.49573 0.98519 0.95386 0.0
C1145 C 0.40878 0.84263 0.98594 0.0
C1146 C 0.38452 0.85077 0.98767 0.0
C1147 C 0.45698 0.98246 0.02565 0.0
C1148 C 0.52679 0.02694 0.08687 0.0
C1149 C 0.51481 0.00874 0.10335 0.0
C1150 C 0.5228 0.02317 0.1211 0.0
C1151 C 0.54337 0.05594 0.122 0.0
C1152 C 0.54729 0.0595 0.08822 0.0
C1153 C 0.55558 0.07384 0.10571 0.0
C1154 C 0.52149 0.95728 0.02614 0.0
C1155 C 0.51686 0.0119 0.06839 0.0
H1156 H 0.50857 0.0129 0.91967 0.0
H1157 H 0.45722 0.92745 0.88766 0.0
H1158 H 0.45914 0.92266 0.94723 0.0
H1159 H 0.44188 0.89663 0.91668 0.0
H1160 H 0.4987 0.98359 0.10233 0.0
H1161 H 0.55023 0.06774 0.13537 0.0
H1162 H 0.55668 0.07381 0.07575 0.0
H1163 H 0.57142 0.09901 0.10665 0.0
Eu1164 Eu 0.03089 0.50686 0.98787 0.0
C1165 C 0.90486 0.46436 0.03435 0.0
C1166 C 0.89359 0.50684 0.02941 0.0
C1167 C 0.84917 0.4538 0.03484 0.0
C1168 C 0.91578 0.49572 0.03069 0.0
C1169 C 0.87154 0.44323 0.03711 0.0
C1170 C 0.86019 0.48555 0.03095 0.0
C1171 C 0.88532 0.40392 0.04643 0.0
N1172 N 0.92711 0.45505 0.0367 0.0
C1173 C 0.9181 0.42585 0.04365 0.0
C1174 C 0.86186 0.41247 0.04282 0.0
Eu1175 Eu 0.98201 0.49284 0.03089 0.0
N1176 N 0.94822 0.51566 0.02946 0.0
C1177 C 0.96019 0.54738 0.02855 0.0
C1178 C 0.9057 0.53913 0.02721 0.0
C1179 C 0.93916 0.55954 0.02712 0.0
H1180 H 0.93627 0.41925 0.04644 0.0
H1181 H 0.9488 0.58462 0.02584 0.0
H1182 H 0.84276 0.49359 0.02976 0.0
H1183 H 0.87819 0.38048 0.05137 0.0
H1184 H 0.98597 0.56345 0.0283 0.0
H1185 H 0.06141 0.41318 0.99306 0.0
H1186 H 0.88947 0.54861 0.0261 0.0
H1187 H 0.07809 0.58067 0.97312 0.0
H1188 H 0.02524 0.43544 0.99076 0.0
H1189 H 0.13646 0.6186 0.96838 0.0
H1190 H 0.82342 0.43783 0.03665 0.0
H1191 H 0.12091 0.44819 0.99244 0.0
H1192 H 0.1684 0.50272 0.98874 0.0
H1193 H 0.83649 0.39551 0.04509 0.0
H1194 H 0.18894 0.5588 0.98218 0.0
N1195 N 0.06369 0.48292 0.98924 0.0
C1196 C 0.05108 0.45112 0.99033 0.0
C1197 C 0.10511 0.45815 0.99136 0.0
C1198 C 0.11787 0.49053 0.98912 0.0
C1199 C 0.07156 0.43832 0.99167 0.0
C1200 C 0.09624 0.50232 0.98792 0.0
H1201 H 0.17719 0.60215 0.97425 0.0
N1202 N 0.08613 0.54391 0.98235 0.0
C1203 C 0.12878 0.59491 0.97306 0.0
C1204 C 0.10784 0.53387 0.9845 0.0
C1205 C 0.09584 0.57345 0.97574 0.0
C1206 C 0.15169 0.58556 0.97644 0.0
C1207 C 0.1413 0.55451 0.98184 0.0
O1208 O 0.02702 0.52407 0.96036 0.0
O1209 O 0.98718 0.50534 1.00057 0.0
O1210 O 0.95113 0.45251 0.01175 0.0
O1211 O 0.98888 0.4562 0.98935 0.0
O1212 O 0.01511 0.54297 0.98315 0.0
O1213 O 0.01956 0.47701 0.96324 0.0
O1214 O 0.98739 0.4768 0.05842 0.0
O1215 O 0.02561 0.4945 0.01815 0.0
O1216 O 0.06183 0.54677 1.00736 0.0
O1217 O 0.02357 0.54366 0.0292 0.0
O1218 O 0.9987 0.45737 0.036 0.0
O1219 O 0.9924 0.52293 0.05533 0.0
C1220 C 0.9889 0.52943 0.993 0.0
C1221 C 0.04061 0.50331 0.93455 0.0
C1222 C 0.04251 0.50262 0.9005 0.0
C1223 C 0.02496 0.49753 0.91721 0.0
C1224 C 0.07605 0.51373 0.90143 0.0
C1225 C 0.07397 0.514 0.93521 0.0
C1226 C 0.09159 0.51928 0.9187 0.0
C1227 C 0.96007 0.44128 0.99761 0.0
C1228 C 0.02184 0.49867 0.95172 0.0
C1229 C 0.1631 0.54322 0.98393 0.0
C1230 C 0.1514 0.51128 0.98761 0.0
C1231 C 0.02468 0.47095 0.02596 0.0
C1232 C 0.97331 0.49689 0.08429 0.0
C1233 C 0.98996 0.50404 0.10131 0.0
C1234 C 0.9731 0.49819 0.1183 0.0
C1235 C 0.93921 0.48496 0.11803 0.0
C1236 C 0.93957 0.48413 0.08421 0.0
C1237 C 0.92262 0.47813 0.10104 0.0
C1238 C 0.05272 0.55822 0.02133 0.0
C1239 C 0.99159 0.50197 0.06691 0.0
H1240 H 0.99918 0.48941 0.91674 0.0
H1241 H 0.09013 0.51755 0.88881 0.0
H1242 H 0.08638 0.51827 0.94841 0.0
H1243 H 0.11735 0.52757 0.9193 0.0
H1244 H 0.01605 0.51373 0.10133 0.0
H1245 H 0.92566 0.48042 0.13093 0.0
H1246 H 0.92636 0.47871 0.07122 0.0
H1247 H 0.89655 0.46819 0.10092 0.0
Eu1248 Eu 0.51887 0.48892 0.03368 0.0
C1249 C 0.44514 0.53802 0.98531 0.0
C1250 C 0.38889 0.49702 0.98754 0.0
C1251 C 0.4024 0.55146 0.98363 0.0
C1252 C 0.42221 0.50662 0.98754 0.0
C1253 C 0.43549 0.56071 0.98287 0.0
C1254 C 0.37914 0.51968 0.986 0.0
C1255 C 0.49173 0.5995 0.97752 0.0
N1256 N 0.47688 0.54616 0.98452 0.0
C1257 C 0.50009 0.57612 0.97995 0.0
C1258 C 0.45934 0.59186 0.97923 0.0
Eu1259 Eu 0.48916 0.50557 0.98966 0.0
N1260 N 0.43241 0.48529 0.98884 0.0
C1261 C 0.41056 0.45385 0.98888 0.0
C1262 C 0.36635 0.46488 0.98865 0.0
C1263 C 0.37724 0.44319 0.98905 0.0
H1264 H 0.52518 0.58209 0.97876 0.0
H1265 H 0.36001 0.41825 0.98957 0.0
H1266 H 0.35366 0.51278 0.98615 0.0
H1267 H 0.51027 0.62339 0.97436 0.0
H1268 H 0.41866 0.43685 0.98932 0.0
H1269 H 0.64867 0.57503 0.03217 0.0
H1270 H 0.34054 0.45655 0.98877 0.0
H1271 H 0.48316 0.41488 0.0492 0.0
H1272 H 0.59035 0.55717 0.03236 0.0
H1273 H 0.49733 0.37378 0.0562 0.0
H1274 H 0.39451 0.56859 0.98197 0.0
H1275 H 0.66754 0.53641 0.03484 0.0
H1276 H 0.65377 0.48038 0.03986 0.0
H1277 H 0.45291 0.60999 0.97728 0.0
H1278 H 0.6125 0.42544 0.04643 0.0
N1279 N 0.57576 0.50859 0.03455 0.0
C1280 C 0.59799 0.53993 0.03361 0.0
C1281 C 0.64178 0.52838 0.03493 0.0
C1282 C 0.61898 0.49651 0.03713 0.0
C1283 C 0.63123 0.55023 0.03348 0.0
C1284 C 0.58573 0.48728 0.03703 0.0
H1285 H 0.55413 0.38556 0.0529 0.0
N1286 N 0.53117 0.44905 0.04141 0.0
C1287 C 0.51593 0.39688 0.05168 0.0
C1288 C 0.56265 0.45646 0.04054 0.0
C1289 C 0.50799 0.42019 0.04772 0.0
C1290 C 0.54799 0.4036 0.04974 0.0
C1291 C 0.57195 0.43388 0.04447 0.0
O1292 O 0.49349 0.47492 0.06049 0.0
O1293 O 0.47803 0.49105 0.01954 0.0
O1294 O 0.49454 0.54146 0.01095 0.0
O1295 O 0.53369 0.54068 0.03007 0.0
O1296 O 0.46553 0.45297 0.03677 0.0
O1297 O 0.53747 0.51967 0.05805 0.0
O1298 O 0.51329 0.52337 0.96279 0.0
O1299 O 0.52934 0.50214 1.00355 0.0
O1300 O 0.5093 0.44921 0.01414 0.0
O1301 O 0.47664 0.4543 0.99131 0.0
O1302 O 0.54292 0.54042 0.98626 0.0
O1303 O 0.47053 0.47727 0.96435 0.0
C1304 C 0.45416 0.46668 0.02632 0.0
C1305 C 0.52528 0.49444 0.08756 0.0
C1306 C 0.52208 0.49466 0.12166 0.0
C1307 C 0.51339 0.50084 0.10397 0.0
C1308 C 0.54292 0.48203 0.1226 0.0
C1309 C 0.54618 0.48206 0.08885 0.0
C1310 C 0.55489 0.47587 0.1063 0.0
C1311 C 0.51736 0.55419 0.02378 0.0
C1312 C 0.51486 0.49986 0.06925 0.0
C1313 C 0.60489 0.44253 0.04367 0.0
C1314 C 0.62837 0.47381 0.03996 0.0
C1315 C 0.55356 0.52577 0.99646 0.0
C1316 C 0.48061 0.50547 0.93589 0.0
C1317 C 0.49095 0.49984 0.91863 0.0
C1318 C 0.48014 0.50627 0.9017 0.0
C1319 C 0.4593 0.51894 0.90241 0.0
C1320 C 0.45963 0.51782 0.93619 0.0
C1321 C 0.44918 0.52463 0.91952 0.0
C1322 C 0.48948 0.4388 0.9996 0.0
C1323 C 0.49227 0.49889 0.95345 0.0
H1324 H 0.49702 0.51018 0.10294 0.0
H1325 H 0.55043 0.4774 0.13597 0.0
H1326 H 0.55567 0.47712 0.07639 0.0
H1327 H 0.57105 0.46632 0.1072 0.0
H1328 H 0.50686 0.48992 0.91841 0.0
H1329 H 0.45089 0.52457 0.88969 0.0
H1330 H 0.45136 0.52222 0.94927 0.0
H1331 H 0.4331 0.53432 0.91987 0.0
Eu1332 Eu 0.15648 0.3064 0.32363 0.0
C1333 C 0.22982 0.43127 0.36968 0.0
C1334 C 0.28598 0.44403 0.36879 0.0
C1335 C 0.2728 0.48586 0.37091 0.0
C1336 C 0.2526 0.4217 0.36849 0.0
C1337 C 0.23961 0.46341 0.37127 0.0
C1338 C 0.29595 0.47619 0.36965 0.0
C1339 C 0.18319 0.4486 0.3747 0.0
N1340 N 0.19803 0.409 0.37005 0.0
C1341 C 0.17472 0.41702 0.37314 0.0
C1342 C 0.21577 0.47195 0.37356 0.0
Eu1343 Eu 0.18528 0.35621 0.36622 0.0
N1344 N 0.24212 0.39046 0.36773 0.0
C1345 C 0.26376 0.37986 0.36862 0.0
C1346 C 0.30832 0.43334 0.36864 0.0
C1347 C 0.29713 0.40109 0.36881 0.0
H1348 H 0.14948 0.39902 0.3739 0.0
H1349 H 0.31418 0.39254 0.36902 0.0
H1350 H 0.32148 0.49371 0.36973 0.0
H1351 H 0.1646 0.45492 0.37675 0.0
H1352 H 0.25552 0.35503 0.36866 0.0
H1353 H 0.0261 0.26422 0.32404 0.0
H1354 H 0.33417 0.44973 0.36879 0.0
H1355 H 0.19436 0.26731 0.31114 0.0
H1356 H 0.08413 0.30371 0.32333 0.0
H1357 H 0.18175 0.21256 0.3062 0.0
H1358 H 0.28082 0.5107 0.37195 0.0
H1359 H 0.00874 0.20759 0.32341 0.0
H1360 H 0.02408 0.16559 0.32034 0.0
H1361 H 0.22229 0.4964 0.37482 0.0
H1362 H 0.06649 0.15148 0.3153 0.0
N1363 N 0.09993 0.27001 0.32298 0.0
C1364 C 0.07709 0.27917 0.32301 0.0
C1365 C 0.03434 0.22487 0.32314 0.0
C1366 C 0.0578 0.21568 0.32179 0.0
C1367 C 0.04404 0.2568 0.32344 0.0
C1368 C 0.09081 0.23915 0.3216 0.0
H1369 H 0.12532 0.16888 0.30966 0.0
N1370 N 0.14577 0.25465 0.31779 0.0
C1371 C 0.16261 0.21744 0.30987 0.0
C1372 C 0.11453 0.23121 0.31887 0.0
C1373 C 0.16967 0.24842 0.31266 0.0
C1374 C 0.13075 0.19285 0.31188 0.0
C1375 C 0.10613 0.1996 0.31613 0.0
O1376 O 0.18286 0.31665 0.29712 0.0
O1377 O 0.19662 0.3489 0.33714 0.0
O1378 O 0.17908 0.38447 0.34309 0.0
O1379 O 0.14093 0.34337 0.32489 0.0
O1380 O 0.20985 0.32173 0.32163 0.0
O1381 O 0.1378 0.317 0.29824 0.0
O1382 O 0.16062 0.35247 0.39274 0.0
O1383 O 0.14524 0.31331 0.35302 0.0
O1384 O 0.16526 0.27774 0.34534 0.0
O1385 O 0.19811 0.31722 0.36663 0.0
O1386 O 0.13201 0.34091 0.36821 0.0
O1387 O 0.20074 0.34352 0.39201 0.0
C1388 C 0.22071 0.34713 0.33128 0.0
C1389 C 0.15321 0.30571 0.269 0.0
C1390 C 0.15652 0.31094 0.23481 0.0
C1391 C 0.16313 0.32469 0.25276 0.0
C1392 C 0.13951 0.27794 0.23351 0.0
C1393 C 0.13623 0.27294 0.26724 0.0
C1394 C 0.12942 0.25919 0.24958 0.0
C1395 C 0.15675 0.37332 0.32981 0.0
C1396 C 0.1616 0.32031 0.28766 0.0
C1397 C 0.07342 0.17595 0.31717 0.0
C1398 C 0.04929 0.18398 0.32004 0.0
C1399 C 0.12118 0.315 0.35907 0.0
C1400 C 0.18999 0.36011 0.42084 0.0
C1401 C 0.17857 0.34187 0.43731 0.0
C1402 C 0.18905 0.35582 0.45507 0.0
C1403 C 0.21091 0.38839 0.45591 0.0
C1404 C 0.21179 0.39241 0.42213 0.0
C1405 C 0.22212 0.40643 0.4396 0.0
C1406 C 0.1848 0.28818 0.36003 0.0
C1407 C 0.17911 0.34509 0.40244 0.0
H1408 H 0.17648 0.35004 0.25412 0.0
H1409 H 0.13358 0.26654 0.22001 0.0
H1410 H 0.12839 0.258 0.27952 0.0
H1411 H 0.11627 0.23385 0.24833 0.0
H1412 H 0.16196 0.31682 0.43624 0.0
H1413 H 0.21909 0.4001 0.46924 0.0
H1414 H 0.2208 0.40674 0.40965 0.0
H1415 H 0.23886 0.43143 0.44052 0.0
Eu1416 Eu 0.6954 0.83944 0.32342 0.0
C1417 C 0.56876 0.7949 0.36941 0.0
C1418 C 0.55579 0.83645 0.36527 0.0
C1419 C 0.51252 0.78263 0.37008 0.0
C1420 C 0.57876 0.82627 0.36626 0.0
C1421 C 0.5356 0.77284 0.37182 0.0
C1422 C 0.5226 0.81436 0.36678 0.0
C1423 C 0.55076 0.73367 0.37904 0.0
N1424 N 0.59165 0.78622 0.3711 0.0
C1425 C 0.58336 0.75643 0.37658 0.0
C1426 C 0.52673 0.74181 0.37641 0.0
Eu1427 Eu 0.64607 0.82577 0.36607 0.0
N1428 N 0.61102 0.84705 0.365 0.0
C1429 C 0.62207 0.87858 0.36407 0.0
C1430 C 0.56692 0.86861 0.36324 0.0
C1431 C 0.60022 0.8898 0.3629 0.0
H1432 H 0.60192 0.75008 0.3785 0.0
H1433 H 0.60908 0.91477 0.36166 0.0
H1434 H 0.50458 0.8217 0.36586 0.0
H1435 H 0.54419 0.70989 0.38293 0.0
H1436 H 0.64773 0.89518 0.36367 0.0
H1437 H 0.72998 0.74855 0.32833 0.0
H1438 H 0.55005 0.87737 0.36233 0.0
H1439 H 0.7406 0.91327 0.30822 0.0
H1440 H 0.69241 0.7692 0.32619 0.0
H1441 H 0.79849 0.9525 0.30329 0.0
H1442 H 0.4869 0.76598 0.37169 0.0
H1443 H 0.78922 0.78493 0.3276 0.0
H1444 H 0.83553 0.84011 0.32383 0.0
H1445 H 0.5015 0.72416 0.37837 0.0
H1446 H 0.8543 0.89585 0.31718 0.0
N1447 N 0.72977 0.81714 0.32469 0.0
C1448 C 0.71811 0.78548 0.32574 0.0
C1449 C 0.7728 0.79419 0.3266 0.0
C1450 C 0.78459 0.82643 0.32439 0.0
C1451 C 0.73939 0.77359 0.32698 0.0
C1452 C 0.76215 0.83727 0.32331 0.0
H1453 H 0.84064 0.93791 0.30917 0.0
N1454 N 0.75022 0.87757 0.31758 0.0
C1455 C 0.79162 0.92904 0.30807 0.0
C1456 C 0.77274 0.86857 0.31978 0.0
C1457 C 0.75893 0.90683 0.31086 0.0
C1458 C 0.81534 0.92074 0.31146 0.0
C1459 C 0.80599 0.88998 0.31698 0.0
O1460 O 0.69026 0.85483 0.29561 0.0
O1461 O 0.65198 0.83883 0.33586 0.0
O1462 O 0.61479 0.78878 0.34515 0.0
O1463 O 0.65458 0.78818 0.32646 0.0
O1464 O 0.67988 0.87567 0.31807 0.0
O1465 O 0.68321 0.80809 0.29946 0.0
O1466 O 0.65071 0.80943 0.39366 0.0
O1467 O 0.6899 0.8275 0.35369 0.0
O1468 O 0.72597 0.87946 0.34295 0.0
O1469 O 0.68717 0.87683 0.36426 0.0
O1470 O 0.66293 0.79035 0.37145 0.0
O1471 O 0.65542 0.8555 0.39059 0.0
C1472 C 0.6539 0.86289 0.32812 0.0
C1473 C 0.70424 0.83317 0.27052 0.0
C1474 C 0.70676 0.83166 0.23653 0.0
C1475 C 0.68897 0.82726 0.25308 0.0
C1476 C 0.7402 0.84229 0.23779 0.0
C1477 C 0.73746 0.84336 0.27149 0.0
C1478 C 0.75536 0.84801 0.25518 0.0
C1479 C 0.62423 0.77537 0.33256 0.0
C1480 C 0.68524 0.82909 0.28749 0.0
C1481 C 0.82861 0.87968 0.31903 0.0
C1482 C 0.81792 0.84794 0.32277 0.0
C1483 C 0.68907 0.80408 0.36156 0.0
C1484 C 0.63571 0.82896 0.41946 0.0
C1485 C 0.65149 0.83427 0.43675 0.0
C1486 C 0.63393 0.82799 0.45357 0.0
C1487 C 0.60026 0.81622 0.45277 0.0
C1488 C 0.6022 0.81748 0.41895 0.0
C1489 C 0.58459 0.81111 0.43555 0.0
C1490 C 0.71652 0.89122 0.3566 0.0
C1491 C 0.65449 0.83446 0.40219 0.0
H1492 H 0.66313 0.81879 0.25246 0.0
H1493 H 0.7547 0.84637 0.22533 0.0
H1494 H 0.74957 0.84775 0.28479 0.0
H1495 H 0.78106 0.85609 0.25602 0.0
H1496 H 0.67737 0.84287 0.43709 0.0
H1497 H 0.58614 0.8115 0.46545 0.0
H1498 H 0.58967 0.81336 0.40578 0.0
H1499 H 0.55871 0.80224 0.43507 0.0
Eu1500 Eu 0.186 0.82303 0.36619 0.0
C1501 C 0.11286 0.87267 0.31613 0.0
C1502 C 0.05652 0.83296 0.32013 0.0
C1503 C 0.07085 0.88701 0.3136 0.0
C1504 C 0.08969 0.84194 0.31987 0.0
C1505 C 0.10367 0.89539 0.31236 0.0
C1506 C 0.0473 0.85583 0.31752 0.0
C1507 C 0.15946 0.93184 0.30429 0.0
N1508 N 0.14422 0.87981 0.3148 0.0
C1509 C 0.1673 0.90843 0.30814 0.0
C1510 C 0.1276 0.92547 0.30673 0.0
Eu1511 Eu 0.15622 0.8397 0.32229 0.0
N1512 N 0.09945 0.82042 0.32197 0.0
C1513 C 0.0771 0.78911 0.32278 0.0
C1514 C 0.03358 0.80112 0.32231 0.0
C1515 C 0.04392 0.77904 0.3233 0.0
H1516 H 0.19199 0.91347 0.30633 0.0
H1517 H 0.02637 0.75427 0.32452 0.0
H1518 H 0.02196 0.84946 0.31789 0.0
H1519 H 0.178 0.95477 0.29949 0.0
H1520 H 0.08467 0.77177 0.32364 0.0
H1521 H 0.31488 0.91135 0.36659 0.0
H1522 H 0.00787 0.79325 0.32266 0.0
H1523 H 0.15047 0.74649 0.37694 0.0
H1524 H 0.25618 0.8922 0.36621 0.0
H1525 H 0.16589 0.7057 0.3819 0.0
H1526 H 0.06333 0.90421 0.31097 0.0
H1527 H 0.33494 0.87357 0.36847 0.0
H1528 H 0.32239 0.81761 0.37173 0.0
H1529 H 0.12155 0.94359 0.30366 0.0
H1530 H 0.28191 0.76169 0.37589 0.0
N1531 N 0.24285 0.84389 0.36745 0.0
C1532 C 0.26447 0.8754 0.36713 0.0
C1533 C 0.30907 0.86499 0.36835 0.0
C1534 C 0.28678 0.83281 0.36965 0.0
C1535 C 0.29785 0.88639 0.36732 0.0
C1536 C 0.25337 0.82287 0.3693 0.0
H1537 H 0.22354 0.7198 0.37993 0.0
N1538 N 0.1988 0.7829 0.37177 0.0
C1539 C 0.18433 0.72968 0.3789 0.0
C1540 C 0.23065 0.7914 0.37148 0.0
C1541 C 0.17569 0.7528 0.37613 0.0
C1542 C 0.2169 0.73773 0.37773 0.0
C1543 C 0.24059 0.76899 0.37426 0.0
O1544 O 0.16095 0.80533 0.39281 0.0
O1545 O 0.14532 0.8261 0.35244 0.0
O1546 O 0.16578 0.87942 0.34179 0.0
O1547 O 0.19848 0.87427 0.36452 0.0
O1548 O 0.13266 0.78715 0.36905 0.0
O1549 O 0.20408 0.85122 0.39158 0.0
O1550 O 0.18117 0.85329 0.29536 0.0
O1551 O 0.19688 0.83746 0.33637 0.0
O1552 O 0.18086 0.7872 0.34493 0.0
O1553 O 0.14188 0.78799 0.3256 0.0
O1554 O 0.20986 0.87507 0.31873 0.0
O1555 O 0.13629 0.80929 0.29786 0.0
C1556 C 0.12145 0.80171 0.35923 0.0
C1557 C 0.19229 0.82313 0.42018 0.0
C1558 C 0.18966 0.8217 0.45432 0.0
C1559 C 0.18095 0.82901 0.43697 0.0
C1560 C 0.20991 0.80837 0.45454 0.0
C1561 C 0.2126 0.81004 0.42074 0.0
C1562 C 0.22131 0.80268 0.43785 0.0
C1563 C 0.18551 0.88973 0.35636 0.0
C1564 C 0.18173 0.82975 0.40226 0.0
C1565 C 0.27379 0.7786 0.37395 0.0
C1566 C 0.29684 0.81045 0.37162 0.0
C1567 C 0.22098 0.86131 0.32935 0.0
C1568 C 0.14888 0.83482 0.26841 0.0
C1569 C 0.16063 0.82855 0.25191 0.0
C1570 C 0.15232 0.83544 0.23431 0.0
C1571 C 0.13204 0.84871 0.23355 0.0
C1572 C 0.1285 0.8478 0.26732 0.0
C1573 C 0.12019 0.85474 0.24995 0.0
C1574 C 0.15825 0.77453 0.33195 0.0
C1575 C 0.15907 0.82875 0.28661 0.0
H1576 H 0.165 0.83888 0.43648 0.0
H1577 H 0.21744 0.80287 0.46763 0.0
H1578 H 0.22162 0.80542 0.40799 0.0
H1579 H 0.23702 0.79258 0.43819 0.0
H1580 H 0.17661 0.81874 0.2528 0.0
H1581 H 0.12487 0.85393 0.22025 0.0
H1582 H 0.11912 0.85266 0.27985 0.0
H1583 H 0.10445 0.86477 0.24919 0.0
Eu1584 Eu 0.82563 0.64546 0.65562 0.0
C1585 C 0.86391 0.75305 0.70968 0.0
C1586 C 0.92172 0.78828 0.70582 0.0
C1587 C 0.88687 0.80898 0.71531 0.0
C1588 C 0.89442 0.75785 0.70507 0.0
C1589 C 0.85999 0.77843 0.71539 0.0
C1590 C 0.91764 0.8139 0.71048 0.0
C1591 C 0.80394 0.74113 0.72263 0.0
N1592 N 0.83833 0.72325 0.70962 0.0
C1593 C 0.80892 0.71672 0.71669 0.0
C1594 C 0.82942 0.77217 0.72166 0.0
Eu1595 Eu 0.84966 0.68342 0.7008 0.0
N1596 N 0.89777 0.73252 0.70121 0.0
C1597 C 0.92776 0.73557 0.69941 0.0
C1598 C 0.95245 0.79187 0.70263 0.0
C1599 C 0.95551 0.76533 0.69969 0.0
H1600 H 0.78928 0.69267 0.71736 0.0
H1601 H 0.97922 0.76776 0.6977 0.0
H1602 H 0.9383 0.83749 0.71099 0.0
H1603 H 0.78045 0.73601 0.72787 0.0
H1604 H 0.93026 0.71507 0.69738 0.0
H1605 H 0.69686 0.55877 0.65941 0.0
H1606 H 0.97401 0.81487 0.70301 0.0
H1607 H 0.88693 0.63826 0.63867 0.0
H1608 H 0.74504 0.61204 0.65982 0.0
H1609 H 0.89704 0.596 0.62755 0.0
H1610 H 0.8843 0.82884 0.71947 0.0
H1611 H 0.70334 0.51258 0.65327 0.0
H1612 H 0.74002 0.49139 0.64449 0.0
H1613 H 0.82548 0.79103 0.72626 0.0
H1614 H 0.79438 0.50153 0.63555 0.0
N1615 N 0.77831 0.59575 0.65525 0.0
C1616 C 0.74806 0.59191 0.65746 0.0
C1617 C 0.72455 0.53582 0.65371 0.0
C1618 C 0.75552 0.54024 0.65014 0.0
C1619 C 0.72077 0.56184 0.65712 0.0
C1620 C 0.78233 0.57095 0.65099 0.0
H1621 H 0.85291 0.54053 0.62875 0.0
N1622 N 0.83813 0.60663 0.64637 0.0
C1623 C 0.87341 0.59022 0.63289 0.0
C1624 C 0.81304 0.57657 0.64612 0.0
C1625 C 0.86772 0.61401 0.63919 0.0
C1626 C 0.84843 0.55891 0.63362 0.0
C1627 C 0.81767 0.55179 0.64006 0.0
O1628 O 0.84767 0.66253 0.62816 0.0
O1629 O 0.8683 0.68074 0.67271 0.0
O1630 O 0.82847 0.70792 0.68262 0.0
O1631 O 0.79475 0.66695 0.66317 0.0
O1632 O 0.86255 0.6947 0.64678 0.0
O1633 O 0.79558 0.64139 0.63145 0.0
O1634 O 0.82707 0.6678 0.7283 0.0
O1635 O 0.80692 0.64808 0.68378 0.0
O1636 O 0.847 0.62096 0.67355 0.0
O1637 O 0.88024 0.66142 0.69352 0.0
O1638 O 0.8133 0.63397 0.70951 0.0
O1639 O 0.87887 0.68636 0.72512 0.0
C1640 C 0.88037 0.70337 0.66134 0.0
C1641 C 0.81582 0.6389 0.60138 0.0
C1642 C 0.82318 0.6441 0.56734 0.0
C1643 C 0.82619 0.65773 0.58512 0.0
C1644 C 0.80956 0.61126 0.56623 0.0
C1645 C 0.80226 0.60628 0.59982 0.0
C1646 C 0.79922 0.59261 0.58234 0.0
C1647 C 0.8062 0.69599 0.66926 0.0
C1648 C 0.82009 0.65381 0.61982 0.0
C1649 C 0.79127 0.52096 0.63999 0.0
C1650 C 0.76029 0.51519 0.64508 0.0
C1651 C 0.7951 0.62536 0.69511 0.0
C1652 C 0.85958 0.69125 0.75494 0.0
C1653 C 0.84765 0.67318 0.77142 0.0
C1654 C 0.85163 0.68786 0.78892 0.0
C1655 C 0.86799 0.72091 0.78959 0.0
C1656 C 0.87586 0.72412 0.75606 0.0
C1657 C 0.88001 0.7388 0.7733 0.0
C1658 C 0.86907 0.63262 0.68702 0.0
C1659 C 0.85435 0.67543 0.73673 0.0
H1660 H 0.83694 0.68298 0.58637 0.0
H1661 H 0.80632 0.59984 0.55286 0.0
H1662 H 0.79397 0.59139 0.61207 0.0
H1663 H 0.78865 0.56739 0.58124 0.0
H1664 H 0.83481 0.64775 0.77055 0.0
H1665 H 0.87188 0.733 0.80278 0.0
H1666 H 0.8854 0.73844 0.74364 0.0
H1667 H 0.89264 0.7642 0.77405 0.0
Eu1668 Eu 0.36464 0.17421 0.65604 0.0
C1669 C 0.23516 0.12281 0.70081 0.0
C1670 C 0.21931 0.16245 0.69739 0.0
C1671 C 0.17805 0.1076 0.70128 0.0
C1672 C 0.24354 0.15388 0.69819 0.0
C1673 C 0.20237 0.09939 0.70281 0.0
C1674 C 0.18651 0.13907 0.69855 0.0
C1675 C 0.22023 0.06195 0.70913 0.0
N1676 N 0.25923 0.1157 0.70232 0.0
C1677 C 0.25239 0.08602 0.70711 0.0
C1678 C 0.19507 0.06857 0.70674 0.0
Eu1679 Eu 0.31293 0.15739 0.6979 0.0
N1680 N 0.27545 0.17589 0.69722 0.0
C1681 C 0.28486 0.20712 0.69678 0.0
C1682 C 0.2288 0.19434 0.69588 0.0
C1683 C 0.26174 0.21678 0.69584 0.0
H1684 H 0.27177 0.08077 0.70885 0.0
H1685 H 0.26935 0.24153 0.695 0.0
H1686 H 0.16754 0.14518 0.69778 0.0
H1687 H 0.21486 0.03831 0.71249 0.0
H1688 H 0.31023 0.2247 0.69663 0.0
H1689 H 0.40555 0.08796 0.65865 0.0
H1690 H 0.21093 0.20189 0.69514 0.0
H1691 H 0.40746 0.2509 0.64556 0.0
H1692 H 0.36565 0.10598 0.65712 0.0
H1693 H 0.46481 0.29261 0.64239 0.0
H1694 H 0.15269 0.0899 0.70259 0.0
H1695 H 0.46424 0.12666 0.65876 0.0
H1696 H 0.50857 0.18306 0.65666 0.0
H1697 H 0.17017 0.04989 0.70836 0.0
H1698 H 0.52473 0.23876 0.6523 0.0
N1699 N 0.40122 0.15457 0.65676 0.0
C1700 C 0.39113 0.12319 0.65706 0.0
C1701 C 0.44681 0.13475 0.65804 0.0
C1702 C 0.45701 0.16681 0.65675 0.0
C1703 C 0.41371 0.11283 0.65795 0.0
C1704 C 0.43331 0.1761 0.65598 0.0
H1705 H 0.50859 0.27978 0.64671 0.0
N1706 N 0.41886 0.21518 0.65207 0.0
C1707 C 0.45886 0.26877 0.64564 0.0
C1708 C 0.44243 0.2074 0.65365 0.0
C1709 C 0.42645 0.24512 0.64739 0.0
C1710 C 0.4835 0.26144 0.64814 0.0
C1711 C 0.47544 0.23036 0.65189 0.0
O1712 O 0.36116 0.19102 0.62836 0.0
O1713 O 0.32001 0.17174 0.66794 0.0
O1714 O 0.28364 0.12126 0.67614 0.0
O1715 O 0.3251 0.12236 0.65816 0.0
O1716 O 0.34763 0.20946 0.6507 0.0
O1717 O 0.35479 0.14435 0.63155 0.0
O1718 O 0.31865 0.14191 0.7255 0.0
O1719 O 0.35747 0.16004 0.68593 0.0
O1720 O 0.39361 0.21037 0.67793 0.0
O1721 O 0.35191 0.20931 0.69562 0.0
O1722 O 0.33066 0.12259 0.70342 0.0
O1723 O 0.32146 0.18716 0.72232 0.0
C1724 C 0.3213 0.19563 0.6604 0.0
C1725 C 0.37698 0.17112 0.60312 0.0
C1726 C 0.38104 0.17073 0.56913 0.0
C1727 C 0.36239 0.16518 0.58546 0.0
C1728 C 0.41463 0.18245 0.57085 0.0
C1729 C 0.41042 0.18258 0.60453 0.0
C1730 C 0.42913 0.18826 0.58845 0.0
C1731 C 0.29438 0.10871 0.66372 0.0
C1732 C 0.35708 0.16585 0.61987 0.0
C1733 C 0.49921 0.22143 0.65342 0.0
C1734 C 0.49001 0.18971 0.65587 0.0
C1735 C 0.35686 0.13658 0.69361 0.0
C1736 C 0.30257 0.16054 0.7512 0.0
C1737 C 0.31878 0.16799 0.76839 0.0
C1738 C 0.30129 0.16081 0.78524 0.0
C1739 C 0.26727 0.14608 0.78464 0.0
C1740 C 0.26867 0.14613 0.7508 0.0
C1741 C 0.25113 0.13895 0.76748 0.0
C1742 C 0.3827 0.22291 0.69026 0.0
C1743 C 0.32146 0.16661 0.73395 0.0
H1744 H 0.33643 0.15585 0.58448 0.0
H1745 H 0.42977 0.1874 0.55859 0.0
H1746 H 0.42205 0.18721 0.61799 0.0
H1747 H 0.45497 0.19728 0.58962 0.0
H1748 H 0.34499 0.17883 0.76864 0.0
H1749 H 0.25322 0.14049 0.7974 0.0
H1750 H 0.25579 0.14024 0.73768 0.0
H1751 H 0.22494 0.12776 0.76712 0.0
Eu1752 Eu 0.85248 0.15516 0.69995 0.0
C1753 C 0.77775 0.20404 0.65133 0.0
C1754 C 0.72124 0.16423 0.6547 0.0
C1755 C 0.73592 0.21868 0.6493 0.0
C1756 C 0.75437 0.17306 0.65444 0.0
C1757 C 0.76878 0.22711 0.64833 0.0
C1758 C 0.7122 0.1873 0.65251 0.0
C1759 C 0.82516 0.26459 0.64225 0.0
N1760 N 0.80924 0.21137 0.65041 0.0
C1761 C 0.83283 0.24086 0.64527 0.0
C1762 C 0.79304 0.25778 0.64401 0.0
Eu1763 Eu 0.82048 0.17032 0.6566 0.0
N1764 N 0.76391 0.15133 0.65637 0.0
C1765 C 0.74147 0.12008 0.65729 0.0
C1766 C 0.69817 0.13238 0.65672 0.0
C1767 C 0.70833 0.11017 0.65776 0.0
H1768 H 0.85772 0.24626 0.644 0.0
H1769 H 0.69067 0.08543 0.65899 0.0
H1770 H 0.68689 0.18101 0.65284 0.0
H1771 H 0.84401 0.2881 0.6386 0.0
H1772 H 0.74899 0.10269 0.6582 0.0
H1773 H 0.98194 0.2417 0.69842 0.0
H1774 H 0.67249 0.12465 0.65708 0.0
H1775 H 0.8162 0.07902 0.71199 0.0
H1776 H 0.92347 0.22353 0.69865 0.0
H1777 H 0.83076 0.03778 0.71736 0.0
H1778 H 0.72856 0.23612 0.6472 0.0
H1779 H 1.00106 0.20324 0.70066 0.0
H1780 H 0.98759 0.14713 0.70476 0.0
H1781 H 0.78715 0.27619 0.64162 0.0
H1782 H 0.9465 0.09166 0.70992 0.0
N1783 N 0.90926 0.17505 0.70062 0.0
C1784 C 0.93133 0.20642 0.69975 0.0
C1785 C 0.97529 0.19509 0.70082 0.0
C1786 C 0.9526 0.1631 0.70269 0.0
C1787 C 0.96459 0.21686 0.69959 0.0
C1788 C 0.91932 0.15372 0.70268 0.0
H1789 H 0.88802 0.05075 0.71487 0.0
N1790 N 0.86461 0.11467 0.70609 0.0
C1791 C 0.84941 0.0615 0.71395 0.0
C1792 C 0.89627 0.12255 0.70546 0.0
C1793 C 0.84126 0.0849 0.71094 0.0
C1794 C 0.88175 0.0689 0.71249 0.0
C1795 C 0.90573 0.09983 0.70847 0.0
O1796 O 0.82854 0.13997 0.72704 0.0
O1797 O 0.81074 0.15694 0.68673 0.0
O1798 O 0.82706 0.20747 0.67732 0.0
O1799 O 0.8662 0.20681 0.69666 0.0
O1800 O 0.79933 0.11904 0.70391 0.0
O1801 O 0.8721 0.18528 0.7245 0.0
O1802 O 0.84437 0.18463 0.62945 0.0
O1803 O 0.86184 0.16835 0.66991 0.0
O1804 O 0.84597 0.11815 0.67907 0.0
O1805 O 0.80663 0.11868 0.65983 0.0
O1806 O 0.87401 0.20569 0.65221 0.0
O1807 O 0.79955 0.1404 0.63207 0.0
C1808 C 0.7873 0.13267 0.69393 0.0
C1809 C 0.86128 0.15921 0.75376 0.0
C1810 C 0.8592 0.15894 0.78787 0.0
C1811 C 0.85013 0.16556 0.77044 0.0
C1812 C 0.87965 0.14585 0.78829 0.0
C1813 C 0.8818 0.14636 0.75447 0.0
C1814 C 0.8909 0.13971 0.77169 0.0
C1815 C 0.84995 0.22035 0.69015 0.0
C1816 C 0.85009 0.16488 0.73579 0.0
C1817 C 0.93876 0.10883 0.70782 0.0
C1818 C 0.96215 0.14041 0.7049 0.0
C1819 C 0.8856 0.19199 0.6625 0.0
C1820 C 0.81155 0.16647 0.60273 0.0
C1821 C 0.82331 0.16067 0.58609 0.0
C1822 C 0.81508 0.16806 0.56863 0.0
C1823 C 0.79483 0.18137 0.56814 0.0
C1824 C 0.79125 0.17957 0.60193 0.0
C1825 C 0.78296 0.18697 0.58469 0.0
C1826 C 0.82304 0.10525 0.66623 0.0
C1827 C 0.82204 0.16015 0.62074 0.0
H1828 H 0.83397 0.17519 0.76983 0.0
H1829 H 0.88739 0.14083 0.80146 0.0
H1830 H 0.89063 0.14133 0.74178 0.0
H1831 H 0.90676 0.12978 0.77216 0.0
H1832 H 0.83933 0.15089 0.58678 0.0
H1833 H 0.78771 0.18698 0.55494 0.0
H1834 H 0.78199 0.18422 0.61459 0.0
H1835 H 0.76728 0.19709 0.58414 0.0
C1836 C 0.37201 0.93746 0.0443 0.0
C1837 C 0.36832 0.90766 0.04765 0.0
H1838 H 0.4028 0.98415 0.03408 0.0
C1839 C 0.3924 0.90122 0.04129 0.0
H1840 H 0.35364 0.94289 0.04889 0.0
C1841 C 0.42081 0.92502 0.03297 0.0
C1842 C 0.42508 0.9553 0.03048 0.0
H1843 H 0.39011 0.8784 0.04375 0.0
H1844 H 0.43998 0.92016 0.02938 0.0
C1845 C 0.40003 0.96098 0.03576 0.0
C1846 C 0.11129 0.49156 0.03781 0.0
C1847 C 0.10656 0.46268 0.0447 0.0
H1848 H 0.08907 0.51719 0.02693 0.0
C1849 C 0.07502 0.43659 0.04468 0.0
H1850 H 0.13526 0.51215 0.03784 0.0
C1851 C 0.04882 0.4393 0.03802 0.0
C1852 C 0.0534 0.46817 0.03127 0.0
H1853 H 0.07062 0.41403 0.04986 0.0
H1854 H 0.02479 0.4188 0.03831 0.0
C1855 C 0.08488 0.49441 0.03147 0.0
C1856 C 0.51109 0.62592 0.03572 0.0
C1857 C 0.53973 0.64392 0.04592 0.0
H1858 H 0.48142 0.58334 0.02091 0.0
C1859 C 0.56116 0.6323 0.04858 0.0
H1860 H 0.49382 0.63396 0.03368 0.0
C1861 C 0.55394 0.60315 0.04137 0.0
C1862 C 0.52526 0.58515 0.03123 0.0
H1863 H 0.58366 0.64583 0.05614 0.0
H1864 H 0.57093 0.59485 0.04368 0.0
C1865 C 0.50395 0.59685 0.02844 0.0
C1866 C 0.89356 0.35645 0.99464 0.0
C1867 C 0.88779 0.35261 0.97528 0.0
H1868 H 0.92136 0.38733 0.01679 0.0
C1869 C 0.90672 0.37829 0.96339 0.0
H1870 H 0.88018 0.3371 1.00424 0.0
C1871 C 0.93075 0.40689 0.97066 0.0
C1872 C 0.9359 0.41065 0.98998 0.0
H1873 H 0.90272 0.37656 0.94845 0.0
H1874 H 0.94476 0.42633 0.96121 0.0
C1875 C 0.91721 0.38523 1.0019 0.0
C1876 C 0.64034 0.56027 0.98001 0.0
C1877 C 0.64487 0.53406 0.97993 0.0
H1878 H 0.60826 0.57813 0.98571 0.0
C1879 C 0.61962 0.50512 0.98656 0.0
H1880 H 0.65937 0.58291 0.97508 0.0
C1881 C 0.59003 0.50227 0.99242 0.0
C1882 C 0.58552 0.52854 0.99229 0.0
H1883 H 0.6223 0.48445 0.98652 0.0
H1884 H 0.57049 0.47943 0.99664 0.0
C1885 C 0.61111 0.55755 0.98614 0.0
C1886 C 0.44658 0.06878 0.96505 0.0
C1887 C 0.4668 0.10154 0.96564 0.0
H1888 H 0.43824 0.02397 0.97423 0.0
C1889 C 0.49479 0.11415 0.9769 0.0
H1890 H 0.42447 0.05824 0.95691 0.0
C1891 C 0.50243 0.09441 0.98718 0.0
C1892 C 0.48242 0.06165 0.98627 0.0
H1893 H 0.51114 0.13927 0.97752 0.0
H1894 H 0.52437 0.1048 0.99549 0.0
C1895 C 0.45436 0.0491 0.97516 0.0
C1896 C 0.62091 0.09615 0.98122 0.0
C1897 C 0.64496 0.08951 0.97508 0.0
H1898 H 0.57314 0.07749 0.99283 0.0
C1899 C 0.64102 0.05964 0.97857 0.0
H1900 H 0.6234 0.11902 0.97864 0.0
C1901 C 0.61276 0.03624 0.98696 0.0
C1902 C 0.58774 0.04211 0.99199 0.0
H1903 H 0.65935 0.05404 0.97415 0.0
H1904 H 0.60979 0.013 0.98872 0.0
C1905 C 0.59228 0.07248 0.98942 0.0
C1906 C 0.90397 0.5118 0.97911 0.0
C1907 C 0.91041 0.54137 0.97244 0.0
H1908 H 0.92395 0.48448 0.99063 0.0
C1909 C 0.94199 0.56703 0.97419 0.0
H1910 H 0.87993 0.49156 0.97776 0.0
C1911 C 0.96688 0.5631 0.98171 0.0
C1912 C 0.96092 0.53343 0.98773 0.0
H1913 H 0.94766 0.59009 0.96919 0.0
H1914 H 0.99114 0.58323 0.98237 0.0
C1915 C 0.92913 0.50777 0.98649 0.0
C1916 C 0.46828 0.35412 0.99501 0.0
C1917 C 0.46883 0.35098 0.97549 0.0
H1918 H 0.47404 0.38435 0.0179 0.0
C1919 C 0.4758 0.37703 0.96409 0.0
H1920 H 0.46224 0.3344 1.00422 0.0
C1921 C 0.482 0.40542 0.97201 0.0
C1922 C 0.48201 0.40854 0.99146 0.0
H1923 H 0.47705 0.37574 0.94905 0.0
H1924 H 0.48754 0.42519 0.96292 0.0
C1925 C 0.47505 0.38271 1.0029 0.0
C1926 C 0.10535 0.61965 0.05651 0.0
C1927 C 0.12518 0.64561 0.04501 0.0
H1928 H 0.06658 0.57186 0.05794 0.0
C1929 C 0.1203 0.64245 0.02555 0.0
H1930 H 0.10864 0.62077 0.0715 0.0
C1931 C 0.09667 0.61408 0.01782 0.0
C1932 C 0.07704 0.58843 0.02937 0.0
H1933 H 0.13437 0.66202 0.01622 0.0
H1934 H 0.09328 0.61248 1.00286 0.0
C1935 C 0.08131 0.59151 0.04877 0.0
C1936 C 0.38716 0.48398 0.04014 0.0
C1937 C 0.36323 0.4542 0.04658 0.0
H1938 H 0.43523 0.51165 0.02876 0.0
C1939 C 0.36808 0.42847 0.04396 0.0
H1940 H 0.38416 0.50426 0.04209 0.0
C1941 C 0.39685 0.43257 0.0361 0.0
C1942 C 0.42167 0.46252 0.03067 0.0
H1943 H 0.35004 0.40525 0.0487 0.0
H1944 H 0.40032 0.41241 0.03503 0.0
C1945 C 0.41633 0.48818 0.03244 0.0
C1946 C 0.56609 0.92844 0.05685 0.0
C1947 C 0.54615 0.89569 0.05579 0.0
H1948 H 0.5741 0.97344 0.0483 0.0
C1949 C 0.51838 0.88326 0.04438 0.0
H1950 H 0.588 0.93882 0.06517 0.0
C1951 C 0.51062 0.90319 0.03442 0.0
C1952 C 0.53035 0.93594 0.03577 0.0
H1953 H 0.50225 0.85813 0.04342 0.0
H1954 H 0.48883 0.89291 0.02599 0.0
C1955 C 0.55822 0.94832 0.04703 0.0
C1956 C 0.03673 0.27061 0.37859 0.0
C1957 C 0.0329 0.24076 0.38196 0.0
H1958 H 0.06744 0.31711 0.3681 0.0
C1959 C 0.05673 0.23409 0.37543 0.0
H1960 H 0.01854 0.27622 0.38328 0.0
C1961 C 0.08502 0.2577 0.36688 0.0
C1962 C 0.08942 0.28802 0.36437 0.0
H1963 H 0.05431 0.21122 0.37788 0.0
H1964 H 0.104 0.25265 0.36307 0.0
C1965 C 0.06461 0.29392 0.36984 0.0
C1966 C 0.73998 0.7694 0.37885 0.0
C1967 C 0.77151 0.79553 0.37871 0.0
H1968 H 0.68949 0.75167 0.3732 0.0
C1969 C 0.77593 0.8246 0.37243 0.0
H1970 H 0.7358 0.74671 0.38364 0.0
C1971 C 0.74928 0.82752 0.36672 0.0
C1972 C 0.71783 0.80123 0.3666 0.0
H1973 H 0.79987 0.84523 0.3724 0.0
H1974 H 0.75327 0.85041 0.36254 0.0
C1975 C 0.71349 0.77222 0.37286 0.0
C1976 C 0.1995 0.951 0.39237 0.0
C1977 C 0.20465 0.9767 0.38116 0.0
H1978 H 0.18962 0.90341 0.39319 0.0
C1979 C 0.20394 0.97356 0.36161 0.0
H1980 H 0.19931 0.95233 0.40746 0.0
C1981 C 0.19777 0.94529 0.3535 0.0
C1982 C 0.1926 0.91978 0.36473 0.0
H1983 H 0.2086 0.99306 0.35253 0.0
H1984 H 0.1978 0.94371 0.33847 0.0
C1985 C 0.19382 0.92292 0.38422 0.0
C1986 C 0.54301 0.70397 0.32125 0.0
C1987 C 0.5522 0.68576 0.31049 0.0
H1988 H 0.55832 0.74657 0.33632 0.0
C1989 C 0.58539 0.69733 0.30705 0.0
H1990 H 0.51767 0.69607 0.32391 0.0
C1991 C 0.60881 0.72638 0.31419 0.0
C1992 C 0.59958 0.74451 0.325 0.0
H1993 H 0.59335 0.68374 0.29901 0.0
H1994 H 0.63413 0.73448 0.31132 0.0
C1995 C 0.56639 0.733 0.32837 0.0
C1996 C 0.30787 0.89701 0.31271 0.0
C1997 C 0.31282 0.87105 0.31239 0.0
H1998 H 0.27536 0.91424 0.31883 0.0
C1999 C 0.28788 0.84193 0.31902 0.0
H2000 H 0.32664 0.91979 0.3078 0.0
C2001 C 0.2582 0.83864 0.32509 0.0
C2002 C 0.25325 0.86464 0.32526 0.0
H2003 H 0.29084 0.82142 0.31881 0.0
H2004 H 0.23892 0.8156 0.32917 0.0
C2005 C 0.27855 0.89386 0.3191 0.0
C2006 C 0.11308 0.40241 0.29857 0.0
C2007 C 0.13317 0.43515 0.29956 0.0
H2008 H 0.10459 0.3574 0.30738 0.0
C2009 C 0.16077 0.44753 0.31111 0.0
H2010 H 0.09128 0.39208 0.29015 0.0
C2011 C 0.16821 0.42755 0.32129 0.0
C2012 C 0.14831 0.39482 0.32002 0.0
H2013 H 0.17698 0.47265 0.31204 0.0
H2014 H 0.18988 0.43775 0.32983 0.0
C2015 C 0.12061 0.38251 0.30861 0.0
C2016 C 0.30626 0.39166 0.31328 0.0
C2017 C 0.31043 0.42168 0.31003 0.0
H2018 H 0.27477 0.34488 0.32317 0.0
C2019 C 0.28642 0.42834 0.31621 0.0
H2020 H 0.32453 0.38603 0.30878 0.0
C2021 C 0.25765 0.4046 0.32425 0.0
C2022 C 0.25291 0.37413 0.32666 0.0
H2023 H 0.28905 0.4513 0.31378 0.0
H2024 H 0.23858 0.40969 0.32767 0.0
C2025 C 0.27788 0.3682 0.32156 0.0
C2026 C 0.60862 0.90176 0.30873 0.0
C2027 C 0.57685 0.87648 0.3068 0.0
H2028 H 0.65739 0.91717 0.31739 0.0
C2029 C 0.56964 0.84686 0.31383 0.0
H2030 H 0.6149 0.92487 0.30353 0.0
C2031 C 0.59424 0.84233 0.32161 0.0
C2032 C 0.62627 0.86755 0.32293 0.0
H2033 H 0.54543 0.82689 0.3124 0.0
H2034 H 0.58845 0.81892 0.32589 0.0
C2035 C 0.63294 0.89735 0.31669 0.0
C2036 C 0.1156 0.69703 0.30645 0.0
C2037 C 0.13707 0.68549 0.30926 0.0
H2038 H 0.10542 0.73419 0.31142 0.0
C2039 C 0.16534 0.70334 0.31979 0.0
H2040 H 0.09338 0.68361 0.29863 0.0
C2041 C 0.17206 0.73215 0.32728 0.0
C2042 C 0.15072 0.74378 0.32434 0.0
H2043 H 0.18264 0.69537 0.32195 0.0
H2044 H 0.1943 0.74554 0.3351 0.0
C2045 C 0.12242 0.72594 0.31385 0.0
C2046 C 0.78355 0.97573 0.36031 0.0
C2047 C 0.78882 0.97912 0.37973 0.0
H2048 H 0.75615 0.94542 0.33784 0.0
C2049 C 0.76937 0.95326 0.39139 0.0
H2050 H 0.79735 0.99522 0.35089 0.0
C2051 C 0.74531 0.92494 0.38384 0.0
C2052 C 0.74067 0.92162 0.36447 0.0
H2053 H 0.77297 0.95461 0.40636 0.0
H2054 H 0.73089 0.90535 0.39312 0.0
C2055 C 0.75989 0.9472 0.35278 0.0
C2056 C 0.05472 0.81952 0.37313 0.0
C2057 C 0.03078 0.78988 0.37975 0.0
H2058 H 0.10272 0.84689 0.3615 0.0
C2059 C 0.03566 0.76411 0.37745 0.0
H2060 H 0.0517 0.83984 0.37485 0.0
C2061 C 0.06441 0.76803 0.36969 0.0
C2062 C 0.08919 0.79783 0.36402 0.0
H2063 H 0.01762 0.74099 0.38234 0.0
H2064 H 0.06781 0.74781 0.36878 0.0
C2065 C 0.08387 0.82354 0.36548 0.0
C2066 C 0.20276 0.24837 0.39964 0.0
C2067 C 0.21011 0.22763 0.39017 0.0
H2068 H 0.18889 0.28355 0.39744 0.0
C2069 C 0.20806 0.22638 0.37051 0.0
H2070 H 0.20329 0.24953 0.41474 0.0
C2071 C 0.19902 0.24544 0.36063 0.0
C2072 C 0.19241 0.2665 0.37016 0.0
H2073 H 0.21413 0.21118 0.36266 0.0
H2074 H 0.19832 0.24446 0.34555 0.0
C2075 C 0.19429 0.26775 0.38973 0.0
C2076 C 0.70973 0.59903 0.7101 0.0
C2077 C 0.69886 0.56755 0.71494 0.0
H2078 H 0.74881 0.64195 0.69901 0.0
C2079 C 0.71833 0.55431 0.71057 0.0
H2080 H 0.69508 0.60969 0.71325 0.0
C2081 C 0.74905 0.57278 0.70269 0.0
C2082 C 0.76033 0.60447 0.69844 0.0
H2083 H 0.71054 0.53013 0.71423 0.0
H2084 H 0.76456 0.56269 0.70061 0.0
C2085 C 0.74018 0.6173 0.70176 0.0
C2086 C 0.40713 0.10092 0.71042 0.0
C2087 C 0.43862 0.12705 0.71105 0.0
H2088 H 0.35696 0.08351 0.704 0.0
C2089 C 0.44335 0.15642 0.70516 0.0
H2090 H 0.40272 0.078 0.71489 0.0
C2091 C 0.41698 0.15967 0.69923 0.0
C2092 C 0.38554 0.13342 0.69843 0.0
H2093 H 0.46725 0.17706 0.70573 0.0
H2094 H 0.42119 0.1828 0.69554 0.0
C2095 C 0.38096 0.10406 0.70416 0.0
C2096 C 0.84472 0.29318 0.70108 0.0
C2097 C 0.8731 0.31101 0.71154 0.0
H2098 H 0.81502 0.25053 0.68628 0.0
C2099 C 0.89393 0.29881 0.71475 0.0
H2100 H 0.82791 0.30163 0.69857 0.0
C2101 C 0.88642 0.26939 0.70783 0.0
C2102 C 0.85805 0.25159 0.69739 0.0
H2103 H 0.91628 0.31215 0.72246 0.0
H2104 H 0.90301 0.26075 0.71056 0.0
C2105 C 0.8373 0.26382 0.69407 0.0
C2106 C 0.25879 0.03047 0.63871 0.0
C2107 C 0.22538 0.01813 0.64173 0.0
H2108 H 0.30687 0.06869 0.64332 0.0
C2109 C 0.21497 0.03614 0.65169 0.0
H2110 H 0.26761 0.01706 0.63123 0.0
C2111 C 0.23739 0.06558 0.65867 0.0
C2112 C 0.27082 0.07775 0.65591 0.0
H2113 H 0.18939 0.02763 0.65395 0.0
H2114 H 0.22841 0.07886 0.66613 0.0
C2115 C 0.28129 0.06 0.64571 0.0
C2116 C 0.97225 0.22769 0.64528 0.0
C2117 C 0.97753 0.20192 0.64536 0.0
H2118 H 0.93947 0.24474 0.65109 0.0
C2119 C 0.95278 0.17291 0.65226 0.0
H2120 H 0.99085 0.25039 0.64016 0.0
C2121 C 0.92305 0.16955 0.65827 0.0
C2122 C 0.91783 0.19539 0.65811 0.0
H2123 H 0.95597 0.15253 0.65236 0.0
H2124 H 0.90396 0.1466 0.66265 0.0
C2125 C 0.94287 0.22448 0.65161 0.0
C2126 C 0.77761 0.73013 0.63139 0.0
C2127 C 0.77514 0.75405 0.64075 0.0
H2128 H 0.78863 0.69302 0.63314 0.0
C2129 C 0.78248 0.75818 0.66001 0.0
H2130 H 0.77334 0.72654 0.61653 0.0
C2131 C 0.79276 0.73956 0.66939 0.0
C2132 C 0.79468 0.71557 0.65997 0.0
H2133 H 0.7803 0.77571 0.66799 0.0
H2134 H 0.79885 0.74379 0.68401 0.0
C2135 C 0.78673 0.71091 0.64092 0.0
C2136 C 0.96662 0.73066 0.64793 0.0
C2137 C 0.97744 0.76211 0.64305 0.0
H2138 H 0.92725 0.68744 0.65849 0.0
C2139 C 0.95752 0.77506 0.6469 0.0
H2140 H 0.9816 0.72021 0.64514 0.0
C2141 C 0.92641 0.75627 0.65425 0.0
C2142 C 0.9152 0.72458 0.65847 0.0
H2143 H 0.96524 0.7992 0.64316 0.0
H2144 H 0.9106 0.76611 0.65592 0.0
C2145 C 0.93578 0.71207 0.65572 0.0
C2146 C 0.27461 0.23433 0.64297 0.0
C2147 C 0.2431 0.20877 0.6407 0.0
H2148 H 0.32361 0.25006 0.65131 0.0
C2149 C 0.23653 0.17886 0.64678 0.0
H2150 H 0.2804 0.25764 0.63841 0.0
C2151 C 0.26154 0.17443 0.65399 0.0
C2152 C 0.29333 0.19998 0.65565 0.0
H2153 H 0.21256 0.15868 0.645 0.0
H2154 H 0.25628 0.15089 0.65755 0.0
C2155 C 0.29936 0.22999 0.65033 0.0
C2156 C 0.77986 0.0275 0.64085 0.0
C2157 C 0.80086 0.01546 0.64389 0.0
H2158 H 0.77031 0.06516 0.64552 0.0
C2159 C 0.82907 0.03313 0.65453 0.0
H2160 H 0.75764 0.01428 0.63301 0.0
C2161 C 0.83615 0.06218 0.66189 0.0
C2162 C 0.81523 0.07425 0.65874 0.0
H2163 H 0.84601 0.02478 0.65691 0.0
H2164 H 0.8583 0.07535 0.66982 0.0
C2165 C 0.78703 0.05662 0.64813 0.0
C2166 C 0.41778 0.30046 0.71595 0.0
C2167 C 0.45127 0.31262 0.71341 0.0
H2168 H 0.3698 0.26268 0.71057 0.0
C2169 C 0.4619 0.29479 0.70344 0.0
H2170 H 0.4088 0.31376 0.7234 0.0
C2171 C 0.43961 0.26567 0.69601 0.0
C2172 C 0.40613 0.25367 0.69834 0.0
H2173 H 0.48753 0.30317 0.70154 0.0
H2174 H 0.44874 0.25248 0.68857 0.0
C2175 C 0.39543 0.27126 0.70851 0.0
C2176 C 0.70199 0.09431 0.71305 0.0
C2177 C 0.69643 0.11972 0.71507 0.0
H2178 H 0.73461 0.07858 0.70434 0.0
C2179 C 0.71971 0.14926 0.70793 0.0
H2180 H 0.68446 0.07123 0.71826 0.0
C2181 C 0.74886 0.15359 0.70007 0.0
C2182 C 0.75484 0.12827 0.69883 0.0
H2183 H 0.71618 0.16933 0.70937 0.0
H2184 H 0.7672 0.17694 0.69575 0.0
C2185 C 0.7307 0.09851 0.70502 0.0
C2186 C 0.89247 0.56994 0.69511 0.0
C2187 C 0.90074 0.57404 0.71424 0.0
H2188 H 0.87519 0.58453 0.67164 0.0
C2189 C 0.899 0.59812 0.7239 0.0
H2190 H 0.894 0.55223 0.68692 0.0
C2191 C 0.88976 0.61757 0.71477 0.0
C2192 C 0.88092 0.61297 0.69585 0.0
H2193 H 0.90395 0.60167 0.73871 0.0
H2194 H 0.88843 0.63557 0.72278 0.0
C2195 C 0.88207 0.58879 0.68615 0.0
C2196 C 0.50044 0.96141 0.15957 0.0
C2197 C 0.48748 0.97231 0.17345 0.0
H2198 H 0.52116 0.96847 0.13202 0.0
C2199 C 0.48537 -0.00061 0.16963 0.0
H2200 H 0.50222 0.94051 0.16198 0.0
C2201 C 0.49638 0.01544 0.15261 0.0
C2202 C 0.50949 0.00471 0.13876 0.0
H2203 H 0.47578 0.00863 0.18001 0.0
H2204 H 0.49466 0.03639 0.15028 0.0
C2205 C 0.51102 0.97725 0.14234 0.0
C2206 C 0.03564 0.54377 0.15543 0.0
C2207 C 0.02468 0.52247 0.17047 0.0
H2208 H 0.02785 0.55272 0.12715 0.0
C2209 C 0.99696 0.49282 0.16816 0.0
H2210 H 0.05706 0.56671 0.15681 0.0
C2211 C 0.98013 0.48488 0.15122 0.0
C2212 C 0.99098 0.5063 0.13623 0.0
H2213 H 0.9879 0.47607 0.17958 0.0
H2214 H 0.95871 0.46195 0.1498 0.0
C2215 C 0.01906 0.5357 0.13845 0.0
C2216 C 0.49066 0.48855 0.17124 0.0
C2217 C 0.49189 0.5176 0.17337 0.0
H2218 H 0.49903 0.45848 0.15326 0.0
C2219 C 0.50133 0.53826 0.15799 0.0
H2220 H 0.48368 0.4722 0.18283 0.0
C2221 C 0.51022 0.53044 0.14106 0.0
C2222 C 0.51011 0.50188 0.13914 0.0
H2223 H 0.5022 0.56067 0.1591 0.0
H2224 H 0.51819 0.54723 0.12966 0.0
C2225 C 0.49978 0.48084 0.15436 0.0
C2226 C 0.02436 0.50922 0.84956 0.0
C2227 C 0.99528 0.48082 0.84687 0.0
H2228 H 0.06212 0.5384 0.86865 0.0
C2229 C 0.98127 0.46025 0.86211 0.0
H2230 H 0.0358 0.52543 0.83804 0.0
C2231 C 0.9963 0.46763 0.87958 0.0
C2232 C 0.0258 0.49565 0.88217 0.0
H2233 H 0.95869 0.43833 0.8605 0.0
H2234 H 0.98522 0.45101 0.89095 0.0
C2235 C 0.03956 0.51649 0.86701 0.0
C2236 C 0.47419 0.47748 0.85195 0.0
C2237 C 0.50607 0.48431 0.8482 0.0
H2238 H 0.44107 0.4786 0.87167 0.0
C2239 C 0.52977 0.499 0.86212 0.0
H2240 H 0.45542 0.46645 0.84148 0.0
C2241 C 0.5215 0.50606 0.87956 0.0
C2242 C 0.48946 0.49894 0.88331 0.0
H2243 H 0.5545 0.5044 0.85967 0.0
H2244 H 0.54019 0.51729 0.89005 0.0
C2245 C 0.46601 0.48469 0.86924 0.0
C2246 C 0.53082 0.03241 0.86258 0.0
C2247 C 0.50689 0.02387 0.8487 0.0
H2248 H 0.5424 0.02337 0.89016 0.0
C2249 C 0.47554 -0.00119 0.85249 0.0
H2250 H 0.55515 0.05171 0.8602 0.0
C2251 C 0.46827 0.98273 0.86956 0.0
C2252 C 0.49205 0.99115 0.88348 0.0
H2253 H 0.45654 0.99128 0.84212 0.0
H2254 H 0.44378 0.96366 0.87188 0.0
C2255 C 0.52342 0.01638 0.87983 0.0
C2256 C 0.1879 0.32681 0.50475 0.0
C2257 C 0.15513 0.30383 0.50727 0.0
H2258 H 0.22425 0.36062 0.48649 0.0
C2259 C 0.13378 0.2972 0.49211 0.0
H2260 H 0.20509 0.33286 0.51608 0.0
C2261 C 0.1448 0.31343 0.47507 0.0
C2262 C 0.17744 0.33689 0.47274 0.0
H2263 H 0.10846 0.27942 0.49339 0.0
H2264 H 0.12753 0.30812 0.46387 0.0
C2265 C 0.19886 0.34305 0.48778 0.0
C2266 C 0.69519 0.8692 0.49219 0.0
C2267 C 0.68135 0.84806 0.50721 0.0
H2268 H 0.69108 0.87949 0.46358 0.0
C2269 C 0.65245 0.8196 0.50425 0.0
H2270 H 0.71763 0.89118 0.49399 0.0
C2271 C 0.63723 0.81287 0.48679 0.0
C2272 C 0.65076 0.83433 0.47188 0.0
H2273 H 0.64113 0.80293 0.51557 0.0
H2274 H 0.61479 0.7909 0.48497 0.0
C2275 C 0.68013 0.86238 0.47473 0.0
C2276 C 0.16001 0.81479 0.50442 0.0
C2277 C 0.162 0.84408 0.50705 0.0
H2278 H 0.16703 0.78469 0.4857 0.0
C2279 C 0.17118 0.86507 0.49186 0.0
H2280 H 0.15317 0.79817 0.51586 0.0
C2281 C 0.17924 0.85743 0.47463 0.0
C2282 C 0.17847 0.82866 0.47218 0.0
H2283 H 0.17259 0.88768 0.49338 0.0
H2284 H 0.18712 0.87454 0.4634 0.0
C2285 C 0.16829 0.80723 0.4872 0.0
C2286 C 0.64977 0.82409 0.19712 0.0
C2287 C 0.65761 0.80847 0.18343 0.0
H2288 H 0.65941 0.84406 0.22451 0.0
C2289 C 0.68239 0.80149 0.18714 0.0
H2290 H 0.63067 0.82964 0.19475 0.0
C2291 C 0.69847 0.80928 0.20427 0.0
C2292 C 0.69034 0.82445 0.21808 0.0
H2293 H 0.6894 0.78994 0.17679 0.0
H2294 H 0.71687 0.80283 0.20679 0.0
C2295 C 0.66598 0.83201 0.21426 0.0
C2296 C 0.17212 0.79173 0.19762 0.0
C2297 C 0.1824 0.81287 0.18247 0.0
H2298 H 0.15465 0.78227 0.22581 0.0
C2299 C 0.18439 0.84221 0.18484 0.0
H2300 H 0.17065 0.76907 0.1963 0.0
C2301 C 0.17522 0.84977 0.20176 0.0
C2302 C 0.16413 0.82829 0.21676 0.0
H2303 H 0.19204 0.85894 0.17341 0.0
H2304 H 0.17656 0.87238 0.20306 0.0
C2305 C 0.16322 0.7994 0.21458 0.0
C2306 C 0.1872 0.33876 0.18527 0.0
C2307 C 0.18137 0.364 0.1829 0.0
H2308 H 0.18424 0.30254 0.20339 0.0
C2309 C 0.16912 0.37288 0.19821 0.0
H2310 H 0.1964 0.33109 0.17381 0.0
C2311 C 0.16214 0.35646 0.21525 0.0
C2312 C 0.16685 0.33049 0.21737 0.0
H2313 H 0.16468 0.39242 0.19699 0.0
H2314 H 0.15201 0.36345 0.22657 0.0
C2315 C 0.17992 0.32218 0.20222 0.0
C2316 C 0.81247 0.66163 0.83687 0.0
C2317 C 0.81712 0.63608 0.84098 0.0
H2318 H 0.81925 0.69756 0.81735 0.0
C2319 C 0.83245 0.62704 0.8275 0.0
H2320 H 0.80107 0.6695 0.84695 0.0
C2321 C 0.84297 0.64326 0.81043 0.0
C2322 C 0.83878 0.66916 0.80652 0.0
H2323 H 0.83619 0.60732 0.83011 0.0
H2324 H 0.85506 0.63598 0.80047 0.0
C2325 C 0.82319 0.67795 0.81994 0.0
C2326 C 0.32446 0.15483 0.83522 0.0
C2327 C 0.35123 0.18495 0.83801 0.0
H2328 H 0.28746 0.12363 0.81632 0.0
C2329 C 0.36179 0.2068 0.82325 0.0
H2330 H 0.31571 0.13761 0.8464 0.0
C2331 C 0.34576 0.19881 0.80609 0.0
C2332 C 0.31862 0.16891 0.80338 0.0
H2333 H 0.38252 0.23011 0.82498 0.0
H2334 H 0.35426 0.21625 0.79502 0.0
C2335 C 0.30815 0.14695 0.81809 0.0
C2336 C 0.83996 0.20271 0.82474 0.0
C2337 C 0.83019 0.18176 0.83997 0.0
H2338 H 0.85677 0.21198 0.79643 0.0
C2339 C 0.82849 0.15254 0.83765 0.0
H2340 H 0.8412 0.22528 0.82603 0.0
C2341 C 0.83742 0.14491 0.82066 0.0
C2342 C 0.84795 0.16621 0.80558 0.0
H2343 H 0.82123 0.13597 0.84914 0.0
H2344 H 0.83627 0.12239 0.81937 0.0
C2345 C 0.84863 0.19499 0.80773 0.0
C2346 C 0.32534 0.16309 0.52892 0.0
C2347 C 0.33445 0.14852 0.5152 0.0
H2348 H 0.33308 0.18184 0.5566 0.0
C2349 C 0.35966 0.14226 0.51918 0.0
H2350 H 0.30586 0.16803 0.52637 0.0
C2351 C 0.37491 0.14973 0.53657 0.0
C2352 C 0.36545 0.16379 0.55042 0.0
H2353 H 0.36758 0.13145 0.50884 0.0
H2354 H 0.39369 0.14386 0.53928 0.0
C2355 C 0.34067 0.17063 0.54633 0.0
C2356 C 0.84751 0.176 0.51912 0.0
C2357 C 0.84574 0.1468 0.51655 0.0
H2358 H 0.83926 0.20565 0.53757 0.0
C2359 C 0.83546 0.12539 0.53157 0.0
H2360 H 0.85516 0.19292 0.5078 0.0
C2361 C 0.8263 0.13261 0.54857 0.0
C2362 C 0.82698 0.16136 0.55095 0.0
H2363 H 0.83415 0.10281 0.53009 0.0
H2364 H 0.81773 0.11526 0.55967 0.0
C2365 C 0.83808 0.18314 0.5361 0.0
C2366 C 0.85584 0.6733 0.51826 0.0
C2367 C 0.84805 0.69717 0.51546 0.0
H2368 H 0.85461 0.63827 0.53673 0.0
C2369 C 0.83384 0.70475 0.53036 0.0
H2370 H 0.86661 0.66663 0.50712 0.0
C2371 C 0.82668 0.68825 0.54734 0.0
C2372 C 0.83341 0.66362 0.54989 0.0
H2373 H 0.82792 0.72329 0.52885 0.0
H2374 H 0.81488 0.69415 0.55826 0.0
C2375 C 0.8486 0.65675 0.53521 0.0
loop_
_geom_bond_atom_site_label_1
_geom_bond_atom_site_label_2
_geom_bond_distance
_geom_bond_site_symmetry_2
_ccdc_geom_bond_type
C0 C1 1.391 . S
C0 C4 1.391 . S
C0 H42 0.948 . S
C1 C0 1.391 . S
C1 C2 1.391 . S
C2 C1 1.391 . S
C2 H58 0.947 . S
C2 C59 1.392 . S
C3 C4 1.391 . S
C3 C7 1.397 . S
C3 C59 1.419 . S
C4 C0 1.391 . S
C4 C3 1.391 . S
C4 C5 1.399 . S
C5 C4 1.399 . S
C5 C8 1.396 . S
C5 C17 1.453 . S
C5 C18 1.684 . S
H6 C30 0.948 . S
C7 C3 1.397 . S
C7 C8 1.394 . S
C7 C26 1.723 . S
C8 C5 1.396 . S
C8 C7 1.394 . S
C8 C38 1.723 . S
H9 C32 0.947 . S
H10 C33 0.948 . S
H11 C39 0.982 . S
H12 C40 0.979 . S
H13 C40 0.980 . S
H14 C40 0.983 . S
H15 C39 0.979 . S
H16 C39 0.977 . S
C17 C5 1.453 . S
C17 H46 0.982 . S
C17 H47 0.979 . S
C17 H48 0.977 . S
C18 C5 1.684 . S
C18 H43 0.979 . S
C18 H44 0.980 . S
C18 H45 0.983 . S
C19 C20 1.391 . S
C19 C24 1.391 . S
C19 H49 0.948 . S
C20 C19 1.391 . S
C20 C21 1.391 . S
C21 C20 1.391 . S
C21 C22 1.392 . S
C21 H50 0.947 . S
C22 C21 1.392 . S
C22 C23 1.419 . S
C22 H51 0.948 . S
C23 C22 1.419 . S
C23 C24 1.391 . S
C23 C27 1.397 . S
C24 C19 1.391 . S
C24 C23 1.391 . S
C24 C25 1.399 . S
C25 C24 1.399 . S
C25 C26 1.396 . S
C25 C28 1.453 . S
C25 C29 1.684 . S
C26 C7 1.723 . S
C26 C25 1.396 . S
C26 C27 1.394 . S
C27 C23 1.397 . S
C27 C26 1.394 . S
C27 C37 1.723 . S
C28 C25 1.453 . S
C28 H52 0.982 . S
C28 H53 0.979 . S
C28 H54 0.977 . S
C29 C25 1.684 . S
C29 H55 0.979 . S
C29 H56 0.980 . S
C29 H57 0.983 . S
C30 H6 0.948 . S
C30 C31 1.391 . S
C30 C35 1.391 . S
C31 C30 1.391 . S
C31 C32 1.391 . S
C32 H9 0.947 . S
C32 C31 1.391 . S
C32 C33 1.392 . S
C33 H10 0.948 . S
C33 C32 1.392 . S
C33 C34 1.419 . S
C34 C33 1.419 . S
C34 C35 1.391 . S
C34 C38 1.397 . S
C35 C30 1.391 . S
C35 C34 1.391 . S
C35 C36 1.399 . S
C36 C35 1.399 . S
C36 C37 1.396 . S
C36 C39 1.453 . S
C36 C40 1.684 . S
C37 C27 1.723 . S
C37 C36 1.396 . S
C37 C38 1.394 . S
C38 C8 1.723 . S
C38 C34 1.397 . S
C38 C37 1.394 . S
C39 H11 0.982 . S
C39 H15 0.979 . S
C39 H16 0.977 . S
C39 C36 1.453 . S
C40 H12 0.979 . S
C40 H13 0.980 . S
C40 H14 0.983 . S
C40 C36 1.684 . S
H41 C59 0.948 . S
H42 C0 0.948 . S
H43 C18 0.979 . S
H44 C18 0.980 . S
H45 C18 0.983 . S
H46 C17 0.982 . S
H47 C17 0.979 . S
H48 C17 0.977 . S
H49 C19 0.948 . S
H50 C21 0.947 . S
H51 C22 0.948 . S
H52 C28 0.982 . S
H53 C28 0.979 . S
H54 C28 0.977 . S
H55 C29 0.979 . S
H56 C29 0.980 . S
H57 C29 0.983 . S
H58 C2 0.947 . S
C59 C2 1.392 . S
C59 C3 1.419 . S
C59 H41 0.948 . S
C60 C61 1.391 . S
C60 C64 1.391 . S
C60 H102 0.948 . S
C61 C60 1.391 . S
C61 C62 1.391 . S
C62 C61 1.391 . S
C62 H118 0.947 1_655 S
C62 C119 1.392 . S
C63 C64 1.391 . S
C63 C67 1.397 . S
C63 C119 1.419 . S
C64 C60 1.391 . S
C64 C63 1.391 . S
C64 C65 1.399 . S
C65 C64 1.399 . S
C65 C68 1.396 . S
C65 C77 1.453 . S
C65 C78 1.684 . S
H66 C90 0.948 . S
C67 C63 1.397 . S
C67 C68 1.394 . S
C67 C86 1.723 . S
C68 C65 1.396 . S
C68 C67 1.394 . S
C68 C98 1.723 . S
H69 C92 0.947 . S
H70 C93 0.948 . S
H71 C99 0.982 . S
H72 C100 0.979 . S
H73 C100 0.980 . S
H74 C100 0.983 . S
H75 C99 0.979 . S
H76 C99 0.977 . S
C77 C65 1.453 . S
C77 H106 0.982 . S
C77 H107 0.979 . S
C77 H108 0.977 . S
C78 C65 1.684 . S
C78 H103 0.979 . S
C78 H104 0.980 . S
C78 H105 0.983 . S
C79 C80 1.391 . S
C79 C84 1.391 . S
C79 H109 0.948 . S
C80 C79 1.391 . S
C80 C81 1.391 . S
C81 C80 1.391 . S
C81 C82 1.392 . S
C81 H110 0.947 . S
C82 C81 1.392 . S
C82 C83 1.419 . S
C82 H111 0.948 . S
C83 C82 1.419 . S
C83 C84 1.391 . S
C83 C87 1.397 . S
C84 C79 1.391 . S
C84 C83 1.391 . S
C84 C85 1.399 . S
C85 C84 1.399 . S
C85 C86 1.396 . S
C85 C88 1.453 . S
C85 C89 1.684 . S
C86 C67 1.723 . S
C86 C85 1.396 . S
C86 C87 1.394 . S
C87 C83 1.397 . S
C87 C86 1.394 . S
C87 C97 1.723 . S
C88 C85 1.453 . S
C88 H112 0.982 . S
C88 H113 0.979 . S
C88 H114 0.977 . S
C89 C85 1.684 . S
C89 H115 0.979 . S
C89 H116 0.980 . S
C89 H117 0.983 . S
C90 H66 0.948 . S
C90 C91 1.391 . S
C90 C95 1.391 . S
C91 C90 1.391 . S
C91 C92 1.391 . S
C92 H69 0.947 . S
C92 C91 1.391 . S
C92 C93 1.392 . S
C93 H70 0.948 . S
C93 C92 1.392 . S
C93 C94 1.419 . S
C94 C93 1.419 . S
C94 C95 1.391 . S
C94 C98 1.397 . S
C95 C90 1.391 . S
C95 C94 1.391 . S
C95 C96 1.399 . S
C96 C95 1.399 . S
C96 C97 1.396 . S
C96 C99 1.453 . S
C96 C100 1.684 . S
C97 C87 1.723 . S
C97 C96 1.396 . S
C97 C98 1.394 . S
C98 C68 1.723 . S
C98 C94 1.397 . S
C98 C97 1.394 . S
C99 H71 0.982 . S
C99 H75 0.979 . S
C99 H76 0.977 . S
C99 C96 1.453 . S
C100 H72 0.979 . S
C100 H73 0.980 . S
C100 H74 0.983 . S
C100 C96 1.684 . S
H101 C119 0.948 . S
H102 C60 0.948 . S
H103 C78 0.979 . S
H104 C78 0.980 . S
H105 C78 0.983 . S
H106 C77 0.982 . S
H107 C77 0.979 . S
H108 C77 0.977 . S
H109 C79 0.948 . S
H110 C81 0.947 . S
H111 C82 0.948 . S
H112 C88 0.982 . S
H113 C88 0.979 . S
H114 C88 0.977 . S
H115 C89 0.979 . S
H116 C89 0.980 . S
H117 C89 0.983 . S
H118 C62 0.947 1_455 S
C119 C62 1.392 . S
C119 C63 1.419 . S
C119 H101 0.948 . S
C120 C121 1.415 . S
C120 C124 1.391 . S
C120 H162 0.948 . S
C121 C120 1.415 . S
C121 C122 1.389 . S
C122 C121 1.389 . S
C122 H178 0.947 1_655 S
C122 C179 1.392 . S
C123 C124 1.391 . S
C123 C127 1.397 . S
C123 C179 1.419 . S
C124 C120 1.391 . S
C124 C123 1.391 . S
C124 C125 1.399 . S
C125 C124 1.399 . S
C125 C128 1.396 . S
C125 C137 1.453 . S
C125 C138 1.684 . S
H126 C150 0.948 . S
C127 C123 1.397 . S
C127 C128 1.394 . S
C127 C146 1.723 . S
C128 C125 1.396 . S
C128 C127 1.394 . S
C128 C158 1.723 . S
H129 C152 0.947 . S
H130 C153 0.948 . S
H131 C159 0.982 . S
H132 C160 0.979 . S
H133 C160 0.980 . S
H134 C160 0.983 . S
H135 C159 0.979 . S
H136 C159 0.977 . S
C137 C125 1.453 . S
C137 H166 0.982 . S
C137 H167 0.979 . S
C137 H168 0.977 . S
C138 C125 1.684 . S
C138 H163 0.979 . S
C138 H164 0.980 . S
C138 H165 0.983 . S
C139 C140 1.391 . S
C139 C144 1.391 . S
C139 H169 0.948 . S
C140 C139 1.391 . S
C140 C141 1.391 . S
C141 C140 1.391 . S
C141 C142 1.392 . S
C141 H170 0.947 . S
C142 C141 1.392 . S
C142 C143 1.419 . S
C142 H171 0.948 . S
C143 C142 1.419 . S
C143 C144 1.391 . S
C143 C147 1.397 . S
C144 C139 1.391 . S
C144 C143 1.391 . S
C144 C145 1.399 . S
C145 C144 1.399 . S
C145 C146 1.396 . S
C145 C148 1.453 . S
C145 C149 1.684 . S
C146 C127 1.723 . S
C146 C145 1.396 . S
C146 C147 1.394 . S
C147 C143 1.397 . S
C147 C146 1.394 . S
C147 C157 1.723 . S
C148 C145 1.453 . S
C148 H172 0.982 . S
C148 H173 0.979 . S
C148 H174 0.977 . S
C149 C145 1.684 . S
C149 H175 0.979 . S
C149 H176 0.980 . S
C149 H177 0.983 . S
C150 H126 0.948 . S
C150 C151 1.391 . S
C150 C155 1.391 . S
C151 C150 1.391 . S
C151 C152 1.391 . S
C152 H129 0.947 . S
C152 C151 1.391 . S
C152 C153 1.392 . S
C153 H130 0.948 . S
C153 C152 1.392 . S
C153 C154 1.419 . S
C154 C153 1.419 . S
C154 C155 1.391 . S
C154 C158 1.397 . S
C155 C150 1.391 . S
C155 C154 1.391 . S
C155 C156 1.399 . S
C156 C155 1.399 . S
C156 C157 1.396 . S
C156 C159 1.453 . S
C156 C160 1.684 . S
C157 C147 1.723 . S
C157 C156 1.396 . S
C157 C158 1.394 . S
C158 C128 1.723 . S
C158 C154 1.397 . S
C158 C157 1.394 . S
C159 H131 0.982 . S
C159 H135 0.979 . S
C159 H136 0.977 . S
C159 C156 1.453 . S
C160 H132 0.979 . S
C160 H133 0.980 . S
C160 H134 0.983 . S
C160 C156 1.684 . S
H161 C179 0.948 . S
H162 C120 0.948 . S
H163 C138 0.979 . S
H164 C138 0.980 . S
H165 C138 0.983 . S
H166 C137 0.982 . S
H167 C137 0.979 . S
H168 C137 0.977 . S
H169 C139 0.948 . S
H170 C141 0.947 . S
H171 C142 0.948 . S
H172 C148 0.982 . S
H173 C148 0.979 . S
H174 C148 0.977 . S
H175 C149 0.979 . S
H176 C149 0.980 . S
H177 C149 0.983 . S
H178 C122 0.947 1_455 S
C179 C122 1.392 . S
C179 C123 1.419 . S
C179 H161 0.948 . S
C180 C181 1.391 . S
C180 C184 1.391 . S
C180 H222 0.948 . S
C181 C180 1.391 . S
C181 C182 1.391 . S
C182 C181 1.391 . S
C182 H238 0.947 . S
C182 C239 1.392 . S
C183 C184 1.391 . S
C183 C187 1.397 . S
C183 C239 1.419 . S
C184 C180 1.391 . S
C184 C183 1.391 . S
C184 C185 1.399 . S
C185 C184 1.399 . S
C185 C188 1.396 . S
C185 C197 1.453 . S
C185 C198 1.684 . S
H186 C210 0.948 1_655 S
C187 C183 1.397 . S
C187 C188 1.394 . S
C187 C206 1.723 . S
C188 C185 1.396 . S
C188 C187 1.394 . S
C188 C218 1.723 . S
H189 C212 0.947 . S
H190 C213 0.948 . S
H191 C219 0.982 . S
H192 C220 0.979 . S
H193 C220 0.980 . S
H194 C220 0.983 . S
H195 C219 0.979 . S
H196 C219 0.977 . S
C197 C185 1.453 . S
C197 H226 0.982 . S
C197 H227 0.979 . S
C197 H228 0.977 . S
C198 C185 1.684 . S
C198 H223 0.979 . S
C198 H224 0.980 . S
C198 H225 0.983 . S
C199 C200 1.391 . S
C199 C204 1.391 . S
C199 H229 0.948 . S
C200 C199 1.391 . S
C200 C201 1.391 . S
C201 C200 1.391 . S
C201 C202 1.392 . S
C201 H230 0.947 . S
C202 C201 1.392 . S
C202 C203 1.419 . S
C202 H231 0.948 . S
C203 C202 1.419 . S
C203 C204 1.391 . S
C203 C207 1.397 . S
C204 C199 1.391 . S
C204 C203 1.391 . S
C204 C205 1.399 . S
C205 C204 1.399 . S
C205 C206 1.396 . S
C205 C208 1.453 . S
C205 C209 1.684 . S
C206 C187 1.723 . S
C206 C205 1.396 . S
C206 C207 1.394 . S
C207 C203 1.397 . S
C207 C206 1.394 . S
C207 C217 1.723 . S
C208 C205 1.453 . S
C208 H232 0.982 . S
C208 H233 0.979 . S
C208 H234 0.977 . S
C209 C205 1.684 . S
C209 H235 0.979 . S
C209 H236 0.980 . S
C209 H237 0.983 . S
C210 H186 0.948 1_455 S
C210 C211 1.391 . S
C210 C215 1.391 . S
C211 C210 1.391 . S
C211 C212 1.391 . S
C212 H189 0.947 . S
C212 C211 1.391 . S
C212 C213 1.392 . S
C213 H190 0.948 . S
C213 C212 1.392 . S
C213 C214 1.419 . S
C214 C213 1.419 . S
C214 C215 1.391 . S
C214 C218 1.397 . S
C215 C210 1.391 . S
C215 C214 1.391 . S
C215 C216 1.399 . S
C216 C215 1.399 . S
C216 C217 1.396 . S
C216 C219 1.453 . S
C216 C220 1.684 . S
C217 C207 1.723 . S
C217 C216 1.396 . S
C217 C218 1.394 . S
C218 C188 1.723 . S
C218 C214 1.397 . S
C218 C217 1.394 . S
C219 H191 0.982 . S
C219 H195 0.979 . S
C219 H196 0.977 . S
C219 C216 1.453 . S
C220 H192 0.979 . S
C220 H193 0.980 . S
C220 H194 0.983 . S
C220 C216 1.684 . S
H221 C239 0.948 . S
H222 C180 0.948 . S
H223 C198 0.979 . S
H224 C198 0.980 . S
H225 C198 0.983 . S
H226 C197 0.982 . S
H227 C197 0.979 . S
H228 C197 0.977 . S
H229 C199 0.948 . S
H230 C201 0.947 . S
H231 C202 0.948 . S
H232 C208 0.982 . S
H233 C208 0.979 . S
H234 C208 0.977 . S
H235 C209 0.979 . S
H236 C209 0.980 . S
H237 C209 0.983 . S
H238 C182 0.947 . S
C239 C182 1.392 . S
C239 C183 1.419 . S
C239 H221 0.948 . S
C240 C241 1.391 . S
C240 C244 1.391 . S
C240 H282 0.948 . S
C241 C240 1.391 . S
C241 C242 1.391 . S
C242 C241 1.391 . S
C242 H298 0.947 . S
C242 C299 1.392 . S
C243 C244 1.391 . S
C243 C247 1.397 . S
C243 C299 1.419 . S
C244 C240 1.391 . S
C244 C243 1.391 . S
C244 C245 1.399 . S
C245 C244 1.399 . S
C245 C248 1.396 . S
C245 C257 1.453 . S
C245 C258 1.684 . S
H246 C270 0.948 . S
C247 C243 1.397 . S
C247 C248 1.394 . S
C247 C266 1.723 . S
C248 C245 1.396 . S
C248 C247 1.394 . S
C248 C278 1.723 . S
H249 C272 0.947 . S
H250 C273 0.948 . S
H251 C279 0.982 . S
H252 C280 0.979 . S
H253 C280 0.980 . S
H254 C280 0.983 . S
H255 C279 0.979 . S
H256 C279 0.977 . S
C257 C245 1.453 . S
C257 H286 0.982 . S
C257 H287 0.979 . S
C257 H288 0.977 . S
C258 C245 1.684 . S
C258 H283 0.979 . S
C258 H284 0.980 . S
C258 H285 0.983 . S
C259 C260 1.391 . S
C259 C264 1.391 . S
C259 H289 0.948 . S
C260 C259 1.391 . S
C260 C261 1.391 . S
C261 C260 1.391 . S
C261 C262 1.392 . S
C261 H290 0.947 . S
C262 C261 1.392 . S
C262 C263 1.419 . S
C262 H291 0.948 . S
C263 C262 1.419 . S
C263 C264 1.391 . S
C263 C267 1.397 . S
C264 C259 1.391 . S
C264 C263 1.391 . S
C264 C265 1.399 . S
C265 C264 1.399 . S
C265 C266 1.396 . S
C265 C268 1.453 . S
C265 C269 1.684 . S
C266 C247 1.723 . S
C266 C265 1.396 . S
C266 C267 1.394 . S
C267 C263 1.397 . S
C267 C266 1.394 . S
C267 C277 1.723 . S
C268 C265 1.453 . S
C268 H292 0.982 . S
C268 H293 0.979 . S
C268 H294 0.977 . S
C269 C265 1.684 . S
C269 H295 0.979 . S
C269 H296 0.980 . S
C269 H297 0.983 . S
C270 H246 0.948 . S
C270 C271 1.391 . S
C270 C275 1.391 . S
C271 C270 1.391 . S
C271 C272 1.391 . S
C272 H249 0.947 . S
C272 C271 1.391 . S
C272 C273 1.392 . S
C273 H250 0.948 . S
C273 C272 1.392 . S
C273 C274 1.419 . S
C274 C273 1.419 . S
C274 C275 1.391 . S
C274 C278 1.397 . S
C275 C270 1.391 . S
C275 C274 1.391 . S
C275 C276 1.399 . S
C276 C275 1.399 . S
C276 C277 1.396 . S
C276 C279 1.453 . S
C276 C280 1.684 . S
C277 C267 1.723 . S
C277 C276 1.396 . S
C277 C278 1.394 . S
C278 C248 1.723 . S
C278 C274 1.397 . S
C278 C277 1.394 . S
C279 H251 0.982 . S
C279 H255 0.979 . S
C279 H256 0.977 . S
C279 C276 1.453 . S
C280 H252 0.979 . S
C280 H253 0.980 . S
C280 H254 0.983 . S
C280 C276 1.684 . S
H281 C299 0.948 . S
H282 C240 0.948 . S
H283 C258 0.979 . S
H284 C258 0.980 . S
H285 C258 0.983 . S
H286 C257 0.982 . S
H287 C257 0.979 . S
H288 C257 0.977 . S
H289 C259 0.948 . S
H290 C261 0.947 . S
H291 C262 0.948 . S
H292 C268 0.982 . S
H293 C268 0.979 . S
H294 C268 0.977 . S
H295 C269 0.979 . S
H296 C269 0.980 . S
H297 C269 0.983 . S
H298 C242 0.947 . S
C299 C242 1.392 . S
C299 C243 1.419 . S
C299 H281 0.948 . S
C300 C301 1.391 . S
C300 C304 1.391 . S
C300 H342 0.948 . S
C301 C300 1.391 . S
C301 C302 1.391 . S
C302 C301 1.391 . S
C302 H358 0.947 1_455 S
C302 C359 1.392 . S
C303 C304 1.391 . S
C303 C307 1.397 . S
C303 C359 1.419 . S
C304 C300 1.391 . S
C304 C303 1.391 . S
C304 C305 1.399 . S
C305 C304 1.399 . S
C305 C308 1.396 . S
C305 C317 1.453 . S
C305 C318 1.684 . S
H306 C330 0.948 . S
C307 C303 1.397 . S
C307 C308 1.394 . S
C307 C326 1.723 . S
C308 C305 1.396 . S
C308 C307 1.394 . S
C308 C338 1.723 . S
H309 C332 0.947 . S
H310 C333 0.948 . S
H311 C339 0.982 . S
H312 C340 0.979 . S
H313 C340 0.980 . S
H314 C340 0.983 . S
H315 C339 0.979 . S
H316 C339 0.977 . S
C317 C305 1.453 . S
C317 H346 0.982 . S
C317 H347 0.979 . S
C317 H348 0.977 . S
C318 C305 1.684 . S
C318 H343 0.979 . S
C318 H344 0.980 . S
C318 H345 0.983 . S
C319 C320 1.391 . S
C319 C324 1.391 . S
C319 H349 0.948 . S
C320 C319 1.391 . S
C320 C321 1.391 . S
C321 C320 1.391 . S
C321 C322 1.392 . S
C321 H350 0.947 . S
C322 C321 1.392 . S
C322 C323 1.419 . S
C322 H351 0.948 . S
C323 C322 1.419 . S
C323 C324 1.391 . S
C323 C327 1.397 . S
C324 C319 1.391 . S
C324 C323 1.391 . S
C324 C325 1.399 . S
C325 C324 1.399 . S
C325 C326 1.396 . S
C325 C328 1.453 . S
C325 C329 1.684 . S
C326 C307 1.723 . S
C326 C325 1.396 . S
C326 C327 1.394 . S
C327 C323 1.397 . S
C327 C326 1.394 . S
C327 C337 1.723 . S
C328 C325 1.453 . S
C328 H352 0.982 . S
C328 H353 0.979 . S
C328 H354 0.977 . S
C329 C325 1.684 . S
C329 H355 0.979 . S
C329 H356 0.980 . S
C329 H357 0.983 . S
C330 H306 0.948 . S
C330 C331 1.391 . S
C330 C335 1.391 . S
C331 C330 1.391 . S
C331 C332 1.391 . S
C332 H309 0.947 . S
C332 C331 1.391 . S
C332 C333 1.392 . S
C333 H310 0.948 . S
C333 C332 1.392 . S
C333 C334 1.419 . S
C334 C333 1.419 . S
C334 C335 1.391 . S
C334 C338 1.397 . S
C335 C330 1.391 . S
C335 C334 1.391 . S
C335 C336 1.399 . S
C336 C335 1.399 . S
C336 C337 1.396 . S
C336 C339 1.453 . S
C336 C340 1.684 . S
C337 C327 1.723 . S
C337 C336 1.396 . S
C337 C338 1.394 . S
C338 C308 1.723 . S
C338 C334 1.397 . S
C338 C337 1.394 . S
C339 H311 0.982 . S
C339 H315 0.979 . S
C339 H316 0.977 . S
C339 C336 1.453 . S
C340 H312 0.979 . S
C340 H313 0.980 . S
C340 H314 0.983 . S
C340 C336 1.684 . S
H341 C359 0.948 . S
H342 C300 0.948 . S
H343 C318 0.979 . S
H344 C318 0.980 . S
H345 C318 0.983 . S
H346 C317 0.982 . S
H347 C317 0.979 . S
H348 C317 0.977 . S
H349 C319 0.948 . S
H350 C321 0.947 . S
H351 C322 0.948 . S
H352 C328 0.982 . S
H353 C328 0.979 . S
H354 C328 0.977 . S
H355 C329 0.979 . S
H356 C329 0.980 . S
H357 C329 0.983 . S
H358 C302 0.947 1_655 S
C359 C302 1.392 . S
C359 C303 1.419 . S
C359 H341 0.948 . S
C360 C361 1.391 . S
C360 C364 1.391 . S
C360 H402 0.948 . S
C361 C360 1.391 . S
C361 C362 1.391 . S
C362 C361 1.391 . S
C362 H418 0.947 . S
C362 C419 1.392 . S
C363 C364 1.391 . S
C363 C367 1.397 . S
C363 C419 1.419 . S
C364 C360 1.391 . S
C364 C363 1.391 . S
C364 C365 1.399 . S
C365 C364 1.399 . S
C365 C368 1.396 . S
C365 C377 1.453 . S
C365 C378 1.684 . S
H366 C390 0.948 . S
C367 C363 1.397 . S
C367 C368 1.394 . S
C367 C386 1.723 . S
C368 C365 1.396 . S
C368 C367 1.394 . S
C368 C398 1.723 . S
H369 C392 0.947 . S
H370 C393 0.948 . S
H371 C399 0.982 . S
H372 C400 0.979 . S
H373 C400 0.980 . S
H374 C400 0.983 . S
H375 C399 0.979 . S
H376 C399 0.977 . S
C377 C365 1.453 . S
C377 H406 0.982 . S
C377 H407 0.979 . S
C377 H408 0.977 . S
C378 C365 1.684 . S
C378 H403 0.979 . S
C378 H404 0.980 . S
C378 H405 0.983 . S
C379 C380 1.391 . S
C379 C384 1.391 . S
C379 H409 0.948 . S
C380 C379 1.391 . S
C380 C381 1.391 . S
C381 C380 1.391 . S
C381 C382 1.392 . S
C381 H410 0.947 . S
C382 C381 1.392 . S
C382 C383 1.419 . S
C382 H411 0.948 . S
C383 C382 1.419 . S
C383 C384 1.391 . S
C383 C387 1.397 . S
C384 C379 1.391 . S
C384 C383 1.391 . S
C384 C385 1.399 . S
C385 C384 1.399 . S
C385 C386 1.396 . S
C385 C388 1.453 . S
C385 C389 1.684 . S
C386 C367 1.723 . S
C386 C385 1.396 . S
C386 C387 1.394 . S
C387 C383 1.397 . S
C387 C386 1.394 . S
C387 C397 1.723 . S
C388 C385 1.453 . S
C388 H412 0.982 . S
C388 H413 0.979 . S
C388 H414 0.977 . S
C389 C385 1.684 . S
C389 H415 0.979 . S
C389 H416 0.980 . S
C389 H417 0.983 . S
C390 H366 0.948 . S
C390 C391 1.391 . S
C390 C395 1.391 . S
C391 C390 1.391 . S
C391 C392 1.391 . S
C392 H369 0.947 . S
C392 C391 1.391 . S
C392 C393 1.392 . S
C393 H370 0.948 . S
C393 C392 1.392 . S
C393 C394 1.419 . S
C394 C393 1.419 . S
C394 C395 1.391 . S
C394 C398 1.397 . S
C395 C390 1.391 . S
C395 C394 1.391 . S
C395 C396 1.399 . S
C396 C395 1.399 . S
C396 C397 1.396 . S
C396 C399 1.453 . S
C396 C400 1.684 . S
C397 C387 1.723 . S
C397 C396 1.396 . S
C397 C398 1.394 . S
C398 C368 1.723 . S
C398 C394 1.397 . S
C398 C397 1.394 . S
C399 H371 0.982 . S
C399 H375 0.979 . S
C399 H376 0.977 . S
C399 C396 1.453 . S
C400 H372 0.979 . S
C400 H373 0.980 . S
C400 H374 0.983 . S
C400 C396 1.684 . S
H401 C419 0.948 . S
H402 C360 0.948 . S
H403 C378 0.979 . S
H404 C378 0.980 . S
H405 C378 0.983 . S
H406 C377 0.982 . S
H407 C377 0.979 . S
H408 C377 0.977 . S
H409 C379 0.948 . S
H410 C381 0.947 . S
H411 C382 0.948 . S
H412 C388 0.982 . S
H413 C388 0.979 . S
H414 C388 0.977 . S
H415 C389 0.979 . S
H416 C389 0.980 . S
H417 C389 0.983 . S
H418 C362 0.947 . S
C419 C362 1.392 . S
C419 C363 1.419 . S
C419 H401 0.948 . S
C420 C421 1.391 . S
C420 C424 1.391 . S
C420 H462 0.948 . S
C421 C420 1.391 . S
C421 C422 1.391 . S
C422 C421 1.391 . S
C422 H478 0.947 . S
C422 C479 1.392 . S
C423 C424 1.391 . S
C423 C427 1.397 . S
C423 C479 1.419 . S
C424 C420 1.391 . S
C424 C423 1.391 . S
C424 C425 1.399 . S
C425 C424 1.399 . S
C425 C428 1.396 . S
C425 C437 1.453 . S
C425 C438 1.684 . S
H426 C450 0.948 . S
C427 C423 1.397 . S
C427 C428 1.394 . S
C427 C446 1.723 . S
C428 C425 1.396 . S
C428 C427 1.394 . S
C428 C458 1.723 . S
H429 C452 0.947 . S
H430 C453 0.948 . S
H431 C459 0.982 . S
H432 C460 0.979 . S
H433 C460 0.980 . S
H434 C460 0.983 . S
H435 C459 0.979 . S
H436 C459 0.977 . S
C437 C425 1.453 . S
C437 H466 0.982 . S
C437 H467 0.979 . S
C437 H468 0.977 . S
C438 C425 1.684 . S
C438 H463 0.979 . S
C438 H464 0.980 . S
C438 H465 0.983 . S
C439 C440 1.391 . S
C439 C444 1.391 . S
C439 H469 0.948 . S
C440 C439 1.391 . S
C440 C441 1.391 . S
C441 C440 1.391 . S
C441 C442 1.392 . S
C441 H470 0.947 . S
C442 C441 1.392 . S
C442 C443 1.419 . S
C442 H471 0.948 . S
C443 C442 1.419 . S
C443 C444 1.391 . S
C443 C447 1.397 . S
C444 C439 1.391 . S
C444 C443 1.391 . S
C444 C445 1.399 . S
C445 C444 1.399 . S
C445 C446 1.396 . S
C445 C448 1.453 . S
C445 C449 1.684 . S
C446 C427 1.723 . S
C446 C445 1.396 . S
C446 C447 1.394 . S
C447 C443 1.397 . S
C447 C446 1.394 . S
C447 C457 1.723 . S
C448 C445 1.453 . S
C448 H472 0.982 . S
C448 H473 0.979 . S
C448 H474 0.977 . S
C449 C445 1.684 . S
C449 H475 0.979 . S
C449 H476 0.980 . S
C449 H477 0.983 . S
C450 H426 0.948 . S
C450 C451 1.391 . S
C450 C455 1.391 . S
C451 C450 1.391 . S
C451 C452 1.391 . S
C452 H429 0.947 . S
C452 C451 1.391 . S
C452 C453 1.392 . S
C453 H430 0.948 . S
C453 C452 1.392 . S
C453 C454 1.419 . S
C454 C453 1.419 . S
C454 C455 1.391 . S
C454 C458 1.397 . S
C455 C450 1.391 . S
C455 C454 1.391 . S
C455 C456 1.399 . S
C456 C455 1.399 . S
C456 C457 1.396 . S
C456 C459 1.453 . S
C456 C460 1.684 . S
C457 C447 1.723 . S
C457 C456 1.396 . S
C457 C458 1.394 . S
C458 C428 1.723 . S
C458 C454 1.397 . S
C458 C457 1.394 . S
C459 H431 0.982 . S
C459 H435 0.979 . S
C459 H436 0.977 . S
C459 C456 1.453 . S
C460 H432 0.979 . S
C460 H433 0.980 . S
C460 H434 0.983 . S
C460 C456 1.684 . S
H461 C479 0.948 . S
H462 C420 0.948 . S
H463 C438 0.979 . S
H464 C438 0.980 . S
H465 C438 0.983 . S
H466 C437 0.982 . S
H467 C437 0.979 . S
H468 C437 0.977 . S
H469 C439 0.948 . S
H470 C441 0.947 . S
H471 C442 0.948 . S
H472 C448 0.982 . S
H473 C448 0.979 . S
H474 C448 0.977 . S
H475 C449 0.979 . S
H476 C449 0.980 . S
H477 C449 0.983 . S
H478 C422 0.947 . S
C479 C422 1.392 . S
C479 C423 1.419 . S
C479 H461 0.948 . S
C480 C481 1.391 . S
C480 C484 1.391 . S
C480 H522 0.948 . S
C481 C480 1.391 . S
C481 C482 1.391 . S
C482 C481 1.391 . S
C482 H538 0.947 . S
C482 C539 1.392 . S
C483 C484 1.391 . S
C483 C487 1.397 . S
C483 C539 1.419 . S
C484 C480 1.391 . S
C484 C483 1.391 . S
C484 C485 1.399 . S
C485 C484 1.399 . S
C485 C488 1.396 . S
C485 C497 1.453 . S
C485 C498 1.684 . S
H486 C510 0.948 . S
C487 C483 1.397 . S
C487 C488 1.394 . S
C487 C506 1.723 . S
C488 C485 1.396 . S
C488 C487 1.394 . S
C488 C518 1.723 . S
H489 C512 0.947 . S
H490 C513 0.948 . S
H491 C519 0.982 . S
H492 C520 0.979 . S
H493 C520 0.980 . S
H494 C520 0.983 . S
H495 C519 0.979 . S
H496 C519 0.977 . S
C497 C485 1.453 . S
C497 H526 0.982 . S
C497 H527 0.979 . S
C497 H528 0.977 . S
C498 C485 1.684 . S
C498 H523 0.979 . S
C498 H524 0.980 . S
C498 H525 0.983 . S
C499 C500 1.391 . S
C499 C504 1.391 . S
C499 H529 0.948 . S
C500 C499 1.391 . S
C500 C501 1.391 . S
C501 C500 1.391 . S
C501 C502 1.392 . S
C501 H530 0.947 . S
C502 C501 1.392 . S
C502 C503 1.419 . S
C502 H531 0.948 . S
C503 C502 1.419 . S
C503 C504 1.391 . S
C503 C507 1.397 . S
C504 C499 1.391 . S
C504 C503 1.391 . S
C504 C505 1.399 . S
C505 C504 1.399 . S
C505 C506 1.396 . S
C505 C508 1.453 . S
C505 C509 1.684 . S
C506 C487 1.723 . S
C506 C505 1.396 . S
C506 C507 1.394 . S
C507 C503 1.397 . S
C507 C506 1.394 . S
C507 C517 1.723 . S
C508 C505 1.453 . S
C508 H532 0.982 . S
C508 H533 0.979 . S
C508 H534 0.977 . S
C509 C505 1.684 . S
C509 H535 0.979 . S
C509 H536 0.980 . S
C509 H537 0.983 . S
C510 H486 0.948 . S
C510 C511 1.391 . S
C510 C515 1.391 . S
C511 C510 1.391 . S
C511 C512 1.391 . S
C512 H489 0.947 . S
C512 C511 1.391 . S
C512 C513 1.392 . S
C513 H490 0.948 . S
C513 C512 1.392 . S
C513 C514 1.419 . S
C514 C513 1.419 . S
C514 C515 1.391 . S
C514 C518 1.397 . S
C515 C510 1.391 . S
C515 C514 1.391 . S
C515 C516 1.399 . S
C516 C515 1.399 . S
C516 C517 1.396 . S
C516 C519 1.453 . S
C516 C520 1.684 . S
C517 C507 1.723 . S
C517 C516 1.396 . S
C517 C518 1.394 . S
C518 C488 1.723 . S
C518 C514 1.397 . S
C518 C517 1.394 . S
C519 H491 0.982 . S
C519 H495 0.979 . S
C519 H496 0.977 . S
C519 C516 1.453 . S
C520 H492 0.979 . S
C520 H493 0.980 . S
C520 H494 0.983 . S
C520 C516 1.684 . S
H521 C539 0.948 . S
H522 C480 0.948 . S
H523 C498 0.979 . S
H524 C498 0.980 . S
H525 C498 0.983 . S
H526 C497 0.982 . S
H527 C497 0.979 . S
H528 C497 0.977 . S
H529 C499 0.948 . S
H530 C501 0.947 . S
H531 C502 0.948 . S
H532 C508 0.982 . S
H533 C508 0.979 . S
H534 C508 0.977 . S
H535 C509 0.979 . S
H536 C509 0.980 . S
H537 C509 0.983 . S
H538 C482 0.947 . S
C539 C482 1.392 . S
C539 C483 1.419 . S
C539 H521 0.948 . S
C540 C541 1.391 . S
C540 C544 1.391 . S
C540 H582 0.948 . S
C541 C540 1.391 . S
C541 C542 1.391 . S
C542 C541 1.391 . S
C542 H598 0.947 . S
C542 C599 1.392 . S
C543 C544 1.391 . S
C543 C547 1.397 . S
C543 C599 1.419 . S
C544 C540 1.391 . S
C544 C543 1.391 . S
C544 C545 1.399 . S
C545 C544 1.399 . S
C545 C548 1.396 . S
C545 C557 1.453 . S
C545 C558 1.684 . S
H546 C570 0.948 . S
C547 C543 1.397 . S
C547 C548 1.394 . S
C547 C566 1.723 . S
C548 C545 1.396 . S
C548 C547 1.394 . S
C548 C578 1.723 . S
H549 C572 0.947 . S
H550 C573 0.948 . S
H551 C579 0.982 . S
H552 C580 0.979 . S
H553 C580 0.980 . S
H554 C580 0.983 . S
H555 C579 0.979 . S
H556 C579 0.977 . S
C557 C545 1.453 . S
C557 H586 0.982 . S
C557 H587 0.979 . S
C557 H588 0.977 . S
C558 C545 1.684 . S
C558 H583 0.979 . S
C558 H584 0.980 . S
C558 H585 0.983 . S
C559 C560 1.391 . S
C559 C564 1.391 . S
C559 H589 0.948 . S
C560 C559 1.391 . S
C560 C561 1.391 . S
C561 C560 1.391 . S
C561 C562 1.392 . S
C561 H590 0.947 . S
C562 C561 1.392 . S
C562 C563 1.419 . S
C562 H591 0.948 . S
C563 C562 1.419 . S
C563 C564 1.391 . S
C563 C567 1.397 . S
C564 C559 1.391 . S
C564 C563 1.391 . S
C564 C565 1.399 . S
C565 C564 1.399 . S
C565 C566 1.396 . S
C565 C568 1.453 . S
C565 C569 1.684 . S
C566 C547 1.723 . S
C566 C565 1.396 . S
C566 C567 1.394 . S
C567 C563 1.397 . S
C567 C566 1.394 . S
C567 C577 1.723 . S
C568 C565 1.453 . S
C568 H592 0.982 . S
C568 H593 0.979 . S
C568 H594 0.977 . S
C569 C565 1.684 . S
C569 H595 0.979 . S
C569 H596 0.980 . S
C569 H597 0.983 . S
C570 H546 0.948 . S
C570 C571 1.391 . S
C570 C575 1.391 . S
C571 C570 1.391 . S
C571 C572 1.391 . S
C572 H549 0.947 . S
C572 C571 1.391 . S
C572 C573 1.392 . S
C573 H550 0.948 . S
C573 C572 1.392 . S
C573 C574 1.419 . S
C574 C573 1.419 . S
C574 C575 1.391 . S
C574 C578 1.397 . S
C575 C570 1.391 . S
C575 C574 1.391 . S
C575 C576 1.399 . S
C576 C575 1.399 . S
C576 C577 1.396 . S
C576 C579 1.453 . S
C576 C580 1.684 . S
C577 C567 1.723 . S
C577 C576 1.396 . S
C577 C578 1.394 . S
C578 C548 1.723 . S
C578 C574 1.397 . S
C578 C577 1.394 . S
C579 H551 0.982 . S
C579 H555 0.979 . S
C579 H556 0.977 . S
C579 C576 1.453 . S
C580 H552 0.979 . S
C580 H553 0.980 . S
C580 H554 0.983 . S
C580 C576 1.684 . S
H581 C599 0.948 . S
H582 C540 0.948 . S
H583 C558 0.979 . S
H584 C558 0.980 . S
H585 C558 0.983 . S
H586 C557 0.982 . S
H587 C557 0.979 . S
H588 C557 0.977 . S
H589 C559 0.948 . S
H590 C561 0.947 . S
H591 C562 0.948 . S
H592 C568 0.982 . S
H593 C568 0.979 . S
H594 C568 0.977 . S
H595 C569 0.979 . S
H596 C569 0.980 . S
H597 C569 0.983 . S
H598 C542 0.947 . S
C599 C542 1.392 . S
C599 C543 1.419 . S
C599 H581 0.948 . S
C600 C601 1.391 . S
C600 C604 1.391 . S
C600 H642 0.948 . S
C601 C600 1.391 . S
C601 C602 1.391 . S
C602 C601 1.391 . S
C602 H658 0.947 . S
C602 C659 1.392 . S
C603 C604 1.391 . S
C603 C607 1.397 . S
C603 C659 1.419 . S
C604 C600 1.391 . S
C604 C603 1.391 . S
C604 C605 1.399 . S
C605 C604 1.399 . S
C605 C608 1.396 . S
C605 C617 1.453 . S
C605 C618 1.684 . S
H606 C630 0.948 . S
C607 C603 1.397 . S
C607 C608 1.394 . S
C607 C626 1.723 . S
C608 C605 1.396 . S
C608 C607 1.394 . S
C608 C638 1.723 . S
H609 C632 0.947 . S
H610 C633 0.948 . S
H611 C639 0.982 . S
H612 C640 0.979 . S
H613 C640 0.980 . S
H614 C640 0.983 . S
H615 C639 0.979 . S
H616 C639 0.977 . S
C617 C605 1.453 . S
C617 H646 0.982 . S
C617 H647 0.979 . S
C617 H648 0.977 . S
C618 C605 1.684 . S
C618 H643 0.979 . S
C618 H644 0.980 . S
C618 H645 0.983 . S
C619 C620 1.391 . S
C619 C624 1.391 . S
C619 H649 0.948 . S
C620 C619 1.391 . S
C620 C621 1.391 . S
C621 C620 1.391 . S
C621 C622 1.392 . S
C621 H650 0.947 . S
C622 C621 1.392 . S
C622 C623 1.419 . S
C622 H651 0.948 . S
C623 C622 1.419 . S
C623 C624 1.391 . S
C623 C627 1.397 . S
C624 C619 1.391 . S
C624 C623 1.391 . S
C624 C625 1.399 . S
C625 C624 1.399 . S
C625 C626 1.396 . S
C625 C628 1.453 . S
C625 C629 1.684 . S
C626 C607 1.723 . S
C626 C625 1.396 . S
C626 C627 1.394 . S
C627 C623 1.397 . S
C627 C626 1.394 . S
C627 C637 1.723 . S
C628 C625 1.453 . S
C628 H652 0.982 . S
C628 H653 0.979 . S
C628 H654 0.977 . S
C629 C625 1.684 . S
C629 H655 0.979 . S
C629 H656 0.980 . S
C629 H657 0.983 . S
C630 H606 0.948 . S
C630 C631 1.391 . S
C630 C635 1.391 . S
C631 C630 1.391 . S
C631 C632 1.391 . S
C632 H609 0.947 . S
C632 C631 1.391 . S
C632 C633 1.392 . S
C633 H610 0.948 . S
C633 C632 1.392 . S
C633 C634 1.419 . S
C634 C633 1.419 . S
C634 C635 1.391 . S
C634 C638 1.397 . S
C635 C630 1.391 . S
C635 C634 1.391 . S
C635 C636 1.399 . S
C636 C635 1.399 . S
C636 C637 1.396 . S
C636 C639 1.453 . S
C636 C640 1.684 . S
C637 C627 1.723 . S
C637 C636 1.396 . S
C637 C638 1.394 . S
C638 C608 1.723 . S
C638 C634 1.397 . S
C638 C637 1.394 . S
C639 H611 0.982 . S
C639 H615 0.979 . S
C639 H616 0.977 . S
C639 C636 1.453 . S
C640 H612 0.979 . S
C640 H613 0.980 . S
C640 H614 0.983 . S
C640 C636 1.684 . S
H641 C659 0.948 . S
H642 C600 0.948 . S
H643 C618 0.979 . S
H644 C618 0.980 . S
H645 C618 0.983 . S
H646 C617 0.982 . S
H647 C617 0.979 . S
H648 C617 0.977 . S
H649 C619 0.948 . S
H650 C621 0.947 . S
H651 C622 0.948 . S
H652 C628 0.982 . S
H653 C628 0.979 . S
H654 C628 0.977 . S
H655 C629 0.979 . S
H656 C629 0.980 . S
H657 C629 0.983 . S
H658 C602 0.947 . S
C659 C602 1.392 . S
C659 C603 1.419 . S
C659 H641 0.948 . S
C660 C661 1.391 . S
C660 C664 1.391 . S
C660 H702 0.948 . S
C661 C660 1.391 . S
C661 C662 1.391 . S
C662 C661 1.391 . S
C662 H718 0.947 . S
C662 C719 1.392 . S
C663 C664 1.391 . S
C663 C667 1.397 . S
C663 C719 1.419 . S
C664 C660 1.391 . S
C664 C663 1.391 . S
C664 C665 1.399 . S
C665 C664 1.399 . S
C665 C668 1.396 . S
C665 C677 1.453 . S
C665 C678 1.684 . S
H666 C690 0.948 . S
C667 C663 1.397 . S
C667 C668 1.394 . S
C667 C686 1.723 . S
C668 C665 1.396 . S
C668 C667 1.394 . S
C668 C698 1.723 . S
H669 C692 0.947 . S
H670 C693 0.948 . S
H671 C699 0.982 . S
H672 C700 0.979 . S
H673 C700 0.980 . S
H674 C700 0.983 . S
H675 C699 0.979 . S
H676 C699 0.977 . S
C677 C665 1.453 . S
C677 H706 0.982 . S
C677 H707 0.979 . S
C677 H708 0.977 . S
C678 C665 1.684 . S
C678 H703 0.979 . S
C678 H704 0.980 . S
C678 H705 0.983 . S
C679 C680 1.391 . S
C679 C684 1.391 . S
C679 H709 0.948 . S
C680 C679 1.391 . S
C680 C681 1.391 . S
C681 C680 1.391 . S
C681 C682 1.392 . S
C681 H710 0.947 . S
C682 C681 1.392 . S
C682 C683 1.419 . S
C682 H711 0.948 . S
C683 C682 1.419 . S
C683 C684 1.391 . S
C683 C687 1.397 . S
C684 C679 1.391 . S
C684 C683 1.391 . S
C684 C685 1.399 . S
C685 C684 1.399 . S
C685 C686 1.396 . S
C685 C688 1.453 . S
C685 C689 1.684 . S
C686 C667 1.723 . S
C686 C685 1.396 . S
C686 C687 1.394 . S
C687 C683 1.397 . S
C687 C686 1.394 . S
C687 C697 1.723 . S
C688 C685 1.453 . S
C688 H712 0.982 . S
C688 H713 0.979 . S
C688 H714 0.977 . S
C689 C685 1.684 . S
C689 H715 0.979 . S
C689 H716 0.980 . S
C689 H717 0.983 . S
C690 H666 0.948 . S
C690 C691 1.391 . S
C690 C695 1.391 . S
C691 C690 1.391 . S
C691 C692 1.391 . S
C692 H669 0.947 . S
C692 C691 1.391 . S
C692 C693 1.392 . S
C693 H670 0.948 . S
C693 C692 1.392 . S
C693 C694 1.419 . S
C694 C693 1.419 . S
C694 C695 1.391 . S
C694 C698 1.397 . S
C695 C690 1.391 . S
C695 C694 1.391 . S
C695 C696 1.399 . S
C696 C695 1.399 . S
C696 C697 1.396 . S
C696 C699 1.453 . S
C696 C700 1.684 . S
C697 C687 1.723 . S
C697 C696 1.396 . S
C697 C698 1.394 . S
C698 C668 1.723 . S
C698 C694 1.397 . S
C698 C697 1.394 . S
C699 H671 0.982 . S
C699 H675 0.979 . S
C699 H676 0.977 . S
C699 C696 1.453 . S
C700 H672 0.979 . S
C700 H673 0.980 . S
C700 H674 0.983 . S
C700 C696 1.684 . S
H701 C719 0.948 . S
H702 C660 0.948 . S
H703 C678 0.979 . S
H704 C678 0.980 . S
H705 C678 0.983 . S
H706 C677 0.982 . S
H707 C677 0.979 . S
H708 C677 0.977 . S
H709 C679 0.948 . S
H710 C681 0.947 . S
H711 C682 0.948 . S
H712 C688 0.982 . S
H713 C688 0.979 . S
H714 C688 0.977 . S
H715 C689 0.979 . S
H716 C689 0.980 . S
H717 C689 0.983 . S
H718 C662 0.947 . S
C719 C662 1.392 . S
C719 C663 1.419 . S
C719 H701 0.948 . S
C720 C721 1.391 . S
C720 C724 1.391 . S
C720 H762 0.948 . S
C721 C720 1.391 . S
C721 C722 1.391 . S
C722 C721 1.391 . S
C722 H778 0.947 . S
C722 C779 1.392 . S
C723 C724 1.391 . S
C723 C727 1.397 . S
C723 C779 1.419 . S
C724 C720 1.391 . S
C724 C723 1.391 . S
C724 C725 1.399 . S
C725 C724 1.399 . S
C725 C728 1.396 . S
C725 C737 1.453 . S
C725 C738 1.684 . S
H726 C750 0.948 . S
C727 C723 1.397 . S
C727 C728 1.394 . S
C727 C746 1.723 . S
C728 C725 1.396 . S
C728 C727 1.394 . S
C728 C758 1.723 . S
H729 C752 0.947 . S
H730 C753 0.948 . S
H731 C759 0.982 . S
H732 C760 0.979 . S
H733 C760 0.980 . S
H734 C760 0.983 . S
H735 C759 0.979 . S
H736 C759 0.977 . S
C737 C725 1.453 . S
C737 H766 0.982 . S
C737 H767 0.979 . S
C737 H768 0.977 . S
C738 C725 1.684 . S
C738 H763 0.979 . S
C738 H764 0.980 . S
C738 H765 0.983 . S
C739 C740 1.391 . S
C739 C744 1.391 . S
C739 H769 0.948 . S
C740 C739 1.391 . S
C740 C741 1.391 . S
C741 C740 1.391 . S
C741 C742 1.392 . S
C741 H770 0.947 . S
C742 C741 1.392 . S
C742 C743 1.419 . S
C742 H771 0.948 . S
C743 C742 1.419 . S
C743 C744 1.391 . S
C743 C747 1.397 . S
C744 C739 1.391 . S
C744 C743 1.391 . S
C744 C745 1.399 . S
C745 C744 1.399 . S
C745 C746 1.396 . S
C745 C748 1.453 . S
C745 C749 1.684 . S
C746 C727 1.723 . S
C746 C745 1.396 . S
C746 C747 1.394 . S
C747 C743 1.397 . S
C747 C746 1.394 . S
C747 C757 1.723 . S
C748 C745 1.453 . S
C748 H772 0.982 . S
C748 H773 0.979 . S
C748 H774 0.977 . S
C749 C745 1.684 . S
C749 H775 0.979 . S
C749 H776 0.980 . S
C749 H777 0.983 . S
C750 H726 0.948 . S
C750 C751 1.391 . S
C750 C755 1.391 . S
C751 C750 1.391 . S
C751 C752 1.391 . S
C752 H729 0.947 . S
C752 C751 1.391 . S
C752 C753 1.392 . S
C753 H730 0.948 . S
C753 C752 1.392 . S
C753 C754 1.419 . S
C754 C753 1.419 . S
C754 C755 1.391 . S
C754 C758 1.397 . S
C755 C750 1.391 . S
C755 C754 1.391 . S
C755 C756 1.399 . S
C756 C755 1.399 . S
C756 C757 1.396 . S
C756 C759 1.453 . S
C756 C760 1.684 . S
C757 C747 1.723 . S
C757 C756 1.396 . S
C757 C758 1.394 . S
C758 C728 1.723 . S
C758 C754 1.397 . S
C758 C757 1.394 . S
C759 H731 0.982 . S
C759 H735 0.979 . S
C759 H736 0.977 . S
C759 C756 1.453 . S
C760 H732 0.979 . S
C760 H733 0.980 . S
C760 H734 0.983 . S
C760 C756 1.684 . S
H761 C779 0.948 . S
H762 C720 0.948 . S
H763 C738 0.979 . S
H764 C738 0.980 . S
H765 C738 0.983 . S
H766 C737 0.982 . S
H767 C737 0.979 . S
H768 C737 0.977 . S
H769 C739 0.948 . S
H770 C741 0.947 . S
H771 C742 0.948 . S
H772 C748 0.982 . S
H773 C748 0.979 . S
H774 C748 0.977 . S
H775 C749 0.979 . S
H776 C749 0.980 . S
H777 C749 0.983 . S
H778 C722 0.947 . S
C779 C722 1.392 . S
C779 C723 1.419 . S
C779 H761 0.948 . S
C780 C781 1.391 . S
C780 C784 1.391 . S
C780 H822 0.948 . S
C781 C780 1.391 . S
C781 C782 1.391 . S
C782 C781 1.391 . S
C782 H838 0.947 . S
C782 C839 1.392 . S
C783 C784 1.391 . S
C783 C787 1.397 . S
C783 C839 1.419 . S
C784 C780 1.391 . S
C784 C783 1.391 . S
C784 C785 1.399 . S
C785 C784 1.399 . S
C785 C788 1.396 . S
C785 C797 1.453 . S
C785 C798 1.684 . S
H786 C810 0.948 . S
C787 C783 1.397 . S
C787 C788 1.394 . S
C787 C806 1.723 . S
C788 C785 1.396 . S
C788 C787 1.394 . S
C788 C818 1.723 . S
H789 C812 0.947 . S
H790 C813 0.948 . S
H791 C819 0.982 . S
H792 C820 0.979 . S
H793 C820 0.980 . S
H794 C820 0.983 . S
H795 C819 0.979 . S
H796 C819 0.977 . S
C797 C785 1.453 . S
C797 H826 0.982 . S
C797 H827 0.979 . S
C797 H828 0.977 . S
C798 C785 1.684 . S
C798 H823 0.979 . S
C798 H824 0.980 . S
C798 H825 0.983 . S
C799 C800 1.391 . S
C799 C804 1.391 . S
C799 H829 0.948 . S
C800 C799 1.391 . S
C800 C801 1.391 . S
C801 C800 1.391 . S
C801 C802 1.392 . S
C801 H830 0.947 . S
C802 C801 1.392 . S
C802 C803 1.419 . S
C802 H831 0.948 . S
C803 C802 1.419 . S
C803 C804 1.391 . S
C803 C807 1.397 . S
C804 C799 1.391 . S
C804 C803 1.391 . S
C804 C805 1.399 . S
C805 C804 1.399 . S
C805 C806 1.396 . S
C805 C808 1.453 . S
C805 C809 1.684 . S
C806 C787 1.723 . S
C806 C805 1.396 . S
C806 C807 1.394 . S
C807 C803 1.397 . S
C807 C806 1.394 . S
C807 C817 1.723 . S
C808 C805 1.453 . S
C808 H832 0.982 . S
C808 H833 0.979 . S
C808 H834 0.977 . S
C809 C805 1.684 . S
C809 H835 0.979 . S
C809 H836 0.980 . S
C809 H837 0.983 . S
C810 H786 0.948 . S
C810 C811 1.391 . S
C810 C815 1.391 . S
C811 C810 1.391 . S
C811 C812 1.391 . S
C812 H789 0.947 . S
C812 C811 1.391 . S
C812 C813 1.392 . S
C813 H790 0.948 . S
C813 C812 1.392 . S
C813 C814 1.419 . S
C814 C813 1.419 . S
C814 C815 1.391 . S
C814 C818 1.397 . S
C815 C810 1.391 . S
C815 C814 1.391 . S
C815 C816 1.399 . S
C816 C815 1.399 . S
C816 C817 1.396 . S
C816 C819 1.453 . S
C816 C820 1.684 . S
C817 C807 1.723 . S
C817 C816 1.396 . S
C817 C818 1.394 . S
C818 C788 1.723 . S
C818 C814 1.397 . S
C818 C817 1.394 . S
C819 H791 0.982 . S
C819 H795 0.979 . S
C819 H796 0.977 . S
C819 C816 1.453 . S
C820 H792 0.979 . S
C820 H793 0.980 . S
C820 H794 0.983 . S
C820 C816 1.684 . S
H821 C839 0.948 . S
H822 C780 0.948 . S
H823 C798 0.979 . S
H824 C798 0.980 . S
H825 C798 0.983 . S
H826 C797 0.982 . S
H827 C797 0.979 . S
H828 C797 0.977 . S
H829 C799 0.948 . S
H830 C801 0.947 . S
H831 C802 0.948 . S
H832 C808 0.982 . S
H833 C808 0.979 . S
H834 C808 0.977 . S
H835 C809 0.979 . S
H836 C809 0.980 . S
H837 C809 0.983 . S
H838 C782 0.947 . S
C839 C782 1.392 . S
C839 C783 1.419 . S
C839 H821 0.948 . S
C840 C841 1.391 . S
C840 C844 1.391 . S
C840 H882 0.948 . S
C841 C840 1.391 . S
C841 C842 1.391 . S
C842 C841 1.391 . S
C842 H898 0.947 . S
C842 C899 1.392 . S
C843 C844 1.391 . S
C843 C847 1.397 . S
C843 C899 1.419 . S
C844 C840 1.391 . S
C844 C843 1.391 . S
C844 C845 1.399 . S
C845 C844 1.399 . S
C845 C848 1.396 . S
C845 C857 1.453 . S
C845 C858 1.684 . S
H846 C870 0.948 . S
C847 C843 1.397 . S
C847 C848 1.394 . S
C847 C866 1.723 . S
C848 C845 1.396 . S
C848 C847 1.394 . S
C848 C878 1.723 . S
H849 C872 0.947 . S
H850 C873 0.948 . S
H851 C879 0.982 . S
H852 C880 0.979 . S
H853 C880 0.980 . S
H854 C880 0.983 . S
H855 C879 0.979 . S
H856 C879 0.977 . S
C857 C845 1.453 . S
C857 H886 0.982 . S
C857 H887 0.979 . S
C857 H888 0.977 . S
C858 C845 1.684 . S
C858 H883 0.979 . S
C858 H884 0.980 . S
C858 H885 0.983 . S
C859 C860 1.391 . S
C859 C864 1.391 . S
C859 H889 0.948 . S
C860 C859 1.391 . S
C860 C861 1.391 . S
C861 C860 1.391 . S
C861 C862 1.392 . S
C861 H890 0.947 . S
C862 C861 1.392 . S
C862 C863 1.419 . S
C862 H891 0.948 . S
C863 C862 1.419 . S
C863 C864 1.391 . S
C863 C867 1.397 . S
C864 C859 1.391 . S
C864 C863 1.391 . S
C864 C865 1.399 . S
C865 C864 1.399 . S
C865 C866 1.396 . S
C865 C868 1.453 . S
C865 C869 1.684 . S
C866 C847 1.723 . S
C866 C865 1.396 . S
C866 C867 1.394 . S
C867 C863 1.397 . S
C867 C866 1.394 . S
C867 C877 1.723 . S
C868 C865 1.453 . S
C868 H892 0.982 . S
C868 H893 0.979 . S
C868 H894 0.977 . S
C869 C865 1.684 . S
C869 H895 0.979 . S
C869 H896 0.980 . S
C869 H897 0.983 . S
C870 H846 0.948 . S
C870 C871 1.391 . S
C870 C875 1.391 . S
C871 C870 1.391 . S
C871 C872 1.391 . S
C872 H849 0.947 . S
C872 C871 1.391 . S
C872 C873 1.392 . S
C873 H850 0.948 . S
C873 C872 1.392 . S
C873 C874 1.419 . S
C874 C873 1.419 . S
C874 C875 1.391 . S
C874 C878 1.397 . S
C875 C870 1.391 . S
C875 C874 1.391 . S
C875 C876 1.399 . S
C876 C875 1.399 . S
C876 C877 1.396 . S
C876 C879 1.453 . S
C876 C880 1.684 . S
C877 C867 1.723 . S
C877 C876 1.396 . S
C877 C878 1.394 . S
C878 C848 1.723 . S
C878 C874 1.397 . S
C878 C877 1.394 . S
C879 H851 0.982 . S
C879 H855 0.979 . S
C879 H856 0.977 . S
C879 C876 1.453 . S
C880 H852 0.979 . S
C880 H853 0.980 . S
C880 H854 0.983 . S
C880 C876 1.684 . S
H881 C899 0.948 . S
H882 C840 0.948 . S
H883 C858 0.979 . S
H884 C858 0.980 . S
H885 C858 0.983 . S
H886 C857 0.982 . S
H887 C857 0.979 . S
H888 C857 0.977 . S
H889 C859 0.948 . S
H890 C861 0.947 . S
H891 C862 0.948 . S
H892 C868 0.982 . S
H893 C868 0.979 . S
H894 C868 0.977 . S
H895 C869 0.979 . S
H896 C869 0.980 . S
H897 C869 0.983 . S
H898 C842 0.947 . S
C899 C842 1.392 . S
C899 C843 1.419 . S
C899 H881 0.948 . S
C900 C901 1.391 . S
C900 C904 1.391 . S
C900 H942 0.948 . S
C901 C900 1.391 . S
C901 C902 1.391 . S
C902 C901 1.391 . S
C902 H958 0.947 . S
C902 C959 1.392 . S
C903 C904 1.391 . S
C903 C907 1.397 . S
C903 C959 1.419 . S
C904 C900 1.391 . S
C904 C903 1.391 . S
C904 C905 1.399 . S
C905 C904 1.399 . S
C905 C908 1.396 . S
C905 C917 1.453 . S
C905 C918 1.684 . S
H906 C930 0.948 . S
C907 C903 1.397 . S
C907 C908 1.394 . S
C907 C926 1.723 . S
C908 C905 1.396 . S
C908 C907 1.394 . S
C908 C938 1.723 . S
H909 C932 0.947 . S
H910 C933 0.948 . S
H911 C939 0.982 . S
H912 C940 0.979 . S
H913 C940 0.980 . S
H914 C940 0.983 . S
H915 C939 0.979 . S
H916 C939 0.977 . S
C917 C905 1.453 . S
C917 H946 0.982 . S
C917 H947 0.979 . S
C917 H948 0.977 . S
C918 C905 1.684 . S
C918 H943 0.979 . S
C918 H944 0.980 . S
C918 H945 0.983 . S
C919 C920 1.391 . S
C919 C924 1.391 . S
C919 H949 0.948 . S
C920 C919 1.391 . S
C920 C921 1.391 . S
C921 C920 1.391 . S
C921 C922 1.392 . S
C921 H950 0.947 . S
C922 C921 1.392 . S
C922 C923 1.419 . S
C922 H951 0.948 . S
C923 C922 1.419 . S
C923 C924 1.391 . S
C923 C927 1.397 . S
C924 C919 1.391 . S
C924 C923 1.391 . S
C924 C925 1.399 . S
C925 C924 1.399 . S
C925 C926 1.396 . S
C925 C928 1.453 . S
C925 C929 1.684 . S
C926 C907 1.723 . S
C926 C925 1.396 . S
C926 C927 1.394 . S
C927 C923 1.397 . S
C927 C926 1.394 . S
C927 C937 1.723 . S
C928 C925 1.453 . S
C928 H952 0.982 . S
C928 H953 0.979 . S
C928 H954 0.977 . S
C929 C925 1.684 . S
C929 H955 0.979 . S
C929 H956 0.980 . S
C929 H957 0.983 . S
C930 H906 0.948 . S
C930 C931 1.391 . S
C930 C935 1.391 . S
C931 C930 1.391 . S
C931 C932 1.391 . S
C932 H909 0.947 . S
C932 C931 1.391 . S
C932 C933 1.392 . S
C933 H910 0.948 . S
C933 C932 1.392 . S
C933 C934 1.419 . S
C934 C933 1.419 . S
C934 C935 1.391 . S
C934 C938 1.397 . S
C935 C930 1.391 . S
C935 C934 1.391 . S
C935 C936 1.399 . S
C936 C935 1.399 . S
C936 C937 1.396 . S
C936 C939 1.453 . S
C936 C940 1.684 . S
C937 C927 1.723 . S
C937 C936 1.396 . S
C937 C938 1.394 . S
C938 C908 1.723 . S
C938 C934 1.397 . S
C938 C937 1.394 . S
C939 H911 0.982 . S
C939 H915 0.979 . S
C939 H916 0.977 . S
C939 C936 1.453 . S
C940 H912 0.979 . S
C940 H913 0.980 . S
C940 H914 0.983 . S
C940 C936 1.684 . S
H941 C959 0.948 . S
H942 C900 0.948 . S
H943 C918 0.979 . S
H944 C918 0.980 . S
H945 C918 0.983 . S
H946 C917 0.982 . S
H947 C917 0.979 . S
H948 C917 0.977 . S
H949 C919 0.948 . S
H950 C921 0.947 . S
H951 C922 0.948 . S
H952 C928 0.982 . S
H953 C928 0.979 . S
H954 C928 0.977 . S
H955 C929 0.979 . S
H956 C929 0.980 . S
H957 C929 0.983 . S
H958 C902 0.947 . S
C959 C902 1.392 . S
C959 C903 1.419 . S
C959 H941 0.948 . S
C960 C961 1.391 . S
C960 C964 1.391 . S
C960 H1002 0.948 . S
C961 C960 1.391 . S
C961 C962 1.391 . S
C962 C961 1.391 . S
C962 H1018 0.947 . S
C962 C1019 1.392 . S
C963 C964 1.391 . S
C963 C967 1.397 . S
C963 C1019 1.419 . S
C964 C960 1.391 . S
C964 C963 1.391 . S
C964 C965 1.399 . S
C965 C964 1.399 . S
C965 C968 1.396 . S
C965 C977 1.453 . S
C965 C978 1.684 . S
H966 C990 0.948 . S
C967 C963 1.397 . S
C967 C968 1.394 . S
C967 C986 1.723 . S
C968 C965 1.396 . S
C968 C967 1.394 . S
C968 C998 1.723 . S
H969 C992 0.947 . S
H970 C993 0.948 . S
H971 C999 0.982 . S
H972 C1000 0.979 . S
H973 C1000 0.980 . S
H974 C1000 0.983 . S
H975 C999 0.979 . S
H976 C999 0.977 . S
C977 C965 1.453 . S
C977 H1006 0.982 . S
C977 H1007 0.979 . S
C977 H1008 0.977 . S
C978 C965 1.684 . S
C978 H1003 0.979 . S
C978 H1004 0.980 . S
C978 H1005 0.983 . S
C979 C980 1.391 . S
C979 C984 1.391 . S
C979 H1009 0.948 . S
C980 C979 1.391 . S
C980 C981 1.391 . S
C981 C980 1.391 . S
C981 C982 1.392 . S
C981 H1010 0.947 . S
C982 C981 1.392 . S
C982 C983 1.419 . S
C982 H1011 0.948 . S
C983 C982 1.419 . S
C983 C984 1.391 . S
C983 C987 1.397 . S
C984 C979 1.391 . S
C984 C983 1.391 . S
C984 C985 1.399 . S
C985 C984 1.399 . S
C985 C986 1.396 . S
C985 C988 1.453 . S
C985 C989 1.684 . S
C986 C967 1.723 . S
C986 C985 1.396 . S
C986 C987 1.394 . S
C987 C983 1.397 . S
C987 C986 1.394 . S
C987 C997 1.723 . S
C988 C985 1.453 . S
C988 H1012 0.982 . S
C988 H1013 0.979 . S
C988 H1014 0.977 . S
C989 C985 1.684 . S
C989 H1015 0.979 . S
C989 H1016 0.980 . S
C989 H1017 0.983 . S
C990 H966 0.948 . S
C990 C991 1.391 . S
C990 C995 1.391 . S
C991 C990 1.391 . S
C991 C992 1.391 . S
C992 H969 0.947 . S
C992 C991 1.391 . S
C992 C993 1.392 . S
C993 H970 0.948 . S
C993 C992 1.392 . S
C993 C994 1.419 . S
C994 C993 1.419 . S
C994 C995 1.391 . S
C994 C998 1.397 . S
C995 C990 1.391 . S
C995 C994 1.391 . S
C995 C996 1.399 . S
C996 C995 1.399 . S
C996 C997 1.396 . S
C996 C999 1.453 . S
C996 C1000 1.684 . S
C997 C987 1.723 . S
C997 C996 1.396 . S
C997 C998 1.394 . S
C998 C968 1.723 . S
C998 C994 1.397 . S
C998 C997 1.394 . S
C999 H971 0.982 . S
C999 H975 0.979 . S
C999 H976 0.977 . S
C999 C996 1.453 . S
C1000 H972 0.979 . S
C1000 H973 0.980 . S
C1000 H974 0.983 . S
C1000 C996 1.684 . S
H1001 C1019 0.948 . S
H1002 C960 0.948 . S
H1003 C978 0.979 . S
H1004 C978 0.980 . S
H1005 C978 0.983 . S
H1006 C977 0.982 . S
H1007 C977 0.979 . S
H1008 C977 0.977 . S
H1009 C979 0.948 . S
H1010 C981 0.947 . S
H1011 C982 0.948 . S
H1012 C988 0.982 . S
H1013 C988 0.979 . S
H1014 C988 0.977 . S
H1015 C989 0.979 . S
H1016 C989 0.980 . S
H1017 C989 0.983 . S
H1018 C962 0.947 . S
C1019 C962 1.392 . S
C1019 C963 1.419 . S
C1019 H1001 0.948 . S
C1020 C1021 1.391 . S
C1020 C1024 1.391 . S
C1020 H1062 0.948 . S
C1021 C1020 1.391 . S
C1021 C1022 1.391 . S
C1022 C1021 1.391 . S
C1022 H1078 0.947 . S
C1022 C1079 1.392 . S
C1023 C1024 1.391 . S
C1023 C1027 1.397 . S
C1023 C1079 1.419 . S
C1024 C1020 1.391 . S
C1024 C1023 1.391 . S
C1024 C1025 1.399 . S
C1025 C1024 1.399 . S
C1025 C1028 1.396 . S
C1025 C1037 1.453 . S
C1025 C1038 1.684 . S
H1026 C1050 0.948 . S
C1027 C1023 1.397 . S
C1027 C1028 1.394 . S
C1027 C1046 1.723 . S
C1028 C1025 1.396 . S
C1028 C1027 1.394 . S
C1028 C1058 1.723 . S
H1029 C1052 0.947 . S
H1030 C1053 0.948 . S
H1031 C1059 0.982 . S
H1032 C1060 0.979 . S
H1033 C1060 0.980 . S
H1034 C1060 0.983 . S
H1035 C1059 0.979 . S
H1036 C1059 0.977 . S
C1037 C1025 1.453 . S
C1037 H1066 0.982 . S
C1037 H1067 0.979 . S
C1037 H1068 0.977 . S
C1038 C1025 1.684 . S
C1038 H1063 0.979 . S
C1038 H1064 0.980 . S
C1038 H1065 0.983 . S
C1039 C1040 1.391 . S
C1039 C1044 1.391 . S
C1039 H1069 0.948 . S
C1040 C1039 1.391 . S
C1040 C1041 1.391 . S
C1041 C1040 1.391 . S
C1041 C1042 1.392 . S
C1041 H1070 0.947 . S
C1042 C1041 1.392 . S
C1042 C1043 1.419 . S
C1042 H1071 0.948 . S
C1043 C1042 1.419 . S
C1043 C1044 1.391 . S
C1043 C1047 1.397 . S
C1044 C1039 1.391 . S
C1044 C1043 1.391 . S
C1044 C1045 1.399 . S
C1045 C1044 1.399 . S
C1045 C1046 1.396 . S
C1045 C1048 1.453 . S
C1045 C1049 1.684 . S
C1046 C1027 1.723 . S
C1046 C1045 1.396 . S
C1046 C1047 1.394 . S
C1047 C1043 1.397 . S
C1047 C1046 1.394 . S
C1047 C1057 1.723 . S
C1048 C1045 1.453 . S
C1048 H1072 0.982 . S
C1048 H1073 0.979 . S
C1048 H1074 0.977 . S
C1049 C1045 1.684 . S
C1049 H1075 0.979 . S
C1049 H1076 0.980 . S
C1049 H1077 0.983 . S
C1050 H1026 0.948 . S
C1050 C1051 1.391 . S
C1050 C1055 1.391 . S
C1051 C1050 1.391 . S
C1051 C1052 1.391 . S
C1052 H1029 0.947 . S
C1052 C1051 1.391 . S
C1052 C1053 1.392 . S
C1053 H1030 0.948 . S
C1053 C1052 1.392 . S
C1053 C1054 1.419 . S
C1054 C1053 1.419 . S
C1054 C1055 1.391 . S
C1054 C1058 1.397 . S
C1055 C1050 1.391 . S
C1055 C1054 1.391 . S
C1055 C1056 1.399 . S
C1056 C1055 1.399 . S
C1056 C1057 1.396 . S
C1056 C1059 1.453 . S
C1056 C1060 1.684 . S
C1057 C1047 1.723 . S
C1057 C1056 1.396 . S
C1057 C1058 1.394 . S
C1058 C1028 1.723 . S
C1058 C1054 1.397 . S
C1058 C1057 1.394 . S
C1059 H1031 0.982 . S
C1059 H1035 0.979 . S
C1059 H1036 0.977 . S
C1059 C1056 1.453 . S
C1060 H1032 0.979 . S
C1060 H1033 0.980 . S
C1060 H1034 0.983 . S
C1060 C1056 1.684 . S
H1061 C1079 0.948 . S
H1062 C1020 0.948 . S
H1063 C1038 0.979 . S
H1064 C1038 0.980 . S
H1065 C1038 0.983 . S
H1066 C1037 0.982 . S
H1067 C1037 0.979 . S
H1068 C1037 0.977 . S
H1069 C1039 0.948 . S
H1070 C1041 0.947 . S
H1071 C1042 0.948 . S
H1072 C1048 0.982 . S
H1073 C1048 0.979 . S
H1074 C1048 0.977 . S
H1075 C1049 0.979 . S
H1076 C1049 0.980 . S
H1077 C1049 0.983 . S
H1078 C1022 0.947 . S
C1079 C1022 1.392 . S
C1079 C1023 1.419 . S
C1079 H1061 0.948 . S
Eu1080 N1111 2.657 . S
Eu1080 N1118 2.609 . S
Eu1080 O1124 2.558 . S
Eu1080 O1125 2.612 1_565 S
Eu1080 O1127 2.339 1_565 S
Eu1080 O1128 2.563 1_565 S
Eu1080 O1129 2.419 . S
Eu1080 O1131 2.380 1_556 S
Eu1080 O1132 2.432 . S
Eu1080 C1144 2.848 . S
C1081 C1084 1.429 . S
C1081 C1085 1.411 . S
C1081 N1088 1.377 . S
C1082 C1084 1.420 . S
C1082 C1086 1.423 . S
C1082 C1094 1.392 . S
C1083 C1085 1.420 . S
C1083 C1086 1.351 . S
C1083 H1106 0.931 . S
C1084 C1081 1.429 . S
C1084 C1082 1.420 . S
C1084 N1092 1.362 . S
C1085 C1081 1.411 . S
C1085 C1083 1.420 . S
C1085 C1090 1.395 . S
C1086 C1082 1.423 . S
C1086 C1083 1.351 . S
C1086 H1098 0.930 . S
C1087 C1089 1.400 . S
C1087 C1090 1.386 . S
C1087 H1099 0.930 . S
N1088 C1081 1.377 . S
N1088 C1089 1.321 . S
N1088 Eu1091 2.609 . S
C1089 C1087 1.400 . S
C1089 N1088 1.321 . S
C1089 H1096 0.930 . S
C1090 C1085 1.395 . S
C1090 C1087 1.386 . S
C1090 H1109 0.930 . S
Eu1091 N1088 2.609 . S
Eu1091 N1092 2.657 . S
Eu1091 O1125 2.380 1_554 S
Eu1091 O1126 2.432 . S
Eu1091 O1130 2.558 . S
Eu1091 O1131 2.612 1_545 S
Eu1091 O1133 2.339 1_545 S
Eu1091 O1134 2.563 1_545 S
Eu1091 O1135 2.419 . S
Eu1091 C1155 2.848 . S
N1092 C1084 1.362 . S
N1092 Eu1091 2.657 . S
N1092 C1093 1.334 . S
C1093 N1092 1.334 . S
C1093 C1095 1.413 . S
C1093 H1100 0.929 . S
C1094 C1082 1.392 . S
C1094 C1095 1.367 . S
C1094 H1102 0.930 . S
C1095 C1093 1.413 . S
C1095 C1094 1.367 . S
C1095 H1097 0.930 . S
H1096 C1089 0.930 . S
H1097 C1095 0.930 . S
H1098 C1086 0.930 . S
H1099 C1087 0.930 . S
H1100 C1093 0.929 . S
H1101 C1115 0.930 . S
H1102 C1094 0.930 . S
H1103 C1121 0.930 . S
H1104 C1112 0.929 . S
H1105 C1119 0.930 . S
H1106 C1083 0.931 . S
H1107 C1113 0.930 . S
H1108 C1146 0.930 . S
H1109 C1090 0.930 . S
H1110 C1145 0.931 . S
N1111 Eu1080 2.657 . S
N1111 C1112 1.334 . S
N1111 C1116 1.362 . S
C1112 H1104 0.929 . S
C1112 N1111 1.334 . S
C1112 C1115 1.413 . S
C1113 H1107 0.930 . S
C1113 C1114 1.392 . S
C1113 C1115 1.367 . S
C1114 C1113 1.392 . S
C1114 C1116 1.420 . S
C1114 C1146 1.423 . S
C1115 H1101 0.930 . S
C1115 C1112 1.413 . S
C1115 C1113 1.367 . S
C1116 N1111 1.362 . S
C1116 C1114 1.420 . S
C1116 C1120 1.429 . S
H1117 C1122 0.930 . S
N1118 Eu1080 2.609 . S
N1118 C1120 1.377 . S
N1118 C1121 1.321 . S
C1119 H1105 0.930 . S
C1119 C1121 1.400 . S
C1119 C1122 1.386 . S
C1120 C1116 1.429 . S
C1120 N1118 1.377 . S
C1120 C1123 1.411 . S
C1121 H1103 0.930 . S
C1121 N1118 1.321 . S
C1121 C1119 1.400 . S
C1122 H1117 0.930 . S
C1122 C1119 1.386 . S
C1122 C1123 1.395 . S
C1123 C1120 1.411 . S
C1123 C1122 1.395 . S
C1123 C1145 1.420 . S
O1124 Eu1080 2.558 . S
O1124 C1144 1.257 . S
O1125 Eu1080 2.612 1_545 S
O1125 Eu1091 2.380 1_556 S
O1125 C1136 1.276 . S
O1126 Eu1091 2.432 . S
O1126 C1143 1.264 1_554 S
O1127 Eu1080 2.339 1_545 S
O1127 C1143 1.254 . S
O1128 Eu1080 2.563 1_545 S
O1128 C1136 1.235 . S
O1129 Eu1080 2.419 . S
O1129 C1144 1.249 . S
O1130 Eu1091 2.558 . S
O1130 C1155 1.257 . S
O1131 Eu1080 2.380 1_554 S
O1131 Eu1091 2.612 1_565 S
O1131 C1147 1.276 . S
O1132 Eu1080 2.432 . S
O1132 C1154 1.264 1_556 S
O1133 Eu1091 2.339 1_565 S
O1133 C1154 1.254 . S
O1134 Eu1091 2.563 1_565 S
O1134 C1147 1.235 . S
O1135 Eu1091 2.419 . S
O1135 C1155 1.249 . S
C1136 O1125 1.276 . S
C1136 O1128 1.235 . S
C1137 C1139 1.393 1_565 S
C1137 C1141 1.395 . S
C1137 C1144 1.492 . S
C1138 C1139 1.392 . S
C1138 C1140 1.386 1_545 S
C1139 C1137 1.393 1_545 S
C1139 C1138 1.392 . S
C1139 H1156 0.930 . S
C1140 C1138 1.386 1_565 S
C1140 C1142 1.395 . S
C1140 H1157 0.930 . S
C1141 C1137 1.395 . S
C1141 C1142 1.379 . S
C1141 H1158 0.930 . S
C1142 C1140 1.395 . S
C1142 C1141 1.379 . S
C1142 H1159 0.930 . S
C1143 O1126 1.264 1_556 S
C1143 O1127 1.254 . S
C1144 Eu1080 2.848 . S
C1144 O1124 1.257 . S
C1144 O1129 1.249 . S
C1144 C1137 1.492 . S
C1145 H1110 0.931 . S
C1145 C1123 1.420 . S
C1145 C1146 1.351 . S
C1146 H1108 0.930 . S
C1146 C1114 1.423 . S
C1146 C1145 1.351 . S
C1147 O1131 1.276 . S
C1147 O1134 1.235 . S
C1148 C1149 1.393 1_545 S
C1148 C1152 1.395 . S
C1148 C1155 1.492 . S
C1149 C1148 1.393 1_565 S
C1149 C1150 1.392 . S
C1149 H1160 0.930 . S
C1150 C1149 1.392 . S
C1150 C1151 1.386 1_565 S
C1151 C1150 1.386 1_545 S
C1151 C1153 1.395 . S
C1151 H1161 0.930 . S
C1152 C1148 1.395 . S
C1152 C1153 1.379 . S
C1152 H1162 0.930 . S
C1153 C1151 1.395 . S
C1153 C1152 1.379 . S
C1153 H1163 0.930 . S
C1154 O1132 1.264 1_554 S
C1154 O1133 1.254 . S
C1155 Eu1091 2.848 . S
C1155 O1130 1.257 . S
C1155 O1135 1.249 . S
C1155 C1148 1.492 . S
H1156 C1139 0.930 . S
H1157 C1140 0.930 . S
H1158 C1141 0.930 . S
H1159 C1142 0.930 . S
H1160 C1149 0.930 . S
H1161 C1151 0.930 . S
H1162 C1152 0.930 . S
H1163 C1153 0.930 . S
Eu1164 N1195 2.657 . S
Eu1164 N1202 2.609 . S
Eu1164 O1208 2.558 . S
Eu1164 O1209 2.612 1_455 S
Eu1164 O1211 2.339 1_455 S
Eu1164 O1212 2.563 1_455 S
Eu1164 O1213 2.419 . S
Eu1164 O1215 2.380 1_556 S
Eu1164 O1216 2.432 . S
Eu1164 C1228 2.848 . S
C1165 C1168 1.429 . S
C1165 C1169 1.411 . S
C1165 N1172 1.377 . S
C1166 C1168 1.420 . S
C1166 C1170 1.423 . S
C1166 C1178 1.392 . S
C1167 C1169 1.420 . S
C1167 C1170 1.351 . S
C1167 H1190 0.931 . S
C1168 C1165 1.429 . S
C1168 C1166 1.420 . S
C1168 N1176 1.362 . S
C1169 C1165 1.411 . S
C1169 C1167 1.420 . S
C1169 C1174 1.395 . S
C1170 C1166 1.423 . S
C1170 C1167 1.351 . S
C1170 H1182 0.930 . S
C1171 C1173 1.400 . S
C1171 C1174 1.386 . S
C1171 H1183 0.930 . S
N1172 C1165 1.377 . S
N1172 C1173 1.321 . S
N1172 Eu1175 2.609 . S
C1173 C1171 1.400 . S
C1173 N1172 1.321 . S
C1173 H1180 0.930 . S
C1174 C1169 1.395 . S
C1174 C1171 1.386 . S
C1174 H1193 0.930 . S
Eu1175 N1172 2.609 . S
Eu1175 N1176 2.657 . S
Eu1175 O1209 2.380 1_554 S
Eu1175 O1210 2.432 . S
Eu1175 O1214 2.558 . S
Eu1175 O1215 2.612 1_655 S
Eu1175 O1217 2.339 1_655 S
Eu1175 O1218 2.563 1_655 S
Eu1175 O1219 2.419 . S
Eu1175 C1239 2.848 . S
N1176 C1168 1.362 . S
N1176 Eu1175 2.657 . S
N1176 C1177 1.334 . S
C1177 N1176 1.334 . S
C1177 C1179 1.413 . S
C1177 H1184 0.929 . S
C1178 C1166 1.392 . S
C1178 C1179 1.367 . S
C1178 H1186 0.930 . S
C1179 C1177 1.413 . S
C1179 C1178 1.367 . S
C1179 H1181 0.930 . S
H1180 C1173 0.930 . S
H1181 C1179 0.930 . S
H1182 C1170 0.930 . S
H1183 C1171 0.930 . S
H1184 C1177 0.929 . S
H1185 C1199 0.930 . S
H1186 C1178 0.930 . S
H1187 C1205 0.930 . S
H1188 C1196 0.929 . S
H1189 C1203 0.930 . S
H1190 C1167 0.931 . S
H1191 C1197 0.930 . S
H1192 C1230 0.930 . S
H1193 C1174 0.930 . S
H1194 C1229 0.931 . S
N1195 Eu1164 2.657 . S
N1195 C1196 1.334 . S
N1195 C1200 1.362 . S
C1196 H1188 0.929 . S
C1196 N1195 1.334 . S
C1196 C1199 1.413 . S
C1197 H1191 0.930 . S
C1197 C1198 1.392 . S
C1197 C1199 1.367 . S
C1198 C1197 1.392 . S
C1198 C1200 1.420 . S
C1198 C1230 1.423 . S
C1199 H1185 0.930 . S
C1199 C1196 1.413 . S
C1199 C1197 1.367 . S
C1200 N1195 1.362 . S
C1200 C1198 1.420 . S
C1200 C1204 1.429 . S
H1201 C1206 0.930 . S
N1202 Eu1164 2.609 . S
N1202 C1204 1.377 . S
N1202 C1205 1.321 . S
C1203 H1189 0.930 . S
C1203 C1205 1.400 . S
C1203 C1206 1.386 . S
C1204 C1200 1.429 . S
C1204 N1202 1.377 . S
C1204 C1207 1.411 . S
C1205 H1187 0.930 . S
C1205 N1202 1.321 . S
C1205 C1203 1.400 . S
C1206 H1201 0.930 . S
C1206 C1203 1.386 . S
C1206 C1207 1.395 . S
C1207 C1204 1.411 . S
C1207 C1206 1.395 . S
C1207 C1229 1.420 . S
O1208 Eu1164 2.558 . S
O1208 C1228 1.257 . S
O1209 Eu1164 2.612 1_655 S
O1209 Eu1175 2.380 1_556 S
O1209 C1220 1.276 . S
O1210 Eu1175 2.432 . S
O1210 C1227 1.264 1_554 S
O1211 Eu1164 2.339 1_655 S
O1211 C1227 1.254 . S
O1212 Eu1164 2.563 1_655 S
O1212 C1220 1.235 . S
O1213 Eu1164 2.419 . S
O1213 C1228 1.249 . S
O1214 Eu1175 2.558 . S
O1214 C1239 1.257 . S
O1215 Eu1164 2.380 1_554 S
O1215 Eu1175 2.612 1_455 S
O1215 C1231 1.276 . S
O1216 Eu1164 2.432 . S
O1216 C1238 1.264 1_556 S
O1217 Eu1175 2.339 1_455 S
O1217 C1238 1.254 . S
O1218 Eu1175 2.563 1_455 S
O1218 C1231 1.235 . S
O1219 Eu1175 2.419 . S
O1219 C1239 1.249 . S
C1220 O1209 1.276 . S
C1220 O1212 1.235 . S
C1221 C1223 1.393 1_455 S
C1221 C1225 1.395 . S
C1221 C1228 1.492 . S
C1222 C1223 1.392 . S
C1222 C1224 1.386 1_655 S
C1223 C1221 1.393 1_655 S
C1223 C1222 1.392 . S
C1223 H1240 0.930 . S
C1224 C1222 1.386 1_455 S
C1224 C1226 1.395 . S
C1224 H1241 0.930 . S
C1225 C1221 1.395 . S
C1225 C1226 1.379 . S
C1225 H1242 0.930 . S
C1226 C1224 1.395 . S
C1226 C1225 1.379 . S
C1226 H1243 0.930 . S
C1227 O1210 1.264 1_556 S
C1227 O1211 1.254 . S
C1228 Eu1164 2.848 . S
C1228 O1208 1.257 . S
C1228 O1213 1.249 . S
C1228 C1221 1.492 . S
C1229 H1194 0.931 . S
C1229 C1207 1.420 . S
C1229 C1230 1.351 . S
C1230 H1192 0.930 . S
C1230 C1198 1.423 . S
C1230 C1229 1.351 . S
C1231 O1215 1.276 . S
C1231 O1218 1.235 . S
C1232 C1233 1.393 1_655 S
C1232 C1236 1.395 . S
C1232 C1239 1.492 . S
C1233 C1232 1.393 1_455 S
C1233 C1234 1.392 . S
C1233 H1244 0.930 . S
C1234 C1233 1.392 . S
C1234 C1235 1.386 1_455 S
C1235 C1234 1.386 1_655 S
C1235 C1237 1.395 . S
C1235 H1245 0.930 . S
C1236 C1232 1.395 . S
C1236 C1237 1.379 . S
C1236 H1246 0.930 . S
C1237 C1235 1.395 . S
C1237 C1236 1.379 . S
C1237 H1247 0.930 . S
C1238 O1216 1.264 1_554 S
C1238 O1217 1.254 . S
C1239 Eu1175 2.848 . S
C1239 O1214 1.257 . S
C1239 O1219 1.249 . S
C1239 C1232 1.492 . S
H1240 C1223 0.930 . S
H1241 C1224 0.930 . S
H1242 C1225 0.930 . S
H1243 C1226 0.930 . S
H1244 C1233 0.930 . S
H1245 C1235 0.930 . S
H1246 C1236 0.930 . S
H1247 C1237 0.930 . S
Eu1248 N1279 2.657 . S
Eu1248 N1286 2.609 . S
Eu1248 O1292 2.558 . S
Eu1248 O1293 2.612 . S
Eu1248 O1295 2.339 . S
Eu1248 O1296 2.563 . S
Eu1248 O1297 2.419 . S
Eu1248 O1299 2.380 1_554 S
Eu1248 O1300 2.432 . S
Eu1248 C1312 2.848 . S
C1249 C1252 1.429 . S
C1249 C1253 1.411 . S
C1249 N1256 1.377 . S
C1250 C1252 1.420 . S
C1250 C1254 1.423 . S
C1250 C1262 1.392 . S
C1251 C1253 1.420 . S
C1251 C1254 1.351 . S
C1251 H1274 0.931 . S
C1252 C1249 1.429 . S
C1252 C1250 1.420 . S
C1252 N1260 1.362 . S
C1253 C1249 1.411 . S
C1253 C1251 1.420 . S
C1253 C1258 1.395 . S
C1254 C1250 1.423 . S
C1254 C1251 1.351 . S
C1254 H1266 0.930 . S
C1255 C1257 1.400 . S
C1255 C1258 1.386 . S
C1255 H1267 0.930 . S
N1256 C1249 1.377 . S
N1256 C1257 1.321 . S
N1256 Eu1259 2.609 . S
C1257 C1255 1.400 . S
C1257 N1256 1.321 . S
C1257 H1264 0.930 . S
C1258 C1253 1.395 . S
C1258 C1255 1.386 . S
C1258 H1277 0.930 . S
Eu1259 N1256 2.609 . S
Eu1259 N1260 2.657 . S
Eu1259 O1293 2.380 1_556 S
Eu1259 O1294 2.432 . S
Eu1259 O1298 2.558 . S
Eu1259 O1299 2.612 . S
Eu1259 O1301 2.339 . S
Eu1259 O1302 2.563 . S
Eu1259 O1303 2.419 . S
Eu1259 C1323 2.848 . S
N1260 C1252 1.362 . S
N1260 Eu1259 2.657 . S
N1260 C1261 1.334 . S
C1261 N1260 1.334 . S
C1261 C1263 1.413 . S
C1261 H1268 0.929 . S
C1262 C1250 1.392 . S
C1262 C1263 1.367 . S
C1262 H1270 0.930 . S
C1263 C1261 1.413 . S
C1263 C1262 1.367 . S
C1263 H1265 0.930 . S
H1264 C1257 0.930 . S
H1265 C1263 0.930 . S
H1266 C1254 0.930 . S
H1267 C1255 0.930 . S
H1268 C1261 0.929 . S
H1269 C1283 0.930 . S
H1270 C1262 0.930 . S
H1271 C1289 0.930 . S
H1272 C1280 0.929 . S
H1273 C1287 0.930 . S
H1274 C1251 0.931 . S
H1275 C1281 0.930 . S
H1276 C1314 0.930 . S
H1277 C1258 0.930 . S
H1278 C1313 0.931 . S
N1279 Eu1248 2.657 . S
N1279 C1280 1.334 . S
N1279 C1284 1.362 . S
C1280 H1272 0.929 . S
C1280 N1279 1.334 . S
C1280 C1283 1.413 . S
C1281 H1275 0.930 . S
C1281 C1282 1.392 . S
C1281 C1283 1.367 . S
C1282 C1281 1.392 . S
C1282 C1284 1.420 . S
C1282 C1314 1.423 . S
C1283 H1269 0.930 . S
C1283 C1280 1.413 . S
C1283 C1281 1.367 . S
C1284 N1279 1.362 . S
C1284 C1282 1.420 . S
C1284 C1288 1.429 . S
H1285 C1290 0.930 . S
N1286 Eu1248 2.609 . S
N1286 C1288 1.377 . S
N1286 C1289 1.321 . S
C1287 H1273 0.930 . S
C1287 C1289 1.400 . S
C1287 C1290 1.386 . S
C1288 C1284 1.429 . S
C1288 N1286 1.377 . S
C1288 C1291 1.411 . S
C1289 H1271 0.930 . S
C1289 N1286 1.321 . S
C1289 C1287 1.400 . S
C1290 H1285 0.930 . S
C1290 C1287 1.386 . S
C1290 C1291 1.395 . S
C1291 C1288 1.411 . S
C1291 C1290 1.395 . S
C1291 C1313 1.420 . S
O1292 Eu1248 2.558 . S
O1292 C1312 1.257 . S
O1293 Eu1248 2.612 . S
O1293 Eu1259 2.380 1_554 S
O1293 C1304 1.276 . S
O1294 Eu1259 2.432 . S
O1294 C1311 1.264 1_556 S
O1295 Eu1248 2.339 . S
O1295 C1311 1.254 . S
O1296 Eu1248 2.563 . S
O1296 C1304 1.235 . S
O1297 Eu1248 2.419 . S
O1297 C1312 1.249 . S
O1298 Eu1259 2.558 . S
O1298 C1323 1.257 . S
O1299 Eu1248 2.380 1_556 S
O1299 Eu1259 2.612 . S
O1299 C1315 1.276 . S
O1300 Eu1248 2.432 . S
O1300 C1322 1.264 1_554 S
O1301 Eu1259 2.339 . S
O1301 C1322 1.254 . S
O1302 Eu1259 2.563 . S
O1302 C1315 1.235 . S
O1303 Eu1259 2.419 . S
O1303 C1323 1.249 . S
C1304 O1293 1.276 . S
C1304 O1296 1.235 . S
C1305 C1307 1.393 . S
C1305 C1309 1.395 . S
C1305 C1312 1.492 . S
C1306 C1307 1.392 . S
C1306 C1308 1.386 . S
C1307 C1305 1.393 . S
C1307 C1306 1.392 . S
C1307 H1324 0.930 . S
C1308 C1306 1.386 . S
C1308 C1310 1.395 . S
C1308 H1325 0.930 . S
C1309 C1305 1.395 . S
C1309 C1310 1.379 . S
C1309 H1326 0.930 . S
C1310 C1308 1.395 . S
C1310 C1309 1.379 . S
C1310 H1327 0.930 . S
C1311 O1294 1.264 1_554 S
C1311 O1295 1.254 . S
C1312 Eu1248 2.848 . S
C1312 O1292 1.257 . S
C1312 O1297 1.249 . S
C1312 C1305 1.492 . S
C1313 H1278 0.931 . S
C1313 C1291 1.420 . S
C1313 C1314 1.351 . S
C1314 H1276 0.930 . S
C1314 C1282 1.423 . S
C1314 C1313 1.351 . S
C1315 O1299 1.276 . S
C1315 O1302 1.235 . S
C1316 C1317 1.393 . S
C1316 C1320 1.395 . S
C1316 C1323 1.492 . S
C1317 C1316 1.393 . S
C1317 C1318 1.392 . S
C1317 H1328 0.930 . S
C1318 C1317 1.392 . S
C1318 C1319 1.386 . S
C1319 C1318 1.386 . S
C1319 C1321 1.395 . S
C1319 H1329 0.930 . S
C1320 C1316 1.395 . S
C1320 C1321 1.379 . S
C1320 H1330 0.930 . S
C1321 C1319 1.395 . S
C1321 C1320 1.379 . S
C1321 H1331 0.930 . S
C1322 O1300 1.264 1_556 S
C1322 O1301 1.254 . S
C1323 Eu1259 2.848 . S
C1323 O1298 1.257 . S
C1323 O1303 1.249 . S
C1323 C1316 1.492 . S
H1324 C1307 0.930 . S
H1325 C1308 0.930 . S
H1326 C1309 0.930 . S
H1327 C1310 0.930 . S
H1328 C1317 0.930 . S
H1329 C1319 0.930 . S
H1330 C1320 0.930 . S
H1331 C1321 0.930 . S
Eu1332 N1363 2.657 . S
Eu1332 N1370 2.609 . S
Eu1332 O1376 2.558 . S
Eu1332 O1377 2.612 . S
Eu1332 O1379 2.339 . S
Eu1332 O1380 2.563 . S
Eu1332 O1381 2.419 . S
Eu1332 O1383 2.380 . S
Eu1332 O1384 2.432 . S
Eu1332 C1396 2.848 . S
C1333 C1336 1.429 . S
C1333 C1337 1.411 . S
C1333 N1340 1.377 . S
C1334 C1336 1.420 . S
C1334 C1338 1.423 . S
C1334 C1346 1.392 . S
C1335 C1337 1.420 . S
C1335 C1338 1.351 . S
C1335 H1358 0.931 . S
C1336 C1333 1.429 . S
C1336 C1334 1.420 . S
C1336 N1344 1.362 . S
C1337 C1333 1.411 . S
C1337 C1335 1.420 . S
C1337 C1342 1.395 . S
C1338 C1334 1.423 . S
C1338 C1335 1.351 . S
C1338 H1350 0.930 . S
C1339 C1341 1.400 . S
C1339 C1342 1.386 . S
C1339 H1351 0.930 . S
N1340 C1333 1.377 . S
N1340 C1341 1.321 . S
N1340 Eu1343 2.609 . S
C1341 C1339 1.400 . S
C1341 N1340 1.321 . S
C1341 H1348 0.930 . S
C1342 C1337 1.395 . S
C1342 C1339 1.386 . S
C1342 H1361 0.930 . S
Eu1343 N1340 2.609 . S
Eu1343 N1344 2.657 . S
Eu1343 O1377 2.380 . S
Eu1343 O1378 2.432 . S
Eu1343 O1382 2.558 . S
Eu1343 O1383 2.612 . S
Eu1343 O1385 2.339 . S
Eu1343 O1386 2.563 . S
Eu1343 O1387 2.419 . S
Eu1343 C1407 2.848 . S
N1344 C1336 1.362 . S
N1344 Eu1343 2.657 . S
N1344 C1345 1.334 . S
C1345 N1344 1.334 . S
C1345 C1347 1.413 . S
C1345 H1352 0.929 . S
C1346 C1334 1.392 . S
C1346 C1347 1.367 . S
C1346 H1354 0.930 . S
C1347 C1345 1.413 . S
C1347 C1346 1.367 . S
C1347 H1349 0.930 . S
H1348 C1341 0.930 . S
H1349 C1347 0.930 . S
H1350 C1338 0.930 . S
H1351 C1339 0.930 . S
H1352 C1345 0.929 . S
H1353 C1367 0.930 . S
H1354 C1346 0.930 . S
H1355 C1373 0.930 . S
H1356 C1364 0.929 . S
H1357 C1371 0.930 . S
H1358 C1335 0.931 . S
H1359 C1365 0.930 . S
H1360 C1398 0.930 . S
H1361 C1342 0.930 . S
H1362 C1397 0.931 . S
N1363 Eu1332 2.657 . S
N1363 C1364 1.334 . S
N1363 C1368 1.362 . S
C1364 H1356 0.929 . S
C1364 N1363 1.334 . S
C1364 C1367 1.413 . S
C1365 H1359 0.930 . S
C1365 C1366 1.392 . S
C1365 C1367 1.367 . S
C1366 C1365 1.392 . S
C1366 C1368 1.420 . S
C1366 C1398 1.423 . S
C1367 H1353 0.930 . S
C1367 C1364 1.413 . S
C1367 C1365 1.367 . S
C1368 N1363 1.362 . S
C1368 C1366 1.420 . S
C1368 C1372 1.429 . S
H1369 C1374 0.930 . S
N1370 Eu1332 2.609 . S
N1370 C1372 1.377 . S
N1370 C1373 1.321 . S
C1371 H1357 0.930 . S
C1371 C1373 1.400 . S
C1371 C1374 1.386 . S
C1372 C1368 1.429 . S
C1372 N1370 1.377 . S
C1372 C1375 1.411 . S
C1373 H1355 0.930 . S
C1373 N1370 1.321 . S
C1373 C1371 1.400 . S
C1374 H1369 0.930 . S
C1374 C1371 1.386 . S
C1374 C1375 1.395 . S
C1375 C1372 1.411 . S
C1375 C1374 1.395 . S
C1375 C1397 1.420 . S
O1376 Eu1332 2.558 . S
O1376 C1396 1.257 . S
O1377 Eu1332 2.612 . S
O1377 Eu1343 2.380 . S
O1377 C1388 1.276 . S
O1378 Eu1343 2.432 . S
O1378 C1395 1.264 . S
O1379 Eu1332 2.339 . S
O1379 C1395 1.254 . S
O1380 Eu1332 2.563 . S
O1380 C1388 1.235 . S
O1381 Eu1332 2.419 . S
O1381 C1396 1.249 . S
O1382 Eu1343 2.558 . S
O1382 C1407 1.257 . S
O1383 Eu1332 2.380 . S
O1383 Eu1343 2.612 . S
O1383 C1399 1.276 . S
O1384 Eu1332 2.432 . S
O1384 C1406 1.264 . S
O1385 Eu1343 2.339 . S
O1385 C1406 1.254 . S
O1386 Eu1343 2.563 . S
O1386 C1399 1.235 . S
O1387 Eu1343 2.419 . S
O1387 C1407 1.249 . S
C1388 O1377 1.276 . S
C1388 O1380 1.235 . S
C1389 C1391 1.393 . S
C1389 C1393 1.395 . S
C1389 C1396 1.492 . S
C1390 C1391 1.392 . S
C1390 C1392 1.386 . S
C1391 C1389 1.393 . S
C1391 C1390 1.392 . S
C1391 H1408 0.930 . S
C1392 C1390 1.386 . S
C1392 C1394 1.395 . S
C1392 H1409 0.930 . S
C1393 C1389 1.395 . S
C1393 C1394 1.379 . S
C1393 H1410 0.930 . S
C1394 C1392 1.395 . S
C1394 C1393 1.379 . S
C1394 H1411 0.930 . S
C1395 O1378 1.264 . S
C1395 O1379 1.254 . S
C1396 Eu1332 2.848 . S
C1396 O1376 1.257 . S
C1396 O1381 1.249 . S
C1396 C1389 1.492 . S
C1397 H1362 0.931 . S
C1397 C1375 1.420 . S
C1397 C1398 1.351 . S
C1398 H1360 0.930 . S
C1398 C1366 1.423 . S
C1398 C1397 1.351 . S
C1399 O1383 1.276 . S
C1399 O1386 1.235 . S
C1400 C1401 1.393 . S
C1400 C1404 1.395 . S
C1400 C1407 1.492 . S
C1401 C1400 1.393 . S
C1401 C1402 1.392 . S
C1401 H1412 0.930 . S
C1402 C1401 1.392 . S
C1402 C1403 1.386 . S
C1403 C1402 1.386 . S
C1403 C1405 1.395 . S
C1403 H1413 0.930 . S
C1404 C1400 1.395 . S
C1404 C1405 1.379 . S
C1404 H1414 0.930 . S
C1405 C1403 1.395 . S
C1405 C1404 1.379 . S
C1405 H1415 0.930 . S
C1406 O1384 1.264 . S
C1406 O1385 1.254 . S
C1407 Eu1343 2.848 . S
C1407 O1382 1.257 . S
C1407 O1387 1.249 . S
C1407 C1400 1.492 . S
H1408 C1391 0.930 . S
H1409 C1392 0.930 . S
H1410 C1393 0.930 . S
H1411 C1394 0.930 . S
H1412 C1401 0.930 . S
H1413 C1403 0.930 . S
H1414 C1404 0.930 . S
H1415 C1405 0.930 . S
Eu1416 N1447 2.657 . S
Eu1416 N1454 2.609 . S
Eu1416 O1460 2.558 . S
Eu1416 O1461 2.612 . S
Eu1416 O1463 2.339 . S
Eu1416 O1464 2.563 . S
Eu1416 O1465 2.419 . S
Eu1416 O1467 2.380 . S
Eu1416 O1468 2.432 . S
Eu1416 C1480 2.848 . S
C1417 C1420 1.429 . S
C1417 C1421 1.411 . S
C1417 N1424 1.377 . S
C1418 C1420 1.420 . S
C1418 C1422 1.423 . S
C1418 C1430 1.392 . S
C1419 C1421 1.420 . S
C1419 C1422 1.351 . S
C1419 H1442 0.931 . S
C1420 C1417 1.429 . S
C1420 C1418 1.420 . S
C1420 N1428 1.362 . S
C1421 C1417 1.411 . S
C1421 C1419 1.420 . S
C1421 C1426 1.395 . S
C1422 C1418 1.423 . S
C1422 C1419 1.351 . S
C1422 H1434 0.930 . S
C1423 C1425 1.400 . S
C1423 C1426 1.386 . S
C1423 H1435 0.930 . S
N1424 C1417 1.377 . S
N1424 C1425 1.321 . S
N1424 Eu1427 2.609 . S
C1425 C1423 1.400 . S
C1425 N1424 1.321 . S
C1425 H1432 0.930 . S
C1426 C1421 1.395 . S
C1426 C1423 1.386 . S
C1426 H1445 0.930 . S
Eu1427 N1424 2.609 . S
Eu1427 N1428 2.657 . S
Eu1427 O1461 2.380 . S
Eu1427 O1462 2.432 . S
Eu1427 O1466 2.558 . S
Eu1427 O1467 2.612 . S
Eu1427 O1469 2.339 . S
Eu1427 O1470 2.563 . S
Eu1427 O1471 2.419 . S
Eu1427 C1491 2.848 . S
N1428 C1420 1.362 . S
N1428 Eu1427 2.657 . S
N1428 C1429 1.334 . S
C1429 N1428 1.334 . S
C1429 C1431 1.413 . S
C1429 H1436 0.929 . S
C1430 C1418 1.392 . S
C1430 C1431 1.367 . S
C1430 H1438 0.930 . S
C1431 C1429 1.413 . S
C1431 C1430 1.367 . S
C1431 H1433 0.930 . S
H1432 C1425 0.930 . S
H1433 C1431 0.930 . S
H1434 C1422 0.930 . S
H1435 C1423 0.930 . S
H1436 C1429 0.929 . S
H1437 C1451 0.930 . S
H1438 C1430 0.930 . S
H1439 C1457 0.930 . S
H1440 C1448 0.929 . S
H1441 C1455 0.930 . S
H1442 C1419 0.931 . S
H1443 C1449 0.930 . S
H1444 C1482 0.930 . S
H1445 C1426 0.930 . S
H1446 C1481 0.931 . S
N1447 Eu1416 2.657 . S
N1447 C1448 1.334 . S
N1447 C1452 1.362 . S
C1448 H1440 0.929 . S
C1448 N1447 1.334 . S
C1448 C1451 1.413 . S
C1449 H1443 0.930 . S
C1449 C1450 1.392 . S
C1449 C1451 1.367 . S
C1450 C1449 1.392 . S
C1450 C1452 1.420 . S
C1450 C1482 1.423 . S
C1451 H1437 0.930 . S
C1451 C1448 1.413 . S
C1451 C1449 1.367 . S
C1452 N1447 1.362 . S
C1452 C1450 1.420 . S
C1452 C1456 1.429 . S
H1453 C1458 0.930 . S
N1454 Eu1416 2.609 . S
N1454 C1456 1.377 . S
N1454 C1457 1.321 . S
C1455 H1441 0.930 . S
C1455 C1457 1.400 . S
C1455 C1458 1.386 . S
C1456 C1452 1.429 . S
C1456 N1454 1.377 . S
C1456 C1459 1.411 . S
C1457 H1439 0.930 . S
C1457 N1454 1.321 . S
C1457 C1455 1.400 . S
C1458 H1453 0.930 . S
C1458 C1455 1.386 . S
C1458 C1459 1.395 . S
C1459 C1456 1.411 . S
C1459 C1458 1.395 . S
C1459 C1481 1.420 . S
O1460 Eu1416 2.558 . S
O1460 C1480 1.257 . S
O1461 Eu1416 2.612 . S
O1461 Eu1427 2.380 . S
O1461 C1472 1.276 . S
O1462 Eu1427 2.432 . S
O1462 C1479 1.264 . S
O1463 Eu1416 2.339 . S
O1463 C1479 1.254 . S
O1464 Eu1416 2.563 . S
O1464 C1472 1.235 . S
O1465 Eu1416 2.419 . S
O1465 C1480 1.249 . S
O1466 Eu1427 2.558 . S
O1466 C1491 1.257 . S
O1467 Eu1416 2.380 . S
O1467 Eu1427 2.612 . S
O1467 C1483 1.276 . S
O1468 Eu1416 2.432 . S
O1468 C1490 1.264 . S
O1469 Eu1427 2.339 . S
O1469 C1490 1.254 . S
O1470 Eu1427 2.563 . S
O1470 C1483 1.235 . S
O1471 Eu1427 2.419 . S
O1471 C1491 1.249 . S
C1472 O1461 1.276 . S
C1472 O1464 1.235 . S
C1473 C1475 1.393 . S
C1473 C1477 1.395 . S
C1473 C1480 1.492 . S
C1474 C1475 1.392 . S
C1474 C1476 1.386 . S
C1475 C1473 1.393 . S
C1475 C1474 1.392 . S
C1475 H1492 0.930 . S
C1476 C1474 1.386 . S
C1476 C1478 1.395 . S
C1476 H1493 0.930 . S
C1477 C1473 1.395 . S
C1477 C1478 1.379 . S
C1477 H1494 0.930 . S
C1478 C1476 1.395 . S
C1478 C1477 1.379 . S
C1478 H1495 0.930 . S
C1479 O1462 1.264 . S
C1479 O1463 1.254 . S
C1480 Eu1416 2.848 . S
C1480 O1460 1.257 . S
C1480 O1465 1.249 . S
C1480 C1473 1.492 . S
C1481 H1446 0.931 . S
C1481 C1459 1.420 . S
C1481 C1482 1.351 . S
C1482 H1444 0.930 . S
C1482 C1450 1.423 . S
C1482 C1481 1.351 . S
C1483 O1467 1.276 . S
C1483 O1470 1.235 . S
C1484 C1485 1.393 . S
C1484 C1488 1.395 . S
C1484 C1491 1.492 . S
C1485 C1484 1.393 . S
C1485 C1486 1.392 . S
C1485 H1496 0.930 . S
C1486 C1485 1.392 . S
C1486 C1487 1.386 . S
C1487 C1486 1.386 . S
C1487 C1489 1.395 . S
C1487 H1497 0.930 . S
C1488 C1484 1.395 . S
C1488 C1489 1.379 . S
C1488 H1498 0.930 . S
C1489 C1487 1.395 . S
C1489 C1488 1.379 . S
C1489 H1499 0.930 . S
C1490 O1468 1.264 . S
C1490 O1469 1.254 . S
C1491 Eu1427 2.848 . S
C1491 O1466 1.257 . S
C1491 O1471 1.249 . S
C1491 C1484 1.492 . S
H1492 C1475 0.930 . S
H1493 C1476 0.930 . S
H1494 C1477 0.930 . S
H1495 C1478 0.930 . S
H1496 C1485 0.930 . S
H1497 C1487 0.930 . S
H1498 C1488 0.930 . S
H1499 C1489 0.930 . S
Eu1500 N1531 2.657 . S
Eu1500 N1538 2.609 . S
Eu1500 O1544 2.558 . S
Eu1500 O1545 2.612 . S
Eu1500 O1547 2.339 . S
Eu1500 O1548 2.563 . S
Eu1500 O1549 2.419 . S
Eu1500 O1551 2.380 . S
Eu1500 O1552 2.432 . S
Eu1500 C1564 2.848 . S
C1501 C1504 1.429 . S
C1501 C1505 1.411 . S
C1501 N1508 1.377 . S
C1502 C1504 1.420 . S
C1502 C1506 1.423 . S
C1502 C1514 1.392 . S
C1503 C1505 1.420 . S
C1503 C1506 1.351 . S
C1503 H1526 0.931 . S
C1504 C1501 1.429 . S
C1504 C1502 1.420 . S
C1504 N1512 1.362 . S
C1505 C1501 1.411 . S
C1505 C1503 1.420 . S
C1505 C1510 1.395 . S
C1506 C1502 1.423 . S
C1506 C1503 1.351 . S
C1506 H1518 0.930 . S
C1507 C1509 1.400 . S
C1507 C1510 1.386 . S
C1507 H1519 0.930 . S
N1508 C1501 1.377 . S
N1508 C1509 1.321 . S
N1508 Eu1511 2.609 . S
C1509 C1507 1.400 . S
C1509 N1508 1.321 . S
C1509 H1516 0.930 . S
C1510 C1505 1.395 . S
C1510 C1507 1.386 . S
C1510 H1529 0.930 . S
Eu1511 N1508 2.609 . S
Eu1511 N1512 2.657 . S
Eu1511 O1545 2.380 . S
Eu1511 O1546 2.432 . S
Eu1511 O1550 2.558 . S
Eu1511 O1551 2.612 . S
Eu1511 O1553 2.339 . S
Eu1511 O1554 2.563 . S
Eu1511 O1555 2.419 . S
Eu1511 C1575 2.848 . S
N1512 C1504 1.362 . S
N1512 Eu1511 2.657 . S
N1512 C1513 1.334 . S
C1513 N1512 1.334 . S
C1513 C1515 1.413 . S
C1513 H1520 0.929 . S
C1514 C1502 1.392 . S
C1514 C1515 1.367 . S
C1514 H1522 0.930 . S
C1515 C1513 1.413 . S
C1515 C1514 1.367 . S
C1515 H1517 0.930 . S
H1516 C1509 0.930 . S
H1517 C1515 0.930 . S
H1518 C1506 0.930 . S
H1519 C1507 0.930 . S
H1520 C1513 0.929 . S
H1521 C1535 0.930 . S
H1522 C1514 0.930 . S
H1523 C1541 0.930 . S
H1524 C1532 0.929 . S
H1525 C1539 0.930 . S
H1526 C1503 0.931 . S
H1527 C1533 0.930 . S
H1528 C1566 0.930 . S
H1529 C1510 0.930 . S
H1530 C1565 0.931 . S
N1531 Eu1500 2.657 . S
N1531 C1532 1.334 . S
N1531 C1536 1.362 . S
C1532 H1524 0.929 . S
C1532 N1531 1.334 . S
C1532 C1535 1.413 . S
C1533 H1527 0.930 . S
C1533 C1534 1.392 . S
C1533 C1535 1.367 . S
C1534 C1533 1.392 . S
C1534 C1536 1.420 . S
C1534 C1566 1.423 . S
C1535 H1521 0.930 . S
C1535 C1532 1.413 . S
C1535 C1533 1.367 . S
C1536 N1531 1.362 . S
C1536 C1534 1.420 . S
C1536 C1540 1.429 . S
H1537 C1542 0.930 . S
N1538 Eu1500 2.609 . S
N1538 C1540 1.377 . S
N1538 C1541 1.321 . S
C1539 H1525 0.930 . S
C1539 C1541 1.400 . S
C1539 C1542 1.386 . S
C1540 C1536 1.429 . S
C1540 N1538 1.377 . S
C1540 C1543 1.411 . S
C1541 H1523 0.930 . S
C1541 N1538 1.321 . S
C1541 C1539 1.400 . S
C1542 H1537 0.930 . S
C1542 C1539 1.386 . S
C1542 C1543 1.395 . S
C1543 C1540 1.411 . S
C1543 C1542 1.395 . S
C1543 C1565 1.420 . S
O1544 Eu1500 2.558 . S
O1544 C1564 1.257 . S
O1545 Eu1500 2.612 . S
O1545 Eu1511 2.380 . S
O1545 C1556 1.276 . S
O1546 Eu1511 2.432 . S
O1546 C1563 1.264 . S
O1547 Eu1500 2.339 . S
O1547 C1563 1.254 . S
O1548 Eu1500 2.563 . S
O1548 C1556 1.235 . S
O1549 Eu1500 2.419 . S
O1549 C1564 1.249 . S
O1550 Eu1511 2.558 . S
O1550 C1575 1.257 . S
O1551 Eu1500 2.380 . S
O1551 Eu1511 2.612 . S
O1551 C1567 1.276 . S
O1552 Eu1500 2.432 . S
O1552 C1574 1.264 . S
O1553 Eu1511 2.339 . S
O1553 C1574 1.254 . S
O1554 Eu1511 2.563 . S
O1554 C1567 1.235 . S
O1555 Eu1511 2.419 . S
O1555 C1575 1.249 . S
C1556 O1545 1.276 . S
C1556 O1548 1.235 . S
C1557 C1559 1.393 . S
C1557 C1561 1.395 . S
C1557 C1564 1.492 . S
C1558 C1559 1.392 . S
C1558 C1560 1.386 . S
C1559 C1557 1.393 . S
C1559 C1558 1.392 . S
C1559 H1576 0.930 . S
C1560 C1558 1.386 . S
C1560 C1562 1.395 . S
C1560 H1577 0.930 . S
C1561 C1557 1.395 . S
C1561 C1562 1.379 . S
C1561 H1578 0.930 . S
C1562 C1560 1.395 . S
C1562 C1561 1.379 . S
C1562 H1579 0.930 . S
C1563 O1546 1.264 . S
C1563 O1547 1.254 . S
C1564 Eu1500 2.848 . S
C1564 O1544 1.257 . S
C1564 O1549 1.249 . S
C1564 C1557 1.492 . S
C1565 H1530 0.931 . S
C1565 C1543 1.420 . S
C1565 C1566 1.351 . S
C1566 H1528 0.930 . S
C1566 C1534 1.423 . S
C1566 C1565 1.351 . S
C1567 O1551 1.276 . S
C1567 O1554 1.235 . S
C1568 C1569 1.393 . S
C1568 C1572 1.395 . S
C1568 C1575 1.492 . S
C1569 C1568 1.393 . S
C1569 C1570 1.392 . S
C1569 H1580 0.930 . S
C1570 C1569 1.392 . S
C1570 C1571 1.386 . S
C1571 C1570 1.386 . S
C1571 C1573 1.395 . S
C1571 H1581 0.930 . S
C1572 C1568 1.395 . S
C1572 C1573 1.379 . S
C1572 H1582 0.930 . S
C1573 C1571 1.395 . S
C1573 C1572 1.379 . S
C1573 H1583 0.930 . S
C1574 O1552 1.264 . S
C1574 O1553 1.254 . S
C1575 Eu1511 2.848 . S
C1575 O1550 1.257 . S
C1575 O1555 1.249 . S
C1575 C1568 1.492 . S
H1576 C1559 0.930 . S
H1577 C1560 0.930 . S
H1578 C1561 0.930 . S
H1579 C1562 0.930 . S
H1580 C1569 0.930 . S
H1581 C1571 0.930 . S
H1582 C1572 0.930 . S
H1583 C1573 0.930 . S
Eu1584 N1615 2.657 . S
Eu1584 N1622 2.609 . S
Eu1584 O1628 2.558 . S
Eu1584 O1629 2.612 . S
Eu1584 O1631 2.339 . S
Eu1584 O1632 2.563 . S
Eu1584 O1633 2.419 . S
Eu1584 O1635 2.380 . S
Eu1584 O1636 2.432 . S
Eu1584 C1648 2.848 . S
C1585 C1588 1.429 . S
C1585 C1589 1.411 . S
C1585 N1592 1.377 . S
C1586 C1588 1.420 . S
C1586 C1590 1.423 . S
C1586 C1598 1.392 . S
C1587 C1589 1.420 . S
C1587 C1590 1.351 . S
C1587 H1610 0.931 . S
C1588 C1585 1.429 . S
C1588 C1586 1.420 . S
C1588 N1596 1.362 . S
C1589 C1585 1.411 . S
C1589 C1587 1.420 . S
C1589 C1594 1.395 . S
C1590 C1586 1.423 . S
C1590 C1587 1.351 . S
C1590 H1602 0.930 . S
C1591 C1593 1.400 . S
C1591 C1594 1.386 . S
C1591 H1603 0.930 . S
N1592 C1585 1.377 . S
N1592 C1593 1.321 . S
N1592 Eu1595 2.609 . S
C1593 C1591 1.400 . S
C1593 N1592 1.321 . S
C1593 H1600 0.930 . S
C1594 C1589 1.395 . S
C1594 C1591 1.386 . S
C1594 H1613 0.930 . S
Eu1595 N1592 2.609 . S
Eu1595 N1596 2.657 . S
Eu1595 O1629 2.380 . S
Eu1595 O1630 2.432 . S
Eu1595 O1634 2.558 . S
Eu1595 O1635 2.612 . S
Eu1595 O1637 2.339 . S
Eu1595 O1638 2.563 . S
Eu1595 O1639 2.419 . S
Eu1595 C1659 2.848 . S
N1596 C1588 1.362 . S
N1596 Eu1595 2.657 . S
N1596 C1597 1.334 . S
C1597 N1596 1.334 . S
C1597 C1599 1.413 . S
C1597 H1604 0.929 . S
C1598 C1586 1.392 . S
C1598 C1599 1.367 . S
C1598 H1606 0.930 . S
C1599 C1597 1.413 . S
C1599 C1598 1.367 . S
C1599 H1601 0.930 . S
H1600 C1593 0.930 . S
H1601 C1599 0.930 . S
H1602 C1590 0.930 . S
H1603 C1591 0.930 . S
H1604 C1597 0.929 . S
H1605 C1619 0.930 . S
H1606 C1598 0.930 . S
H1607 C1625 0.930 . S
H1608 C1616 0.929 . S
H1609 C1623 0.930 . S
H1610 C1587 0.931 . S
H1611 C1617 0.930 . S
H1612 C1650 0.930 . S
H1613 C1594 0.930 . S
H1614 C1649 0.931 . S
N1615 Eu1584 2.657 . S
N1615 C1616 1.334 . S
N1615 C1620 1.362 . S
C1616 H1608 0.929 . S
C1616 N1615 1.334 . S
C1616 C1619 1.413 . S
C1617 H1611 0.930 . S
C1617 C1618 1.392 . S
C1617 C1619 1.367 . S
C1618 C1617 1.392 . S
C1618 C1620 1.420 . S
C1618 C1650 1.423 . S
C1619 H1605 0.930 . S
C1619 C1616 1.413 . S
C1619 C1617 1.367 . S
C1620 N1615 1.362 . S
C1620 C1618 1.420 . S
C1620 C1624 1.429 . S
H1621 C1626 0.930 . S
N1622 Eu1584 2.609 . S
N1622 C1624 1.377 . S
N1622 C1625 1.321 . S
C1623 H1609 0.930 . S
C1623 C1625 1.400 . S
C1623 C1626 1.386 . S
C1624 C1620 1.429 . S
C1624 N1622 1.377 . S
C1624 C1627 1.411 . S
C1625 H1607 0.930 . S
C1625 N1622 1.321 . S
C1625 C1623 1.400 . S
C1626 H1621 0.930 . S
C1626 C1623 1.386 . S
C1626 C1627 1.395 . S
C1627 C1624 1.411 . S
C1627 C1626 1.395 . S
C1627 C1649 1.420 . S
O1628 Eu1584 2.558 . S
O1628 C1648 1.257 . S
O1629 Eu1584 2.612 . S
O1629 Eu1595 2.380 . S
O1629 C1640 1.276 . S
O1630 Eu1595 2.432 . S
O1630 C1647 1.264 . S
O1631 Eu1584 2.339 . S
O1631 C1647 1.254 . S
O1632 Eu1584 2.563 . S
O1632 C1640 1.235 . S
O1633 Eu1584 2.419 . S
O1633 C1648 1.249 . S
O1634 Eu1595 2.558 . S
O1634 C1659 1.257 . S
O1635 Eu1584 2.380 . S
O1635 Eu1595 2.612 . S
O1635 C1651 1.276 . S
O1636 Eu1584 2.432 . S
O1636 C1658 1.264 . S
O1637 Eu1595 2.339 . S
O1637 C1658 1.254 . S
O1638 Eu1595 2.563 . S
O1638 C1651 1.235 . S
O1639 Eu1595 2.419 . S
O1639 C1659 1.249 . S
C1640 O1629 1.276 . S
C1640 O1632 1.235 . S
C1641 C1643 1.393 . S
C1641 C1645 1.395 . S
C1641 C1648 1.492 . S
C1642 C1643 1.392 . S
C1642 C1644 1.386 . S
C1643 C1641 1.393 . S
C1643 C1642 1.392 . S
C1643 H1660 0.930 . S
C1644 C1642 1.386 . S
C1644 C1646 1.395 . S
C1644 H1661 0.930 . S
C1645 C1641 1.395 . S
C1645 C1646 1.379 . S
C1645 H1662 0.930 . S
C1646 C1644 1.395 . S
C1646 C1645 1.379 . S
C1646 H1663 0.930 . S
C1647 O1630 1.264 . S
C1647 O1631 1.254 . S
C1648 Eu1584 2.848 . S
C1648 O1628 1.257 . S
C1648 O1633 1.249 . S
C1648 C1641 1.492 . S
C1649 H1614 0.931 . S
C1649 C1627 1.420 . S
C1649 C1650 1.351 . S
C1650 H1612 0.930 . S
C1650 C1618 1.423 . S
C1650 C1649 1.351 . S
C1651 O1635 1.276 . S
C1651 O1638 1.235 . S
C1652 C1653 1.393 . S
C1652 C1656 1.395 . S
C1652 C1659 1.492 . S
C1653 C1652 1.393 . S
C1653 C1654 1.392 . S
C1653 H1664 0.930 . S
C1654 C1653 1.392 . S
C1654 C1655 1.386 . S
C1655 C1654 1.386 . S
C1655 C1657 1.395 . S
C1655 H1665 0.930 . S
C1656 C1652 1.395 . S
C1656 C1657 1.379 . S
C1656 H1666 0.930 . S
C1657 C1655 1.395 . S
C1657 C1656 1.379 . S
C1657 H1667 0.930 . S
C1658 O1636 1.264 . S
C1658 O1637 1.254 . S
C1659 Eu1595 2.848 . S
C1659 O1634 1.257 . S
C1659 O1639 1.249 . S
C1659 C1652 1.492 . S
H1660 C1643 0.930 . S
H1661 C1644 0.930 . S
H1662 C1645 0.930 . S
H1663 C1646 0.930 . S
H1664 C1653 0.930 . S
H1665 C1655 0.930 . S
H1666 C1656 0.930 . S
H1667 C1657 0.930 . S
Eu1668 N1699 2.657 . S
Eu1668 N1706 2.609 . S
Eu1668 O1712 2.558 . S
Eu1668 O1713 2.612 . S
Eu1668 O1715 2.339 . S
Eu1668 O1716 2.563 . S
Eu1668 O1717 2.419 . S
Eu1668 O1719 2.380 . S
Eu1668 O1720 2.432 . S
Eu1668 C1732 2.848 . S
C1669 C1672 1.429 . S
C1669 C1673 1.411 . S
C1669 N1676 1.377 . S
C1670 C1672 1.420 . S
C1670 C1674 1.423 . S
C1670 C1682 1.392 . S
C1671 C1673 1.420 . S
C1671 C1674 1.351 . S
C1671 H1694 0.931 . S
C1672 C1669 1.429 . S
C1672 C1670 1.420 . S
C1672 N1680 1.362 . S
C1673 C1669 1.411 . S
C1673 C1671 1.420 . S
C1673 C1678 1.395 . S
C1674 C1670 1.423 . S
C1674 C1671 1.351 . S
C1674 H1686 0.930 . S
C1675 C1677 1.400 . S
C1675 C1678 1.386 . S
C1675 H1687 0.930 . S
N1676 C1669 1.377 . S
N1676 C1677 1.321 . S
N1676 Eu1679 2.609 . S
C1677 C1675 1.400 . S
C1677 N1676 1.321 . S
C1677 H1684 0.930 . S
C1678 C1673 1.395 . S
C1678 C1675 1.386 . S
C1678 H1697 0.930 . S
Eu1679 N1676 2.609 . S
Eu1679 N1680 2.657 . S
Eu1679 O1713 2.380 . S
Eu1679 O1714 2.432 . S
Eu1679 O1718 2.558 . S
Eu1679 O1719 2.612 . S
Eu1679 O1721 2.339 . S
Eu1679 O1722 2.563 . S
Eu1679 O1723 2.419 . S
Eu1679 C1743 2.848 . S
N1680 C1672 1.362 . S
N1680 Eu1679 2.657 . S
N1680 C1681 1.334 . S
C1681 N1680 1.334 . S
C1681 C1683 1.413 . S
C1681 H1688 0.929 . S
C1682 C1670 1.392 . S
C1682 C1683 1.367 . S
C1682 H1690 0.930 . S
C1683 C1681 1.413 . S
C1683 C1682 1.367 . S
C1683 H1685 0.930 . S
H1684 C1677 0.930 . S
H1685 C1683 0.930 . S
H1686 C1674 0.930 . S
H1687 C1675 0.930 . S
H1688 C1681 0.929 . S
H1689 C1703 0.930 . S
H1690 C1682 0.930 . S
H1691 C1709 0.930 . S
H1692 C1700 0.929 . S
H1693 C1707 0.930 . S
H1694 C1671 0.931 . S
H1695 C1701 0.930 . S
H1696 C1734 0.930 . S
H1697 C1678 0.930 . S
H1698 C1733 0.931 . S
N1699 Eu1668 2.657 . S
N1699 C1700 1.334 . S
N1699 C1704 1.362 . S
C1700 H1692 0.929 . S
C1700 N1699 1.334 . S
C1700 C1703 1.413 . S
C1701 H1695 0.930 . S
C1701 C1702 1.392 . S
C1701 C1703 1.367 . S
C1702 C1701 1.392 . S
C1702 C1704 1.420 . S
C1702 C1734 1.423 . S
C1703 H1689 0.930 . S
C1703 C1700 1.413 . S
C1703 C1701 1.367 . S
C1704 N1699 1.362 . S
C1704 C1702 1.420 . S
C1704 C1708 1.429 . S
H1705 C1710 0.930 . S
N1706 Eu1668 2.609 . S
N1706 C1708 1.377 . S
N1706 C1709 1.321 . S
C1707 H1693 0.930 . S
C1707 C1709 1.400 . S
C1707 C1710 1.386 . S
C1708 C1704 1.429 . S
C1708 N1706 1.377 . S
C1708 C1711 1.411 . S
C1709 H1691 0.930 . S
C1709 N1706 1.321 . S
C1709 C1707 1.400 . S
C1710 H1705 0.930 . S
C1710 C1707 1.386 . S
C1710 C1711 1.395 . S
C1711 C1708 1.411 . S
C1711 C1710 1.395 . S
C1711 C1733 1.420 . S
O1712 Eu1668 2.558 . S
O1712 C1732 1.257 . S
O1713 Eu1668 2.612 . S
O1713 Eu1679 2.380 . S
O1713 C1724 1.276 . S
O1714 Eu1679 2.432 . S
O1714 C1731 1.264 . S
O1715 Eu1668 2.339 . S
O1715 C1731 1.254 . S
O1716 Eu1668 2.563 . S
O1716 C1724 1.235 . S
O1717 Eu1668 2.419 . S
O1717 C1732 1.249 . S
O1718 Eu1679 2.558 . S
O1718 C1743 1.257 . S
O1719 Eu1668 2.380 . S
O1719 Eu1679 2.612 . S
O1719 C1735 1.276 . S
O1720 Eu1668 2.432 . S
O1720 C1742 1.264 . S
O1721 Eu1679 2.339 . S
O1721 C1742 1.254 . S
O1722 Eu1679 2.563 . S
O1722 C1735 1.235 . S
O1723 Eu1679 2.419 . S
O1723 C1743 1.249 . S
C1724 O1713 1.276 . S
C1724 O1716 1.235 . S
C1725 C1727 1.393 . S
C1725 C1729 1.395 . S
C1725 C1732 1.492 . S
C1726 C1727 1.392 . S
C1726 C1728 1.386 . S
C1727 C1725 1.393 . S
C1727 C1726 1.392 . S
C1727 H1744 0.930 . S
C1728 C1726 1.386 . S
C1728 C1730 1.395 . S
C1728 H1745 0.930 . S
C1729 C1725 1.395 . S
C1729 C1730 1.379 . S
C1729 H1746 0.930 . S
C1730 C1728 1.395 . S
C1730 C1729 1.379 . S
C1730 H1747 0.930 . S
C1731 O1714 1.264 . S
C1731 O1715 1.254 . S
C1732 Eu1668 2.848 . S
C1732 O1712 1.257 . S
C1732 O1717 1.249 . S
C1732 C1725 1.492 . S
C1733 H1698 0.931 . S
C1733 C1711 1.420 . S
C1733 C1734 1.351 . S
C1734 H1696 0.930 . S
C1734 C1702 1.423 . S
C1734 C1733 1.351 . S
C1735 O1719 1.276 . S
C1735 O1722 1.235 . S
C1736 C1737 1.393 . S
C1736 C1740 1.395 . S
C1736 C1743 1.492 . S
C1737 C1736 1.393 . S
C1737 C1738 1.392 . S
C1737 H1748 0.930 . S
C1738 C1737 1.392 . S
C1738 C1739 1.386 . S
C1739 C1738 1.386 . S
C1739 C1741 1.395 . S
C1739 H1749 0.930 . S
C1740 C1736 1.395 . S
C1740 C1741 1.379 . S
C1740 H1750 0.930 . S
C1741 C1739 1.395 . S
C1741 C1740 1.379 . S
C1741 H1751 0.930 . S
C1742 O1720 1.264 . S
C1742 O1721 1.254 . S
C1743 Eu1679 2.848 . S
C1743 O1718 1.257 . S
C1743 O1723 1.249 . S
C1743 C1736 1.492 . S
H1744 C1727 0.930 . S
H1745 C1728 0.930 . S
H1746 C1729 0.930 . S
H1747 C1730 0.930 . S
H1748 C1737 0.930 . S
H1749 C1739 0.930 . S
H1750 C1740 0.930 . S
H1751 C1741 0.930 . S
Eu1752 N1783 2.657 . S
Eu1752 N1790 2.609 . S
Eu1752 O1796 2.558 . S
Eu1752 O1797 2.612 . S
Eu1752 O1799 2.339 . S
Eu1752 O1800 2.563 . S
Eu1752 O1801 2.419 . S
Eu1752 O1803 2.380 . S
Eu1752 O1804 2.432 . S
Eu1752 C1816 2.848 . S
C1753 C1756 1.429 . S
C1753 C1757 1.411 . S
C1753 N1760 1.377 . S
C1754 C1756 1.420 . S
C1754 C1758 1.423 . S
C1754 C1766 1.392 . S
C1755 C1757 1.420 . S
C1755 C1758 1.351 . S
C1755 H1778 0.931 . S
C1756 C1753 1.429 . S
C1756 C1754 1.420 . S
C1756 N1764 1.362 . S
C1757 C1753 1.411 . S
C1757 C1755 1.420 . S
C1757 C1762 1.395 . S
C1758 C1754 1.423 . S
C1758 C1755 1.351 . S
C1758 H1770 0.930 . S
C1759 C1761 1.400 . S
C1759 C1762 1.386 . S
C1759 H1771 0.930 . S
N1760 C1753 1.377 . S
N1760 C1761 1.321 . S
N1760 Eu1763 2.609 . S
C1761 C1759 1.400 . S
C1761 N1760 1.321 . S
C1761 H1768 0.930 . S
C1762 C1757 1.395 . S
C1762 C1759 1.386 . S
C1762 H1781 0.930 . S
Eu1763 N1760 2.609 . S
Eu1763 N1764 2.657 . S
Eu1763 O1797 2.380 . S
Eu1763 O1798 2.432 . S
Eu1763 O1802 2.558 . S
Eu1763 O1803 2.612 . S
Eu1763 O1805 2.339 . S
Eu1763 O1806 2.563 . S
Eu1763 O1807 2.419 . S
Eu1763 C1827 2.848 . S
N1764 C1756 1.362 . S
N1764 Eu1763 2.657 . S
N1764 C1765 1.334 . S
C1765 N1764 1.334 . S
C1765 C1767 1.413 . S
C1765 H1772 0.929 . S
C1766 C1754 1.392 . S
C1766 C1767 1.367 . S
C1766 H1774 0.930 . S
C1767 C1765 1.413 . S
C1767 C1766 1.367 . S
C1767 H1769 0.930 . S
H1768 C1761 0.930 . S
H1769 C1767 0.930 . S
H1770 C1758 0.930 . S
H1771 C1759 0.930 . S
H1772 C1765 0.929 . S
H1773 C1787 0.930 . S
H1774 C1766 0.930 . S
H1775 C1793 0.930 . S
H1776 C1784 0.929 . S
H1777 C1791 0.930 . S
H1778 C1755 0.931 . S
H1779 C1785 0.930 . S
H1780 C1818 0.930 . S
H1781 C1762 0.930 . S
H1782 C1817 0.931 . S
N1783 Eu1752 2.657 . S
N1783 C1784 1.334 . S
N1783 C1788 1.362 . S
C1784 H1776 0.929 . S
C1784 N1783 1.334 . S
C1784 C1787 1.413 . S
C1785 H1779 0.930 . S
C1785 C1786 1.392 . S
C1785 C1787 1.367 . S
C1786 C1785 1.392 . S
C1786 C1788 1.420 . S
C1786 C1818 1.423 . S
C1787 H1773 0.930 . S
C1787 C1784 1.413 . S
C1787 C1785 1.367 . S
C1788 N1783 1.362 . S
C1788 C1786 1.420 . S
C1788 C1792 1.429 . S
H1789 C1794 0.930 . S
N1790 Eu1752 2.609 . S
N1790 C1792 1.377 . S
N1790 C1793 1.321 . S
C1791 H1777 0.930 . S
C1791 C1793 1.400 . S
C1791 C1794 1.386 . S
C1792 C1788 1.429 . S
C1792 N1790 1.377 . S
C1792 C1795 1.411 . S
C1793 H1775 0.930 . S
C1793 N1790 1.321 . S
C1793 C1791 1.400 . S
C1794 H1789 0.930 . S
C1794 C1791 1.386 . S
C1794 C1795 1.395 . S
C1795 C1792 1.411 . S
C1795 C1794 1.395 . S
C1795 C1817 1.420 . S
O1796 Eu1752 2.558 . S
O1796 C1816 1.257 . S
O1797 Eu1752 2.612 . S
O1797 Eu1763 2.380 . S
O1797 C1808 1.276 . S
O1798 Eu1763 2.432 . S
O1798 C1815 1.264 . S
O1799 Eu1752 2.339 . S
O1799 C1815 1.254 . S
O1800 Eu1752 2.563 . S
O1800 C1808 1.235 . S
O1801 Eu1752 2.419 . S
O1801 C1816 1.249 . S
O1802 Eu1763 2.558 . S
O1802 C1827 1.257 . S
O1803 Eu1752 2.380 . S
O1803 Eu1763 2.612 . S
O1803 C1819 1.276 . S
O1804 Eu1752 2.432 . S
O1804 C1826 1.264 . S
O1805 Eu1763 2.339 . S
O1805 C1826 1.254 . S
O1806 Eu1763 2.563 . S
O1806 C1819 1.235 . S
O1807 Eu1763 2.419 . S
O1807 C1827 1.249 . S
C1808 O1797 1.276 . S
C1808 O1800 1.235 . S
C1809 C1811 1.393 . S
C1809 C1813 1.395 . S
C1809 C1816 1.492 . S
C1810 C1811 1.392 . S
C1810 C1812 1.386 . S
C1811 C1809 1.393 . S
C1811 C1810 1.392 . S
C1811 H1828 0.930 . S
C1812 C1810 1.386 . S
C1812 C1814 1.395 . S
C1812 H1829 0.930 . S
C1813 C1809 1.395 . S
C1813 C1814 1.379 . S
C1813 H1830 0.930 . S
C1814 C1812 1.395 . S
C1814 C1813 1.379 . S
C1814 H1831 0.930 . S
C1815 O1798 1.264 . S
C1815 O1799 1.254 . S
C1816 Eu1752 2.848 . S
C1816 O1796 1.257 . S
C1816 O1801 1.249 . S
C1816 C1809 1.492 . S
C1817 H1782 0.931 . S
C1817 C1795 1.420 . S
C1817 C1818 1.351 . S
C1818 H1780 0.930 . S
C1818 C1786 1.423 . S
C1818 C1817 1.351 . S
C1819 O1803 1.276 . S
C1819 O1806 1.235 . S
C1820 C1821 1.393 . S
C1820 C1824 1.395 . S
C1820 C1827 1.492 . S
C1821 C1820 1.393 . S
C1821 C1822 1.392 . S
C1821 H1832 0.930 . S
C1822 C1821 1.392 . S
C1822 C1823 1.386 . S
C1823 C1822 1.386 . S
C1823 C1825 1.395 . S
C1823 H1833 0.930 . S
C1824 C1820 1.395 . S
C1824 C1825 1.379 . S
C1824 H1834 0.930 . S
C1825 C1823 1.395 . S
C1825 C1824 1.379 . S
C1825 H1835 0.930 . S
C1826 O1804 1.264 . S
C1826 O1805 1.254 . S
C1827 Eu1763 2.848 . S
C1827 O1802 1.257 . S
C1827 O1807 1.249 . S
C1827 C1820 1.492 . S
H1828 C1811 0.930 . S
H1829 C1812 0.930 . S
H1830 C1813 0.930 . S
H1831 C1814 0.930 . S
H1832 C1821 0.930 . S
H1833 C1823 0.930 . S
H1834 C1824 0.930 . S
H1835 C1825 0.930 . S
C1836 C1837 1.387 . S
C1836 H1840 0.950 . S
C1836 C1845 1.390 . S
C1837 C1836 1.387 . S
C1837 C1839 1.387 . S
H1838 C1845 0.950 . S
C1839 C1837 1.387 . S
C1839 C1841 1.390 . S
C1839 H1843 0.950 . S
H1840 C1836 0.950 . S
C1841 C1839 1.390 . S
C1841 C1842 1.387 . S
C1841 H1844 0.950 1_554 S
C1842 C1841 1.387 . S
C1842 C1845 1.387 . S
H1843 C1839 0.950 . S
H1844 C1841 0.950 1_556 S
C1845 C1836 1.390 . S
C1845 H1838 0.950 . S
C1845 C1842 1.387 . S
C1846 C1847 1.387 . S
C1846 H1850 0.950 . S
C1846 C1855 1.390 . S
C1847 C1846 1.387 . S
C1847 C1849 1.387 . S
H1848 C1855 0.950 . S
C1849 C1847 1.387 . S
C1849 C1851 1.390 . S
C1849 H1853 0.950 . S
H1850 C1846 0.950 . S
C1851 C1849 1.390 . S
C1851 C1852 1.387 . S
C1851 H1854 0.950 . S
C1852 C1851 1.387 . S
C1852 C1855 1.387 . S
H1853 C1849 0.950 . S
H1854 C1851 0.950 . S
C1855 C1846 1.390 . S
C1855 H1848 0.950 . S
C1855 C1852 1.387 . S
C1856 C1857 1.387 . S
C1856 H1860 0.950 . S
C1856 C1865 1.390 . S
C1857 C1856 1.387 . S
C1857 C1859 1.387 . S
H1858 C1865 0.950 . S
C1859 C1857 1.387 . S
C1859 C1861 1.390 . S
C1859 H1863 0.950 . S
H1860 C1856 0.950 . S
C1861 C1859 1.390 . S
C1861 C1862 1.387 . S
C1861 H1864 0.950 . S
C1862 C1861 1.387 . S
C1862 C1865 1.387 . S
H1863 C1859 0.950 . S
H1864 C1861 0.950 . S
C1865 C1856 1.390 . S
C1865 H1858 0.950 . S
C1865 C1862 1.387 . S
C1866 C1867 1.387 . S
C1866 H1870 0.950 . S
C1866 C1875 1.390 . S
C1867 C1866 1.387 . S
C1867 C1869 1.387 . S
H1868 C1875 0.950 . S
C1869 C1867 1.387 . S
C1869 C1871 1.390 . S
C1869 H1873 0.950 . S
H1870 C1866 0.950 . S
C1871 C1869 1.390 . S
C1871 C1872 1.387 . S
C1871 H1874 0.950 . S
C1872 C1871 1.387 . S
C1872 C1875 1.387 . S
H1873 C1869 0.950 . S
H1874 C1871 0.950 . S
C1875 C1866 1.390 . S
C1875 H1868 0.950 . S
C1875 C1872 1.387 . S
C1876 C1877 1.387 . S
C1876 H1880 0.950 . S
C1876 C1885 1.390 . S
C1877 C1876 1.387 . S
C1877 C1879 1.387 . S
H1878 C1885 0.950 1_554 S
C1879 C1877 1.387 . S
C1879 C1881 1.390 . S
C1879 H1883 0.950 . S
H1880 C1876 0.950 . S
C1881 C1879 1.390 . S
C1881 C1882 1.387 . S
C1881 H1884 0.950 . S
C1882 C1881 1.387 . S
C1882 C1885 1.387 . S
H1883 C1879 0.950 . S
H1884 C1881 0.950 . S
C1885 C1876 1.390 . S
C1885 H1878 0.950 1_556 S
C1885 C1882 1.387 . S
C1886 C1887 1.387 . S
C1886 H1890 0.950 . S
C1886 C1895 1.390 . S
C1887 C1886 1.387 . S
C1887 C1889 1.387 . S
H1888 C1895 0.950 . S
C1889 C1887 1.387 . S
C1889 C1891 1.390 . S
C1889 H1893 0.950 . S
H1890 C1886 0.950 . S
C1891 C1889 1.390 . S
C1891 C1892 1.387 . S
C1891 H1894 0.950 . S
C1892 C1891 1.387 . S
C1892 C1895 1.387 . S
H1893 C1889 0.950 . S
H1894 C1891 0.950 . S
C1895 C1886 1.390 . S
C1895 H1888 0.950 . S
C1895 C1892 1.387 . S
C1896 C1897 1.387 . S
C1896 H1900 0.950 . S
C1896 C1905 1.390 . S
C1897 C1896 1.387 . S
C1897 C1899 1.387 . S
H1898 C1905 0.952 . S
C1899 C1897 1.387 . S
C1899 C1901 1.390 . S
C1899 H1903 0.950 . S
H1900 C1896 0.950 . S
C1901 C1899 1.390 . S
C1901 C1902 1.387 . S
C1901 H1904 0.950 . S
C1902 C1901 1.387 . S
C1902 C1905 1.387 . S
H1903 C1899 0.950 . S
H1904 C1901 0.950 . S
C1905 C1896 1.390 . S
C1905 H1898 0.952 . S
C1905 C1902 1.387 . S
C1906 C1907 1.387 . S
C1906 H1910 0.950 . S
C1906 C1915 1.390 . S
C1907 C1906 1.387 . S
C1907 C1909 1.387 . S
H1908 C1915 0.950 . S
C1909 C1907 1.387 . S
C1909 C1911 1.390 . S
C1909 H1913 0.950 . S
H1910 C1906 0.950 . S
C1911 C1909 1.390 . S
C1911 C1912 1.387 . S
C1911 H1914 0.950 . S
C1912 C1911 1.387 . S
C1912 C1915 1.387 . S
H1913 C1909 0.950 . S
H1914 C1911 0.950 . S
C1915 C1906 1.390 . S
C1915 H1908 0.950 . S
C1915 C1912 1.387 . S
C1916 C1917 1.387 . S
C1916 H1920 0.950 . S
C1916 C1925 1.390 . S
C1917 C1916 1.387 . S
C1917 C1919 1.387 . S
H1918 C1925 0.950 . S
C1919 C1917 1.387 . S
C1919 C1921 1.390 . S
C1919 H1923 0.950 . S
H1920 C1916 0.950 . S
C1921 C1919 1.390 . S
C1921 C1922 1.387 . S
C1921 H1924 0.950 . S
C1922 C1921 1.387 . S
C1922 C1925 1.387 . S
H1923 C1919 0.950 . S
H1924 C1921 0.950 . S
C1925 C1916 1.390 . S
C1925 H1918 0.950 . S
C1925 C1922 1.387 . S
C1926 C1927 1.387 . S
C1926 H1930 0.950 . S
C1926 C1935 1.390 . S
C1927 C1926 1.387 . S
C1927 C1929 1.387 . S
H1928 C1935 0.950 . S
C1929 C1927 1.387 . S
C1929 C1931 1.390 . S
C1929 H1933 0.950 . S
H1930 C1926 0.950 . S
C1931 C1929 1.390 . S
C1931 C1932 1.387 . S
C1931 H1934 0.950 . S
C1932 C1931 1.387 . S
C1932 C1935 1.387 . S
H1933 C1929 0.950 . S
H1934 C1931 0.950 . S
C1935 C1926 1.390 . S
C1935 H1928 0.950 . S
C1935 C1932 1.387 . S
C1936 C1937 1.387 . S
C1936 H1940 0.950 . S
C1936 C1945 1.390 . S
C1937 C1936 1.387 . S
C1937 C1939 1.387 . S
H1938 C1945 0.950 . S
C1939 C1937 1.387 . S
C1939 C1941 1.390 . S
C1939 H1943 0.950 . S
H1940 C1936 0.950 . S
C1941 C1939 1.390 . S
C1941 C1942 1.387 . S
C1941 H1944 0.950 . S
C1942 C1941 1.387 . S
C1942 C1945 1.387 . S
H1943 C1939 0.950 . S
H1944 C1941 0.950 . S
C1945 C1936 1.390 . S
C1945 H1938 0.950 . S
C1945 C1942 1.387 . S
C1946 C1947 1.387 . S
C1946 H1950 0.950 . S
C1946 C1955 1.390 . S
C1947 C1946 1.387 . S
C1947 C1949 1.387 . S
H1948 C1955 0.950 . S
C1949 C1947 1.387 . S
C1949 C1951 1.390 . S
C1949 H1953 0.950 . S
H1950 C1946 0.950 . S
C1951 C1949 1.390 . S
C1951 C1952 1.387 . S
C1951 H1954 0.950 . S
C1952 C1951 1.387 . S
C1952 C1955 1.387 . S
H1953 C1949 0.950 . S
H1954 C1951 0.950 . S
C1955 C1946 1.390 . S
C1955 H1948 0.950 . S
C1955 C1952 1.387 . S
C1956 C1957 1.387 . S
C1956 H1960 0.950 . S
C1956 C1965 1.390 . S
C1957 C1956 1.387 . S
C1957 C1959 1.387 . S
H1958 C1965 0.950 . S
C1959 C1957 1.387 . S
C1959 C1961 1.390 . S
C1959 H1963 0.950 . S
H1960 C1956 0.950 . S
C1961 C1959 1.390 . S
C1961 C1962 1.387 . S
C1961 H1964 0.950 . S
C1962 C1961 1.387 . S
C1962 C1965 1.387 . S
H1963 C1959 0.950 . S
H1964 C1961 0.950 . S
C1965 C1956 1.390 . S
C1965 H1958 0.950 . S
C1965 C1962 1.387 . S
C1966 C1967 1.387 . S
C1966 H1970 0.950 . S
C1966 C1975 1.390 . S
C1967 C1966 1.387 . S
C1967 C1969 1.387 . S
H1968 C1975 0.950 . S
C1969 C1967 1.387 . S
C1969 C1971 1.390 . S
C1969 H1973 0.950 . S
H1970 C1966 0.950 . S
C1971 C1969 1.390 . S
C1971 C1972 1.387 . S
C1971 H1974 0.950 . S
C1972 C1971 1.387 . S
C1972 C1975 1.387 . S
H1973 C1969 0.950 . S
H1974 C1971 0.950 . S
C1975 C1966 1.390 . S
C1975 H1968 0.950 . S
C1975 C1972 1.387 . S
C1976 C1977 1.387 . S
C1976 H1980 0.950 . S
C1976 C1985 1.390 . S
C1977 C1976 1.387 . S
C1977 C1979 1.387 . S
H1978 C1985 0.950 . S
C1979 C1977 1.387 . S
C1979 C1981 1.390 . S
C1979 H1983 0.950 . S
H1980 C1976 0.950 . S
C1981 C1979 1.390 . S
C1981 C1982 1.387 . S
C1981 H1984 0.950 . S
C1982 C1981 1.387 . S
C1982 C1985 1.387 . S
H1983 C1979 0.950 . S
H1984 C1981 0.950 . S
C1985 C1976 1.390 . S
C1985 H1978 0.950 . S
C1985 C1982 1.387 . S
C1986 C1987 1.387 . S
C1986 H1990 0.950 . S
C1986 C1995 1.390 . S
C1987 C1986 1.387 . S
C1987 C1989 1.387 . S
H1988 C1995 0.950 . S
C1989 C1987 1.387 . S
C1989 C1991 1.390 . S
C1989 H1993 0.950 . S
H1990 C1986 0.950 . S
C1991 C1989 1.390 . S
C1991 C1992 1.387 . S
C1991 H1994 0.950 . S
C1992 C1991 1.387 . S
C1992 C1995 1.387 . S
H1993 C1989 0.950 . S
H1994 C1991 0.950 . S
C1995 C1986 1.390 . S
C1995 H1988 0.950 . S
C1995 C1992 1.387 . S
C1996 C1997 1.387 . S
C1996 H2000 0.950 . S
C1996 C2005 1.390 . S
C1997 C1996 1.387 . S
C1997 C1999 1.387 . S
H1998 C2005 0.950 . S
C1999 C1997 1.387 . S
C1999 C2001 1.390 . S
C1999 H2003 0.950 . S
H2000 C1996 0.950 . S
C2001 C1999 1.390 . S
C2001 C2002 1.387 . S
C2001 H2004 0.950 . S
C2002 C2001 1.387 . S
C2002 C2005 1.387 . S
H2003 C1999 0.950 . S
H2004 C2001 0.950 . S
C2005 C1996 1.390 . S
C2005 H1998 0.950 . S
C2005 C2002 1.387 . S
C2006 C2007 1.387 . S
C2006 H2010 0.950 . S
C2006 C2015 1.390 . S
C2007 C2006 1.387 . S
C2007 C2009 1.387 . S
H2008 C2015 0.950 . S
C2009 C2007 1.387 . S
C2009 C2011 1.390 . S
C2009 H2013 0.950 . S
H2010 C2006 0.950 . S
C2011 C2009 1.390 . S
C2011 C2012 1.387 . S
C2011 H2014 0.950 . S
C2012 C2011 1.387 . S
C2012 C2015 1.387 . S
H2013 C2009 0.950 . S
H2014 C2011 0.950 . S
C2015 C2006 1.390 . S
C2015 H2008 0.950 . S
C2015 C2012 1.387 . S
C2016 C2017 1.387 . S
C2016 H2020 0.950 . S
C2016 C2025 1.390 . S
C2017 C2016 1.387 . S
C2017 C2019 1.387 . S
H2018 C2025 0.950 . S
C2019 C2017 1.387 . S
C2019 C2021 1.390 . S
C2019 H2023 0.950 . S
H2020 C2016 0.950 . S
C2021 C2019 1.390 . S
C2021 C2022 1.387 . S
C2021 H2024 0.950 . S
C2022 C2021 1.387 . S
C2022 C2025 1.387 . S
H2023 C2019 0.950 . S
H2024 C2021 0.950 . S
C2025 C2016 1.390 . S
C2025 H2018 0.950 . S
C2025 C2022 1.387 . S
C2026 C2027 1.387 . S
C2026 H2030 0.950 . S
C2026 C2035 1.390 . S
C2027 C2026 1.387 . S
C2027 C2029 1.387 . S
H2028 C2035 0.950 . S
C2029 C2027 1.387 . S
C2029 C2031 1.390 . S
C2029 H2033 0.950 . S
H2030 C2026 0.950 . S
C2031 C2029 1.390 . S
C2031 C2032 1.387 . S
C2031 H2034 0.950 . S
C2032 C2031 1.387 . S
C2032 C2035 1.387 . S
H2033 C2029 0.950 . S
H2034 C2031 0.950 . S
C2035 C2026 1.390 . S
C2035 H2028 0.950 . S
C2035 C2032 1.387 . S
C2036 C2037 1.387 . S
C2036 H2040 0.950 . S
C2036 C2045 1.390 . S
C2037 C2036 1.387 . S
C2037 C2039 1.387 . S
H2038 C2045 0.950 . S
C2039 C2037 1.387 . S
C2039 C2041 1.390 . S
C2039 H2043 0.950 . S
H2040 C2036 0.950 . S
C2041 C2039 1.390 . S
C2041 C2042 1.387 . S
C2041 H2044 0.950 . S
C2042 C2041 1.387 . S
C2042 C2045 1.387 . S
H2043 C2039 0.950 . S
H2044 C2041 0.950 . S
C2045 C2036 1.390 . S
C2045 H2038 0.950 . S
C2045 C2042 1.387 . S
C2046 C2047 1.387 . S
C2046 H2050 0.950 . S
C2046 C2055 1.390 . S
C2047 C2046 1.387 . S
C2047 C2049 1.387 . S
H2048 C2055 0.950 . S
C2049 C2047 1.387 . S
C2049 C2051 1.390 . S
C2049 H2053 0.950 . S
H2050 C2046 0.950 . S
C2051 C2049 1.390 . S
C2051 C2052 1.387 . S
C2051 H2054 0.950 . S
C2052 C2051 1.387 . S
C2052 C2055 1.387 . S
H2053 C2049 0.950 . S
H2054 C2051 0.950 . S
C2055 C2046 1.390 . S
C2055 H2048 0.950 . S
C2055 C2052 1.387 . S
C2056 C2057 1.387 . S
C2056 H2060 0.950 . S
C2056 C2065 1.390 . S
C2057 C2056 1.387 . S
C2057 C2059 1.387 . S
H2058 C2065 0.950 . S
C2059 C2057 1.387 . S
C2059 C2061 1.390 . S
C2059 H2063 0.950 . S
H2060 C2056 0.950 . S
C2061 C2059 1.390 . S
C2061 C2062 1.387 . S
C2061 H2064 0.950 . S
C2062 C2061 1.387 . S
C2062 C2065 1.387 . S
H2063 C2059 0.950 . S
H2064 C2061 0.950 . S
C2065 C2056 1.390 . S
C2065 H2058 0.950 . S
C2065 C2062 1.387 . S
C2066 C2067 1.387 . S
C2066 H2070 0.950 . S
C2066 C2075 1.390 . S
C2067 C2066 1.387 . S
C2067 C2069 1.387 . S
H2068 C2075 0.950 . S
C2069 C2067 1.387 . S
C2069 C2071 1.390 . S
C2069 H2073 0.950 . S
H2070 C2066 0.950 . S
C2071 C2069 1.390 . S
C2071 C2072 1.387 . S
C2071 H2074 0.950 . S
C2072 C2071 1.387 . S
C2072 C2075 1.387 . S
H2073 C2069 0.950 . S
H2074 C2071 0.950 . S
C2075 C2066 1.390 . S
C2075 H2068 0.950 . S
C2075 C2072 1.387 . S
C2076 C2077 1.387 . S
C2076 H2080 0.950 . S
C2076 C2085 1.390 . S
C2077 C2076 1.387 . S
C2077 C2079 1.387 . S
H2078 C2085 0.950 . S
C2079 C2077 1.387 . S
C2079 C2081 1.390 . S
C2079 H2083 0.950 . S
H2080 C2076 0.950 . S
C2081 C2079 1.390 . S
C2081 C2082 1.387 . S
C2081 H2084 0.950 . S
C2082 C2081 1.387 . S
C2082 C2085 1.387 . S
H2083 C2079 0.950 . S
H2084 C2081 0.950 . S
C2085 C2076 1.390 . S
C2085 H2078 0.950 . S
C2085 C2082 1.387 . S
C2086 C2087 1.387 . S
C2086 H2090 0.950 . S
C2086 C2095 1.390 . S
C2087 C2086 1.387 . S
C2087 C2089 1.387 . S
H2088 C2095 0.950 . S
C2089 C2087 1.387 . S
C2089 C2091 1.390 . S
C2089 H2093 0.950 . S
H2090 C2086 0.950 . S
C2091 C2089 1.390 . S
C2091 C2092 1.387 . S
C2091 H2094 0.950 . S
C2092 C2091 1.387 . S
C2092 C2095 1.387 . S
H2093 C2089 0.950 . S
H2094 C2091 0.950 . S
C2095 C2086 1.390 . S
C2095 H2088 0.950 . S
C2095 C2092 1.387 . S
C2096 C2097 1.387 . S
C2096 H2100 0.950 . S
C2096 C2105 1.390 . S
C2097 C2096 1.387 . S
C2097 C2099 1.387 . S
H2098 C2105 0.950 . S
C2099 C2097 1.387 . S
C2099 C2101 1.390 . S
C2099 H2103 0.950 . S
H2100 C2096 0.950 . S
C2101 C2099 1.390 . S
C2101 C2102 1.387 . S
C2101 H2104 0.950 . S
C2102 C2101 1.387 . S
C2102 C2105 1.387 . S
H2103 C2099 0.950 . S
H2104 C2101 0.950 . S
C2105 C2096 1.390 . S
C2105 H2098 0.950 . S
C2105 C2102 1.387 . S
C2106 C2107 1.387 . S
C2106 H2110 0.950 . S
C2106 C2115 1.390 . S
C2107 C2106 1.387 . S
C2107 C2109 1.387 . S
H2108 C2115 0.950 . S
C2109 C2107 1.387 . S
C2109 C2111 1.390 . S
C2109 H2113 0.950 . S
H2110 C2106 0.950 . S
C2111 C2109 1.390 . S
C2111 C2112 1.387 . S
C2111 H2114 0.950 . S
C2112 C2111 1.387 . S
C2112 C2115 1.387 . S
H2113 C2109 0.950 . S
H2114 C2111 0.950 . S
C2115 C2106 1.390 . S
C2115 H2108 0.950 . S
C2115 C2112 1.387 . S
C2116 C2117 1.387 . S
C2116 H2120 0.950 . S
C2116 C2125 1.390 . S
C2117 C2116 1.387 . S
C2117 C2119 1.387 . S
H2118 C2125 0.950 . S
C2119 C2117 1.387 . S
C2119 C2121 1.390 . S
C2119 H2123 0.950 . S
H2120 C2116 0.950 . S
C2121 C2119 1.390 . S
C2121 C2122 1.387 . S
C2121 H2124 0.950 . S
C2122 C2121 1.387 . S
C2122 C2125 1.387 . S
H2123 C2119 0.950 . S
H2124 C2121 0.950 . S
C2125 C2116 1.390 . S
C2125 H2118 0.950 . S
C2125 C2122 1.387 . S
C2126 C2127 1.387 . S
C2126 H2130 0.950 . S
C2126 C2135 1.390 . S
C2127 C2126 1.387 . S
C2127 C2129 1.387 . S
H2128 C2135 0.950 . S
C2129 C2127 1.387 . S
C2129 C2131 1.390 . S
C2129 H2133 0.950 . S
H2130 C2126 0.950 . S
C2131 C2129 1.390 . S
C2131 C2132 1.387 . S
C2131 H2134 0.950 . S
C2132 C2131 1.387 . S
C2132 C2135 1.387 . S
H2133 C2129 0.950 . S
H2134 C2131 0.950 . S
C2135 C2126 1.390 . S
C2135 H2128 0.950 . S
C2135 C2132 1.387 . S
C2136 C2137 1.387 . S
C2136 H2140 0.950 . S
C2136 C2145 1.390 . S
C2137 C2136 1.387 . S
C2137 C2139 1.387 . S
H2138 C2145 0.950 . S
C2139 C2137 1.387 . S
C2139 C2141 1.390 . S
C2139 H2143 0.950 . S
H2140 C2136 0.950 . S
C2141 C2139 1.390 . S
C2141 C2142 1.387 . S
C2141 H2144 0.950 . S
C2142 C2141 1.387 . S
C2142 C2145 1.387 . S
H2143 C2139 0.950 . S
H2144 C2141 0.950 . S
C2145 C2136 1.390 . S
C2145 H2138 0.950 . S
C2145 C2142 1.387 . S
C2146 C2147 1.387 . S
C2146 H2150 0.950 . S
C2146 C2155 1.390 . S
C2147 C2146 1.387 . S
C2147 C2149 1.387 . S
H2148 C2155 0.950 . S
C2149 C2147 1.387 . S
C2149 C2151 1.390 . S
C2149 H2153 0.950 . S
H2150 C2146 0.950 . S
C2151 C2149 1.390 . S
C2151 C2152 1.387 . S
C2151 H2154 0.950 . S
C2152 C2151 1.387 . S
C2152 C2155 1.387 . S
H2153 C2149 0.950 . S
H2154 C2151 0.950 . S
C2155 C2146 1.390 . S
C2155 H2148 0.950 . S
C2155 C2152 1.387 . S
C2156 C2157 1.387 . S
C2156 H2160 0.950 . S
C2156 C2165 1.390 . S
C2157 C2156 1.387 . S
C2157 C2159 1.387 . S
H2158 C2165 0.950 . S
C2159 C2157 1.387 . S
C2159 C2161 1.390 . S
C2159 H2163 0.950 . S
H2160 C2156 0.950 . S
C2161 C2159 1.390 . S
C2161 C2162 1.387 . S
C2161 H2164 0.950 . S
C2162 C2161 1.387 . S
C2162 C2165 1.387 . S
H2163 C2159 0.950 . S
H2164 C2161 0.950 . S
C2165 C2156 1.390 . S
C2165 H2158 0.950 . S
C2165 C2162 1.387 . S
C2166 C2167 1.387 . S
C2166 H2170 0.950 . S
C2166 C2175 1.390 . S
C2167 C2166 1.387 . S
C2167 C2169 1.387 . S
H2168 C2175 0.950 . S
C2169 C2167 1.387 . S
C2169 C2171 1.390 . S
C2169 H2173 0.950 . S
H2170 C2166 0.950 . S
C2171 C2169 1.390 . S
C2171 C2172 1.387 . S
C2171 H2174 0.950 . S
C2172 C2171 1.387 . S
C2172 C2175 1.387 . S
H2173 C2169 0.950 . S
H2174 C2171 0.950 . S
C2175 C2166 1.390 . S
C2175 H2168 0.950 . S
C2175 C2172 1.387 . S
C2176 C2177 1.387 . S
C2176 H2180 0.950 . S
C2176 C2185 1.390 . S
C2177 C2176 1.387 . S
C2177 C2179 1.387 . S
H2178 C2185 0.950 . S
C2179 C2177 1.387 . S
C2179 C2181 1.390 . S
C2179 H2183 0.950 . S
H2180 C2176 0.950 . S
C2181 C2179 1.390 . S
C2181 C2182 1.387 . S
C2181 H2184 0.950 . S
C2182 C2181 1.387 . S
C2182 C2185 1.387 . S
H2183 C2179 0.950 . S
H2184 C2181 0.950 . S
C2185 C2176 1.390 . S
C2185 H2178 0.950 . S
C2185 C2182 1.387 . S
C2186 C2187 1.387 . S
C2186 H2190 0.950 . S
C2186 C2195 1.390 . S
C2187 C2186 1.387 . S
C2187 C2189 1.387 . S
H2188 C2195 0.950 . S
C2189 C2187 1.387 . S
C2189 C2191 1.390 . S
C2189 H2193 0.950 . S
H2190 C2186 0.950 . S
C2191 C2189 1.390 . S
C2191 C2192 1.387 . S
C2191 H2194 0.950 . S
C2192 C2191 1.387 . S
C2192 C2195 1.387 . S
H2193 C2189 0.950 . S
H2194 C2191 0.950 . S
C2195 C2186 1.390 . S
C2195 H2188 0.950 . S
C2195 C2192 1.387 . S
C2196 C2197 1.387 . S
C2196 H2200 0.950 . S
C2196 C2205 1.390 . S
C2197 C2196 1.387 . S
C2197 C2199 1.387 . S
H2198 C2205 0.950 . S
C2199 C2197 1.387 . S
C2199 C2201 1.390 . S
C2199 H2203 0.950 . S
H2200 C2196 0.950 . S
C2201 C2199 1.390 . S
C2201 C2202 1.387 . S
C2201 H2204 0.950 . S
C2202 C2201 1.387 . S
C2202 C2205 1.387 . S
H2203 C2199 0.950 . S
H2204 C2201 0.950 . S
C2205 C2196 1.390 . S
C2205 H2198 0.950 . S
C2205 C2202 1.387 . S
C2206 C2207 1.387 . S
C2206 H2210 0.950 . S
C2206 C2215 1.390 . S
C2207 C2206 1.387 . S
C2207 C2209 1.387 . S
H2208 C2215 0.950 . S
C2209 C2207 1.387 . S
C2209 C2211 1.390 . S
C2209 H2213 0.950 . S
H2210 C2206 0.950 . S
C2211 C2209 1.390 . S
C2211 C2212 1.387 . S
C2211 H2214 0.950 . S
C2212 C2211 1.387 . S
C2212 C2215 1.387 . S
H2213 C2209 0.950 . S
H2214 C2211 0.950 . S
C2215 C2206 1.390 . S
C2215 H2208 0.950 . S
C2215 C2212 1.387 . S
C2216 C2217 1.387 . S
C2216 H2220 0.950 . S
C2216 C2225 1.390 . S
C2217 C2216 1.387 . S
C2217 C2219 1.387 . S
H2218 C2225 0.950 . S
C2219 C2217 1.387 . S
C2219 C2221 1.390 . S
C2219 H2223 0.950 . S
H2220 C2216 0.950 . S
C2221 C2219 1.390 . S
C2221 C2222 1.387 . S
C2221 H2224 0.950 . S
C2222 C2221 1.387 . S
C2222 C2225 1.387 . S
H2223 C2219 0.950 . S
H2224 C2221 0.950 . S
C2225 C2216 1.390 . S
C2225 H2218 0.950 . S
C2225 C2222 1.387 . S
C2226 C2227 1.387 . S
C2226 H2230 0.950 . S
C2226 C2235 1.390 . S
C2227 C2226 1.387 . S
C2227 C2229 1.387 . S
H2228 C2235 0.956 . S
C2229 C2227 1.387 . S
C2229 C2231 1.390 . S
C2229 H2233 0.950 . S
H2230 C2226 0.950 . S
C2231 C2229 1.390 . S
C2231 C2232 1.387 . S
C2231 H2234 0.950 . S
C2232 C2231 1.387 . S
C2232 C2235 1.387 . S
H2233 C2229 0.950 . S
H2234 C2231 0.950 . S
C2235 C2226 1.390 . S
C2235 H2228 0.956 . S
C2235 C2232 1.387 . S
C2236 C2237 1.387 . S
C2236 H2240 0.950 . S
C2236 C2245 1.390 . S
C2237 C2236 1.387 . S
C2237 C2239 1.387 . S
H2238 C2245 0.950 . S
C2239 C2237 1.387 . S
C2239 C2241 1.390 . S
C2239 H2243 0.950 . S
H2240 C2236 0.950 . S
C2241 C2239 1.390 . S
C2241 C2242 1.387 . S
C2241 H2244 0.950 . S
C2242 C2241 1.387 . S
C2242 C2245 1.387 . S
H2243 C2239 0.950 . S
H2244 C2241 0.950 . S
C2245 C2236 1.390 . S
C2245 H2238 0.950 . S
C2245 C2242 1.387 . S
C2246 C2247 1.387 . S
C2246 H2250 0.950 . S
C2246 C2255 1.390 . S
C2247 C2246 1.387 . S
C2247 C2249 1.387 . S
H2248 C2255 0.950 . S
C2249 C2247 1.387 . S
C2249 C2251 1.390 . S
C2249 H2253 0.950 . S
H2250 C2246 0.950 . S
C2251 C2249 1.390 . S
C2251 C2252 1.387 . S
C2251 H2254 0.950 1_545 S
C2252 C2251 1.387 . S
C2252 C2255 1.387 . S
H2253 C2249 0.950 . S
H2254 C2251 0.950 1_565 S
C2255 C2246 1.390 . S
C2255 H2248 0.950 . S
C2255 C2252 1.387 . S
C2256 C2257 1.387 . S
C2256 H2260 0.950 . S
C2256 C2265 1.390 . S
C2257 C2256 1.387 . S
C2257 C2259 1.387 . S
H2258 C2265 0.950 . S
C2259 C2257 1.387 . S
C2259 C2261 1.390 . S
C2259 H2263 0.950 . S
H2260 C2256 0.950 . S
C2261 C2259 1.390 . S
C2261 C2262 1.387 . S
C2261 H2264 0.950 . S
C2262 C2261 1.387 . S
C2262 C2265 1.387 . S
H2263 C2259 0.950 . S
H2264 C2261 0.950 . S
C2265 C2256 1.390 . S
C2265 H2258 0.950 . S
C2265 C2262 1.387 . S
C2266 C2267 1.387 . S
C2266 H2270 0.950 . S
C2266 C2275 1.390 . S
C2267 C2266 1.387 . S
C2267 C2269 1.387 . S
H2268 C2275 0.950 . S
C2269 C2267 1.387 . S
C2269 C2271 1.390 . S
C2269 H2273 0.950 . S
H2270 C2266 0.950 . S
C2271 C2269 1.390 . S
C2271 C2272 1.387 . S
C2271 H2274 0.950 . S
C2272 C2271 1.387 . S
C2272 C2275 1.387 . S
H2273 C2269 0.950 . S
H2274 C2271 0.950 . S
C2275 C2266 1.390 . S
C2275 H2268 0.950 . S
C2275 C2272 1.387 . S
C2276 C2277 1.387 . S
C2276 H2280 0.950 . S
C2276 C2285 1.390 . S
C2277 C2276 1.387 . S
C2277 C2279 1.387 . S
H2278 C2285 0.950 . S
C2279 C2277 1.387 . S
C2279 C2281 1.390 . S
C2279 H2283 0.950 . S
H2280 C2276 0.950 . S
C2281 C2279 1.390 . S
C2281 C2282 1.387 . S
C2281 H2284 0.950 . S
C2282 C2281 1.387 . S
C2282 C2285 1.387 . S
H2283 C2279 0.950 . S
H2284 C2281 0.950 . S
C2285 C2276 1.390 . S
C2285 H2278 0.950 . S
C2285 C2282 1.387 . S
C2286 C2287 1.387 . S
C2286 H2290 0.950 . S
C2286 C2295 1.390 . S
C2287 C2286 1.387 . S
C2287 C2289 1.387 . S
H2288 C2295 0.950 . S
C2289 C2287 1.387 . S
C2289 C2291 1.390 . S
C2289 H2293 0.950 . S
H2290 C2286 0.950 . S
C2291 C2289 1.390 . S
C2291 C2292 1.387 . S
C2291 H2294 0.950 . S
C2292 C2291 1.387 . S
C2292 C2295 1.387 . S
H2293 C2289 0.950 . S
H2294 C2291 0.950 . S
C2295 C2286 1.390 . S
C2295 H2288 0.950 . S
C2295 C2292 1.387 . S
C2296 C2297 1.387 . S
C2296 H2300 0.950 . S
C2296 C2305 1.390 . S
C2297 C2296 1.387 . S
C2297 C2299 1.387 . S
H2298 C2305 0.950 . S
C2299 C2297 1.387 . S
C2299 C2301 1.390 . S
C2299 H2303 0.950 . S
H2300 C2296 0.950 . S
C2301 C2299 1.390 . S
C2301 C2302 1.387 . S
C2301 H2304 0.950 . S
C2302 C2301 1.387 . S
C2302 C2305 1.387 . S
H2303 C2299 0.950 . S
H2304 C2301 0.950 . S
C2305 C2296 1.390 . S
C2305 H2298 0.950 . S
C2305 C2302 1.387 . S
C2306 C2307 1.387 . S
C2306 H2310 0.950 . S
C2306 C2315 1.390 . S
C2307 C2306 1.387 . S
C2307 C2309 1.387 . S
H2308 C2315 0.950 . S
C2309 C2307 1.387 . S
C2309 C2311 1.390 . S
C2309 H2313 0.950 . S
H2310 C2306 0.950 . S
C2311 C2309 1.390 . S
C2311 C2312 1.387 . S
C2311 H2314 0.950 . S
C2312 C2311 1.387 . S
C2312 C2315 1.387 . S
H2313 C2309 0.950 . S
H2314 C2311 0.950 . S
C2315 C2306 1.390 . S
C2315 H2308 0.950 . S
C2315 C2312 1.387 . S
C2316 C2317 1.387 . S
C2316 H2320 0.950 . S
C2316 C2325 1.390 . S
C2317 C2316 1.387 . S
C2317 C2319 1.387 . S
H2318 C2325 0.950 . S
C2319 C2317 1.387 . S
C2319 C2321 1.390 . S
C2319 H2323 0.950 . S
H2320 C2316 0.950 . S
C2321 C2319 1.390 . S
C2321 C2322 1.387 . S
C2321 H2324 0.950 . S
C2322 C2321 1.387 . S
C2322 C2325 1.387 . S
H2323 C2319 0.950 . S
H2324 C2321 0.950 . S
C2325 C2316 1.390 . S
C2325 H2318 0.950 . S
C2325 C2322 1.387 . S
C2326 C2327 1.387 . S
C2326 H2330 0.950 . S
C2326 C2335 1.390 . S
C2327 C2326 1.387 . S
C2327 C2329 1.387 . S
H2328 C2335 0.950 . S
C2329 C2327 1.387 . S
C2329 C2331 1.390 . S
C2329 H2333 0.950 . S
H2330 C2326 0.950 . S
C2331 C2329 1.390 . S
C2331 C2332 1.387 . S
C2331 H2334 0.950 . S
C2332 C2331 1.387 . S
C2332 C2335 1.387 . S
H2333 C2329 0.950 . S
H2334 C2331 0.950 . S
C2335 C2326 1.390 . S
C2335 H2328 0.950 . S
C2335 C2332 1.387 . S
C2336 C2337 1.387 . S
C2336 H2340 0.950 . S
C2336 C2345 1.390 . S
C2337 C2336 1.387 . S
C2337 C2339 1.387 . S
H2338 C2345 0.950 . S
C2339 C2337 1.387 . S
C2339 C2341 1.390 . S
C2339 H2343 0.950 . S
H2340 C2336 0.950 . S
C2341 C2339 1.390 . S
C2341 C2342 1.387 . S
C2341 H2344 0.950 . S
C2342 C2341 1.387 . S
C2342 C2345 1.387 . S
H2343 C2339 0.950 . S
H2344 C2341 0.950 . S
C2345 C2336 1.390 . S
C2345 H2338 0.950 . S
C2345 C2342 1.387 . S
C2346 C2347 1.387 . S
C2346 H2350 0.950 . S
C2346 C2355 1.390 . S
C2347 C2346 1.387 . S
C2347 C2349 1.387 . S
H2348 C2355 0.950 . S
C2349 C2347 1.387 . S
C2349 C2351 1.390 . S
C2349 H2353 0.950 . S
H2350 C2346 0.950 . S
C2351 C2349 1.390 . S
C2351 C2352 1.387 . S
C2351 H2354 0.950 . S
C2352 C2351 1.387 . S
C2352 C2355 1.387 . S
H2353 C2349 0.950 . S
H2354 C2351 0.950 . S
C2355 C2346 1.390 . S
C2355 H2348 0.950 . S
C2355 C2352 1.387 . S
C2356 C2357 1.387 . S
C2356 H2360 0.950 . S
C2356 C2365 1.390 . S
C2357 C2356 1.387 . S
C2357 C2359 1.387 . S
H2358 C2365 0.950 . S
C2359 C2357 1.387 . S
C2359 C2361 1.390 . S
C2359 H2363 0.950 . S
H2360 C2356 0.950 . S
C2361 C2359 1.390 . S
C2361 C2362 1.387 . S
C2361 H2364 0.950 . S
C2362 C2361 1.387 . S
C2362 C2365 1.387 . S
H2363 C2359 0.950 . S
H2364 C2361 0.950 . S
C2365 C2356 1.390 . S
C2365 H2358 0.950 . S
C2365 C2362 1.387 . S
C2366 C2367 1.387 . S
C2366 H2370 0.950 . S
C2366 C2375 1.390 . S
C2367 C2366 1.387 . S
C2367 C2369 1.387 . S
H2368 C2375 0.950 . S
C2369 C2367 1.387 . S
C2369 C2371 1.390 . S
C2369 H2373 0.950 . S
H2370 C2366 0.950 . S
C2371 C2369 1.390 . S
C2371 C2372 1.387 . S
C2371 H2374 0.950 . S
C2372 C2371 1.387 . S
C2372 C2375 1.387 . S
H2373 C2369 0.950 . S
H2374 C2371 0.950 . S
C2375 C2366 1.390 . S
C2375 H2368 0.950 . S
C2375 C2372 1.387 . S
C1837 C781 1.471 . S
C1842 C1147 1.408 . S
C1847 C871 1.461 . S
C1852 C1231 1.425 . S
C1857 C751 1.477 . S
C1862 C1311 1.457 . S
C1867 C691 1.435 . S
C1872 C1227 1.418 . S
C1882 C1315 1.361 . S
C1877 C571 1.402 . S
C1887 C601 1.458 . S
C1892 C1143 1.407 . S
C1902 C1136 1.406 . S
C1897 C661 1.431 . S
C1912 C1220 1.422 . S
C1907 C541 1.447 . S
C1917 C631 1.527 . S
C1922 C1322 1.459 . S
C1927 C811 1.474 . S
C1932 C1238 1.418 . S
C1937 C841 1.397 . S
C1942 C1304 1.361 . S
C1952 C1154 1.406 . S
C1947 C721 1.407 . S
C1962 C1399 1.404 . S
C1957 C61 1.471 1_455 S
C1967 C151 1.459 . S
C1972 C1483 1.422 . S
C1977 C31 1.477 1_565 S
C1982 C1563 1.458 . S
C1987 C1051 1.437 . S
C1992 C1479 1.418 . S
C1997 C931 1.403 . S
C2002 C1567 1.362 . S
C2007 C961 1.459 . S
C2012 C1395 1.408 . S
C2017 C1021 1.428 . S
C2022 C1388 1.405 . S
C2027 C901 1.444 . S
C2032 C1472 1.425 . S
C2042 C1574 1.457 . S
C2037 C991 1.527 . S
C2047 C91 1.475 1_565 S
C2052 C1490 1.420 . S
C2062 C1556 1.361 . S
C2057 C121 1.377 1_455 S
C2067 C1 1.408 . S
C2072 C1406 1.407 . S
C2082 C1651 1.406 . S
C2077 C421 1.472 . S
C2087 C511 1.459 . S
C2092 C1735 1.421 . S
C2102 C1815 1.457 . S
C2097 C391 1.477 . S
C2112 C1731 1.419 . S
C2107 C331 1.436 1_545 S
C2122 C1819 1.361 . S
C2117 C211 1.402 1_655 S
C2127 C241 1.457 . S
C2132 C1647 1.409 . S
C2137 C301 1.428 1_655 S
C2142 C1640 1.406 . S
C2147 C181 1.445 . S
C2152 C1724 1.425 . S
C2162 C1826 1.457 . S
C2157 C271 1.526 1_545 S
C2167 C451 1.475 . S
C2172 C1742 1.417 . S
C2177 C481 1.396 . S
C2182 C1808 1.365 . S
C2187 C361 1.408 . S
C2192 C1658 1.409 . S
C2197 C920 1.462 . S
C2202 C1150 1.383 . S
C2212 C1234 1.373 . S
C2207 C980 1.503 . S
C2217 C1040 1.470 . S
C2222 C1306 1.368 . S
C2227 C380 1.491 . S
C2232 C1222 1.373 . S
C2237 C440 1.471 . S
C2242 C1318 1.369 . S
C2252 C1138 1.381 . S
C2247 C500 1.466 . S
C2257 C200 1.462 . S
C2262 C1402 1.382 . S
C2267 C260 1.503 . S
C2272 C1486 1.373 . S
C2277 C320 1.470 . S
C2282 C1558 1.368 . S
C2287 C740 1.491 . S
C2292 C1474 1.374 . S
C2302 C1570 1.368 . S
C2297 C800 1.470 . S
C2307 C860 1.467 . S
C2312 C1390 1.382 . S
C2317 C560 1.461 . S
C2322 C1654 1.379 . S
C2327 C620 1.504 . S
C2332 C1738 1.369 . S
C2342 C1810 1.365 . S
C2337 C680 1.470 . S
C2347 C20 1.492 . S
C2352 C1726 1.374 . S
C2357 C80 1.472 . S
C2362 C1822 1.365 . S
C2367 C140 1.467 . S
C2372 C1642 1.382 . S
