# Generated by pormake.
# Topology zzz, (3,6)-cn, num edge types: 1
# Building blocks:
#     Node 0, Type 0, BuildingBlock: BETDAH_clean_linker_0, # of connection points: 3
#     Node 1, Type 0, BuildingBlock: BETDAH_clean_linker_0, # of connection points: 3
#     Node 2, Type 0, BuildingBlock: BETDAH_clean_linker_0, # of connection points: 3
#     Node 3, Type 0, BuildingBlock: BETDAH_clean_linker_0, # of connection points: 3
#     Node 4, Type 0, BuildingBlock: BETDAH_clean_linker_0, # of connection points: 3
#     Node 5, Type 0, BuildingBlock: BETDAH_clean_linker_0, # of connection points: 3
#     Node 6, Type 0, BuildingBlock: BETDAH_clean_linker_0, # of connection points: 3
#     Node 7, Type 0, BuildingBlock: BETDAH_clean_linker_0, # of connection points: 3
#     Node 8, Type 1, BuildingBlock: CUKXOW_clean_sbu_0, # of connection points: 6
#     Node 9, Type 1, BuildingBlock: CUKXOW_clean_sbu_0, # of connection points: 6
#     Node 10, Type 1, BuildingBlock: CUKXOW_clean_sbu_0, # of connection points: 6
#     Node 11, Type 1, BuildingBlock: CUKXOW_clean_sbu_0, # of connection points: 6
#     Edge 12, Type (0, 1), BuildingBlock: UVAHIK_clean_linker_0, # of connection points: 2
#     Edge 13, Type (0, 1), BuildingBlock: UVAHIK_clean_linker_0, # of connection points: 2
#     Edge 14, Type (0, 1), BuildingBlock: UVAHIK_clean_linker_0, # of connection points: 2
#     Edge 15, Type (0, 1), BuildingBlock: UVAHIK_clean_linker_0, # of connection points: 2
#     Edge 16, Type (0, 1), BuildingBlock: UVAHIK_clean_linker_0, # of connection points: 2
#     Edge 17, Type (0, 1), BuildingBlock: UVAHIK_clean_linker_0, # of connection points: 2
#     Edge 18, Type (0, 1), BuildingBlock: UVAHIK_clean_linker_0, # of connection points: 2
#     Edge 19, Type (0, 1), BuildingBlock: UVAHIK_clean_linker_0, # of connection points: 2
#     Edge 20, Type (0, 1), BuildingBlock: UVAHIK_clean_linker_0, # of connection points: 2
#     Edge 21, Type (0, 1), BuildingBlock: UVAHIK_clean_linker_0, # of connection points: 2
#     Edge 22, Type (0, 1), BuildingBlock: UVAHIK_clean_linker_0, # of connection points: 2
#     Edge 23, Type (0, 1), BuildingBlock: UVAHIK_clean_linker_0, # of connection points: 2
#     Edge 24, Type (0, 1), BuildingBlock: UVAHIK_clean_linker_0, # of connection points: 2
#     Edge 25, Type (0, 1), BuildingBlock: UVAHIK_clean_linker_0, # of connection points: 2
#     Edge 26, Type (0, 1), BuildingBlock: UVAHIK_clean_linker_0, # of connection points: 2
#     Edge 27, Type (0, 1), BuildingBlock: UVAHIK_clean_linker_0, # of connection points: 2
#     Edge 28, Type (0, 1), BuildingBlock: UVAHIK_clean_linker_0, # of connection points: 2
#     Edge 29, Type (0, 1), BuildingBlock: UVAHIK_clean_linker_0, # of connection points: 2
#     Edge 30, Type (0, 1), BuildingBlock: UVAHIK_clean_linker_0, # of connection points: 2
#     Edge 31, Type (0, 1), BuildingBlock: UVAHIK_clean_linker_0, # of connection points: 2
#     Edge 32, Type (0, 1), BuildingBlock: UVAHIK_clean_linker_0, # of connection points: 2
#     Edge 33, Type (0, 1), BuildingBlock: UVAHIK_clean_linker_0, # of connection points: 2
#     Edge 34, Type (0, 1), BuildingBlock: UVAHIK_clean_linker_0, # of connection points: 2
#     Edge 35, Type (0, 1), BuildingBlock: UVAHIK_clean_linker_0, # of connection points: 2
# Relax obj value: 0.071
# Max RMSD: 0.117
# Mean RMSD: 0.084
data_MOF--net-zzz--node1-CUKXOW_clean_sbu_0--node2-BETDAH_clean_linker_0--edge1-UVAHIK_clean_linker_0
_symmetry_space_group_name_H-M    P1
_symmetry_Int_Tables_number       1
_symmetry_cell_setting            triclinic
loop_
_symmetry_equiv_pos_as_xyz
'x, y, z'
_cell_length_a     65.578749
_cell_length_b     67.517373
_cell_length_c     20.106054
_cell_angle_alpha  92.899241
_cell_angle_beta   87.02232
_cell_angle_gamma 93.82001
loop_
_atom_site_label
_atom_site_type_symbol
_atom_site_fract_x
_atom_site_fract_y
_atom_site_fract_z
_atom_type_partial_charge
H0 H 0.81483 0.51221 0.07953 0.0
H1 H 0.76416 0.54216 0.01508 0.0
H2 H 0.76518 0.52577 0.21905 0.0
C3 C 0.79982 0.5178 0.09012 0.0
C4 C 0.791 0.51739 0.1551 0.0
C5 C 0.79035 0.5268 0.03968 0.0
C6 C 0.77139 0.53494 0.05372 0.0
C7 C 0.76217 0.53427 0.1185 0.0
C8 C 0.77222 0.52591 0.16909 0.0
N9 N 0.74302 0.54228 0.13443 0.0
C10 C 0.72743 0.54082 0.09005 0.0
H11 H 0.95771 0.82163 0.02873 0.0
H12 H 0.95621 0.76455 0.92407 0.0
H13 H 0.9343 0.76981 0.13015 0.0
C14 C 0.9539 0.80572 0.02821 0.0
C15 C 0.94538 0.79715 0.08594 0.0
C16 C 0.95795 0.79409 0.97009 0.0
C17 C 0.95323 0.77351 0.96931 0.0
C18 C 0.94464 0.76469 0.02746 0.0
C19 C 0.94077 0.7766 0.08541 0.0
N20 N 0.93965 0.74398 0.02965 0.0
C21 C 0.94807 0.72988 0.98568 0.0
H22 H 0.68074 0.96859 0.06232 0.0
H23 H 0.73946 0.95481 0.97507 0.0
H24 H 0.727 0.95123 0.18744 0.0
C25 C 0.69608 0.964 0.06816 0.0
C26 C 0.70233 0.96046 0.13165 0.0
C27 C 0.70929 0.96187 0.01189 0.0
C28 C 0.7292 0.95621 0.0188 0.0
C29 C 0.73563 0.95226 0.08253 0.0
C30 C 0.72198 0.95403 0.13846 0.0
N31 N 0.75576 0.94686 0.09223 0.0
C32 C 0.7722 0.95119 0.04787 0.0
H33 H 0.55739 0.68814 0.08776 0.0
H34 H 0.57683 0.74113 0.98603 0.0
H35 H 0.57973 0.74024 0.19976 0.0
C36 C 0.5632 0.70358 0.08956 0.0
C37 C 0.56763 0.71312 0.15095 0.0
C38 C 0.56671 0.71344 0.03008 0.0
C39 C 0.57409 0.73346 0.03202 0.0
C40 C 0.57885 0.74314 0.0937 0.0
C41 C 0.57599 0.73276 0.15254 0.0
N42 N 0.58714 0.76306 0.0984 0.0
C43 C 0.58289 0.77754 0.0554 0.0
H44 H 0.20571 0.50362 0.22377 0.0
H45 H 0.24741 0.47648 0.3438 0.0
H46 H 0.25085 0.46676 0.13017 0.0
C47 C 0.21906 0.49514 0.2275 0.0
C48 C 0.22793 0.48618 0.1698 0.0
C49 C 0.22572 0.49141 0.2904 0.0
C50 C 0.24242 0.47967 0.29514 0.0
C51 C 0.25194 0.47123 0.2369 0.0
C52 C 0.24419 0.47401 0.17466 0.0
N53 N 0.26876 0.45925 0.23972 0.0
C54 C 0.28317 0.46261 0.28779 0.0
H55 H 0.03932 0.19054 0.34963 0.0
H56 H 0.05899 0.24567 0.44905 0.0
H57 H 0.05491 0.24205 0.23534 0.0
C58 C 0.04393 0.20624 0.34717 0.0
C59 C 0.04603 0.21499 0.28526 0.0
C60 C 0.04862 0.21714 0.406 0.0
C61 C 0.05518 0.23727 0.40354 0.0
C62 C 0.05731 0.2463 0.34161 0.0
C63 C 0.05314 0.23502 0.28276 0.0
N64 N 0.06381 0.26663 0.33687 0.0
C65 C 0.05895 0.28095 0.38605 0.0
H66 H 0.32697 0.03366 0.2826 0.0
H67 H 0.2752 0.05579 0.39507 0.0
H68 H 0.2838 0.066 0.18498 0.0
C69 C 0.31282 0.0412 0.28423 0.0
C70 C 0.30655 0.04916 0.22632 0.0
C71 C 0.30176 0.04367 0.34507 0.0
C72 C 0.28376 0.05382 0.3479 0.0
C73 C 0.27706 0.06164 0.28961 0.0
C74 C 0.28883 0.05976 0.22951 0.0
N75 N 0.25855 0.07136 0.29001 0.0
C76 C 0.24181 0.06619 0.33216 0.0
H77 H 0.44351 0.32517 0.29409 0.0
H78 H 0.44325 0.26758 0.37583 0.0
H79 H 0.42277 0.27342 0.17744 0.0
C80 C 0.44011 0.30922 0.28922 0.0
C81 C 0.43247 0.30075 0.22997 0.0
C82 C 0.44415 0.29739 0.34153 0.0
C83 C 0.44016 0.2767 0.33517 0.0
C84 C 0.43226 0.26801 0.27564 0.0
C85 C 0.4286 0.28012 0.22338 0.0
N86 N 0.42779 0.24726 0.26588 0.0
C87 C 0.43324 0.23294 0.30765 0.0
Tb88 Tb 0.00313 0.99046 0.61653 0.0
C89 C 0.04744 0.00862 0.6417 0.0
Tb90 Tb 0.00876 0.01913 0.73887 0.0
O91 O 0.0107 0.01502 0.55115 0.0
O92 O 0.9962 0.01993 0.64487 0.0
O93 O 0.03635 0.99438 0.60921 0.0
C94 C 0.01629 0.05192 0.8155 0.0
O95 O 0.03968 0.02005 0.69144 0.0
C96 C 0.00895 0.98124 0.76141 0.0
C97 C 0.96527 1.00029 0.71523 0.0
O98 O 0.01892 0.05059 0.75118 0.0
O99 O 0.00957 0.03476 0.83684 0.0
O100 O 0.00349 0.99454 0.80659 0.0
O101 O 0.01587 0.98982 0.71031 0.0
O102 O 0.9756 0.01665 0.73741 0.0
O103 O 0.97395 0.98688 0.67434 0.0
C104 C 0.99309 0.95944 0.53487 0.0
O105 O 0.98679 0.97716 0.53158 0.0
O106 O 0.0054 0.95928 0.58325 0.0
C107 C 0.0043 0.02837 0.59476 0.0
Tb108 Tb 0.50491 0.02546 0.65559 0.0
C109 C 0.53099 0.99322 0.58385 0.0
Tb110 Tb 0.50718 0.98579 0.72425 0.0
O111 O 0.5376 0.03237 0.665 0.0
O112 O 0.52087 0.01495 0.73435 0.0
O113 O 0.52039 0.00889 0.57486 0.0
C114 C 0.51889 0.95319 0.7772 0.0
O115 O 0.52934 0.98338 0.63968 0.0
C116 C 0.47357 0.98977 0.66344 0.0
C117 C 0.48073 0.01791 0.79528 0.0
O118 O 0.50752 0.9535 0.72643 0.0
O119 O 0.52358 0.97131 0.79882 0.0
O120 O 0.47451 0.97872 0.71406 0.0
O121 O 0.49136 0.99625 0.6453 0.0
O122 O 0.49109 0.00208 0.80443 0.0
O123 O 0.48274 0.02795 0.73991 0.0
C124 C 0.49349 0.05795 0.60117 0.0
O125 O 0.4885 0.03979 0.58082 0.0
O126 O 0.50497 0.05776 0.65174 0.0
C127 C 0.53865 0.02137 0.71569 0.0
Tb128 Tb 0.51114 0.52056 0.63426 0.0
C129 C 0.46621 0.50239 0.6387 0.0
Tb130 Tb 0.498 0.49141 0.74439 0.0
O131 O 0.50717 0.49682 0.55675 0.0
O132 O 0.51507 0.49058 0.65254 0.0
O133 O 0.47853 0.51764 0.61917 0.0
C134 C 0.48336 0.46044 0.81329 0.0
O135 O 0.47165 0.48947 0.68124 0.0
C136 C 0.49943 0.52931 0.77992 0.0
C137 C 0.54337 0.50821 0.73711 0.0
O138 O 0.47765 0.47845 0.82265 0.0
O139 O 0.49754 0.45994 0.76593 0.0
O140 O 0.50313 0.51559 0.81993 0.0
O141 O 0.49391 0.52124 0.72553 0.0
O142 O 0.53065 0.49337 0.75758 0.0
O143 O 0.53826 0.52125 0.69431 0.0
C144 C 0.52356 0.55384 0.57414 0.0
O145 O 0.52886 0.53616 0.55488 0.0
O146 O 0.51114 0.55264 0.62618 0.0
C147 C 0.50998 0.48285 0.59705 0.0
Tb148 Tb 0.99121 0.5052 0.6253 0.0
C149 C 0.00789 0.46608 0.67755 0.0
Tb150 Tb 0.0215 0.50896 0.74025 0.0
O151 O 0.01504 0.51776 0.55448 0.0
O152 O 0.0226 0.50298 0.63667 0.0
O153 O 0.99389 0.47385 0.64277 0.0
C154 C 0.05489 0.50947 0.80955 0.0
O155 O 0.02092 0.47705 0.71515 0.0
C156 C 0.98289 0.51285 0.7754 0.0
C157 C 0.00586 0.54733 0.68483 0.0
O158 O 0.03849 0.49788 0.81991 0.0
O159 O 0.05225 0.52098 0.76141 0.0
O160 O 0.9978 0.52092 0.80962 0.0
O161 O 0.99012 0.50184 0.7292 0.0
O162 O 0.02177 0.53938 0.70865 0.0
O163 O 0.99064 0.53641 0.65759 0.0
C164 C 0.9569 0.49974 0.56017 0.0
O165 O 0.95913 0.51039 0.61511 0.0
O166 O 0.97414 0.49222 0.5411 0.0
C167 C 0.02997 0.51316 0.58987 0.0
C168 C 0.2174 0.0706 0.42845 0.0
C169 C 0.22393 0.05955 0.37145 0.0
C170 C 0.19954 0.06435 0.46475 0.0
C171 C 0.16313 0.02059 0.49079 0.0
H172 H 0.1251 0.06036 0.5479 0.0
C173 C 0.0782 0.00127 0.56718 0.0
C174 C 0.06921 0.01259 0.6201 0.0
C175 C 0.09818 0.00624 0.54305 0.0
C176 C 0.13568 0.04909 0.53323 0.0
H177 H 0.21761 0.03344 0.30725 0.0
H178 H 0.18626 0.02255 0.36989 0.0
H179 H 0.15807 0.07059 0.49476 0.0
H180 H 0.07448 0.03769 0.69043 0.0
H181 H 0.10928 0.04616 0.64872 0.0
H182 H 0.14052 0.99905 0.52827 0.0
C183 C 0.19491 0.03583 0.38753 0.0
C184 C 0.15459 0.05496 0.50278 0.0
C185 C 0.21274 0.0421 0.35141 0.0
C186 C 0.08087 0.02863 0.64954 0.0
C187 C 0.1008 0.0336 0.62534 0.0
C188 C 0.14419 0.01471 0.52119 0.0
C189 C 0.18801 0.04695 0.44439 0.0
C190 C 0.16846 0.04077 0.48057 0.0
C191 C 0.10958 0.02265 0.57119 0.0
C192 C 0.13017 0.02888 0.5422 0.0
H193 H 0.22598 0.08411 0.44457 0.0
H194 H 0.19477 0.07312 0.50871 0.0
H195 H 0.1736 0.00931 0.4752 0.0
H196 H 0.06968 0.98885 0.54321 0.0
H197 H 0.10442 0.99762 0.50083 0.0
C198 C 0.45245 0.21788 0.39265 0.0
C199 C 0.4382 0.21599 0.34284 0.0
C200 C 0.45802 0.20097 0.42316 0.0
C201 C 0.45978 0.14682 0.39258 0.0
H202 H 0.46573 0.14611 0.58324 0.0
C203 C 0.47312 0.07463 0.52125 0.0
C204 C 0.48698 0.076 0.57237 0.0
C205 C 0.46689 0.09183 0.49443 0.0
C206 C 0.46437 0.14613 0.5298 0.0
H207 H 0.41831 0.19556 0.28581 0.0
H208 H 0.42785 0.166 0.33917 0.0
H209 H 0.45544 0.17616 0.53502 0.0
H210 H 0.50526 0.09627 0.63565 0.0
H211 H 0.49474 0.1263 0.5881 0.0
H212 H 0.46887 0.11693 0.38698 0.0
C213 C 0.43492 0.18035 0.3545 0.0
C214 C 0.45845 0.16335 0.50224 0.0
C215 C 0.42935 0.19722 0.32433 0.0
C216 C 0.49451 0.09482 0.5963 0.0
C217 C 0.48837 0.11202 0.56936 0.0
C218 C 0.46576 0.12965 0.42004 0.0
C219 C 0.44948 0.18198 0.40375 0.0
C220 C 0.45601 0.16385 0.43335 0.0
C221 C 0.47448 0.11075 0.51808 0.0
C222 C 0.46808 0.12906 0.48901 0.0
H223 H 0.4595 0.23232 0.40714 0.0
H224 H 0.46938 0.20268 0.46057 0.0
H225 H 0.45837 0.14684 0.33915 0.0
H226 H 0.46699 0.06027 0.50227 0.0
H227 H 0.45595 0.0903 0.45569 0.0
C228 C 0.31091 0.48532 0.32853 0.0
C229 C 0.29922 0.4673 0.33303 0.0
C230 C 0.32748 0.48953 0.36892 0.0
C231 C 0.36424 0.46444 0.46177 0.0
H232 H 0.37798 0.51768 0.53446 0.0
C233 C 0.43318 0.48212 0.62575 0.0
C234 C 0.44577 0.49915 0.61071 0.0
C235 C 0.41423 0.47854 0.59739 0.0
C236 C 0.37439 0.50277 0.5141 0.0
H237 H 0.2949 0.43963 0.38306 0.0
H238 H 0.32383 0.447 0.45489 0.0
H239 H 0.34629 0.51081 0.47654 0.0
H240 H 0.44814 0.52594 0.55477 0.0
H241 H 0.41507 0.5196 0.50497 0.0
H242 H 0.39243 0.45644 0.49867 0.0
C243 C 0.32044 0.45782 0.41973 0.0
C244 C 0.35626 0.49883 0.48098 0.0
C245 C 0.30386 0.45363 0.37914 0.0
C246 C 0.43883 0.51269 0.56747 0.0
C247 C 0.41982 0.50912 0.53924 0.0
C248 C 0.38234 0.46837 0.49501 0.0
C249 C 0.33258 0.47573 0.41447 0.0
C250 C 0.35109 0.47966 0.45381 0.0
C251 C 0.40741 0.49192 0.55346 0.0
C252 C 0.38771 0.48762 0.52095 0.0
H253 H 0.3075 0.49598 0.29275 0.0
H254 H 0.33666 0.50331 0.3629 0.0
H255 H 0.36089 0.44959 0.44048 0.0
H256 H 0.43801 0.47137 0.65889 0.0
H257 H 0.40491 0.46528 0.6099 0.0
C258 C 0.03392 0.3049 0.42375 0.0
C259 C 0.05252 0.29657 0.43206 0.0
C260 C 0.0281 0.32106 0.46474 0.0
C261 C 0.05048 0.3629 0.56603 0.0
H262 H 0.99371 0.37057 0.61889 0.0
C263 C 0.02668 0.43595 0.69763 0.0
C264 C 0.01041 0.44444 0.66895 0.0
C265 C 0.03078 0.41615 0.6821 0.0
C266 C 0.00962 0.36863 0.60448 0.0
H267 H 0.07955 0.29779 0.48966 0.0
H268 H 0.06935 0.32609 0.56245 0.0
H269 H 0.00311 0.33874 0.56721 0.0
H270 H 0.98496 0.43837 0.60446 0.0
H271 H 0.9922 0.40397 0.57717 0.0
H272 H 0.05693 0.39292 0.60162 0.0
C273 C 0.0593 0.32034 0.52395 0.0
C274 C 0.01501 0.35043 0.57482 0.0
C275 C 0.06511 0.30414 0.48273 0.0
C276 C 0.99766 0.43237 0.6273 0.0
C277 C 0.00174 0.41257 0.61192 0.0
C278 C 0.0451 0.38107 0.59582 0.0
C279 C 0.04084 0.32916 0.5148 0.0
C280 C 0.03544 0.34751 0.55385 0.0
C281 C 0.01865 0.4044 0.63778 0.0
C282 C 0.02455 0.38429 0.61404 0.0
H283 H 0.02409 0.29922 0.38448 0.0
H284 H 0.01397 0.32766 0.45553 0.0
H285 H 0.0663 0.36128 0.5497 0.0
H286 H 0.03675 0.44475 0.73027 0.0
H287 H 0.04374 0.41018 0.70357 0.0
C288 C 0.79677 0.94336 0.95489 0.0
C289 C 0.78976 0.95667 0.00527 0.0
C290 C 0.81445 0.94845 0.91588 0.0
C291 C 0.84955 0.99126 0.86693 0.0
H292 H 0.88906 0.95117 0.83521 0.0
C293 C 0.93411 0.00975 0.78419 0.0
C294 C 0.94367 0.99637 0.73874 0.0
C295 C 0.91423 0.00528 0.81008 0.0
C296 C 0.87807 0.96247 0.84268 0.0
H297 H 0.79501 0.9856 0.05471 0.0
H298 H 0.82607 0.99452 0.98722 0.0
H299 H 0.85622 0.94258 0.89207 0.0
H300 H 0.93954 0.96806 0.68329 0.0
H301 H 0.90487 0.96041 0.728 0.0
H302 H 0.87161 0.01124 0.81847 0.0
C303 C 0.81792 0.98031 0.97683 0.0
C304 C 0.85923 0.95753 0.87527 0.0
C305 C 0.80026 0.9752 0.01572 0.0
C306 C 0.9327 0.97869 0.71842 0.0
C307 C 0.91285 0.97422 0.74433 0.0
C308 C 0.86842 0.99621 0.83434 0.0
C309 C 0.82534 0.96691 0.92684 0.0
C310 C 0.84482 0.97191 0.88839 0.0
C311 C 0.90348 0.98733 0.79116 0.0
C312 C 0.88297 0.98191 0.8224 0.0
H313 H 0.78873 0.92899 0.94621 0.0
H314 H 0.81962 0.9379 0.87727 0.0
H315 H 0.83866 0.00261 0.87538 0.0
H316 H 0.94212 0.02349 0.80101 0.0
H317 H 0.90754 0.01561 0.84658 0.0
C318 C 0.5865 0.81334 0.03951 0.0
C319 C 0.57834 0.79444 0.01927 0.0
C320 C 0.58091 0.83016 0.00901 0.0
C321 C 0.53955 0.84773 0.9141 0.0
H322 H 0.57846 0.89251 0.88293 0.0
C323 C 0.51898 0.9163 0.7773 0.0
C324 C 0.52585 0.93502 0.80405 0.0
C325 C 0.52573 0.89898 0.80151 0.0
C326 C 0.56738 0.8802 0.89192 0.0
H327 H 0.55833 0.77785 0.95147 0.0
H328 H 0.54868 0.8073 0.89674 0.0
H329 H 0.5901 0.86226 0.92581 0.0
H330 H 0.54518 0.95043 0.87678 0.0
H331 H 0.55697 0.92008 0.91958 0.0
H332 H 0.51684 0.86569 0.88028 0.0
C333 C 0.55921 0.80924 0.93666 0.0
C334 C 0.57404 0.86285 0.91642 0.0
C335 C 0.56481 0.79239 0.96741 0.0
C336 C 0.53963 0.93615 0.85543 0.0
C337 C 0.54647 0.91879 0.87953 0.0
C338 C 0.53291 0.86505 0.8894 0.0
C339 C 0.56702 0.82836 0.95766 0.0
C340 C 0.56018 0.84644 0.92823 0.0
C341 C 0.53957 0.90001 0.85283 0.0
C342 C 0.54672 0.88152 0.87839 0.0
H343 H 0.59683 0.81515 0.08004 0.0
H344 H 0.58698 0.84462 0.02717 0.0
H345 H 0.52839 0.83553 0.92369 0.0
H346 H 0.50841 0.91503 0.73741 0.0
H347 H 0.52032 0.88476 0.77933 0.0
C348 C 0.70435 0.55247 0.00934 0.0
C349 C 0.71048 0.53737 0.04761 0.0
C350 C 0.68715 0.54911 0.97093 0.0
C351 C 0.63947 0.51746 0.96319 0.0
H352 H 0.63802 0.53533 0.78331 0.0
C353 C 0.57103 0.49588 0.80225 0.0
C354 C 0.56381 0.51083 0.76525 0.0
C355 C 0.58971 0.49885 0.83264 0.0
C356 C 0.63813 0.53042 0.83374 0.0
H357 H 0.70427 0.50699 0.07574 0.0
H358 H 0.67427 0.50098 0.00847 0.0
H359 H 0.66934 0.54127 0.8442 0.0
H360 H 0.57071 0.54055 0.7303 0.0
H361 H 0.6032 0.54581 0.78417 0.0
H362 H 0.60831 0.50683 0.95348 0.0
C363 C 0.68245 0.51545 0.00837 0.0
C364 C 0.65606 0.53381 0.86853 0.0
C365 C 0.69962 0.51882 0.04649 0.0
C366 C 0.5759 0.52866 0.75808 0.0
C367 C 0.59456 0.53167 0.7888 0.0
C368 C 0.62158 0.51412 0.9286 0.0
C369 C 0.67587 0.53063 0.97079 0.0
C370 C 0.65692 0.52728 0.93353 0.0
C371 C 0.60155 0.51688 0.82715 0.0
C372 C 0.62071 0.52047 0.86337 0.0
H373 H 0.71264 0.56691 0.00994 0.0
H374 H 0.68236 0.56112 0.94287 0.0
H375 H 0.63952 0.51259 0.0137 0.0
H376 H 0.56218 0.4819 0.8083 0.0
H377 H 0.59484 0.48701 0.86077 0.0
C378 C 0.96237 0.71553 0.87912 0.0
C379 C 0.95674 0.71377 0.94682 0.0
C380 C 0.97059 0.69954 0.84221 0.0
C381 C 0.99511 0.65241 0.8628 0.0
H382 H 0.97484 0.63714 0.68862 0.0
C383 C 0.01993 0.5813 0.72202 0.0
C384 C 0.00384 0.56896 0.69614 0.0
C385 C 0.01695 0.60107 0.74198 0.0
C386 C 0.98068 0.64123 0.73716 0.0
H387 H 0.95507 0.6945 0.02982 0.0
H388 H 0.96915 0.66648 0.96571 0.0
H389 H 0.96414 0.66762 0.74683 0.0
H390 H 0.97226 0.56801 0.66794 0.0
H391 H 0.96698 0.60225 0.70368 0.0
H392 H 0.01078 0.62562 0.85501 0.0
C393 C 0.96764 0.68014 0.94089 0.0
C394 C 0.97471 0.6588 0.77021 0.0
C395 C 0.95944 0.69607 0.97751 0.0
C396 C 0.98504 0.57711 0.68741 0.0
C397 C 0.98202 0.59682 0.70768 0.0
C398 C 0.00103 0.63487 0.82991 0.0
C399 C 0.97332 0.68165 0.8728 0.0
C400 C 0.98147 0.66433 0.83412 0.0
C401 C 0.99777 0.6089 0.73684 0.0
C402 C 0.99354 0.62883 0.76732 0.0
H403 H 0.96038 0.72919 0.85485 0.0
H404 H 0.97494 0.7012 0.78999 0.0
H405 H 0.00086 0.65642 0.91152 0.0
H406 H 0.03467 0.57554 0.72891 0.0
H407 H 0.02951 0.61008 0.76313 0.0
C408 C 0.06569 0.19754 0.48472 0.0
C409 C 0.04797 0.20626 0.46778 0.0
C410 C 0.06414 0.18085 0.52346 0.0
C411 C 0.03019 0.14634 0.622 0.0
H412 H 0.05058 0.10624 0.49549 0.0
C413 C 0.99923 0.06416 0.62315 0.0
C414 C 0.01157 0.04943 0.5952 0.0
C415 C 0.00616 0.0842 0.62236 0.0
C416 C 0.04524 0.11705 0.53283 0.0
H417 H 0.01506 0.20589 0.48269 0.0
H418 H 0.01234 0.177 0.55209 0.0
H419 H 0.05925 0.14093 0.47753 0.0
H420 H 0.04124 0.04367 0.54881 0.0
H421 H 0.0539 0.07833 0.55092 0.0
H422 H 0.01618 0.12241 0.67761 0.0
C423 C 0.0274 0.18302 0.53579 0.0
C424 C 0.05021 0.13706 0.52222 0.0
C425 C 0.02893 0.19957 0.49634 0.0
C426 C 0.03126 0.05487 0.56917 0.0
C427 C 0.03845 0.07479 0.57022 0.0
C428 C 0.02557 0.1262 0.63365 0.0
C429 C 0.04485 0.17279 0.54601 0.0
C430 C 0.04238 0.1519 0.56572 0.0
C431 C 0.02582 0.08985 0.59512 0.0
C432 C 0.03259 0.11126 0.58815 0.0
H433 H 0.08046 0.20228 0.46215 0.0
H434 H 0.0778 0.17321 0.53079 0.0
H435 H 0.02392 0.15756 0.65613 0.0
H436 H 0.98403 0.06018 0.64403 0.0
H437 H 0.99582 0.09523 0.64128 0.0
C438 C 0.31464 0.01658 0.40666 0.0
C439 C 0.31058 0.03668 0.40491 0.0
C440 C 0.32929 0.01075 0.44824 0.0
C441 C 0.36433 0.02668 0.5824 0.0
H442 H 0.40271 0.99645 0.47205 0.0
C443 C 0.43632 0.99436 0.68008 0.0
C444 C 0.45437 0.9962 0.63948 0.0
C445 C 0.41787 0.99998 0.65758 0.0
C446 C 0.39221 0.00497 0.50338 0.0
H447 H 0.31704 0.06617 0.44895 0.0
H448 H 0.34273 0.05599 0.52223 0.0
H449 H 0.3703 0.0037 0.42817 0.0
H450 H 0.46748 0.00539 0.54411 0.0
H451 H 0.43512 0.01522 0.5043 0.0
H452 H 0.3866 0.0281 0.65734 0.0
C453 C 0.33453 0.04472 0.49188 0.0
C454 C 0.37349 0.00887 0.47868 0.0
C455 C 0.31977 0.05055 0.45029 0.0
C456 C 0.45376 0.00397 0.57635 0.0
C457 C 0.43525 0.00943 0.55354 0.0
C458 C 0.38306 0.02259 0.60746 0.0
C459 C 0.34024 0.02496 0.48834 0.0
C460 C 0.35936 0.0198 0.51776 0.0
C461 C 0.41709 0.00732 0.59373 0.0
C462 C 0.39723 0.01182 0.56789 0.0
H463 H 0.30778 0.00569 0.3717 0.0
H464 H 0.3331 0.99535 0.44551 0.0
H465 H 0.35376 0.03519 0.61347 0.0
H466 H 0.43645 0.98854 0.72928 0.0
H467 H 0.40411 0.99806 0.68941 0.0
C468 C 0.44011 0.31498 0.45233 0.0
C469 C 0.4531 0.30755 0.40076 0.0
C470 C 0.44703 0.33086 0.49454 0.0
C471 C 0.49276 0.36497 0.53454 0.0
H472 H 0.45326 0.4053 0.53756 0.0
C473 C 0.51164 0.44719 0.62327 0.0
C474 C 0.50433 0.46155 0.58405 0.0
C475 C 0.50535 0.42709 0.61315 0.0
C476 C 0.46449 0.39422 0.5371 0.0
H477 H 0.48373 0.30963 0.35548 0.0
H478 H 0.49591 0.33724 0.42867 0.0
H479 H 0.44291 0.37117 0.50457 0.0
H480 H 0.48516 0.46628 0.50255 0.0
H481 H 0.47448 0.43122 0.48374 0.0
H482 H 0.51462 0.38842 0.56357 0.0
C483 C 0.48052 0.3308 0.43782 0.0
C484 C 0.45847 0.37453 0.51925 0.0
C485 C 0.4736 0.3149 0.3959 0.0
C486 C 0.491 0.45549 0.53355 0.0
C487 C 0.4847 0.43543 0.5234 0.0
C488 C 0.4988 0.38474 0.55238 0.0
C489 C 0.46698 0.33969 0.4852 0.0
C490 C 0.47264 0.35971 0.51604 0.0
C491 C 0.49167 0.42099 0.56339 0.0
C492 C 0.48485 0.39968 0.55199 0.0
H493 H 0.42413 0.30972 0.45613 0.0
H494 H 0.43632 0.3371 0.53137 0.0
H495 H 0.50403 0.35392 0.53321 0.0
H496 H 0.52222 0.45152 0.66179 0.0
H497 H 0.51098 0.41638 0.64487 0.0
C498 C 0.20068 0.4816 0.38093 0.0
C499 C 0.21245 0.49676 0.34915 0.0
C500 C 0.18349 0.48602 0.4214 0.0
C501 C 0.14643 0.52559 0.44395 0.0
H502 H 0.12104 0.48854 0.56865 0.0
C503 C 0.05942 0.5231 0.51088 0.0
C504 C 0.05205 0.51507 0.5711 0.0
C505 C 0.08034 0.52327 0.49223 0.0
C506 C 0.12787 0.49945 0.53524 0.0
H507 H 0.21674 0.52848 0.33861 0.0
H508 H 0.18764 0.53652 0.41359 0.0
H509 H 0.15618 0.48557 0.53128 0.0
H510 H 0.06068 0.50079 0.65849 0.0
H511 H 0.09691 0.50327 0.63086 0.0
H512 H 0.11847 0.54022 0.4511 0.0
C513 C 0.19097 0.52109 0.40508 0.0
C514 C 0.14812 0.49743 0.51248 0.0
C515 C 0.2079 0.51658 0.36315 0.0
C516 C 0.06595 0.50772 0.61291 0.0
C517 C 0.08683 0.50862 0.59581 0.0
C518 C 0.12634 0.52801 0.46838 0.0
C519 C 0.1779 0.50579 0.43207 0.0
C520 C 0.15753 0.51003 0.46475 0.0
C521 C 0.09439 0.51589 0.53433 0.0
C522 C 0.11651 0.51463 0.51299 0.0
H523 H 0.20369 0.46617 0.36969 0.0
H524 H 0.17385 0.47369 0.44003 0.0
H525 H 0.15288 0.53555 0.40674 0.0
H526 H 0.04898 0.52864 0.47728 0.0
H527 H 0.08529 0.52864 0.44385 0.0
C528 C 0.98654 0.81403 0.91597 0.0
C529 C 0.96704 0.80433 0.91162 0.0
C530 C 0.99258 0.82965 0.87502 0.0
C531 C 0.00305 0.86321 0.78274 0.0
H532 H 0.95857 0.89845 0.79065 0.0
C533 C 0.01518 0.94641 0.72154 0.0
C534 C 0.00497 0.95961 0.76577 0.0
C535 C 0.01068 0.92591 0.72378 0.0
C536 C 0.97117 0.8888 0.788 0.0
H537 H 0.93929 0.80186 0.8575 0.0
H538 H 0.95001 0.82891 0.78414 0.0
H539 H 0.95151 0.86376 0.81529 0.0
H540 H 0.98246 0.9619 0.84796 0.0
H541 H 0.97491 0.92613 0.85325 0.0
H542 H 0.02287 0.88869 0.75973 0.0
C543 C 0.96054 0.82469 0.81988 0.0
C544 C 0.96707 0.86877 0.80099 0.0
C545 C 0.9545 0.80903 0.86107 0.0
C546 C 0.9905 0.95201 0.81318 0.0
C547 C 0.986 0.93154 0.81555 0.0
C548 C 0.00716 0.88329 0.76991 0.0
C549 C 0.97916 0.83592 0.82911 0.0
C550 C 0.98305 0.85585 0.80075 0.0
C551 C 0.99595 0.91823 0.77064 0.0
C552 C 0.99134 0.89645 0.7747 0.0
H553 H 0.99631 0.81077 0.95534 0.0
H554 H 0.00694 0.83797 0.88405 0.0
H555 H 0.01568 0.85362 0.78133 0.0
H556 H 0.0267 0.95196 0.68536 0.0
H557 H 0.0186 0.91609 0.68848 0.0
C558 C 0.70108 0.9864 0.93222 0.0
C559 C 0.7015 0.96641 0.94752 0.0
C560 C 0.68651 0.99219 0.89014 0.0
C561 C 0.64181 0.9984 0.87406 0.0
H562 H 0.6208 0.97431 0.71014 0.0
C563 C 0.55933 0.00663 0.79934 0.0
C564 C 0.55781 0.0138 0.73569 0.0
C565 C 0.57789 1.00011 0.81823 0.0
C566 C 0.62658 0.98115 0.75591 0.0
H567 H 0.68856 0.93657 0.9269 0.0
H568 H 0.66333 0.94661 0.85183 0.0
H569 H 0.65386 0.96505 0.74736 0.0
H570 H 0.57401 0.01909 0.6408 0.0
H571 H 0.60635 0.00739 0.67355 0.0
H572 H 0.6144 0.01404 0.88395 0.0
C573 C 0.67424 0.95779 0.87197 0.0
C574 C 0.64542 0.97589 0.77703 0.0
C575 C 0.68875 0.95202 0.91448 0.0
C576 C 0.57489 0.01381 0.69052 0.0
C577 C 0.59331 0.00697 0.70893 0.0
C578 C 0.6229 0.00337 0.85365 0.0
C579 C 0.67219 0.97805 0.86287 0.0
C580 C 0.65321 0.98453 0.83627 0.0
C581 C 0.59507 1.00036 0.77328 0.0
C582 C 0.61506 0.99476 0.79458 0.0
H583 H 0.71053 0.99774 0.95825 0.0
H584 H 0.68534 0.00789 0.88333 0.0
H585 H 0.64726 0.00501 0.92062 0.0
H586 H 0.54633 0.00651 0.83488 0.0
H587 H 0.57887 0.99496 0.86805 0.0
C588 C 0.54509 0.70236 0.935 0.0
C589 C 0.56345 0.70169 0.9673 0.0
C590 C 0.53874 0.68672 0.89075 0.0
C591 C 0.55453 0.63788 0.81153 0.0
H592 H 0.49792 0.62104 0.85502 0.0
C593 C 0.52394 0.55615 0.82254 0.0
C594 C 0.50604 0.55047 0.78937 0.0
C595 C 0.53093 0.57615 0.82799 0.0
C596 C 0.51366 0.62568 0.84154 0.0
H597 H 0.59029 0.68526 0.97573 0.0
H598 H 0.57935 0.658 0.9 0.0
H599 H 0.51078 0.65456 0.88778 0.0
H600 H 0.48115 0.56094 0.7369 0.0
H601 H 0.49297 0.5962 0.74893 0.0
H602 H 0.55758 0.60828 0.76978 0.0
C603 C 0.56985 0.67052 0.90687 0.0
C604 C 0.52106 0.64498 0.85981 0.0
C605 C 0.5762 0.68617 0.95046 0.0
C606 C 0.495 0.56507 0.7628 0.0
C607 C 0.50175 0.58514 0.7695 0.0
C608 C 0.5472 0.61847 0.79438 0.0
C609 C 0.55055 0.67007 0.87898 0.0
C610 C 0.54179 0.65116 0.84701 0.0
C611 C 0.51987 0.59083 0.80169 0.0
C612 C 0.52686 0.61205 0.81095 0.0
H613 H 0.53493 0.71411 0.94802 0.0
H614 H 0.52401 0.68711 0.86907 0.0
H615 H 0.57042 0.6422 0.7993 0.0
H616 H 0.53277 0.5451 0.843 0.0
H617 H 0.54482 0.5802 0.85375 0.0
C618 C 0.81024 0.54867 0.96086 0.0
C619 C 0.80206 0.5296 0.97585 0.0
C620 C 0.82708 0.55095 0.91567 0.0
C621 C 0.86213 0.5251 0.79478 0.0
H622 H 0.90449 0.55031 0.90362 0.0
C623 C 0.94575 0.50435 0.76278 0.0
C624 C 0.96148 0.5181 0.78269 0.0
C625 C 0.92534 0.50912 0.77093 0.0
C626 C 0.89299 0.54368 0.87119 0.0
H627 H 0.80334 0.49815 0.95087 0.0
H628 H 0.83242 0.5021 0.8707 0.0
H629 H 0.86892 0.55352 0.93788 0.0
H630 H 0.96861 0.54793 0.82296 0.0
H631 H 0.93307 0.55668 0.83492 0.0
H632 H 0.88624 0.51502 0.72836 0.0
C633 C 0.82598 0.51529 0.89368 0.0
C634 C 0.87249 0.54553 0.89106 0.0
C635 C 0.80935 0.51301 0.9395 0.0
C636 C 0.95663 0.53695 0.8086 0.0
C637 C 0.93625 0.54191 0.81545 0.0
C638 C 0.8827 0.52355 0.77409 0.0
C639 C 0.83576 0.53418 0.88445 0.0
C640 C 0.85687 0.53573 0.85434 0.0
C641 C 0.92026 0.52791 0.79812 0.0
C642 C 0.89843 0.5322 0.8134 0.0
H643 H 0.80498 0.56165 0.98891 0.0
H644 H 0.83429 0.56567 0.90909 0.0
H645 H 0.85035 0.51746 0.76548 0.0
H646 H 0.94922 0.48972 0.74241 0.0
H647 H 0.91358 0.49778 0.75796 0.0
C648 C 0.02433 0.18886 0.22499 0.0
C649 C 0.04136 0.20265 0.2241 0.0
C650 C 0.02177 0.17462 0.17305 0.0
C651 C 0.03149 0.15907 0.00324 0.0
H652 H 0.03651 0.10675 0.06975 0.0
C653 C 0.02962 0.0873 0.83079 0.0
C654 C 0.01983 0.07015 0.85755 0.0
C655 C 0.03306 0.10454 0.87134 0.0
C656 C 0.03477 0.12118 0.05033 0.0
H657 H 0.06816 0.21336 0.16539 0.0
H658 H 0.06329 0.18851 0.07307 0.0
H659 H 0.03987 0.13595 0.14524 0.0
H660 H 0.00538 0.05757 0.94647 0.0
H661 H 0.01061 0.08768 0.0166 0.0
H662 H 0.02548 0.14428 0.90883 0.0
C663 C 0.05214 0.18876 0.11476 0.0
C664 C 0.03687 0.13788 0.09352 0.0
C665 C 0.05487 0.20295 0.16737 0.0
C666 C 0.0132 0.07055 0.92492 0.0
C667 C 0.01636 0.0878 0.96515 0.0
C668 C 0.02902 0.14225 0.95995 0.0
C669 C 0.03598 0.1741 0.1186 0.0
C670 C 0.03501 0.15689 0.07057 0.0
C671 C 0.02654 0.10496 0.93919 0.0
C672 C 0.03033 0.12306 0.98332 0.0
H673 H 0.01341 0.18854 0.26731 0.0
H674 H 0.00909 0.16351 0.17652 0.0
H675 H 0.02999 0.17367 0.98478 0.0
H676 H 0.03481 0.08733 0.77873 0.0
H677 H 0.04109 0.11739 0.84974 0.0
C678 C 0.32632 0.02789 0.14528 0.0
C679 C 0.31937 0.04668 0.16414 0.0
C680 C 0.34194 0.02589 0.09626 0.0
C681 C 0.3863 0.05519 0.0265 0.0
H682 H 0.39271 0.00737 0.91426 0.0
C683 C 0.4562 0.04205 0.84395 0.0
C684 C 0.46415 0.02321 0.84403 0.0
C685 C 0.43826 0.04606 0.88118 0.0
C686 C 0.39115 0.02074 0.94572 0.0
H687 H 0.3221 0.0779 0.1432 0.0
H688 H 0.34925 0.0744 0.05575 0.0
H689 H 0.35991 0.01255 0.97328 0.0
H690 H 0.45992 0.99402 0.88486 0.0
H691 H 0.4285 0.00106 0.94998 0.0
H692 H 0.41761 0.06333 -0.00155 0.0
C693 C 0.34289 0.06126 0.08003 0.0
C694 C 0.37237 0.02375 0.97936 0.0
C695 C 0.32719 0.06325 0.12938 0.0
C696 C 0.45428 0.00873 0.88427 0.0
C697 C 0.43617 0.01266 0.92084 0.0
C698 C 0.40503 0.05226 0.99224 0.0
C699 C 0.35093 0.04265 0.06467 0.0
C700 C 0.36984 0.04081 0.02133 0.0
C701 C 0.42778 0.03122 0.91849 0.0
C702 C 0.40774 0.03482 0.95268 0.0
H703 H 0.32041 0.01486 0.17118 0.0
H704 H 0.34779 0.01136 0.0863 0.0
H705 H 0.38502 0.06835 0.05917 0.0
H706 H 0.46348 0.05351 0.81332 0.0
H707 H 0.43211 0.06048 0.87846 0.0
C708 C 0.41912 0.33087 0.1856 0.0
C709 C 0.43 0.31372 0.17438 0.0
C710 C 0.42045 0.34549 0.13872 0.0
C711 C 0.44009 0.358 0.96773 0.0
H712 H 0.45101 0.4101 0.05361 0.0
C713 C 0.48153 0.42419 0.83338 0.0
C714 C 0.47461 0.44317 0.84918 0.0
C715 C 0.47332 0.40784 0.86801 0.0
C716 C 0.44767 0.39574 0.02866 0.0
H717 H 0.44966 0.29765 0.10403 0.0
H718 H 0.45236 0.32339 0.02223 0.0
H719 H 0.44036 0.38212 0.12101 0.0
H720 H 0.45342 0.45999 0.91184 0.0
H721 H 0.439 0.43144 0.97222 0.0
H722 H 0.44806 0.37175 0.87529 0.0
C723 C 0.44254 0.32547 0.06668 0.0
C724 C 0.44149 0.37966 0.06733 0.0
C725 C 0.44103 0.31072 0.11343 0.0
C726 C 0.45913 0.44552 0.89919 0.0
C727 C 0.45093 0.42919 0.93379 0.0
C728 C 0.44634 0.37415 0.9289 0.0
C729 C 0.43293 0.34337 0.08012 0.0
C730 C 0.43776 0.36057 0.03749 0.0
C731 C 0.45806 0.4102 0.91905 0.0
C732 C 0.45035 0.39316 0.95911 0.0
H733 H 0.41038 0.33339 0.23214 0.0
H734 H 0.41243 0.35888 0.14981 0.0
H735 H 0.43719 0.34351 0.9432 0.0
H736 H 0.4934 0.42202 0.79469 0.0
H737 H 0.4793 0.39345 0.85598 0.0
C738 C 0.20561 0.47126 0.08271 0.0
C739 C 0.21788 0.48756 0.10674 0.0
C740 C 0.19126 0.47382 0.03552 0.0
C741 C 0.16103 0.51412 0.98495 0.0
H742 H 0.13711 0.47218 0.86902 0.0
C743 C 0.09037 0.5227 0.83048 0.0
C744 C 0.0745 0.50798 0.84034 0.0
C745 C 0.10956 0.52066 0.85524 0.0
C746 C 0.14371 0.484 0.90121 0.0
H747 H 0.22633 0.51881 0.09722 0.0
H748 H 0.20216 0.52318 0.01149 0.0
H749 H 0.16979 0.46782 0.91779 0.0
H750 H 0.06607 0.47961 0.88315 0.0
H751 H 0.09987 0.4759 0.92587 0.0
H752 H 0.13495 0.53028 0.96771 0.0
C753 C 0.20294 0.50856 0.03062 0.0
C754 C 0.16237 0.48153 0.92926 0.0
C755 C 0.21699 0.50606 0.07887 0.0
C756 C 0.07805 0.49122 0.87545 0.0
C757 C 0.09737 0.48901 0.89921 0.0
C758 C 0.1426 0.51671 0.95596 0.0
C759 C 0.18914 0.49272 0.01104 0.0
C760 C 0.17104 0.49637 0.97281 0.0
C761 C 0.11327 0.50369 0.8891 0.0
C762 C 0.13358 0.5015 0.91513 0.0
H763 H 0.2059 0.45694 0.10456 0.0
H764 H 0.18083 0.46129 0.02238 0.0
H765 H 0.16689 0.52573 0.01931 0.0
H766 H 0.08799 0.53571 0.80315 0.0
H767 H 0.12163 0.53216 0.84689 0.0
C768 C 0.9318 0.82715 0.14459 0.0
C769 C 0.94263 0.80999 0.14686 0.0
C770 C 0.93337 0.842 0.19513 0.0
C771 C 0.95335 0.85561 0.36206 0.0
H772 H 0.96561 0.90674 0.28432 0.0
C773 C 0.99296 0.92316 0.50398 0.0
C774 C 0.98598 0.94193 0.49389 0.0
C775 C 0.98568 0.90646 0.46618 0.0
C776 C 0.96192 0.89267 0.30713 0.0
H777 H 0.96234 0.79408 0.20538 0.0
H778 H 0.96537 0.82022 0.29385 0.0
H779 H 0.95475 0.8782 0.21374 0.0
H780 H 0.96577 0.95807 0.4377 0.0
H781 H 0.95294 0.92897 0.37205 0.0
H782 H 0.96096 0.87021 0.45552 0.0
C783 C 0.95546 0.82213 0.25351 0.0
C784 C 0.95562 0.87628 0.26665 0.0
C785 C 0.95373 0.80715 0.20303 0.0
C786 C 0.97154 0.94377 0.4459 0.0
C787 C 0.96424 0.92711 0.40827 0.0
C788 C 0.95965 0.87209 0.40277 0.0
C789 C 0.94603 0.84007 0.24846 0.0
C790 C 0.95131 0.85755 0.29349 0.0
C791 C 0.97129 0.90828 0.41773 0.0
C792 C 0.96408 0.89078 0.37559 0.0
H793 H 0.92306 0.82956 0.10175 0.0
H794 H 0.92552 0.85545 0.19067 0.0
H795 H 0.95006 0.84138 0.38419 0.0
H796 H 0.00403 0.92137 0.54105 0.0
H797 H 0.99159 0.89221 0.47412 0.0
C798 C 0.6782 0.98207 0.19514 0.0
C799 C 0.68809 0.96419 0.18966 0.0
C800 C 0.66196 0.98453 0.24146 0.0
C801 C 0.63526 0.96634 0.39294 0.0
H802 H 0.58772 0.98513 0.31433 0.0
C803 C 0.5576 0.97046 0.53975 0.0
C804 C 0.54704 0.98767 0.53326 0.0
C805 C 0.5745 0.96642 0.49734 0.0
C806 C 0.6009 0.98007 0.33729 0.0
H807 H 0.6898 0.93543 0.23124 0.0
H808 H 0.66121 0.93983 0.31356 0.0
H809 H 0.61898 0.98099 0.24583 0.0
H810 H 0.5457 0.0139 0.47605 0.0
H811 H 0.57528 0.00698 0.40251 0.0
H812 H 0.61727 0.9658 0.48484 0.0
C813 C 0.66607 0.95185 0.28151 0.0
C814 C 0.61879 0.97768 0.29804 0.0
C815 C 0.68241 0.94935 0.23473 0.0
C816 C 0.55336 1.00042 0.48204 0.0
C817 C 0.57033 0.99643 0.4398 0.0
C818 C 0.61735 0.96888 0.43249 0.0
C819 C 0.65526 0.9692 0.28349 0.0
C820 C 0.63621 0.97099 0.32558 0.0
C821 C 0.58128 0.97953 0.4476 0.0
C822 C 0.60002 0.97594 0.40518 0.0
H823 H 0.68254 0.99386 0.16158 0.0
H824 H 0.6542 0.99824 0.24303 0.0
H825 H 0.64851 0.96124 0.41538 0.0
H826 H 0.55311 0.96026 0.57856 0.0
H827 H 0.58235 0.95309 0.5039 0.0
C828 C 0.57919 0.70034 0.25687 0.0
C829 C 0.56365 0.70207 0.21243 0.0
C830 C 0.57614 0.68738 0.30921 0.0
C831 C 0.57011 0.64717 0.3734 0.0
H832 H 0.51754 0.63858 0.46847 0.0
C833 C 0.54258 0.5723 0.4832 0.0
C834 C 0.53054 0.5725 0.54289 0.0
C835 C 0.5485 0.59008 0.45272 0.0
C836 C 0.53244 0.64092 0.44324 0.0
H837 H 0.53243 0.69273 0.18988 0.0
H838 H 0.52708 0.67019 0.28072 0.0
H839 H 0.52407 0.66757 0.40148 0.0
H840 H 0.51586 0.59128 0.61914 0.0
H841 H 0.52635 0.62234 0.5664 0.0
H842 H 0.57837 0.62034 0.41451 0.0
C843 C 0.54159 0.67877 0.27568 0.0
C844 C 0.53611 0.65746 0.40438 0.0
C845 C 0.54469 0.69155 0.22333 0.0
C846 C 0.52497 0.59073 0.57264 0.0
C847 C 0.53094 0.6085 0.54237 0.0
C848 C 0.56644 0.6306 0.4123 0.0
C849 C 0.55743 0.67615 0.31822 0.0
C850 C 0.55478 0.66049 0.36768 0.0
C851 C 0.54254 0.60836 0.48159 0.0
C852 C 0.54738 0.62704 0.44637 0.0
H853 H 0.59398 0.70826 0.24924 0.0
H854 H 0.58856 0.68578 0.34159 0.0
H855 H 0.58461 0.64901 0.34533 0.0
H856 H 0.54708 0.5584 0.45942 0.0
H857 H 0.55721 0.58942 0.40548 0.0
C858 C 0.81325 0.49222 0.19541 0.0
C859 C 0.8025 0.50944 0.20838 0.0
C860 C 0.82724 0.4868 0.24006 0.0
C861 C 0.84604 0.49567 0.40954 0.0
H862 H 0.89933 0.49005 0.32014 0.0
C863 C 0.9209 0.50775 0.54737 0.0
C864 C 0.93772 0.49698 0.52511 0.0
C865 C 0.9029 0.50591 0.51291 0.0
C866 C 0.88453 0.49111 0.3461 0.0
H867 H 0.79686 0.53364 0.28063 0.0
H868 H 0.82118 0.52401 0.35914 0.0
H869 H 0.86955 0.49196 0.25452 0.0
H870 H 0.94879 0.47524 0.45146 0.0
H871 H 0.91712 0.47154 0.39196 0.0
H872 H 0.86107 0.49498 0.50127 0.0
C873 C 0.81876 0.51473 0.31435 0.0
C874 C 0.86744 0.49225 0.30836 0.0
C875 C 0.80482 0.52023 0.26943 0.0
C876 C 0.93607 0.48386 0.46909 0.0
C877 C 0.91796 0.48183 0.43496 0.0
C878 C 0.86314 0.4943 0.44744 0.0
C879 C 0.83065 0.4984 0.29882 0.0
C880 C 0.8481 0.4949 0.33964 0.0
C881 C 0.90125 0.49308 0.45583 0.0
C882 C 0.88267 0.49241 0.41614 0.0
H883 H 0.81147 0.48339 0.14931 0.0
H884 H 0.83596 0.47394 0.22744 0.0
H885 H 0.83126 0.49756 0.43485 0.0
H886 H 0.92179 0.51795 0.59067 0.0
H887 H 0.89052 0.51505 0.52993 0.0
loop_
_geom_bond_atom_site_label_1
_geom_bond_atom_site_label_2
_geom_bond_distance
_geom_bond_site_symmetry_2
_ccdc_geom_bond_type
H0 C3 0.929 . S
H1 C6 0.929 1_556 S
H2 C8 0.930 . S
C3 H0 0.929 . S
C3 C4 1.398 . S
C3 C5 1.396 . S
C4 C3 1.398 . S
C4 C8 1.407 . S
C5 C3 1.396 . S
C5 C6 1.394 . S
C6 H1 0.929 1_554 S
C6 C5 1.394 . S
C6 C7 1.382 . S
C7 C6 1.382 . S
C7 C8 1.392 . S
C7 N9 1.420 . S
C8 H2 0.930 . S
C8 C4 1.407 . S
C8 C7 1.392 . S
N9 C7 1.420 . S
N9 C10 1.244 . S
C10 N9 1.244 . S
H11 C14 0.929 . S
H12 C17 0.929 . S
H13 C19 0.930 . S
C14 H11 0.929 . S
C14 C15 1.398 . S
C14 C16 1.396 1_554 S
C15 C14 1.398 . S
C15 C19 1.407 . S
C16 C14 1.396 1_556 S
C16 C17 1.394 . S
C17 H12 0.929 . S
C17 C16 1.394 . S
C17 C18 1.382 1_556 S
C18 C17 1.382 1_554 S
C18 C19 1.392 . S
C18 N20 1.420 . S
C19 H13 0.930 . S
C19 C15 1.407 . S
C19 C18 1.392 . S
N20 C18 1.420 . S
N20 C21 1.244 1_554 S
C21 N20 1.244 1_556 S
H22 C25 0.929 . S
H23 C28 0.929 1_556 S
H24 C30 0.930 . S
C25 H22 0.929 . S
C25 C26 1.398 . S
C25 C27 1.396 . S
C26 C25 1.398 . S
C26 C30 1.407 . S
C27 C25 1.396 . S
C27 C28 1.394 . S
C28 H23 0.929 1_554 S
C28 C27 1.394 . S
C28 C29 1.382 . S
C29 C28 1.382 . S
C29 C30 1.392 . S
C29 N31 1.420 . S
C30 H24 0.930 . S
C30 C26 1.407 . S
C30 C29 1.392 . S
N31 C29 1.420 . S
N31 C32 1.244 . S
C32 N31 1.244 . S
H33 C36 0.929 . S
H34 C39 0.929 1_556 S
H35 C41 0.930 . S
C36 H33 0.929 . S
C36 C37 1.398 . S
C36 C38 1.396 . S
C37 C36 1.398 . S
C37 C41 1.407 . S
C38 C36 1.396 . S
C38 C39 1.394 . S
C39 H34 0.929 1_554 S
C39 C38 1.394 . S
C39 C40 1.382 . S
C40 C39 1.382 . S
C40 C41 1.392 . S
C40 N42 1.420 . S
C41 H35 0.930 . S
C41 C37 1.407 . S
C41 C40 1.392 . S
N42 C40 1.420 . S
N42 C43 1.244 . S
C43 N42 1.244 . S
H44 C47 0.929 . S
H45 C50 0.929 . S
H46 C52 0.930 . S
C47 H44 0.929 . S
C47 C48 1.398 . S
C47 C49 1.396 . S
C48 C47 1.398 . S
C48 C52 1.407 . S
C49 C47 1.396 . S
C49 C50 1.394 . S
C50 H45 0.929 . S
C50 C49 1.394 . S
C50 C51 1.382 . S
C51 C50 1.382 . S
C51 C52 1.392 . S
C51 N53 1.420 . S
C52 H46 0.930 . S
C52 C48 1.407 . S
C52 C51 1.392 . S
N53 C51 1.420 . S
N53 C54 1.244 . S
C54 N53 1.244 . S
H55 C58 0.929 . S
H56 C61 0.929 . S
H57 C63 0.930 . S
C58 H55 0.929 . S
C58 C59 1.398 . S
C58 C60 1.396 . S
C59 C58 1.398 . S
C59 C63 1.407 . S
C60 C58 1.396 . S
C60 C61 1.394 . S
C61 H56 0.929 . S
C61 C60 1.394 . S
C61 C62 1.382 . S
C62 C61 1.382 . S
C62 C63 1.392 . S
C62 N64 1.420 . S
C63 H57 0.930 . S
C63 C59 1.407 . S
C63 C62 1.392 . S
N64 C62 1.420 . S
N64 C65 1.244 . S
C65 N64 1.244 . S
H66 C69 0.929 . S
H67 C72 0.929 . S
H68 C74 0.930 . S
C69 H66 0.929 . S
C69 C70 1.398 . S
C69 C71 1.396 . S
C70 C69 1.398 . S
C70 C74 1.407 . S
C71 C69 1.396 . S
C71 C72 1.394 . S
C72 H67 0.929 . S
C72 C71 1.394 . S
C72 C73 1.382 . S
C73 C72 1.382 . S
C73 C74 1.392 . S
C73 N75 1.420 . S
C74 H68 0.930 . S
C74 C70 1.407 . S
C74 C73 1.392 . S
N75 C73 1.420 . S
N75 C76 1.244 . S
C76 N75 1.244 . S
H77 C80 0.929 . S
H78 C83 0.929 . S
H79 C85 0.930 . S
C80 H77 0.929 . S
C80 C81 1.398 . S
C80 C82 1.396 . S
C81 C80 1.398 . S
C81 C85 1.407 . S
C82 C80 1.396 . S
C82 C83 1.394 . S
C83 H78 0.929 . S
C83 C82 1.394 . S
C83 C84 1.382 . S
C84 C83 1.382 . S
C84 C85 1.392 . S
C84 N86 1.420 . S
C85 H79 0.930 . S
C85 C81 1.407 . S
C85 C84 1.392 . S
N86 C84 1.420 . S
N86 C87 1.244 . S
C87 N86 1.244 . S
Tb88 O91 2.453 1_565 S
Tb88 O92 2.596 1_665 S
Tb88 O93 2.374 1_665 S
Tb88 O101 2.343 1_655 S
Tb88 O103 2.353 1_565 S
Tb88 O105 2.427 . S
Tb88 O106 2.513 1_655 S
C89 O93 1.251 . S
C89 O95 1.263 . S
Tb90 O92 2.343 . S
Tb90 O95 2.353 . S
Tb90 O98 2.427 . S
Tb90 O99 2.513 . S
Tb90 O100 2.453 1_545 S
Tb90 O101 2.596 1_545 S
Tb90 O102 2.374 1_455 S
O91 Tb88 2.453 1_545 S
O91 C107 1.245 1_655 S
O92 Tb88 2.596 1_445 S
O92 Tb90 2.343 . S
O92 C107 1.259 . S
O93 Tb88 2.374 1_445 S
O93 C89 1.251 . S
C94 O98 1.275 . S
C94 O99 1.246 . S
O95 C89 1.263 . S
O95 Tb90 2.353 . S
C96 O100 1.245 . S
C96 O101 1.259 . S
C97 O102 1.250 . S
C97 O103 1.263 . S
O98 Tb90 2.427 . S
O98 C94 1.275 . S
O99 Tb90 2.513 . S
O99 C94 1.246 . S
O100 Tb90 2.453 1_565 S
O100 C96 1.245 . S
O101 Tb88 2.343 1_455 S
O101 Tb90 2.596 1_565 S
O101 C96 1.259 . S
O102 Tb90 2.374 1_655 S
O102 C97 1.250 . S
O103 Tb88 2.353 1_545 S
O103 C97 1.263 . S
C104 O105 1.275 . S
C104 O106 1.246 1_655 S
O105 Tb88 2.427 . S
O105 C104 1.275 . S
O106 Tb88 2.513 1_455 S
O106 C104 1.246 1_455 S
C107 O91 1.245 1_455 S
C107 O92 1.259 . S
Tb108 O111 2.453 . S
Tb108 O112 2.596 1_545 S
Tb108 O113 2.374 . S
Tb108 O121 2.343 . S
Tb108 O123 2.353 . S
Tb108 O125 2.427 . S
Tb108 O126 2.513 . S
C109 O113 1.199 1_565 S
C109 O115 1.303 . S
Tb110 O112 2.343 . S
Tb110 O115 2.353 . S
Tb110 O118 2.427 . S
Tb110 O119 2.513 . S
Tb110 O120 2.453 . S
Tb110 O121 2.596 1_565 S
Tb110 O122 2.374 . S
O111 Tb108 2.453 . S
O111 C127 1.245 . S
O112 Tb108 2.596 1_565 S
O112 Tb110 2.343 . S
O112 C127 1.259 1_565 S
O113 Tb108 2.374 . S
O113 C109 1.199 1_545 S
C114 O118 1.275 . S
C114 O119 1.246 . S
O115 C109 1.303 . S
O115 Tb110 2.353 . S
C116 O120 1.245 1_545 S
C116 O121 1.259 . S
C117 O122 1.250 1_545 S
C117 O123 1.263 . S
O118 Tb110 2.427 . S
O118 C114 1.275 . S
O119 Tb110 2.513 . S
O119 C114 1.246 . S
O120 Tb110 2.453 . S
O120 C116 1.245 1_565 S
O121 Tb108 2.343 . S
O121 Tb110 2.596 1_545 S
O121 C116 1.259 . S
O122 Tb110 2.374 . S
O122 C117 1.250 1_565 S
O123 Tb108 2.353 . S
O123 C117 1.263 . S
C124 O125 1.275 . S
C124 O126 1.246 . S
O125 Tb108 2.427 . S
O125 C124 1.275 . S
O126 Tb108 2.513 . S
O126 C124 1.246 . S
C127 O111 1.245 . S
C127 O112 1.259 1_545 S
Tb128 O131 2.453 . S
Tb128 O132 2.596 . S
Tb128 O133 2.374 . S
Tb128 O141 2.343 . S
Tb128 O143 2.353 . S
Tb128 O145 2.427 . S
Tb128 O146 2.513 . S
C129 O133 1.251 . S
C129 O135 1.263 . S
Tb130 O132 2.343 . S
Tb130 O135 2.353 . S
Tb130 O138 2.427 . S
Tb130 O139 2.513 . S
Tb130 O140 2.453 . S
Tb130 O141 2.596 . S
Tb130 O142 2.374 . S
O131 Tb128 2.453 . S
O131 C147 1.245 . S
O132 Tb128 2.596 . S
O132 Tb130 2.343 . S
O132 C147 1.259 . S
O133 Tb128 2.374 . S
O133 C129 1.251 . S
C134 O138 1.275 . S
C134 O139 1.246 . S
O135 C129 1.263 . S
O135 Tb130 2.353 . S
C136 O140 1.245 . S
C136 O141 1.259 . S
C137 O142 1.250 . S
C137 O143 1.263 . S
O138 Tb130 2.427 . S
O138 C134 1.275 . S
O139 Tb130 2.513 . S
O139 C134 1.246 . S
O140 Tb130 2.453 . S
O140 C136 1.245 . S
O141 Tb128 2.343 . S
O141 Tb130 2.596 . S
O141 C136 1.259 . S
O142 Tb130 2.374 . S
O142 C137 1.250 . S
O143 Tb128 2.353 . S
O143 C137 1.263 . S
C144 O145 1.275 . S
C144 O146 1.246 . S
O145 Tb128 2.427 . S
O145 C144 1.275 . S
O146 Tb128 2.513 . S
O146 C144 1.246 . S
C147 O131 1.245 . S
C147 O132 1.259 . S
Tb148 O151 2.453 1_655 S
Tb148 O152 2.596 1_655 S
Tb148 O153 2.374 1_655 S
Tb148 O161 2.343 . S
Tb148 O163 2.353 1_655 S
Tb148 O165 2.427 . S
Tb148 O166 2.513 . S
C149 O153 1.251 . S
C149 O155 1.263 . S
Tb150 O152 2.343 . S
Tb150 O155 2.353 . S
Tb150 O158 2.427 . S
Tb150 O159 2.513 . S
Tb150 O160 2.453 1_455 S
Tb150 O161 2.596 1_455 S
Tb150 O162 2.374 . S
O151 Tb148 2.453 1_455 S
O151 C167 1.245 . S
O152 Tb148 2.596 1_455 S
O152 Tb150 2.343 . S
O152 C167 1.259 . S
O153 Tb148 2.374 1_455 S
O153 C149 1.251 . S
C154 O158 1.275 . S
C154 O159 1.246 . S
O155 C149 1.263 . S
O155 Tb150 2.353 . S
C156 O160 1.245 . S
C156 O161 1.259 . S
C157 O162 1.250 . S
C157 O163 1.263 . S
O158 Tb150 2.427 . S
O158 C154 1.275 . S
O159 Tb150 2.513 . S
O159 C154 1.246 . S
O160 Tb150 2.453 1_655 S
O160 C156 1.245 . S
O161 Tb148 2.343 . S
O161 Tb150 2.596 1_655 S
O161 C156 1.259 . S
O162 Tb150 2.374 . S
O162 C157 1.250 . S
O163 Tb148 2.353 1_455 S
O163 C157 1.263 . S
C164 O165 1.275 . S
C164 O166 1.246 . S
O165 Tb148 2.427 . S
O165 C164 1.275 . S
O166 Tb148 2.513 . S
O166 C164 1.246 . S
C167 O151 1.245 . S
C167 O152 1.259 . S
C168 C169 1.349 . S
C168 C170 1.327 . S
C168 H193 0.950 . S
C169 C168 1.349 . S
C169 C185 1.349 . S
C170 C168 1.327 . S
C170 C189 1.429 . S
C170 H194 0.950 . S
C171 C188 1.574 . S
C171 C190 1.368 . S
C171 H195 0.949 . S
H172 C176 0.949 . S
C173 C174 1.313 1_565 S
C173 C175 1.321 1_565 S
C173 H196 0.993 . S
C174 C173 1.313 1_545 S
C174 C186 1.349 . S
C175 C173 1.321 1_545 S
C175 C191 1.429 . S
C175 H197 0.950 1_545 S
C176 H172 0.949 . S
C176 C184 1.574 . S
C176 C192 1.368 . S
H177 C185 0.950 . S
H178 C183 0.950 . S
H179 C184 0.949 . S
H180 C186 0.950 . S
H181 C187 0.950 . S
H182 C188 0.949 1_565 S
C183 H178 0.950 . S
C183 C185 1.327 . S
C183 C189 1.429 . S
C184 C176 1.574 . S
C184 H179 0.949 . S
C184 C190 1.368 . S
C185 C169 1.349 . S
C185 H177 0.950 . S
C185 C183 1.327 . S
C186 C174 1.349 . S
C186 H180 0.950 . S
C186 C187 1.327 . S
C187 H181 0.950 . S
C187 C186 1.327 . S
C187 C191 1.429 . S
C188 C171 1.574 . S
C188 H182 0.949 1_545 S
C188 C192 1.368 . S
C189 C170 1.429 . S
C189 C183 1.429 . S
C189 C190 1.523 . S
C190 C171 1.368 . S
C190 C184 1.368 . S
C190 C189 1.523 . S
C191 C175 1.429 . S
C191 C187 1.429 . S
C191 C192 1.523 . S
C192 C176 1.368 . S
C192 C188 1.368 . S
C192 C191 1.523 . S
H193 C168 0.950 . S
H194 C170 0.950 . S
H195 C171 0.949 . S
H196 C173 0.993 . S
H197 C175 0.950 1_565 S
C198 C199 1.349 . S
C198 C200 1.327 . S
C198 H223 0.950 . S
C199 C198 1.349 . S
C199 C215 1.349 . S
C200 C198 1.327 . S
C200 C219 1.429 . S
C200 H224 0.950 . S
C201 C218 1.574 . S
C201 C220 1.368 . S
C201 H225 0.949 . S
H202 C206 0.949 . S
C203 C204 1.349 . S
C203 C205 1.327 . S
C203 H226 0.950 . S
C204 C203 1.349 . S
C204 C216 1.349 . S
C205 C203 1.327 . S
C205 C221 1.429 . S
C205 H227 0.950 . S
C206 H202 0.949 . S
C206 C214 1.574 . S
C206 C222 1.368 . S
H207 C215 0.950 . S
H208 C213 0.950 . S
H209 C214 0.949 . S
H210 C216 0.950 . S
H211 C217 0.950 . S
H212 C218 0.949 . S
C213 H208 0.950 . S
C213 C215 1.327 . S
C213 C219 1.429 . S
C214 C206 1.574 . S
C214 H209 0.949 . S
C214 C220 1.368 . S
C215 C199 1.349 . S
C215 H207 0.950 . S
C215 C213 1.327 . S
C216 C204 1.349 . S
C216 H210 0.950 . S
C216 C217 1.327 . S
C217 H211 0.950 . S
C217 C216 1.327 . S
C217 C221 1.429 . S
C218 C201 1.574 . S
C218 H212 0.949 . S
C218 C222 1.368 . S
C219 C200 1.429 . S
C219 C213 1.429 . S
C219 C220 1.523 . S
C220 C201 1.368 . S
C220 C214 1.368 . S
C220 C219 1.523 . S
C221 C205 1.429 . S
C221 C217 1.429 . S
C221 C222 1.523 . S
C222 C206 1.368 . S
C222 C218 1.368 . S
C222 C221 1.523 . S
H223 C198 0.950 . S
H224 C200 0.950 . S
H225 C201 0.949 . S
H226 C203 0.950 . S
H227 C205 0.950 . S
C228 C229 1.349 . S
C228 C230 1.327 . S
C228 H253 0.950 . S
C229 C228 1.349 . S
C229 C245 1.349 . S
C230 C228 1.327 . S
C230 C249 1.429 . S
C230 H254 0.950 . S
C231 C248 1.574 . S
C231 C250 1.368 . S
C231 H255 0.949 . S
H232 C236 0.949 . S
C233 C234 1.349 . S
C233 C235 1.327 . S
C233 H256 0.950 . S
C234 C233 1.349 . S
C234 C246 1.349 . S
C235 C233 1.327 . S
C235 C251 1.429 . S
C235 H257 0.950 . S
C236 H232 0.949 . S
C236 C244 1.574 . S
C236 C252 1.368 . S
H237 C245 0.950 . S
H238 C243 0.950 . S
H239 C244 0.949 . S
H240 C246 0.950 . S
H241 C247 0.950 . S
H242 C248 0.949 . S
C243 H238 0.950 . S
C243 C245 1.327 . S
C243 C249 1.429 . S
C244 C236 1.574 . S
C244 H239 0.949 . S
C244 C250 1.368 . S
C245 C229 1.349 . S
C245 H237 0.950 . S
C245 C243 1.327 . S
C246 C234 1.349 . S
C246 H240 0.950 . S
C246 C247 1.327 . S
C247 H241 0.950 . S
C247 C246 1.327 . S
C247 C251 1.429 . S
C248 C231 1.574 . S
C248 H242 0.949 . S
C248 C252 1.368 . S
C249 C230 1.429 . S
C249 C243 1.429 . S
C249 C250 1.523 . S
C250 C231 1.368 . S
C250 C244 1.368 . S
C250 C249 1.523 . S
C251 C235 1.429 . S
C251 C247 1.429 . S
C251 C252 1.523 . S
C252 C236 1.368 . S
C252 C248 1.368 . S
C252 C251 1.523 . S
H253 C228 0.950 . S
H254 C230 0.950 . S
H255 C231 0.949 . S
H256 C233 0.950 . S
H257 C235 0.950 . S
C258 C259 1.349 . S
C258 C260 1.327 . S
C258 H283 0.950 . S
C259 C258 1.349 . S
C259 C275 1.349 . S
C260 C258 1.327 . S
C260 C279 1.429 . S
C260 H284 0.950 . S
C261 C278 1.574 . S
C261 C280 1.368 . S
C261 H285 0.949 . S
H262 C266 0.949 . S
C263 C264 1.349 . S
C263 C265 1.327 . S
C263 H286 0.950 . S
C264 C263 1.349 . S
C264 C276 1.375 . S
C265 C263 1.327 . S
C265 C281 1.429 . S
C265 H287 0.950 . S
C266 H262 0.949 . S
C266 C274 1.574 . S
C266 C282 1.368 . S
H267 C275 0.950 . S
H268 C273 0.950 . S
H269 C274 0.949 . S
H270 C276 0.914 1_655 S
H271 C277 0.950 1_655 S
H272 C278 0.949 . S
C273 H268 0.950 . S
C273 C275 1.327 . S
C273 C279 1.429 . S
C274 C266 1.574 . S
C274 H269 0.949 . S
C274 C280 1.368 . S
C275 C259 1.349 . S
C275 H267 0.950 . S
C275 C273 1.327 . S
C276 C264 1.375 . S
C276 H270 0.914 1_455 S
C276 C277 1.338 . S
C277 H271 0.950 1_455 S
C277 C276 1.338 . S
C277 C281 1.429 . S
C278 C261 1.574 . S
C278 H272 0.949 . S
C278 C282 1.368 . S
C279 C260 1.429 . S
C279 C273 1.429 . S
C279 C280 1.523 . S
C280 C261 1.368 . S
C280 C274 1.368 . S
C280 C279 1.523 . S
C281 C265 1.429 . S
C281 C277 1.429 . S
C281 C282 1.523 . S
C282 C266 1.368 . S
C282 C278 1.368 . S
C282 C281 1.523 . S
H283 C258 0.950 . S
H284 C260 0.950 . S
H285 C261 0.949 . S
H286 C263 0.950 . S
H287 C265 0.950 . S
C288 C289 1.349 . S
C288 C290 1.327 . S
C288 H313 0.950 . S
C289 C288 1.349 . S
C289 C305 1.349 1_556 S
C290 C288 1.327 . S
C290 C309 1.429 . S
C290 H314 0.950 . S
C291 C308 1.574 . S
C291 C310 1.368 . S
C291 H315 0.949 . S
H292 C296 0.949 . S
C293 C294 1.349 1_545 S
C293 C295 1.327 1_545 S
C293 H316 0.950 . S
C294 C293 1.349 1_565 S
C294 C306 1.349 . S
C295 C293 1.327 1_565 S
C295 C311 1.429 . S
C295 H317 0.950 . S
C296 H292 0.949 . S
C296 C304 1.574 . S
C296 C312 1.368 . S
H297 C305 0.950 . S
H298 C303 0.950 . S
H299 C304 0.949 . S
H300 C306 0.950 . S
H301 C307 0.950 . S
H302 C308 0.949 . S
C303 H298 0.950 . S
C303 C305 1.327 . S
C303 C309 1.429 1_554 S
C304 C296 1.574 . S
C304 H299 0.949 . S
C304 C310 1.368 . S
C305 C289 1.349 1_554 S
C305 H297 0.950 . S
C305 C303 1.327 . S
C306 C294 1.349 . S
C306 H300 0.950 . S
C306 C307 1.327 . S
C307 H301 0.950 . S
C307 C306 1.327 . S
C307 C311 1.429 . S
C308 C291 1.574 . S
C308 H302 0.949 . S
C308 C312 1.368 . S
C309 C290 1.429 . S
C309 C303 1.429 1_556 S
C309 C310 1.523 . S
C310 C291 1.368 . S
C310 C304 1.368 . S
C310 C309 1.523 . S
C311 C295 1.429 . S
C311 C307 1.429 . S
C311 C312 1.523 . S
C312 C296 1.368 . S
C312 C308 1.368 . S
C312 C311 1.523 . S
H313 C288 0.950 . S
H314 C290 0.950 . S
H315 C291 0.949 . S
H316 C293 0.950 . S
H317 C295 0.950 . S
C318 C319 1.349 . S
C318 C320 1.327 . S
C318 H343 0.950 . S
C319 C318 1.349 . S
C319 C335 1.349 1_554 S
C320 C318 1.327 . S
C320 C339 1.429 1_554 S
C320 H344 0.950 . S
C321 C338 1.574 . S
C321 C340 1.368 . S
C321 H345 0.949 . S
H322 C326 0.949 . S
C323 C324 1.349 . S
C323 C325 1.327 . S
C323 H346 0.950 . S
C324 C323 1.349 . S
C324 C336 1.349 . S
C325 C323 1.327 . S
C325 C341 1.429 . S
C325 H347 0.950 . S
C326 H322 0.949 . S
C326 C334 1.574 . S
C326 C342 1.368 . S
H327 C335 0.950 . S
H328 C333 0.950 . S
H329 C334 0.949 . S
H330 C336 0.950 . S
H331 C337 0.950 . S
H332 C338 0.949 . S
C333 H328 0.950 . S
C333 C335 1.327 . S
C333 C339 1.429 . S
C334 C326 1.574 . S
C334 H329 0.949 . S
C334 C340 1.368 . S
C335 C319 1.349 1_556 S
C335 H327 0.950 . S
C335 C333 1.327 . S
C336 C324 1.349 . S
C336 H330 0.950 . S
C336 C337 1.327 . S
C337 H331 0.950 . S
C337 C336 1.327 . S
C337 C341 1.429 . S
C338 C321 1.574 . S
C338 H332 0.949 . S
C338 C342 1.368 . S
C339 C320 1.429 1_556 S
C339 C333 1.429 . S
C339 C340 1.523 . S
C340 C321 1.368 . S
C340 C334 1.368 . S
C340 C339 1.523 . S
C341 C325 1.429 . S
C341 C337 1.429 . S
C341 C342 1.523 . S
C342 C326 1.368 . S
C342 C338 1.368 . S
C342 C341 1.523 . S
H343 C318 0.950 . S
H344 C320 0.950 . S
H345 C321 0.949 . S
H346 C323 0.950 . S
H347 C325 0.950 . S
C348 C349 1.349 1_556 S
C348 C350 1.327 . S
C348 H373 0.950 . S
C349 C348 1.349 1_554 S
C349 C365 1.349 . S
C350 C348 1.327 . S
C350 C369 1.429 . S
C350 H374 0.950 . S
C351 C368 1.574 . S
C351 C370 1.368 . S
C351 H375 0.949 . S
H352 C356 0.949 . S
C353 C354 1.349 . S
C353 C355 1.327 . S
C353 H376 0.950 . S
C354 C353 1.349 . S
C354 C366 1.349 . S
C355 C353 1.327 . S
C355 C371 1.429 . S
C355 H377 0.950 . S
C356 H352 0.949 . S
C356 C364 1.574 . S
C356 C372 1.368 . S
H357 C365 0.950 . S
H358 C363 0.950 1_554 S
H359 C364 0.949 . S
H360 C366 0.950 . S
H361 C367 0.950 . S
H362 C368 0.949 . S
C363 H358 0.950 1_556 S
C363 C365 1.327 1_556 S
C363 C369 1.429 . S
C364 C356 1.574 . S
C364 H359 0.949 . S
C364 C370 1.368 . S
C365 C349 1.349 . S
C365 H357 0.950 . S
C365 C363 1.327 1_554 S
C366 C354 1.349 . S
C366 H360 0.950 . S
C366 C367 1.327 . S
C367 H361 0.950 . S
C367 C366 1.327 . S
C367 C371 1.429 . S
C368 C351 1.574 . S
C368 H362 0.949 . S
C368 C372 1.368 . S
C369 C350 1.429 . S
C369 C363 1.429 . S
C369 C370 1.523 . S
C370 C351 1.368 . S
C370 C364 1.368 . S
C370 C369 1.523 . S
C371 C355 1.429 . S
C371 C367 1.429 . S
C371 C372 1.523 . S
C372 C356 1.368 . S
C372 C368 1.368 . S
C372 C371 1.523 . S
H373 C348 0.950 . S
H374 C350 0.950 . S
H375 C351 0.949 . S
H376 C353 0.950 . S
H377 C355 0.950 . S
C378 C379 1.349 . S
C378 C380 1.327 . S
C378 H403 0.950 . S
C379 C378 1.349 . S
C379 C395 1.341 1_556 S
C380 C378 1.327 . S
C380 C399 1.429 . S
C380 H404 0.950 . S
C381 C398 1.574 . S
C381 C400 1.368 . S
C381 H405 0.949 . S
H382 C386 0.949 . S
C383 C384 1.349 . S
C383 C385 1.327 . S
C383 H406 0.950 . S
C384 C383 1.349 . S
C384 C396 1.349 . S
C385 C383 1.327 . S
C385 C401 1.429 . S
C385 H407 0.950 . S
C386 H382 0.949 . S
C386 C394 1.574 . S
C386 C402 1.368 . S
H387 C395 0.962 . S
H388 C393 0.950 1_554 S
H389 C394 0.949 . S
H390 C396 0.945 1_455 S
H391 C397 0.950 . S
H392 C398 0.949 . S
C393 H388 0.950 1_556 S
C393 C395 1.323 1_556 S
C393 C399 1.429 . S
C394 C386 1.574 . S
C394 H389 0.949 . S
C394 C400 1.368 . S
C395 C379 1.341 1_554 S
C395 H387 0.962 . S
C395 C393 1.323 1_554 S
C396 C384 1.349 . S
C396 H390 0.945 1_655 S
C396 C397 1.327 . S
C397 H391 0.950 . S
C397 C396 1.327 . S
C397 C401 1.429 . S
C398 C381 1.574 . S
C398 H392 0.949 . S
C398 C402 1.368 . S
C399 C380 1.429 . S
C399 C393 1.429 . S
C399 C400 1.523 . S
C400 C381 1.368 . S
C400 C394 1.368 . S
C400 C399 1.523 . S
C401 C385 1.429 . S
C401 C397 1.429 . S
C401 C402 1.523 . S
C402 C386 1.368 . S
C402 C398 1.368 . S
C402 C401 1.523 . S
H403 C378 0.950 . S
H404 C380 0.950 . S
H405 C381 0.949 . S
H406 C383 0.950 . S
H407 C385 0.950 . S
C408 C409 1.349 . S
C408 C410 1.327 . S
C408 H433 0.950 . S
C409 C408 1.349 . S
C409 C425 1.349 . S
C410 C408 1.327 . S
C410 C429 1.429 . S
C410 H434 0.950 . S
C411 C428 1.574 . S
C411 C430 1.368 . S
C411 H435 0.949 . S
H412 C416 0.949 . S
C413 C414 1.349 . S
C413 C415 1.327 . S
C413 H436 0.950 1_455 S
C414 C413 1.349 . S
C414 C426 1.349 . S
C415 C413 1.327 . S
C415 C431 1.429 . S
C415 H437 0.950 . S
C416 H412 0.949 . S
C416 C424 1.574 . S
C416 C432 1.368 . S
H417 C425 0.950 . S
H418 C423 0.950 . S
H419 C424 0.949 . S
H420 C426 0.950 . S
H421 C427 0.950 . S
H422 C428 0.949 . S
C423 H418 0.950 . S
C423 C425 1.327 . S
C423 C429 1.429 . S
C424 C416 1.574 . S
C424 H419 0.949 . S
C424 C430 1.368 . S
C425 C409 1.349 . S
C425 H417 0.950 . S
C425 C423 1.327 . S
C426 C414 1.349 . S
C426 H420 0.950 . S
C426 C427 1.327 . S
C427 H421 0.950 . S
C427 C426 1.327 . S
C427 C431 1.429 . S
C428 C411 1.574 . S
C428 H422 0.949 . S
C428 C432 1.368 . S
C429 C410 1.429 . S
C429 C423 1.429 . S
C429 C430 1.523 . S
C430 C411 1.368 . S
C430 C424 1.368 . S
C430 C429 1.523 . S
C431 C415 1.429 . S
C431 C427 1.429 . S
C431 C432 1.523 . S
C432 C416 1.368 . S
C432 C428 1.368 . S
C432 C431 1.523 . S
H433 C408 0.950 . S
H434 C410 0.950 . S
H435 C411 0.949 . S
H436 C413 0.950 1_655 S
H437 C415 0.950 . S
C438 C439 1.349 . S
C438 C440 1.327 . S
C438 H463 0.950 . S
C439 C438 1.349 . S
C439 C455 1.349 . S
C440 C438 1.327 . S
C440 C459 1.429 . S
C440 H464 0.950 . S
C441 C458 1.574 . S
C441 C460 1.368 . S
C441 H465 0.949 . S
H442 C446 0.949 . S
C443 C444 1.349 . S
C443 C445 1.327 . S
C443 H466 0.950 . S
C444 C443 1.349 . S
C444 C456 1.349 . S
C445 C443 1.327 . S
C445 C461 1.429 . S
C445 H467 0.950 . S
C446 H442 0.949 . S
C446 C454 1.574 . S
C446 C462 1.368 . S
H447 C455 0.950 . S
H448 C453 0.950 . S
H449 C454 0.949 . S
H450 C456 0.950 1_565 S
H451 C457 0.950 . S
H452 C458 0.949 . S
C453 H448 0.950 . S
C453 C455 1.327 . S
C453 C459 1.429 . S
C454 C446 1.574 . S
C454 H449 0.949 . S
C454 C460 1.368 . S
C455 C439 1.349 . S
C455 H447 0.950 . S
C455 C453 1.327 . S
C456 C444 1.349 . S
C456 H450 0.950 1_545 S
C456 C457 1.327 . S
C457 H451 0.950 . S
C457 C456 1.327 . S
C457 C461 1.429 . S
C458 C441 1.574 . S
C458 H452 0.949 . S
C458 C462 1.368 . S
C459 C440 1.429 . S
C459 C453 1.429 . S
C459 C460 1.523 . S
C460 C441 1.368 . S
C460 C454 1.368 . S
C460 C459 1.523 . S
C461 C445 1.429 . S
C461 C457 1.429 . S
C461 C462 1.523 . S
C462 C446 1.368 . S
C462 C458 1.368 . S
C462 C461 1.523 . S
H463 C438 0.950 . S
H464 C440 0.950 . S
H465 C441 0.949 . S
H466 C443 0.950 . S
H467 C445 0.950 . S
C468 C469 1.349 . S
C468 C470 1.327 . S
C468 H493 0.950 . S
C469 C468 1.349 . S
C469 C485 1.349 . S
C470 C468 1.327 . S
C470 C489 1.429 . S
C470 H494 0.950 . S
C471 C488 1.574 . S
C471 C490 1.368 . S
C471 H495 0.949 . S
H472 C476 0.949 . S
C473 C474 1.349 . S
C473 C475 1.327 . S
C473 H496 0.950 . S
C474 C473 1.349 . S
C474 C486 1.349 . S
C475 C473 1.327 . S
C475 C491 1.429 . S
C475 H497 0.950 . S
C476 H472 0.949 . S
C476 C484 1.574 . S
C476 C492 1.368 . S
H477 C485 0.950 . S
H478 C483 0.950 . S
H479 C484 0.949 . S
H480 C486 0.950 . S
H481 C487 0.950 . S
H482 C488 0.949 . S
C483 H478 0.950 . S
C483 C485 1.327 . S
C483 C489 1.429 . S
C484 C476 1.574 . S
C484 H479 0.949 . S
C484 C490 1.368 . S
C485 C469 1.349 . S
C485 H477 0.950 . S
C485 C483 1.327 . S
C486 C474 1.349 . S
C486 H480 0.950 . S
C486 C487 1.327 . S
C487 H481 0.950 . S
C487 C486 1.327 . S
C487 C491 1.429 . S
C488 C471 1.574 . S
C488 H482 0.949 . S
C488 C492 1.368 . S
C489 C470 1.429 . S
C489 C483 1.429 . S
C489 C490 1.523 . S
C490 C471 1.368 . S
C490 C484 1.368 . S
C490 C489 1.523 . S
C491 C475 1.429 . S
C491 C487 1.429 . S
C491 C492 1.523 . S
C492 C476 1.368 . S
C492 C488 1.368 . S
C492 C491 1.523 . S
H493 C468 0.950 . S
H494 C470 0.950 . S
H495 C471 0.949 . S
H496 C473 0.950 . S
H497 C475 0.950 . S
C498 C499 1.349 . S
C498 C500 1.327 . S
C498 H523 0.950 . S
C499 C498 1.349 . S
C499 C515 1.349 . S
C500 C498 1.327 . S
C500 C519 1.429 . S
C500 H524 0.950 . S
C501 C518 1.574 . S
C501 C520 1.368 . S
C501 H525 0.949 . S
H502 C506 0.949 . S
C503 C504 1.349 . S
C503 C505 1.327 . S
C503 H526 0.950 . S
C504 C503 1.349 . S
C504 C516 1.349 . S
C505 C503 1.327 . S
C505 C521 1.429 . S
C505 H527 0.950 . S
C506 H502 0.949 . S
C506 C514 1.574 . S
C506 C522 1.368 . S
H507 C515 0.950 . S
H508 C513 0.950 . S
H509 C514 0.949 . S
H510 C516 0.950 . S
H511 C517 0.950 . S
H512 C518 0.949 . S
C513 H508 0.950 . S
C513 C515 1.327 . S
C513 C519 1.429 . S
C514 C506 1.574 . S
C514 H509 0.949 . S
C514 C520 1.368 . S
C515 C499 1.349 . S
C515 H507 0.950 . S
C515 C513 1.327 . S
C516 C504 1.349 . S
C516 H510 0.950 . S
C516 C517 1.327 . S
C517 H511 0.950 . S
C517 C516 1.327 . S
C517 C521 1.429 . S
C518 C501 1.574 . S
C518 H512 0.949 . S
C518 C522 1.368 . S
C519 C500 1.429 . S
C519 C513 1.429 . S
C519 C520 1.523 . S
C520 C501 1.368 . S
C520 C514 1.368 . S
C520 C519 1.523 . S
C521 C505 1.429 . S
C521 C517 1.429 . S
C521 C522 1.523 . S
C522 C506 1.368 . S
C522 C518 1.368 . S
C522 C521 1.523 . S
H523 C498 0.950 . S
H524 C500 0.950 . S
H525 C501 0.949 . S
H526 C503 0.950 . S
H527 C505 0.950 . S
C528 C529 1.349 . S
C528 C530 1.327 . S
C528 H553 0.950 1_556 S
C529 C528 1.349 . S
C529 C545 1.349 . S
C530 C528 1.327 . S
C530 C549 1.429 . S
C530 H554 0.950 . S
C531 C548 1.574 . S
C531 C550 1.368 . S
C531 H555 0.949 . S
H532 C536 0.949 . S
C533 C534 1.349 . S
C533 C535 1.327 . S
C533 H556 0.950 . S
C534 C533 1.349 . S
C534 C546 1.349 1_655 S
C535 C533 1.327 . S
C535 C551 1.429 . S
C535 H557 0.950 . S
C536 H532 0.949 . S
C536 C544 1.574 . S
C536 C552 1.368 . S
H537 C545 0.950 . S
H538 C543 0.950 . S
H539 C544 0.949 . S
H540 C546 0.950 . S
H541 C547 0.958 . S
H542 C548 0.949 . S
C543 H538 0.950 . S
C543 C545 1.327 . S
C543 C549 1.429 . S
C544 C536 1.574 . S
C544 H539 0.949 . S
C544 C550 1.368 . S
C545 C529 1.349 . S
C545 H537 0.950 . S
C545 C543 1.327 . S
C546 C534 1.349 1_455 S
C546 H540 0.950 . S
C546 C547 1.330 . S
C547 H541 0.958 . S
C547 C546 1.330 . S
C547 C551 1.418 1_455 S
C548 C531 1.574 . S
C548 H542 0.949 . S
C548 C552 1.368 . S
C549 C530 1.429 . S
C549 C543 1.429 . S
C549 C550 1.523 . S
C550 C531 1.368 . S
C550 C544 1.368 . S
C550 C549 1.523 . S
C551 C535 1.429 . S
C551 C547 1.418 1_655 S
C551 C552 1.523 . S
C552 C536 1.368 . S
C552 C548 1.368 . S
C552 C551 1.523 . S
H553 C528 0.950 1_554 S
H554 C530 0.950 . S
H555 C531 0.949 . S
H556 C533 0.950 . S
H557 C535 0.950 . S
C558 C559 1.349 . S
C558 C560 1.327 . S
C558 H583 0.950 . S
C559 C558 1.349 . S
C559 C575 1.349 1_556 S
C560 C558 1.327 . S
C560 C579 1.429 . S
C560 H584 0.950 . S
C561 C578 1.574 . S
C561 C580 1.368 . S
C561 H585 0.949 . S
H562 C566 0.949 . S
C563 C564 1.349 . S
C563 C565 1.327 . S
C563 H586 0.950 . S
C564 C563 1.349 . S
C564 C576 1.349 1_565 S
C565 C563 1.327 . S
C565 C581 1.429 . S
C565 H587 0.950 . S
C566 H562 0.949 . S
C566 C574 1.574 . S
C566 C582 1.368 . S
H567 C575 0.950 . S
H568 C573 0.950 1_554 S
H569 C574 0.949 . S
H570 C576 0.950 . S
H571 C577 0.957 . S
H572 C578 0.949 . S
C573 H568 0.950 1_556 S
C573 C575 1.327 1_556 S
C573 C579 1.429 . S
C574 C566 1.574 . S
C574 H569 0.949 . S
C574 C580 1.368 . S
C575 C559 1.349 1_554 S
C575 H567 0.950 . S
C575 C573 1.327 1_554 S
C576 C564 1.349 1_545 S
C576 H570 0.950 . S
C576 C577 1.327 1_545 S
C577 H571 0.957 . S
C577 C576 1.327 1_565 S
C577 C581 1.429 . S
C578 C561 1.574 . S
C578 H572 0.949 . S
C578 C582 1.368 . S
C579 C560 1.429 . S
C579 C573 1.429 . S
C579 C580 1.523 . S
C580 C561 1.368 . S
C580 C574 1.368 . S
C580 C579 1.523 . S
C581 C565 1.429 . S
C581 C577 1.429 . S
C581 C582 1.523 . S
C582 C566 1.368 . S
C582 C578 1.368 . S
C582 C581 1.523 . S
H583 C558 0.950 . S
H584 C560 0.950 . S
H585 C561 0.949 . S
H586 C563 0.950 . S
H587 C565 0.950 . S
C588 C589 1.349 1_554 S
C588 C590 1.327 . S
C588 H613 0.950 . S
C589 C588 1.349 1_556 S
C589 C605 1.349 . S
C590 C588 1.327 . S
C590 C609 1.429 1_554 S
C590 H614 0.950 . S
C591 C608 1.574 . S
C591 C610 1.368 . S
C591 H615 0.949 . S
H592 C596 0.949 . S
C593 C594 1.349 . S
C593 C595 1.327 . S
C593 H616 0.950 . S
C594 C593 1.349 . S
C594 C606 1.349 . S
C595 C593 1.327 . S
C595 C611 1.429 . S
C595 H617 0.950 . S
C596 H592 0.949 . S
C596 C604 1.574 . S
C596 C612 1.368 . S
H597 C605 0.950 . S
H598 C603 0.950 . S
H599 C604 0.949 . S
H600 C606 0.950 . S
H601 C607 0.950 . S
H602 C608 0.949 . S
C603 H598 0.950 . S
C603 C605 1.327 . S
C603 C609 1.429 . S
C604 C596 1.574 . S
C604 H599 0.949 . S
C604 C610 1.368 . S
C605 C589 1.349 . S
C605 H597 0.950 . S
C605 C603 1.327 . S
C606 C594 1.349 . S
C606 H600 0.950 . S
C606 C607 1.327 . S
C607 H601 0.950 . S
C607 C606 1.327 . S
C607 C611 1.429 . S
C608 C591 1.574 . S
C608 H602 0.949 . S
C608 C612 1.368 . S
C609 C590 1.429 1_556 S
C609 C603 1.429 . S
C609 C610 1.523 . S
C610 C591 1.368 . S
C610 C604 1.368 . S
C610 C609 1.523 . S
C611 C595 1.429 . S
C611 C607 1.429 . S
C611 C612 1.523 . S
C612 C596 1.368 . S
C612 C608 1.368 . S
C612 C611 1.523 . S
H613 C588 0.950 . S
H614 C590 0.950 . S
H615 C591 0.949 . S
H616 C593 0.950 . S
H617 C595 0.950 . S
C618 C619 1.349 . S
C618 C620 1.327 . S
C618 H643 0.950 1_556 S
C619 C618 1.349 . S
C619 C635 1.349 . S
C620 C618 1.327 . S
C620 C639 1.429 . S
C620 H644 0.950 . S
C621 C638 1.574 . S
C621 C640 1.368 . S
C621 H645 0.949 . S
H622 C626 0.949 . S
C623 C624 1.349 . S
C623 C625 1.327 . S
C623 H646 0.950 . S
C624 C623 1.349 . S
C624 C636 1.349 . S
C625 C623 1.327 . S
C625 C641 1.429 . S
C625 H647 0.950 . S
C626 H622 0.949 . S
C626 C634 1.574 . S
C626 C642 1.368 . S
H627 C635 0.950 . S
H628 C633 0.950 . S
H629 C634 0.949 . S
H630 C636 0.950 . S
H631 C637 0.950 . S
H632 C638 0.949 . S
C633 H628 0.950 . S
C633 C635 1.327 . S
C633 C639 1.429 . S
C634 C626 1.574 . S
C634 H629 0.949 . S
C634 C640 1.368 . S
C635 C619 1.349 . S
C635 H627 0.950 . S
C635 C633 1.327 . S
C636 C624 1.349 . S
C636 H630 0.950 . S
C636 C637 1.327 . S
C637 H631 0.950 . S
C637 C636 1.327 . S
C637 C641 1.429 . S
C638 C621 1.574 . S
C638 H632 0.949 . S
C638 C642 1.368 . S
C639 C620 1.429 . S
C639 C633 1.429 . S
C639 C640 1.523 . S
C640 C621 1.368 . S
C640 C634 1.368 . S
C640 C639 1.523 . S
C641 C625 1.429 . S
C641 C637 1.429 . S
C641 C642 1.523 . S
C642 C626 1.368 . S
C642 C638 1.368 . S
C642 C641 1.523 . S
H643 C618 0.950 1_554 S
H644 C620 0.950 . S
H645 C621 0.949 . S
H646 C623 0.950 . S
H647 C625 0.950 . S
C648 C649 1.349 . S
C648 C650 1.327 . S
C648 H673 0.950 . S
C649 C648 1.349 . S
C649 C665 1.349 . S
C650 C648 1.327 . S
C650 C669 1.429 . S
C650 H674 0.950 . S
C651 C668 1.574 1_554 S
C651 C670 1.368 . S
C651 H675 0.949 . S
H652 C656 0.949 . S
C653 C654 1.349 . S
C653 C655 1.327 . S
C653 H676 0.950 . S
C654 C653 1.349 . S
C654 C666 1.349 . S
C655 C653 1.327 . S
C655 C671 1.429 . S
C655 H677 0.950 . S
C656 H652 0.949 . S
C656 C664 1.574 . S
C656 C672 1.368 1_554 S
H657 C665 0.950 . S
H658 C663 0.950 . S
H659 C664 0.949 . S
H660 C666 0.950 . S
H661 C667 0.950 . S
H662 C668 0.949 . S
C663 H658 0.950 . S
C663 C665 1.327 . S
C663 C669 1.429 . S
C664 C656 1.574 . S
C664 H659 0.949 . S
C664 C670 1.368 . S
C665 C649 1.349 . S
C665 H657 0.950 . S
C665 C663 1.327 . S
C666 C654 1.349 . S
C666 H660 0.950 . S
C666 C667 1.327 . S
C667 H661 0.950 . S
C667 C666 1.327 . S
C667 C671 1.429 . S
C668 C651 1.574 1_556 S
C668 H662 0.949 . S
C668 C672 1.368 . S
C669 C650 1.429 . S
C669 C663 1.429 . S
C669 C670 1.523 . S
C670 C651 1.368 . S
C670 C664 1.368 . S
C670 C669 1.523 . S
C671 C655 1.429 . S
C671 C667 1.429 . S
C671 C672 1.523 . S
C672 C656 1.368 1_556 S
C672 C668 1.368 . S
C672 C671 1.523 . S
H673 C648 0.950 . S
H674 C650 0.950 . S
H675 C651 0.949 . S
H676 C653 0.950 . S
H677 C655 0.950 . S
C678 C679 1.349 . S
C678 C680 1.327 . S
C678 H703 0.950 . S
C679 C678 1.349 . S
C679 C695 1.349 . S
C680 C678 1.327 . S
C680 C699 1.429 . S
C680 H704 0.950 . S
C681 C698 1.574 1_554 S
C681 C700 1.368 . S
C681 H705 0.949 . S
H682 C686 0.949 . S
C683 C684 1.349 . S
C683 C685 1.327 . S
C683 H706 0.950 . S
C684 C683 1.349 . S
C684 C696 1.349 . S
C685 C683 1.327 . S
C685 C701 1.429 . S
C685 H707 0.950 . S
C686 H682 0.949 . S
C686 C694 1.574 1_556 S
C686 C702 1.368 . S
H687 C695 0.950 . S
H688 C693 0.950 . S
H689 C694 0.949 . S
H690 C696 0.950 1_565 S
H691 C697 0.950 1_565 S
H692 C698 0.949 . S
C693 H688 0.950 . S
C693 C695 1.327 . S
C693 C699 1.429 . S
C694 C686 1.574 1_554 S
C694 H689 0.949 . S
C694 C700 1.368 . S
C695 C679 1.349 . S
C695 H687 0.950 . S
C695 C693 1.327 . S
C696 C684 1.349 . S
C696 H690 0.950 1_545 S
C696 C697 1.327 . S
C697 H691 0.950 1_545 S
C697 C696 1.327 . S
C697 C701 1.429 . S
C698 C681 1.574 1_556 S
C698 H692 0.949 . S
C698 C702 1.368 . S
C699 C680 1.429 . S
C699 C693 1.429 . S
C699 C700 1.523 . S
C700 C681 1.368 . S
C700 C694 1.368 . S
C700 C699 1.523 . S
C701 C685 1.429 . S
C701 C697 1.429 . S
C701 C702 1.523 . S
C702 C686 1.368 . S
C702 C698 1.368 . S
C702 C701 1.523 . S
H703 C678 0.950 . S
H704 C680 0.950 . S
H705 C681 0.949 . S
H706 C683 0.950 . S
H707 C685 0.950 . S
C708 C709 1.349 . S
C708 C710 1.327 . S
C708 H733 0.950 . S
C709 C708 1.349 . S
C709 C725 1.349 . S
C710 C708 1.327 . S
C710 C729 1.429 . S
C710 H734 0.950 . S
C711 C728 1.574 . S
C711 C730 1.368 1_556 S
C711 H735 0.949 . S
H712 C716 0.949 . S
C713 C714 1.349 . S
C713 C715 1.327 . S
C713 H736 0.950 . S
C714 C713 1.349 . S
C714 C726 1.349 . S
C715 C713 1.327 . S
C715 C731 1.429 . S
C715 H737 0.950 . S
C716 H712 0.949 . S
C716 C724 1.574 . S
C716 C732 1.368 1_554 S
H717 C725 0.950 . S
H718 C723 0.950 1_556 S
H719 C724 0.949 . S
H720 C726 0.950 . S
H721 C727 0.950 . S
H722 C728 0.949 . S
C723 H718 0.950 1_554 S
C723 C725 1.327 . S
C723 C729 1.429 . S
C724 C716 1.574 . S
C724 H719 0.949 . S
C724 C730 1.368 . S
C725 C709 1.349 . S
C725 H717 0.950 . S
C725 C723 1.327 . S
C726 C714 1.349 . S
C726 H720 0.950 . S
C726 C727 1.327 . S
C727 H721 0.950 . S
C727 C726 1.327 . S
C727 C731 1.429 . S
C728 C711 1.574 . S
C728 H722 0.949 . S
C728 C732 1.368 . S
C729 C710 1.429 . S
C729 C723 1.429 . S
C729 C730 1.523 . S
C730 C711 1.368 1_554 S
C730 C724 1.368 . S
C730 C729 1.523 . S
C731 C715 1.429 . S
C731 C727 1.429 . S
C731 C732 1.523 . S
C732 C716 1.368 1_556 S
C732 C728 1.368 . S
C732 C731 1.523 . S
H733 C708 0.950 . S
H734 C710 0.950 . S
H735 C711 0.949 . S
H736 C713 0.950 . S
H737 C715 0.950 . S
C738 C739 1.349 . S
C738 C740 1.327 . S
C738 H763 0.950 . S
C739 C738 1.349 . S
C739 C755 1.349 . S
C740 C738 1.327 . S
C740 C759 1.429 . S
C740 H764 0.950 . S
C741 C758 1.574 . S
C741 C760 1.368 . S
C741 H765 0.949 . S
H742 C746 0.949 . S
C743 C744 1.349 . S
C743 C745 1.327 . S
C743 H766 0.950 . S
C744 C743 1.349 . S
C744 C756 1.349 . S
C745 C743 1.327 . S
C745 C761 1.429 . S
C745 H767 0.950 . S
C746 H742 0.949 . S
C746 C754 1.574 . S
C746 C762 1.368 . S
H747 C755 0.950 . S
H748 C753 0.950 . S
H749 C754 0.949 . S
H750 C756 0.950 . S
H751 C757 0.950 . S
H752 C758 0.949 . S
C753 H748 0.950 . S
C753 C755 1.327 . S
C753 C759 1.429 . S
C754 C746 1.574 . S
C754 H749 0.949 . S
C754 C760 1.368 1_556 S
C755 C739 1.349 . S
C755 H747 0.950 . S
C755 C753 1.327 . S
C756 C744 1.349 . S
C756 H750 0.950 . S
C756 C757 1.327 . S
C757 H751 0.950 . S
C757 C756 1.327 . S
C757 C761 1.429 . S
C758 C741 1.574 . S
C758 H752 0.949 . S
C758 C762 1.368 1_554 S
C759 C740 1.429 . S
C759 C753 1.429 . S
C759 C760 1.523 . S
C760 C741 1.368 . S
C760 C754 1.368 1_554 S
C760 C759 1.523 . S
C761 C745 1.429 . S
C761 C757 1.429 . S
C761 C762 1.523 . S
C762 C746 1.368 . S
C762 C758 1.368 1_556 S
C762 C761 1.523 . S
H763 C738 0.950 . S
H764 C740 0.950 . S
H765 C741 0.949 . S
H766 C743 0.950 . S
H767 C745 0.950 . S
C768 C769 1.349 . S
C768 C770 1.327 . S
C768 H793 0.950 . S
C769 C768 1.349 . S
C769 C785 1.349 . S
C770 C768 1.327 . S
C770 C789 1.429 . S
C770 H794 0.950 . S
C771 C788 1.574 . S
C771 C790 1.368 . S
C771 H795 0.949 . S
H772 C776 0.949 . S
C773 C774 1.349 . S
C773 C775 1.327 . S
C773 H796 0.950 1_655 S
C774 C773 1.349 . S
C774 C786 1.349 . S
C775 C773 1.327 . S
C775 C791 1.429 . S
C775 H797 0.958 . S
C776 H772 0.949 . S
C776 C784 1.574 . S
C776 C792 1.368 . S
H777 C785 0.950 . S
H778 C783 0.950 . S
H779 C784 0.949 . S
H780 C786 0.950 . S
H781 C787 0.950 . S
H782 C788 0.949 . S
C783 H778 0.950 . S
C783 C785 1.327 . S
C783 C789 1.429 . S
C784 C776 1.574 . S
C784 H779 0.949 . S
C784 C790 1.368 . S
C785 C769 1.349 . S
C785 H777 0.950 . S
C785 C783 1.327 . S
C786 C774 1.349 . S
C786 H780 0.950 . S
C786 C787 1.327 . S
C787 H781 0.950 . S
C787 C786 1.327 . S
C787 C791 1.429 . S
C788 C771 1.574 . S
C788 H782 0.949 . S
C788 C792 1.368 . S
C789 C770 1.429 . S
C789 C783 1.429 . S
C789 C790 1.523 . S
C790 C771 1.368 . S
C790 C784 1.368 . S
C790 C789 1.523 . S
C791 C775 1.429 . S
C791 C787 1.429 . S
C791 C792 1.523 . S
C792 C776 1.368 . S
C792 C788 1.368 . S
C792 C791 1.523 . S
H793 C768 0.950 . S
H794 C770 0.950 . S
H795 C771 0.949 . S
H796 C773 0.950 1_455 S
H797 C775 0.958 . S
C798 C799 1.349 . S
C798 C800 1.327 . S
C798 H823 0.950 . S
C799 C798 1.349 . S
C799 C815 1.349 . S
C800 C798 1.327 . S
C800 C819 1.429 . S
C800 H824 0.950 . S
C801 C818 1.574 . S
C801 C820 1.368 . S
C801 H825 0.949 . S
H802 C806 0.951 1_545 S
C803 C804 1.349 . S
C803 C805 1.327 . S
C803 H826 0.950 . S
C804 C803 1.349 . S
C804 C816 1.349 1_565 S
C805 C803 1.327 . S
C805 C821 1.429 . S
C805 H827 0.950 . S
C806 H802 0.951 1_565 S
C806 C814 1.574 . S
C806 C822 1.368 . S
H807 C815 0.950 . S
H808 C813 0.950 . S
H809 C814 0.949 . S
H810 C816 0.950 . S
H811 C817 0.927 1_545 S
H812 C818 0.949 . S
C813 H808 0.950 . S
C813 C815 1.327 . S
C813 C819 1.429 . S
C814 C806 1.574 . S
C814 H809 0.949 . S
C814 C820 1.368 . S
C815 C799 1.349 . S
C815 H807 0.950 . S
C815 C813 1.327 . S
C816 C804 1.349 1_545 S
C816 H810 0.950 . S
C816 C817 1.318 1_545 S
C817 H811 0.927 1_565 S
C817 C816 1.318 1_565 S
C817 C821 1.461 . S
C818 C801 1.574 . S
C818 H812 0.949 . S
C818 C822 1.368 . S
C819 C800 1.429 . S
C819 C813 1.429 . S
C819 C820 1.523 . S
C820 C801 1.368 . S
C820 C814 1.368 . S
C820 C819 1.523 . S
C821 C805 1.429 . S
C821 C817 1.461 . S
C821 C822 1.523 . S
C822 C806 1.368 . S
C822 C818 1.368 . S
C822 C821 1.523 . S
H823 C798 0.950 . S
H824 C800 0.950 . S
H825 C801 0.949 . S
H826 C803 0.950 . S
H827 C805 0.950 . S
C828 C829 1.349 . S
C828 C830 1.327 . S
C828 H853 0.950 . S
C829 C828 1.349 . S
C829 C845 1.349 . S
C830 C828 1.327 . S
C830 C849 1.429 . S
C830 H854 0.950 . S
C831 C848 1.574 . S
C831 C850 1.368 . S
C831 H855 0.949 . S
H832 C836 0.949 . S
C833 C834 1.349 . S
C833 C835 1.327 . S
C833 H856 0.950 . S
C834 C833 1.349 . S
C834 C846 1.349 . S
C835 C833 1.327 . S
C835 C851 1.429 . S
C835 H857 0.950 . S
C836 H832 0.949 . S
C836 C844 1.574 . S
C836 C852 1.368 . S
H837 C845 0.950 . S
H838 C843 0.950 . S
H839 C844 0.949 . S
H840 C846 0.950 . S
H841 C847 0.950 . S
H842 C848 0.949 . S
C843 H838 0.950 . S
C843 C845 1.327 . S
C843 C849 1.429 . S
C844 C836 1.574 . S
C844 H839 0.949 . S
C844 C850 1.368 . S
C845 C829 1.349 . S
C845 H837 0.950 . S
C845 C843 1.327 . S
C846 C834 1.349 . S
C846 H840 0.950 . S
C846 C847 1.327 . S
C847 H841 0.950 . S
C847 C846 1.327 . S
C847 C851 1.429 . S
C848 C831 1.574 . S
C848 H842 0.949 . S
C848 C852 1.368 . S
C849 C830 1.429 . S
C849 C843 1.429 . S
C849 C850 1.523 . S
C850 C831 1.368 . S
C850 C844 1.368 . S
C850 C849 1.523 . S
C851 C835 1.429 . S
C851 C847 1.429 . S
C851 C852 1.523 . S
C852 C836 1.368 . S
C852 C848 1.368 . S
C852 C851 1.523 . S
H853 C828 0.950 . S
H854 C830 0.950 . S
H855 C831 0.949 . S
H856 C833 0.950 . S
H857 C835 0.950 . S
C858 C859 1.349 . S
C858 C860 1.327 . S
C858 H883 0.950 . S
C859 C858 1.349 . S
C859 C875 1.349 . S
C860 C858 1.327 . S
C860 C879 1.429 . S
C860 H884 0.950 . S
C861 C878 1.574 . S
C861 C880 1.368 . S
C861 H885 0.949 . S
H862 C866 0.949 . S
C863 C864 1.349 . S
C863 C865 1.327 . S
C863 H886 0.950 . S
C864 C863 1.349 . S
C864 C876 1.349 . S
C865 C863 1.327 . S
C865 C881 1.429 . S
C865 H887 0.950 . S
C866 H862 0.949 . S
C866 C874 1.574 . S
C866 C882 1.368 . S
H867 C875 0.950 . S
H868 C873 0.950 . S
H869 C874 0.949 . S
H870 C876 0.950 . S
H871 C877 0.950 . S
H872 C878 0.949 . S
C873 H868 0.950 . S
C873 C875 1.327 . S
C873 C879 1.429 . S
C874 C866 1.574 . S
C874 H869 0.949 . S
C874 C880 1.368 . S
C875 C859 1.349 . S
C875 H867 0.950 . S
C875 C873 1.327 . S
C876 C864 1.349 . S
C876 H870 0.950 . S
C876 C877 1.327 . S
C877 H871 0.950 . S
C877 C876 1.327 . S
C877 C881 1.429 . S
C878 C861 1.574 . S
C878 H872 0.949 . S
C878 C882 1.368 . S
C879 C860 1.429 . S
C879 C873 1.429 . S
C879 C880 1.523 . S
C880 C861 1.368 . S
C880 C874 1.368 . S
C880 C879 1.523 . S
C881 C865 1.429 . S
C881 C877 1.429 . S
C881 C882 1.523 . S
C882 C866 1.368 . S
C882 C878 1.368 . S
C882 C881 1.523 . S
H883 C858 0.950 . S
H884 C860 0.950 . S
H885 C861 0.949 . S
H886 C863 0.950 . S
H887 C865 0.950 . S
C169 C76 1.584 . S
C174 C89 1.611 . S
C204 C124 1.634 . S
C199 C87 1.594 . S
C234 C129 1.287 . S
C229 C54 1.269 . S
C264 C149 1.405 . S
C259 C65 1.384 . S
C294 C97 1.611 1_565 S
C289 C32 1.590 1_556 S
C319 C43 1.603 . S
C324 C114 1.633 . S
C349 C10 1.271 . S
C354 C137 1.287 . S
C379 C21 1.391 . S
C384 C157 1.406 1_655 S
C414 C107 1.095 . S
C409 C60 1.087 . S
C444 C116 0.789 . S
C439 C71 0.787 . S
C474 C147 1.209 . S
C469 C82 1.202 . S
C499 C49 0.843 . S
C504 C167 0.841 . S
C529 C16 1.082 . S
C534 C96 1.094 1_655 S
C564 C127 0.789 1_565 S
C559 C27 0.786 1_556 S
C594 C136 1.209 . S
C589 C38 1.194 1_556 S
C619 C5 0.842 1_556 S
C624 C156 0.841 . S
C649 C59 1.466 . S
C654 C94 1.482 . S
C679 C70 1.406 . S
C684 C117 1.457 . S
C714 C134 1.601 . S
C709 C81 1.561 . S
C744 C154 1.604 . S
C739 C48 1.576 . S
C769 C15 1.458 . S
C774 C104 1.482 . S
C804 C109 1.471 . S
C799 C26 1.398 . S
C834 C144 1.601 . S
C829 C37 1.548 . S
C859 C4 1.573 . S
C864 C164 1.604 . S
