# Generated by pormake.
# Topology rtl, (3,6)-cn, num edge types: 1
# Building blocks:
#     Node 0, Type 0, BuildingBlock: KAKCAD_clean_linker_0, # of connection points: 3
#     Node 1, Type 0, BuildingBlock: KAKCAD_clean_linker_0, # of connection points: 3
#     Node 2, Type 0, BuildingBlock: KAKCAD_clean_linker_0, # of connection points: 3
#     Node 3, Type 0, BuildingBlock: KAKCAD_clean_linker_0, # of connection points: 3
#     Node 4, Type 1, BuildingBlock: VOLQOD_clean_sbu_1, # of connection points: 6
#     Node 5, Type 1, BuildingBlock: VOLQOD_clean_sbu_1, # of connection points: 6
#     Edge 6, Type (0, 1), BuildingBlock: MIFKUJ_clean_linker_0, # of connection points: 2
#     Edge 7, Type (0, 1), BuildingBlock: MIFKUJ_clean_linker_0, # of connection points: 2
#     Edge 8, Type (0, 1), BuildingBlock: MIFKUJ_clean_linker_0, # of connection points: 2
#     Edge 9, Type (0, 1), BuildingBlock: MIFKUJ_clean_linker_0, # of connection points: 2
#     Edge 10, Type (0, 1), BuildingBlock: MIFKUJ_clean_linker_0, # of connection points: 2
#     Edge 11, Type (0, 1), BuildingBlock: MIFKUJ_clean_linker_0, # of connection points: 2
#     Edge 12, Type (0, 1), BuildingBlock: MIFKUJ_clean_linker_0, # of connection points: 2
#     Edge 13, Type (0, 1), BuildingBlock: MIFKUJ_clean_linker_0, # of connection points: 2
#     Edge 14, Type (0, 1), BuildingBlock: MIFKUJ_clean_linker_0, # of connection points: 2
#     Edge 15, Type (0, 1), BuildingBlock: MIFKUJ_clean_linker_0, # of connection points: 2
#     Edge 16, Type (0, 1), BuildingBlock: MIFKUJ_clean_linker_0, # of connection points: 2
#     Edge 17, Type (0, 1), BuildingBlock: MIFKUJ_clean_linker_0, # of connection points: 2
# Relax obj value: 0.079
# Max RMSD: 0.156
# Mean RMSD: 0.088
data_MOF--net-rtl--node1-VOLQOD_clean_sbu_1--node2-KAKCAD_clean_linker_0--edge1-MIFKUJ_clean_linker_0
_symmetry_space_group_name_H-M    P1
_symmetry_Int_Tables_number       1
_symmetry_cell_setting            triclinic
loop_
_symmetry_equiv_pos_as_xyz
'x, y, z'
_cell_length_a     55.492957
_cell_length_b     48.163659
_cell_length_c     36.055383
_cell_angle_alpha  89.878156
_cell_angle_beta   90.299264
_cell_angle_gamma 90.00997
loop_
_atom_site_label
_atom_site_type_symbol
_atom_site_fract_x
_atom_site_fract_y
_atom_site_fract_z
_atom_type_partial_charge
C0 C 0.08685 0.73803 0.87702 0.0
C1 C 0.0816 0.76658 0.87531 0.0
C2 C 0.09542 0.72608 0.91 0.0
C3 C 0.09891 0.7425 0.94178 0.0
C4 C 0.09399 0.77109 0.93974 0.0
C5 C 0.08542 0.78295 0.90698 0.0
C6 C 0.10792 0.73029 0.97708 0.0
C7 C 0.12737 0.71164 0.97737 0.0
C8 C 0.13754 0.70246 0.01109 0.0
C9 C 0.12775 0.71198 0.0447 0.0
C10 C 0.10851 0.73089 0.0448 0.0
C11 C 0.09833 0.73928 0.01092 0.0
C12 C 0.10069 0.74426 0.07979 0.0
C13 C 0.0978 0.72886 0.11264 0.0
C14 C 0.09692 0.7731 0.08062 0.0
C15 C 0.09055 0.7863 0.11345 0.0
C16 C 0.08788 0.77106 0.14641 0.0
C17 C 0.15974 0.68513 0.01111 0.0
C18 C 0.16292 0.66391 0.98485 0.0
C19 C 0.17847 0.69063 0.03646 0.0
C20 C 0.19994 0.67561 0.03526 0.0
C21 C 0.2034 0.6549 0.00841 0.0
C22 C 0.18452 0.64898 0.98347 0.0
C23 C 0.09134 0.74214 0.14565 0.0
H24 H 0.084 0.7249 0.85305 0.0
H25 H 0.09899 0.70398 0.91078 0.0
H26 H 0.0971 0.78447 0.96339 0.0
H27 H 0.08213 0.80512 0.90631 0.0
H28 H 0.13549 0.70561 0.95133 0.0
H29 H 0.08318 0.75348 0.0109 0.0
H30 H 0.13572 0.70556 0.07083 0.0
H31 H 0.10052 0.70659 0.11279 0.0
H32 H 0.09936 0.78566 0.05596 0.0
H33 H 0.08766 0.80855 0.11298 0.0
H34 H 0.14877 0.65896 0.96513 0.0
H35 H 0.17688 0.70708 0.05672 0.0
H36 H 0.08949 0.72987 0.17069 0.0
H37 H 0.18663 0.6333 0.96226 0.0
H38 H 0.21392 0.68041 0.05532 0.0
C39 C 0.59075 0.76503 0.63446 0.0
C40 C 0.59338 0.73609 0.63764 0.0
C41 C 0.59734 0.77866 0.60171 0.0
C42 C 0.60615 0.76345 0.57149 0.0
C43 C 0.60886 0.73457 0.57482 0.0
C44 C 0.60267 0.72105 0.60764 0.0
C45 C 0.61221 0.7773 0.53613 0.0
C46 C 0.62879 0.7993 0.53525 0.0
C47 C 0.6364 0.81052 0.50117 0.0
C48 C 0.62628 0.8003 0.46801 0.0
C49 C 0.60986 0.77819 0.46867 0.0
C50 C 0.60288 0.76686 0.50277 0.0
C51 C 0.60178 0.765 0.4338 0.0
C52 C 0.59108 0.7807 0.40528 0.0
C53 C 0.60505 0.73634 0.4289 0.0
C54 C 0.5978 0.72355 0.39605 0.0
C55 C 0.58684 0.7391 0.36766 0.0
C56 C 0.65702 0.83021 0.50005 0.0
C57 C 0.65952 0.85138 0.52662 0.0
C58 C 0.67544 0.82643 0.47392 0.0
C59 C 0.69621 0.8427 0.47512 0.0
C60 C 0.69918 0.86307 0.50257 0.0
C61 C 0.68039 0.86771 0.52781 0.0
C62 C 0.58339 0.76776 0.37255 0.0
H63 H 0.58369 0.77705 0.65731 0.0
H64 H 0.5951 0.80096 0.59967 0.0
H65 H 0.6158 0.72243 0.55197 0.0
H66 H 0.60468 0.6987 0.60928 0.0
H67 H 0.63692 0.80631 0.56097 0.0
H68 H 0.59035 0.74958 0.50332 0.0
H69 H 0.63204 0.8086 0.44154 0.0
H70 H 0.5884 0.80283 0.40853 0.0
H71 H 0.61346 0.72387 0.45041 0.0
H72 H 0.60046 0.70139 0.39302 0.0
H73 H 0.64556 0.85495 0.54695 0.0
H74 H 0.67432 0.81011 0.45338 0.0
H75 H 0.57502 0.78014 0.35093 0.0
H76 H 0.68219 0.88322 0.54936 0.0
H77 H 0.71022 0.8389 0.45494 0.0
C78 C 0.89686 0.24582 0.13519 0.0
C79 C 0.92159 0.24125 0.14138 0.0
C80 C 0.88894 0.25999 0.10358 0.0
C81 C 0.90554 0.26984 0.07736 0.0
C82 C 0.93028 0.26586 0.08392 0.0
C83 C 0.93822 0.25178 0.11562 0.0
C84 C 0.89697 0.28292 0.0424 0.0
C85 C 0.87792 0.30204 0.04273 0.0
C86 C 0.86846 0.31279 0.00948 0.0
C87 C 0.87892 0.30496 0.97563 0.0
C88 C 0.89785 0.2855 0.9746 0.0
C89 C 0.90673 0.27471 0.00831 0.0
C90 C 0.90695 0.27446 0.93859 0.0
C91 C 0.89127 0.27087 0.90818 0.0
C92 C 0.93098 0.26554 0.9351 0.0
C93 C 0.93865 0.25178 0.90319 0.0
C94 C 0.92269 0.24717 0.87337 0.0
C95 C 0.84628 0.33007 0.00991 0.0
C96 C 0.82699 0.32262 0.033 0.0
C97 C 0.84359 0.35302 0.98606 0.0
C98 C 0.82189 0.36779 0.98481 0.0
C99 C 0.80241 0.35981 0.00723 0.0
C100 C 0.80535 0.33732 0.03172 0.0
C101 C 0.89912 0.25779 0.87589 0.0
H102 H 0.88354 0.23763 0.15413 0.0
H103 H 0.86974 0.26237 0.09902 0.0
H104 H 0.94349 0.27352 0.06439 0.0
H105 H 0.95741 0.24902 0.11987 0.0
H106 H 0.87024 0.30832 0.06898 0.0
H107 H 0.92042 0.25869 0.00814 0.0
H108 H 0.87164 0.31327 0.95 0.0
H109 H 0.87257 0.27712 0.9096 0.0
H110 H 0.94384 0.26852 0.95743 0.0
H111 H 0.95689 0.24385 0.90271 0.0
H112 H 0.82831 0.30484 0.05136 0.0
H113 H 0.8582 0.3594 0.96814 0.0
H114 H 0.88641 0.25546 0.85324 0.0
H115 H 0.79081 0.33089 0.04973 0.0
H116 H 0.82012 0.38495 0.96552 0.0
C117 C 0.396 0.25708 0.37108 0.0
C118 C 0.42042 0.26386 0.36633 0.0
C119 C 0.38833 0.24331 0.40298 0.0
C120 C 0.40491 0.23589 0.43091 0.0
C121 C 0.4295 0.24158 0.42544 0.0
C122 C 0.43719 0.2554 0.39344 0.0
C123 C 0.39615 0.22451 0.46674 0.0
C124 C 0.37688 0.2056 0.46755 0.0
C125 C 0.36595 0.1981 0.50123 0.0
C126 C 0.37519 0.20904 0.53452 0.0
C127 C 0.39483 0.22742 0.53429 0.0
C128 C 0.40528 0.23492 0.50035 0.0
C129 C 0.40303 0.24102 0.56898 0.0
C130 C 0.38618 0.25306 0.59304 0.0
C131 C 0.42772 0.2436 0.57709 0.0
C132 C 0.43543 0.25845 0.60824 0.0
C133 C 0.41858 0.27127 0.63159 0.0
C134 C 0.34367 0.18089 0.50138 0.0
C135 C 0.32588 0.18487 0.47396 0.0
C136 C 0.33939 0.16144 0.52975 0.0
C137 C 0.31758 0.1469 0.5312 0.0
C138 C 0.2996 0.15139 0.5042 0.0
C139 C 0.30422 0.17021 0.47524 0.0
C140 C 0.39388 0.26813 0.62394 0.0
H141 H 0.38269 0.26296 0.35042 0.0
H142 H 0.36923 0.23956 0.40642 0.0
H143 H 0.44274 0.2359 0.44628 0.0
H144 H 0.45612 0.26041 0.39064 0.0
H145 H 0.37007 0.19714 0.44173 0.0
H146 H 0.41952 0.25032 0.50001 0.0
H147 H 0.36661 0.20403 0.56062 0.0
H148 H 0.36704 0.25166 0.58727 0.0
H149 H 0.44107 0.23442 0.55905 0.0
H150 H 0.45458 0.26068 0.61338 0.0
H151 H 0.32833 0.19994 0.45197 0.0
H152 H 0.3528 0.15761 0.55108 0.0
H153 H 0.38051 0.2776 0.64168 0.0
H154 H 0.29098 0.17383 0.45359 0.0
H155 H 0.31459 0.13269 0.55403 0.0
O156 O 0.94087 0.007 0.51221 0.0
Zn157 Zn 0.97205 0.02859 0.51209 0.0
O158 O 8e-05 0.00388 0.5116 0.0
Zn159 Zn 0.01974 0.01005 0.55618 0.0
Zn160 Zn 0.98901 0.96539 0.51032 0.0
Zn161 Zn 0.01951 0.01124 0.46757 0.0
O162 O 0.05324 0.0226 0.54298 0.0
O163 O 0.05277 0.02439 0.48149 0.0
O164 O 0.97224 0.05259 0.55768 0.0
O165 O 0.00536 0.03999 0.58825 0.0
O166 O 0.02274 0.9749 0.58652 0.0
O167 O 0.00131 0.9442 0.55446 0.0
O168 O 0.00106 0.94536 0.46523 0.0
O169 O 0.97177 0.05366 0.46718 0.0
O170 O 0.02343 0.97685 0.43651 0.0
O171 O 0.00416 0.04074 0.43571 0.0
C172 C 0.93613 0.98114 0.51142 0.0
C173 C 0.06369 0.0276 0.51233 0.0
C174 C 0.01448 0.95041 0.58223 0.0
C175 C 0.98651 0.05494 0.58527 0.0
C176 C 0.01488 0.95237 0.43876 0.0
C177 C 0.98551 0.05591 0.43914 0.0
O178 O 0.95287 0.96309 0.51047 0.0
O179 O 0.56103 0.50406 0.00349 0.0
Zn180 Zn 0.53076 0.52704 0.00358 0.0
O181 O 0.5017 0.50403 0.00283 0.0
Zn182 Zn 0.48256 0.51251 0.9585 0.0
Zn183 Zn 0.51135 0.46493 0.00247 0.0
Zn184 Zn 0.48221 0.51172 0.04672 0.0
O185 O 0.44895 0.52474 0.97137 0.0
O186 O 0.44877 0.52434 0.03287 0.0
O187 O 0.53195 0.55186 0.95874 0.0
O188 O 0.4978 0.54313 0.92851 0.0
O189 O 0.47952 0.47884 0.92595 0.0
O190 O 0.49864 0.4455 0.95693 0.0
O191 O 0.49908 0.44502 0.04775 0.0
O192 O 0.53158 0.55139 0.04881 0.0
O193 O 0.47888 0.47742 0.07846 0.0
O194 O 0.49717 0.54208 0.07758 0.0
C195 C 0.56484 0.47801 0.00276 0.0
C196 C 0.43813 0.52851 0.00199 0.0
C197 C 0.48655 0.45375 0.92887 0.0
C198 C 0.51757 0.55635 0.93177 0.0
C199 C 0.4865 0.45258 0.0754 0.0
C200 C 0.51688 0.55551 0.07524 0.0
O201 O 0.54745 0.46078 0.00225 0.0
H202 H 0.29004 0.09761 0.52533 0.0
H203 H 0.2507 0.07493 0.52942 0.0
H204 H 0.21621 0.15016 0.49149 0.0
H205 H 0.25517 0.17335 0.48926 0.0
H206 H 0.19136 0.12895 0.54547 0.0
H207 H 0.2265 0.09381 0.43312 0.0
H208 H 0.2576 0.07079 0.39546 0.0
H209 H 0.24968 0.99625 0.45981 0.0
H210 H 0.21874 0.01897 0.49817 0.0
H211 H 0.09185 0.04049 0.4526 0.0
H212 H 0.13263 0.05953 0.45314 0.0
H213 H 0.13353 0.05672 0.57272 0.0
H214 H 0.09261 0.03799 0.57256 0.0
H215 H 0.1753 0.04086 0.47863 0.0
H216 H 0.16372 0.11398 0.60422 0.0
H217 H 0.1314 0.13953 0.63625 0.0
H218 H 0.0902 0.14275 0.5352 0.0
H219 H 0.12239 0.11757 0.50248 0.0
C220 C 0.27406 0.10942 0.51827 0.0
C221 C 0.27582 0.13726 0.50668 0.0
C222 C 0.2516 0.09633 0.52026 0.0
C223 C 0.23051 0.11073 0.51029 0.0
C224 C 0.23222 0.13859 0.49922 0.0
C225 C 0.25458 0.15173 0.49752 0.0
C226 C 0.2066 0.09693 0.51112 0.0
C227 C 0.18791 0.10962 0.53099 0.0
C228 C 0.20196 0.07189 0.49184 0.0
C229 C 0.22049 0.05818 0.46874 0.0
C230 C 0.23152 0.07258 0.4394 0.0
C231 C 0.2491 0.05957 0.41791 0.0
C232 C 0.25566 0.0321 0.42531 0.0
C233 C 0.24461 0.01754 0.45415 0.0
C234 C 0.22704 0.03047 0.47576 0.0
C235 C 0.10071 0.04381 0.47906 0.0
C236 C 0.08885 0.0379 0.51256 0.0
C237 C 0.12408 0.05459 0.47928 0.0
C238 C 0.13601 0.05977 0.51296 0.0
C239 C 0.12451 0.0532 0.54643 0.0
C240 C 0.10113 0.04245 0.54625 0.0
C241 C 0.16017 0.0729 0.51298 0.0
C242 C 0.17887 0.06006 0.49337 0.0
C243 C 0.1647 0.09815 0.53175 0.0
C244 C 0.14535 0.11361 0.55105 0.0
C245 C 0.14779 0.12022 0.58883 0.0
C246 C 0.12949 0.13463 0.6071 0.0
C247 C 0.10872 0.14266 0.58781 0.0
C248 C 0.10625 0.13641 0.55016 0.0
C249 C 0.1245 0.12204 0.53175 0.0
H250 H 0.09457 0.15379 0.60201 0.0
H251 H 0.26927 0.02207 0.40863 0.0
H252 H 0.21169 0.59972 0.99375 0.0
H253 H 0.25062 0.57606 0.98992 0.0
H254 H 0.28705 0.65299 0.0149 0.0
H255 H 0.24846 0.67698 0.01686 0.0
H256 H 0.30991 0.62746 0.96232 0.0
H257 H 0.27803 0.60158 0.08133 0.0
H258 H 0.24795 0.58211 0.12428 0.0
H259 H 0.25309 0.50297 0.07028 0.0
H260 H 0.28299 0.52208 0.02669 0.0
H261 H 0.41088 0.54442 0.06131 0.0
H262 H 0.37012 0.56346 0.06037 0.0
H263 H 0.3672 0.55384 0.9415 0.0
H264 H 0.40818 0.53533 0.94203 0.0
H265 H 0.32721 0.54458 0.03995 0.0
H266 H 0.33581 0.60771 0.90418 0.0
H267 H 0.36731 0.63041 0.86673 0.0
H268 H 0.41116 0.64091 0.96418 0.0
H269 H 0.3798 0.61861 0.00224 0.0
C270 C 0.22801 0.61166 0.998 0.0
C271 C 0.22691 0.64023 0.00592 0.0
C272 C 0.25024 0.59804 0.99616 0.0
C273 C 0.27175 0.61268 0.0026 0.0
C274 C 0.2707 0.64124 0.00994 0.0
C275 C 0.24856 0.65487 0.0115 0.0
C276 C 0.29546 0.59842 0.00196 0.0
C277 C 0.31363 0.60925 0.97917 0.0
C278 C 0.30046 0.57488 0.02429 0.0
C279 C 0.28254 0.56334 0.05052 0.0
C280 C 0.27261 0.58008 0.07845 0.0
C281 C 0.25562 0.5691 0.10293 0.0
C282 C 0.24856 0.54134 0.09994 0.0
C283 C 0.25854 0.52448 0.07252 0.0
C284 C 0.27552 0.53537 0.04794 0.0
C285 C 0.40157 0.54623 0.03494 0.0
C286 C 0.41291 0.53858 0.00169 0.0
C287 C 0.37821 0.55703 0.03449 0.0
C288 C 0.36572 0.56037 0.00084 0.0
C289 C 0.37666 0.55188 0.96773 0.0
C290 C 0.40008 0.54124 0.96811 0.0
C291 C 0.34161 0.57367 0.00038 0.0
C292 C 0.32338 0.56262 0.02285 0.0
C293 C 0.33671 0.59746 0.97849 0.0
C294 C 0.35557 0.6112 0.95594 0.0
C295 C 0.35214 0.61494 0.9176 0.0
C296 C 0.36998 0.62773 0.89628 0.0
C297 C 0.39126 0.637 0.91304 0.0
C298 C 0.39471 0.63361 0.9512 0.0
C299 C 0.37692 0.62088 0.97265 0.0
H300 H 0.40505 0.64686 0.89648 0.0
H301 H 0.23541 0.53287 0.11892 0.0
H302 H 0.70662 0.91865 0.51544 0.0
H303 H 0.74543 0.94282 0.52104 0.0
H304 H 0.78275 0.8655 0.50282 0.0
H305 H 0.74429 0.84128 0.49809 0.0
H306 H 0.80224 0.8943 0.5599 0.0
H307 H 0.77625 0.91284 0.43364 0.0
H308 H 0.74825 0.93054 0.3858 0.0
H309 H 0.75291 0.0123 0.43255 0.0
H310 H 0.78071 0.99498 0.48099 0.0
H311 H 0.91926 0.92807 0.50506 0.0
H312 H 0.87759 0.91231 0.50735 0.0
H313 H 0.85358 0.99673 0.52214 0.0
H314 H 0.89538 0.01287 0.5192 0.0
H315 H 0.8254 0.96972 0.47316 0.0
H316 H 0.85483 0.95234 0.59542 0.0
H317 H 0.88309 0.93483 0.64299 0.0
H318 H 0.87186 0.85141 0.60485 0.0
H319 H 0.84378 0.86845 0.55668 0.0
C320 C 0.72313 0.90685 0.51286 0.0
C321 C 0.72241 0.87812 0.50599 0.0
C322 C 0.74525 0.92068 0.51583 0.0
C323 C 0.76695 0.90596 0.51205 0.0
C324 C 0.76622 0.87726 0.50576 0.0
C325 C 0.74422 0.86349 0.5027 0.0
C326 C 0.7906 0.92016 0.51444 0.0
C327 C 0.80737 0.91069 0.54082 0.0
C328 C 0.79697 0.94215 0.49032 0.0
C329 C 0.78031 0.95255 0.46119 0.0
C330 C 0.77113 0.93454 0.43391 0.0
C331 C 0.75533 0.94451 0.40665 0.0
C332 C 0.74874 0.97251 0.40621 0.0
C333 C 0.75799 0.99061 0.43297 0.0
C334 C 0.77377 0.98073 0.46032 0.0
C335 C 0.90518 0.94336 0.50881 0.0
C336 C 0.91071 0.97174 0.51216 0.0
C337 C 0.88133 0.93428 0.51029 0.0
C338 C 0.86251 0.95329 0.51557 0.0
C339 C 0.86786 0.9817 0.51824 0.0
C340 C 0.89176 0.99085 0.51661 0.0
C341 C 0.83729 0.9433 0.51797 0.0
C342 C 0.8202 0.95361 0.49261 0.0
C343 C 0.83056 0.9221 0.54312 0.0
C344 C 0.84731 0.91172 0.57226 0.0
C345 C 0.8585 0.93028 0.59701 0.0
C346 C 0.87448 0.92043 0.62411 0.0
C347 C 0.8793 0.89203 0.6269 0.0
C348 C 0.86811 0.87341 0.60264 0.0
C349 C 0.85214 0.88315 0.57547 0.0
H350 H 0.89168 0.88445 0.64789 0.0
H351 H 0.73651 0.98019 0.38508 0.0
H352 H 0.75782 0.33607 0.00552 0.0
H353 H 0.71879 0.3592 0.00212 0.0
H354 H 0.75423 0.43886 0.99784 0.0
H355 H 0.79355 0.41577 0.0023 0.0
H356 H 0.71663 0.4388 0.04617 0.0
H357 H 0.72949 0.41227 0.92036 0.0
H358 H 0.7395 0.38059 0.86907 0.0
H359 H 0.67905 0.32901 0.8967 0.0
H360 H 0.66888 0.36017 0.94852 0.0
H361 H 0.60662 0.50837 0.00102 0.0
H362 H 0.64794 0.4909 -0.00071 0.0
H363 H 0.62135 0.40675 0.00165 0.0
H364 H 0.57999 0.42395 0.00283 0.0
H365 H 0.65603 0.41282 0.95069 0.0
H366 H 0.64513 0.43734 0.07915 0.0
H367 H 0.63522 0.46865 0.1309 0.0
H368 H 0.69205 0.52392 0.09821 0.0
H369 H 0.70209 0.49309 0.04595 0.0
C370 C 0.75735 0.35853 0.00414 0.0
C371 C 0.77878 0.3741 0.00433 0.0
C372 C 0.73502 0.3717 0.0018 0.0
C373 C 0.73362 0.40073 -0.00071 0.0
C374 C 0.75494 0.41642 -0.0004 0.0
C375 C 0.77736 0.40321 0.00189 0.0
C376 C 0.70977 0.4145 0.99716 0.0
C377 C 0.70352 0.43354 0.0249 0.0
C378 C 0.69254 0.40721 0.96978 0.0
C379 C 0.69854 0.38846 0.93852 0.0
C380 C 0.71844 0.39406 0.91568 0.0
C381 C 0.72412 0.37621 0.88648 0.0
C382 C 0.70995 0.35277 0.87968 0.0
C383 C 0.69002 0.34717 0.90202 0.0
C384 C 0.68427 0.36493 0.93128 0.0
C385 C 0.60953 0.48613 0.00123 0.0
C386 C 0.58995 0.46756 0.00215 0.0
C387 C 0.63318 0.4762 0.00035 0.0
C388 C 0.63772 0.44753 0.00067 0.0
C389 C 0.61824 0.42896 0.00136 0.0
C390 C 0.5946 0.43885 0.00216 0.0
C391 C 0.66274 0.43674 8e-05 0.0
C392 C 0.66922 0.41829 0.97176 0.0
C393 C 0.68015 0.44457 0.02693 0.0
C394 C 0.67418 0.46306 0.05841 0.0
C395 C 0.65539 0.45628 0.08282 0.0
C396 C 0.64977 0.47392 0.11228 0.0
C397 C 0.66295 0.4983 0.11777 0.0
C398 C 0.68182 0.50505 0.09388 0.0
C399 C 0.6875 0.48749 0.06436 0.0
H400 H 0.65857 0.51193 0.1406 0.0
H401 H 0.71438 0.33898 0.85706 0.0
H402 H 0.05511 0.75547 0.19921 0.0
H403 H 0.04288 0.78181 0.25411 0.0
H404 H 0.09385 0.84614 0.22629 0.0
H405 H 0.10665 0.81961 0.17232 0.0
H406 H 0.09388 0.83678 0.29923 0.0
H407 H 0.03421 0.85179 0.20317 0.0
H408 H 0.00368 0.83739 0.15712 0.0
H409 H 0.9618 0.79947 0.24329 0.0
H410 H 0.99227 0.81333 0.28981 0.0
H411 H 0.04841 0.95747 0.38383 0.0
H412 H 0.0606 0.92237 0.33894 0.0
H413 H 0.00929 0.86478 0.38508 0.0
H414 H 0.99687 0.89979 0.43018 0.0
H415 H 0.00836 0.86602 0.3083 0.0
H416 H 0.06679 0.85617 0.40535 0.0
H417 H 0.09726 0.8722 0.45047 0.0
H418 H 0.14161 0.90186 0.36154 0.0
H419 H 0.11122 0.88636 0.31589 0.0
C420 C 0.06396 0.77501 0.2052 0.0
C421 C 0.08163 0.78564 0.18124 0.0
C422 C 0.05683 0.79012 0.23637 0.0
C423 C 0.06721 0.81613 0.24394 0.0
C424 C 0.08553 0.82618 0.2209 0.0
C425 C 0.09266 0.81112 0.18987 0.0
C426 C 0.05846 0.8336 0.27487 0.0
C427 C 0.07521 0.84328 0.30111 0.0
C428 C 0.03399 0.84158 0.27779 0.0
C429 C 0.01565 0.83329 0.24988 0.0
C430 C 0.01858 0.84018 0.21225 0.0
C431 C 0.00128 0.83215 0.18607 0.0
C432 C 0.98085 0.81744 0.19725 0.0
C433 C 0.97765 0.81081 0.23466 0.0
C434 C 0.99493 0.81875 0.26094 0.0
C435 C 0.03964 0.93739 0.38444 0.0
C436 C 0.02171 0.93143 0.41071 0.0
C437 C 0.04672 0.9173 0.35887 0.0
C438 C 0.03604 0.8909 0.35904 0.0
C439 C 0.01781 0.88502 0.38465 0.0
C440 C 0.01079 0.90504 0.41042 0.0
C441 C 0.04388 0.86958 0.33217 0.0
C442 C 0.02696 0.85919 0.30672 0.0
C443 C 0.06822 0.86109 0.32984 0.0
C444 C 0.08662 0.87029 0.35721 0.0
C445 C 0.08295 0.8663 0.39542 0.0
C446 C 0.10022 0.87526 0.42109 0.0
C447 C 0.12134 0.88809 0.40888 0.0
C448 C 0.12524 0.89193 0.37096 0.0
C449 C 0.10801 0.88303 0.34517 0.0
H450 H 0.13469 0.89502 0.4288 0.0
H451 H 0.96747 0.81125 0.17695 0.0
H452 H 0.55055 0.74021 0.67403 0.0
H453 H 0.5367 0.71195 0.72628 0.0
H454 H 0.60561 0.6704 0.73006 0.0
H455 H 0.61917 0.69804 0.67716 0.0
H456 H 0.57187 0.63374 0.73285 0.0
H457 H 0.58714 0.71905 0.79699 0.0
H458 H 0.584 0.76925 0.80938 0.0
H459 H 0.50756 0.76124 0.8239 0.0
H460 H 0.5102 0.71103 0.8111 0.0
H461 H 0.5627 0.57383 0.91369 0.0
H462 H 0.57398 0.60664 0.86482 0.0
H463 H 0.49905 0.61878 0.83718 0.0
H464 H 0.48755 0.58533 0.88543 0.0
H465 H 0.53381 0.67028 0.84702 0.0
H466 H 0.51992 0.58401 0.78106 0.0
H467 H 0.52487 0.53366 0.77136 0.0
H468 H 0.6015 0.5442 0.76327 0.0
H469 H 0.59701 0.5946 0.77349 0.0
C470 C 0.56282 0.72533 0.68646 0.0
C471 C 0.58589 0.72122 0.67163 0.0
C472 C 0.55492 0.70922 0.71633 0.0
C473 C 0.57017 0.68913 0.73232 0.0
C474 C 0.59348 0.68564 0.7181 0.0
C475 C 0.60124 0.70145 0.68797 0.0
C476 C 0.56149 0.67071 0.76251 0.0
C477 C 0.56382 0.64186 0.75794 0.0
C478 C 0.55048 0.68114 0.79501 0.0
C479 C 0.54884 0.71133 0.8027 0.0
C480 C 0.56963 0.72803 0.80252 0.0
C481 C 0.56794 0.75648 0.80967 0.0
C482 C 0.54558 0.76844 0.81732 0.0
C483 C 0.52486 0.75196 0.81792 0.0
C484 C 0.52645 0.7235 0.81075 0.0
C485 C 0.5486 0.58358 0.89735 0.0
C486 C 0.52425 0.57697 0.90325 0.0
C487 C 0.55508 0.60226 0.86951 0.0
C488 C 0.53731 0.61501 0.84761 0.0
C489 C 0.51295 0.6091 0.85399 0.0
C490 C 0.50646 0.58993 0.88134 0.0
C491 C 0.54442 0.63371 0.81713 0.0
C492 C 0.54181 0.66243 0.82173 0.0
C493 C 0.55541 0.62326 0.78483 0.0
C494 C 0.55815 0.59301 0.77848 0.0
C495 C 0.53784 0.57555 0.77761 0.0
C496 C 0.54055 0.54702 0.77192 0.0
C497 C 0.56349 0.53573 0.76682 0.0
C498 C 0.58375 0.55297 0.76728 0.0
C499 C 0.58113 0.58152 0.77299 0.0
H500 H 0.56555 0.51363 0.76241 0.0
H501 H 0.54432 0.79047 0.82286 0.0
H502 H 0.90439 0.24207 0.21258 0.0
H503 H 0.91617 0.21199 0.26424 0.0
H504 H 0.96961 0.1729 0.19529 0.0
H505 H 0.95724 0.20204 0.1431 0.0
H506 H 0.94434 0.13506 0.23116 0.0
H507 H 0.98532 0.21907 0.26435 0.0
H508 H 0.98915 0.26908 0.27757 0.0
H509 H 0.93922 0.26114 0.36755 0.0
H510 H 0.93483 0.21111 0.35454 0.0
H511 H 0.00763 0.06266 0.37208 0.0
H512 H 0.99733 0.09566 0.32302 0.0
H513 H 0.9399 0.12848 0.39007 0.0
H514 H 0.95008 0.09556 0.43951 0.0
H515 H 0.96706 0.16972 0.35604 0.0
H516 H 0.9262 0.08553 0.32205 0.0
H517 H 0.92296 0.03546 0.30879 0.0
H518 H 0.97362 0.04401 0.21987 0.0
H519 H 0.97742 0.09409 0.23295 0.0
C520 C 0.91861 0.22703 0.20838 0.0
C521 C 0.92986 0.22447 0.17367 0.0
C522 C 0.92551 0.21005 0.23806 0.0
C523 C 0.94393 0.19037 0.23374 0.0
C524 C 0.95539 0.188 0.19929 0.0
C525 C 0.94845 0.20488 0.16957 0.0
C526 C 0.9506 0.17141 0.26461 0.0
C527 C 0.94966 0.14268 0.25829 0.0
C528 C 0.95694 0.18132 0.30031 0.0
C529 C 0.95956 0.21139 0.30823 0.0
C530 C 0.975 0.22802 0.28676 0.0
C531 C 0.9773 0.25637 0.29426 0.0
C532 C 0.96438 0.2683 0.32332 0.0
C533 C 0.94918 0.25188 0.34501 0.0
C534 C 0.9468 0.22352 0.33761 0.0
C535 C 0.99283 0.07691 0.37653 0.0
C536 C 0.9796 0.07635 0.4097 0.0
C537 C 0.98694 0.09571 0.34839 0.0
C538 C 0.96772 0.11431 0.35282 0.0
C539 C 0.95478 0.11424 0.38613 0.0
C540 C 0.96057 0.09534 0.41426 0.0
C541 C 0.96093 0.1335 0.32238 0.0
C542 C 0.96178 0.1622 0.32884 0.0
C543 C 0.95459 0.1236 0.28674 0.0
C544 C 0.95227 0.09351 0.27872 0.0
C545 C 0.9368 0.07669 0.29987 0.0
C546 C 0.93483 0.04832 0.29235 0.0
C547 C 0.94812 0.03655 0.26357 0.0
C548 C 0.96336 0.05315 0.24219 0.0
C549 C 0.96541 0.08153 0.24962 0.0
H550 H 0.94657 0.01457 0.25779 0.0
H551 H 0.96619 0.29024 0.32908 0.0
H552 H 0.45305 0.25958 0.68392 0.0
H553 H 0.46659 0.28943 0.73505 0.0
H554 H 0.41614 0.3526 0.70039 0.0
H555 H 0.40263 0.32298 0.64931 0.0
H556 H 0.46247 0.3731 0.71525 0.0
H557 H 0.40271 0.31396 0.77215 0.0
H558 H 0.38467 0.26902 0.78954 0.0
H559 H 0.44893 0.24719 0.8497 0.0
H560 H 0.46749 0.29188 0.83221 0.0
H561 H 0.45705 0.46219 0.86896 0.0
H562 H 0.44768 0.42975 0.81913 0.0
H563 H 0.49355 0.36813 0.87024 0.0
H564 H 0.50264 0.4003 0.92081 0.0
H565 H 0.45279 0.34512 0.84687 0.0
H566 H 0.51213 0.40449 0.79388 0.0
H567 H 0.53099 0.4491 0.77704 0.0
H568 H 0.46965 0.46983 0.70941 0.0
H569 H 0.45025 0.42551 0.72628 0.0
C570 C 0.44492 0.27986 0.68723 0.0
C571 C 0.4267 0.28893 0.66283 0.0
C572 C 0.45258 0.29681 0.71645 0.0
C573 C 0.44227 0.32313 0.72151 0.0
C574 C 0.42429 0.33233 0.69693 0.0
C575 C 0.41647 0.31532 0.66799 0.0
C576 C 0.45009 0.3412 0.75246 0.0
C577 C 0.46018 0.36714 0.74405 0.0
C578 C 0.44775 0.33296 0.78994 0.0
C579 C 0.43659 0.30612 0.80051 0.0
C580 C 0.41308 0.29947 0.7888 0.0
C581 C 0.40274 0.27407 0.79873 0.0
C582 C 0.41567 0.25523 0.82061 0.0
C583 C 0.43895 0.26179 0.83269 0.0
C584 C 0.44938 0.28715 0.82279 0.0
C585 C 0.46519 0.44176 0.86967 0.0
C586 C 0.48069 0.43391 0.89883 0.0
C587 C 0.45989 0.42327 0.84103 0.0
C588 C 0.47023 0.39667 0.84063 0.0
C589 C 0.48544 0.38859 0.86994 0.0
C590 C 0.49064 0.40703 0.89878 0.0
C591 C 0.46491 0.3773 0.80975 0.0
C592 C 0.45531 0.35107 0.81811 0.0
C593 C 0.46792 0.38518 0.77219 0.0
C594 C 0.47964 0.41175 0.76161 0.0
C595 C 0.50259 0.41864 0.77561 0.0
C596 C 0.51339 0.44387 0.76603 0.0
C597 C 0.5015 0.46232 0.74224 0.0
C598 C 0.47882 0.45553 0.72787 0.0
C599 C 0.46793 0.43034 0.7374 0.0
H600 H 0.50989 0.48185 0.73489 0.0
H601 H 0.40763 0.23558 0.82829 0.0
H602 H 0.61323 0.70526 0.32339 0.0
H603 H 0.59911 0.67856 0.26975 0.0
H604 H 0.52815 0.71385 0.28174 0.0
H605 H 0.54232 0.74092 0.3353 0.0
H606 H 0.53021 0.65402 0.27785 0.0
H607 H 0.55819 0.73429 0.21162 0.0
H608 H 0.5876 0.77051 0.19483 0.0
H609 H 0.63708 0.70801 0.15784 0.0
H610 H 0.60809 0.67137 0.17492 0.0
H611 H 0.48565 0.58482 0.11833 0.0
H612 H 0.4955 0.6201 0.1646 0.0
H613 H 0.5713 0.60803 0.1435 0.0
H614 H 0.56144 0.57384 0.09584 0.0
H615 H 0.56392 0.65985 0.15091 0.0
H616 H 0.54032 0.57983 0.22188 0.0
H617 H 0.51361 0.54162 0.24141 0.0
H618 H 0.45936 0.60054 0.27267 0.0
H619 H 0.48565 0.6391 0.25289 0.0
C620 C 0.5947 0.70752 0.31427 0.0
C621 C 0.57882 0.72506 0.33335 0.0
C622 C 0.5867 0.69239 0.28364 0.0
C623 C 0.56264 0.69435 0.27184 0.0
C624 C 0.5468 0.71218 0.29046 0.0
C625 C 0.55491 0.72768 0.32082 0.0
C626 C 0.55385 0.67646 0.24139 0.0
C627 C 0.53717 0.65556 0.24985 0.0
C628 C 0.56361 0.67806 0.20534 0.0
C629 C 0.58102 0.70007 0.19483 0.0
C630 C 0.57541 0.72825 0.20019 0.0
C631 C 0.592 0.74886 0.19056 0.0
C632 C 0.61421 0.74157 0.17535 0.0
C633 C 0.61987 0.71364 0.16965 0.0
C634 C 0.60335 0.69294 0.17925 0.0
C635 C 0.50441 0.5897 0.12363 0.0
C636 C 0.52279 0.5765 0.10365 0.0
C637 C 0.51004 0.60979 0.15019 0.0
C638 C 0.53418 0.61643 0.15809 0.0
C639 C 0.55254 0.60333 0.13793 0.0
C640 C 0.5469 0.58371 0.11079 0.0
C641 C 0.54044 0.63693 0.18735 0.0
C642 C 0.55669 0.65836 0.17874 0.0
C643 C 0.53066 0.63546 0.22355 0.0
C644 C 0.51484 0.61232 0.23552 0.0
C645 C 0.52263 0.58462 0.23267 0.0
C646 C 0.50757 0.56291 0.24383 0.0
C647 C 0.48477 0.56865 0.25817 0.0
C648 C 0.477 0.59612 0.26149 0.0
C649 C 0.49198 0.61791 0.25034 0.0
H650 H 0.47314 0.55181 0.26679 0.0
H651 H 0.62703 0.75756 0.16791 0.0
H652 H 0.89445 0.21214 0.83153 0.0
H653 H 0.90663 0.18207 0.78126 0.0
H654 H 0.98014 0.20992 0.79344 0.0
H655 H 0.96768 0.2424 0.84144 0.0
H656 H 0.97232 0.2024 0.72476 0.0
H657 H 0.95855 0.14616 0.83103 0.0
H658 H 0.93662 0.12762 0.88499 0.0
H659 H 0.88066 0.09721 0.8131 0.0
H660 H 0.9021 0.11591 0.75872 0.0
H661 H 0.01772 0.07856 0.635 0.0
H662 H 0.00832 0.1128 0.68306 0.0
H663 H 0.93356 0.11139 0.65002 0.0
H664 H 0.94281 0.07766 0.60145 0.0
H665 H 0.94482 0.10444 0.73054 0.0
H666 H 0.9617 0.16349 0.62391 0.0
H667 H 0.98742 0.17984 0.57274 0.0
H668 H 0.04297 0.20175 0.6507 0.0
H669 H 0.01767 0.18518 0.70232 0.0
C670 C 0.91312 0.21263 0.82305 0.0
C671 C 0.93005 0.22981 0.84106 0.0
C672 C 0.92017 0.19487 0.7946 0.0
C673 C 0.94446 0.19299 0.78427 0.0
C674 C 0.96132 0.2107 0.80119 0.0
C675 C 0.95417 0.22905 0.82907 0.0
C676 C 0.95219 0.17221 0.75627 0.0
C677 C 0.96655 0.18092 0.72642 0.0
C678 C 0.94476 0.14406 0.75821 0.0
C679 C 0.93184 0.13265 0.79083 0.0
C680 C 0.94149 0.13568 0.82675 0.0
C681 C 0.92916 0.12512 0.85741 0.0
C682 C 0.90724 0.1113 0.85249 0.0
C683 C 0.89763 0.10795 0.81687 0.0
C684 C 0.90988 0.1185 0.78612 0.0
C685 C 0.99928 0.08556 0.63797 0.0
C686 C 0.98099 0.07545 0.61446 0.0
C687 C 0.99399 0.10514 0.66531 0.0
C688 C 0.97028 0.11457 0.66988 0.0
C689 C 0.95196 0.10432 0.64678 0.0
C690 C 0.9573 0.08515 0.61902 0.0
C691 C 0.96443 0.13487 0.69912 0.0
C692 C 0.95055 0.12596 0.7292 0.0
C693 C 0.97285 0.16254 0.6979 0.0
C694 C 0.9879 0.17283 0.66692 0.0
C695 C 0.97947 0.17159 0.63011 0.0
C696 C 0.99396 0.18094 0.60104 0.0
C697 C 0.01684 0.19175 0.60845 0.0
C698 C 0.02525 0.19334 0.64499 0.0
C699 C 0.01084 0.184 0.67416 0.0
H700 H 0.02804 0.19896 0.5859 0.0
H701 H 0.89772 0.10315 0.87626 0.0
H702 H 0.39788 0.30968 0.33852 0.0
H703 H 0.41032 0.33887 0.28678 0.0
H704 H 0.47278 0.2871 0.27036 0.0
H705 H 0.46038 0.25763 0.32247 0.0
H706 H 0.48457 0.34101 0.26705 0.0
H707 H 0.42516 0.28341 0.21082 0.0
H708 H 0.38591 0.25991 0.20416 0.0
H709 H 0.3502 0.33889 0.19829 0.0
H710 H 0.38921 0.36289 0.20546 0.0
H711 H 0.50867 0.40291 0.08935 0.0
H712 H 0.49865 0.36895 0.13751 0.0
H713 H 0.44076 0.42147 0.17483 0.0
H714 H 0.45082 0.45574 0.12715 0.0
H715 H 0.42819 0.36405 0.16421 0.0
H716 H 0.48841 0.4209 0.22432 0.0
H717 H 0.52812 0.44351 0.22998 0.0
H718 H 0.56291 0.36393 0.22638 0.0
H719 H 0.52338 0.34087 0.22014 0.0
C720 C 0.41408 0.30422 0.3236 0.0
C721 C 0.42801 0.28116 0.33433 0.0
C722 C 0.4212 0.32098 0.29404 0.0
C723 C 0.44228 0.31492 0.27432 0.0
C724 C 0.45641 0.29209 0.28515 0.0
C725 C 0.44932 0.27531 0.31491 0.0
C726 C 0.44965 0.33293 0.24295 0.0
C727 C 0.47241 0.34563 0.24421 0.0
C728 C 0.43364 0.33929 0.21341 0.0
C729 C 0.41011 0.32495 0.20899 0.0
C730 C 0.40892 0.29578 0.2084 0.0
C731 C 0.38672 0.28237 0.20448 0.0
C732 C 0.36557 0.2979 0.20089 0.0
C733 C 0.36659 0.32689 0.20111 0.0
C734 C 0.38875 0.34041 0.20506 0.0
C735 C 0.4938 0.40724 0.10781 0.0
C736 C 0.48054 0.43203 0.10448 0.0
C737 C 0.48817 0.38786 0.13533 0.0
C738 C 0.46902 0.3928 0.15968 0.0
C739 C 0.4556 0.41734 0.15623 0.0
C740 C 0.46144 0.43692 0.12909 0.0
C741 C 0.46288 0.37232 0.18873 0.0
C742 C 0.44038 0.35916 0.18693 0.0
C743 C 0.47919 0.36537 0.21754 0.0
C744 C 0.50296 0.37919 0.22131 0.0
C745 C 0.50454 0.40824 0.22436 0.0
C746 C 0.52701 0.42114 0.22776 0.0
C747 C 0.54803 0.40517 0.22842 0.0
C748 C 0.54661 0.37627 0.22579 0.0
C749 C 0.52418 0.36328 0.22234 0.0
H750 H 0.56541 0.41519 0.23107 0.0
H751 H 0.34839 0.28747 0.19785 0.0
H752 H 0.04554 0.8047 0.86837 0.0
H753 H 0.03334 0.83003 0.81275 0.0
H754 H 0.08436 0.78322 0.74815 0.0
H755 H 0.09727 0.75833 0.80421 0.0
H756 H 0.08844 0.83687 0.73385 0.0
H757 H 0.02385 0.77253 0.73747 0.0
H758 H 0.99066 0.74554 0.76494 0.0
H759 H 0.95234 0.82089 0.78828 0.0
H760 H 0.98547 0.84838 0.76143 0.0
H761 H 0.00191 0.89549 0.58027 0.0
H762 H 0.01308 0.85908 0.62431 0.0
H763 H 0.05185 0.9191 0.69025 0.0
H764 H 0.04113 0.9556 0.64604 0.0
H765 H 0.00346 0.85189 0.69534 0.0
H766 H 0.10083 0.88928 0.72897 0.0
H767 H 0.13432 0.9132 0.6975 0.0
H768 H 0.10774 0.88536 0.59189 0.0
H769 H 0.0743 0.86095 0.62274 0.0
C770 C 0.05413 0.79973 0.8423 0.0
C771 C 0.0725 0.77967 0.8407 0.0
C772 C 0.04695 0.81401 0.81045 0.0
C773 C 0.0578 0.80837 0.77622 0.0
C774 C 0.07572 0.78784 0.77429 0.0
C775 C 0.08294 0.77351 0.80625 0.0
C776 C 0.05146 0.82531 0.74321 0.0
C777 C 0.06988 0.83999 0.72524 0.0
C778 C 0.02728 0.82896 0.73149 0.0
C779 C 0.00725 0.81253 0.74762 0.0
C780 C 0.00843 0.78336 0.7487 0.0
C781 C 0.98961 0.76797 0.76412 0.0
C782 C 0.96942 0.78149 0.7784 0.0
C783 C 0.968 0.81044 0.77722 0.0
C784 C 0.98678 0.82594 0.76184 0.0
C785 C 0.01283 0.901 0.60411 0.0
C786 C 0.0207 0.92849 0.60952 0.0
C787 C 0.01916 0.88013 0.62929 0.0
C788 C 0.03354 0.8863 0.66029 0.0
C789 C 0.04111 0.91378 0.66612 0.0
C790 C 0.03485 0.93465 0.64091 0.0
C791 C 0.04037 0.86411 0.6869 0.0
C792 C 0.02204 0.84851 0.70367 0.0
C793 C 0.06468 0.85915 0.69696 0.0
C794 C 0.08494 0.87347 0.67819 0.0
C795 C 0.1022 0.88814 0.69905 0.0
C796 C 0.12116 0.90182 0.68132 0.0
C797 C 0.12312 0.90086 0.64272 0.0
C798 C 0.10616 0.88616 0.62178 0.0
C799 C 0.08718 0.87243 0.63937 0.0
H800 H 0.13781 0.91148 0.62904 0.0
H801 H 0.95487 0.76954 0.79033 0.0
loop_
_geom_bond_atom_site_label_1
_geom_bond_atom_site_label_2
_geom_bond_distance
_geom_bond_site_symmetry_2
_ccdc_geom_bond_type
C0 C1 1.386 . S
C0 C2 1.397 . S
C0 H24 0.931 . S
C1 C0 1.386 . S
C1 C5 1.397 . S
C2 C0 1.397 . S
C2 C3 1.384 . S
C2 H25 0.930 . S
C3 C2 1.384 . S
C3 C4 1.377 . S
C3 C6 1.481 . S
C4 C3 1.377 . S
C4 C5 1.389 . S
C4 H26 0.929 . S
C5 C1 1.397 . S
C5 C4 1.389 . S
C5 H27 0.931 . S
C6 C3 1.481 . S
C6 C7 1.387 . S
C6 C11 1.390 1_556 S
C7 C6 1.387 . S
C7 C8 1.401 1_556 S
C7 H28 0.930 . S
C8 C7 1.401 1_554 S
C8 C9 1.376 . S
C8 C17 1.511 . S
C9 C8 1.376 . S
C9 C10 1.392 . S
C9 H30 0.931 . S
C10 C9 1.392 . S
C10 C11 1.361 . S
C10 C12 1.500 . S
C11 C6 1.390 1_554 S
C11 C10 1.361 . S
C11 H29 0.931 . S
C12 C10 1.500 . S
C12 C13 1.371 . S
C12 C14 1.365 . S
C13 C12 1.371 . S
C13 C23 1.386 . S
C13 H31 0.931 . S
C14 C12 1.365 . S
C14 C15 1.409 . S
C14 H32 0.929 . S
C15 C14 1.409 . S
C15 C16 1.380 . S
C15 H33 0.930 . S
C16 C15 1.380 . S
C16 C23 1.357 . S
C17 C8 1.511 . S
C17 C18 1.341 1_554 S
C17 C19 1.371 . S
C18 C17 1.341 1_556 S
C18 C22 1.394 . S
C18 H34 0.930 . S
C19 C17 1.371 . S
C19 C20 1.392 . S
C19 H35 0.931 . S
C20 C19 1.392 . S
C20 C21 1.331 . S
C20 H38 0.932 . S
C21 C20 1.331 . S
C21 C22 1.336 1_554 S
C22 C18 1.394 . S
C22 C21 1.336 1_556 S
C22 H37 0.929 . S
C23 C13 1.386 . S
C23 C16 1.357 . S
C23 H36 0.928 . S
H24 C0 0.931 . S
H25 C2 0.930 . S
H26 C4 0.929 . S
H27 C5 0.931 . S
H28 C7 0.930 . S
H29 C11 0.931 . S
H30 C9 0.931 . S
H31 C13 0.931 . S
H32 C14 0.929 . S
H33 C15 0.930 . S
H34 C18 0.930 . S
H35 C19 0.931 . S
H36 C23 0.928 . S
H37 C22 0.929 . S
H38 C20 0.932 . S
C39 C40 1.386 . S
C39 C41 1.397 . S
C39 H63 0.931 . S
C40 C39 1.386 . S
C40 C44 1.397 . S
C41 C39 1.397 . S
C41 C42 1.384 . S
C41 H64 0.930 . S
C42 C41 1.384 . S
C42 C43 1.377 . S
C42 C45 1.481 . S
C43 C42 1.377 . S
C43 C44 1.389 . S
C43 H65 0.929 . S
C44 C40 1.397 . S
C44 C43 1.389 . S
C44 H66 0.931 . S
C45 C42 1.481 . S
C45 C46 1.387 . S
C45 C50 1.390 . S
C46 C45 1.387 . S
C46 C47 1.401 . S
C46 H67 0.930 . S
C47 C46 1.401 . S
C47 C48 1.376 . S
C47 C56 1.511 . S
C48 C47 1.376 . S
C48 C49 1.392 . S
C48 H69 0.931 . S
C49 C48 1.392 . S
C49 C50 1.361 . S
C49 C51 1.500 . S
C50 C45 1.390 . S
C50 C49 1.361 . S
C50 H68 0.931 . S
C51 C49 1.500 . S
C51 C52 1.371 . S
C51 C53 1.365 . S
C52 C51 1.371 . S
C52 C62 1.386 . S
C52 H70 0.931 . S
C53 C51 1.365 . S
C53 C54 1.409 . S
C53 H71 0.929 . S
C54 C53 1.409 . S
C54 C55 1.380 . S
C54 H72 0.930 . S
C55 C54 1.380 . S
C55 C62 1.357 . S
C56 C47 1.511 . S
C56 C57 1.341 . S
C56 C58 1.371 . S
C57 C56 1.341 . S
C57 C61 1.394 . S
C57 H73 0.930 . S
C58 C56 1.371 . S
C58 C59 1.392 . S
C58 H74 0.931 . S
C59 C58 1.392 . S
C59 C60 1.331 . S
C59 H77 0.932 . S
C60 C59 1.331 . S
C60 C61 1.336 . S
C61 C57 1.394 . S
C61 C60 1.336 . S
C61 H76 0.929 . S
C62 C52 1.386 . S
C62 C55 1.357 . S
C62 H75 0.928 . S
H63 C39 0.931 . S
H64 C41 0.930 . S
H65 C43 0.929 . S
H66 C44 0.931 . S
H67 C46 0.930 . S
H68 C50 0.931 . S
H69 C48 0.931 . S
H70 C52 0.931 . S
H71 C53 0.929 . S
H72 C54 0.930 . S
H73 C57 0.930 . S
H74 C58 0.931 . S
H75 C62 0.928 . S
H76 C61 0.929 . S
H77 C59 0.932 . S
C78 C79 1.386 . S
C78 C80 1.397 . S
C78 H102 0.931 . S
C79 C78 1.386 . S
C79 C83 1.397 . S
C80 C78 1.397 . S
C80 C81 1.384 . S
C80 H103 0.930 . S
C81 C80 1.384 . S
C81 C82 1.377 . S
C81 C84 1.481 . S
C82 C81 1.377 . S
C82 C83 1.389 . S
C82 H104 0.929 . S
C83 C79 1.397 . S
C83 C82 1.389 . S
C83 H105 0.931 . S
C84 C81 1.481 . S
C84 C85 1.387 . S
C84 C89 1.390 . S
C85 C84 1.387 . S
C85 C86 1.401 . S
C85 H106 0.930 . S
C86 C85 1.401 . S
C86 C87 1.376 1_554 S
C86 C95 1.511 . S
C87 C86 1.376 1_556 S
C87 C88 1.392 . S
C87 H108 0.931 . S
C88 C87 1.392 . S
C88 C89 1.361 1_556 S
C88 C90 1.500 . S
C89 C84 1.390 . S
C89 C88 1.361 1_554 S
C89 H107 0.931 . S
C90 C88 1.500 . S
C90 C91 1.371 . S
C90 C92 1.365 . S
C91 C90 1.371 . S
C91 C101 1.386 . S
C91 H109 0.931 . S
C92 C90 1.365 . S
C92 C93 1.409 . S
C92 H110 0.929 . S
C93 C92 1.409 . S
C93 C94 1.380 . S
C93 H111 0.930 . S
C94 C93 1.380 . S
C94 C101 1.357 . S
C95 C86 1.511 . S
C95 C96 1.341 . S
C95 C97 1.371 1_554 S
C96 C95 1.341 . S
C96 C100 1.394 . S
C96 H112 0.930 . S
C97 C95 1.371 1_556 S
C97 C98 1.392 . S
C97 H113 0.931 . S
C98 C97 1.392 . S
C98 C99 1.331 1_556 S
C98 H116 0.932 . S
C99 C98 1.331 1_554 S
C99 C100 1.336 . S
C100 C96 1.394 . S
C100 C99 1.336 . S
C100 H115 0.929 . S
C101 C91 1.386 . S
C101 C94 1.357 . S
C101 H114 0.928 . S
H102 C78 0.931 . S
H103 C80 0.930 . S
H104 C82 0.929 . S
H105 C83 0.931 . S
H106 C85 0.930 . S
H107 C89 0.931 . S
H108 C87 0.931 . S
H109 C91 0.931 . S
H110 C92 0.929 . S
H111 C93 0.930 . S
H112 C96 0.930 . S
H113 C97 0.931 . S
H114 C101 0.928 . S
H115 C100 0.929 . S
H116 C98 0.932 . S
C117 C118 1.386 . S
C117 C119 1.397 . S
C117 H141 0.931 . S
C118 C117 1.386 . S
C118 C122 1.397 . S
C119 C117 1.397 . S
C119 C120 1.384 . S
C119 H142 0.930 . S
C120 C119 1.384 . S
C120 C121 1.377 . S
C120 C123 1.481 . S
C121 C120 1.377 . S
C121 C122 1.389 . S
C121 H143 0.929 . S
C122 C118 1.397 . S
C122 C121 1.389 . S
C122 H144 0.931 . S
C123 C120 1.481 . S
C123 C124 1.387 . S
C123 C128 1.390 . S
C124 C123 1.387 . S
C124 C125 1.401 . S
C124 H145 0.930 . S
C125 C124 1.401 . S
C125 C126 1.376 . S
C125 C134 1.511 . S
C126 C125 1.376 . S
C126 C127 1.392 . S
C126 H147 0.931 . S
C127 C126 1.392 . S
C127 C128 1.361 . S
C127 C129 1.500 . S
C128 C123 1.390 . S
C128 C127 1.361 . S
C128 H146 0.931 . S
C129 C127 1.500 . S
C129 C130 1.371 . S
C129 C131 1.365 . S
C130 C129 1.371 . S
C130 C140 1.386 . S
C130 H148 0.931 . S
C131 C129 1.365 . S
C131 C132 1.409 . S
C131 H149 0.929 . S
C132 C131 1.409 . S
C132 C133 1.380 . S
C132 H150 0.930 . S
C133 C132 1.380 . S
C133 C140 1.357 . S
C134 C125 1.511 . S
C134 C135 1.341 . S
C134 C136 1.371 . S
C135 C134 1.341 . S
C135 C139 1.394 . S
C135 H151 0.930 . S
C136 C134 1.371 . S
C136 C137 1.392 . S
C136 H152 0.931 . S
C137 C136 1.392 . S
C137 C138 1.331 . S
C137 H155 0.932 . S
C138 C137 1.331 . S
C138 C139 1.336 . S
C139 C135 1.394 . S
C139 C138 1.336 . S
C139 H154 0.929 . S
C140 C130 1.386 . S
C140 C133 1.357 . S
C140 H153 0.928 . S
H141 C117 0.931 . S
H142 C119 0.930 . S
H143 C121 0.929 . S
H144 C122 0.931 . S
H145 C124 0.930 . S
H146 C128 0.931 . S
H147 C126 0.931 . S
H148 C130 0.931 . S
H149 C131 0.929 . S
H150 C132 0.930 . S
H151 C135 0.930 . S
H152 C136 0.931 . S
H153 C140 0.928 . S
H154 C139 0.929 . S
H155 C137 0.932 . S
O156 Zn157 1.953 1_565 S
O156 C172 1.225 . S
Zn157 O156 1.953 1_545 S
Zn157 O158 1.949 1_655 S
Zn157 O164 1.919 . S
Zn157 O169 1.924 . S
O158 Zn157 1.949 1_455 S
O158 Zn159 1.923 . S
O158 Zn160 1.950 1_445 S
O158 Zn161 1.945 . S
Zn159 O158 1.923 . S
Zn159 O162 1.933 . S
Zn159 O165 1.941 . S
Zn159 O166 1.965 1_545 S
Zn160 O158 1.950 1_665 S
Zn160 O167 1.938 1_655 S
Zn160 O168 1.906 1_655 S
Zn160 O178 1.953 . S
Zn161 O158 1.945 . S
Zn161 O163 1.932 . S
Zn161 O170 1.977 1_545 S
Zn161 O171 1.910 1_455 S
O162 Zn159 1.933 . S
O162 C173 1.226 . S
O163 Zn161 1.932 . S
O163 C173 1.307 . S
O164 Zn157 1.919 . S
O164 C175 1.253 . S
O165 Zn159 1.941 . S
O165 C175 1.283 1_455 S
O166 Zn159 1.965 1_565 S
O166 C174 1.303 . S
O167 Zn160 1.938 1_455 S
O167 C174 1.247 . S
O168 Zn160 1.906 1_455 S
O168 C176 1.304 . S
O169 Zn157 1.924 . S
O169 C177 1.311 . S
O170 Zn161 1.977 1_565 S
O170 C176 1.272 . S
O171 Zn161 1.910 1_655 S
O171 C177 1.231 . S
C172 O156 1.225 . S
C172 O178 1.298 . S
C173 O162 1.226 . S
C173 O163 1.307 . S
C174 O166 1.303 . S
C174 O167 1.247 . S
C175 O164 1.253 . S
C175 O165 1.283 1_655 S
C176 O168 1.304 . S
C176 O170 1.272 . S
C177 O169 1.311 . S
C177 O171 1.231 . S
O178 Zn160 1.953 . S
O178 C172 1.298 . S
O179 Zn180 1.953 1_556 S
O179 C195 1.225 1_556 S
Zn180 O179 1.953 1_554 S
Zn180 O181 1.948 . S
Zn180 O187 1.920 1_554 S
Zn180 O192 1.923 . S
O181 Zn180 1.948 . S
O181 Zn182 1.923 1_554 S
O181 Zn183 1.950 . S
O181 Zn184 1.945 . S
Zn182 O181 1.923 1_556 S
Zn182 O185 1.933 . S
Zn182 O188 1.941 . S
Zn182 O189 1.965 . S
Zn183 O181 1.950 . S
Zn183 O190 1.938 1_554 S
Zn183 O191 1.906 . S
Zn183 O201 1.953 . S
Zn184 O181 1.945 . S
Zn184 O186 1.932 . S
Zn184 O193 1.977 . S
Zn184 O194 1.910 . S
O185 Zn182 1.933 . S
O185 C196 1.226 1_556 S
O186 Zn184 1.932 . S
O186 C196 1.307 . S
O187 Zn180 1.920 1_556 S
O187 C198 1.253 . S
O188 Zn182 1.941 . S
O188 C198 1.283 . S
O189 Zn182 1.965 . S
O189 C197 1.303 . S
O190 Zn183 1.938 1_556 S
O190 C197 1.247 . S
O191 Zn183 1.906 . S
O191 C199 1.304 . S
O192 Zn180 1.923 . S
O192 C200 1.311 . S
O193 Zn184 1.977 . S
O193 C199 1.272 . S
O194 Zn184 1.910 . S
O194 C200 1.231 . S
C195 O179 1.225 1_554 S
C195 O201 1.298 . S
C196 O185 1.226 1_554 S
C196 O186 1.307 . S
C197 O189 1.303 . S
C197 O190 1.247 . S
C198 O187 1.253 . S
C198 O188 1.283 . S
C199 O191 1.304 . S
C199 O193 1.272 . S
C200 O192 1.311 . S
C200 O194 1.231 . S
O201 Zn183 1.953 . S
O201 C195 1.298 . S
H202 C220 0.951 . S
H203 C222 0.951 . S
H204 C224 0.950 . S
H205 C225 0.950 . S
H206 C227 0.950 . S
H207 C230 0.950 . S
H208 C231 0.950 . S
H209 C233 0.950 1_565 S
H210 C234 0.950 . S
H211 C235 0.951 . S
H212 C237 0.951 . S
H213 C239 0.950 . S
H214 C240 0.950 . S
H215 C242 0.950 . S
H216 C245 0.950 . S
H217 C246 0.950 . S
H218 C248 0.950 . S
H219 C249 0.950 . S
C220 H202 0.951 . S
C220 C221 1.366 . S
C220 C222 1.388 . S
C221 C220 1.366 . S
C221 C225 1.385 . S
C222 H203 0.951 . S
C222 C220 1.388 . S
C222 C223 1.366 . S
C223 C222 1.366 . S
C223 C224 1.414 . S
C223 C226 1.499 . S
C224 H204 0.950 . S
C224 C223 1.414 . S
C224 C225 1.374 . S
C225 H205 0.950 . S
C225 C221 1.385 . S
C225 C224 1.374 . S
C226 C223 1.499 . S
C226 C227 1.373 . S
C226 C228 1.389 . S
C227 H206 0.950 . S
C227 C226 1.373 . S
C227 C243 1.377 . S
C228 C226 1.389 . S
C228 C229 1.524 . S
C228 C242 1.377 . S
C229 C228 1.524 . S
C229 C230 1.397 . S
C229 C234 1.363 . S
C230 H207 0.950 . S
C230 C229 1.397 . S
C230 C231 1.334 . S
C231 H208 0.950 . S
C231 C230 1.334 . S
C231 C232 1.287 . S
C232 C231 1.287 . S
C232 C233 1.524 . S
C232 H251 0.913 . S
C233 H209 0.950 1_545 S
C233 C232 1.524 . S
C233 C234 1.415 . S
C234 H210 0.950 . S
C234 C229 1.363 . S
C234 C233 1.415 . S
C235 H211 0.951 . S
C235 C236 1.366 . S
C235 C237 1.388 . S
C236 C235 1.366 . S
C236 C240 1.385 . S
C237 H212 0.951 . S
C237 C235 1.388 . S
C237 C238 1.366 . S
C238 C237 1.366 . S
C238 C239 1.414 . S
C238 C241 1.499 . S
C239 H213 0.950 . S
C239 C238 1.414 . S
C239 C240 1.374 . S
C240 H214 0.950 . S
C240 C236 1.385 . S
C240 C239 1.374 . S
C241 C238 1.499 . S
C241 C242 1.373 . S
C241 C243 1.389 . S
C242 H215 0.950 . S
C242 C228 1.377 . S
C242 C241 1.373 . S
C243 C227 1.377 . S
C243 C241 1.389 . S
C243 C244 1.524 . S
C244 C243 1.524 . S
C244 C245 1.397 . S
C244 C249 1.363 . S
C245 H216 0.950 . S
C245 C244 1.397 . S
C245 C246 1.334 . S
C246 H217 0.950 . S
C246 C245 1.334 . S
C246 C247 1.287 . S
C247 C246 1.287 . S
C247 C248 1.524 . S
C247 H250 0.999 . S
C248 H218 0.950 . S
C248 C247 1.524 . S
C248 C249 1.415 . S
C249 H219 0.950 . S
C249 C244 1.363 . S
C249 C248 1.415 . S
H250 C247 0.999 . S
H251 C232 0.913 . S
H252 C270 0.951 . S
H253 C272 0.951 . S
H254 C274 0.950 . S
H255 C275 0.950 . S
H256 C277 0.950 . S
H257 C280 0.950 . S
H258 C281 0.950 . S
H259 C283 0.950 . S
H260 C284 0.950 . S
H261 C285 0.951 . S
H262 C287 0.951 . S
H263 C289 0.950 . S
H264 C290 0.950 . S
H265 C292 0.950 . S
H266 C295 0.950 . S
H267 C296 0.950 . S
H268 C298 0.950 . S
H269 C299 0.950 1_554 S
C270 H252 0.951 . S
C270 C271 1.366 1_556 S
C270 C272 1.388 . S
C271 C270 1.366 1_554 S
C271 C275 1.385 . S
C272 H253 0.951 . S
C272 C270 1.388 . S
C272 C273 1.366 1_556 S
C273 C272 1.366 1_554 S
C273 C274 1.414 . S
C273 C276 1.499 . S
C274 H254 0.950 . S
C274 C273 1.414 . S
C274 C275 1.374 . S
C275 H255 0.950 . S
C275 C271 1.385 . S
C275 C274 1.374 . S
C276 C273 1.499 . S
C276 C277 1.373 1_554 S
C276 C278 1.389 . S
C277 H256 0.950 . S
C277 C276 1.373 1_556 S
C277 C293 1.377 . S
C278 C276 1.389 . S
C278 C279 1.524 . S
C278 C292 1.377 . S
C279 C278 1.524 . S
C279 C280 1.397 . S
C279 C284 1.363 . S
C280 H257 0.950 . S
C280 C279 1.397 . S
C280 C281 1.334 . S
C281 H258 0.950 . S
C281 C280 1.334 . S
C281 C282 1.287 . S
C282 C281 1.287 . S
C282 C283 1.524 . S
C282 H301 0.913 . S
C283 H259 0.950 . S
C283 C282 1.524 . S
C283 C284 1.415 . S
C284 H260 0.950 . S
C284 C279 1.363 . S
C284 C283 1.415 . S
C285 H261 0.951 . S
C285 C286 1.366 . S
C285 C287 1.388 . S
C286 C285 1.366 . S
C286 C290 1.385 1_554 S
C287 H262 0.951 . S
C287 C285 1.388 . S
C287 C288 1.366 . S
C288 C287 1.366 . S
C288 C289 1.414 1_554 S
C288 C291 1.499 . S
C289 H263 0.950 . S
C289 C288 1.414 1_556 S
C289 C290 1.374 . S
C290 H264 0.950 . S
C290 C286 1.385 1_556 S
C290 C289 1.374 . S
C291 C288 1.499 . S
C291 C292 1.373 . S
C291 C293 1.389 1_554 S
C292 H265 0.950 . S
C292 C278 1.377 . S
C292 C291 1.373 . S
C293 C277 1.377 . S
C293 C291 1.389 1_556 S
C293 C294 1.524 . S
C294 C293 1.524 . S
C294 C295 1.397 . S
C294 C299 1.363 . S
C295 H266 0.950 . S
C295 C294 1.397 . S
C295 C296 1.334 . S
C296 H267 0.950 . S
C296 C295 1.334 . S
C296 C297 1.287 . S
C297 C296 1.287 . S
C297 C298 1.524 . S
C297 H300 0.999 . S
C298 H268 0.950 . S
C298 C297 1.524 . S
C298 C299 1.415 . S
C299 H269 0.950 1_556 S
C299 C294 1.363 . S
C299 C298 1.415 . S
H300 C297 0.999 . S
H301 C282 0.913 . S
H302 C320 0.951 . S
H303 C322 0.951 . S
H304 C324 0.950 . S
H305 C325 0.950 . S
H306 C327 0.950 . S
H307 C330 0.950 . S
H308 C331 0.950 . S
H309 C333 0.950 1_545 S
H310 C334 0.950 . S
H311 C335 0.951 . S
H312 C337 0.951 . S
H313 C339 0.950 . S
H314 C340 0.950 . S
H315 C342 0.950 . S
H316 C345 0.950 . S
H317 C346 0.950 . S
H318 C348 0.950 . S
H319 C349 0.950 . S
C320 H302 0.951 . S
C320 C321 1.366 . S
C320 C322 1.388 . S
C321 C320 1.366 . S
C321 C325 1.385 . S
C322 H303 0.951 . S
C322 C320 1.388 . S
C322 C323 1.366 . S
C323 C322 1.366 . S
C323 C324 1.414 . S
C323 C326 1.499 . S
C324 H304 0.950 . S
C324 C323 1.414 . S
C324 C325 1.374 . S
C325 H305 0.950 . S
C325 C321 1.385 . S
C325 C324 1.374 . S
C326 C323 1.499 . S
C326 C327 1.373 . S
C326 C328 1.389 . S
C327 H306 0.950 . S
C327 C326 1.373 . S
C327 C343 1.377 . S
C328 C326 1.389 . S
C328 C329 1.524 . S
C328 C342 1.377 . S
C329 C328 1.524 . S
C329 C330 1.397 . S
C329 C334 1.363 . S
C330 H307 0.950 . S
C330 C329 1.397 . S
C330 C331 1.334 . S
C331 H308 0.950 . S
C331 C330 1.334 . S
C331 C332 1.287 . S
C332 C331 1.287 . S
C332 C333 1.524 . S
C332 H351 0.913 . S
C333 H309 0.950 1_565 S
C333 C332 1.524 . S
C333 C334 1.415 . S
C334 H310 0.950 . S
C334 C329 1.363 . S
C334 C333 1.415 . S
C335 H311 0.951 . S
C335 C336 1.366 . S
C335 C337 1.388 . S
C336 C335 1.366 . S
C336 C340 1.385 . S
C337 H312 0.951 . S
C337 C335 1.388 . S
C337 C338 1.366 . S
C338 C337 1.366 . S
C338 C339 1.414 . S
C338 C341 1.499 . S
C339 H313 0.950 . S
C339 C338 1.414 . S
C339 C340 1.374 . S
C340 H314 0.950 . S
C340 C336 1.385 . S
C340 C339 1.374 . S
C341 C338 1.499 . S
C341 C342 1.373 . S
C341 C343 1.389 . S
C342 H315 0.950 . S
C342 C328 1.377 . S
C342 C341 1.373 . S
C343 C327 1.377 . S
C343 C341 1.389 . S
C343 C344 1.524 . S
C344 C343 1.524 . S
C344 C345 1.397 . S
C344 C349 1.363 . S
C345 H316 0.950 . S
C345 C344 1.397 . S
C345 C346 1.334 . S
C346 H317 0.950 . S
C346 C345 1.334 . S
C346 C347 1.287 . S
C347 C346 1.287 . S
C347 C348 1.524 . S
C347 H350 0.999 . S
C348 H318 0.950 . S
C348 C347 1.524 . S
C348 C349 1.415 . S
C349 H319 0.950 . S
C349 C344 1.363 . S
C349 C348 1.415 . S
H350 C347 0.999 . S
H351 C332 0.913 . S
H352 C370 0.951 . S
H353 C372 0.951 . S
H354 C374 0.950 1_556 S
H355 C375 0.950 1_556 S
H356 C377 0.950 . S
H357 C380 0.950 . S
H358 C381 0.950 . S
H359 C383 0.950 . S
H360 C384 0.950 . S
H361 C385 0.951 1_556 S
H362 C387 0.951 1_556 S
H363 C389 0.950 . S
H364 C390 0.950 . S
H365 C392 0.950 . S
H366 C395 0.950 . S
H367 C396 0.950 . S
H368 C398 0.950 . S
H369 C399 0.950 . S
C370 H352 0.951 . S
C370 C371 1.366 . S
C370 C372 1.388 . S
C371 C370 1.366 . S
C371 C375 1.385 . S
C372 H353 0.951 . S
C372 C370 1.388 . S
C372 C373 1.366 . S
C373 C372 1.366 . S
C373 C374 1.414 . S
C373 C376 1.499 . S
C374 H354 0.950 1_554 S
C374 C373 1.414 . S
C374 C375 1.374 . S
C375 H355 0.950 1_554 S
C375 C371 1.385 . S
C375 C374 1.374 . S
C376 C373 1.499 . S
C376 C377 1.373 . S
C376 C378 1.389 1_554 S
C377 H356 0.950 . S
C377 C376 1.373 . S
C377 C393 1.377 . S
C378 C376 1.389 1_556 S
C378 C379 1.524 . S
C378 C392 1.377 . S
C379 C378 1.524 . S
C379 C380 1.397 . S
C379 C384 1.363 . S
C380 H357 0.950 . S
C380 C379 1.397 . S
C380 C381 1.334 . S
C381 H358 0.950 . S
C381 C380 1.334 . S
C381 C382 1.287 . S
C382 C381 1.287 . S
C382 C383 1.524 . S
C382 H401 0.913 . S
C383 H359 0.950 . S
C383 C382 1.524 . S
C383 C384 1.415 . S
C384 H360 0.950 . S
C384 C379 1.363 . S
C384 C383 1.415 . S
C385 H361 0.951 1_554 S
C385 C386 1.366 . S
C385 C387 1.388 . S
C386 C385 1.366 . S
C386 C390 1.385 . S
C387 H362 0.951 1_554 S
C387 C385 1.388 . S
C387 C388 1.366 . S
C388 C387 1.366 . S
C388 C389 1.414 . S
C388 C391 1.499 . S
C389 H363 0.950 . S
C389 C388 1.414 . S
C389 C390 1.374 . S
C390 H364 0.950 . S
C390 C386 1.385 . S
C390 C389 1.374 . S
C391 C388 1.499 . S
C391 C392 1.373 1_554 S
C391 C393 1.389 . S
C392 H365 0.950 . S
C392 C378 1.377 . S
C392 C391 1.373 1_556 S
C393 C377 1.377 . S
C393 C391 1.389 . S
C393 C394 1.524 . S
C394 C393 1.524 . S
C394 C395 1.397 . S
C394 C399 1.363 . S
C395 H366 0.950 . S
C395 C394 1.397 . S
C395 C396 1.334 . S
C396 H367 0.950 . S
C396 C395 1.334 . S
C396 C397 1.287 . S
C397 C396 1.287 . S
C397 C398 1.524 . S
C397 H400 0.999 . S
C398 H368 0.950 . S
C398 C397 1.524 . S
C398 C399 1.415 . S
C399 H369 0.950 . S
C399 C394 1.363 . S
C399 C398 1.415 . S
H400 C397 0.999 . S
H401 C382 0.913 . S
H402 C420 0.951 . S
H403 C422 0.951 . S
H404 C424 0.950 . S
H405 C425 0.950 . S
H406 C427 0.950 . S
H407 C430 0.950 . S
H408 C431 0.950 . S
H409 C433 0.950 . S
H410 C434 0.950 . S
H411 C435 0.951 . S
H412 C437 0.951 . S
H413 C439 0.950 . S
H414 C440 0.950 . S
H415 C442 0.950 . S
H416 C445 0.950 . S
H417 C446 0.950 . S
H418 C448 0.950 . S
H419 C449 0.950 . S
C420 H402 0.951 . S
C420 C421 1.366 . S
C420 C422 1.388 . S
C421 C420 1.366 . S
C421 C425 1.385 . S
C422 H403 0.951 . S
C422 C420 1.388 . S
C422 C423 1.366 . S
C423 C422 1.366 . S
C423 C424 1.414 . S
C423 C426 1.499 . S
C424 H404 0.950 . S
C424 C423 1.414 . S
C424 C425 1.374 . S
C425 H405 0.950 . S
C425 C421 1.385 . S
C425 C424 1.374 . S
C426 C423 1.499 . S
C426 C427 1.373 . S
C426 C428 1.389 . S
C427 H406 0.950 . S
C427 C426 1.373 . S
C427 C443 1.377 . S
C428 C426 1.389 . S
C428 C429 1.524 . S
C428 C442 1.377 . S
C429 C428 1.524 . S
C429 C430 1.397 . S
C429 C434 1.363 1_455 S
C430 H407 0.950 . S
C430 C429 1.397 . S
C430 C431 1.334 . S
C431 H408 0.950 . S
C431 C430 1.334 . S
C431 C432 1.287 1_455 S
C432 C431 1.287 1_655 S
C432 C433 1.524 . S
C432 H451 0.913 . S
C433 H409 0.950 . S
C433 C432 1.524 . S
C433 C434 1.415 . S
C434 H410 0.950 . S
C434 C429 1.363 1_655 S
C434 C433 1.415 . S
C435 H411 0.951 . S
C435 C436 1.366 . S
C435 C437 1.388 . S
C436 C435 1.366 . S
C436 C440 1.385 . S
C437 H412 0.951 . S
C437 C435 1.388 . S
C437 C438 1.366 . S
C438 C437 1.366 . S
C438 C439 1.414 . S
C438 C441 1.499 . S
C439 H413 0.950 . S
C439 C438 1.414 . S
C439 C440 1.374 . S
C440 H414 0.950 . S
C440 C436 1.385 . S
C440 C439 1.374 . S
C441 C438 1.499 . S
C441 C442 1.373 . S
C441 C443 1.389 . S
C442 H415 0.950 . S
C442 C428 1.377 . S
C442 C441 1.373 . S
C443 C427 1.377 . S
C443 C441 1.389 . S
C443 C444 1.524 . S
C444 C443 1.524 . S
C444 C445 1.397 . S
C444 C449 1.363 . S
C445 H416 0.950 . S
C445 C444 1.397 . S
C445 C446 1.334 . S
C446 H417 0.950 . S
C446 C445 1.334 . S
C446 C447 1.287 . S
C447 C446 1.287 . S
C447 C448 1.524 . S
C447 H450 0.999 . S
C448 H418 0.950 . S
C448 C447 1.524 . S
C448 C449 1.415 . S
C449 H419 0.950 . S
C449 C444 1.363 . S
C449 C448 1.415 . S
H450 C447 0.999 . S
H451 C432 0.913 . S
H452 C470 0.951 . S
H453 C472 0.951 . S
H454 C474 0.950 . S
H455 C475 0.950 . S
H456 C477 0.950 . S
H457 C480 0.950 . S
H458 C481 0.950 . S
H459 C483 0.950 . S
H460 C484 0.950 . S
H461 C485 0.951 . S
H462 C487 0.951 . S
H463 C489 0.950 . S
H464 C490 0.950 . S
H465 C492 0.950 . S
H466 C495 0.950 . S
H467 C496 0.950 . S
H468 C498 0.950 . S
H469 C499 0.950 . S
C470 H452 0.951 . S
C470 C471 1.366 . S
C470 C472 1.388 . S
C471 C470 1.366 . S
C471 C475 1.385 . S
C472 H453 0.951 . S
C472 C470 1.388 . S
C472 C473 1.366 . S
C473 C472 1.366 . S
C473 C474 1.414 . S
C473 C476 1.499 . S
C474 H454 0.950 . S
C474 C473 1.414 . S
C474 C475 1.374 . S
C475 H455 0.950 . S
C475 C471 1.385 . S
C475 C474 1.374 . S
C476 C473 1.499 . S
C476 C477 1.373 . S
C476 C478 1.389 . S
C477 H456 0.950 . S
C477 C476 1.373 . S
C477 C493 1.377 . S
C478 C476 1.389 . S
C478 C479 1.524 . S
C478 C492 1.377 . S
C479 C478 1.524 . S
C479 C480 1.397 . S
C479 C484 1.363 . S
C480 H457 0.950 . S
C480 C479 1.397 . S
C480 C481 1.334 . S
C481 H458 0.950 . S
C481 C480 1.334 . S
C481 C482 1.287 . S
C482 C481 1.287 . S
C482 C483 1.524 . S
C482 H501 0.913 . S
C483 H459 0.950 . S
C483 C482 1.524 . S
C483 C484 1.415 . S
C484 H460 0.950 . S
C484 C479 1.363 . S
C484 C483 1.415 . S
C485 H461 0.951 . S
C485 C486 1.366 . S
C485 C487 1.388 . S
C486 C485 1.366 . S
C486 C490 1.385 . S
C487 H462 0.951 . S
C487 C485 1.388 . S
C487 C488 1.366 . S
C488 C487 1.366 . S
C488 C489 1.414 . S
C488 C491 1.499 . S
C489 H463 0.950 . S
C489 C488 1.414 . S
C489 C490 1.374 . S
C490 H464 0.950 . S
C490 C486 1.385 . S
C490 C489 1.374 . S
C491 C488 1.499 . S
C491 C492 1.373 . S
C491 C493 1.389 . S
C492 H465 0.950 . S
C492 C478 1.377 . S
C492 C491 1.373 . S
C493 C477 1.377 . S
C493 C491 1.389 . S
C493 C494 1.524 . S
C494 C493 1.524 . S
C494 C495 1.397 . S
C494 C499 1.363 . S
C495 H466 0.950 . S
C495 C494 1.397 . S
C495 C496 1.334 . S
C496 H467 0.950 . S
C496 C495 1.334 . S
C496 C497 1.287 . S
C497 C496 1.287 . S
C497 C498 1.524 . S
C497 H500 0.999 . S
C498 H468 0.950 . S
C498 C497 1.524 . S
C498 C499 1.415 . S
C499 H469 0.950 . S
C499 C494 1.363 . S
C499 C498 1.415 . S
H500 C497 0.999 . S
H501 C482 0.913 . S
H502 C520 0.951 . S
H503 C522 0.951 . S
H504 C524 0.950 . S
H505 C525 0.950 . S
H506 C527 0.950 . S
H507 C530 0.950 . S
H508 C531 0.950 . S
H509 C533 0.950 . S
H510 C534 0.950 . S
H511 C535 0.951 . S
H512 C537 0.951 . S
H513 C539 0.950 . S
H514 C540 0.950 . S
H515 C542 0.950 . S
H516 C545 0.950 . S
H517 C546 0.950 . S
H518 C548 0.950 . S
H519 C549 0.950 . S
C520 H502 0.951 . S
C520 C521 1.366 . S
C520 C522 1.388 . S
C521 C520 1.366 . S
C521 C525 1.385 . S
C522 H503 0.951 . S
C522 C520 1.388 . S
C522 C523 1.366 . S
C523 C522 1.366 . S
C523 C524 1.414 . S
C523 C526 1.499 . S
C524 H504 0.950 . S
C524 C523 1.414 . S
C524 C525 1.374 . S
C525 H505 0.950 . S
C525 C521 1.385 . S
C525 C524 1.374 . S
C526 C523 1.499 . S
C526 C527 1.373 . S
C526 C528 1.389 . S
C527 H506 0.950 . S
C527 C526 1.373 . S
C527 C543 1.377 . S
C528 C526 1.389 . S
C528 C529 1.524 . S
C528 C542 1.377 . S
C529 C528 1.524 . S
C529 C530 1.397 . S
C529 C534 1.363 . S
C530 H507 0.950 . S
C530 C529 1.397 . S
C530 C531 1.334 . S
C531 H508 0.950 . S
C531 C530 1.334 . S
C531 C532 1.287 . S
C532 C531 1.287 . S
C532 C533 1.524 . S
C532 H551 0.913 . S
C533 H509 0.950 . S
C533 C532 1.524 . S
C533 C534 1.415 . S
C534 H510 0.950 . S
C534 C529 1.363 . S
C534 C533 1.415 . S
C535 H511 0.951 . S
C535 C536 1.366 . S
C535 C537 1.388 . S
C536 C535 1.366 . S
C536 C540 1.385 . S
C537 H512 0.951 . S
C537 C535 1.388 . S
C537 C538 1.366 . S
C538 C537 1.366 . S
C538 C539 1.414 . S
C538 C541 1.499 . S
C539 H513 0.950 . S
C539 C538 1.414 . S
C539 C540 1.374 . S
C540 H514 0.950 . S
C540 C536 1.385 . S
C540 C539 1.374 . S
C541 C538 1.499 . S
C541 C542 1.373 . S
C541 C543 1.389 . S
C542 H515 0.950 . S
C542 C528 1.377 . S
C542 C541 1.373 . S
C543 C527 1.377 . S
C543 C541 1.389 . S
C543 C544 1.524 . S
C544 C543 1.524 . S
C544 C545 1.397 . S
C544 C549 1.363 . S
C545 H516 0.950 . S
C545 C544 1.397 . S
C545 C546 1.334 . S
C546 H517 0.950 . S
C546 C545 1.334 . S
C546 C547 1.287 . S
C547 C546 1.287 . S
C547 C548 1.524 . S
C547 H550 0.999 . S
C548 H518 0.950 . S
C548 C547 1.524 . S
C548 C549 1.415 . S
C549 H519 0.950 . S
C549 C544 1.363 . S
C549 C548 1.415 . S
H550 C547 0.999 . S
H551 C532 0.913 . S
H552 C570 0.951 . S
H553 C572 0.951 . S
H554 C574 0.950 . S
H555 C575 0.950 . S
H556 C577 0.950 . S
H557 C580 0.950 . S
H558 C581 0.950 . S
H559 C583 0.950 . S
H560 C584 0.950 . S
H561 C585 0.951 . S
H562 C587 0.951 . S
H563 C589 0.950 . S
H564 C590 0.950 . S
H565 C592 0.950 . S
H566 C595 0.950 . S
H567 C596 0.950 . S
H568 C598 0.950 . S
H569 C599 0.950 . S
C570 H552 0.951 . S
C570 C571 1.366 . S
C570 C572 1.388 . S
C571 C570 1.366 . S
C571 C575 1.385 . S
C572 H553 0.951 . S
C572 C570 1.388 . S
C572 C573 1.366 . S
C573 C572 1.366 . S
C573 C574 1.414 . S
C573 C576 1.499 . S
C574 H554 0.950 . S
C574 C573 1.414 . S
C574 C575 1.374 . S
C575 H555 0.950 . S
C575 C571 1.385 . S
C575 C574 1.374 . S
C576 C573 1.499 . S
C576 C577 1.373 . S
C576 C578 1.389 . S
C577 H556 0.950 . S
C577 C576 1.373 . S
C577 C593 1.377 . S
C578 C576 1.389 . S
C578 C579 1.524 . S
C578 C592 1.377 . S
C579 C578 1.524 . S
C579 C580 1.397 . S
C579 C584 1.363 . S
C580 H557 0.950 . S
C580 C579 1.397 . S
C580 C581 1.334 . S
C581 H558 0.950 . S
C581 C580 1.334 . S
C581 C582 1.287 . S
C582 C581 1.287 . S
C582 C583 1.524 . S
C582 H601 0.913 . S
C583 H559 0.950 . S
C583 C582 1.524 . S
C583 C584 1.415 . S
C584 H560 0.950 . S
C584 C579 1.363 . S
C584 C583 1.415 . S
C585 H561 0.951 . S
C585 C586 1.366 . S
C585 C587 1.388 . S
C586 C585 1.366 . S
C586 C590 1.385 . S
C587 H562 0.951 . S
C587 C585 1.388 . S
C587 C588 1.366 . S
C588 C587 1.366 . S
C588 C589 1.414 . S
C588 C591 1.499 . S
C589 H563 0.950 . S
C589 C588 1.414 . S
C589 C590 1.374 . S
C590 H564 0.950 . S
C590 C586 1.385 . S
C590 C589 1.374 . S
C591 C588 1.499 . S
C591 C592 1.373 . S
C591 C593 1.389 . S
C592 H565 0.950 . S
C592 C578 1.377 . S
C592 C591 1.373 . S
C593 C577 1.377 . S
C593 C591 1.389 . S
C593 C594 1.524 . S
C594 C593 1.524 . S
C594 C595 1.397 . S
C594 C599 1.363 . S
C595 H566 0.950 . S
C595 C594 1.397 . S
C595 C596 1.334 . S
C596 H567 0.950 . S
C596 C595 1.334 . S
C596 C597 1.287 . S
C597 C596 1.287 . S
C597 C598 1.524 . S
C597 H600 0.999 . S
C598 H568 0.950 . S
C598 C597 1.524 . S
C598 C599 1.415 . S
C599 H569 0.950 . S
C599 C594 1.363 . S
C599 C598 1.415 . S
H600 C597 0.999 . S
H601 C582 0.913 . S
H602 C620 0.951 . S
H603 C622 0.951 . S
H604 C624 0.950 . S
H605 C625 0.950 . S
H606 C627 0.950 . S
H607 C630 0.950 . S
H608 C631 0.950 . S
H609 C633 0.950 . S
H610 C634 0.950 . S
H611 C635 0.951 . S
H612 C637 0.951 . S
H613 C639 0.950 . S
H614 C640 0.950 . S
H615 C642 0.950 . S
H616 C645 0.950 . S
H617 C646 0.950 . S
H618 C648 0.950 . S
H619 C649 0.950 . S
C620 H602 0.951 . S
C620 C621 1.366 . S
C620 C622 1.388 . S
C621 C620 1.366 . S
C621 C625 1.385 . S
C622 H603 0.951 . S
C622 C620 1.388 . S
C622 C623 1.366 . S
C623 C622 1.366 . S
C623 C624 1.414 . S
C623 C626 1.499 . S
C624 H604 0.950 . S
C624 C623 1.414 . S
C624 C625 1.374 . S
C625 H605 0.950 . S
C625 C621 1.385 . S
C625 C624 1.374 . S
C626 C623 1.499 . S
C626 C627 1.373 . S
C626 C628 1.389 . S
C627 H606 0.950 . S
C627 C626 1.373 . S
C627 C643 1.377 . S
C628 C626 1.389 . S
C628 C629 1.524 . S
C628 C642 1.377 . S
C629 C628 1.524 . S
C629 C630 1.397 . S
C629 C634 1.363 . S
C630 H607 0.950 . S
C630 C629 1.397 . S
C630 C631 1.334 . S
C631 H608 0.950 . S
C631 C630 1.334 . S
C631 C632 1.287 . S
C632 C631 1.287 . S
C632 C633 1.524 . S
C632 H651 0.913 . S
C633 H609 0.950 . S
C633 C632 1.524 . S
C633 C634 1.415 . S
C634 H610 0.950 . S
C634 C629 1.363 . S
C634 C633 1.415 . S
C635 H611 0.951 . S
C635 C636 1.366 . S
C635 C637 1.388 . S
C636 C635 1.366 . S
C636 C640 1.385 . S
C637 H612 0.951 . S
C637 C635 1.388 . S
C637 C638 1.366 . S
C638 C637 1.366 . S
C638 C639 1.414 . S
C638 C641 1.499 . S
C639 H613 0.950 . S
C639 C638 1.414 . S
C639 C640 1.374 . S
C640 H614 0.950 . S
C640 C636 1.385 . S
C640 C639 1.374 . S
C641 C638 1.499 . S
C641 C642 1.373 . S
C641 C643 1.389 . S
C642 H615 0.950 . S
C642 C628 1.377 . S
C642 C641 1.373 . S
C643 C627 1.377 . S
C643 C641 1.389 . S
C643 C644 1.524 . S
C644 C643 1.524 . S
C644 C645 1.397 . S
C644 C649 1.363 . S
C645 H616 0.950 . S
C645 C644 1.397 . S
C645 C646 1.334 . S
C646 H617 0.950 . S
C646 C645 1.334 . S
C646 C647 1.287 . S
C647 C646 1.287 . S
C647 C648 1.524 . S
C647 H650 0.999 . S
C648 H618 0.950 . S
C648 C647 1.524 . S
C648 C649 1.415 . S
C649 H619 0.950 . S
C649 C644 1.363 . S
C649 C648 1.415 . S
H650 C647 0.999 . S
H651 C632 0.913 . S
H652 C670 0.951 . S
H653 C672 0.951 . S
H654 C674 0.950 . S
H655 C675 0.950 . S
H656 C677 0.950 . S
H657 C680 0.950 . S
H658 C681 0.950 . S
H659 C683 0.950 . S
H660 C684 0.950 . S
H661 C685 0.951 . S
H662 C687 0.951 1_455 S
H663 C689 0.950 . S
H664 C690 0.950 . S
H665 C692 0.950 . S
H666 C695 0.950 . S
H667 C696 0.950 . S
H668 C698 0.950 . S
H669 C699 0.950 . S
C670 H652 0.951 . S
C670 C671 1.366 . S
C670 C672 1.388 . S
C671 C670 1.366 . S
C671 C675 1.385 . S
C672 H653 0.951 . S
C672 C670 1.388 . S
C672 C673 1.366 . S
C673 C672 1.366 . S
C673 C674 1.414 . S
C673 C676 1.499 . S
C674 H654 0.950 . S
C674 C673 1.414 . S
C674 C675 1.374 . S
C675 H655 0.950 . S
C675 C671 1.385 . S
C675 C674 1.374 . S
C676 C673 1.499 . S
C676 C677 1.373 . S
C676 C678 1.389 . S
C677 H656 0.950 . S
C677 C676 1.373 . S
C677 C693 1.377 . S
C678 C676 1.389 . S
C678 C679 1.524 . S
C678 C692 1.377 . S
C679 C678 1.524 . S
C679 C680 1.397 . S
C679 C684 1.363 . S
C680 H657 0.950 . S
C680 C679 1.397 . S
C680 C681 1.334 . S
C681 H658 0.950 . S
C681 C680 1.334 . S
C681 C682 1.287 . S
C682 C681 1.287 . S
C682 C683 1.524 . S
C682 H701 0.913 . S
C683 H659 0.950 . S
C683 C682 1.524 . S
C683 C684 1.415 . S
C684 H660 0.950 . S
C684 C679 1.363 . S
C684 C683 1.415 . S
C685 H661 0.951 . S
C685 C686 1.366 1_455 S
C685 C687 1.388 1_455 S
C686 C685 1.366 1_655 S
C686 C690 1.385 . S
C687 H662 0.951 1_655 S
C687 C685 1.388 1_655 S
C687 C688 1.366 . S
C688 C687 1.366 . S
C688 C689 1.414 . S
C688 C691 1.499 . S
C689 H663 0.950 . S
C689 C688 1.414 . S
C689 C690 1.374 . S
C690 H664 0.950 . S
C690 C686 1.385 . S
C690 C689 1.374 . S
C691 C688 1.499 . S
C691 C692 1.373 . S
C691 C693 1.389 . S
C692 H665 0.950 . S
C692 C678 1.377 . S
C692 C691 1.373 . S
C693 C677 1.377 . S
C693 C691 1.389 . S
C693 C694 1.547 . S
C694 C693 1.547 . S
C694 C695 1.403 . S
C694 C699 1.337 1_655 S
C695 H666 0.950 . S
C695 C694 1.403 . S
C695 C696 1.334 1_655 S
C696 H667 0.950 . S
C696 C695 1.334 1_455 S
C696 C697 1.287 . S
C697 C696 1.287 . S
C697 C698 1.524 . S
C697 H700 0.999 . S
C698 H668 0.950 . S
C698 C697 1.524 . S
C698 C699 1.415 . S
C699 H669 0.950 . S
C699 C694 1.337 1_455 S
C699 C698 1.415 . S
H700 C697 0.999 . S
H701 C682 0.913 . S
H702 C720 0.951 . S
H703 C722 0.951 . S
H704 C724 0.950 . S
H705 C725 0.950 . S
H706 C727 0.950 . S
H707 C730 0.950 . S
H708 C731 0.950 . S
H709 C733 0.950 . S
H710 C734 0.950 . S
H711 C735 0.951 . S
H712 C737 0.951 . S
H713 C739 0.950 . S
H714 C740 0.950 . S
H715 C742 0.950 . S
H716 C745 0.950 . S
H717 C746 0.950 . S
H718 C748 0.950 . S
H719 C749 0.950 . S
C720 H702 0.951 . S
C720 C721 1.366 . S
C720 C722 1.388 . S
C721 C720 1.366 . S
C721 C725 1.385 . S
C722 H703 0.951 . S
C722 C720 1.388 . S
C722 C723 1.366 . S
C723 C722 1.366 . S
C723 C724 1.414 . S
C723 C726 1.499 . S
C724 H704 0.950 . S
C724 C723 1.414 . S
C724 C725 1.374 . S
C725 H705 0.950 . S
C725 C721 1.385 . S
C725 C724 1.374 . S
C726 C723 1.499 . S
C726 C727 1.373 . S
C726 C728 1.389 . S
C727 H706 0.950 . S
C727 C726 1.373 . S
C727 C743 1.377 . S
C728 C726 1.389 . S
C728 C729 1.524 . S
C728 C742 1.377 . S
C729 C728 1.524 . S
C729 C730 1.397 . S
C729 C734 1.363 . S
C730 H707 0.950 . S
C730 C729 1.397 . S
C730 C731 1.334 . S
C731 H708 0.950 . S
C731 C730 1.334 . S
C731 C732 1.287 . S
C732 C731 1.287 . S
C732 C733 1.524 . S
C732 H751 0.913 . S
C733 H709 0.950 . S
C733 C732 1.524 . S
C733 C734 1.415 . S
C734 H710 0.950 . S
C734 C729 1.363 . S
C734 C733 1.415 . S
C735 H711 0.951 . S
C735 C736 1.366 . S
C735 C737 1.388 . S
C736 C735 1.366 . S
C736 C740 1.385 . S
C737 H712 0.951 . S
C737 C735 1.388 . S
C737 C738 1.366 . S
C738 C737 1.366 . S
C738 C739 1.414 . S
C738 C741 1.499 . S
C739 H713 0.950 . S
C739 C738 1.414 . S
C739 C740 1.374 . S
C740 H714 0.950 . S
C740 C736 1.385 . S
C740 C739 1.374 . S
C741 C738 1.499 . S
C741 C742 1.373 . S
C741 C743 1.389 . S
C742 H715 0.950 . S
C742 C728 1.377 . S
C742 C741 1.373 . S
C743 C727 1.377 . S
C743 C741 1.389 . S
C743 C744 1.524 . S
C744 C743 1.524 . S
C744 C745 1.397 . S
C744 C749 1.363 . S
C745 H716 0.950 . S
C745 C744 1.397 . S
C745 C746 1.334 . S
C746 H717 0.950 . S
C746 C745 1.334 . S
C746 C747 1.287 . S
C747 C746 1.287 . S
C747 C748 1.524 . S
C747 H750 0.999 . S
C748 H718 0.950 . S
C748 C747 1.524 . S
C748 C749 1.415 . S
C749 H719 0.950 . S
C749 C744 1.363 . S
C749 C748 1.415 . S
H750 C747 0.999 . S
H751 C732 0.913 . S
H752 C770 0.951 . S
H753 C772 0.951 . S
H754 C774 0.950 . S
H755 C775 0.950 . S
H756 C777 0.950 . S
H757 C780 0.950 . S
H758 C781 0.950 . S
H759 C783 0.950 . S
H760 C784 0.950 . S
H761 C785 0.951 . S
H762 C787 0.951 . S
H763 C789 0.950 . S
H764 C790 0.950 1_655 S
H765 C792 0.950 . S
H766 C795 0.950 . S
H767 C796 0.950 . S
H768 C798 0.950 . S
H769 C799 0.950 . S
C770 H752 0.951 . S
C770 C771 1.366 . S
C770 C772 1.388 . S
C771 C770 1.366 . S
C771 C775 1.385 . S
C772 H753 0.951 . S
C772 C770 1.388 . S
C772 C773 1.366 . S
C773 C772 1.366 . S
C773 C774 1.414 . S
C773 C776 1.499 . S
C774 H754 0.950 . S
C774 C773 1.414 . S
C774 C775 1.374 . S
C775 H755 0.950 . S
C775 C771 1.385 . S
C775 C774 1.374 . S
C776 C773 1.499 . S
C776 C777 1.373 . S
C776 C778 1.389 . S
C777 H756 0.950 . S
C777 C776 1.373 . S
C777 C793 1.377 . S
C778 C776 1.389 . S
C778 C779 1.524 . S
C778 C792 1.377 . S
C779 C778 1.524 . S
C779 C780 1.397 . S
C779 C784 1.363 1_455 S
C780 H757 0.950 . S
C780 C779 1.397 . S
C780 C781 1.334 1_455 S
C781 H758 0.950 . S
C781 C780 1.334 1_655 S
C781 C782 1.287 . S
C782 C781 1.287 . S
C782 C783 1.524 . S
C782 H801 0.913 . S
C783 H759 0.950 . S
C783 C782 1.524 . S
C783 C784 1.415 . S
C784 H760 0.950 . S
C784 C779 1.363 1_655 S
C784 C783 1.415 . S
C785 H761 0.951 . S
C785 C786 1.366 . S
C785 C787 1.388 . S
C786 C785 1.366 . S
C786 C790 1.385 . S
C787 H762 0.951 . S
C787 C785 1.388 . S
C787 C788 1.366 . S
C788 C787 1.366 . S
C788 C789 1.414 . S
C788 C791 1.499 . S
C789 H763 0.950 . S
C789 C788 1.414 . S
C789 C790 1.374 . S
C790 H764 0.950 1_455 S
C790 C786 1.385 . S
C790 C789 1.374 . S
C791 C788 1.499 . S
C791 C792 1.373 . S
C791 C793 1.389 . S
C792 H765 0.950 . S
C792 C778 1.377 . S
C792 C791 1.373 . S
C793 C777 1.377 . S
C793 C791 1.389 . S
C793 C794 1.524 . S
C794 C793 1.524 . S
C794 C795 1.397 . S
C794 C799 1.363 . S
C795 H766 0.950 . S
C795 C794 1.397 . S
C795 C796 1.334 . S
C796 H767 0.950 . S
C796 C795 1.334 . S
C796 C797 1.287 . S
C797 C796 1.287 . S
C797 C798 1.524 . S
C797 H800 0.999 . S
C798 H768 0.950 . S
C798 C797 1.524 . S
C798 C799 1.415 . S
C799 H769 0.950 . S
C799 C794 1.363 . S
C799 C798 1.415 . S
H800 C797 0.999 . S
H801 C782 0.913 . S
C236 C173 1.628 . S
C221 C138 1.601 . S
C271 C21 1.612 . S
C286 C196 1.627 . S
C321 C60 1.634 . S
C336 C172 1.651 . S
C371 C99 1.624 . S
C386 C195 1.652 . S
C436 C176 1.581 . S
C421 C16 1.606 . S
C486 C198 1.611 . S
C471 C40 1.628 . S
C521 C79 1.618 . S
C536 C177 1.587 . S
C571 C133 1.603 . S
C586 C197 1.585 . S
C636 C200 1.588 . S
C621 C55 1.619 . S
C686 C175 1.610 . S
C671 C94 1.626 . S
C736 C199 1.582 . S
C721 C118 1.605 . S
C771 C1 1.605 . S
C786 C174 1.586 . S
