# Generated by pormake.
# Topology dag, (6,3)-cn, num edge types: 1
# Building blocks:
#     Node 0, Type 0, BuildingBlock: OJICUG_clean_sbu_0, # of connection points: 6
#     Node 1, Type 0, BuildingBlock: OJICUG_clean_sbu_0, # of connection points: 6
#     Node 2, Type 0, BuildingBlock: OJICUG_clean_sbu_0, # of connection points: 6
#     Node 3, Type 0, BuildingBlock: OJICUG_clean_sbu_0, # of connection points: 6
#     Node 4, Type 1, BuildingBlock: VETTIZ_charged_linker_0, # of connection points: 3
#     Node 5, Type 1, BuildingBlock: VETTIZ_charged_linker_0, # of connection points: 3
#     Node 6, Type 1, BuildingBlock: VETTIZ_charged_linker_0, # of connection points: 3
#     Node 7, Type 1, BuildingBlock: VETTIZ_charged_linker_0, # of connection points: 3
#     Node 8, Type 1, BuildingBlock: VETTIZ_charged_linker_0, # of connection points: 3
#     Node 9, Type 1, BuildingBlock: VETTIZ_charged_linker_0, # of connection points: 3
#     Node 10, Type 1, BuildingBlock: VETTIZ_charged_linker_0, # of connection points: 3
#     Node 11, Type 1, BuildingBlock: VETTIZ_charged_linker_0, # of connection points: 3
#     Edge 12, Type (0, 1), BuildingBlock: OJICUG_clean_linker_0, # of connection points: 2
#     Edge 13, Type (0, 1), BuildingBlock: OJICUG_clean_linker_0, # of connection points: 2
#     Edge 14, Type (0, 1), BuildingBlock: OJICUG_clean_linker_0, # of connection points: 2
#     Edge 15, Type (0, 1), BuildingBlock: OJICUG_clean_linker_0, # of connection points: 2
#     Edge 16, Type (0, 1), BuildingBlock: OJICUG_clean_linker_0, # of connection points: 2
#     Edge 17, Type (0, 1), BuildingBlock: OJICUG_clean_linker_0, # of connection points: 2
#     Edge 18, Type (0, 1), BuildingBlock: OJICUG_clean_linker_0, # of connection points: 2
#     Edge 19, Type (0, 1), BuildingBlock: OJICUG_clean_linker_0, # of connection points: 2
#     Edge 20, Type (0, 1), BuildingBlock: OJICUG_clean_linker_0, # of connection points: 2
#     Edge 21, Type (0, 1), BuildingBlock: OJICUG_clean_linker_0, # of connection points: 2
#     Edge 22, Type (0, 1), BuildingBlock: OJICUG_clean_linker_0, # of connection points: 2
#     Edge 23, Type (0, 1), BuildingBlock: OJICUG_clean_linker_0, # of connection points: 2
#     Edge 24, Type (0, 1), BuildingBlock: OJICUG_clean_linker_0, # of connection points: 2
#     Edge 25, Type (0, 1), BuildingBlock: OJICUG_clean_linker_0, # of connection points: 2
#     Edge 26, Type (0, 1), BuildingBlock: OJICUG_clean_linker_0, # of connection points: 2
#     Edge 27, Type (0, 1), BuildingBlock: OJICUG_clean_linker_0, # of connection points: 2
#     Edge 28, Type (0, 1), BuildingBlock: OJICUG_clean_linker_0, # of connection points: 2
#     Edge 29, Type (0, 1), BuildingBlock: OJICUG_clean_linker_0, # of connection points: 2
#     Edge 30, Type (0, 1), BuildingBlock: OJICUG_clean_linker_0, # of connection points: 2
#     Edge 31, Type (0, 1), BuildingBlock: OJICUG_clean_linker_0, # of connection points: 2
#     Edge 32, Type (0, 1), BuildingBlock: OJICUG_clean_linker_0, # of connection points: 2
#     Edge 33, Type (0, 1), BuildingBlock: OJICUG_clean_linker_0, # of connection points: 2
#     Edge 34, Type (0, 1), BuildingBlock: OJICUG_clean_linker_0, # of connection points: 2
#     Edge 35, Type (0, 1), BuildingBlock: OJICUG_clean_linker_0, # of connection points: 2
# Relax obj value: 0.268
# Max RMSD: 0.196
# Mean RMSD: 0.162
data_MOF--net-dag--node1-OJICUG_clean_sbu_0--node2-VETTIZ_charged_linker_0--edge1-OJICUG_clean_linker_0
_symmetry_space_group_name_H-M    P1
_symmetry_Int_Tables_number       1
_symmetry_cell_setting            triclinic
loop_
_symmetry_equiv_pos_as_xyz
'x, y, z'
_cell_length_a     35.664638
_cell_length_b     35.591311
_cell_length_c     37.321329
_cell_angle_alpha  90.058772
_cell_angle_beta   89.546358
_cell_angle_gamma 89.93582
loop_
_atom_site_label
_atom_site_type_symbol
_atom_site_fract_x
_atom_site_fract_y
_atom_site_fract_z
_atom_type_partial_charge
Sc0 Sc 0.1595 0.84668 0.96096 0.0
Sc1 Sc 0.17037 0.75344 0.98988 0.0
Sc2 Sc 0.24174 0.82125 0.00295 0.0
O3 O 0.19028 0.80686 0.98492 0.0
C4 C 0.2367 0.87322 0.93329 0.0
C5 C 0.13501 0.77578 0.91482 0.0
C6 C 0.25422 0.74542 0.95877 0.0
C7 C 0.10038 0.80467 0.01216 0.0
C8 C 0.19638 0.89137 0.02693 0.0
C9 C 0.21759 0.75993 0.06095 0.0
O10 O 0.20395 0.86261 0.92513 0.0
O11 O 0.14503 0.75145 0.93764 0.0
O12 O 0.26535 0.77765 0.96942 0.0
O13 O 0.11245 0.83311 -0.00518 0.0
O14 O 0.21942 0.86587 0.03614 0.0
O15 O 0.19091 0.74588 0.04331 0.0
O16 O 0.17601 0.88887 -0.00083 0.0
O17 O 0.11782 0.77328 0.01311 0.0
O18 O 0.23877 0.78548 0.04881 0.0
O19 O 0.1392 0.81072 0.91968 0.0
O20 O 0.25268 0.86228 0.96169 0.0
O21 O 0.22186 0.73184 0.96615 0.0
Sc22 Sc 0.73277 0.67901 0.48853 0.0
Sc23 Sc 0.6725 0.75889 0.48386 0.0
Sc24 Sc 0.63576 0.66766 0.47995 0.0
O25 O 0.68046 0.70192 0.48417 0.0
C26 C 0.69594 0.62279 0.43282 0.0
C27 C 0.7451 0.74754 0.43423 0.0
C28 C 0.61443 0.73161 0.42489 0.0
C29 C 0.73671 0.74897 0.54198 0.0
C30 C 0.6842 0.62548 0.53906 0.0
C31 C 0.60341 0.73238 0.53119 0.0
O32 O 0.72472 0.63754 0.44687 0.0
O33 O 0.71624 0.766 0.44427 0.0
O34 O 0.61469 0.6977 0.43518 0.0
O35 O 0.74716 0.71665 0.53138 0.0
O36 O 0.6533 0.63409 0.52443 0.0
O37 O 0.6281 0.75697 0.52381 0.0
O38 O 0.71563 0.63873 0.5288 0.0
O39 O 0.71106 0.7677 0.52681 0.0
O40 O 0.60238 0.7002 0.51659 0.0
O41 O 0.75475 0.71634 0.44804 0.0
O42 O 0.66275 0.63102 0.44231 0.0
O43 O 0.6319 0.75775 0.44086 0.0
Sc44 Sc 0.82284 0.24483 -0.00346 0.0
Sc45 Sc 0.75099 0.1762 0.98737 0.0
Sc46 Sc 0.83913 0.15156 0.02119 0.0
O47 O 0.80425 0.19089 0.00156 0.0
C48 C 0.89485 0.19971 0.9713 0.0
C49 C 0.77133 0.23782 0.92798 0.0
C50 C 0.80032 0.1097 0.95513 0.0
C51 C 0.74033 0.25279 0.03081 0.0
C52 C 0.85901 0.22058 0.07104 0.0
C53 C 0.76243 0.12251 0.05465 0.0
O54 O 0.87453 0.22903 0.9702 0.0
O55 O 0.75125 0.21173 0.94101 0.0
O56 O 0.82585 0.11408 0.97836 0.0
O57 O 0.77289 0.26499 0.02273 0.0
O58 O 0.85516 0.18565 0.06554 0.0
O59 O 0.74199 0.13737 0.03089 0.0
O60 O 0.85027 0.24539 0.04809 0.0
O61 O 0.72806 0.22086 0.02059 0.0
O62 O 0.79763 0.12699 0.05564 0.0
O63 O 0.79906 0.25182 0.94428 0.0
O64 O 0.88572 0.17073 0.9892 0.0
O65 O 0.77092 0.13014 0.95377 0.0
Sc66 Sc 0.35962 0.3284 0.505 0.0
Sc67 Sc 0.2625 0.31514 0.49825 0.0
Sc68 Sc 0.32432 0.23654 0.50139 0.0
O69 O 0.31539 0.29331 0.50146 0.0
C70 C 0.39262 0.26388 0.45379 0.0
C71 C 0.30904 0.36894 0.44622 0.0
C72 C 0.25833 0.24473 0.44515 0.0
C73 C 0.29953 0.37296 0.55254 0.0
C74 C 0.38288 0.26455 0.55969 0.0
C75 C 0.25255 0.24658 0.55242 0.0
O76 O 0.39313 0.29626 0.46804 0.0
O77 O 0.27823 0.35462 0.45691 0.0
O78 O 0.28555 0.22708 0.45888 0.0
O79 O 0.33275 0.36485 0.543 0.0
O80 O 0.36512 0.23841 0.54401 0.0
O81 O 0.2423 0.27818 0.5399 0.0
O82 O 0.38214 0.29856 0.54955 0.0
O83 O 0.27085 0.35767 0.53886 0.0
O84 O 0.2811 0.22856 0.541 0.0
O85 O 0.34045 0.36165 0.46064 0.0
O86 O 0.36841 0.23897 0.46145 0.0
O87 O 0.24704 0.27648 0.4565 0.0
C88 C 0.17236 0.03584 0.14031 0.0
C89 C 0.15602 0.02212 0.10869 0.0
C90 C 0.12283 0.03899 0.09611 0.0
C91 C 0.12302 0.08274 0.14563 0.0
C92 C 0.15544 0.06623 0.15824 0.0
C93 C 0.16904 0.08495 0.19194 0.0
H94 H 0.14061 0.21561 0.32149 0.0
C95 C 0.11231 0.11335 0.17028 0.0
C96 C 0.13905 0.11486 0.19757 0.0
H97 H 0.23494 0.13992 0.30918 0.0
H98 H 0.20736 0.11386 0.25589 0.0
H99 H 0.13965 0.23967 0.23977 0.0
H100 H 0.07609 0.15761 0.2992 0.0
H101 H 0.04488 0.18059 0.27034 0.0
H102 H 0.06881 0.20725 0.30431 0.0
H103 H 0.10291 0.25268 0.27049 0.0
H104 H 0.09341 0.24189 0.22421 0.0
C105 C 0.20805 0.10238 0.18411 0.0
C106 C 0.16874 0.05538 0.22233 0.0
C107 C 0.99468 0.18871 0.14638 0.0
C108 C 0.97621 0.21748 0.16514 0.0
C109 C 0.99138 0.23136 0.19712 0.0
C110 C 0.02497 0.21632 0.21037 0.0
C111 C 0.04312 0.18712 0.19137 0.0
C112 C 0.02783 0.17391 0.15993 0.0
C113 C 0.04997 0.14219 0.1437 0.0
C114 C 0.08151 0.13862 0.17041 0.0
C115 C 0.07742 0.16496 0.19815 0.0
C116 C 0.0644 0.15503 0.10638 0.0
C117 C 0.02466 0.10673 0.14313 0.0
C118 C 0.15559 0.19364 0.30725 0.0
C119 C 0.19 0.17983 0.31974 0.0
C120 C 0.20809 0.15072 0.30054 0.0
C121 C 0.1922 0.1358 0.2694 0.0
C122 C 0.15797 0.15027 0.25716 0.0
C123 C 0.14042 0.17886 0.27594 0.0
C124 C 0.10507 0.19194 0.25833 0.0
C125 C 0.1042 0.16641 0.2259 0.0
C126 C 0.13502 0.14177 0.22547 0.0
C127 C 0.11011 0.23377 0.24775 0.0
C128 C 0.07181 0.18431 0.28428 0.0
H129 H 0.08118 0.08057 0.10321 0.0
H130 H 0.19794 0.02359 0.15054 0.0
H131 H 0.14297 0.03785 0.22105 0.0
H132 H 0.1684 0.06799 0.24934 0.0
H133 H 0.19331 0.03629 0.22002 0.0
H134 H 0.21042 0.11167 0.15573 0.0
H135 H 0.23085 0.08176 0.18897 0.0
H136 H 0.21335 0.12802 0.19999 0.0
H137 H 0.98304 0.17744 0.12186 0.0
H138 H 0.97708 0.25339 0.2119 0.0
H139 H 0.0353 0.22773 0.23502 0.0
H140 H 0.07222 0.18529 0.10679 0.0
H141 H 0.04253 0.15131 0.08566 0.0
H142 H 0.09017 0.14028 0.09769 0.0
H143 H 0.00404 0.10707 0.16567 0.0
H144 H 0.04054 0.08037 0.14689 0.0
H145 H 0.00857 0.10493 0.11783 0.0
H146 H 0.10923 0.02852 0.07225 0.0
C147 C 0.10636 0.06913 0.11429 0.0
C148 C 0.30508 0.52247 0.66238 0.0
C149 C 0.31031 0.51134 0.62657 0.0
C150 C 0.32969 0.5351 0.60273 0.0
C151 C 0.34193 0.57866 0.65103 0.0
C152 C 0.32062 0.55663 0.67388 0.0
C153 C 0.31723 0.5738 0.7107 0.0
H154 H 0.37017 0.70877 0.82775 0.0
C155 C 0.35736 0.6102 0.67192 0.0
C156 C 0.34265 0.60793 0.70677 0.0
H157 H 0.28098 0.62685 0.83934 0.0
H158 H 0.29683 0.60078 0.78202 0.0
H159 H 0.43087 0.65364 0.78685 0.0
H160 H 0.34787 0.73156 0.7479 0.0
H161 H 0.39006 0.7385 0.72398 0.0
H162 H 0.38892 0.74647 0.77158 0.0
H163 H 0.43704 0.70358 0.78998 0.0
H164 H 0.45037 0.67782 0.75017 0.0
C165 C 0.33267 0.54549 0.73835 0.0
C166 C 0.27564 0.58504 0.71715 0.0
C167 C 0.45782 0.69182 0.61544 0.0
C168 C 0.48196 0.71958 0.62879 0.0
C169 C 0.47784 0.73118 0.66475 0.0
C170 C 0.45013 0.71513 0.687 0.0
C171 C 0.4266 0.6869 0.67323 0.0
C172 C 0.43082 0.67579 0.63796 0.0
C173 C 0.40539 0.64389 0.62817 0.0
C174 C 0.38482 0.63766 0.66334 0.0
C175 C 0.39709 0.663 0.68964 0.0
C176 C 0.43035 0.60982 0.61763 0.0
C177 C 0.37863 0.6575 0.59829 0.0
C178 C 0.35377 0.68535 0.81808 0.0
C179 C 0.32417 0.67012 0.83877 0.0
C180 C 0.3044 0.639 0.82487 0.0
C181 C 0.31314 0.62416 0.79106 0.0
C182 C 0.34151 0.64082 0.77031 0.0
C183 C 0.36137 0.67086 0.78385 0.0
C184 C 0.38897 0.68641 0.75693 0.0
C185 C 0.38128 0.66158 0.72469 0.0
C186 C 0.35397 0.63445 0.73301 0.0
C187 C 0.42901 0.68042 0.77161 0.0
C188 C 0.3788 0.72801 0.74968 0.0
H189 H 0.3609 0.58503 0.59552 0.0
H190 H 0.28982 0.50473 0.68099 0.0
H191 H 0.25976 0.58697 0.69167 0.0
H192 H 0.2729 0.61331 0.72939 0.0
H193 H 0.26094 0.56426 0.73442 0.0
H194 H 0.36014 0.53402 0.72914 0.0
H195 H 0.31309 0.52153 0.74202 0.0
H196 H 0.33768 0.55831 0.76482 0.0
H197 H 0.46092 0.68141 0.58829 0.0
H198 H 0.49622 0.75242 0.67569 0.0
H199 H 0.44841 0.72495 0.71416 0.0
H200 H 0.45536 0.60808 0.6352 0.0
H201 H 0.44054 0.61229 0.58953 0.0
H202 H 0.41621 0.58251 0.62087 0.0
H203 H 0.37314 0.68821 0.60048 0.0
H204 H 0.35056 0.64441 0.60012 0.0
H205 H 0.39074 0.65214 0.57125 0.0
H206 H 0.33398 0.52679 0.57505 0.0
C207 C 0.34555 0.56867 0.61475 0.0
C208 C 0.79151 0.82827 0.28486 0.0
C209 C 0.81235 0.80068 0.30287 0.0
C210 C 0.84397 0.78487 0.28549 0.0
C211 C 0.83294 0.82371 0.2332 0.0
C212 C 0.80229 0.83938 0.25046 0.0
C213 C 0.78341 0.86908 0.2285 0.0
H214 H 0.77908 0.97268 0.07762 0.0
C215 C 0.83575 0.84095 0.19724 0.0
C216 C 0.80655 0.86731 0.19436 0.0
H217 H 0.71635 0.98996 0.17555 0.0
H218 H 0.74135 0.932 0.19974 0.0
H219 H 0.85236 0.95751 0.116 0.0
H220 H 0.77218 0.88018 0.07258 0.0
H221 H 0.81646 0.85986 0.06505 0.0
H222 H 0.80533 0.90455 0.0447 0.0
H223 H 0.84602 0.95069 0.06878 0.0
H224 H 0.87793 0.92221 0.094 0.0
C225 C 0.78764 0.90733 0.24819 0.0
C226 C 0.74231 0.85701 0.22205 0.0
C227 C 0.9449 0.81005 0.1133 0.0
C228 C 0.95417 0.82292 0.07868 0.0
C229 C 0.92757 0.84408 0.05953 0.0
C230 C 0.89362 0.85476 0.07543 0.0
C231 C 0.88612 0.84451 0.11104 0.0
C232 C 0.91064 0.82114 0.12892 0.0
C233 C 0.89657 0.81175 0.16605 0.0
C234 C 0.86092 0.83523 0.16802 0.0
C235 C 0.85537 0.85474 0.13582 0.0
C236 C 0.92608 0.82502 0.19348 0.0
C237 C 0.88815 0.7691 0.16741 0.0
C238 C 0.7698 0.96311 0.10378 0.0
C239 C 0.74532 0.98517 0.12461 0.0
C240 C 0.73487 0.97295 0.15906 0.0
C241 C 0.74986 0.93967 0.17313 0.0
C242 C 0.77651 0.91927 0.15294 0.0
C243 C 0.78563 0.93082 0.11865 0.0
C244 C 0.81736 0.9084 0.10258 0.0
C245 C 0.82616 0.88172 0.1331 0.0
C246 C 0.80196 0.88802 0.16229 0.0
C247 C 0.85021 0.93583 0.0946 0.0
C248 C 0.8024 0.88725 0.06932 0.0
H249 H 0.8786 0.78318 0.23894 0.0
H250 H 0.76673 0.84069 0.29695 0.0
H251 H 0.74092 0.82668 0.21493 0.0
H252 H 0.7292 0.87212 0.19955 0.0
H253 H 0.72487 0.86143 0.24649 0.0
H254 H 0.81122 0.90698 0.26754 0.0
H255 H 0.76181 0.91465 0.2635 0.0
H256 H 0.79457 0.93061 0.22964 0.0
H257 H 0.96457 0.79335 0.1285 0.0
H258 H 0.93355 0.85334 0.03244 0.0
H259 H 0.87511 0.87176 0.05978 0.0
H260 H 0.93721 0.85314 0.18594 0.0
H261 H 0.95012 0.80519 0.19453 0.0
H262 H 0.91451 0.82841 0.22078 0.0
H263 H 0.87804 0.75874 0.14105 0.0
H264 H 0.86544 0.76203 0.18653 0.0
H265 H 0.91367 0.75277 0.17425 0.0
H266 H 0.86086 0.76388 0.2988 0.0
C267 C 0.85429 0.79616 0.25073 0.0
C268 C 0.70212 0.27684 0.76945 0.0
C269 C 0.72943 0.29589 0.78939 0.0
C270 C 0.7427 0.33088 0.77688 0.0
C271 C 0.69803 0.32922 0.72827 0.0
C272 C 0.6863 0.29422 0.73971 0.0
C273 C 0.65272 0.28026 0.71971 0.0
H274 H 0.5113 0.31854 0.60695 0.0
C275 C 0.67287 0.34121 0.69922 0.0
C276 C 0.64612 0.31266 0.69432 0.0
H277 H 0.52623 0.21831 0.67023 0.0
H278 H 0.58717 0.241 0.68976 0.0
H279 H 0.53775 0.37548 0.66386 0.0
H280 H 0.59484 0.32151 0.57634 0.0
H281 H 0.61533 0.36618 0.57936 0.0
H282 H 0.56588 0.36209 0.56983 0.0
H283 H 0.5302 0.38744 0.61778 0.0
H284 H 0.56602 0.40996 0.64384 0.0
C285 C 0.61995 0.27521 0.74693 0.0
C286 C 0.66396 0.24399 0.69937 0.0
C287 C 0.68746 0.4705 0.64176 0.0
C288 C 0.66576 0.48947 0.61618 0.0
C289 C 0.63515 0.47098 0.60042 0.0
C290 C 0.62554 0.43454 0.61045 0.0
C291 C 0.64646 0.41627 0.63687 0.0
C292 C 0.67713 0.43389 0.65185 0.0
C293 C 0.69533 0.40981 0.68004 0.0
C294 C 0.67078 0.37486 0.67887 0.0
C295 C 0.64211 0.37918 0.65376 0.0
C296 C 0.69221 0.43062 0.71648 0.0
C297 C 0.73601 0.40129 0.66786 0.0
C298 C 0.52783 0.3015 0.625 0.0
C299 C 0.51409 0.26716 0.63784 0.0
C300 C 0.5364 0.24512 0.66052 0.0
C301 C 0.57152 0.25844 0.6718 0.0
C302 C 0.584 0.29406 0.66021 0.0
C303 C 0.56257 0.31436 0.63644 0.0
C304 C 0.5798 0.35137 0.62659 0.0
C305 C 0.61472 0.35077 0.64936 0.0
C306 C 0.61698 0.31738 0.66914 0.0
C307 C 0.55215 0.38292 0.63828 0.0
C308 C 0.58932 0.35063 0.58593 0.0
H309 H 0.73784 0.37456 0.73852 0.0
H310 H 0.69174 0.24961 0.77781 0.0
H311 H 0.69278 0.24651 0.68799 0.0
H312 H 0.64577 0.23822 0.6762 0.0
H313 H 0.6636 0.21929 0.71754 0.0
H314 H 0.6217 0.29611 0.76905 0.0
H315 H 0.62046 0.24678 0.75917 0.0
H316 H 0.59211 0.2801 0.73513 0.0
H317 H 0.7112 0.48414 0.65417 0.0
H318 H 0.61858 0.48484 0.5801 0.0
H319 H 0.60175 0.42231 0.59757 0.0
H320 H 0.66664 0.44854 0.71772 0.0
H321 H 0.71679 0.44913 0.72091 0.0
H322 H 0.68916 0.41127 0.73944 0.0
H323 H 0.73694 0.39419 0.63883 0.0
H324 H 0.74825 0.37684 0.68169 0.0
H325 H 0.75441 0.42604 0.67211 0.0
H326 H 0.76364 0.34632 0.7917 0.0
C327 C 0.72733 0.34749 0.74623 0.0
C328 C 0.68186 0.47748 0.32002 0.0
C329 C 0.68129 0.48619 0.35675 0.0
C330 C 0.66561 0.46044 0.3812 0.0
C331 C 0.64834 0.41948 0.3323 0.0
C332 C 0.66586 0.4436 0.3085 0.0
C333 C 0.66516 0.42875 0.27071 0.0
H334 H 0.63103 0.28217 0.16108 0.0
C335 C 0.63238 0.38804 0.31171 0.0
C336 C 0.6427 0.39277 0.27567 0.0
H337 H 0.68608 0.38732 0.13552 0.0
H338 H 0.66974 0.41162 0.19364 0.0
H339 H 0.65361 0.2708 0.2431 0.0
H340 H 0.55954 0.32459 0.19364 0.0
H341 H 0.5441 0.31306 0.23711 0.0
H342 H 0.55771 0.27615 0.20635 0.0
H343 H 0.6185 0.24783 0.21659 0.0
H344 H 0.611 0.25595 0.26352 0.0
C345 C 0.70625 0.42092 0.25917 0.0
C346 C 0.6444 0.45751 0.24683 0.0
C347 C 0.54076 0.29984 0.37228 0.0
C348 C 0.51703 0.27153 0.35925 0.0
C349 C 0.52159 0.25917 0.32357 0.0
C350 C 0.54865 0.27567 0.30099 0.0
C351 C 0.57086 0.30523 0.31409 0.0
C352 C 0.56693 0.31651 0.34933 0.0
C353 C 0.59102 0.3498 0.35822 0.0
C354 C 0.60873 0.35784 0.32199 0.0
C355 C 0.59732 0.33136 0.29641 0.0
C356 C 0.62049 0.33738 0.38621 0.0
C357 C 0.56504 0.38225 0.37089 0.0
C358 C 0.63922 0.31059 0.16764 0.0
C359 C 0.66165 0.332 0.14403 0.0
C360 C 0.67058 0.36932 0.15369 0.0
C361 C 0.66108 0.3835 0.18752 0.0
C362 C 0.64188 0.36046 0.21192 0.0
C363 C 0.62933 0.32554 0.20118 0.0
C364 C 0.60568 0.30686 0.22965 0.0
C365 C 0.60994 0.33451 0.2604 0.0
C366 C 0.63157 0.36563 0.24991 0.0
C367 C 0.6229 0.26816 0.23875 0.0
C368 C 0.56467 0.30478 0.21613 0.0
H369 H 0.63671 0.40919 0.389 0.0
H370 H 0.69409 0.49676 0.30078 0.0
H371 H 0.62165 0.4719 0.26214 0.0
H372 H 0.63012 0.44417 0.22393 0.0
H373 H 0.66387 0.47944 0.23665 0.0
H374 H 0.72216 0.40792 0.2815 0.0
H375 H 0.72076 0.44739 0.25162 0.0
H376 H 0.70882 0.40086 0.2368 0.0
H377 H 0.53747 0.31055 0.3993 0.0
H378 H 0.5037 0.2373 0.31299 0.0
H379 H 0.5508 0.26537 0.27404 0.0
H380 H 0.62556 0.30654 0.38525 0.0
H381 H 0.61121 0.34444 0.41389 0.0
H382 H 0.64838 0.35005 0.38111 0.0
H383 H 0.54004 0.38438 0.35335 0.0
H384 H 0.57847 0.41008 0.36977 0.0
H385 H 0.55496 0.37746 0.39874 0.0
H386 H 0.66473 0.46686 0.40959 0.0
C387 C 0.64908 0.42718 0.36918 0.0
C388 C 0.17361 0.19965 0.70914 0.0
C389 C 0.20325 0.18743 0.68685 0.0
C390 C 0.22958 0.16164 0.70039 0.0
C391 C 0.19601 0.15914 0.75668 0.0
C392 C 0.17062 0.18517 0.744 0.0
C393 C 0.14089 0.19447 0.77153 0.0
H394 H 0.06254 0.15713 0.93345 0.0
C395 C 0.18521 0.14922 0.79354 0.0
C396 C 0.15329 0.17024 0.80286 0.0
H397 H 0.02036 0.23031 0.85059 0.0
H398 H 0.07692 0.22043 0.81575 0.0
H399 H 0.08981 0.09278 0.87893 0.0
H400 H 0.14788 0.18342 0.93103 0.0
H401 H 0.1799 0.14597 0.92789 0.0
H402 H 0.13739 0.14043 0.95406 0.0
H403 H 0.09603 0.0959 0.92656 0.0
H404 H 0.13099 0.07496 0.89823 0.0
C405 C 0.10253 0.18188 0.75646 0.0
C406 C 0.14341 0.23688 0.78036 0.0
C407 C 0.2483 0.03885 0.8537 0.0
C408 C 0.24285 0.02193 0.88723 0.0
C409 C 0.22098 0.04049 0.91345 0.0
C410 C 0.20205 0.07382 0.90526 0.0
C411 C 0.20482 0.08848 0.87045 0.0
C412 C 0.22936 0.07233 0.84605 0.0
C413 C 0.23046 0.09325 0.81117 0.0
C414 C 0.20038 0.12279 0.8178 0.0
C415 C 0.18491 0.11933 0.85226 0.0
C416 C 0.21946 0.06557 0.7809 0.0
C417 C 0.27003 0.11091 0.80673 0.0
C418 C 0.06544 0.17104 0.90778 0.0
C419 C 0.03664 0.19404 0.89454 0.0
C420 C 0.04207 0.21244 0.86146 0.0
C421 C 0.07477 0.20632 0.84107 0.0
C422 C 0.10215 0.18124 0.85371 0.0
C423 C 0.09752 0.1647 0.88691 0.0
C424 C 0.12851 0.13763 0.89558 0.0
C425 C 0.15244 0.1403 0.86188 0.0
C426 C 0.13676 0.16574 0.83735 0.0
C427 C 0.11072 0.09818 0.9003 0.0
C428 C 0.14951 0.15226 0.929 0.0
H429 H 0.24697 0.12785 0.74351 0.0
H430 H 0.15306 0.21962 0.69959 0.0
H431 H 0.17318 0.24613 0.78129 0.0
H432 H 0.13162 0.2439 0.80698 0.0
H433 H 0.12904 0.254 0.75971 0.0
H434 H 0.10553 0.15571 0.74033 0.0
H435 H 0.09043 0.20379 0.73879 0.0
H436 H 0.08191 0.17474 0.77755 0.0
H437 H 0.26543 0.02531 0.83336 0.0
H438 H 0.21641 0.02784 0.93952 0.0
H439 H 0.18452 0.08586 0.92575 0.0
H440 H 0.19511 0.04809 0.78935 0.0
H441 H 0.24305 0.04632 0.77425 0.0
H442 H 0.21066 0.07965 0.75606 0.0
H443 H 0.28492 0.11315 0.83274 0.0
H444 H 0.26875 0.14016 0.79661 0.0
H445 H 0.28802 0.09389 0.78849 0.0
H446 H 0.25333 0.15263 0.68425 0.0
C447 C 0.22614 0.14754 0.73506 0.0
C448 C 0.26301 0.67845 0.21531 0.0
C449 C 0.26999 0.7129 0.19798 0.0
C450 C 0.29946 0.73585 0.21028 0.0
C451 C 0.31595 0.68932 0.25438 0.0
C452 C 0.2864 0.6672 0.24335 0.0
C453 C 0.28462 0.63056 0.26347 0.0
H454 H 0.36555 0.51258 0.38259 0.0
C455 C 0.33679 0.66864 0.28188 0.0
C456 C 0.31858 0.63415 0.28757 0.0
H457 H 0.26288 0.49457 0.32428 0.0
H458 H 0.26898 0.55618 0.29706 0.0
H459 H 0.41154 0.54708 0.31836 0.0
H460 H 0.34833 0.59612 0.40491 0.0
H461 H 0.38823 0.62439 0.39933 0.0
H462 H 0.39375 0.57552 0.41105 0.0
H463 H 0.4289 0.54907 0.36329 0.0
H464 H 0.4369 0.58672 0.33182 0.0
C465 C 0.28905 0.59808 0.23613 0.0
C466 C 0.24751 0.62962 0.28524 0.0
C467 C 0.45877 0.72274 0.32926 0.0
C468 C 0.48556 0.70803 0.35266 0.0
C469 C 0.47918 0.67322 0.36943 0.0
C470 C 0.44678 0.65265 0.36249 0.0
C471 C 0.42052 0.66692 0.33827 0.0
C472 C 0.42646 0.70153 0.32236 0.0
C473 C 0.39566 0.71153 0.2968 0.0
C474 C 0.37053 0.67717 0.30002 0.0
C475 C 0.38535 0.65123 0.32424 0.0
C476 C 0.41331 0.71532 0.25882 0.0
C477 C 0.37597 0.74751 0.31098 0.0
C478 C 0.34462 0.52154 0.36352 0.0
C479 C 0.31406 0.49845 0.35508 0.0
C480 C 0.28679 0.51183 0.33107 0.0
C481 C 0.29043 0.54753 0.3153 0.0
C482 C 0.32159 0.57003 0.32376 0.0
C483 C 0.34779 0.55688 0.34774 0.0
C484 C 0.37879 0.58439 0.35431 0.0
C485 C 0.36704 0.61646 0.33029 0.0
C486 C 0.33367 0.60796 0.31226 0.0
C487 C 0.41614 0.56607 0.34162 0.0
C488 C 0.37764 0.59568 0.39447 0.0
H489 H 0.34445 0.74292 0.24598 0.0
H490 H 0.24041 0.6603 0.2068 0.0
H491 H 0.24022 0.65809 0.29552 0.0
H492 H 0.24926 0.61177 0.30935 0.0
H493 H 0.22389 0.61986 0.26841 0.0
H494 H 0.31076 0.60507 0.21563 0.0
H495 H 0.26232 0.59278 0.22192 0.0
H496 H 0.29856 0.57161 0.2484 0.0
H497 H 0.46327 0.7495 0.31612 0.0
H498 H 0.49964 0.66178 0.3878 0.0
H499 H 0.44378 0.62619 0.37591 0.0
H500 H 0.43724 0.69554 0.25522 0.0
H501 H 0.4241 0.74418 0.25418 0.0
H502 H 0.39378 0.70789 0.23715 0.0
H503 H 0.3754 0.74802 0.34079 0.0
H504 H 0.34619 0.74925 0.30318 0.0
H505 H 0.39079 0.77322 0.30177 0.0
H506 H 0.30616 0.76214 0.19715 0.0
C507 C 0.32218 0.7244 0.23846 0.0
C508 C 0.81508 0.95841 0.84834 0.0
C509 C 0.83245 0.97374 0.87872 0.0
C510 C 0.86181 0.95372 0.89512 0.0
C511 C 0.85932 0.90635 0.84884 0.0
C512 C 0.82909 0.92472 0.83379 0.0
C513 C 0.81566 0.90515 0.80046 0.0
H514 H 0.84611 0.77269 0.67329 0.0
C515 C 0.86944 0.87425 0.8257 0.0
C516 C 0.84386 0.87315 0.79737 0.0
H517 H 0.75237 0.8496 0.682 0.0
H518 H 0.7774 0.87441 0.73705 0.0
H519 H 0.90913 0.82897 0.69755 0.0
H520 H 0.84329 0.74788 0.75573 0.0
H521 H 0.88918 0.74502 0.77222 0.0
H522 H 0.88054 0.73458 0.72569 0.0
H523 H 0.91739 0.77936 0.69402 0.0
H524 H 0.93933 0.80742 0.72822 0.0
C525 C 0.81899 0.93298 0.76874 0.0
C526 C 0.77534 0.8906 0.80754 0.0
C527 C 0.98861 0.80118 0.85031 0.0
C528 C 0.00801 0.7733 0.83114 0.0
C529 C 0.99241 0.75817 0.79988 0.0
C530 C 0.95778 0.77142 0.78743 0.0
C531 C 0.93908 0.8003 0.80635 0.0
C532 C 0.95443 0.81437 0.83744 0.0
C533 C 0.93179 0.84604 0.85324 0.0
C534 C 0.90006 0.84871 0.82656 0.0
C535 C 0.90453 0.82195 0.79923 0.0
C536 C 0.95671 0.88178 0.85314 0.0
C537 C 0.91762 0.83377 0.89082 0.0
C538 C 0.83064 0.79459 0.68713 0.0
C539 C 0.79727 0.80925 0.67306 0.0
C540 C 0.7785 0.83822 0.69186 0.0
C541 C 0.79289 0.85239 0.72399 0.0
C542 C 0.82637 0.83745 0.73753 0.0
C543 C 0.84433 0.80871 0.71934 0.0
C544 C 0.87884 0.79526 0.73814 0.0
C545 C 0.87861 0.82058 0.77074 0.0
C546 C 0.84816 0.84565 0.77004 0.0
C547 C 0.91311 0.80277 0.71333 0.0
C548 C 0.87307 0.75344 0.74838 0.0
H549 H 0.89807 0.90676 0.89389 0.0
H550 H 0.79226 0.97306 0.83541 0.0
H551 H 0.77085 0.88395 0.83639 0.0
H552 H 0.76951 0.86394 0.7934 0.0
H553 H 0.75407 0.91188 0.79988 0.0
H554 H 0.84617 0.94826 0.76973 0.0
H555 H 0.79613 0.95418 0.76972 0.0
H556 H 0.81854 0.9191 0.74234 0.0
H557 H 0.00056 0.81343 0.87425 0.0
H558 H 0.00737 0.7368 0.7848 0.0
H559 H 0.94735 0.75927 0.76316 0.0
H560 H 0.97555 0.88226 0.82923 0.0
H561 H 0.97467 0.88289 0.8773 0.0
H562 H 0.94053 0.90813 0.85135 0.0
H563 H 0.91182 0.80307 0.89152 0.0
H564 H 0.89071 0.84712 0.89844 0.0
H565 H 0.93878 0.83985 0.91172 0.0
H566 H 0.87497 0.96453 0.91908 0.0
C567 C 0.8752 0.92015 0.88047 0.0
C568 C 0.1944 0.92528 0.08609 0.0
C569 C 0.19239 0.92588 0.04852 0.0
H570 H 0.18397 0.9556 0.13498 0.0
C571 C 0.18311 0.95957 0.03118 0.0
H572 H 0.20157 0.89961 0.10004 0.0
C573 C 0.17357 0.99139 0.0509 0.0
C574 C 0.17262 0.9902 0.08849 0.0
H575 H 0.18216 0.96105 0.00219 0.0
H576 H 0.16564 0.01666 0.03665 0.0
C577 C 0.18441 0.95727 0.10601 0.0
C578 C 0.5366 0.74355 0.54505 0.0
C579 C 0.57354 0.74075 0.55723 0.0
H580 H 0.47833 0.7406 0.55864 0.0
C581 C 0.58025 0.73742 0.59407 0.0
H582 H 0.53093 0.74576 0.51664 0.0
C583 C 0.55014 0.73382 0.61818 0.0
C584 C 0.51305 0.73337 0.60559 0.0
H585 H 0.60864 0.73453 0.60383 0.0
H586 H 0.556 0.72828 0.64611 0.0
C587 C 0.5066 0.74027 0.56905 0.0
C588 C 0.76074 0.08784 0.11242 0.0
C589 C 0.74656 0.09304 0.0778 0.0
H590 H 0.76985 0.04902 0.15526 0.0
C591 C 0.72424 0.06484 0.06248 0.0
H592 H 0.77817 0.10915 0.12464 0.0
C593 C 0.72027 0.03015 0.07961 0.0
C594 C 0.73759 0.0238 0.11267 0.0
H595 H 0.7134 0.06804 0.03562 0.0
H596 H 0.70643 0.00736 0.06573 0.0
C597 C 0.75588 0.05355 0.12994 0.0
C598 C 0.43693 0.22755 0.58231 0.0
C599 C 0.40955 0.25537 0.58812 0.0
H600 H 0.49286 0.20934 0.59452 0.0
C601 C 0.41348 0.28045 0.61683 0.0
H602 H 0.43453 0.20817 0.56004 0.0
C603 C 0.44636 0.28078 0.63664 0.0
C604 C 0.47586 0.25631 0.6277 0.0
H605 H 0.39264 0.30209 0.62175 0.0
H606 H 0.45033 0.30274 0.65639 0.0
C607 C 0.47021 0.22817 0.60198 0.0
C608 C 0.72314 0.56082 0.41585 0.0
C609 C 0.70029 0.59159 0.40725 0.0
H610 H 0.73467 0.5024 0.40636 0.0
C611 C 0.67603 0.58904 0.37789 0.0
H612 H 0.74166 0.56203 0.4387 0.0
C613 C 0.67267 0.55535 0.359 0.0
C614 C 0.69283 0.52352 0.36981 0.0
H615 H 0.65799 0.61242 0.37098 0.0
H616 H 0.65203 0.55332 0.33794 0.0
C617 C 0.71905 0.52677 0.39753 0.0
C618 C 0.9508 0.16493 0.94789 0.0
C619 C 0.93078 0.19882 0.95107 0.0
H620 H -0.00088 0.13682 0.92712 0.0
C621 C 0.94567 0.23141 0.93508 0.0
H622 H 0.94008 0.13915 0.95946 0.0
C623 C 0.98006 0.23011 0.9167 0.0
C624 C 0.00017 0.19621 0.91396 0.0
H625 H 0.93098 0.258 0.93705 0.0
H626 H 0.99113 0.25572 0.9051 0.0
C627 C 0.98491 0.16363 0.92951 0.0
C628 C 0.27542 0.41824 0.41069 0.0
C629 C 0.30832 0.39777 0.41774 0.0
H630 H 0.25145 0.46656 0.3853 0.0
C631 C 0.34165 0.40767 0.39984 0.0
H632 H 0.24927 0.41124 0.42402 0.0
C633 C 0.34275 0.43896 0.37746 0.0
C634 C 0.31065 0.4613 0.37273 0.0
H635 H 0.36732 0.39207 0.40418 0.0
H636 H 0.36919 0.44661 0.365 0.0
C637 C 0.27661 0.44985 0.38842 0.0
C638 C 0.10774 0.78782 0.85491 0.0
C639 C 0.11042 0.76452 0.88515 0.0
H640 H 0.07232 0.80801 0.81305 0.0
C641 C 0.08277 0.73704 0.89115 0.0
H642 H 0.12873 0.80915 0.84967 0.0
C643 C 0.05034 0.73671 0.87035 0.0
C644 C 0.04583 0.76322 0.84297 0.0
H645 H 0.08401 0.71892 0.91441 0.0
H646 H 0.02737 0.71838 0.87789 0.0
C647 C 0.07558 0.78714 0.83392 0.0
C648 C 0.77686 0.0549 0.91893 0.0
C649 C 0.8062 0.0788 0.92932 0.0
H650 H 0.76222 0.00208 0.89461 0.0
C651 C 0.84307 0.07009 0.91878 0.0
H652 H 0.74821 0.06099 0.92687 0.0
C653 C 0.85096 0.03689 0.9006 0.0
C654 C 0.82224 0.01139 0.89267 0.0
H655 H 0.86617 0.08831 0.92595 0.0
H656 H 0.87989 0.03045 0.89392 0.0
C657 C 0.78487 0.02126 0.90065 0.0
C658 C 0.45966 0.25169 0.44211 0.0
C659 C 0.42321 0.255 0.42878 0.0
H660 H 0.51836 0.25263 0.43005 0.0
C661 C 0.41762 0.25703 0.39171 0.0
H662 H 0.4644 0.25029 0.47074 0.0
C663 C 0.44849 0.25888 0.36836 0.0
C664 C 0.48519 0.25883 0.38197 0.0
H665 H 0.3896 0.26011 0.38108 0.0
H666 H 0.44358 0.26352 0.34011 0.0
C667 C 0.49042 0.25322 0.41888 0.0
C668 C 0.27049 0.93414 0.93573 0.0
C669 C 0.25126 0.90715 0.91528 0.0
H670 H 0.2826 0.99265 0.94279 0.0
C671 C 0.2378 0.91725 0.88137 0.0
H672 H 0.28118 0.92729 0.96202 0.0
C673 C 0.23924 0.95464 0.8702 0.0
C674 C 0.25365 0.98241 0.89304 0.0
H675 H 0.22301 0.89701 0.86502 0.0
H676 H 0.22549 0.96235 0.84548 0.0
C677 C 0.27118 0.97165 0.9249 0.0
C678 C 0.55573 0.76147 0.40508 0.0
C679 C 0.58782 0.74036 0.39643 0.0
H680 H 0.49654 0.76759 0.39686 0.0
C681 C 0.58768 0.71716 0.36602 0.0
H682 H 0.55517 0.77904 0.42881 0.0
C683 C 0.55436 0.71076 0.34779 0.0
C684 C 0.52098 0.72744 0.35992 0.0
H685 H 0.6121 0.70039 0.35917 0.0
H686 H 0.55379 0.68936 0.32713 0.0
C687 C 0.5222 0.75482 0.38694 0.0
C688 C 0.31981 0.40873 0.60628 0.0
C689 C 0.29487 0.40463 0.57761 0.0
H690 H 0.3431 0.44608 0.64531 0.0
C691 C 0.27039 0.43425 0.56929 0.0
H692 H 0.33909 0.38631 0.61301 0.0
C693 C 0.27333 0.46868 0.5872 0.0
C694 C 0.29997 0.47342 0.61432 0.0
H695 H 0.25131 0.43189 0.54695 0.0
H696 H 0.25644 0.49223 0.57849 0.0
C697 C 0.32203 0.44277 0.62479 0.0
C698 C 0.04625 0.77824 0.04837 0.0
C699 C 0.06383 0.80876 0.03111 0.0
H700 H -0.00252 0.75863 0.07702 0.0
C701 C 0.04555 0.8438 0.03109 0.0
H702 H 0.05956 0.75089 0.04899 0.0
C703 C 0.01038 0.84808 0.04693 0.0
C704 C 0.99228 0.81752 0.06329 0.0
H705 H 0.05821 0.86814 0.01851 0.0
H706 H -0.00271 0.87556 0.04636 0.0
C707 C 0.01078 0.78263 0.06446 0.0
C708 C 0.7138 0.57108 0.57091 0.0
C709 C 0.68322 0.59563 0.5665 0.0
H710 H 0.73217 0.51749 0.59064 0.0
C711 C 0.64941 0.588 0.5846 0.0
H712 H 0.74021 0.57631 0.5573 0.0
C713 C 0.64498 0.55468 0.60364 0.0
C714 C 0.6742 0.5283 0.60488 0.0
H715 H 0.62557 0.60671 0.58224 0.0
H716 H 0.61784 0.54837 0.61543 0.0
C717 C 0.70927 0.53749 0.58999 0.0
C718 C 0.90986 0.25757 0.09936 0.0
C719 C 0.88065 0.23134 0.10282 0.0
H720 H 0.96431 0.27384 0.11778 0.0
C721 C 0.87884 0.20855 0.13351 0.0
H722 H 0.91198 0.27527 0.07583 0.0
C723 C 0.90845 0.2082 0.15765 0.0
C724 C 0.94013 0.23049 0.15125 0.0
H725 H 0.85648 0.18822 0.1368 0.0
H726 H 0.90854 0.18738 0.17883 0.0
C727 C 0.93975 0.25685 0.12335 0.0
C728 C 0.22781 0.70862 0.10526 0.0
C729 C 0.22434 0.74699 0.09757 0.0
H730 H 0.24582 0.66754 0.14322 0.0
C731 C 0.23059 0.77356 0.12457 0.0
H732 H 0.22304 0.68775 0.08465 0.0
C733 C 0.24235 0.76213 0.1583 0.0
C734 C 0.24931 0.72395 0.1653 0.0
H735 H 0.22736 0.80332 0.11923 0.0
H736 H 0.24761 0.78341 0.17839 0.0
C737 C 0.24059 0.69714 0.13885 0.0
C738 C 0.77112 0.74098 0.59944 0.0
C739 C 0.75364 0.76473 0.57463 0.0
H740 H 0.79723 0.73609 0.65044 0.0
C741 C 0.75079 0.80331 0.58222 0.0
H742 H 0.77326 0.71103 0.59459 0.0
C743 C 0.76509 0.81785 0.61404 0.0
C744 C 0.78214 0.79401 0.63913 0.0
H745 H 0.73757 0.82234 0.56351 0.0
H746 H 0.76306 0.8478 0.61882 0.0
C747 C 0.78493 0.7554 0.63145 0.0
C748 C 0.68055 0.26601 0.06528 0.0
C749 C 0.71766 0.27564 0.05622 0.0
H750 H 0.633 0.27707 0.09913 0.0
C751 C 0.73456 0.30594 0.07405 0.0
H752 H 0.66661 0.24297 0.05191 0.0
C753 C 0.7158 0.32478 0.10149 0.0
C754 C 0.67917 0.3145 0.11164 0.0
H755 H 0.76316 0.31418 0.06807 0.0
H756 H 0.73103 0.34626 0.11585 0.0
C757 C 0.6614 0.28541 0.09257 0.0
C758 C 0.23306 0.19228 0.58995 0.0
C759 C 0.23257 0.23113 0.58376 0.0
H760 H 0.22259 0.14785 0.62704 0.0
C761 C 0.21691 0.25512 0.60982 0.0
H762 H 0.2444 0.17312 0.57004 0.0
C763 C 0.20502 0.2407 0.64285 0.0
C764 C 0.20833 0.20209 0.65003 0.0
H765 H 0.21625 0.28524 0.60568 0.0
H766 H 0.19559 0.26003 0.66347 0.0
C767 C 0.22073 0.17787 0.62262 0.0
C768 C 0.76638 0.80016 0.39481 0.0
C769 C 0.76679 0.76176 0.40324 0.0
H770 H 0.78205 0.84283 0.35746 0.0
C771 C 0.78568 0.73668 0.38023 0.0
H772 H 0.75251 0.8202 0.41232 0.0
C773 C 0.80182 0.74947 0.34825 0.0
C774 C 0.79987 0.78769 0.33891 0.0
H775 H 0.78631 0.70686 0.38599 0.0
H776 H 0.81417 0.72908 0.33012 0.0
C777 C 0.78311 0.81304 0.36322 0.0
C778 C 0.72449 0.24883 0.88013 0.0
C779 C 0.76129 0.25283 0.89252 0.0
H780 H 0.68541 0.26039 0.83884 0.0
C781 C 0.78793 0.27122 0.87084 0.0
H782 H 0.70318 0.23531 0.89645 0.0
C783 C 0.77795 0.2849 0.83709 0.0
C784 C 0.74103 0.28083 0.8247 0.0
H785 H 0.81658 0.27454 0.87972 0.0
H786 H 0.79918 0.29832 0.82064 0.0
C787 C 0.71441 0.26298 0.84686 0.0
C788 C 0.2429 0.18922 0.40698 0.0
C789 C 0.23984 0.22795 0.41379 0.0
H790 H 0.22875 0.14348 0.37252 0.0
C791 C 0.2201 0.25068 0.38971 0.0
H792 H 0.25778 0.17096 0.42523 0.0
C793 C 0.2042 0.23509 0.35911 0.0
C794 C 0.20714 0.1963 0.35224 0.0
H795 H 0.21769 0.2807 0.39402 0.0
H796 H 0.19015 0.25362 0.34054 0.0
C797 C 0.22651 0.17352 0.37664 0.0
C798 C 0.27592 0.68597 0.92902 0.0
C799 C 0.27768 0.7252 0.93222 0.0
H800 H 0.29112 0.63746 0.89844 0.0
C801 C 0.29837 0.7457 0.90677 0.0
H802 H 0.26037 0.66946 0.94845 0.0
C803 C 0.31466 0.72769 0.87726 0.0
C804 C 0.31153 0.68849 0.87288 0.0
H805 H 0.29984 0.77607 0.90828 0.0
H806 H 0.32781 0.74504 0.85698 0.0
C807 C 0.2932 0.66775 0.90002 0.0
loop_
_geom_bond_atom_site_label_1
_geom_bond_atom_site_label_2
_geom_bond_distance
_geom_bond_site_symmetry_2
_ccdc_geom_bond_type
Sc0 O3 2.025 . S
Sc0 O10 2.105 1_554 S
Sc0 O13 2.105 . S
Sc0 O16 2.105 . S
Sc0 O19 2.105 1_554 S
Sc1 O3 2.025 . S
Sc1 O11 2.105 1_554 S
Sc1 O15 2.105 . S
Sc1 O17 2.105 . S
Sc1 O21 2.105 1_554 S
Sc2 O3 2.025 . S
Sc2 O12 2.105 1_554 S
Sc2 O14 2.105 . S
Sc2 O18 2.105 . S
Sc2 O20 2.105 1_554 S
O3 Sc0 2.025 . S
O3 Sc1 2.025 . S
O3 Sc2 2.025 . S
C4 O10 1.268 . S
C4 O20 1.268 . S
C5 O11 1.268 . S
C5 O19 1.268 . S
C6 O12 1.268 . S
C6 O21 1.268 . S
C7 O13 1.268 . S
C7 O17 1.268 . S
C8 O14 1.268 . S
C8 O16 1.268 . S
C9 O15 1.268 . S
C9 O18 1.268 . S
O10 Sc0 2.105 1_556 S
O10 C4 1.268 . S
O11 Sc1 2.105 1_556 S
O11 C5 1.268 . S
O12 Sc2 2.105 1_556 S
O12 C6 1.268 . S
O13 Sc0 2.105 . S
O13 C7 1.268 . S
O14 Sc2 2.105 . S
O14 C8 1.268 . S
O15 Sc1 2.105 . S
O15 C9 1.268 . S
O16 Sc0 2.105 . S
O16 C8 1.268 . S
O17 Sc1 2.105 . S
O17 C7 1.268 . S
O18 Sc2 2.105 . S
O18 C9 1.268 . S
O19 Sc0 2.105 1_556 S
O19 C5 1.268 . S
O20 Sc2 2.105 1_556 S
O20 C4 1.268 . S
O21 Sc1 2.105 1_556 S
O21 C6 1.268 . S
Sc22 O25 2.025 . S
Sc22 O32 2.105 . S
Sc22 O35 2.105 . S
Sc22 O38 2.105 . S
Sc22 O41 2.105 . S
Sc23 O25 2.025 . S
Sc23 O33 2.105 . S
Sc23 O37 2.105 . S
Sc23 O39 2.105 . S
Sc23 O43 2.105 . S
Sc24 O25 2.025 . S
Sc24 O34 2.105 . S
Sc24 O36 2.105 . S
Sc24 O40 2.105 . S
Sc24 O42 2.105 . S
O25 Sc22 2.025 . S
O25 Sc23 2.025 . S
O25 Sc24 2.025 . S
C26 O32 1.268 . S
C26 O42 1.268 . S
C27 O33 1.268 . S
C27 O41 1.268 . S
C28 O34 1.268 . S
C28 O43 1.268 . S
C29 O35 1.268 . S
C29 O39 1.268 . S
C30 O36 1.268 . S
C30 O38 1.268 . S
C31 O37 1.268 . S
C31 O40 1.268 . S
O32 Sc22 2.105 . S
O32 C26 1.268 . S
O33 Sc23 2.105 . S
O33 C27 1.268 . S
O34 Sc24 2.105 . S
O34 C28 1.268 . S
O35 Sc22 2.105 . S
O35 C29 1.268 . S
O36 Sc24 2.105 . S
O36 C30 1.268 . S
O37 Sc23 2.105 . S
O37 C31 1.268 . S
O38 Sc22 2.105 . S
O38 C30 1.268 . S
O39 Sc23 2.105 . S
O39 C29 1.268 . S
O40 Sc24 2.105 . S
O40 C31 1.268 . S
O41 Sc22 2.105 . S
O41 C27 1.268 . S
O42 Sc24 2.105 . S
O42 C26 1.268 . S
O43 Sc23 2.105 . S
O43 C28 1.268 . S
Sc44 O47 2.025 . S
Sc44 O54 2.105 1_554 S
Sc44 O57 2.105 . S
Sc44 O60 2.105 . S
Sc44 O63 2.105 1_554 S
Sc45 O47 2.025 . S
Sc45 O55 2.105 1_554 S
Sc45 O59 2.105 . S
Sc45 O61 2.105 . S
Sc45 O65 2.105 1_554 S
Sc46 O47 2.025 . S
Sc46 O56 2.105 1_554 S
Sc46 O58 2.105 . S
Sc46 O62 2.105 . S
Sc46 O64 2.105 1_554 S
O47 Sc44 2.025 . S
O47 Sc45 2.025 . S
O47 Sc46 2.025 . S
C48 O54 1.268 . S
C48 O64 1.268 . S
C49 O55 1.268 . S
C49 O63 1.268 . S
C50 O56 1.268 . S
C50 O65 1.268 . S
C51 O57 1.268 . S
C51 O61 1.268 . S
C52 O58 1.268 . S
C52 O60 1.268 . S
C53 O59 1.268 . S
C53 O62 1.268 . S
O54 Sc44 2.105 1_556 S
O54 C48 1.268 . S
O55 Sc45 2.105 1_556 S
O55 C49 1.268 . S
O56 Sc46 2.105 1_556 S
O56 C50 1.268 . S
O57 Sc44 2.105 . S
O57 C51 1.268 . S
O58 Sc46 2.105 . S
O58 C52 1.268 . S
O59 Sc45 2.105 . S
O59 C53 1.268 . S
O60 Sc44 2.105 . S
O60 C52 1.268 . S
O61 Sc45 2.105 . S
O61 C51 1.268 . S
O62 Sc46 2.105 . S
O62 C53 1.268 . S
O63 Sc44 2.105 1_556 S
O63 C49 1.268 . S
O64 Sc46 2.105 1_556 S
O64 C48 1.268 . S
O65 Sc45 2.105 1_556 S
O65 C50 1.268 . S
Sc66 O69 2.025 . S
Sc66 O76 2.105 . S
Sc66 O79 2.105 . S
Sc66 O82 2.105 . S
Sc66 O85 2.105 . S
Sc67 O69 2.025 . S
Sc67 O77 2.105 . S
Sc67 O81 2.105 . S
Sc67 O83 2.105 . S
Sc67 O87 2.105 . S
Sc68 O69 2.025 . S
Sc68 O78 2.105 . S
Sc68 O80 2.105 . S
Sc68 O84 2.105 . S
Sc68 O86 2.105 . S
O69 Sc66 2.025 . S
O69 Sc67 2.025 . S
O69 Sc68 2.025 . S
C70 O76 1.268 . S
C70 O86 1.268 . S
C71 O77 1.268 . S
C71 O85 1.268 . S
C72 O78 1.268 . S
C72 O87 1.268 . S
C73 O79 1.268 . S
C73 O83 1.268 . S
C74 O80 1.268 . S
C74 O82 1.268 . S
C75 O81 1.268 . S
C75 O84 1.268 . S
O76 Sc66 2.105 . S
O76 C70 1.268 . S
O77 Sc67 2.105 . S
O77 C71 1.268 . S
O78 Sc68 2.105 . S
O78 C72 1.268 . S
O79 Sc66 2.105 . S
O79 C73 1.268 . S
O80 Sc68 2.105 . S
O80 C74 1.268 . S
O81 Sc67 2.105 . S
O81 C75 1.268 . S
O82 Sc66 2.105 . S
O82 C74 1.268 . S
O83 Sc67 2.105 . S
O83 C73 1.268 . S
O84 Sc68 2.105 . S
O84 C75 1.268 . S
O85 Sc66 2.105 . S
O85 C71 1.268 . S
O86 Sc68 2.105 . S
O86 C70 1.268 . S
O87 Sc67 2.105 . S
O87 C72 1.268 . S
C88 C89 1.391 . S
C88 C92 1.391 . S
C88 H130 0.948 . S
C89 C88 1.391 . S
C89 C90 1.391 . S
C90 C89 1.391 . S
C90 H146 0.947 . S
C90 C147 1.392 . S
C91 C92 1.391 . S
C91 C95 1.397 . S
C91 C147 1.419 . S
C92 C88 1.391 . S
C92 C91 1.391 . S
C92 C93 1.399 . S
C93 C92 1.399 . S
C93 C96 1.396 . S
C93 C105 1.453 . S
C93 C106 1.684 . S
H94 C118 0.948 . S
C95 C91 1.397 . S
C95 C96 1.394 . S
C95 C114 1.723 . S
C96 C93 1.396 . S
C96 C95 1.394 . S
C96 C126 1.723 . S
H97 C120 0.947 . S
H98 C121 0.948 . S
H99 C127 0.982 . S
H100 C128 0.979 . S
H101 C128 0.980 . S
H102 C128 0.983 . S
H103 C127 0.979 . S
H104 C127 0.977 . S
C105 C93 1.453 . S
C105 H134 0.982 . S
C105 H135 0.979 . S
C105 H136 0.977 . S
C106 C93 1.684 . S
C106 H131 0.979 . S
C106 H132 0.980 . S
C106 H133 0.983 . S
C107 C108 1.391 . S
C107 C112 1.391 . S
C107 H137 0.948 . S
C108 C107 1.391 . S
C108 C109 1.391 . S
C109 C108 1.391 . S
C109 C110 1.392 . S
C109 H138 0.947 . S
C110 C109 1.392 . S
C110 C111 1.419 . S
C110 H139 0.948 . S
C111 C110 1.419 . S
C111 C112 1.391 . S
C111 C115 1.397 . S
C112 C107 1.391 . S
C112 C111 1.391 . S
C112 C113 1.399 . S
C113 C112 1.399 . S
C113 C114 1.396 . S
C113 C116 1.453 . S
C113 C117 1.684 . S
C114 C95 1.723 . S
C114 C113 1.396 . S
C114 C115 1.394 . S
C115 C111 1.397 . S
C115 C114 1.394 . S
C115 C125 1.723 . S
C116 C113 1.453 . S
C116 H140 0.982 . S
C116 H141 0.979 . S
C116 H142 0.977 . S
C117 C113 1.684 . S
C117 H143 0.979 . S
C117 H144 0.980 . S
C117 H145 0.983 . S
C118 H94 0.948 . S
C118 C119 1.391 . S
C118 C123 1.391 . S
C119 C118 1.391 . S
C119 C120 1.391 . S
C120 H97 0.947 . S
C120 C119 1.391 . S
C120 C121 1.392 . S
C121 H98 0.948 . S
C121 C120 1.392 . S
C121 C122 1.419 . S
C122 C121 1.419 . S
C122 C123 1.391 . S
C122 C126 1.397 . S
C123 C118 1.391 . S
C123 C122 1.391 . S
C123 C124 1.399 . S
C124 C123 1.399 . S
C124 C125 1.396 . S
C124 C127 1.453 . S
C124 C128 1.684 . S
C125 C115 1.723 . S
C125 C124 1.396 . S
C125 C126 1.394 . S
C126 C96 1.723 . S
C126 C122 1.397 . S
C126 C125 1.394 . S
C127 H99 0.982 . S
C127 H103 0.979 . S
C127 H104 0.977 . S
C127 C124 1.453 . S
C128 H100 0.979 . S
C128 H101 0.980 . S
C128 H102 0.983 . S
C128 C124 1.684 . S
H129 C147 0.948 . S
H130 C88 0.948 . S
H131 C106 0.979 . S
H132 C106 0.980 . S
H133 C106 0.983 . S
H134 C105 0.982 . S
H135 C105 0.979 . S
H136 C105 0.977 . S
H137 C107 0.948 . S
H138 C109 0.947 . S
H139 C110 0.948 . S
H140 C116 0.982 . S
H141 C116 0.979 . S
H142 C116 0.977 . S
H143 C117 0.979 . S
H144 C117 0.980 . S
H145 C117 0.983 . S
H146 C90 0.947 . S
C147 C90 1.392 . S
C147 C91 1.419 . S
C147 H129 0.948 . S
C148 C149 1.391 . S
C148 C152 1.391 . S
C148 H190 0.948 . S
C149 C148 1.391 . S
C149 C150 1.391 . S
C150 C149 1.391 . S
C150 H206 0.947 . S
C150 C207 1.392 . S
C151 C152 1.391 . S
C151 C155 1.397 . S
C151 C207 1.419 . S
C152 C148 1.391 . S
C152 C151 1.391 . S
C152 C153 1.399 . S
C153 C152 1.399 . S
C153 C156 1.396 . S
C153 C165 1.453 . S
C153 C166 1.684 . S
H154 C178 0.948 . S
C155 C151 1.397 . S
C155 C156 1.394 . S
C155 C174 1.723 . S
C156 C153 1.396 . S
C156 C155 1.394 . S
C156 C186 1.723 . S
H157 C180 0.947 . S
H158 C181 0.948 . S
H159 C187 0.982 . S
H160 C188 0.979 . S
H161 C188 0.980 . S
H162 C188 0.983 . S
H163 C187 0.979 . S
H164 C187 0.977 . S
C165 C153 1.453 . S
C165 H194 0.982 . S
C165 H195 0.979 . S
C165 H196 0.977 . S
C166 C153 1.684 . S
C166 H191 0.979 . S
C166 H192 0.980 . S
C166 H193 0.983 . S
C167 C168 1.391 . S
C167 C172 1.391 . S
C167 H197 0.948 . S
C168 C167 1.391 . S
C168 C169 1.391 . S
C169 C168 1.391 . S
C169 C170 1.392 . S
C169 H198 0.947 . S
C170 C169 1.392 . S
C170 C171 1.419 . S
C170 H199 0.948 . S
C171 C170 1.419 . S
C171 C172 1.391 . S
C171 C175 1.397 . S
C172 C167 1.391 . S
C172 C171 1.391 . S
C172 C173 1.399 . S
C173 C172 1.399 . S
C173 C174 1.396 . S
C173 C176 1.453 . S
C173 C177 1.684 . S
C174 C155 1.723 . S
C174 C173 1.396 . S
C174 C175 1.394 . S
C175 C171 1.397 . S
C175 C174 1.394 . S
C175 C185 1.723 . S
C176 C173 1.453 . S
C176 H200 0.982 . S
C176 H201 0.979 . S
C176 H202 0.977 . S
C177 C173 1.684 . S
C177 H203 0.979 . S
C177 H204 0.980 . S
C177 H205 0.983 . S
C178 H154 0.948 . S
C178 C179 1.391 . S
C178 C183 1.391 . S
C179 C178 1.391 . S
C179 C180 1.391 . S
C180 H157 0.947 . S
C180 C179 1.391 . S
C180 C181 1.392 . S
C181 H158 0.948 . S
C181 C180 1.392 . S
C181 C182 1.419 . S
C182 C181 1.419 . S
C182 C183 1.391 . S
C182 C186 1.397 . S
C183 C178 1.391 . S
C183 C182 1.391 . S
C183 C184 1.399 . S
C184 C183 1.399 . S
C184 C185 1.396 . S
C184 C187 1.453 . S
C184 C188 1.684 . S
C185 C175 1.723 . S
C185 C184 1.396 . S
C185 C186 1.394 . S
C186 C156 1.723 . S
C186 C182 1.397 . S
C186 C185 1.394 . S
C187 H159 0.982 . S
C187 H163 0.979 . S
C187 H164 0.977 . S
C187 C184 1.453 . S
C188 H160 0.979 . S
C188 H161 0.980 . S
C188 H162 0.983 . S
C188 C184 1.684 . S
H189 C207 0.948 . S
H190 C148 0.948 . S
H191 C166 0.979 . S
H192 C166 0.980 . S
H193 C166 0.983 . S
H194 C165 0.982 . S
H195 C165 0.979 . S
H196 C165 0.977 . S
H197 C167 0.948 . S
H198 C169 0.947 . S
H199 C170 0.948 . S
H200 C176 0.982 . S
H201 C176 0.979 . S
H202 C176 0.977 . S
H203 C177 0.979 . S
H204 C177 0.980 . S
H205 C177 0.983 . S
H206 C150 0.947 . S
C207 C150 1.392 . S
C207 C151 1.419 . S
C207 H189 0.948 . S
C208 C209 1.391 . S
C208 C212 1.391 . S
C208 H250 0.948 . S
C209 C208 1.391 . S
C209 C210 1.391 . S
C210 C209 1.391 . S
C210 H266 0.947 . S
C210 C267 1.392 . S
C211 C212 1.391 . S
C211 C215 1.397 . S
C211 C267 1.419 . S
C212 C208 1.391 . S
C212 C211 1.391 . S
C212 C213 1.399 . S
C213 C212 1.399 . S
C213 C216 1.396 . S
C213 C225 1.453 . S
C213 C226 1.684 . S
H214 C238 0.948 . S
C215 C211 1.397 . S
C215 C216 1.394 . S
C215 C234 1.723 . S
C216 C213 1.396 . S
C216 C215 1.394 . S
C216 C246 1.723 . S
H217 C240 0.947 . S
H218 C241 0.948 . S
H219 C247 0.982 . S
H220 C248 0.979 . S
H221 C248 0.980 . S
H222 C248 0.983 . S
H223 C247 0.979 . S
H224 C247 0.977 . S
C225 C213 1.453 . S
C225 H254 0.982 . S
C225 H255 0.979 . S
C225 H256 0.977 . S
C226 C213 1.684 . S
C226 H251 0.979 . S
C226 H252 0.980 . S
C226 H253 0.983 . S
C227 C228 1.391 . S
C227 C232 1.391 . S
C227 H257 0.948 . S
C228 C227 1.391 . S
C228 C229 1.391 . S
C229 C228 1.391 . S
C229 C230 1.392 . S
C229 H258 0.947 . S
C230 C229 1.392 . S
C230 C231 1.419 . S
C230 H259 0.948 . S
C231 C230 1.419 . S
C231 C232 1.391 . S
C231 C235 1.397 . S
C232 C227 1.391 . S
C232 C231 1.391 . S
C232 C233 1.399 . S
C233 C232 1.399 . S
C233 C234 1.396 . S
C233 C236 1.453 . S
C233 C237 1.684 . S
C234 C215 1.723 . S
C234 C233 1.396 . S
C234 C235 1.394 . S
C235 C231 1.397 . S
C235 C234 1.394 . S
C235 C245 1.723 . S
C236 C233 1.453 . S
C236 H260 0.982 . S
C236 H261 0.979 . S
C236 H262 0.977 . S
C237 C233 1.684 . S
C237 H263 0.979 . S
C237 H264 0.980 . S
C237 H265 0.983 . S
C238 H214 0.948 . S
C238 C239 1.391 . S
C238 C243 1.391 . S
C239 C238 1.391 . S
C239 C240 1.391 . S
C240 H217 0.947 . S
C240 C239 1.391 . S
C240 C241 1.392 . S
C241 H218 0.948 . S
C241 C240 1.392 . S
C241 C242 1.419 . S
C242 C241 1.419 . S
C242 C243 1.391 . S
C242 C246 1.397 . S
C243 C238 1.391 . S
C243 C242 1.391 . S
C243 C244 1.399 . S
C244 C243 1.399 . S
C244 C245 1.396 . S
C244 C247 1.453 . S
C244 C248 1.684 . S
C245 C235 1.723 . S
C245 C244 1.396 . S
C245 C246 1.394 . S
C246 C216 1.723 . S
C246 C242 1.397 . S
C246 C245 1.394 . S
C247 H219 0.982 . S
C247 H223 0.979 . S
C247 H224 0.977 . S
C247 C244 1.453 . S
C248 H220 0.979 . S
C248 H221 0.980 . S
C248 H222 0.983 . S
C248 C244 1.684 . S
H249 C267 0.948 . S
H250 C208 0.948 . S
H251 C226 0.979 . S
H252 C226 0.980 . S
H253 C226 0.983 . S
H254 C225 0.982 . S
H255 C225 0.979 . S
H256 C225 0.977 . S
H257 C227 0.948 . S
H258 C229 0.947 . S
H259 C230 0.948 . S
H260 C236 0.982 . S
H261 C236 0.979 . S
H262 C236 0.977 . S
H263 C237 0.979 . S
H264 C237 0.980 . S
H265 C237 0.983 . S
H266 C210 0.947 . S
C267 C210 1.392 . S
C267 C211 1.419 . S
C267 H249 0.948 . S
C268 C269 1.391 . S
C268 C272 1.391 . S
C268 H310 0.948 . S
C269 C268 1.391 . S
C269 C270 1.391 . S
C270 C269 1.391 . S
C270 H326 0.947 . S
C270 C327 1.392 . S
C271 C272 1.391 . S
C271 C275 1.397 . S
C271 C327 1.419 . S
C272 C268 1.391 . S
C272 C271 1.391 . S
C272 C273 1.399 . S
C273 C272 1.399 . S
C273 C276 1.396 . S
C273 C285 1.453 . S
C273 C286 1.684 . S
H274 C298 0.948 . S
C275 C271 1.397 . S
C275 C276 1.394 . S
C275 C294 1.723 . S
C276 C273 1.396 . S
C276 C275 1.394 . S
C276 C306 1.723 . S
H277 C300 0.947 . S
H278 C301 0.948 . S
H279 C307 0.982 . S
H280 C308 0.979 . S
H281 C308 0.980 . S
H282 C308 0.983 . S
H283 C307 0.979 . S
H284 C307 0.977 . S
C285 C273 1.453 . S
C285 H314 0.982 . S
C285 H315 0.979 . S
C285 H316 0.977 . S
C286 C273 1.684 . S
C286 H311 0.979 . S
C286 H312 0.980 . S
C286 H313 0.983 . S
C287 C288 1.391 . S
C287 C292 1.391 . S
C287 H317 0.948 . S
C288 C287 1.391 . S
C288 C289 1.391 . S
C289 C288 1.391 . S
C289 C290 1.392 . S
C289 H318 0.947 . S
C290 C289 1.392 . S
C290 C291 1.419 . S
C290 H319 0.948 . S
C291 C290 1.419 . S
C291 C292 1.391 . S
C291 C295 1.397 . S
C292 C287 1.391 . S
C292 C291 1.391 . S
C292 C293 1.399 . S
C293 C292 1.399 . S
C293 C294 1.396 . S
C293 C296 1.453 . S
C293 C297 1.684 . S
C294 C275 1.723 . S
C294 C293 1.396 . S
C294 C295 1.394 . S
C295 C291 1.397 . S
C295 C294 1.394 . S
C295 C305 1.723 . S
C296 C293 1.453 . S
C296 H320 0.982 . S
C296 H321 0.979 . S
C296 H322 0.977 . S
C297 C293 1.684 . S
C297 H323 0.979 . S
C297 H324 0.980 . S
C297 H325 0.983 . S
C298 H274 0.948 . S
C298 C299 1.391 . S
C298 C303 1.391 . S
C299 C298 1.391 . S
C299 C300 1.391 . S
C300 H277 0.947 . S
C300 C299 1.391 . S
C300 C301 1.392 . S
C301 H278 0.948 . S
C301 C300 1.392 . S
C301 C302 1.419 . S
C302 C301 1.419 . S
C302 C303 1.391 . S
C302 C306 1.397 . S
C303 C298 1.391 . S
C303 C302 1.391 . S
C303 C304 1.399 . S
C304 C303 1.399 . S
C304 C305 1.396 . S
C304 C307 1.453 . S
C304 C308 1.684 . S
C305 C295 1.723 . S
C305 C304 1.396 . S
C305 C306 1.394 . S
C306 C276 1.723 . S
C306 C302 1.397 . S
C306 C305 1.394 . S
C307 H279 0.982 . S
C307 H283 0.979 . S
C307 H284 0.977 . S
C307 C304 1.453 . S
C308 H280 0.979 . S
C308 H281 0.980 . S
C308 H282 0.983 . S
C308 C304 1.684 . S
H309 C327 0.948 . S
H310 C268 0.948 . S
H311 C286 0.979 . S
H312 C286 0.980 . S
H313 C286 0.983 . S
H314 C285 0.982 . S
H315 C285 0.979 . S
H316 C285 0.977 . S
H317 C287 0.948 . S
H318 C289 0.947 . S
H319 C290 0.948 . S
H320 C296 0.982 . S
H321 C296 0.979 . S
H322 C296 0.977 . S
H323 C297 0.979 . S
H324 C297 0.980 . S
H325 C297 0.983 . S
H326 C270 0.947 . S
C327 C270 1.392 . S
C327 C271 1.419 . S
C327 H309 0.948 . S
C328 C329 1.391 . S
C328 C332 1.391 . S
C328 H370 0.948 . S
C329 C328 1.391 . S
C329 C330 1.391 . S
C330 C329 1.391 . S
C330 H386 0.947 . S
C330 C387 1.392 . S
C331 C332 1.391 . S
C331 C335 1.397 . S
C331 C387 1.419 . S
C332 C328 1.391 . S
C332 C331 1.391 . S
C332 C333 1.399 . S
C333 C332 1.399 . S
C333 C336 1.396 . S
C333 C345 1.453 . S
C333 C346 1.684 . S
H334 C358 0.948 . S
C335 C331 1.397 . S
C335 C336 1.394 . S
C335 C354 1.723 . S
C336 C333 1.396 . S
C336 C335 1.394 . S
C336 C366 1.723 . S
H337 C360 0.947 . S
H338 C361 0.948 . S
H339 C367 0.982 . S
H340 C368 0.979 . S
H341 C368 0.980 . S
H342 C368 0.983 . S
H343 C367 0.979 . S
H344 C367 0.977 . S
C345 C333 1.453 . S
C345 H374 0.982 . S
C345 H375 0.979 . S
C345 H376 0.977 . S
C346 C333 1.684 . S
C346 H371 0.979 . S
C346 H372 0.980 . S
C346 H373 0.983 . S
C347 C348 1.391 . S
C347 C352 1.391 . S
C347 H377 0.948 . S
C348 C347 1.391 . S
C348 C349 1.391 . S
C349 C348 1.391 . S
C349 C350 1.392 . S
C349 H378 0.947 . S
C350 C349 1.392 . S
C350 C351 1.419 . S
C350 H379 0.948 . S
C351 C350 1.419 . S
C351 C352 1.391 . S
C351 C355 1.397 . S
C352 C347 1.391 . S
C352 C351 1.391 . S
C352 C353 1.399 . S
C353 C352 1.399 . S
C353 C354 1.396 . S
C353 C356 1.453 . S
C353 C357 1.684 . S
C354 C335 1.723 . S
C354 C353 1.396 . S
C354 C355 1.394 . S
C355 C351 1.397 . S
C355 C354 1.394 . S
C355 C365 1.723 . S
C356 C353 1.453 . S
C356 H380 0.982 . S
C356 H381 0.979 . S
C356 H382 0.977 . S
C357 C353 1.684 . S
C357 H383 0.979 . S
C357 H384 0.980 . S
C357 H385 0.983 . S
C358 H334 0.948 . S
C358 C359 1.391 . S
C358 C363 1.391 . S
C359 C358 1.391 . S
C359 C360 1.391 . S
C360 H337 0.947 . S
C360 C359 1.391 . S
C360 C361 1.392 . S
C361 H338 0.948 . S
C361 C360 1.392 . S
C361 C362 1.419 . S
C362 C361 1.419 . S
C362 C363 1.391 . S
C362 C366 1.397 . S
C363 C358 1.391 . S
C363 C362 1.391 . S
C363 C364 1.399 . S
C364 C363 1.399 . S
C364 C365 1.396 . S
C364 C367 1.453 . S
C364 C368 1.684 . S
C365 C355 1.723 . S
C365 C364 1.396 . S
C365 C366 1.394 . S
C366 C336 1.723 . S
C366 C362 1.397 . S
C366 C365 1.394 . S
C367 H339 0.982 . S
C367 H343 0.979 . S
C367 H344 0.977 . S
C367 C364 1.453 . S
C368 H340 0.979 . S
C368 H341 0.980 . S
C368 H342 0.983 . S
C368 C364 1.684 . S
H369 C387 0.948 . S
H370 C328 0.948 . S
H371 C346 0.979 . S
H372 C346 0.980 . S
H373 C346 0.983 . S
H374 C345 0.982 . S
H375 C345 0.979 . S
H376 C345 0.977 . S
H377 C347 0.948 . S
H378 C349 0.947 . S
H379 C350 0.948 . S
H380 C356 0.982 . S
H381 C356 0.979 . S
H382 C356 0.977 . S
H383 C357 0.979 . S
H384 C357 0.980 . S
H385 C357 0.983 . S
H386 C330 0.947 . S
C387 C330 1.392 . S
C387 C331 1.419 . S
C387 H369 0.948 . S
C388 C389 1.391 . S
C388 C392 1.391 . S
C388 H430 0.948 . S
C389 C388 1.391 . S
C389 C390 1.391 . S
C390 C389 1.391 . S
C390 H446 0.947 . S
C390 C447 1.392 . S
C391 C392 1.391 . S
C391 C395 1.397 . S
C391 C447 1.419 . S
C392 C388 1.391 . S
C392 C391 1.391 . S
C392 C393 1.399 . S
C393 C392 1.399 . S
C393 C396 1.396 . S
C393 C405 1.453 . S
C393 C406 1.684 . S
H394 C418 0.948 . S
C395 C391 1.397 . S
C395 C396 1.394 . S
C395 C414 1.723 . S
C396 C393 1.396 . S
C396 C395 1.394 . S
C396 C426 1.723 . S
H397 C420 0.947 . S
H398 C421 0.948 . S
H399 C427 0.982 . S
H400 C428 0.979 . S
H401 C428 0.980 . S
H402 C428 0.983 . S
H403 C427 0.979 . S
H404 C427 0.977 . S
C405 C393 1.453 . S
C405 H434 0.982 . S
C405 H435 0.979 . S
C405 H436 0.977 . S
C406 C393 1.684 . S
C406 H431 0.979 . S
C406 H432 0.980 . S
C406 H433 0.983 . S
C407 C408 1.391 . S
C407 C412 1.391 . S
C407 H437 0.948 . S
C408 C407 1.391 . S
C408 C409 1.391 . S
C409 C408 1.391 . S
C409 C410 1.392 . S
C409 H438 0.947 . S
C410 C409 1.392 . S
C410 C411 1.419 . S
C410 H439 0.948 . S
C411 C410 1.419 . S
C411 C412 1.391 . S
C411 C415 1.397 . S
C412 C407 1.391 . S
C412 C411 1.391 . S
C412 C413 1.399 . S
C413 C412 1.399 . S
C413 C414 1.396 . S
C413 C416 1.453 . S
C413 C417 1.684 . S
C414 C395 1.723 . S
C414 C413 1.396 . S
C414 C415 1.394 . S
C415 C411 1.397 . S
C415 C414 1.394 . S
C415 C425 1.723 . S
C416 C413 1.453 . S
C416 H440 0.982 . S
C416 H441 0.979 . S
C416 H442 0.977 . S
C417 C413 1.684 . S
C417 H443 0.979 . S
C417 H444 0.980 . S
C417 H445 0.983 . S
C418 H394 0.948 . S
C418 C419 1.391 . S
C418 C423 1.391 . S
C419 C418 1.391 . S
C419 C420 1.391 . S
C420 H397 0.947 . S
C420 C419 1.391 . S
C420 C421 1.392 . S
C421 H398 0.948 . S
C421 C420 1.392 . S
C421 C422 1.419 . S
C422 C421 1.419 . S
C422 C423 1.391 . S
C422 C426 1.397 . S
C423 C418 1.391 . S
C423 C422 1.391 . S
C423 C424 1.399 . S
C424 C423 1.399 . S
C424 C425 1.396 . S
C424 C427 1.453 . S
C424 C428 1.684 . S
C425 C415 1.723 . S
C425 C424 1.396 . S
C425 C426 1.394 . S
C426 C396 1.723 . S
C426 C422 1.397 . S
C426 C425 1.394 . S
C427 H399 0.982 . S
C427 H403 0.979 . S
C427 H404 0.977 . S
C427 C424 1.453 . S
C428 H400 0.979 . S
C428 H401 0.980 . S
C428 H402 0.983 . S
C428 C424 1.684 . S
H429 C447 0.948 . S
H430 C388 0.948 . S
H431 C406 0.979 . S
H432 C406 0.980 . S
H433 C406 0.983 . S
H434 C405 0.982 . S
H435 C405 0.979 . S
H436 C405 0.977 . S
H437 C407 0.948 . S
H438 C409 0.947 . S
H439 C410 0.948 . S
H440 C416 0.982 . S
H441 C416 0.979 . S
H442 C416 0.977 . S
H443 C417 0.979 . S
H444 C417 0.980 . S
H445 C417 0.983 . S
H446 C390 0.947 . S
C447 C390 1.392 . S
C447 C391 1.419 . S
C447 H429 0.948 . S
C448 C449 1.391 . S
C448 C452 1.391 . S
C448 H490 0.948 . S
C449 C448 1.391 . S
C449 C450 1.391 . S
C450 C449 1.391 . S
C450 H506 0.947 . S
C450 C507 1.392 . S
C451 C452 1.391 . S
C451 C455 1.397 . S
C451 C507 1.419 . S
C452 C448 1.391 . S
C452 C451 1.391 . S
C452 C453 1.399 . S
C453 C452 1.399 . S
C453 C456 1.396 . S
C453 C465 1.453 . S
C453 C466 1.684 . S
H454 C478 0.948 . S
C455 C451 1.397 . S
C455 C456 1.394 . S
C455 C474 1.723 . S
C456 C453 1.396 . S
C456 C455 1.394 . S
C456 C486 1.723 . S
H457 C480 0.947 . S
H458 C481 0.948 . S
H459 C487 0.982 . S
H460 C488 0.979 . S
H461 C488 0.980 . S
H462 C488 0.983 . S
H463 C487 0.979 . S
H464 C487 0.977 . S
C465 C453 1.453 . S
C465 H494 0.982 . S
C465 H495 0.979 . S
C465 H496 0.977 . S
C466 C453 1.684 . S
C466 H491 0.979 . S
C466 H492 0.980 . S
C466 H493 0.983 . S
C467 C468 1.391 . S
C467 C472 1.391 . S
C467 H497 0.948 . S
C468 C467 1.391 . S
C468 C469 1.391 . S
C469 C468 1.391 . S
C469 C470 1.392 . S
C469 H498 0.947 . S
C470 C469 1.392 . S
C470 C471 1.419 . S
C470 H499 0.948 . S
C471 C470 1.419 . S
C471 C472 1.391 . S
C471 C475 1.397 . S
C472 C467 1.391 . S
C472 C471 1.391 . S
C472 C473 1.399 . S
C473 C472 1.399 . S
C473 C474 1.396 . S
C473 C476 1.453 . S
C473 C477 1.684 . S
C474 C455 1.723 . S
C474 C473 1.396 . S
C474 C475 1.394 . S
C475 C471 1.397 . S
C475 C474 1.394 . S
C475 C485 1.723 . S
C476 C473 1.453 . S
C476 H500 0.982 . S
C476 H501 0.979 . S
C476 H502 0.977 . S
C477 C473 1.684 . S
C477 H503 0.979 . S
C477 H504 0.980 . S
C477 H505 0.983 . S
C478 H454 0.948 . S
C478 C479 1.391 . S
C478 C483 1.391 . S
C479 C478 1.391 . S
C479 C480 1.391 . S
C480 H457 0.947 . S
C480 C479 1.391 . S
C480 C481 1.392 . S
C481 H458 0.948 . S
C481 C480 1.392 . S
C481 C482 1.419 . S
C482 C481 1.419 . S
C482 C483 1.391 . S
C482 C486 1.397 . S
C483 C478 1.391 . S
C483 C482 1.391 . S
C483 C484 1.399 . S
C484 C483 1.399 . S
C484 C485 1.396 . S
C484 C487 1.453 . S
C484 C488 1.684 . S
C485 C475 1.723 . S
C485 C484 1.396 . S
C485 C486 1.394 . S
C486 C456 1.723 . S
C486 C482 1.397 . S
C486 C485 1.394 . S
C487 H459 0.982 . S
C487 H463 0.979 . S
C487 H464 0.977 . S
C487 C484 1.453 . S
C488 H460 0.979 . S
C488 H461 0.980 . S
C488 H462 0.983 . S
C488 C484 1.684 . S
H489 C507 0.948 . S
H490 C448 0.948 . S
H491 C466 0.979 . S
H492 C466 0.980 . S
H493 C466 0.983 . S
H494 C465 0.982 . S
H495 C465 0.979 . S
H496 C465 0.977 . S
H497 C467 0.948 . S
H498 C469 0.947 . S
H499 C470 0.948 . S
H500 C476 0.982 . S
H501 C476 0.979 . S
H502 C476 0.977 . S
H503 C477 0.979 . S
H504 C477 0.980 . S
H505 C477 0.983 . S
H506 C450 0.947 . S
C507 C450 1.392 . S
C507 C451 1.419 . S
C507 H489 0.948 . S
C508 C509 1.391 . S
C508 C512 1.391 . S
C508 H550 0.948 . S
C509 C508 1.391 . S
C509 C510 1.391 . S
C510 C509 1.391 . S
C510 H566 0.947 . S
C510 C567 1.392 . S
C511 C512 1.391 . S
C511 C515 1.397 . S
C511 C567 1.419 . S
C512 C508 1.391 . S
C512 C511 1.391 . S
C512 C513 1.399 . S
C513 C512 1.399 . S
C513 C516 1.396 . S
C513 C525 1.453 . S
C513 C526 1.684 . S
H514 C538 0.948 . S
C515 C511 1.397 . S
C515 C516 1.394 . S
C515 C534 1.723 . S
C516 C513 1.396 . S
C516 C515 1.394 . S
C516 C546 1.723 . S
H517 C540 0.947 . S
H518 C541 0.948 . S
H519 C547 0.982 . S
H520 C548 0.979 . S
H521 C548 0.980 . S
H522 C548 0.983 . S
H523 C547 0.979 . S
H524 C547 0.977 . S
C525 C513 1.453 . S
C525 H554 0.982 . S
C525 H555 0.979 . S
C525 H556 0.977 . S
C526 C513 1.684 . S
C526 H551 0.979 . S
C526 H552 0.980 . S
C526 H553 0.983 . S
C527 C528 1.391 . S
C527 C532 1.391 . S
C527 H557 0.948 . S
C528 C527 1.391 . S
C528 C529 1.391 . S
C529 C528 1.391 . S
C529 C530 1.392 . S
C529 H558 0.947 . S
C530 C529 1.392 . S
C530 C531 1.419 . S
C530 H559 0.948 . S
C531 C530 1.419 . S
C531 C532 1.391 . S
C531 C535 1.397 . S
C532 C527 1.391 . S
C532 C531 1.391 . S
C532 C533 1.399 . S
C533 C532 1.399 . S
C533 C534 1.396 . S
C533 C536 1.453 . S
C533 C537 1.684 . S
C534 C515 1.723 . S
C534 C533 1.396 . S
C534 C535 1.394 . S
C535 C531 1.397 . S
C535 C534 1.394 . S
C535 C545 1.723 . S
C536 C533 1.453 . S
C536 H560 0.982 . S
C536 H561 0.979 . S
C536 H562 0.977 . S
C537 C533 1.684 . S
C537 H563 0.979 . S
C537 H564 0.980 . S
C537 H565 0.983 . S
C538 H514 0.948 . S
C538 C539 1.391 . S
C538 C543 1.391 . S
C539 C538 1.391 . S
C539 C540 1.391 . S
C540 H517 0.947 . S
C540 C539 1.391 . S
C540 C541 1.392 . S
C541 H518 0.948 . S
C541 C540 1.392 . S
C541 C542 1.419 . S
C542 C541 1.419 . S
C542 C543 1.391 . S
C542 C546 1.397 . S
C543 C538 1.391 . S
C543 C542 1.391 . S
C543 C544 1.399 . S
C544 C543 1.399 . S
C544 C545 1.396 . S
C544 C547 1.453 . S
C544 C548 1.684 . S
C545 C535 1.723 . S
C545 C544 1.396 . S
C545 C546 1.394 . S
C546 C516 1.723 . S
C546 C542 1.397 . S
C546 C545 1.394 . S
C547 H519 0.982 . S
C547 H523 0.979 . S
C547 H524 0.977 . S
C547 C544 1.453 . S
C548 H520 0.979 . S
C548 H521 0.980 . S
C548 H522 0.983 . S
C548 C544 1.684 . S
H549 C567 0.948 . S
H550 C508 0.948 . S
H551 C526 0.979 . S
H552 C526 0.980 . S
H553 C526 0.983 . S
H554 C525 0.982 . S
H555 C525 0.979 . S
H556 C525 0.977 . S
H557 C527 0.948 . S
H558 C529 0.947 . S
H559 C530 0.948 . S
H560 C536 0.982 . S
H561 C536 0.979 . S
H562 C536 0.977 . S
H563 C537 0.979 . S
H564 C537 0.980 . S
H565 C537 0.983 . S
H566 C510 0.947 . S
C567 C510 1.392 . S
C567 C511 1.419 . S
C567 H549 0.948 . S
C568 C569 1.387 . S
C568 H572 0.950 . S
C568 C577 1.390 . S
C569 C568 1.387 . S
C569 C571 1.387 . S
H570 C577 0.950 . S
C571 C569 1.387 . S
C571 C573 1.390 . S
C571 H575 0.950 . S
H572 C568 0.950 . S
C573 C571 1.390 . S
C573 C574 1.387 . S
C573 H576 0.950 1_565 S
C574 C573 1.387 . S
C574 C577 1.387 . S
H575 C571 0.950 . S
H576 C573 0.950 1_545 S
C577 C568 1.390 . S
C577 H570 0.950 . S
C577 C574 1.387 . S
C578 C579 1.387 . S
C578 H582 0.950 . S
C578 C587 1.390 . S
C579 C578 1.387 . S
C579 C581 1.387 . S
H580 C587 0.950 . S
C581 C579 1.387 . S
C581 C583 1.390 . S
C581 H585 0.950 . S
H582 C578 0.950 . S
C583 C581 1.390 . S
C583 C584 1.387 . S
C583 H586 0.950 . S
C584 C583 1.387 . S
C584 C587 1.387 . S
H585 C581 0.950 . S
H586 C583 0.950 . S
C587 C578 1.390 . S
C587 H580 0.950 . S
C587 C584 1.387 . S
C588 C589 1.387 . S
C588 H592 0.950 . S
C588 C597 1.390 . S
C589 C588 1.387 . S
C589 C591 1.387 . S
H590 C597 0.950 . S
C591 C589 1.387 . S
C591 C593 1.390 . S
C591 H595 0.950 . S
H592 C588 0.950 . S
C593 C591 1.390 . S
C593 C594 1.387 . S
C593 H596 0.950 . S
C594 C593 1.387 . S
C594 C597 1.387 . S
H595 C591 0.950 . S
H596 C593 0.950 . S
C597 C588 1.390 . S
C597 H590 0.950 . S
C597 C594 1.387 . S
C598 C599 1.387 . S
C598 H602 0.950 . S
C598 C607 1.390 . S
C599 C598 1.387 . S
C599 C601 1.387 . S
H600 C607 0.950 . S
C601 C599 1.387 . S
C601 C603 1.390 . S
C601 H605 0.950 . S
H602 C598 0.950 . S
C603 C601 1.390 . S
C603 C604 1.387 . S
C603 H606 0.950 . S
C604 C603 1.387 . S
C604 C607 1.387 . S
H605 C601 0.950 . S
H606 C603 0.950 . S
C607 C598 1.390 . S
C607 H600 0.950 . S
C607 C604 1.387 . S
C608 C609 1.387 . S
C608 H612 0.950 . S
C608 C617 1.390 . S
C609 C608 1.387 . S
C609 C611 1.387 . S
H610 C617 0.950 . S
C611 C609 1.387 . S
C611 C613 1.390 . S
C611 H615 0.950 . S
H612 C608 0.950 . S
C613 C611 1.390 . S
C613 C614 1.387 . S
C613 H616 0.950 . S
C614 C613 1.387 . S
C614 C617 1.387 . S
H615 C611 0.950 . S
H616 C613 0.950 . S
C617 C608 1.390 . S
C617 H610 0.950 . S
C617 C614 1.387 . S
C618 C619 1.387 . S
C618 H622 0.950 . S
C618 C627 1.390 . S
C619 C618 1.387 . S
C619 C621 1.387 . S
H620 C627 0.950 . S
C621 C619 1.387 . S
C621 C623 1.390 . S
C621 H625 0.950 . S
H622 C618 0.950 . S
C623 C621 1.390 . S
C623 C624 1.387 . S
C623 H626 0.950 . S
C624 C623 1.387 . S
C624 C627 1.387 . S
H625 C621 0.950 . S
H626 C623 0.950 . S
C627 C618 1.390 . S
C627 H620 0.950 . S
C627 C624 1.387 . S
C628 C629 1.387 . S
C628 H632 0.950 . S
C628 C637 1.390 . S
C629 C628 1.387 . S
C629 C631 1.387 . S
H630 C637 0.950 . S
C631 C629 1.387 . S
C631 C633 1.390 . S
C631 H635 0.950 . S
H632 C628 0.950 . S
C633 C631 1.390 . S
C633 C634 1.387 . S
C633 H636 0.950 . S
C634 C633 1.387 . S
C634 C637 1.387 . S
H635 C631 0.950 . S
H636 C633 0.950 . S
C637 C628 1.390 . S
C637 H630 0.950 . S
C637 C634 1.387 . S
C638 C639 1.387 . S
C638 H642 0.950 . S
C638 C647 1.390 . S
C639 C638 1.387 . S
C639 C641 1.387 . S
H640 C647 0.950 . S
C641 C639 1.387 . S
C641 C643 1.390 . S
C641 H645 0.950 . S
H642 C638 0.950 . S
C643 C641 1.390 . S
C643 C644 1.387 . S
C643 H646 0.950 . S
C644 C643 1.387 . S
C644 C647 1.387 . S
H645 C641 0.950 . S
H646 C643 0.950 . S
C647 C638 1.390 . S
C647 H640 0.950 . S
C647 C644 1.387 . S
C648 C649 1.387 . S
C648 H652 0.950 . S
C648 C657 1.390 . S
C649 C648 1.387 . S
C649 C651 1.387 . S
H650 C657 0.950 1_565 S
C651 C649 1.387 . S
C651 C653 1.390 . S
C651 H655 0.950 . S
H652 C648 0.950 . S
C653 C651 1.390 . S
C653 C654 1.387 . S
C653 H656 0.950 . S
C654 C653 1.387 . S
C654 C657 1.387 . S
H655 C651 0.950 . S
H656 C653 0.950 . S
C657 C648 1.390 . S
C657 H650 0.950 1_545 S
C657 C654 1.387 . S
C658 C659 1.387 . S
C658 H662 0.950 . S
C658 C667 1.390 . S
C659 C658 1.387 . S
C659 C661 1.387 . S
H660 C667 0.950 . S
C661 C659 1.387 . S
C661 C663 1.390 . S
C661 H665 0.950 . S
H662 C658 0.950 . S
C663 C661 1.390 . S
C663 C664 1.387 . S
C663 H666 0.950 . S
C664 C663 1.387 . S
C664 C667 1.387 . S
H665 C661 0.950 . S
H666 C663 0.950 . S
C667 C658 1.390 . S
C667 H660 0.950 . S
C667 C664 1.387 . S
C668 C669 1.387 . S
C668 H672 0.950 . S
C668 C677 1.390 . S
C669 C668 1.387 . S
C669 C671 1.387 . S
H670 C677 0.950 1_545 S
C671 C669 1.387 . S
C671 C673 1.390 . S
C671 H675 0.950 . S
H672 C668 0.950 . S
C673 C671 1.390 . S
C673 C674 1.387 . S
C673 H676 0.950 . S
C674 C673 1.387 . S
C674 C677 1.387 . S
H675 C671 0.950 . S
H676 C673 0.950 . S
C677 C668 1.390 . S
C677 H670 0.950 1_565 S
C677 C674 1.387 . S
C678 C679 1.387 . S
C678 H682 0.950 . S
C678 C687 1.390 . S
C679 C678 1.387 . S
C679 C681 1.387 . S
H680 C687 0.950 . S
C681 C679 1.387 . S
C681 C683 1.390 . S
C681 H685 0.950 . S
H682 C678 0.950 . S
C683 C681 1.390 . S
C683 C684 1.387 . S
C683 H686 0.950 . S
C684 C683 1.387 . S
C684 C687 1.387 . S
H685 C681 0.950 . S
H686 C683 0.950 . S
C687 C678 1.390 . S
C687 H680 0.950 . S
C687 C684 1.387 . S
C688 C689 1.387 . S
C688 H692 0.950 . S
C688 C697 1.390 . S
C689 C688 1.387 . S
C689 C691 1.387 . S
H690 C697 0.950 . S
C691 C689 1.387 . S
C691 C693 1.390 . S
C691 H695 0.950 . S
H692 C688 0.950 . S
C693 C691 1.390 . S
C693 C694 1.387 . S
C693 H696 0.950 . S
C694 C693 1.387 . S
C694 C697 1.387 . S
H695 C691 0.950 . S
H696 C693 0.950 . S
C697 C688 1.390 . S
C697 H690 0.950 . S
C697 C694 1.387 . S
C698 C699 1.387 . S
C698 H702 0.950 . S
C698 C707 1.390 . S
C699 C698 1.387 . S
C699 C701 1.387 . S
H700 C707 0.950 . S
C701 C699 1.387 . S
C701 C703 1.390 . S
C701 H705 0.950 . S
H702 C698 0.950 . S
C703 C701 1.390 . S
C703 C704 1.387 . S
C703 H706 0.950 . S
C704 C703 1.387 . S
C704 C707 1.387 . S
H705 C701 0.950 . S
H706 C703 0.950 . S
C707 C698 1.390 . S
C707 H700 0.950 . S
C707 C704 1.387 . S
C708 C709 1.387 . S
C708 H712 0.950 . S
C708 C717 1.390 . S
C709 C708 1.387 . S
C709 C711 1.387 . S
H710 C717 0.950 . S
C711 C709 1.387 . S
C711 C713 1.390 . S
C711 H715 0.950 . S
H712 C708 0.950 . S
C713 C711 1.390 . S
C713 C714 1.387 . S
C713 H716 0.950 . S
C714 C713 1.387 . S
C714 C717 1.387 . S
H715 C711 0.950 . S
H716 C713 0.950 . S
C717 C708 1.390 . S
C717 H710 0.950 . S
C717 C714 1.387 . S
C718 C719 1.387 . S
C718 H722 0.950 . S
C718 C727 1.390 . S
C719 C718 1.387 . S
C719 C721 1.387 . S
H720 C727 0.950 . S
C721 C719 1.387 . S
C721 C723 1.390 . S
C721 H725 0.950 . S
H722 C718 0.950 . S
C723 C721 1.390 . S
C723 C724 1.387 . S
C723 H726 0.950 . S
C724 C723 1.387 . S
C724 C727 1.387 . S
H725 C721 0.950 . S
H726 C723 0.950 . S
C727 C718 1.390 . S
C727 H720 0.950 . S
C727 C724 1.387 . S
C728 C729 1.387 . S
C728 H732 0.950 . S
C728 C737 1.390 . S
C729 C728 1.387 . S
C729 C731 1.387 . S
H730 C737 0.950 . S
C731 C729 1.387 . S
C731 C733 1.390 . S
C731 H735 0.950 . S
H732 C728 0.950 . S
C733 C731 1.390 . S
C733 C734 1.387 . S
C733 H736 0.950 . S
C734 C733 1.387 . S
C734 C737 1.387 . S
H735 C731 0.950 . S
H736 C733 0.950 . S
C737 C728 1.390 . S
C737 H730 0.950 . S
C737 C734 1.387 . S
C738 C739 1.387 . S
C738 H742 0.950 . S
C738 C747 1.390 . S
C739 C738 1.387 . S
C739 C741 1.387 . S
H740 C747 0.950 . S
C741 C739 1.387 . S
C741 C743 1.390 . S
C741 H745 0.950 . S
H742 C738 0.950 . S
C743 C741 1.390 . S
C743 C744 1.387 . S
C743 H746 0.950 . S
C744 C743 1.387 . S
C744 C747 1.387 . S
H745 C741 0.950 . S
H746 C743 0.950 . S
C747 C738 1.390 . S
C747 H740 0.950 . S
C747 C744 1.387 . S
C748 C749 1.387 . S
C748 H752 0.950 . S
C748 C757 1.390 . S
C749 C748 1.387 . S
C749 C751 1.387 . S
H750 C757 0.950 . S
C751 C749 1.387 . S
C751 C753 1.390 . S
C751 H755 0.950 . S
H752 C748 0.950 . S
C753 C751 1.390 . S
C753 C754 1.387 . S
C753 H756 0.950 . S
C754 C753 1.387 . S
C754 C757 1.387 . S
H755 C751 0.950 . S
H756 C753 0.950 . S
C757 C748 1.390 . S
C757 H750 0.950 . S
C757 C754 1.387 . S
C758 C759 1.387 . S
C758 H762 0.950 . S
C758 C767 1.390 . S
C759 C758 1.387 . S
C759 C761 1.387 . S
H760 C767 0.950 . S
C761 C759 1.387 . S
C761 C763 1.390 . S
C761 H765 0.950 . S
H762 C758 0.950 . S
C763 C761 1.390 . S
C763 C764 1.387 . S
C763 H766 0.950 . S
C764 C763 1.387 . S
C764 C767 1.387 . S
H765 C761 0.950 . S
H766 C763 0.950 . S
C767 C758 1.390 . S
C767 H760 0.950 . S
C767 C764 1.387 . S
C768 C769 1.387 . S
C768 H772 0.950 . S
C768 C777 1.390 . S
C769 C768 1.387 . S
C769 C771 1.387 . S
H770 C777 0.950 . S
C771 C769 1.387 . S
C771 C773 1.390 . S
C771 H775 0.950 . S
H772 C768 0.950 . S
C773 C771 1.390 . S
C773 C774 1.387 . S
C773 H776 0.950 . S
C774 C773 1.387 . S
C774 C777 1.387 . S
H775 C771 0.950 . S
H776 C773 0.950 . S
C777 C768 1.390 . S
C777 H770 0.950 . S
C777 C774 1.387 . S
C778 C779 1.387 . S
C778 H782 0.950 . S
C778 C787 1.390 . S
C779 C778 1.387 . S
C779 C781 1.387 . S
H780 C787 0.950 . S
C781 C779 1.387 . S
C781 C783 1.390 . S
C781 H785 0.950 . S
H782 C778 0.950 . S
C783 C781 1.390 . S
C783 C784 1.387 . S
C783 H786 0.950 . S
C784 C783 1.387 . S
C784 C787 1.387 . S
H785 C781 0.950 . S
H786 C783 0.950 . S
C787 C778 1.390 . S
C787 H780 0.950 . S
C787 C784 1.387 . S
C788 C789 1.387 . S
C788 H792 0.950 . S
C788 C797 1.390 . S
C789 C788 1.387 . S
C789 C791 1.387 . S
H790 C797 0.950 . S
C791 C789 1.387 . S
C791 C793 1.390 . S
C791 H795 0.950 . S
H792 C788 0.950 . S
C793 C791 1.390 . S
C793 C794 1.387 . S
C793 H796 0.950 . S
C794 C793 1.387 . S
C794 C797 1.387 . S
H795 C791 0.950 . S
H796 C793 0.950 . S
C797 C788 1.390 . S
C797 H790 0.950 . S
C797 C794 1.387 . S
C798 C799 1.387 . S
C798 H802 0.950 . S
C798 C807 1.390 . S
C799 C798 1.387 . S
C799 C801 1.387 . S
H800 C807 0.950 . S
C801 C799 1.387 . S
C801 C803 1.390 . S
C801 H805 0.950 . S
H802 C798 0.950 . S
C803 C801 1.390 . S
C803 C804 1.387 . S
C803 H806 0.950 . S
C804 C803 1.387 . S
C804 C807 1.387 . S
H805 C801 0.950 . S
H806 C803 0.950 . S
C807 C798 1.390 . S
C807 H800 0.950 . S
C807 C804 1.387 . S
C569 C8 1.505 . S
C574 C89 1.339 1_565 S
C579 C31 1.506 . S
C584 C168 1.490 . S
C589 C53 1.504 . S
C594 C239 1.490 1_545 S
C604 C299 1.490 . S
C599 C74 1.506 . S
C614 C329 1.339 . S
C609 C26 1.505 . S
C619 C48 1.504 . S
C624 C419 1.494 1_655 S
C629 C71 1.506 . S
C634 C479 1.490 . S
C639 C5 1.504 . S
C644 C528 1.494 1_455 S
C649 C50 1.505 . S
C654 C509 1.342 1_545 S
C664 C348 1.491 . S
C659 C70 1.504 . S
C674 C408 1.343 1_565 S
C669 C4 1.507 . S
C679 C28 1.504 . S
C684 C468 1.343 . S
C694 C149 1.338 . S
C689 C73 1.505 . S
C699 C7 1.504 . S
C704 C228 1.342 1_455 S
C714 C288 1.343 . S
C709 C30 1.504 . S
C724 C108 1.491 1_655 S
C719 C52 1.501 . S
C734 C449 1.142 . S
C729 C9 1.152 . S
C744 C539 1.143 . S
C739 C29 1.155 . S
C749 C51 1.155 . S
C754 C359 1.125 . S
C764 C389 1.142 . S
C759 C75 1.155 . S
C774 C209 1.142 . S
C769 C27 1.155 . S
C779 C49 1.155 . S
C784 C269 1.144 . S
C794 C119 1.126 . S
C789 C72 1.155 . S
C804 C179 1.142 . S
C799 C6 1.158 . S
