# Generated by pormake.
# Topology pto, (3,4)-cn, num edge types: 1
# Building blocks:
#     Node 0, Type 0, BuildingBlock: WUSLED_clean_sbu_0, # of connection points: 3
#     Node 1, Type 0, BuildingBlock: WUSLED_clean_sbu_0, # of connection points: 3
#     Node 2, Type 0, BuildingBlock: WUSLED_clean_sbu_0, # of connection points: 3
#     Node 3, Type 0, BuildingBlock: WUSLED_clean_sbu_0, # of connection points: 3
#     Node 4, Type 0, BuildingBlock: WUSLED_clean_sbu_0, # of connection points: 3
#     Node 5, Type 0, BuildingBlock: WUSLED_clean_sbu_0, # of connection points: 3
#     Node 6, Type 0, BuildingBlock: WUSLED_clean_sbu_0, # of connection points: 3
#     Node 7, Type 0, BuildingBlock: WUSLED_clean_sbu_0, # of connection points: 3
#     Node 8, Type 1, BuildingBlock: GIZVER_clean_linker_0, # of connection points: 4
#     Node 9, Type 1, BuildingBlock: GIZVER_clean_linker_0, # of connection points: 4
#     Node 10, Type 1, BuildingBlock: GIZVER_clean_linker_0, # of connection points: 4
#     Node 11, Type 1, BuildingBlock: GIZVER_clean_linker_0, # of connection points: 4
#     Node 12, Type 1, BuildingBlock: GIZVER_clean_linker_0, # of connection points: 4
#     Node 13, Type 1, BuildingBlock: GIZVER_clean_linker_0, # of connection points: 4
#     Edge 14, Type (0, 1), BuildingBlock: MIFKUJ_clean_linker_0, # of connection points: 2
#     Edge 15, Type (0, 1), BuildingBlock: MIFKUJ_clean_linker_0, # of connection points: 2
#     Edge 16, Type (0, 1), BuildingBlock: MIFKUJ_clean_linker_0, # of connection points: 2
#     Edge 17, Type (0, 1), BuildingBlock: MIFKUJ_clean_linker_0, # of connection points: 2
#     Edge 18, Type (0, 1), BuildingBlock: MIFKUJ_clean_linker_0, # of connection points: 2
#     Edge 19, Type (0, 1), BuildingBlock: MIFKUJ_clean_linker_0, # of connection points: 2
#     Edge 20, Type (0, 1), BuildingBlock: MIFKUJ_clean_linker_0, # of connection points: 2
#     Edge 21, Type (0, 1), BuildingBlock: MIFKUJ_clean_linker_0, # of connection points: 2
#     Edge 22, Type (0, 1), BuildingBlock: MIFKUJ_clean_linker_0, # of connection points: 2
#     Edge 23, Type (0, 1), BuildingBlock: MIFKUJ_clean_linker_0, # of connection points: 2
#     Edge 24, Type (0, 1), BuildingBlock: MIFKUJ_clean_linker_0, # of connection points: 2
#     Edge 25, Type (0, 1), BuildingBlock: MIFKUJ_clean_linker_0, # of connection points: 2
#     Edge 26, Type (0, 1), BuildingBlock: MIFKUJ_clean_linker_0, # of connection points: 2
#     Edge 27, Type (0, 1), BuildingBlock: MIFKUJ_clean_linker_0, # of connection points: 2
#     Edge 28, Type (0, 1), BuildingBlock: MIFKUJ_clean_linker_0, # of connection points: 2
#     Edge 29, Type (0, 1), BuildingBlock: MIFKUJ_clean_linker_0, # of connection points: 2
#     Edge 30, Type (0, 1), BuildingBlock: MIFKUJ_clean_linker_0, # of connection points: 2
#     Edge 31, Type (0, 1), BuildingBlock: MIFKUJ_clean_linker_0, # of connection points: 2
#     Edge 32, Type (0, 1), BuildingBlock: MIFKUJ_clean_linker_0, # of connection points: 2
#     Edge 33, Type (0, 1), BuildingBlock: MIFKUJ_clean_linker_0, # of connection points: 2
#     Edge 34, Type (0, 1), BuildingBlock: MIFKUJ_clean_linker_0, # of connection points: 2
#     Edge 35, Type (0, 1), BuildingBlock: MIFKUJ_clean_linker_0, # of connection points: 2
#     Edge 36, Type (0, 1), BuildingBlock: MIFKUJ_clean_linker_0, # of connection points: 2
#     Edge 37, Type (0, 1), BuildingBlock: MIFKUJ_clean_linker_0, # of connection points: 2
# Relax obj value: 0.003
# Max RMSD: 0.031
# Mean RMSD: 0.021
data_MOF--net-pto--node1-WUSLED_clean_sbu_0--node2-GIZVER_clean_linker_0--edge1-MIFKUJ_clean_linker_0
_symmetry_space_group_name_H-M    P1
_symmetry_Int_Tables_number       1
_symmetry_cell_setting            triclinic
loop_
_symmetry_equiv_pos_as_xyz
'x, y, z'
_cell_length_a     81.825957
_cell_length_b     65.971619
_cell_length_c     47.967663
_cell_angle_alpha  89.344327
_cell_angle_beta   90.297262
_cell_angle_gamma 90.135508
loop_
_atom_site_label
_atom_site_type_symbol
_atom_site_fract_x
_atom_site_fract_y
_atom_site_fract_z
_atom_type_partial_charge
C0 C 0.24851 0.26802 0.26988 0.0
C1 C 0.26406 0.26106 0.27786 0.0
C2 C 0.25201 0.23023 0.29747 0.0
C3 C 0.2658 0.24235 0.2916 0.0
C4 C 0.2365 0.23724 0.28903 0.0
C5 C 0.23478 0.25596 0.27541 0.0
U6 U 0.26542 0.31328 0.22876 0.0
O7 O 0.25437 0.33007 0.19344 0.0
O8 O 0.26019 0.3458 0.23234 0.0
C9 C 0.25274 0.34671 0.20798 0.0
C10 C 0.24639 0.28772 0.25569 0.0
C11 C 0.23621 0.35568 0.20785 0.0
C12 C 0.21027 0.36244 0.23058 0.0
C13 C 0.22582 0.35363 0.23095 0.0
C14 C 0.21507 0.37503 0.18372 0.0
C15 C 0.20469 0.37334 0.20698 0.0
C16 C 0.23066 0.36634 0.18421 0.0
C17 C 0.31169 0.31233 0.2112 0.0
C18 C 0.32705 0.33841 0.18636 0.0
C19 C 0.34051 0.3075 0.20154 0.0
C20 C 0.32585 0.30052 0.21297 0.0
C21 C 0.34134 0.32654 0.18809 0.0
C22 C 0.31233 0.33136 0.19786 0.0
C23 C 0.29652 0.30425 0.22341 0.0
O24 O 0.2536 0.30323 0.2676 0.0
O25 O 0.24822 0.28757 0.2285 0.0
O26 O 0.28518 0.29847 0.20568 0.0
O27 O 0.29066 0.31409 0.24481 0.0
H28 H 0.27483 0.27017 0.27363 0.0
H29 H 0.2779 0.23755 0.29803 0.0
H30 H 0.22565 0.22818 0.29274 0.0
H31 H 0.2227 0.26104 0.26919 0.0
H32 H 0.20277 0.36101 0.24902 0.0
H33 H 0.22976 0.34533 0.2494 0.0
H34 H 0.21112 0.38294 0.16498 0.0
H35 H 0.23841 0.36794 0.16606 0.0
H36 H 0.32727 0.3532 0.17635 0.0
H37 H 0.35113 0.29777 0.20281 0.0
H38 H 0.32556 0.28575 0.22309 0.0
H39 H 0.30148 0.3407 0.19634 0.0
C40 C 0.24658 0.75924 0.73886 0.0
C41 C 0.26261 0.76566 0.73338 0.0
C42 C 0.25234 0.79681 0.71193 0.0
C43 C 0.26547 0.78426 0.71997 0.0
C44 C 0.2363 0.79039 0.71783 0.0
C45 C 0.23346 0.77174 0.73115 0.0
U46 U 0.2619 0.71274 0.77839 0.0
O47 O 0.25089 0.69574 0.81343 0.0
O48 O 0.25572 0.68051 0.77389 0.0
C49 C 0.24877 0.67934 0.79852 0.0
C50 C 0.24344 0.73956 0.75254 0.0
C51 C 0.23217 0.67058 0.79893 0.0
C52 C 0.20496 0.66701 0.77882 0.0
C53 C 0.22051 0.67594 0.77859 0.0
C54 C 0.2124 0.64767 0.82015 0.0
C55 C 0.20072 0.65264 0.79951 0.0
C56 C 0.22796 0.65652 0.8198 0.0
C57 C 0.30863 0.71183 0.79434 0.0
C58 C 0.32393 0.69279 0.8295 0.0
C59 C 0.33831 0.71121 0.79315 0.0
C60 C 0.32339 0.71752 0.78179 0.0
C61 C 0.3388 0.69906 0.81742 0.0
C62 C 0.30895 0.69916 0.81807 0.0
C63 C 0.29333 0.72041 0.78303 0.0
O64 O 0.24979 0.72378 0.74013 0.0
O65 O 0.24556 0.73918 0.77971 0.0
O66 O 0.28244 0.72637 0.80125 0.0
O67 O 0.28687 0.71119 0.76147 0.0
H68 H 0.2729 0.75624 0.73939 0.0
H69 H 0.27797 0.78887 0.71603 0.0
H70 H 0.22592 0.79959 0.71164 0.0
H71 H 0.221 0.76701 0.73525 0.0
H72 H 0.19639 0.67107 0.76241 0.0
H73 H 0.22349 0.68685 0.76233 0.0
H74 H 0.20951 0.63698 0.83671 0.0
H75 H 0.23674 0.65231 0.83581 0.0
H76 H 0.32388 0.68352 0.84828 0.0
H77 H 0.34949 0.71601 0.78301 0.0
H78 H 0.3234 0.72724 0.76342 0.0
H79 H 0.29768 0.69458 0.82809 0.0
C80 C 0.73613 0.71296 0.20976 0.0
C81 C 0.73145 0.72029 0.18326 0.0
C82 C 0.70533 0.70257 0.18656 0.0
C83 C 0.71627 0.71511 0.17177 0.0
C84 C 0.71021 0.69471 0.21267 0.0
C85 C 0.72539 0.69992 0.22419 0.0
U86 U 0.78218 0.71287 0.23168 0.0
O87 O 0.79901 0.73886 0.23351 0.0
O88 O 0.79285 0.7221 0.2718 0.0
C89 C 0.80021 0.73798 0.26082 0.0
C90 C 0.75105 0.721 0.22359 0.0
C91 C 0.79758 0.75725 0.27517 0.0
C92 C 0.78007 0.78526 0.2882 0.0
C93 C 0.78226 0.76676 0.2747 0.0
C94 C 0.80847 0.7848 0.30277 0.0
C95 C 0.79318 0.79454 0.30232 0.0
C96 C 0.81063 0.76634 0.2893 0.0
C97 C 0.81247 0.67184 0.21196 0.0
C98 C 0.83903 0.66805 0.23447 0.0
C99 C 0.83334 0.65067 0.19129 0.0
C100 C 0.81762 0.659 0.19069 0.0
C101 C 0.84424 0.65496 0.2133 0.0
C102 C 0.82334 0.67646 0.23375 0.0
C103 C 0.79583 0.68037 0.21108 0.0
O104 O 0.75662 0.71099 0.24552 0.0
O105 O 0.76274 0.72797 0.20736 0.0
O106 O 0.79424 0.69742 0.19689 0.0
O107 O 0.78798 0.68041 0.23495 0.0
H108 H 0.73929 0.73057 0.1717 0.0
H109 H 0.71301 0.72121 0.15145 0.0
H110 H 0.70201 0.68521 0.22477 0.0
H111 H 0.72844 0.69426 0.24485 0.0
H112 H 0.76818 0.79243 0.28724 0.0
H113 H 0.77205 0.75993 0.26379 0.0
H114 H 0.81874 0.79132 0.31383 0.0
H115 H 0.82252 0.75914 0.28993 0.0
H116 H 0.84697 0.67153 0.25191 0.0
H117 H 0.83697 0.64098 0.17436 0.0
H118 H 0.80946 0.6554 0.17357 0.0
H119 H 0.81964 0.68646 0.25032 0.0
C120 C 0.76149 0.25653 0.75339 0.0
C121 C 0.77682 0.25205 0.74209 0.0
C122 C 0.7662 0.22009 0.72432 0.0
C123 C 0.77916 0.23395 0.72767 0.0
C124 C 0.75092 0.22466 0.736 0.0
C125 C 0.74861 0.24271 0.75038 0.0
U126 U 0.77556 0.30736 0.78373 0.0
O127 O 0.76279 0.33668 0.78305 0.0
O128 O 0.76816 0.32158 0.823 0.0
C129 C 0.7602 0.33623 0.81008 0.0
C130 C 0.75857 0.27558 0.7681 0.0
C131 C 0.74303 0.33859 0.81847 0.0
C132 C 0.7147 0.3274 0.81667 0.0
C133 C 0.73096 0.32543 0.80826 0.0
C134 C 0.72236 0.35571 0.84571 0.0
C135 C 0.71018 0.34252 0.8356 0.0
C136 C 0.73863 0.35375 0.8372 0.0
C137 C 0.82102 0.32305 0.77677 0.0
C138 C 0.83261 0.3565 0.78462 0.0
C139 C 0.85047 0.32799 0.77634 0.0
C140 C 0.83685 0.31529 0.774 0.0
C141 C 0.84854 0.34881 0.78147 0.0
C142 C 0.81896 0.34372 0.78234 0.0
C143 C 0.80698 0.30933 0.77281 0.0
O144 O 0.76545 0.27707 0.7928 0.0
O145 O 0.7599 0.2922 0.75292 0.0
O146 O 0.79558 0.31562 0.75536 0.0
O147 O 0.80108 0.30071 0.79546 0.0
H148 H 0.7869 0.26261 0.74422 0.0
H149 H 0.79103 0.231 0.71868 0.0
H150 H 0.74075 0.21421 0.73419 0.0
H151 H 0.73671 0.24592 0.7591 0.0
H152 H 0.70565 0.31716 0.80814 0.0
H153 H 0.73414 0.31358 0.79379 0.0
H154 H 0.7194 0.36733 0.8606 0.0
H155 H 0.7478 0.36396 0.84544 0.0
H156 H 0.83069 0.3724 0.7889 0.0
H157 H 0.8625 0.32158 0.77339 0.0
H158 H 0.83867 0.29938 0.7696 0.0
H159 H 0.80682 0.34999 0.78464 0.0
C160 C 0.8097 0.66705 0.7942 0.0
C161 C 0.82275 0.67878 0.78402 0.0
C162 C 0.84185 0.65149 0.79509 0.0
C163 C 0.83868 0.67109 0.78448 0.0
C164 C 0.82868 0.63984 0.80531 0.0
C165 C 0.81277 0.64757 0.80486 0.0
U166 U 0.77943 0.70784 0.77244 0.0
O167 O 0.75437 0.70552 0.75561 0.0
O168 O 0.75896 0.72167 0.79467 0.0
C169 C 0.74797 0.71494 0.77692 0.0
C170 C 0.79288 0.67492 0.79344 0.0
C171 C 0.73319 0.70573 0.78915 0.0
C172 C 0.71957 0.68618 0.82551 0.0
C173 C 0.73397 0.69317 0.81293 0.0
C174 C 0.70354 0.7036 0.7901 0.0
C175 C 0.70417 0.69157 0.81447 0.0
C176 C 0.71791 0.71063 0.77762 0.0
C177 C 0.79491 0.75424 0.73267 0.0
C178 C 0.77705 0.78258 0.7214 0.0
C179 C 0.80502 0.78258 0.705 0.0
C180 C 0.80756 0.76374 0.71793 0.0
C181 C 0.78975 0.79227 0.70663 0.0
C182 C 0.77961 0.76371 0.73429 0.0
C183 C 0.79782 0.73455 0.74638 0.0
O184 O 0.7904 0.69138 0.808 0.0
O185 O 0.78605 0.67568 0.76858 0.0
O186 O 0.79123 0.71884 0.73399 0.0
O187 O 0.79583 0.73425 0.77355 0.0
H188 H 0.82059 0.69389 0.7757 0.0
H189 H 0.84852 0.68056 0.77673 0.0
H190 H 0.83061 0.62459 0.81321 0.0
H191 H 0.80283 0.63827 0.81267 0.0
H192 H 0.72049 0.67672 0.84405 0.0
H193 H 0.74566 0.68912 0.82208 0.0
H194 H 0.69192 0.70824 0.78123 0.0
H195 H 0.71707 0.72035 0.75932 0.0
H196 H 0.76521 0.78969 0.72332 0.0
H197 H 0.81498 0.78943 0.69344 0.0
H198 H 0.81942 0.75658 0.7164 0.0
H199 H 0.7697 0.75655 0.74564 0.0
C200 C 0.73431 0.30928 0.20687 0.0
C201 C 0.7337 0.3257 0.18802 0.0
C202 C 0.70431 0.32069 0.18199 0.0
C203 C 0.71878 0.3314 0.17571 0.0
C204 C 0.70504 0.30458 0.2014 0.0
C205 C 0.71988 0.29895 0.21368 0.0
U206 U 0.78079 0.312 0.22349 0.0
O207 O 0.79318 0.30293 0.26247 0.0
O208 O 0.79836 0.28684 0.22375 0.0
C209 C 0.80049 0.28746 0.25089 0.0
C210 C 0.74977 0.30202 0.21912 0.0
C211 C 0.7987 0.26796 0.26565 0.0
C212 C 0.78198 0.2397 0.28172 0.0
C213 C 0.78346 0.25826 0.26748 0.0
C214 C 0.81098 0.24041 0.29223 0.0
C215 C 0.79573 0.23061 0.29438 0.0
C216 C 0.81244 0.25891 0.278 0.0
C217 C 0.80923 0.35454 0.20064 0.0
C218 C 0.83614 0.35976 0.22126 0.0
C219 C 0.82928 0.3758 0.17709 0.0
C220 C 0.81372 0.36699 0.17808 0.0
C221 C 0.84068 0.37244 0.19877 0.0
C222 C 0.8206 0.35084 0.22212 0.0
C223 C 0.79277 0.34536 0.20133 0.0
O224 O 0.76099 0.29617 0.20144 0.0
O225 O 0.75572 0.31252 0.23998 0.0
O226 O 0.7857 0.34471 0.22589 0.0
O227 O 0.79112 0.32844 0.18738 0.0
H228 H 0.74476 0.33385 0.18253 0.0
H229 H 0.71865 0.3438 0.16071 0.0
H230 H 0.69411 0.29623 0.20707 0.0
H231 H 0.72012 0.2863 0.22829 0.0
H232 H 0.77005 0.23266 0.28322 0.0
H233 H 0.77272 0.26509 0.25802 0.0
H234 H 0.82185 0.23368 0.30135 0.0
H235 H 0.82431 0.26617 0.27663 0.0
H236 H 0.84447 0.35698 0.23848 0.0
H237 H 0.8324 0.38513 0.15918 0.0
H238 H 0.80518 0.36986 0.16116 0.0
H239 H 0.81744 0.34114 0.23967 0.0
C240 C 0.24931 0.2672 0.72505 0.0
C241 C 0.26304 0.25513 0.73088 0.0
C242 C 0.25347 0.2299 0.69782 0.0
C243 C 0.26507 0.23659 0.71746 0.0
C244 C 0.23977 0.24214 0.69202 0.0
C245 C 0.23772 0.26061 0.70556 0.0
U246 U 0.26617 0.31145 0.7666 0.0
O247 O 0.26145 0.34419 0.76218 0.0
O248 O 0.25538 0.3283 0.80122 0.0
C249 C 0.25413 0.34515 0.78646 0.0
C250 C 0.24704 0.28676 0.73887 0.0
C251 C 0.23786 0.35469 0.78602 0.0
C252 C 0.2083 0.35252 0.78081 0.0
C253 C 0.22365 0.34317 0.78146 0.0
C254 C 0.2212 0.38502 0.78895 0.0
C255 C 0.2069 0.37358 0.78442 0.0
C256 C 0.23651 0.37564 0.78978 0.0
C257 C 0.31224 0.30904 0.78613 0.0
C258 C 0.32912 0.33609 0.80493 0.0
C259 C 0.34 0.3021 0.80159 0.0
C260 C 0.32518 0.29547 0.79031 0.0
C261 C 0.34223 0.32251 0.8089 0.0
C262 C 0.31423 0.32941 0.79361 0.0
C263 C 0.29704 0.30149 0.77336 0.0
O264 O 0.24843 0.28638 0.76618 0.0
O265 O 0.25462 0.30221 0.72718 0.0
O266 O 0.29152 0.3117 0.7516 0.0
O267 O 0.28547 0.29576 0.79064 0.0
H268 H 0.27219 0.26007 0.74573 0.0
H269 H 0.27584 0.22764 0.72212 0.0
H270 H 0.23054 0.23732 0.67723 0.0
H271 H 0.22706 0.26976 0.7008 0.0
H272 H 0.19755 0.34332 0.77699 0.0
H273 H 0.22445 0.32697 0.77827 0.0
H274 H 0.22053 0.40122 0.79214 0.0
H275 H 0.24733 0.38478 0.7933 0.0
H276 H 0.33044 0.35194 0.81015 0.0
H277 H 0.34967 0.29113 0.80484 0.0
H278 H 0.32384 0.27968 0.78475 0.0
H279 H 0.30436 0.34012 0.7905 0.0
C280 C 0.22333 0.69804 0.22789 0.0
C281 C 0.22141 0.68655 0.20362 0.0
C282 C 0.19549 0.67305 0.22091 0.0
C283 C 0.2076 0.67419 0.20015 0.0
C284 C 0.1977 0.68433 0.24537 0.0
C285 C 0.21144 0.69671 0.24876 0.0
U286 U 0.26846 0.71481 0.21971 0.0
O287 O 0.27825 0.74523 0.21085 0.0
O288 O 0.28429 0.72992 0.25043 0.0
C289 C 0.28531 0.74666 0.23543 0.0
C290 C 0.23723 0.71206 0.23171 0.0
C291 C 0.28241 0.76561 0.25042 0.0
C292 C 0.26426 0.79167 0.26777 0.0
C293 C 0.26659 0.77332 0.25392 0.0
C294 C 0.2935 0.79453 0.27499 0.0
C295 C 0.27772 0.80255 0.27834 0.0
C296 C 0.2958 0.77627 0.26113 0.0
C297 C 0.30085 0.6841 0.18317 0.0
C298 C 0.32998 0.69017 0.18961 0.0
C299 C 0.3203 0.67255 0.14867 0.0
C300 C 0.3042 0.67431 0.15805 0.0
C301 C 0.33338 0.68047 0.16435 0.0
C302 C 0.31387 0.69209 0.19884 0.0
C303 C 0.28377 0.68645 0.19232 0.0
O304 O 0.24887 0.70584 0.24873 0.0
O305 O 0.2428 0.72123 0.20918 0.0
O306 O 0.27558 0.70112 0.17987 0.0
O307 O 0.28139 0.68563 0.21941 0.0
H308 H 0.23045 0.68732 0.18722 0.0
H309 H 0.20626 0.66587 0.18095 0.0
H310 H 0.18884 0.68355 0.26204 0.0
H311 H 0.21273 0.70539 0.26769 0.0
H312 H 0.25196 0.79746 0.26982 0.0
H313 H 0.25609 0.76524 0.2458 0.0
H314 H 0.30411 0.80226 0.28336 0.0
H315 H 0.30809 0.77047 0.25874 0.0
H316 H 0.33976 0.69664 0.20197 0.0
H317 H 0.32254 0.66485 0.12925 0.0
H318 H 0.29434 0.66811 0.1456 0.0
H319 H 0.31158 0.69996 0.21813 0.0
H320 H 1.00233 0.48294 0.17821 0.0
H321 H 1.00852 0.54737 0.18865 0.0
H322 H 0.96482 0.51791 0.21731 0.0
H323 H 0.02276 0.50097 0.15178 0.0
H324 H 0.02338 0.52788 0.152 0.0
H325 H 0.03899 0.4807 0.18611 0.0
H326 H 0.08227 0.51057 0.21579 0.0
H327 H 0.04322 0.5458 0.17998 0.0
C328 C 0.99818 0.49716 0.18677 0.0
C329 C 0.9825 0.49829 0.19848 0.0
C330 C 1.00786 0.51479 0.18356 0.0
C331 C 1.00168 0.53355 0.19259 0.0
C332 C 0.98624 0.53461 0.20516 0.0
C333 C 0.97701 0.5169 0.20862 0.0
C334 C 0.02313 0.51425 0.16588 0.0
C335 C 0.03879 0.51347 0.18283 0.0
C336 C 0.04554 0.49457 0.19069 0.0
C337 C 0.06117 0.49353 0.20291 0.0
C338 C 0.06995 0.51145 0.20735 0.0
C339 C 0.06377 0.5303 0.19872 0.0
C340 C 0.04793 0.53134 0.18731 0.0
H341 H 0.03563 0.54364 0.76947 0.0
H342 H 0.04218 0.47921 0.75969 0.0
H343 H 0.08015 0.51519 0.79648 0.0
H344 H 0.02063 0.52326 0.73286 0.0
H345 H 0.02105 0.49637 0.73411 0.0
H346 H 1.00515 0.54281 0.76907 0.0
H347 H 0.96167 0.51191 0.79604 0.0
H348 H 1.00087 0.47801 0.76027 0.0
C349 C 0.0426 0.52995 0.77344 0.0
C350 C 0.05825 0.5314 0.78546 0.0
C351 C 0.0364 0.511 0.76487 0.0
C352 C 0.0463 0.49358 0.76794 0.0
C353 C 0.06216 0.49516 0.77904 0.0
C354 C 0.06772 0.5139 0.78864 0.0
C355 C 0.0209 0.51005 0.74748 0.0
C356 C 1.00533 0.51021 0.76447 0.0
C357 C 0.99856 0.5288 0.77291 0.0
C358 C 0.98287 0.52947 0.7847 0.0
C359 C 0.97404 0.51138 0.78808 0.0
C360 C 0.98028 0.49285 0.77901 0.0
C361 C 0.99616 0.49221 0.76803 0.0
H362 H 0.28113 0.0308 0.45379 0.0
H363 H 0.28589 0.03454 0.54322 0.0
H364 H 0.26252 0.08248 0.49713 0.0
H365 H 0.30299 0.012 0.48061 0.0
H366 H 0.30271 0.01123 0.51768 0.0
H367 H 0.28351 0.99154 0.45297 0.0
H368 H 0.26651 0.93759 0.49494 0.0
H369 H 0.28538 0.98712 0.54264 0.0
C370 C 0.27852 0.03842 0.47316 0.0
C371 C 0.27046 0.05721 0.47251 0.0
C372 C 0.28391 0.02992 0.49869 0.0
C373 C 0.28117 0.04047 0.52362 0.0
C374 C 0.27346 0.05942 0.52294 0.0
C375 C 0.26794 0.06748 0.49754 0.0
C376 C 0.29467 0.01136 0.49889 0.0
C377 C 0.28499 0.99184 0.49794 0.0
C378 C 0.2808 0.9833 0.47207 0.0
C379 C 0.27393 0.96377 0.47077 0.0
C380 C 0.27112 0.953 0.49568 0.0
C381 C 0.27519 0.96126 0.52159 0.0
C382 C 0.28176 0.98091 0.52271 0.0
H383 H 0.50499 0.68838 0.95393 0.0
H384 H 0.50534 0.69097 0.04374 0.0
H385 H 0.46524 0.66295 0.00096 0.0
H386 H 0.52395 0.71036 0.97704 0.0
H387 H 0.52172 0.71517 0.01321 0.0
H388 H 0.54515 0.68813 0.96088 0.0
H389 H 0.58027 0.666 0.02088 0.0
H390 H 0.53649 0.69461 0.04887 0.0
C391 C 0.49966 0.68421 0.97383 0.0
C392 C 0.48438 0.67441 0.97447 0.0
C393 C 0.50762 0.68973 -0.00119 0.0
C394 C 0.49991 0.68562 0.02451 0.0
C395 C 0.48476 0.67557 0.02528 0.0
C396 C 0.47737 0.66961 0.0003 0.0
C397 C 0.52285 0.70278 0.9978 0.0
C398 C 0.53833 0.691 0.00416 0.0
C399 C 0.54865 0.68488 0.98228 0.0
C400 C 0.5641 0.67641 0.98813 0.0
C401 C 0.56846 0.67262 0.01602 0.0
C402 C 0.55879 0.67947 0.03791 0.0
C403 C 0.54367 0.68855 0.03199 0.0
H404 H 0.80005 0.0374 0.46268 0.0
H405 H 0.79444 0.03141 0.5517 0.0
H406 H 0.77929 0.08601 0.50935 0.0
H407 H 0.81511 0.01178 0.48795 0.0
H408 H 0.8154 0.01161 0.52504 0.0
H409 H 0.79637 0.9901 0.46244 0.0
H410 H 0.77427 0.94138 0.5093 0.0
H411 H 0.79483 0.99224 0.55205 0.0
C412 C 0.79551 0.04318 0.48223 0.0
C413 C 0.78911 0.06287 0.48314 0.0
C414 C 0.79744 0.03166 0.50694 0.0
C415 C 0.79244 0.03987 0.53249 0.0
C416 C 0.78558 0.05936 0.53345 0.0
C417 C 0.78384 0.07059 0.50863 0.0
C418 C 0.80709 0.01218 0.50661 0.0
C419 C 0.79626 0.99361 0.5071 0.0
C420 C 0.7924 0.98361 0.48213 0.0
C421 C 0.78437 0.96472 0.48265 0.0
C422 C 0.7796 0.95644 0.50845 0.0
C423 C 0.78319 0.96629 0.53352 0.0
C424 C 0.79147 0.98494 0.53272 0.0
H425 H 0.50169 0.37685 0.95588 0.0
H426 H 0.50605 0.37354 0.04558 0.0
H427 H 0.46242 0.35249 0.00513 0.0
H428 H 0.52224 0.39697 0.98021 0.0
H429 H 0.52328 0.39697 0.01727 0.0
H430 H 0.53834 0.37309 0.95307 0.0
H431 H 0.57768 0.34291 0.99601 0.0
H432 H 0.54019 0.37217 0.04302 0.0
C433 C 0.49692 0.37205 0.97594 0.0
C434 C 0.48097 0.36418 0.97765 0.0
C435 C 0.50622 0.37526 0.00041 0.0
C436 C 0.49939 0.37022 0.02657 0.0
C437 C 0.48368 0.36172 0.02818 0.0
C438 C 0.47476 0.35845 0.0037 0.0
C439 C 0.52218 0.38686 -0.00106 0.0
C440 C 0.53695 0.3731 0.99816 0.0
C441 C 0.54389 0.3678 0.97238 0.0
C442 C 0.55852 0.3567 0.97156 0.0
C443 C 0.56595 0.35056 0.9966 0.0
C444 C 0.55955 0.35619 0.02236 0.0
C445 C 0.54495 0.36732 0.02314 0.0
H446 H 0.17601 0.35923 0.23011 0.0
H447 H 0.14949 0.3761 0.23113 0.0
H448 H 0.16928 0.42618 0.18344 0.0
H449 H 0.19602 0.41 0.1837 0.0
H450 H 0.15189 0.44047 0.22286 0.0
H451 H 0.14336 0.38917 0.15451 0.0
H452 H 0.14298 0.35448 0.13589 0.0
H453 H 0.1083 0.33635 0.19832 0.0
H454 H 0.10864 0.37088 0.21755 0.0
H455 H 0.06797 0.46543 0.16362 0.0
H456 H 0.08994 0.44031 0.16624 0.0
H457 H 0.09686 0.45336 0.25343 0.0
H458 H 0.07521 0.47886 0.2506 0.0
H459 H 0.1003 0.40677 0.19409 0.0
H460 H 0.1366 0.46025 0.26598 0.0
H461 H 0.13728 0.49646 0.27841 0.0
H462 H 0.1177 0.51249 0.19795 0.0
H463 H 0.11696 0.47642 0.18502 0.0
C464 C 0.17479 0.37392 0.22005 0.0
C465 C 0.18825 0.38319 0.2068 0.0
C466 C 0.15952 0.38345 0.22035 0.0
C467 C 0.15726 0.40235 0.20709 0.0
C468 C 0.17065 0.41159 0.19379 0.0
C469 C 0.18594 0.40218 0.19369 0.0
C470 C 0.14114 0.41284 0.20762 0.0
C471 C 0.14064 0.433 0.21666 0.0
C472 C 0.12639 0.40331 0.19917 0.0
C473 C 0.12616 0.38255 0.18765 0.0
C474 C 0.13575 0.37774 0.16441 0.0
C475 C 0.13552 0.35812 0.15371 0.0
C476 C 0.12566 0.34321 0.16596 0.0
C477 C 0.11596 0.34791 0.18888 0.0
C478 C 0.11615 0.3675 0.19967 0.0
C479 C 0.07372 0.4623 0.18359 0.0
C480 C 0.06996 0.47409 0.2069 0.0
C481 C 0.08634 0.44801 0.18506 0.0
C482 C 0.09532 0.4453 0.20986 0.0
C483 C 0.09031 0.45547 0.23393 0.0
C484 C 0.07785 0.4699 0.23239 0.0
C485 C 0.11114 0.4342 0.2096 0.0
C486 C 0.11157 0.41404 0.20058 0.0
C487 C 0.12595 0.44388 0.21725 0.0
C488 C 0.12658 0.46563 0.22467 0.0
C489 C 0.13248 0.47152 0.25094 0.0
C490 C 0.13284 0.49201 0.25808 0.0
C491 C 0.12744 0.50676 0.23903 0.0
C492 C 0.12175 0.50105 0.21275 0.0
C493 C 0.12135 0.48059 0.20552 0.0
H494 H 0.12772 0.52261 0.24459 0.0
H495 H 0.1255 0.32802 0.15765 0.0
H496 H 0.17081 0.66933 0.78618 0.0
H497 H 0.14422 0.65239 0.78477 0.0
H498 H 0.16676 0.59646 0.81188 0.0
H499 H 0.19344 0.61298 0.81203 0.0
H500 H 0.14634 0.58879 0.77189 0.0
H501 H 0.14388 0.62671 0.85644 0.0
H502 H 0.14544 0.65726 0.88551 0.0
H503 H 0.10646 0.68449 0.83808 0.0
H504 H 0.10481 0.6542 0.80848 0.0
H505 H 0.07064 0.54599 0.83408 0.0
H506 H 0.09202 0.57194 0.83815 0.0
H507 H 0.08731 0.58549 0.75035 0.0
H508 H 0.0657 0.55986 0.74638 0.0
H509 H 0.09787 0.61511 0.8216 0.0
H510 H 0.12628 0.57703 0.72652 0.0
H511 H 0.12525 0.54416 0.70242 0.0
H512 H 0.11396 0.51387 0.7797 0.0
H513 H 0.11507 0.54649 0.80421 0.0
C514 C 0.17016 0.65338 0.79161 0.0
C515 C 0.18434 0.64257 0.7993 0.0
C516 C 0.15488 0.64375 0.7911 0.0
C517 C 0.1534 0.62316 0.79852 0.0
C518 C 0.16753 0.61236 0.80612 0.0
C519 C 0.1828 0.62191 0.80649 0.0
C520 C 0.13724 0.61268 0.7979 0.0
C521 C 0.13578 0.59469 0.78269 0.0
C522 C 0.1234 0.62009 0.81226 0.0
C523 C 0.12434 0.63828 0.83007 0.0
C524 C 0.13572 0.63928 0.85208 0.0
C525 C 0.13661 0.65653 0.86867 0.0
C526 C 0.12609 0.67283 0.8636 0.0
C527 C 0.11462 0.67187 0.84196 0.0
C528 C 0.11369 0.65466 0.82528 0.0
C529 C 0.07361 0.55525 0.81601 0.0
C530 C 0.06647 0.5511 0.78998 0.0
C531 C 0.08585 0.57001 0.81832 0.0
C532 C 0.09132 0.58048 0.7945 0.0
C533 C 0.08321 0.57758 0.76897 0.0
C534 C 0.0708 0.56306 0.76676 0.0
C535 C 0.1071 0.59159 0.79533 0.0
C536 C 0.10846 0.60953 0.81056 0.0
C537 C 0.121 0.58392 0.78163 0.0
C538 C 0.12057 0.56422 0.76708 0.0
C539 C 0.12361 0.56334 0.73833 0.0
C540 C 0.123 0.54475 0.72461 0.0
C541 C 0.11946 0.52695 0.73949 0.0
C542 C 0.1166 0.52767 0.76815 0.0
C543 C 0.11719 0.54621 0.78195 0.0
H544 H 0.11899 0.51258 0.72883 0.0
H545 H 0.12679 0.68617 0.87647 0.0
H546 H 0.85288 0.6164 0.19853 0.0
H547 H 0.87984 0.60084 0.20061 0.0
H548 H 0.90013 0.65595 0.23389 0.0
H549 H 0.87327 0.67205 0.23054 0.0
H550 H 0.92063 0.64072 0.19759 0.0
H551 H 0.89233 0.61479 0.2765 0.0
H552 H 0.86967 0.59893 0.30254 0.0
H553 H 0.87504 0.54444 0.25539 0.0
H554 H 0.89759 0.56007 0.22877 0.0
H555 H 0.97567 0.54924 0.25472 0.0
H556 H 0.95515 0.57575 0.261 0.0
H557 H 0.95582 0.58834 0.17247 0.0
H558 H 0.97689 0.56259 0.1666 0.0
H559 H 0.92638 0.57341 0.24363 0.0
H560 H 0.93903 0.63294 0.15534 0.0
H561 H 0.96259 0.6505 0.13407 0.0
H562 H 0.9906 0.64109 0.20903 0.0
H563 H 0.96715 0.62372 0.2309 0.0
C564 C 0.86308 0.62538 0.20592 0.0
C565 C 0.86081 0.64552 0.21442 0.0
C566 C 0.8785 0.61634 0.20742 0.0
C567 C 0.89201 0.62708 0.21785 0.0
C568 C 0.8899 0.6473 0.2259 0.0
C569 C 0.87447 0.65642 0.22424 0.0
C570 C 0.90826 0.61704 0.2205 0.0
C571 C 0.92193 0.62603 0.20775 0.0
C572 C 0.91013 0.59818 0.23451 0.0
C573 C 0.89658 0.58867 0.2505 0.0
C574 C 0.88861 0.59947 0.27155 0.0
C575 C 0.87579 0.59051 0.28643 0.0
C576 C 0.87089 0.5707 0.28059 0.0
C577 C 0.87883 0.55979 0.25988 0.0
C578 C 0.89165 0.56868 0.24491 0.0
C579 C 0.97196 0.55839 0.2369 0.0
C580 C 0.97799 0.55414 0.21026 0.0
C581 C 0.96009 0.57337 0.24039 0.0
C582 C 0.95381 0.58413 0.21723 0.0
C583 C 0.96062 0.58068 0.19083 0.0
C584 C 0.97272 0.56596 0.18744 0.0
C585 C 0.93879 0.59676 0.22003 0.0
C586 C 0.92525 0.58821 0.23374 0.0
C587 C 0.93722 0.61626 0.20758 0.0
C588 C 0.95135 0.62689 0.19468 0.0
C589 C 0.95019 0.63471 0.16735 0.0
C590 C 0.96353 0.64461 0.15517 0.0
C591 C 0.9781 0.64686 0.17016 0.0
C592 C 0.97933 0.63927 0.1974 0.0
C593 C 0.96602 0.62937 0.20968 0.0
H594 H 0.98842 0.65452 0.16069 0.0
H595 H 0.86097 0.56379 0.29214 0.0
H596 H 0.87837 0.34135 0.80603 0.0
H597 H 0.90271 0.36295 0.80541 0.0
H598 H 0.87607 0.40876 0.75932 0.0
H599 H 0.85184 0.38701 0.75911 0.0
H600 H 0.90556 0.40265 0.73686 0.0
H601 H 0.88456 0.41359 0.82918 0.0
H602 H 0.87515 0.40334 0.87602 0.0
H603 H 0.92195 0.3767 0.89372 0.0
H604 H 0.93158 0.38657 0.84681 0.0
H605 H 0.95005 0.49203 0.75592 0.0
H606 H 0.93025 0.46442 0.75621 0.0
H607 H 0.96506 0.4258 0.79871 0.0
H608 H 0.98507 0.45386 0.79878 0.0
H609 H 0.93432 0.42437 0.82284 0.0
H610 H 0.95615 0.417 0.73174 0.0
H611 H 0.9654 0.42822 0.68522 0.0
H612 H 0.91691 0.44868 0.66523 0.0
H613 H 0.90741 0.43785 0.71179 0.0
C614 C 0.87769 0.356 0.79567 0.0
C615 C 0.86311 0.36242 0.78261 0.0
C616 C 0.8916 0.3684 0.79554 0.0
C617 C 0.89122 0.38755 0.78247 0.0
C618 C 0.87667 0.39405 0.76956 0.0
C619 C 0.86276 0.38167 0.7697 0.0
C620 C 0.90602 0.40073 0.78169 0.0
C621 C 0.91176 0.40753 0.75568 0.0
C622 C 0.9145 0.40654 0.80618 0.0
C623 C 0.90872 0.4006 0.83437 0.0
C624 C 0.8928 0.40538 0.84297 0.0
C625 C 0.88743 0.39968 0.86955 0.0
C626 C 0.89793 0.38932 0.88781 0.0
C627 C 0.91382 0.38469 0.87954 0.0
C628 C 0.91925 0.39035 0.85296 0.0
C629 C 0.95354 0.47764 0.76529 0.0
C630 C 0.96906 0.47513 0.77756 0.0
C631 C 0.94224 0.46181 0.76526 0.0
C632 C 0.94618 0.44297 0.77729 0.0
C633 C 0.96177 0.44022 0.78925 0.0
C634 C 0.97321 0.45616 0.78915 0.0
C635 C 0.93361 0.42664 0.77803 0.0
C636 C 0.92827 0.41925 0.804 0.0
C637 C 0.92547 0.42029 0.7535 0.0
C638 C 0.93109 0.42671 0.72536 0.0
C639 C 0.94748 0.42401 0.7175 0.0
C640 C 0.95276 0.43028 0.69111 0.0
C641 C 0.94175 0.43918 0.6723 0.0
C642 C 0.92543 0.44178 0.67982 0.0
C643 C 0.92008 0.43555 0.7062 0.0
H644 H 0.94587 0.44404 0.65187 0.0
H645 H 0.89375 0.38492 0.90838 0.0
H646 H 0.27596 0.20145 0.29171 0.0
H647 H 0.27881 0.16933 0.31722 0.0
H648 H 0.23455 0.18188 0.36231 0.0
H649 H 0.23202 0.21435 0.33784 0.0
H650 H 0.25718 0.16822 0.39679 0.0
H651 H 0.23577 0.14746 0.30799 0.0
H652 H 0.23514 0.1451 0.25673 0.0
H653 H 0.28186 0.11559 0.25804 0.0
H654 H 0.28287 0.11803 0.30932 0.0
H655 H 0.24172 0.07511 0.45786 0.0
H656 H 0.23793 0.10116 0.42176 0.0
H657 H 0.28676 0.09046 0.39202 0.0
H658 H 0.29063 0.06433 0.42825 0.0
H659 H 0.26285 0.10231 0.34885 0.0
H660 H 0.28403 0.12334 0.43796 0.0
H661 H 0.28367 0.124 0.48935 0.0
H662 H 0.23668 0.15283 0.48721 0.0
H663 H 0.23659 0.15187 0.43578 0.0
C664 C 0.26691 0.19746 0.30722 0.0
C665 C 0.25373 0.2105 0.31262 0.0
C666 C 0.26845 0.17897 0.32157 0.0
C667 C 0.25677 0.17303 0.34144 0.0
C668 C 0.24368 0.18606 0.34699 0.0
C669 C 0.24217 0.20457 0.33276 0.0
C670 C 0.25831 0.15347 0.35696 0.0
C671 C 0.25822 0.15383 0.38622 0.0
C672 C 0.26008 0.13466 0.34327 0.0
C673 C 0.25947 0.13311 0.31247 0.0
C674 C 0.24597 0.14061 0.29733 0.0
C675 C 0.24553 0.13923 0.26827 0.0
C676 C 0.25847 0.13025 0.25413 0.0
C677 C 0.27186 0.12257 0.26902 0.0
C678 C 0.27236 0.12393 0.29808 0.0
C679 C 0.25143 0.07782 0.44299 0.0
C680 C 0.26653 0.06791 0.446 0.0
C681 C 0.24926 0.09269 0.42242 0.0
C682 C 0.26218 0.09796 0.40461 0.0
C683 C 0.27666 0.0866 0.40561 0.0
C684 C 0.27884 0.07165 0.42626 0.0
C685 C 0.26145 0.11719 0.38842 0.0
C686 C 0.2618 0.11677 0.35923 0.0
C687 C 0.25991 0.13599 0.40211 0.0
C688 C 0.26024 0.13736 0.43301 0.0
C689 C 0.27358 0.12971 0.44845 0.0
C690 C 0.27345 0.13013 0.47758 0.0
C691 C 0.26014 0.13842 0.49154 0.0
C692 C 0.24697 0.14639 0.47637 0.0
C693 C 0.247 0.14591 0.44722 0.0
H694 H 0.26006 0.13869 0.5141 0.0
H695 H 0.25811 0.1292 0.23163 0.0
H696 H 0.34846 0.6625 0.84019 0.0
H697 H 0.37488 0.65419 0.86172 0.0
H698 H 0.39163 0.71528 0.84591 0.0
H699 H 0.36539 0.72363 0.82442 0.0
H700 H 0.41498 0.68917 0.83345 0.0
H701 H 0.37842 0.69897 0.91073 0.0
H702 H 0.35415 0.69266 0.93985 0.0
H703 H 0.36888 0.63079 0.9524 0.0
H704 H 0.39311 0.63664 0.92295 0.0
H705 H 0.47754 0.70331 0.93511 0.0
H706 H 0.45478 0.70301 0.90197 0.0
H707 H 0.44442 0.64078 0.92431 0.0
H708 H 0.46711 0.64113 0.95775 0.0
H709 H 0.41825 0.66318 0.93069 0.0
H710 H 0.45669 0.65477 0.85745 0.0
H711 H 0.48147 0.66199 0.83 0.0
H712 H 0.46375 0.72182 0.81105 0.0
H713 H 0.43896 0.71506 0.83871 0.0
C714 C 0.35775 0.67418 0.84144 0.0
C715 C 0.3548 0.69372 0.83051 0.0
C716 C 0.37287 0.6694 0.8537 0.0
C717 C 0.38525 0.68414 0.85559 0.0
C718 C 0.38234 0.7036 0.84454 0.0
C719 C 0.36731 0.70834 0.83221 0.0
C720 C 0.40119 0.67959 0.86942 0.0
C721 C 0.41571 0.6836 0.85478 0.0
C722 C 0.40218 0.67179 0.89699 0.0
C723 C 0.38746 0.66817 0.91431 0.0
C724 C 0.37639 0.68396 0.91943 0.0
C725 C 0.36265 0.68047 0.93605 0.0
C726 C 0.35994 0.66132 0.94789 0.0
C727 C 0.37097 0.6456 0.94315 0.0
C728 C 0.3847 0.64899 0.92648 0.0
C729 C 0.47085 0.68931 0.93212 0.0
C730 C 0.47409 0.67225 0.94906 0.0
C731 C 0.45776 0.68916 0.91321 0.0
C732 C 0.4478 0.67188 0.91066 0.0
C733 C 0.45185 0.65432 0.926 0.0
C734 C 0.46487 0.6545 0.94498 0.0
C735 C 0.43209 0.67298 0.89487 0.0
C736 C 0.41758 0.6684 0.90919 0.0
C737 C 0.43114 0.68033 0.86708 0.0
C738 C 0.44601 0.68444 0.85033 0.0
C739 C 0.45813 0.66952 0.8476 0.0
C740 C 0.47217 0.67352 0.83197 0.0
C741 C 0.47419 0.69236 0.81883 0.0
C742 C 0.46217 0.70723 0.82125 0.0
C743 C 0.44811 0.70331 0.83686 0.0
H744 H 0.48507 0.69544 0.80675 0.0
H745 H 0.34933 0.65866 0.9608 0.0
H746 H 0.76725 0.8068 0.33399 0.0
H747 H 0.76444 0.83854 0.35941 0.0
H748 H 0.81138 0.85842 0.32891 0.0
H749 H 0.81422 0.82684 0.30329 0.0
H750 H 0.80911 0.86319 0.3841 0.0
H751 H 0.7759 0.87942 0.30416 0.0
H752 H 0.75374 0.87406 0.26998 0.0
H753 H 0.71829 0.8752 0.33563 0.0
H754 H 0.74027 0.88029 0.37028 0.0
H755 H 0.80689 0.96007 0.44107 0.0
H756 H 0.80689 0.93439 0.40489 0.0
H757 H 0.75942 0.91367 0.43174 0.0
H758 H 0.7589 0.94008 0.46701 0.0
H759 H 0.762 0.91019 0.37661 0.0
H760 H 0.79473 0.89128 0.45661 0.0
H761 H 0.81661 0.89558 0.4917 0.0
H762 H 0.85248 0.89836 0.4268 0.0
H763 H 0.83083 0.89428 0.39129 0.0
C764 C 0.77686 0.81806 0.33233 0.0
C765 C 0.791 0.81423 0.31669 0.0
C766 C 0.77523 0.83621 0.34688 0.0
C767 C 0.78765 0.85093 0.34593 0.0
C768 C 0.80166 0.84726 0.33001 0.0
C769 C 0.8033 0.82915 0.31548 0.0
C770 C 0.78649 0.86967 0.36269 0.0
C771 C 0.79894 0.87365 0.38209 0.0
C772 C 0.77299 0.88302 0.36066 0.0
C773 C 0.75975 0.88006 0.33985 0.0
C774 C 0.76339 0.87837 0.31134 0.0
C775 C 0.75086 0.87541 0.29188 0.0
C776 C 0.73462 0.87425 0.30064 0.0
C777 C 0.73088 0.87609 0.32888 0.0
C778 C 0.74337 0.87903 0.34844 0.0
C779 C 0.79618 0.95056 0.4387 0.0
C780 C 0.78297 0.95202 0.45724 0.0
C781 C 0.7963 0.93567 0.4182 0.0
C782 C 0.78336 0.92173 0.4161 0.0
C783 C 0.76962 0.92411 0.43313 0.0
C784 C 0.7694 0.93914 0.45343 0.0
C785 C 0.78469 0.90375 0.39786 0.0
C786 C 0.77224 0.89983 0.37837 0.0
C787 C 0.79813 0.89031 0.39992 0.0
C788 C 0.81115 0.89269 0.42128 0.0
C789 C 0.80727 0.89295 0.44982 0.0
C790 C 0.81962 0.89532 0.46978 0.0
C791 C 0.83589 0.89731 0.46147 0.0
C792 C 0.83986 0.89686 0.43319 0.0
C793 C 0.82757 0.89449 0.41314 0.0
H794 H 0.84543 0.89915 0.47696 0.0
H795 H 0.72494 0.87195 0.28553 0.0
H796 H 0.68852 0.31192 0.84799 0.0
H797 H 0.66032 0.31491 0.86382 0.0
H798 H 0.66443 0.38007 0.86106 0.0
H799 H 0.69261 0.37725 0.84479 0.0
H800 H 0.6508 0.36689 0.90932 0.0
H801 H 0.6425 0.35507 0.8117 0.0
H802 H 0.64586 0.33702 0.76738 0.0
H803 H 0.62424 0.28358 0.80359 0.0
H804 H 0.62096 0.30123 0.84827 0.0
H805 H 0.56917 0.38679 0.93714 0.0
H806 H 0.59249 0.38464 0.90553 0.0
H807 H 0.5937 0.31979 0.91742 0.0
H808 H 0.57047 0.32192 0.94931 0.0
H809 H 0.60379 0.33392 0.862 0.0
H810 H 0.61462 0.34358 0.95974 0.0
H811 H 0.61077 0.36049 0.0048 0.0
H812 H 0.62795 0.41658 0.96919 0.0
H813 H 0.63156 0.40007 0.9237 0.0
C814 C 0.68339 0.32691 0.85033 0.0
C815 C 0.69289 0.34435 0.84501 0.0
C816 C 0.66724 0.32859 0.85944 0.0
C817 C 0.66018 0.34772 0.86336 0.0
C818 C 0.66962 0.36515 0.85818 0.0
C819 C 0.68577 0.3635 0.84901 0.0
C820 C 0.64315 0.34951 0.87377 0.0
C821 C 0.64051 0.35999 0.89864 0.0
C822 C 0.62973 0.34004 0.8603 0.0
C823 C 0.63161 0.32943 0.83341 0.0
C824 C 0.63857 0.33942 0.81028 0.0
C825 C 0.64045 0.32927 0.78508 0.0
C826 C 0.6353 0.30915 0.78269 0.0
C827 C 0.62824 0.29916 0.80548 0.0
C828 C 0.62635 0.30924 0.83074 0.0
C829 C 0.5739 0.37199 0.93193 0.0
C830 C 0.56805 0.35452 0.94562 0.0
C831 C 0.5873 0.37079 0.91406 0.0
C832 C 0.59495 0.35208 0.90948 0.0
C833 C 0.58797 0.33435 0.92067 0.0
C834 C 0.57469 0.33557 0.93881 0.0
C835 C 0.61155 0.35142 0.89725 0.0
C836 C 0.6141 0.34103 0.87233 0.0
C837 C 0.62496 0.36078 0.91077 0.0
C838 C 0.62318 0.37065 0.93823 0.0
C839 C 0.61745 0.35956 0.96145 0.0
C840 C 0.61532 0.36906 0.98708 0.0
C841 C 0.61908 0.38961 0.98983 0.0
C842 C 0.62502 0.40067 0.967 0.0
C843 C 0.6271 0.39125 0.94128 0.0
H844 H 0.61742 0.39695 0.00968 0.0
H845 H 0.63677 0.30132 0.76316 0.0
H846 H 0.23759 0.83356 0.72009 0.0
H847 H 0.242 0.86523 0.69404 0.0
H848 H 0.27813 0.83569 0.64355 0.0
H849 H 0.27386 0.8041 0.66957 0.0
H850 H 0.28839 0.87243 0.65727 0.0
H851 H 0.23846 0.84376 0.62047 0.0
H852 H 0.21034 0.83037 0.6233 0.0
H853 H 0.19379 0.88701 0.65601 0.0
H854 H 0.22187 0.90065 0.6537 0.0
H855 H 0.28937 0.92464 0.52914 0.0
H856 H 0.28616 0.90107 0.56833 0.0
H857 H 0.25559 0.94432 0.61002 0.0
H858 H 0.25886 0.96817 0.57045 0.0
H859 H 0.24201 0.90529 0.60754 0.0
H860 H 0.29214 0.9353 0.63654 0.0
H861 H 0.32031 0.94802 0.63122 0.0
H862 H 0.33668 0.8882 0.61098 0.0
H863 H 0.30855 0.87516 0.61577 0.0
C864 C 0.24644 0.83382 0.70338 0.0
C865 C 0.25534 0.81629 0.69684 0.0
C866 C 0.24896 0.85193 0.68854 0.0
C867 C 0.26028 0.85281 0.66663 0.0
C868 C 0.26938 0.83543 0.66043 0.0
C869 C 0.26694 0.81737 0.67535 0.0
C870 C 0.26244 0.87159 0.64957 0.0
C871 C 0.27825 0.87956 0.64631 0.0
C872 C 0.24916 0.8813 0.6359 0.0
C873 C 0.23228 0.87313 0.63724 0.0
C874 C 0.22884 0.8533 0.62848 0.0
C875 C 0.21291 0.84567 0.62995 0.0
C876 C 0.20029 0.8578 0.63992 0.0
C877 C 0.20358 0.87761 0.64835 0.0
C878 C 0.21949 0.8853 0.64696 0.0
C879 C 0.2821 0.9292 0.5468 0.0
C880 C 0.27429 0.94814 0.5468 0.0
C881 C 0.28034 0.91578 0.56923 0.0
C882 C 0.27073 0.92098 0.59218 0.0
C883 C 0.26311 0.94007 0.59253 0.0
C884 C 0.26503 0.95367 0.57008 0.0
C885 C 0.268 0.90577 0.61473 0.0
C886 C 0.25209 0.89843 0.61898 0.0
C887 C 0.28121 0.89653 0.62911 0.0
C888 C 0.29819 0.90427 0.62638 0.0
C889 C 0.30172 0.92487 0.63077 0.0
C890 C 0.31769 0.93214 0.62787 0.0
C891 C 0.33027 0.91893 0.62073 0.0
C892 C 0.32692 0.89842 0.61652 0.0
C893 C 0.31096 0.89107 0.61937 0.0
H894 H 0.34263 0.92459 0.61849 0.0
H895 H 0.18797 0.85187 0.64103 0.0
H896 H 0.68468 0.7295 0.16076 0.0
H897 H 0.65708 0.72343 0.1432 0.0
H898 H 0.66004 0.66101 0.17036 0.0
H899 H 0.68794 0.66685 0.18742 0.0
H900 H 0.64715 0.66459 0.11798 0.0
H901 H 0.63757 0.6944 0.20697 0.0
H902 H 0.64092 0.71997 0.24366 0.0
H903 H 0.62178 0.7659 0.18848 0.0
H904 H 0.61853 0.74066 0.1513 0.0
H905 H 0.56719 0.64884 0.07394 0.0
H906 H 0.58869 0.65079 0.10961 0.0
H907 H 0.59181 0.7155 0.09627 0.0
H908 H 0.56965 0.71363 0.06209 0.0
H909 H 0.60066 0.70744 0.14736 0.0
H910 H 0.61534 0.67992 0.05663 0.0
H911 H 0.6113 0.65523 0.01887 0.0
H912 H 0.62078 0.60622 0.07631 0.0
H913 H 0.62494 0.63062 0.11436 0.0
C914 C 0.67956 0.71441 0.16277 0.0
C915 C 0.68857 0.69865 0.17547 0.0
C916 C 0.66368 0.71103 0.15301 0.0
C917 C 0.65638 0.69184 0.15583 0.0
C918 C 0.66538 0.67597 0.16813 0.0
C919 C 0.68129 0.67936 0.178 0.0
C920 C 0.63946 0.68836 0.14535 0.0
C921 C 0.63693 0.6737 0.12481 0.0
C922 C 0.62615 0.70047 0.15386 0.0
C923 C 0.62791 0.71565 0.17629 0.0
C924 C 0.63417 0.70998 0.2026 0.0
C925 C 0.63603 0.72441 0.22349 0.0
C926 C 0.63159 0.74456 0.21839 0.0
C927 C 0.62522 0.7503 0.1924 0.0
C928 C 0.62334 0.73592 0.17142 0.0
C929 C 0.5719 0.66355 0.0798 0.0
C930 C 0.56674 0.6811 0.06551 0.0
C931 C 0.58438 0.66466 0.09981 0.0
C932 C 0.59233 0.6832 0.10489 0.0
C933 C 0.586 0.70099 0.09264 0.0
C934 C 0.57325 0.69995 0.0732 0.0
C935 C 0.6084 0.68389 0.11969 0.0
C936 C 0.61082 0.6981 0.14089 0.0
C937 C 0.6217 0.67155 0.11157 0.0
C938 C 0.6203 0.65704 0.08834 0.0
C939 C 0.61663 0.66388 0.06114 0.0
C940 C 0.61429 0.64995 0.03972 0.0
C941 C 0.61562 0.62918 0.04529 0.0
C942 C 0.61968 0.62231 0.07209 0.0
C943 C 0.62209 0.63617 0.09356 0.0
H944 H 0.61342 0.6184 0.02889 0.0
H945 H 0.63305 0.75571 0.23459 0.0
H946 H 0.79235 0.19411 0.72556 0.0
H947 H 0.79592 0.16304 0.69884 0.0
H948 H 0.74869 0.17204 0.66037 0.0
H949 H 0.74507 0.20308 0.68686 0.0
H950 H 0.75271 0.13306 0.67534 0.0
H951 H 0.78387 0.18394 0.62599 0.0
H952 H 0.80484 0.21061 0.62072 0.0
H953 H 0.84218 0.16826 0.64513 0.0
H954 H 0.82139 0.1414 0.6509 0.0
H955 H 0.75819 0.08013 0.54782 0.0
H956 H 0.7551 0.10301 0.58715 0.0
H957 H 0.80251 0.0851 0.61839 0.0
H958 H 0.80571 0.0623 0.57879 0.0
H959 H 0.80005 0.12578 0.61212 0.0
H960 H 0.76846 0.07357 0.65529 0.0
H961 H 0.74707 0.0473 0.65864 0.0
H962 H 0.71006 0.09228 0.64409 0.0
H963 H 0.73124 0.1188 0.64024 0.0
C964 C 0.78277 0.18953 0.71128 0.0
C965 C 0.76843 0.2011 0.70833 0.0
C966 C 0.7848 0.17173 0.69609 0.0
C967 C 0.77261 0.16526 0.67747 0.0
C968 C 0.75822 0.17666 0.67473 0.0
C969 C 0.75617 0.1944 0.68993 0.0
C970 C 0.7749 0.14688 0.6603 0.0
C971 C 0.76301 0.1315 0.66138 0.0
C972 C 0.78855 0.1446 0.64262 0.0
C973 C 0.80106 0.16074 0.63922 0.0
C974 C 0.79654 0.18037 0.63048 0.0
C975 C 0.80839 0.19551 0.62735 0.0
C976 C 0.82482 0.19115 0.63268 0.0
C977 C 0.82944 0.17163 0.64107 0.0
C978 C 0.81763 0.15644 0.64427 0.0
C979 C 0.76776 0.0807 0.56348 0.0
C980 C 0.78219 0.06947 0.56026 0.0
C981 C 0.76597 0.09372 0.586 0.0
C982 C 0.77857 0.09576 0.60576 0.0
C983 C 0.79263 0.08373 0.60341 0.0
C984 C 0.79438 0.07058 0.58094 0.0
C985 C 0.77775 0.11204 0.62685 0.0
C986 C 0.7899 0.1271 0.62643 0.0
C987 C 0.76427 0.11408 0.64495 0.0
C988 C 0.75147 0.09817 0.64729 0.0
C989 C 0.75577 0.07785 0.65259 0.0
C990 C 0.74368 0.06291 0.65462 0.0
C991 C 0.72722 0.06811 0.65154 0.0
C992 C 0.72282 0.08827 0.64647 0.0
C993 C 0.73486 0.10327 0.6444 0.0
H994 H 0.71788 0.05652 0.65312 0.0
H995 H 0.83398 0.20289 0.63023 0.0
H996 H 0.3724 0.32234 0.20919 0.0
H997 H 0.39817 0.33079 0.18646 0.0
H998 H 0.37174 0.35568 0.11601 0.0
H999 H 0.34587 0.34647 0.13814 0.0
H1000 H 0.39462 0.33221 0.09821 0.0
H1001 H 0.39278 0.38622 0.16253 0.0
H1002 H 0.38992 0.40275 0.20808 0.0
H1003 H 0.43212 0.37093 0.23894 0.0
H1004 H 0.43511 0.35398 0.19368 0.0
H1005 H 0.47248 0.39084 0.06251 0.0
H1006 H 0.44994 0.38677 0.09559 0.0
H1007 H 0.45196 0.32191 0.08564 0.0
H1008 H 0.47408 0.32609 0.05185 0.0
H1009 H 0.44094 0.36824 0.14306 0.0
H1010 H 0.41384 0.30387 0.07576 0.0
H1011 H 0.41541 0.29136 0.02757 0.0
H1012 H 0.42863 0.35091 0.99835 0.0
H1013 H 0.4269 0.36385 0.04631 0.0
C1014 C 0.37204 0.3296 0.18884 0.0
C1015 C 0.35701 0.33357 0.17543 0.0
C1016 C 0.38682 0.33465 0.17599 0.0
C1017 C 0.38696 0.34401 0.14956 0.0
C1018 C 0.37198 0.34848 0.13642 0.0
C1019 C 0.35717 0.34336 0.14922 0.0
C1020 C 0.40269 0.34796 0.13492 0.0
C1021 C 0.40471 0.34011 0.10809 0.0
C1022 C 0.41583 0.35858 0.14748 0.0
C1023 C 0.41407 0.36868 0.17478 0.0
C1024 C 0.40137 0.38261 0.17911 0.0
C1025 C 0.39974 0.39208 0.20486 0.0
C1026 C 0.41081 0.38785 0.22641 0.0
C1027 C 0.42355 0.37417 0.22224 0.0
C1028 C 0.42522 0.36464 0.19652 0.0
C1029 C 0.46856 0.37569 0.06839 0.0
C1030 C 0.47501 0.35876 0.05485 0.0
C1031 C 0.45561 0.37337 0.08714 0.0
C1032 C 0.44898 0.35407 0.09257 0.0
C1033 C 0.45666 0.33698 0.08135 0.0
C1034 C 0.46943 0.33933 0.06233 0.0
C1035 C 0.43292 0.35201 0.10678 0.0
C1036 C 0.43083 0.36026 0.13337 0.0
C1037 C 0.4195 0.34229 0.09369 0.0
C1038 C 0.42038 0.33476 0.06468 0.0
C1039 C 0.41702 0.31431 0.05904 0.0
C1040 C 0.41794 0.30715 0.03178 0.0
C1041 C 0.42215 0.32032 0.00995 0.0
C1042 C 0.42541 0.34071 0.01531 0.0
C1043 C 0.42447 0.34796 0.04253 0.0
H1044 H 0.4228 0.31473 0.9889 0.0
H1045 H 0.40953 0.39521 0.24633 0.0
H1046 H 0.86521 0.65541 0.75449 0.0
H1047 H 0.89251 0.64048 0.75384 0.0
H1048 H 0.88395 0.61298 0.83447 0.0
H1049 H 0.85686 0.62848 0.83575 0.0
H1050 H 0.91475 0.6274 0.83115 0.0
H1051 H 0.87941 0.58593 0.77466 0.0
H1052 H 0.85989 0.57909 0.73655 0.0
H1053 H 0.89485 0.60048 0.67652 0.0
H1054 H 0.91451 0.6077 0.71435 0.0
H1055 H 0.96559 0.54035 0.83065 0.0
H1056 H 0.94533 0.56737 0.83324 0.0
H1057 H 0.95972 0.58912 0.75181 0.0
H1058 H 0.97982 0.56176 0.74893 0.0
H1059 H 0.92793 0.58153 0.75326 0.0
H1060 H 0.96481 0.61855 0.81052 0.0
H1061 H 0.98416 0.6242 0.84924 0.0
H1062 H 0.94651 0.61019 0.90846 0.0
H1063 H 0.92698 0.60417 0.87011 0.0
C1064 C 0.86921 0.64646 0.77231 0.0
C1065 C 0.85875 0.64305 0.7951 0.0
C1066 C 0.8848 0.63779 0.7718 0.0
C1067 C 0.89023 0.62539 0.79395 0.0
C1068 C 0.88003 0.62245 0.8171 0.0
C1069 C 0.86445 0.63114 0.81765 0.0
C1070 C 0.90621 0.61473 0.79254 0.0
C1071 C 0.91762 0.61727 0.81422 0.0
C1072 C 0.91015 0.60191 0.7701 0.0
C1073 C 0.89835 0.59758 0.74735 0.0
C1074 C 0.88288 0.58933 0.75335 0.0
C1075 C 0.8718 0.58536 0.7318 0.0
C1076 C 0.87611 0.58941 0.70414 0.0
C1077 C 0.89152 0.59739 0.69796 0.0
C1078 C 0.90264 0.60142 0.71945 0.0
C1079 C 0.96478 0.55129 0.81368 0.0
C1080 C 0.97424 0.5489 0.78956 0.0
C1081 C 0.95322 0.56679 0.8152 0.0
C1082 C 0.95095 0.58032 0.7927 0.0
C1083 C 0.96124 0.57887 0.76943 0.0
C1084 C 0.97284 0.56335 0.76792 0.0
C1085 C 0.9365 0.59401 0.79202 0.0
C1086 C 0.92528 0.59195 0.76998 0.0
C1087 C 0.93274 0.60715 0.81421 0.0
C1088 C 0.94445 0.61077 0.83739 0.0
C1089 C 0.96068 0.61652 0.83179 0.0
C1090 C 0.97168 0.61982 0.85368 0.0
C1091 C 0.96658 0.61752 0.88129 0.0
C1092 C 0.95045 0.61196 0.88707 0.0
C1093 C 0.9394 0.60863 0.86525 0.0
H1094 H 0.97511 0.62009 0.89821 0.0
H1095 H 0.86752 0.58631 0.68748 0.0
H1096 H 0.87033 0.35669 0.21572 0.0
H1097 H 0.8971 0.37336 0.21491 0.0
H1098 H 0.87516 0.42701 0.17893 0.0
H1099 H 0.84837 0.41076 0.18031 0.0
H1100 H 0.90331 0.41605 0.15189 0.0
H1101 H 0.88503 0.42503 0.24705 0.0
H1102 H 0.87569 0.41309 0.29321 0.0
H1103 H 0.91989 0.37885 0.30394 0.0
H1104 H 0.9294 0.39039 0.25764 0.0
H1105 H 0.95196 0.50006 0.17683 0.0
H1106 H 0.93126 0.4736 0.17561 0.0
H1107 H 0.96516 0.43136 0.21338 0.0
H1108 H 0.98614 0.4583 0.21507 0.0
H1109 H 0.93474 0.43005 0.23832 0.0
H1110 H 0.95495 0.42555 0.14627 0.0
H1111 H 0.96445 0.43794 0.10045 0.0
H1112 H 0.91709 0.46326 0.08347 0.0
H1113 H 0.90736 0.4513 0.12937 0.0
C1114 C 0.87115 0.37211 0.2079 0.0
C1115 C 0.85711 0.38234 0.19805 0.0
C1116 C 0.88649 0.38158 0.20734 0.0
C1117 C 0.88813 0.40145 0.19691 0.0
C1118 C 0.87421 0.41162 0.18689 0.0
C1119 C 0.85888 0.40224 0.18758 0.0
C1120 C 0.90426 0.41188 0.19642 0.0
C1121 C 0.91016 0.41917 0.17078 0.0
C1122 C 0.91354 0.41526 0.22095 0.0
C1123 C 0.90783 0.40835 0.24875 0.0
C1124 C 0.89269 0.4148 0.25914 0.0
C1125 C 0.88738 0.40814 0.28535 0.0
C1126 C 0.89716 0.39516 0.30146 0.0
C1127 C 0.9123 0.38887 0.29142 0.0
C1128 C 0.91766 0.39547 0.2652 0.0
C1129 C 0.95506 0.48514 0.1849 0.0
C1130 C 0.97062 0.48129 0.19633 0.0
C1131 C 0.94324 0.46996 0.18395 0.0
C1132 C 0.94667 0.45041 0.19415 0.0
C1133 C 0.96227 0.44633 0.20531 0.0
C1134 C 0.97424 0.46164 0.20615 0.0
C1135 C 0.9335 0.43482 0.19387 0.0
C1136 C 0.92812 0.42655 0.21932 0.0
C1137 C 0.92471 0.43044 0.16913 0.0
C1138 C 0.93045 0.43758 0.14136 0.0
C1139 C 0.94658 0.43387 0.13285 0.0
C1140 C 0.95201 0.4408 0.10684 0.0
C1141 C 0.94138 0.45139 0.08907 0.0
C1142 C 0.92531 0.45504 0.09726 0.0
C1143 C 0.91982 0.44815 0.12325 0.0
H1144 H 0.94561 0.45676 0.06895 0.0
H1145 H 0.89303 0.39003 0.32174 0.0
H1146 H 0.19888 0.40902 0.75775 0.0
H1147 H 0.1726 0.42646 0.75732 0.0
H1148 H 0.15177 0.37864 0.80798 0.0
H1149 H 0.17811 0.36095 0.80827 0.0
H1150 H 0.13034 0.3906 0.76848 0.0
H1151 H 0.163 0.4235 0.83699 0.0
H1152 H 0.18736 0.4405 0.85627 0.0
H1153 H 0.18227 0.48857 0.79576 0.0
H1154 H 0.15802 0.4717 0.77582 0.0
H1155 H 0.06215 0.45733 0.80404 0.0
H1156 H 0.08504 0.433 0.80498 0.0
H1157 H 0.11229 0.47224 0.74954 0.0
H1158 H 0.08963 0.49622 0.74854 0.0
H1159 H 0.12933 0.46264 0.79691 0.0
H1160 H 0.0972 0.42796 0.72711 0.0
H1161 H 0.07257 0.4108 0.70913 0.0
H1162 H 0.07612 0.36608 0.77462 0.0
H1163 H 0.10066 0.38316 0.79323 0.0
C1164 C 0.18874 0.40224 0.76891 0.0
C1165 C 0.19065 0.38371 0.78331 0.0
C1166 C 0.17369 0.41221 0.76862 0.0
C1167 C 0.16025 0.40406 0.78305 0.0
C1168 C 0.16196 0.38526 0.79676 0.0
C1169 C 0.17702 0.37517 0.7969 0.0
C1170 C 0.14461 0.41552 0.78422 0.0
C1171 C 0.13007 0.40626 0.77511 0.0
C1172 C 0.1442 0.43599 0.79278 0.0
C1173 C 0.15877 0.44624 0.80476 0.0
C1174 C 0.16715 0.43762 0.82765 0.0
C1175 C 0.18093 0.44725 0.83872 0.0
C1176 C 0.18638 0.46558 0.82721 0.0
C1177 C 0.17804 0.47435 0.80464 0.0
C1178 C 0.16427 0.46478 0.79346 0.0
C1179 C 0.07291 0.4604 0.79162 0.0
C1180 C 0.07426 0.47864 0.7764 0.0
C1181 C 0.08596 0.44659 0.79219 0.0
C1182 C 0.10043 0.4509 0.77748 0.0
C1183 C 0.10133 0.46866 0.76122 0.0
C1184 C 0.08838 0.48232 0.7606 0.0
C1185 C 0.11519 0.43794 0.78035 0.0
C1186 C 0.12958 0.44693 0.79046 0.0
C1187 C 0.11537 0.41724 0.77295 0.0
C1188 C 0.10064 0.40698 0.76175 0.0
C1189 C 0.09264 0.41458 0.73783 0.0
C1190 C 0.07871 0.40484 0.7275 0.0
C1191 C 0.07275 0.3874 0.74078 0.0
C1192 C 0.08073 0.37962 0.76439 0.0
C1193 C 0.09465 0.38931 0.77483 0.0
H1194 H 0.06197 0.37988 0.73274 0.0
H1195 H 0.19705 0.47301 0.83581 0.0
H1196 H 0.16395 0.6818 0.23576 0.0
H1197 H 0.13965 0.66053 0.23067 0.0
H1198 H 0.1687 0.61436 0.19194 0.0
H1199 H 0.19314 0.63538 0.19736 0.0
H1200 H 0.13998 0.62081 0.164 0.0
H1201 H 0.15718 0.60953 0.25931 0.0
H1202 H 0.16465 0.61983 0.30697 0.0
H1203 H 0.11726 0.64643 0.31732 0.0
H1204 H 0.10958 0.63653 0.26954 0.0
H1205 H 0.09433 0.5317 0.17754 0.0
H1206 H 0.11419 0.55912 0.17991 0.0
H1207 H 0.07857 0.5969 0.22011 0.0
H1208 H 0.05861 0.56885 0.21858 0.0
H1209 H 0.10795 0.59856 0.24646 0.0
H1210 H 0.0897 0.60645 0.15267 0.0
H1211 H 0.08225 0.59562 0.10524 0.0
H1212 H 0.13139 0.57541 0.09181 0.0
H1213 H 0.13909 0.58585 0.13931 0.0
C1214 C 0.16523 0.66704 0.2264 0.0
C1215 C 0.18058 0.66028 0.21714 0.0
C1216 C 0.15129 0.65493 0.22341 0.0
C1217 C 0.15236 0.63577 0.21114 0.0
C1218 C 0.16757 0.62911 0.20142 0.0
C1219 C 0.18153 0.64119 0.20446 0.0
C1220 C 0.13769 0.62254 0.20859 0.0
C1221 C 0.13305 0.61582 0.18205 0.0
C1222 C 0.12829 0.61658 0.23202 0.0
C1223 C 0.13288 0.62251 0.26075 0.0
C1224 C 0.1484 0.61774 0.27166 0.0
C1225 C 0.15267 0.62347 0.29871 0.0
C1226 C 0.14146 0.63384 0.31513 0.0
C1227 C 0.12594 0.63844 0.30456 0.0
C1228 C 0.12162 0.63276 0.2775 0.0
C1229 C 0.09071 0.54582 0.18698 0.0
C1230 C 0.075 0.54804 0.19825 0.0
C1231 C 0.10203 0.5616 0.18803 0.0
C1232 C 0.09786 0.58019 0.19992 0.0
C1233 C 0.08204 0.58269 0.21076 0.0
C1234 C 0.07064 0.56675 0.20975 0.0
C1235 C 0.11042 0.59648 0.2019 0.0
C1236 C 0.1147 0.60379 0.22834 0.0
C1237 C 0.11948 0.60302 0.17835 0.0
C1238 C 0.11495 0.59684 0.14965 0.0
C1239 C 0.0989 0.59958 0.13968 0.0
C1240 C 0.09463 0.59353 0.11276 0.0
C1241 C 0.10634 0.58481 0.09554 0.0
C1242 C 0.12234 0.58217 0.10518 0.0
C1243 C 0.12667 0.58818 0.13208 0.0
H1244 H 0.10301 0.58013 0.07471 0.0
H1245 H 0.14478 0.63826 0.33607 0.0
H1246 H 0.81078 0.82462 0.70439 0.0
H1247 H 0.80687 0.85701 0.68019 0.0
H1248 H 0.75868 0.83814 0.65426 0.0
H1249 H 0.76275 0.80535 0.67754 0.0
H1250 H 0.7748 0.85453 0.61179 0.0
H1251 H 0.76418 0.87348 0.70586 0.0
H1252 H 0.76965 0.87606 0.75629 0.0
H1253 H 0.81317 0.9105 0.73958 0.0
H1254 H 0.80809 0.90788 0.68901 0.0
H1255 H 0.75528 0.9475 0.55104 0.0
H1256 H 0.75326 0.92145 0.58762 0.0
H1257 H 0.8033 0.93293 0.61149 0.0
H1258 H 0.80531 0.95913 0.57515 0.0
H1259 H 0.78395 0.92105 0.65671 0.0
H1260 H 0.79536 0.89994 0.56272 0.0
H1261 H 0.78929 0.89872 0.51238 0.0
H1262 H 0.74409 0.86791 0.5292 0.0
H1263 H 0.74959 0.86961 0.57977 0.0
C1264 C 0.79937 0.8273 0.69342 0.0
C1265 C 0.78709 0.81234 0.69287 0.0
C1266 C 0.79708 0.84594 0.67987 0.0
C1267 C 0.78239 0.85014 0.66569 0.0
C1268 C 0.77008 0.83529 0.66519 0.0
C1269 C 0.77238 0.81661 0.6787 0.0
C1270 C 0.78021 0.86965 0.65036 0.0
C1271 C 0.77649 0.86907 0.62177 0.0
C1272 C 0.78275 0.88865 0.66321 0.0
C1273 C 0.78582 0.89034 0.69362 0.0
C1274 C 0.77498 0.88147 0.71292 0.0
C1275 C 0.778 0.88297 0.74154 0.0
C1276 C 0.79176 0.8934 0.75113 0.0
C1277 C 0.80252 0.90241 0.73212 0.0
C1278 C 0.79956 0.90094 0.70348 0.0
C1279 C 0.76565 0.94492 0.56474 0.0
C1280 C 0.7805 0.95514 0.5601 0.0
C1281 C 0.7645 0.93004 0.58557 0.0
C1282 C 0.77825 0.92496 0.6018 0.0
C1283 C 0.79257 0.93658 0.59912 0.0
C1284 C 0.79369 0.95158 0.57838 0.0
C1285 C 0.77854 0.90583 0.61832 0.0
C1286 C 0.78203 0.90648 0.64695 0.0
C1287 C 0.77581 0.88685 0.60553 0.0
C1288 C 0.7728 0.8851 0.57507 0.0
C1289 C 0.78408 0.89301 0.55571 0.0
C1290 C 0.78074 0.89224 0.52713 0.0
C1291 C 0.76634 0.88322 0.51759 0.0
C1292 C 0.75524 0.87492 0.53663 0.0
C1293 C 0.75844 0.87583 0.56526 0.0
H1294 H 0.76378 0.88266 0.49544 0.0
H1295 H 0.79408 0.89454 0.77329 0.0
H1296 H 0.68192 0.29426 0.16072 0.0
H1297 H 0.656 0.30199 0.13766 0.0
H1298 H 0.66513 0.36594 0.14723 0.0
H1299 H 0.69111 0.35827 0.17097 0.0
H1300 H 0.6329 0.35519 0.15972 0.0
H1301 H 0.67081 0.34581 0.08552 0.0
H1302 H 0.69231 0.32838 0.05919 0.0
H1303 H 0.66054 0.27724 0.04763 0.0
H1304 H 0.63892 0.29424 0.07427 0.0
H1305 H 0.57279 0.38473 0.05618 0.0
H1306 H 0.59599 0.37995 0.08807 0.0
H1307 H 0.59348 0.31534 0.07551 0.0
H1308 H 0.57061 0.32023 0.04307 0.0
H1309 H 0.6229 0.32872 0.06476 0.0
H1310 H 0.58486 0.33822 0.13968 0.0
H1311 H 0.56347 0.35603 0.1658 0.0
H1312 H 0.59528 0.40735 0.17554 0.0
H1313 H 0.6168 0.38994 0.14914 0.0
C1314 C 0.67838 0.30998 0.1582 0.0
C1315 C 0.68859 0.32566 0.16774 0.0
C1316 C 0.66359 0.31438 0.14482 0.0
C1317 C 0.65868 0.33454 0.14053 0.0
C1318 C 0.6687 0.35027 0.15031 0.0
C1319 C 0.68359 0.34588 0.16364 0.0
C1320 C 0.6432 0.33898 0.12531 0.0
C1321 C 0.63075 0.34965 0.13881 0.0
C1322 C 0.64033 0.3315 0.0982 0.0
C1323 C 0.6533 0.32123 0.08212 0.0
C1324 C 0.66846 0.33077 0.07757 0.0
C1325 C 0.68066 0.32098 0.06255 0.0
C1326 C 0.67781 0.30169 0.0518 0.0
C1327 C 0.66273 0.29217 0.056 0.0
C1328 C 0.6505 0.30189 0.07103 0.0
C1329 C 0.57681 0.36947 0.06116 0.0
C1330 C 0.56986 0.35282 0.04743 0.0
C1331 C 0.59012 0.36674 0.07928 0.0
C1332 C 0.59655 0.34727 0.08421 0.0
C1333 C 0.58881 0.33051 0.07197 0.0
C1334 C 0.57565 0.33326 0.05367 0.0
C1335 C 0.61232 0.34445 0.0994 0.0
C1336 C 0.62494 0.33422 0.08573 0.0
C1337 C 0.6153 0.35238 0.12628 0.0
C1338 C 0.60239 0.36285 0.14219 0.0
C1339 C 0.58725 0.35337 0.14719 0.0
C1340 C 0.57511 0.36338 0.16209 0.0
C1341 C 0.578 0.38283 0.17226 0.0
C1342 C 0.59306 0.39229 0.16762 0.0
C1343 C 0.60523 0.38235 0.15272 0.0
H1344 H 0.56859 0.39055 0.18379 0.0
H1345 H 0.68727 0.29414 0.04017 0.0
H1346 H 0.24878 0.22206 0.64251 0.0
H1347 H 0.25206 0.18981 0.61869 0.0
H1348 H 0.26638 0.16115 0.6963 0.0
H1349 H 0.26323 0.19349 0.72026 0.0
H1350 H 0.28573 0.14926 0.65555 0.0
H1351 H 0.22796 0.15377 0.66845 0.0
H1352 H 0.20086 0.16999 0.66606 0.0
H1353 H 0.20395 0.17324 0.57679 0.0
H1354 H 0.23118 0.1573 0.57865 0.0
H1355 H 0.25318 0.05654 0.56791 0.0
H1356 H 0.24986 0.0819 0.60479 0.0
H1357 H 0.28895 0.11745 0.56889 0.0
H1358 H 0.29217 0.09228 0.53227 0.0
H1359 H 0.24132 0.1216 0.59618 0.0
H1360 H 0.30901 0.1424 0.62018 0.0
H1361 H 0.33571 0.12531 0.62406 0.0
H1362 H 0.31171 0.06898 0.64342 0.0
H1363 H 0.28488 0.08578 0.64007 0.0
C1364 C 0.2525 0.20886 0.65456 0.0
C1365 C 0.25565 0.2103 0.68332 0.0
C1366 C 0.25436 0.19042 0.64092 0.0
C1367 C 0.25921 0.17295 0.65578 0.0
C1368 C 0.26259 0.1744 0.68442 0.0
C1369 C 0.26082 0.1929 0.69806 0.0
C1370 C 0.26093 0.15329 0.64127 0.0
C1371 C 0.27599 0.14315 0.6427 0.0
C1372 C 0.24811 0.14506 0.62494 0.0
C1373 C 0.23166 0.15444 0.62372 0.0
C1374 C 0.2229 0.15804 0.64832 0.0
C1375 C 0.20751 0.16718 0.64706 0.0
C1376 C 0.2007 0.17267 0.6213 0.0
C1377 C 0.20924 0.16898 0.59673 0.0
C1378 C 0.22464 0.15987 0.59788 0.0
C1379 C 0.26127 0.06955 0.56848 0.0
C1380 C 0.27304 0.07247 0.54766 0.0
C1381 C 0.25932 0.08404 0.58933 0.0
C1382 C 0.26925 0.10147 0.5897 0.0
C1383 C 0.28135 0.10398 0.56931 0.0
C1384 C 0.28319 0.08963 0.54844 0.0
C1385 C 0.26625 0.11794 0.60985 0.0
C1386 C 0.25098 0.12754 0.60937 0.0
C1387 C 0.2788 0.12553 0.62727 0.0
C1388 C 0.29492 0.11535 0.62967 0.0
C1389 C 0.30943 0.12639 0.62541 0.0
C1390 C 0.32459 0.11674 0.62749 0.0
C1391 C 0.32541 0.09606 0.63391 0.0
C1392 C 0.31106 0.08498 0.63835 0.0
C1393 C 0.29587 0.09456 0.63632 0.0
H1394 H 0.33715 0.08862 0.63549 0.0
H1395 H 0.18879 0.17975 0.62037 0.0
H1396 H 0.34468 0.6879 0.1117 0.0
H1397 H 0.3727 0.68517 0.09484 0.0
H1398 H 0.38879 0.66653 0.17699 0.0
H1399 H 0.36075 0.66965 0.1941 0.0
H1400 H 0.41021 0.69169 0.15589 0.0
H1401 H 0.38366 0.63198 0.12309 0.0
H1402 H 0.36234 0.61192 0.09948 0.0
H1403 H 0.37304 0.64215 0.02193 0.0
H1404 H 0.39428 0.6626 0.04516 0.0
H1405 H 0.47276 0.64149 0.05031 0.0
H1406 H 0.44989 0.63987 0.08299 0.0
H1407 H 0.45005 0.70518 0.08779 0.0
H1408 H 0.47332 0.70665 0.05607 0.0
H1409 H 0.42156 0.65252 0.07057 0.0
H1410 H 0.42944 0.7219 0.14346 0.0
H1411 H 0.45143 0.73929 0.16923 0.0
H1412 H 0.4796 0.68447 0.1712 0.0
H1413 H 0.4577 0.66666 0.14578 0.0
C1414 C 0.35417 0.68309 0.12613 0.0
C1415 C 0.35047 0.67884 0.15418 0.0
C1416 C 0.3702 0.68153 0.11648 0.0
C1417 C 0.38287 0.6753 0.13451 0.0
C1418 C 0.37925 0.67134 0.16265 0.0
C1419 C 0.36322 0.67312 0.1724 0.0
C1420 C 0.39983 0.6729 0.12389 0.0
C1421 C 0.41273 0.68306 0.1373 0.0
C1422 C 0.40324 0.66123 0.10001 0.0
C1423 C 0.39048 0.64893 0.08594 0.0
C1424 C 0.38139 0.63445 0.10105 0.0
C1425 C 0.36933 0.62299 0.08773 0.0
C1426 C 0.36632 0.62579 0.05924 0.0
C1427 C 0.37538 0.64002 0.044 0.0
C1428 C 0.38744 0.65153 0.05723 0.0
C1429 C 0.46836 0.65539 0.05942 0.0
C1430 C 0.47487 0.67417 0.05097 0.0
C1431 C 0.45518 0.6545 0.07784 0.0
C1432 C 0.44811 0.67239 0.08785 0.0
C1433 C 0.45538 0.69111 0.08086 0.0
C1434 C 0.46874 0.69197 0.06277 0.0
C1435 C 0.43199 0.67165 0.10221 0.0
C1436 C 0.41917 0.66097 0.08938 0.0
C1437 C 0.42878 0.68246 0.12693 0.0
C1438 C 0.44196 0.69299 0.14251 0.0
C1439 C 0.44028 0.71352 0.14951 0.0
C1440 C 0.45275 0.72346 0.16403 0.0
C1441 C 0.46692 0.71301 0.17178 0.0
C1442 C 0.46864 0.69257 0.1651 0.0
C1443 C 0.45621 0.68255 0.15059 0.0
H1444 H 0.47655 0.72074 0.18301 0.0
H1445 H 0.35697 0.6169 0.04897 0.0
H1446 H 0.81005 0.22042 0.34412 0.0
H1447 H 0.80842 0.18824 0.36944 0.0
H1448 H 0.77622 0.1645 0.3062 0.0
H1449 H 0.77788 0.19681 0.28049 0.0
H1450 H 0.7657 0.15462 0.35846 0.0
H1451 H 0.8153 0.14918 0.30808 0.0
H1452 H 0.84211 0.16015 0.29012 0.0
H1453 H 0.86093 0.16319 0.37369 0.0
H1454 H 0.83415 0.15254 0.39221 0.0
H1455 H 0.77555 0.05817 0.43102 0.0
H1456 H 0.7761 0.08294 0.39208 0.0
H1457 H 0.80558 0.12313 0.44191 0.0
H1458 H 0.80495 0.09871 0.48049 0.0
H1459 H 0.81679 0.11976 0.38761 0.0
H1460 H 0.7658 0.13066 0.43715 0.0
H1461 H 0.73888 0.12011 0.45519 0.0
H1462 H 0.72284 0.10635 0.37214 0.0
H1463 H 0.74977 0.11656 0.35366 0.0
C1464 C 0.80274 0.20832 0.3354 0.0
C1465 C 0.79424 0.21113 0.31011 0.0
C1466 C 0.8018 0.18992 0.34994 0.0
C1467 C 0.79243 0.17383 0.33946 0.0
C1468 C 0.78358 0.17669 0.31458 0.0
C1469 C 0.78451 0.19517 0.29998 0.0
C1470 C 0.79194 0.15418 0.35484 0.0
C1471 C 0.77684 0.14672 0.3643 0.0
C1472 C 0.80647 0.1439 0.36257 0.0
C1473 C 0.82267 0.15016 0.35154 0.0
C1474 C 0.82512 0.15231 0.32265 0.0
C1475 C 0.84032 0.15846 0.31236 0.0
C1476 C 0.85321 0.16239 0.33075 0.0
C1477 C 0.85093 0.16014 0.35947 0.0
C1478 C 0.83575 0.15402 0.36987 0.0
C1479 C 0.78223 0.07225 0.43339 0.0
C1480 C 0.79009 0.07669 0.45871 0.0
C1481 C 0.7825 0.08636 0.41128 0.0
C1482 C 0.79082 0.1049 0.41421 0.0
C1483 C 0.7991 0.10894 0.4392 0.0
C1484 C 0.79866 0.09504 0.46125 0.0
C1485 C 0.79064 0.12067 0.39195 0.0
C1486 C 0.80563 0.12738 0.38118 0.0
C1487 C 0.77602 0.13019 0.38297 0.0
C1488 C 0.75985 0.1241 0.39408 0.0
C1489 C 0.75658 0.1252 0.42277 0.0
C1490 C 0.74132 0.11932 0.43307 0.0
C1491 C 0.72918 0.11249 0.41483 0.0
C1492 C 0.73227 0.11159 0.38625 0.0
C1493 C 0.74753 0.11742 0.37585 0.0
H1494 H 0.71736 0.10796 0.42284 0.0
H1495 H 0.86496 0.16715 0.32274 0.0
H1496 H 0.34747 0.34892 0.85186 0.0
H1497 H 0.37356 0.35859 0.87296 0.0
H1498 H 0.39913 0.32114 0.81445 0.0
H1499 H 0.3731 0.31154 0.79306 0.0
H1500 H 0.40979 0.31422 0.86657 0.0
H1501 H 0.40094 0.3727 0.80901 0.0
H1502 H 0.38556 0.40165 0.78934 0.0
H1503 H 0.38197 0.42764 0.87073 0.0
H1504 H 0.39713 0.3987 0.89098 0.0
H1505 H 0.48544 0.34629 0.92665 0.0
H1506 H 0.46464 0.34188 0.88985 0.0
H1507 H 0.43038 0.37655 0.93792 0.0
H1508 H 0.45102 0.38122 0.97406 0.0
H1509 H 0.42686 0.38521 0.88375 0.0
H1510 H 0.43189 0.32517 0.94178 0.0
H1511 H 0.44649 0.29607 0.96287 0.0
H1512 H 0.45652 0.27299 0.88139 0.0
H1513 H 0.44218 0.30214 0.85985 0.0
C1514 C 0.35865 0.343 0.84315 0.0
C1515 C 0.35815 0.32939 0.8208 0.0
C1516 C 0.37358 0.34854 0.85526 0.0
C1517 C 0.38835 0.34071 0.84516 0.0
C1518 C 0.38791 0.32734 0.82263 0.0
C1519 C 0.37299 0.32181 0.81051 0.0
C1520 C 0.40414 0.3457 0.85905 0.0
C1521 C 0.41371 0.32975 0.86977 0.0
C1522 C 0.40914 0.36595 0.86365 0.0
C1523 C 0.40008 0.38344 0.85154 0.0
C1524 C 0.39677 0.38451 0.82275 0.0
C1525 C 0.38811 0.40093 0.81149 0.0
C1526 C 0.38277 0.41645 0.82878 0.0
C1527 C 0.38611 0.4156 0.85736 0.0
C1528 C 0.39475 0.3992 0.86874 0.0
C1529 C 0.47357 0.3533 0.92892 0.0
C1530 C 0.46974 0.36386 0.95327 0.0
C1531 C 0.46168 0.3507 0.90804 0.0
C1532 C 0.44586 0.35866 0.9113 0.0
C1533 C 0.44245 0.37025 0.93487 0.0
C1534 C 0.45423 0.3728 0.95561 0.0
C1535 C 0.43231 0.35374 0.89169 0.0
C1536 C 0.42312 0.36969 0.87997 0.0
C1537 C 0.42758 0.33349 0.88632 0.0
C1538 C 0.43614 0.31594 0.89923 0.0
C1539 C 0.43731 0.31395 0.92839 0.0
C1540 C 0.44552 0.29745 0.94042 0.0
C1541 C 0.45246 0.28272 0.92348 0.0
C1542 C 0.45117 0.28444 0.89448 0.0
C1543 C 0.44301 0.30095 0.88236 0.0
H1544 H 0.45881 0.26995 0.93282 0.0
H1545 H 0.37606 0.42915 0.82002 0.0
H1546 H 0.29647 0.83688 0.2743 0.0
H1547 H 0.29415 0.86789 0.3013 0.0
H1548 H 0.25139 0.84385 0.34227 0.0
H1549 H 0.25378 0.81255 0.31566 0.0
H1550 H 0.24842 0.88509 0.32813 0.0
H1551 H 0.28671 0.84065 0.3747 0.0
H1552 H 0.31107 0.8188 0.37796 0.0
H1553 H 0.34167 0.86918 0.35498 0.0
H1554 H 0.31745 0.89128 0.35119 0.0
H1555 H 0.24822 0.93986 0.45487 0.0
H1556 H 0.24733 0.91665 0.41567 0.0
H1557 H 0.29331 0.94055 0.38616 0.0
H1558 H 0.2946 0.96321 0.42608 0.0
H1559 H 0.29493 0.9012 0.39089 0.0
H1560 H 0.2567 0.94674 0.34886 0.0
H1561 H 0.23226 0.96846 0.34597 0.0
H1562 H 0.20148 0.91666 0.36052 0.0
H1563 H 0.22574 0.89465 0.3639 0.0
C1564 C 0.28658 0.83813 0.28909 0.0
C1565 C 0.27544 0.82209 0.29306 0.0
C1566 C 0.28522 0.85593 0.30437 0.0
C1567 C 0.2727 0.85808 0.32398 0.0
C1568 C 0.26113 0.8425 0.32718 0.0
C1569 C 0.2625 0.82463 0.31193 0.0
C1570 C 0.27232 0.87601 0.34236 0.0
C1571 C 0.25851 0.88859 0.34204 0.0
C1572 C 0.28567 0.88079 0.35998 0.0
C1573 C 0.30025 0.86755 0.36235 0.0
C1574 C 0.29862 0.84703 0.37011 0.0
C1575 C 0.3124 0.8346 0.37209 0.0
C1576 C 0.3279 0.84258 0.3666 0.0
C1577 C 0.32966 0.86301 0.35918 0.0
C1578 C 0.3159 0.87549 0.35712 0.0
C1579 C 0.25801 0.94041 0.43976 0.0
C1580 C 0.27156 0.95325 0.44377 0.0
C1581 C 0.25741 0.92725 0.41718 0.0
C1582 C 0.27024 0.92683 0.39787 0.0
C1583 C 0.28327 0.94058 0.4008 0.0
C1584 C 0.28392 0.95369 0.4235 0.0
C1585 C 0.271 0.91049 0.37679 0.0
C1586 C 0.28489 0.89803 0.37673 0.0
C1587 C 0.25771 0.90588 0.35888 0.0
C1588 C 0.24307 0.91906 0.35685 0.0
C1589 C 0.24473 0.94 0.35167 0.0
C1590 C 0.2309 0.95236 0.3499 0.0
C1591 C 0.21533 0.94395 0.35312 0.0
C1592 C 0.21355 0.92315 0.35805 0.0
C1593 C 0.22734 0.91072 0.35986 0.0
H1594 H 0.20464 0.95355 0.35173 0.0
H1595 H 0.33856 0.83294 0.36816 0.0
H1596 H 0.67524 0.6782 0.7917 0.0
H1597 H 0.6496 0.67078 0.81598 0.0
H1598 H 0.67274 0.68471 0.8945 0.0
H1599 H 0.69831 0.69204 0.87046 0.0
H1600 H 0.6544 0.65187 0.89974 0.0
H1601 H 0.64749 0.71886 0.85858 0.0
H1602 H 0.64636 0.74351 0.81957 0.0
H1603 H 0.60764 0.70941 0.78143 0.0
H1604 H 0.6087 0.68441 0.82008 0.0
H1605 H 0.59631 0.68647 0.99228 0.0
H1606 H 0.61768 0.68281 0.958 0.0
H1607 H 0.58262 0.65999 0.8987 0.0
H1608 H 0.56085 0.66286 0.9338 0.0
H1609 H 0.60414 0.69082 0.87727 0.0
H1610 H 0.60839 0.62699 0.92375 0.0
H1611 H 0.61034 0.60227 0.96257 0.0
H1612 H 0.65432 0.63096 0.99146 0.0
H1613 H 0.65254 0.65602 0.95303 0.0
C1614 C 0.67484 0.67967 0.81415 0.0
C1615 C 0.68883 0.68573 0.82914 0.0
C1616 C 0.66017 0.67543 0.82799 0.0
C1617 C 0.65916 0.67739 0.85706 0.0
C1618 C 0.67321 0.68301 0.87208 0.0
C1619 C 0.68786 0.68713 0.8583 0.0
C1620 C 0.64351 0.674 0.87213 0.0
C1621 C 0.64344 0.66044 0.89487 0.0
C1622 C 0.62897 0.6846 0.86517 0.0
C1623 C 0.62831 0.69965 0.84202 0.0
C1624 C 0.63883 0.71654 0.84176 0.0
C1625 C 0.63818 0.73058 0.81974 0.0
C1626 C 0.62697 0.72799 0.79799 0.0
C1627 C 0.61634 0.71138 0.79826 0.0
C1628 C 0.61696 0.69727 0.82022 0.0
C1629 C 0.59306 0.68015 0.97226 0.0
C1630 C 0.57685 0.67439 0.96616 0.0
C1631 C 0.60536 0.67822 0.95256 0.0
C1632 C 0.60183 0.67076 0.92599 0.0
C1633 C 0.58562 0.66558 0.91925 0.0
C1634 C 0.5732 0.66729 0.93925 0.0
C1635 C 0.61529 0.66926 0.90547 0.0
C1636 C 0.61499 0.6819 0.88175 0.0
C1637 C 0.62955 0.65792 0.91162 0.0
C1638 C 0.63031 0.6434 0.93548 0.0
C1639 C 0.61839 0.62816 0.93853 0.0
C1640 C 0.6195 0.61404 0.96041 0.0
C1641 C 0.63252 0.61496 0.97932 0.0
C1642 C 0.64431 0.63019 0.97667 0.0
C1643 C 0.64326 0.64434 0.95482 0.0
H1644 H 0.63346 0.60388 0.99606 0.0
H1645 H 0.62649 0.73888 0.78096 0.0
loop_
_geom_bond_atom_site_label_1
_geom_bond_atom_site_label_2
_geom_bond_distance
_geom_bond_site_symmetry_2
_ccdc_geom_bond_type
C0 C1 1.264 . S
C0 C5 1.479 . S
C0 C10 1.465 . S
C1 C0 1.264 . S
C1 C3 1.339 . S
C1 H28 0.931 . S
C2 C3 1.395 . S
C2 C4 1.320 . S
C3 C1 1.339 . S
C3 C2 1.395 . S
C3 H29 0.929 . S
C4 C2 1.320 . S
C4 C5 1.405 . S
C4 H30 0.930 . S
C5 C0 1.479 . S
C5 C4 1.405 . S
C5 H31 0.931 . S
U6 O7 2.454 . S
U6 O8 2.458 . S
U6 C9 2.984 . S
U6 C10 2.847 . S
U6 C23 2.882 . S
U6 O24 2.441 . S
U6 O25 2.420 . S
U6 O26 2.455 . S
U6 O27 2.449 . S
O7 U6 2.454 . S
O7 C9 1.353 . S
O8 U6 2.458 . S
O8 C9 1.286 . S
C9 U6 2.984 . S
C9 O7 1.353 . S
C9 O8 1.286 . S
C9 C11 1.363 . S
C10 C0 1.465 . S
C10 U6 2.847 . S
C10 O24 1.249 . S
C10 O25 1.202 . S
C11 C9 1.363 . S
C11 C13 1.408 . S
C11 C16 1.342 . S
C12 C13 1.310 . S
C12 C15 1.461 . S
C12 H32 0.932 . S
C13 C11 1.408 . S
C13 C12 1.310 . S
C13 H33 0.930 . S
C14 C15 1.474 . S
C14 C16 1.285 . S
C14 H34 0.929 . S
C15 C12 1.461 . S
C15 C14 1.474 . S
C16 C11 1.342 . S
C16 C14 1.285 . S
C16 H35 0.930 . S
C17 C20 1.424 . S
C17 C22 1.245 . S
C17 C23 1.428 . S
C18 C21 1.260 . S
C18 C22 1.477 . S
C18 H36 0.932 . S
C19 C20 1.384 . S
C19 C21 1.479 . S
C19 H37 0.929 . S
C20 C17 1.424 . S
C20 C19 1.384 . S
C20 H38 0.928 . S
C21 C18 1.260 . S
C21 C19 1.479 . S
C22 C17 1.245 . S
C22 C18 1.477 . S
C22 H39 0.932 . S
C23 U6 2.882 . S
C23 C17 1.428 . S
C23 O26 1.301 . S
C23 O27 1.282 . S
O24 U6 2.441 . S
O24 C10 1.249 . S
O25 U6 2.420 . S
O25 C10 1.202 . S
O26 U6 2.455 . S
O26 C23 1.301 . S
O27 U6 2.449 . S
O27 C23 1.282 . S
H28 C1 0.931 . S
H29 C3 0.929 . S
H30 C4 0.930 . S
H31 C5 0.931 . S
H32 C12 0.932 . S
H33 C13 0.930 . S
H34 C14 0.929 . S
H35 C16 0.930 . S
H36 C18 0.932 . S
H37 C19 0.929 . S
H38 C20 0.928 . S
H39 C22 0.932 . S
C40 C41 1.264 . S
C40 C45 1.479 . S
C40 C50 1.465 . S
C41 C40 1.264 . S
C41 C43 1.339 . S
C41 H68 0.931 . S
C42 C43 1.395 . S
C42 C44 1.320 . S
C43 C41 1.339 . S
C43 C42 1.395 . S
C43 H69 0.929 . S
C44 C42 1.320 . S
C44 C45 1.405 . S
C44 H70 0.930 . S
C45 C40 1.479 . S
C45 C44 1.405 . S
C45 H71 0.931 . S
U46 O47 2.454 . S
U46 O48 2.458 . S
U46 C49 2.984 . S
U46 C50 2.847 . S
U46 C63 2.882 . S
U46 O64 2.441 . S
U46 O65 2.420 . S
U46 O66 2.455 . S
U46 O67 2.449 . S
O47 U46 2.454 . S
O47 C49 1.353 . S
O48 U46 2.458 . S
O48 C49 1.286 . S
C49 U46 2.984 . S
C49 O47 1.353 . S
C49 O48 1.286 . S
C49 C51 1.363 . S
C50 C40 1.465 . S
C50 U46 2.847 . S
C50 O64 1.249 . S
C50 O65 1.202 . S
C51 C49 1.363 . S
C51 C53 1.408 . S
C51 C56 1.342 . S
C52 C53 1.310 . S
C52 C55 1.461 . S
C52 H72 0.932 . S
C53 C51 1.408 . S
C53 C52 1.310 . S
C53 H73 0.930 . S
C54 C55 1.474 . S
C54 C56 1.285 . S
C54 H74 0.929 . S
C55 C52 1.461 . S
C55 C54 1.474 . S
C56 C51 1.342 . S
C56 C54 1.285 . S
C56 H75 0.930 . S
C57 C60 1.424 . S
C57 C62 1.245 . S
C57 C63 1.428 . S
C58 C61 1.260 . S
C58 C62 1.477 . S
C58 H76 0.932 . S
C59 C60 1.384 . S
C59 C61 1.479 . S
C59 H77 0.929 . S
C60 C57 1.424 . S
C60 C59 1.384 . S
C60 H78 0.928 . S
C61 C58 1.260 . S
C61 C59 1.479 . S
C62 C57 1.245 . S
C62 C58 1.477 . S
C62 H79 0.932 . S
C63 U46 2.882 . S
C63 C57 1.428 . S
C63 O66 1.301 . S
C63 O67 1.282 . S
O64 U46 2.441 . S
O64 C50 1.249 . S
O65 U46 2.420 . S
O65 C50 1.202 . S
O66 U46 2.455 . S
O66 C63 1.301 . S
O67 U46 2.449 . S
O67 C63 1.282 . S
H68 C41 0.931 . S
H69 C43 0.929 . S
H70 C44 0.930 . S
H71 C45 0.931 . S
H72 C52 0.932 . S
H73 C53 0.930 . S
H74 C54 0.929 . S
H75 C56 0.930 . S
H76 C58 0.932 . S
H77 C59 0.929 . S
H78 C60 0.928 . S
H79 C62 0.932 . S
C80 C81 1.264 . S
C80 C85 1.479 . S
C80 C90 1.465 . S
C81 C80 1.264 . S
C81 C83 1.339 . S
C81 H108 0.931 . S
C82 C83 1.395 . S
C82 C84 1.320 . S
C83 C81 1.339 . S
C83 C82 1.395 . S
C83 H109 0.929 . S
C84 C82 1.320 . S
C84 C85 1.405 . S
C84 H110 0.930 . S
C85 C80 1.479 . S
C85 C84 1.405 . S
C85 H111 0.931 . S
U86 O87 2.454 . S
U86 O88 2.458 . S
U86 C89 2.984 . S
U86 C90 2.847 . S
U86 C103 2.882 . S
U86 O104 2.441 . S
U86 O105 2.420 . S
U86 O106 2.455 . S
U86 O107 2.449 . S
O87 U86 2.454 . S
O87 C89 1.353 . S
O88 U86 2.458 . S
O88 C89 1.286 . S
C89 U86 2.984 . S
C89 O87 1.353 . S
C89 O88 1.286 . S
C89 C91 1.363 . S
C90 C80 1.465 . S
C90 U86 2.847 . S
C90 O104 1.249 . S
C90 O105 1.202 . S
C91 C89 1.363 . S
C91 C93 1.408 . S
C91 C96 1.342 . S
C92 C93 1.310 . S
C92 C95 1.461 . S
C92 H112 0.932 . S
C93 C91 1.408 . S
C93 C92 1.310 . S
C93 H113 0.930 . S
C94 C95 1.474 . S
C94 C96 1.285 . S
C94 H114 0.929 . S
C95 C92 1.461 . S
C95 C94 1.474 . S
C96 C91 1.342 . S
C96 C94 1.285 . S
C96 H115 0.930 . S
C97 C100 1.424 . S
C97 C102 1.245 . S
C97 C103 1.428 . S
C98 C101 1.260 . S
C98 C102 1.477 . S
C98 H116 0.932 . S
C99 C100 1.384 . S
C99 C101 1.479 . S
C99 H117 0.929 . S
C100 C97 1.424 . S
C100 C99 1.384 . S
C100 H118 0.928 . S
C101 C98 1.260 . S
C101 C99 1.479 . S
C102 C97 1.245 . S
C102 C98 1.477 . S
C102 H119 0.932 . S
C103 U86 2.882 . S
C103 C97 1.428 . S
C103 O106 1.301 . S
C103 O107 1.282 . S
O104 U86 2.441 . S
O104 C90 1.249 . S
O105 U86 2.420 . S
O105 C90 1.202 . S
O106 U86 2.455 . S
O106 C103 1.301 . S
O107 U86 2.449 . S
O107 C103 1.282 . S
H108 C81 0.931 . S
H109 C83 0.929 . S
H110 C84 0.930 . S
H111 C85 0.931 . S
H112 C92 0.932 . S
H113 C93 0.930 . S
H114 C94 0.929 . S
H115 C96 0.930 . S
H116 C98 0.932 . S
H117 C99 0.929 . S
H118 C100 0.928 . S
H119 C102 0.932 . S
C120 C121 1.264 . S
C120 C125 1.479 . S
C120 C130 1.465 . S
C121 C120 1.264 . S
C121 C123 1.339 . S
C121 H148 0.931 . S
C122 C123 1.395 . S
C122 C124 1.320 . S
C123 C121 1.339 . S
C123 C122 1.395 . S
C123 H149 0.929 . S
C124 C122 1.320 . S
C124 C125 1.405 . S
C124 H150 0.930 . S
C125 C120 1.479 . S
C125 C124 1.405 . S
C125 H151 0.931 . S
U126 O127 2.454 . S
U126 O128 2.458 . S
U126 C129 2.984 . S
U126 C130 2.847 . S
U126 C143 2.882 . S
U126 O144 2.441 . S
U126 O145 2.420 . S
U126 O146 2.455 . S
U126 O147 2.449 . S
O127 U126 2.454 . S
O127 C129 1.353 . S
O128 U126 2.458 . S
O128 C129 1.286 . S
C129 U126 2.984 . S
C129 O127 1.353 . S
C129 O128 1.286 . S
C129 C131 1.363 . S
C130 C120 1.465 . S
C130 U126 2.847 . S
C130 O144 1.249 . S
C130 O145 1.202 . S
C131 C129 1.363 . S
C131 C133 1.408 . S
C131 C136 1.342 . S
C132 C133 1.310 . S
C132 C135 1.461 . S
C132 H152 0.932 . S
C133 C131 1.408 . S
C133 C132 1.310 . S
C133 H153 0.930 . S
C134 C135 1.474 . S
C134 C136 1.285 . S
C134 H154 0.929 . S
C135 C132 1.461 . S
C135 C134 1.474 . S
C136 C131 1.342 . S
C136 C134 1.285 . S
C136 H155 0.930 . S
C137 C140 1.424 . S
C137 C142 1.245 . S
C137 C143 1.428 . S
C138 C141 1.260 . S
C138 C142 1.477 . S
C138 H156 0.932 . S
C139 C140 1.384 . S
C139 C141 1.479 . S
C139 H157 0.929 . S
C140 C137 1.424 . S
C140 C139 1.384 . S
C140 H158 0.928 . S
C141 C138 1.260 . S
C141 C139 1.479 . S
C142 C137 1.245 . S
C142 C138 1.477 . S
C142 H159 0.932 . S
C143 U126 2.882 . S
C143 C137 1.428 . S
C143 O146 1.301 . S
C143 O147 1.282 . S
O144 U126 2.441 . S
O144 C130 1.249 . S
O145 U126 2.420 . S
O145 C130 1.202 . S
O146 U126 2.455 . S
O146 C143 1.301 . S
O147 U126 2.449 . S
O147 C143 1.282 . S
H148 C121 0.931 . S
H149 C123 0.929 . S
H150 C124 0.930 . S
H151 C125 0.931 . S
H152 C132 0.932 . S
H153 C133 0.930 . S
H154 C134 0.929 . S
H155 C136 0.930 . S
H156 C138 0.932 . S
H157 C139 0.929 . S
H158 C140 0.928 . S
H159 C142 0.932 . S
C160 C161 1.264 . S
C160 C165 1.479 . S
C160 C170 1.465 . S
C161 C160 1.264 . S
C161 C163 1.339 . S
C161 H188 0.931 . S
C162 C163 1.395 . S
C162 C164 1.320 . S
C163 C161 1.339 . S
C163 C162 1.395 . S
C163 H189 0.929 . S
C164 C162 1.320 . S
C164 C165 1.405 . S
C164 H190 0.930 . S
C165 C160 1.479 . S
C165 C164 1.405 . S
C165 H191 0.931 . S
U166 O167 2.454 . S
U166 O168 2.458 . S
U166 C169 2.984 . S
U166 C170 2.847 . S
U166 C183 2.882 . S
U166 O184 2.441 . S
U166 O185 2.420 . S
U166 O186 2.455 . S
U166 O187 2.449 . S
O167 U166 2.454 . S
O167 C169 1.353 . S
O168 U166 2.458 . S
O168 C169 1.286 . S
C169 U166 2.984 . S
C169 O167 1.353 . S
C169 O168 1.286 . S
C169 C171 1.363 . S
C170 C160 1.465 . S
C170 U166 2.847 . S
C170 O184 1.249 . S
C170 O185 1.202 . S
C171 C169 1.363 . S
C171 C173 1.408 . S
C171 C176 1.342 . S
C172 C173 1.310 . S
C172 C175 1.461 . S
C172 H192 0.932 . S
C173 C171 1.408 . S
C173 C172 1.310 . S
C173 H193 0.930 . S
C174 C175 1.474 . S
C174 C176 1.285 . S
C174 H194 0.929 . S
C175 C172 1.461 . S
C175 C174 1.474 . S
C176 C171 1.342 . S
C176 C174 1.285 . S
C176 H195 0.930 . S
C177 C180 1.424 . S
C177 C182 1.245 . S
C177 C183 1.428 . S
C178 C181 1.260 . S
C178 C182 1.477 . S
C178 H196 0.932 . S
C179 C180 1.384 . S
C179 C181 1.479 . S
C179 H197 0.929 . S
C180 C177 1.424 . S
C180 C179 1.384 . S
C180 H198 0.928 . S
C181 C178 1.260 . S
C181 C179 1.479 . S
C182 C177 1.245 . S
C182 C178 1.477 . S
C182 H199 0.932 . S
C183 U166 2.882 . S
C183 C177 1.428 . S
C183 O186 1.301 . S
C183 O187 1.282 . S
O184 U166 2.441 . S
O184 C170 1.249 . S
O185 U166 2.420 . S
O185 C170 1.202 . S
O186 U166 2.455 . S
O186 C183 1.301 . S
O187 U166 2.449 . S
O187 C183 1.282 . S
H188 C161 0.931 . S
H189 C163 0.929 . S
H190 C164 0.930 . S
H191 C165 0.931 . S
H192 C172 0.932 . S
H193 C173 0.930 . S
H194 C174 0.929 . S
H195 C176 0.930 . S
H196 C178 0.932 . S
H197 C179 0.929 . S
H198 C180 0.928 . S
H199 C182 0.932 . S
C200 C201 1.264 . S
C200 C205 1.479 . S
C200 C210 1.465 . S
C201 C200 1.264 . S
C201 C203 1.339 . S
C201 H228 0.931 . S
C202 C203 1.395 . S
C202 C204 1.320 . S
C203 C201 1.339 . S
C203 C202 1.395 . S
C203 H229 0.929 . S
C204 C202 1.320 . S
C204 C205 1.405 . S
C204 H230 0.930 . S
C205 C200 1.479 . S
C205 C204 1.405 . S
C205 H231 0.931 . S
U206 O207 2.454 . S
U206 O208 2.458 . S
U206 C209 2.984 . S
U206 C210 2.847 . S
U206 C223 2.882 . S
U206 O224 2.441 . S
U206 O225 2.420 . S
U206 O226 2.455 . S
U206 O227 2.449 . S
O207 U206 2.454 . S
O207 C209 1.353 . S
O208 U206 2.458 . S
O208 C209 1.286 . S
C209 U206 2.984 . S
C209 O207 1.353 . S
C209 O208 1.286 . S
C209 C211 1.363 . S
C210 C200 1.465 . S
C210 U206 2.847 . S
C210 O224 1.249 . S
C210 O225 1.202 . S
C211 C209 1.363 . S
C211 C213 1.408 . S
C211 C216 1.342 . S
C212 C213 1.310 . S
C212 C215 1.461 . S
C212 H232 0.932 . S
C213 C211 1.408 . S
C213 C212 1.310 . S
C213 H233 0.930 . S
C214 C215 1.474 . S
C214 C216 1.285 . S
C214 H234 0.929 . S
C215 C212 1.461 . S
C215 C214 1.474 . S
C216 C211 1.342 . S
C216 C214 1.285 . S
C216 H235 0.930 . S
C217 C220 1.424 . S
C217 C222 1.245 . S
C217 C223 1.428 . S
C218 C221 1.260 . S
C218 C222 1.477 . S
C218 H236 0.932 . S
C219 C220 1.384 . S
C219 C221 1.479 . S
C219 H237 0.929 . S
C220 C217 1.424 . S
C220 C219 1.384 . S
C220 H238 0.928 . S
C221 C218 1.260 . S
C221 C219 1.479 . S
C222 C217 1.245 . S
C222 C218 1.477 . S
C222 H239 0.932 . S
C223 U206 2.882 . S
C223 C217 1.428 . S
C223 O226 1.301 . S
C223 O227 1.282 . S
O224 U206 2.441 . S
O224 C210 1.249 . S
O225 U206 2.420 . S
O225 C210 1.202 . S
O226 U206 2.455 . S
O226 C223 1.301 . S
O227 U206 2.449 . S
O227 C223 1.282 . S
H228 C201 0.931 . S
H229 C203 0.929 . S
H230 C204 0.930 . S
H231 C205 0.931 . S
H232 C212 0.932 . S
H233 C213 0.930 . S
H234 C214 0.929 . S
H235 C216 0.930 . S
H236 C218 0.932 . S
H237 C219 0.929 . S
H238 C220 0.928 . S
H239 C222 0.932 . S
C240 C241 1.264 . S
C240 C245 1.479 . S
C240 C250 1.465 . S
C241 C240 1.264 . S
C241 C243 1.339 . S
C241 H268 0.931 . S
C242 C243 1.395 . S
C242 C244 1.320 . S
C243 C241 1.339 . S
C243 C242 1.395 . S
C243 H269 0.929 . S
C244 C242 1.320 . S
C244 C245 1.405 . S
C244 H270 0.930 . S
C245 C240 1.479 . S
C245 C244 1.405 . S
C245 H271 0.931 . S
U246 O247 2.454 . S
U246 O248 2.458 . S
U246 C249 2.984 . S
U246 C250 2.847 . S
U246 C263 2.882 . S
U246 O264 2.441 . S
U246 O265 2.420 . S
U246 O266 2.455 . S
U246 O267 2.449 . S
O247 U246 2.454 . S
O247 C249 1.353 . S
O248 U246 2.458 . S
O248 C249 1.286 . S
C249 U246 2.984 . S
C249 O247 1.353 . S
C249 O248 1.286 . S
C249 C251 1.363 . S
C250 C240 1.465 . S
C250 U246 2.847 . S
C250 O264 1.249 . S
C250 O265 1.202 . S
C251 C249 1.363 . S
C251 C253 1.408 . S
C251 C256 1.342 . S
C252 C253 1.310 . S
C252 C255 1.461 . S
C252 H272 0.932 . S
C253 C251 1.408 . S
C253 C252 1.310 . S
C253 H273 0.930 . S
C254 C255 1.474 . S
C254 C256 1.285 . S
C254 H274 0.929 . S
C255 C252 1.461 . S
C255 C254 1.474 . S
C256 C251 1.342 . S
C256 C254 1.285 . S
C256 H275 0.930 . S
C257 C260 1.424 . S
C257 C262 1.245 . S
C257 C263 1.428 . S
C258 C261 1.260 . S
C258 C262 1.477 . S
C258 H276 0.932 . S
C259 C260 1.384 . S
C259 C261 1.479 . S
C259 H277 0.929 . S
C260 C257 1.424 . S
C260 C259 1.384 . S
C260 H278 0.928 . S
C261 C258 1.260 . S
C261 C259 1.479 . S
C262 C257 1.245 . S
C262 C258 1.477 . S
C262 H279 0.932 . S
C263 U246 2.882 . S
C263 C257 1.428 . S
C263 O266 1.301 . S
C263 O267 1.282 . S
O264 U246 2.441 . S
O264 C250 1.249 . S
O265 U246 2.420 . S
O265 C250 1.202 . S
O266 U246 2.455 . S
O266 C263 1.301 . S
O267 U246 2.449 . S
O267 C263 1.282 . S
H268 C241 0.931 . S
H269 C243 0.929 . S
H270 C244 0.930 . S
H271 C245 0.931 . S
H272 C252 0.932 . S
H273 C253 0.930 . S
H274 C254 0.929 . S
H275 C256 0.930 . S
H276 C258 0.932 . S
H277 C259 0.929 . S
H278 C260 0.928 . S
H279 C262 0.932 . S
C280 C281 1.264 . S
C280 C285 1.479 . S
C280 C290 1.465 . S
C281 C280 1.264 . S
C281 C283 1.339 . S
C281 H308 0.931 . S
C282 C283 1.395 . S
C282 C284 1.320 . S
C283 C281 1.339 . S
C283 C282 1.395 . S
C283 H309 0.929 . S
C284 C282 1.320 . S
C284 C285 1.405 . S
C284 H310 0.930 . S
C285 C280 1.479 . S
C285 C284 1.405 . S
C285 H311 0.931 . S
U286 O287 2.454 . S
U286 O288 2.458 . S
U286 C289 2.984 . S
U286 C290 2.847 . S
U286 C303 2.882 . S
U286 O304 2.441 . S
U286 O305 2.420 . S
U286 O306 2.455 . S
U286 O307 2.449 . S
O287 U286 2.454 . S
O287 C289 1.353 . S
O288 U286 2.458 . S
O288 C289 1.286 . S
C289 U286 2.984 . S
C289 O287 1.353 . S
C289 O288 1.286 . S
C289 C291 1.363 . S
C290 C280 1.465 . S
C290 U286 2.847 . S
C290 O304 1.249 . S
C290 O305 1.202 . S
C291 C289 1.363 . S
C291 C293 1.408 . S
C291 C296 1.342 . S
C292 C293 1.310 . S
C292 C295 1.461 . S
C292 H312 0.932 . S
C293 C291 1.408 . S
C293 C292 1.310 . S
C293 H313 0.930 . S
C294 C295 1.474 . S
C294 C296 1.285 . S
C294 H314 0.929 . S
C295 C292 1.461 . S
C295 C294 1.474 . S
C296 C291 1.342 . S
C296 C294 1.285 . S
C296 H315 0.930 . S
C297 C300 1.424 . S
C297 C302 1.245 . S
C297 C303 1.428 . S
C298 C301 1.260 . S
C298 C302 1.477 . S
C298 H316 0.932 . S
C299 C300 1.384 . S
C299 C301 1.479 . S
C299 H317 0.929 . S
C300 C297 1.424 . S
C300 C299 1.384 . S
C300 H318 0.928 . S
C301 C298 1.260 . S
C301 C299 1.479 . S
C302 C297 1.245 . S
C302 C298 1.477 . S
C302 H319 0.932 . S
C303 U286 2.882 . S
C303 C297 1.428 . S
C303 O306 1.301 . S
C303 O307 1.282 . S
O304 U286 2.441 . S
O304 C290 1.249 . S
O305 U286 2.420 . S
O305 C290 1.202 . S
O306 U286 2.455 . S
O306 C303 1.301 . S
O307 U286 2.449 . S
O307 C303 1.282 . S
H308 C281 0.931 . S
H309 C283 0.929 . S
H310 C284 0.930 . S
H311 C285 0.931 . S
H312 C292 0.932 . S
H313 C293 0.930 . S
H314 C294 0.929 . S
H315 C296 0.930 . S
H316 C298 0.932 . S
H317 C299 0.929 . S
H318 C300 0.928 . S
H319 C302 0.932 . S
H320 C328 0.930 . S
H321 C331 0.930 . S
H322 C333 0.930 . S
H323 C334 0.970 . S
H324 C334 0.970 . S
H325 C336 0.930 . S
H326 C338 0.930 . S
H327 C340 0.930 . S
C328 H320 0.930 . S
C328 C329 1.382 . S
C328 C330 1.426 . S
C329 C328 1.382 . S
C329 C333 1.389 . S
C330 C328 1.426 . S
C330 C331 1.375 . S
C330 C334 1.532 1_655 S
C331 H321 0.930 . S
C331 C330 1.375 . S
C331 C332 1.416 . S
C332 C331 1.416 . S
C332 C333 1.371 . S
C333 H322 0.930 . S
C333 C329 1.389 . S
C333 C332 1.371 . S
C334 H323 0.970 . S
C334 H324 0.970 . S
C334 C330 1.532 1_455 S
C334 C335 1.499 . S
C335 C334 1.499 . S
C335 C336 1.370 . S
C335 C340 1.415 . S
C336 H325 0.930 . S
C336 C335 1.370 . S
C336 C337 1.407 . S
C337 C336 1.407 . S
C337 C338 1.365 . S
C338 H326 0.930 . S
C338 C337 1.365 . S
C338 C339 1.393 . S
C339 C338 1.393 . S
C339 C340 1.387 . S
C340 H327 0.930 . S
C340 C335 1.415 . S
C340 C339 1.387 . S
H341 C349 0.930 . S
H342 C352 0.930 . S
H343 C354 0.930 . S
H344 C355 0.970 . S
H345 C355 0.970 . S
H346 C357 0.930 . S
H347 C359 0.930 . S
H348 C361 0.930 . S
C349 H341 0.930 . S
C349 C350 1.382 . S
C349 C351 1.426 . S
C350 C349 1.382 . S
C350 C354 1.389 . S
C351 C349 1.426 . S
C351 C352 1.375 . S
C351 C355 1.532 . S
C352 H342 0.930 . S
C352 C351 1.375 . S
C352 C353 1.416 . S
C353 C352 1.416 . S
C353 C354 1.371 . S
C354 H343 0.930 . S
C354 C350 1.389 . S
C354 C353 1.371 . S
C355 H344 0.970 . S
C355 H345 0.970 . S
C355 C351 1.532 . S
C355 C356 1.499 1_455 S
C356 C355 1.499 1_655 S
C356 C357 1.370 . S
C356 C361 1.415 . S
C357 H346 0.930 . S
C357 C356 1.370 . S
C357 C358 1.407 . S
C358 C357 1.407 . S
C358 C359 1.365 . S
C359 H347 0.930 . S
C359 C358 1.365 . S
C359 C360 1.393 . S
C360 C359 1.393 . S
C360 C361 1.387 . S
C361 H348 0.930 . S
C361 C356 1.415 . S
C361 C360 1.387 . S
H362 C370 0.930 . S
H363 C373 0.930 . S
H364 C375 0.930 . S
H365 C376 0.970 . S
H366 C376 0.970 . S
H367 C378 0.930 . S
H368 C380 0.930 . S
H369 C382 0.930 . S
C370 H362 0.930 . S
C370 C371 1.382 . S
C370 C372 1.426 . S
C371 C370 1.382 . S
C371 C375 1.389 . S
C372 C370 1.426 . S
C372 C373 1.375 . S
C372 C376 1.532 . S
C373 H363 0.930 . S
C373 C372 1.375 . S
C373 C374 1.416 . S
C374 C373 1.416 . S
C374 C375 1.371 . S
C375 H364 0.930 . S
C375 C371 1.389 . S
C375 C374 1.371 . S
C376 H365 0.970 . S
C376 H366 0.970 . S
C376 C372 1.532 . S
C376 C377 1.499 1_545 S
C377 C376 1.499 1_565 S
C377 C378 1.370 . S
C377 C382 1.415 . S
C378 H367 0.930 . S
C378 C377 1.370 . S
C378 C379 1.407 . S
C379 C378 1.407 . S
C379 C380 1.365 . S
C380 H368 0.930 . S
C380 C379 1.365 . S
C380 C381 1.393 . S
C381 C380 1.393 . S
C381 C382 1.387 . S
C382 H369 0.930 . S
C382 C377 1.415 . S
C382 C381 1.387 . S
H383 C391 0.930 . S
H384 C394 0.930 . S
H385 C396 0.930 . S
H386 C397 0.970 1_556 S
H387 C397 0.970 . S
H388 C399 0.930 . S
H389 C401 0.930 . S
H390 C403 0.930 . S
C391 H383 0.930 . S
C391 C392 1.382 . S
C391 C393 1.426 1_556 S
C392 C391 1.382 . S
C392 C396 1.389 1_556 S
C393 C391 1.426 1_554 S
C393 C394 1.375 . S
C393 C397 1.532 . S
C394 H384 0.930 . S
C394 C393 1.375 . S
C394 C395 1.416 . S
C395 C394 1.416 . S
C395 C396 1.371 . S
C396 H385 0.930 . S
C396 C392 1.389 1_554 S
C396 C395 1.371 . S
C397 H386 0.970 1_554 S
C397 H387 0.970 . S
C397 C393 1.532 . S
C397 C398 1.499 . S
C398 C397 1.499 . S
C398 C399 1.370 1_554 S
C398 C403 1.415 . S
C399 H388 0.930 . S
C399 C398 1.370 1_556 S
C399 C400 1.407 . S
C400 C399 1.407 . S
C400 C401 1.365 1_556 S
C401 H389 0.930 . S
C401 C400 1.365 1_554 S
C401 C402 1.393 . S
C402 C401 1.393 . S
C402 C403 1.387 . S
C403 H390 0.930 . S
C403 C398 1.415 . S
C403 C402 1.387 . S
H404 C412 0.930 . S
H405 C415 0.930 . S
H406 C417 0.930 . S
H407 C418 0.970 . S
H408 C418 0.970 . S
H409 C420 0.930 . S
H410 C422 0.930 . S
H411 C424 0.930 . S
C412 H404 0.930 . S
C412 C413 1.382 . S
C412 C414 1.426 . S
C413 C412 1.382 . S
C413 C417 1.389 . S
C414 C412 1.426 . S
C414 C415 1.375 . S
C414 C418 1.532 . S
C415 H405 0.930 . S
C415 C414 1.375 . S
C415 C416 1.416 . S
C416 C415 1.416 . S
C416 C417 1.371 . S
C417 H406 0.930 . S
C417 C413 1.389 . S
C417 C416 1.371 . S
C418 H407 0.970 . S
C418 H408 0.970 . S
C418 C414 1.532 . S
C418 C419 1.499 1_545 S
C419 C418 1.499 1_565 S
C419 C420 1.370 . S
C419 C424 1.415 . S
C420 H409 0.930 . S
C420 C419 1.370 . S
C420 C421 1.407 . S
C421 C420 1.407 . S
C421 C422 1.365 . S
C422 H410 0.930 . S
C422 C421 1.365 . S
C422 C423 1.393 . S
C423 C422 1.393 . S
C423 C424 1.387 . S
C424 H411 0.930 . S
C424 C419 1.415 . S
C424 C423 1.387 . S
H425 C433 0.930 . S
H426 C436 0.930 . S
H427 C438 0.930 . S
H428 C439 1.002 . S
H429 C439 0.940 1_554 S
H430 C441 0.930 . S
H431 C443 0.930 . S
H432 C445 0.930 . S
C433 H425 0.930 . S
C433 C434 1.382 . S
C433 C435 1.455 . S
C434 C433 1.382 . S
C434 C438 1.389 . S
C435 C433 1.455 . S
C435 C436 1.347 1_556 S
C435 C439 1.532 . S
C436 H426 0.930 . S
C436 C435 1.347 1_554 S
C436 C437 1.416 . S
C437 C436 1.416 . S
C437 C438 1.371 1_554 S
C438 H427 0.930 . S
C438 C434 1.389 . S
C438 C437 1.371 1_556 S
C439 H428 1.002 . S
C439 H429 0.940 1_556 S
C439 C435 1.532 . S
C439 C440 1.499 1_556 S
C440 C439 1.499 1_554 S
C440 C441 1.367 1_554 S
C440 C445 1.419 . S
C441 H430 0.930 . S
C441 C440 1.367 1_556 S
C441 C442 1.407 . S
C442 C441 1.407 . S
C442 C443 1.365 1_556 S
C443 H431 0.930 . S
C443 C442 1.365 1_554 S
C443 C444 1.393 . S
C444 C443 1.393 . S
C444 C445 1.387 . S
C445 H432 0.930 . S
C445 C440 1.419 . S
C445 C444 1.387 . S
H446 C464 0.951 . S
H447 C466 0.951 . S
H448 C468 0.950 . S
H449 C469 0.950 . S
H450 C471 0.950 . S
H451 C474 0.950 . S
H452 C475 0.950 . S
H453 C477 0.950 . S
H454 C478 0.950 . S
H455 C479 0.951 . S
H456 C481 0.951 . S
H457 C483 0.950 . S
H458 C484 0.950 . S
H459 C486 0.950 . S
H460 C489 0.950 . S
H461 C490 0.950 . S
H462 C492 0.950 . S
H463 C493 0.950 . S
C464 H446 0.951 . S
C464 C465 1.366 . S
C464 C466 1.388 . S
C465 C464 1.366 . S
C465 C469 1.385 . S
C466 H447 0.951 . S
C466 C464 1.388 . S
C466 C467 1.366 . S
C467 C466 1.366 . S
C467 C468 1.414 . S
C467 C470 1.499 . S
C468 H448 0.950 . S
C468 C467 1.414 . S
C468 C469 1.374 . S
C469 H449 0.950 . S
C469 C465 1.385 . S
C469 C468 1.374 . S
C470 C467 1.499 . S
C470 C471 1.373 . S
C470 C472 1.389 . S
C471 H450 0.950 . S
C471 C470 1.373 . S
C471 C487 1.377 . S
C472 C470 1.389 . S
C472 C473 1.524 . S
C472 C486 1.377 . S
C473 C472 1.524 . S
C473 C474 1.397 . S
C473 C478 1.363 . S
C474 H451 0.950 . S
C474 C473 1.397 . S
C474 C475 1.334 . S
C475 H452 0.950 . S
C475 C474 1.334 . S
C475 C476 1.287 . S
C476 C475 1.287 . S
C476 C477 1.524 . S
C476 H495 0.913 . S
C477 H453 0.950 . S
C477 C476 1.524 . S
C477 C478 1.415 . S
C478 H454 0.950 . S
C478 C473 1.363 . S
C478 C477 1.415 . S
C479 H455 0.951 . S
C479 C480 1.366 . S
C479 C481 1.388 . S
C480 C479 1.366 . S
C480 C484 1.385 . S
C481 H456 0.951 . S
C481 C479 1.388 . S
C481 C482 1.366 . S
C482 C481 1.366 . S
C482 C483 1.414 . S
C482 C485 1.499 . S
C483 H457 0.950 . S
C483 C482 1.414 . S
C483 C484 1.374 . S
C484 H458 0.950 . S
C484 C480 1.385 . S
C484 C483 1.374 . S
C485 C482 1.499 . S
C485 C486 1.373 . S
C485 C487 1.389 . S
C486 H459 0.950 . S
C486 C472 1.377 . S
C486 C485 1.373 . S
C487 C471 1.377 . S
C487 C485 1.389 . S
C487 C488 1.524 . S
C488 C487 1.524 . S
C488 C489 1.397 . S
C488 C493 1.363 . S
C489 H460 0.950 . S
C489 C488 1.397 . S
C489 C490 1.334 . S
C490 H461 0.950 . S
C490 C489 1.334 . S
C490 C491 1.287 . S
C491 C490 1.287 . S
C491 C492 1.524 . S
C491 H494 0.999 . S
C492 H462 0.950 . S
C492 C491 1.524 . S
C492 C493 1.415 . S
C493 H463 0.950 . S
C493 C488 1.363 . S
C493 C492 1.415 . S
H494 C491 0.999 . S
H495 C476 0.913 . S
H496 C514 0.951 . S
H497 C516 0.951 . S
H498 C518 0.950 . S
H499 C519 0.950 . S
H500 C521 0.950 . S
H501 C524 0.950 . S
H502 C525 0.950 . S
H503 C527 0.950 . S
H504 C528 0.950 . S
H505 C529 0.951 . S
H506 C531 0.951 . S
H507 C533 0.950 . S
H508 C534 0.950 . S
H509 C536 0.950 . S
H510 C539 0.950 . S
H511 C540 0.950 . S
H512 C542 0.950 . S
H513 C543 0.950 . S
C514 H496 0.951 . S
C514 C515 1.366 . S
C514 C516 1.388 . S
C515 C514 1.366 . S
C515 C519 1.385 . S
C516 H497 0.951 . S
C516 C514 1.388 . S
C516 C517 1.366 . S
C517 C516 1.366 . S
C517 C518 1.414 . S
C517 C520 1.499 . S
C518 H498 0.950 . S
C518 C517 1.414 . S
C518 C519 1.374 . S
C519 H499 0.950 . S
C519 C515 1.385 . S
C519 C518 1.374 . S
C520 C517 1.499 . S
C520 C521 1.373 . S
C520 C522 1.389 . S
C521 H500 0.950 . S
C521 C520 1.373 . S
C521 C537 1.377 . S
C522 C520 1.389 . S
C522 C523 1.524 . S
C522 C536 1.377 . S
C523 C522 1.524 . S
C523 C524 1.397 . S
C523 C528 1.363 . S
C524 H501 0.950 . S
C524 C523 1.397 . S
C524 C525 1.334 . S
C525 H502 0.950 . S
C525 C524 1.334 . S
C525 C526 1.287 . S
C526 C525 1.287 . S
C526 C527 1.524 . S
C526 H545 0.913 . S
C527 H503 0.950 . S
C527 C526 1.524 . S
C527 C528 1.415 . S
C528 H504 0.950 . S
C528 C523 1.363 . S
C528 C527 1.415 . S
C529 H505 0.951 . S
C529 C530 1.366 . S
C529 C531 1.388 . S
C530 C529 1.366 . S
C530 C534 1.385 . S
C531 H506 0.951 . S
C531 C529 1.388 . S
C531 C532 1.366 . S
C532 C531 1.366 . S
C532 C533 1.414 . S
C532 C535 1.499 . S
C533 H507 0.950 . S
C533 C532 1.414 . S
C533 C534 1.374 . S
C534 H508 0.950 . S
C534 C530 1.385 . S
C534 C533 1.374 . S
C535 C532 1.499 . S
C535 C536 1.373 . S
C535 C537 1.389 . S
C536 H509 0.950 . S
C536 C522 1.377 . S
C536 C535 1.373 . S
C537 C521 1.377 . S
C537 C535 1.389 . S
C537 C538 1.524 . S
C538 C537 1.524 . S
C538 C539 1.397 . S
C538 C543 1.363 . S
C539 H510 0.950 . S
C539 C538 1.397 . S
C539 C540 1.334 . S
C540 H511 0.950 . S
C540 C539 1.334 . S
C540 C541 1.287 . S
C541 C540 1.287 . S
C541 C542 1.524 . S
C541 H544 0.999 . S
C542 H512 0.950 . S
C542 C541 1.524 . S
C542 C543 1.415 . S
C543 H513 0.950 . S
C543 C538 1.363 . S
C543 C542 1.415 . S
H544 C541 0.999 . S
H545 C526 0.913 . S
H546 C564 0.951 . S
H547 C566 0.951 . S
H548 C568 0.950 . S
H549 C569 0.950 . S
H550 C571 0.950 . S
H551 C574 0.950 . S
H552 C575 0.950 . S
H553 C577 0.950 . S
H554 C578 0.950 . S
H555 C579 0.951 . S
H556 C581 0.951 . S
H557 C583 0.950 . S
H558 C584 0.950 . S
H559 C586 0.950 . S
H560 C589 0.950 . S
H561 C590 0.950 . S
H562 C592 0.950 . S
H563 C593 0.950 . S
C564 H546 0.951 . S
C564 C565 1.366 . S
C564 C566 1.388 . S
C565 C564 1.366 . S
C565 C569 1.385 . S
C566 H547 0.951 . S
C566 C564 1.388 . S
C566 C567 1.366 . S
C567 C566 1.366 . S
C567 C568 1.414 . S
C567 C570 1.499 . S
C568 H548 0.950 . S
C568 C567 1.414 . S
C568 C569 1.374 . S
C569 H549 0.950 . S
C569 C565 1.385 . S
C569 C568 1.374 . S
C570 C567 1.499 . S
C570 C571 1.373 . S
C570 C572 1.389 . S
C571 H550 0.950 . S
C571 C570 1.373 . S
C571 C587 1.377 . S
C572 C570 1.389 . S
C572 C573 1.524 . S
C572 C586 1.377 . S
C573 C572 1.524 . S
C573 C574 1.397 . S
C573 C578 1.363 . S
C574 H551 0.950 . S
C574 C573 1.397 . S
C574 C575 1.334 . S
C575 H552 0.950 . S
C575 C574 1.334 . S
C575 C576 1.287 . S
C576 C575 1.287 . S
C576 C577 1.524 . S
C576 H595 0.913 . S
C577 H553 0.950 . S
C577 C576 1.524 . S
C577 C578 1.415 . S
C578 H554 0.950 . S
C578 C573 1.363 . S
C578 C577 1.415 . S
C579 H555 0.951 . S
C579 C580 1.366 . S
C579 C581 1.388 . S
C580 C579 1.366 . S
C580 C584 1.385 . S
C581 H556 0.951 . S
C581 C579 1.388 . S
C581 C582 1.366 . S
C582 C581 1.366 . S
C582 C583 1.414 . S
C582 C585 1.499 . S
C583 H557 0.950 . S
C583 C582 1.414 . S
C583 C584 1.374 . S
C584 H558 0.950 . S
C584 C580 1.385 . S
C584 C583 1.374 . S
C585 C582 1.499 . S
C585 C586 1.373 . S
C585 C587 1.389 . S
C586 H559 0.950 . S
C586 C572 1.377 . S
C586 C585 1.373 . S
C587 C571 1.377 . S
C587 C585 1.389 . S
C587 C588 1.524 . S
C588 C587 1.524 . S
C588 C589 1.397 . S
C588 C593 1.363 . S
C589 H560 0.950 . S
C589 C588 1.397 . S
C589 C590 1.334 . S
C590 H561 0.950 . S
C590 C589 1.334 . S
C590 C591 1.287 . S
C591 C590 1.287 . S
C591 C592 1.524 . S
C591 H594 0.999 . S
C592 H562 0.950 . S
C592 C591 1.524 . S
C592 C593 1.415 . S
C593 H563 0.950 . S
C593 C588 1.363 . S
C593 C592 1.415 . S
H594 C591 0.999 . S
H595 C576 0.913 . S
H596 C614 0.951 . S
H597 C616 0.951 . S
H598 C618 0.950 . S
H599 C619 0.950 . S
H600 C621 0.950 . S
H601 C624 0.950 . S
H602 C625 0.950 . S
H603 C627 0.950 . S
H604 C628 0.950 . S
H605 C629 0.951 . S
H606 C631 0.951 . S
H607 C633 0.950 . S
H608 C634 0.950 . S
H609 C636 0.950 . S
H610 C639 0.950 . S
H611 C640 0.950 . S
H612 C642 0.950 . S
H613 C643 0.950 . S
C614 H596 0.951 . S
C614 C615 1.366 . S
C614 C616 1.388 . S
C615 C614 1.366 . S
C615 C619 1.385 . S
C616 H597 0.951 . S
C616 C614 1.388 . S
C616 C617 1.366 . S
C617 C616 1.366 . S
C617 C618 1.414 . S
C617 C620 1.499 . S
C618 H598 0.950 . S
C618 C617 1.414 . S
C618 C619 1.374 . S
C619 H599 0.950 . S
C619 C615 1.385 . S
C619 C618 1.374 . S
C620 C617 1.499 . S
C620 C621 1.373 . S
C620 C622 1.389 . S
C621 H600 0.950 . S
C621 C620 1.373 . S
C621 C637 1.377 . S
C622 C620 1.389 . S
C622 C623 1.524 . S
C622 C636 1.377 . S
C623 C622 1.524 . S
C623 C624 1.397 . S
C623 C628 1.363 . S
C624 H601 0.950 . S
C624 C623 1.397 . S
C624 C625 1.334 . S
C625 H602 0.950 . S
C625 C624 1.334 . S
C625 C626 1.287 . S
C626 C625 1.287 . S
C626 C627 1.524 . S
C626 H645 0.913 . S
C627 H603 0.950 . S
C627 C626 1.524 . S
C627 C628 1.415 . S
C628 H604 0.950 . S
C628 C623 1.363 . S
C628 C627 1.415 . S
C629 H605 0.951 . S
C629 C630 1.366 . S
C629 C631 1.388 . S
C630 C629 1.366 . S
C630 C634 1.385 . S
C631 H606 0.951 . S
C631 C629 1.388 . S
C631 C632 1.366 . S
C632 C631 1.366 . S
C632 C633 1.414 . S
C632 C635 1.499 . S
C633 H607 0.950 . S
C633 C632 1.414 . S
C633 C634 1.374 . S
C634 H608 0.950 . S
C634 C630 1.385 . S
C634 C633 1.374 . S
C635 C632 1.499 . S
C635 C636 1.373 . S
C635 C637 1.389 . S
C636 H609 0.950 . S
C636 C622 1.377 . S
C636 C635 1.373 . S
C637 C621 1.377 . S
C637 C635 1.389 . S
C637 C638 1.524 . S
C638 C637 1.524 . S
C638 C639 1.397 . S
C638 C643 1.363 . S
C639 H610 0.950 . S
C639 C638 1.397 . S
C639 C640 1.334 . S
C640 H611 0.950 . S
C640 C639 1.334 . S
C640 C641 1.287 . S
C641 C640 1.287 . S
C641 C642 1.524 . S
C641 H644 0.999 . S
C642 H612 0.950 . S
C642 C641 1.524 . S
C642 C643 1.415 . S
C643 H613 0.950 . S
C643 C638 1.363 . S
C643 C642 1.415 . S
H644 C641 0.999 . S
H645 C626 0.913 . S
H646 C664 0.951 . S
H647 C666 0.951 . S
H648 C668 0.950 . S
H649 C669 0.950 . S
H650 C671 0.950 . S
H651 C674 0.950 . S
H652 C675 0.950 . S
H653 C677 0.950 . S
H654 C678 0.950 . S
H655 C679 0.951 . S
H656 C681 0.951 . S
H657 C683 0.950 . S
H658 C684 0.950 . S
H659 C686 0.950 . S
H660 C689 0.950 . S
H661 C690 0.950 . S
H662 C692 0.950 . S
H663 C693 0.950 . S
C664 H646 0.951 . S
C664 C665 1.366 . S
C664 C666 1.388 . S
C665 C664 1.366 . S
C665 C669 1.385 . S
C666 H647 0.951 . S
C666 C664 1.388 . S
C666 C667 1.366 . S
C667 C666 1.366 . S
C667 C668 1.414 . S
C667 C670 1.499 . S
C668 H648 0.950 . S
C668 C667 1.414 . S
C668 C669 1.374 . S
C669 H649 0.950 . S
C669 C665 1.385 . S
C669 C668 1.374 . S
C670 C667 1.499 . S
C670 C671 1.373 . S
C670 C672 1.389 . S
C671 H650 0.950 . S
C671 C670 1.373 . S
C671 C687 1.377 . S
C672 C670 1.389 . S
C672 C673 1.524 . S
C672 C686 1.377 . S
C673 C672 1.524 . S
C673 C674 1.397 . S
C673 C678 1.363 . S
C674 H651 0.950 . S
C674 C673 1.397 . S
C674 C675 1.334 . S
C675 H652 0.950 . S
C675 C674 1.334 . S
C675 C676 1.287 . S
C676 C675 1.287 . S
C676 C677 1.524 . S
C676 H695 0.913 . S
C677 H653 0.950 . S
C677 C676 1.524 . S
C677 C678 1.415 . S
C678 H654 0.950 . S
C678 C673 1.363 . S
C678 C677 1.415 . S
C679 H655 0.951 . S
C679 C680 1.366 . S
C679 C681 1.388 . S
C680 C679 1.366 . S
C680 C684 1.385 . S
C681 H656 0.951 . S
C681 C679 1.388 . S
C681 C682 1.366 . S
C682 C681 1.366 . S
C682 C683 1.414 . S
C682 C685 1.499 . S
C683 H657 0.950 . S
C683 C682 1.414 . S
C683 C684 1.374 . S
C684 H658 0.950 . S
C684 C680 1.385 . S
C684 C683 1.374 . S
C685 C682 1.499 . S
C685 C686 1.373 . S
C685 C687 1.389 . S
C686 H659 0.950 . S
C686 C672 1.377 . S
C686 C685 1.373 . S
C687 C671 1.377 . S
C687 C685 1.389 . S
C687 C688 1.524 . S
C688 C687 1.524 . S
C688 C689 1.397 . S
C688 C693 1.363 . S
C689 H660 0.950 . S
C689 C688 1.397 . S
C689 C690 1.334 . S
C690 H661 0.950 . S
C690 C689 1.334 . S
C690 C691 1.287 . S
C691 C690 1.287 . S
C691 C692 1.524 . S
C691 H694 0.999 . S
C692 H662 0.950 . S
C692 C691 1.524 . S
C692 C693 1.415 . S
C693 H663 0.950 . S
C693 C688 1.363 . S
C693 C692 1.415 . S
H694 C691 0.999 . S
H695 C676 0.913 . S
H696 C714 0.951 . S
H697 C716 0.951 . S
H698 C718 0.950 . S
H699 C719 0.950 . S
H700 C721 0.950 . S
H701 C724 0.950 . S
H702 C725 0.950 . S
H703 C727 0.950 . S
H704 C728 0.950 . S
H705 C729 0.951 . S
H706 C731 0.951 . S
H707 C733 0.950 . S
H708 C734 0.950 . S
H709 C736 0.950 . S
H710 C739 0.950 . S
H711 C740 0.950 . S
H712 C742 0.950 . S
H713 C743 0.950 . S
C714 H696 0.951 . S
C714 C715 1.366 . S
C714 C716 1.388 . S
C715 C714 1.366 . S
C715 C719 1.385 . S
C716 H697 0.951 . S
C716 C714 1.388 . S
C716 C717 1.366 . S
C717 C716 1.366 . S
C717 C718 1.414 . S
C717 C720 1.499 . S
C718 H698 0.950 . S
C718 C717 1.414 . S
C718 C719 1.374 . S
C719 H699 0.950 . S
C719 C715 1.385 . S
C719 C718 1.374 . S
C720 C717 1.499 . S
C720 C721 1.373 . S
C720 C722 1.389 . S
C721 H700 0.950 . S
C721 C720 1.373 . S
C721 C737 1.377 . S
C722 C720 1.389 . S
C722 C723 1.524 . S
C722 C736 1.377 . S
C723 C722 1.524 . S
C723 C724 1.397 . S
C723 C728 1.363 . S
C724 H701 0.950 . S
C724 C723 1.397 . S
C724 C725 1.334 . S
C725 H702 0.950 . S
C725 C724 1.334 . S
C725 C726 1.287 . S
C726 C725 1.287 . S
C726 C727 1.524 . S
C726 H745 0.913 . S
C727 H703 0.950 . S
C727 C726 1.524 . S
C727 C728 1.415 . S
C728 H704 0.950 . S
C728 C723 1.363 . S
C728 C727 1.415 . S
C729 H705 0.951 . S
C729 C730 1.366 . S
C729 C731 1.388 . S
C730 C729 1.366 . S
C730 C734 1.385 . S
C731 H706 0.951 . S
C731 C729 1.388 . S
C731 C732 1.366 . S
C732 C731 1.366 . S
C732 C733 1.414 . S
C732 C735 1.499 . S
C733 H707 0.950 . S
C733 C732 1.414 . S
C733 C734 1.374 . S
C734 H708 0.950 . S
C734 C730 1.385 . S
C734 C733 1.374 . S
C735 C732 1.499 . S
C735 C736 1.373 . S
C735 C737 1.389 . S
C736 H709 0.950 . S
C736 C722 1.377 . S
C736 C735 1.373 . S
C737 C721 1.377 . S
C737 C735 1.389 . S
C737 C738 1.524 . S
C738 C737 1.524 . S
C738 C739 1.397 . S
C738 C743 1.363 . S
C739 H710 0.950 . S
C739 C738 1.397 . S
C739 C740 1.334 . S
C740 H711 0.950 . S
C740 C739 1.334 . S
C740 C741 1.287 . S
C741 C740 1.287 . S
C741 C742 1.524 . S
C741 H744 0.999 . S
C742 H712 0.950 . S
C742 C741 1.524 . S
C742 C743 1.415 . S
C743 H713 0.950 . S
C743 C738 1.363 . S
C743 C742 1.415 . S
H744 C741 0.999 . S
H745 C726 0.913 . S
H746 C764 0.951 . S
H747 C766 0.951 . S
H748 C768 0.950 . S
H749 C769 0.950 . S
H750 C771 0.950 . S
H751 C774 0.950 . S
H752 C775 0.950 . S
H753 C777 0.950 . S
H754 C778 0.950 . S
H755 C779 0.951 . S
H756 C781 0.951 . S
H757 C783 0.950 . S
H758 C784 0.950 . S
H759 C786 0.950 . S
H760 C789 0.950 . S
H761 C790 0.950 . S
H762 C792 0.950 . S
H763 C793 0.950 . S
C764 H746 0.951 . S
C764 C765 1.366 . S
C764 C766 1.388 . S
C765 C764 1.366 . S
C765 C769 1.385 . S
C766 H747 0.951 . S
C766 C764 1.388 . S
C766 C767 1.366 . S
C767 C766 1.366 . S
C767 C768 1.414 . S
C767 C770 1.499 . S
C768 H748 0.950 . S
C768 C767 1.414 . S
C768 C769 1.374 . S
C769 H749 0.950 . S
C769 C765 1.385 . S
C769 C768 1.374 . S
C770 C767 1.499 . S
C770 C771 1.373 . S
C770 C772 1.389 . S
C771 H750 0.950 . S
C771 C770 1.373 . S
C771 C787 1.377 . S
C772 C770 1.389 . S
C772 C773 1.524 . S
C772 C786 1.377 . S
C773 C772 1.524 . S
C773 C774 1.397 . S
C773 C778 1.363 . S
C774 H751 0.950 . S
C774 C773 1.397 . S
C774 C775 1.334 . S
C775 H752 0.950 . S
C775 C774 1.334 . S
C775 C776 1.287 . S
C776 C775 1.287 . S
C776 C777 1.524 . S
C776 H795 0.913 . S
C777 H753 0.950 . S
C777 C776 1.524 . S
C777 C778 1.415 . S
C778 H754 0.950 . S
C778 C773 1.363 . S
C778 C777 1.415 . S
C779 H755 0.951 . S
C779 C780 1.366 . S
C779 C781 1.388 . S
C780 C779 1.366 . S
C780 C784 1.385 . S
C781 H756 0.951 . S
C781 C779 1.388 . S
C781 C782 1.366 . S
C782 C781 1.366 . S
C782 C783 1.414 . S
C782 C785 1.499 . S
C783 H757 0.950 . S
C783 C782 1.414 . S
C783 C784 1.374 . S
C784 H758 0.950 . S
C784 C780 1.385 . S
C784 C783 1.374 . S
C785 C782 1.499 . S
C785 C786 1.373 . S
C785 C787 1.389 . S
C786 H759 0.950 . S
C786 C772 1.377 . S
C786 C785 1.373 . S
C787 C771 1.377 . S
C787 C785 1.389 . S
C787 C788 1.524 . S
C788 C787 1.524 . S
C788 C789 1.397 . S
C788 C793 1.363 . S
C789 H760 0.950 . S
C789 C788 1.397 . S
C789 C790 1.334 . S
C790 H761 0.950 . S
C790 C789 1.334 . S
C790 C791 1.287 . S
C791 C790 1.287 . S
C791 C792 1.524 . S
C791 H794 0.999 . S
C792 H762 0.950 . S
C792 C791 1.524 . S
C792 C793 1.415 . S
C793 H763 0.950 . S
C793 C788 1.363 . S
C793 C792 1.415 . S
H794 C791 0.999 . S
H795 C776 0.913 . S
H796 C814 0.951 . S
H797 C816 0.951 . S
H798 C818 0.950 . S
H799 C819 0.950 . S
H800 C821 0.950 . S
H801 C824 0.950 . S
H802 C825 0.950 . S
H803 C827 0.950 . S
H804 C828 0.950 . S
H805 C829 0.951 . S
H806 C831 0.951 . S
H807 C833 0.950 . S
H808 C834 0.950 . S
H809 C836 0.950 . S
H810 C839 0.950 . S
H811 C840 0.950 1_554 S
H812 C842 0.950 . S
H813 C843 0.950 . S
C814 H796 0.951 . S
C814 C815 1.366 . S
C814 C816 1.388 . S
C815 C814 1.366 . S
C815 C819 1.385 . S
C816 H797 0.951 . S
C816 C814 1.388 . S
C816 C817 1.366 . S
C817 C816 1.366 . S
C817 C818 1.414 . S
C817 C820 1.499 . S
C818 H798 0.950 . S
C818 C817 1.414 . S
C818 C819 1.374 . S
C819 H799 0.950 . S
C819 C815 1.385 . S
C819 C818 1.374 . S
C820 C817 1.499 . S
C820 C821 1.373 . S
C820 C822 1.389 . S
C821 H800 0.950 . S
C821 C820 1.373 . S
C821 C837 1.377 . S
C822 C820 1.389 . S
C822 C823 1.524 . S
C822 C836 1.377 . S
C823 C822 1.524 . S
C823 C824 1.397 . S
C823 C828 1.363 . S
C824 H801 0.950 . S
C824 C823 1.397 . S
C824 C825 1.334 . S
C825 H802 0.950 . S
C825 C824 1.334 . S
C825 C826 1.287 . S
C826 C825 1.287 . S
C826 C827 1.524 . S
C826 H845 0.913 . S
C827 H803 0.950 . S
C827 C826 1.524 . S
C827 C828 1.415 . S
C828 H804 0.950 . S
C828 C823 1.363 . S
C828 C827 1.415 . S
C829 H805 0.951 . S
C829 C830 1.366 . S
C829 C831 1.388 . S
C830 C829 1.366 . S
C830 C834 1.385 . S
C831 H806 0.951 . S
C831 C829 1.388 . S
C831 C832 1.366 . S
C832 C831 1.366 . S
C832 C833 1.414 . S
C832 C835 1.499 . S
C833 H807 0.950 . S
C833 C832 1.414 . S
C833 C834 1.374 . S
C834 H808 0.950 . S
C834 C830 1.385 . S
C834 C833 1.374 . S
C835 C832 1.499 . S
C835 C836 1.373 . S
C835 C837 1.389 . S
C836 H809 0.950 . S
C836 C822 1.377 . S
C836 C835 1.373 . S
C837 C821 1.377 . S
C837 C835 1.389 . S
C837 C838 1.524 . S
C838 C837 1.524 . S
C838 C839 1.397 . S
C838 C843 1.363 . S
C839 H810 0.950 . S
C839 C838 1.397 . S
C839 C840 1.334 . S
C840 H811 0.950 1_556 S
C840 C839 1.334 . S
C840 C841 1.287 . S
C841 C840 1.287 . S
C841 C842 1.524 . S
C841 H844 1.003 . S
C842 H812 0.950 . S
C842 C841 1.524 . S
C842 C843 1.415 . S
C843 H813 0.950 . S
C843 C838 1.363 . S
C843 C842 1.415 . S
H844 C841 1.003 . S
H845 C826 0.913 . S
H846 C864 0.951 . S
H847 C866 0.951 . S
H848 C868 0.950 . S
H849 C869 0.950 . S
H850 C871 0.950 . S
H851 C874 0.950 . S
H852 C875 0.950 . S
H853 C877 0.950 . S
H854 C878 0.950 . S
H855 C879 0.951 . S
H856 C881 0.951 . S
H857 C883 0.950 . S
H858 C884 0.950 . S
H859 C886 0.950 . S
H860 C889 0.950 . S
H861 C890 0.950 . S
H862 C892 0.950 . S
H863 C893 0.950 . S
C864 H846 0.951 . S
C864 C865 1.366 . S
C864 C866 1.388 . S
C865 C864 1.366 . S
C865 C869 1.385 . S
C866 H847 0.951 . S
C866 C864 1.388 . S
C866 C867 1.366 . S
C867 C866 1.366 . S
C867 C868 1.414 . S
C867 C870 1.499 . S
C868 H848 0.950 . S
C868 C867 1.414 . S
C868 C869 1.374 . S
C869 H849 0.950 . S
C869 C865 1.385 . S
C869 C868 1.374 . S
C870 C867 1.499 . S
C870 C871 1.373 . S
C870 C872 1.389 . S
C871 H850 0.950 . S
C871 C870 1.373 . S
C871 C887 1.377 . S
C872 C870 1.389 . S
C872 C873 1.524 . S
C872 C886 1.377 . S
C873 C872 1.524 . S
C873 C874 1.397 . S
C873 C878 1.363 . S
C874 H851 0.950 . S
C874 C873 1.397 . S
C874 C875 1.334 . S
C875 H852 0.950 . S
C875 C874 1.334 . S
C875 C876 1.287 . S
C876 C875 1.287 . S
C876 C877 1.524 . S
C876 H895 0.913 . S
C877 H853 0.950 . S
C877 C876 1.524 . S
C877 C878 1.415 . S
C878 H854 0.950 . S
C878 C873 1.363 . S
C878 C877 1.415 . S
C879 H855 0.951 . S
C879 C880 1.366 . S
C879 C881 1.388 . S
C880 C879 1.366 . S
C880 C884 1.385 . S
C881 H856 0.951 . S
C881 C879 1.388 . S
C881 C882 1.366 . S
C882 C881 1.366 . S
C882 C883 1.414 . S
C882 C885 1.499 . S
C883 H857 0.950 . S
C883 C882 1.414 . S
C883 C884 1.374 . S
C884 H858 0.950 . S
C884 C880 1.385 . S
C884 C883 1.374 . S
C885 C882 1.499 . S
C885 C886 1.373 . S
C885 C887 1.389 . S
C886 H859 0.950 . S
C886 C872 1.377 . S
C886 C885 1.373 . S
C887 C871 1.377 . S
C887 C885 1.389 . S
C887 C888 1.524 . S
C888 C887 1.524 . S
C888 C889 1.397 . S
C888 C893 1.363 . S
C889 H860 0.950 . S
C889 C888 1.397 . S
C889 C890 1.334 . S
C890 H861 0.950 . S
C890 C889 1.334 . S
C890 C891 1.287 . S
C891 C890 1.287 . S
C891 C892 1.524 . S
C891 H894 0.999 . S
C892 H862 0.950 . S
C892 C891 1.524 . S
C892 C893 1.415 . S
C893 H863 0.950 . S
C893 C888 1.363 . S
C893 C892 1.415 . S
H894 C891 0.999 . S
H895 C876 0.913 . S
H896 C914 0.951 . S
H897 C916 0.951 . S
H898 C918 0.950 . S
H899 C919 0.950 . S
H900 C921 0.950 . S
H901 C924 0.950 . S
H902 C925 0.950 . S
H903 C927 0.950 . S
H904 C928 0.950 . S
H905 C929 0.951 . S
H906 C931 0.951 . S
H907 C933 0.950 . S
H908 C934 0.950 . S
H909 C936 0.950 . S
H910 C939 0.950 . S
H911 C940 0.950 . S
H912 C942 0.950 . S
H913 C943 0.950 . S
C914 H896 0.951 . S
C914 C915 1.366 . S
C914 C916 1.388 . S
C915 C914 1.366 . S
C915 C919 1.385 . S
C916 H897 0.951 . S
C916 C914 1.388 . S
C916 C917 1.366 . S
C917 C916 1.366 . S
C917 C918 1.414 . S
C917 C920 1.499 . S
C918 H898 0.950 . S
C918 C917 1.414 . S
C918 C919 1.374 . S
C919 H899 0.950 . S
C919 C915 1.385 . S
C919 C918 1.374 . S
C920 C917 1.499 . S
C920 C921 1.373 . S
C920 C922 1.389 . S
C921 H900 0.950 . S
C921 C920 1.373 . S
C921 C937 1.377 . S
C922 C920 1.389 . S
C922 C923 1.524 . S
C922 C936 1.377 . S
C923 C922 1.524 . S
C923 C924 1.397 . S
C923 C928 1.363 . S
C924 H901 0.950 . S
C924 C923 1.397 . S
C924 C925 1.334 . S
C925 H902 0.950 . S
C925 C924 1.334 . S
C925 C926 1.287 . S
C926 C925 1.287 . S
C926 C927 1.524 . S
C926 H945 0.913 . S
C927 H903 0.950 . S
C927 C926 1.524 . S
C927 C928 1.415 . S
C928 H904 0.950 . S
C928 C923 1.363 . S
C928 C927 1.415 . S
C929 H905 0.951 . S
C929 C930 1.366 . S
C929 C931 1.388 . S
C930 C929 1.366 . S
C930 C934 1.385 . S
C931 H906 0.951 . S
C931 C929 1.388 . S
C931 C932 1.366 . S
C932 C931 1.366 . S
C932 C933 1.414 . S
C932 C935 1.499 . S
C933 H907 0.950 . S
C933 C932 1.414 . S
C933 C934 1.374 . S
C934 H908 0.950 . S
C934 C930 1.385 . S
C934 C933 1.374 . S
C935 C932 1.499 . S
C935 C936 1.373 . S
C935 C937 1.389 . S
C936 H909 0.950 . S
C936 C922 1.377 . S
C936 C935 1.373 . S
C937 C921 1.377 . S
C937 C935 1.389 . S
C937 C938 1.524 . S
C938 C937 1.524 . S
C938 C939 1.397 . S
C938 C943 1.363 . S
C939 H910 0.950 . S
C939 C938 1.397 . S
C939 C940 1.334 . S
C940 H911 0.950 . S
C940 C939 1.334 . S
C940 C941 1.287 . S
C941 C940 1.287 . S
C941 C942 1.524 . S
C941 H944 0.999 . S
C942 H912 0.950 . S
C942 C941 1.524 . S
C942 C943 1.415 . S
C943 H913 0.950 . S
C943 C938 1.363 . S
C943 C942 1.415 . S
H944 C941 0.999 . S
H945 C926 0.913 . S
H946 C964 0.951 . S
H947 C966 0.951 . S
H948 C968 0.950 . S
H949 C969 0.950 . S
H950 C971 0.950 . S
H951 C974 0.950 . S
H952 C975 0.950 . S
H953 C977 0.950 . S
H954 C978 0.950 . S
H955 C979 0.951 . S
H956 C981 0.951 . S
H957 C983 0.950 . S
H958 C984 0.950 . S
H959 C986 0.950 . S
H960 C989 0.950 . S
H961 C990 0.950 . S
H962 C992 0.950 . S
H963 C993 0.950 . S
C964 H946 0.951 . S
C964 C965 1.366 . S
C964 C966 1.388 . S
C965 C964 1.366 . S
C965 C969 1.385 . S
C966 H947 0.951 . S
C966 C964 1.388 . S
C966 C967 1.366 . S
C967 C966 1.366 . S
C967 C968 1.414 . S
C967 C970 1.499 . S
C968 H948 0.950 . S
C968 C967 1.414 . S
C968 C969 1.374 . S
C969 H949 0.950 . S
C969 C965 1.385 . S
C969 C968 1.374 . S
C970 C967 1.499 . S
C970 C971 1.373 . S
C970 C972 1.389 . S
C971 H950 0.950 . S
C971 C970 1.373 . S
C971 C987 1.377 . S
C972 C970 1.389 . S
C972 C973 1.524 . S
C972 C986 1.377 . S
C973 C972 1.524 . S
C973 C974 1.397 . S
C973 C978 1.363 . S
C974 H951 0.950 . S
C974 C973 1.397 . S
C974 C975 1.334 . S
C975 H952 0.950 . S
C975 C974 1.334 . S
C975 C976 1.287 . S
C976 C975 1.287 . S
C976 C977 1.524 . S
C976 H995 0.913 . S
C977 H953 0.950 . S
C977 C976 1.524 . S
C977 C978 1.415 . S
C978 H954 0.950 . S
C978 C973 1.363 . S
C978 C977 1.415 . S
C979 H955 0.951 . S
C979 C980 1.366 . S
C979 C981 1.388 . S
C980 C979 1.366 . S
C980 C984 1.385 . S
C981 H956 0.951 . S
C981 C979 1.388 . S
C981 C982 1.366 . S
C982 C981 1.366 . S
C982 C983 1.414 . S
C982 C985 1.499 . S
C983 H957 0.950 . S
C983 C982 1.414 . S
C983 C984 1.374 . S
C984 H958 0.950 . S
C984 C980 1.385 . S
C984 C983 1.374 . S
C985 C982 1.499 . S
C985 C986 1.373 . S
C985 C987 1.389 . S
C986 H959 0.950 . S
C986 C972 1.377 . S
C986 C985 1.373 . S
C987 C971 1.377 . S
C987 C985 1.389 . S
C987 C988 1.524 . S
C988 C987 1.524 . S
C988 C989 1.397 . S
C988 C993 1.363 . S
C989 H960 0.950 . S
C989 C988 1.397 . S
C989 C990 1.334 . S
C990 H961 0.950 . S
C990 C989 1.334 . S
C990 C991 1.287 . S
C991 C990 1.287 . S
C991 C992 1.524 . S
C991 H994 0.999 . S
C992 H962 0.950 . S
C992 C991 1.524 . S
C992 C993 1.415 . S
C993 H963 0.950 . S
C993 C988 1.363 . S
C993 C992 1.415 . S
H994 C991 0.999 . S
H995 C976 0.913 . S
H996 C1014 0.951 . S
H997 C1016 0.951 . S
H998 C1018 0.950 . S
H999 C1019 0.950 . S
H1000 C1021 0.950 . S
H1001 C1024 0.950 . S
H1002 C1025 0.950 . S
H1003 C1027 0.950 . S
H1004 C1028 0.950 . S
H1005 C1029 0.951 . S
H1006 C1031 0.951 . S
H1007 C1033 0.950 . S
H1008 C1034 0.950 . S
H1009 C1036 0.950 . S
H1010 C1039 0.950 . S
H1011 C1040 0.950 . S
H1012 C1042 0.950 . S
H1013 C1043 0.950 . S
C1014 H996 0.951 . S
C1014 C1015 1.366 . S
C1014 C1016 1.388 . S
C1015 C1014 1.366 . S
C1015 C1019 1.385 . S
C1016 H997 0.951 . S
C1016 C1014 1.388 . S
C1016 C1017 1.366 . S
C1017 C1016 1.366 . S
C1017 C1018 1.414 . S
C1017 C1020 1.499 . S
C1018 H998 0.950 . S
C1018 C1017 1.414 . S
C1018 C1019 1.374 . S
C1019 H999 0.950 . S
C1019 C1015 1.385 . S
C1019 C1018 1.374 . S
C1020 C1017 1.499 . S
C1020 C1021 1.373 . S
C1020 C1022 1.389 . S
C1021 H1000 0.950 . S
C1021 C1020 1.373 . S
C1021 C1037 1.377 . S
C1022 C1020 1.389 . S
C1022 C1023 1.524 . S
C1022 C1036 1.377 . S
C1023 C1022 1.524 . S
C1023 C1024 1.397 . S
C1023 C1028 1.363 . S
C1024 H1001 0.950 . S
C1024 C1023 1.397 . S
C1024 C1025 1.334 . S
C1025 H1002 0.950 . S
C1025 C1024 1.334 . S
C1025 C1026 1.287 . S
C1026 C1025 1.287 . S
C1026 C1027 1.524 . S
C1026 H1045 0.913 . S
C1027 H1003 0.950 . S
C1027 C1026 1.524 . S
C1027 C1028 1.415 . S
C1028 H1004 0.950 . S
C1028 C1023 1.363 . S
C1028 C1027 1.415 . S
C1029 H1005 0.951 . S
C1029 C1030 1.366 . S
C1029 C1031 1.388 . S
C1030 C1029 1.366 . S
C1030 C1034 1.385 . S
C1031 H1006 0.951 . S
C1031 C1029 1.388 . S
C1031 C1032 1.366 . S
C1032 C1031 1.366 . S
C1032 C1033 1.414 . S
C1032 C1035 1.499 . S
C1033 H1007 0.950 . S
C1033 C1032 1.414 . S
C1033 C1034 1.374 . S
C1034 H1008 0.950 . S
C1034 C1030 1.385 . S
C1034 C1033 1.374 . S
C1035 C1032 1.499 . S
C1035 C1036 1.373 . S
C1035 C1037 1.389 . S
C1036 H1009 0.950 . S
C1036 C1022 1.377 . S
C1036 C1035 1.373 . S
C1037 C1021 1.377 . S
C1037 C1035 1.389 . S
C1037 C1038 1.524 . S
C1038 C1037 1.524 . S
C1038 C1039 1.397 . S
C1038 C1043 1.363 . S
C1039 H1010 0.950 . S
C1039 C1038 1.397 . S
C1039 C1040 1.334 . S
C1040 H1011 0.950 . S
C1040 C1039 1.334 . S
C1040 C1041 1.287 . S
C1041 C1040 1.287 . S
C1041 C1042 1.524 . S
C1041 H1044 0.999 . S
C1042 H1012 0.950 . S
C1042 C1041 1.524 . S
C1042 C1043 1.415 . S
C1043 H1013 0.950 . S
C1043 C1038 1.363 . S
C1043 C1042 1.415 . S
H1044 C1041 0.999 . S
H1045 C1026 0.913 . S
H1046 C1064 0.951 . S
H1047 C1066 0.951 . S
H1048 C1068 0.950 . S
H1049 C1069 0.950 . S
H1050 C1071 0.950 . S
H1051 C1074 0.950 . S
H1052 C1075 0.950 . S
H1053 C1077 0.950 . S
H1054 C1078 0.950 . S
H1055 C1079 0.951 . S
H1056 C1081 0.951 . S
H1057 C1083 0.950 . S
H1058 C1084 0.950 . S
H1059 C1086 0.950 . S
H1060 C1089 0.950 . S
H1061 C1090 0.950 . S
H1062 C1092 0.950 . S
H1063 C1093 0.950 . S
C1064 H1046 0.951 . S
C1064 C1065 1.366 . S
C1064 C1066 1.388 . S
C1065 C1064 1.366 . S
C1065 C1069 1.385 . S
C1066 H1047 0.951 . S
C1066 C1064 1.388 . S
C1066 C1067 1.366 . S
C1067 C1066 1.366 . S
C1067 C1068 1.414 . S
C1067 C1070 1.499 . S
C1068 H1048 0.950 . S
C1068 C1067 1.414 . S
C1068 C1069 1.374 . S
C1069 H1049 0.950 . S
C1069 C1065 1.385 . S
C1069 C1068 1.374 . S
C1070 C1067 1.499 . S
C1070 C1071 1.373 . S
C1070 C1072 1.389 . S
C1071 H1050 0.950 . S
C1071 C1070 1.373 . S
C1071 C1087 1.377 . S
C1072 C1070 1.389 . S
C1072 C1073 1.524 . S
C1072 C1086 1.377 . S
C1073 C1072 1.524 . S
C1073 C1074 1.397 . S
C1073 C1078 1.363 . S
C1074 H1051 0.950 . S
C1074 C1073 1.397 . S
C1074 C1075 1.334 . S
C1075 H1052 0.950 . S
C1075 C1074 1.334 . S
C1075 C1076 1.287 . S
C1076 C1075 1.287 . S
C1076 C1077 1.524 . S
C1076 H1095 0.913 . S
C1077 H1053 0.950 . S
C1077 C1076 1.524 . S
C1077 C1078 1.415 . S
C1078 H1054 0.950 . S
C1078 C1073 1.363 . S
C1078 C1077 1.415 . S
C1079 H1055 0.951 . S
C1079 C1080 1.366 . S
C1079 C1081 1.388 . S
C1080 C1079 1.366 . S
C1080 C1084 1.385 . S
C1081 H1056 0.951 . S
C1081 C1079 1.388 . S
C1081 C1082 1.366 . S
C1082 C1081 1.366 . S
C1082 C1083 1.414 . S
C1082 C1085 1.499 . S
C1083 H1057 0.950 . S
C1083 C1082 1.414 . S
C1083 C1084 1.374 . S
C1084 H1058 0.950 . S
C1084 C1080 1.385 . S
C1084 C1083 1.374 . S
C1085 C1082 1.499 . S
C1085 C1086 1.373 . S
C1085 C1087 1.389 . S
C1086 H1059 0.950 . S
C1086 C1072 1.377 . S
C1086 C1085 1.373 . S
C1087 C1071 1.377 . S
C1087 C1085 1.389 . S
C1087 C1088 1.524 . S
C1088 C1087 1.524 . S
C1088 C1089 1.397 . S
C1088 C1093 1.363 . S
C1089 H1060 0.950 . S
C1089 C1088 1.397 . S
C1089 C1090 1.334 . S
C1090 H1061 0.950 . S
C1090 C1089 1.334 . S
C1090 C1091 1.287 . S
C1091 C1090 1.287 . S
C1091 C1092 1.524 . S
C1091 H1094 0.999 . S
C1092 H1062 0.950 . S
C1092 C1091 1.524 . S
C1092 C1093 1.415 . S
C1093 H1063 0.950 . S
C1093 C1088 1.363 . S
C1093 C1092 1.415 . S
H1094 C1091 0.999 . S
H1095 C1076 0.913 . S
H1096 C1114 0.951 . S
H1097 C1116 0.951 . S
H1098 C1118 0.950 . S
H1099 C1119 0.950 . S
H1100 C1121 0.950 . S
H1101 C1124 0.950 . S
H1102 C1125 0.950 . S
H1103 C1127 0.950 . S
H1104 C1128 0.950 . S
H1105 C1129 0.951 . S
H1106 C1131 0.951 . S
H1107 C1133 0.950 . S
H1108 C1134 0.950 . S
H1109 C1136 0.950 . S
H1110 C1139 0.950 . S
H1111 C1140 0.950 . S
H1112 C1142 0.950 . S
H1113 C1143 0.950 . S
C1114 H1096 0.951 . S
C1114 C1115 1.366 . S
C1114 C1116 1.388 . S
C1115 C1114 1.366 . S
C1115 C1119 1.385 . S
C1116 H1097 0.951 . S
C1116 C1114 1.388 . S
C1116 C1117 1.366 . S
C1117 C1116 1.366 . S
C1117 C1118 1.414 . S
C1117 C1120 1.499 . S
C1118 H1098 0.950 . S
C1118 C1117 1.414 . S
C1118 C1119 1.374 . S
C1119 H1099 0.950 . S
C1119 C1115 1.385 . S
C1119 C1118 1.374 . S
C1120 C1117 1.499 . S
C1120 C1121 1.373 . S
C1120 C1122 1.389 . S
C1121 H1100 0.950 . S
C1121 C1120 1.373 . S
C1121 C1137 1.377 . S
C1122 C1120 1.389 . S
C1122 C1123 1.524 . S
C1122 C1136 1.377 . S
C1123 C1122 1.524 . S
C1123 C1124 1.397 . S
C1123 C1128 1.363 . S
C1124 H1101 0.950 . S
C1124 C1123 1.397 . S
C1124 C1125 1.334 . S
C1125 H1102 0.950 . S
C1125 C1124 1.334 . S
C1125 C1126 1.287 . S
C1126 C1125 1.287 . S
C1126 C1127 1.524 . S
C1126 H1145 0.913 . S
C1127 H1103 0.950 . S
C1127 C1126 1.524 . S
C1127 C1128 1.415 . S
C1128 H1104 0.950 . S
C1128 C1123 1.363 . S
C1128 C1127 1.415 . S
C1129 H1105 0.951 . S
C1129 C1130 1.366 . S
C1129 C1131 1.388 . S
C1130 C1129 1.366 . S
C1130 C1134 1.385 . S
C1131 H1106 0.951 . S
C1131 C1129 1.388 . S
C1131 C1132 1.366 . S
C1132 C1131 1.366 . S
C1132 C1133 1.414 . S
C1132 C1135 1.499 . S
C1133 H1107 0.950 . S
C1133 C1132 1.414 . S
C1133 C1134 1.374 . S
C1134 H1108 0.950 . S
C1134 C1130 1.385 . S
C1134 C1133 1.374 . S
C1135 C1132 1.499 . S
C1135 C1136 1.373 . S
C1135 C1137 1.389 . S
C1136 H1109 0.950 . S
C1136 C1122 1.377 . S
C1136 C1135 1.373 . S
C1137 C1121 1.377 . S
C1137 C1135 1.389 . S
C1137 C1138 1.524 . S
C1138 C1137 1.524 . S
C1138 C1139 1.397 . S
C1138 C1143 1.363 . S
C1139 H1110 0.950 . S
C1139 C1138 1.397 . S
C1139 C1140 1.334 . S
C1140 H1111 0.950 . S
C1140 C1139 1.334 . S
C1140 C1141 1.287 . S
C1141 C1140 1.287 . S
C1141 C1142 1.524 . S
C1141 H1144 0.999 . S
C1142 H1112 0.950 . S
C1142 C1141 1.524 . S
C1142 C1143 1.415 . S
C1143 H1113 0.950 . S
C1143 C1138 1.363 . S
C1143 C1142 1.415 . S
H1144 C1141 0.999 . S
H1145 C1126 0.913 . S
H1146 C1164 0.951 . S
H1147 C1166 0.951 . S
H1148 C1168 0.950 . S
H1149 C1169 0.950 . S
H1150 C1171 0.950 . S
H1151 C1174 0.950 . S
H1152 C1175 0.950 . S
H1153 C1177 0.950 . S
H1154 C1178 0.950 . S
H1155 C1179 0.951 . S
H1156 C1181 0.951 . S
H1157 C1183 0.950 . S
H1158 C1184 0.950 . S
H1159 C1186 0.950 . S
H1160 C1189 0.950 . S
H1161 C1190 0.950 . S
H1162 C1192 0.950 . S
H1163 C1193 0.950 . S
C1164 H1146 0.951 . S
C1164 C1165 1.366 . S
C1164 C1166 1.388 . S
C1165 C1164 1.366 . S
C1165 C1169 1.385 . S
C1166 H1147 0.951 . S
C1166 C1164 1.388 . S
C1166 C1167 1.366 . S
C1167 C1166 1.366 . S
C1167 C1168 1.414 . S
C1167 C1170 1.499 . S
C1168 H1148 0.950 . S
C1168 C1167 1.414 . S
C1168 C1169 1.374 . S
C1169 H1149 0.950 . S
C1169 C1165 1.385 . S
C1169 C1168 1.374 . S
C1170 C1167 1.499 . S
C1170 C1171 1.373 . S
C1170 C1172 1.389 . S
C1171 H1150 0.950 . S
C1171 C1170 1.373 . S
C1171 C1187 1.377 . S
C1172 C1170 1.389 . S
C1172 C1173 1.524 . S
C1172 C1186 1.377 . S
C1173 C1172 1.524 . S
C1173 C1174 1.397 . S
C1173 C1178 1.363 . S
C1174 H1151 0.950 . S
C1174 C1173 1.397 . S
C1174 C1175 1.334 . S
C1175 H1152 0.950 . S
C1175 C1174 1.334 . S
C1175 C1176 1.287 . S
C1176 C1175 1.287 . S
C1176 C1177 1.524 . S
C1176 H1195 0.913 . S
C1177 H1153 0.950 . S
C1177 C1176 1.524 . S
C1177 C1178 1.415 . S
C1178 H1154 0.950 . S
C1178 C1173 1.363 . S
C1178 C1177 1.415 . S
C1179 H1155 0.951 . S
C1179 C1180 1.366 . S
C1179 C1181 1.388 . S
C1180 C1179 1.366 . S
C1180 C1184 1.385 . S
C1181 H1156 0.951 . S
C1181 C1179 1.388 . S
C1181 C1182 1.366 . S
C1182 C1181 1.366 . S
C1182 C1183 1.414 . S
C1182 C1185 1.499 . S
C1183 H1157 0.950 . S
C1183 C1182 1.414 . S
C1183 C1184 1.374 . S
C1184 H1158 0.950 . S
C1184 C1180 1.385 . S
C1184 C1183 1.374 . S
C1185 C1182 1.499 . S
C1185 C1186 1.373 . S
C1185 C1187 1.389 . S
C1186 H1159 0.950 . S
C1186 C1172 1.377 . S
C1186 C1185 1.373 . S
C1187 C1171 1.377 . S
C1187 C1185 1.389 . S
C1187 C1188 1.524 . S
C1188 C1187 1.524 . S
C1188 C1189 1.397 . S
C1188 C1193 1.363 . S
C1189 H1160 0.950 . S
C1189 C1188 1.397 . S
C1189 C1190 1.334 . S
C1190 H1161 0.950 . S
C1190 C1189 1.334 . S
C1190 C1191 1.287 . S
C1191 C1190 1.287 . S
C1191 C1192 1.524 . S
C1191 H1194 0.999 . S
C1192 H1162 0.950 . S
C1192 C1191 1.524 . S
C1192 C1193 1.415 . S
C1193 H1163 0.950 . S
C1193 C1188 1.363 . S
C1193 C1192 1.415 . S
H1194 C1191 0.999 . S
H1195 C1176 0.913 . S
H1196 C1214 0.951 . S
H1197 C1216 0.951 . S
H1198 C1218 0.950 . S
H1199 C1219 0.950 . S
H1200 C1221 0.950 . S
H1201 C1224 0.950 . S
H1202 C1225 0.950 . S
H1203 C1227 0.950 . S
H1204 C1228 0.950 . S
H1205 C1229 0.951 . S
H1206 C1231 0.951 . S
H1207 C1233 0.950 . S
H1208 C1234 0.950 . S
H1209 C1236 0.950 . S
H1210 C1239 0.950 . S
H1211 C1240 0.950 . S
H1212 C1242 0.950 . S
H1213 C1243 0.950 . S
C1214 H1196 0.951 . S
C1214 C1215 1.366 . S
C1214 C1216 1.388 . S
C1215 C1214 1.366 . S
C1215 C1219 1.385 . S
C1216 H1197 0.951 . S
C1216 C1214 1.388 . S
C1216 C1217 1.366 . S
C1217 C1216 1.366 . S
C1217 C1218 1.414 . S
C1217 C1220 1.499 . S
C1218 H1198 0.950 . S
C1218 C1217 1.414 . S
C1218 C1219 1.374 . S
C1219 H1199 0.950 . S
C1219 C1215 1.385 . S
C1219 C1218 1.374 . S
C1220 C1217 1.499 . S
C1220 C1221 1.373 . S
C1220 C1222 1.389 . S
C1221 H1200 0.950 . S
C1221 C1220 1.373 . S
C1221 C1237 1.377 . S
C1222 C1220 1.389 . S
C1222 C1223 1.524 . S
C1222 C1236 1.377 . S
C1223 C1222 1.524 . S
C1223 C1224 1.397 . S
C1223 C1228 1.363 . S
C1224 H1201 0.950 . S
C1224 C1223 1.397 . S
C1224 C1225 1.334 . S
C1225 H1202 0.950 . S
C1225 C1224 1.334 . S
C1225 C1226 1.287 . S
C1226 C1225 1.287 . S
C1226 C1227 1.524 . S
C1226 H1245 0.913 . S
C1227 H1203 0.950 . S
C1227 C1226 1.524 . S
C1227 C1228 1.415 . S
C1228 H1204 0.950 . S
C1228 C1223 1.363 . S
C1228 C1227 1.415 . S
C1229 H1205 0.951 . S
C1229 C1230 1.366 . S
C1229 C1231 1.388 . S
C1230 C1229 1.366 . S
C1230 C1234 1.385 . S
C1231 H1206 0.951 . S
C1231 C1229 1.388 . S
C1231 C1232 1.366 . S
C1232 C1231 1.366 . S
C1232 C1233 1.414 . S
C1232 C1235 1.499 . S
C1233 H1207 0.950 . S
C1233 C1232 1.414 . S
C1233 C1234 1.374 . S
C1234 H1208 0.950 . S
C1234 C1230 1.385 . S
C1234 C1233 1.374 . S
C1235 C1232 1.499 . S
C1235 C1236 1.373 . S
C1235 C1237 1.389 . S
C1236 H1209 0.950 . S
C1236 C1222 1.377 . S
C1236 C1235 1.373 . S
C1237 C1221 1.377 . S
C1237 C1235 1.389 . S
C1237 C1238 1.524 . S
C1238 C1237 1.524 . S
C1238 C1239 1.397 . S
C1238 C1243 1.363 . S
C1239 H1210 0.950 . S
C1239 C1238 1.397 . S
C1239 C1240 1.334 . S
C1240 H1211 0.950 . S
C1240 C1239 1.334 . S
C1240 C1241 1.287 . S
C1241 C1240 1.287 . S
C1241 C1242 1.524 . S
C1241 H1244 0.999 . S
C1242 H1212 0.950 . S
C1242 C1241 1.524 . S
C1242 C1243 1.415 . S
C1243 H1213 0.950 . S
C1243 C1238 1.363 . S
C1243 C1242 1.415 . S
H1244 C1241 0.999 . S
H1245 C1226 0.913 . S
H1246 C1264 0.951 . S
H1247 C1266 0.951 . S
H1248 C1268 0.950 . S
H1249 C1269 0.950 . S
H1250 C1271 0.950 . S
H1251 C1274 0.950 . S
H1252 C1275 0.950 . S
H1253 C1277 0.950 . S
H1254 C1278 0.950 . S
H1255 C1279 0.951 . S
H1256 C1281 0.951 . S
H1257 C1283 0.950 . S
H1258 C1284 0.950 . S
H1259 C1286 0.950 . S
H1260 C1289 0.950 . S
H1261 C1290 0.950 . S
H1262 C1292 0.950 . S
H1263 C1293 0.950 . S
C1264 H1246 0.951 . S
C1264 C1265 1.366 . S
C1264 C1266 1.388 . S
C1265 C1264 1.366 . S
C1265 C1269 1.385 . S
C1266 H1247 0.951 . S
C1266 C1264 1.388 . S
C1266 C1267 1.366 . S
C1267 C1266 1.366 . S
C1267 C1268 1.414 . S
C1267 C1270 1.499 . S
C1268 H1248 0.950 . S
C1268 C1267 1.414 . S
C1268 C1269 1.374 . S
C1269 H1249 0.950 . S
C1269 C1265 1.385 . S
C1269 C1268 1.374 . S
C1270 C1267 1.499 . S
C1270 C1271 1.373 . S
C1270 C1272 1.389 . S
C1271 H1250 0.950 . S
C1271 C1270 1.373 . S
C1271 C1287 1.377 . S
C1272 C1270 1.389 . S
C1272 C1273 1.524 . S
C1272 C1286 1.377 . S
C1273 C1272 1.524 . S
C1273 C1274 1.397 . S
C1273 C1278 1.363 . S
C1274 H1251 0.950 . S
C1274 C1273 1.397 . S
C1274 C1275 1.334 . S
C1275 H1252 0.950 . S
C1275 C1274 1.334 . S
C1275 C1276 1.287 . S
C1276 C1275 1.287 . S
C1276 C1277 1.524 . S
C1276 H1295 0.913 . S
C1277 H1253 0.950 . S
C1277 C1276 1.524 . S
C1277 C1278 1.415 . S
C1278 H1254 0.950 . S
C1278 C1273 1.363 . S
C1278 C1277 1.415 . S
C1279 H1255 0.951 . S
C1279 C1280 1.366 . S
C1279 C1281 1.388 . S
C1280 C1279 1.366 . S
C1280 C1284 1.385 . S
C1281 H1256 0.951 . S
C1281 C1279 1.388 . S
C1281 C1282 1.366 . S
C1282 C1281 1.366 . S
C1282 C1283 1.414 . S
C1282 C1285 1.499 . S
C1283 H1257 0.950 . S
C1283 C1282 1.414 . S
C1283 C1284 1.374 . S
C1284 H1258 0.950 . S
C1284 C1280 1.385 . S
C1284 C1283 1.374 . S
C1285 C1282 1.499 . S
C1285 C1286 1.373 . S
C1285 C1287 1.389 . S
C1286 H1259 0.950 . S
C1286 C1272 1.377 . S
C1286 C1285 1.373 . S
C1287 C1271 1.377 . S
C1287 C1285 1.389 . S
C1287 C1288 1.524 . S
C1288 C1287 1.524 . S
C1288 C1289 1.397 . S
C1288 C1293 1.363 . S
C1289 H1260 0.950 . S
C1289 C1288 1.397 . S
C1289 C1290 1.334 . S
C1290 H1261 0.950 . S
C1290 C1289 1.334 . S
C1290 C1291 1.287 . S
C1291 C1290 1.287 . S
C1291 C1292 1.524 . S
C1291 H1294 0.999 . S
C1292 H1262 0.950 . S
C1292 C1291 1.524 . S
C1292 C1293 1.415 . S
C1293 H1263 0.950 . S
C1293 C1288 1.363 . S
C1293 C1292 1.415 . S
H1294 C1291 0.999 . S
H1295 C1276 0.913 . S
H1296 C1314 0.951 . S
H1297 C1316 0.951 . S
H1298 C1318 0.950 . S
H1299 C1319 0.950 . S
H1300 C1321 0.950 . S
H1301 C1324 0.950 . S
H1302 C1325 0.950 . S
H1303 C1327 0.950 . S
H1304 C1328 0.950 . S
H1305 C1329 0.951 . S
H1306 C1331 0.951 . S
H1307 C1333 0.950 . S
H1308 C1334 0.950 . S
H1309 C1336 0.950 . S
H1310 C1339 0.950 . S
H1311 C1340 0.950 . S
H1312 C1342 0.950 . S
H1313 C1343 0.950 . S
C1314 H1296 0.951 . S
C1314 C1315 1.366 . S
C1314 C1316 1.388 . S
C1315 C1314 1.366 . S
C1315 C1319 1.385 . S
C1316 H1297 0.951 . S
C1316 C1314 1.388 . S
C1316 C1317 1.366 . S
C1317 C1316 1.366 . S
C1317 C1318 1.414 . S
C1317 C1320 1.499 . S
C1318 H1298 0.950 . S
C1318 C1317 1.414 . S
C1318 C1319 1.374 . S
C1319 H1299 0.950 . S
C1319 C1315 1.385 . S
C1319 C1318 1.374 . S
C1320 C1317 1.499 . S
C1320 C1321 1.373 . S
C1320 C1322 1.389 . S
C1321 H1300 0.950 . S
C1321 C1320 1.373 . S
C1321 C1337 1.377 . S
C1322 C1320 1.389 . S
C1322 C1323 1.524 . S
C1322 C1336 1.377 . S
C1323 C1322 1.524 . S
C1323 C1324 1.397 . S
C1323 C1328 1.363 . S
C1324 H1301 0.950 . S
C1324 C1323 1.397 . S
C1324 C1325 1.334 . S
C1325 H1302 0.950 . S
C1325 C1324 1.334 . S
C1325 C1326 1.287 . S
C1326 C1325 1.287 . S
C1326 C1327 1.524 . S
C1326 H1345 0.913 . S
C1327 H1303 0.950 . S
C1327 C1326 1.524 . S
C1327 C1328 1.415 . S
C1328 H1304 0.950 . S
C1328 C1323 1.363 . S
C1328 C1327 1.415 . S
C1329 H1305 0.951 . S
C1329 C1330 1.366 . S
C1329 C1331 1.388 . S
C1330 C1329 1.366 . S
C1330 C1334 1.385 . S
C1331 H1306 0.951 . S
C1331 C1329 1.388 . S
C1331 C1332 1.366 . S
C1332 C1331 1.366 . S
C1332 C1333 1.414 . S
C1332 C1335 1.499 . S
C1333 H1307 0.950 . S
C1333 C1332 1.414 . S
C1333 C1334 1.374 . S
C1334 H1308 0.950 . S
C1334 C1330 1.385 . S
C1334 C1333 1.374 . S
C1335 C1332 1.499 . S
C1335 C1336 1.373 . S
C1335 C1337 1.389 . S
C1336 H1309 0.950 . S
C1336 C1322 1.377 . S
C1336 C1335 1.373 . S
C1337 C1321 1.377 . S
C1337 C1335 1.389 . S
C1337 C1338 1.524 . S
C1338 C1337 1.524 . S
C1338 C1339 1.397 . S
C1338 C1343 1.363 . S
C1339 H1310 0.950 . S
C1339 C1338 1.397 . S
C1339 C1340 1.334 . S
C1340 H1311 0.950 . S
C1340 C1339 1.334 . S
C1340 C1341 1.287 . S
C1341 C1340 1.287 . S
C1341 C1342 1.524 . S
C1341 H1344 0.999 . S
C1342 H1312 0.950 . S
C1342 C1341 1.524 . S
C1342 C1343 1.415 . S
C1343 H1313 0.950 . S
C1343 C1338 1.363 . S
C1343 C1342 1.415 . S
H1344 C1341 0.999 . S
H1345 C1326 0.913 . S
H1346 C1364 0.951 . S
H1347 C1366 0.951 . S
H1348 C1368 0.950 . S
H1349 C1369 0.950 . S
H1350 C1371 0.950 . S
H1351 C1374 0.950 . S
H1352 C1375 0.950 . S
H1353 C1377 0.950 . S
H1354 C1378 0.950 . S
H1355 C1379 0.951 . S
H1356 C1381 0.951 . S
H1357 C1383 0.950 . S
H1358 C1384 0.950 . S
H1359 C1386 0.950 . S
H1360 C1389 0.950 . S
H1361 C1390 0.950 . S
H1362 C1392 0.950 . S
H1363 C1393 0.950 . S
C1364 H1346 0.951 . S
C1364 C1365 1.366 . S
C1364 C1366 1.388 . S
C1365 C1364 1.366 . S
C1365 C1369 1.385 . S
C1366 H1347 0.951 . S
C1366 C1364 1.388 . S
C1366 C1367 1.366 . S
C1367 C1366 1.366 . S
C1367 C1368 1.414 . S
C1367 C1370 1.499 . S
C1368 H1348 0.950 . S
C1368 C1367 1.414 . S
C1368 C1369 1.374 . S
C1369 H1349 0.950 . S
C1369 C1365 1.385 . S
C1369 C1368 1.374 . S
C1370 C1367 1.499 . S
C1370 C1371 1.373 . S
C1370 C1372 1.389 . S
C1371 H1350 0.950 . S
C1371 C1370 1.373 . S
C1371 C1387 1.377 . S
C1372 C1370 1.389 . S
C1372 C1373 1.524 . S
C1372 C1386 1.377 . S
C1373 C1372 1.524 . S
C1373 C1374 1.397 . S
C1373 C1378 1.363 . S
C1374 H1351 0.950 . S
C1374 C1373 1.397 . S
C1374 C1375 1.334 . S
C1375 H1352 0.950 . S
C1375 C1374 1.334 . S
C1375 C1376 1.287 . S
C1376 C1375 1.287 . S
C1376 C1377 1.524 . S
C1376 H1395 0.913 . S
C1377 H1353 0.950 . S
C1377 C1376 1.524 . S
C1377 C1378 1.415 . S
C1378 H1354 0.950 . S
C1378 C1373 1.363 . S
C1378 C1377 1.415 . S
C1379 H1355 0.951 . S
C1379 C1380 1.366 . S
C1379 C1381 1.388 . S
C1380 C1379 1.366 . S
C1380 C1384 1.385 . S
C1381 H1356 0.951 . S
C1381 C1379 1.388 . S
C1381 C1382 1.366 . S
C1382 C1381 1.366 . S
C1382 C1383 1.414 . S
C1382 C1385 1.499 . S
C1383 H1357 0.950 . S
C1383 C1382 1.414 . S
C1383 C1384 1.374 . S
C1384 H1358 0.950 . S
C1384 C1380 1.385 . S
C1384 C1383 1.374 . S
C1385 C1382 1.499 . S
C1385 C1386 1.373 . S
C1385 C1387 1.389 . S
C1386 H1359 0.950 . S
C1386 C1372 1.377 . S
C1386 C1385 1.373 . S
C1387 C1371 1.377 . S
C1387 C1385 1.389 . S
C1387 C1388 1.524 . S
C1388 C1387 1.524 . S
C1388 C1389 1.397 . S
C1388 C1393 1.363 . S
C1389 H1360 0.950 . S
C1389 C1388 1.397 . S
C1389 C1390 1.334 . S
C1390 H1361 0.950 . S
C1390 C1389 1.334 . S
C1390 C1391 1.287 . S
C1391 C1390 1.287 . S
C1391 C1392 1.524 . S
C1391 H1394 0.999 . S
C1392 H1362 0.950 . S
C1392 C1391 1.524 . S
C1392 C1393 1.415 . S
C1393 H1363 0.950 . S
C1393 C1388 1.363 . S
C1393 C1392 1.415 . S
H1394 C1391 0.999 . S
H1395 C1376 0.913 . S
H1396 C1414 0.951 . S
H1397 C1416 0.951 . S
H1398 C1418 0.950 . S
H1399 C1419 0.950 . S
H1400 C1421 0.950 . S
H1401 C1424 0.950 . S
H1402 C1425 0.950 . S
H1403 C1427 0.950 . S
H1404 C1428 0.950 . S
H1405 C1429 0.951 . S
H1406 C1431 0.951 . S
H1407 C1433 0.950 . S
H1408 C1434 0.950 . S
H1409 C1436 0.950 . S
H1410 C1439 0.950 . S
H1411 C1440 0.950 . S
H1412 C1442 0.950 . S
H1413 C1443 0.950 . S
C1414 H1396 0.951 . S
C1414 C1415 1.366 . S
C1414 C1416 1.388 . S
C1415 C1414 1.366 . S
C1415 C1419 1.385 . S
C1416 H1397 0.951 . S
C1416 C1414 1.388 . S
C1416 C1417 1.366 . S
C1417 C1416 1.366 . S
C1417 C1418 1.414 . S
C1417 C1420 1.499 . S
C1418 H1398 0.950 . S
C1418 C1417 1.414 . S
C1418 C1419 1.374 . S
C1419 H1399 0.950 . S
C1419 C1415 1.385 . S
C1419 C1418 1.374 . S
C1420 C1417 1.499 . S
C1420 C1421 1.373 . S
C1420 C1422 1.389 . S
C1421 H1400 0.950 . S
C1421 C1420 1.373 . S
C1421 C1437 1.377 . S
C1422 C1420 1.389 . S
C1422 C1423 1.524 . S
C1422 C1436 1.377 . S
C1423 C1422 1.524 . S
C1423 C1424 1.397 . S
C1423 C1428 1.363 . S
C1424 H1401 0.950 . S
C1424 C1423 1.397 . S
C1424 C1425 1.334 . S
C1425 H1402 0.950 . S
C1425 C1424 1.334 . S
C1425 C1426 1.287 . S
C1426 C1425 1.287 . S
C1426 C1427 1.524 . S
C1426 H1445 0.913 . S
C1427 H1403 0.950 . S
C1427 C1426 1.524 . S
C1427 C1428 1.415 . S
C1428 H1404 0.950 . S
C1428 C1423 1.363 . S
C1428 C1427 1.415 . S
C1429 H1405 0.951 . S
C1429 C1430 1.366 . S
C1429 C1431 1.388 . S
C1430 C1429 1.366 . S
C1430 C1434 1.385 . S
C1431 H1406 0.951 . S
C1431 C1429 1.388 . S
C1431 C1432 1.366 . S
C1432 C1431 1.366 . S
C1432 C1433 1.414 . S
C1432 C1435 1.499 . S
C1433 H1407 0.950 . S
C1433 C1432 1.414 . S
C1433 C1434 1.374 . S
C1434 H1408 0.950 . S
C1434 C1430 1.385 . S
C1434 C1433 1.374 . S
C1435 C1432 1.499 . S
C1435 C1436 1.373 . S
C1435 C1437 1.389 . S
C1436 H1409 0.950 . S
C1436 C1422 1.377 . S
C1436 C1435 1.373 . S
C1437 C1421 1.377 . S
C1437 C1435 1.389 . S
C1437 C1438 1.524 . S
C1438 C1437 1.524 . S
C1438 C1439 1.397 . S
C1438 C1443 1.363 . S
C1439 H1410 0.950 . S
C1439 C1438 1.397 . S
C1439 C1440 1.334 . S
C1440 H1411 0.950 . S
C1440 C1439 1.334 . S
C1440 C1441 1.287 . S
C1441 C1440 1.287 . S
C1441 C1442 1.524 . S
C1441 H1444 0.999 . S
C1442 H1412 0.950 . S
C1442 C1441 1.524 . S
C1442 C1443 1.415 . S
C1443 H1413 0.950 . S
C1443 C1438 1.363 . S
C1443 C1442 1.415 . S
H1444 C1441 0.999 . S
H1445 C1426 0.913 . S
H1446 C1464 0.951 . S
H1447 C1466 0.951 . S
H1448 C1468 0.950 . S
H1449 C1469 0.950 . S
H1450 C1471 0.950 . S
H1451 C1474 0.950 . S
H1452 C1475 0.950 . S
H1453 C1477 0.950 . S
H1454 C1478 0.950 . S
H1455 C1479 0.951 . S
H1456 C1481 0.951 . S
H1457 C1483 0.950 . S
H1458 C1484 0.950 . S
H1459 C1486 0.950 . S
H1460 C1489 0.950 . S
H1461 C1490 0.950 . S
H1462 C1492 0.950 . S
H1463 C1493 0.950 . S
C1464 H1446 0.951 . S
C1464 C1465 1.366 . S
C1464 C1466 1.388 . S
C1465 C1464 1.366 . S
C1465 C1469 1.385 . S
C1466 H1447 0.951 . S
C1466 C1464 1.388 . S
C1466 C1467 1.366 . S
C1467 C1466 1.366 . S
C1467 C1468 1.414 . S
C1467 C1470 1.499 . S
C1468 H1448 0.950 . S
C1468 C1467 1.414 . S
C1468 C1469 1.374 . S
C1469 H1449 0.950 . S
C1469 C1465 1.385 . S
C1469 C1468 1.374 . S
C1470 C1467 1.499 . S
C1470 C1471 1.373 . S
C1470 C1472 1.389 . S
C1471 H1450 0.950 . S
C1471 C1470 1.373 . S
C1471 C1487 1.377 . S
C1472 C1470 1.389 . S
C1472 C1473 1.524 . S
C1472 C1486 1.377 . S
C1473 C1472 1.524 . S
C1473 C1474 1.397 . S
C1473 C1478 1.363 . S
C1474 H1451 0.950 . S
C1474 C1473 1.397 . S
C1474 C1475 1.334 . S
C1475 H1452 0.950 . S
C1475 C1474 1.334 . S
C1475 C1476 1.287 . S
C1476 C1475 1.287 . S
C1476 C1477 1.524 . S
C1476 H1495 0.913 . S
C1477 H1453 0.950 . S
C1477 C1476 1.524 . S
C1477 C1478 1.415 . S
C1478 H1454 0.950 . S
C1478 C1473 1.363 . S
C1478 C1477 1.415 . S
C1479 H1455 0.951 . S
C1479 C1480 1.366 . S
C1479 C1481 1.388 . S
C1480 C1479 1.366 . S
C1480 C1484 1.385 . S
C1481 H1456 0.951 . S
C1481 C1479 1.388 . S
C1481 C1482 1.366 . S
C1482 C1481 1.366 . S
C1482 C1483 1.414 . S
C1482 C1485 1.499 . S
C1483 H1457 0.950 . S
C1483 C1482 1.414 . S
C1483 C1484 1.374 . S
C1484 H1458 0.950 . S
C1484 C1480 1.385 . S
C1484 C1483 1.374 . S
C1485 C1482 1.499 . S
C1485 C1486 1.373 . S
C1485 C1487 1.389 . S
C1486 H1459 0.950 . S
C1486 C1472 1.377 . S
C1486 C1485 1.373 . S
C1487 C1471 1.377 . S
C1487 C1485 1.389 . S
C1487 C1488 1.524 . S
C1488 C1487 1.524 . S
C1488 C1489 1.397 . S
C1488 C1493 1.363 . S
C1489 H1460 0.950 . S
C1489 C1488 1.397 . S
C1489 C1490 1.334 . S
C1490 H1461 0.950 . S
C1490 C1489 1.334 . S
C1490 C1491 1.287 . S
C1491 C1490 1.287 . S
C1491 C1492 1.524 . S
C1491 H1494 0.999 . S
C1492 H1462 0.950 . S
C1492 C1491 1.524 . S
C1492 C1493 1.415 . S
C1493 H1463 0.950 . S
C1493 C1488 1.363 . S
C1493 C1492 1.415 . S
H1494 C1491 0.999 . S
H1495 C1476 0.913 . S
H1496 C1514 0.951 . S
H1497 C1516 0.951 . S
H1498 C1518 0.950 . S
H1499 C1519 0.950 . S
H1500 C1521 0.950 . S
H1501 C1524 0.950 . S
H1502 C1525 0.950 . S
H1503 C1527 0.950 . S
H1504 C1528 0.950 . S
H1505 C1529 0.951 . S
H1506 C1531 0.951 . S
H1507 C1533 0.950 . S
H1508 C1534 0.950 . S
H1509 C1536 0.950 . S
H1510 C1539 0.950 . S
H1511 C1540 0.950 . S
H1512 C1542 0.950 . S
H1513 C1543 0.950 . S
C1514 H1496 0.951 . S
C1514 C1515 1.366 . S
C1514 C1516 1.388 . S
C1515 C1514 1.366 . S
C1515 C1519 1.385 . S
C1516 H1497 0.951 . S
C1516 C1514 1.388 . S
C1516 C1517 1.366 . S
C1517 C1516 1.366 . S
C1517 C1518 1.414 . S
C1517 C1520 1.499 . S
C1518 H1498 0.950 . S
C1518 C1517 1.414 . S
C1518 C1519 1.374 . S
C1519 H1499 0.950 . S
C1519 C1515 1.385 . S
C1519 C1518 1.374 . S
C1520 C1517 1.499 . S
C1520 C1521 1.373 . S
C1520 C1522 1.389 . S
C1521 H1500 0.950 . S
C1521 C1520 1.373 . S
C1521 C1537 1.377 . S
C1522 C1520 1.389 . S
C1522 C1523 1.524 . S
C1522 C1536 1.377 . S
C1523 C1522 1.524 . S
C1523 C1524 1.397 . S
C1523 C1528 1.363 . S
C1524 H1501 0.950 . S
C1524 C1523 1.397 . S
C1524 C1525 1.334 . S
C1525 H1502 0.950 . S
C1525 C1524 1.334 . S
C1525 C1526 1.287 . S
C1526 C1525 1.287 . S
C1526 C1527 1.524 . S
C1526 H1545 0.913 . S
C1527 H1503 0.950 . S
C1527 C1526 1.524 . S
C1527 C1528 1.415 . S
C1528 H1504 0.950 . S
C1528 C1523 1.363 . S
C1528 C1527 1.415 . S
C1529 H1505 0.951 . S
C1529 C1530 1.366 . S
C1529 C1531 1.388 . S
C1530 C1529 1.366 . S
C1530 C1534 1.385 . S
C1531 H1506 0.951 . S
C1531 C1529 1.388 . S
C1531 C1532 1.366 . S
C1532 C1531 1.366 . S
C1532 C1533 1.414 . S
C1532 C1535 1.499 . S
C1533 H1507 0.950 . S
C1533 C1532 1.414 . S
C1533 C1534 1.374 . S
C1534 H1508 0.950 . S
C1534 C1530 1.385 . S
C1534 C1533 1.374 . S
C1535 C1532 1.499 . S
C1535 C1536 1.373 . S
C1535 C1537 1.389 . S
C1536 H1509 0.950 . S
C1536 C1522 1.377 . S
C1536 C1535 1.373 . S
C1537 C1521 1.377 . S
C1537 C1535 1.389 . S
C1537 C1538 1.524 . S
C1538 C1537 1.524 . S
C1538 C1539 1.397 . S
C1538 C1543 1.363 . S
C1539 H1510 0.950 . S
C1539 C1538 1.397 . S
C1539 C1540 1.334 . S
C1540 H1511 0.950 . S
C1540 C1539 1.334 . S
C1540 C1541 1.287 . S
C1541 C1540 1.287 . S
C1541 C1542 1.524 . S
C1541 H1544 0.999 . S
C1542 H1512 0.950 . S
C1542 C1541 1.524 . S
C1542 C1543 1.415 . S
C1543 H1513 0.950 . S
C1543 C1538 1.363 . S
C1543 C1542 1.415 . S
H1544 C1541 0.999 . S
H1545 C1526 0.913 . S
H1546 C1564 0.951 . S
H1547 C1566 0.951 . S
H1548 C1568 0.950 . S
H1549 C1569 0.950 . S
H1550 C1571 0.950 . S
H1551 C1574 0.950 . S
H1552 C1575 0.950 . S
H1553 C1577 0.950 . S
H1554 C1578 0.950 . S
H1555 C1579 0.951 . S
H1556 C1581 0.951 . S
H1557 C1583 0.950 . S
H1558 C1584 0.950 . S
H1559 C1586 0.950 . S
H1560 C1589 0.950 . S
H1561 C1590 0.950 . S
H1562 C1592 0.950 . S
H1563 C1593 0.950 . S
C1564 H1546 0.951 . S
C1564 C1565 1.366 . S
C1564 C1566 1.388 . S
C1565 C1564 1.366 . S
C1565 C1569 1.385 . S
C1566 H1547 0.951 . S
C1566 C1564 1.388 . S
C1566 C1567 1.366 . S
C1567 C1566 1.366 . S
C1567 C1568 1.414 . S
C1567 C1570 1.499 . S
C1568 H1548 0.950 . S
C1568 C1567 1.414 . S
C1568 C1569 1.374 . S
C1569 H1549 0.950 . S
C1569 C1565 1.385 . S
C1569 C1568 1.374 . S
C1570 C1567 1.499 . S
C1570 C1571 1.373 . S
C1570 C1572 1.389 . S
C1571 H1550 0.950 . S
C1571 C1570 1.373 . S
C1571 C1587 1.377 . S
C1572 C1570 1.389 . S
C1572 C1573 1.524 . S
C1572 C1586 1.377 . S
C1573 C1572 1.524 . S
C1573 C1574 1.397 . S
C1573 C1578 1.363 . S
C1574 H1551 0.950 . S
C1574 C1573 1.397 . S
C1574 C1575 1.334 . S
C1575 H1552 0.950 . S
C1575 C1574 1.334 . S
C1575 C1576 1.287 . S
C1576 C1575 1.287 . S
C1576 C1577 1.524 . S
C1576 H1595 0.913 . S
C1577 H1553 0.950 . S
C1577 C1576 1.524 . S
C1577 C1578 1.415 . S
C1578 H1554 0.950 . S
C1578 C1573 1.363 . S
C1578 C1577 1.415 . S
C1579 H1555 0.951 . S
C1579 C1580 1.366 . S
C1579 C1581 1.388 . S
C1580 C1579 1.366 . S
C1580 C1584 1.385 . S
C1581 H1556 0.951 . S
C1581 C1579 1.388 . S
C1581 C1582 1.366 . S
C1582 C1581 1.366 . S
C1582 C1583 1.414 . S
C1582 C1585 1.499 . S
C1583 H1557 0.950 . S
C1583 C1582 1.414 . S
C1583 C1584 1.374 . S
C1584 H1558 0.950 . S
C1584 C1580 1.385 . S
C1584 C1583 1.374 . S
C1585 C1582 1.499 . S
C1585 C1586 1.373 . S
C1585 C1587 1.389 . S
C1586 H1559 0.950 . S
C1586 C1572 1.377 . S
C1586 C1585 1.373 . S
C1587 C1571 1.377 . S
C1587 C1585 1.389 . S
C1587 C1588 1.524 . S
C1588 C1587 1.524 . S
C1588 C1589 1.397 . S
C1588 C1593 1.363 . S
C1589 H1560 0.950 . S
C1589 C1588 1.397 . S
C1589 C1590 1.334 . S
C1590 H1561 0.950 . S
C1590 C1589 1.334 . S
C1590 C1591 1.287 . S
C1591 C1590 1.287 . S
C1591 C1592 1.524 . S
C1591 H1594 0.999 . S
C1592 H1562 0.950 . S
C1592 C1591 1.524 . S
C1592 C1593 1.415 . S
C1593 H1563 0.950 . S
C1593 C1588 1.363 . S
C1593 C1592 1.415 . S
H1594 C1591 0.999 . S
H1595 C1576 0.913 . S
H1596 C1614 0.951 . S
H1597 C1616 0.951 . S
H1598 C1618 0.950 . S
H1599 C1619 0.950 . S
H1600 C1621 0.950 . S
H1601 C1624 0.950 . S
H1602 C1625 0.950 . S
H1603 C1627 0.950 . S
H1604 C1628 0.950 . S
H1605 C1629 0.951 . S
H1606 C1631 0.951 . S
H1607 C1633 0.950 . S
H1608 C1634 0.950 . S
H1609 C1636 0.950 . S
H1610 C1639 0.950 . S
H1611 C1640 0.950 . S
H1612 C1642 0.950 . S
H1613 C1643 0.950 . S
C1614 H1596 0.951 . S
C1614 C1615 1.366 . S
C1614 C1616 1.388 . S
C1615 C1614 1.366 . S
C1615 C1619 1.385 . S
C1616 H1597 0.951 . S
C1616 C1614 1.388 . S
C1616 C1617 1.366 . S
C1617 C1616 1.366 . S
C1617 C1618 1.414 . S
C1617 C1620 1.499 . S
C1618 H1598 0.950 . S
C1618 C1617 1.414 . S
C1618 C1619 1.374 . S
C1619 H1599 0.950 . S
C1619 C1615 1.385 . S
C1619 C1618 1.374 . S
C1620 C1617 1.499 . S
C1620 C1621 1.373 . S
C1620 C1622 1.389 . S
C1621 H1600 0.950 . S
C1621 C1620 1.373 . S
C1621 C1637 1.377 . S
C1622 C1620 1.389 . S
C1622 C1623 1.524 . S
C1622 C1636 1.377 . S
C1623 C1622 1.524 . S
C1623 C1624 1.397 . S
C1623 C1628 1.363 . S
C1624 H1601 0.950 . S
C1624 C1623 1.397 . S
C1624 C1625 1.334 . S
C1625 H1602 0.950 . S
C1625 C1624 1.334 . S
C1625 C1626 1.287 . S
C1626 C1625 1.287 . S
C1626 C1627 1.524 . S
C1626 H1645 0.913 . S
C1627 H1603 0.950 . S
C1627 C1626 1.524 . S
C1627 C1628 1.415 . S
C1628 H1604 0.950 . S
C1628 C1623 1.363 . S
C1628 C1627 1.415 . S
C1629 H1605 0.951 . S
C1629 C1630 1.366 . S
C1629 C1631 1.388 . S
C1630 C1629 1.366 . S
C1630 C1634 1.385 . S
C1631 H1606 0.951 . S
C1631 C1629 1.388 . S
C1631 C1632 1.366 . S
C1632 C1631 1.366 . S
C1632 C1633 1.414 . S
C1632 C1635 1.499 . S
C1633 H1607 0.950 . S
C1633 C1632 1.414 . S
C1633 C1634 1.374 . S
C1634 H1608 0.950 . S
C1634 C1630 1.385 . S
C1634 C1633 1.374 . S
C1635 C1632 1.499 . S
C1635 C1636 1.373 . S
C1635 C1637 1.389 . S
C1636 H1609 0.950 . S
C1636 C1622 1.377 . S
C1636 C1635 1.373 . S
C1637 C1621 1.377 . S
C1637 C1635 1.389 . S
C1637 C1638 1.524 . S
C1638 C1637 1.524 . S
C1638 C1639 1.397 . S
C1638 C1643 1.363 . S
C1639 H1610 0.950 . S
C1639 C1638 1.397 . S
C1639 C1640 1.334 . S
C1640 H1611 0.950 . S
C1640 C1639 1.334 . S
C1640 C1641 1.287 . S
C1641 C1640 1.287 . S
C1641 C1642 1.524 . S
C1641 H1644 0.999 . S
C1642 H1612 0.950 . S
C1642 C1641 1.524 . S
C1642 C1643 1.415 . S
C1643 H1613 0.950 . S
C1643 C1638 1.363 . S
C1643 C1642 1.415 . S
H1644 C1641 0.999 . S
H1645 C1626 0.913 . S
C480 C337 1.584 . S
C465 C15 1.669 . S
C530 C350 1.478 . S
C515 C55 1.614 . S
C580 C332 1.617 . S
C565 C101 1.671 . S
C630 C360 1.517 . S
C615 C141 1.638 . S
C680 C371 1.452 . S
C665 C2 1.527 . S
C730 C392 1.518 . S
C715 C61 1.614 . S
C765 C95 1.584 . S
C780 C421 1.487 . S
C830 C442 1.569 . S
C815 C135 1.646 . S
C880 C381 1.458 . S
C865 C42 1.520 . S
C915 C82 1.653 . S
C930 C402 1.576 . S
C980 C416 1.466 . S
C965 C122 1.570 . S
C1030 C437 1.597 . S
C1015 C21 1.650 . S
C1065 C162 1.655 . S
C1080 C358 1.493 . S
C1130 C329 1.647 . S
C1115 C221 1.728 . S
C1165 C255 1.653 . S
C1180 C353 1.474 . S
C1215 C282 1.669 . S
C1230 C339 1.631 . S
C1280 C423 1.512 . S
C1265 C181 1.588 . S
C1330 C444 1.640 . S
C1315 C202 1.691 . S
C1380 C374 1.432 . S
C1365 C242 1.557 . S
C1415 C301 1.680 . S
C1430 C395 1.540 . S
C1480 C413 1.511 . S
C1465 C215 1.599 . S
C1530 C434 1.614 . S
C1515 C261 1.678 . S
C1580 C379 1.437 . S
C1565 C295 1.551 . S
C1615 C175 1.657 . S
C1630 C400 1.516 . S
