# Generated by pormake.
# Topology ctn, (3,4)-cn, num edge types: 1
# Building blocks:
#     Node 0, Type 0, BuildingBlock: BELTOD_clean_linker_0, # of connection points: 3
#     Node 1, Type 0, BuildingBlock: BELTOD_clean_linker_0, # of connection points: 3
#     Node 2, Type 0, BuildingBlock: BELTOD_clean_linker_0, # of connection points: 3
#     Node 3, Type 0, BuildingBlock: BELTOD_clean_linker_0, # of connection points: 3
#     Node 4, Type 0, BuildingBlock: BELTOD_clean_linker_0, # of connection points: 3
#     Node 5, Type 0, BuildingBlock: BELTOD_clean_linker_0, # of connection points: 3
#     Node 6, Type 0, BuildingBlock: BELTOD_clean_linker_0, # of connection points: 3
#     Node 7, Type 0, BuildingBlock: BELTOD_clean_linker_0, # of connection points: 3
#     Node 8, Type 0, BuildingBlock: BELTOD_clean_linker_0, # of connection points: 3
#     Node 9, Type 0, BuildingBlock: BELTOD_clean_linker_0, # of connection points: 3
#     Node 10, Type 0, BuildingBlock: BELTOD_clean_linker_0, # of connection points: 3
#     Node 11, Type 0, BuildingBlock: BELTOD_clean_linker_0, # of connection points: 3
#     Node 12, Type 0, BuildingBlock: BELTOD_clean_linker_0, # of connection points: 3
#     Node 13, Type 0, BuildingBlock: BELTOD_clean_linker_0, # of connection points: 3
#     Node 14, Type 0, BuildingBlock: BELTOD_clean_linker_0, # of connection points: 3
#     Node 15, Type 0, BuildingBlock: BELTOD_clean_linker_0, # of connection points: 3
#     Node 16, Type 1, BuildingBlock: TATPOV_clean_sbu_0, # of connection points: 4
#     Node 17, Type 1, BuildingBlock: TATPOV_clean_sbu_0, # of connection points: 4
#     Node 18, Type 1, BuildingBlock: TATPOV_clean_sbu_0, # of connection points: 4
#     Node 19, Type 1, BuildingBlock: TATPOV_clean_sbu_0, # of connection points: 4
#     Node 20, Type 1, BuildingBlock: TATPOV_clean_sbu_0, # of connection points: 4
#     Node 21, Type 1, BuildingBlock: TATPOV_clean_sbu_0, # of connection points: 4
#     Node 22, Type 1, BuildingBlock: TATPOV_clean_sbu_0, # of connection points: 4
#     Node 23, Type 1, BuildingBlock: TATPOV_clean_sbu_0, # of connection points: 4
#     Node 24, Type 1, BuildingBlock: TATPOV_clean_sbu_0, # of connection points: 4
#     Node 25, Type 1, BuildingBlock: TATPOV_clean_sbu_0, # of connection points: 4
#     Node 26, Type 1, BuildingBlock: TATPOV_clean_sbu_0, # of connection points: 4
#     Node 27, Type 1, BuildingBlock: TATPOV_clean_sbu_0, # of connection points: 4
#     Edge 28, Type (0, 1), BuildingBlock: ZUJKAS_clean_linker_0, # of connection points: 2
#     Edge 29, Type (0, 1), BuildingBlock: ZUJKAS_clean_linker_0, # of connection points: 2
#     Edge 30, Type (0, 1), BuildingBlock: ZUJKAS_clean_linker_0, # of connection points: 2
#     Edge 31, Type (0, 1), BuildingBlock: ZUJKAS_clean_linker_0, # of connection points: 2
#     Edge 32, Type (0, 1), BuildingBlock: ZUJKAS_clean_linker_0, # of connection points: 2
#     Edge 33, Type (0, 1), BuildingBlock: ZUJKAS_clean_linker_0, # of connection points: 2
#     Edge 34, Type (0, 1), BuildingBlock: ZUJKAS_clean_linker_0, # of connection points: 2
#     Edge 35, Type (0, 1), BuildingBlock: ZUJKAS_clean_linker_0, # of connection points: 2
#     Edge 36, Type (0, 1), BuildingBlock: ZUJKAS_clean_linker_0, # of connection points: 2
#     Edge 37, Type (0, 1), BuildingBlock: ZUJKAS_clean_linker_0, # of connection points: 2
#     Edge 38, Type (0, 1), BuildingBlock: ZUJKAS_clean_linker_0, # of connection points: 2
#     Edge 39, Type (0, 1), BuildingBlock: ZUJKAS_clean_linker_0, # of connection points: 2
#     Edge 40, Type (0, 1), BuildingBlock: ZUJKAS_clean_linker_0, # of connection points: 2
#     Edge 41, Type (0, 1), BuildingBlock: ZUJKAS_clean_linker_0, # of connection points: 2
#     Edge 42, Type (0, 1), BuildingBlock: ZUJKAS_clean_linker_0, # of connection points: 2
#     Edge 43, Type (0, 1), BuildingBlock: ZUJKAS_clean_linker_0, # of connection points: 2
#     Edge 44, Type (0, 1), BuildingBlock: ZUJKAS_clean_linker_0, # of connection points: 2
#     Edge 45, Type (0, 1), BuildingBlock: ZUJKAS_clean_linker_0, # of connection points: 2
#     Edge 46, Type (0, 1), BuildingBlock: ZUJKAS_clean_linker_0, # of connection points: 2
#     Edge 47, Type (0, 1), BuildingBlock: ZUJKAS_clean_linker_0, # of connection points: 2
#     Edge 48, Type (0, 1), BuildingBlock: ZUJKAS_clean_linker_0, # of connection points: 2
#     Edge 49, Type (0, 1), BuildingBlock: ZUJKAS_clean_linker_0, # of connection points: 2
#     Edge 50, Type (0, 1), BuildingBlock: ZUJKAS_clean_linker_0, # of connection points: 2
#     Edge 51, Type (0, 1), BuildingBlock: ZUJKAS_clean_linker_0, # of connection points: 2
#     Edge 52, Type (0, 1), BuildingBlock: ZUJKAS_clean_linker_0, # of connection points: 2
#     Edge 53, Type (0, 1), BuildingBlock: ZUJKAS_clean_linker_0, # of connection points: 2
#     Edge 54, Type (0, 1), BuildingBlock: ZUJKAS_clean_linker_0, # of connection points: 2
#     Edge 55, Type (0, 1), BuildingBlock: ZUJKAS_clean_linker_0, # of connection points: 2
#     Edge 56, Type (0, 1), BuildingBlock: ZUJKAS_clean_linker_0, # of connection points: 2
#     Edge 57, Type (0, 1), BuildingBlock: ZUJKAS_clean_linker_0, # of connection points: 2
#     Edge 58, Type (0, 1), BuildingBlock: ZUJKAS_clean_linker_0, # of connection points: 2
#     Edge 59, Type (0, 1), BuildingBlock: ZUJKAS_clean_linker_0, # of connection points: 2
#     Edge 60, Type (0, 1), BuildingBlock: ZUJKAS_clean_linker_0, # of connection points: 2
#     Edge 61, Type (0, 1), BuildingBlock: ZUJKAS_clean_linker_0, # of connection points: 2
#     Edge 62, Type (0, 1), BuildingBlock: ZUJKAS_clean_linker_0, # of connection points: 2
#     Edge 63, Type (0, 1), BuildingBlock: ZUJKAS_clean_linker_0, # of connection points: 2
#     Edge 64, Type (0, 1), BuildingBlock: ZUJKAS_clean_linker_0, # of connection points: 2
#     Edge 65, Type (0, 1), BuildingBlock: ZUJKAS_clean_linker_0, # of connection points: 2
#     Edge 66, Type (0, 1), BuildingBlock: ZUJKAS_clean_linker_0, # of connection points: 2
#     Edge 67, Type (0, 1), BuildingBlock: ZUJKAS_clean_linker_0, # of connection points: 2
#     Edge 68, Type (0, 1), BuildingBlock: ZUJKAS_clean_linker_0, # of connection points: 2
#     Edge 69, Type (0, 1), BuildingBlock: ZUJKAS_clean_linker_0, # of connection points: 2
#     Edge 70, Type (0, 1), BuildingBlock: ZUJKAS_clean_linker_0, # of connection points: 2
#     Edge 71, Type (0, 1), BuildingBlock: ZUJKAS_clean_linker_0, # of connection points: 2
#     Edge 72, Type (0, 1), BuildingBlock: ZUJKAS_clean_linker_0, # of connection points: 2
#     Edge 73, Type (0, 1), BuildingBlock: ZUJKAS_clean_linker_0, # of connection points: 2
#     Edge 74, Type (0, 1), BuildingBlock: ZUJKAS_clean_linker_0, # of connection points: 2
#     Edge 75, Type (0, 1), BuildingBlock: ZUJKAS_clean_linker_0, # of connection points: 2
# Relax obj value: 0.003
# Max RMSD: 0.051
# Mean RMSD: 0.026
data_MOF--net-ctn--node1-TATPOV_clean_sbu_0--node2-BELTOD_clean_linker_0--edge1-ZUJKAS_clean_linker_0
_symmetry_space_group_name_H-M    P1
_symmetry_Int_Tables_number       1
_symmetry_cell_setting            triclinic
loop_
_symmetry_equiv_pos_as_xyz
'x, y, z'
_cell_length_a     78.473788
_cell_length_b     79.003762
_cell_length_c     78.360775
_cell_angle_alpha  90.282429
_cell_angle_beta   91.070292
_cell_angle_gamma 91.695213
loop_
_atom_site_label
_atom_site_type_symbol
_atom_site_fract_x
_atom_site_fract_y
_atom_site_fract_z
_atom_type_partial_charge
P0 P 0.05716 0.05325 0.06426 0.0
H1 H 0.05074 0.02429 0.08663 0.0
H2 H 0.02663 0.01612 0.10445 0.0
H3 H 0.99876 0.05851 0.08505 0.0
H4 H 0.0228 0.06647 0.0672 0.0
H5 H 0.09395 0.05022 0.06254 0.0
H6 H 0.11216 0.02749 0.05352 0.0
H7 H 0.06747 0.99658 0.04022 0.0
H8 H 0.04925 0.01948 0.04955 0.0
H9 H 0.07029 0.08639 0.05342 0.0
H10 H 0.03276 0.04913 0.03559 0.0
O11 O 0.06848 0.06486 0.07853 0.0
H12 H 0.06246 0.10511 0.03011 0.0
H13 H 0.02491 0.06782 0.01195 0.0
C14 C 0.03839 0.04566 0.07513 0.0
C15 C 0.03927 0.03155 0.08587 0.0
C16 C 0.02554 0.02701 0.09621 0.0
C17 C 0.01073 0.03663 0.09614 0.0
C18 C 0.00983 0.05063 0.08517 0.0
C19 C 0.02359 0.05518 0.0749 0.0
C20 C 0.07027 0.03637 0.05709 0.0
C21 C 0.08805 0.03854 0.05774 0.0
C22 C 0.09846 0.02556 0.05243 0.0
C23 C 0.09129 0.01016 0.04619 0.0
C24 C 0.0734 0.00818 0.0452 0.0
C25 C 0.06298 0.02125 0.05048 0.0
C26 C 0.05188 0.06651 0.0464 0.0
C27 C 0.06038 0.0822 0.04443 0.0
C28 C 0.05597 0.09286 0.03099 0.0
C29 C 0.043 0.088 0.01918 0.0
C30 C 0.03479 0.07204 0.02096 0.0
C31 C 0.03929 0.06133 0.0344 0.0
P32 P 0.29427 0.69171 0.19553 0.0
H33 H 0.31008 0.72455 0.18746 0.0
H34 H 0.2991 0.74984 0.17371 0.0
H35 H 0.24852 0.72676 0.17236 0.0
H36 H 0.25949 0.70161 0.18628 0.0
H37 H 0.32034 0.66943 0.20787 0.0
H38 H 0.34222 0.67202 0.23031 0.0
H39 H 0.32536 0.72232 0.24216 0.0
H40 H 0.30289 0.71913 0.22032 0.0
H41 H 0.27373 0.66505 0.1785 0.0
H42 H 0.27838 0.68721 0.22883 0.0
O43 O 0.30341 0.68285 0.17877 0.0
H44 H 0.25215 0.64481 0.18866 0.0
H45 H 0.2571 0.66669 0.23925 0.0
C46 C 0.28557 0.71133 0.18828 0.0
C47 C 0.29654 0.72514 0.18469 0.0
C48 C 0.29025 0.73958 0.17682 0.0
C49 C 0.27293 0.74029 0.17203 0.0
C50 C 0.26192 0.72655 0.17592 0.0
C51 C 0.26819 0.7122 0.18397 0.0
C52 C 0.31037 0.69429 0.21208 0.0
C53 C 0.32141 0.68103 0.21529 0.0
C54 C 0.33398 0.68258 0.2281 0.0
C55 C 0.33579 0.69749 0.23795 0.0
C56 C 0.32433 0.7106 0.23494 0.0
C57 C 0.3116 0.70892 0.22225 0.0
C58 C 0.27789 0.67735 0.20301 0.0
C59 C 0.27016 0.66548 0.19178 0.0
C60 C 0.25787 0.65388 0.19763 0.0
C61 C 0.25305 0.65397 0.21483 0.0
C62 C 0.26045 0.66631 0.22592 0.0
C63 C 0.27272 0.67795 0.22002 0.0
P64 P 0.97907 0.4785 0.01802 0.0
H65 H 0.95313 0.4596 0.99766 0.0
H66 H 0.94961 0.42965 0.99008 0.0
H67 H 0.9943 0.41875 0.02076 0.0
H68 H 0.99723 0.44841 0.02881 0.0
H69 H 0.97146 0.51328 0.00965 0.0
H70 H 0.94581 0.52982 0.01191 0.0
H71 H 0.91889 0.48633 0.03272 0.0
H72 H 0.94468 0.4698 0.03028 0.0
H73 H 0.01562 0.48294 0.02505 0.0
H74 H 0.96935 0.47989 0.05387 0.0
O75 O 0.99038 0.48611 0.00179 0.0
H76 H 0.03243 0.48514 0.05164 0.0
H77 H 0.98605 0.48209 0.08046 0.0
C78 C 0.97517 0.45622 0.01415 0.0
C79 C 0.96188 0.45067 0.00311 0.0
C80 C 0.96001 0.43354 0.99863 0.0
C81 C 0.97165 0.4217 0.00482 0.0
C82 C 0.98484 0.42736 0.01605 0.0
C83 C 0.98659 0.44443 0.02061 0.0
C84 C 0.95981 0.49021 0.01933 0.0
C85 C 0.96 0.50726 0.01457 0.0
C86 C 0.94538 0.51676 0.01605 0.0
C87 C 0.9303 0.50937 0.02248 0.0
C88 C 0.93024 0.4923 0.0275 0.0
C89 C 0.94494 0.48283 0.02607 0.0
C90 C 0.99124 0.48159 0.0375 0.0
C91 C 0.00907 0.483 0.03709 0.0
C92 C 0.01866 0.48413 0.05228 0.0
C93 C 0.01053 0.48388 0.06811 0.0
C94 C 0.99264 0.48261 0.06844 0.0
C95 C 0.98308 0.48133 0.05325 0.0
P96 P 0.69216 0.79832 0.19351 0.0
H97 H 0.70186 0.83022 0.17721 0.0
H98 H 0.72522 0.85081 0.18243 0.0
H99 H 0.7453 0.81892 0.2222 0.0
H100 H 0.72172 0.79837 0.21695 0.0
H101 H 0.68842 0.79197 0.15695 0.0
H102 H 0.69752 0.76914 0.13848 0.0
H103 H 0.72095 0.74491 0.18195 0.0
H104 H 0.71156 0.76786 0.20046 0.0
H105 H 0.69009 0.81359 0.22748 0.0
H106 H 0.67402 0.76681 0.20265 0.0
O107 O 0.67649 0.80832 0.18346 0.0
H108 H 0.67553 0.80471 0.25333 0.0
H109 H 0.65909 0.75798 0.22835 0.0
C110 C 0.70985 0.81301 0.197 0.0
C111 C 0.71128 0.82765 0.18706 0.0
C112 C 0.72473 0.83935 0.18995 0.0
C113 C 0.73705 0.83655 0.20281 0.0
C114 C 0.73586 0.82155 0.21239 0.0
C115 C 0.72243 0.8098 0.20939 0.0
C116 C 0.69901 0.78139 0.1801 0.0
C117 C 0.69543 0.78171 0.16254 0.0
C118 C 0.70078 0.76871 0.15196 0.0
C119 C 0.70993 0.75518 0.15875 0.0
C120 C 0.71372 0.75504 0.17638 0.0
C121 C 0.70841 0.76813 0.18695 0.0
C122 C 0.6836 0.79064 0.21329 0.0
C123 C 0.68376 0.80123 0.2277 0.0
C124 C 0.67525 0.79621 0.24243 0.0
C125 C 0.66615 0.78062 0.24293 0.0
C126 C 0.66624 0.76992 0.22852 0.0
C127 C 0.67477 0.77497 0.2138 0.0
P128 P 0.0677 0.93492 0.43789 0.0
H129 H 0.09359 0.9407 0.46446 0.0
H130 H 0.10837 0.96633 0.47549 0.0
H131 H 0.07764 0.99678 0.44199 0.0
H132 H 0.06295 0.97125 0.43106 0.0
H133 H 0.06597 0.89814 0.44132 0.0
H134 H 0.05631 0.87945 0.46417 0.0
H135 H 0.04244 0.92307 0.49379 0.0
H136 H 0.05247 0.94167 0.47099 0.0
H137 H 0.06778 0.94567 0.40247 0.0
H138 H 0.03035 0.93521 0.4409 0.0
O139 O 0.08282 0.92506 0.42732 0.0
H140 H 0.04527 0.95414 0.38266 0.0
H141 H 0.00767 0.94296 0.42099 0.0
C142 C 0.0772 0.95403 0.44694 0.0
C143 C 0.0899 0.95292 0.45966 0.0
C144 C 0.09827 0.96757 0.46601 0.0
C145 C 0.09417 0.98355 0.45957 0.0
C146 C 0.08117 0.98462 0.44707 0.0
C147 C 0.07273 0.96998 0.44083 0.0
C148 C 0.06024 0.92126 0.45464 0.0
C149 C 0.06093 0.90366 0.45277 0.0
C150 C 0.05528 0.89299 0.4658 0.0
C151 C 0.0487 0.89977 0.48087 0.0
C152 C 0.04775 0.91746 0.48251 0.0
C153 C 0.05341 0.92811 0.46947 0.0
C154 C 0.05072 0.93957 0.42305 0.0
C155 C 0.05466 0.94489 0.40652 0.0
C156 C 0.04174 0.94968 0.39518 0.0
C157 C 0.0246 0.94919 0.40016 0.0
C158 C 0.02073 0.94371 0.41676 0.0
C159 C 0.03369 0.93908 0.42814 0.0
P160 P 0.229 0.74174 0.75758 0.0
H161 H 0.25254 0.75455 0.784 0.0
H162 H 0.24848 0.76699 0.81223 0.0
H163 H 0.19397 0.75937 0.80596 0.0
H164 H 0.1981 0.74704 0.77777 0.0
H165 H 0.23983 0.71996 0.73021 0.0
H166 H 0.25426 0.69298 0.7297 0.0
H167 H 0.25445 0.69199 0.78486 0.0
H168 H 0.23955 0.71866 0.78521 0.0
H169 H 0.21303 0.76518 0.73394 0.0
H170 H 0.20127 0.71611 0.75529 0.0
O171 O 0.24238 0.75516 0.74782 0.0
H172 H 0.18571 0.76439 0.71845 0.0
H173 H 0.17383 0.71519 0.73974 0.0
C174 C 0.22566 0.74996 0.77872 0.0
C175 C 0.23972 0.7555 0.78875 0.0
C176 C 0.23738 0.76253 0.80491 0.0
C177 C 0.22088 0.76421 0.81131 0.0
C178 C 0.20681 0.75844 0.80129 0.0
C179 C 0.20919 0.7513 0.78517 0.0
C180 C 0.23868 0.72135 0.75772 0.0
C181 C 0.24289 0.71385 0.74218 0.0
C182 C 0.25127 0.69849 0.74192 0.0
C183 C 0.25567 0.69035 0.75725 0.0
C184 C 0.25114 0.69781 0.77282 0.0
C185 C 0.24269 0.71317 0.77304 0.0
C186 C 0.20927 0.74057 0.74549 0.0
C187 C 0.20465 0.75413 0.73511 0.0
C188 C 0.18904 0.75365 0.72624 0.0
C189 C 0.17767 0.73967 0.72779 0.0
C190 C 0.1823 0.72615 0.73835 0.0
C191 C 0.19801 0.7266 0.74712 0.0
P192 P 0.97875 0.5202 0.49112 0.0
H193 H 0.01323 0.5278 0.48017 0.0
H194 H 0.02618 0.52966 0.45206 0.0
H195 H 0.97661 0.52083 0.42817 0.0
H196 H 0.96381 0.5188 0.45629 0.0
H197 H 0.98282 0.52782 0.52739 0.0
H198 H 0.9828 0.55428 0.54371 0.0
H199 H 0.97631 0.58217 0.49684 0.0
H200 H 0.9762 0.5556 0.48062 0.0
H201 H 0.96437 0.48611 0.4865 0.0
H202 H 0.94548 0.5365 0.49216 0.0
O203 O 0.99044 0.50617 0.5016 0.0
H204 H 0.93514 0.4746 0.48519 0.0
H205 H 0.91618 0.52511 0.49065 0.0
C206 C 0.98765 0.52291 0.4703 0.0
C207 C 0.00516 0.52637 0.46885 0.0
C208 C 0.01251 0.52755 0.45279 0.0
C209 C 0.00242 0.5253 0.43788 0.0
C210 C 0.98475 0.52237 0.43942 0.0
C211 C 0.97741 0.52124 0.4555 0.0
C212 C 0.97984 0.53983 0.50281 0.0
C213 C 0.98161 0.53966 0.52062 0.0
C214 C 0.98163 0.55478 0.52992 0.0
C215 C 0.97965 0.57031 0.52155 0.0
C216 C 0.97779 0.5704 0.50366 0.0
C217 C 0.97786 0.55525 0.49437 0.0
C218 C 0.9571 0.51208 0.48982 0.0
C219 C 0.95392 0.49469 0.48746 0.0
C220 C 0.93719 0.48816 0.48654 0.0
C221 C 0.92333 0.49895 0.48787 0.0
C222 C 0.92659 0.51646 0.48984 0.0
C223 C 0.94335 0.52298 0.4907 0.0
P224 P 0.83208 0.84638 0.84347 0.0
H225 H 0.86708 0.8523 0.83194 0.0
H226 H 0.88282 0.84104 0.80801 0.0
H227 H 0.83866 0.81007 0.79301 0.0
H228 H 0.82291 0.82171 0.81678 0.0
H229 H 0.80141 0.85798 0.85966 0.0
H230 H 0.77704 0.87374 0.84918 0.0
H231 H 0.80024 0.87807 0.79977 0.0
H232 H 0.82463 0.86234 0.81034 0.0
H233 H 0.84612 0.82923 0.87332 0.0
H234 H 0.80103 0.82492 0.84109 0.0
O235 O 0.84479 0.85902 0.85554 0.0
H236 H 0.83544 0.80562 0.89066 0.0
H237 H 0.7903 0.80137 0.85832 0.0
C238 C 0.84387 0.83776 0.82616 0.0
C239 C 0.86081 0.84305 0.82354 0.0
C240 C 0.86983 0.83652 0.8099 0.0
C241 C 0.86201 0.82462 0.79861 0.0
C242 C 0.84501 0.81934 0.80135 0.0
C243 C 0.83602 0.82588 0.815 0.0
C244 C 0.81459 0.85858 0.83566 0.0
C245 C 0.80122 0.86225 0.84655 0.0
C246 C 0.78729 0.87122 0.84054 0.0
C247 C 0.78664 0.87695 0.82359 0.0
C248 C 0.80039 0.8738 0.81288 0.0
C249 C 0.81428 0.8647 0.81889 0.0
C250 C 0.82417 0.82908 0.85621 0.0
C251 C 0.83388 0.82327 0.87004 0.0
C252 C 0.82782 0.80973 0.87987 0.0
C253 C 0.81195 0.80177 0.87595 0.0
C254 C 0.80241 0.80747 0.86186 0.0
C255 C 0.80855 0.8209 0.85199 0.0
P256 P 0.33718 0.34634 0.34463 0.0
H257 H 0.34843 0.35997 0.31209 0.0
H258 H 0.36483 0.3482 0.28883 0.0
H259 H 0.36992 0.30173 0.31703 0.0
H260 H 0.35351 0.31352 0.34021 0.0
H261 H 0.32068 0.377 0.35601 0.0
H262 H 0.29606 0.39219 0.34509 0.0
H263 H 0.29044 0.35629 0.30344 0.0
H264 H 0.31492 0.34109 0.31454 0.0
H265 H 0.35091 0.33037 0.37528 0.0
H266 H 0.30556 0.32546 0.34346 0.0
O267 O 0.35003 0.3594 0.35609 0.0
H268 H 0.34045 0.30695 0.39299 0.0
H269 H 0.29507 0.30218 0.36106 0.0
C270 C 0.34938 0.3375 0.32769 0.0
C271 C 0.35297 0.34721 0.31321 0.0
C272 C 0.36232 0.34047 0.29993 0.0
C273 C 0.36853 0.324 0.30107 0.0
C274 C 0.36534 0.31448 0.31583 0.0
C275 C 0.35584 0.32118 0.32904 0.0
C276 C 0.31979 0.35812 0.33591 0.0
C277 C 0.31426 0.37253 0.34442 0.0
C278 C 0.30022 0.38122 0.33814 0.0
C279 C 0.29135 0.37547 0.32336 0.0
C280 C 0.29694 0.36097 0.3149 0.0
C281 C 0.31102 0.35236 0.32115 0.0
C282 C 0.32887 0.3299 0.35826 0.0
C283 C 0.33861 0.32441 0.37223 0.0
C284 C 0.33269 0.31097 0.38226 0.0
C285 C 0.31689 0.30282 0.37847 0.0
C286 C 0.30715 0.30841 0.36448 0.0
C287 C 0.31316 0.32173 0.35437 0.0
P288 P 0.4862 0.98295 0.51237 0.0
H289 H 0.48489 0.96624 0.47914 0.0
H290 H 0.48422 0.93649 0.47045 0.0
H291 H 0.48353 0.92156 0.52344 0.0
H292 H 0.48376 0.95138 0.53199 0.0
H293 H 0.47621 0.01747 0.51819 0.0
H294 H 0.44856 0.03085 0.51943 0.0
H295 H 0.42324 0.98222 0.51035 0.0
H296 H 0.45096 0.96897 0.50899 0.0
H297 H 0.52215 0.982 0.52189 0.0
H298 H 0.47438 0.98736 0.54743 0.0
O299 O 0.49757 0.99355 0.49791 0.0
H300 H 0.53739 0.98364 0.54943 0.0
H301 H 0.48949 0.98896 0.57495 0.0
C302 C 0.4848 0.96099 0.50619 0.0
C303 C 0.48459 0.95656 0.48887 0.0
C304 C 0.48429 0.93954 0.48394 0.0
C305 C 0.48412 0.92664 0.49627 0.0
C306 C 0.48365 0.93117 0.51363 0.0
C307 C 0.48392 0.94822 0.51854 0.0
C308 C 0.46563 0.9923 0.51336 0.0
C309 C 0.46469 0.00971 0.51647 0.0
C310 C 0.44888 0.0173 0.51731 0.0
C311 C 0.43371 0.00758 0.515 0.0
C312 C 0.43471 0.99007 0.51201 0.0
C313 C 0.45056 0.98247 0.51126 0.0
C314 C 0.49722 0.98495 0.53261 0.0
C315 C 0.51498 0.98369 0.53342 0.0
C316 C 0.52364 0.9845 0.54915 0.0
C317 C 0.51464 0.98654 0.56433 0.0
C318 C 0.4968 0.9877 0.56345 0.0
C319 C 0.48815 0.98678 0.54772 0.0
P320 P 0.19422 0.29502 0.69158 0.0
H321 H 0.20806 0.32434 0.67354 0.0
H322 H 0.23015 0.34568 0.68084 0.0
H323 H 0.23978 0.32028 0.72865 0.0
H324 H 0.21739 0.2991 0.72132 0.0
H325 H 0.17825 0.26284 0.68142 0.0
H326 H 0.18789 0.23912 0.66435 0.0
H327 H 0.23766 0.26365 0.66083 0.0
H328 H 0.22784 0.28743 0.67765 0.0
H329 H 0.16458 0.30884 0.7078 0.0
H330 H 0.19872 0.26792 0.71674 0.0
O331 O 0.1806 0.30396 0.67799 0.0
H332 H 0.14786 0.30003 0.73235 0.0
H333 H 0.18187 0.25883 0.74129 0.0
C334 C 0.21083 0.31039 0.69707 0.0
C335 C 0.21487 0.3234 0.68563 0.0
C336 C 0.22764 0.33551 0.68975 0.0
C337 C 0.23669 0.33474 0.70537 0.0
C338 C 0.23285 0.3214 0.71664 0.0
C339 C 0.22008 0.30926 0.71247 0.0
C340 C 0.20235 0.2768 0.68094 0.0
C341 C 0.19132 0.26297 0.67718 0.0
C342 C 0.19687 0.24939 0.66748 0.0
C343 C 0.21356 0.24948 0.66122 0.0
C344 C 0.22469 0.26327 0.66531 0.0
C345 C 0.21911 0.27684 0.67504 0.0
C346 C 0.18262 0.28879 0.71024 0.0
C347 C 0.16843 0.2979 0.71502 0.0
C348 C 0.15885 0.2928 0.72902 0.0
C349 C 0.16338 0.27856 0.73861 0.0
C350 C 0.17805 0.26984 0.73416 0.0
C351 C 0.18761 0.27495 0.72008 0.0
P352 P 0.79852 0.19118 0.70004 0.0
H353 H 0.81094 0.21056 0.67113 0.0
H354 H 0.80078 0.23562 0.65657 0.0
H355 H 0.76071 0.23971 0.69335 0.0
H356 H 0.7709 0.21433 0.70776 0.0
H357 H 0.83027 0.17516 0.70967 0.0
H358 H 0.85128 0.18065 0.73253 0.0
H359 H 0.82185 0.22242 0.75027 0.0
H360 H 0.80096 0.21696 0.72713 0.0
H361 H 0.76412 0.18356 0.68688 0.0
H362 H 0.79467 0.17069 0.73101 0.0
O363 O 0.80735 0.17946 0.685 0.0
H364 H 0.74103 0.16483 0.69673 0.0
H365 H 0.77194 0.15161 0.74064 0.0
C366 C 0.79144 0.21039 0.69027 0.0
C367 C 0.79998 0.21685 0.67609 0.0
C368 C 0.79423 0.23129 0.66785 0.0
C369 C 0.77987 0.23966 0.67376 0.0
C370 C 0.77164 0.23342 0.68834 0.0
C371 C 0.77747 0.21895 0.6966 0.0
C372 C 0.81428 0.1959 0.71649 0.0
C373 C 0.82842 0.18561 0.71837 0.0
C374 C 0.84033 0.18865 0.73157 0.0
C375 C 0.83826 0.20199 0.74322 0.0
C376 C 0.82395 0.2122 0.74136 0.0
C377 C 0.812 0.20911 0.72815 0.0
C378 C 0.78096 0.17883 0.70838 0.0
C379 C 0.76576 0.17689 0.69881 0.0
C380 C 0.75264 0.16604 0.70437 0.0
C381 C 0.75461 0.15671 0.7195 0.0
C382 C 0.76985 0.15883 0.72912 0.0
C383 C 0.78292 0.16973 0.72357 0.0
P384 P 0.55901 0.55512 0.565 0.0
H385 H 0.555 0.53158 0.59318 0.0
H386 H 0.53099 0.52431 0.61153 0.0
H387 H 0.49842 0.55552 0.58067 0.0
H388 H 0.52239 0.56272 0.56244 0.0
H389 H 0.59481 0.55325 0.55672 0.0
H390 H 0.61255 0.53017 0.54757 0.0
H391 H 0.56824 0.49632 0.54616 0.0
H392 H 0.55059 0.51955 0.55562 0.0
H393 H 0.54979 0.59043 0.56542 0.0
H394 H 0.55551 0.55134 0.52754 0.0
O395 O 0.57128 0.56603 0.57906 0.0
H396 H 0.54239 0.61046 0.54303 0.0
H397 H 0.54806 0.57137 0.50498 0.0
C398 C 0.54053 0.54765 0.57641 0.0
C399 C 0.5426 0.53659 0.59018 0.0
C400 C 0.52886 0.53243 0.60065 0.0
C401 C 0.51281 0.53943 0.59762 0.0
C402 C 0.51067 0.5501 0.58347 0.0
C403 C 0.5244 0.55416 0.57296 0.0
C404 C 0.57149 0.53802 0.55718 0.0
C405 C 0.58891 0.54086 0.55442 0.0
C406 C 0.59902 0.52766 0.54905 0.0
C407 C 0.59186 0.51133 0.54619 0.0
C408 C 0.57423 0.50866 0.54851 0.0
C409 C 0.5641 0.52194 0.55387 0.0
C410 C 0.55344 0.56949 0.54813 0.0
C411 C 0.54947 0.58617 0.55225 0.0
C412 C 0.54511 0.59758 0.53945 0.0
C413 C 0.54465 0.59252 0.52221 0.0
C414 C 0.54849 0.5757 0.51812 0.0
C415 C 0.55273 0.56423 0.531 0.0
P416 P 0.56863 0.43041 0.93295 0.0
H417 H 0.6041 0.43356 0.94439 0.0
H418 H 0.62118 0.45692 0.95699 0.0
H419 H 0.57703 0.48841 0.9555 0.0
H420 H 0.55992 0.46473 0.94352 0.0
H421 H 0.57534 0.39598 0.94438 0.0
H422 H 0.56425 0.37887 0.96778 0.0
H423 H 0.53254 0.41999 0.98276 0.0
H424 H 0.54365 0.43704 0.95915 0.0
H425 H 0.56915 0.45673 0.90713 0.0
H426 H 0.53235 0.42081 0.92725 0.0
O427 O 0.58145 0.41885 0.92114 0.0
H428 H 0.54734 0.46756 0.88771 0.0
H429 H 0.51054 0.43147 0.90779 0.0
C430 C 0.58092 0.44762 0.94253 0.0
C431 C 0.59813 0.44551 0.94677 0.0
C432 C 0.60788 0.4589 0.95393 0.0
C433 C 0.60056 0.47466 0.95702 0.0
C434 C 0.58308 0.47646 0.95336 0.0
C435 C 0.57332 0.46299 0.94631 0.0
C436 C 0.56013 0.41768 0.94993 0.0
C437 C 0.56595 0.40131 0.95264 0.0
C438 C 0.5597 0.39158 0.96611 0.0
C439 C 0.54752 0.39808 0.97712 0.0
C440 C 0.54177 0.41456 0.97438 0.0
C441 C 0.54812 0.42432 0.96095 0.0
C442 C 0.55226 0.43831 0.91896 0.0
C443 C 0.55634 0.45125 0.90743 0.0
C444 C 0.5439 0.45733 0.89625 0.0
C445 C 0.52717 0.45046 0.89629 0.0
C446 C 0.52322 0.43726 0.90768 0.0
C447 C 0.5357 0.43115 0.91883 0.0
P448 P 0.72952 0.24197 0.26012 0.0
H449 H 0.75356 0.24515 0.28871 0.0
H450 H 0.75172 0.25742 0.31725 0.0
H451 H 0.69873 0.26811 0.3074 0.0
H452 H 0.70086 0.25634 0.27872 0.0
H453 H 0.75102 0.22635 0.23497 0.0
H454 H 0.76581 0.19957 0.23424 0.0
H455 H 0.74472 0.18624 0.2831 0.0
H456 H 0.73009 0.21319 0.28378 0.0
H457 H 0.71476 0.2603 0.23136 0.0
H458 H 0.69956 0.21967 0.26485 0.0
O459 O 0.74191 0.25611 0.25009 0.0
H460 H 0.68692 0.25861 0.21709 0.0
H461 H 0.67132 0.21821 0.25094 0.0
C462 C 0.7273 0.24953 0.28168 0.0
C463 C 0.7415 0.24996 0.29279 0.0
C464 C 0.74039 0.25692 0.30914 0.0
C465 C 0.72503 0.26369 0.3147 0.0
C466 C 0.71079 0.26315 0.30351 0.0
C467 C 0.71195 0.25623 0.28712 0.0
C468 C 0.73981 0.22191 0.25961 0.0
C469 C 0.74962 0.21768 0.24554 0.0
C470 C 0.75797 0.2023 0.24509 0.0
C471 C 0.75656 0.19081 0.25868 0.0
C472 C 0.74632 0.19494 0.27258 0.0
C473 C 0.73792 0.21032 0.27297 0.0
C474 C 0.70922 0.24005 0.24911 0.0
C475 C 0.70542 0.25097 0.23563 0.0
C476 C 0.6894 0.25009 0.22757 0.0
C477 C 0.67679 0.23835 0.23293 0.0
C478 C 0.68076 0.22727 0.24635 0.0
C479 C 0.69687 0.22812 0.25436 0.0
P480 P 0.47912 0.01853 0.99328 0.0
H481 H 0.51468 0.01793 0.98328 0.0
H482 H 0.52864 0.02111 0.95578 0.0
H483 H 0.47987 0.03005 0.9315 0.0
H484 H 0.466 0.02685 0.95907 0.0
H485 H 0.48106 0.02619 0.02969 0.0
H486 H 0.48053 0.05272 0.04589 0.0
H487 H 0.47618 0.08052 0.99874 0.0
H488 H 0.47675 0.05396 0.98263 0.0
H489 H 0.46492 0.99161 0.97138 0.0
H490 H 0.44641 0.026 0.00922 0.0
O491 O 0.49017 0.0045 0.00444 0.0
H492 H 0.43641 0.97867 0.96811 0.0
H493 H 0.41804 0.01273 0.00653 0.0
C494 C 0.48928 0.02165 0.97309 0.0
C495 C 0.50701 0.02057 0.97203 0.0
C496 C 0.51498 0.02254 0.95634 0.0
C497 C 0.50532 0.02569 0.94146 0.0
C498 C 0.48759 0.02735 0.9427 0.0
C499 C 0.47966 0.02549 0.95843 0.0
C500 C 0.47931 0.03817 0.00498 0.0
C501 C 0.48014 0.03802 0.02285 0.0
C502 C 0.47971 0.05316 0.03209 0.0
C503 C 0.47841 0.0687 0.02357 0.0
C504 C 0.47747 0.06876 0.00564 0.0
C505 C 0.47777 0.05359 0.99642 0.0
C506 C 0.45775 0.00994 0.99031 0.0
C507 C 0.45468 0.99645 0.9789 0.0
C508 C 0.4384 0.98896 0.97717 0.0
C509 C 0.4249 0.99463 0.98708 0.0
C510 C 0.42804 0.00823 0.99848 0.0
C511 C 0.44433 0.01579 0.00011 0.0
Zn512 Zn 0.27041 0.8479 0.99624 0.0
Zn513 Zn 0.24502 0.86843 0.00121 0.0
O514 O 0.24668 0.85534 0.02421 0.0
O515 O 0.26821 0.83874 0.01982 0.0
O516 O 0.22607 0.88488 0.00487 0.0
O517 O 0.28656 0.86744 0.99174 0.0
O518 O 0.26568 0.88468 0.99666 0.0
C519 C 0.25674 0.84399 0.02949 0.0
C520 C 0.24326 0.84172 0.97221 0.0
O521 O 0.23671 0.85408 0.98006 0.0
O522 O 0.25766 0.83646 0.97694 0.0
C523 C 0.21195 0.88081 0.01167 0.0
O524 O 0.20918 0.86508 0.0165 0.0
C525 C 0.2812 0.88235 0.99295 0.0
Zn526 Zn 0.10185 0.45864 0.26401 0.0
Zn527 Zn 0.11879 0.48878 0.25996 0.0
O528 O 0.1032 0.49405 0.27983 0.0
O529 O 0.08894 0.46987 0.28307 0.0
O530 O 0.13185 0.51058 0.25575 0.0
O531 O 0.12441 0.44769 0.26916 0.0
O532 O 0.13773 0.47234 0.2659 0.0
C533 C 0.09193 0.48515 0.28749 0.0
C534 C 0.09667 0.47282 0.23077 0.0
O535 O 0.10624 0.48467 0.23706 0.0
O536 O 0.09296 0.45991 0.23963 0.0
C537 C 0.14 0.51864 0.26753 0.0
O538 O 0.13962 0.51282 0.2832 0.0
C539 C 0.13812 0.45659 0.2692 0.0
Zn540 Zn 0.75719 0.61334 0.9621 0.0
Zn541 Zn 0.75306 0.62801 0.99272 0.0
O542 O 0.77424 0.61382 0.99713 0.0
O543 O 0.77758 0.60159 0.97215 0.0
O544 O 0.75004 0.64074 0.01473 0.0
O545 O 0.76046 0.636 0.9508 0.0
O546 O 0.75667 0.64774 0.97589 0.0
C547 C 0.78237 0.60392 0.98754 0.0
C548 C 0.725 0.60443 0.97734 0.0
O549 O 0.73084 0.61366 0.98962 0.0
O550 O 0.73365 0.60263 0.964 0.0
C551 C 0.74515 0.63417 0.02865 0.0
O552 O 0.7418 0.6178 0.02927 0.0
C553 C 0.75955 0.64914 0.96 0.0
Zn554 Zn 0.85023 0.00191 0.28452 0.0
Zn555 Zn 0.86904 0.00656 0.25655 0.0
O556 O 0.85571 0.02879 0.25802 0.0
O557 O 0.83993 0.02468 0.28065 0.0
O558 O 0.88485 0.01011 0.23671 0.0
O559 O 0.87128 0.99987 0.29943 0.0
O560 O 0.88635 0.00229 0.27613 0.0
C561 C 0.84451 0.03393 0.2683 0.0
C562 C 0.84331 0.9767 0.25813 0.0
O563 O 0.8542 0.98549 0.24981 0.0
O564 O 0.83965 0.98096 0.27321 0.0
C565 C 0.88016 0.01209 0.22125 0.0
O566 O 0.8638 0.012 0.21735 0.0
C567 C 0.88558 6e-05 0.2922 0.0
Zn568 Zn 0.25812 0.11225 0.46065 0.0
Zn569 Zn 0.25606 0.12669 0.49177 0.0
O570 O 0.27609 0.11085 0.49521 0.0
O571 O 0.27721 0.09813 0.47019 0.0
O572 O 0.25431 0.13881 0.51431 0.0
O573 O 0.26361 0.13498 0.45014 0.0
O574 O 0.26085 0.14658 0.47548 0.0
C575 C 0.28278 0.10009 0.48538 0.0
C576 C 0.2257 0.10601 0.47635 0.0
O577 O 0.2328 0.11418 0.48875 0.0
O578 O 0.23364 0.10393 0.4626 0.0
C579 C 0.24782 0.13216 0.52752 0.0
O580 O 0.24213 0.11636 0.52685 0.0
C581 C 0.26378 0.14802 0.4596 0.0
Zn582 Zn 0.35068 0.50254 0.78499 0.0
Zn583 Zn 0.36832 0.50614 0.75603 0.0
O584 O 0.35505 0.52843 0.75737 0.0
O585 O 0.34065 0.52542 0.78107 0.0
O586 O 0.38251 0.50835 0.73476 0.0
O587 O 0.37253 0.50035 0.79861 0.0
O588 O 0.38677 0.50288 0.77479 0.0
C589 C 0.34456 0.53411 0.7681 0.0
C590 C 0.3422 0.47659 0.76006 0.0
O591 O 0.35309 0.4848 0.75119 0.0
O592 O 0.33893 0.48158 0.775 0.0
C593 C 0.38946 0.52235 0.73028 0.0
O594 O 0.38697 0.53601 0.73942 0.0
C595 C 0.38658 0.50075 0.79091 0.0
Zn596 Zn 0.77367 0.35029 0.50433 0.0
Zn597 Zn 0.74678 0.3695 0.50666 0.0
O598 O 0.74705 0.35642 0.52976 0.0
O599 O 0.7704 0.34179 0.52801 0.0
O600 O 0.72686 0.38517 0.50855 0.0
O601 O 0.78916 0.37048 0.50073 0.0
O602 O 0.76707 0.38665 0.50378 0.0
C603 C 0.75761 0.34621 0.53635 0.0
C604 C 0.7488 0.34267 0.47808 0.0
O605 O 0.7411 0.35489 0.48498 0.0
O606 O 0.76284 0.33793 0.48434 0.0
C607 C 0.7133 0.38163 0.51661 0.0
O608 O 0.71157 0.36678 0.52395 0.0
C609 C 0.78299 0.38508 0.50141 0.0
Zn610 Zn 0.59867 0.96291 0.76389 0.0
Zn611 Zn 0.61646 0.99258 0.75955 0.0
O612 O 0.60154 0.99811 0.7799 0.0
O613 O 0.58631 0.97449 0.78307 0.0
O614 O 0.63002 0.01406 0.75519 0.0
O615 O 0.62104 0.95145 0.76896 0.0
O616 O 0.63503 0.9756 0.76485 0.0
C617 C 0.59004 0.98959 0.78764 0.0
C618 C 0.59345 0.9773 0.73071 0.0
O619 O 0.6034 0.98888 0.73691 0.0
O620 O 0.58955 0.96444 0.73958 0.0
C621 C 0.63746 0.02269 0.76701 0.0
O622 O 0.63605 0.01769 0.78291 0.0
C623 C 0.635 0.95989 0.76844 0.0
Zn624 Zn 0.00082 0.27808 0.86406 0.0
Zn625 Zn 0.00522 0.2498 0.88164 0.0
O626 O 0.02746 0.25267 0.86777 0.0
O627 O 0.02345 0.2759 0.85303 0.0
O628 O 0.00956 0.22877 0.89554 0.0
O629 O 0.99945 0.29158 0.88561 0.0
O630 O 0.00147 0.26802 0.90033 0.0
C631 C 0.0327 0.26362 0.857 0.0
C632 C 0.97499 0.25241 0.85641 0.0
O633 O 0.9837 0.24371 0.86691 0.0
O634 O 0.97956 0.26756 0.85323 0.0
C635 C 0.99772 0.22043 0.90292 0.0
O636 O 0.98195 0.2254 0.90125 0.0
C637 C 0.99972 0.28402 0.8998 0.0
Zn638 Zn 0.49697 0.77645 0.35961 0.0
Zn639 Zn 0.50129 0.74888 0.37809 0.0
O640 O 0.5243 0.75177 0.36561 0.0
O641 O 0.52103 0.7755 0.35147 0.0
O642 O 0.5045 0.72818 0.39285 0.0
O643 O 0.49177 0.79004 0.38027 0.0
O644 O 0.4964 0.7676 0.39602 0.0
C645 C 0.53018 0.76323 0.35572 0.0
C646 C 0.47309 0.74989 0.35017 0.0
O647 O 0.48082 0.74199 0.36204 0.0
O648 O 0.47777 0.76489 0.34652 0.0
C649 C 0.51793 0.72695 0.40206 0.0
O650 O 0.52965 0.73915 0.40162 0.0
C651 C 0.4926 0.78315 0.39478 0.0
Zn652 Zn 0.95204 0.76155 0.61417 0.0
Zn653 Zn 0.98181 0.75766 0.63175 0.0
O654 O 0.98767 0.77686 0.61508 0.0
O655 O 0.9636 0.78044 0.60084 0.0
O656 O 0.00379 0.7544 0.6449 0.0
O657 O 0.94059 0.76678 0.63644 0.0
O658 O 0.96493 0.76387 0.65038 0.0
C659 C 0.97916 0.7845 0.60363 0.0
C660 C 0.96584 0.72842 0.61016 0.0
O661 O 0.97748 0.73457 0.62011 0.0
O662 O 0.95338 0.73735 0.60572 0.0
C663 C 0.01781 0.75345 0.63711 0.0
O664 O 0.01777 0.75474 0.6204 0.0
C665 C 0.94911 0.76708 0.65034 0.0
Zn666 Zn 0.45352 0.2613 0.11549 0.0
Zn667 Zn 0.48446 0.25802 0.13104 0.0
O668 O 0.4888 0.27718 0.11387 0.0
O669 O 0.46382 0.28009 0.10111 0.0
O670 O 0.50733 0.25579 0.14293 0.0
O671 O 0.44347 0.26685 0.1383 0.0
O672 O 0.46856 0.26378 0.15074 0.0
C673 C 0.47942 0.2845 0.10288 0.0
C674 C 0.46759 0.22833 0.11079 0.0
O675 O 0.47997 0.23486 0.11956 0.0
O676 O 0.45455 0.23691 0.1075 0.0
C677 C 0.51158 0.24216 0.15024 0.0
O678 O 0.50082 0.2291 0.15003 0.0
C679 C 0.45279 0.26702 0.15168 0.0
H680 H 0.19738 0.7876 0.82002 0.0
H681 H 0.19423 0.80155 0.84777 0.0
H682 H 0.23572 0.77304 0.86849 0.0
H683 H 0.23881 0.75888 0.84093 0.0
H684 H 0.20467 0.77493 0.88949 0.0
H685 H 0.23019 0.83754 0.86742 0.0
H686 H 0.21333 0.82719 0.85503 0.0
H687 H 0.23402 0.81817 0.85597 0.0
C688 C 0.20571 0.78417 0.83055 0.0
C689 C 0.21842 0.7722 0.82826 0.0
C690 C 0.20396 0.79224 0.84634 0.0
C691 C 0.21484 0.78842 0.86009 0.0
C692 C 0.22724 0.77619 0.85798 0.0
H693 H 0.25035 0.81139 0.95806 0.0
H694 H 0.23912 0.79912 0.93156 0.0
C695 C 0.22906 0.7682 0.84221 0.0
C696 C 0.21376 0.79737 0.87666 0.0
H697 H 0.22504 0.83464 0.89664 0.0
C698 C 0.20886 0.78806 0.89104 0.0
C699 C 0.21903 0.81455 0.87859 0.0
C700 C 0.22453 0.82503 0.8635 0.0
C701 C 0.20981 0.79528 0.90744 0.0
C702 C 0.21623 0.81211 0.90952 0.0
C703 C 0.22013 0.82174 0.89502 0.0
C704 C 0.22139 0.81904 0.92654 0.0
C705 C 0.20437 0.78466 0.92245 0.0
C706 C 0.21527 0.83448 0.93254 0.0
C707 C 0.22177 0.84165 0.94783 0.0
C708 C 0.23469 0.83361 0.95713 0.0
C709 C 0.24044 0.81797 0.95122 0.0
C710 C 0.2339 0.81082 0.93611 0.0
H711 H 0.19436 0.77509 0.91858 0.0
H712 H 0.2155 0.77776 0.92745 0.0
H713 H 0.19944 0.79261 0.93288 0.0
H714 H 0.20573 0.84111 0.92523 0.0
H715 H 0.21716 0.85375 0.95201 0.0
H716 H 0.02773 0.54652 0.42587 0.0
H717 H 0.0424 0.54446 0.39863 0.0
H718 H 0.0103 0.50118 0.38456 0.0
H719 H 0.99562 0.50317 0.41163 0.0
H720 H 0.06063 0.51795 0.3877 0.0
H721 H 0.00806 0.5291 0.34153 0.0
H722 H 0.00659 0.53413 0.36395 0.0
H723 H 0.00253 0.51278 0.35643 0.0
C724 C 0.02372 0.53665 0.4169 0.0
C725 C 0.01047 0.52504 0.42088 0.0
C726 C 0.03206 0.53555 0.40133 0.0
C727 C 0.02725 0.52286 0.38944 0.0
C728 C 0.0139 0.51138 0.39331 0.0
H729 H 0.06498 0.47079 0.30418 0.0
H730 H 0.04979 0.48235 0.3283 0.0
C731 C 0.00553 0.51251 0.40882 0.0
C732 C 0.03703 0.52063 0.37362 0.0
H733 H 0.03239 0.5149 0.33055 0.0
C734 C 0.05454 0.51761 0.37516 0.0
C735 C 0.02906 0.52023 0.35727 0.0
C736 C 0.01056 0.52441 0.35466 0.0
C737 C 0.06408 0.51328 0.3609 0.0
C738 C 0.0559 0.51208 0.3447 0.0
C739 C 0.03857 0.51576 0.34304 0.0
C740 C 0.0648 0.50573 0.3296 0.0
C741 C 0.08262 0.50919 0.36334 0.0
C742 C 0.07813 0.5152 0.32223 0.0
C743 C 0.08686 0.50864 0.30838 0.0
C744 C 0.0824 0.49249 0.30173 0.0
C745 C 0.06882 0.48322 0.30902 0.0
C746 C 0.06008 0.48981 0.32278 0.0
H747 H 0.0864 0.50841 0.37705 0.0
H748 H 0.08534 0.49697 0.35703 0.0
H749 H 0.09067 0.51921 0.35734 0.0
H750 H 0.08183 0.52759 0.32725 0.0
H751 H 0.09722 0.51613 0.30303 0.0
H752 H 0.77968 0.7966 0.88778 0.0
H753 H 0.76873 0.77258 0.90437 0.0
H754 H 0.81834 0.75049 0.90383 0.0
H755 H 0.82939 0.77454 0.88745 0.0
H756 H 0.76654 0.73972 0.89567 0.0
H757 H 0.80719 0.74734 0.95379 0.0
H758 H 0.80555 0.76373 0.93792 0.0
H759 H 0.8196 0.74641 0.93483 0.0
C760 C 0.78825 0.78663 0.89126 0.0
C761 C 0.80541 0.78746 0.88638 0.0
C762 C 0.782 0.77297 0.90078 0.0
C763 C 0.79279 0.75989 0.90561 0.0
C764 C 0.80991 0.76067 0.90068 0.0
H765 H 0.76867 0.65626 0.9273 0.0
H766 H 0.77499 0.68391 0.91493 0.0
C767 C 0.81619 0.77438 0.89127 0.0
C768 C 0.78595 0.74498 0.91495 0.0
H769 H 0.7931 0.72017 0.94974 0.0
C770 C 0.77221 0.73556 0.9076 0.0
C771 C 0.79312 0.73972 0.93068 0.0
C772 C 0.80706 0.74994 0.93986 0.0
C773 C 0.76596 0.72063 0.91518 0.0
C774 C 0.77392 0.71476 0.93028 0.0
C775 C 0.78714 0.72457 0.93804 0.0
C776 C 0.76935 0.69807 0.93775 0.0
C777 C 0.75089 0.7113 0.90689 0.0
C778 C 0.76445 0.69679 0.95485 0.0
C779 C 0.761 0.68092 0.96207 0.0
C780 C 0.76245 0.66605 0.95231 0.0
C781 C 0.76728 0.66743 0.93516 0.0
C782 C 0.77079 0.68326 0.92801 0.0
H783 H 0.74297 0.71998 0.8992 0.0
H784 H 0.75557 0.70145 0.89815 0.0
H785 H 0.74272 0.70504 0.91655 0.0
H786 H 0.76338 0.70807 0.96263 0.0
H787 H 0.75735 0.6803 0.97532 0.0
H788 H 0.99626 0.96713 0.40765 0.0
H789 H 0.97372 0.97603 0.38809 0.0
H790 H 0.99981 0.95381 0.34592 0.0
H791 H 0.02192 0.944 0.36551 0.0
H792 H 0.97528 0.99721 0.36124 0.0
H793 H 0.95251 0.93349 0.33911 0.0
H794 H 0.96685 0.9365 0.3572 0.0
H795 H 0.97483 0.93754 0.33584 0.0
C796 C 0.99707 0.96382 0.39427 0.0
C797 C 0.01087 0.95469 0.38822 0.0
C798 C 0.98424 0.96908 0.38307 0.0
C799 C 0.98493 0.96537 0.36557 0.0
C800 C 0.9988 0.9565 0.35942 0.0
H801 H 0.91716 0.99225 0.28064 0.0
H802 H 0.94229 0.98484 0.29782 0.0
C803 C 0.01157 0.9511 0.37063 0.0
C804 C 0.97126 0.97108 0.35379 0.0
H805 H 0.94087 0.95703 0.32485 0.0
C806 C 0.96776 0.98842 0.3533 0.0
C807 C 0.96144 0.95959 0.34342 0.0
C808 C 0.96396 0.94073 0.344 0.0
C809 C 0.9547 0.99455 0.34275 0.0
C810 C 0.94492 0.98306 0.33246 0.0
C811 C 0.94854 0.96579 0.33271 0.0
C812 C 0.9302 0.98856 0.32207 0.0
C813 C 0.95138 0.01325 0.34265 0.0
C814 C 0.91518 0.99312 0.33008 0.0
C815 C 0.9008 0.99721 0.32036 0.0
C816 C 0.90122 0.99689 0.30242 0.0
C817 C 0.91645 0.99269 0.29443 0.0
C818 C 0.93079 0.98842 0.3042 0.0
H819 H 0.96196 0.02079 0.34887 0.0
H820 H 0.94953 0.01778 0.32937 0.0
H821 H 0.9395 0.01558 0.34965 0.0
H822 H 0.91447 0.99314 0.34388 0.0
H823 H 0.88929 0.00041 0.32692 0.0
H824 H 0.23216 0.25257 0.63219 0.0
H825 H 0.23932 0.23025 0.61209 0.0
H826 H 0.21416 0.19304 0.64371 0.0
H827 H 0.20702 0.21531 0.66401 0.0
H828 H 0.25769 0.20015 0.61674 0.0
H829 H 0.19017 0.18682 0.59681 0.0
H830 H 0.19675 0.20557 0.60873 0.0
H831 H 0.19469 0.18553 0.61932 0.0
C832 C 0.22837 0.23961 0.63503 0.0
C833 C 0.21894 0.23573 0.64967 0.0
C834 C 0.2324 0.22688 0.62348 0.0
C835 C 0.22704 0.21005 0.62629 0.0
C836 C 0.21812 0.20601 0.64115 0.0
H837 H 0.23284 0.12276 0.55748 0.0
H838 H 0.22884 0.1404 0.58282 0.0
C839 C 0.21405 0.21875 0.65271 0.0
C840 C 0.23049 0.19688 0.61339 0.0
H841 H 0.21099 0.17031 0.58407 0.0
C842 C 0.24749 0.19355 0.60965 0.0
C843 C 0.21715 0.18827 0.60421 0.0
C844 C 0.19865 0.19177 0.60732 0.0
C845 C 0.25152 0.18193 0.59684 0.0
C846 C 0.23818 0.17366 0.58734 0.0
C847 C 0.22118 0.17666 0.59139 0.0
C848 C 0.24153 0.16265 0.57248 0.0
C849 C 0.27001 0.17858 0.5936 0.0
C850 C 0.2499 0.16936 0.55826 0.0
C851 C 0.2522 0.15936 0.54379 0.0
C852 C 0.24605 0.14245 0.54321 0.0
C853 C 0.23777 0.13571 0.55753 0.0
C854 C 0.23546 0.14576 0.57202 0.0
H855 H 0.2782 0.18176 0.60495 0.0
H856 H 0.27178 0.16512 0.59009 0.0
H857 H 0.27443 0.1866 0.58287 0.0
H858 H 0.25434 0.18247 0.5582 0.0
H859 H 0.25857 0.16498 0.53297 0.0
H860 H 0.50266 0.50953 0.61256 0.0
H861 H 0.48018 0.50509 0.63352 0.0
H862 H 0.46907 0.55819 0.63148 0.0
H863 H 0.4913 0.56265 0.61044 0.0
H864 H 0.47782 0.51849 0.66498 0.0
H865 H 0.42192 0.5373 0.62617 0.0
H866 H 0.44231 0.53337 0.61688 0.0
H867 H 0.43845 0.55347 0.62682 0.0
C868 C 0.49534 0.52023 0.61651 0.0
C869 C 0.49867 0.53641 0.60973 0.0
C870 C 0.48247 0.51767 0.62845 0.0
C871 C 0.47269 0.53124 0.63385 0.0
C872 C 0.47606 0.54742 0.62714 0.0
H873 H 0.40348 0.55055 0.71529 0.0
H874 H 0.42325 0.55176 0.69149 0.0
C875 C 0.48881 0.54996 0.61513 0.0
C876 C 0.45962 0.52873 0.64719 0.0
H877 H 0.41798 0.53568 0.65639 0.0
C878 C 0.46469 0.52206 0.66301 0.0
C879 C 0.44246 0.53335 0.64464 0.0
C880 C 0.43591 0.53961 0.62765 0.0
C881 C 0.45322 0.5204 0.6765 0.0
C882 C 0.43623 0.52549 0.67407 0.0
C883 C 0.43106 0.53189 0.65821 0.0
C884 C 0.42379 0.52461 0.68805 0.0
C885 C 0.45942 0.51368 0.69343 0.0
C886 C 0.41736 0.50894 0.6938 0.0
C887 C 0.40597 0.50819 0.70733 0.0
C888 C 0.40088 0.52312 0.7154 0.0
C889 C 0.40718 0.53881 0.70941 0.0
C890 C 0.41846 0.53954 0.6958 0.0
H891 H 0.4735 0.51265 0.69401 0.0
H892 H 0.45546 0.52202 0.70401 0.0
H893 H 0.45357 0.50091 0.69551 0.0
H894 H 0.42123 0.49728 0.68786 0.0
H895 H 0.40136 0.4959 0.71161 0.0
H896 H 0.79827 0.2658 0.65964 0.0
H897 H 0.78785 0.28792 0.64094 0.0
H898 H 0.73616 0.26949 0.64781 0.0
H899 H 0.7466 0.24679 0.66607 0.0
H900 H 0.74309 0.27308 0.61482 0.0
H901 H 0.76446 0.33174 0.64809 0.0
H902 H 0.78193 0.31781 0.64616 0.0
H903 H 0.76377 0.31147 0.65865 0.0
C904 C 0.78467 0.26651 0.6573 0.0
C905 C 0.77329 0.25444 0.66426 0.0
C906 C 0.77869 0.27935 0.6468 0.0
C907 C 0.76118 0.28059 0.64319 0.0
C908 C 0.7497 0.2689 0.65056 0.0
H909 H 0.72829 0.34375 0.55522 0.0
H910 H 0.72501 0.32978 0.58311 0.0
C911 C 0.75569 0.25599 0.66106 0.0
C912 C 0.75528 0.29282 0.63017 0.0
H913 H 0.76187 0.33356 0.61693 0.0
C914 C 0.7467 0.28643 0.61551 0.0
C915 C 0.75985 0.31028 0.63108 0.0
C916 C 0.76784 0.31823 0.64695 0.0
C917 C 0.74398 0.29668 0.60118 0.0
C918 C 0.74997 0.31371 0.60158 0.0
C919 C 0.75735 0.32045 0.61667 0.0
C920 C 0.75159 0.32356 0.58567 0.0
C921 C 0.73596 0.28894 0.58521 0.0
C922 C 0.76761 0.32484 0.57815 0.0
C923 C 0.76947 0.33256 0.56234 0.0
C924 C 0.75536 0.33932 0.55372 0.0
C925 C 0.73937 0.33864 0.56157 0.0
C926 C 0.73748 0.33068 0.57744 0.0
H927 H 0.73191 0.27548 0.587 0.0
H928 H 0.72465 0.2962 0.5813 0.0
H929 H 0.74518 0.28968 0.57464 0.0
H930 H 0.77863 0.3194 0.58431 0.0
H931 H 0.782 0.33301 0.55675 0.0
H932 H 0.50979 0.00815 0.59103 0.0
H933 H 0.52427 0.00845 0.61898 0.0
H934 H 0.55422 0.96631 0.60348 0.0
H935 H 0.5399 0.96604 0.57549 0.0
H936 H 0.52447 0.98355 0.64262 0.0
H937 H 0.59056 0.99888 0.62291 0.0
H938 H 0.57234 0.00131 0.60881 0.0
H939 H 0.58129 0.9808 0.61186 0.0
C940 C 0.5195 0.99899 0.59358 0.0
C941 C 0.52376 0.98711 0.58107 0.0
C942 C 0.5278 0.99921 0.60951 0.0
C943 C 0.54052 0.98758 0.6132 0.0
C944 C 0.54478 0.97569 0.60074 0.0
H945 H 0.57366 0.95411 0.71273 0.0
H946 H 0.56098 0.95725 0.68427 0.0
C947 C 0.53655 0.97552 0.58478 0.0
C948 C 0.54865 0.98727 0.6304 0.0
H949 H 0.58719 0.98871 0.65138 0.0
C950 C 0.53818 0.98481 0.64455 0.0
C951 C 0.56651 0.98916 0.63292 0.0
C952 C 0.57832 0.99286 0.61834 0.0
C953 C 0.54511 0.98372 0.66112 0.0
C954 C 0.56302 0.98475 0.66353 0.0
C955 C 0.57347 0.9877 0.64945 0.0
C956 C 0.57114 0.98271 0.68058 0.0
C957 C 0.53317 0.98164 0.67589 0.0
C958 C 0.58153 0.99577 0.68769 0.0
C959 C 0.58895 0.99396 0.70391 0.0
C960 C 0.58612 0.97902 0.71328 0.0
C961 C 0.57597 0.96584 0.70594 0.0
C962 C 0.56863 0.96764 0.68971 0.0
H963 H 0.52017 0.98594 0.67256 0.0
H964 H 0.53209 0.96805 0.67933 0.0
H965 H 0.538 0.98886 0.68727 0.0
H966 H 0.58371 0.00746 0.68079 0.0
H967 H 0.59674 0.00434 0.70916 0.0
H968 H 0.85148 0.23259 0.75439 0.0
H969 H 0.87338 0.23791 0.77654 0.0
H970 H 0.87597 0.18426 0.78569 0.0
H971 H 0.85401 0.17882 0.76357 0.0
H972 H 0.87378 0.22922 0.81139 0.0
H973 H 0.92566 0.19839 0.77637 0.0
H974 H 0.90579 0.20382 0.76612 0.0
H975 H 0.90674 0.18553 0.7796 0.0
C976 C 0.85658 0.22193 0.76122 0.0
C977 C 0.85108 0.20527 0.75714 0.0
C978 C 0.86914 0.22498 0.77383 0.0
C979 C 0.87647 0.21147 0.78257 0.0
C980 C 0.87074 0.19485 0.77884 0.0
H981 H 0.96347 0.21914 0.8555 0.0
H982 H 0.93853 0.20735 0.83957 0.0
C983 C 0.8582 0.19177 0.7662 0.0
C984 C 0.89022 0.21489 0.79546 0.0
H985 H 0.93276 0.21006 0.80335 0.0
C986 C 0.88664 0.22492 0.80971 0.0
C987 C 0.90697 0.20916 0.79329 0.0
C988 C 0.91164 0.19873 0.77797 0.0
C989 C 0.89946 0.22972 0.82164 0.0
C990 C 0.91633 0.22455 0.81911 0.0
C991 C 0.91979 0.21395 0.80526 0.0
C992 C 0.93083 0.2315 0.82957 0.0
C993 C 0.8949 0.24049 0.83674 0.0
C994 C 0.93479 0.24889 0.82909 0.0
C995 C 0.94897 0.2556 0.83801 0.0
C996 C 0.95959 0.24506 0.84762 0.0
C997 C 0.95552 0.2276 0.84826 0.0
C998 C 0.94131 0.22086 0.83918 0.0
H999 H 0.88114 0.23905 0.83968 0.0
H1000 H 0.90254 0.23719 0.84826 0.0
H1001 H 0.89763 0.25401 0.83375 0.0
H1002 H 0.92707 0.25727 0.82149 0.0
H1003 H 0.95169 0.2691 0.83721 0.0
H1004 H 0.46635 0.89917 0.50911 0.0
H1005 H 0.4672 0.86961 0.49951 0.0
H1006 H 0.50383 0.884 0.46147 0.0
H1007 H 0.50355 0.91326 0.47134 0.0
H1008 H 0.45809 0.85718 0.46863 0.0
H1009 H 0.52537 0.84259 0.48112 0.0
H1010 H 0.51555 0.8607 0.49055 0.0
H1011 H 0.52405 0.86191 0.46936 0.0
C1012 C 0.47483 0.89595 0.49892 0.0
C1013 C 0.48484 0.90859 0.49095 0.0
C1014 C 0.47526 0.87908 0.49343 0.0
C1015 C 0.48583 0.87453 0.48 0.0
C1016 C 0.49592 0.8871 0.47215 0.0
H1017 H 0.47825 0.81395 0.39548 0.0
H1018 H 0.47487 0.83257 0.41981 0.0
C1019 C 0.49552 0.9039 0.47762 0.0
C1020 C 0.4853 0.85705 0.47295 0.0
H1021 H 0.5113 0.82693 0.45751 0.0
C1022 C 0.46967 0.85034 0.4666 0.0
C1023 C 0.50029 0.84784 0.47066 0.0
C1024 C 0.51721 0.85357 0.47848 0.0
C1025 C 0.46891 0.83556 0.45659 0.0
C1026 C 0.48421 0.82752 0.45258 0.0
C1027 C 0.49959 0.83326 0.46033 0.0
C1028 C 0.48493 0.81511 0.43838 0.0
C1029 C 0.45181 0.82913 0.44977 0.0
C1030 C 0.49199 0.79912 0.44065 0.0
C1031 C 0.49405 0.78834 0.4266 0.0
C1032 C 0.48934 0.79357 0.41007 0.0
C1033 C 0.48205 0.8095 0.40799 0.0
C1034 C 0.47992 0.82013 0.42195 0.0
H1035 H 0.44149 0.83221 0.45868 0.0
H1036 H 0.44899 0.83541 0.43744 0.0
H1037 H 0.45165 0.81522 0.44762 0.0
H1038 H 0.49613 0.79511 0.45322 0.0
H1039 H 0.49976 0.77617 0.42859 0.0
H1040 H 0.17359 0.26793 0.77042 0.0
H1041 H 0.15536 0.25954 0.79426 0.0
H1042 H 0.11067 0.26815 0.763 0.0
H1043 H 0.12868 0.27609 0.73914 0.0
H1044 H 0.13226 0.27945 0.81016 0.0
H1045 H 0.09914 0.22227 0.78371 0.0
H1046 H 0.11845 0.23109 0.77469 0.0
H1047 H 0.09806 0.23961 0.7691 0.0
C1048 C 0.15988 0.26773 0.76857 0.0
C1049 C 0.15257 0.27273 0.75292 0.0
C1050 C 0.1495 0.26298 0.7822 0.0
C1051 C 0.13166 0.26293 0.78031 0.0
C1052 C 0.12439 0.26771 0.76463 0.0
H1053 H 0.0494 0.28766 0.83847 0.0
H1054 H 0.0758 0.28515 0.82308 0.0
C1055 C 0.13471 0.27249 0.75108 0.0
C1056 C 0.12048 0.25935 0.79499 0.0
H1057 H 0.08411 0.23743 0.80563 0.0
C1058 C 0.12197 0.26999 0.80936 0.0
C1059 C 0.10726 0.24679 0.79414 0.0
C1060 C 0.10574 0.23417 0.77965 0.0
C1061 C 0.10974 0.26934 0.8222 0.0
C1062 C 0.09556 0.25795 0.82045 0.0
C1063 C 0.09487 0.24633 0.80684 0.0
C1064 C 0.0803 0.25949 0.83115 0.0
C1065 C 0.11176 0.28132 0.83719 0.0
C1066 C 0.07387 0.24576 0.84065 0.0
C1067 C 0.05861 0.24714 0.84953 0.0
C1068 C 0.04944 0.26217 0.84876 0.0
C1069 C 0.05609 0.27588 0.83935 0.0
C1070 C 0.0713 0.27454 0.83064 0.0
H1071 H 0.12541 0.2847 0.8398 0.0
H1072 H 0.10511 0.29319 0.83423 0.0
H1073 H 0.10618 0.27575 0.84889 0.0
H1074 H 0.08056 0.23397 0.84104 0.0
H1075 H 0.05379 0.23633 0.85661 0.0
H1076 H 0.51932 0.61557 0.52211 0.0
H1077 H 0.51348 0.63714 0.50066 0.0
H1078 H 0.55476 0.61936 0.47042 0.0
H1079 H 0.56056 0.59765 0.49177 0.0
H1080 H 0.5343 0.66283 0.49084 0.0
H1081 H 0.51699 0.62243 0.43479 0.0
H1082 H 0.51828 0.61416 0.45619 0.0
H1083 H 0.53734 0.6177 0.44414 0.0
C1084 C 0.5271 0.6162 0.51085 0.0
C1085 C 0.54041 0.6049 0.50864 0.0
C1086 C 0.52371 0.6285 0.49857 0.0
C1087 C 0.53353 0.62976 0.48381 0.0
C1088 C 0.54673 0.61839 0.48149 0.0
H1089 H 0.54584 0.71979 0.4218 0.0
H1090 H 0.54933 0.69607 0.44131 0.0
C1091 C 0.55007 0.606 0.49372 0.0
C1092 C 0.53058 0.64361 0.47142 0.0
H1093 H 0.52216 0.65182 0.42937 0.0
C1094 C 0.53155 0.6604 0.47741 0.0
C1095 C 0.52679 0.64046 0.45394 0.0
C1096 C 0.52461 0.62271 0.44689 0.0
C1097 C 0.52915 0.67412 0.46639 0.0
C1098 C 0.52606 0.671 0.44878 0.0
C1099 C 0.52473 0.65421 0.44283 0.0
C1100 C 0.52414 0.68503 0.4364 0.0
C1101 C 0.52969 0.69181 0.47378 0.0
C1102 C 0.50904 0.6864 0.42668 0.0
C1103 C 0.50705 0.6999 0.41536 0.0
C1104 C 0.52016 0.71225 0.41353 0.0
C1105 C 0.53542 0.7106 0.42301 0.0
C1106 C 0.53741 0.69709 0.43425 0.0
H1107 H 0.52731 0.69175 0.48771 0.0
H1108 H 0.54251 0.69769 0.47183 0.0
H1109 H 0.5201 0.69983 0.46741 0.0
H1110 H 0.49867 0.67718 0.42805 0.0
H1111 H 0.49516 0.70075 0.40822 0.0
H1112 H 0.89526 0.81495 0.79792 0.0
H1113 H 0.91096 0.80487 0.77332 0.0
H1114 H 0.86576 0.80864 0.7416 0.0
H1115 H 0.85012 0.8192 0.76593 0.0
H1116 H 0.90413 0.77631 0.75217 0.0
H1117 H 0.9019 0.83618 0.71557 0.0
H1118 H 0.8971 0.83507 0.73798 0.0
H1119 H 0.88139 0.82828 0.7222 0.0
C1120 C 0.88871 0.8138 0.78567 0.0
C1121 C 0.87146 0.81799 0.78387 0.0
C1122 C 0.89767 0.80793 0.77167 0.0
C1123 C 0.88958 0.80625 0.75561 0.0
C1124 C 0.87231 0.81012 0.75383 0.0
H1125 H 0.91572 0.77472 0.65453 0.0
H1126 H 0.90198 0.78344 0.68069 0.0
C1127 C 0.86334 0.81598 0.7678 0.0
C1128 C 0.89916 0.80041 0.74069 0.0
H1129 H 0.91143 0.81201 0.70076 0.0
C1130 C 0.90586 0.78413 0.74096 0.0
C1131 C 0.90142 0.8107 0.72614 0.0
C1132 C 0.89522 0.82859 0.72545 0.0
C1133 C 0.91431 0.77765 0.72681 0.0
C1134 C 0.91629 0.78784 0.71215 0.0
C1135 C 0.90982 0.80421 0.712 0.0
C1136 C 0.92465 0.78169 0.69662 0.0
C1137 C 0.9206 0.7598 0.72745 0.0
C1138 C 0.94199 0.7778 0.69692 0.0
C1139 C 0.94993 0.77278 0.68195 0.0
C1140 C 0.94067 0.77166 0.66641 0.0
C1141 C 0.92326 0.77544 0.66625 0.0
C1142 C 0.91536 0.78044 0.68119 0.0
H1143 H 0.91481 0.75243 0.73801 0.0
H1144 H 0.91774 0.75305 0.71522 0.0
H1145 H 0.93464 0.76021 0.7295 0.0
H1146 H 0.94946 0.77897 0.70865 0.0
H1147 H 0.96337 0.77003 0.68252 0.0
H1148 H 0.05365 0.90409 0.51535 0.0
H1149 H 0.04393 0.88533 0.53821 0.0
H1150 H 0.02093 0.8511 0.50082 0.0
H1151 H 0.03041 0.86982 0.47791 0.0
H1152 H 0.01055 0.87484 0.54574 0.0
H1153 H 0.05023 0.82008 0.53045 0.0
H1154 H 0.05439 0.84097 0.52196 0.0
H1155 H 0.03794 0.82741 0.51255 0.0
C1156 C 0.04644 0.89261 0.51199 0.0
C1157 C 0.04286 0.88842 0.49479 0.0
C1158 C 0.041 0.88187 0.52506 0.0
C1159 C 0.03198 0.86671 0.52118 0.0
C1160 C 0.02824 0.86255 0.50406 0.0
H1161 H 0.9643 0.80424 0.57937 0.0
H1162 H 0.97815 0.82507 0.56096 0.0
C1163 C 0.03366 0.87327 0.49099 0.0
C1164 C 0.02592 0.85548 0.53502 0.0
H1165 H 0.02737 0.81492 0.54966 0.0
C1166 C 0.01434 0.86179 0.54672 0.0
C1167 C 0.03111 0.83854 0.53642 0.0
C1168 C 0.04423 0.83136 0.52479 0.0
C1169 C 0.00727 0.85138 0.55938 0.0
C1170 C 0.01174 0.83419 0.56017 0.0
C1171 C 0.02385 0.82807 0.54892 0.0
C1172 C 0.00336 0.82213 0.57199 0.0
C1173 C 0.99501 0.85887 0.57175 0.0
C1174 C 0.013 0.81336 0.58414 0.0
C1175 C 0.00513 0.80135 0.59469 0.0
C1176 C 0.98748 0.79779 0.59313 0.0
C1177 C 0.97789 0.80669 0.58098 0.0
C1178 C 0.98576 0.8187 0.5705 0.0
H1179 H 0.99676 0.87285 0.57269 0.0
H1180 H 0.98175 0.85601 0.56721 0.0
H1181 H 0.99662 0.85337 0.58467 0.0
H1182 H 0.02664 0.81575 0.58539 0.0
H1183 H 0.0129 0.79467 0.60387 0.0
H1184 H 0.1711 0.74842 0.69467 0.0
H1185 H 0.14332 0.74932 0.67997 0.0
H1186 H 0.11867 0.73121 0.72537 0.0
H1187 H 0.14641 0.73044 0.74024 0.0
H1188 H 0.11743 0.7211 0.67573 0.0
H1189 H 0.09504 0.77675 0.712 0.0
H1190 H 0.11732 0.77185 0.71076 0.0
H1191 H 0.1035 0.7596 0.72424 0.0
C1192 C 0.15976 0.74468 0.70154 0.0
C1193 C 0.16092 0.73944 0.71864 0.0
C1194 C 0.14393 0.74512 0.69311 0.0
C1195 C 0.12898 0.74049 0.70166 0.0
C1196 C 0.13009 0.73497 0.71862 0.0
H1197 H 0.02202 0.74697 0.6712 0.0
H1198 H 0.04877 0.74269 0.68693 0.0
C1199 C 0.14593 0.73442 0.72704 0.0
C1200 C 0.11223 0.74163 0.69283 0.0
H1201 H 0.07588 0.76429 0.69178 0.0
C1202 C 0.1083 0.73051 0.67922 0.0
C1203 C 0.10039 0.75386 0.69752 0.0
C1204 C 0.10422 0.76631 0.71185 0.0
C1205 C 0.09272 0.73126 0.67018 0.0
C1206 C 0.081 0.74376 0.67461 0.0
C1207 C 0.08488 0.75474 0.68838 0.0
C1208 C 0.06478 0.74593 0.66493 0.0
C1209 C 0.08888 0.71845 0.65618 0.0
C1210 C 0.0649 0.74936 0.64737 0.0
C1211 C 0.04964 0.75171 0.63833 0.0
C1212 C 0.03395 0.75089 0.64672 0.0
C1213 C 0.03388 0.74766 0.66435 0.0
C1214 C 0.04915 0.74521 0.67336 0.0
H1215 H 0.09645 0.7069 0.65789 0.0
H1216 H 0.07513 0.71468 0.65571 0.0
H1217 H 0.09226 0.7241 0.64371 0.0
H1218 H 0.07683 0.75044 0.64068 0.0
H1219 H 0.05017 0.75432 0.62479 0.0
H1220 H 0.95754 0.5961 0.51734 0.0
H1221 H 0.95626 0.62222 0.53415 0.0
H1222 H 0.99878 0.60659 0.5653 0.0
H1223 H 0.00035 0.58053 0.54838 0.0
H1224 H 0.95207 0.6242 0.57117 0.0
H1225 H 0.01212 0.65549 0.54895 0.0
H1226 H 0.00141 0.63842 0.53722 0.0
H1227 H 0.01352 0.63401 0.55625 0.0
C1228 C 0.96676 0.59832 0.52763 0.0
C1229 C 0.9791 0.5863 0.5315 0.0
C1230 C 0.96593 0.61318 0.53727 0.0
C1231 C 0.97751 0.61635 0.55084 0.0
C1232 C 0.98986 0.60442 0.55475 0.0
H1233 H 0.99068 0.70551 0.61676 0.0
H1234 H 0.99341 0.67742 0.60393 0.0
C1235 C 0.99065 0.58951 0.54516 0.0
C1236 C 0.97638 0.63201 0.56109 0.0
H1237 H 0.99686 0.66982 0.56994 0.0
C1238 C 0.96186 0.63418 0.57095 0.0
C1239 C 0.98926 0.64488 0.56086 0.0
C1240 C 0.00494 0.64324 0.55018 0.0
C1241 C 0.95984 0.64899 0.58057 0.0
C1242 C 0.97249 0.66209 0.57996 0.0
C1243 C 0.98718 0.65975 0.57037 0.0
C1244 C 0.97035 0.67867 0.58846 0.0
C1245 C 0.94423 0.65037 0.5914 0.0
C1246 C 0.95653 0.68869 0.58397 0.0
C1247 C 0.95488 0.70467 0.5913 0.0
C1248 C 0.96715 0.71106 0.60316 0.0
C1249 C 0.98098 0.70096 0.60771 0.0
C1250 C 0.98258 0.68492 0.60038 0.0
H1251 H 0.93878 0.63769 0.59468 0.0
H1252 H 0.94721 0.65747 0.60341 0.0
H1253 H 0.93432 0.65723 0.58416 0.0
H1254 H 0.94717 0.68429 0.57449 0.0
H1255 H 0.94414 0.71214 0.58741 0.0
H1256 H 0.74836 0.84794 0.2341 0.0
H1257 H 0.7693 0.87074 0.2404 0.0
H1258 H 0.77746 0.87747 0.18655 0.0
H1259 H 0.75641 0.8547 0.18014 0.0
H1260 H 0.80344 0.87476 0.23263 0.0
H1261 H 0.76527 0.92485 0.20191 0.0
H1262 H 0.75647 0.90399 0.20627 0.0
H1263 H 0.77009 0.90732 0.18833 0.0
C1264 C 0.75475 0.85413 0.2236 0.0
C1265 C 0.75065 0.84959 0.20662 0.0
C1266 C 0.76667 0.8672 0.22722 0.0
C1267 C 0.77472 0.876 0.21394 0.0
C1268 C 0.7711 0.87113 0.19698 0.0
H1269 H 0.8435 0.96596 0.22467 0.0
H1270 H 0.82863 0.94084 0.2123 0.0
C1271 C 0.7591 0.8581 0.19334 0.0
C1272 C 0.78665 0.89044 0.218 0.0
H1273 H 0.79184 0.93334 0.21411 0.0
C1274 C 0.80097 0.88755 0.22847 0.0
C1275 C 0.78344 0.90712 0.21251 0.0
C1276 C 0.76792 0.91111 0.20175 0.0
C1277 C 0.81195 0.90093 0.23391 0.0
C1278 C 0.80843 0.91764 0.22886 0.0
C1279 C 0.79451 0.92048 0.21788 0.0
C1280 C 0.81801 0.93245 0.2362 0.0
C1281 C 0.82712 0.89714 0.24522 0.0
C1282 C 0.81678 0.93608 0.25364 0.0
C1283 C 0.82508 0.95039 0.26069 0.0
C1284 C 0.83484 0.9614 0.25043 0.0
C1285 C 0.83614 0.9577 0.23292 0.0
C1286 C 0.82767 0.94338 0.22584 0.0
H1287 H 0.83068 0.88368 0.24414 0.0
H1288 H 0.83831 0.90536 0.24198 0.0
H1289 H 0.8239 0.89966 0.25871 0.0
H1290 H 0.80915 0.92795 0.26179 0.0
H1291 H 0.82379 0.95282 0.27421 0.0
H1292 H 0.76039 0.16904 0.23175 0.0
H1293 H 0.77627 0.14283 0.23135 0.0
H1294 H 0.78965 0.14984 0.28458 0.0
H1295 H 0.77412 0.17626 0.28502 0.0
H1296 H 0.81746 0.141 0.26319 0.0
H1297 H 0.76061 0.09792 0.25422 0.0
H1298 H 0.76258 0.11494 0.23917 0.0
H1299 H 0.75903 0.11961 0.26125 0.0
C1300 C 0.76679 0.16506 0.24335 0.0
C1301 C 0.76593 0.17471 0.25844 0.0
C1302 C 0.77575 0.15001 0.24313 0.0
C1303 C 0.78399 0.14433 0.25798 0.0
C1304 C 0.78332 0.15399 0.273 0.0
H1305 H 0.81968 0.04752 0.2875 0.0
H1306 H 0.80595 0.07451 0.28368 0.0
C1307 C 0.77431 0.169 0.27326 0.0
C1308 C 0.79329 0.12826 0.25793 0.0
H1309 H 0.78751 0.08538 0.25433 0.0
C1310 C 0.81096 0.12882 0.26116 0.0
C1311 C 0.78472 0.11243 0.25539 0.0
C1312 C 0.76567 0.11106 0.25244 0.0
C1313 C 0.82029 0.11392 0.26205 0.0
C1314 C 0.81171 0.0981 0.25951 0.0
C1315 C 0.79407 0.09756 0.25612 0.0
C1316 C 0.8205 0.08186 0.26161 0.0
C1317 C 0.83912 0.11516 0.26625 0.0
C1318 C 0.83325 0.07699 0.25041 0.0
C1319 C 0.8412 0.06145 0.25254 0.0
C1320 C 0.83648 0.05055 0.26591 0.0
C1321 C 0.82369 0.05556 0.27707 0.0
C1322 C 0.81577 0.071 0.2749 0.0
H1323 H 0.8432 0.12803 0.27077 0.0
H1324 H 0.84251 0.10584 0.27623 0.0
H1325 H 0.84639 0.11219 0.25466 0.0
H1326 H 0.83693 0.08512 0.23993 0.0
H1327 H 0.85095 0.05796 0.24369 0.0
H1328 H 0.39331 0.00879 0.98811 0.0
H1329 H 0.36536 0.99402 0.98732 0.0
H1330 H 0.3899 0.94618 0.98262 0.0
H1331 H 0.41779 0.96065 0.98386 0.0
H1332 H 0.36087 0.95322 0.95822 0.0
H1333 H 0.34676 0.96244 0.0271 0.0
H1334 H 0.35387 0.98042 0.01479 0.0
H1335 H 0.36829 0.96379 0.01934 0.0
C1336 C 0.39276 0.99511 0.98705 0.0
C1337 C 0.40783 0.98591 0.98604 0.0
C1338 C 0.37679 0.98673 0.98653 0.0
C1339 C 0.37563 0.96904 0.98498 0.0
C1340 C 0.39057 0.95986 0.98376 0.0
H1341 H 0.31405 0.8811 0.98259 0.0
H1342 H 0.33453 0.90447 0.97924 0.0
C1343 C 0.4065 0.96818 0.98436 0.0
C1344 C 0.35895 0.95985 0.98478 0.0
H1345 H 0.32795 0.94467 0.0111 0.0
C1346 C 0.3535 0.95155 0.9697 0.0
C1347 C 0.34932 0.95787 0.99974 0.0
C1348 C 0.35478 0.96651 0.01624 0.0
C1349 C 0.33902 0.94071 0.96937 0.0
C1350 C 0.33003 0.93781 0.98461 0.0
C1351 C 0.3349 0.94689 0.99945 0.0
C1352 C 0.317 0.92395 0.98593 0.0
C1353 C 0.33371 0.93215 0.95277 0.0
C1354 C 0.30037 0.92709 0.99119 0.0
C1355 C 0.28853 0.91364 0.99323 0.0
C1356 C 0.29325 0.89685 0.99024 0.0
C1357 C 0.30993 0.89385 0.98496 0.0
C1358 C 0.32166 0.90723 0.98289 0.0
H1359 H 0.33784 0.9398 0.94164 0.0
H1360 H 0.33987 0.91972 0.95194 0.0
H1361 H 0.31968 0.92997 0.95191 0.0
H1362 H 0.29659 0.93992 0.99377 0.0
H1363 H 0.27581 0.91638 0.99737 0.0
H1364 H 0.28707 0.4096 0.32033 0.0
H1365 H 0.26142 0.42401 0.3106 0.0
H1366 H 0.23556 0.37569 0.30224 0.0
H1367 H 0.261 0.3612 0.31218 0.0
H1368 H 0.24283 0.41951 0.27781 0.0
H1369 H 0.20405 0.40279 0.33428 0.0
H1370 H 0.22703 0.40189 0.33447 0.0
H1371 H 0.21429 0.38542 0.32418 0.0
C1372 C 0.27588 0.40206 0.31651 0.0
C1373 C 0.27603 0.38427 0.31707 0.0
C1374 C 0.2613 0.4103 0.31087 0.0
C1375 C 0.2466 0.40089 0.30589 0.0
C1376 C 0.24676 0.38315 0.30622 0.0
H1377 H 0.1439 0.42299 0.27401 0.0
H1378 H 0.17071 0.40999 0.28205 0.0
C1379 C 0.26134 0.37491 0.31176 0.0
C1380 C 0.23102 0.40958 0.30037 0.0
H1381 H 0.18974 0.41571 0.31116 0.0
C1382 C 0.23122 0.41879 0.28511 0.0
C1383 C 0.21595 0.40855 0.30995 0.0
C1384 C 0.21525 0.39925 0.32671 0.0
C1385 C 0.21655 0.42667 0.27892 0.0
C1386 C 0.20143 0.42558 0.28848 0.0
C1387 C 0.20133 0.41649 0.30383 0.0
C1388 C 0.18547 0.43357 0.28276 0.0
C1389 C 0.21723 0.43565 0.26199 0.0
C1390 C 0.18486 0.45115 0.28052 0.0
C1391 C 0.16955 0.45864 0.27582 0.0
C1392 C 0.15452 0.44867 0.27348 0.0
C1393 C 0.15521 0.43105 0.27571 0.0
C1394 C 0.17053 0.42359 0.28032 0.0
H1395 H 0.22808 0.43149 0.25425 0.0
H1396 H 0.20522 0.4334 0.25449 0.0
H1397 H 0.21891 0.44948 0.26427 0.0
H1398 H 0.19615 0.45914 0.28271 0.0
H1399 H 0.16944 0.47226 0.27432 0.0
H1400 H 0.10729 0.00837 0.43928 0.0
H1401 H 0.1259 0.03238 0.4477 0.0
H1402 H 0.12237 0.0176 0.50048 0.0
H1403 H 0.1039 0.99326 0.49205 0.0
H1404 H 0.12231 0.05967 0.46888 0.0
H1405 H 0.17334 0.0182 0.49344 0.0
H1406 H 0.15516 0.00995 0.48131 0.0
H1407 H 0.15301 0.01561 0.5034 0.0
C1408 C 0.11028 0.01035 0.45271 0.0
C1409 C 0.10423 0.99889 0.465 0.0
C1410 C 0.12094 0.02407 0.4575 0.0
C1411 C 0.12574 0.02663 0.47468 0.0
C1412 C 0.11914 0.01563 0.4871 0.0
H1413 H 0.20916 0.09801 0.50587 0.0
H1414 H 0.18262 0.08101 0.50849 0.0
C1415 C 0.10858 0.00178 0.48229 0.0
C1416 C 0.13832 0.04038 0.47921 0.0
H1417 H 0.17941 0.04739 0.49317 0.0
C1418 C 0.13471 0.05703 0.47442 0.0
C1419 C 0.15449 0.03692 0.4865 0.0
C1420 C 0.15936 0.01921 0.49136 0.0
C1421 C 0.14709 0.07015 0.47602 0.0
C1422 C 0.16347 0.06649 0.48252 0.0
C1423 C 0.16678 0.05011 0.48826 0.0
C1424 C 0.17801 0.07872 0.48127 0.0
C1425 C 0.14276 0.08771 0.47027 0.0
C1426 C 0.18406 0.08312 0.46511 0.0
C1427 C 0.19923 0.09258 0.46357 0.0
C1428 C 0.20862 0.09791 0.47818 0.0
C1429 C 0.20215 0.09415 0.49439 0.0
C1430 C 0.18703 0.08445 0.49592 0.0
H1431 H 0.12878 0.08958 0.47029 0.0
H1432 H 0.14917 0.09749 0.47858 0.0
H1433 H 0.14722 0.08963 0.45704 0.0
H1434 H 0.17743 0.07858 0.45365 0.0
H1435 H 0.20385 0.09531 0.45091 0.0
H1436 H 0.7435 0.14997 0.75184 0.0
H1437 H 0.72301 0.12783 0.76053 0.0
H1438 H 0.71457 0.11338 0.70785 0.0
H1439 H 0.73549 0.13494 0.69909 0.0
H1440 H 0.68864 0.12223 0.75194 0.0
H1441 H 0.72745 0.06895 0.73021 0.0
H1442 H 0.73601 0.09033 0.73227 0.0
H1443 H 0.72326 0.08416 0.71384 0.0
C1444 C 0.73737 0.142 0.74211 0.0
C1445 C 0.74125 0.14416 0.72478 0.0
C1446 C 0.72559 0.12944 0.74709 0.0
C1447 C 0.71751 0.11878 0.73486 0.0
C1448 C 0.72092 0.12126 0.71752 0.0
H1449 H 0.64482 0.03482 0.73532 0.0
H1450 H 0.66367 0.05882 0.72821 0.0
C1451 C 0.73273 0.13375 0.71253 0.0
C1452 C 0.70566 0.10495 0.74019 0.0
H1453 H 0.69905 0.06207 0.73827 0.0
C1454 C 0.69094 0.10907 0.74906 0.0
C1455 C 0.70877 0.08778 0.73648 0.0
C1456 C 0.7248 0.08248 0.72783 0.0
C1457 C 0.679 0.09647 0.7539 0.0
C1458 C 0.68199 0.07936 0.7499 0.0
C1459 C 0.69678 0.07523 0.74121 0.0
C1460 C 0.66987 0.06548 0.75444 0.0
C1461 C 0.66309 0.10157 0.76288 0.0
C1462 C 0.66715 0.06129 0.77157 0.0
C1463 C 0.6564 0.04753 0.77571 0.0
C1464 C 0.64824 0.03772 0.76276 0.0
C1465 C 0.65088 0.04211 0.74561 0.0
C1466 C 0.66165 0.05581 0.74151 0.0
H1467 H 0.66102 0.11538 0.76189 0.0
H1468 H 0.65171 0.09459 0.7575 0.0
H1469 H 0.66426 0.09832 0.7766 0.0
H1470 H 0.67359 0.06845 0.78173 0.0
H1471 H 0.65468 0.04446 0.78903 0.0
H1472 H 0.4231 0.03176 0.53726 0.0
H1473 H 0.39613 0.04658 0.53643 0.0
H1474 H 0.37975 0.01716 0.49227 0.0
H1475 H 0.4066 0.00227 0.49307 0.0
H1476 H 0.38427 0.06622 0.51077 0.0
H1477 H 0.33812 0.01328 0.52184 0.0
H1478 H 0.36071 0.01155 0.52599 0.0
H1479 H 0.35213 0.00893 0.50464 0.0
C1480 C 0.4137 0.02839 0.52744 0.0
C1481 C 0.41696 0.01582 0.51524 0.0
C1482 C 0.39828 0.03681 0.52703 0.0
C1483 C 0.38581 0.03279 0.51446 0.0
C1484 C 0.38898 0.02015 0.50237 0.0
H1485 H 0.29761 0.07408 0.46878 0.0
H1486 H 0.32215 0.05804 0.47811 0.0
C1487 C 0.40435 0.01167 0.50281 0.0
C1488 C 0.37005 0.04263 0.51316 0.0
H1489 H 0.32669 0.0385 0.50959 0.0
C1490 C 0.37166 0.06021 0.51081 0.0
C1491 C 0.35362 0.03477 0.51326 0.0
C1492 C 0.35101 0.01612 0.51675 0.0
C1493 C 0.35731 0.07002 0.5077 0.0
C1494 C 0.34096 0.06202 0.5071 0.0
C1495 C 0.33929 0.04455 0.51002 0.0
C1496 C 0.3256 0.07137 0.50215 0.0
C1497 C 0.35977 0.08871 0.50432 0.0
C1498 C 0.31929 0.08403 0.51273 0.0
C1499 C 0.30519 0.09325 0.50745 0.0
C1500 C 0.29724 0.08997 0.49147 0.0
C1501 C 0.30346 0.07703 0.4811 0.0
C1502 C 0.31746 0.06779 0.48643 0.0
H1503 H 0.37341 0.09244 0.50275 0.0
H1504 H 0.35254 0.09232 0.49265 0.0
H1505 H 0.3548 0.09601 0.5152 0.0
H1506 H 0.32534 0.08683 0.525 0.0
H1507 H 0.30068 0.10309 0.51576 0.0
H1508 H 0.61835 0.51194 0.52383 0.0
H1509 H 0.63785 0.48923 0.51757 0.0
H1510 H 0.6101 0.45591 0.55127 0.0
H1511 H 0.59064 0.4786 0.55775 0.0
H1512 H 0.65855 0.47281 0.54145 0.0
H1513 H 0.61441 0.42696 0.50797 0.0
H1514 H 0.60935 0.44889 0.51113 0.0
H1515 H 0.60724 0.43408 0.52835 0.0
C1516 C 0.61636 0.49978 0.5299 0.0
C1517 C 0.60292 0.49713 0.54133 0.0
C1518 C 0.62747 0.48679 0.52624 0.0
C1519 C 0.62533 0.47082 0.5338 0.0
C1520 C 0.61179 0.46802 0.545 0.0
H1521 H 0.68384 0.37908 0.53478 0.0
H1522 H 0.66257 0.40074 0.53869 0.0
C1523 C 0.60066 0.48102 0.54869 0.0
C1524 C 0.63787 0.45746 0.53073 0.0
H1525 H 0.64198 0.41732 0.5152 0.0
C1526 C 0.65496 0.46071 0.53561 0.0
C1527 C 0.63312 0.44165 0.52322 0.0
C1528 C 0.61507 0.43767 0.51721 0.0
C1529 C 0.66739 0.4485 0.53345 0.0
C1530 C 0.66268 0.43271 0.52585 0.0
C1531 C 0.64558 0.42944 0.52099 0.0
C1532 C 0.67534 0.41941 0.52295 0.0
C1533 C 0.68538 0.45247 0.53973 0.0
C1534 C 0.68942 0.42258 0.51252 0.0
C1535 C 0.70164 0.41026 0.5103 0.0
C1536 C 0.69996 0.39444 0.51836 0.0
C1537 C 0.68558 0.39114 0.52843 0.0
C1538 C 0.67339 0.40349 0.53067 0.0
H1539 H 0.68586 0.46298 0.54921 0.0
H1540 H 0.69112 0.44119 0.54564 0.0
H1541 H 0.69329 0.4564 0.52877 0.0
H1542 H 0.69099 0.43463 0.50612 0.0
H1543 H 0.71246 0.4132 0.50235 0.0
H1544 H 0.73962 0.25324 0.34476 0.0
H1545 H 0.74 0.26771 0.37241 0.0
H1546 H 0.70867 0.30668 0.35144 0.0
H1547 H 0.70855 0.29255 0.32356 0.0
H1548 H 0.75239 0.30332 0.37657 0.0
H1549 H 0.68568 0.29188 0.39777 0.0
H1550 H 0.69551 0.27834 0.38237 0.0
H1551 H 0.68888 0.29899 0.37623 0.0
C1552 C 0.73281 0.26489 0.34598 0.0
C1553 C 0.72413 0.27176 0.33187 0.0
C1554 C 0.73294 0.27307 0.36183 0.0
C1555 C 0.72425 0.28816 0.36397 0.0
C1556 C 0.71523 0.29489 0.35009 0.0
H1557 H 0.72473 0.35407 0.45514 0.0
H1558 H 0.7172 0.34168 0.42701 0.0
C1559 C 0.71515 0.28676 0.33418 0.0
C1560 C 0.72579 0.29745 0.3804 0.0
H1561 H 0.70408 0.308 0.41615 0.0
C1562 C 0.74182 0.30441 0.38519 0.0
C1563 C 0.7119 0.29903 0.39148 0.0
C1564 C 0.69449 0.29162 0.38685 0.0
C1565 C 0.74443 0.31266 0.40094 0.0
C1566 C 0.73075 0.31362 0.41237 0.0
C1567 C 0.71455 0.30717 0.40737 0.0
C1568 C 0.73353 0.32025 0.42995 0.0
C1569 C 0.7619 0.32021 0.40524 0.0
C1570 C 0.74464 0.31195 0.44108 0.0
C1571 C 0.74898 0.31897 0.45698 0.0
C1572 C 0.74217 0.33439 0.46219 0.0
C1573 C 0.73021 0.3422 0.45146 0.0
C1574 C 0.72592 0.33516 0.43541 0.0
H1575 H 0.76938 0.3227 0.39357 0.0
H1576 H 0.76096 0.33224 0.4125 0.0
H1577 H 0.76902 0.31117 0.41325 0.0
H1578 H 0.75037 0.30025 0.43725 0.0
H1579 H 0.75805 0.31248 0.46501 0.0
H1580 H 0.53524 0.04218 0.93322 0.0
H1581 H 0.54987 0.04147 0.90588 0.0
H1582 H 0.5091 0.00965 0.88464 0.0
H1583 H 0.49437 0.01049 0.91177 0.0
H1584 H 0.56186 0.01421 0.89043 0.0
H1585 H 0.51509 0.04346 0.84696 0.0
H1586 H 0.51367 0.04491 0.86988 0.0
H1587 H 0.50548 0.02635 0.85865 0.0
C1588 C 0.52934 0.03518 0.92265 0.0
C1589 C 0.51363 0.02644 0.92461 0.0
C1590 C 0.53767 0.03484 0.90703 0.0
C1591 C 0.53044 0.02576 0.89311 0.0
C1592 C 0.51468 0.01718 0.89501 0.0
H1593 H 0.56182 0.97695 0.80355 0.0
H1594 H 0.5481 0.98834 0.82868 0.0
C1595 C 0.5063 0.01761 0.91056 0.0
C1596 C 0.54001 0.02394 0.87708 0.0
H1597 H 0.53582 0.02582 0.83366 0.0
C1598 C 0.55631 0.01709 0.87804 0.0
C1599 C 0.53279 0.02775 0.8609 0.0
C1600 C 0.51587 0.03619 0.85904 0.0
C1601 C 0.56517 0.0131 0.86324 0.0
C1602 C 0.55753 0.01605 0.84712 0.0
C1603 C 0.54156 0.02351 0.8461 0.0
C1604 C 0.56533 0.01008 0.83127 0.0
C1605 C 0.58231 0.00501 0.86484 0.0
C1606 C 0.57942 0.01874 0.82435 0.0
C1607 C 0.58729 0.01231 0.8099 0.0
C1608 C 0.58123 0.99706 0.80229 0.0
C1609 C 0.56688 0.98866 0.80914 0.0
C1610 C 0.55897 0.99516 0.82346 0.0
H1611 H 0.58607 0.00269 0.87834 0.0
H1612 H 0.58205 0.99279 0.85777 0.0
H1613 H 0.59219 0.01338 0.85902 0.0
H1614 H 0.58446 0.03031 0.83026 0.0
H1615 H 0.59831 0.01908 0.80493 0.0
H1616 H 0.3351 0.27574 0.38897 0.0
H1617 H 0.32465 0.25069 0.40424 0.0
H1618 H 0.27464 0.27176 0.40641 0.0
H1619 H 0.28496 0.29675 0.39088 0.0
H1620 H 0.31057 0.2466 0.4355 0.0
H1621 H 0.26432 0.22599 0.38452 0.0
H1622 H 0.28035 0.24243 0.3813 0.0
H1623 H 0.26117 0.247 0.39244 0.0
C1624 C 0.32191 0.2751 0.39284 0.0
C1625 C 0.31081 0.28814 0.38864 0.0
C1626 C 0.31595 0.26077 0.40152 0.0
C1627 C 0.2988 0.25922 0.40619 0.0
C1628 C 0.28782 0.27249 0.40254 0.0
H1629 H 0.26218 0.17919 0.475 0.0
H1630 H 0.26974 0.2068 0.46275 0.0
C1631 C 0.29373 0.28677 0.39372 0.0
C1632 C 0.29244 0.2436 0.41467 0.0
H1633 H 0.26405 0.21023 0.41008 0.0
C1634 C 0.30037 0.23866 0.42998 0.0
C1635 C 0.27926 0.23316 0.40732 0.0
C1636 C 0.27087 0.23729 0.39041 0.0
C1637 C 0.29557 0.22349 0.4381 0.0
C1638 C 0.28221 0.2132 0.43089 0.0
C1639 C 0.27419 0.21822 0.41566 0.0
C1640 C 0.27704 0.19665 0.43833 0.0
C1641 C 0.30528 0.21836 0.45397 0.0
C1642 C 0.27809 0.18185 0.42848 0.0
C1643 C 0.27356 0.16612 0.43534 0.0
C1644 C 0.26792 0.16484 0.45223 0.0
C1645 C 0.26661 0.17972 0.462 0.0
C1646 C 0.27103 0.1955 0.45506 0.0
H1647 H 0.31771 0.22538 0.45534 0.0
H1648 H 0.29764 0.2212 0.46535 0.0
H1649 H 0.30766 0.20458 0.45384 0.0
H1650 H 0.28264 0.18244 0.41552 0.0
H1651 H 0.27472 0.15493 0.42745 0.0
H1652 H 0.53022 0.45858 0.86251 0.0
H1653 H 0.50826 0.46957 0.84325 0.0
H1654 H 0.47213 0.46772 0.88403 0.0
H1655 H 0.49406 0.45712 0.90345 0.0
H1656 H 0.47634 0.45396 0.83432 0.0
H1657 H 0.46859 0.51628 0.86565 0.0
H1658 H 0.48685 0.50339 0.86966 0.0
H1659 H 0.46701 0.49864 0.87996 0.0
C1660 C 0.51765 0.46072 0.86743 0.0
C1661 C 0.51389 0.45704 0.88453 0.0
C1662 C 0.50512 0.46691 0.85639 0.0
C1663 C 0.48866 0.46969 0.8623 0.0
C1664 C 0.48484 0.46595 0.87931 0.0
H1665 H 0.39029 0.4958 0.82521 0.0
H1666 H 0.4162 0.48924 0.84117 0.0
C1667 C 0.49733 0.45971 0.89033 0.0
C1668 C 0.47526 0.47593 0.85056 0.0
H1669 H 0.44701 0.50761 0.84531 0.0
C1670 C 0.47005 0.46579 0.83656 0.0
C1671 C 0.46715 0.49139 0.85353 0.0
C1672 C 0.47277 0.50315 0.86792 0.0
C1673 C 0.45637 0.47031 0.82588 0.0
C1674 C 0.44793 0.48555 0.82915 0.0
C1675 C 0.4535 0.49593 0.84285 0.0
C1676 C 0.43254 0.49034 0.81926 0.0
C1677 C 0.45058 0.45839 0.81167 0.0
C1678 C 0.4332 0.49346 0.80166 0.0
C1679 C 0.41834 0.49719 0.79242 0.0
C1680 C 0.4026 0.49793 0.80067 0.0
C1681 C 0.40215 0.49528 0.8184 0.0
C1682 C 0.41697 0.49155 0.82758 0.0
H1683 H 0.4561 0.44568 0.8131 0.0
H1684 H 0.43646 0.4569 0.81125 0.0
H1685 H 0.4547 0.46368 0.79928 0.0
H1686 H 0.44517 0.49291 0.79505 0.0
H1687 H 0.41915 0.49926 0.7788 0.0
H1688 H 0.7237 0.75792 0.12708 0.0
H1689 H 0.73087 0.73504 0.10761 0.0
H1690 H 0.71599 0.69816 0.14531 0.0
H1691 H 0.70839 0.72102 0.16477 0.0
H1692 H 0.75422 0.70821 0.11248 0.0
H1693 H 0.68725 0.68455 0.10222 0.0
H1694 H 0.69242 0.70508 0.11147 0.0
H1695 H 0.69471 0.68631 0.12401 0.0
C1696 C 0.72187 0.74494 0.13121 0.0
C1697 C 0.71532 0.74128 0.14741 0.0
C1698 C 0.72608 0.7319 0.12012 0.0
C1699 C 0.72374 0.71493 0.12495 0.0
C1700 C 0.71765 0.71118 0.14126 0.0
H1701 H 0.73416 0.6248 0.06038 0.0
H1702 H 0.73006 0.6432 0.08516 0.0
C1703 C 0.71347 0.72425 0.15241 0.0
C1704 C 0.72749 0.70127 0.11268 0.0
H1705 H 0.70855 0.67045 0.0875 0.0
C1706 C 0.74427 0.69986 0.10709 0.0
C1707 C 0.71448 0.69037 0.10576 0.0
C1708 C 0.69616 0.69164 0.11103 0.0
C1709 C 0.74837 0.68799 0.09455 0.0
C1710 C 0.73525 0.6775 0.08718 0.0
C1711 C 0.71857 0.67852 0.09317 0.0
C1712 C 0.73836 0.66618 0.07248 0.0
C1713 C 0.76669 0.68681 0.08929 0.0
C1714 C 0.7442 0.67304 0.0571 0.0
C1715 C 0.74655 0.6626 0.04296 0.0
C1716 C 0.74298 0.64507 0.04386 0.0
C1717 C 0.73708 0.63822 0.05928 0.0
C1718 C 0.73473 0.64871 0.07345 0.0
H1719 H 0.77562 0.69162 0.0995 0.0
H1720 H 0.76986 0.67356 0.08616 0.0
H1721 H 0.76878 0.69468 0.07778 0.0
H1722 H 0.74668 0.68654 0.05593 0.0
H1723 H 0.75101 0.66833 0.03127 0.0
H1724 H 0.0135 0.02789 0.1298 0.0
H1725 H 0.99052 0.02295 0.15 0.0
H1726 H 0.95329 0.03234 0.11029 0.0
H1727 H 0.9762 0.03695 0.08986 0.0
H1728 H 0.96558 0.04675 0.15877 0.0
H1729 H 0.93602 0.98743 0.13174 0.0
H1730 H 0.95726 0.99481 0.12642 0.0
H1731 H 0.939 0.00448 0.11689 0.0
C1732 C 0.00042 0.02859 0.12526 0.0
C1733 C 0.99669 0.03273 0.10817 0.0
C1734 C 0.98731 0.02588 0.13686 0.0
C1735 C 0.9702 0.02712 0.13161 0.0
C1736 C 0.96639 0.03108 0.11455 0.0
H1737 H 0.87484 0.01752 0.18703 0.0
H1738 H 0.89641 0.02167 0.1651 0.0
C1739 C 0.97951 0.03386 0.10293 0.0
C1740 C 0.95644 0.02503 0.14423 0.0
H1741 H 0.92181 0.00022 0.15462 0.0
C1742 C 0.95602 0.03656 0.15789 0.0
C1743 C 0.94393 0.01181 0.14297 0.0
C1744 C 0.94406 0.99881 0.12881 0.0
C1745 C 0.94337 0.03528 0.1703 0.0
C1746 C 0.93101 0.02188 0.16922 0.0
C1747 C 0.93131 0.01046 0.15543 0.0
C1748 C 0.91793 0.01929 0.18249 0.0
C1749 C 0.9432 0.04846 0.18429 0.0
C1750 C 0.92287 0.01633 0.19949 0.0
C1751 C 0.9106 0.01401 0.21205 0.0
C1752 C 0.89311 0.01446 0.20784 0.0
C1753 C 0.88819 0.01716 0.19073 0.0
C1754 C 0.9005 0.01951 0.17817 0.0
H1755 H 0.95019 0.06029 0.18061 0.0
H1756 H 0.92995 0.05162 0.18755 0.0
H1757 H 0.94956 0.04345 0.1959 0.0
H1758 H 0.93623 0.01572 0.20306 0.0
H1759 H 0.91486 0.01183 0.22505 0.0
H1760 H 0.27878 0.77431 0.17736 0.0
H1761 H 0.27122 0.79747 0.15819 0.0
H1762 H 0.24677 0.76135 0.12347 0.0
H1763 H 0.25378 0.73841 0.14277 0.0
H1764 H 0.28253 0.80243 0.12819 0.0
H1765 H 0.21276 0.79731 0.12079 0.0
H1766 H 0.22402 0.78646 0.13759 0.0
H1767 H 0.22142 0.77702 0.11664 0.0
C1768 C 0.27147 0.77142 0.16579 0.0
C1769 C 0.26679 0.75458 0.16159 0.0
C1770 C 0.26712 0.78464 0.15487 0.0
C1771 C 0.25812 0.78126 0.13948 0.0
C1772 C 0.25314 0.76445 0.1355 0.0
H1773 H 0.27426 0.81765 0.04233 0.0
H1774 H 0.27328 0.80583 0.07079 0.0
C1775 C 0.25727 0.75128 0.14651 0.0
C1776 C 0.25592 0.79477 0.12652 0.0
H1777 H 0.22804 0.80868 0.09602 0.0
C1778 C 0.27048 0.80409 0.12148 0.0
C1779 C 0.24018 0.79735 0.11791 0.0
C1780 C 0.2237 0.78912 0.12369 0.0
C1781 C 0.27003 0.81472 0.10723 0.0
C1782 C 0.25476 0.81571 0.09745 0.0
C1783 C 0.23985 0.80762 0.10331 0.0
C1784 C 0.25471 0.82317 0.08012 0.0
C1785 C 0.28613 0.82433 0.10242 0.0
C1786 C 0.24404 0.83647 0.07562 0.0
C1787 C 0.24443 0.84327 0.05909 0.0
C1788 C 0.25546 0.83677 0.04687 0.0
C1789 C 0.26576 0.82317 0.05142 0.0
C1790 C 0.26531 0.81641 0.06777 0.0
H1791 H 0.29431 0.82721 0.11386 0.0
H1792 H 0.29354 0.81642 0.09367 0.0
H1793 H 0.28325 0.83638 0.0959 0.0
H1794 H 0.2356 0.84171 0.08492 0.0
H1795 H 0.23629 0.85368 0.05596 0.0
H1796 H 0.03866 0.46573 0.07591 0.0
H1797 H 0.05432 0.46494 0.10319 0.0
H1798 H 0.02111 0.50209 0.12393 0.0
H1799 H 0.00525 0.50277 0.09673 0.0
H1800 H 0.07187 0.48931 0.12197 0.0
H1801 H 0.01664 0.46366 0.15787 0.0
H1802 H 0.01666 0.46455 0.13487 0.0
H1803 H 0.01257 0.48322 0.1472 0.0
C1804 C 0.03481 0.47385 0.08624 0.0
C1805 C 0.02066 0.48422 0.08426 0.0
C1806 C 0.04373 0.47335 0.10181 0.0
C1807 C 0.03868 0.48322 0.11566 0.0
C1808 C 0.02495 0.49406 0.11353 0.0
H1809 H 0.09731 0.50066 0.21008 0.0
H1810 H 0.0839 0.50341 0.18184 0.0
C1811 C 0.01593 0.49446 0.098 0.0
C1812 C 0.04759 0.4819 0.1324 0.0
H1813 H 0.04134 0.4717 0.17412 0.0
C1814 C 0.06522 0.48545 0.13339 0.0
C1815 C 0.03892 0.47659 0.14721 0.0
C1816 C 0.02019 0.47162 0.14676 0.0
C1817 C 0.07441 0.48397 0.14883 0.0
C1818 C 0.06562 0.47915 0.16373 0.0
C1819 C 0.04802 0.47551 0.16271 0.0
C1820 C 0.07442 0.47741 0.18051 0.0
C1821 C 0.09346 0.48717 0.14894 0.0
C1822 C 0.07328 0.46199 0.18927 0.0
C1823 C 0.08071 0.46044 0.20549 0.0
C1824 C 0.08946 0.47431 0.21327 0.0
C1825 C 0.09077 0.4897 0.20438 0.0
C1826 C 0.0832 0.49127 0.18819 0.0
H1827 H 0.09874 0.48606 0.13594 0.0
H1828 H 0.09639 0.50022 0.15366 0.0
H1829 H 0.10003 0.47817 0.15749 0.0
H1830 H 0.06652 0.45114 0.18358 0.0
H1831 H 0.07949 0.44839 0.21196 0.0
H1832 H 0.36842 0.68614 0.23616 0.0
H1833 H 0.39167 0.69012 0.25695 0.0
H1834 H 0.3589 0.71846 0.28936 0.0
H1835 H 0.3352 0.71357 0.26917 0.0
H1836 H 0.4067 0.7186 0.266 0.0
H1837 H 0.38095 0.68896 0.32418 0.0
H1838 H 0.37096 0.68582 0.30342 0.0
H1839 H 0.36687 0.70448 0.31583 0.0
C1840 C 0.36595 0.69282 0.24792 0.0
C1841 C 0.34983 0.69948 0.25096 0.0
C1842 C 0.37934 0.69519 0.25976 0.0
C1843 C 0.37701 0.70436 0.27488 0.0
C1844 C 0.36093 0.71096 0.27802 0.0
H1845 H 0.45074 0.76542 0.32897 0.0
H1846 H 0.42803 0.75251 0.31135 0.0
C1847 C 0.34745 0.70842 0.26627 0.0
C1848 C 0.39176 0.70834 0.28653 0.0
H1849 H 0.4047 0.70879 0.32842 0.0
C1850 C 0.40632 0.7162 0.27961 0.0
C1851 C 0.39145 0.70498 0.30426 0.0
C1852 C 0.37678 0.69542 0.31232 0.0
C1853 C 0.42022 0.72149 0.28999 0.0
C1854 C 0.41937 0.7193 0.30786 0.0
C1855 C 0.40521 0.71069 0.31474 0.0
C1856 C 0.43257 0.72691 0.31955 0.0
C1857 C 0.43565 0.72952 0.28169 0.0
C1858 C 0.44221 0.71686 0.33064 0.0
C1859 C 0.45522 0.72427 0.34097 0.0
C1860 C 0.45873 0.74182 0.34031 0.0
C1861 C 0.44859 0.75183 0.32962 0.0
C1862 C 0.43561 0.74447 0.31946 0.0
H1863 H 0.43666 0.72535 0.26819 0.0
H1864 H 0.43448 0.74349 0.28175 0.0
H1865 H 0.44759 0.7264 0.28866 0.0
H1866 H 0.43993 0.70328 0.33101 0.0
H1867 H 0.46275 0.71623 0.34913 0.0
H1868 H 0.96367 0.4102 0.97256 0.0
H1869 H 0.96574 0.38154 0.96143 0.0
H1870 H 0.98116 0.36404 0.01123 0.0
H1871 H 0.9786 0.39272 0.02272 0.0
H1872 H 0.00373 0.35635 0.98467 0.0
H1873 H 0.93732 0.33716 0.96703 0.0
H1874 H 0.94306 0.35804 0.95977 0.0
H1875 H 0.94248 0.35384 0.98231 0.0
C1876 C 0.96696 0.40022 0.98134 0.0
C1877 C 0.97098 0.40385 0.99857 0.0
C1878 C 0.96816 0.3838 0.97492 0.0
C1879 C 0.97341 0.37063 0.98555 0.0
C1880 C 0.97698 0.37402 0.00285 0.0
H1881 H 0.98683 0.27363 0.93056 0.0
H1882 H 0.98082 0.29174 0.95531 0.0
C1883 C 0.97564 0.39045 0.00934 0.0
C1884 C 0.97701 0.35394 0.97797 0.0
H1885 H 0.95953 0.32341 0.95152 0.0
C1886 C 0.994 0.34887 0.97781 0.0
C1887 C 0.96429 0.3441 0.96918 0.0
C1888 C 0.94573 0.34846 0.9697 0.0
C1889 C 0.9988 0.33506 0.96786 0.0
C1890 C 0.98629 0.32617 0.95786 0.0
C1891 C 0.96911 0.33032 0.95916 0.0
C1892 C 0.99112 0.31466 0.94396 0.0
C1893 C 0.01734 0.33063 0.96733 0.0
C1894 C 0.99889 0.32161 0.92955 0.0
C1895 C 0.00208 0.31146 0.91546 0.0
C1896 C 0.9977 0.29409 0.91553 0.0
C1897 C 0.99043 0.28696 0.93022 0.0
C1898 C 0.98696 0.29726 0.9443 0.0
H1899 H 0.0245 0.33541 0.97882 0.0
H1900 H 0.01872 0.31671 0.96634 0.0
H1901 H 0.02317 0.33652 0.95592 0.0
H1902 H 0.00202 0.33505 0.92899 0.0
H1903 H 0.00776 0.3173 0.90436 0.0
H1904 H 0.66215 0.74963 0.25843 0.0
H1905 H 0.64305 0.74213 0.28182 0.0
H1906 H 0.62704 0.79381 0.28437 0.0
H1907 H 0.64595 0.80138 0.26111 0.0
H1908 H 0.6334 0.77946 0.31657 0.0
H1909 H 0.59107 0.73765 0.27567 0.0
H1910 H 0.61328 0.73275 0.27663 0.0
H1911 H 0.60678 0.75204 0.26678 0.0
C1912 C 0.65456 0.75938 0.264 0.0
C1913 C 0.65556 0.7761 0.25787 0.0
C1914 C 0.64366 0.75508 0.27735 0.0
C1915 C 0.63349 0.76738 0.28469 0.0
C1916 C 0.63482 0.78413 0.27892 0.0
H1917 H 0.54893 0.78886 0.34175 0.0
H1918 H 0.57611 0.78723 0.32748 0.0
C1919 C 0.6457 0.78845 0.26565 0.0
C1920 C 0.62091 0.76295 0.29796 0.0
H1921 H 0.5823 0.74286 0.30358 0.0
C1922 C 0.62236 0.77123 0.31384 0.0
C1923 C 0.60657 0.75212 0.29442 0.0
C1924 C 0.60417 0.74318 0.27744 0.0
C1925 C 0.60946 0.76962 0.32593 0.0
C1926 C 0.59467 0.75963 0.32196 0.0
C1927 C 0.5937 0.75048 0.30657 0.0
C1928 C 0.57912 0.76054 0.33231 0.0
C1929 C 0.61151 0.77908 0.34265 0.0
C1930 C 0.57171 0.74601 0.33973 0.0
C1931 C 0.55607 0.7469 0.34801 0.0
C1932 C 0.54749 0.76227 0.34864 0.0
C1933 C 0.55516 0.77681 0.34145 0.0
C1934 C 0.57079 0.77594 0.3334 0.0
H1935 H 0.62518 0.78151 0.34604 0.0
H1936 H 0.60537 0.7915 0.34149 0.0
H1937 H 0.60536 0.77195 0.35317 0.0
H1938 H 0.57789 0.73396 0.33885 0.0
H1939 H 0.55043 0.73548 0.35337 0.0
H1940 H 0.01065 0.09507 0.00818 0.0
H1941 H 0.00216 0.11586 0.98679 0.0
H1942 H 0.05502 0.12895 0.97821 0.0
H1943 H 0.06362 0.10793 0.99923 0.0
H1944 H 0.00989 0.15081 0.98828 0.0
H1945 H 0.03549 0.12216 0.92965 0.0
H1946 H 0.03246 0.11032 0.94907 0.0
H1947 H 0.05074 0.12437 0.94696 0.0
C1948 C 0.02047 0.10213 0.00149 0.0
C1949 C 0.03782 0.09982 0.0054 0.0
C1950 C 0.0156 0.11408 0.98935 0.0
C1951 C 0.02795 0.12382 0.98077 0.0
C1952 C 0.04527 0.12138 0.98446 0.0
H1953 H 0.02918 0.20834 0.91108 0.0
H1954 H 0.0358 0.18466 0.92982 0.0
C1955 C 0.05016 0.10948 0.99662 0.0
C1956 C 0.02276 0.13723 0.9687 0.0
H1957 H 0.02655 0.15062 0.92752 0.0
C1958 C 0.01338 0.15071 0.97495 0.0
C1959 C 0.02742 0.1371 0.95135 0.0
C1960 C 0.03695 0.12264 0.94378 0.0
C1961 C 0.00893 0.1643 0.96444 0.0
C1962 C 0.01368 0.16423 0.9471 0.0
C1963 C 0.02292 0.15066 0.94081 0.0
C1964 C 0.00949 0.1783 0.93538 0.0
C1965 C 0.99968 0.17887 0.97217 0.0
C1966 C 0.99247 0.18243 0.93203 0.0
C1967 C 0.98864 0.19602 0.92139 0.0
C1968 C 0.00175 0.20566 0.91374 0.0
C1969 C 0.01877 0.20123 0.91679 0.0
C1970 C 0.02258 0.18767 0.92749 0.0
H1971 H 0.00094 0.17909 0.98632 0.0
H1972 H 0.00457 0.19118 0.96719 0.0
H1973 H 0.9859 0.17757 0.96879 0.0
H1974 H 0.98214 0.17514 0.93767 0.0
H1975 H 0.97539 0.19899 0.9192 0.0
H1976 H 0.36053 0.32504 0.26708 0.0
H1977 H 0.37635 0.31317 0.24343 0.0
H1978 H 0.41389 0.29463 0.27901 0.0
H1979 H 0.39815 0.30656 0.30282 0.0
H1980 H 0.42631 0.31426 0.24854 0.0
H1981 H 0.38095 0.26082 0.23293 0.0
H1982 H 0.37161 0.28114 0.23583 0.0
H1983 H 0.38187 0.2711 0.2536 0.0
C1984 C 0.37219 0.31849 0.26987 0.0
C1985 C 0.37812 0.31672 0.28678 0.0
C1986 C 0.38112 0.31162 0.25637 0.0
C1987 C 0.39616 0.30292 0.25954 0.0
C1988 C 0.40223 0.30122 0.27637 0.0
H1989 H 0.46766 0.26567 0.18364 0.0
H1990 H 0.45496 0.27319 0.21088 0.0
C1991 C 0.39321 0.30797 0.28992 0.0
C1992 C 0.40568 0.29596 0.24514 0.0
H1993 H 0.40243 0.26696 0.21277 0.0
C1994 C 0.42125 0.30379 0.2408 0.0
C1995 C 0.39895 0.28233 0.23514 0.0
C1996 C 0.38249 0.27322 0.23963 0.0
C1997 C 0.42996 0.29882 0.22618 0.0
C1998 C 0.42304 0.28541 0.21593 0.0
C1999 C 0.40771 0.27725 0.22063 0.0
C2000 C 0.43083 0.28037 0.19964 0.0
C2001 C 0.44603 0.3085 0.22143 0.0
C2002 C 0.42133 0.28143 0.18437 0.0
C2003 C 0.42844 0.27696 0.16887 0.0
C2004 C 0.44526 0.27134 0.16828 0.0
C2005 C 0.45473 0.27008 0.18363 0.0
C2006 C 0.44752 0.27446 0.1992 0.0
H2007 H 0.4474 0.3208 0.22833 0.0
H2008 H 0.45725 0.30088 0.22481 0.0
H2009 H 0.44624 0.31097 0.20749 0.0
H2010 H 0.40841 0.28592 0.18443 0.0
H2011 H 0.42077 0.27809 0.15732 0.0
H2012 H 0.56536 0.37833 0.9993 0.0
H2013 H 0.55396 0.36 0.02177 0.0
H2014 H 0.50313 0.37599 0.00957 0.0
H2015 H 0.51438 0.39415 0.9869 0.0
H2016 H 0.53281 0.36919 0.05088 0.0
H2017 H 0.50114 0.32306 0.00583 0.0
H2018 H 0.51774 0.33785 0.99935 0.0
H2019 H 0.49648 0.34494 0.00237 0.0
C2020 C 0.55175 0.37788 0.00136 0.0
C2021 C 0.54075 0.38759 0.99126 0.0
C2022 C 0.54529 0.36751 0.01426 0.0
C2023 C 0.52771 0.36654 0.01717 0.0
C2024 C 0.51672 0.37646 0.00737 0.0
H2025 H 0.46238 0.30487 0.08073 0.0
H2026 H 0.47449 0.32557 0.061 0.0
C2027 C 0.52318 0.38691 0.99453 0.0
C2028 C 0.52082 0.35493 0.03025 0.0
H2029 H 0.49605 0.31915 0.03517 0.0
C2030 C 0.5248 0.35822 0.0475 0.0
C2031 C 0.51042 0.34065 0.02572 0.0
C2032 C 0.50625 0.33626 0.00732 0.0
C2033 C 0.51829 0.34775 0.06044 0.0
C2034 C 0.50786 0.33345 0.05591 0.0
C2035 C 0.504 0.33014 0.03862 0.0
C2036 C 0.50067 0.32172 0.06881 0.0
C2037 C 0.52229 0.35234 0.07882 0.0
C2038 C 0.51138 0.31271 0.07982 0.0
C2039 C 0.50449 0.30091 0.09123 0.0
C2040 C 0.48676 0.29776 0.09166 0.0
C2041 C 0.47609 0.30695 0.08072 0.0
C2042 C 0.48298 0.31879 0.06942 0.0
H2043 H 0.52634 0.36588 0.08026 0.0
H2044 H 0.51107 0.34983 0.08697 0.0
H2045 H 0.53288 0.34455 0.08357 0.0
H2046 H 0.5251 0.31449 0.0793 0.0
H2047 H 0.51307 0.29397 0.09939 0.0
H2048 H 0.65633 0.21055 0.2247 0.0
H2049 H 0.6281 0.21014 0.21074 0.0
H2050 H 0.63008 0.26465 0.20836 0.0
H2051 H 0.65803 0.26526 0.22262 0.0
H2052 H 0.59744 0.22767 0.22171 0.0
H2053 H 0.62034 0.24813 0.15815 0.0
H2054 H 0.63426 0.23932 0.17422 0.0
H2055 H 0.62791 0.26091 0.17593 0.0
C2056 C 0.6507 0.22246 0.22135 0.0
C2057 C 0.65954 0.23793 0.22467 0.0
C2058 C 0.63462 0.22219 0.21331 0.0
C2059 C 0.62717 0.23735 0.20831 0.0
C2060 C 0.63579 0.2528 0.21183 0.0
H2061 H 0.53537 0.26766 0.15601 0.0
H2062 H 0.56311 0.26579 0.1705 0.0
C2063 C 0.6518 0.2531 0.21993 0.0
C2064 C 0.61029 0.23713 0.19954 0.0
H2065 H 0.59046 0.24729 0.162 0.0
C2066 C 0.59587 0.23183 0.20862 0.0
C2067 C 0.60836 0.24262 0.18249 0.0
C2068 C 0.62353 0.24795 0.17203 0.0
C2069 C 0.57944 0.23237 0.20124 0.0
C2070 C 0.57748 0.23796 0.18419 0.0
C2071 C 0.59197 0.24304 0.17507 0.0
C2072 C 0.5605 0.23896 0.17563 0.0
C2073 C 0.56431 0.22747 0.21197 0.0
C2074 C 0.54988 0.22446 0.17354 0.0
C2075 C 0.53396 0.2255 0.16536 0.0
C2076 C 0.52844 0.24104 0.15892 0.0
C2077 C 0.53922 0.2555 0.16083 0.0
C2078 C 0.55508 0.25446 0.1691 0.0
H2079 H 0.56756 0.22798 0.22582 0.0
H2080 H 0.55349 0.2359 0.20943 0.0
H2081 H 0.56007 0.21429 0.20877 0.0
H2082 H 0.55397 0.21228 0.1781 0.0
H2083 H 0.52604 0.2141 0.16398 0.0
H2084 H 0.45984 0.07512 0.05192 0.0
H2085 H 0.45834 0.10186 0.06766 0.0
H2086 H 0.49428 0.12516 0.03332 0.0
H2087 H 0.4957 0.09851 0.01741 0.0
H2088 H 0.48299 0.12104 0.08458 0.0
H2089 H 0.45491 0.15727 0.03108 0.0
H2090 H 0.45621 0.13452 0.03061 0.0
H2091 H 0.47462 0.14768 0.02591 0.0
C2092 C 0.46749 0.08593 0.04778 0.0
C2093 C 0.4778 0.08477 0.03337 0.0
C2094 C 0.46659 0.10119 0.05676 0.0
C2095 C 0.47598 0.11556 0.05149 0.0
C2096 C 0.48661 0.11433 0.03735 0.0
H2097 H 0.49542 0.20819 0.11034 0.0
H2098 H 0.4975 0.1804 0.09676 0.0
C2099 C 0.48742 0.09911 0.02829 0.0
C2100 C 0.4746 0.13182 0.06078 0.0
H2101 H 0.46393 0.17306 0.05563 0.0
C2102 C 0.47878 0.13242 0.07828 0.0
C2103 C 0.46887 0.14657 0.05258 0.0
C2104 C 0.46323 0.1465 0.03405 0.0
C2105 C 0.47756 0.14745 0.08777 0.0
C2106 C 0.47237 0.16233 0.07943 0.0
C2107 C 0.46804 0.16167 0.06197 0.0
C2108 C 0.47101 0.17871 0.08854 0.0
C2109 C 0.48151 0.14714 0.10669 0.0
C2110 C 0.4555 0.1871 0.08823 0.0
C2111 C 0.45432 0.20306 0.09577 0.0
C2112 C 0.46865 0.21096 0.10379 0.0
C2113 C 0.48411 0.2024 0.10437 0.0
C2114 C 0.48531 0.18647 0.09669 0.0
H2115 H 0.48056 0.13408 0.11185 0.0
H2116 H 0.49474 0.15205 0.10904 0.0
H2117 H 0.47273 0.15525 0.11382 0.0
H2118 H 0.44431 0.18136 0.08198 0.0
H2119 H 0.44221 0.20928 0.09512 0.0
H2120 H 0.24201 0.35027 0.73639 0.0
H2121 H 0.26246 0.37324 0.74367 0.0
H2122 H 0.2812 0.37257 0.6923 0.0
H2123 H 0.26084 0.34949 0.68491 0.0
H2124 H 0.29842 0.37471 0.7417 0.0
H2125 H 0.26831 0.42216 0.69943 0.0
H2126 H 0.25767 0.40243 0.70496 0.0
H2127 H 0.27404 0.40277 0.68924 0.0
C2128 C 0.25061 0.35486 0.72668 0.0
C2129 C 0.24972 0.34811 0.71003 0.0
C2130 C 0.26223 0.36804 0.73085 0.0
C2131 C 0.27314 0.37478 0.71845 0.0
C2132 C 0.27263 0.3678 0.70195 0.0
H2133 H 0.34415 0.46272 0.7279 0.0
H2134 H 0.32897 0.43723 0.71684 0.0
C2135 C 0.26099 0.35462 0.69776 0.0
C2136 C 0.28493 0.38921 0.72288 0.0
H2137 H 0.29308 0.4311 0.71483 0.0
C2138 C 0.29731 0.38702 0.73577 0.0
C2139 C 0.28352 0.40522 0.71505 0.0
C2140 C 0.2701 0.40842 0.70149 0.0
C2141 C 0.30818 0.40048 0.7412 0.0
C2142 C 0.30642 0.41662 0.73374 0.0
C2143 C 0.2944 0.4187 0.72049 0.0
C2144 C 0.31601 0.43176 0.74039 0.0
C2145 C 0.32143 0.39734 0.75494 0.0
C2146 C 0.31355 0.43722 0.75719 0.0
C2147 C 0.32211 0.45172 0.76351 0.0
C2148 C 0.33329 0.46116 0.75314 0.0
C2149 C 0.33569 0.45571 0.73624 0.0
C2150 C 0.32703 0.44117 0.7299 0.0
H2151 H 0.32453 0.38373 0.75566 0.0
H2152 H 0.33335 0.40486 0.75268 0.0
H2153 H 0.31641 0.40117 0.76748 0.0
H2154 H 0.30482 0.43035 0.76538 0.0
H2155 H 0.31988 0.45554 0.77655 0.0
H2156 H 0.2818 0.68186 0.73639 0.0
H2157 H 0.29716 0.65537 0.7358 0.0
H2158 H 0.26703 0.63634 0.77738 0.0
H2159 H 0.25114 0.66247 0.77761 0.0
H2160 H 0.3167 0.64088 0.76087 0.0
H2161 H 0.26215 0.59796 0.74286 0.0
H2162 H 0.26119 0.62069 0.74119 0.0
H2163 H 0.2582 0.61049 0.76145 0.0
C2164 C 0.27824 0.67193 0.74523 0.0
C2165 C 0.26512 0.67427 0.75696 0.0
C2166 C 0.28713 0.65685 0.74496 0.0
C2167 C 0.28306 0.64376 0.75634 0.0
C2168 C 0.27015 0.64612 0.76822 0.0
H2169 H 0.32043 0.5484 0.78768 0.0
H2170 H 0.30652 0.57523 0.78337 0.0
C2171 C 0.26122 0.66117 0.76848 0.0
C2172 C 0.29259 0.62781 0.75614 0.0
H2173 H 0.28732 0.58482 0.75327 0.0
C2174 C 0.31032 0.62863 0.75901 0.0
C2175 C 0.28426 0.61184 0.75358 0.0
C2176 C 0.26543 0.61016 0.74942 0.0
C2177 C 0.31983 0.61385 0.76013 0.0
C2178 C 0.31138 0.5979 0.75816 0.0
C2179 C 0.29374 0.59709 0.75483 0.0
C2180 C 0.32035 0.58182 0.76062 0.0
C2181 C 0.33871 0.61536 0.76405 0.0
C2182 C 0.33276 0.57659 0.7492 0.0
C2183 C 0.34079 0.56113 0.7516 0.0
C2184 C 0.33651 0.55069 0.76547 0.0
C2185 C 0.3241 0.55609 0.77687 0.0
C2186 C 0.31608 0.57143 0.77443 0.0
H2187 H 0.34279 0.62843 0.76789 0.0
H2188 H 0.34225 0.60653 0.77443 0.0
H2189 H 0.34585 0.61183 0.75253 0.0
H2190 H 0.33608 0.58436 0.73834 0.0
H2191 H 0.35025 0.55734 0.74256 0.0
H2192 H 0.90947 0.47395 0.4672 0.0
H2193 H 0.88137 0.46006 0.46923 0.0
H2194 H 0.86886 0.49394 0.51015 0.0
H2195 H 0.89719 0.5076 0.50854 0.0
H2196 H 0.86357 0.46085 0.51835 0.0
H2197 H 0.83334 0.47304 0.45551 0.0
H2198 H 0.85425 0.46479 0.45342 0.0
H2199 H 0.85177 0.48511 0.46343 0.0
C2200 C 0.90069 0.47854 0.47654 0.0
C2201 C 0.9056 0.49181 0.48777 0.0
C2202 C 0.88453 0.47075 0.47752 0.0
C2203 C 0.87291 0.47614 0.48966 0.0
C2204 C 0.87757 0.48971 0.50057 0.0
H2205 H 0.77473 0.41869 0.49933 0.0
H2206 H 0.79458 0.44328 0.49727 0.0
C2207 C 0.89374 0.49753 0.49958 0.0
C2208 C 0.8568 0.46629 0.49221 0.0
H2209 H 0.82237 0.44852 0.47079 0.0
C2210 C 0.85436 0.45847 0.50806 0.0
C2211 C 0.84467 0.46331 0.47885 0.0
C2212 C 0.84604 0.47216 0.46191 0.0
C2213 C 0.8408 0.44686 0.51053 0.0
C2214 C 0.82949 0.44288 0.49676 0.0
C2215 C 0.83118 0.45152 0.48127 0.0
C2216 C 0.81724 0.42835 0.49767 0.0
C2217 C 0.83904 0.43839 0.52764 0.0
C2218 C 0.82348 0.41194 0.49829 0.0
C2219 C 0.81229 0.39799 0.49936 0.0
C2220 C 0.79458 0.40013 0.49985 0.0
C2221 C 0.7883 0.41663 0.49903 0.0
C2222 C 0.79958 0.43066 0.49784 0.0
H2223 H 0.84576 0.44581 0.53794 0.0
H2224 H 0.82541 0.43665 0.53098 0.0
H2225 H 0.84471 0.4257 0.52708 0.0
H2226 H 0.83707 0.40993 0.49798 0.0
H2227 H 0.81761 0.3855 0.49993 0.0
H2228 H 0.78602 0.90569 0.80421 0.0
H2229 H 0.7609 0.92074 0.79413 0.0
H2230 H 0.72816 0.88327 0.81788 0.0
H2231 H 0.75315 0.86834 0.82814 0.0
H2232 H 0.73411 0.91046 0.77327 0.0
H2233 H 0.71071 0.92684 0.83737 0.0
H2234 H 0.73176 0.91897 0.83412 0.0
H2235 H 0.71359 0.90455 0.83472 0.0
C2236 C 0.77345 0.90067 0.80724 0.0
C2237 C 0.77154 0.88595 0.81712 0.0
C2238 C 0.75913 0.90929 0.80151 0.0
C2239 C 0.74268 0.90332 0.80557 0.0
C2240 C 0.74075 0.88838 0.81503 0.0
H2241 H 0.63925 0.92788 0.78055 0.0
H2242 H 0.66597 0.91465 0.78865 0.0
C2243 C 0.75503 0.87984 0.82085 0.0
C2244 C 0.72748 0.91255 0.79974 0.0
H2245 H 0.69131 0.93056 0.81394 0.0
C2246 C 0.72483 0.91501 0.78216 0.0
C2247 C 0.71544 0.91856 0.81138 0.0
C2248 C 0.71808 0.91726 0.83045 0.0
C2249 C 0.71016 0.92284 0.77589 0.0
C2250 C 0.69794 0.92835 0.78752 0.0
C2251 C 0.7007 0.92617 0.80508 0.0
C2252 C 0.68198 0.93618 0.78174 0.0
C2253 C 0.70756 0.92481 0.7569 0.0
C2254 C 0.68223 0.95267 0.7752 0.0
C2255 C 0.66697 0.96033 0.77065 0.0
C2256 C 0.65124 0.95159 0.77254 0.0
C2257 C 0.65113 0.93496 0.77889 0.0
C2258 C 0.66636 0.92737 0.78354 0.0
H2259 H 0.71706 0.91782 0.7495 0.0
H2260 H 0.69455 0.92021 0.75297 0.0
H2261 H 0.70872 0.93843 0.75356 0.0
H2262 H 0.69419 0.9597 0.7739 0.0
H2263 H 0.66751 0.97315 0.76581 0.0
H2264 H 0.59241 0.49923 0.9803 0.0
H2265 H 0.60997 0.524 0.98938 0.0
H2266 H 0.65046 0.50783 0.95724 0.0
H2267 H 0.633 0.48341 0.94779 0.0
H2268 H 0.66002 0.51804 0.99276 0.0
H2269 H 0.62202 0.565 0.95665 0.0
H2270 H 0.61108 0.55019 0.97035 0.0
H2271 H 0.6209 0.54271 0.95139 0.0
C2272 C 0.60502 0.501 0.9751 0.0
C2273 C 0.61129 0.48931 0.96331 0.0
C2274 C 0.61503 0.51511 0.98036 0.0
C2275 C 0.63145 0.51771 0.97392 0.0
C2276 C 0.63783 0.50596 0.96241 0.0
H2277 H 0.70647 0.58895 0.95175 0.0
H2278 H 0.68157 0.57005 0.95429 0.0
C2279 C 0.62786 0.49195 0.9571 0.0
C2280 C 0.64207 0.53284 0.97866 0.0
H2281 H 0.64811 0.5746 0.96886 0.0
C2282 C 0.65728 0.53052 0.98791 0.0
C2283 C 0.63839 0.54903 0.97221 0.0
C2284 C 0.62226 0.55202 0.96203 0.0
C2285 C 0.6694 0.54381 0.9901 0.0
C2286 C 0.66611 0.5598 0.98292 0.0
C2287 C 0.65049 0.56234 0.97445 0.0
C2288 C 0.67977 0.57301 0.98165 0.0
C2289 C 0.68613 0.54036 0.99906 0.0
C2290 C 0.68672 0.58132 0.99617 0.0
C2291 C 0.70103 0.59222 0.99476 0.0
C2292 C 0.70861 0.59484 0.97881 0.0
C2293 C 0.70106 0.58709 0.96424 0.0
C2294 C 0.68677 0.57634 0.96565 0.0
H2295 H 0.68733 0.52678 0.00235 0.0
H2296 H 0.69696 0.54424 0.9909 0.0
H2297 H 0.68718 0.54791 0.01103 0.0
H2298 H 0.68137 0.579 0.00862 0.0
H2299 H 0.70654 0.59804 0.00621 0.0
H2300 H 0.25116 0.62026 0.20685 0.0
H2301 H 0.23086 0.59881 0.21713 0.0
H2302 H 0.20727 0.63641 0.24819 0.0
H2303 H 0.22717 0.65815 0.23747 0.0
H2304 H 0.22571 0.5883 0.25027 0.0
H2305 H 0.1667 0.61451 0.22194 0.0
H2306 H 0.18775 0.62147 0.2156 0.0
H2307 H 0.17912 0.62902 0.23521 0.0
C2308 C 0.24149 0.62405 0.21566 0.0
C2309 C 0.24069 0.64097 0.22121 0.0
C2310 C 0.22999 0.61174 0.22164 0.0
C2311 C 0.21744 0.61606 0.23326 0.0
C2312 C 0.21669 0.63287 0.239 0.0
H2313 H 0.15882 0.53916 0.2895 0.0
H2314 H 0.17714 0.56361 0.28227 0.0
C2315 C 0.22818 0.64524 0.233 0.0
C2316 C 0.20539 0.6028 0.23951 0.0
H2317 H 0.1633 0.59055 0.23966 0.0
C2318 C 0.21205 0.5888 0.24802 0.0
C2319 C 0.18761 0.60345 0.23639 0.0
C2320 C 0.17982 0.61783 0.22666 0.0
C2321 C 0.20142 0.57534 0.25339 0.0
C2322 C 0.18362 0.57607 0.25045 0.0
C2323 C 0.17694 0.59012 0.24203 0.0
C2324 C 0.17183 0.56191 0.2551 0.0
C2325 C 0.20941 0.5602 0.26165 0.0
C2326 C 0.16236 0.55321 0.24229 0.0
C2327 C 0.1518 0.53934 0.24638 0.0
C2328 C 0.15048 0.53391 0.26339 0.0
C2329 C 0.15965 0.54293 0.27626 0.0
C2330 C 0.17019 0.55685 0.27215 0.0
H2331 H 0.22334 0.55991 0.25939 0.0
H2332 H 0.20754 0.56078 0.27564 0.0
H2333 H 0.20335 0.54822 0.25676 0.0
H2334 H 0.16341 0.55695 0.22906 0.0
H2335 H 0.14488 0.53273 0.23616 0.0
H2336 H 0.92763 0.54209 0.03352 0.0
H2337 H 0.90231 0.55942 0.03265 0.0
H2338 H 0.87243 0.51687 0.01264 0.0
H2339 H 0.89767 0.49947 0.01348 0.0
H2340 H 0.88464 0.56721 0.00384 0.0
H2341 H 0.84139 0.53487 0.04905 0.0
H2342 H 0.86395 0.53101 0.04857 0.0
H2343 H 0.84952 0.52062 0.03349 0.0
C2344 C 0.91563 0.53639 0.02906 0.0
C2345 C 0.91466 0.51943 0.0235 0.0
C2346 C 0.90116 0.54628 0.02867 0.0
C2347 C 0.88543 0.53938 0.0228 0.0
C2348 C 0.88433 0.52234 0.01763 0.0
H2349 H 0.80331 0.58367 0.96972 0.0
H2350 H 0.82848 0.56936 0.98016 0.0
C2351 C 0.89878 0.51242 0.01807 0.0
C2352 C 0.87062 0.55041 0.02041 0.0
H2353 H 0.82828 0.55358 0.02882 0.0
C2354 C 0.87239 0.56437 0.00952 0.0
C2355 C 0.85469 0.54683 0.02798 0.0
C2356 C 0.85229 0.53262 0.04057 0.0
C2357 C 0.85847 0.57434 0.00532 0.0
C2358 C 0.8423 0.57009 0.012 0.0
C2359 C 0.84067 0.55668 0.02358 0.0
C2360 C 0.82679 0.57866 0.00606 0.0
C2361 C 0.86109 0.58919 0.99351 0.0
C2362 C 0.81728 0.58833 0.0173 0.0
C2363 C 0.80279 0.5966 0.01136 0.0
C2364 C 0.79754 0.59514 0.99413 0.0
C2365 C 0.807 0.58516 0.98304 0.0
C2366 C 0.82145 0.57701 0.98896 0.0
H2367 H 0.87467 0.59356 0.99335 0.0
H2368 H 0.85723 0.58531 0.98033 0.0
H2369 H 0.85318 0.59996 0.99731 0.0
H2370 H 0.82119 0.58965 0.03059 0.0
H2371 H 0.79574 0.60412 0.02025 0.0
H2372 H 0.1209 0.01257 0.02826 0.0
H2373 H 0.14037 0.98998 0.02156 0.0
H2374 H 0.10684 0.95365 0.04588 0.0
H2375 H 0.08731 0.9762 0.05273 0.0
H2376 H 0.15704 0.96949 0.04484 0.0
H2377 H 0.11613 0.93064 0.00024 0.0
H2378 H 0.11129 0.95211 0.00596 0.0
H2379 H 0.10661 0.93506 0.02039 0.0
C2380 C 0.11764 0.99977 0.03217 0.0
C2381 C 0.10254 0.99621 0.04106 0.0
C2382 C 0.12875 0.98686 0.02826 0.0
C2383 C 0.12499 0.97009 0.03305 0.0
C2384 C 0.10984 0.96643 0.04174 0.0
H2385 H 0.18091 0.87669 0.02681 0.0
H2386 H 0.15988 0.89831 0.03208 0.0
C2387 C 0.09868 0.97935 0.04564 0.0
C2388 C 0.13739 0.95666 0.02973 0.0
H2389 H 0.14233 0.91893 0.00914 0.0
C2390 C 0.15385 0.95847 0.03697 0.0
C2391 C 0.13317 0.94224 0.01954 0.0
C2392 C 0.1159 0.9399 0.01094 0.0
C2393 C 0.16615 0.94619 0.03447 0.0
C2394 C 0.16199 0.93183 0.02417 0.0
C2395 C 0.1455 0.92995 0.01701 0.0
C2396 C 0.17463 0.91869 0.02064 0.0
C2397 C 0.18338 0.94853 0.04318 0.0
C2398 C 0.18979 0.9229 0.01219 0.0
C2399 C 0.20185 0.91059 0.0092 0.0
C2400 C 0.19895 0.89377 0.01447 0.0
C2401 C 0.18359 0.88952 0.02262 0.0
C2402 C 0.17153 0.90185 0.02563 0.0
H2403 H 0.183 0.95756 0.05407 0.0
H2404 H 0.18811 0.93628 0.04793 0.0
H2405 H 0.19265 0.9537 0.03388 0.0
H2406 H 0.19229 0.93573 0.0079 0.0
H2407 H 0.21347 0.9143 0.00278 0.0
loop_
_geom_bond_atom_site_label_1
_geom_bond_atom_site_label_2
_geom_bond_distance
_geom_bond_site_symmetry_2
_ccdc_geom_bond_type
P0 O11 1.490 . S
P0 C14 1.812 . S
P0 C20 1.803 . S
P0 C26 1.819 . S
H1 C15 0.941 . S
H2 C16 0.939 . S
H3 C18 0.940 . S
H4 C19 0.940 . S
H5 C21 0.939 . S
H6 C22 0.942 . S
H7 C24 0.893 1_565 S
H8 C25 0.939 . S
H9 C27 0.941 . S
H10 C31 0.939 . S
O11 P0 1.490 . S
H12 C28 0.939 . S
H13 C30 0.940 . S
C14 P0 1.812 . S
C14 C15 1.389 . S
C14 C19 1.391 . S
C15 H1 0.941 . S
C15 C14 1.389 . S
C15 C16 1.397 . S
C16 H2 0.939 . S
C16 C15 1.397 . S
C16 C17 1.378 . S
C17 C16 1.378 . S
C17 C18 1.378 . S
C18 H3 0.940 . S
C18 C17 1.378 . S
C18 C19 1.396 . S
C19 H4 0.940 . S
C19 C14 1.391 . S
C19 C18 1.396 . S
C20 P0 1.803 . S
C20 C21 1.378 . S
C20 C25 1.400 . S
C21 H5 0.939 . S
C21 C20 1.378 . S
C21 C22 1.361 . S
C22 H6 0.942 . S
C22 C21 1.361 . S
C22 C23 1.369 . S
C23 C22 1.369 . S
C23 C24 1.404 . S
C24 H7 0.893 1_545 S
C24 C23 1.404 . S
C24 C25 1.389 . S
C25 H8 0.939 . S
C25 C20 1.400 . S
C25 C24 1.389 . S
C26 P0 1.819 . S
C26 C27 1.391 . S
C26 C31 1.391 . S
C27 H9 0.941 . S
C27 C26 1.391 . S
C27 C28 1.396 . S
C28 H12 0.939 . S
C28 C27 1.396 . S
C28 C29 1.397 . S
C29 C28 1.397 . S
C29 C30 1.385 . S
C30 H13 0.940 . S
C30 C29 1.385 . S
C30 C31 1.388 . S
C31 H10 0.939 . S
C31 C26 1.391 . S
C31 C30 1.388 . S
P32 O43 1.490 . S
P32 C46 1.812 . S
P32 C52 1.803 . S
P32 C58 1.819 . S
H33 C47 0.941 . S
H34 C48 0.939 . S
H35 C50 0.940 . S
H36 C51 0.940 . S
H37 C53 0.939 . S
H38 C54 0.942 . S
H39 C56 0.940 . S
H40 C57 0.939 . S
H41 C59 0.941 . S
H42 C63 0.939 . S
O43 P32 1.490 . S
H44 C60 0.939 . S
H45 C62 0.940 . S
C46 P32 1.812 . S
C46 C47 1.389 . S
C46 C51 1.391 . S
C47 H33 0.941 . S
C47 C46 1.389 . S
C47 C48 1.397 . S
C48 H34 0.939 . S
C48 C47 1.397 . S
C48 C49 1.378 . S
C49 C48 1.378 . S
C49 C50 1.378 . S
C50 H35 0.940 . S
C50 C49 1.378 . S
C50 C51 1.396 . S
C51 H36 0.940 . S
C51 C46 1.391 . S
C51 C50 1.396 . S
C52 P32 1.803 . S
C52 C53 1.378 . S
C52 C57 1.400 . S
C53 H37 0.939 . S
C53 C52 1.378 . S
C53 C54 1.361 . S
C54 H38 0.942 . S
C54 C53 1.361 . S
C54 C55 1.369 . S
C55 C54 1.369 . S
C55 C56 1.404 . S
C56 H39 0.940 . S
C56 C55 1.404 . S
C56 C57 1.389 . S
C57 H40 0.939 . S
C57 C52 1.400 . S
C57 C56 1.389 . S
C58 P32 1.819 . S
C58 C59 1.391 . S
C58 C63 1.391 . S
C59 H41 0.941 . S
C59 C58 1.391 . S
C59 C60 1.396 . S
C60 H44 0.939 . S
C60 C59 1.396 . S
C60 C61 1.397 . S
C61 C60 1.397 . S
C61 C62 1.385 . S
C62 H45 0.940 . S
C62 C61 1.385 . S
C62 C63 1.388 . S
C63 H42 0.939 . S
C63 C58 1.391 . S
C63 C62 1.388 . S
P64 O75 1.490 . S
P64 C78 1.812 . S
P64 C84 1.803 . S
P64 C90 1.819 . S
H65 C79 0.941 . S
H66 C80 0.939 1_556 S
H67 C82 0.940 . S
H68 C83 0.940 . S
H69 C85 0.939 . S
H70 C86 0.942 . S
H71 C88 0.940 . S
H72 C89 0.939 . S
H73 C91 0.941 . S
H74 C95 0.939 . S
O75 P64 1.490 . S
H76 C92 0.939 1_455 S
H77 C94 0.940 . S
C78 P64 1.812 . S
C78 C79 1.389 . S
C78 C83 1.391 . S
C79 H65 0.941 . S
C79 C78 1.389 . S
C79 C80 1.397 . S
C80 H66 0.939 1_554 S
C80 C79 1.397 . S
C80 C81 1.378 . S
C81 C80 1.378 . S
C81 C82 1.378 . S
C82 H67 0.940 . S
C82 C81 1.378 . S
C82 C83 1.396 . S
C83 H68 0.940 . S
C83 C78 1.391 . S
C83 C82 1.396 . S
C84 P64 1.803 . S
C84 C85 1.378 . S
C84 C89 1.400 . S
C85 H69 0.939 . S
C85 C84 1.378 . S
C85 C86 1.361 . S
C86 H70 0.942 . S
C86 C85 1.361 . S
C86 C87 1.369 . S
C87 C86 1.369 . S
C87 C88 1.404 . S
C88 H71 0.940 . S
C88 C87 1.404 . S
C88 C89 1.389 . S
C89 H72 0.939 . S
C89 C84 1.400 . S
C89 C88 1.389 . S
C90 P64 1.819 . S
C90 C91 1.391 . S
C90 C95 1.391 . S
C91 H73 0.941 . S
C91 C90 1.391 . S
C91 C92 1.396 . S
C92 H76 0.939 1_655 S
C92 C91 1.396 . S
C92 C93 1.397 . S
C93 C92 1.397 . S
C93 C94 1.385 . S
C94 H77 0.940 . S
C94 C93 1.385 . S
C94 C95 1.388 . S
C95 H74 0.939 . S
C95 C90 1.391 . S
C95 C94 1.388 . S
P96 O107 1.490 . S
P96 C110 1.812 . S
P96 C116 1.803 . S
P96 C122 1.819 . S
H97 C111 0.941 . S
H98 C112 0.939 . S
H99 C114 0.940 . S
H100 C115 0.940 . S
H101 C117 0.939 . S
H102 C118 0.942 . S
H103 C120 0.940 . S
H104 C121 0.939 . S
H105 C123 0.941 . S
H106 C127 0.939 . S
O107 P96 1.490 . S
H108 C124 0.939 . S
H109 C126 0.940 . S
C110 P96 1.812 . S
C110 C111 1.389 . S
C110 C115 1.391 . S
C111 H97 0.941 . S
C111 C110 1.389 . S
C111 C112 1.397 . S
C112 H98 0.939 . S
C112 C111 1.397 . S
C112 C113 1.378 . S
C113 C112 1.378 . S
C113 C114 1.378 . S
C114 H99 0.940 . S
C114 C113 1.378 . S
C114 C115 1.396 . S
C115 H100 0.940 . S
C115 C110 1.391 . S
C115 C114 1.396 . S
C116 P96 1.803 . S
C116 C117 1.378 . S
C116 C121 1.400 . S
C117 H101 0.939 . S
C117 C116 1.378 . S
C117 C118 1.361 . S
C118 H102 0.942 . S
C118 C117 1.361 . S
C118 C119 1.369 . S
C119 C118 1.369 . S
C119 C120 1.404 . S
C120 H103 0.940 . S
C120 C119 1.404 . S
C120 C121 1.389 . S
C121 H104 0.939 . S
C121 C116 1.400 . S
C121 C120 1.389 . S
C122 P96 1.819 . S
C122 C123 1.391 . S
C122 C127 1.391 . S
C123 H105 0.941 . S
C123 C122 1.391 . S
C123 C124 1.396 . S
C124 H108 0.939 . S
C124 C123 1.396 . S
C124 C125 1.397 . S
C125 C124 1.397 . S
C125 C126 1.385 . S
C126 H109 0.940 . S
C126 C125 1.385 . S
C126 C127 1.388 . S
C127 H106 0.939 . S
C127 C122 1.391 . S
C127 C126 1.388 . S
P128 O139 1.490 . S
P128 C142 1.812 . S
P128 C148 1.803 . S
P128 C154 1.819 . S
H129 C143 0.941 . S
H130 C144 0.939 . S
H131 C146 0.940 . S
H132 C147 0.940 . S
H133 C149 0.939 . S
H134 C150 0.942 . S
H135 C152 0.940 . S
H136 C153 0.939 . S
H137 C155 0.941 . S
H138 C159 0.939 . S
O139 P128 1.490 . S
H140 C156 0.939 . S
H141 C158 0.940 . S
C142 P128 1.812 . S
C142 C143 1.389 . S
C142 C147 1.391 . S
C143 H129 0.941 . S
C143 C142 1.389 . S
C143 C144 1.397 . S
C144 H130 0.939 . S
C144 C143 1.397 . S
C144 C145 1.378 . S
C145 C144 1.378 . S
C145 C146 1.378 . S
C146 H131 0.940 . S
C146 C145 1.378 . S
C146 C147 1.396 . S
C147 H132 0.940 . S
C147 C142 1.391 . S
C147 C146 1.396 . S
C148 P128 1.803 . S
C148 C149 1.378 . S
C148 C153 1.400 . S
C149 H133 0.939 . S
C149 C148 1.378 . S
C149 C150 1.361 . S
C150 H134 0.942 . S
C150 C149 1.361 . S
C150 C151 1.369 . S
C151 C150 1.369 . S
C151 C152 1.404 . S
C152 H135 0.940 . S
C152 C151 1.404 . S
C152 C153 1.389 . S
C153 H136 0.939 . S
C153 C148 1.400 . S
C153 C152 1.389 . S
C154 P128 1.819 . S
C154 C155 1.391 . S
C154 C159 1.391 . S
C155 H137 0.941 . S
C155 C154 1.391 . S
C155 C156 1.396 . S
C156 H140 0.939 . S
C156 C155 1.396 . S
C156 C157 1.397 . S
C157 C156 1.397 . S
C157 C158 1.385 . S
C158 H141 0.940 . S
C158 C157 1.385 . S
C158 C159 1.388 . S
C159 H138 0.939 . S
C159 C154 1.391 . S
C159 C158 1.388 . S
P160 O171 1.490 . S
P160 C174 1.812 . S
P160 C180 1.803 . S
P160 C186 1.819 . S
H161 C175 0.941 . S
H162 C176 0.939 . S
H163 C178 0.940 . S
H164 C179 0.940 . S
H165 C181 0.939 . S
H166 C182 0.942 . S
H167 C184 0.940 . S
H168 C185 0.939 . S
H169 C187 0.941 . S
H170 C191 0.939 . S
O171 P160 1.490 . S
H172 C188 0.939 . S
H173 C190 0.940 . S
C174 P160 1.812 . S
C174 C175 1.389 . S
C174 C179 1.391 . S
C175 H161 0.941 . S
C175 C174 1.389 . S
C175 C176 1.397 . S
C176 H162 0.939 . S
C176 C175 1.397 . S
C176 C177 1.378 . S
C177 C176 1.378 . S
C177 C178 1.378 . S
C178 H163 0.940 . S
C178 C177 1.378 . S
C178 C179 1.396 . S
C179 H164 0.940 . S
C179 C174 1.391 . S
C179 C178 1.396 . S
C180 P160 1.803 . S
C180 C181 1.378 . S
C180 C185 1.400 . S
C181 H165 0.939 . S
C181 C180 1.378 . S
C181 C182 1.361 . S
C182 H166 0.942 . S
C182 C181 1.361 . S
C182 C183 1.369 . S
C183 C182 1.369 . S
C183 C184 1.404 . S
C184 H167 0.940 . S
C184 C183 1.404 . S
C184 C185 1.389 . S
C185 H168 0.939 . S
C185 C180 1.400 . S
C185 C184 1.389 . S
C186 P160 1.819 . S
C186 C187 1.391 . S
C186 C191 1.391 . S
C187 H169 0.941 . S
C187 C186 1.391 . S
C187 C188 1.396 . S
C188 H172 0.939 . S
C188 C187 1.396 . S
C188 C189 1.397 . S
C189 C188 1.397 . S
C189 C190 1.385 . S
C190 H173 0.940 . S
C190 C189 1.385 . S
C190 C191 1.388 . S
C191 H170 0.939 . S
C191 C186 1.391 . S
C191 C190 1.388 . S
P192 O203 1.490 . S
P192 C206 1.812 . S
P192 C212 1.803 . S
P192 C218 1.819 . S
H193 C207 0.941 1_455 S
H194 C208 0.939 . S
H195 C210 0.940 . S
H196 C211 0.940 . S
H197 C213 0.939 . S
H198 C214 0.942 . S
H199 C216 0.940 . S
H200 C217 0.939 . S
H201 C219 0.941 . S
H202 C223 0.939 . S
O203 P192 1.490 . S
H204 C220 0.939 . S
H205 C222 0.940 . S
C206 P192 1.812 . S
C206 C207 1.389 . S
C206 C211 1.391 . S
C207 H193 0.941 1_655 S
C207 C206 1.389 . S
C207 C208 1.397 1_655 S
C208 H194 0.939 . S
C208 C207 1.397 1_455 S
C208 C209 1.378 1_455 S
C209 C208 1.378 1_655 S
C209 C210 1.378 . S
C210 H195 0.940 . S
C210 C209 1.378 . S
C210 C211 1.396 . S
C211 H196 0.940 . S
C211 C206 1.391 . S
C211 C210 1.396 . S
C212 P192 1.803 . S
C212 C213 1.378 . S
C212 C217 1.400 . S
C213 H197 0.939 . S
C213 C212 1.378 . S
C213 C214 1.361 . S
C214 H198 0.942 . S
C214 C213 1.361 . S
C214 C215 1.369 . S
C215 C214 1.369 . S
C215 C216 1.404 . S
C216 H199 0.940 . S
C216 C215 1.404 . S
C216 C217 1.389 . S
C217 H200 0.939 . S
C217 C212 1.400 . S
C217 C216 1.389 . S
C218 P192 1.819 . S
C218 C219 1.391 . S
C218 C223 1.391 . S
C219 H201 0.941 . S
C219 C218 1.391 . S
C219 C220 1.396 . S
C220 H204 0.939 . S
C220 C219 1.396 . S
C220 C221 1.397 . S
C221 C220 1.397 . S
C221 C222 1.385 . S
C222 H205 0.940 . S
C222 C221 1.385 . S
C222 C223 1.388 . S
C223 H202 0.939 . S
C223 C218 1.391 . S
C223 C222 1.388 . S
P224 O235 1.490 . S
P224 C238 1.812 . S
P224 C244 1.803 . S
P224 C250 1.819 . S
H225 C239 0.941 . S
H226 C240 0.939 . S
H227 C242 0.940 . S
H228 C243 0.940 . S
H229 C245 0.939 . S
H230 C246 0.942 . S
H231 C248 0.940 . S
H232 C249 0.939 . S
H233 C251 0.941 . S
H234 C255 0.939 . S
O235 P224 1.490 . S
H236 C252 0.939 . S
H237 C254 0.940 . S
C238 P224 1.812 . S
C238 C239 1.389 . S
C238 C243 1.391 . S
C239 H225 0.941 . S
C239 C238 1.389 . S
C239 C240 1.397 . S
C240 H226 0.939 . S
C240 C239 1.397 . S
C240 C241 1.378 . S
C241 C240 1.378 . S
C241 C242 1.378 . S
C242 H227 0.940 . S
C242 C241 1.378 . S
C242 C243 1.396 . S
C243 H228 0.940 . S
C243 C238 1.391 . S
C243 C242 1.396 . S
C244 P224 1.803 . S
C244 C245 1.378 . S
C244 C249 1.400 . S
C245 H229 0.939 . S
C245 C244 1.378 . S
C245 C246 1.361 . S
C246 H230 0.942 . S
C246 C245 1.361 . S
C246 C247 1.369 . S
C247 C246 1.369 . S
C247 C248 1.404 . S
C248 H231 0.940 . S
C248 C247 1.404 . S
C248 C249 1.389 . S
C249 H232 0.939 . S
C249 C244 1.400 . S
C249 C248 1.389 . S
C250 P224 1.819 . S
C250 C251 1.391 . S
C250 C255 1.391 . S
C251 H233 0.941 . S
C251 C250 1.391 . S
C251 C252 1.396 . S
C252 H236 0.939 . S
C252 C251 1.396 . S
C252 C253 1.397 . S
C253 C252 1.397 . S
C253 C254 1.385 . S
C254 H237 0.940 . S
C254 C253 1.385 . S
C254 C255 1.388 . S
C255 H234 0.939 . S
C255 C250 1.391 . S
C255 C254 1.388 . S
P256 O267 1.490 . S
P256 C270 1.812 . S
P256 C276 1.803 . S
P256 C282 1.819 . S
H257 C271 0.941 . S
H258 C272 0.939 . S
H259 C274 0.940 . S
H260 C275 0.940 . S
H261 C277 0.939 . S
H262 C278 0.942 . S
H263 C280 0.940 . S
H264 C281 0.939 . S
H265 C283 0.941 . S
H266 C287 0.939 . S
O267 P256 1.490 . S
H268 C284 0.939 . S
H269 C286 0.940 . S
C270 P256 1.812 . S
C270 C271 1.389 . S
C270 C275 1.391 . S
C271 H257 0.941 . S
C271 C270 1.389 . S
C271 C272 1.397 . S
C272 H258 0.939 . S
C272 C271 1.397 . S
C272 C273 1.378 . S
C273 C272 1.378 . S
C273 C274 1.378 . S
C274 H259 0.940 . S
C274 C273 1.378 . S
C274 C275 1.396 . S
C275 H260 0.940 . S
C275 C270 1.391 . S
C275 C274 1.396 . S
C276 P256 1.803 . S
C276 C277 1.378 . S
C276 C281 1.400 . S
C277 H261 0.939 . S
C277 C276 1.378 . S
C277 C278 1.361 . S
C278 H262 0.942 . S
C278 C277 1.361 . S
C278 C279 1.369 . S
C279 C278 1.369 . S
C279 C280 1.404 . S
C280 H263 0.940 . S
C280 C279 1.404 . S
C280 C281 1.389 . S
C281 H264 0.939 . S
C281 C276 1.400 . S
C281 C280 1.389 . S
C282 P256 1.819 . S
C282 C283 1.391 . S
C282 C287 1.391 . S
C283 H265 0.941 . S
C283 C282 1.391 . S
C283 C284 1.396 . S
C284 H268 0.939 . S
C284 C283 1.396 . S
C284 C285 1.397 . S
C285 C284 1.397 . S
C285 C286 1.385 . S
C286 H269 0.940 . S
C286 C285 1.385 . S
C286 C287 1.388 . S
C287 H266 0.939 . S
C287 C282 1.391 . S
C287 C286 1.388 . S
P288 O299 1.490 . S
P288 C302 1.812 . S
P288 C308 1.803 . S
P288 C314 1.819 . S
H289 C303 0.941 . S
H290 C304 0.939 . S
H291 C306 0.940 . S
H292 C307 0.940 . S
H293 C309 0.939 1_545 S
H294 C310 0.942 . S
H295 C312 0.940 . S
H296 C313 0.939 . S
H297 C315 0.941 . S
H298 C319 0.939 . S
O299 P288 1.490 . S
H300 C316 0.939 . S
H301 C318 0.940 . S
C302 P288 1.812 . S
C302 C303 1.389 . S
C302 C307 1.391 . S
C303 H289 0.941 . S
C303 C302 1.389 . S
C303 C304 1.397 . S
C304 H290 0.939 . S
C304 C303 1.397 . S
C304 C305 1.378 . S
C305 C304 1.378 . S
C305 C306 1.378 . S
C306 H291 0.940 . S
C306 C305 1.378 . S
C306 C307 1.396 . S
C307 H292 0.940 . S
C307 C302 1.391 . S
C307 C306 1.396 . S
C308 P288 1.803 . S
C308 C309 1.378 . S
C308 C313 1.400 . S
C309 H293 0.939 1_565 S
C309 C308 1.378 . S
C309 C310 1.361 1_565 S
C310 H294 0.942 . S
C310 C309 1.361 1_545 S
C310 C311 1.369 1_545 S
C311 C310 1.369 1_565 S
C311 C312 1.404 . S
C312 H295 0.940 . S
C312 C311 1.404 . S
C312 C313 1.389 . S
C313 H296 0.939 . S
C313 C308 1.400 . S
C313 C312 1.389 . S
C314 P288 1.819 . S
C314 C315 1.391 . S
C314 C319 1.391 . S
C315 H297 0.941 . S
C315 C314 1.391 . S
C315 C316 1.396 . S
C316 H300 0.939 . S
C316 C315 1.396 . S
C316 C317 1.397 . S
C317 C316 1.397 . S
C317 C318 1.385 . S
C318 H301 0.940 . S
C318 C317 1.385 . S
C318 C319 1.388 . S
C319 H298 0.939 . S
C319 C314 1.391 . S
C319 C318 1.388 . S
P320 O331 1.490 . S
P320 C334 1.812 . S
P320 C340 1.803 . S
P320 C346 1.819 . S
H321 C335 0.941 . S
H322 C336 0.939 . S
H323 C338 0.940 . S
H324 C339 0.940 . S
H325 C341 0.939 . S
H326 C342 0.942 . S
H327 C344 0.940 . S
H328 C345 0.939 . S
H329 C347 0.941 . S
H330 C351 0.939 . S
O331 P320 1.490 . S
H332 C348 0.939 . S
H333 C350 0.940 . S
C334 P320 1.812 . S
C334 C335 1.389 . S
C334 C339 1.391 . S
C335 H321 0.941 . S
C335 C334 1.389 . S
C335 C336 1.397 . S
C336 H322 0.939 . S
C336 C335 1.397 . S
C336 C337 1.378 . S
C337 C336 1.378 . S
C337 C338 1.378 . S
C338 H323 0.940 . S
C338 C337 1.378 . S
C338 C339 1.396 . S
C339 H324 0.940 . S
C339 C334 1.391 . S
C339 C338 1.396 . S
C340 P320 1.803 . S
C340 C341 1.378 . S
C340 C345 1.400 . S
C341 H325 0.939 . S
C341 C340 1.378 . S
C341 C342 1.361 . S
C342 H326 0.942 . S
C342 C341 1.361 . S
C342 C343 1.369 . S
C343 C342 1.369 . S
C343 C344 1.404 . S
C344 H327 0.940 . S
C344 C343 1.404 . S
C344 C345 1.389 . S
C345 H328 0.939 . S
C345 C340 1.400 . S
C345 C344 1.389 . S
C346 P320 1.819 . S
C346 C347 1.391 . S
C346 C351 1.391 . S
C347 H329 0.941 . S
C347 C346 1.391 . S
C347 C348 1.396 . S
C348 H332 0.939 . S
C348 C347 1.396 . S
C348 C349 1.397 . S
C349 C348 1.397 . S
C349 C350 1.385 . S
C350 H333 0.940 . S
C350 C349 1.385 . S
C350 C351 1.388 . S
C351 H330 0.939 . S
C351 C346 1.391 . S
C351 C350 1.388 . S
P352 O363 1.490 . S
P352 C366 1.812 . S
P352 C372 1.803 . S
P352 C378 1.819 . S
H353 C367 0.941 . S
H354 C368 0.939 . S
H355 C370 0.940 . S
H356 C371 0.940 . S
H357 C373 0.939 . S
H358 C374 0.942 . S
H359 C376 0.940 . S
H360 C377 0.939 . S
H361 C379 0.941 . S
H362 C383 0.939 . S
O363 P352 1.490 . S
H364 C380 0.939 . S
H365 C382 0.940 . S
C366 P352 1.812 . S
C366 C367 1.389 . S
C366 C371 1.391 . S
C367 H353 0.941 . S
C367 C366 1.389 . S
C367 C368 1.397 . S
C368 H354 0.939 . S
C368 C367 1.397 . S
C368 C369 1.378 . S
C369 C368 1.378 . S
C369 C370 1.378 . S
C370 H355 0.940 . S
C370 C369 1.378 . S
C370 C371 1.396 . S
C371 H356 0.940 . S
C371 C366 1.391 . S
C371 C370 1.396 . S
C372 P352 1.803 . S
C372 C373 1.378 . S
C372 C377 1.400 . S
C373 H357 0.939 . S
C373 C372 1.378 . S
C373 C374 1.361 . S
C374 H358 0.942 . S
C374 C373 1.361 . S
C374 C375 1.369 . S
C375 C374 1.369 . S
C375 C376 1.404 . S
C376 H359 0.940 . S
C376 C375 1.404 . S
C376 C377 1.389 . S
C377 H360 0.939 . S
C377 C372 1.400 . S
C377 C376 1.389 . S
C378 P352 1.819 . S
C378 C379 1.391 . S
C378 C383 1.391 . S
C379 H361 0.941 . S
C379 C378 1.391 . S
C379 C380 1.396 . S
C380 H364 0.939 . S
C380 C379 1.396 . S
C380 C381 1.397 . S
C381 C380 1.397 . S
C381 C382 1.385 . S
C382 H365 0.940 . S
C382 C381 1.385 . S
C382 C383 1.388 . S
C383 H362 0.939 . S
C383 C378 1.391 . S
C383 C382 1.388 . S
P384 O395 1.490 . S
P384 C398 1.812 . S
P384 C404 1.803 . S
P384 C410 1.819 . S
H385 C399 0.941 . S
H386 C400 0.939 . S
H387 C402 0.940 . S
H388 C403 0.940 . S
H389 C405 0.939 . S
H390 C406 0.942 . S
H391 C408 0.940 . S
H392 C409 0.939 . S
H393 C411 0.941 . S
H394 C415 0.939 . S
O395 P384 1.490 . S
H396 C412 0.939 . S
H397 C414 0.940 . S
C398 P384 1.812 . S
C398 C399 1.389 . S
C398 C403 1.391 . S
C399 H385 0.941 . S
C399 C398 1.389 . S
C399 C400 1.397 . S
C400 H386 0.939 . S
C400 C399 1.397 . S
C400 C401 1.378 . S
C401 C400 1.378 . S
C401 C402 1.378 . S
C402 H387 0.940 . S
C402 C401 1.378 . S
C402 C403 1.396 . S
C403 H388 0.940 . S
C403 C398 1.391 . S
C403 C402 1.396 . S
C404 P384 1.803 . S
C404 C405 1.378 . S
C404 C409 1.400 . S
C405 H389 0.939 . S
C405 C404 1.378 . S
C405 C406 1.361 . S
C406 H390 0.942 . S
C406 C405 1.361 . S
C406 C407 1.369 . S
C407 C406 1.369 . S
C407 C408 1.404 . S
C408 H391 0.940 . S
C408 C407 1.404 . S
C408 C409 1.389 . S
C409 H392 0.939 . S
C409 C404 1.400 . S
C409 C408 1.389 . S
C410 P384 1.819 . S
C410 C411 1.391 . S
C410 C415 1.391 . S
C411 H393 0.941 . S
C411 C410 1.391 . S
C411 C412 1.396 . S
C412 H396 0.939 . S
C412 C411 1.396 . S
C412 C413 1.397 . S
C413 C412 1.397 . S
C413 C414 1.385 . S
C414 H397 0.940 . S
C414 C413 1.385 . S
C414 C415 1.388 . S
C415 H394 0.939 . S
C415 C410 1.391 . S
C415 C414 1.388 . S
P416 O427 1.490 . S
P416 C430 1.812 . S
P416 C436 1.803 . S
P416 C442 1.819 . S
H417 C431 0.941 . S
H418 C432 0.939 . S
H419 C434 0.940 . S
H420 C435 0.940 . S
H421 C437 0.939 . S
H422 C438 0.942 . S
H423 C440 0.940 1_554 S
H424 C441 0.939 . S
H425 C443 0.941 . S
H426 C447 0.939 . S
O427 P416 1.490 . S
H428 C444 0.939 . S
H429 C446 0.940 . S
C430 P416 1.812 . S
C430 C431 1.389 . S
C430 C435 1.391 . S
C431 H417 0.941 . S
C431 C430 1.389 . S
C431 C432 1.397 . S
C432 H418 0.939 . S
C432 C431 1.397 . S
C432 C433 1.378 . S
C433 C432 1.378 . S
C433 C434 1.378 . S
C434 H419 0.940 . S
C434 C433 1.378 . S
C434 C435 1.396 . S
C435 H420 0.940 . S
C435 C430 1.391 . S
C435 C434 1.396 . S
C436 P416 1.803 . S
C436 C437 1.378 . S
C436 C441 1.400 . S
C437 H421 0.939 . S
C437 C436 1.378 . S
C437 C438 1.361 . S
C438 H422 0.942 . S
C438 C437 1.361 . S
C438 C439 1.369 . S
C439 C438 1.369 . S
C439 C440 1.404 . S
C440 H423 0.940 1_556 S
C440 C439 1.404 . S
C440 C441 1.389 . S
C441 H424 0.939 . S
C441 C436 1.400 . S
C441 C440 1.389 . S
C442 P416 1.819 . S
C442 C443 1.391 . S
C442 C447 1.391 . S
C443 H425 0.941 . S
C443 C442 1.391 . S
C443 C444 1.396 . S
C444 H428 0.939 . S
C444 C443 1.396 . S
C444 C445 1.397 . S
C445 C444 1.397 . S
C445 C446 1.385 . S
C446 H429 0.940 . S
C446 C445 1.385 . S
C446 C447 1.388 . S
C447 H426 0.939 . S
C447 C442 1.391 . S
C447 C446 1.388 . S
P448 O459 1.490 . S
P448 C462 1.812 . S
P448 C468 1.803 . S
P448 C474 1.819 . S
H449 C463 0.941 . S
H450 C464 0.939 . S
H451 C466 0.940 . S
H452 C467 0.940 . S
H453 C469 0.939 . S
H454 C470 0.942 . S
H455 C472 0.940 . S
H456 C473 0.939 . S
H457 C475 0.941 . S
H458 C479 0.939 . S
O459 P448 1.490 . S
H460 C476 0.939 . S
H461 C478 0.940 . S
C462 P448 1.812 . S
C462 C463 1.389 . S
C462 C467 1.391 . S
C463 H449 0.941 . S
C463 C462 1.389 . S
C463 C464 1.397 . S
C464 H450 0.939 . S
C464 C463 1.397 . S
C464 C465 1.378 . S
C465 C464 1.378 . S
C465 C466 1.378 . S
C466 H451 0.940 . S
C466 C465 1.378 . S
C466 C467 1.396 . S
C467 H452 0.940 . S
C467 C462 1.391 . S
C467 C466 1.396 . S
C468 P448 1.803 . S
C468 C469 1.378 . S
C468 C473 1.400 . S
C469 H453 0.939 . S
C469 C468 1.378 . S
C469 C470 1.361 . S
C470 H454 0.942 . S
C470 C469 1.361 . S
C470 C471 1.369 . S
C471 C470 1.369 . S
C471 C472 1.404 . S
C472 H455 0.940 . S
C472 C471 1.404 . S
C472 C473 1.389 . S
C473 H456 0.939 . S
C473 C468 1.400 . S
C473 C472 1.389 . S
C474 P448 1.819 . S
C474 C475 1.391 . S
C474 C479 1.391 . S
C475 H457 0.941 . S
C475 C474 1.391 . S
C475 C476 1.396 . S
C476 H460 0.939 . S
C476 C475 1.396 . S
C476 C477 1.397 . S
C477 C476 1.397 . S
C477 C478 1.385 . S
C478 H461 0.940 . S
C478 C477 1.385 . S
C478 C479 1.388 . S
C479 H458 0.939 . S
C479 C474 1.391 . S
C479 C478 1.388 . S
P480 O491 1.490 . S
P480 C494 1.812 . S
P480 C500 1.803 . S
P480 C506 1.819 . S
H481 C495 0.941 . S
H482 C496 0.939 . S
H483 C498 0.940 . S
H484 C499 0.940 . S
H485 C501 0.939 . S
H486 C502 0.942 1_554 S
H487 C504 0.940 . S
H488 C505 0.939 . S
H489 C507 0.941 . S
H490 C511 0.939 . S
O491 P480 1.490 . S
H492 C508 0.939 1_565 S
H493 C510 0.940 . S
C494 P480 1.812 . S
C494 C495 1.389 . S
C494 C499 1.391 . S
C495 H481 0.941 . S
C495 C494 1.389 . S
C495 C496 1.397 . S
C496 H482 0.939 . S
C496 C495 1.397 . S
C496 C497 1.378 . S
C497 C496 1.378 . S
C497 C498 1.378 . S
C498 H483 0.940 . S
C498 C497 1.378 . S
C498 C499 1.396 . S
C499 H484 0.940 . S
C499 C494 1.391 . S
C499 C498 1.396 . S
C500 P480 1.803 . S
C500 C501 1.378 . S
C500 C505 1.400 . S
C501 H485 0.939 . S
C501 C500 1.378 . S
C501 C502 1.361 . S
C502 H486 0.942 1_556 S
C502 C501 1.361 . S
C502 C503 1.369 . S
C503 C502 1.369 . S
C503 C504 1.404 . S
C504 H487 0.940 . S
C504 C503 1.404 . S
C504 C505 1.389 . S
C505 H488 0.939 . S
C505 C500 1.400 . S
C505 C504 1.389 . S
C506 P480 1.819 . S
C506 C507 1.391 . S
C506 C511 1.391 . S
C507 H489 0.941 . S
C507 C506 1.391 . S
C507 C508 1.396 . S
C508 H492 0.939 1_545 S
C508 C507 1.396 . S
C508 C509 1.397 . S
C509 C508 1.397 . S
C509 C510 1.385 . S
C510 H493 0.940 . S
C510 C509 1.385 . S
C510 C511 1.388 . S
C511 H490 0.939 . S
C511 C506 1.391 . S
C511 C510 1.388 . S
Zn512 O515 2.055 . S
Zn512 O517 2.033 1_554 S
Zn512 O522 2.034 1_554 S
Zn513 O514 1.962 . S
Zn513 O516 1.986 . S
Zn513 O518 1.996 . S
Zn513 O521 1.943 1_554 S
O514 Zn513 1.962 . S
O514 C519 1.254 . S
O515 Zn512 2.055 . S
O515 C519 1.269 . S
O516 Zn513 1.986 . S
O516 C523 1.262 . S
O517 Zn512 2.033 1_556 S
O517 C525 1.260 . S
O518 Zn513 1.996 . S
O518 C525 1.257 1_554 S
C519 O514 1.254 . S
C519 O515 1.269 . S
C520 O521 1.249 . S
C520 O522 1.270 . S
O521 Zn513 1.943 1_556 S
O521 C520 1.249 . S
O522 Zn512 2.034 1_556 S
O522 C520 1.270 . S
C523 O516 1.262 . S
C523 O524 1.232 . S
O524 C523 1.232 . S
C525 O517 1.260 . S
C525 O518 1.257 1_556 S
Zn526 O529 2.031 . S
Zn526 O531 2.049 . S
Zn526 O536 2.067 . S
Zn527 O528 1.962 . S
Zn527 O530 1.986 . S
Zn527 O532 1.996 . S
Zn527 O535 1.943 . S
O528 Zn527 1.962 . S
O528 C533 1.254 . S
O529 Zn526 2.031 . S
O529 C533 1.269 . S
O530 Zn527 1.986 . S
O530 C537 1.262 . S
O531 Zn526 2.049 . S
O531 C539 1.260 . S
O532 Zn527 1.996 . S
O532 C539 1.257 . S
C533 O528 1.254 . S
C533 O529 1.269 . S
C534 O535 1.249 . S
C534 O536 1.270 . S
O535 Zn527 1.943 . S
O535 C534 1.249 . S
O536 Zn526 2.067 . S
O536 C534 1.270 . S
C537 O530 1.262 . S
C537 O538 1.232 . S
O538 C537 1.232 . S
C539 O531 1.260 . S
C539 O532 1.257 . S
Zn540 O543 2.031 . S
Zn540 O545 2.049 . S
Zn540 O550 2.067 . S
Zn541 O542 1.962 . S
Zn541 O544 1.986 . S
Zn541 O546 1.996 1_554 S
Zn541 O549 1.943 . S
O542 Zn541 1.962 . S
O542 C547 1.254 . S
O543 Zn540 2.031 . S
O543 C547 1.269 1_556 S
O544 Zn541 1.986 . S
O544 C551 1.262 . S
O545 Zn540 2.049 . S
O545 C553 1.260 . S
O546 Zn541 1.996 1_556 S
O546 C553 1.257 . S
C547 O542 1.254 . S
C547 O543 1.269 1_554 S
C548 O549 1.249 1_556 S
C548 O550 1.270 . S
O549 Zn541 1.943 . S
O549 C548 1.249 1_554 S
O550 Zn540 2.067 . S
O550 C548 1.270 . S
C551 O544 1.262 . S
C551 O552 1.232 . S
O552 C551 1.232 . S
C553 O545 1.260 . S
C553 O546 1.257 . S
Zn554 O557 2.031 . S
Zn554 O559 2.049 1_545 S
Zn554 O564 2.067 1_545 S
Zn555 O556 1.962 . S
Zn555 O558 1.986 . S
Zn555 O560 1.996 . S
Zn555 O563 1.943 1_545 S
O556 Zn555 1.962 . S
O556 C561 1.254 . S
O557 Zn554 2.031 . S
O557 C561 1.269 . S
O558 Zn555 1.986 . S
O558 C565 1.262 . S
O559 Zn554 2.049 1_565 S
O559 C567 1.260 . S
O560 Zn555 1.996 . S
O560 C567 1.257 1_545 S
C561 O556 1.254 . S
C561 O557 1.269 . S
C562 O563 1.249 . S
C562 O564 1.270 . S
O563 Zn555 1.943 1_565 S
O563 C562 1.249 . S
O564 Zn554 2.067 1_565 S
O564 C562 1.270 . S
C565 O558 1.262 . S
C565 O566 1.232 . S
O566 C565 1.232 . S
C567 O559 1.260 . S
C567 O560 1.257 1_565 S
Zn568 O571 2.031 . S
Zn568 O573 2.049 . S
Zn568 O578 2.067 . S
Zn569 O570 1.962 . S
Zn569 O572 1.986 . S
Zn569 O574 1.996 . S
Zn569 O577 1.943 . S
O570 Zn569 1.962 . S
O570 C575 1.254 . S
O571 Zn568 2.031 . S
O571 C575 1.269 . S
O572 Zn569 1.986 . S
O572 C579 1.262 . S
O573 Zn568 2.049 . S
O573 C581 1.260 . S
O574 Zn569 1.996 . S
O574 C581 1.257 . S
C575 O570 1.254 . S
C575 O571 1.269 . S
C576 O577 1.249 . S
C576 O578 1.270 . S
O577 Zn569 1.943 . S
O577 C576 1.249 . S
O578 Zn568 2.067 . S
O578 C576 1.270 . S
C579 O572 1.262 . S
C579 O580 1.232 . S
O580 C579 1.232 . S
C581 O573 1.260 . S
C581 O574 1.257 . S
Zn582 O585 2.031 . S
Zn582 O587 2.049 . S
Zn582 O592 2.067 . S
Zn583 O584 1.962 . S
Zn583 O586 1.986 . S
Zn583 O588 1.996 . S
Zn583 O591 1.943 . S
O584 Zn583 1.962 . S
O584 C589 1.254 . S
O585 Zn582 2.031 . S
O585 C589 1.269 . S
O586 Zn583 1.986 . S
O586 C593 1.262 . S
O587 Zn582 2.049 . S
O587 C595 1.260 . S
O588 Zn583 1.996 . S
O588 C595 1.257 . S
C589 O584 1.254 . S
C589 O585 1.269 . S
C590 O591 1.249 . S
C590 O592 1.270 . S
O591 Zn583 1.943 . S
O591 C590 1.249 . S
O592 Zn582 2.067 . S
O592 C590 1.270 . S
C593 O586 1.262 . S
C593 O594 1.232 . S
O594 C593 1.232 . S
C595 O587 1.260 . S
C595 O588 1.257 . S
Zn596 O599 2.031 . S
Zn596 O601 2.049 . S
Zn596 O606 2.067 . S
Zn597 O598 1.962 . S
Zn597 O600 1.986 . S
Zn597 O602 1.996 . S
Zn597 O605 1.943 . S
O598 Zn597 1.962 . S
O598 C603 1.254 . S
O599 Zn596 2.031 . S
O599 C603 1.269 . S
O600 Zn597 1.986 . S
O600 C607 1.262 . S
O601 Zn596 2.049 . S
O601 C609 1.260 . S
O602 Zn597 1.996 . S
O602 C609 1.257 . S
C603 O598 1.254 . S
C603 O599 1.269 . S
C604 O605 1.249 . S
C604 O606 1.270 . S
O605 Zn597 1.943 . S
O605 C604 1.249 . S
O606 Zn596 2.067 . S
O606 C604 1.270 . S
C607 O600 1.262 . S
C607 O608 1.232 . S
O608 C607 1.232 . S
C609 O601 1.260 . S
C609 O602 1.257 . S
Zn610 O613 2.031 . S
Zn610 O615 2.049 . S
Zn610 O620 2.067 . S
Zn611 O612 1.962 . S
Zn611 O614 1.986 . S
Zn611 O616 1.996 1_545 S
Zn611 O619 1.943 . S
O612 Zn611 1.962 . S
O612 C617 1.254 . S
O613 Zn610 2.031 . S
O613 C617 1.269 1_565 S
O614 Zn611 1.986 . S
O614 C621 1.262 . S
O615 Zn610 2.049 . S
O615 C623 1.260 . S
O616 Zn611 1.996 1_565 S
O616 C623 1.257 . S
C617 O612 1.254 . S
C617 O613 1.269 1_545 S
C618 O619 1.249 1_565 S
C618 O620 1.270 . S
O619 Zn611 1.943 . S
O619 C618 1.249 1_545 S
O620 Zn610 2.067 . S
O620 C618 1.270 . S
C621 O614 1.262 . S
C621 O622 1.232 . S
O622 C621 1.232 . S
C623 O615 1.260 . S
C623 O616 1.257 . S
Zn624 O627 2.031 . S
Zn624 O629 2.049 1_455 S
Zn624 O634 2.067 1_455 S
Zn625 O626 1.962 . S
Zn625 O628 1.986 . S
Zn625 O630 1.996 . S
Zn625 O633 1.943 1_455 S
O626 Zn625 1.962 . S
O626 C631 1.254 . S
O627 Zn624 2.031 . S
O627 C631 1.269 . S
O628 Zn625 1.986 . S
O628 C635 1.262 . S
O629 Zn624 2.049 1_655 S
O629 C637 1.260 . S
O630 Zn625 1.996 . S
O630 C637 1.257 1_455 S
C631 O626 1.254 . S
C631 O627 1.269 . S
C632 O633 1.249 . S
C632 O634 1.270 . S
O633 Zn625 1.943 1_655 S
O633 C632 1.249 . S
O634 Zn624 2.067 1_655 S
O634 C632 1.270 . S
C635 O628 1.262 . S
C635 O636 1.232 . S
O636 C635 1.232 . S
C637 O629 1.260 . S
C637 O630 1.257 1_655 S
Zn638 O641 2.031 . S
Zn638 O643 2.049 . S
Zn638 O648 2.067 . S
Zn639 O640 1.962 . S
Zn639 O642 1.986 . S
Zn639 O644 1.996 . S
Zn639 O647 1.943 . S
O640 Zn639 1.962 . S
O640 C645 1.254 . S
O641 Zn638 2.031 . S
O641 C645 1.269 . S
O642 Zn639 1.986 . S
O642 C649 1.262 . S
O643 Zn638 2.049 . S
O643 C651 1.260 . S
O644 Zn639 1.996 . S
O644 C651 1.257 . S
C645 O640 1.254 . S
C645 O641 1.269 . S
C646 O647 1.249 . S
C646 O648 1.270 . S
O647 Zn639 1.943 . S
O647 C646 1.249 . S
O648 Zn638 2.067 . S
O648 C646 1.270 . S
C649 O642 1.262 . S
C649 O650 1.232 . S
O650 C649 1.232 . S
C651 O643 1.260 . S
C651 O644 1.257 . S
Zn652 O655 2.031 . S
Zn652 O657 2.049 . S
Zn652 O662 2.067 . S
Zn653 O654 1.962 . S
Zn653 O656 1.986 . S
Zn653 O658 1.996 1_455 S
Zn653 O661 1.943 . S
O654 Zn653 1.962 . S
O654 C659 1.254 . S
O655 Zn652 2.031 . S
O655 C659 1.269 1_655 S
O656 Zn653 1.986 . S
O656 C663 1.262 . S
O657 Zn652 2.049 . S
O657 C665 1.260 . S
O658 Zn653 1.996 1_655 S
O658 C665 1.257 . S
C659 O654 1.254 . S
C659 O655 1.269 1_455 S
C660 O661 1.249 1_655 S
C660 O662 1.270 . S
O661 Zn653 1.943 . S
O661 C660 1.249 1_455 S
O662 Zn652 2.067 . S
O662 C660 1.270 . S
C663 O656 1.262 . S
C663 O664 1.232 . S
O664 C663 1.232 . S
C665 O657 1.260 . S
C665 O658 1.257 . S
Zn666 O669 2.031 . S
Zn666 O671 2.049 . S
Zn666 O676 2.067 . S
Zn667 O668 1.962 . S
Zn667 O670 1.986 . S
Zn667 O672 1.996 . S
Zn667 O675 1.943 . S
O668 Zn667 1.962 . S
O668 C673 1.254 . S
O669 Zn666 2.031 . S
O669 C673 1.269 . S
O670 Zn667 1.986 . S
O670 C677 1.262 . S
O671 Zn666 2.049 . S
O671 C679 1.260 . S
O672 Zn667 1.996 . S
O672 C679 1.257 . S
C673 O668 1.254 . S
C673 O669 1.269 . S
C674 O675 1.249 . S
C674 O676 1.270 . S
O675 Zn667 1.943 . S
O675 C674 1.249 . S
O676 Zn666 2.067 . S
O676 C674 1.270 . S
C677 O670 1.262 . S
C677 O678 1.232 . S
O678 C677 1.232 . S
C679 O671 1.260 . S
C679 O672 1.257 . S
H680 C688 0.929 . S
H681 C690 0.930 . S
H682 C692 0.930 . S
H683 C695 0.929 . S
H684 C698 0.930 . S
H685 C700 0.960 . S
H686 C700 0.960 . S
H687 C700 0.960 . S
C688 H680 0.929 . S
C688 C689 1.377 . S
C688 C690 1.384 . S
C689 C688 1.377 . S
C689 C695 1.390 . S
C690 H681 0.930 . S
C690 C688 1.384 . S
C690 C691 1.372 . S
C691 C690 1.372 . S
C691 C692 1.400 . S
C691 C696 1.490 . S
C692 H682 0.930 . S
C692 C691 1.400 . S
C692 C695 1.386 . S
H693 C709 0.930 . S
H694 C710 0.931 . S
C695 H683 0.929 . S
C695 C689 1.390 . S
C695 C692 1.386 . S
C696 C691 1.490 . S
C696 C698 1.395 . S
C696 C699 1.403 . S
H697 C703 0.930 . S
C698 H684 0.930 . S
C698 C696 1.395 . S
C698 C701 1.403 . S
C699 C696 1.403 . S
C699 C700 1.524 . S
C699 C703 1.400 . S
C700 H685 0.960 . S
C700 H686 0.960 . S
C700 H687 0.960 . S
C700 C699 1.524 . S
C701 C698 1.403 . S
C701 C702 1.392 . S
C701 C705 1.495 . S
C702 C701 1.392 . S
C702 C703 1.385 . S
C702 C704 1.478 . S
C703 H697 0.930 . S
C703 C699 1.400 . S
C703 C702 1.385 . S
C704 C702 1.478 . S
C704 C706 1.381 . S
C704 C710 1.383 . S
C705 C701 1.495 . S
C705 H711 0.959 . S
C705 H712 0.961 . S
C705 H713 0.960 . S
C706 C704 1.381 . S
C706 C707 1.394 . S
C706 H714 0.930 . S
C707 C706 1.394 . S
C707 C708 1.383 . S
C707 H715 0.929 . S
C708 C707 1.383 . S
C708 C709 1.377 . S
C709 H693 0.930 . S
C709 C708 1.377 . S
C709 C710 1.379 . S
C710 H694 0.931 . S
C710 C704 1.383 . S
C710 C709 1.379 . S
H711 C705 0.959 . S
H712 C705 0.961 . S
H713 C705 0.960 . S
H714 C706 0.930 . S
H715 C707 0.929 . S
H716 C724 0.929 . S
H717 C726 0.930 . S
H718 C728 0.930 . S
H719 C731 0.929 . S
H720 C734 0.930 . S
H721 C736 0.960 . S
H722 C736 0.960 . S
H723 C736 0.960 . S
C724 H716 0.929 . S
C724 C725 1.393 . S
C724 C726 1.384 . S
C725 C724 1.393 . S
C725 C731 1.386 1_455 S
C726 H717 0.930 . S
C726 C724 1.384 . S
C726 C727 1.372 . S
C727 C726 1.372 . S
C727 C728 1.400 . S
C727 C732 1.490 . S
C728 H718 0.930 . S
C728 C727 1.400 . S
C728 C731 1.386 1_455 S
H729 C745 0.930 . S
H730 C746 0.931 . S
C731 H719 0.929 . S
C731 C725 1.386 1_655 S
C731 C728 1.386 1_655 S
C732 C727 1.490 . S
C732 C734 1.395 . S
C732 C735 1.403 . S
H733 C739 0.930 . S
C734 H720 0.930 . S
C734 C732 1.395 . S
C734 C737 1.403 . S
C735 C732 1.403 . S
C735 C736 1.524 . S
C735 C739 1.400 . S
C736 H721 0.960 . S
C736 H722 0.960 . S
C736 H723 0.960 . S
C736 C735 1.524 . S
C737 C734 1.403 . S
C737 C738 1.392 . S
C737 C741 1.495 . S
C738 C737 1.392 . S
C738 C739 1.385 . S
C738 C740 1.478 . S
C739 H733 0.930 . S
C739 C735 1.400 . S
C739 C738 1.385 . S
C740 C738 1.478 . S
C740 C742 1.381 . S
C740 C746 1.383 . S
C741 C737 1.495 . S
C741 H747 0.959 . S
C741 H748 0.961 . S
C741 H749 0.960 . S
C742 C740 1.381 . S
C742 C743 1.394 . S
C742 H750 0.930 . S
C743 C742 1.394 . S
C743 C744 1.383 . S
C743 H751 0.929 . S
C744 C743 1.383 . S
C744 C745 1.377 . S
C745 H729 0.930 . S
C745 C744 1.377 . S
C745 C746 1.379 . S
C746 H730 0.931 . S
C746 C740 1.383 . S
C746 C745 1.379 . S
H747 C741 0.959 . S
H748 C741 0.961 . S
H749 C741 0.960 . S
H750 C742 0.930 . S
H751 C743 0.929 . S
H752 C760 0.929 . S
H753 C762 0.930 . S
H754 C764 0.930 . S
H755 C767 0.929 . S
H756 C770 0.930 . S
H757 C772 0.960 . S
H758 C772 0.960 . S
H759 C772 0.960 . S
C760 H752 0.929 . S
C760 C761 1.377 . S
C760 C762 1.384 . S
C761 C760 1.377 . S
C761 C767 1.390 . S
C762 H753 0.930 . S
C762 C760 1.384 . S
C762 C763 1.372 . S
C763 C762 1.372 . S
C763 C764 1.400 . S
C763 C768 1.490 . S
C764 H754 0.930 . S
C764 C763 1.400 . S
C764 C767 1.386 . S
H765 C781 0.930 . S
H766 C782 0.931 . S
C767 H755 0.929 . S
C767 C761 1.390 . S
C767 C764 1.386 . S
C768 C763 1.490 . S
C768 C770 1.395 . S
C768 C771 1.403 . S
H769 C775 0.930 . S
C770 H756 0.930 . S
C770 C768 1.395 . S
C770 C773 1.403 . S
C771 C768 1.403 . S
C771 C772 1.524 . S
C771 C775 1.400 . S
C772 H757 0.960 . S
C772 H758 0.960 . S
C772 H759 0.960 . S
C772 C771 1.524 . S
C773 C770 1.403 . S
C773 C774 1.392 . S
C773 C777 1.495 . S
C774 C773 1.392 . S
C774 C775 1.385 . S
C774 C776 1.478 . S
C775 H769 0.930 . S
C775 C771 1.400 . S
C775 C774 1.385 . S
C776 C774 1.478 . S
C776 C778 1.381 . S
C776 C782 1.383 . S
C777 C773 1.495 . S
C777 H783 0.959 . S
C777 H784 0.961 . S
C777 H785 0.960 . S
C778 C776 1.381 . S
C778 C779 1.394 . S
C778 H786 0.930 . S
C779 C778 1.394 . S
C779 C780 1.383 . S
C779 H787 0.929 . S
C780 C779 1.383 . S
C780 C781 1.377 . S
C781 H765 0.930 . S
C781 C780 1.377 . S
C781 C782 1.379 . S
C782 H766 0.931 . S
C782 C776 1.383 . S
C782 C781 1.379 . S
H783 C777 0.959 . S
H784 C777 0.961 . S
H785 C777 0.960 . S
H786 C778 0.930 . S
H787 C779 0.929 . S
H788 C796 0.929 . S
H789 C798 0.930 . S
H790 C800 0.930 . S
H791 C803 0.929 . S
H792 C806 0.930 . S
H793 C808 0.960 . S
H794 C808 0.960 . S
H795 C808 0.960 . S
C796 H788 0.929 . S
C796 C797 1.377 1_655 S
C796 C798 1.384 . S
C797 C796 1.377 1_455 S
C797 C803 1.390 . S
C798 H789 0.930 . S
C798 C796 1.384 . S
C798 C799 1.372 . S
C799 C798 1.372 . S
C799 C800 1.400 1_655 S
C799 C804 1.490 . S
C800 H790 0.930 . S
C800 C799 1.400 1_455 S
C800 C803 1.386 . S
H801 C817 0.930 . S
H802 C818 0.931 . S
C803 H791 0.929 . S
C803 C797 1.390 . S
C803 C800 1.386 . S
C804 C799 1.490 . S
C804 C806 1.395 . S
C804 C807 1.403 . S
H805 C811 0.930 . S
C806 H792 0.930 . S
C806 C804 1.395 . S
C806 C809 1.403 . S
C807 C804 1.403 . S
C807 C808 1.524 . S
C807 C811 1.400 . S
C808 H793 0.960 . S
C808 H794 0.960 . S
C808 H795 0.960 . S
C808 C807 1.524 . S
C809 C806 1.403 . S
C809 C810 1.392 . S
C809 C813 1.495 1_565 S
C810 C809 1.392 . S
C810 C811 1.385 . S
C810 C812 1.478 . S
C811 H805 0.930 . S
C811 C807 1.400 . S
C811 C810 1.385 . S
C812 C810 1.478 . S
C812 C814 1.381 . S
C812 C818 1.383 . S
C813 C809 1.495 1_545 S
C813 H819 0.959 . S
C813 H820 0.961 . S
C813 H821 0.960 . S
C814 C812 1.381 . S
C814 C815 1.394 . S
C814 H822 0.930 . S
C815 C814 1.394 . S
C815 C816 1.383 . S
C815 H823 0.929 . S
C816 C815 1.383 . S
C816 C817 1.377 . S
C817 H801 0.930 . S
C817 C816 1.377 . S
C817 C818 1.379 . S
C818 H802 0.931 . S
C818 C812 1.383 . S
C818 C817 1.379 . S
H819 C813 0.959 . S
H820 C813 0.961 . S
H821 C813 0.960 . S
H822 C814 0.930 . S
H823 C815 0.929 . S
H824 C832 0.929 . S
H825 C834 0.930 . S
H826 C836 0.930 . S
H827 C839 0.929 . S
H828 C842 0.930 . S
H829 C844 0.960 . S
H830 C844 0.960 . S
H831 C844 0.960 . S
C832 H824 0.929 . S
C832 C833 1.377 . S
C832 C834 1.384 . S
C833 C832 1.377 . S
C833 C839 1.390 . S
C834 H825 0.930 . S
C834 C832 1.384 . S
C834 C835 1.372 . S
C835 C834 1.372 . S
C835 C836 1.400 . S
C835 C840 1.490 . S
C836 H826 0.930 . S
C836 C835 1.400 . S
C836 C839 1.386 . S
H837 C853 0.930 . S
H838 C854 0.931 . S
C839 H827 0.929 . S
C839 C833 1.390 . S
C839 C836 1.386 . S
C840 C835 1.490 . S
C840 C842 1.395 . S
C840 C843 1.403 . S
H841 C847 0.930 . S
C842 H828 0.930 . S
C842 C840 1.395 . S
C842 C845 1.403 . S
C843 C840 1.403 . S
C843 C844 1.524 . S
C843 C847 1.400 . S
C844 H829 0.960 . S
C844 H830 0.960 . S
C844 H831 0.960 . S
C844 C843 1.524 . S
C845 C842 1.403 . S
C845 C846 1.392 . S
C845 C849 1.495 . S
C846 C845 1.392 . S
C846 C847 1.385 . S
C846 C848 1.478 . S
C847 H841 0.930 . S
C847 C843 1.400 . S
C847 C846 1.385 . S
C848 C846 1.478 . S
C848 C850 1.381 . S
C848 C854 1.383 . S
C849 C845 1.495 . S
C849 H855 0.959 . S
C849 H856 0.961 . S
C849 H857 0.960 . S
C850 C848 1.381 . S
C850 C851 1.394 . S
C850 H858 0.930 . S
C851 C850 1.394 . S
C851 C852 1.383 . S
C851 H859 0.929 . S
C852 C851 1.383 . S
C852 C853 1.377 . S
C853 H837 0.930 . S
C853 C852 1.377 . S
C853 C854 1.379 . S
C854 H838 0.931 . S
C854 C848 1.383 . S
C854 C853 1.379 . S
H855 C849 0.959 . S
H856 C849 0.961 . S
H857 C849 0.960 . S
H858 C850 0.930 . S
H859 C851 0.929 . S
H860 C868 0.929 . S
H861 C870 0.930 . S
H862 C872 0.930 . S
H863 C875 0.929 . S
H864 C878 0.930 . S
H865 C880 0.960 . S
H866 C880 0.960 . S
H867 C880 0.960 . S
C868 H860 0.929 . S
C868 C869 1.377 . S
C868 C870 1.384 . S
C869 C868 1.377 . S
C869 C875 1.390 . S
C870 H861 0.930 . S
C870 C868 1.384 . S
C870 C871 1.372 . S
C871 C870 1.372 . S
C871 C872 1.400 . S
C871 C876 1.490 . S
C872 H862 0.930 . S
C872 C871 1.400 . S
C872 C875 1.386 . S
H873 C889 0.930 . S
H874 C890 0.931 . S
C875 H863 0.929 . S
C875 C869 1.390 . S
C875 C872 1.386 . S
C876 C871 1.490 . S
C876 C878 1.395 . S
C876 C879 1.403 . S
H877 C883 0.930 . S
C878 H864 0.930 . S
C878 C876 1.395 . S
C878 C881 1.403 . S
C879 C876 1.403 . S
C879 C880 1.524 . S
C879 C883 1.400 . S
C880 H865 0.960 . S
C880 H866 0.960 . S
C880 H867 0.960 . S
C880 C879 1.524 . S
C881 C878 1.403 . S
C881 C882 1.392 . S
C881 C885 1.495 . S
C882 C881 1.392 . S
C882 C883 1.385 . S
C882 C884 1.478 . S
C883 H877 0.930 . S
C883 C879 1.400 . S
C883 C882 1.385 . S
C884 C882 1.478 . S
C884 C886 1.381 . S
C884 C890 1.383 . S
C885 C881 1.495 . S
C885 H891 0.959 . S
C885 H892 0.961 . S
C885 H893 0.960 . S
C886 C884 1.381 . S
C886 C887 1.394 . S
C886 H894 0.930 . S
C887 C886 1.394 . S
C887 C888 1.383 . S
C887 H895 0.929 . S
C888 C887 1.383 . S
C888 C889 1.377 . S
C889 H873 0.930 . S
C889 C888 1.377 . S
C889 C890 1.379 . S
C890 H874 0.931 . S
C890 C884 1.383 . S
C890 C889 1.379 . S
H891 C885 0.959 . S
H892 C885 0.961 . S
H893 C885 0.960 . S
H894 C886 0.930 . S
H895 C887 0.929 . S
H896 C904 0.929 . S
H897 C906 0.930 . S
H898 C908 0.930 . S
H899 C911 0.929 . S
H900 C914 0.930 . S
H901 C916 0.960 . S
H902 C916 0.960 . S
H903 C916 0.960 . S
C904 H896 0.929 . S
C904 C905 1.377 . S
C904 C906 1.384 . S
C905 C904 1.377 . S
C905 C911 1.390 . S
C906 H897 0.930 . S
C906 C904 1.384 . S
C906 C907 1.372 . S
C907 C906 1.372 . S
C907 C908 1.400 . S
C907 C912 1.490 . S
C908 H898 0.930 . S
C908 C907 1.400 . S
C908 C911 1.386 . S
H909 C925 0.930 . S
H910 C926 0.931 . S
C911 H899 0.929 . S
C911 C905 1.390 . S
C911 C908 1.386 . S
C912 C907 1.490 . S
C912 C914 1.395 . S
C912 C915 1.403 . S
H913 C919 0.930 . S
C914 H900 0.930 . S
C914 C912 1.395 . S
C914 C917 1.403 . S
C915 C912 1.403 . S
C915 C916 1.524 . S
C915 C919 1.400 . S
C916 H901 0.960 . S
C916 H902 0.960 . S
C916 H903 0.960 . S
C916 C915 1.524 . S
C917 C914 1.403 . S
C917 C918 1.392 . S
C917 C921 1.495 . S
C918 C917 1.392 . S
C918 C919 1.385 . S
C918 C920 1.478 . S
C919 H913 0.930 . S
C919 C915 1.400 . S
C919 C918 1.385 . S
C920 C918 1.478 . S
C920 C922 1.381 . S
C920 C926 1.383 . S
C921 C917 1.495 . S
C921 H927 0.959 . S
C921 H928 0.961 . S
C921 H929 0.960 . S
C922 C920 1.381 . S
C922 C923 1.394 . S
C922 H930 0.930 . S
C923 C922 1.394 . S
C923 C924 1.383 . S
C923 H931 0.929 . S
C924 C923 1.383 . S
C924 C925 1.377 . S
C925 H909 0.930 . S
C925 C924 1.377 . S
C925 C926 1.379 . S
C926 H910 0.931 . S
C926 C920 1.383 . S
C926 C925 1.379 . S
H927 C921 0.959 . S
H928 C921 0.961 . S
H929 C921 0.960 . S
H930 C922 0.930 . S
H931 C923 0.929 . S
H932 C940 0.929 . S
H933 C942 0.930 1_545 S
H934 C944 0.930 . S
H935 C947 0.929 . S
H936 C950 0.959 . S
H937 C952 0.960 . S
H938 C952 0.960 . S
H939 C952 0.960 . S
C940 H932 0.929 . S
C940 C941 1.377 . S
C940 C942 1.384 . S
C941 C940 1.377 . S
C941 C947 1.390 . S
C942 H933 0.930 1_565 S
C942 C940 1.384 . S
C942 C943 1.372 . S
C943 C942 1.372 . S
C943 C944 1.400 . S
C943 C948 1.490 . S
C944 H934 0.930 . S
C944 C943 1.400 . S
C944 C947 1.386 . S
H945 C961 0.930 . S
H946 C962 0.931 . S
C947 H935 0.929 . S
C947 C941 1.390 . S
C947 C944 1.386 . S
C948 C943 1.490 . S
C948 C950 1.395 . S
C948 C951 1.403 . S
H949 C955 0.930 . S
C950 H936 0.959 . S
C950 C948 1.395 . S
C950 C953 1.403 . S
C951 C948 1.403 . S
C951 C952 1.524 . S
C951 C955 1.400 . S
C952 H937 0.960 . S
C952 H938 0.960 . S
C952 H939 0.960 . S
C952 C951 1.524 . S
C953 C950 1.403 . S
C953 C954 1.392 . S
C953 C957 1.495 1_565 S
C954 C953 1.392 . S
C954 C955 1.385 . S
C954 C956 1.478 . S
C955 H949 0.930 . S
C955 C951 1.400 . S
C955 C954 1.385 . S
C956 C954 1.478 . S
C956 C958 1.381 1_565 S
C956 C962 1.383 . S
C957 C953 1.495 1_545 S
C957 H963 0.959 . S
C957 H964 0.961 . S
C957 H965 0.960 . S
C958 C956 1.381 1_545 S
C958 C959 1.394 . S
C958 H966 0.930 . S
C959 C958 1.394 . S
C959 C960 1.383 1_545 S
C959 H967 0.929 . S
C960 C959 1.383 1_565 S
C960 C961 1.377 . S
C961 H945 0.930 . S
C961 C960 1.377 . S
C961 C962 1.379 . S
C962 H946 0.931 . S
C962 C956 1.383 . S
C962 C961 1.379 . S
H963 C957 0.959 . S
H964 C957 0.961 . S
H965 C957 0.960 . S
H966 C958 0.930 . S
H967 C959 0.929 . S
H968 C976 0.929 . S
H969 C978 0.930 . S
H970 C980 0.930 . S
H971 C983 0.929 . S
H972 C986 0.930 . S
H973 C988 0.960 . S
H974 C988 0.960 . S
H975 C988 0.960 . S
C976 H968 0.929 . S
C976 C977 1.377 . S
C976 C978 1.384 . S
C977 C976 1.377 . S
C977 C983 1.390 . S
C978 H969 0.930 . S
C978 C976 1.384 . S
C978 C979 1.372 . S
C979 C978 1.372 . S
C979 C980 1.400 . S
C979 C984 1.490 . S
C980 H970 0.930 . S
C980 C979 1.400 . S
C980 C983 1.386 . S
H981 C997 0.930 . S
H982 C998 0.931 . S
C983 H971 0.929 . S
C983 C977 1.390 . S
C983 C980 1.386 . S
C984 C979 1.490 . S
C984 C986 1.395 . S
C984 C987 1.403 . S
H985 C991 0.930 . S
C986 H972 0.930 . S
C986 C984 1.395 . S
C986 C989 1.403 . S
C987 C984 1.403 . S
C987 C988 1.524 . S
C987 C991 1.400 . S
C988 H973 0.960 . S
C988 H974 0.960 . S
C988 H975 0.960 . S
C988 C987 1.524 . S
C989 C986 1.403 . S
C989 C990 1.392 . S
C989 C993 1.495 . S
C990 C989 1.392 . S
C990 C991 1.385 . S
C990 C992 1.478 . S
C991 H985 0.930 . S
C991 C987 1.400 . S
C991 C990 1.385 . S
C992 C990 1.478 . S
C992 C994 1.381 . S
C992 C998 1.383 . S
C993 C989 1.495 . S
C993 H999 0.959 . S
C993 H1000 0.961 . S
C993 H1001 0.960 . S
C994 C992 1.381 . S
C994 C995 1.394 . S
C994 H1002 0.930 . S
C995 C994 1.394 . S
C995 C996 1.383 . S
C995 H1003 0.929 . S
C996 C995 1.383 . S
C996 C997 1.377 . S
C997 H981 0.930 . S
C997 C996 1.377 . S
C997 C998 1.379 . S
C998 H982 0.931 . S
C998 C992 1.383 . S
C998 C997 1.379 . S
H999 C993 0.959 . S
H1000 C993 0.961 . S
H1001 C993 0.960 . S
H1002 C994 0.930 . S
H1003 C995 0.929 . S
H1004 C1012 0.929 . S
H1005 C1014 0.930 . S
H1006 C1016 0.930 . S
H1007 C1019 0.929 . S
H1008 C1022 0.930 . S
H1009 C1024 0.960 . S
H1010 C1024 0.960 . S
H1011 C1024 0.960 . S
C1012 H1004 0.929 . S
C1012 C1013 1.377 . S
C1012 C1014 1.384 . S
C1013 C1012 1.377 . S
C1013 C1019 1.390 . S
C1014 H1005 0.930 . S
C1014 C1012 1.384 . S
C1014 C1015 1.372 . S
C1015 C1014 1.372 . S
C1015 C1016 1.400 . S
C1015 C1020 1.490 . S
C1016 H1006 0.930 . S
C1016 C1015 1.400 . S
C1016 C1019 1.386 . S
H1017 C1033 0.930 . S
H1018 C1034 0.931 . S
C1019 H1007 0.929 . S
C1019 C1013 1.390 . S
C1019 C1016 1.386 . S
C1020 C1015 1.490 . S
C1020 C1022 1.395 . S
C1020 C1023 1.403 . S
H1021 C1027 0.930 . S
C1022 H1008 0.930 . S
C1022 C1020 1.395 . S
C1022 C1025 1.403 . S
C1023 C1020 1.403 . S
C1023 C1024 1.524 . S
C1023 C1027 1.400 . S
C1024 H1009 0.960 . S
C1024 H1010 0.960 . S
C1024 H1011 0.960 . S
C1024 C1023 1.524 . S
C1025 C1022 1.403 . S
C1025 C1026 1.392 . S
C1025 C1029 1.495 . S
C1026 C1025 1.392 . S
C1026 C1027 1.385 . S
C1026 C1028 1.478 . S
C1027 H1021 0.930 . S
C1027 C1023 1.400 . S
C1027 C1026 1.385 . S
C1028 C1026 1.478 . S
C1028 C1030 1.381 . S
C1028 C1034 1.383 . S
C1029 C1025 1.495 . S
C1029 H1035 0.959 . S
C1029 H1036 0.961 . S
C1029 H1037 0.960 . S
C1030 C1028 1.381 . S
C1030 C1031 1.394 . S
C1030 H1038 0.930 . S
C1031 C1030 1.394 . S
C1031 C1032 1.383 . S
C1031 H1039 0.929 . S
C1032 C1031 1.383 . S
C1032 C1033 1.377 . S
C1033 H1017 0.930 . S
C1033 C1032 1.377 . S
C1033 C1034 1.379 . S
C1034 H1018 0.931 . S
C1034 C1028 1.383 . S
C1034 C1033 1.379 . S
H1035 C1029 0.959 . S
H1036 C1029 0.961 . S
H1037 C1029 0.960 . S
H1038 C1030 0.930 . S
H1039 C1031 0.929 . S
H1040 C1048 0.929 . S
H1041 C1050 0.930 . S
H1042 C1052 0.930 . S
H1043 C1055 0.929 . S
H1044 C1058 0.930 . S
H1045 C1060 0.960 . S
H1046 C1060 0.960 . S
H1047 C1060 0.960 . S
C1048 H1040 0.929 . S
C1048 C1049 1.377 . S
C1048 C1050 1.384 . S
C1049 C1048 1.377 . S
C1049 C1055 1.390 . S
C1050 H1041 0.930 . S
C1050 C1048 1.384 . S
C1050 C1051 1.372 . S
C1051 C1050 1.372 . S
C1051 C1052 1.400 . S
C1051 C1056 1.490 . S
C1052 H1042 0.930 . S
C1052 C1051 1.400 . S
C1052 C1055 1.386 . S
H1053 C1069 0.930 . S
H1054 C1070 0.931 . S
C1055 H1043 0.929 . S
C1055 C1049 1.390 . S
C1055 C1052 1.386 . S
C1056 C1051 1.490 . S
C1056 C1058 1.395 . S
C1056 C1059 1.403 . S
H1057 C1063 0.930 . S
C1058 H1044 0.930 . S
C1058 C1056 1.395 . S
C1058 C1061 1.403 . S
C1059 C1056 1.403 . S
C1059 C1060 1.524 . S
C1059 C1063 1.400 . S
C1060 H1045 0.960 . S
C1060 H1046 0.960 . S
C1060 H1047 0.960 . S
C1060 C1059 1.524 . S
C1061 C1058 1.403 . S
C1061 C1062 1.392 . S
C1061 C1065 1.495 . S
C1062 C1061 1.392 . S
C1062 C1063 1.385 . S
C1062 C1064 1.478 . S
C1063 H1057 0.930 . S
C1063 C1059 1.400 . S
C1063 C1062 1.385 . S
C1064 C1062 1.478 . S
C1064 C1066 1.381 . S
C1064 C1070 1.383 . S
C1065 C1061 1.495 . S
C1065 H1071 0.959 . S
C1065 H1072 0.961 . S
C1065 H1073 0.960 . S
C1066 C1064 1.381 . S
C1066 C1067 1.394 . S
C1066 H1074 0.930 . S
C1067 C1066 1.394 . S
C1067 C1068 1.383 . S
C1067 H1075 0.929 . S
C1068 C1067 1.383 . S
C1068 C1069 1.377 . S
C1069 H1053 0.930 . S
C1069 C1068 1.377 . S
C1069 C1070 1.379 . S
C1070 H1054 0.931 . S
C1070 C1064 1.383 . S
C1070 C1069 1.379 . S
H1071 C1065 0.959 . S
H1072 C1065 0.961 . S
H1073 C1065 0.960 . S
H1074 C1066 0.930 . S
H1075 C1067 0.929 . S
H1076 C1084 0.929 . S
H1077 C1086 0.930 . S
H1078 C1088 0.930 . S
H1079 C1091 0.929 . S
H1080 C1094 0.930 . S
H1081 C1096 0.960 . S
H1082 C1096 0.960 . S
H1083 C1096 0.960 . S
C1084 H1076 0.929 . S
C1084 C1085 1.377 . S
C1084 C1086 1.384 . S
C1085 C1084 1.377 . S
C1085 C1091 1.390 . S
C1086 H1077 0.930 . S
C1086 C1084 1.384 . S
C1086 C1087 1.372 . S
C1087 C1086 1.372 . S
C1087 C1088 1.400 . S
C1087 C1092 1.490 . S
C1088 H1078 0.930 . S
C1088 C1087 1.400 . S
C1088 C1091 1.386 . S
H1089 C1105 0.930 . S
H1090 C1106 0.931 . S
C1091 H1079 0.929 . S
C1091 C1085 1.390 . S
C1091 C1088 1.386 . S
C1092 C1087 1.490 . S
C1092 C1094 1.395 . S
C1092 C1095 1.403 . S
H1093 C1099 0.930 . S
C1094 H1080 0.930 . S
C1094 C1092 1.395 . S
C1094 C1097 1.403 . S
C1095 C1092 1.403 . S
C1095 C1096 1.524 . S
C1095 C1099 1.400 . S
C1096 H1081 0.960 . S
C1096 H1082 0.960 . S
C1096 H1083 0.960 . S
C1096 C1095 1.524 . S
C1097 C1094 1.403 . S
C1097 C1098 1.392 . S
C1097 C1101 1.495 . S
C1098 C1097 1.392 . S
C1098 C1099 1.385 . S
C1098 C1100 1.478 . S
C1099 H1093 0.930 . S
C1099 C1095 1.400 . S
C1099 C1098 1.385 . S
C1100 C1098 1.478 . S
C1100 C1102 1.381 . S
C1100 C1106 1.383 . S
C1101 C1097 1.495 . S
C1101 H1107 0.959 . S
C1101 H1108 0.961 . S
C1101 H1109 0.960 . S
C1102 C1100 1.381 . S
C1102 C1103 1.394 . S
C1102 H1110 0.930 . S
C1103 C1102 1.394 . S
C1103 C1104 1.383 . S
C1103 H1111 0.929 . S
C1104 C1103 1.383 . S
C1104 C1105 1.377 . S
C1105 H1089 0.930 . S
C1105 C1104 1.377 . S
C1105 C1106 1.379 . S
C1106 H1090 0.931 . S
C1106 C1100 1.383 . S
C1106 C1105 1.379 . S
H1107 C1101 0.959 . S
H1108 C1101 0.961 . S
H1109 C1101 0.960 . S
H1110 C1102 0.930 . S
H1111 C1103 0.929 . S
H1112 C1120 0.929 . S
H1113 C1122 0.930 . S
H1114 C1124 0.930 . S
H1115 C1127 0.929 . S
H1116 C1130 0.930 . S
H1117 C1132 0.960 . S
H1118 C1132 0.960 . S
H1119 C1132 0.960 . S
C1120 H1112 0.929 . S
C1120 C1121 1.377 . S
C1120 C1122 1.384 . S
C1121 C1120 1.377 . S
C1121 C1127 1.390 . S
C1122 H1113 0.930 . S
C1122 C1120 1.384 . S
C1122 C1123 1.372 . S
C1123 C1122 1.372 . S
C1123 C1124 1.400 . S
C1123 C1128 1.490 . S
C1124 H1114 0.930 . S
C1124 C1123 1.400 . S
C1124 C1127 1.386 . S
H1125 C1141 0.930 . S
H1126 C1142 0.931 . S
C1127 H1115 0.929 . S
C1127 C1121 1.390 . S
C1127 C1124 1.386 . S
C1128 C1123 1.490 . S
C1128 C1130 1.395 . S
C1128 C1131 1.403 . S
H1129 C1135 0.930 . S
C1130 H1116 0.930 . S
C1130 C1128 1.395 . S
C1130 C1133 1.403 . S
C1131 C1128 1.403 . S
C1131 C1132 1.524 . S
C1131 C1135 1.400 . S
C1132 H1117 0.960 . S
C1132 H1118 0.960 . S
C1132 H1119 0.960 . S
C1132 C1131 1.524 . S
C1133 C1130 1.403 . S
C1133 C1134 1.392 . S
C1133 C1137 1.495 . S
C1134 C1133 1.392 . S
C1134 C1135 1.385 . S
C1134 C1136 1.478 . S
C1135 H1129 0.930 . S
C1135 C1131 1.400 . S
C1135 C1134 1.385 . S
C1136 C1134 1.478 . S
C1136 C1138 1.381 . S
C1136 C1142 1.383 . S
C1137 C1133 1.495 . S
C1137 H1143 0.959 . S
C1137 H1144 0.961 . S
C1137 H1145 0.960 . S
C1138 C1136 1.381 . S
C1138 C1139 1.394 . S
C1138 H1146 0.930 . S
C1139 C1138 1.394 . S
C1139 C1140 1.383 . S
C1139 H1147 0.929 . S
C1140 C1139 1.383 . S
C1140 C1141 1.377 . S
C1141 H1125 0.930 . S
C1141 C1140 1.377 . S
C1141 C1142 1.379 . S
C1142 H1126 0.931 . S
C1142 C1136 1.383 . S
C1142 C1141 1.379 . S
H1143 C1137 0.959 . S
H1144 C1137 0.961 . S
H1145 C1137 0.960 . S
H1146 C1138 0.930 . S
H1147 C1139 0.929 . S
H1148 C1156 0.929 . S
H1149 C1158 0.930 . S
H1150 C1160 0.930 . S
H1151 C1163 0.929 . S
H1152 C1166 0.930 . S
H1153 C1168 0.960 . S
H1154 C1168 0.960 . S
H1155 C1168 0.960 . S
C1156 H1148 0.929 . S
C1156 C1157 1.377 . S
C1156 C1158 1.384 . S
C1157 C1156 1.377 . S
C1157 C1163 1.390 . S
C1158 H1149 0.930 . S
C1158 C1156 1.384 . S
C1158 C1159 1.372 . S
C1159 C1158 1.372 . S
C1159 C1160 1.400 . S
C1159 C1164 1.490 . S
C1160 H1150 0.930 . S
C1160 C1159 1.400 . S
C1160 C1163 1.386 . S
H1161 C1177 0.885 1_655 S
H1162 C1178 0.931 1_655 S
C1163 H1151 0.929 . S
C1163 C1157 1.390 . S
C1163 C1160 1.386 . S
C1164 C1159 1.490 . S
C1164 C1166 1.395 . S
C1164 C1167 1.403 . S
H1165 C1171 0.930 . S
C1166 H1152 0.930 . S
C1166 C1164 1.395 . S
C1166 C1169 1.403 . S
C1167 C1164 1.403 . S
C1167 C1168 1.524 . S
C1167 C1171 1.400 . S
C1168 H1153 0.960 . S
C1168 H1154 0.960 . S
C1168 H1155 0.960 . S
C1168 C1167 1.524 . S
C1169 C1166 1.403 . S
C1169 C1170 1.392 . S
C1169 C1173 1.495 . S
C1170 C1169 1.392 . S
C1170 C1171 1.385 . S
C1170 C1172 1.478 . S
C1171 H1165 0.930 . S
C1171 C1167 1.400 . S
C1171 C1170 1.385 . S
C1172 C1170 1.478 . S
C1172 C1174 1.381 . S
C1172 C1178 1.383 . S
C1173 C1169 1.495 . S
C1173 H1179 0.959 . S
C1173 H1180 0.961 . S
C1173 H1181 0.960 . S
C1174 C1172 1.381 . S
C1174 C1175 1.394 . S
C1174 H1182 0.930 . S
C1175 C1174 1.394 . S
C1175 C1176 1.383 . S
C1175 H1183 0.929 . S
C1176 C1175 1.383 . S
C1176 C1177 1.412 . S
C1177 H1161 0.885 1_455 S
C1177 C1176 1.412 . S
C1177 C1178 1.390 . S
C1178 H1162 0.931 1_455 S
C1178 C1172 1.383 . S
C1178 C1177 1.390 . S
H1179 C1173 0.959 . S
H1180 C1173 0.961 . S
H1181 C1173 0.960 . S
H1182 C1174 0.930 . S
H1183 C1175 0.929 . S
H1184 C1192 0.929 . S
H1185 C1194 0.930 . S
H1186 C1196 0.930 . S
H1187 C1199 0.929 . S
H1188 C1202 0.930 . S
H1189 C1204 0.960 . S
H1190 C1204 0.960 . S
H1191 C1204 0.960 . S
C1192 H1184 0.929 . S
C1192 C1193 1.377 . S
C1192 C1194 1.384 . S
C1193 C1192 1.377 . S
C1193 C1199 1.390 . S
C1194 H1185 0.930 . S
C1194 C1192 1.384 . S
C1194 C1195 1.372 . S
C1195 C1194 1.372 . S
C1195 C1196 1.400 . S
C1195 C1200 1.490 . S
C1196 H1186 0.930 . S
C1196 C1195 1.400 . S
C1196 C1199 1.386 . S
H1197 C1213 0.930 . S
H1198 C1214 0.931 . S
C1199 H1187 0.929 . S
C1199 C1193 1.390 . S
C1199 C1196 1.386 . S
C1200 C1195 1.490 . S
C1200 C1202 1.395 . S
C1200 C1203 1.403 . S
H1201 C1207 0.930 . S
C1202 H1188 0.930 . S
C1202 C1200 1.395 . S
C1202 C1205 1.403 . S
C1203 C1200 1.403 . S
C1203 C1204 1.524 . S
C1203 C1207 1.400 . S
C1204 H1189 0.960 . S
C1204 H1190 0.960 . S
C1204 H1191 0.960 . S
C1204 C1203 1.524 . S
C1205 C1202 1.403 . S
C1205 C1206 1.392 . S
C1205 C1209 1.495 . S
C1206 C1205 1.392 . S
C1206 C1207 1.385 . S
C1206 C1208 1.478 . S
C1207 H1201 0.930 . S
C1207 C1203 1.400 . S
C1207 C1206 1.385 . S
C1208 C1206 1.478 . S
C1208 C1210 1.381 . S
C1208 C1214 1.383 . S
C1209 C1205 1.495 . S
C1209 H1215 0.959 . S
C1209 H1216 0.961 . S
C1209 H1217 0.960 . S
C1210 C1208 1.381 . S
C1210 C1211 1.394 . S
C1210 H1218 0.930 . S
C1211 C1210 1.394 . S
C1211 C1212 1.383 . S
C1211 H1219 0.929 . S
C1212 C1211 1.383 . S
C1212 C1213 1.377 . S
C1213 H1197 0.930 . S
C1213 C1212 1.377 . S
C1213 C1214 1.379 . S
C1214 H1198 0.931 . S
C1214 C1208 1.383 . S
C1214 C1213 1.379 . S
H1215 C1209 0.959 . S
H1216 C1209 0.961 . S
H1217 C1209 0.960 . S
H1218 C1210 0.930 . S
H1219 C1211 0.929 . S
H1220 C1228 0.929 . S
H1221 C1230 0.930 . S
H1222 C1232 0.930 . S
H1223 C1235 0.929 . S
H1224 C1238 0.930 . S
H1225 C1240 0.960 . S
H1226 C1240 0.960 . S
H1227 C1240 0.960 . S
C1228 H1220 0.929 . S
C1228 C1229 1.377 . S
C1228 C1230 1.384 . S
C1229 C1228 1.377 . S
C1229 C1235 1.390 . S
C1230 H1221 0.930 . S
C1230 C1228 1.384 . S
C1230 C1231 1.372 . S
C1231 C1230 1.372 . S
C1231 C1232 1.400 . S
C1231 C1236 1.490 . S
C1232 H1222 0.930 . S
C1232 C1231 1.400 . S
C1232 C1235 1.386 . S
H1233 C1249 0.930 . S
H1234 C1250 0.931 . S
C1235 H1223 0.929 . S
C1235 C1229 1.390 . S
C1235 C1232 1.386 . S
C1236 C1231 1.490 . S
C1236 C1238 1.395 . S
C1236 C1239 1.403 . S
H1237 C1243 0.930 1_455 S
C1238 H1224 0.930 . S
C1238 C1236 1.395 . S
C1238 C1241 1.403 . S
C1239 C1236 1.403 . S
C1239 C1240 1.524 1_655 S
C1239 C1243 1.400 . S
C1240 H1225 0.960 . S
C1240 H1226 0.960 . S
C1240 H1227 0.960 . S
C1240 C1239 1.524 1_455 S
C1241 C1238 1.403 . S
C1241 C1242 1.392 . S
C1241 C1245 1.495 . S
C1242 C1241 1.392 . S
C1242 C1243 1.385 . S
C1242 C1244 1.478 . S
C1243 H1237 0.930 1_655 S
C1243 C1239 1.400 . S
C1243 C1242 1.385 . S
C1244 C1242 1.478 . S
C1244 C1246 1.381 . S
C1244 C1250 1.383 . S
C1245 C1241 1.495 . S
C1245 H1251 0.959 . S
C1245 H1252 0.961 . S
C1245 H1253 0.960 . S
C1246 C1244 1.381 . S
C1246 C1247 1.394 . S
C1246 H1254 0.930 . S
C1247 C1246 1.394 . S
C1247 C1248 1.383 . S
C1247 H1255 0.929 . S
C1248 C1247 1.383 . S
C1248 C1249 1.377 . S
C1249 H1233 0.930 . S
C1249 C1248 1.377 . S
C1249 C1250 1.379 . S
C1250 H1234 0.931 . S
C1250 C1244 1.383 . S
C1250 C1249 1.379 . S
H1251 C1245 0.959 . S
H1252 C1245 0.961 . S
H1253 C1245 0.960 . S
H1254 C1246 0.930 . S
H1255 C1247 0.929 . S
H1256 C1264 0.929 . S
H1257 C1266 0.930 . S
H1258 C1268 0.930 . S
H1259 C1271 0.929 . S
H1260 C1274 0.930 . S
H1261 C1276 0.960 . S
H1262 C1276 0.960 . S
H1263 C1276 0.960 . S
C1264 H1256 0.929 . S
C1264 C1265 1.377 . S
C1264 C1266 1.384 . S
C1265 C1264 1.377 . S
C1265 C1271 1.390 . S
C1266 H1257 0.930 . S
C1266 C1264 1.384 . S
C1266 C1267 1.372 . S
C1267 C1266 1.372 . S
C1267 C1268 1.400 . S
C1267 C1272 1.490 . S
C1268 H1258 0.930 . S
C1268 C1267 1.400 . S
C1268 C1271 1.386 . S
H1269 C1285 0.930 . S
H1270 C1286 0.931 . S
C1271 H1259 0.929 . S
C1271 C1265 1.390 . S
C1271 C1268 1.386 . S
C1272 C1267 1.490 . S
C1272 C1274 1.395 . S
C1272 C1275 1.403 . S
H1273 C1279 0.930 . S
C1274 H1260 0.930 . S
C1274 C1272 1.395 . S
C1274 C1277 1.403 . S
C1275 C1272 1.403 . S
C1275 C1276 1.524 . S
C1275 C1279 1.400 . S
C1276 H1261 0.960 . S
C1276 H1262 0.960 . S
C1276 H1263 0.960 . S
C1276 C1275 1.524 . S
C1277 C1274 1.403 . S
C1277 C1278 1.392 . S
C1277 C1281 1.495 . S
C1278 C1277 1.392 . S
C1278 C1279 1.385 . S
C1278 C1280 1.478 . S
C1279 H1273 0.930 . S
C1279 C1275 1.400 . S
C1279 C1278 1.385 . S
C1280 C1278 1.478 . S
C1280 C1282 1.381 . S
C1280 C1286 1.383 . S
C1281 C1277 1.495 . S
C1281 H1287 0.959 . S
C1281 H1288 0.961 . S
C1281 H1289 0.960 . S
C1282 C1280 1.381 . S
C1282 C1283 1.394 . S
C1282 H1290 0.930 . S
C1283 C1282 1.394 . S
C1283 C1284 1.383 . S
C1283 H1291 0.929 . S
C1284 C1283 1.383 . S
C1284 C1285 1.377 . S
C1285 H1269 0.930 . S
C1285 C1284 1.377 . S
C1285 C1286 1.379 . S
C1286 H1270 0.931 . S
C1286 C1280 1.383 . S
C1286 C1285 1.379 . S
H1287 C1281 0.959 . S
H1288 C1281 0.961 . S
H1289 C1281 0.960 . S
H1290 C1282 0.930 . S
H1291 C1283 0.929 . S
H1292 C1300 0.929 . S
H1293 C1302 0.930 . S
H1294 C1304 0.930 . S
H1295 C1307 0.929 . S
H1296 C1310 0.930 . S
H1297 C1312 0.960 . S
H1298 C1312 0.960 . S
H1299 C1312 0.960 . S
C1300 H1292 0.929 . S
C1300 C1301 1.377 . S
C1300 C1302 1.384 . S
C1301 C1300 1.377 . S
C1301 C1307 1.390 . S
C1302 H1293 0.930 . S
C1302 C1300 1.384 . S
C1302 C1303 1.372 . S
C1303 C1302 1.372 . S
C1303 C1304 1.400 . S
C1303 C1308 1.490 . S
C1304 H1294 0.930 . S
C1304 C1303 1.400 . S
C1304 C1307 1.386 . S
H1305 C1321 0.930 . S
H1306 C1322 0.931 . S
C1307 H1295 0.929 . S
C1307 C1301 1.390 . S
C1307 C1304 1.386 . S
C1308 C1303 1.490 . S
C1308 C1310 1.395 . S
C1308 C1311 1.403 . S
H1309 C1315 0.930 . S
C1310 H1296 0.930 . S
C1310 C1308 1.395 . S
C1310 C1313 1.403 . S
C1311 C1308 1.403 . S
C1311 C1312 1.524 . S
C1311 C1315 1.400 . S
C1312 H1297 0.960 . S
C1312 H1298 0.960 . S
C1312 H1299 0.960 . S
C1312 C1311 1.524 . S
C1313 C1310 1.403 . S
C1313 C1314 1.392 . S
C1313 C1317 1.495 . S
C1314 C1313 1.392 . S
C1314 C1315 1.385 . S
C1314 C1316 1.478 . S
C1315 H1309 0.930 . S
C1315 C1311 1.400 . S
C1315 C1314 1.385 . S
C1316 C1314 1.478 . S
C1316 C1318 1.381 . S
C1316 C1322 1.383 . S
C1317 C1313 1.495 . S
C1317 H1323 0.959 . S
C1317 H1324 0.961 . S
C1317 H1325 0.960 . S
C1318 C1316 1.381 . S
C1318 C1319 1.394 . S
C1318 H1326 0.930 . S
C1319 C1318 1.394 . S
C1319 C1320 1.383 . S
C1319 H1327 0.929 . S
C1320 C1319 1.383 . S
C1320 C1321 1.377 . S
C1321 H1305 0.930 . S
C1321 C1320 1.377 . S
C1321 C1322 1.379 . S
C1322 H1306 0.931 . S
C1322 C1316 1.383 . S
C1322 C1321 1.379 . S
H1323 C1317 0.959 . S
H1324 C1317 0.961 . S
H1325 C1317 0.960 . S
H1326 C1318 0.930 . S
H1327 C1319 0.929 . S
H1328 C1336 0.929 . S
H1329 C1338 0.930 . S
H1330 C1340 0.930 . S
H1331 C1343 0.929 . S
H1332 C1346 0.930 . S
H1333 C1348 0.960 1_554 S
H1334 C1348 0.960 1_554 S
H1335 C1348 0.960 . S
C1336 H1328 0.929 . S
C1336 C1337 1.377 . S
C1336 C1338 1.384 . S
C1337 C1336 1.377 . S
C1337 C1343 1.390 1_545 S
C1338 H1329 0.930 . S
C1338 C1336 1.384 . S
C1338 C1339 1.372 1_545 S
C1339 C1338 1.372 1_565 S
C1339 C1340 1.400 . S
C1339 C1344 1.490 . S
C1340 H1330 0.930 . S
C1340 C1339 1.400 . S
C1340 C1343 1.386 . S
H1341 C1357 0.930 . S
H1342 C1358 0.931 . S
C1343 H1331 0.929 . S
C1343 C1337 1.390 1_565 S
C1343 C1340 1.386 . S
C1344 C1339 1.490 . S
C1344 C1346 1.395 . S
C1344 C1347 1.403 . S
H1345 C1351 0.930 . S
C1346 H1332 0.930 . S
C1346 C1344 1.395 . S
C1346 C1349 1.403 . S
C1347 C1344 1.403 . S
C1347 C1348 1.524 . S
C1347 C1351 1.400 . S
C1348 H1333 0.960 1_556 S
C1348 H1334 0.960 1_556 S
C1348 H1335 0.960 . S
C1348 C1347 1.524 . S
C1349 C1346 1.403 . S
C1349 C1350 1.392 . S
C1349 C1353 1.495 . S
C1350 C1349 1.392 . S
C1350 C1351 1.385 . S
C1350 C1352 1.478 . S
C1351 H1345 0.930 . S
C1351 C1347 1.400 . S
C1351 C1350 1.385 . S
C1352 C1350 1.478 . S
C1352 C1354 1.381 . S
C1352 C1358 1.383 . S
C1353 C1349 1.495 . S
C1353 H1359 0.959 . S
C1353 H1360 0.961 . S
C1353 H1361 0.960 . S
C1354 C1352 1.381 . S
C1354 C1355 1.394 . S
C1354 H1362 0.930 . S
C1355 C1354 1.394 . S
C1355 C1356 1.383 . S
C1355 H1363 0.929 . S
C1356 C1355 1.383 . S
C1356 C1357 1.377 . S
C1357 H1341 0.930 . S
C1357 C1356 1.377 . S
C1357 C1358 1.379 . S
C1358 H1342 0.931 . S
C1358 C1352 1.383 . S
C1358 C1357 1.379 . S
H1359 C1353 0.959 . S
H1360 C1353 0.961 . S
H1361 C1353 0.960 . S
H1362 C1354 0.930 . S
H1363 C1355 0.929 . S
H1364 C1372 0.929 . S
H1365 C1374 0.930 . S
H1366 C1376 0.930 . S
H1367 C1379 0.929 . S
H1368 C1382 0.930 . S
H1369 C1384 0.960 . S
H1370 C1384 0.960 . S
H1371 C1384 0.960 . S
C1372 H1364 0.929 . S
C1372 C1373 1.377 . S
C1372 C1374 1.384 . S
C1373 C1372 1.377 . S
C1373 C1379 1.390 . S
C1374 H1365 0.930 . S
C1374 C1372 1.384 . S
C1374 C1375 1.372 . S
C1375 C1374 1.372 . S
C1375 C1376 1.400 . S
C1375 C1380 1.490 . S
C1376 H1366 0.930 . S
C1376 C1375 1.400 . S
C1376 C1379 1.386 . S
H1377 C1393 0.930 . S
H1378 C1394 0.931 . S
C1379 H1367 0.929 . S
C1379 C1373 1.390 . S
C1379 C1376 1.386 . S
C1380 C1375 1.490 . S
C1380 C1382 1.395 . S
C1380 C1383 1.403 . S
H1381 C1387 0.930 . S
C1382 H1368 0.930 . S
C1382 C1380 1.395 . S
C1382 C1385 1.403 . S
C1383 C1380 1.403 . S
C1383 C1384 1.524 . S
C1383 C1387 1.400 . S
C1384 H1369 0.960 . S
C1384 H1370 0.960 . S
C1384 H1371 0.960 . S
C1384 C1383 1.524 . S
C1385 C1382 1.403 . S
C1385 C1386 1.392 . S
C1385 C1389 1.495 . S
C1386 C1385 1.392 . S
C1386 C1387 1.385 . S
C1386 C1388 1.478 . S
C1387 H1381 0.930 . S
C1387 C1383 1.400 . S
C1387 C1386 1.385 . S
C1388 C1386 1.478 . S
C1388 C1390 1.381 . S
C1388 C1394 1.383 . S
C1389 C1385 1.495 . S
C1389 H1395 0.959 . S
C1389 H1396 0.961 . S
C1389 H1397 0.960 . S
C1390 C1388 1.381 . S
C1390 C1391 1.394 . S
C1390 H1398 0.930 . S
C1391 C1390 1.394 . S
C1391 C1392 1.383 . S
C1391 H1399 0.929 . S
C1392 C1391 1.383 . S
C1392 C1393 1.377 . S
C1393 H1377 0.930 . S
C1393 C1392 1.377 . S
C1393 C1394 1.379 . S
C1394 H1378 0.931 . S
C1394 C1388 1.383 . S
C1394 C1393 1.379 . S
H1395 C1389 0.959 . S
H1396 C1389 0.961 . S
H1397 C1389 0.960 . S
H1398 C1390 0.930 . S
H1399 C1391 0.929 . S
H1400 C1408 0.929 . S
H1401 C1410 0.930 . S
H1402 C1412 0.930 . S
H1403 C1415 0.929 . S
H1404 C1418 0.930 . S
H1405 C1420 0.960 . S
H1406 C1420 0.960 . S
H1407 C1420 0.960 . S
C1408 H1400 0.929 . S
C1408 C1409 1.377 1_545 S
C1408 C1410 1.384 . S
C1409 C1408 1.377 1_565 S
C1409 C1415 1.390 . S
C1410 H1401 0.930 . S
C1410 C1408 1.384 . S
C1410 C1411 1.372 . S
C1411 C1410 1.372 . S
C1411 C1412 1.400 . S
C1411 C1416 1.490 . S
C1412 H1402 0.930 . S
C1412 C1411 1.400 . S
C1412 C1415 1.386 1_545 S
H1413 C1429 0.930 . S
H1414 C1430 0.931 . S
C1415 H1403 0.929 . S
C1415 C1409 1.390 . S
C1415 C1412 1.386 1_565 S
C1416 C1411 1.490 . S
C1416 C1418 1.395 . S
C1416 C1419 1.403 . S
H1417 C1423 0.930 . S
C1418 H1404 0.930 . S
C1418 C1416 1.395 . S
C1418 C1421 1.403 . S
C1419 C1416 1.403 . S
C1419 C1420 1.524 . S
C1419 C1423 1.400 . S
C1420 H1405 0.960 . S
C1420 H1406 0.960 . S
C1420 H1407 0.960 . S
C1420 C1419 1.524 . S
C1421 C1418 1.403 . S
C1421 C1422 1.392 . S
C1421 C1425 1.495 . S
C1422 C1421 1.392 . S
C1422 C1423 1.385 . S
C1422 C1424 1.478 . S
C1423 H1417 0.930 . S
C1423 C1419 1.400 . S
C1423 C1422 1.385 . S
C1424 C1422 1.478 . S
C1424 C1426 1.381 . S
C1424 C1430 1.383 . S
C1425 C1421 1.495 . S
C1425 H1431 0.959 . S
C1425 H1432 0.961 . S
C1425 H1433 0.960 . S
C1426 C1424 1.381 . S
C1426 C1427 1.394 . S
C1426 H1434 0.930 . S
C1427 C1426 1.394 . S
C1427 C1428 1.383 . S
C1427 H1435 0.929 . S
C1428 C1427 1.383 . S
C1428 C1429 1.377 . S
C1429 H1413 0.930 . S
C1429 C1428 1.377 . S
C1429 C1430 1.379 . S
C1430 H1414 0.931 . S
C1430 C1424 1.383 . S
C1430 C1429 1.379 . S
H1431 C1425 0.959 . S
H1432 C1425 0.961 . S
H1433 C1425 0.960 . S
H1434 C1426 0.930 . S
H1435 C1427 0.929 . S
H1436 C1444 0.929 . S
H1437 C1446 0.930 . S
H1438 C1448 0.930 . S
H1439 C1451 0.929 . S
H1440 C1454 0.930 . S
H1441 C1456 0.960 . S
H1442 C1456 0.960 . S
H1443 C1456 0.960 . S
C1444 H1436 0.929 . S
C1444 C1445 1.377 . S
C1444 C1446 1.384 . S
C1445 C1444 1.377 . S
C1445 C1451 1.390 . S
C1446 H1437 0.930 . S
C1446 C1444 1.384 . S
C1446 C1447 1.372 . S
C1447 C1446 1.372 . S
C1447 C1448 1.400 . S
C1447 C1452 1.490 . S
C1448 H1438 0.930 . S
C1448 C1447 1.400 . S
C1448 C1451 1.386 . S
H1449 C1465 0.930 . S
H1450 C1466 0.931 . S
C1451 H1439 0.929 . S
C1451 C1445 1.390 . S
C1451 C1448 1.386 . S
C1452 C1447 1.490 . S
C1452 C1454 1.395 . S
C1452 C1455 1.403 . S
H1453 C1459 0.930 . S
C1454 H1440 0.930 . S
C1454 C1452 1.395 . S
C1454 C1457 1.403 . S
C1455 C1452 1.403 . S
C1455 C1456 1.524 . S
C1455 C1459 1.400 . S
C1456 H1441 0.960 . S
C1456 H1442 0.960 . S
C1456 H1443 0.960 . S
C1456 C1455 1.524 . S
C1457 C1454 1.403 . S
C1457 C1458 1.392 . S
C1457 C1461 1.495 . S
C1458 C1457 1.392 . S
C1458 C1459 1.385 . S
C1458 C1460 1.478 . S
C1459 H1453 0.930 . S
C1459 C1455 1.400 . S
C1459 C1458 1.385 . S
C1460 C1458 1.478 . S
C1460 C1462 1.381 . S
C1460 C1466 1.383 . S
C1461 C1457 1.495 . S
C1461 H1467 0.959 . S
C1461 H1468 0.961 . S
C1461 H1469 0.960 . S
C1462 C1460 1.381 . S
C1462 C1463 1.394 . S
C1462 H1470 0.930 . S
C1463 C1462 1.394 . S
C1463 C1464 1.383 . S
C1463 H1471 0.929 . S
C1464 C1463 1.383 . S
C1464 C1465 1.377 . S
C1465 H1449 0.930 . S
C1465 C1464 1.377 . S
C1465 C1466 1.379 . S
C1466 H1450 0.931 . S
C1466 C1460 1.383 . S
C1466 C1465 1.379 . S
H1467 C1461 0.959 . S
H1468 C1461 0.961 . S
H1469 C1461 0.960 . S
H1470 C1462 0.930 . S
H1471 C1463 0.929 . S
H1472 C1480 0.929 . S
H1473 C1482 0.930 . S
H1474 C1484 0.930 . S
H1475 C1487 0.929 1_565 S
H1476 C1490 0.930 . S
H1477 C1492 0.960 . S
H1478 C1492 0.960 . S
H1479 C1492 0.960 . S
C1480 H1472 0.929 . S
C1480 C1481 1.377 . S
C1480 C1482 1.384 . S
C1481 C1480 1.377 . S
C1481 C1487 1.390 . S
C1482 H1473 0.930 . S
C1482 C1480 1.384 . S
C1482 C1483 1.372 . S
C1483 C1482 1.372 . S
C1483 C1484 1.400 . S
C1483 C1488 1.490 . S
C1484 H1474 0.930 . S
C1484 C1483 1.400 . S
C1484 C1487 1.386 . S
H1485 C1501 0.930 . S
H1486 C1502 0.931 . S
C1487 H1475 0.929 1_545 S
C1487 C1481 1.390 . S
C1487 C1484 1.386 . S
C1488 C1483 1.490 . S
C1488 C1490 1.395 . S
C1488 C1491 1.403 . S
H1489 C1495 0.930 . S
C1490 H1476 0.930 . S
C1490 C1488 1.395 . S
C1490 C1493 1.403 . S
C1491 C1488 1.403 . S
C1491 C1492 1.524 . S
C1491 C1495 1.400 . S
C1492 H1477 0.960 . S
C1492 H1478 0.960 . S
C1492 H1479 0.960 . S
C1492 C1491 1.524 . S
C1493 C1490 1.403 . S
C1493 C1494 1.392 . S
C1493 C1497 1.495 . S
C1494 C1493 1.392 . S
C1494 C1495 1.385 . S
C1494 C1496 1.478 . S
C1495 H1489 0.930 . S
C1495 C1491 1.400 . S
C1495 C1494 1.385 . S
C1496 C1494 1.478 . S
C1496 C1498 1.381 . S
C1496 C1502 1.383 . S
C1497 C1493 1.495 . S
C1497 H1503 0.959 . S
C1497 H1504 0.961 . S
C1497 H1505 0.960 . S
C1498 C1496 1.381 . S
C1498 C1499 1.394 . S
C1498 H1506 0.930 . S
C1499 C1498 1.394 . S
C1499 C1500 1.383 . S
C1499 H1507 0.929 . S
C1500 C1499 1.383 . S
C1500 C1501 1.377 . S
C1501 H1485 0.930 . S
C1501 C1500 1.377 . S
C1501 C1502 1.379 . S
C1502 H1486 0.931 . S
C1502 C1496 1.383 . S
C1502 C1501 1.379 . S
H1503 C1497 0.959 . S
H1504 C1497 0.961 . S
H1505 C1497 0.960 . S
H1506 C1498 0.930 . S
H1507 C1499 0.929 . S
H1508 C1516 0.929 . S
H1509 C1518 0.930 . S
H1510 C1520 0.930 . S
H1511 C1523 0.929 . S
H1512 C1526 0.930 . S
H1513 C1528 0.960 . S
H1514 C1528 0.960 . S
H1515 C1528 0.960 . S
C1516 H1508 0.929 . S
C1516 C1517 1.377 . S
C1516 C1518 1.384 . S
C1517 C1516 1.377 . S
C1517 C1523 1.390 . S
C1518 H1509 0.930 . S
C1518 C1516 1.384 . S
C1518 C1519 1.372 . S
C1519 C1518 1.372 . S
C1519 C1520 1.400 . S
C1519 C1524 1.490 . S
C1520 H1510 0.930 . S
C1520 C1519 1.400 . S
C1520 C1523 1.386 . S
H1521 C1537 0.930 . S
H1522 C1538 0.931 . S
C1523 H1511 0.929 . S
C1523 C1517 1.390 . S
C1523 C1520 1.386 . S
C1524 C1519 1.490 . S
C1524 C1526 1.395 . S
C1524 C1527 1.403 . S
H1525 C1531 0.930 . S
C1526 H1512 0.930 . S
C1526 C1524 1.395 . S
C1526 C1529 1.403 . S
C1527 C1524 1.403 . S
C1527 C1528 1.524 . S
C1527 C1531 1.400 . S
C1528 H1513 0.960 . S
C1528 H1514 0.960 . S
C1528 H1515 0.960 . S
C1528 C1527 1.524 . S
C1529 C1526 1.403 . S
C1529 C1530 1.392 . S
C1529 C1533 1.495 . S
C1530 C1529 1.392 . S
C1530 C1531 1.385 . S
C1530 C1532 1.478 . S
C1531 H1525 0.930 . S
C1531 C1527 1.400 . S
C1531 C1530 1.385 . S
C1532 C1530 1.478 . S
C1532 C1534 1.381 . S
C1532 C1538 1.383 . S
C1533 C1529 1.495 . S
C1533 H1539 0.959 . S
C1533 H1540 0.961 . S
C1533 H1541 0.960 . S
C1534 C1532 1.381 . S
C1534 C1535 1.394 . S
C1534 H1542 0.930 . S
C1535 C1534 1.394 . S
C1535 C1536 1.383 . S
C1535 H1543 0.929 . S
C1536 C1535 1.383 . S
C1536 C1537 1.377 . S
C1537 H1521 0.930 . S
C1537 C1536 1.377 . S
C1537 C1538 1.379 . S
C1538 H1522 0.931 . S
C1538 C1532 1.383 . S
C1538 C1537 1.379 . S
H1539 C1533 0.959 . S
H1540 C1533 0.961 . S
H1541 C1533 0.960 . S
H1542 C1534 0.930 . S
H1543 C1535 0.929 . S
H1544 C1552 0.929 . S
H1545 C1554 0.930 . S
H1546 C1556 0.930 . S
H1547 C1559 0.929 . S
H1548 C1562 0.930 . S
H1549 C1564 0.960 . S
H1550 C1564 0.960 . S
H1551 C1564 0.960 . S
C1552 H1544 0.929 . S
C1552 C1553 1.377 . S
C1552 C1554 1.384 . S
C1553 C1552 1.377 . S
C1553 C1559 1.390 . S
C1554 H1545 0.930 . S
C1554 C1552 1.384 . S
C1554 C1555 1.372 . S
C1555 C1554 1.372 . S
C1555 C1556 1.400 . S
C1555 C1560 1.490 . S
C1556 H1546 0.930 . S
C1556 C1555 1.400 . S
C1556 C1559 1.386 . S
H1557 C1573 0.930 . S
H1558 C1574 0.931 . S
C1559 H1547 0.929 . S
C1559 C1553 1.390 . S
C1559 C1556 1.386 . S
C1560 C1555 1.490 . S
C1560 C1562 1.395 . S
C1560 C1563 1.403 . S
H1561 C1567 0.930 . S
C1562 H1548 0.930 . S
C1562 C1560 1.395 . S
C1562 C1565 1.403 . S
C1563 C1560 1.403 . S
C1563 C1564 1.524 . S
C1563 C1567 1.400 . S
C1564 H1549 0.960 . S
C1564 H1550 0.960 . S
C1564 H1551 0.960 . S
C1564 C1563 1.524 . S
C1565 C1562 1.403 . S
C1565 C1566 1.392 . S
C1565 C1569 1.495 . S
C1566 C1565 1.392 . S
C1566 C1567 1.385 . S
C1566 C1568 1.478 . S
C1567 H1561 0.930 . S
C1567 C1563 1.400 . S
C1567 C1566 1.385 . S
C1568 C1566 1.478 . S
C1568 C1570 1.381 . S
C1568 C1574 1.383 . S
C1569 C1565 1.495 . S
C1569 H1575 0.959 . S
C1569 H1576 0.961 . S
C1569 H1577 0.960 . S
C1570 C1568 1.381 . S
C1570 C1571 1.394 . S
C1570 H1578 0.930 . S
C1571 C1570 1.394 . S
C1571 C1572 1.383 . S
C1571 H1579 0.929 . S
C1572 C1571 1.383 . S
C1572 C1573 1.377 . S
C1573 H1557 0.930 . S
C1573 C1572 1.377 . S
C1573 C1574 1.379 . S
C1574 H1558 0.931 . S
C1574 C1568 1.383 . S
C1574 C1573 1.379 . S
H1575 C1569 0.959 . S
H1576 C1569 0.961 . S
H1577 C1569 0.960 . S
H1578 C1570 0.930 . S
H1579 C1571 0.929 . S
H1580 C1588 0.929 . S
H1581 C1590 0.930 . S
H1582 C1592 0.930 . S
H1583 C1595 0.929 . S
H1584 C1598 0.930 . S
H1585 C1600 0.960 . S
H1586 C1600 0.960 . S
H1587 C1600 0.960 . S
C1588 H1580 0.929 . S
C1588 C1589 1.377 . S
C1588 C1590 1.384 . S
C1589 C1588 1.377 . S
C1589 C1595 1.390 . S
C1590 H1581 0.930 . S
C1590 C1588 1.384 . S
C1590 C1591 1.372 . S
C1591 C1590 1.372 . S
C1591 C1592 1.400 . S
C1591 C1596 1.490 . S
C1592 H1582 0.930 . S
C1592 C1591 1.400 . S
C1592 C1595 1.386 . S
H1593 C1609 0.930 . S
H1594 C1610 0.931 . S
C1595 H1583 0.929 . S
C1595 C1589 1.390 . S
C1595 C1592 1.386 . S
C1596 C1591 1.490 . S
C1596 C1598 1.395 . S
C1596 C1599 1.403 . S
H1597 C1603 0.930 . S
C1598 H1584 0.930 . S
C1598 C1596 1.395 . S
C1598 C1601 1.403 . S
C1599 C1596 1.403 . S
C1599 C1600 1.524 . S
C1599 C1603 1.400 . S
C1600 H1585 0.960 . S
C1600 H1586 0.960 . S
C1600 H1587 0.960 . S
C1600 C1599 1.524 . S
C1601 C1598 1.403 . S
C1601 C1602 1.392 . S
C1601 C1605 1.495 1_545 S
C1602 C1601 1.392 . S
C1602 C1603 1.385 . S
C1602 C1604 1.478 . S
C1603 H1597 0.930 . S
C1603 C1599 1.400 . S
C1603 C1602 1.385 . S
C1604 C1602 1.478 . S
C1604 C1606 1.381 . S
C1604 C1610 1.383 . S
C1605 C1601 1.495 1_565 S
C1605 H1611 0.959 . S
C1605 H1612 0.961 . S
C1605 H1613 0.960 . S
C1606 C1604 1.381 . S
C1606 C1607 1.394 . S
C1606 H1614 0.930 . S
C1607 C1606 1.394 . S
C1607 C1608 1.383 . S
C1607 H1615 0.929 . S
C1608 C1607 1.383 . S
C1608 C1609 1.377 . S
C1609 H1593 0.930 . S
C1609 C1608 1.377 . S
C1609 C1610 1.379 . S
C1610 H1594 0.931 . S
C1610 C1604 1.383 . S
C1610 C1609 1.379 . S
H1611 C1605 0.959 . S
H1612 C1605 0.961 . S
H1613 C1605 0.960 . S
H1614 C1606 0.930 . S
H1615 C1607 0.929 . S
H1616 C1624 0.929 . S
H1617 C1626 0.930 . S
H1618 C1628 0.930 . S
H1619 C1631 0.929 . S
H1620 C1634 0.930 . S
H1621 C1636 0.960 . S
H1622 C1636 0.960 . S
H1623 C1636 0.960 . S
C1624 H1616 0.929 . S
C1624 C1625 1.377 . S
C1624 C1626 1.384 . S
C1625 C1624 1.377 . S
C1625 C1631 1.390 . S
C1626 H1617 0.930 . S
C1626 C1624 1.384 . S
C1626 C1627 1.372 . S
C1627 C1626 1.372 . S
C1627 C1628 1.400 . S
C1627 C1632 1.490 . S
C1628 H1618 0.930 . S
C1628 C1627 1.400 . S
C1628 C1631 1.386 . S
H1629 C1645 0.930 . S
H1630 C1646 0.931 . S
C1631 H1619 0.929 . S
C1631 C1625 1.390 . S
C1631 C1628 1.386 . S
C1632 C1627 1.490 . S
C1632 C1634 1.395 . S
C1632 C1635 1.403 . S
H1633 C1639 0.930 . S
C1634 H1620 0.930 . S
C1634 C1632 1.395 . S
C1634 C1637 1.403 . S
C1635 C1632 1.403 . S
C1635 C1636 1.524 . S
C1635 C1639 1.400 . S
C1636 H1621 0.960 . S
C1636 H1622 0.960 . S
C1636 H1623 0.960 . S
C1636 C1635 1.524 . S
C1637 C1634 1.403 . S
C1637 C1638 1.392 . S
C1637 C1641 1.495 . S
C1638 C1637 1.392 . S
C1638 C1639 1.385 . S
C1638 C1640 1.478 . S
C1639 H1633 0.930 . S
C1639 C1635 1.400 . S
C1639 C1638 1.385 . S
C1640 C1638 1.478 . S
C1640 C1642 1.381 . S
C1640 C1646 1.383 . S
C1641 C1637 1.495 . S
C1641 H1647 0.959 . S
C1641 H1648 0.961 . S
C1641 H1649 0.960 . S
C1642 C1640 1.381 . S
C1642 C1643 1.394 . S
C1642 H1650 0.930 . S
C1643 C1642 1.394 . S
C1643 C1644 1.383 . S
C1643 H1651 0.929 . S
C1644 C1643 1.383 . S
C1644 C1645 1.377 . S
C1645 H1629 0.930 . S
C1645 C1644 1.377 . S
C1645 C1646 1.379 . S
C1646 H1630 0.931 . S
C1646 C1640 1.383 . S
C1646 C1645 1.379 . S
H1647 C1641 0.959 . S
H1648 C1641 0.961 . S
H1649 C1641 0.960 . S
H1650 C1642 0.930 . S
H1651 C1643 0.929 . S
H1652 C1660 0.929 . S
H1653 C1662 0.930 . S
H1654 C1664 0.930 . S
H1655 C1667 0.929 . S
H1656 C1670 0.930 . S
H1657 C1672 0.960 . S
H1658 C1672 0.960 . S
H1659 C1672 0.960 . S
C1660 H1652 0.929 . S
C1660 C1661 1.377 . S
C1660 C1662 1.384 . S
C1661 C1660 1.377 . S
C1661 C1667 1.390 . S
C1662 H1653 0.930 . S
C1662 C1660 1.384 . S
C1662 C1663 1.372 . S
C1663 C1662 1.372 . S
C1663 C1664 1.400 . S
C1663 C1668 1.490 . S
C1664 H1654 0.930 . S
C1664 C1663 1.400 . S
C1664 C1667 1.386 . S
H1665 C1681 0.930 . S
H1666 C1682 0.931 . S
C1667 H1655 0.929 . S
C1667 C1661 1.390 . S
C1667 C1664 1.386 . S
C1668 C1663 1.490 . S
C1668 C1670 1.395 . S
C1668 C1671 1.403 . S
H1669 C1675 0.930 . S
C1670 H1656 0.930 . S
C1670 C1668 1.395 . S
C1670 C1673 1.403 . S
C1671 C1668 1.403 . S
C1671 C1672 1.524 . S
C1671 C1675 1.400 . S
C1672 H1657 0.960 . S
C1672 H1658 0.960 . S
C1672 H1659 0.960 . S
C1672 C1671 1.524 . S
C1673 C1670 1.403 . S
C1673 C1674 1.392 . S
C1673 C1677 1.495 . S
C1674 C1673 1.392 . S
C1674 C1675 1.385 . S
C1674 C1676 1.478 . S
C1675 H1669 0.930 . S
C1675 C1671 1.400 . S
C1675 C1674 1.385 . S
C1676 C1674 1.478 . S
C1676 C1678 1.381 . S
C1676 C1682 1.383 . S
C1677 C1673 1.495 . S
C1677 H1683 0.959 . S
C1677 H1684 0.961 . S
C1677 H1685 0.960 . S
C1678 C1676 1.381 . S
C1678 C1679 1.394 . S
C1678 H1686 0.930 . S
C1679 C1678 1.394 . S
C1679 C1680 1.383 . S
C1679 H1687 0.929 . S
C1680 C1679 1.383 . S
C1680 C1681 1.377 . S
C1681 H1665 0.930 . S
C1681 C1680 1.377 . S
C1681 C1682 1.379 . S
C1682 H1666 0.931 . S
C1682 C1676 1.383 . S
C1682 C1681 1.379 . S
H1683 C1677 0.959 . S
H1684 C1677 0.961 . S
H1685 C1677 0.960 . S
H1686 C1678 0.930 . S
H1687 C1679 0.929 . S
H1688 C1696 0.929 . S
H1689 C1698 0.930 . S
H1690 C1700 0.930 . S
H1691 C1703 0.929 . S
H1692 C1706 0.930 . S
H1693 C1708 0.960 . S
H1694 C1708 0.960 . S
H1695 C1708 0.960 . S
C1696 H1688 0.929 . S
C1696 C1697 1.377 . S
C1696 C1698 1.384 . S
C1697 C1696 1.377 . S
C1697 C1703 1.390 . S
C1698 H1689 0.930 . S
C1698 C1696 1.384 . S
C1698 C1699 1.372 . S
C1699 C1698 1.372 . S
C1699 C1700 1.400 . S
C1699 C1704 1.490 . S
C1700 H1690 0.930 . S
C1700 C1699 1.400 . S
C1700 C1703 1.386 . S
H1701 C1717 0.930 . S
H1702 C1718 0.931 . S
C1703 H1691 0.929 . S
C1703 C1697 1.390 . S
C1703 C1700 1.386 . S
C1704 C1699 1.490 . S
C1704 C1706 1.395 . S
C1704 C1707 1.403 . S
H1705 C1711 0.930 . S
C1706 H1692 0.930 . S
C1706 C1704 1.395 . S
C1706 C1709 1.403 . S
C1707 C1704 1.403 . S
C1707 C1708 1.524 . S
C1707 C1711 1.400 . S
C1708 H1693 0.960 . S
C1708 H1694 0.960 . S
C1708 H1695 0.960 . S
C1708 C1707 1.524 . S
C1709 C1706 1.403 . S
C1709 C1710 1.392 . S
C1709 C1713 1.495 . S
C1710 C1709 1.392 . S
C1710 C1711 1.385 . S
C1710 C1712 1.478 . S
C1711 H1705 0.930 . S
C1711 C1707 1.400 . S
C1711 C1710 1.385 . S
C1712 C1710 1.478 . S
C1712 C1714 1.381 . S
C1712 C1718 1.383 . S
C1713 C1709 1.495 . S
C1713 H1719 0.959 . S
C1713 H1720 0.961 . S
C1713 H1721 0.960 . S
C1714 C1712 1.381 . S
C1714 C1715 1.394 . S
C1714 H1722 0.930 . S
C1715 C1714 1.394 . S
C1715 C1716 1.383 . S
C1715 H1723 0.929 . S
C1716 C1715 1.383 . S
C1716 C1717 1.377 . S
C1717 H1701 0.930 . S
C1717 C1716 1.377 . S
C1717 C1718 1.379 . S
C1718 H1702 0.931 . S
C1718 C1712 1.383 . S
C1718 C1717 1.379 . S
H1719 C1713 0.959 . S
H1720 C1713 0.961 . S
H1721 C1713 0.960 . S
H1722 C1714 0.930 . S
H1723 C1715 0.929 . S
H1724 C1732 0.927 . S
H1725 C1734 0.930 . S
H1726 C1736 0.930 . S
H1727 C1739 0.929 . S
H1728 C1742 0.930 . S
H1729 C1744 0.991 . S
H1730 C1744 0.944 1_545 S
H1731 C1744 0.980 . S
C1732 H1724 0.927 . S
C1732 C1733 1.378 1_455 S
C1732 C1734 1.386 1_455 S
C1733 C1732 1.378 1_655 S
C1733 C1739 1.405 . S
C1734 H1725 0.930 . S
C1734 C1732 1.386 1_655 S
C1734 C1735 1.372 . S
C1735 C1734 1.372 . S
C1735 C1736 1.400 . S
C1735 C1740 1.490 . S
C1736 H1726 0.930 . S
C1736 C1735 1.400 . S
C1736 C1739 1.386 . S
H1737 C1753 0.930 1_565 S
H1738 C1754 0.931 . S
C1739 H1727 0.929 . S
C1739 C1733 1.405 . S
C1739 C1736 1.386 . S
C1740 C1735 1.490 . S
C1740 C1742 1.395 . S
C1740 C1743 1.403 . S
H1741 C1747 0.930 . S
C1742 H1728 0.930 . S
C1742 C1740 1.395 . S
C1742 C1745 1.403 . S
C1743 C1740 1.403 . S
C1743 C1744 1.492 1_545 S
C1743 C1747 1.400 . S
C1744 H1729 0.991 . S
C1744 H1730 0.944 1_565 S
C1744 H1731 0.980 . S
C1744 C1743 1.492 1_565 S
C1745 C1742 1.403 . S
C1745 C1746 1.392 . S
C1745 C1749 1.495 . S
C1746 C1745 1.392 . S
C1746 C1747 1.385 . S
C1746 C1748 1.478 . S
C1747 H1741 0.930 . S
C1747 C1743 1.400 . S
C1747 C1746 1.385 . S
C1748 C1746 1.478 . S
C1748 C1750 1.381 . S
C1748 C1754 1.383 . S
C1749 C1745 1.495 . S
C1749 H1755 0.959 . S
C1749 H1756 0.961 . S
C1749 H1757 0.960 . S
C1750 C1748 1.381 . S
C1750 C1751 1.394 . S
C1750 H1758 0.930 . S
C1751 C1750 1.394 . S
C1751 C1752 1.383 . S
C1751 H1759 0.929 . S
C1752 C1751 1.383 . S
C1752 C1753 1.377 . S
C1753 H1737 0.930 1_545 S
C1753 C1752 1.377 . S
C1753 C1754 1.379 . S
C1754 H1738 0.931 . S
C1754 C1748 1.383 . S
C1754 C1753 1.379 . S
H1755 C1749 0.959 . S
H1756 C1749 0.961 . S
H1757 C1749 0.960 . S
H1758 C1750 0.930 . S
H1759 C1751 0.929 . S
H1760 C1768 0.929 . S
H1761 C1770 0.930 . S
H1762 C1772 0.930 . S
H1763 C1775 0.929 . S
H1764 C1778 0.930 . S
H1765 C1780 0.960 . S
H1766 C1780 0.960 . S
H1767 C1780 0.960 . S
C1768 H1760 0.929 . S
C1768 C1769 1.377 . S
C1768 C1770 1.384 . S
C1769 C1768 1.377 . S
C1769 C1775 1.390 . S
C1770 H1761 0.930 . S
C1770 C1768 1.384 . S
C1770 C1771 1.372 . S
C1771 C1770 1.372 . S
C1771 C1772 1.400 . S
C1771 C1776 1.490 . S
C1772 H1762 0.930 . S
C1772 C1771 1.400 . S
C1772 C1775 1.386 . S
H1773 C1789 0.930 . S
H1774 C1790 0.931 . S
C1775 H1763 0.929 . S
C1775 C1769 1.390 . S
C1775 C1772 1.386 . S
C1776 C1771 1.490 . S
C1776 C1778 1.395 . S
C1776 C1779 1.403 . S
H1777 C1783 0.930 . S
C1778 H1764 0.930 . S
C1778 C1776 1.395 . S
C1778 C1781 1.403 . S
C1779 C1776 1.403 . S
C1779 C1780 1.524 . S
C1779 C1783 1.400 . S
C1780 H1765 0.960 . S
C1780 H1766 0.960 . S
C1780 H1767 0.960 . S
C1780 C1779 1.524 . S
C1781 C1778 1.403 . S
C1781 C1782 1.392 . S
C1781 C1785 1.495 . S
C1782 C1781 1.392 . S
C1782 C1783 1.385 . S
C1782 C1784 1.478 . S
C1783 H1777 0.930 . S
C1783 C1779 1.400 . S
C1783 C1782 1.385 . S
C1784 C1782 1.478 . S
C1784 C1786 1.381 . S
C1784 C1790 1.383 . S
C1785 C1781 1.495 . S
C1785 H1791 0.959 . S
C1785 H1792 0.961 . S
C1785 H1793 0.960 . S
C1786 C1784 1.381 . S
C1786 C1787 1.394 . S
C1786 H1794 0.930 . S
C1787 C1786 1.394 . S
C1787 C1788 1.383 . S
C1787 H1795 0.929 . S
C1788 C1787 1.383 . S
C1788 C1789 1.377 . S
C1789 H1773 0.930 . S
C1789 C1788 1.377 . S
C1789 C1790 1.379 . S
C1790 H1774 0.931 . S
C1790 C1784 1.383 . S
C1790 C1789 1.379 . S
H1791 C1785 0.959 . S
H1792 C1785 0.961 . S
H1793 C1785 0.960 . S
H1794 C1786 0.930 . S
H1795 C1787 0.929 . S
H1796 C1804 0.929 . S
H1797 C1806 0.930 . S
H1798 C1808 0.930 . S
H1799 C1811 0.929 . S
H1800 C1814 0.930 . S
H1801 C1816 0.960 . S
H1802 C1816 0.960 . S
H1803 C1816 0.960 . S
C1804 H1796 0.929 . S
C1804 C1805 1.377 1_455 S
C1804 C1806 1.384 . S
C1805 C1804 1.377 1_655 S
C1805 C1811 1.390 . S
C1806 H1797 0.930 . S
C1806 C1804 1.384 . S
C1806 C1807 1.372 . S
C1807 C1806 1.372 . S
C1807 C1808 1.400 . S
C1807 C1812 1.490 . S
C1808 H1798 0.930 . S
C1808 C1807 1.400 . S
C1808 C1811 1.386 1_455 S
H1809 C1825 0.930 . S
H1810 C1826 0.931 . S
C1811 H1799 0.929 . S
C1811 C1805 1.390 . S
C1811 C1808 1.386 1_655 S
C1812 C1807 1.490 . S
C1812 C1814 1.395 . S
C1812 C1815 1.403 . S
H1813 C1819 0.930 . S
C1814 H1800 0.930 . S
C1814 C1812 1.395 . S
C1814 C1817 1.403 . S
C1815 C1812 1.403 . S
C1815 C1816 1.524 . S
C1815 C1819 1.400 . S
C1816 H1801 0.960 . S
C1816 H1802 0.960 . S
C1816 H1803 0.960 . S
C1816 C1815 1.524 . S
C1817 C1814 1.403 . S
C1817 C1818 1.392 . S
C1817 C1821 1.495 . S
C1818 C1817 1.392 . S
C1818 C1819 1.385 . S
C1818 C1820 1.478 . S
C1819 H1813 0.930 . S
C1819 C1815 1.400 . S
C1819 C1818 1.385 . S
C1820 C1818 1.478 . S
C1820 C1822 1.381 . S
C1820 C1826 1.383 . S
C1821 C1817 1.495 . S
C1821 H1827 0.959 . S
C1821 H1828 0.961 . S
C1821 H1829 0.960 . S
C1822 C1820 1.381 . S
C1822 C1823 1.394 . S
C1822 H1830 0.930 . S
C1823 C1822 1.394 . S
C1823 C1824 1.383 . S
C1823 H1831 0.929 . S
C1824 C1823 1.383 . S
C1824 C1825 1.377 . S
C1825 H1809 0.930 . S
C1825 C1824 1.377 . S
C1825 C1826 1.379 . S
C1826 H1810 0.931 . S
C1826 C1820 1.383 . S
C1826 C1825 1.379 . S
H1827 C1821 0.959 . S
H1828 C1821 0.961 . S
H1829 C1821 0.960 . S
H1830 C1822 0.930 . S
H1831 C1823 0.929 . S
H1832 C1840 0.929 . S
H1833 C1842 0.930 . S
H1834 C1844 0.930 . S
H1835 C1847 0.929 . S
H1836 C1850 0.930 . S
H1837 C1852 0.960 . S
H1838 C1852 0.960 . S
H1839 C1852 0.960 . S
C1840 H1832 0.929 . S
C1840 C1841 1.377 . S
C1840 C1842 1.384 . S
C1841 C1840 1.377 . S
C1841 C1847 1.390 . S
C1842 H1833 0.930 . S
C1842 C1840 1.384 . S
C1842 C1843 1.372 . S
C1843 C1842 1.372 . S
C1843 C1844 1.400 . S
C1843 C1848 1.490 . S
C1844 H1834 0.930 . S
C1844 C1843 1.400 . S
C1844 C1847 1.386 . S
H1845 C1861 0.930 . S
H1846 C1862 0.931 . S
C1847 H1835 0.929 . S
C1847 C1841 1.390 . S
C1847 C1844 1.386 . S
C1848 C1843 1.490 . S
C1848 C1850 1.395 . S
C1848 C1851 1.403 . S
H1849 C1855 0.930 . S
C1850 H1836 0.930 . S
C1850 C1848 1.395 . S
C1850 C1853 1.403 . S
C1851 C1848 1.403 . S
C1851 C1852 1.524 . S
C1851 C1855 1.400 . S
C1852 H1837 0.960 . S
C1852 H1838 0.960 . S
C1852 H1839 0.960 . S
C1852 C1851 1.524 . S
C1853 C1850 1.403 . S
C1853 C1854 1.392 . S
C1853 C1857 1.495 . S
C1854 C1853 1.392 . S
C1854 C1855 1.385 . S
C1854 C1856 1.478 . S
C1855 H1849 0.930 . S
C1855 C1851 1.400 . S
C1855 C1854 1.385 . S
C1856 C1854 1.478 . S
C1856 C1858 1.381 . S
C1856 C1862 1.383 . S
C1857 C1853 1.495 . S
C1857 H1863 0.959 . S
C1857 H1864 0.961 . S
C1857 H1865 0.960 . S
C1858 C1856 1.381 . S
C1858 C1859 1.394 . S
C1858 H1866 0.930 . S
C1859 C1858 1.394 . S
C1859 C1860 1.383 . S
C1859 H1867 0.929 . S
C1860 C1859 1.383 . S
C1860 C1861 1.377 . S
C1861 H1845 0.930 . S
C1861 C1860 1.377 . S
C1861 C1862 1.379 . S
C1862 H1846 0.931 . S
C1862 C1856 1.383 . S
C1862 C1861 1.379 . S
H1863 C1857 0.959 . S
H1864 C1857 0.961 . S
H1865 C1857 0.960 . S
H1866 C1858 0.930 . S
H1867 C1859 0.929 . S
H1868 C1876 0.929 . S
H1869 C1878 0.930 . S
H1870 C1880 0.930 . S
H1871 C1883 0.929 . S
H1872 C1886 0.937 . S
H1873 C1888 0.960 . S
H1874 C1888 0.960 . S
H1875 C1888 0.960 . S
C1876 H1868 0.929 . S
C1876 C1877 1.377 1_556 S
C1876 C1878 1.384 . S
C1877 C1876 1.377 1_554 S
C1877 C1883 1.390 . S
C1878 H1869 0.930 . S
C1878 C1876 1.384 . S
C1878 C1879 1.372 . S
C1879 C1878 1.372 . S
C1879 C1880 1.400 . S
C1879 C1884 1.490 . S
C1880 H1870 0.930 . S
C1880 C1879 1.400 . S
C1880 C1883 1.386 1_556 S
H1881 C1897 0.930 . S
H1882 C1898 0.931 . S
C1883 H1871 0.929 . S
C1883 C1877 1.390 . S
C1883 C1880 1.386 1_554 S
C1884 C1879 1.490 . S
C1884 C1886 1.395 . S
C1884 C1887 1.403 . S
H1885 C1891 0.930 . S
C1886 H1872 0.937 . S
C1886 C1884 1.395 . S
C1886 C1889 1.403 . S
C1887 C1884 1.403 . S
C1887 C1888 1.524 . S
C1887 C1891 1.400 . S
C1888 H1873 0.960 . S
C1888 H1874 0.960 . S
C1888 H1875 0.960 . S
C1888 C1887 1.524 . S
C1889 C1886 1.403 . S
C1889 C1890 1.392 . S
C1889 C1893 1.495 1_655 S
C1890 C1889 1.392 . S
C1890 C1891 1.385 . S
C1890 C1892 1.478 . S
C1891 H1885 0.930 . S
C1891 C1887 1.400 . S
C1891 C1890 1.385 . S
C1892 C1890 1.478 . S
C1892 C1894 1.340 1_655 S
C1892 C1898 1.383 . S
C1893 C1889 1.495 1_455 S
C1893 H1899 0.959 . S
C1893 H1900 0.961 . S
C1893 H1901 0.960 . S
C1894 C1892 1.340 1_455 S
C1894 C1895 1.408 . S
C1894 H1902 0.961 . S
C1895 C1894 1.408 . S
C1895 C1896 1.383 1_455 S
C1895 H1903 0.929 . S
C1896 C1895 1.383 1_655 S
C1896 C1897 1.377 . S
C1897 H1881 0.930 . S
C1897 C1896 1.377 . S
C1897 C1898 1.379 . S
C1898 H1882 0.931 . S
C1898 C1892 1.383 . S
C1898 C1897 1.379 . S
H1899 C1893 0.959 . S
H1900 C1893 0.961 . S
H1901 C1893 0.960 . S
H1902 C1894 0.961 . S
H1903 C1895 0.929 . S
H1904 C1912 0.929 . S
H1905 C1914 0.930 . S
H1906 C1916 0.930 . S
H1907 C1919 0.929 . S
H1908 C1922 0.930 . S
H1909 C1924 0.960 . S
H1910 C1924 0.960 . S
H1911 C1924 0.960 . S
C1912 H1904 0.929 . S
C1912 C1913 1.377 . S
C1912 C1914 1.384 . S
C1913 C1912 1.377 . S
C1913 C1919 1.390 . S
C1914 H1905 0.930 . S
C1914 C1912 1.384 . S
C1914 C1915 1.372 . S
C1915 C1914 1.372 . S
C1915 C1916 1.400 . S
C1915 C1920 1.490 . S
C1916 H1906 0.930 . S
C1916 C1915 1.400 . S
C1916 C1919 1.386 . S
H1917 C1933 0.930 . S
H1918 C1934 0.931 . S
C1919 H1907 0.929 . S
C1919 C1913 1.390 . S
C1919 C1916 1.386 . S
C1920 C1915 1.490 . S
C1920 C1922 1.395 . S
C1920 C1923 1.403 . S
H1921 C1927 0.930 . S
C1922 H1908 0.930 . S
C1922 C1920 1.395 . S
C1922 C1925 1.403 . S
C1923 C1920 1.403 . S
C1923 C1924 1.524 . S
C1923 C1927 1.400 . S
C1924 H1909 0.960 . S
C1924 H1910 0.960 . S
C1924 H1911 0.960 . S
C1924 C1923 1.524 . S
C1925 C1922 1.403 . S
C1925 C1926 1.392 . S
C1925 C1929 1.495 . S
C1926 C1925 1.392 . S
C1926 C1927 1.385 . S
C1926 C1928 1.478 . S
C1927 H1921 0.930 . S
C1927 C1923 1.400 . S
C1927 C1926 1.385 . S
C1928 C1926 1.478 . S
C1928 C1930 1.381 . S
C1928 C1934 1.383 . S
C1929 C1925 1.495 . S
C1929 H1935 0.959 . S
C1929 H1936 0.961 . S
C1929 H1937 0.960 . S
C1930 C1928 1.381 . S
C1930 C1931 1.394 . S
C1930 H1938 0.930 . S
C1931 C1930 1.394 . S
C1931 C1932 1.383 . S
C1931 H1939 0.929 . S
C1932 C1931 1.383 . S
C1932 C1933 1.377 . S
C1933 H1917 0.930 . S
C1933 C1932 1.377 . S
C1933 C1934 1.379 . S
C1934 H1918 0.931 . S
C1934 C1928 1.383 . S
C1934 C1933 1.379 . S
H1935 C1929 0.959 . S
H1936 C1929 0.961 . S
H1937 C1929 0.960 . S
H1938 C1930 0.930 . S
H1939 C1931 0.929 . S
H1940 C1948 0.929 . S
H1941 C1950 0.930 . S
H1942 C1952 0.930 . S
H1943 C1955 0.929 . S
H1944 C1958 0.930 . S
H1945 C1960 0.960 . S
H1946 C1960 0.960 . S
H1947 C1960 0.960 . S
C1948 H1940 0.929 . S
C1948 C1949 1.377 1_556 S
C1948 C1950 1.384 . S
C1949 C1948 1.377 1_554 S
C1949 C1955 1.390 . S
C1950 H1941 0.930 . S
C1950 C1948 1.384 . S
C1950 C1951 1.372 . S
C1951 C1950 1.372 . S
C1951 C1952 1.400 . S
C1951 C1956 1.490 . S
C1952 H1942 0.930 . S
C1952 C1951 1.400 . S
C1952 C1955 1.386 1_556 S
H1953 C1969 0.930 . S
H1954 C1970 0.931 . S
C1955 H1943 0.929 . S
C1955 C1949 1.390 . S
C1955 C1952 1.386 1_554 S
C1956 C1951 1.490 . S
C1956 C1958 1.395 . S
C1956 C1959 1.403 . S
H1957 C1963 0.930 . S
C1958 H1944 0.930 . S
C1958 C1956 1.395 . S
C1958 C1961 1.403 . S
C1959 C1956 1.403 . S
C1959 C1960 1.524 . S
C1959 C1963 1.400 . S
C1960 H1945 0.960 . S
C1960 H1946 0.960 . S
C1960 H1947 0.960 . S
C1960 C1959 1.524 . S
C1961 C1958 1.403 . S
C1961 C1962 1.392 . S
C1961 C1965 1.495 1_455 S
C1962 C1961 1.392 . S
C1962 C1963 1.385 . S
C1962 C1964 1.478 . S
C1963 H1957 0.930 . S
C1963 C1959 1.400 . S
C1963 C1962 1.385 . S
C1964 C1962 1.478 . S
C1964 C1966 1.381 . S
C1964 C1970 1.383 . S
C1965 C1961 1.495 1_655 S
C1965 H1971 0.959 . S
C1965 H1972 0.961 . S
C1965 H1973 0.960 . S
C1966 C1964 1.381 . S
C1966 C1967 1.394 . S
C1966 H1974 0.930 1_455 S
C1967 C1966 1.394 . S
C1967 C1968 1.383 . S
C1967 H1975 0.929 1_455 S
C1968 C1967 1.383 . S
C1968 C1969 1.377 . S
C1969 H1953 0.930 . S
C1969 C1968 1.377 . S
C1969 C1970 1.379 . S
C1970 H1954 0.931 . S
C1970 C1964 1.383 . S
C1970 C1969 1.379 . S
H1971 C1965 0.959 . S
H1972 C1965 0.961 . S
H1973 C1965 0.960 . S
H1974 C1966 0.930 1_655 S
H1975 C1967 0.929 1_655 S
H1976 C1984 0.929 . S
H1977 C1986 0.930 . S
H1978 C1988 0.930 . S
H1979 C1991 0.929 . S
H1980 C1994 0.930 . S
H1981 C1996 0.960 . S
H1982 C1996 0.960 . S
H1983 C1996 0.960 . S
C1984 H1976 0.929 . S
C1984 C1985 1.377 . S
C1984 C1986 1.384 . S
C1985 C1984 1.377 . S
C1985 C1991 1.390 . S
C1986 H1977 0.930 . S
C1986 C1984 1.384 . S
C1986 C1987 1.372 . S
C1987 C1986 1.372 . S
C1987 C1988 1.400 . S
C1987 C1992 1.490 . S
C1988 H1978 0.930 . S
C1988 C1987 1.400 . S
C1988 C1991 1.386 . S
H1989 C2005 0.930 . S
H1990 C2006 0.931 . S
C1991 H1979 0.929 . S
C1991 C1985 1.390 . S
C1991 C1988 1.386 . S
C1992 C1987 1.490 . S
C1992 C1994 1.395 . S
C1992 C1995 1.403 . S
H1993 C1999 0.930 . S
C1994 H1980 0.930 . S
C1994 C1992 1.395 . S
C1994 C1997 1.403 . S
C1995 C1992 1.403 . S
C1995 C1996 1.524 . S
C1995 C1999 1.400 . S
C1996 H1981 0.960 . S
C1996 H1982 0.960 . S
C1996 H1983 0.960 . S
C1996 C1995 1.524 . S
C1997 C1994 1.403 . S
C1997 C1998 1.392 . S
C1997 C2001 1.495 . S
C1998 C1997 1.392 . S
C1998 C1999 1.385 . S
C1998 C2000 1.478 . S
C1999 H1993 0.930 . S
C1999 C1995 1.400 . S
C1999 C1998 1.385 . S
C2000 C1998 1.478 . S
C2000 C2002 1.381 . S
C2000 C2006 1.383 . S
C2001 C1997 1.495 . S
C2001 H2007 0.959 . S
C2001 H2008 0.961 . S
C2001 H2009 0.960 . S
C2002 C2000 1.381 . S
C2002 C2003 1.394 . S
C2002 H2010 0.930 . S
C2003 C2002 1.394 . S
C2003 C2004 1.383 . S
C2003 H2011 0.929 . S
C2004 C2003 1.383 . S
C2004 C2005 1.377 . S
C2005 H1989 0.930 . S
C2005 C2004 1.377 . S
C2005 C2006 1.379 . S
C2006 H1990 0.931 . S
C2006 C2000 1.383 . S
C2006 C2005 1.379 . S
H2007 C2001 0.959 . S
H2008 C2001 0.961 . S
H2009 C2001 0.960 . S
H2010 C2002 0.930 . S
H2011 C2003 0.929 . S
H2012 C2020 0.929 . S
H2013 C2022 0.930 . S
H2014 C2024 0.930 . S
H2015 C2027 0.929 . S
H2016 C2030 0.930 . S
H2017 C2032 0.960 . S
H2018 C2032 0.960 . S
H2019 C2032 0.960 . S
C2020 H2012 0.929 . S
C2020 C2021 1.377 . S
C2020 C2022 1.384 . S
C2021 C2020 1.377 . S
C2021 C2027 1.390 . S
C2022 H2013 0.930 . S
C2022 C2020 1.384 . S
C2022 C2023 1.372 . S
C2023 C2022 1.372 . S
C2023 C2024 1.400 . S
C2023 C2028 1.490 . S
C2024 H2014 0.930 . S
C2024 C2023 1.400 . S
C2024 C2027 1.386 . S
H2025 C2041 0.930 . S
H2026 C2042 0.931 . S
C2027 H2015 0.929 . S
C2027 C2021 1.390 . S
C2027 C2024 1.386 . S
C2028 C2023 1.490 . S
C2028 C2030 1.395 . S
C2028 C2031 1.403 . S
H2029 C2035 0.930 . S
C2030 H2016 0.930 . S
C2030 C2028 1.395 . S
C2030 C2033 1.403 . S
C2031 C2028 1.403 . S
C2031 C2032 1.524 . S
C2031 C2035 1.400 . S
C2032 H2017 0.960 . S
C2032 H2018 0.960 . S
C2032 H2019 0.960 . S
C2032 C2031 1.524 . S
C2033 C2030 1.403 . S
C2033 C2034 1.392 . S
C2033 C2037 1.495 . S
C2034 C2033 1.392 . S
C2034 C2035 1.385 . S
C2034 C2036 1.478 . S
C2035 H2029 0.930 . S
C2035 C2031 1.400 . S
C2035 C2034 1.385 . S
C2036 C2034 1.478 . S
C2036 C2038 1.381 . S
C2036 C2042 1.383 . S
C2037 C2033 1.495 . S
C2037 H2043 0.959 . S
C2037 H2044 0.961 . S
C2037 H2045 0.960 . S
C2038 C2036 1.381 . S
C2038 C2039 1.394 . S
C2038 H2046 0.930 . S
C2039 C2038 1.394 . S
C2039 C2040 1.383 . S
C2039 H2047 0.929 . S
C2040 C2039 1.383 . S
C2040 C2041 1.377 . S
C2041 H2025 0.930 . S
C2041 C2040 1.377 . S
C2041 C2042 1.379 . S
C2042 H2026 0.931 . S
C2042 C2036 1.383 . S
C2042 C2041 1.379 . S
H2043 C2037 0.959 . S
H2044 C2037 0.961 . S
H2045 C2037 0.960 . S
H2046 C2038 0.930 . S
H2047 C2039 0.929 . S
H2048 C2056 0.929 . S
H2049 C2058 0.930 . S
H2050 C2060 0.930 . S
H2051 C2063 0.929 . S
H2052 C2066 0.930 . S
H2053 C2068 0.960 . S
H2054 C2068 0.960 . S
H2055 C2068 0.960 . S
C2056 H2048 0.929 . S
C2056 C2057 1.377 . S
C2056 C2058 1.384 . S
C2057 C2056 1.377 . S
C2057 C2063 1.390 . S
C2058 H2049 0.930 . S
C2058 C2056 1.384 . S
C2058 C2059 1.372 . S
C2059 C2058 1.372 . S
C2059 C2060 1.400 . S
C2059 C2064 1.490 . S
C2060 H2050 0.930 . S
C2060 C2059 1.400 . S
C2060 C2063 1.386 . S
H2061 C2077 0.930 . S
H2062 C2078 0.931 . S
C2063 H2051 0.929 . S
C2063 C2057 1.390 . S
C2063 C2060 1.386 . S
C2064 C2059 1.490 . S
C2064 C2066 1.395 . S
C2064 C2067 1.403 . S
H2065 C2071 0.930 . S
C2066 H2052 0.930 . S
C2066 C2064 1.395 . S
C2066 C2069 1.403 . S
C2067 C2064 1.403 . S
C2067 C2068 1.524 . S
C2067 C2071 1.400 . S
C2068 H2053 0.960 . S
C2068 H2054 0.960 . S
C2068 H2055 0.960 . S
C2068 C2067 1.524 . S
C2069 C2066 1.403 . S
C2069 C2070 1.392 . S
C2069 C2073 1.495 . S
C2070 C2069 1.392 . S
C2070 C2071 1.385 . S
C2070 C2072 1.478 . S
C2071 H2065 0.930 . S
C2071 C2067 1.400 . S
C2071 C2070 1.385 . S
C2072 C2070 1.478 . S
C2072 C2074 1.381 . S
C2072 C2078 1.383 . S
C2073 C2069 1.495 . S
C2073 H2079 0.959 . S
C2073 H2080 0.961 . S
C2073 H2081 0.960 . S
C2074 C2072 1.381 . S
C2074 C2075 1.394 . S
C2074 H2082 0.930 . S
C2075 C2074 1.394 . S
C2075 C2076 1.383 . S
C2075 H2083 0.929 . S
C2076 C2075 1.383 . S
C2076 C2077 1.377 . S
C2077 H2061 0.930 . S
C2077 C2076 1.377 . S
C2077 C2078 1.379 . S
C2078 H2062 0.931 . S
C2078 C2072 1.383 . S
C2078 C2077 1.379 . S
H2079 C2073 0.959 . S
H2080 C2073 0.961 . S
H2081 C2073 0.960 . S
H2082 C2074 0.930 . S
H2083 C2075 0.929 . S
H2084 C2092 0.929 . S
H2085 C2094 0.930 . S
H2086 C2096 0.930 . S
H2087 C2099 0.929 . S
H2088 C2102 0.930 . S
H2089 C2104 0.960 . S
H2090 C2104 0.960 . S
H2091 C2104 0.960 . S
C2092 H2084 0.929 . S
C2092 C2093 1.375 1_554 S
C2092 C2094 1.384 . S
C2093 C2092 1.375 1_556 S
C2093 C2099 1.390 . S
C2094 H2085 0.930 . S
C2094 C2092 1.384 . S
C2094 C2095 1.372 . S
C2095 C2094 1.372 . S
C2095 C2096 1.400 . S
C2095 C2100 1.490 . S
C2096 H2086 0.930 . S
C2096 C2095 1.400 . S
C2096 C2099 1.386 1_554 S
H2097 C2113 0.930 . S
H2098 C2114 0.931 . S
C2099 H2087 0.929 . S
C2099 C2093 1.390 . S
C2099 C2096 1.386 1_556 S
C2100 C2095 1.490 . S
C2100 C2102 1.395 . S
C2100 C2103 1.403 . S
H2101 C2107 0.930 . S
C2102 H2088 0.930 . S
C2102 C2100 1.395 . S
C2102 C2105 1.403 . S
C2103 C2100 1.403 . S
C2103 C2104 1.524 . S
C2103 C2107 1.400 . S
C2104 H2089 0.960 . S
C2104 H2090 0.960 . S
C2104 H2091 0.960 . S
C2104 C2103 1.524 . S
C2105 C2102 1.403 . S
C2105 C2106 1.392 . S
C2105 C2109 1.495 . S
C2106 C2105 1.392 . S
C2106 C2107 1.385 . S
C2106 C2108 1.478 . S
C2107 H2101 0.930 . S
C2107 C2103 1.400 . S
C2107 C2106 1.385 . S
C2108 C2106 1.478 . S
C2108 C2110 1.381 . S
C2108 C2114 1.383 . S
C2109 C2105 1.495 . S
C2109 H2115 0.959 . S
C2109 H2116 0.961 . S
C2109 H2117 0.960 . S
C2110 C2108 1.381 . S
C2110 C2111 1.394 . S
C2110 H2118 0.930 . S
C2111 C2110 1.394 . S
C2111 C2112 1.383 . S
C2111 H2119 0.929 . S
C2112 C2111 1.383 . S
C2112 C2113 1.377 . S
C2113 H2097 0.930 . S
C2113 C2112 1.377 . S
C2113 C2114 1.379 . S
C2114 H2098 0.931 . S
C2114 C2108 1.383 . S
C2114 C2113 1.379 . S
H2115 C2109 0.959 . S
H2116 C2109 0.961 . S
H2117 C2109 0.960 . S
H2118 C2110 0.930 . S
H2119 C2111 0.929 . S
H2120 C2128 0.929 . S
H2121 C2130 0.930 . S
H2122 C2132 0.930 . S
H2123 C2135 0.929 . S
H2124 C2138 0.930 . S
H2125 C2140 0.960 . S
H2126 C2140 0.960 . S
H2127 C2140 0.960 . S
C2128 H2120 0.929 . S
C2128 C2129 1.377 . S
C2128 C2130 1.384 . S
C2129 C2128 1.377 . S
C2129 C2135 1.390 . S
C2130 H2121 0.930 . S
C2130 C2128 1.384 . S
C2130 C2131 1.372 . S
C2131 C2130 1.372 . S
C2131 C2132 1.400 . S
C2131 C2136 1.490 . S
C2132 H2122 0.930 . S
C2132 C2131 1.400 . S
C2132 C2135 1.386 . S
H2133 C2149 0.930 . S
H2134 C2150 0.931 . S
C2135 H2123 0.929 . S
C2135 C2129 1.390 . S
C2135 C2132 1.386 . S
C2136 C2131 1.490 . S
C2136 C2138 1.395 . S
C2136 C2139 1.403 . S
H2137 C2143 0.930 . S
C2138 H2124 0.930 . S
C2138 C2136 1.395 . S
C2138 C2141 1.403 . S
C2139 C2136 1.403 . S
C2139 C2140 1.524 . S
C2139 C2143 1.400 . S
C2140 H2125 0.960 . S
C2140 H2126 0.960 . S
C2140 H2127 0.960 . S
C2140 C2139 1.524 . S
C2141 C2138 1.403 . S
C2141 C2142 1.392 . S
C2141 C2145 1.495 . S
C2142 C2141 1.392 . S
C2142 C2143 1.385 . S
C2142 C2144 1.478 . S
C2143 H2137 0.930 . S
C2143 C2139 1.400 . S
C2143 C2142 1.385 . S
C2144 C2142 1.478 . S
C2144 C2146 1.381 . S
C2144 C2150 1.383 . S
C2145 C2141 1.495 . S
C2145 H2151 0.959 . S
C2145 H2152 0.961 . S
C2145 H2153 0.960 . S
C2146 C2144 1.381 . S
C2146 C2147 1.394 . S
C2146 H2154 0.930 . S
C2147 C2146 1.394 . S
C2147 C2148 1.383 . S
C2147 H2155 0.929 . S
C2148 C2147 1.383 . S
C2148 C2149 1.377 . S
C2149 H2133 0.930 . S
C2149 C2148 1.377 . S
C2149 C2150 1.379 . S
C2150 H2134 0.931 . S
C2150 C2144 1.383 . S
C2150 C2149 1.379 . S
H2151 C2145 0.959 . S
H2152 C2145 0.961 . S
H2153 C2145 0.960 . S
H2154 C2146 0.930 . S
H2155 C2147 0.929 . S
H2156 C2164 0.929 . S
H2157 C2166 0.930 . S
H2158 C2168 0.930 . S
H2159 C2171 0.929 . S
H2160 C2174 0.930 . S
H2161 C2176 0.960 . S
H2162 C2176 0.960 . S
H2163 C2176 0.960 . S
C2164 H2156 0.929 . S
C2164 C2165 1.377 . S
C2164 C2166 1.384 . S
C2165 C2164 1.377 . S
C2165 C2171 1.390 . S
C2166 H2157 0.930 . S
C2166 C2164 1.384 . S
C2166 C2167 1.372 . S
C2167 C2166 1.372 . S
C2167 C2168 1.400 . S
C2167 C2172 1.490 . S
C2168 H2158 0.930 . S
C2168 C2167 1.400 . S
C2168 C2171 1.386 . S
H2169 C2185 0.930 . S
H2170 C2186 0.931 . S
C2171 H2159 0.929 . S
C2171 C2165 1.390 . S
C2171 C2168 1.386 . S
C2172 C2167 1.490 . S
C2172 C2174 1.395 . S
C2172 C2175 1.403 . S
H2173 C2179 0.930 . S
C2174 H2160 0.930 . S
C2174 C2172 1.395 . S
C2174 C2177 1.403 . S
C2175 C2172 1.403 . S
C2175 C2176 1.524 . S
C2175 C2179 1.400 . S
C2176 H2161 0.960 . S
C2176 H2162 0.960 . S
C2176 H2163 0.960 . S
C2176 C2175 1.524 . S
C2177 C2174 1.403 . S
C2177 C2178 1.392 . S
C2177 C2181 1.495 . S
C2178 C2177 1.392 . S
C2178 C2179 1.385 . S
C2178 C2180 1.478 . S
C2179 H2173 0.930 . S
C2179 C2175 1.400 . S
C2179 C2178 1.385 . S
C2180 C2178 1.478 . S
C2180 C2182 1.381 . S
C2180 C2186 1.383 . S
C2181 C2177 1.495 . S
C2181 H2187 0.959 . S
C2181 H2188 0.961 . S
C2181 H2189 0.960 . S
C2182 C2180 1.381 . S
C2182 C2183 1.394 . S
C2182 H2190 0.930 . S
C2183 C2182 1.394 . S
C2183 C2184 1.383 . S
C2183 H2191 0.929 . S
C2184 C2183 1.383 . S
C2184 C2185 1.377 . S
C2185 H2169 0.930 . S
C2185 C2184 1.377 . S
C2185 C2186 1.379 . S
C2186 H2170 0.931 . S
C2186 C2180 1.383 . S
C2186 C2185 1.379 . S
H2187 C2181 0.959 . S
H2188 C2181 0.961 . S
H2189 C2181 0.960 . S
H2190 C2182 0.930 . S
H2191 C2183 0.929 . S
H2192 C2200 0.929 . S
H2193 C2202 0.930 . S
H2194 C2204 0.930 . S
H2195 C2207 0.929 . S
H2196 C2210 0.930 . S
H2197 C2212 0.960 . S
H2198 C2212 0.960 . S
H2199 C2212 0.960 . S
C2200 H2192 0.929 . S
C2200 C2201 1.377 . S
C2200 C2202 1.384 . S
C2201 C2200 1.377 . S
C2201 C2207 1.390 . S
C2202 H2193 0.930 . S
C2202 C2200 1.384 . S
C2202 C2203 1.372 . S
C2203 C2202 1.372 . S
C2203 C2204 1.400 . S
C2203 C2208 1.490 . S
C2204 H2194 0.930 . S
C2204 C2203 1.400 . S
C2204 C2207 1.386 . S
H2205 C2221 0.930 . S
H2206 C2222 0.931 . S
C2207 H2195 0.929 . S
C2207 C2201 1.390 . S
C2207 C2204 1.386 . S
C2208 C2203 1.490 . S
C2208 C2210 1.395 . S
C2208 C2211 1.403 . S
H2209 C2215 0.930 . S
C2210 H2196 0.930 . S
C2210 C2208 1.395 . S
C2210 C2213 1.403 . S
C2211 C2208 1.403 . S
C2211 C2212 1.524 . S
C2211 C2215 1.400 . S
C2212 H2197 0.960 . S
C2212 H2198 0.960 . S
C2212 H2199 0.960 . S
C2212 C2211 1.524 . S
C2213 C2210 1.403 . S
C2213 C2214 1.392 . S
C2213 C2217 1.495 . S
C2214 C2213 1.392 . S
C2214 C2215 1.385 . S
C2214 C2216 1.478 . S
C2215 H2209 0.930 . S
C2215 C2211 1.400 . S
C2215 C2214 1.385 . S
C2216 C2214 1.478 . S
C2216 C2218 1.381 . S
C2216 C2222 1.383 . S
C2217 C2213 1.495 . S
C2217 H2223 0.959 . S
C2217 H2224 0.961 . S
C2217 H2225 0.960 . S
C2218 C2216 1.381 . S
C2218 C2219 1.394 . S
C2218 H2226 0.930 . S
C2219 C2218 1.394 . S
C2219 C2220 1.383 . S
C2219 H2227 0.929 . S
C2220 C2219 1.383 . S
C2220 C2221 1.377 . S
C2221 H2205 0.930 . S
C2221 C2220 1.377 . S
C2221 C2222 1.379 . S
C2222 H2206 0.931 . S
C2222 C2216 1.383 . S
C2222 C2221 1.379 . S
H2223 C2217 0.959 . S
H2224 C2217 0.961 . S
H2225 C2217 0.960 . S
H2226 C2218 0.930 . S
H2227 C2219 0.929 . S
H2228 C2236 0.929 . S
H2229 C2238 0.930 . S
H2230 C2240 0.930 . S
H2231 C2243 0.929 . S
H2232 C2246 0.930 . S
H2233 C2248 0.960 . S
H2234 C2248 0.960 . S
H2235 C2248 0.960 . S
C2236 H2228 0.929 . S
C2236 C2237 1.377 . S
C2236 C2238 1.384 . S
C2237 C2236 1.377 . S
C2237 C2243 1.390 . S
C2238 H2229 0.930 . S
C2238 C2236 1.384 . S
C2238 C2239 1.372 . S
C2239 C2238 1.372 . S
C2239 C2240 1.400 . S
C2239 C2244 1.490 . S
C2240 H2230 0.930 . S
C2240 C2239 1.400 . S
C2240 C2243 1.386 . S
H2241 C2257 0.930 . S
H2242 C2258 0.931 . S
C2243 H2231 0.929 . S
C2243 C2237 1.390 . S
C2243 C2240 1.386 . S
C2244 C2239 1.490 . S
C2244 C2246 1.395 . S
C2244 C2247 1.403 . S
H2245 C2251 0.930 . S
C2246 H2232 0.930 . S
C2246 C2244 1.395 . S
C2246 C2249 1.403 . S
C2247 C2244 1.403 . S
C2247 C2248 1.524 . S
C2247 C2251 1.400 . S
C2248 H2233 0.960 . S
C2248 H2234 0.960 . S
C2248 H2235 0.960 . S
C2248 C2247 1.524 . S
C2249 C2246 1.403 . S
C2249 C2250 1.392 . S
C2249 C2253 1.495 . S
C2250 C2249 1.392 . S
C2250 C2251 1.385 . S
C2250 C2252 1.478 . S
C2251 H2245 0.930 . S
C2251 C2247 1.400 . S
C2251 C2250 1.385 . S
C2252 C2250 1.478 . S
C2252 C2254 1.381 . S
C2252 C2258 1.383 . S
C2253 C2249 1.495 . S
C2253 H2259 0.959 . S
C2253 H2260 0.961 . S
C2253 H2261 0.960 . S
C2254 C2252 1.381 . S
C2254 C2255 1.394 . S
C2254 H2262 0.930 . S
C2255 C2254 1.394 . S
C2255 C2256 1.383 . S
C2255 H2263 0.929 . S
C2256 C2255 1.383 . S
C2256 C2257 1.377 . S
C2257 H2241 0.930 . S
C2257 C2256 1.377 . S
C2257 C2258 1.379 . S
C2258 H2242 0.931 . S
C2258 C2252 1.383 . S
C2258 C2257 1.379 . S
H2259 C2253 0.959 . S
H2260 C2253 0.961 . S
H2261 C2253 0.960 . S
H2262 C2254 0.930 . S
H2263 C2255 0.929 . S
H2264 C2272 0.929 . S
H2265 C2274 0.930 . S
H2266 C2276 0.930 . S
H2267 C2279 0.929 . S
H2268 C2282 0.930 1_554 S
H2269 C2284 0.960 . S
H2270 C2284 0.960 . S
H2271 C2284 0.960 . S
C2272 H2264 0.929 . S
C2272 C2273 1.377 . S
C2272 C2274 1.384 . S
C2273 C2272 1.377 . S
C2273 C2279 1.390 . S
C2274 H2265 0.930 . S
C2274 C2272 1.384 . S
C2274 C2275 1.372 . S
C2275 C2274 1.372 . S
C2275 C2276 1.400 . S
C2275 C2280 1.490 . S
C2276 H2266 0.930 . S
C2276 C2275 1.400 . S
C2276 C2279 1.386 . S
H2277 C2293 0.930 . S
H2278 C2294 0.931 . S
C2279 H2267 0.929 . S
C2279 C2273 1.390 . S
C2279 C2276 1.386 . S
C2280 C2275 1.490 . S
C2280 C2282 1.395 . S
C2280 C2283 1.403 . S
H2281 C2287 0.930 . S
C2282 H2268 0.930 1_556 S
C2282 C2280 1.395 . S
C2282 C2285 1.403 1_556 S
C2283 C2280 1.403 . S
C2283 C2284 1.524 . S
C2283 C2287 1.400 . S
C2284 H2269 0.960 . S
C2284 H2270 0.960 . S
C2284 H2271 0.960 . S
C2284 C2283 1.524 . S
C2285 C2282 1.403 1_554 S
C2285 C2286 1.392 1_554 S
C2285 C2289 1.495 . S
C2286 C2285 1.392 1_556 S
C2286 C2287 1.385 . S
C2286 C2288 1.478 . S
C2287 H2281 0.930 . S
C2287 C2283 1.400 . S
C2287 C2286 1.385 . S
C2288 C2286 1.478 . S
C2288 C2290 1.381 1_556 S
C2288 C2294 1.383 . S
C2289 C2285 1.495 . S
C2289 H2295 0.959 . S
C2289 H2296 0.961 . S
C2289 H2297 0.960 . S
C2290 C2288 1.381 1_554 S
C2290 C2291 1.394 . S
C2290 H2298 0.930 . S
C2291 C2290 1.394 . S
C2291 C2292 1.383 1_554 S
C2291 H2299 0.929 . S
C2292 C2291 1.383 1_556 S
C2292 C2293 1.377 . S
C2293 H2277 0.930 . S
C2293 C2292 1.377 . S
C2293 C2294 1.379 . S
C2294 H2278 0.931 . S
C2294 C2288 1.383 . S
C2294 C2293 1.379 . S
H2295 C2289 0.959 . S
H2296 C2289 0.961 . S
H2297 C2289 0.960 . S
H2298 C2290 0.930 . S
H2299 C2291 0.929 . S
H2300 C2308 0.929 . S
H2301 C2310 0.930 . S
H2302 C2312 0.930 . S
H2303 C2315 0.929 . S
H2304 C2318 0.930 . S
H2305 C2320 0.960 . S
H2306 C2320 0.960 . S
H2307 C2320 0.960 . S
C2308 H2300 0.929 . S
C2308 C2309 1.377 . S
C2308 C2310 1.384 . S
C2309 C2308 1.377 . S
C2309 C2315 1.390 . S
C2310 H2301 0.930 . S
C2310 C2308 1.384 . S
C2310 C2311 1.372 . S
C2311 C2310 1.372 . S
C2311 C2312 1.400 . S
C2311 C2316 1.490 . S
C2312 H2302 0.930 . S
C2312 C2311 1.400 . S
C2312 C2315 1.386 . S
H2313 C2329 0.930 . S
H2314 C2330 0.931 . S
C2315 H2303 0.929 . S
C2315 C2309 1.390 . S
C2315 C2312 1.386 . S
C2316 C2311 1.490 . S
C2316 C2318 1.395 . S
C2316 C2319 1.403 . S
H2317 C2323 0.930 . S
C2318 H2304 0.930 . S
C2318 C2316 1.395 . S
C2318 C2321 1.403 . S
C2319 C2316 1.403 . S
C2319 C2320 1.524 . S
C2319 C2323 1.400 . S
C2320 H2305 0.960 . S
C2320 H2306 0.960 . S
C2320 H2307 0.960 . S
C2320 C2319 1.524 . S
C2321 C2318 1.403 . S
C2321 C2322 1.392 . S
C2321 C2325 1.495 . S
C2322 C2321 1.392 . S
C2322 C2323 1.385 . S
C2322 C2324 1.478 . S
C2323 H2317 0.930 . S
C2323 C2319 1.400 . S
C2323 C2322 1.385 . S
C2324 C2322 1.478 . S
C2324 C2326 1.381 . S
C2324 C2330 1.383 . S
C2325 C2321 1.495 . S
C2325 H2331 0.959 . S
C2325 H2332 0.961 . S
C2325 H2333 0.960 . S
C2326 C2324 1.381 . S
C2326 C2327 1.394 . S
C2326 H2334 0.930 . S
C2327 C2326 1.394 . S
C2327 C2328 1.383 . S
C2327 H2335 0.929 . S
C2328 C2327 1.383 . S
C2328 C2329 1.377 . S
C2329 H2313 0.930 . S
C2329 C2328 1.377 . S
C2329 C2330 1.379 . S
C2330 H2314 0.931 . S
C2330 C2324 1.383 . S
C2330 C2329 1.379 . S
H2331 C2325 0.959 . S
H2332 C2325 0.961 . S
H2333 C2325 0.960 . S
H2334 C2326 0.930 . S
H2335 C2327 0.929 . S
H2336 C2344 0.929 . S
H2337 C2346 0.930 . S
H2338 C2348 0.930 . S
H2339 C2351 0.929 . S
H2340 C2354 0.930 . S
H2341 C2356 0.960 . S
H2342 C2356 0.960 . S
H2343 C2356 0.960 . S
C2344 H2336 0.929 . S
C2344 C2345 1.377 . S
C2344 C2346 1.384 . S
C2345 C2344 1.377 . S
C2345 C2351 1.390 . S
C2346 H2337 0.930 . S
C2346 C2344 1.384 . S
C2346 C2347 1.372 . S
C2347 C2346 1.372 . S
C2347 C2348 1.400 . S
C2347 C2352 1.490 . S
C2348 H2338 0.930 . S
C2348 C2347 1.400 . S
C2348 C2351 1.386 . S
H2349 C2365 0.930 1_556 S
H2350 C2366 0.931 . S
C2351 H2339 0.929 . S
C2351 C2345 1.390 . S
C2351 C2348 1.386 . S
C2352 C2347 1.490 . S
C2352 C2354 1.395 . S
C2352 C2355 1.403 . S
H2353 C2359 0.930 . S
C2354 H2340 0.930 . S
C2354 C2352 1.395 . S
C2354 C2357 1.403 . S
C2355 C2352 1.403 . S
C2355 C2356 1.524 . S
C2355 C2359 1.400 . S
C2356 H2341 0.960 . S
C2356 H2342 0.960 . S
C2356 H2343 0.960 . S
C2356 C2355 1.524 . S
C2357 C2354 1.403 . S
C2357 C2358 1.392 . S
C2357 C2361 1.495 . S
C2358 C2357 1.392 . S
C2358 C2359 1.385 . S
C2358 C2360 1.478 . S
C2359 H2353 0.930 . S
C2359 C2355 1.400 . S
C2359 C2358 1.385 . S
C2360 C2358 1.478 . S
C2360 C2362 1.381 . S
C2360 C2366 1.383 . S
C2361 C2357 1.495 . S
C2361 H2367 0.959 . S
C2361 H2368 0.961 . S
C2361 H2369 0.960 . S
C2362 C2360 1.381 . S
C2362 C2363 1.394 . S
C2362 H2370 0.930 . S
C2363 C2362 1.394 . S
C2363 C2364 1.383 . S
C2363 H2371 0.929 . S
C2364 C2363 1.383 . S
C2364 C2365 1.377 . S
C2365 H2349 0.930 1_554 S
C2365 C2364 1.377 . S
C2365 C2366 1.379 . S
C2366 H2350 0.931 . S
C2366 C2360 1.383 . S
C2366 C2365 1.379 . S
H2367 C2361 0.959 . S
H2368 C2361 0.961 . S
H2369 C2361 0.960 . S
H2370 C2362 0.930 . S
H2371 C2363 0.929 . S
H2372 C2380 0.929 . S
H2373 C2382 0.930 . S
H2374 C2384 0.930 . S
H2375 C2387 0.929 . S
H2376 C2390 0.930 . S
H2377 C2392 0.960 . S
H2378 C2392 0.960 . S
H2379 C2392 0.960 . S
C2380 H2372 0.929 . S
C2380 C2381 1.377 1_545 S
C2380 C2382 1.384 1_545 S
C2381 C2380 1.377 1_565 S
C2381 C2387 1.390 . S
C2382 H2373 0.930 . S
C2382 C2380 1.384 1_565 S
C2382 C2383 1.372 . S
C2383 C2382 1.372 . S
C2383 C2384 1.400 . S
C2383 C2388 1.490 . S
C2384 H2374 0.930 . S
C2384 C2383 1.400 . S
C2384 C2387 1.386 . S
H2385 C2401 0.930 . S
H2386 C2402 0.931 . S
C2387 H2375 0.929 . S
C2387 C2381 1.390 . S
C2387 C2384 1.386 . S
C2388 C2383 1.490 . S
C2388 C2390 1.395 . S
C2388 C2391 1.403 . S
H2389 C2395 0.930 . S
C2390 H2376 0.930 . S
C2390 C2388 1.395 . S
C2390 C2393 1.403 . S
C2391 C2388 1.403 . S
C2391 C2392 1.524 . S
C2391 C2395 1.400 . S
C2392 H2377 0.960 . S
C2392 H2378 0.960 . S
C2392 H2379 0.960 . S
C2392 C2391 1.524 . S
C2393 C2390 1.403 . S
C2393 C2394 1.392 . S
C2393 C2397 1.495 . S
C2394 C2393 1.392 . S
C2394 C2395 1.385 . S
C2394 C2396 1.478 . S
C2395 H2389 0.930 . S
C2395 C2391 1.400 . S
C2395 C2394 1.385 . S
C2396 C2394 1.478 . S
C2396 C2398 1.381 . S
C2396 C2402 1.383 . S
C2397 C2393 1.495 . S
C2397 H2403 0.959 . S
C2397 H2404 0.961 . S
C2397 H2405 0.960 . S
C2398 C2396 1.381 . S
C2398 C2399 1.394 . S
C2398 H2406 0.930 1_554 S
C2399 C2398 1.394 . S
C2399 C2400 1.383 . S
C2399 H2407 0.929 1_554 S
C2400 C2399 1.383 . S
C2400 C2401 1.377 . S
C2401 H2385 0.930 . S
C2401 C2400 1.377 . S
C2401 C2402 1.379 . S
C2402 H2386 0.931 . S
C2402 C2396 1.383 . S
C2402 C2401 1.379 . S
H2403 C2397 0.959 . S
H2404 C2397 0.961 . S
H2405 C2397 0.960 . S
H2406 C2398 0.930 1_556 S
H2407 C2399 0.929 1_556 S
C708 C520 1.465 . S
C689 C177 1.454 . S
C744 C533 1.490 . S
C725 C209 1.462 1_455 S
C761 C253 1.562 . S
C780 C553 1.487 . S
C816 C567 1.359 . S
C797 C157 1.428 . S
C852 C579 1.523 . S
C833 C343 1.508 . S
C888 C593 1.402 . S
C869 C401 1.379 . S
C905 C369 1.499 . S
C924 C603 1.497 . S
C960 C618 1.507 . S
C941 C317 1.486 . S
C977 C375 1.510 . S
C996 C632 1.485 . S
C1032 C651 1.365 . S
C1013 C305 1.444 . S
C1049 C349 1.492 . S
C1068 C631 1.511 . S
C1104 C649 1.421 . S
C1085 C413 1.389 . S
C1121 C241 1.593 . S
C1140 C665 1.561 . S
C1157 C151 1.429 . S
C1176 C659 1.441 . S
C1193 C189 1.494 . S
C1212 C663 1.519 . S
C1229 C215 1.507 . S
C1248 C660 1.486 . S
C1265 C113 1.490 . S
C1284 C562 1.472 . S
C1301 C471 1.444 . S
C1320 C561 1.460 . S
C1356 C525 1.382 . S
C1337 C509 1.394 . S
C1392 C539 1.573 . S
C1373 C279 1.603 . S
C1409 C145 1.480 . S
C1428 C576 1.470 . S
C1464 C621 1.559 . S
C1445 C381 1.542 . S
C1500 C575 1.485 . S
C1481 C311 1.464 1_545 S
C1536 C607 1.397 . S
C1517 C407 1.376 . S
C1572 C604 1.432 . S
C1553 C465 1.457 . S
C1589 C497 1.468 . S
C1608 C617 1.485 . S
C1625 C285 1.569 . S
C1644 C581 1.518 . S
C1680 C595 1.361 . S
C1661 C445 1.426 . S
C1697 C119 1.509 . S
C1716 C551 1.527 . S
C1752 C565 1.390 . S
C1733 C17 1.352 1_655 S
C1788 C519 1.495 . S
C1769 C49 1.501 . S
C1824 C534 1.491 . S
C1805 C93 1.495 . S
C1841 C55 1.512 . S
C1860 C646 1.504 . S
C1877 C81 1.436 . S
C1896 C637 1.397 . S
C1913 C125 1.491 . S
C1932 C645 1.513 . S
C1949 C29 1.388 . S
C1968 C635 1.422 . S
C2004 C679 1.517 . S
C1985 C273 1.600 . S
C2040 C673 1.444 . S
C2021 C439 1.430 1_554 S
C2076 C677 1.531 . S
C2057 C477 1.493 . S
C2093 C503 1.510 . S
C2112 C674 1.515 . S
C2129 C337 1.488 . S
C2148 C590 1.464 . S
C2184 C589 1.458 . S
C2165 C183 1.443 . S
C2220 C609 1.327 . S
C2201 C221 1.401 . S
C2256 C623 1.564 . S
C2237 C247 1.602 . S
C2273 C433 1.483 . S
C2292 C548 1.476 . S
C2328 C537 1.571 . S
C2309 C61 1.544 . S
C2345 C87 1.463 . S
C2364 C547 1.480 . S
C2400 C523 1.396 . S
C2381 C23 1.376 1_565 S
