# Generated by pormake.
# Topology ctn, (3,4)-cn, num edge types: 1
# Building blocks:
#     Node 0, Type 0, BuildingBlock: VETTIZ_charged_linker_0, # of connection points: 3
#     Node 1, Type 0, BuildingBlock: VETTIZ_charged_linker_0, # of connection points: 3
#     Node 2, Type 0, BuildingBlock: VETTIZ_charged_linker_0, # of connection points: 3
#     Node 3, Type 0, BuildingBlock: VETTIZ_charged_linker_0, # of connection points: 3
#     Node 4, Type 0, BuildingBlock: VETTIZ_charged_linker_0, # of connection points: 3
#     Node 5, Type 0, BuildingBlock: VETTIZ_charged_linker_0, # of connection points: 3
#     Node 6, Type 0, BuildingBlock: VETTIZ_charged_linker_0, # of connection points: 3
#     Node 7, Type 0, BuildingBlock: VETTIZ_charged_linker_0, # of connection points: 3
#     Node 8, Type 0, BuildingBlock: VETTIZ_charged_linker_0, # of connection points: 3
#     Node 9, Type 0, BuildingBlock: VETTIZ_charged_linker_0, # of connection points: 3
#     Node 10, Type 0, BuildingBlock: VETTIZ_charged_linker_0, # of connection points: 3
#     Node 11, Type 0, BuildingBlock: VETTIZ_charged_linker_0, # of connection points: 3
#     Node 12, Type 0, BuildingBlock: VETTIZ_charged_linker_0, # of connection points: 3
#     Node 13, Type 0, BuildingBlock: VETTIZ_charged_linker_0, # of connection points: 3
#     Node 14, Type 0, BuildingBlock: VETTIZ_charged_linker_0, # of connection points: 3
#     Node 15, Type 0, BuildingBlock: VETTIZ_charged_linker_0, # of connection points: 3
#     Node 16, Type 1, BuildingBlock: UXUYUI_clean_sbu_0, # of connection points: 4
#     Node 17, Type 1, BuildingBlock: UXUYUI_clean_sbu_0, # of connection points: 4
#     Node 18, Type 1, BuildingBlock: UXUYUI_clean_sbu_0, # of connection points: 4
#     Node 19, Type 1, BuildingBlock: UXUYUI_clean_sbu_0, # of connection points: 4
#     Node 20, Type 1, BuildingBlock: UXUYUI_clean_sbu_0, # of connection points: 4
#     Node 21, Type 1, BuildingBlock: UXUYUI_clean_sbu_0, # of connection points: 4
#     Node 22, Type 1, BuildingBlock: UXUYUI_clean_sbu_0, # of connection points: 4
#     Node 23, Type 1, BuildingBlock: UXUYUI_clean_sbu_0, # of connection points: 4
#     Node 24, Type 1, BuildingBlock: UXUYUI_clean_sbu_0, # of connection points: 4
#     Node 25, Type 1, BuildingBlock: UXUYUI_clean_sbu_0, # of connection points: 4
#     Node 26, Type 1, BuildingBlock: UXUYUI_clean_sbu_0, # of connection points: 4
#     Node 27, Type 1, BuildingBlock: UXUYUI_clean_sbu_0, # of connection points: 4
#     Edge 28, Type (0, 1), BuildingBlock: ZUJKAS_clean_linker_0, # of connection points: 2
#     Edge 29, Type (0, 1), BuildingBlock: ZUJKAS_clean_linker_0, # of connection points: 2
#     Edge 30, Type (0, 1), BuildingBlock: ZUJKAS_clean_linker_0, # of connection points: 2
#     Edge 31, Type (0, 1), BuildingBlock: ZUJKAS_clean_linker_0, # of connection points: 2
#     Edge 32, Type (0, 1), BuildingBlock: ZUJKAS_clean_linker_0, # of connection points: 2
#     Edge 33, Type (0, 1), BuildingBlock: ZUJKAS_clean_linker_0, # of connection points: 2
#     Edge 34, Type (0, 1), BuildingBlock: ZUJKAS_clean_linker_0, # of connection points: 2
#     Edge 35, Type (0, 1), BuildingBlock: ZUJKAS_clean_linker_0, # of connection points: 2
#     Edge 36, Type (0, 1), BuildingBlock: ZUJKAS_clean_linker_0, # of connection points: 2
#     Edge 37, Type (0, 1), BuildingBlock: ZUJKAS_clean_linker_0, # of connection points: 2
#     Edge 38, Type (0, 1), BuildingBlock: ZUJKAS_clean_linker_0, # of connection points: 2
#     Edge 39, Type (0, 1), BuildingBlock: ZUJKAS_clean_linker_0, # of connection points: 2
#     Edge 40, Type (0, 1), BuildingBlock: ZUJKAS_clean_linker_0, # of connection points: 2
#     Edge 41, Type (0, 1), BuildingBlock: ZUJKAS_clean_linker_0, # of connection points: 2
#     Edge 42, Type (0, 1), BuildingBlock: ZUJKAS_clean_linker_0, # of connection points: 2
#     Edge 43, Type (0, 1), BuildingBlock: ZUJKAS_clean_linker_0, # of connection points: 2
#     Edge 44, Type (0, 1), BuildingBlock: ZUJKAS_clean_linker_0, # of connection points: 2
#     Edge 45, Type (0, 1), BuildingBlock: ZUJKAS_clean_linker_0, # of connection points: 2
#     Edge 46, Type (0, 1), BuildingBlock: ZUJKAS_clean_linker_0, # of connection points: 2
#     Edge 47, Type (0, 1), BuildingBlock: ZUJKAS_clean_linker_0, # of connection points: 2
#     Edge 48, Type (0, 1), BuildingBlock: ZUJKAS_clean_linker_0, # of connection points: 2
#     Edge 49, Type (0, 1), BuildingBlock: ZUJKAS_clean_linker_0, # of connection points: 2
#     Edge 50, Type (0, 1), BuildingBlock: ZUJKAS_clean_linker_0, # of connection points: 2
#     Edge 51, Type (0, 1), BuildingBlock: ZUJKAS_clean_linker_0, # of connection points: 2
#     Edge 52, Type (0, 1), BuildingBlock: ZUJKAS_clean_linker_0, # of connection points: 2
#     Edge 53, Type (0, 1), BuildingBlock: ZUJKAS_clean_linker_0, # of connection points: 2
#     Edge 54, Type (0, 1), BuildingBlock: ZUJKAS_clean_linker_0, # of connection points: 2
#     Edge 55, Type (0, 1), BuildingBlock: ZUJKAS_clean_linker_0, # of connection points: 2
#     Edge 56, Type (0, 1), BuildingBlock: ZUJKAS_clean_linker_0, # of connection points: 2
#     Edge 57, Type (0, 1), BuildingBlock: ZUJKAS_clean_linker_0, # of connection points: 2
#     Edge 58, Type (0, 1), BuildingBlock: ZUJKAS_clean_linker_0, # of connection points: 2
#     Edge 59, Type (0, 1), BuildingBlock: ZUJKAS_clean_linker_0, # of connection points: 2
#     Edge 60, Type (0, 1), BuildingBlock: ZUJKAS_clean_linker_0, # of connection points: 2
#     Edge 61, Type (0, 1), BuildingBlock: ZUJKAS_clean_linker_0, # of connection points: 2
#     Edge 62, Type (0, 1), BuildingBlock: ZUJKAS_clean_linker_0, # of connection points: 2
#     Edge 63, Type (0, 1), BuildingBlock: ZUJKAS_clean_linker_0, # of connection points: 2
#     Edge 64, Type (0, 1), BuildingBlock: ZUJKAS_clean_linker_0, # of connection points: 2
#     Edge 65, Type (0, 1), BuildingBlock: ZUJKAS_clean_linker_0, # of connection points: 2
#     Edge 66, Type (0, 1), BuildingBlock: ZUJKAS_clean_linker_0, # of connection points: 2
#     Edge 67, Type (0, 1), BuildingBlock: ZUJKAS_clean_linker_0, # of connection points: 2
#     Edge 68, Type (0, 1), BuildingBlock: ZUJKAS_clean_linker_0, # of connection points: 2
#     Edge 69, Type (0, 1), BuildingBlock: ZUJKAS_clean_linker_0, # of connection points: 2
#     Edge 70, Type (0, 1), BuildingBlock: ZUJKAS_clean_linker_0, # of connection points: 2
#     Edge 71, Type (0, 1), BuildingBlock: ZUJKAS_clean_linker_0, # of connection points: 2
#     Edge 72, Type (0, 1), BuildingBlock: ZUJKAS_clean_linker_0, # of connection points: 2
#     Edge 73, Type (0, 1), BuildingBlock: ZUJKAS_clean_linker_0, # of connection points: 2
#     Edge 74, Type (0, 1), BuildingBlock: ZUJKAS_clean_linker_0, # of connection points: 2
#     Edge 75, Type (0, 1), BuildingBlock: ZUJKAS_clean_linker_0, # of connection points: 2
# Relax obj value: 0.000
# Max RMSD: 0.002
# Mean RMSD: 0.001
data_MOF--net-ctn--node1-UXUYUI_clean_sbu_0--node2-VETTIZ_charged_linker_0--edge1-ZUJKAS_clean_linker_0
_symmetry_space_group_name_H-M    P1
_symmetry_Int_Tables_number       1
_symmetry_cell_setting            triclinic
loop_
_symmetry_equiv_pos_as_xyz
'x, y, z'
_cell_length_a     96.93122
_cell_length_b     96.917843
_cell_length_c     96.917239
_cell_angle_alpha  89.98865
_cell_angle_beta   90.000822
_cell_angle_gamma 89.991608
loop_
_atom_site_label
_atom_site_type_symbol
_atom_site_fract_x
_atom_site_fract_y
_atom_site_fract_z
_atom_type_partial_charge
C0 C 0.03685 0.07605 0.00515 0.0
C1 C 0.02616 0.08576 0.00672 0.0
C2 C 0.01663 0.08401 0.01758 0.0
C3 C 0.02847 0.06326 0.02502 0.0
C4 C 0.0378 0.06495 0.01437 0.0
C5 C 0.04861 0.05381 0.01422 0.0
H6 H 0.07489 0.99541 0.04217 0.0
C7 C 0.03236 0.05068 0.03274 0.0
C8 C 0.04415 0.04509 0.02645 0.0
H9 H 0.09073 0.01898 0.00771 0.0
H10 H 0.07191 0.03506 0.00987 0.0
H11 H 0.06823 0.02188 0.06108 0.0
H12 H 0.04311 0.99729 0.03396 0.0
H13 H 0.03297 1.00121 0.04845 0.0
H14 H 0.04854 0.99121 0.05059 0.0
H15 H 0.06301 0.0046 0.06524 0.0
H16 H 0.05232 0.01926 0.06934 0.0
C17 C 0.06287 0.06065 0.01662 0.0
C18 C 0.04733 0.04583 1.00043 0.0
C19 C 0.00425 0.03582 0.07452 0.0
C20 C 0.00525 0.02455 0.08364 0.0
C21 C 0.01575 0.0147 0.08148 0.0
C22 C 0.02516 0.01612 0.0706 0.0
C23 C 0.02411 0.02751 0.06168 0.0
C24 C 0.01372 0.03706 0.06365 0.0
C25 C 0.01405 0.04837 0.05301 0.0
C26 C 0.02645 0.0441 0.04444 0.0
C27 C 0.03233 0.0319 0.0496 0.0
C28 C 0.01652 0.06224 0.06056 0.0
C29 C 1.00046 0.04772 0.04462 0.0
C30 C 0.0744 0.00408 0.03515 0.0
C31 C 0.08436 0.00584 0.02473 0.0
C32 C 0.08312 0.0172 0.0157 0.0
C33 C 0.07222 0.02662 0.01704 0.0
C34 C 0.06242 0.02475 0.02755 0.0
C35 C 0.06362 0.01363 0.0364 0.0
C36 C 0.05239 0.01341 0.04711 0.0
C37 C 0.04427 0.02624 0.04325 0.0
C38 C 0.05016 0.03282 0.03177 0.0
C39 C 0.05923 0.01476 0.0615 0.0
C40 C 0.0438 1.00007 0.04508 0.0
H41 H 0.01014 0.07211 0.03474 0.0
H42 H 0.04445 0.07717 0.99704 0.0
H43 H 0.03631 0.04455 0.99749 0.0
H44 H 0.05149 0.03525 1.00099 0.0
H45 H 0.05257 0.05145 0.99192 0.0
H46 H 0.06196 0.06977 0.02353 0.0
H47 H 0.06747 0.06422 0.00675 0.0
H48 H 0.07026 0.05377 0.02191 0.0
H49 H 0.9964 0.04366 0.07589 0.0
H50 H 0.01663 0.00578 0.08815 0.0
H51 H 0.03289 0.00827 0.06955 0.0
H52 H 0.02384 0.06088 0.0693 0.0
H53 H 0.00674 0.06641 0.06484 0.0
H54 H 0.02132 0.07015 0.05391 0.0
H55 H 0.99686 0.03688 0.04344 0.0
H56 H 1.00164 0.05154 0.03394 0.0
H57 H 0.9921 0.0536 0.04981 0.0
H58 H 0.00819 0.09122 0.01893 0.0
C59 C 0.01772 0.07285 0.02671 0.0
C60 C 0.26211 0.67608 0.22875 0.0
C61 C 0.2507 0.67299 0.22031 0.0
C62 C 0.24764 0.68185 0.20916 0.0
C63 C 0.26723 0.69631 0.21486 0.0
C64 C 0.27017 0.68774 0.22587 0.0
C65 C 0.28263 0.69247 0.23383 0.0
H66 H 0.33513 0.73796 0.2415 0.0
C67 C 0.27766 0.70745 0.21464 0.0
C68 C 0.28669 0.70528 0.22577 0.0
H69 H 0.32573 0.70232 0.26667 0.0
H70 H 0.30582 0.69743 0.25259 0.0
H71 H 0.30428 0.74869 0.23876 0.0
H72 H 0.32909 0.72313 0.21226 0.0
H73 H 0.32017 0.73488 0.20172 0.0
H74 H 0.33215 0.74126 0.21443 0.0
H75 H 0.31778 0.75567 0.2282 0.0
H76 H 0.30045 0.75352 0.22173 0.0
C77 C 0.278 0.696 0.24872 0.0
C78 C 0.29377 0.68104 0.2329 0.0
C79 C 0.27645 0.74372 0.17671 0.0
C80 C 0.28474 0.75529 0.17378 0.0
C81 C 0.29582 0.7584 0.1827 0.0
C82 C 0.29868 0.7501 0.19419 0.0
C83 C 0.29038 0.73853 0.19689 0.0
C84 C 0.27942 0.73556 0.18827 0.0
C85 C 0.2716 0.72295 0.19286 0.0
C86 C 0.27974 0.7188 0.20559 0.0
C87 C 0.29076 0.72793 0.20786 0.0
C88 C 0.25667 0.72739 0.19649 0.0
C89 C 0.27263 0.71198 0.18128 0.0
C90 C 0.32885 0.72904 0.24392 0.0
C91 C 0.33205 0.72051 0.25523 0.0
C92 C 0.32343 0.70915 0.25813 0.0
C93 C 0.31191 0.70627 0.24987 0.0
C94 C 0.30891 0.71483 0.23856 0.0
C95 C 0.31729 0.72603 0.23578 0.0
C96 C 0.31249 0.73403 0.22337 0.0
C97 C 0.29989 0.72575 0.21912 0.0
C98 C 0.29786 0.71451 0.22803 0.0
C99 C 0.30861 0.7488 0.22813 0.0
C100 C 0.32404 0.73344 0.21233 0.0
H101 H 0.25293 0.69973 0.19775 0.0
H102 H 0.26488 0.66946 0.23732 0.0
H103 H 0.29367 0.67608 0.22254 0.0
H104 H 0.30437 0.68502 0.23412 0.0
H105 H 0.29194 0.67284 0.2407 0.0
H106 H 0.26745 0.70054 0.24876 0.0
H107 H 0.27777 0.68663 0.25531 0.0
H108 H 0.28456 0.70389 0.25367 0.0
H109 H 0.26793 0.74093 0.17004 0.0
H110 H 0.30223 0.76737 0.18088 0.0
H111 H 0.30725 0.75304 0.20054 0.0
H112 H 0.25646 0.73802 0.20081 0.0
H113 H 0.24995 0.72729 0.18721 0.0
H114 H 0.25196 0.7209 0.20459 0.0
H115 H 0.28307 0.71207 0.17651 0.0
H116 H 0.27122 0.70134 0.18507 0.0
H117 H 0.26499 0.71402 0.17299 0.0
H118 H 0.23879 0.6799 0.20262 0.0
C119 C 0.25582 0.69344 0.20639 0.0
C120 C 0.97934 0.42756 0.01037 0.0
C121 C 0.97077 0.42454 0.99904 0.0
C122 C 0.95947 0.4333 0.99627 0.0
C123 C 0.96528 0.44754 0.016 0.0
C124 C 0.97642 0.43905 0.01866 0.0
C125 C 0.98445 0.44365 0.03113 0.0
H126 H 0.99164 0.48773 0.08491 0.0
C127 C 0.96502 0.45847 0.02665 0.0
C128 C 0.97625 0.45625 0.03554 0.0
H129 H 0.01778 0.45328 0.07395 0.0
H130 H 0.00355 0.4486 0.05406 0.0
H131 H 0.96258 0.47257 0.07839 0.0
H132 H 0.98862 0.4994 0.05443 0.0
H133 H 0.97151 0.50401 0.05071 0.0
H134 H 0.9779 0.50577 0.06812 0.0
H135 H 0.96453 0.49061 0.08211 0.0
H136 H 0.95187 0.48451 0.06993 0.0
C137 C 0.98381 0.43198 0.04204 0.0
C138 C 0.99924 0.44749 0.02642 0.0
C139 C 0.92691 0.49457 0.02618 0.0
C140 C 0.92387 0.50588 0.03477 0.0
C141 C 0.93261 0.50865 0.04607 0.0
C142 C 0.94411 0.50031 0.04881 0.0
C143 C 0.94697 0.48903 0.04017 0.0
C144 C 0.93846 0.48634 0.02905 0.0
C145 C 0.94313 0.47394 0.02096 0.0
C146 C 0.95585 0.46965 0.02904 0.0
C147 C 0.95802 0.4785 0.0403 0.0
C148 C 0.93159 0.4629 0.02169 0.0
C149 C 0.94679 0.47874 0.00615 0.0
C150 C 0.99423 0.47911 0.07827 0.0
C151 C 0.00582 0.47083 0.08104 0.0
C152 C 0.00897 0.45988 0.07199 0.0
C153 C 1.00065 0.45713 0.06048 0.0
C154 C 0.98904 0.46544 0.05791 0.0
C155 C 0.98606 0.47628 0.06668 0.0
C156 C 0.9735 0.4842 0.06218 0.0
C157 C 0.96934 0.47625 0.04934 0.0
C158 C 0.97844 0.46523 0.04693 0.0
C159 C 0.9625 0.48306 0.07373 0.0
C160 C 0.97798 0.49917 0.05875 0.0
H161 H 0.94794 0.45096 1.00199 0.0
H162 H 0.98803 0.421 0.0129 0.0
H163 H 0.99916 0.45198 0.01584 0.0
H164 H 0.00401 0.45554 0.03292 0.0
H165 H 0.00605 0.43828 0.02622 0.0
H166 H 0.97343 0.42707 0.04214 0.0
H167 H 0.9915 0.42379 0.03978 0.0
H168 H 0.98539 0.4357 0.05268 0.0
H169 H 0.92036 0.49203 0.0175 0.0
H170 H 0.93067 0.5174 0.05274 0.0
H171 H 0.95033 0.503 0.05756 0.0
H172 H 0.9265 0.46297 0.03198 0.0
H173 H 0.9235 0.46485 0.0138 0.0
H174 H 0.93549 0.45227 0.02046 0.0
H175 H 0.95142 0.48924 0.00627 0.0
H176 H 0.95464 0.47216 1.00116 0.0
H177 H 0.93746 0.47914 0.99951 0.0
H178 H 0.95282 0.43138 0.9875 0.0
C179 C 0.95669 0.44474 0.00466 0.0
C180 C 0.67943 0.78752 0.24977 0.0
C181 C 0.67006 0.77651 0.24855 0.0
C182 C 0.67201 0.76675 0.23794 0.0
C183 C 0.69236 0.77898 0.23007 0.0
C184 C 0.69048 0.78851 0.24051 0.0
C185 C 0.70152 0.79943 0.24055 0.0
H186 H 0.76005 0.82561 0.21279 0.0
C187 C 0.70492 0.7829 0.22232 0.0
C188 C 0.71038 0.79482 0.22847 0.0
H189 H 0.73609 0.84172 0.24685 0.0
H190 H 0.7201 0.82285 0.24472 0.0
H191 H 0.73349 0.81836 0.19365 0.0
H192 H 0.75837 0.79408 0.22131 0.0
H193 H 0.75442 0.78353 0.20713 0.0
H194 H 0.76437 0.79906 0.20452 0.0
H195 H 0.751 0.81365 0.18989 0.0
H196 H 0.7368 0.80246 0.1856 0.0
C197 C 0.69457 0.81357 0.23782 0.0
C198 C 0.70941 0.79848 0.25443 0.0
C199 C 0.71985 0.75466 0.18068 0.0
C200 C 0.73129 0.75546 0.1718 0.0
C201 C 0.74128 0.76578 0.17404 0.0
C202 C 0.7398 0.7753 0.18483 0.0
C203 C 0.72824 0.77447 0.19356 0.0
C204 C 0.7186 0.76416 0.19151 0.0
C205 C 0.7073 0.7645 0.20216 0.0
C206 C 0.71158 0.77691 0.21072 0.0
C207 C 0.72379 0.78276 0.20557 0.0
C208 C 0.69343 0.76697 0.19462 0.0
C209 C 0.70793 0.7509 0.21058 0.0
C210 C 0.7513 0.82516 0.21973 0.0
C211 C 0.74942 0.83522 0.23004 0.0
C212 C 0.73797 0.83404 0.23896 0.0
C213 C 0.7286 0.8231 0.23764 0.0
C214 C 0.73061 0.81318 0.22726 0.0
C215 C 0.7418 0.81433 0.2185 0.0
C216 C 0.74218 0.80295 0.20795 0.0
C217 C 0.72936 0.7948 0.21181 0.0
C218 C 0.72265 0.80083 0.22315 0.0
C219 C 0.7409 0.80959 0.19346 0.0
C220 C 0.75554 0.79446 0.21019 0.0
H221 H 0.68394 0.76022 0.22082 0.0
H222 H 0.67832 0.7951 0.25791 0.0
H223 H 0.71057 0.78754 0.25772 0.0
H224 H 0.72005 0.80249 0.2538 0.0
H225 H 0.70381 0.80404 0.26274 0.0
H226 H 0.68564 0.81245 0.23069 0.0
H227 H 0.69068 0.81821 0.24755 0.0
H228 H 0.70148 0.821 0.23264 0.0
H229 H 0.71214 0.74668 0.17935 0.0
H230 H 0.75015 0.76662 0.16729 0.0
H231 H 0.7477 0.78297 0.18594 0.0
H232 H 0.6947 0.77476 0.18628 0.0
H233 H 0.68959 0.7573 0.18982 0.0
H234 H 0.68533 0.77116 0.20142 0.0
H235 H 0.71866 0.74685 0.21115 0.0
H236 H 0.70482 0.75229 0.22146 0.0
H237 H 0.70143 0.74276 0.2058 0.0
H238 H 0.66486 0.75825 0.23668 0.0
C239 C 0.68307 0.76794 0.22869 0.0
C240 C 0.03694 0.92836 0.4985 0.0
C241 C 0.02599 0.91894 0.49703 0.0
C242 C 0.01643 0.92094 0.48623 0.0
C243 C 0.02876 0.94136 0.47868 0.0
C244 C 0.0381 0.93944 0.48928 0.0
C245 C 0.04912 0.95038 0.48942 0.0
H246 H 0.07639 0.00843 0.46159 0.0
C247 C 0.03287 0.95386 0.47096 0.0
C248 C 0.04478 0.95923 0.47723 0.0
H249 H 0.09162 0.98474 0.4962 0.0
H250 H 0.07273 0.96873 0.49377 0.0
H251 H 0.04418 0.00691 0.46988 0.0
H252 H 0.06932 0.98236 0.44271 0.0
H253 H 0.05341 0.98494 0.43446 0.0
H254 H 0.06409 0.99962 0.43852 0.0
H255 H 0.05004 0.01315 0.45346 0.0
H256 H 0.03427 0.00338 0.45512 0.0
C257 C 0.04803 0.95834 0.50324 0.0
C258 C 0.06324 0.94329 0.48695 0.0
C259 C 0.00509 0.96909 0.42912 0.0
C260 C 0.00627 0.98031 0.41996 0.0
C261 C 0.01692 0.99001 0.42212 0.0
C262 C 0.02628 0.98848 0.43304 0.0
C263 C 0.02503 0.97715 0.44199 0.0
C264 C 0.0145 0.96775 0.44001 0.0
C265 C 0.01462 0.95647 0.45068 0.0
C266 C 0.02708 0.96055 0.45927 0.0
C267 C 0.03315 0.97264 0.4541 0.0
C268 C 1.00102 0.95737 0.45906 0.0
C269 C 0.01687 0.94253 0.44318 0.0
C270 C 0.07557 0.99987 0.46873 0.0
C271 C 0.08551 0.99786 0.47911 0.0
C272 C 0.08418 0.98644 0.48803 0.0
C273 C 0.07315 0.97718 0.48664 0.0
C274 C 0.06334 0.97928 0.47617 0.0
C275 C 0.06467 0.99046 0.46741 0.0
C276 C 0.05347 0.99086 0.45667 0.0
C277 C 0.04517 0.97812 0.46047 0.0
C278 C 0.05098 0.97141 0.47193 0.0
C279 C 0.04504 0.00429 0.45873 0.0
C280 C 0.06032 0.98947 0.44229 0.0
H281 H 0.01013 0.93298 0.4691 0.0
H282 H 0.04458 0.92707 0.50656 0.0
H283 H 0.06214 0.93425 0.47996 0.0
H284 H 0.07076 0.95008 0.48172 0.0
H285 H 0.06777 0.93954 0.49678 0.0
H286 H 0.03705 0.95977 0.50627 0.0
H287 H 0.05326 0.95264 0.5117 0.0
H288 H 0.05231 0.96888 0.50268 0.0
H289 H 0.99713 0.96137 0.42775 0.0
H290 H 0.01795 0.9989 0.41542 0.0
H291 H 0.03413 0.99621 0.43408 0.0
H292 H 0.99746 0.96824 0.45998 0.0
H293 H 0.99265 0.9514 0.454 0.0
H294 H 1.00219 0.9538 0.46982 0.0
H295 H 0.02436 0.94372 0.43456 0.0
H296 H 0.02136 0.93451 0.4499 0.0
H297 H 0.00706 0.93861 0.43875 0.0
H298 H 0.00778 0.91399 0.48495 0.0
C299 C 0.01776 0.93205 0.47707 0.0
C300 C 0.24967 0.6791 0.78536 0.0
C301 C 0.24815 0.66969 0.7744 0.0
C302 C 0.23727 0.67168 0.76492 0.0
C303 C 0.22967 0.69198 0.77743 0.0
C304 C 0.24039 0.69012 0.78664 0.0
C305 C 0.24061 0.70104 0.79767 0.0
H306 H 0.21171 0.75775 0.82647 0.0
C307 C 0.22183 0.70434 0.78175 0.0
C308 C 0.22823 0.70973 0.79358 0.0
H309 H 0.24831 0.73582 0.83959 0.0
H310 H 0.24568 0.71984 0.82075 0.0
H311 H 0.19368 0.73098 0.81923 0.0
H312 H 0.21917 0.75742 0.79428 0.0
H313 H 0.20458 0.7533 0.78438 0.0
H314 H 0.20249 0.76267 0.80034 0.0
H315 H 0.18878 0.74828 0.81478 0.0
H316 H 0.18487 0.73389 0.80365 0.0
C317 C 0.23848 0.69388 0.81181 0.0
C318 C 0.25431 0.70919 0.79636 0.0
C319 C 0.17922 0.71909 0.75486 0.0
C320 C 0.16977 0.73002 0.75647 0.0
C321 C 0.17176 0.73945 0.76738 0.0
C322 C 0.18283 0.73798 0.77657 0.0
C323 C 0.1921 0.72697 0.77487 0.0
C324 C 0.19025 0.71779 0.76412 0.0
C325 C 0.20118 0.70676 0.76388 0.0
C326 C 0.20986 0.71081 0.77628 0.0
C327 C 0.20447 0.72264 0.78269 0.0
C328 C 0.19403 0.69262 0.76597 0.0
C329 C 0.20933 0.7081 0.75019 0.0
C330 C 0.21924 0.7496 0.82522 0.0
C331 C 0.23021 0.74806 0.83463 0.0
C332 C 0.23964 0.73714 0.83267 0.0
C333 C 0.23815 0.72791 0.82164 0.0
C334 C 0.22711 0.72955 0.81239 0.0
C335 C 0.21792 0.74029 0.81424 0.0
C336 C 0.20688 0.74051 0.80333 0.0
C337 C 0.21094 0.7281 0.79466 0.0
C338 C 0.22277 0.7217 0.80005 0.0
C339 C 0.19275 0.7384 0.81052 0.0
C340 C 0.20819 0.75419 0.79515 0.0
H341 H 0.22001 0.68365 0.75882 0.0
H342 H 0.25779 0.67785 0.79292 0.0
H343 H 0.25761 0.70996 0.78538 0.0
H344 H 0.25341 0.71999 0.79987 0.0
H345 H 0.26276 0.70404 0.80215 0.0
H346 H 0.23095 0.68527 0.81091 0.0
H347 H 0.24832 0.68951 0.81573 0.0
H348 H 0.2341 0.70081 0.81971 0.0
H349 H 0.17796 0.71157 0.7467 0.0
H350 H 0.16481 0.74809 0.76876 0.0
H351 H 0.18373 0.7455 0.78463 0.0
H352 H 0.1854 0.69349 0.7735 0.0
H353 H 0.18967 0.68871 0.75612 0.0
H354 H 0.20095 0.68471 0.77035 0.0
H355 H 0.21018 0.71909 0.74697 0.0
H356 H 0.22011 0.7045 0.75106 0.0
H357 H 0.20414 0.70241 0.74171 0.0
H358 H 0.23596 0.66476 0.75624 0.0
C359 C 0.22805 0.68273 0.76638 0.0
C360 C 0.92598 0.51153 0.47831 0.0
C361 C 0.92284 0.50021 0.46977 0.0
C362 C 0.93152 0.49734 0.45845 0.0
C363 C 0.94607 0.51683 0.46429 0.0
C364 C 0.93758 0.51965 0.47539 0.0
C365 C 0.94233 0.53205 0.48342 0.0
H366 H 0.98822 0.58406 0.49195 0.0
C367 C 0.95725 0.52723 0.46415 0.0
C368 C 0.95513 0.53616 0.47536 0.0
H369 H 0.95191 0.57511 0.51628 0.0
H370 H 0.94693 0.55542 0.50192 0.0
H371 H 0.97396 0.57853 0.4626 0.0
H372 H 0.99852 0.55262 0.48903 0.0
H373 H 0.00365 0.54923 0.47199 0.0
H374 H 0.00592 0.56632 0.47902 0.0
H375 H 0.99215 0.58108 0.46498 0.0
H376 H 0.98557 0.56944 0.45206 0.0
C377 C 0.93089 0.54321 0.48259 0.0
C378 C 0.9459 0.52731 0.49826 0.0
C379 C 0.99369 0.52604 0.4264 0.0
C380 C 0.00543 0.53415 0.42367 0.0
C381 C 0.00872 0.54498 0.43285 0.0
C382 C 1.00042 0.54779 0.44435 0.0
C383 C 0.98866 0.53969 0.44681 0.0
C384 C 0.98554 0.52894 0.43799 0.0
C385 C 0.9728 0.52123 0.4424 0.0
C386 C 0.96869 0.52925 0.45522 0.0
C387 C 0.97799 0.54009 0.45772 0.0
C388 C 0.96189 0.52256 0.43079 0.0
C389 C 0.97702 0.50619 0.44585 0.0
C390 C 0.97927 0.57777 0.49425 0.0
C391 C 0.97044 0.58116 0.50526 0.0
C392 C 0.95879 0.57282 0.50777 0.0
C393 C 0.95594 0.56134 0.49945 0.0
C394 C 0.96479 0.55815 0.48842 0.0
C395 C 0.97623 0.56631 0.48596 0.0
C396 C 0.98431 0.56151 0.47361 0.0
C397 C 0.97585 0.54913 0.46906 0.0
C398 C 0.96446 0.54719 0.4778 0.0
C399 C 0.98414 0.57321 0.46271 0.0
C400 C 0.99892 0.55726 0.47854 0.0
H401 H 0.94922 0.50286 0.44686 0.0
H402 H 0.91964 0.51396 0.48719 0.0
H403 H 0.95093 0.51698 0.49814 0.0
H404 H 0.95338 0.53415 0.50346 0.0
H405 H 0.93647 0.52651 0.50472 0.0
H406 H 0.9254 0.54275 0.47252 0.0
H407 H 0.92309 0.54176 0.49086 0.0
H408 H 0.93499 0.55383 0.48314 0.0
H409 H 0.99075 0.51771 0.41956 0.0
H410 H 0.01783 0.55124 0.43122 0.0
H411 H 0.00349 0.55617 0.45088 0.0
H412 H 0.9622 0.53304 0.4261 0.0
H413 H 0.96382 0.51495 0.42244 0.0
H414 H 0.95121 0.52132 0.43454 0.0
H415 H 0.98758 0.5058 0.45033 0.0
H416 H 0.97036 0.50141 0.45377 0.0
H417 H 0.97699 0.49963 0.43645 0.0
H418 H 0.92925 0.48881 0.45158 0.0
C419 C 0.94308 0.50557 0.45567 0.0
C420 C 0.7861 0.75358 0.82442 0.0
C421 C 0.77546 0.75522 0.83418 0.0
C422 C 0.76621 0.76636 0.83265 0.0
C423 C 0.77824 0.77393 0.81205 0.0
C424 C 0.78729 0.76301 0.81352 0.0
C425 C 0.79806 0.76278 0.80234 0.0
H426 H 0.82611 0.79212 0.74544 0.0
C427 C 0.78238 0.78187 0.79969 0.0
C428 C 0.794 0.77538 0.79395 0.0
H429 H 0.8395 0.75536 0.76691 0.0
H430 H 0.82073 0.75775 0.78305 0.0
H431 H 0.81938 0.81007 0.77283 0.0
H432 H 0.79405 0.78502 0.74631 0.0
H433 H 0.78421 0.79953 0.75085 0.0
H434 H 0.8 0.80181 0.74124 0.0
H435 H 0.81496 0.81506 0.75555 0.0
H436 H 0.80388 0.81903 0.76995 0.0
C437 C 0.81238 0.76455 0.80923 0.0
C438 C 0.79634 0.74925 0.794 0.0
C439 C 0.75524 0.82456 0.7857 0.0
C440 C 0.75656 0.83399 0.77473 0.0
C441 C 0.76734 0.83214 0.76513 0.0
C442 C 0.77664 0.82113 0.76643 0.0
C443 C 0.77519 0.81181 0.77744 0.0
C444 C 0.7646 0.81359 0.78683 0.0
C445 C 0.76458 0.80261 0.7978 0.0
C446 C 0.77689 0.79395 0.79346 0.0
C447 C 0.78309 0.79941 0.78155 0.0
C448 C 0.76695 0.8097 0.81194 0.0
C449 C 0.75086 0.79448 0.79669 0.0
C450 C 0.82506 0.78465 0.75369 0.0
C451 C 0.83434 0.77355 0.7549 0.0
C452 C 0.83243 0.76393 0.76565 0.0
C453 C 0.82156 0.76538 0.77508 0.0
C454 C 0.81243 0.77657 0.77379 0.0
C455 C 0.81421 0.78593 0.76317 0.0
C456 C 0.80337 0.79704 0.76327 0.0
C457 C 0.79489 0.7929 0.77578 0.0
C458 C 0.80027 0.78093 0.78192 0.0
C459 C 0.81068 0.8111 0.76541 0.0
C460 C 0.79497 0.79595 0.74971 0.0
H461 H 0.76019 0.78395 0.82115 0.0
H462 H 0.79329 0.74506 0.82515 0.0
H463 H 0.78528 0.74626 0.79328 0.0
H464 H 0.79978 0.75023 0.78318 0.0
H465 H 0.80196 0.74058 0.79896 0.0
H466 H 0.81178 0.77183 0.81808 0.0
H467 H 0.8163 0.75454 0.81321 0.0
H468 H 0.82017 0.76907 0.80226 0.0
H469 H 0.74699 0.82557 0.79316 0.0
H470 H 0.7687 0.83933 0.75669 0.0
H471 H 0.78463 0.82034 0.75881 0.0
H472 H 0.77415 0.81859 0.81091 0.0
H473 H 0.75712 0.81369 0.81627 0.0
H474 H 0.77188 0.80285 0.81959 0.0
H475 H 0.74763 0.79339 0.78572 0.0
H476 H 0.75169 0.78379 0.80056 0.0
H477 H 0.74241 0.79984 0.80228 0.0
H478 H 0.75805 0.76801 0.8401 0.0
C479 C 0.76753 0.77568 0.82167 0.0
C480 C 0.28583 0.25356 0.32476 0.0
C481 C 0.27486 0.25479 0.33419 0.0
C482 C 0.26522 0.26556 0.33239 0.0
C483 C 0.27757 0.2736 0.31217 0.0
C484 C 0.28695 0.263 0.31387 0.0
C485 C 0.29792 0.26306 0.30288 0.0
H486 H 0.3256 0.29262 0.24591 0.0
C487 C 0.2817 0.28163 0.29986 0.0
C488 C 0.2936 0.27547 0.29434 0.0
H489 H 0.33998 0.25658 0.26797 0.0
H490 H 0.32105 0.25862 0.28397 0.0
H491 H 0.31844 0.31062 0.27308 0.0
H492 H 0.29371 0.2848 0.24674 0.0
H493 H 0.28362 0.29922 0.251 0.0
H494 H 0.29945 0.3016 0.24149 0.0
H495 H 0.3138 0.31548 0.25582 0.0
H496 H 0.3027 0.31917 0.27028 0.0
C497 C 0.31206 0.26533 0.30998 0.0
C498 C 0.29677 0.24942 0.2946 0.0
C499 C 0.25398 0.32388 0.28566 0.0
C500 C 0.25527 0.33336 0.27473 0.0
C501 C 0.2661 0.33163 0.26516 0.0
C502 C 0.27551 0.32073 0.26649 0.0
C503 C 0.27413 0.31139 0.2775 0.0
C504 C 0.26346 0.31302 0.28682 0.0
C505 C 0.26349 0.302 0.29776 0.0
C506 C 0.27599 0.29356 0.29353 0.0
C507 C 0.28221 0.29914 0.28168 0.0
C508 C 0.26559 0.30909 0.31193 0.0
C509 C 0.24992 0.29364 0.29647 0.0
C510 C 0.32474 0.28523 0.25426 0.0
C511 C 0.33433 0.27442 0.25566 0.0
C512 C 0.33266 0.26491 0.26654 0.0
C513 C 0.32169 0.26616 0.27589 0.0
C514 C 0.31223 0.27704 0.27438 0.0
C515 C 0.31382 0.28632 0.26367 0.0
C516 C 0.30271 0.29717 0.26361 0.0
C517 C 0.29424 0.2929 0.27608 0.0
C518 C 0.29988 0.28113 0.28236 0.0
C519 C 0.30967 0.31141 0.26571 0.0
C520 C 0.29444 0.29578 0.25 0.0
H521 H 0.25889 0.28293 0.32073 0.0
H522 H 0.2933 0.24531 0.32573 0.0
H523 H 0.28583 0.24605 0.29374 0.0
H524 H 0.30033 0.25045 0.28383 0.0
H525 H 0.30261 0.24098 0.2997 0.0
H526 H 0.31109 0.27269 0.31874 0.0
H527 H 0.3162 0.25549 0.31416 0.0
H528 H 0.31982 0.27 0.30309 0.0
H529 H 0.24568 0.3248 0.29308 0.0
H530 H 0.26742 0.33886 0.25674 0.0
H531 H 0.28354 0.32004 0.25891 0.0
H532 H 0.273 0.31781 0.31106 0.0
H533 H 0.25571 0.3133 0.31593 0.0
H534 H 0.27011 0.30217 0.31977 0.0
H535 H 0.24656 0.29291 0.28552 0.0
H536 H 0.25103 0.28282 0.29988 0.0
H537 H 0.24143 0.29859 0.30237 0.0
H538 H 0.25676 0.26684 0.33958 0.0
C539 C 0.26652 0.27495 0.32147 0.0
C540 C 0.47972 0.92638 0.51097 0.0
C541 C 0.47108 0.92312 0.49976 0.0
C542 C 0.4596 0.93167 0.49705 0.0
C543 C 0.46547 0.94624 0.51652 0.0
C544 C 0.47672 0.93789 0.51919 0.0
C545 C 0.48473 0.94262 0.53161 0.0
H546 H 0.49182 0.9871 0.58502 0.0
C547 C 0.46518 0.95726 0.52708 0.0
C548 C 0.47643 0.95518 0.53597 0.0
H549 H 0.5179 0.95248 0.57433 0.0
H550 H 0.50359 0.94759 0.55463 0.0
H551 H 0.46302 0.97225 0.57882 0.0
H552 H 0.48879 0.99845 0.55387 0.0
H553 H 0.47162 0.00326 0.5507 0.0
H554 H 0.47862 0.00504 0.56787 0.0
H555 H 0.46476 0.99042 0.58196 0.0
H556 H 0.45216 0.98377 0.57 0.0
C557 C 0.4842 0.93099 0.54258 0.0
C558 C 0.49947 0.94657 0.52685 0.0
C559 C 0.42716 0.99341 0.52609 0.0
C560 C 0.42409 0.00482 0.53454 0.0
C561 C 0.4328 0.00772 0.54584 0.0
C562 C 0.44429 0.99941 0.5487 0.0
C563 C 0.44718 0.98803 0.54019 0.0
C564 C 0.43868 0.98521 0.52909 0.0
C565 C 0.44333 0.9727 0.52118 0.0
C566 C 0.45602 0.96848 0.52934 0.0
C567 C 0.45821 0.97749 0.54048 0.0
C568 C 0.43175 0.96169 0.52201 0.0
C569 C 0.44705 0.97729 0.50632 0.0
C570 C 0.49453 0.97854 0.57837 0.0
C571 C 0.506 0.97013 0.58135 0.0
C572 C 0.50902 0.95899 0.57246 0.0
C573 C 0.50073 0.9562 0.56095 0.0
C574 C 0.48924 0.96462 0.55821 0.0
C575 C 0.48635 0.97562 0.56681 0.0
C576 C 0.47378 0.9835 0.56222 0.0
C577 C 0.46956 0.97535 0.54952 0.0
C578 C 0.47863 0.96429 0.54724 0.0
C579 C 0.46282 0.98258 0.57382 0.0
C580 C 0.4783 0.99839 0.55854 0.0
H581 H 0.44787 0.94922 0.50274 0.0
H582 H 0.48872 0.92017 0.51328 0.0
H583 H 0.49927 0.95128 0.51637 0.0
H584 H 0.50432 0.95446 0.53348 0.0
H585 H 0.50627 0.93736 0.52638 0.0
H586 H 0.474 0.92571 0.54245 0.0
H587 H 0.49224 0.92307 0.5406 0.0
H588 H 0.48533 0.93485 0.55324 0.0
H589 H 0.4208 0.99097 0.51724 0.0
H590 H 0.4306 0.01631 0.55264 0.0
H591 H 0.45045 1.00214 0.55749 0.0
H592 H 0.42637 0.96215 0.53214 0.0
H593 H 0.4239 0.96333 0.51383 0.0
H594 H 0.43569 0.95102 0.52132 0.0
H595 H 0.45206 0.98762 0.50638 0.0
H596 H 0.45459 0.97041 0.50128 0.0
H597 H 0.43768 0.97802 0.49976 0.0
H598 H 0.45263 0.92933 0.48864 0.0
C599 C 0.45678 0.94319 0.50533 0.0
C600 C 0.18109 0.28554 0.75073 0.0
C601 C 0.17126 0.27499 0.74899 0.0
C602 C 0.17266 0.26591 0.73769 0.0
C603 C 0.19329 0.27792 0.7302 0.0
C604 C 0.19193 0.28682 0.74126 0.0
C605 C 0.20312 0.29757 0.74155 0.0
H606 H 0.25937 0.32634 0.71178 0.0
C607 C 0.20563 0.28212 0.72227 0.0
C608 C 0.21143 0.29364 0.72887 0.0
H609 H 0.23856 0.33887 0.74925 0.0
H610 H 0.22247 0.32012 0.74676 0.0
H611 H 0.23203 0.31911 0.69421 0.0
H612 H 0.25929 0.29427 0.71895 0.0
H613 H 0.2544 0.28409 0.7048 0.0
H614 H 0.26391 0.29985 0.70191 0.0
H615 H 0.24945 0.31523 0.68926 0.0
H616 H 0.23542 0.30378 0.68511 0.0
C617 C 0.19624 0.31192 0.73998 0.0
C618 C 0.21153 0.29568 0.75502 0.0
C619 C 0.21939 0.25549 0.67918 0.0
C620 C 0.23042 0.25681 0.66983 0.0
C621 C 0.24016 0.26742 0.67189 0.0
C622 C 0.2389 0.27661 0.68299 0.0
C623 C 0.2278 0.27518 0.69222 0.0
C624 C 0.21833 0.2647 0.69027 0.0
C625 C 0.20736 0.26459 0.70127 0.0
C626 C 0.21181 0.27674 0.71011 0.0
C627 C 0.22374 0.28295 0.70471 0.0
C628 C 0.19324 0.26718 0.69424 0.0
C629 C 0.20839 0.25075 0.7092 0.0
C630 C 0.25143 0.325 0.71953 0.0
C631 C 0.25021 0.33425 0.73067 0.0
C632 C 0.23961 0.33211 0.74042 0.0
C633 C 0.2303 0.32114 0.739 0.0
C634 C 0.23156 0.31211 0.72773 0.0
C635 C 0.24207 0.31405 0.7183 0.0
C636 C 0.24197 0.30327 0.70713 0.0
C637 C 0.22955 0.29468 0.7113 0.0
C638 C 0.22346 0.29995 0.72335 0.0
C639 C 0.23969 0.31063 0.69313 0.0
C640 C 0.2556 0.29494 0.70809 0.0
H641 H 0.18403 0.26009 0.71995 0.0
H642 H 0.18045 0.2926 0.75936 0.0
H643 H 0.21223 0.28458 0.75791 0.0
H644 H 0.22236 0.29909 0.75401 0.0
H645 H 0.20664 0.30123 0.76377 0.0
H646 H 0.18735 0.31142 0.73274 0.0
H647 H 0.19231 0.31573 0.75005 0.0
H648 H 0.20319 0.31976 0.73552 0.0
H649 H 0.21183 0.24734 0.678 0.0
H650 H 0.24867 0.26875 0.66477 0.0
H651 H 0.2466 0.2845 0.68392 0.0
H652 H 0.1943 0.27455 0.6855 0.0
H653 H 0.18887 0.25744 0.69005 0.0
H654 H 0.18561 0.272 0.70119 0.0
H655 H 0.21933 0.24741 0.71022 0.0
H656 H 0.20456 0.25145 0.71991 0.0
H657 H 0.20272 0.24242 0.70373 0.0
H658 H 0.16515 0.25782 0.73595 0.0
C659 C 0.18359 0.2673 0.72833 0.0
C660 C 0.76152 0.17637 0.72905 0.0
C661 C 0.74982 0.17351 0.72091 0.0
C662 C 0.74652 0.18254 0.70997 0.0
C663 C 0.76645 0.19671 0.71525 0.0
C664 C 0.76961 0.18797 0.72606 0.0
C665 C 0.78235 0.19249 0.73371 0.0
H666 H 0.8352 0.23766 0.7408 0.0
C667 C 0.77702 0.20771 0.71482 0.0
C668 C 0.78635 0.20531 0.72564 0.0
H669 H 0.82592 0.202 0.76597 0.0
H670 H 0.80608 0.19699 0.75185 0.0
H671 H 0.80355 0.24837 0.73814 0.0
H672 H 0.82927 0.22329 0.71203 0.0
H673 H 0.81957 0.23402 0.70113 0.0
H674 H 0.83145 0.24163 0.71328 0.0
H675 H 0.81786 0.25524 0.7286 0.0
H676 H 0.80094 0.25378 0.72103 0.0
C677 C 0.77816 0.19594 0.74875 0.0
C678 C 0.79332 0.18094 0.73238 0.0
C679 C 0.775 0.24446 0.6774 0.0
C680 C 0.78352 0.25576 0.67412 0.0
C681 C 0.79515 0.25842 0.68247 0.0
C682 C 0.79824 0.25 0.69382 0.0
C683 C 0.78966 0.23873 0.69691 0.0
C684 C 0.77827 0.23612 0.68875 0.0
C685 C 0.7704 0.22361 0.69349 0.0
C686 C 0.77898 0.21912 0.70582 0.0
C687 C 0.79022 0.22804 0.70779 0.0
C688 C 0.75573 0.22827 0.69781 0.0
C689 C 0.77073 0.21278 0.68173 0.0
C690 C 0.82882 0.22885 0.74335 0.0
C691 C 0.83217 0.22022 0.75454 0.0
C692 C 0.82369 0.20872 0.75733 0.0
C693 C 0.8121 0.20588 0.74916 0.0
C694 C 0.8089 0.21459 0.73801 0.0
C695 C 0.81721 0.22585 0.73527 0.0
C696 C 0.8123 0.2339 0.72293 0.0
C697 C 0.79962 0.22568 0.7188 0.0
C698 C 0.79768 0.21438 0.72767 0.0
C699 C 0.80852 0.24865 0.72779 0.0
C700 C 0.82371 0.23333 0.71173 0.0
H701 H 0.75166 0.20052 0.69864 0.0
H702 H 0.76446 0.16962 0.73745 0.0
H703 H 0.79287 0.17605 0.722 0.0
H704 H 0.804 0.18479 0.73332 0.0
H705 H 0.79163 0.17271 0.74018 0.0
H706 H 0.76765 0.20057 0.74912 0.0
H707 H 0.77803 0.18652 0.75528 0.0
H708 H 0.78492 0.20373 0.75358 0.0
H709 H 0.7659 0.24218 0.67133 0.0
H710 H 0.80203 0.26689 0.6801 0.0
H711 H 0.80726 0.25256 0.69971 0.0
H712 H 0.75597 0.23873 0.70254 0.0
H713 H 0.7487 0.22871 0.68876 0.0
H714 H 0.75111 0.22158 0.7058 0.0
H715 H 0.78086 0.21293 0.67633 0.0
H716 H 0.76959 0.20208 0.68546 0.0
H717 H 0.76261 0.21492 0.67393 0.0
H718 H 0.73746 0.18077 0.70368 0.0
C719 C 0.75475 0.19408 0.7071 0.0
C720 C 0.5354 0.57534 0.50428 0.0
C721 C 0.5249 0.5852 0.50611 0.0
C722 C 0.51578 0.58376 0.51735 0.0
C723 C 0.52763 0.56297 0.52466 0.0
C724 C 0.53658 0.56438 0.51365 0.0
C725 C 0.54731 0.55316 0.51333 0.0
H726 H 0.57453 0.49541 0.54179 0.0
C727 C 0.53169 0.5505 0.53247 0.0
C728 C 0.54323 0.54471 0.52588 0.0
H729 H 0.58904 0.51802 0.50613 0.0
H730 H 0.57028 0.53414 0.50852 0.0
H731 H 0.56823 0.52237 0.56027 0.0
H732 H 0.54253 0.49696 0.53447 0.0
H733 H 0.53269 0.50133 0.54904 0.0
H734 H 0.5483 0.49138 0.55115 0.0
H735 H 0.56339 0.50509 0.56487 0.0
H736 H 0.55263 0.51966 0.56909 0.0
C737 C 0.56169 0.55994 0.51509 0.0
C738 C 0.54549 0.54492 0.49976 0.0
C739 C 0.50469 0.53642 0.57522 0.0
C740 C 0.50586 0.52528 0.58448 0.0
C741 C 0.51632 0.51539 0.58224 0.0
C742 C 0.52548 0.51663 0.57112 0.0
C743 C 0.52423 0.52787 0.56205 0.0
C744 C 0.5139 0.53747 0.56412 0.0
C745 C 0.51399 0.54861 0.5533 0.0
C746 C 0.52613 0.54415 0.54446 0.0
C747 C 0.53212 0.53203 0.54967 0.0
C748 C 0.51671 0.5626 0.56056 0.0
C749 C 0.50017 0.54789 0.54529 0.0
C750 C 0.57375 0.50389 0.53455 0.0
C751 C 0.58333 0.50539 0.52374 0.0
C752 C 0.58173 0.51648 0.51443 0.0
C753 C 0.57087 0.52591 0.5159 0.0
C754 C 0.56146 0.52433 0.52682 0.0
C755 C 0.56298 0.51345 0.5359 0.0
C756 C 0.55208 0.51346 0.54695 0.0
C757 C 0.54383 0.5262 0.54306 0.0
C758 C 0.54936 0.53251 0.53125 0.0
C759 C 0.55936 0.51513 0.56109 0.0
C760 C 0.54345 0.50008 0.54549 0.0
H761 H 0.5098 0.57221 0.53493 0.0
H762 H 0.5427 0.57624 0.49587 0.0
H763 H 0.53436 0.54368 0.49722 0.0
H764 H 0.54956 0.5343 0.5004 0.0
H765 H 0.55048 0.55031 0.49097 0.0
H766 H 0.56108 0.5692 0.52185 0.0
H767 H 0.56594 0.5633 0.50499 0.0
H768 H 0.56922 0.55311 0.52023 0.0
H769 H 0.49688 0.54429 0.57665 0.0
H770 H 0.51734 0.50656 0.58902 0.0
H771 H 0.53318 0.50876 0.57002 0.0
H772 H 0.52408 0.56131 0.56928 0.0
H773 H 0.50702 0.56699 0.56482 0.0
H774 H 0.52159 0.57029 0.55373 0.0
H775 H 0.49664 0.53702 0.5442 0.0
H776 H 0.501 0.55175 0.53461 0.0
H777 H 0.49192 0.55368 0.55074 0.0
H778 H 0.50751 0.59111 0.51891 0.0
C779 C 0.51708 0.57272 0.5266 0.0
C780 C 0.53695 0.42862 0.9989 0.0
C781 C 0.52615 0.41902 0.99744 0.0
C782 C 0.51656 0.42083 0.98664 0.0
C783 C 0.52853 0.44146 0.97908 0.0
C784 C 0.53793 0.4397 0.98966 0.0
C785 C 0.54883 0.45075 0.98973 0.0
H786 H 0.57491 0.50935 0.96205 0.0
C787 C 0.53244 0.45403 0.97135 0.0
C788 C 0.54432 0.45953 0.97755 0.0
H789 H 0.5913 0.48517 0.99585 0.0
H790 H 0.57243 0.46918 0.99374 0.0
H791 H 0.54317 0.50728 0.9705 0.0
H792 H 0.56819 0.48313 0.94289 0.0
H793 H 0.55218 0.48566 0.93482 0.0
H794 H 0.56279 0.50039 0.93891 0.0
H795 H 0.54859 0.51362 0.95397 0.0
H796 H 0.53301 0.50361 0.95595 0.0
C797 C 0.54774 0.45871 0.00354 0.0
C798 C 0.56302 0.44381 0.98718 0.0
C799 C 0.50413 0.46913 0.92979 0.0
C800 C 0.50509 0.48045 0.92072 0.0
C801 C 0.51559 0.4903 0.92291 0.0
C802 C 0.52504 0.48883 0.93375 0.0
C803 C 0.52404 0.47739 0.9426 0.0
C804 C 0.51363 0.46785 0.94062 0.0
C805 C 0.514 0.4565 0.95122 0.0
C806 C 0.52646 0.4607 0.95974 0.0
C807 C 0.53232 0.47291 0.9546 0.0
C808 C 0.50045 0.45716 0.95969 0.0
C809 C 0.51638 0.44264 0.94361 0.0
C810 C 0.57454 0.50056 0.96894 0.0
C811 C 0.58467 0.49864 0.97918 0.0
C812 C 0.58356 0.48711 0.98803 0.0
C813 C 0.57263 0.47774 0.98671 0.0
C814 C 0.56265 0.47979 0.9764 0.0
C815 C 0.56375 0.49103 0.96769 0.0
C816 C 0.55242 0.49137 0.95709 0.0
C817 C 0.54433 0.4785 0.96088 0.0
C818 C 0.55033 0.4718 0.97225 0.0
C819 C 0.54384 0.50468 0.95934 0.0
C820 C 0.55913 0.49018 0.94262 0.0
H821 H 0.51005 0.43276 0.96951 0.0
H822 H 0.5446 0.42745 0.00696 0.0
H823 H 0.56196 0.43456 0.98046 0.0
H824 H 0.57032 0.45057 0.98162 0.0
H825 H 0.5678 0.44041 0.99703 0.0
H826 H 0.53675 0.46025 0.00648 0.0
H827 H 0.55284 0.45294 0.01203 0.0
H828 H 0.55216 0.46919 0.00302 0.0
H829 H 0.49629 0.4613 0.9284 0.0
H830 H 0.51644 0.49927 0.91629 0.0
H831 H 0.53276 0.49668 0.93482 0.0
H832 H 0.49682 0.46799 0.96082 0.0
H833 H 0.49209 0.45121 0.95459 0.0
H834 H 0.50171 0.45341 0.97038 0.0
H835 H 0.52375 0.444 0.93491 0.0
H836 H 0.52108 0.43466 0.95024 0.0
H837 H 0.50659 0.43858 0.93927 0.0
H838 H 0.50805 0.41371 0.98536 0.0
C839 C 0.51769 0.43197 0.97748 0.0
C840 C 0.75133 0.1802 0.28573 0.0
C841 C 0.75019 0.17089 0.27465 0.0
C842 C 0.73956 0.17282 0.2649 0.0
C843 C 0.73133 0.19285 0.27745 0.0
C844 C 0.74187 0.19107 0.28689 0.0
C845 C 0.74173 0.20193 0.29797 0.0
H846 H 0.71145 0.25799 0.32666 0.0
C847 C 0.72315 0.20499 0.28177 0.0
C848 C 0.72923 0.21039 0.29376 0.0
H849 H 0.74842 0.23686 0.33994 0.0
H850 H 0.7463 0.22087 0.321 0.0
H851 H 0.69397 0.23062 0.31955 0.0
H852 H 0.71878 0.25758 0.29443 0.0
H853 H 0.70397 0.25342 0.28486 0.0
H854 H 0.70219 0.26258 0.30096 0.0
H855 H 0.68841 0.24763 0.31477 0.0
H856 H 0.68522 0.23291 0.30384 0.0
C857 C 0.73954 0.19465 0.31204 0.0
C858 C 0.75529 0.21036 0.29691 0.0
C859 C 0.68067 0.21903 0.25434 0.0
C860 C 0.67078 0.22954 0.25604 0.0
C861 C 0.67214 0.23868 0.26729 0.0
C862 C 0.6831 0.23738 0.27665 0.0
C863 C 0.69285 0.22681 0.27481 0.0
C864 C 0.69153 0.21785 0.26381 0.0
C865 C 0.70278 0.20715 0.26357 0.0
C866 C 0.71108 0.2112 0.27623 0.0
C867 C 0.70522 0.22273 0.28276 0.0
C868 C 0.69598 0.19277 0.26522 0.0
C869 C 0.71117 0.20901 0.25009 0.0
C870 C 0.71902 0.24984 0.32554 0.0
C871 C 0.73011 0.24868 0.33482 0.0
C872 C 0.73986 0.23806 0.33286 0.0
C873 C 0.73857 0.22874 0.32188 0.0
C874 C 0.72743 0.23003 0.31269 0.0
C875 C 0.71792 0.24049 0.31456 0.0
C876 C 0.70692 0.24045 0.30361 0.0
C877 C 0.71139 0.22823 0.29487 0.0
C878 C 0.72337 0.22213 0.30029 0.0
C879 C 0.69283 0.23787 0.31071 0.0
C880 C 0.70786 0.25422 0.29554 0.0
H881 H 0.72224 0.18456 0.25854 0.0
H882 H 0.75951 0.17913 0.29327 0.0
H883 H 0.75897 0.21092 0.28605 0.0
H884 H 0.754 0.22124 0.30006 0.0
H885 H 0.76363 0.20559 0.30315 0.0
H886 H 0.73195 0.1861 0.31104 0.0
H887 H 0.74935 0.19017 0.31592 0.0
H888 H 0.73522 0.20153 0.32002 0.0
H889 H 0.68006 0.21191 0.24574 0.0
H890 H 0.66459 0.24673 0.26901 0.0
H891 H 0.68349 0.24464 0.285 0.0
H892 H 0.68707 0.19327 0.27244 0.0
H893 H 0.6921 0.18886 0.25517 0.0
H894 H 0.70297 0.18501 0.26977 0.0
H895 H 0.71192 0.2201 0.24722 0.0
H896 H 0.72197 0.20552 0.25106 0.0
H897 H 0.70622 0.20349 0.24135 0.0
H898 H 0.73838 0.16574 0.25634 0.0
C899 C 0.73014 0.18372 0.26625 0.0
C900 C 0.4265 0.01066 0.97891 0.0
C901 C 0.42355 0.99921 0.97047 0.0
C902 C 0.43246 0.99622 0.95935 0.0
C903 C 0.4467 0.01598 0.96506 0.0
C904 C 0.43807 0.01884 0.97604 0.0
C905 C 0.44265 0.03136 0.98399 0.0
H906 H 0.48732 0.08454 0.9916 0.0
C907 C 0.4577 0.02656 0.96483 0.0
C908 C 0.4554 0.03558 0.97593 0.0
H909 H 0.45228 0.07412 0.01722 0.0
H910 H 0.4474 0.05448 0.00281 0.0
H911 H 0.4727 0.07849 0.96266 0.0
H912 H 0.49853 0.05335 0.98863 0.0
H913 H 0.50359 0.05035 0.97149 0.0
H914 H 0.50522 0.06745 0.97867 0.0
H915 H 0.4909 0.08144 0.9644 0.0
H916 H 0.48413 0.0695 0.95185 0.0
C917 C 0.43108 0.04236 0.98305 0.0
C918 C 0.44624 0.02678 0.99889 0.0
C919 C 0.49406 0.02562 0.92701 0.0
C920 C 0.50541 0.03414 0.92395 0.0
C921 C 0.50824 0.04545 0.93266 0.0
C922 C 0.4999 0.04827 0.94414 0.0
C923 C 0.48855 0.0397 0.947 0.0
C924 C 0.48582 0.02858 0.93852 0.0
C925 C 0.47335 0.02058 0.94315 0.0
C926 C 0.46902 0.02878 0.95578 0.0
C927 C 0.47795 0.03997 0.95798 0.0
C928 C 0.4624 0.02129 0.93152 0.0
C929 C 0.47803 0.00577 0.94696 0.0
C930 C 0.47867 0.07796 0.99419 0.0
C931 C 0.47015 0.08098 0.00557 0.0
C932 C 0.45889 0.0722 0.00841 0.0
C933 C 0.45612 0.06072 1.00007 0.0
C934 C 0.46468 0.0579 0.98872 0.0
C935 C 0.47576 0.06643 0.98597 0.0
C936 C 0.48377 0.0618 0.9735 0.0
C937 C 0.47566 0.0491 0.96922 0.0
C938 C 0.46447 0.04689 0.97816 0.0
C939 C 0.48298 0.07338 0.96249 0.0
C940 C 0.4986 0.05811 0.97818 0.0
H941 H 0.45033 1.00167 0.948 0.0
H942 H 0.41983 0.01336 0.98746 0.0
H943 H 0.4507 0.01619 0.99898 0.0
H944 H 0.45422 0.0333 0.00375 0.0
H945 H 0.43691 0.02666 0.00555 0.0
H946 H 0.42621 0.04227 0.97265 0.0
H947 H 0.42285 0.04036 0.99076 0.0
H948 H 0.43491 0.053 0.98439 0.0
H949 H 0.49168 0.01674 0.92066 0.0
H950 H 0.5168 0.05229 0.93047 0.0
H951 H 0.50257 0.05707 0.9503 0.0
H952 H 0.46247 0.03161 0.92648 0.0
H953 H 0.46448 0.01346 0.92342 0.0
H954 H 0.45175 0.01997 0.93531 0.0
H955 H 0.48857 0.00584 0.95152 0.0
H956 H 0.47147 1.00095 0.95494 0.0
H957 H 0.47829 0.99901 0.93772 0.0
H958 H 0.43062 0.98735 0.95282 0.0
C959 C 0.44398 0.00452 0.95661 0.0
Li960 Li 0.26506 0.88575 0.99995 0.0
Li961 Li 0.25457 0.86856 0.01529 0.0
Li962 Li 0.25072 0.86821 0.9895 0.0
Li963 Li 0.23932 0.88573 0.00395 0.0
C964 C 0.28201 0.86418 0.99857 0.0
N965 N 0.3103 0.86235 0.99557 0.0
C966 C 0.29025 0.86034 0.00976 0.0
C967 C 0.28814 0.86691 0.9858 0.0
C968 C 0.30454 0.85951 0.00805 0.0
C969 C 0.30246 0.86598 0.98451 0.0
C970 C 0.25383 0.89343 0.03068 0.0
C971 C 0.24066 0.89757 0.05139 0.0
N972 N 0.25219 0.90251 0.05767 0.0
C973 C 0.26551 0.89874 0.03728 0.0
C974 C 0.24127 0.89299 0.03774 0.0
C975 C 0.26449 0.9032 0.05095 0.0
C976 C 0.28123 0.90614 0.98666 0.0
N977 N 0.28088 0.89725 0.99749 0.0
C978 C 0.30333 0.90448 0.00472 0.0
C979 C 0.29157 0.89636 0.00653 0.0
C980 C 0.30407 0.91371 0.99355 0.0
C981 C 0.29277 0.9145 0.98448 0.0
H982 H 0.27253 0.90679 0.97973 0.0
H983 H 0.29101 0.88925 0.0151 0.0
C984 C 0.25044 0.8452 0.03229 0.0
N985 N 0.25725 0.85743 0.03136 0.0
C986 C 0.25218 0.83675 0.04384 0.0
C987 C 0.26827 0.8534 0.05307 0.0
C988 C 0.26614 0.86157 0.04138 0.0
C989 C 0.2612 0.84082 0.05443 0.0
H990 H 0.2437 0.84195 0.02402 0.0
H991 H 0.27176 0.87111 0.04023 0.0
C992 C 0.24635 0.88981 0.97289 0.0
N993 N 0.23919 0.89184 0.94537 0.0
C994 C 0.2329 0.89342 0.96915 0.0
C995 C 0.2562 0.88741 0.96264 0.0
C996 C 0.22947 0.89436 0.95518 0.0
C997 C 0.25236 0.88842 0.94879 0.0
C998 C 0.22469 0.86068 0.00919 0.0
C999 C 0.21549 0.8545 0.99995 0.0
C1000 C 0.22105 0.86189 0.02309 0.0
C1001 C 0.20269 0.84991 0.00473 0.0
C1002 C 0.20817 0.85716 0.02747 0.0
N1003 N 0.19931 0.85134 0.01827 0.0
C1004 C 0.25844 0.84728 0.97067 0.0
C1005 C 0.23665 0.85737 0.9661 0.0
C1006 C 0.25708 0.8386 0.95925 0.0
N1007 N 0.24833 0.85648 0.97382 0.0
C1008 C 0.2349 0.84895 0.95454 0.0
C1009 C 0.2452 0.83939 0.95099 0.0
H1010 H 0.26756 0.84665 0.97705 0.0
H1011 H 0.22866 0.8646 0.96894 0.0
C1012 C 0.22548 0.91022 0.01101 0.0
N1013 N 0.22343 0.8972 0.0062 0.0
C1014 C 0.21432 0.91914 0.01288 0.0
C1015 C 0.19913 0.90118 0.00464 0.0
C1016 C 0.2106 0.89263 0.00285 0.0
C1017 C 0.20091 0.91462 0.00974 0.0
H1018 H 0.23582 0.91365 0.01344 0.0
H1019 H 0.20924 0.88244 0.9986 0.0
O1020 O 0.26802 0.86525 1.0001 0.0
O1021 O 0.25467 0.88903 0.01728 0.0
O1022 O 0.24985 0.8887 0.98652 0.0
O1023 O 0.23725 0.86527 0.00465 0.0
H1024 H 0.28568 0.85809 0.01968 0.0
H1025 H 0.28191 0.86979 0.97701 0.0
H1026 H 0.31104 0.85663 0.01664 0.0
H1027 H 0.30735 0.86816 0.97471 0.0
H1028 H 0.231 0.89725 0.05697 0.0
H1029 H 0.27528 0.89934 0.03194 0.0
H1030 H 0.23204 0.88934 0.0327 0.0
H1031 H 0.27347 0.90723 0.0562 0.0
H1032 H 0.31183 0.90337 0.01188 0.0
H1033 H 0.29276 0.92163 0.97587 0.0
H1034 H 0.24673 0.82701 0.04435 0.0
H1035 H 0.27531 0.85695 0.06099 0.0
H1036 H 0.22516 0.8954 0.97693 0.0
H1037 H 0.26667 0.88472 0.96535 0.0
H1038 H 0.21908 0.89706 0.95213 0.0
H1039 H 0.25986 0.88649 0.94075 0.0
H1040 H 0.21817 0.85332 0.9892 0.0
H1041 H 0.22817 0.86624 0.03047 0.0
H1042 H 0.19545 0.8452 0.99767 0.0
H1043 H 0.20523 0.85806 0.0382 0.0
H1044 H 0.26532 0.83145 0.95683 0.0
H1045 H 0.22548 0.84976 0.94858 0.0
H1046 H 0.21615 0.9294 0.0169 0.0
H1047 H 0.18901 0.89738 1.00183 0.0
Li1048 Li 0.11916 0.50395 0.26536 0.0
Li1049 Li 0.13656 0.48937 0.25394 0.0
Li1050 Li 0.13645 0.51518 0.25016 0.0
Li1051 Li 0.11913 0.50002 0.23954 0.0
C1052 C 0.14406 0.50901 0.28007 0.0
N1053 N 0.15302 0.51812 0.30556 0.0
C1054 C 0.15037 0.49984 0.28925 0.0
C1055 C 0.14251 0.52286 0.28378 0.0
C1056 C 0.15477 0.50464 0.30211 0.0
C1057 C 0.14706 0.52725 0.29673 0.0
C1058 C 0.11473 0.47293 0.25803 0.0
C1059 C 0.11557 0.44892 0.25157 0.0
N1060 N 0.11231 0.44533 0.26474 0.0
C1061 C 0.11127 0.46902 0.27147 0.0
C1062 C 0.11678 0.46282 0.24796 0.0
C1063 C 0.11013 0.455 0.27466 0.0
C1064 C 0.09496 0.51168 0.27949 0.0
N1065 N 0.10778 0.50628 0.28131 0.0
C1066 C 0.10402 0.50447 0.30563 0.0
C1067 C 0.11233 0.50249 0.29403 0.0
C1068 C 0.0908 0.51022 0.3041 0.0
C1069 C 0.08625 0.51375 0.2908 0.0
H1070 H 0.09152 0.51444 0.26924 0.0
H1071 H 0.12234 0.49778 0.2952 0.0
C1072 C 0.15724 0.4702 0.24627 0.0
N1073 N 0.14811 0.47356 0.25637 0.0
C1074 C 0.16578 0.45868 0.2477 0.0
C1075 C 0.15545 0.45431 0.26997 0.0
C1076 C 0.14716 0.46595 0.26812 0.0
C1077 C 0.16494 0.45052 0.25967 0.0
H1078 H 0.15799 0.47654 0.23713 0.0
H1079 H 0.13994 0.46893 0.27608 0.0
C1080 C 0.11172 0.53078 0.25031 0.0
N1081 N 0.10289 0.5579 0.25083 0.0
C1082 C 0.10683 0.53706 0.23828 0.0
C1083 C 0.11185 0.53822 0.26266 0.0
C1084 C 0.10249 0.5508 0.23873 0.0
C1085 C 0.10741 0.55193 0.2627 0.0
C1086 C 0.14103 0.49837 0.22272 0.0
C1087 C 0.14542 0.50941 0.21455 0.0
C1088 C 0.13813 0.48566 0.21656 0.0
C1089 C 0.14661 0.50761 0.2003 0.0
C1090 C 0.13942 0.48427 0.20228 0.0
N1091 N 0.14359 0.49519 0.1945 0.0
C1092 C 0.1597 0.53226 0.25472 0.0
C1093 C 0.1438 0.54109 0.2384 0.0
C1094 C 0.16817 0.54381 0.25308 0.0
N1095 N 0.14769 0.5312 0.24756 0.0
C1096 C 0.15199 0.55277 0.23637 0.0
C1097 C 0.16434 0.55427 0.2438 0.0
H1098 H 0.16278 0.52408 0.26166 0.0
H1099 H 0.13444 0.53982 0.2325 0.0
C1100 C 0.09799 0.48746 0.22376 0.0
N1101 N 0.1076 0.49767 0.2237 0.0
C1102 C 0.08951 0.48537 0.21229 0.0
C1103 C 0.10096 0.50437 0.20089 0.0
C1104 C 0.10912 0.50617 0.21263 0.0
C1105 C 0.091 0.49385 0.20062 0.0
H1106 H 0.0969 0.48092 0.23273 0.0
H1107 H 0.11668 0.51435 0.21291 0.0
O1108 O 0.13962 0.50445 0.26746 0.0
O1109 O 0.11604 0.4866 0.25475 0.0
O1110 O 0.11598 0.51731 0.25003 0.0
O1111 O 0.13964 0.49999 0.23668 0.0
H1112 H 0.1518 0.48913 0.28651 0.0
H1113 H 0.13803 0.53017 0.27668 0.0
H1114 H 0.15959 0.49763 0.30935 0.0
H1115 H 0.1459 0.53794 0.29973 0.0
H1116 H 0.11722 0.44098 0.24389 0.0
H1117 H 0.10957 0.4767 0.27937 0.0
H1118 H 0.11932 0.46567 0.23748 0.0
H1119 H 0.10754 0.45182 0.28504 0.0
H1120 H 0.10782 0.50136 0.31567 0.0
H1121 H 0.07616 0.51826 0.28917 0.0
H1122 H 0.17311 0.45633 0.23961 0.0
H1123 H 0.15432 0.44828 0.2793 0.0
H1124 H 0.10647 0.53142 0.22867 0.0
H1125 H 0.11517 0.53343 0.27215 0.0
H1126 H 0.09879 0.55581 0.22947 0.0
H1127 H 0.1075 0.55781 0.27218 0.0
H1128 H 0.14784 0.51928 0.21915 0.0
H1129 H 0.13484 0.47698 0.22274 0.0
H1130 H 0.14993 0.51609 0.19384 0.0
H1131 H 0.13711 0.47452 0.19737 0.0
H1132 H 0.17774 0.54442 0.25882 0.0
H1133 H 0.14863 0.56058 0.22912 0.0
H1134 H 0.08201 0.47709 0.21247 0.0
H1135 H 0.10231 0.51125 0.19219 0.0
Li1136 Li 0.7394 0.6189 1.00107 0.0
Li1137 Li 0.75055 0.63643 0.01588 0.0
Li1138 Li 0.7543 0.63632 0.98995 0.0
Li1139 Li 0.76523 0.61907 0.00493 0.0
C1140 C 0.72372 0.64323 0.99826 0.0
N1141 N 0.69672 0.65102 0.99338 0.0
C1142 C 0.71559 0.64836 0.00901 0.0
C1143 C 0.71817 0.64227 0.98498 0.0
C1144 C 0.70195 0.65219 0.00635 0.0
C1145 C 0.70449 0.6462 0.98274 0.0
C1146 C 0.74738 0.6132 0.03196 0.0
C1147 C 0.75463 0.61238 0.05576 0.0
N1148 N 0.74189 0.60779 0.05942 0.0
C1149 C 0.73439 0.60835 0.03594 0.0
C1150 C 0.75763 0.61511 0.04192 0.0
C1151 C 0.73181 0.60571 0.04988 0.0
C1152 C 0.72547 0.59503 0.9921 0.0
N1153 N 0.72361 0.60729 0.99867 0.0
C1154 C 0.69958 0.6025 1.00162 0.0
C1155 C 0.71101 0.61104 0.0036 0.0
C1156 C 0.70117 0.58986 0.99474 0.0
C1157 C 0.71434 0.5861 0.99002 0.0
H1158 H 0.73563 0.59219 0.98846 0.0
H1159 H 0.70984 0.62054 0.00925 0.0
C1160 C 0.75664 0.65929 0.0328 0.0
N1161 N 0.74832 0.64805 0.03169 0.0
C1162 C 0.75554 0.66809 0.04417 0.0
C1163 C 0.73728 0.65363 0.05306 0.0
C1164 C 0.73859 0.64524 0.04142 0.0
C1165 C 0.74583 0.66521 0.05453 0.0
H1166 H 0.76415 0.66144 0.02484 0.0
H1167 H 0.73176 0.63655 0.04011 0.0
C1168 C 0.75453 0.61272 0.97389 0.0
N1169 N 0.75423 0.60643 0.94608 0.0
C1170 C 0.76654 0.60815 0.96736 0.0
C1171 C 0.74231 0.61387 0.96633 0.0
C1172 C 0.7662 0.60509 0.95328 0.0
C1173 C 0.74238 0.6107 0.95227 0.0
C1174 C 0.78148 0.64151 0.00778 0.0
C1175 C 0.79047 0.64527 0.99715 0.0
C1176 C 0.78657 0.63983 0.02116 0.0
C1177 C 0.80448 0.64703 1.00005 0.0
C1178 C 0.80064 0.64168 0.02365 0.0
N1179 N 0.80924 0.64519 0.01313 0.0
C1180 C 0.74831 0.65872 0.97222 0.0
C1181 C 0.76677 0.64459 0.96469 0.0
C1182 C 0.74971 0.66716 0.96062 0.0
N1183 N 0.75668 0.6476 0.97396 0.0
C1184 C 0.76856 0.65278 0.95295 0.0
C1185 C 0.75993 0.66422 0.95077 0.0
H1186 H 0.7406 0.66111 0.97991 0.0
H1187 H 0.77352 0.63591 0.96645 0.0
C1188 C 0.7812 0.59801 0.01732 0.0
N1189 N 0.78121 0.60776 0.00724 0.0
C1190 C 0.79275 0.58965 0.01939 0.0
C1191 C 0.80407 0.60135 1.00051 0.0
C1192 C 0.79228 0.60946 0.99879 0.0
C1193 C 0.80444 0.5913 0.01096 0.0
H1194 H 0.77217 0.59664 0.02371 0.0
H1195 H 0.79196 0.61713 0.9907 0.0
O1196 O 0.73708 0.63939 1.00071 0.0
O1197 O 0.75006 0.61589 0.01837 0.0
O1198 O 0.7547 0.61586 0.98765 0.0
O1199 O 0.76776 0.63958 0.00511 0.0
H1200 H 0.71973 0.6493 0.01932 0.0
H1201 H 0.72439 0.63864 0.97648 0.0
H1202 H 0.69552 0.65609 0.0146 0.0
H1203 H 0.70006 0.64546 0.97252 0.0
H1204 H 0.76245 0.61388 0.06358 0.0
H1205 H 0.72637 0.6067 0.02838 0.0
H1206 H 0.76778 0.61866 0.03901 0.0
H1207 H 0.72178 0.60203 0.05311 0.0
H1208 H 0.68965 0.60565 0.00567 0.0
H1209 H 0.71599 0.57645 0.98464 0.0
H1210 H 0.76233 0.67692 0.04496 0.0
H1211 H 0.7295 0.65121 0.06071 0.0
H1212 H 0.77606 0.60706 0.97308 0.0
H1213 H 0.73286 0.61707 0.97128 0.0
H1214 H 0.77545 0.60163 0.94807 0.0
H1215 H 0.733 0.6116 0.94628 0.0
H1216 H 0.7867 0.64673 0.98676 0.0
H1217 H 0.77972 0.63717 0.02954 0.0
H1218 H 0.81157 0.64984 0.99191 0.0
H1219 H 0.80473 0.64034 0.03395 0.0
H1220 H 0.743 0.67603 0.95951 0.0
H1221 H 0.77655 0.65009 0.94562 0.0
H1222 H 0.79245 0.58186 0.02739 0.0
H1223 H 0.81286 0.60307 0.99383 0.0
Li1224 Li 0.86913 0.01522 0.25373 0.0
Li1225 Li 0.88674 1.0008 0.26485 0.0
Li1226 Li 0.88696 0.00488 0.23989 0.0
Li1227 Li 0.86942 0.9901 0.25059 0.0
C1228 C 0.88991 0.03189 0.25877 0.0
N1229 N 0.88979 0.05916 0.2671 0.0
C1230 C 0.893 0.0353 0.27243 0.0
C1231 C 0.88682 0.04236 0.24932 0.0
C1232 C 0.89288 0.04915 0.27644 0.0
C1233 C 0.88678 0.05607 0.25374 0.0
C1234 C 0.85554 0.99425 0.2735 0.0
C1235 C 0.84536 0.97456 0.2848 0.0
N1236 N 0.83271 0.98052 0.28363 0.0
C1237 C 0.84245 1.00021 0.27244 0.0
C1238 C 0.85703 0.98135 0.27979 0.0
C1239 C 0.83103 0.99309 0.27762 0.0
C1240 C 0.84979 0.03552 0.24532 0.0
N1241 N 0.85747 0.03091 0.2561 0.0
C1242 C 0.84874 0.04888 0.27057 0.0
C1243 C 0.85697 0.03721 0.26862 0.0
C1244 C 0.84078 0.05401 0.25958 0.0
C1245 C 0.84134 0.04709 0.24683 0.0
H1246 H 0.85017 0.03016 0.23555 0.0
H1247 H 0.86306 0.03321 0.27707 0.0
C1248 C 0.91188 1.00125 0.2796 0.0
N1249 N 0.89813 0.99875 0.28078 0.0
C1250 C 0.92058 0.99956 0.29097 0.0
C1251 C 0.90074 0.99319 0.30467 0.0
C1252 C 0.89244 0.99489 0.293 0.0
C1253 C 0.91502 0.99546 0.30371 0.0
H1254 H 0.91609 0.00454 0.2698 0.0
H1255 H 0.88146 0.99314 0.2937 0.0
C1256 C 0.86643 0.0047 0.22251 0.0
N1257 N 0.86726 0.00439 0.19402 0.0
C1258 C 0.8644 0.99236 0.21534 0.0
C1259 C 0.86881 0.01691 0.21519 0.0
C1260 C 0.86486 0.99242 0.20093 0.0
C1261 C 0.86922 0.01652 0.20078 0.0
C1262 C 0.90054 0.97991 0.2545 0.0
C1263 C 0.91369 0.98255 0.24922 0.0
C1264 C 0.8989 0.97023 0.26507 0.0
C1265 C 0.92503 0.9755 0.25468 0.0
C1266 C 0.91049 0.96342 0.27027 0.0
N1267 N 0.9232 0.96618 0.26501 0.0
C1268 C 0.90493 0.01928 0.22176 0.0
C1269 C 0.90004 0.99622 0.21529 0.0
C1270 C 0.9132 0.02106 0.2101 0.0
N1271 N 0.89849 0.00705 0.22407 0.0
C1272 C 0.90824 0.99753 0.2035 0.0
C1273 C 0.91495 0.0101 0.20076 0.0
H1274 H 0.90362 0.02768 0.22896 0.0
H1275 H 0.89491 0.98655 0.21747 0.0
C1276 C 0.84428 0.97627 0.24577 0.0
N1277 N 0.85798 0.97429 0.24801 0.0
C1278 C 0.83548 0.96498 0.24408 0.0
C1279 C 0.85512 0.94984 0.24664 0.0
C1280 C 0.86352 0.96142 0.24836 0.0
C1281 C 0.84087 0.95151 0.24452 0.0
H1282 H 0.84017 0.98664 0.24538 0.0
H1283 H 0.87449 0.96014 0.2499 0.0
O1284 O 0.88976 0.01838 0.25469 0.0
O1285 O 0.86681 1.00093 0.26826 0.0
O1286 O 0.86635 0.00481 0.23662 0.0
O1287 O 0.88935 0.98689 0.24948 0.0
H1288 H 0.89534 0.02735 0.2799 0.0
H1289 H 0.88423 0.03989 0.23875 0.0
H1290 H 0.89521 0.05194 0.287 0.0
H1291 H 0.8843 0.06426 0.24657 0.0
H1292 H 0.84635 0.96452 0.28959 0.0
H1293 H 0.84109 0.01015 0.26755 0.0
H1294 H 0.86707 0.97654 0.28059 0.0
H1295 H 0.82083 0.99755 0.27682 0.0
H1296 H 0.84877 0.05391 0.28054 0.0
H1297 H 0.83518 0.05046 0.23814 0.0
H1298 H 0.9315 1.00162 0.28983 0.0
H1299 H 0.89605 0.98996 0.31428 0.0
H1300 H 0.86264 0.9828 0.22084 0.0
H1301 H 0.87055 0.02652 0.22058 0.0
H1302 H 0.86336 0.98293 0.19525 0.0
H1303 H 0.87116 0.02587 0.19499 0.0
H1304 H 0.91518 0.99007 0.24111 0.0
H1305 H 0.88881 0.96815 0.26936 0.0
H1306 H 0.93528 0.97749 0.25074 0.0
H1307 H 0.90938 0.95599 0.27852 0.0
H1308 H 0.91805 0.03097 0.20835 0.0
H1309 H 0.90944 0.98873 0.19673 0.0
H1310 H 0.82456 0.96681 0.24263 0.0
H1311 H 0.85979 0.93969 0.24679 0.0
Li1312 Li 0.2506 0.13569 0.51561 0.0
Li1313 Li 0.24 0.11813 0.5006 0.0
Li1314 Li 0.26581 0.11839 0.50439 0.0
Li1315 Li 0.25422 0.13558 0.48983 0.0
C1316 C 0.25116 0.11056 0.53119 0.0
N1317 N 0.25223 0.10094 0.55802 0.0
C1318 C 0.23949 0.10464 0.53726 0.0
C1319 C 0.26343 0.11137 0.53871 0.0
C1320 C 0.24022 0.09991 0.55085 0.0
C1321 C 0.26376 0.10651 0.55227 0.0
C1322 C 0.22296 0.13992 0.49977 0.0
C1323 C 0.2017 0.13854 0.48691 0.0
N1324 N 0.19459 0.14234 0.4984 0.0
C1325 C 0.21546 0.14392 0.51142 0.0
C1326 C 0.21606 0.13732 0.48738 0.0
C1327 C 0.20112 0.14505 0.51053 0.0
C1328 C 0.25332 0.16031 0.53067 0.0
N1329 N 0.24818 0.14727 0.5314 0.0
C1330 C 0.23972 0.15145 0.5542 0.0
C1331 C 0.24134 0.14279 0.5428 0.0
C1332 C 0.24502 0.16494 0.55379 0.0
C1333 C 0.25186 0.16935 0.5418 0.0
H1334 H 0.25859 0.16367 0.52142 0.0
H1335 H 0.23695 0.13257 0.54301 0.0
C1336 C 0.22432 0.09687 0.48817 0.0
N1337 N 0.22426 0.10643 0.49843 0.0
C1338 C 0.21299 0.08816 0.48627 0.0
C1339 C 0.20173 0.0993 0.50553 0.0
C1340 C 0.21334 0.10769 0.50714 0.0
C1341 C 0.20147 0.08936 0.495 0.0
H1342 H 0.23319 0.09597 0.48147 0.0
H1343 H 0.21364 0.11518 0.51538 0.0
C1344 C 0.28027 0.14338 0.50965 0.0
N1345 N 0.30538 0.1527 0.51944 0.0
C1346 C 0.28993 0.14908 0.50058 0.0
C1347 C 0.28329 0.14267 0.52373 0.0
C1348 C 0.3026 0.15365 0.50571 0.0
C1349 C 0.29606 0.14737 0.52847 0.0
C1350 C 0.25791 0.11397 0.47333 0.0
C1351 C 0.27114 0.11041 0.46886 0.0
C1352 C 0.24751 0.11641 0.46365 0.0
C1353 C 0.2738 0.10955 0.45471 0.0
C1354 C 0.25059 0.11546 0.4496 0.0
N1355 N 0.26357 0.11209 0.44546 0.0
C1356 C 0.28048 0.09471 0.5129 0.0
C1357 C 0.29432 0.11154 0.50184 0.0
C1358 C 0.29195 0.08621 0.51488 0.0
N1359 N 0.28189 0.10719 0.50664 0.0
C1360 C 0.30607 0.10337 0.50358 0.0
C1361 C 0.30499 0.09053 0.51024 0.0
H1362 H 0.27043 0.09138 0.51642 0.0
H1363 H 0.29512 0.12126 0.49647 0.0
C1364 C 0.24627 0.15599 0.47048 0.0
N1365 N 0.25652 0.14708 0.47398 0.0
C1366 C 0.24768 0.16455 0.45897 0.0
C1367 C 0.27018 0.15463 0.45487 0.0
C1368 C 0.26836 0.14632 0.46651 0.0
C1369 C 0.25976 0.16394 0.45096 0.0
H1370 H 0.23704 0.15655 0.47671 0.0
H1371 H 0.2764 0.13923 0.46956 0.0
O1372 O 0.25059 0.11525 0.51788 0.0
O1373 O 0.237 0.13864 0.50048 0.0
O1374 O 0.26781 0.13885 0.50476 0.0
O1375 O 0.25515 0.11505 0.48713 0.0
H1376 H 0.22994 0.10378 0.53156 0.0
H1377 H 0.27268 0.11552 0.53408 0.0
H1378 H 0.23123 0.09539 0.5557 0.0
H1379 H 0.27319 0.1071 0.55821 0.0
H1380 H 0.19622 0.13647 0.47742 0.0
H1381 H 0.22064 0.14605 0.52106 0.0
H1382 H 0.22171 0.13431 0.47825 0.0
H1383 H 0.19518 0.14806 0.51948 0.0
H1384 H 0.23415 0.14773 0.56314 0.0
H1385 H 0.25617 0.17964 0.54108 0.0
H1386 H 0.21317 0.08068 0.47798 0.0
H1387 H 0.19316 0.10042 0.51261 0.0
H1388 H 0.28772 0.14988 0.48968 0.0
H1389 H 0.27581 0.13869 0.53096 0.0
H1390 H 0.31021 0.15798 0.49879 0.0
H1391 H 0.29853 0.14684 0.53934 0.0
H1392 H 0.27929 0.10842 0.47621 0.0
H1393 H 0.23719 0.11907 0.46694 0.0
H1394 H 0.28402 0.10688 0.4511 0.0
H1395 H 0.24266 0.11741 0.44199 0.0
H1396 H 0.29063 0.07644 0.52014 0.0
H1397 H 0.31585 0.10699 0.49956 0.0
H1398 H 0.23947 0.17172 0.45652 0.0
H1399 H 0.2796 0.15367 0.44895 0.0
Li1400 Li 0.38669 0.50067 0.7646 0.0
Li1401 Li 0.36915 0.51538 0.75385 0.0
Li1402 Li 0.36875 0.49026 0.75091 0.0
Li1403 Li 0.38636 0.50454 0.73961 0.0
C1404 C 0.36622 0.50083 0.78207 0.0
N1405 N 0.36711 0.50098 0.81056 0.0
C1406 C 0.36429 0.51315 0.78931 0.0
C1407 C 0.36855 0.48858 0.78932 0.0
C1408 C 0.36477 0.51301 0.80372 0.0
C1409 C 0.369 0.48888 0.80372 0.0
C1410 C 0.40041 0.52535 0.74978 0.0
C1411 C 0.41071 0.54124 0.73362 0.0
N1412 N 0.42331 0.53863 0.73921 0.0
C1413 C 0.41346 0.52284 0.75538 0.0
C1414 C 0.399 0.53465 0.73884 0.0
C1415 C 0.42491 0.52967 0.74989 0.0
C1416 C 0.40484 0.48631 0.78256 0.0
N1417 N 0.39827 0.4985 0.7804 0.0
C1418 C 0.40794 0.50789 0.80106 0.0
C1419 C 0.39973 0.50925 0.78929 0.0
C1420 C 0.41478 0.49537 0.80365 0.0
C1421 C 0.41316 0.4845 0.79419 0.0
H1422 H 0.40362 0.47798 0.77528 0.0
H1423 H 0.3945 0.5189 0.78721 0.0
C1424 C 0.34432 0.52912 0.76016 0.0
N1425 N 0.35763 0.53118 0.75628 0.0
C1426 C 0.33537 0.54031 0.76169 0.0
C1427 C 0.35404 0.55557 0.75536 0.0
C1428 C 0.36264 0.54408 0.75399 0.0
C1429 C 0.34017 0.55378 0.75922 0.0
H1430 H 0.34065 0.51875 0.76203 0.0
H1431 H 0.37328 0.54545 0.75101 0.0
C1432 C 0.38947 0.47349 0.74593 0.0
N1433 N 0.38926 0.44616 0.7378 0.0
C1434 C 0.39246 0.46997 0.73226 0.0
C1435 C 0.38643 0.46311 0.75547 0.0
C1436 C 0.3923 0.45609 0.72836 0.0
C1437 C 0.38634 0.44936 0.75115 0.0
C1438 C 0.355 0.51118 0.73138 0.0
C1439 C 0.34187 0.50558 0.7334 0.0
C1440 C 0.3564 0.52385 0.72462 0.0
C1441 C 0.33032 0.51281 0.72867 0.0
C1442 C 0.3446 0.53077 0.72007 0.0
N1443 N 0.33192 0.52515 0.72218 0.0
C1444 C 0.34929 0.47012 0.75946 0.0
C1445 C 0.35653 0.46822 0.73618 0.0
C1446 C 0.34075 0.4586 0.75799 0.0
N1447 N 0.35704 0.4746 0.74866 0.0
C1448 C 0.34824 0.45659 0.73429 0.0
C1449 C 0.34021 0.45164 0.74529 0.0
H1450 H 0.34972 0.4755 0.76921 0.0
H1451 H 0.36261 0.47217 0.7277 0.0
C1452 C 0.41148 0.50382 0.72493 0.0
N1453 N 0.39775 0.50636 0.72365 0.0
C1454 C 0.42026 0.50545 0.71363 0.0
C1455 C 0.40053 0.51181 0.69976 0.0
C1456 C 0.39214 0.51017 0.71137 0.0
C1457 C 0.41481 0.50954 0.70083 0.0
H1458 H 0.41562 0.50059 0.73478 0.0
H1459 H 0.38117 0.51196 0.71059 0.0
O1460 O 0.3661 0.5008 0.76796 0.0
O1461 O 0.3891 0.51859 0.75485 0.0
O1462 O 0.38936 0.48704 0.7499 0.0
O1463 O 0.3664 0.50445 0.73627 0.0
H1464 H 0.36259 0.52275 0.78387 0.0
H1465 H 0.37023 0.47898 0.78387 0.0
H1466 H 0.36335 0.52248 0.80945 0.0
H1467 H 0.3709 0.47949 0.80946 0.0
H1468 H 0.40978 0.54837 0.72508 0.0
H1469 H 0.41477 0.51561 0.76377 0.0
H1470 H 0.38901 0.53656 0.73423 0.0
H1471 H 0.43508 0.52779 0.75409 0.0
H1472 H 0.40906 0.51662 0.80793 0.0
H1473 H 0.41812 0.47462 0.79582 0.0
H1474 H 0.32484 0.53842 0.76491 0.0
H1475 H 0.35818 0.56572 0.7532 0.0
H1476 H 0.39477 0.47785 0.72471 0.0
H1477 H 0.38392 0.46566 0.76604 0.0
H1478 H 0.39455 0.45322 0.71782 0.0
H1479 H 0.3839 0.44123 0.75841 0.0
H1480 H 0.34057 0.49584 0.73869 0.0
H1481 H 0.36648 0.52841 0.72312 0.0
H1482 H 0.32009 0.50863 0.73021 0.0
H1483 H 0.34553 0.54063 0.71493 0.0
H1484 H 0.33477 0.45509 0.76675 0.0
H1485 H 0.34796 0.45165 0.72427 0.0
H1486 H 0.43117 0.50338 0.71485 0.0
H1487 H 0.39592 0.51503 0.6901 0.0
Li1488 Li 0.76504 0.38628 0.50095 0.0
Li1489 Li 0.75365 0.36906 0.51563 0.0
Li1490 Li 0.74999 0.36876 0.48984 0.0
Li1491 Li 0.73927 0.38627 0.50476 0.0
C1492 C 0.7797 0.36116 0.49592 0.0
N1493 N 0.80478 0.3515 0.48639 0.0
C1494 C 0.78933 0.35563 0.50513 0.0
C1495 C 0.78274 0.36152 0.48183 0.0
C1496 C 0.80198 0.35088 0.50012 0.0
C1497 C 0.79549 0.35665 0.47722 0.0
C1498 C 0.75728 0.39085 0.53195 0.0
C1499 C 0.75036 0.38923 0.5558 0.0
N1500 N 0.76328 0.39301 0.55974 0.0
C1501 C 0.77046 0.39483 0.53623 0.0
C1502 C 0.7471 0.38815 0.5418 0.0
C1503 C 0.77331 0.39582 0.55032 0.0
C1504 C 0.77946 0.41015 0.49251 0.0
N1505 N 0.78101 0.39762 0.49863 0.0
C1506 C 0.80522 0.40152 0.5014 0.0
C1507 C 0.79353 0.39329 0.50323 0.0
C1508 C 0.804 0.41441 0.49486 0.0
C1509 C 0.79087 0.41872 0.49045 0.0
H1510 H 0.76935 0.41347 0.48916 0.0
H1511 H 0.79445 0.38352 0.50849 0.0
C1512 C 0.74609 0.34871 0.53528 0.0
N1513 N 0.75616 0.35775 0.53158 0.0
C1514 C 0.74771 0.34039 0.54696 0.0
C1515 C 0.77002 0.35084 0.55079 0.0
C1516 C 0.76801 0.35887 0.539 0.0
C1517 C 0.75979 0.34143 0.55491 0.0
H1518 H 0.73681 0.34793 0.52915 0.0
H1519 H 0.77592 0.36602 0.53576 0.0
C1520 C 0.75083 0.39386 0.47414 0.0
N1521 N 0.75289 0.40343 0.44735 0.0
C1522 C 0.73946 0.40001 0.46773 0.0
C1523 C 0.76331 0.3928 0.46699 0.0
C1524 C 0.74069 0.40471 0.45416 0.0
C1525 C 0.76413 0.39765 0.45344 0.0
C1526 C 0.72241 0.36454 0.50575 0.0
C1527 C 0.71486 0.36073 0.49407 0.0
C1528 C 0.71554 0.36711 0.51816 0.0
C1529 C 0.70051 0.35975 0.49496 0.0
C1530 C 0.70118 0.36605 0.51863 0.0
N1531 N 0.69402 0.36243 0.50711 0.0
C1532 C 0.75283 0.34414 0.47473 0.0
C1533 C 0.74082 0.36169 0.46268 0.0
C1534 C 0.75151 0.33519 0.46351 0.0
N1535 N 0.74763 0.35715 0.47407 0.0
C1536 C 0.73934 0.35313 0.45119 0.0
C1537 C 0.74475 0.33969 0.45149 0.0
H1538 H 0.75807 0.34073 0.48398 0.0
H1539 H 0.73638 0.3719 0.46254 0.0
C1540 C 0.72273 0.40681 0.51743 0.0
N1541 N 0.72335 0.39773 0.50677 0.0
C1542 C 0.71118 0.41527 0.51913 0.0
C1543 C 0.70114 0.40493 0.49878 0.0
C1544 C 0.71291 0.39672 0.49746 0.0
C1545 C 0.70015 0.41439 0.50973 0.0
H1546 H 0.73125 0.40756 0.52458 0.0
H1547 H 0.7137 0.3895 0.489 0.0
O1548 O 0.76724 0.36584 0.50068 0.0
O1549 O 0.75436 0.38963 0.5182 0.0
O1550 O 0.74977 0.38918 0.48743 0.0
O1551 O 0.73645 0.36572 0.50502 0.0
H1552 H 0.78711 0.35509 0.51604 0.0
H1553 H 0.77528 0.36533 0.47449 0.0
H1554 H 0.80957 0.34668 0.50715 0.0
H1555 H 0.79798 0.3569 0.46634 0.0
H1556 H 0.74261 0.38707 0.56353 0.0
H1557 H 0.77844 0.39704 0.52875 0.0
H1558 H 0.73683 0.38514 0.53867 0.0
H1559 H 0.78349 0.39881 0.55378 0.0
H1560 H 0.81507 0.39791 0.50524 0.0
H1561 H 0.78943 0.42853 0.48529 0.0
H1562 H 0.73952 0.33334 0.54981 0.0
H1563 H 0.77957 0.35183 0.55649 0.0
H1564 H 0.72977 0.40108 0.47313 0.0
H1565 H 0.77233 0.38849 0.4719 0.0
H1566 H 0.73195 0.4094 0.44904 0.0
H1567 H 0.77373 0.39687 0.4478 0.0
H1568 H 0.72001 0.35864 0.48439 0.0
H1569 H 0.72123 0.36999 0.52731 0.0
H1570 H 0.69452 0.35689 0.48599 0.0
H1571 H 0.69572 0.3681 0.52815 0.0
H1572 H 0.7559 0.32494 0.46415 0.0
H1573 H 0.73382 0.35692 0.44224 0.0
H1574 H 0.711 0.42257 0.52758 0.0
H1575 H 0.69286 0.40376 0.49138 0.0
Li1576 Li 0.6366 0.98918 0.75448 0.0
Li1577 Li 0.61926 0.00382 0.76588 0.0
Li1578 Li 0.61912 0.99985 0.74008 0.0
Li1579 Li 0.63647 0.01502 0.75065 0.0
C1580 C 0.61464 0.97272 0.75835 0.0
N1581 N 0.6119 0.94502 0.76453 0.0
C1582 C 0.61075 0.9686 0.77161 0.0
C1583 C 0.61694 0.96277 0.74818 0.0
C1584 C 0.60946 0.95454 0.77454 0.0
C1585 C 0.61557 0.94881 0.75152 0.0
C1586 C 0.64389 0.00836 0.78082 0.0
C1587 C 0.64714 0.02606 0.79802 0.0
N1588 N 0.65233 0.01646 0.80683 0.0
C1589 C 0.64944 0.99871 0.78999 0.0
C1590 C 0.64288 0.02218 0.7848 0.0
C1591 C 0.65357 0.00299 0.80312 0.0
C1592 C 0.6577 0.97047 0.74691 0.0
N1593 N 0.6482 0.97337 0.7568 0.0
C1594 C 0.65537 0.95378 0.77 0.0
C1595 C 0.64696 0.96536 0.76825 0.0
C1596 C 0.66526 0.95047 0.75992 0.0
C1597 C 0.66636 0.95902 0.74825 0.0
H1598 H 0.65866 0.97713 0.73801 0.0
H1599 H 0.63944 0.96795 0.77606 0.0
C1600 C 0.5957 0.0128 0.78046 0.0
N1601 N 0.60799 0.00619 0.78192 0.0
C1602 C 0.58715 0.01489 0.79188 0.0
C1603 C 0.6039 0.00305 0.80606 0.0
C1604 C 0.61211 1.00118 0.79436 0.0
C1605 C 0.59124 0.01004 0.80493 0.0
H1606 H 0.59254 0.01648 0.77042 0.0
H1607 H 0.62166 0.99553 0.7952 0.0
C1608 C 0.64096 0.99821 0.72321 0.0
N1609 N 0.64341 0.99508 0.69498 0.0
C1610 C 0.64496 0.00937 0.715 0.0
C1611 C 0.63841 0.98541 0.71709 0.0
C1612 C 0.64609 0.00759 0.70074 0.0
C1613 C 0.63964 0.98405 0.70279 0.0
C1614 C 0.61204 0.03074 0.75082 0.0
C1615 C 0.6068 0.03698 0.73891 0.0
C1616 C 0.61291 0.03836 0.76303 0.0
C1617 C 0.60284 0.05083 0.73934 0.0
C1618 C 0.60883 0.05218 0.76305 0.0
N1619 N 0.60395 0.05809 0.7513 0.0
C1620 C 0.59824 0.98701 0.72419 0.0
C1621 C 0.60883 0.00618 0.71333 0.0
C1622 C 0.58978 0.98489 0.71271 0.0
N1623 N 0.60759 0.99746 0.72426 0.0
C1624 C 0.60061 0.00442 0.70163 0.0
C1625 C 0.59092 0.99364 0.70119 0.0
H1626 H 0.5973 0.98035 0.73307 0.0
H1627 H 0.61626 0.01448 0.71367 0.0
C1628 C 0.65971 0.03208 0.75522 0.0
N1629 N 0.64771 0.03103 0.74804 0.0
C1630 C 0.66822 0.0436 0.75355 0.0
C1631 C 0.65207 0.05258 0.73682 0.0
C1632 C 0.64385 0.04093 0.73887 0.0
C1633 C 0.66443 0.05405 0.74424 0.0
H1634 H 0.66275 0.02392 0.76219 0.0
H1635 H 0.63448 0.03969 0.73298 0.0
O1636 O 0.61609 0.98644 0.75534 0.0
O1637 O 0.63975 0.00432 0.76793 0.0
O1638 O 0.63962 0.99981 0.73718 0.0
O1639 O 0.616 0.01718 0.75056 0.0
H1640 H 0.60881 0.97615 0.77958 0.0
H1641 H 0.61979 0.96577 0.73783 0.0
H1642 H 0.60654 0.9512 0.78478 0.0
H1643 H 0.6174 0.941 0.74377 0.0
H1644 H 0.64637 0.03672 0.80123 0.0
H1645 H 0.65048 0.98801 0.78704 0.0
H1646 H 0.63904 0.02988 0.77772 0.0
H1647 H 0.65778 0.9956 0.81035 0.0
H1648 H 0.65404 0.94743 0.7791 0.0
H1649 H 0.67399 0.95704 0.74033 0.0
H1650 H 0.57753 0.02041 0.79053 0.0
H1651 H 0.60732 0.99886 0.81583 0.0
H1652 H 0.6471 0.01931 0.71956 0.0
H1653 H 0.63547 0.97664 0.7233 0.0
H1654 H 0.6491 0.01616 0.69425 0.0
H1655 H 0.6376 0.97422 0.69791 0.0
H1656 H 0.60587 0.03122 0.72942 0.0
H1657 H 0.61652 0.03362 0.77244 0.0
H1658 H 0.59887 0.05581 0.73018 0.0
H1659 H 0.60949 0.05819 0.77243 0.0
H1660 H 0.5823 0.9766 0.71295 0.0
H1661 H 0.60197 0.01133 0.69295 0.0
H1662 H 0.67779 0.04419 0.7593 0.0
H1663 H 0.64873 0.06039 0.72956 0.0
Li1664 Li 0.01575 0.25506 0.86847 0.0
Li1665 Li 1.00067 0.26599 0.88568 0.0
Li1666 Li 0.00469 0.24018 0.88607 0.0
Li1667 Li 0.98994 0.2512 0.86858 0.0
C1668 C 0.03161 0.25564 0.89285 0.0
N1669 N 0.05897 0.2558 0.9009 0.0
C1670 C 0.03771 0.26782 0.89759 0.0
C1671 C 0.03936 0.24349 0.89248 0.0
C1672 C 0.05157 0.26771 0.90153 0.0
C1673 C 0.05319 0.24379 0.89652 0.0
C1674 C 0.99898 0.28239 0.86342 0.0
C1675 C 0.98494 0.30292 0.86426 0.0
N1676 N 0.99599 0.31057 0.86023 0.0
C1677 C 0.01016 0.29043 0.85915 0.0
C1678 C 0.98623 0.28865 0.86587 0.0
C1679 C 0.00846 0.30466 0.85764 0.0
C1680 C 0.03248 0.2499 0.84516 0.0
N1681 N 0.03167 0.25735 0.85702 0.0
C1682 C 0.05333 0.26815 0.85217 0.0
C1683 C 0.04174 0.26646 0.86056 0.0
C1684 C 0.05457 0.26041 0.83997 0.0
C1685 C 0.04393 0.2512 0.8365 0.0
H1686 H 0.02419 0.24299 0.84237 0.0
H1687 H 0.04069 0.27258 0.8698 0.0
C1688 C 0.98805 0.28197 0.90657 0.0
N1689 N 0.99826 0.282 0.89697 0.0
C1690 C 0.98591 0.29349 0.91497 0.0
C1691 C 0.00493 0.30484 0.90354 0.0
C1692 C 0.00672 0.29308 0.89539 0.0
C1693 C 0.99439 0.30517 0.9135 0.0
H1694 H 0.9816 0.27296 0.90779 0.0
H1695 H 0.01486 0.29282 0.88778 0.0
C1696 C 0.00934 0.22477 0.86182 0.0
N1697 N 0.01789 0.19869 0.85405 0.0
C1698 C 0.99987 0.21536 0.85636 0.0
C1699 C 0.02319 0.22099 0.86308 0.0
C1700 C 0.00438 0.2022 0.85256 0.0
C1701 C 0.0273 0.20775 0.85916 0.0
C1702 C 0.97359 0.2479 0.89067 0.0
C1703 C 0.96938 0.23475 0.89483 0.0
C1704 C 0.96371 0.2581 0.88821 0.0
C1705 C 0.95531 0.23195 0.89621 0.0
C1706 C 0.94973 0.2549 0.88969 0.0
N1707 N 0.94586 0.242 0.89361 0.0
C1708 C 0.0137 0.22605 0.9099 0.0
C1709 C 1.00192 0.2119 0.89383 0.0
C1710 C 0.01564 0.21481 0.91873 0.0
N1711 N 0.00706 0.22438 0.89766 0.0
C1712 C 0.00363 0.20039 0.90233 0.0
C1713 C 0.0106 0.20174 0.91497 0.0
H1714 H 0.01749 0.23612 0.91282 0.0
H1715 H 0.99625 0.21091 0.8843 0.0
C1716 C 0.9708 0.25819 0.84759 0.0
N1717 N 0.97407 0.24849 0.85719 0.0
C1718 C 0.95929 0.25643 0.83909 0.0
C1719 C 0.95475 0.23471 0.85044 0.0
C1720 C 0.96637 0.23687 0.85869 0.0
C1721 C 0.95107 0.24455 0.84045 0.0
H1722 H 0.9772 0.26724 0.84644 0.0
H1723 H 0.96925 0.22923 0.86628 0.0
O1724 O 0.01803 0.25558 0.88893 0.0
O1725 O 1.0005 0.26845 0.86511 0.0
O1726 O 0.00507 0.23768 0.86565 0.0
O1727 O 0.98733 0.25078 0.88911 0.0
H1728 H 0.03184 0.27728 0.89813 0.0
H1729 H 0.03472 0.23388 0.88928 0.0
H1730 H 0.05644 0.27709 0.90511 0.0
H1731 H 0.05931 0.23446 0.89623 0.0
H1732 H 0.97515 0.30791 0.86621 0.0
H1733 H 0.02007 0.28575 0.85709 0.0
H1734 H 0.97743 0.28258 0.86902 0.0
H1735 H 0.01705 0.31102 0.85442 0.0
H1736 H 0.06129 0.27535 0.85526 0.0
H1737 H 0.04432 0.24523 0.82706 0.0
H1738 H 0.97782 0.29317 0.92266 0.0
H1739 H 0.01164 0.31362 0.90192 0.0
H1740 H 0.98915 0.21814 0.85512 0.0
H1741 H 0.03073 0.22826 0.86687 0.0
H1742 H 0.99715 0.19478 0.84842 0.0
H1743 H 0.03799 0.20469 0.86012 0.0
H1744 H 0.97688 0.22676 0.89689 0.0
H1745 H 0.96678 0.26837 0.88516 0.0
H1746 H 0.9519 0.2218 0.89934 0.0
H1747 H 0.94197 0.26268 0.88773 0.0
H1748 H 0.02115 0.21633 0.92833 0.0
H1749 H 0.99931 0.19059 0.89915 0.0
H1750 H 0.957 0.26419 0.83138 0.0
H1751 H 0.94866 0.22547 0.85198 0.0
Li1752 Li 0.51546 0.75409 0.36862 0.0
Li1753 Li 0.50081 0.76515 0.38607 0.0
Li1754 Li 0.5049 0.74015 0.38629 0.0
Li1755 Li 0.49035 0.75094 0.3686 0.0
C1756 C 0.53187 0.75888 0.38969 0.0
N1757 N 0.55923 0.76686 0.39008 0.0
C1758 C 0.53538 0.77256 0.39258 0.0
C1759 C 0.54228 0.74923 0.38708 0.0
C1760 C 0.54928 0.77639 0.39272 0.0
C1761 C 0.55604 0.75348 0.38729 0.0
C1762 C 0.49459 0.77376 0.35478 0.0
C1763 C 0.47501 0.78506 0.34436 0.0
N1764 N 0.48101 0.78366 0.33175 0.0
C1765 C 0.50058 0.77247 0.34172 0.0
C1766 C 0.48173 0.78015 0.35614 0.0
C1767 C 0.49354 0.77754 0.33021 0.0
C1768 C 0.536 0.74583 0.34945 0.0
N1769 N 0.5313 0.75654 0.35718 0.0
C1770 C 0.54918 0.77118 0.34855 0.0
C1771 C 0.53753 0.7691 0.35677 0.0
C1772 C 0.55437 0.76028 0.34049 0.0
C1773 C 0.54756 0.74748 0.341 0.0
H1774 H 0.53071 0.73603 0.34975 0.0
H1775 H 0.53344 0.77749 0.36288 0.0
C1776 C 0.50082 0.77982 0.41128 0.0
N1777 N 0.49867 0.78105 0.39748 0.0
C1778 C 0.49895 0.79116 0.41997 0.0
C1779 C 0.49322 0.80497 0.40001 0.0
C1780 C 0.49507 0.79332 0.39172 0.0
C1781 C 0.49507 0.80395 0.41435 0.0
H1782 H 0.50391 0.76998 0.41555 0.0
H1783 H 0.4936 0.79407 0.3807 0.0
C1784 C 0.50527 0.72289 0.36538 0.0
N1785 N 0.50552 0.69438 0.36529 0.0
C1786 C 0.4932 0.71555 0.36248 0.0
C1787 C 0.51749 0.71574 0.36815 0.0
C1788 C 0.49354 0.70113 0.36249 0.0
C1789 C 0.51739 0.70132 0.3681 0.0
C1790 C 0.47985 0.75461 0.39971 0.0
C1791 C 0.48224 0.74897 0.41277 0.0
C1792 C 0.47035 0.76536 0.39819 0.0
C1793 C 0.47511 0.75425 0.42413 0.0
C1794 C 0.46346 0.77037 0.40982 0.0
N1795 N 0.46597 0.76476 0.42244 0.0
C1796 C 0.51851 0.72303 0.40574 0.0
C1797 C 0.49676 0.71476 0.39823 0.0
C1798 C 0.52017 0.71156 0.41432 0.0
N1799 N 0.50698 0.72436 0.39788 0.0
C1800 C 0.49805 0.70306 0.40656 0.0
C1801 C 0.50988 0.70137 0.41477 0.0
H1802 H 0.52639 0.7309 0.40541 0.0
H1803 H 0.48757 0.71622 0.39207 0.0
C1804 C 0.47661 0.74575 0.34341 0.0
N1805 N 0.47461 0.74838 0.35704 0.0
C1806 C 0.46533 0.74392 0.33463 0.0
C1807 C 0.45016 0.74731 0.35412 0.0
C1808 C 0.46173 0.7491 0.36251 0.0
C1809 C 0.45186 0.74469 0.33996 0.0
H1810 H 0.48699 0.74511 0.33936 0.0
H1811 H 0.46044 0.75098 0.37342 0.0
O1812 O 0.51832 0.75497 0.38928 0.0
O1813 O 0.50118 0.76862 0.36615 0.0
O1814 O 0.5051 0.73699 0.36565 0.0
O1815 O 0.4869 0.74975 0.38849 0.0
H1816 H 0.52747 0.78018 0.39457 0.0
H1817 H 0.53973 0.73862 0.38473 0.0
H1818 H 0.55215 0.78696 0.39489 0.0
H1819 H 0.56419 0.74615 0.38518 0.0
H1820 H 0.46501 0.78993 0.34525 0.0
H1821 H 0.51049 0.76749 0.34047 0.0
H1822 H 0.4769 0.78113 0.36615 0.0
H1823 H 0.49802 0.77656 0.32003 0.0
H1824 H 0.55413 0.7812 0.34863 0.0
H1825 H 0.55098 0.73886 0.33477 0.0
H1826 H 0.50068 0.78998 0.43095 0.0
H1827 H 0.49016 0.81462 0.39526 0.0
H1828 H 0.48364 0.7209 0.36039 0.0
H1829 H 0.52689 0.72126 0.37051 0.0
H1830 H 0.48427 0.69532 0.36032 0.0
H1831 H 0.52675 0.69565 0.37032 0.0
H1832 H 0.4896 0.7407 0.41415 0.0
H1833 H 0.46848 0.76993 0.38818 0.0
H1834 H 0.4769 0.75003 0.43431 0.0
H1835 H 0.45617 0.77876 0.40882 0.0
H1836 H 0.52948 0.71062 0.42042 0.0
H1837 H 0.48978 0.69555 0.40676 0.0
H1838 H 0.46715 0.74206 0.32376 0.0
H1839 H 0.43999 0.74774 0.35874 0.0
Li1840 Li 0.00349 0.76527 0.61851 0.0
Li1841 Li 0.99014 0.75398 0.63597 0.0
Li1842 Li 0.01479 0.75108 0.63624 0.0
Li1843 Li 0.99999 0.73966 0.61804 0.0
C1844 C 0.01197 0.77976 0.64195 0.0
N1845 N 0.02764 0.80281 0.64795 0.0
C1846 C 0.0063 0.7906 0.64959 0.0
C1847 C 0.02561 0.78064 0.63739 0.0
C1848 C 0.01438 0.80217 0.6525 0.0
C1849 C 0.03337 0.79237 0.64053 0.0
C1850 C 0.97554 0.76353 0.61286 0.0
C1851 C 0.95612 0.77018 0.59879 0.0
N1852 N 0.95451 0.78173 0.6066 0.0
C1853 C 0.97367 0.77546 0.62076 0.0
C1854 C 0.96669 0.76085 0.6018 0.0
C1855 C 0.96299 0.78453 0.61742 0.0
C1856 C 0.01041 0.77871 0.59374 0.0
N1857 N 0.00552 0.78092 0.6067 0.0
C1858 C 0.00379 0.80515 0.60237 0.0
C1859 C 1.00211 0.7938 0.61109 0.0
C1860 C 0.00901 0.80324 0.58897 0.0
C1861 C 0.01229 0.78977 0.58469 0.0
H1862 H 0.01292 0.76835 0.59047 0.0
H1863 H 0.998 0.79529 0.62134 0.0
C1864 C 0.9757 0.76282 0.65967 0.0
N1865 N 0.9744 0.75572 0.64766 0.0
C1866 C 0.96439 0.76436 0.66846 0.0
C1867 C 0.95064 0.75113 0.6524 0.0
C1868 C 0.9622 0.74992 0.64388 0.0
C1869 C 0.95163 0.75848 0.66486 0.0
H1870 H 0.98557 0.76723 0.66245 0.0
H1871 H 0.96148 0.74433 0.63425 0.0
C1872 C 0.02975 0.74801 0.60988 0.0
N1873 N 0.05505 0.74272 0.59782 0.0
C1874 C 0.03375 0.73445 0.60703 0.0
C1875 C 0.03856 0.7589 0.60639 0.0
C1876 C 0.0466 0.73198 0.60099 0.0
C1877 C 0.05132 0.75601 0.60036 0.0
C1878 C 0.99297 0.73017 0.64806 0.0
C1879 C 0.99539 0.73302 0.66198 0.0
C1880 C 0.98222 0.72134 0.64431 0.0
C1881 C 0.98688 0.72705 0.67197 0.0
C1882 C 0.97394 0.71556 0.65461 0.0
N1883 N 0.97642 0.71853 0.6681 0.0
C1884 C 0.03074 0.7552 0.66025 0.0
C1885 C 0.04135 0.74059 0.64379 0.0
C1886 C 0.04202 0.75382 0.66911 0.0
N1887 N 0.03066 0.74875 0.64779 0.0
C1888 C 0.05285 0.73893 0.65232 0.0
C1889 C 0.05331 0.74561 0.66518 0.0
H1890 H 0.02198 0.76138 0.66334 0.0
H1891 H 0.04095 0.73528 0.63403 0.0
C1892 C 0.99223 0.72553 0.59383 0.0
N1893 N 0.99781 0.72394 0.60659 0.0
C1894 C 0.99033 0.71409 0.58527 0.0
C1895 C 1.00012 0.69964 0.60311 0.0
C1896 C 1.00172 0.71134 0.61136 0.0
C1897 C 0.99431 0.70092 0.58988 0.0
H1898 H 0.98925 0.7357 0.59032 0.0
H1899 H 0.00608 0.71041 0.62159 0.0
O1900 O 0.00409 0.76847 0.63888 0.0
O1901 O 0.98593 0.75446 0.61589 0.0
O1902 O 0.01712 0.75062 0.61563 0.0
O1903 O 1.00092 0.73624 0.63812 0.0
H1904 H 0.99572 0.79011 0.65313 0.0
H1905 H 0.03018 0.77231 0.6316 0.0
H1906 H 0.01011 0.81065 0.65836 0.0
H1907 H 0.04395 0.79316 0.63707 0.0
H1908 H 0.9492 0.76824 0.59025 0.0
H1909 H 0.98037 0.7777 0.62939 0.0
H1910 H 0.96798 0.75165 0.5956 0.0
H1911 H 0.96144 0.7938 0.62344 0.0
H1912 H 1.00086 0.81529 0.60604 0.0
H1913 H 0.01647 0.7878 0.57451 0.0
H1914 H 0.96566 0.76995 0.67805 0.0
H1915 H 0.94097 0.74655 0.64916 0.0
H1916 H 0.02708 0.7259 0.60961 0.0
H1917 H 0.03556 0.76949 0.60822 0.0
H1918 H 0.04986 0.72152 0.59884 0.0
H1919 H 0.05824 0.76433 0.59765 0.0
H1920 H 0.00364 0.73989 0.66502 0.0
H1921 H 0.98017 0.71911 0.63356 0.0
H1922 H 0.98856 0.72923 0.68278 0.0
H1923 H 0.96552 0.70878 0.65187 0.0
H1924 H 0.04178 0.75894 0.67904 0.0
H1925 H 0.06133 0.73257 0.6488 0.0
H1926 H 0.98593 0.71554 0.5751 0.0
H1927 H 0.00318 0.68967 0.60711 0.0
Li1928 Li 0.50444 0.26517 0.11877 0.0
Li1929 Li 0.48981 0.25394 0.13623 0.0
Li1930 Li 0.51565 0.25024 0.13622 0.0
Li1931 Li 0.50057 0.23935 0.11899 0.0
C1932 C 0.50887 0.2805 0.14311 0.0
N1933 N 0.5169 0.3067 0.151 0.0
C1934 C 0.49922 0.28971 0.14858 0.0
C1935 C 0.52266 0.28454 0.1419 0.0
C1936 C 0.50346 0.30293 0.15244 0.0
C1937 C 0.52651 0.29784 0.14588 0.0
C1938 C 0.4734 0.25742 0.11419 0.0
C1939 C 0.44952 0.25045 0.11512 0.0
N1940 N 0.44567 0.26339 0.1113 0.0
C1941 C 0.4692 0.27061 0.11014 0.0
C1942 C 0.46349 0.24721 0.11657 0.0
C1943 C 0.45513 0.27344 0.10878 0.0
C1944 C 0.51325 0.27928 0.09491 0.0
N1945 N 0.50674 0.281 0.10721 0.0
C1946 C 0.50342 0.30501 0.10253 0.0
C1947 C 0.50172 0.29352 0.11107 0.0
C1948 C 0.51024 0.30358 0.08982 0.0
C1949 C 0.51517 0.29048 0.08604 0.0
H1950 H 0.51695 0.26917 0.09197 0.0
H1951 H 0.49615 0.29457 0.12065 0.0
C1952 C 0.47093 0.24651 0.15723 0.0
N1953 N 0.47393 0.25635 0.14771 0.0
C1954 C 0.45936 0.24787 0.16572 0.0
C1955 C 0.45423 0.26955 0.15454 0.0
C1956 C 0.46592 0.26778 0.1463 0.0
C1957 C 0.45079 0.2595 0.16442 0.0
H1958 H 0.47758 0.23762 0.15832 0.0
H1959 H 0.4686 0.27555 0.13876 0.0
C1960 C 0.53144 0.24997 0.11186 0.0
N1961 N 0.55882 0.25016 0.10387 0.0
C1962 C 0.53767 0.2379 0.107 0.0
C1963 C 0.53907 0.26219 0.11239 0.0
C1964 C 0.55154 0.23819 0.10309 0.0
C1965 C 0.55291 0.26207 0.10838 0.0
C1966 C 0.499 0.22277 0.14107 0.0
C1967 C 0.5102 0.2147 0.14526 0.0
C1968 C 0.48627 0.21651 0.13854 0.0
C1969 C 0.50852 0.20045 0.14662 0.0
C1970 C 0.485 0.20222 0.13998 0.0
N1971 N 0.49607 0.19455 0.14395 0.0
C1972 C 0.53258 0.25541 0.1594 0.0
C1973 C 0.54164 0.23877 0.14397 0.0
C1974 C 0.54409 0.25409 0.16796 0.0
N1975 N 0.53164 0.24793 0.14757 0.0
C1976 C 0.5533 0.23706 0.15227 0.0
C1977 C 0.55467 0.24483 0.16443 0.0
H1978 H 0.52433 0.26237 0.16223 0.0
H1979 H 0.54049 0.23263 0.13475 0.0
C1980 C 0.48788 0.2234 0.09812 0.0
N1981 N 0.49821 0.22341 0.10761 0.0
C1982 C 0.48572 0.2119 0.08971 0.0
C1983 C 0.50496 0.20064 0.10087 0.0
C1984 C 0.50677 0.21238 0.10903 0.0
C1985 C 0.4943 0.20028 0.09104 0.0
H1986 H 0.48135 0.23237 0.09702 0.0
H1987 H 0.51499 0.21267 0.11656 0.0
O1988 O 0.50486 0.26752 0.13922 0.0
O1989 O 0.48712 0.2545 0.11571 0.0
O1990 O 0.51786 0.24985 0.11576 0.0
O1991 O 0.5005 0.23673 0.13953 0.0
H1992 H 0.48855 0.28673 0.14976 0.0
H1993 H 0.53035 0.27743 0.1381 0.0
H1994 H 0.49608 0.3102 0.15659 0.0
H1995 H 0.53714 0.30111 0.14496 0.0
H1996 H 0.44175 0.24267 0.11703 0.0
H1997 H 0.47671 0.2786 0.10814 0.0
H1998 H 0.46655 0.23691 0.11955 0.0
H1999 H 0.45174 0.28363 0.10574 0.0
H2000 H 0.49918 0.31484 0.10573 0.0
H2001 H 0.52057 0.28891 0.07638 0.0
H2002 H 0.45728 0.23998 0.17336 0.0
H2003 H 0.44788 0.27862 0.15306 0.0
H2004 H 0.5319 0.22839 0.10634 0.0
H2005 H 0.53434 0.27171 0.11569 0.0
H2006 H 0.55651 0.2289 0.09942 0.0
H2007 H 0.55894 0.27145 0.10878 0.0
H2008 H 0.52009 0.21938 0.14739 0.0
H2009 H 0.47746 0.2226 0.13544 0.0
H2010 H 0.51712 0.19407 0.14978 0.0
H2011 H 0.47523 0.19724 0.13797 0.0
H2012 H 0.54459 0.26009 0.17738 0.0
H2013 H 0.5612 0.22981 0.14914 0.0
H2014 H 0.47753 0.2122 0.08211 0.0
H2015 H 0.51174 0.19189 0.10237 0.0
H2016 H 0.22606 0.77608 0.83496 0.0
H2017 H 0.2286 0.79186 0.85451 0.0
H2018 H 0.24058 0.75784 0.88055 0.0
H2019 H 0.23781 0.74194 0.86118 0.0
H2020 H 0.2149 0.79053 0.88095 0.0
H2021 H 0.27191 0.78665 0.88546 0.0
H2022 H 0.26267 0.78139 0.87016 0.0
H2023 H 0.26291 0.77044 0.88511 0.0
C2024 C 0.22913 0.77192 0.84487 0.0
C2025 C 0.23179 0.75773 0.84647 0.0
C2026 C 0.23065 0.78097 0.856 0.0
C2027 C 0.23496 0.77604 0.8689 0.0
C2028 C 0.2375 0.76189 0.87059 0.0
H2029 H 0.25124 0.81188 0.94904 0.0
H2030 H 0.24844 0.7968 0.92899 0.0
C2031 C 0.23595 0.75283 0.85949 0.0
C2032 C 0.23655 0.78564 0.88069 0.0
H2033 H 0.26024 0.79863 0.90329 0.0
C2034 C 0.22481 0.79239 0.8858 0.0
C2035 C 0.2495 0.78797 0.887 0.0
C2036 C 0.26251 0.78134 0.88162 0.0
C2037 C 0.22561 0.80119 0.89729 0.0
C2038 C 0.23857 0.80352 0.90362 0.0
C2039 C 0.25032 0.79682 0.89843 0.0
C2040 C 0.24016 0.81275 0.91574 0.0
C2041 C 0.21252 0.80758 0.90277 0.0
C2042 C 0.23659 0.82676 0.91489 0.0
C2043 C 0.23817 0.8354 0.92634 0.0
C2044 C 0.24351 0.83022 0.93881 0.0
C2045 C 0.24723 0.81622 0.93956 0.0
C2046 C 0.24558 0.80757 0.92813 0.0
H2047 H 0.20321 0.80192 0.89921 0.0
H2048 H 0.21252 0.80779 0.91423 0.0
H2049 H 0.21173 0.81836 0.89899 0.0
H2050 H 0.23271 0.83106 0.90533 0.0
H2051 H 0.23543 0.84619 0.92536 0.0
H2052 H 0.01255 0.50912 0.4124 0.0
H2053 H 0.02665 0.50482 0.39196 0.0
H2054 H 0.03272 0.5486 0.38681 0.0
H2055 H 0.01803 0.55304 0.40678 0.0
H2056 H 0.02689 0.53633 0.36265 0.0
H2057 H 0.06812 0.50704 0.38938 0.0
H2058 H 0.05128 0.49973 0.39174 0.0
H2059 H 0.05505 0.51656 0.3986 0.0
C2060 C 0.01677 0.51785 0.40686 0.0
C2061 C 0.01418 0.53144 0.41132 0.0
C2062 C 0.025 0.51536 0.39527 0.0
C2063 C 0.03098 0.52637 0.38801 0.0
C2064 C 0.02831 0.53993 0.39233 0.0
H2065 H 0.09816 0.52105 0.32908 0.0
H2066 H 0.08341 0.52504 0.34917 0.0
C2067 C 0.02001 0.54244 0.40384 0.0
C2068 C 0.0398 0.52383 0.37573 0.0
H2069 H 0.06893 0.50723 0.36487 0.0
C2070 C 0.0361 0.52999 0.36314 0.0
C2071 C 0.05193 0.51572 0.37642 0.0
C2072 C 0.05693 0.50949 0.38979 0.0
C2073 C 0.04412 0.52819 0.35121 0.0
C2074 C 0.05599 0.51969 0.35179 0.0
C2075 C 0.05975 0.51363 0.3644 0.0
C2076 C 0.06485 0.51722 0.33953 0.0
C2077 C 0.03998 0.53568 0.3382 0.0
C2078 C 0.05936 0.51135 0.32747 0.0
C2079 C 0.06776 0.50914 0.31594 0.0
C2080 C 0.08185 0.51256 0.31633 0.0
C2081 C 0.08736 0.51822 0.3285 0.0
C2082 C 0.07894 0.52053 0.33997 0.0
H2083 H 0.03319 0.54464 0.34046 0.0
H2084 H 0.04916 0.53942 0.33247 0.0
H2085 H 0.03417 0.52852 0.33142 0.0
H2086 H 0.04861 0.50837 0.327 0.0
H2087 H 0.06327 0.50455 0.3068 0.0
H2088 H 0.75173 0.74443 0.84512 0.0
H2089 H 0.74946 0.72889 0.86489 0.0
H2090 H 0.79372 0.72791 0.8693 0.0
H2091 H 0.79607 0.74384 0.84988 0.0
H2092 H 0.75992 0.70239 0.86849 0.0
H2093 H 0.78081 0.73814 0.90807 0.0
H2094 H 0.7757 0.74387 0.8911 0.0
H2095 H 0.79203 0.73544 0.89358 0.0
C2096 C 0.76098 0.74105 0.8504 0.0
C2097 C 0.77408 0.74547 0.84596 0.0
C2098 C 0.75967 0.73209 0.86163 0.0
C2099 C 0.77141 0.72742 0.8687 0.0
C2100 C 0.7845 0.7316 0.86416 0.0
H2101 H 0.78403 0.67322 0.93906 0.0
H2102 H 0.78681 0.68801 0.91877 0.0
C2103 C 0.78583 0.74058 0.85295 0.0
C2104 C 0.76993 0.71802 0.88069 0.0
H2105 H 0.77669 0.71509 0.91516 0.0
C2106 C 0.76354 0.70517 0.87871 0.0
C2107 C 0.77467 0.72168 0.89401 0.0
C2108 C 0.78108 0.73558 0.8969 0.0
C2109 C 0.76193 0.6958 0.88965 0.0
C2110 C 0.76667 0.69948 0.90296 0.0
C2111 C 0.7731 0.7123 0.90493 0.0
C2112 C 0.76492 0.69023 0.91502 0.0
C2113 C 0.75542 0.68195 0.88683 0.0
C2114 C 0.75169 0.68667 0.9197 0.0
C2115 C 0.75007 0.67818 0.93125 0.0
C2116 C 0.76166 0.67313 0.93839 0.0
C2117 C 0.7749 0.67677 0.93369 0.0
C2118 C 0.77651 0.68528 0.92215 0.0
H2119 H 0.75558 0.67937 0.87566 0.0
H2120 H 0.76079 0.67364 0.89261 0.0
H2121 H 0.74449 0.68217 0.89024 0.0
H2122 H 0.74261 0.69056 0.91448 0.0
H2123 H 0.73973 0.6755 0.93453 0.0
H2124 H 0.01201 0.98902 0.39365 0.0
H2125 H 0.99596 0.99178 0.3744 0.0
H2126 H 0.96253 0.97755 0.40003 0.0
H2127 H 0.97842 0.97508 0.41951 0.0
H2128 H 0.96489 0.96469 0.37272 0.0
H2129 H 0.96516 0.02205 0.37122 0.0
H2130 H 0.98183 0.0139 0.37154 0.0
H2131 H 0.9706 0.01236 0.38619 0.0
C2132 C 1.00122 0.98666 0.39529 0.0
C2133 C 0.99652 0.9819 0.40819 0.0
C2134 C 0.99207 0.9882 0.38425 0.0
C2135 C 0.97806 0.98499 0.38585 0.0
C2136 C 0.97333 0.98009 0.39861 0.0
H2137 H 0.91033 0.00412 0.33017 0.0
H2138 H 0.92533 1.00115 0.35031 0.0
C2139 C 0.98244 0.97862 0.4097 0.0
C2140 C 0.96839 0.98658 0.37413 0.0
H2141 H 0.95375 0.01057 0.35288 0.0
C2142 C 0.96241 0.97471 0.36839 0.0
C2143 C 0.96511 0.99968 0.36862 0.0
C2144 C 0.9709 0.01277 0.37474 0.0
C2145 C 0.95342 0.9756 0.35706 0.0
C2146 C 0.95041 0.98867 0.35133 0.0
C2147 C 0.95617 1.00056 0.35725 0.0
C2148 C 0.94129 0.99024 0.33917 0.0
C2149 C 0.9471 0.96257 0.35136 0.0
C2150 C 0.94537 0.98517 0.32624 0.0
C2151 C 0.93685 0.98686 0.31473 0.0
C2152 C 0.92407 0.99364 0.31595 0.0
C2153 C 0.92003 0.99871 0.32894 0.0
C2154 C 0.92861 0.99709 0.34042 0.0
H2155 H 0.94811 0.95377 0.35865 0.0
H2156 H 0.936 0.96415 0.34899 0.0
H2157 H 0.95241 0.95976 0.34161 0.0
H2158 H 0.9552 0.97999 0.32505 0.0
H2159 H 0.9402 0.98276 0.30489 0.0
H2160 H 0.25374 0.24394 0.66054 0.0
H2161 H 0.25599 0.22837 0.6408 0.0
H2162 H 0.21246 0.23247 0.63252 0.0
H2163 H 0.21011 0.24792 0.65237 0.0
H2164 H 0.22083 0.20587 0.63088 0.0
H2165 H 0.2561 0.23905 0.60048 0.0
H2166 H 0.26256 0.2352 0.6174 0.0
H2167 H 0.24705 0.24524 0.61552 0.0
C2168 C 0.24468 0.24161 0.65444 0.0
C2169 C 0.23177 0.24723 0.65795 0.0
C2170 C 0.24598 0.23274 0.64314 0.0
C2171 C 0.23445 0.22946 0.63501 0.0
C2172 C 0.22151 0.2349 0.63862 0.0
H2173 H 0.23762 0.19218 0.55346 0.0
H2174 H 0.23466 0.20764 0.5732 0.0
C2175 C 0.22018 0.24369 0.64998 0.0
C2176 C 0.23581 0.22019 0.62289 0.0
H2177 H 0.25297 0.21608 0.59239 0.0
C2178 C 0.22781 0.20813 0.62243 0.0
C2179 C 0.24478 0.22325 0.61177 0.0
C2180 C 0.25301 0.23645 0.61121 0.0
C2181 C 0.22869 0.19892 0.61128 0.0
C2182 C 0.23806 0.2017 0.60043 0.0
C2183 C 0.24589 0.21388 0.60078 0.0
C2184 C 0.23979 0.19222 0.58852 0.0
C2185 C 0.21935 0.18646 0.61111 0.0
C2186 C 0.24383 0.17845 0.59054 0.0
C2187 C 0.24547 0.16958 0.57928 0.0
C2188 C 0.2433 0.17436 0.56575 0.0
C2189 C 0.23947 0.18821 0.56374 0.0
C2190 C 0.23773 0.19705 0.57501 0.0
H2191 H 0.21021 0.18794 0.61787 0.0
H2192 H 0.21571 0.18415 0.60049 0.0
H2193 H 0.22514 0.17737 0.61498 0.0
H2194 H 0.24584 0.17459 0.60083 0.0
H2195 H 0.24865 0.15903 0.58115 0.0
H2196 H 0.47808 0.53077 0.5853 0.0
H2197 H 0.46247 0.52862 0.60503 0.0
H2198 H 0.49616 0.51436 0.63031 0.0
H2199 H 0.51194 0.51678 0.61078 0.0
H2200 H 0.47112 0.49785 0.63137 0.0
H2201 H 0.46185 0.55381 0.64012 0.0
H2202 H 0.45954 0.5478 0.62272 0.0
H2203 H 0.4764 0.54746 0.63036 0.0
C2204 C 0.48223 0.52736 0.5951 0.0
C2205 C 0.4963 0.52397 0.59643 0.0
C2206 C 0.47328 0.5261 0.60635 0.0
C2207 C 0.4782 0.52144 0.61913 0.0
C2208 C 0.49218 0.51797 0.62051 0.0
H2209 H 0.43995 0.52229 0.69993 0.0
H2210 H 0.45523 0.525 0.67997 0.0
C2211 C 0.50116 0.51928 0.6093 0.0
C2212 C 0.46875 0.51993 0.63104 0.0
H2213 H 0.44872 0.53819 0.65355 0.0
C2214 C 0.4662 0.50665 0.63622 0.0
C2215 C 0.46247 0.53146 0.63739 0.0
C2216 C 0.46524 0.54597 0.63248 0.0
C2217 C 0.4574 0.50459 0.64755 0.0
C2218 C 0.45095 0.5161 0.65376 0.0
C2219 C 0.45362 0.52939 0.64868 0.0
C2220 C 0.4416 0.51455 0.66574 0.0
C2221 C 0.45522 0.49014 0.65293 0.0
C2222 C 0.42882 0.5079 0.66427 0.0
C2223 C 0.42007 0.50635 0.67564 0.0
C2224 C 0.42398 0.51138 0.68869 0.0
C2225 C 0.43674 0.51814 0.69007 0.0
C2226 C 0.44544 0.51977 0.67867 0.0
H2227 H 0.46298 0.4828 0.64877 0.0
H2228 H 0.45574 0.48997 0.66437 0.0
H2229 H 0.44483 0.48649 0.64982 0.0
H2230 H 0.42562 0.50393 0.65433 0.0
H2231 H 0.41035 0.50102 0.67427 0.0
H2232 H 0.78598 0.28388 0.67201 0.0
H2233 H 0.78145 0.29835 0.65182 0.0
H2234 H 0.76938 0.26239 0.62862 0.0
H2235 H 0.77415 0.24778 0.64863 0.0
H2236 H 0.7939 0.29571 0.62495 0.0
H2237 H 0.73688 0.28985 0.62338 0.0
H2238 H 0.74696 0.28586 0.63854 0.0
H2239 H 0.74653 0.27404 0.62428 0.0
C2240 C 0.78244 0.27902 0.6626 0.0
C2241 C 0.78042 0.26465 0.66197 0.0
C2242 C 0.77978 0.28732 0.6511 0.0
C2243 C 0.77492 0.28145 0.6388 0.0
C2244 C 0.77288 0.26714 0.63811 0.0
H2245 H 0.7539 0.31397 0.55797 0.0
H2246 H 0.7577 0.29951 0.57834 0.0
C2247 C 0.77558 0.25882 0.64958 0.0
C2248 C 0.77244 0.29026 0.62655 0.0
H2249 H 0.74728 0.30159 0.60465 0.0
C2250 C 0.78371 0.29706 0.62053 0.0
C2251 C 0.75914 0.29191 0.62079 0.0
C2252 C 0.74664 0.28513 0.62711 0.0
C2253 C 0.78207 0.30532 0.60873 0.0
C2254 C 0.76874 0.30707 0.60302 0.0
C2255 C 0.75748 0.30024 0.60905 0.0
C2256 C 0.76628 0.31594 0.59078 0.0
C2257 C 0.79469 0.31179 0.60231 0.0
C2258 C 0.76961 0.33003 0.59108 0.0
C2259 C 0.76747 0.33831 0.57946 0.0
C2260 C 0.7618 0.33269 0.56735 0.0
C2261 C 0.75819 0.31863 0.56717 0.0
C2262 C 0.7604 0.31035 0.57878 0.0
H2263 H 0.8043 0.3064 0.60548 0.0
H2264 H 0.79403 0.31167 0.59087 0.0
H2265 H 0.79549 0.32268 0.60574 0.0
H2266 H 0.77382 0.33466 0.60035 0.0
H2267 H 0.77012 0.34915 0.58001 0.0
H2268 H 0.51447 0.99515 0.59157 0.0
H2269 H 0.52893 0.99948 0.61183 0.0
H2270 H 0.53184 0.95571 0.61923 0.0
H2271 H 0.51724 0.95127 0.59915 0.0
H2272 H 0.52424 0.99129 0.63979 0.0
H2273 H 0.57242 0.9687 0.61855 0.0
H2274 H 0.55792 0.97333 0.6078 0.0
H2275 H 0.55759 0.95761 0.61764 0.0
C2276 C 0.5181 0.98644 0.59756 0.0
C2277 C 0.51476 0.97285 0.59367 0.0
C2278 C 0.52642 0.98894 0.60909 0.0
C2279 C 0.53162 0.97791 0.61689 0.0
C2280 C 0.52817 0.96436 0.61317 0.0
H2281 H 0.58327 0.96918 0.68922 0.0
H2282 H 0.56851 0.96576 0.66906 0.0
C2283 C 0.51985 0.96184 0.60167 0.0
C2284 C 0.54046 0.98055 0.62909 0.0
H2285 H 0.57258 0.97463 0.64229 0.0
C2286 C 0.53484 0.98773 0.64033 0.0
C2287 C 0.55426 0.97586 0.62974 0.0
C2288 C 0.56099 0.96855 0.61776 0.0
C2289 C 0.54256 0.99006 0.65238 0.0
C2290 C 0.55636 0.98532 0.65306 0.0
C2291 C 0.56199 0.97823 0.64176 0.0
C2292 C 0.56511 0.98752 0.66543 0.0
C2293 C 0.53574 0.99723 0.6644 0.0
C2294 C 0.56821 1.0009 0.67001 0.0
C2295 C 0.57654 0.00289 0.68162 0.0
C2296 C 0.58204 0.99154 0.68882 0.0
C2297 C 0.57903 0.97815 0.68408 0.0
C2298 C 0.57068 0.97617 0.67249 0.0
H2299 H 0.52431 0.99687 0.66363 0.0
H2300 H 0.5389 0.99249 0.67435 0.0
H2301 H 0.53891 0.00823 0.66452 0.0
H2302 H 0.56425 0.00981 0.66456 0.0
H2303 H 0.57855 0.01334 0.68503 0.0
H2304 H 0.85109 0.20179 0.76455 0.0
H2305 H 0.87113 0.20656 0.77915 0.0
H2306 H 0.86137 0.24996 0.7785 0.0
H2307 H 0.84111 0.24525 0.76417 0.0
H2308 H 0.89391 0.22417 0.77323 0.0
H2309 H 0.86528 0.24101 0.81999 0.0
H2310 H 0.85715 0.2316 0.80611 0.0
H2311 H 0.86065 0.24971 0.80428 0.0
C2312 C 0.85311 0.21233 0.76764 0.0
C2313 C 0.84445 0.22313 0.76326 0.0
C2314 C 0.86461 0.21505 0.77591 0.0
C2315 C 0.86762 0.22859 0.78004 0.0
C2316 C 0.8591 0.23942 0.77559 0.0
H2317 H 0.93208 0.26371 0.83182 0.0
H2318 H 0.91222 0.26007 0.81667 0.0
C2319 C 0.84761 0.23672 0.76729 0.0
C2320 C 0.87983 0.23137 0.78883 0.0
H2321 H 0.88957 0.24325 0.82054 0.0
C2322 C 0.89298 0.22831 0.78359 0.0
C2323 C 0.87856 0.23683 0.8023 0.0
C2324 C 0.86466 0.23989 0.80859 0.0
C2325 C 0.90493 0.23071 0.79142 0.0
C2326 C 0.90366 0.23602 0.80496 0.0
C2327 C 0.89051 0.23917 0.81016 0.0
C2328 C 0.91584 0.23821 0.81398 0.0
C2329 C 0.91881 0.22777 0.78501 0.0
C2330 C 0.92437 0.2271 0.81763 0.0
C2331 C 0.9358 0.22915 0.82619 0.0
C2332 C 0.93886 0.24236 0.83138 0.0
C2333 C 0.93017 0.25345 0.82783 0.0
C2334 C 0.91875 0.25138 0.81925 0.0
H2335 H 0.91823 0.22758 0.77356 0.0
H2336 H 0.92656 0.23561 0.78815 0.0
H2337 H 0.92247 0.2175 0.78851 0.0
H2338 H 0.92216 0.21679 0.81392 0.0
H2339 H 0.94232 0.22041 0.8286 0.0
H2340 H 0.46836 0.92068 0.47168 0.0
H2341 H 0.47242 0.90022 0.45747 0.0
H2342 H 0.48454 0.87733 0.49362 0.0
H2343 H 0.4802 0.89761 0.508 0.0
H2344 H 0.50286 0.87502 0.46982 0.0
H2345 H 0.44782 0.86473 0.45733 0.0
H2346 H 0.45365 0.88209 0.45434 0.0
H2347 H 0.45303 0.87548 0.47164 0.0
C2348 C 0.47173 0.91126 0.47666 0.0
C2349 C 0.47388 0.91079 0.49102 0.0
C2350 C 0.47409 0.8996 0.4685 0.0
C2351 C 0.47864 0.88725 0.47453 0.0
C2352 C 0.48101 0.88678 0.48879 0.0
H2353 H 0.48134 0.80501 0.43897 0.0
H2354 H 0.47774 0.82516 0.45382 0.0
C2355 C 0.4786 0.89841 0.49697 0.0
C2356 C 0.481 0.87484 0.46593 0.0
H2357 H 0.46451 0.85116 0.44572 0.0
C2358 C 0.49449 0.86978 0.46456 0.0
C2359 C 0.47002 0.86798 0.4592 0.0
C2360 C 0.45528 0.87273 0.46074 0.0
C2361 C 0.49733 0.85813 0.45641 0.0
C2362 C 0.48639 0.85145 0.44945 0.0
C2363 C 0.47287 0.85638 0.45101 0.0
C2364 C 0.48878 0.83928 0.44053 0.0
C2365 C 0.51197 0.85294 0.45542 0.0
C2366 C 0.49608 0.84061 0.42811 0.0
C2367 C 0.49813 0.82914 0.4196 0.0
C2368 C 0.49294 0.81613 0.42339 0.0
C2369 C 0.48561 0.81486 0.43586 0.0
C2370 C 0.48348 0.82636 0.4443 0.0
H2371 H 0.51869 0.85749 0.46351 0.0
H2372 H 0.51228 0.84152 0.45634 0.0
H2373 H 0.51628 0.85576 0.44519 0.0
H2374 H 0.50012 0.85055 0.42496 0.0
H2375 H 0.50389 0.83043 0.41011 0.0
H2376 H 0.15585 0.29551 0.76089 0.0
H2377 H 0.13661 0.29306 0.77702 0.0
H2378 H 0.14039 0.24878 0.77491 0.0
H2379 H 0.15999 0.25113 0.75924 0.0
H2380 H 0.11173 0.28022 0.77293 0.0
H2381 H 0.13974 0.25545 0.81626 0.0
H2382 H 0.14854 0.26368 0.80206 0.0
H2383 H 0.14168 0.24654 0.80014 0.0
C2384 C 0.15275 0.28525 0.76404 0.0
C2385 C 0.15954 0.27352 0.75882 0.0
C2386 C 0.14168 0.28387 0.77318 0.0
C2387 C 0.13719 0.27075 0.77734 0.0
C2388 C 0.14385 0.25901 0.77207 0.0
H2389 H 0.06925 0.24014 0.82688 0.0
H2390 H 0.08917 0.2429 0.81156 0.0
C2391 C 0.15495 0.26038 0.76296 0.0
C2392 C 0.12524 0.26934 0.78681 0.0
H2393 H 0.11524 0.25583 0.81781 0.0
C2394 C 0.11252 0.27497 0.78278 0.0
C2395 C 0.12629 0.26247 0.79966 0.0
C2396 C 0.13982 0.2568 0.80487 0.0
C2397 C 0.10075 0.27369 0.79113 0.0
C2398 C 0.10178 0.26673 0.80391 0.0
C2399 C 0.11449 0.26113 0.80797 0.0
C2400 C 0.08975 0.26515 0.81321 0.0
C2401 C 0.08722 0.27952 0.78608 0.0
C2402 C 0.0836 0.27674 0.81932 0.0
C2403 C 0.07222 0.27521 0.82805 0.0
C2404 C 0.06678 0.26204 0.83084 0.0
C2405 C 0.07307 0.25044 0.82479 0.0
C2406 C 0.08449 0.25198 0.81611 0.0
H2407 H 0.08746 0.28176 0.77484 0.0
H2408 H 0.07862 0.27227 0.78821 0.0
H2409 H 0.08505 0.28931 0.79161 0.0
H2410 H 0.08763 0.28698 0.81735 0.0
H2411 H 0.06756 0.28435 0.83246 0.0
H2412 H 0.52685 0.58482 0.4779 0.0
H2413 H 0.52449 0.60436 0.46197 0.0
H2414 H 0.51729 0.63165 0.49632 0.0
H2415 H 0.51978 0.61225 0.51235 0.0
H2416 H 0.49765 0.62716 0.46526 0.0
H2417 H 0.55244 0.64453 0.46736 0.0
H2418 H 0.54794 0.62649 0.46887 0.0
H2419 H 0.54408 0.63809 0.48272 0.0
C2420 C 0.52487 0.595 0.48208 0.0
C2421 C 0.52349 0.59699 0.4964 0.0
C2422 C 0.52345 0.60611 0.47296 0.0
C2423 C 0.52073 0.61937 0.47802 0.0
C2424 C 0.51937 0.62144 0.49227 0.0
H2425 H 0.51883 0.70073 0.44151 0.0
H2426 H 0.52117 0.6806 0.45657 0.0
C2427 C 0.52073 0.61034 0.50138 0.0
C2428 C 0.51924 0.63112 0.46843 0.0
H2429 H 0.53713 0.65767 0.45383 0.0
C2430 C 0.50625 0.63383 0.46268 0.0
C2431 C 0.53049 0.63978 0.46526 0.0
C2432 C 0.54458 0.63717 0.47131 0.0
C2433 C 0.50418 0.64516 0.45388 0.0
C2434 C 0.51549 0.6538 0.45056 0.0
C2435 C 0.52849 0.65103 0.45635 0.0
C2436 C 0.51402 0.66594 0.44132 0.0
C2437 C 0.48982 0.64799 0.44856 0.0
C2438 C 0.50939 0.66437 0.42768 0.0
C2439 C 0.50799 0.67587 0.41907 0.0
C2440 C 0.51139 0.68913 0.42388 0.0
C2441 C 0.51624 0.69063 0.43747 0.0
C2442 C 0.51754 0.67915 0.4461 0.0
H2443 H 0.48183 0.64285 0.45499 0.0
H2444 H 0.48764 0.65923 0.44832 0.0
H2445 H 0.48889 0.64393 0.4379 0.0
H2446 H 0.50696 0.65424 0.42365 0.0
H2447 H 0.50444 0.67437 0.40858 0.0
H2448 H 0.8516 0.79373 0.74532 0.0
H2449 H 0.87115 0.79115 0.72951 0.0
H2450 H 0.86334 0.74744 0.72685 0.0
H2451 H 0.84363 0.74996 0.74245 0.0
H2452 H 0.89486 0.77356 0.73368 0.0
H2453 H 0.86578 0.76041 0.68602 0.0
H2454 H 0.85776 0.76855 0.70075 0.0
H2455 H 0.8615 0.7504 0.70104 0.0
C2456 C 0.85393 0.7836 0.74122 0.0
C2457 C 0.84604 0.77205 0.74511 0.0
C2458 C 0.86515 0.78214 0.73227 0.0
C2459 C 0.86859 0.76914 0.72691 0.0
C2460 C 0.86073 0.75759 0.73073 0.0
H2461 H 0.9326 0.73885 0.67197 0.0
H2462 H 0.91262 0.74149 0.6872 0.0
C2463 C 0.84956 0.75903 0.73974 0.0
C2464 C 0.88067 0.76758 0.71768 0.0
H2465 H 0.89011 0.75857 0.68496 0.0
C2466 C 0.89384 0.77034 0.723 0.0
C2467 C 0.87928 0.76331 0.70381 0.0
C2468 C 0.86532 0.76059 0.69748 0.0
C2469 C 0.90572 0.76872 0.71487 0.0
C2470 C 0.90435 0.76455 0.70094 0.0
C2471 C 0.89115 0.76178 0.69563 0.0
C2472 C 0.91646 0.76302 0.69169 0.0
C2473 C 0.91965 0.77117 0.72139 0.0
C2474 C 0.92514 0.77429 0.689 0.0
C2475 C 0.93657 0.77281 0.68033 0.0
C2476 C 0.93945 0.76005 0.67404 0.0
C2477 C 0.9306 0.74883 0.67657 0.0
C2478 C 0.91921 0.75031 0.68531 0.0
H2479 H 0.91917 0.77042 0.73282 0.0
H2480 H 0.92739 0.76364 0.71755 0.0
H2481 H 0.92326 0.7817 0.71871 0.0
H2482 H 0.92301 0.78429 0.69351 0.0
H2483 H 0.94303 0.78171 0.67838 0.0
H2484 H 0.01853 0.89236 0.49092 0.0
H2485 H 0.0156 0.87304 0.50687 0.0
H2486 H 0.02771 0.89912 0.54082 0.0
H2487 H 0.03016 0.91864 0.52503 0.0
H2488 H 0.03483 0.86078 0.52403 0.0
H2489 H 0.99157 0.88261 0.55457 0.0
H2490 H 0.99689 0.88977 0.53822 0.0
H2491 H 0.00648 0.89356 0.55364 0.0
C2492 C 0.02038 0.89405 0.5018 0.0
C2493 C 0.02448 0.9071 0.50669 0.0
C2494 C 0.0188 0.88297 0.51089 0.0
C2495 C 0.02122 0.88469 0.52506 0.0
C2496 C 0.02552 0.89762 0.52997 0.0
H2497 H 0.01858 0.82908 0.59541 0.0
H2498 H 0.02174 0.84874 0.57988 0.0
C2499 C 0.02708 0.90873 0.52089 0.0
C2500 C 0.0195 0.87287 0.53464 0.0
H2501 H 1.00157 0.86188 0.56293 0.0
C2502 C 0.02753 0.86099 0.53251 0.0
C2503 C 0.00997 0.87318 0.54569 0.0
C2504 C 1.00063 0.88541 0.54813 0.0
C2505 C 0.0264 0.84949 0.54125 0.0
C2506 C 0.01687 0.84981 0.55228 0.0
C2507 C 0.00889 0.86169 0.55446 0.0
C2508 C 0.01493 0.83786 0.56163 0.0
C2509 C 0.0356 0.83718 0.53875 0.0
C2510 C 0.00988 0.82529 0.55653 0.0
C2511 C 0.00796 0.81406 0.56539 0.0
C2512 C 0.01101 0.8152 0.57954 0.0
C2513 C 0.01597 0.82788 0.58461 0.0
C2514 C 0.01786 0.8391 0.57575 0.0
H2515 H 0.04455 0.83983 0.5321 0.0
H2516 H 0.03949 0.83291 0.54864 0.0
H2517 H 0.02958 0.82899 0.53348 0.0
H2518 H 0.00728 0.82421 0.54572 0.0
H2519 H 0.00388 0.80456 0.56117 0.0
H2520 H 0.16929 0.72605 0.72843 0.0
H2521 H 0.14962 0.72849 0.71281 0.0
H2522 H 0.12379 0.74033 0.74705 0.0
H2523 H 0.14323 0.73737 0.76282 0.0
H2524 H 0.11135 0.72133 0.73017 0.0
H2525 H 0.13277 0.76454 0.6993 0.0
H2526 H 0.14376 0.74964 0.70001 0.0
H2527 H 0.14018 0.75918 0.71552 0.0
C2528 C 0.1594 0.72907 0.73267 0.0
C2529 C 0.15787 0.73158 0.74689 0.0
C2530 C 0.1482 0.73063 0.72369 0.0
C2531 C 0.1353 0.73483 0.72873 0.0
C2532 C 0.13369 0.73719 0.74292 0.0
H2533 H 0.06579 0.7653 0.6812 0.0
H2534 H 0.08541 0.76241 0.69679 0.0
C2535 C 0.14485 0.7356 0.75191 0.0
C2536 C 0.12336 0.73653 0.71929 0.0
H2537 H 0.11208 0.75434 0.69104 0.0
C2538 C 0.11149 0.72857 0.72162 0.0
C2539 C 0.12351 0.7461 0.70826 0.0
C2540 C 0.13568 0.75546 0.70566 0.0
C2541 C 0.09982 0.7298 0.71314 0.0
C2542 C 0.10011 0.73906 0.70186 0.0
C2543 C 0.11192 0.74715 0.69962 0.0
C2544 C 0.08819 0.7407 0.6924 0.0
C2545 C 0.08717 0.72137 0.71651 0.0
C2546 C 0.08333 0.72949 0.68464 0.0
C2547 C 0.07202 0.73107 0.67581 0.0
C2548 C 0.06542 0.74394 0.67448 0.0
C2549 C 0.07047 0.7552 0.68214 0.0
C2550 C 0.08175 0.7536 0.69098 0.0
H2551 H 0.08729 0.71769 0.72737 0.0
H2552 H 0.0776 0.72744 0.71481 0.0
H2553 H 0.08684 0.71218 0.70969 0.0
H2554 H 0.0883 0.71951 0.68538 0.0
H2555 H 0.06836 0.72216 0.67017 0.0
H2556 H 0.99515 0.58949 0.51614 0.0
H2557 H 0.99958 0.60959 0.53082 0.0
H2558 H 0.95657 0.62078 0.52853 0.0
H2559 H 0.95205 0.60064 0.51402 0.0
H2560 H 0.99615 0.63696 0.52585 0.0
H2561 H 0.96298 0.62119 0.56967 0.0
H2562 H 0.96761 0.6095 0.55594 0.0
H2563 H 0.95383 0.62174 0.55359 0.0
C2564 C 0.98665 0.59625 0.51876 0.0
C2565 C 0.97323 0.59342 0.51403 0.0
C2566 C 0.98918 0.6077 0.52717 0.0
C2567 C 0.97836 0.61654 0.53101 0.0
C2568 C 0.96501 0.61389 0.52605 0.0
H2569 H 0.9716 0.69414 0.57458 0.0
H2570 H 0.96823 0.67367 0.56013 0.0
C2571 C 0.96245 0.6024 0.51773 0.0
C2572 C 0.98106 0.6287 0.53993 0.0
H2573 H 0.97112 0.64442 0.56988 0.0
C2574 C 0.99076 0.63853 0.53553 0.0
C2575 C 0.97405 0.63072 0.55259 0.0
C2576 C 0.96414 0.62016 0.55831 0.0
C2577 C 0.99338 0.65049 0.54329 0.0
C2578 C 0.98616 0.65262 0.55577 0.0
C2579 C 0.97656 0.64276 0.56024 0.0
C2580 C 0.98838 0.66507 0.56433 0.0
C2581 C 0.00363 0.66093 0.53798 0.0
C2582 C 1.0008 0.66692 0.57152 0.0
C2583 C 0.00274 0.67857 0.57982 0.0
C2584 C 0.99231 0.68859 0.58101 0.0
C2585 C 0.97989 0.68669 0.57375 0.0
C2586 C 0.97792 0.67499 0.56555 0.0
H2587 H 0.00661 0.65889 0.5271 0.0
H2588 H 0.9993 0.67152 0.53871 0.0
H2589 H 0.01308 0.66057 0.54443 0.0
H2590 H 0.00894 0.6593 0.57079 0.0
H2591 H 0.01245 0.67979 0.58521 0.0
H2592 H 0.75912 0.84713 0.25382 0.0
H2593 H 0.77466 0.86689 0.256 0.0
H2594 H 0.77778 0.86951 0.21171 0.0
H2595 H 0.76197 0.84997 0.20937 0.0
H2596 H 0.80386 0.87069 0.22701 0.0
H2597 H 0.76432 0.90771 0.24597 0.0
H2598 H 0.76513 0.89144 0.25488 0.0
H2599 H 0.75987 0.89192 0.23713 0.0
C2600 C 0.76297 0.85199 0.24452 0.0
C2601 C 0.75921 0.84698 0.23141 0.0
C2602 C 0.77189 0.86325 0.2458 0.0
C2603 C 0.77724 0.86972 0.23401 0.0
C2604 C 0.77374 0.86464 0.22093 0.0
H2605 H 0.81877 0.94871 0.22701 0.0
H2606 H 0.80354 0.92878 0.2244 0.0
C2607 C 0.76476 0.85342 0.21963 0.0
C2608 C 0.78652 0.88178 0.23534 0.0
H2609 H 0.78752 0.91536 0.24596 0.0
C2610 C 0.80031 0.88047 0.23113 0.0
C2611 C 0.78179 0.89454 0.24061 0.0
C2612 C 0.76695 0.89661 0.24482 0.0
C2613 C 0.80957 0.89155 0.23227 0.0
C2614 C 0.80491 0.90422 0.23781 0.0
C2615 C 0.79107 0.9056 0.24181 0.0
C2616 C 0.81422 0.91622 0.23943 0.0
C2617 C 0.82424 0.88971 0.22739 0.0
C2618 C 0.82518 0.9158 0.24886 0.0
C2619 C 0.83383 0.92723 0.25051 0.0
C2620 C 0.83168 0.93932 0.24274 0.0
C2621 C 0.82064 0.93967 0.23331 0.0
C2622 C 0.81196 0.92826 0.23173 0.0
H2623 H 0.82543 0.88039 0.22082 0.0
H2624 H 0.82771 0.89888 0.22146 0.0
H2625 H 0.83112 0.88858 0.23647 0.0
H2626 H 0.82695 0.90667 0.25507 0.0
H2627 H 0.84206 0.92666 0.25805 0.0
H2628 H 0.76316 0.16165 0.25133 0.0
H2629 H 0.77883 0.14191 0.24915 0.0
H2630 H 0.77501 0.13395 0.29275 0.0
H2631 H 0.75922 0.15356 0.295 0.0
H2632 H 0.80483 0.13727 0.2649 0.0
H2633 H 0.765 0.09667 0.27272 0.0
H2634 H 0.76069 0.11406 0.26757 0.0
H2635 H 0.76534 0.11047 0.28513 0.0
C2636 C 0.76559 0.15564 0.26044 0.0
C2637 C 0.75992 0.15912 0.27333 0.0
C2638 C 0.77459 0.14443 0.25919 0.0
C2639 C 0.77795 0.13643 0.27077 0.0
C2640 C 0.77243 0.13994 0.28367 0.0
H2641 H 0.82536 0.06127 0.2822 0.0
H2642 H 0.81087 0.08168 0.28514 0.0
C2643 C 0.7635 0.1512 0.28495 0.0
C2644 C 0.78728 0.12443 0.26935 0.0
H2645 H 0.78811 0.08926 0.27092 0.0
C2646 C 0.80121 0.12676 0.26619 0.0
C2647 C 0.78249 0.11077 0.27112 0.0
C2648 C 0.76755 0.10774 0.27423 0.0
C2649 C 0.81055 0.11575 0.26491 0.0
C2650 C 0.80574 0.10205 0.26649 0.0
C2651 C 0.79179 0.09976 0.26971 0.0
C2652 C 0.81494 0.08992 0.26479 0.0
C2653 C 0.82555 0.11895 0.26221 0.0
C2654 C 0.82198 0.08769 0.25233 0.0
C2655 C 0.83044 0.07612 0.25068 0.0
C2656 C 0.8319 0.06642 0.26139 0.0
C2657 C 0.8247 0.06863 0.27382 0.0
C2658 C 0.81631 0.08024 0.27548 0.0
H2659 H 0.82822 0.12965 0.26537 0.0
H2660 H 0.83242 0.11167 0.26778 0.0
H2661 H 0.82764 0.11801 0.251 0.0
H2662 H 0.82084 0.09484 0.24382 0.0
H2663 H 0.83591 0.07485 0.24102 0.0
H2664 H 0.40589 0.98774 0.95159 0.0
H2665 H 0.38578 0.97319 0.95605 0.0
H2666 H 0.39299 0.9764 0.99982 0.0
H2667 H 0.41329 0.99077 0.99548 0.0
H2668 H 0.38501 0.9475 0.97096 0.0
H2669 H 0.352 0.98785 0.9949 0.0
H2670 H 0.36701 0.99197 0.98467 0.0
H2671 H 0.36899 0.98605 1.00211 0.0
C2672 C 0.40329 0.98528 0.96217 0.0
C2673 C 0.41123 0.99045 0.97318 0.0
C2674 C 0.39174 0.97702 0.9647 0.0
C2675 C 0.38781 0.97387 0.97826 0.0
C2676 C 0.39571 0.97894 0.98928 0.0
H2677 H 0.31981 0.92682 0.01309 0.0
H2678 H 0.34045 0.94086 0.00946 0.0
C2679 C 0.40729 0.98716 0.98677 0.0
C2680 C 0.37561 0.96503 0.98083 0.0
H2681 H 0.34335 0.96504 0.99497 0.0
C2682 C 0.37588 0.95132 0.97618 0.0
C2683 C 0.36376 0.97005 0.98771 0.0
C2684 C 0.3628 0.98481 0.99256 0.0
C2685 C 0.36465 0.94243 0.97836 0.0
C2686 C 0.35272 0.94749 0.98509 0.0
C2687 C 0.3525 0.96119 0.98981 0.0
C2688 C 0.34031 0.93879 0.98723 0.0
C2689 C 0.3658 0.92762 0.97369 0.0
C2690 C 0.33328 0.93307 0.97593 0.0
C2691 C 0.32156 0.92492 0.97798 0.0
C2692 C 0.31653 0.92242 0.99137 0.0
C2693 C 0.32351 0.92832 0.00265 0.0
C2694 C 0.33526 0.93644 1.0006 0.0
H2695 H 0.37674 0.92442 0.97242 0.0
H2696 H 0.36075 0.92053 0.98114 0.0
H2697 H 0.36062 0.92646 0.96355 0.0
H2698 H 0.33682 0.93498 0.96551 0.0
H2699 H 0.31653 0.92046 0.96905 0.0
H2700 H 0.24535 0.35017 0.29514 0.0
H2701 H 0.22941 0.36964 0.29276 0.0
H2702 H 0.22735 0.36272 0.24887 0.0
H2703 H 0.24307 0.34308 0.25117 0.0
H2704 H 0.23344 0.39372 0.276 0.0
H2705 H 0.18642 0.36452 0.26109 0.0
H2706 H 0.20114 0.3564 0.26915 0.0
H2707 H 0.20159 0.36071 0.25113 0.0
C2708 C 0.24136 0.35268 0.285 0.0
C2709 C 0.24545 0.34506 0.27334 0.0
C2710 C 0.23232 0.36385 0.28366 0.0
C2711 C 0.22709 0.36751 0.27067 0.0
C2712 C 0.23113 0.35994 0.25901 0.0
H2713 H 0.1726 0.43154 0.24012 0.0
H2714 H 0.18794 0.41172 0.24296 0.0
C2715 C 0.24021 0.34881 0.26033 0.0
C2716 C 0.21776 0.37954 0.26925 0.0
H2717 H 0.18519 0.38889 0.2596 0.0
C2718 C 0.22286 0.39269 0.27249 0.0
C2719 C 0.204 0.37812 0.2646 0.0
C2720 C 0.19788 0.36418 0.26138 0.0
C2721 C 0.21466 0.40453 0.27095 0.0
C2722 C 0.20087 0.40312 0.26634 0.0
C2723 C 0.19576 0.38995 0.26313 0.0
C2724 C 0.19159 0.4152 0.26471 0.0
C2725 C 0.22095 0.41846 0.27391 0.0
C2726 C 0.1884 0.42365 0.27603 0.0
C2727 C 0.17976 0.43508 0.27441 0.0
C2728 C 0.174 0.43823 0.26145 0.0
C2729 C 0.17704 0.42958 0.25019 0.0
C2730 C 0.18572 0.41818 0.25181 0.0
H2731 H 0.23241 0.41808 0.27359 0.0
H2732 H 0.21733 0.42631 0.2664 0.0
H2733 H 0.21785 0.42183 0.2844 0.0
H2734 H 0.19258 0.42138 0.28614 0.0
H2735 H 0.17775 0.44156 0.28329 0.0
H2736 H 0.08501 0.02608 0.47836 0.0
H2737 H 0.10459 0.04196 0.48069 0.0
H2738 H 0.13214 0.00738 0.48554 0.0
H2739 H 0.11267 0.99144 0.48313 0.0
H2740 H 0.12459 0.04249 0.5045 0.0
H2741 H 0.14851 0.03211 0.45336 0.0
H2742 H 0.13055 0.02862 0.45691 0.0
H2743 H 0.14365 0.0173 0.46346 0.0
C2744 C 0.09526 0.02187 0.47982 0.0
C2745 C 0.09732 0.00752 0.48054 0.0
C2746 C 0.1064 0.03094 0.48121 0.0
C2747 C 0.11979 0.02581 0.48317 0.0
C2748 C 0.12188 0.01151 0.48392 0.0
H2749 H 0.20132 0.06152 0.49046 0.0
H2750 H 0.18128 0.04638 0.48783 0.0
C2751 C 0.11075 1.00244 0.48264 0.0
C2752 C 0.13157 0.0354 0.48467 0.0
H2753 H 0.16101 0.04631 0.46873 0.0
C2754 C 0.13254 0.04341 0.49668 0.0
C2755 C 0.14191 0.03646 0.47446 0.0
C2756 C 0.14114 0.02826 0.46125 0.0
C2757 C 0.14378 0.05227 0.4989 0.0
C2758 C 0.15413 0.05342 0.48863 0.0
C2759 C 0.15308 0.04544 0.47658 0.0
C2760 C 0.16622 0.0627 0.49025 0.0
C2761 C 0.14467 0.05999 0.5124 0.0
C2762 C 0.16443 0.07693 0.49229 0.0
C2763 C 0.17587 0.08558 0.49388 0.0
C2764 C 0.18932 0.08019 0.49322 0.0
C2765 C 0.19109 0.06598 0.49091 0.0
C2766 C 0.17965 0.05732 0.48945 0.0
H2767 H 0.13828 0.05503 0.52053 0.0
H2768 H 0.15549 0.0606 0.51611 0.0
H2769 H 0.14077 0.07065 0.5109 0.0
H2770 H 0.15419 0.08138 0.49255 0.0
H2771 H 0.17419 0.09652 0.49541 0.0
H2772 H 0.73782 0.15606 0.70219 0.0
H2773 H 0.72324 0.13603 0.70682 0.0
H2774 H 0.72811 0.14247 0.75058 0.0
H2775 H 0.74222 0.16288 0.74605 0.0
H2776 H 0.72954 0.11215 0.72069 0.0
H2777 H 0.68649 0.13946 0.74679 0.0
H2778 H 0.69965 0.14845 0.73716 0.0
H2779 H 0.70309 0.14252 0.7544 0.0
C2780 C 0.73562 0.15336 0.71281 0.0
C2781 C 0.74112 0.16117 0.72375 0.0
C2782 C 0.72737 0.14183 0.71544 0.0
C2783 C 0.72441 0.13787 0.72904 0.0
C2784 C 0.73003 0.1455 0.73999 0.0
H2785 H 0.67792 0.06927 0.76386 0.0
H2786 H 0.69287 0.08935 0.76029 0.0
C2787 C 0.73825 0.15707 0.73738 0.0
C2788 C 0.71568 0.12557 0.73171 0.0
H2789 H 0.68576 0.11499 0.74706 0.0
C2790 C 0.71995 0.11278 0.72641 0.0
C2791 C 0.70317 0.12641 0.7392 0.0
C2792 C 0.69773 0.13996 0.74462 0.0
C2793 C 0.71211 0.10078 0.72852 0.0
C2794 C 0.6996 0.10163 0.73597 0.0
C2795 C 0.69538 0.11439 0.74137 0.0
C2796 C 0.69064 0.08943 0.73809 0.0
C2797 C 0.71737 0.08724 0.72292 0.0
C2798 C 0.68433 0.08295 0.72679 0.0
C2799 C 0.67581 0.07148 0.72879 0.0
C2800 C 0.67342 0.0663 0.74214 0.0
C2801 C 0.6797 0.0729 0.75344 0.0
C2802 C 0.68817 0.08441 0.75144 0.0
H2803 H 0.72854 0.08772 0.72039 0.0
H2804 H 0.71565 0.07876 0.73044 0.0
H2805 H 0.71167 0.08467 0.71332 0.0
H2806 H 0.68596 0.08679 0.71642 0.0
H2807 H 0.67123 0.06658 0.71986 0.0
H2808 H 0.42214 0.033 0.53598 0.0
H2809 H 0.40179 0.04734 0.53176 0.0
H2810 H 0.37812 0.01099 0.52192 0.0
H2811 H 0.39827 0.99653 0.52653 0.0
H2812 H 0.38604 0.04993 0.50763 0.0
H2813 H 0.35436 0.0302 0.55111 0.0
H2814 H 0.37269 0.02715 0.54989 0.0
H2815 H 0.36086 0.01706 0.53978 0.0
C2816 C 0.41257 0.02803 0.53308 0.0
C2817 C 0.41182 0.0136 0.53168 0.0
C2818 C 0.40098 0.03626 0.53058 0.0
C2819 C 0.3884 0.03022 0.52673 0.0
C2820 C 0.38766 0.01585 0.52512 0.0
H2821 H 0.30699 0.06243 0.50754 0.0
H2822 H 0.32734 0.04794 0.51121 0.0
C2823 C 0.39924 0.00761 0.52761 0.0
C2824 C 0.37611 0.03898 0.52422 0.0
H2825 H 0.34321 0.04511 0.53524 0.0
C2826 C 0.37669 0.04892 0.51369 0.0
C2827 C 0.36392 0.03763 0.53214 0.0
C2828 C 0.3629 0.02753 0.54395 0.0
C2829 C 0.36531 0.0574 0.51073 0.0
C2830 C 0.35313 0.05605 0.51866 0.0
C2831 C 0.35255 0.0461 0.52916 0.0
C2832 C 0.34089 0.06492 0.51629 0.0
C2833 C 0.36633 0.06753 0.49895 0.0
C2834 C 0.34173 0.07927 0.51809 0.0
C2835 C 0.33011 0.08757 0.51607 0.0
C2836 C 0.31738 0.08169 0.51229 0.0
C2837 C 0.31658 0.06729 0.51059 0.0
C2838 C 0.32821 0.059 0.51261 0.0
H2839 H 0.37483 0.06484 0.49174 0.0
H2840 H 0.35652 0.06798 0.49305 0.0
H2841 H 0.36845 0.07798 0.50314 0.0
H2842 H 0.35134 0.08402 0.52124 0.0
H2843 H 0.33104 0.09859 0.51771 0.0
H2844 H 0.59916 0.49396 0.54423 0.0
H2845 H 0.61867 0.47814 0.54173 0.0
H2846 H 0.61378 0.47893 0.49753 0.0
H2847 H 0.59409 0.49454 0.49991 0.0
H2848 H 0.61938 0.45149 0.52825 0.0
H2849 H 0.6548 0.48961 0.50413 0.0
H2850 H 0.63942 0.49466 0.51335 0.0
H2851 H 0.63816 0.48799 0.49611 0.0
C2852 C 0.60212 0.49067 0.53398 0.0
C2853 C 0.59507 0.49558 0.52226 0.0
C2854 C 0.61332 0.48168 0.53257 0.0
C2855 C 0.61777 0.47753 0.51945 0.0
C2856 C 0.61067 0.48223 0.50775 0.0
H2857 H 0.68535 0.42722 0.48931 0.0
H2858 H 0.66499 0.44188 0.49182 0.0
C2859 C 0.59944 0.49118 0.50913 0.0
C2860 C 0.62979 0.46821 0.518 0.0
H2861 H 0.6626 0.46652 0.50531 0.0
C2862 C 0.62886 0.45476 0.52328 0.0
C2863 C 0.6421 0.47253 0.51148 0.0
C2864 C 0.6438 0.48701 0.50603 0.0
C2865 C 0.63985 0.4454 0.52198 0.0
C2866 C 0.65221 0.44974 0.51552 0.0
C2867 C 0.65312 0.46321 0.51025 0.0
C2868 C 0.66434 0.4405 0.51409 0.0
C2869 C 0.638 0.43087 0.52725 0.0
C2870 C 0.67081 0.43492 0.52579 0.0
C2871 C 0.68237 0.4264 0.52438 0.0
C2872 C 0.68778 0.42338 0.51125 0.0
C2873 C 0.68133 0.42911 0.49956 0.0
C2874 C 0.66975 0.43759 0.50098 0.0
H2875 H 0.62692 0.42812 0.52829 0.0
H2876 H 0.64302 0.42328 0.52029 0.0
H2877 H 0.64281 0.42997 0.5376 0.0
H2878 H 0.667 0.43726 0.53603 0.0
H2879 H 0.68699 0.42209 0.5336 0.0
H2880 H 0.71 0.2578 0.3524 0.0
H2881 H 0.71254 0.27363 0.37191 0.0
H2882 H 0.75598 0.27758 0.36313 0.0
H2883 H 0.75354 0.26162 0.34372 0.0
H2884 H 0.75136 0.27342 0.39025 0.0
H2885 H 0.71711 0.31506 0.37118 0.0
H2886 H 0.70873 0.29858 0.37198 0.0
H2887 H 0.72292 0.30113 0.36029 0.0
C2888 C 0.72006 0.26216 0.35454 0.0
C2889 C 0.73157 0.2585 0.3465 0.0
C2890 C 0.72149 0.27124 0.36567 0.0
C2891 C 0.73441 0.27698 0.36885 0.0
C2892 C 0.74591 0.2733 0.36085 0.0
H2893 H 0.74859 0.34612 0.42428 0.0
H2894 H 0.74639 0.33082 0.40431 0.0
C2895 C 0.74451 0.26416 0.34979 0.0
C2896 C 0.73605 0.28645 0.38078 0.0
H2897 H 0.72435 0.31667 0.39461 0.0
C2898 C 0.7455 0.28291 0.39118 0.0
C2899 C 0.72854 0.29893 0.38189 0.0
C2900 C 0.71886 0.30374 0.37068 0.0
C2901 C 0.74749 0.29139 0.40275 0.0
C2902 C 0.73958 0.30359 0.40413 0.0
C2903 C 0.73029 0.30724 0.39362 0.0
C2904 C 0.7409 0.31279 0.4163 0.0
C2905 C 0.75826 0.28732 0.41324 0.0
C2906 C 0.73837 0.3078 0.42966 0.0
C2907 C 0.73968 0.3165 0.44109 0.0
C2908 C 0.74335 0.33043 0.43936 0.0
C2909 C 0.74565 0.33546 0.42595 0.0
C2910 C 0.74444 0.32673 0.41453 0.0
H2911 H 0.76601 0.28014 0.40877 0.0
H2912 H 0.76373 0.29651 0.41733 0.0
H2913 H 0.75317 0.28197 0.42199 0.0
H2914 H 0.73527 0.29718 0.43125 0.0
H2915 H 0.73761 0.31238 0.45127 0.0
H2916 H 0.53358 0.03563 0.92202 0.0
H2917 H 0.54793 0.03151 0.90165 0.0
H2918 H 0.5116 0.02175 0.87792 0.0
H2919 H 0.49713 0.02624 0.8981 0.0
H2920 H 0.55037 0.0073 0.88576 0.0
H2921 H 0.53096 0.05114 0.85435 0.0
H2922 H 0.52796 0.04985 0.87269 0.0
H2923 H 0.51777 0.03986 0.86086 0.0
C2924 C 0.52862 0.03276 0.91243 0.0
C2925 C 0.51419 0.03135 0.91167 0.0
C2926 C 0.53685 0.03033 0.90083 0.0
C2927 C 0.53081 0.02652 0.88823 0.0
C2928 C 0.51645 0.02491 0.88748 0.0
H2929 H 0.56309 0.00789 0.80671 0.0
H2930 H 0.54855 0.01158 0.82701 0.0
C2931 C 0.50821 0.02733 0.89907 0.0
C2932 C 0.53958 0.02405 0.87594 0.0
H2933 H 0.54586 0.03532 0.84314 0.0
C2934 C 0.54943 0.01345 0.87645 0.0
C2935 C 0.5383 0.03208 0.86382 0.0
C2936 C 0.52827 0.04396 0.86287 0.0
C2937 C 0.55791 0.01051 0.86507 0.0
C2938 C 0.55665 0.01857 0.85295 0.0
C2939 C 0.54678 0.02915 0.85244 0.0
C2940 C 0.56554 0.01625 0.84071 0.0
C2941 C 0.56793 0.99863 0.86601 0.0
C2942 C 0.5799 0.01782 0.84164 0.0
C2943 C 0.58824 0.01577 0.83005 0.0
C2944 C 0.58236 0.0122 0.81726 0.0
C2945 C 0.56794 0.01077 0.81635 0.0
C2946 C 0.55962 0.0128 0.82796 0.0
H2947 H 0.5651 0.99134 0.8744 0.0
H2948 H 0.56839 0.99286 0.85613 0.0
H2949 H 0.57838 0.0027 0.86826 0.0
H2950 H 0.58466 0.0208 0.85131 0.0
H2951 H 0.59927 0.01721 0.83105 0.0
H2952 H 0.29522 0.24502 0.35114 0.0
H2953 H 0.29284 0.22902 0.37057 0.0
H2954 H 0.24902 0.22665 0.36334 0.0
H2955 H 0.25133 0.24243 0.34375 0.0
H2956 H 0.27578 0.23287 0.39457 0.0
H2957 H 0.26167 0.18579 0.36505 0.0
H2958 H 0.26969 0.2006 0.35708 0.0
H2959 H 0.25163 0.20089 0.36118 0.0
C2960 C 0.2851 0.24096 0.35358 0.0
C2961 C 0.27347 0.24497 0.34588 0.0
C2962 C 0.28375 0.23189 0.36472 0.0
C2963 C 0.27078 0.22655 0.36828 0.0
C2964 C 0.25915 0.23051 0.36064 0.0
H2965 H 0.24031 0.17136 0.43177 0.0
H2966 H 0.24314 0.18683 0.41204 0.0
C2967 C 0.26047 0.23963 0.34954 0.0
C2968 C 0.26935 0.21716 0.38026 0.0
H2969 H 0.26001 0.18444 0.38941 0.0
C2970 C 0.2724 0.22226 0.39346 0.0
C2971 C 0.26488 0.20335 0.37875 0.0
C2972 C 0.26187 0.19724 0.36476 0.0
C2973 C 0.27084 0.21399 0.40526 0.0
C2974 C 0.26641 0.20015 0.40376 0.0
C2975 C 0.2634 0.19505 0.39054 0.0
C2976 C 0.26478 0.1908 0.41579 0.0
C2977 C 0.27358 0.22028 0.41924 0.0
C2978 C 0.27605 0.18775 0.42435 0.0
C2979 C 0.27444 0.17904 0.43574 0.0
C2980 C 0.26154 0.17307 0.43872 0.0
C2981 C 0.25033 0.17596 0.42994 0.0
C2982 C 0.25195 0.18472 0.41859 0.0
H2983 H 0.27309 0.23173 0.4189 0.0
H2984 H 0.26605 0.21651 0.42701 0.0
H2985 H 0.28408 0.21732 0.4227 0.0
H2986 H 0.28612 0.19209 0.42223 0.0
H2987 H 0.28327 0.17715 0.44232 0.0
H2988 H 0.51064 0.48948 0.89448 0.0
H2989 H 0.49451 0.49223 0.8753 0.0
H2990 H 0.46136 0.4772 0.90084 0.0
H2991 H 0.47732 0.47475 0.92025 0.0
H2992 H 0.46374 0.46474 0.87343 0.0
H2993 H 0.46335 0.52208 0.87247 0.0
H2994 H 0.48015 0.51421 0.87268 0.0
H2995 H 0.46896 0.51231 0.88732 0.0
C2996 C 0.49989 0.48694 0.89612 0.0
C2997 C 0.49529 0.48197 0.90898 0.0
C2998 C 0.4907 0.48847 0.88512 0.0
C2999 C 0.47674 0.48505 0.88672 0.0
C3000 C 0.4721 0.47992 0.89943 0.0
H3001 H 0.40993 0.50477 0.8299 0.0
H3002 H 0.42459 0.50203 0.85028 0.0
C3003 C 0.48127 0.47845 0.91048 0.0
C3004 C 0.46703 0.48664 0.87503 0.0
H3005 H 0.45239 0.51066 0.85381 0.0
C3006 C 0.46119 0.47477 0.86916 0.0
C3007 C 0.46365 0.49976 0.8696 0.0
C3008 C 0.46924 0.51286 0.87588 0.0
C3009 C 0.45228 0.47565 0.85777 0.0
C3010 C 0.44925 0.48874 0.85206 0.0
C3011 C 0.45482 0.50063 0.85814 0.0
C3012 C 0.44037 0.49031 0.83971 0.0
C3013 C 0.44611 0.46258 0.85198 0.0
C3014 C 0.44448 0.48478 0.82698 0.0
C3015 C 0.43618 0.48641 0.81529 0.0
C3016 C 0.42362 0.49366 0.8161 0.0
C3017 C 0.4196 0.49927 0.82887 0.0
C3018 C 0.42792 0.49765 0.84055 0.0
H3019 H 0.4467 0.45392 0.85948 0.0
H3020 H 0.43516 0.46418 0.84905 0.0
H3021 H 0.45189 0.45953 0.84258 0.0
H3022 H 0.45419 0.47933 0.82605 0.0
H3023 H 0.43973 0.48219 0.80558 0.0
H3024 H 0.71188 0.74821 0.15275 0.0
H3025 H 0.71455 0.73246 0.13319 0.0
H3026 H 0.75668 0.72458 0.14525 0.0
H3027 H 0.75416 0.74068 0.16456 0.0
H3028 H 0.75528 0.72857 0.11853 0.0
H3029 H 0.71453 0.69129 0.13293 0.0
H3030 H 0.70789 0.70849 0.13136 0.0
H3031 H 0.72039 0.70459 0.14455 0.0
C3032 C 0.72166 0.74301 0.15128 0.0
C3033 C 0.7328 0.74561 0.16019 0.0
C3034 C 0.72316 0.73395 0.14015 0.0
C3035 C 0.73573 0.72709 0.13789 0.0
C3036 C 0.74686 0.7297 0.1468 0.0
H3037 H 0.74462 0.65751 0.08159 0.0
H3038 H 0.74278 0.67248 0.10187 0.0
C3039 C 0.74543 0.73891 0.15781 0.0
C3040 C 0.73745 0.71758 0.12597 0.0
H3041 H 0.72335 0.68953 0.10999 0.0
C3042 C 0.74835 0.71997 0.11673 0.0
C3043 C 0.72856 0.70621 0.1237 0.0
C3044 C 0.71728 0.70239 0.13375 0.0
C3045 C 0.75047 0.71147 0.10518 0.0
C3046 C 0.74115 0.70055 0.10253 0.0
C3047 C 0.73039 0.69801 0.1119 0.0
C3048 C 0.74242 0.69153 0.09018 0.0
C3049 C 0.76288 0.71415 0.09615 0.0
C3050 C 0.74267 0.69721 0.07684 0.0
C3051 C 0.74391 0.68868 0.06527 0.0
C3052 C 0.7446 0.67428 0.0668 0.0
C3053 C 0.74404 0.66858 0.08012 0.0
C3054 C 0.74302 0.67712 0.0917 0.0
H3055 H 0.77111 0.7197 0.10188 0.0
H3056 H 0.76725 0.70439 0.09206 0.0
H3057 H 0.75976 0.72073 0.08732 0.0
H3058 H 0.74178 0.70824 0.07535 0.0
H3059 H 0.74408 0.69332 0.05511 0.0
H3060 H 0.01086 0.01578 0.10994 0.0
H3061 H 0.99475 0.01309 0.12915 0.0
H3062 H 0.96149 0.02766 0.10347 0.0
H3063 H 0.97745 0.03008 0.08405 0.0
H3064 H 0.96349 0.04033 0.13053 0.0
H3065 H 0.96409 0.98303 0.13249 0.0
H3066 H 0.98078 0.99112 0.13237 0.0
H3067 H 0.96976 0.99264 0.11756 0.0
C3068 C 1.00009 0.01823 0.10828 0.0
C3069 C 0.99545 0.02307 0.09539 0.0
C3070 C 0.9909 0.01673 0.1193 0.0
C3071 C 0.97691 0.02003 0.11766 0.0
C3072 C 0.97225 0.02503 0.10491 0.0
H3073 H 0.91027 1.00024 0.17465 0.0
H3074 H 0.92493 0.00287 0.15425 0.0
C3075 C 0.98142 0.02648 0.09385 0.0
C3076 C 0.96721 0.01847 0.12936 0.0
H3077 H 0.95296 0.99458 0.151 0.0
C3078 C 0.96112 0.03034 0.13499 0.0
C3079 C 0.96406 0.0054 0.13503 0.0
C3080 C 0.9699 0.99228 0.12901 0.0
C3081 C 0.95219 0.0295 0.14637 0.0
C3082 C 0.94939 0.01647 0.15231 0.0
C3083 C 0.95522 0.00457 0.14648 0.0
C3084 C 0.94051 0.01497 0.16467 0.0
C3085 C 0.94575 0.04255 0.15188 0.0
C3086 C 0.94452 0.02076 0.17731 0.0
C3087 C 0.93623 0.01919 0.18901 0.0
C3088 C 0.92377 0.01175 0.1883 0.0
C3089 C 0.91986 0.00589 0.17561 0.0
C3090 C 0.92818 0.00744 0.16392 0.0
H3091 H 0.94623 0.0511 0.14425 0.0
H3092 H 0.9348 0.0408 0.15477 0.0
H3093 H 0.95141 0.04587 0.16127 0.0
H3094 H 0.95414 0.02637 0.17817 0.0
H3095 H 0.9397 0.02361 0.19866 0.0
H3096 H 0.30349 0.76714 0.15624 0.0
H3097 H 0.29891 0.78183 0.13628 0.0
H3098 H 0.25515 0.77736 0.14292 0.0
H3099 H 0.25963 0.76318 0.16328 0.0
H3100 H 0.28509 0.77586 0.1125 0.0
H3101 H 0.25908 0.81887 0.13992 0.0
H3102 H 0.26858 0.80559 0.14889 0.0
H3103 H 0.25132 0.80233 0.14291 0.0
C3104 C 0.29288 0.76946 0.15361 0.0
C3105 C 0.28193 0.76406 0.16147 0.0
C3106 C 0.29028 0.77777 0.14212 0.0
C3107 C 0.27669 0.78089 0.13823 0.0
C3108 C 0.26572 0.77535 0.14589 0.0
H3109 H 0.24174 0.82691 0.06944 0.0
H3110 H 0.24543 0.81203 0.08956 0.0
C3111 C 0.26831 0.76708 0.15744 0.0
C3112 C 0.27405 0.78967 0.12596 0.0
H3113 H 0.25865 0.8196 0.11544 0.0
C3114 C 0.27936 0.78545 0.11315 0.0
C3115 C 0.26655 0.80218 0.12683 0.0
C3116 C 0.26116 0.8076 0.14039 0.0
C3117 C 0.27725 0.79332 0.10117 0.0
C3118 C 0.26976 0.8058 0.10206 0.0
C3119 C 0.26437 0.80999 0.11482 0.0
C3120 C 0.26757 0.81475 0.08986 0.0
C3121 C 0.28289 0.78814 0.08762 0.0
C3122 C 0.27879 0.8213 0.08349 0.0
C3123 C 0.27673 0.8298 0.07202 0.0
C3124 C 0.26338 0.83189 0.06671 0.0
C3125 C 0.25215 0.82537 0.07319 0.0
C3126 C 0.25423 0.81693 0.08471 0.0
H3127 H 0.28564 0.77702 0.08811 0.0
H3128 H 0.27529 0.7897 0.07919 0.0
H3129 H 0.29234 0.79403 0.08498 0.0
H3130 H 0.28916 0.81988 0.08743 0.0
H3131 H 0.2856 0.83459 0.0672 0.0
H3132 H 0.03401 0.47127 0.08253 0.0
H3133 H 0.04835 0.47536 0.10297 0.0
H3134 H 0.01177 0.48067 0.12769 0.0
H3135 H 0.99734 0.47649 0.10734 0.0
H3136 H 0.04683 0.50024 0.12169 0.0
H3137 H 0.0361 0.44999 0.14737 0.0
H3138 H 0.03382 0.45254 0.12904 0.0
H3139 H 0.02149 0.45949 0.14097 0.0
C3140 C 0.02903 0.47322 0.09234 0.0
C3141 C 0.01455 0.47351 0.09335 0.0
C3142 C 0.03722 0.47563 0.10397 0.0
C3143 C 0.0311 0.4782 0.11682 0.0
C3144 C 0.01667 0.47859 0.11787 0.0
H3145 H 0.06318 0.48915 0.19976 0.0
H3146 H 0.04869 0.48583 0.17934 0.0
C3147 C 0.00846 0.4763 0.10623 0.0
C3148 C 0.0398 0.48055 0.12915 0.0
H3149 H 0.04951 0.46609 0.15975 0.0
C3150 C 0.04747 0.49278 0.13002 0.0
C3151 C 0.0405 0.47082 0.13998 0.0
C3152 C 0.03263 0.45741 0.13935 0.0
C3153 C 0.05571 0.49566 0.14159 0.0
C3154 C 0.05658 0.48583 0.15239 0.0
C3155 C 0.04886 0.4736 0.15148 0.0
C3156 C 0.06542 0.48801 0.16471 0.0
C3157 C 0.06311 0.50934 0.14229 0.0
C3158 C 0.07968 0.49017 0.1633 0.0
C3159 C 0.08796 0.49214 0.17495 0.0
C3160 C 0.08219 0.49178 0.18825 0.0
C3161 C 0.06795 0.48939 0.18965 0.0
C3162 C 0.05965 0.48754 0.178 0.0
H3163 H 0.05821 0.51714 0.13546 0.0
H3164 H 0.06327 0.51343 0.15299 0.0
H3165 H 0.07392 0.50795 0.1388 0.0
H3166 H 0.08444 0.49018 0.1532 0.0
H3167 H 0.09894 0.49371 0.17355 0.0
H3168 H 0.35781 0.72831 0.24665 0.0
H3169 H 0.37823 0.73259 0.26088 0.0
H3170 H 0.35471 0.72344 0.29752 0.0
H3171 H 0.33424 0.71918 0.28338 0.0
H3172 H 0.38241 0.75157 0.28193 0.0
H3173 H 0.38812 0.69794 0.30119 0.0
H3174 H 0.37709 0.70232 0.28684 0.0
H3175 H 0.3714 0.70531 0.30424 0.0
C3176 C 0.35696 0.7273 0.25775 0.0
C3177 C 0.34441 0.72333 0.26388 0.0
C3178 C 0.36865 0.7297 0.26585 0.0
C3179 C 0.36805 0.72812 0.28023 0.0
C3180 C 0.35549 0.7244 0.28642 0.0
H3181 H 0.42725 0.75866 0.34033 0.0
H3182 H 0.40704 0.75478 0.32573 0.0
C3183 C 0.3438 0.72197 0.27832 0.0
C3184 C 0.38053 0.73051 0.28876 0.0
H3185 H 0.40237 0.71494 0.31161 0.0
C3186 C 0.38681 0.74356 0.28839 0.0
C3187 C 0.38635 0.71998 0.29703 0.0
C3188 C 0.38049 0.70556 0.29729 0.0
C3189 C 0.39863 0.74643 0.29626 0.0
C3190 C 0.40418 0.73604 0.30489 0.0
C3191 C 0.39802 0.72293 0.30508 0.0
C3192 C 0.41645 0.73848 0.31371 0.0
C3193 C 0.40521 0.76049 0.29509 0.0
C3194 C 0.42833 0.73039 0.31203 0.0
C3195 C 0.43984 0.73245 0.32048 0.0
C3196 C 0.43967 0.74262 0.33084 0.0
C3197 C 0.4277 0.75067 0.33253 0.0
C3198 C 0.4162 0.74858 0.32408 0.0
H3199 H 0.40204 0.76587 0.28546 0.0
H3200 H 0.40192 0.76694 0.30396 0.0
H3201 H 0.41664 0.75972 0.29526 0.0
H3202 H 0.42871 0.72246 0.30416 0.0
H3203 H 0.44878 0.72591 0.31904 0.0
H3204 H 0.99576 0.41473 0.99003 0.0
H3205 H 1.00011 0.3946 0.9754 0.0
H3206 H 0.95642 0.38656 0.97332 0.0
H3207 H 0.95197 0.40652 0.98807 0.0
H3208 H 0.99255 0.36657 0.98012 0.0
H3209 H 0.96849 0.38749 0.93251 0.0
H3210 H 0.97319 0.39828 0.94695 0.0
H3211 H 0.95769 0.38813 0.94756 0.0
C3212 C 0.98707 0.40863 0.98654 0.0
C3213 C 0.9735 0.4123 0.99017 0.0
C3214 C 0.98958 0.39718 0.97813 0.0
C3215 C 0.97858 0.38923 0.9731 0.0
C3216 C 0.96504 0.39274 0.97683 0.0
H3217 H 0.96992 0.31674 0.92169 0.0
H3218 H 0.96651 0.33689 0.93649 0.0
C3219 C 0.96252 0.40417 0.98526 0.0
C3220 C 0.98124 0.3771 0.96418 0.0
H3221 H 0.9748 0.36384 0.93218 0.0
C3222 C 0.98876 0.36598 0.9696 0.0
C3223 C 0.97624 0.37638 0.95049 0.0
C3224 C 0.96855 0.38824 0.94395 0.0
C3225 C 0.99113 0.35399 0.96181 0.0
C3226 C 0.98608 0.35325 0.94813 0.0
C3227 C 0.97864 0.36442 0.94268 0.0
C3228 C 0.98828 0.34092 0.93931 0.0
C3229 C 0.99868 0.34209 0.96843 0.0
C3230 C 1.00165 0.33658 0.93587 0.0
C3231 C 0.00365 0.32498 0.92751 0.0
C3232 C 0.99229 0.31756 0.92234 0.0
C3233 C 0.9789 0.32206 0.92568 0.0
C3234 C 0.97692 0.33364 0.93405 0.0
H3235 H 0.99861 0.34285 0.97987 0.0
H3236 H 0.99404 0.33207 0.96539 0.0
H3237 H 0.00959 0.34217 0.96497 0.0
H3238 H 0.01056 0.3422 0.93958 0.0
H3239 H 0.0141 0.32176 0.92524 0.0
H3240 H 0.66088 0.75314 0.26145 0.0
H3241 H 0.64133 0.75088 0.27732 0.0
H3242 H 0.6333 0.79449 0.27377 0.0
H3243 H 0.65275 0.79682 0.25777 0.0
H3244 H 0.63711 0.76644 0.30341 0.0
H3245 H 0.59585 0.77457 0.26431 0.0
H3246 H 0.61316 0.76946 0.25967 0.0
H3247 H 0.60966 0.78697 0.26453 0.0
C3248 C 0.65488 0.76223 0.26396 0.0
C3249 C 0.65831 0.77515 0.2583 0.0
C3250 C 0.64378 0.76093 0.27308 0.0
C3251 C 0.63583 0.77249 0.27659 0.0
C3252 C 0.63926 0.78542 0.27106 0.0
H3253 H 0.5613 0.78312 0.32522 0.0
H3254 H 0.58149 0.78635 0.31049 0.0
C3255 C 0.65042 0.78675 0.26201 0.0
C3256 C 0.62397 0.77103 0.28611 0.0
H3257 H 0.58882 0.77247 0.28751 0.0
C3258 C 0.62653 0.76773 0.29997 0.0
C3259 C 0.61024 0.7728 0.28156 0.0
C3260 C 0.60696 0.77605 0.26669 0.0
C3261 C 0.61569 0.76632 0.30948 0.0
C3262 C 0.6019 0.7679 0.30489 0.0
C3263 C 0.59938 0.77126 0.29102 0.0
C3264 C 0.58992 0.76602 0.31426 0.0
C3265 C 0.61914 0.76348 0.3244 0.0
C3266 C 0.58788 0.75348 0.32123 0.0
C3267 C 0.57645 0.75167 0.32983 0.0
C3268 C 0.56668 0.76229 0.33151 0.0
C3269 C 0.56871 0.7748 0.32439 0.0
C3270 C 0.5802 0.77663 0.31587 0.0
H3271 H 0.62985 0.76669 0.32693 0.0
H3272 H 0.61193 0.76892 0.33144 0.0
H3273 H 0.61831 0.75223 0.32637 0.0
H3274 H 0.59507 0.74503 0.31991 0.0
H3275 H 0.57531 0.74195 0.33522 0.0
H3276 H 0.02951 0.08587 0.97864 0.0
H3277 H 0.02755 0.10554 0.9629 0.0
H3278 H 0.01766 0.13209 0.9972 0.0
H3279 H 0.01997 0.11259 0.01305 0.0
H3280 H 0.00437 0.1226 0.95845 0.0
H3281 H 0.04915 0.15269 0.97768 0.0
H3282 H 0.04671 0.13466 0.98169 0.0
H3283 H 0.03712 0.14762 0.99084 0.0
C3284 C 0.02709 0.09593 0.98286 0.0
C3285 C 0.02495 0.09767 0.99711 0.0
C3286 C 0.02589 0.10713 0.97384 0.0
C3287 C 0.02264 0.1203 0.97891 0.0
C3288 C 0.02041 0.12206 0.9931 0.0
H3289 H 0.00814 0.20086 0.94312 0.0
H3290 H 0.01107 0.1809 0.9583 0.0
C3291 C 0.02158 0.11087 1.00212 0.0
C3292 C 0.02124 0.13213 0.96931 0.0
H3293 H 0.03421 0.16405 0.96192 0.0
C3294 C 0.01094 0.13164 0.95914 0.0
C3295 C 0.02982 0.1439 0.97026 0.0
C3296 C 0.04141 0.14476 0.98062 0.0
C3297 C 0.00878 0.14274 0.95008 0.0
C3298 C 0.01732 0.15454 0.95108 0.0
C3299 C 0.02767 0.155 0.9612 0.0
C3300 C 0.01562 0.16659 0.94179 0.0
C3301 C 0.99714 0.1419 0.93977 0.0
C3302 C 0.0174 0.1652 0.92749 0.0
C3303 C 0.01577 0.1766 0.91878 0.0
C3304 C 0.01244 0.18964 0.92423 0.0
C3305 C 0.01084 0.19101 0.9386 0.0
C3306 C 0.01245 0.1796 0.94728 0.0
H3307 H 0.98949 0.13386 0.94264 0.0
H3308 H 0.99173 0.15196 0.93885 0.0
H3309 H 1.00141 0.1392 0.92949 0.0
H3310 H 0.02016 0.15532 0.92306 0.0
H3311 H 0.01732 0.17523 0.9078 0.0
H3312 H 0.34451 0.25087 0.24381 0.0
H3313 H 0.36422 0.2487 0.22816 0.0
H3314 H 0.37021 0.29276 0.22945 0.0
H3315 H 0.35073 0.295 0.24535 0.0
H3316 H 0.36813 0.26138 0.20184 0.0
H3317 H 0.40846 0.27687 0.23954 0.0
H3318 H 0.39131 0.27177 0.24474 0.0
H3319 H 0.39429 0.28871 0.23784 0.0
C3320 C 0.3501 0.26009 0.24087 0.0
C3321 C 0.3461 0.27311 0.2459 0.0
C3322 C 0.3613 0.25883 0.23186 0.0
C3323 C 0.36877 0.27054 0.2278 0.0
C3324 C 0.36471 0.28357 0.23263 0.0
H3325 H 0.44119 0.2832 0.17654 0.0
H3326 H 0.4209 0.28594 0.19127 0.0
C3327 C 0.35348 0.28484 0.24161 0.0
C3328 C 0.38075 0.26912 0.21839 0.0
H3329 H 0.4156 0.2738 0.2164 0.0
C3330 C 0.37852 0.26406 0.20501 0.0
C3331 C 0.39427 0.27266 0.22257 0.0
C3332 C 0.39731 0.2777 0.23698 0.0
C3333 C 0.38945 0.26262 0.19561 0.0
C3334 C 0.403 0.26608 0.19981 0.0
C3335 C 0.40521 0.27118 0.21319 0.0
C3336 C 0.41507 0.2644 0.19054 0.0
C3337 C 0.38634 0.25771 0.18116 0.0
C3338 C 0.41861 0.25136 0.18532 0.0
C3339 C 0.43013 0.24978 0.17679 0.0
C3340 C 0.43844 0.2612 0.17339 0.0
C3341 C 0.43491 0.27423 0.17874 0.0
C3342 C 0.42337 0.2758 0.18725 0.0
H3343 H 0.3753 0.25923 0.17846 0.0
H3344 H 0.39279 0.2632 0.17345 0.0
H3345 H 0.38862 0.24651 0.18043 0.0
H3346 H 0.41252 0.24237 0.18795 0.0
H3347 H 0.43247 0.23962 0.17277 0.0
H3348 H 0.52972 0.419 0.02549 0.0
H3349 H 0.52766 0.39942 0.04133 0.0
H3350 H 0.5172 0.37283 0.00724 0.0
H3351 H 0.51961 0.39223 0.99128 0.0
H3352 H 0.50435 0.38265 0.04607 0.0
H3353 H 0.54861 0.35196 0.02658 0.0
H3354 H 0.54634 0.37 0.02249 0.0
H3355 H 0.53652 0.35709 0.0135 0.0
C3356 C 0.52715 0.40894 0.02133 0.0
C3357 C 0.52488 0.40717 0.0071 0.0
C3358 C 0.5259 0.3978 0.03042 0.0
C3359 C 0.52246 0.38465 0.02544 0.0
C3360 C 0.52009 0.38285 0.01127 0.0
H3361 H 0.50747 0.3044 0.06169 0.0
H3362 H 0.51042 0.32428 0.04642 0.0
C3363 C 0.52132 0.39398 1.00218 0.0
C3364 C 0.52101 0.37287 0.0351 0.0
H3365 H 0.5337 0.34085 0.04252 0.0
C3366 C 0.51082 0.37354 0.04536 0.0
C3367 C 0.52945 0.36101 0.03413 0.0
C3368 C 0.54093 0.35997 0.02367 0.0
C3369 C 0.50862 0.3625 0.0545 0.0
C3370 C 0.51701 0.35059 0.05348 0.0
C3371 C 0.52726 0.34997 0.04326 0.0
C3372 C 0.51526 0.33861 0.06283 0.0
C3373 C 0.49709 0.36353 0.06491 0.0
C3374 C 0.51718 0.34003 0.07711 0.0
C3375 C 0.51555 0.32868 0.08587 0.0
C3376 C 0.51206 0.31565 0.0805 0.0
C3377 C 0.5103 0.31425 0.06616 0.0
C3378 C 0.51192 0.32561 0.05742 0.0
H3379 H 0.4895 0.37164 0.06208 0.0
H3380 H 0.49158 0.35353 0.06593 0.0
H3381 H 0.50148 0.36622 0.07513 0.0
H3382 H 0.52008 0.3499 0.08148 0.0
H3383 H 0.51721 0.33007 0.09683 0.0
H3384 H 0.65944 0.25331 0.24568 0.0
H3385 H 0.63972 0.25554 0.23011 0.0
H3386 H 0.63623 0.21124 0.22804 0.0
H3387 H 0.65556 0.2089 0.24407 0.0
H3388 H 0.63637 0.2461 0.20356 0.0
H3389 H 0.59719 0.22265 0.2381 0.0
H3390 H 0.61402 0.22783 0.24415 0.0
H3391 H 0.61189 0.21181 0.23502 0.0
C3392 C 0.65436 0.24403 0.24208 0.0
C3393 C 0.65903 0.23092 0.24624 0.0
C3394 C 0.64316 0.24533 0.23309 0.0
C3395 C 0.63636 0.23357 0.2281 0.0
C3396 C 0.64114 0.22046 0.23199 0.0
H3397 H 0.56754 0.22084 0.172 0.0
H3398 H 0.58771 0.21817 0.18699 0.0
C3399 C 0.65231 0.21915 0.24102 0.0
C3400 C 0.62439 0.23504 0.21865 0.0
H3401 H 0.5902 0.22724 0.21508 0.0
C3402 C 0.62626 0.24203 0.2061 0.0
C3403 C 0.61121 0.22972 0.22199 0.0
C3404 C 0.60838 0.22269 0.2356 0.0
C3405 C 0.61535 0.24367 0.19671 0.0
C3406 C 0.6022 0.23832 0.20004 0.0
C3407 C 0.60032 0.23129 0.21256 0.0
C3408 C 0.59019 0.24003 0.19073 0.0
C3409 C 0.61802 0.25092 0.18319 0.0
C3410 C 0.58485 0.2532 0.18798 0.0
C3411 C 0.57335 0.25476 0.17941 0.0
C3412 C 0.56696 0.24317 0.17345 0.0
C3413 C 0.57233 0.22998 0.17628 0.0
C3414 C 0.5838 0.22843 0.18489 0.0
H3415 H 0.62922 0.25153 0.18081 0.0
H3416 H 0.61271 0.24556 0.17457 0.0
H3417 H 0.61393 0.2616 0.18377 0.0
H3418 H 0.58951 0.26227 0.19255 0.0
H3419 H 0.56952 0.26506 0.17737 0.0
H3420 H 0.49519 0.09082 0.01439 0.0
H3421 H 0.49962 0.11095 0.029 0.0
H3422 H 0.45594 0.11891 0.03145 0.0
H3423 H 0.4514 0.09896 0.0167 0.0
H3424 H 0.49189 0.13901 0.02433 0.0
H3425 H 0.46844 0.11791 0.07217 0.0
H3426 H 0.47308 0.10715 0.05768 0.0
H3427 H 0.45752 0.11722 0.05722 0.0
C3428 C 0.48652 0.09691 0.01795 0.0
C3429 C 0.47293 0.09322 0.01442 0.0
C3430 C 0.48908 0.10836 0.02635 0.0
C3431 C 0.4781 0.11628 0.03147 0.0
C3432 C 0.46454 0.11275 0.02785 0.0
H3433 H 0.46978 0.1886 0.08316 0.0
H3434 H 0.46627 0.16847 0.06837 0.0
C3435 C 0.46197 0.10133 0.01943 0.0
C3436 C 0.48081 0.1284 0.04039 0.0
H3437 H 0.47472 0.14156 0.07249 0.0
C3438 C 0.48822 0.13956 0.03489 0.0
C3439 C 0.47597 0.12907 0.05414 0.0
C3440 C 0.46841 0.11716 0.06073 0.0
C3441 C 0.49064 0.15154 0.04269 0.0
C3442 C 0.48576 0.15223 0.05643 0.0
C3443 C 0.47843 0.14102 0.06195 0.0
C3444 C 0.48802 0.16454 0.06525 0.0
C3445 C 0.49806 0.16348 0.036 0.0
C3446 C 0.50142 0.16894 0.06853 0.0
C3447 C 0.50347 0.18053 0.07687 0.0
C3448 C 0.49215 0.18789 0.08221 0.0
C3449 C 0.47873 0.18333 0.07904 0.0
C3450 C 0.4767 0.17176 0.07067 0.0
H3451 H 0.49785 0.16275 0.02456 0.0
H3452 H 0.49343 0.17348 0.03912 0.0
H3453 H 0.50902 0.16343 0.03932 0.0
H3454 H 0.51031 0.16337 0.06468 0.0
H3455 H 0.51393 0.1838 0.07901 0.0
H3456 H 0.27805 0.33497 0.72528 0.0
H3457 H 0.29373 0.35464 0.72757 0.0
H3458 H 0.26008 0.37998 0.74179 0.0
H3459 H 0.24423 0.36056 0.73918 0.0
H3460 H 0.29052 0.38229 0.71457 0.0
H3461 H 0.29121 0.38334 0.77193 0.0
H3462 H 0.28611 0.36826 0.76224 0.0
H3463 H 0.27446 0.38255 0.76398 0.0
C3464 C 0.27393 0.34476 0.72877 0.0
C3465 C 0.25985 0.34614 0.73211 0.0
C3466 C 0.28293 0.35595 0.73014 0.0
C3467 C 0.27807 0.36868 0.735 0.0
C3468 C 0.26406 0.37016 0.73824 0.0
H3469 H 0.3136 0.44825 0.75402 0.0
H3470 H 0.29882 0.428 0.75108 0.0
C3471 C 0.25503 0.35901 0.7368 0.0
C3472 C 0.2876 0.38053 0.7365 0.0
H3473 H 0.30217 0.40185 0.76042 0.0
C3474 C 0.29316 0.38655 0.72458 0.0
C3475 C 0.29092 0.38604 0.74958 0.0
C3476 C 0.28548 0.3797 0.76271 0.0
C3477 C 0.30173 0.39822 0.72536 0.0
C3478 C 0.30509 0.40376 0.73846 0.0
C3479 C 0.29959 0.39762 0.75039 0.0
C3480 C 0.31411 0.41603 0.74006 0.0
C3481 C 0.30673 0.40474 0.71214 0.0
C3482 C 0.32768 0.41598 0.73498 0.0
C3483 C 0.33613 0.42757 0.73659 0.0
C3484 C 0.33123 0.43935 0.7435 0.0
C3485 C 0.31771 0.4393 0.74875 0.0
C3486 C 0.30924 0.42775 0.74704 0.0
H3487 H 0.30022 0.40173 0.7032 0.0
H3488 H 0.3068 0.41617 0.71293 0.0
H3489 H 0.31742 0.40122 0.71002 0.0
H3490 H 0.3318 0.40693 0.72989 0.0
H3491 H 0.34657 0.42723 0.73264 0.0
H3492 H 0.24208 0.64318 0.76657 0.0
H3493 H 0.258 0.62378 0.76394 0.0
H3494 H 0.2919 0.64975 0.77632 0.0
H3495 H 0.27614 0.66933 0.77868 0.0
H3496 H 0.28246 0.62254 0.74658 0.0
H3497 H 0.2941 0.61552 0.80233 0.0
H3498 H 0.27922 0.62499 0.79631 0.0
H3499 H 0.29602 0.63276 0.79575 0.0
C3500 C 0.25294 0.64483 0.76861 0.0
C3501 C 0.25781 0.65784 0.77286 0.0
C3502 C 0.262 0.6337 0.76718 0.0
C3503 C 0.27608 0.6353 0.7701 0.0
C3504 C 0.28102 0.64825 0.77426 0.0
H3505 H 0.34607 0.57929 0.76997 0.0
H3506 H 0.33069 0.59918 0.77197 0.0
C3507 C 0.27198 0.65941 0.77564 0.0
C3508 C 0.28563 0.62347 0.76854 0.0
H3509 H 0.30678 0.60186 0.78661 0.0
C3510 C 0.28776 0.61798 0.75532 0.0
C3511 C 0.29256 0.61762 0.77996 0.0
C3512 C 0.29033 0.62292 0.79443 0.0
C3513 C 0.29682 0.60687 0.75318 0.0
C3514 C 0.30365 0.60089 0.76463 0.0
C3515 C 0.30153 0.60644 0.77785 0.0
C3516 C 0.31299 0.58884 0.76314 0.0
C3517 C 0.29922 0.60185 0.73863 0.0
C3518 C 0.30812 0.57636 0.75764 0.0
C3519 C 0.31694 0.56502 0.75632 0.0
C3520 C 0.33078 0.56586 0.76063 0.0
C3521 C 0.33556 0.57834 0.76632 0.0
C3522 C 0.32675 0.58969 0.76758 0.0
H3523 H 0.29649 0.60987 0.7309 0.0
H3524 H 0.31015 0.59881 0.73705 0.0
H3525 H 0.29262 0.59271 0.73667 0.0
H3526 H 0.29747 0.57536 0.75442 0.0
H3527 H 0.31292 0.55563 0.75179 0.0
H3528 H 0.92079 0.47205 0.46815 0.0
H3529 H 0.90044 0.45774 0.47243 0.0
H3530 H 0.87692 0.4941 0.48264 0.0
H3531 H 0.89707 0.50854 0.47794 0.0
H3532 H 0.88497 0.45509 0.49669 0.0
H3533 H 0.85278 0.47505 0.45369 0.0
H3534 H 0.87113 0.4781 0.45472 0.0
H3535 H 0.85941 0.48813 0.46501 0.0
C3536 C 0.91124 0.47703 0.47113 0.0
C3537 C 0.91054 0.49146 0.47261 0.0
C3538 C 0.89965 0.46883 0.47367 0.0
C3539 C 0.88712 0.47488 0.47766 0.0
C3540 C 0.88642 0.48924 0.47933 0.0
H3541 H 0.80596 0.4425 0.49772 0.0
H3542 H 0.82622 0.45705 0.49387 0.0
C3543 C 0.898 0.49746 0.47679 0.0
C3544 C 0.87485 0.46612 0.48027 0.0
H3545 H 0.84181 0.46007 0.46961 0.0
C3546 C 0.87555 0.45613 0.49074 0.0
C3547 C 0.86256 0.46753 0.47251 0.0
C3548 C 0.86141 0.47769 0.46077 0.0
C3549 C 0.86421 0.44764 0.4938 0.0
C3550 C 0.85194 0.44903 0.48602 0.0
C3551 C 0.85123 0.45904 0.47558 0.0
C3552 C 0.83974 0.44013 0.48847 0.0
C3553 C 0.86537 0.43744 0.5055 0.0
C3554 C 0.84058 0.42581 0.48654 0.0
C3555 C 0.82901 0.41746 0.48867 0.0
C3556 C 0.81633 0.42329 0.49268 0.0
C3557 C 0.81551 0.43768 0.49449 0.0
C3558 C 0.8271 0.44601 0.49237 0.0
H3559 H 0.87395 0.44009 0.51262 0.0
H3560 H 0.85563 0.43696 0.51151 0.0
H3561 H 0.86743 0.42702 0.50123 0.0
H3562 H 0.85015 0.42109 0.48323 0.0
H3563 H 0.82993 0.40646 0.48693 0.0
H3564 H 0.74655 0.8508 0.79512 0.0
H3565 H 0.73051 0.87018 0.79272 0.0
H3566 H 0.72877 0.8634 0.74879 0.0
H3567 H 0.74453 0.84382 0.75112 0.0
H3568 H 0.73423 0.89432 0.77648 0.0
H3569 H 0.68785 0.86478 0.76038 0.0
H3570 H 0.70262 0.8567 0.76835 0.0
H3571 H 0.7031 0.86138 0.75042 0.0
C3572 C 0.74261 0.85332 0.78497 0.0
C3573 C 0.74678 0.84573 0.77332 0.0
C3574 C 0.73352 0.86444 0.78361 0.0
C3575 C 0.72833 0.86811 0.77061 0.0
C3576 C 0.73249 0.8606 0.75895 0.0
H3577 H 0.67377 0.93216 0.74009 0.0
H3578 H 0.68933 0.91248 0.74285 0.0
C3579 C 0.74161 0.84951 0.76029 0.0
C3580 C 0.71887 0.88005 0.76918 0.0
H3581 H 0.68638 0.88917 0.75907 0.0
C3582 C 0.72374 0.89321 0.77274 0.0
C3583 C 0.70522 0.87855 0.76425 0.0
C3584 C 0.6993 0.86459 0.76073 0.0
C3585 C 0.71541 0.90497 0.77126 0.0
C3586 C 0.70173 0.90347 0.76635 0.0
C3587 C 0.69686 0.8903 0.76281 0.0
C3588 C 0.69233 0.91545 0.76477 0.0
C3589 C 0.72144 0.91893 0.77462 0.0
C3590 C 0.68871 0.92356 0.77621 0.0
C3591 C 0.67992 0.93489 0.77465 0.0
C3592 C 0.67447 0.93829 0.76162 0.0
C3593 C 0.67795 0.92999 0.75022 0.0
C3594 C 0.68677 0.91868 0.75179 0.0
H3595 H 0.7329 0.91871 0.77459 0.0
H3596 H 0.71791 0.92686 0.76714 0.0
H3597 H 0.71801 0.92209 0.78507 0.0
H3598 H 0.69267 0.9211 0.78637 0.0
H3599 H 0.67756 0.9411 0.78363 0.0
H3600 H 0.59723 0.50771 0.00293 0.0
H3601 H 0.61687 0.5233 0.00503 0.0
H3602 H 0.61801 0.52805 0.9608 0.0
H3603 H 0.59891 0.5118 0.95852 0.0
H3604 H 0.64326 0.52436 0.97083 0.0
H3605 H 0.61695 0.56457 1.0017 0.0
H3606 H 0.61622 0.54793 0.00976 0.0
H3607 H 0.6077 0.55067 0.99348 0.0
C3608 C 0.60171 0.51195 0.99362 0.0
C3609 C 0.59641 0.50849 0.98055 0.0
C3610 C 0.61283 0.52106 0.99486 0.0
C3611 C 0.61874 0.52709 0.9831 0.0
C3612 C 0.61354 0.52362 0.97004 0.0
H3613 H 0.67538 0.59684 0.98575 0.0
H3614 H 0.65554 0.58159 0.9823 0.0
C3615 C 0.60251 0.51441 0.96877 0.0
C3616 C 0.63064 0.53667 0.98436 0.0
H3617 H 0.64147 0.56624 1.00017 0.0
C3618 C 0.64284 0.53357 0.97717 0.0
C3619 C 0.63003 0.54881 0.99246 0.0
C3620 C 0.61698 0.55328 0.99967 0.0
C3621 C 0.65451 0.5421 0.97807 0.0
C3622 C 0.65411 0.55388 0.98671 0.0
C3623 C 0.64183 0.55713 0.99368 0.0
C3624 C 0.66626 0.56303 0.9886 0.0
C3625 C 0.66703 0.53855 0.96953 0.0
C3626 C 0.67886 0.55771 0.99341 0.0
C3627 C 0.69023 0.56639 0.99527 0.0
C3628 C 0.68915 0.5806 0.99259 0.0
C3629 C 0.67649 0.58595 0.98798 0.0
C3630 C 0.66516 0.57724 0.98598 0.0
H3631 H 0.66426 0.53202 0.96051 0.0
H3632 H 0.67229 0.54798 0.96572 0.0
H3633 H 0.67442 0.53263 0.97596 0.0
H3634 H 0.67986 0.54686 0.9959 0.0
H3635 H 0.69979 0.56202 0.99906 0.0
H3636 H 0.2424 0.66266 0.24534 0.0
H3637 H 0.22837 0.64214 0.24973 0.0
H3638 H 0.22481 0.63514 0.20594 0.0
H3639 H 0.2393 0.65525 0.20146 0.0
H3640 H 0.20179 0.63665 0.24181 0.0
H3641 H 0.23726 0.59765 0.21962 0.0
H3642 H 0.24262 0.6151 0.22327 0.0
H3643 H 0.2331 0.61127 0.2078 0.0
C3644 C 0.23882 0.65664 0.23664 0.0
C3645 C 0.24206 0.66059 0.22304 0.0
C3646 C 0.23072 0.64497 0.23917 0.0
C3647 C 0.22573 0.63698 0.22817 0.0
C3648 C 0.22879 0.64097 0.2146 0.0
H3649 H 0.17126 0.5668 0.21946 0.0
H3650 H 0.18598 0.58706 0.21612 0.0
C3651 C 0.23693 0.6526 0.21205 0.0
C3652 C 0.21699 0.62469 0.23088 0.0
H3653 H 0.21445 0.59006 0.22479 0.0
C3654 C 0.20461 0.62644 0.23819 0.0
C3655 C 0.2207 0.61137 0.22615 0.0
C3656 C 0.23421 0.60867 0.21889 0.0
C3657 C 0.19566 0.6153 0.2406 0.0
C3658 C 0.19927 0.60205 0.23569 0.0
C3659 C 0.2117 0.60026 0.22848 0.0
C3660 C 0.19025 0.5899 0.23784 0.0
C3661 C 0.18226 0.61783 0.2481 0.0
C3662 C 0.18788 0.58474 0.25115 0.0
C3663 C 0.17947 0.57318 0.2531 0.0
C3664 C 0.17327 0.56657 0.24176 0.0
C3665 C 0.17572 0.57176 0.22842 0.0
C3666 C 0.18419 0.58328 0.22648 0.0
H3667 H 0.17968 0.62899 0.24863 0.0
H3668 H 0.17364 0.61229 0.24296 0.0
H3669 H 0.18312 0.61385 0.2588 0.0
H3670 H 0.19261 0.58961 0.26003 0.0
H3671 H 0.17771 0.56949 0.2635 0.0
H3672 H 0.91413 0.5149 0.00976 0.0
H3673 H 0.89402 0.52954 0.00535 0.0
H3674 H 0.88586 0.53162 0.04902 0.0
H3675 H 0.90579 0.51685 0.05353 0.0
H3676 H 0.86599 0.52485 0.01279 0.0
H3677 H 0.88682 0.57242 0.03697 0.0
H3678 H 0.89762 0.55798 0.03232 0.0
H3679 H 0.88741 0.55737 0.04778 0.0
C3680 C 0.90801 0.51839 0.01843 0.0
C3681 C 0.91163 0.51475 0.03201 0.0
C3682 C 0.89656 0.52681 0.01589 0.0
C3683 C 0.88859 0.53184 0.02687 0.0
C3684 C 0.89206 0.5281 0.04042 0.0
H3685 H 0.816 0.58304 0.03541 0.0
H3686 H 0.83619 0.56832 0.03882 0.0
C3687 C 0.90347 0.51967 0.04297 0.0
C3688 C 0.87648 0.54077 0.02417 0.0
H3689 H 0.86319 0.57277 0.03059 0.0
C3690 C 0.86539 0.53536 0.01659 0.0
C3691 C 0.87574 0.55446 0.02918 0.0
C3692 C 0.88757 0.56098 0.03691 0.0
C3693 C 0.85342 0.54316 0.01418 0.0
C3694 C 0.85265 0.55684 0.01924 0.0
C3695 C 0.86379 0.56228 0.02673 0.0
C3696 C 0.84032 0.56564 0.01704 0.0
C3697 C 0.84155 0.53656 0.00656 0.0
C3698 C 0.83601 0.56915 0.00367 0.0
C3699 C 0.82438 0.57747 1.00168 0.0
C3700 C 0.81689 0.58253 0.01304 0.0
C3701 C 0.82137 0.57914 0.02643 0.0
C3702 C 0.83298 0.57081 0.0284 0.0
H3703 H 0.84233 0.52512 0.00657 0.0
H3704 H 0.83151 0.53956 0.0112 0.0
H3705 H 0.84164 0.54009 0.99567 0.0
H3706 H 0.84168 0.5655 0.99476 0.0
H3707 H 0.82118 0.57979 0.99123 0.0
H3708 H 0.09623 0.99596 1.00097 0.0
H3709 H 0.11586 0.98031 0.99886 0.0
H3710 H 0.11841 0.97732 0.04318 0.0
H3711 H 0.09922 0.99351 0.04542 0.0
H3712 H 0.14348 0.98112 0.03171 0.0
H3713 H 0.11617 0.93899 0.00438 0.0
H3714 H 0.11482 0.95529 0.9957 0.0
H3715 H 0.10717 0.95314 0.01248 0.0
C3716 C 0.10101 0.99207 0.01029 0.0
C3717 C 0.09609 0.996 0.02338 0.0
C3718 C 0.11213 0.98296 0.00905 0.0
C3719 C 0.11844 0.97743 0.02085 0.0
C3720 C 0.11362 0.98137 0.03393 0.0
H3721 H 0.17579 0.90826 0.0209 0.0
H3722 H 0.15593 0.92355 0.02405 0.0
C3723 C 0.10256 0.99054 0.03518 0.0
C3724 C 0.13037 0.96789 0.0196 0.0
H3725 H 0.1407 0.93742 0.00523 0.0
C3726 C 0.14285 0.97153 0.02598 0.0
C3727 C 0.12949 0.95528 0.01229 0.0
C3728 C 0.11616 0.95035 0.00594 0.0
C3729 C 0.15455 0.96304 0.02504 0.0
C3730 C 0.15384 0.95072 0.01723 0.0
C3731 C 0.14128 0.94695 0.01108 0.0
C3732 C 0.16597 0.94153 0.0154 0.0
C3733 C 0.16748 0.96724 0.03264 0.0
C3734 C 0.17815 0.94651 0.00935 0.0
C3735 C 0.18952 0.93781 0.00759 0.0
C3736 C 0.18886 0.9239 0.01168 0.0
C3737 C 0.17658 0.91889 0.01756 0.0
C3738 C 0.16525 0.92763 0.0194 0.0
H3739 H 0.16517 0.9745 0.0412 0.0
H3740 H 0.17291 0.95811 0.03695 0.0
H3741 H 0.17456 0.97254 0.02537 0.0
H3742 H 0.17883 0.9571 0.00584 0.0
H3743 H 0.19875 0.94191 0.00281 0.0
loop_
_geom_bond_atom_site_label_1
_geom_bond_atom_site_label_2
_geom_bond_distance
_geom_bond_site_symmetry_2
_ccdc_geom_bond_type
C0 C1 1.391 . S
C0 C4 1.391 1_556 S
C0 H42 0.948 . S
C1 C0 1.391 . S
C1 C2 1.391 1_556 S
C2 C1 1.391 1_554 S
C2 H58 0.947 . S
C2 C59 1.392 . S
C3 C4 1.391 . S
C3 C7 1.397 . S
C3 C59 1.419 . S
C4 C0 1.391 1_554 S
C4 C3 1.391 . S
C4 C5 1.399 . S
C5 C4 1.399 . S
C5 C8 1.396 . S
C5 C17 1.453 . S
C5 C18 1.684 1_554 S
H6 C30 0.948 . S
C7 C3 1.397 . S
C7 C8 1.394 . S
C7 C26 1.723 . S
C8 C5 1.396 . S
C8 C7 1.394 . S
C8 C38 1.723 . S
H9 C32 0.947 . S
H10 C33 0.948 . S
H11 C39 0.982 . S
H12 C40 0.979 . S
H13 C40 0.980 . S
H14 C40 0.983 . S
H15 C39 0.979 1_565 S
H16 C39 0.977 . S
C17 C5 1.453 . S
C17 H46 0.982 . S
C17 H47 0.979 1_554 S
C17 H48 0.977 . S
C18 C5 1.684 1_556 S
C18 H43 0.979 . S
C18 H44 0.980 . S
C18 H45 0.983 . S
C19 C20 1.391 . S
C19 C24 1.391 1_655 S
C19 H49 0.948 . S
C20 C19 1.391 . S
C20 C21 1.391 1_655 S
C21 C20 1.391 1_455 S
C21 C22 1.392 . S
C21 H50 0.947 . S
C22 C21 1.392 . S
C22 C23 1.419 . S
C22 H51 0.948 . S
C23 C22 1.419 . S
C23 C24 1.391 . S
C23 C27 1.397 . S
C24 C19 1.391 1_455 S
C24 C23 1.391 . S
C24 C25 1.399 . S
C25 C24 1.399 . S
C25 C26 1.396 . S
C25 C28 1.453 . S
C25 C29 1.684 1_455 S
C26 C7 1.723 . S
C26 C25 1.396 . S
C26 C27 1.394 . S
C27 C23 1.397 . S
C27 C26 1.394 . S
C27 C37 1.723 . S
C28 C25 1.453 . S
C28 H52 0.982 . S
C28 H53 0.979 1_455 S
C28 H54 0.977 . S
C29 C25 1.684 1_655 S
C29 H55 0.979 . S
C29 H56 0.980 . S
C29 H57 0.983 . S
C30 H6 0.948 . S
C30 C31 1.391 . S
C30 C35 1.391 1_565 S
C31 C30 1.391 . S
C31 C32 1.391 1_565 S
C32 H9 0.947 . S
C32 C31 1.391 1_545 S
C32 C33 1.392 . S
C33 H10 0.948 . S
C33 C32 1.392 . S
C33 C34 1.419 . S
C34 C33 1.419 . S
C34 C35 1.391 . S
C34 C38 1.397 . S
C35 C30 1.391 1_545 S
C35 C34 1.391 . S
C35 C36 1.399 . S
C36 C35 1.399 . S
C36 C37 1.396 . S
C36 C39 1.453 . S
C36 C40 1.684 1_545 S
C37 C27 1.723 . S
C37 C36 1.396 . S
C37 C38 1.394 . S
C38 C8 1.723 . S
C38 C34 1.397 . S
C38 C37 1.394 . S
C39 H11 0.982 . S
C39 H15 0.979 1_545 S
C39 H16 0.977 . S
C39 C36 1.453 . S
C40 H12 0.979 . S
C40 H13 0.980 . S
C40 H14 0.983 . S
C40 C36 1.684 1_565 S
H41 C59 0.948 . S
H42 C0 0.948 . S
H43 C18 0.979 . S
H44 C18 0.980 . S
H45 C18 0.983 . S
H46 C17 0.982 . S
H47 C17 0.979 1_556 S
H48 C17 0.977 . S
H49 C19 0.948 . S
H50 C21 0.947 . S
H51 C22 0.948 . S
H52 C28 0.982 . S
H53 C28 0.979 1_655 S
H54 C28 0.977 . S
H55 C29 0.979 . S
H56 C29 0.980 . S
H57 C29 0.983 . S
H58 C2 0.947 . S
C59 C2 1.392 . S
C59 C3 1.419 . S
C59 H41 0.948 . S
C60 C61 1.391 . S
C60 C64 1.391 . S
C60 H102 0.948 . S
C61 C60 1.391 . S
C61 C62 1.391 . S
C62 C61 1.391 . S
C62 H118 0.947 . S
C62 C119 1.392 . S
C63 C64 1.391 . S
C63 C67 1.397 . S
C63 C119 1.419 . S
C64 C60 1.391 . S
C64 C63 1.391 . S
C64 C65 1.399 . S
C65 C64 1.399 . S
C65 C68 1.396 . S
C65 C77 1.453 . S
C65 C78 1.684 . S
H66 C90 0.948 . S
C67 C63 1.397 . S
C67 C68 1.394 . S
C67 C86 1.723 . S
C68 C65 1.396 . S
C68 C67 1.394 . S
C68 C98 1.723 . S
H69 C92 0.947 . S
H70 C93 0.948 . S
H71 C99 0.982 . S
H72 C100 0.979 . S
H73 C100 0.980 . S
H74 C100 0.983 . S
H75 C99 0.979 . S
H76 C99 0.977 . S
C77 C65 1.453 . S
C77 H106 0.982 . S
C77 H107 0.979 . S
C77 H108 0.977 . S
C78 C65 1.684 . S
C78 H103 0.979 . S
C78 H104 0.980 . S
C78 H105 0.983 . S
C79 C80 1.391 . S
C79 C84 1.391 . S
C79 H109 0.948 . S
C80 C79 1.391 . S
C80 C81 1.391 . S
C81 C80 1.391 . S
C81 C82 1.392 . S
C81 H110 0.947 . S
C82 C81 1.392 . S
C82 C83 1.419 . S
C82 H111 0.948 . S
C83 C82 1.419 . S
C83 C84 1.391 . S
C83 C87 1.397 . S
C84 C79 1.391 . S
C84 C83 1.391 . S
C84 C85 1.399 . S
C85 C84 1.399 . S
C85 C86 1.396 . S
C85 C88 1.453 . S
C85 C89 1.684 . S
C86 C67 1.723 . S
C86 C85 1.396 . S
C86 C87 1.394 . S
C87 C83 1.397 . S
C87 C86 1.394 . S
C87 C97 1.723 . S
C88 C85 1.453 . S
C88 H112 0.982 . S
C88 H113 0.979 . S
C88 H114 0.977 . S
C89 C85 1.684 . S
C89 H115 0.979 . S
C89 H116 0.980 . S
C89 H117 0.983 . S
C90 H66 0.948 . S
C90 C91 1.391 . S
C90 C95 1.391 . S
C91 C90 1.391 . S
C91 C92 1.391 . S
C92 H69 0.947 . S
C92 C91 1.391 . S
C92 C93 1.392 . S
C93 H70 0.948 . S
C93 C92 1.392 . S
C93 C94 1.419 . S
C94 C93 1.419 . S
C94 C95 1.391 . S
C94 C98 1.397 . S
C95 C90 1.391 . S
C95 C94 1.391 . S
C95 C96 1.399 . S
C96 C95 1.399 . S
C96 C97 1.396 . S
C96 C99 1.453 . S
C96 C100 1.684 . S
C97 C87 1.723 . S
C97 C96 1.396 . S
C97 C98 1.394 . S
C98 C68 1.723 . S
C98 C94 1.397 . S
C98 C97 1.394 . S
C99 H71 0.982 . S
C99 H75 0.979 . S
C99 H76 0.977 . S
C99 C96 1.453 . S
C100 H72 0.979 . S
C100 H73 0.980 . S
C100 H74 0.983 . S
C100 C96 1.684 . S
H101 C119 0.948 . S
H102 C60 0.948 . S
H103 C78 0.979 . S
H104 C78 0.980 . S
H105 C78 0.983 . S
H106 C77 0.982 . S
H107 C77 0.979 . S
H108 C77 0.977 . S
H109 C79 0.948 . S
H110 C81 0.947 . S
H111 C82 0.948 . S
H112 C88 0.982 . S
H113 C88 0.979 . S
H114 C88 0.977 . S
H115 C89 0.979 . S
H116 C89 0.980 . S
H117 C89 0.983 . S
H118 C62 0.947 . S
C119 C62 1.392 . S
C119 C63 1.419 . S
C119 H101 0.948 . S
C120 C121 1.391 1_554 S
C120 C124 1.391 . S
C120 H162 0.948 . S
C121 C120 1.391 1_556 S
C121 C122 1.391 . S
C122 C121 1.391 . S
C122 H178 0.947 . S
C122 C179 1.392 . S
C123 C124 1.391 . S
C123 C127 1.397 . S
C123 C179 1.419 1_554 S
C124 C120 1.391 . S
C124 C123 1.391 . S
C124 C125 1.399 . S
C125 C124 1.399 . S
C125 C128 1.396 . S
C125 C137 1.453 . S
C125 C138 1.684 1_655 S
H126 C150 0.948 . S
C127 C123 1.397 . S
C127 C128 1.394 . S
C127 C146 1.723 . S
C128 C125 1.396 . S
C128 C127 1.394 . S
C128 C158 1.723 . S
H129 C152 0.947 . S
H130 C153 0.948 . S
H131 C159 0.982 . S
H132 C160 0.979 . S
H133 C160 0.980 . S
H134 C160 0.983 . S
H135 C159 0.979 . S
H136 C159 0.977 . S
C137 C125 1.453 . S
C137 H166 0.982 . S
C137 H167 0.979 . S
C137 H168 0.977 . S
C138 C125 1.684 1_455 S
C138 H163 0.979 . S
C138 H164 0.980 . S
C138 H165 0.983 . S
C139 C140 1.391 . S
C139 C144 1.391 . S
C139 H169 0.948 . S
C140 C139 1.391 . S
C140 C141 1.391 . S
C141 C140 1.391 . S
C141 C142 1.392 . S
C141 H170 0.947 . S
C142 C141 1.392 . S
C142 C143 1.419 . S
C142 H171 0.948 . S
C143 C142 1.419 . S
C143 C144 1.391 . S
C143 C147 1.397 . S
C144 C139 1.391 . S
C144 C143 1.391 . S
C144 C145 1.399 . S
C145 C144 1.399 . S
C145 C146 1.396 . S
C145 C148 1.453 . S
C145 C149 1.684 1_554 S
C146 C127 1.723 . S
C146 C145 1.396 . S
C146 C147 1.394 . S
C147 C143 1.397 . S
C147 C146 1.394 . S
C147 C157 1.723 . S
C148 C145 1.453 . S
C148 H172 0.982 . S
C148 H173 0.979 . S
C148 H174 0.977 . S
C149 C145 1.684 1_556 S
C149 H175 0.979 . S
C149 H176 0.980 . S
C149 H177 0.983 . S
C150 H126 0.948 . S
C150 C151 1.391 1_655 S
C150 C155 1.391 . S
C151 C150 1.391 1_455 S
C151 C152 1.391 . S
C152 H129 0.947 . S
C152 C151 1.391 . S
C152 C153 1.392 . S
C153 H130 0.948 . S
C153 C152 1.392 . S
C153 C154 1.419 1_455 S
C154 C153 1.419 1_655 S
C154 C155 1.391 . S
C154 C158 1.397 . S
C155 C150 1.391 . S
C155 C154 1.391 . S
C155 C156 1.399 . S
C156 C155 1.399 . S
C156 C157 1.396 . S
C156 C159 1.453 . S
C156 C160 1.684 . S
C157 C147 1.723 . S
C157 C156 1.396 . S
C157 C158 1.394 . S
C158 C128 1.723 . S
C158 C154 1.397 . S
C158 C157 1.394 . S
C159 H131 0.982 . S
C159 H135 0.979 . S
C159 H136 0.977 . S
C159 C156 1.453 . S
C160 H132 0.979 . S
C160 H133 0.980 . S
C160 H134 0.983 . S
C160 C156 1.684 . S
H161 C179 0.948 . S
H162 C120 0.948 . S
H163 C138 0.979 . S
H164 C138 0.980 . S
H165 C138 0.983 . S
H166 C137 0.982 . S
H167 C137 0.979 . S
H168 C137 0.977 . S
H169 C139 0.948 . S
H170 C141 0.947 . S
H171 C142 0.948 . S
H172 C148 0.982 . S
H173 C148 0.979 . S
H174 C148 0.977 . S
H175 C149 0.979 . S
H176 C149 0.980 . S
H177 C149 0.983 . S
H178 C122 0.947 . S
C179 C122 1.392 . S
C179 C123 1.419 1_556 S
C179 H161 0.948 . S
C180 C181 1.391 . S
C180 C184 1.391 . S
C180 H222 0.948 . S
C181 C180 1.391 . S
C181 C182 1.391 . S
C182 C181 1.391 . S
C182 H238 0.947 . S
C182 C239 1.392 . S
C183 C184 1.391 . S
C183 C187 1.397 . S
C183 C239 1.419 . S
C184 C180 1.391 . S
C184 C183 1.391 . S
C184 C185 1.399 . S
C185 C184 1.399 . S
C185 C188 1.396 . S
C185 C197 1.453 . S
C185 C198 1.684 . S
H186 C210 0.948 . S
C187 C183 1.397 . S
C187 C188 1.394 . S
C187 C206 1.723 . S
C188 C185 1.396 . S
C188 C187 1.394 . S
C188 C218 1.723 . S
H189 C212 0.947 . S
H190 C213 0.948 . S
H191 C219 0.982 . S
H192 C220 0.979 . S
H193 C220 0.980 . S
H194 C220 0.983 . S
H195 C219 0.979 . S
H196 C219 0.977 . S
C197 C185 1.453 . S
C197 H226 0.982 . S
C197 H227 0.979 . S
C197 H228 0.977 . S
C198 C185 1.684 . S
C198 H223 0.979 . S
C198 H224 0.980 . S
C198 H225 0.983 . S
C199 C200 1.391 . S
C199 C204 1.391 . S
C199 H229 0.948 . S
C200 C199 1.391 . S
C200 C201 1.391 . S
C201 C200 1.391 . S
C201 C202 1.392 . S
C201 H230 0.947 . S
C202 C201 1.392 . S
C202 C203 1.419 . S
C202 H231 0.948 . S
C203 C202 1.419 . S
C203 C204 1.391 . S
C203 C207 1.397 . S
C204 C199 1.391 . S
C204 C203 1.391 . S
C204 C205 1.399 . S
C205 C204 1.399 . S
C205 C206 1.396 . S
C205 C208 1.453 . S
C205 C209 1.684 . S
C206 C187 1.723 . S
C206 C205 1.396 . S
C206 C207 1.394 . S
C207 C203 1.397 . S
C207 C206 1.394 . S
C207 C217 1.723 . S
C208 C205 1.453 . S
C208 H232 0.982 . S
C208 H233 0.979 . S
C208 H234 0.977 . S
C209 C205 1.684 . S
C209 H235 0.979 . S
C209 H236 0.980 . S
C209 H237 0.983 . S
C210 H186 0.948 . S
C210 C211 1.391 . S
C210 C215 1.391 . S
C211 C210 1.391 . S
C211 C212 1.391 . S
C212 H189 0.947 . S
C212 C211 1.391 . S
C212 C213 1.392 . S
C213 H190 0.948 . S
C213 C212 1.392 . S
C213 C214 1.419 . S
C214 C213 1.419 . S
C214 C215 1.391 . S
C214 C218 1.397 . S
C215 C210 1.391 . S
C215 C214 1.391 . S
C215 C216 1.399 . S
C216 C215 1.399 . S
C216 C217 1.396 . S
C216 C219 1.453 . S
C216 C220 1.684 . S
C217 C207 1.723 . S
C217 C216 1.396 . S
C217 C218 1.394 . S
C218 C188 1.723 . S
C218 C214 1.397 . S
C218 C217 1.394 . S
C219 H191 0.982 . S
C219 H195 0.979 . S
C219 H196 0.977 . S
C219 C216 1.453 . S
C220 H192 0.979 . S
C220 H193 0.980 . S
C220 H194 0.983 . S
C220 C216 1.684 . S
H221 C239 0.948 . S
H222 C180 0.948 . S
H223 C198 0.979 . S
H224 C198 0.980 . S
H225 C198 0.983 . S
H226 C197 0.982 . S
H227 C197 0.979 . S
H228 C197 0.977 . S
H229 C199 0.948 . S
H230 C201 0.947 . S
H231 C202 0.948 . S
H232 C208 0.982 . S
H233 C208 0.979 . S
H234 C208 0.977 . S
H235 C209 0.979 . S
H236 C209 0.980 . S
H237 C209 0.983 . S
H238 C182 0.947 . S
C239 C182 1.392 . S
C239 C183 1.419 . S
C239 H221 0.948 . S
C240 C241 1.391 . S
C240 C244 1.391 . S
C240 H282 0.948 . S
C241 C240 1.391 . S
C241 C242 1.391 . S
C242 C241 1.391 . S
C242 H298 0.947 . S
C242 C299 1.392 . S
C243 C244 1.391 . S
C243 C247 1.397 . S
C243 C299 1.419 . S
C244 C240 1.391 . S
C244 C243 1.391 . S
C244 C245 1.399 . S
C245 C244 1.399 . S
C245 C248 1.396 . S
C245 C257 1.453 . S
C245 C258 1.684 . S
H246 C270 0.948 . S
C247 C243 1.397 . S
C247 C248 1.394 . S
C247 C266 1.723 . S
C248 C245 1.396 . S
C248 C247 1.394 . S
C248 C278 1.723 . S
H249 C272 0.947 . S
H250 C273 0.948 . S
H251 C279 0.982 . S
H252 C280 0.979 . S
H253 C280 0.980 . S
H254 C280 0.983 1_545 S
H255 C279 0.979 . S
H256 C279 0.977 . S
C257 C245 1.453 . S
C257 H286 0.982 . S
C257 H287 0.979 . S
C257 H288 0.977 . S
C258 C245 1.684 . S
C258 H283 0.979 . S
C258 H284 0.980 . S
C258 H285 0.983 . S
C259 C260 1.391 . S
C259 C264 1.391 1_655 S
C259 H289 0.948 . S
C260 C259 1.391 . S
C260 C261 1.391 1_655 S
C261 C260 1.391 1_455 S
C261 C262 1.392 . S
C261 H290 0.947 . S
C262 C261 1.392 . S
C262 C263 1.419 . S
C262 H291 0.948 . S
C263 C262 1.419 . S
C263 C264 1.391 . S
C263 C267 1.397 . S
C264 C259 1.391 1_455 S
C264 C263 1.391 . S
C264 C265 1.399 . S
C265 C264 1.399 . S
C265 C266 1.396 . S
C265 C268 1.453 1_455 S
C265 C269 1.684 . S
C266 C247 1.723 . S
C266 C265 1.396 . S
C266 C267 1.394 . S
C267 C263 1.397 . S
C267 C266 1.394 . S
C267 C277 1.723 . S
C268 C265 1.453 1_655 S
C268 H292 0.982 . S
C268 H293 0.979 . S
C268 H294 0.977 . S
C269 C265 1.684 . S
C269 H295 0.979 . S
C269 H296 0.980 . S
C269 H297 0.983 1_455 S
C270 H246 0.948 . S
C270 C271 1.391 . S
C270 C275 1.391 1_545 S
C271 C270 1.391 . S
C271 C272 1.391 1_545 S
C272 H249 0.947 . S
C272 C271 1.391 1_565 S
C272 C273 1.392 . S
C273 H250 0.948 . S
C273 C272 1.392 . S
C273 C274 1.419 . S
C274 C273 1.419 . S
C274 C275 1.391 . S
C274 C278 1.397 . S
C275 C270 1.391 1_565 S
C275 C274 1.391 . S
C275 C276 1.399 . S
C276 C275 1.399 . S
C276 C277 1.396 . S
C276 C279 1.453 1_565 S
C276 C280 1.684 . S
C277 C267 1.723 . S
C277 C276 1.396 . S
C277 C278 1.394 . S
C278 C248 1.723 . S
C278 C274 1.397 . S
C278 C277 1.394 . S
C279 H251 0.982 . S
C279 H255 0.979 . S
C279 H256 0.977 . S
C279 C276 1.453 1_545 S
C280 H252 0.979 . S
C280 H253 0.980 . S
C280 H254 0.983 1_565 S
C280 C276 1.684 . S
H281 C299 0.948 . S
H282 C240 0.948 . S
H283 C258 0.979 . S
H284 C258 0.980 . S
H285 C258 0.983 . S
H286 C257 0.982 . S
H287 C257 0.979 . S
H288 C257 0.977 . S
H289 C259 0.948 . S
H290 C261 0.947 . S
H291 C262 0.948 . S
H292 C268 0.982 . S
H293 C268 0.979 . S
H294 C268 0.977 . S
H295 C269 0.979 . S
H296 C269 0.980 . S
H297 C269 0.983 1_655 S
H298 C242 0.947 . S
C299 C242 1.392 . S
C299 C243 1.419 . S
C299 H281 0.948 . S
C300 C301 1.391 . S
C300 C304 1.391 . S
C300 H342 0.948 . S
C301 C300 1.391 . S
C301 C302 1.391 . S
C302 C301 1.391 . S
C302 H358 0.947 . S
C302 C359 1.392 . S
C303 C304 1.391 . S
C303 C307 1.397 . S
C303 C359 1.419 . S
C304 C300 1.391 . S
C304 C303 1.391 . S
C304 C305 1.399 . S
C305 C304 1.399 . S
C305 C308 1.396 . S
C305 C317 1.453 . S
C305 C318 1.684 . S
H306 C330 0.948 . S
C307 C303 1.397 . S
C307 C308 1.394 . S
C307 C326 1.723 . S
C308 C305 1.396 . S
C308 C307 1.394 . S
C308 C338 1.723 . S
H309 C332 0.947 . S
H310 C333 0.948 . S
H311 C339 0.982 . S
H312 C340 0.979 . S
H313 C340 0.980 . S
H314 C340 0.983 . S
H315 C339 0.979 . S
H316 C339 0.977 . S
C317 C305 1.453 . S
C317 H346 0.982 . S
C317 H347 0.979 . S
C317 H348 0.977 . S
C318 C305 1.684 . S
C318 H343 0.979 . S
C318 H344 0.980 . S
C318 H345 0.983 . S
C319 C320 1.391 . S
C319 C324 1.391 . S
C319 H349 0.948 . S
C320 C319 1.391 . S
C320 C321 1.391 . S
C321 C320 1.391 . S
C321 C322 1.392 . S
C321 H350 0.947 . S
C322 C321 1.392 . S
C322 C323 1.419 . S
C322 H351 0.948 . S
C323 C322 1.419 . S
C323 C324 1.391 . S
C323 C327 1.397 . S
C324 C319 1.391 . S
C324 C323 1.391 . S
C324 C325 1.399 . S
C325 C324 1.399 . S
C325 C326 1.396 . S
C325 C328 1.453 . S
C325 C329 1.684 . S
C326 C307 1.723 . S
C326 C325 1.396 . S
C326 C327 1.394 . S
C327 C323 1.397 . S
C327 C326 1.394 . S
C327 C337 1.723 . S
C328 C325 1.453 . S
C328 H352 0.982 . S
C328 H353 0.979 . S
C328 H354 0.977 . S
C329 C325 1.684 . S
C329 H355 0.979 . S
C329 H356 0.980 . S
C329 H357 0.983 . S
C330 H306 0.948 . S
C330 C331 1.391 . S
C330 C335 1.391 . S
C331 C330 1.391 . S
C331 C332 1.391 . S
C332 H309 0.947 . S
C332 C331 1.391 . S
C332 C333 1.392 . S
C333 H310 0.948 . S
C333 C332 1.392 . S
C333 C334 1.419 . S
C334 C333 1.419 . S
C334 C335 1.391 . S
C334 C338 1.397 . S
C335 C330 1.391 . S
C335 C334 1.391 . S
C335 C336 1.399 . S
C336 C335 1.399 . S
C336 C337 1.396 . S
C336 C339 1.453 . S
C336 C340 1.684 . S
C337 C327 1.723 . S
C337 C336 1.396 . S
C337 C338 1.394 . S
C338 C308 1.723 . S
C338 C334 1.397 . S
C338 C337 1.394 . S
C339 H311 0.982 . S
C339 H315 0.979 . S
C339 H316 0.977 . S
C339 C336 1.453 . S
C340 H312 0.979 . S
C340 H313 0.980 . S
C340 H314 0.983 . S
C340 C336 1.684 . S
H341 C359 0.948 . S
H342 C300 0.948 . S
H343 C318 0.979 . S
H344 C318 0.980 . S
H345 C318 0.983 . S
H346 C317 0.982 . S
H347 C317 0.979 . S
H348 C317 0.977 . S
H349 C319 0.948 . S
H350 C321 0.947 . S
H351 C322 0.948 . S
H352 C328 0.982 . S
H353 C328 0.979 . S
H354 C328 0.977 . S
H355 C329 0.979 . S
H356 C329 0.980 . S
H357 C329 0.983 . S
H358 C302 0.947 . S
C359 C302 1.392 . S
C359 C303 1.419 . S
C359 H341 0.948 . S
C360 C361 1.391 . S
C360 C364 1.391 . S
C360 H402 0.948 . S
C361 C360 1.391 . S
C361 C362 1.391 . S
C362 C361 1.391 . S
C362 H418 0.947 . S
C362 C419 1.392 . S
C363 C364 1.391 . S
C363 C367 1.397 . S
C363 C419 1.419 . S
C364 C360 1.391 . S
C364 C363 1.391 . S
C364 C365 1.399 . S
C365 C364 1.399 . S
C365 C368 1.396 . S
C365 C377 1.453 . S
C365 C378 1.684 . S
H366 C390 0.948 . S
C367 C363 1.397 . S
C367 C368 1.394 . S
C367 C386 1.723 . S
C368 C365 1.396 . S
C368 C367 1.394 . S
C368 C398 1.723 . S
H369 C392 0.947 . S
H370 C393 0.948 . S
H371 C399 0.982 . S
H372 C400 0.979 . S
H373 C400 0.980 . S
H374 C400 0.983 . S
H375 C399 0.979 . S
H376 C399 0.977 . S
C377 C365 1.453 . S
C377 H406 0.982 . S
C377 H407 0.979 . S
C377 H408 0.977 . S
C378 C365 1.684 . S
C378 H403 0.979 . S
C378 H404 0.980 . S
C378 H405 0.983 . S
C379 C380 1.391 1_655 S
C379 C384 1.391 . S
C379 H409 0.948 . S
C380 C379 1.391 1_455 S
C380 C381 1.391 . S
C381 C380 1.391 . S
C381 C382 1.392 . S
C381 H410 0.947 . S
C382 C381 1.392 . S
C382 C383 1.419 1_455 S
C382 H411 0.948 . S
C383 C382 1.419 1_655 S
C383 C384 1.391 . S
C383 C387 1.397 . S
C384 C379 1.391 . S
C384 C383 1.391 . S
C384 C385 1.399 . S
C385 C384 1.399 . S
C385 C386 1.396 . S
C385 C388 1.453 . S
C385 C389 1.684 . S
C386 C367 1.723 . S
C386 C385 1.396 . S
C386 C387 1.394 . S
C387 C383 1.397 . S
C387 C386 1.394 . S
C387 C397 1.723 . S
C388 C385 1.453 . S
C388 H412 0.982 . S
C388 H413 0.979 . S
C388 H414 0.977 . S
C389 C385 1.684 . S
C389 H415 0.979 . S
C389 H416 0.980 . S
C389 H417 0.983 . S
C390 H366 0.948 . S
C390 C391 1.391 . S
C390 C395 1.391 . S
C391 C390 1.391 . S
C391 C392 1.391 . S
C392 H369 0.947 . S
C392 C391 1.391 . S
C392 C393 1.392 . S
C393 H370 0.948 . S
C393 C392 1.392 . S
C393 C394 1.419 . S
C394 C393 1.419 . S
C394 C395 1.391 . S
C394 C398 1.397 . S
C395 C390 1.391 . S
C395 C394 1.391 . S
C395 C396 1.399 . S
C396 C395 1.399 . S
C396 C397 1.396 . S
C396 C399 1.453 . S
C396 C400 1.684 1_655 S
C397 C387 1.723 . S
C397 C396 1.396 . S
C397 C398 1.394 . S
C398 C368 1.723 . S
C398 C394 1.397 . S
C398 C397 1.394 . S
C399 H371 0.982 . S
C399 H375 0.979 . S
C399 H376 0.977 . S
C399 C396 1.453 . S
C400 H372 0.979 . S
C400 H373 0.980 . S
C400 H374 0.983 . S
C400 C396 1.684 1_455 S
H401 C419 0.948 . S
H402 C360 0.948 . S
H403 C378 0.979 . S
H404 C378 0.980 . S
H405 C378 0.983 . S
H406 C377 0.982 . S
H407 C377 0.979 . S
H408 C377 0.977 . S
H409 C379 0.948 . S
H410 C381 0.947 . S
H411 C382 0.948 . S
H412 C388 0.982 . S
H413 C388 0.979 . S
H414 C388 0.977 . S
H415 C389 0.979 . S
H416 C389 0.980 . S
H417 C389 0.983 . S
H418 C362 0.947 . S
C419 C362 1.392 . S
C419 C363 1.419 . S
C419 H401 0.948 . S
C420 C421 1.391 . S
C420 C424 1.391 . S
C420 H462 0.948 . S
C421 C420 1.391 . S
C421 C422 1.391 . S
C422 C421 1.391 . S
C422 H478 0.947 . S
C422 C479 1.392 . S
C423 C424 1.391 . S
C423 C427 1.397 . S
C423 C479 1.419 . S
C424 C420 1.391 . S
C424 C423 1.391 . S
C424 C425 1.399 . S
C425 C424 1.399 . S
C425 C428 1.396 . S
C425 C437 1.453 . S
C425 C438 1.684 . S
H426 C450 0.948 . S
C427 C423 1.397 . S
C427 C428 1.394 . S
C427 C446 1.723 . S
C428 C425 1.396 . S
C428 C427 1.394 . S
C428 C458 1.723 . S
H429 C452 0.947 . S
H430 C453 0.948 . S
H431 C459 0.982 . S
H432 C460 0.979 . S
H433 C460 0.980 . S
H434 C460 0.983 . S
H435 C459 0.979 . S
H436 C459 0.977 . S
C437 C425 1.453 . S
C437 H466 0.982 . S
C437 H467 0.979 . S
C437 H468 0.977 . S
C438 C425 1.684 . S
C438 H463 0.979 . S
C438 H464 0.980 . S
C438 H465 0.983 . S
C439 C440 1.391 . S
C439 C444 1.391 . S
C439 H469 0.948 . S
C440 C439 1.391 . S
C440 C441 1.391 . S
C441 C440 1.391 . S
C441 C442 1.392 . S
C441 H470 0.947 . S
C442 C441 1.392 . S
C442 C443 1.419 . S
C442 H471 0.948 . S
C443 C442 1.419 . S
C443 C444 1.391 . S
C443 C447 1.397 . S
C444 C439 1.391 . S
C444 C443 1.391 . S
C444 C445 1.399 . S
C445 C444 1.399 . S
C445 C446 1.396 . S
C445 C448 1.453 . S
C445 C449 1.684 . S
C446 C427 1.723 . S
C446 C445 1.396 . S
C446 C447 1.394 . S
C447 C443 1.397 . S
C447 C446 1.394 . S
C447 C457 1.723 . S
C448 C445 1.453 . S
C448 H472 0.982 . S
C448 H473 0.979 . S
C448 H474 0.977 . S
C449 C445 1.684 . S
C449 H475 0.979 . S
C449 H476 0.980 . S
C449 H477 0.983 . S
C450 H426 0.948 . S
C450 C451 1.391 . S
C450 C455 1.391 . S
C451 C450 1.391 . S
C451 C452 1.391 . S
C452 H429 0.947 . S
C452 C451 1.391 . S
C452 C453 1.392 . S
C453 H430 0.948 . S
C453 C452 1.392 . S
C453 C454 1.419 . S
C454 C453 1.419 . S
C454 C455 1.391 . S
C454 C458 1.397 . S
C455 C450 1.391 . S
C455 C454 1.391 . S
C455 C456 1.399 . S
C456 C455 1.399 . S
C456 C457 1.396 . S
C456 C459 1.453 . S
C456 C460 1.684 . S
C457 C447 1.723 . S
C457 C456 1.396 . S
C457 C458 1.394 . S
C458 C428 1.723 . S
C458 C454 1.397 . S
C458 C457 1.394 . S
C459 H431 0.982 . S
C459 H435 0.979 . S
C459 H436 0.977 . S
C459 C456 1.453 . S
C460 H432 0.979 . S
C460 H433 0.980 . S
C460 H434 0.983 . S
C460 C456 1.684 . S
H461 C479 0.948 . S
H462 C420 0.948 . S
H463 C438 0.979 . S
H464 C438 0.980 . S
H465 C438 0.983 . S
H466 C437 0.982 . S
H467 C437 0.979 . S
H468 C437 0.977 . S
H469 C439 0.948 . S
H470 C441 0.947 . S
H471 C442 0.948 . S
H472 C448 0.982 . S
H473 C448 0.979 . S
H474 C448 0.977 . S
H475 C449 0.979 . S
H476 C449 0.980 . S
H477 C449 0.983 . S
H478 C422 0.947 . S
C479 C422 1.392 . S
C479 C423 1.419 . S
C479 H461 0.948 . S
C480 C481 1.391 . S
C480 C484 1.391 . S
C480 H522 0.948 . S
C481 C480 1.391 . S
C481 C482 1.391 . S
C482 C481 1.391 . S
C482 H538 0.947 . S
C482 C539 1.392 . S
C483 C484 1.391 . S
C483 C487 1.397 . S
C483 C539 1.419 . S
C484 C480 1.391 . S
C484 C483 1.391 . S
C484 C485 1.399 . S
C485 C484 1.399 . S
C485 C488 1.396 . S
C485 C497 1.453 . S
C485 C498 1.684 . S
H486 C510 0.948 . S
C487 C483 1.397 . S
C487 C488 1.394 . S
C487 C506 1.723 . S
C488 C485 1.396 . S
C488 C487 1.394 . S
C488 C518 1.723 . S
H489 C512 0.947 . S
H490 C513 0.948 . S
H491 C519 0.982 . S
H492 C520 0.979 . S
H493 C520 0.980 . S
H494 C520 0.983 . S
H495 C519 0.979 . S
H496 C519 0.977 . S
C497 C485 1.453 . S
C497 H526 0.982 . S
C497 H527 0.979 . S
C497 H528 0.977 . S
C498 C485 1.684 . S
C498 H523 0.979 . S
C498 H524 0.980 . S
C498 H525 0.983 . S
C499 C500 1.391 . S
C499 C504 1.391 . S
C499 H529 0.948 . S
C500 C499 1.391 . S
C500 C501 1.391 . S
C501 C500 1.391 . S
C501 C502 1.392 . S
C501 H530 0.947 . S
C502 C501 1.392 . S
C502 C503 1.419 . S
C502 H531 0.948 . S
C503 C502 1.419 . S
C503 C504 1.391 . S
C503 C507 1.397 . S
C504 C499 1.391 . S
C504 C503 1.391 . S
C504 C505 1.399 . S
C505 C504 1.399 . S
C505 C506 1.396 . S
C505 C508 1.453 . S
C505 C509 1.684 . S
C506 C487 1.723 . S
C506 C505 1.396 . S
C506 C507 1.394 . S
C507 C503 1.397 . S
C507 C506 1.394 . S
C507 C517 1.723 . S
C508 C505 1.453 . S
C508 H532 0.982 . S
C508 H533 0.979 . S
C508 H534 0.977 . S
C509 C505 1.684 . S
C509 H535 0.979 . S
C509 H536 0.980 . S
C509 H537 0.983 . S
C510 H486 0.948 . S
C510 C511 1.391 . S
C510 C515 1.391 . S
C511 C510 1.391 . S
C511 C512 1.391 . S
C512 H489 0.947 . S
C512 C511 1.391 . S
C512 C513 1.392 . S
C513 H490 0.948 . S
C513 C512 1.392 . S
C513 C514 1.419 . S
C514 C513 1.419 . S
C514 C515 1.391 . S
C514 C518 1.397 . S
C515 C510 1.391 . S
C515 C514 1.391 . S
C515 C516 1.399 . S
C516 C515 1.399 . S
C516 C517 1.396 . S
C516 C519 1.453 . S
C516 C520 1.684 . S
C517 C507 1.723 . S
C517 C516 1.396 . S
C517 C518 1.394 . S
C518 C488 1.723 . S
C518 C514 1.397 . S
C518 C517 1.394 . S
C519 H491 0.982 . S
C519 H495 0.979 . S
C519 H496 0.977 . S
C519 C516 1.453 . S
C520 H492 0.979 . S
C520 H493 0.980 . S
C520 H494 0.983 . S
C520 C516 1.684 . S
H521 C539 0.948 . S
H522 C480 0.948 . S
H523 C498 0.979 . S
H524 C498 0.980 . S
H525 C498 0.983 . S
H526 C497 0.982 . S
H527 C497 0.979 . S
H528 C497 0.977 . S
H529 C499 0.948 . S
H530 C501 0.947 . S
H531 C502 0.948 . S
H532 C508 0.982 . S
H533 C508 0.979 . S
H534 C508 0.977 . S
H535 C509 0.979 . S
H536 C509 0.980 . S
H537 C509 0.983 . S
H538 C482 0.947 . S
C539 C482 1.392 . S
C539 C483 1.419 . S
C539 H521 0.948 . S
C540 C541 1.391 . S
C540 C544 1.391 . S
C540 H582 0.948 . S
C541 C540 1.391 . S
C541 C542 1.391 . S
C542 C541 1.391 . S
C542 H598 0.947 . S
C542 C599 1.392 . S
C543 C544 1.391 . S
C543 C547 1.397 . S
C543 C599 1.419 . S
C544 C540 1.391 . S
C544 C543 1.391 . S
C544 C545 1.399 . S
C545 C544 1.399 . S
C545 C548 1.396 . S
C545 C557 1.453 . S
C545 C558 1.684 . S
H546 C570 0.948 . S
C547 C543 1.397 . S
C547 C548 1.394 . S
C547 C566 1.723 . S
C548 C545 1.396 . S
C548 C547 1.394 . S
C548 C578 1.723 . S
H549 C572 0.947 . S
H550 C573 0.948 . S
H551 C579 0.982 . S
H552 C580 0.979 . S
H553 C580 0.980 . S
H554 C580 0.983 . S
H555 C579 0.979 . S
H556 C579 0.977 . S
C557 C545 1.453 . S
C557 H586 0.982 . S
C557 H587 0.979 . S
C557 H588 0.977 . S
C558 C545 1.684 . S
C558 H583 0.979 . S
C558 H584 0.980 . S
C558 H585 0.983 . S
C559 C560 1.391 1_565 S
C559 C564 1.391 . S
C559 H589 0.948 . S
C560 C559 1.391 1_545 S
C560 C561 1.391 . S
C561 C560 1.391 . S
C561 C562 1.392 . S
C561 H590 0.947 . S
C562 C561 1.392 . S
C562 C563 1.419 1_545 S
C562 H591 0.948 . S
C563 C562 1.419 1_565 S
C563 C564 1.391 . S
C563 C567 1.397 . S
C564 C559 1.391 . S
C564 C563 1.391 . S
C564 C565 1.399 . S
C565 C564 1.399 . S
C565 C566 1.396 . S
C565 C568 1.453 . S
C565 C569 1.684 . S
C566 C547 1.723 . S
C566 C565 1.396 . S
C566 C567 1.394 . S
C567 C563 1.397 . S
C567 C566 1.394 . S
C567 C577 1.723 . S
C568 C565 1.453 . S
C568 H592 0.982 . S
C568 H593 0.979 . S
C568 H594 0.977 . S
C569 C565 1.684 . S
C569 H595 0.979 . S
C569 H596 0.980 . S
C569 H597 0.983 . S
C570 H546 0.948 . S
C570 C571 1.391 . S
C570 C575 1.391 . S
C571 C570 1.391 . S
C571 C572 1.391 . S
C572 H549 0.947 . S
C572 C571 1.391 . S
C572 C573 1.392 . S
C573 H550 0.948 . S
C573 C572 1.392 . S
C573 C574 1.419 . S
C574 C573 1.419 . S
C574 C575 1.391 . S
C574 C578 1.397 . S
C575 C570 1.391 . S
C575 C574 1.391 . S
C575 C576 1.399 . S
C576 C575 1.399 . S
C576 C577 1.396 . S
C576 C579 1.453 . S
C576 C580 1.684 1_565 S
C577 C567 1.723 . S
C577 C576 1.396 . S
C577 C578 1.394 . S
C578 C548 1.723 . S
C578 C574 1.397 . S
C578 C577 1.394 . S
C579 H551 0.982 . S
C579 H555 0.979 . S
C579 H556 0.977 . S
C579 C576 1.453 . S
C580 H552 0.979 . S
C580 H553 0.980 . S
C580 H554 0.983 . S
C580 C576 1.684 1_545 S
H581 C599 0.948 . S
H582 C540 0.948 . S
H583 C558 0.979 . S
H584 C558 0.980 . S
H585 C558 0.983 . S
H586 C557 0.982 . S
H587 C557 0.979 . S
H588 C557 0.977 . S
H589 C559 0.948 . S
H590 C561 0.947 . S
H591 C562 0.948 . S
H592 C568 0.982 . S
H593 C568 0.979 . S
H594 C568 0.977 . S
H595 C569 0.979 . S
H596 C569 0.980 . S
H597 C569 0.983 . S
H598 C542 0.947 . S
C599 C542 1.392 . S
C599 C543 1.419 . S
C599 H581 0.948 . S
C600 C601 1.391 . S
C600 C604 1.391 . S
C600 H642 0.948 . S
C601 C600 1.391 . S
C601 C602 1.391 . S
C602 C601 1.391 . S
C602 H658 0.947 . S
C602 C659 1.392 . S
C603 C604 1.391 . S
C603 C607 1.397 . S
C603 C659 1.419 . S
C604 C600 1.391 . S
C604 C603 1.391 . S
C604 C605 1.399 . S
C605 C604 1.399 . S
C605 C608 1.396 . S
C605 C617 1.453 . S
C605 C618 1.684 . S
H606 C630 0.948 . S
C607 C603 1.397 . S
C607 C608 1.394 . S
C607 C626 1.723 . S
C608 C605 1.396 . S
C608 C607 1.394 . S
C608 C638 1.723 . S
H609 C632 0.947 . S
H610 C633 0.948 . S
H611 C639 0.982 . S
H612 C640 0.979 . S
H613 C640 0.980 . S
H614 C640 0.983 . S
H615 C639 0.979 . S
H616 C639 0.977 . S
C617 C605 1.453 . S
C617 H646 0.982 . S
C617 H647 0.979 . S
C617 H648 0.977 . S
C618 C605 1.684 . S
C618 H643 0.979 . S
C618 H644 0.980 . S
C618 H645 0.983 . S
C619 C620 1.391 . S
C619 C624 1.391 . S
C619 H649 0.948 . S
C620 C619 1.391 . S
C620 C621 1.391 . S
C621 C620 1.391 . S
C621 C622 1.392 . S
C621 H650 0.947 . S
C622 C621 1.392 . S
C622 C623 1.419 . S
C622 H651 0.948 . S
C623 C622 1.419 . S
C623 C624 1.391 . S
C623 C627 1.397 . S
C624 C619 1.391 . S
C624 C623 1.391 . S
C624 C625 1.399 . S
C625 C624 1.399 . S
C625 C626 1.396 . S
C625 C628 1.453 . S
C625 C629 1.684 . S
C626 C607 1.723 . S
C626 C625 1.396 . S
C626 C627 1.394 . S
C627 C623 1.397 . S
C627 C626 1.394 . S
C627 C637 1.723 . S
C628 C625 1.453 . S
C628 H652 0.982 . S
C628 H653 0.979 . S
C628 H654 0.977 . S
C629 C625 1.684 . S
C629 H655 0.979 . S
C629 H656 0.980 . S
C629 H657 0.983 . S
C630 H606 0.948 . S
C630 C631 1.391 . S
C630 C635 1.391 . S
C631 C630 1.391 . S
C631 C632 1.391 . S
C632 H609 0.947 . S
C632 C631 1.391 . S
C632 C633 1.392 . S
C633 H610 0.948 . S
C633 C632 1.392 . S
C633 C634 1.419 . S
C634 C633 1.419 . S
C634 C635 1.391 . S
C634 C638 1.397 . S
C635 C630 1.391 . S
C635 C634 1.391 . S
C635 C636 1.399 . S
C636 C635 1.399 . S
C636 C637 1.396 . S
C636 C639 1.453 . S
C636 C640 1.684 . S
C637 C627 1.723 . S
C637 C636 1.396 . S
C637 C638 1.394 . S
C638 C608 1.723 . S
C638 C634 1.397 . S
C638 C637 1.394 . S
C639 H611 0.982 . S
C639 H615 0.979 . S
C639 H616 0.977 . S
C639 C636 1.453 . S
C640 H612 0.979 . S
C640 H613 0.980 . S
C640 H614 0.983 . S
C640 C636 1.684 . S
H641 C659 0.948 . S
H642 C600 0.948 . S
H643 C618 0.979 . S
H644 C618 0.980 . S
H645 C618 0.983 . S
H646 C617 0.982 . S
H647 C617 0.979 . S
H648 C617 0.977 . S
H649 C619 0.948 . S
H650 C621 0.947 . S
H651 C622 0.948 . S
H652 C628 0.982 . S
H653 C628 0.979 . S
H654 C628 0.977 . S
H655 C629 0.979 . S
H656 C629 0.980 . S
H657 C629 0.983 . S
H658 C602 0.947 . S
C659 C602 1.392 . S
C659 C603 1.419 . S
C659 H641 0.948 . S
C660 C661 1.391 . S
C660 C664 1.391 . S
C660 H702 0.948 . S
C661 C660 1.391 . S
C661 C662 1.391 . S
C662 C661 1.391 . S
C662 H718 0.947 . S
C662 C719 1.392 . S
C663 C664 1.391 . S
C663 C667 1.397 . S
C663 C719 1.419 . S
C664 C660 1.391 . S
C664 C663 1.391 . S
C664 C665 1.399 . S
C665 C664 1.399 . S
C665 C668 1.396 . S
C665 C677 1.453 . S
C665 C678 1.684 . S
H666 C690 0.948 . S
C667 C663 1.397 . S
C667 C668 1.394 . S
C667 C686 1.723 . S
C668 C665 1.396 . S
C668 C667 1.394 . S
C668 C698 1.723 . S
H669 C692 0.947 . S
H670 C693 0.948 . S
H671 C699 0.982 . S
H672 C700 0.979 . S
H673 C700 0.980 . S
H674 C700 0.983 . S
H675 C699 0.979 . S
H676 C699 0.977 . S
C677 C665 1.453 . S
C677 H706 0.982 . S
C677 H707 0.979 . S
C677 H708 0.977 . S
C678 C665 1.684 . S
C678 H703 0.979 . S
C678 H704 0.980 . S
C678 H705 0.983 . S
C679 C680 1.391 . S
C679 C684 1.391 . S
C679 H709 0.948 . S
C680 C679 1.391 . S
C680 C681 1.391 . S
C681 C680 1.391 . S
C681 C682 1.392 . S
C681 H710 0.947 . S
C682 C681 1.392 . S
C682 C683 1.419 . S
C682 H711 0.948 . S
C683 C682 1.419 . S
C683 C684 1.391 . S
C683 C687 1.397 . S
C684 C679 1.391 . S
C684 C683 1.391 . S
C684 C685 1.399 . S
C685 C684 1.399 . S
C685 C686 1.396 . S
C685 C688 1.453 . S
C685 C689 1.684 . S
C686 C667 1.723 . S
C686 C685 1.396 . S
C686 C687 1.394 . S
C687 C683 1.397 . S
C687 C686 1.394 . S
C687 C697 1.723 . S
C688 C685 1.453 . S
C688 H712 0.982 . S
C688 H713 0.979 . S
C688 H714 0.977 . S
C689 C685 1.684 . S
C689 H715 0.979 . S
C689 H716 0.980 . S
C689 H717 0.983 . S
C690 H666 0.948 . S
C690 C691 1.391 . S
C690 C695 1.391 . S
C691 C690 1.391 . S
C691 C692 1.391 . S
C692 H669 0.947 . S
C692 C691 1.391 . S
C692 C693 1.392 . S
C693 H670 0.948 . S
C693 C692 1.392 . S
C693 C694 1.419 . S
C694 C693 1.419 . S
C694 C695 1.391 . S
C694 C698 1.397 . S
C695 C690 1.391 . S
C695 C694 1.391 . S
C695 C696 1.399 . S
C696 C695 1.399 . S
C696 C697 1.396 . S
C696 C699 1.453 . S
C696 C700 1.684 . S
C697 C687 1.723 . S
C697 C696 1.396 . S
C697 C698 1.394 . S
C698 C668 1.723 . S
C698 C694 1.397 . S
C698 C697 1.394 . S
C699 H671 0.982 . S
C699 H675 0.979 . S
C699 H676 0.977 . S
C699 C696 1.453 . S
C700 H672 0.979 . S
C700 H673 0.980 . S
C700 H674 0.983 . S
C700 C696 1.684 . S
H701 C719 0.948 . S
H702 C660 0.948 . S
H703 C678 0.979 . S
H704 C678 0.980 . S
H705 C678 0.983 . S
H706 C677 0.982 . S
H707 C677 0.979 . S
H708 C677 0.977 . S
H709 C679 0.948 . S
H710 C681 0.947 . S
H711 C682 0.948 . S
H712 C688 0.982 . S
H713 C688 0.979 . S
H714 C688 0.977 . S
H715 C689 0.979 . S
H716 C689 0.980 . S
H717 C689 0.983 . S
H718 C662 0.947 . S
C719 C662 1.392 . S
C719 C663 1.419 . S
C719 H701 0.948 . S
C720 C721 1.391 . S
C720 C724 1.391 . S
C720 H762 0.948 . S
C721 C720 1.391 . S
C721 C722 1.391 . S
C722 C721 1.391 . S
C722 H778 0.947 . S
C722 C779 1.392 . S
C723 C724 1.391 . S
C723 C727 1.397 . S
C723 C779 1.419 . S
C724 C720 1.391 . S
C724 C723 1.391 . S
C724 C725 1.399 . S
C725 C724 1.399 . S
C725 C728 1.396 . S
C725 C737 1.453 . S
C725 C738 1.684 . S
H726 C750 0.948 . S
C727 C723 1.397 . S
C727 C728 1.394 . S
C727 C746 1.723 . S
C728 C725 1.396 . S
C728 C727 1.394 . S
C728 C758 1.723 . S
H729 C752 0.947 . S
H730 C753 0.948 . S
H731 C759 0.982 . S
H732 C760 0.979 . S
H733 C760 0.980 . S
H734 C760 0.983 . S
H735 C759 0.979 . S
H736 C759 0.977 . S
C737 C725 1.453 . S
C737 H766 0.982 . S
C737 H767 0.979 . S
C737 H768 0.977 . S
C738 C725 1.684 . S
C738 H763 0.979 . S
C738 H764 0.980 . S
C738 H765 0.983 . S
C739 C740 1.391 . S
C739 C744 1.391 . S
C739 H769 0.948 . S
C740 C739 1.391 . S
C740 C741 1.391 . S
C741 C740 1.391 . S
C741 C742 1.392 . S
C741 H770 0.947 . S
C742 C741 1.392 . S
C742 C743 1.419 . S
C742 H771 0.948 . S
C743 C742 1.419 . S
C743 C744 1.391 . S
C743 C747 1.397 . S
C744 C739 1.391 . S
C744 C743 1.391 . S
C744 C745 1.399 . S
C745 C744 1.399 . S
C745 C746 1.396 . S
C745 C748 1.453 . S
C745 C749 1.684 . S
C746 C727 1.723 . S
C746 C745 1.396 . S
C746 C747 1.394 . S
C747 C743 1.397 . S
C747 C746 1.394 . S
C747 C757 1.723 . S
C748 C745 1.453 . S
C748 H772 0.982 . S
C748 H773 0.979 . S
C748 H774 0.977 . S
C749 C745 1.684 . S
C749 H775 0.979 . S
C749 H776 0.980 . S
C749 H777 0.983 . S
C750 H726 0.948 . S
C750 C751 1.391 . S
C750 C755 1.391 . S
C751 C750 1.391 . S
C751 C752 1.391 . S
C752 H729 0.947 . S
C752 C751 1.391 . S
C752 C753 1.392 . S
C753 H730 0.948 . S
C753 C752 1.392 . S
C753 C754 1.419 . S
C754 C753 1.419 . S
C754 C755 1.391 . S
C754 C758 1.397 . S
C755 C750 1.391 . S
C755 C754 1.391 . S
C755 C756 1.399 . S
C756 C755 1.399 . S
C756 C757 1.396 . S
C756 C759 1.453 . S
C756 C760 1.684 . S
C757 C747 1.723 . S
C757 C756 1.396 . S
C757 C758 1.394 . S
C758 C728 1.723 . S
C758 C754 1.397 . S
C758 C757 1.394 . S
C759 H731 0.982 . S
C759 H735 0.979 . S
C759 H736 0.977 . S
C759 C756 1.453 . S
C760 H732 0.979 . S
C760 H733 0.980 . S
C760 H734 0.983 . S
C760 C756 1.684 . S
H761 C779 0.948 . S
H762 C720 0.948 . S
H763 C738 0.979 . S
H764 C738 0.980 . S
H765 C738 0.983 . S
H766 C737 0.982 . S
H767 C737 0.979 . S
H768 C737 0.977 . S
H769 C739 0.948 . S
H770 C741 0.947 . S
H771 C742 0.948 . S
H772 C748 0.982 . S
H773 C748 0.979 . S
H774 C748 0.977 . S
H775 C749 0.979 . S
H776 C749 0.980 . S
H777 C749 0.983 . S
H778 C722 0.947 . S
C779 C722 1.392 . S
C779 C723 1.419 . S
C779 H761 0.948 . S
C780 C781 1.391 . S
C780 C784 1.391 1_554 S
C780 H822 0.948 . S
C781 C780 1.391 . S
C781 C782 1.391 1_554 S
C782 C781 1.391 1_556 S
C782 H838 0.947 . S
C782 C839 1.392 . S
C783 C784 1.391 . S
C783 C787 1.397 . S
C783 C839 1.419 . S
C784 C780 1.391 1_556 S
C784 C783 1.391 . S
C784 C785 1.399 . S
C785 C784 1.399 . S
C785 C788 1.396 . S
C785 C797 1.453 1_556 S
C785 C798 1.684 . S
H786 C810 0.948 . S
C787 C783 1.397 . S
C787 C788 1.394 . S
C787 C806 1.723 . S
C788 C785 1.396 . S
C788 C787 1.394 . S
C788 C818 1.723 . S
H789 C812 0.947 . S
H790 C813 0.948 . S
H791 C819 0.982 . S
H792 C820 0.979 . S
H793 C820 0.980 . S
H794 C820 0.983 . S
H795 C819 0.979 . S
H796 C819 0.977 . S
C797 C785 1.453 1_554 S
C797 H826 0.982 . S
C797 H827 0.979 . S
C797 H828 0.977 . S
C798 C785 1.684 . S
C798 H823 0.979 . S
C798 H824 0.980 . S
C798 H825 0.983 1_556 S
C799 C800 1.391 . S
C799 C804 1.391 . S
C799 H829 0.948 . S
C800 C799 1.391 . S
C800 C801 1.391 . S
C801 C800 1.391 . S
C801 C802 1.392 . S
C801 H830 0.947 . S
C802 C801 1.392 . S
C802 C803 1.419 . S
C802 H831 0.948 . S
C803 C802 1.419 . S
C803 C804 1.391 . S
C803 C807 1.397 . S
C804 C799 1.391 . S
C804 C803 1.391 . S
C804 C805 1.399 . S
C805 C804 1.399 . S
C805 C806 1.396 . S
C805 C808 1.453 . S
C805 C809 1.684 . S
C806 C787 1.723 . S
C806 C805 1.396 . S
C806 C807 1.394 . S
C807 C803 1.397 . S
C807 C806 1.394 . S
C807 C817 1.723 . S
C808 C805 1.453 . S
C808 H832 0.982 . S
C808 H833 0.979 . S
C808 H834 0.977 . S
C809 C805 1.684 . S
C809 H835 0.979 . S
C809 H836 0.980 . S
C809 H837 0.983 . S
C810 H786 0.948 . S
C810 C811 1.391 . S
C810 C815 1.391 . S
C811 C810 1.391 . S
C811 C812 1.391 . S
C812 H789 0.947 . S
C812 C811 1.391 . S
C812 C813 1.392 . S
C813 H790 0.948 . S
C813 C812 1.392 . S
C813 C814 1.419 . S
C814 C813 1.419 . S
C814 C815 1.391 . S
C814 C818 1.397 . S
C815 C810 1.391 . S
C815 C814 1.391 . S
C815 C816 1.399 . S
C816 C815 1.399 . S
C816 C817 1.396 . S
C816 C819 1.453 . S
C816 C820 1.684 . S
C817 C807 1.723 . S
C817 C816 1.396 . S
C817 C818 1.394 . S
C818 C788 1.723 . S
C818 C814 1.397 . S
C818 C817 1.394 . S
C819 H791 0.982 . S
C819 H795 0.979 . S
C819 H796 0.977 . S
C819 C816 1.453 . S
C820 H792 0.979 . S
C820 H793 0.980 . S
C820 H794 0.983 . S
C820 C816 1.684 . S
H821 C839 0.948 . S
H822 C780 0.948 . S
H823 C798 0.979 . S
H824 C798 0.980 . S
H825 C798 0.983 1_554 S
H826 C797 0.982 . S
H827 C797 0.979 . S
H828 C797 0.977 . S
H829 C799 0.948 . S
H830 C801 0.947 . S
H831 C802 0.948 . S
H832 C808 0.982 . S
H833 C808 0.979 . S
H834 C808 0.977 . S
H835 C809 0.979 . S
H836 C809 0.980 . S
H837 C809 0.983 . S
H838 C782 0.947 . S
C839 C782 1.392 . S
C839 C783 1.419 . S
C839 H821 0.948 . S
C840 C841 1.391 . S
C840 C844 1.391 . S
C840 H882 0.948 . S
C841 C840 1.391 . S
C841 C842 1.391 . S
C842 C841 1.391 . S
C842 H898 0.947 . S
C842 C899 1.392 . S
C843 C844 1.391 . S
C843 C847 1.397 . S
C843 C899 1.419 . S
C844 C840 1.391 . S
C844 C843 1.391 . S
C844 C845 1.399 . S
C845 C844 1.399 . S
C845 C848 1.396 . S
C845 C857 1.453 . S
C845 C858 1.684 . S
H846 C870 0.948 . S
C847 C843 1.397 . S
C847 C848 1.394 . S
C847 C866 1.723 . S
C848 C845 1.396 . S
C848 C847 1.394 . S
C848 C878 1.723 . S
H849 C872 0.947 . S
H850 C873 0.948 . S
H851 C879 0.982 . S
H852 C880 0.979 . S
H853 C880 0.980 . S
H854 C880 0.983 . S
H855 C879 0.979 . S
H856 C879 0.977 . S
C857 C845 1.453 . S
C857 H886 0.982 . S
C857 H887 0.979 . S
C857 H888 0.977 . S
C858 C845 1.684 . S
C858 H883 0.979 . S
C858 H884 0.980 . S
C858 H885 0.983 . S
C859 C860 1.391 . S
C859 C864 1.391 . S
C859 H889 0.948 . S
C860 C859 1.391 . S
C860 C861 1.391 . S
C861 C860 1.391 . S
C861 C862 1.392 . S
C861 H890 0.947 . S
C862 C861 1.392 . S
C862 C863 1.419 . S
C862 H891 0.948 . S
C863 C862 1.419 . S
C863 C864 1.391 . S
C863 C867 1.397 . S
C864 C859 1.391 . S
C864 C863 1.391 . S
C864 C865 1.399 . S
C865 C864 1.399 . S
C865 C866 1.396 . S
C865 C868 1.453 . S
C865 C869 1.684 . S
C866 C847 1.723 . S
C866 C865 1.396 . S
C866 C867 1.394 . S
C867 C863 1.397 . S
C867 C866 1.394 . S
C867 C877 1.723 . S
C868 C865 1.453 . S
C868 H892 0.982 . S
C868 H893 0.979 . S
C868 H894 0.977 . S
C869 C865 1.684 . S
C869 H895 0.979 . S
C869 H896 0.980 . S
C869 H897 0.983 . S
C870 H846 0.948 . S
C870 C871 1.391 . S
C870 C875 1.391 . S
C871 C870 1.391 . S
C871 C872 1.391 . S
C872 H849 0.947 . S
C872 C871 1.391 . S
C872 C873 1.392 . S
C873 H850 0.948 . S
C873 C872 1.392 . S
C873 C874 1.419 . S
C874 C873 1.419 . S
C874 C875 1.391 . S
C874 C878 1.397 . S
C875 C870 1.391 . S
C875 C874 1.391 . S
C875 C876 1.399 . S
C876 C875 1.399 . S
C876 C877 1.396 . S
C876 C879 1.453 . S
C876 C880 1.684 . S
C877 C867 1.723 . S
C877 C876 1.396 . S
C877 C878 1.394 . S
C878 C848 1.723 . S
C878 C874 1.397 . S
C878 C877 1.394 . S
C879 H851 0.982 . S
C879 H855 0.979 . S
C879 H856 0.977 . S
C879 C876 1.453 . S
C880 H852 0.979 . S
C880 H853 0.980 . S
C880 H854 0.983 . S
C880 C876 1.684 . S
H881 C899 0.948 . S
H882 C840 0.948 . S
H883 C858 0.979 . S
H884 C858 0.980 . S
H885 C858 0.983 . S
H886 C857 0.982 . S
H887 C857 0.979 . S
H888 C857 0.977 . S
H889 C859 0.948 . S
H890 C861 0.947 . S
H891 C862 0.948 . S
H892 C868 0.982 . S
H893 C868 0.979 . S
H894 C868 0.977 . S
H895 C869 0.979 . S
H896 C869 0.980 . S
H897 C869 0.983 . S
H898 C842 0.947 . S
C899 C842 1.392 . S
C899 C843 1.419 . S
C899 H881 0.948 . S
C900 C901 1.391 1_545 S
C900 C904 1.391 . S
C900 H942 0.948 . S
C901 C900 1.391 1_565 S
C901 C902 1.391 . S
C902 C901 1.391 . S
C902 H958 0.947 . S
C902 C959 1.392 . S
C903 C904 1.391 . S
C903 C907 1.397 . S
C903 C959 1.419 1_545 S
C904 C900 1.391 . S
C904 C903 1.391 . S
C904 C905 1.399 . S
C905 C904 1.399 . S
C905 C908 1.396 . S
C905 C917 1.453 . S
C905 C918 1.684 1_556 S
H906 C930 0.948 . S
C907 C903 1.397 . S
C907 C908 1.394 . S
C907 C926 1.723 . S
C908 C905 1.396 . S
C908 C907 1.394 . S
C908 C938 1.723 . S
H909 C932 0.947 . S
H910 C933 0.948 . S
H911 C939 0.982 . S
H912 C940 0.979 . S
H913 C940 0.980 . S
H914 C940 0.983 . S
H915 C939 0.979 . S
H916 C939 0.977 . S
C917 C905 1.453 . S
C917 H946 0.982 . S
C917 H947 0.979 . S
C917 H948 0.977 . S
C918 C905 1.684 1_554 S
C918 H943 0.979 . S
C918 H944 0.980 . S
C918 H945 0.983 . S
C919 C920 1.391 . S
C919 C924 1.391 . S
C919 H949 0.948 . S
C920 C919 1.391 . S
C920 C921 1.391 . S
C921 C920 1.391 . S
C921 C922 1.392 . S
C921 H950 0.947 . S
C922 C921 1.392 . S
C922 C923 1.419 . S
C922 H951 0.948 . S
C923 C922 1.419 . S
C923 C924 1.391 . S
C923 C927 1.397 . S
C924 C919 1.391 . S
C924 C923 1.391 . S
C924 C925 1.399 . S
C925 C924 1.399 . S
C925 C926 1.396 . S
C925 C928 1.453 . S
C925 C929 1.684 1_545 S
C926 C907 1.723 . S
C926 C925 1.396 . S
C926 C927 1.394 . S
C927 C923 1.397 . S
C927 C926 1.394 . S
C927 C937 1.723 . S
C928 C925 1.453 . S
C928 H952 0.982 . S
C928 H953 0.979 . S
C928 H954 0.977 . S
C929 C925 1.684 1_565 S
C929 H955 0.979 . S
C929 H956 0.980 . S
C929 H957 0.983 . S
C930 H906 0.948 . S
C930 C931 1.391 1_556 S
C930 C935 1.391 . S
C931 C930 1.391 1_554 S
C931 C932 1.391 . S
C932 H909 0.947 . S
C932 C931 1.391 . S
C932 C933 1.392 . S
C933 H910 0.948 . S
C933 C932 1.392 . S
C933 C934 1.419 1_554 S
C934 C933 1.419 1_556 S
C934 C935 1.391 . S
C934 C938 1.397 . S
C935 C930 1.391 . S
C935 C934 1.391 . S
C935 C936 1.399 . S
C936 C935 1.399 . S
C936 C937 1.396 . S
C936 C939 1.453 . S
C936 C940 1.684 . S
C937 C927 1.723 . S
C937 C936 1.396 . S
C937 C938 1.394 . S
C938 C908 1.723 . S
C938 C934 1.397 . S
C938 C937 1.394 . S
C939 H911 0.982 . S
C939 H915 0.979 . S
C939 H916 0.977 . S
C939 C936 1.453 . S
C940 H912 0.979 . S
C940 H913 0.980 . S
C940 H914 0.983 . S
C940 C936 1.684 . S
H941 C959 0.948 . S
H942 C900 0.948 . S
H943 C918 0.979 . S
H944 C918 0.980 . S
H945 C918 0.983 . S
H946 C917 0.982 . S
H947 C917 0.979 . S
H948 C917 0.977 . S
H949 C919 0.948 . S
H950 C921 0.947 . S
H951 C922 0.948 . S
H952 C928 0.982 . S
H953 C928 0.979 . S
H954 C928 0.977 . S
H955 C929 0.979 . S
H956 C929 0.980 . S
H957 C929 0.983 . S
H958 C902 0.947 . S
C959 C902 1.392 . S
C959 C903 1.419 1_565 S
C959 H941 0.948 . S
Li960 N977 1.990 . S
Li960 O1020 1.956 . S
Li960 O1021 1.970 1_556 S
Li960 O1022 1.961 . S
Li961 N985 1.990 . S
Li961 O1020 1.970 1_554 S
Li961 O1021 1.956 . S
Li961 O1023 1.961 . S
Li962 N1007 1.990 . S
Li962 O1020 1.961 . S
Li962 O1022 1.956 . S
Li962 O1023 1.970 1_556 S
Li963 N1013 1.990 . S
Li963 O1021 1.961 . S
Li963 O1022 1.970 1_554 S
Li963 O1023 1.956 . S
C964 C966 1.348 1_556 S
C964 C967 1.356 . S
C964 O1020 1.325 . S
N965 C968 1.314 1_556 S
N965 C969 1.279 . S
C966 C964 1.348 1_554 S
C966 C968 1.353 . S
C966 H1024 0.929 . S
C967 C964 1.356 . S
C967 C969 1.358 . S
C967 H1025 0.930 . S
C968 N965 1.314 1_554 S
C968 C966 1.353 . S
C968 H1026 0.930 . S
C969 N965 1.279 . S
C969 C967 1.358 . S
C969 H1027 0.930 . S
C970 C973 1.348 . S
C970 C974 1.356 . S
C970 O1021 1.325 . S
C971 N972 1.279 . S
C971 C974 1.358 . S
C971 H1028 0.930 . S
N972 C971 1.279 . S
N972 C975 1.314 . S
C973 C970 1.348 . S
C973 C975 1.353 . S
C973 H1029 0.929 . S
C974 C970 1.356 . S
C974 C971 1.358 . S
C974 H1030 0.930 . S
C975 N972 1.314 . S
C975 C973 1.353 . S
C975 H1031 0.930 . S
C976 N977 1.314 . S
C976 C981 1.353 . S
C976 H982 0.930 . S
N977 Li960 1.990 . S
N977 C976 1.314 . S
N977 C979 1.279 . S
C978 C979 1.358 . S
C978 C980 1.356 . S
C978 H1032 0.930 . S
C979 N977 1.279 . S
C979 C978 1.358 . S
C979 H983 0.930 . S
C980 C978 1.356 . S
C980 C981 1.348 . S
C981 C976 1.353 . S
C981 C980 1.348 . S
C981 H1033 0.929 . S
H982 C976 0.930 . S
H983 C979 0.930 . S
C984 N985 1.314 . S
C984 C986 1.353 . S
C984 H990 0.930 . S
N985 Li961 1.990 . S
N985 C984 1.314 . S
N985 C988 1.279 . S
C986 C984 1.353 . S
C986 C989 1.348 . S
C986 H1034 0.929 . S
C987 C988 1.358 . S
C987 C989 1.356 . S
C987 H1035 0.930 . S
C988 N985 1.279 . S
C988 C987 1.358 . S
C988 H991 0.930 . S
C989 C986 1.348 . S
C989 C987 1.356 . S
H990 C984 0.930 . S
H991 C988 0.930 . S
C992 C994 1.348 . S
C992 C995 1.356 . S
C992 O1022 1.325 . S
N993 C996 1.314 . S
N993 C997 1.279 . S
C994 C992 1.348 . S
C994 C996 1.353 . S
C994 H1036 0.929 . S
C995 C992 1.356 . S
C995 C997 1.358 . S
C995 H1037 0.930 . S
C996 N993 1.314 . S
C996 C994 1.353 . S
C996 H1038 0.930 . S
C997 N993 1.279 . S
C997 C995 1.358 . S
C997 H1039 0.930 . S
C998 C999 1.348 1_554 S
C998 C1000 1.356 . S
C998 O1023 1.325 . S
C999 C998 1.348 1_556 S
C999 C1001 1.353 . S
C999 H1040 0.929 . S
C1000 C998 1.356 . S
C1000 C1002 1.358 . S
C1000 H1041 0.930 . S
C1001 C999 1.353 . S
C1001 N1003 1.314 1_556 S
C1001 H1042 0.930 . S
C1002 C1000 1.358 . S
C1002 N1003 1.279 . S
C1002 H1043 0.930 . S
N1003 C1001 1.314 1_554 S
N1003 C1002 1.279 . S
C1004 C1006 1.353 . S
C1004 N1007 1.314 . S
C1004 H1010 0.930 . S
C1005 N1007 1.279 . S
C1005 C1008 1.358 . S
C1005 H1011 0.930 . S
C1006 C1004 1.353 . S
C1006 C1009 1.348 . S
C1006 H1044 0.929 . S
N1007 Li962 1.990 . S
N1007 C1004 1.314 . S
N1007 C1005 1.279 . S
C1008 C1005 1.358 . S
C1008 C1009 1.356 . S
C1008 H1045 0.930 . S
C1009 C1006 1.348 . S
C1009 C1008 1.356 . S
H1010 C1004 0.930 . S
H1011 C1005 0.930 . S
C1012 N1013 1.314 . S
C1012 C1014 1.353 . S
C1012 H1018 0.930 . S
N1013 Li963 1.990 . S
N1013 C1012 1.314 . S
N1013 C1016 1.279 . S
C1014 C1012 1.353 . S
C1014 C1017 1.348 . S
C1014 H1046 0.929 . S
C1015 C1016 1.358 . S
C1015 C1017 1.356 . S
C1015 H1047 0.930 . S
C1016 N1013 1.279 . S
C1016 C1015 1.358 . S
C1016 H1019 0.930 . S
C1017 C1014 1.348 . S
C1017 C1015 1.356 . S
H1018 C1012 0.930 . S
H1019 C1016 0.930 . S
O1020 Li960 1.956 . S
O1020 Li961 1.970 1_556 S
O1020 Li962 1.961 . S
O1020 C964 1.325 . S
O1021 Li960 1.970 1_554 S
O1021 Li961 1.956 . S
O1021 Li963 1.961 . S
O1021 C970 1.325 . S
O1022 Li960 1.961 . S
O1022 Li962 1.956 . S
O1022 Li963 1.970 1_556 S
O1022 C992 1.325 . S
O1023 Li961 1.961 . S
O1023 Li962 1.970 1_554 S
O1023 Li963 1.956 . S
O1023 C998 1.325 . S
H1024 C966 0.929 . S
H1025 C967 0.930 . S
H1026 C968 0.930 . S
H1027 C969 0.930 . S
H1028 C971 0.930 . S
H1029 C973 0.929 . S
H1030 C974 0.930 . S
H1031 C975 0.930 . S
H1032 C978 0.930 . S
H1033 C981 0.929 . S
H1034 C986 0.929 . S
H1035 C987 0.930 . S
H1036 C994 0.929 . S
H1037 C995 0.930 . S
H1038 C996 0.930 . S
H1039 C997 0.930 . S
H1040 C999 0.929 . S
H1041 C1000 0.930 . S
H1042 C1001 0.930 . S
H1043 C1002 0.930 . S
H1044 C1006 0.929 . S
H1045 C1008 0.930 . S
H1046 C1014 0.929 . S
H1047 C1015 0.930 . S
Li1048 N1065 1.990 . S
Li1048 O1108 1.956 . S
Li1048 O1109 1.970 . S
Li1048 O1110 1.961 . S
Li1049 N1073 1.990 . S
Li1049 O1108 1.970 . S
Li1049 O1109 1.956 . S
Li1049 O1111 1.961 . S
Li1050 N1095 1.990 . S
Li1050 O1108 1.961 . S
Li1050 O1110 1.956 . S
Li1050 O1111 1.970 . S
Li1051 N1101 1.990 . S
Li1051 O1109 1.961 . S
Li1051 O1110 1.970 . S
Li1051 O1111 1.956 . S
C1052 C1054 1.348 . S
C1052 C1055 1.356 . S
C1052 O1108 1.325 . S
N1053 C1056 1.314 . S
N1053 C1057 1.279 . S
C1054 C1052 1.348 . S
C1054 C1056 1.353 . S
C1054 H1112 0.929 . S
C1055 C1052 1.356 . S
C1055 C1057 1.358 . S
C1055 H1113 0.930 . S
C1056 N1053 1.314 . S
C1056 C1054 1.353 . S
C1056 H1114 0.930 . S
C1057 N1053 1.279 . S
C1057 C1055 1.358 . S
C1057 H1115 0.930 . S
C1058 C1061 1.348 . S
C1058 C1062 1.356 . S
C1058 O1109 1.325 . S
C1059 N1060 1.279 . S
C1059 C1062 1.358 . S
C1059 H1116 0.930 . S
N1060 C1059 1.279 . S
N1060 C1063 1.314 . S
C1061 C1058 1.348 . S
C1061 C1063 1.353 . S
C1061 H1117 0.929 . S
C1062 C1058 1.356 . S
C1062 C1059 1.358 . S
C1062 H1118 0.930 . S
C1063 N1060 1.314 . S
C1063 C1061 1.353 . S
C1063 H1119 0.930 . S
C1064 N1065 1.314 . S
C1064 C1069 1.353 . S
C1064 H1070 0.930 . S
N1065 Li1048 1.990 . S
N1065 C1064 1.314 . S
N1065 C1067 1.279 . S
C1066 C1067 1.358 . S
C1066 C1068 1.356 . S
C1066 H1120 0.930 . S
C1067 N1065 1.279 . S
C1067 C1066 1.358 . S
C1067 H1071 0.930 . S
C1068 C1066 1.356 . S
C1068 C1069 1.348 . S
C1069 C1064 1.353 . S
C1069 C1068 1.348 . S
C1069 H1121 0.929 . S
H1070 C1064 0.930 . S
H1071 C1067 0.930 . S
C1072 N1073 1.314 . S
C1072 C1074 1.353 . S
C1072 H1078 0.930 . S
N1073 Li1049 1.990 . S
N1073 C1072 1.314 . S
N1073 C1076 1.279 . S
C1074 C1072 1.353 . S
C1074 C1077 1.348 . S
C1074 H1122 0.929 . S
C1075 C1076 1.358 . S
C1075 C1077 1.356 . S
C1075 H1123 0.930 . S
C1076 N1073 1.279 . S
C1076 C1075 1.358 . S
C1076 H1079 0.930 . S
C1077 C1074 1.348 . S
C1077 C1075 1.356 . S
H1078 C1072 0.930 . S
H1079 C1076 0.930 . S
C1080 C1082 1.348 . S
C1080 C1083 1.356 . S
C1080 O1110 1.325 . S
N1081 C1084 1.314 . S
N1081 C1085 1.279 . S
C1082 C1080 1.348 . S
C1082 C1084 1.353 . S
C1082 H1124 0.929 . S
C1083 C1080 1.356 . S
C1083 C1085 1.358 . S
C1083 H1125 0.930 . S
C1084 N1081 1.314 . S
C1084 C1082 1.353 . S
C1084 H1126 0.930 . S
C1085 N1081 1.279 . S
C1085 C1083 1.358 . S
C1085 H1127 0.930 . S
C1086 C1087 1.348 . S
C1086 C1088 1.356 . S
C1086 O1111 1.325 . S
C1087 C1086 1.348 . S
C1087 C1089 1.353 . S
C1087 H1128 0.929 . S
C1088 C1086 1.356 . S
C1088 C1090 1.358 . S
C1088 H1129 0.930 . S
C1089 C1087 1.353 . S
C1089 N1091 1.314 . S
C1089 H1130 0.930 . S
C1090 C1088 1.358 . S
C1090 N1091 1.279 . S
C1090 H1131 0.930 . S
N1091 C1089 1.314 . S
N1091 C1090 1.279 . S
C1092 C1094 1.353 . S
C1092 N1095 1.314 . S
C1092 H1098 0.930 . S
C1093 N1095 1.279 . S
C1093 C1096 1.358 . S
C1093 H1099 0.930 . S
C1094 C1092 1.353 . S
C1094 C1097 1.348 . S
C1094 H1132 0.929 . S
N1095 Li1050 1.990 . S
N1095 C1092 1.314 . S
N1095 C1093 1.279 . S
C1096 C1093 1.358 . S
C1096 C1097 1.356 . S
C1096 H1133 0.930 . S
C1097 C1094 1.348 . S
C1097 C1096 1.356 . S
H1098 C1092 0.930 . S
H1099 C1093 0.930 . S
C1100 N1101 1.314 . S
C1100 C1102 1.353 . S
C1100 H1106 0.930 . S
N1101 Li1051 1.990 . S
N1101 C1100 1.314 . S
N1101 C1104 1.279 . S
C1102 C1100 1.353 . S
C1102 C1105 1.348 . S
C1102 H1134 0.929 . S
C1103 C1104 1.358 . S
C1103 C1105 1.356 . S
C1103 H1135 0.930 . S
C1104 N1101 1.279 . S
C1104 C1103 1.358 . S
C1104 H1107 0.930 . S
C1105 C1102 1.348 . S
C1105 C1103 1.356 . S
H1106 C1100 0.930 . S
H1107 C1104 0.930 . S
O1108 Li1048 1.956 . S
O1108 Li1049 1.970 . S
O1108 Li1050 1.961 . S
O1108 C1052 1.325 . S
O1109 Li1048 1.970 . S
O1109 Li1049 1.956 . S
O1109 Li1051 1.961 . S
O1109 C1058 1.325 . S
O1110 Li1048 1.961 . S
O1110 Li1050 1.956 . S
O1110 Li1051 1.970 . S
O1110 C1080 1.325 . S
O1111 Li1049 1.961 . S
O1111 Li1050 1.970 . S
O1111 Li1051 1.956 . S
O1111 C1086 1.325 . S
H1112 C1054 0.929 . S
H1113 C1055 0.930 . S
H1114 C1056 0.930 . S
H1115 C1057 0.930 . S
H1116 C1059 0.930 . S
H1117 C1061 0.929 . S
H1118 C1062 0.930 . S
H1119 C1063 0.930 . S
H1120 C1066 0.930 . S
H1121 C1069 0.929 . S
H1122 C1074 0.929 . S
H1123 C1075 0.930 . S
H1124 C1082 0.929 . S
H1125 C1083 0.930 . S
H1126 C1084 0.930 . S
H1127 C1085 0.930 . S
H1128 C1087 0.929 . S
H1129 C1088 0.930 . S
H1130 C1089 0.930 . S
H1131 C1090 0.930 . S
H1132 C1094 0.929 . S
H1133 C1096 0.930 . S
H1134 C1102 0.929 . S
H1135 C1103 0.930 . S
Li1136 N1153 1.990 . S
Li1136 O1196 1.956 . S
Li1136 O1197 1.970 1_556 S
Li1136 O1198 1.961 . S
Li1137 N1161 1.990 . S
Li1137 O1196 1.970 1_554 S
Li1137 O1197 1.956 . S
Li1137 O1199 1.961 . S
Li1138 N1183 1.990 . S
Li1138 O1196 1.961 . S
Li1138 O1198 1.956 . S
Li1138 O1199 1.970 1_556 S
Li1139 N1189 1.990 . S
Li1139 O1197 1.961 . S
Li1139 O1198 1.970 1_554 S
Li1139 O1199 1.956 . S
C1140 C1142 1.348 1_556 S
C1140 C1143 1.356 . S
C1140 O1196 1.325 . S
N1141 C1144 1.314 1_556 S
N1141 C1145 1.279 . S
C1142 C1140 1.348 1_554 S
C1142 C1144 1.353 . S
C1142 H1200 0.929 . S
C1143 C1140 1.356 . S
C1143 C1145 1.358 . S
C1143 H1201 0.930 . S
C1144 N1141 1.314 1_554 S
C1144 C1142 1.353 . S
C1144 H1202 0.930 . S
C1145 N1141 1.279 . S
C1145 C1143 1.358 . S
C1145 H1203 0.930 . S
C1146 C1149 1.348 . S
C1146 C1150 1.356 . S
C1146 O1197 1.325 . S
C1147 N1148 1.279 . S
C1147 C1150 1.358 . S
C1147 H1204 0.930 . S
N1148 C1147 1.279 . S
N1148 C1151 1.314 . S
C1149 C1146 1.348 . S
C1149 C1151 1.353 . S
C1149 H1205 0.929 . S
C1150 C1146 1.356 . S
C1150 C1147 1.358 . S
C1150 H1206 0.930 . S
C1151 N1148 1.314 . S
C1151 C1149 1.353 . S
C1151 H1207 0.930 . S
C1152 N1153 1.314 . S
C1152 C1157 1.353 . S
C1152 H1158 0.930 . S
N1153 Li1136 1.990 . S
N1153 C1152 1.314 . S
N1153 C1155 1.279 . S
C1154 C1155 1.358 . S
C1154 C1156 1.356 . S
C1154 H1208 0.930 . S
C1155 N1153 1.279 . S
C1155 C1154 1.358 . S
C1155 H1159 0.930 . S
C1156 C1154 1.356 . S
C1156 C1157 1.348 . S
C1157 C1152 1.353 . S
C1157 C1156 1.348 . S
C1157 H1209 0.929 . S
H1158 C1152 0.930 . S
H1159 C1155 0.930 . S
C1160 N1161 1.314 . S
C1160 C1162 1.353 . S
C1160 H1166 0.930 . S
N1161 Li1137 1.990 . S
N1161 C1160 1.314 . S
N1161 C1164 1.279 . S
C1162 C1160 1.353 . S
C1162 C1165 1.348 . S
C1162 H1210 0.929 . S
C1163 C1164 1.358 . S
C1163 C1165 1.356 . S
C1163 H1211 0.930 . S
C1164 N1161 1.279 . S
C1164 C1163 1.358 . S
C1164 H1167 0.930 . S
C1165 C1162 1.348 . S
C1165 C1163 1.356 . S
H1166 C1160 0.930 . S
H1167 C1164 0.930 . S
C1168 C1170 1.348 . S
C1168 C1171 1.356 . S
C1168 O1198 1.325 . S
N1169 C1172 1.314 . S
N1169 C1173 1.279 . S
C1170 C1168 1.348 . S
C1170 C1172 1.353 . S
C1170 H1212 0.929 . S
C1171 C1168 1.356 . S
C1171 C1173 1.358 . S
C1171 H1213 0.930 . S
C1172 N1169 1.314 . S
C1172 C1170 1.353 . S
C1172 H1214 0.930 . S
C1173 N1169 1.279 . S
C1173 C1171 1.358 . S
C1173 H1215 0.930 . S
C1174 C1175 1.348 1_554 S
C1174 C1176 1.356 . S
C1174 O1199 1.325 . S
C1175 C1174 1.348 1_556 S
C1175 C1177 1.353 . S
C1175 H1216 0.929 . S
C1176 C1174 1.356 . S
C1176 C1178 1.358 . S
C1176 H1217 0.930 . S
C1177 C1175 1.353 . S
C1177 N1179 1.314 1_556 S
C1177 H1218 0.930 . S
C1178 C1176 1.358 . S
C1178 N1179 1.279 . S
C1178 H1219 0.930 . S
N1179 C1177 1.314 1_554 S
N1179 C1178 1.279 . S
C1180 C1182 1.353 . S
C1180 N1183 1.314 . S
C1180 H1186 0.930 . S
C1181 N1183 1.279 . S
C1181 C1184 1.358 . S
C1181 H1187 0.930 . S
C1182 C1180 1.353 . S
C1182 C1185 1.348 . S
C1182 H1220 0.929 . S
N1183 Li1138 1.990 . S
N1183 C1180 1.314 . S
N1183 C1181 1.279 . S
C1184 C1181 1.358 . S
C1184 C1185 1.356 . S
C1184 H1221 0.930 . S
C1185 C1182 1.348 . S
C1185 C1184 1.356 . S
H1186 C1180 0.930 . S
H1187 C1181 0.930 . S
C1188 N1189 1.314 . S
C1188 C1190 1.353 . S
C1188 H1194 0.930 . S
N1189 Li1139 1.990 . S
N1189 C1188 1.314 . S
N1189 C1192 1.279 . S
C1190 C1188 1.353 . S
C1190 C1193 1.348 . S
C1190 H1222 0.929 . S
C1191 C1192 1.358 . S
C1191 C1193 1.356 . S
C1191 H1223 0.930 . S
C1192 N1189 1.279 . S
C1192 C1191 1.358 . S
C1192 H1195 0.930 . S
C1193 C1190 1.348 . S
C1193 C1191 1.356 . S
H1194 C1188 0.930 . S
H1195 C1192 0.930 . S
O1196 Li1136 1.956 . S
O1196 Li1137 1.970 1_556 S
O1196 Li1138 1.961 . S
O1196 C1140 1.325 . S
O1197 Li1136 1.970 1_554 S
O1197 Li1137 1.956 . S
O1197 Li1139 1.961 . S
O1197 C1146 1.325 . S
O1198 Li1136 1.961 . S
O1198 Li1138 1.956 . S
O1198 Li1139 1.970 1_556 S
O1198 C1168 1.325 . S
O1199 Li1137 1.961 . S
O1199 Li1138 1.970 1_554 S
O1199 Li1139 1.956 . S
O1199 C1174 1.325 . S
H1200 C1142 0.929 . S
H1201 C1143 0.930 . S
H1202 C1144 0.930 . S
H1203 C1145 0.930 . S
H1204 C1147 0.930 . S
H1205 C1149 0.929 . S
H1206 C1150 0.930 . S
H1207 C1151 0.930 . S
H1208 C1154 0.930 . S
H1209 C1157 0.929 . S
H1210 C1162 0.929 . S
H1211 C1163 0.930 . S
H1212 C1170 0.929 . S
H1213 C1171 0.930 . S
H1214 C1172 0.930 . S
H1215 C1173 0.930 . S
H1216 C1175 0.929 . S
H1217 C1176 0.930 . S
H1218 C1177 0.930 . S
H1219 C1178 0.930 . S
H1220 C1182 0.929 . S
H1221 C1184 0.930 . S
H1222 C1190 0.929 . S
H1223 C1191 0.930 . S
Li1224 N1241 1.990 . S
Li1224 O1284 1.956 . S
Li1224 O1285 1.970 1_545 S
Li1224 O1286 1.961 . S
Li1225 N1249 1.990 . S
Li1225 O1284 1.970 1_565 S
Li1225 O1285 1.956 . S
Li1225 O1287 1.961 . S
Li1226 N1271 1.990 . S
Li1226 O1284 1.961 . S
Li1226 O1286 1.956 . S
Li1226 O1287 1.970 1_545 S
Li1227 N1277 1.990 . S
Li1227 O1285 1.961 . S
Li1227 O1286 1.970 1_565 S
Li1227 O1287 1.956 . S
C1228 C1230 1.348 . S
C1228 C1231 1.356 . S
C1228 O1284 1.325 . S
N1229 C1232 1.314 . S
N1229 C1233 1.279 . S
C1230 C1228 1.348 . S
C1230 C1232 1.353 . S
C1230 H1288 0.929 . S
C1231 C1228 1.356 . S
C1231 C1233 1.358 . S
C1231 H1289 0.930 . S
C1232 N1229 1.314 . S
C1232 C1230 1.353 . S
C1232 H1290 0.930 . S
C1233 N1229 1.279 . S
C1233 C1231 1.358 . S
C1233 H1291 0.930 . S
C1234 C1237 1.348 1_565 S
C1234 C1238 1.356 . S
C1234 O1285 1.325 . S
C1235 N1236 1.279 . S
C1235 C1238 1.358 . S
C1235 H1292 0.930 . S
N1236 C1235 1.279 . S
N1236 C1239 1.314 1_565 S
C1237 C1234 1.348 1_545 S
C1237 C1239 1.353 . S
C1237 H1293 0.929 . S
C1238 C1234 1.356 . S
C1238 C1235 1.358 . S
C1238 H1294 0.930 . S
C1239 N1236 1.314 1_545 S
C1239 C1237 1.353 . S
C1239 H1295 0.930 . S
C1240 N1241 1.314 . S
C1240 C1245 1.353 . S
C1240 H1246 0.930 . S
N1241 Li1224 1.990 . S
N1241 C1240 1.314 . S
N1241 C1243 1.279 . S
C1242 C1243 1.358 . S
C1242 C1244 1.356 . S
C1242 H1296 0.930 . S
C1243 N1241 1.279 . S
C1243 C1242 1.358 . S
C1243 H1247 0.930 . S
C1244 C1242 1.356 . S
C1244 C1245 1.348 . S
C1245 C1240 1.353 . S
C1245 C1244 1.348 . S
C1245 H1297 0.929 . S
H1246 C1240 0.930 . S
H1247 C1243 0.930 . S
C1248 N1249 1.314 . S
C1248 C1250 1.353 . S
C1248 H1254 0.930 . S
N1249 Li1225 1.990 . S
N1249 C1248 1.314 . S
N1249 C1252 1.279 . S
C1250 C1248 1.353 . S
C1250 C1253 1.348 . S
C1250 H1298 0.929 . S
C1251 C1252 1.358 . S
C1251 C1253 1.356 . S
C1251 H1299 0.930 . S
C1252 N1249 1.279 . S
C1252 C1251 1.358 . S
C1252 H1255 0.930 . S
C1253 C1250 1.348 . S
C1253 C1251 1.356 . S
H1254 C1248 0.930 . S
H1255 C1252 0.930 . S
C1256 C1258 1.348 1_545 S
C1256 C1259 1.356 . S
C1256 O1286 1.325 . S
N1257 C1260 1.314 1_545 S
N1257 C1261 1.279 . S
C1258 C1256 1.348 1_565 S
C1258 C1260 1.353 . S
C1258 H1300 0.929 . S
C1259 C1256 1.356 . S
C1259 C1261 1.358 . S
C1259 H1301 0.930 . S
C1260 N1257 1.314 1_565 S
C1260 C1258 1.353 . S
C1260 H1302 0.930 . S
C1261 N1257 1.279 . S
C1261 C1259 1.358 . S
C1261 H1303 0.930 . S
C1262 C1263 1.348 . S
C1262 C1264 1.356 . S
C1262 O1287 1.325 . S
C1263 C1262 1.348 . S
C1263 C1265 1.353 . S
C1263 H1304 0.929 . S
C1264 C1262 1.356 . S
C1264 C1266 1.358 . S
C1264 H1305 0.930 . S
C1265 C1263 1.353 . S
C1265 N1267 1.314 . S
C1265 H1306 0.930 . S
C1266 C1264 1.358 . S
C1266 N1267 1.279 . S
C1266 H1307 0.930 . S
N1267 C1265 1.314 . S
N1267 C1266 1.279 . S
C1268 C1270 1.353 . S
C1268 N1271 1.314 . S
C1268 H1274 0.930 . S
C1269 N1271 1.279 . S
C1269 C1272 1.358 . S
C1269 H1275 0.930 . S
C1270 C1268 1.353 . S
C1270 C1273 1.348 . S
C1270 H1308 0.929 . S
N1271 Li1226 1.990 . S
N1271 C1268 1.314 . S
N1271 C1269 1.279 . S
C1272 C1269 1.358 . S
C1272 C1273 1.356 . S
C1272 H1309 0.930 . S
C1273 C1270 1.348 . S
C1273 C1272 1.356 . S
H1274 C1268 0.930 . S
H1275 C1269 0.930 . S
C1276 N1277 1.314 . S
C1276 C1278 1.353 . S
C1276 H1282 0.930 . S
N1277 Li1227 1.990 . S
N1277 C1276 1.314 . S
N1277 C1280 1.279 . S
C1278 C1276 1.353 . S
C1278 C1281 1.348 . S
C1278 H1310 0.929 . S
C1279 C1280 1.358 . S
C1279 C1281 1.356 . S
C1279 H1311 0.930 . S
C1280 N1277 1.279 . S
C1280 C1279 1.358 . S
C1280 H1283 0.930 . S
C1281 C1278 1.348 . S
C1281 C1279 1.356 . S
H1282 C1276 0.930 . S
H1283 C1280 0.930 . S
O1284 Li1224 1.956 . S
O1284 Li1225 1.970 1_545 S
O1284 Li1226 1.961 . S
O1284 C1228 1.325 . S
O1285 Li1224 1.970 1_565 S
O1285 Li1225 1.956 . S
O1285 Li1227 1.961 . S
O1285 C1234 1.325 . S
O1286 Li1224 1.961 . S
O1286 Li1226 1.956 . S
O1286 Li1227 1.970 1_545 S
O1286 C1256 1.325 . S
O1287 Li1225 1.961 . S
O1287 Li1226 1.970 1_565 S
O1287 Li1227 1.956 . S
O1287 C1262 1.325 . S
H1288 C1230 0.929 . S
H1289 C1231 0.930 . S
H1290 C1232 0.930 . S
H1291 C1233 0.930 . S
H1292 C1235 0.930 . S
H1293 C1237 0.929 . S
H1294 C1238 0.930 . S
H1295 C1239 0.930 . S
H1296 C1242 0.930 . S
H1297 C1245 0.929 . S
H1298 C1250 0.929 . S
H1299 C1251 0.930 . S
H1300 C1258 0.929 . S
H1301 C1259 0.930 . S
H1302 C1260 0.930 . S
H1303 C1261 0.930 . S
H1304 C1263 0.929 . S
H1305 C1264 0.930 . S
H1306 C1265 0.930 . S
H1307 C1266 0.930 . S
H1308 C1270 0.929 . S
H1309 C1272 0.930 . S
H1310 C1278 0.929 . S
H1311 C1279 0.930 . S
Li1312 N1329 1.990 . S
Li1312 O1372 1.956 . S
Li1312 O1373 1.970 . S
Li1312 O1374 1.961 . S
Li1313 N1337 1.990 . S
Li1313 O1372 1.970 . S
Li1313 O1373 1.956 . S
Li1313 O1375 1.961 . S
Li1314 N1359 1.990 . S
Li1314 O1372 1.961 . S
Li1314 O1374 1.956 . S
Li1314 O1375 1.970 . S
Li1315 N1365 1.990 . S
Li1315 O1373 1.961 . S
Li1315 O1374 1.970 . S
Li1315 O1375 1.956 . S
C1316 C1318 1.348 . S
C1316 C1319 1.356 . S
C1316 O1372 1.325 . S
N1317 C1320 1.314 . S
N1317 C1321 1.279 . S
C1318 C1316 1.348 . S
C1318 C1320 1.353 . S
C1318 H1376 0.929 . S
C1319 C1316 1.356 . S
C1319 C1321 1.358 . S
C1319 H1377 0.930 . S
C1320 N1317 1.314 . S
C1320 C1318 1.353 . S
C1320 H1378 0.930 . S
C1321 N1317 1.279 . S
C1321 C1319 1.358 . S
C1321 H1379 0.930 . S
C1322 C1325 1.348 . S
C1322 C1326 1.356 . S
C1322 O1373 1.325 . S
C1323 N1324 1.279 . S
C1323 C1326 1.358 . S
C1323 H1380 0.930 . S
N1324 C1323 1.279 . S
N1324 C1327 1.314 . S
C1325 C1322 1.348 . S
C1325 C1327 1.353 . S
C1325 H1381 0.929 . S
C1326 C1322 1.356 . S
C1326 C1323 1.358 . S
C1326 H1382 0.930 . S
C1327 N1324 1.314 . S
C1327 C1325 1.353 . S
C1327 H1383 0.930 . S
C1328 N1329 1.314 . S
C1328 C1333 1.353 . S
C1328 H1334 0.930 . S
N1329 Li1312 1.990 . S
N1329 C1328 1.314 . S
N1329 C1331 1.279 . S
C1330 C1331 1.358 . S
C1330 C1332 1.356 . S
C1330 H1384 0.930 . S
C1331 N1329 1.279 . S
C1331 C1330 1.358 . S
C1331 H1335 0.930 . S
C1332 C1330 1.356 . S
C1332 C1333 1.348 . S
C1333 C1328 1.353 . S
C1333 C1332 1.348 . S
C1333 H1385 0.929 . S
H1334 C1328 0.930 . S
H1335 C1331 0.930 . S
C1336 N1337 1.314 . S
C1336 C1338 1.353 . S
C1336 H1342 0.930 . S
N1337 Li1313 1.990 . S
N1337 C1336 1.314 . S
N1337 C1340 1.279 . S
C1338 C1336 1.353 . S
C1338 C1341 1.348 . S
C1338 H1386 0.929 . S
C1339 C1340 1.358 . S
C1339 C1341 1.356 . S
C1339 H1387 0.930 . S
C1340 N1337 1.279 . S
C1340 C1339 1.358 . S
C1340 H1343 0.930 . S
C1341 C1338 1.348 . S
C1341 C1339 1.356 . S
H1342 C1336 0.930 . S
H1343 C1340 0.930 . S
C1344 C1346 1.348 . S
C1344 C1347 1.356 . S
C1344 O1374 1.325 . S
N1345 C1348 1.314 . S
N1345 C1349 1.279 . S
C1346 C1344 1.348 . S
C1346 C1348 1.353 . S
C1346 H1388 0.929 . S
C1347 C1344 1.356 . S
C1347 C1349 1.358 . S
C1347 H1389 0.930 . S
C1348 N1345 1.314 . S
C1348 C1346 1.353 . S
C1348 H1390 0.930 . S
C1349 N1345 1.279 . S
C1349 C1347 1.358 . S
C1349 H1391 0.930 . S
C1350 C1351 1.348 . S
C1350 C1352 1.356 . S
C1350 O1375 1.325 . S
C1351 C1350 1.348 . S
C1351 C1353 1.353 . S
C1351 H1392 0.929 . S
C1352 C1350 1.356 . S
C1352 C1354 1.358 . S
C1352 H1393 0.930 . S
C1353 C1351 1.353 . S
C1353 N1355 1.314 . S
C1353 H1394 0.930 . S
C1354 C1352 1.358 . S
C1354 N1355 1.279 . S
C1354 H1395 0.930 . S
N1355 C1353 1.314 . S
N1355 C1354 1.279 . S
C1356 C1358 1.353 . S
C1356 N1359 1.314 . S
C1356 H1362 0.930 . S
C1357 N1359 1.279 . S
C1357 C1360 1.358 . S
C1357 H1363 0.930 . S
C1358 C1356 1.353 . S
C1358 C1361 1.348 . S
C1358 H1396 0.929 . S
N1359 Li1314 1.990 . S
N1359 C1356 1.314 . S
N1359 C1357 1.279 . S
C1360 C1357 1.358 . S
C1360 C1361 1.356 . S
C1360 H1397 0.930 . S
C1361 C1358 1.348 . S
C1361 C1360 1.356 . S
H1362 C1356 0.930 . S
H1363 C1357 0.930 . S
C1364 N1365 1.314 . S
C1364 C1366 1.353 . S
C1364 H1370 0.930 . S
N1365 Li1315 1.990 . S
N1365 C1364 1.314 . S
N1365 C1368 1.279 . S
C1366 C1364 1.353 . S
C1366 C1369 1.348 . S
C1366 H1398 0.929 . S
C1367 C1368 1.358 . S
C1367 C1369 1.356 . S
C1367 H1399 0.930 . S
C1368 N1365 1.279 . S
C1368 C1367 1.358 . S
C1368 H1371 0.930 . S
C1369 C1366 1.348 . S
C1369 C1367 1.356 . S
H1370 C1364 0.930 . S
H1371 C1368 0.930 . S
O1372 Li1312 1.956 . S
O1372 Li1313 1.970 . S
O1372 Li1314 1.961 . S
O1372 C1316 1.325 . S
O1373 Li1312 1.970 . S
O1373 Li1313 1.956 . S
O1373 Li1315 1.961 . S
O1373 C1322 1.325 . S
O1374 Li1312 1.961 . S
O1374 Li1314 1.956 . S
O1374 Li1315 1.970 . S
O1374 C1344 1.325 . S
O1375 Li1313 1.961 . S
O1375 Li1314 1.970 . S
O1375 Li1315 1.956 . S
O1375 C1350 1.325 . S
H1376 C1318 0.929 . S
H1377 C1319 0.930 . S
H1378 C1320 0.930 . S
H1379 C1321 0.930 . S
H1380 C1323 0.930 . S
H1381 C1325 0.929 . S
H1382 C1326 0.930 . S
H1383 C1327 0.930 . S
H1384 C1330 0.930 . S
H1385 C1333 0.929 . S
H1386 C1338 0.929 . S
H1387 C1339 0.930 . S
H1388 C1346 0.929 . S
H1389 C1347 0.930 . S
H1390 C1348 0.930 . S
H1391 C1349 0.930 . S
H1392 C1351 0.929 . S
H1393 C1352 0.930 . S
H1394 C1353 0.930 . S
H1395 C1354 0.930 . S
H1396 C1358 0.929 . S
H1397 C1360 0.930 . S
H1398 C1366 0.929 . S
H1399 C1367 0.930 . S
Li1400 N1417 1.990 . S
Li1400 O1460 1.956 . S
Li1400 O1461 1.970 . S
Li1400 O1462 1.961 . S
Li1401 N1425 1.990 . S
Li1401 O1460 1.970 . S
Li1401 O1461 1.956 . S
Li1401 O1463 1.961 . S
Li1402 N1447 1.990 . S
Li1402 O1460 1.961 . S
Li1402 O1462 1.956 . S
Li1402 O1463 1.970 . S
Li1403 N1453 1.990 . S
Li1403 O1461 1.961 . S
Li1403 O1462 1.970 . S
Li1403 O1463 1.956 . S
C1404 C1406 1.348 . S
C1404 C1407 1.356 . S
C1404 O1460 1.325 . S
N1405 C1408 1.314 . S
N1405 C1409 1.279 . S
C1406 C1404 1.348 . S
C1406 C1408 1.353 . S
C1406 H1464 0.929 . S
C1407 C1404 1.356 . S
C1407 C1409 1.358 . S
C1407 H1465 0.930 . S
C1408 N1405 1.314 . S
C1408 C1406 1.353 . S
C1408 H1466 0.930 . S
C1409 N1405 1.279 . S
C1409 C1407 1.358 . S
C1409 H1467 0.930 . S
C1410 C1413 1.348 . S
C1410 C1414 1.356 . S
C1410 O1461 1.325 . S
C1411 N1412 1.279 . S
C1411 C1414 1.358 . S
C1411 H1468 0.930 . S
N1412 C1411 1.279 . S
N1412 C1415 1.314 . S
C1413 C1410 1.348 . S
C1413 C1415 1.353 . S
C1413 H1469 0.929 . S
C1414 C1410 1.356 . S
C1414 C1411 1.358 . S
C1414 H1470 0.930 . S
C1415 N1412 1.314 . S
C1415 C1413 1.353 . S
C1415 H1471 0.930 . S
C1416 N1417 1.314 . S
C1416 C1421 1.353 . S
C1416 H1422 0.930 . S
N1417 Li1400 1.990 . S
N1417 C1416 1.314 . S
N1417 C1419 1.279 . S
C1418 C1419 1.358 . S
C1418 C1420 1.356 . S
C1418 H1472 0.930 . S
C1419 N1417 1.279 . S
C1419 C1418 1.358 . S
C1419 H1423 0.930 . S
C1420 C1418 1.356 . S
C1420 C1421 1.348 . S
C1421 C1416 1.353 . S
C1421 C1420 1.348 . S
C1421 H1473 0.929 . S
H1422 C1416 0.930 . S
H1423 C1419 0.930 . S
C1424 N1425 1.314 . S
C1424 C1426 1.353 . S
C1424 H1430 0.930 . S
N1425 Li1401 1.990 . S
N1425 C1424 1.314 . S
N1425 C1428 1.279 . S
C1426 C1424 1.353 . S
C1426 C1429 1.348 . S
C1426 H1474 0.929 . S
C1427 C1428 1.358 . S
C1427 C1429 1.356 . S
C1427 H1475 0.930 . S
C1428 N1425 1.279 . S
C1428 C1427 1.358 . S
C1428 H1431 0.930 . S
C1429 C1426 1.348 . S
C1429 C1427 1.356 . S
H1430 C1424 0.930 . S
H1431 C1428 0.930 . S
C1432 C1434 1.348 . S
C1432 C1435 1.356 . S
C1432 O1462 1.325 . S
N1433 C1436 1.314 . S
N1433 C1437 1.279 . S
C1434 C1432 1.348 . S
C1434 C1436 1.353 . S
C1434 H1476 0.929 . S
C1435 C1432 1.356 . S
C1435 C1437 1.358 . S
C1435 H1477 0.930 . S
C1436 N1433 1.314 . S
C1436 C1434 1.353 . S
C1436 H1478 0.930 . S
C1437 N1433 1.279 . S
C1437 C1435 1.358 . S
C1437 H1479 0.930 . S
C1438 C1439 1.348 . S
C1438 C1440 1.356 . S
C1438 O1463 1.325 . S
C1439 C1438 1.348 . S
C1439 C1441 1.353 . S
C1439 H1480 0.929 . S
C1440 C1438 1.356 . S
C1440 C1442 1.358 . S
C1440 H1481 0.930 . S
C1441 C1439 1.353 . S
C1441 N1443 1.314 . S
C1441 H1482 0.930 . S
C1442 C1440 1.358 . S
C1442 N1443 1.279 . S
C1442 H1483 0.930 . S
N1443 C1441 1.314 . S
N1443 C1442 1.279 . S
C1444 C1446 1.353 . S
C1444 N1447 1.314 . S
C1444 H1450 0.930 . S
C1445 N1447 1.279 . S
C1445 C1448 1.358 . S
C1445 H1451 0.930 . S
C1446 C1444 1.353 . S
C1446 C1449 1.348 . S
C1446 H1484 0.929 . S
N1447 Li1402 1.990 . S
N1447 C1444 1.314 . S
N1447 C1445 1.279 . S
C1448 C1445 1.358 . S
C1448 C1449 1.356 . S
C1448 H1485 0.930 . S
C1449 C1446 1.348 . S
C1449 C1448 1.356 . S
H1450 C1444 0.930 . S
H1451 C1445 0.930 . S
C1452 N1453 1.314 . S
C1452 C1454 1.353 . S
C1452 H1458 0.930 . S
N1453 Li1403 1.990 . S
N1453 C1452 1.314 . S
N1453 C1456 1.279 . S
C1454 C1452 1.353 . S
C1454 C1457 1.348 . S
C1454 H1486 0.929 . S
C1455 C1456 1.358 . S
C1455 C1457 1.356 . S
C1455 H1487 0.930 . S
C1456 N1453 1.279 . S
C1456 C1455 1.358 . S
C1456 H1459 0.930 . S
C1457 C1454 1.348 . S
C1457 C1455 1.356 . S
H1458 C1452 0.930 . S
H1459 C1456 0.930 . S
O1460 Li1400 1.956 . S
O1460 Li1401 1.970 . S
O1460 Li1402 1.961 . S
O1460 C1404 1.325 . S
O1461 Li1400 1.970 . S
O1461 Li1401 1.956 . S
O1461 Li1403 1.961 . S
O1461 C1410 1.325 . S
O1462 Li1400 1.961 . S
O1462 Li1402 1.956 . S
O1462 Li1403 1.970 . S
O1462 C1432 1.325 . S
O1463 Li1401 1.961 . S
O1463 Li1402 1.970 . S
O1463 Li1403 1.956 . S
O1463 C1438 1.325 . S
H1464 C1406 0.929 . S
H1465 C1407 0.930 . S
H1466 C1408 0.930 . S
H1467 C1409 0.930 . S
H1468 C1411 0.930 . S
H1469 C1413 0.929 . S
H1470 C1414 0.930 . S
H1471 C1415 0.930 . S
H1472 C1418 0.930 . S
H1473 C1421 0.929 . S
H1474 C1426 0.929 . S
H1475 C1427 0.930 . S
H1476 C1434 0.929 . S
H1477 C1435 0.930 . S
H1478 C1436 0.930 . S
H1479 C1437 0.930 . S
H1480 C1439 0.929 . S
H1481 C1440 0.930 . S
H1482 C1441 0.930 . S
H1483 C1442 0.930 . S
H1484 C1446 0.929 . S
H1485 C1448 0.930 . S
H1486 C1454 0.929 . S
H1487 C1455 0.930 . S
Li1488 N1505 1.990 . S
Li1488 O1548 1.956 . S
Li1488 O1549 1.970 . S
Li1488 O1550 1.961 . S
Li1489 N1513 1.990 . S
Li1489 O1548 1.970 . S
Li1489 O1549 1.956 . S
Li1489 O1551 1.961 . S
Li1490 N1535 1.990 . S
Li1490 O1548 1.961 . S
Li1490 O1550 1.956 . S
Li1490 O1551 1.970 . S
Li1491 N1541 1.990 . S
Li1491 O1549 1.961 . S
Li1491 O1550 1.970 . S
Li1491 O1551 1.956 . S
C1492 C1494 1.348 . S
C1492 C1495 1.356 . S
C1492 O1548 1.325 . S
N1493 C1496 1.314 . S
N1493 C1497 1.279 . S
C1494 C1492 1.348 . S
C1494 C1496 1.353 . S
C1494 H1552 0.929 . S
C1495 C1492 1.356 . S
C1495 C1497 1.358 . S
C1495 H1553 0.930 . S
C1496 N1493 1.314 . S
C1496 C1494 1.353 . S
C1496 H1554 0.930 . S
C1497 N1493 1.279 . S
C1497 C1495 1.358 . S
C1497 H1555 0.930 . S
C1498 C1501 1.348 . S
C1498 C1502 1.356 . S
C1498 O1549 1.325 . S
C1499 N1500 1.279 . S
C1499 C1502 1.358 . S
C1499 H1556 0.930 . S
N1500 C1499 1.279 . S
N1500 C1503 1.314 . S
C1501 C1498 1.348 . S
C1501 C1503 1.353 . S
C1501 H1557 0.929 . S
C1502 C1498 1.356 . S
C1502 C1499 1.358 . S
C1502 H1558 0.930 . S
C1503 N1500 1.314 . S
C1503 C1501 1.353 . S
C1503 H1559 0.930 . S
C1504 N1505 1.314 . S
C1504 C1509 1.353 . S
C1504 H1510 0.930 . S
N1505 Li1488 1.990 . S
N1505 C1504 1.314 . S
N1505 C1507 1.279 . S
C1506 C1507 1.358 . S
C1506 C1508 1.356 . S
C1506 H1560 0.930 . S
C1507 N1505 1.279 . S
C1507 C1506 1.358 . S
C1507 H1511 0.930 . S
C1508 C1506 1.356 . S
C1508 C1509 1.348 . S
C1509 C1504 1.353 . S
C1509 C1508 1.348 . S
C1509 H1561 0.929 . S
H1510 C1504 0.930 . S
H1511 C1507 0.930 . S
C1512 N1513 1.314 . S
C1512 C1514 1.353 . S
C1512 H1518 0.930 . S
N1513 Li1489 1.990 . S
N1513 C1512 1.314 . S
N1513 C1516 1.279 . S
C1514 C1512 1.353 . S
C1514 C1517 1.348 . S
C1514 H1562 0.929 . S
C1515 C1516 1.358 . S
C1515 C1517 1.356 . S
C1515 H1563 0.930 . S
C1516 N1513 1.279 . S
C1516 C1515 1.358 . S
C1516 H1519 0.930 . S
C1517 C1514 1.348 . S
C1517 C1515 1.356 . S
H1518 C1512 0.930 . S
H1519 C1516 0.930 . S
C1520 C1522 1.348 . S
C1520 C1523 1.356 . S
C1520 O1550 1.325 . S
N1521 C1524 1.314 . S
N1521 C1525 1.279 . S
C1522 C1520 1.348 . S
C1522 C1524 1.353 . S
C1522 H1564 0.929 . S
C1523 C1520 1.356 . S
C1523 C1525 1.358 . S
C1523 H1565 0.930 . S
C1524 N1521 1.314 . S
C1524 C1522 1.353 . S
C1524 H1566 0.930 . S
C1525 N1521 1.279 . S
C1525 C1523 1.358 . S
C1525 H1567 0.930 . S
C1526 C1527 1.348 . S
C1526 C1528 1.356 . S
C1526 O1551 1.325 . S
C1527 C1526 1.348 . S
C1527 C1529 1.353 . S
C1527 H1568 0.929 . S
C1528 C1526 1.356 . S
C1528 C1530 1.358 . S
C1528 H1569 0.930 . S
C1529 C1527 1.353 . S
C1529 N1531 1.314 . S
C1529 H1570 0.930 . S
C1530 C1528 1.358 . S
C1530 N1531 1.279 . S
C1530 H1571 0.930 . S
N1531 C1529 1.314 . S
N1531 C1530 1.279 . S
C1532 C1534 1.353 . S
C1532 N1535 1.314 . S
C1532 H1538 0.930 . S
C1533 N1535 1.279 . S
C1533 C1536 1.358 . S
C1533 H1539 0.930 . S
C1534 C1532 1.353 . S
C1534 C1537 1.348 . S
C1534 H1572 0.929 . S
N1535 Li1490 1.990 . S
N1535 C1532 1.314 . S
N1535 C1533 1.279 . S
C1536 C1533 1.358 . S
C1536 C1537 1.356 . S
C1536 H1573 0.930 . S
C1537 C1534 1.348 . S
C1537 C1536 1.356 . S
H1538 C1532 0.930 . S
H1539 C1533 0.930 . S
C1540 N1541 1.314 . S
C1540 C1542 1.353 . S
C1540 H1546 0.930 . S
N1541 Li1491 1.990 . S
N1541 C1540 1.314 . S
N1541 C1544 1.279 . S
C1542 C1540 1.353 . S
C1542 C1545 1.348 . S
C1542 H1574 0.929 . S
C1543 C1544 1.358 . S
C1543 C1545 1.356 . S
C1543 H1575 0.930 . S
C1544 N1541 1.279 . S
C1544 C1543 1.358 . S
C1544 H1547 0.930 . S
C1545 C1542 1.348 . S
C1545 C1543 1.356 . S
H1546 C1540 0.930 . S
H1547 C1544 0.930 . S
O1548 Li1488 1.956 . S
O1548 Li1489 1.970 . S
O1548 Li1490 1.961 . S
O1548 C1492 1.325 . S
O1549 Li1488 1.970 . S
O1549 Li1489 1.956 . S
O1549 Li1491 1.961 . S
O1549 C1498 1.325 . S
O1550 Li1488 1.961 . S
O1550 Li1490 1.956 . S
O1550 Li1491 1.970 . S
O1550 C1520 1.325 . S
O1551 Li1489 1.961 . S
O1551 Li1490 1.970 . S
O1551 Li1491 1.956 . S
O1551 C1526 1.325 . S
H1552 C1494 0.929 . S
H1553 C1495 0.930 . S
H1554 C1496 0.930 . S
H1555 C1497 0.930 . S
H1556 C1499 0.930 . S
H1557 C1501 0.929 . S
H1558 C1502 0.930 . S
H1559 C1503 0.930 . S
H1560 C1506 0.930 . S
H1561 C1509 0.929 . S
H1562 C1514 0.929 . S
H1563 C1515 0.930 . S
H1564 C1522 0.929 . S
H1565 C1523 0.930 . S
H1566 C1524 0.930 . S
H1567 C1525 0.930 . S
H1568 C1527 0.929 . S
H1569 C1528 0.930 . S
H1570 C1529 0.930 . S
H1571 C1530 0.930 . S
H1572 C1534 0.929 . S
H1573 C1536 0.930 . S
H1574 C1542 0.929 . S
H1575 C1543 0.930 . S
Li1576 N1593 1.990 . S
Li1576 O1636 1.956 . S
Li1576 O1637 1.970 1_565 S
Li1576 O1638 1.961 . S
Li1577 N1601 1.990 . S
Li1577 O1636 1.970 1_545 S
Li1577 O1637 1.956 . S
Li1577 O1639 1.961 . S
Li1578 N1623 1.990 . S
Li1578 O1636 1.961 . S
Li1578 O1638 1.956 . S
Li1578 O1639 1.970 1_565 S
Li1579 N1629 1.990 . S
Li1579 O1637 1.961 . S
Li1579 O1638 1.970 1_545 S
Li1579 O1639 1.956 . S
C1580 C1582 1.348 . S
C1580 C1583 1.356 . S
C1580 O1636 1.325 . S
N1581 C1584 1.314 . S
N1581 C1585 1.279 . S
C1582 C1580 1.348 . S
C1582 C1584 1.353 . S
C1582 H1640 0.929 . S
C1583 C1580 1.356 . S
C1583 C1585 1.358 . S
C1583 H1641 0.930 . S
C1584 N1581 1.314 . S
C1584 C1582 1.353 . S
C1584 H1642 0.930 . S
C1585 N1581 1.279 . S
C1585 C1583 1.358 . S
C1585 H1643 0.930 . S
C1586 C1589 1.348 1_545 S
C1586 C1590 1.356 . S
C1586 O1637 1.325 . S
C1587 N1588 1.279 . S
C1587 C1590 1.358 . S
C1587 H1644 0.930 . S
N1588 C1587 1.279 . S
N1588 C1591 1.314 1_545 S
C1589 C1586 1.348 1_565 S
C1589 C1591 1.353 . S
C1589 H1645 0.929 . S
C1590 C1586 1.356 . S
C1590 C1587 1.358 . S
C1590 H1646 0.930 . S
C1591 N1588 1.314 1_565 S
C1591 C1589 1.353 . S
C1591 H1647 0.930 . S
C1592 N1593 1.314 . S
C1592 C1597 1.353 . S
C1592 H1598 0.930 . S
N1593 Li1576 1.990 . S
N1593 C1592 1.314 . S
N1593 C1595 1.279 . S
C1594 C1595 1.358 . S
C1594 C1596 1.356 . S
C1594 H1648 0.930 . S
C1595 N1593 1.279 . S
C1595 C1594 1.358 . S
C1595 H1599 0.930 . S
C1596 C1594 1.356 . S
C1596 C1597 1.348 . S
C1597 C1592 1.353 . S
C1597 C1596 1.348 . S
C1597 H1649 0.929 . S
H1598 C1592 0.930 . S
H1599 C1595 0.930 . S
C1600 N1601 1.314 . S
C1600 C1602 1.353 . S
C1600 H1606 0.930 . S
N1601 Li1577 1.990 . S
N1601 C1600 1.314 . S
N1601 C1604 1.279 . S
C1602 C1600 1.353 . S
C1602 C1605 1.348 . S
C1602 H1650 0.929 . S
C1603 C1604 1.358 . S
C1603 C1605 1.356 . S
C1603 H1651 0.930 . S
C1604 N1601 1.279 . S
C1604 C1603 1.358 . S
C1604 H1607 0.930 . S
C1605 C1602 1.348 . S
C1605 C1603 1.356 . S
H1606 C1600 0.930 . S
H1607 C1604 0.930 . S
C1608 C1610 1.348 1_565 S
C1608 C1611 1.356 . S
C1608 O1638 1.325 . S
N1609 C1612 1.314 1_565 S
N1609 C1613 1.279 . S
C1610 C1608 1.348 1_545 S
C1610 C1612 1.353 . S
C1610 H1652 0.929 . S
C1611 C1608 1.356 . S
C1611 C1613 1.358 . S
C1611 H1653 0.930 . S
C1612 N1609 1.314 1_545 S
C1612 C1610 1.353 . S
C1612 H1654 0.930 . S
C1613 N1609 1.279 . S
C1613 C1611 1.358 . S
C1613 H1655 0.930 . S
C1614 C1615 1.348 . S
C1614 C1616 1.356 . S
C1614 O1639 1.325 . S
C1615 C1614 1.348 . S
C1615 C1617 1.353 . S
C1615 H1656 0.929 . S
C1616 C1614 1.356 . S
C1616 C1618 1.358 . S
C1616 H1657 0.930 . S
C1617 C1615 1.353 . S
C1617 N1619 1.314 . S
C1617 H1658 0.930 . S
C1618 C1616 1.358 . S
C1618 N1619 1.279 . S
C1618 H1659 0.930 . S
N1619 C1617 1.314 . S
N1619 C1618 1.279 . S
C1620 C1622 1.353 . S
C1620 N1623 1.314 . S
C1620 H1626 0.930 . S
C1621 N1623 1.279 . S
C1621 C1624 1.358 . S
C1621 H1627 0.930 . S
C1622 C1620 1.353 . S
C1622 C1625 1.348 . S
C1622 H1660 0.929 . S
N1623 Li1578 1.990 . S
N1623 C1620 1.314 . S
N1623 C1621 1.279 . S
C1624 C1621 1.358 . S
C1624 C1625 1.356 . S
C1624 H1661 0.930 . S
C1625 C1622 1.348 . S
C1625 C1624 1.356 . S
H1626 C1620 0.930 . S
H1627 C1621 0.930 . S
C1628 N1629 1.314 . S
C1628 C1630 1.353 . S
C1628 H1634 0.930 . S
N1629 Li1579 1.990 . S
N1629 C1628 1.314 . S
N1629 C1632 1.279 . S
C1630 C1628 1.353 . S
C1630 C1633 1.348 . S
C1630 H1662 0.929 . S
C1631 C1632 1.358 . S
C1631 C1633 1.356 . S
C1631 H1663 0.930 . S
C1632 N1629 1.279 . S
C1632 C1631 1.358 . S
C1632 H1635 0.930 . S
C1633 C1630 1.348 . S
C1633 C1631 1.356 . S
H1634 C1628 0.930 . S
H1635 C1632 0.930 . S
O1636 Li1576 1.956 . S
O1636 Li1577 1.970 1_565 S
O1636 Li1578 1.961 . S
O1636 C1580 1.325 . S
O1637 Li1576 1.970 1_545 S
O1637 Li1577 1.956 . S
O1637 Li1579 1.961 . S
O1637 C1586 1.325 . S
O1638 Li1576 1.961 . S
O1638 Li1578 1.956 . S
O1638 Li1579 1.970 1_565 S
O1638 C1608 1.325 . S
O1639 Li1577 1.961 . S
O1639 Li1578 1.970 1_545 S
O1639 Li1579 1.956 . S
O1639 C1614 1.325 . S
H1640 C1582 0.929 . S
H1641 C1583 0.930 . S
H1642 C1584 0.930 . S
H1643 C1585 0.930 . S
H1644 C1587 0.930 . S
H1645 C1589 0.929 . S
H1646 C1590 0.930 . S
H1647 C1591 0.930 . S
H1648 C1594 0.930 . S
H1649 C1597 0.929 . S
H1650 C1602 0.929 . S
H1651 C1603 0.930 . S
H1652 C1610 0.929 . S
H1653 C1611 0.930 . S
H1654 C1612 0.930 . S
H1655 C1613 0.930 . S
H1656 C1615 0.929 . S
H1657 C1616 0.930 . S
H1658 C1617 0.930 . S
H1659 C1618 0.930 . S
H1660 C1622 0.929 . S
H1661 C1624 0.930 . S
H1662 C1630 0.929 . S
H1663 C1631 0.930 . S
Li1664 N1681 1.990 . S
Li1664 O1724 1.956 . S
Li1664 O1725 1.970 1_455 S
Li1664 O1726 1.961 . S
Li1665 N1689 1.990 . S
Li1665 O1724 1.970 1_655 S
Li1665 O1725 1.956 . S
Li1665 O1727 1.961 . S
Li1666 N1711 1.990 . S
Li1666 O1724 1.961 . S
Li1666 O1726 1.956 . S
Li1666 O1727 1.970 1_455 S
Li1667 N1717 1.990 . S
Li1667 O1725 1.961 . S
Li1667 O1726 1.970 1_655 S
Li1667 O1727 1.956 . S
C1668 C1670 1.348 . S
C1668 C1671 1.356 . S
C1668 O1724 1.325 . S
N1669 C1672 1.314 . S
N1669 C1673 1.279 . S
C1670 C1668 1.348 . S
C1670 C1672 1.353 . S
C1670 H1728 0.929 . S
C1671 C1668 1.356 . S
C1671 C1673 1.358 . S
C1671 H1729 0.930 . S
C1672 N1669 1.314 . S
C1672 C1670 1.353 . S
C1672 H1730 0.930 . S
C1673 N1669 1.279 . S
C1673 C1671 1.358 . S
C1673 H1731 0.930 . S
C1674 C1677 1.348 1_655 S
C1674 C1678 1.356 . S
C1674 O1725 1.325 . S
C1675 N1676 1.279 . S
C1675 C1678 1.358 . S
C1675 H1732 0.930 . S
N1676 C1675 1.279 . S
N1676 C1679 1.314 1_655 S
C1677 C1674 1.348 1_455 S
C1677 C1679 1.353 . S
C1677 H1733 0.929 . S
C1678 C1674 1.356 . S
C1678 C1675 1.358 . S
C1678 H1734 0.930 . S
C1679 N1676 1.314 1_455 S
C1679 C1677 1.353 . S
C1679 H1735 0.930 . S
C1680 N1681 1.314 . S
C1680 C1685 1.353 . S
C1680 H1686 0.930 . S
N1681 Li1664 1.990 . S
N1681 C1680 1.314 . S
N1681 C1683 1.279 . S
C1682 C1683 1.358 . S
C1682 C1684 1.356 . S
C1682 H1736 0.930 . S
C1683 N1681 1.279 . S
C1683 C1682 1.358 . S
C1683 H1687 0.930 . S
C1684 C1682 1.356 . S
C1684 C1685 1.348 . S
C1685 C1680 1.353 . S
C1685 C1684 1.348 . S
C1685 H1737 0.929 . S
H1686 C1680 0.930 . S
H1687 C1683 0.930 . S
C1688 N1689 1.314 . S
C1688 C1690 1.353 . S
C1688 H1694 0.930 . S
N1689 Li1665 1.990 . S
N1689 C1688 1.314 . S
N1689 C1692 1.279 . S
C1690 C1688 1.353 . S
C1690 C1693 1.348 . S
C1690 H1738 0.929 . S
C1691 C1692 1.358 . S
C1691 C1693 1.356 . S
C1691 H1739 0.930 . S
C1692 N1689 1.279 . S
C1692 C1691 1.358 . S
C1692 H1695 0.930 . S
C1693 C1690 1.348 . S
C1693 C1691 1.356 . S
H1694 C1688 0.930 . S
H1695 C1692 0.930 . S
C1696 C1698 1.348 1_455 S
C1696 C1699 1.356 . S
C1696 O1726 1.325 . S
N1697 C1700 1.314 1_455 S
N1697 C1701 1.279 . S
C1698 C1696 1.348 1_655 S
C1698 C1700 1.353 . S
C1698 H1740 0.929 . S
C1699 C1696 1.356 . S
C1699 C1701 1.358 . S
C1699 H1741 0.930 . S
C1700 N1697 1.314 1_655 S
C1700 C1698 1.353 . S
C1700 H1742 0.930 . S
C1701 N1697 1.279 . S
C1701 C1699 1.358 . S
C1701 H1743 0.930 . S
C1702 C1703 1.348 . S
C1702 C1704 1.356 . S
C1702 O1727 1.325 . S
C1703 C1702 1.348 . S
C1703 C1705 1.353 . S
C1703 H1744 0.929 . S
C1704 C1702 1.356 . S
C1704 C1706 1.358 . S
C1704 H1745 0.930 . S
C1705 C1703 1.353 . S
C1705 N1707 1.314 . S
C1705 H1746 0.930 . S
C1706 C1704 1.358 . S
C1706 N1707 1.279 . S
C1706 H1747 0.930 . S
N1707 C1705 1.314 . S
N1707 C1706 1.279 . S
C1708 C1710 1.353 . S
C1708 N1711 1.314 . S
C1708 H1714 0.930 . S
C1709 N1711 1.279 . S
C1709 C1712 1.358 . S
C1709 H1715 0.930 . S
C1710 C1708 1.353 . S
C1710 C1713 1.348 . S
C1710 H1748 0.929 . S
N1711 Li1666 1.990 . S
N1711 C1708 1.314 . S
N1711 C1709 1.279 . S
C1712 C1709 1.358 . S
C1712 C1713 1.356 . S
C1712 H1749 0.930 . S
C1713 C1710 1.348 . S
C1713 C1712 1.356 . S
H1714 C1708 0.930 . S
H1715 C1709 0.930 . S
C1716 N1717 1.314 . S
C1716 C1718 1.353 . S
C1716 H1722 0.930 . S
N1717 Li1667 1.990 . S
N1717 C1716 1.314 . S
N1717 C1720 1.279 . S
C1718 C1716 1.353 . S
C1718 C1721 1.348 . S
C1718 H1750 0.929 . S
C1719 C1720 1.358 . S
C1719 C1721 1.356 . S
C1719 H1751 0.930 . S
C1720 N1717 1.279 . S
C1720 C1719 1.358 . S
C1720 H1723 0.930 . S
C1721 C1718 1.348 . S
C1721 C1719 1.356 . S
H1722 C1716 0.930 . S
H1723 C1720 0.930 . S
O1724 Li1664 1.956 . S
O1724 Li1665 1.970 1_455 S
O1724 Li1666 1.961 . S
O1724 C1668 1.325 . S
O1725 Li1664 1.970 1_655 S
O1725 Li1665 1.956 . S
O1725 Li1667 1.961 . S
O1725 C1674 1.325 . S
O1726 Li1664 1.961 . S
O1726 Li1666 1.956 . S
O1726 Li1667 1.970 1_455 S
O1726 C1696 1.325 . S
O1727 Li1665 1.961 . S
O1727 Li1666 1.970 1_655 S
O1727 Li1667 1.956 . S
O1727 C1702 1.325 . S
H1728 C1670 0.929 . S
H1729 C1671 0.930 . S
H1730 C1672 0.930 . S
H1731 C1673 0.930 . S
H1732 C1675 0.930 . S
H1733 C1677 0.929 . S
H1734 C1678 0.930 . S
H1735 C1679 0.930 . S
H1736 C1682 0.930 . S
H1737 C1685 0.929 . S
H1738 C1690 0.929 . S
H1739 C1691 0.930 . S
H1740 C1698 0.929 . S
H1741 C1699 0.930 . S
H1742 C1700 0.930 . S
H1743 C1701 0.930 . S
H1744 C1703 0.929 . S
H1745 C1704 0.930 . S
H1746 C1705 0.930 . S
H1747 C1706 0.930 . S
H1748 C1710 0.929 . S
H1749 C1712 0.930 . S
H1750 C1718 0.929 . S
H1751 C1719 0.930 . S
Li1752 N1769 1.990 . S
Li1752 O1812 1.956 . S
Li1752 O1813 1.970 . S
Li1752 O1814 1.961 . S
Li1753 N1777 1.990 . S
Li1753 O1812 1.970 . S
Li1753 O1813 1.956 . S
Li1753 O1815 1.961 . S
Li1754 N1799 1.990 . S
Li1754 O1812 1.961 . S
Li1754 O1814 1.956 . S
Li1754 O1815 1.970 . S
Li1755 N1805 1.990 . S
Li1755 O1813 1.961 . S
Li1755 O1814 1.970 . S
Li1755 O1815 1.956 . S
C1756 C1758 1.348 . S
C1756 C1759 1.356 . S
C1756 O1812 1.325 . S
N1757 C1760 1.314 . S
N1757 C1761 1.279 . S
C1758 C1756 1.348 . S
C1758 C1760 1.353 . S
C1758 H1816 0.929 . S
C1759 C1756 1.356 . S
C1759 C1761 1.358 . S
C1759 H1817 0.930 . S
C1760 N1757 1.314 . S
C1760 C1758 1.353 . S
C1760 H1818 0.930 . S
C1761 N1757 1.279 . S
C1761 C1759 1.358 . S
C1761 H1819 0.930 . S
C1762 C1765 1.348 . S
C1762 C1766 1.356 . S
C1762 O1813 1.325 . S
C1763 N1764 1.279 . S
C1763 C1766 1.358 . S
C1763 H1820 0.930 . S
N1764 C1763 1.279 . S
N1764 C1767 1.314 . S
C1765 C1762 1.348 . S
C1765 C1767 1.353 . S
C1765 H1821 0.929 . S
C1766 C1762 1.356 . S
C1766 C1763 1.358 . S
C1766 H1822 0.930 . S
C1767 N1764 1.314 . S
C1767 C1765 1.353 . S
C1767 H1823 0.930 . S
C1768 N1769 1.314 . S
C1768 C1773 1.353 . S
C1768 H1774 0.930 . S
N1769 Li1752 1.990 . S
N1769 C1768 1.314 . S
N1769 C1771 1.279 . S
C1770 C1771 1.358 . S
C1770 C1772 1.356 . S
C1770 H1824 0.930 . S
C1771 N1769 1.279 . S
C1771 C1770 1.358 . S
C1771 H1775 0.930 . S
C1772 C1770 1.356 . S
C1772 C1773 1.348 . S
C1773 C1768 1.353 . S
C1773 C1772 1.348 . S
C1773 H1825 0.929 . S
H1774 C1768 0.930 . S
H1775 C1771 0.930 . S
C1776 N1777 1.314 . S
C1776 C1778 1.353 . S
C1776 H1782 0.930 . S
N1777 Li1753 1.990 . S
N1777 C1776 1.314 . S
N1777 C1780 1.279 . S
C1778 C1776 1.353 . S
C1778 C1781 1.348 . S
C1778 H1826 0.929 . S
C1779 C1780 1.358 . S
C1779 C1781 1.356 . S
C1779 H1827 0.930 . S
C1780 N1777 1.279 . S
C1780 C1779 1.358 . S
C1780 H1783 0.930 . S
C1781 C1778 1.348 . S
C1781 C1779 1.356 . S
H1782 C1776 0.930 . S
H1783 C1780 0.930 . S
C1784 C1786 1.348 . S
C1784 C1787 1.356 . S
C1784 O1814 1.325 . S
N1785 C1788 1.314 . S
N1785 C1789 1.279 . S
C1786 C1784 1.348 . S
C1786 C1788 1.353 . S
C1786 H1828 0.929 . S
C1787 C1784 1.356 . S
C1787 C1789 1.358 . S
C1787 H1829 0.930 . S
C1788 N1785 1.314 . S
C1788 C1786 1.353 . S
C1788 H1830 0.930 . S
C1789 N1785 1.279 . S
C1789 C1787 1.358 . S
C1789 H1831 0.930 . S
C1790 C1791 1.348 . S
C1790 C1792 1.356 . S
C1790 O1815 1.325 . S
C1791 C1790 1.348 . S
C1791 C1793 1.353 . S
C1791 H1832 0.929 . S
C1792 C1790 1.356 . S
C1792 C1794 1.358 . S
C1792 H1833 0.930 . S
C1793 C1791 1.353 . S
C1793 N1795 1.314 . S
C1793 H1834 0.930 . S
C1794 C1792 1.358 . S
C1794 N1795 1.279 . S
C1794 H1835 0.930 . S
N1795 C1793 1.314 . S
N1795 C1794 1.279 . S
C1796 C1798 1.353 . S
C1796 N1799 1.314 . S
C1796 H1802 0.930 . S
C1797 N1799 1.279 . S
C1797 C1800 1.358 . S
C1797 H1803 0.930 . S
C1798 C1796 1.353 . S
C1798 C1801 1.348 . S
C1798 H1836 0.929 . S
N1799 Li1754 1.990 . S
N1799 C1796 1.314 . S
N1799 C1797 1.279 . S
C1800 C1797 1.358 . S
C1800 C1801 1.356 . S
C1800 H1837 0.930 . S
C1801 C1798 1.348 . S
C1801 C1800 1.356 . S
H1802 C1796 0.930 . S
H1803 C1797 0.930 . S
C1804 N1805 1.314 . S
C1804 C1806 1.353 . S
C1804 H1810 0.930 . S
N1805 Li1755 1.990 . S
N1805 C1804 1.314 . S
N1805 C1808 1.279 . S
C1806 C1804 1.353 . S
C1806 C1809 1.348 . S
C1806 H1838 0.929 . S
C1807 C1808 1.358 . S
C1807 C1809 1.356 . S
C1807 H1839 0.930 . S
C1808 N1805 1.279 . S
C1808 C1807 1.358 . S
C1808 H1811 0.930 . S
C1809 C1806 1.348 . S
C1809 C1807 1.356 . S
H1810 C1804 0.930 . S
H1811 C1808 0.930 . S
O1812 Li1752 1.956 . S
O1812 Li1753 1.970 . S
O1812 Li1754 1.961 . S
O1812 C1756 1.325 . S
O1813 Li1752 1.970 . S
O1813 Li1753 1.956 . S
O1813 Li1755 1.961 . S
O1813 C1762 1.325 . S
O1814 Li1752 1.961 . S
O1814 Li1754 1.956 . S
O1814 Li1755 1.970 . S
O1814 C1784 1.325 . S
O1815 Li1753 1.961 . S
O1815 Li1754 1.970 . S
O1815 Li1755 1.956 . S
O1815 C1790 1.325 . S
H1816 C1758 0.929 . S
H1817 C1759 0.930 . S
H1818 C1760 0.930 . S
H1819 C1761 0.930 . S
H1820 C1763 0.930 . S
H1821 C1765 0.929 . S
H1822 C1766 0.930 . S
H1823 C1767 0.930 . S
H1824 C1770 0.930 . S
H1825 C1773 0.929 . S
H1826 C1778 0.929 . S
H1827 C1779 0.930 . S
H1828 C1786 0.929 . S
H1829 C1787 0.930 . S
H1830 C1788 0.930 . S
H1831 C1789 0.930 . S
H1832 C1791 0.929 . S
H1833 C1792 0.930 . S
H1834 C1793 0.930 . S
H1835 C1794 0.930 . S
H1836 C1798 0.929 . S
H1837 C1800 0.930 . S
H1838 C1806 0.929 . S
H1839 C1807 0.930 . S
Li1840 N1857 1.990 . S
Li1840 O1900 1.956 . S
Li1840 O1901 1.970 1_455 S
Li1840 O1902 1.961 . S
Li1841 N1865 1.990 . S
Li1841 O1900 1.970 1_655 S
Li1841 O1901 1.956 . S
Li1841 O1903 1.961 . S
Li1842 N1887 1.990 . S
Li1842 O1900 1.961 . S
Li1842 O1902 1.956 . S
Li1842 O1903 1.970 1_455 S
Li1843 N1893 1.990 . S
Li1843 O1901 1.961 . S
Li1843 O1902 1.970 1_655 S
Li1843 O1903 1.956 . S
C1844 C1846 1.348 1_455 S
C1844 C1847 1.356 . S
C1844 O1900 1.325 . S
N1845 C1848 1.314 1_455 S
N1845 C1849 1.279 . S
C1846 C1844 1.348 1_655 S
C1846 C1848 1.353 . S
C1846 H1904 0.929 . S
C1847 C1844 1.356 . S
C1847 C1849 1.358 . S
C1847 H1905 0.930 . S
C1848 N1845 1.314 1_655 S
C1848 C1846 1.353 . S
C1848 H1906 0.930 . S
C1849 N1845 1.279 . S
C1849 C1847 1.358 . S
C1849 H1907 0.930 . S
C1850 C1853 1.348 . S
C1850 C1854 1.356 . S
C1850 O1901 1.325 . S
C1851 N1852 1.279 . S
C1851 C1854 1.358 . S
C1851 H1908 0.930 . S
N1852 C1851 1.279 . S
N1852 C1855 1.314 . S
C1853 C1850 1.348 . S
C1853 C1855 1.353 . S
C1853 H1909 0.929 . S
C1854 C1850 1.356 . S
C1854 C1851 1.358 . S
C1854 H1910 0.930 . S
C1855 N1852 1.314 . S
C1855 C1853 1.353 . S
C1855 H1911 0.930 . S
C1856 N1857 1.314 . S
C1856 C1861 1.353 . S
C1856 H1862 0.930 . S
N1857 Li1840 1.990 . S
N1857 C1856 1.314 . S
N1857 C1859 1.279 . S
C1858 C1859 1.358 . S
C1858 C1860 1.356 . S
C1858 H1912 0.930 . S
C1859 N1857 1.279 . S
C1859 C1858 1.358 . S
C1859 H1863 0.930 . S
C1860 C1858 1.356 . S
C1860 C1861 1.348 . S
C1861 C1856 1.353 . S
C1861 C1860 1.348 . S
C1861 H1913 0.929 . S
H1862 C1856 0.930 . S
H1863 C1859 0.930 . S
C1864 N1865 1.314 . S
C1864 C1866 1.353 . S
C1864 H1870 0.930 . S
N1865 Li1841 1.990 . S
N1865 C1864 1.314 . S
N1865 C1868 1.279 . S
C1866 C1864 1.353 . S
C1866 C1869 1.348 . S
C1866 H1914 0.929 . S
C1867 C1868 1.358 . S
C1867 C1869 1.356 . S
C1867 H1915 0.930 . S
C1868 N1865 1.279 . S
C1868 C1867 1.358 . S
C1868 H1871 0.930 . S
C1869 C1866 1.348 . S
C1869 C1867 1.356 . S
H1870 C1864 0.930 . S
H1871 C1868 0.930 . S
C1872 C1874 1.348 . S
C1872 C1875 1.356 . S
C1872 O1902 1.325 . S
N1873 C1876 1.314 . S
N1873 C1877 1.279 . S
C1874 C1872 1.348 . S
C1874 C1876 1.353 . S
C1874 H1916 0.929 . S
C1875 C1872 1.356 . S
C1875 C1877 1.358 . S
C1875 H1917 0.930 . S
C1876 N1873 1.314 . S
C1876 C1874 1.353 . S
C1876 H1918 0.930 . S
C1877 N1873 1.279 . S
C1877 C1875 1.358 . S
C1877 H1919 0.930 . S
C1878 C1879 1.348 1_655 S
C1878 C1880 1.356 . S
C1878 O1903 1.325 . S
C1879 C1878 1.348 1_455 S
C1879 C1881 1.353 . S
C1879 H1920 0.929 . S
C1880 C1878 1.356 . S
C1880 C1882 1.358 . S
C1880 H1921 0.930 . S
C1881 C1879 1.353 . S
C1881 N1883 1.314 1_455 S
C1881 H1922 0.930 . S
C1882 C1880 1.358 . S
C1882 N1883 1.279 . S
C1882 H1923 0.930 . S
N1883 C1881 1.314 1_655 S
N1883 C1882 1.279 . S
C1884 C1886 1.353 . S
C1884 N1887 1.314 . S
C1884 H1890 0.930 . S
C1885 N1887 1.279 . S
C1885 C1888 1.358 . S
C1885 H1891 0.930 . S
C1886 C1884 1.353 . S
C1886 C1889 1.348 . S
C1886 H1924 0.929 . S
N1887 Li1842 1.990 . S
N1887 C1884 1.314 . S
N1887 C1885 1.279 . S
C1888 C1885 1.358 . S
C1888 C1889 1.356 . S
C1888 H1925 0.930 . S
C1889 C1886 1.348 . S
C1889 C1888 1.356 . S
H1890 C1884 0.930 . S
H1891 C1885 0.930 . S
C1892 N1893 1.314 . S
C1892 C1894 1.353 . S
C1892 H1898 0.930 . S
N1893 Li1843 1.990 . S
N1893 C1892 1.314 . S
N1893 C1896 1.279 . S
C1894 C1892 1.353 . S
C1894 C1897 1.348 . S
C1894 H1926 0.929 . S
C1895 C1896 1.358 . S
C1895 C1897 1.356 . S
C1895 H1927 0.930 . S
C1896 N1893 1.279 . S
C1896 C1895 1.358 . S
C1896 H1899 0.930 . S
C1897 C1894 1.348 . S
C1897 C1895 1.356 . S
H1898 C1892 0.930 . S
H1899 C1896 0.930 . S
O1900 Li1840 1.956 . S
O1900 Li1841 1.970 1_455 S
O1900 Li1842 1.961 . S
O1900 C1844 1.325 . S
O1901 Li1840 1.970 1_655 S
O1901 Li1841 1.956 . S
O1901 Li1843 1.961 . S
O1901 C1850 1.325 . S
O1902 Li1840 1.961 . S
O1902 Li1842 1.956 . S
O1902 Li1843 1.970 1_455 S
O1902 C1872 1.325 . S
O1903 Li1841 1.961 . S
O1903 Li1842 1.970 1_655 S
O1903 Li1843 1.956 . S
O1903 C1878 1.325 . S
H1904 C1846 0.929 . S
H1905 C1847 0.930 . S
H1906 C1848 0.930 . S
H1907 C1849 0.930 . S
H1908 C1851 0.930 . S
H1909 C1853 0.929 . S
H1910 C1854 0.930 . S
H1911 C1855 0.930 . S
H1912 C1858 0.930 . S
H1913 C1861 0.929 . S
H1914 C1866 0.929 . S
H1915 C1867 0.930 . S
H1916 C1874 0.929 . S
H1917 C1875 0.930 . S
H1918 C1876 0.930 . S
H1919 C1877 0.930 . S
H1920 C1879 0.929 . S
H1921 C1880 0.930 . S
H1922 C1881 0.930 . S
H1923 C1882 0.930 . S
H1924 C1886 0.929 . S
H1925 C1888 0.930 . S
H1926 C1894 0.929 . S
H1927 C1895 0.930 . S
Li1928 N1945 1.990 . S
Li1928 O1988 1.956 . S
Li1928 O1989 1.970 . S
Li1928 O1990 1.961 . S
Li1929 N1953 1.990 . S
Li1929 O1988 1.970 . S
Li1929 O1989 1.956 . S
Li1929 O1991 1.961 . S
Li1930 N1975 1.990 . S
Li1930 O1988 1.961 . S
Li1930 O1990 1.956 . S
Li1930 O1991 1.970 . S
Li1931 N1981 1.990 . S
Li1931 O1989 1.961 . S
Li1931 O1990 1.970 . S
Li1931 O1991 1.956 . S
C1932 C1934 1.348 . S
C1932 C1935 1.356 . S
C1932 O1988 1.325 . S
N1933 C1936 1.314 . S
N1933 C1937 1.279 . S
C1934 C1932 1.348 . S
C1934 C1936 1.353 . S
C1934 H1992 0.929 . S
C1935 C1932 1.356 . S
C1935 C1937 1.358 . S
C1935 H1993 0.930 . S
C1936 N1933 1.314 . S
C1936 C1934 1.353 . S
C1936 H1994 0.930 . S
C1937 N1933 1.279 . S
C1937 C1935 1.358 . S
C1937 H1995 0.930 . S
C1938 C1941 1.348 . S
C1938 C1942 1.356 . S
C1938 O1989 1.325 . S
C1939 N1940 1.279 . S
C1939 C1942 1.358 . S
C1939 H1996 0.930 . S
N1940 C1939 1.279 . S
N1940 C1943 1.314 . S
C1941 C1938 1.348 . S
C1941 C1943 1.353 . S
C1941 H1997 0.929 . S
C1942 C1938 1.356 . S
C1942 C1939 1.358 . S
C1942 H1998 0.930 . S
C1943 N1940 1.314 . S
C1943 C1941 1.353 . S
C1943 H1999 0.930 . S
C1944 N1945 1.314 . S
C1944 C1949 1.353 . S
C1944 H1950 0.930 . S
N1945 Li1928 1.990 . S
N1945 C1944 1.314 . S
N1945 C1947 1.279 . S
C1946 C1947 1.358 . S
C1946 C1948 1.356 . S
C1946 H2000 0.930 . S
C1947 N1945 1.279 . S
C1947 C1946 1.358 . S
C1947 H1951 0.930 . S
C1948 C1946 1.356 . S
C1948 C1949 1.348 . S
C1949 C1944 1.353 . S
C1949 C1948 1.348 . S
C1949 H2001 0.929 . S
H1950 C1944 0.930 . S
H1951 C1947 0.930 . S
C1952 N1953 1.314 . S
C1952 C1954 1.353 . S
C1952 H1958 0.930 . S
N1953 Li1929 1.990 . S
N1953 C1952 1.314 . S
N1953 C1956 1.279 . S
C1954 C1952 1.353 . S
C1954 C1957 1.348 . S
C1954 H2002 0.929 . S
C1955 C1956 1.358 . S
C1955 C1957 1.356 . S
C1955 H2003 0.930 . S
C1956 N1953 1.279 . S
C1956 C1955 1.358 . S
C1956 H1959 0.930 . S
C1957 C1954 1.348 . S
C1957 C1955 1.356 . S
H1958 C1952 0.930 . S
H1959 C1956 0.930 . S
C1960 C1962 1.348 . S
C1960 C1963 1.356 . S
C1960 O1990 1.325 . S
N1961 C1964 1.314 . S
N1961 C1965 1.279 . S
C1962 C1960 1.348 . S
C1962 C1964 1.353 . S
C1962 H2004 0.929 . S
C1963 C1960 1.356 . S
C1963 C1965 1.358 . S
C1963 H2005 0.930 . S
C1964 N1961 1.314 . S
C1964 C1962 1.353 . S
C1964 H2006 0.930 . S
C1965 N1961 1.279 . S
C1965 C1963 1.358 . S
C1965 H2007 0.930 . S
C1966 C1967 1.348 . S
C1966 C1968 1.356 . S
C1966 O1991 1.325 . S
C1967 C1966 1.348 . S
C1967 C1969 1.353 . S
C1967 H2008 0.929 . S
C1968 C1966 1.356 . S
C1968 C1970 1.358 . S
C1968 H2009 0.930 . S
C1969 C1967 1.353 . S
C1969 N1971 1.314 . S
C1969 H2010 0.930 . S
C1970 C1968 1.358 . S
C1970 N1971 1.279 . S
C1970 H2011 0.930 . S
N1971 C1969 1.314 . S
N1971 C1970 1.279 . S
C1972 C1974 1.353 . S
C1972 N1975 1.314 . S
C1972 H1978 0.930 . S
C1973 N1975 1.279 . S
C1973 C1976 1.358 . S
C1973 H1979 0.930 . S
C1974 C1972 1.353 . S
C1974 C1977 1.348 . S
C1974 H2012 0.929 . S
N1975 Li1930 1.990 . S
N1975 C1972 1.314 . S
N1975 C1973 1.279 . S
C1976 C1973 1.358 . S
C1976 C1977 1.356 . S
C1976 H2013 0.930 . S
C1977 C1974 1.348 . S
C1977 C1976 1.356 . S
H1978 C1972 0.930 . S
H1979 C1973 0.930 . S
C1980 N1981 1.314 . S
C1980 C1982 1.353 . S
C1980 H1986 0.930 . S
N1981 Li1931 1.990 . S
N1981 C1980 1.314 . S
N1981 C1984 1.279 . S
C1982 C1980 1.353 . S
C1982 C1985 1.348 . S
C1982 H2014 0.929 . S
C1983 C1984 1.358 . S
C1983 C1985 1.356 . S
C1983 H2015 0.930 . S
C1984 N1981 1.279 . S
C1984 C1983 1.358 . S
C1984 H1987 0.930 . S
C1985 C1982 1.348 . S
C1985 C1983 1.356 . S
H1986 C1980 0.930 . S
H1987 C1984 0.930 . S
O1988 Li1928 1.956 . S
O1988 Li1929 1.970 . S
O1988 Li1930 1.961 . S
O1988 C1932 1.325 . S
O1989 Li1928 1.970 . S
O1989 Li1929 1.956 . S
O1989 Li1931 1.961 . S
O1989 C1938 1.325 . S
O1990 Li1928 1.961 . S
O1990 Li1930 1.956 . S
O1990 Li1931 1.970 . S
O1990 C1960 1.325 . S
O1991 Li1929 1.961 . S
O1991 Li1930 1.970 . S
O1991 Li1931 1.956 . S
O1991 C1966 1.325 . S
H1992 C1934 0.929 . S
H1993 C1935 0.930 . S
H1994 C1936 0.930 . S
H1995 C1937 0.930 . S
H1996 C1939 0.930 . S
H1997 C1941 0.929 . S
H1998 C1942 0.930 . S
H1999 C1943 0.930 . S
H2000 C1946 0.930 . S
H2001 C1949 0.929 . S
H2002 C1954 0.929 . S
H2003 C1955 0.930 . S
H2004 C1962 0.929 . S
H2005 C1963 0.930 . S
H2006 C1964 0.930 . S
H2007 C1965 0.930 . S
H2008 C1967 0.929 . S
H2009 C1968 0.930 . S
H2010 C1969 0.930 . S
H2011 C1970 0.930 . S
H2012 C1974 0.929 . S
H2013 C1976 0.930 . S
H2014 C1982 0.929 . S
H2015 C1983 0.930 . S
H2016 C2024 0.929 . S
H2017 C2026 0.930 . S
H2018 C2028 0.930 . S
H2019 C2031 0.929 . S
H2020 C2034 0.930 . S
H2021 C2036 0.960 . S
H2022 C2036 0.960 . S
H2023 C2036 0.960 . S
C2024 H2016 0.929 . S
C2024 C2025 1.377 . S
C2024 C2026 1.384 . S
C2025 C2024 1.377 . S
C2025 C2031 1.390 . S
C2026 H2017 0.930 . S
C2026 C2024 1.384 . S
C2026 C2027 1.372 . S
C2027 C2026 1.372 . S
C2027 C2028 1.400 . S
C2027 C2032 1.490 . S
C2028 H2018 0.930 . S
C2028 C2027 1.400 . S
C2028 C2031 1.386 . S
H2029 C2045 0.930 . S
H2030 C2046 0.931 . S
C2031 H2019 0.929 . S
C2031 C2025 1.390 . S
C2031 C2028 1.386 . S
C2032 C2027 1.490 . S
C2032 C2034 1.395 . S
C2032 C2035 1.403 . S
H2033 C2039 0.930 . S
C2034 H2020 0.930 . S
C2034 C2032 1.395 . S
C2034 C2037 1.403 . S
C2035 C2032 1.403 . S
C2035 C2036 1.524 . S
C2035 C2039 1.400 . S
C2036 H2021 0.960 . S
C2036 H2022 0.960 . S
C2036 H2023 0.960 . S
C2036 C2035 1.524 . S
C2037 C2034 1.403 . S
C2037 C2038 1.392 . S
C2037 C2041 1.495 . S
C2038 C2037 1.392 . S
C2038 C2039 1.385 . S
C2038 C2040 1.478 . S
C2039 H2033 0.930 . S
C2039 C2035 1.400 . S
C2039 C2038 1.385 . S
C2040 C2038 1.478 . S
C2040 C2042 1.381 . S
C2040 C2046 1.383 . S
C2041 C2037 1.495 . S
C2041 H2047 0.959 . S
C2041 H2048 0.961 . S
C2041 H2049 0.960 . S
C2042 C2040 1.381 . S
C2042 C2043 1.394 . S
C2042 H2050 0.930 . S
C2043 C2042 1.394 . S
C2043 C2044 1.383 . S
C2043 H2051 0.929 . S
C2044 C2043 1.383 . S
C2044 C2045 1.377 . S
C2045 H2029 0.930 . S
C2045 C2044 1.377 . S
C2045 C2046 1.379 . S
C2046 H2030 0.931 . S
C2046 C2040 1.383 . S
C2046 C2045 1.379 . S
H2047 C2041 0.959 . S
H2048 C2041 0.961 . S
H2049 C2041 0.960 . S
H2050 C2042 0.930 . S
H2051 C2043 0.929 . S
H2052 C2060 0.929 . S
H2053 C2062 0.930 . S
H2054 C2064 0.930 . S
H2055 C2067 0.929 . S
H2056 C2070 0.930 . S
H2057 C2072 0.960 . S
H2058 C2072 0.960 . S
H2059 C2072 0.960 . S
C2060 H2052 0.929 . S
C2060 C2061 1.377 . S
C2060 C2062 1.384 . S
C2061 C2060 1.377 . S
C2061 C2067 1.390 . S
C2062 H2053 0.930 . S
C2062 C2060 1.384 . S
C2062 C2063 1.372 . S
C2063 C2062 1.372 . S
C2063 C2064 1.400 . S
C2063 C2068 1.490 . S
C2064 H2054 0.930 . S
C2064 C2063 1.400 . S
C2064 C2067 1.386 . S
H2065 C2081 0.930 . S
H2066 C2082 0.931 . S
C2067 H2055 0.929 . S
C2067 C2061 1.390 . S
C2067 C2064 1.386 . S
C2068 C2063 1.490 . S
C2068 C2070 1.395 . S
C2068 C2071 1.403 . S
H2069 C2075 0.930 . S
C2070 H2056 0.930 . S
C2070 C2068 1.395 . S
C2070 C2073 1.403 . S
C2071 C2068 1.403 . S
C2071 C2072 1.524 . S
C2071 C2075 1.400 . S
C2072 H2057 0.960 . S
C2072 H2058 0.960 . S
C2072 H2059 0.960 . S
C2072 C2071 1.524 . S
C2073 C2070 1.403 . S
C2073 C2074 1.392 . S
C2073 C2077 1.495 . S
C2074 C2073 1.392 . S
C2074 C2075 1.385 . S
C2074 C2076 1.478 . S
C2075 H2069 0.930 . S
C2075 C2071 1.400 . S
C2075 C2074 1.385 . S
C2076 C2074 1.478 . S
C2076 C2078 1.381 . S
C2076 C2082 1.383 . S
C2077 C2073 1.495 . S
C2077 H2083 0.959 . S
C2077 H2084 0.961 . S
C2077 H2085 0.960 . S
C2078 C2076 1.381 . S
C2078 C2079 1.394 . S
C2078 H2086 0.930 . S
C2079 C2078 1.394 . S
C2079 C2080 1.383 . S
C2079 H2087 0.929 . S
C2080 C2079 1.383 . S
C2080 C2081 1.377 . S
C2081 H2065 0.930 . S
C2081 C2080 1.377 . S
C2081 C2082 1.379 . S
C2082 H2066 0.931 . S
C2082 C2076 1.383 . S
C2082 C2081 1.379 . S
H2083 C2077 0.959 . S
H2084 C2077 0.961 . S
H2085 C2077 0.960 . S
H2086 C2078 0.930 . S
H2087 C2079 0.929 . S
H2088 C2096 0.929 . S
H2089 C2098 0.930 . S
H2090 C2100 0.930 . S
H2091 C2103 0.929 . S
H2092 C2106 0.930 . S
H2093 C2108 0.960 . S
H2094 C2108 0.960 . S
H2095 C2108 0.960 . S
C2096 H2088 0.929 . S
C2096 C2097 1.377 . S
C2096 C2098 1.384 . S
C2097 C2096 1.377 . S
C2097 C2103 1.390 . S
C2098 H2089 0.930 . S
C2098 C2096 1.384 . S
C2098 C2099 1.372 . S
C2099 C2098 1.372 . S
C2099 C2100 1.400 . S
C2099 C2104 1.490 . S
C2100 H2090 0.930 . S
C2100 C2099 1.400 . S
C2100 C2103 1.386 . S
H2101 C2117 0.930 . S
H2102 C2118 0.931 . S
C2103 H2091 0.929 . S
C2103 C2097 1.390 . S
C2103 C2100 1.386 . S
C2104 C2099 1.490 . S
C2104 C2106 1.395 . S
C2104 C2107 1.403 . S
H2105 C2111 0.930 . S
C2106 H2092 0.930 . S
C2106 C2104 1.395 . S
C2106 C2109 1.403 . S
C2107 C2104 1.403 . S
C2107 C2108 1.524 . S
C2107 C2111 1.400 . S
C2108 H2093 0.960 . S
C2108 H2094 0.960 . S
C2108 H2095 0.960 . S
C2108 C2107 1.524 . S
C2109 C2106 1.403 . S
C2109 C2110 1.392 . S
C2109 C2113 1.495 . S
C2110 C2109 1.392 . S
C2110 C2111 1.385 . S
C2110 C2112 1.478 . S
C2111 H2105 0.930 . S
C2111 C2107 1.400 . S
C2111 C2110 1.385 . S
C2112 C2110 1.478 . S
C2112 C2114 1.381 . S
C2112 C2118 1.383 . S
C2113 C2109 1.495 . S
C2113 H2119 0.959 . S
C2113 H2120 0.961 . S
C2113 H2121 0.960 . S
C2114 C2112 1.381 . S
C2114 C2115 1.394 . S
C2114 H2122 0.930 . S
C2115 C2114 1.394 . S
C2115 C2116 1.383 . S
C2115 H2123 0.929 . S
C2116 C2115 1.383 . S
C2116 C2117 1.377 . S
C2117 H2101 0.930 . S
C2117 C2116 1.377 . S
C2117 C2118 1.379 . S
C2118 H2102 0.931 . S
C2118 C2112 1.383 . S
C2118 C2117 1.379 . S
H2119 C2113 0.959 . S
H2120 C2113 0.961 . S
H2121 C2113 0.960 . S
H2122 C2114 0.930 . S
H2123 C2115 0.929 . S
H2124 C2132 0.929 1_455 S
H2125 C2134 0.930 . S
H2126 C2136 0.930 . S
H2127 C2139 0.929 . S
H2128 C2142 0.930 . S
H2129 C2144 0.960 . S
H2130 C2144 0.960 . S
H2131 C2144 0.960 . S
C2132 H2124 0.929 1_655 S
C2132 C2133 1.377 . S
C2132 C2134 1.384 . S
C2133 C2132 1.377 . S
C2133 C2139 1.390 . S
C2134 H2125 0.930 . S
C2134 C2132 1.384 . S
C2134 C2135 1.372 . S
C2135 C2134 1.372 . S
C2135 C2136 1.400 . S
C2135 C2140 1.490 . S
C2136 H2126 0.930 . S
C2136 C2135 1.400 . S
C2136 C2139 1.386 . S
H2137 C2153 0.930 . S
H2138 C2154 0.931 . S
C2139 H2127 0.929 . S
C2139 C2133 1.390 . S
C2139 C2136 1.386 . S
C2140 C2135 1.490 . S
C2140 C2142 1.395 . S
C2140 C2143 1.403 . S
H2141 C2147 0.930 1_545 S
C2142 H2128 0.930 . S
C2142 C2140 1.395 . S
C2142 C2145 1.403 . S
C2143 C2140 1.403 . S
C2143 C2144 1.524 1_565 S
C2143 C2147 1.400 . S
C2144 H2129 0.960 . S
C2144 H2130 0.960 . S
C2144 H2131 0.960 . S
C2144 C2143 1.524 1_545 S
C2145 C2142 1.403 . S
C2145 C2146 1.392 . S
C2145 C2149 1.495 . S
C2146 C2145 1.392 . S
C2146 C2147 1.385 . S
C2146 C2148 1.478 . S
C2147 H2141 0.930 1_565 S
C2147 C2143 1.400 . S
C2147 C2146 1.385 . S
C2148 C2146 1.478 . S
C2148 C2150 1.381 . S
C2148 C2154 1.383 . S
C2149 C2145 1.495 . S
C2149 H2155 0.959 . S
C2149 H2156 0.961 . S
C2149 H2157 0.960 . S
C2150 C2148 1.381 . S
C2150 C2151 1.394 . S
C2150 H2158 0.930 . S
C2151 C2150 1.394 . S
C2151 C2152 1.383 . S
C2151 H2159 0.929 . S
C2152 C2151 1.383 . S
C2152 C2153 1.377 . S
C2153 H2137 0.930 . S
C2153 C2152 1.377 . S
C2153 C2154 1.379 . S
C2154 H2138 0.931 . S
C2154 C2148 1.383 . S
C2154 C2153 1.379 . S
H2155 C2149 0.959 . S
H2156 C2149 0.961 . S
H2157 C2149 0.960 . S
H2158 C2150 0.930 . S
H2159 C2151 0.929 . S
H2160 C2168 0.929 . S
H2161 C2170 0.930 . S
H2162 C2172 0.930 . S
H2163 C2175 0.929 . S
H2164 C2178 0.930 . S
H2165 C2180 0.960 . S
H2166 C2180 0.960 . S
H2167 C2180 0.960 . S
C2168 H2160 0.929 . S
C2168 C2169 1.377 . S
C2168 C2170 1.384 . S
C2169 C2168 1.377 . S
C2169 C2175 1.390 . S
C2170 H2161 0.930 . S
C2170 C2168 1.384 . S
C2170 C2171 1.372 . S
C2171 C2170 1.372 . S
C2171 C2172 1.400 . S
C2171 C2176 1.490 . S
C2172 H2162 0.930 . S
C2172 C2171 1.400 . S
C2172 C2175 1.386 . S
H2173 C2189 0.930 . S
H2174 C2190 0.931 . S
C2175 H2163 0.929 . S
C2175 C2169 1.390 . S
C2175 C2172 1.386 . S
C2176 C2171 1.490 . S
C2176 C2178 1.395 . S
C2176 C2179 1.403 . S
H2177 C2183 0.930 . S
C2178 H2164 0.930 . S
C2178 C2176 1.395 . S
C2178 C2181 1.403 . S
C2179 C2176 1.403 . S
C2179 C2180 1.524 . S
C2179 C2183 1.400 . S
C2180 H2165 0.960 . S
C2180 H2166 0.960 . S
C2180 H2167 0.960 . S
C2180 C2179 1.524 . S
C2181 C2178 1.403 . S
C2181 C2182 1.392 . S
C2181 C2185 1.495 . S
C2182 C2181 1.392 . S
C2182 C2183 1.385 . S
C2182 C2184 1.478 . S
C2183 H2177 0.930 . S
C2183 C2179 1.400 . S
C2183 C2182 1.385 . S
C2184 C2182 1.478 . S
C2184 C2186 1.381 . S
C2184 C2190 1.383 . S
C2185 C2181 1.495 . S
C2185 H2191 0.959 . S
C2185 H2192 0.961 . S
C2185 H2193 0.960 . S
C2186 C2184 1.381 . S
C2186 C2187 1.394 . S
C2186 H2194 0.930 . S
C2187 C2186 1.394 . S
C2187 C2188 1.383 . S
C2187 H2195 0.929 . S
C2188 C2187 1.383 . S
C2188 C2189 1.377 . S
C2189 H2173 0.930 . S
C2189 C2188 1.377 . S
C2189 C2190 1.379 . S
C2190 H2174 0.931 . S
C2190 C2184 1.383 . S
C2190 C2189 1.379 . S
H2191 C2185 0.959 . S
H2192 C2185 0.961 . S
H2193 C2185 0.960 . S
H2194 C2186 0.930 . S
H2195 C2187 0.929 . S
H2196 C2204 0.929 . S
H2197 C2206 0.930 . S
H2198 C2208 0.930 . S
H2199 C2211 0.929 . S
H2200 C2214 0.930 . S
H2201 C2216 0.960 . S
H2202 C2216 0.960 . S
H2203 C2216 0.960 . S
C2204 H2196 0.929 . S
C2204 C2205 1.377 . S
C2204 C2206 1.384 . S
C2205 C2204 1.377 . S
C2205 C2211 1.390 . S
C2206 H2197 0.930 . S
C2206 C2204 1.384 . S
C2206 C2207 1.372 . S
C2207 C2206 1.372 . S
C2207 C2208 1.400 . S
C2207 C2212 1.490 . S
C2208 H2198 0.930 . S
C2208 C2207 1.400 . S
C2208 C2211 1.386 . S
H2209 C2225 0.930 . S
H2210 C2226 0.931 . S
C2211 H2199 0.929 . S
C2211 C2205 1.390 . S
C2211 C2208 1.386 . S
C2212 C2207 1.490 . S
C2212 C2214 1.395 . S
C2212 C2215 1.403 . S
H2213 C2219 0.930 . S
C2214 H2200 0.930 . S
C2214 C2212 1.395 . S
C2214 C2217 1.403 . S
C2215 C2212 1.403 . S
C2215 C2216 1.524 . S
C2215 C2219 1.400 . S
C2216 H2201 0.960 . S
C2216 H2202 0.960 . S
C2216 H2203 0.960 . S
C2216 C2215 1.524 . S
C2217 C2214 1.403 . S
C2217 C2218 1.392 . S
C2217 C2221 1.495 . S
C2218 C2217 1.392 . S
C2218 C2219 1.385 . S
C2218 C2220 1.478 . S
C2219 H2213 0.930 . S
C2219 C2215 1.400 . S
C2219 C2218 1.385 . S
C2220 C2218 1.478 . S
C2220 C2222 1.381 . S
C2220 C2226 1.383 . S
C2221 C2217 1.495 . S
C2221 H2227 0.959 . S
C2221 H2228 0.961 . S
C2221 H2229 0.960 . S
C2222 C2220 1.381 . S
C2222 C2223 1.394 . S
C2222 H2230 0.930 . S
C2223 C2222 1.394 . S
C2223 C2224 1.383 . S
C2223 H2231 0.929 . S
C2224 C2223 1.383 . S
C2224 C2225 1.377 . S
C2225 H2209 0.930 . S
C2225 C2224 1.377 . S
C2225 C2226 1.379 . S
C2226 H2210 0.931 . S
C2226 C2220 1.383 . S
C2226 C2225 1.379 . S
H2227 C2221 0.959 . S
H2228 C2221 0.961 . S
H2229 C2221 0.960 . S
H2230 C2222 0.930 . S
H2231 C2223 0.929 . S
H2232 C2240 0.929 . S
H2233 C2242 0.930 . S
H2234 C2244 0.930 . S
H2235 C2247 0.929 . S
H2236 C2250 0.930 . S
H2237 C2252 0.960 . S
H2238 C2252 0.960 . S
H2239 C2252 0.960 . S
C2240 H2232 0.929 . S
C2240 C2241 1.377 . S
C2240 C2242 1.384 . S
C2241 C2240 1.377 . S
C2241 C2247 1.390 . S
C2242 H2233 0.930 . S
C2242 C2240 1.384 . S
C2242 C2243 1.372 . S
C2243 C2242 1.372 . S
C2243 C2244 1.400 . S
C2243 C2248 1.490 . S
C2244 H2234 0.930 . S
C2244 C2243 1.400 . S
C2244 C2247 1.386 . S
H2245 C2261 0.930 . S
H2246 C2262 0.931 . S
C2247 H2235 0.929 . S
C2247 C2241 1.390 . S
C2247 C2244 1.386 . S
C2248 C2243 1.490 . S
C2248 C2250 1.395 . S
C2248 C2251 1.403 . S
H2249 C2255 0.930 . S
C2250 H2236 0.930 . S
C2250 C2248 1.395 . S
C2250 C2253 1.403 . S
C2251 C2248 1.403 . S
C2251 C2252 1.524 . S
C2251 C2255 1.400 . S
C2252 H2237 0.960 . S
C2252 H2238 0.960 . S
C2252 H2239 0.960 . S
C2252 C2251 1.524 . S
C2253 C2250 1.403 . S
C2253 C2254 1.392 . S
C2253 C2257 1.495 . S
C2254 C2253 1.392 . S
C2254 C2255 1.385 . S
C2254 C2256 1.478 . S
C2255 H2249 0.930 . S
C2255 C2251 1.400 . S
C2255 C2254 1.385 . S
C2256 C2254 1.478 . S
C2256 C2258 1.381 . S
C2256 C2262 1.383 . S
C2257 C2253 1.495 . S
C2257 H2263 0.959 . S
C2257 H2264 0.961 . S
C2257 H2265 0.960 . S
C2258 C2256 1.381 . S
C2258 C2259 1.394 . S
C2258 H2266 0.930 . S
C2259 C2258 1.394 . S
C2259 C2260 1.383 . S
C2259 H2267 0.929 . S
C2260 C2259 1.383 . S
C2260 C2261 1.377 . S
C2261 H2245 0.930 . S
C2261 C2260 1.377 . S
C2261 C2262 1.379 . S
C2262 H2246 0.931 . S
C2262 C2256 1.383 . S
C2262 C2261 1.379 . S
H2263 C2257 0.959 . S
H2264 C2257 0.961 . S
H2265 C2257 0.960 . S
H2266 C2258 0.930 . S
H2267 C2259 0.929 . S
H2268 C2276 0.931 . S
H2269 C2278 0.930 1_545 S
H2270 C2280 0.930 . S
H2271 C2283 0.929 . S
H2272 C2286 0.930 . S
H2273 C2288 0.960 . S
H2274 C2288 0.960 . S
H2275 C2288 0.960 . S
C2276 H2268 0.931 . S
C2276 C2277 1.377 . S
C2276 C2278 1.384 . S
C2277 C2276 1.377 . S
C2277 C2283 1.390 . S
C2278 H2269 0.930 1_565 S
C2278 C2276 1.384 . S
C2278 C2279 1.372 . S
C2279 C2278 1.372 . S
C2279 C2280 1.400 . S
C2279 C2284 1.490 . S
C2280 H2270 0.930 . S
C2280 C2279 1.400 . S
C2280 C2283 1.386 . S
H2281 C2297 0.930 . S
H2282 C2298 0.931 . S
C2283 H2271 0.929 . S
C2283 C2277 1.390 . S
C2283 C2280 1.386 . S
C2284 C2279 1.490 . S
C2284 C2286 1.395 . S
C2284 C2287 1.403 . S
H2285 C2291 0.930 . S
C2286 H2272 0.930 . S
C2286 C2284 1.395 . S
C2286 C2289 1.403 . S
C2287 C2284 1.403 . S
C2287 C2288 1.524 . S
C2287 C2291 1.400 . S
C2288 H2273 0.960 . S
C2288 H2274 0.960 . S
C2288 H2275 0.960 . S
C2288 C2287 1.524 . S
C2289 C2286 1.403 . S
C2289 C2290 1.392 . S
C2289 C2293 1.495 . S
C2290 C2289 1.392 . S
C2290 C2291 1.385 . S
C2290 C2292 1.478 . S
C2291 H2285 0.930 . S
C2291 C2287 1.400 . S
C2291 C2290 1.385 . S
C2292 C2290 1.478 . S
C2292 C2294 1.381 1_565 S
C2292 C2298 1.383 . S
C2293 C2289 1.495 . S
C2293 H2299 0.975 . S
C2293 H2300 0.961 . S
C2293 H2301 0.960 1_565 S
C2294 C2292 1.381 1_545 S
C2294 C2295 1.394 . S
C2294 H2302 0.930 . S
C2295 C2294 1.394 . S
C2295 C2296 1.383 1_545 S
C2295 H2303 0.929 . S
C2296 C2295 1.383 1_565 S
C2296 C2297 1.377 . S
C2297 H2281 0.930 . S
C2297 C2296 1.377 . S
C2297 C2298 1.379 . S
C2298 H2282 0.931 . S
C2298 C2292 1.383 . S
C2298 C2297 1.379 . S
H2299 C2293 0.975 . S
H2300 C2293 0.961 . S
H2301 C2293 0.960 1_545 S
H2302 C2294 0.930 . S
H2303 C2295 0.929 . S
H2304 C2312 0.929 . S
H2305 C2314 0.930 . S
H2306 C2316 0.930 . S
H2307 C2319 0.929 . S
H2308 C2322 0.930 . S
H2309 C2324 0.960 . S
H2310 C2324 0.960 . S
H2311 C2324 0.960 . S
C2312 H2304 0.929 . S
C2312 C2313 1.377 . S
C2312 C2314 1.384 . S
C2313 C2312 1.377 . S
C2313 C2319 1.390 . S
C2314 H2305 0.930 . S
C2314 C2312 1.384 . S
C2314 C2315 1.372 . S
C2315 C2314 1.372 . S
C2315 C2316 1.400 . S
C2315 C2320 1.490 . S
C2316 H2306 0.930 . S
C2316 C2315 1.400 . S
C2316 C2319 1.386 . S
H2317 C2333 0.930 . S
H2318 C2334 0.931 . S
C2319 H2307 0.929 . S
C2319 C2313 1.390 . S
C2319 C2316 1.386 . S
C2320 C2315 1.490 . S
C2320 C2322 1.395 . S
C2320 C2323 1.403 . S
H2321 C2327 0.930 . S
C2322 H2308 0.930 . S
C2322 C2320 1.395 . S
C2322 C2325 1.403 . S
C2323 C2320 1.403 . S
C2323 C2324 1.524 . S
C2323 C2327 1.400 . S
C2324 H2309 0.960 . S
C2324 H2310 0.960 . S
C2324 H2311 0.960 . S
C2324 C2323 1.524 . S
C2325 C2322 1.403 . S
C2325 C2326 1.392 . S
C2325 C2329 1.495 . S
C2326 C2325 1.392 . S
C2326 C2327 1.385 . S
C2326 C2328 1.478 . S
C2327 H2321 0.930 . S
C2327 C2323 1.400 . S
C2327 C2326 1.385 . S
C2328 C2326 1.478 . S
C2328 C2330 1.381 . S
C2328 C2334 1.383 . S
C2329 C2325 1.495 . S
C2329 H2335 0.959 . S
C2329 H2336 0.961 . S
C2329 H2337 0.960 . S
C2330 C2328 1.381 . S
C2330 C2331 1.394 . S
C2330 H2338 0.930 . S
C2331 C2330 1.394 . S
C2331 C2332 1.383 . S
C2331 H2339 0.929 . S
C2332 C2331 1.383 . S
C2332 C2333 1.377 . S
C2333 H2317 0.930 . S
C2333 C2332 1.377 . S
C2333 C2334 1.379 . S
C2334 H2318 0.931 . S
C2334 C2328 1.383 . S
C2334 C2333 1.379 . S
H2335 C2329 0.959 . S
H2336 C2329 0.961 . S
H2337 C2329 0.960 . S
H2338 C2330 0.930 . S
H2339 C2331 0.929 . S
H2340 C2348 0.929 . S
H2341 C2350 0.930 . S
H2342 C2352 0.930 . S
H2343 C2355 0.929 . S
H2344 C2358 0.930 . S
H2345 C2360 0.960 . S
H2346 C2360 0.960 . S
H2347 C2360 0.960 . S
C2348 H2340 0.929 . S
C2348 C2349 1.377 . S
C2348 C2350 1.384 . S
C2349 C2348 1.377 . S
C2349 C2355 1.390 . S
C2350 H2341 0.930 . S
C2350 C2348 1.384 . S
C2350 C2351 1.372 . S
C2351 C2350 1.372 . S
C2351 C2352 1.400 . S
C2351 C2356 1.490 . S
C2352 H2342 0.930 . S
C2352 C2351 1.400 . S
C2352 C2355 1.386 . S
H2353 C2369 0.930 . S
H2354 C2370 0.931 . S
C2355 H2343 0.929 . S
C2355 C2349 1.390 . S
C2355 C2352 1.386 . S
C2356 C2351 1.490 . S
C2356 C2358 1.395 . S
C2356 C2359 1.403 . S
H2357 C2363 0.930 . S
C2358 H2344 0.930 . S
C2358 C2356 1.395 . S
C2358 C2361 1.403 . S
C2359 C2356 1.403 . S
C2359 C2360 1.524 . S
C2359 C2363 1.400 . S
C2360 H2345 0.960 . S
C2360 H2346 0.960 . S
C2360 H2347 0.960 . S
C2360 C2359 1.524 . S
C2361 C2358 1.403 . S
C2361 C2362 1.392 . S
C2361 C2365 1.495 . S
C2362 C2361 1.392 . S
C2362 C2363 1.385 . S
C2362 C2364 1.478 . S
C2363 H2357 0.930 . S
C2363 C2359 1.400 . S
C2363 C2362 1.385 . S
C2364 C2362 1.478 . S
C2364 C2366 1.381 . S
C2364 C2370 1.383 . S
C2365 C2361 1.495 . S
C2365 H2371 0.959 . S
C2365 H2372 0.961 . S
C2365 H2373 0.960 . S
C2366 C2364 1.381 . S
C2366 C2367 1.394 . S
C2366 H2374 0.930 . S
C2367 C2366 1.394 . S
C2367 C2368 1.383 . S
C2367 H2375 0.929 . S
C2368 C2367 1.383 . S
C2368 C2369 1.377 . S
C2369 H2353 0.930 . S
C2369 C2368 1.377 . S
C2369 C2370 1.379 . S
C2370 H2354 0.931 . S
C2370 C2364 1.383 . S
C2370 C2369 1.379 . S
H2371 C2365 0.959 . S
H2372 C2365 0.961 . S
H2373 C2365 0.960 . S
H2374 C2366 0.930 . S
H2375 C2367 0.929 . S
H2376 C2384 0.929 . S
H2377 C2386 0.930 . S
H2378 C2388 0.930 . S
H2379 C2391 0.929 . S
H2380 C2394 0.930 . S
H2381 C2396 0.960 . S
H2382 C2396 0.960 . S
H2383 C2396 0.960 . S
C2384 H2376 0.929 . S
C2384 C2385 1.377 . S
C2384 C2386 1.384 . S
C2385 C2384 1.377 . S
C2385 C2391 1.390 . S
C2386 H2377 0.930 . S
C2386 C2384 1.384 . S
C2386 C2387 1.372 . S
C2387 C2386 1.372 . S
C2387 C2388 1.400 . S
C2387 C2392 1.490 . S
C2388 H2378 0.930 . S
C2388 C2387 1.400 . S
C2388 C2391 1.386 . S
H2389 C2405 0.930 . S
H2390 C2406 0.931 . S
C2391 H2379 0.929 . S
C2391 C2385 1.390 . S
C2391 C2388 1.386 . S
C2392 C2387 1.490 . S
C2392 C2394 1.395 . S
C2392 C2395 1.403 . S
H2393 C2399 0.930 . S
C2394 H2380 0.930 . S
C2394 C2392 1.395 . S
C2394 C2397 1.403 . S
C2395 C2392 1.403 . S
C2395 C2396 1.524 . S
C2395 C2399 1.400 . S
C2396 H2381 0.960 . S
C2396 H2382 0.960 . S
C2396 H2383 0.960 . S
C2396 C2395 1.524 . S
C2397 C2394 1.403 . S
C2397 C2398 1.392 . S
C2397 C2401 1.495 . S
C2398 C2397 1.392 . S
C2398 C2399 1.385 . S
C2398 C2400 1.478 . S
C2399 H2393 0.930 . S
C2399 C2395 1.400 . S
C2399 C2398 1.385 . S
C2400 C2398 1.478 . S
C2400 C2402 1.381 . S
C2400 C2406 1.383 . S
C2401 C2397 1.495 . S
C2401 H2407 0.959 . S
C2401 H2408 0.961 . S
C2401 H2409 0.960 . S
C2402 C2400 1.381 . S
C2402 C2403 1.394 . S
C2402 H2410 0.930 . S
C2403 C2402 1.394 . S
C2403 C2404 1.383 . S
C2403 H2411 0.929 . S
C2404 C2403 1.383 . S
C2404 C2405 1.377 . S
C2405 H2389 0.930 . S
C2405 C2404 1.377 . S
C2405 C2406 1.379 . S
C2406 H2390 0.931 . S
C2406 C2400 1.383 . S
C2406 C2405 1.379 . S
H2407 C2401 0.959 . S
H2408 C2401 0.961 . S
H2409 C2401 0.960 . S
H2410 C2402 0.930 . S
H2411 C2403 0.929 . S
H2412 C2420 0.929 . S
H2413 C2422 0.930 . S
H2414 C2424 0.930 . S
H2415 C2427 0.929 . S
H2416 C2430 0.930 . S
H2417 C2432 0.960 . S
H2418 C2432 0.960 . S
H2419 C2432 0.960 . S
C2420 H2412 0.929 . S
C2420 C2421 1.377 . S
C2420 C2422 1.384 . S
C2421 C2420 1.377 . S
C2421 C2427 1.390 . S
C2422 H2413 0.930 . S
C2422 C2420 1.384 . S
C2422 C2423 1.372 . S
C2423 C2422 1.372 . S
C2423 C2424 1.400 . S
C2423 C2428 1.490 . S
C2424 H2414 0.930 . S
C2424 C2423 1.400 . S
C2424 C2427 1.386 . S
H2425 C2441 0.930 . S
H2426 C2442 0.931 . S
C2427 H2415 0.929 . S
C2427 C2421 1.390 . S
C2427 C2424 1.386 . S
C2428 C2423 1.490 . S
C2428 C2430 1.395 . S
C2428 C2431 1.403 . S
H2429 C2435 0.930 . S
C2430 H2416 0.930 . S
C2430 C2428 1.395 . S
C2430 C2433 1.403 . S
C2431 C2428 1.403 . S
C2431 C2432 1.524 . S
C2431 C2435 1.400 . S
C2432 H2417 0.960 . S
C2432 H2418 0.960 . S
C2432 H2419 0.960 . S
C2432 C2431 1.524 . S
C2433 C2430 1.403 . S
C2433 C2434 1.392 . S
C2433 C2437 1.495 . S
C2434 C2433 1.392 . S
C2434 C2435 1.385 . S
C2434 C2436 1.478 . S
C2435 H2429 0.930 . S
C2435 C2431 1.400 . S
C2435 C2434 1.385 . S
C2436 C2434 1.478 . S
C2436 C2438 1.381 . S
C2436 C2442 1.383 . S
C2437 C2433 1.495 . S
C2437 H2443 0.959 . S
C2437 H2444 0.961 . S
C2437 H2445 0.960 . S
C2438 C2436 1.381 . S
C2438 C2439 1.394 . S
C2438 H2446 0.930 . S
C2439 C2438 1.394 . S
C2439 C2440 1.383 . S
C2439 H2447 0.929 . S
C2440 C2439 1.383 . S
C2440 C2441 1.377 . S
C2441 H2425 0.930 . S
C2441 C2440 1.377 . S
C2441 C2442 1.379 . S
C2442 H2426 0.931 . S
C2442 C2436 1.383 . S
C2442 C2441 1.379 . S
H2443 C2437 0.959 . S
H2444 C2437 0.961 . S
H2445 C2437 0.960 . S
H2446 C2438 0.930 . S
H2447 C2439 0.929 . S
H2448 C2456 0.929 . S
H2449 C2458 0.930 . S
H2450 C2460 0.930 . S
H2451 C2463 0.929 . S
H2452 C2466 0.930 . S
H2453 C2468 0.960 . S
H2454 C2468 0.960 . S
H2455 C2468 0.960 . S
C2456 H2448 0.929 . S
C2456 C2457 1.377 . S
C2456 C2458 1.384 . S
C2457 C2456 1.377 . S
C2457 C2463 1.390 . S
C2458 H2449 0.930 . S
C2458 C2456 1.384 . S
C2458 C2459 1.372 . S
C2459 C2458 1.372 . S
C2459 C2460 1.400 . S
C2459 C2464 1.490 . S
C2460 H2450 0.930 . S
C2460 C2459 1.400 . S
C2460 C2463 1.386 . S
H2461 C2477 0.930 . S
H2462 C2478 0.931 . S
C2463 H2451 0.929 . S
C2463 C2457 1.390 . S
C2463 C2460 1.386 . S
C2464 C2459 1.490 . S
C2464 C2466 1.395 . S
C2464 C2467 1.403 . S
H2465 C2471 0.930 . S
C2466 H2452 0.930 . S
C2466 C2464 1.395 . S
C2466 C2469 1.403 . S
C2467 C2464 1.403 . S
C2467 C2468 1.524 . S
C2467 C2471 1.400 . S
C2468 H2453 0.960 . S
C2468 H2454 0.960 . S
C2468 H2455 0.960 . S
C2468 C2467 1.524 . S
C2469 C2466 1.403 . S
C2469 C2470 1.392 . S
C2469 C2473 1.495 . S
C2470 C2469 1.392 . S
C2470 C2471 1.385 . S
C2470 C2472 1.478 . S
C2471 H2465 0.930 . S
C2471 C2467 1.400 . S
C2471 C2470 1.385 . S
C2472 C2470 1.478 . S
C2472 C2474 1.381 . S
C2472 C2478 1.383 . S
C2473 C2469 1.495 . S
C2473 H2479 0.959 . S
C2473 H2480 0.961 . S
C2473 H2481 0.960 . S
C2474 C2472 1.381 . S
C2474 C2475 1.394 . S
C2474 H2482 0.930 . S
C2475 C2474 1.394 . S
C2475 C2476 1.383 . S
C2475 H2483 0.929 . S
C2476 C2475 1.383 . S
C2476 C2477 1.377 . S
C2477 H2461 0.930 . S
C2477 C2476 1.377 . S
C2477 C2478 1.379 . S
C2478 H2462 0.931 . S
C2478 C2472 1.383 . S
C2478 C2477 1.379 . S
H2479 C2473 0.959 . S
H2480 C2473 0.961 . S
H2481 C2473 0.960 . S
H2482 C2474 0.930 . S
H2483 C2475 0.929 . S
H2484 C2492 0.929 . S
H2485 C2494 0.930 . S
H2486 C2496 0.930 . S
H2487 C2499 0.929 . S
H2488 C2502 0.930 . S
H2489 C2504 0.960 . S
H2490 C2504 1.028 . S
H2491 C2504 0.960 . S
C2492 H2484 0.929 . S
C2492 C2493 1.377 . S
C2492 C2494 1.384 . S
C2493 C2492 1.377 . S
C2493 C2499 1.390 . S
C2494 H2485 0.930 . S
C2494 C2492 1.384 . S
C2494 C2495 1.372 . S
C2495 C2494 1.372 . S
C2495 C2496 1.400 . S
C2495 C2500 1.490 . S
C2496 H2486 0.930 . S
C2496 C2495 1.400 . S
C2496 C2499 1.386 . S
H2497 C2513 0.930 . S
H2498 C2514 0.931 . S
C2499 H2487 0.929 . S
C2499 C2493 1.390 . S
C2499 C2496 1.386 . S
C2500 C2495 1.490 . S
C2500 C2502 1.395 . S
C2500 C2503 1.403 . S
H2501 C2507 0.930 . S
C2502 H2488 0.930 . S
C2502 C2500 1.395 . S
C2502 C2505 1.403 . S
C2503 C2500 1.403 . S
C2503 C2504 1.524 . S
C2503 C2507 1.400 . S
C2504 H2489 0.960 . S
C2504 H2490 1.028 . S
C2504 H2491 0.960 . S
C2504 C2503 1.524 . S
C2505 C2502 1.403 . S
C2505 C2506 1.392 . S
C2505 C2509 1.495 . S
C2506 C2505 1.392 . S
C2506 C2507 1.385 . S
C2506 C2508 1.478 . S
C2507 H2501 0.930 . S
C2507 C2503 1.400 . S
C2507 C2506 1.385 . S
C2508 C2506 1.478 . S
C2508 C2510 1.381 . S
C2508 C2514 1.383 . S
C2509 C2505 1.495 . S
C2509 H2515 0.959 . S
C2509 H2516 0.961 . S
C2509 H2517 0.960 . S
C2510 C2508 1.381 . S
C2510 C2511 1.400 . S
C2510 H2518 0.930 1_455 S
C2511 C2510 1.400 . S
C2511 C2512 1.412 . S
C2511 H2519 0.896 1_455 S
C2512 C2511 1.412 . S
C2512 C2513 1.377 . S
C2513 H2497 0.930 . S
C2513 C2512 1.377 . S
C2513 C2514 1.379 . S
C2514 H2498 0.931 . S
C2514 C2508 1.383 . S
C2514 C2513 1.379 . S
H2515 C2509 0.959 . S
H2516 C2509 0.961 . S
H2517 C2509 0.960 . S
H2518 C2510 0.930 1_655 S
H2519 C2511 0.896 1_655 S
H2520 C2528 0.929 . S
H2521 C2530 0.930 . S
H2522 C2532 0.930 . S
H2523 C2535 0.929 . S
H2524 C2538 0.930 . S
H2525 C2540 0.960 . S
H2526 C2540 0.960 . S
H2527 C2540 0.960 . S
C2528 H2520 0.929 . S
C2528 C2529 1.377 . S
C2528 C2530 1.384 . S
C2529 C2528 1.377 . S
C2529 C2535 1.390 . S
C2530 H2521 0.930 . S
C2530 C2528 1.384 . S
C2530 C2531 1.372 . S
C2531 C2530 1.372 . S
C2531 C2532 1.400 . S
C2531 C2536 1.490 . S
C2532 H2522 0.930 . S
C2532 C2531 1.400 . S
C2532 C2535 1.386 . S
H2533 C2549 0.930 . S
H2534 C2550 0.931 . S
C2535 H2523 0.929 . S
C2535 C2529 1.390 . S
C2535 C2532 1.386 . S
C2536 C2531 1.490 . S
C2536 C2538 1.395 . S
C2536 C2539 1.403 . S
H2537 C2543 0.930 . S
C2538 H2524 0.930 . S
C2538 C2536 1.395 . S
C2538 C2541 1.403 . S
C2539 C2536 1.403 . S
C2539 C2540 1.524 . S
C2539 C2543 1.400 . S
C2540 H2525 0.960 . S
C2540 H2526 0.960 . S
C2540 H2527 0.960 . S
C2540 C2539 1.524 . S
C2541 C2538 1.403 . S
C2541 C2542 1.392 . S
C2541 C2545 1.495 . S
C2542 C2541 1.392 . S
C2542 C2543 1.385 . S
C2542 C2544 1.478 . S
C2543 H2537 0.930 . S
C2543 C2539 1.400 . S
C2543 C2542 1.385 . S
C2544 C2542 1.478 . S
C2544 C2546 1.381 . S
C2544 C2550 1.383 . S
C2545 C2541 1.495 . S
C2545 H2551 0.959 . S
C2545 H2552 0.961 . S
C2545 H2553 0.960 . S
C2546 C2544 1.381 . S
C2546 C2547 1.394 . S
C2546 H2554 0.930 . S
C2547 C2546 1.394 . S
C2547 C2548 1.383 . S
C2547 H2555 0.929 . S
C2548 C2547 1.383 . S
C2548 C2549 1.377 . S
C2549 H2533 0.930 . S
C2549 C2548 1.377 . S
C2549 C2550 1.379 . S
C2550 H2534 0.931 . S
C2550 C2544 1.383 . S
C2550 C2549 1.379 . S
H2551 C2545 0.959 . S
H2552 C2545 0.961 . S
H2553 C2545 0.960 . S
H2554 C2546 0.930 . S
H2555 C2547 0.929 . S
H2556 C2564 0.929 . S
H2557 C2566 0.930 . S
H2558 C2568 0.930 . S
H2559 C2571 0.929 . S
H2560 C2574 0.930 1_455 S
H2561 C2576 0.960 . S
H2562 C2576 0.960 . S
H2563 C2576 0.960 . S
C2564 H2556 0.929 . S
C2564 C2565 1.377 . S
C2564 C2566 1.384 . S
C2565 C2564 1.377 . S
C2565 C2571 1.390 . S
C2566 H2557 0.930 . S
C2566 C2564 1.384 . S
C2566 C2567 1.372 . S
C2567 C2566 1.372 . S
C2567 C2568 1.400 . S
C2567 C2572 1.490 . S
C2568 H2558 0.930 . S
C2568 C2567 1.400 . S
C2568 C2571 1.386 . S
H2569 C2585 0.930 . S
H2570 C2586 0.931 . S
C2571 H2559 0.929 . S
C2571 C2565 1.390 . S
C2571 C2568 1.386 . S
C2572 C2567 1.490 . S
C2572 C2574 1.395 . S
C2572 C2575 1.403 . S
H2573 C2579 0.930 . S
C2574 H2560 0.930 1_655 S
C2574 C2572 1.395 . S
C2574 C2577 1.403 1_655 S
C2575 C2572 1.403 . S
C2575 C2576 1.524 . S
C2575 C2579 1.400 . S
C2576 H2561 0.960 . S
C2576 H2562 0.960 . S
C2576 H2563 0.960 . S
C2576 C2575 1.524 . S
C2577 C2574 1.403 1_455 S
C2577 C2578 1.390 1_455 S
C2577 C2581 1.498 . S
C2578 C2577 1.390 1_655 S
C2578 C2579 1.385 . S
C2578 C2580 1.478 . S
C2579 H2573 0.930 . S
C2579 C2575 1.400 . S
C2579 C2578 1.385 . S
C2580 C2578 1.478 . S
C2580 C2582 1.381 . S
C2580 C2586 1.383 . S
C2581 C2577 1.498 . S
C2581 H2587 0.959 . S
C2581 H2588 0.961 . S
C2581 H2589 0.960 . S
C2582 C2580 1.381 . S
C2582 C2583 1.394 . S
C2582 H2590 0.930 1_655 S
C2583 C2582 1.394 . S
C2583 C2584 1.383 . S
C2583 H2591 0.929 1_655 S
C2584 C2583 1.383 . S
C2584 C2585 1.377 . S
C2585 H2569 0.930 . S
C2585 C2584 1.377 . S
C2585 C2586 1.379 . S
C2586 H2570 0.931 . S
C2586 C2580 1.383 . S
C2586 C2585 1.379 . S
H2587 C2581 0.959 . S
H2588 C2581 0.961 . S
H2589 C2581 0.960 . S
H2590 C2582 0.930 1_455 S
H2591 C2583 0.929 1_455 S
H2592 C2600 0.929 . S
H2593 C2602 0.930 . S
H2594 C2604 0.930 . S
H2595 C2607 0.929 . S
H2596 C2610 0.930 . S
H2597 C2612 0.960 . S
H2598 C2612 0.960 . S
H2599 C2612 0.960 . S
C2600 H2592 0.929 . S
C2600 C2601 1.377 . S
C2600 C2602 1.384 . S
C2601 C2600 1.377 . S
C2601 C2607 1.390 . S
C2602 H2593 0.930 . S
C2602 C2600 1.384 . S
C2602 C2603 1.372 . S
C2603 C2602 1.372 . S
C2603 C2604 1.400 . S
C2603 C2608 1.490 . S
C2604 H2594 0.930 . S
C2604 C2603 1.400 . S
C2604 C2607 1.386 . S
H2605 C2621 0.930 . S
H2606 C2622 0.931 . S
C2607 H2595 0.929 . S
C2607 C2601 1.390 . S
C2607 C2604 1.386 . S
C2608 C2603 1.490 . S
C2608 C2610 1.395 . S
C2608 C2611 1.403 . S
H2609 C2615 0.930 . S
C2610 H2596 0.930 . S
C2610 C2608 1.395 . S
C2610 C2613 1.403 . S
C2611 C2608 1.403 . S
C2611 C2612 1.524 . S
C2611 C2615 1.400 . S
C2612 H2597 0.960 . S
C2612 H2598 0.960 . S
C2612 H2599 0.960 . S
C2612 C2611 1.524 . S
C2613 C2610 1.403 . S
C2613 C2614 1.392 . S
C2613 C2617 1.495 . S
C2614 C2613 1.392 . S
C2614 C2615 1.385 . S
C2614 C2616 1.478 . S
C2615 H2609 0.930 . S
C2615 C2611 1.400 . S
C2615 C2614 1.385 . S
C2616 C2614 1.478 . S
C2616 C2618 1.381 . S
C2616 C2622 1.383 . S
C2617 C2613 1.495 . S
C2617 H2623 0.959 . S
C2617 H2624 0.961 . S
C2617 H2625 0.960 . S
C2618 C2616 1.381 . S
C2618 C2619 1.394 . S
C2618 H2626 0.930 . S
C2619 C2618 1.394 . S
C2619 C2620 1.383 . S
C2619 H2627 0.929 . S
C2620 C2619 1.383 . S
C2620 C2621 1.377 . S
C2621 H2605 0.930 . S
C2621 C2620 1.377 . S
C2621 C2622 1.379 . S
C2622 H2606 0.931 . S
C2622 C2616 1.383 . S
C2622 C2621 1.379 . S
H2623 C2617 0.959 . S
H2624 C2617 0.961 . S
H2625 C2617 0.960 . S
H2626 C2618 0.930 . S
H2627 C2619 0.929 . S
H2628 C2636 0.929 . S
H2629 C2638 0.930 . S
H2630 C2640 0.930 . S
H2631 C2643 0.929 . S
H2632 C2646 0.930 . S
H2633 C2648 0.960 . S
H2634 C2648 0.960 . S
H2635 C2648 0.960 . S
C2636 H2628 0.929 . S
C2636 C2637 1.377 . S
C2636 C2638 1.384 . S
C2637 C2636 1.377 . S
C2637 C2643 1.390 . S
C2638 H2629 0.930 . S
C2638 C2636 1.384 . S
C2638 C2639 1.372 . S
C2639 C2638 1.372 . S
C2639 C2640 1.400 . S
C2639 C2644 1.490 . S
C2640 H2630 0.930 . S
C2640 C2639 1.400 . S
C2640 C2643 1.386 . S
H2641 C2657 0.930 . S
H2642 C2658 0.931 . S
C2643 H2631 0.929 . S
C2643 C2637 1.390 . S
C2643 C2640 1.386 . S
C2644 C2639 1.490 . S
C2644 C2646 1.395 . S
C2644 C2647 1.403 . S
H2645 C2651 0.930 . S
C2646 H2632 0.930 . S
C2646 C2644 1.395 . S
C2646 C2649 1.403 . S
C2647 C2644 1.403 . S
C2647 C2648 1.524 . S
C2647 C2651 1.400 . S
C2648 H2633 0.960 . S
C2648 H2634 0.960 . S
C2648 H2635 0.960 . S
C2648 C2647 1.524 . S
C2649 C2646 1.403 . S
C2649 C2650 1.392 . S
C2649 C2653 1.495 . S
C2650 C2649 1.392 . S
C2650 C2651 1.385 . S
C2650 C2652 1.478 . S
C2651 H2645 0.930 . S
C2651 C2647 1.400 . S
C2651 C2650 1.385 . S
C2652 C2650 1.478 . S
C2652 C2654 1.381 . S
C2652 C2658 1.383 . S
C2653 C2649 1.495 . S
C2653 H2659 0.959 . S
C2653 H2660 0.961 . S
C2653 H2661 0.960 . S
C2654 C2652 1.381 . S
C2654 C2655 1.394 . S
C2654 H2662 0.930 . S
C2655 C2654 1.394 . S
C2655 C2656 1.383 . S
C2655 H2663 0.929 . S
C2656 C2655 1.383 . S
C2656 C2657 1.377 . S
C2657 H2641 0.930 . S
C2657 C2656 1.377 . S
C2657 C2658 1.379 . S
C2658 H2642 0.931 . S
C2658 C2652 1.383 . S
C2658 C2657 1.379 . S
H2659 C2653 0.959 . S
H2660 C2653 0.961 . S
H2661 C2653 0.960 . S
H2662 C2654 0.930 . S
H2663 C2655 0.929 . S
H2664 C2672 0.929 . S
H2665 C2674 0.930 . S
H2666 C2676 0.930 1_554 S
H2667 C2679 0.929 . S
H2668 C2682 0.930 . S
H2669 C2684 0.977 . S
H2670 C2684 0.960 . S
H2671 C2684 0.960 1_554 S
C2672 H2664 0.929 . S
C2672 C2673 1.377 . S
C2672 C2674 1.384 . S
C2673 C2672 1.377 . S
C2673 C2679 1.390 . S
C2674 H2665 0.930 . S
C2674 C2672 1.384 . S
C2674 C2675 1.372 . S
C2675 C2674 1.372 . S
C2675 C2676 1.400 . S
C2675 C2680 1.490 . S
C2676 H2666 0.930 1_556 S
C2676 C2675 1.400 . S
C2676 C2679 1.386 . S
H2677 C2693 0.930 . S
H2678 C2694 0.901 1_554 S
C2679 H2667 0.929 . S
C2679 C2673 1.390 . S
C2679 C2676 1.386 . S
C2680 C2675 1.490 . S
C2680 C2682 1.395 . S
C2680 C2683 1.403 . S
H2681 C2687 0.930 . S
C2682 H2668 0.930 . S
C2682 C2680 1.395 . S
C2682 C2685 1.403 . S
C2683 C2680 1.403 . S
C2683 C2684 1.524 . S
C2683 C2687 1.400 . S
C2684 H2669 0.977 . S
C2684 H2670 0.960 . S
C2684 H2671 0.960 1_556 S
C2684 C2683 1.524 . S
C2685 C2682 1.403 . S
C2685 C2686 1.392 . S
C2685 C2689 1.495 . S
C2686 C2685 1.392 . S
C2686 C2687 1.385 . S
C2686 C2688 1.478 . S
C2687 H2681 0.930 . S
C2687 C2683 1.400 . S
C2687 C2686 1.385 . S
C2688 C2686 1.478 . S
C2688 C2690 1.381 . S
C2688 C2694 1.418 . S
C2689 C2685 1.495 . S
C2689 H2695 0.959 . S
C2689 H2696 0.961 . S
C2689 H2697 0.960 . S
C2690 C2688 1.381 . S
C2690 C2691 1.394 . S
C2690 H2698 0.930 . S
C2691 C2690 1.394 . S
C2691 C2692 1.383 . S
C2691 H2699 0.929 . S
C2692 C2691 1.383 . S
C2692 C2693 1.377 1_556 S
C2693 H2677 0.930 . S
C2693 C2692 1.377 1_554 S
C2693 C2694 1.375 1_554 S
C2694 H2678 0.901 1_556 S
C2694 C2688 1.418 . S
C2694 C2693 1.375 1_556 S
H2695 C2689 0.959 . S
H2696 C2689 0.961 . S
H2697 C2689 0.960 . S
H2698 C2690 0.930 . S
H2699 C2691 0.929 . S
H2700 C2708 0.929 . S
H2701 C2710 0.930 . S
H2702 C2712 0.930 . S
H2703 C2715 0.929 . S
H2704 C2718 0.930 . S
H2705 C2720 0.960 . S
H2706 C2720 0.960 . S
H2707 C2720 0.960 . S
C2708 H2700 0.929 . S
C2708 C2709 1.377 . S
C2708 C2710 1.384 . S
C2709 C2708 1.377 . S
C2709 C2715 1.390 . S
C2710 H2701 0.930 . S
C2710 C2708 1.384 . S
C2710 C2711 1.372 . S
C2711 C2710 1.372 . S
C2711 C2712 1.400 . S
C2711 C2716 1.490 . S
C2712 H2702 0.930 . S
C2712 C2711 1.400 . S
C2712 C2715 1.386 . S
H2713 C2729 0.930 . S
H2714 C2730 0.931 . S
C2715 H2703 0.929 . S
C2715 C2709 1.390 . S
C2715 C2712 1.386 . S
C2716 C2711 1.490 . S
C2716 C2718 1.395 . S
C2716 C2719 1.403 . S
H2717 C2723 0.930 . S
C2718 H2704 0.930 . S
C2718 C2716 1.395 . S
C2718 C2721 1.403 . S
C2719 C2716 1.403 . S
C2719 C2720 1.524 . S
C2719 C2723 1.400 . S
C2720 H2705 0.960 . S
C2720 H2706 0.960 . S
C2720 H2707 0.960 . S
C2720 C2719 1.524 . S
C2721 C2718 1.403 . S
C2721 C2722 1.392 . S
C2721 C2725 1.495 . S
C2722 C2721 1.392 . S
C2722 C2723 1.385 . S
C2722 C2724 1.478 . S
C2723 H2717 0.930 . S
C2723 C2719 1.400 . S
C2723 C2722 1.385 . S
C2724 C2722 1.478 . S
C2724 C2726 1.381 . S
C2724 C2730 1.383 . S
C2725 C2721 1.495 . S
C2725 H2731 0.959 . S
C2725 H2732 0.961 . S
C2725 H2733 0.960 . S
C2726 C2724 1.381 . S
C2726 C2727 1.394 . S
C2726 H2734 0.930 . S
C2727 C2726 1.394 . S
C2727 C2728 1.383 . S
C2727 H2735 0.929 . S
C2728 C2727 1.383 . S
C2728 C2729 1.377 . S
C2729 H2713 0.930 . S
C2729 C2728 1.377 . S
C2729 C2730 1.379 . S
C2730 H2714 0.931 . S
C2730 C2724 1.383 . S
C2730 C2729 1.379 . S
H2731 C2725 0.959 . S
H2732 C2725 0.961 . S
H2733 C2725 0.960 . S
H2734 C2726 0.930 . S
H2735 C2727 0.929 . S
H2736 C2744 0.929 . S
H2737 C2746 0.930 . S
H2738 C2748 0.930 . S
H2739 C2751 0.929 . S
H2740 C2754 0.930 . S
H2741 C2756 0.960 . S
H2742 C2756 0.960 . S
H2743 C2756 0.960 . S
C2744 H2736 0.929 . S
C2744 C2745 1.377 . S
C2744 C2746 1.384 . S
C2745 C2744 1.377 . S
C2745 C2751 1.390 . S
C2746 H2737 0.930 . S
C2746 C2744 1.384 . S
C2746 C2747 1.372 . S
C2747 C2746 1.372 . S
C2747 C2748 1.400 . S
C2747 C2752 1.490 . S
C2748 H2738 0.930 . S
C2748 C2747 1.400 . S
C2748 C2751 1.386 . S
H2749 C2765 0.930 . S
H2750 C2766 0.931 . S
C2751 H2739 0.929 . S
C2751 C2745 1.390 . S
C2751 C2748 1.386 . S
C2752 C2747 1.490 . S
C2752 C2754 1.395 . S
C2752 C2755 1.403 . S
H2753 C2759 0.930 . S
C2754 H2740 0.930 . S
C2754 C2752 1.395 . S
C2754 C2757 1.403 . S
C2755 C2752 1.403 . S
C2755 C2756 1.524 . S
C2755 C2759 1.400 . S
C2756 H2741 0.960 . S
C2756 H2742 0.960 . S
C2756 H2743 0.960 . S
C2756 C2755 1.524 . S
C2757 C2754 1.403 . S
C2757 C2758 1.392 . S
C2757 C2761 1.495 . S
C2758 C2757 1.392 . S
C2758 C2759 1.385 . S
C2758 C2760 1.478 . S
C2759 H2753 0.930 . S
C2759 C2755 1.400 . S
C2759 C2758 1.385 . S
C2760 C2758 1.478 . S
C2760 C2762 1.381 . S
C2760 C2766 1.383 . S
C2761 C2757 1.495 . S
C2761 H2767 0.959 . S
C2761 H2768 0.961 . S
C2761 H2769 0.960 . S
C2762 C2760 1.381 . S
C2762 C2763 1.394 . S
C2762 H2770 0.930 . S
C2763 C2762 1.394 . S
C2763 C2764 1.383 . S
C2763 H2771 0.929 . S
C2764 C2763 1.383 . S
C2764 C2765 1.377 . S
C2765 H2749 0.930 . S
C2765 C2764 1.377 . S
C2765 C2766 1.379 . S
C2766 H2750 0.931 . S
C2766 C2760 1.383 . S
C2766 C2765 1.379 . S
H2767 C2761 0.959 . S
H2768 C2761 0.961 . S
H2769 C2761 0.960 . S
H2770 C2762 0.930 . S
H2771 C2763 0.929 . S
H2772 C2780 0.929 . S
H2773 C2782 0.930 . S
H2774 C2784 0.930 . S
H2775 C2787 0.929 . S
H2776 C2790 0.930 . S
H2777 C2792 0.960 . S
H2778 C2792 0.960 . S
H2779 C2792 0.960 . S
C2780 H2772 0.929 . S
C2780 C2781 1.377 . S
C2780 C2782 1.384 . S
C2781 C2780 1.377 . S
C2781 C2787 1.390 . S
C2782 H2773 0.930 . S
C2782 C2780 1.384 . S
C2782 C2783 1.372 . S
C2783 C2782 1.372 . S
C2783 C2784 1.400 . S
C2783 C2788 1.490 . S
C2784 H2774 0.930 . S
C2784 C2783 1.400 . S
C2784 C2787 1.386 . S
H2785 C2801 0.930 . S
H2786 C2802 0.931 . S
C2787 H2775 0.929 . S
C2787 C2781 1.390 . S
C2787 C2784 1.386 . S
C2788 C2783 1.490 . S
C2788 C2790 1.395 . S
C2788 C2791 1.403 . S
H2789 C2795 0.930 . S
C2790 H2776 0.930 . S
C2790 C2788 1.395 . S
C2790 C2793 1.403 . S
C2791 C2788 1.403 . S
C2791 C2792 1.524 . S
C2791 C2795 1.400 . S
C2792 H2777 0.960 . S
C2792 H2778 0.960 . S
C2792 H2779 0.960 . S
C2792 C2791 1.524 . S
C2793 C2790 1.403 . S
C2793 C2794 1.392 . S
C2793 C2797 1.495 . S
C2794 C2793 1.392 . S
C2794 C2795 1.385 . S
C2794 C2796 1.478 . S
C2795 H2789 0.930 . S
C2795 C2791 1.400 . S
C2795 C2794 1.385 . S
C2796 C2794 1.478 . S
C2796 C2798 1.381 . S
C2796 C2802 1.383 . S
C2797 C2793 1.495 . S
C2797 H2803 0.959 . S
C2797 H2804 0.961 . S
C2797 H2805 0.960 . S
C2798 C2796 1.381 . S
C2798 C2799 1.394 . S
C2798 H2806 0.930 . S
C2799 C2798 1.394 . S
C2799 C2800 1.383 . S
C2799 H2807 0.929 . S
C2800 C2799 1.383 . S
C2800 C2801 1.377 . S
C2801 H2785 0.930 . S
C2801 C2800 1.377 . S
C2801 C2802 1.379 . S
C2802 H2786 0.931 . S
C2802 C2796 1.383 . S
C2802 C2801 1.379 . S
H2803 C2797 0.959 . S
H2804 C2797 0.961 . S
H2805 C2797 0.960 . S
H2806 C2798 0.930 . S
H2807 C2799 0.929 . S
H2808 C2816 0.929 . S
H2809 C2818 0.930 . S
H2810 C2820 0.930 . S
H2811 C2823 0.929 1_565 S
H2812 C2826 0.930 . S
H2813 C2828 0.960 . S
H2814 C2828 0.960 . S
H2815 C2828 0.960 . S
C2816 H2808 0.929 . S
C2816 C2817 1.377 . S
C2816 C2818 1.384 . S
C2817 C2816 1.377 . S
C2817 C2823 1.390 . S
C2818 H2809 0.930 . S
C2818 C2816 1.384 . S
C2818 C2819 1.372 . S
C2819 C2818 1.372 . S
C2819 C2820 1.400 . S
C2819 C2824 1.490 . S
C2820 H2810 0.930 . S
C2820 C2819 1.400 . S
C2820 C2823 1.386 . S
H2821 C2837 0.930 . S
H2822 C2838 0.931 . S
C2823 H2811 0.929 1_545 S
C2823 C2817 1.390 . S
C2823 C2820 1.386 . S
C2824 C2819 1.490 . S
C2824 C2826 1.395 . S
C2824 C2827 1.403 . S
H2825 C2831 0.930 . S
C2826 H2812 0.930 . S
C2826 C2824 1.395 . S
C2826 C2829 1.403 . S
C2827 C2824 1.403 . S
C2827 C2828 1.524 . S
C2827 C2831 1.400 . S
C2828 H2813 0.960 . S
C2828 H2814 0.960 . S
C2828 H2815 0.960 . S
C2828 C2827 1.524 . S
C2829 C2826 1.403 . S
C2829 C2830 1.392 . S
C2829 C2833 1.495 . S
C2830 C2829 1.392 . S
C2830 C2831 1.385 . S
C2830 C2832 1.478 . S
C2831 H2825 0.930 . S
C2831 C2827 1.400 . S
C2831 C2830 1.385 . S
C2832 C2830 1.478 . S
C2832 C2834 1.381 . S
C2832 C2838 1.383 . S
C2833 C2829 1.495 . S
C2833 H2839 0.959 . S
C2833 H2840 0.961 . S
C2833 H2841 0.960 . S
C2834 C2832 1.381 . S
C2834 C2835 1.394 . S
C2834 H2842 0.930 . S
C2835 C2834 1.394 . S
C2835 C2836 1.383 . S
C2835 H2843 0.929 . S
C2836 C2835 1.383 . S
C2836 C2837 1.377 . S
C2837 H2821 0.930 . S
C2837 C2836 1.377 . S
C2837 C2838 1.379 . S
C2838 H2822 0.931 . S
C2838 C2832 1.383 . S
C2838 C2837 1.379 . S
H2839 C2833 0.959 . S
H2840 C2833 0.961 . S
H2841 C2833 0.960 . S
H2842 C2834 0.930 . S
H2843 C2835 0.929 . S
H2844 C2852 0.929 . S
H2845 C2854 0.930 . S
H2846 C2856 0.930 . S
H2847 C2859 0.929 . S
H2848 C2862 0.930 . S
H2849 C2864 0.960 . S
H2850 C2864 0.960 . S
H2851 C2864 0.960 . S
C2852 H2844 0.929 . S
C2852 C2853 1.377 . S
C2852 C2854 1.384 . S
C2853 C2852 1.377 . S
C2853 C2859 1.390 . S
C2854 H2845 0.930 . S
C2854 C2852 1.384 . S
C2854 C2855 1.372 . S
C2855 C2854 1.372 . S
C2855 C2856 1.400 . S
C2855 C2860 1.490 . S
C2856 H2846 0.930 . S
C2856 C2855 1.400 . S
C2856 C2859 1.386 . S
H2857 C2873 0.930 . S
H2858 C2874 0.931 . S
C2859 H2847 0.929 . S
C2859 C2853 1.390 . S
C2859 C2856 1.386 . S
C2860 C2855 1.490 . S
C2860 C2862 1.395 . S
C2860 C2863 1.403 . S
H2861 C2867 0.930 . S
C2862 H2848 0.930 . S
C2862 C2860 1.395 . S
C2862 C2865 1.403 . S
C2863 C2860 1.403 . S
C2863 C2864 1.524 . S
C2863 C2867 1.400 . S
C2864 H2849 0.960 . S
C2864 H2850 0.960 . S
C2864 H2851 0.960 . S
C2864 C2863 1.524 . S
C2865 C2862 1.403 . S
C2865 C2866 1.392 . S
C2865 C2869 1.495 . S
C2866 C2865 1.392 . S
C2866 C2867 1.385 . S
C2866 C2868 1.478 . S
C2867 H2861 0.930 . S
C2867 C2863 1.400 . S
C2867 C2866 1.385 . S
C2868 C2866 1.478 . S
C2868 C2870 1.381 . S
C2868 C2874 1.383 . S
C2869 C2865 1.495 . S
C2869 H2875 0.959 . S
C2869 H2876 0.961 . S
C2869 H2877 0.960 . S
C2870 C2868 1.381 . S
C2870 C2871 1.394 . S
C2870 H2878 0.930 . S
C2871 C2870 1.394 . S
C2871 C2872 1.383 . S
C2871 H2879 0.929 . S
C2872 C2871 1.383 . S
C2872 C2873 1.377 . S
C2873 H2857 0.930 . S
C2873 C2872 1.377 . S
C2873 C2874 1.379 . S
C2874 H2858 0.931 . S
C2874 C2868 1.383 . S
C2874 C2873 1.379 . S
H2875 C2869 0.959 . S
H2876 C2869 0.961 . S
H2877 C2869 0.960 . S
H2878 C2870 0.930 . S
H2879 C2871 0.929 . S
H2880 C2888 0.929 . S
H2881 C2890 0.930 . S
H2882 C2892 0.930 . S
H2883 C2895 0.929 . S
H2884 C2898 0.930 . S
H2885 C2900 0.960 . S
H2886 C2900 0.960 . S
H2887 C2900 0.960 . S
C2888 H2880 0.929 . S
C2888 C2889 1.377 . S
C2888 C2890 1.384 . S
C2889 C2888 1.377 . S
C2889 C2895 1.390 . S
C2890 H2881 0.930 . S
C2890 C2888 1.384 . S
C2890 C2891 1.372 . S
C2891 C2890 1.372 . S
C2891 C2892 1.400 . S
C2891 C2896 1.490 . S
C2892 H2882 0.930 . S
C2892 C2891 1.400 . S
C2892 C2895 1.386 . S
H2893 C2909 0.930 . S
H2894 C2910 0.931 . S
C2895 H2883 0.929 . S
C2895 C2889 1.390 . S
C2895 C2892 1.386 . S
C2896 C2891 1.490 . S
C2896 C2898 1.395 . S
C2896 C2899 1.403 . S
H2897 C2903 0.930 . S
C2898 H2884 0.930 . S
C2898 C2896 1.395 . S
C2898 C2901 1.403 . S
C2899 C2896 1.403 . S
C2899 C2900 1.524 . S
C2899 C2903 1.400 . S
C2900 H2885 0.960 . S
C2900 H2886 0.960 . S
C2900 H2887 0.960 . S
C2900 C2899 1.524 . S
C2901 C2898 1.403 . S
C2901 C2902 1.392 . S
C2901 C2905 1.495 . S
C2902 C2901 1.392 . S
C2902 C2903 1.385 . S
C2902 C2904 1.478 . S
C2903 H2897 0.930 . S
C2903 C2899 1.400 . S
C2903 C2902 1.385 . S
C2904 C2902 1.478 . S
C2904 C2906 1.381 . S
C2904 C2910 1.383 . S
C2905 C2901 1.495 . S
C2905 H2911 0.959 . S
C2905 H2912 0.961 . S
C2905 H2913 0.960 . S
C2906 C2904 1.381 . S
C2906 C2907 1.394 . S
C2906 H2914 0.930 . S
C2907 C2906 1.394 . S
C2907 C2908 1.383 . S
C2907 H2915 0.929 . S
C2908 C2907 1.383 . S
C2908 C2909 1.377 . S
C2909 H2893 0.930 . S
C2909 C2908 1.377 . S
C2909 C2910 1.379 . S
C2910 H2894 0.931 . S
C2910 C2904 1.383 . S
C2910 C2909 1.379 . S
H2911 C2905 0.959 . S
H2912 C2905 0.961 . S
H2913 C2905 0.960 . S
H2914 C2906 0.930 . S
H2915 C2907 0.929 . S
H2916 C2924 0.929 . S
H2917 C2926 0.930 . S
H2918 C2928 0.930 . S
H2919 C2931 0.929 . S
H2920 C2934 0.930 . S
H2921 C2936 0.960 . S
H2922 C2936 0.960 . S
H2923 C2936 0.960 . S
C2924 H2916 0.929 . S
C2924 C2925 1.377 . S
C2924 C2926 1.384 . S
C2925 C2924 1.377 . S
C2925 C2931 1.390 . S
C2926 H2917 0.930 . S
C2926 C2924 1.384 . S
C2926 C2927 1.372 . S
C2927 C2926 1.372 . S
C2927 C2928 1.400 . S
C2927 C2932 1.490 . S
C2928 H2918 0.930 . S
C2928 C2927 1.400 . S
C2928 C2931 1.386 . S
H2929 C2945 0.894 1_565 S
H2930 C2946 0.931 1_565 S
C2931 H2919 0.929 . S
C2931 C2925 1.390 . S
C2931 C2928 1.386 . S
C2932 C2927 1.490 . S
C2932 C2934 1.395 . S
C2932 C2935 1.403 . S
H2933 C2939 0.930 . S
C2934 H2920 0.930 . S
C2934 C2932 1.395 . S
C2934 C2937 1.403 . S
C2935 C2932 1.403 . S
C2935 C2936 1.524 . S
C2935 C2939 1.400 . S
C2936 H2921 0.960 . S
C2936 H2922 0.960 . S
C2936 H2923 0.960 . S
C2936 C2935 1.524 . S
C2937 C2934 1.403 . S
C2937 C2938 1.392 . S
C2937 C2941 1.495 . S
C2938 C2937 1.392 . S
C2938 C2939 1.385 . S
C2938 C2940 1.478 . S
C2939 H2933 0.930 . S
C2939 C2935 1.400 . S
C2939 C2938 1.385 . S
C2940 C2938 1.478 . S
C2940 C2942 1.381 . S
C2940 C2946 1.383 . S
C2941 C2937 1.495 . S
C2941 H2947 0.959 . S
C2941 H2948 0.961 1_545 S
C2941 H2949 0.960 . S
C2942 C2940 1.381 . S
C2942 C2943 1.394 . S
C2942 H2950 0.930 . S
C2943 C2942 1.394 . S
C2943 C2944 1.383 . S
C2943 H2951 0.929 . S
C2944 C2943 1.383 . S
C2944 C2945 1.409 . S
C2945 H2929 0.894 1_545 S
C2945 C2944 1.409 . S
C2945 C2946 1.385 . S
C2946 H2930 0.931 1_545 S
C2946 C2940 1.383 . S
C2946 C2945 1.385 . S
H2947 C2941 0.959 . S
H2948 C2941 0.961 1_565 S
H2949 C2941 0.960 . S
H2950 C2942 0.930 . S
H2951 C2943 0.929 . S
H2952 C2960 0.929 . S
H2953 C2962 0.930 . S
H2954 C2964 0.930 . S
H2955 C2967 0.929 . S
H2956 C2970 0.930 . S
H2957 C2972 0.960 . S
H2958 C2972 0.960 . S
H2959 C2972 0.960 . S
C2960 H2952 0.929 . S
C2960 C2961 1.377 . S
C2960 C2962 1.384 . S
C2961 C2960 1.377 . S
C2961 C2967 1.390 . S
C2962 H2953 0.930 . S
C2962 C2960 1.384 . S
C2962 C2963 1.372 . S
C2963 C2962 1.372 . S
C2963 C2964 1.400 . S
C2963 C2968 1.490 . S
C2964 H2954 0.930 . S
C2964 C2963 1.400 . S
C2964 C2967 1.386 . S
H2965 C2981 0.930 . S
H2966 C2982 0.931 . S
C2967 H2955 0.929 . S
C2967 C2961 1.390 . S
C2967 C2964 1.386 . S
C2968 C2963 1.490 . S
C2968 C2970 1.395 . S
C2968 C2971 1.403 . S
H2969 C2975 0.930 . S
C2970 H2956 0.930 . S
C2970 C2968 1.395 . S
C2970 C2973 1.403 . S
C2971 C2968 1.403 . S
C2971 C2972 1.524 . S
C2971 C2975 1.400 . S
C2972 H2957 0.960 . S
C2972 H2958 0.960 . S
C2972 H2959 0.960 . S
C2972 C2971 1.524 . S
C2973 C2970 1.403 . S
C2973 C2974 1.392 . S
C2973 C2977 1.495 . S
C2974 C2973 1.392 . S
C2974 C2975 1.385 . S
C2974 C2976 1.478 . S
C2975 H2969 0.930 . S
C2975 C2971 1.400 . S
C2975 C2974 1.385 . S
C2976 C2974 1.478 . S
C2976 C2978 1.381 . S
C2976 C2982 1.383 . S
C2977 C2973 1.495 . S
C2977 H2983 0.959 . S
C2977 H2984 0.961 . S
C2977 H2985 0.960 . S
C2978 C2976 1.381 . S
C2978 C2979 1.394 . S
C2978 H2986 0.930 . S
C2979 C2978 1.394 . S
C2979 C2980 1.383 . S
C2979 H2987 0.929 . S
C2980 C2979 1.383 . S
C2980 C2981 1.377 . S
C2981 H2965 0.930 . S
C2981 C2980 1.377 . S
C2981 C2982 1.379 . S
C2982 H2966 0.931 . S
C2982 C2976 1.383 . S
C2982 C2981 1.379 . S
H2983 C2977 0.959 . S
H2984 C2977 0.961 . S
H2985 C2977 0.960 . S
H2986 C2978 0.930 . S
H2987 C2979 0.929 . S
H2988 C2996 0.929 . S
H2989 C2998 0.930 . S
H2990 C3000 0.930 . S
H2991 C3003 0.929 . S
H2992 C3006 0.930 . S
H2993 C3008 0.960 . S
H2994 C3008 0.960 . S
H2995 C3008 0.960 . S
C2996 H2988 0.929 . S
C2996 C2997 1.377 . S
C2996 C2998 1.384 . S
C2997 C2996 1.377 . S
C2997 C3003 1.390 . S
C2998 H2989 0.930 . S
C2998 C2996 1.384 . S
C2998 C2999 1.372 . S
C2999 C2998 1.372 . S
C2999 C3000 1.400 . S
C2999 C3004 1.490 . S
C3000 H2990 0.930 . S
C3000 C2999 1.400 . S
C3000 C3003 1.386 . S
H3001 C3017 0.930 . S
H3002 C3018 0.931 . S
C3003 H2991 0.929 . S
C3003 C2997 1.390 . S
C3003 C3000 1.386 . S
C3004 C2999 1.490 . S
C3004 C3006 1.395 . S
C3004 C3007 1.403 . S
H3005 C3011 0.930 . S
C3006 H2992 0.930 . S
C3006 C3004 1.395 . S
C3006 C3009 1.403 . S
C3007 C3004 1.403 . S
C3007 C3008 1.524 . S
C3007 C3011 1.400 . S
C3008 H2993 0.960 . S
C3008 H2994 0.960 . S
C3008 H2995 0.960 . S
C3008 C3007 1.524 . S
C3009 C3006 1.403 . S
C3009 C3010 1.392 . S
C3009 C3013 1.495 . S
C3010 C3009 1.392 . S
C3010 C3011 1.385 . S
C3010 C3012 1.478 . S
C3011 H3005 0.930 . S
C3011 C3007 1.400 . S
C3011 C3010 1.385 . S
C3012 C3010 1.478 . S
C3012 C3014 1.381 . S
C3012 C3018 1.383 . S
C3013 C3009 1.495 . S
C3013 H3019 0.959 . S
C3013 H3020 0.961 . S
C3013 H3021 0.960 . S
C3014 C3012 1.381 . S
C3014 C3015 1.394 . S
C3014 H3022 0.930 . S
C3015 C3014 1.394 . S
C3015 C3016 1.383 . S
C3015 H3023 0.929 . S
C3016 C3015 1.383 . S
C3016 C3017 1.377 . S
C3017 H3001 0.930 . S
C3017 C3016 1.377 . S
C3017 C3018 1.379 . S
C3018 H3002 0.931 . S
C3018 C3012 1.383 . S
C3018 C3017 1.379 . S
H3019 C3013 0.959 . S
H3020 C3013 0.961 . S
H3021 C3013 0.960 . S
H3022 C3014 0.930 . S
H3023 C3015 0.929 . S
H3024 C3032 0.929 . S
H3025 C3034 0.930 . S
H3026 C3036 0.930 . S
H3027 C3039 0.929 . S
H3028 C3042 0.930 . S
H3029 C3044 0.960 . S
H3030 C3044 0.960 . S
H3031 C3044 0.960 . S
C3032 H3024 0.929 . S
C3032 C3033 1.377 . S
C3032 C3034 1.384 . S
C3033 C3032 1.377 . S
C3033 C3039 1.390 . S
C3034 H3025 0.930 . S
C3034 C3032 1.384 . S
C3034 C3035 1.372 . S
C3035 C3034 1.372 . S
C3035 C3036 1.400 . S
C3035 C3040 1.490 . S
C3036 H3026 0.930 . S
C3036 C3035 1.400 . S
C3036 C3039 1.386 . S
H3037 C3053 0.930 . S
H3038 C3054 0.931 . S
C3039 H3027 0.929 . S
C3039 C3033 1.390 . S
C3039 C3036 1.386 . S
C3040 C3035 1.490 . S
C3040 C3042 1.395 . S
C3040 C3043 1.403 . S
H3041 C3047 0.930 . S
C3042 H3028 0.930 . S
C3042 C3040 1.395 . S
C3042 C3045 1.403 . S
C3043 C3040 1.403 . S
C3043 C3044 1.524 . S
C3043 C3047 1.400 . S
C3044 H3029 0.960 . S
C3044 H3030 0.960 . S
C3044 H3031 0.960 . S
C3044 C3043 1.524 . S
C3045 C3042 1.403 . S
C3045 C3046 1.392 . S
C3045 C3049 1.495 . S
C3046 C3045 1.392 . S
C3046 C3047 1.385 . S
C3046 C3048 1.478 . S
C3047 H3041 0.930 . S
C3047 C3043 1.400 . S
C3047 C3046 1.385 . S
C3048 C3046 1.478 . S
C3048 C3050 1.381 . S
C3048 C3054 1.383 . S
C3049 C3045 1.495 . S
C3049 H3055 0.959 . S
C3049 H3056 0.961 . S
C3049 H3057 0.960 . S
C3050 C3048 1.381 . S
C3050 C3051 1.394 . S
C3050 H3058 0.930 . S
C3051 C3050 1.394 . S
C3051 C3052 1.383 . S
C3051 H3059 0.929 . S
C3052 C3051 1.383 . S
C3052 C3053 1.377 . S
C3053 H3037 0.930 . S
C3053 C3052 1.377 . S
C3053 C3054 1.379 . S
C3054 H3038 0.931 . S
C3054 C3048 1.383 . S
C3054 C3053 1.379 . S
H3055 C3049 0.959 . S
H3056 C3049 0.961 . S
H3057 C3049 0.960 . S
H3058 C3050 0.930 . S
H3059 C3051 0.929 . S
H3060 C3068 0.929 1_455 S
H3061 C3070 0.930 . S
H3062 C3072 0.930 . S
H3063 C3075 0.929 . S
H3064 C3078 0.930 . S
H3065 C3080 0.960 . S
H3066 C3080 0.960 . S
H3067 C3080 0.960 . S
C3068 H3060 0.929 1_655 S
C3068 C3069 1.377 . S
C3068 C3070 1.384 . S
C3069 C3068 1.377 . S
C3069 C3075 1.390 . S
C3070 H3061 0.930 . S
C3070 C3068 1.384 . S
C3070 C3071 1.372 . S
C3071 C3070 1.372 . S
C3071 C3072 1.400 . S
C3071 C3076 1.490 . S
C3072 H3062 0.930 . S
C3072 C3071 1.400 . S
C3072 C3075 1.386 . S
H3073 C3089 0.930 . S
H3074 C3090 0.931 . S
C3075 H3063 0.929 . S
C3075 C3069 1.390 . S
C3075 C3072 1.386 . S
C3076 C3071 1.490 . S
C3076 C3078 1.395 . S
C3076 C3079 1.403 . S
H3077 C3083 0.930 1_565 S
C3078 H3064 0.930 . S
C3078 C3076 1.395 . S
C3078 C3081 1.403 . S
C3079 C3076 1.403 . S
C3079 C3080 1.524 1_545 S
C3079 C3083 1.400 . S
C3080 H3065 0.960 . S
C3080 H3066 0.960 . S
C3080 H3067 0.960 . S
C3080 C3079 1.524 1_565 S
C3081 C3078 1.403 . S
C3081 C3082 1.392 . S
C3081 C3085 1.495 . S
C3082 C3081 1.392 . S
C3082 C3083 1.385 . S
C3082 C3084 1.478 . S
C3083 H3077 0.930 1_545 S
C3083 C3079 1.400 . S
C3083 C3082 1.385 . S
C3084 C3082 1.478 . S
C3084 C3086 1.381 . S
C3084 C3090 1.383 . S
C3085 C3081 1.495 . S
C3085 H3091 0.959 . S
C3085 H3092 0.961 . S
C3085 H3093 0.960 . S
C3086 C3084 1.381 . S
C3086 C3087 1.394 . S
C3086 H3094 0.930 . S
C3087 C3086 1.394 . S
C3087 C3088 1.383 . S
C3087 H3095 0.929 . S
C3088 C3087 1.383 . S
C3088 C3089 1.377 . S
C3089 H3073 0.930 . S
C3089 C3088 1.377 . S
C3089 C3090 1.379 . S
C3090 H3074 0.931 . S
C3090 C3084 1.383 . S
C3090 C3089 1.379 . S
H3091 C3085 0.959 . S
H3092 C3085 0.961 . S
H3093 C3085 0.960 . S
H3094 C3086 0.930 . S
H3095 C3087 0.929 . S
H3096 C3104 0.929 . S
H3097 C3106 0.930 . S
H3098 C3108 0.930 . S
H3099 C3111 0.929 . S
H3100 C3114 0.930 . S
H3101 C3116 0.960 . S
H3102 C3116 0.960 . S
H3103 C3116 0.960 . S
C3104 H3096 0.929 . S
C3104 C3105 1.377 . S
C3104 C3106 1.384 . S
C3105 C3104 1.377 . S
C3105 C3111 1.390 . S
C3106 H3097 0.930 . S
C3106 C3104 1.384 . S
C3106 C3107 1.372 . S
C3107 C3106 1.372 . S
C3107 C3108 1.400 . S
C3107 C3112 1.490 . S
C3108 H3098 0.930 . S
C3108 C3107 1.400 . S
C3108 C3111 1.386 . S
H3109 C3125 0.930 . S
H3110 C3126 0.931 . S
C3111 H3099 0.929 . S
C3111 C3105 1.390 . S
C3111 C3108 1.386 . S
C3112 C3107 1.490 . S
C3112 C3114 1.395 . S
C3112 C3115 1.403 . S
H3113 C3119 0.930 . S
C3114 H3100 0.930 . S
C3114 C3112 1.395 . S
C3114 C3117 1.403 . S
C3115 C3112 1.403 . S
C3115 C3116 1.524 . S
C3115 C3119 1.400 . S
C3116 H3101 0.960 . S
C3116 H3102 0.960 . S
C3116 H3103 0.960 . S
C3116 C3115 1.524 . S
C3117 C3114 1.403 . S
C3117 C3118 1.392 . S
C3117 C3121 1.495 . S
C3118 C3117 1.392 . S
C3118 C3119 1.385 . S
C3118 C3120 1.478 . S
C3119 H3113 0.930 . S
C3119 C3115 1.400 . S
C3119 C3118 1.385 . S
C3120 C3118 1.478 . S
C3120 C3122 1.381 . S
C3120 C3126 1.383 . S
C3121 C3117 1.495 . S
C3121 H3127 0.959 . S
C3121 H3128 0.961 . S
C3121 H3129 0.960 . S
C3122 C3120 1.381 . S
C3122 C3123 1.394 . S
C3122 H3130 0.930 . S
C3123 C3122 1.394 . S
C3123 C3124 1.383 . S
C3123 H3131 0.929 . S
C3124 C3123 1.383 . S
C3124 C3125 1.377 . S
C3125 H3109 0.930 . S
C3125 C3124 1.377 . S
C3125 C3126 1.379 . S
C3126 H3110 0.931 . S
C3126 C3120 1.383 . S
C3126 C3125 1.379 . S
H3127 C3121 0.959 . S
H3128 C3121 0.961 . S
H3129 C3121 0.960 . S
H3130 C3122 0.930 . S
H3131 C3123 0.929 . S
H3132 C3140 0.929 . S
H3133 C3142 0.930 . S
H3134 C3144 0.930 . S
H3135 C3147 0.929 1_655 S
H3136 C3150 0.930 . S
H3137 C3152 0.960 . S
H3138 C3152 0.960 . S
H3139 C3152 0.960 . S
C3140 H3132 0.929 . S
C3140 C3141 1.377 . S
C3140 C3142 1.384 . S
C3141 C3140 1.377 . S
C3141 C3147 1.390 . S
C3142 H3133 0.930 . S
C3142 C3140 1.384 . S
C3142 C3143 1.372 . S
C3143 C3142 1.372 . S
C3143 C3144 1.400 . S
C3143 C3148 1.490 . S
C3144 H3134 0.930 . S
C3144 C3143 1.400 . S
C3144 C3147 1.386 . S
H3145 C3161 0.930 . S
H3146 C3162 0.931 . S
C3147 H3135 0.929 1_455 S
C3147 C3141 1.390 . S
C3147 C3144 1.386 . S
C3148 C3143 1.490 . S
C3148 C3150 1.395 . S
C3148 C3151 1.403 . S
H3149 C3155 0.930 . S
C3150 H3136 0.930 . S
C3150 C3148 1.395 . S
C3150 C3153 1.403 . S
C3151 C3148 1.403 . S
C3151 C3152 1.524 . S
C3151 C3155 1.400 . S
C3152 H3137 0.960 . S
C3152 H3138 0.960 . S
C3152 H3139 0.960 . S
C3152 C3151 1.524 . S
C3153 C3150 1.403 . S
C3153 C3154 1.392 . S
C3153 C3157 1.495 . S
C3154 C3153 1.392 . S
C3154 C3155 1.385 . S
C3154 C3156 1.478 . S
C3155 H3149 0.930 . S
C3155 C3151 1.400 . S
C3155 C3154 1.385 . S
C3156 C3154 1.478 . S
C3156 C3158 1.381 . S
C3156 C3162 1.383 . S
C3157 C3153 1.495 . S
C3157 H3163 0.959 . S
C3157 H3164 0.961 . S
C3157 H3165 0.960 . S
C3158 C3156 1.381 . S
C3158 C3159 1.394 . S
C3158 H3166 0.930 . S
C3159 C3158 1.394 . S
C3159 C3160 1.383 . S
C3159 H3167 0.929 . S
C3160 C3159 1.383 . S
C3160 C3161 1.377 . S
C3161 H3145 0.930 . S
C3161 C3160 1.377 . S
C3161 C3162 1.379 . S
C3162 H3146 0.931 . S
C3162 C3156 1.383 . S
C3162 C3161 1.379 . S
H3163 C3157 0.959 . S
H3164 C3157 0.961 . S
H3165 C3157 0.960 . S
H3166 C3158 0.930 . S
H3167 C3159 0.929 . S
H3168 C3176 0.929 . S
H3169 C3178 0.930 . S
H3170 C3180 0.930 . S
H3171 C3183 0.929 . S
H3172 C3186 0.930 . S
H3173 C3188 0.960 . S
H3174 C3188 0.960 . S
H3175 C3188 0.960 . S
C3176 H3168 0.929 . S
C3176 C3177 1.377 . S
C3176 C3178 1.384 . S
C3177 C3176 1.377 . S
C3177 C3183 1.390 . S
C3178 H3169 0.930 . S
C3178 C3176 1.384 . S
C3178 C3179 1.372 . S
C3179 C3178 1.372 . S
C3179 C3180 1.400 . S
C3179 C3184 1.490 . S
C3180 H3170 0.930 . S
C3180 C3179 1.400 . S
C3180 C3183 1.386 . S
H3181 C3197 0.930 . S
H3182 C3198 0.931 . S
C3183 H3171 0.929 . S
C3183 C3177 1.390 . S
C3183 C3180 1.386 . S
C3184 C3179 1.490 . S
C3184 C3186 1.395 . S
C3184 C3187 1.403 . S
H3185 C3191 0.930 . S
C3186 H3172 0.930 . S
C3186 C3184 1.395 . S
C3186 C3189 1.403 . S
C3187 C3184 1.403 . S
C3187 C3188 1.524 . S
C3187 C3191 1.400 . S
C3188 H3173 0.960 . S
C3188 H3174 0.960 . S
C3188 H3175 0.960 . S
C3188 C3187 1.524 . S
C3189 C3186 1.403 . S
C3189 C3190 1.392 . S
C3189 C3193 1.495 . S
C3190 C3189 1.392 . S
C3190 C3191 1.385 . S
C3190 C3192 1.478 . S
C3191 H3185 0.930 . S
C3191 C3187 1.400 . S
C3191 C3190 1.385 . S
C3192 C3190 1.478 . S
C3192 C3194 1.381 . S
C3192 C3198 1.383 . S
C3193 C3189 1.495 . S
C3193 H3199 0.959 . S
C3193 H3200 0.961 . S
C3193 H3201 0.960 . S
C3194 C3192 1.381 . S
C3194 C3195 1.394 . S
C3194 H3202 0.930 . S
C3195 C3194 1.394 . S
C3195 C3196 1.383 . S
C3195 H3203 0.929 . S
C3196 C3195 1.383 . S
C3196 C3197 1.377 . S
C3197 H3181 0.930 . S
C3197 C3196 1.377 . S
C3197 C3198 1.379 . S
C3198 H3182 0.931 . S
C3198 C3192 1.383 . S
C3198 C3197 1.379 . S
H3199 C3193 0.959 . S
H3200 C3193 0.961 . S
H3201 C3193 0.960 . S
H3202 C3194 0.930 . S
H3203 C3195 0.929 . S
H3204 C3212 0.929 . S
H3205 C3214 0.930 . S
H3206 C3216 0.930 . S
H3207 C3219 0.929 . S
H3208 C3222 0.930 1_455 S
H3209 C3224 0.960 . S
H3210 C3224 0.960 . S
H3211 C3224 0.960 . S
C3212 H3204 0.929 . S
C3212 C3213 1.377 . S
C3212 C3214 1.384 . S
C3213 C3212 1.377 . S
C3213 C3219 1.390 . S
C3214 H3205 0.930 . S
C3214 C3212 1.384 . S
C3214 C3215 1.372 . S
C3215 C3214 1.372 . S
C3215 C3216 1.400 . S
C3215 C3220 1.490 . S
C3216 H3206 0.930 . S
C3216 C3215 1.400 . S
C3216 C3219 1.386 . S
H3217 C3233 0.930 . S
H3218 C3234 0.931 . S
C3219 H3207 0.929 . S
C3219 C3213 1.390 . S
C3219 C3216 1.386 . S
C3220 C3215 1.490 . S
C3220 C3222 1.395 . S
C3220 C3223 1.403 . S
H3221 C3227 0.930 . S
C3222 H3208 0.930 1_655 S
C3222 C3220 1.395 . S
C3222 C3225 1.404 1_655 S
C3223 C3220 1.403 . S
C3223 C3224 1.524 . S
C3223 C3227 1.400 . S
C3224 H3209 0.960 . S
C3224 H3210 0.960 . S
C3224 H3211 0.960 . S
C3224 C3223 1.524 . S
C3225 C3222 1.404 1_455 S
C3225 C3226 1.396 1_455 S
C3225 C3229 1.491 . S
C3226 C3225 1.396 1_655 S
C3226 C3227 1.385 . S
C3226 C3228 1.478 . S
C3227 H3221 0.930 . S
C3227 C3223 1.400 . S
C3227 C3226 1.385 . S
C3228 C3226 1.478 . S
C3228 C3230 1.381 . S
C3228 C3234 1.383 . S
C3229 C3225 1.491 . S
C3229 H3235 0.959 . S
C3229 H3236 0.961 . S
C3229 H3237 0.960 . S
C3230 C3228 1.381 . S
C3230 C3231 1.394 . S
C3230 H3238 0.930 1_655 S
C3231 C3230 1.394 . S
C3231 C3232 1.383 . S
C3231 H3239 0.929 1_655 S
C3232 C3231 1.383 . S
C3232 C3233 1.377 . S
C3233 H3217 0.930 . S
C3233 C3232 1.377 . S
C3233 C3234 1.379 . S
C3234 H3218 0.931 . S
C3234 C3228 1.383 . S
C3234 C3233 1.379 . S
H3235 C3229 0.959 . S
H3236 C3229 0.961 . S
H3237 C3229 0.960 . S
H3238 C3230 0.930 1_455 S
H3239 C3231 0.929 1_455 S
H3240 C3248 0.929 . S
H3241 C3250 0.930 . S
H3242 C3252 0.930 . S
H3243 C3255 0.929 . S
H3244 C3258 0.930 . S
H3245 C3260 0.960 . S
H3246 C3260 0.960 . S
H3247 C3260 0.960 . S
C3248 H3240 0.929 . S
C3248 C3249 1.377 . S
C3248 C3250 1.384 . S
C3249 C3248 1.377 . S
C3249 C3255 1.390 . S
C3250 H3241 0.930 . S
C3250 C3248 1.384 . S
C3250 C3251 1.372 . S
C3251 C3250 1.372 . S
C3251 C3252 1.400 . S
C3251 C3256 1.490 . S
C3252 H3242 0.930 . S
C3252 C3251 1.400 . S
C3252 C3255 1.386 . S
H3253 C3269 0.930 . S
H3254 C3270 0.931 . S
C3255 H3243 0.929 . S
C3255 C3249 1.390 . S
C3255 C3252 1.386 . S
C3256 C3251 1.490 . S
C3256 C3258 1.395 . S
C3256 C3259 1.403 . S
H3257 C3263 0.930 . S
C3258 H3244 0.930 . S
C3258 C3256 1.395 . S
C3258 C3261 1.403 . S
C3259 C3256 1.403 . S
C3259 C3260 1.524 . S
C3259 C3263 1.400 . S
C3260 H3245 0.960 . S
C3260 H3246 0.960 . S
C3260 H3247 0.960 . S
C3260 C3259 1.524 . S
C3261 C3258 1.403 . S
C3261 C3262 1.392 . S
C3261 C3265 1.495 . S
C3262 C3261 1.392 . S
C3262 C3263 1.385 . S
C3262 C3264 1.478 . S
C3263 H3257 0.930 . S
C3263 C3259 1.400 . S
C3263 C3262 1.385 . S
C3264 C3262 1.478 . S
C3264 C3266 1.381 . S
C3264 C3270 1.383 . S
C3265 C3261 1.495 . S
C3265 H3271 0.959 . S
C3265 H3272 0.961 . S
C3265 H3273 0.960 . S
C3266 C3264 1.381 . S
C3266 C3267 1.394 . S
C3266 H3274 0.930 . S
C3267 C3266 1.394 . S
C3267 C3268 1.383 . S
C3267 H3275 0.929 . S
C3268 C3267 1.383 . S
C3268 C3269 1.377 . S
C3269 H3253 0.930 . S
C3269 C3268 1.377 . S
C3269 C3270 1.379 . S
C3270 H3254 0.931 . S
C3270 C3264 1.383 . S
C3270 C3269 1.379 . S
H3271 C3265 0.959 . S
H3272 C3265 0.961 . S
H3273 C3265 0.960 . S
H3274 C3266 0.930 . S
H3275 C3267 0.929 . S
H3276 C3284 0.929 . S
H3277 C3286 0.930 . S
H3278 C3288 0.930 . S
H3279 C3291 0.929 1_554 S
H3280 C3294 0.957 . S
H3281 C3296 0.960 . S
H3282 C3296 0.960 . S
H3283 C3296 0.960 . S
C3284 H3276 0.929 . S
C3284 C3285 1.377 . S
C3284 C3286 1.384 . S
C3285 C3284 1.377 . S
C3285 C3291 1.390 . S
C3286 H3277 0.930 . S
C3286 C3284 1.384 . S
C3286 C3287 1.372 . S
C3287 C3286 1.372 . S
C3287 C3288 1.400 . S
C3287 C3292 1.490 . S
C3288 H3278 0.930 . S
C3288 C3287 1.400 . S
C3288 C3291 1.386 . S
H3289 C3305 0.930 . S
H3290 C3306 0.931 . S
C3291 H3279 0.929 1_556 S
C3291 C3285 1.390 . S
C3291 C3288 1.386 . S
C3292 C3287 1.490 . S
C3292 C3294 1.395 . S
C3292 C3295 1.403 . S
H3293 C3299 0.930 . S
C3294 H3280 0.957 . S
C3294 C3292 1.395 . S
C3294 C3297 1.403 . S
C3295 C3292 1.403 . S
C3295 C3296 1.524 . S
C3295 C3299 1.400 . S
C3296 H3281 0.960 . S
C3296 H3282 0.960 . S
C3296 H3283 0.960 . S
C3296 C3295 1.524 . S
C3297 C3294 1.403 . S
C3297 C3298 1.392 . S
C3297 C3301 1.495 1_455 S
C3298 C3297 1.392 . S
C3298 C3299 1.385 . S
C3298 C3300 1.478 . S
C3299 H3293 0.930 . S
C3299 C3295 1.400 . S
C3299 C3298 1.385 . S
C3300 C3298 1.478 . S
C3300 C3302 1.381 . S
C3300 C3306 1.383 . S
C3301 C3297 1.495 1_655 S
C3301 H3307 0.959 . S
C3301 H3308 0.961 . S
C3301 H3309 0.960 . S
C3302 C3300 1.381 . S
C3302 C3303 1.394 . S
C3302 H3310 0.930 . S
C3303 C3302 1.394 . S
C3303 C3304 1.383 . S
C3303 H3311 0.929 . S
C3304 C3303 1.383 . S
C3304 C3305 1.377 . S
C3305 H3289 0.930 . S
C3305 C3304 1.377 . S
C3305 C3306 1.379 . S
C3306 H3290 0.931 . S
C3306 C3300 1.383 . S
C3306 C3305 1.379 . S
H3307 C3301 0.959 . S
H3308 C3301 0.961 . S
H3309 C3301 0.960 . S
H3310 C3302 0.930 . S
H3311 C3303 0.929 . S
H3312 C3320 0.929 . S
H3313 C3322 0.930 . S
H3314 C3324 0.930 . S
H3315 C3327 0.929 . S
H3316 C3330 0.930 . S
H3317 C3332 0.960 . S
H3318 C3332 0.960 . S
H3319 C3332 0.960 . S
C3320 H3312 0.929 . S
C3320 C3321 1.377 . S
C3320 C3322 1.384 . S
C3321 C3320 1.377 . S
C3321 C3327 1.390 . S
C3322 H3313 0.930 . S
C3322 C3320 1.384 . S
C3322 C3323 1.372 . S
C3323 C3322 1.372 . S
C3323 C3324 1.400 . S
C3323 C3328 1.490 . S
C3324 H3314 0.930 . S
C3324 C3323 1.400 . S
C3324 C3327 1.386 . S
H3325 C3341 0.930 . S
H3326 C3342 0.931 . S
C3327 H3315 0.929 . S
C3327 C3321 1.390 . S
C3327 C3324 1.386 . S
C3328 C3323 1.490 . S
C3328 C3330 1.395 . S
C3328 C3331 1.403 . S
H3329 C3335 0.930 . S
C3330 H3316 0.930 . S
C3330 C3328 1.395 . S
C3330 C3333 1.403 . S
C3331 C3328 1.403 . S
C3331 C3332 1.524 . S
C3331 C3335 1.400 . S
C3332 H3317 0.960 . S
C3332 H3318 0.960 . S
C3332 H3319 0.960 . S
C3332 C3331 1.524 . S
C3333 C3330 1.403 . S
C3333 C3334 1.392 . S
C3333 C3337 1.495 . S
C3334 C3333 1.392 . S
C3334 C3335 1.385 . S
C3334 C3336 1.478 . S
C3335 H3329 0.930 . S
C3335 C3331 1.400 . S
C3335 C3334 1.385 . S
C3336 C3334 1.478 . S
C3336 C3338 1.381 . S
C3336 C3342 1.383 . S
C3337 C3333 1.495 . S
C3337 H3343 0.959 . S
C3337 H3344 0.961 . S
C3337 H3345 0.960 . S
C3338 C3336 1.381 . S
C3338 C3339 1.394 . S
C3338 H3346 0.930 . S
C3339 C3338 1.394 . S
C3339 C3340 1.383 . S
C3339 H3347 0.929 . S
C3340 C3339 1.383 . S
C3340 C3341 1.377 . S
C3341 H3325 0.930 . S
C3341 C3340 1.377 . S
C3341 C3342 1.379 . S
C3342 H3326 0.931 . S
C3342 C3336 1.383 . S
C3342 C3341 1.379 . S
H3343 C3337 0.959 . S
H3344 C3337 0.961 . S
H3345 C3337 0.960 . S
H3346 C3338 0.930 . S
H3347 C3339 0.929 . S
H3348 C3356 0.929 . S
H3349 C3358 0.930 . S
H3350 C3360 0.930 . S
H3351 C3363 0.929 1_556 S
H3352 C3366 0.930 . S
H3353 C3368 0.960 . S
H3354 C3368 0.960 . S
H3355 C3368 0.960 . S
C3356 H3348 0.929 . S
C3356 C3357 1.377 . S
C3356 C3358 1.384 . S
C3357 C3356 1.377 . S
C3357 C3363 1.390 . S
C3358 H3349 0.930 . S
C3358 C3356 1.384 . S
C3358 C3359 1.372 . S
C3359 C3358 1.372 . S
C3359 C3360 1.400 . S
C3359 C3364 1.490 . S
C3360 H3350 0.930 . S
C3360 C3359 1.400 . S
C3360 C3363 1.386 . S
H3361 C3377 0.930 . S
H3362 C3378 0.931 . S
C3363 H3351 0.929 1_554 S
C3363 C3357 1.390 . S
C3363 C3360 1.386 . S
C3364 C3359 1.490 . S
C3364 C3366 1.395 . S
C3364 C3367 1.403 . S
H3365 C3371 0.930 . S
C3366 H3352 0.930 . S
C3366 C3364 1.395 . S
C3366 C3369 1.403 . S
C3367 C3364 1.403 . S
C3367 C3368 1.524 . S
C3367 C3371 1.400 . S
C3368 H3353 0.960 . S
C3368 H3354 0.960 . S
C3368 H3355 0.960 . S
C3368 C3367 1.524 . S
C3369 C3366 1.403 . S
C3369 C3370 1.392 . S
C3369 C3373 1.495 . S
C3370 C3369 1.392 . S
C3370 C3371 1.385 . S
C3370 C3372 1.478 . S
C3371 H3365 0.930 . S
C3371 C3367 1.400 . S
C3371 C3370 1.385 . S
C3372 C3370 1.478 . S
C3372 C3374 1.381 . S
C3372 C3378 1.383 . S
C3373 C3369 1.495 . S
C3373 H3379 0.959 . S
C3373 H3380 0.961 . S
C3373 H3381 0.960 . S
C3374 C3372 1.381 . S
C3374 C3375 1.394 . S
C3374 H3382 0.930 . S
C3375 C3374 1.394 . S
C3375 C3376 1.383 . S
C3375 H3383 0.929 . S
C3376 C3375 1.383 . S
C3376 C3377 1.377 . S
C3377 H3361 0.930 . S
C3377 C3376 1.377 . S
C3377 C3378 1.379 . S
C3378 H3362 0.931 . S
C3378 C3372 1.383 . S
C3378 C3377 1.379 . S
H3379 C3373 0.959 . S
H3380 C3373 0.961 . S
H3381 C3373 0.960 . S
H3382 C3374 0.930 . S
H3383 C3375 0.929 . S
H3384 C3392 0.929 . S
H3385 C3394 0.930 . S
H3386 C3396 0.930 . S
H3387 C3399 0.929 . S
H3388 C3402 0.930 . S
H3389 C3404 0.960 . S
H3390 C3404 0.960 . S
H3391 C3404 0.960 . S
C3392 H3384 0.929 . S
C3392 C3393 1.377 . S
C3392 C3394 1.384 . S
C3393 C3392 1.377 . S
C3393 C3399 1.390 . S
C3394 H3385 0.930 . S
C3394 C3392 1.384 . S
C3394 C3395 1.372 . S
C3395 C3394 1.372 . S
C3395 C3396 1.400 . S
C3395 C3400 1.490 . S
C3396 H3386 0.930 . S
C3396 C3395 1.400 . S
C3396 C3399 1.386 . S
H3397 C3413 0.930 . S
H3398 C3414 0.931 . S
C3399 H3387 0.929 . S
C3399 C3393 1.390 . S
C3399 C3396 1.386 . S
C3400 C3395 1.490 . S
C3400 C3402 1.395 . S
C3400 C3403 1.403 . S
H3401 C3407 0.930 . S
C3402 H3388 0.930 . S
C3402 C3400 1.395 . S
C3402 C3405 1.403 . S
C3403 C3400 1.403 . S
C3403 C3404 1.524 . S
C3403 C3407 1.400 . S
C3404 H3389 0.960 . S
C3404 H3390 0.960 . S
C3404 H3391 0.960 . S
C3404 C3403 1.524 . S
C3405 C3402 1.403 . S
C3405 C3406 1.392 . S
C3405 C3409 1.495 . S
C3406 C3405 1.392 . S
C3406 C3407 1.385 . S
C3406 C3408 1.478 . S
C3407 H3401 0.930 . S
C3407 C3403 1.400 . S
C3407 C3406 1.385 . S
C3408 C3406 1.478 . S
C3408 C3410 1.381 . S
C3408 C3414 1.383 . S
C3409 C3405 1.495 . S
C3409 H3415 0.959 . S
C3409 H3416 0.961 . S
C3409 H3417 0.960 . S
C3410 C3408 1.381 . S
C3410 C3411 1.394 . S
C3410 H3418 0.930 . S
C3411 C3410 1.394 . S
C3411 C3412 1.383 . S
C3411 H3419 0.929 . S
C3412 C3411 1.383 . S
C3412 C3413 1.377 . S
C3413 H3397 0.930 . S
C3413 C3412 1.377 . S
C3413 C3414 1.379 . S
C3414 H3398 0.931 . S
C3414 C3408 1.383 . S
C3414 C3413 1.379 . S
H3415 C3409 0.959 . S
H3416 C3409 0.961 . S
H3417 C3409 0.960 . S
H3418 C3410 0.930 . S
H3419 C3411 0.929 . S
H3420 C3428 0.929 . S
H3421 C3430 0.930 . S
H3422 C3432 0.930 . S
H3423 C3435 0.929 . S
H3424 C3438 0.930 . S
H3425 C3440 0.960 . S
H3426 C3440 0.960 . S
H3427 C3440 0.960 . S
C3428 H3420 0.929 . S
C3428 C3429 1.377 . S
C3428 C3430 1.384 . S
C3429 C3428 1.377 . S
C3429 C3435 1.390 . S
C3430 H3421 0.930 . S
C3430 C3428 1.384 . S
C3430 C3431 1.372 . S
C3431 C3430 1.372 . S
C3431 C3432 1.400 . S
C3431 C3436 1.490 . S
C3432 H3422 0.930 . S
C3432 C3431 1.400 . S
C3432 C3435 1.386 . S
H3433 C3449 0.930 . S
H3434 C3450 0.931 . S
C3435 H3423 0.929 . S
C3435 C3429 1.390 . S
C3435 C3432 1.386 . S
C3436 C3431 1.490 . S
C3436 C3438 1.395 . S
C3436 C3439 1.403 . S
H3437 C3443 0.930 . S
C3438 H3424 0.930 . S
C3438 C3436 1.395 . S
C3438 C3441 1.403 . S
C3439 C3436 1.403 . S
C3439 C3440 1.524 . S
C3439 C3443 1.400 . S
C3440 H3425 0.960 . S
C3440 H3426 0.960 . S
C3440 H3427 0.960 . S
C3440 C3439 1.524 . S
C3441 C3438 1.403 . S
C3441 C3442 1.392 . S
C3441 C3445 1.495 . S
C3442 C3441 1.392 . S
C3442 C3443 1.385 . S
C3442 C3444 1.478 . S
C3443 H3437 0.930 . S
C3443 C3439 1.400 . S
C3443 C3442 1.385 . S
C3444 C3442 1.478 . S
C3444 C3446 1.381 . S
C3444 C3450 1.383 . S
C3445 C3441 1.495 . S
C3445 H3451 0.959 . S
C3445 H3452 0.961 . S
C3445 H3453 0.960 . S
C3446 C3444 1.381 . S
C3446 C3447 1.394 . S
C3446 H3454 0.930 . S
C3447 C3446 1.394 . S
C3447 C3448 1.383 . S
C3447 H3455 0.929 . S
C3448 C3447 1.383 . S
C3448 C3449 1.377 . S
C3449 H3433 0.930 . S
C3449 C3448 1.377 . S
C3449 C3450 1.379 . S
C3450 H3434 0.931 . S
C3450 C3444 1.383 . S
C3450 C3449 1.379 . S
H3451 C3445 0.959 . S
H3452 C3445 0.961 . S
H3453 C3445 0.960 . S
H3454 C3446 0.930 . S
H3455 C3447 0.929 . S
H3456 C3464 0.929 . S
H3457 C3466 0.930 . S
H3458 C3468 0.930 . S
H3459 C3471 0.929 . S
H3460 C3474 0.930 . S
H3461 C3476 0.960 . S
H3462 C3476 0.960 . S
H3463 C3476 0.960 . S
C3464 H3456 0.929 . S
C3464 C3465 1.377 . S
C3464 C3466 1.384 . S
C3465 C3464 1.377 . S
C3465 C3471 1.390 . S
C3466 H3457 0.930 . S
C3466 C3464 1.384 . S
C3466 C3467 1.372 . S
C3467 C3466 1.372 . S
C3467 C3468 1.400 . S
C3467 C3472 1.490 . S
C3468 H3458 0.930 . S
C3468 C3467 1.400 . S
C3468 C3471 1.386 . S
H3469 C3485 0.930 . S
H3470 C3486 0.931 . S
C3471 H3459 0.929 . S
C3471 C3465 1.390 . S
C3471 C3468 1.386 . S
C3472 C3467 1.490 . S
C3472 C3474 1.395 . S
C3472 C3475 1.403 . S
H3473 C3479 0.930 . S
C3474 H3460 0.930 . S
C3474 C3472 1.395 . S
C3474 C3477 1.403 . S
C3475 C3472 1.403 . S
C3475 C3476 1.524 . S
C3475 C3479 1.400 . S
C3476 H3461 0.960 . S
C3476 H3462 0.960 . S
C3476 H3463 0.960 . S
C3476 C3475 1.524 . S
C3477 C3474 1.403 . S
C3477 C3478 1.392 . S
C3477 C3481 1.495 . S
C3478 C3477 1.392 . S
C3478 C3479 1.385 . S
C3478 C3480 1.478 . S
C3479 H3473 0.930 . S
C3479 C3475 1.400 . S
C3479 C3478 1.385 . S
C3480 C3478 1.478 . S
C3480 C3482 1.381 . S
C3480 C3486 1.383 . S
C3481 C3477 1.495 . S
C3481 H3487 0.959 . S
C3481 H3488 0.961 . S
C3481 H3489 0.960 . S
C3482 C3480 1.381 . S
C3482 C3483 1.394 . S
C3482 H3490 0.930 . S
C3483 C3482 1.394 . S
C3483 C3484 1.383 . S
C3483 H3491 0.929 . S
C3484 C3483 1.383 . S
C3484 C3485 1.377 . S
C3485 H3469 0.930 . S
C3485 C3484 1.377 . S
C3485 C3486 1.379 . S
C3486 H3470 0.931 . S
C3486 C3480 1.383 . S
C3486 C3485 1.379 . S
H3487 C3481 0.959 . S
H3488 C3481 0.961 . S
H3489 C3481 0.960 . S
H3490 C3482 0.930 . S
H3491 C3483 0.929 . S
H3492 C3500 0.929 . S
H3493 C3502 0.930 . S
H3494 C3504 0.930 . S
H3495 C3507 0.929 . S
H3496 C3510 0.930 . S
H3497 C3512 0.960 . S
H3498 C3512 0.960 . S
H3499 C3512 0.960 . S
C3500 H3492 0.929 . S
C3500 C3501 1.377 . S
C3500 C3502 1.384 . S
C3501 C3500 1.377 . S
C3501 C3507 1.390 . S
C3502 H3493 0.930 . S
C3502 C3500 1.384 . S
C3502 C3503 1.372 . S
C3503 C3502 1.372 . S
C3503 C3504 1.400 . S
C3503 C3508 1.490 . S
C3504 H3494 0.930 . S
C3504 C3503 1.400 . S
C3504 C3507 1.386 . S
H3505 C3521 0.930 . S
H3506 C3522 0.931 . S
C3507 H3495 0.929 . S
C3507 C3501 1.390 . S
C3507 C3504 1.386 . S
C3508 C3503 1.490 . S
C3508 C3510 1.395 . S
C3508 C3511 1.403 . S
H3509 C3515 0.930 . S
C3510 H3496 0.930 . S
C3510 C3508 1.395 . S
C3510 C3513 1.403 . S
C3511 C3508 1.403 . S
C3511 C3512 1.524 . S
C3511 C3515 1.400 . S
C3512 H3497 0.960 . S
C3512 H3498 0.960 . S
C3512 H3499 0.960 . S
C3512 C3511 1.524 . S
C3513 C3510 1.403 . S
C3513 C3514 1.392 . S
C3513 C3517 1.495 . S
C3514 C3513 1.392 . S
C3514 C3515 1.385 . S
C3514 C3516 1.478 . S
C3515 H3509 0.930 . S
C3515 C3511 1.400 . S
C3515 C3514 1.385 . S
C3516 C3514 1.478 . S
C3516 C3518 1.381 . S
C3516 C3522 1.383 . S
C3517 C3513 1.495 . S
C3517 H3523 0.959 . S
C3517 H3524 0.961 . S
C3517 H3525 0.960 . S
C3518 C3516 1.381 . S
C3518 C3519 1.394 . S
C3518 H3526 0.930 . S
C3519 C3518 1.394 . S
C3519 C3520 1.383 . S
C3519 H3527 0.929 . S
C3520 C3519 1.383 . S
C3520 C3521 1.377 . S
C3521 H3505 0.930 . S
C3521 C3520 1.377 . S
C3521 C3522 1.379 . S
C3522 H3506 0.931 . S
C3522 C3516 1.383 . S
C3522 C3521 1.379 . S
H3523 C3517 0.959 . S
H3524 C3517 0.961 . S
H3525 C3517 0.960 . S
H3526 C3518 0.930 . S
H3527 C3519 0.929 . S
H3528 C3536 0.929 . S
H3529 C3538 0.930 . S
H3530 C3540 0.930 . S
H3531 C3543 0.929 . S
H3532 C3546 0.930 . S
H3533 C3548 0.960 . S
H3534 C3548 0.960 . S
H3535 C3548 0.960 . S
C3536 H3528 0.929 . S
C3536 C3537 1.377 . S
C3536 C3538 1.384 . S
C3537 C3536 1.377 . S
C3537 C3543 1.390 . S
C3538 H3529 0.930 . S
C3538 C3536 1.384 . S
C3538 C3539 1.372 . S
C3539 C3538 1.372 . S
C3539 C3540 1.400 . S
C3539 C3544 1.490 . S
C3540 H3530 0.930 . S
C3540 C3539 1.400 . S
C3540 C3543 1.386 . S
H3541 C3557 0.930 . S
H3542 C3558 0.931 . S
C3543 H3531 0.929 . S
C3543 C3537 1.390 . S
C3543 C3540 1.386 . S
C3544 C3539 1.490 . S
C3544 C3546 1.395 . S
C3544 C3547 1.403 . S
H3545 C3551 0.930 . S
C3546 H3532 0.930 . S
C3546 C3544 1.395 . S
C3546 C3549 1.403 . S
C3547 C3544 1.403 . S
C3547 C3548 1.524 . S
C3547 C3551 1.400 . S
C3548 H3533 0.960 . S
C3548 H3534 0.960 . S
C3548 H3535 0.960 . S
C3548 C3547 1.524 . S
C3549 C3546 1.403 . S
C3549 C3550 1.392 . S
C3549 C3553 1.495 . S
C3550 C3549 1.392 . S
C3550 C3551 1.385 . S
C3550 C3552 1.478 . S
C3551 H3545 0.930 . S
C3551 C3547 1.400 . S
C3551 C3550 1.385 . S
C3552 C3550 1.478 . S
C3552 C3554 1.381 . S
C3552 C3558 1.383 . S
C3553 C3549 1.495 . S
C3553 H3559 0.959 . S
C3553 H3560 0.961 . S
C3553 H3561 0.960 . S
C3554 C3552 1.381 . S
C3554 C3555 1.394 . S
C3554 H3562 0.930 . S
C3555 C3554 1.394 . S
C3555 C3556 1.383 . S
C3555 H3563 0.929 . S
C3556 C3555 1.383 . S
C3556 C3557 1.377 . S
C3557 H3541 0.930 . S
C3557 C3556 1.377 . S
C3557 C3558 1.379 . S
C3558 H3542 0.931 . S
C3558 C3552 1.383 . S
C3558 C3557 1.379 . S
H3559 C3553 0.959 . S
H3560 C3553 0.961 . S
H3561 C3553 0.960 . S
H3562 C3554 0.930 . S
H3563 C3555 0.929 . S
H3564 C3572 0.929 . S
H3565 C3574 0.930 . S
H3566 C3576 0.930 . S
H3567 C3579 0.929 . S
H3568 C3582 0.930 . S
H3569 C3584 0.960 . S
H3570 C3584 0.960 . S
H3571 C3584 0.960 . S
C3572 H3564 0.929 . S
C3572 C3573 1.377 . S
C3572 C3574 1.384 . S
C3573 C3572 1.377 . S
C3573 C3579 1.390 . S
C3574 H3565 0.930 . S
C3574 C3572 1.384 . S
C3574 C3575 1.372 . S
C3575 C3574 1.372 . S
C3575 C3576 1.400 . S
C3575 C3580 1.490 . S
C3576 H3566 0.930 . S
C3576 C3575 1.400 . S
C3576 C3579 1.386 . S
H3577 C3593 0.930 . S
H3578 C3594 0.931 . S
C3579 H3567 0.929 . S
C3579 C3573 1.390 . S
C3579 C3576 1.386 . S
C3580 C3575 1.490 . S
C3580 C3582 1.395 . S
C3580 C3583 1.403 . S
H3581 C3587 0.930 . S
C3582 H3568 0.930 . S
C3582 C3580 1.395 . S
C3582 C3585 1.403 . S
C3583 C3580 1.403 . S
C3583 C3584 1.524 . S
C3583 C3587 1.400 . S
C3584 H3569 0.960 . S
C3584 H3570 0.960 . S
C3584 H3571 0.960 . S
C3584 C3583 1.524 . S
C3585 C3582 1.403 . S
C3585 C3586 1.392 . S
C3585 C3589 1.495 . S
C3586 C3585 1.392 . S
C3586 C3587 1.385 . S
C3586 C3588 1.478 . S
C3587 H3581 0.930 . S
C3587 C3583 1.400 . S
C3587 C3586 1.385 . S
C3588 C3586 1.478 . S
C3588 C3590 1.381 . S
C3588 C3594 1.383 . S
C3589 C3585 1.495 . S
C3589 H3595 0.959 . S
C3589 H3596 0.961 . S
C3589 H3597 0.960 . S
C3590 C3588 1.381 . S
C3590 C3591 1.394 . S
C3590 H3598 0.930 . S
C3591 C3590 1.394 . S
C3591 C3592 1.383 . S
C3591 H3599 0.929 . S
C3592 C3591 1.383 . S
C3592 C3593 1.377 . S
C3593 H3577 0.930 . S
C3593 C3592 1.377 . S
C3593 C3594 1.379 . S
C3594 H3578 0.931 . S
C3594 C3588 1.383 . S
C3594 C3593 1.379 . S
H3595 C3589 0.959 . S
H3596 C3589 0.961 . S
H3597 C3589 0.960 . S
H3598 C3590 0.930 . S
H3599 C3591 0.929 . S
H3600 C3608 0.929 . S
H3601 C3610 0.930 . S
H3602 C3612 0.930 . S
H3603 C3615 0.929 . S
H3604 C3618 0.930 . S
H3605 C3620 0.960 . S
H3606 C3620 0.960 . S
H3607 C3620 0.960 . S
C3608 H3600 0.929 . S
C3608 C3609 1.377 . S
C3608 C3610 1.384 . S
C3609 C3608 1.377 . S
C3609 C3615 1.390 . S
C3610 H3601 0.930 . S
C3610 C3608 1.384 . S
C3610 C3611 1.372 . S
C3611 C3610 1.372 . S
C3611 C3612 1.400 . S
C3611 C3616 1.490 . S
C3612 H3602 0.930 . S
C3612 C3611 1.400 . S
C3612 C3615 1.386 . S
H3613 C3629 0.930 . S
H3614 C3630 0.931 . S
C3615 H3603 0.929 . S
C3615 C3609 1.390 . S
C3615 C3612 1.386 . S
C3616 C3611 1.490 . S
C3616 C3618 1.395 . S
C3616 C3619 1.403 . S
H3617 C3623 0.930 . S
C3618 H3604 0.930 . S
C3618 C3616 1.395 . S
C3618 C3621 1.403 . S
C3619 C3616 1.403 . S
C3619 C3620 1.524 . S
C3619 C3623 1.400 . S
C3620 H3605 0.960 . S
C3620 H3606 0.960 . S
C3620 H3607 0.960 . S
C3620 C3619 1.524 . S
C3621 C3618 1.403 . S
C3621 C3622 1.392 . S
C3621 C3625 1.495 . S
C3622 C3621 1.392 . S
C3622 C3623 1.385 . S
C3622 C3624 1.478 . S
C3623 H3617 0.930 . S
C3623 C3619 1.400 . S
C3623 C3622 1.385 . S
C3624 C3622 1.478 . S
C3624 C3626 1.381 . S
C3624 C3630 1.383 . S
C3625 C3621 1.495 . S
C3625 H3631 0.959 . S
C3625 H3632 0.961 . S
C3625 H3633 0.960 . S
C3626 C3624 1.381 . S
C3626 C3627 1.390 1_556 S
C3626 H3634 0.930 1_556 S
C3627 C3626 1.390 1_554 S
C3627 C3628 1.355 1_554 S
C3627 H3635 0.962 . S
C3628 C3627 1.355 1_556 S
C3628 C3629 1.377 . S
C3629 H3613 0.930 . S
C3629 C3628 1.377 . S
C3629 C3630 1.379 . S
C3630 H3614 0.931 . S
C3630 C3624 1.383 . S
C3630 C3629 1.379 . S
H3631 C3625 0.959 . S
H3632 C3625 0.961 . S
H3633 C3625 0.960 . S
H3634 C3626 0.930 1_554 S
H3635 C3627 0.962 . S
H3636 C3644 0.929 . S
H3637 C3646 0.930 . S
H3638 C3648 0.930 . S
H3639 C3651 0.929 . S
H3640 C3654 0.930 . S
H3641 C3656 0.960 . S
H3642 C3656 0.960 . S
H3643 C3656 0.960 . S
C3644 H3636 0.929 . S
C3644 C3645 1.377 . S
C3644 C3646 1.384 . S
C3645 C3644 1.377 . S
C3645 C3651 1.390 . S
C3646 H3637 0.930 . S
C3646 C3644 1.384 . S
C3646 C3647 1.372 . S
C3647 C3646 1.372 . S
C3647 C3648 1.400 . S
C3647 C3652 1.490 . S
C3648 H3638 0.930 . S
C3648 C3647 1.400 . S
C3648 C3651 1.386 . S
H3649 C3665 0.930 . S
H3650 C3666 0.931 . S
C3651 H3639 0.929 . S
C3651 C3645 1.390 . S
C3651 C3648 1.386 . S
C3652 C3647 1.490 . S
C3652 C3654 1.395 . S
C3652 C3655 1.403 . S
H3653 C3659 0.930 . S
C3654 H3640 0.930 . S
C3654 C3652 1.395 . S
C3654 C3657 1.403 . S
C3655 C3652 1.403 . S
C3655 C3656 1.524 . S
C3655 C3659 1.400 . S
C3656 H3641 0.960 . S
C3656 H3642 0.960 . S
C3656 H3643 0.960 . S
C3656 C3655 1.524 . S
C3657 C3654 1.403 . S
C3657 C3658 1.392 . S
C3657 C3661 1.495 . S
C3658 C3657 1.392 . S
C3658 C3659 1.385 . S
C3658 C3660 1.478 . S
C3659 H3653 0.930 . S
C3659 C3655 1.400 . S
C3659 C3658 1.385 . S
C3660 C3658 1.478 . S
C3660 C3662 1.381 . S
C3660 C3666 1.383 . S
C3661 C3657 1.495 . S
C3661 H3667 0.959 . S
C3661 H3668 0.961 . S
C3661 H3669 0.960 . S
C3662 C3660 1.381 . S
C3662 C3663 1.394 . S
C3662 H3670 0.930 . S
C3663 C3662 1.394 . S
C3663 C3664 1.383 . S
C3663 H3671 0.929 . S
C3664 C3663 1.383 . S
C3664 C3665 1.377 . S
C3665 H3649 0.930 . S
C3665 C3664 1.377 . S
C3665 C3666 1.379 . S
C3666 H3650 0.931 . S
C3666 C3660 1.383 . S
C3666 C3665 1.379 . S
H3667 C3661 0.959 . S
H3668 C3661 0.961 . S
H3669 C3661 0.960 . S
H3670 C3662 0.930 . S
H3671 C3663 0.929 . S
H3672 C3680 0.933 . S
H3673 C3682 0.930 1_556 S
H3674 C3684 0.930 . S
H3675 C3687 0.929 . S
H3676 C3690 0.930 . S
H3677 C3692 0.960 . S
H3678 C3692 0.960 . S
H3679 C3692 0.960 . S
C3680 H3672 0.933 . S
C3680 C3681 1.377 . S
C3680 C3682 1.384 . S
C3681 C3680 1.377 . S
C3681 C3687 1.390 . S
C3682 H3673 0.930 1_554 S
C3682 C3680 1.384 . S
C3682 C3683 1.372 . S
C3683 C3682 1.372 . S
C3683 C3684 1.400 . S
C3683 C3688 1.490 . S
C3684 H3674 0.930 . S
C3684 C3683 1.400 . S
C3684 C3687 1.386 . S
H3685 C3701 0.930 . S
H3686 C3702 0.931 . S
C3687 H3675 0.929 . S
C3687 C3681 1.390 . S
C3687 C3684 1.386 . S
C3688 C3683 1.490 . S
C3688 C3690 1.395 . S
C3688 C3691 1.403 . S
H3689 C3695 0.930 . S
C3690 H3676 0.930 . S
C3690 C3688 1.395 . S
C3690 C3693 1.403 . S
C3691 C3688 1.403 . S
C3691 C3692 1.524 . S
C3691 C3695 1.400 . S
C3692 H3677 0.960 . S
C3692 H3678 0.960 . S
C3692 H3679 0.960 . S
C3692 C3691 1.524 . S
C3693 C3690 1.403 . S
C3693 C3694 1.392 . S
C3693 C3697 1.495 1_554 S
C3694 C3693 1.392 . S
C3694 C3695 1.385 . S
C3694 C3696 1.478 . S
C3695 H3689 0.930 . S
C3695 C3691 1.400 . S
C3695 C3694 1.385 . S
C3696 C3694 1.478 . S
C3696 C3698 1.381 1_554 S
C3696 C3702 1.383 . S
C3697 C3693 1.495 1_556 S
C3697 H3703 0.959 . S
C3697 H3704 0.961 1_556 S
C3697 H3705 0.960 . S
C3698 C3696 1.381 1_556 S
C3698 C3699 1.394 . S
C3698 H3706 0.930 . S
C3699 C3698 1.394 . S
C3699 C3700 1.383 1_556 S
C3699 H3707 0.929 . S
C3700 C3699 1.383 1_554 S
C3700 C3701 1.377 . S
C3701 H3685 0.930 . S
C3701 C3700 1.377 . S
C3701 C3702 1.379 . S
C3702 H3686 0.931 . S
C3702 C3696 1.383 . S
C3702 C3701 1.379 . S
H3703 C3697 0.959 . S
H3704 C3697 0.961 1_554 S
H3705 C3697 0.960 . S
H3706 C3698 0.930 . S
H3707 C3699 0.929 . S
H3708 C3716 0.929 . S
H3709 C3718 0.901 1_556 S
H3710 C3720 0.930 . S
H3711 C3723 0.929 . S
H3712 C3726 0.930 . S
H3713 C3728 0.960 . S
H3714 C3728 0.960 . S
H3715 C3728 0.960 . S
C3716 H3708 0.929 . S
C3716 C3717 1.377 . S
C3716 C3718 1.384 . S
C3717 C3716 1.377 . S
C3717 C3723 1.390 . S
C3718 H3709 0.901 1_554 S
C3718 C3716 1.384 . S
C3718 C3719 1.372 . S
C3719 C3718 1.372 . S
C3719 C3720 1.400 . S
C3719 C3724 1.490 . S
C3720 H3710 0.930 . S
C3720 C3719 1.400 . S
C3720 C3723 1.386 . S
H3721 C3737 0.930 . S
H3722 C3738 0.931 . S
C3723 H3711 0.929 . S
C3723 C3717 1.390 . S
C3723 C3720 1.386 . S
C3724 C3719 1.490 . S
C3724 C3726 1.395 . S
C3724 C3727 1.403 . S
H3725 C3731 0.930 . S
C3726 H3712 0.930 . S
C3726 C3724 1.395 . S
C3726 C3729 1.403 . S
C3727 C3724 1.403 . S
C3727 C3728 1.524 . S
C3727 C3731 1.400 . S
C3728 H3713 0.960 . S
C3728 H3714 0.960 . S
C3728 H3715 0.960 . S
C3728 C3727 1.524 . S
C3729 C3726 1.403 . S
C3729 C3730 1.392 . S
C3729 C3733 1.495 . S
C3730 C3729 1.392 . S
C3730 C3731 1.385 . S
C3730 C3732 1.478 . S
C3731 H3725 0.930 . S
C3731 C3727 1.400 . S
C3731 C3730 1.385 . S
C3732 C3730 1.478 . S
C3732 C3734 1.386 1_554 S
C3732 C3738 1.383 . S
C3733 C3729 1.495 . S
C3733 H3739 0.959 . S
C3733 H3740 0.961 . S
C3733 H3741 0.960 . S
C3734 C3732 1.386 1_556 S
C3734 C3735 1.394 . S
C3734 H3742 0.926 . S
C3735 C3734 1.394 . S
C3735 C3736 1.383 1_556 S
C3735 H3743 0.929 . S
C3736 C3735 1.383 1_554 S
C3736 C3737 1.377 . S
C3737 H3721 0.930 . S
C3737 C3736 1.377 . S
C3737 C3738 1.379 . S
C3738 H3722 0.931 . S
C3738 C3732 1.383 . S
C3738 C3737 1.379 . S
H3739 C3733 0.959 . S
H3740 C3733 0.961 . S
H3741 C3733 0.960 . S
H3742 C3734 0.926 . S
H3743 C3735 0.929 . S
C2044 C1009 1.508 . S
C2025 C331 1.498 . S
C2080 C1068 1.521 . S
C2061 C380 1.505 . S
C2097 C421 1.489 . S
C2116 C1185 1.511 . S
C2152 C1253 1.519 . S
C2133 C260 1.487 . S
C2188 C1332 1.505 . S
C2169 C620 1.488 . S
C2224 C1457 1.520 . S
C2205 C740 1.505 . S
C2241 C680 1.481 . S
C2260 C1517 1.508 . S
C2296 C1625 1.522 . S
C2277 C571 1.505 . S
C2313 C691 1.476 . S
C2332 C1721 1.517 . S
C2368 C1781 1.519 . S
C2349 C541 1.500 . S
C2385 C601 1.492 . S
C2404 C1684 1.502 . S
C2440 C1801 1.518 . S
C2421 C721 1.507 . S
C2457 C451 1.494 . S
C2476 C1869 1.516 . S
C2493 C241 1.490 . S
C2512 C1860 1.520 . S
C2529 C320 1.492 . S
C2548 C1889 1.502 . S
C2565 C391 1.501 . S
C2584 C1897 1.520 . S
C2601 C211 1.488 . S
C2620 C1281 1.513 . S
C2637 C841 1.489 . S
C2656 C1244 1.495 . S
C2692 C980 1.516 . S
C2673 C901 1.506 . S
C2728 C1077 1.509 . S
C2709 C500 1.494 . S
C2745 C271 1.490 . S
C2764 C1341 1.517 . S
C2800 C1633 1.510 . S
C2781 C661 1.470 . S
C2836 C1361 1.518 . S
C2817 C560 1.501 . S
C2872 C1545 1.516 . S
C2853 C751 1.504 . S
C2908 C1537 1.508 . S
C2889 C871 1.495 . S
C2925 C920 1.502 . S
C2944 C1605 1.516 . S
C2961 C481 1.494 . S
C2980 C1369 1.509 . S
C3016 C1420 1.520 . S
C2997 C800 1.487 . S
C3033 C200 1.494 . S
C3052 C1165 1.501 . S
C3088 C1273 1.519 . S
C3069 C20 1.501 . S
C3124 C989 1.509 . S
C3105 C80 1.471 . S
C3160 C1105 1.519 . S
C3141 C151 1.500 . S
C3177 C91 1.474 . S
C3196 C1809 1.507 . S
C3213 C121 1.501 . S
C3232 C1693 1.521 . S
C3249 C181 1.488 . S
C3268 C1772 1.503 . S
C3285 C1 1.507 . S
C3304 C1713 1.517 . S
C3340 C1957 1.503 . S
C3321 C511 1.489 . S
C3376 C1948 1.518 . S
C3357 C781 1.493 . S
C3412 C1977 1.503 . S
C3393 C860 1.489 . S
C3429 C931 1.503 . S
C3448 C1985 1.522 . S
C3465 C631 1.489 . S
C3484 C1449 1.507 . S
C3520 C1429 1.504 . S
C3501 C301 1.491 . S
C3556 C1508 1.518 . S
C3537 C361 1.501 . S
C3592 C1596 1.509 . S
C3573 C440 1.501 . S
C3609 C811 1.490 . S
C3628 C1156 1.523 . S
C3664 C1097 1.503 . S
C3645 C61 1.479 . S
C3681 C140 1.502 . S
C3700 C1193 1.521 . S
C3736 C1017 1.522 . S
C3717 C31 1.501 . S
