# Generated by pormake.
# Topology ssb, (4,4)-cn, num edge types: 1
# Building blocks:
#     Node 0, Type 0, BuildingBlock: MIFKUJ_clean_linker_1, # of connection points: 4
#     Node 1, Type 0, BuildingBlock: MIFKUJ_clean_linker_1, # of connection points: 4
#     Node 2, Type 0, BuildingBlock: MIFKUJ_clean_linker_1, # of connection points: 4
#     Node 3, Type 0, BuildingBlock: MIFKUJ_clean_linker_1, # of connection points: 4
#     Node 4, Type 0, BuildingBlock: MIFKUJ_clean_linker_1, # of connection points: 4
#     Node 5, Type 0, BuildingBlock: MIFKUJ_clean_linker_1, # of connection points: 4
#     Node 6, Type 0, BuildingBlock: MIFKUJ_clean_linker_1, # of connection points: 4
#     Node 7, Type 0, BuildingBlock: MIFKUJ_clean_linker_1, # of connection points: 4
#     Node 8, Type 1, BuildingBlock: KOZSID_clean_sbu_0, # of connection points: 4
#     Node 9, Type 1, BuildingBlock: KOZSID_clean_sbu_0, # of connection points: 4
#     Node 10, Type 1, BuildingBlock: KOZSID_clean_sbu_0, # of connection points: 4
#     Node 11, Type 1, BuildingBlock: KOZSID_clean_sbu_0, # of connection points: 4
#     Node 12, Type 1, BuildingBlock: KOZSID_clean_sbu_0, # of connection points: 4
#     Node 13, Type 1, BuildingBlock: KOZSID_clean_sbu_0, # of connection points: 4
#     Node 14, Type 1, BuildingBlock: KOZSID_clean_sbu_0, # of connection points: 4
#     Node 15, Type 1, BuildingBlock: KOZSID_clean_sbu_0, # of connection points: 4
#     Edge 16, Type (0, 1), BuildingBlock: AJUNOK_clean_linker_0, # of connection points: 2
#     Edge 17, Type (0, 1), BuildingBlock: AJUNOK_clean_linker_0, # of connection points: 2
#     Edge 18, Type (0, 1), BuildingBlock: AJUNOK_clean_linker_0, # of connection points: 2
#     Edge 19, Type (0, 1), BuildingBlock: AJUNOK_clean_linker_0, # of connection points: 2
#     Edge 20, Type (0, 1), BuildingBlock: AJUNOK_clean_linker_0, # of connection points: 2
#     Edge 21, Type (0, 1), BuildingBlock: AJUNOK_clean_linker_0, # of connection points: 2
#     Edge 22, Type (0, 1), BuildingBlock: AJUNOK_clean_linker_0, # of connection points: 2
#     Edge 23, Type (0, 1), BuildingBlock: AJUNOK_clean_linker_0, # of connection points: 2
#     Edge 24, Type (0, 1), BuildingBlock: AJUNOK_clean_linker_0, # of connection points: 2
#     Edge 25, Type (0, 1), BuildingBlock: AJUNOK_clean_linker_0, # of connection points: 2
#     Edge 26, Type (0, 1), BuildingBlock: AJUNOK_clean_linker_0, # of connection points: 2
#     Edge 27, Type (0, 1), BuildingBlock: AJUNOK_clean_linker_0, # of connection points: 2
#     Edge 28, Type (0, 1), BuildingBlock: AJUNOK_clean_linker_0, # of connection points: 2
#     Edge 29, Type (0, 1), BuildingBlock: AJUNOK_clean_linker_0, # of connection points: 2
#     Edge 30, Type (0, 1), BuildingBlock: AJUNOK_clean_linker_0, # of connection points: 2
#     Edge 31, Type (0, 1), BuildingBlock: AJUNOK_clean_linker_0, # of connection points: 2
#     Edge 32, Type (0, 1), BuildingBlock: AJUNOK_clean_linker_0, # of connection points: 2
#     Edge 33, Type (0, 1), BuildingBlock: AJUNOK_clean_linker_0, # of connection points: 2
#     Edge 34, Type (0, 1), BuildingBlock: AJUNOK_clean_linker_0, # of connection points: 2
#     Edge 35, Type (0, 1), BuildingBlock: AJUNOK_clean_linker_0, # of connection points: 2
#     Edge 36, Type (0, 1), BuildingBlock: AJUNOK_clean_linker_0, # of connection points: 2
#     Edge 37, Type (0, 1), BuildingBlock: AJUNOK_clean_linker_0, # of connection points: 2
#     Edge 38, Type (0, 1), BuildingBlock: AJUNOK_clean_linker_0, # of connection points: 2
#     Edge 39, Type (0, 1), BuildingBlock: AJUNOK_clean_linker_0, # of connection points: 2
#     Edge 40, Type (0, 1), BuildingBlock: AJUNOK_clean_linker_0, # of connection points: 2
#     Edge 41, Type (0, 1), BuildingBlock: AJUNOK_clean_linker_0, # of connection points: 2
#     Edge 42, Type (0, 1), BuildingBlock: AJUNOK_clean_linker_0, # of connection points: 2
#     Edge 43, Type (0, 1), BuildingBlock: AJUNOK_clean_linker_0, # of connection points: 2
#     Edge 44, Type (0, 1), BuildingBlock: AJUNOK_clean_linker_0, # of connection points: 2
#     Edge 45, Type (0, 1), BuildingBlock: AJUNOK_clean_linker_0, # of connection points: 2
#     Edge 46, Type (0, 1), BuildingBlock: AJUNOK_clean_linker_0, # of connection points: 2
#     Edge 47, Type (0, 1), BuildingBlock: AJUNOK_clean_linker_0, # of connection points: 2
# Relax obj value: 0.003
# Max RMSD: 0.027
# Mean RMSD: 0.017
data_MOF--net-ssb--node1-KOZSID_clean_sbu_0--node2-MIFKUJ_clean_linker_1--edge1-AJUNOK_clean_linker_0
_symmetry_space_group_name_H-M    P1
_symmetry_Int_Tables_number       1
_symmetry_cell_setting            triclinic
loop_
_symmetry_equiv_pos_as_xyz
'x, y, z'
_cell_length_a     50.487766
_cell_length_b     50.401315
_cell_length_c     37.237457
_cell_angle_alpha  92.68671
_cell_angle_beta   95.274006
_cell_angle_gamma 89.988827
loop_
_atom_site_label
_atom_site_type_symbol
_atom_site_fract_x
_atom_site_fract_y
_atom_site_fract_z
_atom_type_partial_charge
H0 H 0.30392 0.21546 0.21141 0.0
H1 H 0.3434 0.21774 0.17829 0.0
H2 H 0.35548 0.29949 0.21648 0.0
H3 H 0.31746 0.29637 0.25193 0.0
H4 H 0.29597 0.21745 0.27816 0.0
H5 H 0.26806 0.27473 0.17946 0.0
H6 H 0.26853 0.31304 0.14121 0.0
H7 H 0.26033 0.36564 0.23428 0.0
H8 H 0.25946 0.32738 0.27217 0.0
H9 H 0.22142 0.28923 0.3421 0.0
H10 H 0.18265 0.28816 0.37701 0.0
H11 H 0.1647 0.20843 0.33456 0.0
H12 H 0.20317 0.2097 0.29897 0.0
H13 H 0.22654 0.28697 0.27347 0.0
H14 H 0.25173 0.22997 0.37152 0.0
H15 H 0.24869 0.19216 0.40957 0.0
H16 H 0.26414 0.13886 0.31987 0.0
H17 H 0.26542 0.17672 0.28119 0.0
C18 C 0.30726 0.25582 0.234 0.0
C19 C 0.31525 0.23379 0.2131 0.0
C20 C 0.33778 0.23521 0.19383 0.0
C21 C 0.35293 0.25874 0.19476 0.0
C22 C 0.34486 0.28078 0.2157 0.0
C23 C 0.32265 0.27919 0.23551 0.0
C24 C 0.2831 0.25421 0.25443 0.0
C25 C 0.28052 0.2324 0.27676 0.0
C26 C 0.26324 0.27432 0.25305 0.0
C27 C 0.26377 0.29781 0.2291 0.0
C28 C 0.26643 0.29448 0.19178 0.0
C29 C 0.2667 0.31654 0.16979 0.0
C30 C 0.26406 0.34271 0.18424 0.0
C31 C 0.26163 0.34595 0.22166 0.0
C32 C 0.2613 0.32393 0.24358 0.0
C33 C 0.21562 0.2494 0.31821 0.0
C34 C 0.2091 0.27153 0.34008 0.0
C35 C 0.18693 0.27093 0.36004 0.0
C36 C 0.17081 0.24812 0.35883 0.0
C37 C 0.17703 0.22611 0.33655 0.0
C38 C 0.19906 0.22682 0.31623 0.0
C39 C 0.23944 0.25029 0.29719 0.0
C40 C 0.24194 0.27195 0.27476 0.0
C41 C 0.25915 0.23002 0.29853 0.0
C42 C 0.25842 0.20664 0.32283 0.0
C43 C 0.25417 0.21019 0.35968 0.0
C44 C 0.25291 0.18834 0.38184 0.0
C45 C 0.25652 0.16206 0.36832 0.0
C46 C 0.26107 0.15858 0.33153 0.0
C47 C 0.26206 0.18042 0.30929 0.0
H48 H 0.68017 0.28241 0.28924 0.0
H49 H 0.6392 0.2837 0.24853 0.0
H50 H 0.68401 0.26117 0.15846 0.0
H51 H 0.72495 0.26201 0.19895 0.0
H52 H 0.71959 0.23449 0.29205 0.0
H53 H 0.71018 0.32726 0.27079 0.0
H54 H 0.70545 0.36694 0.23503 0.0
H55 H 0.78013 0.34929 0.19161 0.0
H56 H 0.7843 0.30893 0.22579 0.0
H57 H 0.8283 0.25614 0.29325 0.0
H58 H 0.87022 0.25146 0.33086 0.0
H59 H 0.82936 0.26895 0.42625 0.0
H60 H 0.78726 0.27149 0.38844 0.0
H61 H 0.7901 0.3033 0.29472 0.0
H62 H 0.79796 0.21009 0.30682 0.0
H63 H 0.80341 0.16784 0.33631 0.0
H64 H 0.7332 0.18446 0.39158 0.0
H65 H 0.72866 0.2273 0.36352 0.0
C66 C 0.70563 0.27258 0.247 0.0
C67 C 0.68111 0.27813 0.2606 0.0
C68 C 0.65769 0.27868 0.23728 0.0
C69 C 0.65819 0.27307 0.19991 0.0
C70 C 0.68282 0.26672 0.18669 0.0
C71 C 0.70629 0.26686 0.20989 0.0
C72 C 0.73048 0.27172 0.27165 0.0
C73 C 0.73478 0.24981 0.2931 0.0
C74 C 0.7507 0.29119 0.27217 0.0
C75 C 0.74737 0.31491 0.25044 0.0
C76 C 0.72523 0.33156 0.25296 0.0
C77 C 0.72265 0.35429 0.23295 0.0
C78 C 0.74254 0.3609 0.21106 0.0
C79 C 0.76473 0.34445 0.2087 0.0
C80 C 0.76708 0.32152 0.22813 0.0
C81 C 0.80466 0.26399 0.33807 0.0
C82 C 0.82842 0.25874 0.32231 0.0
C83 C 0.85241 0.25618 0.34394 0.0
C84 C 0.85335 0.25946 0.38185 0.0
C85 C 0.82946 0.2653 0.3974 0.0
C86 C 0.80535 0.26716 0.37577 0.0
C87 C 0.77912 0.2661 0.31507 0.0
C88 C 0.77474 0.28818 0.29393 0.0
C89 C 0.75896 0.24663 0.31432 0.0
C90 C 0.76315 0.22192 0.33352 0.0
C91 C 0.78414 0.2049 0.32597 0.0
C92 C 0.78698 0.18063 0.3423 0.0
C93 C 0.76855 0.17289 0.36583 0.0
C94 C 0.74775 0.1901 0.37365 0.0
C95 C 0.74507 0.21445 0.35759 0.0
H96 H 0.70935 0.78518 0.19472 0.0
H97 H 0.66831 0.78199 0.15444 0.0
H98 H 0.65179 0.7054 0.19489 0.0
H99 H 0.69264 0.70899 0.23601 0.0
H100 H 0.71606 0.78696 0.26687 0.0
H101 H 0.73764 0.72586 0.16868 0.0
H102 H 0.73549 0.68563 0.12903 0.0
H103 H 0.75858 0.63874 0.22071 0.0
H104 H 0.75906 0.67867 0.26045 0.0
H105 H 0.78596 0.75865 0.36488 0.0
H106 H 0.82862 0.76486 0.39974 0.0
H107 H 0.86716 0.76188 0.30054 0.0
H108 H 0.82384 0.76077 0.2661 0.0
H109 H 0.7882 0.72028 0.26726 0.0
H110 H 0.74818 0.78122 0.36397 0.0
H111 H 0.75265 0.82046 0.4043 0.0
H112 H 0.76137 0.8686 0.31289 0.0
H113 H 0.7616 0.8282 0.27389 0.0
C114 C 0.70422 0.74722 0.21814 0.0
C115 C 0.69692 0.76768 0.19492 0.0
C116 C 0.67361 0.76571 0.17165 0.0
C117 C 0.65709 0.74324 0.17112 0.0
C118 C 0.66423 0.72288 0.19466 0.0
C119 C 0.6876 0.72485 0.21798 0.0
C120 C 0.72895 0.74976 0.2429 0.0
C121 C 0.73189 0.77239 0.26697 0.0
C122 C 0.74933 0.73028 0.24308 0.0
C123 C 0.7479 0.70563 0.21811 0.0
C124 C 0.74163 0.7069 0.18054 0.0
C125 C 0.74074 0.68376 0.15765 0.0
C126 C 0.74636 0.65856 0.17145 0.0
C127 C 0.75322 0.65745 0.20893 0.0
C128 C 0.75386 0.68051 0.23181 0.0
C129 C 0.80132 0.76115 0.31282 0.0
C130 C 0.80332 0.76136 0.35061 0.0
C131 C 0.82808 0.76389 0.37059 0.0
C132 C 0.85171 0.76454 0.35323 0.0
C133 C 0.84965 0.76299 0.3152 0.0
C134 C 0.82477 0.76185 0.29532 0.0
C135 C 0.7753 0.75739 0.29107 0.0
C136 C 0.77218 0.73462 0.26735 0.0
C137 C 0.75462 0.77652 0.29146 0.0
C138 C 0.75617 0.80123 0.31603 0.0
C139 C 0.75238 0.80004 0.35283 0.0
C140 C 0.75376 0.82304 0.37585 0.0
C141 C 0.75679 0.84855 0.36243 0.0
C142 C 0.7595 0.84968 0.32502 0.0
C143 C 0.75943 0.82644 0.30235 0.0
H144 H 0.2084 0.72275 0.31008 0.0
H145 H 0.17047 0.72599 0.34655 0.0
H146 H 0.14886 0.80101 0.30124 0.0
H147 H 0.18608 0.79725 0.26335 0.0
H148 H 0.21463 0.71784 0.24293 0.0
H149 H 0.24266 0.78499 0.3351 0.0
H150 H 0.24031 0.82663 0.37114 0.0
H151 H 0.2354 0.87043 0.27376 0.0
H152 H 0.23797 0.82867 0.23776 0.0
H153 H 0.27034 0.74463 0.15 0.0
H154 H 0.30942 0.74249 0.11566 0.0
H155 H 0.36049 0.75299 0.21499 0.0
H156 H 0.32122 0.75611 0.249 0.0
H157 H 0.27882 0.79234 0.24231 0.0
H158 H 0.21997 0.70767 0.16778 0.0
H159 H 0.22751 0.66485 0.13641 0.0
H160 H 0.29952 0.65446 0.2063 0.0
H161 H 0.29188 0.69732 0.23771 0.0
C162 C 0.20043 0.75986 0.2841 0.0
C163 C 0.19537 0.73977 0.30754 0.0
C164 C 0.17377 0.74165 0.32849 0.0
C165 C 0.15686 0.76378 0.3267 0.0
C166 C 0.16177 0.78386 0.30326 0.0
C167 C 0.18311 0.78174 0.28176 0.0
C168 C 0.22404 0.75795 0.26267 0.0
C169 C 0.22851 0.73426 0.24285 0.0
C170 C 0.24256 0.77902 0.2623 0.0
C171 C 0.2402 0.80391 0.28389 0.0
C172 C 0.24073 0.80355 0.32155 0.0
C173 C 0.23926 0.82724 0.342 0.0
C174 C 0.23728 0.85154 0.325 0.0
C175 C 0.23684 0.85186 0.28731 0.0
C176 C 0.23831 0.82815 0.26685 0.0
C177 C 0.29289 0.75037 0.20206 0.0
C178 C 0.28997 0.7463 0.16436 0.0
C179 C 0.31236 0.74487 0.1448 0.0
C180 C 0.33814 0.74714 0.16263 0.0
C181 C 0.34094 0.75125 0.20043 0.0
C182 C 0.31854 0.75297 0.21991 0.0
C183 C 0.26917 0.75242 0.22283 0.0
C184 C 0.26471 0.7761 0.24232 0.0
C185 C 0.25093 0.73126 0.22335 0.0
C186 C 0.25542 0.70549 0.20483 0.0
C187 C 0.23731 0.6961 0.17634 0.0
C188 C 0.24169 0.67184 0.15844 0.0
C189 C 0.26403 0.65658 0.16917 0.0
C190 C 0.28207 0.66591 0.19786 0.0
C191 C 0.2778 0.6903 0.21559 0.0
H192 H 0.18813 0.79311 0.75125 0.0
H193 H 0.1459 0.79248 0.71336 0.0
H194 H 0.18572 0.75921 0.62373 0.0
H195 H 0.2282 0.76174 0.66129 0.0
H196 H 0.22229 0.74101 0.75626 0.0
H197 H 0.2188 0.83315 0.72272 0.0
H198 H 0.21671 0.87051 0.68291 0.0
H199 H 0.29197 0.84699 0.64545 0.0
H200 H 0.29332 0.80891 0.68394 0.0
H201 H 0.33443 0.77259 0.75802 0.0
H202 H 0.37596 0.76998 0.79623 0.0
H203 H 0.33196 0.75535 0.88766 0.0
H204 H 0.29046 0.76161 0.85034 0.0
H205 H 0.2972 0.80406 0.75324 0.0
H206 H 0.30172 0.71201 0.78611 0.0
H207 H 0.30428 0.67428 0.82506 0.0
H208 H 0.22733 0.69455 0.85998 0.0
H209 H 0.22583 0.73345 0.82311 0.0
C210 C 0.21118 0.77764 0.7089 0.0
C211 C 0.18772 0.78602 0.72328 0.0
C212 C 0.16355 0.78523 0.70172 0.0
C213 C 0.16225 0.7751 0.66572 0.0
C214 C 0.18599 0.76715 0.65129 0.0
C215 C 0.21027 0.76855 0.67267 0.0
C216 C 0.23615 0.77609 0.73266 0.0
C217 C 0.23874 0.75484 0.75619 0.0
C218 C 0.25749 0.79413 0.73087 0.0
C219 C 0.25591 0.81734 0.70613 0.0
C220 C 0.23458 0.83547 0.70532 0.0
C221 C 0.23359 0.85726 0.68275 0.0
C222 C 0.25393 0.86187 0.66015 0.0
C223 C 0.27546 0.84394 0.66142 0.0
C224 C 0.27641 0.82213 0.68393 0.0
C225 C 0.30908 0.76664 0.8009 0.0
C226 C 0.33365 0.76911 0.78639 0.0
C227 C 0.35753 0.76701 0.80822 0.0
C228 C 0.35752 0.76144 0.84491 0.0
C229 C 0.33288 0.7595 0.85953 0.0
C230 C 0.30901 0.76264 0.83799 0.0
C231 C 0.28373 0.76869 0.77725 0.0
C232 C 0.28097 0.79 0.75349 0.0
C233 C 0.26229 0.75039 0.77842 0.0
C234 C 0.26374 0.72629 0.80161 0.0
C235 C 0.28548 0.70867 0.80243 0.0
C236 C 0.28669 0.68656 0.82444 0.0
C237 C 0.26582 0.68071 0.8457 0.0
C238 C 0.24396 0.69821 0.84446 0.0
C239 C 0.24295 0.72052 0.8229 0.0
H240 H 0.31741 0.27916 0.80767 0.0
H241 H 0.3609 0.28184 0.84229 0.0
H242 H 0.32664 0.25055 0.93384 0.0
H243 H 0.28269 0.25006 0.89971 0.0
H244 H 0.28406 0.22617 0.80164 0.0
H245 H 0.28513 0.31769 0.82188 0.0
H246 H 0.28889 0.36202 0.85107 0.0
H247 H 0.22468 0.34382 0.91506 0.0
H248 H 0.22163 0.29881 0.88659 0.0
H249 H 0.17271 0.23948 0.8011 0.0
H250 H 0.13194 0.23558 0.76012 0.0
H251 H 0.17529 0.26093 0.67282 0.0
H252 H 0.21619 0.26309 0.71353 0.0
H253 H 0.20926 0.28892 0.81274 0.0
H254 H 0.2075 0.19589 0.76993 0.0
H255 H 0.2088 0.15758 0.72728 0.0
H256 H 0.2813 0.18787 0.6908 0.0
H257 H 0.27894 0.22687 0.73157 0.0
C258 C 0.29682 0.26458 0.8512 0.0
C259 C 0.31925 0.27324 0.83538 0.0
C260 C 0.34423 0.2743 0.85509 0.0
C261 C 0.34761 0.26562 0.89064 0.0
C262 C 0.32489 0.25739 0.90659 0.0
C263 C 0.29974 0.25703 0.88712 0.0
C264 C 0.27087 0.26135 0.82915 0.0
C265 C 0.26769 0.23991 0.80402 0.0
C266 C 0.24964 0.27931 0.83206 0.0
C267 C 0.25348 0.30485 0.85269 0.0
C268 C 0.27241 0.32291 0.84298 0.0
C269 C 0.27421 0.34835 0.85914 0.0
C270 C 0.25679 0.35629 0.88479 0.0
C271 C 0.2383 0.33802 0.89528 0.0
C272 C 0.23655 0.31244 0.87912 0.0
C273 C 0.19749 0.25151 0.76035 0.0
C274 C 0.17335 0.24416 0.7731 0.0
C275 C 0.14997 0.24223 0.74964 0.0
C276 C 0.15005 0.24834 0.71309 0.0
C277 C 0.17438 0.25583 0.7006 0.0
C278 C 0.19781 0.25723 0.72389 0.0
C279 C 0.22234 0.25354 0.78513 0.0
C280 C 0.22533 0.27477 0.81091 0.0
C281 C 0.24401 0.23618 0.78139 0.0
C282 C 0.24309 0.21421 0.75378 0.0
C283 C 0.22328 0.19458 0.7521 0.0
C284 C 0.22431 0.17251 0.72824 0.0
C285 C 0.24548 0.16957 0.70637 0.0
C286 C 0.26478 0.18966 0.70736 0.0
C287 C 0.26353 0.21184 0.73076 0.0
H288 H 0.71277 0.22017 0.82695 0.0
H289 H 0.67392 0.22296 0.86169 0.0
H290 H 0.65797 0.30191 0.82546 0.0
H291 H 0.69648 0.29883 0.78975 0.0
H292 H 0.71942 0.2202 0.75882 0.0
H293 H 0.74229 0.28128 0.86188 0.0
H294 H 0.73905 0.32129 0.90092 0.0
H295 H 0.76062 0.36911 0.81483 0.0
H296 H 0.76146 0.32941 0.77505 0.0
H297 H 0.77888 0.24655 0.67179 0.0
H298 H 0.81829 0.24515 0.63777 0.0
H299 H 0.86878 0.25383 0.73765 0.0
H300 H 0.82948 0.25456 0.77154 0.0
H301 H 0.79016 0.28898 0.77215 0.0
H302 H 0.71971 0.21149 0.68908 0.0
H303 H 0.72172 0.17096 0.65044 0.0
H304 H 0.80053 0.15545 0.69979 0.0
H305 H 0.79811 0.1955 0.73917 0.0
C306 C 0.70791 0.25938 0.8059 0.0
C307 C 0.70078 0.23799 0.82603 0.0
C308 C 0.67853 0.23958 0.84589 0.0
C309 C 0.66283 0.26261 0.84619 0.0
C310 C 0.66976 0.28395 0.82584 0.0
C311 C 0.69184 0.28222 0.80552 0.0
C312 C 0.73218 0.25761 0.78564 0.0
C313 C 0.7349 0.23527 0.76167 0.0
C314 C 0.75248 0.27747 0.78972 0.0
C315 C 0.7514 0.30195 0.81475 0.0
C316 C 0.74568 0.30039 0.85096 0.0
C317 C 0.74417 0.32345 0.8736 0.0
C318 C 0.74893 0.3489 0.86115 0.0
C319 C 0.75568 0.35027 0.82533 0.0
C320 C 0.75666 0.32729 0.80253 0.0
C321 C 0.80111 0.2503 0.72436 0.0
C322 C 0.79844 0.24779 0.68642 0.0
C323 C 0.82097 0.2472 0.66697 0.0
C324 C 0.84671 0.24905 0.685 0.0
C325 C 0.84931 0.25178 0.72294 0.0
C326 C 0.82681 0.25242 0.74235 0.0
C327 C 0.77725 0.2517 0.74535 0.0
C328 C 0.7746 0.274 0.76933 0.0
C329 C 0.75711 0.23179 0.74145 0.0
C330 C 0.7588 0.20702 0.71722 0.0
C331 C 0.73743 0.19936 0.69182 0.0
C332 C 0.73867 0.17615 0.66945 0.0
C333 C 0.7612 0.15957 0.67197 0.0
C334 C 0.78262 0.16728 0.69735 0.0
C335 C 0.78139 0.19053 0.71969 0.0
H336 H 0.79826 0.72025 0.6927 0.0
H337 H 0.83679 0.7238 0.65777 0.0
H338 H 0.85688 0.79963 0.7119 0.0
H339 H 0.81891 0.79567 0.74794 0.0
H340 H 0.79226 0.71618 0.75946 0.0
H341 H 0.76689 0.78204 0.67501 0.0
H342 H 0.76745 0.82349 0.6437 0.0
H343 H 0.75931 0.86781 0.7443 0.0
H344 H 0.76095 0.82648 0.77594 0.0
H345 H 0.72249 0.78518 0.83661 0.0
H346 H 0.68336 0.7836 0.87063 0.0
H347 H 0.66066 0.70827 0.81687 0.0
H348 H 0.69941 0.71023 0.78175 0.0
H349 H 0.72671 0.78875 0.76906 0.0
H350 H 0.75288 0.7233 0.85377 0.0
H351 H 0.74999 0.68202 0.88494 0.0
H352 H 0.75546 0.63705 0.78418 0.0
H353 H 0.75648 0.67844 0.75267 0.0
C354 C 0.80529 0.75785 0.72271 0.0
C355 C 0.81102 0.73757 0.69737 0.0
C356 C 0.83301 0.73961 0.67735 0.0
C357 C 0.8496 0.7621 0.68192 0.0
C358 C 0.84414 0.78227 0.7075 0.0
C359 C 0.82238 0.78004 0.72798 0.0
C360 C 0.78157 0.75554 0.74362 0.0
C361 C 0.77777 0.73199 0.76112 0.0
C362 C 0.76286 0.77627 0.74682 0.0
C363 C 0.76435 0.80122 0.72788 0.0
C364 C 0.76599 0.80071 0.69047 0.0
C365 C 0.76597 0.82436 0.67257 0.0
C366 C 0.76366 0.84885 0.69166 0.0
C367 C 0.76184 0.8493 0.72906 0.0
C368 C 0.76243 0.82569 0.74706 0.0
C369 C 0.71413 0.74776 0.80665 0.0
C370 C 0.70908 0.76834 0.8319 0.0
C371 C 0.68673 0.76745 0.85136 0.0
C372 C 0.66899 0.74588 0.8462 0.0
C373 C 0.67414 0.72506 0.8214 0.0
C374 C 0.69633 0.72614 0.80148 0.0
C375 C 0.73761 0.7496 0.78523 0.0
C376 C 0.74129 0.77301 0.76749 0.0
C377 C 0.75619 0.72879 0.78188 0.0
C378 C 0.75439 0.7039 0.80084 0.0
C379 C 0.75286 0.70456 0.83827 0.0
C380 C 0.75149 0.681 0.85608 0.0
C381 C 0.75221 0.65638 0.83686 0.0
C382 C 0.75416 0.65574 0.79947 0.0
C383 C 0.75509 0.67934 0.78157 0.0
C384 C 0.04912 0.27274 0.59375 0.0
C385 C 0.06135 0.29634 0.60722 0.0
C386 C 0.05332 0.31548 0.58381 0.0
C387 C 0.03679 0.30266 0.55733 0.0
N388 N 0.03347 0.27667 0.5628 0.0
Co389 Co 0.01276 0.25097 0.52893 0.0
N390 N 0.99424 0.27996 0.50231 0.0
C391 C 1.00184 0.30558 0.50358 0.0
C392 C 0.98426 0.32131 0.484 0.0
C393 C 0.96437 0.30451 0.46941 0.0
C394 C 0.97113 0.27928 0.48059 0.0
N395 N 0.99218 0.22553 0.49483 0.0
C396 C 0.9696 0.22937 0.47309 0.0
C397 C 0.96185 0.2062 0.45332 0.0
C398 C 0.98016 0.1872 0.46338 0.0
C399 C 0.99808 0.19982 0.4885 0.0
N400 N 0.03121 0.22181 0.55539 0.0
C401 C 0.03205 0.1962 0.54337 0.0
C402 C 0.04624 0.18038 0.56713 0.0
C403 C 0.05537 0.19712 0.5956 0.0
C404 C 0.04648 0.22241 0.58743 0.0
N405 N 0.98412 0.25054 0.56125 0.0
C406 C 0.94054 0.24975 0.60319 0.0
C407 C 0.95108 0.22613 0.58921 0.0
C408 C 0.97281 0.22695 0.5685 0.0
C409 C 0.95249 0.2738 0.59591 0.0
C410 C 0.9743 0.27375 0.57514 0.0
N411 N 0.04136 0.25121 0.49633 0.0
C412 C 0.08798 0.24786 0.48723 0.0
C413 C 0.08231 0.24927 0.44988 0.0
C414 C 0.05571 0.25228 0.43627 0.0
C415 C 0.03555 0.25303 0.45987 0.0
C416 C 0.06737 0.24896 0.50986 0.0
H417 H 0.01522 0.25485 0.44855 0.0
H418 H 0.07266 0.24781 0.53836 0.0
H419 H 0.98011 0.20843 0.55776 0.0
H420 H 0.98296 0.29256 0.56987 0.0
C421 C 0.02221 0.31482 0.52894 0.0
C422 C 0.05582 0.24668 0.6084 0.0
C423 C 0.95596 0.25495 0.46919 0.0
C424 C 0.01713 0.18732 0.51152 0.0
H425 H 0.07538 0.29938 0.6308 0.0
H426 H 0.05885 0.33629 0.58593 0.0
H427 H 0.98497 0.34267 0.48226 0.0
H428 H 0.94681 0.31041 0.45294 0.0
H429 H 0.94471 0.20332 0.43382 0.0
H430 H 0.9797 0.1664 0.45468 0.0
H431 H 0.04933 0.15916 0.56432 0.0
H432 H 0.06787 0.19147 0.61917 0.0
H433 H 0.94223 0.20711 0.59354 0.0
H434 H 0.94508 0.29253 0.60628 0.0
H435 H 0.1083 0.24611 0.499 0.0
H436 H 0.05047 0.25356 0.40754 0.0
C437 C 0.7375 0.05011 0.56177 0.0
C438 C 0.71302 0.05983 0.5703 0.0
C439 C 0.69406 0.04446 0.55083 0.0
C440 C 0.7079 0.02611 0.53176 0.0
N441 N 0.73463 0.02872 0.53789 0.0
Co442 Co 0.76188 0.0053 0.51602 0.0
N443 N 0.73389 0.98359 0.48587 0.0
C444 C 0.70739 0.98812 0.48352 0.0
C445 C 0.69304 0.97145 0.45894 0.0
C446 C 0.71138 0.95507 0.4449 0.0
C447 C 0.73603 0.96233 0.46227 0.0
N448 N 0.78907 0.98129 0.49506 0.0
C449 C 0.78607 0.95885 0.47301 0.0
C450 C 0.81048 0.94708 0.46836 0.0
C451 C 0.82946 0.9627 0.48735 0.0
C452 C 0.81574 0.9829 0.503 0.0
N453 N 0.7899 0.02762 0.54533 0.0
C454 C 0.81652 0.02473 0.54504 0.0
C455 C 0.831 0.04364 0.56601 0.0
C456 C 0.81259 0.05978 0.58039 0.0
C457 C 0.78776 0.04968 0.56757 0.0
N458 N 0.76044 0.98112 0.55594 0.0
C459 C 0.75921 0.94298 0.60815 0.0
C460 C 0.78326 0.95394 0.60039 0.0
C461 C 0.78337 0.97312 0.5748 0.0
C462 C 0.73567 0.95214 0.59038 0.0
C463 C 0.73674 0.97107 0.56446 0.0
N464 N 0.76345 0.02963 0.4762 0.0
C465 C 0.78956 0.05682 0.441 0.0
C466 C 0.76714 0.07161 0.43077 0.0
C467 C 0.74254 0.06387 0.44071 0.0
C468 C 0.74109 0.04261 0.4629 0.0
C469 C 0.78724 0.0358 0.46351 0.0
H470 H 0.72184 0.03784 0.47009 0.0
H471 H 0.80513 0.02562 0.47136 0.0
H472 H 0.80234 0.98062 0.5701 0.0
H473 H 0.71821 0.97682 0.55115 0.0
C474 C 0.69649 0.00747 0.50589 0.0
C475 C 0.76282 0.06215 0.57686 0.0
C476 C 0.76065 0.94781 0.45614 0.0
C477 C 0.82726 1.00361 0.52551 0.0
H478 H 0.70922 0.07651 0.58845 0.0
H479 H 0.6727 0.04672 0.55013 0.0
H480 H 0.67171 0.97105 0.45229 0.0
H481 H 0.70699 0.93931 0.4245 0.0
H482 H 0.81432 0.9289 0.45317 0.0
H483 H 0.85073 0.95949 0.48987 0.0
H484 H 0.85243 0.04551 0.57026 0.0
H485 H 0.81698 0.07715 0.59814 0.0
H486 H 0.80208 0.94705 0.61287 0.0
H487 H 0.71655 0.94426 0.59581 0.0
H488 H 0.80892 0.06229 0.43325 0.0
H489 H 0.7247 0.07486 0.4326 0.0
C490 C 0.04935 0.79376 0.56481 0.0
C491 C 0.05897 0.8184 0.57838 0.0
C492 C 0.04374 0.83702 0.56096 0.0
C493 C 0.02575 0.82275 0.53796 0.0
N494 N 0.02814 0.79614 0.54008 0.0
Co495 Co 0.00688 0.76819 0.50998 0.0
N496 N 0.98497 0.79564 0.48361 0.0
C497 C 0.98613 0.82222 0.49049 0.0
C498 C 0.96649 0.83595 0.47166 0.0
C499 C 0.95165 0.81702 0.45172 0.0
C500 C 0.96348 0.79271 0.459 0.0
N501 N 0.98674 0.74028 0.47843 0.0
C502 C 0.96704 0.74268 0.4515 0.0
C503 C 0.95991 0.71818 0.43473 0.0
C504 C 0.97506 0.69961 0.45242 0.0
C505 C 0.99078 0.71376 0.47851 0.0
N506 N 0.02777 0.74072 0.53775 0.0
C507 C 0.02438 0.71408 0.53405 0.0
C508 C 0.04202 0.70021 0.55613 0.0
C509 C 0.05772 0.71909 0.57495 0.0
C510 C 0.04862 0.74354 0.56337 0.0
N511 N 0.97971 0.76758 0.5456 0.0
C512 C 0.93849 0.76719 0.59226 0.0
C513 C 0.94556 0.74409 0.57324 0.0
C514 C 0.96611 0.74467 0.55054 0.0
C515 C 0.9531 0.7903 0.58842 0.0
C516 C 0.97331 0.7901 0.56503 0.0
N517 N 0.03389 0.76869 0.47426 0.0
C518 C 0.06638 0.74561 0.4406 0.0
C519 C 0.07211 0.76862 0.42328 0.0
C520 C 0.05871 0.79192 0.43257 0.0
C521 C 0.03985 0.79153 0.45799 0.0
C522 C 0.04727 0.746 0.46539 0.0
H523 H 0.03033 0.80992 0.46408 0.0
H524 H 0.0438 0.72761 0.47709 0.0
H525 H 0.97039 0.72631 0.53696 0.0
H526 H 0.98333 0.8085 0.56302 0.0
C527 C 0.0057 0.8337 0.51515 0.0
C528 C 0.06132 0.76876 0.57589 0.0
C529 C 0.95345 0.76738 0.44226 0.0
C530 C 0.00763 0.70265 0.50558 0.0
H531 H 0.07541 0.82251 0.59865 0.0
H532 H 0.04557 0.85839 0.56463 0.0
H533 H 0.96303 0.85715 0.47288 0.0
H534 H 0.93388 0.82085 0.43427 0.0
H535 H 0.94482 0.71408 0.41259 0.0
H536 H 0.97419 0.67827 0.44749 0.0
H537 H 0.04419 0.67888 0.55697 0.0
H538 H 0.07455 0.71515 0.59405 0.0
H539 H 0.93496 0.72562 0.57529 0.0
H540 H 0.94909 0.80854 0.60346 0.0
H541 H 0.07683 0.72725 0.43542 0.0
H542 H 0.06257 0.81033 0.42005 0.0
C543 C 0.2768 0.96806 0.56141 0.0
C544 C 0.30144 0.95882 0.57495 0.0
C545 C 0.32015 0.97411 0.56142 0.0
C546 C 0.30601 0.99196 0.54067 0.0
N547 N 0.27936 0.989 0.53998 0.0
Co548 Co 0.25193 0.01206 0.51412 0.0
N549 N 0.27954 0.03303 0.49162 0.0
C550 C 0.30598 0.02828 0.49465 0.0
C551 C 0.32017 0.04473 0.4752 0.0
C552 C 0.30171 0.06104 0.45868 0.0
C553 C 0.27719 0.05384 0.46939 0.0
N554 N 0.22462 0.03616 0.48998 0.0
C555 C 0.22733 0.0577 0.46963 0.0
C556 C 0.20296 0.06962 0.46087 0.0
C557 C 0.18428 0.05516 0.47586 0.0
C558 C 0.19818 0.0354 0.49321 0.0
N559 N 0.22424 0.98994 0.53475 0.0
C560 C 0.19762 0.9929 0.52866 0.0
C561 C 0.18328 0.97429 0.54446 0.0
C562 C 0.20184 0.95827 0.56143 0.0
C563 C 0.22659 0.96816 0.55531 0.0
N564 N 0.25417 0.0369 0.55694 0.0
C565 C 0.25499 0.0767 0.61184 0.0
C566 C 0.23229 0.06135 0.60286 0.0
C567 C 0.23227 0.04171 0.57543 0.0
C568 C 0.27776 0.07115 0.59447 0.0
C569 C 0.27707 0.05089 0.56762 0.0
N570 N 0.24944 0.98729 0.4714 0.0
C571 C 0.22239 0.96271 0.42452 0.0
C572 C 0.24405 0.94695 0.41712 0.0
C573 C 0.26887 0.95286 0.43531 0.0
C574 C 0.27114 0.97314 0.46212 0.0
C575 C 0.22552 0.9827 0.45158 0.0
H576 H 0.29047 0.97648 0.47563 0.0
H577 H 0.20811 0.99366 0.45654 0.0
H578 H 0.21401 0.0313 0.56916 0.0
H579 H 0.2951 0.04736 0.55542 0.0
C580 C 0.31704 0.00984 0.51856 0.0
C581 C 0.25164 0.95604 0.56955 0.0
C582 C 0.25244 0.06785 0.45824 0.0
C583 C 0.18687 0.01467 0.51045 0.0
H584 H 0.30548 0.94247 0.59246 0.0
H585 H 0.34154 0.97203 0.56552 0.0
H586 H 0.34148 0.0452 0.47379 0.0
H587 H 0.30592 0.07672 0.44114 0.0
H588 H 0.19904 0.087 0.44526 0.0
H589 H 0.16303 0.05852 0.47401 0.0
H590 H 0.16188 0.97275 0.54409 0.0
H591 H 0.19762 0.94128 0.57673 0.0
H592 H 0.21426 0.06526 0.61589 0.0
H593 H 0.29582 0.08263 0.60123 0.0
H594 H 0.20298 0.9592 0.4101 0.0
H595 H 0.28623 0.94121 0.42991 0.0
C596 C 0.54561 0.76758 0.0714 0.0
C597 C 0.55427 0.7912 0.08932 0.0
C598 C 0.54052 0.81109 0.07239 0.0
C599 C 0.52424 0.79851 0.04536 0.0
N600 N 0.52657 0.77176 0.04421 0.0
Co601 Co 0.50645 0.74575 0.0095 0.0
N602 N 0.48894 0.77509 0.98167 0.0
C603 C 0.49391 0.80141 0.98706 0.0
C604 C 0.47961 0.81673 0.96283 0.0
C605 C 0.46438 0.79917 0.94086 0.0
C606 C 0.47007 0.77407 0.95331 0.0
N607 N 0.48516 0.71977 0.97596 0.0
C608 C 0.46486 0.72405 0.95039 0.0
C609 C 0.45297 0.70033 0.93686 0.0
C610 C 0.46641 0.68042 0.95405 0.0
C611 C 0.48538 0.693 0.97745 0.0
N612 N 0.52513 0.71642 0.03623 0.0
C613 C 0.52227 0.69003 0.02861 0.0
C614 C 0.53912 0.67474 0.04989 0.0
C615 C 0.55405 0.69245 0.07203 0.0
C616 C 0.54526 0.71758 0.06301 0.0
N617 N 0.4771 0.74592 0.04175 0.0
C618 C 0.43249 0.74552 0.08234 0.0
C619 C 0.44644 0.72221 0.07515 0.0
C620 C 0.46841 0.72283 0.05491 0.0
C621 C 0.44195 0.7692 0.07009 0.0
C622 C 0.46414 0.76899 0.05019 0.0
N623 N 0.53573 0.74557 0.97711 0.0
C624 C 0.56279 0.72245 0.93526 0.0
C625 C 0.57796 0.74529 0.9322 0.0
C626 C 0.57177 0.76816 0.95238 0.0
C627 C 0.55066 0.76796 0.97414 0.0
C628 C 0.54198 0.723 0.9577 0.0
H629 H 0.54696 0.78616 0.98848 0.0
H630 H 0.53127 0.70488 0.95895 0.0
H631 H 0.47787 0.70429 0.05001 0.0
H632 H 0.47019 0.78772 0.04149 0.0
C633 C 0.50961 0.81126 0.0176 0.0
C634 C 0.55734 0.74192 0.07962 0.0
C635 C 0.45581 0.75015 0.93881 0.0
C636 C 0.50329 0.68028 1.00166 0.0
H637 H 0.5696 0.7938 0.11152 0.0
H638 H 0.54305 0.83225 0.07801 0.0
H639 H 0.47951 0.83818 0.96209 0.0
H640 H 0.45007 0.80434 0.91886 0.0
H641 H 0.436 0.69757 0.91711 0.0
H642 H 0.46241 0.65932 0.95054 0.0
H643 H 0.54059 0.6533 0.0491 0.0
H644 H 0.56986 0.68746 0.09219 0.0
H645 H 0.44049 0.70347 0.08512 0.0
H646 H 0.43195 0.78784 0.07521 0.0
H647 H 0.56681 0.70421 0.92018 0.0
H648 H 0.58338 0.78619 0.95184 0.0
C649 C 0.2453 0.54588 0.07584 0.0
C650 C 0.22166 0.55369 0.08944 0.0
C651 C 0.2016 0.54225 0.06692 0.0
C652 C 0.21411 0.52812 0.0411 0.0
N653 N 0.24096 0.52968 0.04594 0.0
Co654 Co 0.26705 0.51178 0.01559 0.0
N655 N 0.23759 0.49614 0.98156 0.0
C656 C 0.21125 0.50091 0.9816 0.0
C657 C 0.196 0.48675 0.95494 0.0
C658 C 0.21365 0.47175 0.93719 0.0
C659 C 0.23867 0.47771 0.95422 0.0
N660 N 0.29308 0.4929 0.98607 0.0
C661 C 0.28859 0.47416 0.95906 0.0
C662 C 0.31207 0.46446 0.947 0.0
C663 C 0.33228 0.47723 0.96778 0.0
C664 C 0.31993 0.49382 0.99121 0.0
N665 N 0.29656 0.52815 0.04895 0.0
C666 C 0.323 0.52575 0.04637 0.0
C667 C 0.33832 0.54033 0.0725 0.0
C668 C 0.32058 0.55315 0.09266 0.0
C669 C 0.29544 0.54553 0.07756 0.0
N670 N 0.26648 0.47992 0.04628 0.0
C671 C 0.2653 0.43514 0.09071 0.0
C672 C 0.28934 0.44708 0.08388 0.0
C673 C 0.28949 0.46915 0.0619 0.0
C674 C 0.24194 0.44587 0.07393 0.0
C675 C 0.24294 0.46796 0.05225 0.0
N676 N 0.26752 0.54378 0.98471 0.0
C677 C 0.2906 0.57304 0.9473 0.0
C678 C 0.26778 0.58836 0.93968 0.0
C679 C 0.24497 0.58112 0.95572 0.0
C680 C 0.24519 0.55898 0.97757 0.0
C681 C 0.29012 0.5513 0.96978 0.0
H682 H 0.22691 0.55457 0.98827 0.0
H683 H 0.3084 0.54095 0.97471 0.0
H684 H 0.30851 0.47727 0.05795 0.0
H685 H 0.22433 0.47502 0.04044 0.0
C686 C 0.20129 0.51528 0.01029 0.0
C687 C 0.27113 0.55629 0.09025 0.0
C688 C 0.26257 0.46368 0.94593 0.0
C689 C 0.33283 0.50953 0.01932 0.0
H690 H 0.2192 0.56699 0.11257 0.0
H691 H 0.18042 0.54469 0.06846 0.0
H692 H 0.17452 0.4862 0.95032 0.0
H693 H 0.20864 0.45725 0.91525 0.0
H694 H 0.31427 0.44919 0.92607 0.0
H695 H 0.35342 0.47416 0.96674 0.0
H696 H 0.3598 0.54169 0.07621 0.0
H697 H 0.3255 0.56685 0.11557 0.0
H698 H 0.30809 0.43968 0.09591 0.0
H699 H 0.22277 0.43709 0.07707 0.0
H700 H 0.30901 0.57799 0.93632 0.0
H701 H 0.22672 0.59223 0.95087 0.0
C702 C 0.4663 0.29049 0.97952 0.0
C703 C 0.45749 0.31411 0.96494 0.0
C704 C 0.47598 0.33313 0.97713 0.0
C705 C 0.49502 0.32008 0.99827 0.0
N706 N 0.4897 0.29405 1.0001 0.0
Co707 Co 0.51199 0.26795 0.02743 0.0
N708 N 0.5316 0.29659 0.05759 0.0
C709 C 0.53137 0.32263 0.05075 0.0
C710 C 0.54619 0.33797 0.07656 0.0
C711 C 0.55692 0.32049 0.10085 0.0
C712 C 0.54835 0.29529 0.08815 0.0
N713 N 0.53445 0.24168 0.05453 0.0
C714 C 0.55194 0.24501 0.08441 0.0
C715 C 0.56468 0.22128 0.09251 0.0
C716 C 0.55516 0.20267 0.06662 0.0
C717 C 0.53725 0.21592 0.04415 0.0
N718 N 0.4922 0.23953 0.99718 0.0
C719 C 0.49967 0.21402 0.99318 0.0
C720 C 0.4811 0.19865 0.97248 0.0
C721 C 0.46071 0.21557 0.96276 0.0
C722 C 0.46816 0.24049 0.97776 0.0
N723 N 0.53853 0.26919 0.99184 0.0
C724 C 0.57686 0.2688 0.94145 0.0
C725 C 0.54963 0.26699 0.93 0.0
C726 C 0.53082 0.2674 0.95556 0.0
C727 C 0.58438 0.2713 0.97856 0.0
C728 C 0.56505 0.27127 1.00314 0.0
N729 N 0.48537 0.26658 0.06271 0.0
C730 C 0.45528 0.24107 0.09443 0.0
C731 C 0.44399 0.26435 0.10814 0.0
C732 C 0.45422 0.28879 0.09929 0.0
C733 C 0.47474 0.28947 0.07639 0.0
C734 C 0.47612 0.24261 0.07223 0.0
H735 H 0.48159 0.30857 0.06919 0.0
H736 H 0.48437 0.22432 0.06219 0.0
H737 H 0.51003 0.26604 0.94592 0.0
H738 H 0.57176 0.27263 0.03136 0.0
C739 C 0.51487 0.33223 0.02205 0.0
C740 C 0.45271 0.26488 0.97181 0.0
C741 C 0.5597 0.27071 0.10278 0.0
C742 C 0.52117 0.20438 0.01501 0.0
H743 H 0.43952 0.31728 0.94749 0.0
H744 H 0.47496 0.35417 0.97255 0.0
H745 H 0.54868 0.35933 0.07781 0.0
H746 H 0.57042 0.3256 0.12445 0.0
H747 H 0.57995 0.21789 0.11411 0.0
H748 H 0.56065 0.18193 0.0645 0.0
H749 H 0.48161 0.1774 0.96684 0.0
H750 H 0.4424 0.21005 0.94678 0.0
H751 H 0.54289 0.26541 0.90152 0.0
H752 H 0.60519 0.27265 0.98864 0.0
H753 H 0.44805 0.22179 0.10086 0.0
H754 H 0.44593 0.30725 0.10919 0.0
C755 C 0.72072 0.55072 0.05685 0.0
C756 C 0.69615 0.56218 0.06123 0.0
C757 C 0.67748 0.54629 0.04207 0.0
C758 C 0.69159 0.52619 0.0268 0.0
N759 N 0.71821 0.52821 0.03498 0.0
Co760 Co 0.74588 0.50358 0.01644 0.0
N761 N 0.7183 0.48012 0.98826 0.0
C762 C 0.69162 0.4831 0.98743 0.0
C763 C 0.67748 0.46346 0.96745 0.0
C764 C 0.69618 0.44688 0.95466 0.0
C765 C 0.72085 0.45751 0.96723 0.0
N766 N 0.77359 0.47923 0.9974 0.0
C767 C 0.77116 0.45731 0.9744 0.0
C768 C 0.79588 0.44732 0.96731 0.0
C769 C 0.81451 0.46306 0.98679 0.0
C770 C 0.80027 0.48189 0.0044 0.0
N771 N 0.77346 0.52681 0.04509 0.0
C772 C 0.80008 0.52302 0.04751 0.0
C773 C 0.81414 0.54152 0.06971 0.0
C774 C 0.79546 0.5582 0.08232 0.0
C775 C 0.77089 0.54904 0.06685 0.0
N776 N 0.74404 0.48142 0.0586 0.0
C777 C 0.7413 0.44764 0.11596 0.0
C778 C 0.76568 0.45371 0.10343 0.0
C779 C 0.76661 0.47075 0.07526 0.0
C780 C 0.71836 0.45919 0.09991 0.0
C781 C 0.72017 0.47588 0.07144 0.0
N782 N 0.74765 0.52578 0.9744 0.0
C783 C 0.77328 0.55222 0.93771 0.0
C784 C 0.75008 0.56257 0.92059 0.0
C785 C 0.72564 0.55302 0.92926 0.0
C786 C 0.72492 0.53441 0.95564 0.0
C787 C 0.77163 0.53406 0.96443 0.0
H788 H 0.70573 0.52794 0.96113 0.0
H789 H 0.79001 0.52761 0.97724 0.0
H790 H 0.78579 0.47457 0.06708 0.0
H791 H 0.70193 0.48373 0.06006 0.0
C792 C 0.68045 0.50482 0.00523 0.0
C793 C 0.74578 0.56209 0.07409 0.0
C794 C 0.74604 0.44527 0.9584 0.0
C795 C 0.81133 0.50221 0.02799 0.0
H796 H 0.69208 0.58019 0.07671 0.0
H797 H 0.65614 0.54904 0.03961 0.0
H798 H 0.65608 0.46142 0.96276 0.0
H799 H 0.69206 0.42896 0.93793 0.0
H800 H 0.80012 0.43044 0.94977 0.0
H801 H 0.83591 0.46105 0.98791 0.0
H802 H 0.83549 0.54276 0.07595 0.0
H803 H 0.79951 0.57517 0.10089 0.0
H804 H 0.78395 0.44471 0.11448 0.0
H805 H 0.69904 0.45507 0.10892 0.0
H806 H 0.79268 0.55879 0.93139 0.0
H807 H 0.70708 0.56069 0.91704 0.0
C808 C 0.12862 0.26778 0.3795 0.0
C809 C 0.14771 0.24738 0.38107 0.0
C810 C 0.10714 0.2679 0.40106 0.0
C811 C 0.1042 0.24787 0.42552 0.0
H812 H 0.1303 0.2838 0.36141 0.0
H813 H 0.09309 0.28413 0.39922 0.0
S814 S 0.14854 0.18982 0.43971 0.0
N815 N 0.16203 0.20646 0.40879 0.0
N816 N 0.12187 0.20673 0.44934 0.0
C817 C 0.12302 0.22724 0.42711 0.0
C818 C 0.14468 0.22697 0.40488 0.0
C819 C 0.76823 0.1451 0.41914 0.0
C820 C 0.7705 0.14675 0.38198 0.0
C821 C 0.76771 0.12051 0.43476 0.0
C822 C 0.76966 0.0969 0.41375 0.0
H823 H 0.76648 0.16293 0.43616 0.0
H824 H 0.76544 0.1199 0.46338 0.0
S825 S 0.77613 0.09019 0.31568 0.0
N826 N 0.77472 0.12255 0.3246 0.0
N827 N 0.77436 0.07617 0.35462 0.0
C828 C 0.77263 0.0981 0.3769 0.0
C829 C 0.77294 0.12315 0.36082 0.0
C830 C 0.88183 0.75183 0.40732 0.0
C831 C 0.8782 0.76543 0.37495 0.0
C832 C 0.90611 0.75265 0.42879 0.0
C833 C 0.92809 0.76639 0.4183 0.0
H834 H 0.86583 0.74025 0.41627 0.0
H835 H 0.90774 0.7424 0.45382 0.0
S836 S 0.93014 0.80468 0.33612 0.0
N837 N 0.89916 0.79385 0.33433 0.0
N838 N 0.94551 0.7928 0.37296 0.0
C839 C 0.92527 0.77931 0.38561 0.0
C840 C 0.90022 0.77943 0.36436 0.0
C841 C 0.25585 0.89651 0.34215 0.0
C842 C 0.23713 0.87662 0.3468 0.0
C843 C 0.25763 0.91958 0.36456 0.0
C844 C 0.24058 0.92352 0.39206 0.0
H845 H 0.26975 0.89385 0.32177 0.0
H846 H 0.27262 0.93429 0.36067 0.0
S847 S 0.18747 0.87781 0.4142 0.0
N848 N 0.20054 0.86269 0.37973 0.0
N849 N 0.20415 0.90595 0.42244 0.0
C850 C 0.22134 0.90406 0.3964 0.0
C851 C 0.21957 0.88059 0.37363 0.0
C852 C 0.13436 0.78011 0.60701 0.0
C853 C 0.13629 0.77276 0.64321 0.0
C854 C 0.11016 0.7783 0.58531 0.0
C855 C 0.08697 0.76927 0.59905 0.0
H856 H 0.15158 0.78772 0.59545 0.0
H857 H 0.10946 0.7843 0.55768 0.0
S858 S 0.08106 0.74681 0.69121 0.0
N859 N 0.11277 0.75481 0.69106 0.0
N860 N 0.06707 0.75296 0.65063 0.0
C861 C 0.08845 0.76187 0.63499 0.0
C862 C 0.11315 0.76325 0.65698 0.0
C863 C 0.25402 0.14781 0.6471 0.0
C864 C 0.24796 0.14543 0.68295 0.0
C865 C 0.2571 0.12531 0.62456 0.0
C866 C 0.25399 0.09979 0.63708 0.0
H867 H 0.25607 0.1672 0.63626 0.0
H868 H 0.26129 0.12788 0.5969 0.0
S869 S 0.23989 0.08259 0.72896 0.0
N870 N 0.24057 0.11539 0.73045 0.0
N871 N 0.24551 0.07303 0.68732 0.0
C872 C 0.24821 0.09701 0.67278 0.0
C873 C 0.24537 0.11988 0.69592 0.0
C874 C 0.87223 0.26533 0.6352 0.0
C875 C 0.87074 0.24867 0.6643 0.0
C876 C 0.89491 0.26578 0.6159 0.0
C877 C 0.91692 0.24933 0.6246 0.0
H878 H 0.85585 0.27842 0.62756 0.0
H879 H 0.89507 0.27888 0.59368 0.0
S880 S 0.92295 0.20178 0.69805 0.0
N881 N 0.8932 0.21501 0.70044 0.0
N882 N 0.93577 0.21602 0.6645 0.0
C883 C 0.91562 0.23249 0.65351 0.0
C884 C 0.89262 0.23215 0.67327 0.0
C885 C 0.74523 0.8748 0.63994 0.0
C886 C 0.76199 0.87371 0.67212 0.0
C887 C 0.74381 0.89766 0.62011 0.0
C888 C 0.75896 0.92034 0.63188 0.0
H889 H 0.73323 0.85777 0.6298 0.0
H890 H 0.73135 0.89724 0.5948 0.0
S891 S 0.80481 0.92821 0.71545 0.0
N892 N 0.79371 0.89739 0.71531 0.0
N893 N 0.79002 0.94095 0.67881 0.0
C894 C 0.77514 0.91986 0.66465 0.0
C895 C 0.77685 0.89642 0.68464 0.0
C896 C 0.89176 0.74418 0.65966 0.0
C897 C 0.87255 0.76437 0.65991 0.0
C898 C 0.91317 0.7455 0.63825 0.0
C899 C 0.91608 0.76692 0.61587 0.0
H900 H 0.89028 0.72727 0.6763 0.0
H901 H 0.9276 0.72958 0.63933 0.0
S902 S 0.86988 0.82399 0.60511 0.0
N903 N 0.85721 0.806 0.63534 0.0
N904 N 0.89693 0.80823 0.59429 0.0
C905 C 0.8968 0.78717 0.61577 0.0
C906 C 0.87518 0.78594 0.63793 0.0
C907 C 0.24497 0.91087 0.64921 0.0
C908 C 0.25296 0.88556 0.6362 0.0
C909 C 0.24439 0.93334 0.62768 0.0
C910 C 0.25168 0.93165 0.59201 0.0
H911 H 0.23953 0.91352 0.6766 0.0
H912 H 0.23841 0.9523 0.63918 0.0
S913 S 0.27217 0.87024 0.5434 0.0
N914 N 0.26691 0.86039 0.58385 0.0
N915 N 0.26605 0.90244 0.54411 0.0
C916 C 0.25928 0.90656 0.57839 0.0
C917 C 0.25988 0.88366 0.60021 0.0
C918 C 0.12615 0.23626 0.65205 0.0
C919 C 0.12515 0.24672 0.68772 0.0
C920 C 0.10357 0.23573 0.627 0.0
C921 C 0.07885 0.24513 0.63665 0.0
H922 H 0.14461 0.22855 0.64322 0.0
H923 H 0.10559 0.2283 0.59961 0.0
S924 S 0.06505 0.27486 0.72579 0.0
N925 N 0.09701 0.26746 0.73075 0.0
N926 N 0.05446 0.26513 0.68396 0.0
C927 C 0.07729 0.25515 0.67218 0.0
C928 C 0.10039 0.25619 0.69763 0.0
C929 C 0.7538 0.13462 0.61086 0.0
C930 C 0.76222 0.1345 0.64812 0.0
C931 C 0.75429 0.11141 0.58809 0.0
C932 C 0.76308 0.08692 0.60149 0.0
H933 H 0.74695 0.15291 0.59904 0.0
H934 H 0.74767 0.1126 0.55971 0.0
S935 S 0.78582 0.07499 0.69686 0.0
N936 N 0.77877 0.10701 0.69723 0.0
N937 N 0.7796 0.06377 0.65454 0.0
C938 C 0.77136 0.08639 0.63856 0.0
C939 C 0.77099 0.11 0.66176 0.0
C940 C 0.90264 0.26849 0.39283 0.0
C941 C 0.87935 0.2577 0.40468 0.0
C942 C 0.92727 0.26735 0.41353 0.0
C943 C 0.92958 0.25607 0.44749 0.0
H944 H 0.9019 0.27818 0.36741 0.0
H945 H 0.94466 0.27546 0.40291 0.0
S946 S 0.8758 0.22305 0.49015 0.0
N947 N 0.8611 0.23325 0.45179 0.0
N948 N 0.90716 0.23262 0.49137 0.0
C949 C 0.90678 0.24481 0.45954 0.0
C950 C 0.88173 0.24542 0.43816 0.0
C951 C 0.77264 0.89605 0.37965 0.0
C952 C 0.7573 0.87372 0.38694 0.0
C953 C 0.77347 0.9197 0.40168 0.0
C954 C 0.75972 0.92215 0.43292 0.0
H955 H 0.78443 0.89535 0.3568 0.0
H956 H 0.78515 0.93626 0.39421 0.0
S957 S 0.71588 0.87082 0.46463 0.0
N958 N 0.72631 0.85715 0.42735 0.0
N959 N 0.73038 0.90024 0.47026 0.0
C960 C 0.74457 0.90012 0.44095 0.0
C961 C 0.74282 0.87635 0.41781 0.0
C962 C 0.13236 0.78716 0.37459 0.0
C963 C 0.13415 0.76573 0.34934 0.0
C964 C 0.11191 0.78833 0.39784 0.0
C965 C 0.09239 0.76821 0.39646 0.0
H966 H 0.14731 0.80271 0.37708 0.0
H967 H 0.11186 0.8047 0.41774 0.0
S968 S 0.08644 0.70978 0.33155 0.0
N969 N 0.1137 0.72514 0.32226 0.0
N970 N 0.07486 0.72763 0.36495 0.0
C971 C 0.0934 0.74732 0.3701 0.0
C972 C 0.11437 0.746 0.34682 0.0
C973 C 0.24246 0.11452 0.37874 0.0
C974 C 0.25538 0.13838 0.39208 0.0
C975 C 0.24129 0.09212 0.40015 0.0
C976 C 0.253 0.09237 0.43603 0.0
H977 H 0.2329 0.11313 0.35146 0.0
H978 H 0.23128 0.07434 0.3884 0.0
S979 S 0.2898 0.14902 0.4844 0.0
N980 N 0.28085 0.16004 0.44401 0.0
N981 N 0.27791 0.11848 0.48398 0.0
C982 C 0.26586 0.11596 0.44984 0.0
C983 C 0.26719 0.13874 0.42807 0.0
C984 C 0.64057 0.72413 0.8884 0.0
C985 C 0.64503 0.74539 0.86654 0.0
C986 C 0.61871 0.72408 0.90921 0.0
C987 C 0.60038 0.7452 0.90869 0.0
H988 H 0.65445 0.70774 0.89009 0.0
H989 H 0.6165 0.70765 0.92644 0.0
S990 S 0.60162 0.80401 0.85238 0.0
N991 N 0.62849 0.78713 0.84358 0.0
N992 N 0.5871 0.78681 0.88182 0.0
C993 C 0.60421 0.76612 0.88589 0.0
C994 C 0.62658 0.76626 0.86503 0.0
C995 C 0.25717 0.65852 0.90383 0.0
C996 C 0.26676 0.65678 0.86926 0.0
C997 C 0.25749 0.63653 0.92616 0.0
C998 C 0.2677 0.61164 0.91539 0.0
H999 H 0.24953 0.67718 0.91406 0.0
H1000 H 0.24996 0.63919 0.95241 0.0
S1001 S 0.29328 0.59524 0.8267 0.0
N1002 N 0.28522 0.62693 0.82479 0.0
N1003 N 0.28648 0.58628 0.86694 0.0
C1004 C 0.2772 0.60948 0.88093 0.0
C1005 C 0.2766 0.63176 0.85796 0.0
C1006 C 0.37822 0.27305 0.94785 0.0
C1007 C 0.37466 0.2649 0.91093 0.0
C1008 C 0.40341 0.27266 0.96739 0.0
C1009 C 0.42602 0.2641 0.95084 0.0
H1010 H 0.36148 0.28019 0.9617 0.0
H1011 H 0.40528 0.27926 0.99563 0.0
S1012 S 0.42809 0.24082 0.85529 0.0
N1013 N 0.39638 0.24725 0.85913 0.0
N1014 N 0.4437 0.24822 0.89542 0.0
C1015 C 0.42296 0.25624 0.91403 0.0
C1016 C 0.39732 0.25618 0.89423 0.0
C1017 C 0.75721 0.37361 0.92244 0.0
C1018 C 0.74745 0.37368 0.88561 0.0
C1019 C 0.75649 0.39654 0.94567 0.0
C1020 C 0.74618 0.42077 0.93323 0.0
H1021 H 0.76592 0.35576 0.93345 0.0
H1022 H 0.76428 0.39535 0.97364 0.0
S1023 S 0.71687 0.43197 0.84021 0.0
N1024 N 0.72562 0.40039 0.83876 0.0
N1025 N 0.72563 0.4434 0.88188 0.0
C1026 C 0.73622 0.42121 0.89672 0.0
C1027 C 0.73657 0.39781 0.87313 0.0
C1028 C 0.60925 0.26264 0.18553 0.0
C1029 C 0.63306 0.27337 0.17506 0.0
C1030 C 0.58557 0.26218 0.16238 0.0
C1031 C 0.58477 0.27222 0.12774 0.0
H1032 H 0.60895 0.25408 0.21162 0.0
H1033 H 0.56781 0.25361 0.17145 0.0
S1034 S 0.64091 0.30319 0.08718 0.0
N1035 N 0.65356 0.29557 0.12785 0.0
N1036 N 0.60967 0.29306 0.08384 0.0
C1037 C 0.6083 0.28295 0.11682 0.0
C1038 C 0.63224 0.28392 0.14055 0.0
C1039 C 0.75644 0.63383 0.11307 0.0
C1040 C 0.74566 0.63373 0.1468 0.0
C1041 C 0.75644 0.6108 0.08989 0.0
C1042 C 0.74569 0.58655 0.09928 0.0
H1043 H 0.76533 0.65179 0.10464 0.0
H1044 H 0.76499 0.61195 0.06437 0.0
S1045 S 0.71395 0.57534 0.18321 0.0
N1046 N 0.7228 0.60696 0.18722 0.0
N1047 N 0.72366 0.5639 0.14428 0.0
C1048 C 0.73474 0.58612 0.13263 0.0
C1049 C 0.73455 0.60955 0.15617 0.0
C1050 C 0.38266 0.76485 0.1498 0.0
C1051 C 0.3621 0.746 0.14194 0.0
C1052 C 0.40526 0.76452 0.1305 0.0
C1053 C 0.40833 0.74527 0.10257 0.0
H1054 H 0.38113 0.78026 0.17079 0.0
H1055 H 0.42056 0.77938 0.13771 0.0
S1056 S 0.36036 0.69136 0.07132 0.0
N1057 N 0.3466 0.70716 0.10468 0.0
N1058 N 0.38859 0.70709 0.06762 0.0
C1059 C 0.38794 0.72628 0.0944 0.0
C1060 C 0.36495 0.72656 0.11418 0.0
C1061 C 0.28233 0.3684 0.13436 0.0
C1062 C 0.26391 0.36642 0.1605 0.0
C1063 C 0.28278 0.39053 0.11232 0.0
C1064 C 0.26465 0.41174 0.11489 0.0
H1065 H 0.29683 0.35284 0.13115 0.0
H1066 H 0.29735 0.39081 0.09273 0.0
S1067 S 0.21211 0.4165 0.17862 0.0
N1068 N 0.22666 0.38781 0.18693 0.0
N1069 N 0.2279 0.42923 0.14651 0.0
C1070 C 0.2461 0.40998 0.14087 0.0
C1071 C 0.24567 0.3875 0.16335 0.0
C1072 C 0.37569 0.24874 0.13802 0.0
C1073 C 0.37667 0.26031 0.17339 0.0
C1074 C 0.39755 0.24996 0.11729 0.0
C1075 C 0.42122 0.26309 0.13082 0.0
H1076 H 0.35773 0.23893 0.12597 0.0
H1077 H 0.39577 0.24089 0.09021 0.0
S1078 S 0.43525 0.29493 0.22231 0.0
N1079 N 0.40441 0.28386 0.22161 0.0
N1080 N 0.44492 0.28691 0.18205 0.0
C1081 C 0.42266 0.27459 0.16603 0.0
C1082 C 0.40057 0.27303 0.18742 0.0
C1083 C 0.72114 0.38581 0.16045 0.0
C1084 C 0.74025 0.38481 0.19013 0.0
C1085 C 0.7209 0.40691 0.13734 0.0
C1086 C 0.73967 0.42767 0.14346 0.0
H1087 H 0.70708 0.36964 0.15422 0.0
H1088 H 0.70671 0.40631 0.11365 0.0
S1089 S 0.79137 0.43558 0.22072 0.0
N1090 N 0.77683 0.40693 0.22649 0.0
N1091 N 0.77595 0.44721 0.1837 0.0
C1092 C 0.75788 0.42752 0.17437 0.0
C1093 C 0.75828 0.40589 0.19759 0.0
C1094 C 0.60785 0.73548 0.16082 0.0
C1095 C 0.63203 0.74153 0.14685 0.0
C1096 C 0.58371 0.73527 0.13885 0.0
C1097 C 0.58305 0.74093 0.10224 0.0
H1098 H 0.60751 0.73155 0.18912 0.0
H1099 H 0.56542 0.73102 0.15061 0.0
S1100 S 0.64059 0.75603 0.05177 0.0
N1101 N 0.65372 0.75188 0.09343 0.0
N1102 N 0.60822 0.75161 0.05243 0.0
C1103 C 0.60697 0.74641 0.08771 0.0
C1104 C 0.63151 0.74667 0.10996 0.0
C1105 C 0.26881 0.62979 0.11246 0.0
C1106 C 0.26831 0.63093 0.15017 0.0
C1107 C 0.27075 0.60546 0.09337 0.0
C1108 C 0.27214 0.58167 0.1115 0.0
H1109 H 0.26728 0.64781 0.09764 0.0
H1110 H 0.27047 0.60512 0.06421 0.0
S1111 S 0.27172 0.57387 0.20966 0.0
N1112 N 0.26966 0.60626 0.20492 0.0
N1113 N 0.27328 0.56033 0.16863 0.0
C1114 C 0.27225 0.58247 0.14911 0.0
C1115 C 0.27037 0.60723 0.16862 0.0
C1116 C 0.38545 0.76876 0.90407 0.0
C1117 C 0.38297 0.7582 0.86816 0.0
C1118 C 0.40894 0.76585 0.92668 0.0
C1119 C 0.43107 0.75272 0.91414 0.0
H1120 H 0.36921 0.7796 0.91485 0.0
H1121 H 0.40989 0.77408 0.95419 0.0
S1122 S 0.43553 0.72144 0.82294 0.0
N1123 N 0.4049 0.73307 0.82184 0.0
N1124 N 0.44966 0.72972 0.86366 0.0
C1125 C 0.42923 0.7425 0.87832 0.0
C1126 C 0.40507 0.74474 0.8555 0.0
C1127 C 0.25975 0.38889 0.93744 0.0
C1128 C 0.2575 0.38386 0.89983 0.0
C1129 C 0.26127 0.41494 0.95218 0.0
C1130 C 0.26041 0.43654 0.92969 0.0
H1131 H 0.26078 0.37261 0.95549 0.0
H1132 H 0.26327 0.41827 0.98128 0.0
S1133 S 0.25322 0.43417 0.82993 0.0
N1134 N 0.25334 0.4027 0.84054 0.0
N1135 N 0.25649 0.45174 0.86866 0.0
C1136 C 0.2578 0.43191 0.89224 0.0
C1137 C 0.25627 0.40547 0.87717 0.0
C1138 C 0.63824 0.28586 0.89424 0.0
C1139 C 0.6398 0.26461 0.86861 0.0
C1140 C 0.61767 0.28725 0.91731 0.0
C1141 C 0.59755 0.26772 0.91522 0.0
H1142 H 0.65344 0.30117 0.89715 0.0
H1143 H 0.61756 0.30371 0.93708 0.0
S1144 S 0.59196 0.20857 0.8518 0.0
N1145 N 0.61904 0.22398 0.84188 0.0
N1146 N 0.58033 0.22671 0.88492 0.0
C1147 C 0.59854 0.24672 0.88912 0.0
C1148 C 0.61968 0.24512 0.86597 0.0
C1149 C 0.7687 0.62939 0.88842 0.0
C1150 C 0.75203 0.63154 0.85636 0.0
C1151 C 0.76835 0.60669 0.90839 0.0
C1152 C 0.75144 0.58517 0.89693 0.0
H1153 H 0.78203 0.64549 0.89835 0.0
H1154 H 0.78093 0.60634 0.93355 0.0
S1155 S 0.70477 0.58039 0.81391 0.0
N1156 N 0.71838 0.61016 0.81363 0.0
N1157 N 0.71855 0.56681 0.85056 0.0
C1158 C 0.73517 0.58671 0.86438 0.0
C1159 C 0.73533 0.61002 0.84417 0.0
loop_
_geom_bond_atom_site_label_1
_geom_bond_atom_site_label_2
_geom_bond_distance
_geom_bond_site_symmetry_2
_ccdc_geom_bond_type
H0 C19 0.949 . S
H1 C20 0.950 . S
H2 C22 0.950 . S
H3 C23 0.950 . S
H4 C25 0.950 . S
H5 C28 0.950 . S
H6 C29 0.950 . S
H7 C31 0.951 . S
H8 C32 0.949 . S
H9 C34 0.949 . S
H10 C35 0.950 . S
H11 C37 0.950 . S
H12 C38 0.950 . S
H13 C40 0.950 . S
H14 C43 0.950 . S
H15 C44 0.950 . S
H16 C46 0.951 . S
H17 C47 0.949 . S
C18 C19 1.376 . S
C18 C23 1.386 . S
C18 C24 1.483 . S
C19 H0 0.949 . S
C19 C18 1.376 . S
C19 C20 1.397 . S
C20 H1 0.950 . S
C20 C19 1.397 . S
C20 C21 1.391 . S
C21 C20 1.391 . S
C21 C22 1.405 . S
C22 H2 0.950 . S
C22 C21 1.405 . S
C22 C23 1.367 . S
C23 H3 0.950 . S
C23 C18 1.386 . S
C23 C22 1.367 . S
C24 C18 1.483 . S
C24 C25 1.382 . S
C24 C26 1.403 . S
C25 H4 0.950 . S
C25 C24 1.382 . S
C25 C41 1.411 . S
C26 C24 1.403 . S
C26 C27 1.489 . S
C26 C40 1.411 . S
C27 C26 1.489 . S
C27 C28 1.383 . S
C27 C32 1.382 . S
C28 H5 0.950 . S
C28 C27 1.383 . S
C28 C29 1.395 . S
C29 H6 0.950 . S
C29 C28 1.395 . S
C29 C30 1.288 . S
C30 C29 1.288 . S
C30 C31 1.392 . S
C31 H7 0.951 . S
C31 C30 1.392 . S
C31 C32 1.392 . S
C32 H8 0.949 . S
C32 C27 1.382 . S
C32 C31 1.392 . S
C33 C34 1.376 . S
C33 C38 1.386 . S
C33 C39 1.483 . S
C34 H9 0.949 . S
C34 C33 1.376 . S
C34 C35 1.397 . S
C35 H10 0.950 . S
C35 C34 1.397 . S
C35 C36 1.391 . S
C36 C35 1.391 . S
C36 C37 1.405 . S
C37 H11 0.950 . S
C37 C36 1.405 . S
C37 C38 1.367 . S
C38 H12 0.950 . S
C38 C33 1.386 . S
C38 C37 1.367 . S
C39 C33 1.483 . S
C39 C40 1.382 . S
C39 C41 1.403 . S
C40 H13 0.950 . S
C40 C26 1.411 . S
C40 C39 1.382 . S
C41 C25 1.411 . S
C41 C39 1.403 . S
C41 C42 1.489 . S
C42 C41 1.489 . S
C42 C43 1.383 . S
C42 C47 1.382 . S
C43 H14 0.950 . S
C43 C42 1.383 . S
C43 C44 1.395 . S
C44 H15 0.950 . S
C44 C43 1.395 . S
C44 C45 1.288 . S
C45 C44 1.288 . S
C45 C46 1.392 . S
C46 H16 0.951 . S
C46 C45 1.392 . S
C46 C47 1.392 . S
C47 H17 0.949 . S
C47 C42 1.382 . S
C47 C46 1.392 . S
H48 C67 0.949 . S
H49 C68 0.950 . S
H50 C70 0.950 . S
H51 C71 0.950 . S
H52 C73 0.950 . S
H53 C76 0.950 . S
H54 C77 0.950 . S
H55 C79 0.951 . S
H56 C80 0.949 . S
H57 C82 0.949 . S
H58 C83 0.950 . S
H59 C85 0.950 . S
H60 C86 0.950 . S
H61 C88 0.950 . S
H62 C91 0.950 . S
H63 C92 0.950 . S
H64 C94 0.951 . S
H65 C95 0.949 . S
C66 C67 1.376 . S
C66 C71 1.386 . S
C66 C72 1.483 . S
C67 H48 0.949 . S
C67 C66 1.376 . S
C67 C68 1.397 . S
C68 H49 0.950 . S
C68 C67 1.397 . S
C68 C69 1.391 . S
C69 C68 1.391 . S
C69 C70 1.405 . S
C70 H50 0.950 . S
C70 C69 1.405 . S
C70 C71 1.367 . S
C71 H51 0.950 . S
C71 C66 1.386 . S
C71 C70 1.367 . S
C72 C66 1.483 . S
C72 C73 1.382 . S
C72 C74 1.403 . S
C73 H52 0.950 . S
C73 C72 1.382 . S
C73 C89 1.411 . S
C74 C72 1.403 . S
C74 C75 1.489 . S
C74 C88 1.411 . S
C75 C74 1.489 . S
C75 C76 1.383 . S
C75 C80 1.382 . S
C76 H53 0.950 . S
C76 C75 1.383 . S
C76 C77 1.395 . S
C77 H54 0.950 . S
C77 C76 1.395 . S
C77 C78 1.288 . S
C78 C77 1.288 . S
C78 C79 1.392 . S
C79 H55 0.951 . S
C79 C78 1.392 . S
C79 C80 1.392 . S
C80 H56 0.949 . S
C80 C75 1.382 . S
C80 C79 1.392 . S
C81 C82 1.376 . S
C81 C86 1.386 . S
C81 C87 1.483 . S
C82 H57 0.949 . S
C82 C81 1.376 . S
C82 C83 1.397 . S
C83 H58 0.950 . S
C83 C82 1.397 . S
C83 C84 1.391 . S
C84 C83 1.391 . S
C84 C85 1.405 . S
C85 H59 0.950 . S
C85 C84 1.405 . S
C85 C86 1.367 . S
C86 H60 0.950 . S
C86 C81 1.386 . S
C86 C85 1.367 . S
C87 C81 1.483 . S
C87 C88 1.382 . S
C87 C89 1.403 . S
C88 H61 0.950 . S
C88 C74 1.411 . S
C88 C87 1.382 . S
C89 C73 1.411 . S
C89 C87 1.403 . S
C89 C90 1.489 . S
C90 C89 1.489 . S
C90 C91 1.383 . S
C90 C95 1.382 . S
C91 H62 0.950 . S
C91 C90 1.383 . S
C91 C92 1.395 . S
C92 H63 0.950 . S
C92 C91 1.395 . S
C92 C93 1.288 . S
C93 C92 1.288 . S
C93 C94 1.392 . S
C94 H64 0.951 . S
C94 C93 1.392 . S
C94 C95 1.392 . S
C95 H65 0.949 . S
C95 C90 1.382 . S
C95 C94 1.392 . S
H96 C115 0.949 . S
H97 C116 0.950 . S
H98 C118 0.950 . S
H99 C119 0.950 . S
H100 C121 0.950 . S
H101 C124 0.950 . S
H102 C125 0.950 . S
H103 C127 0.951 . S
H104 C128 0.949 . S
H105 C130 0.949 . S
H106 C131 0.950 . S
H107 C133 0.950 . S
H108 C134 0.950 . S
H109 C136 0.950 . S
H110 C139 0.950 . S
H111 C140 0.950 . S
H112 C142 0.951 . S
H113 C143 0.949 . S
C114 C115 1.376 . S
C114 C119 1.386 . S
C114 C120 1.483 . S
C115 H96 0.949 . S
C115 C114 1.376 . S
C115 C116 1.397 . S
C116 H97 0.950 . S
C116 C115 1.397 . S
C116 C117 1.391 . S
C117 C116 1.391 . S
C117 C118 1.405 . S
C118 H98 0.950 . S
C118 C117 1.405 . S
C118 C119 1.367 . S
C119 H99 0.950 . S
C119 C114 1.386 . S
C119 C118 1.367 . S
C120 C114 1.483 . S
C120 C121 1.382 . S
C120 C122 1.403 . S
C121 H100 0.950 . S
C121 C120 1.382 . S
C121 C137 1.411 . S
C122 C120 1.403 . S
C122 C123 1.489 . S
C122 C136 1.411 . S
C123 C122 1.489 . S
C123 C124 1.383 . S
C123 C128 1.382 . S
C124 H101 0.950 . S
C124 C123 1.383 . S
C124 C125 1.395 . S
C125 H102 0.950 . S
C125 C124 1.395 . S
C125 C126 1.288 . S
C126 C125 1.288 . S
C126 C127 1.392 . S
C127 H103 0.951 . S
C127 C126 1.392 . S
C127 C128 1.392 . S
C128 H104 0.949 . S
C128 C123 1.382 . S
C128 C127 1.392 . S
C129 C130 1.376 . S
C129 C134 1.386 . S
C129 C135 1.483 . S
C130 H105 0.949 . S
C130 C129 1.376 . S
C130 C131 1.397 . S
C131 H106 0.950 . S
C131 C130 1.397 . S
C131 C132 1.391 . S
C132 C131 1.391 . S
C132 C133 1.405 . S
C133 H107 0.950 . S
C133 C132 1.405 . S
C133 C134 1.367 . S
C134 H108 0.950 . S
C134 C129 1.386 . S
C134 C133 1.367 . S
C135 C129 1.483 . S
C135 C136 1.382 . S
C135 C137 1.403 . S
C136 H109 0.950 . S
C136 C122 1.411 . S
C136 C135 1.382 . S
C137 C121 1.411 . S
C137 C135 1.403 . S
C137 C138 1.489 . S
C138 C137 1.489 . S
C138 C139 1.383 . S
C138 C143 1.382 . S
C139 H110 0.950 . S
C139 C138 1.383 . S
C139 C140 1.395 . S
C140 H111 0.950 . S
C140 C139 1.395 . S
C140 C141 1.288 . S
C141 C140 1.288 . S
C141 C142 1.392 . S
C142 H112 0.951 . S
C142 C141 1.392 . S
C142 C143 1.392 . S
C143 H113 0.949 . S
C143 C138 1.382 . S
C143 C142 1.392 . S
H144 C163 0.949 . S
H145 C164 0.950 . S
H146 C166 0.950 . S
H147 C167 0.950 . S
H148 C169 0.950 . S
H149 C172 0.950 . S
H150 C173 0.950 . S
H151 C175 0.951 . S
H152 C176 0.949 . S
H153 C178 0.949 . S
H154 C179 0.950 . S
H155 C181 0.950 . S
H156 C182 0.950 . S
H157 C184 0.950 . S
H158 C187 0.950 . S
H159 C188 0.950 . S
H160 C190 0.951 . S
H161 C191 0.949 . S
C162 C163 1.376 . S
C162 C167 1.386 . S
C162 C168 1.483 . S
C163 H144 0.949 . S
C163 C162 1.376 . S
C163 C164 1.397 . S
C164 H145 0.950 . S
C164 C163 1.397 . S
C164 C165 1.391 . S
C165 C164 1.391 . S
C165 C166 1.405 . S
C166 H146 0.950 . S
C166 C165 1.405 . S
C166 C167 1.367 . S
C167 H147 0.950 . S
C167 C162 1.386 . S
C167 C166 1.367 . S
C168 C162 1.483 . S
C168 C169 1.382 . S
C168 C170 1.403 . S
C169 H148 0.950 . S
C169 C168 1.382 . S
C169 C185 1.411 . S
C170 C168 1.403 . S
C170 C171 1.489 . S
C170 C184 1.411 . S
C171 C170 1.489 . S
C171 C172 1.383 . S
C171 C176 1.382 . S
C172 H149 0.950 . S
C172 C171 1.383 . S
C172 C173 1.395 . S
C173 H150 0.950 . S
C173 C172 1.395 . S
C173 C174 1.288 . S
C174 C173 1.288 . S
C174 C175 1.392 . S
C175 H151 0.951 . S
C175 C174 1.392 . S
C175 C176 1.392 . S
C176 H152 0.949 . S
C176 C171 1.382 . S
C176 C175 1.392 . S
C177 C178 1.376 . S
C177 C182 1.386 . S
C177 C183 1.483 . S
C178 H153 0.949 . S
C178 C177 1.376 . S
C178 C179 1.397 . S
C179 H154 0.950 . S
C179 C178 1.397 . S
C179 C180 1.391 . S
C180 C179 1.391 . S
C180 C181 1.405 . S
C181 H155 0.950 . S
C181 C180 1.405 . S
C181 C182 1.367 . S
C182 H156 0.950 . S
C182 C177 1.386 . S
C182 C181 1.367 . S
C183 C177 1.483 . S
C183 C184 1.382 . S
C183 C185 1.403 . S
C184 H157 0.950 . S
C184 C170 1.411 . S
C184 C183 1.382 . S
C185 C169 1.411 . S
C185 C183 1.403 . S
C185 C186 1.489 . S
C186 C185 1.489 . S
C186 C187 1.383 . S
C186 C191 1.382 . S
C187 H158 0.950 . S
C187 C186 1.383 . S
C187 C188 1.395 . S
C188 H159 0.950 . S
C188 C187 1.395 . S
C188 C189 1.288 . S
C189 C188 1.288 . S
C189 C190 1.392 . S
C190 H160 0.951 . S
C190 C189 1.392 . S
C190 C191 1.392 . S
C191 H161 0.949 . S
C191 C186 1.382 . S
C191 C190 1.392 . S
H192 C211 0.949 . S
H193 C212 0.950 . S
H194 C214 0.950 . S
H195 C215 0.950 . S
H196 C217 0.950 . S
H197 C220 0.950 . S
H198 C221 0.950 . S
H199 C223 0.951 . S
H200 C224 0.949 . S
H201 C226 0.949 . S
H202 C227 0.950 . S
H203 C229 0.950 . S
H204 C230 0.950 . S
H205 C232 0.950 . S
H206 C235 0.950 . S
H207 C236 0.950 . S
H208 C238 0.951 . S
H209 C239 0.949 . S
C210 C211 1.376 . S
C210 C215 1.386 . S
C210 C216 1.483 . S
C211 H192 0.949 . S
C211 C210 1.376 . S
C211 C212 1.397 . S
C212 H193 0.950 . S
C212 C211 1.397 . S
C212 C213 1.391 . S
C213 C212 1.391 . S
C213 C214 1.405 . S
C214 H194 0.950 . S
C214 C213 1.405 . S
C214 C215 1.367 . S
C215 H195 0.950 . S
C215 C210 1.386 . S
C215 C214 1.367 . S
C216 C210 1.483 . S
C216 C217 1.382 . S
C216 C218 1.403 . S
C217 H196 0.950 . S
C217 C216 1.382 . S
C217 C233 1.411 . S
C218 C216 1.403 . S
C218 C219 1.489 . S
C218 C232 1.411 . S
C219 C218 1.489 . S
C219 C220 1.383 . S
C219 C224 1.382 . S
C220 H197 0.950 . S
C220 C219 1.383 . S
C220 C221 1.395 . S
C221 H198 0.950 . S
C221 C220 1.395 . S
C221 C222 1.288 . S
C222 C221 1.288 . S
C222 C223 1.392 . S
C223 H199 0.951 . S
C223 C222 1.392 . S
C223 C224 1.392 . S
C224 H200 0.949 . S
C224 C219 1.382 . S
C224 C223 1.392 . S
C225 C226 1.376 . S
C225 C230 1.386 . S
C225 C231 1.483 . S
C226 H201 0.949 . S
C226 C225 1.376 . S
C226 C227 1.397 . S
C227 H202 0.950 . S
C227 C226 1.397 . S
C227 C228 1.391 . S
C228 C227 1.391 . S
C228 C229 1.405 . S
C229 H203 0.950 . S
C229 C228 1.405 . S
C229 C230 1.367 . S
C230 H204 0.950 . S
C230 C225 1.386 . S
C230 C229 1.367 . S
C231 C225 1.483 . S
C231 C232 1.382 . S
C231 C233 1.403 . S
C232 H205 0.950 . S
C232 C218 1.411 . S
C232 C231 1.382 . S
C233 C217 1.411 . S
C233 C231 1.403 . S
C233 C234 1.489 . S
C234 C233 1.489 . S
C234 C235 1.383 . S
C234 C239 1.382 . S
C235 H206 0.950 . S
C235 C234 1.383 . S
C235 C236 1.395 . S
C236 H207 0.950 . S
C236 C235 1.395 . S
C236 C237 1.288 . S
C237 C236 1.288 . S
C237 C238 1.392 . S
C238 H208 0.951 . S
C238 C237 1.392 . S
C238 C239 1.392 . S
C239 H209 0.949 . S
C239 C234 1.382 . S
C239 C238 1.392 . S
H240 C259 0.949 . S
H241 C260 0.950 . S
H242 C262 0.950 . S
H243 C263 0.950 . S
H244 C265 0.950 . S
H245 C268 0.950 . S
H246 C269 0.950 . S
H247 C271 0.951 . S
H248 C272 0.949 . S
H249 C274 0.949 . S
H250 C275 0.950 . S
H251 C277 0.950 . S
H252 C278 0.950 . S
H253 C280 0.950 . S
H254 C283 0.950 . S
H255 C284 0.950 . S
H256 C286 0.951 . S
H257 C287 0.949 . S
C258 C259 1.376 . S
C258 C263 1.386 . S
C258 C264 1.483 . S
C259 H240 0.949 . S
C259 C258 1.376 . S
C259 C260 1.397 . S
C260 H241 0.950 . S
C260 C259 1.397 . S
C260 C261 1.391 . S
C261 C260 1.391 . S
C261 C262 1.405 . S
C262 H242 0.950 . S
C262 C261 1.405 . S
C262 C263 1.367 . S
C263 H243 0.950 . S
C263 C258 1.386 . S
C263 C262 1.367 . S
C264 C258 1.483 . S
C264 C265 1.382 . S
C264 C266 1.403 . S
C265 H244 0.950 . S
C265 C264 1.382 . S
C265 C281 1.411 . S
C266 C264 1.403 . S
C266 C267 1.489 . S
C266 C280 1.411 . S
C267 C266 1.489 . S
C267 C268 1.383 . S
C267 C272 1.382 . S
C268 H245 0.950 . S
C268 C267 1.383 . S
C268 C269 1.395 . S
C269 H246 0.950 . S
C269 C268 1.395 . S
C269 C270 1.288 . S
C270 C269 1.288 . S
C270 C271 1.392 . S
C271 H247 0.951 . S
C271 C270 1.392 . S
C271 C272 1.392 . S
C272 H248 0.949 . S
C272 C267 1.382 . S
C272 C271 1.392 . S
C273 C274 1.376 . S
C273 C278 1.386 . S
C273 C279 1.483 . S
C274 H249 0.949 . S
C274 C273 1.376 . S
C274 C275 1.397 . S
C275 H250 0.950 . S
C275 C274 1.397 . S
C275 C276 1.391 . S
C276 C275 1.391 . S
C276 C277 1.405 . S
C277 H251 0.950 . S
C277 C276 1.405 . S
C277 C278 1.367 . S
C278 H252 0.950 . S
C278 C273 1.386 . S
C278 C277 1.367 . S
C279 C273 1.483 . S
C279 C280 1.382 . S
C279 C281 1.403 . S
C280 H253 0.950 . S
C280 C266 1.411 . S
C280 C279 1.382 . S
C281 C265 1.411 . S
C281 C279 1.403 . S
C281 C282 1.489 . S
C282 C281 1.489 . S
C282 C283 1.383 . S
C282 C287 1.382 . S
C283 H254 0.950 . S
C283 C282 1.383 . S
C283 C284 1.395 . S
C284 H255 0.950 . S
C284 C283 1.395 . S
C284 C285 1.288 . S
C285 C284 1.288 . S
C285 C286 1.392 . S
C286 H256 0.951 . S
C286 C285 1.392 . S
C286 C287 1.392 . S
C287 H257 0.949 . S
C287 C282 1.382 . S
C287 C286 1.392 . S
H288 C307 0.949 . S
H289 C308 0.950 . S
H290 C310 0.950 . S
H291 C311 0.950 . S
H292 C313 0.950 . S
H293 C316 0.950 . S
H294 C317 0.950 . S
H295 C319 0.951 . S
H296 C320 0.949 . S
H297 C322 0.949 . S
H298 C323 0.950 . S
H299 C325 0.950 . S
H300 C326 0.950 . S
H301 C328 0.950 . S
H302 C331 0.950 . S
H303 C332 0.950 . S
H304 C334 0.951 . S
H305 C335 0.949 . S
C306 C307 1.376 . S
C306 C311 1.386 . S
C306 C312 1.483 . S
C307 H288 0.949 . S
C307 C306 1.376 . S
C307 C308 1.397 . S
C308 H289 0.950 . S
C308 C307 1.397 . S
C308 C309 1.391 . S
C309 C308 1.391 . S
C309 C310 1.405 . S
C310 H290 0.950 . S
C310 C309 1.405 . S
C310 C311 1.367 . S
C311 H291 0.950 . S
C311 C306 1.386 . S
C311 C310 1.367 . S
C312 C306 1.483 . S
C312 C313 1.382 . S
C312 C314 1.403 . S
C313 H292 0.950 . S
C313 C312 1.382 . S
C313 C329 1.411 . S
C314 C312 1.403 . S
C314 C315 1.489 . S
C314 C328 1.411 . S
C315 C314 1.489 . S
C315 C316 1.383 . S
C315 C320 1.382 . S
C316 H293 0.950 . S
C316 C315 1.383 . S
C316 C317 1.395 . S
C317 H294 0.950 . S
C317 C316 1.395 . S
C317 C318 1.288 . S
C318 C317 1.288 . S
C318 C319 1.392 . S
C319 H295 0.951 . S
C319 C318 1.392 . S
C319 C320 1.392 . S
C320 H296 0.949 . S
C320 C315 1.382 . S
C320 C319 1.392 . S
C321 C322 1.376 . S
C321 C326 1.386 . S
C321 C327 1.483 . S
C322 H297 0.949 . S
C322 C321 1.376 . S
C322 C323 1.397 . S
C323 H298 0.950 . S
C323 C322 1.397 . S
C323 C324 1.391 . S
C324 C323 1.391 . S
C324 C325 1.405 . S
C325 H299 0.950 . S
C325 C324 1.405 . S
C325 C326 1.367 . S
C326 H300 0.950 . S
C326 C321 1.386 . S
C326 C325 1.367 . S
C327 C321 1.483 . S
C327 C328 1.382 . S
C327 C329 1.403 . S
C328 H301 0.950 . S
C328 C314 1.411 . S
C328 C327 1.382 . S
C329 C313 1.411 . S
C329 C327 1.403 . S
C329 C330 1.489 . S
C330 C329 1.489 . S
C330 C331 1.383 . S
C330 C335 1.382 . S
C331 H302 0.950 . S
C331 C330 1.383 . S
C331 C332 1.395 . S
C332 H303 0.950 . S
C332 C331 1.395 . S
C332 C333 1.288 . S
C333 C332 1.288 . S
C333 C334 1.392 . S
C334 H304 0.951 . S
C334 C333 1.392 . S
C334 C335 1.392 . S
C335 H305 0.949 . S
C335 C330 1.382 . S
C335 C334 1.392 . S
H336 C355 0.949 . S
H337 C356 0.950 . S
H338 C358 0.950 . S
H339 C359 0.950 . S
H340 C361 0.950 . S
H341 C364 0.950 . S
H342 C365 0.950 . S
H343 C367 0.951 . S
H344 C368 0.949 . S
H345 C370 0.949 . S
H346 C371 0.950 . S
H347 C373 0.950 . S
H348 C374 0.950 . S
H349 C376 0.950 . S
H350 C379 0.950 . S
H351 C380 0.950 . S
H352 C382 0.951 . S
H353 C383 0.949 . S
C354 C355 1.376 . S
C354 C359 1.386 . S
C354 C360 1.483 . S
C355 H336 0.949 . S
C355 C354 1.376 . S
C355 C356 1.397 . S
C356 H337 0.950 . S
C356 C355 1.397 . S
C356 C357 1.391 . S
C357 C356 1.391 . S
C357 C358 1.405 . S
C358 H338 0.950 . S
C358 C357 1.405 . S
C358 C359 1.367 . S
C359 H339 0.950 . S
C359 C354 1.386 . S
C359 C358 1.367 . S
C360 C354 1.483 . S
C360 C361 1.382 . S
C360 C362 1.403 . S
C361 H340 0.950 . S
C361 C360 1.382 . S
C361 C377 1.411 . S
C362 C360 1.403 . S
C362 C363 1.489 . S
C362 C376 1.411 . S
C363 C362 1.489 . S
C363 C364 1.383 . S
C363 C368 1.382 . S
C364 H341 0.950 . S
C364 C363 1.383 . S
C364 C365 1.395 . S
C365 H342 0.950 . S
C365 C364 1.395 . S
C365 C366 1.288 . S
C366 C365 1.288 . S
C366 C367 1.392 . S
C367 H343 0.951 . S
C367 C366 1.392 . S
C367 C368 1.392 . S
C368 H344 0.949 . S
C368 C363 1.382 . S
C368 C367 1.392 . S
C369 C370 1.376 . S
C369 C374 1.386 . S
C369 C375 1.483 . S
C370 H345 0.949 . S
C370 C369 1.376 . S
C370 C371 1.397 . S
C371 H346 0.950 . S
C371 C370 1.397 . S
C371 C372 1.391 . S
C372 C371 1.391 . S
C372 C373 1.405 . S
C373 H347 0.950 . S
C373 C372 1.405 . S
C373 C374 1.367 . S
C374 H348 0.950 . S
C374 C369 1.386 . S
C374 C373 1.367 . S
C375 C369 1.483 . S
C375 C376 1.382 . S
C375 C377 1.403 . S
C376 H349 0.950 . S
C376 C362 1.411 . S
C376 C375 1.382 . S
C377 C361 1.411 . S
C377 C375 1.403 . S
C377 C378 1.489 . S
C378 C377 1.489 . S
C378 C379 1.383 . S
C378 C383 1.382 . S
C379 H350 0.950 . S
C379 C378 1.383 . S
C379 C380 1.395 . S
C380 H351 0.950 . S
C380 C379 1.395 . S
C380 C381 1.288 . S
C381 C380 1.288 . S
C381 C382 1.392 . S
C382 H352 0.951 . S
C382 C381 1.392 . S
C382 C383 1.392 . S
C383 H353 0.949 . S
C383 C378 1.382 . S
C383 C382 1.392 . S
C384 C385 1.443 . S
C384 N388 1.376 . S
C384 C422 1.389 . S
C385 C384 1.443 . S
C385 C386 1.340 . S
C385 H425 0.951 . S
C386 C385 1.340 . S
C386 C387 1.439 . S
C386 H426 0.950 . S
C387 C386 1.439 . S
C387 N388 1.374 . S
C387 C421 1.395 . S
N388 C384 1.376 . S
N388 C387 1.374 . S
N388 Co389 2.008 . S
Co389 N388 2.008 . S
Co389 N390 1.995 1_455 S
Co389 N395 2.008 1_455 S
Co389 N400 1.995 . S
Co389 N405 2.282 1_455 S
Co389 N411 2.282 . S
N390 Co389 1.995 1_655 S
N390 C391 1.376 . S
N390 C394 1.383 . S
C391 N390 1.376 . S
C391 C392 1.446 . S
C391 C421 1.391 1_655 S
C392 C391 1.446 . S
C392 C393 1.339 . S
C392 H427 0.949 . S
C393 C392 1.339 . S
C393 C394 1.439 . S
C393 H428 0.950 . S
C394 N390 1.383 . S
C394 C393 1.439 . S
C394 C423 1.392 . S
N395 Co389 2.008 1_655 S
N395 C396 1.376 . S
N395 C399 1.374 . S
C396 N395 1.376 . S
C396 C397 1.443 . S
C396 C423 1.389 . S
C397 C396 1.443 . S
C397 C398 1.340 . S
C397 H429 0.951 . S
C398 C397 1.340 . S
C398 C399 1.439 . S
C398 H430 0.950 . S
C399 N395 1.374 . S
C399 C398 1.439 . S
C399 C424 1.411 . S
N400 Co389 1.995 . S
N400 C401 1.376 . S
N400 C404 1.383 . S
C401 N400 1.376 . S
C401 C402 1.446 . S
C401 C424 1.374 1_455 S
C402 C401 1.446 . S
C402 C403 1.339 . S
C402 H431 0.949 . S
C403 C402 1.339 . S
C403 C404 1.439 . S
C403 H432 0.950 . S
C404 N400 1.383 . S
C404 C403 1.439 . S
C404 C422 1.392 . S
N405 Co389 2.282 1_655 S
N405 C408 1.332 . S
N405 C410 1.332 . S
C406 C407 1.386 . S
C406 C409 1.388 . S
C407 C406 1.386 . S
C407 C408 1.382 . S
C407 H433 0.950 . S
C408 N405 1.332 . S
C408 C407 1.382 . S
C408 H419 0.952 . S
C409 C406 1.388 . S
C409 C410 1.382 . S
C409 H434 0.950 . S
C410 N405 1.332 . S
C410 C409 1.382 . S
C410 H420 0.948 . S
N411 Co389 2.282 . S
N411 C415 1.332 . S
N411 C416 1.332 . S
C412 C413 1.388 . S
C412 C416 1.382 . S
C412 H435 0.950 . S
C413 C412 1.388 . S
C413 C414 1.386 . S
C414 C413 1.386 . S
C414 C415 1.382 . S
C414 H436 0.950 . S
C415 N411 1.332 . S
C415 C414 1.382 . S
C415 H417 0.952 . S
C416 N411 1.332 . S
C416 C412 1.382 . S
C416 H418 0.948 . S
H417 C415 0.952 . S
H418 C416 0.948 . S
H419 C408 0.952 . S
H420 C410 0.948 . S
C421 C387 1.395 . S
C421 C391 1.391 1_455 S
C422 C384 1.389 . S
C422 C404 1.392 . S
C423 C394 1.392 . S
C423 C396 1.389 . S
C424 C399 1.411 . S
C424 C401 1.374 1_655 S
H425 C385 0.951 . S
H426 C386 0.950 . S
H427 C392 0.949 . S
H428 C393 0.950 . S
H429 C397 0.951 . S
H430 C398 0.950 . S
H431 C402 0.949 . S
H432 C403 0.950 . S
H433 C407 0.950 . S
H434 C409 0.950 . S
H435 C412 0.950 . S
H436 C414 0.950 . S
C437 C438 1.443 . S
C437 N441 1.376 . S
C437 C475 1.389 . S
C438 C437 1.443 . S
C438 C439 1.340 . S
C438 H478 0.951 . S
C439 C438 1.340 . S
C439 C440 1.439 . S
C439 H479 0.950 . S
C440 C439 1.439 . S
C440 N441 1.374 . S
C440 C474 1.395 . S
N441 C437 1.376 . S
N441 C440 1.374 . S
N441 Co442 2.008 . S
Co442 N441 2.008 . S
Co442 N443 1.995 1_545 S
Co442 N448 2.008 1_545 S
Co442 N453 1.995 . S
Co442 N458 2.282 1_545 S
Co442 N464 2.282 . S
N443 Co442 1.995 1_565 S
N443 C444 1.376 . S
N443 C447 1.383 . S
C444 N443 1.376 . S
C444 C445 1.446 . S
C444 C474 1.391 1_565 S
C445 C444 1.446 . S
C445 C446 1.339 . S
C445 H480 0.949 . S
C446 C445 1.339 . S
C446 C447 1.439 . S
C446 H481 0.950 . S
C447 N443 1.383 . S
C447 C446 1.439 . S
C447 C476 1.392 . S
N448 Co442 2.008 1_565 S
N448 C449 1.376 . S
N448 C452 1.374 . S
C449 N448 1.376 . S
C449 C450 1.443 . S
C449 C476 1.389 . S
C450 C449 1.443 . S
C450 C451 1.340 . S
C450 H482 0.951 . S
C451 C450 1.340 . S
C451 C452 1.439 . S
C451 H483 0.950 . S
C452 N448 1.374 . S
C452 C451 1.439 . S
C452 C477 1.380 1_565 S
N453 Co442 1.995 . S
N453 C454 1.376 . S
N453 C457 1.383 . S
C454 N453 1.376 . S
C454 C455 1.446 . S
C454 C477 1.408 . S
C455 C454 1.446 . S
C455 C456 1.339 . S
C455 H484 0.949 . S
C456 C455 1.339 . S
C456 C457 1.439 . S
C456 H485 0.950 . S
C457 N453 1.383 . S
C457 C456 1.439 . S
C457 C475 1.392 . S
N458 Co442 2.282 1_565 S
N458 C461 1.332 . S
N458 C463 1.332 . S
C459 C460 1.386 . S
C459 C462 1.388 . S
C460 C459 1.386 . S
C460 C461 1.382 . S
C460 H486 0.950 . S
C461 N458 1.332 . S
C461 C460 1.382 . S
C461 H472 0.952 . S
C462 C459 1.388 . S
C462 C463 1.382 . S
C462 H487 0.950 . S
C463 N458 1.332 . S
C463 C462 1.382 . S
C463 H473 0.948 . S
N464 Co442 2.282 . S
N464 C468 1.332 . S
N464 C469 1.332 . S
C465 C466 1.388 . S
C465 C469 1.382 . S
C465 H488 0.950 . S
C466 C465 1.388 . S
C466 C467 1.386 . S
C467 C466 1.386 . S
C467 C468 1.382 . S
C467 H489 0.950 . S
C468 N464 1.332 . S
C468 C467 1.382 . S
C468 H470 0.952 . S
C469 N464 1.332 . S
C469 C465 1.382 . S
C469 H471 0.948 . S
H470 C468 0.952 . S
H471 C469 0.948 . S
H472 C461 0.952 . S
H473 C463 0.948 . S
C474 C440 1.395 . S
C474 C444 1.391 1_545 S
C475 C437 1.389 . S
C475 C457 1.392 . S
C476 C447 1.392 . S
C476 C449 1.389 . S
C477 C452 1.380 1_545 S
C477 C454 1.408 . S
H478 C438 0.951 . S
H479 C439 0.950 . S
H480 C445 0.949 . S
H481 C446 0.950 . S
H482 C450 0.951 . S
H483 C451 0.950 . S
H484 C455 0.949 . S
H485 C456 0.950 . S
H486 C460 0.950 . S
H487 C462 0.950 . S
H488 C465 0.950 . S
H489 C467 0.950 . S
C490 C491 1.443 . S
C490 N494 1.376 . S
C490 C528 1.389 . S
C491 C490 1.443 . S
C491 C492 1.340 . S
C491 H531 0.951 . S
C492 C491 1.340 . S
C492 C493 1.439 . S
C492 H532 0.950 . S
C493 C492 1.439 . S
C493 N494 1.374 . S
C493 C527 1.395 . S
N494 C490 1.376 . S
N494 C493 1.374 . S
N494 Co495 2.008 . S
Co495 N494 2.008 . S
Co495 N496 1.995 1_455 S
Co495 N501 2.008 1_455 S
Co495 N506 1.995 . S
Co495 N511 2.282 1_455 S
Co495 N517 2.282 . S
N496 Co495 1.995 1_655 S
N496 C497 1.376 . S
N496 C500 1.383 . S
C497 N496 1.376 . S
C497 C498 1.446 . S
C497 C527 1.391 1_655 S
C498 C497 1.446 . S
C498 C499 1.339 . S
C498 H533 0.949 . S
C499 C498 1.339 . S
C499 C500 1.439 . S
C499 H534 0.950 . S
C500 N496 1.383 . S
C500 C499 1.439 . S
C500 C529 1.392 . S
N501 Co495 2.008 1_655 S
N501 C502 1.376 . S
N501 C505 1.374 . S
C502 N501 1.376 . S
C502 C503 1.443 . S
C502 C529 1.389 . S
C503 C502 1.443 . S
C503 C504 1.340 . S
C503 H535 0.951 . S
C504 C503 1.340 . S
C504 C505 1.439 . S
C504 H536 0.950 . S
C505 N501 1.374 . S
C505 C504 1.439 . S
C505 C530 1.395 . S
N506 Co495 1.995 . S
N506 C507 1.376 . S
N506 C510 1.383 . S
C507 N506 1.376 . S
C507 C508 1.446 . S
C507 C530 1.391 1_455 S
C508 C507 1.446 . S
C508 C509 1.339 . S
C508 H537 0.949 . S
C509 C508 1.339 . S
C509 C510 1.439 . S
C509 H538 0.950 . S
C510 N506 1.383 . S
C510 C509 1.439 . S
C510 C528 1.392 . S
N511 Co495 2.282 1_655 S
N511 C514 1.332 . S
N511 C516 1.332 . S
C512 C513 1.386 . S
C512 C515 1.388 . S
C513 C512 1.386 . S
C513 C514 1.382 . S
C513 H539 0.950 . S
C514 N511 1.332 . S
C514 C513 1.382 . S
C514 H525 0.952 . S
C515 C512 1.388 . S
C515 C516 1.382 . S
C515 H540 0.950 . S
C516 N511 1.332 . S
C516 C515 1.382 . S
C516 H526 0.948 . S
N517 Co495 2.282 . S
N517 C521 1.332 . S
N517 C522 1.332 . S
C518 C519 1.388 . S
C518 C522 1.382 . S
C518 H541 0.950 . S
C519 C518 1.388 . S
C519 C520 1.386 . S
C520 C519 1.386 . S
C520 C521 1.382 . S
C520 H542 0.950 . S
C521 N517 1.332 . S
C521 C520 1.382 . S
C521 H523 0.952 . S
C522 N517 1.332 . S
C522 C518 1.382 . S
C522 H524 0.948 . S
H523 C521 0.952 . S
H524 C522 0.948 . S
H525 C514 0.952 . S
H526 C516 0.948 . S
C527 C493 1.395 . S
C527 C497 1.391 1_455 S
C528 C490 1.389 . S
C528 C510 1.392 . S
C529 C500 1.392 . S
C529 C502 1.389 . S
C530 C505 1.395 . S
C530 C507 1.391 1_655 S
H531 C491 0.951 . S
H532 C492 0.950 . S
H533 C498 0.949 . S
H534 C499 0.950 . S
H535 C503 0.951 . S
H536 C504 0.950 . S
H537 C508 0.949 . S
H538 C509 0.950 . S
H539 C513 0.950 . S
H540 C515 0.950 . S
H541 C518 0.950 . S
H542 C520 0.950 . S
C543 C544 1.443 . S
C543 N547 1.376 . S
C543 C581 1.389 . S
C544 C543 1.443 . S
C544 C545 1.340 . S
C544 H584 0.951 . S
C545 C544 1.340 . S
C545 C546 1.439 . S
C545 H585 0.950 . S
C546 C545 1.439 . S
C546 N547 1.374 . S
C546 C580 1.403 . S
N547 C543 1.376 . S
N547 C546 1.374 . S
N547 Co548 2.008 1_565 S
Co548 N547 2.008 1_545 S
Co548 N549 1.995 . S
Co548 N554 2.008 . S
Co548 N559 1.995 1_545 S
Co548 N564 2.282 . S
Co548 N570 2.282 1_545 S
N549 Co548 1.995 . S
N549 C550 1.376 . S
N549 C553 1.383 . S
C550 N549 1.376 . S
C550 C551 1.446 . S
C550 C580 1.383 1_545 S
C551 C550 1.446 . S
C551 C552 1.339 . S
C551 H586 0.949 . S
C552 C551 1.339 . S
C552 C553 1.439 . S
C552 H587 0.950 . S
C553 N549 1.383 . S
C553 C552 1.439 . S
C553 C582 1.392 . S
N554 Co548 2.008 . S
N554 C555 1.376 . S
N554 C558 1.374 . S
C555 N554 1.376 . S
C555 C556 1.443 . S
C555 C582 1.389 . S
C556 C555 1.443 . S
C556 C557 1.340 . S
C556 H588 0.951 . S
C557 C556 1.340 . S
C557 C558 1.439 . S
C557 H589 0.950 . S
C558 N554 1.374 . S
C558 C557 1.439 . S
C558 C583 1.395 . S
N559 Co548 1.995 1_565 S
N559 C560 1.376 . S
N559 C563 1.383 . S
C560 N559 1.376 . S
C560 C561 1.446 . S
C560 C583 1.391 1_565 S
C561 C560 1.446 . S
C561 C562 1.339 . S
C561 H590 0.949 . S
C562 C561 1.339 . S
C562 C563 1.439 . S
C562 H591 0.950 . S
C563 N559 1.383 . S
C563 C562 1.439 . S
C563 C581 1.392 . S
N564 Co548 2.282 . S
N564 C567 1.332 . S
N564 C569 1.332 . S
C565 C566 1.386 . S
C565 C568 1.388 . S
C566 C565 1.386 . S
C566 C567 1.382 . S
C566 H592 0.950 . S
C567 N564 1.332 . S
C567 C566 1.382 . S
C567 H578 0.952 . S
C568 C565 1.388 . S
C568 C569 1.382 . S
C568 H593 0.950 . S
C569 N564 1.332 . S
C569 C568 1.382 . S
C569 H579 0.948 . S
N570 Co548 2.282 1_565 S
N570 C574 1.332 . S
N570 C575 1.332 . S
C571 C572 1.388 . S
C571 C575 1.382 . S
C571 H594 0.950 . S
C572 C571 1.388 . S
C572 C573 1.386 . S
C573 C572 1.386 . S
C573 C574 1.382 . S
C573 H595 0.950 . S
C574 N570 1.332 . S
C574 C573 1.382 . S
C574 H576 0.952 . S
C575 N570 1.332 . S
C575 C571 1.382 . S
C575 H577 0.948 . S
H576 C574 0.952 . S
H577 C575 0.948 . S
H578 C567 0.952 . S
H579 C569 0.948 . S
C580 C546 1.403 . S
C580 C550 1.383 1_565 S
C581 C543 1.389 . S
C581 C563 1.392 . S
C582 C553 1.392 . S
C582 C555 1.389 . S
C583 C558 1.395 . S
C583 C560 1.391 1_545 S
H584 C544 0.951 . S
H585 C545 0.950 . S
H586 C551 0.949 . S
H587 C552 0.950 . S
H588 C556 0.951 . S
H589 C557 0.950 . S
H590 C561 0.949 . S
H591 C562 0.950 . S
H592 C566 0.950 . S
H593 C568 0.950 . S
H594 C571 0.950 . S
H595 C573 0.950 . S
C596 C597 1.443 . S
C596 N600 1.376 . S
C596 C634 1.389 . S
C597 C596 1.443 . S
C597 C598 1.340 . S
C597 H637 0.951 . S
C598 C597 1.340 . S
C598 C599 1.439 . S
C598 H638 0.950 . S
C599 C598 1.439 . S
C599 N600 1.374 . S
C599 C633 1.390 1_554 S
N600 C596 1.376 . S
N600 C599 1.374 . S
N600 Co601 2.009 . S
Co601 N600 2.009 . S
Co601 N602 1.994 1_554 S
Co601 N607 2.007 1_554 S
Co601 N612 1.995 . S
Co601 N617 2.284 . S
Co601 N623 2.281 1_554 S
N602 Co601 1.994 1_556 S
N602 C603 1.376 . S
N602 C606 1.383 . S
C603 N602 1.376 . S
C603 C604 1.446 . S
C603 C633 1.396 . S
C604 C603 1.446 . S
C604 C605 1.339 . S
C604 H639 0.949 . S
C605 C604 1.339 . S
C605 C606 1.439 . S
C605 H640 0.950 . S
C606 N602 1.383 . S
C606 C605 1.439 . S
C606 C635 1.392 . S
N607 Co601 2.007 1_556 S
N607 C608 1.376 . S
N607 C611 1.374 . S
C608 N607 1.376 . S
C608 C609 1.443 . S
C608 C635 1.389 . S
C609 C608 1.443 . S
C609 C610 1.340 . S
C609 H641 0.951 . S
C610 C609 1.340 . S
C610 C611 1.439 . S
C610 H642 0.950 . S
C611 N607 1.374 . S
C611 C610 1.439 . S
C611 C636 1.384 1_556 S
N612 Co601 1.995 . S
N612 C613 1.376 . S
N612 C616 1.383 . S
C613 N612 1.376 . S
C613 C614 1.446 . S
C613 C636 1.401 . S
C614 C613 1.446 . S
C614 C615 1.339 . S
C614 H643 0.949 . S
C615 C614 1.339 . S
C615 C616 1.439 . S
C615 H644 0.950 . S
C616 N612 1.383 . S
C616 C615 1.439 . S
C616 C634 1.392 . S
N617 Co601 2.284 . S
N617 C620 1.332 . S
N617 C622 1.332 . S
C618 C619 1.386 . S
C618 C621 1.388 . S
C619 C618 1.386 . S
C619 C620 1.382 . S
C619 H645 0.950 . S
C620 N617 1.332 . S
C620 C619 1.382 . S
C620 H631 0.952 . S
C621 C618 1.388 . S
C621 C622 1.382 . S
C621 H646 0.950 . S
C622 N617 1.332 . S
C622 C621 1.382 . S
C622 H632 0.948 . S
N623 Co601 2.281 1_556 S
N623 C627 1.332 . S
N623 C628 1.332 . S
C624 C625 1.388 . S
C624 C628 1.382 . S
C624 H647 0.950 . S
C625 C624 1.388 . S
C625 C626 1.386 . S
C626 C625 1.386 . S
C626 C627 1.382 . S
C626 H648 0.950 . S
C627 N623 1.332 . S
C627 C626 1.382 . S
C627 H629 0.952 . S
C628 N623 1.332 . S
C628 C624 1.382 . S
C628 H630 0.948 . S
H629 C627 0.952 . S
H630 C628 0.948 . S
H631 C620 0.952 . S
H632 C622 0.948 . S
C633 C599 1.390 1_556 S
C633 C603 1.396 . S
C634 C596 1.389 . S
C634 C616 1.392 . S
C635 C606 1.392 . S
C635 C608 1.389 . S
C636 C611 1.384 1_554 S
C636 C613 1.401 . S
H637 C597 0.951 . S
H638 C598 0.950 . S
H639 C604 0.949 . S
H640 C605 0.950 . S
H641 C609 0.951 . S
H642 C610 0.950 . S
H643 C614 0.949 . S
H644 C615 0.950 . S
H645 C619 0.950 . S
H646 C621 0.950 . S
H647 C624 0.950 . S
H648 C626 0.950 . S
C649 C650 1.443 . S
C649 N653 1.376 . S
C649 C687 1.389 . S
C650 C649 1.443 . S
C650 C651 1.340 . S
C650 H690 0.951 . S
C651 C650 1.340 . S
C651 C652 1.439 . S
C651 H691 0.950 . S
C652 C651 1.439 . S
C652 N653 1.374 . S
C652 C686 1.395 . S
N653 C649 1.376 . S
N653 C652 1.374 . S
N653 Co654 2.008 . S
Co654 N653 2.008 . S
Co654 N655 1.995 1_554 S
Co654 N660 2.008 . S
Co654 N665 1.995 . S
Co654 N670 2.282 . S
Co654 N676 2.282 1_554 S
N655 Co654 1.995 1_556 S
N655 C656 1.376 . S
N655 C659 1.383 . S
C656 N655 1.376 . S
C656 C657 1.446 . S
C656 C686 1.391 1_556 S
C657 C656 1.446 . S
C657 C658 1.339 . S
C657 H692 0.949 . S
C658 C657 1.339 . S
C658 C659 1.439 . S
C658 H693 0.950 . S
C659 N655 1.383 . S
C659 C658 1.439 . S
C659 C688 1.392 . S
N660 Co654 2.008 . S
N660 C661 1.376 1_554 S
N660 C664 1.374 . S
C661 N660 1.376 1_556 S
C661 C662 1.443 . S
C661 C688 1.389 . S
C662 C661 1.443 . S
C662 C663 1.340 . S
C662 H694 0.951 . S
C663 C662 1.340 . S
C663 C664 1.439 1_556 S
C663 H695 0.950 1_556 S
C664 N660 1.374 . S
C664 C663 1.439 1_554 S
C664 C689 1.395 . S
N665 Co654 1.995 . S
N665 C666 1.376 . S
N665 C669 1.383 . S
C666 N665 1.376 . S
C666 C667 1.446 . S
C666 C689 1.391 . S
C667 C666 1.446 . S
C667 C668 1.339 . S
C667 H696 0.949 . S
C668 C667 1.339 . S
C668 C669 1.439 . S
C668 H697 0.950 . S
C669 N665 1.383 . S
C669 C668 1.439 . S
C669 C687 1.392 . S
N670 Co654 2.282 . S
N670 C673 1.332 . S
N670 C675 1.332 . S
C671 C672 1.386 . S
C671 C674 1.388 . S
C672 C671 1.386 . S
C672 C673 1.382 . S
C672 H698 0.950 . S
C673 N670 1.332 . S
C673 C672 1.382 . S
C673 H684 0.952 . S
C674 C671 1.388 . S
C674 C675 1.382 . S
C674 H699 0.950 . S
C675 N670 1.332 . S
C675 C674 1.382 . S
C675 H685 0.948 . S
N676 Co654 2.282 1_556 S
N676 C680 1.332 . S
N676 C681 1.332 . S
C677 C678 1.388 . S
C677 C681 1.382 . S
C677 H700 0.950 . S
C678 C677 1.388 . S
C678 C679 1.386 . S
C679 C678 1.386 . S
C679 C680 1.382 . S
C679 H701 0.950 . S
C680 N676 1.332 . S
C680 C679 1.382 . S
C680 H682 0.952 . S
C681 N676 1.332 . S
C681 C677 1.382 . S
C681 H683 0.948 . S
H682 C680 0.952 . S
H683 C681 0.948 . S
H684 C673 0.952 . S
H685 C675 0.948 . S
C686 C652 1.395 . S
C686 C656 1.391 1_554 S
C687 C649 1.389 . S
C687 C669 1.392 . S
C688 C659 1.392 . S
C688 C661 1.389 . S
C689 C664 1.395 . S
C689 C666 1.391 . S
H690 C650 0.951 . S
H691 C651 0.950 . S
H692 C657 0.949 . S
H693 C658 0.950 . S
H694 C662 0.951 . S
H695 C663 0.950 1_554 S
H696 C667 0.949 . S
H697 C668 0.950 . S
H698 C672 0.950 . S
H699 C674 0.950 . S
H700 C677 0.950 . S
H701 C679 0.950 . S
C702 C703 1.443 . S
C702 N706 1.376 1_556 S
C702 C740 1.389 . S
C703 C702 1.443 . S
C703 C704 1.340 1_556 S
C703 H743 0.951 . S
C704 C703 1.340 1_554 S
C704 C705 1.439 . S
C704 H744 0.950 . S
C705 C704 1.439 . S
C705 N706 1.374 . S
C705 C739 1.395 . S
N706 C702 1.376 1_554 S
N706 C705 1.374 . S
N706 Co707 2.008 . S
Co707 N706 2.008 . S
Co707 N708 1.995 . S
Co707 N713 2.008 . S
Co707 N718 1.988 1_554 S
Co707 N723 2.282 1_554 S
Co707 N729 2.282 . S
N708 Co707 1.995 . S
N708 C709 1.376 . S
N708 C712 1.383 . S
C709 N708 1.376 . S
C709 C710 1.446 . S
C709 C739 1.391 . S
C710 C709 1.446 . S
C710 C711 1.339 . S
C710 H745 0.949 . S
C711 C710 1.339 . S
C711 C712 1.439 . S
C711 H746 0.950 . S
C712 N708 1.383 . S
C712 C711 1.439 . S
C712 C741 1.392 . S
N713 Co707 2.008 . S
N713 C714 1.376 . S
N713 C717 1.374 . S
C714 N713 1.376 . S
C714 C715 1.443 . S
C714 C741 1.389 . S
C715 C714 1.443 . S
C715 C716 1.340 . S
C715 H747 0.951 . S
C716 C715 1.340 . S
C716 C717 1.439 . S
C716 H748 0.950 . S
C717 N713 1.374 . S
C717 C716 1.439 . S
C717 C742 1.395 . S
N718 Co707 1.988 1_556 S
N718 C719 1.376 . S
N718 C722 1.390 . S
C719 N718 1.376 . S
C719 C720 1.446 . S
C719 C742 1.391 1_556 S
C720 C719 1.446 . S
C720 C721 1.339 . S
C720 H749 0.949 . S
C721 C720 1.339 . S
C721 C722 1.439 . S
C721 H750 0.950 . S
C722 N718 1.390 . S
C722 C721 1.439 . S
C722 C740 1.392 . S
N723 Co707 2.282 1_556 S
N723 C726 1.332 . S
N723 C728 1.332 . S
C724 C725 1.386 . S
C724 C727 1.388 . S
C725 C724 1.386 . S
C725 C726 1.382 . S
C725 H751 0.950 . S
C726 N723 1.332 . S
C726 C725 1.382 . S
C726 H737 0.952 . S
C727 C724 1.388 . S
C727 C728 1.382 . S
C727 H752 0.950 . S
C728 N723 1.332 . S
C728 C727 1.382 . S
C728 H738 0.958 . S
N729 Co707 2.282 . S
N729 C733 1.332 . S
N729 C734 1.332 . S
C730 C731 1.388 . S
C730 C734 1.382 . S
C730 H753 0.950 . S
C731 C730 1.388 . S
C731 C732 1.386 . S
C732 C731 1.386 . S
C732 C733 1.382 . S
C732 H754 0.950 . S
C733 N729 1.332 . S
C733 C732 1.382 . S
C733 H735 0.952 . S
C734 N729 1.332 . S
C734 C730 1.382 . S
C734 H736 0.948 . S
H735 C733 0.952 . S
H736 C734 0.948 . S
H737 C726 0.952 . S
H738 C728 0.958 . S
C739 C705 1.395 . S
C739 C709 1.391 . S
C740 C702 1.389 . S
C740 C722 1.392 . S
C741 C712 1.392 . S
C741 C714 1.389 . S
C742 C717 1.395 . S
C742 C719 1.391 1_554 S
H743 C703 0.951 . S
H744 C704 0.950 . S
H745 C710 0.949 . S
H746 C711 0.950 . S
H747 C715 0.951 . S
H748 C716 0.950 . S
H749 C720 0.949 . S
H750 C721 0.950 . S
H751 C725 0.950 . S
H752 C727 0.950 . S
H753 C730 0.950 . S
H754 C732 0.950 . S
C755 C756 1.443 . S
C755 N759 1.376 . S
C755 C793 1.389 . S
C756 C755 1.443 . S
C756 C757 1.340 . S
C756 H796 0.951 . S
C757 C756 1.340 . S
C757 C758 1.439 . S
C757 H797 0.950 . S
C758 C757 1.439 . S
C758 N759 1.374 . S
C758 C792 1.395 1_554 S
N759 C755 1.376 . S
N759 C758 1.374 . S
N759 Co760 2.008 . S
Co760 N759 2.008 . S
Co760 N761 1.995 1_554 S
Co760 N766 2.008 1_554 S
Co760 N771 1.995 . S
Co760 N776 2.282 . S
Co760 N782 2.282 1_554 S
N761 Co760 1.995 1_556 S
N761 C762 1.376 . S
N761 C765 1.383 . S
C762 N761 1.376 . S
C762 C763 1.446 . S
C762 C792 1.391 . S
C763 C762 1.446 . S
C763 C764 1.339 . S
C763 H798 0.949 . S
C764 C763 1.339 . S
C764 C765 1.439 . S
C764 H799 0.950 . S
C765 N761 1.383 . S
C765 C764 1.439 . S
C765 C794 1.392 . S
N766 Co760 2.008 1_556 S
N766 C767 1.376 . S
N766 C770 1.374 1_556 S
C767 N766 1.376 . S
C767 C768 1.443 . S
C767 C794 1.389 . S
C768 C767 1.443 . S
C768 C769 1.340 . S
C768 H800 0.951 . S
C769 C768 1.340 . S
C769 C770 1.439 1_556 S
C769 H801 0.950 . S
C770 N766 1.374 1_554 S
C770 C769 1.439 1_554 S
C770 C795 1.395 . S
N771 Co760 1.995 . S
N771 C772 1.376 . S
N771 C775 1.383 . S
C772 N771 1.376 . S
C772 C773 1.446 . S
C772 C795 1.391 . S
C773 C772 1.446 . S
C773 C774 1.339 . S
C773 H802 0.949 . S
C774 C773 1.339 . S
C774 C775 1.439 . S
C774 H803 0.950 . S
C775 N771 1.383 . S
C775 C774 1.439 . S
C775 C793 1.392 . S
N776 Co760 2.282 . S
N776 C779 1.332 . S
N776 C781 1.332 . S
C777 C778 1.386 . S
C777 C780 1.388 . S
C778 C777 1.386 . S
C778 C779 1.382 . S
C778 H804 0.950 . S
C779 N776 1.332 . S
C779 C778 1.382 . S
C779 H790 0.952 . S
C780 C777 1.388 . S
C780 C781 1.382 . S
C780 H805 0.950 . S
C781 N776 1.332 . S
C781 C780 1.382 . S
C781 H791 0.948 . S
N782 Co760 2.282 1_556 S
N782 C786 1.332 . S
N782 C787 1.332 . S
C783 C784 1.388 . S
C783 C787 1.382 . S
C783 H806 0.950 . S
C784 C783 1.388 . S
C784 C785 1.386 . S
C785 C784 1.386 . S
C785 C786 1.382 . S
C785 H807 0.950 . S
C786 N782 1.332 . S
C786 C785 1.382 . S
C786 H788 0.952 . S
C787 N782 1.332 . S
C787 C783 1.382 . S
C787 H789 0.948 . S
H788 C786 0.952 . S
H789 C787 0.948 . S
H790 C779 0.952 . S
H791 C781 0.948 . S
C792 C758 1.395 1_556 S
C792 C762 1.391 . S
C793 C755 1.389 . S
C793 C775 1.392 . S
C794 C765 1.392 . S
C794 C767 1.389 . S
C795 C770 1.395 . S
C795 C772 1.391 . S
H796 C756 0.951 . S
H797 C757 0.950 . S
H798 C763 0.949 . S
H799 C764 0.950 . S
H800 C768 0.951 . S
H801 C769 0.950 . S
H802 C773 0.949 . S
H803 C774 0.950 . S
H804 C778 0.950 . S
H805 C780 0.950 . S
H806 C783 0.950 . S
H807 C785 0.950 . S
C808 C809 1.369 . S
C808 C810 1.419 . S
C808 H812 0.930 . S
C809 C808 1.369 . S
C809 C818 1.429 . S
C810 C808 1.419 . S
C810 C811 1.363 . S
C810 H813 0.929 . S
C811 C810 1.363 . S
C811 C817 1.428 . S
H812 C808 0.930 . S
H813 C810 0.929 . S
S814 N815 1.613 . S
S814 N816 1.610 . S
N815 S814 1.613 . S
N815 C818 1.350 . S
N816 S814 1.610 . S
N816 C817 1.351 . S
C817 C811 1.428 . S
C817 N816 1.351 . S
C817 C818 1.434 . S
C818 C809 1.429 . S
C818 N815 1.350 . S
C818 C817 1.434 . S
C819 C820 1.369 . S
C819 C821 1.419 . S
C819 H823 0.930 . S
C820 C819 1.369 . S
C820 C829 1.429 . S
C821 C819 1.419 . S
C821 C822 1.363 . S
C821 H824 0.929 . S
C822 C821 1.363 . S
C822 C828 1.428 . S
H823 C819 0.930 . S
H824 C821 0.929 . S
S825 N826 1.613 . S
S825 N827 1.610 . S
N826 S825 1.613 . S
N826 C829 1.350 . S
N827 S825 1.610 . S
N827 C828 1.351 . S
C828 C822 1.428 . S
C828 N827 1.351 . S
C828 C829 1.434 . S
C829 C820 1.429 . S
C829 N826 1.350 . S
C829 C828 1.434 . S
C830 C831 1.369 . S
C830 C832 1.419 . S
C830 H834 0.930 . S
C831 C830 1.369 . S
C831 C840 1.429 . S
C832 C830 1.419 . S
C832 C833 1.363 . S
C832 H835 0.929 . S
C833 C832 1.363 . S
C833 C839 1.428 . S
H834 C830 0.930 . S
H835 C832 0.929 . S
S836 N837 1.613 . S
S836 N838 1.610 . S
N837 S836 1.613 . S
N837 C840 1.350 . S
N838 S836 1.610 . S
N838 C839 1.351 . S
C839 C833 1.428 . S
C839 N838 1.351 . S
C839 C840 1.434 . S
C840 C831 1.429 . S
C840 N837 1.350 . S
C840 C839 1.434 . S
C841 C842 1.369 . S
C841 C843 1.419 . S
C841 H845 0.930 . S
C842 C841 1.369 . S
C842 C851 1.429 . S
C843 C841 1.419 . S
C843 C844 1.363 . S
C843 H846 0.929 . S
C844 C843 1.363 . S
C844 C850 1.428 . S
H845 C841 0.930 . S
H846 C843 0.929 . S
S847 N848 1.613 . S
S847 N849 1.610 . S
N848 S847 1.613 . S
N848 C851 1.350 . S
N849 S847 1.610 . S
N849 C850 1.351 . S
C850 C844 1.428 . S
C850 N849 1.351 . S
C850 C851 1.434 . S
C851 C842 1.429 . S
C851 N848 1.350 . S
C851 C850 1.434 . S
C852 C853 1.369 . S
C852 C854 1.419 . S
C852 H856 0.930 . S
C853 C852 1.369 . S
C853 C862 1.429 . S
C854 C852 1.419 . S
C854 C855 1.363 . S
C854 H857 0.929 . S
C855 C854 1.363 . S
C855 C861 1.428 . S
H856 C852 0.930 . S
H857 C854 0.929 . S
S858 N859 1.613 . S
S858 N860 1.610 . S
N859 S858 1.613 . S
N859 C862 1.350 . S
N860 S858 1.610 . S
N860 C861 1.351 . S
C861 C855 1.428 . S
C861 N860 1.351 . S
C861 C862 1.434 . S
C862 C853 1.429 . S
C862 N859 1.350 . S
C862 C861 1.434 . S
C863 C864 1.369 . S
C863 C865 1.419 . S
C863 H867 0.930 . S
C864 C863 1.369 . S
C864 C873 1.429 . S
C865 C863 1.419 . S
C865 C866 1.363 . S
C865 H868 0.929 . S
C866 C865 1.363 . S
C866 C872 1.428 . S
H867 C863 0.930 . S
H868 C865 0.929 . S
S869 N870 1.613 . S
S869 N871 1.610 . S
N870 S869 1.613 . S
N870 C873 1.350 . S
N871 S869 1.610 . S
N871 C872 1.351 . S
C872 C866 1.428 . S
C872 N871 1.351 . S
C872 C873 1.434 . S
C873 C864 1.429 . S
C873 N870 1.350 . S
C873 C872 1.434 . S
C874 C875 1.369 . S
C874 C876 1.419 . S
C874 H878 0.930 . S
C875 C874 1.369 . S
C875 C884 1.429 . S
C876 C874 1.419 . S
C876 C877 1.363 . S
C876 H879 0.929 . S
C877 C876 1.363 . S
C877 C883 1.428 . S
H878 C874 0.930 . S
H879 C876 0.929 . S
S880 N881 1.613 . S
S880 N882 1.610 . S
N881 S880 1.613 . S
N881 C884 1.350 . S
N882 S880 1.610 . S
N882 C883 1.351 . S
C883 C877 1.428 . S
C883 N882 1.351 . S
C883 C884 1.434 . S
C884 C875 1.429 . S
C884 N881 1.350 . S
C884 C883 1.434 . S
C885 C886 1.369 . S
C885 C887 1.419 . S
C885 H889 0.930 . S
C886 C885 1.369 . S
C886 C895 1.429 . S
C887 C885 1.419 . S
C887 C888 1.363 . S
C887 H890 0.929 . S
C888 C887 1.363 . S
C888 C894 1.428 . S
H889 C885 0.930 . S
H890 C887 0.929 . S
S891 N892 1.613 . S
S891 N893 1.610 . S
N892 S891 1.613 . S
N892 C895 1.350 . S
N893 S891 1.610 . S
N893 C894 1.351 . S
C894 C888 1.428 . S
C894 N893 1.351 . S
C894 C895 1.434 . S
C895 C886 1.429 . S
C895 N892 1.350 . S
C895 C894 1.434 . S
C896 C897 1.369 . S
C896 C898 1.419 . S
C896 H900 0.930 . S
C897 C896 1.369 . S
C897 C906 1.429 . S
C898 C896 1.419 . S
C898 C899 1.363 . S
C898 H901 0.929 . S
C899 C898 1.363 . S
C899 C905 1.428 . S
H900 C896 0.930 . S
H901 C898 0.929 . S
S902 N903 1.613 . S
S902 N904 1.610 . S
N903 S902 1.613 . S
N903 C906 1.350 . S
N904 S902 1.610 . S
N904 C905 1.351 . S
C905 C899 1.428 . S
C905 N904 1.351 . S
C905 C906 1.434 . S
C906 C897 1.429 . S
C906 N903 1.350 . S
C906 C905 1.434 . S
C907 C908 1.369 . S
C907 C909 1.419 . S
C907 H911 0.930 . S
C908 C907 1.369 . S
C908 C917 1.429 . S
C909 C907 1.419 . S
C909 C910 1.363 . S
C909 H912 0.929 . S
C910 C909 1.363 . S
C910 C916 1.428 . S
H911 C907 0.930 . S
H912 C909 0.929 . S
S913 N914 1.613 . S
S913 N915 1.610 . S
N914 S913 1.613 . S
N914 C917 1.350 . S
N915 S913 1.610 . S
N915 C916 1.351 . S
C916 C910 1.428 . S
C916 N915 1.351 . S
C916 C917 1.434 . S
C917 C908 1.429 . S
C917 N914 1.350 . S
C917 C916 1.434 . S
C918 C919 1.369 . S
C918 C920 1.419 . S
C918 H922 0.930 . S
C919 C918 1.369 . S
C919 C928 1.429 . S
C920 C918 1.419 . S
C920 C921 1.363 . S
C920 H923 0.929 . S
C921 C920 1.363 . S
C921 C927 1.428 . S
H922 C918 0.930 . S
H923 C920 0.929 . S
S924 N925 1.613 . S
S924 N926 1.610 . S
N925 S924 1.613 . S
N925 C928 1.350 . S
N926 S924 1.610 . S
N926 C927 1.351 . S
C927 C921 1.428 . S
C927 N926 1.351 . S
C927 C928 1.434 . S
C928 C919 1.429 . S
C928 N925 1.350 . S
C928 C927 1.434 . S
C929 C930 1.369 . S
C929 C931 1.419 . S
C929 H933 0.930 . S
C930 C929 1.369 . S
C930 C939 1.429 . S
C931 C929 1.419 . S
C931 C932 1.363 . S
C931 H934 0.929 . S
C932 C931 1.363 . S
C932 C938 1.428 . S
H933 C929 0.930 . S
H934 C931 0.929 . S
S935 N936 1.613 . S
S935 N937 1.610 . S
N936 S935 1.613 . S
N936 C939 1.350 . S
N937 S935 1.610 . S
N937 C938 1.351 . S
C938 C932 1.428 . S
C938 N937 1.351 . S
C938 C939 1.434 . S
C939 C930 1.429 . S
C939 N936 1.350 . S
C939 C938 1.434 . S
C940 C941 1.369 . S
C940 C942 1.419 . S
C940 H944 0.930 . S
C941 C940 1.369 . S
C941 C950 1.429 . S
C942 C940 1.419 . S
C942 C943 1.363 . S
C942 H945 0.929 . S
C943 C942 1.363 . S
C943 C949 1.428 . S
H944 C940 0.930 . S
H945 C942 0.929 . S
S946 N947 1.613 . S
S946 N948 1.610 . S
N947 S946 1.613 . S
N947 C950 1.350 . S
N948 S946 1.610 . S
N948 C949 1.351 . S
C949 C943 1.428 . S
C949 N948 1.351 . S
C949 C950 1.434 . S
C950 C941 1.429 . S
C950 N947 1.350 . S
C950 C949 1.434 . S
C951 C952 1.369 . S
C951 C953 1.419 . S
C951 H955 0.930 . S
C952 C951 1.369 . S
C952 C961 1.429 . S
C953 C951 1.419 . S
C953 C954 1.363 . S
C953 H956 0.929 . S
C954 C953 1.363 . S
C954 C960 1.428 . S
H955 C951 0.930 . S
H956 C953 0.929 . S
S957 N958 1.613 . S
S957 N959 1.610 . S
N958 S957 1.613 . S
N958 C961 1.350 . S
N959 S957 1.610 . S
N959 C960 1.351 . S
C960 C954 1.428 . S
C960 N959 1.351 . S
C960 C961 1.434 . S
C961 C952 1.429 . S
C961 N958 1.350 . S
C961 C960 1.434 . S
C962 C963 1.369 . S
C962 C964 1.419 . S
C962 H966 0.930 . S
C963 C962 1.369 . S
C963 C972 1.429 . S
C964 C962 1.419 . S
C964 C965 1.363 . S
C964 H967 0.929 . S
C965 C964 1.363 . S
C965 C971 1.428 . S
H966 C962 0.930 . S
H967 C964 0.929 . S
S968 N969 1.613 . S
S968 N970 1.610 . S
N969 S968 1.613 . S
N969 C972 1.350 . S
N970 S968 1.610 . S
N970 C971 1.351 . S
C971 C965 1.428 . S
C971 N970 1.351 . S
C971 C972 1.434 . S
C972 C963 1.429 . S
C972 N969 1.350 . S
C972 C971 1.434 . S
C973 C974 1.369 . S
C973 C975 1.419 . S
C973 H977 0.930 . S
C974 C973 1.369 . S
C974 C983 1.429 . S
C975 C973 1.419 . S
C975 C976 1.363 . S
C975 H978 0.929 . S
C976 C975 1.363 . S
C976 C982 1.428 . S
H977 C973 0.930 . S
H978 C975 0.929 . S
S979 N980 1.613 . S
S979 N981 1.610 . S
N980 S979 1.613 . S
N980 C983 1.350 . S
N981 S979 1.610 . S
N981 C982 1.351 . S
C982 C976 1.428 . S
C982 N981 1.351 . S
C982 C983 1.434 . S
C983 C974 1.429 . S
C983 N980 1.350 . S
C983 C982 1.434 . S
C984 C985 1.369 . S
C984 C986 1.419 . S
C984 H988 0.930 . S
C985 C984 1.369 . S
C985 C994 1.429 . S
C986 C984 1.419 . S
C986 C987 1.363 . S
C986 H989 0.929 . S
C987 C986 1.363 . S
C987 C993 1.428 . S
H988 C984 0.930 . S
H989 C986 0.929 . S
S990 N991 1.613 . S
S990 N992 1.610 . S
N991 S990 1.613 . S
N991 C994 1.350 . S
N992 S990 1.610 . S
N992 C993 1.351 . S
C993 C987 1.428 . S
C993 N992 1.351 . S
C993 C994 1.434 . S
C994 C985 1.429 . S
C994 N991 1.350 . S
C994 C993 1.434 . S
C995 C996 1.369 . S
C995 C997 1.419 . S
C995 H999 0.930 . S
C996 C995 1.369 . S
C996 C1005 1.429 . S
C997 C995 1.419 . S
C997 C998 1.363 . S
C997 H1000 0.929 . S
C998 C997 1.363 . S
C998 C1004 1.428 . S
H999 C995 0.930 . S
H1000 C997 0.929 . S
S1001 N1002 1.613 . S
S1001 N1003 1.610 . S
N1002 S1001 1.613 . S
N1002 C1005 1.350 . S
N1003 S1001 1.610 . S
N1003 C1004 1.351 . S
C1004 C998 1.428 . S
C1004 N1003 1.351 . S
C1004 C1005 1.434 . S
C1005 C996 1.429 . S
C1005 N1002 1.350 . S
C1005 C1004 1.434 . S
C1006 C1007 1.369 . S
C1006 C1008 1.419 . S
C1006 H1010 0.930 . S
C1007 C1006 1.369 . S
C1007 C1016 1.429 . S
C1008 C1006 1.419 . S
C1008 C1009 1.363 . S
C1008 H1011 0.929 . S
C1009 C1008 1.363 . S
C1009 C1015 1.428 . S
H1010 C1006 0.930 . S
H1011 C1008 0.929 . S
S1012 N1013 1.613 . S
S1012 N1014 1.610 . S
N1013 S1012 1.613 . S
N1013 C1016 1.350 . S
N1014 S1012 1.610 . S
N1014 C1015 1.351 . S
C1015 C1009 1.428 . S
C1015 N1014 1.351 . S
C1015 C1016 1.434 . S
C1016 C1007 1.429 . S
C1016 N1013 1.350 . S
C1016 C1015 1.434 . S
C1017 C1018 1.369 . S
C1017 C1019 1.419 . S
C1017 H1021 0.930 . S
C1018 C1017 1.369 . S
C1018 C1027 1.429 . S
C1019 C1017 1.419 . S
C1019 C1020 1.363 . S
C1019 H1022 0.929 . S
C1020 C1019 1.363 . S
C1020 C1026 1.428 . S
H1021 C1017 0.930 . S
H1022 C1019 0.929 . S
S1023 N1024 1.613 . S
S1023 N1025 1.610 . S
N1024 S1023 1.613 . S
N1024 C1027 1.350 . S
N1025 S1023 1.610 . S
N1025 C1026 1.351 . S
C1026 C1020 1.428 . S
C1026 N1025 1.351 . S
C1026 C1027 1.434 . S
C1027 C1018 1.429 . S
C1027 N1024 1.350 . S
C1027 C1026 1.434 . S
C1028 C1029 1.369 . S
C1028 C1030 1.419 . S
C1028 H1032 0.930 . S
C1029 C1028 1.369 . S
C1029 C1038 1.429 . S
C1030 C1028 1.419 . S
C1030 C1031 1.363 . S
C1030 H1033 0.929 . S
C1031 C1030 1.363 . S
C1031 C1037 1.428 . S
H1032 C1028 0.930 . S
H1033 C1030 0.929 . S
S1034 N1035 1.613 . S
S1034 N1036 1.610 . S
N1035 S1034 1.613 . S
N1035 C1038 1.350 . S
N1036 S1034 1.610 . S
N1036 C1037 1.351 . S
C1037 C1031 1.428 . S
C1037 N1036 1.351 . S
C1037 C1038 1.434 . S
C1038 C1029 1.429 . S
C1038 N1035 1.350 . S
C1038 C1037 1.434 . S
C1039 C1040 1.369 . S
C1039 C1041 1.419 . S
C1039 H1043 0.930 . S
C1040 C1039 1.369 . S
C1040 C1049 1.429 . S
C1041 C1039 1.419 . S
C1041 C1042 1.363 . S
C1041 H1044 0.929 . S
C1042 C1041 1.363 . S
C1042 C1048 1.428 . S
H1043 C1039 0.930 . S
H1044 C1041 0.929 . S
S1045 N1046 1.613 . S
S1045 N1047 1.610 . S
N1046 S1045 1.613 . S
N1046 C1049 1.350 . S
N1047 S1045 1.610 . S
N1047 C1048 1.351 . S
C1048 C1042 1.428 . S
C1048 N1047 1.351 . S
C1048 C1049 1.434 . S
C1049 C1040 1.429 . S
C1049 N1046 1.350 . S
C1049 C1048 1.434 . S
C1050 C1051 1.369 . S
C1050 C1052 1.419 . S
C1050 H1054 0.930 . S
C1051 C1050 1.369 . S
C1051 C1060 1.429 . S
C1052 C1050 1.419 . S
C1052 C1053 1.363 . S
C1052 H1055 0.929 . S
C1053 C1052 1.363 . S
C1053 C1059 1.428 . S
H1054 C1050 0.930 . S
H1055 C1052 0.929 . S
S1056 N1057 1.613 . S
S1056 N1058 1.610 . S
N1057 S1056 1.613 . S
N1057 C1060 1.350 . S
N1058 S1056 1.610 . S
N1058 C1059 1.351 . S
C1059 C1053 1.428 . S
C1059 N1058 1.351 . S
C1059 C1060 1.434 . S
C1060 C1051 1.429 . S
C1060 N1057 1.350 . S
C1060 C1059 1.434 . S
C1061 C1062 1.369 . S
C1061 C1063 1.419 . S
C1061 H1065 0.930 . S
C1062 C1061 1.369 . S
C1062 C1071 1.429 . S
C1063 C1061 1.419 . S
C1063 C1064 1.363 . S
C1063 H1066 0.929 . S
C1064 C1063 1.363 . S
C1064 C1070 1.428 . S
H1065 C1061 0.930 . S
H1066 C1063 0.929 . S
S1067 N1068 1.613 . S
S1067 N1069 1.610 . S
N1068 S1067 1.613 . S
N1068 C1071 1.350 . S
N1069 S1067 1.610 . S
N1069 C1070 1.351 . S
C1070 C1064 1.428 . S
C1070 N1069 1.351 . S
C1070 C1071 1.434 . S
C1071 C1062 1.429 . S
C1071 N1068 1.350 . S
C1071 C1070 1.434 . S
C1072 C1073 1.369 . S
C1072 C1074 1.419 . S
C1072 H1076 0.930 . S
C1073 C1072 1.369 . S
C1073 C1082 1.429 . S
C1074 C1072 1.419 . S
C1074 C1075 1.363 . S
C1074 H1077 0.929 . S
C1075 C1074 1.363 . S
C1075 C1081 1.428 . S
H1076 C1072 0.930 . S
H1077 C1074 0.929 . S
S1078 N1079 1.613 . S
S1078 N1080 1.610 . S
N1079 S1078 1.613 . S
N1079 C1082 1.350 . S
N1080 S1078 1.610 . S
N1080 C1081 1.351 . S
C1081 C1075 1.428 . S
C1081 N1080 1.351 . S
C1081 C1082 1.434 . S
C1082 C1073 1.429 . S
C1082 N1079 1.350 . S
C1082 C1081 1.434 . S
C1083 C1084 1.369 . S
C1083 C1085 1.419 . S
C1083 H1087 0.930 . S
C1084 C1083 1.369 . S
C1084 C1093 1.429 . S
C1085 C1083 1.419 . S
C1085 C1086 1.363 . S
C1085 H1088 0.929 . S
C1086 C1085 1.363 . S
C1086 C1092 1.428 . S
H1087 C1083 0.930 . S
H1088 C1085 0.929 . S
S1089 N1090 1.613 . S
S1089 N1091 1.610 . S
N1090 S1089 1.613 . S
N1090 C1093 1.350 . S
N1091 S1089 1.610 . S
N1091 C1092 1.351 . S
C1092 C1086 1.428 . S
C1092 N1091 1.351 . S
C1092 C1093 1.434 . S
C1093 C1084 1.429 . S
C1093 N1090 1.350 . S
C1093 C1092 1.434 . S
C1094 C1095 1.369 . S
C1094 C1096 1.419 . S
C1094 H1098 0.930 . S
C1095 C1094 1.369 . S
C1095 C1104 1.429 . S
C1096 C1094 1.419 . S
C1096 C1097 1.363 . S
C1096 H1099 0.929 . S
C1097 C1096 1.363 . S
C1097 C1103 1.428 . S
H1098 C1094 0.930 . S
H1099 C1096 0.929 . S
S1100 N1101 1.613 . S
S1100 N1102 1.610 . S
N1101 S1100 1.613 . S
N1101 C1104 1.350 . S
N1102 S1100 1.610 . S
N1102 C1103 1.351 . S
C1103 C1097 1.428 . S
C1103 N1102 1.351 . S
C1103 C1104 1.434 . S
C1104 C1095 1.429 . S
C1104 N1101 1.350 . S
C1104 C1103 1.434 . S
C1105 C1106 1.369 . S
C1105 C1107 1.419 . S
C1105 H1109 0.930 . S
C1106 C1105 1.369 . S
C1106 C1115 1.429 . S
C1107 C1105 1.419 . S
C1107 C1108 1.363 . S
C1107 H1110 0.929 . S
C1108 C1107 1.363 . S
C1108 C1114 1.428 . S
H1109 C1105 0.930 . S
H1110 C1107 0.929 . S
S1111 N1112 1.613 . S
S1111 N1113 1.610 . S
N1112 S1111 1.613 . S
N1112 C1115 1.350 . S
N1113 S1111 1.610 . S
N1113 C1114 1.351 . S
C1114 C1108 1.428 . S
C1114 N1113 1.351 . S
C1114 C1115 1.434 . S
C1115 C1106 1.429 . S
C1115 N1112 1.350 . S
C1115 C1114 1.434 . S
C1116 C1117 1.369 . S
C1116 C1118 1.419 . S
C1116 H1120 0.930 . S
C1117 C1116 1.369 . S
C1117 C1126 1.429 . S
C1118 C1116 1.419 . S
C1118 C1119 1.363 . S
C1118 H1121 0.929 . S
C1119 C1118 1.363 . S
C1119 C1125 1.428 . S
H1120 C1116 0.930 . S
H1121 C1118 0.929 . S
S1122 N1123 1.613 . S
S1122 N1124 1.610 . S
N1123 S1122 1.613 . S
N1123 C1126 1.350 . S
N1124 S1122 1.610 . S
N1124 C1125 1.351 . S
C1125 C1119 1.428 . S
C1125 N1124 1.351 . S
C1125 C1126 1.434 . S
C1126 C1117 1.429 . S
C1126 N1123 1.350 . S
C1126 C1125 1.434 . S
C1127 C1128 1.369 . S
C1127 C1129 1.419 . S
C1127 H1131 0.930 . S
C1128 C1127 1.369 . S
C1128 C1137 1.429 . S
C1129 C1127 1.419 . S
C1129 C1130 1.363 . S
C1129 H1132 0.929 . S
C1130 C1129 1.363 . S
C1130 C1136 1.428 . S
H1131 C1127 0.930 . S
H1132 C1129 0.929 . S
S1133 N1134 1.613 . S
S1133 N1135 1.610 . S
N1134 S1133 1.613 . S
N1134 C1137 1.350 . S
N1135 S1133 1.610 . S
N1135 C1136 1.351 . S
C1136 C1130 1.428 . S
C1136 N1135 1.351 . S
C1136 C1137 1.434 . S
C1137 C1128 1.429 . S
C1137 N1134 1.350 . S
C1137 C1136 1.434 . S
C1138 C1139 1.369 . S
C1138 C1140 1.419 . S
C1138 H1142 0.930 . S
C1139 C1138 1.369 . S
C1139 C1148 1.429 . S
C1140 C1138 1.419 . S
C1140 C1141 1.363 . S
C1140 H1143 0.929 . S
C1141 C1140 1.363 . S
C1141 C1147 1.428 . S
H1142 C1138 0.930 . S
H1143 C1140 0.929 . S
S1144 N1145 1.613 . S
S1144 N1146 1.610 . S
N1145 S1144 1.613 . S
N1145 C1148 1.350 . S
N1146 S1144 1.610 . S
N1146 C1147 1.351 . S
C1147 C1141 1.428 . S
C1147 N1146 1.351 . S
C1147 C1148 1.434 . S
C1148 C1139 1.429 . S
C1148 N1145 1.350 . S
C1148 C1147 1.434 . S
C1149 C1150 1.369 . S
C1149 C1151 1.419 . S
C1149 H1153 0.930 . S
C1150 C1149 1.369 . S
C1150 C1159 1.429 . S
C1151 C1149 1.419 . S
C1151 C1152 1.363 . S
C1151 H1154 0.929 . S
C1152 C1151 1.363 . S
C1152 C1158 1.428 . S
H1153 C1149 0.930 . S
H1154 C1151 0.929 . S
S1155 N1156 1.613 . S
S1155 N1157 1.610 . S
N1156 S1155 1.613 . S
N1156 C1159 1.350 . S
N1157 S1155 1.610 . S
N1157 C1158 1.351 . S
C1158 C1152 1.428 . S
C1158 N1157 1.351 . S
C1158 C1159 1.434 . S
C1159 C1150 1.429 . S
C1159 N1156 1.350 . S
C1159 C1158 1.434 . S
C811 C413 1.461 . S
C809 C36 1.461 . S
C822 C466 1.287 . S
C820 C93 1.284 . S
C833 C529 1.537 . S
C831 C132 1.537 . S
C844 C572 1.265 . S
C842 C174 1.266 . S
C853 C213 1.530 . S
C855 C528 1.532 . S
C866 C565 1.322 . S
C864 C285 1.313 . S
C877 C406 1.466 . S
C875 C324 1.465 . S
C888 C459 1.225 . S
C886 C366 1.222 . S
C899 C512 1.491 . S
C897 C357 1.481 . S
C910 C581 1.804 . S
C908 C222 1.807 . S
C921 C422 1.557 . S
C919 C276 1.558 . S
C932 C475 1.726 . S
C930 C333 1.720 . S
C943 C423 1.549 . S
C941 C84 1.547 . S
C954 C476 1.791 . S
C952 C141 1.785 . S
C965 C519 1.498 . S
C963 C165 1.494 . S
C976 C582 1.747 . S
C974 C45 1.734 . S
C987 C625 1.435 . S
C985 C372 1.435 . S
C996 C237 1.663 . S
C998 C678 1.672 . S
C1007 C261 1.560 . S
C1009 C740 1.563 . S
C1018 C318 1.663 . S
C1020 C794 1.668 . S
C1029 C69 1.494 . S
C1031 C741 1.497 . S
C1040 C126 1.730 . S
C1042 C793 1.737 . S
C1051 C180 1.490 . S
C1053 C618 1.490 . S
C1064 C671 1.616 . S
C1062 C30 1.617 . S
C1075 C731 1.462 . S
C1073 C21 1.455 . S
C1084 C78 1.350 . S
C1086 C777 1.347 . S
C1095 C117 1.577 . S
C1097 C634 1.581 . S
C1106 C189 1.329 . S
C1108 C687 1.339 . S
C1119 C635 1.515 . S
C1117 C228 1.511 . S
C1130 C688 1.404 . S
C1128 C270 1.406 . S
C1139 C309 1.511 . S
C1141 C724 1.516 . S
C1152 C784 1.294 . S
C1150 C381 1.286 . S
