# Generated by pormake.
# Topology anh, (6,3)-cn, num edge types: 1
# Building blocks:
#     Node 0, Type 0, BuildingBlock: BETDEL_clean_sbu_0, # of connection points: 6
#     Node 1, Type 0, BuildingBlock: BETDEL_clean_sbu_0, # of connection points: 6
#     Node 2, Type 0, BuildingBlock: BETDEL_clean_sbu_0, # of connection points: 6
#     Node 3, Type 1, BuildingBlock: BETDAH_clean_linker_0, # of connection points: 3
#     Node 4, Type 1, BuildingBlock: BETDAH_clean_linker_0, # of connection points: 3
#     Node 5, Type 1, BuildingBlock: BETDAH_clean_linker_0, # of connection points: 3
#     Node 6, Type 1, BuildingBlock: BETDAH_clean_linker_0, # of connection points: 3
#     Node 7, Type 1, BuildingBlock: BETDAH_clean_linker_0, # of connection points: 3
#     Node 8, Type 1, BuildingBlock: BETDAH_clean_linker_0, # of connection points: 3
#     Edge 9, Type (0, 1), BuildingBlock: MIFKUJ_clean_linker_0, # of connection points: 2
#     Edge 10, Type (0, 1), BuildingBlock: MIFKUJ_clean_linker_0, # of connection points: 2
#     Edge 11, Type (0, 1), BuildingBlock: MIFKUJ_clean_linker_0, # of connection points: 2
#     Edge 12, Type (0, 1), BuildingBlock: MIFKUJ_clean_linker_0, # of connection points: 2
#     Edge 13, Type (0, 1), BuildingBlock: MIFKUJ_clean_linker_0, # of connection points: 2
#     Edge 14, Type (0, 1), BuildingBlock: MIFKUJ_clean_linker_0, # of connection points: 2
#     Edge 15, Type (0, 1), BuildingBlock: MIFKUJ_clean_linker_0, # of connection points: 2
#     Edge 16, Type (0, 1), BuildingBlock: MIFKUJ_clean_linker_0, # of connection points: 2
#     Edge 17, Type (0, 1), BuildingBlock: MIFKUJ_clean_linker_0, # of connection points: 2
#     Edge 18, Type (0, 1), BuildingBlock: MIFKUJ_clean_linker_0, # of connection points: 2
#     Edge 19, Type (0, 1), BuildingBlock: MIFKUJ_clean_linker_0, # of connection points: 2
#     Edge 20, Type (0, 1), BuildingBlock: MIFKUJ_clean_linker_0, # of connection points: 2
#     Edge 21, Type (0, 1), BuildingBlock: MIFKUJ_clean_linker_0, # of connection points: 2
#     Edge 22, Type (0, 1), BuildingBlock: MIFKUJ_clean_linker_0, # of connection points: 2
#     Edge 23, Type (0, 1), BuildingBlock: MIFKUJ_clean_linker_0, # of connection points: 2
#     Edge 24, Type (0, 1), BuildingBlock: MIFKUJ_clean_linker_0, # of connection points: 2
#     Edge 25, Type (0, 1), BuildingBlock: MIFKUJ_clean_linker_0, # of connection points: 2
#     Edge 26, Type (0, 1), BuildingBlock: MIFKUJ_clean_linker_0, # of connection points: 2
# Relax obj value: 0.088
# Max RMSD: 0.133
# Mean RMSD: 0.101
data_MOF--net-anh--node1-BETDEL_clean_sbu_0--node2-BETDAH_clean_linker_0--edge1-MIFKUJ_clean_linker_0
_symmetry_space_group_name_H-M    P1
_symmetry_Int_Tables_number       1
_symmetry_cell_setting            triclinic
loop_
_symmetry_equiv_pos_as_xyz
'x, y, z'
_cell_length_a     39.170648
_cell_length_b     39.212723
_cell_length_c     62.395085
_cell_angle_alpha  91.840486
_cell_angle_beta   92.170508
_cell_angle_gamma 120.29153
loop_
_atom_site_label
_atom_site_type_symbol
_atom_site_fract_x
_atom_site_fract_y
_atom_site_fract_z
_atom_type_partial_charge
Dy0 Dy 0.07013 0.4992 0.1646 0.0
C1 C 0.96914 0.56299 0.18819 0.0
C2 C 0.12426 0.47863 0.1538 0.0
Dy3 Dy 0.01791 0.54024 0.17096 0.0
O4 O 0.12708 0.49993 0.17089 0.0
O5 O 0.09146 0.46811 0.1425 0.0
O6 O 0.05409 0.47495 0.19719 0.0
O7 O 0.05757 0.52877 0.19064 0.0
C8 C 0.04803 0.50291 0.20421 0.0
C9 C 0.02415 0.52699 0.12884 0.0
O10 O 0.07911 0.5929 0.17638 0.0
O11 O 0.11279 0.56429 0.16074 0.0
O12 O 0.99256 0.58028 0.17287 0.0
O13 O 0.97349 0.53407 0.19455 0.0
O14 O 1.0049 0.5438 0.13561 0.0
O15 O 0.03781 0.51866 0.14504 0.0
O16 O 1.00914 0.44588 0.15899 0.0
O17 O 0.97411 0.47519 0.17202 0.0
C18 C 0.11158 0.59561 0.1687 0.0
C19 C 0.97601 0.44369 0.16527 0.0
Dy20 Dy 0.50938 0.01788 0.49892 0.0
C21 C 0.67567 0.11586 0.52962 0.0
C22 C 0.43469 0.96773 0.48153 0.0
Dy23 Dy 0.60292 0.0673 0.50973 0.0
O24 O 0.44332 0.98559 0.5005 0.0
O25 O 0.46695 0.97775 0.47185 0.0
O26 O 0.50032 0.03206 0.5327 0.0
O27 O 0.55046 0.02819 0.5262 0.0
C28 C 0.53402 0.03727 0.54041 0.0
C29 C 0.58491 0.06536 0.46728 0.0
O30 O 0.59199 1.00521 0.51182 0.0
O31 O 0.52524 0.96969 0.49918 0.0
O32 O 0.66802 0.08934 0.5142 0.0
O33 O 0.643 0.11416 0.53478 0.0
O34 O 0.62098 0.08349 0.47566 0.0
O35 O 0.56222 0.05012 0.48213 0.0
O36 O 0.52232 0.07999 0.49453 0.0
O37 O 0.58258 0.1113 0.51483 0.0
C38 C 0.55897 0.97132 0.50561 0.0
C39 C 0.55194 0.11179 0.50522 0.0
Dy40 Dy 0.58383 0.57299 0.83805 0.0
C41 C 0.5202 0.41205 0.8581 0.0
C42 C 0.60768 0.64548 0.82281 0.0
Dy43 Dy 0.54085 0.48486 0.84409 0.0
O44 O 0.62638 0.63847 0.83805 0.0
O45 O 0.57604 0.61291 0.81583 0.0
O46 O 0.6104 0.58689 0.872 0.0
O47 O 0.5549 0.53641 0.86469 0.0
C48 C 0.58239 0.55439 0.87906 0.0
C49 C 0.54257 0.50392 0.80301 0.0
O50 O 0.49143 0.49558 0.85157 0.0
O51 O 0.51951 0.55736 0.8374 0.0
O52 O 0.50285 0.41849 0.84189 0.0
O53 O 0.54812 0.44553 0.86693 0.0
O54 O 0.5142 0.47187 0.81023 0.0
O55 O 0.57022 0.52161 0.81736 0.0
O56 O 0.63354 0.56167 0.8317 0.0
O57 O 0.60484 0.50102 0.8469 0.0
C58 C 0.48871 0.52603 0.84498 0.0
C59 C 0.63603 0.53183 0.83947 0.0
H60 H 0.46899 0.95823 0.24067 0.0
H61 H 0.58137 0.05936 0.22835 0.0
H62 H 0.50363 0.98156 0.17588 0.0
C63 C 0.49079 0.97594 0.22952 0.0
C64 C 0.48235 0.96485 0.2075 0.0
C65 C 0.52655 0.00946 0.23738 0.0
C66 C 0.55359 0.03362 0.22258 0.0
C67 C 0.54508 0.02394 0.20031 0.0
C68 C 0.50955 0.98949 0.19297 0.0
N69 N 0.57164 0.04749 0.18481 0.0
C70 C 0.60809 0.08225 0.18915 0.0
H71 H 0.5617 0.4704 0.57755 0.0
H72 H 0.56121 0.57776 0.56552 0.0
H73 H 0.55086 0.49887 0.51276 0.0
C74 C 0.56104 0.49073 0.56642 0.0
C75 C 0.55733 0.48084 0.5443 0.0
C76 C 0.56276 0.52563 0.57439 0.0
C77 C 0.55961 0.55066 0.55968 0.0
C78 C 0.55496 0.54093 0.5374 0.0
C79 C 0.55383 0.50601 0.5299 0.0
N80 N 0.55174 0.56545 0.52198 0.0
C81 C 0.55176 0.60072 0.52627 0.0
H82 H 0.98117 0.51658 0.90404 0.0
H83 H 0.09432 0.52732 0.89422 0.0
H84 H 0.02364 0.53075 0.84064 0.0
C85 C 1.0039 0.52022 0.89341 0.0
C86 C 0.99816 0.52355 0.87143 0.0
C87 C 0.03864 0.5221 0.90192 0.0
C88 C 0.06747 0.52583 0.88785 0.0
C89 C 0.06205 0.52875 0.86566 0.0
C90 C 0.02766 0.52821 0.85767 0.0
N91 N 0.09049 0.53256 0.8509 0.0
C92 C 0.12506 0.53175 0.85604 0.0
H93 H 0.06937 0.59426 0.41217 0.0
H94 H 0.9647 0.50563 0.44006 0.0
H95 H 0.05249 0.60705 0.47907 0.0
C96 C 0.05187 0.58339 0.42605 0.0
C97 C 0.06566 0.60513 0.44587 0.0
C98 C 0.01545 0.54777 0.42385 0.0
C99 C 0.99286 0.5331 0.44179 0.0
C100 C 1.00676 0.55441 0.46187 0.0
C101 C 0.04262 0.59046 0.46366 0.0
N102 N 0.9853 0.54098 0.48055 0.0
C103 C 0.95804 0.50163 0.48345 0.0
H104 H 0.60102 0.13345 0.76845 0.0
H105 H 0.6446 0.05252 0.77254 0.0
H106 H 0.63432 0.10954 0.83005 0.0
C107 C 0.61214 0.11803 0.77796 0.0
C108 C 0.61622 0.12423 0.80037 0.0
C109 C 0.62207 0.09204 0.76776 0.0
C110 C 0.63683 0.07257 0.7803 0.0
C111 C 0.64127 0.07894 0.80285 0.0
C112 C 0.63089 0.1047 0.8127 0.0
N113 N 0.65623 0.06019 0.81615 0.0
C114 C 0.65764 0.02681 0.80961 0.0
H115 H 0.61086 0.49919 0.106 0.0
H116 H 0.48354 0.43347 0.10301 0.0
H117 H 0.54918 0.43085 0.15892 0.0
C118 C 0.5835 0.47988 0.11334 0.0
C119 C 0.58485 0.46728 0.13407 0.0
C120 C 0.54716 0.4673 0.10181 0.0
C121 C 0.51174 0.44291 0.11159 0.0
C122 C 0.51262 0.43014 0.13229 0.0
C123 C 0.54903 0.4417 0.14318 0.0
N124 N 0.4773 0.40547 0.14248 0.0
C125 C 0.44292 0.40693 0.13869 0.0
H126 H 0.19635 0.50668 0.17424 0.0
H127 H 0.24774 0.49185 0.16529 0.0
H128 H 0.17292 0.41427 0.11175 0.0
H129 H 0.12098 0.42923 0.12068 0.0
H130 H 0.20903 0.38158 0.13697 0.0
H131 H 0.24732 0.49927 0.101 0.0
H132 H 0.26215 0.56754 0.0965 0.0
H133 H 0.35735 0.61083 0.14518 0.0
H134 H 0.34247 0.54279 0.15037 0.0
H135 H 0.37967 0.36781 0.11004 0.0
H136 H 0.32211 0.37722 0.10663 0.0
H137 H 0.37335 0.46664 0.15895 0.0
H138 H 0.4307 0.45748 0.16211 0.0
H139 H 0.34533 0.49018 0.12611 0.0
H140 H 0.29896 0.37204 0.1662 0.0
H141 H 0.28379 0.30385 0.17156 0.0
H142 H 0.20413 0.26187 0.11517 0.0
H143 H 0.21923 0.32994 0.10934 0.0
C144 C 0.19079 0.48648 0.16054 0.0
C145 C 0.15477 0.46909 0.14812 0.0
C146 C 0.22024 0.47817 0.15539 0.0
C147 C 0.21427 0.45232 0.13772 0.0
C148 C 0.17809 0.43443 0.1254 0.0
C149 C 0.14858 0.44302 0.13047 0.0
C150 C 0.24599 0.44386 0.13265 0.0
C151 C 0.23865 0.40513 0.13409 0.0
C152 C 0.28467 0.47473 0.12913 0.0
C153 C 0.2936 0.51581 0.12616 0.0
C154 C 0.27116 0.5233 0.11091 0.0
C155 C 0.27958 0.56199 0.10823 0.0
C156 C 0.3106 0.59351 0.12058 0.0
C157 C 0.33325 0.58641 0.13565 0.0
C158 C 0.32484 0.54777 0.13847 0.0
C159 C 0.37835 0.38939 0.12073 0.0
C160 C 0.40906 0.41191 0.13637 0.0
C161 C 0.3456 0.3947 0.11882 0.0
C162 C 0.34337 0.42249 0.13262 0.0
C163 C 0.37451 0.44514 0.1481 0.0
C164 C 0.40709 0.43983 0.14998 0.0
C165 C 0.30873 0.42821 0.13128 0.0
C166 C 0.31554 0.46648 0.12856 0.0
C167 C 0.26965 0.39696 0.13367 0.0
C168 C 0.26061 0.3561 0.13718 0.0
C169 C 0.27848 0.3483 0.15484 0.0
C170 C 0.26984 0.30967 0.15799 0.0
C171 C 0.24312 0.27856 0.14367 0.0
C172 C 0.22489 0.286 0.12622 0.0
C173 C 0.23347 0.32459 0.12299 0.0
H174 H 0.23645 0.24867 0.14614 0.0
H175 H 0.31714 0.62345 0.11841 0.0
H176 H 0.69356 0.18048 0.55547 0.0
H177 H 0.74971 0.24689 0.55199 0.0
H178 H 0.80167 0.19923 0.5095 0.0
H179 H 0.74538 0.13257 0.51281 0.0
H180 H 0.85851 0.27001 0.53572 0.0
H181 H 0.74415 0.2208 0.48623 0.0
H182 H 0.67274 0.18959 0.47614 0.0
H183 H 0.66834 0.28268 0.51175 0.0
H184 H 0.73969 0.31413 0.52235 0.0
H185 H 0.96148 0.43658 0.47204 0.0
H186 H 0.91827 0.36927 0.48351 0.0
H187 H 0.85242 0.41068 0.51908 0.0
H188 H 0.8953 0.47768 0.50737 0.0
H189 H 0.8038 0.34219 0.49681 0.0
H190 H 0.92102 0.39359 0.54441 0.0
H191 H 0.9926 0.4236 0.55358 0.0
H192 H 0.99216 0.32574 0.52038 0.0
H193 H 0.92064 0.29539 0.51075 0.0
C194 C 0.71773 0.1839 0.54611 0.0
C195 C 0.71483 0.15157 0.53406 0.0
C196 C 0.74972 0.22188 0.54409 0.0
C197 C 0.77921 0.22788 0.53009 0.0
C198 C 0.779 0.1951 0.52028 0.0
C199 C 0.74685 0.15704 0.52221 0.0
C200 C 0.80572 0.26791 0.52284 0.0
C201 C 0.84673 0.28579 0.52708 0.0
C202 C 0.79008 0.28833 0.51163 0.0
C203 C 0.74718 0.2696 0.50526 0.0
C204 C 0.72789 0.23443 0.49207 0.0
C205 C 0.68745 0.21673 0.48623 0.0
C206 C 0.66604 0.23415 0.49328 0.0
C207 C 0.68499 0.26924 0.50627 0.0
C208 C 0.72544 0.28702 0.51221 0.0
C209 C 0.93749 0.43097 0.48216 0.0
C210 C 0.93123 0.46172 0.48883 0.0
C211 C 0.91311 0.39276 0.48883 0.0
C212 C 0.88246 0.38509 0.50239 0.0
C213 C 0.87592 0.41595 0.50867 0.0
C214 C 0.90026 0.45407 0.50198 0.0
C215 C 0.85687 0.34491 0.50993 0.0
C216 C 0.8158 0.32673 0.50558 0.0
C217 C 0.87258 0.32424 0.52088 0.0
C218 C 0.91556 0.34242 0.52668 0.0
C219 C 0.93625 0.37863 0.53891 0.0
C220 C 0.9768 0.39567 0.54422 0.0
C221 C 0.99694 0.37665 0.53752 0.0
C222 C 0.97654 0.34048 0.52553 0.0
C223 C 0.93599 0.32332 0.52016 0.0
H224 H 0.02833 0.38989 0.54165 0.0
H225 H 0.63482 0.22052 0.4886 0.0
H226 H 0.67856 0.71361 0.83005 0.0
H227 H 0.6938 0.78058 0.82254 0.0
H228 H 0.57481 0.73353 0.79469 0.0
H229 H 0.56033 0.66647 0.80112 0.0
H230 H 0.622 0.79202 0.77326 0.0
H231 H 0.60415 0.77252 0.84856 0.0
H232 H 0.61694 0.75596 0.88467 0.0
H233 H 0.73773 0.8509 0.88584 0.0
H234 H 0.72578 0.8677 0.8496 0.0
H235 H 0.59568 0.95722 0.79439 0.0
H236 H 0.59336 0.89352 0.79144 0.0
H237 H 0.71744 0.95186 0.81219 0.0
H238 H 0.71943 0.01544 0.81542 0.0
H239 H 0.67327 0.89005 0.8356 0.0
H240 H 0.68451 0.91262 0.7601 0.0
H241 H 0.66619 0.92737 0.72489 0.0
H242 H 0.55006 0.82469 0.72547 0.0
H243 H 0.5676 0.80958 0.76086 0.0
C244 C 0.65595 0.71765 0.82203 0.0
C245 C 0.61821 0.68513 0.81632 0.0
C246 C 0.66455 0.75587 0.81787 0.0
C247 C 0.63513 0.76222 0.80856 0.0
C248 C 0.59796 0.72945 0.80197 0.0
C249 C 0.58966 0.69116 0.80569 0.0
C250 C 0.64218 0.8029 0.80671 0.0
C251 C 0.63296 0.81337 0.78693 0.0
C252 C 0.65698 0.83101 0.82447 0.0
C253 C 0.66419 0.82107 0.84629 0.0
C254 C 0.63351 0.78969 0.85647 0.0
C255 C 0.64059 0.78028 0.87696 0.0
C256 C 0.67815 0.80229 0.88752 0.0
C257 C 0.70868 0.83383 0.87763 0.0
C258 C 0.70176 0.84332 0.85712 0.0
C259 C 0.62253 0.95633 0.79786 0.0
C260 C 0.65775 0.99073 0.80502 0.0
C261 C 0.62128 0.92009 0.79611 0.0
C262 C 0.65534 0.918 0.80143 0.0
C263 C 0.69089 0.95286 0.80794 0.0
C264 C 0.69208 0.98905 0.80971 0.0
C265 C 0.65291 0.87911 0.80218 0.0
C266 C 0.66285 0.86891 0.82184 0.0
C267 C 0.6379 0.85102 0.78446 0.0
C268 C 0.62731 0.86014 0.7632 0.0
C269 C 0.65497 0.89336 0.7528 0.0
C270 C 0.64471 0.90175 0.73277 0.0
C271 C 0.60691 0.87701 0.72294 0.0
C272 C 0.57931 0.84383 0.7331 0.0
C273 C 0.58942 0.83531 0.75313 0.0
H274 H 0.59895 0.88339 0.70741 0.0
H275 H 0.68358 0.79497 0.90338 0.0
H276 H 0.92049 0.53378 0.22135 0.0
H277 H 0.85497 0.52691 0.22343 0.0
H278 H 0.87332 0.59078 0.16582 0.0
H279 H 0.93942 0.60007 0.16471 0.0
H280 H 0.82827 0.60411 0.18695 0.0
H281 H 0.82659 0.48198 0.16675 0.0
H282 H 0.84036 0.42816 0.17234 0.0
H283 H 0.77632 0.39994 0.22966 0.0
H284 H 0.76208 0.45385 0.22431 0.0
H285 H 0.65394 0.47881 0.118 0.0
H286 H 0.71796 0.50322 0.13741 0.0
H287 H 0.66775 0.50818 0.19686 0.0
H288 H 0.6038 0.48603 0.17744 0.0
H289 H 0.72314 0.46265 0.18512 0.0
H290 H 0.71581 0.58335 0.1973 0.0
H291 H 0.7007 0.63342 0.18443 0.0
H292 H 0.78265 0.6605 0.13505 0.0
H293 H 0.79775 0.61013 0.14747 0.0
C294 C 0.91092 0.5475 0.20962 0.0
C295 C 0.93471 0.56707 0.19273 0.0
C296 C 0.87331 0.5432 0.21065 0.0
C297 C 0.85844 0.55706 0.19434 0.0
C298 C 0.88376 0.57955 0.17857 0.0
C299 C 0.92167 0.58483 0.1779 0.0
C300 C 0.81567 0.54473 0.19194 0.0
C301 C 0.80535 0.57319 0.18685 0.0
C302 C 0.78526 0.50443 0.19195 0.0
C303 C 0.79378 0.47218 0.1953 0.0
C304 C 0.81564 0.46441 0.1806 0.0
C305 C 0.82351 0.43387 0.18373 0.0
C306 C 0.80947 0.41072 0.20143 0.0
C307 C 0.78728 0.41796 0.21599 0.0
C308 C 0.77925 0.44848 0.2129 0.0
C309 C 0.65645 0.48574 0.13513 0.0
C310 C 0.62358 0.48072 0.14606 0.0
C311 C 0.69303 0.49937 0.14621 0.0
C312 C 0.69745 0.50775 0.16846 0.0
C313 C 0.6648 0.50206 0.17962 0.0
C314 C 0.62823 0.48903 0.16849 0.0
C315 C 0.73647 0.52187 0.17973 0.0
C316 C 0.74599 0.49369 0.18623 0.0
C317 C 0.76622 0.56216 0.18048 0.0
C318 C 0.7576 0.59276 0.17319 0.0
C319 C 0.7303 0.59973 0.18358 0.0
C320 C 0.72181 0.62822 0.1764 0.0
C321 C 0.74063 0.65006 0.1589 0.0
C322 C 0.76807 0.64354 0.14859 0.0
C323 C 0.77663 0.61507 0.15571 0.0
H324 H 0.73401 0.67209 0.15336 0.0
H325 H 0.8157 0.38714 0.20385 0.0
H326 H 0.36566 0.94532 0.50032 0.0
H327 H 0.30157 0.88564 0.49124 0.0
H328 H 0.34993 0.85789 0.43686 0.0
H329 H 0.41428 0.91766 0.44592 0.0
H330 H 0.24797 0.85466 0.45646 0.0
H331 H 0.31654 0.75727 0.43747 0.0
H332 H 0.37882 0.75751 0.44568 0.0
H333 H 0.39855 0.82656 0.5045 0.0
H334 H 0.33596 0.82584 0.49693 0.0
H335 H 0.09442 0.66423 0.41777 0.0
H336 H 0.15716 0.72703 0.42127 0.0
H337 H 0.18543 0.6956 0.48232 0.0
H338 H 0.1234 0.63206 0.47854 0.0
H339 H 0.24917 0.72886 0.45912 0.0
H340 H 0.15005 0.75824 0.48029 0.0
H341 H 0.08757 0.75899 0.47625 0.0
H342 H 0.12804 0.82687 0.42054 0.0
H343 H 0.19058 0.82605 0.42407 0.0
C344 C 0.36238 0.9269 0.48618 0.0
C345 C 0.39486 0.93579 0.47391 0.0
C346 C 0.32577 0.89291 0.48099 0.0
C347 C 0.32123 0.86717 0.46356 0.0
C348 C 0.35303 0.87725 0.4505 0.0
C349 C 0.38965 0.91139 0.45564 0.0
C350 C 0.28436 0.82828 0.46027 0.0
C351 C 0.24821 0.82713 0.45684 0.0
C352 C 0.28472 0.79246 0.46139 0.0
C353 C 0.3218 0.79193 0.46646 0.0
C354 C 0.33406 0.77228 0.45221 0.0
C355 C 0.3694 0.77248 0.45677 0.0
C356 C 0.39269 0.79213 0.47557 0.0
C357 C 0.38053 0.81139 0.48993 0.0
C358 C 0.34512 0.81108 0.48551 0.0
C359 C 0.11422 0.67045 0.4318 0.0
C360 C 0.10387 0.64321 0.44792 0.0
C361 C 0.1499 0.70649 0.43387 0.0
C362 C 0.17575 0.71614 0.45216 0.0
C363 C 0.16586 0.68876 0.46809 0.0
C364 C 0.13022 0.65265 0.46601 0.0
C365 C 0.21271 0.75516 0.45496 0.0
C366 C 0.24892 0.75634 0.45841 0.0
C367 C 0.2123 0.79103 0.45443 0.0
C368 C 0.17481 0.79173 0.45231 0.0
C369 C 0.1455 0.77306 0.46708 0.0
C370 C 0.1101 0.77355 0.4649 0.0
C371 C 0.10379 0.79287 0.44811 0.0
C372 C 0.13294 0.81186 0.43351 0.0
C373 C 0.16838 0.81142 0.4356 0.0
H374 H 0.07637 0.79322 0.44646 0.0
H375 H 0.42011 0.79239 0.47903 0.0
H376 H 0.57088 0.39883 0.88245 0.0
H377 H 0.57883 0.34115 0.87848 0.0
H378 H 0.47156 0.28113 0.83728 0.0
H379 H 0.46434 0.33951 0.84054 0.0
H380 H 0.54468 0.26312 0.88179 0.0
H381 H 0.49024 0.24542 0.79261 0.0
H382 H 0.48093 0.28464 0.76525 0.0
H383 H 0.57294 0.39199 0.7979 0.0
H384 H 0.58316 0.35337 0.82522 0.0
H385 H 0.56195 0.10674 0.83039 0.0
H386 H 0.53913 0.14991 0.84529 0.0
H387 H 0.6232 0.24528 0.80893 0.0
H388 H 0.64445 0.20153 0.79332 0.0
H389 H 0.55784 0.24254 0.80434 0.0
H390 H 0.63418 0.24056 0.86555 0.0
H391 H 0.65467 0.21048 0.8936 0.0
H392 H 0.53876 0.15718 0.91794 0.0
H393 H 0.51742 0.18654 0.88983 0.0
C394 C 0.54825 0.37283 0.87314 0.0
C395 C 0.51747 0.3738 0.8614 0.0
C396 C 0.55278 0.33981 0.87093 0.0
C397 C 0.52638 0.30732 0.85712 0.0
C398 C 0.49271 0.3063 0.84767 0.0
C399 C 0.48853 0.33957 0.84959 0.0
C400 C 0.53783 0.27838 0.84972 0.0
C401 C 0.5472 0.2582 0.86486 0.0
C402 C 0.54246 0.27311 0.82768 0.0
C403 C 0.53707 0.29652 0.81107 0.0
C404 C 0.50855 0.27738 0.79388 0.0
C405 C 0.50312 0.2995 0.77839 0.0
C406 C 0.52622 0.34078 0.77988 0.0
C407 C 0.55497 0.36002 0.79679 0.0
C408 C 0.56059 0.33804 0.81228 0.0
C409 C 0.57566 0.13707 0.82581 0.0
C410 C 0.60481 0.15101 0.81075 0.0
C411 C 0.56278 0.16175 0.83436 0.0
C412 C 0.57961 0.201 0.82836 0.0
C413 C 0.60954 0.21507 0.81371 0.0
C414 C 0.62179 0.19021 0.80485 0.0
C415 C 0.56494 0.22706 0.8364 0.0
C416 C 0.55488 0.2468 0.8213 0.0
C417 C 0.56135 0.23308 0.85853 0.0
C418 C 0.57408 0.21539 0.87544 0.0
C419 C 0.61297 0.22216 0.87677 0.0
C420 C 0.62475 0.20529 0.8927 0.0
C421 C 0.598 0.18184 0.9075 0.0
C422 C 0.55943 0.1753 0.90644 0.0
C423 C 0.54748 0.19207 0.89052 0.0
H424 H 0.60718 0.16881 0.91983 0.0
H425 H 0.52191 0.35785 0.76791 0.0
H426 H 0.50145 0.89677 0.49007 0.0
H427 H 0.4999 0.83426 0.49399 0.0
H428 H 0.61342 0.89613 0.52954 0.0
H429 H 0.61575 0.95898 0.52508 0.0
H430 H 0.6123 0.84228 0.50371 0.0
H431 H 0.5206 0.84021 0.55382 0.0
H432 H 0.4627 0.84402 0.56475 0.0
H433 H 0.3865 0.74515 0.52095 0.0
H434 H 0.44403 0.7411 0.50953 0.0
H435 H 0.6072 0.67251 0.5447 0.0
H436 H 0.60799 0.73539 0.54223 0.0
H437 H 0.49572 0.67452 0.50535 0.0
H438 H 0.49475 0.61176 0.50822 0.0
H439 H 0.49589 0.7277 0.53219 0.0
H440 H 0.58561 0.72964 0.48152 0.0
H441 H 0.64257 0.72549 0.46922 0.0
H442 H 0.72134 0.82403 0.51258 0.0
H443 H 0.66475 0.82843 0.52534 0.0
C444 C 0.52622 0.89722 0.49868 0.0
C445 C 0.5587 0.93319 0.50731 0.0
C446 C 0.52515 0.86122 0.50106 0.0
C447 C 0.55618 0.85999 0.51248 0.0
C448 C 0.58897 0.89597 0.52073 0.0
C449 C 0.59026 0.93205 0.51817 0.0
C450 C 0.55466 0.82145 0.51574 0.0
C451 C 0.58705 0.8175 0.51027 0.0
C452 C 0.52134 0.78837 0.52372 0.0
C453 C 0.48667 0.79054 0.53072 0.0
C454 C 0.49152 0.81941 0.54644 0.0
C455 C 0.45877 0.8216 0.55273 0.0
C456 C 0.42095 0.79486 0.54354 0.0
C457 C 0.4158 0.7658 0.52808 0.0
C458 C 0.44847 0.76355 0.52169 0.0
C459 C 0.58252 0.67264 0.53633 0.0
C460 C 0.55082 0.6374 0.52674 0.0
C461 C 0.58309 0.70861 0.53474 0.0
C462 C 0.55218 0.71011 0.52329 0.0
C463 C 0.51997 0.67445 0.51425 0.0
C464 C 0.51939 0.63854 0.5159 0.0
C465 C 0.55366 0.74869 0.5203 0.0
C466 C 0.52123 0.75258 0.52575 0.0
C467 C 0.58683 0.78166 0.51218 0.0
C468 C 0.6209 0.77908 0.50455 0.0
C469 C 0.61504 0.75022 0.48855 0.0
C470 C 0.64727 0.74786 0.48147 0.0
C471 C 0.68554 0.7744 0.49016 0.0
C472 C 0.69167 0.80344 0.5059 0.0
C473 C 0.65954 0.8059 0.51305 0.0
H474 H 0.71045 0.77254 0.48465 0.0
H475 H 0.39564 0.79665 0.5484 0.0
H476 H 0.70721 0.58693 0.82403 0.0
H477 H 0.77025 0.58756 0.82644 0.0
H478 H 0.71442 0.47826 0.85855 0.0
H479 H 0.65182 0.47743 0.85631 0.0
H480 H 0.78384 0.53176 0.87929 0.0
H481 H 0.7366 0.48071 0.80615 0.0
H482 H 0.71296 0.48256 0.76924 0.0
H483 H 0.82216 0.58975 0.76063 0.0
H484 H 0.84624 0.58886 0.79762 0.0
H485 H 0.92188 0.46964 0.87914 0.0
H486 H 0.86223 0.47273 0.87034 0.0
H487 H 0.93139 0.57934 0.83735 0.0
H488 H 0.99134 0.57581 0.8458 0.0
H489 H 0.85894 0.53379 0.81659 0.0
H490 H 0.90752 0.58422 0.88879 0.0
H491 H 0.93183 0.58341 0.9257 0.0
H492 H 0.82069 0.47991 0.93639 0.0
H493 H 0.79593 0.47971 0.8994 0.0
C494 C 0.70832 0.56294 0.83151 0.0
C495 C 0.67429 0.53218 0.83999 0.0
C496 C 0.74439 0.56327 0.83282 0.0
C497 C 0.74715 0.53287 0.84263 0.0
C498 C 0.71317 0.50211 0.85096 0.0
C499 C 0.67724 0.50166 0.84959 0.0
C500 C 0.78543 0.5332 0.84487 0.0
C501 C 0.79999 0.53181 0.86554 0.0
C502 C 0.80735 0.53457 0.82703 0.0
C503 C 0.79306 0.53494 0.80473 0.0
C504 C 0.75546 0.50484 0.79644 0.0
C505 C 0.742 0.50569 0.7755 0.0
C506 C 0.76602 0.53628 0.76261 0.0
C507 C 0.80358 0.56608 0.77064 0.0
C508 C 0.81716 0.56541 0.79159 0.0
C509 C 0.92432 0.49351 0.86979 0.0
C510 C 0.96139 0.52273 0.86337 0.0
C511 C 0.8902 0.49533 0.86481 0.0
C512 C 0.89232 0.52682 0.85361 0.0
C513 C 0.92894 0.55488 0.84611 0.0
C514 C 0.96318 0.55282 0.85092 0.0
C515 C 0.85676 0.53139 0.85099 0.0
C516 C 0.84285 0.53393 0.83033 0.0
C517 C 0.83544 0.53136 0.86886 0.0
C518 C 0.84998 0.53179 0.89126 0.0
C519 C 0.88833 0.56116 0.89897 0.0
C520 C 0.9022 0.56088 0.9199 0.0
C521 C 0.87785 0.53159 0.93336 0.0
C522 C 0.83953 0.50257 0.92593 0.0
C523 C 0.82555 0.50265 0.90499 0.0
H524 H 0.88865 0.5314 0.94956 0.0
H525 H 0.75557 0.53685 0.7464 0.0
H526 H 0.17609 0.61979 0.14457 0.0
H527 H 0.23817 0.68332 0.14757 0.0
H528 H 0.19397 0.72331 0.19909 0.0
H529 H 0.13113 0.66058 0.19536 0.0
H530 H 0.23409 0.78233 0.17692 0.0
H531 H 0.25949 0.68434 0.20573 0.0
H532 H 0.26226 0.62285 0.20529 0.0
H533 H 0.34239 0.66396 0.15458 0.0
H534 H 0.33909 0.72497 0.15424 0.0
H535 H 0.45148 0.89382 0.22594 0.0
H536 H 0.38885 0.83325 0.21667 0.0
H537 H 0.36731 0.88766 0.16284 0.0
H538 H 0.42972 0.94942 0.17267 0.0
H539 H 0.36044 0.78215 0.18467 0.0
H540 H 0.26657 0.84853 0.15405 0.0
H541 H 0.26379 0.90976 0.15908 0.0
H542 H 0.32117 0.93162 0.22215 0.0
H543 H 0.32381 0.8703 0.21759 0.0
C544 C 0.1795 0.64221 0.15645 0.0
C545 C 0.14866 0.63493 0.16981 0.0
C546 C 0.21519 0.67857 0.15824 0.0
C547 C 0.22144 0.70814 0.1739 0.0
C548 C 0.19019 0.7012 0.18688 0.0
C549 C 0.15419 0.66517 0.18477 0.0
C550 C 0.26066 0.74576 0.17723 0.0
C551 C 0.26167 0.78216 0.17851 0.0
C552 C 0.29698 0.74601 0.17964 0.0
C553 C 0.29863 0.70903 0.17977 0.0
C554 C 0.27733 0.68003 0.19431 0.0
C555 C 0.27895 0.6452 0.19418 0.0
C556 C 0.30223 0.63929 0.1798 0.0
C557 C 0.32404 0.66827 0.16557 0.0
C558 C 0.32226 0.70297 0.16551 0.0
C559 C 0.43336 0.89316 0.2122 0.0
C560 C 0.44549 0.92689 0.20027 0.0
C561 C 0.39759 0.85822 0.20678 0.0
C562 C 0.37283 0.85575 0.1892 0.0
C563 C 0.38544 0.88888 0.17671 0.0
C564 C 0.42137 0.9241 0.18221 0.0
C565 C 0.33379 0.81856 0.1844 0.0
C566 C 0.33285 0.78227 0.18284 0.0
C567 C 0.29752 0.81834 0.18237 0.0
C568 C 0.29581 0.8551 0.18535 0.0
C569 C 0.2785 0.86638 0.169 0.0
C570 C 0.27696 0.90109 0.17177 0.0
C571 C 0.29243 0.92464 0.19089 0.0
C572 C 0.30935 0.91345 0.20731 0.0
C573 C 0.31091 0.87875 0.20463 0.0
H574 H 0.29123 0.95152 0.193 0.0
H575 H 0.30353 0.61236 0.17974 0.0
H576 H 0.50123 0.13119 0.48416 0.0
H577 H 0.49998 0.193 0.48845 0.0
H578 H 0.59889 0.23913 0.53538 0.0
H579 H 0.6002 0.17781 0.53133 0.0
H580 H 0.54318 0.25322 0.5492 0.0
H581 H 0.61076 0.27118 0.48416 0.0
H582 H 0.61866 0.25251 0.44735 0.0
H583 H 0.51402 0.25322 0.42488 0.0
H584 H 0.50521 0.27127 0.46168 0.0
H585 H 0.60703 0.45539 0.55853 0.0
H586 H 0.60368 0.39274 0.54951 0.0
H587 H 0.50471 0.35991 0.50418 0.0
H588 H 0.50813 0.42319 0.51312 0.0
H589 H 0.55451 0.3365 0.48859 0.0
H590 H 0.49003 0.32339 0.55395 0.0
H591 H 0.48345 0.34229 0.59097 0.0
H592 H 0.58296 0.33225 0.61313 0.0
H593 H 0.59058 0.31393 0.57617 0.0
C594 C 0.52274 0.1545 0.49537 0.0
C595 C 0.55084 0.14931 0.50734 0.0
C596 C 0.52212 0.18998 0.49775 0.0
C597 C 0.54952 0.22105 0.51217 0.0
C598 C 0.57736 0.21575 0.52418 0.0
C599 C 0.57813 0.18051 0.52176 0.0
C600 C 0.54905 0.25889 0.51515 0.0
C601 C 0.54605 0.27156 0.53595 0.0
C602 C 0.5517 0.28254 0.49785 0.0
C603 C 0.55708 0.27208 0.4757 0.0
C604 C 0.58927 0.267 0.4714 0.0
C605 C 0.59394 0.25659 0.45054 0.0
C606 C 0.56678 0.25156 0.43379 0.0
C607 C 0.53498 0.25705 0.43788 0.0
C608 C 0.53015 0.26738 0.45873 0.0
C609 C 0.58453 0.43494 0.54659 0.0
C610 C 0.55746 0.4442 0.53679 0.0
C611 C 0.58264 0.399 0.54144 0.0
C612 C 0.55336 0.37097 0.5265 0.0
C613 C 0.52743 0.38083 0.51587 0.0
C614 C 0.52946 0.41709 0.52096 0.0
C615 C 0.54931 0.3311 0.52272 0.0
C616 C 0.55136 0.31802 0.50181 0.0
C617 C 0.54583 0.30699 0.53994 0.0
C618 C 0.54108 0.31761 0.56224 0.0
C619 C 0.51069 0.32548 0.56669 0.0
C620 C 0.50676 0.33607 0.58766 0.0
C621 C 0.53282 0.33856 0.60438 0.0
C622 C 0.56282 0.33035 0.60016 0.0
C623 C 0.56694 0.31984 0.5792 0.0
H624 H 0.52973 0.34677 0.62061 0.0
H625 H 0.57043 0.2435 0.41764 0.0
H626 H 0.41752 0.46573 0.85687 0.0
H627 H 0.35586 0.4662 0.8608 0.0
H628 H 0.41258 0.58694 0.84249 0.0
H629 H 0.47443 0.58679 0.83852 0.0
H630 H 0.3675 0.57506 0.8776 0.0
H631 H 0.35111 0.51344 0.80697 0.0
H632 H 0.34988 0.46442 0.78071 0.0
H633 H 0.25779 0.37017 0.81346 0.0
H634 H 0.25887 0.41865 0.84011 0.0
H635 H 0.19878 0.59307 0.8523 0.0
H636 H 0.26052 0.59131 0.85287 0.0
H637 H 0.19562 0.46737 0.86543 0.0
H638 H 0.13371 0.46918 0.86451 0.0
H639 H 0.24445 0.479 0.83482 0.0
H640 H 0.25806 0.539 0.90462 0.0
H641 H 0.2591 0.58676 0.93171 0.0
H642 H 0.35565 0.68221 0.90202 0.0
H643 H 0.35483 0.63506 0.87457 0.0
C644 C 0.41697 0.49243 0.85365 0.0
C645 C 0.45105 0.52617 0.84727 0.0
C646 C 0.38159 0.4926 0.85587 0.0
C647 C 0.37941 0.52652 0.85181 0.0
C648 C 0.41349 0.56041 0.84572 0.0
C649 C 0.44882 0.56019 0.84336 0.0
C650 C 0.34155 0.52656 0.85368 0.0
C651 C 0.34069 0.55437 0.86807 0.0
C652 C 0.3062 0.49881 0.84173 0.0
C653 C 0.30536 0.46965 0.82566 0.0
C654 C 0.33082 0.48225 0.80867 0.0
C655 C 0.33011 0.45456 0.7937 0.0
C656 C 0.30385 0.4142 0.79545 0.0
C657 C 0.27816 0.40145 0.81215 0.0
C658 C 0.27878 0.42901 0.82718 0.0
C659 C 0.19792 0.56566 0.8555 0.0
C660 C 0.1618 0.53135 0.85856 0.0
C661 C 0.23319 0.56464 0.85587 0.0
C662 C 0.23299 0.52928 0.85941 0.0
C663 C 0.19669 0.49502 0.8627 0.0
C664 C 0.16139 0.49608 0.86231 0.0
C665 C 0.2703 0.52772 0.85869 0.0
C666 C 0.27112 0.49962 0.84447 0.0
C667 C 0.30552 0.55502 0.87093 0.0
C668 C 0.30613 0.58351 0.88741 0.0
C669 C 0.2793 0.57021 0.90376 0.0
C670 C 0.27989 0.59717 0.9192 0.0
C671 C 0.30736 0.63751 0.91855 0.0
C672 C 0.33436 0.65096 0.90249 0.0
C673 C 0.33387 0.62412 0.88699 0.0
H674 H 0.30778 0.65833 0.93052 0.0
H675 H 0.30334 0.39281 0.78385 0.0
H676 H 0.96852 0.37003 0.16748 0.0
H677 H 0.90788 0.30703 0.1726 0.0
H678 H 0.83985 0.3656 0.16957 0.0
H679 H 0.90021 0.42851 0.16508 0.0
H680 H 0.81963 0.32144 0.2023 0.0
H681 H 0.83712 0.30208 0.1279 0.0
H682 H 0.87324 0.29839 0.09722 0.0
H683 H 0.88282 0.20486 0.12541 0.0
H684 H 0.84719 0.20836 0.15642 0.0
H685 H 0.62213 0.15701 0.18741 0.0
H686 H 0.68653 0.21742 0.1848 0.0
H687 H 0.7448 0.1492 0.18983 0.0
H688 H 0.68019 0.08873 0.1921 0.0
H689 H 0.77271 0.19684 0.15803 0.0
H690 H 0.74947 0.21374 0.23138 0.0
H691 H 0.71408 0.21935 0.2619 0.0
H692 H 0.71531 0.31958 0.23529 0.0
H693 H 0.74997 0.3141 0.20439 0.0
C694 C 0.94055 0.36936 0.16765 0.0
C695 C 0.93926 0.4044 0.16596 0.0
C696 C 0.90583 0.33328 0.17059 0.0
C697 C 0.86906 0.33144 0.17155 0.0
C698 C 0.86778 0.36626 0.16921 0.0
C699 C 0.90235 0.4022 0.16653 0.0
C700 C 0.83191 0.29388 0.17565 0.0
C701 C 0.80913 0.29433 0.19242 0.0
C702 C 0.81861 0.25804 0.16324 0.0
C703 C 0.83988 0.25578 0.14459 0.0
C704 C 0.8472 0.28094 0.12764 0.0
C705 C 0.86753 0.27884 0.11017 0.0
C706 C 0.88041 0.25149 0.1094 0.0
C707 C 0.87288 0.22608 0.12605 0.0
C708 C 0.8526 0.22809 0.14357 0.0
C709 C 0.64883 0.15516 0.18833 0.0
C710 C 0.64643 0.11847 0.1902 0.0
C711 C 0.68566 0.18968 0.18686 0.0
C712 C 0.72086 0.18818 0.18731 0.0
C713 C 0.71827 0.15134 0.18947 0.0
C714 C 0.68141 0.11683 0.19092 0.0
C715 C 0.75997 0.22456 0.18447 0.0
C716 C 0.78319 0.22388 0.16797 0.0
C717 C 0.77354 0.26036 0.19702 0.0
C718 C 0.75194 0.26319 0.21541 0.0
C719 C 0.74177 0.23668 0.23189 0.0
C720 C 0.7219 0.23989 0.24929 0.0
C721 C 0.71233 0.26971 0.2505 0.0
C722 C 0.72264 0.29642 0.23431 0.0
C723 C 0.74239 0.29326 0.21684 0.0
H724 H 0.69702 0.27219 0.26401 0.0
H725 H 0.89615 0.24991 0.09586 0.0
H726 H 0.99758 0.54951 0.09483 0.0
H727 H 1.00549 0.54094 0.05692 0.0
H728 H 0.07156 0.48344 0.07291 0.0
H729 H 0.06417 0.49275 0.11138 0.0
H730 H 0.10484 0.53554 0.04069 0.0
H731 H 0.97873 0.42739 0.0529 0.0
H732 H 0.91229 0.39256 0.06699 0.0
H733 H 0.87693 0.46017 0.02897 0.0
H734 H 0.94336 0.49588 0.01489 0.0
H735 H 0.07028 0.48321 0.92377 0.0
H736 H 0.07421 0.47751 0.96281 0.0
H737 H 0.02302 0.55131 0.97232 0.0
H738 H 0.0204 0.55845 0.93379 0.0
H739 H 0.98353 0.47546 0.99167 0.0
H740 H 0.11544 0.58963 0.98431 0.0
H741 H 0.18187 0.62205 0.97011 0.0
H742 H 0.20533 0.53712 0.9986 0.0
H743 H 0.13875 0.50384 0.01271 0.0
C744 C 0.01381 0.53501 0.09034 0.0
C745 C 0.02999 0.52146 0.10604 0.0
C746 C 0.01822 0.53003 0.06863 0.0
C747 C 0.0385 0.5109 0.06202 0.0
C748 C 0.05558 0.49805 0.07766 0.0
C749 C 0.05124 0.50321 0.09957 0.0
C750 C 0.04099 0.50449 0.03866 0.0
C751 C 0.07831 0.52156 0.02998 0.0
C752 C 1.00639 0.48608 0.02465 0.0
C753 C 0.96615 0.46445 0.0329 0.0
C754 C 0.95687 0.43501 0.04763 0.0
C755 C 0.91919 0.41509 0.05561 0.0
C756 C 0.89042 0.42417 0.04889 0.0
C757 C 0.89925 0.45315 0.03415 0.0
C758 C 0.9369 0.4732 0.02613 0.0
C759 C 0.06054 0.49879 0.93422 0.0
C760 C 0.0444 0.52076 0.92558 0.0
C761 C 0.06264 0.49534 0.95649 0.0
C762 C 0.04851 0.51367 0.97037 0.0
C763 C 0.03364 0.53655 0.96184 0.0
C764 C 0.03195 0.54038 0.93976 0.0
C765 C 0.04725 0.50808 0.99376 0.0
C766 C 1.01001 0.48856 0.00241 0.0
C767 C 0.08185 0.52366 0.00762 0.0
C768 C 0.12194 0.54393 0.9993 0.0
C769 C 0.13461 0.57763 0.98737 0.0
C770 C 0.17232 0.59622 0.97937 0.0
C771 C 0.19775 0.58156 0.98337 0.0
C772 C 0.18557 0.54838 0.99546 0.0
C773 C 0.14786 0.52966 0.00347 0.0
H774 H 0.22692 0.59596 0.97715 0.0
H775 H 0.86126 0.40872 0.05509 0.0
H776 H 0.52225 1.0044 0.44375 0.0
H777 H 0.51048 0.9978 0.40442 0.0
H778 H 0.6119 0.11424 0.39974 0.0
H779 H 0.62429 0.12046 0.43888 0.0
H780 H 0.53567 0.09046 0.37147 0.0
H781 H 0.63313 0.05211 0.39182 0.0
H782 H 0.65494 0.0134 0.41271 0.0
H783 H 0.55403 0.90539 0.38633 0.0
H784 H 0.53132 0.94356 0.36554 0.0
H785 H 0.56536 0.08204 0.26022 0.0
H786 H 0.57593 0.09464 0.29923 0.0
H787 H 0.51519 0.96889 0.30721 0.0
H788 H 0.50798 0.95631 0.26856 0.0
H789 H 0.57082 0.99925 0.33474 0.0
H790 H 0.47181 0.03133 0.31393 0.0
H791 H 0.44287 0.06516 0.29417 0.0
H792 H 0.53547 0.17754 0.32168 0.0
H793 H 0.56526 0.14438 0.3414 0.0
C794 C 0.54134 0.02885 0.43433 0.0
C795 C 0.57402 0.06294 0.44422 0.0
C796 C 0.53475 0.02503 0.41193 0.0
C797 C 0.56035 0.0556 0.39927 0.0
C798 C 0.59175 0.09048 0.40927 0.0
C799 C 0.59885 0.0939 0.43156 0.0
C800 C 0.55679 0.04987 0.37556 0.0
C801 C 0.5436 0.0708 0.36331 0.0
C802 C 0.56632 0.02356 0.36511 0.0
C803 C 0.58033 1.00067 0.37732 0.0
C804 C 0.61543 0.02012 0.39063 0.0
C805 C 0.62799 0.99828 0.40242 0.0
C806 C 0.60583 0.95696 0.4009 0.0
C807 C 0.57114 0.9374 0.38752 0.0
C808 C 0.55843 0.95911 0.37572 0.0
C809 C 0.5549 0.0571 0.27026 0.0
C810 C 0.53513 0.01809 0.2611 0.0
C811 C 0.56038 0.06433 0.29264 0.0
C812 C 0.54542 0.03271 0.30633 0.0
C813 C 0.52678 0.99391 0.29715 0.0
C814 C 0.52214 0.98672 0.27491 0.0
C815 C 0.5491 0.03953 0.33019 0.0
C816 C 0.56261 0.01889 0.34263 0.0
C817 C 0.53882 0.06538 0.34077 0.0
C818 C 0.521 0.08541 0.32895 0.0
C819 C 0.48616 0.06328 0.31564 0.0
C820 C 0.46958 0.08233 0.30446 0.0
C821 C 0.48739 0.12348 0.30662 0.0
C822 C 0.52175 0.14567 0.32 0.0
C823 C 0.53849 0.12676 0.33119 0.0
H824 H 0.4745 0.13818 0.29796 0.0
H825 H 0.61559 0.9401 0.41005 0.0
H826 H 0.49895 0.45367 0.76897 0.0
H827 H 0.50653 0.46566 0.73087 0.0
H828 H 0.60037 0.58579 0.74698 0.0
H829 H 0.59457 0.57275 0.78522 0.0
H830 H 0.49613 0.5077 0.70568 0.0
H831 H 0.66409 0.62124 0.70766 0.0
H832 H 0.72531 0.63908 0.72949 0.0
H833 H 0.67301 0.52014 0.74949 0.0
H834 H 0.61168 0.50149 0.72758 0.0
H835 H 0.52913 0.56019 0.59842 0.0
H836 H 0.53111 0.56796 0.63755 0.0
H837 H 0.60583 0.51673 0.64331 0.0
H838 H 0.60703 0.51239 0.60449 0.0
H839 H 0.62687 0.56641 0.67406 0.0
H840 H 0.49904 0.46199 0.64599 0.0
H841 H 0.43617 0.43206 0.62377 0.0
H842 H 0.40588 0.51146 0.65514 0.0
H843 H 0.46885 0.54217 0.67738 0.0
C844 C 0.52128 0.48261 0.76438 0.0
C845 C 0.54629 0.51224 0.78002 0.0
C846 C 0.5255 0.48955 0.74255 0.0
C847 C 0.55434 0.52655 0.73585 0.0
C848 C 0.57854 0.55667 0.75158 0.0
C849 C 0.575 0.54935 0.77346 0.0
C850 C 0.55895 0.53298 0.71242 0.0
C851 C 0.52481 0.52067 0.69884 0.0
C852 C 0.5962 0.54944 0.70324 0.0
C853 C 0.63316 0.56015 0.71619 0.0
C854 C 0.66573 0.59888 0.71666 0.0
C855 C 0.70042 0.60913 0.72906 0.0
C856 C 0.70297 0.58081 0.74094 0.0
C857 C 0.67092 0.54209 0.74035 0.0
C858 C 0.63618 0.53168 0.72796 0.0
C859 C 0.54684 0.55154 0.60798 0.0
C860 C 0.56714 0.53474 0.59814 0.0
C861 C 0.5475 0.55548 0.63044 0.0
C862 C 0.5676 0.54178 0.64354 0.0
C863 C 0.58972 0.52721 0.63372 0.0
C864 C 0.58984 0.52414 0.61138 0.0
C865 C 0.56394 0.54022 0.6673 0.0
C866 C 0.59826 0.55373 0.68095 0.0
C867 C 0.52665 0.52303 0.67647 0.0
C868 C 0.48882 0.50467 0.66314 0.0
C869 C 0.47907 0.47322 0.64803 0.0
C870 C 0.44342 0.4561 0.63546 0.0
C871 C 0.41711 0.46994 0.63799 0.0
C872 C 0.42634 0.50084 0.65316 0.0
C873 C 0.46199 0.51811 0.66576 0.0
H874 H 0.38951 0.45664 0.62824 0.0
H875 H 0.72981 0.58886 0.75058 0.0
H876 H 0.49705 0.049 0.57336 0.0
H877 H 0.51948 0.06296 0.61133 0.0
H878 H 0.62701 0.06447 0.5965 0.0
H879 H 0.60362 0.04851 0.55857 0.0
H880 H 0.60003 0.02457 0.62956 0.0
H881 H 0.62551 0.15072 0.61099 0.0
H882 H 0.61233 0.20008 0.5952 0.0
H883 H 0.52011 0.17223 0.63834 0.0
H884 H 0.53224 0.12217 0.65416 0.0
H885 H 0.67443 0.09258 0.73964 0.0
H886 H 0.6668 0.08721 0.70024 0.0
H887 H 0.54984 0.07148 0.70321 0.0
H888 H 0.5575 0.07722 0.74239 0.0
H889 H 0.59226 0.12579 0.6754 0.0
H890 H 0.56804 0.99376 0.6912 0.0
H891 H 0.58662 0.94685 0.70533 0.0
H892 H 0.68632 0.99292 0.66598 0.0
H893 H 0.66869 0.04043 0.65187 0.0
C894 C 0.52557 0.05256 0.57821 0.0
C895 C 0.54872 0.0479 0.56308 0.0
C896 C 0.53854 0.06085 0.59989 0.0
C897 C 0.5753 0.06547 0.60678 0.0
C898 C 0.59864 0.06119 0.59158 0.0
C899 C 0.58537 0.0523 0.56992 0.0
C900 C 0.58816 0.07259 0.62999 0.0
C901 C 0.59904 0.04722 0.6395 0.0
C902 C 0.5869 0.10212 0.64302 0.0
C903 C 0.57963 0.13245 0.63368 0.0
C904 C 0.60223 0.15491 0.61702 0.0
C905 C 0.59496 0.18304 0.60807 0.0
C906 C 0.56536 0.18925 0.61574 0.0
C907 C 0.54302 0.16737 0.63241 0.0
C908 C 0.55011 0.13914 0.6414 0.0
C909 C 0.64694 0.08746 0.73183 0.0
C910 C 0.61663 0.08551 0.74404 0.0
C911 C 0.64262 0.08446 0.70935 0.0
C912 C 0.6077 0.0789 0.69877 0.0
C913 C 0.57715 0.07607 0.71101 0.0
C914 C 0.58154 0.07933 0.73338 0.0
C915 C 0.60284 0.07692 0.67498 0.0
C916 C 0.59362 0.10344 0.66536 0.0
C917 C 0.60659 0.04911 0.66179 0.0
C918 C 0.61729 0.0209 0.67066 0.0
C919 C 0.59414 0.99413 0.68574 0.0
C920 C 0.60446 0.9674 0.69371 0.0
C921 C 0.63767 0.967 0.68656 0.0
C922 C 0.66066 0.99333 0.6715 0.0
C923 C 0.65052 0.02014 0.66353 0.0
H924 H 0.64558 0.94623 0.69257 0.0
H925 H 0.55978 0.21105 0.60879 0.0
H926 H 0.52524 0.48784 0.8961 0.0
H927 H 0.51791 0.47331 0.93405 0.0
H928 H 0.62295 0.586 0.95134 0.0
H929 H 0.63119 0.5999 0.91334 0.0
H930 H 0.6235 0.53203 0.97433 0.0
H931 H 0.52711 0.56945 0.95668 0.0
H932 H 0.47086 0.56627 0.93568 0.0
H933 H 0.3961 0.44577 0.9515 0.0
H934 H 0.45208 0.44804 0.97235 0.0
H935 H 0.59401 0.53915 0.085 0.0
H936 H 0.59779 0.55459 0.0472 0.0
H937 H 0.50258 0.43598 0.02975 0.0
H938 H 0.49903 0.42002 0.06747 0.0
H939 H 0.49639 0.49322 0.00718 0.0
H940 H 0.59447 0.45696 0.02464 0.0
H941 H 0.65121 0.46171 0.04592 0.0
H942 H 0.72343 0.58296 0.03067 0.0
H943 H 0.66689 0.5791 0.00956 0.0
C944 C 0.54685 0.50937 0.90802 0.0
C945 C 0.57867 0.54506 0.90185 0.0
C946 C 0.5425 0.50119 0.9297 0.0
C947 C 0.56944 0.5289 0.94562 0.0
C948 C 0.6017 0.56423 0.93938 0.0
C949 C 0.60635 0.57219 0.91768 0.0
C950 C 0.56409 0.52114 0.96877 0.0
C951 C 0.59586 0.52411 0.98154 0.0
C952 C 0.52779 0.51007 0.97816 0.0
C953 C 0.4939 0.50881 0.96592 0.0
C954 C 0.49874 0.5422 0.95558 0.0
C955 C 0.46689 0.54057 0.94371 0.0
C956 C 0.42995 0.50581 0.94221 0.0
C957 C 0.42474 0.47266 0.95265 0.0
C958 C 0.45651 0.47411 0.96451 0.0
C959 C 0.57383 0.51634 0.07313 0.0
C960 C 0.54651 0.47821 0.07924 0.0
C961 C 0.57593 0.52527 0.05156 0.0
C962 C 0.55081 0.49626 0.03567 0.0
C963 C 0.52223 0.45878 0.04178 0.0
C964 C 0.52017 0.44977 0.06336 0.0
C965 C 0.55583 0.50433 0.01261 0.0
C966 C 0.524 0.50131 0.9999 0.0
C967 C 0.59216 0.51566 0.00328 0.0
C968 C 0.62634 0.51785 0.0157 0.0
C969 C 0.62237 0.48472 0.02595 0.0
C970 C 0.6545 0.48724 0.03796 0.0
C971 C 0.69087 0.52264 0.03969 0.0
C972 C 0.69522 0.55557 0.02934 0.0
C973 C 0.66315 0.55322 0.01734 0.0
H974 H 0.71571 0.52454 0.04901 0.0
H975 H 0.40535 0.50459 0.93299 0.0
H976 H 0.01582 0.44417 0.23192 0.0
H977 H 0.99514 0.44803 0.26801 0.0
H978 H 0.0259 0.56897 0.2601 0.0
H979 H 0.04655 0.56519 0.22389 0.0
H980 H 0.05996 0.5613 0.29667 0.0
H981 H 0.93228 0.50301 0.26299 0.0
H982 H 0.87484 0.45653 0.23895 0.0
H983 H 0.85869 0.36005 0.27641 0.0
H984 H 0.91652 0.4059 0.30052 0.0
H985 H 0.95371 0.53999 0.3984 0.0
H986 H 0.9441 0.52538 0.35928 0.0
H987 H 0.03749 0.49749 0.3618 0.0
H988 H 0.04762 0.51288 0.40064 0.0
H989 H 0.93326 0.46543 0.32693 0.0
H990 H 0.10443 0.5565 0.32909 0.0
H991 H 0.15967 0.60715 0.35307 0.0
H992 H 0.08386 0.64753 0.37676 0.0
H993 H 0.02839 0.59753 0.35274 0.0
C994 C 0.01776 0.47143 0.23782 0.0
C995 C 0.03303 0.50449 0.22527 0.0
C996 C 1.00566 0.4735 0.25834 0.0
C997 C 1.0088 0.50872 0.26667 0.0
C998 C 0.02316 0.5415 0.25392 0.0
C999 C 0.03495 0.53932 0.2333 0.0
C1000 C 1.0008 0.51224 0.28939 0.0
C1001 C 0.03212 0.54055 0.3032 0.0
C1002 C 0.96413 0.48577 0.29783 0.0
C1003 C 0.92902 0.45793 0.28352 0.0
C1004 C 0.91671 0.47184 0.26603 0.0
C1005 C 0.88402 0.4456 0.25239 0.0
C1006 C 0.86315 0.40533 0.25612 0.0
C1007 C 0.8749 0.39126 0.27354 0.0
C1008 C 0.90762 0.41739 0.28723 0.0
C1009 C 0.97095 0.52915 0.39062 0.0
C1010 C 1.00142 0.52756 0.40232 0.0
C1011 C 0.96548 0.52083 0.36834 0.0
C1012 C 0.99049 0.51093 0.35767 0.0
C1013 C 0.0181 0.50538 0.36975 0.0
C1014 C 0.02382 0.51404 0.39189 0.0
C1015 C 0.99304 0.51327 0.33409 0.0
C1016 C 0.96083 0.4863 0.32023 0.0
C1017 C 0.02849 0.5418 0.32538 0.0
C1018 C 0.06221 0.57307 0.33922 0.0
C1019 C 0.09966 0.57639 0.3393 0.0
C1020 C 0.13098 0.60493 0.35294 0.0
C1021 C 0.12524 0.63044 0.3665 0.0
C1022 C 0.08824 0.62766 0.36633 0.0
C1023 C 0.05686 0.59921 0.35271 0.0
H1024 H 0.14947 0.65241 0.3771 0.0
H1025 H 0.83785 0.38503 0.24555 0.0
loop_
_geom_bond_atom_site_label_1
_geom_bond_atom_site_label_2
_geom_bond_distance
_geom_bond_site_symmetry_2
_ccdc_geom_bond_type
Dy0 O4 2.398 . S
Dy0 O5 2.491 . S
Dy0 O6 2.403 . S
Dy0 O7 2.664 . S
Dy0 O11 2.326 . S
Dy0 O15 2.310 . S
Dy0 O16 2.351 . S
C1 O12 1.185 . S
C1 O13 1.355 . S
C2 O4 1.185 . S
C2 O5 1.355 . S
Dy3 O7 2.310 . S
Dy3 O10 2.351 . S
Dy3 O12 2.398 1_455 S
Dy3 O13 2.491 1_455 S
Dy3 O14 2.403 . S
Dy3 O15 2.664 . S
Dy3 O17 2.326 1_455 S
O4 Dy0 2.398 . S
O4 C2 1.185 . S
O5 Dy0 2.491 . S
O5 C2 1.355 . S
O6 Dy0 2.403 . S
O6 C8 1.254 . S
O7 Dy0 2.664 . S
O7 Dy3 2.310 . S
O7 C8 1.268 . S
C8 O6 1.254 . S
C8 O7 1.268 . S
C9 O14 1.254 . S
C9 O15 1.268 . S
O10 Dy3 2.351 . S
O10 C18 1.249 . S
O11 Dy0 2.326 . S
O11 C18 1.267 . S
O12 C1 1.185 . S
O12 Dy3 2.398 1_655 S
O13 C1 1.355 . S
O13 Dy3 2.491 1_655 S
O14 Dy3 2.403 . S
O14 C9 1.254 . S
O15 Dy0 2.310 . S
O15 Dy3 2.664 . S
O15 C9 1.268 . S
O16 Dy0 2.351 . S
O16 C19 1.249 1_455 S
O17 Dy3 2.326 1_655 S
O17 C19 1.267 . S
C18 O10 1.249 . S
C18 O11 1.267 . S
C19 O16 1.249 1_655 S
C19 O17 1.267 . S
Dy20 O24 2.398 . S
Dy20 O25 2.491 . S
Dy20 O26 2.403 1_565 S
Dy20 O27 2.664 1_565 S
Dy20 O31 2.326 . S
Dy20 O35 2.310 1_565 S
Dy20 O36 2.351 1_565 S
C21 O32 1.185 . S
C21 O33 1.355 . S
C22 O24 1.185 . S
C22 O25 1.355 . S
Dy23 O27 2.310 . S
Dy23 O30 2.351 1_545 S
Dy23 O32 2.398 . S
Dy23 O33 2.491 . S
Dy23 O34 2.403 . S
Dy23 O35 2.664 . S
Dy23 O37 2.326 . S
O24 Dy20 2.398 . S
O24 C22 1.185 . S
O25 Dy20 2.491 . S
O25 C22 1.355 . S
O26 Dy20 2.403 1_545 S
O26 C28 1.254 . S
O27 Dy20 2.664 1_545 S
O27 Dy23 2.310 . S
O27 C28 1.268 . S
C28 O26 1.254 . S
C28 O27 1.268 . S
C29 O34 1.254 . S
C29 O35 1.268 . S
O30 Dy23 2.351 1_565 S
O30 C38 1.249 . S
O31 Dy20 2.326 . S
O31 C38 1.267 . S
O32 C21 1.185 . S
O32 Dy23 2.398 . S
O33 C21 1.355 . S
O33 Dy23 2.491 . S
O34 Dy23 2.403 . S
O34 C29 1.254 . S
O35 Dy20 2.310 1_545 S
O35 Dy23 2.664 . S
O35 C29 1.268 . S
O36 Dy20 2.351 1_545 S
O36 C39 1.249 . S
O37 Dy23 2.326 . S
O37 C39 1.267 . S
C38 O30 1.249 . S
C38 O31 1.267 . S
C39 O36 1.249 . S
C39 O37 1.267 . S
Dy40 O44 2.398 . S
Dy40 O45 2.491 . S
Dy40 O46 2.403 . S
Dy40 O47 2.664 . S
Dy40 O51 2.326 . S
Dy40 O55 2.310 . S
Dy40 O56 2.351 . S
C41 O52 1.185 . S
C41 O53 1.355 . S
C42 O44 1.185 . S
C42 O45 1.355 . S
Dy43 O47 2.310 . S
Dy43 O50 2.351 . S
Dy43 O52 2.398 . S
Dy43 O53 2.491 . S
Dy43 O54 2.403 . S
Dy43 O55 2.664 . S
Dy43 O57 2.326 . S
O44 Dy40 2.398 . S
O44 C42 1.185 . S
O45 Dy40 2.491 . S
O45 C42 1.355 . S
O46 Dy40 2.403 . S
O46 C48 1.254 . S
O47 Dy40 2.664 . S
O47 Dy43 2.310 . S
O47 C48 1.268 . S
C48 O46 1.254 . S
C48 O47 1.268 . S
C49 O54 1.254 . S
C49 O55 1.268 . S
O50 Dy43 2.351 . S
O50 C58 1.249 . S
O51 Dy40 2.326 . S
O51 C58 1.267 . S
O52 C41 1.185 . S
O52 Dy43 2.398 . S
O53 C41 1.355 . S
O53 Dy43 2.491 . S
O54 Dy43 2.403 . S
O54 C49 1.254 . S
O55 Dy40 2.310 . S
O55 Dy43 2.664 . S
O55 C49 1.268 . S
O56 Dy40 2.351 . S
O56 C59 1.249 . S
O57 Dy43 2.326 . S
O57 C59 1.267 . S
C58 O50 1.249 . S
C58 O51 1.267 . S
C59 O56 1.249 . S
C59 O57 1.267 . S
H60 C63 0.929 . S
H61 C66 0.929 . S
H62 C68 0.930 . S
C63 H60 0.929 . S
C63 C64 1.398 . S
C63 C65 1.396 1_565 S
C64 C63 1.398 . S
C64 C68 1.407 . S
C65 C63 1.396 1_545 S
C65 C66 1.394 . S
C66 H61 0.929 . S
C66 C65 1.394 . S
C66 C67 1.382 . S
C67 C66 1.382 . S
C67 C68 1.392 1_545 S
C67 N69 1.420 . S
C68 H62 0.930 . S
C68 C64 1.407 . S
C68 C67 1.392 1_565 S
N69 C67 1.420 . S
N69 C70 1.244 . S
C70 N69 1.244 . S
H71 C74 0.929 . S
H72 C77 0.929 . S
H73 C79 0.930 . S
C74 H71 0.929 . S
C74 C75 1.398 . S
C74 C76 1.396 . S
C75 C74 1.398 . S
C75 C79 1.407 . S
C76 C74 1.396 . S
C76 C77 1.394 . S
C77 H72 0.929 . S
C77 C76 1.394 . S
C77 C78 1.382 . S
C78 C77 1.382 . S
C78 C79 1.392 . S
C78 N80 1.420 . S
C79 H73 0.930 . S
C79 C75 1.407 . S
C79 C78 1.392 . S
N80 C78 1.420 . S
N80 C81 1.244 . S
C81 N80 1.244 . S
H82 C85 0.929 . S
H83 C88 0.929 . S
H84 C90 0.930 . S
C85 H82 0.929 . S
C85 C86 1.398 . S
C85 C87 1.396 . S
C86 C85 1.398 . S
C86 C90 1.407 . S
C87 C85 1.396 . S
C87 C88 1.394 . S
C88 H83 0.929 . S
C88 C87 1.394 . S
C88 C89 1.382 . S
C89 C88 1.382 . S
C89 C90 1.392 . S
C89 N91 1.420 . S
C90 H84 0.930 . S
C90 C86 1.407 . S
C90 C89 1.392 . S
N91 C89 1.420 . S
N91 C92 1.244 . S
C92 N91 1.244 . S
H93 C96 0.929 . S
H94 C99 0.929 . S
H95 C101 0.930 . S
C96 H93 0.929 . S
C96 C97 1.398 . S
C96 C98 1.396 . S
C97 C96 1.398 . S
C97 C101 1.407 . S
C98 C96 1.396 . S
C98 C99 1.394 1_455 S
C99 H94 0.929 . S
C99 C98 1.394 1_655 S
C99 C100 1.382 . S
C100 C99 1.382 . S
C100 C101 1.392 1_655 S
C100 N102 1.420 . S
C101 H95 0.930 . S
C101 C97 1.407 . S
C101 C100 1.392 1_455 S
N102 C100 1.420 . S
N102 C103 1.244 . S
C103 N102 1.244 . S
H104 C107 0.929 . S
H105 C110 0.929 1_565 S
H106 C112 0.930 . S
C107 H104 0.929 . S
C107 C108 1.398 . S
C107 C109 1.396 . S
C108 C107 1.398 . S
C108 C112 1.407 . S
C109 C107 1.396 . S
C109 C110 1.394 . S
C110 H105 0.929 1_545 S
C110 C109 1.394 . S
C110 C111 1.382 . S
C111 C110 1.382 . S
C111 C112 1.392 . S
C111 N113 1.392 1_545 S
C112 H106 0.930 . S
C112 C108 1.407 . S
C112 C111 1.392 . S
N113 C111 1.392 1_565 S
N113 C114 1.274 . S
C114 N113 1.274 . S
H115 C118 0.929 . S
H116 C121 0.929 . S
H117 C123 0.930 . S
C118 H115 0.929 . S
C118 C119 1.398 . S
C118 C120 1.396 . S
C119 C118 1.398 . S
C119 C123 1.407 . S
C120 C118 1.396 . S
C120 C121 1.394 . S
C121 H116 0.929 . S
C121 C120 1.394 . S
C121 C122 1.382 . S
C122 C121 1.382 . S
C122 C123 1.392 . S
C122 N124 1.420 . S
C123 H117 0.930 . S
C123 C119 1.407 . S
C123 C122 1.392 . S
N124 C122 1.420 . S
N124 C125 1.244 . S
C125 N124 1.244 . S
H126 C144 0.951 . S
H127 C146 0.951 . S
H128 C148 0.950 . S
H129 C149 0.950 . S
H130 C151 0.950 . S
H131 C154 0.950 . S
H132 C155 0.950 . S
H133 C157 0.950 . S
H134 C158 0.950 . S
H135 C159 0.951 . S
H136 C161 0.951 . S
H137 C163 0.950 . S
H138 C164 0.950 . S
H139 C166 0.950 . S
H140 C169 0.950 . S
H141 C170 0.950 . S
H142 C172 0.950 . S
H143 C173 0.950 . S
C144 H126 0.951 . S
C144 C145 1.366 . S
C144 C146 1.388 . S
C145 C144 1.366 . S
C145 C149 1.385 . S
C146 H127 0.951 . S
C146 C144 1.388 . S
C146 C147 1.366 . S
C147 C146 1.366 . S
C147 C148 1.414 . S
C147 C150 1.499 . S
C148 H128 0.950 . S
C148 C147 1.414 . S
C148 C149 1.374 . S
C149 H129 0.950 . S
C149 C145 1.385 . S
C149 C148 1.374 . S
C150 C147 1.499 . S
C150 C151 1.373 . S
C150 C152 1.389 . S
C151 H130 0.950 . S
C151 C150 1.373 . S
C151 C167 1.377 . S
C152 C150 1.389 . S
C152 C153 1.524 . S
C152 C166 1.377 . S
C153 C152 1.524 . S
C153 C154 1.397 . S
C153 C158 1.363 . S
C154 H131 0.950 . S
C154 C153 1.397 . S
C154 C155 1.334 . S
C155 H132 0.950 . S
C155 C154 1.334 . S
C155 C156 1.287 . S
C156 C155 1.287 . S
C156 C157 1.524 . S
C156 H175 0.913 . S
C157 H133 0.950 . S
C157 C156 1.524 . S
C157 C158 1.415 . S
C158 H134 0.950 . S
C158 C153 1.363 . S
C158 C157 1.415 . S
C159 H135 0.951 . S
C159 C160 1.366 . S
C159 C161 1.388 . S
C160 C159 1.366 . S
C160 C164 1.385 . S
C161 H136 0.951 . S
C161 C159 1.388 . S
C161 C162 1.366 . S
C162 C161 1.366 . S
C162 C163 1.414 . S
C162 C165 1.499 . S
C163 H137 0.950 . S
C163 C162 1.414 . S
C163 C164 1.374 . S
C164 H138 0.950 . S
C164 C160 1.385 . S
C164 C163 1.374 . S
C165 C162 1.499 . S
C165 C166 1.373 . S
C165 C167 1.389 . S
C166 H139 0.950 . S
C166 C152 1.377 . S
C166 C165 1.373 . S
C167 C151 1.377 . S
C167 C165 1.389 . S
C167 C168 1.524 . S
C168 C167 1.524 . S
C168 C169 1.397 . S
C168 C173 1.363 . S
C169 H140 0.950 . S
C169 C168 1.397 . S
C169 C170 1.334 . S
C170 H141 0.950 . S
C170 C169 1.334 . S
C170 C171 1.287 . S
C171 C170 1.287 . S
C171 C172 1.524 . S
C171 H174 0.999 . S
C172 H142 0.950 . S
C172 C171 1.524 . S
C172 C173 1.415 . S
C173 H143 0.950 . S
C173 C168 1.363 . S
C173 C172 1.415 . S
H174 C171 0.999 . S
H175 C156 0.913 . S
H176 C194 0.951 . S
H177 C196 0.951 . S
H178 C198 0.950 . S
H179 C199 0.950 . S
H180 C201 0.950 . S
H181 C204 0.950 . S
H182 C205 0.950 . S
H183 C207 0.950 . S
H184 C208 0.950 . S
H185 C209 0.951 . S
H186 C211 0.951 . S
H187 C213 0.950 . S
H188 C214 0.950 . S
H189 C216 0.950 . S
H190 C219 0.950 . S
H191 C220 0.950 . S
H192 C222 0.950 . S
H193 C223 0.950 . S
C194 H176 0.951 . S
C194 C195 1.366 . S
C194 C196 1.388 . S
C195 C194 1.366 . S
C195 C199 1.385 . S
C196 H177 0.951 . S
C196 C194 1.388 . S
C196 C197 1.366 . S
C197 C196 1.366 . S
C197 C198 1.414 . S
C197 C200 1.499 . S
C198 H178 0.950 . S
C198 C197 1.414 . S
C198 C199 1.374 . S
C199 H179 0.950 . S
C199 C195 1.385 . S
C199 C198 1.374 . S
C200 C197 1.499 . S
C200 C201 1.373 . S
C200 C202 1.389 . S
C201 H180 0.950 . S
C201 C200 1.373 . S
C201 C217 1.377 . S
C202 C200 1.389 . S
C202 C203 1.524 . S
C202 C216 1.377 . S
C203 C202 1.524 . S
C203 C204 1.397 . S
C203 C208 1.363 . S
C204 H181 0.950 . S
C204 C203 1.397 . S
C204 C205 1.334 . S
C205 H182 0.950 . S
C205 C204 1.334 . S
C205 C206 1.287 . S
C206 C205 1.287 . S
C206 C207 1.524 . S
C206 H225 0.913 . S
C207 H183 0.950 . S
C207 C206 1.524 . S
C207 C208 1.415 . S
C208 H184 0.950 . S
C208 C203 1.363 . S
C208 C207 1.415 . S
C209 H185 0.951 . S
C209 C210 1.366 . S
C209 C211 1.388 . S
C210 C209 1.366 . S
C210 C214 1.385 . S
C211 H186 0.951 . S
C211 C209 1.388 . S
C211 C212 1.366 . S
C212 C211 1.366 . S
C212 C213 1.414 . S
C212 C215 1.499 . S
C213 H187 0.950 . S
C213 C212 1.414 . S
C213 C214 1.374 . S
C214 H188 0.950 . S
C214 C210 1.385 . S
C214 C213 1.374 . S
C215 C212 1.499 . S
C215 C216 1.373 . S
C215 C217 1.389 . S
C216 H189 0.950 . S
C216 C202 1.377 . S
C216 C215 1.373 . S
C217 C201 1.377 . S
C217 C215 1.389 . S
C217 C218 1.524 . S
C218 C217 1.524 . S
C218 C219 1.397 . S
C218 C223 1.363 . S
C219 H190 0.950 . S
C219 C218 1.397 . S
C219 C220 1.334 . S
C220 H191 0.950 . S
C220 C219 1.334 . S
C220 C221 1.287 . S
C221 C220 1.287 . S
C221 C222 1.524 . S
C221 H224 0.999 . S
C222 H192 0.950 . S
C222 C221 1.524 . S
C222 C223 1.415 . S
C223 H193 0.950 . S
C223 C218 1.363 . S
C223 C222 1.415 . S
H224 C221 0.999 . S
H225 C206 0.913 . S
H226 C244 0.951 . S
H227 C246 0.951 . S
H228 C248 0.950 . S
H229 C249 0.950 . S
H230 C251 0.950 . S
H231 C254 0.950 . S
H232 C255 0.950 . S
H233 C257 0.950 . S
H234 C258 0.950 . S
H235 C259 0.951 . S
H236 C261 0.951 . S
H237 C263 0.950 . S
H238 C264 0.950 . S
H239 C266 0.950 . S
H240 C269 0.950 . S
H241 C270 0.950 . S
H242 C272 0.950 . S
H243 C273 0.950 . S
C244 H226 0.951 . S
C244 C245 1.366 . S
C244 C246 1.388 . S
C245 C244 1.366 . S
C245 C249 1.385 . S
C246 H227 0.951 . S
C246 C244 1.388 . S
C246 C247 1.366 . S
C247 C246 1.366 . S
C247 C248 1.414 . S
C247 C250 1.499 . S
C248 H228 0.950 . S
C248 C247 1.414 . S
C248 C249 1.374 . S
C249 H229 0.950 . S
C249 C245 1.385 . S
C249 C248 1.374 . S
C250 C247 1.499 . S
C250 C251 1.373 . S
C250 C252 1.389 . S
C251 H230 0.950 . S
C251 C250 1.373 . S
C251 C267 1.377 . S
C252 C250 1.389 . S
C252 C253 1.524 . S
C252 C266 1.377 . S
C253 C252 1.524 . S
C253 C254 1.397 . S
C253 C258 1.363 . S
C254 H231 0.950 . S
C254 C253 1.397 . S
C254 C255 1.334 . S
C255 H232 0.950 . S
C255 C254 1.334 . S
C255 C256 1.287 . S
C256 C255 1.287 . S
C256 C257 1.524 . S
C256 H275 0.913 . S
C257 H233 0.950 . S
C257 C256 1.524 . S
C257 C258 1.415 . S
C258 H234 0.950 . S
C258 C253 1.363 . S
C258 C257 1.415 . S
C259 H235 0.951 . S
C259 C260 1.366 . S
C259 C261 1.388 . S
C260 C259 1.366 . S
C260 C264 1.385 . S
C261 H236 0.951 . S
C261 C259 1.388 . S
C261 C262 1.366 . S
C262 C261 1.366 . S
C262 C263 1.414 . S
C262 C265 1.499 . S
C263 H237 0.950 . S
C263 C262 1.414 . S
C263 C264 1.374 . S
C264 H238 0.950 . S
C264 C260 1.385 . S
C264 C263 1.374 . S
C265 C262 1.499 . S
C265 C266 1.373 . S
C265 C267 1.389 . S
C266 H239 0.950 . S
C266 C252 1.377 . S
C266 C265 1.373 . S
C267 C251 1.377 . S
C267 C265 1.389 . S
C267 C268 1.524 . S
C268 C267 1.524 . S
C268 C269 1.397 . S
C268 C273 1.363 . S
C269 H240 0.950 . S
C269 C268 1.397 . S
C269 C270 1.334 . S
C270 H241 0.950 . S
C270 C269 1.334 . S
C270 C271 1.287 . S
C271 C270 1.287 . S
C271 C272 1.524 . S
C271 H274 0.999 . S
C272 H242 0.950 . S
C272 C271 1.524 . S
C272 C273 1.415 . S
C273 H243 0.950 . S
C273 C268 1.363 . S
C273 C272 1.415 . S
H274 C271 0.999 . S
H275 C256 0.913 . S
H276 C294 0.951 . S
H277 C296 0.951 . S
H278 C298 0.950 . S
H279 C299 0.950 . S
H280 C301 0.950 . S
H281 C304 0.950 . S
H282 C305 0.950 . S
H283 C307 0.950 . S
H284 C308 0.950 . S
H285 C309 0.951 . S
H286 C311 0.951 . S
H287 C313 0.950 . S
H288 C314 0.950 . S
H289 C316 0.950 . S
H290 C319 0.950 . S
H291 C320 0.950 . S
H292 C322 0.950 . S
H293 C323 0.950 . S
C294 H276 0.951 . S
C294 C295 1.366 . S
C294 C296 1.388 . S
C295 C294 1.366 . S
C295 C299 1.385 . S
C296 H277 0.951 . S
C296 C294 1.388 . S
C296 C297 1.366 . S
C297 C296 1.366 . S
C297 C298 1.414 . S
C297 C300 1.499 . S
C298 H278 0.950 . S
C298 C297 1.414 . S
C298 C299 1.374 . S
C299 H279 0.950 . S
C299 C295 1.385 . S
C299 C298 1.374 . S
C300 C297 1.499 . S
C300 C301 1.373 . S
C300 C302 1.389 . S
C301 H280 0.950 . S
C301 C300 1.373 . S
C301 C317 1.377 . S
C302 C300 1.389 . S
C302 C303 1.524 . S
C302 C316 1.377 . S
C303 C302 1.524 . S
C303 C304 1.397 . S
C303 C308 1.363 . S
C304 H281 0.950 . S
C304 C303 1.397 . S
C304 C305 1.334 . S
C305 H282 0.950 . S
C305 C304 1.334 . S
C305 C306 1.287 . S
C306 C305 1.287 . S
C306 C307 1.524 . S
C306 H325 0.913 . S
C307 H283 0.950 . S
C307 C306 1.524 . S
C307 C308 1.415 . S
C308 H284 0.950 . S
C308 C303 1.363 . S
C308 C307 1.415 . S
C309 H285 0.951 . S
C309 C310 1.366 . S
C309 C311 1.388 . S
C310 C309 1.366 . S
C310 C314 1.385 . S
C311 H286 0.951 . S
C311 C309 1.388 . S
C311 C312 1.366 . S
C312 C311 1.366 . S
C312 C313 1.414 . S
C312 C315 1.499 . S
C313 H287 0.950 . S
C313 C312 1.414 . S
C313 C314 1.374 . S
C314 H288 0.950 . S
C314 C310 1.385 . S
C314 C313 1.374 . S
C315 C312 1.499 . S
C315 C316 1.373 . S
C315 C317 1.389 . S
C316 H289 0.950 . S
C316 C302 1.377 . S
C316 C315 1.373 . S
C317 C301 1.377 . S
C317 C315 1.389 . S
C317 C318 1.524 . S
C318 C317 1.524 . S
C318 C319 1.397 . S
C318 C323 1.363 . S
C319 H290 0.950 . S
C319 C318 1.397 . S
C319 C320 1.334 . S
C320 H291 0.950 . S
C320 C319 1.334 . S
C320 C321 1.287 . S
C321 C320 1.287 . S
C321 C322 1.524 . S
C321 H324 0.999 . S
C322 H292 0.950 . S
C322 C321 1.524 . S
C322 C323 1.415 . S
C323 H293 0.950 . S
C323 C318 1.363 . S
C323 C322 1.415 . S
H324 C321 0.999 . S
H325 C306 0.913 . S
H326 C344 0.951 . S
H327 C346 0.951 . S
H328 C348 0.950 . S
H329 C349 0.950 . S
H330 C351 0.950 . S
H331 C354 0.950 . S
H332 C355 0.950 . S
H333 C357 0.950 . S
H334 C358 0.950 . S
H335 C359 0.951 . S
H336 C361 0.951 . S
H337 C363 0.950 . S
H338 C364 0.950 . S
H339 C366 0.950 . S
H340 C369 0.950 . S
H341 C370 0.950 . S
H342 C372 0.950 . S
H343 C373 0.950 . S
C344 H326 0.951 . S
C344 C345 1.366 . S
C344 C346 1.388 . S
C345 C344 1.366 . S
C345 C349 1.385 . S
C346 H327 0.951 . S
C346 C344 1.388 . S
C346 C347 1.366 . S
C347 C346 1.366 . S
C347 C348 1.414 . S
C347 C350 1.499 . S
C348 H328 0.950 . S
C348 C347 1.414 . S
C348 C349 1.374 . S
C349 H329 0.950 . S
C349 C345 1.385 . S
C349 C348 1.374 . S
C350 C347 1.499 . S
C350 C351 1.373 . S
C350 C352 1.389 . S
C351 H330 0.950 . S
C351 C350 1.373 . S
C351 C367 1.377 . S
C352 C350 1.389 . S
C352 C353 1.524 . S
C352 C366 1.377 . S
C353 C352 1.524 . S
C353 C354 1.397 . S
C353 C358 1.363 . S
C354 H331 0.950 . S
C354 C353 1.397 . S
C354 C355 1.334 . S
C355 H332 0.950 . S
C355 C354 1.334 . S
C355 C356 1.287 . S
C356 C355 1.287 . S
C356 C357 1.524 . S
C356 H375 0.913 . S
C357 H333 0.950 . S
C357 C356 1.524 . S
C357 C358 1.415 . S
C358 H334 0.950 . S
C358 C353 1.363 . S
C358 C357 1.415 . S
C359 H335 0.951 . S
C359 C360 1.366 . S
C359 C361 1.388 . S
C360 C359 1.366 . S
C360 C364 1.385 . S
C361 H336 0.951 . S
C361 C359 1.388 . S
C361 C362 1.366 . S
C362 C361 1.366 . S
C362 C363 1.414 . S
C362 C365 1.499 . S
C363 H337 0.950 . S
C363 C362 1.414 . S
C363 C364 1.374 . S
C364 H338 0.950 . S
C364 C360 1.385 . S
C364 C363 1.374 . S
C365 C362 1.499 . S
C365 C366 1.373 . S
C365 C367 1.389 . S
C366 H339 0.950 . S
C366 C352 1.377 . S
C366 C365 1.373 . S
C367 C351 1.377 . S
C367 C365 1.389 . S
C367 C368 1.524 . S
C368 C367 1.524 . S
C368 C369 1.397 . S
C368 C373 1.363 . S
C369 H340 0.950 . S
C369 C368 1.397 . S
C369 C370 1.334 . S
C370 H341 0.950 . S
C370 C369 1.334 . S
C370 C371 1.287 . S
C371 C370 1.287 . S
C371 C372 1.524 . S
C371 H374 0.999 . S
C372 H342 0.950 . S
C372 C371 1.524 . S
C372 C373 1.415 . S
C373 H343 0.950 . S
C373 C368 1.363 . S
C373 C372 1.415 . S
H374 C371 0.999 . S
H375 C356 0.913 . S
H376 C394 0.951 . S
H377 C396 0.951 . S
H378 C398 0.950 . S
H379 C399 0.950 . S
H380 C401 0.950 . S
H381 C404 0.950 . S
H382 C405 0.950 . S
H383 C407 0.950 . S
H384 C408 0.950 . S
H385 C409 0.951 . S
H386 C411 0.951 . S
H387 C413 0.950 . S
H388 C414 0.950 . S
H389 C416 0.950 . S
H390 C419 0.950 . S
H391 C420 0.950 . S
H392 C422 0.950 . S
H393 C423 0.950 . S
C394 H376 0.951 . S
C394 C395 1.366 . S
C394 C396 1.388 . S
C395 C394 1.366 . S
C395 C399 1.385 . S
C396 H377 0.951 . S
C396 C394 1.388 . S
C396 C397 1.366 . S
C397 C396 1.366 . S
C397 C398 1.414 . S
C397 C400 1.499 . S
C398 H378 0.950 . S
C398 C397 1.414 . S
C398 C399 1.374 . S
C399 H379 0.950 . S
C399 C395 1.385 . S
C399 C398 1.374 . S
C400 C397 1.499 . S
C400 C401 1.373 . S
C400 C402 1.389 . S
C401 H380 0.950 . S
C401 C400 1.373 . S
C401 C417 1.377 . S
C402 C400 1.389 . S
C402 C403 1.524 . S
C402 C416 1.377 . S
C403 C402 1.524 . S
C403 C404 1.397 . S
C403 C408 1.363 . S
C404 H381 0.950 . S
C404 C403 1.397 . S
C404 C405 1.334 . S
C405 H382 0.950 . S
C405 C404 1.334 . S
C405 C406 1.287 . S
C406 C405 1.287 . S
C406 C407 1.524 . S
C406 H425 0.913 . S
C407 H383 0.950 . S
C407 C406 1.524 . S
C407 C408 1.415 . S
C408 H384 0.950 . S
C408 C403 1.363 . S
C408 C407 1.415 . S
C409 H385 0.951 . S
C409 C410 1.366 . S
C409 C411 1.388 . S
C410 C409 1.366 . S
C410 C414 1.385 . S
C411 H386 0.951 . S
C411 C409 1.388 . S
C411 C412 1.366 . S
C412 C411 1.366 . S
C412 C413 1.414 . S
C412 C415 1.499 . S
C413 H387 0.950 . S
C413 C412 1.414 . S
C413 C414 1.374 . S
C414 H388 0.950 . S
C414 C410 1.385 . S
C414 C413 1.374 . S
C415 C412 1.499 . S
C415 C416 1.373 . S
C415 C417 1.389 . S
C416 H389 0.950 . S
C416 C402 1.377 . S
C416 C415 1.373 . S
C417 C401 1.377 . S
C417 C415 1.389 . S
C417 C418 1.524 . S
C418 C417 1.524 . S
C418 C419 1.397 . S
C418 C423 1.363 . S
C419 H390 0.950 . S
C419 C418 1.397 . S
C419 C420 1.334 . S
C420 H391 0.950 . S
C420 C419 1.334 . S
C420 C421 1.287 . S
C421 C420 1.287 . S
C421 C422 1.524 . S
C421 H424 0.999 . S
C422 H392 0.950 . S
C422 C421 1.524 . S
C422 C423 1.415 . S
C423 H393 0.950 . S
C423 C418 1.363 . S
C423 C422 1.415 . S
H424 C421 0.999 . S
H425 C406 0.913 . S
H426 C444 0.951 . S
H427 C446 0.951 . S
H428 C448 0.950 . S
H429 C449 0.950 . S
H430 C451 0.950 . S
H431 C454 0.950 . S
H432 C455 0.950 . S
H433 C457 0.950 . S
H434 C458 0.950 . S
H435 C459 0.951 . S
H436 C461 0.951 . S
H437 C463 0.950 . S
H438 C464 0.950 . S
H439 C466 0.950 . S
H440 C469 0.950 . S
H441 C470 0.950 . S
H442 C472 0.950 . S
H443 C473 0.950 . S
C444 H426 0.951 . S
C444 C445 1.366 . S
C444 C446 1.388 . S
C445 C444 1.366 . S
C445 C449 1.385 . S
C446 H427 0.951 . S
C446 C444 1.388 . S
C446 C447 1.366 . S
C447 C446 1.366 . S
C447 C448 1.414 . S
C447 C450 1.499 . S
C448 H428 0.950 . S
C448 C447 1.414 . S
C448 C449 1.374 . S
C449 H429 0.950 . S
C449 C445 1.385 . S
C449 C448 1.374 . S
C450 C447 1.499 . S
C450 C451 1.373 . S
C450 C452 1.389 . S
C451 H430 0.950 . S
C451 C450 1.373 . S
C451 C467 1.377 . S
C452 C450 1.389 . S
C452 C453 1.524 . S
C452 C466 1.377 . S
C453 C452 1.524 . S
C453 C454 1.397 . S
C453 C458 1.363 . S
C454 H431 0.950 . S
C454 C453 1.397 . S
C454 C455 1.334 . S
C455 H432 0.950 . S
C455 C454 1.334 . S
C455 C456 1.287 . S
C456 C455 1.287 . S
C456 C457 1.524 . S
C456 H475 0.913 . S
C457 H433 0.950 . S
C457 C456 1.524 . S
C457 C458 1.415 . S
C458 H434 0.950 . S
C458 C453 1.363 . S
C458 C457 1.415 . S
C459 H435 0.951 . S
C459 C460 1.366 . S
C459 C461 1.388 . S
C460 C459 1.366 . S
C460 C464 1.385 . S
C461 H436 0.951 . S
C461 C459 1.388 . S
C461 C462 1.366 . S
C462 C461 1.366 . S
C462 C463 1.414 . S
C462 C465 1.499 . S
C463 H437 0.950 . S
C463 C462 1.414 . S
C463 C464 1.374 . S
C464 H438 0.950 . S
C464 C460 1.385 . S
C464 C463 1.374 . S
C465 C462 1.499 . S
C465 C466 1.373 . S
C465 C467 1.389 . S
C466 H439 0.950 . S
C466 C452 1.377 . S
C466 C465 1.373 . S
C467 C451 1.377 . S
C467 C465 1.389 . S
C467 C468 1.524 . S
C468 C467 1.524 . S
C468 C469 1.397 . S
C468 C473 1.363 . S
C469 H440 0.950 . S
C469 C468 1.397 . S
C469 C470 1.334 . S
C470 H441 0.950 . S
C470 C469 1.334 . S
C470 C471 1.287 . S
C471 C470 1.287 . S
C471 C472 1.524 . S
C471 H474 0.999 . S
C472 H442 0.950 . S
C472 C471 1.524 . S
C472 C473 1.415 . S
C473 H443 0.950 . S
C473 C468 1.363 . S
C473 C472 1.415 . S
H474 C471 0.999 . S
H475 C456 0.913 . S
H476 C494 0.951 . S
H477 C496 0.951 . S
H478 C498 0.950 . S
H479 C499 0.950 . S
H480 C501 0.950 . S
H481 C504 0.950 . S
H482 C505 0.950 . S
H483 C507 0.950 . S
H484 C508 0.950 . S
H485 C509 0.951 . S
H486 C511 0.951 . S
H487 C513 0.950 . S
H488 C514 0.950 1_455 S
H489 C516 0.950 . S
H490 C519 0.950 . S
H491 C520 0.950 . S
H492 C522 0.950 . S
H493 C523 0.950 . S
C494 H476 0.951 . S
C494 C495 1.366 . S
C494 C496 1.388 . S
C495 C494 1.366 . S
C495 C499 1.385 . S
C496 H477 0.951 . S
C496 C494 1.388 . S
C496 C497 1.366 . S
C497 C496 1.366 . S
C497 C498 1.414 . S
C497 C500 1.499 . S
C498 H478 0.950 . S
C498 C497 1.414 . S
C498 C499 1.374 . S
C499 H479 0.950 . S
C499 C495 1.385 . S
C499 C498 1.374 . S
C500 C497 1.499 . S
C500 C501 1.373 . S
C500 C502 1.389 . S
C501 H480 0.950 . S
C501 C500 1.373 . S
C501 C517 1.377 . S
C502 C500 1.389 . S
C502 C503 1.524 . S
C502 C516 1.377 . S
C503 C502 1.524 . S
C503 C504 1.397 . S
C503 C508 1.363 . S
C504 H481 0.950 . S
C504 C503 1.397 . S
C504 C505 1.334 . S
C505 H482 0.950 . S
C505 C504 1.334 . S
C505 C506 1.287 . S
C506 C505 1.287 . S
C506 C507 1.524 . S
C506 H525 0.913 . S
C507 H483 0.950 . S
C507 C506 1.524 . S
C507 C508 1.415 . S
C508 H484 0.950 . S
C508 C503 1.363 . S
C508 C507 1.415 . S
C509 H485 0.951 . S
C509 C510 1.366 . S
C509 C511 1.388 . S
C510 C509 1.366 . S
C510 C514 1.385 . S
C511 H486 0.951 . S
C511 C509 1.388 . S
C511 C512 1.366 . S
C512 C511 1.366 . S
C512 C513 1.414 . S
C512 C515 1.499 . S
C513 H487 0.950 . S
C513 C512 1.414 . S
C513 C514 1.374 . S
C514 H488 0.950 1_655 S
C514 C510 1.385 . S
C514 C513 1.374 . S
C515 C512 1.499 . S
C515 C516 1.373 . S
C515 C517 1.389 . S
C516 H489 0.950 . S
C516 C502 1.377 . S
C516 C515 1.373 . S
C517 C501 1.377 . S
C517 C515 1.389 . S
C517 C518 1.524 . S
C518 C517 1.524 . S
C518 C519 1.397 . S
C518 C523 1.363 . S
C519 H490 0.950 . S
C519 C518 1.397 . S
C519 C520 1.334 . S
C520 H491 0.950 . S
C520 C519 1.334 . S
C520 C521 1.287 . S
C521 C520 1.287 . S
C521 C522 1.524 . S
C521 H524 0.999 . S
C522 H492 0.950 . S
C522 C521 1.524 . S
C522 C523 1.415 . S
C523 H493 0.950 . S
C523 C518 1.363 . S
C523 C522 1.415 . S
H524 C521 0.999 . S
H525 C506 0.913 . S
H526 C544 0.951 . S
H527 C546 0.951 . S
H528 C548 0.950 . S
H529 C549 0.950 . S
H530 C551 0.950 . S
H531 C554 0.950 . S
H532 C555 0.950 . S
H533 C557 0.950 . S
H534 C558 0.950 . S
H535 C559 0.951 . S
H536 C561 0.951 . S
H537 C563 0.950 . S
H538 C564 0.950 . S
H539 C566 0.950 . S
H540 C569 0.950 . S
H541 C570 0.950 . S
H542 C572 0.950 . S
H543 C573 0.950 . S
C544 H526 0.951 . S
C544 C545 1.366 . S
C544 C546 1.388 . S
C545 C544 1.366 . S
C545 C549 1.385 . S
C546 H527 0.951 . S
C546 C544 1.388 . S
C546 C547 1.366 . S
C547 C546 1.366 . S
C547 C548 1.414 . S
C547 C550 1.499 . S
C548 H528 0.950 . S
C548 C547 1.414 . S
C548 C549 1.374 . S
C549 H529 0.950 . S
C549 C545 1.385 . S
C549 C548 1.374 . S
C550 C547 1.499 . S
C550 C551 1.373 . S
C550 C552 1.389 . S
C551 H530 0.950 . S
C551 C550 1.373 . S
C551 C567 1.377 . S
C552 C550 1.389 . S
C552 C553 1.524 . S
C552 C566 1.377 . S
C553 C552 1.524 . S
C553 C554 1.397 . S
C553 C558 1.363 . S
C554 H531 0.950 . S
C554 C553 1.397 . S
C554 C555 1.334 . S
C555 H532 0.950 . S
C555 C554 1.334 . S
C555 C556 1.287 . S
C556 C555 1.287 . S
C556 C557 1.524 . S
C556 H575 0.913 . S
C557 H533 0.950 . S
C557 C556 1.524 . S
C557 C558 1.415 . S
C558 H534 0.950 . S
C558 C553 1.363 . S
C558 C557 1.415 . S
C559 H535 0.951 . S
C559 C560 1.366 . S
C559 C561 1.388 . S
C560 C559 1.366 . S
C560 C564 1.385 . S
C561 H536 0.951 . S
C561 C559 1.388 . S
C561 C562 1.366 . S
C562 C561 1.366 . S
C562 C563 1.414 . S
C562 C565 1.499 . S
C563 H537 0.950 . S
C563 C562 1.414 . S
C563 C564 1.374 . S
C564 H538 0.950 . S
C564 C560 1.385 . S
C564 C563 1.374 . S
C565 C562 1.499 . S
C565 C566 1.373 . S
C565 C567 1.389 . S
C566 H539 0.950 . S
C566 C552 1.377 . S
C566 C565 1.373 . S
C567 C551 1.377 . S
C567 C565 1.389 . S
C567 C568 1.524 . S
C568 C567 1.524 . S
C568 C569 1.397 . S
C568 C573 1.363 . S
C569 H540 0.950 . S
C569 C568 1.397 . S
C569 C570 1.334 . S
C570 H541 0.950 . S
C570 C569 1.334 . S
C570 C571 1.287 . S
C571 C570 1.287 . S
C571 C572 1.524 . S
C571 H574 0.999 . S
C572 H542 0.950 . S
C572 C571 1.524 . S
C572 C573 1.415 . S
C573 H543 0.950 . S
C573 C568 1.363 . S
C573 C572 1.415 . S
H574 C571 0.999 . S
H575 C556 0.913 . S
H576 C594 0.951 . S
H577 C596 0.951 . S
H578 C598 0.950 . S
H579 C599 0.950 . S
H580 C601 0.950 . S
H581 C604 0.950 . S
H582 C605 0.950 . S
H583 C607 0.950 . S
H584 C608 0.950 . S
H585 C609 0.951 . S
H586 C611 0.951 . S
H587 C613 0.950 . S
H588 C614 0.950 . S
H589 C616 0.950 . S
H590 C619 0.950 . S
H591 C620 0.950 . S
H592 C622 0.950 . S
H593 C623 0.950 . S
C594 H576 0.951 . S
C594 C595 1.366 . S
C594 C596 1.388 . S
C595 C594 1.366 . S
C595 C599 1.385 . S
C596 H577 0.951 . S
C596 C594 1.388 . S
C596 C597 1.366 . S
C597 C596 1.366 . S
C597 C598 1.414 . S
C597 C600 1.499 . S
C598 H578 0.950 . S
C598 C597 1.414 . S
C598 C599 1.374 . S
C599 H579 0.950 . S
C599 C595 1.385 . S
C599 C598 1.374 . S
C600 C597 1.499 . S
C600 C601 1.373 . S
C600 C602 1.389 . S
C601 H580 0.950 . S
C601 C600 1.373 . S
C601 C617 1.377 . S
C602 C600 1.389 . S
C602 C603 1.524 . S
C602 C616 1.377 . S
C603 C602 1.524 . S
C603 C604 1.397 . S
C603 C608 1.363 . S
C604 H581 0.950 . S
C604 C603 1.397 . S
C604 C605 1.334 . S
C605 H582 0.950 . S
C605 C604 1.334 . S
C605 C606 1.287 . S
C606 C605 1.287 . S
C606 C607 1.524 . S
C606 H625 0.913 . S
C607 H583 0.950 . S
C607 C606 1.524 . S
C607 C608 1.415 . S
C608 H584 0.950 . S
C608 C603 1.363 . S
C608 C607 1.415 . S
C609 H585 0.951 . S
C609 C610 1.366 . S
C609 C611 1.388 . S
C610 C609 1.366 . S
C610 C614 1.385 . S
C611 H586 0.951 . S
C611 C609 1.388 . S
C611 C612 1.366 . S
C612 C611 1.366 . S
C612 C613 1.414 . S
C612 C615 1.499 . S
C613 H587 0.950 . S
C613 C612 1.414 . S
C613 C614 1.374 . S
C614 H588 0.950 . S
C614 C610 1.385 . S
C614 C613 1.374 . S
C615 C612 1.499 . S
C615 C616 1.373 . S
C615 C617 1.389 . S
C616 H589 0.950 . S
C616 C602 1.377 . S
C616 C615 1.373 . S
C617 C601 1.377 . S
C617 C615 1.389 . S
C617 C618 1.524 . S
C618 C617 1.524 . S
C618 C619 1.397 . S
C618 C623 1.363 . S
C619 H590 0.950 . S
C619 C618 1.397 . S
C619 C620 1.334 . S
C620 H591 0.950 . S
C620 C619 1.334 . S
C620 C621 1.287 . S
C621 C620 1.287 . S
C621 C622 1.524 . S
C621 H624 0.999 . S
C622 H592 0.950 . S
C622 C621 1.524 . S
C622 C623 1.415 . S
C623 H593 0.950 . S
C623 C618 1.363 . S
C623 C622 1.415 . S
H624 C621 0.999 . S
H625 C606 0.913 . S
H626 C644 0.951 . S
H627 C646 0.951 . S
H628 C648 0.950 . S
H629 C649 0.950 . S
H630 C651 0.950 . S
H631 C654 0.950 . S
H632 C655 0.950 . S
H633 C657 0.950 . S
H634 C658 0.950 . S
H635 C659 0.951 . S
H636 C661 0.951 . S
H637 C663 0.950 . S
H638 C664 0.950 . S
H639 C666 0.950 . S
H640 C669 0.950 . S
H641 C670 0.950 . S
H642 C672 0.950 . S
H643 C673 0.950 . S
C644 H626 0.951 . S
C644 C645 1.366 . S
C644 C646 1.388 . S
C645 C644 1.366 . S
C645 C649 1.385 . S
C646 H627 0.951 . S
C646 C644 1.388 . S
C646 C647 1.366 . S
C647 C646 1.366 . S
C647 C648 1.414 . S
C647 C650 1.499 . S
C648 H628 0.950 . S
C648 C647 1.414 . S
C648 C649 1.374 . S
C649 H629 0.950 . S
C649 C645 1.385 . S
C649 C648 1.374 . S
C650 C647 1.499 . S
C650 C651 1.373 . S
C650 C652 1.389 . S
C651 H630 0.950 . S
C651 C650 1.373 . S
C651 C667 1.377 . S
C652 C650 1.389 . S
C652 C653 1.524 . S
C652 C666 1.377 . S
C653 C652 1.524 . S
C653 C654 1.397 . S
C653 C658 1.363 . S
C654 H631 0.950 . S
C654 C653 1.397 . S
C654 C655 1.334 . S
C655 H632 0.950 . S
C655 C654 1.334 . S
C655 C656 1.287 . S
C656 C655 1.287 . S
C656 C657 1.524 . S
C656 H675 0.913 . S
C657 H633 0.950 . S
C657 C656 1.524 . S
C657 C658 1.415 . S
C658 H634 0.950 . S
C658 C653 1.363 . S
C658 C657 1.415 . S
C659 H635 0.951 . S
C659 C660 1.366 . S
C659 C661 1.388 . S
C660 C659 1.366 . S
C660 C664 1.385 . S
C661 H636 0.951 . S
C661 C659 1.388 . S
C661 C662 1.366 . S
C662 C661 1.366 . S
C662 C663 1.414 . S
C662 C665 1.499 . S
C663 H637 0.950 . S
C663 C662 1.414 . S
C663 C664 1.374 . S
C664 H638 0.950 . S
C664 C660 1.385 . S
C664 C663 1.374 . S
C665 C662 1.499 . S
C665 C666 1.373 . S
C665 C667 1.389 . S
C666 H639 0.950 . S
C666 C652 1.377 . S
C666 C665 1.373 . S
C667 C651 1.377 . S
C667 C665 1.389 . S
C667 C668 1.524 . S
C668 C667 1.524 . S
C668 C669 1.397 . S
C668 C673 1.363 . S
C669 H640 0.950 . S
C669 C668 1.397 . S
C669 C670 1.334 . S
C670 H641 0.950 . S
C670 C669 1.334 . S
C670 C671 1.287 . S
C671 C670 1.287 . S
C671 C672 1.524 . S
C671 H674 0.999 . S
C672 H642 0.950 . S
C672 C671 1.524 . S
C672 C673 1.415 . S
C673 H643 0.950 . S
C673 C668 1.363 . S
C673 C672 1.415 . S
H674 C671 0.999 . S
H675 C656 0.913 . S
H676 C694 0.951 . S
H677 C696 0.951 . S
H678 C698 0.950 . S
H679 C699 0.950 . S
H680 C701 0.950 . S
H681 C704 0.950 . S
H682 C705 0.950 . S
H683 C707 0.950 . S
H684 C708 0.950 . S
H685 C709 0.951 . S
H686 C711 0.951 . S
H687 C713 0.950 . S
H688 C714 0.950 . S
H689 C716 0.950 . S
H690 C719 0.950 . S
H691 C720 0.950 . S
H692 C722 0.950 . S
H693 C723 0.950 . S
C694 H676 0.951 . S
C694 C695 1.366 . S
C694 C696 1.388 . S
C695 C694 1.366 . S
C695 C699 1.385 . S
C696 H677 0.951 . S
C696 C694 1.388 . S
C696 C697 1.366 . S
C697 C696 1.366 . S
C697 C698 1.414 . S
C697 C700 1.499 . S
C698 H678 0.950 . S
C698 C697 1.414 . S
C698 C699 1.374 . S
C699 H679 0.950 . S
C699 C695 1.385 . S
C699 C698 1.374 . S
C700 C697 1.499 . S
C700 C701 1.373 . S
C700 C702 1.389 . S
C701 H680 0.950 . S
C701 C700 1.373 . S
C701 C717 1.377 . S
C702 C700 1.389 . S
C702 C703 1.524 . S
C702 C716 1.377 . S
C703 C702 1.524 . S
C703 C704 1.397 . S
C703 C708 1.363 . S
C704 H681 0.950 . S
C704 C703 1.397 . S
C704 C705 1.334 . S
C705 H682 0.950 . S
C705 C704 1.334 . S
C705 C706 1.287 . S
C706 C705 1.287 . S
C706 C707 1.524 . S
C706 H725 0.913 . S
C707 H683 0.950 . S
C707 C706 1.524 . S
C707 C708 1.415 . S
C708 H684 0.950 . S
C708 C703 1.363 . S
C708 C707 1.415 . S
C709 H685 0.951 . S
C709 C710 1.366 . S
C709 C711 1.388 . S
C710 C709 1.366 . S
C710 C714 1.385 . S
C711 H686 0.951 . S
C711 C709 1.388 . S
C711 C712 1.366 . S
C712 C711 1.366 . S
C712 C713 1.414 . S
C712 C715 1.499 . S
C713 H687 0.950 . S
C713 C712 1.414 . S
C713 C714 1.374 . S
C714 H688 0.950 . S
C714 C710 1.385 . S
C714 C713 1.374 . S
C715 C712 1.499 . S
C715 C716 1.373 . S
C715 C717 1.389 . S
C716 H689 0.950 . S
C716 C702 1.377 . S
C716 C715 1.373 . S
C717 C701 1.377 . S
C717 C715 1.389 . S
C717 C718 1.524 . S
C718 C717 1.524 . S
C718 C719 1.397 . S
C718 C723 1.363 . S
C719 H690 0.950 . S
C719 C718 1.397 . S
C719 C720 1.334 . S
C720 H691 0.950 . S
C720 C719 1.334 . S
C720 C721 1.287 . S
C721 C720 1.287 . S
C721 C722 1.524 . S
C721 H724 0.999 . S
C722 H692 0.950 . S
C722 C721 1.524 . S
C722 C723 1.415 . S
C723 H693 0.950 . S
C723 C718 1.363 . S
C723 C722 1.415 . S
H724 C721 0.999 . S
H725 C706 0.913 . S
H726 C744 0.951 . S
H727 C746 0.951 . S
H728 C748 0.950 . S
H729 C749 0.950 . S
H730 C751 0.950 . S
H731 C754 0.950 . S
H732 C755 0.950 . S
H733 C757 0.950 . S
H734 C758 0.950 . S
H735 C759 0.951 . S
H736 C761 0.951 . S
H737 C763 0.950 . S
H738 C764 0.950 . S
H739 C766 0.950 1_656 S
H740 C769 0.950 . S
H741 C770 0.950 . S
H742 C772 0.950 . S
H743 C773 0.950 . S
C744 H726 0.951 . S
C744 C745 1.366 . S
C744 C746 1.388 . S
C745 C744 1.366 . S
C745 C749 1.385 . S
C746 H727 0.951 . S
C746 C744 1.388 . S
C746 C747 1.366 . S
C747 C746 1.366 . S
C747 C748 1.414 . S
C747 C750 1.499 . S
C748 H728 0.950 . S
C748 C747 1.414 . S
C748 C749 1.374 . S
C749 H729 0.950 . S
C749 C745 1.385 . S
C749 C748 1.374 . S
C750 C747 1.499 . S
C750 C751 1.373 . S
C750 C752 1.389 . S
C751 H730 0.950 . S
C751 C750 1.373 . S
C751 C767 1.377 . S
C752 C750 1.389 . S
C752 C753 1.524 1_455 S
C752 C766 1.377 . S
C753 C752 1.524 1_655 S
C753 C754 1.397 . S
C753 C758 1.363 . S
C754 H731 0.950 . S
C754 C753 1.397 . S
C754 C755 1.334 . S
C755 H732 0.950 . S
C755 C754 1.334 . S
C755 C756 1.287 . S
C756 C755 1.287 . S
C756 C757 1.524 . S
C756 H775 0.913 . S
C757 H733 0.950 . S
C757 C756 1.524 . S
C757 C758 1.415 . S
C758 H734 0.950 . S
C758 C753 1.363 . S
C758 C757 1.415 . S
C759 H735 0.951 . S
C759 C760 1.366 . S
C759 C761 1.388 . S
C760 C759 1.366 . S
C760 C764 1.385 . S
C761 H736 0.951 . S
C761 C759 1.388 . S
C761 C762 1.366 . S
C762 C761 1.366 . S
C762 C763 1.414 . S
C762 C765 1.499 . S
C763 H737 0.950 . S
C763 C762 1.414 . S
C763 C764 1.374 . S
C764 H738 0.950 . S
C764 C760 1.385 . S
C764 C763 1.374 . S
C765 C762 1.499 . S
C765 C766 1.373 1_556 S
C765 C767 1.389 1_556 S
C766 H739 0.950 1_454 S
C766 C752 1.377 . S
C766 C765 1.373 1_554 S
C767 C751 1.377 . S
C767 C765 1.389 1_554 S
C767 C768 1.543 . S
C768 C767 1.543 . S
C768 C769 1.367 1_554 S
C768 C773 1.379 . S
C769 H740 0.950 . S
C769 C768 1.367 1_556 S
C769 C770 1.334 . S
C770 H741 0.950 . S
C770 C769 1.334 . S
C770 C771 1.287 . S
C771 C770 1.287 . S
C771 C772 1.524 1_556 S
C771 H774 0.999 . S
C772 H742 0.950 . S
C772 C771 1.524 1_554 S
C772 C773 1.415 . S
C773 H743 0.950 . S
C773 C768 1.379 . S
C773 C772 1.415 . S
H774 C771 0.999 . S
H775 C756 0.913 . S
H776 C794 0.951 . S
H777 C796 0.951 . S
H778 C798 0.950 . S
H779 C799 0.950 . S
H780 C801 0.950 . S
H781 C804 0.950 . S
H782 C805 0.950 . S
H783 C807 0.950 . S
H784 C808 0.950 . S
H785 C809 0.951 . S
H786 C811 0.951 . S
H787 C813 0.950 . S
H788 C814 0.950 . S
H789 C816 0.950 . S
H790 C819 0.950 . S
H791 C820 0.950 . S
H792 C822 0.950 . S
H793 C823 0.950 . S
C794 H776 0.951 . S
C794 C795 1.366 1_565 S
C794 C796 1.388 . S
C795 C794 1.366 1_545 S
C795 C799 1.385 . S
C796 H777 0.951 . S
C796 C794 1.388 . S
C796 C797 1.366 1_565 S
C797 C796 1.366 1_545 S
C797 C798 1.414 . S
C797 C800 1.499 . S
C798 H778 0.950 . S
C798 C797 1.414 . S
C798 C799 1.374 . S
C799 H779 0.950 . S
C799 C795 1.385 . S
C799 C798 1.374 . S
C800 C797 1.499 . S
C800 C801 1.373 . S
C800 C802 1.389 1_545 S
C801 H780 0.950 . S
C801 C800 1.373 . S
C801 C817 1.377 . S
C802 C800 1.389 1_565 S
C802 C803 1.524 . S
C802 C816 1.377 . S
C803 C802 1.524 . S
C803 C804 1.397 . S
C803 C808 1.363 . S
C804 H781 0.950 . S
C804 C803 1.397 . S
C804 C805 1.334 . S
C805 H782 0.950 . S
C805 C804 1.334 . S
C805 C806 1.287 . S
C806 C805 1.287 . S
C806 C807 1.524 . S
C806 H825 0.913 . S
C807 H783 0.950 . S
C807 C806 1.524 . S
C807 C808 1.415 . S
C808 H784 0.950 . S
C808 C803 1.363 . S
C808 C807 1.415 . S
C809 H785 0.951 . S
C809 C810 1.366 . S
C809 C811 1.388 . S
C810 C809 1.366 . S
C810 C814 1.385 1_545 S
C811 H786 0.951 . S
C811 C809 1.388 . S
C811 C812 1.366 . S
C812 C811 1.366 . S
C812 C813 1.414 1_545 S
C812 C815 1.499 . S
C813 H787 0.950 . S
C813 C812 1.414 1_565 S
C813 C814 1.374 . S
C814 H788 0.950 . S
C814 C810 1.385 1_565 S
C814 C813 1.374 . S
C815 C812 1.499 . S
C815 C816 1.373 1_545 S
C815 C817 1.389 . S
C816 H789 0.950 . S
C816 C802 1.377 . S
C816 C815 1.373 1_565 S
C817 C801 1.377 . S
C817 C815 1.389 . S
C817 C818 1.524 . S
C818 C817 1.524 . S
C818 C819 1.397 . S
C818 C823 1.363 . S
C819 H790 0.950 . S
C819 C818 1.397 . S
C819 C820 1.334 . S
C820 H791 0.950 . S
C820 C819 1.334 . S
C820 C821 1.287 . S
C821 C820 1.287 . S
C821 C822 1.524 . S
C821 H824 0.999 . S
C822 H792 0.950 . S
C822 C821 1.524 . S
C822 C823 1.415 . S
C823 H793 0.950 . S
C823 C818 1.363 . S
C823 C822 1.415 . S
H824 C821 0.999 . S
H825 C806 0.913 . S
H826 C844 0.951 . S
H827 C846 0.951 . S
H828 C848 0.950 . S
H829 C849 0.950 . S
H830 C851 0.950 . S
H831 C854 0.950 . S
H832 C855 0.950 . S
H833 C857 0.950 . S
H834 C858 0.950 . S
H835 C859 0.951 . S
H836 C861 0.951 . S
H837 C863 0.950 . S
H838 C864 0.950 . S
H839 C866 0.950 . S
H840 C869 0.950 . S
H841 C870 0.950 . S
H842 C872 0.950 . S
H843 C873 0.950 . S
C844 H826 0.951 . S
C844 C845 1.366 . S
C844 C846 1.388 . S
C845 C844 1.366 . S
C845 C849 1.385 . S
C846 H827 0.951 . S
C846 C844 1.388 . S
C846 C847 1.366 . S
C847 C846 1.366 . S
C847 C848 1.414 . S
C847 C850 1.499 . S
C848 H828 0.950 . S
C848 C847 1.414 . S
C848 C849 1.374 . S
C849 H829 0.950 . S
C849 C845 1.385 . S
C849 C848 1.374 . S
C850 C847 1.499 . S
C850 C851 1.373 . S
C850 C852 1.389 . S
C851 H830 0.950 . S
C851 C850 1.373 . S
C851 C867 1.377 . S
C852 C850 1.389 . S
C852 C853 1.524 . S
C852 C866 1.377 . S
C853 C852 1.524 . S
C853 C854 1.397 . S
C853 C858 1.363 . S
C854 H831 0.950 . S
C854 C853 1.397 . S
C854 C855 1.334 . S
C855 H832 0.950 . S
C855 C854 1.334 . S
C855 C856 1.287 . S
C856 C855 1.287 . S
C856 C857 1.524 . S
C856 H875 0.913 . S
C857 H833 0.950 . S
C857 C856 1.524 . S
C857 C858 1.415 . S
C858 H834 0.950 . S
C858 C853 1.363 . S
C858 C857 1.415 . S
C859 H835 0.951 . S
C859 C860 1.366 . S
C859 C861 1.388 . S
C860 C859 1.366 . S
C860 C864 1.385 . S
C861 H836 0.951 . S
C861 C859 1.388 . S
C861 C862 1.366 . S
C862 C861 1.366 . S
C862 C863 1.414 . S
C862 C865 1.499 . S
C863 H837 0.950 . S
C863 C862 1.414 . S
C863 C864 1.374 . S
C864 H838 0.950 . S
C864 C860 1.385 . S
C864 C863 1.374 . S
C865 C862 1.499 . S
C865 C866 1.373 . S
C865 C867 1.389 . S
C866 H839 0.950 . S
C866 C852 1.377 . S
C866 C865 1.373 . S
C867 C851 1.377 . S
C867 C865 1.389 . S
C867 C868 1.524 . S
C868 C867 1.524 . S
C868 C869 1.397 . S
C868 C873 1.363 . S
C869 H840 0.950 . S
C869 C868 1.397 . S
C869 C870 1.334 . S
C870 H841 0.950 . S
C870 C869 1.334 . S
C870 C871 1.287 . S
C871 C870 1.287 . S
C871 C872 1.524 . S
C871 H874 0.999 . S
C872 H842 0.950 . S
C872 C871 1.524 . S
C872 C873 1.415 . S
C873 H843 0.950 . S
C873 C868 1.363 . S
C873 C872 1.415 . S
H874 C871 0.999 . S
H875 C856 0.913 . S
H876 C894 0.951 . S
H877 C896 0.951 . S
H878 C898 0.950 . S
H879 C899 0.950 . S
H880 C901 0.950 . S
H881 C904 0.950 . S
H882 C905 0.950 . S
H883 C907 0.950 . S
H884 C908 0.950 . S
H885 C909 0.951 . S
H886 C911 0.951 . S
H887 C913 0.950 . S
H888 C914 0.950 . S
H889 C916 0.950 . S
H890 C919 0.950 . S
H891 C920 0.950 . S
H892 C922 0.950 . S
H893 C923 0.950 . S
C894 H876 0.951 . S
C894 C895 1.366 . S
C894 C896 1.388 . S
C895 C894 1.366 . S
C895 C899 1.385 . S
C896 H877 0.951 . S
C896 C894 1.388 . S
C896 C897 1.366 . S
C897 C896 1.366 . S
C897 C898 1.414 . S
C897 C900 1.499 . S
C898 H878 0.950 . S
C898 C897 1.414 . S
C898 C899 1.374 . S
C899 H879 0.950 . S
C899 C895 1.385 . S
C899 C898 1.374 . S
C900 C897 1.499 . S
C900 C901 1.373 . S
C900 C902 1.389 . S
C901 H880 0.950 . S
C901 C900 1.373 . S
C901 C917 1.377 . S
C902 C900 1.389 . S
C902 C903 1.524 . S
C902 C916 1.377 . S
C903 C902 1.524 . S
C903 C904 1.397 . S
C903 C908 1.363 . S
C904 H881 0.950 . S
C904 C903 1.397 . S
C904 C905 1.334 . S
C905 H882 0.950 . S
C905 C904 1.334 . S
C905 C906 1.287 . S
C906 C905 1.287 . S
C906 C907 1.524 . S
C906 H925 0.913 . S
C907 H883 0.950 . S
C907 C906 1.524 . S
C907 C908 1.415 . S
C908 H884 0.950 . S
C908 C903 1.363 . S
C908 C907 1.415 . S
C909 H885 0.951 . S
C909 C910 1.366 . S
C909 C911 1.388 . S
C910 C909 1.366 . S
C910 C914 1.385 . S
C911 H886 0.951 . S
C911 C909 1.388 . S
C911 C912 1.366 . S
C912 C911 1.366 . S
C912 C913 1.414 . S
C912 C915 1.499 . S
C913 H887 0.950 . S
C913 C912 1.414 . S
C913 C914 1.374 . S
C914 H888 0.950 . S
C914 C910 1.385 . S
C914 C913 1.374 . S
C915 C912 1.499 . S
C915 C916 1.373 . S
C915 C917 1.389 . S
C916 H889 0.950 . S
C916 C902 1.377 . S
C916 C915 1.373 . S
C917 C901 1.377 . S
C917 C915 1.389 . S
C917 C918 1.524 . S
C918 C917 1.524 . S
C918 C919 1.397 1_545 S
C918 C923 1.363 . S
C919 H890 0.950 . S
C919 C918 1.397 1_565 S
C919 C920 1.334 . S
C920 H891 0.950 . S
C920 C919 1.334 . S
C920 C921 1.287 . S
C921 C920 1.287 . S
C921 C922 1.524 1_565 S
C921 H924 0.999 . S
C922 H892 0.950 . S
C922 C921 1.524 1_545 S
C922 C923 1.415 . S
C923 H893 0.950 . S
C923 C918 1.363 . S
C923 C922 1.415 . S
H924 C921 0.999 . S
H925 C906 0.913 . S
H926 C944 0.951 . S
H927 C946 0.951 . S
H928 C948 0.950 . S
H929 C949 0.950 . S
H930 C951 0.950 . S
H931 C954 0.950 . S
H932 C955 0.950 . S
H933 C957 0.950 . S
H934 C958 0.950 . S
H935 C959 0.951 . S
H936 C961 0.951 . S
H937 C963 0.950 . S
H938 C964 0.950 . S
H939 C966 0.950 1_554 S
H940 C969 0.950 . S
H941 C970 0.950 . S
H942 C972 0.950 . S
H943 C973 0.950 . S
C944 H926 0.951 . S
C944 C945 1.366 . S
C944 C946 1.388 . S
C945 C944 1.366 . S
C945 C949 1.385 . S
C946 H927 0.951 . S
C946 C944 1.388 . S
C946 C947 1.366 . S
C947 C946 1.366 . S
C947 C948 1.414 . S
C947 C950 1.499 . S
C948 H928 0.950 . S
C948 C947 1.414 . S
C948 C949 1.374 . S
C949 H929 0.950 . S
C949 C945 1.385 . S
C949 C948 1.374 . S
C950 C947 1.499 . S
C950 C951 1.373 . S
C950 C952 1.389 . S
C951 H930 0.950 . S
C951 C950 1.373 . S
C951 C967 1.377 1_556 S
C952 C950 1.389 . S
C952 C953 1.524 . S
C952 C966 1.377 . S
C953 C952 1.524 . S
C953 C954 1.397 . S
C953 C958 1.363 . S
C954 H931 0.950 . S
C954 C953 1.397 . S
C954 C955 1.334 . S
C955 H932 0.950 . S
C955 C954 1.334 . S
C955 C956 1.287 . S
C956 C955 1.287 . S
C956 C957 1.524 . S
C956 H975 0.913 . S
C957 H933 0.950 . S
C957 C956 1.524 . S
C957 C958 1.415 . S
C958 H934 0.950 . S
C958 C953 1.363 . S
C958 C957 1.415 . S
C959 H935 0.951 . S
C959 C960 1.366 . S
C959 C961 1.388 . S
C960 C959 1.366 . S
C960 C964 1.385 . S
C961 H936 0.951 . S
C961 C959 1.388 . S
C961 C962 1.366 . S
C962 C961 1.366 . S
C962 C963 1.414 . S
C962 C965 1.499 . S
C963 H937 0.950 . S
C963 C962 1.414 . S
C963 C964 1.374 . S
C964 H938 0.950 . S
C964 C960 1.385 . S
C964 C963 1.374 . S
C965 C962 1.499 . S
C965 C966 1.373 1_554 S
C965 C967 1.389 . S
C966 H939 0.950 1_556 S
C966 C952 1.377 . S
C966 C965 1.373 1_556 S
C967 C951 1.377 1_554 S
C967 C965 1.389 . S
C967 C968 1.524 . S
C968 C967 1.524 . S
C968 C969 1.397 . S
C968 C973 1.363 . S
C969 H940 0.950 . S
C969 C968 1.397 . S
C969 C970 1.334 . S
C970 H941 0.950 . S
C970 C969 1.334 . S
C970 C971 1.287 . S
C971 C970 1.287 . S
C971 C972 1.524 . S
C971 H974 0.999 . S
C972 H942 0.950 . S
C972 C971 1.524 . S
C972 C973 1.415 . S
C973 H943 0.950 . S
C973 C968 1.363 . S
C973 C972 1.415 . S
H974 C971 0.999 . S
H975 C956 0.913 . S
H976 C994 0.951 1_655 S
H977 C996 0.951 1_655 S
H978 C998 0.950 . S
H979 C999 0.950 . S
H980 C1001 0.950 . S
H981 C1004 0.950 . S
H982 C1005 0.950 . S
H983 C1007 0.950 . S
H984 C1008 0.950 . S
H985 C1009 0.951 . S
H986 C1011 0.951 . S
H987 C1013 0.950 . S
H988 C1014 0.950 . S
H989 C1016 0.950 . S
H990 C1019 0.950 . S
H991 C1020 0.950 . S
H992 C1022 0.950 . S
H993 C1023 0.950 . S
C994 H976 0.951 1_455 S
C994 C995 1.366 . S
C994 C996 1.388 . S
C995 C994 1.366 . S
C995 C999 1.385 . S
C996 H977 0.951 1_455 S
C996 C994 1.388 . S
C996 C997 1.366 . S
C997 C996 1.366 . S
C997 C998 1.414 . S
C997 C1000 1.499 . S
C998 H978 0.950 . S
C998 C997 1.414 . S
C998 C999 1.374 . S
C999 H979 0.950 . S
C999 C995 1.385 . S
C999 C998 1.374 . S
C1000 C997 1.499 . S
C1000 C1001 1.373 . S
C1000 C1002 1.389 1_455 S
C1001 H980 0.950 . S
C1001 C1000 1.373 . S
C1001 C1017 1.377 . S
C1002 C1000 1.389 1_655 S
C1002 C1003 1.524 . S
C1002 C1016 1.377 . S
C1003 C1002 1.524 . S
C1003 C1004 1.397 . S
C1003 C1008 1.363 . S
C1004 H981 0.950 . S
C1004 C1003 1.397 . S
C1004 C1005 1.334 . S
C1005 H982 0.950 . S
C1005 C1004 1.334 . S
C1005 C1006 1.287 . S
C1006 C1005 1.287 . S
C1006 C1007 1.524 . S
C1006 H1025 0.913 . S
C1007 H983 0.950 . S
C1007 C1006 1.524 . S
C1007 C1008 1.415 . S
C1008 H984 0.950 . S
C1008 C1003 1.363 . S
C1008 C1007 1.415 . S
C1009 H985 0.951 . S
C1009 C1010 1.366 . S
C1009 C1011 1.388 . S
C1010 C1009 1.366 . S
C1010 C1014 1.385 1_455 S
C1011 H986 0.951 . S
C1011 C1009 1.388 . S
C1011 C1012 1.366 . S
C1012 C1011 1.366 . S
C1012 C1013 1.414 1_455 S
C1012 C1015 1.499 . S
C1013 H987 0.950 . S
C1013 C1012 1.414 1_655 S
C1013 C1014 1.374 . S
C1014 H988 0.950 . S
C1014 C1010 1.385 1_655 S
C1014 C1013 1.374 . S
C1015 C1012 1.499 . S
C1015 C1016 1.373 1_455 S
C1015 C1017 1.389 . S
C1016 H989 0.950 . S
C1016 C1002 1.377 . S
C1016 C1015 1.373 1_655 S
C1017 C1001 1.377 . S
C1017 C1015 1.389 . S
C1017 C1018 1.524 . S
C1018 C1017 1.524 . S
C1018 C1019 1.397 . S
C1018 C1023 1.363 . S
C1019 H990 0.950 . S
C1019 C1018 1.397 . S
C1019 C1020 1.334 . S
C1020 H991 0.950 . S
C1020 C1019 1.334 . S
C1020 C1021 1.287 . S
C1021 C1020 1.287 . S
C1021 C1022 1.524 . S
C1021 H1024 0.999 . S
C1022 H992 0.950 . S
C1022 C1021 1.524 . S
C1022 C1023 1.415 . S
C1023 H993 0.950 . S
C1023 C1018 1.363 . S
C1023 C1022 1.415 . S
H1024 C1021 0.999 . S
H1025 C1006 0.913 . S
C145 C2 1.132 . S
C160 C125 1.122 . S
C195 C21 1.021 . S
C210 C103 1.019 . S
C245 C42 1.102 . S
C260 C114 1.089 . S
C295 C1 0.867 . S
C310 C119 0.866 . S
C360 C97 0.959 . S
C345 C22 0.966 . S
C410 C108 0.872 . S
C395 C41 0.873 . S
C445 C38 1.893 . S
C460 C81 1.867 . S
C495 C59 1.831 . S
C510 C86 1.800 1_655 S
C545 C18 1.729 . S
C560 C64 1.712 . S
C610 C75 1.795 . S
C595 C39 1.826 . S
C660 C92 1.845 . S
C645 C58 1.873 . S
C695 C19 1.993 . S
C710 C70 1.940 . S
C760 C87 1.566 . S
C745 C9 1.536 . S
C795 C29 1.537 . S
C810 C65 1.624 . S
C845 C49 1.549 . S
C860 C76 1.591 . S
C910 C109 1.507 . S
C895 C28 1.487 . S
C960 C120 1.479 . S
C945 C48 1.444 . S
C995 C8 1.403 . S
C1010 C98 1.444 . S
