# Generated by pormake.
# Topology anh, (6,3)-cn, num edge types: 1
# Building blocks:
#     Node 0, Type 0, BuildingBlock: PAMTUU_clean_sbu_0, # of connection points: 6
#     Node 1, Type 0, BuildingBlock: PAMTUU_clean_sbu_0, # of connection points: 6
#     Node 2, Type 0, BuildingBlock: PAMTUU_clean_sbu_0, # of connection points: 6
#     Node 3, Type 1, BuildingBlock: KAKCAD_clean_linker_0, # of connection points: 3
#     Node 4, Type 1, BuildingBlock: KAKCAD_clean_linker_0, # of connection points: 3
#     Node 5, Type 1, BuildingBlock: KAKCAD_clean_linker_0, # of connection points: 3
#     Node 6, Type 1, BuildingBlock: KAKCAD_clean_linker_0, # of connection points: 3
#     Node 7, Type 1, BuildingBlock: KAKCAD_clean_linker_0, # of connection points: 3
#     Node 8, Type 1, BuildingBlock: KAKCAD_clean_linker_0, # of connection points: 3
#     Edge 9, Type (0, 1), BuildingBlock: KIFKEQ_clean_linker_1, # of connection points: 2
#     Edge 10, Type (0, 1), BuildingBlock: KIFKEQ_clean_linker_1, # of connection points: 2
#     Edge 11, Type (0, 1), BuildingBlock: KIFKEQ_clean_linker_1, # of connection points: 2
#     Edge 12, Type (0, 1), BuildingBlock: KIFKEQ_clean_linker_1, # of connection points: 2
#     Edge 13, Type (0, 1), BuildingBlock: KIFKEQ_clean_linker_1, # of connection points: 2
#     Edge 14, Type (0, 1), BuildingBlock: KIFKEQ_clean_linker_1, # of connection points: 2
#     Edge 15, Type (0, 1), BuildingBlock: KIFKEQ_clean_linker_1, # of connection points: 2
#     Edge 16, Type (0, 1), BuildingBlock: KIFKEQ_clean_linker_1, # of connection points: 2
#     Edge 17, Type (0, 1), BuildingBlock: KIFKEQ_clean_linker_1, # of connection points: 2
#     Edge 18, Type (0, 1), BuildingBlock: KIFKEQ_clean_linker_1, # of connection points: 2
#     Edge 19, Type (0, 1), BuildingBlock: KIFKEQ_clean_linker_1, # of connection points: 2
#     Edge 20, Type (0, 1), BuildingBlock: KIFKEQ_clean_linker_1, # of connection points: 2
#     Edge 21, Type (0, 1), BuildingBlock: KIFKEQ_clean_linker_1, # of connection points: 2
#     Edge 22, Type (0, 1), BuildingBlock: KIFKEQ_clean_linker_1, # of connection points: 2
#     Edge 23, Type (0, 1), BuildingBlock: KIFKEQ_clean_linker_1, # of connection points: 2
#     Edge 24, Type (0, 1), BuildingBlock: KIFKEQ_clean_linker_1, # of connection points: 2
#     Edge 25, Type (0, 1), BuildingBlock: KIFKEQ_clean_linker_1, # of connection points: 2
#     Edge 26, Type (0, 1), BuildingBlock: KIFKEQ_clean_linker_1, # of connection points: 2
# Relax obj value: 0.234
# Max RMSD: 0.188
# Mean RMSD: 0.154
data_MOF--net-anh--node1-PAMTUU_clean_sbu_0--node2-KAKCAD_clean_linker_0--edge1-KIFKEQ_clean_linker_1
_symmetry_space_group_name_H-M    P1
_symmetry_Int_Tables_number       1
_symmetry_cell_setting            triclinic
loop_
_symmetry_equiv_pos_as_xyz
'x, y, z'
_cell_length_a     37.039813
_cell_length_b     36.893112
_cell_length_c     67.630769
_cell_angle_alpha  94.295485
_cell_angle_beta   89.522915
_cell_angle_gamma 119.96109
loop_
_atom_site_label
_atom_site_type_symbol
_atom_site_fract_x
_atom_site_fract_y
_atom_site_fract_z
_atom_type_partial_charge
Tb0 Tb 0.11271 0.64274 0.16406 0.0
Tb1 Tb 0.16048 0.5901 0.16383 0.0
C2 C 0.13627 0.61306 0.12457 0.0
C3 C 1.02812 0.6621 0.1733 0.0
C4 C 0.94308 0.60865 0.17979 0.0
C5 C 0.95554 0.63692 0.16489 0.0
C6 C 0.99777 0.66345 0.16169 0.0
C7 C 1.0158 0.63678 0.18936 0.0
C8 C 0.97362 0.61045 0.19263 0.0
C9 C 1.0705 0.67883 0.16596 0.0
O10 O 1.06107 0.57654 0.16014 0.0
O11 O 0.09554 0.54302 0.16936 0.0
O12 O 0.16753 0.61896 0.19391 0.0
O13 O 0.10549 0.6173 0.19255 0.0
O14 O 0.19958 0.57143 0.14941 0.0
O15 O 0.16982 0.54524 0.17659 0.0
O16 O 0.21207 0.65524 0.16214 0.0
O17 O 0.1782 0.69169 0.17114 0.0
O18 O 0.1377 0.6455 0.13464 0.0
O19 O 0.13416 0.58226 0.13397 0.0
C20 C 1.06043 0.54236 0.16537 0.0
O21 O 0.09962 0.68658 0.17911 0.0
O22 O 1.07267 0.65822 0.14988 0.0
C23 C 0.13603 0.61898 0.20285 0.0
C24 C 0.23203 0.54385 0.16916 0.0
C25 C 0.292 0.51932 0.17408 0.0
C26 C 0.25799 0.50575 0.18661 0.0
C27 C 0.22817 0.51777 0.18412 0.0
C28 C 0.26797 0.5605 0.15787 0.0
C29 C 0.29772 0.54842 0.16033 0.0
C30 C 0.19528 0.54623 0.16295 0.0
C31 C 0.21301 0.69096 0.16752 0.0
H32 H 0.93287 0.63611 0.15459 0.0
H33 H 1.00663 0.68237 0.14911 0.0
H34 H 1.03859 0.63489 0.19849 0.0
H35 H 0.965 0.58958 0.20443 0.0
H36 H 0.25307 0.4838 0.19752 0.0
H37 H 0.20065 0.50427 0.19298 0.0
H38 H 0.27175 0.58044 0.14613 0.0
H39 H 0.32332 0.5592 0.15028 0.0
Tb40 Tb 0.5949 1.04631 0.49089 0.0
Tb41 Tb 0.69607 0.09657 0.495 0.0
C42 C 0.65033 0.06832 0.45304 0.0
C43 C 0.48307 1.01455 0.49809 0.0
C44 C 0.41268 1.01443 0.51439 0.0
C45 C 0.42437 1.02603 0.49502 0.0
C46 C 0.45904 1.02589 0.48694 0.0
C47 C 0.4731 1.00553 0.51791 0.0
C48 C 0.43814 1.00541 0.52597 0.0
C49 C 0.51637 1.00975 0.48829 0.0
O50 O 0.61102 0.99614 0.48632 0.0
O51 O 0.67688 1.0314 0.50057 0.0
O52 O 0.67615 0.10831 0.52394 0.0
O53 O 0.6094 1.05244 0.52228 0.0
O54 O 0.75413 0.13522 0.48309 0.0
O55 O 0.74995 0.10936 0.51115 0.0
O56 O 0.6803 0.14647 0.49187 0.0
O57 O 0.61131 0.11163 0.50002 0.0
O58 O 0.61626 0.06358 0.46126 0.0
O59 O 0.68182 0.07278 0.46381 0.0
C60 C 0.64349 0.99591 0.49415 0.0
O61 O 0.54085 1.03952 0.47734 0.0
O62 O 0.53692 0.99726 0.49872 0.0
C63 C 0.64144 0.08311 0.53243 0.0
C64 C 0.80643 0.17654 0.50725 0.0
C65 C 0.86955 0.25865 0.51936 0.0
C66 C 0.87908 0.22636 0.51566 0.0
C67 C 0.84769 0.18559 0.50957 0.0
C68 C 0.79628 0.20789 0.51211 0.0
C69 C 0.8276 0.24866 0.51806 0.0
C70 C 0.77462 0.13515 0.49865 0.0
C71 C 0.64584 0.14688 0.49686 0.0
H72 H 0.40507 1.03237 0.48554 0.0
H73 H 0.46603 1.03293 0.47164 0.0
H74 H 0.49128 0.99702 0.52696 0.0
H75 H 0.42994 0.99646 0.54096 0.0
H76 H 0.91097 0.23291 0.51678 0.0
H77 H 0.85585 0.16149 0.50604 0.0
H78 H 0.76441 0.20124 0.51048 0.0
H79 H 0.81912 0.27276 0.5205 0.0
Tb80 Tb 0.60821 0.5404 0.82979 0.0
Tb81 Tb 0.65945 0.64133 0.83118 0.0
C82 C 0.62731 0.58391 0.78969 0.0
C83 C 0.58528 0.44042 0.8473 0.0
C84 C 0.60892 0.39645 0.87171 0.0
C85 C 0.63489 0.41943 0.85664 0.0
C86 C 0.62332 0.44126 0.84466 0.0
C87 C 0.56006 0.41908 0.86284 0.0
C88 C 0.57185 0.39747 0.87501 0.0
C89 C 0.57278 0.46334 0.83459 0.0
O90 O 0.67422 0.5573 0.83477 0.0
O91 O 0.71128 0.62801 0.83022 0.0
O92 O 0.67288 0.62755 0.85998 0.0
O93 O 0.61053 0.56733 0.8597 0.0
O94 O 0.69782 0.69755 0.81802 0.0
O95 O 0.66879 0.69788 0.84573 0.0
O96 O 0.59378 0.62199 0.83794 0.0
O97 O 0.55925 0.55536 0.82309 0.0
O98 O 0.61473 0.54912 0.79835 0.0
O99 O 0.64176 0.62049 0.79986 0.0
C100 C 0.71017 0.59238 0.83312 0.0
O101 O 0.5626 0.48888 0.84394 0.0
O102 O 0.59636 0.48018 0.8197 0.0
C103 C 0.64388 0.59707 0.86932 0.0
C104 C 0.66052 0.73325 0.82075 0.0
C105 C 0.60522 0.75634 0.80546 0.0
C106 C 0.64262 0.78678 0.8155 0.0
C107 C 0.67008 0.77518 0.82327 0.0
C108 C 0.62375 0.70338 0.81028 0.0
C109 C 0.5964 0.71471 0.80276 0.0
C110 C 0.68556 0.71817 0.83015 0.0
C111 C 0.55871 0.58892 0.83088 0.0
H112 H 0.66324 0.41884 0.85329 0.0
H113 H 0.64392 0.45804 0.83304 0.0
H114 H 0.53097 0.41872 0.86542 0.0
H115 H 0.55131 0.38051 0.88659 0.0
H116 H 0.64997 0.81915 0.8178 0.0
H117 H 0.69808 0.79855 0.83149 0.0
H118 H 0.61551 0.67081 0.80825 0.0
H119 H 0.5682 0.69076 0.79485 0.0
C120 C 0.67435 0.14046 0.29769 0.0
C121 C 0.66377 0.10133 0.30457 0.0
C122 C 0.67243 0.14486 0.27731 0.0
C123 C 0.65997 0.11026 0.26325 0.0
C124 C 0.6507 0.07152 0.27014 0.0
C125 C 0.65246 0.06711 0.29044 0.0
C126 C 0.65508 0.11374 0.24156 0.0
C127 C 0.68389 0.14914 0.23205 0.0
C128 C 0.68003 0.15243 0.21155 0.0
C129 C 0.64548 0.11799 0.20042 0.0
C130 C 0.61568 0.08169 0.20988 0.0
C131 C 0.62125 0.08097 0.23037 0.0
C132 C 0.57839 1.04295 0.1996 0.0
C133 C 0.54623 1.04466 0.18944 0.0
C134 C 0.57104 1.00268 0.20332 0.0
C135 C 0.53282 0.96595 0.19803 0.0
C136 C 0.49971 0.96728 0.18851 0.0
C137 C 0.71327 0.19235 0.20282 0.0
C138 C 0.72682 0.23201 0.21316 0.0
C139 C 0.73559 0.19164 0.18591 0.0
C140 C 0.77093 0.22883 0.18013 0.0
C141 C 0.7852 0.26839 0.19089 0.0
C142 C 0.76172 0.26898 0.20735 0.0
C143 C 0.5077 1.00759 0.18398 0.0
H144 H 0.68291 0.16747 0.30811 0.0
H145 H 0.6795 0.1751 0.27264 0.0
H146 H 0.64197 1.04436 0.2598 0.0
H147 H 0.64497 1.03672 0.29508 0.0
H148 H 0.71039 0.17404 0.24065 0.0
H149 H 0.59831 1.05438 0.23786 0.0
H150 H 0.64189 0.11939 0.18467 0.0
H151 H 0.55006 0.07483 0.18651 0.0
H152 H 0.59456 0.99964 0.21125 0.0
H153 H 0.52894 0.93658 0.20229 0.0
H154 H 0.71085 0.23441 0.22625 0.0
H155 H 0.7268 0.16203 0.17758 0.0
H156 H 0.48396 1.01081 0.17642 0.0
H157 H 0.7711 0.29797 0.21637 0.0
H158 H 0.78724 0.22638 0.1672 0.0
C159 C 0.60236 0.58559 0.62728 0.0
C160 C 0.62811 0.57617 0.6385 0.0
C161 C 0.60436 0.58531 0.60652 0.0
C162 C 0.63198 0.57537 0.59634 0.0
C163 C 0.65772 0.56599 0.60753 0.0
C164 C 0.65589 0.56648 0.62825 0.0
C165 C 0.63436 0.575 0.57418 0.0
C166 C 0.63478 0.60724 0.56418 0.0
C167 C 0.63954 0.6092 0.54344 0.0
C168 C 0.642 0.57562 0.53247 0.0
C169 C 0.64163 0.54238 0.54243 0.0
C170 C 0.63765 0.54306 0.56317 0.0
C171 C 0.64706 0.50696 0.53256 0.0
C172 C 0.61847 0.47686 0.51811 0.0
C173 C 0.67715 0.49868 0.54047 0.0
C174 C 0.67784 0.46145 0.53483 0.0
C175 C 0.64844 0.43031 0.52092 0.0
C176 C 0.64368 0.64805 0.53456 0.0
C177 C 0.66706 0.68793 0.54504 0.0
C178 C 0.62173 0.64623 0.51718 0.0
C179 C 0.62206 0.68256 0.51109 0.0
C180 C 0.64443 0.72227 0.5221 0.0
C181 C 0.66712 0.72378 0.53913 0.0
C182 C 0.61912 0.43927 0.51241 0.0
H183 H 0.5801 0.59259 0.63449 0.0
H184 H 0.58374 0.59225 0.59841 0.0
H185 H 0.67993 0.55894 0.60027 0.0
H186 H 0.67689 0.55991 0.63626 0.0
H187 H 0.63226 0.63176 0.57282 0.0
H188 H 0.63673 0.51792 0.5709 0.0
H189 H 0.6459 0.57626 0.5166 0.0
H190 H 0.59433 0.4814 0.51186 0.0
H191 H 0.69946 0.52057 0.5518 0.0
H192 H 0.70069 0.45651 0.54217 0.0
H193 H 0.68498 0.69148 0.55834 0.0
H194 H 0.60316 0.61645 0.50862 0.0
H195 H 0.59613 0.41697 0.50145 0.0
H196 H 0.68434 0.75258 0.54853 0.0
H197 H 0.60451 0.67927 0.49772 0.0
C198 C 0.17613 0.62541 0.96321 0.0
C199 C 0.13929 0.60158 0.9734 0.0
C200 C 0.17571 0.62383 0.94239 0.0
C201 C 0.13841 0.59852 0.93113 0.0
C202 C 0.10162 0.57471 0.94133 0.0
C203 C 0.10205 0.57621 0.96211 0.0
C204 C 0.13765 0.59666 0.90887 0.0
C205 C 0.16937 0.59478 0.8981 0.0
C206 C 0.16866 0.5913 0.87716 0.0
C207 C 0.13433 0.59032 0.86682 0.0
C208 C 0.10115 0.59147 0.87752 0.0
C209 C 0.10438 0.59542 0.89844 0.0
C210 C 1.06134 0.58681 0.86822 0.0
C211 C 1.0613 0.61209 0.85355 0.0
C212 C 1.02245 0.56031 0.87642 0.0
C213 C 0.98576 0.56032 0.87105 0.0
C214 C 0.98543 0.58643 0.85687 0.0
C215 C 0.2037 0.58678 0.86733 0.0
C216 C 0.21423 0.55774 0.87401 0.0
C217 C 0.23095 0.61482 0.85392 0.0
C218 C 0.26792 0.61464 0.84807 0.0
C219 C 0.27909 0.58627 0.85532 0.0
C220 C 0.25081 0.55747 0.8682 0.0
C221 C 1.02414 0.6119 0.84799 0.0
H222 H 0.20552 0.64499 0.97131 0.0
H223 H 0.20461 0.64285 0.93513 0.0
H224 H 1.07236 0.55442 0.93323 0.0
H225 H 1.07294 0.55776 0.96933 0.0
H226 H 0.19476 0.59525 0.90619 0.0
H227 H 1.08049 0.5978 0.90683 0.0
H228 H 0.1326 0.58692 0.85076 0.0
H229 H 0.0903 0.63328 0.84691 0.0
H230 H 1.02054 0.54015 0.88772 0.0
H231 H 0.95784 0.54056 0.87877 0.0
H232 H 0.19458 0.53572 0.88444 0.0
H233 H 0.22466 0.63813 0.84858 0.0
H234 H 1.02607 0.63218 0.83678 0.0
H235 H 0.25752 0.53535 0.87457 0.0
H236 H 0.28795 0.63716 0.83795 0.0
C237 C 1.06925 0.63066 0.35857 0.0
C238 C 0.10809 0.65564 0.35026 0.0
C239 C 1.06355 0.63675 0.37873 0.0
C240 C 0.09638 0.66841 0.39086 0.0
C241 C 0.13518 0.69352 0.38255 0.0
C242 C 0.1411 0.68693 0.36244 0.0
C243 C 0.09047 0.67472 0.41225 0.0
C244 C 1.07432 0.64064 0.42406 0.0
C245 C 1.07114 0.64678 0.44458 0.0
C246 C 1.0832 0.68711 0.45318 0.0
C247 C 0.09849 0.72145 0.44153 0.0
C248 C 0.10224 0.71496 0.42102 0.0
C249 C 0.11341 0.76428 0.45116 0.0
C250 C 0.09254 0.77097 0.46729 0.0
C251 C 0.15089 0.79818 0.44545 0.0
C252 C 0.16845 0.83706 0.45634 0.0
C253 C 0.14908 0.84302 0.47328 0.0
C254 C 1.05607 0.61128 0.45717 0.0
C255 C 1.01868 0.57393 0.45208 0.0
C256 C 1.07878 0.6147 0.47445 0.0
C257 C 1.06426 0.58124 0.48645 0.0
C258 C 1.02649 0.54415 0.48151 0.0
C259 C 1.00389 0.54075 0.46421 0.0
C260 C 0.11032 0.80991 0.47831 0.0
H261 H 1.04338 0.6062 0.34947 0.0
H262 H 1.03336 0.61703 0.38482 0.0
H263 H 0.16108 0.71788 0.39167 0.0
H264 H 0.17125 0.70672 0.35634 0.0
H265 H 1.06579 0.60961 0.41742 0.0
H266 H 0.11411 0.74114 0.41182 0.0
H267 H 1.08127 0.69175 0.46908 0.0
H268 H 1.06313 0.74568 0.47181 0.0
H269 H 0.16812 0.7941 0.43331 0.0
H270 H 0.19876 0.86157 0.45225 0.0
H271 H 1.00062 0.57064 0.43886 0.0
H272 H 0.10793 0.64314 0.47856 0.0
H273 H 0.09453 0.81366 0.49118 0.0
H274 H 0.97495 0.5122 0.45995 0.0
H275 H 1.08222 0.5845 0.4997 0.0
C276 C 0.54396 0.07726 0.6809 0.0
C277 C 0.58654 0.10237 0.67723 0.0
C278 C 0.53061 0.06859 0.7002 0.0
C279 C 0.55948 0.08476 0.71631 0.0
C280 C 0.602 0.11071 0.71275 0.0
C281 C 0.61542 0.11933 0.69338 0.0
C282 C 0.54509 0.07295 0.73659 0.0
C283 C 0.5164 1.03088 0.73965 0.0
C284 C 0.50229 1.01866 0.75872 0.0
C285 C 0.51629 1.04982 0.7746 0.0
C286 C 0.54711 0.09125 0.77207 0.0
C287 C 0.56116 0.10284 0.75299 0.0
C288 C 0.56685 0.12089 0.78981 0.0
C289 C 0.54213 0.1235 0.80505 0.0
C290 C 0.61048 0.14385 0.7924 0.0
C291 C 0.62901 0.1689 0.80999 0.0
C292 C 0.60422 0.17144 0.82528 0.0
C293 C 0.47876 0.97329 0.76259 0.0
C294 C 0.45369 0.9419 0.74765 0.0
C295 C 0.48599 0.96065 0.78058 0.0
C296 C 0.47201 0.91866 0.78289 0.0
C297 C 0.45148 0.88808 0.76712 0.0
C298 C 0.44075 0.89969 0.74978 0.0
C299 C 0.56057 0.1485 0.82256 0.0
H300 H 0.52092 0.06319 0.6688 0.0
H301 H 0.4976 1.04882 0.7025 0.0
H302 H 0.62502 0.12336 0.72486 0.0
H303 H 0.6484 0.13901 0.69103 0.0
H304 H 0.50714 1.00746 0.72721 0.0
H305 H 0.58434 0.13509 0.75095 0.0
H306 H 0.50523 1.04147 0.78935 0.0
H307 H 0.50843 0.1063 0.80338 0.0
H308 H 0.63023 0.14172 0.78101 0.0
H309 H 0.6627 0.18625 0.81163 0.0
H310 H 0.4461 0.95 0.73384 0.0
H311 H 0.50565 0.98311 0.79245 0.0
H312 H 0.54053 0.15075 0.83374 0.0
H313 H 0.42474 0.87657 0.73742 0.0
H314 H 0.48145 0.91094 0.79634 0.0
C315 C 0.63403 0.45776 1.0002 0.0
C316 C 0.63603 0.49704 0.0024 0.0
C317 C 0.61923 0.43064 0.01544 0.0
C318 C 0.60575 0.44214 0.03298 0.0
C319 C 0.60967 0.48204 0.03562 0.0
C320 C 0.62497 0.50934 0.02057 0.0
C321 C 0.58499 0.41196 0.0481 0.0
C322 C 0.60744 0.39905 0.05945 0.0
C323 C 0.58923 0.37497 0.07579 0.0
C324 C 0.54712 0.36188 0.07946 0.0
C325 C 0.52603 0.37815 0.06949 0.0
C326 C 0.54444 0.40151 0.05323 0.0
C327 C 0.49191 0.38124 0.07962 0.0
C328 C 0.46045 0.34735 0.08908 0.0
C329 C 0.49575 0.4211 0.0831 0.0
C330 C 0.47087 0.42762 0.09673 0.0
C331 C 0.44137 0.39445 0.10707 0.0
C332 C 0.61605 0.3718 0.09131 0.0
C333 C 0.65526 0.37642 0.08681 0.0
C334 C 0.60555 0.37078 0.11148 0.0
C335 C 0.63459 0.37858 0.12649 0.0
C336 C 0.67563 0.38958 0.12195 0.0
C337 C 0.68497 0.38595 0.10193 0.0
C338 C 0.43506 0.35389 0.10264 0.0
H339 H 0.64189 0.44704 0.98636 0.0
H340 H 0.61645 0.39995 0.01316 0.0
H341 H 0.59996 0.49172 0.04921 0.0
H342 H 0.62702 0.53967 0.02299 0.0
H343 H 0.64005 0.41116 0.05645 0.0
H344 H 0.52834 0.41428 0.04544 0.0
H345 H 0.53208 0.34303 0.09167 0.0
H346 H 0.45687 0.31635 0.08669 0.0
H347 H 0.52007 0.44809 0.0764 0.0
H348 H 0.47576 0.45905 0.09976 0.0
H349 H 0.66425 0.37549 0.0716 0.0
H350 H 0.57621 0.36751 0.11617 0.0
H351 H 0.41211 0.32785 0.11041 0.0
H352 H 0.71612 0.39363 0.09774 0.0
H353 H 0.62567 0.37928 0.14174 0.0
H354 H 0.26456 0.43581 0.1756 0.0
H355 H 0.37603 0.55478 0.16898 0.0
H356 H 0.30179 0.39913 0.16546 0.0
H357 H 0.41263 0.51809 0.15786 0.0
H358 H 0.47579 0.44851 0.13965 0.0
H359 H 0.44118 0.47403 0.16293 0.0
H360 H 0.32278 0.38796 0.13291 0.0
H361 H 0.35757 0.3616 0.11017 0.0
C362 C 0.29736 0.45425 0.17256 0.0
C363 C 0.31723 0.49826 0.17281 0.0
C364 C 0.31852 0.43313 0.16648 0.0
C365 C 0.35988 0.45555 0.16045 0.0
C366 C 0.38081 0.49972 0.16244 0.0
C367 C 0.35973 0.52084 0.16863 0.0
C368 C 0.4422 0.43447 0.13843 0.0
C369 C 0.41919 0.40359 0.12308 0.0
C370 C 0.42243 0.44913 0.15167 0.0
C371 C 0.37935 0.43357 0.1496 0.0
C372 C 0.35596 0.4004 0.13507 0.0
C373 C 0.37577 0.38538 0.12196 0.0
H374 H 0.87222 0.32281 0.54391 0.0
H375 H 0.94252 0.29575 0.49982 0.0
H376 H 0.91821 0.39788 0.54112 0.0
H377 H 0.98849 0.37025 0.49735 0.0
H378 H 1.06874 0.50781 0.49555 0.0
H379 H 1.03922 0.44233 0.51196 0.0
H380 H 0.91901 0.43484 0.51161 0.0
H381 H 0.94855 0.50009 0.49547 0.0
C382 C 0.89803 0.33284 0.534 0.0
C383 C 0.90315 0.30327 0.52178 0.0
C384 C 0.9244 0.37577 0.53247 0.0
C385 C 0.9565 0.38983 0.51881 0.0
C386 C 0.96423 0.36041 0.50813 0.0
C387 C 0.93776 0.31755 0.50956 0.0
C388 C 1.03629 0.49259 0.49947 0.0
C389 C 1.01067 0.50848 0.49404 0.0
C390 C 1.01942 0.45518 0.5088 0.0
C391 C 0.97683 0.43346 0.51301 0.0
C392 C 0.95204 0.45107 0.50878 0.0
C393 C 0.96877 0.48812 0.49932 0.0
H394 H 0.52108 0.71515 0.80986 0.0
H395 H 0.62097 0.82152 0.78367 0.0
H396 H 0.47044 0.73172 0.79632 0.0
H397 H 0.57057 0.8384 0.77038 0.0
H398 H 0.48027 0.85368 0.73892 0.0
H399 H 0.5103 0.8102 0.74569 0.0
H400 H 0.45665 0.79146 0.80356 0.0
H401 H 0.42588 0.83435 0.79662 0.0
C402 C 0.5321 0.74193 0.8011 0.0
C403 C 0.5749 0.76722 0.79781 0.0
C404 C 0.50316 0.7513 0.79336 0.0
C405 C 0.51649 0.78586 0.78204 0.0
C406 C 0.55928 0.81094 0.77867 0.0
C407 C 0.58823 0.8018 0.78654 0.0
C408 C 0.47286 0.83836 0.75263 0.0
C409 C 0.45158 0.84813 0.76746 0.0
C410 C 0.49062 0.81398 0.75662 0.0
C411 C 0.48701 0.79884 0.77539 0.0
C412 C 0.46028 0.80312 0.78902 0.0
C413 C 0.44256 0.82758 0.78504 0.0
H414 H 0.87109 0.6106 0.17374 0.0
H415 H 0.91668 0.5265 0.18503 0.0
H416 H 0.80243 0.55073 0.16534 0.0
H417 H 0.84739 0.46652 0.17748 0.0
H418 H 0.74858 0.3872 0.12573 0.0
H419 H 0.81003 0.43665 0.14603 0.0
H420 H 0.74045 0.49022 0.1744 0.0
H421 H 0.6803 0.44332 0.15331 0.0
C422 C 0.86616 0.57934 0.17493 0.0
C423 C 0.89952 0.57336 0.17968 0.0
C424 C 0.82665 0.54492 0.17033 0.0
C425 C 0.81958 0.50374 0.1705 0.0
C426 C 0.85207 0.49782 0.1769 0.0
C427 C 0.89166 0.53228 0.18145 0.0
C428 C 0.74623 0.40922 0.13643 0.0
C429 C 0.70954 0.41159 0.13749 0.0
C430 C 0.78134 0.43724 0.1483 0.0
C431 C 0.78031 0.46794 0.16158 0.0
C432 C 0.74249 0.46753 0.16402 0.0
C433 C 0.70767 0.43999 0.15204 0.0
H434 H 0.37271 1.05947 0.51028 0.0
H435 H 0.35647 0.94544 0.53215 0.0
H436 H 0.29721 1.02989 0.50911 0.0
H437 H 0.28198 0.91574 0.53064 0.0
H438 H 0.19604 0.92432 0.46394 0.0
H439 H 0.25449 0.97924 0.48374 0.0
H440 H 0.21391 0.9041 0.53409 0.0
H441 H 0.15664 0.84798 0.51374 0.0
C442 C 0.35309 1.02868 0.51548 0.0
C443 C 0.37039 1.00424 0.52068 0.0
C444 C 0.30983 1.01168 0.51478 0.0
C445 C 0.28329 0.96981 0.51903 0.0
C446 C 0.30108 0.94801 0.52714 0.0
C447 C 0.3442 0.96509 0.52798 0.0
C448 C 0.19891 0.92004 0.47941 0.0
C449 C 0.17287 0.8812 0.48701 0.0
C450 C 0.23227 0.95187 0.49095 0.0
C451 C 0.23999 0.94549 0.51038 0.0
C452 C 0.20968 0.90944 0.51897 0.0
C453 C 0.17653 0.87735 0.50733 0.0
H454 H 0.68445 0.40592 0.88364 0.0
H455 H 0.55203 0.31734 0.88097 0.0
H456 H 0.69828 0.34793 0.88429 0.0
H457 H 0.56573 0.26043 0.88221 0.0
H458 H 0.58076 0.15994 0.86396 0.0
H459 H 0.59472 0.21602 0.88958 0.0
H460 H 0.68435 0.30668 0.8521 0.0
H461 H 0.67021 0.25128 0.82672 0.0
C462 C 0.65829 0.37434 0.88402 0.0
C463 C 0.61717 0.36607 0.88114 0.0
C464 C 0.66627 0.34119 0.88459 0.0
C465 C 0.63318 0.29952 0.88244 0.0
C466 C 0.59212 0.29208 0.88363 0.0
C467 C 0.58416 0.32506 0.88286 0.0
C468 C 0.60447 0.19177 0.86154 0.0
C469 C 0.62309 0.20151 0.84302 0.0
C470 C 0.61274 0.22379 0.87629 0.0
C471 C 0.63956 0.26591 0.87263 0.0
C472 C 0.6633 0.27465 0.85546 0.0
C473 C 0.65498 0.24271 0.84073 0.0
H474 H 0.70976 0.98316 0.49991 0.0
H475 H 0.57579 0.91446 0.49374 0.0
H476 H 0.70999 0.91882 0.50474 0.0
H477 H 0.57538 0.84971 0.49975 0.0
H478 H 0.58385 0.72967 0.50079 0.0
H479 H 0.58348 0.79274 0.49273 0.0
H480 H 0.70265 0.86896 0.52367 0.0
H481 H 0.70464 0.80673 0.53009 0.0
C482 C 0.68008 0.95426 0.49972 0.0
C483 C 0.64279 0.95476 0.49638 0.0
C484 C 0.68007 0.91675 0.50276 0.0
C485 C 0.64264 0.87767 0.50307 0.0
C486 C 0.60522 0.87821 0.49949 0.0
C487 C 0.60533 0.91581 0.49609 0.0
C488 C 0.61048 0.75979 0.50561 0.0
C489 C 0.64412 0.76176 0.51638 0.0
C490 C 0.60998 0.79661 0.50119 0.0
C491 C 0.64297 0.8374 0.50742 0.0
C492 C 0.67659 0.83914 0.51808 0.0
C493 C 0.67735 0.80254 0.52223 0.0
H494 H 0.7911 0.65931 0.83959 0.0
H495 H 0.7226 0.52421 0.83246 0.0
H496 H 0.85561 0.65824 0.84482 0.0
H497 H 0.78695 0.52274 0.83657 0.0
H498 H 0.90205 0.52385 0.85964 0.0
H499 H 0.83904 0.52637 0.85462 0.0
H500 H 0.91152 0.65189 0.83598 0.0
H501 H 0.97527 0.65063 0.84271 0.0
C502 C 0.78968 0.6292 0.83889 0.0
C503 C 0.75085 0.59187 0.83559 0.0
C504 C 0.82723 0.62849 0.84179 0.0
C505 C 0.82799 0.59037 0.84129 0.0
C506 C 0.78894 0.55307 0.83766 0.0
C507 C 0.7514 0.55382 0.83506 0.0
C508 C 0.90524 0.55258 0.85483 0.0
C509 C 0.94525 0.58725 0.85199 0.0
C510 C 0.86817 0.55373 0.85149 0.0
C511 C 0.86862 0.58935 0.84473 0.0
C512 C 0.9086 0.62379 0.84147 0.0
C513 C 0.94585 0.62283 0.84507 0.0
H514 H 0.29096 0.70668 0.15546 0.0
H515 H 0.23086 0.76881 0.18506 0.0
H516 H 0.35764 0.77178 0.15909 0.0
H517 H 0.29777 0.83361 0.18966 0.0
H518 H 0.41969 0.95716 0.18538 0.0
H519 H 0.35276 0.89315 0.17939 0.0
H520 H 0.41481 0.82028 0.17704 0.0
H521 H 0.48152 0.88412 0.18139 0.0
C522 C 0.29186 0.73415 0.16293 0.0
C523 C 0.25476 0.73174 0.1699 0.0
C524 C 0.33068 0.772 0.16521 0.0
C525 C 0.33454 0.80931 0.17485 0.0
C526 C 0.29719 0.80666 0.18183 0.0
C527 C 0.25828 0.76891 0.17931 0.0
C528 C 0.41948 0.9277 0.18323 0.0
C529 C 0.45734 0.92711 0.18409 0.0
C530 C 0.38036 0.89026 0.18009 0.0
C531 C 0.37693 0.85014 0.17777 0.0
C532 C 0.41487 0.84969 0.17843 0.0
C533 C 0.4539 0.88705 0.18135 0.0
H534 H 0.58301 0.16195 0.50993 0.0
H535 H 0.70932 0.22718 0.49031 0.0
H536 H 0.58358 0.22833 0.51512 0.0
H537 H 0.70962 0.29357 0.49479 0.0
H538 H 0.71457 0.41428 0.52075 0.0
H539 H 0.71358 0.34806 0.51537 0.0
H540 H 0.58077 0.28408 0.50325 0.0
H541 H 0.5814 0.35022 0.50986 0.0
C542 C 0.61097 0.19038 0.50653 0.0
C543 C 0.64612 0.18842 0.49964 0.0
C544 C 0.61123 0.22895 0.5094 0.0
C545 C 0.64663 0.26754 0.50545 0.0
C546 C 0.68174 0.26539 0.49844 0.0
C547 C 0.68152 0.22682 0.49567 0.0
C548 C 0.68483 0.38624 0.51719 0.0
C549 C 0.648 0.38874 0.51602 0.0
C550 C 0.68437 0.34769 0.51374 0.0
C551 C 0.64708 0.30945 0.5088 0.0
C552 C 0.6103 0.312 0.5073 0.0
C553 C 0.61075 0.35062 0.51083 0.0
H554 H 0.5455 0.65333 0.84577 0.0
H555 H 0.47773 0.52497 0.8209 0.0
H556 H 0.48006 0.65303 0.85074 0.0
H557 H 0.41214 0.52481 0.8253 0.0
H558 H 0.29604 0.52034 0.85221 0.0
H559 H 0.36134 0.52167 0.84627 0.0
H560 H 0.42181 0.65449 0.83932 0.0
H561 H 0.35668 0.65356 0.84639 0.0
C562 C 0.51667 0.62493 0.8412 0.0
C563 C 0.51769 0.58907 0.83299 0.0
C564 C 0.47862 0.62482 0.84395 0.0
C565 C 0.43955 0.58881 0.83862 0.0
C566 C 0.44076 0.55315 0.83009 0.0
C567 C 0.47885 0.55328 0.82735 0.0
C568 C 0.32312 0.55018 0.84967 0.0
C569 C 0.31994 0.58692 0.8501 0.0
C570 C 0.36111 0.55082 0.8459 0.0
C571 C 0.39814 0.5882 0.84223 0.0
C572 C 0.39488 0.6249 0.84232 0.0
C573 C 0.3568 0.62427 0.84615 0.0
H574 H 1.04761 0.46568 0.17547 0.0
H575 H 0.97861 0.5264 0.1611 0.0
H576 H 0.98271 0.40162 0.18071 0.0
H577 H 0.91315 0.46151 0.16581 0.0
H578 H 0.80298 0.35167 0.1951 0.0
H579 H 0.86711 0.41563 0.1887 0.0
H580 H 0.9221 0.34171 0.16729 0.0
H581 H 0.85854 0.27776 0.1745 0.0
C582 C 1.0186 0.46549 0.17323 0.0
C583 C 1.0192 0.50203 0.16775 0.0
C584 C 0.98086 0.42816 0.17615 0.0
C585 C 0.94162 0.42534 0.17379 0.0
C586 C 0.94218 0.46188 0.16818 0.0
C587 C 0.98007 0.49936 0.16525 0.0
C588 C 0.82867 0.34867 0.18917 0.0
C589 C 0.82462 0.30846 0.18556 0.0
C590 C 0.86577 0.38588 0.18519 0.0
C591 C 0.90087 0.38493 0.17741 0.0
C592 C 0.89662 0.34469 0.17352 0.0
C593 C 0.85945 0.30745 0.17745 0.0
H594 H 0.13401 0.55092 0.09859 0.0
H595 H 0.13984 0.67096 0.1002 0.0
H596 H 0.13567 0.54832 0.06245 0.0
H597 H 0.1407 0.66801 0.06409 0.0
H598 H 0.18343 0.66994 1.00031 0.0
H599 H 0.18358 0.67244 0.03645 0.0
H600 H 0.09461 0.5396 0.03326 0.0
H601 H 0.09572 0.53679 0.99716 0.0
C602 C 0.13546 0.57671 0.09127 0.0
C603 C 0.13679 0.61115 0.10243 0.0
C604 C 0.13619 0.57512 0.07046 0.0
C605 C 0.13833 0.60795 0.06019 0.0
C606 C 0.13965 0.64239 0.07139 0.0
C607 C 0.13888 0.64395 0.09218 0.0
C608 C 0.16424 0.64112 0.00728 0.0
C609 C 0.13956 0.60316 0.99566 0.0
C610 C 0.16392 0.64266 0.02808 0.0
C611 C 0.139 0.60626 0.03794 0.0
C612 C 0.11454 0.56825 0.02631 0.0
C613 C 0.11479 0.56673 0.00552 0.0
H614 H 0.58745 1.04797 0.42591 0.0
H615 H 0.7199 0.09422 0.43026 0.0
H616 H 0.59202 1.05563 0.39044 0.0
H617 H 0.72438 0.10161 0.39446 0.0
H618 H 0.7201 0.1543 0.33426 0.0
H619 H 0.71793 0.14497 0.3698 0.0
H620 H 0.60438 1.02571 0.35961 0.0
H621 H 0.60601 1.03543 0.32432 0.0
C622 C 0.61759 1.05948 0.4193 0.0
C623 C 0.6533 0.07039 0.43106 0.0
C624 C 0.62016 0.0637 0.39885 0.0
C625 C 0.65857 0.07925 0.38948 0.0
C626 C 0.69433 0.0899 0.40118 0.0
C627 C 0.6917 0.08531 0.4217 0.0
C628 C 0.69458 0.12618 0.33961 0.0
C629 C 0.66324 0.09566 0.32632 0.0
C630 C 0.69357 0.12061 0.35999 0.0
C631 C 0.66096 0.08457 0.36766 0.0
C632 C 0.62978 1.05404 0.35433 0.0
C633 C 0.63095 1.05944 0.334 0.0
H634 H 0.59497 0.51437 0.76286 0.0
H635 H 0.65556 0.64967 0.76609 0.0
H636 H 0.59317 0.51194 0.72675 0.0
H637 H 0.65496 0.64735 0.73004 0.0
H638 H 0.61568 0.62939 0.66487 0.0
H639 H 0.61286 0.63002 0.70087 0.0
H640 H 0.63575 0.52592 0.69884 0.0
H641 H 0.63622 0.52378 0.66282 0.0
C642 C 0.60805 0.54366 0.75591 0.0
C643 C 0.62544 0.5822 0.76753 0.0
C644 C 0.60728 0.5423 0.73511 0.0
C645 C 0.62405 0.57945 0.72526 0.0
C646 C 0.64116 0.61797 0.73693 0.0
C647 C 0.64176 0.61932 0.75772 0.0
C648 C 0.61951 0.60619 0.67203 0.0
C649 C 0.62623 0.57655 0.66072 0.0
C650 C 0.61847 0.60692 0.69281 0.0
C651 C 0.62423 0.57813 0.70299 0.0
C652 C 0.63068 0.54834 0.69167 0.0
C653 C 0.63157 0.54751 0.6709 0.0
H654 H 0.70246 0.13383 0.56064 0.0
H655 H 0.56964 1.04887 0.55271 0.0
H656 H 0.69329 0.14525 0.59609 0.0
H657 H 0.56078 1.06026 0.58778 0.0
H658 H 0.55075 0.11851 0.64644 0.0
H659 H 0.56749 0.1189 0.61149 0.0
H660 H 0.67066 0.10126 0.62604 0.0
H661 H 0.65364 0.1003 0.66106 0.0
C662 C 0.67142 0.11768 0.56642 0.0
C663 C 0.63683 0.09034 0.55387 0.0
C664 C 0.66622 0.12416 0.58668 0.0
C665 C 0.62629 0.1039 0.59462 0.0
C666 C 0.59184 0.07681 0.58202 0.0
C667 C 0.59704 0.07 0.56194 0.0
C668 C 0.57714 0.11492 0.64221 0.0
C669 C 0.60048 0.10875 0.65649 0.0
C670 C 0.58675 0.11524 0.62222 0.0
C671 C 0.62005 0.10959 0.61605 0.0
C672 C 0.64497 0.10592 0.63041 0.0
C673 C 0.63522 0.10541 0.65045 0.0
H674 H 0.58101 0.55995 0.89446 0.0
H675 H 0.71536 0.62708 0.89233 0.0
H676 H 0.58541 0.54491 0.92835 0.0
H677 H 0.7199 0.61204 0.92675 0.0
H678 H 0.69353 0.51115 0.9735 0.0
H679 H 0.70059 0.54521 0.94292 0.0
H680 H 0.60771 0.57697 0.96224 0.0
H681 H 0.59915 0.54152 0.99218 0.0
C682 C 0.61159 0.5722 0.90142 0.0
C683 C 0.64785 0.59462 0.89078 0.0
C684 C 0.61413 0.5638 0.92091 0.0
C685 C 0.65302 0.57732 0.93025 0.0
C686 C 0.68952 0.60111 0.91988 0.0
C687 C 0.68695 0.61003 0.9003 0.0
C688 C 0.67483 0.52565 0.97127 0.0
C689 C 0.64544 0.5231 0.98525 0.0
C690 C 0.67931 0.54566 0.95388 0.0
C691 C 0.65443 0.56344 0.95012 0.0
C692 C 0.62698 0.56314 0.96463 0.0
C693 C 0.62241 0.54311 0.98192 0.0
H694 H 1.06613 0.58574 0.22408 0.0
H695 H 0.20038 0.65531 0.23064 0.0
H696 H 1.06046 0.59219 0.25976 0.0
H697 H 0.19494 0.66403 0.26659 0.0
H698 H 0.16933 0.64516 0.33266 0.0
H699 H 0.17711 0.63325 0.2972 0.0
H700 H 1.06827 0.64318 0.28435 0.0
H701 H 1.0597 0.65294 0.31967 0.0
C702 C 0.09451 0.60258 0.23323 0.0
C703 C 0.1337 0.62031 0.22463 0.0
C704 C 0.09129 0.60665 0.25371 0.0
C705 C 0.1272 0.62943 0.26614 0.0
C706 C 0.16658 0.64604 0.25754 0.0
C707 C 0.16979 0.6412 0.23696 0.0
C708 C 0.14717 0.6447 0.32215 0.0
C709 C 0.11372 0.64957 0.32882 0.0
C710 C 0.15168 0.63808 0.30184 0.0
C711 C 0.12312 0.63682 0.28781 0.0
C712 C 0.09022 0.64269 0.29464 0.0
C713 C 1.08537 0.64857 0.31489 0.0
loop_
_geom_bond_atom_site_label_1
_geom_bond_atom_site_label_2
_geom_bond_distance
_geom_bond_site_symmetry_2
_ccdc_geom_bond_type
Tb0 C9 2.764 1_455 S
Tb0 O10 2.325 1_455 S
Tb0 O13 2.303 . S
Tb0 O17 2.322 . S
Tb0 O18 2.349 . S
Tb0 O21 2.415 1_455 S
Tb0 O22 2.399 1_455 S
Tb1 O11 2.322 . S
Tb1 O12 2.349 . S
Tb1 O14 2.415 . S
Tb1 O15 2.399 . S
Tb1 O16 2.325 . S
Tb1 O19 2.303 . S
Tb1 C30 2.764 . S
C2 O18 1.261 . S
C2 O19 1.257 . S
C3 C6 1.358 . S
C3 C7 1.332 . S
C3 C9 1.504 . S
C4 C5 1.373 . S
C4 C8 1.308 . S
C5 C4 1.373 . S
C5 C6 1.429 . S
C5 H32 0.932 . S
C6 C3 1.358 . S
C6 C5 1.429 . S
C6 H33 0.930 . S
C7 C3 1.332 . S
C7 C8 1.394 . S
C7 H34 0.932 . S
C8 C4 1.308 . S
C8 C7 1.394 . S
C8 H35 0.929 . S
C9 Tb0 2.764 1_655 S
C9 C3 1.504 . S
C9 O21 1.239 . S
C9 O22 1.263 . S
O10 Tb0 2.325 1_655 S
O10 C20 1.236 . S
O11 Tb1 2.322 . S
O11 C20 1.257 1_455 S
O12 Tb1 2.349 . S
O12 C23 1.261 . S
O13 Tb0 2.303 . S
O13 C23 1.257 . S
O14 Tb1 2.415 . S
O14 C30 1.239 . S
O15 Tb1 2.399 . S
O15 C30 1.263 . S
O16 Tb1 2.325 . S
O16 C31 1.236 . S
O17 Tb0 2.322 . S
O17 C31 1.257 . S
O18 Tb0 2.349 . S
O18 C2 1.261 . S
O19 Tb1 2.303 . S
O19 C2 1.257 . S
C20 O10 1.236 . S
C20 O11 1.257 1_655 S
O21 Tb0 2.415 1_655 S
O21 C9 1.239 . S
O22 Tb0 2.399 1_655 S
O22 C9 1.263 . S
C23 O12 1.261 . S
C23 O13 1.257 . S
C24 C27 1.358 . S
C24 C28 1.332 . S
C24 C30 1.504 . S
C25 C26 1.373 . S
C25 C29 1.308 . S
C26 C25 1.373 . S
C26 C27 1.429 . S
C26 H36 0.932 . S
C27 C24 1.358 . S
C27 C26 1.429 . S
C27 H37 0.930 . S
C28 C24 1.332 . S
C28 C29 1.394 . S
C28 H38 0.932 . S
C29 C25 1.308 . S
C29 C28 1.394 . S
C29 H39 0.929 . S
C30 Tb1 2.764 . S
C30 O14 1.239 . S
C30 O15 1.263 . S
C30 C24 1.504 . S
C31 O16 1.236 . S
C31 O17 1.257 . S
H32 C5 0.932 . S
H33 C6 0.930 . S
H34 C7 0.932 . S
H35 C8 0.929 . S
H36 C26 0.932 . S
H37 C27 0.930 . S
H38 C28 0.932 . S
H39 C29 0.929 . S
Tb40 C49 2.764 . S
Tb40 O50 2.325 . S
Tb40 O53 2.303 1_565 S
Tb40 O57 2.322 1_565 S
Tb40 O58 2.349 1_565 S
Tb40 O61 2.415 . S
Tb40 O62 2.399 . S
Tb41 O51 2.322 1_545 S
Tb41 O52 2.349 . S
Tb41 O54 2.415 . S
Tb41 O55 2.399 . S
Tb41 O56 2.325 . S
Tb41 O59 2.303 . S
Tb41 C70 2.764 . S
C42 O58 1.261 . S
C42 O59 1.257 . S
C43 C46 1.358 . S
C43 C47 1.332 . S
C43 C49 1.504 . S
C44 C45 1.373 . S
C44 C48 1.308 . S
C45 C44 1.373 . S
C45 C46 1.429 . S
C45 H72 0.932 . S
C46 C43 1.358 . S
C46 C45 1.429 . S
C46 H73 0.930 . S
C47 C43 1.332 . S
C47 C48 1.394 . S
C47 H74 0.932 . S
C48 C44 1.308 . S
C48 C47 1.394 . S
C48 H75 0.929 . S
C49 Tb40 2.764 . S
C49 C43 1.504 . S
C49 O61 1.239 . S
C49 O62 1.263 . S
O50 Tb40 2.325 . S
O50 C60 1.236 . S
O51 Tb41 2.322 1_565 S
O51 C60 1.257 . S
O52 Tb41 2.349 . S
O52 C63 1.261 . S
O53 Tb40 2.303 1_545 S
O53 C63 1.257 . S
O54 Tb41 2.415 . S
O54 C70 1.239 . S
O55 Tb41 2.399 . S
O55 C70 1.263 . S
O56 Tb41 2.325 . S
O56 C71 1.236 . S
O57 Tb40 2.322 1_545 S
O57 C71 1.257 . S
O58 Tb40 2.349 1_545 S
O58 C42 1.261 . S
O59 Tb41 2.303 . S
O59 C42 1.257 . S
C60 O50 1.236 . S
C60 O51 1.257 . S
O61 Tb40 2.415 . S
O61 C49 1.239 . S
O62 Tb40 2.399 . S
O62 C49 1.263 . S
C63 O52 1.261 . S
C63 O53 1.257 . S
C64 C67 1.358 . S
C64 C68 1.332 . S
C64 C70 1.504 . S
C65 C66 1.373 . S
C65 C69 1.308 . S
C66 C65 1.373 . S
C66 C67 1.429 . S
C66 H76 0.932 . S
C67 C64 1.358 . S
C67 C66 1.429 . S
C67 H77 0.930 . S
C68 C64 1.332 . S
C68 C69 1.394 . S
C68 H78 0.932 . S
C69 C65 1.308 . S
C69 C68 1.394 . S
C69 H79 0.929 . S
C70 Tb41 2.764 . S
C70 O54 1.239 . S
C70 O55 1.263 . S
C70 C64 1.504 . S
C71 O56 1.236 . S
C71 O57 1.257 . S
H72 C45 0.932 . S
H73 C46 0.930 . S
H74 C47 0.932 . S
H75 C48 0.929 . S
H76 C66 0.932 . S
H77 C67 0.930 . S
H78 C68 0.932 . S
H79 C69 0.929 . S
Tb80 C89 2.764 . S
Tb80 O90 2.325 . S
Tb80 O93 2.303 . S
Tb80 O97 2.322 . S
Tb80 O98 2.349 . S
Tb80 O101 2.415 . S
Tb80 O102 2.399 . S
Tb81 O91 2.322 . S
Tb81 O92 2.349 . S
Tb81 O94 2.415 . S
Tb81 O95 2.399 . S
Tb81 O96 2.325 . S
Tb81 O99 2.303 . S
Tb81 C110 2.764 . S
C82 O98 1.261 . S
C82 O99 1.257 . S
C83 C86 1.358 . S
C83 C87 1.332 . S
C83 C89 1.504 . S
C84 C85 1.373 . S
C84 C88 1.308 . S
C85 C84 1.373 . S
C85 C86 1.429 . S
C85 H112 0.932 . S
C86 C83 1.358 . S
C86 C85 1.429 . S
C86 H113 0.930 . S
C87 C83 1.332 . S
C87 C88 1.394 . S
C87 H114 0.932 . S
C88 C84 1.308 . S
C88 C87 1.394 . S
C88 H115 0.929 . S
C89 Tb80 2.764 . S
C89 C83 1.504 . S
C89 O101 1.239 . S
C89 O102 1.263 . S
O90 Tb80 2.325 . S
O90 C100 1.236 . S
O91 Tb81 2.322 . S
O91 C100 1.257 . S
O92 Tb81 2.349 . S
O92 C103 1.261 . S
O93 Tb80 2.303 . S
O93 C103 1.257 . S
O94 Tb81 2.415 . S
O94 C110 1.239 . S
O95 Tb81 2.399 . S
O95 C110 1.263 . S
O96 Tb81 2.325 . S
O96 C111 1.236 . S
O97 Tb80 2.322 . S
O97 C111 1.257 . S
O98 Tb80 2.349 . S
O98 C82 1.261 . S
O99 Tb81 2.303 . S
O99 C82 1.257 . S
C100 O90 1.236 . S
C100 O91 1.257 . S
O101 Tb80 2.415 . S
O101 C89 1.239 . S
O102 Tb80 2.399 . S
O102 C89 1.263 . S
C103 O92 1.261 . S
C103 O93 1.257 . S
C104 C107 1.358 . S
C104 C108 1.332 . S
C104 C110 1.504 . S
C105 C106 1.373 . S
C105 C109 1.308 . S
C106 C105 1.373 . S
C106 C107 1.429 . S
C106 H116 0.932 . S
C107 C104 1.358 . S
C107 C106 1.429 . S
C107 H117 0.930 . S
C108 C104 1.332 . S
C108 C109 1.394 . S
C108 H118 0.932 . S
C109 C105 1.308 . S
C109 C108 1.394 . S
C109 H119 0.929 . S
C110 Tb81 2.764 . S
C110 O94 1.239 . S
C110 O95 1.263 . S
C110 C104 1.504 . S
C111 O96 1.236 . S
C111 O97 1.257 . S
H112 C85 0.932 . S
H113 C86 0.930 . S
H114 C87 0.932 . S
H115 C88 0.929 . S
H116 C106 0.932 . S
H117 C107 0.930 . S
H118 C108 0.932 . S
H119 C109 0.929 . S
C120 C121 1.386 . S
C120 C122 1.397 . S
C120 H144 0.931 . S
C121 C120 1.386 . S
C121 C125 1.397 . S
C122 C120 1.397 . S
C122 C123 1.384 . S
C122 H145 0.930 . S
C123 C122 1.384 . S
C123 C124 1.377 . S
C123 C126 1.481 . S
C124 C123 1.377 . S
C124 C125 1.389 . S
C124 H146 0.929 1_545 S
C125 C121 1.397 . S
C125 C124 1.389 . S
C125 H147 0.931 1_545 S
C126 C123 1.481 . S
C126 C127 1.387 . S
C126 C131 1.399 . S
C127 C126 1.387 . S
C127 C128 1.401 . S
C127 H148 0.930 . S
C128 C127 1.401 . S
C128 C129 1.376 . S
C128 C137 1.511 . S
C129 C128 1.376 . S
C129 C130 1.392 1_545 S
C129 H150 0.931 . S
C130 C129 1.392 1_565 S
C130 C131 1.361 1_565 S
C130 C132 1.500 . S
C131 C126 1.399 . S
C131 C130 1.361 1_545 S
C131 H149 0.923 1_545 S
C132 C130 1.500 . S
C132 C133 1.371 . S
C132 C134 1.365 . S
C133 C132 1.371 . S
C133 C143 1.386 . S
C133 H151 0.931 . S
C134 C132 1.365 . S
C134 C135 1.409 . S
C134 H152 0.929 . S
C135 C134 1.409 . S
C135 C136 1.380 . S
C135 H153 0.930 . S
C136 C135 1.380 . S
C136 C143 1.357 . S
C137 C128 1.511 . S
C137 C138 1.341 . S
C137 C139 1.371 . S
C138 C137 1.341 . S
C138 C142 1.394 . S
C138 H154 0.930 . S
C139 C137 1.371 . S
C139 C140 1.392 . S
C139 H155 0.931 . S
C140 C139 1.392 . S
C140 C141 1.331 . S
C140 H158 0.932 . S
C141 C140 1.331 . S
C141 C142 1.336 . S
C142 C138 1.394 . S
C142 C141 1.336 . S
C142 H157 0.929 . S
C143 C133 1.386 . S
C143 C136 1.357 . S
C143 H156 0.928 . S
H144 C120 0.931 . S
H145 C122 0.930 . S
H146 C124 0.929 1_565 S
H147 C125 0.931 1_565 S
H148 C127 0.930 . S
H149 C131 0.923 1_565 S
H150 C129 0.931 . S
H151 C133 0.931 . S
H152 C134 0.929 . S
H153 C135 0.930 . S
H154 C138 0.930 . S
H155 C139 0.931 . S
H156 C143 0.928 . S
H157 C142 0.929 . S
H158 C140 0.932 . S
C159 C160 1.386 . S
C159 C161 1.397 . S
C159 H183 0.931 . S
C160 C159 1.386 . S
C160 C164 1.397 . S
C161 C159 1.397 . S
C161 C162 1.384 . S
C161 H184 0.930 . S
C162 C161 1.384 . S
C162 C163 1.377 . S
C162 C165 1.481 . S
C163 C162 1.377 . S
C163 C164 1.389 . S
C163 H185 0.929 . S
C164 C160 1.397 . S
C164 C163 1.389 . S
C164 H186 0.931 . S
C165 C162 1.481 . S
C165 C166 1.387 . S
C165 C170 1.390 . S
C166 C165 1.387 . S
C166 C167 1.401 . S
C166 H187 0.930 . S
C167 C166 1.401 . S
C167 C168 1.376 . S
C167 C176 1.511 . S
C168 C167 1.376 . S
C168 C169 1.392 . S
C168 H189 0.931 . S
C169 C168 1.392 . S
C169 C170 1.361 . S
C169 C171 1.500 . S
C170 C165 1.390 . S
C170 C169 1.361 . S
C170 H188 0.931 . S
C171 C169 1.500 . S
C171 C172 1.371 . S
C171 C173 1.365 . S
C172 C171 1.371 . S
C172 C182 1.386 . S
C172 H190 0.931 . S
C173 C171 1.365 . S
C173 C174 1.409 . S
C173 H191 0.929 . S
C174 C173 1.409 . S
C174 C175 1.380 . S
C174 H192 0.930 . S
C175 C174 1.380 . S
C175 C182 1.357 . S
C176 C167 1.511 . S
C176 C177 1.341 . S
C176 C178 1.371 . S
C177 C176 1.341 . S
C177 C181 1.394 . S
C177 H193 0.930 . S
C178 C176 1.371 . S
C178 C179 1.392 . S
C178 H194 0.931 . S
C179 C178 1.392 . S
C179 C180 1.331 . S
C179 H197 0.932 . S
C180 C179 1.331 . S
C180 C181 1.336 . S
C181 C177 1.394 . S
C181 C180 1.336 . S
C181 H196 0.929 . S
C182 C172 1.386 . S
C182 C175 1.357 . S
C182 H195 0.928 . S
H183 C159 0.931 . S
H184 C161 0.930 . S
H185 C163 0.929 . S
H186 C164 0.931 . S
H187 C166 0.930 . S
H188 C170 0.931 . S
H189 C168 0.931 . S
H190 C172 0.931 . S
H191 C173 0.929 . S
H192 C174 0.930 . S
H193 C177 0.930 . S
H194 C178 0.931 . S
H195 C182 0.928 . S
H196 C181 0.929 . S
H197 C179 0.932 . S
C198 C199 1.386 . S
C198 C200 1.397 . S
C198 H222 0.931 . S
C199 C198 1.386 . S
C199 C203 1.397 . S
C200 C198 1.397 . S
C200 C201 1.384 . S
C200 H223 0.930 . S
C201 C200 1.384 . S
C201 C202 1.377 . S
C201 C204 1.481 . S
C202 C201 1.377 . S
C202 C203 1.389 . S
C202 H224 0.929 . S
C203 C199 1.397 . S
C203 C202 1.389 . S
C203 H225 0.931 . S
C204 C201 1.481 . S
C204 C205 1.387 . S
C204 C209 1.390 . S
C205 C204 1.387 . S
C205 C206 1.401 . S
C205 H226 0.930 . S
C206 C205 1.401 . S
C206 C207 1.376 . S
C206 C215 1.511 . S
C207 C206 1.376 . S
C207 C208 1.392 . S
C207 H228 0.931 . S
C208 C207 1.392 . S
C208 C209 1.361 . S
C208 C210 1.484 1_455 S
C209 C204 1.390 . S
C209 C208 1.361 . S
C209 H227 0.931 . S
C210 C208 1.484 1_655 S
C210 C211 1.373 1_655 S
C210 C212 1.379 . S
C211 C210 1.373 1_455 S
C211 C221 1.386 1_455 S
C211 H229 0.931 . S
C212 C210 1.379 . S
C212 C213 1.409 . S
C212 H230 0.929 . S
C213 C212 1.409 . S
C213 C214 1.380 . S
C213 H231 0.930 . S
C214 C213 1.380 . S
C214 C221 1.357 . S
C215 C206 1.511 . S
C215 C216 1.341 . S
C215 C217 1.371 . S
C216 C215 1.341 . S
C216 C220 1.394 . S
C216 H232 0.930 . S
C217 C215 1.371 . S
C217 C218 1.392 . S
C217 H233 0.931 . S
C218 C217 1.392 . S
C218 C219 1.331 . S
C218 H236 0.932 . S
C219 C218 1.331 . S
C219 C220 1.336 . S
C220 C216 1.394 . S
C220 C219 1.336 . S
C220 H235 0.929 . S
C221 C211 1.386 1_655 S
C221 C214 1.357 . S
C221 H234 0.928 . S
H222 C198 0.931 . S
H223 C200 0.930 . S
H224 C202 0.929 . S
H225 C203 0.931 . S
H226 C205 0.930 . S
H227 C209 0.931 . S
H228 C207 0.931 . S
H229 C211 0.931 . S
H230 C212 0.929 . S
H231 C213 0.930 . S
H232 C216 0.930 . S
H233 C217 0.931 . S
H234 C221 0.928 . S
H235 C220 0.929 . S
H236 C218 0.932 . S
C237 C238 1.386 . S
C237 C239 1.397 . S
C237 H261 0.931 . S
C238 C237 1.386 . S
C238 C242 1.397 1_655 S
C239 C237 1.397 . S
C239 C240 1.384 . S
C239 H262 0.930 . S
C240 C239 1.384 . S
C240 C241 1.377 1_655 S
C240 C243 1.481 . S
C241 C240 1.377 1_455 S
C241 C242 1.389 . S
C241 H263 0.929 . S
C242 C238 1.397 1_455 S
C242 C241 1.389 . S
C242 H264 0.931 . S
C243 C240 1.481 . S
C243 C244 1.387 . S
C243 C248 1.390 1_655 S
C244 C243 1.387 . S
C244 C245 1.401 . S
C244 H265 0.930 . S
C245 C244 1.401 . S
C245 C246 1.375 . S
C245 C254 1.511 . S
C246 C245 1.375 . S
C246 C247 1.393 1_655 S
C246 H267 0.931 1_655 S
C247 C246 1.393 1_455 S
C247 C248 1.361 . S
C247 C249 1.500 . S
C248 C243 1.390 1_455 S
C248 C247 1.361 . S
C248 H266 0.931 . S
C249 C247 1.500 . S
C249 C250 1.371 . S
C249 C251 1.365 . S
C250 C249 1.371 . S
C250 C260 1.386 . S
C250 H268 0.931 . S
C251 C249 1.365 . S
C251 C252 1.409 . S
C251 H269 0.929 . S
C252 C251 1.409 . S
C252 C253 1.380 . S
C252 H270 0.930 . S
C253 C252 1.380 . S
C253 C260 1.357 . S
C254 C245 1.511 . S
C254 C255 1.341 . S
C254 C256 1.371 . S
C255 C254 1.341 . S
C255 C259 1.394 . S
C255 H271 0.930 . S
C256 C254 1.371 . S
C256 C257 1.392 . S
C256 H272 0.931 . S
C257 C256 1.392 . S
C257 C258 1.331 . S
C257 H275 0.932 . S
C258 C257 1.331 . S
C258 C259 1.336 . S
C259 C255 1.394 . S
C259 C258 1.336 . S
C259 H274 0.929 . S
C260 C250 1.386 . S
C260 C253 1.357 . S
C260 H273 0.928 . S
H261 C237 0.931 . S
H262 C239 0.930 . S
H263 C241 0.929 . S
H264 C242 0.931 . S
H265 C244 0.930 . S
H266 C248 0.931 . S
H267 C246 0.931 1_455 S
H268 C250 0.931 . S
H269 C251 0.929 . S
H270 C252 0.930 . S
H271 C255 0.930 . S
H272 C256 0.931 . S
H273 C260 0.928 . S
H274 C259 0.929 . S
H275 C257 0.932 . S
C276 C277 1.386 . S
C276 C278 1.397 . S
C276 H300 0.931 . S
C277 C276 1.386 . S
C277 C281 1.397 1_565 S
C278 C276 1.397 . S
C278 C279 1.384 . S
C278 H301 0.930 . S
C279 C278 1.384 . S
C279 C280 1.377 1_565 S
C279 C282 1.481 . S
C280 C279 1.377 1_545 S
C280 C281 1.389 . S
C280 H302 0.929 . S
C281 C277 1.397 1_545 S
C281 C280 1.389 . S
C281 H303 0.931 . S
C282 C279 1.481 . S
C282 C283 1.387 . S
C282 C287 1.390 1_565 S
C283 C282 1.387 . S
C283 C284 1.401 . S
C283 H304 0.930 . S
C284 C283 1.401 . S
C284 C285 1.376 1_565 S
C284 C293 1.511 . S
C285 C284 1.376 1_545 S
C285 C286 1.392 . S
C285 H306 0.931 . S
C286 C285 1.392 . S
C286 C287 1.361 . S
C286 C288 1.500 . S
C287 C282 1.390 1_545 S
C287 C286 1.361 . S
C287 H305 0.931 . S
C288 C286 1.500 . S
C288 C289 1.371 . S
C288 C290 1.365 . S
C289 C288 1.371 . S
C289 C299 1.386 . S
C289 H307 0.931 . S
C290 C288 1.365 . S
C290 C291 1.409 . S
C290 H308 0.929 . S
C291 C290 1.409 . S
C291 C292 1.380 . S
C291 H309 0.930 . S
C292 C291 1.380 . S
C292 C299 1.357 . S
C293 C284 1.511 . S
C293 C294 1.341 . S
C293 C295 1.371 . S
C294 C293 1.341 . S
C294 C298 1.394 . S
C294 H310 0.930 . S
C295 C293 1.371 . S
C295 C296 1.392 . S
C295 H311 0.931 . S
C296 C295 1.392 . S
C296 C297 1.331 . S
C296 H314 0.932 . S
C297 C296 1.331 . S
C297 C298 1.336 . S
C298 C294 1.394 . S
C298 C297 1.336 . S
C298 H313 0.929 . S
C299 C289 1.386 . S
C299 C292 1.357 . S
C299 H312 0.928 . S
H300 C276 0.931 . S
H301 C278 0.930 . S
H302 C280 0.929 . S
H303 C281 0.931 . S
H304 C283 0.930 . S
H305 C287 0.931 . S
H306 C285 0.931 . S
H307 C289 0.931 . S
H308 C290 0.929 . S
H309 C291 0.930 . S
H310 C294 0.930 . S
H311 C295 0.931 . S
H312 C299 0.928 . S
H313 C298 0.929 . S
H314 C296 0.932 . S
C315 C316 1.386 . S
C315 C317 1.397 . S
C315 H339 0.931 . S
C316 C315 1.386 . S
C316 C320 1.397 . S
C317 C315 1.397 . S
C317 C318 1.384 . S
C317 H340 0.930 . S
C318 C317 1.384 . S
C318 C319 1.377 . S
C318 C321 1.481 . S
C319 C318 1.377 . S
C319 C320 1.389 . S
C319 H341 0.929 . S
C320 C316 1.397 . S
C320 C319 1.389 . S
C320 H342 0.931 . S
C321 C318 1.481 . S
C321 C322 1.387 . S
C321 C326 1.390 . S
C322 C321 1.387 . S
C322 C323 1.401 . S
C322 H343 0.930 . S
C323 C322 1.401 . S
C323 C324 1.376 . S
C323 C332 1.511 . S
C324 C323 1.376 . S
C324 C325 1.392 . S
C324 H345 0.931 . S
C325 C324 1.392 . S
C325 C326 1.361 . S
C325 C327 1.500 . S
C326 C321 1.390 . S
C326 C325 1.361 . S
C326 H344 0.931 . S
C327 C325 1.500 . S
C327 C328 1.371 . S
C327 C329 1.365 . S
C328 C327 1.371 . S
C328 C338 1.386 . S
C328 H346 0.931 . S
C329 C327 1.365 . S
C329 C330 1.409 . S
C329 H347 0.929 . S
C330 C329 1.409 . S
C330 C331 1.380 . S
C330 H348 0.930 . S
C331 C330 1.380 . S
C331 C338 1.357 . S
C332 C323 1.511 . S
C332 C333 1.341 . S
C332 C334 1.371 . S
C333 C332 1.341 . S
C333 C337 1.394 . S
C333 H349 0.930 . S
C334 C332 1.371 . S
C334 C335 1.392 . S
C334 H350 0.931 . S
C335 C334 1.392 . S
C335 C336 1.331 . S
C335 H353 0.932 . S
C336 C335 1.331 . S
C336 C337 1.336 . S
C337 C333 1.394 . S
C337 C336 1.336 . S
C337 H352 0.929 . S
C338 C328 1.386 . S
C338 C331 1.357 . S
C338 H351 0.928 . S
H339 C315 0.931 . S
H340 C317 0.930 . S
H341 C319 0.929 . S
H342 C320 0.931 . S
H343 C322 0.930 . S
H344 C326 0.931 . S
H345 C324 0.931 . S
H346 C328 0.931 . S
H347 C329 0.929 . S
H348 C330 0.930 . S
H349 C333 0.930 . S
H350 C334 0.931 . S
H351 C338 0.928 . S
H352 C337 0.929 . S
H353 C335 0.932 . S
H354 C362 0.950 . S
H355 C367 0.950 . S
H356 C364 0.950 . S
H357 C366 0.950 . S
H358 C368 0.950 . S
H359 C370 0.950 . S
H360 C372 0.950 . S
H361 C373 0.950 . S
C362 H354 0.950 . S
C362 C363 1.386 . S
C362 C364 1.391 . S
C363 C362 1.386 . S
C363 C367 1.393 . S
C364 H356 0.950 . S
C364 C362 1.391 . S
C364 C365 1.400 . S
C365 C364 1.400 . S
C365 C366 1.398 . S
C365 C371 1.491 . S
C366 H357 0.950 . S
C366 C365 1.398 . S
C366 C367 1.391 . S
C367 H355 0.950 . S
C367 C363 1.393 . S
C367 C366 1.391 . S
C368 H358 0.950 . S
C368 C369 1.386 . S
C368 C370 1.391 . S
C369 C368 1.386 . S
C369 C373 1.393 . S
C370 H359 0.950 . S
C370 C368 1.391 . S
C370 C371 1.400 . S
C371 C365 1.491 . S
C371 C370 1.400 . S
C371 C372 1.398 . S
C372 H360 0.950 . S
C372 C371 1.398 . S
C372 C373 1.391 . S
C373 H361 0.950 . S
C373 C369 1.393 . S
C373 C372 1.391 . S
H374 C382 0.950 . S
H375 C387 0.950 . S
H376 C384 0.950 . S
H377 C386 0.950 . S
H378 C388 0.950 . S
H379 C390 0.950 . S
H380 C392 0.950 . S
H381 C393 0.950 . S
C382 H374 0.950 . S
C382 C383 1.386 . S
C382 C384 1.391 . S
C383 C382 1.386 . S
C383 C387 1.393 . S
C384 H376 0.950 . S
C384 C382 1.391 . S
C384 C385 1.400 . S
C385 C384 1.400 . S
C385 C386 1.398 . S
C385 C391 1.491 . S
C386 H377 0.950 . S
C386 C385 1.398 . S
C386 C387 1.391 . S
C387 H375 0.950 . S
C387 C383 1.393 . S
C387 C386 1.391 . S
C388 H378 0.950 . S
C388 C389 1.386 . S
C388 C390 1.391 . S
C389 C388 1.386 . S
C389 C393 1.393 . S
C390 H379 0.950 . S
C390 C388 1.391 . S
C390 C391 1.400 . S
C391 C385 1.491 . S
C391 C390 1.400 . S
C391 C392 1.398 . S
C392 H380 0.950 . S
C392 C391 1.398 . S
C392 C393 1.391 . S
C393 H381 0.950 . S
C393 C389 1.393 . S
C393 C392 1.391 . S
H394 C402 0.950 . S
H395 C407 0.950 . S
H396 C404 0.950 . S
H397 C406 0.950 . S
H398 C408 0.950 . S
H399 C410 0.950 . S
H400 C412 0.950 . S
H401 C413 0.950 . S
C402 H394 0.950 . S
C402 C403 1.386 . S
C402 C404 1.391 . S
C403 C402 1.386 . S
C403 C407 1.393 . S
C404 H396 0.950 . S
C404 C402 1.391 . S
C404 C405 1.400 . S
C405 C404 1.400 . S
C405 C406 1.398 . S
C405 C411 1.491 . S
C406 H397 0.950 . S
C406 C405 1.398 . S
C406 C407 1.391 . S
C407 H395 0.950 . S
C407 C403 1.393 . S
C407 C406 1.391 . S
C408 H398 0.950 . S
C408 C409 1.386 . S
C408 C410 1.391 . S
C409 C408 1.386 . S
C409 C413 1.393 . S
C410 H399 0.950 . S
C410 C408 1.391 . S
C410 C411 1.400 . S
C411 C405 1.491 . S
C411 C410 1.400 . S
C411 C412 1.398 . S
C412 H400 0.950 . S
C412 C411 1.398 . S
C412 C413 1.391 . S
C413 H401 0.950 . S
C413 C409 1.393 . S
C413 C412 1.391 . S
H414 C422 0.950 . S
H415 C427 0.950 . S
H416 C424 0.950 . S
H417 C426 0.950 . S
H418 C428 0.950 . S
H419 C430 0.950 . S
H420 C432 0.950 . S
H421 C433 0.950 . S
C422 H414 0.950 . S
C422 C423 1.386 . S
C422 C424 1.391 . S
C423 C422 1.386 . S
C423 C427 1.393 . S
C424 H416 0.950 . S
C424 C422 1.391 . S
C424 C425 1.400 . S
C425 C424 1.400 . S
C425 C426 1.398 . S
C425 C431 1.491 . S
C426 H417 0.950 . S
C426 C425 1.398 . S
C426 C427 1.391 . S
C427 H415 0.950 . S
C427 C423 1.393 . S
C427 C426 1.391 . S
C428 H418 0.950 . S
C428 C429 1.386 . S
C428 C430 1.391 . S
C429 C428 1.386 . S
C429 C433 1.393 . S
C430 H419 0.950 . S
C430 C428 1.391 . S
C430 C431 1.400 . S
C431 C425 1.491 . S
C431 C430 1.400 . S
C431 C432 1.398 . S
C432 H420 0.950 . S
C432 C431 1.398 . S
C432 C433 1.391 . S
C433 H421 0.950 . S
C433 C429 1.393 . S
C433 C432 1.391 . S
H434 C442 0.950 . S
H435 C447 0.950 . S
H436 C444 0.950 . S
H437 C446 0.950 . S
H438 C448 0.950 . S
H439 C450 0.950 . S
H440 C452 0.950 . S
H441 C453 0.950 . S
C442 H434 0.950 . S
C442 C443 1.386 . S
C442 C444 1.391 . S
C443 C442 1.386 . S
C443 C447 1.393 . S
C444 H436 0.950 . S
C444 C442 1.391 . S
C444 C445 1.400 . S
C445 C444 1.400 . S
C445 C446 1.398 . S
C445 C451 1.491 . S
C446 H437 0.950 . S
C446 C445 1.398 . S
C446 C447 1.391 . S
C447 H435 0.950 . S
C447 C443 1.393 . S
C447 C446 1.391 . S
C448 H438 0.950 . S
C448 C449 1.386 . S
C448 C450 1.391 . S
C449 C448 1.386 . S
C449 C453 1.393 . S
C450 H439 0.950 . S
C450 C448 1.391 . S
C450 C451 1.400 . S
C451 C445 1.491 . S
C451 C450 1.400 . S
C451 C452 1.398 . S
C452 H440 0.950 . S
C452 C451 1.398 . S
C452 C453 1.391 . S
C453 H441 0.950 . S
C453 C449 1.393 . S
C453 C452 1.391 . S
H454 C462 0.950 . S
H455 C467 0.950 . S
H456 C464 0.950 . S
H457 C466 0.950 . S
H458 C468 0.950 . S
H459 C470 0.950 . S
H460 C472 0.950 . S
H461 C473 0.950 . S
C462 H454 0.950 . S
C462 C463 1.386 . S
C462 C464 1.391 . S
C463 C462 1.386 . S
C463 C467 1.393 . S
C464 H456 0.950 . S
C464 C462 1.391 . S
C464 C465 1.400 . S
C465 C464 1.400 . S
C465 C466 1.398 . S
C465 C471 1.491 . S
C466 H457 0.950 . S
C466 C465 1.398 . S
C466 C467 1.391 . S
C467 H455 0.950 . S
C467 C463 1.393 . S
C467 C466 1.391 . S
C468 H458 0.950 . S
C468 C469 1.386 . S
C468 C470 1.391 . S
C469 C468 1.386 . S
C469 C473 1.393 . S
C470 H459 0.950 . S
C470 C468 1.391 . S
C470 C471 1.400 . S
C471 C465 1.491 . S
C471 C470 1.400 . S
C471 C472 1.398 . S
C472 H460 0.950 . S
C472 C471 1.398 . S
C472 C473 1.391 . S
C473 H461 0.950 . S
C473 C469 1.393 . S
C473 C472 1.391 . S
H474 C482 0.950 . S
H475 C487 0.950 . S
H476 C484 0.950 . S
H477 C486 0.950 . S
H478 C488 0.950 . S
H479 C490 0.950 . S
H480 C492 0.950 . S
H481 C493 0.950 . S
C482 H474 0.950 . S
C482 C483 1.386 . S
C482 C484 1.391 . S
C483 C482 1.386 . S
C483 C487 1.393 . S
C484 H476 0.950 . S
C484 C482 1.391 . S
C484 C485 1.400 . S
C485 C484 1.400 . S
C485 C486 1.398 . S
C485 C491 1.491 . S
C486 H477 0.950 . S
C486 C485 1.398 . S
C486 C487 1.391 . S
C487 H475 0.950 . S
C487 C483 1.393 . S
C487 C486 1.391 . S
C488 H478 0.950 . S
C488 C489 1.386 . S
C488 C490 1.391 . S
C489 C488 1.386 . S
C489 C493 1.393 . S
C490 H479 0.950 . S
C490 C488 1.391 . S
C490 C491 1.400 . S
C491 C485 1.491 . S
C491 C490 1.400 . S
C491 C492 1.398 . S
C492 H480 0.950 . S
C492 C491 1.398 . S
C492 C493 1.391 . S
C493 H481 0.950 . S
C493 C489 1.393 . S
C493 C492 1.391 . S
H494 C502 0.950 . S
H495 C507 0.950 . S
H496 C504 0.950 . S
H497 C506 0.950 . S
H498 C508 0.950 . S
H499 C510 0.950 . S
H500 C512 0.950 . S
H501 C513 0.950 . S
C502 H494 0.950 . S
C502 C503 1.386 . S
C502 C504 1.391 . S
C503 C502 1.386 . S
C503 C507 1.393 . S
C504 H496 0.950 . S
C504 C502 1.391 . S
C504 C505 1.400 . S
C505 C504 1.400 . S
C505 C506 1.398 . S
C505 C511 1.491 . S
C506 H497 0.950 . S
C506 C505 1.398 . S
C506 C507 1.391 . S
C507 H495 0.950 . S
C507 C503 1.393 . S
C507 C506 1.391 . S
C508 H498 0.950 . S
C508 C509 1.386 . S
C508 C510 1.391 . S
C509 C508 1.386 . S
C509 C513 1.393 . S
C510 H499 0.950 . S
C510 C508 1.391 . S
C510 C511 1.400 . S
C511 C505 1.491 . S
C511 C510 1.400 . S
C511 C512 1.398 . S
C512 H500 0.950 . S
C512 C511 1.398 . S
C512 C513 1.391 . S
C513 H501 0.950 . S
C513 C509 1.393 . S
C513 C512 1.391 . S
H514 C522 0.950 . S
H515 C527 0.950 . S
H516 C524 0.950 . S
H517 C526 0.950 . S
H518 C528 0.950 . S
H519 C530 0.950 . S
H520 C532 0.950 . S
H521 C533 0.950 . S
C522 H514 0.950 . S
C522 C523 1.386 . S
C522 C524 1.391 . S
C523 C522 1.386 . S
C523 C527 1.393 . S
C524 H516 0.950 . S
C524 C522 1.391 . S
C524 C525 1.400 . S
C525 C524 1.400 . S
C525 C526 1.398 . S
C525 C531 1.491 . S
C526 H517 0.950 . S
C526 C525 1.398 . S
C526 C527 1.391 . S
C527 H515 0.950 . S
C527 C523 1.393 . S
C527 C526 1.391 . S
C528 H518 0.950 . S
C528 C529 1.386 . S
C528 C530 1.391 . S
C529 C528 1.386 . S
C529 C533 1.393 . S
C530 H519 0.950 . S
C530 C528 1.391 . S
C530 C531 1.400 . S
C531 C525 1.491 . S
C531 C530 1.400 . S
C531 C532 1.398 . S
C532 H520 0.950 . S
C532 C531 1.398 . S
C532 C533 1.391 . S
C533 H521 0.950 . S
C533 C529 1.393 . S
C533 C532 1.391 . S
H534 C542 0.950 . S
H535 C547 0.950 . S
H536 C544 0.950 . S
H537 C546 0.950 . S
H538 C548 0.950 . S
H539 C550 0.950 . S
H540 C552 0.950 . S
H541 C553 0.950 . S
C542 H534 0.950 . S
C542 C543 1.386 . S
C542 C544 1.391 . S
C543 C542 1.386 . S
C543 C547 1.393 . S
C544 H536 0.950 . S
C544 C542 1.391 . S
C544 C545 1.400 . S
C545 C544 1.400 . S
C545 C546 1.398 . S
C545 C551 1.491 . S
C546 H537 0.950 . S
C546 C545 1.398 . S
C546 C547 1.391 . S
C547 H535 0.950 . S
C547 C543 1.393 . S
C547 C546 1.391 . S
C548 H538 0.950 . S
C548 C549 1.386 . S
C548 C550 1.391 . S
C549 C548 1.386 . S
C549 C553 1.393 . S
C550 H539 0.950 . S
C550 C548 1.391 . S
C550 C551 1.400 . S
C551 C545 1.491 . S
C551 C550 1.400 . S
C551 C552 1.398 . S
C552 H540 0.950 . S
C552 C551 1.398 . S
C552 C553 1.391 . S
C553 H541 0.950 . S
C553 C549 1.393 . S
C553 C552 1.391 . S
H554 C562 0.950 . S
H555 C567 0.950 . S
H556 C564 0.950 . S
H557 C566 0.950 . S
H558 C568 0.950 . S
H559 C570 0.950 . S
H560 C572 0.950 . S
H561 C573 0.950 . S
C562 H554 0.950 . S
C562 C563 1.386 . S
C562 C564 1.391 . S
C563 C562 1.386 . S
C563 C567 1.393 . S
C564 H556 0.950 . S
C564 C562 1.391 . S
C564 C565 1.400 . S
C565 C564 1.400 . S
C565 C566 1.398 . S
C565 C571 1.491 . S
C566 H557 0.950 . S
C566 C565 1.398 . S
C566 C567 1.391 . S
C567 H555 0.950 . S
C567 C563 1.393 . S
C567 C566 1.391 . S
C568 H558 0.950 . S
C568 C569 1.386 . S
C568 C570 1.391 . S
C569 C568 1.386 . S
C569 C573 1.393 . S
C570 H559 0.950 . S
C570 C568 1.391 . S
C570 C571 1.400 . S
C571 C565 1.491 . S
C571 C570 1.400 . S
C571 C572 1.398 . S
C572 H560 0.950 . S
C572 C571 1.398 . S
C572 C573 1.391 . S
C573 H561 0.950 . S
C573 C569 1.393 . S
C573 C572 1.391 . S
H574 C582 0.950 . S
H575 C587 0.950 . S
H576 C584 0.950 . S
H577 C586 0.950 . S
H578 C588 0.950 . S
H579 C590 0.950 . S
H580 C592 0.950 . S
H581 C593 0.950 . S
C582 H574 0.950 . S
C582 C583 1.386 . S
C582 C584 1.391 . S
C583 C582 1.386 . S
C583 C587 1.393 . S
C584 H576 0.950 . S
C584 C582 1.391 . S
C584 C585 1.400 . S
C585 C584 1.400 . S
C585 C586 1.398 . S
C585 C591 1.491 . S
C586 H577 0.950 . S
C586 C585 1.398 . S
C586 C587 1.391 . S
C587 H575 0.950 . S
C587 C583 1.393 . S
C587 C586 1.391 . S
C588 H578 0.950 . S
C588 C589 1.386 . S
C588 C590 1.391 . S
C589 C588 1.386 . S
C589 C593 1.393 . S
C590 H579 0.950 . S
C590 C588 1.391 . S
C590 C591 1.400 . S
C591 C585 1.491 . S
C591 C590 1.400 . S
C591 C592 1.398 . S
C592 H580 0.950 . S
C592 C591 1.398 . S
C592 C593 1.391 . S
C593 H581 0.950 . S
C593 C589 1.393 . S
C593 C592 1.391 . S
H594 C602 0.950 . S
H595 C607 0.950 . S
H596 C604 0.950 . S
H597 C606 0.950 . S
H598 C608 0.950 . S
H599 C610 0.950 . S
H600 C612 0.950 . S
H601 C613 0.952 . S
C602 H594 0.950 . S
C602 C603 1.386 . S
C602 C604 1.391 . S
C603 C602 1.386 . S
C603 C607 1.393 . S
C604 H596 0.950 . S
C604 C602 1.391 . S
C604 C605 1.400 . S
C605 C604 1.400 . S
C605 C606 1.398 . S
C605 C611 1.491 . S
C606 H597 0.950 . S
C606 C605 1.398 . S
C606 C607 1.391 . S
C607 H595 0.950 . S
C607 C603 1.393 . S
C607 C606 1.391 . S
C608 H598 0.950 . S
C608 C609 1.386 . S
C608 C610 1.391 . S
C609 C608 1.386 . S
C609 C613 1.393 . S
C610 H599 0.950 . S
C610 C608 1.391 . S
C610 C611 1.400 . S
C611 C605 1.491 . S
C611 C610 1.400 . S
C611 C612 1.398 . S
C612 H600 0.950 . S
C612 C611 1.398 . S
C612 C613 1.391 . S
C613 H601 0.952 . S
C613 C609 1.393 . S
C613 C612 1.391 . S
H614 C622 0.950 1_565 S
H615 C627 0.950 . S
H616 C624 0.950 1_565 S
H617 C626 0.950 . S
H618 C628 0.950 . S
H619 C630 0.950 . S
H620 C632 0.950 1_565 S
H621 C633 0.950 1_565 S
C622 H614 0.950 1_545 S
C622 C623 1.386 . S
C622 C624 1.391 . S
C623 C622 1.386 . S
C623 C627 1.393 . S
C624 H616 0.950 1_545 S
C624 C622 1.391 . S
C624 C625 1.400 . S
C625 C624 1.400 . S
C625 C626 1.398 . S
C625 C631 1.491 . S
C626 H617 0.950 . S
C626 C625 1.398 . S
C626 C627 1.391 . S
C627 H615 0.950 . S
C627 C623 1.393 . S
C627 C626 1.391 . S
C628 H618 0.950 . S
C628 C629 1.386 . S
C628 C630 1.391 . S
C629 C628 1.386 . S
C629 C633 1.393 . S
C630 H619 0.950 . S
C630 C628 1.391 . S
C630 C631 1.400 . S
C631 C625 1.491 . S
C631 C630 1.400 . S
C631 C632 1.398 . S
C632 H620 0.950 1_545 S
C632 C631 1.398 . S
C632 C633 1.391 . S
C633 H621 0.950 1_545 S
C633 C629 1.393 . S
C633 C632 1.391 . S
H634 C642 0.950 . S
H635 C647 0.950 . S
H636 C644 0.950 . S
H637 C646 0.950 . S
H638 C648 0.950 . S
H639 C650 0.950 . S
H640 C652 0.950 . S
H641 C653 0.950 . S
C642 H634 0.950 . S
C642 C643 1.386 . S
C642 C644 1.391 . S
C643 C642 1.386 . S
C643 C647 1.393 . S
C644 H636 0.950 . S
C644 C642 1.391 . S
C644 C645 1.400 . S
C645 C644 1.400 . S
C645 C646 1.398 . S
C645 C651 1.491 . S
C646 H637 0.950 . S
C646 C645 1.398 . S
C646 C647 1.391 . S
C647 H635 0.950 . S
C647 C643 1.393 . S
C647 C646 1.391 . S
C648 H638 0.950 . S
C648 C649 1.386 . S
C648 C650 1.391 . S
C649 C648 1.386 . S
C649 C653 1.393 . S
C650 H639 0.950 . S
C650 C648 1.391 . S
C650 C651 1.400 . S
C651 C645 1.491 . S
C651 C650 1.400 . S
C651 C652 1.398 . S
C652 H640 0.950 . S
C652 C651 1.398 . S
C652 C653 1.391 . S
C653 H641 0.950 . S
C653 C649 1.393 . S
C653 C652 1.391 . S
H654 C662 0.950 . S
H655 C667 0.950 . S
H656 C664 0.950 . S
H657 C666 0.950 . S
H658 C668 0.950 . S
H659 C670 0.950 . S
H660 C672 0.950 . S
H661 C673 0.950 . S
C662 H654 0.950 . S
C662 C663 1.386 . S
C662 C664 1.391 . S
C663 C662 1.386 . S
C663 C667 1.393 . S
C664 H656 0.950 . S
C664 C662 1.391 . S
C664 C665 1.400 . S
C665 C664 1.400 . S
C665 C666 1.398 . S
C665 C671 1.491 . S
C666 H657 0.950 . S
C666 C665 1.398 . S
C666 C667 1.391 . S
C667 H655 0.950 . S
C667 C663 1.393 . S
C667 C666 1.391 . S
C668 H658 0.950 . S
C668 C669 1.386 . S
C668 C670 1.391 1_565 S
C669 C668 1.386 . S
C669 C673 1.393 . S
C670 H659 0.950 . S
C670 C668 1.391 1_545 S
C670 C671 1.400 . S
C671 C665 1.491 . S
C671 C670 1.400 . S
C671 C672 1.398 1_545 S
C672 H660 0.950 . S
C672 C671 1.398 1_565 S
C672 C673 1.391 . S
C673 H661 0.950 . S
C673 C669 1.393 . S
C673 C672 1.391 . S
H674 C682 0.950 . S
H675 C687 0.950 . S
H676 C684 0.950 . S
H677 C686 0.950 . S
H678 C688 0.950 . S
H679 C690 0.950 . S
H680 C692 0.950 . S
H681 C693 0.950 . S
C682 H674 0.950 . S
C682 C683 1.386 . S
C682 C684 1.391 . S
C683 C682 1.386 . S
C683 C687 1.393 . S
C684 H676 0.950 . S
C684 C682 1.391 . S
C684 C685 1.400 . S
C685 C684 1.400 . S
C685 C686 1.398 . S
C685 C691 1.491 . S
C686 H677 0.950 . S
C686 C685 1.398 . S
C686 C687 1.391 . S
C687 H675 0.950 . S
C687 C683 1.393 . S
C687 C686 1.391 . S
C688 H678 0.950 . S
C688 C689 1.386 . S
C688 C690 1.391 . S
C689 C688 1.386 . S
C689 C693 1.393 . S
C690 H679 0.950 . S
C690 C688 1.391 . S
C690 C691 1.400 . S
C691 C685 1.491 . S
C691 C690 1.400 . S
C691 C692 1.398 . S
C692 H680 0.950 . S
C692 C691 1.398 . S
C692 C693 1.391 . S
C693 H681 0.950 . S
C693 C689 1.393 . S
C693 C692 1.391 . S
H694 C702 0.953 . S
H695 C707 0.950 . S
H696 C704 0.950 . S
H697 C706 0.950 . S
H698 C708 0.950 . S
H699 C710 0.950 . S
H700 C712 0.950 . S
H701 C713 0.950 . S
C702 H694 0.953 . S
C702 C703 1.381 1_655 S
C702 C704 1.392 . S
C703 C702 1.381 1_455 S
C703 C707 1.393 . S
C704 H696 0.950 . S
C704 C702 1.392 . S
C704 C705 1.400 1_655 S
C705 C704 1.400 1_455 S
C705 C706 1.398 . S
C705 C711 1.491 . S
C706 H697 0.950 . S
C706 C705 1.398 . S
C706 C707 1.391 . S
C707 H695 0.950 . S
C707 C703 1.393 . S
C707 C706 1.391 . S
C708 H698 0.950 . S
C708 C709 1.408 . S
C708 C710 1.391 . S
C709 C708 1.408 . S
C709 C713 1.376 1_455 S
C710 H699 0.950 . S
C710 C708 1.391 . S
C710 C711 1.400 . S
C711 C705 1.491 . S
C711 C710 1.400 . S
C711 C712 1.398 1_455 S
C712 H700 0.950 . S
C712 C711 1.398 1_655 S
C712 C713 1.391 . S
C713 H701 0.950 . S
C713 C709 1.376 1_655 S
C713 C712 1.391 . S
C363 C25 0.375 . S
C369 C331 0.409 . S
C383 C65 0.380 . S
C389 C258 0.175 . S
C403 C105 0.464 . S
C409 C297 0.325 . S
C423 C4 0.397 . S
C429 C336 0.320 . S
C449 C253 0.325 . S
C443 C44 0.363 . S
C469 C292 0.433 . S
C463 C84 0.443 . S
C483 C60 2.924 . S
C489 C180 2.882 . S
C503 C100 3.113 . S
C509 C214 3.054 . S
C523 C31 3.113 . S
C529 C136 3.046 . S
C549 C175 3.049 . S
C543 C71 3.101 . S
C569 C219 2.876 . S
C563 C111 2.916 . S
C583 C20 2.924 . S
C589 C141 2.882 . S
C609 C199 1.804 1_554 S
C603 C2 1.725 . S
C623 C42 1.750 . S
C629 C121 1.796 . S
C643 C82 1.742 . S
C649 C160 1.802 . S
C669 C277 1.077 . S
C663 C63 1.055 . S
C689 C316 1.104 1_556 S
C683 C103 1.111 . S
C703 C23 1.050 . S
C709 C238 1.059 1_455 S
