# Generated by pormake.
# Topology eea, (3,6)-cn, num edge types: 1
# Building blocks:
#     Node 0, Type 0, BuildingBlock: BETDAH_clean_linker_0, # of connection points: 3
#     Node 1, Type 0, BuildingBlock: BETDAH_clean_linker_0, # of connection points: 3
#     Node 2, Type 0, BuildingBlock: BETDAH_clean_linker_0, # of connection points: 3
#     Node 3, Type 0, BuildingBlock: BETDAH_clean_linker_0, # of connection points: 3
#     Node 4, Type 0, BuildingBlock: BETDAH_clean_linker_0, # of connection points: 3
#     Node 5, Type 0, BuildingBlock: BETDAH_clean_linker_0, # of connection points: 3
#     Node 6, Type 0, BuildingBlock: BETDAH_clean_linker_0, # of connection points: 3
#     Node 7, Type 0, BuildingBlock: BETDAH_clean_linker_0, # of connection points: 3
#     Node 8, Type 0, BuildingBlock: BETDAH_clean_linker_0, # of connection points: 3
#     Node 9, Type 0, BuildingBlock: BETDAH_clean_linker_0, # of connection points: 3
#     Node 10, Type 0, BuildingBlock: BETDAH_clean_linker_0, # of connection points: 3
#     Node 11, Type 0, BuildingBlock: BETDAH_clean_linker_0, # of connection points: 3
#     Node 12, Type 0, BuildingBlock: BETDAH_clean_linker_0, # of connection points: 3
#     Node 13, Type 0, BuildingBlock: BETDAH_clean_linker_0, # of connection points: 3
#     Node 14, Type 0, BuildingBlock: BETDAH_clean_linker_0, # of connection points: 3
#     Node 15, Type 0, BuildingBlock: BETDAH_clean_linker_0, # of connection points: 3
#     Node 16, Type 0, BuildingBlock: BETDAH_clean_linker_0, # of connection points: 3
#     Node 17, Type 0, BuildingBlock: BETDAH_clean_linker_0, # of connection points: 3
#     Node 18, Type 1, BuildingBlock: CUKXOW_clean_sbu_0, # of connection points: 6
#     Node 19, Type 1, BuildingBlock: CUKXOW_clean_sbu_0, # of connection points: 6
#     Node 20, Type 1, BuildingBlock: CUKXOW_clean_sbu_0, # of connection points: 6
#     Node 21, Type 1, BuildingBlock: CUKXOW_clean_sbu_0, # of connection points: 6
#     Node 22, Type 1, BuildingBlock: CUKXOW_clean_sbu_0, # of connection points: 6
#     Node 23, Type 1, BuildingBlock: CUKXOW_clean_sbu_0, # of connection points: 6
#     Node 24, Type 1, BuildingBlock: CUKXOW_clean_sbu_0, # of connection points: 6
#     Node 25, Type 1, BuildingBlock: CUKXOW_clean_sbu_0, # of connection points: 6
#     Node 26, Type 1, BuildingBlock: CUKXOW_clean_sbu_0, # of connection points: 6
#     Edge 27, Type (0, 1), BuildingBlock: ZUJKAS_clean_linker_0, # of connection points: 2
#     Edge 28, Type (0, 1), BuildingBlock: ZUJKAS_clean_linker_0, # of connection points: 2
#     Edge 29, Type (0, 1), BuildingBlock: ZUJKAS_clean_linker_0, # of connection points: 2
#     Edge 30, Type (0, 1), BuildingBlock: ZUJKAS_clean_linker_0, # of connection points: 2
#     Edge 31, Type (0, 1), BuildingBlock: ZUJKAS_clean_linker_0, # of connection points: 2
#     Edge 32, Type (0, 1), BuildingBlock: ZUJKAS_clean_linker_0, # of connection points: 2
#     Edge 33, Type (0, 1), BuildingBlock: ZUJKAS_clean_linker_0, # of connection points: 2
#     Edge 34, Type (0, 1), BuildingBlock: ZUJKAS_clean_linker_0, # of connection points: 2
#     Edge 35, Type (0, 1), BuildingBlock: ZUJKAS_clean_linker_0, # of connection points: 2
#     Edge 36, Type (0, 1), BuildingBlock: ZUJKAS_clean_linker_0, # of connection points: 2
#     Edge 37, Type (0, 1), BuildingBlock: ZUJKAS_clean_linker_0, # of connection points: 2
#     Edge 38, Type (0, 1), BuildingBlock: ZUJKAS_clean_linker_0, # of connection points: 2
#     Edge 39, Type (0, 1), BuildingBlock: ZUJKAS_clean_linker_0, # of connection points: 2
#     Edge 40, Type (0, 1), BuildingBlock: ZUJKAS_clean_linker_0, # of connection points: 2
#     Edge 41, Type (0, 1), BuildingBlock: ZUJKAS_clean_linker_0, # of connection points: 2
#     Edge 42, Type (0, 1), BuildingBlock: ZUJKAS_clean_linker_0, # of connection points: 2
#     Edge 43, Type (0, 1), BuildingBlock: ZUJKAS_clean_linker_0, # of connection points: 2
#     Edge 44, Type (0, 1), BuildingBlock: ZUJKAS_clean_linker_0, # of connection points: 2
#     Edge 45, Type (0, 1), BuildingBlock: ZUJKAS_clean_linker_0, # of connection points: 2
#     Edge 46, Type (0, 1), BuildingBlock: ZUJKAS_clean_linker_0, # of connection points: 2
#     Edge 47, Type (0, 1), BuildingBlock: ZUJKAS_clean_linker_0, # of connection points: 2
#     Edge 48, Type (0, 1), BuildingBlock: ZUJKAS_clean_linker_0, # of connection points: 2
#     Edge 49, Type (0, 1), BuildingBlock: ZUJKAS_clean_linker_0, # of connection points: 2
#     Edge 50, Type (0, 1), BuildingBlock: ZUJKAS_clean_linker_0, # of connection points: 2
#     Edge 51, Type (0, 1), BuildingBlock: ZUJKAS_clean_linker_0, # of connection points: 2
#     Edge 52, Type (0, 1), BuildingBlock: ZUJKAS_clean_linker_0, # of connection points: 2
#     Edge 53, Type (0, 1), BuildingBlock: ZUJKAS_clean_linker_0, # of connection points: 2
#     Edge 54, Type (0, 1), BuildingBlock: ZUJKAS_clean_linker_0, # of connection points: 2
#     Edge 55, Type (0, 1), BuildingBlock: ZUJKAS_clean_linker_0, # of connection points: 2
#     Edge 56, Type (0, 1), BuildingBlock: ZUJKAS_clean_linker_0, # of connection points: 2
#     Edge 57, Type (0, 1), BuildingBlock: ZUJKAS_clean_linker_0, # of connection points: 2
#     Edge 58, Type (0, 1), BuildingBlock: ZUJKAS_clean_linker_0, # of connection points: 2
#     Edge 59, Type (0, 1), BuildingBlock: ZUJKAS_clean_linker_0, # of connection points: 2
#     Edge 60, Type (0, 1), BuildingBlock: ZUJKAS_clean_linker_0, # of connection points: 2
#     Edge 61, Type (0, 1), BuildingBlock: ZUJKAS_clean_linker_0, # of connection points: 2
#     Edge 62, Type (0, 1), BuildingBlock: ZUJKAS_clean_linker_0, # of connection points: 2
#     Edge 63, Type (0, 1), BuildingBlock: ZUJKAS_clean_linker_0, # of connection points: 2
#     Edge 64, Type (0, 1), BuildingBlock: ZUJKAS_clean_linker_0, # of connection points: 2
#     Edge 65, Type (0, 1), BuildingBlock: ZUJKAS_clean_linker_0, # of connection points: 2
#     Edge 66, Type (0, 1), BuildingBlock: ZUJKAS_clean_linker_0, # of connection points: 2
#     Edge 67, Type (0, 1), BuildingBlock: ZUJKAS_clean_linker_0, # of connection points: 2
#     Edge 68, Type (0, 1), BuildingBlock: ZUJKAS_clean_linker_0, # of connection points: 2
#     Edge 69, Type (0, 1), BuildingBlock: ZUJKAS_clean_linker_0, # of connection points: 2
#     Edge 70, Type (0, 1), BuildingBlock: ZUJKAS_clean_linker_0, # of connection points: 2
#     Edge 71, Type (0, 1), BuildingBlock: ZUJKAS_clean_linker_0, # of connection points: 2
#     Edge 72, Type (0, 1), BuildingBlock: ZUJKAS_clean_linker_0, # of connection points: 2
#     Edge 73, Type (0, 1), BuildingBlock: ZUJKAS_clean_linker_0, # of connection points: 2
#     Edge 74, Type (0, 1), BuildingBlock: ZUJKAS_clean_linker_0, # of connection points: 2
#     Edge 75, Type (0, 1), BuildingBlock: ZUJKAS_clean_linker_0, # of connection points: 2
#     Edge 76, Type (0, 1), BuildingBlock: ZUJKAS_clean_linker_0, # of connection points: 2
#     Edge 77, Type (0, 1), BuildingBlock: ZUJKAS_clean_linker_0, # of connection points: 2
#     Edge 78, Type (0, 1), BuildingBlock: ZUJKAS_clean_linker_0, # of connection points: 2
#     Edge 79, Type (0, 1), BuildingBlock: ZUJKAS_clean_linker_0, # of connection points: 2
#     Edge 80, Type (0, 1), BuildingBlock: ZUJKAS_clean_linker_0, # of connection points: 2
# Relax obj value: 0.032
# Max RMSD: 0.153
# Mean RMSD: 0.093
data_MOF--net-eea--node1-CUKXOW_clean_sbu_0--node2-BETDAH_clean_linker_0--edge1-ZUJKAS_clean_linker_0
_symmetry_space_group_name_H-M    P1
_symmetry_Int_Tables_number       1
_symmetry_cell_setting            triclinic
loop_
_symmetry_equiv_pos_as_xyz
'x, y, z'
_cell_length_a     76.951555
_cell_length_b     73.724733
_cell_length_c     66.380255
_cell_angle_alpha  93.049378
_cell_angle_beta   93.060979
_cell_angle_gamma 119.91923
loop_
_atom_site_label
_atom_site_type_symbol
_atom_site_fract_x
_atom_site_fract_y
_atom_site_fract_z
_atom_type_partial_charge
H0 H 0.25671 0.09067 0.44228 0.0
H1 H 0.25117 0.14412 0.42858 0.0
H2 H 0.22736 0.09017 0.38511 0.0
C3 C 0.25173 0.09838 0.43192 0.0
C4 C 0.24165 0.08789 0.413 0.0
C5 C 0.25526 0.11867 0.43767 0.0
C6 C 0.24847 0.12848 0.42427 0.0
C7 C 0.23862 0.11818 0.40515 0.0
C8 C 0.23536 0.09808 0.3997 0.0
N9 N 0.23173 0.12735 0.39083 0.0
C10 C 0.23133 0.14584 0.39448 0.0
H11 H 0.92157 0.16349 0.45555 0.0
H12 H 0.86265 0.11071 0.43625 0.0
H13 H 0.90828 0.13364 0.3948 0.0
C14 C 0.91115 0.15142 0.44399 0.0
C15 C 0.91761 0.15002 0.42483 0.0
C16 C 0.89126 0.13745 0.44824 0.0
C17 C 0.8779 0.12171 0.43312 0.0
C18 C 0.88419 0.12035 0.41388 0.0
C19 C 0.90382 0.13463 0.40984 0.0
N20 N 0.87116 0.10516 0.398 0.0
C21 C 0.85351 0.08676 0.40064 0.0
H22 H 0.84408 0.75086 0.46156 0.0
H23 H 0.89808 0.75115 0.44673 0.0
H24 H 0.869 0.77287 0.40549 0.0
C25 C 0.8556 0.7542 0.4513 0.0
C26 C 0.85472 0.76256 0.43303 0.0
C27 C 0.87107 0.74985 0.45632 0.0
C28 C 0.88618 0.75456 0.44307 0.0
C29 C 0.88522 0.76271 0.42459 0.0
C30 C 0.86945 0.76643 0.41968 0.0
N31 N 0.89929 0.7667 0.41008 0.0
C32 C 0.91851 0.76972 0.41393 0.0
H33 H 0.08713 0.26553 0.56486 0.0
H34 H 0.14702 0.27946 0.58531 0.0
H35 H 0.09985 0.25289 0.62479 0.0
C36 C 0.09759 0.26552 0.57645 0.0
C37 C 0.09074 0.25761 0.59504 0.0
C38 C 0.11794 0.27373 0.57284 0.0
C39 C 0.13135 0.27334 0.58788 0.0
C40 C 0.12466 0.26563 0.60651 0.0
C41 C 0.1046 0.25823 0.6101 0.0
N42 N 0.13799 0.26616 0.62238 0.0
C43 C 0.15186 0.25963 0.61958 0.0
H44 H 0.75739 0.83152 0.57145 0.0
H45 H 0.76776 0.89441 0.58256 0.0
H46 H 0.79083 0.86929 0.62656 0.0
C47 C 0.76368 0.84609 0.58112 0.0
C48 C 0.7742 0.84822 0.59987 0.0
C49 C 0.76133 0.86271 0.5747 0.0
C50 C 0.76963 0.88162 0.58732 0.0
C51 C 0.78013 0.88384 0.60614 0.0
C52 C 0.78236 0.8672 0.61219 0.0
N53 N 0.78882 0.90252 0.61946 0.0
C54 C 0.78737 0.92019 0.6162 0.0
H55 H 0.16681 0.91514 0.5688 0.0
H56 H 0.11483 0.85675 0.58004 0.0
H57 H 0.14276 0.90793 0.62675 0.0
C58 C 0.15587 0.90561 0.57893 0.0
C59 C 0.15647 0.91431 0.59847 0.0
C60 C 0.14102 0.88482 0.57215 0.0
C61 C 0.12622 0.87284 0.585 0.0
C62 C 0.12697 0.8813 0.60473 0.0
C63 C 0.14217 0.90178 0.61137 0.0
N64 N 0.11344 0.86941 0.61883 0.0
C65 C 0.09355 0.85372 0.61386 0.0
H66 H 0.9155 0.42331 0.77918 0.0
H67 H 0.91628 0.4803 0.76602 0.0
H68 H 0.89367 0.42859 0.72009 0.0
C69 C 0.91212 0.43223 0.76881 0.0
C70 C 0.90378 0.42327 0.74901 0.0
C71 C 0.91673 0.4528 0.77515 0.0
C72 C 0.91288 0.46449 0.7613 0.0
C73 C 0.90465 0.45568 0.74137 0.0
C74 C 0.9003 0.43527 0.73539 0.0
N75 N 0.90059 0.46676 0.72676 0.0
C76 C 0.89972 0.48491 0.731 0.0
H77 H 0.58445 0.50413 0.78456 0.0
H78 H 0.52941 0.44613 0.76576 0.0
H79 H 0.576 0.47228 0.72553 0.0
C80 C 0.57535 0.49096 0.77338 0.0
C81 C 0.58271 0.49018 0.7546 0.0
C82 C 0.55606 0.4752 0.77755 0.0
C83 C 0.54417 0.45844 0.76266 0.0
C84 C 0.55142 0.45756 0.74385 0.0
C85 C 0.57051 0.4734 0.73999 0.0
N86 N 0.54005 0.4411 0.72831 0.0
C87 C 0.52232 0.42267 0.73062 0.0
H88 H 0.50928 0.08469 0.79481 0.0
H89 H 0.56396 0.08594 0.78091 0.0
H90 H 0.53483 0.10717 0.73912 0.0
C91 C 0.521 0.08822 0.78475 0.0
C92 C 0.52023 0.09655 0.76644 0.0
C93 C 0.53658 0.0841 0.79003 0.0
C94 C 0.55196 0.08915 0.77703 0.0
C95 C 0.55117 0.09737 0.75855 0.0
C96 C 0.53523 0.10075 0.75335 0.0
N97 N 0.5656 0.10182 0.74434 0.0
C98 C 0.58472 0.10462 0.74843 0.0
H99 H 0.75789 0.59682 0.89708 0.0
H100 H 0.81341 0.59935 0.91698 0.0
H101 H 0.7668 0.58169 0.95705 0.0
C102 C 0.7671 0.59462 0.90851 0.0
C103 C 0.75978 0.58844 0.92739 0.0
C104 C 0.78653 0.59881 0.9046 0.0
C105 C 0.7985 0.59633 0.91979 0.0
C106 C 0.79132 0.5903 0.93874 0.0
C107 C 0.77219 0.58661 0.94243 0.0
N108 N 0.80304 0.5883 0.95472 0.0
C109 C 0.81816 0.58355 0.9521 0.0
H110 H 0.42479 0.16357 0.9036 0.0
H111 H 0.43473 0.22621 0.91584 0.0
H112 H 0.45713 0.2002 0.95951 0.0
C113 C 0.43083 0.17793 0.91354 0.0
C114 C 0.44103 0.1797 0.93238 0.0
C115 C 0.42847 0.19464 0.90739 0.0
C116 C 0.43658 0.21333 0.92036 0.0
C117 C 0.4468 0.21518 0.93925 0.0
C118 C 0.4489 0.1984 0.94507 0.0
N119 N 0.4553 0.2336 0.95292 0.0
C120 C 0.45494 0.25184 0.94952 0.0
H121 H 0.83444 0.25124 0.90541 0.0
H122 H 0.78221 0.19218 0.91443 0.0
H123 H 0.81152 0.24024 0.96396 0.0
C124 C 0.82331 0.24126 0.91516 0.0
C125 C 0.8248 0.24841 0.93557 0.0
C126 C 0.8081 0.22096 0.90743 0.0
C127 C 0.79396 0.20783 0.92026 0.0
C128 C 0.79525 0.21492 0.94069 0.0
C129 C 0.81077 0.23497 0.94821 0.0
N130 N 0.78161 0.20225 0.95435 0.0
C131 C 0.76212 0.18587 0.9488 0.0
H132 H 0.57666 0.75348 0.11439 0.0
H133 H 0.58248 0.8122 0.09896 0.0
H134 H 0.56257 0.76095 0.05296 0.0
C135 C 0.57506 0.76299 0.10334 0.0
C136 C 0.56873 0.75459 0.08308 0.0
C137 C 0.58029 0.78385 0.10922 0.0
C138 C 0.5786 0.79617 0.09458 0.0
C139 C 0.57215 0.7878 0.07426 0.0
C140 C 0.56755 0.76724 0.06865 0.0
N141 N 0.57043 0.79961 0.0589 0.0
C142 C 0.56896 0.81752 0.06239 0.0
H143 H 0.25561 0.83589 0.12353 0.0
H144 H 0.19958 0.7796 0.10293 0.0
H145 H 0.24648 0.80668 0.06309 0.0
C146 C 0.24626 0.82328 0.11191 0.0
C147 C 0.25354 0.82314 0.09296 0.0
C148 C 0.2267 0.80776 0.11564 0.0
C149 C 0.21456 0.79174 0.10019 0.0
C150 C 0.22175 0.79147 0.0812 0.0
C151 C 0.24106 0.8072 0.07773 0.0
N152 N 0.21006 0.77585 0.06506 0.0
C153 C 0.19234 0.75719 0.0669 0.0
H154 H 0.17982 0.41835 0.12624 0.0
H155 H 0.23912 0.42794 0.11936 0.0
H156 H 0.21263 0.45165 0.07736 0.0
C157 C 0.19304 0.42422 0.1179 0.0
C158 C 0.19418 0.43524 0.10096 0.0
C159 C 0.20919 0.42154 0.12472 0.0
C160 C 0.22664 0.42996 0.11425 0.0
C161 C 0.22778 0.44081 0.09709 0.0
C162 C 0.2116 0.44335 0.09065 0.0
N163 N 0.24486 0.44958 0.08584 0.0
C164 C 0.26204 0.44814 0.08951 0.0
H165 H 0.41386 0.9134 0.22355 0.0
H166 H 0.47467 0.93019 0.24386 0.0
H167 H 0.42922 0.90797 0.28537 0.0
C168 C 0.42492 0.91514 0.23545 0.0
C169 C 0.41889 0.9094 0.25485 0.0
C170 C 0.44507 0.92288 0.23125 0.0
C171 C 0.45904 0.92401 0.24661 0.0
C172 C 0.45316 0.91843 0.26603 0.0
C173 C 0.43333 0.91161 0.27012 0.0
N174 N 0.46709 0.92056 0.2821 0.0
C175 C 0.48163 0.9149 0.27984 0.0
H176 H 0.08654 0.49186 0.246 0.0
H177 H 0.08858 0.5509 0.25874 0.0
H178 H 0.11105 0.5268 0.30433 0.0
C179 C 0.0904 0.50551 0.25628 0.0
C180 C 0.09966 0.50758 0.27576 0.0
C181 C 0.08619 0.52099 0.24996 0.0
C182 C 0.09143 0.53872 0.26349 0.0
C183 C 0.10044 0.54074 0.2831 0.0
C184 C 0.10431 0.52513 0.28909 0.0
N185 N 0.1058 0.55814 0.29736 0.0
C186 C 0.10606 0.57648 0.29299 0.0
H187 H 0.50038 0.5781 0.23707 0.0
H188 H 0.44761 0.51995 0.24729 0.0
H189 H 0.47483 0.57107 0.29415 0.0
C190 C 0.48914 0.56859 0.24696 0.0
C191 C 0.48938 0.57728 0.26637 0.0
C192 C 0.47425 0.54789 0.23994 0.0
C193 C 0.45907 0.53595 0.25247 0.0
C194 C 0.45938 0.54444 0.27208 0.0
C195 C 0.47459 0.56488 0.27889 0.0
N196 N 0.44525 0.53282 0.28585 0.0
C197 C 0.42632 0.51532 0.28068 0.0
Tb198 Tb 0.52806 0.01768 0.008 0.0
C199 C 0.51665 0.97272 0.01938 0.0
Tb200 Tb 0.48339 0.98652 0.01415 0.0
O201 O 0.53676 0.01821 0.04009 0.0
O202 O 0.50819 0.01283 0.03059 0.0
O203 O 0.52966 0.98932 0.0105 0.0
C204 C 0.44882 0.96106 0.02946 0.0
O205 O 0.49876 0.96967 0.02382 0.0
C206 C 0.49229 0.99088 0.97647 0.0
C207 C 0.49473 0.03122 0.00185 0.0
O208 O 0.45484 0.95665 0.01295 0.0
O209 O 0.46223 0.97977 0.03725 0.0
O210 O 0.47453 0.98556 0.98201 0.0
O211 O 0.50322 0.99143 0.99156 0.0
O212 O 0.48164 0.01475 0.01085 0.0
O213 O 0.51271 0.03429 0.99779 0.0
C214 C 0.56298 0.04376 0.99365 0.0
O215 O 0.5565 0.04768 0.01006 0.0
O216 O 0.54982 0.02517 0.98538 0.0
C217 C 0.51908 0.01321 0.04563 0.0
Tb218 Tb 0.98747 0.5089 0.01189 0.0
C219 C 0.03376 0.5454 0.01814 0.0
Tb220 Tb 0.02066 0.49738 0.01347 0.0
O221 O 0.98069 0.50026 0.04289 0.0
O222 O 0.00937 0.51093 0.03384 0.0
O223 O 0.01474 0.54009 0.01285 0.0
C224 C 0.04466 0.48306 0.02631 0.0
O225 O 0.03909 0.53114 0.02155 0.0
C226 C 0.0098 0.50354 0.97749 0.0
C227 C 0.97444 0.46089 0.00706 0.0
O228 O 0.04561 0.49153 0.00944 0.0
O229 O 0.0302 0.48261 0.03585 0.0
O230 O 0.02755 0.50623 0.98256 0.0
O231 O 0.99883 0.49543 0.9915 0.0
O232 O 0.99341 0.46621 0.01254 0.0
O233 O 0.96917 0.47516 0.00347 0.0
C234 C 0.96309 0.52287 0.99934 0.0
O235 O 0.9616 0.51322 0.01553 0.0
O236 O 0.97839 0.52479 0.99033 0.0
C237 C 0.99844 0.50296 0.04792 0.0
Tb238 Tb 0.48206 0.49328 0.01024 0.0
C239 C 0.49525 0.46092 0.99695 0.0
Tb240 Tb 0.52722 0.51004 0.00429 0.0
O241 O 0.47262 0.48306 0.97792 0.0
O242 O 0.50175 0.5073 0.98753 0.0
O243 O 0.48179 0.46372 0.00626 0.0
C244 C 0.56306 0.52236 0.99042 0.0
O245 O 0.51288 0.4768 0.99283 0.0
C246 C 0.51797 0.50744 0.04195 0.0
C247 C 0.51372 0.54234 0.01665 0.0
O248 O 0.55483 0.50831 0.00319 0.0
O249 O 0.55118 0.52948 0.98558 0.0
O250 O 0.53566 0.52059 0.0367 0.0
O251 O 0.50739 0.49539 0.02664 0.0
O252 O 0.52699 0.5394 0.00718 0.0
O253 O 0.49634 0.52655 0.02126 0.0
C254 C 0.44731 0.48257 0.02584 0.0
O255 O 0.45377 0.49364 0.01051 0.0
O256 O 0.46035 0.47744 0.03227 0.0
C257 C 0.49052 0.49516 0.97241 0.0
Tb258 Tb 0.19268 0.34904 0.34404 0.0
C259 C 0.1807 0.30172 0.34969 0.0
Tb260 Tb 0.14749 0.31548 0.34618 0.0
O261 O 0.19348 0.36413 0.37409 0.0
O262 O 0.17369 0.33251 0.36618 0.0
O263 O 0.19478 0.32062 0.34517 0.0
C264 C 0.1122 0.28898 0.35926 0.0
O265 O 0.1617 0.29666 0.35175 0.0
C266 C 0.15846 0.32579 0.30983 0.0
C267 C 0.15978 0.3623 0.3405 0.0
O268 O 0.11998 0.28462 0.3441 0.0
O269 O 0.12428 0.30818 0.36693 0.0
O270 O 0.14015 0.31864 0.31459 0.0
O271 O 0.1688 0.32479 0.32457 0.0
O272 O 0.14727 0.34503 0.34884 0.0
O273 O 0.17745 0.36585 0.33501 0.0
C274 C 0.22919 0.37242 0.33157 0.0
O275 O 0.21227 0.36729 0.32139 0.0
O276 O 0.2256 0.36447 0.34893 0.0
C277 C 0.17835 0.34717 0.37958 0.0
Tb278 Tb 0.64993 0.84009 0.34076 0.0
C279 C 0.6941 0.8751 0.35495 0.0
Tb280 Tb 0.68152 0.82662 0.34919 0.0
O281 O 0.65293 0.8509 0.37281 0.0
O282 O 0.65783 0.82634 0.36407 0.0
O283 O 0.67691 0.87091 0.34492 0.0
C284 C 0.70931 0.81891 0.3657 0.0
O285 O 0.69802 0.86015 0.35986 0.0
C286 C 0.67258 0.8284 0.31101 0.0
C287 C 0.63733 0.79159 0.33508 0.0
O288 O 0.71071 0.82816 0.34926 0.0
O289 O 0.69227 0.81397 0.37276 0.0
O290 O 0.67866 0.81588 0.31717 0.0
O291 O 0.67362 0.84037 0.32586 0.0
O292 O 0.65453 0.79581 0.3451 0.0
O293 O 0.63342 0.80654 0.33011 0.0
C294 C 0.6221 0.84797 0.32462 0.0
O295 O 0.62082 0.83869 0.34102 0.0
O296 O 0.63904 0.8528 0.31734 0.0
C297 C 0.65888 0.83828 0.37895 0.0
Tb298 Tb 0.14559 0.82441 0.34453 0.0
C299 C 0.15527 0.7894 0.33102 0.0
Tb300 Tb 0.18975 0.83777 0.33782 0.0
O301 O 0.13637 0.81413 0.31219 0.0
O302 O 0.16546 0.83825 0.32201 0.0
O303 O 0.14268 0.7936 0.34039 0.0
C304 C 0.22407 0.84607 0.32249 0.0
O305 O 0.17335 0.80432 0.32678 0.0
C306 C 0.18109 0.83576 0.3756 0.0
C307 C 0.1801 0.8728 0.35124 0.0
O308 O 0.21725 0.83574 0.3382 0.0
O309 O 0.2116 0.85171 0.31549 0.0
O310 O 0.19892 0.84821 0.37012 0.0
O311 O 0.1699 0.82404 0.36036 0.0
O312 O 0.19266 0.86859 0.34182 0.0
O313 O 0.16204 0.85788 0.3555 0.0
C314 C 0.11165 0.81656 0.3605 0.0
O315 O 0.11828 0.82675 0.34467 0.0
O316 O 0.12406 0.8107 0.3672 0.0
C317 C 0.15422 0.8266 0.30676 0.0
Tb318 Tb 0.8607 0.68601 0.67613 0.0
C319 C 0.84879 0.64093 0.68798 0.0
Tb320 Tb 0.81557 0.65441 0.681 0.0
O321 O 0.8698 0.68826 0.70846 0.0
O322 O 0.84035 0.67988 0.69854 0.0
O323 O 0.86205 0.65758 0.6793 0.0
C324 C 0.77956 0.62917 0.69385 0.0
O325 O 0.83073 0.63778 0.69188 0.0
C326 C 0.82561 0.65958 0.64362 0.0
C327 C 0.82762 0.69958 0.66949 0.0
O328 O 0.78847 0.62339 0.68104 0.0
O329 O 0.79088 0.64909 0.69933 0.0
O330 O 0.80758 0.65369 0.64857 0.0
O331 O 0.83611 0.6601 0.65902 0.0
O332 O 0.81452 0.6831 0.67842 0.0
O333 O 0.84549 0.70251 0.66531 0.0
C334 C 0.89548 0.71134 0.66117 0.0
O335 O 0.88788 0.71683 0.67569 0.0
O336 O 0.88358 0.69161 0.65524 0.0
C337 C 0.85162 0.68103 0.7137 0.0
Tb338 Tb 0.31642 0.17702 0.6741 0.0
C339 C 0.36236 0.21138 0.68413 0.0
Tb340 Tb 0.34937 0.16289 0.67945 0.0
O341 O 0.32069 0.18655 0.70663 0.0
O342 O 0.32649 0.16323 0.69575 0.0
O343 O 0.34435 0.20714 0.67613 0.0
C344 C 0.37478 0.15189 0.69577 0.0
O345 O 0.36691 0.19666 0.68819 0.0
C346 C 0.34313 0.17015 0.64175 0.0
C347 C 0.3039 0.12887 0.66697 0.0
O348 O 0.37225 0.16699 0.70319 0.0
O349 O 0.36301 0.14301 0.67918 0.0
O350 O 0.35557 0.16374 0.64698 0.0
O351 O 0.33676 0.17306 0.6578 0.0
O352 O 0.32121 0.1329 0.67674 0.0
O353 O 0.29988 0.14386 0.66237 0.0
C354 C 0.2892 0.18667 0.6601 0.0
O355 O 0.28636 0.17347 0.67354 0.0
O356 O 0.30732 0.19439 0.65459 0.0
C357 C 0.32803 0.17465 0.71131 0.0
Tb358 Tb 0.81185 0.16103 0.6761 0.0
C359 C 0.8236 0.12739 0.66297 0.0
Tb360 Tb 0.85688 0.17584 0.67077 0.0
O361 O 0.80346 0.15141 0.64355 0.0
O362 O 0.83233 0.17518 0.65413 0.0
O363 O 0.81056 0.13089 0.67229 0.0
C364 C 0.89197 0.18581 0.65622 0.0
O365 O 0.84148 0.14277 0.65892 0.0
C366 C 0.84776 0.17373 0.70844 0.0
C367 C 0.84542 0.20962 0.68397 0.0
O368 O 0.88401 0.17318 0.67021 0.0
O369 O 0.88019 0.1928 0.65051 0.0
O370 O 0.86593 0.18508 0.70328 0.0
O371 O 0.83652 0.1623 0.69303 0.0
O372 O 0.85857 0.2061 0.67491 0.0
O373 O 0.82739 0.19427 0.68781 0.0
C374 C 0.77642 0.15065 0.69012 0.0
O375 O 0.78566 0.1652 0.67806 0.0
O376 O 0.78707 0.1419 0.69417 0.0
C377 C 0.82153 0.16372 0.63861 0.0
H378 H 0.28867 0.83875 0.11753 0.0
H379 H 0.32285 0.86407 0.10974 0.0
H380 H 0.2992 0.86903 0.05123 0.0
H381 H 0.26507 0.84421 0.05905 0.0
H382 H 0.34291 0.85945 0.07761 0.0
H383 H 0.33608 0.93054 0.07321 0.0
H384 H 0.31823 0.90778 0.08494 0.0
H385 H 0.31663 0.90797 0.05783 0.0
C386 C 0.29074 0.84554 0.10316 0.0
C387 C 0.27416 0.83946 0.0889 0.0
C388 C 0.31027 0.85989 0.09868 0.0
C389 C 0.31354 0.86859 0.07999 0.0
C390 C 0.297 0.86278 0.06587 0.0
H391 H 0.41906 0.92208 0.01388 0.0
H392 H 0.38687 0.89967 0.02757 0.0
C393 C 0.27752 0.84842 0.07029 0.0
C394 C 0.33429 0.88292 0.07474 0.0
H395 H 0.36454 0.9316 0.05929 0.0
C396 C 0.34772 0.8753 0.07379 0.0
C397 C 0.34061 0.90367 0.06997 0.0
C398 C 0.32721 0.91308 0.07171 0.0
C399 C 0.36708 0.88763 0.06754 0.0
C400 C 0.37305 0.90801 0.06183 0.0
C401 C 0.35987 0.91589 0.06345 0.0
C402 C 0.39277 0.92129 0.05385 0.0
C403 C 0.38101 0.87877 0.06715 0.0
C404 C 0.40662 0.94103 0.06388 0.0
C405 C 0.42496 0.95387 0.05604 0.0
C406 C 0.42967 0.94725 0.03794 0.0
C407 C 0.41582 0.92751 0.0279 0.0
C408 C 0.39749 0.91466 0.03577 0.0
H409 H 0.37642 0.86569 0.077 0.0
H410 H 0.38056 0.87251 0.05143 0.0
H411 H 0.39678 0.89111 0.07212 0.0
H412 H 0.40324 0.94648 0.0778 0.0
H413 H 0.43539 0.96903 0.06408 0.0
H414 H 0.19691 0.47143 0.08917 0.0
H415 H 0.16952 0.4771 0.07733 0.0
H416 H 0.1262 0.41291 0.08598 0.0
H417 H 0.15363 0.40693 0.09742 0.0
H418 H 0.11995 0.42607 0.0482 0.0
H419 H 0.12958 0.48246 0.11252 0.0
H420 H 0.15235 0.48941 0.10085 0.0
H421 H 0.14055 0.46581 0.1136 0.0
C422 C 0.18156 0.45847 0.08846 0.0
C423 C 0.17743 0.43872 0.09422 0.0
C424 C 0.16593 0.4618 0.08189 0.0
C425 C 0.14585 0.44551 0.08105 0.0
C426 C 0.14161 0.42572 0.08667 0.0
H427 H 0.04434 0.46632 0.06191 0.0
H428 H 0.06758 0.45521 0.07508 0.0
C429 C 0.15727 0.42238 0.09331 0.0
C430 C 0.12937 0.4491 0.07383 0.0
H431 H 0.10875 0.47996 0.08336 0.0
C432 C 0.11736 0.43771 0.05596 0.0
C433 C 0.12588 0.46411 0.08413 0.0
C434 C 0.13763 0.47602 0.10395 0.0
C435 C 0.10236 0.44145 0.04773 0.0
C436 C 0.09953 0.45718 0.05753 0.0
C437 C 0.11109 0.46806 0.07576 0.0
C438 C 0.08487 0.46287 0.04902 0.0
C439 C 0.08963 0.42849 0.02869 0.0
C440 C 0.08697 0.47094 0.03005 0.0
C441 C 0.07371 0.47727 0.0225 0.0
C442 C 0.05824 0.47574 0.03387 0.0
C443 C 0.05611 0.4676 0.05282 0.0
C444 C 0.06936 0.46127 0.06035 0.0
H445 H 0.08978 0.41353 0.02634 0.0
H446 H 0.0738 0.42479 0.02916 0.0
H447 H 0.09574 0.43752 0.01545 0.0
H448 H 0.0991 0.47273 0.02125 0.0
H449 H 0.07572 0.48361 0.0079 0.0
H450 H 0.58032 0.74041 0.05049 0.0
H451 H 0.57063 0.70401 0.0397 0.0
H452 H 0.53553 0.68291 0.09083 0.0
H453 H 0.5451 0.71929 0.10171 0.0
H454 H 0.57551 0.67363 0.06692 0.0
H455 H 0.49731 0.64885 0.03616 0.0
H456 H 0.51731 0.67599 0.03839 0.0
H457 H 0.50642 0.66371 0.0606 0.0
C458 C 0.57048 0.728 0.05939 0.0
C459 C 0.5634 0.73265 0.0769 0.0
C460 C 0.56505 0.70728 0.05326 0.0
C461 C 0.55228 0.69087 0.06441 0.0
C462 C 0.54532 0.69543 0.082 0.0
H463 H 0.49538 0.55513 0.04354 0.0
H464 H 0.50506 0.59117 0.05546 0.0
C465 C 0.55089 0.71617 0.08824 0.0
C466 C 0.54625 0.66895 0.05762 0.0
H467 H 0.50675 0.62298 0.03523 0.0
C468 C 0.5605 0.6625 0.05998 0.0
C469 C 0.52663 0.65458 0.04871 0.0
C470 C 0.51096 0.66102 0.04565 0.0
C471 C 0.55556 0.64185 0.05381 0.0
C472 C 0.53601 0.6275 0.04452 0.0
C473 C 0.52174 0.634 0.04229 0.0
C474 C 0.53006 0.60568 0.037 0.0
C475 C 0.57121 0.63549 0.05773 0.0
C476 C 0.54065 0.60187 0.02237 0.0
C477 C 0.53524 0.5813 0.01561 0.0
C478 C 0.5189 0.56412 0.02312 0.0
C479 C 0.50798 0.56799 0.03738 0.0
C480 C 0.51352 0.58858 0.04425 0.0
H481 H 0.58289 0.64605 0.07001 0.0
H482 H 0.56423 0.61909 0.06195 0.0
H483 H 0.57885 0.63651 0.04377 0.0
H484 H 0.55312 0.61482 0.01615 0.0
H485 H 0.54386 0.57888 0.00449 0.0
H486 H 0.84764 0.26032 0.9721 0.0
H487 H 0.87345 0.29579 0.98584 0.0
H488 H 0.86457 0.32047 0.93124 0.0
H489 H 0.83859 0.28509 0.91745 0.0
H490 H 0.90544 0.33575 0.94456 0.0
H491 H 0.8628 0.3428 0.00657 0.0
H492 H 0.86548 0.31991 0.00584 0.0
H493 H 0.851 0.32285 0.98548 0.0
C494 C 0.85104 0.27331 0.96308 0.0
C495 C 0.84094 0.26987 0.94372 0.0
C496 C 0.8658 0.29357 0.97096 0.0
C497 C 0.87071 0.31078 0.95967 0.0
C498 C 0.86096 0.30738 0.94021 0.0
H499 H 0.93432 0.44382 0.99534 0.0
H500 H 0.90972 0.40704 0.9848 0.0
C501 C 0.84619 0.28714 0.93232 0.0
C502 C 0.88608 0.33235 0.96806 0.0
H503 H 0.89635 0.37051 0.00592 0.0
C504 C 0.9035 0.34335 0.958 0.0
C505 C 0.88339 0.34226 0.98549 0.0
C506 C 0.8646 0.33147 0.99643 0.0
C507 C 0.91835 0.36402 0.96493 0.0
C508 C 0.91579 0.37383 0.98252 0.0
C509 C 0.89835 0.36285 0.99255 0.0
C510 C 0.9306 0.39586 0.99013 0.0
C511 C 0.9364 0.37541 0.95307 0.0
C512 C 0.95039 0.40169 0.9971 0.0
C513 C 0.96455 0.42275 0.00318 0.0
C514 C 0.95913 0.43835 0.0024 0.0
C515 C 0.93908 0.43228 0.99605 0.0
C516 C 0.92496 0.41124 0.99003 0.0
H517 H 0.93401 0.36735 0.93769 0.0
H518 H 0.93992 0.39179 0.95153 0.0
H519 H 0.94968 0.37605 0.96125 0.0
H520 H 0.95495 0.38998 0.99762 0.0
H521 H 0.97981 0.42681 0.00807 0.0
H522 H 0.72489 0.56674 0.90215 0.0
H523 H 0.69069 0.55685 0.90998 0.0
H524 H 0.71373 0.58829 0.9701 0.0
H525 H 0.74792 0.59899 0.96214 0.0
H526 H 0.66977 0.53219 0.93875 0.0
H527 H 0.67737 0.61055 0.95297 0.0
H528 H 0.6959 0.60677 0.94083 0.0
H529 H 0.69607 0.60818 0.96801 0.0
C530 C 0.72272 0.57196 0.91688 0.0
C531 C 0.73915 0.58364 0.93152 0.0
C532 C 0.70315 0.56616 0.92138 0.0
C533 C 0.69966 0.57204 0.94054 0.0
C534 C 0.71606 0.58392 0.95507 0.0
H535 H 0.59112 0.51176 0.00212 0.0
H536 H 0.62381 0.52341 0.98882 0.0
C537 C 0.7356 0.5898 0.95058 0.0
C538 C 0.67883 0.56474 0.94583 0.0
H539 H 0.64881 0.58177 0.96546 0.0
C540 C 0.6651 0.54303 0.94439 0.0
C541 C 0.67266 0.57889 0.95293 0.0
C542 C 0.68621 0.6024 0.95358 0.0
C543 C 0.6456 0.53508 0.95046 0.0
C544 C 0.63983 0.5492 0.95865 0.0
C545 C 0.65333 0.57093 0.95946 0.0
C546 C 0.61991 0.54183 0.96655 0.0
C547 C 0.63133 0.51164 0.94788 0.0
C548 C 0.6071 0.54876 0.95885 0.0
C549 C 0.58859 0.54238 0.96664 0.0
C550 C 0.58258 0.52896 0.98226 0.0
C551 C 0.59537 0.52202 0.98999 0.0
C552 C 0.61396 0.52853 0.98229 0.0
H553 H 0.63569 0.50383 0.93604 0.0
H554 H 0.63175 0.50495 0.96236 0.0
H555 H 0.61562 0.50784 0.94375 0.0
H556 H 0.6114 0.55909 0.94677 0.0
H557 H 0.57897 0.54791 0.96039 0.0
H558 H 0.437 0.16473 0.96968 0.0
H559 H 0.44503 0.13854 0.98111 0.0
H560 H 0.45983 0.1292 0.92115 0.0
H561 H 0.452 0.15557 0.90959 0.0
H562 H 0.43614 0.09127 0.94019 0.0
H563 H 0.50373 0.15061 0.98954 0.0
H564 H 0.48088 0.15061 0.99387 0.0
H565 H 0.4915 0.15772 0.97011 0.0
C566 C 0.44199 0.15713 0.95892 0.0
C567 C 0.44408 0.16239 0.93878 0.0
C568 C 0.44655 0.14217 0.96548 0.0
C569 C 0.45335 0.13224 0.95206 0.0
C570 C 0.45468 0.13679 0.93175 0.0
H571 H 0.51634 0.06576 0.98132 0.0
H572 H 0.50583 0.08973 0.96895 0.0
C573 C 0.45011 0.15177 0.92516 0.0
C574 C 0.45958 0.11753 0.95938 0.0
H575 H 0.49399 0.11488 0.9919 0.0
C576 C 0.44879 0.09639 0.95147 0.0
C577 C 0.47624 0.12437 0.97392 0.0
C578 C 0.48891 0.14709 0.98226 0.0
C579 C 0.45404 0.0818 0.95801 0.0
C580 C 0.47038 0.08855 0.97293 0.0
C581 C 0.48135 0.10975 0.98059 0.0
C582 C 0.4766 0.07394 0.98056 0.0
C583 C 0.4423 0.05937 0.94868 0.0
C584 C 0.46373 0.05729 0.99144 0.0
C585 C 0.4697 0.04356 0.99863 0.0
C586 C 0.48871 0.0463 0.99512 0.0
C587 C 0.50164 0.06319 0.9844 0.0
C588 C 0.49566 0.07691 0.97726 0.0
H589 H 0.43326 0.0578 0.93439 0.0
H590 H 0.45255 0.05325 0.94547 0.0
H591 H 0.43182 0.0494 0.95949 0.0
H592 H 0.44908 0.05495 0.99443 0.0
H593 H 0.45936 0.03075 0.00683 0.0
H594 H 0.74725 0.14406 0.94822 0.0
H595 H 0.71193 0.11723 0.95068 0.0
H596 H 0.6951 0.16492 0.94882 0.0
H597 H 0.73029 0.19156 0.94602 0.0
H598 H 0.69113 0.11749 0.9822 0.0
H599 H 0.65045 0.11772 0.91096 0.0
H600 H 0.67747 0.12919 0.91399 0.0
H601 H 0.66599 0.14355 0.9237 0.0
C602 C 0.73583 0.14858 0.94772 0.0
C603 C 0.74121 0.16965 0.94669 0.0
C604 C 0.71573 0.13333 0.94921 0.0
C605 C 0.7008 0.139 0.94968 0.0
C606 C 0.70622 0.16005 0.94797 0.0
H607 H 0.59252 0.08193 0.01106 0.0
H608 H 0.62573 0.1044 0.99936 0.0
C609 C 0.72629 0.17527 0.94644 0.0
C610 C 0.68012 0.12351 0.9543 0.0
H611 H 0.63028 0.10229 0.93837 0.0
C612 C 0.67785 0.11399 0.97249 0.0
C613 C 0.66278 0.11882 0.94157 0.0
C614 C 0.66426 0.12769 0.92136 0.0
C615 C 0.65873 0.10045 0.97861 0.0
C616 C 0.64139 0.0966 0.96639 0.0
C617 C 0.64361 0.10551 0.94785 0.0
C618 C 0.62089 0.08352 0.9728 0.0
C619 C 0.65726 0.09037 0.99812 0.0
C620 C 0.60693 0.06467 0.96139 0.0
C621 C 0.58794 0.05185 0.96803 0.0
C622 C 0.58259 0.05777 0.98609 0.0
C623 C 0.59633 0.07694 0.99715 0.0
C624 C 0.61531 0.08972 0.99054 0.0
H625 H 0.67136 0.09041 0.00282 0.0
H626 H 0.65458 0.0993 0.01034 0.0
H627 H 0.64454 0.0739 0.99664 0.0
H628 H 0.6109 0.05968 0.9476 0.0
H629 H 0.57755 0.03719 0.95916 0.0
H630 H 0.85022 0.59621 0.92981 0.0
H631 H 0.87583 0.58544 0.9327 0.0
H632 H 0.84469 0.54587 0.97938 0.0
H633 H 0.81916 0.55632 0.97623 0.0
H634 H 0.90112 0.5909 0.96645 0.0
H635 H 0.8531 0.50615 0.9421 0.0
H636 H 0.84513 0.52494 0.93749 0.0
H637 H 0.84276 0.51444 0.96173 0.0
C638 C 0.84885 0.58501 0.94045 0.0
C639 C 0.83283 0.57688 0.95271 0.0
C640 C 0.86341 0.5789 0.94212 0.0
C641 C 0.86194 0.56453 0.95598 0.0
C642 C 0.84584 0.55651 0.9682 0.0
H643 H 0.92944 0.51746 0.01591 0.0
H644 H 0.90583 0.52829 0.00323 0.0
C645 C 0.83135 0.56257 0.9665 0.0
C646 C 0.87774 0.55873 0.95876 0.0
H647 H 0.88425 0.51639 0.962 0.0
C648 C 0.89755 0.57465 0.9651 0.0
C649 C 0.87305 0.53751 0.95694 0.0
C650 C 0.85239 0.51982 0.94898 0.0
C651 C 0.91252 0.5698 0.97077 0.0
C652 C 0.90751 0.54853 0.96993 0.0
C653 C 0.88795 0.53268 0.9628 0.0
C654 C 0.92205 0.54231 0.97746 0.0
C655 C 0.93333 0.58734 0.9785 0.0
C656 C 0.93889 0.54654 0.96708 0.0
C657 C 0.95237 0.54032 0.97427 0.0
C658 C 0.94916 0.52981 0.99195 0.0
C659 C 0.93229 0.5256 0.0023 0.0
C660 C 0.91879 0.53173 0.99506 0.0
H661 H 0.93399 0.60272 0.98086 0.0
H662 H 0.93833 0.58381 0.99303 0.0
H663 H 0.9441 0.58875 0.96737 0.0
H664 H 0.94151 0.55448 0.95334 0.0
H665 H 0.96522 0.54364 0.96596 0.0
H666 H 0.48662 0.28757 0.93997 0.0
H667 H 0.49142 0.32309 0.94521 0.0
H668 H 0.43151 0.29698 0.9644 0.0
H669 H 0.42682 0.26147 0.95936 0.0
H670 H 0.46928 0.34237 0.93036 0.0
H671 H 0.46887 0.33679 0.01356 0.0
H672 H 0.47128 0.31847 0.99646 0.0
H673 H 0.44709 0.31617 0.99859 0.0
C674 C 0.47437 0.28948 0.94489 0.0
C675 C 0.45636 0.27204 0.94924 0.0
C676 C 0.47712 0.30969 0.94791 0.0
C677 C 0.46193 0.31264 0.95548 0.0
C678 C 0.44351 0.29503 0.95883 0.0
H679 H 0.46055 0.42431 0.00158 0.0
H680 H 0.45195 0.38852 0.99029 0.0
C681 C 0.44078 0.27482 0.95581 0.0
C682 C 0.4659 0.33418 0.96111 0.0
H683 H 0.47159 0.36763 0.00179 0.0
C684 C 0.46976 0.34793 0.94595 0.0
C685 C 0.4666 0.34135 0.9815 0.0
C686 C 0.46342 0.32753 0.99853 0.0
C687 C 0.47405 0.36866 0.95063 0.0
C688 C 0.47488 0.37586 0.97104 0.0
C689 C 0.47091 0.36205 0.98616 0.0
C690 C 0.48001 0.39772 0.97719 0.0
C691 C 0.47734 0.38253 0.93364 0.0
C692 C 0.49875 0.41478 0.97378 0.0
C693 C 0.50375 0.43532 0.98021 0.0
C694 C 0.49014 0.43916 0.99035 0.0
C695 C 0.47142 0.42198 0.99385 0.0
C696 C 0.46644 0.40148 0.98738 0.0
H697 H 0.47084 0.37316 0.91875 0.0
H698 H 0.47056 0.39258 0.93628 0.0
H699 H 0.49375 0.39295 0.93283 0.0
H700 H 0.50964 0.4122 0.96636 0.0
H701 H 0.51831 0.44814 0.97729 0.0
H702 H 0.15419 0.7473 0.05578 0.0
H703 H 0.12468 0.71171 0.04967 0.0
H704 H 0.16157 0.68563 0.06843 0.0
H705 H 0.19088 0.72116 0.07481 0.0
H706 H 0.12124 0.68084 0.0221 0.0
H707 H 0.11229 0.65296 0.09875 0.0
H708 H 0.12736 0.68038 0.09462 0.0
H709 H 0.13743 0.66309 0.09162 0.0
C710 C 0.15576 0.73392 0.05905 0.0
C711 C 0.17454 0.73674 0.06598 0.0
C712 C 0.13899 0.71366 0.05548 0.0
C713 C 0.14085 0.69601 0.05886 0.0
C714 C 0.15965 0.69899 0.0662 0.0
H715 H 0.07345 0.56224 0.03165 0.0
H716 H 0.09834 0.59915 0.04101 0.0
C717 C 0.17637 0.71924 0.06978 0.0
C718 C 0.12366 0.67447 0.0531 0.0
H719 H 0.09554 0.62651 0.07088 0.0
C720 C 0.11542 0.66902 0.03282 0.0
C721 C 0.11611 0.65907 0.0671 0.0
C722 C 0.12362 0.6642 0.08928 0.0
C723 C 0.10038 0.64839 0.02598 0.0
C724 C 0.09324 0.63288 0.03987 0.0
C725 C 0.10114 0.63843 0.06025 0.0
C726 C 0.07807 0.61063 0.03347 0.0
C727 C 0.09279 0.64316 0.00382 0.0
C728 C 0.0584 0.60484 0.02605 0.0
C729 C 0.04407 0.58369 0.02061 0.0
C730 C 0.04915 0.56795 0.0226 0.0
C731 C 0.06896 0.5739 0.02986 0.0
C732 C 0.08323 0.595 0.0353 0.0
H733 H 0.10275 0.6557 0.99445 0.0
H734 H 0.09157 0.62812 0.99803 0.0
H735 H 0.07757 0.64132 0.00189 0.0
H736 H 0.05404 0.61664 0.02479 0.0
H737 H 0.02895 0.57968 0.01517 0.0
H738 H 0.268 0.4152 0.08354 0.0
H739 H 0.30023 0.41724 0.07785 0.0
H740 H 0.33057 0.48482 0.08882 0.0
H741 H 0.29853 0.48266 0.0949 0.0
H742 H 0.32184 0.43611 0.04739 0.0
H743 H 0.36988 0.47284 0.11927 0.0
H744 H 0.34287 0.46144 0.11764 0.0
H745 H 0.35872 0.48774 0.11082 0.0
C746 C 0.28172 0.43036 0.08537 0.0
C747 C 0.28105 0.44877 0.08987 0.0
C748 C 0.30006 0.43155 0.08204 0.0
C749 C 0.31789 0.45117 0.08317 0.0
C750 C 0.31718 0.46949 0.08841 0.0
H751 H 0.41887 0.49218 0.01328 0.0
H752 H 0.38726 0.48275 0.02799 0.0
C753 C 0.29888 0.46827 0.09179 0.0
C754 C 0.33668 0.45282 0.07643 0.0
H755 H 0.38732 0.47621 0.08921 0.0
C756 C 0.3361 0.44458 0.05668 0.0
C757 C 0.35527 0.46368 0.08858 0.0
C758 C 0.35671 0.47173 0.11033 0.0
C759 C 0.35371 0.44776 0.04842 0.0
C760 C 0.37246 0.45988 0.06008 0.0
C761 C 0.37296 0.46722 0.08018 0.0
C762 C 0.39172 0.46571 0.05139 0.0
C763 C 0.35206 0.43824 0.02722 0.0
C764 C 0.40499 0.45978 0.06002 0.0
C765 C 0.42311 0.46527 0.0517 0.0
C766 C 0.42828 0.47687 0.03469 0.0
C767 C 0.41515 0.48308 0.02628 0.0
C768 C 0.39706 0.4776 0.0346 0.0
H769 H 0.33677 0.42457 0.02282 0.0
H770 H 0.35494 0.45018 0.01638 0.0
H771 H 0.36327 0.43306 0.02574 0.0
H772 H 0.40122 0.45075 0.07307 0.0
H773 H 0.43306 0.46042 0.05855 0.0
H774 H 0.59415 0.85581 0.05098 0.0
H775 H 0.58669 0.88423 0.04687 0.0
H776 H 0.5289 0.84681 0.06976 0.0
H777 H 0.53651 0.81854 0.07406 0.0
H778 H 0.55426 0.87886 0.02137 0.0
H779 H 0.54951 0.90485 0.0999 0.0
H780 H 0.56168 0.88985 0.09436 0.0
H781 H 0.5347 0.87697 0.09342 0.0
C782 C 0.58012 0.85399 0.05562 0.0
C783 C 0.56594 0.83529 0.06301 0.0
C784 C 0.57583 0.87012 0.05321 0.0
C785 C 0.55733 0.86772 0.05822 0.0
C786 C 0.54343 0.84919 0.06622 0.0
H787 H 0.49464 0.93657 0.03777 0.0
H788 H 0.5047 0.91127 0.0472 0.0
C789 C 0.54773 0.83306 0.06862 0.0
C790 C 0.55178 0.88361 0.05314 0.0
H791 H 0.5374 0.91718 0.07323 0.0
C792 C 0.55074 0.88738 0.03273 0.0
C793 C 0.54698 0.89451 0.06796 0.0
C794 C 0.54842 0.89152 0.09017 0.0
C795 C 0.54473 0.90151 0.02666 0.0
C796 C 0.54002 0.91249 0.04148 0.0
C797 C 0.54103 0.90873 0.06191 0.0
C798 C 0.53409 0.92801 0.03602 0.0
C799 C 0.54299 0.90414 0.00438 0.0
C800 C 0.54738 0.94594 0.02684 0.0
C801 C 0.54165 0.96036 0.02131 0.0
C802 C 0.52255 0.95723 0.02501 0.0
C803 C 0.50939 0.93941 0.03454 0.0
C804 C 0.51513 0.92496 0.04002 0.0
H805 H 0.54182 0.8907 0.99478 0.0
H806 H 0.52964 0.90569 1.00023 0.0
H807 H 0.55663 0.91863 1.00085 0.0
H808 H 0.56224 0.94882 0.02401 0.0
H809 H 0.55227 0.974 0.01422 0.0
H810 H 0.9418 0.1406 0.40318 0.0
H811 H 0.97528 0.1648 0.39333 0.0
H812 H 0.97482 0.21652 0.42626 0.0
H813 H 0.94098 0.19249 0.43579 0.0
H814 H 0.98478 0.20247 0.37141 0.0
H815 H 0.02997 0.22012 0.44558 0.0
H816 H 0.00561 0.1967 0.43986 0.0
H817 H 0.00733 0.22165 0.44537 0.0
C818 C 0.94874 0.15713 0.40829 0.0
C819 C 0.93861 0.16461 0.42017 0.0
C820 C 0.96793 0.1709 0.40274 0.0
C821 C 0.97751 0.19237 0.40915 0.0
C822 C 0.96772 0.19992 0.42137 0.0
H823 H 0.09393 0.29794 0.38897 0.0
H824 H 0.06104 0.27457 0.40074 0.0
C825 C 0.94843 0.18616 0.42685 0.0
C826 C 0.99737 0.20694 0.40223 0.0
H827 H 0.04721 0.23817 0.41829 0.0
C828 C 0.99847 0.21029 0.38162 0.0
C829 C 0.01508 0.21715 0.41565 0.0
C830 C 0.01463 0.21372 0.43786 0.0
C831 C 0.01686 0.22379 0.37406 0.0
C832 C 0.03472 0.23373 0.3874 0.0
C833 C 0.03355 0.23047 0.40807 0.0
C834 C 0.05472 0.24773 0.38025 0.0
C835 C 0.01689 0.22765 0.35195 0.0
C836 C 0.06226 0.24033 0.36501 0.0
C837 C 0.08098 0.25373 0.35813 0.0
C838 C 0.09257 0.27464 0.36658 0.0
C839 C 0.08524 0.28189 0.38213 0.0
C840 C 0.06648 0.26855 0.38889 0.0
H841 H 0.00176 0.22397 0.3454 0.0
H842 H 0.02789 0.24424 0.34975 0.0
H843 H 0.02113 0.21734 0.34336 0.0
H844 H 0.0537 0.22418 0.35848 0.0
H845 H 0.08639 0.24772 0.34626 0.0
H846 H 0.84075 0.78249 0.45761 0.0
H847 H 0.81494 0.79165 0.44861 0.0
H848 H 0.8068 0.76328 0.38778 0.0
H849 H 0.8323 0.75377 0.39673 0.0
H850 H 0.81591 0.81722 0.41734 0.0
H851 H 0.74897 0.73698 0.40551 0.0
H852 H 0.77225 0.74258 0.4193 0.0
H853 H 0.76992 0.74039 0.39208 0.0
C854 C 0.83324 0.77794 0.4424 0.0
C855 C 0.83852 0.76738 0.42788 0.0
C856 C 0.8186 0.78328 0.43727 0.0
C857 C 0.80885 0.77795 0.4176 0.0
C858 C 0.81397 0.76728 0.40312 0.0
H859 H 0.74491 0.82747 0.35147 0.0
H860 H 0.76933 0.81834 0.36563 0.0
C861 C 0.82866 0.76202 0.4082 0.0
C862 C 0.79389 0.78427 0.41194 0.0
H863 H 0.74485 0.76477 0.39398 0.0
C864 C 0.80033 0.80578 0.41238 0.0
C865 C 0.77355 0.76929 0.40568 0.0
C866 C 0.76565 0.74601 0.40576 0.0
C867 C 0.78708 0.81271 0.40612 0.0
C868 C 0.76695 0.79772 0.39909 0.0
C869 C 0.76035 0.77622 0.39924 0.0
C870 C 0.7526 0.804 0.39104 0.0
C871 C 0.7947 0.836 0.40711 0.0
C872 C 0.73503 0.79874 0.40053 0.0
C873 C 0.72106 0.80388 0.39243 0.0
C874 C 0.72439 0.8142 0.37464 0.0
C875 C 0.74204 0.81957 0.36523 0.0
C876 C 0.75602 0.81446 0.37335 0.0
H877 H 0.80869 0.84511 0.41748 0.0
H878 H 0.79813 0.84138 0.39177 0.0
H879 H 0.78314 0.83957 0.41224 0.0
H880 H 0.73211 0.7906 0.41416 0.0
H881 H 0.70757 0.79961 0.39999 0.0
H882 H 0.24443 0.07122 0.37626 0.0
H883 H 0.23443 0.03465 0.36627 0.0
H884 H 0.21865 0.01862 0.42676 0.0
H885 H 0.2283 0.05509 0.43683 0.0
H886 H 0.24157 0.00154 0.40928 0.0
H887 H 0.17478 0.98613 0.35872 0.0
H888 H 0.19809 0.00878 0.354 0.0
H889 H 0.18745 0.00843 0.3775 0.0
C890 C 0.23874 0.0599 0.38742 0.0
C891 C 0.23701 0.06605 0.40731 0.0
C892 C 0.23307 0.03904 0.38169 0.0
C893 C 0.22554 0.02393 0.39571 0.0
C894 C 0.22438 0.03008 0.41572 0.0
H895 H 0.15916 0.88815 0.37113 0.0
H896 H 0.17047 0.92476 0.38245 0.0
C897 C 0.23001 0.05094 0.42147 0.0
C898 C 0.21858 0.00163 0.38941 0.0
H899 H 0.18326 0.95933 0.35821 0.0
C900 C 0.22882 0.99227 0.39814 0.0
C901 C 0.20178 0.98957 0.37507 0.0
C902 C 0.18973 0.99862 0.36587 0.0
C903 C 0.22289 0.9712 0.39261 0.0
C904 C 0.20642 0.95931 0.37786 0.0
C905 C 0.19598 0.96856 0.3694 0.0
C906 C 0.19973 0.93717 0.37105 0.0
C907 C 0.23411 0.96172 0.40276 0.0
C908 C 0.21236 0.9321 0.36068 0.0
C909 C 0.20594 0.91121 0.35412 0.0
C910 C 0.18672 0.895 0.35776 0.0
C911 C 0.17404 0.9002 0.36803 0.0
C912 C 0.18047 0.92111 0.37454 0.0
H913 H 0.24317 0.97128 0.41692 0.0
H914 H 0.22351 0.94551 0.40643 0.0
H915 H 0.24451 0.9609 0.3923 0.0
H916 H 0.22716 0.94433 0.35755 0.0
H917 H 0.2161 0.90781 0.34623 0.0
H918 H 0.48427 0.60675 0.28784 0.0
H919 H 0.5098 0.64293 0.2997 0.0
H920 H 0.55516 0.63398 0.27302 0.0
H921 H 0.52975 0.59764 0.26128 0.0
H922 H 0.5456 0.65756 0.32548 0.0
H923 H 0.56104 0.6873 0.24948 0.0
H924 H 0.53904 0.66273 0.25352 0.0
H925 H 0.56308 0.66437 0.25276 0.0
C926 C 0.4997 0.6124 0.28462 0.0
C927 C 0.50495 0.5993 0.27356 0.0
C928 C 0.51425 0.63311 0.29133 0.0
C929 C 0.5343 0.64119 0.28702 0.0
C930 C 0.53968 0.62815 0.27617 0.0
H931 H 0.63875 0.75625 0.3432 0.0
H932 H 0.61382 0.7197 0.33191 0.0
C933 C 0.52514 0.60741 0.26945 0.0
C934 C 0.54959 0.66321 0.29412 0.0
H935 H 0.58199 0.71066 0.27757 0.0
C936 C 0.55358 0.66919 0.31503 0.0
C937 C 0.55977 0.67836 0.28041 0.0
C938 C 0.55546 0.673 0.25778 0.0
C939 C 0.56765 0.68992 0.32263 0.0
C940 C 0.57814 0.70497 0.30894 0.0
C941 C 0.57401 0.69903 0.28802 0.0
C942 C 0.59319 0.72709 0.31599 0.0
C943 C 0.57089 0.69565 0.34522 0.0
C944 C 0.59001 0.74339 0.31048 0.0
C945 C 0.60424 0.76431 0.31684 0.0
C946 C 0.62203 0.76936 0.32875 0.0
C947 C 0.62519 0.75296 0.33415 0.0
C948 C 0.61092 0.73203 0.3278 0.0
H949 H 0.5584 0.68377 0.3532 0.0
H950 H 0.58507 0.69656 0.35121 0.0
H951 H 0.57227 0.71123 0.34884 0.0
H952 H 0.57646 0.7399 0.30129 0.0
H953 H 0.60133 0.77651 0.31229 0.0
H954 H 0.3965 0.87741 0.27791 0.0
H955 H 0.36262 0.86594 0.28764 0.0
H956 H 0.3591 0.91128 0.25182 0.0
H957 H 0.39328 0.92329 0.24236 0.0
H958 H 0.35108 0.89445 0.30786 0.0
H959 H 0.30564 0.85368 0.23472 0.0
H960 H 0.33078 0.85814 0.24041 0.0
H961 H 0.32721 0.87945 0.23393 0.0
C962 C 0.38858 0.88501 0.27212 0.0
C963 C 0.39769 0.90139 0.25945 0.0
C964 C 0.36917 0.87833 0.2776 0.0
C965 C 0.35836 0.88768 0.27034 0.0
C966 C 0.36714 0.90369 0.25734 0.0
H967 H 0.24054 0.86982 0.29134 0.0
H968 H 0.27322 0.87996 0.27869 0.0
C969 C 0.38664 0.91049 0.25192 0.0
C970 C 0.33836 0.88142 0.27734 0.0
H971 H 0.2882 0.8567 0.26173 0.0
C972 C 0.3373 0.88615 0.29782 0.0
C973 C 0.32051 0.87077 0.26412 0.0
C974 C 0.32092 0.86503 0.24207 0.0
C975 C 0.31882 0.88069 0.30545 0.0
C976 C 0.30086 0.86966 0.29233 0.0
C977 C 0.30196 0.86506 0.27178 0.0
C978 C 0.28082 0.86292 0.29964 0.0
C979 C 0.3188 0.88724 0.32738 0.0
C980 C 0.27407 0.84963 0.31533 0.0
C981 C 0.25551 0.84399 0.32269 0.0
C982 C 0.24329 0.85132 0.31428 0.0
C983 C 0.24975 0.86406 0.29816 0.0
C984 C 0.26837 0.86982 0.2909 0.0
H985 H 0.33375 0.90051 0.3336 0.0
H986 H 0.30734 0.892 0.32929 0.0
H987 H 0.31518 0.8738 0.33649 0.0
H988 H 0.28319 0.84368 0.32194 0.0
H989 H 0.25077 0.83398 0.33501 0.0
H990 H 0.13423 0.51477 0.29701 0.0
H991 H 0.14264 0.48892 0.30848 0.0
H992 H 0.08559 0.43871 0.2806 0.0
H993 H 0.07688 0.46454 0.26926 0.0
H994 H 0.12104 0.45613 0.3337 0.0
H995 H 0.12788 0.42601 0.25765 0.0
H996 H 0.128 0.45046 0.26197 0.0
H997 H 0.10474 0.4259 0.26068 0.0
C998 C 0.12338 0.49823 0.29343 0.0
C999 C 0.10485 0.49172 0.28225 0.0
C1000 C 0.12826 0.48349 0.29993 0.0
C1001 C 0.11481 0.46194 0.29527 0.0
C1002 C 0.0963 0.45531 0.2841 0.0
H1003 H 0.12511 0.36166 0.34967 0.0
H1004 H 0.11344 0.38548 0.33936 0.0
C1005 C 0.09138 0.47007 0.27759 0.0
C1006 C 0.12025 0.44653 0.3023 0.0
H1007 H 0.13185 0.40957 0.28568 0.0
C1008 C 0.12332 0.44586 0.32323 0.0
C1009 C 0.1234 0.43334 0.28857 0.0
C1010 C 0.12101 0.43398 0.26595 0.0
C1011 C 0.12954 0.43238 0.33081 0.0
C1012 C 0.13256 0.41909 0.31708 0.0
C1013 C 0.12941 0.41971 0.29615 0.0
C1014 C 0.13978 0.40504 0.32404 0.0
C1015 C 0.13337 0.43286 0.35342 0.0
C1016 C 0.15838 0.40807 0.31873 0.0
C1017 C 0.16509 0.39452 0.32457 0.0
C1018 C 0.15325 0.37753 0.33575 0.0
C1019 C 0.13467 0.37464 0.3412 0.0
C1020 C 0.12799 0.38827 0.33537 0.0
H1021 H 0.1345 0.447 0.36163 0.0
H1022 H 0.12074 0.41875 0.35894 0.0
H1023 H 0.14746 0.43259 0.35724 0.0
H1024 H 0.16768 0.42089 0.30995 0.0
H1025 H 0.1794 0.39717 0.31996 0.0
H1026 H 0.39312 0.51777 0.27197 0.0
H1027 H 0.35847 0.49118 0.27727 0.0
H1028 H 0.37892 0.44863 0.2937 0.0
H1029 H 0.4136 0.47525 0.28832 0.0
H1030 H 0.33976 0.42963 0.26846 0.0
H1031 H 0.34565 0.4793 0.33747 0.0
H1032 H 0.35146 0.49221 0.31449 0.0
H1033 H 0.36739 0.48311 0.32507 0.0
C1034 C 0.39005 0.5025 0.27614 0.0
C1035 C 0.40578 0.49833 0.27961 0.0
C1036 C 0.37035 0.48742 0.2793 0.0
C1037 C 0.36622 0.46807 0.2861 0.0
C1038 C 0.38182 0.46347 0.28844 0.0
H1039 H 0.26581 0.38576 0.35204 0.0
H1040 H 0.2991 0.40793 0.34026 0.0
C1041 C 0.40155 0.47859 0.28531 0.0
C1042 C 0.34607 0.45345 0.29247 0.0
H1043 H 0.3142 0.44867 0.32834 0.0
C1044 C 0.33412 0.43374 0.28152 0.0
C1045 C 0.33894 0.45879 0.30972 0.0
C1046 C 0.35154 0.47942 0.32252 0.0
C1047 C 0.315 0.41933 0.28721 0.0
C1048 C 0.30768 0.4249 0.30419 0.0
C1049 C 0.3198 0.44449 0.31528 0.0
C1050 C 0.28753 0.41066 0.31083 0.0
C1051 C 0.30291 0.39816 0.27522 0.0
C1052 C 0.27001 0.40497 0.29824 0.0
C1053 C 0.25102 0.39239 0.30496 0.0
C1054 C 0.24925 0.38535 0.32442 0.0
C1055 C 0.26677 0.39096 0.33698 0.0
C1056 C 0.28576 0.4036 0.33026 0.0
H1057 H 0.31247 0.39439 0.26592 0.0
H1058 H 0.29527 0.38554 0.28541 0.0
H1059 H 0.29116 0.39824 0.26484 0.0
H1060 H 0.27102 0.41058 0.28335 0.0
H1061 H 0.23773 0.38831 0.29499 0.0
H1062 H 0.48497 0.89151 0.30735 0.0
H1063 H 0.50928 0.87928 0.30967 0.0
H1064 H 0.53422 0.9092 0.25591 0.0
H1065 H 0.50986 0.92168 0.25374 0.0
H1066 H 0.51541 0.85373 0.28091 0.0
H1067 H 0.58353 0.93299 0.29821 0.0
H1068 H 0.55839 0.92849 0.30011 0.0
H1069 H 0.56758 0.92919 0.2757 0.0
C1070 C 0.49566 0.89543 0.29605 0.0
C1071 C 0.49578 0.90752 0.28045 0.0
C1072 C 0.50948 0.88843 0.29734 0.0
C1073 C 0.52367 0.89351 0.28308 0.0
C1074 C 0.52358 0.90539 0.26723 0.0
H1075 H 0.62365 0.86782 0.29069 0.0
H1076 H 0.59938 0.87771 0.27759 0.0
C1077 C 0.50969 0.91241 0.26594 0.0
C1078 C 0.53853 0.88637 0.28519 0.0
H1079 H 0.58832 0.90391 0.29785 0.0
C1080 C 0.53138 0.86469 0.28442 0.0
C1081 C 0.55936 0.90071 0.28966 0.0
C1082 C 0.56777 0.92416 0.29113 0.0
C1083 C 0.54445 0.85696 0.2885 0.0
C1084 C 0.56514 0.87131 0.29386 0.0
C1085 C 0.57243 0.89296 0.2938 0.0
C1086 C 0.57922 0.86427 0.30096 0.0
C1087 C 0.53596 0.8335 0.28721 0.0
C1088 C 0.57595 0.85353 0.31848 0.0
C1089 C 0.58975 0.84791 0.32596 0.0
C1090 C 0.60712 0.85306 0.31614 0.0
C1091 C 0.61034 0.86366 0.29853 0.0
C1092 C 0.59652 0.8693 0.29104 0.0
H1093 H 0.52173 0.82502 0.27709 0.0
H1094 H 0.54688 0.82921 0.28158 0.0
H1095 H 0.53255 0.82804 0.30253 0.0
H1096 H 0.56294 0.84991 0.32663 0.0
H1097 H 0.58698 0.83984 0.33963 0.0
H1098 H 0.07987 0.58849 0.30388 0.0
H1099 H 0.08581 0.62455 0.30648 0.0
H1100 H 0.14329 0.64631 0.28247 0.0
H1101 H 0.1372 0.61022 0.27967 0.0
H1102 H 0.11785 0.65684 0.33079 0.0
H1103 H 0.12041 0.67737 0.25139 0.0
H1104 H 0.10937 0.65055 0.25778 0.0
H1105 H 0.13624 0.66676 0.25812 0.0
C1106 C 0.09349 0.60095 0.29865 0.0
C1107 C 0.10803 0.59681 0.2914 0.0
C1108 C 0.0969 0.62149 0.30019 0.0
C1109 C 0.11489 0.63808 0.29445 0.0
C1110 C 0.12912 0.63371 0.28655 0.0
H1111 H 0.17655 0.77389 0.31197 0.0
H1112 H 0.16604 0.73707 0.30271 0.0
C1113 C 0.12569 0.61317 0.28501 0.0
C1114 C 0.11973 0.66012 0.29882 0.0
H1115 H 0.13283 0.70576 0.27728 0.0
C1116 C 0.12091 0.66748 0.31907 0.0
C1117 C 0.12393 0.67401 0.28352 0.0
C1118 C 0.12227 0.66677 0.26145 0.0
C1119 C 0.12659 0.68848 0.32451 0.0
C1120 C 0.13082 0.70239 0.30923 0.0
C1121 C 0.12956 0.69504 0.28895 0.0
C1122 C 0.13678 0.7247 0.31412 0.0
C1123 C 0.1286 0.69571 0.34666 0.0
C1124 C 0.12368 0.72996 0.32328 0.0
C1125 C 0.12966 0.75096 0.32871 0.0
C1126 C 0.14884 0.76715 0.32494 0.0
C1127 C 0.16174 0.76184 0.31526 0.0
C1128 C 0.15574 0.7408 0.30988 0.0
H1129 H 0.12989 0.68472 0.35663 0.0
H1130 H 0.14198 0.71161 0.35038 0.0
H1131 H 0.11503 0.69649 0.35013 0.0
H1132 H 0.10882 0.71778 0.32631 0.0
H1133 H 0.11923 0.75445 0.33593 0.0
H1134 H 0.85196 0.0513 0.41103 0.0
H1135 H 0.82257 0.01564 0.40573 0.0
H1136 H 0.78587 0.04095 0.38412 0.0
H1137 H 0.81537 0.0766 0.38921 0.0
H1138 H 0.78344 0.99656 0.41992 0.0
H1139 H 0.78102 1.0001 0.3364 0.0
H1140 H 0.80231 0.019 0.35339 0.0
H1141 H 0.77988 0.02081 0.3507 0.0
C1142 C 0.83749 0.04918 0.40551 0.0
C1143 C 0.8357 0.06644 0.40054 0.0
C1144 C 0.82077 0.02889 0.40246 0.0
C1145 C 0.80214 0.02565 0.39424 0.0
C1146 C 0.80019 0.0431 0.39018 0.0
H1147 H 0.69178 0.91034 0.34879 0.0
H1148 H 0.71707 0.94691 0.35953 0.0
C1149 C 0.81694 0.0634 0.39322 0.0
C1150 C 0.78514 0.00397 0.3889 0.0
H1151 H 0.7558 0.9693 0.34861 0.0
C1152 C 0.77733 0.99058 0.40435 0.0
C1153 C 0.77726 0.99625 0.36856 0.0
C1154 C 0.78561 0.00968 0.35125 0.0
C1155 C 0.76173 0.96965 0.39999 0.0
C1156 C 0.75405 0.96184 0.37961 0.0
C1157 C 0.76169 0.97533 0.36421 0.0
C1158 C 0.73848 0.93959 0.3738 0.0
C1159 C 0.75348 0.95615 0.41727 0.0
C1160 C 0.74224 0.92335 0.37805 0.0
C1161 C 0.72783 0.90242 0.37195 0.0
C1162 C 0.70942 0.89732 0.36129 0.0
C1163 C 0.70577 0.91366 0.35695 0.0
C1164 C 0.72019 0.93459 0.3631 0.0
H1165 H 0.75671 0.96585 0.43186 0.0
H1166 H 0.73695 0.94544 0.41441 0.0
H1167 H 0.76068 0.94643 0.41887 0.0
H1168 H 0.75644 0.92687 0.38585 0.0
H1169 H 0.7312 0.89027 0.37551 0.0
H1170 H 0.94527 0.79808 0.39209 0.0
H1171 H 0.97969 0.80577 0.38842 0.0
H1172 H 0.97284 0.7611 0.43127 0.0
H1173 H 0.93798 0.75307 0.43459 0.0
H1174 H 0.01283 0.82083 0.41593 0.0
H1175 H 0.99003 0.74045 0.38224 0.0
H1176 H 0.97211 0.74914 0.38537 0.0
H1177 H 0.98185 0.74196 0.4068 0.0
C1178 C 0.95122 0.79004 0.40082 0.0
C1179 C 0.93921 0.77503 0.41357 0.0
C1180 C 0.97084 0.79443 0.39874 0.0
C1181 C 0.97877 0.78382 0.40936 0.0
C1182 C 0.9669 0.76919 0.42265 0.0
H1183 H 0.09574 0.7937 0.3924 0.0
H1184 H 0.06434 0.786 0.40693 0.0
C1185 C 0.94712 0.76472 0.42467 0.0
C1186 C 0.99927 0.78795 0.40585 0.0
H1187 H 0.02454 0.76559 0.38488 0.0
C1188 C 0.01542 0.8087 0.40933 0.0
C1189 C 0.00264 0.77211 0.39724 0.0
C1190 C 0.98576 0.74968 0.39252 0.0
C1191 C 0.0347 0.81414 0.40392 0.0
C1192 C 0.03786 0.79846 0.39465 0.0
C1193 C 0.02199 0.77756 0.39196 0.0
C1194 C 0.05717 0.80366 0.38642 0.0
C1195 C 0.0515 0.83668 0.40791 0.0
C1196 C 0.06339 0.81598 0.36999 0.0
C1197 C 0.08117 0.82025 0.36159 0.0
C1198 C 0.09302 0.81227 0.3695 0.0
C1199 C 0.08684 0.80002 0.38602 0.0
C1200 C 0.06896 0.79563 0.39433 0.0
H1201 H 0.04809 0.84553 0.41959 0.0
H1202 H 0.06591 0.83754 0.41293 0.0
H1203 H 0.05355 0.84452 0.3937 0.0
H1204 H 0.05431 0.82204 0.36347 0.0
H1205 H 0.08559 0.82971 0.34885 0.0
H1206 H 0.25859 0.18484 0.38605 0.0
H1207 H 0.25226 0.21394 0.38118 0.0
H1208 H 0.1916 0.17581 0.39746 0.0
H1209 H 0.19808 0.14695 0.40261 0.0
H1210 H 0.22368 0.21138 0.35286 0.0
H1211 H 0.20903 0.23173 0.42921 0.0
H1212 H 0.22114 0.21641 0.42519 0.0
H1213 H 0.19419 0.20419 0.42113 0.0
C1214 C 0.24414 0.18301 0.38914 0.0
C1215 C 0.22886 0.16396 0.39494 0.0
C1216 C 0.24049 0.19953 0.38627 0.0
C1217 C 0.22153 0.19714 0.3892 0.0
C1218 C 0.20648 0.17821 0.39559 0.0
H1219 H 0.15738 0.26224 0.36163 0.0
H1220 H 0.16805 0.23737 0.37073 0.0
C1221 C 0.21015 0.16173 0.39848 0.0
C1222 C 0.21681 0.21353 0.38363 0.0
H1223 H 0.19858 0.24449 0.40139 0.0
C1224 C 0.21843 0.21882 0.36353 0.0
C1225 C 0.20984 0.2231 0.39754 0.0
C1226 C 0.20862 0.21873 0.41952 0.0
C1227 C 0.2127 0.23298 0.35681 0.0
C1228 C 0.20544 0.24229 0.37064 0.0
C1229 C 0.20407 0.23723 0.3908 0.0
C1230 C 0.19899 0.2572 0.36444 0.0
C1231 C 0.21388 0.23735 0.33482 0.0
C1232 C 0.21286 0.27657 0.35785 0.0
C1233 C 0.20682 0.29083 0.35256 0.0
C1234 C 0.18678 0.28601 0.35388 0.0
C1235 C 0.17289 0.26647 0.36034 0.0
C1236 C 0.17897 0.25224 0.36563 0.0
H1237 H 0.21522 0.22534 0.32527 0.0
H1238 H 0.20038 0.23782 0.32879 0.0
H1239 H 0.22733 0.25289 0.33343 0.0
H1240 H 0.22845 0.28083 0.35713 0.0
H1241 H 0.21796 0.30576 0.34777 0.0
H1242 H 0.59394 0.50859 0.71923 0.0
H1243 H 0.6279 0.53292 0.71072 0.0
H1244 H 0.6517 0.5341 0.77139 0.0
H1245 H 0.61778 0.50897 0.77981 0.0
H1246 H 0.65574 0.57248 0.72613 0.0
H1247 H 0.68508 0.51816 0.73714 0.0
H1248 H 0.65861 0.50963 0.73634 0.0
H1249 H 0.67494 0.52338 0.759 0.0
C1250 C 0.6064 0.51388 0.73075 0.0
C1251 C 0.60316 0.50657 0.75012 0.0
C1252 C 0.6258 0.52791 0.72589 0.0
C1253 C 0.6424 0.535 0.74028 0.0
C1254 C 0.63917 0.52846 0.7599 0.0
H1255 H 0.76198 0.63912 0.72359 0.0
H1256 H 0.729 0.61655 0.73562 0.0
C1257 C 0.61974 0.5143 0.76477 0.0
C1258 C 0.66301 0.54907 0.73452 0.0
H1259 H 0.70858 0.55263 0.72985 0.0
C1260 C 0.66732 0.56817 0.72698 0.0
C1261 C 0.67799 0.54325 0.73533 0.0
C1262 C 0.67394 0.52241 0.7422 0.0
C1263 C 0.68619 0.58164 0.72026 0.0
C1264 C 0.70133 0.57607 0.72154 0.0
C1265 C 0.69702 0.55695 0.72904 0.0
C1266 C 0.72159 0.58961 0.71471 0.0
C1267 C 0.6895 0.6014 0.7113 0.0
C1268 C 0.7287 0.58176 0.69944 0.0
C1269 C 0.74765 0.59456 0.69273 0.0
C1270 C 0.75977 0.61541 0.70116 0.0
C1271 C 0.75281 0.62315 0.71667 0.0
C1272 C 0.73394 0.61032 0.72348 0.0
H1273 H 0.67503 0.60045 0.70633 0.0
H1274 H 0.69775 0.61495 0.72294 0.0
H1275 H 0.69859 0.60451 0.69813 0.0
H1276 H 0.71947 0.56579 0.69255 0.0
H1277 H 0.75272 0.58821 0.6808 0.0
H1278 H 0.50621 0.11706 0.79012 0.0
H1279 H 0.48019 0.12576 0.78033 0.0
H1280 H 0.47147 0.09491 0.72059 0.0
H1281 H 0.49741 0.08615 0.73023 0.0
H1282 H 0.48155 0.14947 0.74387 0.0
H1283 H 0.41358 0.07016 0.7425 0.0
H1284 H 0.43693 0.0775 0.75726 0.0
H1285 H 0.43456 0.07171 0.73032 0.0
C1286 C 0.49856 0.11193 0.77498 0.0
C1287 C 0.50383 0.10095 0.76092 0.0
C1288 C 0.4838 0.11697 0.76941 0.0
C1289 C 0.47387 0.11083 0.74981 0.0
C1290 C 0.47888 0.09962 0.73584 0.0
H1291 H 0.38284 0.12229 0.68012 0.0
H1292 H 0.40705 0.11297 0.69434 0.0
C1293 C 0.49376 0.09475 0.74133 0.0
C1294 C 0.45887 0.1169 0.74358 0.0
H1295 H 0.40895 0.09678 0.72924 0.0
C1296 C 0.46564 0.13804 0.74082 0.0
C1297 C 0.43821 0.10186 0.73952 0.0
C1298 C 0.43025 0.07902 0.74265 0.0
C1299 C 0.45232 0.1445 0.73347 0.0
C1300 C 0.43158 0.12943 0.72933 0.0
C1301 C 0.42482 0.10831 0.73243 0.0
C1302 C 0.41677 0.13507 0.72103 0.0
C1303 C 0.46074 0.16721 0.72946 0.0
C1304 C 0.41399 0.15042 0.73141 0.0
C1305 C 0.40036 0.15595 0.72315 0.0
C1306 C 0.389 0.14594 0.7046 0.0
C1307 C 0.39144 0.13027 0.69445 0.0
C1308 C 0.40522 0.12491 0.70258 0.0
H1309 H 0.47721 0.17521 0.7281 0.0
H1310 H 0.45322 0.1686 0.71536 0.0
H1311 H 0.45819 0.17564 0.74227 0.0
H1312 H 0.42235 0.15812 0.7459 0.0
H1313 H 0.39869 0.16806 0.73123 0.0
H1314 H 0.90936 0.40792 0.71289 0.0
H1315 H 0.8992 0.37149 0.70198 0.0
H1316 H 0.8762 0.35256 0.75969 0.0
H1317 H 0.886 0.38888 0.77065 0.0
H1318 H 0.9007 0.3361 0.74583 0.0
H1319 H 0.84019 0.32333 0.68746 0.0
H1320 H 0.86432 0.34617 0.6855 0.0
H1321 H 0.85082 0.34485 0.70714 0.0
C1322 C 0.90198 0.39599 0.72321 0.0
C1323 C 0.89838 0.4013 0.74261 0.0
C1324 C 0.89621 0.3752 0.71695 0.0
C1325 C 0.88671 0.35933 0.72994 0.0
C1326 C 0.88347 0.3646 0.74944 0.0
H1327 H 0.82236 0.22399 0.70103 0.0
H1328 H 0.83249 0.26028 0.71251 0.0
C1329 C 0.88918 0.38538 0.7557 0.0
C1330 C 0.88022 0.33723 0.72322 0.0
H1331 H 0.84831 0.2963 0.68869 0.0
C1332 C 0.88923 0.32736 0.73336 0.0
C1333 C 0.8651 0.32586 0.7071 0.0
C1334 C 0.85438 0.33547 0.69623 0.0
C1335 C 0.88374 0.30646 0.72756 0.0
C1336 C 0.86899 0.29528 0.71111 0.0
C1337 C 0.85973 0.30502 0.70119 0.0
C1338 C 0.86291 0.27338 0.70401 0.0
C1339 C 0.89358 0.29641 0.73918 0.0
C1340 C 0.87662 0.26884 0.6952 0.0
C1341 C 0.87089 0.24815 0.68853 0.0
C1342 C 0.85131 0.23162 0.69056 0.0
C1343 C 0.83756 0.23631 0.69925 0.0
C1344 C 0.8433 0.25703 0.70582 0.0
H1345 H 0.90132 0.30549 0.75395 0.0
H1346 H 0.88228 0.2801 0.74197 0.0
H1347 H 0.90495 0.29565 0.73012 0.0
H1348 H 0.89176 0.28132 0.69343 0.0
H1349 H 0.88188 0.24516 0.6819 0.0
H1350 H 0.15125 0.94334 0.62059 0.0
H1351 H 0.17656 0.97961 0.63236 0.0
H1352 H 0.2218 0.97182 0.60394 0.0
H1353 H 0.19662 0.93536 0.5923 0.0
H1354 H 0.21292 0.99446 0.65732 0.0
H1355 H 0.22626 0.02512 0.58158 0.0
H1356 H 0.2046 0.00032 0.58574 0.0
H1357 H 0.22873 0.00234 0.58418 0.0
C1358 C 0.16662 0.94926 0.61695 0.0
C1359 C 0.1719 0.93644 0.60547 0.0
C1360 C 0.18103 0.97003 0.62362 0.0
C1361 C 0.20098 0.97845 0.61883 0.0
C1362 C 0.20639 0.96571 0.60748 0.0
H1363 H 0.30558 0.0935 0.67427 0.0
H1364 H 0.28057 0.057 0.66301 0.0
C1365 C 0.19197 0.94491 0.60082 0.0
C1366 C 0.21613 0.0005 0.62597 0.0
H1367 H 0.24753 0.04837 0.60958 0.0
C1368 C 0.2205 0.00627 0.64691 0.0
C1369 C 0.2258 0.01589 0.61232 0.0
C1370 C 0.22104 0.01074 0.58969 0.0
C1371 C 0.23447 0.02701 0.65459 0.0
C1372 C 0.24446 0.04229 0.64094 0.0
C1373 C 0.23993 0.03657 0.62 0.0
C1374 C 0.2595 0.06439 0.64806 0.0
C1375 C 0.23815 0.03247 0.67722 0.0
C1376 C 0.25609 0.08069 0.6431 0.0
C1377 C 0.27038 0.10161 0.64945 0.0
C1378 C 0.28845 0.10664 0.66078 0.0
C1379 C 0.29181 0.09023 0.66568 0.0
C1380 C 0.27749 0.06932 0.65933 0.0
H1381 H 0.2259 0.02042 0.6853 0.0
H1382 H 0.25247 0.03341 0.68273 0.0
H1383 H 0.23949 0.04797 0.68123 0.0
H1384 H 0.24232 0.07721 0.63433 0.0
H1385 H 0.2673 0.1138 0.64531 0.0
H1386 H 0.06724 0.22285 0.6145 0.0
H1387 H 0.03277 0.20994 0.62314 0.0
H1388 H 0.03094 0.25947 0.59314 0.0
H1389 H 0.06565 0.27285 0.58478 0.0
H1390 H 0.01991 0.23493 0.64646 0.0
H1391 H 0.97825 0.20433 0.57002 0.0
H1392 H 0.00334 0.20863 0.57565 0.0
H1393 H 0.99968 0.23052 0.57229 0.0
C1394 C 0.05956 0.23107 0.60976 0.0
C1395 C 0.06928 0.24898 0.59903 0.0
C1396 C 0.03982 0.22357 0.61461 0.0
C1397 C 0.02929 0.23365 0.60864 0.0
C1398 C 0.03873 0.25128 0.5976 0.0
H1399 H 0.91076 0.21408 0.62889 0.0
H1400 H 0.94411 0.22556 0.61733 0.0
C1401 C 0.05855 0.25888 0.59281 0.0
C1402 C 0.00883 0.22635 0.61497 0.0
H1403 H 0.9594 0.20414 0.59708 0.0
C1404 C 0.00665 0.22813 0.6357 0.0
C1405 C 0.99164 0.21764 0.60084 0.0
C1406 C 0.99319 0.21497 0.57844 0.0
C1407 C 0.98772 0.22167 0.64272 0.0
C1408 C 0.97043 0.21266 0.62863 0.0
C1409 C 0.97265 0.21097 0.60786 0.0
C1410 C 0.94996 0.20512 0.63517 0.0
C1411 C 0.98652 0.22507 0.66511 0.0
C1412 C 0.94198 0.1895 0.64872 0.0
C1413 C 0.92302 0.18306 0.65546 0.0
C1414 C 0.91162 0.19194 0.64856 0.0
C1415 C 0.91931 0.20707 0.63452 0.0
C1416 C 0.93832 0.2136 0.62789 0.0
H1417 H 0.00128 0.2373 0.67286 0.0
H1418 H 0.97517 0.22981 0.66787 0.0
H1419 H 0.98204 0.2102 0.67211 0.0
H1420 H 0.95047 0.18235 0.65414 0.0
H1421 H 0.91734 0.17123 0.66613 0.0
H1422 H 0.78429 0.82316 0.57732 0.0
H1423 H 0.79156 0.79653 0.58915 0.0
H1424 H 0.77858 0.80794 0.64937 0.0
H1425 H 0.77109 0.8344 0.63766 0.0
H1426 H 0.8156 0.80926 0.64787 0.0
H1427 H 0.75313 0.73707 0.60528 0.0
H1428 H 0.7673 0.75819 0.59004 0.0
H1429 H 0.7527 0.7613 0.6087 0.0
C1430 C 0.7826 0.81971 0.59299 0.0
C1431 C 0.77716 0.83094 0.60656 0.0
C1432 C 0.78677 0.8045 0.59972 0.0
C1433 C 0.78546 0.80017 0.6201 0.0
C1434 C 0.77969 0.81106 0.63359 0.0
H1435 H 0.79236 0.6992 0.6748 0.0
H1436 H 0.78229 0.72381 0.66317 0.0
C1437 C 0.7755 0.82623 0.62688 0.0
C1438 C 0.79118 0.78514 0.62766 0.0
H1439 H 0.77912 0.73374 0.62255 0.0
C1440 C 0.8076 0.79273 0.64239 0.0
C1441 C 0.78058 0.76357 0.6206 0.0
C1442 C 0.76233 0.75444 0.60541 0.0
C1443 C 0.81392 0.77937 0.65004 0.0
C1444 C 0.80367 0.75793 0.64259 0.0
C1445 C 0.78704 0.75024 0.6281 0.0
C1446 C 0.80996 0.74319 0.64973 0.0
C1447 C 0.83135 0.78825 0.66623 0.0
C1448 C 0.82882 0.74589 0.64588 0.0
C1449 C 0.83466 0.73188 0.65252 0.0
C1450 C 0.82171 0.71486 0.66308 0.0
C1451 C 0.80277 0.71218 0.66682 0.0
C1452 C 0.79694 0.72619 0.66014 0.0
H1453 H 0.83445 0.80358 0.67364 0.0
H1454 H 0.82836 0.77716 0.67802 0.0
H1455 H 0.84508 0.79076 0.65926 0.0
H1456 H 0.83894 0.75873 0.63757 0.0
H1457 H 0.84926 0.73432 0.64917 0.0
H1458 H 0.06603 0.85992 0.63065 0.0
H1459 H 0.0308 0.83366 0.63355 0.0
H1460 H 0.0381 0.78747 0.59814 0.0
H1461 H 0.07369 0.81381 0.59569 0.0
H1462 H 0.99831 0.80944 0.60603 0.0
H1463 H 0.01865 0.75932 0.64974 0.0
H1464 H 0.0371 0.78551 0.64453 0.0
H1465 H 0.0278 0.76404 0.62513 0.0
C1466 C 0.05997 0.84421 0.62328 0.0
C1467 C 0.07233 0.83872 0.61296 0.0
C1468 C 0.0399 0.82924 0.62494 0.0
C1469 C 0.03188 0.8085 0.61635 0.0
C1470 C 0.04408 0.80326 0.60524 0.0
H1471 H 0.91353 0.70058 0.63245 0.0
H1472 H 0.94589 0.72346 0.61919 0.0
C1473 C 0.06428 0.81828 0.60367 0.0
C1474 C 0.01106 0.79244 0.61995 0.0
H1475 H 0.98417 0.7479 0.64374 0.0
C1476 C 0.9952 0.7959 0.61413 0.0
C1477 C 0.00702 0.77479 0.63059 0.0
C1478 C 0.02352 0.7707 0.63804 0.0
C1479 C 0.9755 0.7824 0.61897 0.0
C1480 C 0.9716 0.7651 0.63002 0.0
C1481 C 0.98727 0.76121 0.63525 0.0
C1482 C 0.95162 0.7515 0.63728 0.0
C1483 C 0.959 0.78681 0.61236 0.0
C1484 C 0.94425 0.7597 0.65192 0.0
C1485 C 0.9259 0.74666 0.65962 0.0
C1486 C 0.91464 0.72522 0.65278 0.0
C1487 C 0.92194 0.71706 0.63799 0.0
C1488 C 0.94037 0.73008 0.6304 0.0
H1489 H 0.96328 0.79738 0.59996 0.0
H1490 H 0.94483 0.77198 0.60717 0.0
H1491 H 0.95601 0.79457 0.62541 0.0
H1492 H 0.95287 0.77612 0.65765 0.0
H1493 H 0.9206 0.75332 0.67102 0.0
H1494 H 0.14892 0.22869 0.64091 0.0
H1495 H 0.17265 0.21571 0.64368 0.0
H1496 H 0.20863 0.25879 0.60142 0.0
H1497 H 0.18491 0.27204 0.59892 0.0
H1498 H 0.18539 0.19739 0.6145 0.0
H1499 H 0.24905 0.27306 0.65071 0.0
H1500 H 0.22348 0.2679 0.6481 0.0
H1501 H 0.23811 0.27446 0.62666 0.0
C1502 C 0.16186 0.23526 0.63215 0.0
C1503 C 0.16529 0.25132 0.61978 0.0
C1504 C 0.17536 0.22785 0.63371 0.0
C1505 C 0.19254 0.23647 0.62298 0.0
C1506 C 0.19565 0.25218 0.61011 0.0
H1507 H 0.29395 0.21402 0.63205 0.0
H1508 H 0.27021 0.22524 0.62084 0.0
C1509 C 0.18211 0.25964 0.60858 0.0
C1510 C 0.20727 0.22921 0.62579 0.0
H1511 H 0.25529 0.24513 0.64498 0.0
C1512 C 0.20072 0.20784 0.62106 0.0
C1513 C 0.22725 0.24288 0.63436 0.0
C1514 C 0.23493 0.26582 0.64043 0.0
C1515 C 0.21356 0.19974 0.6248 0.0
C1516 C 0.23336 0.21331 0.63382 0.0
C1517 C 0.24008 0.23476 0.63808 0.0
C1518 C 0.24717 0.2055 0.63969 0.0
C1519 C 0.20582 0.17674 0.619 0.0
C1520 C 0.24212 0.19073 0.65405 0.0
C1521 C 0.25565 0.1843 0.66046 0.0
C1522 C 0.27451 0.19266 0.65272 0.0
C1523 C 0.2795 0.20732 0.63825 0.0
C1524 C 0.26596 0.21373 0.63184 0.0
H1525 H 0.19287 0.17004 0.60721 0.0
H1526 H 0.21784 0.17424 0.6133 0.0
H1527 H 0.20061 0.16794 0.63255 0.0
H1528 H 0.22788 0.18451 0.66064 0.0
H1529 H 0.25149 0.17306 0.67171 0.0
H1530 H 0.75885 0.92817 0.62836 0.0
H1531 H 0.76156 0.96283 0.63275 0.0
H1532 H 0.81955 0.9909 0.60876 0.0
H1533 H 0.81668 0.95622 0.60417 0.0
H1534 H 0.79169 0.9958 0.65785 0.0
H1535 H 0.79265 0.01917 0.57974 0.0
H1536 H 0.78381 0.9923 0.58501 0.0
H1537 H 0.81036 0.01066 0.58557 0.0
C1538 C 0.77188 0.94172 0.62354 0.0
C1539 C 0.78748 0.93974 0.61575 0.0
C1540 C 0.77346 0.96145 0.6261 0.0
C1541 C 0.79064 0.97941 0.62085 0.0
C1542 C 0.80596 0.97722 0.61246 0.0
H1543 H 0.84575 0.11366 0.64305 0.0
H1544 H 0.83644 0.07744 0.63261 0.0
C1545 C 0.80436 0.95748 0.60991 0.0
C1546 C 0.79358 0.00061 0.62615 0.0
H1547 H 0.80389 0.04653 0.60666 0.0
C1548 C 0.79409 0.00682 0.64664 0.0
C1549 C 0.79686 0.01497 0.6115 0.0
C1550 C 0.79572 0.00891 0.5892 0.0
C1551 C 0.79844 0.02722 0.65298 0.0
C1552 C 0.80199 0.04169 0.63836 0.0
C1553 C 0.80118 0.0354 0.61783 0.0
C1554 C 0.80719 0.06362 0.64421 0.0
C1555 C 0.79993 0.03334 0.67534 0.0
C1556 C 0.7937 0.06788 0.65395 0.0
C1557 C 0.79901 0.08857 0.66007 0.0
C1558 C 0.81788 0.10543 0.65644 0.0
C1559 C 0.83117 0.10109 0.64627 0.0
C1560 C 0.82585 0.08039 0.6402 0.0
H1561 H 0.80163 0.02221 0.68475 0.0
H1562 H 0.81287 0.0494 0.67965 0.0
H1563 H 0.78597 0.03324 0.67896 0.0
H1564 H 0.77905 0.05518 0.65683 0.0
H1565 H 0.7883 0.09132 0.66766 0.0
H1566 H 0.4846 0.41248 0.71732 0.0
H1567 H 0.45507 0.37687 0.71205 0.0
H1568 H 0.49089 0.35174 0.73664 0.0
H1569 H 0.52025 0.38733 0.74214 0.0
H1570 H 0.45331 0.34493 0.68701 0.0
H1571 H 0.43959 0.32079 0.76492 0.0
H1572 H 0.45497 0.34788 0.75981 0.0
H1573 H 0.46519 0.33062 0.7594 0.0
C1574 C 0.48591 0.39933 0.72205 0.0
C1575 C 0.50442 0.40241 0.73031 0.0
C1576 C 0.46914 0.37906 0.71898 0.0
C1577 C 0.47071 0.36168 0.72419 0.0
C1578 C 0.48919 0.36494 0.73296 0.0
H1579 H 0.40066 0.2269 0.70189 0.0
H1580 H 0.42618 0.26362 0.71133 0.0
C1581 C 0.50594 0.38521 0.73604 0.0
C1582 C 0.45368 0.34003 0.71869 0.0
H1583 H 0.42357 0.29337 0.73789 0.0
C1584 C 0.44662 0.33371 0.69815 0.0
C1585 C 0.44508 0.32542 0.73325 0.0
C1586 C 0.45145 0.33155 0.7556 0.0
C1587 C 0.43162 0.31299 0.69169 0.0
C1588 C 0.42325 0.29829 0.70622 0.0
C1589 C 0.43008 0.30467 0.72679 0.0
C1590 C 0.40766 0.2761 0.70031 0.0
C1591 C 0.42534 0.30681 0.66932 0.0
C1592 C 0.38875 0.27095 0.69107 0.0
C1593 C 0.37411 0.24995 0.68556 0.0
C1594 C 0.37809 0.2337 0.6893 0.0
C1595 C 0.39707 0.23897 0.69866 0.0
C1596 C 0.41168 0.25996 0.70415 0.0
H1597 H 0.4364 0.31847 0.65995 0.0
H1598 H 0.42354 0.29118 0.66495 0.0
H1599 H 0.41062 0.30582 0.66575 0.0
H1600 H 0.38524 0.28316 0.68828 0.0
H1601 H 0.35963 0.24651 0.67853 0.0
H1602 H 0.60021 0.07979 0.75773 0.0
H1603 H 0.63463 0.08724 0.75304 0.0
H1604 H 0.64925 0.1476 0.73301 0.0
H1605 H 0.61522 0.14035 0.73818 0.0
H1606 H 0.65127 0.09327 0.71776 0.0
H1607 H 0.69839 0.16415 0.77053 0.0
H1608 H 0.67163 0.14781 0.77194 0.0
H1609 H 0.68111 0.16755 0.75422 0.0
C1610 C 0.61105 0.09484 0.75287 0.0
C1611 C 0.60539 0.10968 0.74856 0.0
C1612 C 0.63061 0.09906 0.75012 0.0
C1613 C 0.64468 0.11816 0.74301 0.0
C1614 C 0.63894 0.13306 0.73909 0.0
H1615 H 0.75421 0.16981 0.68493 0.0
H1616 H 0.72243 0.16101 0.69917 0.0
C1617 C 0.61949 0.12889 0.74194 0.0
C1618 C 0.66464 0.1218 0.73776 0.0
H1619 H 0.71488 0.15829 0.74306 0.0
C1620 C 0.66521 0.1073 0.72358 0.0
C1621 C 0.68286 0.14013 0.74532 0.0
C1622 C 0.6835 0.15567 0.7615 0.0
C1623 C 0.68335 0.1111 0.71609 0.0
C1624 C 0.70138 0.12983 0.72303 0.0
C1625 C 0.70096 0.14403 0.73764 0.0
C1626 C 0.72073 0.13524 0.7148 0.0
C1627 C 0.68304 0.09548 0.70023 0.0
C1628 C 0.73033 0.12376 0.71904 0.0
C1629 C 0.74847 0.12879 0.71099 0.0
C1630 C 0.75725 0.14534 0.69852 0.0
C1631 C 0.74769 0.15691 0.69441 0.0
C1632 C 0.72961 0.15195 0.70256 0.0
H1633 H 0.66747 0.08345 0.69417 0.0
H1634 H 0.69158 0.10366 0.68745 0.0
H1635 H 0.69043 0.08731 0.70699 0.0
H1636 H 0.7238 0.11095 0.72863 0.0
H1637 H 0.7556 0.1197 0.71449 0.0
H1638 H 0.92535 0.52335 0.72018 0.0
H1639 H 0.91823 0.55205 0.71639 0.0
H1640 H 0.8603 0.51483 0.73909 0.0
H1641 H 0.86757 0.48628 0.74307 0.0
H1642 H 0.88602 0.54693 0.69082 0.0
H1643 H 0.88093 0.57282 0.76925 0.0
H1644 H 0.89301 0.55771 0.7638 0.0
H1645 H 0.86603 0.54495 0.76272 0.0
C1646 C 0.91138 0.52165 0.72489 0.0
C1647 C 0.89705 0.50291 0.73211 0.0
C1648 C 0.90728 0.53794 0.72265 0.0
C1649 C 0.88883 0.53566 0.72766 0.0
C1650 C 0.87481 0.51712 0.73556 0.0
H1651 H 0.82643 0.60474 0.70622 0.0
H1652 H 0.83632 0.57937 0.71595 0.0
C1653 C 0.87892 0.50083 0.73779 0.0
C1654 C 0.88338 0.55163 0.72255 0.0
H1655 H 0.86894 0.58521 0.7425 0.0
C1656 C 0.88246 0.55544 0.70214 0.0
C1657 C 0.87852 0.56251 0.73732 0.0
C1658 C 0.87982 0.55947 0.75953 0.0
C1659 C 0.87652 0.56961 0.69603 0.0
C1660 C 0.87174 0.58057 0.71079 0.0
C1661 C 0.87262 0.57677 0.73122 0.0
C1662 C 0.86593 0.59617 0.70526 0.0
C1663 C 0.87493 0.57231 0.67374 0.0
C1664 C 0.87941 0.61414 0.69628 0.0
C1665 C 0.87379 0.6286 0.69059 0.0
C1666 C 0.85461 0.62546 0.69393 0.0
C1667 C 0.84126 0.60759 0.70328 0.0
C1668 C 0.8469 0.5931 0.70893 0.0
H1669 H 0.87384 0.5589 0.66414 0.0
H1670 H 0.8616 0.57385 0.6695 0.0
H1671 H 0.88859 0.58682 0.67031 0.0
H1672 H 0.89432 0.61702 0.69369 0.0
H1673 H 0.88455 0.64226 0.68362 0.0
H1674 H 0.43325 0.9453 0.20833 0.0
H1675 H 0.4448 0.95923 0.17608 0.0
H1676 H 0.48443 0.93365 0.17714 0.0
H1677 H 0.47225 0.91874 0.20896 0.0
H1678 H 0.4825 0.98799 0.16848 0.0
H1679 H 0.45711 0.91392 0.12016 0.0
H1680 H 0.44845 0.91436 0.14482 0.0
H1681 H 0.47267 0.9167 0.14256 0.0
C1682 C 0.44407 0.94218 0.20151 0.0
C1683 C 0.45168 0.93072 0.21122 0.0
C1684 C 0.4508 0.95034 0.18313 0.0
C1685 C 0.46527 0.94725 0.17403 0.0
C1686 C 0.47294 0.93585 0.18365 0.0
H1687 H 0.53399 0.99532 0.0708 0.0
H1688 H 0.5208 0.97955 0.10216 0.0
C1689 C 0.46614 0.92757 0.20199 0.0
C1690 C 0.47301 0.95686 0.155 0.0
H1691 H 0.47922 0.94573 0.10618 0.0
C1692 C 0.48166 0.97873 0.15483 0.0
C1693 C 0.4719 0.94476 0.13718 0.0
C1694 C 0.46186 0.92112 0.13606 0.0
C1695 C 0.48953 0.98884 0.13744 0.0
C1696 C 0.4886 0.97677 0.11974 0.0
C1697 C 0.47995 0.95493 0.11984 0.0
C1698 C 0.49664 0.98657 0.10095 0.0
C1699 C 0.49912 0.01243 0.13821 0.0
C1700 C 0.48738 0.9957 0.08993 0.0
C1701 C 0.49489 0.00471 0.07207 0.0
C1702 C 0.5117 0.00464 0.06494 0.0
C1703 C 0.52107 0.99568 0.07607 0.0
C1704 C 0.51349 0.98657 0.09387 0.0
H1705 H 0.50214 0.0198 0.154 0.0
H1706 H 0.51349 0.01934 0.13098 0.0
H1707 H 0.48885 0.01641 0.1297 0.0
H1708 H 0.47424 0.99569 0.09507 0.0
H1709 H 0.48759 0.01177 0.06384 0.0
H1710 H 0.05687 0.53029 0.23868 0.0
H1711 H 0.04061 0.52603 0.20467 0.0
H1712 H 0.07655 0.50168 0.18045 0.0
H1713 H 0.09326 0.50634 0.21425 0.0
H1714 H 0.0599 0.54407 0.16882 0.0
H1715 H 0.01722 0.45674 0.15997 0.0
H1716 H 0.02745 0.47173 0.18434 0.0
H1717 H 0.04364 0.46857 0.16777 0.0
C1718 C 0.06147 0.5242 0.22611 0.0
C1719 C 0.07634 0.51858 0.22926 0.0
C1720 C 0.05206 0.52165 0.20671 0.0
C1721 C 0.05717 0.51325 0.19013 0.0
C1722 C 0.0721 0.5078 0.19314 0.0
H1723 H 0.03747 0.51764 0.06184 0.0
H1724 H 0.05093 0.5195 0.09658 0.0
C1725 C 0.08161 0.51044 0.21249 0.0
C1726 C 0.0473 0.51071 0.16957 0.0
H1727 H 0.01742 0.47404 0.13069 0.0
C1728 C 0.05053 0.52877 0.16051 0.0
C1729 C 0.03495 0.4907 0.15887 0.0
C1730 C 0.03041 0.47077 0.16823 0.0
C1731 C 0.04214 0.52738 0.14079 0.0
C1732 C 0.0303 0.50742 0.12986 0.0
C1733 C 0.02663 0.48931 0.13909 0.0
C1734 C 0.02191 0.50518 0.10869 0.0
C1735 C 0.04595 0.54726 0.13176 0.0
C1736 C 0.00106 0.49599 0.10392 0.0
C1737 C 0.9933 0.49488 0.08403 0.0
C1738 C 0.00629 0.50278 0.06864 0.0
C1739 C 0.02709 0.51141 0.07338 0.0
C1740 C 0.03483 0.51259 0.09323 0.0
H1741 H 0.05168 0.56076 0.1435 0.0
H1742 H 0.05738 0.55127 0.12071 0.0
H1743 H 0.03197 0.54504 0.12356 0.0
H1744 H 0.99087 0.4901 0.11566 0.0
H1745 H 0.97721 0.48812 0.08076 0.0
H1746 H 0.50708 0.54998 0.22424 0.0
H1747 H 0.50965 0.53848 0.18989 0.0
H1748 H 0.44611 0.51393 0.17536 0.0
H1749 H 0.44347 0.52571 0.20985 0.0
H1750 H 0.48861 0.49762 0.16767 0.0
H1751 H 0.47441 0.55659 0.13268 0.0
H1752 H 0.48097 0.55839 0.15952 0.0
H1753 H 0.45607 0.53942 0.14865 0.0
C1754 C 0.49363 0.5421 0.21375 0.0
C1755 C 0.47511 0.53898 0.21965 0.0
C1756 C 0.4951 0.53544 0.19418 0.0
C1757 C 0.47814 0.5256 0.18003 0.0
C1758 C 0.45943 0.52173 0.18602 0.0
H1759 H 0.48615 0.4764 0.05881 0.0
H1760 H 0.47388 0.47897 0.09168 0.0
C1761 C 0.45791 0.52832 0.20573 0.0
C1762 C 0.48051 0.5203 0.15887 0.0
H1763 H 0.48214 0.53582 0.11108 0.0
C1764 C 0.48692 0.50572 0.15521 0.0
C1765 C 0.47852 0.53111 0.14273 0.0
C1766 C 0.47224 0.54737 0.14597 0.0
C1767 C 0.49184 0.50201 0.13592 0.0
C1768 C 0.49017 0.51309 0.11988 0.0
C1769 C 0.4833 0.5273 0.12342 0.0
C1770 C 0.49697 0.5114 0.09975 0.0
C1771 C 0.49962 0.48698 0.13303 0.0
C1772 C 0.51379 0.52884 0.0933 0.0
C1773 C 0.52068 0.52743 0.07455 0.0
C1774 C 0.51073 0.50862 0.06183 0.0
C1775 C 0.49385 0.49117 0.06823 0.0
C1776 C 0.48697 0.49256 0.08704 0.0
H1777 H 0.50315 0.48235 0.14768 0.0
H1778 H 0.48805 0.47254 0.12376 0.0
H1779 H 0.5134 0.49411 0.12482 0.0
H1780 H 0.5217 0.54352 0.10287 0.0
H1781 H 0.53368 0.54114 0.06992 0.0
H1782 H 0.90621 0.43364 0.81014 0.0
H1783 H 0.92356 0.44698 0.84411 0.0
H1784 H 0.96525 0.50581 0.82188 0.0
H1785 H 0.94812 0.49243 0.78763 0.0
H1786 H 0.96598 0.46107 0.85277 0.0
H1787 H 0.94637 0.52216 0.87477 0.0
H1788 H 0.93159 0.50106 0.85518 0.0
H1789 H 0.95545 0.52265 0.85024 0.0
C1790 C 0.91902 0.44946 0.81246 0.0
C1791 C 0.9259 0.46191 0.79614 0.0
C1792 C 0.92885 0.45708 0.8319 0.0
C1793 C 0.94563 0.47738 0.83549 0.0
C1794 C 0.95216 0.49018 0.81944 0.0
H1795 H 0.03061 0.51514 0.94396 0.0
H1796 H 0.01664 0.51146 0.90886 0.0
C1797 C 0.94234 0.48253 0.79991 0.0
C1798 C 0.95699 0.48436 0.85577 0.0
H1799 H 0.96789 0.51781 0.89823 0.0
C1800 C 0.96656 0.47359 0.86267 0.0
C1801 C 0.95758 0.50061 0.86861 0.0
C1802 C 0.94713 0.51229 0.86199 0.0
C1803 C 0.97647 0.47842 0.88222 0.0
C1804 C 0.977 0.4946 0.89513 0.0
C1805 C 0.96761 0.50555 0.88818 0.0
C1806 C 0.98597 0.49919 0.91639 0.0
C1807 C 0.9857 0.46566 0.88917 0.0
C1808 C 0.97344 0.4941 0.93222 0.0
C1809 C 0.98134 0.49612 0.95219 0.0
C1810 C 0.00196 0.50344 0.95667 0.0
C1811 C 0.01465 0.50939 0.9409 0.0
C1812 C 0.0067 0.50727 0.92088 0.0
H1813 H 0.98092 0.4514 0.87868 0.0
H1814 H 0.00235 0.47545 0.88998 0.0
H1815 H 0.98152 0.46075 0.90454 0.0
H1816 H 0.95739 0.48781 0.92905 0.0
H1817 H 0.97117 0.49133 0.96402 0.0
H1818 H 0.57641 0.4861 0.81534 0.0
H1819 H 0.5639 0.48902 0.84777 0.0
H1820 H 0.50582 0.47021 0.81708 0.0
H1821 H 0.51822 0.46731 0.78456 0.0
H1822 H 0.54875 0.51482 0.85945 0.0
H1823 H 0.49133 0.43076 0.86216 0.0
H1824 H 0.51069 0.43937 0.84486 0.0
H1825 H 0.48888 0.44188 0.8395 0.0
C1826 C 0.56098 0.48262 0.81547 0.0
C1827 C 0.5483 0.47642 0.79735 0.0
C1828 C 0.55384 0.48421 0.83403 0.0
C1829 C 0.53386 0.47956 0.83488 0.0
C1830 C 0.52116 0.47341 0.81684 0.0
H1831 H 0.46744 0.48372 0.93644 0.0
H1832 H 0.4775 0.48055 0.90247 0.0
C1833 C 0.52828 0.47177 0.79826 0.0
C1834 C 0.5266 0.48188 0.8546 0.0
H1835 H 0.49208 0.45486 0.88776 0.0
C1836 C 0.53638 0.5017 0.86566 0.0
C1837 C 0.51039 0.46477 0.86262 0.0
C1838 C 0.49979 0.44294 0.85179 0.0
C1839 C 0.53036 0.50492 0.88448 0.0
C1840 C 0.51431 0.48776 0.89261 0.0
C1841 C 0.50434 0.46799 0.88145 0.0
C1842 C 0.50817 0.48987 0.91302 0.0
C1843 C 0.5411 0.52673 0.89537 0.0
C1844 C 0.5219 0.49571 0.9302 0.0
C1845 C 0.51616 0.49755 0.94946 0.0
C1846 C 0.49667 0.49364 0.95198 0.0
C1847 C 0.48272 0.4872 0.93486 0.0
C1848 C 0.48843 0.48537 0.91551 0.0
H1849 H 0.54889 0.53895 0.88483 0.0
H1850 H 0.53044 0.53009 0.90312 0.0
H1851 H 0.55264 0.52796 0.907 0.0
H1852 H 0.53697 0.49849 0.92875 0.0
H1853 H 0.52671 0.50115 0.96239 0.0
H1854 H 0.56724 0.09543 0.81986 0.0
H1855 H 0.56512 0.07968 0.85208 0.0
H1856 H 0.50264 0.03429 0.83471 0.0
H1857 H 0.50469 0.04974 0.80266 0.0
H1858 H 0.53796 0.07609 0.88167 0.0
H1859 H 0.52653 0.99829 0.85415 0.0
H1860 H 0.53691 0.02054 0.83919 0.0
H1861 H 0.51016 0.00519 0.84058 0.0
C1862 C 0.55318 0.08188 0.82284 0.0
C1863 C 0.5361 0.07386 0.80883 0.0
C1864 C 0.55196 0.07297 0.84123 0.0
C1865 C 0.53378 0.05569 0.84567 0.0
C1866 C 0.51689 0.0474 0.83147 0.0
H1867 H 0.47661 0.00848 0.95196 0.0
H1868 H 0.4895 0.02529 0.92106 0.0
C1869 C 0.51804 0.05637 0.81325 0.0
C1870 C 0.53177 0.04703 0.86562 0.0
H1871 H 0.51657 0.00109 0.88734 0.0
C1872 C 0.53362 0.0598 0.88299 0.0
C1873 C 0.5263 0.02583 0.86734 0.0
C1874 C 0.52504 0.0117 0.84935 0.0
C1875 C 0.52904 0.05158 0.90185 0.0
C1876 C 0.52227 0.03002 0.90327 0.0
C1877 C 0.52154 0.01756 0.88616 0.0
C1878 C 0.51469 0.01987 0.92204 0.0
C1879 C 0.5311 0.06591 0.92005 0.0
C1880 C 0.52428 0.01075 0.93253 0.0
C1881 C 0.51687 0.00104 0.95017 0.0
C1882 C 0.4997 1.0002 0.95743 0.0
C1883 C 0.48987 0.00891 0.94666 0.0
C1884 C 0.49733 0.01869 0.92914 0.0
H1885 H 0.54143 0.08269 0.91782 0.0
H1886 H 0.51611 0.06391 0.9225 0.0
H1887 H 0.53678 0.062 0.93393 0.0
H1888 H 0.53757 0.0113 0.92716 0.0
H1889 H 0.52446 0.99409 0.95806 0.0
H1890 H 0.1519 0.31102 0.56831 0.0
H1891 H 0.16294 0.32788 0.53699 0.0
H1892 H 0.11167 0.27517 0.5029 0.0
H1893 H 0.10044 0.25839 0.53416 0.0
H1894 H 0.17353 0.3157 0.5031 0.0
H1895 H 0.10692 0.32344 0.48335 0.0
H1896 H 0.11175 0.31659 0.50789 0.0
H1897 H 0.10003 0.29679 0.48676 0.0
C1898 C 0.14305 0.30298 0.55411 0.0
C1899 C 0.12523 0.28342 0.55371 0.0
C1900 C 0.14931 0.31269 0.53624 0.0
C1901 C 0.13788 0.30305 0.51764 0.0
C1902 C 0.1204 0.28324 0.51714 0.0
H1903 H 0.15192 0.31004 0.39299 0.0
H1904 H 0.14271 0.30274 0.42741 0.0
C1905 C 0.11405 0.2736 0.535 0.0
C1906 C 0.14451 0.31334 0.49864 0.0
H1907 H 0.12808 0.32731 0.45657 0.0
C1908 C 0.16373 0.31859 0.49311 0.0
C1909 C 0.13179 0.3173 0.48565 0.0
C1910 C 0.11157 0.31344 0.49131 0.0
C1911 C 0.17012 0.32664 0.47449 0.0
C1912 C 0.15698 0.32953 0.46112 0.0
C1913 C 0.13809 0.32505 0.46691 0.0
C1914 C 0.16173 0.33488 0.44019 0.0
C1915 C 0.19049 0.33112 0.46871 0.0
C1916 C 0.17525 0.35551 0.43595 0.0
C1917 C 0.18033 0.35985 0.41607 0.0
C1918 C 0.172 0.34356 0.40031 0.0
C1919 C 0.15827 0.32302 0.40469 0.0
C1920 C 0.15308 0.31877 0.42439 0.0
H1921 H 0.19877 0.32757 0.48062 0.0
H1922 H 0.1887 0.32163 0.45438 0.0
H1923 H 0.1997 0.34794 0.466 0.0
H1924 H 0.18207 0.36814 0.44803 0.0
H1925 H 0.19104 0.37578 0.41312 0.0
H1926 H 0.77249 0.89055 0.54574 0.0
H1927 H 0.75456 0.88611 0.51253 0.0
H1928 H 0.70766 0.82493 0.52527 0.0
H1929 H 0.7254 0.82927 0.55853 0.0
H1930 H 0.74153 0.84994 0.48067 0.0
H1931 H 0.67926 0.85937 0.5085 0.0
H1932 H 0.7031 0.86926 0.52334 0.0
H1933 H 0.68505 0.84166 0.52094 0.0
C1934 C 0.75827 0.87624 0.54153 0.0
C1935 C 0.75033 0.86027 0.55474 0.0
C1936 C 0.74813 0.87368 0.52253 0.0
C1937 C 0.72978 0.85525 0.51655 0.0
C1938 C 0.72176 0.83932 0.5297 0.0
H1939 H 0.66461 0.80888 0.39658 0.0
H1940 H 0.68229 0.81283 0.42984 0.0
C1941 C 0.73196 0.84178 0.54862 0.0
C1942 C 0.71907 0.85259 0.49646 0.0
H1943 H 0.67704 0.85001 0.47347 0.0
C1944 C 0.72744 0.84996 0.47904 0.0
C1945 C 0.70077 0.85274 0.49447 0.0
C1946 C 0.69149 0.85604 0.51275 0.0
C1947 C 0.71783 0.84726 0.45961 0.0
C1948 C 0.69937 0.84714 0.45764 0.0
C1949 C 0.69114 0.85 0.47507 0.0
C1950 C 0.68859 0.84456 0.43758 0.0
C1951 C 0.72764 0.84489 0.44133 0.0
C1952 C 0.68588 0.86088 0.43116 0.0
C1953 C 0.67592 0.85869 0.41217 0.0
C1954 C 0.66849 0.84011 0.39934 0.0
C1955 C 0.67072 0.82357 0.406 0.0
C1956 C 0.68074 0.82579 0.42497 0.0
H1957 H 0.74375 0.84997 0.44516 0.0
H1958 H 0.71974 0.82812 0.43527 0.0
H1959 H 0.72656 0.85415 0.42917 0.0
H1960 H 0.69172 0.87544 0.44073 0.0
H1961 H 0.67436 0.87167 0.40739 0.0
H1962 H 0.10992 0.86232 0.54248 0.0
H1963 H 0.11194 0.84913 0.50834 0.0
H1964 H 0.17557 0.87379 0.52216 0.0
H1965 H 0.17366 0.88683 0.55611 0.0
H1966 H 0.13801 0.87508 0.4788 0.0
H1967 H 0.15336 0.81193 0.49856 0.0
H1968 H 0.14225 0.82253 0.5154 0.0
H1969 H 0.16895 0.8366 0.51345 0.0
C1970 C 0.12426 0.86466 0.53827 0.0
C1971 C 0.14165 0.87568 0.5519 0.0
C1972 C 0.1254 0.8572 0.51879 0.0
C1973 C 0.14387 0.86032 0.51283 0.0
C1974 C 0.16113 0.87098 0.52655 0.0
H1975 H 0.19789 0.87042 0.40251 0.0
H1976 H 0.18615 0.87469 0.43506 0.0
C1977 C 0.16005 0.87857 0.54587 0.0
C1978 C 0.14559 0.85357 0.49196 0.0
H1979 H 0.161 0.82387 0.46559 0.0
C1980 C 0.14273 0.86365 0.47584 0.0
C1981 C 0.15159 0.83853 0.48812 0.0
C1982 C 0.15405 0.8266 0.50476 0.0
C1983 C 0.14673 0.85986 0.45613 0.0
C1984 C 0.15386 0.84575 0.45255 0.0
C1985 C 0.15571 0.83484 0.46844 0.0
C1986 C 0.16061 0.84305 0.4327 0.0
C1987 C 0.14365 0.87125 0.43932 0.0
C1988 C 0.15035 0.82371 0.42081 0.0
C1989 C 0.15706 0.82125 0.40221 0.0
C1990 C 0.1742 0.83803 0.39538 0.0
C1991 C 0.18464 0.85723 0.40747 0.0
C1992 C 0.17786 0.85974 0.42595 0.0
H1993 H 0.13371 0.87754 0.44335 0.0
H1994 H 0.15843 0.88465 0.43638 0.0
H1995 H 0.137 0.86067 0.4251 0.0
H1996 H 0.13713 0.81059 0.42588 0.0
H1997 H 0.14898 0.80619 0.39328 0.0
H1998 H 0.56624 0.76569 0.14411 0.0
H1999 H 0.58228 0.7785 0.17865 0.0
H2000 H 0.62891 0.83503 0.15694 0.0
H2001 H 0.61315 0.8221 0.12222 0.0
H2002 H 0.64357 0.81461 0.18018 0.0
H2003 H 0.58679 0.82448 0.21965 0.0
H2004 H 0.57645 0.79926 0.20558 0.0
H2005 H 0.58656 0.82261 0.19237 0.0
C2006 C 0.57979 0.78096 0.14672 0.0
C2007 C 0.58847 0.79285 0.13043 0.0
C2008 C 0.58882 0.78836 0.1665 0.0
C2009 C 0.60666 0.80783 0.1704 0.0
C2010 C 0.61505 0.82004 0.15427 0.0
H2011 H 0.66645 0.85777 0.29359 0.0
H2012 H 0.65104 0.85481 0.25928 0.0
C2013 C 0.60597 0.81268 0.13447 0.0
C2014 C 0.61754 0.81435 0.19095 0.0
H2015 H 0.61195 0.82238 0.24078 0.0
C2016 C 0.63677 0.8166 0.1934 0.0
C2017 C 0.60874 0.81713 0.20816 0.0
C2018 C 0.58858 0.81596 0.20634 0.0
C2019 C 0.64705 0.82061 0.21267 0.0
C2020 C 0.63775 0.82219 0.22996 0.0
C2021 C 0.61894 0.82093 0.22749 0.0
C2022 C 0.64691 0.82408 0.25072 0.0
C2023 C 0.66769 0.8229 0.21441 0.0
C2024 C 0.64945 0.8077 0.25729 0.0
C2025 C 0.65796 0.80926 0.27687 0.0
C2026 C 0.66397 0.82717 0.29026 0.0
C2027 C 0.6615 0.8436 0.28368 0.0
C2028 C 0.65286 0.842 0.26409 0.0
H2029 H 0.67485 0.82692 0.19996 0.0
H2030 H 0.67772 0.83522 0.22662 0.0
H2031 H 0.66632 0.80778 0.21819 0.0
H2032 H 0.64467 0.79361 0.2473 0.0
H2033 H 0.65962 0.79632 0.2816 0.0
H2034 H 0.18917 0.80087 0.12253 0.0
H2035 H 0.17671 0.80366 0.15504 0.0
H2036 H 0.23402 0.82012 0.18605 0.0
H2037 H 0.24645 0.8168 0.15365 0.0
H2038 H 0.20071 0.79031 0.20467 0.0
H2039 H 0.19345 0.85946 0.18842 0.0
H2040 H 0.18051 0.83747 0.16957 0.0
H2041 H 0.20752 0.85096 0.17358 0.0
C2042 C 0.19907 0.80485 0.13628 0.0
C2043 C 0.21885 0.8087 0.13547 0.0
C2044 C 0.19199 0.80667 0.15482 0.0
C2045 C 0.20455 0.81244 0.17292 0.0
C2046 C 0.22413 0.81581 0.17224 0.0
H2047 H 0.18693 0.85636 0.29015 0.0
H2048 H 0.19954 0.85266 0.2579 0.0
C2049 C 0.23124 0.81403 0.1537 0.0
C2050 C 0.19729 0.81498 0.19256 0.0
H2051 H 0.18008 0.84339 0.21825 0.0
C2052 C 0.19622 0.80192 0.20767 0.0
C2053 C 0.19172 0.83035 0.19653 0.0
C2054 C 0.1935 0.84551 0.18127 0.0
C2055 C 0.18937 0.80357 0.22651 0.0
C2056 C 0.1832 0.81849 0.23022 0.0
C2057 C 0.18462 0.83181 0.21527 0.0
C2058 C 0.17545 0.8207 0.24965 0.0
C2059 C 0.18908 0.78956 0.24241 0.0
C2060 C 0.15757 0.8041 0.25553 0.0
C2061 C 0.15044 0.80617 0.27396 0.0
C2062 C 0.16111 0.82486 0.28681 0.0
C2063 C 0.17871 0.84164 0.28069 0.0
C2064 C 0.18582 0.83959 0.26224 0.0
H2065 H 0.19866 0.78264 0.23904 0.0
H2066 H 0.19434 0.79841 0.25764 0.0
H2067 H 0.17343 0.77648 0.24292 0.0
H2068 H 0.14914 0.78954 0.24585 0.0
H2069 H 0.13679 0.79302 0.27833 0.0
H2070 H 0.2374 0.43374 0.15714 0.0
H2071 H 0.23344 0.41725 0.18904 0.0
H2072 H 0.17364 0.36848 0.16601 0.0
H2073 H 0.1776 0.38465 0.13411 0.0
H2074 H 0.20335 0.41099 0.21486 0.0
H2075 H 0.1987 0.33557 0.19017 0.0
H2076 H 0.209 0.35785 0.17525 0.0
H2077 H 0.18218 0.34099 0.17481 0.0
C2078 C 0.2236 0.41925 0.15874 0.0
C2079 C 0.20779 0.41049 0.14316 0.0
C2080 C 0.22132 0.40992 0.17698 0.0
C2081 C 0.20333 0.39153 0.17981 0.0
C2082 C 0.18777 0.38246 0.16404 0.0
H2083 H 0.14138 0.34074 0.28366 0.0
H2084 H 0.1545 0.3577 0.25285 0.0
C2085 C 0.18999 0.39182 0.14589 0.0
C2086 C 0.20002 0.3827 0.19972 0.0
H2087 H 0.18628 0.33741 0.22218 0.0
C2088 C 0.1999 0.395 0.21654 0.0
C2089 C 0.1957 0.36192 0.20192 0.0
C2090 C 0.19658 0.34836 0.18463 0.0
C2091 C 0.19465 0.38672 0.23527 0.0
C2092 C 0.1892 0.36556 0.23713 0.0
C2093 C 0.19026 0.35357 0.22062 0.0
C2094 C 0.18143 0.35534 0.25582 0.0
C2095 C 0.19471 0.40058 0.25288 0.0
C2096 C 0.19203 0.34799 0.26742 0.0
C2097 C 0.18451 0.33824 0.285 0.0
C2098 C 0.16626 0.3356 0.2911 0.0
C2099 C 0.15551 0.34262 0.27928 0.0
C2100 C 0.16306 0.35244 0.26179 0.0
H2101 H 0.20403 0.41752 0.25059 0.0
H2102 H 0.17907 0.39708 0.25444 0.0
H2103 H 0.2005 0.39758 0.26726 0.0
H2104 H 0.20616 0.34995 0.26297 0.0
H2105 H 0.19293 0.3327 0.29377 0.0
H2106 H 0.76668 0.58494 0.86656 0.0
H2107 H 0.77903 0.59925 0.83455 0.0
H2108 H 0.83647 0.64445 0.86605 0.0
H2109 H 0.82421 0.63033 0.89815 0.0
H2110 H 0.79266 0.64044 0.82529 0.0
H2111 H 0.85237 0.61963 0.81865 0.0
H2112 H 0.83302 0.60781 0.83577 0.0
H2113 H 0.85419 0.63377 0.84229 0.0
C2114 C 0.78196 0.59789 0.86668 0.0
C2115 C 0.79446 0.60648 0.88493 0.0
C2116 C 0.78901 0.606 0.84836 0.0
C2117 C 0.80873 0.62276 0.84788 0.0
C2118 C 0.82134 0.63122 0.866 0.0
H2119 H 0.8742 0.69524 0.75002 0.0
H2120 H 0.86409 0.68207 0.78315 0.0
C2121 C 0.8143 0.62311 0.88434 0.0
C2122 C 0.81568 0.63206 0.82855 0.0
H2123 H 0.85072 0.64173 0.79487 0.0
C2124 C 0.80532 0.64067 0.81861 0.0
C2125 C 0.83228 0.63246 0.81993 0.0
C2126 C 0.84354 0.62277 0.82958 0.0
C2127 C 0.81117 0.64982 0.80034 0.0
C2128 C 0.82764 0.65004 0.7916 0.0
C2129 C 0.83814 0.6416 0.80163 0.0
C2130 C 0.83375 0.65831 0.77171 0.0
C2131 C 0.79983 0.65944 0.79071 0.0
C2132 C 0.82021 0.64912 0.75428 0.0
C2133 C 0.82596 0.65669 0.73549 0.0
C2134 C 0.84529 0.67354 0.73369 0.0
C2135 C 0.85904 0.68243 0.75105 0.0
C2136 C 0.8533 0.67491 0.76993 0.0
H2137 H 0.79166 0.66332 0.8019 0.0
H2138 H 0.81016 0.67396 0.78377 0.0
H2139 H 0.78854 0.64804 0.77861 0.0
H2140 H 0.80529 0.63579 0.75513 0.0
H2141 H 0.81558 0.64875 0.7223 0.0
H2142 H 0.43943 0.22341 0.87928 0.0
H2143 H 0.42187 0.21948 0.846 0.0
H2144 H 0.37591 0.15706 0.85681 0.0
H2145 H 0.39316 0.16098 0.8902 0.0
H2146 H 0.41164 0.18707 0.81341 0.0
H2147 H 0.34455 0.18729 0.84028 0.0
H2148 H 0.36769 0.19697 0.85632 0.0
H2149 H 0.35071 0.1692 0.85128 0.0
C2150 C 0.42546 0.20895 0.87466 0.0
C2151 C 0.41766 0.19252 0.88739 0.0
C2152 C 0.41553 0.20668 0.85562 0.0
C2153 C 0.39752 0.18805 0.84905 0.0
C2154 C 0.38967 0.17165 0.8617 0.0
H2155 H 0.33941 0.14746 0.72514 0.0
H2156 H 0.35667 0.15024 0.75835 0.0
C2157 C 0.39963 0.17385 0.8807 0.0
C2158 C 0.38714 0.18565 0.8288 0.0
H2159 H 0.3439 0.1797 0.80508 0.0
C2160 C 0.39685 0.18549 0.81154 0.0
C2161 C 0.36789 0.18368 0.82647 0.0
C2162 C 0.35709 0.18445 0.84454 0.0
C2163 C 0.38775 0.18331 0.79196 0.0
C2164 C 0.36835 0.18103 0.7896 0.0
C2165 C 0.35871 0.18131 0.8069 0.0
C2166 C 0.35806 0.17916 0.76939 0.0
C2167 C 0.39913 0.18372 0.77402 0.0
C2168 C 0.35276 0.19422 0.76471 0.0
C2169 C 0.34292 0.19262 0.74584 0.0
C2170 C 0.33816 0.17592 0.73128 0.0
C2171 C 0.34321 0.16067 0.73601 0.0
C2172 C 0.35308 0.16227 0.75493 0.0
H2173 H 0.41555 0.19116 0.77837 0.0
H2174 H 0.39359 0.16733 0.76772 0.0
H2175 H 0.39673 0.19231 0.76193 0.0
H2176 H 0.35638 0.20733 0.77565 0.0
H2177 H 0.33918 0.20458 0.7426 0.0
H2178 H 0.80996 0.24089 0.87349 0.0
H2179 H 0.81329 0.23044 0.83895 0.0
H2180 H 0.81021 0.1743 0.85911 0.0
H2181 H 0.80624 0.18443 0.89356 0.0
H2182 H 0.84313 0.22665 0.8266 0.0
H2183 H 0.77307 0.1501 0.80822 0.0
H2184 H 0.77649 0.16781 0.82986 0.0
H2185 H 0.78681 0.15066 0.83115 0.0
C2186 C 0.80964 0.22614 0.87044 0.0
C2187 C 0.80778 0.21343 0.88616 0.0
C2188 C 0.81156 0.22019 0.85072 0.0
C2189 C 0.8118 0.20146 0.84631 0.0
C2190 C 0.80954 0.18853 0.86195 0.0
H2191 H 0.86995 0.183 0.74451 0.0
H2192 H 0.86088 0.18878 0.77811 0.0
C2193 C 0.80734 0.19435 0.88166 0.0
C2194 C 0.81608 0.19646 0.82579 0.0
H2195 H 0.79932 0.15816 0.78646 0.0
C2196 C 0.83345 0.21171 0.81778 0.0
C2197 C 0.80336 0.17708 0.81413 0.0
C2198 C 0.78379 0.16057 0.82118 0.0
C2199 C 0.83861 0.20805 0.79864 0.0
C2200 C 0.82642 0.1883 0.7874 0.0
C2201 C 0.80885 0.17316 0.79521 0.0
C2202 C 0.83143 0.18328 0.7673 0.0
C2203 C 0.85683 0.22562 0.79049 0.0
C2204 C 0.81762 0.1774 0.75016 0.0
C2205 C 0.82268 0.1737 0.73106 0.0
C2206 C 0.84156 0.17575 0.72872 0.0
C2207 C 0.85525 0.18129 0.7459 0.0
C2208 C 0.85013 0.18474 0.76507 0.0
H2209 H 0.86077 0.24122 0.79795 0.0
H2210 H 0.86993 0.22339 0.79349 0.0
H2211 H 0.85429 0.22579 0.77389 0.0
H2212 H 0.80315 0.17627 0.75146 0.0
H2213 H 0.81223 0.17031 0.71806 0.0
H2214 H 0.28989 0.12235 0.4551 0.0
H2215 H 0.30521 0.13612 0.48981 0.0
H2216 H 0.25971 0.15237 0.50071 0.0
H2217 H 0.2442 0.13851 0.46592 0.0
H2218 H 0.31851 0.17881 0.51222 0.0
H2219 H 0.25623 0.10962 0.5434 0.0
H2220 H 0.26145 0.10909 0.51723 0.0
H2221 H 0.24961 0.12341 0.52576 0.0
C2222 C 0.28324 0.129 0.46485 0.0
C2223 C 0.26575 0.12919 0.45789 0.0
C2224 C 0.29206 0.13695 0.48461 0.0
C2225 C 0.28347 0.14507 0.49781 0.0
C2226 C 0.26647 0.14605 0.49072 0.0
H2227 H 0.30823 0.16901 0.62927 0.0
H2228 H 0.29442 0.16632 0.59448 0.0
C2229 C 0.25771 0.13824 0.47086 0.0
C2230 C 0.29168 0.15127 0.5193 0.0
H2231 H 0.28276 0.13434 0.5665 0.0
C2232 C 0.31067 0.16923 0.52416 0.0
C2233 C 0.28135 0.13873 0.53476 0.0
C2234 C 0.26107 0.11904 0.53017 0.0
C2235 C 0.3197 0.17494 0.54418 0.0
C2236 C 0.30966 0.16197 0.55958 0.0
C2237 C 0.29045 0.14427 0.55471 0.0
C2238 C 0.31907 0.16586 0.58067 0.0
C2239 C 0.3398 0.19485 0.54863 0.0
C2240 C 0.33752 0.16651 0.58455 0.0
C2241 C 0.34559 0.16849 0.60447 0.0
C2242 C 0.33529 0.16971 0.62085 0.0
C2243 C 0.31686 0.16901 0.61698 0.0
C2244 C 0.30884 0.16716 0.59708 0.0
H2245 H 0.34215 0.20617 0.53721 0.0
H2246 H 0.34118 0.20261 0.56391 0.0
H2247 H 0.35199 0.19099 0.54804 0.0
H2248 H 0.3454 0.16486 0.57219 0.0
H2249 H 0.35969 0.16867 0.60706 0.0
H2250 H 0.85539 0.13459 0.45585 0.0
H2251 H 0.84437 0.13929 0.48861 0.0
H2252 H 0.90047 0.15073 0.51863 0.0
H2253 H 0.9114 0.14543 0.48595 0.0
H2254 H 0.86673 0.12346 0.53788 0.0
H2255 H 0.86543 0.1959 0.5219 0.0
H2256 H 0.85086 0.17414 0.50315 0.0
H2257 H 0.87773 0.18547 0.50664 0.0
C2258 C 0.86532 0.13788 0.46943 0.0
C2259 C 0.88432 0.13971 0.46825 0.0
C2260 C 0.85908 0.14081 0.48812 0.0
C2261 C 0.87174 0.14573 0.50601 0.0
C2262 C 0.89054 0.14713 0.50498 0.0
H2263 H 0.8553 0.19275 0.62273 0.0
H2264 H 0.86852 0.18836 0.59112 0.0
C2265 C 0.8968 0.14422 0.48628 0.0
C2266 C 0.8653 0.14927 0.52581 0.0
H2267 H 0.85074 0.18012 0.5515 0.0
C2268 C 0.86331 0.1359 0.54091 0.0
C2269 C 0.86115 0.16571 0.52983 0.0
C2270 C 0.86407 0.18127 0.51462 0.0
C2271 C 0.85678 0.13819 0.55974 0.0
C2272 C 0.85184 0.15409 0.56344 0.0
C2273 C 0.85433 0.1678 0.54855 0.0
C2274 C 0.84395 0.15668 0.58264 0.0
C2275 C 0.85543 0.12372 0.5756 0.0
C2276 C 0.82563 0.14049 0.58818 0.0
C2277 C 0.81819 0.14294 0.60626 0.0
C2278 C 0.82896 0.16163 0.6191 0.0
C2279 C 0.84703 0.17801 0.61334 0.0
C2280 C 0.85447 0.17557 0.59523 0.0
H2281 H 0.8647 0.11636 0.57254 0.0
H2282 H 0.86042 0.1323 0.59096 0.0
H2283 H 0.83955 0.11095 0.57557 0.0
H2284 H 0.81704 0.12597 0.57847 0.0
H2285 H 0.80417 0.13009 0.61034 0.0
H2286 H 0.90194 0.76143 0.48594 0.0
H2287 H 0.89998 0.74623 0.51846 0.0
H2288 H 0.83743 0.70069 0.50159 0.0
H2289 H 0.83932 0.71563 0.46927 0.0
H2290 H 0.87291 0.7434 0.54786 0.0
H2291 H 0.86125 0.66505 0.52226 0.0
H2292 H 0.87166 0.68691 0.50681 0.0
H2293 H 0.8449 0.67169 0.50825 0.0
C2294 C 0.8879 0.74795 0.48909 0.0
C2295 C 0.87075 0.73976 0.47516 0.0
C2296 C 0.88678 0.73935 0.50764 0.0
C2297 C 0.86861 0.7222 0.51232 0.0
C2298 C 0.85167 0.7137 0.49817 0.0
H2299 H 0.81025 0.67671 0.61814 0.0
H2300 H 0.82372 0.69319 0.58723 0.0
C2301 C 0.85273 0.72236 0.47979 0.0
C2302 C 0.86664 0.71401 0.53249 0.0
H2303 H 0.85113 0.66858 0.55522 0.0
C2304 C 0.86851 0.72715 0.54956 0.0
C2305 C 0.86107 0.69286 0.5347 0.0
C2306 C 0.85978 0.67834 0.51706 0.0
C2307 C 0.8638 0.71934 0.56857 0.0
C2308 C 0.85691 0.69784 0.57045 0.0
C2309 C 0.8562 0.68501 0.55367 0.0
C2310 C 0.8491 0.6881 0.58932 0.0
C2311 C 0.86581 0.73403 0.58641 0.0
C2312 C 0.85867 0.67936 0.60046 0.0
C2313 C 0.85095 0.66988 0.61811 0.0
C2314 C 0.83348 0.66888 0.62472 0.0
C2315 C 0.82373 0.67728 0.61334 0.0
C2316 C 0.83151 0.68685 0.59581 0.0
H2317 H 0.87608 0.75073 0.58388 0.0
H2318 H 0.85079 0.73201 0.58873 0.0
H2319 H 0.87153 0.73045 0.60048 0.0
H2320 H 0.87214 0.67996 0.59556 0.0
H2321 H 0.85847 0.66313 0.62645 0.0
loop_
_geom_bond_atom_site_label_1
_geom_bond_atom_site_label_2
_geom_bond_distance
_geom_bond_site_symmetry_2
_ccdc_geom_bond_type
H0 C3 0.929 . S
H1 C6 0.929 . S
H2 C8 0.930 . S
C3 H0 0.929 . S
C3 C4 1.398 . S
C3 C5 1.396 . S
C4 C3 1.398 . S
C4 C8 1.407 . S
C5 C3 1.396 . S
C5 C6 1.394 . S
C6 H1 0.929 . S
C6 C5 1.394 . S
C6 C7 1.382 . S
C7 C6 1.382 . S
C7 C8 1.392 . S
C7 N9 1.420 . S
C8 H2 0.930 . S
C8 C4 1.407 . S
C8 C7 1.392 . S
N9 C7 1.420 . S
N9 C10 1.244 . S
C10 N9 1.244 . S
H11 C14 0.929 . S
H12 C17 0.929 . S
H13 C19 0.930 . S
C14 H11 0.929 . S
C14 C15 1.398 . S
C14 C16 1.396 . S
C15 C14 1.398 . S
C15 C19 1.407 . S
C16 C14 1.396 . S
C16 C17 1.394 . S
C17 H12 0.929 . S
C17 C16 1.394 . S
C17 C18 1.382 . S
C18 C17 1.382 . S
C18 C19 1.392 . S
C18 N20 1.420 . S
C19 H13 0.930 . S
C19 C15 1.407 . S
C19 C18 1.392 . S
N20 C18 1.420 . S
N20 C21 1.244 . S
C21 N20 1.244 . S
H22 C25 0.929 . S
H23 C28 0.929 . S
H24 C30 0.930 . S
C25 H22 0.929 . S
C25 C26 1.398 . S
C25 C27 1.396 . S
C26 C25 1.398 . S
C26 C30 1.407 . S
C27 C25 1.396 . S
C27 C28 1.394 . S
C28 H23 0.929 . S
C28 C27 1.394 . S
C28 C29 1.382 . S
C29 C28 1.382 . S
C29 C30 1.392 . S
C29 N31 1.420 . S
C30 H24 0.930 . S
C30 C26 1.407 . S
C30 C29 1.392 . S
N31 C29 1.420 . S
N31 C32 1.244 . S
C32 N31 1.244 . S
H33 C36 0.929 . S
H34 C39 0.929 . S
H35 C41 0.930 . S
C36 H33 0.929 . S
C36 C37 1.398 . S
C36 C38 1.396 . S
C37 C36 1.398 . S
C37 C41 1.407 . S
C38 C36 1.396 . S
C38 C39 1.394 . S
C39 H34 0.929 . S
C39 C38 1.394 . S
C39 C40 1.382 . S
C40 C39 1.382 . S
C40 C41 1.392 . S
C40 N42 1.420 . S
C41 H35 0.930 . S
C41 C37 1.407 . S
C41 C40 1.392 . S
N42 C40 1.420 . S
N42 C43 1.244 . S
C43 N42 1.244 . S
H44 C47 0.929 . S
H45 C50 0.929 . S
H46 C52 0.930 . S
C47 H44 0.929 . S
C47 C48 1.398 . S
C47 C49 1.396 . S
C48 C47 1.398 . S
C48 C52 1.407 . S
C49 C47 1.396 . S
C49 C50 1.394 . S
C50 H45 0.929 . S
C50 C49 1.394 . S
C50 C51 1.382 . S
C51 C50 1.382 . S
C51 C52 1.392 . S
C51 N53 1.420 . S
C52 H46 0.930 . S
C52 C48 1.407 . S
C52 C51 1.392 . S
N53 C51 1.420 . S
N53 C54 1.244 . S
C54 N53 1.244 . S
H55 C58 0.929 . S
H56 C61 0.929 . S
H57 C63 0.930 . S
C58 H55 0.929 . S
C58 C59 1.398 . S
C58 C60 1.396 . S
C59 C58 1.398 . S
C59 C63 1.407 . S
C60 C58 1.396 . S
C60 C61 1.394 . S
C61 H56 0.929 . S
C61 C60 1.394 . S
C61 C62 1.382 . S
C62 C61 1.382 . S
C62 C63 1.392 . S
C62 N64 1.420 . S
C63 H57 0.930 . S
C63 C59 1.407 . S
C63 C62 1.392 . S
N64 C62 1.420 . S
N64 C65 1.244 . S
C65 N64 1.244 . S
H66 C69 0.929 . S
H67 C72 0.929 . S
H68 C74 0.930 . S
C69 H66 0.929 . S
C69 C70 1.398 . S
C69 C71 1.396 . S
C70 C69 1.398 . S
C70 C74 1.407 . S
C71 C69 1.396 . S
C71 C72 1.394 . S
C72 H67 0.929 . S
C72 C71 1.394 . S
C72 C73 1.382 . S
C73 C72 1.382 . S
C73 C74 1.392 . S
C73 N75 1.420 . S
C74 H68 0.930 . S
C74 C70 1.407 . S
C74 C73 1.392 . S
N75 C73 1.420 . S
N75 C76 1.244 . S
C76 N75 1.244 . S
H77 C80 0.929 . S
H78 C83 0.929 . S
H79 C85 0.930 . S
C80 H77 0.929 . S
C80 C81 1.398 . S
C80 C82 1.396 . S
C81 C80 1.398 . S
C81 C85 1.407 . S
C82 C80 1.396 . S
C82 C83 1.394 . S
C83 H78 0.929 . S
C83 C82 1.394 . S
C83 C84 1.382 . S
C84 C83 1.382 . S
C84 C85 1.392 . S
C84 N86 1.420 . S
C85 H79 0.930 . S
C85 C81 1.407 . S
C85 C84 1.392 . S
N86 C84 1.420 . S
N86 C87 1.244 . S
C87 N86 1.244 . S
H88 C91 0.929 . S
H89 C94 0.929 . S
H90 C96 0.930 . S
C91 H88 0.929 . S
C91 C92 1.398 . S
C91 C93 1.396 . S
C92 C91 1.398 . S
C92 C96 1.407 . S
C93 C91 1.396 . S
C93 C94 1.394 . S
C94 H89 0.929 . S
C94 C93 1.394 . S
C94 C95 1.382 . S
C95 C94 1.382 . S
C95 C96 1.392 . S
C95 N97 1.420 . S
C96 H90 0.930 . S
C96 C92 1.407 . S
C96 C95 1.392 . S
N97 C95 1.420 . S
N97 C98 1.244 . S
C98 N97 1.244 . S
H99 C102 0.929 . S
H100 C105 0.929 . S
H101 C107 0.930 . S
C102 H99 0.929 . S
C102 C103 1.398 . S
C102 C104 1.396 . S
C103 C102 1.398 . S
C103 C107 1.407 . S
C104 C102 1.396 . S
C104 C105 1.394 . S
C105 H100 0.929 . S
C105 C104 1.394 . S
C105 C106 1.382 . S
C106 C105 1.382 . S
C106 C107 1.392 . S
C106 N108 1.420 . S
C107 H101 0.930 . S
C107 C103 1.407 . S
C107 C106 1.392 . S
N108 C106 1.420 . S
N108 C109 1.244 . S
C109 N108 1.244 . S
H110 C113 0.929 . S
H111 C116 0.929 . S
H112 C118 0.930 . S
C113 H110 0.929 . S
C113 C114 1.398 . S
C113 C115 1.396 . S
C114 C113 1.398 . S
C114 C118 1.407 . S
C115 C113 1.396 . S
C115 C116 1.394 . S
C116 H111 0.929 . S
C116 C115 1.394 . S
C116 C117 1.382 . S
C117 C116 1.382 . S
C117 C118 1.392 . S
C117 N119 1.420 . S
C118 H112 0.930 . S
C118 C114 1.407 . S
C118 C117 1.392 . S
N119 C117 1.420 . S
N119 C120 1.244 . S
C120 N119 1.244 . S
H121 C124 0.929 . S
H122 C127 0.929 . S
H123 C129 0.930 . S
C124 H121 0.929 . S
C124 C125 1.398 . S
C124 C126 1.396 . S
C125 C124 1.398 . S
C125 C129 1.407 . S
C126 C124 1.396 . S
C126 C127 1.394 . S
C127 H122 0.929 . S
C127 C126 1.394 . S
C127 C128 1.382 . S
C128 C127 1.382 . S
C128 C129 1.392 . S
C128 N130 1.420 . S
C129 H123 0.930 . S
C129 C125 1.407 . S
C129 C128 1.392 . S
N130 C128 1.420 . S
N130 C131 1.244 . S
C131 N130 1.244 . S
H132 C135 0.929 . S
H133 C138 0.929 . S
H134 C140 0.930 . S
C135 H132 0.929 . S
C135 C136 1.398 . S
C135 C137 1.396 . S
C136 C135 1.398 . S
C136 C140 1.407 . S
C137 C135 1.396 . S
C137 C138 1.394 . S
C138 H133 0.929 . S
C138 C137 1.394 . S
C138 C139 1.382 . S
C139 C138 1.382 . S
C139 C140 1.392 . S
C139 N141 1.420 . S
C140 H134 0.930 . S
C140 C136 1.407 . S
C140 C139 1.392 . S
N141 C139 1.420 . S
N141 C142 1.244 . S
C142 N141 1.244 . S
H143 C146 0.929 . S
H144 C149 0.929 . S
H145 C151 0.930 . S
C146 H143 0.929 . S
C146 C147 1.398 . S
C146 C148 1.396 . S
C147 C146 1.398 . S
C147 C151 1.407 . S
C148 C146 1.396 . S
C148 C149 1.394 . S
C149 H144 0.929 . S
C149 C148 1.394 . S
C149 C150 1.382 . S
C150 C149 1.382 . S
C150 C151 1.392 . S
C150 N152 1.420 . S
C151 H145 0.930 . S
C151 C147 1.407 . S
C151 C150 1.392 . S
N152 C150 1.420 . S
N152 C153 1.244 . S
C153 N152 1.244 . S
H154 C157 0.929 . S
H155 C160 0.929 . S
H156 C162 0.930 . S
C157 H154 0.929 . S
C157 C158 1.398 . S
C157 C159 1.396 . S
C158 C157 1.398 . S
C158 C162 1.407 . S
C159 C157 1.396 . S
C159 C160 1.394 . S
C160 H155 0.929 . S
C160 C159 1.394 . S
C160 C161 1.382 . S
C161 C160 1.382 . S
C161 C162 1.392 . S
C161 N163 1.420 . S
C162 H156 0.930 . S
C162 C158 1.407 . S
C162 C161 1.392 . S
N163 C161 1.420 . S
N163 C164 1.244 . S
C164 N163 1.244 . S
H165 C168 0.929 . S
H166 C171 0.929 . S
H167 C173 0.930 . S
C168 H165 0.929 . S
C168 C169 1.398 . S
C168 C170 1.396 . S
C169 C168 1.398 . S
C169 C173 1.407 . S
C170 C168 1.396 . S
C170 C171 1.394 . S
C171 H166 0.929 . S
C171 C170 1.394 . S
C171 C172 1.382 . S
C172 C171 1.382 . S
C172 C173 1.392 . S
C172 N174 1.420 . S
C173 H167 0.930 . S
C173 C169 1.407 . S
C173 C172 1.392 . S
N174 C172 1.420 . S
N174 C175 1.244 . S
C175 N174 1.244 . S
H176 C179 0.929 . S
H177 C182 0.929 . S
H178 C184 0.930 . S
C179 H176 0.929 . S
C179 C180 1.398 . S
C179 C181 1.396 . S
C180 C179 1.398 . S
C180 C184 1.407 . S
C181 C179 1.396 . S
C181 C182 1.394 . S
C182 H177 0.929 . S
C182 C181 1.394 . S
C182 C183 1.382 . S
C183 C182 1.382 . S
C183 C184 1.392 . S
C183 N185 1.420 . S
C184 H178 0.930 . S
C184 C180 1.407 . S
C184 C183 1.392 . S
N185 C183 1.420 . S
N185 C186 1.244 . S
C186 N185 1.244 . S
H187 C190 0.929 . S
H188 C193 0.929 . S
H189 C195 0.930 . S
C190 H187 0.929 . S
C190 C191 1.398 . S
C190 C192 1.396 . S
C191 C190 1.398 . S
C191 C195 1.407 . S
C192 C190 1.396 . S
C192 C193 1.394 . S
C193 H188 0.929 . S
C193 C192 1.394 . S
C193 C194 1.382 . S
C194 C193 1.382 . S
C194 C195 1.392 . S
C194 N196 1.420 . S
C195 H189 0.930 . S
C195 C191 1.407 . S
C195 C194 1.392 . S
N196 C194 1.420 . S
N196 C197 1.244 . S
C197 N196 1.244 . S
Tb198 O201 2.453 . S
Tb198 O202 2.596 1_545 S
Tb198 O203 2.374 1_545 S
Tb198 O211 2.343 1_554 S
Tb198 O213 2.353 . S
Tb198 O215 2.427 . S
Tb198 O216 2.536 . S
C199 O203 1.251 . S
C199 O205 1.247 1_554 S
Tb200 O202 2.343 1_556 S
Tb200 O205 2.357 . S
Tb200 O208 2.427 1_556 S
Tb200 O209 2.513 1_556 S
Tb200 O210 2.453 . S
Tb200 O211 2.596 1_565 S
Tb200 O212 2.371 1_566 S
O201 Tb198 2.453 . S
O201 C217 1.245 1_545 S
O202 Tb198 2.596 1_565 S
O202 Tb200 2.343 1_554 S
O202 C217 1.259 . S
O203 Tb198 2.374 1_565 S
O203 C199 1.251 . S
C204 O208 1.275 . S
C204 O209 1.246 . S
O205 C199 1.247 1_556 S
O205 Tb200 2.357 . S
C206 O210 1.245 1_545 S
C206 O211 1.259 . S
C207 O212 1.255 . S
C207 O213 1.263 . S
O208 Tb200 2.427 1_554 S
O208 C204 1.275 . S
O209 Tb200 2.513 1_554 S
O209 C204 1.246 . S
O210 Tb200 2.453 . S
O210 C206 1.245 1_565 S
O211 Tb198 2.343 1_556 S
O211 Tb200 2.596 1_545 S
O211 C206 1.259 . S
O212 Tb200 2.371 1_544 S
O212 C207 1.255 . S
O213 Tb198 2.353 . S
O213 C207 1.263 . S
C214 O215 1.275 1_556 S
C214 O216 1.239 1_556 S
O215 Tb198 2.427 . S
O215 C214 1.275 1_554 S
O216 Tb198 2.536 . S
O216 C214 1.239 1_554 S
C217 O201 1.245 1_565 S
C217 O202 1.259 . S
Tb218 O221 2.453 . S
Tb218 O222 2.596 1_655 S
Tb218 O223 2.374 1_655 S
Tb218 O231 2.343 1_554 S
Tb218 O233 2.353 . S
Tb218 O235 2.427 1_554 S
Tb218 O236 2.513 1_554 S
C219 O223 1.251 . S
C219 O225 1.263 . S
Tb220 O222 2.343 1_556 S
Tb220 O225 2.353 1_556 S
Tb220 O228 2.427 1_556 S
Tb220 O229 2.513 1_556 S
Tb220 O230 2.453 . S
Tb220 O231 2.596 1_455 S
Tb220 O232 2.381 1_455 S
O221 Tb218 2.453 . S
O221 C237 1.245 1_655 S
O222 Tb218 2.596 1_455 S
O222 Tb220 2.343 1_554 S
O222 C237 1.259 . S
O223 Tb218 2.374 1_455 S
O223 C219 1.251 . S
C224 O228 1.275 . S
C224 O229 1.246 . S
O225 C219 1.263 . S
O225 Tb220 2.353 1_554 S
C226 O230 1.245 1_655 S
C226 O231 1.259 . S
C227 O232 1.241 1_554 S
C227 O233 1.263 . S
O228 Tb220 2.427 1_554 S
O228 C224 1.275 . S
O229 Tb220 2.513 1_554 S
O229 C224 1.246 . S
O230 Tb220 2.453 . S
O230 C226 1.245 1_455 S
O231 Tb218 2.343 1_556 S
O231 Tb220 2.596 1_655 S
O231 C226 1.259 . S
O232 Tb220 2.381 1_655 S
O232 C227 1.241 1_556 S
O233 Tb218 2.353 . S
O233 C227 1.263 . S
C234 O235 1.275 . S
C234 O236 1.246 . S
O235 Tb218 2.427 1_556 S
O235 C234 1.275 . S
O236 Tb218 2.513 1_556 S
O236 C234 1.246 . S
C237 O221 1.245 1_455 S
C237 O222 1.259 . S
Tb238 O241 2.432 1_554 S
Tb238 O242 2.590 1_554 S
Tb238 O243 2.377 . S
Tb238 O251 2.362 . S
Tb238 O253 2.354 . S
Tb238 O255 2.439 . S
Tb238 O256 2.528 . S
C239 O243 1.251 . S
C239 O245 1.263 . S
Tb240 O242 2.343 1_554 S
Tb240 O245 2.353 . S
Tb240 O248 2.427 . S
Tb240 O249 2.540 . S
Tb240 O250 2.453 . S
Tb240 O251 2.596 . S
Tb240 O252 2.374 . S
O241 Tb238 2.432 1_556 S
O241 C257 1.245 . S
O242 Tb238 2.590 1_556 S
O242 Tb240 2.343 1_556 S
O242 C257 1.259 . S
O243 Tb238 2.377 . S
O243 C239 1.251 . S
C244 O248 1.275 1_556 S
C244 O249 1.239 1_556 S
O245 C239 1.263 . S
O245 Tb240 2.353 . S
C246 O250 1.245 . S
C246 O251 1.259 . S
C247 O252 1.250 . S
C247 O253 1.263 . S
O248 Tb240 2.427 . S
O248 C244 1.275 1_554 S
O249 Tb240 2.540 . S
O249 C244 1.239 1_554 S
O250 Tb240 2.453 . S
O250 C246 1.245 . S
O251 Tb238 2.362 . S
O251 Tb240 2.596 . S
O251 C246 1.259 . S
O252 Tb240 2.374 . S
O252 C247 1.250 . S
O253 Tb238 2.354 . S
O253 C247 1.263 . S
C254 O255 1.275 . S
C254 O256 1.246 . S
O255 Tb238 2.439 . S
O255 C254 1.275 . S
O256 Tb238 2.528 . S
O256 C254 1.246 . S
C257 O241 1.245 . S
C257 O242 1.259 . S
Tb258 O261 2.453 . S
Tb258 O262 2.596 . S
Tb258 O263 2.374 . S
Tb258 O271 2.343 . S
Tb258 O273 2.353 . S
Tb258 O275 2.427 . S
Tb258 O276 2.513 . S
C259 O263 1.251 . S
C259 O265 1.263 . S
Tb260 O262 2.343 . S
Tb260 O265 2.353 . S
Tb260 O268 2.427 . S
Tb260 O269 2.513 . S
Tb260 O270 2.453 . S
Tb260 O271 2.596 . S
Tb260 O272 2.374 . S
O261 Tb258 2.453 . S
O261 C277 1.245 . S
O262 Tb258 2.596 . S
O262 Tb260 2.343 . S
O262 C277 1.259 . S
O263 Tb258 2.374 . S
O263 C259 1.251 . S
C264 O268 1.275 . S
C264 O269 1.246 . S
O265 C259 1.263 . S
O265 Tb260 2.353 . S
C266 O270 1.245 . S
C266 O271 1.259 . S
C267 O272 1.250 . S
C267 O273 1.263 . S
O268 Tb260 2.427 . S
O268 C264 1.275 . S
O269 Tb260 2.513 . S
O269 C264 1.246 . S
O270 Tb260 2.453 . S
O270 C266 1.245 . S
O271 Tb258 2.343 . S
O271 Tb260 2.596 . S
O271 C266 1.259 . S
O272 Tb260 2.374 . S
O272 C267 1.250 . S
O273 Tb258 2.353 . S
O273 C267 1.263 . S
C274 O275 1.275 . S
C274 O276 1.246 . S
O275 Tb258 2.427 . S
O275 C274 1.275 . S
O276 Tb258 2.513 . S
O276 C274 1.246 . S
C277 O261 1.245 . S
C277 O262 1.259 . S
Tb278 O281 2.453 . S
Tb278 O282 2.596 . S
Tb278 O283 2.374 . S
Tb278 O291 2.343 . S
Tb278 O293 2.353 . S
Tb278 O295 2.427 . S
Tb278 O296 2.513 . S
C279 O283 1.251 . S
C279 O285 1.263 . S
Tb280 O282 2.343 . S
Tb280 O285 2.353 . S
Tb280 O288 2.427 . S
Tb280 O289 2.513 . S
Tb280 O290 2.453 . S
Tb280 O291 2.596 . S
Tb280 O292 2.374 . S
O281 Tb278 2.453 . S
O281 C297 1.245 . S
O282 Tb278 2.596 . S
O282 Tb280 2.343 . S
O282 C297 1.259 . S
O283 Tb278 2.374 . S
O283 C279 1.251 . S
C284 O288 1.275 . S
C284 O289 1.246 . S
O285 C279 1.263 . S
O285 Tb280 2.353 . S
C286 O290 1.245 . S
C286 O291 1.259 . S
C287 O292 1.250 . S
C287 O293 1.263 . S
O288 Tb280 2.427 . S
O288 C284 1.275 . S
O289 Tb280 2.513 . S
O289 C284 1.246 . S
O290 Tb280 2.453 . S
O290 C286 1.245 . S
O291 Tb278 2.343 . S
O291 Tb280 2.596 . S
O291 C286 1.259 . S
O292 Tb280 2.374 . S
O292 C287 1.250 . S
O293 Tb278 2.353 . S
O293 C287 1.263 . S
C294 O295 1.275 . S
C294 O296 1.246 . S
O295 Tb278 2.427 . S
O295 C294 1.275 . S
O296 Tb278 2.513 . S
O296 C294 1.246 . S
C297 O281 1.245 . S
C297 O282 1.259 . S
Tb298 O301 2.453 . S
Tb298 O302 2.596 . S
Tb298 O303 2.374 . S
Tb298 O311 2.343 . S
Tb298 O313 2.353 . S
Tb298 O315 2.427 . S
Tb298 O316 2.513 . S
C299 O303 1.251 . S
C299 O305 1.263 . S
Tb300 O302 2.343 . S
Tb300 O305 2.353 . S
Tb300 O308 2.427 . S
Tb300 O309 2.513 . S
Tb300 O310 2.453 . S
Tb300 O311 2.596 . S
Tb300 O312 2.374 . S
O301 Tb298 2.453 . S
O301 C317 1.245 . S
O302 Tb298 2.596 . S
O302 Tb300 2.343 . S
O302 C317 1.259 . S
O303 Tb298 2.374 . S
O303 C299 1.251 . S
C304 O308 1.275 . S
C304 O309 1.246 . S
O305 C299 1.263 . S
O305 Tb300 2.353 . S
C306 O310 1.245 . S
C306 O311 1.259 . S
C307 O312 1.250 . S
C307 O313 1.263 . S
O308 Tb300 2.427 . S
O308 C304 1.275 . S
O309 Tb300 2.513 . S
O309 C304 1.246 . S
O310 Tb300 2.453 . S
O310 C306 1.245 . S
O311 Tb298 2.343 . S
O311 Tb300 2.596 . S
O311 C306 1.259 . S
O312 Tb300 2.374 . S
O312 C307 1.250 . S
O313 Tb298 2.353 . S
O313 C307 1.263 . S
C314 O315 1.275 . S
C314 O316 1.246 . S
O315 Tb298 2.427 . S
O315 C314 1.275 . S
O316 Tb298 2.513 . S
O316 C314 1.246 . S
C317 O301 1.245 . S
C317 O302 1.259 . S
Tb318 O321 2.453 . S
Tb318 O322 2.596 . S
Tb318 O323 2.374 . S
Tb318 O331 2.343 . S
Tb318 O333 2.353 . S
Tb318 O335 2.427 . S
Tb318 O336 2.513 . S
C319 O323 1.251 . S
C319 O325 1.263 . S
Tb320 O322 2.343 . S
Tb320 O325 2.353 . S
Tb320 O328 2.427 . S
Tb320 O329 2.513 . S
Tb320 O330 2.453 . S
Tb320 O331 2.596 . S
Tb320 O332 2.374 . S
O321 Tb318 2.453 . S
O321 C337 1.245 . S
O322 Tb318 2.596 . S
O322 Tb320 2.343 . S
O322 C337 1.259 . S
O323 Tb318 2.374 . S
O323 C319 1.251 . S
C324 O328 1.275 . S
C324 O329 1.246 . S
O325 C319 1.263 . S
O325 Tb320 2.353 . S
C326 O330 1.245 . S
C326 O331 1.259 . S
C327 O332 1.250 . S
C327 O333 1.263 . S
O328 Tb320 2.427 . S
O328 C324 1.275 . S
O329 Tb320 2.513 . S
O329 C324 1.246 . S
O330 Tb320 2.453 . S
O330 C326 1.245 . S
O331 Tb318 2.343 . S
O331 Tb320 2.596 . S
O331 C326 1.259 . S
O332 Tb320 2.374 . S
O332 C327 1.250 . S
O333 Tb318 2.353 . S
O333 C327 1.263 . S
C334 O335 1.275 . S
C334 O336 1.246 . S
O335 Tb318 2.427 . S
O335 C334 1.275 . S
O336 Tb318 2.513 . S
O336 C334 1.246 . S
C337 O321 1.245 . S
C337 O322 1.259 . S
Tb338 O341 2.453 . S
Tb338 O342 2.596 . S
Tb338 O343 2.374 . S
Tb338 O351 2.343 . S
Tb338 O353 2.353 . S
Tb338 O355 2.427 . S
Tb338 O356 2.513 . S
C339 O343 1.251 . S
C339 O345 1.263 . S
Tb340 O342 2.343 . S
Tb340 O345 2.353 . S
Tb340 O348 2.427 . S
Tb340 O349 2.513 . S
Tb340 O350 2.453 . S
Tb340 O351 2.596 . S
Tb340 O352 2.374 . S
O341 Tb338 2.453 . S
O341 C357 1.245 . S
O342 Tb338 2.596 . S
O342 Tb340 2.343 . S
O342 C357 1.259 . S
O343 Tb338 2.374 . S
O343 C339 1.251 . S
C344 O348 1.275 . S
C344 O349 1.246 . S
O345 C339 1.263 . S
O345 Tb340 2.353 . S
C346 O350 1.245 . S
C346 O351 1.259 . S
C347 O352 1.250 . S
C347 O353 1.263 . S
O348 Tb340 2.427 . S
O348 C344 1.275 . S
O349 Tb340 2.513 . S
O349 C344 1.246 . S
O350 Tb340 2.453 . S
O350 C346 1.245 . S
O351 Tb338 2.343 . S
O351 Tb340 2.596 . S
O351 C346 1.259 . S
O352 Tb340 2.374 . S
O352 C347 1.250 . S
O353 Tb338 2.353 . S
O353 C347 1.263 . S
C354 O355 1.275 . S
C354 O356 1.246 . S
O355 Tb338 2.427 . S
O355 C354 1.275 . S
O356 Tb338 2.513 . S
O356 C354 1.246 . S
C357 O341 1.245 . S
C357 O342 1.259 . S
Tb358 O361 2.453 . S
Tb358 O362 2.596 . S
Tb358 O363 2.374 . S
Tb358 O371 2.343 . S
Tb358 O373 2.353 . S
Tb358 O375 2.427 . S
Tb358 O376 2.513 . S
C359 O363 1.251 . S
C359 O365 1.263 . S
Tb360 O362 2.343 . S
Tb360 O365 2.353 . S
Tb360 O368 2.427 . S
Tb360 O369 2.513 . S
Tb360 O370 2.453 . S
Tb360 O371 2.596 . S
Tb360 O372 2.374 . S
O361 Tb358 2.453 . S
O361 C377 1.245 . S
O362 Tb358 2.596 . S
O362 Tb360 2.343 . S
O362 C377 1.259 . S
O363 Tb358 2.374 . S
O363 C359 1.251 . S
C364 O368 1.275 . S
C364 O369 1.246 . S
O365 C359 1.263 . S
O365 Tb360 2.353 . S
C366 O370 1.245 . S
C366 O371 1.259 . S
C367 O372 1.250 . S
C367 O373 1.263 . S
O368 Tb360 2.427 . S
O368 C364 1.275 . S
O369 Tb360 2.513 . S
O369 C364 1.246 . S
O370 Tb360 2.453 . S
O370 C366 1.245 . S
O371 Tb358 2.343 . S
O371 Tb360 2.596 . S
O371 C366 1.259 . S
O372 Tb360 2.374 . S
O372 C367 1.250 . S
O373 Tb358 2.353 . S
O373 C367 1.263 . S
C374 O375 1.275 . S
C374 O376 1.246 . S
O375 Tb358 2.427 . S
O375 C374 1.275 . S
O376 Tb358 2.513 . S
O376 C374 1.246 . S
C377 O361 1.245 . S
C377 O362 1.259 . S
H378 C386 0.929 . S
H379 C388 0.930 . S
H380 C390 0.930 . S
H381 C393 0.929 . S
H382 C396 0.930 . S
H383 C398 0.960 . S
H384 C398 0.960 . S
H385 C398 0.960 . S
C386 H378 0.929 . S
C386 C387 1.377 . S
C386 C388 1.384 . S
C387 C386 1.377 . S
C387 C393 1.390 . S
C388 H379 0.930 . S
C388 C386 1.384 . S
C388 C389 1.372 . S
C389 C388 1.372 . S
C389 C390 1.400 . S
C389 C394 1.490 . S
C390 H380 0.930 . S
C390 C389 1.400 . S
C390 C393 1.386 . S
H391 C407 0.932 . S
H392 C408 0.931 . S
C393 H381 0.929 . S
C393 C387 1.390 . S
C393 C390 1.386 . S
C394 C389 1.490 . S
C394 C396 1.395 . S
C394 C397 1.403 . S
H395 C401 0.930 . S
C396 H382 0.930 . S
C396 C394 1.395 . S
C396 C399 1.403 . S
C397 C394 1.403 . S
C397 C398 1.524 . S
C397 C401 1.400 . S
C398 H383 0.960 . S
C398 H384 0.960 . S
C398 H385 0.960 . S
C398 C397 1.524 . S
C399 C396 1.403 . S
C399 C400 1.392 . S
C399 C403 1.495 . S
C400 C399 1.392 . S
C400 C401 1.385 . S
C400 C402 1.478 . S
C401 H395 0.930 . S
C401 C397 1.400 . S
C401 C400 1.385 . S
C402 C400 1.478 . S
C402 C404 1.381 . S
C402 C408 1.383 . S
C403 C399 1.495 . S
C403 H409 0.959 . S
C403 H410 0.961 . S
C403 H411 0.960 . S
C404 C402 1.381 . S
C404 C405 1.394 . S
C404 H412 0.930 . S
C405 C404 1.394 . S
C405 C406 1.383 . S
C405 H413 0.929 . S
C406 C405 1.383 . S
C406 C407 1.377 . S
C407 H391 0.932 . S
C407 C406 1.377 . S
C407 C408 1.379 . S
C408 H392 0.931 . S
C408 C402 1.383 . S
C408 C407 1.379 . S
H409 C403 0.959 . S
H410 C403 0.961 . S
H411 C403 0.960 . S
H412 C404 0.930 . S
H413 C405 0.929 . S
H414 C422 0.929 . S
H415 C424 0.930 . S
H416 C426 0.930 . S
H417 C429 0.929 . S
H418 C432 0.930 . S
H419 C434 0.960 . S
H420 C434 0.960 . S
H421 C434 0.960 . S
C422 H414 0.929 . S
C422 C423 1.377 . S
C422 C424 1.384 . S
C423 C422 1.377 . S
C423 C429 1.390 . S
C424 H415 0.930 . S
C424 C422 1.384 . S
C424 C425 1.372 . S
C425 C424 1.372 . S
C425 C426 1.400 . S
C425 C430 1.490 . S
C426 H416 0.930 . S
C426 C425 1.400 . S
C426 C429 1.386 . S
H427 C443 0.930 . S
H428 C444 0.931 . S
C429 H417 0.929 . S
C429 C423 1.390 . S
C429 C426 1.386 . S
C430 C425 1.490 . S
C430 C432 1.395 . S
C430 C433 1.403 . S
H431 C437 0.930 . S
C432 H418 0.930 . S
C432 C430 1.395 . S
C432 C435 1.403 . S
C433 C430 1.403 . S
C433 C434 1.524 . S
C433 C437 1.400 . S
C434 H419 0.960 . S
C434 H420 0.960 . S
C434 H421 0.960 . S
C434 C433 1.524 . S
C435 C432 1.403 . S
C435 C436 1.392 . S
C435 C439 1.495 . S
C436 C435 1.392 . S
C436 C437 1.385 . S
C436 C438 1.478 . S
C437 H431 0.930 . S
C437 C433 1.400 . S
C437 C436 1.385 . S
C438 C436 1.478 . S
C438 C440 1.381 . S
C438 C444 1.383 . S
C439 C435 1.495 . S
C439 H445 0.959 . S
C439 H446 0.961 . S
C439 H447 0.960 . S
C440 C438 1.381 . S
C440 C441 1.394 . S
C440 H448 0.930 . S
C441 C440 1.394 . S
C441 C442 1.383 . S
C441 H449 0.929 . S
C442 C441 1.383 . S
C442 C443 1.377 . S
C443 H427 0.930 . S
C443 C442 1.377 . S
C443 C444 1.379 . S
C444 H428 0.931 . S
C444 C438 1.383 . S
C444 C443 1.379 . S
H445 C439 0.959 . S
H446 C439 0.961 . S
H447 C439 0.960 . S
H448 C440 0.930 . S
H449 C441 0.929 . S
H450 C458 0.929 . S
H451 C460 0.930 . S
H452 C462 0.930 . S
H453 C465 0.929 . S
H454 C468 0.930 . S
H455 C470 0.960 . S
H456 C470 0.960 . S
H457 C470 0.960 . S
C458 H450 0.929 . S
C458 C459 1.377 . S
C458 C460 1.384 . S
C459 C458 1.377 . S
C459 C465 1.390 . S
C460 H451 0.930 . S
C460 C458 1.384 . S
C460 C461 1.372 . S
C461 C460 1.372 . S
C461 C462 1.400 . S
C461 C466 1.490 . S
C462 H452 0.930 . S
C462 C461 1.400 . S
C462 C465 1.386 . S
H463 C479 0.930 . S
H464 C480 0.931 . S
C465 H453 0.929 . S
C465 C459 1.390 . S
C465 C462 1.386 . S
C466 C461 1.490 . S
C466 C468 1.395 . S
C466 C469 1.403 . S
H467 C473 0.930 . S
C468 H454 0.930 . S
C468 C466 1.395 . S
C468 C471 1.403 . S
C469 C466 1.403 . S
C469 C470 1.524 . S
C469 C473 1.400 . S
C470 H455 0.960 . S
C470 H456 0.960 . S
C470 H457 0.960 . S
C470 C469 1.524 . S
C471 C468 1.403 . S
C471 C472 1.392 . S
C471 C475 1.495 . S
C472 C471 1.392 . S
C472 C473 1.385 . S
C472 C474 1.478 . S
C473 H467 0.930 . S
C473 C469 1.400 . S
C473 C472 1.385 . S
C474 C472 1.478 . S
C474 C476 1.381 . S
C474 C480 1.383 . S
C475 C471 1.495 . S
C475 H481 0.959 . S
C475 H482 0.961 . S
C475 H483 0.960 . S
C476 C474 1.381 . S
C476 C477 1.394 . S
C476 H484 0.930 . S
C477 C476 1.394 . S
C477 C478 1.383 . S
C477 H485 0.929 1_554 S
C478 C477 1.383 . S
C478 C479 1.377 . S
C479 H463 0.930 . S
C479 C478 1.377 . S
C479 C480 1.379 . S
C480 H464 0.931 . S
C480 C474 1.383 . S
C480 C479 1.379 . S
H481 C475 0.959 . S
H482 C475 0.961 . S
H483 C475 0.960 . S
H484 C476 0.930 . S
H485 C477 0.929 1_556 S
H486 C494 0.929 . S
H487 C496 0.930 . S
H488 C498 0.930 . S
H489 C501 0.929 . S
H490 C504 0.930 . S
H491 C506 0.938 1_554 S
H492 C506 0.931 1_554 S
H493 C506 0.960 . S
C494 H486 0.929 . S
C494 C495 1.377 . S
C494 C496 1.384 . S
C495 C494 1.377 . S
C495 C501 1.390 . S
C496 H487 0.930 . S
C496 C494 1.384 . S
C496 C497 1.372 . S
C497 C496 1.372 . S
C497 C498 1.400 . S
C497 C502 1.490 . S
C498 H488 0.930 . S
C498 C497 1.400 . S
C498 C501 1.386 . S
H499 C515 0.930 . S
H500 C516 0.931 . S
C501 H489 0.929 . S
C501 C495 1.390 . S
C501 C498 1.386 . S
C502 C497 1.490 . S
C502 C504 1.395 . S
C502 C505 1.403 . S
H503 C509 0.930 . S
C504 H490 0.930 . S
C504 C502 1.395 . S
C504 C507 1.403 . S
C505 C502 1.403 . S
C505 C506 1.524 . S
C505 C509 1.400 . S
C506 H491 0.938 1_556 S
C506 H492 0.931 1_556 S
C506 H493 0.960 . S
C506 C505 1.524 . S
C507 C504 1.403 . S
C507 C508 1.392 . S
C507 C511 1.495 . S
C508 C507 1.392 . S
C508 C509 1.385 . S
C508 C510 1.478 . S
C509 H503 0.930 . S
C509 C505 1.400 . S
C509 C508 1.385 . S
C510 C508 1.478 . S
C510 C512 1.381 . S
C510 C516 1.383 . S
C511 C507 1.495 . S
C511 H517 0.959 . S
C511 H518 0.961 . S
C511 H519 0.960 . S
C512 C510 1.381 . S
C512 C513 1.400 . S
C512 H520 0.930 . S
C513 C512 1.400 . S
C513 C514 1.393 . S
C513 H521 0.915 1_556 S
C514 C513 1.393 . S
C514 C515 1.377 . S
C515 H499 0.930 . S
C515 C514 1.377 . S
C515 C516 1.379 . S
C516 H500 0.931 . S
C516 C510 1.383 . S
C516 C515 1.379 . S
H517 C511 0.959 . S
H518 C511 0.961 . S
H519 C511 0.960 . S
H520 C512 0.930 . S
H521 C513 0.915 1_554 S
H522 C530 0.929 . S
H523 C532 0.930 . S
H524 C534 0.930 . S
H525 C537 0.929 . S
H526 C540 0.930 . S
H527 C542 0.960 . S
H528 C542 0.960 . S
H529 C542 0.960 . S
C530 H522 0.929 . S
C530 C531 1.377 . S
C530 C532 1.384 . S
C531 C530 1.377 . S
C531 C537 1.390 . S
C532 H523 0.930 . S
C532 C530 1.384 . S
C532 C533 1.372 . S
C533 C532 1.372 . S
C533 C534 1.400 . S
C533 C538 1.490 . S
C534 H524 0.930 . S
C534 C533 1.400 . S
C534 C537 1.386 . S
H535 C551 0.930 1_554 S
H536 C552 0.909 1_554 S
C537 H525 0.929 . S
C537 C531 1.390 . S
C537 C534 1.386 . S
C538 C533 1.490 . S
C538 C540 1.395 . S
C538 C541 1.403 . S
H539 C545 0.930 . S
C540 H526 0.930 . S
C540 C538 1.395 . S
C540 C543 1.403 . S
C541 C538 1.403 . S
C541 C542 1.524 . S
C541 C545 1.400 . S
C542 H527 0.960 . S
C542 H528 0.960 . S
C542 H529 0.960 . S
C542 C541 1.524 . S
C543 C540 1.403 . S
C543 C544 1.392 . S
C543 C547 1.495 . S
C544 C543 1.392 . S
C544 C545 1.385 . S
C544 C546 1.478 . S
C545 H539 0.930 . S
C545 C541 1.400 . S
C545 C544 1.385 . S
C546 C544 1.478 . S
C546 C548 1.381 . S
C546 C552 1.383 . S
C547 C543 1.495 . S
C547 H553 0.959 . S
C547 H554 0.961 . S
C547 H555 0.960 . S
C548 C546 1.381 . S
C548 C549 1.394 . S
C548 H556 0.930 . S
C549 C548 1.394 . S
C549 C550 1.383 . S
C549 H557 0.929 . S
C550 C549 1.383 . S
C550 C551 1.377 . S
C551 H535 0.930 1_556 S
C551 C550 1.377 . S
C551 C552 1.379 . S
C552 H536 0.909 1_556 S
C552 C546 1.383 . S
C552 C551 1.379 . S
H553 C547 0.959 . S
H554 C547 0.961 . S
H555 C547 0.960 . S
H556 C548 0.930 . S
H557 C549 0.929 . S
H558 C566 0.929 . S
H559 C568 0.930 . S
H560 C570 0.930 . S
H561 C573 0.929 . S
H562 C576 0.930 . S
H563 C578 0.960 . S
H564 C578 0.960 . S
H565 C578 0.960 1_556 S
C566 H558 0.929 . S
C566 C567 1.377 . S
C566 C568 1.384 . S
C567 C566 1.377 . S
C567 C573 1.390 . S
C568 H559 0.930 . S
C568 C566 1.384 . S
C568 C569 1.372 . S
C569 C568 1.372 . S
C569 C570 1.400 . S
C569 C574 1.490 . S
C570 H560 0.930 . S
C570 C569 1.400 . S
C570 C573 1.386 . S
H571 C587 0.930 . S
H572 C588 0.931 . S
C573 H561 0.929 . S
C573 C567 1.390 . S
C573 C570 1.386 . S
C574 C569 1.490 . S
C574 C576 1.395 . S
C574 C577 1.403 . S
H575 C581 0.930 1_554 S
C576 H562 0.930 . S
C576 C574 1.395 . S
C576 C579 1.403 . S
C577 C574 1.403 . S
C577 C578 1.524 1_556 S
C577 C581 1.400 . S
C578 H563 0.960 . S
C578 H564 0.960 . S
C578 H565 0.960 1_554 S
C578 C577 1.524 1_554 S
C579 C576 1.403 . S
C579 C580 1.392 . S
C579 C583 1.495 . S
C580 C579 1.392 . S
C580 C581 1.385 . S
C580 C582 1.478 . S
C581 H575 0.930 1_556 S
C581 C577 1.400 . S
C581 C580 1.385 . S
C582 C580 1.478 . S
C582 C584 1.380 . S
C582 C588 1.383 . S
C583 C579 1.495 . S
C583 H589 0.959 . S
C583 H590 0.961 . S
C583 H591 0.960 . S
C584 C582 1.380 . S
C584 C585 1.395 1_556 S
C584 H592 0.931 1_556 S
C585 C584 1.395 1_554 S
C585 C586 1.383 1_554 S
C585 H593 0.929 . S
C586 C585 1.383 1_556 S
C586 C587 1.377 . S
C587 H571 0.930 . S
C587 C586 1.377 . S
C587 C588 1.379 . S
C588 H572 0.931 . S
C588 C582 1.383 . S
C588 C587 1.379 . S
H589 C583 0.959 . S
H590 C583 0.961 . S
H591 C583 0.960 . S
H592 C584 0.931 1_554 S
H593 C585 0.929 . S
H594 C602 0.929 . S
H595 C604 0.930 . S
H596 C606 0.930 . S
H597 C609 0.929 . S
H598 C612 0.930 . S
H599 C614 0.960 . S
H600 C614 0.960 . S
H601 C614 0.960 . S
C602 H594 0.929 . S
C602 C603 1.377 . S
C602 C604 1.384 . S
C603 C602 1.377 . S
C603 C609 1.390 . S
C604 H595 0.930 . S
C604 C602 1.384 . S
C604 C605 1.372 . S
C605 C604 1.372 . S
C605 C606 1.400 . S
C605 C610 1.490 . S
C606 H596 0.930 . S
C606 C605 1.400 . S
C606 C609 1.386 . S
H607 C623 0.930 . S
H608 C624 0.931 . S
C609 H597 0.929 . S
C609 C603 1.390 . S
C609 C606 1.386 . S
C610 C605 1.490 . S
C610 C612 1.395 . S
C610 C613 1.403 . S
H611 C617 0.930 . S
C612 H598 0.930 . S
C612 C610 1.395 . S
C612 C615 1.403 . S
C613 C610 1.403 . S
C613 C614 1.524 . S
C613 C617 1.400 . S
C614 H599 0.960 . S
C614 H600 0.960 . S
C614 H601 0.960 . S
C614 C613 1.524 . S
C615 C612 1.403 . S
C615 C616 1.392 . S
C615 C619 1.495 1_556 S
C616 C615 1.392 . S
C616 C617 1.385 . S
C616 C618 1.478 . S
C617 H611 0.930 . S
C617 C613 1.400 . S
C617 C616 1.385 . S
C618 C616 1.478 . S
C618 C620 1.381 . S
C618 C624 1.383 . S
C619 C615 1.495 1_554 S
C619 H625 0.959 . S
C619 H626 0.961 . S
C619 H627 0.960 . S
C620 C618 1.381 . S
C620 C621 1.394 . S
C620 H628 0.930 . S
C621 C620 1.394 . S
C621 C622 1.383 . S
C621 H629 0.929 . S
C622 C621 1.383 . S
C622 C623 1.377 . S
C623 H607 0.930 . S
C623 C622 1.377 . S
C623 C624 1.379 . S
C624 H608 0.931 . S
C624 C618 1.383 . S
C624 C623 1.379 . S
H625 C619 0.959 . S
H626 C619 0.961 . S
H627 C619 0.960 . S
H628 C620 0.930 . S
H629 C621 0.929 . S
H630 C638 0.929 . S
H631 C640 0.930 . S
H632 C642 0.930 . S
H633 C645 0.929 . S
H634 C648 0.930 . S
H635 C650 0.960 . S
H636 C650 0.960 . S
H637 C650 0.960 . S
C638 H630 0.929 . S
C638 C639 1.377 . S
C638 C640 1.384 . S
C639 C638 1.377 . S
C639 C645 1.390 . S
C640 H631 0.930 . S
C640 C638 1.384 . S
C640 C641 1.372 . S
C641 C640 1.372 . S
C641 C642 1.400 . S
C641 C646 1.490 . S
C642 H632 0.930 . S
C642 C641 1.400 . S
C642 C645 1.386 . S
H643 C659 0.930 1_554 S
H644 C660 0.931 . S
C645 H633 0.929 . S
C645 C639 1.390 . S
C645 C642 1.386 . S
C646 C641 1.490 . S
C646 C648 1.395 . S
C646 C649 1.403 . S
H647 C653 0.930 . S
C648 H634 0.930 . S
C648 C646 1.395 . S
C648 C651 1.403 . S
C649 C646 1.403 . S
C649 C650 1.524 . S
C649 C653 1.400 . S
C650 H635 0.960 . S
C650 H636 0.960 . S
C650 H637 0.960 . S
C650 C649 1.524 . S
C651 C648 1.403 . S
C651 C652 1.392 . S
C651 C655 1.495 . S
C652 C651 1.392 . S
C652 C653 1.385 . S
C652 C654 1.478 . S
C653 H647 0.930 . S
C653 C649 1.400 . S
C653 C652 1.385 . S
C654 C652 1.478 . S
C654 C656 1.381 . S
C654 C660 1.383 . S
C655 C651 1.495 . S
C655 H661 0.959 . S
C655 H662 0.961 . S
C655 H663 0.960 . S
C656 C654 1.381 . S
C656 C657 1.394 . S
C656 H664 0.930 . S
C657 C656 1.394 . S
C657 C658 1.383 . S
C657 H665 0.929 . S
C658 C657 1.383 . S
C658 C659 1.377 . S
C659 H643 0.930 1_556 S
C659 C658 1.377 . S
C659 C660 1.379 . S
C660 H644 0.931 . S
C660 C654 1.383 . S
C660 C659 1.379 . S
H661 C655 0.959 . S
H662 C655 0.961 . S
H663 C655 0.960 . S
H664 C656 0.930 . S
H665 C657 0.929 . S
H666 C674 0.929 . S
H667 C676 0.930 . S
H668 C678 0.930 . S
H669 C681 0.929 . S
H670 C684 0.930 . S
H671 C686 0.960 . S
H672 C686 0.960 . S
H673 C686 0.960 . S
C674 H666 0.929 . S
C674 C675 1.377 . S
C674 C676 1.384 . S
C675 C674 1.377 . S
C675 C681 1.390 . S
C676 H667 0.930 . S
C676 C674 1.384 . S
C676 C677 1.372 . S
C677 C676 1.372 . S
C677 C678 1.400 . S
C677 C682 1.490 . S
C678 H668 0.930 . S
C678 C677 1.400 . S
C678 C681 1.386 . S
H679 C695 0.930 . S
H680 C696 0.931 . S
C681 H669 0.929 . S
C681 C675 1.390 . S
C681 C678 1.386 . S
C682 C677 1.490 . S
C682 C684 1.395 . S
C682 C685 1.403 1_556 S
H683 C689 0.930 . S
C684 H670 0.930 . S
C684 C682 1.395 . S
C684 C687 1.403 . S
C685 C682 1.403 1_554 S
C685 C686 1.524 . S
C685 C689 1.400 . S
C686 H671 0.960 . S
C686 H672 0.960 . S
C686 H673 0.960 . S
C686 C685 1.524 . S
C687 C684 1.403 . S
C687 C688 1.392 . S
C687 C691 1.495 . S
C688 C687 1.392 . S
C688 C689 1.385 1_556 S
C688 C690 1.478 . S
C689 H683 0.930 . S
C689 C685 1.400 . S
C689 C688 1.385 1_554 S
C690 C688 1.478 . S
C690 C692 1.381 . S
C690 C696 1.383 . S
C691 C687 1.495 . S
C691 H697 0.959 . S
C691 H698 0.961 . S
C691 H699 0.960 . S
C692 C690 1.381 . S
C692 C693 1.403 . S
C692 H700 0.930 . S
C693 C692 1.403 . S
C693 C694 1.381 1_556 S
C693 H701 0.927 1_556 S
C694 C693 1.381 1_554 S
C694 C695 1.377 1_554 S
C695 H679 0.930 . S
C695 C694 1.377 1_556 S
C695 C696 1.379 . S
C696 H680 0.931 . S
C696 C690 1.383 . S
C696 C695 1.379 . S
H697 C691 0.959 . S
H698 C691 0.961 . S
H699 C691 0.960 . S
H700 C692 0.930 . S
H701 C693 0.927 1_554 S
H702 C710 0.929 . S
H703 C712 0.930 . S
H704 C714 0.930 . S
H705 C717 0.929 . S
H706 C720 0.930 . S
H707 C722 0.960 . S
H708 C722 0.960 . S
H709 C722 0.960 . S
C710 H702 0.929 . S
C710 C711 1.377 . S
C710 C712 1.384 . S
C711 C710 1.377 . S
C711 C717 1.390 . S
C712 H703 0.930 . S
C712 C710 1.384 . S
C712 C713 1.372 . S
C713 C712 1.372 . S
C713 C714 1.400 . S
C713 C718 1.490 . S
C714 H704 0.930 . S
C714 C713 1.400 . S
C714 C717 1.386 . S
H715 C731 0.895 1_556 S
H716 C732 0.931 . S
C717 H705 0.929 . S
C717 C711 1.390 . S
C717 C714 1.386 . S
C718 C713 1.490 . S
C718 C720 1.395 . S
C718 C721 1.403 . S
H719 C725 0.930 . S
C720 H706 0.930 . S
C720 C718 1.395 . S
C720 C723 1.403 . S
C721 C718 1.403 . S
C721 C722 1.524 . S
C721 C725 1.400 . S
C722 H707 0.960 . S
C722 H708 0.960 . S
C722 H709 0.960 . S
C722 C721 1.524 . S
C723 C720 1.403 . S
C723 C724 1.392 . S
C723 C727 1.495 . S
C724 C723 1.392 . S
C724 C725 1.385 . S
C724 C726 1.478 . S
C725 H719 0.930 . S
C725 C721 1.400 . S
C725 C724 1.385 . S
C726 C724 1.478 . S
C726 C728 1.381 . S
C726 C732 1.383 . S
C727 C723 1.495 . S
C727 H733 0.959 . S
C727 H734 0.961 . S
C727 H735 0.960 . S
C728 C726 1.381 . S
C728 C729 1.394 . S
C728 H736 0.930 . S
C729 C728 1.394 . S
C729 C730 1.383 . S
C729 H737 0.929 . S
C730 C729 1.383 . S
C730 C731 1.377 . S
C731 H715 0.895 1_554 S
C731 C730 1.377 . S
C731 C732 1.379 . S
C732 H716 0.931 . S
C732 C726 1.383 . S
C732 C731 1.379 . S
H733 C727 0.959 . S
H734 C727 0.961 . S
H735 C727 0.960 . S
H736 C728 0.930 . S
H737 C729 0.929 . S
H738 C746 0.929 . S
H739 C748 0.930 . S
H740 C750 0.930 . S
H741 C753 0.929 . S
H742 C756 0.930 . S
H743 C758 0.960 . S
H744 C758 0.960 . S
H745 C758 0.960 . S
C746 H738 0.929 . S
C746 C747 1.377 . S
C746 C748 1.384 . S
C747 C746 1.377 . S
C747 C753 1.390 . S
C748 H739 0.930 . S
C748 C746 1.384 . S
C748 C749 1.372 . S
C749 C748 1.372 . S
C749 C750 1.400 . S
C749 C754 1.490 . S
C750 H740 0.930 . S
C750 C749 1.400 . S
C750 C753 1.386 . S
H751 C767 0.930 . S
H752 C768 0.931 . S
C753 H741 0.929 . S
C753 C747 1.390 . S
C753 C750 1.386 . S
C754 C749 1.490 . S
C754 C756 1.395 . S
C754 C757 1.403 . S
H755 C761 0.930 . S
C756 H742 0.930 . S
C756 C754 1.395 . S
C756 C759 1.403 . S
C757 C754 1.403 . S
C757 C758 1.524 . S
C757 C761 1.400 . S
C758 H743 0.960 . S
C758 H744 0.960 . S
C758 H745 0.960 . S
C758 C757 1.524 . S
C759 C756 1.403 . S
C759 C760 1.392 . S
C759 C763 1.495 . S
C760 C759 1.392 . S
C760 C761 1.385 . S
C760 C762 1.478 . S
C761 H755 0.930 . S
C761 C757 1.400 . S
C761 C760 1.385 . S
C762 C760 1.478 . S
C762 C764 1.381 . S
C762 C768 1.383 . S
C763 C759 1.495 . S
C763 H769 0.959 . S
C763 H770 0.961 . S
C763 H771 0.960 . S
C764 C762 1.381 . S
C764 C765 1.394 . S
C764 H772 0.930 . S
C765 C764 1.394 . S
C765 C766 1.383 . S
C765 H773 0.929 . S
C766 C765 1.383 . S
C766 C767 1.377 . S
C767 H751 0.930 . S
C767 C766 1.377 . S
C767 C768 1.379 . S
C768 H752 0.931 . S
C768 C762 1.383 . S
C768 C767 1.379 . S
H769 C763 0.959 . S
H770 C763 0.961 . S
H771 C763 0.960 . S
H772 C764 0.930 . S
H773 C765 0.929 . S
H774 C782 0.929 . S
H775 C784 0.930 . S
H776 C786 0.930 . S
H777 C789 0.929 . S
H778 C792 0.930 . S
H779 C794 0.960 . S
H780 C794 0.960 . S
H781 C794 0.960 . S
C782 H774 0.929 . S
C782 C783 1.377 . S
C782 C784 1.384 . S
C783 C782 1.377 . S
C783 C789 1.390 . S
C784 H775 0.930 . S
C784 C782 1.384 . S
C784 C785 1.372 . S
C785 C784 1.372 . S
C785 C786 1.400 . S
C785 C790 1.490 . S
C786 H776 0.930 . S
C786 C785 1.400 . S
C786 C789 1.386 . S
H787 C803 0.930 1_556 S
H788 C804 0.931 1_556 S
C789 H777 0.929 . S
C789 C783 1.390 . S
C789 C786 1.386 . S
C790 C785 1.490 . S
C790 C792 1.395 . S
C790 C793 1.403 . S
H791 C797 0.930 . S
C792 H778 0.930 . S
C792 C790 1.395 . S
C792 C795 1.403 . S
C793 C790 1.403 . S
C793 C794 1.524 . S
C793 C797 1.400 . S
C794 H779 0.960 . S
C794 H780 0.960 . S
C794 H781 0.960 . S
C794 C793 1.524 . S
C795 C792 1.403 . S
C795 C796 1.392 . S
C795 C799 1.495 . S
C796 C795 1.392 . S
C796 C797 1.385 . S
C796 C798 1.478 . S
C797 H791 0.930 . S
C797 C793 1.400 . S
C797 C796 1.385 . S
C798 C796 1.478 . S
C798 C800 1.381 . S
C798 C804 1.383 . S
C799 C795 1.495 . S
C799 H805 0.959 . S
C799 H806 0.961 . S
C799 H807 0.960 . S
C800 C798 1.381 . S
C800 C801 1.394 . S
C800 H808 0.930 . S
C801 C800 1.394 . S
C801 C802 1.383 . S
C801 H809 0.929 . S
C802 C801 1.383 . S
C802 C803 1.377 . S
C803 H787 0.930 1_554 S
C803 C802 1.377 . S
C803 C804 1.379 . S
C804 H788 0.931 1_554 S
C804 C798 1.383 . S
C804 C803 1.379 . S
H805 C799 0.959 . S
H806 C799 0.961 . S
H807 C799 0.960 . S
H808 C800 0.930 . S
H809 C801 0.929 . S
H810 C818 0.929 . S
H811 C820 0.930 . S
H812 C822 0.930 . S
H813 C825 0.929 . S
H814 C828 0.930 . S
H815 C830 0.960 1_455 S
H816 C830 0.960 . S
H817 C830 0.960 . S
C818 H810 0.929 . S
C818 C819 1.377 . S
C818 C820 1.384 . S
C819 C818 1.377 . S
C819 C825 1.390 . S
C820 H811 0.930 . S
C820 C818 1.384 . S
C820 C821 1.372 . S
C821 C820 1.372 . S
C821 C822 1.400 . S
C821 C826 1.490 . S
C822 H812 0.930 . S
C822 C821 1.400 . S
C822 C825 1.386 . S
H823 C839 0.930 . S
H824 C840 0.931 . S
C825 H813 0.929 . S
C825 C819 1.390 . S
C825 C822 1.386 . S
C826 C821 1.490 . S
C826 C828 1.395 . S
C826 C829 1.403 . S
H827 C833 0.930 . S
C828 H814 0.930 . S
C828 C826 1.395 . S
C828 C831 1.403 . S
C829 C826 1.403 . S
C829 C830 1.524 . S
C829 C833 1.400 1_655 S
C830 H815 0.960 1_655 S
C830 H816 0.960 . S
C830 H817 0.960 . S
C830 C829 1.524 . S
C831 C828 1.403 . S
C831 C832 1.392 1_655 S
C831 C835 1.493 1_655 S
C832 C831 1.392 1_455 S
C832 C833 1.385 . S
C832 C834 1.478 . S
C833 H827 0.930 . S
C833 C829 1.400 1_455 S
C833 C832 1.385 . S
C834 C832 1.478 . S
C834 C836 1.381 . S
C834 C840 1.383 . S
C835 C831 1.493 1_455 S
C835 H841 0.949 1_455 S
C835 H842 0.957 . S
C835 H843 0.976 . S
C836 C834 1.381 . S
C836 C837 1.394 . S
C836 H844 0.930 . S
C837 C836 1.394 . S
C837 C838 1.383 . S
C837 H845 0.929 . S
C838 C837 1.383 . S
C838 C839 1.377 . S
C839 H823 0.930 . S
C839 C838 1.377 . S
C839 C840 1.379 . S
C840 H824 0.931 . S
C840 C834 1.383 . S
C840 C839 1.379 . S
H841 C835 0.949 1_655 S
H842 C835 0.957 . S
H843 C835 0.976 . S
H844 C836 0.930 . S
H845 C837 0.929 . S
H846 C854 0.929 . S
H847 C856 0.930 . S
H848 C858 0.930 . S
H849 C861 0.929 . S
H850 C864 0.930 . S
H851 C866 0.960 . S
H852 C866 0.960 . S
H853 C866 0.960 . S
C854 H846 0.929 . S
C854 C855 1.377 . S
C854 C856 1.384 . S
C855 C854 1.377 . S
C855 C861 1.390 . S
C856 H847 0.930 . S
C856 C854 1.384 . S
C856 C857 1.372 . S
C857 C856 1.372 . S
C857 C858 1.400 . S
C857 C862 1.490 . S
C858 H848 0.930 . S
C858 C857 1.400 . S
C858 C861 1.386 . S
H859 C875 0.930 . S
H860 C876 0.931 . S
C861 H849 0.929 . S
C861 C855 1.390 . S
C861 C858 1.386 . S
C862 C857 1.490 . S
C862 C864 1.395 . S
C862 C865 1.403 . S
H863 C869 0.930 . S
C864 H850 0.930 . S
C864 C862 1.395 . S
C864 C867 1.403 . S
C865 C862 1.403 . S
C865 C866 1.524 . S
C865 C869 1.400 . S
C866 H851 0.960 . S
C866 H852 0.960 . S
C866 H853 0.960 . S
C866 C865 1.524 . S
C867 C864 1.403 . S
C867 C868 1.392 . S
C867 C871 1.495 . S
C868 C867 1.392 . S
C868 C869 1.385 . S
C868 C870 1.478 . S
C869 H863 0.930 . S
C869 C865 1.400 . S
C869 C868 1.385 . S
C870 C868 1.478 . S
C870 C872 1.381 . S
C870 C876 1.383 . S
C871 C867 1.495 . S
C871 H877 0.959 . S
C871 H878 0.961 . S
C871 H879 0.960 . S
C872 C870 1.381 . S
C872 C873 1.394 . S
C872 H880 0.930 . S
C873 C872 1.394 . S
C873 C874 1.383 . S
C873 H881 0.929 . S
C874 C873 1.383 . S
C874 C875 1.377 . S
C875 H859 0.930 . S
C875 C874 1.377 . S
C875 C876 1.379 . S
C876 H860 0.931 . S
C876 C870 1.383 . S
C876 C875 1.379 . S
H877 C871 0.959 . S
H878 C871 0.961 . S
H879 C871 0.960 . S
H880 C872 0.930 . S
H881 C873 0.929 . S
H882 C890 0.929 . S
H883 C892 0.930 . S
H884 C894 0.930 . S
H885 C897 0.929 . S
H886 C900 0.930 . S
H887 C902 0.960 1_565 S
H888 C902 0.960 . S
H889 C902 0.960 . S
C890 H882 0.929 . S
C890 C891 1.377 . S
C890 C892 1.384 . S
C891 C890 1.377 . S
C891 C897 1.390 . S
C892 H883 0.930 . S
C892 C890 1.384 . S
C892 C893 1.372 . S
C893 C892 1.372 . S
C893 C894 1.400 . S
C893 C898 1.490 . S
C894 H884 0.930 . S
C894 C893 1.400 . S
C894 C897 1.386 . S
H895 C911 0.930 . S
H896 C912 0.931 . S
C897 H885 0.929 . S
C897 C891 1.390 . S
C897 C894 1.386 . S
C898 C893 1.490 . S
C898 C900 1.395 . S
C898 C901 1.403 . S
H899 C905 0.930 . S
C900 H886 0.930 . S
C900 C898 1.395 . S
C900 C903 1.403 . S
C901 C898 1.403 . S
C901 C902 1.524 . S
C901 C905 1.400 1_545 S
C902 H887 0.960 1_545 S
C902 H888 0.960 . S
C902 H889 0.960 . S
C902 C901 1.524 . S
C903 C900 1.403 . S
C903 C904 1.392 1_545 S
C903 C907 1.495 1_545 S
C904 C903 1.392 1_565 S
C904 C905 1.385 . S
C904 C906 1.478 . S
C905 H899 0.930 . S
C905 C901 1.400 1_565 S
C905 C904 1.385 . S
C906 C904 1.478 . S
C906 C908 1.381 . S
C906 C912 1.383 . S
C907 C903 1.495 1_565 S
C907 H913 0.959 1_565 S
C907 H914 0.961 . S
C907 H915 0.960 . S
C908 C906 1.381 . S
C908 C909 1.394 . S
C908 H916 0.930 . S
C909 C908 1.394 . S
C909 C910 1.383 . S
C909 H917 0.929 . S
C910 C909 1.383 . S
C910 C911 1.377 . S
C911 H895 0.930 . S
C911 C910 1.377 . S
C911 C912 1.379 . S
C912 H896 0.931 . S
C912 C906 1.383 . S
C912 C911 1.379 . S
H913 C907 0.959 1_545 S
H914 C907 0.961 . S
H915 C907 0.960 . S
H916 C908 0.930 . S
H917 C909 0.929 . S
H918 C926 0.929 . S
H919 C928 0.930 . S
H920 C930 0.930 . S
H921 C933 0.929 . S
H922 C936 0.930 . S
H923 C938 0.960 . S
H924 C938 0.960 . S
H925 C938 0.960 . S
C926 H918 0.929 . S
C926 C927 1.377 . S
C926 C928 1.384 . S
C927 C926 1.377 . S
C927 C933 1.390 . S
C928 H919 0.930 . S
C928 C926 1.384 . S
C928 C929 1.372 . S
C929 C928 1.372 . S
C929 C930 1.400 . S
C929 C934 1.490 . S
C930 H920 0.930 . S
C930 C929 1.400 . S
C930 C933 1.386 . S
H931 C947 0.930 . S
H932 C948 0.931 . S
C933 H921 0.929 . S
C933 C927 1.390 . S
C933 C930 1.386 . S
C934 C929 1.490 . S
C934 C936 1.395 . S
C934 C937 1.403 . S
H935 C941 0.930 . S
C936 H922 0.930 . S
C936 C934 1.395 . S
C936 C939 1.403 . S
C937 C934 1.403 . S
C937 C938 1.524 . S
C937 C941 1.400 . S
C938 H923 0.960 . S
C938 H924 0.960 . S
C938 H925 0.960 . S
C938 C937 1.524 . S
C939 C936 1.403 . S
C939 C940 1.392 . S
C939 C943 1.495 . S
C940 C939 1.392 . S
C940 C941 1.385 . S
C940 C942 1.478 . S
C941 H935 0.930 . S
C941 C937 1.400 . S
C941 C940 1.385 . S
C942 C940 1.478 . S
C942 C944 1.381 . S
C942 C948 1.383 . S
C943 C939 1.495 . S
C943 H949 0.959 . S
C943 H950 0.961 . S
C943 H951 0.960 . S
C944 C942 1.381 . S
C944 C945 1.394 . S
C944 H952 0.930 . S
C945 C944 1.394 . S
C945 C946 1.383 . S
C945 H953 0.929 . S
C946 C945 1.383 . S
C946 C947 1.377 . S
C947 H931 0.930 . S
C947 C946 1.377 . S
C947 C948 1.379 . S
C948 H932 0.931 . S
C948 C942 1.383 . S
C948 C947 1.379 . S
H949 C943 0.959 . S
H950 C943 0.961 . S
H951 C943 0.960 . S
H952 C944 0.930 . S
H953 C945 0.929 . S
H954 C962 0.929 . S
H955 C964 0.930 . S
H956 C966 0.930 . S
H957 C969 0.929 . S
H958 C972 0.930 . S
H959 C974 0.960 . S
H960 C974 0.960 . S
H961 C974 0.960 . S
C962 H954 0.929 . S
C962 C963 1.377 . S
C962 C964 1.384 . S
C963 C962 1.377 . S
C963 C969 1.390 . S
C964 H955 0.930 . S
C964 C962 1.384 . S
C964 C965 1.372 . S
C965 C964 1.372 . S
C965 C966 1.400 . S
C965 C970 1.490 . S
C966 H956 0.930 . S
C966 C965 1.400 . S
C966 C969 1.386 . S
H967 C983 0.930 . S
H968 C984 0.931 . S
C969 H957 0.929 . S
C969 C963 1.390 . S
C969 C966 1.386 . S
C970 C965 1.490 . S
C970 C972 1.395 . S
C970 C973 1.403 . S
H971 C977 0.930 . S
C972 H958 0.930 . S
C972 C970 1.395 . S
C972 C975 1.403 . S
C973 C970 1.403 . S
C973 C974 1.524 . S
C973 C977 1.400 . S
C974 H959 0.960 . S
C974 H960 0.960 . S
C974 H961 0.960 . S
C974 C973 1.524 . S
C975 C972 1.403 . S
C975 C976 1.392 . S
C975 C979 1.495 . S
C976 C975 1.392 . S
C976 C977 1.385 . S
C976 C978 1.478 . S
C977 H971 0.930 . S
C977 C973 1.400 . S
C977 C976 1.385 . S
C978 C976 1.478 . S
C978 C980 1.381 . S
C978 C984 1.383 . S
C979 C975 1.495 . S
C979 H985 0.959 . S
C979 H986 0.961 . S
C979 H987 0.960 . S
C980 C978 1.381 . S
C980 C981 1.394 . S
C980 H988 0.930 . S
C981 C980 1.394 . S
C981 C982 1.383 . S
C981 H989 0.929 . S
C982 C981 1.383 . S
C982 C983 1.377 . S
C983 H967 0.930 . S
C983 C982 1.377 . S
C983 C984 1.379 . S
C984 H968 0.931 . S
C984 C978 1.383 . S
C984 C983 1.379 . S
H985 C979 0.959 . S
H986 C979 0.961 . S
H987 C979 0.960 . S
H988 C980 0.930 . S
H989 C981 0.929 . S
H990 C998 0.929 . S
H991 C1000 0.930 . S
H992 C1002 0.930 . S
H993 C1005 0.929 . S
H994 C1008 0.930 . S
H995 C1010 0.960 . S
H996 C1010 0.960 . S
H997 C1010 0.960 . S
C998 H990 0.929 . S
C998 C999 1.377 . S
C998 C1000 1.384 . S
C999 C998 1.377 . S
C999 C1005 1.390 . S
C1000 H991 0.930 . S
C1000 C998 1.384 . S
C1000 C1001 1.372 . S
C1001 C1000 1.372 . S
C1001 C1002 1.400 . S
C1001 C1006 1.490 . S
C1002 H992 0.930 . S
C1002 C1001 1.400 . S
C1002 C1005 1.386 . S
H1003 C1019 0.930 . S
H1004 C1020 0.931 . S
C1005 H993 0.929 . S
C1005 C999 1.390 . S
C1005 C1002 1.386 . S
C1006 C1001 1.490 . S
C1006 C1008 1.395 . S
C1006 C1009 1.403 . S
H1007 C1013 0.930 . S
C1008 H994 0.930 . S
C1008 C1006 1.395 . S
C1008 C1011 1.403 . S
C1009 C1006 1.403 . S
C1009 C1010 1.524 . S
C1009 C1013 1.400 . S
C1010 H995 0.960 . S
C1010 H996 0.960 . S
C1010 H997 0.960 . S
C1010 C1009 1.524 . S
C1011 C1008 1.403 . S
C1011 C1012 1.392 . S
C1011 C1015 1.495 . S
C1012 C1011 1.392 . S
C1012 C1013 1.385 . S
C1012 C1014 1.478 . S
C1013 H1007 0.930 . S
C1013 C1009 1.400 . S
C1013 C1012 1.385 . S
C1014 C1012 1.478 . S
C1014 C1016 1.381 . S
C1014 C1020 1.383 . S
C1015 C1011 1.495 . S
C1015 H1021 0.959 . S
C1015 H1022 0.961 . S
C1015 H1023 0.960 . S
C1016 C1014 1.381 . S
C1016 C1017 1.394 . S
C1016 H1024 0.930 . S
C1017 C1016 1.394 . S
C1017 C1018 1.383 . S
C1017 H1025 0.929 . S
C1018 C1017 1.383 . S
C1018 C1019 1.377 . S
C1019 H1003 0.930 . S
C1019 C1018 1.377 . S
C1019 C1020 1.379 . S
C1020 H1004 0.931 . S
C1020 C1014 1.383 . S
C1020 C1019 1.379 . S
H1021 C1015 0.959 . S
H1022 C1015 0.961 . S
H1023 C1015 0.960 . S
H1024 C1016 0.930 . S
H1025 C1017 0.929 . S
H1026 C1034 0.929 . S
H1027 C1036 0.930 . S
H1028 C1038 0.930 . S
H1029 C1041 0.929 . S
H1030 C1044 0.930 . S
H1031 C1046 0.960 . S
H1032 C1046 0.960 . S
H1033 C1046 0.960 . S
C1034 H1026 0.929 . S
C1034 C1035 1.377 . S
C1034 C1036 1.384 . S
C1035 C1034 1.377 . S
C1035 C1041 1.390 . S
C1036 H1027 0.930 . S
C1036 C1034 1.384 . S
C1036 C1037 1.372 . S
C1037 C1036 1.372 . S
C1037 C1038 1.400 . S
C1037 C1042 1.490 . S
C1038 H1028 0.930 . S
C1038 C1037 1.400 . S
C1038 C1041 1.386 . S
H1039 C1055 0.930 . S
H1040 C1056 0.931 . S
C1041 H1029 0.929 . S
C1041 C1035 1.390 . S
C1041 C1038 1.386 . S
C1042 C1037 1.490 . S
C1042 C1044 1.395 . S
C1042 C1045 1.403 . S
H1043 C1049 0.930 . S
C1044 H1030 0.930 . S
C1044 C1042 1.395 . S
C1044 C1047 1.403 . S
C1045 C1042 1.403 . S
C1045 C1046 1.524 . S
C1045 C1049 1.400 . S
C1046 H1031 0.960 . S
C1046 H1032 0.960 . S
C1046 H1033 0.960 . S
C1046 C1045 1.524 . S
C1047 C1044 1.403 . S
C1047 C1048 1.392 . S
C1047 C1051 1.495 . S
C1048 C1047 1.392 . S
C1048 C1049 1.385 . S
C1048 C1050 1.478 . S
C1049 H1043 0.930 . S
C1049 C1045 1.400 . S
C1049 C1048 1.385 . S
C1050 C1048 1.478 . S
C1050 C1052 1.381 . S
C1050 C1056 1.383 . S
C1051 C1047 1.495 . S
C1051 H1057 0.959 . S
C1051 H1058 0.961 . S
C1051 H1059 0.960 . S
C1052 C1050 1.381 . S
C1052 C1053 1.394 . S
C1052 H1060 0.930 . S
C1053 C1052 1.394 . S
C1053 C1054 1.383 . S
C1053 H1061 0.929 . S
C1054 C1053 1.383 . S
C1054 C1055 1.377 . S
C1055 H1039 0.930 . S
C1055 C1054 1.377 . S
C1055 C1056 1.379 . S
C1056 H1040 0.931 . S
C1056 C1050 1.383 . S
C1056 C1055 1.379 . S
H1057 C1051 0.959 . S
H1058 C1051 0.961 . S
H1059 C1051 0.960 . S
H1060 C1052 0.930 . S
H1061 C1053 0.929 . S
H1062 C1070 0.929 . S
H1063 C1072 0.930 . S
H1064 C1074 0.930 . S
H1065 C1077 0.929 . S
H1066 C1080 0.930 . S
H1067 C1082 0.960 . S
H1068 C1082 0.960 . S
H1069 C1082 0.960 . S
C1070 H1062 0.929 . S
C1070 C1071 1.377 . S
C1070 C1072 1.384 . S
C1071 C1070 1.377 . S
C1071 C1077 1.390 . S
C1072 H1063 0.930 . S
C1072 C1070 1.384 . S
C1072 C1073 1.372 . S
C1073 C1072 1.372 . S
C1073 C1074 1.400 . S
C1073 C1078 1.490 . S
C1074 H1064 0.930 . S
C1074 C1073 1.400 . S
C1074 C1077 1.386 . S
H1075 C1091 0.930 . S
H1076 C1092 0.931 . S
C1077 H1065 0.929 . S
C1077 C1071 1.390 . S
C1077 C1074 1.386 . S
C1078 C1073 1.490 . S
C1078 C1080 1.395 . S
C1078 C1081 1.403 . S
H1079 C1085 0.930 . S
C1080 H1066 0.930 . S
C1080 C1078 1.395 . S
C1080 C1083 1.403 . S
C1081 C1078 1.403 . S
C1081 C1082 1.524 . S
C1081 C1085 1.400 . S
C1082 H1067 0.960 . S
C1082 H1068 0.960 . S
C1082 H1069 0.960 . S
C1082 C1081 1.524 . S
C1083 C1080 1.403 . S
C1083 C1084 1.392 . S
C1083 C1087 1.495 . S
C1084 C1083 1.392 . S
C1084 C1085 1.385 . S
C1084 C1086 1.478 . S
C1085 H1079 0.930 . S
C1085 C1081 1.400 . S
C1085 C1084 1.385 . S
C1086 C1084 1.478 . S
C1086 C1088 1.381 . S
C1086 C1092 1.383 . S
C1087 C1083 1.495 . S
C1087 H1093 0.959 . S
C1087 H1094 0.961 . S
C1087 H1095 0.960 . S
C1088 C1086 1.381 . S
C1088 C1089 1.394 . S
C1088 H1096 0.930 . S
C1089 C1088 1.394 . S
C1089 C1090 1.383 . S
C1089 H1097 0.929 . S
C1090 C1089 1.383 . S
C1090 C1091 1.377 . S
C1091 H1075 0.930 . S
C1091 C1090 1.377 . S
C1091 C1092 1.379 . S
C1092 H1076 0.931 . S
C1092 C1086 1.383 . S
C1092 C1091 1.379 . S
H1093 C1087 0.959 . S
H1094 C1087 0.961 . S
H1095 C1087 0.960 . S
H1096 C1088 0.930 . S
H1097 C1089 0.929 . S
H1098 C1106 0.929 . S
H1099 C1108 0.930 . S
H1100 C1110 0.930 . S
H1101 C1113 0.929 . S
H1102 C1116 0.930 . S
H1103 C1118 0.960 . S
H1104 C1118 0.960 . S
H1105 C1118 0.960 . S
C1106 H1098 0.929 . S
C1106 C1107 1.377 . S
C1106 C1108 1.384 . S
C1107 C1106 1.377 . S
C1107 C1113 1.390 . S
C1108 H1099 0.930 . S
C1108 C1106 1.384 . S
C1108 C1109 1.372 . S
C1109 C1108 1.372 . S
C1109 C1110 1.400 . S
C1109 C1114 1.490 . S
C1110 H1100 0.930 . S
C1110 C1109 1.400 . S
C1110 C1113 1.386 . S
H1111 C1127 0.930 . S
H1112 C1128 0.931 . S
C1113 H1101 0.929 . S
C1113 C1107 1.390 . S
C1113 C1110 1.386 . S
C1114 C1109 1.490 . S
C1114 C1116 1.395 . S
C1114 C1117 1.403 . S
H1115 C1121 0.930 . S
C1116 H1102 0.930 . S
C1116 C1114 1.395 . S
C1116 C1119 1.403 . S
C1117 C1114 1.403 . S
C1117 C1118 1.524 . S
C1117 C1121 1.400 . S
C1118 H1103 0.960 . S
C1118 H1104 0.960 . S
C1118 H1105 0.960 . S
C1118 C1117 1.524 . S
C1119 C1116 1.403 . S
C1119 C1120 1.392 . S
C1119 C1123 1.495 . S
C1120 C1119 1.392 . S
C1120 C1121 1.385 . S
C1120 C1122 1.478 . S
C1121 H1115 0.930 . S
C1121 C1117 1.400 . S
C1121 C1120 1.385 . S
C1122 C1120 1.478 . S
C1122 C1124 1.381 . S
C1122 C1128 1.383 . S
C1123 C1119 1.495 . S
C1123 H1129 0.959 . S
C1123 H1130 0.961 . S
C1123 H1131 0.960 . S
C1124 C1122 1.381 . S
C1124 C1125 1.394 . S
C1124 H1132 0.930 . S
C1125 C1124 1.394 . S
C1125 C1126 1.383 . S
C1125 H1133 0.929 . S
C1126 C1125 1.383 . S
C1126 C1127 1.377 . S
C1127 H1111 0.930 . S
C1127 C1126 1.377 . S
C1127 C1128 1.379 . S
C1128 H1112 0.931 . S
C1128 C1122 1.383 . S
C1128 C1127 1.379 . S
H1129 C1123 0.959 . S
H1130 C1123 0.961 . S
H1131 C1123 0.960 . S
H1132 C1124 0.930 . S
H1133 C1125 0.929 . S
H1134 C1142 0.929 . S
H1135 C1144 0.930 . S
H1136 C1146 0.930 . S
H1137 C1149 0.929 . S
H1138 C1152 0.930 . S
H1139 C1154 0.960 . S
H1140 C1154 0.965 . S
H1141 C1154 0.960 . S
C1142 H1134 0.929 . S
C1142 C1143 1.377 . S
C1142 C1144 1.384 . S
C1143 C1142 1.377 . S
C1143 C1149 1.390 . S
C1144 H1135 0.930 . S
C1144 C1142 1.384 . S
C1144 C1145 1.372 . S
C1145 C1144 1.372 . S
C1145 C1146 1.400 . S
C1145 C1150 1.490 1_545 S
C1146 H1136 0.930 . S
C1146 C1145 1.400 . S
C1146 C1149 1.386 . S
H1147 C1163 0.930 . S
H1148 C1164 0.931 . S
C1149 H1137 0.929 . S
C1149 C1143 1.390 . S
C1149 C1146 1.386 . S
C1150 C1145 1.490 1_565 S
C1150 C1152 1.395 . S
C1150 C1153 1.403 . S
H1151 C1157 0.930 . S
C1152 H1138 0.930 . S
C1152 C1150 1.395 . S
C1152 C1155 1.403 . S
C1153 C1150 1.403 . S
C1153 C1154 1.524 . S
C1153 C1157 1.400 . S
C1154 H1139 0.960 . S
C1154 H1140 0.965 . S
C1154 H1141 0.960 . S
C1154 C1153 1.524 . S
C1155 C1152 1.403 . S
C1155 C1156 1.392 . S
C1155 C1159 1.495 . S
C1156 C1155 1.392 . S
C1156 C1157 1.385 . S
C1156 C1158 1.478 . S
C1157 H1151 0.930 . S
C1157 C1153 1.400 . S
C1157 C1156 1.385 . S
C1158 C1156 1.478 . S
C1158 C1160 1.381 . S
C1158 C1164 1.383 . S
C1159 C1155 1.495 . S
C1159 H1165 0.959 . S
C1159 H1166 0.961 . S
C1159 H1167 0.960 . S
C1160 C1158 1.381 . S
C1160 C1161 1.394 . S
C1160 H1168 0.930 . S
C1161 C1160 1.394 . S
C1161 C1162 1.383 . S
C1161 H1169 0.929 . S
C1162 C1161 1.383 . S
C1162 C1163 1.377 . S
C1163 H1147 0.930 . S
C1163 C1162 1.377 . S
C1163 C1164 1.379 . S
C1164 H1148 0.931 . S
C1164 C1158 1.383 . S
C1164 C1163 1.379 . S
H1165 C1159 0.959 . S
H1166 C1159 0.961 . S
H1167 C1159 0.960 . S
H1168 C1160 0.930 . S
H1169 C1161 0.929 . S
H1170 C1178 0.929 . S
H1171 C1180 0.930 . S
H1172 C1182 0.930 . S
H1173 C1185 0.929 . S
H1174 C1188 0.930 . S
H1175 C1190 0.960 . S
H1176 C1190 0.960 1_655 S
H1177 C1190 0.960 . S
C1178 H1170 0.929 . S
C1178 C1179 1.377 . S
C1178 C1180 1.384 . S
C1179 C1178 1.377 . S
C1179 C1185 1.390 . S
C1180 H1171 0.930 . S
C1180 C1178 1.384 . S
C1180 C1181 1.372 . S
C1181 C1180 1.372 . S
C1181 C1182 1.400 . S
C1181 C1186 1.490 1_655 S
C1182 H1172 0.930 . S
C1182 C1181 1.400 . S
C1182 C1185 1.386 . S
H1183 C1199 0.930 . S
H1184 C1200 0.931 . S
C1185 H1173 0.929 . S
C1185 C1179 1.390 . S
C1185 C1182 1.386 . S
C1186 C1181 1.490 1_455 S
C1186 C1188 1.395 . S
C1186 C1189 1.403 . S
H1187 C1193 0.930 . S
C1188 H1174 0.930 . S
C1188 C1186 1.395 . S
C1188 C1191 1.403 . S
C1189 C1186 1.403 . S
C1189 C1190 1.524 . S
C1189 C1193 1.400 . S
C1190 H1175 0.960 . S
C1190 H1176 0.960 1_455 S
C1190 H1177 0.960 . S
C1190 C1189 1.524 . S
C1191 C1188 1.403 . S
C1191 C1192 1.392 . S
C1191 C1195 1.495 . S
C1192 C1191 1.392 . S
C1192 C1193 1.385 . S
C1192 C1194 1.478 . S
C1193 H1187 0.930 . S
C1193 C1189 1.400 . S
C1193 C1192 1.385 . S
C1194 C1192 1.478 . S
C1194 C1196 1.381 . S
C1194 C1200 1.383 . S
C1195 C1191 1.495 . S
C1195 H1201 0.959 . S
C1195 H1202 0.961 . S
C1195 H1203 0.960 . S
C1196 C1194 1.381 . S
C1196 C1197 1.394 . S
C1196 H1204 0.930 . S
C1197 C1196 1.394 . S
C1197 C1198 1.383 . S
C1197 H1205 0.929 . S
C1198 C1197 1.383 . S
C1198 C1199 1.377 . S
C1199 H1183 0.930 . S
C1199 C1198 1.377 . S
C1199 C1200 1.379 . S
C1200 H1184 0.931 . S
C1200 C1194 1.383 . S
C1200 C1199 1.379 . S
H1201 C1195 0.959 . S
H1202 C1195 0.961 . S
H1203 C1195 0.960 . S
H1204 C1196 0.930 . S
H1205 C1197 0.929 . S
H1206 C1214 0.929 . S
H1207 C1216 0.930 . S
H1208 C1218 0.930 . S
H1209 C1221 0.929 . S
H1210 C1224 0.930 . S
H1211 C1226 0.960 . S
H1212 C1226 0.960 . S
H1213 C1226 0.960 . S
C1214 H1206 0.929 . S
C1214 C1215 1.377 . S
C1214 C1216 1.384 . S
C1215 C1214 1.377 . S
C1215 C1221 1.390 . S
C1216 H1207 0.930 . S
C1216 C1214 1.384 . S
C1216 C1217 1.372 . S
C1217 C1216 1.372 . S
C1217 C1218 1.400 . S
C1217 C1222 1.490 . S
C1218 H1208 0.930 . S
C1218 C1217 1.400 . S
C1218 C1221 1.386 . S
H1219 C1235 0.930 . S
H1220 C1236 0.931 . S
C1221 H1209 0.929 . S
C1221 C1215 1.390 . S
C1221 C1218 1.386 . S
C1222 C1217 1.490 . S
C1222 C1224 1.395 . S
C1222 C1225 1.403 . S
H1223 C1229 0.930 . S
C1224 H1210 0.930 . S
C1224 C1222 1.395 . S
C1224 C1227 1.403 . S
C1225 C1222 1.403 . S
C1225 C1226 1.524 . S
C1225 C1229 1.400 . S
C1226 H1211 0.960 . S
C1226 H1212 0.960 . S
C1226 H1213 0.960 . S
C1226 C1225 1.524 . S
C1227 C1224 1.403 . S
C1227 C1228 1.392 . S
C1227 C1231 1.495 . S
C1228 C1227 1.392 . S
C1228 C1229 1.385 . S
C1228 C1230 1.478 . S
C1229 H1223 0.930 . S
C1229 C1225 1.400 . S
C1229 C1228 1.385 . S
C1230 C1228 1.478 . S
C1230 C1232 1.381 . S
C1230 C1236 1.383 . S
C1231 C1227 1.495 . S
C1231 H1237 0.959 . S
C1231 H1238 0.961 . S
C1231 H1239 0.960 . S
C1232 C1230 1.381 . S
C1232 C1233 1.394 . S
C1232 H1240 0.930 . S
C1233 C1232 1.394 . S
C1233 C1234 1.383 . S
C1233 H1241 0.929 . S
C1234 C1233 1.383 . S
C1234 C1235 1.377 . S
C1235 H1219 0.930 . S
C1235 C1234 1.377 . S
C1235 C1236 1.379 . S
C1236 H1220 0.931 . S
C1236 C1230 1.383 . S
C1236 C1235 1.379 . S
H1237 C1231 0.959 . S
H1238 C1231 0.961 . S
H1239 C1231 0.960 . S
H1240 C1232 0.930 . S
H1241 C1233 0.929 . S
H1242 C1250 0.929 . S
H1243 C1252 0.930 . S
H1244 C1254 0.930 . S
H1245 C1257 0.929 . S
H1246 C1260 0.930 . S
H1247 C1262 0.960 . S
H1248 C1262 0.960 . S
H1249 C1262 0.960 . S
C1250 H1242 0.929 . S
C1250 C1251 1.377 . S
C1250 C1252 1.384 . S
C1251 C1250 1.377 . S
C1251 C1257 1.390 . S
C1252 H1243 0.930 . S
C1252 C1250 1.384 . S
C1252 C1253 1.372 . S
C1253 C1252 1.372 . S
C1253 C1254 1.400 . S
C1253 C1258 1.490 . S
C1254 H1244 0.930 . S
C1254 C1253 1.400 . S
C1254 C1257 1.386 . S
H1255 C1271 0.930 . S
H1256 C1272 0.931 . S
C1257 H1245 0.929 . S
C1257 C1251 1.390 . S
C1257 C1254 1.386 . S
C1258 C1253 1.490 . S
C1258 C1260 1.395 . S
C1258 C1261 1.403 . S
H1259 C1265 0.930 . S
C1260 H1246 0.930 . S
C1260 C1258 1.395 . S
C1260 C1263 1.403 . S
C1261 C1258 1.403 . S
C1261 C1262 1.524 . S
C1261 C1265 1.400 . S
C1262 H1247 0.960 . S
C1262 H1248 0.960 . S
C1262 H1249 0.960 . S
C1262 C1261 1.524 . S
C1263 C1260 1.403 . S
C1263 C1264 1.392 . S
C1263 C1267 1.495 . S
C1264 C1263 1.392 . S
C1264 C1265 1.385 . S
C1264 C1266 1.478 . S
C1265 H1259 0.930 . S
C1265 C1261 1.400 . S
C1265 C1264 1.385 . S
C1266 C1264 1.478 . S
C1266 C1268 1.381 . S
C1266 C1272 1.383 . S
C1267 C1263 1.495 . S
C1267 H1273 0.959 . S
C1267 H1274 0.961 . S
C1267 H1275 0.960 . S
C1268 C1266 1.381 . S
C1268 C1269 1.394 . S
C1268 H1276 0.930 . S
C1269 C1268 1.394 . S
C1269 C1270 1.383 . S
C1269 H1277 0.929 . S
C1270 C1269 1.383 . S
C1270 C1271 1.377 . S
C1271 H1255 0.930 . S
C1271 C1270 1.377 . S
C1271 C1272 1.379 . S
C1272 H1256 0.931 . S
C1272 C1266 1.383 . S
C1272 C1271 1.379 . S
H1273 C1267 0.959 . S
H1274 C1267 0.961 . S
H1275 C1267 0.960 . S
H1276 C1268 0.930 . S
H1277 C1269 0.929 . S
H1278 C1286 0.929 . S
H1279 C1288 0.930 . S
H1280 C1290 0.930 . S
H1281 C1293 0.929 . S
H1282 C1296 0.930 . S
H1283 C1298 0.960 . S
H1284 C1298 0.960 . S
H1285 C1298 0.960 . S
C1286 H1278 0.929 . S
C1286 C1287 1.377 . S
C1286 C1288 1.384 . S
C1287 C1286 1.377 . S
C1287 C1293 1.390 . S
C1288 H1279 0.930 . S
C1288 C1286 1.384 . S
C1288 C1289 1.372 . S
C1289 C1288 1.372 . S
C1289 C1290 1.400 . S
C1289 C1294 1.490 . S
C1290 H1280 0.930 . S
C1290 C1289 1.400 . S
C1290 C1293 1.386 . S
H1291 C1307 0.930 . S
H1292 C1308 0.931 . S
C1293 H1281 0.929 . S
C1293 C1287 1.390 . S
C1293 C1290 1.386 . S
C1294 C1289 1.490 . S
C1294 C1296 1.395 . S
C1294 C1297 1.403 . S
H1295 C1301 0.930 . S
C1296 H1282 0.930 . S
C1296 C1294 1.395 . S
C1296 C1299 1.403 . S
C1297 C1294 1.403 . S
C1297 C1298 1.524 . S
C1297 C1301 1.400 . S
C1298 H1283 0.960 . S
C1298 H1284 0.960 . S
C1298 H1285 0.960 . S
C1298 C1297 1.524 . S
C1299 C1296 1.403 . S
C1299 C1300 1.392 . S
C1299 C1303 1.495 . S
C1300 C1299 1.392 . S
C1300 C1301 1.385 . S
C1300 C1302 1.478 . S
C1301 H1295 0.930 . S
C1301 C1297 1.400 . S
C1301 C1300 1.385 . S
C1302 C1300 1.478 . S
C1302 C1304 1.381 . S
C1302 C1308 1.383 . S
C1303 C1299 1.495 . S
C1303 H1309 0.959 . S
C1303 H1310 0.961 . S
C1303 H1311 0.960 . S
C1304 C1302 1.381 . S
C1304 C1305 1.394 . S
C1304 H1312 0.930 . S
C1305 C1304 1.394 . S
C1305 C1306 1.383 . S
C1305 H1313 0.929 . S
C1306 C1305 1.383 . S
C1306 C1307 1.377 . S
C1307 H1291 0.930 . S
C1307 C1306 1.377 . S
C1307 C1308 1.379 . S
C1308 H1292 0.931 . S
C1308 C1302 1.383 . S
C1308 C1307 1.379 . S
H1309 C1303 0.959 . S
H1310 C1303 0.961 . S
H1311 C1303 0.960 . S
H1312 C1304 0.930 . S
H1313 C1305 0.929 . S
H1314 C1322 0.929 . S
H1315 C1324 0.930 . S
H1316 C1326 0.930 . S
H1317 C1329 0.929 . S
H1318 C1332 0.930 . S
H1319 C1334 0.960 . S
H1320 C1334 0.960 . S
H1321 C1334 0.960 . S
C1322 H1314 0.929 . S
C1322 C1323 1.377 . S
C1322 C1324 1.384 . S
C1323 C1322 1.377 . S
C1323 C1329 1.390 . S
C1324 H1315 0.930 . S
C1324 C1322 1.384 . S
C1324 C1325 1.372 . S
C1325 C1324 1.372 . S
C1325 C1326 1.400 . S
C1325 C1330 1.490 . S
C1326 H1316 0.930 . S
C1326 C1325 1.400 . S
C1326 C1329 1.386 . S
H1327 C1343 0.930 . S
H1328 C1344 0.931 . S
C1329 H1317 0.929 . S
C1329 C1323 1.390 . S
C1329 C1326 1.386 . S
C1330 C1325 1.490 . S
C1330 C1332 1.395 . S
C1330 C1333 1.403 . S
H1331 C1337 0.930 . S
C1332 H1318 0.930 . S
C1332 C1330 1.395 . S
C1332 C1335 1.403 . S
C1333 C1330 1.403 . S
C1333 C1334 1.524 . S
C1333 C1337 1.400 . S
C1334 H1319 0.960 . S
C1334 H1320 0.960 . S
C1334 H1321 0.960 . S
C1334 C1333 1.524 . S
C1335 C1332 1.403 . S
C1335 C1336 1.392 . S
C1335 C1339 1.495 . S
C1336 C1335 1.392 . S
C1336 C1337 1.385 . S
C1336 C1338 1.478 . S
C1337 H1331 0.930 . S
C1337 C1333 1.400 . S
C1337 C1336 1.385 . S
C1338 C1336 1.478 . S
C1338 C1340 1.381 . S
C1338 C1344 1.383 . S
C1339 C1335 1.495 . S
C1339 H1345 0.959 . S
C1339 H1346 0.961 . S
C1339 H1347 0.960 . S
C1340 C1338 1.381 . S
C1340 C1341 1.394 . S
C1340 H1348 0.930 . S
C1341 C1340 1.394 . S
C1341 C1342 1.383 . S
C1341 H1349 0.929 . S
C1342 C1341 1.383 . S
C1342 C1343 1.377 . S
C1343 H1327 0.930 . S
C1343 C1342 1.377 . S
C1343 C1344 1.379 . S
C1344 H1328 0.931 . S
C1344 C1338 1.383 . S
C1344 C1343 1.379 . S
H1345 C1339 0.959 . S
H1346 C1339 0.961 . S
H1347 C1339 0.960 . S
H1348 C1340 0.930 . S
H1349 C1341 0.929 . S
H1350 C1358 0.929 . S
H1351 C1360 0.930 . S
H1352 C1362 0.930 . S
H1353 C1365 0.929 . S
H1354 C1368 0.930 . S
H1355 C1370 0.943 1_545 S
H1356 C1370 0.958 . S
H1357 C1370 0.972 . S
C1358 H1350 0.929 . S
C1358 C1359 1.377 . S
C1358 C1360 1.384 . S
C1359 C1358 1.377 . S
C1359 C1365 1.390 . S
C1360 H1351 0.930 . S
C1360 C1358 1.384 . S
C1360 C1361 1.372 . S
C1361 C1360 1.372 . S
C1361 C1362 1.400 . S
C1361 C1366 1.490 . S
C1362 H1352 0.930 . S
C1362 C1361 1.400 . S
C1362 C1365 1.386 . S
H1363 C1379 0.930 . S
H1364 C1380 0.931 . S
C1365 H1353 0.929 . S
C1365 C1359 1.390 . S
C1365 C1362 1.386 . S
C1366 C1361 1.490 . S
C1366 C1368 1.395 . S
C1366 C1369 1.365 1_565 S
H1367 C1373 0.930 . S
C1368 H1354 0.930 . S
C1368 C1366 1.395 . S
C1368 C1371 1.403 1_565 S
C1369 C1366 1.365 1_545 S
C1369 C1370 1.548 1_545 S
C1369 C1373 1.423 . S
C1370 H1355 0.943 1_565 S
C1370 H1356 0.958 . S
C1370 H1357 0.972 . S
C1370 C1369 1.548 1_565 S
C1371 C1368 1.403 1_545 S
C1371 C1372 1.392 . S
C1371 C1375 1.495 . S
C1372 C1371 1.392 . S
C1372 C1373 1.385 . S
C1372 C1374 1.478 . S
C1373 H1367 0.930 . S
C1373 C1369 1.423 . S
C1373 C1372 1.385 . S
C1374 C1372 1.478 . S
C1374 C1376 1.381 . S
C1374 C1380 1.383 . S
C1375 C1371 1.495 . S
C1375 H1381 0.959 1_545 S
C1375 H1382 0.961 . S
C1375 H1383 0.960 . S
C1376 C1374 1.381 . S
C1376 C1377 1.394 . S
C1376 H1384 0.930 . S
C1377 C1376 1.394 . S
C1377 C1378 1.383 . S
C1377 H1385 0.929 . S
C1378 C1377 1.383 . S
C1378 C1379 1.377 . S
C1379 H1363 0.930 . S
C1379 C1378 1.377 . S
C1379 C1380 1.379 . S
C1380 H1364 0.931 . S
C1380 C1374 1.383 . S
C1380 C1379 1.379 . S
H1381 C1375 0.959 1_565 S
H1382 C1375 0.961 . S
H1383 C1375 0.960 . S
H1384 C1376 0.930 . S
H1385 C1377 0.929 . S
H1386 C1394 0.929 . S
H1387 C1396 0.930 . S
H1388 C1398 0.930 . S
H1389 C1401 0.929 . S
H1390 C1404 0.930 . S
H1391 C1406 0.960 1_655 S
H1392 C1406 0.960 . S
H1393 C1406 0.960 . S
C1394 H1386 0.929 . S
C1394 C1395 1.377 . S
C1394 C1396 1.384 . S
C1395 C1394 1.377 . S
C1395 C1401 1.390 . S
C1396 H1387 0.930 . S
C1396 C1394 1.384 . S
C1396 C1397 1.372 . S
C1397 C1396 1.372 . S
C1397 C1398 1.400 . S
C1397 C1402 1.490 . S
C1398 H1388 0.930 . S
C1398 C1397 1.400 . S
C1398 C1401 1.386 . S
H1399 C1415 0.930 . S
H1400 C1416 0.931 . S
C1401 H1389 0.929 . S
C1401 C1395 1.390 . S
C1401 C1398 1.386 . S
C1402 C1397 1.490 . S
C1402 C1404 1.395 . S
C1402 C1405 1.403 . S
H1403 C1409 0.930 . S
C1404 H1390 0.930 . S
C1404 C1402 1.395 . S
C1404 C1407 1.403 . S
C1405 C1402 1.403 . S
C1405 C1406 1.524 . S
C1405 C1409 1.400 1_455 S
C1406 H1391 0.960 1_455 S
C1406 H1392 0.960 . S
C1406 H1393 0.960 . S
C1406 C1405 1.524 . S
C1407 C1404 1.403 . S
C1407 C1408 1.392 1_455 S
C1407 C1411 1.495 . S
C1408 C1407 1.392 1_655 S
C1408 C1409 1.385 . S
C1408 C1410 1.478 . S
C1409 H1403 0.930 . S
C1409 C1405 1.400 1_655 S
C1409 C1408 1.385 . S
C1410 C1408 1.478 . S
C1410 C1412 1.381 . S
C1410 C1416 1.383 . S
C1411 C1407 1.495 . S
C1411 H1417 0.959 . S
C1411 H1418 0.961 . S
C1411 H1419 0.960 1_455 S
C1412 C1410 1.381 . S
C1412 C1413 1.394 . S
C1412 H1420 0.930 . S
C1413 C1412 1.394 . S
C1413 C1414 1.383 . S
C1413 H1421 0.929 . S
C1414 C1413 1.383 . S
C1414 C1415 1.377 . S
C1415 H1399 0.930 . S
C1415 C1414 1.377 . S
C1415 C1416 1.379 . S
C1416 H1400 0.931 . S
C1416 C1410 1.383 . S
C1416 C1415 1.379 . S
H1417 C1411 0.959 . S
H1418 C1411 0.961 . S
H1419 C1411 0.960 1_655 S
H1420 C1412 0.930 . S
H1421 C1413 0.929 . S
H1422 C1430 0.929 . S
H1423 C1432 0.930 . S
H1424 C1434 0.930 . S
H1425 C1437 0.929 . S
H1426 C1440 0.930 . S
H1427 C1442 0.960 . S
H1428 C1442 0.960 . S
H1429 C1442 0.960 . S
C1430 H1422 0.929 . S
C1430 C1431 1.377 . S
C1430 C1432 1.384 . S
C1431 C1430 1.377 . S
C1431 C1437 1.390 . S
C1432 H1423 0.930 . S
C1432 C1430 1.384 . S
C1432 C1433 1.372 . S
C1433 C1432 1.372 . S
C1433 C1434 1.400 . S
C1433 C1438 1.490 . S
C1434 H1424 0.930 . S
C1434 C1433 1.400 . S
C1434 C1437 1.386 . S
H1435 C1451 0.930 . S
H1436 C1452 0.931 . S
C1437 H1425 0.929 . S
C1437 C1431 1.390 . S
C1437 C1434 1.386 . S
C1438 C1433 1.490 . S
C1438 C1440 1.395 . S
C1438 C1441 1.403 . S
H1439 C1445 0.930 . S
C1440 H1426 0.930 . S
C1440 C1438 1.395 . S
C1440 C1443 1.403 . S
C1441 C1438 1.403 . S
C1441 C1442 1.524 . S
C1441 C1445 1.400 . S
C1442 H1427 0.960 . S
C1442 H1428 0.960 . S
C1442 H1429 0.960 . S
C1442 C1441 1.524 . S
C1443 C1440 1.403 . S
C1443 C1444 1.392 . S
C1443 C1447 1.495 . S
C1444 C1443 1.392 . S
C1444 C1445 1.385 . S
C1444 C1446 1.478 . S
C1445 H1439 0.930 . S
C1445 C1441 1.400 . S
C1445 C1444 1.385 . S
C1446 C1444 1.478 . S
C1446 C1448 1.381 . S
C1446 C1452 1.383 . S
C1447 C1443 1.495 . S
C1447 H1453 0.959 . S
C1447 H1454 0.961 . S
C1447 H1455 0.960 . S
C1448 C1446 1.381 . S
C1448 C1449 1.394 . S
C1448 H1456 0.930 . S
C1449 C1448 1.394 . S
C1449 C1450 1.383 . S
C1449 H1457 0.929 . S
C1450 C1449 1.383 . S
C1450 C1451 1.377 . S
C1451 H1435 0.930 . S
C1451 C1450 1.377 . S
C1451 C1452 1.379 . S
C1452 H1436 0.931 . S
C1452 C1446 1.383 . S
C1452 C1451 1.379 . S
H1453 C1447 0.959 . S
H1454 C1447 0.961 . S
H1455 C1447 0.960 . S
H1456 C1448 0.930 . S
H1457 C1449 0.929 . S
H1458 C1466 0.929 . S
H1459 C1468 0.930 . S
H1460 C1470 0.930 . S
H1461 C1473 0.929 . S
H1462 C1476 0.930 . S
H1463 C1478 0.960 1_655 S
H1464 C1478 0.960 . S
H1465 C1478 0.960 . S
C1466 H1458 0.929 . S
C1466 C1467 1.377 . S
C1466 C1468 1.384 . S
C1467 C1466 1.377 . S
C1467 C1473 1.390 . S
C1468 H1459 0.930 . S
C1468 C1466 1.384 . S
C1468 C1469 1.372 . S
C1469 C1468 1.372 . S
C1469 C1470 1.400 . S
C1469 C1474 1.490 1_455 S
C1470 H1460 0.930 . S
C1470 C1469 1.400 . S
C1470 C1473 1.386 . S
H1471 C1487 0.930 . S
H1472 C1488 0.931 . S
C1473 H1461 0.929 . S
C1473 C1467 1.390 . S
C1473 C1470 1.386 . S
C1474 C1469 1.490 1_655 S
C1474 C1476 1.395 . S
C1474 C1477 1.403 . S
H1475 C1481 0.930 . S
C1476 H1462 0.930 . S
C1476 C1474 1.395 . S
C1476 C1479 1.403 . S
C1477 C1474 1.403 . S
C1477 C1478 1.524 1_655 S
C1477 C1481 1.400 . S
C1478 H1463 0.960 1_455 S
C1478 H1464 0.960 . S
C1478 H1465 0.960 . S
C1478 C1477 1.524 1_455 S
C1479 C1476 1.403 . S
C1479 C1480 1.392 . S
C1479 C1483 1.495 . S
C1480 C1479 1.392 . S
C1480 C1481 1.385 . S
C1480 C1482 1.478 . S
C1481 H1475 0.930 . S
C1481 C1477 1.400 . S
C1481 C1480 1.385 . S
C1482 C1480 1.478 . S
C1482 C1484 1.381 . S
C1482 C1488 1.383 . S
C1483 C1479 1.495 . S
C1483 H1489 0.959 . S
C1483 H1490 0.961 . S
C1483 H1491 0.960 . S
C1484 C1482 1.381 . S
C1484 C1485 1.394 . S
C1484 H1492 0.930 . S
C1485 C1484 1.394 . S
C1485 C1486 1.383 . S
C1485 H1493 0.929 . S
C1486 C1485 1.383 . S
C1486 C1487 1.377 . S
C1487 H1471 0.930 . S
C1487 C1486 1.377 . S
C1487 C1488 1.379 . S
C1488 H1472 0.931 . S
C1488 C1482 1.383 . S
C1488 C1487 1.379 . S
H1489 C1483 0.959 . S
H1490 C1483 0.961 . S
H1491 C1483 0.960 . S
H1492 C1484 0.930 . S
H1493 C1485 0.929 . S
H1494 C1502 0.929 . S
H1495 C1504 0.930 . S
H1496 C1506 0.930 . S
H1497 C1509 0.929 . S
H1498 C1512 0.930 . S
H1499 C1514 0.960 . S
H1500 C1514 0.960 . S
H1501 C1514 0.960 . S
C1502 H1494 0.929 . S
C1502 C1503 1.377 . S
C1502 C1504 1.384 . S
C1503 C1502 1.377 . S
C1503 C1509 1.390 . S
C1504 H1495 0.930 . S
C1504 C1502 1.384 . S
C1504 C1505 1.372 . S
C1505 C1504 1.372 . S
C1505 C1506 1.400 . S
C1505 C1510 1.490 . S
C1506 H1496 0.930 . S
C1506 C1505 1.400 . S
C1506 C1509 1.386 . S
H1507 C1523 0.930 . S
H1508 C1524 0.931 . S
C1509 H1497 0.929 . S
C1509 C1503 1.390 . S
C1509 C1506 1.386 . S
C1510 C1505 1.490 . S
C1510 C1512 1.395 . S
C1510 C1513 1.403 . S
H1511 C1517 0.930 . S
C1512 H1498 0.930 . S
C1512 C1510 1.395 . S
C1512 C1515 1.403 . S
C1513 C1510 1.403 . S
C1513 C1514 1.524 . S
C1513 C1517 1.400 . S
C1514 H1499 0.960 . S
C1514 H1500 0.960 . S
C1514 H1501 0.960 . S
C1514 C1513 1.524 . S
C1515 C1512 1.403 . S
C1515 C1516 1.392 . S
C1515 C1519 1.495 . S
C1516 C1515 1.392 . S
C1516 C1517 1.385 . S
C1516 C1518 1.478 . S
C1517 H1511 0.930 . S
C1517 C1513 1.400 . S
C1517 C1516 1.385 . S
C1518 C1516 1.478 . S
C1518 C1520 1.381 . S
C1518 C1524 1.383 . S
C1519 C1515 1.495 . S
C1519 H1525 0.959 . S
C1519 H1526 0.961 . S
C1519 H1527 0.960 . S
C1520 C1518 1.381 . S
C1520 C1521 1.394 . S
C1520 H1528 0.930 . S
C1521 C1520 1.394 . S
C1521 C1522 1.383 . S
C1521 H1529 0.929 . S
C1522 C1521 1.383 . S
C1522 C1523 1.377 . S
C1523 H1507 0.930 . S
C1523 C1522 1.377 . S
C1523 C1524 1.379 . S
C1524 H1508 0.931 . S
C1524 C1518 1.383 . S
C1524 C1523 1.379 . S
H1525 C1519 0.959 . S
H1526 C1519 0.961 . S
H1527 C1519 0.960 . S
H1528 C1520 0.930 . S
H1529 C1521 0.929 . S
H1530 C1538 0.929 . S
H1531 C1540 0.930 . S
H1532 C1542 0.930 . S
H1533 C1545 0.929 . S
H1534 C1548 0.930 . S
H1535 C1550 0.960 . S
H1536 C1550 0.960 . S
H1537 C1550 0.960 . S
C1538 H1530 0.929 . S
C1538 C1539 1.377 . S
C1538 C1540 1.384 . S
C1539 C1538 1.377 . S
C1539 C1545 1.390 . S
C1540 H1531 0.930 . S
C1540 C1538 1.384 . S
C1540 C1541 1.372 . S
C1541 C1540 1.372 . S
C1541 C1542 1.400 . S
C1541 C1546 1.490 1_565 S
C1542 H1532 0.930 . S
C1542 C1541 1.400 . S
C1542 C1545 1.386 . S
H1543 C1559 0.930 . S
H1544 C1560 0.931 . S
C1545 H1533 0.929 . S
C1545 C1539 1.390 . S
C1545 C1542 1.386 . S
C1546 C1541 1.490 1_545 S
C1546 C1548 1.395 . S
C1546 C1549 1.403 . S
H1547 C1553 0.930 . S
C1548 H1534 0.930 . S
C1548 C1546 1.395 . S
C1548 C1551 1.403 . S
C1549 C1546 1.403 . S
C1549 C1550 1.524 . S
C1549 C1553 1.400 . S
C1550 H1535 0.960 . S
C1550 H1536 0.960 . S
C1550 H1537 0.960 . S
C1550 C1549 1.524 . S
C1551 C1548 1.403 . S
C1551 C1552 1.392 . S
C1551 C1555 1.495 . S
C1552 C1551 1.392 . S
C1552 C1553 1.385 . S
C1552 C1554 1.478 . S
C1553 H1547 0.930 . S
C1553 C1549 1.400 . S
C1553 C1552 1.385 . S
C1554 C1552 1.478 . S
C1554 C1556 1.381 . S
C1554 C1560 1.383 . S
C1555 C1551 1.495 . S
C1555 H1561 0.959 . S
C1555 H1562 0.961 . S
C1555 H1563 0.960 . S
C1556 C1554 1.381 . S
C1556 C1557 1.394 . S
C1556 H1564 0.930 . S
C1557 C1556 1.394 . S
C1557 C1558 1.383 . S
C1557 H1565 0.929 . S
C1558 C1557 1.383 . S
C1558 C1559 1.377 . S
C1559 H1543 0.930 . S
C1559 C1558 1.377 . S
C1559 C1560 1.379 . S
C1560 H1544 0.931 . S
C1560 C1554 1.383 . S
C1560 C1559 1.379 . S
H1561 C1555 0.959 . S
H1562 C1555 0.961 . S
H1563 C1555 0.960 . S
H1564 C1556 0.930 . S
H1565 C1557 0.929 . S
H1566 C1574 0.929 . S
H1567 C1576 0.930 . S
H1568 C1578 0.930 . S
H1569 C1581 0.929 . S
H1570 C1584 0.930 . S
H1571 C1586 0.960 . S
H1572 C1586 0.960 . S
H1573 C1586 0.960 . S
C1574 H1566 0.929 . S
C1574 C1575 1.377 . S
C1574 C1576 1.384 . S
C1575 C1574 1.377 . S
C1575 C1581 1.390 . S
C1576 H1567 0.930 . S
C1576 C1574 1.384 . S
C1576 C1577 1.372 . S
C1577 C1576 1.372 . S
C1577 C1578 1.400 . S
C1577 C1582 1.490 . S
C1578 H1568 0.930 . S
C1578 C1577 1.400 . S
C1578 C1581 1.386 . S
H1579 C1595 0.930 . S
H1580 C1596 0.931 . S
C1581 H1569 0.929 . S
C1581 C1575 1.390 . S
C1581 C1578 1.386 . S
C1582 C1577 1.490 . S
C1582 C1584 1.395 . S
C1582 C1585 1.403 . S
H1583 C1589 0.930 . S
C1584 H1570 0.930 . S
C1584 C1582 1.395 . S
C1584 C1587 1.403 . S
C1585 C1582 1.403 . S
C1585 C1586 1.524 . S
C1585 C1589 1.400 . S
C1586 H1571 0.960 . S
C1586 H1572 0.960 . S
C1586 H1573 0.960 . S
C1586 C1585 1.524 . S
C1587 C1584 1.403 . S
C1587 C1588 1.392 . S
C1587 C1591 1.495 . S
C1588 C1587 1.392 . S
C1588 C1589 1.385 . S
C1588 C1590 1.478 . S
C1589 H1583 0.930 . S
C1589 C1585 1.400 . S
C1589 C1588 1.385 . S
C1590 C1588 1.478 . S
C1590 C1592 1.381 . S
C1590 C1596 1.383 . S
C1591 C1587 1.495 . S
C1591 H1597 0.959 . S
C1591 H1598 0.961 . S
C1591 H1599 0.960 . S
C1592 C1590 1.381 . S
C1592 C1593 1.394 . S
C1592 H1600 0.930 . S
C1593 C1592 1.394 . S
C1593 C1594 1.383 . S
C1593 H1601 0.929 . S
C1594 C1593 1.383 . S
C1594 C1595 1.377 . S
C1595 H1579 0.930 . S
C1595 C1594 1.377 . S
C1595 C1596 1.379 . S
C1596 H1580 0.931 . S
C1596 C1590 1.383 . S
C1596 C1595 1.379 . S
H1597 C1591 0.959 . S
H1598 C1591 0.961 . S
H1599 C1591 0.960 . S
H1600 C1592 0.930 . S
H1601 C1593 0.929 . S
H1602 C1610 0.929 . S
H1603 C1612 0.930 . S
H1604 C1614 0.930 . S
H1605 C1617 0.929 . S
H1606 C1620 0.930 . S
H1607 C1622 0.960 . S
H1608 C1622 0.960 . S
H1609 C1622 0.960 . S
C1610 H1602 0.929 . S
C1610 C1611 1.377 . S
C1610 C1612 1.384 . S
C1611 C1610 1.377 . S
C1611 C1617 1.390 . S
C1612 H1603 0.930 . S
C1612 C1610 1.384 . S
C1612 C1613 1.372 . S
C1613 C1612 1.372 . S
C1613 C1614 1.400 . S
C1613 C1618 1.490 . S
C1614 H1604 0.930 . S
C1614 C1613 1.400 . S
C1614 C1617 1.386 . S
H1615 C1631 0.930 . S
H1616 C1632 0.931 . S
C1617 H1605 0.929 . S
C1617 C1611 1.390 . S
C1617 C1614 1.386 . S
C1618 C1613 1.490 . S
C1618 C1620 1.395 . S
C1618 C1621 1.403 . S
H1619 C1625 0.930 . S
C1620 H1606 0.930 . S
C1620 C1618 1.395 . S
C1620 C1623 1.403 . S
C1621 C1618 1.403 . S
C1621 C1622 1.524 . S
C1621 C1625 1.400 . S
C1622 H1607 0.960 . S
C1622 H1608 0.960 . S
C1622 H1609 0.960 . S
C1622 C1621 1.524 . S
C1623 C1620 1.403 . S
C1623 C1624 1.392 . S
C1623 C1627 1.495 . S
C1624 C1623 1.392 . S
C1624 C1625 1.385 . S
C1624 C1626 1.478 . S
C1625 H1619 0.930 . S
C1625 C1621 1.400 . S
C1625 C1624 1.385 . S
C1626 C1624 1.478 . S
C1626 C1628 1.381 . S
C1626 C1632 1.383 . S
C1627 C1623 1.495 . S
C1627 H1633 0.959 . S
C1627 H1634 0.961 . S
C1627 H1635 0.960 . S
C1628 C1626 1.381 . S
C1628 C1629 1.394 . S
C1628 H1636 0.930 . S
C1629 C1628 1.394 . S
C1629 C1630 1.383 . S
C1629 H1637 0.929 . S
C1630 C1629 1.383 . S
C1630 C1631 1.377 . S
C1631 H1615 0.930 . S
C1631 C1630 1.377 . S
C1631 C1632 1.379 . S
C1632 H1616 0.931 . S
C1632 C1626 1.383 . S
C1632 C1631 1.379 . S
H1633 C1627 0.959 . S
H1634 C1627 0.961 . S
H1635 C1627 0.960 . S
H1636 C1628 0.930 . S
H1637 C1629 0.929 . S
H1638 C1646 0.929 . S
H1639 C1648 0.930 . S
H1640 C1650 0.930 . S
H1641 C1653 0.929 . S
H1642 C1656 0.930 . S
H1643 C1658 0.960 . S
H1644 C1658 0.960 . S
H1645 C1658 0.960 . S
C1646 H1638 0.929 . S
C1646 C1647 1.377 . S
C1646 C1648 1.384 . S
C1647 C1646 1.377 . S
C1647 C1653 1.390 . S
C1648 H1639 0.930 . S
C1648 C1646 1.384 . S
C1648 C1649 1.372 . S
C1649 C1648 1.372 . S
C1649 C1650 1.400 . S
C1649 C1654 1.490 . S
C1650 H1640 0.930 . S
C1650 C1649 1.400 . S
C1650 C1653 1.386 . S
H1651 C1667 0.930 . S
H1652 C1668 0.931 . S
C1653 H1641 0.929 . S
C1653 C1647 1.390 . S
C1653 C1650 1.386 . S
C1654 C1649 1.490 . S
C1654 C1656 1.395 . S
C1654 C1657 1.403 . S
H1655 C1661 0.930 . S
C1656 H1642 0.930 . S
C1656 C1654 1.395 . S
C1656 C1659 1.403 . S
C1657 C1654 1.403 . S
C1657 C1658 1.524 . S
C1657 C1661 1.400 . S
C1658 H1643 0.960 . S
C1658 H1644 0.960 . S
C1658 H1645 0.960 . S
C1658 C1657 1.524 . S
C1659 C1656 1.403 . S
C1659 C1660 1.392 . S
C1659 C1663 1.495 . S
C1660 C1659 1.392 . S
C1660 C1661 1.385 . S
C1660 C1662 1.478 . S
C1661 H1655 0.930 . S
C1661 C1657 1.400 . S
C1661 C1660 1.385 . S
C1662 C1660 1.478 . S
C1662 C1664 1.381 . S
C1662 C1668 1.383 . S
C1663 C1659 1.495 . S
C1663 H1669 0.959 . S
C1663 H1670 0.961 . S
C1663 H1671 0.960 . S
C1664 C1662 1.381 . S
C1664 C1665 1.394 . S
C1664 H1672 0.930 . S
C1665 C1664 1.394 . S
C1665 C1666 1.383 . S
C1665 H1673 0.929 . S
C1666 C1665 1.383 . S
C1666 C1667 1.377 . S
C1667 H1651 0.930 . S
C1667 C1666 1.377 . S
C1667 C1668 1.379 . S
C1668 H1652 0.931 . S
C1668 C1662 1.383 . S
C1668 C1667 1.379 . S
H1669 C1663 0.959 . S
H1670 C1663 0.961 . S
H1671 C1663 0.960 . S
H1672 C1664 0.930 . S
H1673 C1665 0.929 . S
H1674 C1682 0.929 . S
H1675 C1684 0.930 . S
H1676 C1686 0.930 . S
H1677 C1689 0.929 . S
H1678 C1692 0.930 . S
H1679 C1694 0.960 . S
H1680 C1694 0.960 . S
H1681 C1694 0.960 . S
C1682 H1674 0.929 . S
C1682 C1683 1.377 . S
C1682 C1684 1.384 . S
C1683 C1682 1.377 . S
C1683 C1689 1.390 . S
C1684 H1675 0.930 . S
C1684 C1682 1.384 . S
C1684 C1685 1.372 . S
C1685 C1684 1.372 . S
C1685 C1686 1.400 . S
C1685 C1690 1.490 . S
C1686 H1676 0.930 . S
C1686 C1685 1.400 . S
C1686 C1689 1.386 . S
H1687 C1703 0.930 . S
H1688 C1704 0.931 . S
C1689 H1677 0.929 . S
C1689 C1683 1.390 . S
C1689 C1686 1.386 . S
C1690 C1685 1.490 . S
C1690 C1692 1.395 . S
C1690 C1693 1.403 . S
H1691 C1697 0.930 . S
C1692 H1678 0.930 . S
C1692 C1690 1.395 . S
C1692 C1695 1.403 . S
C1693 C1690 1.403 . S
C1693 C1694 1.524 . S
C1693 C1697 1.400 . S
C1694 H1679 0.960 . S
C1694 H1680 0.960 . S
C1694 H1681 0.960 . S
C1694 C1693 1.524 . S
C1695 C1692 1.403 . S
C1695 C1696 1.392 . S
C1695 C1699 1.495 1_565 S
C1696 C1695 1.392 . S
C1696 C1697 1.385 . S
C1696 C1698 1.478 . S
C1697 H1691 0.930 . S
C1697 C1693 1.400 . S
C1697 C1696 1.385 . S
C1698 C1696 1.478 . S
C1698 C1700 1.381 . S
C1698 C1704 1.383 . S
C1699 C1695 1.495 1_545 S
C1699 H1705 0.959 . S
C1699 H1706 0.961 . S
C1699 H1707 0.960 . S
C1700 C1698 1.381 . S
C1700 C1701 1.394 . S
C1700 H1708 0.930 . S
C1701 C1700 1.394 . S
C1701 C1702 1.383 . S
C1701 H1709 0.929 . S
C1702 C1701 1.383 . S
C1702 C1703 1.377 . S
C1703 H1687 0.930 . S
C1703 C1702 1.377 . S
C1703 C1704 1.379 . S
C1704 H1688 0.931 . S
C1704 C1698 1.383 . S
C1704 C1703 1.379 . S
H1705 C1699 0.959 . S
H1706 C1699 0.961 . S
H1707 C1699 0.960 . S
H1708 C1700 0.930 . S
H1709 C1701 0.929 . S
H1710 C1718 0.929 . S
H1711 C1720 0.930 . S
H1712 C1722 0.930 . S
H1713 C1725 0.929 . S
H1714 C1728 0.930 . S
H1715 C1730 0.960 . S
H1716 C1730 0.960 . S
H1717 C1730 0.960 . S
C1718 H1710 0.929 . S
C1718 C1719 1.377 . S
C1718 C1720 1.384 . S
C1719 C1718 1.377 . S
C1719 C1725 1.390 . S
C1720 H1711 0.930 . S
C1720 C1718 1.384 . S
C1720 C1721 1.372 . S
C1721 C1720 1.372 . S
C1721 C1722 1.400 . S
C1721 C1726 1.490 . S
C1722 H1712 0.930 . S
C1722 C1721 1.400 . S
C1722 C1725 1.386 . S
H1723 C1739 0.930 . S
H1724 C1740 0.931 . S
C1725 H1713 0.929 . S
C1725 C1719 1.390 . S
C1725 C1722 1.386 . S
C1726 C1721 1.490 . S
C1726 C1728 1.395 . S
C1726 C1729 1.403 . S
H1727 C1733 0.930 . S
C1728 H1714 0.930 . S
C1728 C1726 1.395 . S
C1728 C1731 1.403 . S
C1729 C1726 1.403 . S
C1729 C1730 1.524 . S
C1729 C1733 1.400 . S
C1730 H1715 0.960 . S
C1730 H1716 0.960 . S
C1730 H1717 0.960 . S
C1730 C1729 1.524 . S
C1731 C1728 1.403 . S
C1731 C1732 1.392 . S
C1731 C1735 1.495 . S
C1732 C1731 1.392 . S
C1732 C1733 1.385 . S
C1732 C1734 1.478 . S
C1733 H1727 0.930 . S
C1733 C1729 1.400 . S
C1733 C1732 1.385 . S
C1734 C1732 1.478 . S
C1734 C1736 1.381 . S
C1734 C1740 1.383 . S
C1735 C1731 1.495 . S
C1735 H1741 0.959 . S
C1735 H1742 0.961 . S
C1735 H1743 0.960 . S
C1736 C1734 1.381 . S
C1736 C1737 1.394 . S
C1736 H1744 0.930 . S
C1737 C1736 1.394 . S
C1737 C1738 1.383 . S
C1737 H1745 0.929 . S
C1738 C1737 1.383 . S
C1738 C1739 1.377 . S
C1739 H1723 0.930 . S
C1739 C1738 1.377 . S
C1739 C1740 1.379 . S
C1740 H1724 0.931 . S
C1740 C1734 1.383 . S
C1740 C1739 1.379 . S
H1741 C1735 0.959 . S
H1742 C1735 0.961 . S
H1743 C1735 0.960 . S
H1744 C1736 0.930 . S
H1745 C1737 0.929 . S
H1746 C1754 0.929 . S
H1747 C1756 0.930 . S
H1748 C1758 0.930 . S
H1749 C1761 0.929 . S
H1750 C1764 0.930 . S
H1751 C1766 0.960 . S
H1752 C1766 0.960 . S
H1753 C1766 0.960 . S
C1754 H1746 0.929 . S
C1754 C1755 1.377 . S
C1754 C1756 1.384 . S
C1755 C1754 1.377 . S
C1755 C1761 1.390 . S
C1756 H1747 0.930 . S
C1756 C1754 1.384 . S
C1756 C1757 1.372 . S
C1757 C1756 1.372 . S
C1757 C1758 1.400 . S
C1757 C1762 1.490 . S
C1758 H1748 0.930 . S
C1758 C1757 1.400 . S
C1758 C1761 1.386 . S
H1759 C1775 0.930 . S
H1760 C1776 0.931 . S
C1761 H1749 0.929 . S
C1761 C1755 1.390 . S
C1761 C1758 1.386 . S
C1762 C1757 1.490 . S
C1762 C1764 1.395 . S
C1762 C1765 1.403 . S
H1763 C1769 0.930 . S
C1764 H1750 0.930 . S
C1764 C1762 1.395 . S
C1764 C1767 1.403 . S
C1765 C1762 1.403 . S
C1765 C1766 1.524 . S
C1765 C1769 1.400 . S
C1766 H1751 0.960 . S
C1766 H1752 0.960 . S
C1766 H1753 0.960 . S
C1766 C1765 1.524 . S
C1767 C1764 1.403 . S
C1767 C1768 1.392 . S
C1767 C1771 1.495 . S
C1768 C1767 1.392 . S
C1768 C1769 1.385 . S
C1768 C1770 1.478 . S
C1769 H1763 0.930 . S
C1769 C1765 1.400 . S
C1769 C1768 1.385 . S
C1770 C1768 1.478 . S
C1770 C1772 1.381 . S
C1770 C1776 1.383 . S
C1771 C1767 1.495 . S
C1771 H1777 0.959 . S
C1771 H1778 0.961 . S
C1771 H1779 0.960 . S
C1772 C1770 1.381 . S
C1772 C1773 1.394 . S
C1772 H1780 0.930 . S
C1773 C1772 1.394 . S
C1773 C1774 1.383 . S
C1773 H1781 0.929 . S
C1774 C1773 1.383 . S
C1774 C1775 1.377 . S
C1775 H1759 0.930 . S
C1775 C1774 1.377 . S
C1775 C1776 1.379 . S
C1776 H1760 0.931 . S
C1776 C1770 1.383 . S
C1776 C1775 1.379 . S
H1777 C1771 0.959 . S
H1778 C1771 0.961 . S
H1779 C1771 0.960 . S
H1780 C1772 0.930 . S
H1781 C1773 0.929 . S
H1782 C1790 0.929 . S
H1783 C1792 0.930 . S
H1784 C1794 0.930 . S
H1785 C1797 0.929 . S
H1786 C1800 0.930 . S
H1787 C1802 0.960 . S
H1788 C1802 0.960 . S
H1789 C1802 0.960 . S
C1790 H1782 0.929 . S
C1790 C1791 1.377 . S
C1790 C1792 1.384 . S
C1791 C1790 1.377 . S
C1791 C1797 1.390 . S
C1792 H1783 0.930 . S
C1792 C1790 1.384 . S
C1792 C1793 1.372 . S
C1793 C1792 1.372 . S
C1793 C1794 1.400 . S
C1793 C1798 1.490 . S
C1794 H1784 0.930 . S
C1794 C1793 1.400 . S
C1794 C1797 1.386 . S
H1795 C1811 0.930 1_455 S
H1796 C1812 0.931 . S
C1797 H1785 0.929 . S
C1797 C1791 1.390 . S
C1797 C1794 1.386 . S
C1798 C1793 1.490 . S
C1798 C1800 1.395 . S
C1798 C1801 1.403 . S
H1799 C1805 0.930 . S
C1800 H1786 0.930 . S
C1800 C1798 1.395 . S
C1800 C1803 1.403 . S
C1801 C1798 1.403 . S
C1801 C1802 1.524 . S
C1801 C1805 1.400 . S
C1802 H1787 0.960 . S
C1802 H1788 0.960 . S
C1802 H1789 0.960 . S
C1802 C1801 1.524 . S
C1803 C1800 1.403 . S
C1803 C1804 1.392 . S
C1803 C1807 1.495 . S
C1804 C1803 1.392 . S
C1804 C1805 1.385 . S
C1804 C1806 1.478 . S
C1805 H1799 0.930 . S
C1805 C1801 1.400 . S
C1805 C1804 1.385 . S
C1806 C1804 1.478 . S
C1806 C1808 1.381 . S
C1806 C1812 1.383 . S
C1807 C1803 1.495 . S
C1807 H1813 0.959 . S
C1807 H1814 0.961 . S
C1807 H1815 0.960 . S
C1808 C1806 1.381 . S
C1808 C1809 1.394 . S
C1808 H1816 0.930 . S
C1809 C1808 1.394 . S
C1809 C1810 1.383 . S
C1809 H1817 0.929 . S
C1810 C1809 1.383 . S
C1810 C1811 1.377 . S
C1811 H1795 0.930 1_655 S
C1811 C1810 1.377 . S
C1811 C1812 1.379 . S
C1812 H1796 0.931 . S
C1812 C1806 1.383 . S
C1812 C1811 1.379 . S
H1813 C1807 0.959 . S
H1814 C1807 0.961 . S
H1815 C1807 0.960 . S
H1816 C1808 0.930 . S
H1817 C1809 0.929 . S
H1818 C1826 0.929 . S
H1819 C1828 0.930 . S
H1820 C1830 0.930 . S
H1821 C1833 0.929 . S
H1822 C1836 0.930 . S
H1823 C1838 0.960 . S
H1824 C1838 0.960 . S
H1825 C1838 0.960 . S
C1826 H1818 0.929 . S
C1826 C1827 1.377 . S
C1826 C1828 1.384 . S
C1827 C1826 1.377 . S
C1827 C1833 1.390 . S
C1828 H1819 0.930 . S
C1828 C1826 1.384 . S
C1828 C1829 1.372 . S
C1829 C1828 1.372 . S
C1829 C1830 1.400 . S
C1829 C1834 1.490 . S
C1830 H1820 0.930 . S
C1830 C1829 1.400 . S
C1830 C1833 1.386 . S
H1831 C1847 0.930 . S
H1832 C1848 0.931 . S
C1833 H1821 0.929 . S
C1833 C1827 1.390 . S
C1833 C1830 1.386 . S
C1834 C1829 1.490 . S
C1834 C1836 1.395 . S
C1834 C1837 1.403 . S
H1835 C1841 0.930 . S
C1836 H1822 0.930 . S
C1836 C1834 1.395 . S
C1836 C1839 1.403 . S
C1837 C1834 1.403 . S
C1837 C1838 1.524 . S
C1837 C1841 1.400 . S
C1838 H1823 0.960 . S
C1838 H1824 0.960 . S
C1838 H1825 0.960 . S
C1838 C1837 1.524 . S
C1839 C1836 1.403 . S
C1839 C1840 1.392 . S
C1839 C1843 1.495 . S
C1840 C1839 1.392 . S
C1840 C1841 1.385 . S
C1840 C1842 1.478 . S
C1841 H1835 0.930 . S
C1841 C1837 1.400 . S
C1841 C1840 1.385 . S
C1842 C1840 1.478 . S
C1842 C1844 1.381 . S
C1842 C1848 1.383 . S
C1843 C1839 1.495 . S
C1843 H1849 0.959 . S
C1843 H1850 0.961 . S
C1843 H1851 0.960 . S
C1844 C1842 1.381 . S
C1844 C1845 1.394 . S
C1844 H1852 0.930 . S
C1845 C1844 1.394 . S
C1845 C1846 1.383 . S
C1845 H1853 0.929 . S
C1846 C1845 1.383 . S
C1846 C1847 1.377 . S
C1847 H1831 0.930 . S
C1847 C1846 1.377 . S
C1847 C1848 1.379 . S
C1848 H1832 0.931 . S
C1848 C1842 1.383 . S
C1848 C1847 1.379 . S
H1849 C1843 0.959 . S
H1850 C1843 0.961 . S
H1851 C1843 0.960 . S
H1852 C1844 0.930 . S
H1853 C1845 0.929 . S
H1854 C1862 0.929 . S
H1855 C1864 0.930 . S
H1856 C1866 0.930 . S
H1857 C1869 0.929 . S
H1858 C1872 0.930 . S
H1859 C1874 0.960 . S
H1860 C1874 0.960 . S
H1861 C1874 0.960 . S
C1862 H1854 0.929 . S
C1862 C1863 1.377 . S
C1862 C1864 1.384 . S
C1863 C1862 1.377 . S
C1863 C1869 1.390 . S
C1864 H1855 0.930 . S
C1864 C1862 1.384 . S
C1864 C1865 1.372 . S
C1865 C1864 1.372 . S
C1865 C1866 1.400 . S
C1865 C1870 1.490 . S
C1866 H1856 0.930 . S
C1866 C1865 1.400 . S
C1866 C1869 1.386 . S
H1867 C1883 0.930 . S
H1868 C1884 0.931 . S
C1869 H1857 0.929 . S
C1869 C1863 1.390 . S
C1869 C1866 1.386 . S
C1870 C1865 1.490 . S
C1870 C1872 1.395 . S
C1870 C1873 1.403 . S
H1871 C1877 0.930 . S
C1872 H1858 0.930 . S
C1872 C1870 1.395 . S
C1872 C1875 1.403 . S
C1873 C1870 1.403 . S
C1873 C1874 1.524 . S
C1873 C1877 1.400 . S
C1874 H1859 0.960 . S
C1874 H1860 0.960 . S
C1874 H1861 0.960 . S
C1874 C1873 1.524 . S
C1875 C1872 1.403 . S
C1875 C1876 1.392 . S
C1875 C1879 1.495 . S
C1876 C1875 1.392 . S
C1876 C1877 1.385 . S
C1876 C1878 1.478 . S
C1877 H1871 0.930 . S
C1877 C1873 1.400 . S
C1877 C1876 1.385 . S
C1878 C1876 1.478 . S
C1878 C1880 1.381 . S
C1878 C1884 1.383 . S
C1879 C1875 1.495 . S
C1879 H1885 0.959 . S
C1879 H1886 0.961 . S
C1879 H1887 0.960 . S
C1880 C1878 1.381 . S
C1880 C1881 1.394 . S
C1880 H1888 0.930 . S
C1881 C1880 1.394 . S
C1881 C1882 1.383 . S
C1881 H1889 0.929 . S
C1882 C1881 1.383 . S
C1882 C1883 1.377 . S
C1883 H1867 0.930 . S
C1883 C1882 1.377 . S
C1883 C1884 1.379 . S
C1884 H1868 0.931 . S
C1884 C1878 1.383 . S
C1884 C1883 1.379 . S
H1885 C1879 0.959 . S
H1886 C1879 0.961 . S
H1887 C1879 0.960 . S
H1888 C1880 0.930 . S
H1889 C1881 0.929 . S
H1890 C1898 0.929 . S
H1891 C1900 0.930 . S
H1892 C1902 0.930 . S
H1893 C1905 0.929 . S
H1894 C1908 0.930 . S
H1895 C1910 0.960 . S
H1896 C1910 0.960 . S
H1897 C1910 0.960 . S
C1898 H1890 0.929 . S
C1898 C1899 1.377 . S
C1898 C1900 1.384 . S
C1899 C1898 1.377 . S
C1899 C1905 1.390 . S
C1900 H1891 0.930 . S
C1900 C1898 1.384 . S
C1900 C1901 1.372 . S
C1901 C1900 1.372 . S
C1901 C1902 1.400 . S
C1901 C1906 1.490 . S
C1902 H1892 0.930 . S
C1902 C1901 1.400 . S
C1902 C1905 1.386 . S
H1903 C1919 0.930 . S
H1904 C1920 0.931 . S
C1905 H1893 0.929 . S
C1905 C1899 1.390 . S
C1905 C1902 1.386 . S
C1906 C1901 1.490 . S
C1906 C1908 1.395 . S
C1906 C1909 1.403 . S
H1907 C1913 0.930 . S
C1908 H1894 0.930 . S
C1908 C1906 1.395 . S
C1908 C1911 1.403 . S
C1909 C1906 1.403 . S
C1909 C1910 1.524 . S
C1909 C1913 1.400 . S
C1910 H1895 0.960 . S
C1910 H1896 0.960 . S
C1910 H1897 0.960 . S
C1910 C1909 1.524 . S
C1911 C1908 1.403 . S
C1911 C1912 1.392 . S
C1911 C1915 1.495 . S
C1912 C1911 1.392 . S
C1912 C1913 1.385 . S
C1912 C1914 1.478 . S
C1913 H1907 0.930 . S
C1913 C1909 1.400 . S
C1913 C1912 1.385 . S
C1914 C1912 1.478 . S
C1914 C1916 1.381 . S
C1914 C1920 1.383 . S
C1915 C1911 1.495 . S
C1915 H1921 0.959 . S
C1915 H1922 0.961 . S
C1915 H1923 0.960 . S
C1916 C1914 1.381 . S
C1916 C1917 1.394 . S
C1916 H1924 0.930 . S
C1917 C1916 1.394 . S
C1917 C1918 1.383 . S
C1917 H1925 0.929 . S
C1918 C1917 1.383 . S
C1918 C1919 1.377 . S
C1919 H1903 0.930 . S
C1919 C1918 1.377 . S
C1919 C1920 1.379 . S
C1920 H1904 0.931 . S
C1920 C1914 1.383 . S
C1920 C1919 1.379 . S
H1921 C1915 0.959 . S
H1922 C1915 0.961 . S
H1923 C1915 0.960 . S
H1924 C1916 0.930 . S
H1925 C1917 0.929 . S
H1926 C1934 0.929 . S
H1927 C1936 0.930 . S
H1928 C1938 0.930 . S
H1929 C1941 0.929 . S
H1930 C1944 0.930 . S
H1931 C1946 0.960 . S
H1932 C1946 0.960 . S
H1933 C1946 0.960 . S
C1934 H1926 0.929 . S
C1934 C1935 1.377 . S
C1934 C1936 1.384 . S
C1935 C1934 1.377 . S
C1935 C1941 1.390 . S
C1936 H1927 0.930 . S
C1936 C1934 1.384 . S
C1936 C1937 1.372 . S
C1937 C1936 1.372 . S
C1937 C1938 1.400 . S
C1937 C1942 1.490 . S
C1938 H1928 0.930 . S
C1938 C1937 1.400 . S
C1938 C1941 1.386 . S
H1939 C1955 0.930 . S
H1940 C1956 0.931 . S
C1941 H1929 0.929 . S
C1941 C1935 1.390 . S
C1941 C1938 1.386 . S
C1942 C1937 1.490 . S
C1942 C1944 1.395 . S
C1942 C1945 1.403 . S
H1943 C1949 0.930 . S
C1944 H1930 0.930 . S
C1944 C1942 1.395 . S
C1944 C1947 1.403 . S
C1945 C1942 1.403 . S
C1945 C1946 1.524 . S
C1945 C1949 1.400 . S
C1946 H1931 0.960 . S
C1946 H1932 0.960 . S
C1946 H1933 0.960 . S
C1946 C1945 1.524 . S
C1947 C1944 1.403 . S
C1947 C1948 1.392 . S
C1947 C1951 1.495 . S
C1948 C1947 1.392 . S
C1948 C1949 1.385 . S
C1948 C1950 1.478 . S
C1949 H1943 0.930 . S
C1949 C1945 1.400 . S
C1949 C1948 1.385 . S
C1950 C1948 1.478 . S
C1950 C1952 1.381 . S
C1950 C1956 1.383 . S
C1951 C1947 1.495 . S
C1951 H1957 0.959 . S
C1951 H1958 0.961 . S
C1951 H1959 0.960 . S
C1952 C1950 1.381 . S
C1952 C1953 1.394 . S
C1952 H1960 0.930 . S
C1953 C1952 1.394 . S
C1953 C1954 1.383 . S
C1953 H1961 0.929 . S
C1954 C1953 1.383 . S
C1954 C1955 1.377 . S
C1955 H1939 0.930 . S
C1955 C1954 1.377 . S
C1955 C1956 1.379 . S
C1956 H1940 0.931 . S
C1956 C1950 1.383 . S
C1956 C1955 1.379 . S
H1957 C1951 0.959 . S
H1958 C1951 0.961 . S
H1959 C1951 0.960 . S
H1960 C1952 0.930 . S
H1961 C1953 0.929 . S
H1962 C1970 0.929 . S
H1963 C1972 0.930 . S
H1964 C1974 0.930 . S
H1965 C1977 0.929 . S
H1966 C1980 0.930 . S
H1967 C1982 0.960 . S
H1968 C1982 0.960 . S
H1969 C1982 0.960 . S
C1970 H1962 0.929 . S
C1970 C1971 1.377 . S
C1970 C1972 1.384 . S
C1971 C1970 1.377 . S
C1971 C1977 1.390 . S
C1972 H1963 0.930 . S
C1972 C1970 1.384 . S
C1972 C1973 1.372 . S
C1973 C1972 1.372 . S
C1973 C1974 1.400 . S
C1973 C1978 1.490 . S
C1974 H1964 0.930 . S
C1974 C1973 1.400 . S
C1974 C1977 1.386 . S
H1975 C1991 0.930 . S
H1976 C1992 0.931 . S
C1977 H1965 0.929 . S
C1977 C1971 1.390 . S
C1977 C1974 1.386 . S
C1978 C1973 1.490 . S
C1978 C1980 1.395 . S
C1978 C1981 1.403 . S
H1979 C1985 0.930 . S
C1980 H1966 0.930 . S
C1980 C1978 1.395 . S
C1980 C1983 1.403 . S
C1981 C1978 1.403 . S
C1981 C1982 1.524 . S
C1981 C1985 1.400 . S
C1982 H1967 0.960 . S
C1982 H1968 0.960 . S
C1982 H1969 0.960 . S
C1982 C1981 1.524 . S
C1983 C1980 1.403 . S
C1983 C1984 1.392 . S
C1983 C1987 1.495 . S
C1984 C1983 1.392 . S
C1984 C1985 1.385 . S
C1984 C1986 1.478 . S
C1985 H1979 0.930 . S
C1985 C1981 1.400 . S
C1985 C1984 1.385 . S
C1986 C1984 1.478 . S
C1986 C1988 1.381 . S
C1986 C1992 1.383 . S
C1987 C1983 1.495 . S
C1987 H1993 0.959 . S
C1987 H1994 0.961 . S
C1987 H1995 0.960 . S
C1988 C1986 1.381 . S
C1988 C1989 1.394 . S
C1988 H1996 0.930 . S
C1989 C1988 1.394 . S
C1989 C1990 1.383 . S
C1989 H1997 0.929 . S
C1990 C1989 1.383 . S
C1990 C1991 1.377 . S
C1991 H1975 0.930 . S
C1991 C1990 1.377 . S
C1991 C1992 1.379 . S
C1992 H1976 0.931 . S
C1992 C1986 1.383 . S
C1992 C1991 1.379 . S
H1993 C1987 0.959 . S
H1994 C1987 0.961 . S
H1995 C1987 0.960 . S
H1996 C1988 0.930 . S
H1997 C1989 0.929 . S
H1998 C2006 0.929 . S
H1999 C2008 0.930 . S
H2000 C2010 0.930 . S
H2001 C2013 0.929 . S
H2002 C2016 0.930 . S
H2003 C2018 0.960 . S
H2004 C2018 0.960 . S
H2005 C2018 0.960 . S
C2006 H1998 0.929 . S
C2006 C2007 1.377 . S
C2006 C2008 1.384 . S
C2007 C2006 1.377 . S
C2007 C2013 1.390 . S
C2008 H1999 0.930 . S
C2008 C2006 1.384 . S
C2008 C2009 1.372 . S
C2009 C2008 1.372 . S
C2009 C2010 1.400 . S
C2009 C2014 1.490 . S
C2010 H2000 0.930 . S
C2010 C2009 1.400 . S
C2010 C2013 1.386 . S
H2011 C2027 0.930 . S
H2012 C2028 0.931 . S
C2013 H2001 0.929 . S
C2013 C2007 1.390 . S
C2013 C2010 1.386 . S
C2014 C2009 1.490 . S
C2014 C2016 1.395 . S
C2014 C2017 1.403 . S
H2015 C2021 0.930 . S
C2016 H2002 0.930 . S
C2016 C2014 1.395 . S
C2016 C2019 1.403 . S
C2017 C2014 1.403 . S
C2017 C2018 1.524 . S
C2017 C2021 1.400 . S
C2018 H2003 0.960 . S
C2018 H2004 0.960 . S
C2018 H2005 0.960 . S
C2018 C2017 1.524 . S
C2019 C2016 1.403 . S
C2019 C2020 1.392 . S
C2019 C2023 1.495 . S
C2020 C2019 1.392 . S
C2020 C2021 1.385 . S
C2020 C2022 1.478 . S
C2021 H2015 0.930 . S
C2021 C2017 1.400 . S
C2021 C2020 1.385 . S
C2022 C2020 1.478 . S
C2022 C2024 1.381 . S
C2022 C2028 1.383 . S
C2023 C2019 1.495 . S
C2023 H2029 0.959 . S
C2023 H2030 0.961 . S
C2023 H2031 0.960 . S
C2024 C2022 1.381 . S
C2024 C2025 1.394 . S
C2024 H2032 0.930 . S
C2025 C2024 1.394 . S
C2025 C2026 1.383 . S
C2025 H2033 0.929 . S
C2026 C2025 1.383 . S
C2026 C2027 1.377 . S
C2027 H2011 0.930 . S
C2027 C2026 1.377 . S
C2027 C2028 1.379 . S
C2028 H2012 0.931 . S
C2028 C2022 1.383 . S
C2028 C2027 1.379 . S
H2029 C2023 0.959 . S
H2030 C2023 0.961 . S
H2031 C2023 0.960 . S
H2032 C2024 0.930 . S
H2033 C2025 0.929 . S
H2034 C2042 0.929 . S
H2035 C2044 0.930 . S
H2036 C2046 0.930 . S
H2037 C2049 0.929 . S
H2038 C2052 0.930 . S
H2039 C2054 0.960 . S
H2040 C2054 0.960 . S
H2041 C2054 0.960 . S
C2042 H2034 0.929 . S
C2042 C2043 1.377 . S
C2042 C2044 1.384 . S
C2043 C2042 1.377 . S
C2043 C2049 1.390 . S
C2044 H2035 0.930 . S
C2044 C2042 1.384 . S
C2044 C2045 1.372 . S
C2045 C2044 1.372 . S
C2045 C2046 1.400 . S
C2045 C2050 1.490 . S
C2046 H2036 0.930 . S
C2046 C2045 1.400 . S
C2046 C2049 1.386 . S
H2047 C2063 0.930 . S
H2048 C2064 0.931 . S
C2049 H2037 0.929 . S
C2049 C2043 1.390 . S
C2049 C2046 1.386 . S
C2050 C2045 1.490 . S
C2050 C2052 1.395 . S
C2050 C2053 1.403 . S
H2051 C2057 0.930 . S
C2052 H2038 0.930 . S
C2052 C2050 1.395 . S
C2052 C2055 1.403 . S
C2053 C2050 1.403 . S
C2053 C2054 1.524 . S
C2053 C2057 1.400 . S
C2054 H2039 0.960 . S
C2054 H2040 0.960 . S
C2054 H2041 0.960 . S
C2054 C2053 1.524 . S
C2055 C2052 1.403 . S
C2055 C2056 1.392 . S
C2055 C2059 1.495 . S
C2056 C2055 1.392 . S
C2056 C2057 1.385 . S
C2056 C2058 1.478 . S
C2057 H2051 0.930 . S
C2057 C2053 1.400 . S
C2057 C2056 1.385 . S
C2058 C2056 1.478 . S
C2058 C2060 1.381 . S
C2058 C2064 1.383 . S
C2059 C2055 1.495 . S
C2059 H2065 0.959 . S
C2059 H2066 0.961 . S
C2059 H2067 0.960 . S
C2060 C2058 1.381 . S
C2060 C2061 1.394 . S
C2060 H2068 0.930 . S
C2061 C2060 1.394 . S
C2061 C2062 1.383 . S
C2061 H2069 0.929 . S
C2062 C2061 1.383 . S
C2062 C2063 1.377 . S
C2063 H2047 0.930 . S
C2063 C2062 1.377 . S
C2063 C2064 1.379 . S
C2064 H2048 0.931 . S
C2064 C2058 1.383 . S
C2064 C2063 1.379 . S
H2065 C2059 0.959 . S
H2066 C2059 0.961 . S
H2067 C2059 0.960 . S
H2068 C2060 0.930 . S
H2069 C2061 0.929 . S
H2070 C2078 0.929 . S
H2071 C2080 0.930 . S
H2072 C2082 0.930 . S
H2073 C2085 0.929 . S
H2074 C2088 0.930 . S
H2075 C2090 0.960 . S
H2076 C2090 0.960 . S
H2077 C2090 0.960 . S
C2078 H2070 0.929 . S
C2078 C2079 1.377 . S
C2078 C2080 1.384 . S
C2079 C2078 1.377 . S
C2079 C2085 1.390 . S
C2080 H2071 0.930 . S
C2080 C2078 1.384 . S
C2080 C2081 1.372 . S
C2081 C2080 1.372 . S
C2081 C2082 1.400 . S
C2081 C2086 1.490 . S
C2082 H2072 0.930 . S
C2082 C2081 1.400 . S
C2082 C2085 1.386 . S
H2083 C2099 0.930 . S
H2084 C2100 0.931 . S
C2085 H2073 0.929 . S
C2085 C2079 1.390 . S
C2085 C2082 1.386 . S
C2086 C2081 1.490 . S
C2086 C2088 1.395 . S
C2086 C2089 1.403 . S
H2087 C2093 0.930 . S
C2088 H2074 0.930 . S
C2088 C2086 1.395 . S
C2088 C2091 1.403 . S
C2089 C2086 1.403 . S
C2089 C2090 1.524 . S
C2089 C2093 1.400 . S
C2090 H2075 0.960 . S
C2090 H2076 0.960 . S
C2090 H2077 0.960 . S
C2090 C2089 1.524 . S
C2091 C2088 1.403 . S
C2091 C2092 1.392 . S
C2091 C2095 1.495 . S
C2092 C2091 1.392 . S
C2092 C2093 1.385 . S
C2092 C2094 1.478 . S
C2093 H2087 0.930 . S
C2093 C2089 1.400 . S
C2093 C2092 1.385 . S
C2094 C2092 1.478 . S
C2094 C2096 1.381 . S
C2094 C2100 1.383 . S
C2095 C2091 1.495 . S
C2095 H2101 0.959 . S
C2095 H2102 0.961 . S
C2095 H2103 0.960 . S
C2096 C2094 1.381 . S
C2096 C2097 1.394 . S
C2096 H2104 0.930 . S
C2097 C2096 1.394 . S
C2097 C2098 1.383 . S
C2097 H2105 0.929 . S
C2098 C2097 1.383 . S
C2098 C2099 1.377 . S
C2099 H2083 0.930 . S
C2099 C2098 1.377 . S
C2099 C2100 1.379 . S
C2100 H2084 0.931 . S
C2100 C2094 1.383 . S
C2100 C2099 1.379 . S
H2101 C2095 0.959 . S
H2102 C2095 0.961 . S
H2103 C2095 0.960 . S
H2104 C2096 0.930 . S
H2105 C2097 0.929 . S
H2106 C2114 0.929 . S
H2107 C2116 0.930 . S
H2108 C2118 0.930 . S
H2109 C2121 0.929 . S
H2110 C2124 0.930 . S
H2111 C2126 0.960 . S
H2112 C2126 0.960 . S
H2113 C2126 0.960 . S
C2114 H2106 0.929 . S
C2114 C2115 1.377 . S
C2114 C2116 1.384 . S
C2115 C2114 1.377 . S
C2115 C2121 1.390 . S
C2116 H2107 0.930 . S
C2116 C2114 1.384 . S
C2116 C2117 1.372 . S
C2117 C2116 1.372 . S
C2117 C2118 1.400 . S
C2117 C2122 1.490 . S
C2118 H2108 0.930 . S
C2118 C2117 1.400 . S
C2118 C2121 1.386 . S
H2119 C2135 0.930 . S
H2120 C2136 0.931 . S
C2121 H2109 0.929 . S
C2121 C2115 1.390 . S
C2121 C2118 1.386 . S
C2122 C2117 1.490 . S
C2122 C2124 1.395 . S
C2122 C2125 1.403 . S
H2123 C2129 0.930 . S
C2124 H2110 0.930 . S
C2124 C2122 1.395 . S
C2124 C2127 1.403 . S
C2125 C2122 1.403 . S
C2125 C2126 1.524 . S
C2125 C2129 1.400 . S
C2126 H2111 0.960 . S
C2126 H2112 0.960 . S
C2126 H2113 0.960 . S
C2126 C2125 1.524 . S
C2127 C2124 1.403 . S
C2127 C2128 1.392 . S
C2127 C2131 1.495 . S
C2128 C2127 1.392 . S
C2128 C2129 1.385 . S
C2128 C2130 1.478 . S
C2129 H2123 0.930 . S
C2129 C2125 1.400 . S
C2129 C2128 1.385 . S
C2130 C2128 1.478 . S
C2130 C2132 1.381 . S
C2130 C2136 1.383 . S
C2131 C2127 1.495 . S
C2131 H2137 0.959 . S
C2131 H2138 0.961 . S
C2131 H2139 0.960 . S
C2132 C2130 1.381 . S
C2132 C2133 1.394 . S
C2132 H2140 0.930 . S
C2133 C2132 1.394 . S
C2133 C2134 1.383 . S
C2133 H2141 0.929 . S
C2134 C2133 1.383 . S
C2134 C2135 1.377 . S
C2135 H2119 0.930 . S
C2135 C2134 1.377 . S
C2135 C2136 1.379 . S
C2136 H2120 0.931 . S
C2136 C2130 1.383 . S
C2136 C2135 1.379 . S
H2137 C2131 0.959 . S
H2138 C2131 0.961 . S
H2139 C2131 0.960 . S
H2140 C2132 0.930 . S
H2141 C2133 0.929 . S
H2142 C2150 0.929 . S
H2143 C2152 0.930 . S
H2144 C2154 0.930 . S
H2145 C2157 0.929 . S
H2146 C2160 0.930 . S
H2147 C2162 0.960 . S
H2148 C2162 0.960 . S
H2149 C2162 0.960 . S
C2150 H2142 0.929 . S
C2150 C2151 1.377 . S
C2150 C2152 1.384 . S
C2151 C2150 1.377 . S
C2151 C2157 1.390 . S
C2152 H2143 0.930 . S
C2152 C2150 1.384 . S
C2152 C2153 1.372 . S
C2153 C2152 1.372 . S
C2153 C2154 1.400 . S
C2153 C2158 1.490 . S
C2154 H2144 0.930 . S
C2154 C2153 1.400 . S
C2154 C2157 1.386 . S
H2155 C2171 0.930 . S
H2156 C2172 0.931 . S
C2157 H2145 0.929 . S
C2157 C2151 1.390 . S
C2157 C2154 1.386 . S
C2158 C2153 1.490 . S
C2158 C2160 1.395 . S
C2158 C2161 1.403 . S
H2159 C2165 0.930 . S
C2160 H2146 0.930 . S
C2160 C2158 1.395 . S
C2160 C2163 1.403 . S
C2161 C2158 1.403 . S
C2161 C2162 1.524 . S
C2161 C2165 1.400 . S
C2162 H2147 0.960 . S
C2162 H2148 0.960 . S
C2162 H2149 0.960 . S
C2162 C2161 1.524 . S
C2163 C2160 1.403 . S
C2163 C2164 1.392 . S
C2163 C2167 1.495 . S
C2164 C2163 1.392 . S
C2164 C2165 1.385 . S
C2164 C2166 1.478 . S
C2165 H2159 0.930 . S
C2165 C2161 1.400 . S
C2165 C2164 1.385 . S
C2166 C2164 1.478 . S
C2166 C2168 1.381 . S
C2166 C2172 1.383 . S
C2167 C2163 1.495 . S
C2167 H2173 0.959 . S
C2167 H2174 0.961 . S
C2167 H2175 0.960 . S
C2168 C2166 1.381 . S
C2168 C2169 1.394 . S
C2168 H2176 0.930 . S
C2169 C2168 1.394 . S
C2169 C2170 1.383 . S
C2169 H2177 0.929 . S
C2170 C2169 1.383 . S
C2170 C2171 1.377 . S
C2171 H2155 0.930 . S
C2171 C2170 1.377 . S
C2171 C2172 1.379 . S
C2172 H2156 0.931 . S
C2172 C2166 1.383 . S
C2172 C2171 1.379 . S
H2173 C2167 0.959 . S
H2174 C2167 0.961 . S
H2175 C2167 0.960 . S
H2176 C2168 0.930 . S
H2177 C2169 0.929 . S
H2178 C2186 0.929 . S
H2179 C2188 0.930 . S
H2180 C2190 0.930 . S
H2181 C2193 0.929 . S
H2182 C2196 0.930 . S
H2183 C2198 0.960 . S
H2184 C2198 0.960 . S
H2185 C2198 0.960 . S
C2186 H2178 0.929 . S
C2186 C2187 1.377 . S
C2186 C2188 1.384 . S
C2187 C2186 1.377 . S
C2187 C2193 1.390 . S
C2188 H2179 0.930 . S
C2188 C2186 1.384 . S
C2188 C2189 1.372 . S
C2189 C2188 1.372 . S
C2189 C2190 1.400 . S
C2189 C2194 1.490 . S
C2190 H2180 0.930 . S
C2190 C2189 1.400 . S
C2190 C2193 1.386 . S
H2191 C2207 0.930 . S
H2192 C2208 0.931 . S
C2193 H2181 0.929 . S
C2193 C2187 1.390 . S
C2193 C2190 1.386 . S
C2194 C2189 1.490 . S
C2194 C2196 1.395 . S
C2194 C2197 1.403 . S
H2195 C2201 0.930 . S
C2196 H2182 0.930 . S
C2196 C2194 1.395 . S
C2196 C2199 1.403 . S
C2197 C2194 1.403 . S
C2197 C2198 1.524 . S
C2197 C2201 1.400 . S
C2198 H2183 0.960 . S
C2198 H2184 0.960 . S
C2198 H2185 0.960 . S
C2198 C2197 1.524 . S
C2199 C2196 1.403 . S
C2199 C2200 1.392 . S
C2199 C2203 1.495 . S
C2200 C2199 1.392 . S
C2200 C2201 1.385 . S
C2200 C2202 1.478 . S
C2201 H2195 0.930 . S
C2201 C2197 1.400 . S
C2201 C2200 1.385 . S
C2202 C2200 1.478 . S
C2202 C2204 1.381 . S
C2202 C2208 1.383 . S
C2203 C2199 1.495 . S
C2203 H2209 0.959 . S
C2203 H2210 0.961 . S
C2203 H2211 0.960 . S
C2204 C2202 1.381 . S
C2204 C2205 1.394 . S
C2204 H2212 0.930 . S
C2205 C2204 1.394 . S
C2205 C2206 1.383 . S
C2205 H2213 0.929 . S
C2206 C2205 1.383 . S
C2206 C2207 1.377 . S
C2207 H2191 0.930 . S
C2207 C2206 1.377 . S
C2207 C2208 1.379 . S
C2208 H2192 0.931 . S
C2208 C2202 1.383 . S
C2208 C2207 1.379 . S
H2209 C2203 0.959 . S
H2210 C2203 0.961 . S
H2211 C2203 0.960 . S
H2212 C2204 0.930 . S
H2213 C2205 0.929 . S
H2214 C2222 0.929 . S
H2215 C2224 0.930 . S
H2216 C2226 0.930 . S
H2217 C2229 0.929 . S
H2218 C2232 0.930 . S
H2219 C2234 0.960 . S
H2220 C2234 0.960 . S
H2221 C2234 0.960 . S
C2222 H2214 0.929 . S
C2222 C2223 1.377 . S
C2222 C2224 1.384 . S
C2223 C2222 1.377 . S
C2223 C2229 1.390 . S
C2224 H2215 0.930 . S
C2224 C2222 1.384 . S
C2224 C2225 1.372 . S
C2225 C2224 1.372 . S
C2225 C2226 1.400 . S
C2225 C2230 1.490 . S
C2226 H2216 0.930 . S
C2226 C2225 1.400 . S
C2226 C2229 1.386 . S
H2227 C2243 0.930 . S
H2228 C2244 0.931 . S
C2229 H2217 0.929 . S
C2229 C2223 1.390 . S
C2229 C2226 1.386 . S
C2230 C2225 1.490 . S
C2230 C2232 1.395 . S
C2230 C2233 1.403 . S
H2231 C2237 0.930 . S
C2232 H2218 0.930 . S
C2232 C2230 1.395 . S
C2232 C2235 1.403 . S
C2233 C2230 1.403 . S
C2233 C2234 1.524 . S
C2233 C2237 1.400 . S
C2234 H2219 0.960 . S
C2234 H2220 0.960 . S
C2234 H2221 0.960 . S
C2234 C2233 1.524 . S
C2235 C2232 1.403 . S
C2235 C2236 1.392 . S
C2235 C2239 1.495 . S
C2236 C2235 1.392 . S
C2236 C2237 1.385 . S
C2236 C2238 1.478 . S
C2237 H2231 0.930 . S
C2237 C2233 1.400 . S
C2237 C2236 1.385 . S
C2238 C2236 1.478 . S
C2238 C2240 1.381 . S
C2238 C2244 1.383 . S
C2239 C2235 1.495 . S
C2239 H2245 0.959 . S
C2239 H2246 0.961 . S
C2239 H2247 0.960 . S
C2240 C2238 1.381 . S
C2240 C2241 1.394 . S
C2240 H2248 0.930 . S
C2241 C2240 1.394 . S
C2241 C2242 1.383 . S
C2241 H2249 0.929 . S
C2242 C2241 1.383 . S
C2242 C2243 1.377 . S
C2243 H2227 0.930 . S
C2243 C2242 1.377 . S
C2243 C2244 1.379 . S
C2244 H2228 0.931 . S
C2244 C2238 1.383 . S
C2244 C2243 1.379 . S
H2245 C2239 0.959 . S
H2246 C2239 0.961 . S
H2247 C2239 0.960 . S
H2248 C2240 0.930 . S
H2249 C2241 0.929 . S
H2250 C2258 0.929 . S
H2251 C2260 0.930 . S
H2252 C2262 0.930 . S
H2253 C2265 0.929 . S
H2254 C2268 0.930 . S
H2255 C2270 0.960 . S
H2256 C2270 0.960 . S
H2257 C2270 0.960 . S
C2258 H2250 0.929 . S
C2258 C2259 1.377 . S
C2258 C2260 1.384 . S
C2259 C2258 1.377 . S
C2259 C2265 1.390 . S
C2260 H2251 0.930 . S
C2260 C2258 1.384 . S
C2260 C2261 1.372 . S
C2261 C2260 1.372 . S
C2261 C2262 1.400 . S
C2261 C2266 1.490 . S
C2262 H2252 0.930 . S
C2262 C2261 1.400 . S
C2262 C2265 1.386 . S
H2263 C2279 0.930 . S
H2264 C2280 0.931 . S
C2265 H2253 0.929 . S
C2265 C2259 1.390 . S
C2265 C2262 1.386 . S
C2266 C2261 1.490 . S
C2266 C2268 1.395 . S
C2266 C2269 1.403 . S
H2267 C2273 0.930 . S
C2268 H2254 0.930 . S
C2268 C2266 1.395 . S
C2268 C2271 1.403 . S
C2269 C2266 1.403 . S
C2269 C2270 1.524 . S
C2269 C2273 1.400 . S
C2270 H2255 0.960 . S
C2270 H2256 0.960 . S
C2270 H2257 0.960 . S
C2270 C2269 1.524 . S
C2271 C2268 1.403 . S
C2271 C2272 1.392 . S
C2271 C2275 1.495 . S
C2272 C2271 1.392 . S
C2272 C2273 1.385 . S
C2272 C2274 1.478 . S
C2273 H2267 0.930 . S
C2273 C2269 1.400 . S
C2273 C2272 1.385 . S
C2274 C2272 1.478 . S
C2274 C2276 1.381 . S
C2274 C2280 1.383 . S
C2275 C2271 1.495 . S
C2275 H2281 0.959 . S
C2275 H2282 0.961 . S
C2275 H2283 0.960 . S
C2276 C2274 1.381 . S
C2276 C2277 1.394 . S
C2276 H2284 0.930 . S
C2277 C2276 1.394 . S
C2277 C2278 1.383 . S
C2277 H2285 0.929 . S
C2278 C2277 1.383 . S
C2278 C2279 1.377 . S
C2279 H2263 0.930 . S
C2279 C2278 1.377 . S
C2279 C2280 1.379 . S
C2280 H2264 0.931 . S
C2280 C2274 1.383 . S
C2280 C2279 1.379 . S
H2281 C2275 0.959 . S
H2282 C2275 0.961 . S
H2283 C2275 0.960 . S
H2284 C2276 0.930 . S
H2285 C2277 0.929 . S
H2286 C2294 0.929 . S
H2287 C2296 0.930 . S
H2288 C2298 0.930 . S
H2289 C2301 0.929 . S
H2290 C2304 0.930 . S
H2291 C2306 0.960 . S
H2292 C2306 0.960 . S
H2293 C2306 0.960 . S
C2294 H2286 0.929 . S
C2294 C2295 1.377 . S
C2294 C2296 1.384 . S
C2295 C2294 1.377 . S
C2295 C2301 1.390 . S
C2296 H2287 0.930 . S
C2296 C2294 1.384 . S
C2296 C2297 1.372 . S
C2297 C2296 1.372 . S
C2297 C2298 1.400 . S
C2297 C2302 1.490 . S
C2298 H2288 0.930 . S
C2298 C2297 1.400 . S
C2298 C2301 1.386 . S
H2299 C2315 0.930 . S
H2300 C2316 0.931 . S
C2301 H2289 0.929 . S
C2301 C2295 1.390 . S
C2301 C2298 1.386 . S
C2302 C2297 1.490 . S
C2302 C2304 1.395 . S
C2302 C2305 1.403 . S
H2303 C2309 0.930 . S
C2304 H2290 0.930 . S
C2304 C2302 1.395 . S
C2304 C2307 1.403 . S
C2305 C2302 1.403 . S
C2305 C2306 1.524 . S
C2305 C2309 1.400 . S
C2306 H2291 0.960 . S
C2306 H2292 0.960 . S
C2306 H2293 0.960 . S
C2306 C2305 1.524 . S
C2307 C2304 1.403 . S
C2307 C2308 1.392 . S
C2307 C2311 1.495 . S
C2308 C2307 1.392 . S
C2308 C2309 1.385 . S
C2308 C2310 1.478 . S
C2309 H2303 0.930 . S
C2309 C2305 1.400 . S
C2309 C2308 1.385 . S
C2310 C2308 1.478 . S
C2310 C2312 1.381 . S
C2310 C2316 1.383 . S
C2311 C2307 1.495 . S
C2311 H2317 0.959 . S
C2311 H2318 0.961 . S
C2311 H2319 0.960 . S
C2312 C2310 1.381 . S
C2312 C2313 1.394 . S
C2312 H2320 0.930 . S
C2313 C2312 1.394 . S
C2313 C2314 1.383 . S
C2313 H2321 0.929 . S
C2314 C2313 1.383 . S
C2314 C2315 1.377 . S
C2315 H2299 0.930 . S
C2315 C2314 1.377 . S
C2315 C2316 1.379 . S
C2316 H2300 0.931 . S
C2316 C2310 1.383 . S
C2316 C2315 1.379 . S
H2317 C2311 0.959 . S
H2318 C2311 0.961 . S
H2319 C2311 0.960 . S
H2320 C2312 0.930 . S
H2321 C2313 0.929 . S
C387 C147 1.568 . S
C406 C204 1.555 . S
C423 C158 1.545 . S
C442 C224 1.500 . S
C459 C136 1.520 . S
C478 C247 1.516 . S
C495 C125 1.410 . S
C514 C227 1.412 1_556 S
C550 C244 1.412 . S
C531 C103 1.432 . S
C567 C114 1.436 . S
C586 C207 1.433 1_556 S
C622 C214 1.529 . S
C603 C131 1.571 . S
C658 C234 1.453 . S
C639 C109 1.473 . S
C675 C120 1.561 . S
C694 C239 1.583 . S
C711 C153 1.435 . S
C730 C219 1.431 . S
C747 C164 1.426 . S
C766 C254 1.382 . S
C802 C199 1.501 . S
C783 C142 1.507 . S
C838 C264 1.529 . S
C819 C15 1.568 . S
C855 C26 1.544 . S
C874 C284 1.512 . S
C891 C4 1.520 . S
C910 C307 1.519 . S
C927 C191 1.409 . S
C946 C287 1.398 . S
C963 C169 1.433 . S
C982 C304 1.396 . S
C999 C180 1.433 . S
C1018 C267 1.425 . S
C1035 C197 1.572 . S
C1054 C274 1.559 . S
C1071 C175 1.477 . S
C1090 C294 1.446 . S
C1126 C299 1.555 . S
C1107 C186 1.555 . S
C1143 C21 1.442 . S
C1162 C279 1.456 . S
C1198 C314 1.419 . S
C1179 C32 1.430 . S
C1215 C10 1.508 . S
C1234 C259 1.502 . S
C1270 C324 1.544 . S
C1251 C81 1.570 . S
C1287 C92 1.544 . S
C1306 C344 1.507 . S
C1342 C367 1.525 . S
C1323 C70 1.520 . S
C1378 C347 1.399 . S
C1359 C59 1.409 . S
C1414 C364 1.395 . S
C1395 C37 1.433 . S
C1431 C48 1.431 . S
C1450 C327 1.434 . S
C1467 C65 1.576 . S
C1486 C334 1.567 . S
C1503 C43 1.477 . S
C1522 C354 1.447 . S
C1558 C359 1.557 . S
C1539 C54 1.555 . S
C1575 C87 1.436 . S
C1594 C339 1.430 . S
C1611 C98 1.426 . S
C1630 C374 1.401 . S
C1647 C76 1.508 . S
C1666 C319 1.500 . S
C1683 C170 1.312 . S
C1702 C217 1.238 . S
C1738 C237 1.689 . S
C1719 C181 1.769 . S
C1755 C192 1.519 . S
C1774 C246 1.464 . S
C1791 C71 1.727 . S
C1810 C226 1.675 . S
C1827 C82 1.597 . S
C1846 C257 1.551 . S
C1882 C206 1.287 . S
C1863 C93 1.290 . S
C1899 C38 1.313 . S
C1918 C277 1.245 . S
C1935 C49 1.769 . S
C1954 C297 1.707 . S
C1971 C60 1.525 . S
C1990 C306 1.512 . S
C2007 C137 1.724 . S
C2026 C286 1.656 . S
C2062 C317 1.514 . S
C2043 C148 1.597 . S
C2079 C159 1.290 . S
C2098 C266 1.287 . S
C2115 C104 1.314 . S
C2134 C337 1.279 . S
C2151 C115 1.770 . S
C2170 C357 1.708 . S
C2206 C366 1.490 . S
C2187 C126 1.524 . S
C2223 C5 1.724 . S
C2242 C346 1.664 . S
C2259 C16 1.597 . S
C2278 C377 1.513 . S
C2295 C27 1.290 . S
C2314 C326 1.283 . S
