# Generated by pormake.
# Topology zzz, (3,6)-cn, num edge types: 1
# Building blocks:
#     Node 0, Type 0, BuildingBlock: PAMTOO_clean_linker_0, # of connection points: 3
#     Node 1, Type 0, BuildingBlock: PAMTOO_clean_linker_0, # of connection points: 3
#     Node 2, Type 0, BuildingBlock: PAMTOO_clean_linker_0, # of connection points: 3
#     Node 3, Type 0, BuildingBlock: PAMTOO_clean_linker_0, # of connection points: 3
#     Node 4, Type 0, BuildingBlock: PAMTOO_clean_linker_0, # of connection points: 3
#     Node 5, Type 0, BuildingBlock: PAMTOO_clean_linker_0, # of connection points: 3
#     Node 6, Type 0, BuildingBlock: PAMTOO_clean_linker_0, # of connection points: 3
#     Node 7, Type 0, BuildingBlock: PAMTOO_clean_linker_0, # of connection points: 3
#     Node 8, Type 1, BuildingBlock: KUMBOL_clean_sbu_1, # of connection points: 6
#     Node 9, Type 1, BuildingBlock: KUMBOL_clean_sbu_1, # of connection points: 6
#     Node 10, Type 1, BuildingBlock: KUMBOL_clean_sbu_1, # of connection points: 6
#     Node 11, Type 1, BuildingBlock: KUMBOL_clean_sbu_1, # of connection points: 6
#     Edge 12, Type (0, 1), BuildingBlock: XIVTED_clean_linker_0, # of connection points: 2
#     Edge 13, Type (0, 1), BuildingBlock: XIVTED_clean_linker_0, # of connection points: 2
#     Edge 14, Type (0, 1), BuildingBlock: XIVTED_clean_linker_0, # of connection points: 2
#     Edge 15, Type (0, 1), BuildingBlock: XIVTED_clean_linker_0, # of connection points: 2
#     Edge 16, Type (0, 1), BuildingBlock: XIVTED_clean_linker_0, # of connection points: 2
#     Edge 17, Type (0, 1), BuildingBlock: XIVTED_clean_linker_0, # of connection points: 2
#     Edge 18, Type (0, 1), BuildingBlock: XIVTED_clean_linker_0, # of connection points: 2
#     Edge 19, Type (0, 1), BuildingBlock: XIVTED_clean_linker_0, # of connection points: 2
#     Edge 20, Type (0, 1), BuildingBlock: XIVTED_clean_linker_0, # of connection points: 2
#     Edge 21, Type (0, 1), BuildingBlock: XIVTED_clean_linker_0, # of connection points: 2
#     Edge 22, Type (0, 1), BuildingBlock: XIVTED_clean_linker_0, # of connection points: 2
#     Edge 23, Type (0, 1), BuildingBlock: XIVTED_clean_linker_0, # of connection points: 2
#     Edge 24, Type (0, 1), BuildingBlock: XIVTED_clean_linker_0, # of connection points: 2
#     Edge 25, Type (0, 1), BuildingBlock: XIVTED_clean_linker_0, # of connection points: 2
#     Edge 26, Type (0, 1), BuildingBlock: XIVTED_clean_linker_0, # of connection points: 2
#     Edge 27, Type (0, 1), BuildingBlock: XIVTED_clean_linker_0, # of connection points: 2
#     Edge 28, Type (0, 1), BuildingBlock: XIVTED_clean_linker_0, # of connection points: 2
#     Edge 29, Type (0, 1), BuildingBlock: XIVTED_clean_linker_0, # of connection points: 2
#     Edge 30, Type (0, 1), BuildingBlock: XIVTED_clean_linker_0, # of connection points: 2
#     Edge 31, Type (0, 1), BuildingBlock: XIVTED_clean_linker_0, # of connection points: 2
#     Edge 32, Type (0, 1), BuildingBlock: XIVTED_clean_linker_0, # of connection points: 2
#     Edge 33, Type (0, 1), BuildingBlock: XIVTED_clean_linker_0, # of connection points: 2
#     Edge 34, Type (0, 1), BuildingBlock: XIVTED_clean_linker_0, # of connection points: 2
#     Edge 35, Type (0, 1), BuildingBlock: XIVTED_clean_linker_0, # of connection points: 2
# Relax obj value: 0.177
# Max RMSD: 0.106
# Mean RMSD: 0.080
data_MOF--net-zzz--node1-KUMBOL_clean_sbu_1--node2-PAMTOO_clean_linker_0--edge1-XIVTED_clean_linker_0
_symmetry_space_group_name_H-M    P1
_symmetry_Int_Tables_number       1
_symmetry_cell_setting            triclinic
loop_
_symmetry_equiv_pos_as_xyz
'x, y, z'
_cell_length_a     49.983125
_cell_length_b     50.048732
_cell_length_c     15.703622
_cell_angle_alpha  89.839082
_cell_angle_beta   90.06717
_cell_angle_gamma 90.323807
loop_
_atom_site_label
_atom_site_type_symbol
_atom_site_fract_x
_atom_site_fract_y
_atom_site_fract_z
_atom_type_partial_charge
H0 H 0.82864 0.56495 0.20614 0.0
H1 H 0.74576 0.56704 0.13461 0.0
H2 H 0.76878 0.53217 0.37436 0.0
H3 H 0.70842 0.50651 0.27691 0.0
C4 C 0.71571 0.52028 0.22627 0.0
O5 O 0.7277 0.5423 0.2655 0.0
H6 H 0.73072 0.50868 0.18946 0.0
C7 C 0.80784 0.56121 0.22155 0.0
C8 C 0.80163 0.54879 0.29963 0.0
C9 C 0.78807 0.56707 0.1606 0.0
C10 C 0.76123 0.56224 0.18042 0.0
C11 C 0.75404 0.54905 0.25533 0.0
C12 C 0.77425 0.5425 0.31624 0.0
H13 H 0.98756 0.84057 0.20309 0.0
H14 H 0.98512 0.75984 0.10947 0.0
H15 H 1.00743 0.77507 0.3696 0.0
H16 H 0.03105 0.71271 0.27302 0.0
C17 C 0.02136 0.72286 0.21818 0.0
O18 O 0.99956 0.73723 0.24855 0.0
H19 H 0.03683 0.73662 0.19138 0.0
C20 C 0.98947 0.81928 0.21414 0.0
C21 C 0.99705 0.8104 0.29563 0.0
C22 C 0.98568 0.80136 0.14614 0.0
C23 C 0.98856 0.77394 0.16065 0.0
C24 C 0.99688 0.76424 0.2396 0.0
C25 C 1.00139 0.78253 0.30777 0.0
H26 H 0.72542 0.97842 0.25773 0.0
H27 H 0.80732 0.98008 0.17465 0.0
H28 H 0.77955 0.03787 0.35607 0.0
H29 H 0.82608 0.06062 0.22141 0.0
C30 C 0.82687 0.04027 0.19342 0.0
O31 O 0.82105 0.02202 0.2581 0.0
H32 H 0.8113 0.03953 0.14265 0.0
C33 C 0.74553 0.98648 0.26257 0.0
C34 C 0.74992 1.00837 0.31674 0.0
C35 C 0.7658 0.97646 0.20947 0.0
C36 C 0.79152 0.98752 0.21504 0.0
C37 C 0.79661 1.00991 0.26554 0.0
C38 C 0.77583 0.02028 0.31778 0.0
H39 H 0.57792 0.73351 0.28321 0.0
H40 H 0.56755 0.81186 0.1756 0.0
H41 H 0.51537 0.78438 0.37605 0.0
H42 H 0.48858 0.83224 0.2364 0.0
C43 C 0.50858 0.83085 0.20593 0.0
O44 O 0.52735 0.82508 0.26885 0.0
H45 H 0.50708 0.81422 0.15911 0.0
C46 C 0.56807 0.75276 0.28346 0.0
C47 C 0.54669 0.75661 0.33996 0.0
C48 C 0.5754 0.7722 0.22275 0.0
C49 C 0.56199 0.79665 0.22162 0.0
C50 C 0.5402 0.80117 0.27529 0.0
C51 C 0.53223 0.78096 0.33433 0.0
H52 H 0.21497 0.48826 0.17368 0.0
H53 H 0.29596 0.48131 0.26411 0.0
H54 H 0.28038 0.51524 0.01711 0.0
H55 H 0.31514 0.53626 0.21893 0.0
C56 C 0.32949 0.52699 0.17369 0.0
O57 O 0.31825 0.50427 0.13643 0.0
H58 H 0.33305 0.54185 0.12215 0.0
C59 C 0.23632 0.49015 0.16297 0.0
C60 C 0.24511 0.50122 0.08556 0.0
C61 C 0.2543 0.48329 0.22841 0.0
C62 C 0.28181 0.48657 0.21463 0.0
C63 C 0.29146 0.49864 0.14047 0.0
C64 C 0.27308 0.50574 0.07463 0.0
H65 H 0.07339 0.22367 0.14897 0.0
H66 H 0.06963 0.30316 0.25244 0.0
H67 H 0.02994 0.28504 0.01646 0.0
H68 H 1.01212 0.31439 0.23263 0.0
C69 C 0.01724 0.33023 0.1853 0.0
O70 O 0.03931 0.32274 0.13681 0.0
H71 H 0.99984 0.33199 0.14157 0.0
C72 C 0.06752 0.24441 0.14345 0.0
C73 C 0.05249 0.25217 0.07182 0.0
C74 C 0.07318 0.26228 0.21039 0.0
C75 C 0.06492 0.28889 0.20284 0.0
C76 C 0.04877 0.29715 0.13531 0.0
C77 C 0.04232 0.2787 0.06932 0.0
H78 H 0.32402 0.07141 0.13808 0.0
H79 H 0.2433 0.06659 0.22958 0.0
H80 H 0.26082 0.04645 0.96872 0.0
H81 H 0.22317 1.01359 0.13653 0.0
C82 C 0.20861 0.02901 0.1152 0.0
O83 O 0.22198 0.05189 0.08741 0.0
H84 H 0.19785 0.02017 0.06006 0.0
C85 C 0.30294 0.06804 0.12525 0.0
C86 C 0.29512 0.05954 0.04375 0.0
C87 C 0.28456 0.07041 0.19229 0.0
C88 C 0.25754 0.06493 0.17786 0.0
C89 C 0.24873 0.05627 0.09809 0.0
C90 C 0.26761 0.05313 0.03063 0.0
H91 H 0.49466 0.33659 0.16526 0.0
H92 H 0.4923 0.25776 0.27485 0.0
H93 H 0.50531 0.26773 1.00539 0.0
H94 H 0.5383 0.22968 0.18448 0.0
C95 C 0.52199 0.21678 0.15857 0.0
O96 O 0.49997 0.23214 0.1351 0.0
H97 H 0.53026 0.20739 0.10031 0.0
C98 C 0.49528 0.31506 0.15769 0.0
C99 C 0.49954 0.30461 0.07615 0.0
C100 C 0.49302 0.29849 0.22968 0.0
C101 C 0.49441 0.27075 0.21991 0.0
C102 C 0.49922 0.25939 0.14025 0.0
C103 C 0.502 0.27639 0.06756 0.0
C104 C 0.08299 0.06816 0.86001 0.0
C105 C 0.05897 0.07932 0.98912 0.0
C106 C 0.06119 0.06419 0.9137 0.0
C107 C 0.07822 0.099 1.00786 0.0
C108 C 0.10269 0.08748 0.87969 0.0
C109 C 0.10006 0.10301 0.95345 0.0
N110 N 0.08459 0.05351 0.78735 0.0
C111 C 0.10591 0.0563 0.73372 0.0
C112 C 0.12432 0.09083 0.824 0.0
C113 C 0.12598 0.07509 0.75094 0.0
Gd114 Gd 0.99666 0.04423 0.5987 0.0
Gd115 Gd 0.05054 0.02183 0.76541 0.0
N116 N 0.0428 0.04496 0.89401 0.0
C117 C 0.0379 0.07368 0.04496 0.0
C118 C 0.02399 0.03764 0.95287 0.0
C119 C 0.02067 0.05238 0.02756 0.0
H120 H 1.01207 0.01987 0.94468 0.0
H121 H 1.00526 0.04683 0.07272 0.0
H122 H 0.03246 0.01928 0.43494 0.0
H123 H 0.10745 0.04395 0.67784 0.0
H124 H 0.02625 0.98753 0.31769 0.0
H125 H 0.0355 0.08484 0.10346 0.0
H126 H 0.07667 0.1109 0.06516 0.0
H127 H 0.93761 0.04664 0.70051 0.0
H128 H 0.13984 0.10548 0.83691 0.0
H129 H 0.14275 0.07738 0.70793 0.0
H130 H 0.93511 0.95835 0.34513 0.0
H131 H 0.11486 0.1181 0.96919 0.0
H132 H 0.8833 0.99333 0.57534 0.0
H133 H 0.89307 0.02549 0.69073 0.0
N134 N 0.95344 0.02566 0.59444 0.0
C135 C 0.94833 1.00844 0.52954 0.0
C136 C 0.93389 0.03204 0.65144 0.0
C137 C 0.90302 1.00232 0.57991 0.0
C138 C 0.90848 0.02038 0.64533 0.0
C139 C 0.92299 0.99619 0.5208 0.0
H140 H 0.89907 0.9686 0.44616 0.0
N141 N 0.99319 1.0141 0.48432 0.0
C142 C 0.9687 1.00267 0.47238 0.0
C143 C 0.98522 0.97889 0.34963 0.0
C144 C 0.96416 0.98452 0.40525 0.0
C145 C 1.01352 1.0093 0.4286 0.0
C146 C 1.00995 0.99146 0.36113 0.0
O147 O 0.04956 0.06586 0.72302 0.0
O148 O 1.0051 0.07308 0.70738 0.0
O149 O 1.00356 0.07318 0.49846 0.0
O150 O 0.9648 0.07099 0.55962 0.0
O151 O 1.00637 1.01189 0.79598 0.0
O152 O 0.98569 0.04808 0.73705 0.0
O153 O 0.99783 0.99915 0.62299 0.0
O154 O 0.04085 0.99004 0.66574 0.0
O155 O 0.05595 0.99298 0.867 0.0
O156 O 0.08868 1.00176 0.78186 0.0
O157 O 0.04053 0.04941 0.55697 0.0
O158 O 0.06477 1.01765 0.63007 0.0
C159 C 0.02888 0.08184 0.72977 0.0
C160 C 0.98606 0.02871 0.79341 0.0
C161 C 0.98278 0.11377 0.53596 0.0
C162 C 1.00985 0.15311 0.57123 0.0
C163 C 0.96113 0.15568 0.56873 0.0
C164 C 0.95945 0.12889 0.54496 0.0
C165 C 0.98607 0.16784 0.58077 0.0
C166 C 1.00777 0.12574 0.55253 0.0
C167 C 0.98097 0.08528 0.51317 0.0
C168 C 0.93893 0.97237 0.39623 0.0
C169 C 0.9184 0.97819 0.45382 0.0
H170 H 0.98256 0.96502 0.29741 0.0
C171 C 0.01809 0.98258 0.63037 0.0
C172 C 0.06203 0.03434 0.56589 0.0
C173 C 0.08257 0.95713 0.82187 0.0
C174 C 0.06229 0.91373 0.78991 0.0
C175 C 0.11048 0.91794 0.81264 0.0
C176 C 0.10778 0.94527 0.82739 0.0
C177 C 0.08795 0.90217 0.79551 0.0
C178 C 0.06027 0.94158 0.7989 0.0
C179 C 0.0794 0.98571 0.83974 0.0
H180 H 0.94305 0.16729 0.57532 0.0
H181 H 0.93997 0.11994 0.53402 0.0
H182 H 0.98654 0.18908 0.5934 0.0
H183 H 0.02573 0.11383 0.54887 0.0
H184 H 0.12998 0.90875 0.81762 0.0
H185 H 0.12528 0.95709 0.84351 0.0
H186 H 0.09071 0.88081 0.79087 0.0
H187 H 0.04112 0.95125 0.79108 0.0
C188 C 0.53564 0.9417 0.64496 0.0
C189 C 0.50284 0.91704 0.72894 0.0
C190 C 0.51115 0.94082 0.6878 0.0
C191 C 0.51904 0.89426 0.72561 0.0
C192 C 0.55169 0.9186 0.64076 0.0
C193 C 0.54333 0.89502 0.68151 0.0
N194 N 0.54377 0.965 0.60762 0.0
C195 C 0.56623 0.96556 0.5581 0.0
C196 C 0.57564 0.91974 0.59485 0.0
C197 C 0.58273 0.94321 0.55241 0.0
Gd198 Gd 0.53833 0.05254 0.78965 0.0
Gd199 Gd 0.51341 1.00054 0.61762 0.0
N200 N 0.49589 0.9633 0.69151 0.0
C201 C 0.47867 0.91694 0.77365 0.0
C202 C 0.47212 0.9631 0.73435 0.0
C203 C 0.46326 0.94005 0.77629 0.0
H204 H 0.45985 0.98055 0.73703 0.0
H205 H 0.44452 0.94013 0.81071 0.0
H206 H 0.58233 0.09017 0.68235 0.0
H207 H 0.57125 0.98275 0.52008 0.0
H208 H 0.59351 0.13806 0.66383 0.0
H209 H 0.47175 0.89914 0.80656 0.0
H210 H 0.51297 0.87592 0.75713 0.0
H211 H 0.50045 0.04846 0.96303 0.0
H212 H 0.58843 0.9024 0.58995 0.0
H213 H 0.60067 0.94397 0.51393 0.0
H214 H 0.53447 0.1828 0.85734 0.0
H215 H 0.5555 0.87719 0.67916 0.0
H216 H 0.48169 0.12788 0.04445 0.0
H217 H 0.47732 0.0789 0.06265 0.0
N218 N 0.51668 0.07999 0.88817 0.0
C219 C 0.52008 0.10672 0.87879 0.0
C220 C 0.50223 0.06984 0.95455 0.0
C221 C 0.49164 0.11464 1.0003 0.0
C222 C 0.48918 0.087 1.01094 0.0
C223 C 0.50765 0.12485 0.93453 0.0
H224 H 0.50287 0.16668 0.9664 0.0
N225 N 0.55058 0.09747 0.76905 0.0
C226 C 0.53768 0.11577 0.81722 0.0
C227 C 0.56347 0.15134 0.7523 0.0
C228 C 0.54361 0.14325 0.80984 0.0
C229 C 0.57118 0.10503 0.71704 0.0
C230 C 0.5776 0.13209 0.70665 0.0
O231 O 0.53597 0.99009 0.73964 0.0
O232 O 0.51621 1.01597 0.8373 0.0
O233 O 0.56727 0.02445 0.83776 0.0
O234 O 0.56434 0.06375 0.89506 0.0
O235 O 0.47733 0.02082 0.6796 0.0
O236 O 0.4929 0.04717 0.79237 0.0
O237 O 0.53364 0.06986 0.65688 0.0
O238 O 0.50204 0.04385 0.58707 0.0
O239 O 0.48504 0.9759 0.55031 0.0
O240 O 0.51527 0.99732 0.47916 0.0
O241 O 0.5705 0.03903 0.69673 0.0
O242 O 0.55142 0.02165 0.57428 0.0
C243 C 0.52463 0.99235 0.81486 0.0
C244 C 0.47327 0.03641 0.74663 0.0
C245 C 0.60738 0.04416 0.87918 0.0
C246 C 0.65039 0.02147 0.86799 0.0
C247 C 0.64748 0.06968 0.84711 0.0
C248 C 0.61996 0.0687 0.86163 0.0
C249 C 0.66266 0.04634 0.85069 0.0
C250 C 0.6226 0.02072 0.88109 0.0
C251 C 0.57822 0.0418 0.88868 0.0
C252 C 0.53036 0.16158 0.86248 0.0
C253 C 0.51238 0.15239 0.92467 0.0
H254 H 0.56865 0.17226 0.74475 0.0
C255 C 0.5156 0.06647 0.59651 0.0
C256 C 0.57228 0.03044 0.61766 0.0
C257 C 0.47333 0.98975 0.41425 0.0
C258 C 0.42975 1.00879 0.38642 0.0
C259 C 0.45214 0.98306 0.27705 0.0
C260 C 0.47369 0.97889 0.33209 0.0
C261 C 0.43006 0.9977 0.30438 0.0
C262 C 0.45158 1.00526 0.44061 0.0
C263 C 0.49399 0.98228 0.47541 0.0
H264 H 0.65715 0.08864 0.83389 0.0
H265 H 0.60858 0.08702 0.85823 0.0
H266 H 0.68409 0.04804 0.84239 0.0
H267 H 0.61251 1.0018 0.89195 0.0
H268 H 0.4523 0.97444 0.21391 0.0
H269 H 0.49028 0.96666 0.31144 0.0
H270 H 0.41318 1.00028 0.26186 0.0
H271 H 0.45108 1.01349 0.50443 0.0
C272 C 0.434 0.5275 0.82111 0.0
C273 C 0.43269 0.49683 0.94052 0.0
C274 C 0.44714 0.51288 0.88254 0.0
C275 C 0.40477 0.49465 0.93232 0.0
C276 C 0.40588 0.52643 0.8149 0.0
C277 C 0.39137 0.50939 0.86944 0.0
N278 N 0.44865 0.54424 0.77149 0.0
C279 C 0.43627 0.56184 0.71797 0.0
C280 C 0.39318 0.5432 0.75614 0.0
C281 C 0.40844 0.56124 0.70828 0.0
Gd282 Gd 0.54945 0.51947 0.6157 0.0
Gd283 Gd 0.49555 0.54188 0.78474 0.0
N284 N 0.47399 0.51587 0.88926 0.0
C285 C 0.44666 0.48426 1.00664 0.0
C286 C 0.48752 0.50496 0.95637 0.0
C287 C 0.47416 0.48866 0.01529 0.0
H288 H 0.50877 0.50835 0.96321 0.0
H289 H 0.48506 0.47957 0.06734 0.0
H290 H 0.52103 0.47377 0.48445 0.0
H291 H 0.44789 0.57616 0.68172 0.0
H292 H 0.50233 0.47224 0.33864 0.0
H293 H 0.43631 0.47177 0.05262 0.0
H294 H 0.39329 0.48223 0.97572 0.0
H295 H 0.5982 0.56499 0.60832 0.0
H296 H 0.37161 0.54295 0.74917 0.0
H297 H 0.39877 0.57481 0.66431 0.0
H298 H 0.5271 0.55698 0.21721 0.0
H299 H 0.36977 0.50811 0.86523 0.0
H300 H 0.59114 0.6088 0.3742 0.0
H301 H 0.61362 0.60156 0.51292 0.0
N302 N 0.56702 0.5526 0.52512 0.0
C303 C 0.55579 0.55498 0.44703 0.0
C304 C 0.58851 0.56806 0.54745 0.0
C305 C 0.58433 0.59286 0.41581 0.0
C306 C 0.59718 0.58874 0.49384 0.0
C307 C 0.56386 0.57539 0.39041 0.0
H308 H 0.55796 0.59246 0.26478 0.0
N309 N 0.53395 0.51424 0.47411 0.0
C310 C 0.5385 0.53509 0.42058 0.0
C311 C 0.51457 0.51248 0.30789 0.0
C312 C 0.52871 0.53497 0.3363 0.0
C313 C 0.52276 0.49114 0.44369 0.0
C314 C 0.5122 0.49019 0.36116 0.0
O315 O 0.50136 0.49686 0.78887 0.0
O316 O 0.53232 0.48321 0.68705 0.0
O317 O 0.58115 0.50089 0.54221 0.0
O318 O 0.58183 0.49866 0.67896 0.0
O319 O 0.53518 0.52443 0.83159 0.0
O320 O 0.56316 0.54205 0.73261 0.0
O321 O 0.54518 0.56375 0.64998 0.0
O322 O 0.5004 0.56875 0.66808 0.0
O323 O 0.52186 0.57353 0.82937 0.0
O324 O 0.48104 0.56953 0.8805 0.0
O325 O 0.50572 0.50565 0.59668 0.0
O326 O 0.48227 0.54111 0.64706 0.0
C327 C 0.51551 0.47822 0.75046 0.0
C328 C 0.55921 0.53296 0.81006 0.0
C329 C 0.59748 0.46172 0.60572 0.0
C330 C 0.57984 0.41643 0.59193 0.0
C331 C 0.62691 0.42397 0.62519 0.0
C332 C 0.62291 0.45156 0.62337 0.0
C333 C 0.60558 0.40646 0.60946 0.0
C334 C 0.57612 0.44422 0.59044 0.0
C335 C 0.59261 0.49048 0.60875 0.0
C336 C 0.53479 0.55648 0.28176 0.0
C337 C 0.55237 0.57669 0.30881 0.0
H338 H 0.50667 0.51158 0.24366 0.0
C339 C 0.52341 0.57811 0.64013 0.0
C340 C 0.48469 0.5214 0.59297 0.0
C341 C 0.50874 0.60542 0.93712 0.0
C342 C 0.53794 0.64137 0.9842 0.0
C343 C 0.49648 0.63214 0.05955 0.0
C344 C 0.49082 0.61138 1.00317 0.0
C345 C 0.52001 0.64697 0.0506 0.0
C346 C 0.53215 0.62077 0.92708 0.0
C347 C 0.50384 0.58233 0.88199 0.0
H348 H 0.64661 0.41612 0.63848 0.0
H349 H 0.63955 0.46492 0.63636 0.0
H350 H 0.60946 0.38521 0.60917 0.0
H351 H 0.55646 0.45241 0.57903 0.0
H352 H 0.48271 0.6366 0.11064 0.0
H353 H 0.4727 0.59974 1.01212 0.0
H354 H 0.52414 0.66302 0.09498 0.0
H355 H 0.54612 0.61644 0.87622 0.0
C356 C 0.0594 0.46708 0.84996 0.0
C357 C 0.07461 0.4854 0.98488 0.0
C358 C 0.05676 0.48553 0.91526 0.0
C359 C 0.09519 0.46646 0.988 0.0
C360 C 0.07942 0.44736 0.85475 0.0
C361 C 0.09754 0.44744 0.92324 0.0
N362 N 0.04195 0.46792 0.7833 0.0
C363 C 0.04102 0.44718 0.72695 0.0
C364 C 0.08024 0.42774 0.79162 0.0
C365 C 0.06054 0.42729 0.72864 0.0
Gd366 Gd 0.04215 0.55115 0.609 0.0
Gd367 Gd 1.01132 0.50383 0.7848 0.0
N368 N 0.03719 0.50417 0.90935 0.0
C369 C 0.07155 0.50469 0.04846 0.0
C370 C 0.03334 0.52226 0.97295 0.0
C371 C 0.05079 0.52316 0.04233 0.0
H372 H 0.01728 0.53648 0.96918 0.0
H373 H 0.0484 0.5384 0.09016 0.0
H374 H 0.08454 0.51752 0.48578 0.0
H375 H 0.02478 0.44524 0.68227 0.0
H376 H 0.08918 0.50603 0.33333 0.0
H377 H 0.08512 0.50554 0.10225 0.0
H378 H 0.10926 0.46623 0.04053 0.0
H379 H 0.99914 0.60239 0.61949 0.0
H380 H 0.09525 0.41221 0.79306 0.0
H381 H 0.06005 0.41132 0.68231 0.0
H382 H 0.02005 0.55696 0.19541 0.0
H383 H 0.11323 0.43264 0.92729 0.0
H384 H 0.96898 0.61685 0.3681 0.0
H385 H 0.96948 0.62745 0.52201 0.0
N386 N 1.01473 0.57762 0.52175 0.0
C387 C 1.01583 0.57252 0.43701 0.0
C388 C 0.99917 0.5978 0.55234 0.0
C389 C 0.98207 0.60588 0.41052 0.0
C390 C 0.98231 0.61195 0.49736 0.0
C391 C 0.99923 0.5862 0.37912 0.0
H392 H 0.98783 0.5902 0.24647 0.0
N393 N 0.05081 0.54239 0.46556 0.0
C394 C 0.03423 0.55407 0.4082 0.0
C395 C 0.05602 0.53052 0.29404 0.0
C396 C 0.03633 0.54845 0.32066 0.0
C397 C 0.07088 0.52597 0.4397 0.0
C398 C 0.0736 0.51951 0.35363 0.0
O399 O 0.05054 0.5273 0.80127 0.0
O400 O 0.06895 0.52079 0.67287 0.0
O401 O 0.07316 0.57588 0.55253 0.0
O402 O 0.06428 0.57921 0.68746 0.0
O403 O 1.00219 0.54627 0.82306 0.0
O404 O 0.0241 0.57281 0.72295 0.0
O405 O 0.99766 0.54435 0.58615 0.0
O406 O 0.97865 0.52093 0.69919 0.0
O407 O 0.97887 0.50292 0.87674 0.0
O408 O 0.99199 0.46634 0.8192 0.0
O409 O 0.04837 0.5065 0.59356 0.0
O410 O 1.00924 0.48985 0.64633 0.0
C411 C 0.07193 0.52245 0.75542 0.0
C412 C 1.01057 0.56969 0.79472 0.0
C413 C 0.1091 0.5829 0.64689 0.0
C414 C 0.15003 0.55653 0.64348 0.0
C415 C 0.14985 0.60075 0.70824 0.0
C416 C 0.12277 0.60356 0.68845 0.0
C417 C 0.16352 0.57755 0.68528 0.0
C418 C 0.12254 0.55928 0.62697 0.0
C419 C 0.08066 0.58556 0.626 0.0
C420 C 0.01904 0.56119 0.26286 0.0
C421 C 1.00062 0.58011 0.29198 0.0
H422 H 0.05819 0.52535 0.22775 0.0
C423 C 0.97684 0.53415 0.62645 0.0
C424 C 0.02833 0.4895 0.58853 0.0
C425 C 0.94547 0.47399 0.82278 0.0
C426 C 0.90147 0.49279 0.79078 0.0
C427 C 0.91679 0.45319 0.7164 0.0
C428 C 0.9407 0.45378 0.76241 0.0
C429 C 0.89746 0.47277 0.72933 0.0
C430 C 0.92531 0.49274 0.83861 0.0
C431 C 0.97261 0.47831 0.8585 0.0
H432 H 0.16045 0.61683 0.73987 0.0
H433 H 0.11252 0.62181 0.7054 0.0
H434 H 0.18478 0.57662 0.69786 0.0
H435 H 0.11141 0.54312 0.59778 0.0
H436 H 0.91354 0.43789 0.66885 0.0
H437 H 0.9558 0.43901 0.74835 0.0
H438 H 0.87959 0.47239 0.69032 0.0
H439 H 0.92863 0.5078 0.88692 0.0
H440 H 0.1615 0.05823 0.10822 0.0
H441 H 0.10917 1.00626 0.56398 0.0
H442 H 0.20868 1.01134 0.2821 0.0
H443 H 0.06577 0.06475 0.41718 0.0
H444 H 0.145 1.00769 0.45899 0.0
H445 H 0.12617 0.06131 0.21738 0.0
C446 C 0.16463 0.04897 0.16983 0.0
C447 C 0.18825 0.03461 0.18584 0.0
C448 C 0.12773 0.02033 0.4495 0.0
C449 C 0.14752 0.03752 0.311 0.0
C450 C 0.10707 0.01952 0.50979 0.0
C451 C 0.08412 0.03549 0.50046 0.0
C452 C 0.12573 0.03702 0.37761 0.0
C453 C 0.08294 0.05209 0.42779 0.0
C454 C 0.14437 0.05059 0.23203 0.0
C455 C 0.19096 0.02271 0.26665 0.0
N456 N 0.10329 0.05233 0.36928 0.0
N457 N 0.17091 0.02426 0.32543 0.0
H458 H 0.50608 0.16423 0.13183 0.0
H459 H 0.52428 0.12006 0.6216 0.0
H460 H 0.52336 0.21928 0.33486 0.0
H461 H 0.49864 0.06488 0.4275 0.0
H462 H 0.52276 0.15638 0.51768 0.0
H463 H 0.50151 0.12798 0.23729 0.0
C464 C 0.50846 0.1688 0.19874 0.0
C465 C 0.51513 0.19496 0.22414 0.0
C466 C 0.51735 0.1364 0.4974 0.0
C467 C 0.51031 0.15324 0.34617 0.0
C468 C 0.51838 0.11547 0.557 0.0
C469 C 0.51197 0.08905 0.53378 0.0
C470 C 0.50995 0.13123 0.41255 0.0
C471 C 0.50379 0.0848 0.4489 0.0
C472 C 0.506 0.14802 0.25908 0.0
C473 C 0.51817 0.19953 0.31202 0.0
N474 N 0.50326 0.10552 0.3915 0.0
N475 N 0.51599 0.17898 0.36929 0.0
H476 H 0.37048 0.56219 0.19705 0.0
H477 H 0.4632 0.47616 0.51363 0.0
H478 H 0.3473 0.48227 0.26893 0.0
H479 H 0.45891 0.56209 0.51285 0.0
H480 H 0.42687 0.47491 0.406 0.0
H481 H 0.40914 0.55919 0.29179 0.0
C482 C 0.37384 0.54369 0.23132 0.0
C483 C 0.3557 0.52227 0.22285 0.0
C484 C 0.43401 0.49399 0.42932 0.0
C485 C 0.40028 0.51884 0.33459 0.0
C486 C 0.45488 0.49473 0.49037 0.0
C487 C 0.46422 0.51929 0.52285 0.0
C488 C 0.42278 0.51801 0.39899 0.0
C489 C 0.45241 0.54267 0.49045 0.0
C490 C 0.39589 0.54209 0.28629 0.0
C491 C 0.36091 0.49913 0.2716 0.0
N492 N 0.43264 0.54144 0.43063 0.0
N493 N 0.3827 0.49799 0.32501 0.0
H494 H 0.97836 0.36445 0.23648 0.0
H495 H 0.07088 0.46775 0.49896 0.0
H496 H 0.06375 0.35478 0.25309 0.0
H497 H 0.98546 0.46057 0.52905 0.0
H498 H 0.06962 0.43046 0.39671 0.0
H499 H 0.98155 0.40342 0.32946 0.0
C500 C 0.99793 0.37084 0.25836 0.0
C501 C 0.02085 0.3565 0.23457 0.0
C502 C 0.05116 0.43713 0.42544 0.0
C503 C 0.02469 0.40138 0.34416 0.0
C504 C 0.05182 0.45861 0.48348 0.0
C505 C 0.0282 0.46762 0.52278 0.0
C506 C 0.02665 0.42461 0.4053 0.0
C507 C 1.00421 0.45448 0.50081 0.0
C508 C 0.99972 0.39306 0.3123 0.0
C509 C 0.04556 0.36543 0.26773 0.0
N510 N 1.00407 0.43391 0.44381 0.0
N511 N 0.04684 0.38728 0.32031 0.0
H512 H 0.8522 0.99284 0.14208 0.0
H513 H 0.95867 0.07167 0.85203 0.0
H514 H 0.86236 0.07834 0.13888 0.0
H515 H 0.96452 0.98656 0.88952 0.0
H516 H 0.92266 0.07318 0.95578 0.0
H517 H 0.89225 0.98869 0.05128 0.0
C518 C 0.8631 1.0107 0.12403 0.0
C519 C 0.85404 0.03599 0.15023 0.0
C520 C 0.93174 0.05409 0.94203 0.0
C521 C 0.89958 0.03142 0.04353 0.0
C522 C 0.95239 0.05317 0.88213 0.0
C523 C 0.96476 0.02891 0.86108 0.0
C524 C 0.9227 0.03051 0.98175 0.0
C525 C 0.95567 1.00574 0.90356 0.0
C526 C 0.88594 1.00831 0.07168 0.0
C527 C 0.86875 0.05839 0.12223 0.0
N528 N 0.93506 1.00705 0.96118 0.0
N529 N 0.89047 0.05558 0.07065 0.0
H530 H 0.48875 0.88169 0.23317 0.0
H531 H 0.55677 0.94772 0.81687 0.0
H532 H 0.54196 0.83899 0.06731 0.0
H533 H 0.49375 0.98547 0.95871 0.0
H534 H 0.555 0.90965 0.91534 0.0
H535 H 0.49418 0.92164 0.14328 0.0
C536 C 0.5019 0.88082 0.17851 0.0
C537 C 0.51486 0.85682 0.15789 0.0
C538 C 0.54159 0.92626 0.9253 0.0
C539 C 0.52107 0.90268 0.05353 0.0
C540 C 0.54251 0.94804 0.86865 0.0
C541 C 0.52504 0.96977 0.87814 0.0
C542 C 0.52333 0.92617 0.99348 0.0
C543 C 0.50751 0.96918 0.94824 0.0
C544 C 0.50486 0.90363 0.12674 0.0
C545 C 0.53164 0.857 0.08595 0.0
N546 N 0.50704 0.9478 1.0027 0.0
N547 N 0.53413 0.87939 0.03639 0.0
H548 H 0.71692 0.53518 0.05592 0.0
H549 H 0.55771 0.52147 0.98268 0.0
H550 H 0.66116 0.52056 0.25967 0.0
H551 H 0.61265 0.54489 0.7843 0.0
H552 H 0.59496 0.52149 0.08469 0.0
H553 H 0.67918 0.54011 0.95675 0.0
C554 C 0.69673 0.53356 0.08027 0.0
C555 C 0.69238 0.52762 0.16682 0.0
C556 C 0.59891 0.5267 0.01891 0.0
C557 C 0.64864 0.53249 0.05228 0.0
C558 C 0.57755 0.52662 0.96026 0.0
C559 C 0.58179 0.53312 0.87399 0.0
C560 C 0.62504 0.53314 0.99175 0.0
C561 C 0.60818 0.53973 0.84976 0.0
C562 C 0.67509 0.53612 0.02329 0.0
C563 C 0.66559 0.52525 0.19384 0.0
N564 N 0.62863 0.53945 0.90781 0.0
N565 N 0.64491 0.52744 0.13704 0.0
H566 H 0.99668 0.67351 0.24132 0.0
H567 H 0.02775 0.62159 0.76687 0.0
H568 H 0.02952 0.72357 0.04361 0.0
H569 H 0.98616 0.57351 0.95343 0.0
H570 H 0.02691 0.65929 0.86552 0.0
H571 H 0.99087 0.63732 0.13678 0.0
C572 C 1.00224 0.67706 0.1756 0.0
C573 C 1.01362 0.70174 0.1516 0.0
C574 C 0.01779 0.64057 0.88488 0.0
C575 C 1.00744 0.66002 0.0309 0.0
C576 C 0.01817 0.61888 0.82812 0.0
C577 C 1.00716 0.59389 0.8511 0.0
C578 C 1.00644 0.63761 0.96641 0.0
C579 C 0.99515 0.59209 0.93227 0.0
C580 C 0.99907 0.6563 0.11585 0.0
C581 C 0.02067 0.70498 0.06535 0.0
N582 N 0.99531 0.61341 0.98676 0.0
N583 N 0.0177 0.68443 1.00878 0.0
H584 H 0.10966 0.2219 0.24169 0.0
H585 H 0.02732 0.19883 0.65489 0.0
H586 H 0.05971 0.279 0.37146 0.0
H587 H 0.05389 0.13935 0.47513 0.0
H588 H 0.06136 0.22942 0.59921 0.0
H589 H 0.11152 0.19547 0.37259 0.0
C590 C 0.09967 0.22932 0.29795 0.0
C591 C 0.0832 0.25195 0.29363 0.0
C592 C 0.06027 0.20927 0.57442 0.0
C593 C 0.0857 0.22207 0.4436 0.0
C594 C 0.04058 0.19187 0.60533 0.0
C595 C 0.03626 0.16708 0.56561 0.0
C596 C 0.07566 0.20165 0.50385 0.0
C597 C 0.05543 0.15855 0.5061 0.0
C598 C 0.10102 0.21435 0.37298 0.0
C599 C 0.07203 0.26132 0.37009 0.0
N600 N 0.07377 0.17609 0.47533 0.0
N601 N 0.07285 0.24594 0.44122 0.0
H602 H 0.31854 0.10915 0.25232 0.0
H603 H 0.38261 0.98731 0.43776 0.0
H604 H 0.27509 0.03863 0.32986 0.0
H605 H 0.42351 0.06244 0.4026 0.0
H606 H 0.34045 1.01112 0.45446 0.0
H607 H 0.35138 0.10063 0.36369 0.0
C608 C 0.31531 0.09252 0.29548 0.0
C609 C 0.29499 0.07378 0.27954 0.0
C610 C 0.35865 0.02261 0.44547 0.0
C611 C 0.33292 0.06316 0.40374 0.0
C612 C 0.38263 1.00895 0.43551 0.0
C613 C 0.40603 0.02309 0.41607 0.0
C614 C 0.35811 0.05043 0.43211 0.0
C615 C 0.4055 0.05099 0.41536 0.0
C616 C 0.33416 0.0875 0.35889 0.0
C617 C 0.29113 0.05302 0.33833 0.0
N618 N 0.3817 0.06381 0.42074 0.0
N619 N 0.31059 0.04761 0.39602 0.0
H620 H 0.46434 0.34193 0.28339 0.0
H621 H 0.5691 0.36583 0.65463 0.0
H622 H 0.52073 0.28297 0.37168 0.0
H623 H 0.53855 0.42528 0.47997 0.0
H624 H 0.53648 0.33379 0.59772 0.0
H625 H 0.47552 0.36966 0.40644 0.0
C626 C 0.47853 0.33449 0.32984 0.0
C627 C 0.49248 0.31067 0.31552 0.0
C628 C 0.53659 0.35413 0.57397 0.0
C629 C 0.5051 0.34207 0.45594 0.0
C630 C 0.55542 0.37233 0.60534 0.0
C631 C 0.55727 0.39816 0.57035 0.0
C632 C 0.51934 0.36198 0.50814 0.0
C633 C 0.53815 0.40572 0.50928 0.0
C634 C 0.48478 0.35024 0.40012 0.0
C635 C 0.5099 0.30147 0.37927 0.0
N636 N 0.52027 0.38761 0.47942 0.0
N637 N 0.51627 0.31755 0.4458 0.0
H638 H 0.27529 0.49974 0.38129 0.0
H639 H 0.19541 0.53201 0.70825 0.0
H640 H 0.20941 0.4544 0.27562 0.0
H641 H 0.13859 0.52672 0.5007 0.0
H642 H 0.2236 0.49966 0.63451 0.0
H643 H 0.25094 0.50396 0.51308 0.0
C644 C 0.25616 0.48962 0.38654 0.0
C645 C 0.24397 0.47759 0.31545 0.0
C646 C 0.20469 0.50537 0.60637 0.0
C647 C 0.2156 0.48298 0.46703 0.0
C648 C 0.18867 0.52405 0.64784 0.0
C649 C 0.16488 0.53308 0.60966 0.0
C650 C 0.19678 0.49568 0.52635 0.0
C651 C 0.15663 0.5208 0.53345 0.0
C652 C 0.24216 0.49206 0.46269 0.0
C653 C 0.21908 0.46498 0.32733 0.0
N654 N 0.17273 0.50307 0.494 0.0
N655 N 0.20525 0.46888 0.40056 0.0
H656 H 1.00808 0.7824 0.99906 0.0
H657 H 1.01195 0.92552 0.85371 0.0
H658 H 0.95512 0.8437 0.09124 0.0
H659 H 0.05478 0.86247 0.72527 0.0
H660 H 0.97872 0.89373 0.89728 0.0
H661 H 1.01252 0.80652 0.86567 0.0
C662 C 0.99666 0.80054 0.99052 0.0
C663 C 0.98209 0.81164 0.0581 0.0
C664 C 0.99509 0.88679 0.85815 0.0
C665 C 0.98791 0.83987 0.90586 0.0
C666 C 1.01435 0.9052 0.8321 0.0
C667 C 0.03765 0.89663 0.78999 0.0
C668 C 0.99961 0.85949 0.84541 0.0
C669 C 0.0384 0.86984 0.76335 0.0
C670 C 0.9993 0.81441 0.91394 0.0
C671 C 0.9676 0.83506 0.04236 0.0
N672 N 0.02029 0.85198 0.79447 0.0
N673 N 0.97148 0.8488 0.96875 0.0
H674 H 0.78498 0.97933 0.04551 0.0
H675 H 0.64052 0.97882 0.97545 0.0
H676 H 0.72908 0.93483 0.20075 0.0
H677 H 0.69764 1.00711 0.78893 0.0
H678 H 0.67221 0.94583 0.02207 0.0
H679 H 0.75782 0.97015 0.92196 0.0
C680 C 0.76755 0.96665 0.05374 0.0
C681 C 0.7582 0.9596 0.13523 0.0
C682 C 0.67775 0.95878 0.96951 0.0
C683 C 0.72619 0.95041 0.99373 0.0
C684 C 0.65943 0.97781 0.94224 0.0
C685 C 0.66678 0.99698 0.88076 0.0
C686 C 0.70404 0.95967 0.93824 0.0
C687 C 0.69164 0.99396 0.84036 0.0
C688 C 0.75178 0.96157 0.98239 0.0
C689 C 0.73599 0.94238 0.13991 0.0
N690 N 0.70973 0.97633 0.87179 0.0
N691 N 0.71998 0.93935 0.07069 0.0
H692 H 0.56763 0.78223 0.05321 0.0
H693 H 0.55105 0.67577 0.85538 0.0
H694 H 0.62265 0.74372 0.22502 0.0
H695 H 0.58 0.64391 0.09292 0.0
H696 H 0.58286 0.713 0.86813 0.0
H697 H 0.57916 0.75066 0.94426 0.0
C698 C 0.58318 0.76785 0.06706 0.0
C699 C 0.5927 0.76427 0.15039 0.0
C700 C 0.58272 0.69763 0.91671 0.0
C701 C 0.60517 0.72702 0.0265 0.0
C702 C 0.56473 0.67628 0.90893 0.0
C703 C 0.56232 0.65767 0.97527 0.0
C704 C 0.5975 0.70046 0.99263 0.0
C705 C 0.58074 0.65859 0.04216 0.0
C706 C 0.58978 0.74946 1.00415 0.0
C707 C 0.61347 0.74596 0.16294 0.0
N708 N 0.59717 0.68004 0.05018 0.0
N709 N 0.61825 0.72719 0.10271 0.0
H710 H 0.76528 0.547 0.01536 0.0
H711 H 0.90921 0.54575 0.83385 0.0
H712 H 0.82953 0.59857 0.09981 0.0
H713 H 0.84669 0.48804 0.78154 0.0
H714 H 0.87563 0.57682 0.88381 0.0
H715 H 0.7886 0.54019 0.88243 0.0
C716 C 0.78381 0.55782 1.0051 0.0
C717 C 0.79613 0.57231 0.07105 0.0
C718 C 0.86922 0.55759 0.85941 0.0
C719 C 0.82347 0.56344 0.91981 0.0
C720 C 0.88844 0.53961 0.83163 0.0
C721 C 0.88098 0.51368 0.80607 0.0
C722 C 0.84236 0.54952 0.86311 0.0
C723 C 0.85359 0.50753 0.80176 0.0
C724 C 0.7973 0.55363 0.92893 0.0
C725 C 0.81998 0.58605 0.05244 0.0
N726 N 0.83534 0.52509 0.8319 0.0
N727 N 0.83342 0.5805 0.97961 0.0
H728 H 1.00424 0.2323 1.00913 0.0
H729 H 0.07403 0.11374 0.74133 0.0
H730 H 0.08943 0.22306 0.98391 0.0
H731 H 0.99026 0.11329 0.80486 0.0
H732 H 0.07909 0.15669 0.81472 0.0
H733 H 0.99768 0.19246 0.91872 0.0
C734 C 0.02155 0.22235 0.98292 0.0
C735 C 0.04745 0.23136 1.00391 0.0
C736 C 0.05955 0.14728 0.81276 0.0
C737 C 0.04012 0.18522 0.90098 0.0
C738 C 0.0567 0.12253 0.77126 0.0
C739 C 0.03187 0.10923 0.76874 0.0
C740 C 0.0373 0.1594 0.85151 0.0
C741 C 1.00993 0.12245 0.80583 0.0
C742 C 0.01781 0.19937 0.932 0.0
C743 C 0.0691 0.21707 0.96932 0.0
N744 N 1.01316 0.14656 0.84582 0.0
N745 N 0.06497 0.19492 0.92024 0.0
H746 H 0.30829 1.01693 0.93696 0.0
H747 H 0.45537 0.07547 0.85495 0.0
H748 H 0.33296 0.09692 1.00206 0.0
H749 H 0.42555 1.00954 0.70566 0.0
H750 H 0.4108 0.08149 0.91418 0.0
H751 H 0.35015 1.01182 0.85448 0.0
C752 C 0.32207 0.03364 0.93229 0.0
C753 C 0.31689 0.0574 0.97713 0.0
C754 C 0.41389 0.06562 0.8686 0.0
C755 C 0.36539 0.05139 0.88481 0.0
C756 C 0.43961 0.06199 0.83494 0.0
C757 C 0.44494 0.04139 0.77664 0.0
C758 C 0.39279 0.04841 0.84511 0.0
C759 C 0.42294 0.02529 0.75181 0.0
C760 C 0.34615 0.03062 0.88581 0.0
C761 C 0.33597 0.07814 0.96945 0.0
N762 N 0.39807 0.02888 0.78689 0.0
N763 N 0.35924 0.07453 0.9258 0.0
H764 H 0.459 0.3355 0.01652 0.0
H765 H 0.55252 0.43712 0.74872 0.0
H766 H 0.54296 0.32133 0.97858 0.0
H767 H 0.47264 0.45493 0.83283 0.0
H768 H 0.54834 0.39229 0.81242 0.0
H769 H 0.4624 0.37587 0.92876 0.0
C770 C 0.47804 0.34042 0.98733 0.0
C771 C 0.50056 0.32448 1.00383 0.0
C772 C 0.53163 0.4059 0.81628 0.0
C773 C 0.50495 0.37183 0.90452 0.0
C774 C 0.53389 0.43149 0.77882 0.0
C775 C 0.5128 0.45 0.78384 0.0
C776 C 0.50801 0.39846 0.85931 0.0
C777 C 0.4895 0.44159 0.82687 0.0
C778 C 0.48007 0.36378 0.93799 0.0
C779 C 0.5249 0.33252 0.9661 0.0
N780 N 0.48777 0.41668 0.86246 0.0
N781 N 0.52648 0.35562 0.91886 0.0
H782 H 0.2064 0.5388 0.10687 0.0
H783 H 0.11621 0.49361 0.70486 0.0
H784 H 0.23337 0.48071 0.92513 0.0
H785 H 0.08997 0.54774 0.89988 0.0
H786 H 0.15994 0.49035 0.77683 0.0
H787 H 0.16561 0.54511 0.023 0.0
C788 C 0.20408 0.52786 0.04787 0.0
C789 C 0.22377 0.5095 0.02272 0.0
C790 C 0.14473 0.50313 0.80357 0.0
C791 C 0.17605 0.51601 0.92636 0.0
C792 C 0.11969 0.50501 0.76238 0.0
C793 C 0.09919 0.52099 0.79614 0.0
C794 C 0.14971 0.5177 0.87866 0.0
C795 C 0.10499 0.53511 0.87134 0.0
C796 C 0.18052 0.53125 1.00027 0.0
C797 C 0.21912 0.49546 0.94639 0.0
N798 N 0.1295 0.53319 0.90954 0.0
N799 N 0.19578 0.49885 0.90145 0.0
H800 H 0.95807 0.84271 0.3584 0.0
H801 H 0.05773 0.94531 0.59711 0.0
H802 H 0.04232 0.82746 0.38435 0.0
H803 H 0.97236 0.95563 0.57946 0.0
H804 H 0.05293 0.90141 0.52831 0.0
H805 H 0.96314 0.88256 0.44714 0.0
C806 C 0.9776 0.8474 0.38455 0.0
C807 C 0.99968 0.83125 0.36463 0.0
C808 C 0.03523 0.91327 0.53947 0.0
C809 C 1.00596 0.878 0.46543 0.0
C810 C 0.03794 0.93844 0.57912 0.0
C811 C 1.01548 0.95478 0.59336 0.0
C812 C 1.00984 0.90407 0.51321 0.0
C813 C 0.99042 0.94435 0.56851 0.0
C814 C 0.98056 0.8704 0.43486 0.0
C815 C 0.02461 0.83889 0.39916 0.0
N816 N 0.98836 0.92001 0.52956 0.0
N817 N 0.02711 0.86171 0.44701 0.0
H818 H 0.70267 0.02527 0.24895 0.0
H819 H 0.6223 0.03337 0.69243 0.0
H820 H 0.74157 1.01427 0.49117 0.0
H821 H 0.58461 0.02881 0.44593 0.0
H822 H 0.66631 0.03202 0.62312 0.0
H823 H 0.66035 0.03312 0.32237 0.0
C824 C 0.70244 0.02506 0.31794 0.0
C825 C 0.72596 0.01916 0.36362 0.0
C826 C 0.64844 0.03145 0.58409 0.0
C827 C 0.6768 0.02772 0.44925 0.0
C828 C 0.62318 0.03231 0.62371 0.0
C829 C 0.59939 0.03109 0.57542 0.0
C830 C 0.65024 0.02969 0.49484 0.0
C831 C 0.60215 0.02962 0.48634 0.0
C832 C 0.67811 0.02932 0.35997 0.0
C833 C 0.72416 0.01901 0.45312 0.0
N834 N 0.6269 0.02898 0.44937 0.0
N835 N 0.70006 0.023 0.49286 0.0
H836 H 0.5803 0.73252 0.45312 0.0
H837 H 0.48388 0.607 0.55869 0.0
H838 H 0.49925 0.7278 0.36114 0.0
H839 H 0.56631 0.61297 0.63678 0.0
H840 H 0.48743 0.65181 0.4942 0.0
H841 H 0.57373 0.69043 0.52977 0.0
C842 C 0.56085 0.72289 0.45048 0.0
C843 C 0.54026 0.73407 0.40086 0.0
C844 C 0.50476 0.64333 0.52535 0.0
C845 C 0.53264 0.68481 0.48794 0.0
C846 C 0.50275 0.61768 0.56242 0.0
C847 C 0.52498 0.60577 0.60228 0.0
C848 C 0.52914 0.65755 0.52867 0.0
C849 C 0.54881 0.62084 0.6051 0.0
C850 C 0.55716 0.69861 0.49388 0.0
C851 C 0.5156 0.72029 0.39943 0.0
N852 N 0.55023 0.64569 0.56895 0.0
N853 N 0.51256 0.69638 0.44153 0.0
H854 H 0.84784 0.52317 0.25583 0.0
H855 H 0.92681 0.53629 0.6991 0.0
H856 H 0.8095 0.55823 0.47391 0.0
H857 H 0.96529 0.53573 0.45474 0.0
H858 H 0.88273 0.53757 0.62719 0.0
H859 H 0.88931 0.51955 0.33706 0.0
C860 C 0.84796 0.52986 0.32138 0.0
C861 C 0.82489 0.5414 0.35711 0.0
C862 C 0.90081 0.53716 0.58938 0.0
C863 C 0.87314 0.53707 0.45202 0.0
C864 C 0.92594 0.53632 0.6305 0.0
C865 C 0.94988 0.53585 0.58356 0.0
C866 C 0.89944 0.5369 0.49986 0.0
C867 C 0.94756 0.53624 0.4942 0.0
C868 C 0.87186 0.52788 0.36773 0.0
C869 C 0.82657 0.54917 0.44325 0.0
N870 N 0.923 0.53648 0.45571 0.0
N871 N 0.85023 0.547 0.48751 0.0
loop_
_geom_bond_atom_site_label_1
_geom_bond_atom_site_label_2
_geom_bond_distance
_geom_bond_site_symmetry_2
_ccdc_geom_bond_type
H0 C7 0.929 . S
H1 C10 0.930 . S
H2 C12 0.929 . S
H3 C4 0.969 . S
C4 H3 0.969 . S
C4 O5 1.550 . S
C4 H6 0.973 . S
O5 C4 1.550 . S
O5 C11 1.412 . S
H6 C4 0.973 . S
C7 H0 0.929 . S
C7 C8 1.400 . S
C7 C9 1.364 . S
C8 C7 1.400 . S
C8 C12 1.377 . S
C9 C7 1.364 . S
C9 C10 1.374 . S
C10 H1 0.930 . S
C10 C9 1.374 . S
C10 C11 1.383 . S
C11 O5 1.412 . S
C11 C10 1.383 . S
C11 C12 1.394 . S
C12 H2 0.929 . S
C12 C8 1.377 . S
C12 C11 1.394 . S
H13 C20 0.929 . S
H14 C23 0.930 . S
H15 C25 0.929 . S
H16 C17 0.969 1_455 S
C17 H16 0.969 1_655 S
C17 O18 1.550 . S
C17 H19 0.973 . S
O18 C17 1.550 . S
O18 C24 1.412 . S
H19 C17 0.973 . S
C20 H13 0.929 . S
C20 C21 1.400 . S
C20 C22 1.364 . S
C21 C20 1.400 . S
C21 C25 1.377 . S
C22 C20 1.364 . S
C22 C23 1.374 . S
C23 H14 0.930 . S
C23 C22 1.374 . S
C23 C24 1.383 . S
C24 O18 1.412 . S
C24 C23 1.383 . S
C24 C25 1.394 . S
C25 H15 0.929 . S
C25 C21 1.377 . S
C25 C24 1.394 . S
H26 C33 0.929 . S
H27 C36 0.930 . S
H28 C38 0.929 . S
H29 C30 0.969 1_545 S
C30 H29 0.969 1_565 S
C30 O31 1.550 . S
C30 H32 0.973 . S
O31 C30 1.550 . S
O31 C37 1.412 . S
H32 C30 0.973 . S
C33 H26 0.929 . S
C33 C34 1.400 . S
C33 C35 1.364 . S
C34 C33 1.400 . S
C34 C38 1.377 . S
C35 C33 1.364 . S
C35 C36 1.374 . S
C36 H27 0.930 . S
C36 C35 1.374 . S
C36 C37 1.383 . S
C37 O31 1.412 . S
C37 C36 1.383 . S
C37 C38 1.394 . S
C38 H28 0.929 . S
C38 C34 1.377 . S
C38 C37 1.394 . S
H39 C46 0.929 . S
H40 C49 0.930 . S
H41 C51 0.929 . S
H42 C43 0.969 . S
C43 H42 0.969 . S
C43 O44 1.550 . S
C43 H45 0.973 . S
O44 C43 1.550 . S
O44 C50 1.412 . S
H45 C43 0.973 . S
C46 H39 0.929 . S
C46 C47 1.400 . S
C46 C48 1.364 . S
C47 C46 1.400 . S
C47 C51 1.377 . S
C48 C46 1.364 . S
C48 C49 1.374 . S
C49 H40 0.930 . S
C49 C48 1.374 . S
C49 C50 1.383 . S
C50 O44 1.412 . S
C50 C49 1.383 . S
C50 C51 1.394 . S
C51 H41 0.929 . S
C51 C47 1.377 . S
C51 C50 1.394 . S
H52 C59 0.929 . S
H53 C62 0.930 . S
H54 C64 0.929 . S
H55 C56 0.969 . S
C56 H55 0.969 . S
C56 O57 1.550 . S
C56 H58 0.973 . S
O57 C56 1.550 . S
O57 C63 1.412 . S
H58 C56 0.973 . S
C59 H52 0.929 . S
C59 C60 1.400 1_554 S
C59 C61 1.364 . S
C60 C59 1.400 1_556 S
C60 C64 1.377 . S
C61 C59 1.364 . S
C61 C62 1.374 . S
C62 H53 0.930 . S
C62 C61 1.374 . S
C62 C63 1.383 . S
C63 O57 1.412 . S
C63 C62 1.383 . S
C63 C64 1.394 1_554 S
C64 H54 0.929 . S
C64 C60 1.377 . S
C64 C63 1.394 1_556 S
H65 C72 0.929 . S
H66 C75 0.930 . S
H67 C77 0.929 . S
H68 C69 0.969 . S
C69 H68 0.969 . S
C69 O70 1.550 . S
C69 H71 0.973 . S
O70 C69 1.550 . S
O70 C76 1.412 . S
H71 C69 0.973 . S
C72 H65 0.929 . S
C72 C73 1.400 1_554 S
C72 C74 1.364 . S
C73 C72 1.400 1_556 S
C73 C77 1.377 . S
C74 C72 1.364 . S
C74 C75 1.374 . S
C75 H66 0.930 . S
C75 C74 1.374 . S
C75 C76 1.383 . S
C76 O70 1.412 . S
C76 C75 1.383 . S
C76 C77 1.394 1_554 S
C77 H67 0.929 . S
C77 C73 1.377 . S
C77 C76 1.394 1_556 S
H78 C85 0.929 . S
H79 C88 0.930 . S
H80 C90 0.929 . S
H81 C82 0.969 . S
C82 H81 0.969 . S
C82 O83 1.550 . S
C82 H84 0.973 . S
O83 C82 1.550 . S
O83 C89 1.412 . S
H84 C82 0.973 . S
C85 H78 0.929 . S
C85 C86 1.400 1_554 S
C85 C87 1.364 . S
C86 C85 1.400 1_556 S
C86 C90 1.377 . S
C87 C85 1.364 . S
C87 C88 1.374 . S
C88 H79 0.930 . S
C88 C87 1.374 . S
C88 C89 1.383 . S
C89 O83 1.412 . S
C89 C88 1.383 . S
C89 C90 1.394 1_554 S
C90 H80 0.929 . S
C90 C86 1.377 . S
C90 C89 1.394 1_556 S
H91 C98 0.929 . S
H92 C101 0.930 . S
H93 C103 0.929 . S
H94 C95 0.969 . S
C95 H94 0.969 . S
C95 O96 1.550 . S
C95 H97 0.973 . S
O96 C95 1.550 . S
O96 C102 1.412 . S
H97 C95 0.973 . S
C98 H91 0.929 . S
C98 C99 1.400 1_554 S
C98 C100 1.364 . S
C99 C98 1.400 1_556 S
C99 C103 1.377 . S
C100 C98 1.364 . S
C100 C101 1.374 . S
C101 H92 0.930 . S
C101 C100 1.374 . S
C101 C102 1.383 . S
C102 O96 1.412 . S
C102 C101 1.383 . S
C102 C103 1.394 1_554 S
C103 H93 0.929 . S
C103 C99 1.377 . S
C103 C102 1.394 1_556 S
C104 C106 1.422 . S
C104 C108 1.415 . S
C104 N110 1.369 . S
C105 C106 1.421 1_554 S
C105 C107 1.417 . S
C105 C117 1.422 . S
C106 C104 1.422 . S
C106 C105 1.421 1_556 S
C106 N116 1.359 . S
C107 C105 1.417 . S
C107 C109 1.329 . S
C107 H126 0.930 . S
C108 C104 1.415 . S
C108 C109 1.437 1_556 S
C108 C112 1.413 . S
C109 C107 1.329 . S
C109 C108 1.437 1_554 S
C109 H131 0.929 . S
N110 C104 1.369 . S
N110 C111 1.338 . S
N110 Gd115 2.622 1_545 S
C111 N110 1.338 . S
C111 C113 1.378 . S
C111 H123 0.929 1_545 S
C112 C108 1.413 . S
C112 C113 1.348 . S
C112 H128 0.931 . S
C113 C111 1.378 . S
C113 C112 1.348 . S
C113 H129 0.930 . S
Gd114 N134 2.622 . S
Gd114 N141 2.570 . S
Gd114 O148 2.353 1_655 S
Gd114 O149 2.468 1_655 S
Gd114 O150 2.427 . S
Gd114 O152 2.388 . S
Gd114 O153 2.386 1_545 S
Gd114 O157 2.307 1_655 S
Gd114 C167 2.805 . S
Gd115 N110 2.622 1_565 S
Gd115 N116 2.570 1_565 S
Gd115 O147 2.386 1_565 S
Gd115 O151 2.307 1_465 S
Gd115 O154 2.353 . S
Gd115 O155 2.468 . S
Gd115 O156 2.427 . S
Gd115 O158 2.388 . S
Gd115 C179 2.805 . S
N116 C106 1.359 . S
N116 Gd115 2.570 1_545 S
N116 C118 1.343 . S
C117 C105 1.422 . S
C117 C119 1.321 . S
C117 H125 0.931 . S
C118 N116 1.343 . S
C118 C119 1.390 1_556 S
C118 H120 0.931 1_455 S
C119 C117 1.321 . S
C119 C118 1.390 1_554 S
C119 H121 0.921 1_455 S
H120 C118 0.931 1_655 S
H121 C119 0.921 1_655 S
H122 C145 0.931 . S
H123 C111 0.929 1_565 S
H124 C146 0.930 . S
H125 C117 0.931 . S
H126 C107 0.930 . S
H127 C136 0.929 . S
H128 C112 0.931 . S
H129 C113 0.930 . S
H130 C168 0.930 . S
H131 C109 0.929 . S
H132 C137 0.931 . S
H133 C138 0.930 . S
N134 Gd114 2.622 . S
N134 C135 1.369 . S
N134 C136 1.338 . S
C135 N134 1.369 . S
C135 C139 1.415 1_545 S
C135 C142 1.427 . S
C136 H127 0.929 . S
C136 N134 1.338 . S
C136 C138 1.378 . S
C137 H132 0.931 . S
C137 C138 1.348 1_565 S
C137 C139 1.413 . S
C138 H133 0.930 . S
C138 C136 1.378 . S
C138 C137 1.348 1_545 S
C139 C135 1.415 1_565 S
C139 C137 1.413 . S
C139 C169 1.437 . S
H140 C169 0.929 . S
N141 Gd114 2.570 . S
N141 C142 1.374 . S
N141 C145 1.343 1_655 S
C142 C135 1.427 . S
C142 N141 1.374 . S
C142 C144 1.403 1_545 S
C143 C144 1.422 . S
C143 C146 1.321 1_655 S
C143 H170 0.931 . S
C144 C142 1.403 1_565 S
C144 C143 1.422 . S
C144 C168 1.417 . S
C145 H122 0.931 . S
C145 N141 1.343 1_455 S
C145 C146 1.390 1_545 S
C146 H124 0.930 . S
C146 C143 1.321 1_455 S
C146 C145 1.390 1_565 S
O147 Gd115 2.386 1_545 S
O147 C159 1.265 . S
O148 Gd114 2.353 1_455 S
O148 C159 1.242 . S
O149 Gd114 2.468 1_455 S
O149 C167 1.263 1_455 S
O150 Gd114 2.427 . S
O150 C167 1.252 . S
O151 Gd115 2.307 1_645 S
O151 C160 1.261 . S
O152 Gd114 2.388 . S
O152 C160 1.252 . S
O153 Gd114 2.386 1_565 S
O153 C171 1.265 . S
O154 Gd115 2.353 . S
O154 C171 1.242 1_455 S
O155 Gd115 2.468 . S
O155 C179 1.263 . S
O156 Gd115 2.427 . S
O156 C179 1.252 . S
O157 Gd114 2.307 1_455 S
O157 C172 1.261 . S
O158 Gd115 2.388 . S
O158 C172 1.252 1_565 S
C159 O147 1.265 . S
C159 O148 1.242 . S
C160 O151 1.261 . S
C160 O152 1.252 . S
C161 C164 1.394 . S
C161 C166 1.370 . S
C161 C167 1.500 . S
C162 C165 1.383 . S
C162 C166 1.395 . S
C163 C164 1.396 . S
C163 C165 1.365 . S
C163 H180 0.929 . S
C164 C161 1.394 . S
C164 C163 1.396 . S
C164 H181 0.930 . S
C165 C162 1.383 . S
C165 C163 1.365 . S
C165 H182 0.931 . S
C166 C161 1.370 . S
C166 C162 1.395 . S
C166 H183 0.930 1_655 S
C167 Gd114 2.805 . S
C167 O149 1.263 1_655 S
C167 O150 1.252 . S
C167 C161 1.500 . S
C168 H130 0.930 . S
C168 C144 1.417 . S
C168 C169 1.329 . S
C169 C139 1.437 . S
C169 H140 0.929 . S
C169 C168 1.329 . S
H170 C143 0.931 . S
C171 O153 1.265 . S
C171 O154 1.242 1_655 S
C172 O157 1.261 . S
C172 O158 1.252 1_545 S
C173 C176 1.394 . S
C173 C178 1.370 . S
C173 C179 1.500 . S
C174 C177 1.383 . S
C174 C178 1.395 . S
C175 C176 1.396 . S
C175 C177 1.365 . S
C175 H184 0.929 . S
C176 C173 1.394 . S
C176 C175 1.396 . S
C176 H185 0.930 . S
C177 C174 1.383 . S
C177 C175 1.365 . S
C177 H186 0.931 1_556 S
C178 C173 1.370 . S
C178 C174 1.395 . S
C178 H187 0.930 . S
C179 Gd115 2.805 . S
C179 O155 1.263 . S
C179 O156 1.252 . S
C179 C173 1.500 . S
H180 C163 0.929 . S
H181 C164 0.930 . S
H182 C165 0.931 . S
H183 C166 0.930 1_455 S
H184 C175 0.929 . S
H185 C176 0.930 . S
H186 C177 0.931 1_554 S
H187 C178 0.930 . S
C188 C190 1.422 . S
C188 C192 1.415 . S
C188 N194 1.369 . S
C189 C190 1.421 . S
C189 C191 1.417 . S
C189 C201 1.422 . S
C190 C188 1.422 . S
C190 C189 1.421 . S
C190 N200 1.359 . S
C191 C189 1.417 . S
C191 C193 1.329 . S
C191 H210 0.930 . S
C192 C188 1.415 . S
C192 C193 1.437 . S
C192 C196 1.413 . S
C193 C191 1.329 . S
C193 C192 1.437 . S
C193 H215 0.929 . S
N194 C188 1.369 . S
N194 C195 1.338 . S
N194 Gd199 2.622 . S
C195 N194 1.338 . S
C195 C197 1.378 . S
C195 H207 0.929 . S
C196 C192 1.413 . S
C196 C197 1.348 . S
C196 H212 0.931 . S
C197 C195 1.378 . S
C197 C196 1.348 . S
C197 H213 0.930 . S
Gd198 N218 2.622 . S
Gd198 N225 2.570 . S
Gd198 O232 2.353 1_545 S
Gd198 O233 2.468 . S
Gd198 O234 2.427 . S
Gd198 O236 2.388 . S
Gd198 O237 2.386 . S
Gd198 O241 2.307 . S
Gd198 C251 2.805 . S
Gd199 N194 2.622 . S
Gd199 N200 2.570 . S
Gd199 O231 2.386 . S
Gd199 O235 2.307 1_565 S
Gd199 O238 2.353 1_565 S
Gd199 O239 2.468 . S
Gd199 O240 2.427 . S
Gd199 O242 2.388 . S
Gd199 C263 2.805 . S
N200 C190 1.359 . S
N200 Gd199 2.570 . S
N200 C202 1.343 . S
C201 C189 1.422 . S
C201 C203 1.321 . S
C201 H209 0.931 . S
C202 N200 1.343 . S
C202 C203 1.390 . S
C202 H204 0.931 . S
C203 C201 1.321 . S
C203 C202 1.390 . S
C203 H205 0.930 . S
H204 C202 0.931 . S
H205 C203 0.930 . S
H206 C229 0.931 . S
H207 C195 0.929 . S
H208 C230 0.930 . S
H209 C201 0.931 . S
H210 C191 0.930 . S
H211 C220 0.929 . S
H212 C196 0.931 . S
H213 C197 0.930 . S
H214 C252 0.930 . S
H215 C193 0.929 . S
H216 C221 0.931 . S
H217 C222 0.930 . S
N218 Gd198 2.622 . S
N218 C219 1.369 . S
N218 C220 1.338 . S
C219 N218 1.369 . S
C219 C223 1.415 . S
C219 C226 1.422 . S
C220 H211 0.929 . S
C220 N218 1.338 . S
C220 C222 1.378 . S
C221 H216 0.931 . S
C221 C222 1.348 . S
C221 C223 1.413 . S
C222 H217 0.930 . S
C222 C220 1.378 . S
C222 C221 1.348 . S
C223 C219 1.415 . S
C223 C221 1.413 . S
C223 C253 1.437 . S
H224 C253 0.929 . S
N225 Gd198 2.570 . S
N225 C226 1.359 . S
N225 C229 1.343 . S
C226 C219 1.422 . S
C226 N225 1.359 . S
C226 C228 1.421 . S
C227 C228 1.422 . S
C227 C230 1.321 . S
C227 H254 0.931 . S
C228 C226 1.421 . S
C228 C227 1.422 . S
C228 C252 1.417 . S
C229 H206 0.931 . S
C229 N225 1.343 . S
C229 C230 1.390 . S
C230 H208 0.930 . S
C230 C227 1.321 . S
C230 C229 1.390 . S
O231 Gd199 2.386 . S
O231 C243 1.265 . S
O232 Gd198 2.353 1_565 S
O232 C243 1.242 . S
O233 Gd198 2.468 . S
O233 C251 1.263 . S
O234 Gd198 2.427 . S
O234 C251 1.252 . S
O235 Gd199 2.307 1_545 S
O235 C244 1.261 . S
O236 Gd198 2.388 . S
O236 C244 1.252 . S
O237 Gd198 2.386 . S
O237 C255 1.265 . S
O238 Gd199 2.353 1_545 S
O238 C255 1.242 . S
O239 Gd199 2.468 . S
O239 C263 1.263 . S
O240 Gd199 2.427 . S
O240 C263 1.252 . S
O241 Gd198 2.307 . S
O241 C256 1.261 . S
O242 Gd199 2.388 . S
O242 C256 1.252 1_565 S
C243 O231 1.265 . S
C243 O232 1.242 . S
C244 O235 1.261 . S
C244 O236 1.252 . S
C245 C248 1.394 1_556 S
C245 C250 1.370 . S
C245 C251 1.500 . S
C246 C249 1.383 . S
C246 C250 1.395 1_554 S
C247 C248 1.396 . S
C247 C249 1.365 . S
C247 H264 0.929 . S
C248 C245 1.394 1_554 S
C248 C247 1.396 . S
C248 H265 0.930 . S
C249 C246 1.383 . S
C249 C247 1.365 . S
C249 H266 0.931 . S
C250 C245 1.370 . S
C250 C246 1.395 1_556 S
C250 H267 0.930 . S
C251 Gd198 2.805 . S
C251 O233 1.263 . S
C251 O234 1.252 . S
C251 C245 1.500 . S
C252 H214 0.930 . S
C252 C228 1.417 . S
C252 C253 1.329 . S
C253 C223 1.437 . S
C253 H224 0.929 . S
C253 C252 1.329 . S
H254 C227 0.931 . S
C255 O237 1.265 . S
C255 O238 1.242 . S
C256 O241 1.261 . S
C256 O242 1.252 1_545 S
C257 C260 1.394 . S
C257 C262 1.370 1_565 S
C257 C263 1.500 . S
C258 C261 1.383 1_545 S
C258 C262 1.395 . S
C259 C260 1.396 . S
C259 C261 1.365 . S
C259 H268 0.929 . S
C260 C257 1.394 . S
C260 C259 1.396 . S
C260 H269 0.930 . S
C261 C258 1.383 1_565 S
C261 C259 1.365 . S
C261 H270 0.931 . S
C262 C257 1.370 1_545 S
C262 C258 1.395 . S
C262 H271 0.930 . S
C263 Gd199 2.805 . S
C263 O239 1.263 . S
C263 O240 1.252 . S
C263 C257 1.500 . S
H264 C247 0.929 . S
H265 C248 0.930 . S
H266 C249 0.931 . S
H267 C250 0.930 . S
H268 C259 0.929 . S
H269 C260 0.930 . S
H270 C261 0.931 . S
H271 C262 0.930 . S
C272 C274 1.422 . S
C272 C276 1.415 . S
C272 N278 1.369 . S
C273 C274 1.421 1_554 S
C273 C275 1.417 . S
C273 C285 1.422 . S
C274 C272 1.422 . S
C274 C273 1.421 1_556 S
C274 N284 1.359 . S
C275 C273 1.417 . S
C275 C277 1.329 . S
C275 H294 0.930 . S
C276 C272 1.415 . S
C276 C277 1.437 1_556 S
C276 C280 1.413 . S
C277 C275 1.329 . S
C277 C276 1.437 1_554 S
C277 H299 0.929 . S
N278 C272 1.369 . S
N278 C279 1.338 . S
N278 Gd283 2.622 . S
C279 N278 1.338 . S
C279 C281 1.378 . S
C279 H291 0.929 . S
C280 C276 1.413 . S
C280 C281 1.348 . S
C280 H296 0.931 . S
C281 C279 1.378 . S
C281 C280 1.348 . S
C281 H297 0.930 . S
Gd282 N302 2.622 . S
Gd282 N309 2.570 . S
Gd282 O316 2.353 . S
Gd282 O317 2.468 . S
Gd282 O318 2.427 . S
Gd282 O320 2.388 . S
Gd282 O321 2.386 . S
Gd282 O325 2.307 . S
Gd282 C335 2.805 . S
Gd283 N278 2.622 . S
Gd283 N284 2.570 . S
Gd283 O315 2.386 . S
Gd283 O319 2.307 . S
Gd283 O322 2.353 . S
Gd283 O323 2.468 . S
Gd283 O324 2.427 . S
Gd283 O326 2.388 . S
Gd283 C347 2.805 . S
N284 C274 1.359 . S
N284 Gd283 2.570 . S
N284 C286 1.343 . S
C285 C273 1.422 . S
C285 C287 1.321 . S
C285 H293 0.931 . S
C286 N284 1.343 . S
C286 C287 1.390 1_556 S
C286 H288 0.931 . S
C287 C285 1.321 . S
C287 C286 1.390 1_554 S
C287 H289 0.930 . S
H288 C286 0.931 . S
H289 C287 0.930 . S
H290 C313 0.931 . S
H291 C279 0.929 . S
H292 C314 0.930 . S
H293 C285 0.931 . S
H294 C275 0.930 . S
H295 C304 0.929 . S
H296 C280 0.931 . S
H297 C281 0.930 . S
H298 C336 0.930 . S
H299 C277 0.929 . S
H300 C305 0.931 . S
H301 C306 0.930 . S
N302 Gd282 2.622 . S
N302 C303 1.369 . S
N302 C304 1.338 . S
C303 N302 1.369 . S
C303 C307 1.415 . S
C303 C310 1.422 . S
C304 H295 0.929 . S
C304 N302 1.338 . S
C304 C306 1.378 . S
C305 H300 0.931 . S
C305 C306 1.348 . S
C305 C307 1.413 . S
C306 H301 0.930 . S
C306 C304 1.378 . S
C306 C305 1.348 . S
C307 C303 1.415 . S
C307 C305 1.413 . S
C307 C337 1.437 . S
H308 C337 0.929 . S
N309 Gd282 2.570 . S
N309 C310 1.359 . S
N309 C313 1.343 . S
C310 C303 1.422 . S
C310 N309 1.359 . S
C310 C312 1.421 . S
C311 C312 1.422 . S
C311 C314 1.321 . S
C311 H338 0.931 . S
C312 C310 1.421 . S
C312 C311 1.422 . S
C312 C336 1.417 . S
C313 H290 0.931 . S
C313 N309 1.343 . S
C313 C314 1.390 . S
C314 H292 0.930 . S
C314 C311 1.321 . S
C314 C313 1.390 . S
O315 Gd283 2.386 . S
O315 C327 1.265 . S
O316 Gd282 2.353 . S
O316 C327 1.242 . S
O317 Gd282 2.468 . S
O317 C335 1.263 . S
O318 Gd282 2.427 . S
O318 C335 1.252 . S
O319 Gd283 2.307 . S
O319 C328 1.261 . S
O320 Gd282 2.388 . S
O320 C328 1.252 . S
O321 Gd282 2.386 . S
O321 C339 1.265 . S
O322 Gd283 2.353 . S
O322 C339 1.242 . S
O323 Gd283 2.468 . S
O323 C347 1.263 . S
O324 Gd283 2.427 . S
O324 C347 1.252 . S
O325 Gd282 2.307 . S
O325 C340 1.261 . S
O326 Gd283 2.388 . S
O326 C340 1.252 . S
C327 O315 1.265 . S
C327 O316 1.242 . S
C328 O319 1.261 . S
C328 O320 1.252 . S
C329 C332 1.394 . S
C329 C334 1.370 . S
C329 C335 1.500 . S
C330 C333 1.383 . S
C330 C334 1.395 . S
C331 C332 1.396 . S
C331 C333 1.365 . S
C331 H348 0.929 . S
C332 C329 1.394 . S
C332 C331 1.396 . S
C332 H349 0.930 . S
C333 C330 1.383 . S
C333 C331 1.365 . S
C333 H350 0.931 . S
C334 C329 1.370 . S
C334 C330 1.395 . S
C334 H351 0.930 . S
C335 Gd282 2.805 . S
C335 O317 1.263 . S
C335 O318 1.252 . S
C335 C329 1.500 . S
C336 H298 0.930 . S
C336 C312 1.417 . S
C336 C337 1.329 . S
C337 C307 1.437 . S
C337 H308 0.929 . S
C337 C336 1.329 . S
H338 C311 0.931 . S
C339 O321 1.265 . S
C339 O322 1.242 . S
C340 O325 1.261 . S
C340 O326 1.252 . S
C341 C344 1.394 . S
C341 C346 1.370 . S
C341 C347 1.500 . S
C342 C345 1.383 . S
C342 C346 1.395 . S
C343 C344 1.396 . S
C343 C345 1.365 . S
C343 H352 0.929 . S
C344 C341 1.394 . S
C344 C343 1.396 . S
C344 H353 0.930 . S
C345 C342 1.383 . S
C345 C343 1.365 . S
C345 H354 0.931 1_556 S
C346 C341 1.370 . S
C346 C342 1.395 . S
C346 H355 0.930 . S
C347 Gd283 2.805 . S
C347 O323 1.263 . S
C347 O324 1.252 . S
C347 C341 1.500 . S
H348 C331 0.929 . S
H349 C332 0.930 . S
H350 C333 0.931 . S
H351 C334 0.930 . S
H352 C343 0.929 . S
H353 C344 0.930 . S
H354 C345 0.931 1_554 S
H355 C346 0.930 . S
C356 C358 1.422 . S
C356 C360 1.415 . S
C356 N362 1.369 . S
C357 C358 1.421 1_554 S
C357 C359 1.417 . S
C357 C369 1.422 . S
C358 C356 1.422 . S
C358 C357 1.421 1_556 S
C358 N368 1.359 . S
C359 C357 1.417 . S
C359 C361 1.329 . S
C359 H378 0.930 . S
C360 C356 1.415 . S
C360 C361 1.437 1_556 S
C360 C364 1.413 . S
C361 C359 1.329 . S
C361 C360 1.437 1_554 S
C361 H383 0.929 . S
N362 C356 1.369 . S
N362 C363 1.335 1_455 S
N362 Gd367 2.622 1_455 S
C363 N362 1.335 1_655 S
C363 C365 1.368 1_655 S
C363 H375 0.943 . S
C364 C360 1.413 . S
C364 C365 1.348 . S
C364 H380 0.931 . S
C365 C363 1.368 1_455 S
C365 C364 1.348 . S
C365 H381 0.930 . S
Gd366 N386 2.622 . S
Gd366 N393 2.570 . S
Gd366 O400 2.353 . S
Gd366 O401 2.468 . S
Gd366 O402 2.427 . S
Gd366 O404 2.388 . S
Gd366 O405 2.386 1_455 S
Gd366 O409 2.307 . S
Gd366 C419 2.805 . S
Gd367 N362 2.622 1_655 S
Gd367 N368 2.570 1_655 S
Gd367 O399 2.386 1_655 S
Gd367 O403 2.307 1_655 S
Gd367 O406 2.353 . S
Gd367 O407 2.468 . S
Gd367 O408 2.427 . S
Gd367 O410 2.388 . S
Gd367 C431 2.805 . S
N368 C358 1.359 . S
N368 Gd367 2.570 1_455 S
N368 C370 1.343 . S
C369 C357 1.422 . S
C369 C371 1.321 . S
C369 H377 0.931 . S
C370 N368 1.343 . S
C370 C371 1.390 1_556 S
C370 H372 0.931 . S
C371 C369 1.321 . S
C371 C370 1.390 1_554 S
C371 H373 0.930 . S
H372 C370 0.931 . S
H373 C371 0.930 . S
H374 C397 0.931 . S
H375 C363 0.943 . S
H376 C398 0.930 . S
H377 C369 0.931 . S
H378 C359 0.930 . S
H379 C388 0.929 . S
H380 C364 0.931 . S
H381 C365 0.930 . S
H382 C420 0.930 . S
H383 C361 0.929 . S
H384 C389 0.931 . S
H385 C390 0.930 . S
N386 Gd366 2.622 . S
N386 C387 1.369 . S
N386 C388 1.338 . S
C387 N386 1.369 . S
C387 C391 1.415 1_455 S
C387 C394 1.423 . S
C388 H379 0.929 . S
C388 N386 1.338 . S
C388 C390 1.378 . S
C389 H384 0.931 . S
C389 C390 1.348 1_655 S
C389 C391 1.413 . S
C390 H385 0.930 . S
C390 C388 1.378 . S
C390 C389 1.348 1_455 S
C391 C387 1.415 1_655 S
C391 C389 1.413 . S
C391 C421 1.437 . S
H392 C421 0.929 . S
N393 Gd366 2.570 . S
N393 C394 1.362 . S
N393 C397 1.343 . S
C394 C387 1.423 . S
C394 N393 1.362 . S
C394 C396 1.417 1_455 S
C395 C396 1.422 . S
C395 C398 1.321 . S
C395 H422 0.931 . S
C396 C394 1.417 1_655 S
C396 C395 1.422 . S
C396 C420 1.417 . S
C397 H374 0.931 . S
C397 N393 1.343 . S
C397 C398 1.390 1_455 S
C398 H376 0.930 . S
C398 C395 1.321 . S
C398 C397 1.390 1_655 S
O399 Gd367 2.386 1_455 S
O399 C411 1.265 . S
O400 Gd366 2.353 . S
O400 C411 1.242 . S
O401 Gd366 2.468 . S
O401 C419 1.263 . S
O402 Gd366 2.427 . S
O402 C419 1.252 . S
O403 Gd367 2.307 1_455 S
O403 C412 1.261 . S
O404 Gd366 2.388 . S
O404 C412 1.252 . S
O405 Gd366 2.386 1_655 S
O405 C423 1.265 . S
O406 Gd367 2.353 . S
O406 C423 1.242 . S
O407 Gd367 2.468 . S
O407 C431 1.263 . S
O408 Gd367 2.427 . S
O408 C431 1.252 . S
O409 Gd366 2.307 . S
O409 C424 1.261 . S
O410 Gd367 2.388 . S
O410 C424 1.252 1_655 S
C411 O399 1.265 . S
C411 O400 1.242 . S
C412 O403 1.261 . S
C412 O404 1.252 . S
C413 C416 1.394 . S
C413 C418 1.370 . S
C413 C419 1.500 . S
C414 C417 1.383 . S
C414 C418 1.395 . S
C415 C416 1.396 . S
C415 C417 1.365 . S
C415 H432 0.929 . S
C416 C413 1.394 . S
C416 C415 1.396 . S
C416 H433 0.930 . S
C417 C414 1.383 . S
C417 C415 1.365 . S
C417 H434 0.931 . S
C418 C413 1.370 . S
C418 C414 1.395 . S
C418 H435 0.930 . S
C419 Gd366 2.805 . S
C419 O401 1.263 . S
C419 O402 1.252 . S
C419 C413 1.500 . S
C420 H382 0.930 . S
C420 C396 1.417 . S
C420 C421 1.329 . S
C421 C391 1.437 . S
C421 H392 0.929 . S
C421 C420 1.329 . S
H422 C395 0.931 . S
C423 O405 1.265 . S
C423 O406 1.242 . S
C424 O409 1.261 . S
C424 O410 1.252 1_455 S
C425 C428 1.394 . S
C425 C430 1.370 . S
C425 C431 1.500 . S
C426 C429 1.383 . S
C426 C430 1.395 . S
C427 C428 1.396 . S
C427 C429 1.365 . S
C427 H436 0.929 . S
C428 C425 1.394 . S
C428 C427 1.396 . S
C428 H437 0.930 . S
C429 C426 1.383 . S
C429 C427 1.365 . S
C429 H438 0.931 1_556 S
C430 C425 1.370 . S
C430 C426 1.395 . S
C430 H439 0.930 . S
C431 Gd367 2.805 . S
C431 O407 1.263 . S
C431 O408 1.252 . S
C431 C425 1.500 . S
H432 C415 0.929 . S
H433 C416 0.930 . S
H434 C417 0.931 . S
H435 C418 0.930 . S
H436 C427 0.929 . S
H437 C428 0.930 . S
H438 C429 0.931 1_554 S
H439 C430 0.930 . S
H440 C446 0.930 . S
H441 C450 0.930 1_565 S
H442 C455 0.929 . S
H443 C453 0.929 . S
H444 C448 0.929 1_565 S
H445 C454 0.929 . S
C446 H440 0.930 . S
C446 C447 1.367 . S
C446 C454 1.378 . S
C447 C446 1.367 . S
C447 C455 1.433 . S
C448 H444 0.929 1_545 S
C448 C450 1.378 . S
C448 C452 1.350 . S
C449 C452 1.463 . S
C449 C454 1.350 . S
C449 N457 1.427 . S
C450 H441 0.930 1_545 S
C450 C448 1.378 . S
C450 C451 1.367 . S
C451 C450 1.367 . S
C451 C453 1.433 . S
C452 C448 1.350 . S
C452 C449 1.463 . S
C452 N456 1.427 . S
C453 H443 0.929 . S
C453 C451 1.433 . S
C453 N456 1.384 . S
C454 H445 0.929 . S
C454 C446 1.378 . S
C454 C449 1.350 . S
C455 H442 0.929 . S
C455 C447 1.433 . S
C455 N457 1.384 . S
N456 C452 1.427 . S
N456 C453 1.384 . S
N457 C449 1.427 . S
N457 C455 1.384 . S
H458 C464 0.930 . S
H459 C468 0.930 . S
H460 C473 0.929 . S
H461 C471 0.929 . S
H462 C466 0.929 . S
H463 C472 0.929 . S
C464 H458 0.930 . S
C464 C465 1.367 . S
C464 C472 1.378 . S
C465 C464 1.367 . S
C465 C473 1.433 . S
C466 H462 0.929 . S
C466 C468 1.378 . S
C466 C470 1.350 . S
C467 C470 1.463 . S
C467 C472 1.350 . S
C467 N475 1.427 . S
C468 H459 0.930 . S
C468 C466 1.378 . S
C468 C469 1.367 . S
C469 C468 1.367 . S
C469 C471 1.433 . S
C470 C466 1.350 . S
C470 C467 1.463 . S
C470 N474 1.427 . S
C471 H461 0.929 . S
C471 C469 1.433 . S
C471 N474 1.384 . S
C472 H463 0.929 . S
C472 C464 1.378 . S
C472 C467 1.350 . S
C473 H460 0.929 . S
C473 C465 1.433 . S
C473 N475 1.384 . S
N474 C470 1.427 . S
N474 C471 1.384 . S
N475 C467 1.427 . S
N475 C473 1.384 . S
H476 C482 0.930 . S
H477 C486 0.930 . S
H478 C491 0.929 . S
H479 C489 0.929 . S
H480 C484 0.929 . S
H481 C490 0.929 . S
C482 H476 0.930 . S
C482 C483 1.367 . S
C482 C490 1.378 . S
C483 C482 1.367 . S
C483 C491 1.433 . S
C484 H480 0.929 . S
C484 C486 1.378 . S
C484 C488 1.350 . S
C485 C488 1.463 . S
C485 C490 1.350 . S
C485 N493 1.427 . S
C486 H477 0.930 . S
C486 C484 1.378 . S
C486 C487 1.367 . S
C487 C486 1.367 . S
C487 C489 1.433 . S
C488 C484 1.350 . S
C488 C485 1.463 . S
C488 N492 1.427 . S
C489 H479 0.929 . S
C489 C487 1.433 . S
C489 N492 1.384 . S
C490 H481 0.929 . S
C490 C482 1.378 . S
C490 C485 1.350 . S
C491 H478 0.929 . S
C491 C483 1.433 . S
C491 N493 1.384 . S
N492 C488 1.427 . S
N492 C489 1.384 . S
N493 C485 1.427 . S
N493 C491 1.384 . S
H494 C500 0.930 . S
H495 C504 0.930 . S
H496 C509 0.929 . S
H497 C507 0.905 1_655 S
H498 C502 0.929 . S
H499 C508 0.929 1_655 S
C500 H494 0.930 . S
C500 C501 1.367 . S
C500 C508 1.378 . S
C501 C500 1.367 . S
C501 C509 1.433 . S
C502 H498 0.929 . S
C502 C504 1.378 . S
C502 C506 1.350 . S
C503 C506 1.463 . S
C503 C508 1.350 . S
C503 N511 1.427 . S
C504 H495 0.930 . S
C504 C502 1.378 . S
C504 C505 1.367 . S
C505 C504 1.367 . S
C505 C507 1.454 . S
C506 C502 1.350 . S
C506 C503 1.463 . S
C506 N510 1.427 . S
C507 H497 0.905 1_455 S
C507 C505 1.454 . S
C507 N510 1.388 . S
C508 H499 0.929 1_455 S
C508 C500 1.378 . S
C508 C503 1.350 . S
C509 H496 0.929 . S
C509 C501 1.433 . S
C509 N511 1.384 . S
N510 C506 1.427 . S
N510 C507 1.388 . S
N511 C503 1.427 . S
N511 C509 1.384 . S
H512 C518 0.930 . S
H513 C522 0.930 . S
H514 C527 0.929 . S
H515 C525 0.929 . S
H516 C520 0.929 1_554 S
H517 C526 0.929 . S
C518 H512 0.930 . S
C518 C519 1.367 . S
C518 C526 1.378 . S
C519 C518 1.367 . S
C519 C527 1.433 1_565 S
C520 H516 0.929 1_556 S
C520 C522 1.378 . S
C520 C524 1.350 1_545 S
C521 C524 1.463 1_554 S
C521 C526 1.350 . S
C521 N529 1.427 1_565 S
C522 H513 0.930 . S
C522 C520 1.378 . S
C522 C523 1.374 . S
C523 C522 1.374 . S
C523 C525 1.425 1_545 S
C524 C520 1.350 1_565 S
C524 C521 1.463 1_556 S
C524 N528 1.427 . S
C525 H515 0.929 . S
C525 C523 1.425 1_565 S
C525 N528 1.384 . S
C526 H517 0.929 . S
C526 C518 1.378 . S
C526 C521 1.350 . S
C527 H514 0.929 . S
C527 C519 1.433 1_545 S
C527 N529 1.384 . S
N528 C524 1.427 . S
N528 C525 1.384 . S
N529 C521 1.427 1_545 S
N529 C527 1.384 . S
H530 C536 0.930 . S
H531 C540 0.930 . S
H532 C545 0.929 . S
H533 C543 0.929 . S
H534 C538 0.929 . S
H535 C544 0.929 . S
C536 H530 0.930 . S
C536 C537 1.367 . S
C536 C544 1.378 . S
C537 C536 1.367 . S
C537 C545 1.433 . S
C538 H534 0.929 . S
C538 C540 1.378 . S
C538 C542 1.350 . S
C539 C542 1.463 1_554 S
C539 C544 1.350 . S
C539 N547 1.427 . S
C540 H531 0.930 . S
C540 C538 1.378 . S
C540 C541 1.367 . S
C541 C540 1.367 . S
C541 C543 1.433 . S
C542 C538 1.350 . S
C542 C539 1.463 1_556 S
C542 N546 1.427 . S
C543 H533 0.929 . S
C543 C541 1.433 . S
C543 N546 1.384 . S
C544 H535 0.929 . S
C544 C536 1.378 . S
C544 C539 1.350 . S
C545 H532 0.929 . S
C545 C537 1.433 . S
C545 N547 1.384 . S
N546 C542 1.427 . S
N546 C543 1.384 . S
N547 C539 1.427 . S
N547 C545 1.384 . S
H548 C554 0.930 . S
H549 C558 0.930 . S
H550 C563 0.929 . S
H551 C561 0.929 . S
H552 C556 0.929 1_554 S
H553 C562 0.929 . S
C554 H548 0.930 . S
C554 C555 1.367 . S
C554 C562 1.378 . S
C555 C554 1.367 . S
C555 C563 1.433 . S
C556 H552 0.929 1_556 S
C556 C558 1.378 . S
C556 C560 1.350 . S
C557 C560 1.463 1_554 S
C557 C562 1.350 . S
C557 N565 1.427 . S
C558 H549 0.930 . S
C558 C556 1.378 . S
C558 C559 1.367 . S
C559 C558 1.367 . S
C559 C561 1.433 . S
C560 C556 1.350 . S
C560 C557 1.463 1_556 S
C560 N564 1.427 . S
C561 H551 0.929 . S
C561 C559 1.433 . S
C561 N564 1.384 . S
C562 H553 0.929 . S
C562 C554 1.378 . S
C562 C557 1.350 . S
C563 H550 0.929 . S
C563 C555 1.433 . S
C563 N565 1.384 . S
N564 C560 1.427 . S
N564 C561 1.384 . S
N565 C557 1.427 . S
N565 C563 1.384 . S
H566 C572 0.930 . S
H567 C576 0.930 . S
H568 C581 0.929 . S
H569 C579 0.929 . S
H570 C574 0.929 . S
H571 C580 0.929 . S
C572 H566 0.930 . S
C572 C573 1.367 . S
C572 C580 1.378 . S
C573 C572 1.367 . S
C573 C581 1.433 . S
C574 H570 0.929 . S
C574 C576 1.378 . S
C574 C578 1.350 . S
C575 C578 1.463 1_554 S
C575 C580 1.350 . S
C575 N583 1.427 . S
C576 H567 0.930 . S
C576 C574 1.378 . S
C576 C577 1.367 . S
C577 C576 1.367 . S
C577 C579 1.433 . S
C578 C574 1.350 . S
C578 C575 1.463 1_556 S
C578 N582 1.427 1_556 S
C579 H569 0.929 . S
C579 C577 1.433 . S
C579 N582 1.384 1_556 S
C580 H571 0.929 . S
C580 C572 1.378 . S
C580 C575 1.350 . S
C581 H568 0.929 . S
C581 C573 1.433 . S
C581 N583 1.384 . S
N582 C578 1.427 1_554 S
N582 C579 1.384 1_554 S
N583 C575 1.427 . S
N583 C581 1.384 . S
H584 C590 0.930 . S
H585 C594 0.930 . S
H586 C599 0.929 . S
H587 C597 0.929 . S
H588 C592 0.927 1_655 S
H589 C598 0.929 . S
C590 H584 0.930 . S
C590 C591 1.367 . S
C590 C598 1.378 . S
C591 C590 1.367 . S
C591 C599 1.433 . S
C592 H588 0.927 1_455 S
C592 C594 1.378 1_455 S
C592 C596 1.350 . S
C593 C596 1.463 . S
C593 C598 1.350 . S
C593 N601 1.427 . S
C594 H585 0.930 . S
C594 C592 1.378 1_655 S
C594 C595 1.367 1_655 S
C595 C594 1.367 1_455 S
C595 C597 1.433 . S
C596 C592 1.350 . S
C596 C593 1.463 . S
C596 N600 1.427 . S
C597 H587 0.929 . S
C597 C595 1.433 . S
C597 N600 1.384 . S
C598 H589 0.929 . S
C598 C590 1.378 . S
C598 C593 1.350 . S
C599 H586 0.929 . S
C599 C591 1.433 . S
C599 N601 1.384 . S
N600 C596 1.427 . S
N600 C597 1.384 . S
N601 C593 1.427 . S
N601 C599 1.384 . S
H602 C608 0.930 . S
H603 C612 0.930 . S
H604 C617 0.929 . S
H605 C615 0.929 . S
H606 C610 0.929 . S
H607 C616 0.929 . S
C608 H602 0.930 . S
C608 C609 1.367 . S
C608 C616 1.378 . S
C609 C608 1.367 . S
C609 C617 1.433 . S
C610 H606 0.929 . S
C610 C612 1.378 . S
C610 C614 1.350 1_565 S
C611 C614 1.463 . S
C611 C616 1.350 . S
C611 N619 1.427 . S
C612 H603 0.930 . S
C612 C610 1.378 . S
C612 C613 1.367 1_565 S
C613 C612 1.367 1_545 S
C613 C615 1.433 . S
C614 C610 1.350 1_545 S
C614 C611 1.463 . S
C614 N618 1.427 . S
C615 H605 0.929 . S
C615 C613 1.433 . S
C615 N618 1.384 . S
C616 H607 0.929 . S
C616 C608 1.378 . S
C616 C611 1.350 . S
C617 H604 0.929 . S
C617 C609 1.433 . S
C617 N619 1.384 . S
N618 C614 1.427 . S
N618 C615 1.384 . S
N619 C611 1.427 . S
N619 C617 1.384 . S
H620 C626 0.930 . S
H621 C630 0.930 . S
H622 C635 0.929 . S
H623 C633 0.929 . S
H624 C628 0.929 . S
H625 C634 0.929 . S
C626 H620 0.930 . S
C626 C627 1.367 . S
C626 C634 1.378 . S
C627 C626 1.367 . S
C627 C635 1.433 . S
C628 H624 0.929 . S
C628 C630 1.378 . S
C628 C632 1.350 . S
C629 C632 1.463 . S
C629 C634 1.350 . S
C629 N637 1.427 . S
C630 H621 0.930 . S
C630 C628 1.378 . S
C630 C631 1.367 . S
C631 C630 1.367 . S
C631 C633 1.433 . S
C632 C628 1.350 . S
C632 C629 1.463 . S
C632 N636 1.427 . S
C633 H623 0.929 . S
C633 C631 1.433 . S
C633 N636 1.384 . S
C634 H625 0.929 . S
C634 C626 1.378 . S
C634 C629 1.350 . S
C635 H622 0.929 . S
C635 C627 1.433 . S
C635 N637 1.384 . S
N636 C632 1.427 . S
N636 C633 1.384 . S
N637 C629 1.427 . S
N637 C635 1.384 . S
H638 C644 0.930 . S
H639 C648 0.930 . S
H640 C653 0.929 . S
H641 C651 0.929 . S
H642 C646 0.929 . S
H643 C652 0.929 . S
C644 H638 0.930 . S
C644 C645 1.367 . S
C644 C652 1.378 . S
C645 C644 1.367 . S
C645 C653 1.433 . S
C646 H642 0.929 . S
C646 C648 1.378 . S
C646 C650 1.350 . S
C647 C650 1.463 . S
C647 C652 1.350 . S
C647 N655 1.427 . S
C648 H639 0.930 . S
C648 C646 1.378 . S
C648 C649 1.367 . S
C649 C648 1.367 . S
C649 C651 1.433 . S
C650 C646 1.350 . S
C650 C647 1.463 . S
C650 N654 1.427 . S
C651 H641 0.929 . S
C651 C649 1.433 . S
C651 N654 1.384 . S
C652 H643 0.929 . S
C652 C644 1.378 . S
C652 C647 1.350 . S
C653 H640 0.929 . S
C653 C645 1.433 . S
C653 N655 1.384 . S
N654 C650 1.427 . S
N654 C651 1.384 . S
N655 C647 1.427 . S
N655 C653 1.384 . S
H656 C662 0.928 1_455 S
H657 C666 0.930 . S
H658 C671 0.929 . S
H659 C669 0.929 . S
H660 C664 0.929 . S
H661 C670 0.929 . S
C662 H656 0.928 1_655 S
C662 C663 1.367 . S
C662 C670 1.378 1_655 S
C663 C662 1.367 . S
C663 C671 1.433 . S
C664 H660 0.929 . S
C664 C666 1.378 . S
C664 C668 1.350 . S
C665 C668 1.463 . S
C665 C670 1.350 1_655 S
C665 N673 1.427 . S
C666 H657 0.930 . S
C666 C664 1.378 . S
C666 C667 1.367 1_655 S
C667 C666 1.367 1_455 S
C667 C669 1.433 1_554 S
C668 C664 1.350 . S
C668 C665 1.463 . S
C668 N672 1.427 1_655 S
C669 H659 0.929 . S
C669 C667 1.433 1_556 S
C669 N672 1.384 1_556 S
C670 H661 0.929 . S
C670 C662 1.378 1_455 S
C670 C665 1.350 1_455 S
C671 H658 0.929 . S
C671 C663 1.433 . S
C671 N673 1.384 . S
N672 C668 1.427 1_455 S
N672 C669 1.384 1_554 S
N673 C665 1.427 . S
N673 C671 1.384 . S
H674 C680 0.930 . S
H675 C684 0.930 . S
H676 C689 0.929 . S
H677 C687 0.929 . S
H678 C682 0.929 . S
H679 C688 0.929 . S
C680 H674 0.930 . S
C680 C681 1.367 . S
C680 C688 1.378 . S
C681 C680 1.367 . S
C681 C689 1.433 . S
C682 H678 0.929 . S
C682 C684 1.378 . S
C682 C686 1.347 1_545 S
C683 C686 1.468 . S
C683 C688 1.350 . S
C683 N691 1.427 . S
C684 H675 0.930 . S
C684 C682 1.378 . S
C684 C685 1.367 . S
C685 C684 1.367 . S
C685 C687 1.433 1_554 S
C686 C682 1.347 1_565 S
C686 C683 1.468 . S
C686 N690 1.425 1_565 S
C687 H677 0.929 . S
C687 C685 1.433 1_556 S
C687 N690 1.384 1_556 S
C688 H679 0.929 . S
C688 C680 1.378 . S
C688 C683 1.350 . S
C689 H676 0.929 . S
C689 C681 1.433 . S
C689 N691 1.384 . S
N690 C686 1.425 1_545 S
N690 C687 1.384 1_554 S
N691 C683 1.427 . S
N691 C689 1.384 . S
H692 C698 0.930 . S
H693 C702 0.930 . S
H694 C707 0.929 . S
H695 C705 0.929 . S
H696 C700 0.929 1_556 S
H697 C706 0.929 . S
C698 H692 0.930 . S
C698 C699 1.367 . S
C698 C706 1.378 . S
C699 C698 1.367 . S
C699 C707 1.433 . S
C700 H696 0.929 1_554 S
C700 C702 1.378 1_554 S
C700 C704 1.350 . S
C701 C704 1.463 . S
C701 C706 1.350 . S
C701 N709 1.427 . S
C702 H693 0.930 . S
C702 C700 1.378 1_556 S
C702 C703 1.367 1_556 S
C703 C702 1.367 1_554 S
C703 C705 1.433 . S
C704 C700 1.350 . S
C704 C701 1.463 . S
C704 N708 1.427 . S
C705 H695 0.929 . S
C705 C703 1.433 . S
C705 N708 1.384 . S
C706 H697 0.929 . S
C706 C698 1.378 . S
C706 C701 1.350 . S
C707 H694 0.929 . S
C707 C699 1.433 . S
C707 N709 1.384 . S
N708 C704 1.427 . S
N708 C705 1.384 . S
N709 C701 1.427 . S
N709 C707 1.384 . S
H710 C716 0.930 . S
H711 C720 0.930 . S
H712 C725 0.929 . S
H713 C723 0.929 . S
H714 C718 0.929 . S
H715 C724 0.929 . S
C716 H710 0.930 . S
C716 C717 1.367 . S
C716 C724 1.378 . S
C717 C716 1.367 . S
C717 C725 1.433 . S
C718 H714 0.929 . S
C718 C720 1.378 1_554 S
C718 C722 1.350 . S
C719 C722 1.463 . S
C719 C724 1.350 . S
C719 N727 1.427 . S
C720 H711 0.930 . S
C720 C718 1.378 1_556 S
C720 C721 1.367 1_556 S
C721 C720 1.367 1_554 S
C721 C723 1.433 . S
C722 C718 1.350 . S
C722 C719 1.463 . S
C722 N726 1.427 . S
C723 H713 0.929 . S
C723 C721 1.433 . S
C723 N726 1.384 . S
C724 H715 0.929 . S
C724 C716 1.378 . S
C724 C719 1.350 . S
C725 H712 0.929 . S
C725 C717 1.433 . S
C725 N727 1.384 . S
N726 C722 1.427 . S
N726 C723 1.384 . S
N727 C719 1.427 . S
N727 C725 1.384 . S
H728 C734 0.930 . S
H729 C738 0.930 . S
H730 C743 0.929 . S
H731 C741 0.929 1_655 S
H732 C736 0.929 . S
H733 C742 0.929 . S
C734 H728 0.930 . S
C734 C735 1.367 . S
C734 C742 1.378 . S
C735 C734 1.367 . S
C735 C743 1.433 . S
C736 H732 0.929 . S
C736 C738 1.378 . S
C736 C740 1.350 . S
C737 C740 1.463 . S
C737 C742 1.350 . S
C737 N745 1.427 . S
C738 H729 0.930 . S
C738 C736 1.378 . S
C738 C739 1.367 . S
C739 C738 1.367 . S
C739 C741 1.433 . S
C740 C736 1.350 . S
C740 C737 1.463 . S
C740 N744 1.427 . S
C741 H731 0.929 1_455 S
C741 C739 1.433 . S
C741 N744 1.384 . S
C742 H733 0.929 . S
C742 C734 1.378 . S
C742 C737 1.350 . S
C743 H730 0.929 . S
C743 C735 1.433 . S
C743 N745 1.384 . S
N744 C740 1.427 . S
N744 C741 1.384 . S
N745 C737 1.427 . S
N745 C743 1.384 . S
H746 C752 0.930 . S
H747 C756 0.930 . S
H748 C761 0.929 . S
H749 C759 0.929 1_565 S
H750 C754 0.929 . S
H751 C760 0.929 . S
C752 H746 0.930 . S
C752 C753 1.367 . S
C752 C760 1.378 . S
C753 C752 1.367 . S
C753 C761 1.433 . S
C754 H750 0.929 . S
C754 C756 1.378 . S
C754 C758 1.350 . S
C755 C758 1.463 . S
C755 C760 1.350 . S
C755 N763 1.427 . S
C756 H747 0.930 . S
C756 C754 1.378 . S
C756 C757 1.367 . S
C757 C756 1.367 . S
C757 C759 1.433 . S
C758 C754 1.350 . S
C758 C755 1.463 . S
C758 N762 1.427 . S
C759 H749 0.929 1_545 S
C759 C757 1.433 . S
C759 N762 1.384 . S
C760 H751 0.929 . S
C760 C752 1.378 . S
C760 C755 1.350 . S
C761 H748 0.929 . S
C761 C753 1.433 . S
C761 N763 1.384 . S
N762 C758 1.427 . S
N762 C759 1.384 . S
N763 C755 1.427 . S
N763 C761 1.384 . S
H764 C770 0.930 . S
H765 C774 0.930 . S
H766 C779 0.929 . S
H767 C777 0.929 . S
H768 C772 0.929 . S
H769 C778 0.929 . S
C770 H764 0.930 . S
C770 C771 1.367 . S
C770 C778 1.378 . S
C771 C770 1.367 . S
C771 C779 1.433 . S
C772 H768 0.929 . S
C772 C774 1.378 . S
C772 C776 1.350 . S
C773 C776 1.463 . S
C773 C778 1.350 . S
C773 N781 1.427 . S
C774 H765 0.930 . S
C774 C772 1.378 . S
C774 C775 1.367 . S
C775 C774 1.367 . S
C775 C777 1.433 . S
C776 C772 1.350 . S
C776 C773 1.463 . S
C776 N780 1.427 . S
C777 H767 0.929 . S
C777 C775 1.433 . S
C777 N780 1.384 . S
C778 H769 0.929 . S
C778 C770 1.378 . S
C778 C773 1.350 . S
C779 H766 0.929 . S
C779 C771 1.433 . S
C779 N781 1.384 . S
N780 C776 1.427 . S
N780 C777 1.384 . S
N781 C773 1.427 . S
N781 C779 1.384 . S
H782 C788 0.930 . S
H783 C792 0.930 . S
H784 C797 0.929 . S
H785 C795 0.929 . S
H786 C790 0.929 . S
H787 C796 0.929 . S
C788 H782 0.930 . S
C788 C789 1.367 . S
C788 C796 1.378 . S
C789 C788 1.367 . S
C789 C797 1.433 . S
C790 H786 0.929 . S
C790 C792 1.378 . S
C790 C794 1.350 . S
C791 C794 1.463 . S
C791 C796 1.350 . S
C791 N799 1.427 . S
C792 H783 0.930 . S
C792 C790 1.378 . S
C792 C793 1.367 . S
C793 C792 1.367 . S
C793 C795 1.433 . S
C794 C790 1.350 . S
C794 C791 1.463 . S
C794 N798 1.427 . S
C795 H785 0.929 . S
C795 C793 1.433 . S
C795 N798 1.384 . S
C796 H787 0.929 . S
C796 C788 1.378 . S
C796 C791 1.350 . S
C797 H784 0.929 . S
C797 C789 1.433 . S
C797 N799 1.384 . S
N798 C794 1.427 . S
N798 C795 1.384 . S
N799 C791 1.427 . S
N799 C797 1.384 . S
H800 C806 0.930 . S
H801 C810 0.923 1_455 S
H802 C815 0.929 . S
H803 C813 0.929 . S
H804 C808 0.921 1_455 S
H805 C814 0.929 . S
C806 H800 0.930 . S
C806 C807 1.367 . S
C806 C814 1.378 . S
C807 C806 1.367 . S
C807 C815 1.433 . S
C808 H804 0.921 1_655 S
C808 C810 1.380 . S
C808 C812 1.350 . S
C809 C812 1.463 . S
C809 C814 1.350 . S
C809 N817 1.427 . S
C810 H801 0.923 1_655 S
C810 C808 1.380 . S
C810 C811 1.373 . S
C811 C810 1.373 . S
C811 C813 1.433 . S
C812 C808 1.350 . S
C812 C809 1.463 . S
C812 N816 1.427 . S
C813 H803 0.929 . S
C813 C811 1.433 . S
C813 N816 1.384 . S
C814 H805 0.929 . S
C814 C806 1.378 . S
C814 C809 1.350 . S
C815 H802 0.929 . S
C815 C807 1.433 . S
C815 N817 1.384 . S
N816 C812 1.427 . S
N816 C813 1.384 . S
N817 C809 1.427 . S
N817 C815 1.384 . S
H818 C824 0.930 . S
H819 C828 0.930 . S
H820 C833 0.929 . S
H821 C831 0.929 . S
H822 C826 0.929 . S
H823 C832 0.929 . S
C824 H818 0.930 . S
C824 C825 1.367 . S
C824 C832 1.378 . S
C825 C824 1.367 . S
C825 C833 1.433 . S
C826 H822 0.929 . S
C826 C828 1.378 . S
C826 C830 1.350 . S
C827 C830 1.463 . S
C827 C832 1.350 . S
C827 N835 1.427 . S
C828 H819 0.930 . S
C828 C826 1.378 . S
C828 C829 1.367 . S
C829 C828 1.367 . S
C829 C831 1.433 . S
C830 C826 1.350 . S
C830 C827 1.463 . S
C830 N834 1.427 . S
C831 H821 0.929 . S
C831 C829 1.433 . S
C831 N834 1.384 . S
C832 H823 0.929 . S
C832 C824 1.378 . S
C832 C827 1.350 . S
C833 H820 0.929 . S
C833 C825 1.433 . S
C833 N835 1.384 . S
N834 C830 1.427 . S
N834 C831 1.384 . S
N835 C827 1.427 . S
N835 C833 1.384 . S
H836 C842 0.930 . S
H837 C846 0.930 . S
H838 C851 0.929 . S
H839 C849 0.929 . S
H840 C844 0.929 . S
H841 C850 0.929 . S
C842 H836 0.930 . S
C842 C843 1.367 . S
C842 C850 1.378 . S
C843 C842 1.367 . S
C843 C851 1.433 . S
C844 H840 0.929 . S
C844 C846 1.378 . S
C844 C848 1.350 . S
C845 C848 1.463 . S
C845 C850 1.350 . S
C845 N853 1.427 . S
C846 H837 0.930 . S
C846 C844 1.378 . S
C846 C847 1.367 . S
C847 C846 1.367 . S
C847 C849 1.433 . S
C848 C844 1.350 . S
C848 C845 1.463 . S
C848 N852 1.427 . S
C849 H839 0.929 . S
C849 C847 1.433 . S
C849 N852 1.384 . S
C850 H841 0.929 . S
C850 C842 1.378 . S
C850 C845 1.350 . S
C851 H838 0.929 . S
C851 C843 1.433 . S
C851 N853 1.384 . S
N852 C848 1.427 . S
N852 C849 1.384 . S
N853 C845 1.427 . S
N853 C851 1.384 . S
H854 C860 0.930 . S
H855 C864 0.930 . S
H856 C869 0.929 . S
H857 C867 0.929 . S
H858 C862 0.929 . S
H859 C868 0.929 . S
C860 H854 0.930 . S
C860 C861 1.367 . S
C860 C868 1.378 . S
C861 C860 1.367 . S
C861 C869 1.433 . S
C862 H858 0.929 . S
C862 C864 1.378 . S
C862 C866 1.350 . S
C863 C866 1.463 . S
C863 C868 1.350 . S
C863 N871 1.427 . S
C864 H855 0.930 . S
C864 C862 1.378 . S
C864 C865 1.367 . S
C865 C864 1.367 . S
C865 C867 1.433 . S
C866 C862 1.350 . S
C866 C863 1.463 . S
C866 N870 1.427 . S
C867 H857 0.929 . S
C867 C865 1.433 . S
C867 N870 1.384 . S
C868 H859 0.929 . S
C868 C860 1.378 . S
C868 C863 1.350 . S
C869 H856 0.929 . S
C869 C861 1.433 . S
C869 N871 1.384 . S
N870 C866 1.427 . S
N870 C867 1.384 . S
N871 C863 1.427 . S
N871 C869 1.384 . S
C447 C82 1.752 . S
C451 C172 2.006 . S
C469 C255 2.026 . S
C465 C95 1.772 . S
C487 C340 2.007 . S
C483 C56 1.755 . S
C505 C424 1.995 . S
C501 C69 1.751 . S
C523 C160 2.009 . S
C519 C30 1.720 . S
C537 C43 1.722 . S
C541 C243 2.024 . S
C555 C4 1.708 . S
C559 C328 1.999 . S
C573 C17 1.717 . S
C577 C412 1.994 1_655 S
C595 C162 0.607 1_455 S
C591 C74 0.591 . S
C613 C258 0.600 . S
C609 C87 0.586 . S
C631 C330 0.611 . S
C627 C100 0.591 . S
C645 C61 0.569 . S
C649 C414 0.623 . S
C663 C22 0.604 . S
C667 C174 0.640 1_554 S
C685 C246 0.588 . S
C681 C35 0.589 . S
C703 C342 0.629 1_554 S
C699 C48 0.587 . S
C717 C9 0.569 . S
C721 C426 0.621 1_554 S
C735 C73 1.917 . S
C739 C159 2.106 . S
C753 C86 1.928 . S
C757 C244 2.118 . S
C775 C327 2.126 . S
C771 C99 1.935 . S
C793 C411 2.129 . S
C789 C60 1.938 . S
C807 C21 1.913 . S
C811 C171 2.105 . S
C829 C256 2.119 1_565 S
C825 C34 1.911 . S
C847 C339 2.124 . S
C843 C47 1.929 . S
C861 C8 1.936 . S
C865 C423 2.129 . S
