# Generated by pormake.
# Topology zzz, (3,6)-cn, num edge types: 1
# Building blocks:
#     Node 0, Type 0, BuildingBlock: BETDAH_clean_linker_0, # of connection points: 3
#     Node 1, Type 0, BuildingBlock: BETDAH_clean_linker_0, # of connection points: 3
#     Node 2, Type 0, BuildingBlock: BETDAH_clean_linker_0, # of connection points: 3
#     Node 3, Type 0, BuildingBlock: BETDAH_clean_linker_0, # of connection points: 3
#     Node 4, Type 0, BuildingBlock: BETDAH_clean_linker_0, # of connection points: 3
#     Node 5, Type 0, BuildingBlock: BETDAH_clean_linker_0, # of connection points: 3
#     Node 6, Type 0, BuildingBlock: BETDAH_clean_linker_0, # of connection points: 3
#     Node 7, Type 0, BuildingBlock: BETDAH_clean_linker_0, # of connection points: 3
#     Node 8, Type 1, BuildingBlock: CIFDUS_clean_sbu_1, # of connection points: 6
#     Node 9, Type 1, BuildingBlock: CIFDUS_clean_sbu_1, # of connection points: 6
#     Node 10, Type 1, BuildingBlock: CIFDUS_clean_sbu_1, # of connection points: 6
#     Node 11, Type 1, BuildingBlock: CIFDUS_clean_sbu_1, # of connection points: 6
#     Edge 12, Type (0, 1), BuildingBlock: XIVTED_clean_linker_0, # of connection points: 2
#     Edge 13, Type (0, 1), BuildingBlock: XIVTED_clean_linker_0, # of connection points: 2
#     Edge 14, Type (0, 1), BuildingBlock: XIVTED_clean_linker_0, # of connection points: 2
#     Edge 15, Type (0, 1), BuildingBlock: XIVTED_clean_linker_0, # of connection points: 2
#     Edge 16, Type (0, 1), BuildingBlock: XIVTED_clean_linker_0, # of connection points: 2
#     Edge 17, Type (0, 1), BuildingBlock: XIVTED_clean_linker_0, # of connection points: 2
#     Edge 18, Type (0, 1), BuildingBlock: XIVTED_clean_linker_0, # of connection points: 2
#     Edge 19, Type (0, 1), BuildingBlock: XIVTED_clean_linker_0, # of connection points: 2
#     Edge 20, Type (0, 1), BuildingBlock: XIVTED_clean_linker_0, # of connection points: 2
#     Edge 21, Type (0, 1), BuildingBlock: XIVTED_clean_linker_0, # of connection points: 2
#     Edge 22, Type (0, 1), BuildingBlock: XIVTED_clean_linker_0, # of connection points: 2
#     Edge 23, Type (0, 1), BuildingBlock: XIVTED_clean_linker_0, # of connection points: 2
#     Edge 24, Type (0, 1), BuildingBlock: XIVTED_clean_linker_0, # of connection points: 2
#     Edge 25, Type (0, 1), BuildingBlock: XIVTED_clean_linker_0, # of connection points: 2
#     Edge 26, Type (0, 1), BuildingBlock: XIVTED_clean_linker_0, # of connection points: 2
#     Edge 27, Type (0, 1), BuildingBlock: XIVTED_clean_linker_0, # of connection points: 2
#     Edge 28, Type (0, 1), BuildingBlock: XIVTED_clean_linker_0, # of connection points: 2
#     Edge 29, Type (0, 1), BuildingBlock: XIVTED_clean_linker_0, # of connection points: 2
#     Edge 30, Type (0, 1), BuildingBlock: XIVTED_clean_linker_0, # of connection points: 2
#     Edge 31, Type (0, 1), BuildingBlock: XIVTED_clean_linker_0, # of connection points: 2
#     Edge 32, Type (0, 1), BuildingBlock: XIVTED_clean_linker_0, # of connection points: 2
#     Edge 33, Type (0, 1), BuildingBlock: XIVTED_clean_linker_0, # of connection points: 2
#     Edge 34, Type (0, 1), BuildingBlock: XIVTED_clean_linker_0, # of connection points: 2
#     Edge 35, Type (0, 1), BuildingBlock: XIVTED_clean_linker_0, # of connection points: 2
# Relax obj value: 0.140
# Max RMSD: 0.186
# Mean RMSD: 0.107
data_MOF--net-zzz--node1-CIFDUS_clean_sbu_1--node2-BETDAH_clean_linker_0--edge1-XIVTED_clean_linker_0
_symmetry_space_group_name_H-M    P1
_symmetry_Int_Tables_number       1
_symmetry_cell_setting            triclinic
loop_
_symmetry_equiv_pos_as_xyz
'x, y, z'
_cell_length_a     49.998329
_cell_length_b     50.156404
_cell_length_c     16.26108
_cell_angle_alpha  90.196308
_cell_angle_beta   89.896659
_cell_angle_gamma 89.927956
loop_
_atom_site_label
_atom_site_type_symbol
_atom_site_fract_x
_atom_site_fract_y
_atom_site_fract_z
_atom_type_partial_charge
H0 H 0.85198 0.57314 0.15108 0.0
H1 H 0.77544 0.56633 0.03366 0.0
H2 H 0.78249 0.55609 0.29615 0.0
C3 C 0.83038 0.57144 0.15594 0.0
C4 C 0.81918 0.56538 0.23215 0.0
C5 C 0.81492 0.57125 0.0842 0.0
C6 C 0.7872 0.56714 0.08949 0.0
C7 C 0.77512 0.56278 0.16674 0.0
C8 C 0.7914 0.56115 0.23747 0.0
N9 N 0.74708 0.55856 0.17527 0.0
C10 C 0.72837 0.55943 0.1116 0.0
H11 H 0.962 0.84612 0.14677 0.0
H12 H 0.9697 0.76914 0.03254 0.0
H13 H 0.97816 0.7777 0.29547 0.0
C14 C 0.96361 0.8246 0.15238 0.0
C15 C 0.96924 0.81385 0.22924 0.0
C16 C 0.9643 0.80879 0.08127 0.0
C17 C 0.96841 0.78116 0.08785 0.0
C18 C 0.97215 0.76953 0.16593 0.0
C19 C 0.97328 0.78619 0.23617 0.0
N20 N 0.97642 0.74161 0.1759 0.0
C21 C 0.97667 0.72255 0.11295 0.0
H22 H 0.68866 0.96626 0.13456 0.0
H23 H 0.76776 0.97124 0.03454 0.0
H24 H 0.75629 0.96439 0.29711 0.0
C25 C 0.71011 0.96531 0.14433 0.0
C26 C 0.72006 0.96439 0.22444 0.0
C27 C 0.7271 0.96783 0.07638 0.0
C28 C 0.75485 0.96862 0.08745 0.0
C29 C 0.76562 0.96668 0.16732 0.0
C30 C 0.74807 0.96497 0.23556 0.0
N31 N 0.79375 0.96719 0.18157 0.0
C32 C 0.81344 0.96958 0.12082 0.0
H33 H 0.5797 0.68468 0.12403 0.0
H34 H 0.56973 0.76347 0.02912 0.0
H35 H 0.56164 0.74909 0.2898 0.0
C36 C 0.57667 0.70582 0.13528 0.0
C37 C 0.57011 0.71437 0.21463 0.0
C38 C 0.57561 0.72312 0.06824 0.0
C39 C 0.57118 0.75035 0.08159 0.0
C40 C 0.56753 0.76018 0.16225 0.0
C41 C 0.56646 0.74193 0.22861 0.0
N42 N 0.56329 0.78788 0.17766 0.0
C43 C 0.56333 0.80759 0.11694 0.0
H44 H 0.1868 0.45508 0.25657 0.0
H45 H 0.26285 0.4576 0.37718 0.0
H46 H 0.2581 0.46542 0.11302 0.0
C47 C 0.20846 0.45543 0.25231 0.0
C48 C 0.22037 0.45948 0.17567 0.0
C49 C 0.22355 0.45477 0.32471 0.0
C50 C 0.2514 0.45746 0.32071 0.0
C51 C 0.26415 0.46066 0.24399 0.0
C52 C 0.24846 0.46204 0.17176 0.0
N53 N 0.29248 0.46331 0.23769 0.0
C54 C 0.30997 0.46458 0.30458 0.0
H55 H 0.06658 0.18424 0.2809 0.0
H56 H 0.07161 0.26279 0.38301 0.0
H57 H 0.06927 0.25179 0.11919 0.0
C58 C 0.06876 0.20552 0.27103 0.0
C59 C 0.06861 0.2155 0.19098 0.0
C60 C 0.0704 0.22229 0.33965 0.0
C61 C 0.07096 0.24998 0.32934 0.0
C62 C 0.07068 0.26081 0.2494 0.0
C63 C 0.06948 0.24345 0.18054 0.0
N64 N 0.07157 0.28888 0.23593 0.0
C65 C 0.07098 0.30843 0.29748 0.0
H66 H 0.35279 0.07653 0.25454 0.0
H67 H 0.27733 0.0725 0.37932 0.0
H68 H 0.28087 0.06614 0.1146 0.0
C69 C 0.33111 0.07609 0.25154 0.0
C70 C 0.31883 0.07216 0.17542 0.0
C71 C 0.31641 0.07598 0.32488 0.0
C72 C 0.28851 0.07324 0.32226 0.0
C73 C 0.27539 0.0705 0.24604 0.0
C74 C 0.29076 0.06947 0.17295 0.0
N75 N 0.24707 0.06767 0.24082 0.0
C76 C 0.22952 0.06697 0.30784 0.0
H77 H 0.4607 0.34698 0.26669 0.0
H78 H 0.46369 0.26951 0.37776 0.0
H79 H 0.47632 0.27846 0.11634 0.0
C80 C 0.46184 0.32544 0.26037 0.0
C81 C 0.46842 0.31481 0.18372 0.0
C82 C 0.46057 0.30945 0.33063 0.0
C83 C 0.46383 0.28174 0.32301 0.0
C84 C 0.46838 0.27022 0.24489 0.0
C85 C 0.471 0.28699 0.17545 0.0
N86 N 0.47194 0.2422 0.23446 0.0
C87 C 0.47257 0.22332 0.29754 0.0
O88 O 0.02804 0.04588 0.79156 0.0
Mn89 Mn 0.02027 0.01641 0.70193 0.0
O90 O 0.9955 0.07604 0.76441 0.0
Mn91 Mn 0.97471 0.05619 0.69158 0.0
O92 O 0.01135 0.98784 0.61012 0.0
O93 O 0.06102 0.01038 0.68667 0.0
Mn94 Mn 0.06425 0.97542 0.69698 0.0
O95 O 0.01529 0.98628 0.78951 0.0
O96 O 0.04641 0.95968 0.60987 0.0
O97 O 0.02505 0.04675 0.61468 0.0
O98 O 0.9842 0.05968 0.58319 0.0
O99 O 0.09824 0.98614 0.68208 0.0
O100 O 0.0538 0.96433 0.79925 0.0
C101 C 0.95466 0.02234 0.73735 0.0
C102 C 0.01693 0.06901 0.80164 0.0
C103 C 0.02376 0.96711 0.5824 0.0
C104 C 0.08702 0.00932 0.67457 0.0
C105 C 0.02988 0.96813 0.82197 0.0
C106 C 0.00917 0.06124 0.57225 0.0
O107 O 0.98011 0.02269 0.71923 0.0
O108 O 0.94175 0.04409 0.72129 0.0
O109 O 0.54794 0.01007 0.7946 0.0
Mn110 Mn 0.51885 0.01372 0.70327 0.0
O111 O 0.56123 0.05077 0.82633 0.0
Mn112 Mn 0.55668 0.06033 0.7185 0.0
O113 O 0.4897 0.01731 0.61198 0.0
O114 O 0.51453 0.97316 0.71773 0.0
Mn115 Mn 0.48066 0.96723 0.69335 0.0
O116 O 0.48793 0.02049 0.78984 0.0
O117 O 0.47374 0.97692 0.58696 0.0
O118 O 0.5499 0.0072 0.6173 0.0
O119 O 0.57793 0.04137 0.64448 0.0
O120 O 0.49364 0.93438 0.71607 0.0
O121 O 0.46049 0.98535 0.77145 0.0
C122 C 0.52258 0.07981 0.67304 0.0
C123 C 0.56205 0.02591 0.83849 0.0
C124 C 0.47412 1.00166 0.57228 0.0
C125 C 0.51535 0.94748 0.73205 0.0
C126 C 0.46608 0.00766 0.80543 0.0
C127 C 0.57238 0.01953 0.60733 0.0
O128 O 0.52333 0.05423 0.68867 0.0
O129 O 0.54391 0.09309 0.69196 0.0
O130 O 0.52508 0.54552 0.78699 0.0
Mn131 Mn 0.52002 0.51464 0.70123 0.0
O132 O 0.48634 0.56583 0.80201 0.0
Mn133 Mn 0.47922 0.55684 0.6953 0.0
O134 O 0.51634 0.48331 0.61533 0.0
O135 O 0.55975 0.50751 0.72566 0.0
Mn136 Mn 0.56394 0.47292 0.71144 0.0
O137 O 0.50903 0.48714 0.79271 0.0
O138 O 0.5567 0.46513 0.60371 0.0
O139 O 0.5316 0.54169 0.60903 0.0
O140 O 0.5005 0.57394 0.61861 0.0
O141 O 0.59701 0.48447 0.74019 0.0
O142 O 0.54209 0.45635 0.78851 0.0
C143 C 0.4537 0.52622 0.66425 0.0
C144 C 0.51046 0.56303 0.82258 0.0
C145 C 0.53251 0.46658 0.5816 0.0
C146 C 0.58508 0.50733 0.74572 0.0
C147 C 0.51973 0.46496 0.81584 0.0
C148 C 0.5221 0.56461 0.58867 0.0
O149 O 0.47935 0.5217 0.67853 0.0
O150 O 0.4451 0.55055 0.67084 0.0
O151 O 0.0525 0.50963 0.78771 0.0
Mn152 Mn 0.02147 0.51506 0.70132 0.0
O153 O 0.0805 0.54366 0.75867 0.0
Mn154 Mn 0.05971 0.56152 0.68173 0.0
O155 O 0.991 0.52078 0.61359 0.0
O156 O 0.01671 0.47455 0.69265 0.0
Mn157 Mn 0.98261 0.46831 0.71199 0.0
O158 O 0.99226 0.5199 0.79214 0.0
O159 O 0.96424 0.48484 0.62704 0.0
O160 O 0.0504 0.51006 0.61014 0.0
O161 O 0.06471 0.55022 0.57538 0.0
O162 O 0.99707 0.43539 0.69508 0.0
O163 O 0.97379 0.48027 0.8154 0.0
C164 C 0.02521 0.58124 0.72519 0.0
C165 C 0.07486 0.52224 0.79759 0.0
C166 C 0.97014 0.50708 0.59345 0.0
C167 C 0.01858 0.44888 0.67988 0.0
C168 C 0.97567 0.50499 0.83077 0.0
C169 C 0.06482 0.5252 0.5652 0.0
O170 O 0.02631 0.55558 0.71129 0.0
O171 O 0.04642 0.59449 0.70494 0.0
H172 H 0.23446 0.04691 0.46219 0.0
H173 H 0.07814 0.03817 0.53623 0.0
H174 H 0.17799 0.08275 0.29618 0.0
H175 H 0.13569 0.02496 0.72756 0.0
H176 H 0.11323 0.05901 0.45205 0.0
H177 H 0.19835 0.04091 0.56322 0.0
C178 C 0.21447 0.05382 0.44766 0.0
C179 C 0.20905 0.06532 0.37116 0.0
C180 C 0.11804 0.05242 0.51361 0.0
C181 C 0.16757 0.05839 0.48565 0.0
C182 C 0.09774 0.0413 0.56245 0.0
C183 C 0.10373 0.03083 0.63996 0.0
C184 C 0.14468 0.0522 0.54175 0.0
C185 C 0.13009 0.03334 0.66874 0.0
C186 C 0.19386 0.05047 0.50525 0.0
C187 C 0.18286 0.07376 0.35474 0.0
N188 N 0.14964 0.04324 0.61922 0.0
N189 N 0.16302 0.06991 0.41109 0.0
H190 H 0.45539 0.22023 0.45708 0.0
H191 H 0.51413 0.07202 0.51028 0.0
H192 H 0.49439 0.17546 0.26481 0.0
H193 H 0.49021 0.12119 0.71488 0.0
H194 H 0.49722 0.10605 0.41576 0.0
H195 H 0.46004 0.18151 0.54922 0.0
C196 C 0.46486 0.2022 0.43441 0.0
C197 C 0.47466 0.20091 0.35367 0.0
C198 C 0.49492 0.10913 0.48133 0.0
C199 C 0.47982 0.15662 0.45772 0.0
C200 C 0.50404 0.08939 0.53529 0.0
C201 C 0.50275 0.09337 0.62055 0.0
C202 C 0.48492 0.13335 0.51285 0.0
C203 C 0.49081 0.11698 0.64954 0.0
C204 C 0.46745 0.18011 0.48674 0.0
C205 C 0.48664 0.17717 0.32685 0.0
N206 N 0.48263 0.13618 0.59599 0.0
N207 N 0.48895 0.15602 0.37865 0.0
H208 H 0.30515 0.49313 0.44538 0.0
H209 H 0.46038 0.48707 0.54866 0.0
H210 H 0.35942 0.44244 0.31088 0.0
H211 H 0.40164 0.52262 0.70721 0.0
H212 H 0.42421 0.46543 0.46971 0.0
H213 H 0.34008 0.50096 0.54835 0.0
C214 C 0.32438 0.48338 0.43836 0.0
C215 C 0.32957 0.46721 0.36991 0.0
C216 C 0.41924 0.47739 0.52314 0.0
C217 C 0.36983 0.47616 0.48673 0.0
C218 C 0.43999 0.48914 0.56889 0.0
C219 C 0.43412 0.50621 0.6346 0.0
C220 C 0.3924 0.48335 0.54281 0.0
C221 C 0.40712 0.50952 0.65684 0.0
C222 C 0.34435 0.48779 0.49708 0.0
C223 C 0.35479 0.45512 0.36303 0.0
N224 N 0.38735 0.49867 0.61036 0.0
N225 N 0.37411 0.46004 0.42024 0.0
H226 H 0.06105 0.35964 0.25848 0.0
H227 H 0.04823 0.40639 0.72689 0.0
H228 H 0.07778 0.30842 0.46404 0.0
H229 H 0.03255 0.45774 0.52144 0.0
H230 H 0.0666 0.37286 0.63271 0.0
H231 H 0.05669 0.39759 0.35322 0.0
C232 C 0.06396 0.35649 0.32375 0.0
C233 C 0.06959 0.33096 0.35381 0.0
C234 C 0.0601 0.39182 0.60814 0.0
C235 C 0.06469 0.37424 0.4629 0.0
C236 C 0.05008 0.4112 0.66221 0.0
C237 C 0.03977 0.43532 0.63222 0.0
C238 C 0.05934 0.39633 0.52291 0.0
C239 C 0.0414 0.43995 0.5474 0.0
C240 C 0.06156 0.37815 0.37783 0.0
C241 C 0.07326 0.32784 0.43865 0.0
N242 N 0.05058 0.42052 0.49562 0.0
N243 N 0.07057 0.34918 0.49033 0.0
H244 H 0.86377 0.98401 0.16025 0.0
H245 H 0.91173 0.99316 0.69263 0.0
H246 H 0.81436 0.96142 0.95501 0.0
H247 H 0.96374 0.00906 0.89743 0.0
H248 H 0.87803 0.97579 0.78745 0.0
H249 H 0.90186 0.98945 0.06626 0.0
C250 C 0.86104 0.9801 0.09522 0.0
C251 C 0.83599 0.97239 0.06499 0.0
C252 C 0.89708 0.9823 0.81185 0.0
C253 C 0.87944 0.97841 0.95691 0.0
C254 C 0.91655 0.99176 0.75742 0.0
C255 C 0.94083 0.00196 0.78695 0.0
C256 C 0.90161 0.98358 0.89703 0.0
C257 C 0.94557 1.00074 0.8719 0.0
C258 C 0.8828 0.98309 0.04162 0.0
C259 C 0.8334 0.96752 0.9805 0.0
N260 N 0.92599 0.99218 0.92408 0.0
N261 N 0.85481 0.97075 0.92935 0.0
H262 H 0.55461 0.80315 0.95271 0.0
H263 H 0.5358 0.95882 0.88459 0.0
H264 H 0.57044 0.8604 0.14442 0.0
H265 H 0.53932 0.9016 0.687 0.0
H266 H 0.55336 0.9248 0.97872 0.0
H267 H 0.5517 0.83965 0.85321 0.0
C268 C 0.55774 0.82344 0.97357 0.0
C269 C 0.56279 0.82889 0.05657 0.0
C270 C 0.55109 0.9199 0.91422 0.0
C271 C 0.55934 0.87089 0.94341 0.0
C272 C 0.54157 0.93953 0.86012 0.0
C273 C 0.53648 0.93315 0.77753 0.0
C274 C 0.55494 0.89362 0.88563 0.0
C275 C 0.54332 0.90746 0.74996 0.0
C276 C 0.55616 0.84431 0.91679 0.0
C277 C 0.56648 0.8555 0.0807 0.0
N278 N 0.55165 0.88856 0.80394 0.0
N279 N 0.56446 0.87556 0.02459 0.0
H280 H 0.67624 0.56719 0.14638 0.0
H281 H 0.6297 0.53095 0.68861 0.0
H282 H 0.73033 0.55087 0.94609 0.0
H283 H 0.57655 0.52963 0.89692 0.0
H284 H 0.66481 0.54975 0.77568 0.0
H285 H 0.63833 0.56344 0.05103 0.0
C286 C 0.68007 0.56309 0.08196 0.0
C287 C 0.70629 0.55927 0.05373 0.0
C288 C 0.64524 0.54619 0.80205 0.0
C289 C 0.66317 0.55497 0.94434 0.0
C290 C 0.62499 0.53596 0.75189 0.0
C291 C 0.59997 0.52927 0.7851 0.0
C292 C 0.64058 0.54953 0.88663 0.0
C293 C 0.59533 0.53512 0.86837 0.0
C294 C 0.65847 0.56095 0.02763 0.0
C295 C 0.71034 0.55396 0.97002 0.0
N296 N 0.61554 0.54457 0.91659 0.0
N297 N 0.68899 0.55184 0.91829 0.0
H298 H 0.98504 0.6711 0.15226 0.0
H299 H 0.99529 0.62385 0.68253 0.0
H300 H 0.97151 0.7229 0.94588 0.0
H301 H 0.01347 0.5727 0.88687 0.0
H302 H 0.97852 0.65767 0.77834 0.0
H303 H 0.98915 0.63308 0.0575 0.0
C304 C 0.98278 0.67436 0.08679 0.0
C305 C 0.97803 0.70005 0.05652 0.0
C306 C 0.98541 0.63878 0.80246 0.0
C307 C 0.98262 0.65671 0.94754 0.0
C308 C 0.99451 0.61923 0.74754 0.0
C309 C 0.00516 0.59515 0.77656 0.0
C310 C 0.98739 0.63448 0.88757 0.0
C311 C 0.00476 0.59069 0.86174 0.0
C312 C 0.98507 0.65267 0.03274 0.0
C313 C 0.97523 0.70334 0.97146 0.0
N314 N 0.99641 0.6103 0.91429 0.0
N315 N 0.9777 0.68195 0.9199 0.0
H316 H 0.10738 0.1899 0.40862 0.0
H317 H 0.98715 0.10925 0.60745 0.0
H318 H 0.02889 0.22304 0.44753 0.0
H319 H 0.05518 0.07334 0.48686 0.0
H320 H 0.00692 0.15307 0.5871 0.0
H321 H 0.09429 0.15036 0.48621 0.0
C322 C 0.0879 0.18952 0.43793 0.0
C323 C 0.06893 0.20934 0.42048 0.0
C324 C 0.01755 0.1356 0.56518 0.0
C325 C 0.05362 0.16413 0.50633 0.0
C326 C 0.00609 0.11058 0.57524 0.0
C327 C 0.01944 0.08754 0.54751 0.0
C328 C 0.04255 0.13773 0.52702 0.0
C329 C 0.04438 0.09049 0.50949 0.0
C330 C 0.08025 0.16671 0.48048 0.0
C331 C 0.04394 0.20797 0.4591 0.0
N332 N 0.05511 0.11519 0.49983 0.0
N333 N 0.03666 0.18526 0.49844 0.0
H334 H 0.35515 0.10867 0.38652 0.0
H335 H 0.42482 0.97885 0.56256 0.0
H336 H 0.31402 0.03473 0.4318 0.0
H337 H 0.467 0.05167 0.50864 0.0
H338 H 0.38278 1.00122 0.53457 0.0
H339 H 0.3938 0.0918 0.46202 0.0
C340 C 0.3538 0.08939 0.41606 0.0
C341 C 0.33173 0.07277 0.40153 0.0
C342 C 0.40122 0.01235 0.52834 0.0
C343 C 0.37598 0.05299 0.48459 0.0
C344 C 0.42538 0.99943 0.54267 0.0
C345 C 0.44967 0.01338 0.53669 0.0
C346 C 0.40121 0.03939 0.50679 0.0
C347 C 0.44883 0.04023 0.51345 0.0
C348 C 0.37604 0.07955 0.4577 0.0
C349 C 0.33082 0.04801 0.44092 0.0
N350 N 0.425 0.05238 0.499 0.0
N351 N 0.35302 0.0385 0.47874 0.0
H352 H 0.50089 0.30546 0.44074 0.0
H353 H 0.48795 0.46124 0.48318 0.0
H354 H 0.42708 0.34724 0.39551 0.0
H355 H 0.55183 0.41621 0.59375 0.0
H356 H 0.46443 0.41935 0.45391 0.0
H357 H 0.5178 0.34444 0.51348 0.0
C358 C 0.48765 0.32232 0.45012 0.0
C359 C 0.46289 0.32352 0.41008 0.0
C360 C 0.4835 0.41873 0.48534 0.0
C361 C 0.48252 0.36858 0.48895 0.0
C362 C 0.49676 0.44264 0.50216 0.0
C363 C 0.52126 0.44235 0.54347 0.0
C364 C 0.49522 0.3944 0.50876 0.0
C365 C 0.5329 0.41753 0.56182 0.0
C366 C 0.49756 0.34488 0.48992 0.0
C367 C 0.44653 0.34586 0.42435 0.0
N368 N 0.51974 0.39461 0.54461 0.0
N369 N 0.45704 0.36802 0.45981 0.0
H370 H 0.22671 0.49382 0.44022 0.0
H371 H 0.07111 0.48001 0.47205 0.0
H372 H 0.18518 0.42096 0.3821 0.0
H373 H 0.11493 0.54264 0.59366 0.0
H374 H 0.11332 0.45631 0.44743 0.0
H375 H 0.18781 0.50894 0.51808 0.0
C376 C 0.2099 0.4804 0.44748 0.0
C377 C 0.20868 0.45651 0.40284 0.0
C378 C 0.11366 0.4752 0.4799 0.0
C379 C 0.1638 0.47413 0.48749 0.0
C380 C 0.08963 0.48874 0.49302 0.0
C381 C 0.08962 0.51335 0.53358 0.0
C382 C 0.13778 0.48649 0.50765 0.0
C383 C 0.11414 0.52408 0.55955 0.0
C384 C 0.18744 0.48924 0.49057 0.0
C385 C 0.1865 0.43982 0.41444 0.0
N386 N 0.13724 0.51061 0.54596 0.0
N387 N 0.16442 0.44937 0.45309 0.0
H388 H 0.92885 0.84183 0.00429 0.0
H389 H 0.05435 0.93062 0.91614 0.0
H390 H 0.00908 0.81084 -0.0108 0.0
H391 H 0.97687 0.95398 0.82404 0.0
H392 H 0.03602 0.88739 0.95312 0.0
H393 H 0.94361 0.88225 0.93328 0.0
C394 C 0.94922 0.84293 0.98177 0.0
C395 C 0.9679 0.82324 0.00338 0.0
C396 C 0.02296 0.90202 0.92523 0.0
C397 C 0.98512 0.86965 0.92698 0.0
C398 C 0.03328 0.92692 0.90559 0.0
C399 C 0.01713 0.94604 0.8671 0.0
C400 C 0.99616 0.89619 0.90732 0.0
C401 C 0.98996 0.94003 0.85475 0.0
C402 C 0.95776 0.8662 0.94292 0.0
C403 C 0.99411 0.82564 0.9739 0.0
N404 N 0.9803 0.91552 0.87457 0.0
N405 N 1.0022 0.8489 0.9396 0.0
H406 H 0.69997 0.93406 0.97565 0.0
H407 H 0.59857 0.05275 0.93223 0.0
H408 H 0.72221 0.01632 0.00725 0.0
H409 H 0.58324 0.9757 0.82271 0.0
H410 H 0.64434 0.0388 0.95999 0.0
H411 H 0.65919 0.94821 0.90539 0.0
C412 C 0.69698 0.95507 0.96336 0.0
C413 C 0.71415 0.97413 -0.00214 0.0
C414 C 0.6309 0.0249 0.93019 0.0
C415 C 0.6671 0.99045 0.92273 0.0
C416 C 0.60458 0.03267 0.91581 0.0
C417 C 0.58679 0.01531 0.87592 0.0
C418 C 0.63952 0.99945 0.90546 0.0
C419 C 0.59593 0.9896 0.85526 0.0
C420 C 0.67342 0.96319 0.92501 0.0
C421 C 0.70931 1.00109 0.98161 0.0
N422 N 0.62168 0.98246 0.87022 0.0
N423 N 0.68571 0.00856 0.94763 0.0
H424 H 0.53045 0.7235 0.97833 0.0
H425 H 0.56335 0.57705 0.81755 0.0
H426 H 0.61048 0.69171 0.98107 0.0
H427 H 0.48655 0.60346 0.90839 0.0
H428 H 0.5819 0.62088 0.84975 0.0
H429 H 0.51516 0.68324 0.90836 0.0
C430 C 0.54512 0.70872 0.95978 0.0
C431 C 0.57159 0.71046 0.9874 0.0
C432 C 0.56107 0.61691 0.86328 0.0
C433 C 0.55417 0.66413 0.91067 0.0
C434 C 0.5506 0.59166 0.84696 0.0
C435 C 0.52342 0.58628 0.86173 0.0
C436 C 0.54412 0.63705 0.89302 0.0
C437 C 0.50763 0.60658 0.89648 0.0
C438 C 0.53625 0.6854 0.92197 0.0
C439 C 0.58979 0.69078 0.96171 0.0
N440 N 0.51815 0.63111 0.91017 0.0
N441 N 0.5806 0.66788 0.92706 0.0
H442 H 0.84961 0.60652 0.01355 0.0
H443 H 0.93581 0.48046 0.91699 0.0
H444 H 0.81592 0.52805 0.98518 0.0
H445 H 0.96144 0.55784 0.83225 0.0
H446 H 0.89223 0.49927 0.95006 0.0
H447 H 0.88991 0.59151 0.94114 0.0
C448 C 0.85012 0.58657 0.98788 0.0
C449 C 0.82972 0.56831 0.00635 0.0
C450 C 0.90748 0.51218 0.92464 0.0
C451 C 0.87593 0.55076 0.92804 0.0
C452 C 0.93258 0.50157 0.90723 0.0
C453 C 0.95257 0.51762 0.87239 0.0
C454 C 0.90234 0.53916 0.9085 0.0
C455 C 0.94696 0.54483 0.86065 0.0
C456 C 0.8733 0.57786 0.9481 0.0
C457 C 0.83134 0.54264 0.97263 0.0
N458 N 0.92234 0.55478 0.8787 0.0
N459 N 0.85452 0.53429 0.93751 0.0
H460 H 0.03924 0.21969 0.04746 0.0
H461 H 0.04698 0.06376 0.94474 0.0
H462 H 0.0923 0.16618 0.17583 0.0
H463 H 0.01545 0.12227 0.77676 0.0
H464 H 0.06305 0.10044 0.03334 0.0
H465 H 0.03003 0.18408 0.94783 0.0
C466 C 0.04929 0.20068 0.05416 0.0
C467 C 0.06623 0.19598 0.12129 0.0
C468 C 0.05283 0.10515 0.97654 0.0
C469 C 0.05513 0.15472 0.00866 0.0
C470 C 0.04374 0.08422 0.92604 0.0
C471 C 0.02952 0.08992 0.85388 0.0
C472 C 0.04771 0.13185 0.95437 0.0
C473 C 0.0258 0.11687 0.83275 0.0
C474 C 0.04382 0.18021 -0.00235 0.0
C475 C 0.07849 0.17066 0.12658 0.0
N476 N 0.03461 0.1367 0.88278 0.0
N477 N 0.07239 0.15095 0.07211 0.0
H478 H 0.31663 0.03092 0.06469 0.0
H479 H 0.46472 0.05671 0.88687 0.0
H480 H 0.36249 0.10103 0.12487 0.0
H481 H 0.41837 0.98517 0.84746 0.0
H482 H 0.42705 0.0753 0.96668 0.0
H483 H 0.35228 0.01678 0.97096 0.0
C484 C 0.33384 0.04374 0.05638 0.0
C485 C 0.33655 0.06714 0.10295 0.0
C486 C 0.42526 0.05554 0.94026 0.0
C487 C 0.37808 0.05065 -0.00236 0.0
C488 C 0.44684 0.04485 0.89518 0.0
C489 C 0.44495 0.01926 0.86009 0.0
C490 C 0.40158 0.0406 0.94979 0.0
C491 C 0.42106 0.00495 0.87287 0.0
C492 C 0.35446 0.03547 0.00378 0.0
C493 C 0.35965 0.08272 0.09054 0.0
N494 N 0.4005 0.0158 0.9161 0.0
N495 N 0.37963 0.07407 0.03997 0.0
H496 H 0.51037 0.3482 0.19237 0.0
H497 H 0.47878 0.43067 0.78377 0.0
H498 H 0.44485 0.32673 0.03388 0.0
H499 H 0.53162 0.45698 0.97623 0.0
H500 H 0.46547 0.39251 0.86962 0.0
H501 H 0.51949 0.38677 0.10647 0.0
C502 C 0.49829 0.35132 0.13794 0.0
C503 C 0.47702 0.33408 0.11965 0.0
C504 C 0.47947 0.40698 0.89384 0.0
C505 C 0.48698 0.37884 0.02117 0.0
C506 C 0.48676 0.42893 0.84544 0.0
C507 C 0.50582 0.44727 0.87409 0.0
C508 C 0.49169 0.40323 0.97075 0.0
C509 C 0.51646 0.44357 0.95275 0.0
C510 C 0.50327 0.37358 0.08944 0.0
C511 C 0.46169 0.33932 0.04926 0.0
N512 N 0.50939 0.42195 -0.002 0.0
N513 N 0.46693 0.36132 0.00245 0.0
H514 H 0.17639 0.43037 0.12974 0.0
H515 H 0.12482 0.54272 0.82043 0.0
H516 H 0.22204 0.49974 0.0615 0.0
H517 H 0.07508 0.47689 0.89689 0.0
H518 H 0.16129 0.52499 0.90081 0.0
H519 H 0.14086 0.44421 0.03563 0.0
C520 C 0.17921 0.44824 0.09356 0.0
C521 C 0.20229 0.46398 0.10395 0.0
C522 C 0.14246 0.51435 0.90051 0.0
C523 C 0.16139 0.4801 -0.0036 0.0
C524 C 0.12134 0.52455 0.8546 0.0
C525 C 0.09644 0.51146 0.85175 0.0
C526 C 0.13906 0.49074 0.94499 0.0
C527 C 0.09374 0.48782 0.89729 0.0
C528 C 0.15879 0.45621 0.04026 0.0
C529 C 0.20481 0.48685 0.0552 0.0
N530 N 0.11477 0.47825 0.94217 0.0
N531 N 0.18453 0.49433 0.00432 0.0
H532 H 0.01844 0.83222 0.26409 0.0
H533 H 0.97258 0.94676 0.57856 0.0
H534 H 0.9359 0.84134 0.33451 0.0
H535 H 0.04776 0.94553 0.44871 0.0
H536 H 0.95776 0.90813 0.49602 0.0
H537 H 0.02956 0.87214 0.34319 0.0
C538 C 1.00283 0.84214 0.29905 0.0
C539 C 0.97641 0.83302 0.29513 0.0
C540 C 0.97728 0.91669 0.48463 0.0
C541 C 0.98871 0.87951 0.38374 0.0
C542 C 0.98558 0.93893 0.53089 0.0
C543 C 0.01142 0.94935 0.5202 0.0
C544 C 0.99506 0.90485 0.42799 0.0
C545 C 0.02773 0.93806 0.45905 0.0
C546 C 0.00905 0.86525 0.34293 0.0
C547 C 0.95665 0.84735 0.33819 0.0
N548 N 0.01941 0.91637 0.41601 0.0
N549 N 0.96319 0.86989 0.38104 0.0
H550 H 0.67195 0.93818 0.24146 0.0
H551 H 0.62519 0.03171 0.61409 0.0
H552 H 0.72257 0.99538 0.36405 0.0
H553 H 0.57014 0.98051 0.48406 0.0
H554 H 0.66155 0.01463 0.53104 0.0
H555 H 0.63578 0.94906 0.33764 0.0
C556 C 0.67566 0.95272 0.28949 0.0
C557 C 0.70043 0.96608 0.29392 0.0
C558 C 0.6416 0.00704 0.52016 0.0
C559 C 0.65887 0.97858 0.4046 0.0
C560 C 0.62059 0.01692 0.56753 0.0
C561 C 0.59423 0.00793 0.55557 0.0
C562 C 0.63662 0.9879 0.45921 0.0
C563 C 0.59002 0.98821 0.49527 0.0
C564 C 0.6549 0.95895 0.34422 0.0
C565 C 0.70403 0.98442 0.35822 0.0
N566 N 0.61098 0.97899 0.44884 0.0
N567 N 0.68345 0.99027 0.41027 0.0
H568 H 0.58549 0.7109 0.37894 0.0
H569 H 0.52712 0.56201 0.42126 0.0
H570 H 0.54047 0.66954 0.19182 0.0
H571 H 0.54849 0.60935 0.63249 0.0
H572 H 0.54106 0.59884 0.33169 0.0
H573 H 0.57857 0.67244 0.47126 0.0
C574 C 0.57409 0.69391 0.35745 0.0
C575 C 0.56401 0.69333 0.27694 0.0
C576 C 0.54318 0.60102 0.39764 0.0
C577 C 0.55666 0.64917 0.38076 0.0
C578 C 0.5356 0.57983 0.44846 0.0
C579 C 0.53704 0.58263 0.53394 0.0
C580 C 0.55208 0.62518 0.43275 0.0
C581 C 0.54744 0.60643 0.56652 0.0
C582 C 0.57037 0.67189 0.4097 0.0
C583 C 0.5493 0.67071 0.25248 0.0
N584 N 0.55442 0.62688 0.51602 0.0
N585 N 0.54634 0.6496 0.30355 0.0
H586 H 0.8255 0.518 0.3104 0.0
H587 H 0.95908 0.55948 0.55214 0.0
H588 H 0.85707 0.59781 0.30158 0.0
H589 H 0.9357 0.47847 0.49888 0.0
H590 H 0.9209 0.5753 0.46987 0.0
H591 H 0.86356 0.50457 0.39525 0.0
C592 C 0.83999 0.5329 0.32885 0.0
C593 C 0.83789 0.55914 0.30032 0.0
C594 C 0.92435 0.55407 0.47577 0.0
C595 C 0.88207 0.54381 0.39538 0.0
C596 C 0.94627 0.54505 0.52202 0.0
C597 C 0.95051 0.5176 0.53302 0.0
C598 C 0.90657 0.53548 0.44079 0.0
C599 C 0.93306 0.49982 0.49318 0.0
C600 C 0.862 0.52516 0.37603 0.0
C601 C 0.85781 0.57746 0.32353 0.0
N602 N 0.91186 0.50903 0.44963 0.0
N603 N 0.87909 0.56947 0.36958 0.0
loop_
_geom_bond_atom_site_label_1
_geom_bond_atom_site_label_2
_geom_bond_distance
_geom_bond_site_symmetry_2
_ccdc_geom_bond_type
H0 C3 0.929 . S
H1 C6 0.929 1_556 S
H2 C8 0.930 . S
C3 H0 0.929 . S
C3 C4 1.398 . S
C3 C5 1.396 . S
C4 C3 1.398 . S
C4 C8 1.407 . S
C5 C3 1.396 . S
C5 C6 1.394 . S
C6 H1 0.929 1_554 S
C6 C5 1.394 . S
C6 C7 1.382 . S
C7 C6 1.382 . S
C7 C8 1.392 . S
C7 N9 1.420 . S
C8 H2 0.930 . S
C8 C4 1.407 . S
C8 C7 1.392 . S
N9 C7 1.420 . S
N9 C10 1.244 . S
C10 N9 1.244 . S
H11 C14 0.929 . S
H12 C17 0.929 1_556 S
H13 C19 0.930 . S
C14 H11 0.929 . S
C14 C15 1.398 . S
C14 C16 1.396 . S
C15 C14 1.398 . S
C15 C19 1.407 . S
C16 C14 1.396 . S
C16 C17 1.394 . S
C17 H12 0.929 1_554 S
C17 C16 1.394 . S
C17 C18 1.382 . S
C18 C17 1.382 . S
C18 C19 1.392 . S
C18 N20 1.420 . S
C19 H13 0.930 . S
C19 C15 1.407 . S
C19 C18 1.392 . S
N20 C18 1.420 . S
N20 C21 1.244 . S
C21 N20 1.244 . S
H22 C25 0.929 . S
H23 C28 0.929 1_556 S
H24 C30 0.930 . S
C25 H22 0.929 . S
C25 C26 1.398 . S
C25 C27 1.396 . S
C26 C25 1.398 . S
C26 C30 1.407 . S
C27 C25 1.396 . S
C27 C28 1.394 . S
C28 H23 0.929 1_554 S
C28 C27 1.394 . S
C28 C29 1.382 . S
C29 C28 1.382 . S
C29 C30 1.392 . S
C29 N31 1.420 . S
C30 H24 0.930 . S
C30 C26 1.407 . S
C30 C29 1.392 . S
N31 C29 1.420 . S
N31 C32 1.244 . S
C32 N31 1.244 . S
H33 C36 0.929 . S
H34 C39 0.929 1_556 S
H35 C41 0.930 . S
C36 H33 0.929 . S
C36 C37 1.398 . S
C36 C38 1.396 . S
C37 C36 1.398 . S
C37 C41 1.407 . S
C38 C36 1.396 . S
C38 C39 1.394 . S
C39 H34 0.929 1_554 S
C39 C38 1.394 . S
C39 C40 1.382 . S
C40 C39 1.382 . S
C40 C41 1.392 . S
C40 N42 1.420 . S
C41 H35 0.930 . S
C41 C37 1.407 . S
C41 C40 1.392 . S
N42 C40 1.420 . S
N42 C43 1.244 . S
C43 N42 1.244 . S
H44 C47 0.929 . S
H45 C50 0.929 . S
H46 C52 0.930 . S
C47 H44 0.929 . S
C47 C48 1.398 . S
C47 C49 1.396 . S
C48 C47 1.398 . S
C48 C52 1.407 . S
C49 C47 1.396 . S
C49 C50 1.394 . S
C50 H45 0.929 . S
C50 C49 1.394 . S
C50 C51 1.382 . S
C51 C50 1.382 . S
C51 C52 1.392 . S
C51 N53 1.420 . S
C52 H46 0.930 . S
C52 C48 1.407 . S
C52 C51 1.392 . S
N53 C51 1.420 . S
N53 C54 1.244 . S
C54 N53 1.244 . S
H55 C58 0.929 . S
H56 C61 0.929 . S
H57 C63 0.930 . S
C58 H55 0.929 . S
C58 C59 1.398 . S
C58 C60 1.396 . S
C59 C58 1.398 . S
C59 C63 1.407 . S
C60 C58 1.396 . S
C60 C61 1.394 . S
C61 H56 0.929 . S
C61 C60 1.394 . S
C61 C62 1.382 . S
C62 C61 1.382 . S
C62 C63 1.392 . S
C62 N64 1.420 . S
C63 H57 0.930 . S
C63 C59 1.407 . S
C63 C62 1.392 . S
N64 C62 1.420 . S
N64 C65 1.244 . S
C65 N64 1.244 . S
H66 C69 0.929 . S
H67 C72 0.929 . S
H68 C74 0.930 . S
C69 H66 0.929 . S
C69 C70 1.398 . S
C69 C71 1.396 . S
C70 C69 1.398 . S
C70 C74 1.407 . S
C71 C69 1.396 . S
C71 C72 1.394 . S
C72 H67 0.929 . S
C72 C71 1.394 . S
C72 C73 1.382 . S
C73 C72 1.382 . S
C73 C74 1.392 . S
C73 N75 1.420 . S
C74 H68 0.930 . S
C74 C70 1.407 . S
C74 C73 1.392 . S
N75 C73 1.420 . S
N75 C76 1.244 . S
C76 N75 1.244 . S
H77 C80 0.929 . S
H78 C83 0.929 . S
H79 C85 0.930 . S
C80 H77 0.929 . S
C80 C81 1.398 . S
C80 C82 1.396 . S
C81 C80 1.398 . S
C81 C85 1.407 . S
C82 C80 1.396 . S
C82 C83 1.394 . S
C83 H78 0.929 . S
C83 C82 1.394 . S
C83 C84 1.382 . S
C84 C83 1.382 . S
C84 C85 1.392 . S
C84 N86 1.420 . S
C85 H79 0.930 . S
C85 C81 1.407 . S
C85 C84 1.392 . S
N86 C84 1.420 . S
N86 C87 1.244 . S
C87 N86 1.244 . S
O88 Mn89 2.163 . S
O88 C102 1.244 . S
Mn89 O88 2.163 . S
Mn89 O92 2.160 1_545 S
Mn89 O93 2.221 . S
Mn89 O95 2.163 1_545 S
Mn89 O97 2.160 . S
Mn89 O107 2.221 1_455 S
O90 Mn91 2.087 1_455 S
O90 C102 1.256 . S
Mn91 O90 2.087 1_655 S
Mn91 O98 2.089 . S
Mn91 O107 2.290 . S
Mn91 O108 2.251 . S
O92 Mn89 2.160 1_565 S
O92 C103 1.239 . S
O93 Mn89 2.221 . S
O93 Mn94 2.290 1_545 S
O93 C104 1.278 . S
Mn94 O93 2.290 1_565 S
Mn94 O96 2.089 . S
Mn94 O99 2.251 . S
Mn94 O100 2.087 . S
O95 Mn89 2.163 1_565 S
O95 C105 1.244 . S
O96 Mn94 2.089 . S
O96 C103 1.256 . S
O97 Mn89 2.160 . S
O97 C106 1.239 . S
O98 Mn91 2.089 . S
O98 C106 1.256 1_655 S
O99 Mn94 2.251 . S
O99 C104 1.241 1_565 S
O100 Mn94 2.087 . S
O100 C105 1.256 . S
C101 O107 1.278 . S
C101 O108 1.241 . S
C102 O88 1.244 . S
C102 O90 1.256 . S
C103 O92 1.239 . S
C103 O96 1.256 . S
C104 O93 1.278 . S
C104 O99 1.241 1_545 S
C105 O95 1.244 . S
C105 O100 1.256 . S
C106 O97 1.239 . S
C106 O98 1.256 1_455 S
O107 Mn89 2.221 1_655 S
O107 Mn91 2.290 . S
O107 C101 1.278 . S
O108 Mn91 2.251 . S
O108 C101 1.241 . S
O109 Mn110 2.163 . S
O109 C123 1.244 . S
Mn110 O109 2.163 . S
Mn110 O113 2.160 . S
Mn110 O114 2.221 1_545 S
Mn110 O116 2.163 . S
Mn110 O118 2.160 1_545 S
Mn110 O128 2.221 . S
O111 Mn112 2.087 . S
O111 C123 1.256 . S
Mn112 O111 2.087 . S
Mn112 O119 2.089 . S
Mn112 O128 2.290 . S
Mn112 O129 2.251 . S
O113 Mn110 2.160 . S
O113 C124 1.239 . S
O114 Mn110 2.221 1_565 S
O114 Mn115 2.290 . S
O114 C125 1.278 . S
Mn115 O114 2.290 . S
Mn115 O117 2.089 . S
Mn115 O120 2.251 . S
Mn115 O121 2.088 . S
O116 Mn110 2.163 . S
O116 C126 1.244 . S
O117 Mn115 2.089 . S
O117 C124 1.256 1_565 S
O118 Mn110 2.160 1_565 S
O118 C127 1.239 1_565 S
O119 Mn112 2.089 . S
O119 C127 1.256 . S
O120 Mn115 2.251 . S
O120 C125 1.241 . S
O121 Mn115 2.088 . S
O121 C126 1.255 1_565 S
C122 O128 1.278 . S
C122 O129 1.241 . S
C123 O109 1.244 . S
C123 O111 1.256 . S
C124 O113 1.239 . S
C124 O117 1.256 1_545 S
C125 O114 1.278 . S
C125 O120 1.241 . S
C126 O116 1.244 . S
C126 O121 1.255 1_545 S
C127 O118 1.239 1_545 S
C127 O119 1.256 . S
O128 Mn110 2.221 . S
O128 Mn112 2.290 . S
O128 C122 1.278 . S
O129 Mn112 2.251 . S
O129 C122 1.241 . S
O130 Mn131 2.163 . S
O130 C144 1.244 . S
Mn131 O130 2.163 . S
Mn131 O134 2.160 . S
Mn131 O135 2.221 . S
Mn131 O137 2.163 . S
Mn131 O139 2.160 . S
Mn131 O149 2.221 . S
O132 Mn133 2.087 . S
O132 C144 1.256 . S
Mn133 O132 2.087 . S
Mn133 O140 2.089 . S
Mn133 O149 2.290 . S
Mn133 O150 2.251 . S
O134 Mn131 2.160 . S
O134 C145 1.239 . S
O135 Mn131 2.221 . S
O135 Mn136 2.290 . S
O135 C146 1.278 . S
Mn136 O135 2.290 . S
Mn136 O138 2.089 . S
Mn136 O141 2.251 . S
Mn136 O142 2.087 . S
O137 Mn131 2.163 . S
O137 C147 1.244 . S
O138 Mn136 2.089 . S
O138 C145 1.256 . S
O139 Mn131 2.160 . S
O139 C148 1.239 . S
O140 Mn133 2.089 . S
O140 C148 1.256 . S
O141 Mn136 2.251 . S
O141 C146 1.241 . S
O142 Mn136 2.087 . S
O142 C147 1.256 . S
C143 O149 1.278 . S
C143 O150 1.241 . S
C144 O130 1.244 . S
C144 O132 1.256 . S
C145 O134 1.239 . S
C145 O138 1.256 . S
C146 O135 1.278 . S
C146 O141 1.241 . S
C147 O137 1.244 . S
C147 O142 1.256 . S
C148 O139 1.239 . S
C148 O140 1.256 . S
O149 Mn131 2.221 . S
O149 Mn133 2.290 . S
O149 C143 1.278 . S
O150 Mn133 2.251 . S
O150 C143 1.241 . S
O151 Mn152 2.163 . S
O151 C165 1.244 . S
Mn152 O151 2.163 . S
Mn152 O155 2.160 1_455 S
Mn152 O156 2.221 . S
Mn152 O158 2.163 1_455 S
Mn152 O160 2.160 . S
Mn152 O170 2.221 . S
O153 Mn154 2.087 . S
O153 C165 1.256 . S
Mn154 O153 2.087 . S
Mn154 O161 2.089 . S
Mn154 O170 2.290 . S
Mn154 O171 2.251 . S
O155 Mn152 2.160 1_655 S
O155 C166 1.239 . S
O156 Mn152 2.221 . S
O156 Mn157 2.290 1_455 S
O156 C167 1.278 . S
Mn157 O156 2.290 1_655 S
Mn157 O159 2.089 . S
Mn157 O162 2.251 . S
Mn157 O163 2.087 . S
O158 Mn152 2.163 1_655 S
O158 C168 1.244 . S
O159 Mn157 2.089 . S
O159 C166 1.256 . S
O160 Mn152 2.160 . S
O160 C169 1.239 . S
O161 Mn154 2.089 . S
O161 C169 1.256 . S
O162 Mn157 2.251 . S
O162 C167 1.241 1_655 S
O163 Mn157 2.087 . S
O163 C168 1.256 . S
C164 O170 1.278 . S
C164 O171 1.241 . S
C165 O151 1.244 . S
C165 O153 1.256 . S
C166 O155 1.239 . S
C166 O159 1.256 . S
C167 O156 1.278 . S
C167 O162 1.241 1_455 S
C168 O158 1.244 . S
C168 O163 1.256 . S
C169 O160 1.239 . S
C169 O161 1.256 . S
O170 Mn152 2.221 . S
O170 Mn154 2.290 . S
O170 C164 1.278 . S
O171 Mn154 2.251 . S
O171 C164 1.241 . S
H172 C178 0.930 . S
H173 C182 0.930 . S
H174 C187 0.929 . S
H175 C185 0.929 1_565 S
H176 C180 0.929 . S
H177 C186 0.929 . S
C178 H172 0.930 . S
C178 C179 1.367 . S
C178 C186 1.378 . S
C179 C178 1.367 . S
C179 C187 1.433 . S
C180 H176 0.929 . S
C180 C182 1.378 . S
C180 C184 1.350 . S
C181 C184 1.463 . S
C181 C186 1.350 . S
C181 N189 1.427 . S
C182 H173 0.930 . S
C182 C180 1.378 . S
C182 C183 1.367 . S
C183 C182 1.367 . S
C183 C185 1.433 . S
C184 C180 1.350 . S
C184 C181 1.463 . S
C184 N188 1.427 . S
C185 H175 0.929 1_545 S
C185 C183 1.433 . S
C185 N188 1.384 . S
C186 H177 0.929 . S
C186 C178 1.378 . S
C186 C181 1.350 . S
C187 H174 0.929 . S
C187 C179 1.433 . S
C187 N189 1.384 . S
N188 C184 1.427 . S
N188 C185 1.384 . S
N189 C181 1.427 . S
N189 C187 1.384 . S
H190 C196 0.930 . S
H191 C200 0.930 . S
H192 C205 0.929 . S
H193 C203 0.929 . S
H194 C198 0.929 . S
H195 C204 0.929 . S
C196 H190 0.930 . S
C196 C197 1.367 . S
C196 C204 1.378 . S
C197 C196 1.367 . S
C197 C205 1.433 . S
C198 H194 0.929 . S
C198 C200 1.378 . S
C198 C202 1.350 . S
C199 C202 1.463 . S
C199 C204 1.350 . S
C199 N207 1.427 . S
C200 H191 0.930 . S
C200 C198 1.378 . S
C200 C201 1.367 . S
C201 C200 1.367 . S
C201 C203 1.433 . S
C202 C198 1.350 . S
C202 C199 1.463 . S
C202 N206 1.427 . S
C203 H193 0.929 . S
C203 C201 1.433 . S
C203 N206 1.384 . S
C204 H195 0.929 . S
C204 C196 1.378 . S
C204 C199 1.350 . S
C205 H192 0.929 . S
C205 C197 1.433 . S
C205 N207 1.384 . S
N206 C202 1.427 . S
N206 C203 1.384 . S
N207 C199 1.427 . S
N207 C205 1.384 . S
H208 C214 0.930 . S
H209 C218 0.930 . S
H210 C223 0.929 . S
H211 C221 0.929 . S
H212 C216 0.929 . S
H213 C222 0.929 . S
C214 H208 0.930 . S
C214 C215 1.367 . S
C214 C222 1.378 . S
C215 C214 1.367 . S
C215 C223 1.433 . S
C216 H212 0.929 . S
C216 C218 1.378 . S
C216 C220 1.350 . S
C217 C220 1.463 . S
C217 C222 1.350 . S
C217 N225 1.427 . S
C218 H209 0.930 . S
C218 C216 1.378 . S
C218 C219 1.367 . S
C219 C218 1.367 . S
C219 C221 1.433 . S
C220 C216 1.350 . S
C220 C217 1.463 . S
C220 N224 1.427 . S
C221 H211 0.929 . S
C221 C219 1.433 . S
C221 N224 1.384 . S
C222 H213 0.929 . S
C222 C214 1.378 . S
C222 C217 1.350 . S
C223 H210 0.929 . S
C223 C215 1.433 . S
C223 N225 1.384 . S
N224 C220 1.427 . S
N224 C221 1.384 . S
N225 C217 1.427 . S
N225 C223 1.384 . S
H226 C232 0.930 . S
H227 C236 0.930 . S
H228 C241 0.929 . S
H229 C239 0.929 . S
H230 C234 0.929 . S
H231 C240 0.929 . S
C232 H226 0.930 . S
C232 C233 1.367 . S
C232 C240 1.378 . S
C233 C232 1.367 . S
C233 C241 1.433 . S
C234 H230 0.929 . S
C234 C236 1.378 . S
C234 C238 1.350 . S
C235 C238 1.463 . S
C235 C240 1.350 . S
C235 N243 1.427 . S
C236 H227 0.930 . S
C236 C234 1.378 . S
C236 C237 1.367 . S
C237 C236 1.367 . S
C237 C239 1.433 . S
C238 C234 1.350 . S
C238 C235 1.463 . S
C238 N242 1.427 . S
C239 H229 0.929 . S
C239 C237 1.433 . S
C239 N242 1.384 . S
C240 H231 0.929 . S
C240 C232 1.378 . S
C240 C235 1.350 . S
C241 H228 0.929 . S
C241 C233 1.433 . S
C241 N243 1.384 . S
N242 C238 1.427 . S
N242 C239 1.384 . S
N243 C235 1.427 . S
N243 C241 1.384 . S
H244 C250 0.930 . S
H245 C254 0.930 . S
H246 C259 0.929 . S
H247 C257 0.929 . S
H248 C252 0.929 . S
H249 C258 0.929 1_545 S
C250 H244 0.930 . S
C250 C251 1.367 . S
C250 C258 1.378 . S
C251 C250 1.367 . S
C251 C259 1.433 1_554 S
C252 H248 0.929 . S
C252 C254 1.378 . S
C252 C256 1.350 . S
C253 C256 1.463 . S
C253 C258 1.350 1_556 S
C253 N261 1.427 . S
C254 H245 0.930 . S
C254 C252 1.378 . S
C254 C255 1.367 1_565 S
C255 C254 1.367 1_545 S
C255 C257 1.433 . S
C256 C252 1.350 . S
C256 C253 1.463 . S
C256 N260 1.427 1_565 S
C257 H247 0.929 . S
C257 C255 1.433 . S
C257 N260 1.384 . S
C258 H249 0.929 1_565 S
C258 C250 1.378 . S
C258 C253 1.350 1_554 S
C259 H246 0.929 . S
C259 C251 1.433 1_556 S
C259 N261 1.384 . S
N260 C256 1.427 1_545 S
N260 C257 1.384 . S
N261 C253 1.427 . S
N261 C259 1.384 . S
H262 C268 0.930 . S
H263 C272 0.930 . S
H264 C277 0.929 . S
H265 C275 0.929 . S
H266 C270 0.929 . S
H267 C276 0.929 . S
C268 H262 0.930 . S
C268 C269 1.367 1_556 S
C268 C276 1.378 . S
C269 C268 1.367 1_554 S
C269 C277 1.433 . S
C270 H266 0.929 . S
C270 C272 1.378 . S
C270 C274 1.350 . S
C271 C274 1.463 . S
C271 C276 1.350 . S
C271 N279 1.427 1_556 S
C272 H263 0.930 . S
C272 C270 1.378 . S
C272 C273 1.367 . S
C273 C272 1.367 . S
C273 C275 1.433 . S
C274 C270 1.350 . S
C274 C271 1.463 . S
C274 N278 1.427 . S
C275 H265 0.929 . S
C275 C273 1.433 . S
C275 N278 1.384 . S
C276 H267 0.929 . S
C276 C268 1.378 . S
C276 C271 1.350 . S
C277 H264 0.929 . S
C277 C269 1.433 . S
C277 N279 1.384 . S
N278 C274 1.427 . S
N278 C275 1.384 . S
N279 C271 1.427 1_554 S
N279 C277 1.384 . S
H280 C286 0.930 . S
H281 C290 0.930 . S
H282 C295 0.929 . S
H283 C293 0.929 . S
H284 C288 0.929 . S
H285 C294 0.929 . S
C286 H280 0.930 . S
C286 C287 1.367 . S
C286 C294 1.378 . S
C287 C286 1.367 . S
C287 C295 1.433 1_554 S
C288 H284 0.929 . S
C288 C290 1.378 . S
C288 C292 1.350 . S
C289 C292 1.463 . S
C289 C294 1.350 1_556 S
C289 N297 1.427 . S
C290 H281 0.930 . S
C290 C288 1.378 . S
C290 C291 1.367 . S
C291 C290 1.367 . S
C291 C293 1.433 . S
C292 C288 1.350 . S
C292 C289 1.463 . S
C292 N296 1.427 . S
C293 H283 0.929 . S
C293 C291 1.433 . S
C293 N296 1.384 . S
C294 H285 0.929 . S
C294 C286 1.378 . S
C294 C289 1.350 1_554 S
C295 H282 0.929 . S
C295 C287 1.433 1_556 S
C295 N297 1.384 . S
N296 C292 1.427 . S
N296 C293 1.384 . S
N297 C289 1.427 . S
N297 C295 1.384 . S
H298 C304 0.930 . S
H299 C308 0.930 . S
H300 C313 0.929 . S
H301 C311 0.929 . S
H302 C306 0.929 . S
H303 C312 0.932 . S
C304 H298 0.930 . S
C304 C305 1.367 . S
C304 C312 1.378 . S
C305 C304 1.367 . S
C305 C313 1.433 1_554 S
C306 H302 0.929 . S
C306 C308 1.378 . S
C306 C310 1.350 . S
C307 C310 1.463 . S
C307 C312 1.350 1_556 S
C307 N315 1.427 . S
C308 H299 0.930 . S
C308 C306 1.378 . S
C308 C309 1.367 1_655 S
C309 C308 1.367 1_455 S
C309 C311 1.433 . S
C310 C306 1.350 . S
C310 C307 1.463 . S
C310 N314 1.427 1_655 S
C311 H301 0.929 . S
C311 C309 1.433 . S
C311 N314 1.384 . S
C312 H303 0.932 . S
C312 C304 1.378 . S
C312 C307 1.350 1_554 S
C313 H300 0.929 . S
C313 C305 1.433 1_556 S
C313 N315 1.384 . S
N314 C310 1.427 1_455 S
N314 C311 1.384 . S
N315 C307 1.427 . S
N315 C313 1.384 . S
H316 C322 0.930 . S
H317 C326 0.930 . S
H318 C331 0.929 . S
H319 C329 0.929 . S
H320 C324 0.929 . S
H321 C330 0.929 . S
C322 H316 0.930 . S
C322 C323 1.367 . S
C322 C330 1.378 . S
C323 C322 1.367 . S
C323 C331 1.433 . S
C324 H320 0.929 . S
C324 C326 1.378 . S
C324 C328 1.350 . S
C325 C328 1.463 . S
C325 C330 1.350 . S
C325 N333 1.427 . S
C326 H317 0.930 . S
C326 C324 1.378 . S
C326 C327 1.367 . S
C327 C326 1.367 . S
C327 C329 1.433 . S
C328 C324 1.350 . S
C328 C325 1.463 . S
C328 N332 1.427 . S
C329 H319 0.929 . S
C329 C327 1.433 . S
C329 N332 1.384 . S
C330 H321 0.929 . S
C330 C322 1.378 . S
C330 C325 1.350 . S
C331 H318 0.929 . S
C331 C323 1.433 . S
C331 N333 1.384 . S
N332 C328 1.427 . S
N332 C329 1.384 . S
N333 C325 1.427 . S
N333 C331 1.384 . S
H334 C340 0.930 . S
H335 C344 0.930 . S
H336 C349 0.929 . S
H337 C347 0.929 . S
H338 C342 0.929 . S
H339 C348 0.929 . S
C340 H334 0.930 . S
C340 C341 1.367 . S
C340 C348 1.378 . S
C341 C340 1.367 . S
C341 C349 1.433 . S
C342 H338 0.929 . S
C342 C344 1.378 . S
C342 C346 1.350 . S
C343 C346 1.463 . S
C343 C348 1.350 . S
C343 N351 1.427 . S
C344 H335 0.930 . S
C344 C342 1.378 . S
C344 C345 1.367 . S
C345 C344 1.367 . S
C345 C347 1.433 . S
C346 C342 1.350 . S
C346 C343 1.463 . S
C346 N350 1.427 . S
C347 H337 0.929 . S
C347 C345 1.433 . S
C347 N350 1.384 . S
C348 H339 0.929 . S
C348 C340 1.378 . S
C348 C343 1.350 . S
C349 H336 0.929 . S
C349 C341 1.433 . S
C349 N351 1.384 . S
N350 C346 1.427 . S
N350 C347 1.384 . S
N351 C343 1.427 . S
N351 C349 1.384 . S
H352 C358 0.930 . S
H353 C362 0.930 . S
H354 C367 0.929 . S
H355 C365 0.929 . S
H356 C360 0.929 . S
H357 C366 0.929 . S
C358 H352 0.930 . S
C358 C359 1.367 . S
C358 C366 1.378 . S
C359 C358 1.367 . S
C359 C367 1.433 . S
C360 H356 0.929 . S
C360 C362 1.378 . S
C360 C364 1.350 . S
C361 C364 1.463 . S
C361 C366 1.350 . S
C361 N369 1.427 . S
C362 H353 0.930 . S
C362 C360 1.378 . S
C362 C363 1.367 . S
C363 C362 1.367 . S
C363 C365 1.433 . S
C364 C360 1.350 . S
C364 C361 1.463 . S
C364 N368 1.427 . S
C365 H355 0.929 . S
C365 C363 1.433 . S
C365 N368 1.384 . S
C366 H357 0.929 . S
C366 C358 1.378 . S
C366 C361 1.350 . S
C367 H354 0.929 . S
C367 C359 1.433 . S
C367 N369 1.384 . S
N368 C364 1.427 . S
N368 C365 1.384 . S
N369 C361 1.427 . S
N369 C367 1.384 . S
H370 C376 0.930 . S
H371 C380 0.930 . S
H372 C385 0.929 . S
H373 C383 0.929 . S
H374 C378 0.929 . S
H375 C384 0.929 . S
C376 H370 0.930 . S
C376 C377 1.367 . S
C376 C384 1.378 . S
C377 C376 1.367 . S
C377 C385 1.433 . S
C378 H374 0.929 . S
C378 C380 1.378 . S
C378 C382 1.350 . S
C379 C382 1.463 . S
C379 C384 1.350 . S
C379 N387 1.427 . S
C380 H371 0.930 . S
C380 C378 1.378 . S
C380 C381 1.367 . S
C381 C380 1.367 . S
C381 C383 1.433 . S
C382 C378 1.350 . S
C382 C379 1.463 . S
C382 N386 1.427 . S
C383 H373 0.929 . S
C383 C381 1.433 . S
C383 N386 1.384 . S
C384 H375 0.929 . S
C384 C376 1.378 . S
C384 C379 1.350 . S
C385 H372 0.929 . S
C385 C377 1.433 . S
C385 N387 1.384 . S
N386 C382 1.427 . S
N386 C383 1.384 . S
N387 C379 1.427 . S
N387 C385 1.384 . S
H388 C394 0.930 . S
H389 C398 0.930 . S
H390 C403 0.929 . S
H391 C401 0.929 . S
H392 C396 0.929 . S
H393 C402 0.929 . S
C394 H388 0.930 . S
C394 C395 1.367 1_556 S
C394 C402 1.378 . S
C395 C394 1.367 1_554 S
C395 C403 1.433 1_655 S
C396 H392 0.929 . S
C396 C398 1.378 . S
C396 C400 1.350 . S
C397 C400 1.463 1_655 S
C397 C402 1.350 . S
C397 N405 1.427 1_656 S
C398 H389 0.930 . S
C398 C396 1.378 . S
C398 C399 1.367 . S
C399 C398 1.367 . S
C399 C401 1.433 1_455 S
C400 C396 1.350 . S
C400 C397 1.463 1_455 S
C400 N404 1.427 1_455 S
C401 H391 0.929 . S
C401 C399 1.433 1_655 S
C401 N404 1.384 . S
C402 H393 0.929 . S
C402 C394 1.378 . S
C402 C397 1.350 . S
C403 H390 0.929 . S
C403 C395 1.433 1_455 S
C403 N405 1.384 . S
N404 C400 1.427 1_655 S
N404 C401 1.384 . S
N405 C397 1.427 1_454 S
N405 C403 1.384 . S
H406 C412 0.930 . S
H407 C416 0.930 . S
H408 C421 0.929 . S
H409 C419 0.929 . S
H410 C414 0.929 1_554 S
H411 C420 0.929 . S
C412 H406 0.930 . S
C412 C413 1.367 1_556 S
C412 C420 1.378 . S
C413 C412 1.367 1_554 S
C413 C421 1.433 . S
C414 H410 0.929 1_556 S
C414 C416 1.378 . S
C414 C418 1.350 1_545 S
C415 C418 1.463 . S
C415 C420 1.350 . S
C415 N423 1.437 1_556 S
C416 H407 0.930 . S
C416 C414 1.378 . S
C416 C417 1.367 . S
C417 C416 1.367 . S
C417 C419 1.433 1_545 S
C418 C414 1.350 1_565 S
C418 C415 1.463 . S
C418 N422 1.427 . S
C419 H409 0.929 . S
C419 C417 1.433 1_565 S
C419 N422 1.384 . S
C420 H411 0.929 . S
C420 C412 1.378 . S
C420 C415 1.350 . S
C421 H408 0.929 . S
C421 C413 1.433 . S
C421 N423 1.392 . S
N422 C418 1.427 . S
N422 C419 1.384 . S
N423 C415 1.437 1_554 S
N423 C421 1.392 . S
H424 C430 0.930 . S
H425 C434 0.930 . S
H426 C439 0.929 . S
H427 C437 0.929 . S
H428 C432 0.929 . S
H429 C438 0.929 1_554 S
C430 H424 0.930 . S
C430 C431 1.367 . S
C430 C438 1.378 1_554 S
C431 C430 1.367 . S
C431 C439 1.433 1_554 S
C432 H428 0.929 . S
C432 C434 1.378 . S
C432 C436 1.350 . S
C433 C436 1.463 . S
C433 C438 1.350 . S
C433 N441 1.427 . S
C434 H425 0.930 . S
C434 C432 1.378 . S
C434 C435 1.367 . S
C435 C434 1.367 . S
C435 C437 1.433 . S
C436 C432 1.350 . S
C436 C433 1.463 . S
C436 N440 1.427 . S
C437 H427 0.929 . S
C437 C435 1.433 . S
C437 N440 1.384 . S
C438 H429 0.929 1_556 S
C438 C430 1.378 1_556 S
C438 C433 1.350 . S
C439 H426 0.929 . S
C439 C431 1.433 1_556 S
C439 N441 1.384 . S
N440 C436 1.427 . S
N440 C437 1.384 . S
N441 C433 1.427 . S
N441 C439 1.384 . S
H442 C448 0.930 . S
H443 C452 0.930 . S
H444 C457 0.929 1_554 S
H445 C455 0.929 . S
H446 C450 0.929 . S
H447 C456 0.929 . S
C448 H442 0.930 . S
C448 C449 1.367 1_556 S
C448 C456 1.378 . S
C449 C448 1.367 1_554 S
C449 C457 1.433 1_554 S
C450 H446 0.929 . S
C450 C452 1.378 . S
C450 C454 1.350 . S
C451 C454 1.463 . S
C451 C456 1.350 . S
C451 N459 1.427 . S
C452 H443 0.930 . S
C452 C450 1.378 . S
C452 C453 1.367 . S
C453 C452 1.367 . S
C453 C455 1.433 . S
C454 C450 1.350 . S
C454 C451 1.463 . S
C454 N458 1.427 . S
C455 H445 0.929 . S
C455 C453 1.433 . S
C455 N458 1.384 . S
C456 H447 0.929 . S
C456 C448 1.378 . S
C456 C451 1.350 . S
C457 H444 0.929 1_556 S
C457 C449 1.433 1_556 S
C457 N459 1.384 . S
N458 C454 1.427 . S
N458 C455 1.384 . S
N459 C451 1.427 . S
N459 C457 1.384 . S
H460 C466 0.930 . S
H461 C470 0.930 1_554 S
H462 C475 0.929 . S
H463 C473 0.929 . S
H464 C468 0.929 . S
H465 C474 0.929 1_556 S
C466 H460 0.930 . S
C466 C467 1.367 . S
C466 C474 1.378 . S
C467 C466 1.367 . S
C467 C475 1.433 . S
C468 H464 0.929 . S
C468 C470 1.378 1_554 S
C468 C472 1.350 . S
C469 C472 1.463 . S
C469 C474 1.350 . S
C469 N477 1.427 . S
C470 H461 0.930 1_556 S
C470 C468 1.378 1_556 S
C470 C471 1.367 . S
C471 C470 1.367 . S
C471 C473 1.433 . S
C472 C468 1.350 . S
C472 C469 1.463 . S
C472 N476 1.427 1_554 S
C473 H463 0.929 . S
C473 C471 1.433 . S
C473 N476 1.384 . S
C474 H465 0.929 1_554 S
C474 C466 1.378 . S
C474 C469 1.350 . S
C475 H462 0.929 . S
C475 C467 1.433 . S
C475 N477 1.384 . S
N476 C472 1.427 1_556 S
N476 C473 1.384 . S
N477 C469 1.427 . S
N477 C475 1.384 . S
H478 C484 0.930 . S
H479 C488 0.930 . S
H480 C493 0.929 . S
H481 C491 0.929 1_565 S
H482 C486 0.929 1_554 S
H483 C492 0.929 . S
C484 H478 0.930 . S
C484 C485 1.367 . S
C484 C492 1.378 . S
C485 C484 1.367 . S
C485 C493 1.433 . S
C486 H482 0.929 1_556 S
C486 C488 1.378 . S
C486 C490 1.350 1_556 S
C487 C490 1.463 . S
C487 C492 1.350 . S
C487 N495 1.427 . S
C488 H479 0.930 . S
C488 C486 1.378 . S
C488 C489 1.367 . S
C489 C488 1.367 . S
C489 C491 1.433 . S
C490 C486 1.350 1_554 S
C490 C487 1.463 . S
C490 N494 1.427 1_554 S
C491 H481 0.929 1_545 S
C491 C489 1.433 . S
C491 N494 1.384 . S
C492 H483 0.929 . S
C492 C484 1.378 . S
C492 C487 1.350 . S
C493 H480 0.929 . S
C493 C485 1.433 . S
C493 N495 1.384 . S
N494 C490 1.427 1_556 S
N494 C491 1.384 . S
N495 C487 1.427 . S
N495 C493 1.384 . S
H496 C502 0.930 . S
H497 C506 0.930 . S
H498 C511 0.929 . S
H499 C509 0.929 1_554 S
H500 C504 0.929 . S
H501 C510 0.929 . S
C502 H496 0.930 . S
C502 C503 1.367 . S
C502 C510 1.378 . S
C503 C502 1.367 . S
C503 C511 1.433 . S
C504 H500 0.929 . S
C504 C506 1.378 . S
C504 C508 1.350 1_556 S
C505 C508 1.463 . S
C505 C510 1.350 . S
C505 N513 1.427 . S
C506 H497 0.930 . S
C506 C504 1.378 . S
C506 C507 1.367 . S
C507 C506 1.367 . S
C507 C509 1.433 . S
C508 C504 1.350 1_554 S
C508 C505 1.463 . S
C508 N512 1.427 . S
C509 H499 0.929 1_556 S
C509 C507 1.433 . S
C509 N512 1.384 1_556 S
C510 H501 0.929 . S
C510 C502 1.378 . S
C510 C505 1.350 . S
C511 H498 0.929 . S
C511 C503 1.433 . S
C511 N513 1.384 . S
N512 C508 1.427 . S
N512 C509 1.384 1_554 S
N513 C505 1.427 . S
N513 C511 1.384 . S
H514 C520 0.930 . S
H515 C524 0.930 . S
H516 C529 0.929 . S
H517 C527 0.929 . S
H518 C522 0.929 . S
H519 C528 0.929 . S
C520 H514 0.930 . S
C520 C521 1.367 . S
C520 C528 1.378 . S
C521 C520 1.367 . S
C521 C529 1.433 . S
C522 H518 0.929 . S
C522 C524 1.378 . S
C522 C526 1.350 1_556 S
C523 C526 1.463 . S
C523 C528 1.350 . S
C523 N531 1.427 . S
C524 H515 0.930 . S
C524 C522 1.378 . S
C524 C525 1.367 . S
C525 C524 1.367 . S
C525 C527 1.433 . S
C526 C522 1.350 1_554 S
C526 C523 1.463 . S
C526 N530 1.427 . S
C527 H517 0.929 . S
C527 C525 1.433 . S
C527 N530 1.384 1_556 S
C528 H519 0.929 . S
C528 C520 1.378 . S
C528 C523 1.350 . S
C529 H516 0.929 . S
C529 C521 1.433 . S
C529 N531 1.384 . S
N530 C526 1.427 . S
N530 C527 1.384 1_554 S
N531 C523 1.427 . S
N531 C529 1.384 . S
H532 C538 0.930 . S
H533 C542 0.930 . S
H534 C547 0.929 . S
H535 C545 0.929 . S
H536 C540 0.929 . S
H537 C546 0.929 . S
C538 H532 0.930 . S
C538 C539 1.367 1_455 S
C538 C546 1.378 . S
C539 C538 1.367 1_655 S
C539 C547 1.433 . S
C540 H536 0.929 . S
C540 C542 1.378 . S
C540 C544 1.350 . S
C541 C544 1.463 . S
C541 C546 1.350 1_655 S
C541 N549 1.427 . S
C542 H533 0.930 . S
C542 C540 1.378 . S
C542 C543 1.367 . S
C543 C542 1.367 . S
C543 C545 1.433 1_655 S
C544 C540 1.350 . S
C544 C541 1.463 . S
C544 N548 1.427 1_655 S
C545 H535 0.929 . S
C545 C543 1.433 1_455 S
C545 N548 1.384 . S
C546 H537 0.929 . S
C546 C538 1.378 . S
C546 C541 1.350 1_455 S
C547 H534 0.929 . S
C547 C539 1.433 . S
C547 N549 1.384 . S
N548 C544 1.427 1_455 S
N548 C545 1.384 . S
N549 C541 1.427 . S
N549 C547 1.384 . S
H550 C556 0.930 . S
H551 C560 0.930 . S
H552 C565 0.929 . S
H553 C563 0.929 . S
H554 C558 0.929 1_545 S
H555 C564 0.929 . S
C556 H550 0.930 . S
C556 C557 1.367 . S
C556 C564 1.378 . S
C557 C556 1.367 . S
C557 C565 1.433 . S
C558 H554 0.929 1_565 S
C558 C560 1.378 1_565 S
C558 C562 1.350 . S
C559 C562 1.463 . S
C559 C564 1.350 . S
C559 N567 1.427 . S
C560 H551 0.930 . S
C560 C558 1.378 1_545 S
C560 C561 1.367 1_545 S
C561 C560 1.367 1_565 S
C561 C563 1.433 . S
C562 C558 1.350 . S
C562 C559 1.463 . S
C562 N566 1.427 . S
C563 H553 0.929 . S
C563 C561 1.433 . S
C563 N566 1.384 . S
C564 H555 0.929 . S
C564 C556 1.378 . S
C564 C559 1.350 . S
C565 H552 0.929 . S
C565 C557 1.433 . S
C565 N567 1.384 . S
N566 C562 1.427 . S
N566 C563 1.384 . S
N567 C559 1.427 . S
N567 C565 1.384 . S
H568 C574 0.930 . S
H569 C578 0.930 . S
H570 C583 0.929 . S
H571 C581 0.929 . S
H572 C576 0.929 . S
H573 C582 0.929 . S
C574 H568 0.930 . S
C574 C575 1.367 . S
C574 C582 1.378 . S
C575 C574 1.367 . S
C575 C583 1.433 . S
C576 H572 0.929 . S
C576 C578 1.378 . S
C576 C580 1.350 . S
C577 C580 1.463 . S
C577 C582 1.350 . S
C577 N585 1.427 . S
C578 H569 0.930 . S
C578 C576 1.378 . S
C578 C579 1.367 . S
C579 C578 1.367 . S
C579 C581 1.433 . S
C580 C576 1.350 . S
C580 C577 1.463 . S
C580 N584 1.427 . S
C581 H571 0.929 . S
C581 C579 1.433 . S
C581 N584 1.384 . S
C582 H573 0.929 . S
C582 C574 1.378 . S
C582 C577 1.350 . S
C583 H570 0.929 . S
C583 C575 1.433 . S
C583 N585 1.384 . S
N584 C580 1.427 . S
N584 C581 1.384 . S
N585 C577 1.427 . S
N585 C583 1.384 . S
H586 C592 0.930 . S
H587 C596 0.930 . S
H588 C601 0.929 . S
H589 C599 0.929 . S
H590 C594 0.929 . S
H591 C600 0.929 . S
C592 H586 0.930 . S
C592 C593 1.367 . S
C592 C600 1.378 . S
C593 C592 1.367 . S
C593 C601 1.433 . S
C594 H590 0.929 . S
C594 C596 1.378 . S
C594 C598 1.350 . S
C595 C598 1.463 . S
C595 C600 1.350 . S
C595 N603 1.427 . S
C596 H587 0.930 . S
C596 C594 1.378 . S
C596 C597 1.367 . S
C597 C596 1.367 . S
C597 C599 1.433 . S
C598 C594 1.350 . S
C598 C595 1.463 . S
C598 N602 1.427 . S
C599 H589 0.929 . S
C599 C597 1.433 . S
C599 N602 1.384 . S
C600 H591 0.929 . S
C600 C592 1.378 . S
C600 C595 1.350 . S
C601 H588 0.929 . S
C601 C593 1.433 . S
C601 N603 1.384 . S
N602 C598 1.427 . S
N602 C599 1.384 . S
N603 C595 1.427 . S
N603 C601 1.384 . S
C179 C76 1.572 . S
C183 C104 1.444 . S
C201 C122 1.426 . S
C197 C87 1.576 . S
C219 C143 1.447 . S
C215 C54 1.573 . S
C237 C167 1.444 . S
C233 C65 1.583 . S
C255 C101 1.361 . S
C251 C32 1.500 . S
C269 C43 1.490 . S
C273 C125 1.354 . S
C287 C10 1.502 . S
C291 C146 1.354 . S
C305 C21 1.500 . S
C309 C164 1.358 . S
C327 C106 0.625 . S
C323 C60 0.632 . S
C345 C124 0.626 . S
C341 C71 0.635 . S
C363 C145 0.653 . S
C359 C82 0.654 . S
C377 C49 0.666 . S
C381 C169 0.658 . S
C395 C16 0.745 . S
C399 C105 0.729 . S
C417 C123 0.734 . S
C413 C27 0.747 . S
C435 C144 0.727 . S
C431 C38 0.716 . S
C449 C5 0.739 . S
C453 C168 0.724 . S
C467 C59 1.601 . S
C471 C102 1.560 . S
C485 C70 1.597 . S
C489 C126 1.570 . S
C507 C147 1.562 . S
C503 C81 1.588 . S
C525 C165 1.554 . S
C521 C48 1.590 . S
C539 C15 1.453 . S
C543 C103 1.433 1_655 S
C561 C127 1.420 1_565 S
C557 C26 1.453 . S
C579 C148 1.435 . S
C575 C37 1.466 . S
C593 C4 1.456 . S
C597 C166 1.436 . S
