# Generated by pormake.
# Topology anh, (6,3)-cn, num edge types: 1
# Building blocks:
#     Node 0, Type 0, BuildingBlock: PAMTUU_clean_sbu_0, # of connection points: 6
#     Node 1, Type 0, BuildingBlock: PAMTUU_clean_sbu_0, # of connection points: 6
#     Node 2, Type 0, BuildingBlock: PAMTUU_clean_sbu_0, # of connection points: 6
#     Node 3, Type 1, BuildingBlock: VETTIZ_charged_linker_0, # of connection points: 3
#     Node 4, Type 1, BuildingBlock: VETTIZ_charged_linker_0, # of connection points: 3
#     Node 5, Type 1, BuildingBlock: VETTIZ_charged_linker_0, # of connection points: 3
#     Node 6, Type 1, BuildingBlock: VETTIZ_charged_linker_0, # of connection points: 3
#     Node 7, Type 1, BuildingBlock: VETTIZ_charged_linker_0, # of connection points: 3
#     Node 8, Type 1, BuildingBlock: VETTIZ_charged_linker_0, # of connection points: 3
#     Edge 9, Type (0, 1), BuildingBlock: OJICUG_clean_linker_0, # of connection points: 2
#     Edge 10, Type (0, 1), BuildingBlock: OJICUG_clean_linker_0, # of connection points: 2
#     Edge 11, Type (0, 1), BuildingBlock: OJICUG_clean_linker_0, # of connection points: 2
#     Edge 12, Type (0, 1), BuildingBlock: OJICUG_clean_linker_0, # of connection points: 2
#     Edge 13, Type (0, 1), BuildingBlock: OJICUG_clean_linker_0, # of connection points: 2
#     Edge 14, Type (0, 1), BuildingBlock: OJICUG_clean_linker_0, # of connection points: 2
#     Edge 15, Type (0, 1), BuildingBlock: OJICUG_clean_linker_0, # of connection points: 2
#     Edge 16, Type (0, 1), BuildingBlock: OJICUG_clean_linker_0, # of connection points: 2
#     Edge 17, Type (0, 1), BuildingBlock: OJICUG_clean_linker_0, # of connection points: 2
#     Edge 18, Type (0, 1), BuildingBlock: OJICUG_clean_linker_0, # of connection points: 2
#     Edge 19, Type (0, 1), BuildingBlock: OJICUG_clean_linker_0, # of connection points: 2
#     Edge 20, Type (0, 1), BuildingBlock: OJICUG_clean_linker_0, # of connection points: 2
#     Edge 21, Type (0, 1), BuildingBlock: OJICUG_clean_linker_0, # of connection points: 2
#     Edge 22, Type (0, 1), BuildingBlock: OJICUG_clean_linker_0, # of connection points: 2
#     Edge 23, Type (0, 1), BuildingBlock: OJICUG_clean_linker_0, # of connection points: 2
#     Edge 24, Type (0, 1), BuildingBlock: OJICUG_clean_linker_0, # of connection points: 2
#     Edge 25, Type (0, 1), BuildingBlock: OJICUG_clean_linker_0, # of connection points: 2
#     Edge 26, Type (0, 1), BuildingBlock: OJICUG_clean_linker_0, # of connection points: 2
# Relax obj value: 0.309
# Max RMSD: 0.201
# Mean RMSD: 0.167
data_MOF--net-anh--node1-PAMTUU_clean_sbu_0--node2-VETTIZ_charged_linker_0--edge1-OJICUG_clean_linker_0
_symmetry_space_group_name_H-M    P1
_symmetry_Int_Tables_number       1
_symmetry_cell_setting            triclinic
loop_
_symmetry_equiv_pos_as_xyz
'x, y, z'
_cell_length_a     29.033571
_cell_length_b     29.399424
_cell_length_c     52.821497
_cell_angle_alpha  93.187086
_cell_angle_beta   90.517681
_cell_angle_gamma 119.96988
loop_
_atom_site_label
_atom_site_type_symbol
_atom_site_fract_x
_atom_site_fract_y
_atom_site_fract_z
_atom_type_partial_charge
Tb0 Tb 0.14085 0.66784 0.15456 0.0
Tb1 Tb 0.20095 0.61359 0.17407 0.0
C2 C 0.1813 0.6144 0.11573 0.0
C3 C 1.02733 0.66252 0.12766 0.0
C4 C 0.93071 0.56633 0.12032 0.0
C5 C 0.97153 0.57952 0.10317 0.0
C6 C 1.0194 0.62704 0.10682 0.0
C7 C 0.98432 0.65204 0.143 0.0
C8 C 0.93675 0.60415 0.13959 0.0
C9 C 1.08181 0.69934 0.13801 0.0
O10 O 1.07138 0.58823 0.16512 0.0
O11 O 0.11628 0.54429 0.17054 0.0
O12 O 0.16065 0.62563 0.2063 0.0
O13 O 0.16644 0.69957 0.19297 0.0
O14 O 0.20865 0.54679 0.17323 0.0
O15 O 0.25682 0.61328 0.19978 0.0
O16 O 0.26718 0.69955 0.17696 0.0
O17 O 0.22754 0.73512 0.15375 0.0
O18 O 0.13978 0.61711 0.12283 0.0
O19 O 0.21748 0.62151 0.1331 0.0
C20 C 1.06961 0.54269 0.169 0.0
O21 O 1.08816 0.69551 0.16213 0.0
O22 O 0.12096 0.70124 0.12511 0.0
C23 C 0.15947 0.66911 0.21117 0.0
C24 C 0.2899 0.55689 0.18688 0.0
C25 C 0.35603 0.51598 0.17368 0.0
C26 C 0.33167 0.50622 0.19715 0.0
C27 C 0.29875 0.52656 0.20367 0.0
C28 C 0.31698 0.56987 0.16426 0.0
C29 C 0.34993 0.54957 0.1577 0.0
C30 C 0.24575 0.56632 0.19122 0.0
C31 C 0.27129 0.74153 0.16616 0.0
H32 H 0.96743 0.5522 0.08751 0.0
H33 H 1.05151 0.63383 0.09448 0.0
H34 H 0.98932 0.6785 0.15926 0.0
H35 H 0.90621 0.59559 0.15316 0.0
H36 H 0.33628 0.48109 0.20995 0.0
H37 H 0.27777 0.51606 0.22117 0.0
H38 H 0.31002 0.59287 0.15101 0.0
H39 H 0.36776 0.55739 0.13937 0.0
Tb40 Tb 0.61253 0.0738 0.48544 0.0
Tb41 Tb 0.73134 0.1366 0.50344 0.0
C42 C 0.69615 0.11408 0.44513 0.0
C43 C 0.46504 1.02041 0.48006 0.0
C44 C 0.36621 1.01231 0.49045 0.0
C45 C 0.37321 0.96838 0.49135 0.0
C46 C 0.42196 0.97245 0.48621 0.0
C47 C 0.45926 0.06512 0.47995 0.0
C48 C 0.41002 0.06101 0.48501 0.0
C49 C 0.51463 1.02138 0.47353 0.0
O50 O 0.62921 1.00732 0.49472 0.0
O51 O 0.71945 1.05344 0.50163 0.0
O52 O 0.68705 0.10034 0.53685 0.0
O53 O 0.6149 0.10364 0.52367 0.0
O54 O 0.81132 0.16088 0.49648 0.0
O55 O 0.78992 0.18876 0.53058 0.0
O56 O 0.70942 0.20088 0.50754 0.0
O57 O 0.63003 0.15975 0.48502 0.0
O58 O 0.654 0.0722 0.45192 0.0
O59 O 0.72691 0.15045 0.46275 0.0
C60 C 0.67444 1.00661 0.4995 0.0
O61 O 0.54904 0.05977 0.46062 0.0
O62 O 0.53734 1.01027 0.49167 0.0
C63 C 0.64246 0.09924 0.54188 0.0
C64 C 0.85772 0.25261 0.50782 0.0
C65 C 0.88183 0.35354 0.49481 0.0
C66 C 0.88751 0.34454 0.52017 0.0
C67 C 0.87535 0.29427 0.52665 0.0
C68 C 0.85702 0.2633 0.48224 0.0
C69 C 0.8688 0.31317 0.47585 0.0
C70 C 0.82771 0.19764 0.51502 0.0
C71 C 0.66934 0.20424 0.497 0.0
H72 H 0.34025 0.92989 0.49477 0.0
H73 H 0.42562 0.93753 0.4864 0.0
H74 H 0.49228 0.10279 0.47549 0.0
H75 H 0.40589 0.09553 0.48415 0.0
H76 H 0.89796 0.37531 0.53509 0.0
H77 H 0.87577 0.28699 0.54651 0.0
H78 H 0.84357 0.23233 0.46718 0.0
H79 H 0.86542 0.31957 0.45607 0.0
Tb80 Tb 0.66032 0.52049 0.81894 0.0
Tb81 Tb 0.72202 0.64191 0.83591 0.0
C82 C 0.69718 0.60121 0.77693 0.0
C83 C 0.56573 0.37433 0.81579 0.0
C84 C 0.47707 0.27556 0.82422 0.0
C85 C 0.52923 0.28437 0.82714 0.0
C86 C 0.5729 0.33311 0.82295 0.0
C87 C 0.5141 0.36711 0.81437 0.0
C88 C 0.47005 0.31801 0.81855 0.0
C89 C 0.61271 0.42258 0.80837 0.0
O90 O 0.74644 0.53835 0.82514 0.0
O91 O 0.79156 0.62717 0.83561 0.0
O92 O 0.72103 0.6018 0.86963 0.0
O93 O 0.64427 0.5264 0.85804 0.0
O94 O 0.77964 0.71981 0.82963 0.0
O95 O 0.73145 0.70202 0.86247 0.0
O96 O 0.636 0.62145 0.83981 0.0
O97 O 0.59114 0.53713 0.82183 0.0
O98 O 0.6884 0.55536 0.78334 0.0
O99 O 0.70526 0.63842 0.79449 0.0
C100 C 0.79268 0.5825 0.83154 0.0
O101 O 0.60506 0.45514 0.79556 0.0
O102 O 0.65114 0.4469 0.82562 0.0
C103 C 0.6805 0.55696 0.87521 0.0
C104 C 0.7389 0.7708 0.83939 0.0
C105 C 0.66531 0.79859 0.8217 0.0
C106 C 0.67404 0.79858 0.84786 0.0
C107 C 0.7107 0.7848 0.85667 0.0
C108 C 0.73416 0.77662 0.81341 0.0
C109 C 0.69756 0.79018 0.80467 0.0
C110 C 0.76138 0.73835 0.84749 0.0
C111 C 0.58964 0.57911 0.8322 0.0
H112 H 0.53655 0.25266 0.83092 0.0
H113 H 0.61238 0.33787 0.82417 0.0
H114 H 0.5076 0.39865 0.80916 0.0
H115 H 0.4305 0.31269 0.81633 0.0
H116 H 0.64994 0.80549 0.86135 0.0
H117 H 0.71364 0.78072 0.87679 0.0
H118 H 0.7555 0.76665 0.79952 0.0
H119 H 0.69249 0.79142 0.78442 0.0
C120 C 0.81304 0.29044 0.17598 0.0
C121 C 0.86152 0.33283 0.18985 0.0
C122 C 0.86328 0.32525 0.21589 0.0
C123 C 0.7764 0.24135 0.21444 0.0
C124 C 0.77105 0.24458 0.1887 0.0
C125 C 0.71677 0.19353 0.17891 0.0
H126 H 0.4924 0.94952 0.22052 0.0
C127 C 0.72887 0.19156 0.22347 0.0
C128 C 0.69169 0.16067 0.20283 0.0
H129 H 0.49985 0.98727 0.14276 0.0
H130 H 0.58553 0.07137 0.1533 0.0
H131 H 0.60901 0.98179 0.23009 0.0
H132 H 0.51956 0.06036 0.24107 0.0
H133 H 0.56364 0.08299 0.26755 0.0
H134 H 0.51662 1.01339 0.26216 0.0
H135 H 0.56425 0.96871 0.25541 0.0
H136 H 0.63388 1.01785 0.25928 0.0
C137 C 0.72821 0.16084 0.15899 0.0
C138 C 0.67884 0.21 0.16761 0.0
C139 C 0.72912 0.16616 0.31959 0.0
C140 C 0.69351 0.12623 0.33495 0.0
C141 C 0.64681 0.08427 0.32291 0.0
C142 C 0.6364 0.08082 0.29673 0.0
C143 C 0.67236 0.12003 0.28146 0.0
C144 C 0.71765 0.16202 0.293 0.0
C145 C 0.75103 0.19987 0.27366 0.0
C146 C 0.71819 0.174 0.2487 0.0
C147 C 0.67215 0.12686 0.25343 0.0
C148 C 0.80526 0.20135 0.27349 0.0
C149 C 0.75463 0.25344 0.28102 0.0
C150 C 0.51146 0.9742 0.20508 0.0
C151 C 0.48628 0.9576 0.1805 0.0
C152 C 0.5156 0.99582 0.16216 0.0
C153 C 0.56617 1.04534 0.16824 0.0
C154 C 0.59023 0.06026 0.19336 0.0
C155 C 0.56045 1.02333 0.21079 0.0
C156 C 0.58483 1.04198 0.23686 0.0
C157 C 0.63494 0.09445 0.23327 0.0
C158 C 0.64181 0.10887 0.20754 0.0
C159 C 0.59847 1.00057 0.24615 0.0
C160 C 0.54427 1.0498 0.25294 0.0
H161 H 0.82969 0.28205 0.24768 0.0
H162 H 0.80832 0.29242 0.1558 0.0
H163 H 0.67081 0.23385 0.18206 0.0
H164 H 0.64032 0.1748 0.1612 0.0
H165 H 0.69653 0.23402 0.15112 0.0
H166 H 0.75587 0.14919 0.16721 0.0
H167 H 0.74678 0.18391 0.14233 0.0
H168 H 0.69081 0.12449 0.15239 0.0
H169 H 0.76548 0.19928 0.32789 0.0
H170 H 0.61744 1.05356 0.33384 0.0
H171 H 0.60028 1.04694 0.28957 0.0
H172 H 0.80111 0.16347 0.27891 0.0
H173 H 0.83494 0.23295 0.28705 0.0
H174 H 0.82184 0.20636 0.25439 0.0
H175 H 0.71721 0.24758 0.28945 0.0
H176 H 0.7593 0.2767 0.26452 0.0
H177 H 0.78769 0.27742 0.29522 0.0
H178 H 0.89725 0.35411 0.22768 0.0
C179 C 0.82272 0.28193 0.22778 0.0
C180 C 0.67153 0.75079 0.50653 0.0
C181 C 0.67635 0.79807 0.52085 0.0
C182 C 0.68275 0.79718 0.5473 0.0
C183 C 0.6799 0.71063 0.54529 0.0
C184 C 0.67392 0.70764 0.51919 0.0
C185 C 0.67134 0.65417 0.50903 0.0
H186 H 0.69498 0.43072 0.55041 0.0
C187 C 0.68202 0.66275 0.55414 0.0
C188 C 0.67745 0.62725 0.53307 0.0
H189 H 0.64965 0.43201 0.47304 0.0
H190 H 0.65313 0.51799 0.48336 0.0
H191 H 0.78003 0.55021 0.56015 0.0
H192 H 0.61346 0.45455 0.57067 0.0
H193 H 0.63481 0.50003 0.59683 0.0
H194 H 0.66236 0.45713 0.59251 0.0
H195 H 0.75362 0.50592 0.58499 0.0
H196 H 0.77056 0.57401 0.58961 0.0
C197 C 0.71705 0.6664 0.49127 0.0
C198 C 0.61748 0.61779 0.49507 0.0
C199 C 0.69462 0.65164 0.65126 0.0
C200 C 0.70011 0.61593 0.6663 0.0
C201 C 0.7085 0.57741 0.65356 0.0
C202 C 0.70801 0.57195 0.62705 0.0
C203 C 0.69895 0.60519 0.61211 0.0
C204 C 0.69431 0.64542 0.62427 0.0
C205 C 0.68968 0.67949 0.60508 0.0
C206 C 0.68826 0.65079 0.57952 0.0
C207 C 0.69323 0.60678 0.58388 0.0
C208 C 0.74038 0.73478 0.60874 0.0
C209 C 0.63666 0.67899 0.60922 0.0
C210 C 0.68648 0.44851 0.53498 0.0
C211 C 0.67301 0.42125 0.51058 0.0
C212 C 0.6607 0.44922 0.49231 0.0
C213 C 0.66293 0.5001 0.49827 0.0
C214 C 0.67665 0.5261 0.52326 0.0
C215 C 0.68687 0.49756 0.54065 0.0
C216 C 0.69499 0.52254 0.56679 0.0
C217 C 0.6895 0.57093 0.56339 0.0
C218 C 0.68007 0.57758 0.53756 0.0
C219 C 0.75249 0.53875 0.57612 0.0
C220 C 0.64963 0.48176 0.58272 0.0
H221 H 0.688 0.76023 0.57932 0.0
H222 H 0.66686 0.74779 0.48606 0.0
H223 H 0.58446 0.60914 0.50796 0.0
H224 H 0.61455 0.57993 0.4883 0.0
H225 H 0.61231 0.63661 0.47843 0.0
H226 H 0.75599 0.69292 0.50141 0.0
H227 H 0.71374 0.68609 0.47455 0.0
H228 H 0.71636 0.6296 0.48445 0.0
H229 H 0.68934 0.68269 0.66018 0.0
H230 H 0.71509 0.55057 0.66421 0.0
H231 H 0.71404 0.54101 0.6194 0.0
H232 H 0.77404 0.73321 0.61807 0.0
H233 H 0.73294 0.76253 0.62071 0.0
H234 H 0.75601 0.75193 0.59044 0.0
H235 H 0.60448 0.63886 0.61318 0.0
H236 H 0.62181 0.68906 0.59233 0.0
H237 H 0.64064 0.70626 0.62561 0.0
H238 H 0.68649 0.82981 0.55951 0.0
C239 C 0.68398 0.75549 0.55909 0.0
C240 C 0.33389 0.57763 0.84261 0.0
C241 C 0.3803 0.5814 0.85643 0.0
C242 C 0.37814 0.5865 0.88304 0.0
C243 C 0.29149 0.58459 0.88214 0.0
C244 C 0.29001 0.57985 0.85593 0.0
C245 C 0.23717 0.57817 0.84631 0.0
H246 H 1.00994 0.60147 0.88819 0.0
C247 C 0.24288 0.58662 0.89162 0.0
C248 C 0.20893 0.58337 0.87082 0.0
H249 H 1.02281 0.5625 0.81001 0.0
H250 H 0.1079 0.56448 0.82105 0.0
H251 H 1.03132 0.51758 0.90639 0.0
H252 H 0.13 0.68373 0.90187 0.0
H253 H 0.1486 0.6709 0.93109 0.0
H254 H 1.08065 0.65511 0.92516 0.0
H255 H 1.02988 0.56395 0.92937 0.0
H256 H 1.07335 0.53723 0.93348 0.0
C257 C 0.201 0.5255 0.83127 0.0
C258 C 0.25117 0.62431 0.82978 0.0
C259 C 0.2259 0.59674 0.98895 0.0
C260 C 0.18866 0.60114 0.00464 0.0
C261 C 0.14884 0.60744 0.99251 0.0
C262 C 0.14427 0.60685 0.96602 0.0
C263 C 0.1798 0.59991 0.9505 0.0
C264 C 0.22055 0.59623 0.96206 0.0
C265 C 0.25636 0.59241 0.94244 0.0
C266 C 0.22882 0.59152 0.91723 0.0
C267 C 0.18364 0.59571 0.92215 0.0
C268 C 0.25577 0.53993 0.9453 0.0
C269 C 0.31204 0.64262 0.94669 0.0
C270 C 1.0303 0.59397 0.87287 0.0
C271 C 1.00695 0.58281 0.84795 0.0
C272 C 1.03739 0.5717 0.82961 0.0
C273 C 1.08753 0.57301 0.83597 0.0
C274 C 0.10956 0.5843 0.8614 0.0
C275 C 1.0786 0.59329 0.87892 0.0
C276 C 0.10014 0.59883 0.90534 0.0
C277 C 0.14946 0.59356 0.90182 0.0
C278 C 0.15898 0.58612 0.87581 0.0
C279 C 1.05667 0.55252 0.9196 0.0
C280 C 0.11535 0.65474 0.9167 0.0
H281 H 0.33927 0.59086 0.91572 0.0
H282 H 0.33219 0.57403 0.82209 0.0
H283 H 0.2776 0.66234 0.84072 0.0
H284 H 0.21457 0.62427 0.82341 0.0
H285 H 0.27211 0.62161 0.81275 0.0
H286 H 0.19121 0.49221 0.84329 0.0
H287 H 0.22105 0.52098 0.81428 0.0
H288 H 0.16321 0.52302 0.82492 0.0
H289 H 0.2578 0.59276 -0.00271 0.0
H290 H 0.12071 0.61315 0.0036 0.0
H291 H 0.11253 0.61164 0.95878 0.0
H292 H 0.21509 0.50802 0.94927 0.0
H293 H 0.28296 0.54374 0.96124 0.0
H294 H 0.26629 0.52532 0.92786 0.0
H295 H 0.30956 0.67581 0.95646 0.0
H296 H 0.33091 0.65814 0.92863 0.0
H297 H 0.33922 0.63533 0.95852 0.0
H298 H 0.41032 0.58932 0.89484 0.0
C299 C 0.33566 0.58763 0.89547 0.0
C300 C 0.93979 0.59332 0.46339 0.0
C301 C 0.91421 0.54149 0.45227 0.0
C302 C 0.90698 0.53321 0.42564 0.0
C303 C 0.95893 0.62685 0.42156 0.0
C304 C 0.9613 0.63546 0.44763 0.0
C305 C 0.99177 0.69328 0.45589 0.0
H306 H 0.18143 0.93345 0.42882 0.0
C307 C 0.99216 0.6777 0.41064 0.0
C308 C 1.01013 0.71725 0.4305 0.0
H309 H 0.10647 0.885 0.50048 0.0
H310 H 1.03929 0.80233 0.47966 0.0
H311 H 0.18349 0.83932 0.4138 0.0
H312 H 1.06558 0.87973 0.39335 0.0
H313 H 1.07478 0.84879 0.366 0.0
H314 H 0.13013 0.90908 0.38013 0.0
H315 H 0.19419 0.88488 0.39023 0.0
H316 H 0.16417 0.8153 0.38223 0.0
C317 C 1.039 0.70333 0.47374 0.0
C318 C 0.95291 0.70884 0.46821 0.0
C319 C 1.05724 0.6779 0.32163 0.0
C320 C 0.09569 0.71804 0.30767 0.0
C321 C 0.11881 0.77072 0.31762 0.0
C322 C 0.1051 0.78302 0.34131 0.0
C323 C 1.06858 0.74224 0.35557 0.0
C324 C 1.04447 0.69084 0.34546 0.0
C325 C 1.00692 0.65266 0.36341 0.0
C326 C 1.01331 0.68978 0.38619 0.0
C327 C 1.05 0.74201 0.38153 0.0
C328 C 1.0278 0.61494 0.36938 0.0
C329 C 0.94978 0.62472 0.35115 0.0
C330 C 0.14958 0.90643 0.44011 0.0
C331 C 0.15063 0.91566 0.46662 0.0
C332 C 0.1079 0.87847 0.4802 0.0
C333 C 1.0691 0.83032 0.46813 0.0
C334 C 1.07327 0.8192 0.44231 0.0
C335 C 0.11107 0.85814 0.42846 0.0
C336 C 0.1105 0.83944 0.40136 0.0
C337 C 1.06683 0.78237 0.40132 0.0
C338 C 1.04588 0.77037 0.4255 0.0
C339 C 0.16581 0.84516 0.39636 0.0
C340 C 0.09485 0.87095 0.38413 0.0
H341 H 0.92348 0.56691 0.39014 0.0
H342 H 0.9445 0.60072 0.48383 0.0
H343 H 0.91106 0.68161 0.46129 0.0
H344 H 0.96113 0.74824 0.46323 0.0
H345 H 0.95427 0.70797 0.48919 0.0
H346 H 1.06085 0.68457 0.46518 0.0
H347 H 1.02477 0.68656 0.49232 0.0
H348 H 1.06857 0.7453 0.47749 0.0
H349 H 1.03777 0.63717 0.31426 0.0
H350 H 0.14874 0.8025 0.3074 0.0
H351 H 0.12489 0.82373 0.348 0.0
H352 H 1.07108 0.6377 0.3747 0.0
H353 H 1.02209 0.58797 0.35255 0.0
H354 H 1.00859 0.59055 0.38529 0.0
H355 H 0.94576 0.64762 0.33606 0.0
H356 H 0.91978 0.62073 0.36502 0.0
H357 H 0.93858 0.58516 0.34234 0.0
H358 H 0.8872 0.49375 0.41655 0.0
C359 C 0.92876 0.57566 0.41027 0.0
C360 C 0.48038 0.85377 0.78261 0.0
C361 C 0.51003 0.83216 0.77191 0.0
C362 C 0.51556 0.83134 0.74543 0.0
C363 C 0.47169 0.88204 0.74151 0.0
C364 C 0.46129 0.87831 0.767 0.0
C365 C 0.43361 0.90807 0.77534 0.0
H366 H 0.39129 0.10729 0.75476 0.0
C367 C 0.45679 0.9188 0.73155 0.0
C368 C 0.43322 0.93343 0.75105 0.0
H369 H 0.35158 1.01582 0.82075 0.0
H370 H 0.37118 0.95373 0.79835 0.0
H371 H 0.49012 0.11278 0.74634 0.0
H372 H 0.33828 1.00179 0.71056 0.0
H373 H 0.38556 1.02327 0.68686 0.0
H374 H 0.37415 0.07045 0.70486 0.0
H375 H 0.46363 0.12879 0.71966 0.0
H376 H 0.50427 0.09856 0.71579 0.0
C377 C 0.4682 0.9494 0.79701 0.0
C378 C 0.37665 0.86798 0.78286 0.0
C379 C 0.53476 0.99963 0.64894 0.0
C380 C 0.53866 1.0431 0.6372 0.0
C381 C 0.51314 0.06929 0.64793 0.0
C382 C 0.48463 1.05274 0.66999 0.0
C383 C 0.48218 1.01004 0.68183 0.0
C384 C 0.5067 0.98406 0.67121 0.0
C385 C 0.501 0.94033 0.68673 0.0
C386 C 0.47051 0.94568 0.7089 0.0
C387 C 0.45905 0.98603 0.70571 0.0
C388 C 0.55757 0.95123 0.6948 0.0
C389 C 0.46678 0.88763 0.67079 0.0
C390 C 0.38441 0.07284 0.76424 0.0
C391 C 0.37035 0.06703 0.78978 0.0
C392 C 0.36317 1.02181 0.80125 0.0
C393 C 0.37497 0.98607 0.7883 0.0
C394 C 0.39499 0.9962 0.76385 0.0
C395 C 0.39694 1.03755 0.75181 0.0
C396 C 0.42087 1.04381 0.72625 0.0
C397 C 0.43314 0.99939 0.72489 0.0
C398 C 0.41886 0.97222 0.74715 0.0
C399 C 0.47216 0.09878 0.72676 0.0
C400 C 0.37784 1.03477 0.70592 0.0
H401 H 0.50361 0.85597 0.71036 0.0
H402 H 0.47465 0.8539 0.80284 0.0
H403 H 0.36183 0.82884 0.77252 0.0
H404 H 0.34729 0.87983 0.77773 0.0
H405 H 0.37539 0.86216 0.8035 0.0
H406 H 0.51067 0.97093 0.79194 0.0
H407 H 0.46573 0.93025 0.81489 0.0
H408 H 0.45709 0.9797 0.80104 0.0
H409 H 0.55308 0.97804 0.64102 0.0
H410 H 0.5158 0.10318 0.63946 0.0
H411 H 0.46645 0.07454 0.67723 0.0
H412 H 0.58951 0.99108 0.69035 0.0
H413 H 0.56686 0.92255 0.68499 0.0
H414 H 0.5625 0.95035 0.71555 0.0
H415 H 0.43293 0.88753 0.66068 0.0
H416 H 0.44843 0.85342 0.68256 0.0
H417 H 0.49078 0.88119 0.65628 0.0
H418 H 0.5381 0.8149 0.73665 0.0
C419 C 0.49626 0.85592 0.73018 0.0
C420 C 0.69307 0.35105 0.11371 0.0
C421 C 0.74069 0.36577 0.10132 0.0
C422 C 0.73767 0.34964 0.07544 0.0
C423 C 0.6473 0.33186 0.07279 0.0
C424 C 0.64662 0.33584 0.09894 0.0
C425 C 0.59745 0.33602 0.10778 0.0
H426 H 0.43923 0.4329 0.08979 0.0
C427 C 0.60436 0.33889 0.06228 0.0
C428 C 0.57338 0.33908 0.08257 0.0
H429 H 0.44917 0.35522 0.15495 0.0
H430 H 0.49581 0.31933 0.13024 0.0
H431 H 0.55164 0.48025 0.07636 0.0
H432 H 0.41641 0.33515 0.04745 0.0
H433 H 0.45668 0.36053 0.02142 0.0
H434 H 0.42995 0.39777 0.03739 0.0
H435 H 0.50336 0.47759 0.054 0.0
H436 H 0.56124 0.47527 0.044 0.0
C437 C 0.61481 0.38577 0.12595 0.0
C438 C 0.56122 0.28374 0.12014 0.0
C439 C 0.64034 0.42904 0.97944 0.0
C440 C 0.61946 0.4577 0.96845 0.0
C441 C 0.57488 0.45735 0.97885 0.0
C442 C 0.55237 0.43015 0.00039 0.0
C443 C 0.57574 0.40446 0.01219 0.0
C444 C 0.61842 0.40342 0.00152 0.0
C445 C 0.6383 0.37451 0.01682 0.0
C446 C 0.60131 0.35991 0.03906 0.0
C447 C 0.56511 0.37791 0.03609 0.0
C448 C 0.69794 0.41273 0.02491 0.0
C449 C 0.62862 0.32489 0.00057 0.0
C450 C 0.45121 0.40789 0.09872 0.0
C451 C 0.44268 0.39838 0.12444 0.0
C452 C 0.45661 0.36395 0.13525 0.0
C453 C 0.48392 0.34374 0.1211 0.0
C454 C 0.49844 0.35967 0.09644 0.0
C455 C 0.47907 0.38819 0.0851 0.0
C456 C 0.49728 0.40038 0.05861 0.0
C457 C 0.53194 0.37537 0.0561 0.0
C458 C 0.53401 0.35337 0.07869 0.0
C459 C 0.52978 0.46133 0.0579 0.0
C460 C 0.44773 0.3725 0.04012 0.0
H461 H 0.69004 0.32285 0.04115 0.0
H462 H 0.69449 0.36057 0.1339 0.0
H463 H 0.57353 0.25391 0.11599 0.0
H464 H 0.51936 0.26499 0.11275 0.0
H465 H 0.5621 0.28997 0.14112 0.0
H466 H 0.64507 0.42159 0.11709 0.0
H467 H 0.63218 0.3828 0.14416 0.0
H468 H 0.58211 0.39268 0.13096 0.0
H469 H 0.67422 0.42816 0.97155 0.0
H470 H 0.55728 0.478 0.97021 0.0
H471 H 0.51872 0.43173 0.00752 0.0
H472 H 0.71559 0.45016 0.0153 0.0
H473 H 0.72325 0.39538 0.02004 0.0
H474 H 0.70328 0.42464 0.04552 0.0
H475 H 0.58883 0.30545 0.99052 0.0
H476 H 0.62867 0.29476 0.01217 0.0
H477 H 0.65912 0.33529 0.98604 0.0
H478 H 0.77327 0.35802 0.06553 0.0
C479 C 0.69024 0.33155 0.06112 0.0
C480 C 0.35935 0.43259 0.16725 0.0
C481 C 0.38285 0.48705 0.16453 0.0
H482 H 0.36007 0.3614 0.15654 0.0
C483 C 0.42905 0.51242 0.15073 0.0
H484 H 0.32335 0.41188 0.1776 0.0
C485 C 0.44943 0.48349 0.13856 0.0
C486 C 0.42413 0.42869 0.14003 0.0
H487 H 0.44852 0.55441 0.1487 0.0
H488 H 0.4843 0.50379 0.12741 0.0
C489 C 0.38003 0.40361 0.15515 0.0
C490 C 0.93139 0.45207 0.4952 0.0
C491 C 0.88623 0.40351 0.48783 0.0
H492 H 0.97561 0.53454 0.48961 0.0
C493 C 0.84636 0.40227 0.47204 0.0
H494 H 0.96248 0.45396 0.50747 0.0
C495 C 0.85349 0.44814 0.46205 0.0
C496 C 0.90071 0.49613 0.46762 0.0
H497 H 0.81048 0.36536 0.46664 0.0
H498 H 0.82321 0.44564 0.44898 0.0
C499 C 0.93865 0.49812 0.48511 0.0
C500 C 0.61228 0.84449 0.82055 0.0
C501 C 0.62023 0.80315 0.81176 0.0
H502 H 0.57048 0.88605 0.81468 0.0
C503 C 0.58602 0.76678 0.79241 0.0
H504 H 0.63801 0.87277 0.83556 0.0
C505 C 0.54704 0.7738 0.78073 0.0
C506 C 0.54171 0.81748 0.78811 0.0
H507 H 0.5905 0.73369 0.7858 0.0
H508 H 0.52263 0.74636 0.76516 0.0
C509 C 0.57335 0.85173 0.80874 0.0
C510 C 0.8863 0.46807 0.11098 0.0
C511 C 0.88275 0.51296 0.11852 0.0
H512 H 0.84386 0.38517 0.10024 0.0
C513 C 0.83279 0.50657 0.12403 0.0
H514 H 0.92444 0.47131 0.10736 0.0
C515 C 0.78725 0.45726 0.12075 0.0
C516 C 0.79022 0.41294 0.11157 0.0
H517 H 0.82826 0.54007 0.12961 0.0
H518 H 0.74922 0.45488 0.12357 0.0
C519 C 0.84039 0.41856 0.10735 0.0
C520 C 0.29259 1.02423 0.47319 0.0
C521 C 0.31149 1.00416 0.49161 0.0
H522 H 0.22478 1.01388 0.45179 0.0
C523 C 0.27471 0.9668 0.50727 0.0
H524 H 0.31977 1.05385 0.46111 0.0
C525 C 0.22026 0.94248 0.50133 0.0
C526 C 0.20168 0.95591 0.47989 0.0
H527 H 0.28813 0.95207 0.52233 0.0
H528 H 0.19392 0.90895 0.5117 0.0
C529 C 0.23794 1.00076 0.46765 0.0
C530 C 0.39368 0.20311 0.80235 0.0
C531 C 0.4318 0.22048 0.82255 0.0
H532 H 0.34065 0.13842 0.77674 0.0
C533 C 0.43378 0.18261 0.83694 0.0
H534 H 0.39012 0.23092 0.79106 0.0
C535 C 0.40662 0.12962 0.8282 0.0
C536 C 0.37627 0.11371 0.80519 0.0
H537 H 0.46116 0.19458 0.85327 0.0
H538 H 0.41512 0.10283 0.83776 0.0
C539 C 0.36555 0.14991 0.79395 0.0
C540 C 0.72028 0.95051 0.51278 0.0
C541 C 0.67493 0.95214 0.50304 0.0
H542 H 0.75686 0.90605 0.52547 0.0
C543 C 0.63049 0.89994 0.49737 0.0
H544 H 0.75613 0.9875 0.51794 0.0
C545 C 0.63141 0.85134 0.50121 0.0
C546 C 0.67684 0.84996 0.51121 0.0
H547 H 0.59376 0.89622 0.49002 0.0
H548 H 0.59505 0.81424 0.49705 0.0
C549 C 0.72087 0.90217 0.517 0.0
C550 C 0.85854 0.54392 0.82282 0.0
C551 C 0.8477 0.58225 0.83492 0.0
H552 H 0.91316 0.514 0.81607 0.0
C553 C 0.89156 0.62096 0.85075 0.0
H554 H 0.82782 0.51282 0.81038 0.0
C555 C 0.94102 0.62079 0.85462 0.0
C556 C 0.95233 0.58299 0.84237 0.0
H557 H 0.88746 0.65173 0.86084 0.0
H558 H 0.97124 0.65152 0.8674 0.0
C559 C 0.90891 0.54475 0.82607 0.0
C560 C 0.36855 0.80759 0.18661 0.0
C561 C 0.32644 0.79711 0.16882 0.0
H562 H 0.44679 0.86065 0.20412 0.0
C563 C 0.33928 0.84144 0.15424 0.0
H564 H 0.36313 0.77677 0.19862 0.0
C565 C 0.38962 0.8913 0.15719 0.0
C566 C 0.43133 0.90195 0.17542 0.0
H567 H 0.31011 0.83774 0.14014 0.0
H568 H 0.3952 0.92229 0.14527 0.0
C569 C 0.41807 0.85746 0.18991 0.0
C570 C 0.70588 0.3032 0.5163 0.0
C571 C 0.66945 0.2596 0.4995 0.0
H572 H 0.73601 0.38282 0.53291 0.0
C573 C 0.63458 0.27172 0.48559 0.0
H574 H 0.7344 0.29874 0.52768 0.0
C575 C 0.63624 0.32244 0.48833 0.0
C576 C 0.67212 0.36561 0.50565 0.0
H577 H 0.60541 0.24164 0.4722 0.0
H578 H 0.60795 0.32721 0.47696 0.0
C579 C 0.70675 0.35312 0.51942 0.0
C580 C 0.48277 0.53795 0.82781 0.0
C581 C 0.5349 0.57961 0.83619 0.0
H582 H 0.39634 0.50502 0.82621 0.0
C583 C 0.53349 0.62274 0.84926 0.0
H584 H 0.47932 0.5032 0.81777 0.0
C585 C 0.48496 0.62372 0.85417 0.0
C586 C 0.43276 0.58231 0.84602 0.0
H587 H 0.57069 0.65637 0.85645 0.0
H588 H 0.48854 0.65766 0.86512 0.0
C589 C 0.43387 0.53924 0.83251 0.0
C590 C 1.0138 0.44182 0.17987 0.0
C591 C 1.01473 0.48818 0.17225 0.0
H592 H 0.96979 0.36101 0.19067 0.0
C593 C 0.96198 0.48002 0.16836 0.0
H594 H 1.0514 0.44351 0.18348 0.0
C595 C 0.91323 0.43032 0.17204 0.0
C596 C 0.91271 0.38418 0.18001 0.0
H597 H 0.958 0.51273 0.16269 0.0
H598 H 0.87551 0.42892 0.16944 0.0
C599 C 0.96547 0.39279 0.18385 0.0
C600 C 0.23477 0.62613 0.0757 0.0
C601 C 0.18574 0.60468 0.08776 0.0
H602 H 0.27476 0.64253 0.04021 0.0
C603 C 0.1389 0.57792 0.07223 0.0
H604 H 0.27174 0.64731 0.08695 0.0
C605 C 0.14056 0.57461 0.0457 0.0
C606 C 0.18915 0.59889 0.03331 0.0
H607 H 0.10032 0.56029 0.08063 0.0
H608 H 0.1031 0.55376 0.03482 0.0
C609 C 0.23646 0.62339 0.04881 0.0
C610 C 0.68669 0.0751 0.40066 0.0
C611 C 0.70494 0.12034 0.41724 0.0
H612 H 0.6715 1.04175 0.36247 0.0
C613 C 0.72548 0.16931 0.40646 0.0
H614 H 0.67123 1.03678 0.40814 0.0
C615 C 0.72437 0.17217 0.37976 0.0
C616 C 0.70312 0.12617 0.36322 0.0
H617 H 0.73968 0.20501 0.41863 0.0
H618 H 0.73774 0.21005 0.37217 0.0
C619 C 0.68643 0.07801 0.37427 0.0
C620 C 0.72016 0.65769 0.73831 0.0
C621 C 0.69516 0.60825 0.74892 0.0
H622 H 0.74184 0.69954 0.70399 0.0
C623 C 0.66821 0.56309 0.73211 0.0
H624 H 0.74101 0.69345 0.75057 0.0
C625 C 0.66796 0.56658 0.7058 0.0
C626 C 0.69536 0.61536 0.69486 0.0
H627 H 0.64729 0.52428 0.73927 0.0
H628 H 0.64676 0.53033 0.69389 0.0
C629 C 0.72041 0.66119 0.71156 0.0
C630 C 0.64152 0.07444 0.58684 0.0
C631 C 0.61964 0.08901 0.56722 0.0
H632 H 0.6333 1.04888 0.62463 0.0
C633 C 0.57247 0.09033 0.57124 0.0
H634 H 0.67774 0.07299 0.58428 0.0
C635 C 0.54683 0.07597 0.59397 0.0
C636 C 0.56779 0.06027 0.61347 0.0
H637 H 0.55434 0.10132 0.55656 0.0
H638 H 0.50964 0.07579 0.59594 0.0
C639 C 0.61577 0.06016 0.6098 0.0
C640 C 0.67104 0.56425 0.92188 0.0
C641 C 0.67574 0.53704 0.90037 0.0
H642 H 0.64863 0.55967 0.96067 0.0
C643 C 0.66675 0.48577 0.90202 0.0
H644 H 0.67711 0.60356 0.92078 0.0
C645 C 0.65098 0.46096 0.9246 0.0
C646 C 0.6429 0.48669 0.94574 0.0
H647 H 0.6698 0.46408 0.88546 0.0
H648 H 0.64233 0.42066 0.9251 0.0
C649 C 0.65423 0.53898 0.94445 0.0
C650 C 0.13538 0.64959 0.25643 0.0
C651 C 0.14512 0.68199 0.23626 0.0
H652 H 0.11266 0.63586 0.29496 0.0
C653 C 0.13862 0.7262 0.2398 0.0
H654 H 0.13997 0.61523 0.25428 0.0
C655 C 0.12231 0.73756 0.26285 0.0
C656 C 0.11238 0.70523 0.28305 0.0
H657 H 0.14536 0.75185 0.22461 0.0
H658 H 0.1167 0.77133 0.26468 0.0
C659 C 0.11924 0.66115 0.27963 0.0
loop_
_geom_bond_atom_site_label_1
_geom_bond_atom_site_label_2
_geom_bond_distance
_geom_bond_site_symmetry_2
_ccdc_geom_bond_type
Tb0 C9 2.764 1_455 S
Tb0 O10 2.325 1_455 S
Tb0 O13 2.303 . S
Tb0 O17 2.322 . S
Tb0 O18 2.349 . S
Tb0 O21 2.415 1_455 S
Tb0 O22 2.399 1_455 S
Tb1 O11 2.322 1_455 S
Tb1 O12 2.349 . S
Tb1 O14 2.415 . S
Tb1 O15 2.399 . S
Tb1 O16 2.325 . S
Tb1 O19 2.303 . S
Tb1 C30 2.764 . S
C2 O18 1.261 . S
C2 O19 1.257 . S
C3 C6 1.358 . S
C3 C7 1.332 . S
C3 C9 1.504 . S
C4 C5 1.373 . S
C4 C8 1.308 . S
C5 C4 1.373 . S
C5 C6 1.429 . S
C5 H32 0.932 . S
C6 C3 1.358 . S
C6 C5 1.429 . S
C6 H33 0.930 . S
C7 C3 1.332 . S
C7 C8 1.394 . S
C7 H34 0.932 . S
C8 C4 1.308 . S
C8 C7 1.394 . S
C8 H35 0.929 . S
C9 Tb0 2.764 1_655 S
C9 C3 1.504 . S
C9 O21 1.239 . S
C9 O22 1.263 . S
O10 Tb0 2.325 1_655 S
O10 C20 1.236 . S
O11 Tb1 2.322 1_655 S
O11 C20 1.257 . S
O12 Tb1 2.349 . S
O12 C23 1.261 . S
O13 Tb0 2.303 . S
O13 C23 1.257 . S
O14 Tb1 2.415 . S
O14 C30 1.239 . S
O15 Tb1 2.399 . S
O15 C30 1.263 . S
O16 Tb1 2.325 . S
O16 C31 1.236 . S
O17 Tb0 2.322 . S
O17 C31 1.257 . S
O18 Tb0 2.349 . S
O18 C2 1.261 . S
O19 Tb1 2.303 . S
O19 C2 1.257 . S
C20 O10 1.236 . S
C20 O11 1.257 . S
O21 Tb0 2.415 1_655 S
O21 C9 1.239 . S
O22 Tb0 2.399 1_655 S
O22 C9 1.263 . S
C23 O12 1.261 . S
C23 O13 1.257 . S
C24 C27 1.358 . S
C24 C28 1.332 . S
C24 C30 1.504 . S
C25 C26 1.373 . S
C25 C29 1.308 . S
C26 C25 1.373 . S
C26 C27 1.429 . S
C26 H36 0.932 . S
C27 C24 1.358 . S
C27 C26 1.429 . S
C27 H37 0.930 . S
C28 C24 1.332 . S
C28 C29 1.394 . S
C28 H38 0.932 . S
C29 C25 1.308 . S
C29 C28 1.394 . S
C29 H39 0.929 . S
C30 Tb1 2.764 . S
C30 O14 1.239 . S
C30 O15 1.263 . S
C30 C24 1.504 . S
C31 O16 1.236 . S
C31 O17 1.257 . S
H32 C5 0.932 . S
H33 C6 0.930 . S
H34 C7 0.932 . S
H35 C8 0.929 . S
H36 C26 0.932 . S
H37 C27 0.930 . S
H38 C28 0.932 . S
H39 C29 0.929 . S
Tb40 C49 2.764 . S
Tb40 O50 2.325 . S
Tb40 O53 2.303 1_565 S
Tb40 O57 2.322 1_565 S
Tb40 O58 2.349 1_565 S
Tb40 O61 2.415 . S
Tb40 O62 2.399 . S
Tb41 O51 2.322 1_545 S
Tb41 O52 2.349 . S
Tb41 O54 2.415 . S
Tb41 O55 2.399 . S
Tb41 O56 2.325 . S
Tb41 O59 2.303 . S
Tb41 C70 2.764 . S
C42 O58 1.261 . S
C42 O59 1.257 . S
C43 C46 1.358 . S
C43 C47 1.332 . S
C43 C49 1.504 . S
C44 C45 1.373 . S
C44 C48 1.308 . S
C45 C44 1.373 . S
C45 C46 1.429 . S
C45 H72 0.932 . S
C46 C43 1.358 . S
C46 C45 1.429 . S
C46 H73 0.930 . S
C47 C43 1.332 . S
C47 C48 1.394 . S
C47 H74 0.932 . S
C48 C44 1.308 . S
C48 C47 1.394 . S
C48 H75 0.929 . S
C49 Tb40 2.764 . S
C49 C43 1.504 . S
C49 O61 1.239 . S
C49 O62 1.263 . S
O50 Tb40 2.325 . S
O50 C60 1.236 . S
O51 Tb41 2.322 1_565 S
O51 C60 1.257 . S
O52 Tb41 2.349 . S
O52 C63 1.261 . S
O53 Tb40 2.303 1_545 S
O53 C63 1.257 . S
O54 Tb41 2.415 . S
O54 C70 1.239 . S
O55 Tb41 2.399 . S
O55 C70 1.263 . S
O56 Tb41 2.325 . S
O56 C71 1.236 . S
O57 Tb40 2.322 1_545 S
O57 C71 1.257 . S
O58 Tb40 2.349 1_545 S
O58 C42 1.261 . S
O59 Tb41 2.303 . S
O59 C42 1.257 . S
C60 O50 1.236 . S
C60 O51 1.257 . S
O61 Tb40 2.415 . S
O61 C49 1.239 . S
O62 Tb40 2.399 . S
O62 C49 1.263 . S
C63 O52 1.261 . S
C63 O53 1.257 . S
C64 C67 1.358 . S
C64 C68 1.332 . S
C64 C70 1.504 . S
C65 C66 1.373 . S
C65 C69 1.308 . S
C66 C65 1.373 . S
C66 C67 1.429 . S
C66 H76 0.932 . S
C67 C64 1.358 . S
C67 C66 1.429 . S
C67 H77 0.930 . S
C68 C64 1.332 . S
C68 C69 1.394 . S
C68 H78 0.932 . S
C69 C65 1.308 . S
C69 C68 1.394 . S
C69 H79 0.929 . S
C70 Tb41 2.764 . S
C70 O54 1.239 . S
C70 O55 1.263 . S
C70 C64 1.504 . S
C71 O56 1.236 . S
C71 O57 1.257 . S
H72 C45 0.932 . S
H73 C46 0.930 . S
H74 C47 0.932 . S
H75 C48 0.929 . S
H76 C66 0.932 . S
H77 C67 0.930 . S
H78 C68 0.932 . S
H79 C69 0.929 . S
Tb80 C89 2.764 . S
Tb80 O90 2.325 . S
Tb80 O93 2.303 . S
Tb80 O97 2.322 . S
Tb80 O98 2.349 . S
Tb80 O101 2.415 . S
Tb80 O102 2.399 . S
Tb81 O91 2.322 . S
Tb81 O92 2.349 . S
Tb81 O94 2.415 . S
Tb81 O95 2.399 . S
Tb81 O96 2.325 . S
Tb81 O99 2.303 . S
Tb81 C110 2.764 . S
C82 O98 1.261 . S
C82 O99 1.257 . S
C83 C86 1.358 . S
C83 C87 1.332 . S
C83 C89 1.504 . S
C84 C85 1.373 . S
C84 C88 1.308 . S
C85 C84 1.373 . S
C85 C86 1.429 . S
C85 H112 0.932 . S
C86 C83 1.358 . S
C86 C85 1.429 . S
C86 H113 0.930 . S
C87 C83 1.332 . S
C87 C88 1.394 . S
C87 H114 0.932 . S
C88 C84 1.308 . S
C88 C87 1.394 . S
C88 H115 0.929 . S
C89 Tb80 2.764 . S
C89 C83 1.504 . S
C89 O101 1.239 . S
C89 O102 1.263 . S
O90 Tb80 2.325 . S
O90 C100 1.236 . S
O91 Tb81 2.322 . S
O91 C100 1.257 . S
O92 Tb81 2.349 . S
O92 C103 1.261 . S
O93 Tb80 2.303 . S
O93 C103 1.257 . S
O94 Tb81 2.415 . S
O94 C110 1.239 . S
O95 Tb81 2.399 . S
O95 C110 1.263 . S
O96 Tb81 2.325 . S
O96 C111 1.236 . S
O97 Tb80 2.322 . S
O97 C111 1.257 . S
O98 Tb80 2.349 . S
O98 C82 1.261 . S
O99 Tb81 2.303 . S
O99 C82 1.257 . S
C100 O90 1.236 . S
C100 O91 1.257 . S
O101 Tb80 2.415 . S
O101 C89 1.239 . S
O102 Tb80 2.399 . S
O102 C89 1.263 . S
C103 O92 1.261 . S
C103 O93 1.257 . S
C104 C107 1.358 . S
C104 C108 1.332 . S
C104 C110 1.504 . S
C105 C106 1.373 . S
C105 C109 1.308 . S
C106 C105 1.373 . S
C106 C107 1.429 . S
C106 H116 0.932 . S
C107 C104 1.358 . S
C107 C106 1.429 . S
C107 H117 0.930 . S
C108 C104 1.332 . S
C108 C109 1.394 . S
C108 H118 0.932 . S
C109 C105 1.308 . S
C109 C108 1.394 . S
C109 H119 0.929 . S
C110 Tb81 2.764 . S
C110 O94 1.239 . S
C110 O95 1.263 . S
C110 C104 1.504 . S
C111 O96 1.236 . S
C111 O97 1.257 . S
H112 C85 0.932 . S
H113 C86 0.930 . S
H114 C87 0.932 . S
H115 C88 0.929 . S
H116 C106 0.932 . S
H117 C107 0.930 . S
H118 C108 0.932 . S
H119 C109 0.929 . S
C120 C121 1.391 . S
C120 C124 1.391 . S
C120 H162 0.948 . S
C121 C120 1.391 . S
C121 C122 1.391 . S
C122 C121 1.391 . S
C122 H178 0.947 . S
C122 C179 1.392 . S
C123 C124 1.391 . S
C123 C127 1.397 . S
C123 C179 1.419 . S
C124 C120 1.391 . S
C124 C123 1.391 . S
C124 C125 1.399 . S
C125 C124 1.399 . S
C125 C128 1.396 . S
C125 C137 1.453 . S
C125 C138 1.684 . S
H126 C150 0.948 . S
C127 C123 1.397 . S
C127 C128 1.394 . S
C127 C146 1.723 . S
C128 C125 1.396 . S
C128 C127 1.394 . S
C128 C158 1.723 1_545 S
H129 C152 0.947 . S
H130 C153 0.948 . S
H131 C159 0.982 . S
H132 C160 0.979 . S
H133 C160 0.980 . S
H134 C160 0.983 . S
H135 C159 0.979 . S
H136 C159 0.977 . S
C137 C125 1.453 . S
C137 H166 0.982 . S
C137 H167 0.979 . S
C137 H168 0.977 . S
C138 C125 1.684 . S
C138 H163 0.979 . S
C138 H164 0.980 . S
C138 H165 0.983 . S
C139 C140 1.391 . S
C139 C144 1.391 . S
C139 H169 0.948 . S
C140 C139 1.391 . S
C140 C141 1.391 . S
C141 C140 1.391 . S
C141 C142 1.392 1_545 S
C141 H170 0.947 1_545 S
C142 C141 1.392 1_565 S
C142 C143 1.419 1_565 S
C142 H171 0.948 . S
C143 C142 1.419 1_545 S
C143 C144 1.391 . S
C143 C147 1.397 . S
C144 C139 1.391 . S
C144 C143 1.391 . S
C144 C145 1.399 . S
C145 C144 1.399 . S
C145 C146 1.396 . S
C145 C148 1.453 . S
C145 C149 1.684 . S
C146 C127 1.723 . S
C146 C145 1.396 . S
C146 C147 1.394 . S
C147 C143 1.397 . S
C147 C146 1.394 . S
C147 C157 1.723 1_545 S
C148 C145 1.453 . S
C148 H172 0.982 . S
C148 H173 0.979 . S
C148 H174 0.977 . S
C149 C145 1.684 . S
C149 H175 0.979 . S
C149 H176 0.980 . S
C149 H177 0.983 . S
C150 H126 0.948 . S
C150 C151 1.391 . S
C150 C155 1.391 . S
C151 C150 1.391 . S
C151 C152 1.391 . S
C152 H129 0.947 . S
C152 C151 1.391 . S
C152 C153 1.392 . S
C153 H130 0.948 . S
C153 C152 1.392 . S
C153 C154 1.419 . S
C154 C153 1.419 . S
C154 C155 1.391 . S
C154 C158 1.397 . S
C155 C150 1.391 . S
C155 C154 1.391 . S
C155 C156 1.399 . S
C156 C155 1.399 . S
C156 C157 1.396 . S
C156 C159 1.453 . S
C156 C160 1.684 . S
C157 C147 1.723 1_565 S
C157 C156 1.396 . S
C157 C158 1.394 . S
C158 C128 1.723 1_565 S
C158 C154 1.397 . S
C158 C157 1.394 . S
C159 H131 0.982 . S
C159 H135 0.979 . S
C159 H136 0.977 . S
C159 C156 1.453 . S
C160 H132 0.979 . S
C160 H133 0.980 . S
C160 H134 0.983 . S
C160 C156 1.684 . S
H161 C179 0.948 . S
H162 C120 0.948 . S
H163 C138 0.979 . S
H164 C138 0.980 . S
H165 C138 0.983 . S
H166 C137 0.982 . S
H167 C137 0.979 . S
H168 C137 0.977 . S
H169 C139 0.948 . S
H170 C141 0.947 1_565 S
H171 C142 0.948 . S
H172 C148 0.982 . S
H173 C148 0.979 . S
H174 C148 0.977 . S
H175 C149 0.979 . S
H176 C149 0.980 . S
H177 C149 0.983 . S
H178 C122 0.947 . S
C179 C122 1.392 . S
C179 C123 1.419 . S
C179 H161 0.948 . S
C180 C181 1.391 . S
C180 C184 1.391 . S
C180 H222 0.948 . S
C181 C180 1.391 . S
C181 C182 1.391 . S
C182 C181 1.391 . S
C182 H238 0.947 . S
C182 C239 1.392 . S
C183 C184 1.391 . S
C183 C187 1.397 . S
C183 C239 1.419 . S
C184 C180 1.391 . S
C184 C183 1.391 . S
C184 C185 1.399 . S
C185 C184 1.399 . S
C185 C188 1.396 . S
C185 C197 1.453 . S
C185 C198 1.684 . S
H186 C210 0.948 . S
C187 C183 1.397 . S
C187 C188 1.394 . S
C187 C206 1.723 . S
C188 C185 1.396 . S
C188 C187 1.394 . S
C188 C218 1.723 . S
H189 C212 0.947 . S
H190 C213 0.948 . S
H191 C219 0.982 . S
H192 C220 0.979 . S
H193 C220 0.980 . S
H194 C220 0.983 . S
H195 C219 0.979 . S
H196 C219 0.977 . S
C197 C185 1.453 . S
C197 H226 0.982 . S
C197 H227 0.979 . S
C197 H228 0.977 . S
C198 C185 1.684 . S
C198 H223 0.979 . S
C198 H224 0.980 . S
C198 H225 0.983 . S
C199 C200 1.391 . S
C199 C204 1.391 . S
C199 H229 0.948 . S
C200 C199 1.391 . S
C200 C201 1.391 . S
C201 C200 1.391 . S
C201 C202 1.392 . S
C201 H230 0.947 . S
C202 C201 1.392 . S
C202 C203 1.419 . S
C202 H231 0.948 . S
C203 C202 1.419 . S
C203 C204 1.391 . S
C203 C207 1.397 . S
C204 C199 1.391 . S
C204 C203 1.391 . S
C204 C205 1.399 . S
C205 C204 1.399 . S
C205 C206 1.396 . S
C205 C208 1.453 . S
C205 C209 1.684 . S
C206 C187 1.723 . S
C206 C205 1.396 . S
C206 C207 1.394 . S
C207 C203 1.397 . S
C207 C206 1.394 . S
C207 C217 1.723 . S
C208 C205 1.453 . S
C208 H232 0.982 . S
C208 H233 0.979 . S
C208 H234 0.977 . S
C209 C205 1.684 . S
C209 H235 0.979 . S
C209 H236 0.980 . S
C209 H237 0.983 . S
C210 H186 0.948 . S
C210 C211 1.391 . S
C210 C215 1.391 . S
C211 C210 1.391 . S
C211 C212 1.391 . S
C212 H189 0.947 . S
C212 C211 1.391 . S
C212 C213 1.392 . S
C213 H190 0.948 . S
C213 C212 1.392 . S
C213 C214 1.419 . S
C214 C213 1.419 . S
C214 C215 1.391 . S
C214 C218 1.397 . S
C215 C210 1.391 . S
C215 C214 1.391 . S
C215 C216 1.399 . S
C216 C215 1.399 . S
C216 C217 1.396 . S
C216 C219 1.453 . S
C216 C220 1.684 . S
C217 C207 1.723 . S
C217 C216 1.396 . S
C217 C218 1.394 . S
C218 C188 1.723 . S
C218 C214 1.397 . S
C218 C217 1.394 . S
C219 H191 0.982 . S
C219 H195 0.979 . S
C219 H196 0.977 . S
C219 C216 1.453 . S
C220 H192 0.979 . S
C220 H193 0.980 . S
C220 H194 0.983 . S
C220 C216 1.684 . S
H221 C239 0.948 . S
H222 C180 0.948 . S
H223 C198 0.979 . S
H224 C198 0.980 . S
H225 C198 0.983 . S
H226 C197 0.982 . S
H227 C197 0.979 . S
H228 C197 0.977 . S
H229 C199 0.948 . S
H230 C201 0.947 . S
H231 C202 0.948 . S
H232 C208 0.982 . S
H233 C208 0.979 . S
H234 C208 0.977 . S
H235 C209 0.979 . S
H236 C209 0.980 . S
H237 C209 0.983 . S
H238 C182 0.947 . S
C239 C182 1.392 . S
C239 C183 1.419 . S
C239 H221 0.948 . S
C240 C241 1.391 . S
C240 C244 1.391 . S
C240 H282 0.948 . S
C241 C240 1.391 . S
C241 C242 1.391 . S
C242 C241 1.391 . S
C242 H298 0.947 . S
C242 C299 1.392 . S
C243 C244 1.391 . S
C243 C247 1.397 . S
C243 C299 1.419 . S
C244 C240 1.391 . S
C244 C243 1.391 . S
C244 C245 1.399 . S
C245 C244 1.399 . S
C245 C248 1.396 . S
C245 C257 1.453 . S
C245 C258 1.684 . S
H246 C270 0.948 . S
C247 C243 1.397 . S
C247 C248 1.394 . S
C247 C266 1.723 . S
C248 C245 1.396 . S
C248 C247 1.394 . S
C248 C278 1.723 . S
H249 C272 0.947 . S
H250 C273 0.948 1_455 S
H251 C279 0.982 . S
H252 C280 0.979 . S
H253 C280 0.980 . S
H254 C280 0.983 . S
H255 C279 0.979 . S
H256 C279 0.977 . S
C257 C245 1.453 . S
C257 H286 0.982 . S
C257 H287 0.979 . S
C257 H288 0.977 . S
C258 C245 1.684 . S
C258 H283 0.979 . S
C258 H284 0.980 . S
C258 H285 0.983 . S
C259 C260 1.391 1_556 S
C259 C264 1.391 . S
C259 H289 0.948 . S
C260 C259 1.391 1_554 S
C260 C261 1.391 1_554 S
C261 C260 1.391 1_556 S
C261 C262 1.392 . S
C261 H290 0.947 1_456 S
C262 C261 1.392 . S
C262 C263 1.419 . S
C262 H291 0.948 1_455 S
C263 C262 1.419 . S
C263 C264 1.391 . S
C263 C267 1.397 . S
C264 C259 1.391 . S
C264 C263 1.391 . S
C264 C265 1.399 . S
C265 C264 1.399 . S
C265 C266 1.396 . S
C265 C268 1.453 . S
C265 C269 1.684 . S
C266 C247 1.723 . S
C266 C265 1.396 . S
C266 C267 1.394 . S
C267 C263 1.397 . S
C267 C266 1.394 . S
C267 C277 1.723 . S
C268 C265 1.453 . S
C268 H292 0.982 . S
C268 H293 0.979 . S
C268 H294 0.977 . S
C269 C265 1.684 . S
C269 H295 0.979 . S
C269 H296 0.980 . S
C269 H297 0.983 . S
C270 H246 0.948 . S
C270 C271 1.391 . S
C270 C275 1.391 . S
C271 C270 1.391 . S
C271 C272 1.391 . S
C272 H249 0.947 . S
C272 C271 1.391 . S
C272 C273 1.392 . S
C273 H250 0.948 1_655 S
C273 C272 1.392 . S
C273 C274 1.419 . S
C274 C273 1.419 . S
C274 C275 1.391 . S
C274 C278 1.397 1_655 S
C275 C270 1.391 . S
C275 C274 1.391 . S
C275 C276 1.399 . S
C276 C275 1.399 . S
C276 C277 1.396 1_655 S
C276 C279 1.453 . S
C276 C280 1.684 . S
C277 C267 1.723 . S
C277 C276 1.396 1_455 S
C277 C278 1.394 . S
C278 C248 1.723 . S
C278 C274 1.397 1_455 S
C278 C277 1.394 . S
C279 H251 0.982 . S
C279 H255 0.979 . S
C279 H256 0.977 . S
C279 C276 1.453 . S
C280 H252 0.979 . S
C280 H253 0.980 . S
C280 H254 0.983 . S
C280 C276 1.684 . S
H281 C299 0.948 . S
H282 C240 0.948 . S
H283 C258 0.979 . S
H284 C258 0.980 . S
H285 C258 0.983 . S
H286 C257 0.982 . S
H287 C257 0.979 . S
H288 C257 0.977 . S
H289 C259 0.948 . S
H290 C261 0.947 1_654 S
H291 C262 0.948 1_655 S
H292 C268 0.982 . S
H293 C268 0.979 . S
H294 C268 0.977 . S
H295 C269 0.979 . S
H296 C269 0.980 . S
H297 C269 0.983 . S
H298 C242 0.947 . S
C299 C242 1.392 . S
C299 C243 1.419 . S
C299 H281 0.948 . S
C300 C301 1.391 . S
C300 C304 1.391 . S
C300 H342 0.948 . S
C301 C300 1.391 . S
C301 C302 1.391 . S
C302 C301 1.391 . S
C302 H358 0.947 . S
C302 C359 1.392 . S
C303 C304 1.391 . S
C303 C307 1.397 . S
C303 C359 1.419 . S
C304 C300 1.391 . S
C304 C303 1.391 . S
C304 C305 1.399 . S
C305 C304 1.399 . S
C305 C308 1.396 . S
C305 C317 1.453 . S
C305 C318 1.684 . S
H306 C330 0.948 . S
C307 C303 1.397 . S
C307 C308 1.394 . S
C307 C326 1.723 . S
C308 C305 1.396 . S
C308 C307 1.394 . S
C308 C338 1.723 1_655 S
H309 C332 0.947 . S
H310 C333 0.948 . S
H311 C339 0.982 . S
H312 C340 0.979 . S
H313 C340 0.980 . S
H314 C340 0.983 . S
H315 C339 0.979 . S
H316 C339 0.977 . S
C317 C305 1.453 . S
C317 H346 0.982 1_655 S
C317 H347 0.979 . S
C317 H348 0.977 1_655 S
C318 C305 1.684 . S
C318 H343 0.979 . S
C318 H344 0.980 . S
C318 H345 0.983 . S
C319 C320 1.391 1_655 S
C319 C324 1.391 . S
C319 H349 0.948 . S
C320 C319 1.391 1_455 S
C320 C321 1.391 . S
C321 C320 1.391 . S
C321 C322 1.392 . S
C321 H350 0.947 . S
C322 C321 1.392 . S
C322 C323 1.419 . S
C322 H351 0.948 . S
C323 C322 1.419 . S
C323 C324 1.391 1_455 S
C323 C327 1.397 . S
C324 C319 1.391 . S
C324 C323 1.391 1_655 S
C324 C325 1.399 . S
C325 C324 1.399 . S
C325 C326 1.396 . S
C325 C328 1.453 . S
C325 C329 1.684 . S
C326 C307 1.723 . S
C326 C325 1.396 . S
C326 C327 1.394 1_655 S
C327 C323 1.397 . S
C327 C326 1.394 1_455 S
C327 C337 1.723 . S
C328 C325 1.453 . S
C328 H352 0.982 . S
C328 H353 0.979 . S
C328 H354 0.977 . S
C329 C325 1.684 . S
C329 H355 0.979 . S
C329 H356 0.980 . S
C329 H357 0.983 . S
C330 H306 0.948 . S
C330 C331 1.391 . S
C330 C335 1.391 . S
C331 C330 1.391 . S
C331 C332 1.391 . S
C332 H309 0.947 . S
C332 C331 1.391 . S
C332 C333 1.392 . S
C333 H310 0.948 . S
C333 C332 1.392 . S
C333 C334 1.419 . S
C334 C333 1.419 . S
C334 C335 1.391 . S
C334 C338 1.397 . S
C335 C330 1.391 . S
C335 C334 1.391 . S
C335 C336 1.399 . S
C336 C335 1.399 . S
C336 C337 1.396 . S
C336 C339 1.453 . S
C336 C340 1.684 . S
C337 C327 1.723 . S
C337 C336 1.396 . S
C337 C338 1.394 . S
C338 C308 1.723 1_455 S
C338 C334 1.397 . S
C338 C337 1.394 . S
C339 H311 0.982 . S
C339 H315 0.979 . S
C339 H316 0.977 . S
C339 C336 1.453 . S
C340 H312 0.979 . S
C340 H313 0.980 . S
C340 H314 0.983 . S
C340 C336 1.684 . S
H341 C359 0.948 . S
H342 C300 0.948 . S
H343 C318 0.979 . S
H344 C318 0.980 . S
H345 C318 0.983 . S
H346 C317 0.982 1_455 S
H347 C317 0.979 . S
H348 C317 0.977 1_455 S
H349 C319 0.948 . S
H350 C321 0.947 . S
H351 C322 0.948 . S
H352 C328 0.982 . S
H353 C328 0.979 . S
H354 C328 0.977 . S
H355 C329 0.979 . S
H356 C329 0.980 . S
H357 C329 0.983 . S
H358 C302 0.947 . S
C359 C302 1.392 . S
C359 C303 1.419 . S
C359 H341 0.948 . S
C360 C361 1.391 . S
C360 C364 1.391 . S
C360 H402 0.948 . S
C361 C360 1.391 . S
C361 C362 1.391 . S
C362 C361 1.391 . S
C362 H418 0.947 . S
C362 C419 1.392 . S
C363 C364 1.391 . S
C363 C367 1.397 . S
C363 C419 1.419 . S
C364 C360 1.391 . S
C364 C363 1.391 . S
C364 C365 1.399 . S
C365 C364 1.399 . S
C365 C368 1.396 . S
C365 C377 1.445 1_565 S
C365 C378 1.684 . S
H366 C390 0.948 . S
C367 C363 1.397 . S
C367 C368 1.394 . S
C367 C386 1.723 . S
C368 C365 1.396 . S
C368 C367 1.394 . S
C368 C398 1.723 1_565 S
H369 C392 0.947 . S
H370 C393 0.948 . S
H371 C399 0.982 . S
H372 C400 0.979 . S
H373 C400 0.980 . S
H374 C400 0.983 . S
H375 C399 0.979 . S
H376 C399 0.977 . S
C377 C365 1.445 1_545 S
C377 H406 0.978 . S
C377 H407 0.965 1_545 S
C377 H408 1.004 . S
C378 C365 1.684 . S
C378 H403 0.979 . S
C378 H404 0.980 . S
C378 H405 0.983 . S
C379 C380 1.391 . S
C379 C384 1.391 . S
C379 H409 0.948 . S
C380 C379 1.391 . S
C380 C381 1.391 1_565 S
C381 C380 1.391 1_545 S
C381 C382 1.392 . S
C381 H410 0.947 . S
C382 C381 1.392 . S
C382 C383 1.419 . S
C382 H411 0.948 . S
C383 C382 1.419 . S
C383 C384 1.391 1_545 S
C383 C387 1.397 . S
C384 C379 1.391 . S
C384 C383 1.391 1_565 S
C384 C385 1.399 . S
C385 C384 1.399 . S
C385 C386 1.396 . S
C385 C388 1.453 . S
C385 C389 1.684 . S
C386 C367 1.723 . S
C386 C385 1.396 . S
C386 C387 1.394 1_565 S
C387 C383 1.397 . S
C387 C386 1.394 1_545 S
C387 C397 1.723 . S
C388 C385 1.453 . S
C388 H412 0.982 . S
C388 H413 0.979 . S
C388 H414 0.977 . S
C389 C385 1.684 . S
C389 H415 0.979 . S
C389 H416 0.980 . S
C389 H417 0.983 . S
C390 H366 0.948 . S
C390 C391 1.391 . S
C390 C395 1.391 . S
C391 C390 1.391 . S
C391 C392 1.391 . S
C392 H369 0.947 . S
C392 C391 1.391 . S
C392 C393 1.392 . S
C393 H370 0.948 . S
C393 C392 1.392 . S
C393 C394 1.419 . S
C394 C393 1.419 . S
C394 C395 1.391 . S
C394 C398 1.397 . S
C395 C390 1.391 . S
C395 C394 1.391 . S
C395 C396 1.399 . S
C396 C395 1.399 . S
C396 C397 1.396 . S
C396 C399 1.453 . S
C396 C400 1.684 . S
C397 C387 1.723 . S
C397 C396 1.396 . S
C397 C398 1.394 . S
C398 C368 1.723 1_545 S
C398 C394 1.397 . S
C398 C397 1.394 . S
C399 H371 0.982 . S
C399 H375 0.979 . S
C399 H376 0.977 . S
C399 C396 1.453 . S
C400 H372 0.979 . S
C400 H373 0.980 . S
C400 H374 0.983 . S
C400 C396 1.684 . S
H401 C419 0.948 . S
H402 C360 0.948 . S
H403 C378 0.979 . S
H404 C378 0.980 . S
H405 C378 0.983 . S
H406 C377 0.978 . S
H407 C377 0.965 1_565 S
H408 C377 1.004 . S
H409 C379 0.948 . S
H410 C381 0.947 . S
H411 C382 0.948 . S
H412 C388 0.982 . S
H413 C388 0.979 . S
H414 C388 0.977 . S
H415 C389 0.979 . S
H416 C389 0.980 . S
H417 C389 0.983 . S
H418 C362 0.947 . S
C419 C362 1.392 . S
C419 C363 1.419 . S
C419 H401 0.948 . S
C420 C421 1.391 . S
C420 C424 1.391 . S
C420 H462 0.948 . S
C421 C420 1.391 . S
C421 C422 1.391 . S
C422 C421 1.391 . S
C422 H478 0.947 . S
C422 C479 1.392 . S
C423 C424 1.391 . S
C423 C427 1.397 . S
C423 C479 1.419 . S
C424 C420 1.391 . S
C424 C423 1.391 . S
C424 C425 1.399 . S
C425 C424 1.399 . S
C425 C428 1.396 . S
C425 C437 1.453 . S
C425 C438 1.684 . S
H426 C450 0.948 . S
C427 C423 1.397 . S
C427 C428 1.394 . S
C427 C446 1.723 . S
C428 C425 1.396 . S
C428 C427 1.394 . S
C428 C458 1.723 . S
H429 C452 0.947 . S
H430 C453 0.948 . S
H431 C459 0.982 . S
H432 C460 0.979 . S
H433 C460 0.980 . S
H434 C460 0.983 . S
H435 C459 0.979 . S
H436 C459 0.977 . S
C437 C425 1.453 . S
C437 H466 0.982 . S
C437 H467 0.979 . S
C437 H468 0.977 . S
C438 C425 1.684 . S
C438 H463 0.979 . S
C438 H464 0.980 . S
C438 H465 0.983 . S
C439 C440 1.391 . S
C439 C444 1.391 1_556 S
C439 H469 0.948 . S
C440 C439 1.391 . S
C440 C441 1.391 . S
C441 C440 1.391 . S
C441 C442 1.392 1_556 S
C441 H470 0.947 . S
C442 C441 1.392 1_554 S
C442 C443 1.419 . S
C442 H471 0.948 . S
C443 C442 1.419 . S
C443 C444 1.391 . S
C443 C447 1.397 . S
C444 C439 1.391 1_554 S
C444 C443 1.391 . S
C444 C445 1.399 . S
C445 C444 1.399 . S
C445 C446 1.396 . S
C445 C448 1.453 . S
C445 C449 1.684 . S
C446 C427 1.723 . S
C446 C445 1.396 . S
C446 C447 1.394 . S
C447 C443 1.397 . S
C447 C446 1.394 . S
C447 C457 1.723 . S
C448 C445 1.453 . S
C448 H472 0.982 . S
C448 H473 0.979 . S
C448 H474 0.977 . S
C449 C445 1.684 . S
C449 H475 0.979 . S
C449 H476 0.980 . S
C449 H477 0.983 . S
C450 H426 0.948 . S
C450 C451 1.391 . S
C450 C455 1.391 . S
C451 C450 1.391 . S
C451 C452 1.391 . S
C452 H429 0.947 . S
C452 C451 1.391 . S
C452 C453 1.392 . S
C453 H430 0.948 . S
C453 C452 1.392 . S
C453 C454 1.419 . S
C454 C453 1.419 . S
C454 C455 1.391 . S
C454 C458 1.397 . S
C455 C450 1.391 . S
C455 C454 1.391 . S
C455 C456 1.399 . S
C456 C455 1.399 . S
C456 C457 1.396 . S
C456 C459 1.453 . S
C456 C460 1.684 . S
C457 C447 1.723 . S
C457 C456 1.396 . S
C457 C458 1.394 . S
C458 C428 1.723 . S
C458 C454 1.397 . S
C458 C457 1.394 . S
C459 H431 0.982 . S
C459 H435 0.979 . S
C459 H436 0.977 . S
C459 C456 1.453 . S
C460 H432 0.979 . S
C460 H433 0.980 . S
C460 H434 0.983 . S
C460 C456 1.684 . S
H461 C479 0.948 . S
H462 C420 0.948 . S
H463 C438 0.979 . S
H464 C438 0.980 . S
H465 C438 0.983 . S
H466 C437 0.982 . S
H467 C437 0.979 . S
H468 C437 0.977 . S
H469 C439 0.948 . S
H470 C441 0.947 . S
H471 C442 0.948 . S
H472 C448 0.982 . S
H473 C448 0.979 . S
H474 C448 0.977 . S
H475 C449 0.979 . S
H476 C449 0.980 . S
H477 C449 0.983 . S
H478 C422 0.947 . S
C479 C422 1.392 . S
C479 C423 1.419 . S
C479 H461 0.948 . S
C480 C481 1.387 . S
C480 H484 0.950 . S
C480 C489 1.390 . S
C481 C480 1.387 . S
C481 C483 1.387 . S
H482 C489 0.950 . S
C483 C481 1.387 . S
C483 C485 1.390 . S
C483 H487 0.950 . S
H484 C480 0.950 . S
C485 C483 1.390 . S
C485 C486 1.387 . S
C485 H488 0.950 . S
C486 C485 1.387 . S
C486 C489 1.387 . S
H487 C483 0.950 . S
H488 C485 0.950 . S
C489 C480 1.390 . S
C489 H482 0.950 . S
C489 C486 1.387 . S
C490 C491 1.387 . S
C490 H494 0.950 . S
C490 C499 1.390 . S
C491 C490 1.387 . S
C491 C493 1.387 . S
H492 C499 0.950 . S
C493 C491 1.387 . S
C493 C495 1.390 . S
C493 H497 0.950 . S
H494 C490 0.950 . S
C495 C493 1.390 . S
C495 C496 1.387 . S
C495 H498 0.950 . S
C496 C495 1.387 . S
C496 C499 1.387 . S
H497 C493 0.950 . S
H498 C495 0.950 . S
C499 C490 1.390 . S
C499 H492 0.950 . S
C499 C496 1.387 . S
C500 C501 1.387 . S
C500 H504 0.950 . S
C500 C509 1.390 . S
C501 C500 1.387 . S
C501 C503 1.387 . S
H502 C509 0.950 . S
C503 C501 1.387 . S
C503 C505 1.390 . S
C503 H507 0.950 . S
H504 C500 0.950 . S
C505 C503 1.390 . S
C505 C506 1.387 . S
C505 H508 0.950 . S
C506 C505 1.387 . S
C506 C509 1.387 . S
H507 C503 0.950 . S
H508 C505 0.950 . S
C509 C500 1.390 . S
C509 H502 0.950 . S
C509 C506 1.387 . S
C510 C511 1.387 . S
C510 H514 0.950 . S
C510 C519 1.390 . S
C511 C510 1.387 . S
C511 C513 1.387 . S
H512 C519 0.950 . S
C513 C511 1.387 . S
C513 C515 1.390 . S
C513 H517 0.950 . S
H514 C510 0.950 . S
C515 C513 1.390 . S
C515 C516 1.387 . S
C515 H518 0.950 . S
C516 C515 1.387 . S
C516 C519 1.387 . S
H517 C513 0.950 . S
H518 C515 0.950 . S
C519 C510 1.390 . S
C519 H512 0.950 . S
C519 C516 1.387 . S
C520 C521 1.387 . S
C520 H524 0.950 . S
C520 C529 1.390 . S
C521 C520 1.387 . S
C521 C523 1.387 . S
H522 C529 0.950 . S
C523 C521 1.387 . S
C523 C525 1.390 . S
C523 H527 0.950 . S
H524 C520 0.950 . S
C525 C523 1.390 . S
C525 C526 1.387 . S
C525 H528 0.950 . S
C526 C525 1.387 . S
C526 C529 1.387 . S
H527 C523 0.950 . S
H528 C525 0.950 . S
C529 C520 1.390 . S
C529 H522 0.950 . S
C529 C526 1.387 . S
C530 C531 1.387 . S
C530 H534 0.950 . S
C530 C539 1.390 . S
C531 C530 1.387 . S
C531 C533 1.387 . S
H532 C539 0.950 . S
C533 C531 1.387 . S
C533 C535 1.390 . S
C533 H537 0.950 . S
H534 C530 0.950 . S
C535 C533 1.390 . S
C535 C536 1.387 . S
C535 H538 0.950 . S
C536 C535 1.387 . S
C536 C539 1.387 . S
H537 C533 0.950 . S
H538 C535 0.950 . S
C539 C530 1.390 . S
C539 H532 0.950 . S
C539 C536 1.387 . S
C540 C541 1.387 . S
C540 H544 0.950 . S
C540 C549 1.390 . S
C541 C540 1.387 . S
C541 C543 1.387 . S
H542 C549 0.950 . S
C543 C541 1.387 . S
C543 C545 1.390 . S
C543 H547 0.950 . S
H544 C540 0.950 . S
C545 C543 1.390 . S
C545 C546 1.387 . S
C545 H548 0.950 . S
C546 C545 1.387 . S
C546 C549 1.387 . S
H547 C543 0.950 . S
H548 C545 0.950 . S
C549 C540 1.390 . S
C549 H542 0.950 . S
C549 C546 1.387 . S
C550 C551 1.387 . S
C550 H554 0.950 . S
C550 C559 1.390 . S
C551 C550 1.387 . S
C551 C553 1.387 . S
H552 C559 0.950 . S
C553 C551 1.387 . S
C553 C555 1.390 . S
C553 H557 0.950 . S
H554 C550 0.950 . S
C555 C553 1.390 . S
C555 C556 1.387 . S
C555 H558 0.950 . S
C556 C555 1.387 . S
C556 C559 1.387 . S
H557 C553 0.950 . S
H558 C555 0.950 . S
C559 C550 1.390 . S
C559 H552 0.950 . S
C559 C556 1.387 . S
C560 C561 1.387 . S
C560 H564 0.950 . S
C560 C569 1.390 . S
C561 C560 1.387 . S
C561 C563 1.387 . S
H562 C569 0.950 . S
C563 C561 1.387 . S
C563 C565 1.390 . S
C563 H567 0.950 . S
H564 C560 0.950 . S
C565 C563 1.390 . S
C565 C566 1.387 . S
C565 H568 0.950 . S
C566 C565 1.387 . S
C566 C569 1.387 . S
H567 C563 0.950 . S
H568 C565 0.950 . S
C569 C560 1.390 . S
C569 H562 0.950 . S
C569 C566 1.387 . S
C570 C571 1.387 . S
C570 H574 0.950 . S
C570 C579 1.390 . S
C571 C570 1.387 . S
C571 C573 1.387 . S
H572 C579 0.950 . S
C573 C571 1.387 . S
C573 C575 1.390 . S
C573 H577 0.950 . S
H574 C570 0.950 . S
C575 C573 1.390 . S
C575 C576 1.387 . S
C575 H578 0.950 . S
C576 C575 1.387 . S
C576 C579 1.387 . S
H577 C573 0.950 . S
H578 C575 0.950 . S
C579 C570 1.390 . S
C579 H572 0.950 . S
C579 C576 1.387 . S
C580 C581 1.387 . S
C580 H584 0.950 . S
C580 C589 1.390 . S
C581 C580 1.387 . S
C581 C583 1.387 . S
H582 C589 0.950 . S
C583 C581 1.387 . S
C583 C585 1.390 . S
C583 H587 0.950 . S
H584 C580 0.950 . S
C585 C583 1.390 . S
C585 C586 1.387 . S
C585 H588 0.950 . S
C586 C585 1.387 . S
C586 C589 1.387 . S
H587 C583 0.950 . S
H588 C585 0.950 . S
C589 C580 1.390 . S
C589 H582 0.950 . S
C589 C586 1.387 . S
C590 C591 1.387 . S
C590 H594 0.950 . S
C590 C599 1.390 . S
C591 C590 1.387 . S
C591 C593 1.387 . S
H592 C599 0.950 . S
C593 C591 1.387 . S
C593 C595 1.390 . S
C593 H597 0.950 . S
H594 C590 0.950 . S
C595 C593 1.390 . S
C595 C596 1.387 . S
C595 H598 0.950 . S
C596 C595 1.387 . S
C596 C599 1.387 . S
H597 C593 0.950 . S
H598 C595 0.950 . S
C599 C590 1.390 . S
C599 H592 0.950 . S
C599 C596 1.387 . S
C600 C601 1.387 . S
C600 H604 0.950 . S
C600 C609 1.390 . S
C601 C600 1.387 . S
C601 C603 1.387 . S
H602 C609 0.950 . S
C603 C601 1.387 . S
C603 C605 1.390 . S
C603 H607 0.950 1_455 S
H604 C600 0.950 . S
C605 C603 1.390 . S
C605 C606 1.387 . S
C605 H608 0.950 1_455 S
C606 C605 1.387 . S
C606 C609 1.387 . S
H607 C603 0.950 1_655 S
H608 C605 0.950 1_655 S
C609 C600 1.390 . S
C609 H602 0.950 . S
C609 C606 1.387 . S
C610 C611 1.387 . S
C610 H614 0.950 1_545 S
C610 C619 1.390 . S
C611 C610 1.387 . S
C611 C613 1.387 . S
H612 C619 0.950 1_565 S
C613 C611 1.387 . S
C613 C615 1.390 . S
C613 H617 0.950 . S
H614 C610 0.950 1_565 S
C615 C613 1.390 . S
C615 C616 1.387 . S
C615 H618 0.950 . S
C616 C615 1.387 . S
C616 C619 1.387 . S
H617 C613 0.950 . S
H618 C615 0.950 . S
C619 C610 1.390 . S
C619 H612 0.950 1_545 S
C619 C616 1.387 . S
C620 C621 1.387 . S
C620 H624 0.950 . S
C620 C629 1.390 . S
C621 C620 1.387 . S
C621 C623 1.387 . S
H622 C629 0.950 . S
C623 C621 1.387 . S
C623 C625 1.390 . S
C623 H627 0.950 . S
H624 C620 0.950 . S
C625 C623 1.390 . S
C625 C626 1.387 . S
C625 H628 0.950 . S
C626 C625 1.387 . S
C626 C629 1.387 . S
H627 C623 0.950 . S
H628 C625 0.950 . S
C629 C620 1.390 . S
C629 H622 0.950 . S
C629 C626 1.387 . S
C630 C631 1.387 . S
C630 H634 0.950 . S
C630 C639 1.390 . S
C631 C630 1.387 . S
C631 C633 1.387 1_545 S
H632 C639 0.950 . S
C633 C631 1.387 1_565 S
C633 C635 1.390 . S
C633 H637 0.950 . S
H634 C630 0.950 . S
C635 C633 1.390 . S
C635 C636 1.387 . S
C635 H638 0.950 . S
C636 C635 1.387 . S
C636 C639 1.387 1_565 S
H637 C633 0.950 . S
H638 C635 0.950 . S
C639 C630 1.390 . S
C639 H632 0.950 . S
C639 C636 1.387 1_545 S
C640 C641 1.387 . S
C640 H644 0.950 . S
C640 C649 1.390 . S
C641 C640 1.387 . S
C641 C643 1.387 . S
H642 C649 0.950 . S
C643 C641 1.387 . S
C643 C645 1.390 . S
C643 H647 0.950 . S
H644 C640 0.950 . S
C645 C643 1.390 . S
C645 C646 1.387 . S
C645 H648 0.950 . S
C646 C645 1.387 . S
C646 C649 1.387 . S
H647 C643 0.950 . S
H648 C645 0.950 . S
C649 C640 1.390 . S
C649 H642 0.950 . S
C649 C646 1.387 . S
C650 C651 1.384 1_655 S
C650 H654 0.946 . S
C650 C659 1.397 . S
C651 C650 1.384 1_455 S
C651 C653 1.387 . S
H652 C659 0.950 . S
C653 C651 1.387 . S
C653 C655 1.390 . S
C653 H657 0.950 . S
H654 C650 0.946 . S
C655 C653 1.390 . S
C655 C656 1.387 . S
C655 H658 0.950 . S
C656 C655 1.387 . S
C656 C659 1.387 1_455 S
H657 C653 0.950 . S
H658 C655 0.950 . S
C659 C650 1.397 . S
C659 H652 0.950 . S
C659 C656 1.387 1_655 S
C481 C25 0.697 . S
C486 C451 0.681 . S
C491 C65 0.675 . S
C496 C301 0.551 . S
C501 C105 0.755 . S
C506 C361 0.758 . S
C511 C4 0.749 . S
C516 C421 0.758 . S
C526 C331 0.612 . S
C521 C44 0.642 . S
C536 C391 0.704 . S
C531 C84 0.714 . S
C541 C60 3.021 . S
C546 C181 2.836 . S
C551 C100 3.182 . S
C556 C271 3.168 . S
C561 C31 3.210 . S
C566 C151 3.180 . S
C576 C211 3.184 . S
C571 C71 3.209 . S
C586 C241 2.868 . S
C581 C111 3.049 . S
C591 C20 3.028 . S
C596 C121 2.850 . S
C606 C260 1.806 . S
C601 C2 1.753 . S
C611 C42 1.781 . S
C616 C140 1.777 . S
C621 C82 1.771 . S
C626 C200 1.786 . S
C636 C380 1.044 . S
C631 C63 1.075 . S
C646 C440 1.123 . S
C641 C103 1.130 . S
C651 C23 1.033 . S
C656 C320 1.008 . S
