# Generated by pormake.
# Topology anh, (6,3)-cn, num edge types: 1
# Building blocks:
#     Node 0, Type 0, BuildingBlock: INOVEN_clean_sbu_0, # of connection points: 6
#     Node 1, Type 0, BuildingBlock: INOVEN_clean_sbu_0, # of connection points: 6
#     Node 2, Type 0, BuildingBlock: INOVEN_clean_sbu_0, # of connection points: 6
#     Node 3, Type 1, BuildingBlock: BETDIP_clean_linker_0, # of connection points: 3
#     Node 4, Type 1, BuildingBlock: BETDIP_clean_linker_0, # of connection points: 3
#     Node 5, Type 1, BuildingBlock: BETDIP_clean_linker_0, # of connection points: 3
#     Node 6, Type 1, BuildingBlock: BETDIP_clean_linker_0, # of connection points: 3
#     Node 7, Type 1, BuildingBlock: BETDIP_clean_linker_0, # of connection points: 3
#     Node 8, Type 1, BuildingBlock: BETDIP_clean_linker_0, # of connection points: 3
#     Edge 9, Type (0, 1), BuildingBlock: AJUNOK_clean_linker_0, # of connection points: 2
#     Edge 10, Type (0, 1), BuildingBlock: AJUNOK_clean_linker_0, # of connection points: 2
#     Edge 11, Type (0, 1), BuildingBlock: AJUNOK_clean_linker_0, # of connection points: 2
#     Edge 12, Type (0, 1), BuildingBlock: AJUNOK_clean_linker_0, # of connection points: 2
#     Edge 13, Type (0, 1), BuildingBlock: AJUNOK_clean_linker_0, # of connection points: 2
#     Edge 14, Type (0, 1), BuildingBlock: AJUNOK_clean_linker_0, # of connection points: 2
#     Edge 15, Type (0, 1), BuildingBlock: AJUNOK_clean_linker_0, # of connection points: 2
#     Edge 16, Type (0, 1), BuildingBlock: AJUNOK_clean_linker_0, # of connection points: 2
#     Edge 17, Type (0, 1), BuildingBlock: AJUNOK_clean_linker_0, # of connection points: 2
#     Edge 18, Type (0, 1), BuildingBlock: AJUNOK_clean_linker_0, # of connection points: 2
#     Edge 19, Type (0, 1), BuildingBlock: AJUNOK_clean_linker_0, # of connection points: 2
#     Edge 20, Type (0, 1), BuildingBlock: AJUNOK_clean_linker_0, # of connection points: 2
#     Edge 21, Type (0, 1), BuildingBlock: AJUNOK_clean_linker_0, # of connection points: 2
#     Edge 22, Type (0, 1), BuildingBlock: AJUNOK_clean_linker_0, # of connection points: 2
#     Edge 23, Type (0, 1), BuildingBlock: AJUNOK_clean_linker_0, # of connection points: 2
#     Edge 24, Type (0, 1), BuildingBlock: AJUNOK_clean_linker_0, # of connection points: 2
#     Edge 25, Type (0, 1), BuildingBlock: AJUNOK_clean_linker_0, # of connection points: 2
#     Edge 26, Type (0, 1), BuildingBlock: AJUNOK_clean_linker_0, # of connection points: 2
# Relax obj value: 0.212
# Max RMSD: 0.211
# Mean RMSD: 0.135
data_MOF--net-anh--node1-INOVEN_clean_sbu_0--node2-BETDIP_clean_linker_0--edge1-AJUNOK_clean_linker_0
_symmetry_space_group_name_H-M    P1
_symmetry_Int_Tables_number       1
_symmetry_cell_setting            triclinic
loop_
_symmetry_equiv_pos_as_xyz
'x, y, z'
_cell_length_a     23.328173
_cell_length_b     29.527063
_cell_length_c     36.433786
_cell_angle_alpha  94.96656
_cell_angle_beta   89.412961
_cell_angle_gamma 132.42355
loop_
_atom_site_label
_atom_site_type_symbol
_atom_site_fract_x
_atom_site_fract_y
_atom_site_fract_z
_atom_type_partial_charge
Gd0 Gd 0.22827 0.61358 0.14261 0.0
Gd1 Gd 0.12546 0.63732 0.16133 0.0
C2 C 0.29967 0.75577 0.15182 0.0
C3 C 0.32916 0.61016 0.11746 0.0
C4 C 0.3493 0.57378 0.12269 0.0
C5 C 0.3057 0.52471 0.14468 0.0
C6 C 0.41535 0.59044 0.10703 0.0
C7 C 0.39374 0.50825 0.13447 0.0
C8 C 0.43745 0.55792 0.11285 0.0
C9 C 0.32775 0.49193 0.15049 0.0
C10 C 0.20319 0.61247 0.21462 0.0
C11 C 1.05338 0.4945 0.1549 0.0
C12 C 1.01957 0.63298 0.18871 0.0
C13 C 0.93755 0.57863 0.19385 0.0
C14 C 0.87835 0.57249 0.17721 0.0
C15 C 0.91796 0.52794 0.2092 0.0
C16 C 0.78446 0.46324 0.185 0.0
C17 C 0.84205 0.47048 0.20451 0.0
C18 C 0.80207 0.51512 0.17295 0.0
C19 C 0.1427 0.62704 0.08806 0.0
O20 O 0.30204 0.7157 0.13434 0.0
O21 O 0.23799 0.73588 0.16957 0.0
O22 O 0.26206 0.58121 0.09984 0.0
O23 O 0.34326 0.64615 0.1466 0.0
O24 O 0.21092 0.57719 0.19674 0.0
O25 O 0.21514 0.6504 0.19424 0.0
O26 O 1.04777 0.53485 0.1673 0.0
O27 O 0.1169 0.51268 0.13968 0.0
O28 O 1.03696 0.64146 0.15428 0.0
O29 O 1.07201 0.64083 0.20918 0.0
O30 O 0.14048 0.66699 0.10375 0.0
O31 O 0.13338 0.5942 0.1115 0.0
H32 H 0.2549 0.51194 0.15731 0.0
H33 H 0.44978 0.62854 0.09025 0.0
H34 H 0.48783 0.57073 0.0997 0.0
H35 H 0.29334 0.4539 0.1673 0.0
H36 H 0.89212 0.61088 0.16513 0.0
H37 H 0.96226 0.53157 0.22259 0.0
H38 H 0.82928 0.43094 0.21411 0.0
H39 H 0.75829 0.51026 0.15766 0.0
Gd40 Gd 0.72696 0.08642 0.4682 0.0
Gd41 Gd 0.62164 0.10761 0.45781 0.0
C42 C 0.53936 0.96826 0.4581 0.0
C43 C 0.79964 0.05376 0.48819 0.0
C44 C 0.77961 0.99979 0.50202 0.0
C45 C 0.82697 0.98721 0.49476 0.0
C46 C 0.71284 0.95988 0.52155 0.0
C47 C 0.73998 0.89409 0.52561 0.0
C48 C 0.69329 0.90744 0.53336 0.0
C49 C 0.80753 0.93487 0.5066 0.0
C50 C 0.70598 0.09654 0.39764 0.0
C51 C 0.81109 0.22746 0.4668 0.0
C52 C 0.55678 0.14649 0.43808 0.0
C53 C 0.57018 0.20072 0.45356 0.0
C54 C 0.59573 0.223 0.49089 0.0
C55 C 0.56091 0.23207 0.43124 0.0
C56 C 0.59878 0.30544 0.48403 0.0
C57 C 0.57546 0.28449 0.44642 0.0
C58 C 0.60921 0.27457 0.50605 0.0
C59 C 0.64136 0.09827 0.52881 0.0
O60 O 0.60638 0.99167 0.47431 0.0
O61 O 0.53487 1.00481 0.44272 0.0
O62 O 0.77528 0.0457 0.45407 0.0
O63 O 0.79034 0.08533 0.51041 0.0
O64 O 0.77228 0.12012 0.41275 0.0
O65 O 0.65355 0.0671 0.42002 0.0
O66 O 0.74058 0.20559 0.45865 0.0
O67 O 0.82108 0.19017 0.47448 0.0
O68 O 0.5253 0.10309 0.45996 0.0
O69 O 0.61505 0.15858 0.42139 0.0
O70 O 0.57702 0.07856 0.51384 0.0
O71 O 0.6943 0.12661 0.50647 0.0
H72 H 0.8789 1.01783 0.47984 0.0
H73 H 0.67561 0.96899 0.52741 0.0
H74 H 0.64106 0.87684 0.54808 0.0
H75 H 0.84565 0.92657 0.50113 0.0
H76 H 0.60501 0.20033 0.50841 0.0
H77 H 0.54237 0.21597 0.40225 0.0
H78 H 0.5672 0.30793 0.42908 0.0
H79 H 0.62787 0.29048 0.53506 0.0
Gd80 Gd 0.69647 0.59523 0.85353 0.0
Gd81 Gd 0.57741 0.45809 0.84674 0.0
C82 C 0.50618 0.52354 0.85228 0.0
C83 C 0.77714 0.70911 0.84215 0.0
C84 C 0.76256 0.74689 0.82916 0.0
C85 C 0.70796 0.74778 0.84491 0.0
C86 C 0.803 0.78164 0.79957 0.0
C87 C 0.73451 0.81734 0.80134 0.0
C88 C 0.78893 0.81627 0.78571 0.0
C89 C 0.69422 0.78284 0.83115 0.0
C90 C 0.66306 0.54464 0.91742 0.0
C91 C 0.76985 0.53168 0.84988 0.0
C92 C 0.50554 0.34449 0.8534 0.0
C93 C 0.52673 0.30901 0.84062 0.0
C94 C 0.5754 0.32747 0.81128 0.0
C95 C 0.50257 0.25904 0.85869 0.0
C96 C 0.57556 0.24629 0.81801 0.0
C97 C 0.52655 0.2277 0.84737 0.0
C98 C 0.59904 0.29618 0.79992 0.0
C99 C 0.60992 0.50518 0.78188 0.0
O100 O 0.57991 0.57402 0.84691 0.0
O101 O 0.49088 0.47189 0.85724 0.0
O102 O 0.75439 0.68923 0.87467 0.0
O103 O 0.76372 0.66762 0.81737 0.0
O104 O 0.7331 0.59353 0.91041 0.0
O105 O 0.61518 0.52793 0.89151 0.0
O106 O 0.69486 0.47906 0.84971 0.0
O107 O 0.78581 0.5844 0.84966 0.0
O108 O 0.48646 0.36097 0.82741 0.0
O109 O 0.55267 0.38933 0.87956 0.0
O110 O 0.54107 0.45631 0.78967 0.0
O111 O 0.65911 0.52466 0.80799 0.0
H112 H 0.67537 0.72098 0.86754 0.0
H113 H 0.84521 0.78159 0.78692 0.0
H114 H 0.8209 0.84249 0.76278 0.0
H115 H 0.65102 0.78202 0.84334 0.0
H116 H 0.59533 0.36629 0.79712 0.0
H117 H 0.46573 0.2446 0.88166 0.0
H118 H 0.50743 0.18933 0.86175 0.0
H119 H 0.63496 0.31063 0.77658 0.0
H120 H 0.61822 0.06609 0.13289 0.0
H121 H 0.75178 0.17651 0.23522 0.0
H122 H 0.55355 0.98311 0.23498 0.0
H123 H 0.74463 0.24155 0.20492 0.0
C124 C 0.77437 0.2423 0.18149 0.0
C125 C 0.62871 0.07007 0.16237 0.0
C126 C 0.57789 1.01716 0.18183 0.0
C127 C 0.69156 0.12868 0.18168 0.0
C128 C 0.70348 0.13257 0.22008 0.0
C129 C 0.6535 0.08071 0.23943 0.0
C130 C 0.59166 0.02347 0.22009 0.0
N131 N 0.7424 0.18373 0.1632 0.0
H132 H 0.66572 0.55864 0.52338 0.0
H133 H 0.6879 0.63646 0.63382 0.0
H134 H 0.64883 0.47212 0.61753 0.0
H135 H 0.63868 0.66848 0.6056 0.0
C136 C 0.66511 0.68109 0.57927 0.0
C137 C 0.66849 0.5581 0.55299 0.0
C138 C 0.6579 0.51049 0.56749 0.0
C139 C 0.67785 0.60313 0.57654 0.0
C140 C 0.67969 0.60181 0.615 0.0
C141 C 0.66888 0.55447 0.62957 0.0
C142 C 0.65842 0.50922 0.60592 0.0
N143 N 0.68316 0.64805 0.56075 0.0
H144 H 1.06644 0.50997 0.82378 0.0
H145 H 0.2012 0.56167 0.92591 0.0
H146 H 1.02199 0.56665 0.92526 0.0
H147 H 0.30064 0.5961 0.88691 0.0
C148 C 0.26993 0.55341 0.86894 0.0
C149 C 1.07975 0.52581 0.85296 0.0
C150 C 1.0346 0.5378 0.87209 0.0
C151 C 0.14333 0.53566 0.87209 0.0
C152 C 0.1569 0.55549 0.91012 0.0
C153 C 1.11331 0.56617 0.92886 0.0
C154 C 1.05447 0.55808 0.90987 0.0
N155 N 0.19079 0.52373 0.85489 0.0
H156 H 0.22438 0.66178 0.48191 0.0
H157 H 1.09996 0.53732 0.38241 0.0
H158 H 0.29401 0.73028 0.37551 0.0
H159 H 0.12675 0.48538 0.42683 0.0
C160 C 1.08704 0.48361 0.44406 0.0
C161 C 0.21635 0.65369 0.45207 0.0
C162 C 0.26578 0.70396 0.43058 0.0
C163 C 0.15699 0.59269 0.43458 0.0
C164 C 0.14704 0.58332 0.39582 0.0
C165 C 0.19619 0.63258 0.37434 0.0
C166 C 0.25486 0.69228 0.39201 0.0
N167 N 1.10676 0.54066 0.45538 0.0
H168 H 0.66202 0.07295 0.79067 0.0
H169 H 0.69036 0.02447 0.68104 0.0
H170 H 0.64669 0.14424 0.69705 0.0
H171 H 0.66101 0.94576 0.70545 0.0
C172 C 0.67879 0.95853 0.73468 0.0
C173 C 0.66446 0.07646 0.76122 0.0
C174 C 0.65437 0.11326 0.74657 0.0
C175 C 0.67662 0.0434 0.73799 0.0
C176 C 0.67994 0.04851 0.69965 0.0
C177 C 0.6687 0.0846 0.6849 0.0
C178 C 0.65618 0.11687 0.70847 0.0
N179 N 0.68517 1.00582 0.75421 0.0
H180 H 0.44405 0.30641 0.12118 0.0
H181 H 0.55907 0.32603 0.02255 0.0
H182 H 0.56001 0.46711 0.06426 0.0
H183 H 0.47324 0.19513 0.11293 0.0
C184 C 0.49803 0.24189 0.11158 0.0
C185 C 0.48121 0.33419 0.09975 0.0
C186 C 0.50256 0.39074 0.09677 0.0
C187 C 0.50515 0.31225 0.07415 0.0
C188 C 0.54512 0.34484 0.04371 0.0
C189 C 0.5659 0.40135 0.04055 0.0
C190 C 0.54659 0.42469 0.06768 0.0
N191 N 0.48522 0.25565 0.0778 0.0
C192 C 0.4931 0.50182 0.14535 0.0
C193 C 0.41489 0.47138 0.13715 0.0
C194 C 0.52013 0.47221 0.13662 0.0
C195 C 0.46968 0.41131 0.1195 0.0
H196 H 0.53487 0.55036 0.15564 0.0
H197 H 0.58207 0.49889 0.13997 0.0
S198 S 0.25747 0.3084 0.09828 0.0
N199 N 0.28545 0.37462 0.11581 0.0
N200 N 0.33649 0.31885 0.09947 0.0
C201 C 0.38986 0.37817 0.11528 0.0
C202 C 0.36229 0.40835 0.12409 0.0
C203 C 0.95442 0.31389 0.45937 0.0
C204 C 0.88131 0.29484 0.46499 0.0
C205 C 1.02016 0.37531 0.454 0.0
C206 C 1.01706 0.42143 0.45486 0.0
H207 H 0.96059 0.28057 0.45769 0.0
H208 H 1.07405 0.38659 0.4484 0.0
S209 S 0.84128 0.39762 0.47064 0.0
N210 N 0.81069 0.32853 0.47227 0.0
N211 N 0.93482 0.44405 0.46311 0.0
C212 C 0.94526 0.40394 0.46183 0.0
C213 C 0.87745 0.34078 0.46661 0.0
C214 C 0.70214 0.84545 0.74744 0.0
C215 C 0.71883 0.85324 0.78566 0.0
C216 C 0.68885 0.87955 0.73166 0.0
C217 C 0.69237 0.92329 0.75333 0.0
H218 H 0.69891 0.8124 0.72957 0.0
H219 H 0.67612 0.87181 0.70208 0.0
S220 S 0.73548 0.96196 0.8549 0.0
N221 N 0.73896 0.90826 0.84488 0.0
N222 N 0.71423 0.97262 0.81533 0.0
C223 C 0.70899 0.9316 0.79169 0.0
C224 C 0.72201 0.89643 0.8078 0.0
C225 C 0.63904 0.38284 0.1803 0.0
C226 C 0.71045 0.40104 0.17172 0.0
C227 C 0.56894 0.32805 0.16292 0.0
C228 C 0.56883 0.2914 0.13554 0.0
H229 H 0.63768 0.412 0.19972 0.0
H230 H 0.51506 0.31574 0.1699 0.0
S231 S 0.73961 0.31674 0.1052 0.0
N232 N 0.77632 0.37578 0.13641 0.0
N233 N 0.64456 0.27417 0.10267 0.0
C234 C 0.63925 0.30739 0.1282 0.0
C235 C 0.71028 0.36218 0.14646 0.0
C236 C 0.39549 0.87807 0.44328 0.0
C237 C 0.46816 0.90025 0.45631 0.0
C238 C 0.32866 0.81455 0.43826 0.0
C239 C 0.33063 0.76976 0.44625 0.0
H240 H 0.39032 0.90991 0.43574 0.0
H241 H 0.27554 0.80008 0.42624 0.0
S242 S 0.50418 0.80182 0.48228 0.0
N243 N 0.53632 0.87096 0.47847 0.0
N244 N 0.41072 0.75195 0.46875 0.0
C245 C 0.40167 0.79095 0.46071 0.0
C246 C 0.4702 0.8559 0.46581 0.0
C247 C 0.54343 0.1475 0.79779 0.0
C248 C 0.59954 0.21233 0.80489 0.0
C249 C 0.56267 0.11512 0.78072 0.0
C250 C 0.63858 0.1465 0.7703 0.0
H251 H 0.48343 0.12185 0.80382 0.0
H252 H 0.51717 0.06558 0.77411 0.0
S253 S 0.80889 0.3146 0.78681 0.0
N254 N 0.73617 0.30576 0.80359 0.0
N255 N 0.77133 0.24475 0.77064 0.0
C256 C 0.69597 0.21069 0.77882 0.0
C257 C 0.67671 0.24366 0.79638 0.0
C258 C 0.69913 0.82482 0.57453 0.0
C259 C 0.719 0.83833 0.538 0.0
C260 C 0.68107 0.77333 0.58723 0.0
C261 C 0.68268 0.73373 0.56397 0.0
H262 H 0.69881 0.85485 0.59366 0.0
H263 H 0.66686 0.76498 0.61572 0.0
S264 S 0.72413 0.74568 0.46489 0.0
N265 N 0.73387 0.80565 0.47791 0.0
N266 N 0.70133 0.70935 0.50198 0.0
C267 C 0.70094 0.74591 0.52713 0.0
C268 C 0.71883 0.79818 0.51411 0.0
C269 C 0.825 0.47778 0.8539 0.0
C270 C 0.83768 0.5318 0.85071 0.0
C271 C 0.88733 0.47842 0.85716 0.0
C272 C 0.96766 0.5328 0.85655 0.0
H273 H 0.76592 0.43427 0.85517 0.0
H274 H 0.87223 0.43585 0.86187 0.0
S275 S 1.03629 0.68753 0.84841 0.0
N276 N 0.94069 0.64193 0.84674 0.0
N277 N 1.05404 0.64267 0.85264 0.0
C278 C 0.98076 0.58662 0.85259 0.0
C279 C 0.9177 0.58621 0.84958 0.0
C280 C 0.44328 0.84706 0.14483 0.0
C281 C 0.36892 0.82423 0.15307 0.0
C282 C 0.51075 0.91077 0.15082 0.0
C283 C 0.5067 0.95457 0.16459 0.0
H284 H 0.45022 0.81523 0.13558 0.0
H285 H 0.567 0.92539 0.1467 0.0
S286 S 0.32679 0.92099 0.18735 0.0
N287 N 0.296 0.8526 0.17329 0.0
N288 N 0.42203 0.97109 0.18428 0.0
C289 C 0.43258 0.93288 0.17094 0.0
C290 C 0.36409 0.86826 0.1652 0.0
C291 C 0.56291 0.34833 0.52996 0.0
C292 C 0.60977 0.35798 0.50138 0.0
C293 C 0.57752 0.39792 0.55024 0.0
C294 C 0.6402 0.45909 0.54299 0.0
H295 H 0.51553 0.30209 0.53715 0.0
H296 H 0.54019 0.38834 0.57225 0.0
S297 S 0.77946 0.50829 0.47049 0.0
N298 N 0.71968 0.43223 0.46592 0.0
N299 N 0.74867 0.52629 0.50467 0.0
C300 C 0.68622 0.46919 0.5137 0.0
C301 C 0.67071 0.41838 0.49277 0.0
C302 C 0.46164 0.58472 0.85618 0.0
C303 C 0.44144 0.52705 0.85366 0.0
C304 C 0.40565 0.59089 0.85907 0.0
C305 C 0.32364 0.54014 0.85864 0.0
H306 H 0.52249 0.62662 0.85692 0.0
H307 H 0.42774 0.63722 0.86238 0.0
S308 S 0.23519 0.37722 0.85186 0.0
N309 N 0.3293 0.41665 0.85068 0.0
N310 N 0.22629 0.42844 0.85522 0.0
C311 C 0.30178 0.48178 0.85528 0.0
C312 C 0.35935 0.47536 0.85301 0.0
C313 C 0.95176 0.37881 0.13365 0.0
C314 C 0.98829 0.42854 0.16172 0.0
C315 C 0.88404 0.31765 0.13989 0.0
C316 C 0.85055 0.3044 0.17438 0.0
H317 H 0.97381 0.38756 0.10638 0.0
H318 H 0.85623 0.28123 0.11728 0.0
S319 S 0.93176 0.41651 0.25837 0.0
N320 N 0.99119 0.45833 0.22627 0.0
N321 N 0.86486 0.34563 0.23776 0.0
C322 C 0.88927 0.35347 0.20289 0.0
C323 C 0.95772 0.41484 0.19664 0.0
C324 C 0.14669 0.65037 0.02299 0.0
C325 C 0.13961 0.61292 0.04764 0.0
C326 C 0.13996 0.63584 0.98459 0.0
C327 C 0.12658 0.58364 0.96946 0.0
H328 H 0.15644 0.69072 0.0334 0.0
H329 H 0.1446 0.66536 0.96656 0.0
S330 S 1.10168 0.46977 0.02186 0.0
N331 N 0.11718 0.52066 0.05392 0.0
N332 N 1.10536 0.49404 0.982 0.0
C333 C 0.12036 0.54631 -0.00624 0.0
C334 C 0.12663 0.56076 0.03277 0.0
C335 C 0.75258 0.11974 0.33408 0.0
C336 C 0.6916 0.09429 0.35779 0.0
C337 C 0.74002 0.11583 0.29593 0.0
C338 C 0.66599 0.08631 0.28008 0.0
H339 H 0.81034 0.14212 0.34495 0.0
H340 H 0.78829 0.13497 0.27863 0.0
S341 S 0.48837 1.01684 0.33045 0.0
N342 N 0.55537 0.04145 0.3629 0.0
N343 N 0.53204 0.0348 0.29129 0.0
C344 C 0.60497 0.06211 0.30359 0.0
C345 C 0.61773 0.06601 0.34243 0.0
C346 C 0.56718 0.49581 0.71747 0.0
C347 C 0.6287 0.52327 0.74407 0.0
C348 C 0.5813 0.50737 0.68057 0.0
C349 C 0.65738 0.547 0.66906 0.0
H350 H 0.50735 0.46419 0.72503 0.0
H351 H 0.53231 0.48443 0.66074 0.0
S352 S 0.83905 0.63226 0.72748 0.0
N353 N 0.76907 0.5932 0.75629 0.0
N354 N 0.79522 0.61526 0.68653 0.0
C355 C 0.71971 0.57612 0.69524 0.0
C356 C 0.70545 0.56423 0.73295 0.0
C357 C 0.58535 0.05945 0.58901 0.0
C358 C 0.65138 0.09417 0.56813 0.0
C359 C 0.59159 0.05556 0.62656 0.0
C360 C 0.66391 0.08555 0.64458 0.0
H361 H 0.5282 0.03554 0.57639 0.0
H362 H 0.53949 0.02938 0.64177 0.0
S363 S 0.85464 0.18248 0.60305 0.0
N364 N 0.79186 0.15985 0.56869 0.0
N365 N 0.8029 0.15089 0.63929 0.0
C366 C 0.73031 0.11956 0.62415 0.0
C367 C 0.72421 0.12426 0.58589 0.0
C368 C 0.56353 0.45402 0.95109 0.0
C369 C 0.64216 0.50728 0.9482 0.0
C370 C 0.54055 0.41694 0.97954 0.0
C371 C 0.59509 0.43214 0.00653 0.0
H372 H 0.5189 0.44118 0.93148 0.0
H373 H 0.47908 0.37766 0.9815 0.0
S374 S 0.80761 0.56655 0.01222 0.0
N375 N 0.77493 0.57273 0.97472 0.0
N376 N 0.7306 0.50381 0.02928 0.0
C377 C 0.67385 0.48482 0.00408 0.0
C378 C 0.69767 0.52229 0.97466 0.0
C379 C 0.19823 0.6593 0.27379 0.0
C380 C 0.19388 0.61352 0.25479 0.0
C381 C 0.19575 0.66358 0.31232 0.0
C382 C 0.18915 0.62241 0.33327 0.0
H383 H 0.20544 0.69295 0.25895 0.0
H384 H 0.20048 0.7002 0.3259 0.0
S385 S 0.17084 0.49175 0.29615 0.0
N386 N 0.17736 0.52355 0.25937 0.0
N387 N 0.17568 0.53307 0.33171 0.0
C388 C 0.18198 0.57508 0.31435 0.0
C389 C 0.18374 0.57036 0.27514 0.0
loop_
_geom_bond_atom_site_label_1
_geom_bond_atom_site_label_2
_geom_bond_distance
_geom_bond_site_symmetry_2
_ccdc_geom_bond_type
Gd0 C3 2.818 . S
Gd0 O20 2.377 . S
Gd0 O22 2.448 . S
Gd0 O23 2.506 . S
Gd0 O24 2.435 . S
Gd0 O25 2.717 . S
Gd0 O27 2.395 1_455 S
Gd0 O31 2.327 . S
Gd1 C12 2.818 1_455 S
Gd1 O21 2.395 . S
Gd1 O25 2.327 . S
Gd1 O26 2.377 1_455 S
Gd1 O28 2.448 1_455 S
Gd1 O29 2.506 1_455 S
Gd1 O30 2.435 . S
Gd1 O31 2.717 . S
C2 O20 1.240 . S
C2 O21 1.240 . S
C3 Gd0 2.818 . S
C3 C4 1.510 . S
C3 O22 1.249 . S
C3 O23 1.252 . S
C4 C3 1.510 . S
C4 C5 1.404 . S
C4 C6 1.352 . S
C5 C4 1.404 . S
C5 C9 1.389 . S
C5 H32 0.930 . S
C6 C4 1.352 . S
C6 C8 1.374 . S
C6 H33 0.931 . S
C7 C8 1.359 . S
C7 C9 1.364 . S
C8 C6 1.374 . S
C8 C7 1.359 . S
C8 H34 0.931 . S
C9 C5 1.389 . S
C9 C7 1.364 . S
C9 H35 0.931 . S
C10 O24 1.256 . S
C10 O25 1.257 . S
C11 O26 1.240 . S
C11 O27 1.240 . S
C12 Gd1 2.818 1_655 S
C12 C13 1.510 . S
C12 O28 1.249 . S
C12 O29 1.252 . S
C13 C12 1.510 . S
C13 C14 1.404 . S
C13 C15 1.352 . S
C14 C13 1.404 . S
C14 C18 1.389 . S
C14 H36 0.930 . S
C15 C13 1.352 . S
C15 C17 1.374 . S
C15 H37 0.931 . S
C16 C17 1.359 . S
C16 C18 1.364 . S
C17 C15 1.374 . S
C17 C16 1.359 . S
C17 H38 0.931 . S
C18 C14 1.389 . S
C18 C16 1.364 . S
C18 H39 0.931 . S
C19 O30 1.256 . S
C19 O31 1.257 . S
O20 Gd0 2.377 . S
O20 C2 1.240 . S
O21 Gd1 2.395 . S
O21 C2 1.240 . S
O22 Gd0 2.448 . S
O22 C3 1.249 . S
O23 Gd0 2.506 . S
O23 C3 1.252 . S
O24 Gd0 2.435 . S
O24 C10 1.256 . S
O25 Gd0 2.717 . S
O25 Gd1 2.327 . S
O25 C10 1.257 . S
O26 Gd1 2.377 1_655 S
O26 C11 1.240 . S
O27 Gd0 2.395 1_655 S
O27 C11 1.240 . S
O28 Gd1 2.448 1_655 S
O28 C12 1.249 . S
O29 Gd1 2.506 1_655 S
O29 C12 1.252 . S
O30 Gd1 2.435 . S
O30 C19 1.256 . S
O31 Gd0 2.327 . S
O31 Gd1 2.717 . S
O31 C19 1.257 . S
H32 C5 0.930 . S
H33 C6 0.931 . S
H34 C8 0.931 . S
H35 C9 0.931 . S
H36 C14 0.930 . S
H37 C15 0.931 . S
H38 C17 0.931 . S
H39 C18 0.931 . S
Gd40 C43 2.818 1_545 S
Gd40 O60 2.377 1_545 S
Gd40 O62 2.448 1_545 S
Gd40 O63 2.506 1_545 S
Gd40 O64 2.435 . S
Gd40 O65 2.717 . S
Gd40 O67 2.395 . S
Gd40 O71 2.327 . S
Gd41 C52 2.818 . S
Gd41 O61 2.395 1_545 S
Gd41 O65 2.327 . S
Gd41 O66 2.377 . S
Gd41 O68 2.448 . S
Gd41 O69 2.506 . S
Gd41 O70 2.435 . S
Gd41 O71 2.717 . S
C42 O60 1.240 . S
C42 O61 1.240 . S
C43 Gd40 2.818 1_565 S
C43 C44 1.510 . S
C43 O62 1.249 . S
C43 O63 1.252 . S
C44 C43 1.510 . S
C44 C45 1.404 . S
C44 C46 1.352 . S
C45 C44 1.404 . S
C45 C49 1.389 . S
C45 H72 0.930 . S
C46 C44 1.352 . S
C46 C48 1.374 . S
C46 H73 0.931 . S
C47 C48 1.359 . S
C47 C49 1.364 . S
C48 C46 1.374 . S
C48 C47 1.359 . S
C48 H74 0.931 . S
C49 C45 1.389 . S
C49 C47 1.364 . S
C49 H75 0.931 . S
C50 O64 1.256 . S
C50 O65 1.257 . S
C51 O66 1.240 . S
C51 O67 1.240 . S
C52 Gd41 2.818 . S
C52 C53 1.510 . S
C52 O68 1.249 . S
C52 O69 1.252 . S
C53 C52 1.510 . S
C53 C54 1.404 . S
C53 C55 1.352 . S
C54 C53 1.404 . S
C54 C58 1.389 . S
C54 H76 0.930 . S
C55 C53 1.352 . S
C55 C57 1.374 . S
C55 H77 0.931 . S
C56 C57 1.359 . S
C56 C58 1.364 . S
C57 C55 1.374 . S
C57 C56 1.359 . S
C57 H78 0.931 . S
C58 C54 1.389 . S
C58 C56 1.364 . S
C58 H79 0.931 . S
C59 O70 1.256 . S
C59 O71 1.257 . S
O60 Gd40 2.377 1_565 S
O60 C42 1.240 . S
O61 Gd41 2.395 1_565 S
O61 C42 1.240 . S
O62 Gd40 2.448 1_565 S
O62 C43 1.249 . S
O63 Gd40 2.506 1_565 S
O63 C43 1.252 . S
O64 Gd40 2.435 . S
O64 C50 1.256 . S
O65 Gd40 2.717 . S
O65 Gd41 2.327 . S
O65 C50 1.257 . S
O66 Gd41 2.377 . S
O66 C51 1.240 . S
O67 Gd40 2.395 . S
O67 C51 1.240 . S
O68 Gd41 2.448 . S
O68 C52 1.249 . S
O69 Gd41 2.506 . S
O69 C52 1.252 . S
O70 Gd41 2.435 . S
O70 C59 1.256 . S
O71 Gd40 2.327 . S
O71 Gd41 2.717 . S
O71 C59 1.257 . S
H72 C45 0.930 . S
H73 C46 0.931 . S
H74 C48 0.931 . S
H75 C49 0.931 . S
H76 C54 0.930 . S
H77 C55 0.931 . S
H78 C57 0.931 . S
H79 C58 0.931 . S
Gd80 C83 2.818 . S
Gd80 O100 2.377 . S
Gd80 O102 2.448 . S
Gd80 O103 2.506 . S
Gd80 O104 2.435 . S
Gd80 O105 2.717 . S
Gd80 O107 2.395 . S
Gd80 O111 2.327 . S
Gd81 C92 2.818 . S
Gd81 O101 2.395 . S
Gd81 O105 2.327 . S
Gd81 O106 2.377 . S
Gd81 O108 2.448 . S
Gd81 O109 2.506 . S
Gd81 O110 2.435 . S
Gd81 O111 2.717 . S
C82 O100 1.240 . S
C82 O101 1.240 . S
C83 Gd80 2.818 . S
C83 C84 1.510 . S
C83 O102 1.249 . S
C83 O103 1.252 . S
C84 C83 1.510 . S
C84 C85 1.404 . S
C84 C86 1.352 . S
C85 C84 1.404 . S
C85 C89 1.389 . S
C85 H112 0.930 . S
C86 C84 1.352 . S
C86 C88 1.374 . S
C86 H113 0.931 . S
C87 C88 1.359 . S
C87 C89 1.364 . S
C88 C86 1.374 . S
C88 C87 1.359 . S
C88 H114 0.931 . S
C89 C85 1.389 . S
C89 C87 1.364 . S
C89 H115 0.931 . S
C90 O104 1.256 . S
C90 O105 1.257 . S
C91 O106 1.240 . S
C91 O107 1.240 . S
C92 Gd81 2.818 . S
C92 C93 1.510 . S
C92 O108 1.249 . S
C92 O109 1.252 . S
C93 C92 1.510 . S
C93 C94 1.404 . S
C93 C95 1.352 . S
C94 C93 1.404 . S
C94 C98 1.389 . S
C94 H116 0.930 . S
C95 C93 1.352 . S
C95 C97 1.374 . S
C95 H117 0.931 . S
C96 C97 1.359 . S
C96 C98 1.364 . S
C97 C95 1.374 . S
C97 C96 1.359 . S
C97 H118 0.931 . S
C98 C94 1.389 . S
C98 C96 1.364 . S
C98 H119 0.931 . S
C99 O110 1.256 . S
C99 O111 1.257 . S
O100 Gd80 2.377 . S
O100 C82 1.240 . S
O101 Gd81 2.395 . S
O101 C82 1.240 . S
O102 Gd80 2.448 . S
O102 C83 1.249 . S
O103 Gd80 2.506 . S
O103 C83 1.252 . S
O104 Gd80 2.435 . S
O104 C90 1.256 . S
O105 Gd80 2.717 . S
O105 Gd81 2.327 . S
O105 C90 1.257 . S
O106 Gd81 2.377 . S
O106 C91 1.240 . S
O107 Gd80 2.395 . S
O107 C91 1.240 . S
O108 Gd81 2.448 . S
O108 C92 1.249 . S
O109 Gd81 2.506 . S
O109 C92 1.252 . S
O110 Gd81 2.435 . S
O110 C99 1.256 . S
O111 Gd80 2.327 . S
O111 Gd81 2.717 . S
O111 C99 1.257 . S
H112 C85 0.930 . S
H113 C86 0.931 . S
H114 C88 0.931 . S
H115 C89 0.931 . S
H116 C94 0.930 . S
H117 C95 0.931 . S
H118 C97 0.931 . S
H119 C98 0.931 . S
H120 C125 0.930 . S
H121 C128 0.930 . S
H122 C130 0.930 . S
H123 C124 1.016 . S
C124 H123 1.016 . S
C124 N131 1.286 . S
C125 H120 0.930 . S
C125 C126 1.397 1_545 S
C125 C127 1.361 . S
C126 C125 1.397 1_565 S
C126 C130 1.390 . S
C127 C125 1.361 . S
C127 C128 1.393 . S
C127 N131 1.413 . S
C128 H121 0.930 . S
C128 C127 1.393 . S
C128 C129 1.399 . S
C129 C128 1.399 . S
C129 C130 1.381 1_545 S
C130 H122 0.930 . S
C130 C126 1.390 . S
C130 C129 1.381 1_565 S
N131 C124 1.286 . S
N131 C127 1.413 . S
H132 C137 0.930 . S
H133 C140 0.930 . S
H134 C142 0.930 . S
H135 C136 1.016 . S
C136 H135 1.016 . S
C136 N143 1.286 . S
C137 H132 0.930 . S
C137 C138 1.397 . S
C137 C139 1.361 . S
C138 C137 1.397 . S
C138 C142 1.390 . S
C139 C137 1.361 . S
C139 C140 1.393 . S
C139 N143 1.413 . S
C140 H133 0.930 . S
C140 C139 1.393 . S
C140 C141 1.399 . S
C141 C140 1.399 . S
C141 C142 1.381 . S
C142 H134 0.930 . S
C142 C138 1.390 . S
C142 C141 1.381 . S
N143 C136 1.286 . S
N143 C139 1.413 . S
H144 C149 0.930 . S
H145 C152 0.930 . S
H146 C154 0.911 1_655 S
H147 C148 1.016 . S
C148 H147 1.016 . S
C148 N155 1.286 . S
C149 H144 0.930 . S
C149 C150 1.397 1_455 S
C149 C151 1.361 . S
C150 C149 1.397 1_655 S
C150 C154 1.388 1_655 S
C151 C149 1.361 . S
C151 C152 1.393 . S
C151 N155 1.413 . S
C152 H145 0.930 . S
C152 C151 1.393 . S
C152 C153 1.399 . S
C153 C152 1.399 . S
C153 C154 1.403 . S
C154 H146 0.911 1_455 S
C154 C150 1.388 1_455 S
C154 C153 1.403 . S
N155 C148 1.286 . S
N155 C151 1.413 . S
H156 C161 0.930 . S
H157 C164 0.930 . S
H158 C166 0.930 . S
H159 C160 1.016 . S
C160 H159 1.016 . S
C160 N167 1.286 . S
C161 H156 0.930 . S
C161 C162 1.397 . S
C161 C163 1.361 1_455 S
C162 C161 1.397 . S
C162 C166 1.390 . S
C163 C161 1.361 1_655 S
C163 C164 1.393 . S
C163 N167 1.413 . S
C164 H157 0.930 . S
C164 C163 1.393 . S
C164 C165 1.399 1_655 S
C165 C164 1.399 1_455 S
C165 C166 1.381 . S
C166 H158 0.930 . S
C166 C162 1.390 . S
C166 C165 1.381 . S
N167 C160 1.286 . S
N167 C163 1.413 . S
H168 C173 0.930 . S
H169 C176 0.930 1_565 S
H170 C178 0.930 . S
H171 C172 1.016 . S
C172 H171 1.016 . S
C172 N179 1.286 . S
C173 H168 0.930 . S
C173 C174 1.397 . S
C173 C175 1.361 . S
C174 C173 1.397 . S
C174 C178 1.390 . S
C175 C173 1.361 . S
C175 C176 1.393 . S
C175 N179 1.413 1_545 S
C176 H169 0.930 1_545 S
C176 C175 1.393 . S
C176 C177 1.399 . S
C177 C176 1.399 . S
C177 C178 1.381 . S
C178 H170 0.930 . S
C178 C174 1.390 . S
C178 C177 1.381 . S
N179 C172 1.286 . S
N179 C175 1.413 1_565 S
H180 C185 0.930 . S
H181 C188 0.930 . S
H182 C190 0.930 . S
H183 C184 1.016 . S
C184 H183 1.016 . S
C184 N191 1.286 . S
C185 H180 0.930 . S
C185 C186 1.397 . S
C185 C187 1.361 . S
C186 C185 1.397 . S
C186 C190 1.390 . S
C187 C185 1.361 . S
C187 C188 1.393 . S
C187 N191 1.413 . S
C188 H181 0.930 . S
C188 C187 1.393 . S
C188 C189 1.399 . S
C189 C188 1.399 . S
C189 C190 1.381 . S
C190 H182 0.930 . S
C190 C186 1.390 . S
C190 C189 1.381 . S
N191 C184 1.286 . S
N191 C187 1.413 . S
C192 C193 1.369 . S
C192 C194 1.419 . S
C192 H196 0.930 . S
C193 C192 1.369 . S
C193 C202 1.429 . S
C194 C192 1.419 . S
C194 C195 1.363 . S
C194 H197 0.929 . S
C195 C194 1.363 . S
C195 C201 1.428 . S
H196 C192 0.930 . S
H197 C194 0.929 . S
S198 N199 1.613 . S
S198 N200 1.610 . S
N199 S198 1.613 . S
N199 C202 1.350 . S
N200 S198 1.610 . S
N200 C201 1.351 . S
C201 C195 1.428 . S
C201 N200 1.351 . S
C201 C202 1.434 . S
C202 C193 1.429 . S
C202 N199 1.350 . S
C202 C201 1.434 . S
C203 C204 1.369 . S
C203 C205 1.419 . S
C203 H207 0.930 . S
C204 C203 1.369 . S
C204 C213 1.429 . S
C205 C203 1.419 . S
C205 C206 1.363 . S
C205 H208 0.929 . S
C206 C205 1.363 . S
C206 C212 1.428 . S
H207 C203 0.930 . S
H208 C205 0.929 . S
S209 N210 1.613 . S
S209 N211 1.610 . S
N210 S209 1.613 . S
N210 C213 1.350 . S
N211 S209 1.610 . S
N211 C212 1.351 . S
C212 C206 1.428 . S
C212 N211 1.351 . S
C212 C213 1.434 . S
C213 C204 1.429 . S
C213 N210 1.350 . S
C213 C212 1.434 . S
C214 C215 1.369 . S
C214 C216 1.419 . S
C214 H218 0.930 . S
C215 C214 1.369 . S
C215 C224 1.429 . S
C216 C214 1.419 . S
C216 C217 1.363 . S
C216 H219 0.929 . S
C217 C216 1.363 . S
C217 C223 1.428 . S
H218 C214 0.930 . S
H219 C216 0.929 . S
S220 N221 1.613 . S
S220 N222 1.610 . S
N221 S220 1.613 . S
N221 C224 1.350 . S
N222 S220 1.610 . S
N222 C223 1.351 . S
C223 C217 1.428 . S
C223 N222 1.351 . S
C223 C224 1.434 . S
C224 C215 1.429 . S
C224 N221 1.350 . S
C224 C223 1.434 . S
C225 C226 1.369 . S
C225 C227 1.419 . S
C225 H229 0.930 . S
C226 C225 1.369 . S
C226 C235 1.429 . S
C227 C225 1.419 . S
C227 C228 1.363 . S
C227 H230 0.929 . S
C228 C227 1.363 . S
C228 C234 1.428 . S
H229 C225 0.930 . S
H230 C227 0.929 . S
S231 N232 1.613 . S
S231 N233 1.610 . S
N232 S231 1.613 . S
N232 C235 1.350 . S
N233 S231 1.610 . S
N233 C234 1.351 . S
C234 C228 1.428 . S
C234 N233 1.351 . S
C234 C235 1.434 . S
C235 C226 1.429 . S
C235 N232 1.350 . S
C235 C234 1.434 . S
C236 C237 1.369 . S
C236 C238 1.419 . S
C236 H240 0.930 . S
C237 C236 1.369 . S
C237 C246 1.429 . S
C238 C236 1.419 . S
C238 C239 1.363 . S
C238 H241 0.929 . S
C239 C238 1.363 . S
C239 C245 1.428 . S
H240 C236 0.930 . S
H241 C238 0.929 . S
S242 N243 1.613 . S
S242 N244 1.610 . S
N243 S242 1.613 . S
N243 C246 1.350 . S
N244 S242 1.610 . S
N244 C245 1.351 . S
C245 C239 1.428 . S
C245 N244 1.351 . S
C245 C246 1.434 . S
C246 C237 1.429 . S
C246 N243 1.350 . S
C246 C245 1.434 . S
C247 C248 1.369 . S
C247 C249 1.419 . S
C247 H251 0.930 . S
C248 C247 1.369 . S
C248 C257 1.429 . S
C249 C247 1.419 . S
C249 C250 1.363 . S
C249 H252 0.929 . S
C250 C249 1.363 . S
C250 C256 1.428 . S
H251 C247 0.930 . S
H252 C249 0.929 . S
S253 N254 1.613 . S
S253 N255 1.610 . S
N254 S253 1.613 . S
N254 C257 1.350 . S
N255 S253 1.610 . S
N255 C256 1.351 . S
C256 C250 1.428 . S
C256 N255 1.351 . S
C256 C257 1.434 . S
C257 C248 1.429 . S
C257 N254 1.350 . S
C257 C256 1.434 . S
C258 C259 1.369 . S
C258 C260 1.419 . S
C258 H262 0.930 . S
C259 C258 1.369 . S
C259 C268 1.429 . S
C260 C258 1.419 . S
C260 C261 1.363 . S
C260 H263 0.929 . S
C261 C260 1.363 . S
C261 C267 1.428 . S
H262 C258 0.930 . S
H263 C260 0.929 . S
S264 N265 1.613 . S
S264 N266 1.610 . S
N265 S264 1.613 . S
N265 C268 1.350 . S
N266 S264 1.610 . S
N266 C267 1.351 . S
C267 C261 1.428 . S
C267 N266 1.351 . S
C267 C268 1.434 . S
C268 C259 1.429 . S
C268 N265 1.350 . S
C268 C267 1.434 . S
C269 C270 1.369 . S
C269 C271 1.419 . S
C269 H273 0.930 . S
C270 C269 1.369 . S
C270 C279 1.429 . S
C271 C269 1.419 . S
C271 C272 1.363 . S
C271 H274 0.929 . S
C272 C271 1.363 . S
C272 C278 1.428 . S
H273 C269 0.930 . S
H274 C271 0.929 . S
S275 N276 1.613 . S
S275 N277 1.610 . S
N276 S275 1.613 . S
N276 C279 1.350 . S
N277 S275 1.610 . S
N277 C278 1.351 . S
C278 C272 1.428 . S
C278 N277 1.351 . S
C278 C279 1.434 . S
C279 C270 1.429 . S
C279 N276 1.350 . S
C279 C278 1.434 . S
C280 C281 1.369 . S
C280 C282 1.419 . S
C280 H284 0.930 . S
C281 C280 1.369 . S
C281 C290 1.429 . S
C282 C280 1.419 . S
C282 C283 1.363 . S
C282 H285 0.929 . S
C283 C282 1.363 . S
C283 C289 1.428 . S
H284 C280 0.930 . S
H285 C282 0.929 . S
S286 N287 1.613 . S
S286 N288 1.610 . S
N287 S286 1.613 . S
N287 C290 1.350 . S
N288 S286 1.610 . S
N288 C289 1.351 . S
C289 C283 1.428 . S
C289 N288 1.351 . S
C289 C290 1.434 . S
C290 C281 1.429 . S
C290 N287 1.350 . S
C290 C289 1.434 . S
C291 C292 1.369 . S
C291 C293 1.419 . S
C291 H295 0.930 . S
C292 C291 1.369 . S
C292 C301 1.429 . S
C293 C291 1.419 . S
C293 C294 1.363 . S
C293 H296 0.929 . S
C294 C293 1.363 . S
C294 C300 1.428 . S
H295 C291 0.930 . S
H296 C293 0.929 . S
S297 N298 1.613 . S
S297 N299 1.610 . S
N298 S297 1.613 . S
N298 C301 1.350 . S
N299 S297 1.610 . S
N299 C300 1.351 . S
C300 C294 1.428 . S
C300 N299 1.351 . S
C300 C301 1.434 . S
C301 C292 1.429 . S
C301 N298 1.350 . S
C301 C300 1.434 . S
C302 C303 1.369 . S
C302 C304 1.419 . S
C302 H306 0.930 . S
C303 C302 1.369 . S
C303 C312 1.429 . S
C304 C302 1.419 . S
C304 C305 1.363 . S
C304 H307 0.929 . S
C305 C304 1.363 . S
C305 C311 1.428 . S
H306 C302 0.930 . S
H307 C304 0.929 . S
S308 N309 1.613 . S
S308 N310 1.610 . S
N309 S308 1.613 . S
N309 C312 1.350 . S
N310 S308 1.610 . S
N310 C311 1.351 . S
C311 C305 1.428 . S
C311 N310 1.351 . S
C311 C312 1.434 . S
C312 C303 1.429 . S
C312 N309 1.350 . S
C312 C311 1.434 . S
C313 C314 1.369 . S
C313 C315 1.419 . S
C313 H317 0.930 . S
C314 C313 1.369 . S
C314 C323 1.429 . S
C315 C313 1.419 . S
C315 C316 1.363 . S
C315 H318 0.929 . S
C316 C315 1.363 . S
C316 C322 1.428 . S
H317 C313 0.930 . S
H318 C315 0.929 . S
S319 N320 1.613 . S
S319 N321 1.610 . S
N320 S319 1.613 . S
N320 C323 1.350 . S
N321 S319 1.610 . S
N321 C322 1.351 . S
C322 C316 1.428 . S
C322 N321 1.351 . S
C322 C323 1.434 . S
C323 C314 1.429 . S
C323 N320 1.350 . S
C323 C322 1.434 . S
C324 C325 1.369 . S
C324 C326 1.395 1_554 S
C324 H328 0.930 . S
C325 C324 1.369 . S
C325 C334 1.429 . S
C326 C324 1.395 1_556 S
C326 C327 1.373 . S
C326 H329 0.943 . S
C327 C326 1.373 . S
C327 C333 1.428 1_456 S
H328 C324 0.930 . S
H329 C326 0.943 . S
S330 N331 1.613 . S
S330 N332 1.610 1_554 S
N331 S330 1.613 . S
N331 C334 1.350 1_655 S
N332 S330 1.610 1_556 S
N332 C333 1.351 1_556 S
C333 C327 1.428 1_654 S
C333 N332 1.351 1_554 S
C333 C334 1.434 1_655 S
C334 C325 1.429 . S
C334 N331 1.350 1_455 S
C334 C333 1.434 1_455 S
C335 C336 1.369 . S
C335 C337 1.419 . S
C335 H339 0.930 . S
C336 C335 1.369 . S
C336 C345 1.429 . S
C337 C335 1.419 . S
C337 C338 1.363 . S
C337 H340 0.929 . S
C338 C337 1.363 . S
C338 C344 1.428 . S
H339 C335 0.930 . S
H340 C337 0.929 . S
S341 N342 1.613 . S
S341 N343 1.610 . S
N342 S341 1.613 . S
N342 C345 1.350 . S
N343 S341 1.610 . S
N343 C344 1.351 . S
C344 C338 1.428 . S
C344 N343 1.351 . S
C344 C345 1.434 . S
C345 C336 1.429 . S
C345 N342 1.350 . S
C345 C344 1.434 . S
C346 C347 1.369 . S
C346 C348 1.419 . S
C346 H350 0.930 . S
C347 C346 1.369 . S
C347 C356 1.429 . S
C348 C346 1.419 . S
C348 C349 1.363 . S
C348 H351 0.929 . S
C349 C348 1.363 . S
C349 C355 1.428 . S
H350 C346 0.930 . S
H351 C348 0.929 . S
S352 N353 1.613 . S
S352 N354 1.610 . S
N353 S352 1.613 . S
N353 C356 1.350 . S
N354 S352 1.610 . S
N354 C355 1.351 . S
C355 C349 1.428 . S
C355 N354 1.351 . S
C355 C356 1.434 . S
C356 C347 1.429 . S
C356 N353 1.350 . S
C356 C355 1.434 . S
C357 C358 1.369 . S
C357 C359 1.419 . S
C357 H361 0.930 . S
C358 C357 1.369 . S
C358 C367 1.429 . S
C359 C357 1.419 . S
C359 C360 1.363 . S
C359 H362 0.929 . S
C360 C359 1.363 . S
C360 C366 1.428 . S
H361 C357 0.930 . S
H362 C359 0.929 . S
S363 N364 1.613 . S
S363 N365 1.610 . S
N364 S363 1.613 . S
N364 C367 1.350 1_565 S
N365 S363 1.610 . S
N365 C366 1.351 1_565 S
C366 C360 1.428 . S
C366 N365 1.351 1_545 S
C366 C367 1.434 . S
C367 C358 1.429 . S
C367 N364 1.350 1_545 S
C367 C366 1.434 . S
C368 C369 1.369 . S
C368 C370 1.419 . S
C368 H372 0.930 . S
C369 C368 1.369 . S
C369 C378 1.429 . S
C370 C368 1.419 . S
C370 C371 1.363 1_556 S
C370 H373 0.929 . S
C371 C370 1.363 1_554 S
C371 C377 1.428 . S
H372 C368 0.930 . S
H373 C370 0.929 . S
S374 N375 1.613 1_554 S
S374 N376 1.610 . S
N375 S374 1.613 1_556 S
N375 C378 1.350 . S
N376 S374 1.610 . S
N376 C377 1.351 . S
C377 C371 1.428 . S
C377 N376 1.351 . S
C377 C378 1.434 1_554 S
C378 C369 1.429 . S
C378 N375 1.350 . S
C378 C377 1.434 1_556 S
C379 C380 1.369 . S
C379 C381 1.419 1_455 S
C379 H383 0.930 1_455 S
C380 C379 1.369 . S
C380 C389 1.429 . S
C381 C379 1.419 1_655 S
C381 C382 1.363 1_655 S
C381 H384 0.929 . S
C382 C381 1.363 1_455 S
C382 C388 1.428 . S
H383 C379 0.930 1_655 S
H384 C381 0.929 . S
S385 N386 1.613 . S
S385 N387 1.610 . S
N386 S385 1.613 . S
N386 C389 1.350 . S
N387 S385 1.610 . S
N387 C388 1.351 . S
C388 C382 1.428 . S
C388 N387 1.351 . S
C388 C389 1.434 . S
C389 C380 1.429 . S
C389 N386 1.350 . S
C389 C388 1.434 . S
C193 C7 1.189 . S
C195 C186 1.321 . S
C204 C51 1.963 . S
C206 C160 1.887 . S
C215 C87 1.377 . S
C217 C172 1.427 . S
C226 C16 0.609 . S
C228 C184 0.487 . S
C239 C162 1.873 . S
C237 C42 1.928 . S
C250 C174 1.278 . S
C248 C96 1.256 . S
C259 C47 1.356 . S
C261 C136 1.386 . S
C270 C91 3.323 . S
C272 C150 3.293 . S
C281 C2 1.955 . S
C283 C126 1.932 . S
C294 C138 1.291 . S
C292 C56 1.261 . S
C305 C148 2.786 . S
C303 C82 2.905 . S
C314 C11 1.977 . S
C316 C124 1.910 . S
C327 C153 1.817 . S
C325 C19 1.712 . S
C336 C50 1.398 . S
C338 C129 1.456 . S
C347 C99 1.503 . S
C349 C141 1.520 . S
C360 C177 1.510 . S
C358 C59 1.506 . S
C371 C189 1.198 . S
C369 C90 1.185 . S
C380 C10 1.388 . S
C382 C165 1.418 . S
