# Generated by pormake.
# Topology zzz, (3,6)-cn, num edge types: 1
# Building blocks:
#     Node 0, Type 0, BuildingBlock: ESEHIV_clean_linker_0, # of connection points: 3
#     Node 1, Type 0, BuildingBlock: ESEHIV_clean_linker_0, # of connection points: 3
#     Node 2, Type 0, BuildingBlock: ESEHIV_clean_linker_0, # of connection points: 3
#     Node 3, Type 0, BuildingBlock: ESEHIV_clean_linker_0, # of connection points: 3
#     Node 4, Type 0, BuildingBlock: ESEHIV_clean_linker_0, # of connection points: 3
#     Node 5, Type 0, BuildingBlock: ESEHIV_clean_linker_0, # of connection points: 3
#     Node 6, Type 0, BuildingBlock: ESEHIV_clean_linker_0, # of connection points: 3
#     Node 7, Type 0, BuildingBlock: ESEHIV_clean_linker_0, # of connection points: 3
#     Node 8, Type 1, BuildingBlock: KUMBOL_clean_sbu_0, # of connection points: 6
#     Node 9, Type 1, BuildingBlock: KUMBOL_clean_sbu_0, # of connection points: 6
#     Node 10, Type 1, BuildingBlock: KUMBOL_clean_sbu_0, # of connection points: 6
#     Node 11, Type 1, BuildingBlock: KUMBOL_clean_sbu_0, # of connection points: 6
#     Edge 12, Type (0, 1), BuildingBlock: AJUNOK_clean_linker_0, # of connection points: 2
#     Edge 13, Type (0, 1), BuildingBlock: AJUNOK_clean_linker_0, # of connection points: 2
#     Edge 14, Type (0, 1), BuildingBlock: AJUNOK_clean_linker_0, # of connection points: 2
#     Edge 15, Type (0, 1), BuildingBlock: AJUNOK_clean_linker_0, # of connection points: 2
#     Edge 16, Type (0, 1), BuildingBlock: AJUNOK_clean_linker_0, # of connection points: 2
#     Edge 17, Type (0, 1), BuildingBlock: AJUNOK_clean_linker_0, # of connection points: 2
#     Edge 18, Type (0, 1), BuildingBlock: AJUNOK_clean_linker_0, # of connection points: 2
#     Edge 19, Type (0, 1), BuildingBlock: AJUNOK_clean_linker_0, # of connection points: 2
#     Edge 20, Type (0, 1), BuildingBlock: AJUNOK_clean_linker_0, # of connection points: 2
#     Edge 21, Type (0, 1), BuildingBlock: AJUNOK_clean_linker_0, # of connection points: 2
#     Edge 22, Type (0, 1), BuildingBlock: AJUNOK_clean_linker_0, # of connection points: 2
#     Edge 23, Type (0, 1), BuildingBlock: AJUNOK_clean_linker_0, # of connection points: 2
#     Edge 24, Type (0, 1), BuildingBlock: AJUNOK_clean_linker_0, # of connection points: 2
#     Edge 25, Type (0, 1), BuildingBlock: AJUNOK_clean_linker_0, # of connection points: 2
#     Edge 26, Type (0, 1), BuildingBlock: AJUNOK_clean_linker_0, # of connection points: 2
#     Edge 27, Type (0, 1), BuildingBlock: AJUNOK_clean_linker_0, # of connection points: 2
#     Edge 28, Type (0, 1), BuildingBlock: AJUNOK_clean_linker_0, # of connection points: 2
#     Edge 29, Type (0, 1), BuildingBlock: AJUNOK_clean_linker_0, # of connection points: 2
#     Edge 30, Type (0, 1), BuildingBlock: AJUNOK_clean_linker_0, # of connection points: 2
#     Edge 31, Type (0, 1), BuildingBlock: AJUNOK_clean_linker_0, # of connection points: 2
#     Edge 32, Type (0, 1), BuildingBlock: AJUNOK_clean_linker_0, # of connection points: 2
#     Edge 33, Type (0, 1), BuildingBlock: AJUNOK_clean_linker_0, # of connection points: 2
#     Edge 34, Type (0, 1), BuildingBlock: AJUNOK_clean_linker_0, # of connection points: 2
#     Edge 35, Type (0, 1), BuildingBlock: AJUNOK_clean_linker_0, # of connection points: 2
# Relax obj value: 0.419
# Max RMSD: 0.237
# Mean RMSD: 0.217
data_MOF--net-zzz--node1-KUMBOL_clean_sbu_0--node2-ESEHIV_clean_linker_0--edge1-AJUNOK_clean_linker_0
_symmetry_space_group_name_H-M    P1
_symmetry_Int_Tables_number       1
_symmetry_cell_setting            triclinic
loop_
_symmetry_equiv_pos_as_xyz
'x, y, z'
_cell_length_a     31.040434
_cell_length_b     31.187474
_cell_length_c     11.17566
_cell_angle_alpha  92.07521
_cell_angle_beta   89.972639
_cell_angle_gamma 89.833076
loop_
_atom_site_label
_atom_site_type_symbol
_atom_site_fract_x
_atom_site_fract_y
_atom_site_fract_z
_atom_type_partial_charge
H0 H 0.8365 0.64336 0.33257 0.0
H1 H 0.71454 0.6552 0.16716 0.0
H2 H 0.74979 0.5367 0.33497 0.0
C3 C 0.80514 0.63012 0.31147 0.0
C4 C 0.79418 0.59076 0.3609 0.0
C5 C 0.77869 0.65063 0.22854 0.0
C6 C 0.73703 0.63483 0.21225 0.0
C7 C 0.72746 0.59131 0.22968 0.0
C8 C 0.75625 0.5693 0.31102 0.0
H9 H 0.10173 0.85152 0.28823 0.0
H10 H 0.09552 0.73308 0.09157 0.0
H11 H 1.00444 0.75927 0.37813 0.0
C12 C 0.08801 0.81955 0.28197 0.0
C13 C 0.05503 0.8082 0.36072 0.0
C14 C 0.10263 0.79221 0.18959 0.0
C15 C 0.08375 0.7527 0.16679 0.0
C16 C 0.04762 0.73986 0.22957 0.0
C17 C 0.03267 0.76805 0.329 0.0
H18 H 0.71551 0.90438 0.27858 0.0
H19 H 0.83279 0.90524 0.07894 0.0
H20 H 0.79957 1.0135 0.30861 0.0
C21 C 0.74545 0.91987 0.25685 0.0
C22 C 0.75463 0.95979 0.31381 0.0
C23 C 0.77038 0.90318 0.15984 0.0
C24 C 0.81153 0.92057 0.14381 0.0
C25 C 0.82255 0.96144 0.18988 0.0
C26 C 0.79272 0.98178 0.27373 0.0
H27 H 0.44052 0.7361 0.38301 0.0
H28 H 0.56194 0.79803 0.3302 0.0
H29 H 0.44488 0.85091 0.18553 0.0
C30 C 0.4584 0.76349 0.35291 0.0
C31 C 0.43785 0.7936 0.28176 0.0
C32 C 0.50261 0.76509 0.37735 0.0
C33 C 0.52737 0.79792 0.32126 0.0
C34 C 0.50635 0.83061 0.25355 0.0
C35 C 0.46146 0.82798 0.23997 0.0
H36 H 0.22278 0.41414 0.15885 0.0
H37 H 0.33253 0.40199 0.37641 0.0
H38 H 0.30623 0.52285 0.20555 0.0
C39 C 0.25192 0.42823 0.19461 0.0
C40 C 0.26241 0.46989 0.16169 0.0
C41 C 0.2744 0.4061 0.28181 0.0
C42 C 0.3134 0.42295 0.32304 0.0
C43 C 0.32549 0.46607 0.30626 0.0
C44 C 0.29892 0.48987 0.22307 0.0
H45 H 0.92384 0.22862 0.20183 0.0
H46 H 0.93325 0.34912 0.38545 0.0
H47 H 0.03185 0.30999 0.12941 0.0
C48 C 0.94013 0.25927 0.20933 0.0
C49 C 0.97623 0.26699 0.13693 0.0
C50 C 0.92387 0.28964 0.2927 0.0
C51 C 0.94682 0.32648 0.3203 0.0
C52 C 0.98715 0.33409 0.27018 0.0
C53 C 1.00187 0.30432 0.17418 0.0
H54 H 0.3494 0.12928 0.09606 0.0
H55 H 0.24541 0.12718 0.33569 0.0
H56 H 0.25287 0.02942 0.05403 0.0
C57 C 0.31886 0.11488 0.11857 0.0
C58 C 0.30537 0.07709 0.05606 0.0
C59 C 0.3041 0.12265 0.23566 0.0
C60 C 0.26053 0.11413 0.25484 0.0
C61 C 0.24041 0.07977 0.19287 0.0
C62 C 0.26493 0.05871 0.09636 0.0
H63 H 0.60912 0.31486 0.12592 0.0
H64 H 0.49284 0.24112 0.14686 0.0
H65 H 0.61136 0.19494 0.30069 0.0
C66 C 0.59303 0.28568 0.15081 0.0
C67 C 0.61509 0.25577 0.21934 0.0
C68 C 0.54967 0.28087 0.11935 0.0
C69 C 0.52692 0.24452 0.16411 0.0
C70 C 0.54935 0.21239 0.23041 0.0
C71 C 0.59364 0.21858 0.25196 0.0
Gd72 Gd 0.98604 0.05213 0.59925 0.0
Gd73 Gd 0.06839 0.03878 0.80573 0.0
C74 C 0.07063 0.13011 0.13598 0.0
C75 C 0.11992 0.18504 0.0724 0.0
C76 C 0.09963 0.12602 0.9347 0.0
C77 C 0.0754 0.10807 1.02397 0.0
C78 C 0.12312 0.16423 0.95932 0.0
C79 C 0.09241 0.1689 0.15891 0.0
C80 C 0.04532 0.11169 0.22354 0.0
C81 C 0.03164 0.06958 0.2057 0.0
N82 N 0.05702 0.06902 1.00243 0.0
C83 C 0.04015 0.0478 0.09732 0.0
H84 H 0.03278 1.01393 0.09092 0.0
C85 C 0.11954 0.12663 0.73076 0.0
N86 N 0.09764 0.10829 0.82187 0.0
C87 C 0.1442 0.16357 0.75167 0.0
C88 C 0.1463 0.18231 0.86659 0.0
H89 H 0.1192 0.11266 0.64194 0.0
H90 H 0.08928 0.18594 0.24472 0.0
H91 H 0.04352 0.99359 0.39473 0.0
H92 H 0.03922 0.12829 0.30875 0.0
H93 H 1.01579 0.05332 0.27641 0.0
H94 H 0.137 0.21473 0.09192 0.0
H95 H 0.88538 0.07632 0.69813 0.0
H96 H 0.9642 0.89263 0.25398 0.0
H97 H 0.03298 0.93216 0.2554 0.0
H98 H 0.83017 0.91436 0.45822 0.0
H99 H 0.16159 0.17759 0.67884 0.0
H100 H 0.16463 0.21152 0.88182 0.0
H101 H 0.88953 0.88468 0.3356 0.0
H102 H 0.81292 0.04471 0.69184 0.0
N103 N 0.98127 0.98976 0.47406 0.0
C104 C 0.96841 0.92003 0.31521 0.0
C105 C 1.00733 0.94219 0.31588 0.0
C106 C 0.93533 0.93357 0.39302 0.0
C107 C 0.94252 0.96939 0.47149 0.0
C108 C 1.01319 0.97715 0.39586 0.0
N109 N 0.91569 0.02275 0.60792 0.0
C110 C 0.90905 0.9859 0.54181 0.0
C111 C 0.83979 0.02726 0.65208 0.0
C112 C 0.83315 0.98794 0.592 0.0
C113 C 0.88106 0.0449 0.65619 0.0
C114 C 0.8677 0.96712 0.53415 0.0
H115 H 0.80083 0.97511 0.58529 0.0
O116 O 0.95673 0.06005 0.42477 0.0
O117 O 0.02693 0.09249 0.73426 0.0
O118 O 1.00643 1.01718 0.90066 0.0
O119 O 0.95175 0.02676 0.7641 0.0
O120 O 0.96068 0.09806 0.74178 0.0
O121 O 0.97138 0.11585 0.5335 0.0
O122 O 0.13742 0.03393 0.77517 0.0
O123 O 0.03648 1.00403 0.64916 0.0
O124 O 0.05104 0.06351 0.49878 0.0
O125 O 0.10216 0.03417 0.62213 0.0
O126 O 0.04883 0.96796 0.79444 0.0
O127 O 0.11006 1.0113 0.93845 0.0
C128 C 0.99567 0.11356 0.78752 0.0
C129 C 0.8615 0.92959 0.46333 0.0
C130 C 0.89525 0.91281 0.39309 0.0
C131 C 0.94896 0.10043 0.44383 0.0
C132 C 0.90301 0.11386 0.43779 0.0
C133 C 0.86981 0.08433 0.41042 0.0
C134 C 0.89172 0.15632 0.46742 0.0
C135 C 0.84809 0.16936 0.47347 0.0
C136 C 0.82657 0.09663 0.42341 0.0
C137 C 0.81568 0.13884 0.45495 0.0
C138 C 0.96494 1.01717 0.87235 0.0
C139 C 0.03241 0.9657 0.68752 0.0
C140 C 0.14505 1.01571 0.87543 0.0
C141 C 0.17569 0.97978 0.86962 0.0
C142 C 0.21795 0.98513 0.82792 0.0
C143 C 0.16306 0.93997 0.9084 0.0
C144 C 0.19069 0.90447 0.89921 0.0
C145 C 0.2467 0.95037 0.82475 0.0
C146 C 0.23307 0.90988 0.85919 0.0
C147 C 0.09126 0.04971 0.51743 0.0
H148 H 0.87706 0.05136 0.38409 0.0
H149 H 0.91728 0.17961 0.48097 0.0
H150 H 0.80105 0.07373 0.40889 0.0
H151 H 0.78203 0.14809 0.45935 0.0
H152 H 0.22884 1.01617 0.79975 0.0
H153 H 0.13132 0.93661 0.94733 0.0
H154 H 0.27961 0.95488 0.79644 0.0
H155 H 0.25543 0.88314 0.85541 0.0
Gd156 Gd 0.5158 0.96625 0.63212 0.0
Gd157 Gd 0.5524 0.0595 0.79351 0.0
C158 C 0.46514 0.15916 0.98305 0.0
C159 C 0.46879 0.21915 0.85111 0.0
C160 C 0.51163 0.15482 0.8101 0.0
C161 C 0.49388 0.13578 0.90758 0.0
C162 C 0.49993 0.19702 0.78171 0.0
C163 C 0.4514 0.20021 0.95189 0.0
C164 C 0.45333 0.14174 0.09128 0.0
C165 C 0.47145 0.10289 0.12307 0.0
N166 N 0.50718 0.09563 0.93376 0.0
C167 C 0.49738 0.07948 0.04209 0.0
H168 H 0.51059 0.04935 0.06897 0.0
C169 C 0.56411 0.15225 0.65711 0.0
N170 N 0.54173 0.1325 0.7455 0.0
C171 C 0.55323 0.19379 0.62475 0.0
C172 C 0.52041 0.21595 0.68574 0.0
H173 H 0.58905 0.1355 0.60706 0.0
H174 H 0.42875 0.21826 1.00787 0.0
H175 H 0.54407 0.99958 0.34893 0.0
H176 H 0.43265 0.15925 0.15419 0.0
H177 H 0.46669 0.09174 0.21202 0.0
H178 H 0.45908 0.25142 0.83007 0.0
H179 H 0.50385 0.87573 0.78588 0.0
H180 H 0.64258 0.91795 0.21576 0.0
H181 H 0.59931 0.98333 0.20204 0.0
H182 H 0.63961 0.7994 0.47485 0.0
H183 H 0.56947 0.20834 0.55101 0.0
H184 H 0.51154 0.24784 0.65921 0.0
H185 H 0.65702 0.84865 0.31528 0.0
H186 H 0.53508 0.80319 0.79048 0.0
N187 N 0.56007 0.94796 0.46334 0.0
C188 C 0.61948 0.9256 0.28468 0.0
C189 C 0.59519 0.96277 0.27721 0.0
C190 C 0.61213 0.89795 0.3777 0.0
C191 C 0.58199 0.91024 0.46733 0.0
C192 C 0.56435 0.97259 0.36473 0.0
N193 N 0.54353 0.89545 0.64201 0.0
C194 C 0.57302 0.88294 0.55842 0.0
C195 C 0.54624 0.8253 0.7249 0.0
C196 C 0.57905 0.81326 0.64542 0.0
C197 C 0.52855 0.86647 0.72159 0.0
C198 C 0.59254 0.84197 0.55997 0.0
H199 H 0.59294 0.78141 0.64881 0.0
O200 O 0.46415 0.91964 0.63619 0.0
O201 O 0.49193 0.02369 0.7442 0.0
O202 O 0.54291 1.00277 0.92096 0.0
O203 O 0.55386 0.94423 0.79315 0.0
O204 O 0.46833 0.96545 0.78783 0.0
O205 O 0.46845 0.9623 0.48899 0.0
O206 O 0.61044 0.09668 0.82408 0.0
O207 O 0.57604 1.00238 0.67901 0.0
O208 O 0.51408 0.02703 0.51552 0.0
O209 O 0.50866 0.08431 0.64995 0.0
O210 O 0.5997 0.06093 0.63789 0.0
O211 O 0.59042 0.05094 0.95421 0.0
C212 C 0.46452 1.0059 0.81233 0.0
C213 C 0.62384 0.83042 0.47398 0.0
C214 C 0.63362 0.8584 0.38289 0.0
C215 C 0.44422 0.93563 0.54665 0.0
C216 C 0.4002 0.95003 0.57471 0.0
C217 C 0.36501 0.92206 0.56684 0.0
C218 C 0.39312 0.99356 0.60158 0.0
C219 C 0.35227 1.01098 0.58449 0.0
C220 C 0.32309 0.93877 0.57448 0.0
C221 C 0.31664 0.98333 0.57912 0.0
C222 C 0.55053 0.96088 0.90311 0.0
C223 C 0.60245 0.0209 0.60944 0.0
C224 C 0.62175 0.07451 0.91512 0.0
C225 C 0.66461 0.0545 0.90439 0.0
C226 C 0.70073 0.08055 0.89014 0.0
C227 C 0.66952 1.00961 0.89957 0.0
C228 C 0.71068 0.99061 0.89011 0.0
C229 C 0.74134 0.06216 0.87468 0.0
C230 C 0.74659 1.01775 0.87771 0.0
C231 C 0.50795 0.06887 0.53896 0.0
H232 H 0.36987 0.88793 0.55081 0.0
H233 H 0.42038 1.01524 0.60365 0.0
H234 H 0.29572 0.91745 0.56629 0.0
H235 H 0.28452 0.99593 0.56543 0.0
H236 H 0.69744 0.11516 0.88992 0.0
H237 H 0.64121 0.98964 0.90474 0.0
H238 H 0.76898 0.08257 0.86294 0.0
H239 H 0.77911 1.00523 0.87528 0.0
Gd240 Gd 0.48604 0.54276 0.85914 0.0
Gd241 Gd 0.57206 0.5075 0.66364 0.0
C242 C 0.70714 0.51872 0.8272 0.0
C243 C 0.73894 0.57572 0.71522 0.0
C244 C 0.66424 0.55515 0.68082 0.0
C245 C 0.66751 0.52488 0.76778 0.0
C246 C 0.70038 0.58038 0.65228 0.0
C247 C 0.74248 0.54466 0.80156 0.0
C248 C 0.71095 0.48504 0.90552 0.0
C249 C 0.67636 0.45747 0.92001 0.0
N250 N 0.63336 0.4988 0.78644 0.0
C251 C 0.63792 0.46452 0.85873 0.0
H252 H 0.61233 0.44204 0.87042 0.0
C253 C 0.62957 0.5751 0.50406 0.0
N254 N 0.62844 0.55492 0.61126 0.0
C255 C 0.66283 0.60317 0.47753 0.0
C256 C 0.69817 0.60655 0.55362 0.0
H257 H 0.6045 0.56954 0.4383 0.0
H258 H 0.7733 0.53961 0.84381 0.0
H259 H 0.4424 0.60557 0.65119 0.0
H260 H 0.74084 0.47919 0.95208 0.0
H261 H 0.6793 0.43057 0.97803 0.0
H262 H 0.76703 0.59412 0.69229 0.0
H263 H 0.45786 0.48377 0.09407 0.0
H264 H 0.31331 0.56644 0.58509 0.0
H265 H 0.37402 0.61521 0.54889 0.0
H266 H 0.2911 0.45709 0.86558 0.0
H267 H 0.66186 0.62089 0.39613 0.0
H268 H 0.72493 0.62688 0.5303 0.0
H269 H 0.2827 0.50753 0.70293 0.0
H270 H 0.40018 0.43479 0.15202 0.0
N271 N 0.42306 0.54968 0.74216 0.0
C272 C 0.34382 0.5615 0.62969 0.0
C273 C 0.37792 0.58912 0.60933 0.0
C274 C 0.34889 0.52902 0.7114 0.0
C275 C 0.38938 0.52376 0.76722 0.0
C276 C 0.41716 0.58314 0.66767 0.0
N277 N 0.43075 0.49616 0.92306 0.0
C278 C 0.39401 0.49484 0.85738 0.0
C279 C 0.39818 0.45088 0.068 0.0
C280 C 0.36177 0.44642 0.99642 0.0
C281 C 0.43128 0.47786 0.03319 0.0
C282 C 0.35826 0.47059 0.894 0.0
H283 H 0.33528 0.42682 1.02575 0.0
O284 O 0.46044 0.56439 0.03171 0.0
O285 O 0.5586 0.54451 0.83731 0.0
O286 O 0.54791 0.44864 0.76425 0.0
O287 O 0.50228 0.47438 0.91399 0.0
O288 O 0.53503 0.53514 1.00757 0.0
O289 O 0.46808 0.60974 0.89269 0.0
O290 O 0.59997 0.4878 0.49254 0.0
O291 O 0.49969 0.50594 0.68631 0.0
O292 O 0.50832 0.60065 0.75052 0.0
O293 O 0.55369 0.57443 0.60062 0.0
O294 O 0.5227 0.51424 0.51511 0.0
O295 O 0.59013 0.44072 0.6261 0.0
C296 C 0.56994 0.53835 0.94591 0.0
C297 C 0.31878 0.47451 0.83531 0.0
C298 C 0.31402 0.50355 0.74395 0.0
C299 C 0.45039 0.6022 0.99517 0.0
C300 C 0.40503 0.61651 1.01079 0.0
C301 C 0.37055 0.58745 1.01493 0.0
C302 C 0.39624 0.66019 1.02738 0.0
C303 C 0.35389 0.67489 0.05023 0.0
C304 C 0.3282 0.60193 0.03049 0.0
C305 C 0.31978 0.6456 0.04929 0.0
C306 C 0.52464 0.44265 0.8623 0.0
C307 C 0.48793 0.51133 0.5778 0.0
C308 C 0.6087 0.4492 0.52552 0.0
C309 C 0.65365 0.43371 0.50921 0.0
C310 C 0.68906 0.4618 0.51076 0.0
C311 C 0.66091 0.39021 0.482 0.0
C312 C 0.70251 0.37496 0.45251 0.0
C313 C 0.73067 0.44656 0.48609 0.0
C314 C 0.73741 0.40329 0.45515 0.0
C315 C 0.53074 0.60614 0.65054 0.0
H316 H 0.37619 0.55358 1.01255 0.0
H317 H 0.42295 0.68258 0.03062 0.0
H318 H 0.30214 0.57902 0.03319 0.0
H319 H 0.28717 0.65629 0.06833 0.0
H320 H 0.68458 0.49573 0.52441 0.0
H321 H 0.63358 0.36861 0.4757 0.0
H322 H 0.75745 0.46874 0.48594 0.0
H323 H 0.76934 0.39221 0.42969 0.0
Gd324 Gd 1.00351 0.49078 0.86066 0.0
Gd325 Gd 0.04974 0.56926 0.67974 0.0
C326 C 0.05478 0.71485 0.7415 0.0
C327 C 0.9977 0.73843 0.61059 0.0
C328 C 1.01706 0.66299 0.61531 0.0
C329 C 0.04632 0.67189 0.70562 0.0
C330 C 0.99226 0.69609 0.56696 0.0
C331 C 0.0301 0.74797 0.69396 0.0
C332 C 0.08807 0.72323 0.82278 0.0
C333 C 0.11187 0.68931 0.8665 0.0
N334 N 0.06808 0.63885 0.75381 0.0
C335 C 0.10163 0.64724 0.83042 0.0
H336 H 0.12194 0.62223 0.86193 0.0
C337 C 0.99003 0.61306 0.47072 0.0
N338 N 1.01398 0.62213 0.5714 0.0
C339 C 0.96269 0.64388 0.42565 0.0
C340 C 0.9633 0.68566 0.47482 0.0
H341 H 0.98845 0.58101 0.43176 0.0
H342 H 0.03557 0.78099 0.72098 0.0
H343 H 0.94014 0.43727 0.65901 0.0
H344 H 0.09654 0.75569 0.84935 0.0
H345 H 0.13858 0.69554 0.92685 0.0
H346 H 0.97828 0.76425 0.57691 0.0
H347 H 0.04572 0.47182 0.12792 0.0
H348 H 0.98144 0.30668 0.63095 0.0
H349 H 0.93035 0.36445 0.57831 0.0
H350 H 0.08979 0.2988 0.9331 0.0
H351 H 0.9407 0.63447 0.35506 0.0
H352 H 0.94225 0.70986 0.4395 0.0
H353 H 0.04284 0.28308 0.75933 0.0
H354 H 0.08345 0.41321 0.22755 0.0
N355 N 0.99445 0.42195 0.76674 0.0
C356 C 0.98518 0.33877 0.66968 0.0
C357 C 0.95685 0.37126 0.63819 0.0
C358 C 1.01667 0.34762 0.75606 0.0
C359 C 1.01967 0.38978 0.80569 0.0
C360 C 0.96228 0.41284 0.68623 0.0
N361 N 0.04025 0.43682 0.96195 0.0
C362 C 0.0444 0.39791 0.90541 0.0
C363 C 0.07543 0.40975 0.13408 0.0
C364 C 0.08583 0.37195 0.07009 0.0
C365 C 0.05298 0.44232 0.07833 0.0
C366 C 0.06842 0.36475 0.95609 0.0
H367 H 0.10331 0.34684 0.11389 0.0
O368 O 0.97065 0.49768 0.03235 0.0
O369 O 1.01269 0.56273 0.84806 0.0
O370 O 0.09645 0.55412 0.83526 0.0
O371 O 0.07745 0.48499 0.88079 0.0
O372 O 0.02191 0.53808 1.01323 0.0
O373 O 0.93785 0.46884 0.87978 0.0
O374 O 0.08573 0.58735 0.52345 0.0
O375 O 0.03622 0.49822 0.6837 0.0
O376 O 0.95332 0.50983 0.71791 0.0
O377 O 0.97573 0.57768 0.67494 0.0
O378 O 0.02748 0.52641 0.52328 0.0
O379 O 0.11643 0.54974 0.65833 0.0
C380 C 0.02158 0.57347 0.95721 0.0
C381 C 0.07031 0.32422 0.89752 0.0
C382 C 0.04367 0.31533 0.79872 0.0
C383 C 0.93446 0.48311 0.98973 0.0
C384 C 0.89573 0.50829 1.01705 0.0
C385 C 0.86044 0.48661 0.06355 0.0
C386 C 0.89239 0.55226 0.99146 0.0
C387 C 0.85292 0.57384 1.00977 0.0
C388 C 0.82157 0.50786 0.08228 0.0
C389 C 0.8177 0.55076 0.05431 0.0
C390 C 0.10596 0.5169 0.88391 0.0
C391 C 0.02568 0.49021 0.57375 0.0
C392 C 0.11769 0.5619 0.54849 0.0
C393 C 0.12842 0.52842 0.45689 0.0
C394 C 0.11893 0.53614 0.3375 0.0
C395 C 0.14404 0.48757 0.48767 0.0
C396 C 0.15263 0.45561 0.39798 0.0
C397 C 0.12532 0.50438 0.25004 0.0
C398 C 0.14467 0.46588 0.27818 0.0
C399 C 0.94593 0.54718 0.66858 0.0
H400 H 0.8628 0.45294 0.08364 0.0
H401 H 0.91985 0.56916 0.95644 0.0
H402 H 0.79425 0.49102 0.11802 0.0
H403 H 0.78684 0.56607 0.06842 0.0
H404 H 0.10581 0.56661 0.31214 0.0
H405 H 0.14893 0.48097 0.58082 0.0
H406 H 0.11528 0.5098 0.15982 0.0
H407 H 0.15287 0.44405 0.20442 0.0
C408 C 0.16563 0.09773 0.27574 0.0
C409 C 0.19748 0.06603 0.24883 0.0
C410 C 0.13179 0.09192 0.35964 0.0
C411 C 0.12641 0.05358 0.42083 0.0
H412 H 0.1689 0.12898 0.23778 0.0
H413 H 0.11116 0.11897 0.38243 0.0
S414 S 0.20175 0.9606 0.39113 0.0
N415 N 0.22184 0.99506 0.29752 0.0
N416 N 0.15808 0.9834 0.45006 0.0
C417 C 0.15779 0.0213 0.3945 0.0
C418 C 0.19274 0.02747 0.30963 0.0
C419 C 0.55276 0.13327 0.28013 0.0
C420 C 0.52972 0.17272 0.28633 0.0
C421 C 0.54341 0.09883 0.35515 0.0
C422 C 0.50998 0.10122 0.4405 0.0
H423 H 0.58007 0.12964 0.22019 0.0
H424 H 0.5646 0.07125 0.35118 0.0
S425 S 0.43528 0.19386 0.48438 0.0
N426 N 0.46878 0.20967 0.3798 0.0
N427 N 0.45075 0.14499 0.51812 0.0
C428 C 0.48464 0.13909 0.44245 0.0
C429 C 0.49437 0.17448 0.3661 0.0
C430 C 0.37861 0.46048 0.48556 0.0
C431 C 0.36499 0.48257 0.38153 0.0
C432 C 0.4176 0.4693 0.54773 0.0
C433 C 0.44461 0.50306 0.51688 0.0
H434 H 0.35895 0.43592 0.52332 0.0
H435 H 0.42629 0.4497 0.62211 0.0
S436 S 0.42042 0.58085 0.28348 0.0
N437 N 0.38067 0.54594 0.26902 0.0
N438 N 0.45214 0.56347 0.38947 0.0
C439 C 0.43063 0.52773 0.42054 0.0
C440 C 0.39121 0.51805 0.3544 0.0
C441 C 0.98574 0.41435 0.31565 0.0
C442 C 1.00817 0.37496 0.32487 0.0
C443 C 0.99174 0.44977 0.39733 0.0
C444 C 0.02035 0.44879 0.49589 0.0
H445 H 0.96099 0.41697 0.24795 0.0
H446 H 0.9726 0.47833 0.38432 0.0
S447 S 0.09415 0.35732 0.5499 0.0
N448 N 0.06438 0.33954 0.43597 0.0
N449 N 0.07741 0.40671 0.58372 0.0
C450 C 0.04577 0.41106 0.50137 0.0
C451 C 0.03911 0.37431 0.41844 0.0
C452 C 0.89973 0.95553 0.10669 0.0
C453 C 0.86272 0.98135 0.13267 0.0
C454 C 0.93312 0.96784 1.028 0.0
C455 C 0.93118 1.00636 0.96642 0.0
H456 H 0.90195 0.92392 0.14264 0.0
H457 H 0.95963 0.94582 1.01073 0.0
S458 S 0.84553 0.08906 1.01109 0.0
N459 N 0.82961 0.05005 0.09658 0.0
N460 N 0.89107 0.07266 0.94773 0.0
C461 C 0.89571 0.03358 0.99533 0.0
C462 C 0.86211 0.02139 0.0781 0.0
C463 C 0.50841 0.90781 0.18665 0.0
C464 C 0.52771 0.86642 0.1847 0.0
C465 C 0.5176 0.93858 0.09997 0.0
C466 C 0.54708 0.93023 1.00597 0.0
H467 H 0.48394 0.91583 0.25296 0.0
H468 H 0.49984 0.96854 0.10397 0.0
S469 S 0.6113 0.82966 0.96661 0.0
N470 N 0.58089 0.82083 0.08447 0.0
N471 N 0.59897 0.87842 0.92411 0.0
C472 C 0.56878 0.89013 1.00698 0.0
C473 C 0.5592 0.85861 0.09554 0.0
C474 C 0.67574 0.59411 0.04708 0.0
C475 C 0.68934 0.57273 0.15238 0.0
C476 C 0.63811 0.58326 0.98102 0.0
C477 C 0.61257 0.54811 1.00922 0.0
H478 H 0.69433 0.61991 1.01182 0.0
H479 H 0.62918 0.60257 0.90626 0.0
S480 S 0.63917 0.47077 0.24179 0.0
N481 N 0.67665 0.5079 0.26098 0.0
N482 N 0.60735 0.48682 0.1343 0.0
C483 C 0.62702 0.52388 0.10612 0.0
C484 C 0.66516 0.53557 0.17595 0.0
C485 C 0.04864 0.65804 0.21083 0.0
C486 C 0.02943 0.69712 0.17826 0.0
C487 C 0.04591 0.61968 0.13772 0.0
C488 C 0.0245 0.6173 1.02553 0.0
H489 H 0.06811 0.65757 0.29117 0.0
H490 H 0.06177 0.59129 0.16862 0.0
S491 S 0.96318 0.70837 0.90325 0.0
N492 N 0.9862 0.72972 1.0247 0.0
N493 N 0.97821 0.65742 0.89503 0.0
C494 C 1.00342 0.65548 0.99381 0.0
C495 C 1.00692 0.69503 0.06719 0.0
C496 C 0.88968 0.27361 0.48589 0.0
C497 C 0.8852 0.27937 0.36238 0.0
C498 C 0.8648 0.24288 0.54193 0.0
C499 C 0.83819 0.21563 0.47162 0.0
H500 H 0.91671 0.28734 0.53432 0.0
H501 H 0.87437 0.2336 0.63064 0.0
S502 S 0.79803 0.23664 0.16775 0.0
N503 N 0.83847 0.27037 0.18921 0.0
N504 N 0.79307 0.21092 0.29368 0.0
C505 C 0.8243 0.23046 0.36088 0.0
C506 C 0.84885 0.26222 0.30427 0.0
C507 C 0.31823 0.11671 0.45648 0.0
C508 C 0.3333 0.11081 0.33707 0.0
C509 C 0.32592 0.0856 0.54205 0.0
C510 C 0.35127 0.04957 0.51243 0.0
H511 H 0.29563 0.14221 0.47928 0.0
H512 H 0.30985 0.08826 0.62807 0.0
S513 S 0.41086 0.02606 0.23009 0.0
N514 N 0.38567 0.07174 0.20978 0.0
N515 N 0.39816 1.01374 0.36653 0.0
C516 C 0.37269 0.04753 0.40188 0.0
C517 C 0.36523 0.07885 0.31617 0.0
C518 C 0.68466 0.29593 0.21051 0.0
C519 C 0.65762 0.26814 0.27305 0.0
C520 C 0.70814 0.32791 0.2725 0.0
C521 C 0.70623 0.33148 0.39791 0.0
H522 H 0.68239 0.29745 0.11401 0.0
H523 H 0.72193 0.35354 0.22205 0.0
S524 S 0.66259 0.25148 0.60068 0.0
N525 N 0.6459 0.23552 0.46616 0.0
N526 N 0.69154 0.29495 0.58074 0.0
C527 C 0.68955 0.29707 0.45963 0.0
C528 C 0.66479 0.26513 0.39729 0.0
C529 C 0.21228 0.35763 0.30576 0.0
C530 C 0.25091 0.37394 0.35533 0.0
C531 C 0.17383 0.37988 0.33475 0.0
C532 C 0.17444 0.4138 0.42284 0.0
H533 H 0.21323 0.33831 0.2233 0.0
H534 H 0.14644 0.37525 0.27648 0.0
S535 S 0.25384 0.41377 0.66922 0.0
N536 N 0.27761 0.38665 0.55793 0.0
N537 N 0.20651 0.42951 0.61923 0.0
C538 C 0.20787 0.41146 0.50724 0.0
C539 C 0.24593 0.38825 0.47489 0.0
C540 C 0.17336 0.8177 0.11465 0.0
C541 C 0.12927 0.81014 0.09683 0.0
C542 C 0.19588 0.84426 0.03792 0.0
C543 C 0.17445 0.86355 0.9428 0.0
H544 H 0.18946 0.80579 0.19282 0.0
H545 H 0.22864 0.85323 0.06064 0.0
S546 S 0.05947 0.85155 0.85967 0.0
N547 N 0.06534 0.82264 0.97908 0.0
N548 N 0.10808 0.86909 0.82877 0.0
C549 C 0.13152 0.85192 0.91781 0.0
C550 C 0.10852 0.82653 0.99775 0.0
C551 C 0.70421 0.88615 0.04998 0.0
C552 C 0.74893 0.87955 0.05452 0.0
C553 C 0.68932 0.92264 0.99175 0.0
C554 C 0.71701 0.94405 0.91289 0.0
H555 H 0.68383 0.87131 0.1148 0.0
H556 H 0.65818 0.93552 1.01693 0.0
S557 S 0.81573 0.89287 0.78475 0.0
N558 N 0.80425 0.86472 0.90327 0.0
N559 N 0.77847 0.93076 0.77913 0.0
C560 C 0.75426 0.92116 0.87556 0.0
C561 C 0.76813 0.88556 0.94215 0.0
C562 C 0.39298 0.78294 0.09954 0.0
C563 C 0.39569 0.78253 0.2256 0.0
C564 C 0.36915 0.75173 0.03628 0.0
C565 C 0.34851 0.71919 0.09788 0.0
H566 H 0.41465 0.80226 0.04818 0.0
H567 H 0.37377 0.74829 0.94025 0.0
S568 S 0.32791 0.71841 0.42405 0.0
N569 N 0.36124 0.75896 0.40718 0.0
N570 N 0.31847 0.69825 0.28786 0.0
C571 C 0.34196 0.7254 0.22158 0.0
C572 C 0.36543 0.75781 0.28605 0.0
C573 C 0.78361 0.66634 1.0159 0.0
C574 C 0.79799 0.67791 0.13256 0.0
C575 C 0.80736 0.63494 0.95036 0.0
C576 C 0.84732 0.62083 0.99516 0.0
H577 H 0.75047 0.67174 0.99056 0.0
H578 H 0.79147 0.61687 0.87965 0.0
S579 S 0.91278 0.69086 0.19652 0.0
N580 N 0.86331 0.70938 0.21407 0.0
N581 N 0.91041 0.64885 0.10172 0.0
C582 C 0.86794 0.64989 0.07528 0.0
C583 C 0.84277 0.68215 0.13642 0.0
C584 C 0.02316 0.22153 0.97716 0.0
C585 C 0.9831 0.23392 1.02904 0.0
C586 C 0.02694 0.1863 0.88991 0.0
C587 C 0.99298 0.15701 0.8633 0.0
H588 H 0.05165 0.23946 1.0022 0.0
H589 H 0.05592 0.18351 0.8383 0.0
S590 S 0.87862 0.19086 0.91045 0.0
N591 N 0.90623 0.22677 0.98968 0.0
N592 N 0.91474 0.15682 0.85506 0.0
C593 C 0.9521 0.17368 0.89906 0.0
C594 C 0.9473 0.21208 0.97543 0.0
C595 C 0.36744 0.08148 0.90139 0.0
C596 C 0.3396 0.05587 0.97126 0.0
C597 C 0.40713 0.06605 0.85086 0.0
C598 C 0.42224 0.02395 0.86762 0.0
H599 H 0.35918 0.11476 0.8887 0.0
H600 H 0.42615 0.08751 0.79846 0.0
S601 S 0.36034 0.94093 1.02737 0.0
N602 N 0.32945 0.98401 0.04147 0.0
N603 N 0.40278 0.95535 0.94947 0.0
C604 C 0.39345 0.99712 0.93006 0.0
C605 C 0.35277 1.01273 0.98014 0.0
C606 C 0.51267 0.35359 0.09797 0.0
C607 C 0.53169 0.3166 0.04333 0.0
C608 C 0.50935 0.39317 0.03847 0.0
C609 C 0.52499 0.39855 0.92044 0.0
H610 H 0.50282 0.35285 0.19086 0.0
H611 H 0.49649 0.42038 0.08902 0.0
S612 S 0.57884 0.31215 0.73735 0.0
N613 N 0.56725 0.28879 0.86362 0.0
N614 N 0.56014 0.3616 0.75212 0.0
C615 C 0.54316 0.36139 0.86404 0.0
C616 C 0.54667 0.32121 0.92483 0.0
C617 C 0.21127 0.46134 0.9815 0.0
C618 C 0.23036 0.48915 0.07079 0.0
C619 C 0.17222 0.47078 0.9221 0.0
C620 C 0.15062 0.51018 0.94001 0.0
H621 H 0.22521 0.42996 0.96246 0.0
H622 H 0.15845 0.44639 0.86227 0.0
S623 S 0.18962 0.59931 0.14268 0.0
N624 N 0.22527 0.56073 0.16254 0.0
N625 N 0.15522 0.58045 0.04103 0.0
C626 C 0.17196 0.54087 1.01647 0.0
C627 C 0.21073 0.53009 0.08342 0.0
C628 C 1.00624 0.85728 0.50531 0.0
C629 C 0.04715 0.84191 0.46603 0.0
C630 C 1.00145 0.89572 0.58036 0.0
C631 C 0.0367 0.92311 0.612 0.0
H632 H 0.97755 0.84056 0.47478 0.0
H633 H 0.96949 0.90473 0.61064 0.0
S634 S 0.15085 0.88947 0.57606 0.0
N635 N 0.12388 0.85074 0.50558 0.0
N636 N 0.11438 0.92478 0.62346 0.0
C637 C 0.07752 0.90565 0.58398 0.0
C638 C 0.08265 0.86513 0.5173 0.0
C639 C 0.69785 1.01656 0.38166 0.0
C640 C 0.72009 0.9779 0.40191 0.0
C641 C 0.66023 0.02913 0.44802 0.0
C642 C 0.64183 1.0038 0.53823 0.0
H643 H 0.7086 0.03665 0.31056 0.0
H644 H 0.64478 0.05905 0.4265 0.0
S645 S 0.68925 0.90153 0.6361 0.0
N646 N 0.72131 0.91546 0.52612 0.0
N647 N 0.6525 0.93976 0.6509 0.0
C648 C 0.66481 0.96609 0.56319 0.0
C649 C 0.70298 0.95305 0.49518 0.0
C650 C 0.54219 0.69376 0.40923 0.0
C651 C 0.51932 0.72965 0.45707 0.0
C652 C 0.54653 0.655 0.4725 0.0
C653 C 0.52859 0.64953 0.58815 0.0
H654 H 0.55456 0.69455 0.31871 0.0
H655 H 0.56247 0.62842 0.42668 0.0
S656 S 0.46471 0.7337 0.75391 0.0
N657 N 0.47763 0.7564 0.62767 0.0
N658 N 0.48706 0.6856 0.74663 0.0
C659 C 0.50657 0.68582 0.63786 0.0
C660 C 0.50173 0.72497 0.57293 0.0
C661 C 0.84811 0.5345 0.4461 0.0
C662 C 0.82658 0.57469 0.45553 0.0
C663 C 0.88509 0.52489 0.51807 0.0
C664 C 0.90344 0.55522 0.60154 0.0
H665 H 0.8377 0.51098 0.37864 0.0
H666 H 0.90069 0.49403 0.50389 0.0
S667 S 0.85779 0.66327 0.67199 0.0
N668 N 0.82529 0.64315 0.56756 0.0
N669 N 0.8944 0.62593 0.694 0.0
C670 C 0.88129 0.59455 0.61483 0.0
C671 C 0.84331 0.6039 0.54488 0.0
loop_
_geom_bond_atom_site_label_1
_geom_bond_atom_site_label_2
_geom_bond_distance
_geom_bond_site_symmetry_2
_ccdc_geom_bond_type
H0 C3 0.931 . S
H1 C6 0.928 . S
H2 C8 0.930 . S
C3 H0 0.931 . S
C3 C4 1.413 . S
C3 C5 1.360 . S
C4 C3 1.413 . S
C4 C8 1.429 . S
C5 C3 1.360 . S
C5 C6 1.372 . S
C6 H1 0.928 . S
C6 C5 1.372 . S
C6 C7 1.404 . S
C7 C6 1.404 . S
C7 C8 1.391 . S
C8 H2 0.930 . S
C8 C4 1.429 . S
C8 C7 1.391 . S
H9 C12 0.931 . S
H10 C15 0.928 . S
H11 C17 0.930 . S
C12 H9 0.931 . S
C12 C13 1.413 . S
C12 C14 1.360 . S
C13 C12 1.413 . S
C13 C17 1.429 . S
C14 C12 1.360 . S
C14 C15 1.372 . S
C15 H10 0.928 . S
C15 C14 1.372 . S
C15 C16 1.404 . S
C16 C15 1.404 . S
C16 C17 1.391 . S
C17 H11 0.930 . S
C17 C13 1.429 . S
C17 C16 1.391 . S
H18 C21 0.931 . S
H19 C24 0.928 . S
H20 C26 0.930 . S
C21 H18 0.931 . S
C21 C22 1.413 . S
C21 C23 1.360 . S
C22 C21 1.413 . S
C22 C26 1.429 . S
C23 C21 1.360 . S
C23 C24 1.372 . S
C24 H19 0.928 . S
C24 C23 1.372 . S
C24 C25 1.404 . S
C25 C24 1.404 . S
C25 C26 1.391 . S
C26 H20 0.930 . S
C26 C22 1.429 . S
C26 C25 1.391 . S
H27 C30 0.931 . S
H28 C33 0.928 . S
H29 C35 0.930 . S
C30 H27 0.931 . S
C30 C31 1.413 . S
C30 C32 1.360 . S
C31 C30 1.413 . S
C31 C35 1.429 . S
C32 C30 1.360 . S
C32 C33 1.372 . S
C33 H28 0.928 . S
C33 C32 1.372 . S
C33 C34 1.404 . S
C34 C33 1.404 . S
C34 C35 1.391 . S
C35 H29 0.930 . S
C35 C31 1.429 . S
C35 C34 1.391 . S
H36 C39 0.931 . S
H37 C42 0.928 . S
H38 C44 0.930 . S
C39 H36 0.931 . S
C39 C40 1.413 . S
C39 C41 1.360 1_556 S
C40 C39 1.413 . S
C40 C44 1.429 . S
C41 C39 1.360 1_554 S
C41 C42 1.372 . S
C42 H37 0.928 . S
C42 C41 1.372 . S
C42 C43 1.404 . S
C43 C42 1.404 . S
C43 C44 1.391 1_554 S
C44 H38 0.930 . S
C44 C40 1.429 . S
C44 C43 1.391 1_556 S
H45 C48 0.931 . S
H46 C51 0.928 . S
H47 C53 0.930 . S
C48 H45 0.931 . S
C48 C49 1.413 . S
C48 C50 1.360 1_556 S
C49 C48 1.413 . S
C49 C53 1.429 . S
C50 C48 1.360 1_554 S
C50 C51 1.372 . S
C51 H46 0.928 . S
C51 C50 1.372 . S
C51 C52 1.404 . S
C52 C51 1.404 . S
C52 C53 1.391 1_554 S
C53 H47 0.930 . S
C53 C49 1.429 . S
C53 C52 1.391 1_556 S
H54 C57 0.931 . S
H55 C60 0.928 . S
H56 C62 0.930 . S
C57 H54 0.931 . S
C57 C58 1.413 . S
C57 C59 1.360 1_556 S
C58 C57 1.413 . S
C58 C62 1.429 . S
C59 C57 1.360 1_554 S
C59 C60 1.372 . S
C60 H55 0.928 . S
C60 C59 1.372 . S
C60 C61 1.404 . S
C61 C60 1.404 . S
C61 C62 1.391 1_554 S
C62 H56 0.930 . S
C62 C58 1.429 . S
C62 C61 1.391 1_556 S
H63 C66 0.931 . S
H64 C69 0.928 . S
H65 C71 0.930 . S
C66 H63 0.931 . S
C66 C67 1.413 1_556 S
C66 C68 1.360 . S
C67 C66 1.413 1_554 S
C67 C71 1.429 . S
C68 C66 1.360 . S
C68 C69 1.372 . S
C69 H64 0.928 . S
C69 C68 1.372 . S
C69 C70 1.404 1_556 S
C70 C69 1.404 1_554 S
C70 C71 1.391 . S
C71 H65 0.930 . S
C71 C67 1.429 . S
C71 C70 1.391 . S
Gd72 N103 2.661 1_545 S
Gd72 N109 2.601 . S
Gd72 O116 2.545 . S
Gd72 O117 2.606 1_655 S
Gd72 O119 2.429 . S
Gd72 O120 2.545 . S
Gd72 O121 2.412 . S
Gd72 O123 2.362 1_545 S
Gd72 O124 2.324 1_655 S
Gd72 C131 2.828 . S
Gd73 N82 2.661 1_565 S
Gd73 N86 2.601 . S
Gd73 O117 2.362 1_565 S
Gd73 O118 2.324 1_455 S
Gd73 O122 2.545 . S
Gd73 O123 2.606 1_455 S
Gd73 O125 2.429 . S
Gd73 O126 2.545 . S
Gd73 O127 2.412 . S
Gd73 C140 2.828 . S
C74 C77 1.417 . S
C74 C79 1.431 . S
C74 C80 1.412 . S
C75 C78 1.437 1_554 S
C75 C79 1.317 . S
C75 H94 0.929 . S
C76 C77 1.426 1_556 S
C76 C78 1.413 . S
C76 N86 1.360 1_545 S
C77 C74 1.417 . S
C77 C76 1.426 1_554 S
C77 N82 1.350 1_554 S
C78 C75 1.437 1_556 S
C78 C76 1.413 . S
C78 C88 1.391 . S
C79 C74 1.431 . S
C79 C75 1.317 . S
C79 H90 0.930 . S
C80 C74 1.412 . S
C80 C81 1.355 . S
C80 H92 0.930 . S
C81 C80 1.355 . S
C81 C83 1.402 . S
C81 H93 0.930 . S
N82 Gd73 2.661 1_545 S
N82 C77 1.350 1_556 S
N82 C83 1.307 1_556 S
C83 C81 1.402 . S
C83 N82 1.307 1_554 S
C83 H84 0.930 1_455 S
H84 C83 0.930 1_655 S
C85 N86 1.334 . S
C85 C87 1.394 . S
C85 H89 0.930 . S
N86 Gd73 2.601 . S
N86 C76 1.360 1_565 S
N86 C85 1.334 . S
C87 C85 1.394 . S
C87 C88 1.359 1_565 S
C87 H99 0.930 . S
C88 C78 1.391 . S
C88 C87 1.359 1_545 S
C88 H100 0.929 . S
H89 C85 0.930 . S
H90 C79 0.930 . S
H91 C108 0.930 1_455 S
H92 C80 0.930 . S
H93 C81 0.930 . S
H94 C75 0.929 . S
H95 C113 0.930 . S
H96 C104 0.930 . S
H97 C105 0.930 1_455 S
H98 C129 0.929 . S
H99 C87 0.930 . S
H100 C88 0.929 . S
H101 C130 0.930 . S
H102 C111 0.930 . S
N103 Gd72 2.661 1_565 S
N103 C107 1.350 . S
N103 C108 1.307 . S
C104 H96 0.930 . S
C104 C105 1.355 . S
C104 C106 1.412 . S
C105 H97 0.930 1_655 S
C105 C104 1.355 . S
C105 C108 1.402 . S
C106 C104 1.412 . S
C106 C107 1.417 . S
C106 C130 1.431 . S
C107 N103 1.350 . S
C107 C106 1.417 . S
C107 C110 1.426 . S
C108 H91 0.930 1_655 S
C108 N103 1.307 . S
C108 C105 1.402 . S
N109 Gd72 2.601 . S
N109 C110 1.359 1_545 S
N109 C113 1.334 . S
C110 C107 1.426 . S
C110 N109 1.359 1_565 S
C110 C114 1.413 . S
C111 H102 0.930 . S
C111 C112 1.376 . S
C111 C113 1.394 . S
C112 C111 1.376 . S
C112 C114 1.379 1_545 S
C112 H115 0.925 1_545 S
C113 H95 0.930 . S
C113 N109 1.334 . S
C113 C111 1.394 . S
C114 C110 1.413 . S
C114 C112 1.379 1_565 S
C114 C129 1.437 . S
H115 C112 0.925 1_565 S
O116 Gd72 2.545 . S
O116 C131 1.258 . S
O117 Gd72 2.606 1_455 S
O117 Gd73 2.362 1_545 S
O117 C128 1.284 . S
O118 Gd73 2.324 1_655 S
O118 C138 1.251 1_565 S
O119 Gd72 2.429 . S
O119 C138 1.274 . S
O120 Gd72 2.545 . S
O120 C128 1.250 1_655 S
O121 Gd72 2.412 . S
O121 C131 1.252 . S
O122 Gd73 2.545 . S
O122 C140 1.258 . S
O123 Gd72 2.362 1_565 S
O123 Gd73 2.606 1_655 S
O123 C139 1.284 . S
O124 Gd72 2.324 1_455 S
O124 C147 1.254 . S
O125 Gd73 2.429 . S
O125 C147 1.268 1_565 S
O126 Gd73 2.545 . S
O126 C139 1.250 1_455 S
O127 Gd73 2.412 . S
O127 C140 1.252 . S
C128 O117 1.284 . S
C128 O120 1.250 1_455 S
C129 H98 0.929 . S
C129 C114 1.437 . S
C129 C130 1.317 . S
C130 H101 0.930 . S
C130 C106 1.431 . S
C130 C129 1.317 . S
C131 Gd72 2.828 . S
C131 O116 1.258 . S
C131 O121 1.252 . S
C131 C132 1.497 . S
C132 C131 1.497 . S
C132 C133 1.395 . S
C132 C134 1.380 . S
C133 C132 1.395 . S
C133 C136 1.398 . S
C133 H148 0.930 . S
C134 C132 1.380 . S
C134 C135 1.391 . S
C134 H149 0.930 . S
C135 C134 1.391 . S
C135 C137 1.387 . S
C136 C133 1.398 . S
C136 C137 1.380 . S
C136 H150 0.930 . S
C137 C135 1.387 . S
C137 C136 1.380 . S
C137 H151 0.930 . S
C138 O118 1.251 1_545 S
C138 O119 1.274 . S
C139 O123 1.284 . S
C139 O126 1.250 1_655 S
C140 Gd73 2.828 . S
C140 O122 1.258 . S
C140 O127 1.252 . S
C140 C141 1.497 1_556 S
C141 C140 1.497 1_554 S
C141 C142 1.395 . S
C141 C143 1.380 . S
C142 C141 1.395 . S
C142 C145 1.398 . S
C142 H152 0.930 1_554 S
C143 C141 1.380 . S
C143 C144 1.391 . S
C143 H153 0.930 . S
C144 C143 1.391 . S
C144 C146 1.387 . S
C145 C142 1.398 . S
C145 C146 1.380 . S
C145 H154 0.930 . S
C146 C144 1.387 . S
C146 C145 1.380 . S
C146 H155 0.930 . S
C147 O124 1.254 . S
C147 O125 1.268 1_545 S
H148 C133 0.930 . S
H149 C134 0.930 . S
H150 C136 0.930 . S
H151 C137 0.930 . S
H152 C142 0.930 1_556 S
H153 C143 0.930 . S
H154 C145 0.930 . S
H155 C146 0.930 . S
Gd156 N187 2.661 . S
Gd156 N193 2.601 . S
Gd156 O200 2.545 . S
Gd156 O201 2.606 1_565 S
Gd156 O203 2.429 . S
Gd156 O204 2.545 . S
Gd156 O205 2.412 . S
Gd156 O207 2.362 . S
Gd156 O208 2.324 1_565 S
Gd156 C215 2.828 . S
Gd157 N166 2.661 . S
Gd157 N170 2.601 . S
Gd157 O201 2.362 . S
Gd157 O202 2.324 1_545 S
Gd157 O206 2.545 . S
Gd157 O207 2.606 1_545 S
Gd157 O209 2.429 . S
Gd157 O210 2.545 . S
Gd157 O211 2.412 . S
Gd157 C224 2.828 . S
C158 C161 1.417 . S
C158 C163 1.431 . S
C158 C164 1.412 . S
C159 C162 1.437 1_554 S
C159 C163 1.317 . S
C159 H178 0.929 . S
C160 C161 1.426 1_556 S
C160 C162 1.413 . S
C160 N170 1.359 . S
C161 C158 1.417 . S
C161 C160 1.426 1_554 S
C161 N166 1.350 1_554 S
C162 C159 1.437 1_556 S
C162 C160 1.413 . S
C162 C172 1.391 . S
C163 C158 1.431 . S
C163 C159 1.317 . S
C163 H174 0.930 . S
C164 C158 1.412 . S
C164 C165 1.355 . S
C164 H176 0.930 . S
C165 C164 1.355 . S
C165 C167 1.402 . S
C165 H177 0.930 . S
N166 Gd157 2.661 . S
N166 C161 1.350 1_556 S
N166 C167 1.307 1_556 S
C167 C165 1.402 . S
C167 N166 1.307 1_554 S
C167 H168 0.930 1_545 S
H168 C167 0.930 1_565 S
C169 N170 1.334 . S
C169 C171 1.394 . S
C169 H173 0.930 . S
N170 Gd157 2.601 . S
N170 C160 1.359 . S
N170 C169 1.334 . S
C171 C169 1.394 . S
C171 C172 1.359 . S
C171 H183 0.930 . S
C172 C162 1.391 . S
C172 C171 1.359 . S
C172 H184 0.929 . S
H173 C169 0.930 . S
H174 C163 0.930 . S
H175 C192 0.930 1_545 S
H176 C164 0.930 . S
H177 C165 0.930 . S
H178 C159 0.929 . S
H179 C197 0.930 . S
H180 C188 0.930 . S
H181 C189 0.930 1_545 S
H182 C213 0.929 . S
H183 C171 0.930 . S
H184 C172 0.929 . S
H185 C214 0.930 . S
H186 C195 0.930 . S
N187 Gd156 2.661 . S
N187 C191 1.350 . S
N187 C192 1.307 . S
C188 H180 0.930 . S
C188 C189 1.355 . S
C188 C190 1.412 . S
C189 H181 0.930 1_565 S
C189 C188 1.355 . S
C189 C192 1.402 . S
C190 C188 1.412 . S
C190 C191 1.417 . S
C190 C214 1.431 . S
C191 N187 1.350 . S
C191 C190 1.417 . S
C191 C194 1.426 . S
C192 H175 0.930 1_565 S
C192 N187 1.307 . S
C192 C189 1.402 . S
N193 Gd156 2.601 . S
N193 C194 1.359 . S
N193 C197 1.334 . S
C194 C191 1.426 . S
C194 N193 1.359 . S
C194 C198 1.413 . S
C195 H186 0.930 . S
C195 C196 1.359 . S
C195 C197 1.394 . S
C196 C195 1.359 . S
C196 C198 1.391 . S
C196 H199 0.929 . S
C197 H179 0.930 . S
C197 N193 1.334 . S
C197 C195 1.394 . S
C198 C194 1.413 . S
C198 C196 1.391 . S
C198 C213 1.437 . S
H199 C196 0.929 . S
O200 Gd156 2.545 . S
O200 C215 1.258 . S
O201 Gd156 2.606 1_545 S
O201 Gd157 2.362 . S
O201 C212 1.284 . S
O202 Gd157 2.324 1_565 S
O202 C222 1.254 . S
O203 Gd156 2.429 . S
O203 C222 1.268 . S
O204 Gd156 2.545 . S
O204 C212 1.250 1_565 S
O205 Gd156 2.412 . S
O205 C215 1.252 . S
O206 Gd157 2.545 . S
O206 C224 1.258 . S
O207 Gd156 2.362 . S
O207 Gd157 2.606 1_565 S
O207 C223 1.284 . S
O208 Gd156 2.324 1_545 S
O208 C231 1.254 . S
O209 Gd157 2.429 . S
O209 C231 1.268 . S
O210 Gd157 2.545 . S
O210 C223 1.250 1_545 S
O211 Gd157 2.412 . S
O211 C224 1.252 . S
C212 O201 1.284 . S
C212 O204 1.250 1_545 S
C213 H182 0.929 . S
C213 C198 1.437 . S
C213 C214 1.317 . S
C214 H185 0.930 . S
C214 C190 1.431 . S
C214 C213 1.317 . S
C215 Gd156 2.828 . S
C215 O200 1.258 . S
C215 O205 1.252 . S
C215 C216 1.497 . S
C216 C215 1.497 . S
C216 C217 1.395 . S
C216 C218 1.380 . S
C217 C216 1.395 . S
C217 C220 1.398 . S
C217 H232 0.930 . S
C218 C216 1.380 . S
C218 C219 1.391 . S
C218 H233 0.930 . S
C219 C218 1.391 . S
C219 C221 1.387 . S
C220 C217 1.398 . S
C220 C221 1.380 . S
C220 H234 0.930 . S
C221 C219 1.387 . S
C221 C220 1.380 . S
C221 H235 0.930 . S
C222 O202 1.254 . S
C222 O203 1.268 . S
C223 O207 1.284 . S
C223 O210 1.250 1_565 S
C224 Gd157 2.828 . S
C224 O206 1.258 . S
C224 O211 1.252 . S
C224 C225 1.497 1_556 S
C225 C224 1.497 1_554 S
C225 C226 1.395 . S
C225 C227 1.380 . S
C226 C225 1.395 . S
C226 C229 1.398 . S
C226 H236 0.930 1_554 S
C227 C225 1.380 . S
C227 C228 1.391 . S
C227 H237 0.930 . S
C228 C227 1.391 . S
C228 C230 1.387 . S
C229 C226 1.398 . S
C229 C230 1.380 . S
C229 H238 0.930 . S
C230 C228 1.387 . S
C230 C229 1.380 . S
C230 H239 0.930 . S
C231 O208 1.254 . S
C231 O209 1.268 . S
H232 C217 0.930 . S
H233 C218 0.930 . S
H234 C220 0.930 . S
H235 C221 0.930 . S
H236 C226 0.930 1_556 S
H237 C227 0.930 . S
H238 C229 0.930 . S
H239 C230 0.930 . S
Gd240 N271 2.661 . S
Gd240 N277 2.601 . S
Gd240 O284 2.545 1_556 S
Gd240 O285 2.606 . S
Gd240 O287 2.429 . S
Gd240 O288 2.545 . S
Gd240 O289 2.412 . S
Gd240 O291 2.362 . S
Gd240 O292 2.324 . S
Gd240 C299 2.828 . S
Gd241 N250 2.661 . S
Gd241 N254 2.601 . S
Gd241 O285 2.362 . S
Gd241 O286 2.324 . S
Gd241 O290 2.545 . S
Gd241 O291 2.606 . S
Gd241 O293 2.429 . S
Gd241 O294 2.545 . S
Gd241 O295 2.412 . S
Gd241 C308 2.828 . S
C242 C245 1.417 . S
C242 C247 1.431 . S
C242 C248 1.412 . S
C243 C246 1.437 . S
C243 C247 1.317 . S
C243 H262 0.929 . S
C244 C245 1.426 . S
C244 C246 1.413 . S
C244 N254 1.359 . S
C245 C242 1.417 . S
C245 C244 1.426 . S
C245 N250 1.350 . S
C246 C243 1.437 . S
C246 C244 1.413 . S
C246 C256 1.391 . S
C247 C242 1.431 . S
C247 C243 1.317 . S
C247 H258 0.930 . S
C248 C242 1.412 . S
C248 C249 1.355 . S
C248 H260 0.930 . S
C249 C248 1.355 . S
C249 C251 1.402 . S
C249 H261 0.930 . S
N250 Gd241 2.661 . S
N250 C245 1.350 . S
N250 C251 1.307 . S
C251 C249 1.402 . S
C251 N250 1.307 . S
C251 H252 0.930 . S
H252 C251 0.930 . S
C253 N254 1.334 . S
C253 C255 1.394 . S
C253 H257 0.930 . S
N254 Gd241 2.601 . S
N254 C244 1.359 . S
N254 C253 1.334 . S
C255 C253 1.394 . S
C255 C256 1.359 . S
C255 H267 0.930 . S
C256 C246 1.391 . S
C256 C255 1.359 . S
C256 H268 0.929 . S
H257 C253 0.930 . S
H258 C247 0.930 . S
H259 C276 0.930 . S
H260 C248 0.930 . S
H261 C249 0.930 . S
H262 C243 0.929 . S
H263 C281 0.930 . S
H264 C272 0.930 . S
H265 C273 0.930 . S
H266 C297 0.929 . S
H267 C255 0.930 . S
H268 C256 0.929 . S
H269 C298 0.930 . S
H270 C279 0.930 1_554 S
N271 Gd240 2.661 . S
N271 C275 1.350 . S
N271 C276 1.307 . S
C272 H264 0.930 . S
C272 C273 1.355 . S
C272 C274 1.412 . S
C273 H265 0.930 . S
C273 C272 1.355 . S
C273 C276 1.402 . S
C274 C272 1.412 . S
C274 C275 1.417 . S
C274 C298 1.431 . S
C275 N271 1.350 . S
C275 C274 1.417 . S
C275 C278 1.426 . S
C276 H259 0.930 . S
C276 N271 1.307 . S
C276 C273 1.402 . S
N277 Gd240 2.601 . S
N277 C278 1.359 . S
N277 C281 1.334 . S
C278 C275 1.426 . S
C278 N277 1.359 . S
C278 C282 1.413 . S
C279 H270 0.930 1_556 S
C279 C280 1.359 . S
C279 C281 1.394 . S
C280 C279 1.359 . S
C280 C282 1.391 . S
C280 H283 0.929 . S
C281 H263 0.930 . S
C281 N277 1.334 . S
C281 C279 1.394 . S
C282 C278 1.413 . S
C282 C280 1.391 . S
C282 C297 1.437 . S
H283 C280 0.929 . S
O284 Gd240 2.545 1_554 S
O284 C299 1.258 1_554 S
O285 Gd240 2.606 . S
O285 Gd241 2.362 . S
O285 C296 1.284 . S
O286 Gd241 2.324 . S
O286 C306 1.254 . S
O287 Gd240 2.429 . S
O287 C306 1.268 . S
O288 Gd240 2.545 . S
O288 C296 1.250 . S
O289 Gd240 2.412 . S
O289 C299 1.252 . S
O290 Gd241 2.545 . S
O290 C308 1.258 . S
O291 Gd240 2.362 . S
O291 Gd241 2.606 . S
O291 C307 1.284 . S
O292 Gd240 2.324 . S
O292 C315 1.254 . S
O293 Gd241 2.429 . S
O293 C315 1.268 . S
O294 Gd241 2.545 . S
O294 C307 1.250 . S
O295 Gd241 2.412 . S
O295 C308 1.252 . S
C296 O285 1.284 . S
C296 O288 1.250 . S
C297 H266 0.929 . S
C297 C282 1.437 . S
C297 C298 1.317 . S
C298 H269 0.930 . S
C298 C274 1.431 . S
C298 C297 1.317 . S
C299 Gd240 2.828 . S
C299 O284 1.258 1_556 S
C299 O289 1.252 . S
C299 C300 1.497 1_556 S
C300 C299 1.497 1_554 S
C300 C301 1.395 . S
C300 C302 1.380 . S
C301 C300 1.395 . S
C301 C304 1.398 . S
C301 H316 0.930 . S
C302 C300 1.380 . S
C302 C303 1.391 . S
C302 H317 0.930 . S
C303 C302 1.391 . S
C303 C305 1.387 . S
C304 C301 1.398 . S
C304 C305 1.380 . S
C304 H318 0.930 . S
C305 C303 1.387 . S
C305 C304 1.380 . S
C305 H319 0.930 . S
C306 O286 1.254 . S
C306 O287 1.268 . S
C307 O291 1.284 . S
C307 O294 1.250 . S
C308 Gd241 2.828 . S
C308 O290 1.258 . S
C308 O295 1.252 . S
C308 C309 1.497 . S
C309 C308 1.497 . S
C309 C310 1.395 . S
C309 C311 1.380 . S
C310 C309 1.395 . S
C310 C313 1.398 . S
C310 H320 0.930 . S
C311 C309 1.380 . S
C311 C312 1.391 . S
C311 H321 0.930 . S
C312 C311 1.391 . S
C312 C314 1.387 . S
C313 C310 1.398 . S
C313 C314 1.380 . S
C313 H322 0.930 . S
C314 C312 1.387 . S
C314 C313 1.380 . S
C314 H323 0.930 . S
C315 O292 1.254 . S
C315 O293 1.268 . S
H316 C301 0.930 . S
H317 C302 0.930 . S
H318 C304 0.930 . S
H319 C305 0.930 . S
H320 C310 0.930 . S
H321 C311 0.930 . S
H322 C313 0.930 . S
H323 C314 0.930 . S
Gd324 N355 2.661 . S
Gd324 N361 2.601 . S
Gd324 O368 2.545 1_556 S
Gd324 O369 2.606 . S
Gd324 O371 2.429 1_655 S
Gd324 O372 2.545 . S
Gd324 O373 2.412 . S
Gd324 O375 2.362 1_655 S
Gd324 O376 2.324 . S
Gd324 C383 2.828 . S
Gd325 N334 2.661 . S
Gd325 N338 2.601 . S
Gd325 O369 2.362 1_455 S
Gd325 O370 2.324 . S
Gd325 O374 2.545 . S
Gd325 O375 2.606 . S
Gd325 O377 2.429 1_455 S
Gd325 O378 2.545 . S
Gd325 O379 2.412 . S
Gd325 C392 2.828 . S
C326 C329 1.417 . S
C326 C331 1.431 . S
C326 C332 1.412 . S
C327 C330 1.437 . S
C327 C331 1.317 . S
C327 H346 0.929 . S
C328 C329 1.426 . S
C328 C330 1.413 . S
C328 N338 1.359 . S
C329 C326 1.417 . S
C329 C328 1.426 . S
C329 N334 1.350 . S
C330 C327 1.437 . S
C330 C328 1.413 . S
C330 C340 1.391 1_455 S
C331 C326 1.431 . S
C331 C327 1.317 . S
C331 H342 0.930 . S
C332 C326 1.412 . S
C332 C333 1.355 . S
C332 H344 0.930 . S
C333 C332 1.355 . S
C333 C335 1.402 . S
C333 H345 0.930 . S
N334 Gd325 2.661 . S
N334 C329 1.350 . S
N334 C335 1.307 . S
C335 C333 1.402 . S
C335 N334 1.307 . S
C335 H336 0.930 . S
H336 C335 0.930 . S
C337 N338 1.334 1_655 S
C337 C339 1.394 . S
C337 H341 0.930 . S
N338 Gd325 2.601 . S
N338 C328 1.359 . S
N338 C337 1.334 1_455 S
C339 C337 1.394 . S
C339 C340 1.359 . S
C339 H351 0.930 . S
C340 C330 1.391 1_655 S
C340 C339 1.359 . S
C340 H352 0.929 . S
H341 C337 0.930 . S
H342 C331 0.930 . S
H343 C360 0.930 . S
H344 C332 0.930 . S
H345 C333 0.930 . S
H346 C327 0.929 . S
H347 C365 0.930 . S
H348 C356 0.930 . S
H349 C357 0.930 . S
H350 C381 0.929 . S
H351 C339 0.930 . S
H352 C340 0.929 . S
H353 C382 0.930 . S
H354 C363 0.930 1_554 S
N355 Gd324 2.661 . S
N355 C359 1.350 . S
N355 C360 1.307 . S
C356 H348 0.930 . S
C356 C357 1.355 . S
C356 C358 1.412 . S
C357 H349 0.930 . S
C357 C356 1.355 . S
C357 C360 1.402 . S
C358 C356 1.412 . S
C358 C359 1.417 . S
C358 C382 1.431 . S
C359 N355 1.350 . S
C359 C358 1.417 . S
C359 C362 1.426 . S
C360 H343 0.930 . S
C360 N355 1.307 . S
C360 C357 1.402 . S
N361 Gd324 2.601 . S
N361 C362 1.359 . S
N361 C365 1.334 1_655 S
C362 C359 1.426 . S
C362 N361 1.359 . S
C362 C366 1.413 . S
C363 H354 0.930 1_556 S
C363 C364 1.359 . S
C363 C365 1.394 . S
C364 C363 1.359 . S
C364 C366 1.391 1_455 S
C364 H367 0.929 . S
C365 H347 0.930 . S
C365 N361 1.334 1_455 S
C365 C363 1.394 . S
C366 C362 1.413 . S
C366 C364 1.391 1_655 S
C366 C381 1.437 . S
H367 C364 0.929 . S
O368 Gd324 2.545 1_554 S
O368 C383 1.258 1_554 S
O369 Gd324 2.606 . S
O369 Gd325 2.362 1_655 S
O369 C380 1.284 . S
O370 Gd325 2.324 . S
O370 C390 1.254 . S
O371 Gd324 2.429 1_455 S
O371 C390 1.268 . S
O372 Gd324 2.545 . S
O372 C380 1.250 . S
O373 Gd324 2.412 . S
O373 C383 1.252 . S
O374 Gd325 2.545 . S
O374 C392 1.258 . S
O375 Gd324 2.362 1_455 S
O375 Gd325 2.606 . S
O375 C391 1.284 . S
O376 Gd324 2.324 . S
O376 C399 1.254 . S
O377 Gd325 2.429 1_655 S
O377 C399 1.268 . S
O378 Gd325 2.545 . S
O378 C391 1.250 . S
O379 Gd325 2.412 . S
O379 C392 1.252 . S
C380 O369 1.284 . S
C380 O372 1.250 . S
C381 H350 0.929 . S
C381 C366 1.437 . S
C381 C382 1.317 . S
C382 H353 0.930 . S
C382 C358 1.431 . S
C382 C381 1.317 . S
C383 Gd324 2.828 . S
C383 O368 1.258 1_556 S
C383 O373 1.252 . S
C383 C384 1.497 1_556 S
C384 C383 1.497 1_554 S
C384 C385 1.395 . S
C384 C386 1.380 . S
C385 C384 1.395 . S
C385 C388 1.398 . S
C385 H400 0.930 . S
C386 C384 1.380 . S
C386 C387 1.391 . S
C386 H401 0.930 . S
C387 C386 1.391 . S
C387 C389 1.387 . S
C388 C385 1.398 . S
C388 C389 1.380 . S
C388 H402 0.930 . S
C389 C387 1.387 . S
C389 C388 1.380 . S
C389 H403 0.930 . S
C390 O370 1.254 . S
C390 O371 1.268 . S
C391 O375 1.284 . S
C391 O378 1.250 . S
C392 Gd325 2.828 . S
C392 O374 1.258 . S
C392 O379 1.252 . S
C392 C393 1.497 . S
C393 C392 1.497 . S
C393 C394 1.395 . S
C393 C395 1.380 . S
C394 C393 1.395 . S
C394 C397 1.398 . S
C394 H404 0.930 . S
C395 C393 1.380 . S
C395 C396 1.391 . S
C395 H405 0.930 . S
C396 C395 1.391 . S
C396 C398 1.387 . S
C397 C394 1.398 . S
C397 C398 1.380 . S
C397 H406 0.930 . S
C398 C396 1.387 . S
C398 C397 1.380 . S
C398 H407 0.930 . S
C399 O376 1.254 . S
C399 O377 1.268 . S
H400 C385 0.930 . S
H401 C386 0.930 . S
H402 C388 0.930 . S
H403 C389 0.930 . S
H404 C394 0.930 . S
H405 C395 0.930 . S
H406 C397 0.930 . S
H407 C398 0.930 . S
C408 C409 1.369 . S
C408 C410 1.419 . S
C408 H412 0.930 . S
C409 C408 1.369 . S
C409 C418 1.429 . S
C410 C408 1.419 . S
C410 C411 1.363 . S
C410 H413 0.929 . S
C411 C410 1.363 . S
C411 C417 1.428 . S
H412 C408 0.930 . S
H413 C410 0.929 . S
S414 N415 1.613 1_565 S
S414 N416 1.610 1_565 S
N415 S414 1.613 1_545 S
N415 C418 1.350 . S
N416 S414 1.610 1_545 S
N416 C417 1.351 . S
C417 C411 1.428 . S
C417 N416 1.351 . S
C417 C418 1.434 . S
C418 C409 1.429 . S
C418 N415 1.350 . S
C418 C417 1.434 . S
C419 C420 1.369 . S
C419 C421 1.419 . S
C419 H423 0.930 . S
C420 C419 1.369 . S
C420 C429 1.429 . S
C421 C419 1.419 . S
C421 C422 1.363 . S
C421 H424 0.929 . S
C422 C421 1.363 . S
C422 C428 1.428 . S
H423 C419 0.930 . S
H424 C421 0.929 . S
S425 N426 1.613 . S
S425 N427 1.610 . S
N426 S425 1.613 . S
N426 C429 1.350 . S
N427 S425 1.610 . S
N427 C428 1.351 . S
C428 C422 1.428 . S
C428 N427 1.351 . S
C428 C429 1.434 . S
C429 C420 1.429 . S
C429 N426 1.350 . S
C429 C428 1.434 . S
C430 C431 1.369 . S
C430 C432 1.419 . S
C430 H434 0.930 . S
C431 C430 1.369 . S
C431 C440 1.429 . S
C432 C430 1.419 . S
C432 C433 1.363 . S
C432 H435 0.929 . S
C433 C432 1.363 . S
C433 C439 1.428 . S
H434 C430 0.930 . S
H435 C432 0.929 . S
S436 N437 1.613 . S
S436 N438 1.610 . S
N437 S436 1.613 . S
N437 C440 1.350 . S
N438 S436 1.610 . S
N438 C439 1.351 . S
C439 C433 1.428 . S
C439 N438 1.351 . S
C439 C440 1.434 . S
C440 C431 1.429 . S
C440 N437 1.350 . S
C440 C439 1.434 . S
C441 C442 1.369 . S
C441 C443 1.419 . S
C441 H445 0.930 1_455 S
C442 C441 1.369 . S
C442 C451 1.429 . S
C443 C441 1.419 . S
C443 C444 1.363 . S
C443 H446 0.929 1_455 S
C444 C443 1.363 . S
C444 C450 1.428 . S
H445 C441 0.930 1_655 S
H446 C443 0.929 1_655 S
S447 N448 1.613 . S
S447 N449 1.610 . S
N448 S447 1.613 . S
N448 C451 1.350 . S
N449 S447 1.610 . S
N449 C450 1.351 . S
C450 C444 1.428 . S
C450 N449 1.351 . S
C450 C451 1.434 . S
C451 C442 1.429 . S
C451 N448 1.350 . S
C451 C450 1.434 . S
C452 C453 1.369 . S
C452 C454 1.419 . S
C452 H456 0.930 . S
C453 C452 1.369 . S
C453 C462 1.418 1_565 S
C454 C452 1.419 . S
C454 C455 1.363 1_554 S
C454 H457 0.929 1_554 S
C455 C454 1.363 1_556 S
C455 C461 1.428 1_566 S
H456 C452 0.930 . S
H457 C454 0.929 1_556 S
S458 N459 1.613 . S
S458 N460 1.610 . S
N459 S458 1.613 . S
N459 C462 1.360 . S
N460 S458 1.610 . S
N460 C461 1.351 . S
C461 C455 1.428 1_544 S
C461 N460 1.351 . S
C461 C462 1.436 . S
C462 C453 1.418 1_545 S
C462 N459 1.360 . S
C462 C461 1.436 . S
C463 C464 1.369 . S
C463 C465 1.419 . S
C463 H467 0.930 . S
C464 C463 1.369 . S
C464 C473 1.429 . S
C465 C463 1.419 . S
C465 C466 1.363 1_554 S
C465 H468 0.929 . S
C466 C465 1.363 1_556 S
C466 C472 1.428 1_556 S
H467 C463 0.930 . S
H468 C465 0.929 . S
S469 N470 1.613 . S
S469 N471 1.610 . S
N470 S469 1.613 . S
N470 C473 1.350 . S
N471 S469 1.610 . S
N471 C472 1.351 . S
C472 C466 1.428 1_554 S
C472 N471 1.351 . S
C472 C473 1.434 . S
C473 C464 1.429 . S
C473 N470 1.350 . S
C473 C472 1.434 . S
C474 C475 1.369 . S
C474 C476 1.419 . S
C474 H478 0.930 . S
C475 C474 1.369 . S
C475 C484 1.429 . S
C476 C474 1.419 . S
C476 C477 1.363 1_554 S
C476 H479 0.929 1_554 S
C477 C476 1.363 1_556 S
C477 C483 1.428 1_556 S
H478 C474 0.930 . S
H479 C476 0.929 1_556 S
S480 N481 1.613 . S
S480 N482 1.610 . S
N481 S480 1.613 . S
N481 C484 1.350 . S
N482 S480 1.610 . S
N482 C483 1.351 . S
C483 C477 1.428 1_554 S
C483 N482 1.351 . S
C483 C484 1.434 . S
C484 C475 1.429 . S
C484 N481 1.350 . S
C484 C483 1.434 . S
C485 C486 1.369 . S
C485 C487 1.419 . S
C485 H489 0.930 . S
C486 C485 1.369 . S
C486 C495 1.429 . S
C487 C485 1.419 . S
C487 C488 1.363 1_554 S
C487 H490 0.929 . S
C488 C487 1.363 1_556 S
C488 C494 1.428 1_556 S
H489 C485 0.930 . S
H490 C487 0.929 . S
S491 N492 1.613 . S
S491 N493 1.610 1_554 S
N492 S491 1.613 . S
N492 C495 1.350 . S
N493 S491 1.610 1_556 S
N493 C494 1.351 1_556 S
C494 C488 1.428 1_554 S
C494 N493 1.351 1_554 S
C494 C495 1.434 . S
C495 C486 1.429 . S
C495 N492 1.350 . S
C495 C494 1.434 . S
C496 C497 1.369 . S
C496 C498 1.419 . S
C496 H500 0.930 . S
C497 C496 1.369 . S
C497 C506 1.429 . S
C498 C496 1.419 . S
C498 C499 1.363 1_455 S
C498 H501 0.929 . S
C499 C498 1.363 1_655 S
C499 C505 1.428 . S
H500 C496 0.930 . S
H501 C498 0.929 . S
S502 N503 1.613 1_655 S
S502 N504 1.610 . S
N503 S502 1.613 1_455 S
N503 C506 1.350 . S
N504 S502 1.610 . S
N504 C505 1.351 . S
C505 C499 1.428 . S
C505 N504 1.351 . S
C505 C506 1.434 1_655 S
C506 C497 1.429 . S
C506 N503 1.350 . S
C506 C505 1.434 1_455 S
C507 C508 1.369 . S
C507 C509 1.419 . S
C507 H511 0.930 . S
C508 C507 1.369 . S
C508 C517 1.429 . S
C509 C507 1.419 . S
C509 C510 1.363 1_545 S
C509 H512 0.929 . S
C510 C509 1.363 1_565 S
C510 C516 1.428 . S
H511 C507 0.930 . S
H512 C509 0.929 . S
S513 N514 1.635 . S
S513 N515 1.610 1_556 S
N514 S513 1.635 . S
N514 C517 1.345 1_566 S
N515 S513 1.610 1_554 S
N515 C516 1.351 . S
C516 C510 1.428 . S
C516 N515 1.351 . S
C516 C517 1.434 1_565 S
C517 C508 1.429 . S
C517 N514 1.345 1_544 S
C517 C516 1.434 1_545 S
C518 C519 1.369 . S
C518 C520 1.419 . S
C518 H522 0.930 1_554 S
C519 C518 1.369 . S
C519 C528 1.429 . S
C520 C518 1.419 . S
C520 C521 1.363 . S
C520 H523 0.929 . S
C521 C520 1.363 . S
C521 C527 1.428 . S
H522 C518 0.930 1_556 S
H523 C520 0.929 . S
S524 N525 1.613 . S
S524 N526 1.610 . S
N525 S524 1.613 . S
N525 C528 1.350 . S
N526 S524 1.610 . S
N526 C527 1.351 . S
C527 C521 1.428 . S
C527 N526 1.351 . S
C527 C528 1.434 . S
C528 C519 1.429 . S
C528 N525 1.350 . S
C528 C527 1.434 . S
C529 C530 1.369 . S
C529 C531 1.419 . S
C529 H533 0.930 . S
C530 C529 1.369 . S
C530 C539 1.429 . S
C531 C529 1.419 . S
C531 C532 1.363 . S
C531 H534 0.929 . S
C532 C531 1.363 . S
C532 C538 1.428 . S
H533 C529 0.930 . S
H534 C531 0.929 . S
S535 N536 1.613 . S
S535 N537 1.610 . S
N536 S535 1.613 . S
N536 C539 1.350 . S
N537 S535 1.610 . S
N537 C538 1.351 . S
C538 C532 1.428 . S
C538 N537 1.351 . S
C538 C539 1.434 . S
C539 C530 1.429 . S
C539 N536 1.350 . S
C539 C538 1.434 . S
C540 C541 1.370 . S
C540 C542 1.418 1_655 S
C540 H544 0.930 1_655 S
C541 C540 1.370 . S
C541 C550 1.429 . S
C542 C540 1.418 1_455 S
C542 C543 1.363 . S
C542 H545 0.929 . S
C543 C542 1.363 . S
C543 C549 1.428 1_455 S
H544 C540 0.930 1_455 S
H545 C542 0.929 . S
S546 N547 1.620 . S
S546 N548 1.612 . S
N547 S546 1.620 . S
N547 C550 1.350 . S
N548 S546 1.612 . S
N548 C549 1.351 . S
C549 C543 1.428 1_655 S
C549 N548 1.351 . S
C549 C550 1.434 . S
C550 C541 1.429 . S
C550 N547 1.350 . S
C550 C549 1.434 . S
C551 C552 1.369 1_545 S
C551 C553 1.419 . S
C551 H555 0.930 . S
C552 C551 1.369 1_565 S
C552 C561 1.429 . S
C553 C551 1.419 . S
C553 C554 1.363 . S
C553 H556 0.929 . S
C554 C553 1.363 . S
C554 C560 1.428 1_545 S
H555 C551 0.930 . S
H556 C553 0.929 . S
S557 N558 1.613 . S
S557 N559 1.610 . S
N558 S557 1.613 . S
N558 C561 1.350 . S
N559 S557 1.610 . S
N559 C560 1.351 . S
C560 C554 1.428 1_565 S
C560 N559 1.351 . S
C560 C561 1.434 . S
C561 C552 1.429 . S
C561 N558 1.350 . S
C561 C560 1.434 . S
C562 C563 1.369 . S
C562 C564 1.419 . S
C562 H566 0.930 . S
C563 C562 1.369 . S
C563 C572 1.429 . S
C564 C562 1.419 . S
C564 C565 1.363 . S
C564 H567 0.929 . S
C565 C564 1.363 . S
C565 C571 1.428 . S
H566 C562 0.930 . S
H567 C564 0.929 . S
S568 N569 1.613 . S
S568 N570 1.610 . S
N569 S568 1.613 . S
N569 C572 1.350 . S
N570 S568 1.610 . S
N570 C571 1.351 . S
C571 C565 1.428 . S
C571 N570 1.351 . S
C571 C572 1.434 . S
C572 C563 1.429 . S
C572 N569 1.350 . S
C572 C571 1.434 . S
C573 C574 1.369 . S
C573 C575 1.419 . S
C573 H577 0.930 . S
C574 C573 1.369 . S
C574 C583 1.429 . S
C575 C573 1.419 . S
C575 C576 1.363 . S
C575 H578 0.929 . S
C576 C575 1.363 . S
C576 C582 1.428 . S
H577 C573 0.930 . S
H578 C575 0.929 . S
S579 N580 1.613 . S
S579 N581 1.610 . S
N580 S579 1.613 . S
N580 C583 1.350 . S
N581 S579 1.610 . S
N581 C582 1.351 . S
C582 C576 1.428 . S
C582 N581 1.351 . S
C582 C583 1.434 . S
C583 C574 1.429 . S
C583 N580 1.350 . S
C583 C582 1.434 . S
C584 C585 1.369 . S
C584 C586 1.419 . S
C584 H588 0.930 . S
C585 C584 1.369 . S
C585 C594 1.429 . S
C586 C584 1.419 . S
C586 C587 1.363 . S
C586 H589 0.929 . S
C587 C586 1.363 . S
C587 C593 1.428 . S
H588 C584 0.930 . S
H589 C586 0.929 . S
S590 N591 1.613 1_655 S
S590 N592 1.610 . S
N591 S590 1.613 1_455 S
N591 C594 1.350 . S
N592 S590 1.610 . S
N592 C593 1.351 1_655 S
C593 C587 1.428 . S
C593 N592 1.351 1_455 S
C593 C594 1.434 . S
C594 C585 1.429 . S
C594 N591 1.350 . S
C594 C593 1.434 . S
C595 C596 1.369 . S
C595 C597 1.419 . S
C595 H599 0.930 . S
C596 C595 1.369 . S
C596 C605 1.429 . S
C597 C595 1.419 . S
C597 C598 1.363 . S
C597 H600 0.929 . S
C598 C597 1.363 . S
C598 C604 1.428 . S
H599 C595 0.930 . S
H600 C597 0.929 . S
S601 N602 1.613 1_565 S
S601 N603 1.610 1_565 S
N602 S601 1.613 1_545 S
N602 C605 1.350 . S
N603 S601 1.610 1_545 S
N603 C604 1.351 . S
C604 C598 1.428 . S
C604 N603 1.351 . S
C604 C605 1.434 . S
C605 C596 1.429 . S
C605 N602 1.350 . S
C605 C604 1.434 . S
C606 C607 1.369 . S
C606 C608 1.419 . S
C606 H610 0.930 . S
C607 C606 1.369 . S
C607 C616 1.429 . S
C608 C606 1.419 . S
C608 C609 1.363 . S
C608 H611 0.929 . S
C609 C608 1.363 . S
C609 C615 1.428 . S
H610 C606 0.930 . S
H611 C608 0.929 . S
S612 N613 1.613 1_554 S
S612 N614 1.610 1_554 S
N613 S612 1.613 1_556 S
N613 C616 1.350 . S
N614 S612 1.610 1_556 S
N614 C615 1.351 . S
C615 C609 1.428 . S
C615 N614 1.351 . S
C615 C616 1.434 . S
C616 C607 1.429 . S
C616 N613 1.350 . S
C616 C615 1.434 . S
C617 C618 1.369 . S
C617 C619 1.419 . S
C617 H621 0.930 . S
C618 C617 1.369 . S
C618 C627 1.429 . S
C619 C617 1.419 . S
C619 C620 1.363 . S
C619 H622 0.929 . S
C620 C619 1.363 . S
C620 C626 1.428 . S
H621 C617 0.930 . S
H622 C619 0.929 . S
S623 N624 1.613 . S
S623 N625 1.610 . S
N624 S623 1.613 . S
N624 C627 1.350 . S
N625 S623 1.610 . S
N625 C626 1.351 . S
C626 C620 1.428 . S
C626 N625 1.351 . S
C626 C627 1.434 . S
C627 C618 1.429 . S
C627 N624 1.350 . S
C627 C626 1.434 . S
C628 C629 1.369 . S
C628 C630 1.419 . S
C628 H632 0.930 . S
C629 C628 1.369 . S
C629 C638 1.429 . S
C630 C628 1.419 . S
C630 C631 1.363 . S
C630 H633 0.929 . S
C631 C630 1.363 . S
C631 C637 1.428 . S
H632 C628 0.930 . S
H633 C630 0.929 . S
S634 N635 1.613 . S
S634 N636 1.610 . S
N635 S634 1.613 . S
N635 C638 1.350 1_455 S
N636 S634 1.610 . S
N636 C637 1.351 1_455 S
C637 C631 1.428 . S
C637 N636 1.351 1_655 S
C637 C638 1.434 . S
C638 C629 1.429 . S
C638 N635 1.350 1_655 S
C638 C637 1.434 . S
C639 C640 1.369 . S
C639 C641 1.419 . S
C639 H643 0.930 . S
C640 C639 1.369 . S
C640 C649 1.429 . S
C641 C639 1.419 . S
C641 C642 1.363 . S
C641 H644 0.929 . S
C642 C641 1.363 . S
C642 C648 1.428 . S
H643 C639 0.930 . S
H644 C641 0.929 . S
S645 N646 1.613 . S
S645 N647 1.610 . S
N646 S645 1.613 . S
N646 C649 1.350 . S
N647 S645 1.610 . S
N647 C648 1.351 . S
C648 C642 1.428 . S
C648 N647 1.351 . S
C648 C649 1.434 . S
C649 C640 1.429 . S
C649 N646 1.350 . S
C649 C648 1.434 . S
C650 C651 1.369 . S
C650 C652 1.419 . S
C650 H654 0.930 . S
C651 C650 1.369 . S
C651 C660 1.429 . S
C652 C650 1.419 . S
C652 C653 1.363 . S
C652 H655 0.929 . S
C653 C652 1.363 . S
C653 C659 1.428 . S
H654 C650 0.930 . S
H655 C652 0.929 . S
S656 N657 1.613 . S
S656 N658 1.610 . S
N657 S656 1.613 . S
N657 C660 1.350 . S
N658 S656 1.610 . S
N658 C659 1.351 . S
C659 C653 1.428 . S
C659 N658 1.351 . S
C659 C660 1.434 . S
C660 C651 1.429 . S
C660 N657 1.350 . S
C660 C659 1.434 . S
C661 C662 1.369 . S
C661 C663 1.419 . S
C661 H665 0.930 . S
C662 C661 1.369 . S
C662 C671 1.429 . S
C663 C661 1.419 . S
C663 C664 1.363 . S
C663 H666 0.929 . S
C664 C663 1.363 . S
C664 C670 1.428 . S
H665 C661 0.930 . S
H666 C663 0.929 . S
S667 N668 1.613 . S
S667 N669 1.610 . S
N668 S667 1.613 . S
N668 C671 1.350 . S
N669 S667 1.610 . S
N669 C670 1.351 . S
C670 C664 1.428 . S
C670 N669 1.351 . S
C670 C671 1.434 . S
C671 C662 1.429 . S
C671 N668 1.350 . S
C671 C670 1.434 . S
C409 C61 1.993 . S
C411 C147 2.120 . S
C422 C231 2.130 . S
C420 C70 2.021 . S
C433 C307 2.019 . S
C431 C43 2.074 . S
C444 C391 2.022 . S
C442 C52 2.064 . S
C455 C138 2.113 1_565 S
C453 C25 2.002 . S
C464 C34 2.027 . S
C466 C222 2.126 . S
C475 C7 2.081 . S
C477 C296 2.017 . S
C486 C16 2.067 . S
C488 C380 2.022 . S
C499 C135 0.988 . S
C497 C50 0.919 . S
C510 C219 0.958 . S
C508 C59 0.885 . S
C521 C312 0.902 . S
C519 C67 0.872 . S
C530 C41 0.887 . S
C532 C396 0.933 . S
C541 C14 0.934 . S
C543 C144 0.988 . S
C554 C228 0.958 . S
C552 C23 0.914 . S
C565 C303 0.899 . S
C563 C31 0.847 . S
C574 C5 0.891 . S
C576 C387 0.927 . S
C585 C49 2.128 . S
C587 C128 2.232 . S
C596 C58 2.112 . S
C598 C212 2.218 . S
C609 C306 2.279 . S
C607 C68 2.016 . S
C620 C390 2.290 . S
C618 C40 2.037 . S
C629 C13 2.131 . S
C631 C139 2.233 . S
C642 C223 2.222 . S
C640 C22 2.113 . S
C653 C315 2.281 . S
C651 C32 2.025 . S
C662 C4 2.036 . S
C664 C399 2.293 . S
