# Generated by pormake.
# Topology csq, (4,8)-cn, num edge types: 1
# Building blocks:
#     Node 0, Type 0, BuildingBlock: KUFVIS_clean_linker_0, # of connection points: 4
#     Node 1, Type 0, BuildingBlock: KUFVIS_clean_linker_0, # of connection points: 4
#     Node 2, Type 0, BuildingBlock: KUFVIS_clean_linker_0, # of connection points: 4
#     Node 3, Type 0, BuildingBlock: KUFVIS_clean_linker_0, # of connection points: 4
#     Node 4, Type 0, BuildingBlock: KUFVIS_clean_linker_0, # of connection points: 4
#     Node 5, Type 0, BuildingBlock: KUFVIS_clean_linker_0, # of connection points: 4
#     Node 6, Type 1, BuildingBlock: TAGTUT_clean_sbu_1, # of connection points: 8
#     Node 7, Type 1, BuildingBlock: TAGTUT_clean_sbu_1, # of connection points: 8
#     Node 8, Type 1, BuildingBlock: TAGTUT_clean_sbu_1, # of connection points: 8
#     Edge 9, Type (0, 1), BuildingBlock: OJICUG_clean_linker_0, # of connection points: 2
#     Edge 10, Type (0, 1), BuildingBlock: OJICUG_clean_linker_0, # of connection points: 2
#     Edge 11, Type (0, 1), BuildingBlock: OJICUG_clean_linker_0, # of connection points: 2
#     Edge 12, Type (0, 1), BuildingBlock: OJICUG_clean_linker_0, # of connection points: 2
#     Edge 13, Type (0, 1), BuildingBlock: OJICUG_clean_linker_0, # of connection points: 2
#     Edge 14, Type (0, 1), BuildingBlock: OJICUG_clean_linker_0, # of connection points: 2
#     Edge 15, Type (0, 1), BuildingBlock: OJICUG_clean_linker_0, # of connection points: 2
#     Edge 16, Type (0, 1), BuildingBlock: OJICUG_clean_linker_0, # of connection points: 2
#     Edge 17, Type (0, 1), BuildingBlock: OJICUG_clean_linker_0, # of connection points: 2
#     Edge 18, Type (0, 1), BuildingBlock: OJICUG_clean_linker_0, # of connection points: 2
#     Edge 19, Type (0, 1), BuildingBlock: OJICUG_clean_linker_0, # of connection points: 2
#     Edge 20, Type (0, 1), BuildingBlock: OJICUG_clean_linker_0, # of connection points: 2
#     Edge 21, Type (0, 1), BuildingBlock: OJICUG_clean_linker_0, # of connection points: 2
#     Edge 22, Type (0, 1), BuildingBlock: OJICUG_clean_linker_0, # of connection points: 2
#     Edge 23, Type (0, 1), BuildingBlock: OJICUG_clean_linker_0, # of connection points: 2
#     Edge 24, Type (0, 1), BuildingBlock: OJICUG_clean_linker_0, # of connection points: 2
#     Edge 25, Type (0, 1), BuildingBlock: OJICUG_clean_linker_0, # of connection points: 2
#     Edge 26, Type (0, 1), BuildingBlock: OJICUG_clean_linker_0, # of connection points: 2
#     Edge 27, Type (0, 1), BuildingBlock: OJICUG_clean_linker_0, # of connection points: 2
#     Edge 28, Type (0, 1), BuildingBlock: OJICUG_clean_linker_0, # of connection points: 2
#     Edge 29, Type (0, 1), BuildingBlock: OJICUG_clean_linker_0, # of connection points: 2
#     Edge 30, Type (0, 1), BuildingBlock: OJICUG_clean_linker_0, # of connection points: 2
#     Edge 31, Type (0, 1), BuildingBlock: OJICUG_clean_linker_0, # of connection points: 2
#     Edge 32, Type (0, 1), BuildingBlock: OJICUG_clean_linker_0, # of connection points: 2
# Relax obj value: 0.046
# Max RMSD: 0.128
# Mean RMSD: 0.099
data_MOF--net-csq--node1-TAGTUT_clean_sbu_1--node2-KUFVIS_clean_linker_0--edge1-OJICUG_clean_linker_0
_symmetry_space_group_name_H-M    P1
_symmetry_Int_Tables_number       1
_symmetry_cell_setting            triclinic
loop_
_symmetry_equiv_pos_as_xyz
'x, y, z'
_cell_length_a     40.467244
_cell_length_b     40.28842
_cell_length_c     14.146984
_cell_angle_alpha  93.629692
_cell_angle_beta   92.293216
_cell_angle_gamma 120.07599
loop_
_atom_site_label
_atom_site_type_symbol
_atom_site_fract_x
_atom_site_fract_y
_atom_site_fract_z
_atom_type_partial_charge
H0 H 0.37139 0.49115 0.23446 0.0
H1 H 0.27176 0.48028 0.35411 0.0
H2 H 0.28865 0.49948 0.05624 0.0
H3 H 0.22826 0.47666 0.04022 0.0
H4 H 0.1447 0.49747 0.16129 0.0
H5 H 0.23403 0.50315 0.34541 0.0
C6 C 0.34445 0.49077 0.225 0.0
C7 C 0.33168 0.49454 0.13521 0.0
C8 C 0.32299 0.48639 0.30317 0.0
C9 C 0.28795 0.48511 0.29247 0.0
C10 C 0.27426 0.48971 0.20375 0.0
C11 C 0.29688 0.49454 0.12513 0.0
C12 C 0.23706 0.49 0.19411 0.0
C13 C 0.21804 0.48379 0.10333 0.0
C14 C 0.18586 0.48778 0.09158 0.0
C15 C 0.16999 0.49482 0.17108 0.0
C16 C 0.18644 0.4987 0.26292 0.0
C17 C 0.22048 0.49734 0.27426 0.0
H18 H 0.67462 0.13687 0.18495 0.0
H19 H 0.77541 0.23925 0.30219 0.0
H20 H 0.74156 0.22248 -3e-05 0.0
H21 H 0.80421 0.26086 -0.00906 0.0
H22 H 0.8883 0.37435 0.10793 0.0
H23 H 0.80436 0.30008 0.28453 0.0
C24 C 0.69958 0.16417 0.17369 0.0
C25 C 0.7061 0.176 0.08163 0.0
C26 C 0.72419 0.1874 0.25244 0.0
C27 C 0.75621 0.22289 0.24013 0.0
C28 C 0.76327 0.23663 0.14934 0.0
C29 C 0.73744 0.2128 0.07036 0.0
C30 C 0.79759 0.27538 0.13762 0.0
C31 C 0.81461 0.28291 0.05013 0.0
C32 C 0.84648 0.31897 0.03982 0.0
C33 C 0.86221 0.34741 0.11587 0.0
C34 C 0.84822 0.34013 0.20458 0.0
C35 C 0.81526 0.30459 0.21517 0.0
H36 H 0.52195 0.88394 0.03535 0.0
H37 H 0.54585 0.80783 0.18098 0.0
H38 H 0.51583 0.78697 0.87614 0.0
H39 H 0.5495 0.7567 0.88661 0.0
H40 H 0.54153 0.66379 0.03297 0.0
H41 H 0.51348 0.74235 0.1743 0.0
C42 C 0.52242 0.85716 0.03373 0.0
C43 C 0.5174 0.83658 0.94692 0.0
C44 C 0.53288 0.8471 0.11699 0.0
C45 C 0.5363 0.81424 0.11563 0.0
C46 C 0.52852 0.79068 0.0298 0.0
C47 C 0.52011 0.80296 0.94425 0.0
C48 C 0.53123 0.75484 0.03031 0.0
C49 C 0.54272 0.74163 0.95002 0.0
C50 C 0.54616 0.70882 0.95222 0.0
C51 C 0.53842 0.68909 0.03265 0.0
C52 C 0.52641 0.70062 0.11197 0.0
C53 C 0.52297 0.7337 0.11186 0.0
H54 H 0.89682 0.5446 0.09164 0.0
H55 H 0.80756 0.55587 0.21213 0.0
H56 H 0.8027 0.52869 0.9076 0.0
H57 H 0.76245 0.54846 0.89731 0.0
H58 H 0.66076 0.53234 0.01554 0.0
H59 H 0.74684 0.53036 0.19606 0.0
C60 C 0.87007 0.54456 0.0817 0.0
C61 C 0.85263 0.53849 -0.01004 0.0
C62 C 0.85296 0.54972 0.16102 0.0
C63 C 0.81875 0.55006 0.14912 0.0
C64 C 0.79917 0.54212 0.05835 0.0
C65 C 0.81671 0.53605 0.97859 0.0
C66 C 0.76063 0.53963 0.04804 0.0
C67 C 0.7461 0.54284 0.95881 0.0
C68 C 0.71006 0.53931 0.94747 0.0
C69 C 0.68836 0.53413 0.02547 0.0
C70 C 0.70197 0.53191 0.11588 0.0
C71 C 0.73781 0.53405 0.1266 0.0
H72 H 0.36986 0.89666 0.06878 0.0
H73 H 0.2995 0.81317 0.25435 0.0
H74 H 0.26781 0.79571 0.95082 0.0
H75 H 0.23666 0.73514 0.96971 0.0
H76 H 0.15013 0.66369 0.14466 0.0
H77 H 0.23675 0.77613 0.2617 0.0
C78 C 0.34433 0.86981 0.07985 0.0
C79 C 0.31986 0.84661 0.00076 0.0
C80 C 0.33668 0.8586 0.17227 0.0
C81 C 0.30445 0.82239 0.18359 0.0
C82 C 0.27877 0.79868 0.10427 0.0
C83 C 0.2869 0.81189 0.01318 0.0
C84 C 0.24343 0.76065 0.11584 0.0
C85 C 0.22534 0.73132 0.03859 0.0
C86 C 0.19147 0.69654 0.04885 0.0
C87 C 0.17684 0.69006 0.13696 0.0
C88 C 0.19305 0.71862 0.21266 0.0
C89 C 0.22593 0.75396 0.20273 0.0
H90 H 0.4938 0.36328 0.21204 0.0
H91 H 0.4851 0.27118 0.36363 0.0
H92 H 0.5131 0.27807 0.06955 0.0
H93 H 0.47013 0.20887 0.08201 0.0
H94 H 0.50419 0.13901 0.22587 0.0
H95 H 0.52666 0.24621 0.36676 0.0
C96 C 0.49575 0.33733 0.21303 0.0
C97 C 0.50502 0.32349 0.13226 0.0
C98 C 0.48879 0.31878 0.29529 0.0
C99 C 0.49087 0.28531 0.29865 0.0
C100 C 0.4997 0.26997 0.21739 0.0
C101 C 0.5064 0.28922 0.13306 0.0
C102 C 0.50097 0.23365 0.22073 0.0
C103 C 0.48432 0.20492 0.14322 0.0
C104 C 0.48412 0.17012 0.14728 0.0
C105 C 0.50316 0.16541 0.22459 0.0
C106 C 0.51721 0.19167 0.30478 0.0
C107 C 0.51608 0.22598 0.30363 0.0
C108 C 0.97045 0.40753 0.83947 0.0
C109 C 0.09071 0.4797 0.78513 0.0
C110 C 0.06419 0.5954 0.78092 0.0
Mg111 Mg 0.01514 0.43742 0.6645 0.0
O112 O 1.00272 0.47547 0.7026 0.0
Mg113 Mg 0.02371 0.50409 0.83016 0.0
Mg114 Mg 0.01969 0.51912 0.62577 0.0
O115 O 0.03663 0.56286 0.5493 0.0
Mg116 Mg 0.02452 0.60109 0.58807 0.0
Mg117 Mg 0.01555 0.53438 0.42181 0.0
C118 C 0.97549 0.4429 0.47106 0.0
C119 C 0.08316 0.51806 0.48662 0.0
O120 O 0.98508 0.44252 0.87701 0.0
O121 O 0.97877 0.3986 0.7592 0.0
O122 O 0.07485 0.49587 0.82882 0.0
O123 O 0.07405 0.45594 0.71146 0.0
O124 O 0.9896 0.42613 0.51914 0.0
O125 O 0.98246 0.47719 0.49723 0.0
C126 C 0.95629 0.52053 0.76474 0.0
O127 O 0.96802 0.52533 0.68076 0.0
O128 O 0.97293 0.51251 0.8301 0.0
O129 O 0.05419 0.59607 0.3751 0.0
O130 O 0.0608 0.63992 0.49347 0.0
O131 O 0.96443 0.54271 0.42352 0.0
C132 C 0.06891 0.63105 0.41286 0.0
O133 O 0.96569 0.58289 0.54103 0.0
O134 O 0.05039 0.61252 0.73322 0.0
C135 C 0.94883 0.55911 0.46745 0.0
O136 O 0.05679 0.56102 0.75422 0.0
O137 O 0.07148 0.513 0.57065 0.0
O138 O 0.06634 0.5261 0.42174 0.0
C139 C 0.44892 0.04499 0.8808 0.0
C140 C 0.40408 0.93479 0.72652 0.0
C141 C 0.54624 0.96031 0.72829 0.0
Mg142 Mg 0.44383 0.0168 0.67174 0.0
O143 O 0.49254 0.02733 0.72169 0.0
Mg144 Mg 0.49472 0.99635 0.82289 0.0
Mg145 Mg 0.52126 0.01723 0.62808 0.0
O146 O 0.54945 0.00694 0.53314 0.0
Mg147 Mg 0.59755 0.01305 0.57181 0.0
Mg148 Mg 0.54624 0.03773 0.43227 0.0
C149 C 0.49664 0.0737 0.52622 0.0
C150 C 0.45906 0.96825 0.44373 0.0
O151 O 0.46864 0.02933 0.90629 0.0
O152 O 0.43614 0.04265 0.79526 0.0
O153 O 0.43463 0.94706 0.78046 0.0
O154 O 0.40055 0.95603 0.66834 0.0
O155 O 0.46374 0.05603 0.56028 0.0
O156 O 0.52233 0.0644 0.54223 0.0
C157 C 0.58197 0.0669 0.81352 0.0
O158 O 0.57707 0.06289 0.72233 0.0
O159 O 0.55531 0.04536 0.86408 0.0
O160 O 0.56651 1.00186 0.34369 0.0
O161 O 0.59884 0.98417 0.44317 0.0
O162 O 0.60778 0.08551 0.47072 0.0
C163 C 0.58313 0.98248 0.36151 0.0
O164 O 0.64241 0.07298 0.5732 0.0
O165 O 0.57781 0.97557 0.68748 0.0
C166 C 0.63897 0.09578 0.52019 0.0
O167 O 0.52124 0.97084 0.7149 0.0
O168 O 0.4649 0.97114 0.53455 0.0
O169 O 0.48514 0.99058 0.39332 0.0
C170 C 0.53964 0.59948 0.35045 0.0
C171 C 0.60292 0.53738 0.39314 0.0
C172 C 0.46937 0.42753 0.51464 0.0
Mg173 Mg 0.58114 0.58669 0.52173 0.0
O174 O 0.52979 0.54728 0.52207 0.0
Mg175 Mg 0.50786 0.50845 0.40985 0.0
Mg176 Mg 0.51672 0.5134 0.62533 0.0
O177 O 0.50348 0.47929 0.72793 0.0
Mg178 Mg 0.45192 0.43995 0.72705 0.0
Mg179 Mg 0.52543 0.51768 0.8405 0.0
C180 C 0.56453 0.59926 0.73552 0.0
C181 C 0.59662 0.52808 0.7233 0.0
O182 O 0.51813 0.5626 0.33105 0.0
O183 O 0.56614 0.61449 0.41873 0.0
O184 O 0.56683 0.51669 0.37046 0.0
O185 O 0.61609 0.56541 0.45824 0.0
O186 O 0.58756 0.6103 0.66911 0.0
O187 O 0.53562 0.56481 0.73398 0.0
C188 C 0.43664 0.49811 0.52703 0.0
O189 O 0.45531 0.50315 0.60673 0.0
O190 O 0.45101 0.49933 0.44788 0.0
O191 O 0.51465 0.4627 0.91741 0.0
O192 O 0.46604 0.41145 0.82937 0.0
O193 O 0.46652 0.50946 0.87994 0.0
C194 C 0.4926 0.42589 0.89741 0.0
O195 O 0.41712 0.46136 0.79098 0.0
O196 O 0.44592 0.41606 0.58011 0.0
C197 C 0.43043 0.4891 0.85695 0.0
O198 O 0.49795 0.46213 0.51731 0.0
O199 O 0.57808 0.52351 0.64371 0.0
O200 O 0.58221 0.52665 0.80245 0.0
C201 C 0.14173 0.47577 0.39369 0.0
C202 C 0.16817 0.50623 0.34455 0.0
H203 H 0.09413 0.45585 0.48118 0.0
C204 C 0.17082 0.54226 0.35945 0.0
H205 H 0.1386 0.44747 0.38178 0.0
C206 C 0.14564 0.54703 0.41611 0.0
C207 C 0.11714 0.51592 0.45939 0.0
H208 H 0.19045 0.566 0.32135 0.0
H209 H 0.14641 0.57436 0.41983 0.0
C210 C 0.11642 0.48059 0.45095 0.0
C211 C 0.72208 0.14685 0.38065 0.0
C212 C 0.71431 0.17458 0.3479 0.0
H213 H 0.70502 0.10072 0.46937 0.0
C214 C 0.68955 0.18334 0.39569 0.0
H215 H 0.74094 0.13958 0.34399 0.0
C216 C 0.66897 0.16117 0.4672 0.0
C217 C 0.67291 0.12993 0.49145 0.0
H218 H 0.68305 0.2045 0.37089 0.0
H219 H 0.64654 0.16529 0.49476 0.0
C220 C 0.70184 0.12496 0.45323 0.0
C221 C 0.49451 0.63793 0.18073 0.0
C222 C 0.52091 0.67785 0.19374 0.0
H223 H 0.4803 0.58169 0.21721 0.0
C224 C 0.55087 0.69195 0.2654 0.0
H225 H 0.47164 0.62627 0.12416 0.0
C226 C 0.55642 0.66645 0.31712 0.0
C227 C 0.53213 0.62622 0.29811 0.0
H228 H 0.57214 0.72239 0.27511 0.0
H229 H 0.58093 0.67836 0.369 0.0
C230 C 0.50015 0.61234 0.23205 0.0
C231 C 0.86637 0.51741 0.28725 0.0
C232 C 0.86941 0.55115 0.25679 0.0
H233 H 0.88843 0.49341 0.38446 0.0
C234 C 0.89162 0.58628 0.31299 0.0
H235 H 0.84902 0.49002 0.24496 0.0
C236 C 0.91399 0.58823 0.39369 0.0
C237 C 0.91428 0.55506 0.41778 0.0
H238 H 0.89403 0.61253 0.29031 0.0
H239 H 0.93413 0.61619 0.43029 0.0
C240 C 0.88847 0.5193 0.36759 0.0
C241 C 0.37688 0.92529 0.25495 0.0
C242 C 0.36286 0.88549 0.25492 0.0
H243 H 0.41779 0.98227 0.31575 0.0
C244 C 0.37669 0.87279 0.32934 0.0
H245 H 0.36634 0.93619 0.20045 0.0
C246 C 0.40598 0.89958 0.39747 0.0
C247 C 0.42186 0.93941 0.39198 0.0
H248 H 0.3666 0.84239 0.33157 0.0
H249 H 0.41799 0.88927 0.44998 0.0
C250 C 0.40612 0.95177 0.32179 0.0
C251 C 0.4451 0.33303 0.38144 0.0
C252 C 0.48184 0.33791 0.37645 0.0
H253 H 0.41223 0.35856 0.42807 0.0
C254 C 0.51374 0.37128 0.42088 0.0
H255 H 0.42033 0.30792 0.34465 0.0
C256 C 0.50948 0.40091 0.46245 0.0
C257 C 0.47307 0.3972 0.4625 0.0
H258 H 0.54238 0.37596 0.41522 0.0
H259 H 0.53481 0.42687 0.49415 0.0
C260 C 0.44066 0.36239 0.42573 0.0
C261 C 0.55247 0.87703 0.82188 0.0
C262 C 0.5177 0.85693 0.86323 0.0
H263 H 0.58944 0.92612 0.75133 0.0
C264 C 0.49071 0.86909 0.85273 0.0
H265 H 0.5742 0.86903 0.83111 0.0
C266 C 0.49979 0.90269 0.80951 0.0
C267 C 0.53601 0.92474 0.77543 0.0
H268 H 0.46402 0.85465 0.88618 0.0
H269 H 0.47893 0.91199 0.80573 0.0
C270 C 0.56161 0.91059 0.77897 0.0
C271 C 0.69325 0.57366 0.83385 0.0
C272 C 0.69353 0.54022 0.85407 0.0
H273 H 0.66132 0.59604 0.76648 0.0
C274 C 0.66864 0.5052 0.80008 0.0
H275 H 0.71211 0.60083 0.87561 0.0
C276 C 0.63973 0.5025 0.73713 0.0
C277 C 0.63555 0.53474 0.7291 0.0
H278 H 0.66835 0.47907 0.81563 0.0
H279 H 0.61736 0.47421 0.70687 0.0
C280 C 0.66444 0.57096 0.77072 0.0
C281 C 0.15007 0.68542 0.90368 0.0
C282 C 0.16548 0.67047 0.96709 0.0
H283 H 0.10546 0.67384 0.79919 0.0
C284 C 0.14797 0.63017 0.9677 0.0
H285 H 0.16231 0.71629 0.90346 0.0
C286 C 0.11476 0.6054 0.90825 0.0
C287 C 0.09809 0.62057 0.8486 0.0
H288 H 0.15893 0.61798 0.01763 0.0
H289 H 0.1017 0.57456 0.91066 0.0
C290 C 0.11669 0.66089 0.8459 0.0
C291 C 0.44524 0.09946 0.10085 0.0
C292 C 0.46441 0.13738 0.07339 0.0
H293 H 0.42705 0.04003 0.06192 0.0
C294 C 0.47148 0.1431 0.97825 0.0
H295 H 0.43844 0.09427 0.17372 0.0
C296 C 0.46354 0.11187 0.91412 0.0
C297 C 0.44923 0.07489 0.94506 0.0
H298 H 0.48611 0.17186 0.95534 0.0
H299 H 0.47154 0.11718 0.84204 0.0
C300 C 0.43878 0.06848 0.03769 0.0
C301 C 0.39492 0.52448 0.06312 0.0
C302 C 0.35529 0.49802 0.05362 0.0
H303 H 0.44933 0.54311 0.00821 0.0
C304 C 0.33977 0.47174 0.97164 0.0
H305 H 0.40774 0.54528 0.12507 0.0
C306 C 0.36378 0.47015 0.90431 0.0
C307 C 0.40383 0.49503 0.91715 0.0
H308 H 0.30938 0.45086 0.96255 0.0
H309 H 0.35112 0.44818 0.84475 0.0
C310 C 0.41879 0.52317 -0.00423 0.0
C311 C 0.89876 0.32073 0.95395 0.0
C312 C 0.86817 0.32794 0.95567 0.0
H313 H 0.95651 0.34142 0.9167 0.0
C314 C 0.86948 0.35749 0.9059 0.0
H315 H 0.89852 0.29852 -0.0062 0.0
C316 C 0.90299 0.38287 0.86685 0.0
C317 C 0.93509 0.37831 0.87474 0.0
H318 H 0.8465 0.36392 0.90796 0.0
H319 H 0.90448 0.40722 0.83447 0.0
C320 C 0.9322 0.34581 0.9128 0.0
C321 C 0.86646 0.496 0.88247 0.0
C322 C 0.87195 0.53273 0.90832 0.0
H323 H 0.88874 0.46335 0.81316 0.0
C324 C 0.90153 0.56466 0.86976 0.0
H325 H 0.84442 0.47107 0.91269 0.0
C326 C 0.92671 0.56019 0.81151 0.0
C327 C 0.92291 0.52376 0.79165 0.0
H328 H 0.90684 0.59339 0.89031 0.0
H329 H 0.95114 0.58561 0.78944 0.0
C330 C 0.89174 0.4916 0.8251 0.0
C331 C 0.35569 0.84992 0.86 0.0
C332 C 0.33036 0.85866 0.90489 0.0
H333 H 0.39835 0.86674 0.7602 0.0
C334 C 0.32141 0.88482 0.86702 0.0
H335 H 0.36299 0.82986 0.88851 0.0
C336 C 0.34102 0.90537 0.79195 0.0
C337 C 0.37043 0.90058 0.75606 0.0
H338 H 0.30198 0.89197 0.90115 0.0
H339 H 0.337 0.92869 0.77177 0.0
C340 C 0.3755 0.87064 0.7857 0.0
C341 C 0.47844 0.33228 0.98231 0.0
C342 C 0.50991 0.34546 0.04909 0.0
H343 H 0.44768 0.34732 0.88448 0.0
C344 C 0.538 0.38493 0.05841 0.0
H345 H 0.45589 0.3023 0.97566 0.0
C346 C 0.53273 0.4112 0.00904 0.0
C347 C 0.49947 0.39842 0.94828 0.0
H348 H 0.56212 0.39596 0.11133 0.0
H349 H 0.554 0.44157 0.02118 0.0
C350 C 0.47329 0.35843 0.93232 0.0
C351 C 0.14894 0.45272 0.93664 0.0
C352 C 0.1699 0.48726 -0.00415 0.0
H353 H 0.10735 0.4234 0.81729 0.0
C354 C 0.17211 0.52102 0.96821 0.0
H355 H 0.14722 0.42646 0.95697 0.0
C356 C 0.15027 0.51953 0.88782 0.0
C357 C 0.1254 0.4841 0.83498 0.0
H358 H 0.18861 0.54802 0.01258 0.0
H359 H 0.14967 0.5453 0.87299 0.0
C360 C 0.12668 0.45113 0.85611 0.0
C361 C 0.66472 0.16212 0.92733 0.0
C362 C 0.67939 0.14927 -0.00046 0.0
H363 H 0.62234 0.14585 0.8094 0.0
C364 C 0.66551 0.10944 -0.00166 0.0
H365 H 0.67463 0.19252 0.92603 0.0
C366 C 0.63558 0.08306 0.9329 0.0
C367 C 0.61918 0.09562 0.86501 0.0
H368 H 0.6767 0.09842 0.051 0.0
H369 H 0.62406 0.05253 0.93801 0.0
C370 C 0.63486 0.13545 0.86036 0.0
C371 C 0.59031 0.69386 0.87072 0.0
C372 C 0.55413 0.69073 0.87059 0.0
H373 H 0.62196 0.66631 0.82925 0.0
C374 C 0.52235 0.6587 0.82109 0.0
H375 H 0.61491 0.71788 0.91121 0.0
C376 C 0.52583 0.6284 0.78055 0.0
C377 C 0.56141 0.63017 0.78641 0.0
H378 H 0.49406 0.65532 0.82252 0.0
H379 H 0.50054 0.60337 0.74522 0.0
C380 C 0.59404 0.66389 0.82738 0.0
C381 C 0.54898 0.16233 0.39158 0.0
C382 C 0.52321 0.17623 0.39158 0.0
H383 H 0.56007 0.11799 0.43063 0.0
C384 C 0.4922 0.15977 0.44792 0.0
H385 H 0.57277 0.17412 0.34721 0.0
C386 C 0.48398 0.12676 0.49213 0.0
C387 C 0.50713 0.10997 0.48279 0.0
H388 H 0.47156 0.16943 0.44802 0.0
H389 H 0.45845 0.11352 0.53033 0.0
C390 C 0.54096 0.1294 0.43665 0.0
C391 C 0.34019 0.45177 0.41502 0.0
C392 C 0.33924 0.48503 0.3965 0.0
H393 H 0.37275 0.4298 0.48104 0.0
C394 C 0.36349 0.51983 0.45212 0.0
H395 H 0.32183 0.42477 0.37206 0.0
C396 C 0.39258 0.52269 0.51473 0.0
C397 C 0.39747 0.49081 0.52104 0.0
H398 H 0.36325 0.54583 0.43792 0.0
H399 H 0.41454 0.55097 0.54613 0.0
C400 C 0.3691 0.45461 0.47802 0.0
C401 C 0.89082 0.35193 0.34782 0.0
C402 C 0.87429 0.36635 0.28605 0.0
H403 H 0.93629 0.36438 0.45043 0.0
C404 C 0.89071 0.40659 0.2865 0.0
H405 H 0.87945 0.32116 0.34715 0.0
C406 C 0.92391 0.43184 0.34542 0.0
C407 C 0.94168 0.41726 0.40352 0.0
H408 H 0.87887 0.41841 0.23781 0.0
H409 H 0.93608 0.46262 0.34393 0.0
C410 C 0.92419 0.37695 0.40505 0.0
C411 C 0.58368 0.89848 0.23011 0.0
C412 C 0.54458 0.87525 0.20006 0.0
H413 H 0.62724 0.95214 0.30427 0.0
C414 C 0.51879 0.88709 0.22634 0.0
H415 H 0.60406 0.89008 0.20867 0.0
C416 C 0.53221 0.92318 0.27407 0.0
C417 C 0.57151 0.9475 0.2995 0.0
H418 H 0.48858 0.86969 0.20277 0.0
H419 H 0.5117 0.93191 0.29201 0.0
C420 C 0.59704 0.93433 0.2813 0.0
C421 C 0.69376 0.55525 0.27865 0.0
C422 C 0.67841 0.52842 0.19766 0.0
H423 H 0.68217 0.57925 0.40435 0.0
C424 C 0.63889 0.50144 0.18909 0.0
H425 H 0.72403 0.57655 0.28707 0.0
C426 C 0.61494 0.5028 0.25613 0.0
C427 C 0.62968 0.53147 0.33356 0.0
H428 H 0.62618 0.48018 0.12798 0.0
H429 H 0.58447 0.48245 0.24432 0.0
C430 C 0.66966 0.55686 0.34569 0.0
C431 C 0.14018 0.71702 0.29524 0.0
C432 C 0.17121 0.71043 0.2965 0.0
H433 H 0.08208 0.69585 0.33005 0.0
C434 C 0.17023 0.6817 0.34914 0.0
H435 H 0.14017 0.73855 0.2531 0.0
C436 C 0.13672 0.65645 0.38842 0.0
C437 C 0.10424 0.66028 0.37757 0.0
H438 H 0.19353 0.67571 0.34932 0.0
H439 H 0.13552 0.6327 0.42321 0.0
C440 C 0.1067 0.69202 0.33634 0.0
loop_
_geom_bond_atom_site_label_1
_geom_bond_atom_site_label_2
_geom_bond_distance
_geom_bond_site_symmetry_2
_ccdc_geom_bond_type
H0 C6 0.930 . S
H1 C9 0.931 . S
H2 C11 0.931 . S
H3 C13 0.930 . S
H4 C15 0.930 . S
H5 C17 0.931 . S
C6 H0 0.930 . S
C6 C7 1.380 . S
C6 C8 1.394 . S
C7 C6 1.380 . S
C7 C11 1.382 . S
C8 C6 1.394 . S
C8 C9 1.400 . S
C9 H1 0.931 . S
C9 C8 1.400 . S
C9 C10 1.375 . S
C10 C9 1.375 . S
C10 C11 1.415 . S
C10 C12 1.501 . S
C11 H2 0.931 . S
C11 C7 1.382 . S
C11 C10 1.415 . S
C12 C10 1.501 . S
C12 C13 1.384 . S
C12 C17 1.408 . S
C13 H3 0.930 . S
C13 C12 1.384 . S
C13 C14 1.389 . S
C14 C13 1.389 . S
C14 C15 1.405 . S
C15 H4 0.930 . S
C15 C14 1.405 . S
C15 C16 1.364 . S
C16 C15 1.364 . S
C16 C17 1.400 . S
C17 H5 0.931 . S
C17 C12 1.408 . S
C17 C16 1.400 . S
H18 C24 0.930 . S
H19 C27 0.931 . S
H20 C29 0.931 . S
H21 C31 0.930 . S
H22 C33 0.930 . S
H23 C35 0.931 . S
C24 H18 0.930 . S
C24 C25 1.380 . S
C24 C26 1.394 . S
C25 C24 1.380 . S
C25 C29 1.382 . S
C26 C24 1.394 . S
C26 C27 1.400 . S
C27 H19 0.931 . S
C27 C26 1.400 . S
C27 C28 1.375 . S
C28 C27 1.375 . S
C28 C29 1.415 . S
C28 C30 1.501 . S
C29 H20 0.931 . S
C29 C25 1.382 . S
C29 C28 1.415 . S
C30 C28 1.501 . S
C30 C31 1.384 . S
C30 C35 1.408 . S
C31 H21 0.930 . S
C31 C30 1.384 . S
C31 C32 1.389 . S
C32 C31 1.389 . S
C32 C33 1.405 . S
C33 H22 0.930 . S
C33 C32 1.405 . S
C33 C34 1.364 . S
C34 C33 1.364 . S
C34 C35 1.400 . S
C35 H23 0.931 . S
C35 C30 1.408 . S
C35 C34 1.400 . S
H36 C42 0.930 . S
H37 C45 0.931 . S
H38 C47 0.931 . S
H39 C49 0.930 . S
H40 C51 0.930 . S
H41 C53 0.931 . S
C42 H36 0.930 . S
C42 C43 1.380 1_554 S
C42 C44 1.394 . S
C43 C42 1.380 1_556 S
C43 C47 1.382 . S
C44 C42 1.394 . S
C44 C45 1.400 . S
C45 H37 0.931 . S
C45 C44 1.400 . S
C45 C46 1.375 . S
C46 C45 1.375 . S
C46 C47 1.415 1_554 S
C46 C48 1.501 . S
C47 H38 0.931 . S
C47 C43 1.382 . S
C47 C46 1.415 1_556 S
C48 C46 1.501 . S
C48 C49 1.384 1_554 S
C48 C53 1.408 . S
C49 H39 0.930 . S
C49 C48 1.384 1_556 S
C49 C50 1.389 . S
C50 C49 1.389 . S
C50 C51 1.405 1_556 S
C51 H40 0.930 . S
C51 C50 1.405 1_554 S
C51 C52 1.364 . S
C52 C51 1.364 . S
C52 C53 1.400 . S
C53 H41 0.931 . S
C53 C48 1.408 . S
C53 C52 1.400 . S
H54 C60 0.930 . S
H55 C63 0.931 . S
H56 C65 0.931 . S
H57 C67 0.930 . S
H58 C69 0.930 . S
H59 C71 0.931 . S
C60 H54 0.930 . S
C60 C61 1.380 1_554 S
C60 C62 1.394 . S
C61 C60 1.380 1_556 S
C61 C65 1.382 . S
C62 C60 1.394 . S
C62 C63 1.400 . S
C63 H55 0.931 . S
C63 C62 1.400 . S
C63 C64 1.375 . S
C64 C63 1.375 . S
C64 C65 1.415 1_554 S
C64 C66 1.501 . S
C65 H56 0.931 . S
C65 C61 1.382 . S
C65 C64 1.415 1_556 S
C66 C64 1.501 . S
C66 C67 1.384 1_554 S
C66 C71 1.408 . S
C67 H57 0.930 . S
C67 C66 1.384 1_556 S
C67 C68 1.389 . S
C68 C67 1.389 . S
C68 C69 1.405 1_556 S
C69 H58 0.930 . S
C69 C68 1.405 1_554 S
C69 C70 1.364 . S
C70 C69 1.364 . S
C70 C71 1.400 . S
C71 H59 0.931 . S
C71 C66 1.408 . S
C71 C70 1.400 . S
H72 C78 0.930 . S
H73 C81 0.931 . S
H74 C83 0.931 1_556 S
H75 C85 0.930 1_556 S
H76 C87 0.930 . S
H77 C89 0.931 . S
C78 H72 0.930 . S
C78 C79 1.380 . S
C78 C80 1.394 . S
C79 C78 1.380 . S
C79 C83 1.382 . S
C80 C78 1.394 . S
C80 C81 1.400 . S
C81 H73 0.931 . S
C81 C80 1.400 . S
C81 C82 1.375 . S
C82 C81 1.375 . S
C82 C83 1.415 . S
C82 C84 1.501 . S
C83 H74 0.931 1_554 S
C83 C79 1.382 . S
C83 C82 1.415 . S
C84 C82 1.501 . S
C84 C85 1.384 . S
C84 C89 1.408 . S
C85 H75 0.930 1_554 S
C85 C84 1.384 . S
C85 C86 1.389 . S
C86 C85 1.389 . S
C86 C87 1.405 . S
C87 H76 0.930 . S
C87 C86 1.405 . S
C87 C88 1.364 . S
C88 C87 1.364 . S
C88 C89 1.400 . S
C89 H77 0.931 . S
C89 C84 1.408 . S
C89 C88 1.400 . S
H90 C96 0.930 . S
H91 C99 0.931 . S
H92 C101 0.931 . S
H93 C103 0.930 . S
H94 C105 0.930 . S
H95 C107 0.931 . S
C96 H90 0.930 . S
C96 C97 1.380 . S
C96 C98 1.394 . S
C97 C96 1.380 . S
C97 C101 1.382 . S
C98 C96 1.394 . S
C98 C99 1.400 . S
C99 H91 0.931 . S
C99 C98 1.400 . S
C99 C100 1.375 . S
C100 C99 1.375 . S
C100 C101 1.415 . S
C100 C102 1.501 . S
C101 H92 0.931 . S
C101 C97 1.382 . S
C101 C100 1.415 . S
C102 C100 1.501 . S
C102 C103 1.384 . S
C102 C107 1.408 . S
C103 H93 0.930 . S
C103 C102 1.384 . S
C103 C104 1.389 . S
C104 C103 1.389 . S
C104 C105 1.405 . S
C105 H94 0.930 . S
C105 C104 1.405 . S
C105 C106 1.364 . S
C106 C105 1.364 . S
C106 C107 1.400 . S
C107 H95 0.931 . S
C107 C102 1.408 . S
C107 C106 1.400 . S
C108 O120 1.241 . S
C108 O121 1.280 . S
C109 O122 1.277 . S
C109 O123 1.245 . S
C110 O134 1.247 . S
C110 O136 1.289 . S
Mg111 O112 1.926 . S
Mg111 O121 1.984 . S
Mg111 O123 1.988 1_655 S
Mg111 O124 2.061 . S
O112 Mg111 1.926 . S
O112 Mg113 1.986 1_655 S
O112 Mg114 1.917 1_655 S
Mg113 O112 1.986 1_455 S
Mg113 O120 2.042 1_455 S
Mg113 O122 2.041 . S
Mg113 O128 2.038 1_455 S
Mg113 O136 2.238 . S
Mg114 O112 1.917 1_455 S
Mg114 O115 1.917 . S
Mg114 O125 2.106 1_455 S
Mg114 O127 2.079 1_455 S
Mg114 O136 2.106 . S
Mg114 O137 2.079 . S
O115 Mg114 1.917 . S
O115 Mg116 1.926 . S
O115 Mg117 1.986 . S
Mg116 O115 1.926 . S
Mg116 O130 1.984 . S
Mg116 O133 1.988 1_455 S
Mg116 O134 2.061 . S
Mg117 O115 1.986 . S
Mg117 O125 2.238 1_455 S
Mg117 O129 2.042 . S
Mg117 O131 2.041 1_455 S
Mg117 O138 2.038 . S
C118 O124 1.247 . S
C118 O125 1.289 . S
C119 O137 1.245 . S
C119 O138 1.274 . S
O120 C108 1.241 . S
O120 Mg113 2.042 1_655 S
O121 C108 1.280 . S
O121 Mg111 1.984 . S
O122 C109 1.277 . S
O122 Mg113 2.041 . S
O123 C109 1.245 . S
O123 Mg111 1.988 1_455 S
O124 Mg111 2.061 . S
O124 C118 1.247 . S
O125 Mg114 2.106 1_655 S
O125 Mg117 2.238 1_655 S
O125 C118 1.289 . S
C126 O127 1.245 . S
C126 O128 1.274 . S
O127 Mg114 2.079 1_655 S
O127 C126 1.245 . S
O128 Mg113 2.038 1_655 S
O128 C126 1.274 . S
O129 Mg117 2.042 . S
O129 C132 1.241 . S
O130 Mg116 1.984 . S
O130 C132 1.280 . S
O131 Mg117 2.041 1_655 S
O131 C135 1.277 . S
C132 O129 1.241 . S
C132 O130 1.280 . S
O133 Mg116 1.988 1_655 S
O133 C135 1.245 . S
O134 C110 1.247 . S
O134 Mg116 2.061 . S
C135 O131 1.277 . S
C135 O133 1.245 . S
O136 C110 1.289 . S
O136 Mg113 2.238 . S
O136 Mg114 2.106 . S
O137 Mg114 2.079 . S
O137 C119 1.245 . S
O138 Mg117 2.038 . S
O138 C119 1.274 . S
C139 O151 1.241 . S
C139 O152 1.280 . S
C140 O153 1.277 . S
C140 O154 1.245 . S
C141 O165 1.247 . S
C141 O167 1.289 . S
Mg142 O143 1.926 . S
Mg142 O152 1.984 . S
Mg142 O154 1.988 1_545 S
Mg142 O155 2.061 . S
O143 Mg142 1.926 . S
O143 Mg144 1.986 . S
O143 Mg145 1.917 . S
Mg144 O143 1.986 . S
Mg144 O151 2.042 . S
Mg144 O153 2.041 1_545 S
Mg144 O159 2.038 . S
Mg144 O167 2.238 1_545 S
Mg145 O143 1.917 . S
Mg145 O146 1.917 1_545 S
Mg145 O156 2.106 . S
Mg145 O158 2.079 . S
Mg145 O167 2.106 1_545 S
Mg145 O168 2.079 1_545 S
O146 Mg145 1.917 1_565 S
O146 Mg147 1.926 . S
O146 Mg148 1.986 1_565 S
Mg147 O146 1.926 . S
Mg147 O161 1.984 . S
Mg147 O164 1.988 1_565 S
Mg147 O165 2.061 . S
Mg148 O146 1.986 1_545 S
Mg148 O156 2.238 . S
Mg148 O160 2.042 1_545 S
Mg148 O162 2.041 . S
Mg148 O169 2.038 1_545 S
C149 O155 1.247 . S
C149 O156 1.289 . S
C150 O168 1.245 . S
C150 O169 1.274 . S
O151 C139 1.241 . S
O151 Mg144 2.042 . S
O152 C139 1.280 . S
O152 Mg142 1.984 . S
O153 C140 1.277 . S
O153 Mg144 2.041 1_565 S
O154 C140 1.245 . S
O154 Mg142 1.988 1_565 S
O155 Mg142 2.061 . S
O155 C149 1.247 . S
O156 Mg145 2.106 . S
O156 Mg148 2.238 . S
O156 C149 1.289 . S
C157 O158 1.245 . S
C157 O159 1.274 . S
O158 Mg145 2.079 . S
O158 C157 1.245 . S
O159 Mg144 2.038 . S
O159 C157 1.274 . S
O160 Mg148 2.042 1_565 S
O160 C163 1.241 . S
O161 Mg147 1.984 . S
O161 C163 1.280 . S
O162 Mg148 2.041 . S
O162 C166 1.277 . S
C163 O160 1.241 . S
C163 O161 1.280 . S
O164 Mg147 1.988 1_545 S
O164 C166 1.245 . S
O165 C141 1.247 . S
O165 Mg147 2.061 . S
C166 O162 1.277 . S
C166 O164 1.245 . S
O167 C141 1.289 . S
O167 Mg144 2.238 1_565 S
O167 Mg145 2.106 1_565 S
O168 Mg145 2.079 1_565 S
O168 C150 1.245 . S
O169 Mg148 2.038 1_565 S
O169 C150 1.274 . S
C170 O182 1.241 . S
C170 O183 1.280 . S
C171 O184 1.277 . S
C171 O185 1.245 . S
C172 O196 1.247 . S
C172 O198 1.289 . S
Mg173 O174 1.926 . S
Mg173 O183 1.984 . S
Mg173 O185 1.988 . S
Mg173 O186 2.061 . S
O174 Mg173 1.926 . S
O174 Mg175 1.986 . S
O174 Mg176 1.917 . S
Mg175 O174 1.986 . S
Mg175 O182 2.042 . S
Mg175 O184 2.041 . S
Mg175 O190 2.038 . S
Mg175 O198 2.238 . S
Mg176 O174 1.917 . S
Mg176 O177 1.917 . S
Mg176 O187 2.106 . S
Mg176 O189 2.079 . S
Mg176 O198 2.106 . S
Mg176 O199 2.079 . S
O177 Mg176 1.917 . S
O177 Mg178 1.926 . S
O177 Mg179 1.986 . S
Mg178 O177 1.926 . S
Mg178 O192 1.984 . S
Mg178 O195 1.988 . S
Mg178 O196 2.061 . S
Mg179 O177 1.986 . S
Mg179 O187 2.238 . S
Mg179 O191 2.042 . S
Mg179 O193 2.041 . S
Mg179 O200 2.038 . S
C180 O186 1.247 . S
C180 O187 1.289 . S
C181 O199 1.245 . S
C181 O200 1.274 . S
O182 C170 1.241 . S
O182 Mg175 2.042 . S
O183 C170 1.280 . S
O183 Mg173 1.984 . S
O184 C171 1.277 . S
O184 Mg175 2.041 . S
O185 C171 1.245 . S
O185 Mg173 1.988 . S
O186 Mg173 2.061 . S
O186 C180 1.247 . S
O187 Mg176 2.106 . S
O187 Mg179 2.238 . S
O187 C180 1.289 . S
C188 O189 1.245 . S
C188 O190 1.274 . S
O189 Mg176 2.079 . S
O189 C188 1.245 . S
O190 Mg175 2.038 . S
O190 C188 1.274 . S
O191 Mg179 2.042 . S
O191 C194 1.241 . S
O192 Mg178 1.984 . S
O192 C194 1.280 . S
O193 Mg179 2.041 . S
O193 C197 1.277 . S
C194 O191 1.241 . S
C194 O192 1.280 . S
O195 Mg178 1.988 . S
O195 C197 1.245 . S
O196 C172 1.247 . S
O196 Mg178 2.061 . S
C197 O193 1.277 . S
C197 O195 1.245 . S
O198 C172 1.289 . S
O198 Mg175 2.238 . S
O198 Mg176 2.106 . S
O199 Mg176 2.079 . S
O199 C181 1.245 . S
O200 Mg179 2.038 . S
O200 C181 1.274 . S
C201 C202 1.387 . S
C201 H205 0.950 . S
C201 C210 1.390 . S
C202 C201 1.387 . S
C202 C204 1.387 . S
H203 C210 0.950 . S
C204 C202 1.387 . S
C204 C206 1.390 . S
C204 H208 0.950 . S
H205 C201 0.950 . S
C206 C204 1.390 . S
C206 C207 1.387 . S
C206 H209 0.950 . S
C207 C206 1.387 . S
C207 C210 1.387 . S
H208 C204 0.950 . S
H209 C206 0.950 . S
C210 C201 1.390 . S
C210 H203 0.950 . S
C210 C207 1.387 . S
C211 C212 1.387 . S
C211 H215 0.950 . S
C211 C220 1.390 . S
C212 C211 1.387 . S
C212 C214 1.387 . S
H213 C220 0.950 . S
C214 C212 1.387 . S
C214 C216 1.390 . S
C214 H218 0.950 . S
H215 C211 0.950 . S
C216 C214 1.390 . S
C216 C217 1.387 . S
C216 H219 0.950 . S
C217 C216 1.387 . S
C217 C220 1.387 . S
H218 C214 0.950 . S
H219 C216 0.950 . S
C220 C211 1.390 . S
C220 H213 0.950 . S
C220 C217 1.387 . S
C221 C222 1.387 . S
C221 H225 0.950 . S
C221 C230 1.390 . S
C222 C221 1.387 . S
C222 C224 1.387 . S
H223 C230 0.950 . S
C224 C222 1.387 . S
C224 C226 1.390 . S
C224 H228 0.950 . S
H225 C221 0.950 . S
C226 C224 1.390 . S
C226 C227 1.387 . S
C226 H229 0.950 . S
C227 C226 1.387 . S
C227 C230 1.387 . S
H228 C224 0.950 . S
H229 C226 0.950 . S
C230 C221 1.390 . S
C230 H223 0.950 . S
C230 C227 1.387 . S
C231 C232 1.387 . S
C231 H235 0.950 . S
C231 C240 1.390 . S
C232 C231 1.387 . S
C232 C234 1.387 . S
H233 C240 0.950 . S
C234 C232 1.387 . S
C234 C236 1.390 . S
C234 H238 0.950 . S
H235 C231 0.950 . S
C236 C234 1.390 . S
C236 C237 1.387 . S
C236 H239 0.950 . S
C237 C236 1.387 . S
C237 C240 1.387 . S
H238 C234 0.950 . S
H239 C236 0.950 . S
C240 C231 1.390 . S
C240 H233 0.950 . S
C240 C237 1.387 . S
C241 C242 1.387 . S
C241 H245 0.950 . S
C241 C250 1.390 . S
C242 C241 1.387 . S
C242 C244 1.387 . S
H243 C250 0.950 . S
C244 C242 1.387 . S
C244 C246 1.390 . S
C244 H248 0.950 . S
H245 C241 0.950 . S
C246 C244 1.390 . S
C246 C247 1.387 . S
C246 H249 0.950 . S
C247 C246 1.387 . S
C247 C250 1.387 . S
H248 C244 0.950 . S
H249 C246 0.950 . S
C250 C241 1.390 . S
C250 H243 0.950 . S
C250 C247 1.387 . S
C251 C252 1.387 . S
C251 H255 0.950 . S
C251 C260 1.390 . S
C252 C251 1.387 . S
C252 C254 1.387 . S
H253 C260 0.950 . S
C254 C252 1.387 . S
C254 C256 1.390 . S
C254 H258 0.950 . S
H255 C251 0.950 . S
C256 C254 1.390 . S
C256 C257 1.387 . S
C256 H259 0.950 . S
C257 C256 1.387 . S
C257 C260 1.387 . S
H258 C254 0.950 . S
H259 C256 0.950 . S
C260 C251 1.390 . S
C260 H253 0.950 . S
C260 C257 1.387 . S
C261 C262 1.387 . S
C261 H265 0.950 . S
C261 C270 1.390 . S
C262 C261 1.387 . S
C262 C264 1.387 . S
H263 C270 0.950 . S
C264 C262 1.387 . S
C264 C266 1.390 . S
C264 H268 0.950 . S
H265 C261 0.950 . S
C266 C264 1.390 . S
C266 C267 1.387 . S
C266 H269 0.950 . S
C267 C266 1.387 . S
C267 C270 1.387 . S
H268 C264 0.950 . S
H269 C266 0.950 . S
C270 C261 1.390 . S
C270 H263 0.950 . S
C270 C267 1.387 . S
C271 C272 1.387 . S
C271 H275 0.950 . S
C271 C280 1.390 . S
C272 C271 1.387 . S
C272 C274 1.387 . S
H273 C280 0.950 . S
C274 C272 1.387 . S
C274 C276 1.390 . S
C274 H278 0.950 1_556 S
H275 C271 0.950 . S
C276 C274 1.390 . S
C276 C277 1.387 . S
C276 H279 0.950 . S
C277 C276 1.387 . S
C277 C280 1.387 . S
H278 C274 0.950 1_554 S
H279 C276 0.950 . S
C280 C271 1.390 . S
C280 H273 0.950 . S
C280 C277 1.387 . S
C281 C282 1.387 . S
C281 H285 0.950 . S
C281 C290 1.390 . S
C282 C281 1.387 . S
C282 C284 1.387 . S
H283 C290 0.950 . S
C284 C282 1.387 . S
C284 C286 1.390 . S
C284 H288 0.950 . S
H285 C281 0.950 . S
C286 C284 1.390 . S
C286 C287 1.387 . S
C286 H289 0.950 . S
C287 C286 1.387 . S
C287 C290 1.387 . S
H288 C284 0.950 . S
H289 C286 0.950 . S
C290 C281 1.390 . S
C290 H283 0.950 . S
C290 C287 1.387 . S
C291 C292 1.387 . S
C291 H295 0.950 . S
C291 C300 1.390 . S
C292 C291 1.387 . S
C292 C294 1.387 1_554 S
H293 C300 0.950 . S
C294 C292 1.387 1_556 S
C294 C296 1.390 . S
C294 H298 0.950 . S
H295 C291 0.950 . S
C296 C294 1.390 . S
C296 C297 1.387 . S
C296 H299 0.950 . S
C297 C296 1.387 . S
C297 C300 1.387 1_556 S
H298 C294 0.950 . S
H299 C296 0.950 . S
C300 C291 1.390 . S
C300 H293 0.950 . S
C300 C297 1.387 1_554 S
C301 C302 1.387 . S
C301 H305 0.950 . S
C301 C310 1.390 1_554 S
C302 C301 1.387 . S
C302 C304 1.387 1_554 S
H303 C310 0.950 . S
C304 C302 1.387 1_556 S
C304 C306 1.390 . S
C304 H308 0.950 . S
H305 C301 0.950 . S
C306 C304 1.390 . S
C306 C307 1.387 . S
C306 H309 0.950 . S
C307 C306 1.387 . S
C307 C310 1.387 . S
H308 C304 0.950 . S
H309 C306 0.950 . S
C310 C301 1.390 1_556 S
C310 H303 0.950 . S
C310 C307 1.387 . S
C311 C312 1.387 1_556 S
C311 H315 0.950 . S
C311 C320 1.390 . S
C312 C311 1.387 1_554 S
C312 C314 1.387 . S
H313 C320 0.950 . S
C314 C312 1.387 . S
C314 C316 1.390 . S
C314 H318 0.950 . S
H315 C311 0.950 . S
C316 C314 1.390 . S
C316 C317 1.387 1_554 S
C316 H319 0.950 . S
C317 C316 1.387 1_556 S
C317 C320 1.387 . S
H318 C314 0.950 . S
H319 C316 0.950 . S
C320 C311 1.390 . S
C320 H313 0.950 . S
C320 C317 1.387 . S
C321 C322 1.387 . S
C321 H325 0.950 . S
C321 C330 1.390 . S
C322 C321 1.387 . S
C322 C324 1.387 . S
H323 C330 0.950 . S
C324 C322 1.387 . S
C324 C326 1.390 . S
C324 H328 0.950 . S
H325 C321 0.950 . S
C326 C324 1.390 . S
C326 C327 1.387 . S
C326 H329 0.950 . S
C327 C326 1.387 . S
C327 C330 1.387 . S
H328 C324 0.950 . S
H329 C326 0.950 . S
C330 C321 1.390 . S
C330 H323 0.950 . S
C330 C327 1.387 . S
C331 C332 1.387 . S
C331 H335 0.950 . S
C331 C340 1.390 . S
C332 C331 1.387 . S
C332 C334 1.387 . S
H333 C340 0.950 . S
C334 C332 1.387 . S
C334 C336 1.390 . S
C334 H338 0.950 1_556 S
H335 C331 0.950 . S
C336 C334 1.390 . S
C336 C337 1.387 . S
C336 H339 0.950 . S
C337 C336 1.387 . S
C337 C340 1.387 . S
H338 C334 0.950 1_554 S
H339 C336 0.950 . S
C340 C331 1.390 . S
C340 H333 0.950 . S
C340 C337 1.387 . S
C341 C342 1.387 . S
C341 H345 0.950 . S
C341 C350 1.390 1_554 S
C342 C341 1.387 . S
C342 C344 1.387 . S
H343 C350 0.950 . S
C344 C342 1.387 . S
C344 C346 1.390 . S
C344 H348 0.950 . S
H345 C341 0.950 . S
C346 C344 1.390 . S
C346 C347 1.387 1_554 S
C346 H349 0.950 1_554 S
C347 C346 1.387 1_556 S
C347 C350 1.387 . S
H348 C344 0.950 . S
H349 C346 0.950 1_556 S
C350 C341 1.390 1_556 S
C350 H343 0.950 . S
C350 C347 1.387 . S
C351 C352 1.387 1_556 S
C351 H355 0.950 . S
C351 C360 1.390 . S
C352 C351 1.387 1_554 S
C352 C354 1.387 . S
H353 C360 0.950 . S
C354 C352 1.387 . S
C354 C356 1.390 1_554 S
C354 H358 0.950 . S
H355 C351 0.950 . S
C356 C354 1.390 1_556 S
C356 C357 1.387 . S
C356 H359 0.950 . S
C357 C356 1.387 . S
C357 C360 1.387 . S
H358 C354 0.950 . S
H359 C356 0.950 . S
C360 C351 1.390 . S
C360 H353 0.950 . S
C360 C357 1.387 . S
C361 C362 1.387 . S
C361 H365 0.950 . S
C361 C370 1.390 . S
C362 C361 1.387 . S
C362 C364 1.387 . S
H363 C370 0.950 . S
C364 C362 1.387 . S
C364 C366 1.390 . S
C364 H368 0.947 1_556 S
H365 C361 0.950 . S
C366 C364 1.390 . S
C366 C367 1.387 . S
C366 H369 0.950 . S
C367 C366 1.387 . S
C367 C370 1.387 . S
H368 C364 0.947 1_554 S
H369 C366 0.950 . S
C370 C361 1.390 . S
C370 H363 0.950 . S
C370 C367 1.387 . S
C371 C372 1.387 . S
C371 H375 0.950 . S
C371 C380 1.390 . S
C372 C371 1.387 . S
C372 C374 1.387 . S
H373 C380 0.950 . S
C374 C372 1.387 . S
C374 C376 1.390 . S
C374 H378 0.950 . S
H375 C371 0.950 . S
C376 C374 1.390 . S
C376 C377 1.387 . S
C376 H379 0.950 . S
C377 C376 1.387 . S
C377 C380 1.387 . S
H378 C374 0.950 . S
H379 C376 0.950 . S
C380 C371 1.390 . S
C380 H373 0.950 . S
C380 C377 1.387 . S
C381 C382 1.387 . S
C381 H385 0.950 . S
C381 C390 1.390 . S
C382 C381 1.387 . S
C382 C384 1.387 . S
H383 C390 0.950 . S
C384 C382 1.387 . S
C384 C386 1.390 . S
C384 H388 0.950 . S
H385 C381 0.950 . S
C386 C384 1.390 . S
C386 C387 1.387 . S
C386 H389 0.950 . S
C387 C386 1.387 . S
C387 C390 1.387 . S
H388 C384 0.950 . S
H389 C386 0.950 . S
C390 C381 1.390 . S
C390 H383 0.950 . S
C390 C387 1.387 . S
C391 C392 1.387 . S
C391 H395 0.950 . S
C391 C400 1.390 . S
C392 C391 1.387 . S
C392 C394 1.387 . S
H393 C400 0.950 . S
C394 C392 1.387 . S
C394 C396 1.390 . S
C394 H398 0.950 . S
H395 C391 0.950 . S
C396 C394 1.390 . S
C396 C397 1.387 . S
C396 H399 0.950 . S
C397 C396 1.387 . S
C397 C400 1.387 . S
H398 C394 0.950 . S
H399 C396 0.950 . S
C400 C391 1.390 . S
C400 H393 0.950 . S
C400 C397 1.387 . S
C401 C402 1.387 . S
C401 H405 0.950 . S
C401 C410 1.390 . S
C402 C401 1.387 . S
C402 C404 1.387 . S
H403 C410 0.950 . S
C404 C402 1.387 . S
C404 C406 1.390 . S
C404 H408 0.950 . S
H405 C401 0.950 . S
C406 C404 1.390 . S
C406 C407 1.387 . S
C406 H409 0.950 . S
C407 C406 1.387 . S
C407 C410 1.387 . S
H408 C404 0.950 . S
H409 C406 0.950 . S
C410 C401 1.390 . S
C410 H403 0.950 . S
C410 C407 1.387 . S
C411 C412 1.387 . S
C411 H415 0.950 . S
C411 C420 1.390 . S
C412 C411 1.387 . S
C412 C414 1.387 . S
H413 C420 0.950 . S
C414 C412 1.387 . S
C414 C416 1.390 . S
C414 H418 0.950 . S
H415 C411 0.950 . S
C416 C414 1.390 . S
C416 C417 1.387 . S
C416 H419 0.950 . S
C417 C416 1.387 . S
C417 C420 1.387 . S
H418 C414 0.950 . S
H419 C416 0.950 . S
C420 C411 1.390 . S
C420 H413 0.950 . S
C420 C417 1.387 . S
C421 C422 1.387 . S
C421 H425 0.950 . S
C421 C430 1.390 . S
C422 C421 1.387 . S
C422 C424 1.387 . S
H423 C430 0.950 . S
C424 C422 1.387 . S
C424 C426 1.390 . S
C424 H428 0.950 . S
H425 C421 0.950 . S
C426 C424 1.390 . S
C426 C427 1.387 . S
C426 H429 0.950 . S
C427 C426 1.387 . S
C427 C430 1.387 . S
H428 C424 0.950 . S
H429 C426 0.950 . S
C430 C421 1.390 . S
C430 H423 0.950 . S
C430 C427 1.387 . S
C431 C432 1.387 . S
C431 H435 0.950 . S
C431 C440 1.390 . S
C432 C431 1.387 . S
C432 C434 1.387 . S
H433 C440 0.950 . S
C434 C432 1.387 . S
C434 C436 1.390 . S
C434 H438 0.950 . S
H435 C431 0.950 . S
C436 C434 1.390 . S
C436 C437 1.387 . S
C436 H439 0.950 . S
C437 C436 1.387 . S
C437 C440 1.387 . S
H438 C434 0.950 . S
H439 C436 0.950 . S
C440 C431 1.390 . S
C440 H433 0.950 . S
C440 C437 1.387 . S
C202 C16 1.829 . S
C207 C119 1.850 . S
C212 C26 1.552 . S
C217 C166 1.569 . S
C227 C170 1.706 . S
C222 C52 1.728 . S
C237 C135 1.471 . S
C232 C62 1.500 . S
C242 C80 1.809 . S
C247 C150 1.756 . S
C257 C172 1.251 . S
C252 C98 1.236 . S
C267 C141 1.605 . S
C262 C43 1.585 . S
C272 C68 1.493 . S
C277 C181 1.507 . S
C287 C110 1.486 . S
C282 C86 1.527 1_556 S
C292 C104 1.434 . S
C297 C139 1.408 . S
C302 C7 1.821 . S
C307 C197 1.791 . S
C317 C108 1.505 . S
C312 C32 1.496 . S
C327 C126 1.804 . S
C322 C61 1.821 . S
C337 C140 1.560 . S
C332 C79 1.539 1_556 S
C347 C194 1.689 . S
C342 C97 1.725 . S
C357 C109 1.462 . S
C352 C14 1.486 . S
C367 C157 1.709 . S
C362 C25 1.776 1_556 S
C372 C50 1.208 . S
C377 C180 1.228 . S
C387 C149 1.568 . S
C382 C106 1.569 . S
C397 C188 1.441 . S
C392 C8 1.439 . S
C407 C118 1.444 . S
C402 C34 1.491 . S
C417 C163 1.381 . S
C412 C44 1.401 . S
C422 C70 1.812 . S
C427 C171 1.770 . S
C432 C88 1.466 . S
C437 C132 1.470 . S
