# Generated by pormake.
# Topology the, (3,8)-cn, num edge types: 1
# Building blocks:
#     Node 0, Type 0, BuildingBlock: BETDIP_clean_linker_0, # of connection points: 3
#     Node 1, Type 0, BuildingBlock: BETDIP_clean_linker_0, # of connection points: 3
#     Node 2, Type 0, BuildingBlock: BETDIP_clean_linker_0, # of connection points: 3
#     Node 3, Type 0, BuildingBlock: BETDIP_clean_linker_0, # of connection points: 3
#     Node 4, Type 0, BuildingBlock: BETDIP_clean_linker_0, # of connection points: 3
#     Node 5, Type 0, BuildingBlock: BETDIP_clean_linker_0, # of connection points: 3
#     Node 6, Type 0, BuildingBlock: BETDIP_clean_linker_0, # of connection points: 3
#     Node 7, Type 0, BuildingBlock: BETDIP_clean_linker_0, # of connection points: 3
#     Node 8, Type 1, BuildingBlock: GIZVER_clean_sbu_0, # of connection points: 8
#     Node 9, Type 1, BuildingBlock: GIZVER_clean_sbu_0, # of connection points: 8
#     Node 10, Type 1, BuildingBlock: GIZVER_clean_sbu_0, # of connection points: 8
#     Edge 11, Type (0, 1), BuildingBlock: OJICUG_clean_linker_0, # of connection points: 2
#     Edge 12, Type (0, 1), BuildingBlock: OJICUG_clean_linker_0, # of connection points: 2
#     Edge 13, Type (0, 1), BuildingBlock: OJICUG_clean_linker_0, # of connection points: 2
#     Edge 14, Type (0, 1), BuildingBlock: OJICUG_clean_linker_0, # of connection points: 2
#     Edge 15, Type (0, 1), BuildingBlock: OJICUG_clean_linker_0, # of connection points: 2
#     Edge 16, Type (0, 1), BuildingBlock: OJICUG_clean_linker_0, # of connection points: 2
#     Edge 17, Type (0, 1), BuildingBlock: OJICUG_clean_linker_0, # of connection points: 2
#     Edge 18, Type (0, 1), BuildingBlock: OJICUG_clean_linker_0, # of connection points: 2
#     Edge 19, Type (0, 1), BuildingBlock: OJICUG_clean_linker_0, # of connection points: 2
#     Edge 20, Type (0, 1), BuildingBlock: OJICUG_clean_linker_0, # of connection points: 2
#     Edge 21, Type (0, 1), BuildingBlock: OJICUG_clean_linker_0, # of connection points: 2
#     Edge 22, Type (0, 1), BuildingBlock: OJICUG_clean_linker_0, # of connection points: 2
#     Edge 23, Type (0, 1), BuildingBlock: OJICUG_clean_linker_0, # of connection points: 2
#     Edge 24, Type (0, 1), BuildingBlock: OJICUG_clean_linker_0, # of connection points: 2
#     Edge 25, Type (0, 1), BuildingBlock: OJICUG_clean_linker_0, # of connection points: 2
#     Edge 26, Type (0, 1), BuildingBlock: OJICUG_clean_linker_0, # of connection points: 2
#     Edge 27, Type (0, 1), BuildingBlock: OJICUG_clean_linker_0, # of connection points: 2
#     Edge 28, Type (0, 1), BuildingBlock: OJICUG_clean_linker_0, # of connection points: 2
#     Edge 29, Type (0, 1), BuildingBlock: OJICUG_clean_linker_0, # of connection points: 2
#     Edge 30, Type (0, 1), BuildingBlock: OJICUG_clean_linker_0, # of connection points: 2
#     Edge 31, Type (0, 1), BuildingBlock: OJICUG_clean_linker_0, # of connection points: 2
#     Edge 32, Type (0, 1), BuildingBlock: OJICUG_clean_linker_0, # of connection points: 2
#     Edge 33, Type (0, 1), BuildingBlock: OJICUG_clean_linker_0, # of connection points: 2
#     Edge 34, Type (0, 1), BuildingBlock: OJICUG_clean_linker_0, # of connection points: 2
# Relax obj value: 0.091
# Max RMSD: 0.196
# Mean RMSD: 0.132
data_MOF--net-the--node1-GIZVER_clean_sbu_0--node2-BETDIP_clean_linker_0--edge1-OJICUG_clean_linker_0
_symmetry_space_group_name_H-M    P1
_symmetry_Int_Tables_number       1
_symmetry_cell_setting            triclinic
loop_
_symmetry_equiv_pos_as_xyz
'x, y, z'
_cell_length_a     30.899746
_cell_length_b     28.316465
_cell_length_c     26.407198
_cell_angle_alpha  88.337192
_cell_angle_beta   94.48253
_cell_angle_gamma 113.62227
loop_
_atom_site_label
_atom_site_type_symbol
_atom_site_fract_x
_atom_site_fract_y
_atom_site_fract_z
_atom_type_partial_charge
H0 H 0.25115 0.31359 0.50058 0.0
H1 H 0.33453 0.31005 0.37888 0.0
H2 H 0.25292 0.40268 0.36518 0.0
H3 H 0.27959 0.21252 0.41524 0.0
C4 C 0.30436 0.22669 0.44842 0.0
C5 C 0.26403 0.32662 0.4635 0.0
C6 C 0.24832 0.35992 0.43496 0.0
C7 C 0.29506 0.30858 0.44325 0.0
C8 C 0.31042 0.32403 0.39448 0.0
C9 C 0.29581 0.35851 0.36648 0.0
C10 C 0.26504 0.37671 0.38708 0.0
N11 N 0.30957 0.27345 0.47121 0.0
H12 H 0.75978 0.41305 0.32672 0.0
H13 H 0.62966 0.27925 0.32375 0.0
H14 H 0.74515 0.28879 0.43109 0.0
H15 H 0.62416 0.30018 0.24135 0.0
C16 C 0.63633 0.34183 0.24336 0.0
C17 C 0.73922 0.375 0.3411 0.0
C18 C 0.75799 0.35466 0.38245 0.0
C19 C 0.69376 0.34714 0.31834 0.0
C20 C 0.66616 0.29858 0.33814 0.0
C21 C 0.68414 0.2763 0.37846 0.0
C22 C 0.73067 0.30464 0.39971 0.0
N23 N 0.67536 0.37024 0.27805 0.0
H24 H 0.72102 0.68941 0.30616 0.0
H25 H 0.73757 0.78973 0.43235 0.0
H26 H 0.61882 0.75421 0.32172 0.0
H27 H 0.80881 0.78258 0.45071 0.0
C28 C 0.80447 0.74646 0.4335 0.0
C29 C 0.70953 0.71515 0.32553 0.0
C30 C 0.66725 0.71947 0.30813 0.0
C31 C 0.73523 0.74011 0.37015 0.0
C32 C 0.71909 0.77163 0.39701 0.0
C33 C 0.67695 0.7771 0.37969 0.0
C34 C 0.65162 0.751 0.33507 0.0
N35 N 0.77373 0.72745 0.38895 0.0
H36 H 0.22639 0.65815 0.31154 0.0
H37 H 0.35885 0.78925 0.32605 0.0
H38 H 0.25308 0.77094 0.42925 0.0
H39 H 0.25084 0.644 0.23617 0.0
C40 C 0.28885 0.65904 0.24522 0.0
C41 C 0.24809 0.69491 0.32902 0.0
C42 C 0.23265 0.71134 0.37146 0.0
C43 C 0.29312 0.72381 0.31175 0.0
C44 C 0.32306 0.76894 0.33742 0.0
C45 C 0.30912 0.78501 0.38061 0.0
C46 C 0.26345 0.75734 0.39626 0.0
N47 N 0.31242 0.70533 0.27365 0.0
H48 H 0.26992 0.63354 0.79147 0.0
H49 H 0.40097 0.76681 0.81082 0.0
H50 H 0.30392 0.75599 0.68157 0.0
H51 H 0.39795 0.74127 0.89209 0.0
C52 C 0.3874 0.70011 0.88711 0.0
C53 C 0.29322 0.67143 0.77905 0.0
C54 C 0.28077 0.69254 0.73405 0.0
C55 C 0.3366 0.6979 0.80703 0.0
C56 C 0.36746 0.74638 0.78974 0.0
C57 C 0.35648 0.76792 0.7443 0.0
C58 C 0.31271 0.74068 0.71709 0.0
N59 N 0.35043 0.67326 0.84956 0.0
H60 H 0.31347 0.34903 0.80923 0.0
H61 H 0.29713 0.24877 0.68316 0.0
H62 H 0.41227 0.27898 0.79778 0.0
H63 H 0.22808 0.26098 0.6617 0.0
C64 C 0.23368 0.29736 0.67926 0.0
C65 C 0.32432 0.32236 0.79055 0.0
C66 C 0.36521 0.31599 0.80951 0.0
C67 C 0.29957 0.29868 0.74514 0.0
C68 C 0.31492 0.26593 0.7191 0.0
C69 C 0.35563 0.25821 0.73803 0.0
C70 C 0.3803 0.28345 0.78337 0.0
N71 N 0.26322 0.31416 0.72487 0.0
H72 H 0.67325 0.26356 0.78478 0.0
H73 H 0.80754 0.39205 0.80005 0.0
H74 H 0.78182 0.27393 0.6883 0.0
H75 H 0.78145 0.40949 0.87303 0.0
C76 C 0.74385 0.39614 0.862 0.0
C77 C 0.70964 0.28238 0.77475 0.0
C78 C 0.72458 0.26351 0.73417 0.0
C79 C 0.73961 0.32816 0.79928 0.0
C80 C 0.78563 0.35483 0.78361 0.0
C81 C 0.80188 0.33572 0.74368 0.0
C82 C 0.77094 0.28927 0.71973 0.0
N83 N 0.71972 0.34956 0.83419 0.0
H84 H 0.68581 0.7145 0.72372 0.0
H85 H 0.79092 0.72545 0.62139 0.0
H86 H 0.79258 0.65726 0.769 0.0
H87 H 0.64245 0.70219 0.63509 0.0
C88 C 0.669 0.74007 0.62669 0.0
C89 C 0.71661 0.70771 0.71531 0.0
C90 C 0.73718 0.68467 0.75212 0.0
C91 C 0.73633 0.723 0.66833 0.0
C92 C 0.77627 0.71458 0.65805 0.0
C93 C 0.79639 0.69063 0.69411 0.0
C94 C 0.77751 0.67672 0.74154 0.0
N95 N 0.71758 0.74866 0.63176 0.0
Co96 Co 0.10138 0.47074 0.57674 0.0
Co97 Co 0.05205 0.45836 0.48757 0.0
Co98 Co 0.01921 0.52238 0.55961 0.0
O99 O 0.03798 0.46301 0.55476 0.0
H100 H 0.01404 0.43085 0.56543 0.0
O101 O 1.00077 0.5822 0.56451 0.0
Co102 Co 0.93809 0.5769 0.54227 0.0
Co103 Co 0.98609 0.58561 0.63152 0.0
H104 H 0.02531 0.61438 0.55485 0.0
O105 O 0.05999 0.40062 0.46309 0.0
O106 O 0.11438 0.46839 0.50565 0.0
O107 O 0.05649 0.51545 0.44265 0.0
O108 O 0.06421 0.56553 0.50888 0.0
O109 O 0.96782 0.48958 0.50393 0.0
O110 O 0.88296 0.5777 0.52095 0.0
O111 O 0.95222 0.64605 0.53479 0.0
O112 O 0.9145 0.50434 0.54395 0.0
O113 O 0.9738 0.47891 0.60972 0.0
O114 O 0.98099 0.52827 0.67614 0.0
O115 O 0.92447 0.57891 0.61388 0.0
O116 O 0.98158 0.64351 0.65838 0.0
C117 C 0.13366 0.42197 0.60024 0.0
C118 C 0.11408 0.56566 0.60791 0.0
C119 C 0.07122 0.55978 0.46286 0.0
C120 C 0.10339 0.426 0.48077 0.0
C121 C 0.90741 0.62703 0.51857 0.0
C122 C 0.92463 0.48145 0.50896 0.0
C123 C 0.96639 0.48416 0.65564 0.0
C124 C 0.9377 0.62053 0.64108 0.0
O125 O 0.15758 0.47156 0.59811 0.0
O126 O 0.0886 0.40243 0.58525 0.0
O127 O 0.07083 0.55514 0.61548 0.0
O128 O 0.1235 0.54278 0.57256 0.0
Co129 Co 0.5547 0.92705 0.52126 0.0
Co130 Co 0.58288 0.96651 0.61322 0.0
Co131 Co 0.51979 0.01977 0.55999 0.0
O132 O 0.57047 0.99406 0.55175 0.0
H133 H 0.59916 0.02032 0.54015 0.0
O134 O 0.46833 0.04394 0.56762 0.0
Co135 Co 0.47936 0.11003 0.59557 0.0
Co136 Co 0.45947 0.0707 0.50515 0.0
H137 H 0.43924 0.01677 0.57719 0.0
O138 O 0.63664 0.95242 0.62681 0.0
O139 O 0.56678 0.90053 0.58834 0.0
O140 O 0.54051 0.95843 0.66544 0.0
O141 O 0.48486 0.96318 0.60957 0.0
O142 O 0.55902 0.06652 0.61619 0.0
O143 O 0.48592 0.169 0.62268 0.0
O144 O 0.41949 0.09657 0.61478 0.0
O145 O 0.54475 0.13279 0.58379 0.0
O146 O 0.55611 0.07639 0.51167 0.0
O147 O 0.50448 0.0852 0.45367 0.0
O148 O 0.46048 0.13232 0.52699 0.0
O149 O 0.40122 0.06472 0.48601 0.0
C150 C 0.59098 0.8908 0.48645 0.0
C151 C 0.466 0.92649 0.50488 0.0
C152 C 0.49723 0.947 0.65176 0.0
C153 C 0.60886 0.90776 0.60791 0.0
C154 C 0.44145 0.1444 0.63051 0.0
C155 C 0.56984 0.11508 0.61297 0.0
C156 C 0.54678 0.09437 0.46937 0.0
C157 C 0.41799 0.11167 0.50339 0.0
O158 O 0.54585 0.86791 0.49218 0.0
O159 O 0.61421 0.93776 0.5039 0.0
O160 O 0.48002 0.97522 0.50262 0.0
O161 O 0.48962 0.90631 0.53245 0.0
Co162 Co 0.44843 0.53147 0.14805 0.0
Co163 Co 0.43077 0.43829 0.12259 0.0
Co164 Co 0.51431 0.51978 0.05817 0.0
O165 O 0.4517 0.49945 0.08743 0.0
H166 H 0.42742 0.49883 0.06174 0.0
O167 O 0.57656 0.5404 1.02843 0.0
Co168 Co 0.58048 0.51396 0.9646 0.0
Co169 Co 0.598 0.60582 0.99921 0.0
H170 H 0.60054 0.53879 0.05335 0.0
O171 O 0.36774 0.40037 0.13643 0.0
O172 O 0.42304 0.46458 0.18325 0.0
O173 O 0.47642 0.40855 0.13456 0.0
O174 O 0.53772 0.47538 0.10602 0.0
O175 O 0.48217 0.45976 1.00951 0.0
O176 O 0.58985 0.48887 0.90796 0.0
O177 O 0.6405 0.51922 0.97694 0.0
O178 O 0.51788 0.50355 0.94415 0.0
O179 O 0.49091 0.56393 1.01039 0.0
O180 O 0.55216 0.63661 0.99306 0.0
O181 O 0.60072 0.5831 0.93482 0.0
O182 O 0.66081 0.64301 0.98002 0.0
C183 C 0.4015 0.5567 0.17508 0.0
C184 C 0.5435 0.5748 0.15478 0.0
C185 C 0.52047 0.43219 0.12952 0.0
C186 C 0.38126 0.42742 0.17798 0.0
C187 C 0.63003 0.49615 0.93286 0.0
C188 C 0.48518 0.46454 0.96155 0.0
C189 C 0.50784 0.61004 0.99298 0.0
C190 C 0.64334 0.61835 0.93761 0.0
O191 O 0.44084 0.56282 0.20119 0.0
O192 O 0.39011 0.53065 0.13261 0.0
O193 O 0.5469 0.57979 0.1069 0.0
O194 O 0.50901 0.53734 0.17152 0.0
C195 C 0.16469 0.33965 0.45068 0.0
C196 C 0.21208 0.37502 0.453 0.0
H197 H 0.09248 0.32835 0.45714 0.0
C198 C 0.22385 0.42624 0.46679 0.0
H199 H 0.1552 0.3 0.43958 0.0
C200 C 0.18837 0.44232 0.47719 0.0
C201 C 0.14057 0.4076 0.47277 0.0
H202 H 0.26032 0.45398 0.46828 0.0
H203 H 0.19828 0.48238 0.48703 0.0
C204 C 0.12901 0.35594 0.46017 0.0
C205 C 0.61528 0.18868 0.37026 0.0
C206 C 0.65267 0.22555 0.40045 0.0
H207 H 0.55216 0.11885 0.36825 0.0
C208 C 0.65739 0.2148 0.45258 0.0
H209 H 0.61101 0.19401 0.32972 0.0
C210 C 0.6248 0.17012 0.47398 0.0
C211 C 0.58568 0.13569 0.44437 0.0
H212 H 0.68482 0.24188 0.47777 0.0
H213 H 0.62874 0.16419 0.51448 0.0
C214 C 0.58172 0.14496 0.39211 0.0
C215 C 0.81887 0.66562 0.44108 0.0
C216 C 0.83218 0.71721 0.45525 0.0
H217 H 0.83207 0.59737 0.45008 0.0
C218 C 0.8714 0.73988 0.49054 0.0
H219 H 0.78867 0.64666 0.4144 0.0
C220 C 0.89708 0.71144 0.51076 0.0
C221 C 0.88314 0.6596 0.49676 0.0
H222 H 0.88228 0.77957 0.50227 0.0
H223 H 0.92702 0.72953 0.53799 0.0
C224 C 0.84374 0.63719 0.4618 0.0
C225 C 0.37213 0.87388 0.39643 0.0
C226 C 0.34517 0.82437 0.41436 0.0
H227 H 0.43119 0.94594 0.41201 0.0
C228 C 0.35625 0.81012 0.46345 0.0
H229 H 0.36434 0.88542 0.35852 0.0
C230 C 0.39498 0.84388 0.4933 0.0
C231 C 0.42269 0.89297 0.47506 0.0
H232 H 0.33627 0.77187 0.4778 0.0
H233 H 0.40374 0.83128 0.53037 0.0
C234 C 0.41021 0.9083 0.42695 0.0
C235 C 0.19238 0.63833 0.72297 0.0
C236 C 0.23659 0.66256 0.70202 0.0
H237 H 0.11819 0.58972 0.7094 0.0
C238 C 0.23885 0.65727 0.64969 0.0
H239 H 0.18949 0.64193 0.76316 0.0
C240 C 0.19851 0.62744 0.61933 0.0
C241 C 0.15444 0.60245 0.64014 0.0
H242 H 0.27228 0.67492 0.63234 0.0
H243 H 0.20209 0.62313 0.57942 0.0
C244 C 0.15152 0.60895 0.69218 0.0
C245 C 0.42464 0.24915 0.70231 0.0
C246 C 0.37581 0.22844 0.70852 0.0
H247 H 0.48294 0.23937 0.6735 0.0
C248 C 0.34763 0.17959 0.68727 0.0
H249 H 0.44735 0.28702 0.71711 0.0
C250 C 0.36832 0.15163 0.66178 0.0
C251 C 0.41748 0.17232 0.65662 0.0
H252 H 0.30983 0.1626 0.69129 0.0
H253 H 0.34595 0.11397 0.6463 0.0
C254 C 0.44505 0.22168 0.67686 0.0
C255 C 0.88626 0.40232 0.75398 0.0
C256 C 0.84823 0.36783 0.72276 0.0
H257 H 0.95369 0.46675 0.75728 0.0
C258 C 0.85324 0.36797 0.67021 0.0
H259 H 0.88453 0.40255 0.79475 0.0
C260 C 0.8937 0.40317 0.64927 0.0
C261 C 0.9297 0.44031 0.67998 0.0
H262 H 0.82487 0.34317 0.64433 0.0
H263 H 0.89501 0.40358 0.60836 0.0
C264 C 0.92624 0.43876 0.73271 0.0
C265 C 0.68789 0.83454 0.62054 0.0
C266 C 0.6545 0.78329 0.61674 0.0
H267 H 0.69946 0.91426 0.62117 0.0
C268 C 0.60638 0.77333 0.60705 0.0
H269 H 0.72529 0.84337 0.62804 0.0
C270 C 0.59164 0.81396 0.60262 0.0
C271 C 0.62479 0.86516 0.60876 0.0
H272 H 0.58008 0.73407 0.6039 0.0
H273 H 0.55416 0.80517 0.59599 0.0
C274 C 0.6731 0.87513 0.61694 0.0
C275 C 0.31953 0.14788 0.44759 0.0
C276 C 0.3325 0.19748 0.46687 0.0
H277 H 0.33584 0.0821 0.44429 0.0
C278 C 0.37321 0.21889 0.5004 0.0
H279 H 0.2883 0.13065 0.42172 0.0
C280 C 0.40135 0.19119 0.51309 0.0
C281 C 0.38863 0.14165 0.49284 0.0
H282 H 0.384 0.25736 0.51562 0.0
H283 H 0.4331 0.20869 0.5381 0.0
C284 C 0.34699 0.12017 0.46062 0.0
C285 C 0.8367 0.36759 0.43068 0.0
C286 C 0.80382 0.38765 0.41067 0.0
H287 H 0.90154 0.38186 0.47684 0.0
C288 C 0.81361 0.43961 0.42038 0.0
H289 H 0.83057 0.32785 0.42367 0.0
C290 C 0.85389 0.47005 0.45044 0.0
C291 C 0.88585 0.44981 0.47183 0.0
H292 H 0.78919 0.45653 0.40631 0.0
H293 H 0.85965 0.50954 0.4573 0.0
C294 C 0.87755 0.39854 0.46072 0.0
C295 C 0.60802 0.78469 0.41732 0.0
C296 C 0.65663 0.80623 0.40976 0.0
H297 H 0.54975 0.79397 0.44703 0.0
C298 C 0.68454 0.85561 0.42987 0.0
H299 H 0.5856 0.74633 0.40347 0.0
C300 C 0.66376 0.88341 0.45527 0.0
C301 C 0.61475 0.86214 0.46133 0.0
H302 H 0.72215 0.87324 0.42481 0.0
H303 H 0.68591 0.92162 0.46962 0.0
C304 C 0.58746 0.81212 0.44264 0.0
C305 C 0.18388 0.67607 0.44652 0.0
C306 C 0.18744 0.67727 0.3936 0.0
H307 H 0.14385 0.63957 0.50922 0.0
C308 C 0.14892 0.64262 0.363 0.0
H309 H 0.21272 0.70068 0.47204 0.0
C310 C 0.10976 0.60551 0.38504 0.0
C311 C 0.10754 0.60349 0.43796 0.0
H312 H 0.14946 0.64302 0.32206 0.0
H313 H 0.08182 0.57765 0.36083 0.0
C314 C 0.14419 0.64037 0.4682 0.0
C315 C 0.44102 0.82766 0.73137 0.0
C316 C 0.39231 0.81662 0.72353 0.0
H317 H 0.51167 0.87743 0.71645 0.0
C318 C 0.37863 0.85143 0.69409 0.0
H319 H 0.45348 0.80152 0.7522 0.0
C320 C 0.41256 0.89487 0.67195 0.0
C321 C 0.46106 0.9052 0.67966 0.0
H322 H 0.34166 0.845 0.68765 0.0
H323 H 0.40081 0.91997 0.64828 0.0
C324 C 0.47476 0.87147 0.71041 0.0
C325 C 0.22378 0.3808 0.67139 0.0
C326 C 0.20775 0.3286 0.65794 0.0
H327 H 0.21322 0.45078 0.66339 0.0
C328 C 0.16707 0.30695 0.62443 0.0
H329 H 0.25529 0.39894 0.69662 0.0
C330 C 0.14223 0.33677 0.60583 0.0
C331 C 0.15844 0.38901 0.61954 0.0
H332 H 0.15413 0.26685 0.61325 0.0
H333 H 0.11082 0.31921 0.58034 0.0
C334 C 0.19971 0.41066 0.65211 0.0
C335 C 0.67343 0.2378 0.65419 0.0
C336 C 0.68895 0.22336 0.7011 0.0
H337 H 0.62299 0.21497 0.58989 0.0
C338 C 0.66682 0.17241 0.71791 0.0
H339 H 0.68976 0.27718 0.64096 0.0
C340 C 0.62918 0.13638 0.6882 0.0
C341 C 0.61234 0.15138 0.64212 0.0
H342 H 0.67807 0.16084 0.75433 0.0
H343 H 0.61206 0.09741 0.70222 0.0
C344 C 0.63514 0.20231 0.62521 0.0
C345 C 0.82189 0.63546 0.64375 0.0
C346 C 0.83344 0.67466 0.67985 0.0
H347 H 0.84533 0.58651 0.6044 0.0
C348 C 0.87953 0.6969 0.70285 0.0
H349 H 0.78624 0.61764 0.62602 0.0
C350 C 0.91396 0.68015 0.68948 0.0
C351 C 0.90228 0.64018 0.6538 0.0
H352 H 0.8888 0.72715 0.73096 0.0
H353 H 0.94938 0.69784 0.7077 0.0
C354 C 0.85581 0.61789 0.63132 0.0
C355 C 0.33929 0.429 0.30792 0.0
C356 C 0.31345 0.37635 0.31621 0.0
H357 H 0.38139 0.48638 0.25757 0.0
C358 C 0.30622 0.34094 0.27704 0.0
H359 H 0.34528 0.45687 0.33776 0.0
C360 C 0.3257 0.35794 0.23048 0.0
C361 C 0.35369 0.41042 0.22307 0.0
H362 H 0.28611 0.30012 0.28279 0.0
H363 H 0.32088 0.32976 0.20135 0.0
C364 C 0.35975 0.44582 0.26198 0.0
C365 C 0.46004 0.70717 0.94006 0.0
C366 C 0.41615 0.67551 0.91591 0.0
H367 H 0.52337 0.71151 0.98277 0.0
C368 C 0.40146 0.62172 0.91899 0.0
H369 H 0.47225 0.74875 0.93834 0.0
C370 C 0.43047 0.60021 0.94549 0.0
C371 C 0.47511 0.63212 0.96838 0.0
H372 H 0.36774 0.59633 0.9009 0.0
H373 H 0.41856 0.55866 0.94681 0.0
C374 C 0.48936 0.68583 0.96546 0.0
C375 C 0.37902 0.35339 0.89836 0.0
C376 C 0.39616 0.35 0.85127 0.0
H377 H 0.3941 0.39144 0.97118 0.0
C378 C 0.44262 0.38303 0.84196 0.0
H379 H 0.34307 0.32858 0.90627 0.0
C380 C 0.47092 0.41963 0.87799 0.0
C381 C 0.45422 0.4235 0.92515 0.0
H382 H 0.45654 0.38196 0.80579 0.0
H383 H 0.50595 0.44535 0.86835 0.0
C384 C 0.40812 0.38929 0.93539 0.0
C385 C 0.67202 0.41607 0.85412 0.0
C386 C 0.71659 0.42477 0.87845 0.0
H387 H 0.61042 0.43264 0.85153 0.0
C388 C 0.73451 0.46051 0.91849 0.0
H389 H 0.6576 0.38942 0.82252 0.0
C390 C 0.70712 0.48529 0.93557 0.0
C391 C 0.66183 0.47527 0.91212 0.0
H392 H 0.76902 0.46812 0.93747 0.0
H393 H 0.72099 0.51142 0.96762 0.0
C394 C 0.64511 0.44126 0.87054 0.0
C395 C 0.66659 0.63278 0.79868 0.0
C396 C 0.71457 0.66617 0.80016 0.0
H397 H 0.60692 0.59084 0.84086 0.0
C398 C 0.74011 0.68208 0.84737 0.0
H399 H 0.64638 0.61956 0.76268 0.0
C400 C 0.71736 0.6662 0.89251 0.0
C401 C 0.66902 0.63342 0.89091 0.0
H402 H 0.77726 0.70779 0.84924 0.0
H403 H 0.73742 0.67984 0.92848 0.0
C404 C 0.64417 0.61621 0.84353 0.0
C405 C 0.65224 0.68234 0.21895 0.0
C406 C 0.63591 0.68523 0.26667 0.0
H407 H 0.6355 0.64597 0.14517 0.0
C408 C 0.58936 0.65268 0.27627 0.0
H409 H 0.68815 0.70689 0.21069 0.0
C410 C 0.56002 0.61739 0.23976 0.0
C411 C 0.57582 0.61422 0.19186 0.0
H412 H 0.57598 0.65342 0.31284 0.0
H413 H 0.52477 0.59227 0.24946 0.0
C414 C 0.62217 0.64761 0.18152 0.0
C415 C 0.36286 0.6433 0.24885 0.0
C416 C 0.31678 0.63177 0.22731 0.0
H417 H 0.42512 0.62815 0.24975 0.0
C418 C 0.29765 0.59374 0.18937 0.0
H419 H 0.37846 0.6719 0.27867 0.0
C420 C 0.32479 0.56863 0.17229 0.0
C421 C 0.37111 0.58064 0.19368 0.0
H422 H 0.26203 0.584 0.17248 0.0
H423 H 0.30962 0.54003 0.14241 0.0
C424 C 0.38955 0.61784 0.23247 0.0
C425 C 0.56435 0.33488 0.18951 0.0
C426 C 0.60905 0.36637 0.21195 0.0
H427 H 0.50148 0.33093 0.14621 0.0
C428 C 0.62598 0.42 0.20459 0.0
H429 H 0.55046 0.29343 0.19442 0.0
C430 C 0.59818 0.44157 0.17583 0.0
C431 C 0.55263 0.40995 0.15495 0.0
H432 H 0.66044 0.44523 0.22123 0.0
H433 H 0.61158 0.48305 0.17147 0.0
C434 C 0.5363 0.35637 0.16187 0.0
loop_
_geom_bond_atom_site_label_1
_geom_bond_atom_site_label_2
_geom_bond_distance
_geom_bond_site_symmetry_2
_ccdc_geom_bond_type
H0 C5 0.930 . S
H1 C8 0.930 . S
H2 C10 0.930 . S
H3 C4 1.016 . S
C4 H3 1.016 . S
C4 N11 1.286 . S
C5 H0 0.930 . S
C5 C6 1.397 . S
C5 C7 1.361 . S
C6 C5 1.397 . S
C6 C10 1.390 . S
C7 C5 1.361 . S
C7 C8 1.393 . S
C7 N11 1.413 . S
C8 H1 0.930 . S
C8 C7 1.393 . S
C8 C9 1.399 . S
C9 C8 1.399 . S
C9 C10 1.381 . S
C10 H2 0.930 . S
C10 C6 1.390 . S
C10 C9 1.381 . S
N11 C4 1.286 . S
N11 C7 1.413 . S
H12 C17 0.930 . S
H13 C20 0.930 . S
H14 C22 0.930 . S
H15 C16 1.016 . S
C16 H15 1.016 . S
C16 N23 1.286 . S
C17 H12 0.930 . S
C17 C18 1.397 . S
C17 C19 1.361 . S
C18 C17 1.397 . S
C18 C22 1.390 . S
C19 C17 1.361 . S
C19 C20 1.393 . S
C19 N23 1.413 . S
C20 H13 0.930 . S
C20 C19 1.393 . S
C20 C21 1.399 . S
C21 C20 1.399 . S
C21 C22 1.381 . S
C22 H14 0.930 . S
C22 C18 1.390 . S
C22 C21 1.381 . S
N23 C16 1.286 . S
N23 C19 1.413 . S
H24 C29 0.930 . S
H25 C32 0.930 . S
H26 C34 0.930 . S
H27 C28 1.016 . S
C28 H27 1.016 . S
C28 N35 1.286 . S
C29 H24 0.930 . S
C29 C30 1.397 . S
C29 C31 1.361 . S
C30 C29 1.397 . S
C30 C34 1.390 . S
C31 C29 1.361 . S
C31 C32 1.393 . S
C31 N35 1.413 . S
C32 H25 0.930 . S
C32 C31 1.393 . S
C32 C33 1.399 . S
C33 C32 1.399 . S
C33 C34 1.381 . S
C34 H26 0.930 . S
C34 C30 1.390 . S
C34 C33 1.381 . S
N35 C28 1.286 . S
N35 C31 1.413 . S
H36 C41 0.930 . S
H37 C44 0.930 . S
H38 C46 0.930 . S
H39 C40 1.016 . S
C40 H39 1.016 . S
C40 N47 1.286 . S
C41 H36 0.930 . S
C41 C42 1.397 . S
C41 C43 1.361 . S
C42 C41 1.397 . S
C42 C46 1.390 . S
C43 C41 1.361 . S
C43 C44 1.393 . S
C43 N47 1.413 . S
C44 H37 0.930 . S
C44 C43 1.393 . S
C44 C45 1.399 . S
C45 C44 1.399 . S
C45 C46 1.381 . S
C46 H38 0.930 . S
C46 C42 1.390 . S
C46 C45 1.381 . S
N47 C40 1.286 . S
N47 C43 1.413 . S
H48 C53 0.930 . S
H49 C56 0.930 . S
H50 C58 0.930 . S
H51 C52 1.016 . S
C52 H51 1.016 . S
C52 N59 1.286 . S
C53 H48 0.930 . S
C53 C54 1.397 . S
C53 C55 1.361 . S
C54 C53 1.397 . S
C54 C58 1.390 . S
C55 C53 1.361 . S
C55 C56 1.393 . S
C55 N59 1.413 . S
C56 H49 0.930 . S
C56 C55 1.393 . S
C56 C57 1.399 . S
C57 C56 1.399 . S
C57 C58 1.381 . S
C58 H50 0.930 . S
C58 C54 1.390 . S
C58 C57 1.381 . S
N59 C52 1.286 . S
N59 C55 1.413 . S
H60 C65 0.930 . S
H61 C68 0.930 . S
H62 C70 0.930 . S
H63 C64 1.016 . S
C64 H63 1.016 . S
C64 N71 1.286 . S
C65 H60 0.930 . S
C65 C66 1.397 . S
C65 C67 1.361 . S
C66 C65 1.397 . S
C66 C70 1.390 . S
C67 C65 1.361 . S
C67 C68 1.393 . S
C67 N71 1.413 . S
C68 H61 0.930 . S
C68 C67 1.393 . S
C68 C69 1.399 . S
C69 C68 1.399 . S
C69 C70 1.381 . S
C70 H62 0.930 . S
C70 C66 1.390 . S
C70 C69 1.381 . S
N71 C64 1.286 . S
N71 C67 1.413 . S
H72 C77 0.930 . S
H73 C80 0.930 . S
H74 C82 0.930 . S
H75 C76 1.016 . S
C76 H75 1.016 . S
C76 N83 1.286 . S
C77 H72 0.930 . S
C77 C78 1.397 . S
C77 C79 1.361 . S
C78 C77 1.397 . S
C78 C82 1.390 . S
C79 C77 1.361 . S
C79 C80 1.393 . S
C79 N83 1.413 . S
C80 H73 0.930 . S
C80 C79 1.393 . S
C80 C81 1.399 . S
C81 C80 1.399 . S
C81 C82 1.381 . S
C82 H74 0.930 . S
C82 C78 1.390 . S
C82 C81 1.381 . S
N83 C76 1.286 . S
N83 C79 1.413 . S
H84 C89 0.930 . S
H85 C92 0.930 . S
H86 C94 0.930 . S
H87 C88 1.016 . S
C88 H87 1.016 . S
C88 N95 1.286 . S
C89 H84 0.930 . S
C89 C90 1.397 . S
C89 C91 1.361 . S
C90 C89 1.397 . S
C90 C94 1.390 . S
C91 C89 1.361 . S
C91 C92 1.393 . S
C91 N95 1.413 . S
C92 H85 0.930 . S
C92 C91 1.393 . S
C92 C93 1.399 . S
C93 C92 1.399 . S
C93 C94 1.381 . S
C94 H86 0.930 . S
C94 C90 1.390 . S
C94 C93 1.381 . S
N95 C88 1.286 . S
N95 C91 1.413 . S
Co96 O99 2.042 . S
Co96 O106 2.264 . S
Co96 O125 2.286 . S
Co96 O126 2.069 . S
Co96 O128 2.015 . S
Co97 O99 2.122 . S
Co97 O105 2.073 . S
Co97 O106 2.327 . S
Co97 O107 1.976 . S
Co98 O99 2.087 . S
Co98 O101 2.087 1_455 S
Co98 O108 2.111 . S
Co98 O109 2.143 1_455 S
Co98 O113 2.111 1_455 S
Co98 O127 2.143 . S
O99 Co96 2.042 . S
O99 Co97 2.122 . S
O99 Co98 2.087 . S
O99 H100 0.980 . S
H100 O99 0.980 . S
O101 Co98 2.087 1_655 S
O101 Co102 2.042 . S
O101 Co103 2.122 . S
O101 H104 0.980 1_655 S
Co102 O101 2.042 . S
Co102 O110 2.286 . S
Co102 O111 2.069 . S
Co102 O112 2.015 . S
Co102 O115 2.264 . S
Co103 O101 2.122 . S
Co103 O114 1.976 . S
Co103 O115 2.327 . S
Co103 O116 2.073 . S
H104 O101 0.980 1_455 S
O105 Co97 2.073 . S
O105 C120 1.245 . S
O106 Co96 2.264 . S
O106 Co97 2.327 . S
O106 C120 1.257 . S
O107 Co97 1.976 . S
O107 C119 1.251 . S
O108 Co98 2.111 . S
O108 C119 1.274 . S
O109 Co98 2.143 1_655 S
O109 C122 1.246 . S
O110 Co102 2.286 . S
O110 C121 1.259 . S
O111 Co102 2.069 . S
O111 C121 1.289 . S
O112 Co102 2.015 . S
O112 C122 1.257 . S
O113 Co98 2.111 1_655 S
O113 C123 1.274 . S
O114 Co103 1.976 . S
O114 C123 1.251 . S
O115 Co102 2.264 . S
O115 Co103 2.327 . S
O115 C124 1.257 . S
O116 Co103 2.073 . S
O116 C124 1.245 . S
C117 O125 1.259 . S
C117 O126 1.289 . S
C118 O127 1.246 . S
C118 O128 1.257 . S
C119 O107 1.251 . S
C119 O108 1.274 . S
C120 O105 1.245 . S
C120 O106 1.257 . S
C121 O110 1.259 . S
C121 O111 1.289 . S
C122 O109 1.246 . S
C122 O112 1.257 . S
C123 O113 1.274 . S
C123 O114 1.251 . S
C124 O115 1.257 . S
C124 O116 1.245 . S
O125 Co96 2.286 . S
O125 C117 1.259 . S
O126 Co96 2.069 . S
O126 C117 1.289 . S
O127 Co98 2.143 . S
O127 C118 1.246 . S
O128 Co96 2.015 . S
O128 C118 1.257 . S
Co129 O132 2.042 . S
Co129 O139 2.264 . S
Co129 O158 2.286 . S
Co129 O159 2.069 . S
Co129 O161 2.015 . S
Co130 O132 2.122 . S
Co130 O138 2.073 . S
Co130 O139 2.327 . S
Co130 O140 1.976 . S
Co131 O132 2.087 1_545 S
Co131 O134 2.087 . S
Co131 O141 2.111 1_545 S
Co131 O142 2.143 . S
Co131 O146 2.111 . S
Co131 O160 2.143 1_545 S
O132 Co129 2.042 . S
O132 Co130 2.122 . S
O132 Co131 2.087 1_565 S
O132 H133 0.980 1_565 S
H133 O132 0.980 1_545 S
O134 Co131 2.087 . S
O134 Co135 2.042 . S
O134 Co136 2.122 . S
O134 H137 0.980 . S
Co135 O134 2.042 . S
Co135 O143 2.286 . S
Co135 O144 2.069 . S
Co135 O145 2.015 . S
Co135 O148 2.264 . S
Co136 O134 2.122 . S
Co136 O147 1.976 . S
Co136 O148 2.327 . S
Co136 O149 2.073 . S
H137 O134 0.980 . S
O138 Co130 2.073 . S
O138 C153 1.245 . S
O139 Co129 2.264 . S
O139 Co130 2.327 . S
O139 C153 1.257 . S
O140 Co130 1.976 . S
O140 C152 1.251 . S
O141 Co131 2.111 1_565 S
O141 C152 1.274 . S
O142 Co131 2.143 . S
O142 C155 1.246 . S
O143 Co135 2.286 . S
O143 C154 1.259 . S
O144 Co135 2.069 . S
O144 C154 1.289 . S
O145 Co135 2.015 . S
O145 C155 1.257 . S
O146 Co131 2.111 . S
O146 C156 1.274 . S
O147 Co136 1.976 . S
O147 C156 1.251 . S
O148 Co135 2.264 . S
O148 Co136 2.327 . S
O148 C157 1.257 . S
O149 Co136 2.073 . S
O149 C157 1.245 . S
C150 O158 1.259 . S
C150 O159 1.289 . S
C151 O160 1.246 . S
C151 O161 1.257 . S
C152 O140 1.251 . S
C152 O141 1.274 . S
C153 O138 1.245 . S
C153 O139 1.257 . S
C154 O143 1.259 . S
C154 O144 1.289 . S
C155 O142 1.246 . S
C155 O145 1.257 . S
C156 O146 1.274 . S
C156 O147 1.251 . S
C157 O148 1.257 . S
C157 O149 1.245 . S
O158 Co129 2.286 . S
O158 C150 1.259 . S
O159 Co129 2.069 . S
O159 C150 1.289 . S
O160 Co131 2.143 1_565 S
O160 C151 1.246 . S
O161 Co129 2.015 . S
O161 C151 1.257 . S
Co162 O165 2.042 . S
Co162 O172 2.264 . S
Co162 O191 2.286 . S
Co162 O192 2.069 . S
Co162 O194 2.015 . S
Co163 O165 2.122 . S
Co163 O171 2.073 . S
Co163 O172 2.327 . S
Co163 O173 1.976 . S
Co164 O165 2.087 . S
Co164 O167 2.087 1_554 S
Co164 O174 2.111 . S
Co164 O175 2.143 1_554 S
Co164 O179 2.111 . S
Co164 O193 2.143 . S
O165 Co162 2.042 . S
O165 Co163 2.122 . S
O165 Co164 2.087 . S
O165 H166 0.980 . S
H166 O165 0.980 . S
O167 Co164 2.087 1_556 S
O167 Co168 2.042 . S
O167 Co169 2.122 . S
O167 H170 0.980 . S
Co168 O167 2.042 . S
Co168 O176 2.286 . S
Co168 O177 2.069 . S
Co168 O178 2.015 . S
Co168 O181 2.264 . S
Co169 O167 2.122 . S
Co169 O180 1.976 . S
Co169 O181 2.327 . S
Co169 O182 2.073 . S
H170 O167 0.980 . S
O171 Co163 2.073 . S
O171 C186 1.245 . S
O172 Co162 2.264 . S
O172 Co163 2.327 . S
O172 C186 1.257 . S
O173 Co163 1.976 . S
O173 C185 1.251 . S
O174 Co164 2.111 . S
O174 C185 1.274 . S
O175 Co164 2.143 1_556 S
O175 C188 1.246 . S
O176 Co168 2.286 . S
O176 C187 1.259 . S
O177 Co168 2.069 . S
O177 C187 1.289 . S
O178 Co168 2.015 . S
O178 C188 1.257 . S
O179 Co164 2.111 . S
O179 C189 1.274 1_554 S
O180 Co169 1.976 . S
O180 C189 1.251 . S
O181 Co168 2.264 . S
O181 Co169 2.327 . S
O181 C190 1.257 . S
O182 Co169 2.073 . S
O182 C190 1.245 . S
C183 O191 1.259 . S
C183 O192 1.289 . S
C184 O193 1.246 . S
C184 O194 1.257 . S
C185 O173 1.251 . S
C185 O174 1.274 . S
C186 O171 1.245 . S
C186 O172 1.257 . S
C187 O176 1.259 . S
C187 O177 1.289 . S
C188 O175 1.246 . S
C188 O178 1.257 . S
C189 O179 1.274 1_556 S
C189 O180 1.251 . S
C190 O181 1.257 . S
C190 O182 1.245 . S
O191 Co162 2.286 . S
O191 C183 1.259 . S
O192 Co162 2.069 . S
O192 C183 1.289 . S
O193 Co164 2.143 . S
O193 C184 1.246 . S
O194 Co162 2.015 . S
O194 C184 1.257 . S
C195 C196 1.387 . S
C195 H199 0.950 . S
C195 C204 1.390 . S
C196 C195 1.387 . S
C196 C198 1.387 . S
H197 C204 0.950 . S
C198 C196 1.387 . S
C198 C200 1.390 . S
C198 H202 0.950 . S
H199 C195 0.950 . S
C200 C198 1.390 . S
C200 C201 1.387 . S
C200 H203 0.950 . S
C201 C200 1.387 . S
C201 C204 1.387 . S
H202 C198 0.950 . S
H203 C200 0.950 . S
C204 C195 1.390 . S
C204 H197 0.950 . S
C204 C201 1.387 . S
C205 C206 1.387 . S
C205 H209 0.950 . S
C205 C214 1.390 . S
C206 C205 1.387 . S
C206 C208 1.387 . S
H207 C214 0.950 . S
C208 C206 1.387 . S
C208 C210 1.390 . S
C208 H212 0.950 . S
H209 C205 0.950 . S
C210 C208 1.390 . S
C210 C211 1.387 . S
C210 H213 0.950 . S
C211 C210 1.387 . S
C211 C214 1.387 . S
H212 C208 0.950 . S
H213 C210 0.950 . S
C214 C205 1.390 . S
C214 H207 0.950 . S
C214 C211 1.387 . S
C215 C216 1.387 . S
C215 H219 0.950 . S
C215 C224 1.390 . S
C216 C215 1.387 . S
C216 C218 1.387 . S
H217 C224 0.950 . S
C218 C216 1.387 . S
C218 C220 1.390 . S
C218 H222 0.950 . S
H219 C215 0.950 . S
C220 C218 1.390 . S
C220 C221 1.387 . S
C220 H223 0.950 . S
C221 C220 1.387 . S
C221 C224 1.387 . S
H222 C218 0.950 . S
H223 C220 0.950 . S
C224 C215 1.390 . S
C224 H217 0.950 . S
C224 C221 1.387 . S
C225 C226 1.387 . S
C225 H229 0.950 . S
C225 C234 1.390 . S
C226 C225 1.387 . S
C226 C228 1.387 . S
H227 C234 0.950 . S
C228 C226 1.387 . S
C228 C230 1.390 . S
C228 H232 0.950 . S
H229 C225 0.950 . S
C230 C228 1.390 . S
C230 C231 1.387 . S
C230 H233 0.950 . S
C231 C230 1.387 . S
C231 C234 1.387 . S
H232 C228 0.950 . S
H233 C230 0.950 . S
C234 C225 1.390 . S
C234 H227 0.950 . S
C234 C231 1.387 . S
C235 C236 1.387 . S
C235 H239 0.950 . S
C235 C244 1.390 . S
C236 C235 1.387 . S
C236 C238 1.387 . S
H237 C244 0.950 . S
C238 C236 1.387 . S
C238 C240 1.390 . S
C238 H242 0.950 . S
H239 C235 0.950 . S
C240 C238 1.390 . S
C240 C241 1.387 . S
C240 H243 0.950 . S
C241 C240 1.387 . S
C241 C244 1.387 . S
H242 C238 0.950 . S
H243 C240 0.950 . S
C244 C235 1.390 . S
C244 H237 0.950 . S
C244 C241 1.387 . S
C245 C246 1.387 . S
C245 H249 0.950 . S
C245 C254 1.390 . S
C246 C245 1.387 . S
C246 C248 1.387 . S
H247 C254 0.950 . S
C248 C246 1.387 . S
C248 C250 1.390 . S
C248 H252 0.950 . S
H249 C245 0.950 . S
C250 C248 1.390 . S
C250 C251 1.387 . S
C250 H253 0.950 . S
C251 C250 1.387 . S
C251 C254 1.387 . S
H252 C248 0.950 . S
H253 C250 0.950 . S
C254 C245 1.390 . S
C254 H247 0.950 . S
C254 C251 1.387 . S
C255 C256 1.387 . S
C255 H259 0.950 . S
C255 C264 1.390 . S
C256 C255 1.387 . S
C256 C258 1.387 . S
H257 C264 0.950 . S
C258 C256 1.387 . S
C258 C260 1.390 . S
C258 H262 0.950 . S
H259 C255 0.950 . S
C260 C258 1.390 . S
C260 C261 1.387 . S
C260 H263 0.950 . S
C261 C260 1.387 . S
C261 C264 1.387 . S
H262 C258 0.950 . S
H263 C260 0.950 . S
C264 C255 1.390 . S
C264 H257 0.950 . S
C264 C261 1.387 . S
C265 C266 1.387 . S
C265 H269 0.950 . S
C265 C274 1.390 . S
C266 C265 1.387 . S
C266 C268 1.387 . S
H267 C274 0.950 . S
C268 C266 1.387 . S
C268 C270 1.390 . S
C268 H272 0.950 . S
H269 C265 0.950 . S
C270 C268 1.390 . S
C270 C271 1.387 . S
C270 H273 0.950 . S
C271 C270 1.387 . S
C271 C274 1.387 . S
H272 C268 0.950 . S
H273 C270 0.950 . S
C274 C265 1.390 . S
C274 H267 0.950 . S
C274 C271 1.387 . S
C275 C276 1.387 . S
C275 H279 0.950 . S
C275 C284 1.390 . S
C276 C275 1.387 . S
C276 C278 1.387 . S
H277 C284 0.950 . S
C278 C276 1.387 . S
C278 C280 1.390 . S
C278 H282 0.950 . S
H279 C275 0.950 . S
C280 C278 1.390 . S
C280 C281 1.387 . S
C280 H283 0.950 . S
C281 C280 1.387 . S
C281 C284 1.387 . S
H282 C278 0.950 . S
H283 C280 0.950 . S
C284 C275 1.390 . S
C284 H277 0.950 . S
C284 C281 1.387 . S
C285 C286 1.387 . S
C285 H289 0.950 . S
C285 C294 1.390 . S
C286 C285 1.387 . S
C286 C288 1.387 . S
H287 C294 0.950 . S
C288 C286 1.387 . S
C288 C290 1.390 . S
C288 H292 0.950 . S
H289 C285 0.950 . S
C290 C288 1.390 . S
C290 C291 1.387 . S
C290 H293 0.950 . S
C291 C290 1.387 . S
C291 C294 1.387 . S
H292 C288 0.950 . S
H293 C290 0.950 . S
C294 C285 1.390 . S
C294 H287 0.950 . S
C294 C291 1.387 . S
C295 C296 1.387 . S
C295 H299 0.950 . S
C295 C304 1.390 . S
C296 C295 1.387 . S
C296 C298 1.387 . S
H297 C304 0.950 . S
C298 C296 1.387 . S
C298 C300 1.390 . S
C298 H302 0.950 . S
H299 C295 0.950 . S
C300 C298 1.390 . S
C300 C301 1.387 . S
C300 H303 0.950 . S
C301 C300 1.387 . S
C301 C304 1.387 . S
H302 C298 0.950 . S
H303 C300 0.950 . S
C304 C295 1.390 . S
C304 H297 0.950 . S
C304 C301 1.387 . S
C305 C306 1.387 . S
C305 H309 0.950 . S
C305 C314 1.390 . S
C306 C305 1.387 . S
C306 C308 1.387 . S
H307 C314 0.950 . S
C308 C306 1.387 . S
C308 C310 1.390 . S
C308 H312 0.950 . S
H309 C305 0.950 . S
C310 C308 1.390 . S
C310 C311 1.387 . S
C310 H313 0.950 . S
C311 C310 1.387 . S
C311 C314 1.387 . S
H312 C308 0.950 . S
H313 C310 0.950 . S
C314 C305 1.390 . S
C314 H307 0.950 . S
C314 C311 1.387 . S
C315 C316 1.387 . S
C315 H319 0.950 . S
C315 C324 1.390 . S
C316 C315 1.387 . S
C316 C318 1.387 . S
H317 C324 0.950 . S
C318 C316 1.387 . S
C318 C320 1.390 . S
C318 H322 0.950 . S
H319 C315 0.950 . S
C320 C318 1.390 . S
C320 C321 1.387 . S
C320 H323 0.950 . S
C321 C320 1.387 . S
C321 C324 1.387 . S
H322 C318 0.950 . S
H323 C320 0.950 . S
C324 C315 1.390 . S
C324 H317 0.950 . S
C324 C321 1.387 . S
C325 C326 1.387 . S
C325 H329 0.950 . S
C325 C334 1.390 . S
C326 C325 1.387 . S
C326 C328 1.387 . S
H327 C334 0.950 . S
C328 C326 1.387 . S
C328 C330 1.390 . S
C328 H332 0.950 . S
H329 C325 0.950 . S
C330 C328 1.390 . S
C330 C331 1.387 . S
C330 H333 0.950 . S
C331 C330 1.387 . S
C331 C334 1.387 . S
H332 C328 0.950 . S
H333 C330 0.950 . S
C334 C325 1.390 . S
C334 H327 0.950 . S
C334 C331 1.387 . S
C335 C336 1.387 . S
C335 H339 0.950 . S
C335 C344 1.390 . S
C336 C335 1.387 . S
C336 C338 1.387 . S
H337 C344 0.950 . S
C338 C336 1.387 . S
C338 C340 1.390 . S
C338 H342 0.950 . S
H339 C335 0.950 . S
C340 C338 1.390 . S
C340 C341 1.387 . S
C340 H343 0.950 . S
C341 C340 1.387 . S
C341 C344 1.387 . S
H342 C338 0.950 . S
H343 C340 0.950 . S
C344 C335 1.390 . S
C344 H337 0.950 . S
C344 C341 1.387 . S
C345 C346 1.387 . S
C345 H349 0.950 . S
C345 C354 1.390 . S
C346 C345 1.387 . S
C346 C348 1.387 . S
H347 C354 0.950 . S
C348 C346 1.387 . S
C348 C350 1.390 . S
C348 H352 0.950 . S
H349 C345 0.950 . S
C350 C348 1.390 . S
C350 C351 1.387 . S
C350 H353 0.950 . S
C351 C350 1.387 . S
C351 C354 1.387 . S
H352 C348 0.950 . S
H353 C350 0.950 . S
C354 C345 1.390 . S
C354 H347 0.950 . S
C354 C351 1.387 . S
C355 C356 1.387 . S
C355 H359 0.950 . S
C355 C364 1.390 . S
C356 C355 1.387 . S
C356 C358 1.387 . S
H357 C364 0.950 . S
C358 C356 1.387 . S
C358 C360 1.390 . S
C358 H362 0.950 . S
H359 C355 0.950 . S
C360 C358 1.390 . S
C360 C361 1.387 . S
C360 H363 0.950 . S
C361 C360 1.387 . S
C361 C364 1.387 . S
H362 C358 0.950 . S
H363 C360 0.950 . S
C364 C355 1.390 . S
C364 H357 0.950 . S
C364 C361 1.387 . S
C365 C366 1.387 . S
C365 H369 0.950 . S
C365 C374 1.390 . S
C366 C365 1.387 . S
C366 C368 1.387 . S
H367 C374 0.950 . S
C368 C366 1.387 . S
C368 C370 1.390 . S
C368 H372 0.950 . S
H369 C365 0.950 . S
C370 C368 1.390 . S
C370 C371 1.387 . S
C370 H373 0.950 . S
C371 C370 1.387 . S
C371 C374 1.387 . S
H372 C368 0.950 . S
H373 C370 0.950 . S
C374 C365 1.390 . S
C374 H367 0.950 . S
C374 C371 1.387 . S
C375 C376 1.387 . S
C375 H379 0.950 . S
C375 C384 1.390 . S
C376 C375 1.387 . S
C376 C378 1.387 . S
H377 C384 0.950 . S
C378 C376 1.387 . S
C378 C380 1.390 . S
C378 H382 0.950 . S
H379 C375 0.950 . S
C380 C378 1.390 . S
C380 C381 1.387 . S
C380 H383 0.950 . S
C381 C380 1.387 . S
C381 C384 1.387 . S
H382 C378 0.950 . S
H383 C380 0.950 . S
C384 C375 1.390 . S
C384 H377 0.950 . S
C384 C381 1.387 . S
C385 C386 1.387 . S
C385 H389 0.950 . S
C385 C394 1.390 . S
C386 C385 1.387 . S
C386 C388 1.387 . S
H387 C394 0.950 . S
C388 C386 1.387 . S
C388 C390 1.390 . S
C388 H392 0.950 . S
H389 C385 0.950 . S
C390 C388 1.390 . S
C390 C391 1.387 . S
C390 H393 0.950 . S
C391 C390 1.387 . S
C391 C394 1.387 . S
H392 C388 0.950 . S
H393 C390 0.950 . S
C394 C385 1.390 . S
C394 H387 0.950 . S
C394 C391 1.387 . S
C395 C396 1.387 . S
C395 H399 0.950 . S
C395 C404 1.390 . S
C396 C395 1.387 . S
C396 C398 1.387 . S
H397 C404 0.950 . S
C398 C396 1.387 . S
C398 C400 1.390 . S
C398 H402 0.950 . S
H399 C395 0.950 . S
C400 C398 1.390 . S
C400 C401 1.387 . S
C400 H403 0.950 . S
C401 C400 1.387 . S
C401 C404 1.387 . S
H402 C398 0.950 . S
H403 C400 0.950 . S
C404 C395 1.390 . S
C404 H397 0.950 . S
C404 C401 1.387 . S
C405 C406 1.387 . S
C405 H409 0.950 . S
C405 C414 1.390 . S
C406 C405 1.387 . S
C406 C408 1.387 . S
H407 C414 0.950 . S
C408 C406 1.387 . S
C408 C410 1.390 . S
C408 H412 0.950 . S
H409 C405 0.950 . S
C410 C408 1.390 . S
C410 C411 1.387 . S
C410 H413 0.950 . S
C411 C410 1.387 . S
C411 C414 1.387 . S
H412 C408 0.950 . S
H413 C410 0.950 . S
C414 C405 1.390 . S
C414 H407 0.950 . S
C414 C411 1.387 . S
C415 C416 1.387 . S
C415 H419 0.950 . S
C415 C424 1.390 . S
C416 C415 1.387 . S
C416 C418 1.387 . S
H417 C424 0.950 . S
C418 C416 1.387 . S
C418 C420 1.390 . S
C418 H422 0.950 . S
H419 C415 0.950 . S
C420 C418 1.390 . S
C420 C421 1.387 . S
C420 H423 0.950 . S
C421 C420 1.387 . S
C421 C424 1.387 . S
H422 C418 0.950 . S
H423 C420 0.950 . S
C424 C415 1.390 . S
C424 H417 0.950 . S
C424 C421 1.387 . S
C425 C426 1.387 . S
C425 H429 0.950 . S
C425 C434 1.390 . S
C426 C425 1.387 . S
C426 C428 1.387 . S
H427 C434 0.950 . S
C428 C426 1.387 . S
C428 C430 1.390 . S
C428 H432 0.950 . S
H429 C425 0.950 . S
C430 C428 1.390 . S
C430 C431 1.387 . S
C430 H433 0.950 . S
C431 C430 1.387 . S
C431 C434 1.387 . S
H432 C428 0.950 . S
H433 C430 0.950 . S
C434 C425 1.390 . S
C434 H427 0.950 . S
C434 C431 1.387 . S
C201 C120 1.480 . S
C196 C6 1.589 . S
C211 C156 1.741 . S
C206 C21 1.837 . S
C221 C121 1.368 . S
C216 C28 1.383 . S
C231 C151 1.216 . S
C226 C45 1.236 . S
C241 C118 1.553 . S
C236 C54 1.621 . S
C246 C69 1.908 . S
C251 C154 1.917 . S
C256 C81 0.833 . S
C261 C123 0.809 . S
C271 C153 1.502 . S
C266 C88 1.531 . S
C281 C157 1.424 . S
C276 C4 1.423 . S
C291 C122 1.560 . S
C286 C18 1.599 . S
C301 C150 1.824 . S
C296 C33 1.792 . S
C311 C119 0.796 . S
C306 C42 0.816 . S
C321 C152 1.792 . S
C316 C57 1.908 . S
C326 C64 1.416 . S
C331 C117 1.405 . S
C336 C78 1.203 . S
C341 C155 1.203 . S
C351 C124 1.480 . S
C346 C93 1.563 . S
C361 C186 1.780 . S
C356 C9 1.885 . S
C366 C52 2.002 . S
C371 C189 1.876 . S
C381 C188 1.846 . S
C376 C66 1.919 . S
C386 C76 1.372 . S
C391 C187 1.359 . S
C401 C190 1.708 . S
C396 C90 1.791 . S
C406 C30 1.839 . S
C411 C184 1.800 . S
C421 C183 1.367 . S
C416 C40 1.391 . S
C426 C16 1.969 . S
C431 C185 1.827 . S
