# Generated by pormake.
# Topology pth, (4,4)-cn, num edge types: 1
# Building blocks:
#     Node 0, Type 0, BuildingBlock: KUFVIS_clean_sbu_0, # of connection points: 4
#     Node 1, Type 0, BuildingBlock: KUFVIS_clean_sbu_0, # of connection points: 4
#     Node 2, Type 0, BuildingBlock: KUFVIS_clean_sbu_0, # of connection points: 4
#     Node 3, Type 1, BuildingBlock: MUDLON_clean_linker_0, # of connection points: 4
#     Node 4, Type 1, BuildingBlock: MUDLON_clean_linker_0, # of connection points: 4
#     Node 5, Type 1, BuildingBlock: MUDLON_clean_linker_0, # of connection points: 4
#     Edge 6, Type (0, 1), BuildingBlock: FUNLAD_clean_linker_0, # of connection points: 2
#     Edge 7, Type (0, 1), BuildingBlock: FUNLAD_clean_linker_0, # of connection points: 2
#     Edge 8, Type (0, 1), BuildingBlock: FUNLAD_clean_linker_0, # of connection points: 2
#     Edge 9, Type (0, 1), BuildingBlock: FUNLAD_clean_linker_0, # of connection points: 2
#     Edge 10, Type (0, 1), BuildingBlock: FUNLAD_clean_linker_0, # of connection points: 2
#     Edge 11, Type (0, 1), BuildingBlock: FUNLAD_clean_linker_0, # of connection points: 2
#     Edge 12, Type (0, 1), BuildingBlock: FUNLAD_clean_linker_0, # of connection points: 2
#     Edge 13, Type (0, 1), BuildingBlock: FUNLAD_clean_linker_0, # of connection points: 2
#     Edge 14, Type (0, 1), BuildingBlock: FUNLAD_clean_linker_0, # of connection points: 2
#     Edge 15, Type (0, 1), BuildingBlock: FUNLAD_clean_linker_0, # of connection points: 2
#     Edge 16, Type (0, 1), BuildingBlock: FUNLAD_clean_linker_0, # of connection points: 2
#     Edge 17, Type (0, 1), BuildingBlock: FUNLAD_clean_linker_0, # of connection points: 2
# Relax obj value: 0.037
# Max RMSD: 0.104
# Mean RMSD: 0.093
data_MOF--net-pth--node1-KUFVIS_clean_sbu_0--node2-MUDLON_clean_linker_0--edge1-FUNLAD_clean_linker_0
_symmetry_space_group_name_H-M    P1
_symmetry_Int_Tables_number       1
_symmetry_cell_setting            triclinic
loop_
_symmetry_equiv_pos_as_xyz
'x, y, z'
_cell_length_a     37.405317
_cell_length_b     37.495608
_cell_length_c     77.542874
_cell_angle_alpha  90.377421
_cell_angle_beta   91.755387
_cell_angle_gamma 120.16029
loop_
_atom_site_label
_atom_site_type_symbol
_atom_site_fract_x
_atom_site_fract_y
_atom_site_fract_z
_atom_type_partial_charge
Mn0 Mn 0.01491 0.01565 0.04245 0.0
Mn1 Mn 0.95536 0.0401 0.01736 0.0
C2 C 0.97598 0.97289 0.01941 0.0
C3 C 0.02388 0.98373 0.06654 0.0
C4 C 0.04882 0.08247 0.01535 0.0
O5 O 0.01094 0.05874 0.05713 0.0
O6 O 0.96684 0.06889 0.04023 0.0
C7 C 0.87884 0.9998 0.03707 0.0
N8 N 0.89837 0.00439 0.02202 0.0
C9 C 0.83484 0.9543 0.00734 0.0
C10 C 0.81399 0.94926 0.02265 0.0
C11 C 0.83612 0.97204 0.03759 0.0
C12 C 0.87742 0.98251 0.00759 0.0
H13 H 0.89577 0.01711 0.0486 0.0
C14 C 0.98873 0.07525 0.05419 0.0
O15 O 0.05524 0.01389 0.05929 0.0
O16 O 0.98733 0.97314 0.06014 0.0
N17 N 0.94149 0.01392 0.99494 0.0
C18 C 0.96656 0.02083 0.98147 0.0
C19 C 0.9494 0.99966 0.96566 0.0
C20 C 0.90665 0.97185 0.96382 0.0
C21 C 0.88141 0.96556 0.9778 0.0
C22 C 0.90021 0.98776 0.99321 0.0
H23 H 0.99943 0.04218 0.9828 0.0
O24 O 0.00778 0.97148 0.02569 0.0
O25 O 0.96802 0.99919 0.0268 0.0
O26 O 0.05418 0.06064 0.02653 0.0
O27 O 0.01336 0.07791 0.01127 0.0
C28 C 0.83845 0.93757 0.97716 0.0
C29 C 0.8152 0.93187 0.99193 0.0
H30 H 0.78107 0.92774 0.02313 0.0
H31 H 0.82028 0.96814 0.04949 0.0
H32 H 0.96909 0.00465 0.95493 0.0
H33 H 0.89359 0.95527 0.95166 0.0
H34 H 0.8231 0.91978 0.96546 0.0
H35 H 0.78231 0.90981 0.99135 0.0
Mn36 Mn 0.02282 0.03214 0.37775 0.0
Mn37 Mn 0.07505 0.12158 0.40078 0.0
C38 C 0.06275 0.0364 0.40179 0.0
C39 C 0.02135 0.99056 0.3549 0.0
C40 C 0.98236 0.06349 0.4027 0.0
O41 O 0.0223 0.07413 0.36147 0.0
O42 O 0.0612 0.13285 0.37717 0.0
C43 C 0.15183 0.16124 0.38124 0.0
N44 N 0.13269 0.14733 0.39642 0.0
C45 C 0.19766 0.16903 0.41168 0.0
C46 C 0.21811 0.18386 0.39623 0.0
C47 C 0.19508 0.17987 0.38095 0.0
C48 C 0.15453 0.15098 0.4112 0.0
H49 H 0.13421 0.15804 0.36946 0.0
C50 C 0.04036 0.11329 0.36343 0.0
O51 O 0.98725 0.98537 0.36118 0.0
O52 O 0.05569 0.0203 0.36161 0.0
N53 N 0.09057 0.11523 0.42381 0.0
C54 C 0.06591 0.09707 0.43736 0.0
C55 C 0.08403 0.09716 0.45351 0.0
C56 C 0.12726 0.11612 0.45557 0.0
C57 C 0.15201 0.13496 0.44148 0.0
C58 C 0.13224 0.13417 0.42573 0.0
H59 H 0.03267 0.08239 0.43584 0.0
O60 O 0.03342 0.00078 0.39594 0.0
O61 O 0.06786 0.06835 0.39332 0.0
O62 O 0.97959 0.03522 0.39249 0.0
O63 O 0.01634 0.09682 0.40634 0.0
C64 C 0.19547 0.15373 0.44234 0.0
C65 C 0.21827 0.17067 0.42744 0.0
H66 H 0.25144 0.198 0.39592 0.0
H67 H 0.21063 0.19102 0.36896 0.0
H68 H 0.06472 0.08251 0.46432 0.0
H69 H 0.1411 0.11576 0.468 0.0
H70 H 0.21162 0.15468 0.45433 0.0
H71 H 0.2516 0.18439 0.4282 0.0
Mn72 Mn 0.036 0.03275 0.70947 0.0
Mn73 Mn 0.99818 0.08441 0.73098 0.0
C74 C 0.07178 0.07275 0.73351 0.0
C75 C 0.07539 0.02995 0.68733 0.0
C76 C 0.96437 0.99231 0.73397 0.0
O77 O 0.99269 0.03122 0.69253 0.0
O78 O 0.97288 0.07012 0.70715 0.0
C79 C 0.03504 0.16062 0.71075 0.0
N80 N 0.02997 0.14181 0.72618 0.0
C81 C 0.07337 0.20689 0.74106 0.0
C82 C 0.07884 0.227 0.72535 0.0
C83 C 0.05965 0.20374 0.71013 0.0
C84 C 0.04834 0.16387 0.74089 0.0
H85 H 0.02048 0.14282 0.69902 0.0
C86 C 0.97135 0.049 0.69378 0.0
O87 O 0.04635 0.9965 0.69393 0.0
O88 O 0.08063 0.06472 0.69329 0.0
N89 N 0.02001 0.10037 0.75416 0.0
C90 C 0.013 0.0761 0.76811 0.0
C91 C 0.0308 0.09452 0.78431 0.0
C92 C 0.05532 0.13765 0.78602 0.0
C93 C 0.06161 0.162 0.77152 0.0
C94 C 0.0428 0.14194 0.75575 0.0
H95 H 0.99421 0.04294 0.76687 0.0
O96 O 0.07842 0.04385 0.72812 0.0
O97 O 0.04482 0.07782 0.72449 0.0
O98 O 0.99018 0.99003 0.72428 0.0
O99 O 0.96425 0.02581 0.73699 0.0
C100 C 0.08641 0.20535 0.77205 0.0
C101 C 0.09234 0.22777 0.75683 0.0
H102 H 0.09797 0.26024 0.72481 0.0
H103 H 0.0639 0.21903 0.69795 0.0
H104 H 0.02578 0.07551 0.79543 0.0
H105 H 0.06934 0.15171 0.79849 0.0
H106 H 0.1015 0.2217 0.78405 0.0
H107 H 0.1119 0.26103 0.75735 0.0
H108 H 0.97772 0.66803 0.2195 0.0
N109 N 0.05343 0.67753 0.21253 0.0
H110 H 0.96404 0.7053 0.24189 0.0
H111 H 0.10436 0.72316 0.23848 0.0
H112 H 0.09088 0.76068 0.26099 0.0
H113 H 0.11382 0.74633 0.19988 0.0
H114 H 0.10865 0.78603 0.17601 0.0
H115 H 0.98661 0.65204 0.19018 0.0
H116 H 0.98057 0.69207 0.16659 0.0
H117 H 0.98916 0.61122 0.22868 0.0
H118 H 0.08782 0.64454 0.19348 0.0
H119 H 0.97219 0.54007 0.22687 0.0
H120 H 0.06934 0.57235 0.19092 0.0
H121 H 0.92022 0.32017 0.22545 0.0
H122 H 0.92839 0.28703 0.25127 0.0
H123 H 0.06005 0.37249 0.25262 0.0
H124 H 0.05167 0.40573 0.22715 0.0
H125 H 0.05213 0.38552 0.19866 0.0
H126 H 0.06006 0.34675 0.17532 0.0
H127 H 0.93147 0.29676 0.15958 0.0
H128 H 0.92352 0.33483 0.18351 0.0
H129 H 0.92712 0.40826 0.20962 0.0
H130 H 0.94286 0.47991 0.20953 0.0
H131 H 0.07296 0.52042 0.20611 0.0
N132 N 0.97948 0.38042 0.208 0.0
H133 H 0.05646 0.44888 0.20513 0.0
C134 C 0.04221 0.69268 0.22739 0.0
C135 C 0.00236 0.68742 0.22873 0.0
C136 C 0.99452 0.70867 0.24156 0.0
C137 C 0.02647 0.7361 0.25309 0.0
C138 C 0.06576 0.73999 0.25217 0.0
C139 C 0.07344 0.71837 0.23946 0.0
C140 C 0.0507 0.69652 0.19682 0.0
C141 C 0.08496 0.73401 0.19239 0.0
C142 C 0.08176 0.75678 0.17889 0.0
C143 C 0.04401 0.74253 0.16956 0.0
C144 C 0.01015 0.70385 0.17346 0.0
C145 C 0.01345 0.68099 0.18698 0.0
C146 C 0.04007 0.63399 0.21112 0.0
C147 C 0.00695 0.60356 0.2203 0.0
C148 C 0.99694 0.56228 0.21918 0.0
C149 C 0.01931 0.55013 0.20875 0.0
C150 C 0.05182 0.58045 0.19934 0.0
C151 C 0.06218 0.62176 0.20065 0.0
C152 C 0.98514 0.36518 0.22426 0.0
C153 C 0.95069 0.33212 0.23153 0.0
C154 C 0.95541 0.31331 0.24624 0.0
C155 C 0.99492 0.32702 0.25383 0.0
C156 C 0.02932 0.36099 0.24687 0.0
C157 C 0.02448 0.38011 0.2323 0.0
C158 C 0.98695 0.36285 0.19292 0.0
C159 C 0.02572 0.36674 0.19012 0.0
C160 C 0.03029 0.34456 0.17664 0.0
C161 C 0.9963 0.31822 0.16565 0.0
C162 C 0.9581 0.31606 0.16801 0.0
C163 C 0.95355 0.33808 0.18154 0.0
C164 C 0.99044 0.42311 0.20757 0.0
C165 C 0.95896 0.43275 0.20874 0.0
C166 C 0.96814 0.47376 0.20884 0.0
C167 C 0.0093 0.50625 0.20796 0.0
C168 C 0.04085 0.49638 0.2066 0.0
C169 C 0.03151 0.45526 0.20627 0.0
H170 H 0.69964 0.05737 0.54496 0.0
N171 N 0.62478 0.9869 0.53874 0.0
H172 H 0.74894 0.07042 0.56878 0.0
H173 H 0.61495 0.93865 0.56535 0.0
H174 H 0.66393 0.95198 0.58968 0.0
H175 H 0.63239 0.92748 0.52363 0.0
H176 H 0.67262 0.93296 0.49851 0.0
H177 H 0.66041 0.05293 0.51743 0.0
H178 H 0.7 0.05853 0.49203 0.0
H179 H 0.63398 0.05511 0.55714 0.0
H180 H 0.55228 0.9563 0.52156 0.0
H181 H 0.58388 0.07726 0.55883 0.0
H182 H 0.50284 0.98058 0.52215 0.0
H183 H 0.41751 0.14564 0.5627 0.0
H184 H 0.37389 0.13848 0.58683 0.0
H185 H 0.33305 0.00845 0.58835 0.0
H186 H 0.37635 0.01576 0.56431 0.0
H187 H 0.34543 0.01901 0.53617 0.0
H188 H 0.29993 0.01479 0.51226 0.0
H189 H 0.39422 0.13467 0.49568 0.0
H190 H 0.4387 0.13952 0.52044 0.0
H191 H 0.50234 0.13191 0.54831 0.0
H192 H 0.55321 0.1099 0.54548 0.0
H193 H 0.4537 0.98348 0.53829 0.0
N194 N 0.42073 0.08601 0.54557 0.0
H195 H 0.40362 0.00658 0.53964 0.0
C196 C 0.65353 0.99673 0.55332 0.0
C197 C 0.69155 0.03411 0.5546 0.0
C198 C 0.71962 0.04173 0.56836 0.0
C199 C 0.71044 0.01221 0.58112 0.0
C200 C 0.67218 0.97513 0.57994 0.0
C201 C 0.64404 0.96755 0.56616 0.0
C202 C 0.64341 0.98962 0.52241 0.0
C203 C 0.64644 0.95586 0.51655 0.0
C204 C 0.66932 0.95906 0.50216 0.0
C205 C 0.68976 0.99628 0.49329 0.0
C206 C 0.68513 0.02961 0.49871 0.0
C207 C 0.66223 0.02637 0.51315 0.0
C208 C 0.59703 0.00336 0.53925 0.0
C209 C 0.60559 0.03825 0.54944 0.0
C210 C 0.57672 0.05139 0.55029 0.0
C211 C 0.53892 0.03084 0.54066 0.0
C212 C 0.531 0.99675 0.5301 0.0
C213 C 0.5595 0.98304 0.52957 0.0
C214 C 0.40041 0.0815 0.56161 0.0
C215 C 0.3999 0.11584 0.56854 0.0
C216 C 0.37496 0.11165 0.58231 0.0
C217 C 0.34975 0.07279 0.5894 0.0
C218 C 0.35172 0.03868 0.583 0.0
C219 C 0.37686 0.04296 0.56927 0.0
C220 C 0.39535 0.08005 0.53026 0.0
C221 C 0.35648 0.04434 0.52739 0.0
C222 C 0.3305 0.04182 0.51353 0.0
C223 C 0.34307 0.0746 0.50206 0.0
C224 C 0.38298 0.10927 0.50446 0.0
C225 C 0.40867 0.11198 0.51848 0.0
C226 C 0.4493 0.07099 0.54458 0.0
C227 C 0.49172 0.09947 0.54615 0.0
C228 C 0.52071 0.08666 0.54465 0.0
C229 C 0.50787 0.04468 0.54182 0.0
C230 C 0.46507 0.01611 0.54024 0.0
C231 C 0.43613 0.02918 0.54135 0.0
H232 H 0.64958 0.73838 0.88415 0.0
N233 N 0.63395 0.66916 0.86809 0.0
H234 H 0.70155 0.77632 0.90724 0.0
H235 H 0.68152 0.64283 0.88512 0.0
H236 H 0.73314 0.68016 0.90835 0.0
H237 H 0.69719 0.66125 0.8551 0.0
H238 H 0.73561 0.6943 0.82968 0.0
H239 H 0.61627 0.70997 0.84476 0.0
H240 H 0.65595 0.74512 0.81967 0.0
H241 H 0.55944 0.64176 0.88028 0.0
H242 H 0.63791 0.5998 0.85949 0.0
H243 H 0.50536 0.57003 0.88432 0.0
H244 H 0.58453 0.52852 0.8636 0.0
H245 H 0.36399 0.39878 0.89373 0.0
H246 H 0.31285 0.37051 0.91601 0.0
H247 H 0.36226 0.29336 0.9325 0.0
H248 H 0.414 0.32279 0.91046 0.0
H249 H 0.40954 0.30212 0.87402 0.0
H250 H 0.36179 0.25662 0.85099 0.0
H251 H 0.32171 0.34482 0.84133 0.0
H252 H 0.37056 0.39059 0.86392 0.0
H253 H 0.4432 0.4407 0.9078 0.0
H254 H 0.49421 0.5118 0.90267 0.0
H255 H 0.51531 0.47674 0.85256 0.0
N256 N 0.41864 0.3732 0.88564 0.0
H257 H 0.46434 0.40522 0.85757 0.0
C258 C 0.66157 0.6879 0.88294 0.0
C259 C 0.66734 0.7253 0.88959 0.0
C260 C 0.69696 0.74681 0.9028 0.0
C261 C 0.72155 0.73127 0.90961 0.0
C262 C 0.71502 0.69317 0.90322 0.0
C263 C 0.68529 0.67163 0.89001 0.0
C264 C 0.65334 0.68274 0.85177 0.0
C265 C 0.68698 0.67825 0.84716 0.0
C266 C 0.70945 0.6978 0.83269 0.0
C267 C 0.69929 0.72285 0.82267 0.0
C268 C 0.66446 0.72571 0.82689 0.0
C269 C 0.64174 0.70575 0.84127 0.0
C270 C 0.60258 0.62638 0.86947 0.0
C271 C 0.56489 0.61708 0.87651 0.0
C272 C 0.53421 0.57616 0.87891 0.0
C273 C 0.54065 0.54358 0.87427 0.0
C274 C 0.57839 0.5529 0.86709 0.0
C275 C 0.60912 0.59387 0.86476 0.0
C276 C 0.39301 0.36291 0.90047 0.0
C277 C 0.36429 0.37636 0.90234 0.0
C278 C 0.33485 0.35992 0.91504 0.0
C279 C 0.33305 0.32927 0.92596 0.0
C280 C 0.36296 0.31725 0.92451 0.0
C281 C 0.39258 0.33397 0.9119 0.0
C282 C 0.39352 0.34951 0.87074 0.0
C283 C 0.39087 0.31178 0.86671 0.0
C284 C 0.36329 0.28573 0.85369 0.0
C285 C 0.33756 0.29687 0.84445 0.0
C286 C 0.34124 0.33541 0.8481 0.0
C287 C 0.36894 0.3615 0.86112 0.0
C288 C 0.44711 0.41676 0.88261 0.0
C289 C 0.45738 0.4478 0.8954 0.0
C290 C 0.48707 0.4889 0.89255 0.0
C291 C 0.50835 0.50007 0.8771 0.0
C292 C 0.49933 0.46921 0.86458 0.0
C293 C 0.46958 0.42821 0.86738 0.0
C294 C 0.01716 0.11956 0.08127 0.0
C295 C 0.98729 0.10281 0.06761 0.0
C296 C 0.0155 0.14581 0.09376 0.0
C297 C 0.9837 0.15552 0.09288 0.0
C298 C 0.95361 0.13825 0.0794 0.0
C299 C 0.95554 0.11254 0.06684 0.0
C300 C 0.97977 0.18206 0.10609 0.0
C301 C 0.0122 0.21259 0.11512 0.0
C302 C 0.0074 0.23937 0.12795 0.0
C303 C 0.03981 0.28004 0.13097 0.0
C304 C 0.03612 0.30592 0.14298 0.0
C305 C 1.00003 0.29146 0.15241 0.0
H306 H 0.94642 0.19316 0.13599 0.0
C307 C 0.96786 0.25049 0.14954 0.0
C308 C 0.97148 0.22475 0.13749 0.0
H309 H 0.94014 0.23789 0.15691 0.0
H310 H 0.04193 0.11256 0.08228 0.0
H311 H 0.03862 0.15771 0.10424 0.0
H312 H 0.92857 0.1449 0.07851 0.0
H313 H 0.93176 0.09994 0.0566 0.0
H314 H 0.94907 0.17771 0.10765 0.0
H315 H 0.04341 0.21982 0.11236 0.0
H316 H 0.06792 0.29199 0.12388 0.0
H317 H 0.06142 0.33733 0.14478 0.0
C318 C 0.90733 0.02002 0.41012 0.0
C319 C 0.9447 0.05801 0.41099 0.0
C320 C 0.87258 0.01525 0.41854 0.0
C321 C 0.87456 0.04852 0.42797 0.0
C322 C 0.91156 0.0866 0.4284 0.0
C323 C 0.94617 0.09127 0.42014 0.0
C324 C 0.83951 0.04539 0.43775 0.0
C325 C 0.80779 0.00978 0.44323 0.0
C326 C 0.77654 0.00837 0.4551 0.0
C327 C 0.73774 0.97225 0.45563 0.0
C328 C 0.7089 0.96875 0.46757 0.0
C329 C 0.71841 0.00121 0.4794 0.0
H330 H 0.81581 0.06889 0.46732 0.0
C331 C 0.75703 0.03757 0.47871 0.0
C332 C 0.78579 0.04109 0.46678 0.0
H333 H 0.76585 0.06278 0.4879 0.0
H334 H 0.90501 0.99383 0.40308 0.0
H335 H 0.84439 0.98563 0.41749 0.0
H336 H 0.91402 0.11285 0.43545 0.0
H337 H 0.97421 0.12114 0.42101 0.0
H338 H 0.84137 0.07431 0.44138 0.0
H339 H 0.80492 0.98054 0.43943 0.0
H340 H 0.72987 0.94646 0.44689 0.0
H341 H 0.67933 0.9404 0.46768 0.0
C342 C 0.89919 0.95369 0.75013 0.0
C343 C 0.93317 0.95452 0.74244 0.0
C344 C 0.87044 0.91884 0.7587 0.0
C345 C 0.87502 0.88391 0.75985 0.0
C346 C 0.90889 0.88464 0.75218 0.0
C347 C 0.93746 0.9194 0.74341 0.0
C348 C 0.84682 0.84783 0.77012 0.0
C349 C 0.80698 0.83668 0.77238 0.0
C350 C 0.78003 0.80417 0.7844 0.0
C351 C 0.73689 0.7845 0.78179 0.0
C352 C 0.71057 0.75683 0.79381 0.0
C353 C 0.72686 0.74867 0.80889 0.0
H354 H 0.8294 0.81068 0.80201 0.0
C355 C 0.77012 0.76784 0.81131 0.0
C356 C 0.79638 0.79521 0.79923 0.0
H357 H 0.7839 0.7632 0.82294 0.0
H358 H 0.89491 0.98018 0.74968 0.0
H359 H 0.84547 0.91996 0.76489 0.0
H360 H 0.91339 0.85832 0.75306 0.0
H361 H 0.96339 0.91906 0.73774 0.0
H362 H 0.85939 0.82994 0.77589 0.0
H363 H 0.79338 0.85201 0.76519 0.0
H364 H 0.72346 0.79102 0.77053 0.0
H365 H 0.67746 0.74231 0.79141 0.0
C366 C 0.99526 0.92489 0.0868 0.0
C367 C 0.0295 0.96046 0.08066 0.0
C368 C 0.0007 0.90087 0.09915 0.0
C369 C 0.04059 0.9119 0.1056 0.0
C370 C 0.07463 0.94828 0.09993 0.0
C371 C 0.06921 0.97219 0.0875 0.0
C372 C 0.0477 0.88668 0.11847 0.0
C373 C 0.02241 0.8456 0.1197 0.0
C374 C 0.02941 0.82005 0.13246 0.0
C375 C 0.0114 0.77745 0.12913 0.0
C376 C 0.01645 0.75226 0.14101 0.0
C377 C 0.03945 0.76913 0.15657 0.0
H378 H 0.06528 0.8692 0.15148 0.0
C379 C 0.05718 0.81171 0.15996 0.0
C380 C 0.05216 0.83687 0.14809 0.0
H381 H 0.07414 0.82555 0.17202 0.0
H382 H 0.9642 0.91517 0.08187 0.0
H383 H 0.97355 0.87388 0.10365 0.0
H384 H 0.10564 0.95779 0.10486 0.0
H385 H 0.09621 0.99952 0.08308 0.0
H386 H 0.07597 0.90228 0.12647 0.0
H387 H 0.9964 0.8295 0.11052 0.0
H388 H 0.99345 0.7636 0.11725 0.0
H389 H 0.00252 0.71962 0.13797 0.0
C390 C 0.13574 0.05833 0.40979 0.0
C391 C 0.09411 0.03821 0.41417 0.0
C392 C 0.16574 0.05882 0.4211 0.0
C393 C 0.15441 0.03857 0.4369 0.0
C394 C 0.11242 0.01683 0.44088 0.0
C395 C 0.08243 0.01652 0.42956 0.0
C396 C 0.18555 0.03851 0.44918 0.0
C397 C 0.22467 0.07028 0.45087 0.0
C398 C 0.25534 0.07075 0.46355 0.0
C399 C 0.28482 0.1083 0.47149 0.0
C400 C 0.31349 0.10962 0.48382 0.0
C401 C 0.31392 0.07345 0.48823 0.0
H402 H 0.23454 0.00541 0.46132 0.0
C403 C 0.28518 0.03604 0.47978 0.0
C404 C 0.25609 0.03466 0.46764 0.0
H405 H 0.28516 0.00775 0.48249 0.0
H406 H 0.14504 0.07351 0.39755 0.0
H407 H 0.19759 0.07451 0.4173 0.0
H408 H 0.10285 0.00041 0.45284 0.0
H409 H 0.05021 0.99974 0.43288 0.0
H410 H 0.17525 0.01264 0.45777 0.0
H411 H 0.23387 0.09803 0.44359 0.0
H412 H 0.28498 0.13655 0.46846 0.0
H413 H 0.3346 0.13891 0.4902 0.0
C414 C 0.10741 0.08907 0.76249 0.0
C415 C 0.10009 0.1027 0.74671 0.0
C416 C 0.13643 0.11727 0.77462 0.0
C417 C 0.15958 0.15955 0.77091 0.0
C418 C 0.15225 0.17291 0.755 0.0
C419 C 0.12312 0.14466 0.74292 0.0
C420 C 0.1913 0.19058 0.78327 0.0
C421 C 0.21177 0.18116 0.79532 0.0
C422 C 0.24405 0.21188 0.80761 0.0
C423 C 0.25264 0.19776 0.82303 0.0
C424 C 0.28297 0.22528 0.83491 0.0
C425 C 0.30585 0.26766 0.83158 0.0
H426 H 0.26262 0.26628 0.79216 0.0
C427 C 0.29768 0.28181 0.81603 0.0
C428 C 0.2672 0.25425 0.80414 0.0
H429 H 0.31527 0.31415 0.81293 0.0
H430 H 0.09028 0.05664 0.7655 0.0
H431 H 0.14016 0.10577 0.78689 0.0
H432 H 0.16952 0.20523 0.75181 0.0
H433 H 0.11883 0.15554 0.73055 0.0
H434 H 0.19851 0.2223 0.78201 0.0
H435 H 0.20458 0.14942 0.79648 0.0
H436 H 0.23547 0.1653 0.826 0.0
H437 H 0.288 0.21336 0.84686 0.0
C438 C 0.91568 0.06022 0.68071 0.0
C439 C 0.94228 0.04408 0.67927 0.0
C440 C 0.88683 0.05399 0.66745 0.0
C441 C 0.88415 0.03179 0.65228 0.0
C442 C 0.91087 0.01589 0.6508 0.0
C443 C 0.93966 0.02201 0.66409 0.0
C444 C 0.85279 0.02293 0.63811 0.0
C445 C 0.8333 0.04467 0.63576 0.0
C446 C 0.8015 0.03526 0.62175 0.0
C447 C 0.79371 0.06658 0.61653 0.0
C448 C 0.76401 0.05907 0.60346 0.0
C449 C 0.7411 0.01987 0.5954 0.0
H450 H 0.78198 0.97035 0.61791 0.0
C451 C 0.74826 0.98823 0.60085 0.0
C452 C 0.778 0.99575 0.61391 0.0
H453 H 0.73126 0.95772 0.59486 0.0
H454 H 0.9165 0.0771 0.69225 0.0
H455 H 0.86611 0.06574 0.66944 0.0
H456 H 0.90936 0.99843 0.63933 0.0
H457 H 0.95955 0.00904 0.66251 0.0
H458 H 0.84671 0.99831 0.62895 0.0
H459 H 0.84203 0.07166 0.64391 0.0
H460 H 0.81088 0.09713 0.6225 0.0
H461 H 0.75878 0.08394 0.59977 0.0
C462 C 0.9569 0.92965 0.99238 0.0
C463 C 0.94546 0.93932 0.00799 0.0
C464 C 0.92704 0.8984 0.9814 0.0
C465 C 0.88536 0.87566 0.98612 0.0
C466 C 0.87494 0.88397 0.00232 0.0
C467 C 0.90467 0.9154 0.01315 0.0
C468 C 0.85117 0.84466 0.97449 0.0
C469 C 0.85578 0.83438 0.95836 0.0
C470 C 0.82016 0.80615 0.94669 0.0
C471 C 0.82647 0.78475 0.93331 0.0
C472 C 0.79423 0.75962 0.92155 0.0
C473 C 0.75499 0.75571 0.92279 0.0
H474 H 0.7749 0.81903 0.95774 0.0
C475 C 0.74859 0.77698 0.93623 0.0
C476 C 0.78079 0.80205 0.948 0.0
H477 H 0.71871 0.77454 0.93756 0.0
H478 H 0.98859 0.94723 0.98843 0.0
H479 H 0.93698 0.89312 0.9692 0.0
H480 H 0.84336 0.86689 0.00645 0.0
H481 H 0.8956 0.92152 0.02546 0.0
H482 H 0.8203 0.83011 0.97949 0.0
H483 H 0.88634 0.84645 0.95333 0.0
H484 H 0.85658 0.78774 0.93187 0.0
H485 H 0.80039 0.74422 0.91117 0.0
C486 C 0.98555 0.9278 0.33509 0.0
C487 C 0.02198 0.96291 0.34136 0.0
C488 C 0.98737 0.90055 0.32313 0.0
C489 C 0.02583 0.90796 0.31728 0.0
C490 C 0.06191 0.94367 0.32331 0.0
C491 C 0.06007 0.97072 0.33516 0.0
C492 C 0.03071 0.87998 0.30504 0.0
C493 C 1.00006 0.84293 0.29901 0.0
C494 C 0.00738 0.81602 0.28709 0.0
C495 C 0.97847 0.77352 0.28594 0.0
C496 C 0.98458 0.74733 0.27501 0.0
C497 C 0.01989 0.76314 0.26505 0.0
H498 H 0.0643 0.86449 0.27645 0.0
C499 C 0.04844 0.80565 0.26597 0.0
C500 C 0.04213 0.83184 0.2767 0.0
H501 H 0.0753 0.81888 0.25804 0.0
H502 H 0.95572 0.92104 0.33961 0.0
H503 H 0.95861 0.87389 0.31871 0.0
H504 H 0.09197 0.95055 0.31901 0.0
H505 H 0.08878 0.99755 0.33965 0.0
H506 H 0.06211 0.89029 0.30137 0.0
H507 H 0.96888 0.83077 0.30337 0.0
H508 H 0.9512 0.76047 0.29362 0.0
H509 H 0.96193 0.71468 0.27446 0.0
C510 C 0.13377 0.066 0.66744 0.0
C511 C 0.10305 0.02902 0.67433 0.0
C512 C 0.16197 0.06589 0.65608 0.0
C513 C 0.16037 0.02874 0.65145 0.0
C514 C 0.12874 0.99161 0.65787 0.0
C515 C 0.10045 0.99172 0.66925 0.0
C516 C 0.19053 0.02758 0.63969 0.0
C517 C 0.22903 0.05992 0.63793 0.0
C518 C 0.25974 0.06049 0.62595 0.0
C519 C 0.30091 0.09308 0.62763 0.0
C520 C 0.33041 0.09658 0.61608 0.0
C521 C 0.31944 0.06746 0.60254 0.0
H522 H 0.2175 0.00596 0.61031 0.0
C523 C 0.27848 0.03442 0.60098 0.0
C524 C 0.24889 0.03102 0.61247 0.0
H525 H 0.26886 0.01192 0.59047 0.0
H526 H 0.13632 0.09523 0.67094 0.0
H527 H 0.18469 0.095 0.65089 0.0
H528 H 0.12638 0.96248 0.65432 0.0
H529 H 0.07702 0.96269 0.67428 0.0
H530 H 0.18096 0.99857 0.63295 0.0
H531 H 0.23925 0.08749 0.64592 0.0
H532 H 0.31026 0.11633 0.63782 0.0
H533 H 0.36177 0.12226 0.61768 0.0
C534 C 0.08071 0.13645 0.99284 0.0
C535 C 0.08545 0.11437 0.00645 0.0
C536 C 0.11507 0.16585 0.9842 0.0
C537 C 0.15521 0.1742 0.98906 0.0
C538 C 0.15987 0.15213 0.00267 0.0
C539 C 0.12551 0.12267 0.01128 0.0
C540 C 0.19272 0.20389 0.97983 0.0
C541 C 0.19427 0.23298 0.96923 0.0
C542 C 0.23094 0.25985 0.95901 0.0
C543 C 0.22474 0.27418 0.94317 0.0
C544 C 0.25795 0.29749 0.93267 0.0
C545 C 0.29839 0.30761 0.93788 0.0
H546 H 0.27778 0.26203 0.97699 0.0
C547 C 0.30485 0.29476 0.95411 0.0
C548 C 0.27153 0.27116 0.96457 0.0
H549 H 0.33568 0.30278 0.95872 0.0
H550 H 0.05032 0.13063 0.98864 0.0
H551 H 0.10958 0.18098 0.97349 0.0
H552 H 0.19028 0.15759 0.00664 0.0
H553 H 0.13044 0.1063 0.02169 0.0
H554 H 0.21996 0.20087 0.98166 0.0
H555 H 0.16724 0.23617 0.96712 0.0
H556 H 0.19385 0.26619 0.93863 0.0
H557 H 0.25161 0.30633 0.92018 0.0
C558 C 0.04601 0.17843 0.35226 0.0
C559 C 0.03676 0.13759 0.34919 0.0
C560 C 0.04194 0.20125 0.33896 0.0
C561 C 0.02878 0.18381 0.32225 0.0
C562 C 0.02039 0.14338 0.31907 0.0
C563 C 0.0239 0.12031 0.33243 0.0
C564 C 0.0249 0.20754 0.30779 0.0
C565 C 0.01361 0.23613 0.31002 0.0
C566 C 0.00941 0.25959 0.29553 0.0
C567 C 0.97972 0.27195 0.29616 0.0
C568 C 0.97493 0.29388 0.28263 0.0
C569 C 1.00045 0.30469 0.26841 0.0
H570 H 0.05916 0.26266 0.28069 0.0
C571 C 0.03084 0.29318 0.26798 0.0
C572 C 0.03522 0.27075 0.28137 0.0
H573 H 0.05082 0.30098 0.25713 0.0
H574 H 0.05612 0.19277 0.365 0.0
H575 H 0.04977 0.23274 0.34176 0.0
H576 H 0.01063 0.12943 0.30625 0.0
H577 H 0.01685 0.08907 0.32958 0.0
H578 H 0.02935 0.1996 0.29484 0.0
H579 H 0.00492 0.24099 0.32269 0.0
H580 H 0.95977 0.2641 0.30702 0.0
H581 H 0.95149 0.30267 0.28334 0.0
loop_
_geom_bond_atom_site_label_1
_geom_bond_atom_site_label_2
_geom_bond_distance
_geom_bond_site_symmetry_2
_ccdc_geom_bond_type
Mn0 O5 2.095 . S
Mn0 O15 2.162 1_545 S
Mn0 O16 2.297 1_545 S
Mn0 O24 2.385 1_545 S
Mn0 O25 2.209 1_455 S
Mn0 O26 2.094 . S
Mn1 O6 2.121 1_655 S
Mn1 N8 2.257 . S
Mn1 N17 2.282 1_554 S
Mn1 O25 2.215 . S
Mn1 O27 2.117 1_655 S
C2 O24 1.234 1_655 S
C2 O25 1.283 1_565 S
C3 O15 1.281 . S
C3 O16 1.236 . S
C4 O26 1.240 . S
C4 O27 1.264 . S
O5 Mn0 2.095 . S
O5 C14 1.250 . S
O6 Mn1 2.121 1_455 S
O6 C14 1.257 . S
C7 N8 1.326 . S
C7 C11 1.460 . S
C7 H13 0.929 . S
N8 Mn1 2.257 . S
N8 C7 1.326 . S
N8 C12 1.362 . S
C9 C10 1.258 . S
C9 C12 1.431 . S
C9 C29 1.449 1_554 S
C10 C9 1.258 . S
C10 C11 1.477 . S
C10 H30 0.931 . S
C11 C7 1.460 . S
C11 C10 1.477 . S
C11 H31 0.930 . S
C12 N8 1.362 . S
C12 C9 1.431 . S
C12 C22 1.476 1_554 S
H13 C7 0.929 . S
C14 O5 1.250 . S
C14 O6 1.257 . S
O15 Mn0 2.162 1_565 S
O15 C3 1.281 . S
O16 Mn0 2.297 1_565 S
O16 C3 1.236 . S
N17 Mn1 2.282 1_556 S
N17 C18 1.328 . S
N17 C22 1.318 . S
C18 N17 1.328 . S
C18 C19 1.457 . S
C18 H23 0.929 1_655 S
C19 C18 1.457 . S
C19 C20 1.291 . S
C19 H32 0.931 . S
C20 C19 1.291 . S
C20 C21 1.373 . S
C20 H33 0.929 1_545 S
C21 C20 1.373 . S
C21 C22 1.396 . S
C21 C28 1.403 . S
C22 C12 1.476 1_556 S
C22 N17 1.318 . S
C22 C21 1.396 . S
H23 C18 0.929 1_455 S
O24 Mn0 2.385 1_565 S
O24 C2 1.234 1_455 S
O25 Mn0 2.209 1_655 S
O25 Mn1 2.215 . S
O25 C2 1.283 1_545 S
O26 Mn0 2.094 . S
O26 C4 1.240 . S
O27 Mn1 2.117 1_455 S
O27 C4 1.264 . S
C28 C21 1.403 . S
C28 C29 1.399 . S
C28 H34 0.929 1_545 S
C29 C9 1.449 1_556 S
C29 C28 1.399 . S
C29 H35 0.930 . S
H30 C10 0.931 . S
H31 C11 0.930 . S
H32 C19 0.931 . S
H33 C20 0.929 1_565 S
H34 C28 0.929 1_565 S
H35 C29 0.930 . S
Mn36 O41 2.095 . S
Mn36 O51 2.162 1_545 S
Mn36 O52 2.297 1_645 S
Mn36 O60 2.385 1_645 S
Mn36 O61 2.209 1_655 S
Mn36 O62 2.094 1_545 S
Mn37 O42 2.121 . S
Mn37 N44 2.257 . S
Mn37 N53 2.282 . S
Mn37 O61 2.215 . S
Mn37 O63 2.117 1_455 S
C38 O60 1.234 1_545 S
C38 O61 1.283 . S
C39 O51 1.281 1_455 S
C39 O52 1.236 . S
C40 O62 1.240 1_545 S
C40 O63 1.264 . S
O41 Mn36 2.095 . S
O41 C50 1.250 1_655 S
O42 Mn37 2.121 . S
O42 C50 1.258 . S
C43 N44 1.326 . S
C43 C47 1.460 . S
C43 H49 0.929 . S
N44 Mn37 2.257 . S
N44 C43 1.326 . S
N44 C48 1.362 . S
C45 C46 1.258 . S
C45 C48 1.431 . S
C45 C65 1.449 . S
C46 C45 1.258 . S
C46 C47 1.477 . S
C46 H66 0.931 . S
C47 C43 1.460 . S
C47 C46 1.477 . S
C47 H67 0.930 . S
C48 N44 1.362 . S
C48 C45 1.431 . S
C48 C58 1.476 . S
H49 C43 0.929 . S
C50 O41 1.250 1_455 S
C50 O42 1.258 . S
O51 Mn36 2.162 1_565 S
O51 C39 1.281 1_655 S
O52 Mn36 2.297 1_465 S
O52 C39 1.236 . S
N53 Mn37 2.282 . S
N53 C54 1.328 . S
N53 C58 1.318 . S
C54 N53 1.328 . S
C54 C55 1.457 . S
C54 H59 0.929 . S
C55 C54 1.457 . S
C55 C56 1.291 . S
C55 H68 0.931 . S
C56 C55 1.291 . S
C56 C57 1.373 . S
C56 H69 0.929 . S
C57 C56 1.373 . S
C57 C58 1.396 . S
C57 C64 1.403 . S
C58 C48 1.476 . S
C58 N53 1.318 . S
C58 C57 1.396 . S
H59 C54 0.929 . S
O60 Mn36 2.385 1_465 S
O60 C38 1.234 1_565 S
O61 Mn36 2.209 1_455 S
O61 Mn37 2.215 . S
O61 C38 1.283 . S
O62 Mn36 2.094 1_565 S
O62 C40 1.240 1_565 S
O63 Mn37 2.117 1_655 S
O63 C40 1.264 . S
C64 C57 1.403 . S
C64 C65 1.399 . S
C64 H70 0.929 . S
C65 C45 1.449 . S
C65 C64 1.399 . S
C65 H71 0.930 . S
H66 C46 0.931 . S
H67 C47 0.930 . S
H68 C55 0.931 . S
H69 C56 0.929 . S
H70 C64 0.929 . S
H71 C65 0.930 . S
Mn72 O77 2.095 1_455 S
Mn72 O87 2.162 1_545 S
Mn72 O88 2.297 . S
Mn72 O96 2.385 . S
Mn72 O97 2.209 . S
Mn72 O98 2.094 1_445 S
Mn73 O78 2.121 . S
Mn73 N80 2.257 . S
Mn73 N89 2.278 1_655 S
Mn73 O97 2.215 1_655 S
Mn73 O99 2.117 1_545 S
C74 O96 1.234 . S
C74 O97 1.283 . S
C75 O87 1.281 1_545 S
C75 O88 1.236 . S
C76 O98 1.240 . S
C76 O99 1.264 . S
O77 Mn72 2.095 1_655 S
O77 C86 1.250 . S
O78 Mn73 2.121 . S
O78 C86 1.258 . S
C79 N80 1.326 . S
C79 C83 1.460 1_655 S
C79 H85 0.929 . S
N80 Mn73 2.257 . S
N80 C79 1.326 . S
N80 C84 1.362 1_655 S
C81 C82 1.258 . S
C81 C84 1.431 . S
C81 C101 1.449 . S
C82 C81 1.258 . S
C82 C83 1.477 . S
C82 H102 0.931 . S
C83 C79 1.460 1_455 S
C83 C82 1.477 . S
C83 H103 0.929 1_455 S
C84 N80 1.362 1_455 S
C84 C81 1.431 . S
C84 C94 1.476 . S
H85 C79 0.929 . S
C86 O77 1.250 . S
C86 O78 1.258 . S
O87 Mn72 2.162 1_565 S
O87 C75 1.281 1_565 S
O88 Mn72 2.297 . S
O88 C75 1.236 . S
N89 Mn73 2.278 1_455 S
N89 C90 1.336 . S
N89 C94 1.314 . S
C90 N89 1.336 . S
C90 C91 1.457 . S
C90 H95 0.929 1_455 S
C91 C90 1.457 . S
C91 C92 1.291 . S
C91 H104 0.931 . S
C92 C91 1.291 . S
C92 C93 1.373 . S
C92 H105 0.929 . S
C93 C92 1.373 . S
C93 C94 1.396 . S
C93 C100 1.403 . S
C94 C84 1.476 . S
C94 N89 1.314 . S
C94 C93 1.396 . S
H95 C90 0.929 1_655 S
O96 Mn72 2.385 . S
O96 C74 1.234 . S
O97 Mn72 2.209 . S
O97 Mn73 2.215 1_455 S
O97 C74 1.283 . S
O98 Mn72 2.094 1_665 S
O98 C76 1.240 . S
O99 Mn73 2.117 1_565 S
O99 C76 1.264 . S
C100 C93 1.403 . S
C100 C101 1.399 . S
C100 H106 0.929 . S
C101 C81 1.449 . S
C101 C100 1.399 . S
C101 H107 0.930 . S
H102 C82 0.931 . S
H103 C83 0.929 1_655 S
H104 C91 0.931 . S
H105 C92 0.929 . S
H106 C100 0.929 . S
H107 C101 0.930 . S
H108 C135 0.929 . S
N109 C134 1.433 . S
N109 C140 1.435 . S
N109 C146 1.423 1_455 S
H110 C136 0.930 . S
H111 C139 0.931 . S
H112 C138 0.929 . S
H113 C141 0.930 . S
H114 C142 0.932 . S
H115 C145 0.929 . S
H116 C144 0.931 . S
H117 C147 0.929 . S
H118 C151 0.932 . S
H119 C148 0.931 . S
H120 C150 0.929 . S
H121 C153 0.929 . S
H122 C154 0.930 . S
H123 C156 0.929 . S
H124 C157 0.931 . S
H125 C159 0.930 . S
H126 C160 0.932 . S
H127 C162 0.931 . S
H128 C163 0.929 . S
H129 C165 0.929 . S
H130 C166 0.931 . S
H131 C168 0.929 . S
N132 C152 1.433 . S
N132 C158 1.435 . S
N132 C164 1.423 1_455 S
H133 C169 0.932 . S
C134 N109 1.433 . S
C134 C135 1.363 1_455 S
C134 C139 1.370 . S
C135 H108 0.929 . S
C135 C134 1.363 1_655 S
C135 C136 1.385 . S
C136 H110 0.930 . S
C136 C135 1.385 . S
C136 C137 1.357 1_655 S
C137 C136 1.357 1_455 S
C137 C138 1.406 . S
C138 H112 0.929 . S
C138 C137 1.406 . S
C138 C139 1.391 . S
C139 H111 0.931 . S
C139 C134 1.370 . S
C139 C138 1.391 . S
C140 N109 1.435 . S
C140 C141 1.358 . S
C140 C145 1.371 1_455 S
C141 H113 0.930 . S
C141 C140 1.358 . S
C141 C142 1.405 . S
C142 H114 0.932 . S
C142 C141 1.405 . S
C142 C143 1.383 . S
C143 C142 1.383 . S
C143 C144 1.393 1_455 S
C144 H116 0.931 . S
C144 C143 1.393 1_655 S
C144 C145 1.382 . S
C145 H115 0.929 . S
C145 C140 1.371 1_655 S
C145 C144 1.382 . S
C146 N109 1.423 1_655 S
C146 C147 1.362 . S
C146 C151 1.388 1_655 S
C147 H117 0.929 . S
C147 C146 1.362 . S
C147 C148 1.376 . S
C148 H119 0.931 . S
C148 C147 1.376 . S
C148 C149 1.396 . S
C149 C148 1.396 . S
C149 C150 1.348 1_655 S
C149 C167 1.472 . S
C150 H120 0.929 . S
C150 C149 1.348 1_455 S
C150 C151 1.443 . S
C151 H118 0.932 . S
C151 C146 1.388 1_455 S
C151 C150 1.443 . S
C152 N132 1.433 . S
C152 C153 1.363 1_455 S
C152 C157 1.370 . S
C153 H121 0.929 . S
C153 C152 1.363 1_655 S
C153 C154 1.385 . S
C154 H122 0.930 . S
C154 C153 1.385 . S
C154 C155 1.357 1_655 S
C155 C154 1.357 1_455 S
C155 C156 1.406 . S
C156 H123 0.929 . S
C156 C155 1.406 . S
C156 C157 1.391 . S
C157 H124 0.931 . S
C157 C152 1.370 . S
C157 C156 1.391 . S
C158 N132 1.435 . S
C158 C159 1.358 . S
C158 C163 1.371 1_455 S
C159 H125 0.930 . S
C159 C158 1.358 . S
C159 C160 1.405 . S
C160 H126 0.932 . S
C160 C159 1.405 . S
C160 C161 1.383 . S
C161 C160 1.383 . S
C161 C162 1.393 1_455 S
C162 H127 0.931 . S
C162 C161 1.393 1_655 S
C162 C163 1.382 . S
C163 H128 0.929 . S
C163 C158 1.371 1_655 S
C163 C162 1.382 . S
C164 N132 1.423 1_655 S
C164 C165 1.362 . S
C164 C169 1.388 1_655 S
C165 H129 0.929 . S
C165 C164 1.362 . S
C165 C166 1.376 . S
C166 H130 0.931 . S
C166 C165 1.376 . S
C166 C167 1.396 . S
C167 C149 1.472 . S
C167 C166 1.396 . S
C167 C168 1.348 1_655 S
C168 H131 0.929 . S
C168 C167 1.348 1_455 S
C168 C169 1.443 . S
C169 H133 0.932 . S
C169 C164 1.388 1_455 S
C169 C168 1.443 . S
H170 C197 0.929 . S
N171 C196 1.433 . S
N171 C202 1.435 . S
N171 C208 1.423 . S
H172 C198 0.930 . S
H173 C201 0.931 . S
H174 C200 0.929 . S
H175 C203 0.930 . S
H176 C204 0.932 . S
H177 C207 0.929 . S
H178 C206 0.931 . S
H179 C209 0.929 . S
H180 C213 0.932 . S
H181 C210 0.931 . S
H182 C212 0.929 . S
H183 C215 0.929 . S
H184 C216 0.930 . S
H185 C218 0.929 . S
H186 C219 0.931 . S
H187 C221 0.930 . S
H188 C222 0.932 . S
H189 C224 0.931 . S
H190 C225 0.929 . S
H191 C227 0.929 . S
H192 C228 0.931 . S
H193 C230 0.929 . S
N194 C214 1.433 . S
N194 C220 1.435 . S
N194 C226 1.423 . S
H195 C231 0.932 . S
C196 N171 1.433 . S
C196 C197 1.363 . S
C196 C201 1.370 . S
C197 H170 0.929 . S
C197 C196 1.363 . S
C197 C198 1.385 . S
C198 H172 0.930 . S
C198 C197 1.385 . S
C198 C199 1.357 . S
C199 C198 1.357 . S
C199 C200 1.406 . S
C200 H174 0.929 . S
C200 C199 1.406 . S
C200 C201 1.391 . S
C201 H173 0.931 . S
C201 C196 1.370 . S
C201 C200 1.391 . S
C202 N171 1.435 . S
C202 C203 1.358 . S
C202 C207 1.371 . S
C203 H175 0.930 . S
C203 C202 1.358 . S
C203 C204 1.405 . S
C204 H176 0.932 . S
C204 C203 1.405 . S
C204 C205 1.383 . S
C205 C204 1.383 . S
C205 C206 1.393 . S
C206 H178 0.931 . S
C206 C205 1.393 . S
C206 C207 1.382 . S
C207 H177 0.929 . S
C207 C202 1.371 . S
C207 C206 1.382 . S
C208 N171 1.423 . S
C208 C209 1.362 . S
C208 C213 1.388 . S
C209 H179 0.929 . S
C209 C208 1.362 . S
C209 C210 1.376 . S
C210 H181 0.931 . S
C210 C209 1.376 . S
C210 C211 1.396 . S
C211 C210 1.396 . S
C211 C212 1.348 . S
C211 C229 1.472 . S
C212 H182 0.929 . S
C212 C211 1.348 . S
C212 C213 1.443 . S
C213 H180 0.932 . S
C213 C208 1.388 . S
C213 C212 1.443 . S
C214 N194 1.433 . S
C214 C215 1.363 . S
C214 C219 1.370 . S
C215 H183 0.929 . S
C215 C214 1.363 . S
C215 C216 1.385 . S
C216 H184 0.930 . S
C216 C215 1.385 . S
C216 C217 1.357 . S
C217 C216 1.357 . S
C217 C218 1.406 . S
C218 H185 0.929 . S
C218 C217 1.406 . S
C218 C219 1.391 . S
C219 H186 0.931 . S
C219 C214 1.370 . S
C219 C218 1.391 . S
C220 N194 1.435 . S
C220 C221 1.358 . S
C220 C225 1.371 . S
C221 H187 0.930 . S
C221 C220 1.358 . S
C221 C222 1.405 . S
C222 H188 0.932 . S
C222 C221 1.405 . S
C222 C223 1.383 . S
C223 C222 1.383 . S
C223 C224 1.393 . S
C224 H189 0.931 . S
C224 C223 1.393 . S
C224 C225 1.382 . S
C225 H190 0.929 . S
C225 C220 1.371 . S
C225 C224 1.382 . S
C226 N194 1.423 . S
C226 C227 1.362 . S
C226 C231 1.388 . S
C227 H191 0.929 . S
C227 C226 1.362 . S
C227 C228 1.376 . S
C228 H192 0.931 . S
C228 C227 1.376 . S
C228 C229 1.396 . S
C229 C211 1.472 . S
C229 C228 1.396 . S
C229 C230 1.348 . S
C230 H193 0.929 . S
C230 C229 1.348 . S
C230 C231 1.443 . S
C231 H195 0.932 . S
C231 C226 1.388 . S
C231 C230 1.443 . S
H232 C259 0.929 . S
N233 C258 1.433 . S
N233 C264 1.435 . S
N233 C270 1.423 . S
H234 C260 0.930 . S
H235 C263 0.931 . S
H236 C262 0.929 . S
H237 C265 0.930 . S
H238 C266 0.932 . S
H239 C269 0.929 . S
H240 C268 0.931 . S
H241 C271 0.929 . S
H242 C275 0.932 . S
H243 C272 0.931 . S
H244 C274 0.929 . S
H245 C277 0.929 . S
H246 C278 0.930 . S
H247 C280 0.929 . S
H248 C281 0.931 . S
H249 C283 0.930 . S
H250 C284 0.932 . S
H251 C286 0.931 . S
H252 C287 0.929 . S
H253 C289 0.929 . S
H254 C290 0.931 . S
H255 C292 0.929 . S
N256 C276 1.433 . S
N256 C282 1.435 . S
N256 C288 1.423 . S
H257 C293 0.932 . S
C258 N233 1.433 . S
C258 C259 1.363 . S
C258 C263 1.370 . S
C259 H232 0.929 . S
C259 C258 1.363 . S
C259 C260 1.385 . S
C260 H234 0.930 . S
C260 C259 1.385 . S
C260 C261 1.357 . S
C261 C260 1.357 . S
C261 C262 1.406 . S
C262 H236 0.929 . S
C262 C261 1.406 . S
C262 C263 1.391 . S
C263 H235 0.931 . S
C263 C258 1.370 . S
C263 C262 1.391 . S
C264 N233 1.435 . S
C264 C265 1.358 . S
C264 C269 1.371 . S
C265 H237 0.930 . S
C265 C264 1.358 . S
C265 C266 1.405 . S
C266 H238 0.932 . S
C266 C265 1.405 . S
C266 C267 1.383 . S
C267 C266 1.383 . S
C267 C268 1.393 . S
C268 H240 0.931 . S
C268 C267 1.393 . S
C268 C269 1.382 . S
C269 H239 0.929 . S
C269 C264 1.371 . S
C269 C268 1.382 . S
C270 N233 1.423 . S
C270 C271 1.362 . S
C270 C275 1.388 . S
C271 H241 0.929 . S
C271 C270 1.362 . S
C271 C272 1.376 . S
C272 H243 0.931 . S
C272 C271 1.376 . S
C272 C273 1.396 . S
C273 C272 1.396 . S
C273 C274 1.348 . S
C273 C291 1.472 . S
C274 H244 0.929 . S
C274 C273 1.348 . S
C274 C275 1.443 . S
C275 H242 0.932 . S
C275 C270 1.388 . S
C275 C274 1.443 . S
C276 N256 1.433 . S
C276 C277 1.363 . S
C276 C281 1.370 . S
C277 H245 0.929 . S
C277 C276 1.363 . S
C277 C278 1.385 . S
C278 H246 0.930 . S
C278 C277 1.385 . S
C278 C279 1.357 . S
C279 C278 1.357 . S
C279 C280 1.406 . S
C280 H247 0.929 . S
C280 C279 1.406 . S
C280 C281 1.391 . S
C281 H248 0.931 . S
C281 C276 1.370 . S
C281 C280 1.391 . S
C282 N256 1.435 . S
C282 C283 1.358 . S
C282 C287 1.371 . S
C283 H249 0.930 . S
C283 C282 1.358 . S
C283 C284 1.405 . S
C284 H250 0.932 . S
C284 C283 1.405 . S
C284 C285 1.383 . S
C285 C284 1.383 . S
C285 C286 1.393 . S
C286 H251 0.931 . S
C286 C285 1.393 . S
C286 C287 1.382 . S
C287 H252 0.929 . S
C287 C282 1.371 . S
C287 C286 1.382 . S
C288 N256 1.423 . S
C288 C289 1.362 . S
C288 C293 1.388 . S
C289 H253 0.929 . S
C289 C288 1.362 . S
C289 C290 1.376 . S
C290 H254 0.931 . S
C290 C289 1.376 . S
C290 C291 1.396 . S
C291 C273 1.472 . S
C291 C290 1.396 . S
C291 C292 1.348 . S
C292 H255 0.929 . S
C292 C291 1.348 . S
C292 C293 1.443 . S
C293 H257 0.932 . S
C293 C288 1.388 . S
C293 C292 1.443 . S
C294 C295 1.386 . S
C294 C296 1.383 . S
C294 H310 0.951 . S
C295 C294 1.386 . S
C295 C299 1.383 1_455 S
C296 C294 1.383 . S
C296 C297 1.402 . S
C296 H311 0.951 . S
C297 C296 1.402 . S
C297 C298 1.375 1_455 S
C297 C300 1.481 . S
C298 C297 1.375 1_655 S
C298 C299 1.367 . S
C298 H312 0.951 . S
C299 C295 1.383 1_655 S
C299 C298 1.367 . S
C299 H313 0.950 . S
C300 C297 1.481 . S
C300 C301 1.297 . S
C300 H314 0.950 1_455 S
C301 C300 1.297 . S
C301 C302 1.479 . S
C301 H315 0.950 . S
C302 C301 1.479 . S
C302 C303 1.375 . S
C302 C308 1.404 . S
C303 C302 1.375 . S
C303 C304 1.369 . S
C303 H316 0.950 . S
C304 C303 1.369 . S
C304 C305 1.392 . S
C304 H317 0.951 . S
C305 C304 1.392 . S
C305 C307 1.384 . S
H306 C308 0.949 1_655 S
C307 C305 1.384 . S
C307 C308 1.385 . S
C307 H309 0.950 1_455 S
C308 C302 1.404 . S
C308 H306 0.949 1_455 S
C308 C307 1.385 . S
H309 C307 0.950 1_655 S
H310 C294 0.951 . S
H311 C296 0.951 . S
H312 C298 0.951 . S
H313 C299 0.950 . S
H314 C300 0.950 1_655 S
H315 C301 0.950 . S
H316 C303 0.950 . S
H317 C304 0.951 . S
C318 C319 1.386 1_565 S
C318 C320 1.383 . S
C318 H334 0.951 . S
C319 C318 1.386 1_545 S
C319 C323 1.383 . S
C320 C318 1.383 . S
C320 C321 1.402 1_565 S
C320 H335 0.951 . S
C321 C320 1.402 1_545 S
C321 C322 1.375 . S
C321 C324 1.481 . S
C322 C321 1.375 . S
C322 C323 1.367 . S
C322 H336 0.951 . S
C323 C319 1.383 . S
C323 C322 1.367 . S
C323 H337 0.950 . S
C324 C321 1.481 . S
C324 C325 1.297 . S
C324 H338 0.950 . S
C325 C324 1.297 . S
C325 C326 1.479 . S
C325 H339 0.950 1_545 S
C326 C325 1.479 . S
C326 C327 1.375 1_545 S
C326 C332 1.404 . S
C327 C326 1.375 1_565 S
C327 C328 1.369 1_565 S
C327 H340 0.950 . S
C328 C327 1.369 1_545 S
C328 C329 1.392 . S
C328 H341 0.951 1_545 S
C329 C328 1.392 . S
C329 C331 1.384 . S
H330 C332 0.949 . S
C331 C329 1.384 . S
C331 C332 1.385 . S
C331 H333 0.950 . S
C332 C326 1.404 . S
C332 H330 0.949 . S
C332 C331 1.385 . S
H333 C331 0.950 . S
H334 C318 0.951 . S
H335 C320 0.951 . S
H336 C322 0.951 . S
H337 C323 0.950 . S
H338 C324 0.950 . S
H339 C325 0.950 1_565 S
H340 C327 0.950 . S
H341 C328 0.951 1_565 S
C342 C343 1.386 . S
C342 C344 1.383 . S
C342 H358 0.951 . S
C343 C342 1.386 . S
C343 C347 1.383 . S
C344 C342 1.383 . S
C344 C345 1.402 . S
C344 H359 0.951 . S
C345 C344 1.402 . S
C345 C346 1.375 . S
C345 C348 1.481 . S
C346 C345 1.375 . S
C346 C347 1.367 . S
C346 H360 0.951 . S
C347 C343 1.383 . S
C347 C346 1.367 . S
C347 H361 0.950 . S
C348 C345 1.481 . S
C348 C349 1.297 . S
C348 H362 0.950 . S
C349 C348 1.297 . S
C349 C350 1.479 . S
C349 H363 0.950 . S
C350 C349 1.479 . S
C350 C351 1.375 . S
C350 C356 1.404 . S
C351 C350 1.375 . S
C351 C352 1.369 . S
C351 H364 0.950 . S
C352 C351 1.369 . S
C352 C353 1.392 . S
C352 H365 0.951 . S
C353 C352 1.392 . S
C353 C355 1.384 . S
H354 C356 0.949 . S
C355 C353 1.384 . S
C355 C356 1.385 . S
C355 H357 0.950 . S
C356 C350 1.404 . S
C356 H354 0.949 . S
C356 C355 1.385 . S
H357 C355 0.950 . S
H358 C342 0.951 . S
H359 C344 0.951 . S
H360 C346 0.951 . S
H361 C347 0.950 . S
H362 C348 0.950 . S
H363 C349 0.950 . S
H364 C351 0.950 . S
H365 C352 0.951 . S
C366 C367 1.386 . S
C366 C368 1.383 . S
C366 H382 0.951 . S
C367 C366 1.386 . S
C367 C371 1.383 . S
C368 C366 1.383 . S
C368 C369 1.402 . S
C368 H383 0.951 . S
C369 C368 1.402 . S
C369 C370 1.375 . S
C369 C372 1.481 . S
C370 C369 1.375 . S
C370 C371 1.367 . S
C370 H384 0.951 . S
C371 C367 1.383 . S
C371 C370 1.367 . S
C371 H385 0.950 . S
C372 C369 1.481 . S
C372 C373 1.297 . S
C372 H386 0.950 . S
C373 C372 1.297 . S
C373 C374 1.479 . S
C373 H387 0.950 . S
C374 C373 1.479 . S
C374 C375 1.375 . S
C374 C380 1.404 . S
C375 C374 1.375 . S
C375 C376 1.369 . S
C375 H388 0.950 . S
C376 C375 1.369 . S
C376 C377 1.392 . S
C376 H389 0.951 . S
C377 C376 1.392 . S
C377 C379 1.384 . S
H378 C380 0.949 . S
C379 C377 1.384 . S
C379 C380 1.385 . S
C379 H381 0.950 . S
C380 C374 1.404 . S
C380 H378 0.949 . S
C380 C379 1.385 . S
H381 C379 0.950 . S
H382 C366 0.951 . S
H383 C368 0.951 . S
H384 C370 0.951 . S
H385 C371 0.950 . S
H386 C372 0.950 . S
H387 C373 0.950 . S
H388 C375 0.950 . S
H389 C376 0.951 . S
C390 C391 1.386 . S
C390 C392 1.383 . S
C390 H406 0.951 . S
C391 C390 1.386 . S
C391 C395 1.383 1_545 S
C392 C390 1.383 . S
C392 C393 1.402 . S
C392 H407 0.951 . S
C393 C392 1.402 . S
C393 C394 1.375 1_545 S
C393 C396 1.481 . S
C394 C393 1.375 1_565 S
C394 C395 1.367 . S
C394 H408 0.951 . S
C395 C391 1.383 1_565 S
C395 C394 1.367 . S
C395 H409 0.950 . S
C396 C393 1.481 . S
C396 C397 1.297 . S
C396 H410 0.951 1_545 S
C397 C396 1.297 . S
C397 C398 1.479 . S
C397 H411 0.950 . S
C398 C397 1.479 . S
C398 C399 1.375 . S
C398 C404 1.404 . S
C399 C398 1.375 . S
C399 C400 1.369 . S
C399 H412 0.950 . S
C400 C399 1.369 . S
C400 C401 1.392 . S
C400 H413 0.951 . S
C401 C400 1.392 . S
C401 C403 1.384 . S
H402 C404 0.949 1_565 S
C403 C401 1.384 . S
C403 C404 1.385 . S
C403 H405 0.950 1_545 S
C404 C398 1.404 . S
C404 H402 0.949 1_545 S
C404 C403 1.385 . S
H405 C403 0.950 1_565 S
H406 C390 0.951 . S
H407 C392 0.951 . S
H408 C394 0.951 . S
H409 C395 0.950 . S
H410 C396 0.951 1_565 S
H411 C397 0.950 . S
H412 C399 0.950 . S
H413 C400 0.951 . S
C414 C415 1.386 . S
C414 C416 1.383 . S
C414 H430 0.951 . S
C415 C414 1.386 . S
C415 C419 1.383 . S
C416 C414 1.383 . S
C416 C417 1.402 . S
C416 H431 0.951 . S
C417 C416 1.402 . S
C417 C418 1.375 . S
C417 C420 1.481 . S
C418 C417 1.375 . S
C418 C419 1.367 . S
C418 H432 0.951 . S
C419 C415 1.383 . S
C419 C418 1.367 . S
C419 H433 0.950 . S
C420 C417 1.481 . S
C420 C421 1.297 . S
C420 H434 0.950 . S
C421 C420 1.297 . S
C421 C422 1.479 . S
C421 H435 0.950 . S
C422 C421 1.479 . S
C422 C423 1.375 . S
C422 C428 1.404 . S
C423 C422 1.375 . S
C423 C424 1.369 . S
C423 H436 0.950 . S
C424 C423 1.369 . S
C424 C425 1.392 . S
C424 H437 0.951 . S
C425 C424 1.392 . S
C425 C427 1.384 . S
H426 C428 0.949 . S
C427 C425 1.384 . S
C427 C428 1.385 . S
C427 H429 0.950 . S
C428 C422 1.404 . S
C428 H426 0.949 . S
C428 C427 1.385 . S
H429 C427 0.950 . S
H430 C414 0.951 . S
H431 C416 0.951 . S
H432 C418 0.951 . S
H433 C419 0.950 . S
H434 C420 0.950 . S
H435 C421 0.950 . S
H436 C423 0.950 . S
H437 C424 0.951 . S
C438 C439 1.386 . S
C438 C440 1.383 . S
C438 H454 0.951 . S
C439 C438 1.386 . S
C439 C443 1.383 1_545 S
C440 C438 1.383 . S
C440 C441 1.402 . S
C440 H455 0.951 . S
C441 C440 1.402 . S
C441 C442 1.375 1_545 S
C441 C444 1.481 . S
C442 C441 1.375 1_565 S
C442 C443 1.367 . S
C442 H456 0.951 . S
C443 C439 1.383 1_565 S
C443 C442 1.367 . S
C443 H457 0.950 . S
C444 C441 1.481 . S
C444 C445 1.297 . S
C444 H458 0.950 1_545 S
C445 C444 1.297 . S
C445 C446 1.479 . S
C445 H459 0.950 . S
C446 C445 1.479 . S
C446 C447 1.375 . S
C446 C452 1.404 . S
C447 C446 1.375 . S
C447 C448 1.369 . S
C447 H460 0.950 . S
C448 C447 1.369 . S
C448 C449 1.392 . S
C448 H461 0.951 . S
C449 C448 1.392 . S
C449 C451 1.384 . S
H450 C452 0.949 1_565 S
C451 C449 1.384 . S
C451 C452 1.385 . S
C451 H453 0.950 1_545 S
C452 C446 1.404 . S
C452 H450 0.949 1_545 S
C452 C451 1.385 . S
H453 C451 0.950 1_565 S
H454 C438 0.951 . S
H455 C440 0.951 . S
H456 C442 0.951 . S
H457 C443 0.950 . S
H458 C444 0.950 1_565 S
H459 C445 0.950 . S
H460 C447 0.950 . S
H461 C448 0.951 . S
C462 C463 1.386 1_556 S
C462 C464 1.383 . S
C462 H478 0.951 . S
C463 C462 1.386 1_554 S
C463 C467 1.383 . S
C464 C462 1.383 . S
C464 C465 1.402 . S
C464 H479 0.951 . S
C465 C464 1.402 . S
C465 C466 1.375 1_556 S
C465 C468 1.481 . S
C466 C465 1.375 1_554 S
C466 C467 1.367 . S
C466 H480 0.951 . S
C467 C463 1.383 . S
C467 C466 1.367 . S
C467 H481 0.950 . S
C468 C465 1.481 . S
C468 C469 1.297 . S
C468 H482 0.950 . S
C469 C468 1.297 . S
C469 C470 1.479 . S
C469 H483 0.950 . S
C470 C469 1.479 . S
C470 C471 1.375 . S
C470 C476 1.404 . S
C471 C470 1.375 . S
C471 C472 1.369 . S
C471 H484 0.950 . S
C472 C471 1.369 . S
C472 C473 1.392 . S
C472 H485 0.951 . S
C473 C472 1.392 . S
C473 C475 1.384 . S
H474 C476 0.949 . S
C475 C473 1.384 . S
C475 C476 1.385 . S
C475 H477 0.950 . S
C476 C470 1.404 . S
C476 H474 0.949 . S
C476 C475 1.385 . S
H477 C475 0.950 . S
H478 C462 0.951 . S
H479 C464 0.951 . S
H480 C466 0.951 . S
H481 C467 0.950 . S
H482 C468 0.950 . S
H483 C469 0.950 . S
H484 C471 0.950 . S
H485 C472 0.951 . S
C486 C487 1.386 1_655 S
C486 C488 1.383 . S
C486 H502 0.951 . S
C487 C486 1.386 1_455 S
C487 C491 1.383 . S
C488 C486 1.383 . S
C488 C489 1.402 1_655 S
C488 H503 0.951 . S
C489 C488 1.402 1_455 S
C489 C490 1.375 . S
C489 C492 1.481 . S
C490 C489 1.375 . S
C490 C491 1.367 . S
C490 H504 0.951 . S
C491 C487 1.383 . S
C491 C490 1.367 . S
C491 H505 0.950 . S
C492 C489 1.481 . S
C492 C493 1.297 . S
C492 H506 0.950 . S
C493 C492 1.297 . S
C493 C494 1.479 . S
C493 H507 0.950 1_455 S
C494 C493 1.479 . S
C494 C495 1.375 1_455 S
C494 C500 1.404 . S
C495 C494 1.375 1_655 S
C495 C496 1.369 . S
C495 H508 0.950 . S
C496 C495 1.369 . S
C496 C497 1.392 1_655 S
C496 H509 0.951 . S
C497 C496 1.392 1_455 S
C497 C499 1.384 . S
H498 C500 0.949 . S
C499 C497 1.384 . S
C499 C500 1.385 . S
C499 H501 0.950 . S
C500 C494 1.404 . S
C500 H498 0.949 . S
C500 C499 1.385 . S
H501 C499 0.950 . S
H502 C486 0.951 . S
H503 C488 0.951 . S
H504 C490 0.951 . S
H505 C491 0.950 . S
H506 C492 0.950 . S
H507 C493 0.950 1_655 S
H508 C495 0.950 . S
H509 C496 0.951 . S
C510 C511 1.386 . S
C510 C512 1.383 . S
C510 H526 0.951 . S
C511 C510 1.386 . S
C511 C515 1.383 1_545 S
C512 C510 1.383 . S
C512 C513 1.402 . S
C512 H527 0.951 . S
C513 C512 1.402 . S
C513 C514 1.375 1_545 S
C513 C516 1.481 . S
C514 C513 1.375 1_565 S
C514 C515 1.367 . S
C514 H528 0.951 . S
C515 C511 1.383 1_565 S
C515 C514 1.367 . S
C515 H529 0.950 . S
C516 C513 1.481 . S
C516 C517 1.297 . S
C516 H530 0.950 1_545 S
C517 C516 1.297 . S
C517 C518 1.479 . S
C517 H531 0.950 . S
C518 C517 1.479 . S
C518 C519 1.375 . S
C518 C524 1.404 . S
C519 C518 1.375 . S
C519 C520 1.369 . S
C519 H532 0.950 . S
C520 C519 1.369 . S
C520 C521 1.392 . S
C520 H533 0.951 . S
C521 C520 1.392 . S
C521 C523 1.384 . S
H522 C524 0.949 1_565 S
C523 C521 1.384 . S
C523 C524 1.385 . S
C523 H525 0.950 1_545 S
C524 C518 1.404 . S
C524 H522 0.949 1_545 S
C524 C523 1.385 . S
H525 C523 0.950 1_565 S
H526 C510 0.951 . S
H527 C512 0.951 . S
H528 C514 0.951 . S
H529 C515 0.950 . S
H530 C516 0.950 1_565 S
H531 C517 0.950 . S
H532 C519 0.950 . S
H533 C520 0.951 . S
C534 C535 1.386 1_556 S
C534 C536 1.383 . S
C534 H550 0.951 . S
C535 C534 1.386 1_554 S
C535 C539 1.383 . S
C536 C534 1.383 . S
C536 C537 1.402 . S
C536 H551 0.951 . S
C537 C536 1.402 . S
C537 C538 1.375 1_556 S
C537 C540 1.481 . S
C538 C537 1.375 1_554 S
C538 C539 1.367 . S
C538 H552 0.951 . S
C539 C535 1.383 . S
C539 C538 1.367 . S
C539 H553 0.950 . S
C540 C537 1.481 . S
C540 C541 1.297 . S
C540 H554 0.950 . S
C541 C540 1.297 . S
C541 C542 1.479 . S
C541 H555 0.950 . S
C542 C541 1.479 . S
C542 C543 1.375 . S
C542 C548 1.404 . S
C543 C542 1.375 . S
C543 C544 1.369 . S
C543 H556 0.950 . S
C544 C543 1.369 . S
C544 C545 1.392 . S
C544 H557 0.951 . S
C545 C544 1.392 . S
C545 C547 1.384 . S
H546 C548 0.949 . S
C547 C545 1.384 . S
C547 C548 1.385 . S
C547 H549 0.950 . S
C548 C542 1.404 . S
C548 H546 0.949 . S
C548 C547 1.385 . S
H549 C547 0.950 . S
H550 C534 0.951 . S
H551 C536 0.951 . S
H552 C538 0.951 . S
H553 C539 0.950 . S
H554 C540 0.950 . S
H555 C541 0.950 . S
H556 C543 0.950 . S
H557 C544 0.951 . S
C558 C559 1.386 1_655 S
C558 C560 1.383 1_655 S
C558 H574 0.951 . S
C559 C558 1.386 1_455 S
C559 C563 1.383 . S
C560 C558 1.383 1_455 S
C560 C561 1.402 . S
C560 H575 0.951 1_455 S
C561 C560 1.402 . S
C561 C562 1.375 . S
C561 C564 1.481 . S
C562 C561 1.375 . S
C562 C563 1.367 . S
C562 H576 0.951 . S
C563 C559 1.383 . S
C563 C562 1.367 . S
C563 H577 0.950 . S
C564 C561 1.481 . S
C564 C565 1.297 . S
C564 H578 0.950 . S
C565 C564 1.297 . S
C565 C566 1.479 . S
C565 H579 0.950 . S
C566 C565 1.479 . S
C566 C567 1.375 1_455 S
C566 C572 1.404 . S
C567 C566 1.375 1_655 S
C567 C568 1.369 . S
C567 H580 0.950 . S
C568 C567 1.369 . S
C568 C569 1.392 1_655 S
C568 H581 0.951 . S
C569 C568 1.392 1_455 S
C569 C571 1.384 . S
H570 C572 0.949 . S
C571 C569 1.384 . S
C571 C572 1.385 . S
C571 H573 0.950 . S
C572 C566 1.404 . S
C572 H570 0.949 . S
C572 C571 1.385 . S
H573 C571 0.950 . S
H574 C558 0.951 . S
H575 C560 0.951 1_655 S
H576 C562 0.951 . S
H577 C563 0.950 . S
H578 C564 0.950 . S
H579 C565 0.950 . S
H580 C567 0.950 . S
H581 C568 0.951 . S
C305 C161 1.370 . S
C295 C14 1.297 . S
C319 C40 1.375 . S
C329 C205 1.367 . S
C343 C76 1.377 . S
C353 C267 1.379 . S
C367 C3 1.357 . S
C377 C143 1.353 . S
C401 C223 1.356 . S
C391 C38 1.368 . S
C415 C74 1.351 . S
C425 C285 1.359 . S
C449 C199 1.516 . S
C439 C86 1.624 . S
C463 C2 1.684 . S
C473 C261 1.632 . S
C497 C137 1.544 . S
C487 C39 1.697 . S
C521 C217 1.640 . S
C511 C75 1.690 . S
C545 C279 1.609 . S
C535 C4 1.695 . S
C559 C50 1.623 . S
C569 C155 1.638 . S
