# Generated by pormake.
# Topology ant, (3,6)-cn, num edge types: 1
# Building blocks:
#     Node 0, Type 0, BuildingBlock: BELTOD_clean_linker_0, # of connection points: 3
#     Node 1, Type 0, BuildingBlock: BELTOD_clean_linker_0, # of connection points: 3
#     Node 2, Type 0, BuildingBlock: BELTOD_clean_linker_0, # of connection points: 3
#     Node 3, Type 0, BuildingBlock: BELTOD_clean_linker_0, # of connection points: 3
#     Node 4, Type 0, BuildingBlock: BELTOD_clean_linker_0, # of connection points: 3
#     Node 5, Type 0, BuildingBlock: BELTOD_clean_linker_0, # of connection points: 3
#     Node 6, Type 0, BuildingBlock: BELTOD_clean_linker_0, # of connection points: 3
#     Node 7, Type 0, BuildingBlock: BELTOD_clean_linker_0, # of connection points: 3
#     Node 8, Type 1, BuildingBlock: MIDCAF_clean_sbu_0, # of connection points: 6
#     Node 9, Type 1, BuildingBlock: MIDCAF_clean_sbu_0, # of connection points: 6
#     Node 10, Type 1, BuildingBlock: MIDCAF_clean_sbu_0, # of connection points: 6
#     Node 11, Type 1, BuildingBlock: MIDCAF_clean_sbu_0, # of connection points: 6
#     Edge 12, Type (0, 1), BuildingBlock: MIFKUJ_clean_linker_0, # of connection points: 2
#     Edge 13, Type (0, 1), BuildingBlock: MIFKUJ_clean_linker_0, # of connection points: 2
#     Edge 14, Type (0, 1), BuildingBlock: MIFKUJ_clean_linker_0, # of connection points: 2
#     Edge 15, Type (0, 1), BuildingBlock: MIFKUJ_clean_linker_0, # of connection points: 2
#     Edge 16, Type (0, 1), BuildingBlock: MIFKUJ_clean_linker_0, # of connection points: 2
#     Edge 17, Type (0, 1), BuildingBlock: MIFKUJ_clean_linker_0, # of connection points: 2
#     Edge 18, Type (0, 1), BuildingBlock: MIFKUJ_clean_linker_0, # of connection points: 2
#     Edge 19, Type (0, 1), BuildingBlock: MIFKUJ_clean_linker_0, # of connection points: 2
#     Edge 20, Type (0, 1), BuildingBlock: MIFKUJ_clean_linker_0, # of connection points: 2
#     Edge 21, Type (0, 1), BuildingBlock: MIFKUJ_clean_linker_0, # of connection points: 2
#     Edge 22, Type (0, 1), BuildingBlock: MIFKUJ_clean_linker_0, # of connection points: 2
#     Edge 23, Type (0, 1), BuildingBlock: MIFKUJ_clean_linker_0, # of connection points: 2
#     Edge 24, Type (0, 1), BuildingBlock: MIFKUJ_clean_linker_0, # of connection points: 2
#     Edge 25, Type (0, 1), BuildingBlock: MIFKUJ_clean_linker_0, # of connection points: 2
#     Edge 26, Type (0, 1), BuildingBlock: MIFKUJ_clean_linker_0, # of connection points: 2
#     Edge 27, Type (0, 1), BuildingBlock: MIFKUJ_clean_linker_0, # of connection points: 2
#     Edge 28, Type (0, 1), BuildingBlock: MIFKUJ_clean_linker_0, # of connection points: 2
#     Edge 29, Type (0, 1), BuildingBlock: MIFKUJ_clean_linker_0, # of connection points: 2
#     Edge 30, Type (0, 1), BuildingBlock: MIFKUJ_clean_linker_0, # of connection points: 2
#     Edge 31, Type (0, 1), BuildingBlock: MIFKUJ_clean_linker_0, # of connection points: 2
#     Edge 32, Type (0, 1), BuildingBlock: MIFKUJ_clean_linker_0, # of connection points: 2
#     Edge 33, Type (0, 1), BuildingBlock: MIFKUJ_clean_linker_0, # of connection points: 2
#     Edge 34, Type (0, 1), BuildingBlock: MIFKUJ_clean_linker_0, # of connection points: 2
#     Edge 35, Type (0, 1), BuildingBlock: MIFKUJ_clean_linker_0, # of connection points: 2
# Relax obj value: 0.095
# Max RMSD: 0.155
# Mean RMSD: 0.097
data_MOF--net-ant--node1-MIDCAF_clean_sbu_0--node2-BELTOD_clean_linker_0--edge1-MIFKUJ_clean_linker_0
_symmetry_space_group_name_H-M    P1
_symmetry_Int_Tables_number       1
_symmetry_cell_setting            triclinic
loop_
_symmetry_equiv_pos_as_xyz
'x, y, z'
_cell_length_a     40.436692
_cell_length_b     40.253163
_cell_length_c     108.03457
_cell_angle_alpha  90.533017
_cell_angle_beta   93.375764
_cell_angle_gamma 89.942384
loop_
_atom_site_label
_atom_site_type_symbol
_atom_site_fract_x
_atom_site_fract_y
_atom_site_fract_z
_atom_type_partial_charge
P0 P 0.27207 0.21706 0.0622 0.0
H1 H 0.27674 0.25573 0.08505 0.0
H2 H 0.25615 0.31079 0.09054 0.0
H3 H 0.20307 0.3168 0.05474 0.0
H4 H 0.22341 0.26168 0.04937 0.0
H5 H 0.31665 0.1639 0.07052 0.0
H6 H 0.30868 0.11401 0.08269 0.0
H7 H 0.20882 0.14537 0.08896 0.0
H8 H 0.21711 0.1956 0.07681 0.0
H9 H 0.29354 0.23249 0.03765 0.0
H10 H 0.21749 0.17318 0.053 0.0
O11 O 0.31233 0.22591 0.0619 0.0
H12 H 0.27364 0.21573 0.01679 0.0
H13 H 0.19795 0.15548 0.03215 0.0
C14 C 0.25158 0.25453 0.06685 0.0
C15 C 0.26014 0.26864 0.07849 0.0
C16 C 0.24858 0.30022 0.08156 0.0
C17 C 0.22825 0.31832 0.07302 0.0
C18 C 0.2185 0.30344 0.06155 0.0
C19 C 0.23022 0.27187 0.05847 0.0
C20 C 0.2676 0.18361 0.0729 0.0
C21 C 0.29332 0.1605 0.07477 0.0
C22 C 0.28877 0.132 0.08175 0.0
C23 C 0.25815 0.12582 0.08678 0.0
C24 C 0.23265 0.14948 0.08515 0.0
C25 C 0.2374 0.17823 0.07829 0.0
C26 C 0.2575 0.20354 0.04689 0.0
C27 C 0.27287 0.21543 0.03654 0.0
C28 C 0.26155 0.20564 0.02461 0.0
C29 C 0.23448 0.18381 0.02278 0.0
C30 C 0.21883 0.1723 0.03321 0.0
C31 C 0.23016 0.18224 0.04516 0.0
P32 P 0.08298 0.73306 0.317 0.0
H33 H 0.1327 0.71307 0.33609 0.0
H34 H 0.18061 0.74095 0.34586 0.0
H35 H 0.1524 0.83162 0.32681 0.0
H36 H 0.10462 0.80269 0.31661 0.0
H37 H 0.01948 0.71327 0.30578 0.0
H38 H 0.96249 0.7257 0.31041 0.0
H39 H 0.9979 0.78933 0.34078 0.0
H40 H 0.05527 0.77673 0.33604 0.0
H41 H 0.12601 0.70031 0.30002 0.0
H42 H 0.05132 0.7769 0.29813 0.0
O43 O 0.08708 0.69276 0.32025 0.0
H44 H 0.12864 0.70167 0.27752 0.0
H45 H 0.05233 0.77716 0.27559 0.0
C46 C 0.11522 0.75577 0.32557 0.0
C47 C 0.13649 0.73905 0.3341 0.0
C48 C 0.16388 0.75523 0.3398 0.0
C49 C 0.17051 0.78869 0.33718 0.0
C50 C 0.14832 0.80577 0.32894 0.0
C51 C 0.12089 0.78938 0.32317 0.0
C52 C 0.04152 0.74448 0.32044 0.0
C53 C 0.015 0.73027 0.31333 0.0
C54 C 0.98244 0.73753 0.31595 0.0
C55 C 0.97573 0.75878 0.32587 0.0
C56 C 0.00239 0.7729 0.33306 0.0
C57 C 0.03513 0.76582 0.33034 0.0
C58 C 0.08774 0.73769 0.30067 0.0
C59 C 0.11014 0.71738 0.29474 0.0
C60 C 0.11137 0.71802 0.28186 0.0
C61 C 0.09005 0.7389 0.27468 0.0
C62 C 0.06906 0.76072 0.28078 0.0
C63 C 0.06821 0.76036 0.29369 0.0
P64 P 0.75904 0.72873 0.56118 0.0
H65 H 0.78445 0.78048 0.57823 0.0
H66 H 0.76288 0.83496 0.58393 0.0
H67 H 0.67092 0.81312 0.56308 0.0
H68 H 0.69255 0.75853 0.55751 0.0
H69 H 0.79926 0.66934 0.56244 0.0
H70 H 0.79679 0.61859 0.57434 0.0
H71 H 0.71823 0.66105 0.59497 0.0
H72 H 0.71988 0.71133 0.58243 0.0
H73 H 0.74616 0.76496 0.5383 0.0
H74 H 0.72602 0.66689 0.55184 0.0
O75 O 0.79808 0.73796 0.55835 0.0
H76 H 0.71817 0.75029 0.51829 0.0
H77 H 0.69871 0.65203 0.53179 0.0
C78 C 0.74041 0.76576 0.56724 0.0
C79 C 0.75945 0.78719 0.57506 0.0
C80 C 0.74704 0.81831 0.57833 0.0
C81 C 0.71533 0.82852 0.57381 0.0
C82 C 0.69564 0.80619 0.56652 0.0
C83 C 0.70797 0.77492 0.56336 0.0
C84 C 0.76008 0.69422 0.57167 0.0
C85 C 0.78191 0.66794 0.56968 0.0
C86 C 0.78053 0.63889 0.57658 0.0
C87 C 0.75738 0.63551 0.58572 0.0
C88 C 0.7361 0.66247 0.58792 0.0
C89 C 0.73723 0.69144 0.58086 0.0
C90 C 0.73821 0.71714 0.54658 0.0
C91 C 0.73577 0.7403 0.53697 0.0
C92 C 0.71971 0.73194 0.52557 0.0
C93 C 0.70628 0.70004 0.52353 0.0
C94 C 0.70906 0.67671 0.53312 0.0
C95 C 0.72468 0.68527 0.5446 0.0
P96 P 0.58566 0.23399 0.81995 0.0
H97 H 0.61302 0.24193 0.84541 0.0
H98 H 0.66411 0.26785 0.85418 0.0
H99 H 0.68226 0.30777 0.81825 0.0
H100 H 0.63146 0.28202 0.80957 0.0
H101 H 0.52183 0.21415 0.80899 0.0
H102 H 0.46527 0.23066 0.81245 0.0
H103 H 0.50157 0.29867 0.84135 0.0
H104 H 0.55857 0.28299 0.83737 0.0
H105 H 0.6137 0.18393 0.80368 0.0
H106 H 0.56385 0.27833 0.79985 0.0
O107 O 0.59018 0.19596 0.82582 0.0
H108 H 0.6149 0.17917 0.78114 0.0
H109 H 0.56555 0.27416 0.77731 0.0
C110 C 0.61862 0.25955 0.82681 0.0
C111 C 0.62761 0.25693 0.8395 0.0
C112 C 0.65673 0.27186 0.84451 0.0
C113 C 0.67739 0.28948 0.83686 0.0
C114 C 0.66706 0.29394 0.82433 0.0
C115 C 0.63789 0.27921 0.81936 0.0
C116 C 0.5444 0.24765 0.8228 0.0
C117 C 0.51767 0.2329 0.81599 0.0
C118 C 0.48524 0.24214 0.81807 0.0
C119 C 0.47872 0.2659 0.82723 0.0
C120 C 0.50567 0.28064 0.8341 0.0
C121 C 0.5383 0.27155 0.8319 0.0
C122 C 0.58826 0.23124 0.80339 0.0
C123 C 0.60311 0.20368 0.79798 0.0
C124 C 0.60393 0.20109 0.78509 0.0
C125 C 0.59008 0.22618 0.77741 0.0
C126 C 0.57582 0.2541 0.78293 0.0
C127 C 0.57501 0.25662 0.79581 0.0
P128 P 0.12753 0.73939 0.92484 0.0
H129 H 0.13676 0.68886 0.90577 0.0
H130 H 0.10117 0.64448 0.89729 0.0
H131 H 0.02006 0.68326 0.91738 0.0
H132 H 0.05616 0.72783 0.92592 0.0
H133 H 0.14638 0.79622 0.94049 0.0
H134 H 0.13482 0.8556 0.93893 0.0
H135 H 0.07355 0.8374 0.90541 0.0
H136 H 0.08467 0.77781 0.90724 0.0
H137 H 0.17459 0.69653 0.93884 0.0
H138 H 0.08566 0.75137 0.94552 0.0
O139 O 0.16484 0.73627 0.91909 0.0
H140 H 0.17849 0.67865 0.96047 0.0
H141 H 0.08884 0.73299 0.96703 0.0
C142 C 0.0991 0.71171 0.91646 0.0
C143 C 0.1111 0.68844 0.9081 0.0
C144 C 0.0906 0.66308 0.9032 0.0
C145 C 0.05771 0.66031 0.90664 0.0
C146 C 0.04531 0.68463 0.91459 0.0
C147 C 0.06586 0.71016 0.91944 0.0
C148 C 0.11574 0.78253 0.92415 0.0
C149 C 0.12994 0.80495 0.93294 0.0
C150 C 0.12359 0.83897 0.93196 0.0
C151 C 0.10323 0.85134 0.92205 0.0
C152 C 0.08887 0.82869 0.91328 0.0
C153 C 0.09525 0.79459 0.91429 0.0
C154 C 0.1303 0.72593 0.94069 0.0
C155 C 0.15593 0.70474 0.94497 0.0
C156 C 0.15794 0.69427 0.95731 0.0
C157 C 0.13415 0.70465 0.96552 0.0
C158 C 0.10795 0.72511 0.96103 0.0
C159 C 0.10602 0.73555 0.94872 0.0
P160 P 0.66308 0.84469 0.18206 0.0
H161 H 0.70476 0.85785 0.1615 0.0
H162 H 0.75568 0.83176 0.15507 0.0
H163 H 0.74361 0.75305 0.18134 0.0
H164 H 0.69265 0.77931 0.18772 0.0
H165 H 0.60485 0.88651 0.18181 0.0
H166 H 0.54814 0.87986 0.17311 0.0
H167 H 0.57445 0.7853 0.15721 0.0
H168 H 0.63158 0.79228 0.16597 0.0
H169 H 0.71277 0.85056 0.20252 0.0
H170 H 0.61201 0.81571 0.19722 0.0
O171 O 0.6735 0.8847 0.18137 0.0
H172 H 0.71274 0.83722 0.22461 0.0
H173 H 0.61181 0.80256 0.21922 0.0
C174 C 0.69532 0.82091 0.17525 0.0
C175 C 0.71268 0.83459 0.16568 0.0
C176 C 0.74178 0.81958 0.16199 0.0
C177 C 0.75401 0.7906 0.16784 0.0
C178 C 0.73519 0.77571 0.17683 0.0
C179 C 0.70595 0.79063 0.18044 0.0
C180 C 0.62251 0.84016 0.17437 0.0
C181 C 0.59857 0.86455 0.1763 0.0
C182 C 0.56608 0.86059 0.17141 0.0
C183 C 0.55675 0.83202 0.16449 0.0
C184 C 0.58097 0.80775 0.16238 0.0
C185 C 0.61359 0.81167 0.16739 0.0
C186 C 0.66234 0.83448 0.19825 0.0
C187 C 0.69065 0.8401 0.20612 0.0
C188 C 0.69067 0.8323 0.2187 0.0
C189 C 0.66221 0.81901 0.22365 0.0
C190 C 0.63395 0.81321 0.2157 0.0
C191 C 0.63407 0.8207 0.2031 0.0
P192 P 0.62791 0.23033 0.42707 0.0
H193 H 0.64311 0.1758 0.41045 0.0
H194 H 0.61 0.13086 0.40108 0.0
H195 H 0.52246 0.17237 0.41641 0.0
H196 H 0.55631 0.21738 0.42601 0.0
H197 H 0.63631 0.28865 0.44325 0.0
H198 H 0.62343 0.34735 0.44017 0.0
H199 H 0.57524 0.32377 0.40441 0.0
H200 H 0.58845 0.26497 0.40755 0.0
H201 H 0.6789 0.19198 0.44089 0.0
H202 H 0.58558 0.23822 0.44796 0.0
O203 O 0.66526 0.23021 0.42126 0.0
H204 H 0.68532 0.17444 0.46251 0.0
H205 H 0.59158 0.22042 0.46959 0.0
C206 C 0.60207 0.20024 0.41875 0.0
C207 C 0.6167 0.1757 0.41161 0.0
C208 C 0.59762 0.14999 0.4062 0.0
C209 C 0.56343 0.14808 0.40788 0.0
C210 C 0.54872 0.17303 0.41495 0.0
C211 C 0.56795 0.19888 0.42036 0.0
C212 C 0.61255 0.27227 0.42578 0.0
C213 C 0.62211 0.29593 0.4349 0.0
C214 C 0.61476 0.32956 0.43312 0.0
C215 C 0.59826 0.34027 0.42205 0.0
C216 C 0.58814 0.31636 0.41302 0.0
C217 C 0.59538 0.28268 0.41485 0.0
C218 C 0.63223 0.2172 0.44295 0.0
C219 C 0.65981 0.19842 0.44712 0.0
C220 C 0.66328 0.18809 0.45944 0.0
C221 C 0.63908 0.19625 0.46779 0.0
C222 C 0.61093 0.21424 0.46344 0.0
C223 C 0.60745 0.22442 0.4511 0.0
P224 P 0.17007 0.35283 0.68526 0.0
H225 H 0.20227 0.35479 0.66173 0.0
H226 H 0.25317 0.32868 0.65499 0.0
H227 H 0.25931 0.26971 0.68821 0.0
H228 H 0.20847 0.2951 0.69477 0.0
H229 H 0.11342 0.39694 0.68357 0.0
H230 H 0.05637 0.3905 0.6753 0.0
H231 H 0.0783 0.29041 0.66348 0.0
H232 H 0.13593 0.29746 0.67161 0.0
H233 H 0.21042 0.37743 0.70664 0.0
H234 H 0.12973 0.30855 0.69965 0.0
O235 O 0.1812 0.39239 0.68362 0.0
H236 H 0.21423 0.36178 0.72851 0.0
H237 H 0.13288 0.29328 0.7215 0.0
C238 C 0.20174 0.32737 0.67883 0.0
C239 C 0.21407 0.33557 0.66738 0.0
C240 C 0.24315 0.32067 0.66355 0.0
C241 C 0.26043 0.29758 0.67119 0.0
C242 C 0.24676 0.28782 0.68224 0.0
C243 C 0.21755 0.30237 0.68598 0.0
C244 C 0.12904 0.34793 0.67799 0.0
C245 C 0.1061 0.37376 0.67903 0.0
C246 C 0.07334 0.3699 0.67441 0.0
C247 C 0.0626 0.33989 0.66876 0.0
C248 C 0.0858 0.31401 0.66763 0.0
C249 C 0.11874 0.31796 0.67228 0.0
C250 C 0.1693 0.34472 0.7016 0.0
C251 C 0.19302 0.3595 0.70988 0.0
C252 C 0.19522 0.35048 0.72237 0.0
C253 C 0.17392 0.32623 0.72675 0.0
C254 C 0.14994 0.31175 0.7184 0.0
C255 C 0.14779 0.32079 0.70593 0.0
Zn256 Zn 0.18883 0.68756 0.1348 0.0
Zn257 Zn 0.109 0.75876 0.10527 0.0
Zn258 Zn 0.15043 0.72453 0.11988 0.0
C259 C 0.12277 0.70103 0.09235 0.0
C260 C 0.16691 0.79703 0.10951 0.0
O261 O 0.12557 0.7167 0.13725 0.0
O262 O 0.15761 0.68138 0.14801 0.0
C263 C 0.17961 0.65124 0.11308 0.0
O264 O 0.14206 0.69682 0.10214 0.0
O265 O 0.10365 0.72584 0.09158 0.0
O266 O 0.13953 0.79657 0.10325 0.0
O267 O 0.17543 0.77234 0.11651 0.0
O268 O 0.19636 0.6504 0.1233 0.0
O269 O 0.1608 0.67637 0.11038 0.0
O270 O 0.19715 0.75273 0.12405 0.0
O271 O 0.2246 0.72074 0.13772 0.0
C272 C 0.22268 0.74702 0.13145 0.0
O273 O 0.10269 0.73304 0.12908 0.0
O274 O 0.0723 0.76503 0.11635 0.0
C275 C 0.13179 0.69901 0.147 0.0
C276 C 0.07581 0.74951 0.12643 0.0
Zn277 Zn 0.53755 0.71215 0.36082 0.0
Zn278 Zn 0.60845 0.78925 0.38723 0.0
Zn279 Zn 0.5749 0.75083 0.3741 0.0
C280 C 0.55795 0.82771 0.37851 0.0
C281 C 0.64986 0.76886 0.36973 0.0
O282 O 0.57268 0.70217 0.3838 0.0
O283 O 0.55275 0.66984 0.36848 0.0
C284 C 0.49661 0.76112 0.36887 0.0
O285 O 0.54671 0.79813 0.37635 0.0
O286 O 0.58787 0.83185 0.38213 0.0
O287 O 0.65205 0.77888 0.38084 0.0
O288 O 0.62146 0.76016 0.36467 0.0
O289 O 0.4943 0.73121 0.36532 0.0
O290 O 0.52531 0.77414 0.37147 0.0
O291 O 0.59812 0.74558 0.3562 0.0
O292 O 0.55553 0.72522 0.34478 0.0
C293 C 0.58445 0.73717 0.34557 0.0
O294 O 0.5865 0.72608 0.39208 0.0
O295 O 0.59856 0.77064 0.40352 0.0
C296 C 0.56544 0.67301 0.37938 0.0
C297 C 0.59279 0.73987 0.40277 0.0
Zn298 Zn 0.61429 0.26426 0.60769 0.0
Zn299 Zn 0.70027 0.19442 0.63573 0.0
Zn300 Zn 0.65825 0.23316 0.62215 0.0
C301 C 0.73173 0.256 0.63204 0.0
C302 C 0.68614 0.15919 0.6142 0.0
O303 O 0.6103 0.23747 0.63163 0.0
O304 O 0.5746 0.25504 0.61679 0.0
C305 C 0.66596 0.30922 0.61524 0.0
O306 O 0.70384 0.26317 0.62628 0.0
O307 O 0.73649 0.22779 0.63684 0.0
O308 O 0.70387 0.15655 0.62415 0.0
O309 O 0.66857 0.1856 0.61212 0.0
O310 O 0.63684 0.30802 0.61031 0.0
O311 O 0.67995 0.28271 0.61962 0.0
O312 O 0.65254 0.20762 0.60387 0.0
O313 O 0.61911 0.23926 0.59208 0.0
C314 C 0.63757 0.21407 0.59329 0.0
O315 O 0.63511 0.22285 0.63963 0.0
O316 O 0.6711 0.18995 0.64982 0.0
C317 C 0.58042 0.24479 0.62769 0.0
C318 C 0.644 0.20564 0.64926 0.0
Zn319 Zn 0.05423 0.22251 0.86083 0.0
Zn320 Zn 0.12343 0.30213 0.89214 0.0
Zn321 Zn 0.0875 0.26268 0.87657 0.0
C322 C 0.12201 0.2392 0.90275 0.0
C323 C 0.06055 0.33037 0.88911 0.0
O324 O 0.11274 0.26008 0.85894 0.0
O325 O 0.08653 0.22095 0.84769 0.0
C326 C 0.06701 0.18599 0.88214 0.0
O327 O 0.10232 0.23332 0.89318 0.0
O328 O 0.1358 0.26715 0.90431 0.0
O329 O 0.08719 0.33323 0.89573 0.0
O330 O 0.05665 0.30633 0.8812 0.0
O331 O 0.05027 0.18392 0.87192 0.0
O332 O 0.08301 0.21286 0.88514 0.0
O333 O 0.03801 0.28544 0.87303 0.0
O334 O 0.01563 0.25263 0.85828 0.0
C335 C 0.01391 0.27804 0.86516 0.0
O336 O 0.13304 0.27816 0.86783 0.0
O337 O 0.15736 0.31541 0.88052 0.0
C338 C 0.10938 0.24227 0.84896 0.0
C339 C 0.15676 0.29884 0.87053 0.0
H340 H 0.16793 0.34924 0.06883 0.0
H341 H 0.15396 0.40727 0.0734 0.0
H342 H 0.25453 0.42449 0.08758 0.0
H343 H 0.26843 0.36684 0.08317 0.0
H344 H 0.21275 0.44881 0.10299 0.0
H345 H 0.22292 0.45206 0.05853 0.0
H346 H 0.20881 0.43585 0.03679 0.0
H347 H 0.10833 0.46736 0.04041 0.0
H348 H 0.12174 0.48332 0.06224 0.0
H349 H 0.23443 0.61684 0.10794 0.0
H350 H 0.23691 0.56193 0.09829 0.0
H351 H 0.13111 0.56379 0.0904 0.0
H352 H 0.12866 0.61957 0.09988 0.0
H353 H 0.1666 0.52917 0.07196 0.0
H354 H 0.15733 0.52888 0.11599 0.0
H355 H 0.17192 0.54655 0.13753 0.0
H356 H 0.27069 0.5092 0.13462 0.0
H357 H 0.25684 0.49178 0.11298 0.0
C358 C 0.18704 0.36551 0.07287 0.0
C359 C 0.21921 0.35336 0.07575 0.0
C360 C 0.17906 0.39868 0.07544 0.0
C361 C 0.20324 0.42036 0.08077 0.0
C362 C 0.23538 0.40824 0.08354 0.0
C363 C 0.24327 0.37519 0.08106 0.0
C364 C 0.19532 0.45542 0.08395 0.0
C365 C 0.2029 0.46634 0.09615 0.0
C366 C 0.18128 0.47816 0.07516 0.0
C367 C 0.17324 0.46849 0.06206 0.0
C368 C 0.19775 0.45524 0.05473 0.0
C369 C 0.18989 0.44616 0.04238 0.0
C370 C 0.15767 0.45046 0.03724 0.0
C371 C 0.13325 0.46395 0.04442 0.0
C372 C 0.14097 0.47303 0.05677 0.0
C373 C 0.21182 0.60594 0.10384 0.0
C374 C 0.18133 0.62218 0.10474 0.0
C375 C 0.21324 0.57457 0.09835 0.0
C376 C 0.1841 0.55847 0.0939 0.0
C377 C 0.15385 0.57574 0.09384 0.0
C378 C 0.15248 0.60753 0.09924 0.0
C379 C 0.18526 0.52248 0.09084 0.0
C380 C 0.17618 0.51141 0.07877 0.0
C381 C 0.19787 0.49939 0.09973 0.0
C382 C 0.20609 0.50921 0.11284 0.0
C383 C 0.18221 0.52459 0.11992 0.0
C384 C 0.19035 0.53456 0.13215 0.0
C385 C 0.22223 0.52905 0.13744 0.0
C386 C 0.24601 0.51346 0.13051 0.0
C387 C 0.23802 0.5035 0.11827 0.0
H388 H 0.22849 0.5368 0.1469 0.0
H389 H 0.15164 0.44343 0.02767 0.0
H390 H 0.95067 0.75691 0.34875 0.0
H391 H 0.89243 0.75962 0.35364 0.0
H392 H 0.86387 0.77497 0.31502 0.0
H393 H 0.92224 0.77269 0.31007 0.0
H394 H 0.82806 0.81469 0.33127 0.0
H395 H 0.85646 0.70054 0.32535 0.0
H396 H 0.89039 0.65004 0.32841 0.0
H397 H 0.87329 0.65176 0.36727 0.0
H398 H 0.83966 0.7026 0.36447 0.0
H399 H 0.65934 0.78423 0.3455 0.0
H400 H 0.71174 0.78112 0.33502 0.0
H401 H 0.76217 0.74964 0.36925 0.0
H402 H 0.70989 0.75022 0.37931 0.0
H403 H 0.78381 0.71503 0.35131 0.0
H404 H 0.76285 0.83318 0.35786 0.0
H405 H 0.73158 0.88557 0.35524 0.0
H406 H 0.73517 0.87685 0.3157 0.0
H407 H 0.76626 0.82426 0.31809 0.0
C408 C 0.93207 0.76153 0.34134 0.0
C409 C 0.94096 0.76439 0.32902 0.0
C410 C 0.89881 0.76282 0.34413 0.0
C411 C 0.87389 0.76701 0.33466 0.0
C412 C 0.88276 0.77154 0.32244 0.0
C413 C 0.91603 0.77005 0.31963 0.0
C414 C 0.8386 0.76495 0.33751 0.0
C415 C 0.81813 0.79275 0.33548 0.0
C416 C 0.8258 0.73633 0.34301 0.0
C417 C 0.84573 0.70553 0.34471 0.0
C418 C 0.86012 0.69029 0.33456 0.0
C419 C 0.87928 0.66158 0.33625 0.0
C420 C 0.88405 0.64773 0.34803 0.0
C421 C 0.86959 0.66253 0.35814 0.0
C422 C 0.85045 0.69127 0.35651 0.0
C423 C 0.68148 0.77548 0.35057 0.0
C424 C 0.6805 0.76644 0.36305 0.0
C425 C 0.71148 0.77447 0.34469 0.0
C426 C 0.74098 0.76538 0.35137 0.0
C427 C 0.73979 0.7565 0.36386 0.0
C428 C 0.70992 0.757 0.36963 0.0
C429 C 0.77349 0.76537 0.34563 0.0
C430 C 0.79347 0.73693 0.347 0.0
C431 C 0.78581 0.79348 0.33959 0.0
C432 C 0.76662 0.82471 0.33815 0.0
C433 C 0.75677 0.84235 0.34861 0.0
C434 C 0.73919 0.87212 0.34716 0.0
C435 C 0.73153 0.88461 0.33531 0.0
C436 C 0.74128 0.86725 0.32487 0.0
C437 C 0.75886 0.83746 0.32627 0.0
H438 H 0.71787 0.90763 0.33421 0.0
H439 H 0.89889 0.62551 0.34932 0.0
H440 H 0.70068 0.60576 0.59308 0.0
H441 H 0.69498 0.55075 0.60196 0.0
H442 H 0.80038 0.53565 0.60136 0.0
H443 H 0.80677 0.59143 0.59307 0.0
H444 H 0.75914 0.48444 0.58927 0.0
H445 H 0.77304 0.54276 0.62806 0.0
H446 H 0.76188 0.58697 0.64321 0.0
H447 H 0.66072 0.55497 0.64375 0.0
H448 H 0.67113 0.51086 0.62847 0.0
H449 H 0.73241 0.32282 0.61397 0.0
H450 H 0.75791 0.37802 0.61267 0.0
H451 H 0.6624 0.42379 0.61634 0.0
H452 H 0.63718 0.3692 0.61778 0.0
H453 H 0.70989 0.45862 0.62905 0.0
H454 H 0.69121 0.40764 0.58888 0.0
H455 H 0.69755 0.36534 0.57256 0.0
H456 H 0.8017 0.38605 0.57281 0.0
H457 H 0.79607 0.42813 0.58933 0.0
C458 C 0.72287 0.5913 0.59514 0.0
C459 C 0.75421 0.60323 0.59226 0.0
C460 C 0.71949 0.55969 0.60016 0.0
C461 C 0.74727 0.53917 0.6023 0.0
C462 C 0.77864 0.5511 0.59972 0.0
C463 C 0.78215 0.58294 0.5949 0.0
C464 C 0.74296 0.50452 0.60643 0.0
C465 C 0.74919 0.47861 0.59811 0.0
C466 C 0.72918 0.4972 0.61781 0.0
C467 C 0.72284 0.52362 0.62705 0.0
C468 C 0.74834 0.5453 0.63134 0.0
C469 C 0.74216 0.57032 0.63996 0.0
C470 C 0.7106 0.57382 0.64442 0.0
C471 C 0.68516 0.55224 0.64029 0.0
C472 C 0.6912 0.52719 0.63165 0.0
C473 C 0.71716 0.34473 0.61483 0.0
C474 C 0.68285 0.34177 0.61596 0.0
C475 C 0.73166 0.37622 0.61399 0.0
C476 C 0.712 0.40506 0.61432 0.0
C477 C 0.67809 0.40198 0.61609 0.0
C478 C 0.66366 0.37072 0.61683 0.0
C479 C 0.72551 0.43846 0.6118 0.0
C480 C 0.72079 0.46423 0.62037 0.0
C481 C 0.74002 0.44575 0.60051 0.0
C482 C 0.74341 0.42037 0.59061 0.0
C483 C 0.71558 0.4028 0.58562 0.0
C484 C 0.71901 0.37895 0.5763 0.0
C485 C 0.75007 0.37279 0.57174 0.0
C486 C 0.77771 0.39064 0.57644 0.0
C487 C 0.77442 0.41445 0.58579 0.0
H488 H 0.75267 0.35435 0.5645 0.0
H489 H 0.70586 0.5932 0.6511 0.0
H490 H 0.6968 0.32174 0.8587 0.0
H491 H 0.75398 0.33302 0.86682 0.0
H492 H 0.79116 0.2896 0.83376 0.0
H493 H 0.73466 0.27866 0.8256 0.0
H494 H 0.81584 0.26223 0.85793 0.0
H495 H 0.79563 0.36496 0.83547 0.0
H496 H 0.76801 0.41846 0.83097 0.0
H497 H 0.79625 0.4535 0.86774 0.0
H498 H 0.82349 0.39989 0.87254 0.0
H499 H 0.97489 0.28951 0.84454 0.0
H500 H 0.91699 0.30657 0.84365 0.0
H501 H 0.92373 0.326 0.88302 0.0
H502 H 0.98217 0.30848 0.88402 0.0
H503 H 0.87537 0.36997 0.86096 0.0
H504 H 0.89517 0.26576 0.88367 0.0
H505 H 0.92644 0.21359 0.88694 0.0
H506 H 0.90028 0.18322 0.84943 0.0
H507 H 0.86929 0.2355 0.8459 0.0
C508 C 0.71724 0.31504 0.85313 0.0
C509 C 0.71128 0.29948 0.84149 0.0
C510 C 0.74977 0.32159 0.85775 0.0
C511 C 0.77667 0.31218 0.85086 0.0
C512 C 0.77068 0.29718 0.83918 0.0
C513 C 0.73837 0.29113 0.8345 0.0
C514 C 0.81127 0.3153 0.85601 0.0
C515 C 0.82863 0.2859 0.85881 0.0
C516 C 0.82789 0.3462 0.8573 0.0
C517 C 0.81094 0.37812 0.85446 0.0
C518 C 0.79543 0.38381 0.84267 0.0
C519 C 0.77998 0.41424 0.84005 0.0
C520 C 0.78019 0.43929 0.84909 0.0
C521 C 0.79595 0.43401 0.86077 0.0
C522 C 0.81136 0.4036 0.86345 0.0
C523 C 0.96441 0.29849 0.85295 0.0
C524 C 0.98283 0.29733 0.86437 0.0
C525 C 0.9314 0.30841 0.85241 0.0
C526 C 0.91614 0.31723 0.86327 0.0
C527 C 0.93525 0.31939 0.87453 0.0
C528 C 0.96858 0.30945 0.87509 0.0
C529 C 0.87957 0.31707 0.86291 0.0
C530 C 0.86201 0.34666 0.86075 0.0
C531 C 0.86249 0.28645 0.86232 0.0
C532 C 0.88013 0.25456 0.86451 0.0
C533 C 0.89625 0.248 0.87611 0.0
C534 C 0.9139 0.21843 0.87801 0.0
C535 C 0.91539 0.19512 0.86839 0.0
C536 C 0.89911 0.2013 0.85687 0.0
C537 C 0.88147 0.23087 0.85492 0.0
H538 H 0.92912 0.17226 0.86987 0.0
H539 H 0.76828 0.46285 0.84703 0.0
H540 H 0.0204 0.62302 0.92152 0.0
H541 H 0.99983 0.56679 0.9174 0.0
H542 H 0.03171 0.57154 0.88009 0.0
H543 H 0.052 0.6282 0.88407 0.0
H544 H 0.9712 0.52982 0.88353 0.0
H545 H 0.08596 0.54656 0.89914 0.0
H546 H 0.12823 0.57095 0.9139 0.0
H547 H 0.08312 0.52352 0.9441 0.0
H548 H 0.04019 0.49936 0.92951 0.0
H549 H 0.03527 0.36846 0.87019 0.0
H550 H 0.01366 0.42485 0.87257 0.0
H551 H 0.01018 0.40988 0.912 0.0
H552 H 0.0335 0.35435 0.90965 0.0
H553 H 0.04883 0.45776 0.90837 0.0
H554 H 0.93996 0.43172 0.89258 0.0
H555 H 0.89553 0.40898 0.8784 0.0
H556 H 0.92604 0.47199 0.84932 0.0
H557 H 0.97095 0.49488 0.86329 0.0
C558 C 0.02184 0.61272 0.91228 0.0
C559 C 0.03829 0.62991 0.90318 0.0
C560 C 0.01006 0.58051 0.90994 0.0
C561 C 0.01452 0.56494 0.89848 0.0
C562 C 0.02794 0.58317 0.88898 0.0
C563 C 0.03986 0.61538 0.89132 0.0
C564 C 0.01176 0.52831 0.89732 0.0
C565 C 0.98811 0.51385 0.8889 0.0
C566 C 0.03343 0.50766 0.90453 0.0
C567 C 0.05969 0.52149 0.91326 0.0
C568 C 0.08494 0.54154 0.90893 0.0
C569 C 0.10902 0.5553 0.91727 0.0
C570 C 0.10832 0.54886 0.92994 0.0
C571 C 0.0836 0.52853 0.93429 0.0
C572 C 0.05939 0.51481 0.92599 0.0
C573 C 0.02846 0.3768 0.87926 0.0
C574 C 0.03622 0.3574 0.88976 0.0
C575 C 0.01605 0.40906 0.88064 0.0
C576 C 0.01064 0.42192 0.89251 0.0
C577 C 0.0145 0.40074 0.90277 0.0
C578 C 0.02762 0.36893 0.90143 0.0
C579 C 0.00791 0.45843 0.89459 0.0
C580 C 0.03113 0.47319 0.90313 0.0
C581 C 0.98563 0.47902 0.88752 0.0
C582 C 0.95903 0.46488 0.87898 0.0
C583 C 0.93745 0.4405 0.88313 0.0
C584 C 0.9121 0.42763 0.87513 0.0
C585 C 0.90798 0.439 0.86295 0.0
C586 C 0.92925 0.46322 0.85875 0.0
C587 C 0.95463 0.47619 0.86672 0.0
H588 H 0.88824 0.42917 0.85678 0.0
H589 H 0.12697 0.55954 0.93638 0.0
H590 H 0.78174 0.78326 0.14539 0.0
H591 H 0.83897 0.76801 0.14166 0.0
H592 H 0.85952 0.7542 0.1809 0.0
H593 H 0.80252 0.76989 0.18471 0.0
H594 H 0.90546 0.793 0.17119 0.0
H595 H 0.85652 0.68762 0.16187 0.0
H596 H 0.81617 0.64836 0.15194 0.0
H597 H 0.84711 0.67539 0.11605 0.0
H598 H 0.88733 0.71518 0.12575 0.0
H599 H 0.05254 0.69857 0.14022 0.0
H600 H 0.00133 0.69838 0.15144 0.0
H601 H 0.98467 0.80113 0.14192 0.0
H602 H 0.03562 0.80145 0.1309 0.0
H603 H 0.93963 0.70848 0.14077 0.0
H604 H 0.94189 0.84 0.16334 0.0
H605 H 0.98143 0.87849 0.17417 0.0
H606 H 0.04405 0.79663 0.18517 0.0
H607 H 0.00492 0.75743 0.17442 0.0
C608 C 0.79837 0.77669 0.15321 0.0
C609 C 0.78754 0.77777 0.16534 0.0
C610 C 0.83101 0.76774 0.15106 0.0
C611 C 0.85351 0.75976 0.161 0.0
C612 C 0.84258 0.76013 0.17309 0.0
C613 C 0.8099 0.76886 0.17524 0.0
C614 C 0.88894 0.75336 0.15882 0.0
C615 C 0.91299 0.77434 0.16461 0.0
C616 C 0.89886 0.72858 0.15043 0.0
C617 C 0.87481 0.70455 0.14455 0.0
C618 C 0.85456 0.68537 0.15186 0.0
C619 C 0.83174 0.66299 0.14627 0.0
C620 C 0.82904 0.65942 0.13337 0.0
C621 C 0.84922 0.67818 0.12604 0.0
C622 C 0.87207 0.70062 0.13158 0.0
C623 C 0.03839 0.72131 0.14086 0.0
C624 C 0.04812 0.7501 0.13478 0.0
C625 C 0.00905 0.72113 0.14718 0.0
C626 C 0.98924 0.74982 0.1476 0.0
C627 C 0.99973 0.77886 0.14191 0.0
C628 C 0.02877 0.77896 0.13555 0.0
C629 C 0.95599 0.74895 0.15279 0.0
C630 C 0.93225 0.72672 0.14752 0.0
C631 C 0.94637 0.77251 0.16171 0.0
C632 C 0.97049 0.79579 0.16801 0.0
C633 C 0.96409 0.83015 0.16808 0.0
C634 C 0.98647 0.85208 0.17418 0.0
C635 C 0.01531 0.83995 0.18031 0.0
C636 C 0.02184 0.80589 0.18032 0.0
C637 C 0.99961 0.78381 0.1742 0.0
H638 H 0.03255 0.85695 0.18507 0.0
H639 H 0.81135 0.64208 0.12906 0.0
H640 H 0.60871 0.37301 0.40062 0.0
H641 H 0.60489 0.43257 0.39677 0.0
H642 H 0.5754 0.44929 0.43404 0.0
H643 H 0.57864 0.38933 0.43791 0.0
H644 H 0.53815 0.48621 0.41657 0.0
H645 H 0.65205 0.46747 0.42801 0.0
H646 H 0.70628 0.43958 0.42757 0.0
H647 H 0.71231 0.46535 0.38929 0.0
H648 H 0.65785 0.49297 0.38944 0.0
H649 H 0.55373 0.66044 0.40369 0.0
H650 H 0.56249 0.60748 0.41466 0.0
H651 H 0.5998 0.5638 0.3816 0.0
H652 H 0.59215 0.61657 0.3709 0.0
H653 H 0.63614 0.54416 0.40154 0.0
H654 H 0.51854 0.55385 0.38937 0.0
H655 H 0.46375 0.58085 0.38944 0.0
H656 H 0.46494 0.57189 0.42905 0.0
H657 H 0.51996 0.54517 0.4292 0.0
C658 C 0.60093 0.38923 0.40795 0.0
C659 C 0.59395 0.37638 0.41957 0.0
C660 C 0.5991 0.42334 0.40578 0.0
C661 C 0.59032 0.44543 0.41518 0.0
C662 C 0.58242 0.4327 0.42669 0.0
C663 C 0.58444 0.39849 0.4289 0.0
C664 C 0.58972 0.48175 0.41286 0.0
C665 C 0.55975 0.4991 0.41353 0.0
C666 C 0.61785 0.49853 0.40884 0.0
C667 C 0.65074 0.48212 0.40872 0.0
C668 C 0.66482 0.46699 0.41947 0.0
C669 C 0.69562 0.45126 0.41928 0.0
C670 C 0.71271 0.45065 0.40841 0.0
C671 C 0.69904 0.46584 0.39771 0.0
C672 C 0.66823 0.48158 0.39784 0.0
C673 C 0.56461 0.63968 0.39894 0.0
C674 C 0.5728 0.64261 0.38655 0.0
C675 C 0.56924 0.60938 0.40513 0.0
C676 C 0.58164 0.58155 0.39892 0.0
C677 C 0.59038 0.58488 0.38662 0.0
C678 C 0.58585 0.61499 0.38049 0.0
C679 C 0.58425 0.5483 0.40479 0.0
C680 C 0.6147 0.53149 0.40482 0.0
C681 C 0.55655 0.53204 0.40942 0.0
C682 C 0.52347 0.5479 0.40931 0.0
C683 C 0.5072 0.55786 0.39809 0.0
C684 C 0.4761 0.57307 0.39809 0.0
C685 C 0.46092 0.57818 0.40925 0.0
C686 C 0.47676 0.56798 0.42042 0.0
C687 C 0.50789 0.5528 0.42047 0.0
H688 H 0.43685 0.58996 0.40923 0.0
H689 H 0.73655 0.43845 0.40828 0.0
H690 H 0.00744 0.36068 0.6802 0.0
H691 H 0.94946 0.35475 0.67291 0.0
H692 H 0.979 0.30268 0.64028 0.0
H693 H 0.03735 0.30946 0.64734 0.0
H694 H 0.93028 0.34751 0.63451 0.0
H695 H 0.94905 0.26077 0.66441 0.0
H696 H 0.9665 0.23723 0.68475 0.0
H697 H 0.8947 0.29765 0.70219 0.0
H698 H 0.87713 0.32191 0.68196 0.0
H699 H 0.7828 0.2579 0.61714 0.0
H700 H 0.83713 0.28264 0.62229 0.0
H701 H 0.79917 0.32893 0.65474 0.0
H702 H 0.74478 0.30363 0.6496 0.0
H703 H 0.85111 0.29214 0.66095 0.0
H704 H 0.82993 0.37681 0.63081 0.0
H705 H 0.81386 0.40165 0.61057 0.0
H706 H 0.88911 0.3449 0.59352 0.0
H707 H 0.90579 0.31984 0.61368 0.0
C708 C 0.00171 0.34825 0.6714 0.0
C709 C 0.02717 0.33558 0.66435 0.0
C710 C 0.96846 0.34463 0.66729 0.0
C711 C 0.95978 0.32801 0.65609 0.0
C712 C 0.98508 0.31557 0.64896 0.0
C713 C 0.01842 0.31917 0.65307 0.0
C714 C 0.92432 0.32328 0.65191 0.0
C715 C 0.913 0.3351 0.64023 0.0
C716 C 0.90151 0.30799 0.65952 0.0
C717 C 0.91204 0.29342 0.67169 0.0
C718 C 0.93718 0.26925 0.67259 0.0
C719 C 0.94705 0.25573 0.6841 0.0
C720 C 0.93179 0.26601 0.69476 0.0
C721 C 0.90655 0.28976 0.69393 0.0
C722 C 0.89661 0.30338 0.68244 0.0
C723 C 0.78576 0.2746 0.62505 0.0
C724 C 0.75966 0.2794 0.63287 0.0
C725 C 0.81684 0.28871 0.62802 0.0
C726 C 0.82239 0.30777 0.63892 0.0
C727 C 0.79554 0.3144 0.64628 0.0
C728 C 0.7644 0.30026 0.64329 0.0
C729 C 0.85687 0.3163 0.64349 0.0
C730 C 0.86815 0.30498 0.65526 0.0
C731 C 0.87957 0.33201 0.63595 0.0
C732 C 0.86896 0.34628 0.62374 0.0
C733 C 0.84285 0.36938 0.62272 0.0
C734 C 0.83368 0.38357 0.61127 0.0
C735 C 0.85035 0.37472 0.60075 0.0
C736 C 0.87622 0.3517 0.60167 0.0
C737 C 0.88563 0.3376 0.61312 0.0
H738 H 0.84341 0.38582 0.5919 0.0
H739 H 0.93946 0.25551 0.70366 0.0
H740 H 0.31621 0.29842 0.68651 0.0
H741 H 0.37268 0.28351 0.68151 0.0
H742 H 0.33724 0.25613 0.64441 0.0
H743 H 0.28057 0.27167 0.6493 0.0
H744 H 0.38694 0.20943 0.65876 0.0
H745 H 0.36797 0.32401 0.64544 0.0
H746 H 0.35142 0.3821 0.64909 0.0
H747 H 0.42644 0.39086 0.67877 0.0
H748 H 0.44308 0.33259 0.6754 0.0
H749 H 0.52429 0.21085 0.62183 0.0
H750 H 0.47237 0.21371 0.63217 0.0
H751 H 0.51957 0.2748 0.66114 0.0
H752 H 0.57098 0.27375 0.65017 0.0
H753 H 0.46547 0.30237 0.65381 0.0
H754 H 0.4906 0.19283 0.66635 0.0
H755 H 0.50819 0.13446 0.66448 0.0
H756 H 0.42445 0.11442 0.63922 0.0
H757 H 0.40659 0.17283 0.64079 0.0
C758 C 0.32038 0.28877 0.67734 0.0
C759 C 0.29402 0.28611 0.66829 0.0
C760 C 0.35261 0.28035 0.6745 0.0
C761 C 0.35903 0.26867 0.66262 0.0
C762 C 0.33267 0.26495 0.65366 0.0
C763 C 0.30044 0.27398 0.65642 0.0
C764 C 0.39356 0.26242 0.65934 0.0
C765 C 0.40415 0.22964 0.65755 0.0
C766 C 0.41626 0.28878 0.65834 0.0
C767 C 0.40649 0.32387 0.66027 0.0
C768 C 0.38071 0.33823 0.65282 0.0
C769 C 0.37136 0.3712 0.65482 0.0
C770 C 0.3878 0.39013 0.66418 0.0
C771 C 0.41369 0.37615 0.67153 0.0
C772 C 0.4231 0.34317 0.66958 0.0
C773 C 0.52377 0.22409 0.63059 0.0
C774 C 0.55197 0.24106 0.63548 0.0
C775 C 0.4941 0.2256 0.63655 0.0
C776 C 0.492 0.24396 0.64761 0.0
C777 C 0.52057 0.26011 0.65272 0.0
C778 C 0.55023 0.2589 0.64663 0.0
C779 C 0.45916 0.24915 0.65293 0.0
C780 C 0.4487 0.28186 0.65514 0.0
C781 C 0.43685 0.22258 0.65458 0.0
C782 C 0.44737 0.18733 0.65362 0.0
C783 C 0.47604 0.17606 0.66032 0.0
C784 C 0.48605 0.14294 0.65933 0.0
C785 C 0.46748 0.12076 0.65172 0.0
C786 C 0.43881 0.13164 0.64511 0.0
C787 C 0.42871 0.16475 0.64606 0.0
H788 H 0.47527 0.09513 0.65096 0.0
H789 H 0.38053 0.41565 0.66572 0.0
H790 H 0.53227 0.81022 0.14156 0.0
H791 H 0.47396 0.80236 0.13443 0.0
H792 H 0.44363 0.83512 0.17015 0.0
H793 H 0.50157 0.84271 0.17733 0.0
H794 H 0.413 0.77753 0.16229 0.0
H795 H 0.43358 0.88595 0.14555 0.0
H796 H 0.4621 0.92698 0.13314 0.0
H797 H 0.4401 0.86859 0.10022 0.0
H798 H 0.41192 0.82693 0.11248 0.0
H799 H 0.24381 0.78282 0.1516 0.0
H800 H 0.2993 0.80606 0.15566 0.0
H801 H 0.32295 0.78153 0.11822 0.0
H802 H 0.26659 0.75987 0.114 0.0
H803 H 0.35771 0.83435 0.12613 0.0
H804 H 0.33792 0.72621 0.14213 0.0
H805 H 0.30801 0.68473 0.15387 0.0
H806 H 0.32952 0.74016 0.18752 0.0
H807 H 0.35916 0.78226 0.17595 0.0
C808 C 0.51313 0.81568 0.14788 0.0
C809 C 0.52154 0.82719 0.15999 0.0
C810 C 0.47984 0.81146 0.14377 0.0
C811 C 0.45441 0.81846 0.15173 0.0
C812 C 0.46281 0.82973 0.16383 0.0
C813 C 0.49595 0.83421 0.1679 0.0
C814 C 0.41904 0.81274 0.14771 0.0
C815 C 0.40083 0.79034 0.15448 0.0
C816 C 0.40339 0.82856 0.13728 0.0
C817 C 0.42094 0.85319 0.12995 0.0
C818 C 0.43515 0.88169 0.13569 0.0
C819 C 0.45119 0.90509 0.12868 0.0
C820 C 0.45299 0.90035 0.1159 0.0
C821 C 0.43876 0.87219 0.11012 0.0
C822 C 0.42277 0.84867 0.11709 0.0
C823 C 0.26046 0.78374 0.14411 0.0
C824 C 0.25117 0.76967 0.13251 0.0
C825 C 0.29226 0.79665 0.14646 0.0
C826 C 0.31573 0.79438 0.13739 0.0
C827 C 0.30543 0.7832 0.12541 0.0
C828 C 0.27323 0.77096 0.12298 0.0
C829 C 0.35153 0.7998 0.14088 0.0
C830 C 0.36988 0.82175 0.13396 0.0
C831 C 0.36754 0.78325 0.1511 0.0
C832 C 0.35052 0.75752 0.15815 0.0
C833 C 0.33617 0.72961 0.15203 0.0
C834 C 0.31925 0.706 0.15865 0.0
C835 C 0.3168 0.70985 0.17143 0.0
C836 C 0.33141 0.73724 0.17762 0.0
C837 C 0.34829 0.76096 0.17104 0.0
H838 H 0.30362 0.69159 0.17654 0.0
H839 H 0.46535 0.91854 0.11049 0.0
H840 H 0.42538 0.22406 0.82727 0.0
H841 H 0.36826 0.23782 0.83121 0.0
H842 H 0.39568 0.34044 0.83724 0.0
H843 H 0.45303 0.3271 0.83293 0.0
H844 H 0.35989 0.31532 0.85578 0.0
H845 H 0.35189 0.31817 0.81181 0.0
H846 H 0.35849 0.29788 0.79052 0.0
H847 H 0.29207 0.21713 0.7963 0.0
H848 H 0.28603 0.2361 0.81779 0.0
H849 H 0.19376 0.35366 0.8664 0.0
H850 H 0.24562 0.35585 0.85579 0.0
H851 H 0.23634 0.25149 0.84677 0.0
H852 H 0.18469 0.24921 0.85742 0.0
H853 H 0.26201 0.28669 0.82784 0.0
H854 H 0.28079 0.27573 0.8723 0.0
H855 H 0.27535 0.29255 0.8941 0.0
H856 H 0.32135 0.38618 0.88724 0.0
H857 H 0.32662 0.37006 0.86533 0.0
C858 C 0.41928 0.24972 0.82918 0.0
C859 C 0.44389 0.27451 0.8297 0.0
C860 C 0.38655 0.25752 0.83145 0.0
C861 C 0.37764 0.29022 0.83434 0.0
C862 C 0.40205 0.31506 0.83495 0.0
C863 C 0.43484 0.30732 0.83259 0.0
C864 C 0.3433 0.29777 0.83757 0.0
C865 C 0.33851 0.30978 0.84955 0.0
C866 C 0.31541 0.28983 0.82951 0.0
C867 C 0.31889 0.27836 0.81653 0.0
C868 C 0.33908 0.29578 0.80863 0.0
C869 C 0.34277 0.28447 0.79652 0.0
C870 C 0.3259 0.2561 0.79209 0.0
C871 C 0.30526 0.23901 0.79976 0.0
C872 C 0.30177 0.24999 0.81193 0.0
C873 C 0.20254 0.33136 0.86195 0.0
C874 C 0.18515 0.30132 0.86262 0.0
C875 C 0.23209 0.33265 0.85589 0.0
C876 C 0.24496 0.30376 0.8506 0.0
C877 C 0.22676 0.27411 0.85074 0.0
C878 C 0.19722 0.27283 0.8568 0.0
C879 C 0.27887 0.30344 0.8461 0.0
C880 C 0.28351 0.29278 0.83392 0.0
C881 C 0.30674 0.31222 0.85399 0.0
C882 C 0.30372 0.32187 0.86716 0.0
C883 C 0.2895 0.30001 0.87542 0.0
C884 C 0.28648 0.30939 0.88779 0.0
C885 C 0.2979 0.34045 0.89204 0.0
C886 C 0.31244 0.36216 0.88392 0.0
C887 C 0.31546 0.35291 0.87153 0.0
H888 H 0.29555 0.34767 0.90162 0.0
H889 H 0.32863 0.24752 0.78268 0.0
H890 H 0.20099 0.78069 0.36032 0.0
H891 H 0.25703 0.79652 0.36715 0.0
H892 H 0.26675 0.85006 0.33312 0.0
H893 H 0.21138 0.83194 0.32578 0.0
H894 H 0.31629 0.81363 0.336 0.0
H895 H 0.27027 0.88945 0.36333 0.0
H896 H 0.2332 0.91184 0.37868 0.0
H897 H 0.2714 0.84136 0.40548 0.0
H898 H 0.30836 0.81817 0.39024 0.0
H899 H 0.48453 0.82268 0.35927 0.0
H900 H 0.42989 0.84916 0.35594 0.0
H901 H 0.38572 0.77003 0.37595 0.0
H902 H 0.43985 0.74319 0.37896 0.0
H903 H 0.35723 0.83888 0.37926 0.0
H904 H 0.38858 0.75555 0.34771 0.0
H905 H 0.42687 0.73602 0.33223 0.0
H906 H 0.4165 0.82895 0.31318 0.0
H907 H 0.37848 0.84916 0.32868 0.0
C908 C 0.2149 0.796 0.35428 0.0
C909 C 0.20177 0.80442 0.34238 0.0
C910 C 0.2469 0.80566 0.35833 0.0
C911 C 0.26633 0.82481 0.35072 0.0
C912 C 0.25239 0.83527 0.33918 0.0
C913 C 0.2205 0.82511 0.33503 0.0
C914 C 0.3023 0.82959 0.35412 0.0
C915 C 0.32509 0.82031 0.34537 0.0
C916 C 0.31428 0.83823 0.36634 0.0
C917 C 0.29207 0.85199 0.37559 0.0
C918 C 0.27064 0.87856 0.37246 0.0
C919 C 0.24965 0.89142 0.38116 0.0
C920 C 0.24993 0.87802 0.39304 0.0
C921 C 0.27123 0.85174 0.39627 0.0
C922 C 0.29227 0.83877 0.38761 0.0
C923 C 0.46327 0.81165 0.3633 0.0
C924 C 0.46613 0.78094 0.36933 0.0
C925 C 0.43217 0.82674 0.36139 0.0
C926 C 0.40386 0.81149 0.36571 0.0
C927 C 0.40732 0.7823 0.37265 0.0
C928 C 0.43814 0.7669 0.3743 0.0
C929 C 0.37019 0.82195 0.36125 0.0
C930 C 0.34808 0.83372 0.3698 0.0
C931 C 0.35878 0.81634 0.34881 0.0
C932 C 0.38106 0.80396 0.3394 0.0
C933 C 0.39466 0.77186 0.34026 0.0
C934 C 0.41628 0.76067 0.33149 0.0
C935 C 0.42419 0.78127 0.32175 0.0
C936 C 0.4104 0.81306 0.32074 0.0
C937 C 0.38883 0.82439 0.32951 0.0
H938 H 0.44094 0.77257 0.31496 0.0
H939 H 0.23366 0.88801 0.39976 0.0
H940 H 0.68536 0.87141 0.55713 0.0
H941 H 0.67135 0.92995 0.56047 0.0
H942 H 0.70607 0.92235 0.59885 0.0
H943 H 0.71981 0.86381 0.59561 0.0
H944 H 0.648 0.9593 0.59576 0.0
H945 H 0.75599 0.95148 0.57786 0.0
H946 H 0.79331 0.93539 0.56156 0.0
H947 H 0.73533 0.99303 0.53498 0.0
H948 H 0.69739 0.00909 0.5511 0.0
H949 H 0.73666 0.11829 0.60897 0.0
H950 H 0.73319 0.0655 0.59768 0.0
H951 H 0.62924 0.08237 0.58863 0.0
H952 H 0.63268 0.13561 0.59998 0.0
H953 H 0.71276 0.04264 0.57379 0.0
H954 H 0.59243 0.00605 0.59422 0.0
H955 H 0.55697 0.02256 0.61108 0.0
H956 H 0.64288 0.05401 0.6334 0.0
H957 H 0.67879 0.03729 0.61673 0.0
C958 C 0.68942 0.88206 0.56634 0.0
C959 C 0.70383 0.86303 0.57611 0.0
C960 C 0.68157 0.91555 0.5682 0.0
C961 C 0.68788 0.93056 0.57988 0.0
C962 C 0.70098 0.91126 0.58976 0.0
C963 C 0.70905 0.87788 0.58789 0.0
C964 C 0.68297 0.9668 0.58175 0.0
C965 C 0.66179 0.97753 0.59082 0.0
C966 C 0.70078 0.99069 0.57527 0.0
C967 C 0.72364 0.9811 0.56563 0.0
C968 C 0.75105 0.96047 0.56851 0.0
C969 C 0.77233 0.95141 0.55931 0.0
C970 C 0.76662 0.96308 0.54723 0.0
C971 C 0.73967 0.98393 0.54434 0.0
C972 C 0.71827 0.99302 0.55349 0.0
C973 C 0.71324 0.11112 0.60433 0.0
C974 C 0.68491 0.13088 0.6054 0.0
C975 C 0.71132 0.08105 0.59782 0.0
C976 C 0.68092 0.06987 0.59242 0.0
C977 C 0.65293 0.09052 0.59278 0.0
C978 C 0.65493 0.12093 0.59922 0.0
C979 C 0.67831 0.03498 0.58794 0.0
C980 C 0.69815 0.02447 0.57843 0.0
C981 C 0.65934 0.01127 0.59401 0.0
C982 C 0.63817 0.02075 0.6042 0.0
C983 C 0.6037 0.01638 0.60275 0.0
C984 C 0.58355 0.02579 0.61227 0.0
C985 C 0.59765 0.03943 0.62329 0.0
C986 C 0.63197 0.04354 0.62484 0.0
C987 C 0.65223 0.03412 0.61537 0.0
H988 H 0.58201 0.04675 0.63064 0.0
H989 H 0.78314 0.95605 0.54013 0.0
H990 H 0.20528 0.08496 0.08231 0.0
H991 H 0.19717 0.02945 0.09034 0.0
H992 H 0.28912 0.03747 0.11257 0.0
H993 H 0.29781 0.09305 0.10419 0.0
H994 H 0.28686 0.97962 0.10234 0.0
H995 H 0.21185 0.03847 0.12598 0.0
H996 H 0.16771 0.07813 0.13066 0.0
H997 H 0.09788 0.02261 0.10725 0.0
H998 H 0.14168 0.98286 0.10227 0.0
H999 H 0.20919 0.82392 0.12784 0.0
H1000 H 0.23489 0.87933 0.12787 0.0
H1001 H 0.19356 0.89499 0.09069 0.0
H1002 H 0.16914 0.83964 0.0904 0.0
H1003 H 0.17714 0.94127 0.1147 0.0
H1004 H 0.26136 0.88799 0.08932 0.0
H1005 H 0.30749 0.8488 0.08696 0.0
H1006 H 0.36246 0.89567 0.11754 0.0
H1007 H 0.31619 0.93449 0.12031 0.0
C1008 C 0.22346 0.07519 0.08909 0.0
C1009 C 0.25203 0.09346 0.0927 0.0
C1010 C 0.21879 0.04341 0.09371 0.0
C1011 C 0.24221 0.02937 0.10227 0.0
C1012 C 0.27063 0.04776 0.10603 0.0
C1013 C 0.27554 0.07949 0.10125 0.0
C1014 C 0.23755 0.9948 0.10662 0.0
C1015 C 0.26305 0.97145 0.1053 0.0
C1016 C 0.20676 0.98395 0.11073 0.0
C1017 C 0.18016 0.00772 0.11372 0.0
C1018 C 0.18713 0.03481 0.12177 0.0
C1019 C 0.16215 0.0573 0.12448 0.0
C1020 C 0.13002 0.05291 0.11925 0.0
C1021 C 0.12278 0.02597 0.1113 0.0
C1022 C 0.14767 0.0034 0.10855 0.0
C1023 C 0.20689 0.8386 0.1195 0.0
C1024 C 0.18743 0.82732 0.10908 0.0
C1025 C 0.22125 0.87034 0.11958 0.0
C1026 C 0.21607 0.89105 0.10927 0.0
C1027 C 0.1979 0.87923 0.09871 0.0
C1028 C 0.18393 0.84763 0.09857 0.0
C1029 C 0.22574 0.92641 0.10975 0.0
C1030 C 0.20113 0.94983 0.11205 0.0
C1031 C 0.2575 0.93731 0.10685 0.0
C1032 C 0.28505 0.91373 0.10517 0.0
C1033 C 0.28301 0.88955 0.09568 0.0
C1034 C 0.30924 0.86746 0.09424 0.0
C1035 C 0.33782 0.8696 0.10213 0.0
C1036 C 0.34026 0.89389 0.11147 0.0
C1037 C 0.31401 0.91589 0.11299 0.0
H1038 H 0.35811 0.85252 0.10097 0.0
H1039 H 0.11072 0.07036 0.12136 0.0
H1040 H 0.56774 0.11698 0.3854 0.0
H1041 H 0.54396 0.06374 0.37884 0.0
H1042 H 0.49064 0.05995 0.41225 0.0
H1043 H 0.51586 0.11264 0.41919 0.0
H1044 H 0.52225 0.00544 0.40992 0.0
H1045 H 0.44941 0.06405 0.38241 0.0
H1046 H 0.43115 0.10557 0.36683 0.0
H1047 H 0.49252 0.06002 0.34036 0.0
H1048 H 0.51156 0.0185 0.35582 0.0
H1049 H 0.49998 0.84045 0.38946 0.0
H1050 H 0.47602 0.89603 0.39239 0.0
H1051 H 0.54588 0.93707 0.368 0.0
H1052 H 0.56988 0.88207 0.36525 0.0
H1053 H 0.48506 0.97185 0.36704 0.0
H1054 H 0.56953 0.92826 0.3976 0.0
H1055 H 0.5889 0.88687 0.41311 0.0
H1056 H 0.50322 0.90557 0.43381 0.0
H1057 H 0.48316 0.94677 0.4183 0.0
C1058 C 0.55069 0.10502 0.39131 0.0
C1059 C 0.54411 0.11891 0.4029 0.0
C1060 C 0.53663 0.07472 0.38745 0.0
C1061 C 0.51516 0.05779 0.39498 0.0
C1062 C 0.50702 0.07254 0.40625 0.0
C1063 C 0.52131 0.10281 0.41017 0.0
C1064 C 0.50525 0.02295 0.39183 0.0
C1065 C 0.51296 0.9983 0.40065 0.0
C1066 C 0.49338 0.01329 0.37971 0.0
C1067 C 0.48198 0.03815 0.37032 0.0
C1068 C 0.45918 0.06298 0.37329 0.0
C1069 C 0.44867 0.08652 0.36447 0.0
C1070 C 0.46068 0.08544 0.35261 0.0
C1071 C 0.4832 0.06079 0.34954 0.0
C1072 C 0.49381 0.0372 0.35833 0.0
C1073 C 0.50914 0.8612 0.38434 0.0
C1074 C 0.5368 0.85731 0.3772 0.0
C1075 C 0.49555 0.89288 0.38603 0.0
C1076 C 0.50948 0.92073 0.38053 0.0
C1077 C 0.53469 0.91599 0.37231 0.0
C1078 C 0.54848 0.8846 0.37077 0.0
C1079 C 0.50318 0.95497 0.38501 0.0
C1080 C 0.49277 0.97936 0.37644 0.0
C1081 C 0.51241 0.96455 0.39736 0.0
C1082 C 0.52469 0.94022 0.40675 0.0
C1083 C 0.55477 0.92338 0.40543 0.0
C1084 C 0.56586 0.89998 0.41421 0.0
C1085 C 0.54725 0.89352 0.42442 0.0
C1086 C 0.51756 0.91054 0.42588 0.0
C1087 C 0.50631 0.9339 0.4171 0.0
H1088 H 0.55587 0.87539 0.43121 0.0
H1089 H 0.45251 0.10369 0.3458 0.0
H1090 H 0.14896 0.90121 0.92586 0.0
H1091 H 0.14118 0.96066 0.92235 0.0
H1092 H 0.03834 0.94351 0.91128 0.0
H1093 H 0.04585 0.88403 0.91487 0.0
H1094 H 0.0678 0.97943 0.89463 0.0
H1095 H 0.06306 0.98161 0.93876 0.0
H1096 H 0.08216 0.97176 0.9605 0.0
H1097 H 0.1671 0.03355 0.95619 0.0
H1098 H 0.14899 0.04315 0.93433 0.0
H1099 H 0.01757 0.14321 0.88658 0.0
H1100 H 0.02266 0.08915 0.89665 0.0
H1101 H 0.12673 0.10709 0.90516 0.0
H1102 H 0.12167 0.16123 0.89496 0.0
H1103 H 0.09696 0.07195 0.92392 0.0
H1104 H 0.10509 0.06548 0.8798 0.0
H1105 H 0.08709 0.07593 0.85798 0.0
H1106 H 0.99689 0.02238 0.86253 0.0
H1107 H 0.01415 0.01205 0.88445 0.0
C1108 C 0.12451 0.91013 0.92291 0.0
C1109 C 0.09803 0.88778 0.92061 0.0
C1110 C 0.12011 0.94418 0.92092 0.0
C1111 C 0.08912 0.95663 0.91664 0.0
C1112 C 0.06249 0.93448 0.91458 0.0
C1113 C 0.06687 0.90044 0.91656 0.0
C1114 C 0.08504 0.99221 0.91331 0.0
C1115 C 0.07365 0.99958 0.90113 0.0
C1116 C 0.0938 0.01861 0.92167 0.0
C1117 C 0.1049 0.01266 0.93481 0.0
C1118 C 0.08605 0.99274 0.94238 0.0
C1119 C 0.09667 0.98725 0.95475 0.0
C1120 C 0.12595 0.00181 0.95969 0.0
C1121 C 0.14454 0.02211 0.95232 0.0
C1122 C 0.13411 0.02756 0.93994 0.0
C1123 C 0.04136 0.13591 0.89085 0.0
C1124 C 0.06919 0.15646 0.89012 0.0
C1125 C 0.04425 0.10506 0.89659 0.0
C1126 C 0.07517 0.09392 0.9015 0.0
C1127 C 0.10262 0.11526 0.90147 0.0
C1128 C 0.09968 0.14629 0.89574 0.0
C1129 C 0.07934 0.05881 0.90535 0.0
C1130 C 0.09096 0.05162 0.91752 0.0
C1131 C 0.07106 0.0324 0.89701 0.0
C1132 C 0.06077 0.03828 0.88379 0.0
C1133 C 0.08131 0.05614 0.87617 0.0
C1134 C 0.07126 0.06202 0.86378 0.0
C1135 C 0.04083 0.0499 0.85888 0.0
C1136 C 0.02043 0.03179 0.86635 0.0
C1137 C 0.03034 0.0259 0.87875 0.0
H1138 H 0.03309 0.05447 0.84928 0.0
H1139 H 0.13418 0.99739 0.96925 0.0
H1140 H 0.16996 0.17767 0.0136 0.0
H1141 H 0.15012 0.16919 0.99198 0.0
H1142 H 0.25095 0.16088 0.98137 0.0
H1143 H 0.271 0.16849 0.00297 0.0
H1144 H 0.21567 0.21098 0.96958 0.0
H1145 H 0.20193 0.0958 0.97797 0.0
H1146 H 0.18211 0.04697 0.98896 0.0
H1147 H 0.08134 0.07498 0.97959 0.0
H1148 H 0.1005 0.12437 0.96874 0.0
H1149 H 0.18039 0.20834 0.90734 0.0
H1150 H 0.19817 0.1798 0.92648 0.0
H1151 H 0.09901 0.18731 0.93896 0.0
H1152 H 0.0809 0.21474 0.91948 0.0
H1153 H 0.13477 0.13205 0.94929 0.0
H1154 H 0.14742 0.25051 0.9444 0.0
H1155 H 0.16524 0.30052 0.93358 0.0
H1156 H 0.26628 0.26735 0.93718 0.0
H1157 H 0.24894 0.21682 0.94784 0.0
C1158 C 0.18791 0.17306 0.00673 0.0
C1159 C 0.22212 0.17427 0.01 0.0
C1160 C 0.17649 0.16816 0.99437 0.0
C1161 C 0.19907 0.16439 0.98508 0.0
C1162 C 0.23313 0.16377 0.98841 0.0
C1163 C 0.24454 0.16847 0.00074 0.0
C1164 C 0.18759 0.1662 0.97183 0.0
C1165 C 0.19853 0.19326 0.9651 0.0
C1166 C 0.16432 0.14373 0.96611 0.0
C1167 C 0.15269 0.1141 0.97268 0.0
C1168 C 0.17553 0.09182 0.97839 0.0
C1169 C 0.16441 0.064 0.98458 0.0
C1170 C 0.13049 0.05804 0.98506 0.0
C1171 C 0.10761 0.07975 0.97927 0.0
C1172 C 0.1186 0.10765 0.97309 0.0
C1173 C 0.16215 0.20247 0.91394 0.0
C1174 C 0.12946 0.21377 0.91211 0.0
C1175 C 0.17226 0.18621 0.92485 0.0
C1176 C 0.15007 0.1822 0.93425 0.0
C1177 C 0.11651 0.19025 0.93184 0.0
C1178 C 0.10621 0.20599 0.92076 0.0
C1179 C 0.16319 0.1766 0.94715 0.0
C1180 C 0.15232 0.14929 0.9538 0.0
C1181 C 0.18627 0.19906 0.95296 0.0
C1182 C 0.19685 0.22975 0.94679 0.0
C1183 C 0.17341 0.2538 0.94281 0.0
C1184 C 0.18342 0.28223 0.93671 0.0
C1185 C 0.21686 0.28707 0.93467 0.0
C1186 C 0.24038 0.26354 0.93875 0.0
C1187 C 0.23048 0.235 0.94482 0.0
H1188 H 0.22457 0.30909 0.92994 0.0
H1189 H 0.12193 0.03646 0.98984 0.0
H1190 H 0.08152 0.78946 0.25775 0.0
H1191 H 0.07896 0.78477 0.23508 0.0
H1192 H 0.09336 0.6789 0.2378 0.0
H1193 H 0.09467 0.68301 0.26033 0.0
H1194 H 0.13734 0.71167 0.22256 0.0
H1195 H 0.01977 0.70532 0.22902 0.0
H1196 H 0.96703 0.72559 0.23665 0.0
H1197 H 0.97403 0.81402 0.21502 0.0
H1198 H 0.02717 0.79456 0.20749 0.0
H1199 H 0.11746 0.65122 0.16336 0.0
H1200 H 0.0993 0.66047 0.1843 0.0
H1201 H 0.08607 0.76469 0.17657 0.0
H1202 H 0.10341 0.75543 0.15551 0.0
H1203 H 0.04023 0.73751 0.19398 0.0
H1204 H 0.15619 0.74648 0.18746 0.0
H1205 H 0.20907 0.72825 0.17936 0.0
H1206 H 0.207 0.63975 0.20119 0.0
H1207 H 0.15376 0.65719 0.20925 0.0
C1208 C 0.08368 0.76511 0.25354 0.0
C1209 C 0.08863 0.73664 0.2609 0.0
C1210 C 0.08224 0.76252 0.24059 0.0
C1211 C 0.08591 0.73148 0.23482 0.0
C1212 C 0.09061 0.70308 0.24211 0.0
C1213 C 0.09169 0.70557 0.255 0.0
C1214 C 0.08669 0.72849 0.2212 0.0
C1215 C 0.11602 0.7171 0.21633 0.0
C1216 C 0.05922 0.7367 0.21308 0.0
C1217 C 0.02753 0.74858 0.21775 0.0
C1218 C 0.01022 0.72923 0.22599 0.0
C1219 C 0.98024 0.74056 0.23029 0.0
C1220 C 0.96721 0.7711 0.22634 0.0
C1221 C 0.98414 0.79037 0.21808 0.0
C1222 C 0.01418 0.7792 0.21379 0.0
C1223 C 0.10934 0.67583 0.16598 0.0
C1224 C 0.11192 0.70265 0.15789 0.0
C1225 C 0.09899 0.68109 0.17792 0.0
C1226 C 0.09172 0.71333 0.18199 0.0
C1227 C 0.09118 0.73961 0.17355 0.0
C1228 C 0.1012 0.73428 0.16153 0.0
C1229 C 0.09067 0.72016 0.19542 0.0
C1230 C 0.06155 0.7324 0.20023 0.0
C1231 C 0.11856 0.71336 0.20354 0.0
C1232 C 0.15083 0.70298 0.19886 0.0
C1233 C 0.16688 0.723 0.19046 0.0
C1234 C 0.19693 0.71283 0.18588 0.0
C1235 C 0.21135 0.68282 0.18974 0.0
C1236 C 0.19578 0.66297 0.1982 0.0
C1237 C 0.16567 0.67299 0.20278 0.0
H1238 H 0.23463 0.675 0.18619 0.0
H1239 H 0.94397 0.7798 0.22966 0.0
H1240 H 0.65843 0.73525 0.5107 0.0
H1241 H 0.63323 0.72316 0.49003 0.0
H1242 H 0.6912 0.6334 0.48821 0.0
H1243 H 0.71649 0.64541 0.50902 0.0
H1244 H 0.69575 0.67458 0.4677 0.0
H1245 H 0.61122 0.62422 0.4895 0.0
H1246 H 0.5708 0.61894 0.50557 0.0
H1247 H 0.51822 0.70435 0.49124 0.0
H1248 H 0.55859 0.71049 0.47518 0.0
H1249 H 0.62217 0.67934 0.40663 0.0
H1250 H 0.63448 0.65269 0.42676 0.0
H1251 H 0.58386 0.73234 0.44489 0.0
H1252 H 0.57053 0.75798 0.42487 0.0
H1253 H 0.5749 0.67568 0.45666 0.0
H1254 H 0.66843 0.73512 0.44015 0.0
H1255 H 0.70971 0.74431 0.42459 0.0
H1256 H 0.74555 0.64457 0.42957 0.0
H1257 H 0.70419 0.63473 0.44507 0.0
C1258 C 0.66558 0.71281 0.50593 0.0
C1259 C 0.68946 0.69132 0.5114 0.0
C1260 C 0.65098 0.70576 0.49419 0.0
C1261 C 0.66012 0.6772 0.48765 0.0
C1262 C 0.68365 0.65541 0.49315 0.0
C1263 C 0.69798 0.66224 0.50501 0.0
C1264 C 0.64702 0.67218 0.47468 0.0
C1265 C 0.66934 0.67376 0.46526 0.0
C1266 C 0.61259 0.67147 0.47154 0.0
C1267 C 0.58805 0.66786 0.48114 0.0
C1268 C 0.59117 0.64202 0.48981 0.0
C1269 C 0.56824 0.63885 0.49892 0.0
C1270 C 0.54197 0.66131 0.49943 0.0
C1271 C 0.53856 0.68695 0.49082 0.0
C1272 C 0.56144 0.69025 0.4817 0.0
C1273 C 0.61263 0.69031 0.4149 0.0
C1274 C 0.59518 0.72046 0.41425 0.0
C1275 C 0.61992 0.6753 0.42638 0.0
C1276 C 0.61045 0.69076 0.43736 0.0
C1277 C 0.59133 0.71985 0.43657 0.0
C1278 C 0.58389 0.73462 0.42514 0.0
C1279 C 0.6236 0.67972 0.44976 0.0
C1280 C 0.60131 0.67517 0.45908 0.0
C1281 C 0.65809 0.67809 0.45285 0.0
C1282 C 0.68302 0.68407 0.44362 0.0
C1283 C 0.68501 0.71512 0.43786 0.0
C1284 C 0.70841 0.72044 0.42906 0.0
C1285 C 0.73016 0.695 0.42606 0.0
C1286 C 0.72863 0.66422 0.43188 0.0
C1287 C 0.70522 0.65875 0.44067 0.0
H1288 H 0.74826 0.69917 0.41925 0.0
H1289 H 0.52425 0.65882 0.50649 0.0
H1290 H 0.54071 0.24202 0.75999 0.0
H1291 H 0.54243 0.23868 0.73741 0.0
H1292 H 0.64191 0.19974 0.74131 0.0
H1293 H 0.64081 0.20411 0.76383 0.0
H1294 H 0.63779 0.24722 0.72451 0.0
H1295 H 0.57525 0.14964 0.73349 0.0
H1296 H 0.52956 0.11842 0.74208 0.0
H1297 H 0.4588 0.17316 0.71914 0.0
H1298 H 0.50407 0.20505 0.71054 0.0
H1299 H 0.62734 0.15418 0.66373 0.0
H1300 H 0.60806 0.15826 0.68479 0.0
H1301 H 0.60077 0.26473 0.68126 0.0
H1302 H 0.62129 0.26069 0.66042 0.0
H1303 H 0.55568 0.18448 0.69751 0.0
H1304 H 0.63957 0.29791 0.70716 0.0
H1305 H 0.68777 0.32501 0.69852 0.0
H1306 H 0.72049 0.23087 0.68475 0.0
H1307 H 0.6728 0.20319 0.69347 0.0
C1308 C 0.56303 0.23296 0.75603 0.0
C1309 C 0.59066 0.22336 0.76371 0.0
C1310 C 0.56384 0.23075 0.74313 0.0
C1311 C 0.59219 0.21872 0.73768 0.0
C1312 C 0.61974 0.20905 0.74532 0.0
C1313 C 0.61898 0.2113 0.7582 0.0
C1314 C 0.59373 0.21702 0.72401 0.0
C1315 C 0.6197 0.23362 0.71863 0.0
C1316 C 0.57025 0.19914 0.71632 0.0
C1317 C 0.54303 0.17999 0.72148 0.0
C1318 C 0.54993 0.15522 0.73036 0.0
C1319 C 0.52411 0.13737 0.73522 0.0
C1320 C 0.4913 0.14387 0.73119 0.0
C1321 C 0.48423 0.16819 0.72227 0.0
C1322 C 0.50996 0.18615 0.7174 0.0
C1323 C 0.62055 0.17829 0.66734 0.0
C1324 C 0.62504 0.20711 0.66043 0.0
C1325 C 0.60943 0.18059 0.67932 0.0
C1326 C 0.60321 0.21181 0.68459 0.0
C1327 C 0.60542 0.24041 0.67734 0.0
C1328 C 0.61667 0.23808 0.66539 0.0
C1329 C 0.5996 0.21476 0.69811 0.0
C1330 C 0.57339 0.19843 0.70343 0.0
C1331 C 0.62318 0.23237 0.70583 0.0
C1332 C 0.65244 0.2486 0.70084 0.0
C1333 C 0.65715 0.28301 0.70233 0.0
C1334 C 0.68437 0.29846 0.69742 0.0
C1335 C 0.70711 0.27969 0.69105 0.0
C1336 C 0.7028 0.2454 0.68965 0.0
C1337 C 0.67568 0.22982 0.69457 0.0
H1338 H 0.72811 0.29171 0.68723 0.0
H1339 H 0.47134 0.13001 0.73496 0.0
H1340 H 0.15167 0.64404 0.9755 0.0
H1341 H 0.1563 0.62911 0.9975 0.0
H1342 H 0.12704 0.72852 0.00739 0.0
H1343 H 0.12352 0.74385 0.9856 0.0
H1344 H 0.17763 0.70884 0.02212 0.0
H1345 H 0.07244 0.66273 0.0063 0.0
H1346 H 0.03656 0.62679 0.99266 0.0
H1347 H 0.08916 0.54057 0.00627 0.0
H1348 H 0.12564 0.5761 0.01989 0.0
H1349 H 0.07432 0.6862 0.07475 0.0
H1350 H 0.08261 0.66863 0.05351 0.0
H1351 H 0.18633 0.65216 0.06315 0.0
H1352 H 0.17829 0.67066 0.08441 0.0
H1353 H 0.10767 0.62035 0.0387 0.0
H1354 H 0.22819 0.69396 0.04197 0.0
H1355 H 0.25795 0.73445 0.05587 0.0
H1356 H 0.16523 0.77288 0.06721 0.0
H1357 H 0.13502 0.73297 0.05325 0.0
C1358 C 0.14655 0.66277 0.98239 0.0
C1359 C 0.13703 0.6951 0.97879 0.0
C1360 C 0.14897 0.65413 0.99494 0.0
C1361 C 0.14185 0.67765 0.00408 0.0
C1362 C 0.13271 0.70996 0.0005 0.0
C1363 C 0.13034 0.7186 0.98802 0.0
C1364 C 0.14336 0.66908 0.01744 0.0
C1365 C 0.16275 0.68909 0.02571 0.0
C1366 C 0.12391 0.64339 0.02216 0.0
C1367 C 0.10204 0.62209 0.01397 0.0
C1368 C 0.07654 0.63614 0.0063 0.0
C1369 C 0.05606 0.61584 0.99859 0.0
C1370 C 0.06066 0.58143 0.99856 0.0
C1371 C 0.08568 0.56724 0.00628 0.0
C1372 C 0.10626 0.58744 0.01399 0.0
C1373 C 0.09865 0.67766 0.07246 0.0
C1374 C 0.12573 0.68017 0.08117 0.0
C1375 C 0.10333 0.66739 0.06032 0.0
C1376 C 0.13521 0.65974 0.0567 0.0
C1377 C 0.16157 0.65827 0.06576 0.0
C1378 C 0.1569 0.66865 0.07793 0.0
C1379 C 0.14144 0.66051 0.04332 0.0
C1380 C 0.12351 0.63919 0.03505 0.0
C1381 C 0.16157 0.68557 0.03855 0.0
C1382 C 0.17945 0.71025 0.0467 0.0
C1383 C 0.21422 0.71116 0.0474 0.0
C1384 C 0.23114 0.73399 0.05529 0.0
C1385 C 0.21349 0.75614 0.06245 0.0
C1386 C 0.17887 0.75566 0.06168 0.0
C1387 C 0.16185 0.73296 0.05379 0.0
H1388 H 0.22663 0.77372 0.06858 0.0
H1389 H 0.04477 0.56575 0.99259 0.0
H1390 H 0.70955 0.78693 0.2383 0.0
H1391 H 0.70763 0.77349 0.26037 0.0
H1392 H 0.61202 0.8208 0.26123 0.0
H1393 H 0.61391 0.83449 0.23929 0.0
H1394 H 0.65437 0.83721 0.28171 0.0
H1395 H 0.61699 0.73856 0.25829 0.0
H1396 H 0.62392 0.6928 0.24332 0.0
H1397 H 0.70956 0.65842 0.2649 0.0
H1398 H 0.70336 0.70429 0.27992 0.0
H1399 H 0.55827 0.77318 0.32666 0.0
H1400 H 0.5832 0.78679 0.30729 0.0
H1401 H 0.67085 0.73141 0.31894 0.0
H1402 H 0.6455 0.71747 0.33848 0.0
H1403 H 0.64765 0.71899 0.29399 0.0
H1404 H 0.67628 0.81009 0.31998 0.0
H1405 H 0.66644 0.85349 0.33553 0.0
H1406 H 0.59937 0.90303 0.30951 0.0
H1407 H 0.60745 0.85891 0.294 0.0
C1408 C 0.68829 0.79472 0.24325 0.0
C1409 C 0.66176 0.81157 0.23706 0.0
C1410 C 0.68719 0.78693 0.25582 0.0
C1411 C 0.65963 0.79606 0.26241 0.0
C1412 C 0.63354 0.81358 0.25632 0.0
C1413 C 0.6345 0.82111 0.24376 0.0
C1414 C 0.65694 0.78635 0.27551 0.0
C1415 C 0.65292 0.8114 0.28442 0.0
C1416 C 0.65635 0.75264 0.27912 0.0
C1417 C 0.65998 0.72506 0.27013 0.0
C1418 C 0.63746 0.7214 0.25978 0.0
C1419 C 0.64122 0.69543 0.2513 0.0
C1420 C 0.66723 0.67278 0.25313 0.0
C1421 C 0.68947 0.67602 0.26347 0.0
C1422 C 0.68585 0.70199 0.27197 0.0
C1423 C 0.58288 0.76396 0.32508 0.0
C1424 C 0.60033 0.74486 0.33406 0.0
C1425 C 0.59713 0.77181 0.31406 0.0
C1426 C 0.62905 0.76053 0.31177 0.0
C1427 C 0.64627 0.74052 0.32059 0.0
C1428 C 0.63195 0.73277 0.33172 0.0
C1429 C 0.6437 0.76987 0.30005 0.0
C1430 C 0.65002 0.74482 0.2914 0.0
C1431 C 0.64659 0.80362 0.29669 0.0
C1432 C 0.64236 0.83096 0.30583 0.0
C1433 C 0.65919 0.83004 0.3176 0.0
C1434 C 0.65389 0.85478 0.32642 0.0
C1435 C 0.63243 0.88112 0.32349 0.0
C1436 C 0.61606 0.88264 0.31175 0.0
C1437 C 0.6209 0.85767 0.30295 0.0
H1438 H 0.62846 0.90034 0.33032 0.0
H1439 H 0.6701 0.65268 0.24656 0.0
H1440 H 0.62774 0.2352 0.48785 0.0
H1441 H 0.63727 0.22172 0.50973 0.0
H1442 H 0.67159 0.12408 0.49985 0.0
H1443 H 0.66147 0.13723 0.47779 0.0
H1444 H 0.62991 0.12281 0.51946 0.0
H1445 H 0.7281 0.17735 0.50957 0.0
H1446 H 0.76233 0.22009 0.5003 0.0
H1447 H 0.72108 0.2949 0.52343 0.0
H1448 H 0.68619 0.25273 0.5327 0.0
H1449 H 0.69564 0.18639 0.58662 0.0
H1450 H 0.70666 0.16311 0.56617 0.0
H1451 H 0.60324 0.17379 0.55463 0.0
H1452 H 0.59231 0.19706 0.57491 0.0
H1453 H 0.69738 0.20157 0.54597 0.0
H1454 H 0.58075 0.11895 0.53253 0.0
H1455 H 0.5493 0.07436 0.54199 0.0
H1456 H 0.63404 0.05032 0.56602 0.0
H1457 H 0.66622 0.09451 0.55666 0.0
C1458 C 0.63693 0.2107 0.4903 0.0
C1459 C 0.64386 0.1873 0.48108 0.0
C1460 C 0.64267 0.20313 0.50281 0.0
C1461 C 0.65558 0.17206 0.5064 0.0
C1462 C 0.66182 0.14826 0.49726 0.0
C1463 C 0.65621 0.15589 0.48468 0.0
C1464 C 0.66251 0.16512 0.51975 0.0
C1465 C 0.64495 0.1397 0.52529 0.0
C1466 C 0.68331 0.18628 0.52727 0.0
C1467 C 0.70445 0.21183 0.52181 0.0
C1468 C 0.72618 0.20294 0.51263 0.0
C1469 C 0.74572 0.22708 0.50738 0.0
C1470 C 0.74387 0.26019 0.51127 0.0
C1471 C 0.72251 0.26923 0.52044 0.0
C1472 C 0.70288 0.2452 0.52571 0.0
C1473 C 0.67516 0.18264 0.57983 0.0
C1474 C 0.64317 0.1936 0.58225 0.0
C1475 C 0.68148 0.16943 0.56817 0.0
C1476 C 0.65576 0.16661 0.55889 0.0
C1477 C 0.62338 0.17525 0.56169 0.0
C1478 C 0.61718 0.18881 0.57324 0.0
C1479 C 0.66294 0.16075 0.54576 0.0
C1480 C 0.68315 0.1839 0.5402 0.0
C1481 C 0.6451 0.13709 0.53827 0.0
C1482 C 0.62591 0.1102 0.54388 0.0
C1483 C 0.5928 0.10403 0.53977 0.0
C1484 C 0.57481 0.07887 0.54515 0.0
C1485 C 0.58967 0.05958 0.55462 0.0
C1486 C 0.62256 0.06538 0.55873 0.0
C1487 C 0.64066 0.09055 0.5534 0.0
H1488 H 0.5757 0.04011 0.55877 0.0
H1489 H 0.75901 0.27884 0.50719 0.0
H1490 H 0.18442 0.36519 0.74759 0.0
H1491 H 0.18595 0.34761 0.76924 0.0
H1492 H 0.17173 0.24581 0.7573 0.0
H1493 H 0.17049 0.26311 0.73568 0.0
H1494 H 0.12763 0.26413 0.77339 0.0
H1495 H 0.24427 0.2728 0.77066 0.0
H1496 H 0.29698 0.29967 0.76632 0.0
H1497 H 0.2828 0.37203 0.79496 0.0
H1498 H 0.22939 0.34634 0.7992 0.0
H1499 H 0.12975 0.19695 0.83227 0.0
H1500 H 0.15394 0.20835 0.81252 0.0
H1501 H 0.15836 0.31276 0.82177 0.0
H1502 H 0.13396 0.30149 0.84154 0.0
H1503 H 0.21208 0.28985 0.80733 0.0
H1504 H 0.09215 0.28742 0.80708 0.0
H1505 H 0.03857 0.26202 0.81135 0.0
H1506 H 0.06027 0.1783 0.78826 0.0
H1507 H 0.11426 0.20302 0.78402 0.0
C1508 C 0.18222 0.33898 0.74958 0.0
C1509 C 0.17696 0.31558 0.73991 0.0
C1510 C 0.18318 0.32898 0.76196 0.0
C1511 C 0.17911 0.29537 0.76489 0.0
C1512 C 0.17486 0.27188 0.75525 0.0
C1513 C 0.17388 0.28184 0.7429 0.0
C1514 C 0.17592 0.28507 0.77792 0.0
C1515 C 0.14645 0.26925 0.78074 0.0
C1516 C 0.20014 0.29248 0.78758 0.0
C1517 C 0.23243 0.30791 0.7851 0.0
C1518 C 0.25207 0.29476 0.7759 0.0
C1519 C 0.28208 0.30983 0.77345 0.0
C1520 C 0.29308 0.33773 0.78028 0.0
C1521 C 0.27414 0.35055 0.78962 0.0
C1522 C 0.24394 0.33577 0.79203 0.0
C1523 C 0.13668 0.2222 0.83022 0.0
C1524 C 0.12996 0.24836 0.83839 0.0
C1525 C 0.15061 0.22866 0.81898 0.0
C1526 C 0.15757 0.26142 0.81566 0.0
C1527 C 0.15328 0.2873 0.82421 0.0
C1528 C 0.13931 0.28083 0.83548 0.0
C1529 C 0.1639 0.26914 0.80264 0.0
C1530 C 0.19366 0.28452 0.79987 0.0
C1531 C 0.13998 0.26155 0.79295 0.0
C1532 C 0.10736 0.24688 0.79535 0.0
C1533 C 0.08559 0.26348 0.80299 0.0
C1534 C 0.05515 0.24923 0.8054 0.0
C1535 C 0.04606 0.21852 0.80011 0.0
C1536 C 0.06737 0.20206 0.79237 0.0
C1537 C 0.09789 0.21618 0.78996 0.0
H1538 H 0.02248 0.20752 0.80198 0.0
H1539 H 0.31643 0.34923 0.77842 0.0
loop_
_geom_bond_atom_site_label_1
_geom_bond_atom_site_label_2
_geom_bond_distance
_geom_bond_site_symmetry_2
_ccdc_geom_bond_type
P0 O11 1.490 . S
P0 C14 1.812 . S
P0 C20 1.803 . S
P0 C26 1.819 . S
H1 C15 0.941 . S
H2 C16 0.939 . S
H3 C18 0.940 . S
H4 C19 0.940 . S
H5 C21 0.939 . S
H6 C22 0.942 . S
H7 C24 0.940 . S
H8 C25 0.939 . S
H9 C27 0.941 . S
H10 C31 0.939 . S
O11 P0 1.490 . S
H12 C28 0.939 . S
H13 C30 0.940 . S
C14 P0 1.812 . S
C14 C15 1.389 . S
C14 C19 1.391 . S
C15 H1 0.941 . S
C15 C14 1.389 . S
C15 C16 1.397 . S
C16 H2 0.939 . S
C16 C15 1.397 . S
C16 C17 1.378 . S
C17 C16 1.378 . S
C17 C18 1.378 . S
C18 H3 0.940 . S
C18 C17 1.378 . S
C18 C19 1.396 . S
C19 H4 0.940 . S
C19 C14 1.391 . S
C19 C18 1.396 . S
C20 P0 1.803 . S
C20 C21 1.378 . S
C20 C25 1.400 . S
C21 H5 0.939 . S
C21 C20 1.378 . S
C21 C22 1.361 . S
C22 H6 0.942 . S
C22 C21 1.361 . S
C22 C23 1.369 . S
C23 C22 1.369 . S
C23 C24 1.404 . S
C24 H7 0.940 . S
C24 C23 1.404 . S
C24 C25 1.389 . S
C25 H8 0.939 . S
C25 C20 1.400 . S
C25 C24 1.389 . S
C26 P0 1.819 . S
C26 C27 1.391 . S
C26 C31 1.391 . S
C27 H9 0.941 . S
C27 C26 1.391 . S
C27 C28 1.396 . S
C28 H12 0.939 . S
C28 C27 1.396 . S
C28 C29 1.397 . S
C29 C28 1.397 . S
C29 C30 1.385 . S
C30 H13 0.940 . S
C30 C29 1.385 . S
C30 C31 1.388 . S
C31 H10 0.939 . S
C31 C26 1.391 . S
C31 C30 1.388 . S
P32 O43 1.490 . S
P32 C46 1.812 . S
P32 C52 1.803 . S
P32 C58 1.819 . S
H33 C47 0.941 . S
H34 C48 0.939 . S
H35 C50 0.940 . S
H36 C51 0.940 . S
H37 C53 0.939 . S
H38 C54 0.942 . S
H39 C56 0.940 . S
H40 C57 0.939 . S
H41 C59 0.941 . S
H42 C63 0.939 . S
O43 P32 1.490 . S
H44 C60 0.939 . S
H45 C62 0.940 . S
C46 P32 1.812 . S
C46 C47 1.389 . S
C46 C51 1.391 . S
C47 H33 0.941 . S
C47 C46 1.389 . S
C47 C48 1.397 . S
C48 H34 0.939 . S
C48 C47 1.397 . S
C48 C49 1.378 . S
C49 C48 1.378 . S
C49 C50 1.378 . S
C50 H35 0.940 . S
C50 C49 1.378 . S
C50 C51 1.396 . S
C51 H36 0.940 . S
C51 C46 1.391 . S
C51 C50 1.396 . S
C52 P32 1.803 . S
C52 C53 1.378 . S
C52 C57 1.400 . S
C53 H37 0.939 . S
C53 C52 1.378 . S
C53 C54 1.361 . S
C54 H38 0.942 . S
C54 C53 1.361 . S
C54 C55 1.369 . S
C55 C54 1.369 . S
C55 C56 1.404 . S
C56 H39 0.940 . S
C56 C55 1.404 . S
C56 C57 1.389 . S
C57 H40 0.939 . S
C57 C52 1.400 . S
C57 C56 1.389 . S
C58 P32 1.819 . S
C58 C59 1.391 . S
C58 C63 1.391 . S
C59 H41 0.941 . S
C59 C58 1.391 . S
C59 C60 1.396 . S
C60 H44 0.939 . S
C60 C59 1.396 . S
C60 C61 1.397 . S
C61 C60 1.397 . S
C61 C62 1.385 . S
C62 H45 0.940 . S
C62 C61 1.385 . S
C62 C63 1.388 . S
C63 H42 0.939 . S
C63 C58 1.391 . S
C63 C62 1.388 . S
P64 O75 1.490 . S
P64 C78 1.812 . S
P64 C84 1.803 . S
P64 C90 1.819 . S
H65 C79 0.941 . S
H66 C80 0.939 . S
H67 C82 0.940 . S
H68 C83 0.940 . S
H69 C85 0.939 . S
H70 C86 0.942 . S
H71 C88 0.940 . S
H72 C89 0.939 . S
H73 C91 0.941 . S
H74 C95 0.939 . S
O75 P64 1.490 . S
H76 C92 0.939 . S
H77 C94 0.940 . S
C78 P64 1.812 . S
C78 C79 1.389 . S
C78 C83 1.391 . S
C79 H65 0.941 . S
C79 C78 1.389 . S
C79 C80 1.397 . S
C80 H66 0.939 . S
C80 C79 1.397 . S
C80 C81 1.378 . S
C81 C80 1.378 . S
C81 C82 1.378 . S
C82 H67 0.940 . S
C82 C81 1.378 . S
C82 C83 1.396 . S
C83 H68 0.940 . S
C83 C78 1.391 . S
C83 C82 1.396 . S
C84 P64 1.803 . S
C84 C85 1.378 . S
C84 C89 1.400 . S
C85 H69 0.939 . S
C85 C84 1.378 . S
C85 C86 1.361 . S
C86 H70 0.942 . S
C86 C85 1.361 . S
C86 C87 1.369 . S
C87 C86 1.369 . S
C87 C88 1.404 . S
C88 H71 0.940 . S
C88 C87 1.404 . S
C88 C89 1.389 . S
C89 H72 0.939 . S
C89 C84 1.400 . S
C89 C88 1.389 . S
C90 P64 1.819 . S
C90 C91 1.391 . S
C90 C95 1.391 . S
C91 H73 0.941 . S
C91 C90 1.391 . S
C91 C92 1.396 . S
C92 H76 0.939 . S
C92 C91 1.396 . S
C92 C93 1.397 . S
C93 C92 1.397 . S
C93 C94 1.385 . S
C94 H77 0.940 . S
C94 C93 1.385 . S
C94 C95 1.388 . S
C95 H74 0.939 . S
C95 C90 1.391 . S
C95 C94 1.388 . S
P96 O107 1.490 . S
P96 C110 1.812 . S
P96 C116 1.803 . S
P96 C122 1.819 . S
H97 C111 0.941 . S
H98 C112 0.939 . S
H99 C114 0.940 . S
H100 C115 0.940 . S
H101 C117 0.939 . S
H102 C118 0.942 . S
H103 C120 0.940 . S
H104 C121 0.939 . S
H105 C123 0.941 . S
H106 C127 0.939 . S
O107 P96 1.490 . S
H108 C124 0.939 . S
H109 C126 0.940 . S
C110 P96 1.812 . S
C110 C111 1.389 . S
C110 C115 1.391 . S
C111 H97 0.941 . S
C111 C110 1.389 . S
C111 C112 1.397 . S
C112 H98 0.939 . S
C112 C111 1.397 . S
C112 C113 1.378 . S
C113 C112 1.378 . S
C113 C114 1.378 . S
C114 H99 0.940 . S
C114 C113 1.378 . S
C114 C115 1.396 . S
C115 H100 0.940 . S
C115 C110 1.391 . S
C115 C114 1.396 . S
C116 P96 1.803 . S
C116 C117 1.378 . S
C116 C121 1.400 . S
C117 H101 0.939 . S
C117 C116 1.378 . S
C117 C118 1.361 . S
C118 H102 0.942 . S
C118 C117 1.361 . S
C118 C119 1.369 . S
C119 C118 1.369 . S
C119 C120 1.404 . S
C120 H103 0.940 . S
C120 C119 1.404 . S
C120 C121 1.389 . S
C121 H104 0.939 . S
C121 C116 1.400 . S
C121 C120 1.389 . S
C122 P96 1.819 . S
C122 C123 1.391 . S
C122 C127 1.391 . S
C123 H105 0.941 . S
C123 C122 1.391 . S
C123 C124 1.396 . S
C124 H108 0.939 . S
C124 C123 1.396 . S
C124 C125 1.397 . S
C125 C124 1.397 . S
C125 C126 1.385 . S
C126 H109 0.940 . S
C126 C125 1.385 . S
C126 C127 1.388 . S
C127 H106 0.939 . S
C127 C122 1.391 . S
C127 C126 1.388 . S
P128 O139 1.490 . S
P128 C142 1.812 . S
P128 C148 1.803 . S
P128 C154 1.819 . S
H129 C143 0.941 . S
H130 C144 0.939 . S
H131 C146 0.940 . S
H132 C147 0.940 . S
H133 C149 0.939 . S
H134 C150 0.942 . S
H135 C152 0.940 . S
H136 C153 0.939 . S
H137 C155 0.941 . S
H138 C159 0.939 . S
O139 P128 1.490 . S
H140 C156 0.939 . S
H141 C158 0.940 . S
C142 P128 1.812 . S
C142 C143 1.389 . S
C142 C147 1.391 . S
C143 H129 0.941 . S
C143 C142 1.389 . S
C143 C144 1.397 . S
C144 H130 0.939 . S
C144 C143 1.397 . S
C144 C145 1.378 . S
C145 C144 1.378 . S
C145 C146 1.378 . S
C146 H131 0.940 . S
C146 C145 1.378 . S
C146 C147 1.396 . S
C147 H132 0.940 . S
C147 C142 1.391 . S
C147 C146 1.396 . S
C148 P128 1.803 . S
C148 C149 1.378 . S
C148 C153 1.400 . S
C149 H133 0.939 . S
C149 C148 1.378 . S
C149 C150 1.361 . S
C150 H134 0.942 . S
C150 C149 1.361 . S
C150 C151 1.369 . S
C151 C150 1.369 . S
C151 C152 1.404 . S
C152 H135 0.940 . S
C152 C151 1.404 . S
C152 C153 1.389 . S
C153 H136 0.939 . S
C153 C148 1.400 . S
C153 C152 1.389 . S
C154 P128 1.819 . S
C154 C155 1.391 . S
C154 C159 1.391 . S
C155 H137 0.941 . S
C155 C154 1.391 . S
C155 C156 1.396 . S
C156 H140 0.939 . S
C156 C155 1.396 . S
C156 C157 1.397 . S
C157 C156 1.397 . S
C157 C158 1.385 . S
C158 H141 0.940 . S
C158 C157 1.385 . S
C158 C159 1.388 . S
C159 H138 0.939 . S
C159 C154 1.391 . S
C159 C158 1.388 . S
P160 O171 1.490 . S
P160 C174 1.812 . S
P160 C180 1.803 . S
P160 C186 1.819 . S
H161 C175 0.941 . S
H162 C176 0.939 . S
H163 C178 0.940 . S
H164 C179 0.940 . S
H165 C181 0.939 . S
H166 C182 0.942 . S
H167 C184 0.940 . S
H168 C185 0.939 . S
H169 C187 0.941 . S
H170 C191 0.939 . S
O171 P160 1.490 . S
H172 C188 0.939 . S
H173 C190 0.940 . S
C174 P160 1.812 . S
C174 C175 1.389 . S
C174 C179 1.391 . S
C175 H161 0.941 . S
C175 C174 1.389 . S
C175 C176 1.397 . S
C176 H162 0.939 . S
C176 C175 1.397 . S
C176 C177 1.378 . S
C177 C176 1.378 . S
C177 C178 1.378 . S
C178 H163 0.940 . S
C178 C177 1.378 . S
C178 C179 1.396 . S
C179 H164 0.940 . S
C179 C174 1.391 . S
C179 C178 1.396 . S
C180 P160 1.803 . S
C180 C181 1.378 . S
C180 C185 1.400 . S
C181 H165 0.939 . S
C181 C180 1.378 . S
C181 C182 1.361 . S
C182 H166 0.942 . S
C182 C181 1.361 . S
C182 C183 1.369 . S
C183 C182 1.369 . S
C183 C184 1.404 . S
C184 H167 0.940 . S
C184 C183 1.404 . S
C184 C185 1.389 . S
C185 H168 0.939 . S
C185 C180 1.400 . S
C185 C184 1.389 . S
C186 P160 1.819 . S
C186 C187 1.391 . S
C186 C191 1.391 . S
C187 H169 0.941 . S
C187 C186 1.391 . S
C187 C188 1.396 . S
C188 H172 0.939 . S
C188 C187 1.396 . S
C188 C189 1.397 . S
C189 C188 1.397 . S
C189 C190 1.385 . S
C190 H173 0.940 . S
C190 C189 1.385 . S
C190 C191 1.388 . S
C191 H170 0.939 . S
C191 C186 1.391 . S
C191 C190 1.388 . S
P192 O203 1.490 . S
P192 C206 1.812 . S
P192 C212 1.803 . S
P192 C218 1.819 . S
H193 C207 0.941 . S
H194 C208 0.939 . S
H195 C210 0.940 . S
H196 C211 0.940 . S
H197 C213 0.939 . S
H198 C214 0.942 . S
H199 C216 0.940 . S
H200 C217 0.939 . S
H201 C219 0.941 . S
H202 C223 0.939 . S
O203 P192 1.490 . S
H204 C220 0.939 . S
H205 C222 0.940 . S
C206 P192 1.812 . S
C206 C207 1.389 . S
C206 C211 1.391 . S
C207 H193 0.941 . S
C207 C206 1.389 . S
C207 C208 1.397 . S
C208 H194 0.939 . S
C208 C207 1.397 . S
C208 C209 1.378 . S
C209 C208 1.378 . S
C209 C210 1.378 . S
C210 H195 0.940 . S
C210 C209 1.378 . S
C210 C211 1.396 . S
C211 H196 0.940 . S
C211 C206 1.391 . S
C211 C210 1.396 . S
C212 P192 1.803 . S
C212 C213 1.378 . S
C212 C217 1.400 . S
C213 H197 0.939 . S
C213 C212 1.378 . S
C213 C214 1.361 . S
C214 H198 0.942 . S
C214 C213 1.361 . S
C214 C215 1.369 . S
C215 C214 1.369 . S
C215 C216 1.404 . S
C216 H199 0.940 . S
C216 C215 1.404 . S
C216 C217 1.389 . S
C217 H200 0.939 . S
C217 C212 1.400 . S
C217 C216 1.389 . S
C218 P192 1.819 . S
C218 C219 1.391 . S
C218 C223 1.391 . S
C219 H201 0.941 . S
C219 C218 1.391 . S
C219 C220 1.396 . S
C220 H204 0.939 . S
C220 C219 1.396 . S
C220 C221 1.397 . S
C221 C220 1.397 . S
C221 C222 1.385 . S
C222 H205 0.940 . S
C222 C221 1.385 . S
C222 C223 1.388 . S
C223 H202 0.939 . S
C223 C218 1.391 . S
C223 C222 1.388 . S
P224 O235 1.490 . S
P224 C238 1.812 . S
P224 C244 1.803 . S
P224 C250 1.819 . S
H225 C239 0.941 . S
H226 C240 0.939 . S
H227 C242 0.940 . S
H228 C243 0.940 . S
H229 C245 0.939 . S
H230 C246 0.942 . S
H231 C248 0.940 . S
H232 C249 0.939 . S
H233 C251 0.941 . S
H234 C255 0.939 . S
O235 P224 1.490 . S
H236 C252 0.939 . S
H237 C254 0.940 . S
C238 P224 1.812 . S
C238 C239 1.389 . S
C238 C243 1.391 . S
C239 H225 0.941 . S
C239 C238 1.389 . S
C239 C240 1.397 . S
C240 H226 0.939 . S
C240 C239 1.397 . S
C240 C241 1.378 . S
C241 C240 1.378 . S
C241 C242 1.378 . S
C242 H227 0.940 . S
C242 C241 1.378 . S
C242 C243 1.396 . S
C243 H228 0.940 . S
C243 C238 1.391 . S
C243 C242 1.396 . S
C244 P224 1.803 . S
C244 C245 1.378 . S
C244 C249 1.400 . S
C245 H229 0.939 . S
C245 C244 1.378 . S
C245 C246 1.361 . S
C246 H230 0.942 . S
C246 C245 1.361 . S
C246 C247 1.369 . S
C247 C246 1.369 . S
C247 C248 1.404 . S
C248 H231 0.940 . S
C248 C247 1.404 . S
C248 C249 1.389 . S
C249 H232 0.939 . S
C249 C244 1.400 . S
C249 C248 1.389 . S
C250 P224 1.819 . S
C250 C251 1.391 . S
C250 C255 1.391 . S
C251 H233 0.941 . S
C251 C250 1.391 . S
C251 C252 1.396 . S
C252 H236 0.939 . S
C252 C251 1.396 . S
C252 C253 1.397 . S
C253 C252 1.397 . S
C253 C254 1.385 . S
C254 H237 0.940 . S
C254 C253 1.385 . S
C254 C255 1.388 . S
C255 H234 0.939 . S
C255 C250 1.391 . S
C255 C254 1.388 . S
Zn256 O262 1.920 . S
Zn256 O268 1.898 . S
Zn256 O271 1.905 . S
Zn257 O265 1.905 . S
Zn257 O266 1.898 . S
Zn257 O274 1.920 . S
Zn258 O261 2.080 . S
Zn258 O264 2.114 . S
Zn258 O267 2.120 . S
Zn258 O269 2.120 . S
Zn258 O270 2.114 . S
Zn258 O273 2.080 . S
C259 O264 1.166 . S
C259 O265 1.182 . S
C260 O266 1.167 . S
C260 O267 1.299 . S
O261 Zn258 2.080 . S
O261 C275 1.305 . S
O262 Zn256 1.920 . S
O262 C275 1.234 . S
C263 O268 1.167 . S
C263 O269 1.299 . S
O264 Zn258 2.114 . S
O264 C259 1.166 . S
O265 Zn257 1.905 . S
O265 C259 1.182 . S
O266 Zn257 1.898 . S
O266 C260 1.167 . S
O267 Zn258 2.120 . S
O267 C260 1.299 . S
O268 Zn256 1.898 . S
O268 C263 1.167 . S
O269 Zn258 2.120 . S
O269 C263 1.299 . S
O270 Zn258 2.114 . S
O270 C272 1.166 . S
O271 Zn256 1.905 . S
O271 C272 1.182 . S
C272 O270 1.166 . S
C272 O271 1.182 . S
O273 Zn258 2.080 . S
O273 C276 1.305 . S
O274 Zn257 1.920 . S
O274 C276 1.234 . S
C275 O261 1.305 . S
C275 O262 1.234 . S
C276 O273 1.305 . S
C276 O274 1.234 . S
Zn277 O283 1.920 . S
Zn277 O289 1.898 . S
Zn277 O292 1.905 . S
Zn278 O286 1.905 . S
Zn278 O287 1.898 . S
Zn278 O295 1.920 . S
Zn279 O282 2.080 . S
Zn279 O285 2.114 . S
Zn279 O288 2.120 . S
Zn279 O290 2.120 . S
Zn279 O291 2.114 . S
Zn279 O294 2.080 . S
C280 O285 1.166 . S
C280 O286 1.182 . S
C281 O287 1.167 . S
C281 O288 1.299 . S
O282 Zn279 2.080 . S
O282 C296 1.305 . S
O283 Zn277 1.920 . S
O283 C296 1.234 . S
C284 O289 1.167 . S
C284 O290 1.299 . S
O285 Zn279 2.114 . S
O285 C280 1.166 . S
O286 Zn278 1.905 . S
O286 C280 1.182 . S
O287 Zn278 1.898 . S
O287 C281 1.167 . S
O288 Zn279 2.120 . S
O288 C281 1.299 . S
O289 Zn277 1.898 . S
O289 C284 1.167 . S
O290 Zn279 2.120 . S
O290 C284 1.299 . S
O291 Zn279 2.114 . S
O291 C293 1.166 . S
O292 Zn277 1.905 . S
O292 C293 1.182 . S
C293 O291 1.166 . S
C293 O292 1.182 . S
O294 Zn279 2.080 . S
O294 C297 1.305 . S
O295 Zn278 1.920 . S
O295 C297 1.234 . S
C296 O282 1.305 . S
C296 O283 1.234 . S
C297 O294 1.305 . S
C297 O295 1.234 . S
Zn298 O304 1.920 . S
Zn298 O310 1.898 . S
Zn298 O313 1.905 . S
Zn299 O307 1.905 . S
Zn299 O308 1.898 . S
Zn299 O316 1.920 . S
Zn300 O303 2.080 . S
Zn300 O306 2.114 . S
Zn300 O309 2.120 . S
Zn300 O311 2.120 . S
Zn300 O312 2.114 . S
Zn300 O315 2.080 . S
C301 O306 1.166 . S
C301 O307 1.182 . S
C302 O308 1.167 . S
C302 O309 1.299 . S
O303 Zn300 2.080 . S
O303 C317 1.305 . S
O304 Zn298 1.920 . S
O304 C317 1.234 . S
C305 O310 1.167 . S
C305 O311 1.299 . S
O306 Zn300 2.114 . S
O306 C301 1.166 . S
O307 Zn299 1.905 . S
O307 C301 1.182 . S
O308 Zn299 1.898 . S
O308 C302 1.167 . S
O309 Zn300 2.120 . S
O309 C302 1.299 . S
O310 Zn298 1.898 . S
O310 C305 1.167 . S
O311 Zn300 2.120 . S
O311 C305 1.299 . S
O312 Zn300 2.114 . S
O312 C314 1.166 . S
O313 Zn298 1.905 . S
O313 C314 1.182 . S
C314 O312 1.166 . S
C314 O313 1.182 . S
O315 Zn300 2.080 . S
O315 C318 1.305 . S
O316 Zn299 1.920 . S
O316 C318 1.234 . S
C317 O303 1.305 . S
C317 O304 1.234 . S
C318 O315 1.305 . S
C318 O316 1.234 . S
Zn319 O325 1.920 . S
Zn319 O331 1.898 . S
Zn319 O334 1.905 . S
Zn320 O328 1.905 . S
Zn320 O329 1.898 . S
Zn320 O337 1.920 . S
Zn321 O324 2.080 . S
Zn321 O327 2.114 . S
Zn321 O330 2.120 . S
Zn321 O332 2.120 . S
Zn321 O333 2.114 . S
Zn321 O336 2.080 . S
C322 O327 1.166 . S
C322 O328 1.182 . S
C323 O329 1.167 . S
C323 O330 1.299 . S
O324 Zn321 2.080 . S
O324 C338 1.305 . S
O325 Zn319 1.920 . S
O325 C338 1.234 . S
C326 O331 1.167 . S
C326 O332 1.299 . S
O327 Zn321 2.114 . S
O327 C322 1.166 . S
O328 Zn320 1.905 . S
O328 C322 1.182 . S
O329 Zn320 1.898 . S
O329 C323 1.167 . S
O330 Zn321 2.120 . S
O330 C323 1.299 . S
O331 Zn319 1.898 . S
O331 C326 1.167 . S
O332 Zn321 2.120 . S
O332 C326 1.299 . S
O333 Zn321 2.114 . S
O333 C335 1.166 . S
O334 Zn319 1.905 . S
O334 C335 1.182 . S
C335 O333 1.166 . S
C335 O334 1.182 . S
O336 Zn321 2.080 . S
O336 C339 1.305 . S
O337 Zn320 1.920 . S
O337 C339 1.234 . S
C338 O324 1.305 . S
C338 O325 1.234 . S
C339 O336 1.305 . S
C339 O337 1.234 . S
H340 C358 0.951 . S
H341 C360 0.951 . S
H342 C362 0.950 . S
H343 C363 0.950 . S
H344 C365 0.950 . S
H345 C368 0.950 . S
H346 C369 0.950 . S
H347 C371 0.950 . S
H348 C372 0.950 . S
H349 C373 0.951 . S
H350 C375 0.951 . S
H351 C377 0.950 . S
H352 C378 0.950 . S
H353 C380 0.950 . S
H354 C383 0.950 . S
H355 C384 0.950 . S
H356 C386 0.950 . S
H357 C387 0.950 . S
C358 H340 0.951 . S
C358 C359 1.366 . S
C358 C360 1.388 . S
C359 C358 1.366 . S
C359 C363 1.385 . S
C360 H341 0.951 . S
C360 C358 1.388 . S
C360 C361 1.366 . S
C361 C360 1.366 . S
C361 C362 1.414 . S
C361 C364 1.499 . S
C362 H342 0.950 . S
C362 C361 1.414 . S
C362 C363 1.374 . S
C363 H343 0.950 . S
C363 C359 1.385 . S
C363 C362 1.374 . S
C364 C361 1.499 . S
C364 C365 1.373 . S
C364 C366 1.389 . S
C365 H344 0.950 . S
C365 C364 1.373 . S
C365 C381 1.377 . S
C366 C364 1.389 . S
C366 C367 1.524 . S
C366 C380 1.377 . S
C367 C366 1.524 . S
C367 C368 1.397 . S
C367 C372 1.363 . S
C368 H345 0.950 . S
C368 C367 1.397 . S
C368 C369 1.334 . S
C369 H346 0.950 . S
C369 C368 1.334 . S
C369 C370 1.287 . S
C370 C369 1.287 . S
C370 C371 1.524 . S
C370 H389 0.913 . S
C371 H347 0.950 . S
C371 C370 1.524 . S
C371 C372 1.415 . S
C372 H348 0.950 . S
C372 C367 1.363 . S
C372 C371 1.415 . S
C373 H349 0.951 . S
C373 C374 1.366 . S
C373 C375 1.388 . S
C374 C373 1.366 . S
C374 C378 1.385 . S
C375 H350 0.951 . S
C375 C373 1.388 . S
C375 C376 1.366 . S
C376 C375 1.366 . S
C376 C377 1.414 . S
C376 C379 1.499 . S
C377 H351 0.950 . S
C377 C376 1.414 . S
C377 C378 1.374 . S
C378 H352 0.950 . S
C378 C374 1.385 . S
C378 C377 1.374 . S
C379 C376 1.499 . S
C379 C380 1.373 . S
C379 C381 1.389 . S
C380 H353 0.950 . S
C380 C366 1.377 . S
C380 C379 1.373 . S
C381 C365 1.377 . S
C381 C379 1.389 . S
C381 C382 1.524 . S
C382 C381 1.524 . S
C382 C383 1.397 . S
C382 C387 1.363 . S
C383 H354 0.950 . S
C383 C382 1.397 . S
C383 C384 1.334 . S
C384 H355 0.950 . S
C384 C383 1.334 . S
C384 C385 1.287 . S
C385 C384 1.287 . S
C385 C386 1.524 . S
C385 H388 0.999 . S
C386 H356 0.950 . S
C386 C385 1.524 . S
C386 C387 1.415 . S
C387 H357 0.950 . S
C387 C382 1.363 . S
C387 C386 1.415 . S
H388 C385 0.999 . S
H389 C370 0.913 . S
H390 C408 0.951 1_455 S
H391 C410 0.951 . S
H392 C412 0.950 . S
H393 C413 0.950 . S
H394 C415 0.950 . S
H395 C418 0.950 . S
H396 C419 0.950 . S
H397 C421 0.950 . S
H398 C422 0.950 . S
H399 C423 0.951 . S
H400 C425 0.951 . S
H401 C427 0.950 . S
H402 C428 0.950 . S
H403 C430 0.950 . S
H404 C433 0.950 . S
H405 C434 0.950 . S
H406 C436 0.950 . S
H407 C437 0.950 . S
C408 H390 0.951 1_655 S
C408 C409 1.366 . S
C408 C410 1.388 . S
C409 C408 1.366 . S
C409 C413 1.385 . S
C410 H391 0.951 . S
C410 C408 1.388 . S
C410 C411 1.366 . S
C411 C410 1.366 . S
C411 C412 1.414 . S
C411 C414 1.499 . S
C412 H392 0.950 . S
C412 C411 1.414 . S
C412 C413 1.374 . S
C413 H393 0.950 . S
C413 C409 1.385 . S
C413 C412 1.374 . S
C414 C411 1.499 . S
C414 C415 1.373 . S
C414 C416 1.389 . S
C415 H394 0.950 . S
C415 C414 1.373 . S
C415 C431 1.377 . S
C416 C414 1.389 . S
C416 C417 1.524 . S
C416 C430 1.377 . S
C417 C416 1.524 . S
C417 C418 1.397 . S
C417 C422 1.363 . S
C418 H395 0.950 . S
C418 C417 1.397 . S
C418 C419 1.334 . S
C419 H396 0.950 . S
C419 C418 1.334 . S
C419 C420 1.287 . S
C420 C419 1.287 . S
C420 C421 1.524 . S
C420 H439 0.913 . S
C421 H397 0.950 . S
C421 C420 1.524 . S
C421 C422 1.415 . S
C422 H398 0.950 . S
C422 C417 1.363 . S
C422 C421 1.415 . S
C423 H399 0.951 . S
C423 C424 1.366 . S
C423 C425 1.388 . S
C424 C423 1.366 . S
C424 C428 1.385 . S
C425 H400 0.951 . S
C425 C423 1.388 . S
C425 C426 1.366 . S
C426 C425 1.366 . S
C426 C427 1.414 . S
C426 C429 1.499 . S
C427 H401 0.950 . S
C427 C426 1.414 . S
C427 C428 1.374 . S
C428 H402 0.950 . S
C428 C424 1.385 . S
C428 C427 1.374 . S
C429 C426 1.499 . S
C429 C430 1.373 . S
C429 C431 1.389 . S
C430 H403 0.950 . S
C430 C416 1.377 . S
C430 C429 1.373 . S
C431 C415 1.377 . S
C431 C429 1.389 . S
C431 C432 1.524 . S
C432 C431 1.524 . S
C432 C433 1.397 . S
C432 C437 1.363 . S
C433 H404 0.950 . S
C433 C432 1.397 . S
C433 C434 1.334 . S
C434 H405 0.950 . S
C434 C433 1.334 . S
C434 C435 1.287 . S
C435 C434 1.287 . S
C435 C436 1.524 . S
C435 H438 0.999 . S
C436 H406 0.950 . S
C436 C435 1.524 . S
C436 C437 1.415 . S
C437 H407 0.950 . S
C437 C432 1.363 . S
C437 C436 1.415 . S
H438 C435 0.999 . S
H439 C420 0.913 . S
H440 C458 0.951 . S
H441 C460 0.951 . S
H442 C462 0.950 . S
H443 C463 0.950 . S
H444 C465 0.950 . S
H445 C468 0.950 . S
H446 C469 0.950 . S
H447 C471 0.950 . S
H448 C472 0.950 . S
H449 C473 0.951 . S
H450 C475 0.951 . S
H451 C477 0.950 . S
H452 C478 0.950 . S
H453 C480 0.950 . S
H454 C483 0.950 . S
H455 C484 0.950 . S
H456 C486 0.950 . S
H457 C487 0.950 . S
C458 H440 0.951 . S
C458 C459 1.366 . S
C458 C460 1.388 . S
C459 C458 1.366 . S
C459 C463 1.385 . S
C460 H441 0.951 . S
C460 C458 1.388 . S
C460 C461 1.366 . S
C461 C460 1.366 . S
C461 C462 1.414 . S
C461 C464 1.499 . S
C462 H442 0.950 . S
C462 C461 1.414 . S
C462 C463 1.374 . S
C463 H443 0.950 . S
C463 C459 1.385 . S
C463 C462 1.374 . S
C464 C461 1.499 . S
C464 C465 1.373 . S
C464 C466 1.389 . S
C465 H444 0.950 . S
C465 C464 1.373 . S
C465 C481 1.377 . S
C466 C464 1.389 . S
C466 C467 1.524 . S
C466 C480 1.377 . S
C467 C466 1.524 . S
C467 C468 1.397 . S
C467 C472 1.363 . S
C468 H445 0.950 . S
C468 C467 1.397 . S
C468 C469 1.334 . S
C469 H446 0.950 . S
C469 C468 1.334 . S
C469 C470 1.287 . S
C470 C469 1.287 . S
C470 C471 1.524 . S
C470 H489 0.913 . S
C471 H447 0.950 . S
C471 C470 1.524 . S
C471 C472 1.415 . S
C472 H448 0.950 . S
C472 C467 1.363 . S
C472 C471 1.415 . S
C473 H449 0.951 . S
C473 C474 1.366 . S
C473 C475 1.388 . S
C474 C473 1.366 . S
C474 C478 1.385 . S
C475 H450 0.951 . S
C475 C473 1.388 . S
C475 C476 1.366 . S
C476 C475 1.366 . S
C476 C477 1.414 . S
C476 C479 1.499 . S
C477 H451 0.950 . S
C477 C476 1.414 . S
C477 C478 1.374 . S
C478 H452 0.950 . S
C478 C474 1.385 . S
C478 C477 1.374 . S
C479 C476 1.499 . S
C479 C480 1.373 . S
C479 C481 1.389 . S
C480 H453 0.950 . S
C480 C466 1.377 . S
C480 C479 1.373 . S
C481 C465 1.377 . S
C481 C479 1.389 . S
C481 C482 1.524 . S
C482 C481 1.524 . S
C482 C483 1.397 . S
C482 C487 1.363 . S
C483 H454 0.950 . S
C483 C482 1.397 . S
C483 C484 1.334 . S
C484 H455 0.950 . S
C484 C483 1.334 . S
C484 C485 1.287 . S
C485 C484 1.287 . S
C485 C486 1.524 . S
C485 H488 0.999 . S
C486 H456 0.950 . S
C486 C485 1.524 . S
C486 C487 1.415 . S
C487 H457 0.950 . S
C487 C482 1.363 . S
C487 C486 1.415 . S
H488 C485 0.999 . S
H489 C470 0.913 . S
H490 C508 0.951 . S
H491 C510 0.951 . S
H492 C512 0.950 . S
H493 C513 0.950 . S
H494 C515 0.950 . S
H495 C518 0.950 . S
H496 C519 0.950 . S
H497 C521 0.950 . S
H498 C522 0.950 . S
H499 C523 0.951 . S
H500 C525 0.951 . S
H501 C527 0.950 . S
H502 C528 0.950 . S
H503 C530 0.950 . S
H504 C533 0.950 . S
H505 C534 0.950 . S
H506 C536 0.950 . S
H507 C537 0.950 . S
C508 H490 0.951 . S
C508 C509 1.366 . S
C508 C510 1.388 . S
C509 C508 1.366 . S
C509 C513 1.385 . S
C510 H491 0.951 . S
C510 C508 1.388 . S
C510 C511 1.366 . S
C511 C510 1.366 . S
C511 C512 1.414 . S
C511 C514 1.499 . S
C512 H492 0.950 . S
C512 C511 1.414 . S
C512 C513 1.374 . S
C513 H493 0.950 . S
C513 C509 1.385 . S
C513 C512 1.374 . S
C514 C511 1.499 . S
C514 C515 1.373 . S
C514 C516 1.389 . S
C515 H494 0.950 . S
C515 C514 1.373 . S
C515 C531 1.377 . S
C516 C514 1.389 . S
C516 C517 1.524 . S
C516 C530 1.377 . S
C517 C516 1.524 . S
C517 C518 1.397 . S
C517 C522 1.363 . S
C518 H495 0.950 . S
C518 C517 1.397 . S
C518 C519 1.334 . S
C519 H496 0.950 . S
C519 C518 1.334 . S
C519 C520 1.287 . S
C520 C519 1.287 . S
C520 C521 1.524 . S
C520 H539 0.913 . S
C521 H497 0.950 . S
C521 C520 1.524 . S
C521 C522 1.415 . S
C522 H498 0.950 . S
C522 C517 1.363 . S
C522 C521 1.415 . S
C523 H499 0.951 . S
C523 C524 1.366 . S
C523 C525 1.388 1_455 S
C524 C523 1.366 . S
C524 C528 1.385 . S
C525 H500 0.951 . S
C525 C523 1.388 1_655 S
C525 C526 1.366 . S
C526 C525 1.366 . S
C526 C527 1.414 . S
C526 C529 1.499 . S
C527 H501 0.950 . S
C527 C526 1.414 . S
C527 C528 1.374 1_655 S
C528 H502 0.950 . S
C528 C524 1.385 . S
C528 C527 1.374 1_455 S
C529 C526 1.499 . S
C529 C530 1.373 . S
C529 C531 1.389 . S
C530 H503 0.950 . S
C530 C516 1.377 . S
C530 C529 1.373 . S
C531 C515 1.377 . S
C531 C529 1.389 . S
C531 C532 1.524 . S
C532 C531 1.524 . S
C532 C533 1.397 . S
C532 C537 1.363 . S
C533 H504 0.950 . S
C533 C532 1.397 . S
C533 C534 1.334 . S
C534 H505 0.950 . S
C534 C533 1.334 . S
C534 C535 1.287 . S
C535 C534 1.287 . S
C535 C536 1.524 . S
C535 H538 0.999 . S
C536 H506 0.950 . S
C536 C535 1.524 . S
C536 C537 1.415 . S
C537 H507 0.950 . S
C537 C532 1.363 . S
C537 C536 1.415 . S
H538 C535 0.999 . S
H539 C520 0.913 . S
H540 C558 0.951 . S
H541 C560 0.951 . S
H542 C562 0.950 . S
H543 C563 0.950 . S
H544 C565 0.950 . S
H545 C568 0.950 . S
H546 C569 0.950 . S
H547 C571 0.950 . S
H548 C572 0.950 . S
H549 C573 0.951 . S
H550 C575 0.951 . S
H551 C577 0.950 . S
H552 C578 0.950 . S
H553 C580 0.950 . S
H554 C583 0.950 . S
H555 C584 0.950 . S
H556 C586 0.950 . S
H557 C587 0.950 . S
C558 H540 0.951 . S
C558 C559 1.366 . S
C558 C560 1.388 . S
C559 C558 1.366 . S
C559 C563 1.385 . S
C560 H541 0.951 . S
C560 C558 1.388 . S
C560 C561 1.366 . S
C561 C560 1.366 . S
C561 C562 1.414 . S
C561 C564 1.499 . S
C562 H542 0.950 . S
C562 C561 1.414 . S
C562 C563 1.374 . S
C563 H543 0.950 . S
C563 C559 1.385 . S
C563 C562 1.374 . S
C564 C561 1.499 . S
C564 C565 1.373 . S
C564 C566 1.389 . S
C565 H544 0.950 . S
C565 C564 1.373 . S
C565 C581 1.377 . S
C566 C564 1.389 . S
C566 C567 1.524 . S
C566 C580 1.377 . S
C567 C566 1.524 . S
C567 C568 1.397 . S
C567 C572 1.363 . S
C568 H545 0.950 . S
C568 C567 1.397 . S
C568 C569 1.334 . S
C569 H546 0.950 . S
C569 C568 1.334 . S
C569 C570 1.287 . S
C570 C569 1.287 . S
C570 C571 1.524 . S
C570 H589 0.913 . S
C571 H547 0.950 . S
C571 C570 1.524 . S
C571 C572 1.415 . S
C572 H548 0.950 . S
C572 C567 1.363 . S
C572 C571 1.415 . S
C573 H549 0.951 . S
C573 C574 1.366 . S
C573 C575 1.388 . S
C574 C573 1.366 . S
C574 C578 1.385 . S
C575 H550 0.951 . S
C575 C573 1.388 . S
C575 C576 1.366 . S
C576 C575 1.366 . S
C576 C577 1.414 . S
C576 C579 1.499 . S
C577 H551 0.950 . S
C577 C576 1.414 . S
C577 C578 1.374 . S
C578 H552 0.950 . S
C578 C574 1.385 . S
C578 C577 1.374 . S
C579 C576 1.499 . S
C579 C580 1.373 . S
C579 C581 1.389 . S
C580 H553 0.950 . S
C580 C566 1.377 . S
C580 C579 1.373 . S
C581 C565 1.377 . S
C581 C579 1.389 . S
C581 C582 1.524 . S
C582 C581 1.524 . S
C582 C583 1.397 . S
C582 C587 1.363 . S
C583 H554 0.950 . S
C583 C582 1.397 . S
C583 C584 1.334 1_455 S
C584 H555 0.950 . S
C584 C583 1.334 1_655 S
C584 C585 1.287 . S
C585 C584 1.287 . S
C585 C586 1.524 . S
C585 H588 0.999 . S
C586 H556 0.950 . S
C586 C585 1.524 . S
C586 C587 1.415 1_655 S
C587 H557 0.950 . S
C587 C582 1.363 . S
C587 C586 1.415 1_455 S
H588 C585 0.999 . S
H589 C570 0.913 . S
H590 C608 0.951 . S
H591 C610 0.951 . S
H592 C612 0.950 . S
H593 C613 0.950 . S
H594 C615 0.950 . S
H595 C618 0.950 . S
H596 C619 0.950 . S
H597 C621 0.950 . S
H598 C622 0.950 . S
H599 C623 0.951 . S
H600 C625 0.951 . S
H601 C627 0.950 . S
H602 C628 0.950 . S
H603 C630 0.950 . S
H604 C633 0.950 . S
H605 C634 0.950 . S
H606 C636 0.950 . S
H607 C637 0.950 . S
C608 H590 0.951 . S
C608 C609 1.366 . S
C608 C610 1.388 . S
C609 C608 1.366 . S
C609 C613 1.385 . S
C610 H591 0.951 . S
C610 C608 1.388 . S
C610 C611 1.366 . S
C611 C610 1.366 . S
C611 C612 1.414 . S
C611 C614 1.499 . S
C612 H592 0.950 . S
C612 C611 1.414 . S
C612 C613 1.374 . S
C613 H593 0.950 . S
C613 C609 1.385 . S
C613 C612 1.374 . S
C614 C611 1.499 . S
C614 C615 1.373 . S
C614 C616 1.389 . S
C615 H594 0.950 . S
C615 C614 1.373 . S
C615 C631 1.377 . S
C616 C614 1.389 . S
C616 C617 1.524 . S
C616 C630 1.377 . S
C617 C616 1.524 . S
C617 C618 1.397 . S
C617 C622 1.363 . S
C618 H595 0.950 . S
C618 C617 1.397 . S
C618 C619 1.334 . S
C619 H596 0.950 . S
C619 C618 1.334 . S
C619 C620 1.287 . S
C620 C619 1.287 . S
C620 C621 1.524 . S
C620 H639 0.913 . S
C621 H597 0.950 . S
C621 C620 1.524 . S
C621 C622 1.415 . S
C622 H598 0.950 . S
C622 C617 1.363 . S
C622 C621 1.415 . S
C623 H599 0.951 . S
C623 C624 1.366 . S
C623 C625 1.388 1_455 S
C624 C623 1.366 . S
C624 C628 1.385 . S
C625 H600 0.951 . S
C625 C623 1.388 1_655 S
C625 C626 1.366 . S
C626 C625 1.366 . S
C626 C627 1.414 . S
C626 C629 1.499 . S
C627 H601 0.950 . S
C627 C626 1.414 . S
C627 C628 1.374 1_655 S
C628 H602 0.950 . S
C628 C624 1.385 . S
C628 C627 1.374 1_455 S
C629 C626 1.499 . S
C629 C630 1.373 . S
C629 C631 1.389 . S
C630 H603 0.950 . S
C630 C616 1.377 . S
C630 C629 1.373 . S
C631 C615 1.377 . S
C631 C629 1.389 . S
C631 C632 1.524 . S
C632 C631 1.524 . S
C632 C633 1.397 . S
C632 C637 1.363 . S
C633 H604 0.950 . S
C633 C632 1.397 . S
C633 C634 1.334 . S
C634 H605 0.950 . S
C634 C633 1.334 . S
C634 C635 1.287 . S
C635 C634 1.287 . S
C635 C636 1.524 . S
C635 H638 0.999 . S
C636 H606 0.950 . S
C636 C635 1.524 . S
C636 C637 1.415 . S
C637 H607 0.950 . S
C637 C632 1.363 . S
C637 C636 1.415 . S
H638 C635 0.999 . S
H639 C620 0.913 . S
H640 C658 0.951 . S
H641 C660 0.951 . S
H642 C662 0.950 . S
H643 C663 0.950 . S
H644 C665 0.950 . S
H645 C668 0.950 . S
H646 C669 0.950 . S
H647 C671 0.950 . S
H648 C672 0.950 . S
H649 C673 0.951 . S
H650 C675 0.951 . S
H651 C677 0.950 . S
H652 C678 0.950 . S
H653 C680 0.950 . S
H654 C683 0.950 . S
H655 C684 0.950 . S
H656 C686 0.950 . S
H657 C687 0.950 . S
C658 H640 0.951 . S
C658 C659 1.366 . S
C658 C660 1.388 . S
C659 C658 1.366 . S
C659 C663 1.385 . S
C660 H641 0.951 . S
C660 C658 1.388 . S
C660 C661 1.366 . S
C661 C660 1.366 . S
C661 C662 1.414 . S
C661 C664 1.499 . S
C662 H642 0.950 . S
C662 C661 1.414 . S
C662 C663 1.374 . S
C663 H643 0.950 . S
C663 C659 1.385 . S
C663 C662 1.374 . S
C664 C661 1.499 . S
C664 C665 1.373 . S
C664 C666 1.389 . S
C665 H644 0.950 . S
C665 C664 1.373 . S
C665 C681 1.377 . S
C666 C664 1.389 . S
C666 C667 1.524 . S
C666 C680 1.377 . S
C667 C666 1.524 . S
C667 C668 1.397 . S
C667 C672 1.363 . S
C668 H645 0.950 . S
C668 C667 1.397 . S
C668 C669 1.334 . S
C669 H646 0.950 . S
C669 C668 1.334 . S
C669 C670 1.287 . S
C670 C669 1.287 . S
C670 C671 1.524 . S
C670 H689 0.913 . S
C671 H647 0.950 . S
C671 C670 1.524 . S
C671 C672 1.415 . S
C672 H648 0.950 . S
C672 C667 1.363 . S
C672 C671 1.415 . S
C673 H649 0.951 . S
C673 C674 1.366 . S
C673 C675 1.388 . S
C674 C673 1.366 . S
C674 C678 1.385 . S
C675 H650 0.951 . S
C675 C673 1.388 . S
C675 C676 1.366 . S
C676 C675 1.366 . S
C676 C677 1.414 . S
C676 C679 1.499 . S
C677 H651 0.950 . S
C677 C676 1.414 . S
C677 C678 1.374 . S
C678 H652 0.950 . S
C678 C674 1.385 . S
C678 C677 1.374 . S
C679 C676 1.499 . S
C679 C680 1.373 . S
C679 C681 1.389 . S
C680 H653 0.950 . S
C680 C666 1.377 . S
C680 C679 1.373 . S
C681 C665 1.377 . S
C681 C679 1.389 . S
C681 C682 1.524 . S
C682 C681 1.524 . S
C682 C683 1.397 . S
C682 C687 1.363 . S
C683 H654 0.950 . S
C683 C682 1.397 . S
C683 C684 1.334 . S
C684 H655 0.950 . S
C684 C683 1.334 . S
C684 C685 1.287 . S
C685 C684 1.287 . S
C685 C686 1.524 . S
C685 H688 0.999 . S
C686 H656 0.950 . S
C686 C685 1.524 . S
C686 C687 1.415 . S
C687 H657 0.950 . S
C687 C682 1.363 . S
C687 C686 1.415 . S
H688 C685 0.999 . S
H689 C670 0.913 . S
H690 C708 0.951 . S
H691 C710 0.951 . S
H692 C712 0.950 . S
H693 C713 0.971 . S
H694 C715 0.950 . S
H695 C718 0.950 . S
H696 C719 0.950 . S
H697 C721 0.950 . S
H698 C722 0.950 . S
H699 C723 0.951 . S
H700 C725 0.951 . S
H701 C727 0.950 . S
H702 C728 0.950 . S
H703 C730 0.950 . S
H704 C733 0.950 . S
H705 C734 0.950 . S
H706 C736 0.950 . S
H707 C737 0.950 . S
C708 H690 0.951 . S
C708 C709 1.366 1_655 S
C708 C710 1.388 . S
C709 C708 1.366 1_455 S
C709 C713 1.394 . S
C710 H691 0.951 . S
C710 C708 1.388 . S
C710 C711 1.366 . S
C711 C710 1.366 . S
C711 C712 1.414 . S
C711 C714 1.499 . S
C712 H692 0.950 . S
C712 C711 1.414 . S
C712 C713 1.345 1_655 S
C713 H693 0.971 . S
C713 C709 1.394 . S
C713 C712 1.345 1_455 S
C714 C711 1.499 . S
C714 C715 1.373 . S
C714 C716 1.389 . S
C715 H694 0.950 . S
C715 C714 1.373 . S
C715 C731 1.377 . S
C716 C714 1.389 . S
C716 C717 1.524 . S
C716 C730 1.377 . S
C717 C716 1.524 . S
C717 C718 1.397 . S
C717 C722 1.363 . S
C718 H695 0.950 . S
C718 C717 1.397 . S
C718 C719 1.334 . S
C719 H696 0.950 . S
C719 C718 1.334 . S
C719 C720 1.287 . S
C720 C719 1.287 . S
C720 C721 1.524 . S
C720 H739 0.913 . S
C721 H697 0.950 . S
C721 C720 1.524 . S
C721 C722 1.415 . S
C722 H698 0.950 . S
C722 C717 1.363 . S
C722 C721 1.415 . S
C723 H699 0.951 . S
C723 C724 1.366 . S
C723 C725 1.388 . S
C724 C723 1.366 . S
C724 C728 1.385 . S
C725 H700 0.951 . S
C725 C723 1.388 . S
C725 C726 1.366 . S
C726 C725 1.366 . S
C726 C727 1.414 . S
C726 C729 1.499 . S
C727 H701 0.950 . S
C727 C726 1.414 . S
C727 C728 1.374 . S
C728 H702 0.950 . S
C728 C724 1.385 . S
C728 C727 1.374 . S
C729 C726 1.499 . S
C729 C730 1.373 . S
C729 C731 1.389 . S
C730 H703 0.950 . S
C730 C716 1.377 . S
C730 C729 1.373 . S
C731 C715 1.377 . S
C731 C729 1.389 . S
C731 C732 1.524 . S
C732 C731 1.524 . S
C732 C733 1.397 . S
C732 C737 1.363 . S
C733 H704 0.950 . S
C733 C732 1.397 . S
C733 C734 1.334 . S
C734 H705 0.950 . S
C734 C733 1.334 . S
C734 C735 1.287 . S
C735 C734 1.287 . S
C735 C736 1.524 . S
C735 H738 0.999 . S
C736 H706 0.950 . S
C736 C735 1.524 . S
C736 C737 1.415 . S
C737 H707 0.950 . S
C737 C732 1.363 . S
C737 C736 1.415 . S
H738 C735 0.999 . S
H739 C720 0.913 . S
H740 C758 0.951 . S
H741 C760 0.951 . S
H742 C762 0.950 . S
H743 C763 0.950 . S
H744 C765 0.950 . S
H745 C768 0.950 . S
H746 C769 0.950 . S
H747 C771 0.950 . S
H748 C772 0.950 . S
H749 C773 0.951 . S
H750 C775 0.951 . S
H751 C777 0.950 . S
H752 C778 0.950 . S
H753 C780 0.950 . S
H754 C783 0.950 . S
H755 C784 0.950 . S
H756 C786 0.950 . S
H757 C787 0.950 . S
C758 H740 0.951 . S
C758 C759 1.366 . S
C758 C760 1.388 . S
C759 C758 1.366 . S
C759 C763 1.385 . S
C760 H741 0.951 . S
C760 C758 1.388 . S
C760 C761 1.366 . S
C761 C760 1.366 . S
C761 C762 1.414 . S
C761 C764 1.499 . S
C762 H742 0.950 . S
C762 C761 1.414 . S
C762 C763 1.374 . S
C763 H743 0.950 . S
C763 C759 1.385 . S
C763 C762 1.374 . S
C764 C761 1.499 . S
C764 C765 1.373 . S
C764 C766 1.389 . S
C765 H744 0.950 . S
C765 C764 1.373 . S
C765 C781 1.377 . S
C766 C764 1.389 . S
C766 C767 1.524 . S
C766 C780 1.377 . S
C767 C766 1.524 . S
C767 C768 1.397 . S
C767 C772 1.363 . S
C768 H745 0.950 . S
C768 C767 1.397 . S
C768 C769 1.334 . S
C769 H746 0.950 . S
C769 C768 1.334 . S
C769 C770 1.287 . S
C770 C769 1.287 . S
C770 C771 1.524 . S
C770 H789 0.913 . S
C771 H747 0.950 . S
C771 C770 1.524 . S
C771 C772 1.415 . S
C772 H748 0.950 . S
C772 C767 1.363 . S
C772 C771 1.415 . S
C773 H749 0.951 . S
C773 C774 1.366 . S
C773 C775 1.388 . S
C774 C773 1.366 . S
C774 C778 1.385 . S
C775 H750 0.951 . S
C775 C773 1.388 . S
C775 C776 1.366 . S
C776 C775 1.366 . S
C776 C777 1.414 . S
C776 C779 1.499 . S
C777 H751 0.950 . S
C777 C776 1.414 . S
C777 C778 1.374 . S
C778 H752 0.950 . S
C778 C774 1.385 . S
C778 C777 1.374 . S
C779 C776 1.499 . S
C779 C780 1.373 . S
C779 C781 1.389 . S
C780 H753 0.950 . S
C780 C766 1.377 . S
C780 C779 1.373 . S
C781 C765 1.377 . S
C781 C779 1.389 . S
C781 C782 1.524 . S
C782 C781 1.524 . S
C782 C783 1.397 . S
C782 C787 1.363 . S
C783 H754 0.950 . S
C783 C782 1.397 . S
C783 C784 1.334 . S
C784 H755 0.950 . S
C784 C783 1.334 . S
C784 C785 1.287 . S
C785 C784 1.287 . S
C785 C786 1.524 . S
C785 H788 0.999 . S
C786 H756 0.950 . S
C786 C785 1.524 . S
C786 C787 1.415 . S
C787 H757 0.950 . S
C787 C782 1.363 . S
C787 C786 1.415 . S
H788 C785 0.999 . S
H789 C770 0.913 . S
H790 C808 0.951 . S
H791 C810 0.951 . S
H792 C812 0.950 . S
H793 C813 0.950 . S
H794 C815 0.950 . S
H795 C818 0.950 . S
H796 C819 0.950 . S
H797 C821 0.950 . S
H798 C822 0.950 . S
H799 C823 0.951 . S
H800 C825 0.951 . S
H801 C827 0.950 . S
H802 C828 0.950 . S
H803 C830 0.950 . S
H804 C833 0.950 . S
H805 C834 0.950 . S
H806 C836 0.950 . S
H807 C837 0.950 . S
C808 H790 0.951 . S
C808 C809 1.366 . S
C808 C810 1.388 . S
C809 C808 1.366 . S
C809 C813 1.385 . S
C810 H791 0.951 . S
C810 C808 1.388 . S
C810 C811 1.366 . S
C811 C810 1.366 . S
C811 C812 1.414 . S
C811 C814 1.499 . S
C812 H792 0.950 . S
C812 C811 1.414 . S
C812 C813 1.374 . S
C813 H793 0.950 . S
C813 C809 1.385 . S
C813 C812 1.374 . S
C814 C811 1.499 . S
C814 C815 1.373 . S
C814 C816 1.389 . S
C815 H794 0.950 . S
C815 C814 1.373 . S
C815 C831 1.377 . S
C816 C814 1.389 . S
C816 C817 1.524 . S
C816 C830 1.377 . S
C817 C816 1.524 . S
C817 C818 1.397 . S
C817 C822 1.363 . S
C818 H795 0.950 . S
C818 C817 1.397 . S
C818 C819 1.334 . S
C819 H796 0.950 . S
C819 C818 1.334 . S
C819 C820 1.287 . S
C820 C819 1.287 . S
C820 C821 1.524 . S
C820 H839 0.913 . S
C821 H797 0.950 . S
C821 C820 1.524 . S
C821 C822 1.415 . S
C822 H798 0.950 . S
C822 C817 1.363 . S
C822 C821 1.415 . S
C823 H799 0.951 . S
C823 C824 1.366 . S
C823 C825 1.388 . S
C824 C823 1.366 . S
C824 C828 1.385 . S
C825 H800 0.951 . S
C825 C823 1.388 . S
C825 C826 1.366 . S
C826 C825 1.366 . S
C826 C827 1.414 . S
C826 C829 1.499 . S
C827 H801 0.950 . S
C827 C826 1.414 . S
C827 C828 1.374 . S
C828 H802 0.950 . S
C828 C824 1.385 . S
C828 C827 1.374 . S
C829 C826 1.499 . S
C829 C830 1.373 . S
C829 C831 1.389 . S
C830 H803 0.950 . S
C830 C816 1.377 . S
C830 C829 1.373 . S
C831 C815 1.377 . S
C831 C829 1.389 . S
C831 C832 1.524 . S
C832 C831 1.524 . S
C832 C833 1.397 . S
C832 C837 1.363 . S
C833 H804 0.950 . S
C833 C832 1.397 . S
C833 C834 1.334 . S
C834 H805 0.950 . S
C834 C833 1.334 . S
C834 C835 1.287 . S
C835 C834 1.287 . S
C835 C836 1.524 . S
C835 H838 0.999 . S
C836 H806 0.950 . S
C836 C835 1.524 . S
C836 C837 1.415 . S
C837 H807 0.950 . S
C837 C832 1.363 . S
C837 C836 1.415 . S
H838 C835 0.999 . S
H839 C820 0.913 . S
H840 C858 0.951 . S
H841 C860 0.951 . S
H842 C862 0.950 . S
H843 C863 0.950 . S
H844 C865 0.950 . S
H845 C868 0.950 . S
H846 C869 0.950 . S
H847 C871 0.950 . S
H848 C872 0.950 . S
H849 C873 0.951 . S
H850 C875 0.951 . S
H851 C877 0.950 . S
H852 C878 0.950 . S
H853 C880 0.950 . S
H854 C883 0.950 . S
H855 C884 0.950 . S
H856 C886 0.950 . S
H857 C887 0.950 . S
C858 H840 0.951 . S
C858 C859 1.366 . S
C858 C860 1.388 . S
C859 C858 1.366 . S
C859 C863 1.385 . S
C860 H841 0.951 . S
C860 C858 1.388 . S
C860 C861 1.366 . S
C861 C860 1.366 . S
C861 C862 1.414 . S
C861 C864 1.499 . S
C862 H842 0.950 . S
C862 C861 1.414 . S
C862 C863 1.374 . S
C863 H843 0.950 . S
C863 C859 1.385 . S
C863 C862 1.374 . S
C864 C861 1.499 . S
C864 C865 1.373 . S
C864 C866 1.389 . S
C865 H844 0.950 . S
C865 C864 1.373 . S
C865 C881 1.377 . S
C866 C864 1.389 . S
C866 C867 1.524 . S
C866 C880 1.377 . S
C867 C866 1.524 . S
C867 C868 1.397 . S
C867 C872 1.363 . S
C868 H845 0.950 . S
C868 C867 1.397 . S
C868 C869 1.334 . S
C869 H846 0.950 . S
C869 C868 1.334 . S
C869 C870 1.287 . S
C870 C869 1.287 . S
C870 C871 1.524 . S
C870 H889 0.913 . S
C871 H847 0.950 . S
C871 C870 1.524 . S
C871 C872 1.415 . S
C872 H848 0.950 . S
C872 C867 1.363 . S
C872 C871 1.415 . S
C873 H849 0.951 . S
C873 C874 1.366 . S
C873 C875 1.388 . S
C874 C873 1.366 . S
C874 C878 1.385 . S
C875 H850 0.951 . S
C875 C873 1.388 . S
C875 C876 1.366 . S
C876 C875 1.366 . S
C876 C877 1.414 . S
C876 C879 1.499 . S
C877 H851 0.950 . S
C877 C876 1.414 . S
C877 C878 1.374 . S
C878 H852 0.950 . S
C878 C874 1.385 . S
C878 C877 1.374 . S
C879 C876 1.499 . S
C879 C880 1.373 . S
C879 C881 1.389 . S
C880 H853 0.950 . S
C880 C866 1.377 . S
C880 C879 1.373 . S
C881 C865 1.377 . S
C881 C879 1.389 . S
C881 C882 1.524 . S
C882 C881 1.524 . S
C882 C883 1.397 . S
C882 C887 1.363 . S
C883 H854 0.950 . S
C883 C882 1.397 . S
C883 C884 1.334 . S
C884 H855 0.950 . S
C884 C883 1.334 . S
C884 C885 1.287 . S
C885 C884 1.287 . S
C885 C886 1.524 . S
C885 H888 0.999 . S
C886 H856 0.950 . S
C886 C885 1.524 . S
C886 C887 1.415 . S
C887 H857 0.950 . S
C887 C882 1.363 . S
C887 C886 1.415 . S
H888 C885 0.999 . S
H889 C870 0.913 . S
H890 C908 0.951 . S
H891 C910 0.951 . S
H892 C912 0.950 . S
H893 C913 0.950 . S
H894 C915 0.950 . S
H895 C918 0.950 . S
H896 C919 0.950 . S
H897 C921 0.950 . S
H898 C922 0.950 . S
H899 C923 0.951 . S
H900 C925 0.951 . S
H901 C927 0.950 . S
H902 C928 0.950 . S
H903 C930 0.950 . S
H904 C933 0.950 . S
H905 C934 0.950 . S
H906 C936 0.950 . S
H907 C937 0.950 . S
C908 H890 0.951 . S
C908 C909 1.366 . S
C908 C910 1.388 . S
C909 C908 1.366 . S
C909 C913 1.385 . S
C910 H891 0.951 . S
C910 C908 1.388 . S
C910 C911 1.366 . S
C911 C910 1.366 . S
C911 C912 1.414 . S
C911 C914 1.499 . S
C912 H892 0.950 . S
C912 C911 1.414 . S
C912 C913 1.374 . S
C913 H893 0.950 . S
C913 C909 1.385 . S
C913 C912 1.374 . S
C914 C911 1.499 . S
C914 C915 1.373 . S
C914 C916 1.389 . S
C915 H894 0.950 . S
C915 C914 1.373 . S
C915 C931 1.377 . S
C916 C914 1.389 . S
C916 C917 1.524 . S
C916 C930 1.377 . S
C917 C916 1.524 . S
C917 C918 1.397 . S
C917 C922 1.363 . S
C918 H895 0.950 . S
C918 C917 1.397 . S
C918 C919 1.334 . S
C919 H896 0.950 . S
C919 C918 1.334 . S
C919 C920 1.287 . S
C920 C919 1.287 . S
C920 C921 1.524 . S
C920 H939 0.913 . S
C921 H897 0.950 . S
C921 C920 1.524 . S
C921 C922 1.415 . S
C922 H898 0.950 . S
C922 C917 1.363 . S
C922 C921 1.415 . S
C923 H899 0.951 . S
C923 C924 1.366 . S
C923 C925 1.388 . S
C924 C923 1.366 . S
C924 C928 1.385 . S
C925 H900 0.951 . S
C925 C923 1.388 . S
C925 C926 1.366 . S
C926 C925 1.366 . S
C926 C927 1.414 . S
C926 C929 1.499 . S
C927 H901 0.950 . S
C927 C926 1.414 . S
C927 C928 1.374 . S
C928 H902 0.950 . S
C928 C924 1.385 . S
C928 C927 1.374 . S
C929 C926 1.499 . S
C929 C930 1.373 . S
C929 C931 1.389 . S
C930 H903 0.950 . S
C930 C916 1.377 . S
C930 C929 1.373 . S
C931 C915 1.377 . S
C931 C929 1.389 . S
C931 C932 1.524 . S
C932 C931 1.524 . S
C932 C933 1.397 . S
C932 C937 1.363 . S
C933 H904 0.950 . S
C933 C932 1.397 . S
C933 C934 1.334 . S
C934 H905 0.950 . S
C934 C933 1.334 . S
C934 C935 1.287 . S
C935 C934 1.287 . S
C935 C936 1.524 . S
C935 H938 0.999 . S
C936 H906 0.950 . S
C936 C935 1.524 . S
C936 C937 1.415 . S
C937 H907 0.950 . S
C937 C932 1.363 . S
C937 C936 1.415 . S
H938 C935 0.999 . S
H939 C920 0.913 . S
H940 C958 0.951 . S
H941 C960 0.951 . S
H942 C962 0.950 . S
H943 C963 0.950 . S
H944 C965 0.950 . S
H945 C968 0.950 . S
H946 C969 0.950 . S
H947 C971 0.950 1_545 S
H948 C972 0.940 1_545 S
H949 C973 0.951 . S
H950 C975 0.951 . S
H951 C977 0.950 . S
H952 C978 0.950 . S
H953 C980 0.950 . S
H954 C983 0.950 . S
H955 C984 0.950 . S
H956 C986 0.950 . S
H957 C987 0.950 . S
C958 H940 0.951 . S
C958 C959 1.366 . S
C958 C960 1.388 . S
C959 C958 1.366 . S
C959 C963 1.385 . S
C960 H941 0.951 . S
C960 C958 1.388 . S
C960 C961 1.366 . S
C961 C960 1.366 . S
C961 C962 1.414 . S
C961 C964 1.499 . S
C962 H942 0.950 . S
C962 C961 1.414 . S
C962 C963 1.374 . S
C963 H943 0.950 . S
C963 C959 1.385 . S
C963 C962 1.374 . S
C964 C961 1.499 . S
C964 C965 1.373 . S
C964 C966 1.389 . S
C965 H944 0.950 . S
C965 C964 1.373 . S
C965 C981 1.377 1_565 S
C966 C964 1.389 . S
C966 C967 1.524 . S
C966 C980 1.377 1_565 S
C967 C966 1.524 . S
C967 C968 1.397 . S
C967 C972 1.372 . S
C968 H945 0.950 . S
C968 C967 1.397 . S
C968 C969 1.334 . S
C969 H946 0.950 . S
C969 C968 1.334 . S
C969 C970 1.287 . S
C970 C969 1.287 . S
C970 C971 1.524 . S
C970 H989 0.913 . S
C971 H947 0.950 1_565 S
C971 C970 1.524 . S
C971 C972 1.417 . S
C972 H948 0.940 1_565 S
C972 C967 1.372 . S
C972 C971 1.417 . S
C973 H949 0.951 . S
C973 C974 1.366 . S
C973 C975 1.388 . S
C974 C973 1.366 . S
C974 C978 1.385 . S
C975 H950 0.951 . S
C975 C973 1.388 . S
C975 C976 1.366 . S
C976 C975 1.366 . S
C976 C977 1.414 . S
C976 C979 1.499 . S
C977 H951 0.950 . S
C977 C976 1.414 . S
C977 C978 1.374 . S
C978 H952 0.950 . S
C978 C974 1.385 . S
C978 C977 1.374 . S
C979 C976 1.499 . S
C979 C980 1.373 . S
C979 C981 1.389 . S
C980 H953 0.950 . S
C980 C966 1.377 1_545 S
C980 C979 1.373 . S
C981 C965 1.377 1_545 S
C981 C979 1.389 . S
C981 C982 1.524 . S
C982 C981 1.524 . S
C982 C983 1.397 . S
C982 C987 1.363 1_545 S
C983 H954 0.950 . S
C983 C982 1.397 . S
C983 C984 1.334 . S
C984 H955 0.950 . S
C984 C983 1.334 . S
C984 C985 1.287 . S
C985 C984 1.287 . S
C985 C986 1.524 1_545 S
C985 H988 0.999 . S
C986 H956 0.950 . S
C986 C985 1.524 1_565 S
C986 C987 1.415 . S
C987 H957 0.950 . S
C987 C982 1.363 1_565 S
C987 C986 1.415 . S
H988 C985 0.999 . S
H989 C970 0.913 . S
H990 C1008 0.951 . S
H991 C1010 0.951 . S
H992 C1012 0.950 . S
H993 C1013 0.950 . S
H994 C1015 0.950 . S
H995 C1018 0.950 . S
H996 C1019 0.950 . S
H997 C1021 0.950 . S
H998 C1022 0.943 1_565 S
H999 C1023 0.951 . S
H1000 C1025 0.951 . S
H1001 C1027 0.950 . S
H1002 C1028 0.950 . S
H1003 C1030 0.950 . S
H1004 C1033 0.950 . S
H1005 C1034 0.950 . S
H1006 C1036 0.950 . S
H1007 C1037 0.950 . S
C1008 H990 0.951 . S
C1008 C1009 1.366 . S
C1008 C1010 1.388 . S
C1009 C1008 1.366 . S
C1009 C1013 1.385 . S
C1010 H991 0.951 . S
C1010 C1008 1.388 . S
C1010 C1011 1.366 . S
C1011 C1010 1.366 . S
C1011 C1012 1.414 . S
C1011 C1014 1.499 . S
C1012 H992 0.950 . S
C1012 C1011 1.414 . S
C1012 C1013 1.374 . S
C1013 H993 0.950 . S
C1013 C1009 1.385 . S
C1013 C1012 1.374 . S
C1014 C1011 1.499 . S
C1014 C1015 1.373 1_545 S
C1014 C1016 1.389 . S
C1015 H994 0.950 . S
C1015 C1014 1.373 1_565 S
C1015 C1031 1.377 . S
C1016 C1014 1.389 . S
C1016 C1017 1.524 . S
C1016 C1030 1.377 1_545 S
C1017 C1016 1.524 . S
C1017 C1018 1.397 . S
C1017 C1022 1.363 . S
C1018 H995 0.950 . S
C1018 C1017 1.397 . S
C1018 C1019 1.334 . S
C1019 H996 0.950 . S
C1019 C1018 1.334 . S
C1019 C1020 1.287 . S
C1020 C1019 1.287 . S
C1020 C1021 1.524 . S
C1020 H1039 0.913 . S
C1021 H997 0.950 . S
C1021 C1020 1.524 . S
C1021 C1022 1.415 . S
C1022 H998 0.943 1_545 S
C1022 C1017 1.363 . S
C1022 C1021 1.415 . S
C1023 H999 0.951 . S
C1023 C1024 1.366 . S
C1023 C1025 1.388 . S
C1024 C1023 1.366 . S
C1024 C1028 1.385 . S
C1025 H1000 0.951 . S
C1025 C1023 1.388 . S
C1025 C1026 1.366 . S
C1026 C1025 1.366 . S
C1026 C1027 1.414 . S
C1026 C1029 1.499 . S
C1027 H1001 0.950 . S
C1027 C1026 1.414 . S
C1027 C1028 1.374 . S
C1028 H1002 0.950 . S
C1028 C1024 1.385 . S
C1028 C1027 1.374 . S
C1029 C1026 1.499 . S
C1029 C1030 1.373 . S
C1029 C1031 1.389 . S
C1030 H1003 0.950 . S
C1030 C1016 1.377 1_565 S
C1030 C1029 1.373 . S
C1031 C1015 1.377 . S
C1031 C1029 1.389 . S
C1031 C1032 1.524 . S
C1032 C1031 1.524 . S
C1032 C1033 1.397 . S
C1032 C1037 1.363 . S
C1033 H1004 0.950 . S
C1033 C1032 1.397 . S
C1033 C1034 1.334 . S
C1034 H1005 0.950 . S
C1034 C1033 1.334 . S
C1034 C1035 1.287 . S
C1035 C1034 1.287 . S
C1035 C1036 1.524 . S
C1035 H1038 0.999 . S
C1036 H1006 0.950 . S
C1036 C1035 1.524 . S
C1036 C1037 1.415 . S
C1037 H1007 0.950 . S
C1037 C1032 1.363 . S
C1037 C1036 1.415 . S
H1038 C1035 0.999 . S
H1039 C1020 0.913 . S
H1040 C1058 0.951 . S
H1041 C1060 0.951 . S
H1042 C1062 0.950 . S
H1043 C1063 0.950 . S
H1044 C1065 0.950 . S
H1045 C1068 0.950 . S
H1046 C1069 0.950 . S
H1047 C1071 0.950 . S
H1048 C1072 0.950 . S
H1049 C1073 0.951 . S
H1050 C1075 0.951 . S
H1051 C1077 0.950 . S
H1052 C1078 0.950 . S
H1053 C1080 0.950 . S
H1054 C1083 0.950 . S
H1055 C1084 0.950 . S
H1056 C1086 0.950 . S
H1057 C1087 0.950 . S
C1058 H1040 0.951 . S
C1058 C1059 1.366 . S
C1058 C1060 1.388 . S
C1059 C1058 1.366 . S
C1059 C1063 1.385 . S
C1060 H1041 0.951 . S
C1060 C1058 1.388 . S
C1060 C1061 1.366 . S
C1061 C1060 1.366 . S
C1061 C1062 1.414 . S
C1061 C1064 1.499 . S
C1062 H1042 0.950 . S
C1062 C1061 1.414 . S
C1062 C1063 1.374 . S
C1063 H1043 0.950 . S
C1063 C1059 1.385 . S
C1063 C1062 1.374 . S
C1064 C1061 1.499 . S
C1064 C1065 1.373 1_545 S
C1064 C1066 1.389 . S
C1065 H1044 0.950 . S
C1065 C1064 1.373 1_565 S
C1065 C1081 1.377 . S
C1066 C1064 1.389 . S
C1066 C1067 1.524 . S
C1066 C1080 1.377 1_545 S
C1067 C1066 1.524 . S
C1067 C1068 1.397 . S
C1067 C1072 1.363 . S
C1068 H1045 0.950 . S
C1068 C1067 1.397 . S
C1068 C1069 1.334 . S
C1069 H1046 0.950 . S
C1069 C1068 1.334 . S
C1069 C1070 1.287 . S
C1070 C1069 1.287 . S
C1070 C1071 1.524 . S
C1070 H1089 0.913 . S
C1071 H1047 0.950 . S
C1071 C1070 1.524 . S
C1071 C1072 1.415 . S
C1072 H1048 0.950 . S
C1072 C1067 1.363 . S
C1072 C1071 1.415 . S
C1073 H1049 0.951 . S
C1073 C1074 1.366 . S
C1073 C1075 1.388 . S
C1074 C1073 1.366 . S
C1074 C1078 1.385 . S
C1075 H1050 0.951 . S
C1075 C1073 1.388 . S
C1075 C1076 1.366 . S
C1076 C1075 1.366 . S
C1076 C1077 1.414 . S
C1076 C1079 1.499 . S
C1077 H1051 0.950 . S
C1077 C1076 1.414 . S
C1077 C1078 1.374 . S
C1078 H1052 0.950 . S
C1078 C1074 1.385 . S
C1078 C1077 1.374 . S
C1079 C1076 1.499 . S
C1079 C1080 1.373 . S
C1079 C1081 1.389 . S
C1080 H1053 0.950 . S
C1080 C1066 1.377 1_565 S
C1080 C1079 1.373 . S
C1081 C1065 1.377 . S
C1081 C1079 1.389 . S
C1081 C1082 1.524 . S
C1082 C1081 1.524 . S
C1082 C1083 1.397 . S
C1082 C1087 1.363 . S
C1083 H1054 0.950 . S
C1083 C1082 1.397 . S
C1083 C1084 1.334 . S
C1084 H1055 0.950 . S
C1084 C1083 1.334 . S
C1084 C1085 1.287 . S
C1085 C1084 1.287 . S
C1085 C1086 1.524 . S
C1085 H1088 0.999 . S
C1086 H1056 0.950 . S
C1086 C1085 1.524 . S
C1086 C1087 1.415 . S
C1087 H1057 0.950 . S
C1087 C1082 1.363 . S
C1087 C1086 1.415 . S
H1088 C1085 0.999 . S
H1089 C1070 0.913 . S
H1090 C1108 0.951 . S
H1091 C1110 0.951 . S
H1092 C1112 0.950 . S
H1093 C1113 0.950 . S
H1094 C1115 0.950 . S
H1095 C1118 0.950 . S
H1096 C1119 0.950 . S
H1097 C1121 0.950 . S
H1098 C1122 0.950 . S
H1099 C1123 0.951 . S
H1100 C1125 0.951 . S
H1101 C1127 0.950 . S
H1102 C1128 0.950 . S
H1103 C1130 0.950 . S
H1104 C1133 0.950 . S
H1105 C1134 0.950 . S
H1106 C1136 0.950 . S
H1107 C1137 0.936 1_655 S
C1108 H1090 0.951 . S
C1108 C1109 1.366 . S
C1108 C1110 1.388 . S
C1109 C1108 1.366 . S
C1109 C1113 1.385 . S
C1110 H1091 0.951 . S
C1110 C1108 1.388 . S
C1110 C1111 1.366 . S
C1111 C1110 1.366 . S
C1111 C1112 1.414 . S
C1111 C1114 1.499 . S
C1112 H1092 0.950 . S
C1112 C1111 1.414 . S
C1112 C1113 1.374 . S
C1113 H1093 0.950 . S
C1113 C1109 1.385 . S
C1113 C1112 1.374 . S
C1114 C1111 1.499 . S
C1114 C1115 1.373 . S
C1114 C1116 1.389 . S
C1115 H1094 0.950 . S
C1115 C1114 1.373 . S
C1115 C1131 1.377 1_565 S
C1116 C1114 1.389 . S
C1116 C1117 1.524 . S
C1116 C1130 1.377 1_565 S
C1117 C1116 1.524 . S
C1117 C1118 1.397 . S
C1117 C1122 1.363 . S
C1118 H1095 0.950 . S
C1118 C1117 1.397 . S
C1118 C1119 1.334 . S
C1119 H1096 0.950 . S
C1119 C1118 1.334 . S
C1119 C1120 1.287 . S
C1120 C1119 1.287 . S
C1120 C1121 1.524 . S
C1120 H1139 0.913 . S
C1121 H1097 0.950 . S
C1121 C1120 1.524 . S
C1121 C1122 1.415 . S
C1122 H1098 0.950 . S
C1122 C1117 1.363 . S
C1122 C1121 1.415 . S
C1123 H1099 0.951 . S
C1123 C1124 1.366 . S
C1123 C1125 1.388 . S
C1124 C1123 1.366 . S
C1124 C1128 1.385 . S
C1125 H1100 0.951 . S
C1125 C1123 1.388 . S
C1125 C1126 1.366 . S
C1126 C1125 1.366 . S
C1126 C1127 1.414 . S
C1126 C1129 1.499 . S
C1127 H1101 0.950 . S
C1127 C1126 1.414 . S
C1127 C1128 1.374 . S
C1128 H1102 0.950 . S
C1128 C1124 1.385 . S
C1128 C1127 1.374 . S
C1129 C1126 1.499 . S
C1129 C1130 1.373 . S
C1129 C1131 1.389 . S
C1130 H1103 0.950 . S
C1130 C1116 1.377 1_545 S
C1130 C1129 1.373 . S
C1131 C1115 1.377 1_545 S
C1131 C1129 1.389 . S
C1131 C1132 1.524 . S
C1132 C1131 1.524 . S
C1132 C1133 1.397 . S
C1132 C1137 1.363 . S
C1133 H1104 0.950 . S
C1133 C1132 1.397 . S
C1133 C1134 1.334 . S
C1134 H1105 0.950 . S
C1134 C1133 1.334 . S
C1134 C1135 1.287 . S
C1135 C1134 1.287 . S
C1135 C1136 1.524 1_455 S
C1135 H1138 0.999 . S
C1136 H1106 0.950 . S
C1136 C1135 1.524 1_655 S
C1136 C1137 1.415 1_655 S
C1137 H1107 0.936 1_455 S
C1137 C1132 1.363 . S
C1137 C1136 1.415 1_455 S
H1138 C1135 0.999 . S
H1139 C1120 0.913 . S
H1140 C1158 0.951 . S
H1141 C1160 0.950 . S
H1142 C1162 0.950 . S
H1143 C1163 0.950 . S
H1144 C1165 0.950 . S
H1145 C1168 0.950 . S
H1146 C1169 0.950 . S
H1147 C1171 0.950 . S
H1148 C1172 0.950 . S
H1149 C1173 0.951 . S
H1150 C1175 0.951 . S
H1151 C1177 0.950 . S
H1152 C1178 0.950 . S
H1153 C1180 0.950 . S
H1154 C1183 0.950 . S
H1155 C1184 0.950 . S
H1156 C1186 0.950 . S
H1157 C1187 0.950 . S
C1158 H1140 0.951 . S
C1158 C1159 1.366 . S
C1158 C1160 1.391 1_554 S
C1159 C1158 1.366 . S
C1159 C1163 1.385 . S
C1160 H1141 0.950 . S
C1160 C1158 1.391 1_556 S
C1160 C1161 1.363 . S
C1161 C1160 1.363 . S
C1161 C1162 1.414 . S
C1161 C1164 1.499 . S
C1162 H1142 0.950 . S
C1162 C1161 1.414 . S
C1162 C1163 1.374 1_556 S
C1163 H1143 0.950 . S
C1163 C1159 1.385 . S
C1163 C1162 1.374 1_554 S
C1164 C1161 1.499 . S
C1164 C1165 1.373 . S
C1164 C1166 1.389 . S
C1165 H1144 0.950 . S
C1165 C1164 1.373 . S
C1165 C1181 1.377 . S
C1166 C1164 1.389 . S
C1166 C1167 1.524 . S
C1166 C1180 1.377 . S
C1167 C1166 1.524 . S
C1167 C1168 1.397 . S
C1167 C1172 1.363 . S
C1168 H1145 0.950 . S
C1168 C1167 1.397 . S
C1168 C1169 1.334 . S
C1169 H1146 0.950 . S
C1169 C1168 1.334 . S
C1169 C1170 1.287 . S
C1170 C1169 1.287 . S
C1170 C1171 1.524 . S
C1170 H1189 0.913 . S
C1171 H1147 0.950 . S
C1171 C1170 1.524 . S
C1171 C1172 1.415 . S
C1172 H1148 0.950 . S
C1172 C1167 1.363 . S
C1172 C1171 1.415 . S
C1173 H1149 0.951 . S
C1173 C1174 1.366 . S
C1173 C1175 1.388 . S
C1174 C1173 1.366 . S
C1174 C1178 1.385 . S
C1175 H1150 0.951 . S
C1175 C1173 1.388 . S
C1175 C1176 1.366 . S
C1176 C1175 1.366 . S
C1176 C1177 1.414 . S
C1176 C1179 1.499 . S
C1177 H1151 0.950 . S
C1177 C1176 1.414 . S
C1177 C1178 1.374 . S
C1178 H1152 0.950 . S
C1178 C1174 1.385 . S
C1178 C1177 1.374 . S
C1179 C1176 1.499 . S
C1179 C1180 1.373 . S
C1179 C1181 1.389 . S
C1180 H1153 0.950 . S
C1180 C1166 1.377 . S
C1180 C1179 1.373 . S
C1181 C1165 1.377 . S
C1181 C1179 1.389 . S
C1181 C1182 1.524 . S
C1182 C1181 1.524 . S
C1182 C1183 1.397 . S
C1182 C1187 1.363 . S
C1183 H1154 0.950 . S
C1183 C1182 1.397 . S
C1183 C1184 1.334 . S
C1184 H1155 0.950 . S
C1184 C1183 1.334 . S
C1184 C1185 1.287 . S
C1185 C1184 1.287 . S
C1185 C1186 1.524 . S
C1185 H1188 0.999 . S
C1186 H1156 0.950 . S
C1186 C1185 1.524 . S
C1186 C1187 1.415 . S
C1187 H1157 0.950 . S
C1187 C1182 1.363 . S
C1187 C1186 1.415 . S
H1188 C1185 0.999 . S
H1189 C1170 0.913 . S
H1190 C1208 0.951 . S
H1191 C1210 0.951 . S
H1192 C1212 0.950 . S
H1193 C1213 0.950 . S
H1194 C1215 0.950 . S
H1195 C1218 0.950 . S
H1196 C1219 0.950 . S
H1197 C1221 0.950 1_655 S
H1198 C1222 0.950 . S
H1199 C1223 0.951 . S
H1200 C1225 0.951 . S
H1201 C1227 0.950 . S
H1202 C1228 0.950 . S
H1203 C1230 0.950 . S
H1204 C1233 0.950 . S
H1205 C1234 0.950 . S
H1206 C1236 0.950 . S
H1207 C1237 0.950 . S
C1208 H1190 0.951 . S
C1208 C1209 1.366 . S
C1208 C1210 1.388 . S
C1209 C1208 1.366 . S
C1209 C1213 1.385 . S
C1210 H1191 0.951 . S
C1210 C1208 1.388 . S
C1210 C1211 1.366 . S
C1211 C1210 1.366 . S
C1211 C1212 1.414 . S
C1211 C1214 1.499 . S
C1212 H1192 0.950 . S
C1212 C1211 1.414 . S
C1212 C1213 1.374 . S
C1213 H1193 0.950 . S
C1213 C1209 1.385 . S
C1213 C1212 1.374 . S
C1214 C1211 1.499 . S
C1214 C1215 1.373 . S
C1214 C1216 1.389 . S
C1215 H1194 0.950 . S
C1215 C1214 1.373 . S
C1215 C1231 1.377 . S
C1216 C1214 1.389 . S
C1216 C1217 1.524 . S
C1216 C1230 1.377 . S
C1217 C1216 1.524 . S
C1217 C1218 1.397 . S
C1217 C1222 1.363 . S
C1218 H1195 0.950 . S
C1218 C1217 1.397 . S
C1218 C1219 1.334 . S
C1219 H1196 0.950 . S
C1219 C1218 1.334 . S
C1219 C1220 1.287 1_455 S
C1220 C1219 1.287 1_655 S
C1220 C1221 1.524 1_655 S
C1220 H1239 0.913 . S
C1221 H1197 0.950 1_455 S
C1221 C1220 1.524 1_455 S
C1221 C1222 1.415 . S
C1222 H1198 0.950 . S
C1222 C1217 1.363 . S
C1222 C1221 1.415 . S
C1223 H1199 0.951 . S
C1223 C1224 1.366 . S
C1223 C1225 1.388 . S
C1224 C1223 1.366 . S
C1224 C1228 1.385 . S
C1225 H1200 0.951 . S
C1225 C1223 1.388 . S
C1225 C1226 1.366 . S
C1226 C1225 1.366 . S
C1226 C1227 1.414 . S
C1226 C1229 1.499 . S
C1227 H1201 0.950 . S
C1227 C1226 1.414 . S
C1227 C1228 1.374 . S
C1228 H1202 0.950 . S
C1228 C1224 1.385 . S
C1228 C1227 1.374 . S
C1229 C1226 1.499 . S
C1229 C1230 1.373 . S
C1229 C1231 1.389 . S
C1230 H1203 0.950 . S
C1230 C1216 1.377 . S
C1230 C1229 1.373 . S
C1231 C1215 1.377 . S
C1231 C1229 1.389 . S
C1231 C1232 1.524 . S
C1232 C1231 1.524 . S
C1232 C1233 1.397 . S
C1232 C1237 1.363 . S
C1233 H1204 0.950 . S
C1233 C1232 1.397 . S
C1233 C1234 1.334 . S
C1234 H1205 0.950 . S
C1234 C1233 1.334 . S
C1234 C1235 1.287 . S
C1235 C1234 1.287 . S
C1235 C1236 1.524 . S
C1235 H1238 0.999 . S
C1236 H1206 0.950 . S
C1236 C1235 1.524 . S
C1236 C1237 1.415 . S
C1237 H1207 0.950 . S
C1237 C1232 1.363 . S
C1237 C1236 1.415 . S
H1238 C1235 0.999 . S
H1239 C1220 0.913 . S
H1240 C1258 0.951 . S
H1241 C1260 0.951 . S
H1242 C1262 0.950 . S
H1243 C1263 0.950 . S
H1244 C1265 0.950 . S
H1245 C1268 0.950 . S
H1246 C1269 0.950 . S
H1247 C1271 0.950 . S
H1248 C1272 0.950 . S
H1249 C1273 0.951 . S
H1250 C1275 0.951 . S
H1251 C1277 0.950 . S
H1252 C1278 0.950 . S
H1253 C1280 0.950 . S
H1254 C1283 0.950 . S
H1255 C1284 0.950 . S
H1256 C1286 0.950 . S
H1257 C1287 0.950 . S
C1258 H1240 0.951 . S
C1258 C1259 1.366 . S
C1258 C1260 1.388 . S
C1259 C1258 1.366 . S
C1259 C1263 1.385 . S
C1260 H1241 0.951 . S
C1260 C1258 1.388 . S
C1260 C1261 1.366 . S
C1261 C1260 1.366 . S
C1261 C1262 1.414 . S
C1261 C1264 1.499 . S
C1262 H1242 0.950 . S
C1262 C1261 1.414 . S
C1262 C1263 1.374 . S
C1263 H1243 0.950 . S
C1263 C1259 1.385 . S
C1263 C1262 1.374 . S
C1264 C1261 1.499 . S
C1264 C1265 1.373 . S
C1264 C1266 1.389 . S
C1265 H1244 0.950 . S
C1265 C1264 1.373 . S
C1265 C1281 1.377 . S
C1266 C1264 1.389 . S
C1266 C1267 1.524 . S
C1266 C1280 1.377 . S
C1267 C1266 1.524 . S
C1267 C1268 1.397 . S
C1267 C1272 1.363 . S
C1268 H1245 0.950 . S
C1268 C1267 1.397 . S
C1268 C1269 1.334 . S
C1269 H1246 0.950 . S
C1269 C1268 1.334 . S
C1269 C1270 1.287 . S
C1270 C1269 1.287 . S
C1270 C1271 1.524 . S
C1270 H1289 0.913 . S
C1271 H1247 0.950 . S
C1271 C1270 1.524 . S
C1271 C1272 1.415 . S
C1272 H1248 0.950 . S
C1272 C1267 1.363 . S
C1272 C1271 1.415 . S
C1273 H1249 0.951 . S
C1273 C1274 1.366 . S
C1273 C1275 1.388 . S
C1274 C1273 1.366 . S
C1274 C1278 1.385 . S
C1275 H1250 0.951 . S
C1275 C1273 1.388 . S
C1275 C1276 1.366 . S
C1276 C1275 1.366 . S
C1276 C1277 1.414 . S
C1276 C1279 1.499 . S
C1277 H1251 0.950 . S
C1277 C1276 1.414 . S
C1277 C1278 1.374 . S
C1278 H1252 0.950 . S
C1278 C1274 1.385 . S
C1278 C1277 1.374 . S
C1279 C1276 1.499 . S
C1279 C1280 1.373 . S
C1279 C1281 1.389 . S
C1280 H1253 0.950 . S
C1280 C1266 1.377 . S
C1280 C1279 1.373 . S
C1281 C1265 1.377 . S
C1281 C1279 1.389 . S
C1281 C1282 1.524 . S
C1282 C1281 1.524 . S
C1282 C1283 1.397 . S
C1282 C1287 1.363 . S
C1283 H1254 0.950 . S
C1283 C1282 1.397 . S
C1283 C1284 1.334 . S
C1284 H1255 0.950 . S
C1284 C1283 1.334 . S
C1284 C1285 1.287 . S
C1285 C1284 1.287 . S
C1285 C1286 1.524 . S
C1285 H1288 0.999 . S
C1286 H1256 0.950 . S
C1286 C1285 1.524 . S
C1286 C1287 1.415 . S
C1287 H1257 0.950 . S
C1287 C1282 1.363 . S
C1287 C1286 1.415 . S
H1288 C1285 0.999 . S
H1289 C1270 0.913 . S
H1290 C1308 0.951 . S
H1291 C1310 0.951 . S
H1292 C1312 0.950 . S
H1293 C1313 0.950 . S
H1294 C1315 0.950 . S
H1295 C1318 0.950 . S
H1296 C1319 0.950 . S
H1297 C1321 0.950 . S
H1298 C1322 0.950 . S
H1299 C1323 0.951 . S
H1300 C1325 0.951 . S
H1301 C1327 0.950 . S
H1302 C1328 0.950 . S
H1303 C1330 0.950 . S
H1304 C1333 0.950 . S
H1305 C1334 0.950 . S
H1306 C1336 0.950 . S
H1307 C1337 0.950 . S
C1308 H1290 0.951 . S
C1308 C1309 1.366 . S
C1308 C1310 1.388 . S
C1309 C1308 1.366 . S
C1309 C1313 1.385 . S
C1310 H1291 0.951 . S
C1310 C1308 1.388 . S
C1310 C1311 1.366 . S
C1311 C1310 1.366 . S
C1311 C1312 1.414 . S
C1311 C1314 1.499 . S
C1312 H1292 0.950 . S
C1312 C1311 1.414 . S
C1312 C1313 1.374 . S
C1313 H1293 0.950 . S
C1313 C1309 1.385 . S
C1313 C1312 1.374 . S
C1314 C1311 1.499 . S
C1314 C1315 1.373 . S
C1314 C1316 1.389 . S
C1315 H1294 0.950 . S
C1315 C1314 1.373 . S
C1315 C1331 1.377 . S
C1316 C1314 1.389 . S
C1316 C1317 1.524 . S
C1316 C1330 1.377 . S
C1317 C1316 1.524 . S
C1317 C1318 1.397 . S
C1317 C1322 1.363 . S
C1318 H1295 0.950 . S
C1318 C1317 1.397 . S
C1318 C1319 1.334 . S
C1319 H1296 0.950 . S
C1319 C1318 1.334 . S
C1319 C1320 1.287 . S
C1320 C1319 1.287 . S
C1320 C1321 1.524 . S
C1320 H1339 0.913 . S
C1321 H1297 0.950 . S
C1321 C1320 1.524 . S
C1321 C1322 1.415 . S
C1322 H1298 0.950 . S
C1322 C1317 1.363 . S
C1322 C1321 1.415 . S
C1323 H1299 0.951 . S
C1323 C1324 1.366 . S
C1323 C1325 1.388 . S
C1324 C1323 1.366 . S
C1324 C1328 1.385 . S
C1325 H1300 0.951 . S
C1325 C1323 1.388 . S
C1325 C1326 1.366 . S
C1326 C1325 1.366 . S
C1326 C1327 1.414 . S
C1326 C1329 1.499 . S
C1327 H1301 0.950 . S
C1327 C1326 1.414 . S
C1327 C1328 1.374 . S
C1328 H1302 0.950 . S
C1328 C1324 1.385 . S
C1328 C1327 1.374 . S
C1329 C1326 1.499 . S
C1329 C1330 1.373 . S
C1329 C1331 1.389 . S
C1330 H1303 0.950 . S
C1330 C1316 1.377 . S
C1330 C1329 1.373 . S
C1331 C1315 1.377 . S
C1331 C1329 1.389 . S
C1331 C1332 1.524 . S
C1332 C1331 1.524 . S
C1332 C1333 1.397 . S
C1332 C1337 1.363 . S
C1333 H1304 0.950 . S
C1333 C1332 1.397 . S
C1333 C1334 1.334 . S
C1334 H1305 0.950 . S
C1334 C1333 1.334 . S
C1334 C1335 1.287 . S
C1335 C1334 1.287 . S
C1335 C1336 1.524 . S
C1335 H1338 0.999 . S
C1336 H1306 0.950 . S
C1336 C1335 1.524 . S
C1336 C1337 1.415 . S
C1337 H1307 0.950 . S
C1337 C1332 1.363 . S
C1337 C1336 1.415 . S
H1338 C1335 0.999 . S
H1339 C1320 0.913 . S
H1340 C1358 0.951 . S
H1341 C1360 0.942 1_554 S
H1342 C1362 0.976 . S
H1343 C1363 0.950 . S
H1344 C1365 0.950 . S
H1345 C1368 0.950 . S
H1346 C1369 0.950 . S
H1347 C1371 0.950 . S
H1348 C1372 0.950 . S
H1349 C1373 0.951 . S
H1350 C1375 0.951 . S
H1351 C1377 0.950 . S
H1352 C1378 0.950 . S
H1353 C1380 0.950 . S
H1354 C1383 0.950 . S
H1355 C1384 0.950 . S
H1356 C1386 0.950 . S
H1357 C1387 0.950 . S
C1358 H1340 0.951 . S
C1358 C1359 1.366 . S
C1358 C1360 1.408 . S
C1359 C1358 1.366 . S
C1359 C1363 1.385 . S
C1360 H1341 0.942 1_556 S
C1360 C1358 1.408 . S
C1360 C1361 1.354 1_556 S
C1361 C1360 1.354 1_554 S
C1361 C1362 1.436 . S
C1361 C1364 1.499 . S
C1362 H1342 0.976 . S
C1362 C1361 1.436 . S
C1362 C1363 1.328 1_554 S
C1363 H1343 0.950 . S
C1363 C1359 1.385 . S
C1363 C1362 1.328 1_556 S
C1364 C1361 1.499 . S
C1364 C1365 1.373 . S
C1364 C1366 1.389 . S
C1365 H1344 0.950 . S
C1365 C1364 1.373 . S
C1365 C1381 1.377 . S
C1366 C1364 1.389 . S
C1366 C1367 1.524 . S
C1366 C1380 1.377 . S
C1367 C1366 1.524 . S
C1367 C1368 1.422 . S
C1367 C1372 1.363 . S
C1368 H1345 0.950 . S
C1368 C1367 1.422 . S
C1368 C1369 1.309 1_455 S
C1369 H1346 0.950 . S
C1369 C1368 1.309 1_655 S
C1369 C1370 1.287 . S
C1370 C1369 1.287 . S
C1370 C1371 1.524 1_655 S
C1370 H1389 0.913 . S
C1371 H1347 0.950 . S
C1371 C1370 1.524 1_455 S
C1371 C1372 1.415 . S
C1372 H1348 0.950 . S
C1372 C1367 1.363 . S
C1372 C1371 1.415 . S
C1373 H1349 0.951 . S
C1373 C1374 1.366 . S
C1373 C1375 1.388 . S
C1374 C1373 1.366 . S
C1374 C1378 1.385 . S
C1375 H1350 0.951 . S
C1375 C1373 1.388 . S
C1375 C1376 1.366 . S
C1376 C1375 1.366 . S
C1376 C1377 1.414 . S
C1376 C1379 1.499 . S
C1377 H1351 0.950 . S
C1377 C1376 1.414 . S
C1377 C1378 1.374 . S
C1378 H1352 0.950 . S
C1378 C1374 1.385 . S
C1378 C1377 1.374 . S
C1379 C1376 1.499 . S
C1379 C1380 1.373 . S
C1379 C1381 1.389 . S
C1380 H1353 0.950 . S
C1380 C1366 1.377 . S
C1380 C1379 1.373 . S
C1381 C1365 1.377 . S
C1381 C1379 1.389 . S
C1381 C1382 1.524 . S
C1382 C1381 1.524 . S
C1382 C1383 1.397 . S
C1382 C1387 1.363 . S
C1383 H1354 0.950 . S
C1383 C1382 1.397 . S
C1383 C1384 1.334 . S
C1384 H1355 0.950 . S
C1384 C1383 1.334 . S
C1384 C1385 1.287 . S
C1385 C1384 1.287 . S
C1385 C1386 1.524 . S
C1385 H1388 0.999 . S
C1386 H1356 0.950 . S
C1386 C1385 1.524 . S
C1386 C1387 1.415 . S
C1387 H1357 0.950 . S
C1387 C1382 1.363 . S
C1387 C1386 1.415 . S
H1388 C1385 0.999 . S
H1389 C1370 0.913 . S
H1390 C1408 0.951 . S
H1391 C1410 0.951 . S
H1392 C1412 0.950 . S
H1393 C1413 0.950 . S
H1394 C1415 0.950 . S
H1395 C1418 0.950 . S
H1396 C1419 0.950 . S
H1397 C1421 0.950 . S
H1398 C1422 0.950 . S
H1399 C1423 0.951 . S
H1400 C1425 0.951 . S
H1401 C1427 0.950 . S
H1402 C1428 0.950 . S
H1403 C1430 0.950 . S
H1404 C1433 0.950 . S
H1405 C1434 0.950 . S
H1406 C1436 0.950 . S
H1407 C1437 0.950 . S
C1408 H1390 0.951 . S
C1408 C1409 1.366 . S
C1408 C1410 1.388 . S
C1409 C1408 1.366 . S
C1409 C1413 1.385 . S
C1410 H1391 0.951 . S
C1410 C1408 1.388 . S
C1410 C1411 1.366 . S
C1411 C1410 1.366 . S
C1411 C1412 1.414 . S
C1411 C1414 1.499 . S
C1412 H1392 0.950 . S
C1412 C1411 1.414 . S
C1412 C1413 1.374 . S
C1413 H1393 0.950 . S
C1413 C1409 1.385 . S
C1413 C1412 1.374 . S
C1414 C1411 1.499 . S
C1414 C1415 1.373 . S
C1414 C1416 1.389 . S
C1415 H1394 0.950 . S
C1415 C1414 1.373 . S
C1415 C1431 1.377 . S
C1416 C1414 1.389 . S
C1416 C1417 1.524 . S
C1416 C1430 1.377 . S
C1417 C1416 1.524 . S
C1417 C1418 1.397 . S
C1417 C1422 1.363 . S
C1418 H1395 0.950 . S
C1418 C1417 1.397 . S
C1418 C1419 1.334 . S
C1419 H1396 0.950 . S
C1419 C1418 1.334 . S
C1419 C1420 1.287 . S
C1420 C1419 1.287 . S
C1420 C1421 1.524 . S
C1420 H1439 0.913 . S
C1421 H1397 0.950 . S
C1421 C1420 1.524 . S
C1421 C1422 1.415 . S
C1422 H1398 0.950 . S
C1422 C1417 1.363 . S
C1422 C1421 1.415 . S
C1423 H1399 0.951 . S
C1423 C1424 1.366 . S
C1423 C1425 1.388 . S
C1424 C1423 1.366 . S
C1424 C1428 1.385 . S
C1425 H1400 0.951 . S
C1425 C1423 1.388 . S
C1425 C1426 1.366 . S
C1426 C1425 1.366 . S
C1426 C1427 1.414 . S
C1426 C1429 1.499 . S
C1427 H1401 0.950 . S
C1427 C1426 1.414 . S
C1427 C1428 1.374 . S
C1428 H1402 0.950 . S
C1428 C1424 1.385 . S
C1428 C1427 1.374 . S
C1429 C1426 1.499 . S
C1429 C1430 1.373 . S
C1429 C1431 1.389 . S
C1430 H1403 0.950 . S
C1430 C1416 1.377 . S
C1430 C1429 1.373 . S
C1431 C1415 1.377 . S
C1431 C1429 1.389 . S
C1431 C1432 1.524 . S
C1432 C1431 1.524 . S
C1432 C1433 1.397 . S
C1432 C1437 1.363 . S
C1433 H1404 0.950 . S
C1433 C1432 1.397 . S
C1433 C1434 1.334 . S
C1434 H1405 0.950 . S
C1434 C1433 1.334 . S
C1434 C1435 1.287 . S
C1435 C1434 1.287 . S
C1435 C1436 1.524 . S
C1435 H1438 0.999 . S
C1436 H1406 0.950 . S
C1436 C1435 1.524 . S
C1436 C1437 1.415 . S
C1437 H1407 0.950 . S
C1437 C1432 1.363 . S
C1437 C1436 1.415 . S
H1438 C1435 0.999 . S
H1439 C1420 0.913 . S
H1440 C1458 0.951 . S
H1441 C1460 0.951 . S
H1442 C1462 0.950 . S
H1443 C1463 0.950 . S
H1444 C1465 0.950 . S
H1445 C1468 0.950 . S
H1446 C1469 0.950 . S
H1447 C1471 0.950 . S
H1448 C1472 0.950 . S
H1449 C1473 0.951 . S
H1450 C1475 0.951 . S
H1451 C1477 0.950 . S
H1452 C1478 0.950 . S
H1453 C1480 0.950 . S
H1454 C1483 0.950 . S
H1455 C1484 0.950 . S
H1456 C1486 0.950 . S
H1457 C1487 0.950 . S
C1458 H1440 0.951 . S
C1458 C1459 1.366 . S
C1458 C1460 1.388 . S
C1459 C1458 1.366 . S
C1459 C1463 1.385 . S
C1460 H1441 0.951 . S
C1460 C1458 1.388 . S
C1460 C1461 1.366 . S
C1461 C1460 1.366 . S
C1461 C1462 1.414 . S
C1461 C1464 1.499 . S
C1462 H1442 0.950 . S
C1462 C1461 1.414 . S
C1462 C1463 1.374 . S
C1463 H1443 0.950 . S
C1463 C1459 1.385 . S
C1463 C1462 1.374 . S
C1464 C1461 1.499 . S
C1464 C1465 1.373 . S
C1464 C1466 1.389 . S
C1465 H1444 0.950 . S
C1465 C1464 1.373 . S
C1465 C1481 1.377 . S
C1466 C1464 1.389 . S
C1466 C1467 1.524 . S
C1466 C1480 1.377 . S
C1467 C1466 1.524 . S
C1467 C1468 1.397 . S
C1467 C1472 1.363 . S
C1468 H1445 0.950 . S
C1468 C1467 1.397 . S
C1468 C1469 1.334 . S
C1469 H1446 0.950 . S
C1469 C1468 1.334 . S
C1469 C1470 1.287 . S
C1470 C1469 1.287 . S
C1470 C1471 1.524 . S
C1470 H1489 0.913 . S
C1471 H1447 0.950 . S
C1471 C1470 1.524 . S
C1471 C1472 1.415 . S
C1472 H1448 0.950 . S
C1472 C1467 1.363 . S
C1472 C1471 1.415 . S
C1473 H1449 0.951 . S
C1473 C1474 1.366 . S
C1473 C1475 1.388 . S
C1474 C1473 1.366 . S
C1474 C1478 1.385 . S
C1475 H1450 0.951 . S
C1475 C1473 1.388 . S
C1475 C1476 1.366 . S
C1476 C1475 1.366 . S
C1476 C1477 1.414 . S
C1476 C1479 1.499 . S
C1477 H1451 0.950 . S
C1477 C1476 1.414 . S
C1477 C1478 1.374 . S
C1478 H1452 0.950 . S
C1478 C1474 1.385 . S
C1478 C1477 1.374 . S
C1479 C1476 1.499 . S
C1479 C1480 1.373 . S
C1479 C1481 1.389 . S
C1480 H1453 0.950 . S
C1480 C1466 1.377 . S
C1480 C1479 1.373 . S
C1481 C1465 1.377 . S
C1481 C1479 1.389 . S
C1481 C1482 1.524 . S
C1482 C1481 1.524 . S
C1482 C1483 1.397 . S
C1482 C1487 1.363 . S
C1483 H1454 0.950 . S
C1483 C1482 1.397 . S
C1483 C1484 1.334 . S
C1484 H1455 0.950 . S
C1484 C1483 1.334 . S
C1484 C1485 1.287 . S
C1485 C1484 1.287 . S
C1485 C1486 1.524 . S
C1485 H1488 0.999 . S
C1486 H1456 0.950 . S
C1486 C1485 1.524 . S
C1486 C1487 1.415 . S
C1487 H1457 0.950 . S
C1487 C1482 1.363 . S
C1487 C1486 1.415 . S
H1488 C1485 0.999 . S
H1489 C1470 0.913 . S
H1490 C1508 0.951 . S
H1491 C1510 0.951 . S
H1492 C1512 0.950 . S
H1493 C1513 0.950 . S
H1494 C1515 0.950 . S
H1495 C1518 0.950 . S
H1496 C1519 0.950 . S
H1497 C1521 0.950 . S
H1498 C1522 0.950 . S
H1499 C1523 0.951 . S
H1500 C1525 0.951 . S
H1501 C1527 0.950 . S
H1502 C1528 0.950 . S
H1503 C1530 0.950 . S
H1504 C1533 0.950 . S
H1505 C1534 0.950 . S
H1506 C1536 0.950 . S
H1507 C1537 0.950 . S
C1508 H1490 0.951 . S
C1508 C1509 1.366 . S
C1508 C1510 1.388 . S
C1509 C1508 1.366 . S
C1509 C1513 1.385 . S
C1510 H1491 0.951 . S
C1510 C1508 1.388 . S
C1510 C1511 1.366 . S
C1511 C1510 1.366 . S
C1511 C1512 1.414 . S
C1511 C1514 1.499 . S
C1512 H1492 0.950 . S
C1512 C1511 1.414 . S
C1512 C1513 1.374 . S
C1513 H1493 0.950 . S
C1513 C1509 1.385 . S
C1513 C1512 1.374 . S
C1514 C1511 1.499 . S
C1514 C1515 1.373 . S
C1514 C1516 1.389 . S
C1515 H1494 0.950 . S
C1515 C1514 1.373 . S
C1515 C1531 1.377 . S
C1516 C1514 1.389 . S
C1516 C1517 1.524 . S
C1516 C1530 1.377 . S
C1517 C1516 1.524 . S
C1517 C1518 1.397 . S
C1517 C1522 1.363 . S
C1518 H1495 0.950 . S
C1518 C1517 1.397 . S
C1518 C1519 1.334 . S
C1519 H1496 0.950 . S
C1519 C1518 1.334 . S
C1519 C1520 1.287 . S
C1520 C1519 1.287 . S
C1520 C1521 1.524 . S
C1520 H1539 0.913 . S
C1521 H1497 0.950 . S
C1521 C1520 1.524 . S
C1521 C1522 1.415 . S
C1522 H1498 0.950 . S
C1522 C1517 1.363 . S
C1522 C1521 1.415 . S
C1523 H1499 0.951 . S
C1523 C1524 1.366 . S
C1523 C1525 1.388 . S
C1524 C1523 1.366 . S
C1524 C1528 1.385 . S
C1525 H1500 0.951 . S
C1525 C1523 1.388 . S
C1525 C1526 1.366 . S
C1526 C1525 1.366 . S
C1526 C1527 1.414 . S
C1526 C1529 1.499 . S
C1527 H1501 0.950 . S
C1527 C1526 1.414 . S
C1527 C1528 1.374 . S
C1528 H1502 0.950 . S
C1528 C1524 1.385 . S
C1528 C1527 1.374 . S
C1529 C1526 1.499 . S
C1529 C1530 1.373 . S
C1529 C1531 1.389 . S
C1530 H1503 0.950 . S
C1530 C1516 1.377 . S
C1530 C1529 1.373 . S
C1531 C1515 1.377 . S
C1531 C1529 1.389 . S
C1531 C1532 1.524 . S
C1532 C1531 1.524 . S
C1532 C1533 1.397 . S
C1532 C1537 1.363 . S
C1533 H1504 0.950 . S
C1533 C1532 1.397 . S
C1533 C1534 1.334 . S
C1534 H1505 0.950 . S
C1534 C1533 1.334 . S
C1534 C1535 1.287 . S
C1535 C1534 1.287 . S
C1535 C1536 1.524 . S
C1535 H1538 0.999 . S
C1536 H1506 0.950 . S
C1536 C1535 1.524 . S
C1536 C1537 1.415 . S
C1537 H1507 0.950 . S
C1537 C1532 1.363 . S
C1537 C1536 1.415 . S
H1538 C1535 0.999 . S
H1539 C1520 0.913 . S
C374 C263 1.486 . S
C359 C17 1.624 . S
C424 C281 1.247 . S
C409 C55 1.304 1_655 S
C459 C87 1.339 . S
C474 C305 1.227 . S
C524 C335 1.272 . S
C509 C113 1.405 . S
C574 C323 1.226 . S
C559 C145 1.294 . S
C609 C177 1.380 . S
C624 C276 1.313 . S
C659 C215 1.555 . S
C674 C296 1.489 . S
C709 C247 1.364 . S
C724 C301 1.234 . S
C759 C241 1.371 . S
C774 C317 1.301 . S
C809 C183 1.366 . S
C824 C272 1.236 . S
C874 C339 1.254 . S
C859 C119 1.306 . S
C924 C284 1.270 . S
C909 C49 1.407 . S
C959 C81 1.618 . S
C974 C302 1.479 . S
C1009 C23 1.353 . S
C1024 C260 1.239 . S
C1074 C280 1.218 . S
C1059 C209 1.278 . S
C1124 C326 1.499 . S
C1109 C151 1.569 . S
C1174 C322 1.317 . S
C1159 C29 1.475 . S
C1224 C275 1.321 . S
C1209 C61 1.373 . S
C1259 C93 1.456 . S
C1274 C297 1.294 . S
C1309 C125 1.400 . S
C1324 C318 1.342 . S
C1374 C259 1.315 . S
C1359 C157 1.420 . S
C1409 C189 1.456 . S
C1424 C293 1.372 . S
C1474 C314 1.332 . S
C1459 C221 1.443 . S
C1524 C338 1.348 . S
C1509 C253 1.432 . S
