# Generated by pormake.
# Topology eea, (3,6)-cn, num edge types: 1
# Building blocks:
#     Node 0, Type 0, BuildingBlock: BETDAH_clean_linker_0, # of connection points: 3
#     Node 1, Type 0, BuildingBlock: BETDAH_clean_linker_0, # of connection points: 3
#     Node 2, Type 0, BuildingBlock: BETDAH_clean_linker_0, # of connection points: 3
#     Node 3, Type 0, BuildingBlock: BETDAH_clean_linker_0, # of connection points: 3
#     Node 4, Type 0, BuildingBlock: BETDAH_clean_linker_0, # of connection points: 3
#     Node 5, Type 0, BuildingBlock: BETDAH_clean_linker_0, # of connection points: 3
#     Node 6, Type 0, BuildingBlock: BETDAH_clean_linker_0, # of connection points: 3
#     Node 7, Type 0, BuildingBlock: BETDAH_clean_linker_0, # of connection points: 3
#     Node 8, Type 0, BuildingBlock: BETDAH_clean_linker_0, # of connection points: 3
#     Node 9, Type 0, BuildingBlock: BETDAH_clean_linker_0, # of connection points: 3
#     Node 10, Type 0, BuildingBlock: BETDAH_clean_linker_0, # of connection points: 3
#     Node 11, Type 0, BuildingBlock: BETDAH_clean_linker_0, # of connection points: 3
#     Node 12, Type 0, BuildingBlock: BETDAH_clean_linker_0, # of connection points: 3
#     Node 13, Type 0, BuildingBlock: BETDAH_clean_linker_0, # of connection points: 3
#     Node 14, Type 0, BuildingBlock: BETDAH_clean_linker_0, # of connection points: 3
#     Node 15, Type 0, BuildingBlock: BETDAH_clean_linker_0, # of connection points: 3
#     Node 16, Type 0, BuildingBlock: BETDAH_clean_linker_0, # of connection points: 3
#     Node 17, Type 0, BuildingBlock: BETDAH_clean_linker_0, # of connection points: 3
#     Node 18, Type 1, BuildingBlock: CIFDUS_clean_sbu_1, # of connection points: 6
#     Node 19, Type 1, BuildingBlock: CIFDUS_clean_sbu_1, # of connection points: 6
#     Node 20, Type 1, BuildingBlock: CIFDUS_clean_sbu_1, # of connection points: 6
#     Node 21, Type 1, BuildingBlock: CIFDUS_clean_sbu_1, # of connection points: 6
#     Node 22, Type 1, BuildingBlock: CIFDUS_clean_sbu_1, # of connection points: 6
#     Node 23, Type 1, BuildingBlock: CIFDUS_clean_sbu_1, # of connection points: 6
#     Node 24, Type 1, BuildingBlock: CIFDUS_clean_sbu_1, # of connection points: 6
#     Node 25, Type 1, BuildingBlock: CIFDUS_clean_sbu_1, # of connection points: 6
#     Node 26, Type 1, BuildingBlock: CIFDUS_clean_sbu_1, # of connection points: 6
#     Edge 27, Type (0, 1), BuildingBlock: TEMPAE_clean_linker_10, # of connection points: 2
#     Edge 28, Type (0, 1), BuildingBlock: TEMPAE_clean_linker_10, # of connection points: 2
#     Edge 29, Type (0, 1), BuildingBlock: TEMPAE_clean_linker_10, # of connection points: 2
#     Edge 30, Type (0, 1), BuildingBlock: TEMPAE_clean_linker_10, # of connection points: 2
#     Edge 31, Type (0, 1), BuildingBlock: TEMPAE_clean_linker_10, # of connection points: 2
#     Edge 32, Type (0, 1), BuildingBlock: TEMPAE_clean_linker_10, # of connection points: 2
#     Edge 33, Type (0, 1), BuildingBlock: TEMPAE_clean_linker_10, # of connection points: 2
#     Edge 34, Type (0, 1), BuildingBlock: TEMPAE_clean_linker_10, # of connection points: 2
#     Edge 35, Type (0, 1), BuildingBlock: TEMPAE_clean_linker_10, # of connection points: 2
#     Edge 36, Type (0, 1), BuildingBlock: TEMPAE_clean_linker_10, # of connection points: 2
#     Edge 37, Type (0, 1), BuildingBlock: TEMPAE_clean_linker_10, # of connection points: 2
#     Edge 38, Type (0, 1), BuildingBlock: TEMPAE_clean_linker_10, # of connection points: 2
#     Edge 39, Type (0, 1), BuildingBlock: TEMPAE_clean_linker_10, # of connection points: 2
#     Edge 40, Type (0, 1), BuildingBlock: TEMPAE_clean_linker_10, # of connection points: 2
#     Edge 41, Type (0, 1), BuildingBlock: TEMPAE_clean_linker_10, # of connection points: 2
#     Edge 42, Type (0, 1), BuildingBlock: TEMPAE_clean_linker_10, # of connection points: 2
#     Edge 43, Type (0, 1), BuildingBlock: TEMPAE_clean_linker_10, # of connection points: 2
#     Edge 44, Type (0, 1), BuildingBlock: TEMPAE_clean_linker_10, # of connection points: 2
#     Edge 45, Type (0, 1), BuildingBlock: TEMPAE_clean_linker_10, # of connection points: 2
#     Edge 46, Type (0, 1), BuildingBlock: TEMPAE_clean_linker_10, # of connection points: 2
#     Edge 47, Type (0, 1), BuildingBlock: TEMPAE_clean_linker_10, # of connection points: 2
#     Edge 48, Type (0, 1), BuildingBlock: TEMPAE_clean_linker_10, # of connection points: 2
#     Edge 49, Type (0, 1), BuildingBlock: TEMPAE_clean_linker_10, # of connection points: 2
#     Edge 50, Type (0, 1), BuildingBlock: TEMPAE_clean_linker_10, # of connection points: 2
#     Edge 51, Type (0, 1), BuildingBlock: TEMPAE_clean_linker_10, # of connection points: 2
#     Edge 52, Type (0, 1), BuildingBlock: TEMPAE_clean_linker_10, # of connection points: 2
#     Edge 53, Type (0, 1), BuildingBlock: TEMPAE_clean_linker_10, # of connection points: 2
#     Edge 54, Type (0, 1), BuildingBlock: TEMPAE_clean_linker_10, # of connection points: 2
#     Edge 55, Type (0, 1), BuildingBlock: TEMPAE_clean_linker_10, # of connection points: 2
#     Edge 56, Type (0, 1), BuildingBlock: TEMPAE_clean_linker_10, # of connection points: 2
#     Edge 57, Type (0, 1), BuildingBlock: TEMPAE_clean_linker_10, # of connection points: 2
#     Edge 58, Type (0, 1), BuildingBlock: TEMPAE_clean_linker_10, # of connection points: 2
#     Edge 59, Type (0, 1), BuildingBlock: TEMPAE_clean_linker_10, # of connection points: 2
#     Edge 60, Type (0, 1), BuildingBlock: TEMPAE_clean_linker_10, # of connection points: 2
#     Edge 61, Type (0, 1), BuildingBlock: TEMPAE_clean_linker_10, # of connection points: 2
#     Edge 62, Type (0, 1), BuildingBlock: TEMPAE_clean_linker_10, # of connection points: 2
#     Edge 63, Type (0, 1), BuildingBlock: TEMPAE_clean_linker_10, # of connection points: 2
#     Edge 64, Type (0, 1), BuildingBlock: TEMPAE_clean_linker_10, # of connection points: 2
#     Edge 65, Type (0, 1), BuildingBlock: TEMPAE_clean_linker_10, # of connection points: 2
#     Edge 66, Type (0, 1), BuildingBlock: TEMPAE_clean_linker_10, # of connection points: 2
#     Edge 67, Type (0, 1), BuildingBlock: TEMPAE_clean_linker_10, # of connection points: 2
#     Edge 68, Type (0, 1), BuildingBlock: TEMPAE_clean_linker_10, # of connection points: 2
#     Edge 69, Type (0, 1), BuildingBlock: TEMPAE_clean_linker_10, # of connection points: 2
#     Edge 70, Type (0, 1), BuildingBlock: TEMPAE_clean_linker_10, # of connection points: 2
#     Edge 71, Type (0, 1), BuildingBlock: TEMPAE_clean_linker_10, # of connection points: 2
#     Edge 72, Type (0, 1), BuildingBlock: TEMPAE_clean_linker_10, # of connection points: 2
#     Edge 73, Type (0, 1), BuildingBlock: TEMPAE_clean_linker_10, # of connection points: 2
#     Edge 74, Type (0, 1), BuildingBlock: TEMPAE_clean_linker_10, # of connection points: 2
#     Edge 75, Type (0, 1), BuildingBlock: TEMPAE_clean_linker_10, # of connection points: 2
#     Edge 76, Type (0, 1), BuildingBlock: TEMPAE_clean_linker_10, # of connection points: 2
#     Edge 77, Type (0, 1), BuildingBlock: TEMPAE_clean_linker_10, # of connection points: 2
#     Edge 78, Type (0, 1), BuildingBlock: TEMPAE_clean_linker_10, # of connection points: 2
#     Edge 79, Type (0, 1), BuildingBlock: TEMPAE_clean_linker_10, # of connection points: 2
#     Edge 80, Type (0, 1), BuildingBlock: TEMPAE_clean_linker_10, # of connection points: 2
# Relax obj value: 0.086
# Max RMSD: 0.118
# Mean RMSD: 0.100
data_MOF--net-eea--node1-CIFDUS_clean_sbu_1--node2-BETDAH_clean_linker_0--edge1-TEMPAE_clean_linker_10
_symmetry_space_group_name_H-M    P1
_symmetry_Int_Tables_number       1
_symmetry_cell_setting            triclinic
loop_
_symmetry_equiv_pos_as_xyz
'x, y, z'
_cell_length_a     58.853721
_cell_length_b     58.366753
_cell_length_c     44.846787
_cell_angle_alpha  89.960308
_cell_angle_beta   90.103565
_cell_angle_gamma 119.89881
loop_
_atom_site_label
_atom_site_type_symbol
_atom_site_fract_x
_atom_site_fract_y
_atom_site_fract_z
_atom_type_partial_charge
H0 H 0.23506 0.07418 0.41075 0.0
H1 H 0.25604 0.15619 0.40432 0.0
H2 H 0.22416 0.10455 0.32845 0.0
C3 C 0.2366 0.09077 0.39816 0.0
C4 C 0.2287 0.0867 0.3684 0.0
C5 C 0.2476 0.11588 0.41129 0.0
C6 C 0.24768 0.13657 0.39484 0.0
C7 C 0.23854 0.13223 0.3651 0.0
C8 C 0.2299 0.10751 0.35173 0.0
N9 N 0.23988 0.15295 0.34735 0.0
C10 C 0.23004 0.16906 0.35641 0.0
H11 H 0.92202 0.17045 0.4061 0.0
H12 H 0.85269 0.09457 0.39288 0.0
H13 H 0.90714 0.13135 0.32126 0.0
C14 C 0.90967 0.15376 0.39199 0.0
C15 C 0.91788 0.15313 0.36269 0.0
C16 C 0.88602 0.13284 0.40333 0.0
C17 C 0.87057 0.11118 0.38455 0.0
C18 C 0.87818 0.11086 0.35492 0.0
C19 C 0.90147 0.13194 0.34411 0.0
N20 N 0.86306 0.08946 0.33541 0.0
C21 C 0.84589 0.06394 0.34505 0.0
H22 H 0.83781 0.74516 0.4109 0.0
H23 H 0.91506 0.75682 0.39784 0.0
H24 H 0.87988 0.78088 0.32983 0.0
C25 C 0.855 0.75225 0.39689 0.0
C26 C 0.85612 0.76411 0.36929 0.0
C27 C 0.87632 0.75037 0.40766 0.0
C28 C 0.89858 0.75841 0.38963 0.0
C29 C 0.89909 0.76844 0.36085 0.0
C30 C 0.87817 0.77158 0.35123 0.0
N31 N 0.91999 0.77571 0.3405 0.0
C32 C 0.94519 0.78107 0.34721 0.0
H33 H 0.09767 0.26104 0.61948 0.0
H34 H 0.17099 0.26506 0.6406 0.0
H35 H 0.11083 0.24007 0.70717 0.0
C36 C 0.1103 0.25888 0.63549 0.0
C37 C 0.10089 0.24946 0.66427 0.0
C38 C 0.13567 0.26501 0.62677 0.0
C39 C 0.1514 0.26046 0.64695 0.0
C40 C 0.14223 0.25143 0.67604 0.0
C41 C 0.11737 0.24651 0.68456 0.0
N42 N 0.15797 0.24855 0.69799 0.0
C43 C 0.17343 0.2372 0.69275 0.0
H44 H 0.75749 0.83941 0.61437 0.0
H45 H 0.76351 0.91547 0.62929 0.0
H46 H 0.78906 0.88071 0.6962 0.0
C47 C 0.76272 0.85663 0.628 0.0
C48 C 0.77443 0.85831 0.65566 0.0
C49 C 0.75911 0.87741 0.61749 0.0
C50 C 0.76571 0.89904 0.63666 0.0
C51 C 0.77568 0.89974 0.66545 0.0
C52 C 0.78015 0.87946 0.67463 0.0
N53 N 0.78222 0.92088 0.68549 0.0
C54 C 0.78836 0.94612 0.67673 0.0
H55 H 0.16573 0.91872 0.60336 0.0
H56 H 0.09765 0.84536 0.62741 0.0
H57 H 0.13716 0.9064 0.69342 0.0
C58 C 0.15177 0.90629 0.62019 0.0
C59 C 0.15389 0.91573 0.64923 0.0
C60 C 0.13183 0.88106 0.6123 0.0
C61 C 0.1131 0.86498 0.63352 0.0
C62 C 0.11499 0.87434 0.66292 0.0
C63 C 0.13559 0.89948 0.67067 0.0
N64 N 0.09708 0.8588 0.68549 0.0
C65 C 0.07041 0.84237 0.68069 0.0
H66 H 0.91723 0.41604 0.7445 0.0
H67 H 0.92149 0.49138 0.73494 0.0
H68 H 0.90059 0.43849 0.65974 0.0
C69 C 0.91549 0.43039 0.73074 0.0
C70 C 0.90829 0.42449 0.70092 0.0
C71 C 0.92008 0.45421 0.7433 0.0
C72 C 0.91781 0.47278 0.72542 0.0
C73 C 0.91072 0.46704 0.6951 0.0
C74 C 0.90614 0.44294 0.68298 0.0
N75 N 0.90823 0.48509 0.67614 0.0
C76 C 0.8986 0.50128 0.68555 0.0
H77 H 0.58966 0.49344 0.7424 0.0
H78 H 0.51502 0.42458 0.72371 0.0
H79 H 0.57418 0.45753 0.65552 0.0
C80 C 0.57654 0.47817 0.72707 0.0
C81 C 0.58489 0.4775 0.69793 0.0
C82 C 0.55117 0.45937 0.73631 0.0
C83 C 0.5345 0.4393 0.71656 0.0
C84 C 0.54295 0.43859 0.68739 0.0
C85 C 0.56779 0.45811 0.67803 0.0
N86 N 0.527 0.41841 0.667 0.0
C87 C 0.51102 0.39235 0.67565 0.0
H88 H 0.51382 0.09852 0.74624 0.0
H89 H 0.57869 0.08554 0.73214 0.0
H90 H 0.55087 0.11422 0.66034 0.0
C91 C 0.52905 0.09959 0.73174 0.0
C92 C 0.53083 0.10851 0.70236 0.0
C93 C 0.54641 0.09185 0.74295 0.0
C94 C 0.56533 0.09179 0.72386 0.0
C95 C 0.56662 0.09961 0.69383 0.0
C96 C 0.54928 0.10772 0.68326 0.0
N97 N 0.58463 0.09893 0.67342 0.0
C98 C 0.61086 0.10814 0.68 0.0
H99 H 0.76534 0.59884 0.95497 0.0
H100 H 0.83404 0.59211 0.97077 0.0
H101 H 0.77347 0.56595 0.0372 0.0
C102 C 0.77686 0.59367 0.96948 0.0
C103 C 0.76659 0.58194 0.99715 0.0
C104 C 0.80119 0.59749 0.95968 0.0
C105 C 0.81528 0.58929 0.97807 0.0
C106 C 0.80529 0.57823 0.00633 0.0
C107 C 0.78114 0.57475 0.01559 0.0
N108 N 0.81888 0.57066 0.02653 0.0
C109 C 0.83795 0.56447 0.01876 0.0
H110 H 0.4382 0.18381 0.9376 0.0
H111 H 0.42155 0.2445 0.96693 0.0
H112 H 0.45847 0.21507 0.02589 0.0
C113 C 0.43791 0.19691 0.95445 0.0
C114 C 0.44834 0.19676 0.98246 0.0
C115 C 0.42706 0.21317 0.94834 0.0
C116 C 0.42964 0.23165 0.97036 0.0
C117 C 0.44187 0.23295 0.99786 0.0
C118 C 0.45035 0.21492 0.00412 0.0
N119 N 0.44506 0.25165 0.02001 0.0
C120 C 0.45248 0.27768 0.0132 0.0
H121 H 0.83541 0.25634 0.93939 0.0
H122 H 0.76606 0.18044 0.95271 0.0
H123 H 0.80205 0.23421 0.02641 0.0
C124 C 0.82009 0.24195 0.95371 0.0
C125 C 0.82039 0.24813 0.98367 0.0
C126 C 0.80029 0.21802 0.94187 0.0
C127 C 0.7812 0.19928 0.96127 0.0
C128 C 0.78214 0.20507 0.99203 0.0
C129 C 0.80164 0.22958 0.00294 0.0
N130 N 0.76451 0.18652 0.01288 0.0
C131 C 0.73807 0.16958 0.00743 0.0
H132 H 0.5925 0.75968 0.08293 0.0
H133 H 0.58119 0.82555 0.06526 0.0
H134 H 0.55383 0.76129 0.00229 0.0
C135 C 0.58596 0.76987 0.06795 0.0
C136 C 0.57254 0.75736 0.04187 0.0
C137 C 0.58885 0.79415 0.07658 0.0
C138 C 0.57957 0.80708 0.05807 0.0
C139 C 0.5675 0.79547 0.03067 0.0
C140 C 0.56433 0.77077 0.02259 0.0
N141 N 0.55701 0.80722 0.01148 0.0
C142 C 0.55034 0.82592 0.02037 0.0
H143 H 0.25586 0.83515 0.07384 0.0
H144 H 0.18785 0.75796 0.06422 0.0
H145 H 0.23988 0.79409 0.99018 0.0
C146 C 0.2435 0.818 0.0603 0.0
C147 C 0.25088 0.81706 0.03076 0.0
C148 C 0.22077 0.79685 0.07274 0.0
C149 C 0.20519 0.77462 0.05492 0.0
C150 C 0.21208 0.77378 0.0251 0.0
C151 C 0.23463 0.79508 0.01311 0.0
N152 N 0.19701 0.75153 0.00674 0.0
C153 C 0.1819 0.72615 0.01792 0.0
H154 H 0.17794 0.43582 0.07125 0.0
H155 H 0.23728 0.41312 0.07254 0.0
H156 H 0.2238 0.44574 0.99291 0.0
C157 C 0.19361 0.43434 0.06038 0.0
C158 C 0.19972 0.44244 0.03068 0.0
C159 C 0.2069 0.42364 0.07585 0.0
C160 C 0.22724 0.422 0.06133 0.0
C161 C 0.23363 0.43037 0.03157 0.0
C162 C 0.21963 0.44032 0.0162 0.0
N163 N 0.25137 0.42524 0.01577 0.0
C164 C 0.27809 0.44308 0.01475 0.0
H165 H 0.42218 0.90951 0.27965 0.0
H166 H 0.50134 0.92874 0.30023 0.0
H167 H 0.4454 0.90865 0.37033 0.0
C168 C 0.43725 0.91284 0.29574 0.0
C169 C 0.43068 0.90886 0.32616 0.0
C170 C 0.46295 0.92131 0.28585 0.0
C171 C 0.4814 0.92243 0.30684 0.0
C172 C 0.47454 0.91686 0.33712 0.0
C173 C 0.44973 0.91126 0.3467 0.0
N174 N 0.49265 0.91811 0.35881 0.0
C175 C 0.50861 0.90717 0.3545 0.0
H176 H 0.10072 0.51368 0.27266 0.0
H177 H 0.09144 0.57964 0.29812 0.0
H178 H 0.11858 0.54368 0.36218 0.0
C179 C 0.10196 0.52774 0.28929 0.0
C180 C 0.11059 0.52659 0.31809 0.0
C181 C 0.09463 0.54658 0.28196 0.0
C182 C 0.09653 0.56469 0.30374 0.0
C183 C 0.10539 0.5638 0.33264 0.0
C184 C 0.11159 0.54422 0.33996 0.0
N185 N 0.10937 0.58315 0.35422 0.0
C186 C 0.11732 0.60907 0.34628 0.0
H187 H 0.50188 0.59057 0.27325 0.0
H188 H 0.43793 0.51239 0.29197 0.0
H189 H 0.47033 0.57111 0.36161 0.0
C190 C 0.48767 0.57631 0.2887 0.0
C191 C 0.4878 0.58379 0.31818 0.0
C192 C 0.4697 0.55083 0.27883 0.0
C193 C 0.45163 0.53233 0.29919 0.0
C194 C 0.45181 0.53978 0.32919 0.0
C195 C 0.47001 0.56547 0.33852 0.0
N196 N 0.43522 0.52142 0.3509 0.0
C197 C 0.4081 0.50692 0.34823 0.0
O198 O 0.4512 0.97462 0.00492 0.0
Mn199 Mn 0.48979 0.00356 0.01239 0.0
O200 O 0.43577 0.97305 0.04988 0.0
Mn201 Mn 0.46147 0.00756 0.05846 0.0
O202 O 0.52905 0.03153 0.01609 0.0
O203 O 0.50059 0.9783 0.99526 0.0
Mn204 Mn 0.51618 0.99228 0.96134 0.0
O205 O 0.48987 0.02065 0.97065 0.0
O206 O 0.54532 0.02416 0.9736 0.0
O207 O 0.49196 0.98745 0.05466 0.0
O208 O 0.48405 0.01044 0.08767 0.0
O209 O 0.51756 0.96189 0.9646 0.0
O210 O 0.49135 0.99356 0.9377 0.0
C211 C 0.46407 0.03969 0.03758 0.0
C212 C 0.4333 0.96318 0.02425 0.0
C213 C 0.54781 0.03717 0.9976 0.0
C214 C 0.50714 0.96045 0.99044 0.0
C215 C 0.4878 0.01263 0.94362 0.0
C216 C 0.49346 0.99583 0.08157 0.0
O217 O 0.47995 0.03095 0.02928 0.0
O218 O 0.44748 0.02799 0.05901 0.0
O219 O 0.0406 0.47965 0.00668 0.0
Mn220 Mn 0.00968 0.48733 0.01292 0.0
O221 O 0.03539 0.45364 0.04492 0.0
Mn222 Mn 0.00263 0.44825 0.05328 0.0
O223 O 0.97786 0.49462 0.01844 0.0
O224 O 0.03814 0.52549 1.00029 0.0
Mn225 Mn 0.01467 0.53256 0.98492 0.0
O226 O 0.99768 0.47577 0.9688 0.0
O227 O 0.99757 0.53765 0.01554 0.0
O228 O 0.02184 0.50131 0.05743 0.0
O229 O 0.00019 0.46588 0.08497 0.0
O230 O 0.04342 0.56071 0.97315 0.0
O231 O 0.99405 0.51044 0.95497 0.0
C232 C 0.96894 0.4231 0.03374 0.0
C233 C 0.04868 0.46717 0.02298 0.0
C234 C 0.97749 0.51624 0.02199 0.0
C235 C 0.05334 0.54948 0.98954 0.0
C236 C 0.9898 0.48721 0.95048 0.0
C237 C 0.01371 0.49053 0.08309 0.0
O238 O 0.98214 0.4477 0.0235 0.0
O239 O 0.97902 0.41495 0.05405 0.0
O240 O 0.56347 0.53095 0.0118 0.0
Mn241 Mn 0.52436 0.52087 0.00765 0.0
O242 O 0.58385 0.55975 0.97427 0.0
Mn243 Mn 0.55573 0.56344 0.96167 0.0
O244 O 0.48497 0.51042 0.00456 0.0
O245 O 0.51362 0.48364 0.02194 0.0
Mn246 Mn 0.49644 0.48008 0.05521 0.0
O247 O 0.52463 0.5358 0.05079 0.0
O248 O 0.46743 0.48287 0.04388 0.0
O249 O 0.52342 0.50608 0.96393 0.0
O250 O 0.53491 0.54011 0.93311 0.0
O251 O 0.49544 0.44871 0.05129 0.0
O252 O 0.51981 0.50435 0.0817 0.0
C253 C 0.54163 0.58245 0.98979 0.0
C254 C 0.58386 0.54565 0.99607 0.0
C255 C 0.46552 0.49559 0.02164 0.0
C256 C 0.50821 0.45948 0.02701 0.0
C257 C 0.52505 0.52781 0.07734 0.0
C258 C 0.52625 0.51571 0.93743 0.0
O259 O 0.53598 0.55808 0.99322 0.0
O260 O 0.55602 0.59451 0.96687 0.0
O261 O 0.12311 0.30483 0.34292 0.0
Mn262 Mn 0.16012 0.3389 0.34922 0.0
O263 O 0.09334 0.31223 0.36548 0.0
Mn264 Mn 0.11794 0.34122 0.38622 0.0
O265 O 0.19745 0.37279 0.35451 0.0
O266 O 0.17632 0.3166 0.33843 0.0
Mn267 Mn 0.20019 0.33294 0.31103 0.0
O268 O 0.15923 0.34944 0.30389 0.0
O269 O 0.22488 0.36475 0.32713 0.0
O270 O 0.16142 0.32826 0.39394 0.0
O271 O 0.13152 0.3336 0.41932 0.0
O272 O 0.20093 0.30253 0.31817 0.0
O273 O 0.18279 0.33527 0.27848 0.0
C274 C 0.13619 0.37845 0.36562 0.0
C275 C 0.09929 0.29828 0.34913 0.0
C276 C 0.22038 0.37946 0.34421 0.0
C277 C 0.1826 0.29828 0.33703 0.0
C278 C 0.16766 0.34493 0.27921 0.0
C279 C 0.14943 0.32751 0.41821 0.0
O280 O 0.14365 0.36111 0.36126 0.0
O281 O 0.11708 0.37181 0.38421 0.0
O282 O 0.7017 0.81264 0.33729 0.0
Mn283 Mn 0.67288 0.82222 0.34658 0.0
O284 O 0.7014 0.79031 0.37711 0.0
Mn285 Mn 0.66875 0.78345 0.38926 0.0
O286 O 0.64452 0.83332 0.35213 0.0
O287 O 0.69994 0.85971 0.33202 0.0
Mn288 Mn 0.68341 0.86018 0.29945 0.0
O289 O 0.65577 0.80657 0.30442 0.0
O290 O 0.65165 0.85724 0.3104 0.0
O291 O 0.68777 0.8374 0.39012 0.0
O292 O 0.66886 0.80277 0.42082 0.0
O293 O 0.71179 0.89221 0.29861 0.0
O294 O 0.68321 0.83602 0.27331 0.0
C295 C 0.63655 0.75953 0.36237 0.0
C296 C 0.71139 0.80136 0.35271 0.0
C297 C 0.63812 0.846 0.3336 0.0
C298 C 0.71707 0.88349 0.32273 0.0
C299 C 0.6641 0.81334 0.27773 0.0
C300 C 0.68113 0.82753 0.41662 0.0
O301 O 0.64625 0.78523 0.36337 0.0
O302 O 0.64614 0.74976 0.38124 0.0
O303 O 0.22913 0.86261 0.35534 0.0
Mn304 Mn 0.19202 0.8556 0.34317 0.0
O305 O 0.25671 0.89107 0.32193 0.0
Mn306 Mn 0.23317 0.89915 0.30456 0.0
O307 O 0.15405 0.84675 0.33336 0.0
O308 O 0.17885 0.8162 0.35598 0.0
Mn309 Mn 0.16327 0.82041 0.38752 0.0
O310 O 0.18857 0.87115 0.3849 0.0
O311 O 0.13588 0.82588 0.37604 0.0
O312 O 0.19481 0.84257 0.29985 0.0
O313 O 0.21639 0.87922 0.2717 0.0
O314 O 0.15415 0.78707 0.39197 0.0
O315 O 0.18827 0.84204 0.41429 0.0
C316 C 0.21763 0.91807 0.3321 0.0
C317 C 0.25196 0.87603 0.34413 0.0
C318 C 0.1345 0.83559 0.35116 0.0
C319 C 0.16836 0.79243 0.36812 0.0
C320 C 0.19068 0.86437 0.41137 0.0
C321 C 0.20206 0.85422 0.27424 0.0
O322 O 0.20544 0.89283 0.32669 0.0
O323 O 0.23879 0.93126 0.3166 0.0
O324 O 0.78409 0.63917 0.67611 0.0
Mn325 Mn 0.8228 0.67121 0.68282 0.0
O326 O 0.75743 0.65139 0.69712 0.0
Mn327 Mn 0.78355 0.67686 0.7197 0.0
O328 O 0.86101 0.70191 0.68957 0.0
O329 O 0.83577 0.645 0.67101 0.0
Mn330 Mn 0.85463 0.66364 0.64003 0.0
O331 O 0.82383 0.68625 0.63897 0.0
O332 O 0.88179 0.69681 0.65068 0.0
O333 O 0.82275 0.65833 0.72678 0.0
O334 O 0.79366 0.66487 0.75211 0.0
O335 O 0.86179 0.63771 0.64009 0.0
O336 O 0.8321 0.66092 0.61059 0.0
C337 C 0.80462 0.71507 0.70404 0.0
C338 C 0.76097 0.63488 0.68254 0.0
C339 C 0.88142 0.70967 0.67332 0.0
C340 C 0.84517 0.62984 0.66197 0.0
C341 C 0.82554 0.67822 0.61287 0.0
C342 C 0.81045 0.65732 0.75085 0.0
O343 O 0.81064 0.69701 0.69668 0.0
O344 O 0.78515 0.7082 0.72222 0.0
O345 O 0.37287 0.15079 0.67479 0.0
Mn346 Mn 0.34055 0.15611 0.6803 0.0
O347 O 0.37065 0.12865 0.7158 0.0
Mn348 Mn 0.33751 0.12237 0.72477 0.0
O349 O 0.30863 0.16256 0.68351 0.0
O350 O 0.36366 0.19365 0.6672 0.0
Mn351 Mn 0.35008 0.20045 0.63625 0.0
O352 O 0.3288 0.14225 0.63583 0.0
O353 O 0.31744 0.19401 0.64876 0.0
O354 O 0.35312 0.1734 0.72323 0.0
O355 O 0.33336 0.14091 0.75472 0.0
O356 O 0.37992 0.2317 0.64493 0.0
O357 O 0.34991 0.17844 0.60733 0.0
C358 C 0.30523 0.09241 0.70644 0.0
C359 C 0.38202 0.13976 0.69178 0.0
C360 C 0.3026 0.17771 0.66861 0.0
C361 C 0.38195 0.21812 0.66653 0.0
C362 C 0.33611 0.15355 0.61007 0.0
C363 C 0.34506 0.16518 0.74965 0.0
O364 O 0.31591 0.11603 0.69343 0.0
O365 O 0.31627 0.08885 0.72963 0.0
O366 O 0.89619 0.19471 0.68406 0.0
Mn367 Mn 0.85846 0.18801 0.67607 0.0
O368 O 0.91487 0.20981 0.64072 0.0
Mn369 Mn 0.89293 0.223 0.63182 0.0
O370 O 0.81963 0.1792 0.67345 0.0
O371 O 0.84514 0.15116 0.69266 0.0
Mn372 Mn 0.83234 0.15203 0.72772 0.0
O373 O 0.86021 0.20553 0.71789 0.0
O374 O 0.80512 0.15859 0.71801 0.0
O375 O 0.8551 0.17116 0.6322 0.0
O376 O 0.87104 0.20581 0.60149 0.0
O377 O 0.82693 0.11861 0.72475 0.0
O378 O 0.8597 0.17703 0.74996 0.0
C379 C 0.88884 0.25001 0.65886 0.0
C380 C 0.91494 0.2007 0.66608 0.0
C381 C 0.8019 0.1685 0.69386 0.0
C382 C 0.83691 0.12647 0.69847 0.0
C383 C 0.8634 0.19979 0.74459 0.0
C384 C 0.85761 0.18111 0.60565 0.0
O385 O 0.87089 0.22495 0.65821 0.0
O386 O 0.90855 0.25722 0.64105 0.0
C387 C 0.28568 0.86459 0.02654 0.0
C388 C 0.27667 0.83803 0.01954 0.0
C389 C 0.31172 0.88401 0.0211 0.0
C390 C 0.32914 0.87672 0.00815 0.0
C391 C 0.31959 0.85035 0.99869 0.0
C392 C 0.29346 0.83125 0.00464 0.0
C393 C 0.32104 0.91197 0.03129 0.0
C394 C 0.33736 0.8418 0.9844 0.0
C395 C 0.39582 0.93553 0.98996 0.0
C396 C 0.40885 0.93862 0.01713 0.0
C397 C 0.37019 0.91431 0.9857 0.0
C398 C 0.35777 0.89581 0.00902 0.0
C399 C 0.3719 0.8977 0.03536 0.0
C400 C 0.39716 0.91924 0.0392 0.0
C401 C 0.3558 0.91275 0.95722 0.0
C402 C 0.35971 0.87801 0.06046 0.0
H403 H 0.27261 0.87001 0.03745 0.0
H404 H 0.28667 0.81074 0.99924 0.0
H405 H 0.33442 0.91665 0.05065 0.0
H406 H 0.33223 0.92621 0.0133 0.0
H407 H 0.30456 0.91498 0.03804 0.0
H408 H 0.32603 0.82258 0.97265 0.0
H409 H 0.35091 0.85684 0.96831 0.0
H410 H 0.34946 0.83955 0.00189 0.0
H411 H 0.40495 0.95053 0.97285 0.0
H412 H 0.40749 0.92146 0.06 0.0
H413 H 0.34122 0.91911 0.96166 0.0
H414 H 0.3449 0.89213 0.94885 0.0
H415 H 0.36932 0.92565 0.93952 0.0
H416 H 0.34404 0.88046 0.07109 0.0
H417 H 0.37428 0.88057 0.07783 0.0
H418 H 0.35054 0.85751 0.05179 0.0
C419 C 0.18785 0.47667 0.01922 0.0
C420 C 0.18335 0.45103 0.01488 0.0
C421 C 0.16818 0.48288 0.01293 0.0
C422 C 0.14342 0.46273 0.00267 0.0
C423 C 0.1399 0.43755 0.99529 0.0
C424 C 0.16 0.43198 0.00158 0.0
C425 C 0.17285 0.50999 0.02093 0.0
C426 C 0.11383 0.41543 0.98451 0.0
C427 C 0.08468 0.45988 0.03996 0.0
C428 C 0.07385 0.46801 0.0172 0.0
C429 C 0.10742 0.45853 0.03543 0.0
C430 C 0.11996 0.46559 0.00734 0.0
C431 C 0.10967 0.4745 0.98437 0.0
C432 C 0.08667 0.47571 0.98961 0.0
C433 C 0.11768 0.44898 0.06071 0.0
C434 C 0.12269 0.48227 0.95426 0.0
H435 H 0.20592 0.49124 0.02981 0.0
H436 H 0.15656 0.41205 0.99862 0.0
H437 H 0.16318 0.51674 0.00473 0.0
H438 H 0.16438 0.50921 0.04326 0.0
H439 H 0.19411 0.52475 0.02178 0.0
H440 H 0.11578 0.39921 0.97414 0.0
H441 H 0.10025 0.40715 0.00373 0.0
H442 H 0.10482 0.42278 0.96812 0.0
H443 H 0.07519 0.45427 0.06155 0.0
H444 H 0.07843 0.48206 0.97198 0.0
H445 H 0.13818 0.46408 0.06611 0.0
H446 H 0.11772 0.43072 0.05395 0.0
H447 H 0.10576 0.44467 0.0813 0.0
H448 H 0.14342 0.49809 0.95683 0.0
H449 H 0.11261 0.48935 0.93898 0.0
H450 H 0.12283 0.46512 0.94381 0.0
C451 C 0.56786 0.71965 0.01036 0.0
C452 C 0.56425 0.72909 0.03756 0.0
C453 C 0.56123 0.69305 0.0073 0.0
C454 C 0.55053 0.67561 0.03196 0.0
C455 C 0.54626 0.68499 0.05918 0.0
C456 C 0.55309 0.71156 0.06161 0.0
C457 C 0.56628 0.68377 0.97794 0.0
C458 C 0.53494 0.66711 0.08593 0.0
C459 C 0.51758 0.60367 0.00892 0.0
C460 C 0.53826 0.59858 0.01234 0.0
C461 C 0.52044 0.62808 0.01769 0.0
C462 C 0.54476 0.64782 0.02945 0.0
C463 C 0.56465 0.64163 0.03581 0.0
C464 C 0.56096 0.61685 0.02752 0.0
C465 C 0.49847 0.63367 0.01146 0.0
C466 C 0.59098 0.66213 0.04806 0.0
H467 H 0.57651 0.73319 0.99181 0.0
H468 H 0.54978 0.71872 0.08254 0.0
H469 H 0.58056 0.67682 0.98121 0.0
H470 H 0.54789 0.66679 0.96937 0.0
H471 H 0.57411 0.69961 0.96078 0.0
H472 H 0.53142 0.67715 0.10493 0.0
H473 H 0.51617 0.64927 0.07987 0.0
H474 H 0.54857 0.6603 0.09341 0.0
H475 H 0.50027 0.58975 0.9966 0.0
H476 H 0.57719 0.61308 0.02949 0.0
H477 H 0.50336 0.64646 0.99144 0.0
H478 H 0.4959 0.64441 0.03037 0.0
H479 H 0.47961 0.61522 0.00729 0.0
H480 H 0.60199 0.67696 0.03049 0.0
H481 H 0.60292 0.65324 0.0554 0.0
H482 H 0.58858 0.6728 0.06715 0.0
C483 C 0.86647 0.28342 0.99119 0.0
C484 C 0.83973 0.2749 0.99354 0.0
C485 C 0.88527 0.31 0.99567 0.0
C486 C 0.877 0.32851 0.002 0.0
C487 C 0.84993 0.31992 0.00424 0.0
C488 C 0.83155 0.29307 1.00023 0.0
C489 C 0.91396 0.31818 0.99393 0.0
C490 C 0.84042 0.33917 0.01035 0.0
C491 C 0.92612 0.38608 0.04728 0.0
C492 C 0.94185 0.40385 0.02507 0.0
C493 C 0.90426 0.36194 0.04009 0.0
C494 C 0.89684 0.35604 0.00991 0.0
C495 C 0.91058 0.37537 0.98758 0.0
C496 C 0.93344 0.39911 0.99537 0.0
C497 C 0.89098 0.34171 0.06456 0.0
C498 C 0.90229 0.37017 0.95532 0.0
H499 H 0.87257 0.26925 0.98542 0.0
H500 H 0.81076 0.28639 0.00116 0.0
H501 H 0.9237 0.33335 0.97634 0.0
H502 H 0.92379 0.32716 0.01539 0.0
H503 H 0.91702 0.30127 0.98892 0.0
H504 H 0.81869 0.32937 0.01075 0.0
H505 H 0.84811 0.34916 0.03207 0.0
H506 H 0.84799 0.35476 0.99295 0.0
H507 H 0.93236 0.39003 0.0704 0.0
H508 H 0.94549 0.41287 0.97818 0.0
H509 H 0.8946 0.32497 0.06105 0.0
H510 H 0.86949 0.33358 0.06402 0.0
H511 H 0.89832 0.35006 0.08709 0.0
H512 H 0.90914 0.35729 0.94537 0.0
H513 H 0.91075 0.38879 0.94224 0.0
H514 H 0.88061 0.35975 0.9533 0.0
C515 C 0.72128 0.54959 0.01366 0.0
C516 C 0.73987 0.57555 0.00582 0.0
C517 C 0.69492 0.54228 0.01785 0.0
C518 C 0.68717 0.56152 0.01432 0.0
C519 C 0.70632 0.5882 0.00874 0.0
C520 C 0.73245 0.59485 0.00422 0.0
C521 C 0.67517 0.51362 0.0236 0.0
C522 C 0.69892 0.60941 0.00546 0.0
C523 C 0.62291 0.54467 0.97802 0.0
C524 C 0.60849 0.54584 0.00214 0.0
C525 C 0.64791 0.54801 0.98215 0.0
C526 C 0.65904 0.55332 0.01108 0.0
C527 C 0.64405 0.5532 0.03583 0.0
C528 C 0.61866 0.54916 0.03109 0.0
C529 C 0.66292 0.54719 0.95524 0.0
C530 C 0.65533 0.55875 0.06695 0.0
H531 H 0.72708 0.53464 0.01482 0.0
H532 H 0.74697 0.615 0.99857 0.0
H533 H 0.66017 0.51167 0.0399 0.0
H534 H 0.66489 0.50428 0.00247 0.0
H535 H 0.68469 0.50255 0.03203 0.0
H536 H 0.71638 0.62956 0.00542 0.0
H537 H 0.68817 0.60649 0.98417 0.0
H538 H 0.68571 0.6081 0.02381 0.0
H539 H 0.61476 0.54166 0.95571 0.0
H540 H 0.60737 0.55 0.04971 0.0
H541 H 0.67095 0.53385 0.95941 0.0
H542 H 0.67973 0.56723 0.95091 0.0
H543 H 0.65052 0.54034 0.93487 0.0
H544 H 0.66396 0.5461 0.07217 0.0
H545 H 0.64036 0.55538 0.08407 0.0
H546 H 0.67137 0.5796 0.06846 0.0
C547 C 0.43658 0.14958 0.98339 0.0
C548 C 0.45508 0.17602 0.98927 0.0
C549 C 0.44199 0.12927 0.98953 0.0
C550 C 0.46668 0.13556 0.00158 0.0
C551 C 0.48569 0.16233 0.00711 0.0
C552 C 0.47956 0.18231 0.00112 0.0
C553 C 0.4208 0.10099 0.98425 0.0
C554 C 0.51228 0.16976 0.01972 0.0
C555 C 0.46199 0.08011 0.04897 0.0
C556 C 0.46885 0.06618 0.02881 0.0
C557 C 0.46289 0.10364 0.0409 0.0
C558 C 0.47091 0.11372 0.01181 0.0
C559 C 0.4795 0.10075 0.99182 0.0
C560 C 0.4784 0.077 1.0006 0.0
C561 C 0.45348 0.11667 0.06297 0.0
C562 C 0.48852 0.11122 0.96075 0.0
H563 H 0.41753 0.14471 0.97456 0.0
H564 H 0.4939 0.20281 0.00545 0.0
H565 H 0.42831 0.09073 0.96997 0.0
H566 H 0.41484 0.09027 0.00583 0.0
H567 H 0.40314 0.09958 0.97346 0.0
H568 H 0.52506 0.19149 0.02206 0.0
H569 H 0.51011 0.16051 0.04192 0.0
H570 H 0.52214 0.16211 0.00502 0.0
H571 H 0.45513 0.0722 0.07109 0.0
H572 H 0.48386 0.06639 0.98502 0.0
H573 H 0.43479 0.11483 0.05496 0.0
H574 H 0.46788 0.13804 0.06497 0.0
H575 H 0.45014 0.10762 0.0855 0.0
H576 H 0.47148 0.10827 0.94719 0.0
H577 H 0.49788 0.10111 0.94945 0.0
H578 H 0.50263 0.13277 0.96142 0.0
C579 C 0.69761 0.13667 0.98216 0.0
C580 C 0.71008 0.15243 0.00696 0.0
C581 C 0.67043 0.11914 0.98241 0.0
C582 C 0.65566 0.11749 0.00811 0.0
C583 C 0.66833 0.1338 0.03304 0.0
C584 C 0.6955 0.15112 0.03214 0.0
C585 C 0.65758 0.10202 0.95543 0.0
C586 C 0.65334 0.13254 0.06086 0.0
C587 C 0.58205 0.08457 0.99639 0.0
C588 C 0.57416 0.0586 0.00477 0.0
C589 C 0.60849 0.10438 0.99857 0.0
C590 C 0.62721 0.09778 0.00923 0.0
C591 C 0.61891 0.0717 0.019 0.0
C592 C 0.59242 0.05235 0.01646 0.0
C593 C 0.61658 0.13198 0.98812 0.0
C594 C 0.63816 0.06389 0.0307 0.0
H595 H 0.70913 0.13783 0.96278 0.0
H596 H 0.70543 0.16343 0.05131 0.0
H597 H 0.64882 0.08087 0.9616 0.0
H598 H 0.64143 0.10501 0.94731 0.0
H599 H 0.67165 0.10631 0.9369 0.0
H600 H 0.66588 0.14759 0.07763 0.0
H601 H 0.63666 0.13555 0.05517 0.0
H602 H 0.64502 0.11268 0.07114 0.0
H603 H 0.56775 0.08911 0.987 0.0
H604 H 0.58608 0.03206 0.02262 0.0
H605 H 0.62874 0.13652 0.96773 0.0
H606 H 0.62875 0.14667 0.00533 0.0
H607 H 0.59942 0.13441 0.98297 0.0
H608 H 0.65145 0.06515 0.01246 0.0
H609 H 0.62823 0.04345 0.03974 0.0
H610 H 0.6505 0.07768 0.04852 0.0
C611 C 0.85065 0.53277 1.00054 0.0
C612 C 0.85689 0.55593 0.01607 0.0
C613 C 0.86786 0.52265 0.00074 0.0
C614 C 0.89161 0.53606 0.01704 0.0
C615 C 0.89795 0.55968 0.03253 0.0
C616 C 0.8804 0.56931 0.03188 0.0
C617 C 0.86066 0.49764 0.98368 0.0
C618 C 0.92334 0.57487 0.04962 0.0
C619 C 0.93279 0.50534 0.04015 0.0
C620 C 0.95282 0.51666 0.01904 0.0
C621 C 0.91165 0.51022 0.03887 0.0
C622 C 0.91093 0.5268 0.01611 0.0
C623 C 0.93034 0.53675 0.99374 0.0
C624 C 0.95085 0.53134 0.99536 0.0
C625 C 0.89087 0.49888 0.0627 0.0
C626 C 0.9305 0.55461 0.96918 0.0
H627 H 0.83216 0.52239 0.98866 0.0
H628 H 0.88486 0.58709 0.04413 0.0
H629 H 0.8758 0.50151 0.96664 0.0
H630 H 0.86002 0.48244 0.99906 0.0
H631 H 0.84137 0.48952 0.97234 0.0
H632 H 0.92478 0.59228 0.06142 0.0
H633 H 0.92519 0.56181 0.06625 0.0
H634 H 0.94017 0.58183 0.0341 0.0
H635 H 0.9343 0.49387 0.05827 0.0
H636 H 0.96616 0.53965 0.9786 0.0
H637 H 0.87107 0.48944 0.05247 0.0
H638 H 0.8927 0.51504 0.07733 0.0
H639 H 0.89254 0.48407 0.07669 0.0
H640 H 0.91121 0.54552 0.9578 0.0
H641 H 0.94589 0.55894 0.95224 0.0
H642 H 0.93409 0.57361 0.97892 0.0
C643 C 0.45865 0.32076 0.02867 0.0
C644 C 0.4625 0.3054 0.00763 0.0
C645 C 0.46984 0.34814 0.02465 0.0
C646 C 0.48529 0.36032 0.99896 0.0
C647 C 0.48901 0.34466 0.97757 0.0
C648 C 0.4775 0.31727 0.98218 0.0
C649 C 0.46542 0.36407 0.04812 0.0
C650 C 0.50552 0.3569 0.95018 0.0
C651 C 0.49049 0.42677 0.98731 0.0
C652 C 0.51179 0.44243 0.00593 0.0
C653 C 0.48294 0.40018 0.98204 0.0
C654 C 0.49755 0.38948 0.99513 0.0
C655 C 0.52152 0.40655 0.00972 0.0
C656 C 0.52834 0.43292 0.01498 0.0
C657 C 0.45729 0.38279 0.96629 0.0
C658 C 0.53807 0.39625 0.02355 0.0
H659 H 0.44719 0.3114 0.04848 0.0
H660 H 0.48055 0.30517 0.96613 0.0
H661 H 0.48445 0.37884 0.05803 0.0
H662 H 0.45656 0.3751 0.03785 0.0
H663 H 0.4524 0.3515 0.06634 0.0
H664 H 0.50606 0.34191 0.93541 0.0
H665 H 0.49778 0.36777 0.9373 0.0
H666 H 0.52587 0.37146 0.95688 0.0
H667 H 0.47746 0.43401 0.98066 0.0
H668 H 0.54467 0.44496 0.02969 0.0
H669 H 0.44185 0.37168 0.98315 0.0
H670 H 0.45866 0.36814 0.95179 0.0
H671 H 0.45109 0.39457 0.95254 0.0
H672 H 0.52954 0.38703 0.04539 0.0
H673 H 0.5585 0.41241 0.02746 0.0
H674 H 0.53851 0.38096 0.00929 0.0
C675 C 0.17944 0.68359 0.02641 0.0
C676 C 0.16716 0.69881 0.02634 0.0
C677 C 0.16457 0.65594 0.02797 0.0
C678 C 0.1369 0.64355 0.02894 0.0
C679 C 0.12475 0.6592 0.03208 0.0
C680 C 0.14015 0.68682 0.03058 0.0
C681 C 0.17828 0.64004 0.02534 0.0
C682 C 0.09532 0.64691 0.03346 0.0
C683 C 0.09697 0.58588 0.97825 0.0
C684 C 0.0807 0.56654 0.99873 0.0
C685 C 0.11634 0.61077 0.98791 0.0
C686 C 0.12084 0.6157 0.01888 0.0
C687 C 0.10745 0.59472 0.03945 0.0
C688 C 0.08709 0.57024 0.02911 0.0
C689 C 0.12945 0.63261 0.96507 0.0
C690 C 0.11281 0.59886 0.07246 0.0
H691 H 0.20049 0.69316 0.02332 0.0
H692 H 0.13087 0.69888 0.03072 0.0
H693 H 0.16866 0.62212 0.03955 0.0
H694 H 0.17719 0.63347 0.00191 0.0
H695 H 0.19928 0.65188 0.0317 0.0
H696 H 0.08942 0.66121 0.04145 0.0
H697 H 0.08699 0.64015 0.01083 0.0
H698 H 0.08658 0.62945 0.04836 0.0
H699 H 0.09203 0.58281 0.95471 0.0
H700 H 0.07452 0.55525 0.04499 0.0
H701 H 0.15104 0.64295 0.96769 0.0
H702 H 0.12309 0.64742 0.96845 0.0
H703 H 0.12451 0.62514 0.94182 0.0
H704 H 0.1342 0.61042 0.07681 0.0
H705 H 0.10441 0.57978 0.08465 0.0
H706 H 0.10398 0.61031 0.08155 0.0
C707 C 0.318 0.45753 0.98527 0.0
C708 C 0.30622 0.45854 0.0119 0.0
C709 C 0.34528 0.46835 0.98348 0.0
C710 C 0.36096 0.48028 0.00905 0.0
C711 C 0.34916 0.48313 0.0353 0.0
C712 C 0.32179 0.47202 0.03646 0.0
C713 C 0.35695 0.46487 0.95509 0.0
C714 C 0.36516 0.49595 0.06294 0.0
C715 C 0.4172 0.46764 0.02286 0.0
C716 C 0.43919 0.49196 0.01568 0.0
C717 C 0.39181 0.46365 0.02019 0.0
C718 C 0.38814 0.48463 0.01037 0.0
C719 C 0.41023 0.50922 0.00255 0.0
C720 C 0.43561 0.51254 0.00501 0.0
C721 C 0.36891 0.43699 0.02848 0.0
C722 C 0.40706 0.53206 0.99216 0.0
H723 H 0.30576 0.44704 0.9663 0.0
H724 H 0.31249 0.47275 0.05702 0.0
H725 H 0.37527 0.4833 0.94935 0.0
H726 H 0.36204 0.44911 0.95832 0.0
H727 H 0.34311 0.45923 0.93601 0.0
H728 H 0.35398 0.50043 0.07961 0.0
H729 H 0.37106 0.48244 0.07337 0.0
H730 H 0.38335 0.51451 0.0572 0.0
H731 H 0.41987 0.45159 0.03083 0.0
H732 H 0.45261 0.53142 0.99963 0.0
H733 H 0.35508 0.42869 0.00945 0.0
H734 H 0.35807 0.43918 0.04744 0.0
H735 H 0.37516 0.42257 0.03491 0.0
H736 H 0.39576 0.52676 0.97102 0.0
H737 H 0.42622 0.55027 0.98847 0.0
H738 H 0.39576 0.53635 0.00881 0.0
C739 C 0.52887 0.84968 0.00194 0.0
C740 C 0.54129 0.84446 0.02532 0.0
C741 C 0.5209 0.86851 0.00505 0.0
C742 C 0.52533 0.88231 0.03242 0.0
C743 C 0.53674 0.87604 0.05668 0.0
C744 C 0.54483 0.85722 0.05276 0.0
C745 C 0.50888 0.87449 0.97848 0.0
C746 C 0.54085 0.88959 0.08646 0.0
C747 C 0.53759 0.95046 0.01584 0.0
C748 C 0.51185 0.94571 0.0138 0.0
C749 C 0.54271 0.93052 0.02465 0.0
C750 C 0.52161 0.90574 0.03352 0.0
C751 C 0.49619 0.90261 0.03662 0.0
C752 C 0.49138 0.92251 0.02587 0.0
C753 C 0.56998 0.93479 0.01981 0.0
C754 C 0.47352 0.87729 0.04816 0.0
H755 H 0.52596 0.83945 0.98086 0.0
H756 H 0.5542 0.85278 0.07092 0.0
H757 H 0.48923 0.87134 0.98436 0.0
H758 H 0.52123 0.89551 0.9719 0.0
H759 H 0.50672 0.86188 0.95892 0.0
H760 H 0.54736 0.88057 0.10387 0.0
H761 H 0.55583 0.91079 0.08445 0.0
H762 H 0.5224 0.88865 0.09383 0.0
H763 H 0.5534 0.96861 0.00656 0.0
H764 H 0.47146 0.91888 0.02444 0.0
H765 H 0.56986 0.9234 0.99994 0.0
H766 H 0.57644 0.92761 0.0391 0.0
H767 H 0.58462 0.95594 0.01603 0.0
H768 H 0.46349 0.86375 0.0292 0.0
H769 H 0.45898 0.88117 0.05945 0.0
H770 H 0.48015 0.86721 0.06402 0.0
C771 C 0.96016 0.16593 0.33639 0.0
C772 C 0.94439 0.1735 0.35228 0.0
C773 C 0.98628 0.18431 0.32936 0.0
C774 C 0.99705 0.21084 0.33882 0.0
C775 C 0.98082 0.21891 0.35336 0.0
C776 C 0.95469 0.20016 0.35985 0.0
C777 C 0.00268 0.17495 0.31332 0.0
C778 C 0.99143 0.2471 0.36354 0.0
C779 C 0.06766 0.25261 0.36295 0.0
C780 C 0.07747 0.27218 0.34096 0.0
C781 C 0.04196 0.23131 0.36136 0.0
C782 C 0.0258 0.22951 0.33698 0.0
C783 C 0.03654 0.24785 0.31321 0.0
C784 C 0.06225 0.26932 0.31569 0.0
C785 C 0.03134 0.21229 0.38726 0.0
C786 C 0.02021 0.2461 0.28641 0.0
H787 H 0.95248 0.14534 0.3306 0.0
H788 H 0.94248 0.20628 0.37151 0.0
H789 H 0.01525 0.18949 0.29622 0.0
H790 H 0.01579 0.17287 0.32955 0.0
H791 H 0.99036 0.1555 0.30236 0.0
H792 H 0.97585 0.25059 0.37258 0.0
H793 H 0.00641 0.25191 0.38116 0.0
H794 H 0.00116 0.26095 0.34476 0.0
H795 H 0.07934 0.25523 0.38275 0.0
H796 H 0.06974 0.28479 0.29896 0.0
H797 H 0.02095 0.19158 0.37919 0.0
H798 H 0.01695 0.21561 0.39971 0.0
H799 H 0.04706 0.2148 0.40295 0.0
H800 H 0.00838 0.22535 0.27866 0.0
H801 H 0.03255 0.25848 0.26767 0.0
H802 H 0.00638 0.25301 0.29261 0.0
C803 C 0.82955 0.77215 0.33046 0.0
C804 C 0.83523 0.7703 0.36057 0.0
C805 C 0.81086 0.77935 0.3225 0.0
C806 C 0.79653 0.7834 0.3451 0.0
C807 C 0.80167 0.78102 0.37541 0.0
C808 C 0.82146 0.77539 0.38272 0.0
C809 C 0.80652 0.78276 0.29 0.0
C810 C 0.78614 0.78419 0.4003 0.0
C811 C 0.75856 0.81966 0.34116 0.0
C812 C 0.73297 0.79828 0.34136 0.0
C813 C 0.77993 0.81532 0.33922 0.0
C814 C 0.77526 0.78904 0.33766 0.0
C815 C 0.74932 0.7677 0.33487 0.0
C816 C 0.72844 0.77264 0.33686 0.0
C817 C 0.80736 0.83857 0.34182 0.0
C818 C 0.74338 0.73939 0.33345 0.0
H819 H 0.83959 0.76795 0.31296 0.0
H820 H 0.82615 0.77528 0.40604 0.0
H821 H 0.78609 0.76839 0.28346 0.0
H822 H 0.80934 0.80282 0.28626 0.0
H823 H 0.82009 0.78003 0.27517 0.0
H824 H 0.79164 0.78019 0.42261 0.0
H825 H 0.78932 0.80458 0.40026 0.0
H826 H 0.76487 0.77048 0.39686 0.0
H827 H 0.76187 0.83946 0.34494 0.0
H828 H 0.70848 0.75619 0.33717 0.0
H829 H 0.82088 0.83628 0.3265 0.0
H830 H 0.81469 0.83961 0.36488 0.0
H831 H 0.80799 0.85753 0.33686 0.0
H832 H 0.75663 0.73722 0.31764 0.0
H833 H 0.72278 0.72569 0.32662 0.0
H834 H 0.74656 0.73328 0.3558 0.0
C835 C 0.19534 0.04088 0.35408 0.0
C836 C 0.22157 0.06094 0.35513 0.0
C837 C 0.18877 0.01445 0.34946 0.0
C838 C 0.20899 0.0082 0.346 0.0
C839 C 0.23551 0.02879 0.3453 0.0
C840 C 0.24145 0.05492 0.35002 0.0
C841 C 0.16034 0.99311 0.35024 0.0
C842 C 0.25773 0.02316 0.34114 0.0
C843 C 0.20596 0.94375 0.36663 0.0
C844 C 0.20386 0.93267 0.33842 0.0
C845 C 0.20478 0.96714 0.36986 0.0
C846 C 0.20283 0.98021 0.34409 0.0
C847 C 0.19864 0.96789 0.31593 0.0
C848 C 0.19833 0.9438 0.31365 0.0
C849 C 0.20823 0.97918 0.40046 0.0
C850 C 0.19793 0.98165 0.28769 0.0
H851 H 0.1801 0.04566 0.35865 0.0
H852 H 0.26175 0.07055 0.35139 0.0
H853 H 0.15556 0.97956 0.33097 0.0
H854 H 0.15663 0.98114 0.37077 0.0
H855 H 0.14696 0.00139 0.35001 0.0
H856 H 0.27691 0.04154 0.33824 0.0
H857 H 0.25911 0.01248 0.36091 0.0
H858 H 0.25405 0.0103 0.32142 0.0
H859 H 0.21074 0.93549 0.38569 0.0
H860 H 0.19736 0.93552 0.29171 0.0
H861 H 0.19477 0.98715 0.40355 0.0
H862 H 0.22857 0.99587 0.40291 0.0
H863 H 0.20457 0.96458 0.41837 0.0
H864 H 0.18473 0.98998 0.29019 0.0
H865 H 0.19146 0.96819 0.26812 0.0
H866 H 0.21788 -0.0016 0.28306 0.0
C867 C 0.53362 0.61943 0.32613 0.0
C868 C 0.50685 0.61105 0.32688 0.0
C869 C 0.55237 0.6461 0.33024 0.0
C870 C 0.54404 0.66486 0.3345 0.0
C871 C 0.51692 0.65639 0.3351 0.0
C872 C 0.49857 0.62944 0.33153 0.0
C873 C 0.58106 0.65411 0.33023 0.0
C874 C 0.50735 0.67586 0.33892 0.0
C875 C 0.59277 0.72492 0.37726 0.0
C876 C 0.60903 0.7412 0.35435 0.0
C877 C 0.57083 0.70043 0.37107 0.0
C878 C 0.56383 0.69281 0.34107 0.0
C879 C 0.5781 0.71076 0.31778 0.0
C880 C 0.6011 0.73467 0.32467 0.0
C881 C 0.55717 0.68158 0.3966 0.0
C882 C 0.57032 0.70383 0.28557 0.0
H883 H 0.53982 0.60506 0.322 0.0
H884 H 0.47777 0.62282 0.33133 0.0
H885 H 0.59135 0.66839 0.31198 0.0
H886 H 0.59032 0.66411 0.35153 0.0
H887 H 0.58413 0.63695 0.32729 0.0
H888 H 0.48562 0.66613 0.33829 0.0
H889 H 0.51434 0.68647 0.36044 0.0
H890 H 0.51555 0.69093 0.32098 0.0
H891 H 0.59894 0.73007 0.40028 0.0
H892 H 0.61368 0.74715 0.30692 0.0
H893 H 0.5612 0.66494 0.39538 0.0
H894 H 0.53565 0.67304 0.39509 0.0
H895 H 0.56388 0.69127 0.41869 0.0
H896 H 0.57706 0.69023 0.27758 0.0
H897 H 0.57924 0.72169 0.27116 0.0
H898 H 0.54869 0.69356 0.28302 0.0
C899 C 0.39165 0.88591 0.36047 0.0
C900 C 0.40415 0.90291 0.33627 0.0
C901 C 0.36631 0.87969 0.36932 0.0
C902 C 0.35282 0.88995 0.35294 0.0
C903 C 0.36553 0.90761 0.32902 0.0
C904 C 0.39113 0.91423 0.32139 0.0
C905 C 0.35378 0.86162 0.39565 0.0
C906 C 0.35182 0.91895 0.3108 0.0
C907 C 0.27978 0.85577 0.34147 0.0
C908 C 0.27388 0.8735 0.35558 0.0
C909 C 0.30514 0.85934 0.34291 0.0
C910 C 0.32483 0.88112 0.35899 0.0
C911 C 0.31807 0.89727 0.37602 0.0
C912 C 0.29262 0.89346 0.37378 0.0
C913 C 0.31152 0.84176 0.32428 0.0
C914 C 0.3383 0.92024 0.39406 0.0
H915 H 0.40136 0.87693 0.37215 0.0
H916 H 0.40085 0.92816 0.30344 0.0
H917 H 0.34397 0.86938 0.4103 0.0
H918 H 0.33855 0.84188 0.38766 0.0
H919 H 0.36831 0.85917 0.40906 0.0
H920 H 0.3645 0.9324 0.29291 0.0
H921 H 0.33393 0.9027 0.30033 0.0
H922 H 0.34554 0.9301 0.3254 0.0
H923 H 0.26528 0.84066 0.32697 0.0
H924 H 0.288 0.90737 0.38429 0.0
H925 H 0.32376 0.83564 0.33706 0.0
H926 H 0.32295 0.8529 0.30443 0.0
H927 H 0.29357 0.82376 0.3165 0.0
H928 H 0.35143 0.91475 0.40599 0.0
H929 H 0.32904 0.92723 0.41056 0.0
H930 H 0.35063 0.93692 0.37893 0.0
C931 C 0.14168 0.51009 0.30943 0.0
C932 C 0.11983 0.50778 0.32455 0.0
C933 C 0.15 0.4916 0.31382 0.0
C934 C 0.13566 0.46994 0.33316 0.0
C935 C 0.11377 0.46781 0.34888 0.0
C936 C 0.10628 0.48699 0.3446 0.0
C937 C 0.17381 0.49497 0.29736 0.0
C938 C 0.09778 0.44489 0.36955 0.0
C939 C 0.13309 0.40414 0.32437 0.0
C940 C 0.14638 0.40372 0.35007 0.0
C941 C 0.13097 0.42644 0.31727 0.0
C942 C 0.14275 0.44885 0.33622 0.0
C943 C 0.15877 0.44955 0.3602 0.0
C944 C 0.1602 0.42681 0.36698 0.0
C945 C 0.11363 0.42478 0.29155 0.0
C946 C 0.17215 0.47322 0.38058 0.0
H947 H 0.15219 0.52637 0.29406 0.0
H948 H 0.08933 0.48528 0.35616 0.0
H949 H 0.18759 0.49346 0.31308 0.0
H950 H 0.16781 0.47892 0.28071 0.0
H951 H 0.18433 0.51426 0.2856 0.0
H952 H 0.08166 0.44642 0.38047 0.0
H953 H 0.08916 0.42608 0.35685 0.0
H954 H 0.11053 0.44385 0.38712 0.0
H955 H 0.12179 0.38601 0.31181 0.0
H956 H 0.16992 0.42623 0.38732 0.0
H957 H 0.12312 0.44314 0.27807 0.0
H958 H 0.09503 0.42258 0.30039 0.0
H959 H 0.10884 0.4077 0.27675 0.0
H960 H 0.18122 0.49187 0.36757 0.0
H961 H 0.1875 0.47262 0.39446 0.0
H962 H 0.15742 0.47357 0.3957 0.0
C963 C 0.36697 0.4644 0.35017 0.0
C964 C 0.37984 0.49197 0.34957 0.0
C965 C 0.33956 0.44952 0.35266 0.0
C966 C 0.32479 0.46265 0.35473 0.0
C967 C 0.33795 0.49064 0.3548 0.0
C968 C 0.36542 0.50501 0.35217 0.0
C969 C 0.32638 0.41972 0.35242 0.0
C970 C 0.32299 0.50533 0.35739 0.0
C971 C 0.25683 0.42 0.32366 0.0
C972 C 0.24298 0.40608 0.34905 0.0
C973 C 0.28303 0.44003 0.3255 0.0
C974 C 0.2956 0.4468 0.35363 0.0
C975 C 0.28074 0.43504 0.37981 0.0
C976 C 0.2545 0.41443 0.3772 0.0
C977 C 0.29795 0.45164 0.29692 0.0
C978 C 0.29315 0.4425 0.4103 0.0
H979 H 0.37835 0.45447 0.34862 0.0
H980 H 0.37564 0.52644 0.3522 0.0
H981 H 0.31435 0.41152 0.3728 0.0
H982 H 0.31297 0.41173 0.33297 0.0
H983 H 0.3407 0.41261 0.35128 0.0
H984 H 0.3362 0.5271 0.35815 0.0
H985 H 0.30946 0.50049 0.33817 0.0
H986 H 0.31081 0.49902 0.37786 0.0
H987 H 0.24781 0.41345 0.30188 0.0
H988 H 0.24385 0.40357 0.39685 0.0
H989 H 0.31118 0.44354 0.29271 0.0
H990 H 0.31031 0.47341 0.29866 0.0
H991 H 0.28467 0.44687 0.27742 0.0
H992 H 0.30461 0.43241 0.4144 0.0
H993 H 0.27815 0.43653 0.42811 0.0
H994 H 0.30685 0.46411 0.41185 0.0
C995 C 0.51354 0.86802 0.34766 0.0
C996 C 0.52482 0.89515 0.35296 0.0
C997 C 0.52915 0.85603 0.34679 0.0
C998 C 0.55656 0.87171 0.35131 0.0
C999 C 0.5678 0.8991 0.35729 0.0
C1000 C 0.55172 0.91049 0.35807 0.0
C1001 C 0.51646 0.82679 0.34053 0.0
C1002 C 0.59695 0.91655 0.36196 0.0
C1003 C 0.60301 0.84531 0.36645 0.0
C1004 C 0.61446 0.84837 0.33829 0.0
C1005 C 0.58278 0.85123 0.37085 0.0
C1006 C 0.57406 0.86045 0.34654 0.0
C1007 C 0.58433 0.86173 0.31775 0.0
C1008 C 0.60424 0.85557 0.31399 0.0
C1009 C 0.57174 0.84896 0.40172 0.0
C1010 C 0.57554 0.87125 0.29113 0.0
H1011 H 0.49256 0.85624 0.34408 0.0
H1012 H 0.5602 0.93145 0.36249 0.0
H1013 H 0.52414 0.82347 0.31938 0.0
H1014 H 0.52141 0.81693 0.35849 0.0
H1015 H 0.49479 0.81722 0.33876 0.0
H1016 H 0.60237 0.93712 0.36794 0.0
H1017 H 0.60384 0.90839 0.37992 0.0
H1018 H 0.60752 0.91706 0.34127 0.0
H1019 H 0.61057 0.83944 0.38522 0.0
H1020 H 0.61246 0.85732 0.29193 0.0
H1021 H 0.55003 0.83898 0.40092 0.0
H1022 H 0.57893 0.86902 0.41104 0.0
H1023 H 0.57761 0.83785 0.41707 0.0
H1024 H 0.55387 0.8603 0.28929 0.0
H1025 H 0.58386 0.86892 0.26988 0.0
H1026 H 0.58182 0.89248 0.29403 0.0
C1027 C 0.15438 0.65252 0.33337 0.0
C1028 C 0.12757 0.63644 0.33873 0.0
C1029 C 0.1654 0.67995 0.33009 0.0
C1030 C 0.14914 0.69132 0.33279 0.0
C1031 C 0.12163 0.67467 0.3357 0.0
C1032 C 0.11114 0.64729 0.33871 0.0
C1033 C 0.19462 0.69688 0.32598 0.0
C1034 C 0.10352 0.68594 0.33821 0.0
C1035 C 0.17282 0.75359 0.37748 0.0
C1036 C 0.17198 0.7709 0.35645 0.0
C1037 C 0.16681 0.72808 0.36962 0.0
C1038 C 0.16091 0.71995 0.33954 0.0
C1039 C 0.16308 0.73841 0.31748 0.0
C1040 C 0.16845 0.76385 0.32627 0.0
C1041 C 0.16406 0.70906 0.39418 0.0
C1042 C 0.15854 0.73089 0.28496 0.0
H1043 H 0.16691 0.64381 0.33304 0.0
H1044 H 0.09031 0.63456 0.34247 0.0
H1045 H 0.19919 0.71302 0.30983 0.0
H1046 H 0.20388 0.70614 0.34756 0.0
H1047 H 0.20353 0.6851 0.31807 0.0
H1048 H 0.08255 0.67034 0.33724 0.0
H1049 H 0.10714 0.69667 0.35969 0.0
H1050 H 0.10743 0.70034 0.32004 0.0
H1051 H 0.17591 0.75925 0.40082 0.0
H1052 H 0.16788 0.7773 0.31002 0.0
H1053 H 0.17592 0.69962 0.38913 0.0
H1054 H 0.14328 0.69312 0.39585 0.0
H1055 H 0.17026 0.7189 0.41626 0.0
H1056 H 0.17547 0.72949 0.27634 0.0
H1057 H 0.15638 0.74565 0.27146 0.0
H1058 H 0.14081 0.71125 0.28181 0.0
C1059 C 0.80261 0.02416 0.34339 0.0
C1060 C 0.82887 0.03648 0.35197 0.0
C1061 C 0.78665 0.99666 0.34566 0.0
C1062 C 0.79737 0.98131 0.35693 0.0
C1063 C 0.82363 0.99405 0.3672 0.0
C1064 C 0.83919 0.02162 0.36437 0.0
C1065 C 0.75884 0.98393 0.33412 0.0
C1066 C 0.83572 0.97852 0.37955 0.0
C1067 C 0.74198 0.91115 0.36618 0.0
C1068 C 0.74192 0.90131 0.33773 0.0
C1069 C 0.76222 0.93643 0.37464 0.0
C1070 C 0.78202 0.95205 0.35372 0.0
C1071 C 0.78358 0.94063 0.32652 0.0
C1072 C 0.76375 0.91513 0.31923 0.0
C1073 C 0.76088 0.94756 0.40448 0.0
C1074 C 0.80373 0.95656 0.30303 0.0
H1075 H 0.79486 0.03589 0.33368 0.0
H1076 H 0.85969 0.03142 0.37083 0.0
H1077 H 0.75666 0.97146 0.31444 0.0
H1078 H 0.74492 0.97086 0.35137 0.0
H1079 H 0.75318 -0.00125 0.32748 0.0
H1080 H 0.85441 0.99143 0.39144 0.0
H1081 H 0.82199 0.96295 0.39505 0.0
H1082 H 0.83986 0.96854 0.36105 0.0
H1083 H 0.72497 0.90053 0.38039 0.0
H1084 H 0.76356 0.90739 0.29717 0.0
H1085 H 0.75605 0.96351 0.40131 0.0
H1086 H 0.78025 0.95646 0.41574 0.0
H1087 H 0.74582 0.93224 0.41922 0.0
H1088 H 0.79831 0.97032 0.29228 0.0
H1089 H 0.80481 0.94376 0.28541 0.0
H1090 H 0.82345 0.96861 0.31298 0.0
C1091 C 0.9862 0.7889 0.37169 0.0
C1092 C 0.97271 0.78947 0.34632 0.0
C1093 C 0.0132 0.79768 0.37025 0.0
C1094 C 0.02671 0.80722 0.34282 0.0
C1095 C 0.01291 0.80776 0.31721 0.0
C1096 C 0.98602 0.79883 0.31932 0.0
C1097 C 0.02725 0.79662 0.39796 0.0
C1098 C 0.02651 0.81763 0.28759 0.0
C1099 C 0.10094 0.84945 0.34789 0.0
C1100 C 0.10848 0.83063 0.34229 0.0
C1101 C 0.07434 0.84237 0.34701 0.0
C1102 C 0.05508 0.81584 0.34072 0.0
C1103 C 0.0629 0.79714 0.3337 0.0
C1104 C 0.08955 0.80479 0.33468 0.0
C1105 C 0.06675 0.86289 0.35438 0.0
C1106 C 0.04307 0.76868 0.32687 0.0
H1107 H 0.97569 0.78165 0.39254 0.0
H1108 H 0.97533 0.79922 0.29976 0.0
H1109 H 0.03602 0.78392 0.39395 0.0
H1110 H 0.04353 0.81669 0.40344 0.0
H1111 H 0.01397 0.78878 0.41751 0.0
H1112 H 0.01301 0.81718 0.26996 0.0
H1113 H 0.04297 0.8382 0.28993 0.0
H1114 H 0.03499 0.80534 0.28022 0.0
H1115 H 0.11566 0.86926 0.35451 0.0
H1116 H 0.09553 0.79018 0.33106 0.0
H1117 H 0.05596 0.85779 0.37583 0.0
H1118 H 0.05343 0.86314 0.33701 0.0
H1119 H 0.08409 0.88303 0.3563 0.0
H1120 H 0.03115 0.75917 0.34703 0.0
H1121 H 0.05249 0.75718 0.31967 0.0
H1122 H 0.02943 0.76758 0.30909 0.0
C1123 C 0.19809 0.17831 0.3814 0.0
C1124 C 0.21872 0.18571 0.36126 0.0
C1125 C 0.18565 0.19347 0.38435 0.0
C1126 C 0.1941 0.21638 0.3666 0.0
C1127 C 0.21511 0.22385 0.34626 0.0
C1128 C 0.22714 0.20837 0.34387 0.0
C1129 C 0.16316 0.18468 0.40587 0.0
C1130 C 0.22465 0.24798 0.32663 0.0
C1131 C 0.15761 0.25045 0.34134 0.0
C1132 C 0.1723 0.27475 0.35585 0.0
C1133 C 0.16192 0.22932 0.34746 0.0
C1134 C 0.18127 0.23283 0.36866 0.0
C1135 C 0.19256 0.25568 0.38694 0.0
C1136 C 0.18764 0.27636 0.38048 0.0
C1137 C 0.14878 0.20506 0.32795 0.0
C1138 C 0.21302 0.26022 0.41008 0.0
H1139 H 0.19145 0.16046 0.39449 0.0
H1140 H 0.24291 0.21376 0.328 0.0
H1141 H 0.16653 0.20118 0.4209 0.0
H1142 H 0.14483 0.17896 0.39331 0.0
H1143 H 0.16025 0.16759 0.41961 0.0
H1144 H 0.24165 0.25146 0.31268 0.0
H1145 H 0.2086 0.24564 0.31164 0.0
H1146 H 0.23044 0.26579 0.34052 0.0
H1147 H 0.14577 0.24924 0.32219 0.0
H1148 H 0.19909 0.29524 0.39163 0.0
H1149 H 0.14472 0.18704 0.3405 0.0
H1150 H 0.16197 0.20733 0.30913 0.0
H1151 H 0.13011 0.20228 0.31849 0.0
H1152 H 0.20808 0.24167 0.42203 0.0
H1153 H 0.21529 0.2754 0.4266 0.0
H1154 H 0.23217 0.26727 0.39884 0.0
C1155 C 0.6163 0.5185 0.67108 0.0
C1156 C 0.6117 0.4967 0.68841 0.0
C1157 C 0.64199 0.53824 0.6643 0.0
C1158 C 0.66342 0.53586 0.67497 0.0
C1159 C 0.65859 0.51264 0.69035 0.0
C1160 C 0.63272 0.49344 0.69722 0.0
C1161 C 0.64619 0.56272 0.64809 0.0
C1162 C 0.68077 0.50905 0.70171 0.0
C1163 C 0.73247 0.59147 0.65534 0.0
C1164 C 0.73753 0.60827 0.67982 0.0
C1165 C 0.7086 0.56719 0.65352 0.0
C1166 C 0.68982 0.55987 0.67673 0.0
C1167 C 0.69564 0.57632 0.70198 0.0
C1168 C 0.7193 0.60003 0.70321 0.0
C1169 C 0.70315 0.54974 0.62658 0.0
C1170 C 0.67653 0.56935 0.72754 0.0
H1171 H 0.59984 0.5207 0.66406 0.0
H1172 H 0.62892 0.47622 0.71025 0.0
H1173 H 0.65308 0.57933 0.66417 0.0
H1174 H 0.66151 0.56853 0.63076 0.0
H1175 H 0.6279 0.55985 0.63741 0.0
H1176 H 0.67405 0.48803 0.70702 0.0
H1177 H 0.69682 0.51615 0.68511 0.0
H1178 H 0.68894 0.52085 0.72234 0.0
H1179 H 0.74664 0.59759 0.63741 0.0
H1180 H 0.72343 0.61247 0.72273 0.0
H1181 H 0.68763 0.55006 0.61282 0.0
H1182 H 0.69577 0.52896 0.63351 0.0
H1183 H 0.72087 0.55632 0.61255 0.0
H1184 H 0.658 0.56779 0.71935 0.0
H1185 H 0.68437 0.58427 0.74572 0.0
H1186 H 0.67168 0.54992 0.73711 0.0
C1187 C 0.50691 0.13288 0.71292 0.0
C1188 C 0.51339 0.11878 0.69257 0.0
C1189 C 0.48711 0.13877 0.70671 0.0
C1190 C 0.47427 0.13163 0.67874 0.0
C1191 C 0.48259 0.11995 0.65682 0.0
C1192 C 0.50182 0.11324 0.66414 0.0
C1193 C 0.47851 0.15062 0.73113 0.0
C1194 C 0.47011 0.11311 0.62631 0.0
C1195 C 0.40375 0.11307 0.68842 0.0
C1196 C 0.40462 0.13709 0.6827 0.0
C1197 C 0.42585 0.11039 0.68456 0.0
C1198 C 0.44959 0.13243 0.67494 0.0
C1199 C 0.45007 0.15617 0.66684 0.0
C1200 C 0.42739 0.15822 0.67073 0.0
C1201 C 0.42427 0.08461 0.6933 0.0
C1202 C 0.47492 0.17991 0.65604 0.0
H1203 H 0.51652 0.1383 0.73448 0.0
H1204 H 0.50683 0.1026 0.6481 0.0
H1205 H 0.47795 0.16821 0.72278 0.0
H1206 H 0.45838 0.13596 0.7384 0.0
H1207 H 0.49162 0.15653 0.75091 0.0
H1208 H 0.48182 0.10871 0.6103 0.0
H1209 H 0.45027 0.09548 0.62786 0.0
H1210 H 0.46782 0.12959 0.61739 0.0
H1211 H 0.38589 0.09652 0.69705 0.0
H1212 H 0.42795 0.17672 0.66607 0.0
H1213 H 0.43591 0.08756 0.71389 0.0
H1214 H 0.43266 0.07782 0.6756 0.0
H1215 H 0.40379 0.06872 0.69752 0.0
H1216 H 0.4882 0.18962 0.67525 0.0
H1217 H 0.47093 0.19465 0.64513 0.0
H1218 H 0.48538 0.17388 0.64011 0.0
C1219 C 0.87685 0.38042 0.67965 0.0
C1220 C 0.9021 0.39825 0.68989 0.0
C1221 C 0.86921 0.35374 0.67495 0.0
C1222 C 0.88738 0.34503 0.68054 0.0
C1223 C 0.91317 0.3633 0.69002 0.0
C1224 C 0.92019 0.38969 0.69454 0.0
C1225 C 0.84158 0.33479 0.66487 0.0
C1226 C 0.93337 0.35499 0.69556 0.0
C1227 C 0.87398 0.27499 0.69174 0.0
C1228 C 0.88161 0.27049 0.66386 0.0
C1229 C 0.87315 0.29839 0.69692 0.0
C1230 C 0.88071 0.31751 0.67385 0.0
C1231 C 0.88617 0.31179 0.64508 0.0
C1232 C 0.88603 0.28814 0.64037 0.0
C1233 C 0.8661 0.30353 0.72753 0.0
C1234 C 0.89492 0.33174 0.62001 0.0
H1235 H 0.86277 0.38708 0.67665 0.0
H1236 H 0.93968 0.40362 0.7026 0.0
H1237 H 0.84172 0.32397 0.64461 0.0
H1238 H 0.83122 0.31985 0.68253 0.0
H1239 H 0.83033 0.345 0.65996 0.0
H1240 H 0.95249 0.3717 0.70301 0.0
H1241 H 0.92622 0.33934 0.71286 0.0
H1242 H 0.93659 0.34658 0.67487 0.0
H1243 H 0.87021 0.26116 0.70978 0.0
H1244 H 0.89125 0.28431 0.61849 0.0
H1245 H 0.85317 0.31227 0.72584 0.0
H1246 H 0.88418 0.31796 0.73942 0.0
H1247 H 0.85612 0.28517 0.74106 0.0
H1248 H 0.88157 0.3399 0.61773 0.0
H1249 H 0.8958 0.3231 0.59826 0.0
H1250 H 0.91475 0.34849 0.6251 0.0
C1251 C 0.16976 0.96022 0.67217 0.0
C1252 C 0.17513 0.94276 0.65642 0.0
C1253 C 0.18954 0.98636 0.67752 0.0
C1254 C 0.21524 0.99511 0.66692 0.0
C1255 C 0.22068 0.97758 0.65075 0.0
C1256 C 0.20058 0.9516 0.64582 0.0
C1257 C 0.18315 0.0044 0.69522 0.0
C1258 C 0.24794 0.98591 0.63972 0.0
C1259 C 0.26836 0.06796 0.66905 0.0
C1260 C 0.28107 0.0687 0.69578 0.0
C1261 C 0.24629 0.0442 0.65949 0.0
C1262 C 0.23724 0.02092 0.67689 0.0
C1263 C 0.24982 0.0218 0.70397 0.0
C1264 C 0.27122 0.04555 0.71312 0.0
C1265 C 0.23299 0.04381 0.6306 0.0
C1266 C 0.24112 0.99746 0.72313 0.0
H1267 H 0.15002 0.95352 0.68002 0.0
H1268 H 0.20486 0.93802 0.63393 0.0
H1269 H 0.1937 0.00926 0.71687 0.0
H1270 H 0.18988 0.02326 0.68308 0.0
H1271 H 0.16183 0.9953 0.69973 0.0
H1272 H 0.24831 0.97081 0.62495 0.0
H1273 H 0.25608 0.00483 0.62733 0.0
H1274 H 0.26106 0.98921 0.65901 0.0
H1275 H 0.27578 0.08565 0.65554 0.0
H1276 H 0.28053 0.04565 0.73402 0.0
H1277 H 0.21145 0.03405 0.63374 0.0
H1278 H 0.23674 0.03217 0.61376 0.0
H1279 H 0.24015 0.06402 0.62177 0.0
H1280 H 0.22024 0.98899 0.72946 0.0
H1281 H 0.25292 0.00169 0.74386 0.0
H1282 H 0.24281 0.98209 0.71039 0.0
C1283 C 0.05815 0.21894 0.68939 0.0
C1284 C 0.07361 0.24197 0.67276 0.0
C1285 C 0.03161 0.2102 0.69499 0.0
C1286 C 0.02016 0.2246 0.68326 0.0
C1287 C 0.036 0.24864 0.66792 0.0
C1288 C 0.06255 0.25709 0.66299 0.0
C1289 C 0.01552 0.18476 0.71191 0.0
C1290 C 0.0246 0.26472 0.6552 0.0
C1291 C 0.95073 0.19175 0.65455 0.0
C1292 C 0.9388 0.2004 0.67515 0.0
C1293 C 0.9767 0.19769 0.65835 0.0
C1294 C 0.99121 0.21304 0.68315 0.0
C1295 C 0.97858 0.21996 0.70535 0.0
C1296 C 0.95231 0.2134 0.70114 0.0
C1297 C 0.98922 0.1895 0.63437 0.0
C1298 C 0.99336 0.23609 0.73222 0.0
H1299 H 0.06646 0.20703 0.69695 0.0
H1300 H 0.07451 0.27526 0.65082 0.0
H1301 H 0.00238 0.18676 0.7281 0.0
H1302 H 0.00298 0.16881 0.69606 0.0
H1303 H 0.02807 0.17862 0.72411 0.0
H1304 H 0.03993 0.28399 0.64611 0.0
H1305 H 0.01068 0.25346 0.63699 0.0
H1306 H 0.01346 0.26849 0.67256 0.0
H1307 H 0.94015 0.18165 0.6345 0.0
H1308 H 0.9431 0.22029 0.71692 0.0
H1309 H 2e-05 0.18035 0.64442 0.0
H1310 H 0.00359 0.20723 0.6218 0.0
H1311 H 0.97456 0.17526 0.61837 0.0
H1312 H 0.00535 0.22825 0.74227 0.0
H1313 H 0.97997 0.23636 0.74948 0.0
H1314 H 0.00699 0.25675 0.72526 0.0
C1315 C 0.76672 0.81325 0.66772 0.0
C1316 C 0.78413 0.84004 0.66259 0.0
C1317 C 0.7761 0.79566 0.67255 0.0
C1318 C 0.80348 0.80509 0.67119 0.0
C1319 C 0.82103 0.83216 0.6656 0.0
C1320 C 0.81112 0.84939 0.6617 0.0
C1321 C 0.75675 0.76707 0.67938 0.0
C1322 C 0.85018 0.84282 0.66318 0.0
C1323 C 0.82233 0.76178 0.71438 0.0
C1324 C 0.81767 0.74236 0.69307 0.0
C1325 C 0.81964 0.78362 0.70714 0.0
C1326 C 0.81354 0.78672 0.67743 0.0
C1327 C 0.81323 0.76951 0.6549 0.0
C1328 C 0.81496 0.74714 0.66308 0.0
C1329 C 0.81954 0.80097 0.73209 0.0
C1330 C 0.80814 0.773 0.62271 0.0
H1331 H 0.74583 0.80617 0.66813 0.0
H1332 H 0.82443 0.87014 0.65717 0.0
H1333 H 0.75754 0.75419 0.66173 0.0
H1334 H 0.76196 0.76127 0.70078 0.0
H1335 H 0.73631 0.76324 0.68092 0.0
H1336 H 0.86121 0.86454 0.65955 0.0
H1337 H 0.85775 0.83826 0.68366 0.0
H1338 H 0.85417 0.83305 0.64431 0.0
H1339 H 0.82431 0.75791 0.73764 0.0
H1340 H 0.81116 0.73204 0.6466 0.0
H1341 H 0.79902 0.79588 0.73672 0.0
H1342 H 0.83053 0.82213 0.72578 0.0
H1343 H 0.82812 0.79826 0.75297 0.0
H1344 H 0.78681 0.76494 0.6193 0.0
H1345 H 0.81466 0.76238 0.60751 0.0
H1346 H 0.8183 0.79424 0.61654 0.0
C1347 C 0.02757 0.82922 0.7027 0.0
C1348 C 0.04225 0.82633 0.68005 0.0
C1349 C 0.00024 0.81287 0.70381 0.0
C1350 C 0.98747 0.79314 0.68177 0.0
C1351 C 0.00233 0.79073 0.65832 0.0
C1352 C 0.02967 0.80742 0.65777 0.0
C1353 C 0.98517 0.81619 0.72903 0.0
C1354 C 0.98942 0.77 0.63435 0.0
C1355 C 0.92443 0.72959 0.69823 0.0
C1356 C 0.90626 0.73305 0.68161 0.0
C1357 C 0.95075 0.74963 0.69977 0.0
C1358 C 0.95897 0.77367 0.68429 0.0
C1359 C 0.94021 0.77786 0.6691 0.0
C1360 C 0.91401 0.7573 0.66767 0.0
C1361 C 0.97009 0.74428 0.7161 0.0
C1362 C 0.94809 0.80334 0.65274 0.0
H1363 H 0.03756 0.84401 0.71987 0.0
H1364 H 0.04123 0.80537 0.64028 0.0
H1365 H 0.96852 0.81797 0.72013 0.0
H1366 H 0.97684 0.79846 0.74357 0.0
H1367 H 0.9977 0.83386 0.74289 0.0
H1368 H 0.00354 0.77145 0.61702 0.0
H1369 H 0.9803 0.75001 0.64449 0.0
H1370 H 0.97355 0.77195 0.62342 0.0
H1371 H 0.91836 0.71055 0.70845 0.0
H1372 H 0.8999 0.75965 0.65436 0.0
H1373 H 0.98233 0.76081 0.73146 0.0
H1374 H 0.98346 0.74281 0.69978 0.0
H1375 H 0.96023 0.72564 0.72915 0.0
H1376 H 0.96079 0.82059 0.66702 0.0
H1377 H 0.93081 0.80486 0.64558 0.0
H1378 H 0.95959 0.80449 0.63266 0.0
C1379 C 0.21593 0.23936 0.69753 0.0
C1380 C 0.18913 0.22461 0.69154 0.0
C1381 C 0.23153 0.22742 0.69718 0.0
C1382 C 0.21988 0.20006 0.69071 0.0
C1383 C 0.19249 0.18491 0.68578 0.0
C1384 C 0.17738 0.19745 0.6862 0.0
C1385 C 0.26065 0.24432 0.70251 0.0
C1386 C 0.17934 0.15567 0.67933 0.0
C1387 C 0.26679 0.18464 0.65054 0.0
C1388 C 0.27768 0.1774 0.67404 0.0
C1389 C 0.24681 0.19048 0.65549 0.0
C1390 C 0.23705 0.18862 0.6847 0.0
C1391 C 0.24618 0.1789 0.70811 0.0
C1392 C 0.2666 0.17347 0.70253 0.0
C1393 C 0.23773 0.20073 0.62981 0.0
C1394 C 0.23566 0.17589 0.73937 0.0
H1395 H 0.22474 0.26032 0.7022 0.0
H1396 H 0.15643 0.18608 0.68217 0.0
H1397 H 0.26703 0.23549 0.72024 0.0
H1398 H 0.27143 0.24516 0.68188 0.0
H1399 H 0.26632 0.26482 0.70915 0.0
H1400 H 0.15766 0.14636 0.6782 0.0
H1401 H 0.18645 0.15233 0.65777 0.0
H1402 H 0.18451 0.14559 0.69682 0.0
H1403 H 0.2749 0.18712 0.6283 0.0
H1404 H 0.27486 0.16772 0.72072 0.0
H1405 H 0.24395 0.22184 0.63368 0.0
H1406 H 0.21604 0.18974 0.6282 0.0
H1407 H 0.24589 0.1991 0.6081 0.0
H1408 H 0.24429 0.19562 0.75005 0.0
H1409 H 0.2406 0.16321 0.75327 0.0
H1410 H 0.21406 0.16729 0.7391 0.0
C1411 C 0.79427 0.9822 0.64309 0.0
C1412 C 0.79685 0.97348 0.67126 0.0
C1413 C 0.80261 0.00905 0.63814 0.0
C1414 C 0.81331 0.02719 0.66214 0.0
C1415 C 0.81623 0.0182 0.69055 0.0
C1416 C 0.80808 0.99143 0.69465 0.0
C1417 C 0.79948 0.01778 0.6075 0.0
C1418 C 0.82698 0.03661 0.71703 0.0
C1419 C 0.85126 0.10148 0.66608 0.0
C1420 C 0.83146 0.10618 0.67599 0.0
C1421 C 0.84507 0.07595 0.65685 0.0
C1422 C 0.81884 0.05488 0.65921 0.0
C1423 C 0.7986 0.06048 0.66575 0.0
C1424 C 0.80521 0.08633 0.67321 0.0
C1425 C 0.86692 0.07099 0.6479 0.0
C1426 C 0.77032 0.03883 0.66863 0.0
H1427 H 0.78562 0.96806 0.62504 0.0
H1428 H 0.81008 0.9844 0.71636 0.0
H1429 H 0.78156 0.0195 0.60691 0.0
H1430 H 0.81641 0.03742 0.60186 0.0
H1431 H 0.79744 0.00332 0.59012 0.0
H1432 H 0.82744 0.02627 0.73764 0.0
H1433 H 0.84719 0.0527 0.71231 0.0
H1434 H 0.81481 0.0459 0.72132 0.0
H1435 H 0.87159 0.11688 0.66822 0.0
H1436 H 0.78997 0.09026 0.68076 0.0
H1437 H 0.8602 0.05541 0.63051 0.0
H1438 H 0.87333 0.06411 0.66756 0.0
H1439 H 0.8841 0.08929 0.63938 0.0
H1440 H 0.76273 0.02968 0.64655 0.0
H1441 H 0.75753 0.04631 0.67724 0.0
H1442 H 0.76863 0.02307 0.6839 0.0
C1443 C 0.47896 0.34759 0.66005 0.0
C1444 C 0.49518 0.36466 0.68223 0.0
C1445 C 0.46316 0.32052 0.66572 0.0
C1446 C 0.46383 0.31038 0.69432 0.0
C1447 C 0.48106 0.32761 0.71646 0.0
C1448 C 0.49651 0.35474 0.71017 0.0
C1449 C 0.44532 0.30293 0.64123 0.0
C1450 C 0.48308 0.3174 0.74668 0.0
C1451 C 0.39812 0.25049 0.70608 0.0
C1452 C 0.40161 0.23209 0.68971 0.0
C1453 C 0.41923 0.27597 0.7111 0.0
C1454 C 0.44454 0.2823 0.7012 0.0
C1455 C 0.44881 0.26186 0.69067 0.0
C1456 C 0.42706 0.23689 0.68454 0.0
C1457 C 0.41343 0.29707 0.72173 0.0
C1458 C 0.47568 0.26724 0.68161 0.0
H1459 H 0.47844 0.3555 0.63832 0.0
H1460 H 0.50955 0.36819 0.72705 0.0
H1461 H 0.4506 0.28772 0.63536 0.0
H1462 H 0.42467 0.29247 0.64897 0.0
H1463 H 0.44656 0.31417 0.6207 0.0
H1464 H 0.49814 0.33322 0.76101 0.0
H1465 H 0.46394 0.30856 0.7583 0.0
H1466 H 0.48808 0.30153 0.744 0.0
H1467 H 0.37834 0.24664 0.71008 0.0
H1468 H 0.42983 0.2226 0.67198 0.0
H1469 H 0.41289 0.30849 0.7022 0.0
H1470 H 0.42888 0.31112 0.73705 0.0
H1471 H 0.3942 0.28844 0.73324 0.0
H1472 H 0.47903 0.27315 0.65779 0.0
H1473 H 0.47735 0.2492 0.6841 0.0
H1474 H 0.49127 0.28344 0.69502 0.0
C1475 C 0.65557 0.14616 0.6782 0.0
C1476 C 0.63881 0.11909 0.68264 0.0
C1477 C 0.68291 0.15701 0.6786 0.0
C1478 C 0.69355 0.14025 0.68342 0.0
C1479 C 0.6765 0.11279 0.68795 0.0
C1480 C 0.64924 0.10252 0.68748 0.0
C1481 C 0.70039 0.18633 0.67376 0.0
C1482 C 0.68705 0.09427 0.69328 0.0
C1483 C 0.7636 0.16023 0.66175 0.0
C1484 C 0.77585 0.16602 0.68972 0.0
C1485 C 0.73692 0.15269 0.65909 0.0
C1486 C 0.72247 0.15139 0.68496 0.0
C1487 C 0.73533 0.15898 0.71288 0.0
C1488 C 0.76175 0.16597 0.71492 0.0
C1489 C 0.72385 0.14466 0.62895 0.0
C1490 C 0.72087 0.15838 0.74092 0.0
H1491 H 0.64727 0.15881 0.67412 0.0
H1492 H 0.63608 0.08151 0.69059 0.0
H1493 H 0.71413 0.19518 0.69279 0.0
H1494 H 0.71242 0.1898 0.65345 0.0
H1495 H 0.68903 0.19674 0.67121 0.0
H1496 H 0.67119 0.07339 0.69566 0.0
H1497 H 0.69991 0.09557 0.67452 0.0
H1498 H 0.69919 0.10016 0.71383 0.0
H1499 H 0.77439 0.16003 0.64227 0.0
H1500 H 0.7712 0.17052 0.73657 0.0
H1501 H 0.71291 0.15518 0.62414 0.0
H1502 H 0.70943 0.12318 0.62898 0.0
H1503 H 0.73817 0.14883 0.61074 0.0
H1504 H 0.71018 0.16936 0.7375 0.0
H1505 H 0.73424 0.16709 0.76032 0.0
H1506 H 0.70611 0.13765 0.74638 0.0
C1507 C 0.90136 0.54459 0.68695 0.0
C1508 C 0.88682 0.51732 0.69134 0.0
C1509 C 0.8892 0.56002 0.6879 0.0
C1510 C 0.86186 0.54774 0.69356 0.0
C1511 C 0.84744 0.52027 0.69947 0.0
C1512 C 0.86012 0.5053 0.69806 0.0
C1513 C 0.90528 0.58917 0.68091 0.0
C1514 C 0.81839 0.50644 0.70563 0.0
C1515 C 0.84337 0.60078 0.70374 0.0
C1516 C 0.83755 0.60365 0.6742 0.0
C1517 C 0.84823 0.58019 0.71151 0.0
C1518 C 0.84821 0.56315 0.68892 0.0
C1519 C 0.83928 0.56428 0.65995 0.0
C1520 C 0.83333 0.58408 0.65328 0.0
C1521 C 0.85603 0.57844 0.74309 0.0
C1522 C 0.83967 0.5473 0.63474 0.0
H1523 H 0.92201 0.55367 0.68148 0.0
H1524 H 0.84895 0.48405 0.70114 0.0
H1525 H 0.89804 0.59353 0.66 0.0
H1526 H 0.90319 0.60097 0.69894 0.0
H1527 H 0.92643 0.5958 0.67818 0.0
H1528 H 0.81112 0.48637 0.71504 0.0
H1529 H 0.81369 0.51818 0.72133 0.0
H1530 H 0.8076 0.50441 0.68459 0.0
H1531 H 0.84669 0.61593 0.71994 0.0
H1532 H 0.82875 0.58639 0.6304 0.0
H1533 H 0.87769 0.58816 0.74461 0.0
H1534 H 0.84781 0.55751 0.74993 0.0
H1535 H 0.84928 0.58842 0.75894 0.0
H1536 H 0.86028 0.55456 0.62793 0.0
H1537 H 0.82864 0.54795 0.61492 0.0
H1538 H 0.8313 0.52644 0.64177 0.0
C1539 C 0.4905 0.92855 0.23944 0.0
C1540 C 0.47037 0.93036 0.25418 0.0
C1541 C 0.49793 0.93805 0.21012 0.0
C1542 C 0.48433 0.94874 0.19469 0.0
C1543 C 0.46372 0.95017 0.20912 0.0
C1544 C 0.45751 0.94166 0.23873 0.0
C1545 C 0.52066 0.93716 0.19584 0.0
C1546 C 0.44838 0.96112 0.19348 0.0
C1547 C 0.51163 -0.00135 0.13202 0.0
C1548 C 0.49825 0.98306 0.10728 0.0
C1549 C 0.50907 0.98735 0.16031 0.0
C1550 C 0.49226 0.95981 0.16402 0.0
C1551 C 0.48027 0.94372 0.13864 0.0
C1552 C 0.48365 0.95555 0.11041 0.0
C1553 C 0.52247 0.00528 0.18659 0.0
C1554 C 0.46173 0.9144 0.14166 0.0
H1555 H 0.50057 0.91976 0.25071 0.0
H1556 H 0.44271 0.94439 0.24983 0.0
H1557 H 0.51427 0.92568 0.17479 0.0
H1558 H 0.53621 0.95749 0.19001 0.0
H1559 H 0.52923 0.92819 0.21071 0.0
H1560 H 0.43138 0.95854 0.20683 0.0
H1561 H 0.4613 0.98251 0.18908 0.0
H1562 H 0.44106 0.9512 0.17163 0.0
H1563 H 0.52263 0.01998 0.12963 0.0
H1564 H 0.47281 0.94355 0.09142 0.0
H1565 H 0.53115 0.99654 0.20157 0.0
H1566 H 0.50787 0.00775 0.19971 0.0
H1567 H 0.53815 0.02517 0.17943 0.0
H1568 H 0.47024 0.90525 0.15626 0.0
H1569 H 0.45685 0.90422 0.1197 0.0
H1570 H 0.44328 0.91105 0.15223 0.0
C1571 C 0.06227 0.54862 0.24714 0.0
C1572 C 0.08513 0.54716 0.25147 0.0
C1573 C 0.0512 0.54541 0.21859 0.0
C1574 C 0.06323 0.54047 0.19401 0.0
C1575 C 0.08732 0.54093 0.19803 0.0
C1576 C 0.09801 0.54438 0.2267 0.0
C1577 C 0.02554 0.54512 0.21518 0.0
C1578 C 0.10058 0.53523 0.17262 0.0
C1579 C 0.01908 0.48997 0.1378 0.0
C1580 C 0.02399 0.50499 0.11159 0.0
C1581 C 0.03132 0.50147 0.16465 0.0
C1582 C 0.04815 0.52909 0.16608 0.0
C1583 C 0.05185 0.54484 0.14044 0.0
C1584 C 0.04008 0.53253 0.11316 0.0
C1585 C 0.02734 0.48365 0.19104 0.0
C1586 C 0.0688 0.57449 0.1417 0.0
H1587 H 0.05222 0.55077 0.26625 0.0
H1588 H 0.11599 0.54381 0.22992 0.0
H1589 H 0.02557 0.55575 0.19464 0.0
H1590 H 0.0093 0.52442 0.21312 0.0
H1591 H 0.02143 0.55424 0.23466 0.0
H1592 H 0.12074 0.53976 0.17853 0.0
H1593 H 0.08894 0.51399 0.1666 0.0
H1594 H 0.1016 0.54684 0.15259 0.0
H1595 H 0.00656 0.46869 0.13719 0.0
H1596 H 0.04379 0.54431 0.09317 0.0
H1597 H 0.01979 0.48957 0.21044 0.0
H1598 H 0.04636 0.48551 0.19771 0.0
H1599 H 0.01341 0.46251 0.18612 0.0
H1600 H 0.06349 0.58243 0.16131 0.0
H1601 H 0.0669 0.58412 0.12121 0.0
H1602 H 0.08964 0.57993 0.14438 0.0
C1603 C 0.47198 0.56195 0.22518 0.0
C1604 C 0.4714 0.54461 0.24722 0.0
C1605 C 0.4808 0.56161 0.19631 0.0
C1606 C 0.48859 0.54298 0.18902 0.0
C1607 C 0.48639 0.5242 0.21064 0.0
C1608 C 0.47794 0.52535 0.23966 0.0
C1609 C 0.48311 0.58213 0.17411 0.0
C1610 C 0.49393 0.5036 0.20346 0.0
C1611 C 0.49046 0.52743 0.10747 0.0
C1612 C 0.51742 0.53876 0.10232 0.0
C1613 C 0.48084 0.52871 0.13553 0.0
C1614 C 0.49869 0.54297 0.15864 0.0
C1615 C 0.52605 0.55649 0.15282 0.0
C1616 C 0.53518 0.55357 0.12483 0.0
C1617 C 0.45164 0.51301 0.14102 0.0
C1618 C 0.54563 0.57294 0.17655 0.0
H1619 H 0.46699 0.57691 0.23115 0.0
H1620 H 0.47787 0.51221 0.25681 0.0
H1621 H 0.50389 0.5946 0.16732 0.0
H1622 H 0.47169 0.57246 0.15369 0.0
H1623 H 0.47606 0.59515 0.18332 0.0
H1624 H 0.48892 0.48907 0.2218 0.0
H1625 H 0.48393 0.49284 0.18277 0.0
H1626 H 0.51534 0.51335 0.19939 0.0
H1627 H 0.47677 0.51543 0.09021 0.0
H1628 H 0.556 0.56182 0.12102 0.0
H1629 H 0.44454 0.52581 0.15059 0.0
H1630 H 0.44735 0.49717 0.15751 0.0
H1631 H 0.44038 0.50372 0.12033 0.0
H1632 H 0.5399 0.58651 0.18709 0.0
H1633 H 0.56576 0.5848 0.16742 0.0
H1634 H 0.54592 0.55986 0.19432 0.0
C1635 C 0.91218 0.43842 0.79563 0.0
C1636 C 0.9272 0.45857 0.77521 0.0
C1637 C 0.921 0.43905 0.82475 0.0
C1638 C 0.94511 0.46075 0.83395 0.0
C1639 C 0.95998 0.48167 0.81374 0.0
C1640 C 0.95086 0.48029 0.78445 0.0
C1641 C 0.90465 0.41632 0.84551 0.0
C1642 C 0.98563 0.50534 0.823 0.0
C1643 C 0.95517 0.48021 0.91495 0.0
C1644 C 0.97453 0.47415 0.92349 0.0
C1645 C 0.94487 0.47513 0.88615 0.0
C1646 C 0.95352 0.46289 0.86551 0.0
C1647 C 0.97117 0.45432 0.87477 0.0
C1648 C 0.98171 0.46025 0.90385 0.0
C1649 C 0.92628 0.48478 0.87723 0.0
C1650 C 0.98002 0.44033 0.85349 0.0
H1651 H 0.89385 0.42162 0.78838 0.0
H1652 H 0.96264 0.49562 0.7685 0.0
H1653 H 0.91666 0.40815 0.85469 0.0
H1654 H 0.89789 0.42338 0.86465 0.0
H1655 H 0.8872 0.40016 0.83421 0.0
H1656 H 0.99467 0.52003 0.80475 0.0
H1657 H 0.98251 0.51517 0.84247 0.0
H1658 H -0.00036 0.49886 0.83 0.0
H1659 H 0.9493 0.49061 0.93038 0.0
H1660 H 0.99664 0.45555 0.91047 0.0
H1661 H 0.90829 0.46856 0.86695 0.0
H1662 H 0.93578 0.50065 0.86028 0.0
H1663 H 0.92049 0.49274 0.89646 0.0
H1664 H 0.96293 0.42414 0.84179 0.0
H1665 H 0.99098 0.43199 0.86507 0.0
H1666 H 0.99295 0.45444 0.83626 0.0
C1667 C 0.54889 0.45088 0.79102 0.0
C1668 C 0.54217 0.46112 0.76651 0.0
C1669 C 0.54292 0.45493 0.8202 0.0
C1670 C 0.53027 0.46989 0.82486 0.0
C1671 C 0.52247 0.47929 0.79991 0.0
C1672 C 0.5285 0.47474 0.77098 0.0
C1673 C 0.55161 0.4446 0.84609 0.0
C1674 C 0.50934 0.49567 0.80379 0.0
C1675 C 0.50635 0.47669 0.90203 0.0
C1676 C 0.52727 0.50111 0.91104 0.0
C1677 C 0.50713 0.46573 0.87419 0.0
C1678 C 0.52933 0.47955 0.85539 0.0
C1679 C 0.55085 0.50361 0.86527 0.0
C1680 C 0.54955 0.51392 0.89287 0.0
C1681 C 0.48392 0.43996 0.86439 0.0
C1682 C 0.57496 0.51914 0.8462 0.0
H1683 H 0.55953 0.44039 0.78738 0.0
H1684 H 0.52346 0.48272 0.75187 0.0
H1685 H 0.56842 0.46134 0.85751 0.0
H1686 H 0.5356 0.43485 0.86265 0.0
H1687 H 0.55775 0.43031 0.83881 0.0
H1688 H 0.50155 0.49858 0.78241 0.0
H1689 H 0.49303 0.48622 0.82003 0.0
H1690 H 0.52371 0.51538 0.81283 0.0
H1691 H 0.48911 0.4668 0.91604 0.0
H1692 H 0.56594 0.53267 0.90003 0.0
H1693 H 0.49044 0.42604 0.85693 0.0
H1694 H 0.47427 0.44351 0.84506 0.0
H1695 H 0.46925 0.4305 0.88246 0.0
H1696 H 0.5835 0.50662 0.83999 0.0
H1697 H 0.59031 0.53709 0.85769 0.0
H1698 H 0.56954 0.52534 0.82524 0.0
C1699 C 0.53894 0.05895 0.78323 0.0
C1700 C 0.54383 0.08411 0.77481 0.0
C1701 C 0.53073 0.0496 0.81242 0.0
C1702 C 0.52712 0.06575 0.83336 0.0
C1703 C 0.53338 0.09164 0.82526 0.0
C1704 C 0.54191 0.10057 0.79622 0.0
C1705 C 0.52493 0.02209 0.82048 0.0
C1706 C 0.52967 0.10943 0.84675 0.0
C1707 C 0.47878 0.02794 0.89552 0.0
C1708 C 0.49576 0.03198 0.91931 0.0
C1709 C 0.48867 0.04021 0.8678 0.0
C1710 C 0.51618 0.05541 0.86349 0.0
C1711 C 0.53326 0.06023 0.88786 0.0
C1712 C 0.52274 0.04908 0.91567 0.0
C1713 C 0.46975 0.03575 0.84275 0.0
C1714 C 0.56268 0.07518 0.88407 0.0
H1715 H 0.5402 0.04612 0.76664 0.0
H1716 H 0.54583 0.12011 0.78971 0.0
H1717 H 0.53474 0.02242 0.84176 0.0
H1718 H 0.50354 0.00913 0.8238 0.0
H1719 H 0.53142 0.01323 0.80288 0.0
H1720 H 0.53611 0.1293 0.83718 0.0
H1721 H 0.50866 0.10023 0.85289 0.0
H1722 H 0.54081 0.1119 0.86761 0.0
H1723 H 0.45799 0.01422 0.89814 0.0
H1724 H 0.53592 0.05165 0.9339 0.0
H1725 H 0.4708 0.02246 0.82583 0.0
H1726 H 0.47507 0.05472 0.83152 0.0
H1727 H 0.44921 0.02668 0.85078 0.0
H1728 H 0.56854 0.06347 0.86978 0.0
H1729 H 0.57318 0.07899 0.90572 0.0
H1730 H 0.56923 0.09433 0.8727 0.0
C1731 C 0.14162 0.29743 0.58692 0.0
C1732 C 0.14524 0.27663 0.59669 0.0
C1733 C 0.14684 0.30643 0.55737 0.0
C1734 C 0.15586 0.2943 0.53687 0.0
C1735 C 0.16108 0.27436 0.54703 0.0
C1736 C 0.15578 0.26578 0.57691 0.0
C1737 C 0.14113 0.32786 0.54772 0.0
C1738 C 0.17078 0.26102 0.52591 0.0
C1739 C 0.13199 0.29449 0.45849 0.0
C1740 C 0.15367 0.3163 0.44571 0.0
C1741 C 0.13307 0.28615 0.48747 0.0
C1742 C 0.15639 0.30019 0.50437 0.0
C1743 C 0.17888 0.32142 0.49095 0.0
C1744 C 0.17728 0.32923 0.46159 0.0
C1745 C 0.1086 0.26338 0.50065 0.0
C1746 C 0.20403 0.33697 0.50825 0.0
H1747 H 0.13386 0.30615 0.60229 0.0
H1748 H 0.15859 0.2497 0.58436 0.0
H1749 H 0.1579 0.34342 0.53504 0.0
H1750 H 0.12382 0.31931 0.53271 0.0
H1751 H 0.13701 0.33722 0.56695 0.0
H1752 H 0.1769 0.24828 0.53784 0.0
H1753 H 0.15496 0.24857 0.50994 0.0
H1754 H 0.18758 0.27595 0.51269 0.0
H1755 H 0.1137 0.28461 0.44613 0.0
H1756 H 0.19392 0.34634 0.45179 0.0
H1757 H 0.10084 0.27085 0.51839 0.0
H1758 H 0.11315 0.24889 0.51107 0.0
H1759 H 0.09298 0.25299 0.48367 0.0
H1760 H 0.20145 0.34933 0.52519 0.0
H1761 H 0.22067 0.35015 0.49357 0.0
H1762 H 0.20908 0.32351 0.52032 0.0
C1763 C 0.73557 0.88955 0.57849 0.0
C1764 C 0.74958 0.87668 0.58627 0.0
C1765 C 0.7259 0.88794 0.54939 0.0
C1766 C 0.72887 0.87179 0.52804 0.0
C1767 C 0.74331 0.85916 0.53548 0.0
C1768 C 0.7543 0.86264 0.56396 0.0
C1769 C 0.71181 0.90283 0.54179 0.0
C1770 C 0.74622 0.84092 0.51384 0.0
C1771 C 0.67697 0.83374 0.47035 0.0
C1772 C 0.69087 0.84402 0.44373 0.0
C1773 C 0.68858 0.84376 0.49804 0.0
C1774 C 0.7145 0.86534 0.49919 0.0
C1775 C 0.72764 0.87769 0.47235 0.0
C1776 C 0.71568 0.86675 0.44474 0.0
C1777 C 0.6741 0.82928 0.5259 0.0
C1778 C 0.7549 0.90141 0.4729 0.0
H1779 H 0.73153 0.90046 0.59514 0.0
H1780 H 0.76629 0.85381 0.56866 0.0
H1781 H 0.71789 0.91219 0.51949 0.0
H1782 H 0.69038 0.88895 0.54097 0.0
H1783 H 0.71566 0.91838 0.55854 0.0
H1784 H 0.75721 0.8318 0.52359 0.0
H1785 H 0.72658 0.82483 0.50685 0.0
H1786 H 0.7566 0.8519 0.49348 0.0
H1787 H 0.6576 0.81636 0.4696 0.0
H1788 H 0.72648 0.87476 0.42423 0.0
H1789 H 0.674 0.84325 0.54254 0.0
H1790 H 0.68425 0.81952 0.53621 0.0
H1791 H 0.65348 0.81392 0.52121 0.0
H1792 H 0.75473 0.91769 0.4855 0.0
H1793 H 0.76264 0.90851 0.45015 0.0
H1794 H 0.76859 0.89659 0.48463 0.0
C1795 C 0.14724 0.86081 0.57509 0.0
C1796 C 0.13215 0.87259 0.58157 0.0
C1797 C 0.15582 0.86088 0.54591 0.0
C1798 C 0.14922 0.87322 0.52292 0.0
C1799 C 0.13281 0.8839 0.5292 0.0
C1800 C 0.12447 0.88346 0.55855 0.0
C1801 C 0.17291 0.84884 0.53997 0.0
C1802 C 0.12522 0.89701 0.50523 0.0
C1803 C 0.19389 0.89292 0.45498 0.0
C1804 C 0.17902 0.87141 0.43622 0.0
C1805 C 0.18379 0.89469 0.48286 0.0
C1806 C 0.15878 0.87409 0.4921 0.0
C1807 C 0.14339 0.85311 0.47249 0.0
C1808 C 0.15355 0.8523 0.44473 0.0
C1809 C 0.2004 0.91774 0.50309 0.0
C1810 C 0.11707 0.83029 0.48166 0.0
H1811 H 0.15378 0.85314 0.59319 0.0
H1812 H 0.11341 0.89321 0.56393 0.0
H1813 H 0.16459 0.83431 0.5215 0.0
H1814 H 0.19269 0.8645 0.53293 0.0
H1815 H 0.17504 0.83879 0.55994 0.0
H1816 H 0.11182 0.90378 0.51367 0.0
H1817 H 0.1431 0.9143 0.4962 0.0
H1818 H 0.11548 0.88314 0.48644 0.0
H1819 H 0.21369 0.90747 0.44862 0.0
H1820 H 0.14226 0.8353 0.4306 0.0
H1821 H 0.20772 0.91093 0.52199 0.0
H1822 H 0.18854 0.92593 0.51262 0.0
H1823 H 0.2175 0.93375 0.4912 0.0
H1824 H 0.11992 0.81888 0.49965 0.0
H1825 H 0.1067 0.81663 0.46284 0.0
H1826 H 0.10432 0.83759 0.49067 0.0
C1827 C 0.6236 0.81776 0.11462 0.0
C1828 C 0.59703 0.80225 0.10751 0.0
C1829 C 0.63231 0.81851 0.14398 0.0
C1830 C 0.61402 0.80262 0.16614 0.0
C1831 C 0.58703 0.78786 0.15912 0.0
C1832 C 0.57884 0.78818 0.12992 0.0
C1833 C 0.66114 0.83533 0.15098 0.0
C1834 C 0.56702 0.77034 0.18191 0.0
C1835 C 0.64445 0.78623 0.23179 0.0
C1836 C 0.64511 0.80398 0.25313 0.0
C1837 C 0.63274 0.78427 0.20377 0.0
C1838 C 0.62304 0.80157 0.19674 0.0
C1839 C 0.62288 0.81875 0.21874 0.0
C1840 C 0.63316 0.81908 0.24688 0.0
C1841 C 0.63201 0.76475 0.1812 0.0
C1842 C 0.61409 0.83851 0.21187 0.0
H1843 H 0.63763 0.82811 0.09699 0.0
H1844 H 0.55837 0.77571 0.12398 0.0
H1845 H 0.66401 0.84758 0.17108 0.0
H1846 H 0.66955 0.82245 0.15594 0.0
H1847 H 0.67226 0.84857 0.13216 0.0
H1848 H 0.54673 0.76042 0.17287 0.0
H1849 H 0.57158 0.75497 0.18952 0.0
H1850 H 0.56782 0.78201 0.20178 0.0
H1851 H 0.65409 0.77491 0.23643 0.0
H1852 H 0.63413 0.83317 0.26316 0.0
H1853 H 0.64671 0.77544 0.16352 0.0
H1854 H 0.61248 0.75409 0.17031 0.0
H1855 H 0.63639 0.75007 0.19153 0.0
H1856 H 0.62773 0.85314 0.19546 0.0
H1857 H 0.6137 0.84933 0.23205 0.0
H1858 H 0.5943 0.82861 0.20164 0.0
C1859 C 0.1874 0.78836 0.11269 0.0
C1860 C 0.21365 0.79821 0.1043 0.0
C1861 C 0.1809 0.79187 0.14182 0.0
C1862 C 0.20114 0.80627 0.16269 0.0
C1863 C 0.2275 0.81505 0.15482 0.0
C1864 C 0.23336 0.81052 0.12594 0.0
C1865 C 0.1525 0.78115 0.14989 0.0
C1866 C 0.2497 0.83037 0.17651 0.0
C1867 C 0.19596 0.85099 0.21944 0.0
C1868 C 0.19596 0.83875 0.24636 0.0
C1869 C 0.1959 0.83967 0.19198 0.0
C1870 C 0.19554 0.81525 0.19133 0.0
C1871 C 0.19347 0.80174 0.21837 0.0
C1872 C 0.19353 0.81362 0.24571 0.0
C1873 C 0.19854 0.85502 0.16379 0.0
C1874 C 0.19222 0.77527 0.21858 0.0
H1875 H 0.17195 0.77876 0.09626 0.0
H1876 H 0.25359 0.81727 0.12013 0.0
H1877 H 0.14819 0.77097 0.1718 0.0
H1878 H 0.14838 0.79767 0.15194 0.0
H1879 H 0.13905 0.76709 0.13286 0.0
H1880 H 0.26904 0.83506 0.16722 0.0
H1881 H 0.25045 0.8492 0.18247 0.0
H1882 H 0.24635 0.81892 0.19738 0.0
H1883 H 0.19736 0.87024 0.21983 0.0
H1884 H 0.19333 0.80402 0.26647 0.0
H1885 H 0.1834 0.84237 0.1473 0.0
H1886 H 0.21797 0.8615 0.15354 0.0
H1887 H 0.19674 0.8728 0.16804 0.0
H1888 H 0.17198 0.75966 0.21289 0.0
H1889 H 0.19736 0.77072 0.24078 0.0
H1890 H 0.20557 0.77437 0.20179 0.0
C1891 C 0.21628 0.41823 0.12931 0.0
C1892 C 0.19812 0.41278 0.10635 0.0
C1893 C 0.20794 0.40801 0.15815 0.0
C1894 C 0.18078 0.39181 0.16408 0.0
C1895 C 0.16237 0.38658 0.14106 0.0
C1896 C 0.17125 0.39706 0.11251 0.0
C1897 C 0.22823 0.4139 0.18203 0.0
C1898 C 0.13331 0.36926 0.14633 0.0
C1899 C 0.16511 0.34081 0.22434 0.0
C1900 C 0.16313 0.35366 0.24987 0.0
C1901 C 0.17006 0.35271 0.19625 0.0
C1902 C 0.17198 0.37771 0.19317 0.0
C1903 C 0.1672 0.38958 0.21822 0.0
C1904 C 0.16309 0.37751 0.24651 0.0
C1905 C 0.17538 0.33942 0.17041 0.0
C1906 C 0.16812 0.41579 0.21555 0.0
H1907 H 0.23703 0.43055 0.12473 0.0
H1908 H 0.1571 0.39245 0.09475 0.0
H1909 H 0.22393 0.42227 0.20201 0.0
H1910 H 0.22752 0.3953 0.189 0.0
H1911 H 0.24841 0.42802 0.17433 0.0
H1912 H 0.12147 0.36888 0.12682 0.0
H1913 H 0.12871 0.34873 0.15106 0.0
H1914 H 0.12725 0.3763 0.16611 0.0
H1915 H 0.16486 0.32219 0.22673 0.0
H1916 H 0.16168 0.38761 0.2661 0.0
H1917 H 0.19613 0.35159 0.16337 0.0
H1918 H 0.16298 0.33775 0.15098 0.0
H1919 H 0.17173 0.31935 0.1762 0.0
H1920 H 0.18877 0.43177 0.21295 0.0
H1921 H 0.15978 0.42016 0.23552 0.0
H1922 H 0.1572 0.41609 0.19549 0.0
C1923 C 0.80978 0.63168 0.92101 0.0
C1924 C 0.81076 0.6091 0.92968 0.0
C1925 C 0.81413 0.64038 0.89132 0.0
C1926 C 0.81945 0.62603 0.86966 0.0
C1927 C 0.82218 0.60425 0.87865 0.0
C1928 C 0.81789 0.59607 0.90864 0.0
C1929 C 0.81122 0.66384 0.88286 0.0
C1930 C 0.82778 0.58844 0.85622 0.0
C1931 C 0.79209 0.62698 0.79353 0.0
C1932 C 0.81433 0.64605 0.77845 0.0
C1933 C 0.7938 0.61943 0.82269 0.0
C1934 C 0.81838 0.63156 0.83739 0.0
C1935 C 0.84117 0.6501 0.8218 0.0
C1936 C 0.8389 0.65704 0.79228 0.0
C1937 C 0.76898 0.5995 0.83827 0.0
C1938 C 0.86761 0.66377 0.83689 0.0
H1939 H 0.80455 0.64197 0.93733 0.0
H1940 H 0.81855 0.57853 0.91523 0.0
H1941 H 0.82759 0.67755 0.86825 0.0
H1942 H 0.79274 0.65695 0.87017 0.0
H1943 H 0.81069 0.67493 0.90273 0.0
H1944 H 0.83248 0.57421 0.86712 0.0
H1945 H 0.81036 0.57724 0.84171 0.0
H1946 H 0.84435 0.60175 0.84161 0.0
H1947 H 0.77307 0.61868 0.78279 0.0
H1948 H 0.85599 0.67219 0.78074 0.0
H1949 H 0.76449 0.60929 0.85669 0.0
H1950 H 0.77158 0.58356 0.84824 0.0
H1951 H 0.75187 0.59041 0.82292 0.0
H1952 H 0.86781 0.67744 0.85421 0.0
H1953 H 0.88373 0.67532 0.82089 0.0
H1954 H 0.87144 0.64916 0.84829 0.0
C1955 C 0.40228 0.18608 0.90336 0.0
C1956 C 0.41275 0.21001 0.91939 0.0
C1957 C 0.39127 0.18332 0.875 0.0
C1958 C 0.38822 0.20406 0.8631 0.0
C1959 C 0.39651 0.22738 0.87994 0.0
C1960 C 0.40945 0.23047 0.90735 0.0
C1961 C 0.38333 0.15823 0.8576 0.0
C1962 C 0.39173 0.24906 0.86895 0.0
C1963 C 0.38188 0.20008 0.77896 0.0
C1964 C 0.35496 0.18261 0.77586 0.0
C1965 C 0.39295 0.20912 0.80734 0.0
C1966 C 0.37654 0.20096 0.83285 0.0
C1967 C 0.34901 0.18584 0.82921 0.0
C1968 C 0.33859 0.17659 0.80076 0.0
C1969 C 0.42241 0.22471 0.81026 0.0
C1970 C 0.33067 0.17714 0.85559 0.0
H1971 H 0.40265 0.16919 0.91265 0.0
H1972 H 0.41712 0.24911 0.91897 0.0
H1973 H 0.36181 0.14721 0.85422 0.0
H1974 H 0.39259 0.1631 0.83522 0.0
H1975 H 0.38906 0.14498 0.86905 0.0
H1976 H 0.39721 0.2649 0.88582 0.0
H1977 H 0.40318 0.25798 0.84837 0.0
H1978 H 0.37071 0.24073 0.86317 0.0
H1979 H 0.39456 0.20442 0.75976 0.0
H1980 H 0.31774 0.16297 0.7983 0.0
H1981 H 0.42944 0.21177 0.81976 0.0
H1982 H 0.42853 0.24159 0.82572 0.0
H1983 H 0.43216 0.23234 0.78841 0.0
H1984 H 0.33035 0.15989 0.86642 0.0
H1985 H 0.3103 0.17114 0.84872 0.0
H1986 H 0.3373 0.19312 0.87245 0.0
C1987 C 0.79891 0.19017 0.89822 0.0
C1988 C 0.80114 0.21365 0.90932 0.0
C1989 C 0.80686 0.18905 0.8689 0.0
C1990 C 0.81837 0.21226 0.85111 0.0
C1991 C 0.81868 0.23524 0.8615 0.0
C1992 C 0.809 0.23522 0.88992 0.0
C1993 C 0.80421 0.16349 0.85757 0.0
C1994 C 0.83111 0.26054 0.84361 0.0
C1995 C 0.86951 0.21588 0.79683 0.0
C1996 C 0.85641 0.21144 0.76953 0.0
C1997 C 0.85783 0.2176 0.82339 0.0
C1998 C 0.83188 0.21328 0.82272 0.0
C1999 C 0.81907 0.20999 0.795 0.0
C2000 C 0.83181 0.2098 0.76869 0.0
C2001 C 0.87282 0.22282 0.85231 0.0
C2002 C 0.79102 0.20405 0.79297 0.0
H2003 H 0.79247 0.17326 0.91285 0.0
H2004 H 0.80968 0.25306 0.89797 0.0
H2005 H 0.79725 0.15995 0.8341 0.0
H2006 H 0.8236 0.16467 0.85812 0.0
H2007 H 0.79039 0.14635 0.87136 0.0
H2008 H 0.82994 0.27677 0.8551 0.0
H2009 H 0.85207 0.26701 0.83958 0.0
H2010 H 0.82146 0.25724 0.82154 0.0
H2011 H 0.8883 0.21665 0.79756 0.0
H2012 H 0.82133 0.20568 0.7477 0.0
H2013 H 0.86432 0.20447 0.86581 0.0
H2014 H 0.87128 0.23804 0.86558 0.0
H2015 H 0.89388 0.22956 0.8485 0.0
H2016 H 0.77784 0.18239 0.79521 0.0
H2017 H 0.787 0.21023 0.77108 0.0
H2018 H 0.7859 0.21375 0.81087 0.0
C2019 C 0.25973 0.13711 0.46247 0.0
C2020 C 0.26051 0.11999 0.44107 0.0
C2021 C 0.27137 0.13992 0.49073 0.0
C2022 C 0.28339 0.12473 0.49796 0.0
C2023 C 0.28402 0.10735 0.47656 0.0
C2024 C 0.27338 0.10585 0.44827 0.0
C2025 C 0.27114 0.1594 0.51269 0.0
C2026 C 0.29616 0.09042 0.48343 0.0
C2027 C 0.33783 0.15123 0.55532 0.0
C2028 C 0.32426 0.13952 0.58182 0.0
C2029 C 0.32469 0.14672 0.52808 0.0
C2030 C 0.29749 0.12864 0.52677 0.0
C2031 C 0.28415 0.11441 0.55272 0.0
C2032 C 0.29762 0.12031 0.5802 0.0
C2033 C 0.33963 0.16286 0.50123 0.0
C2034 C 0.25537 0.09407 0.55173 0.0
H2035 H 0.24993 0.14817 0.45725 0.0
H2036 H 0.27527 0.09343 0.43166 0.0
H2037 H 0.26087 0.149 0.53337 0.0
H2038 H 0.29154 0.17418 0.51899 0.0
H2039 H 0.26136 0.16997 0.50353 0.0
H2040 H 0.29255 0.0759 0.46545 0.0
H2041 H 0.31763 0.10308 0.48639 0.0
H2042 H 0.28813 0.07951 0.50461 0.0
H2043 H 0.35847 0.166 0.55641 0.0
H2044 H 0.28692 0.11134 0.60054 0.0
H2045 H 0.33097 0.17491 0.49347 0.0
H2046 H 0.33807 0.14972 0.48256 0.0
H2047 H 0.36072 0.17634 0.50615 0.0
H2048 H 0.24371 0.10414 0.54918 0.0
H2049 H 0.24888 0.08193 0.5723 0.0
H2050 H 0.25097 0.08076 0.53226 0.0
C2051 C 0.89635 0.14591 0.45739 0.0
C2052 C 0.87765 0.13365 0.43465 0.0
C2053 C 0.889 0.14892 0.48624 0.0
C2054 C 0.86212 0.13843 0.4931 0.0
C2055 C 0.84301 0.12459 0.47088 0.0
C2056 C 0.85098 0.12281 0.44185 0.0
C2057 C 0.91016 0.16463 0.50891 0.0
C2058 C 0.81413 0.11258 0.47741 0.0
C2059 C 0.85061 0.14117 0.57639 0.0
C2060 C 0.85045 0.16506 0.57801 0.0
C2061 C 0.85216 0.13084 0.54848 0.0
C2062 C 0.85454 0.14529 0.52203 0.0
C2063 C 0.85236 0.1683 0.52362 0.0
C2064 C 0.84942 0.17728 0.55141 0.0
C2065 C 0.85297 0.10544 0.54745 0.0
C2066 C 0.85584 0.18507 0.49641 0.0
H2067 H 0.91693 0.15365 0.45261 0.0
H2068 H 0.83622 0.11356 0.42463 0.0
H2069 H 0.90933 0.18256 0.51533 0.0
H2070 H 0.90697 0.1528 0.52943 0.0
H2071 H 0.93011 0.17089 0.5003 0.0
H2072 H 0.80181 0.09852 0.45972 0.0
H2073 H 0.80924 0.10207 0.49912 0.0
H2074 H 0.80898 0.12841 0.47896 0.0
H2075 H 0.8513 0.13153 0.59677 0.0
H2076 H 0.84879 0.19553 0.55246 0.0
H2077 H 0.87338 0.10991 0.54359 0.0
H2078 H 0.8408 0.09281 0.52875 0.0
H2079 H 0.84594 0.09416 0.56863 0.0
H2080 H 0.87603 0.19316 0.48763 0.0
H2081 H 0.85262 0.20189 0.50137 0.0
H2082 H 0.84212 0.17302 0.47845 0.0
C2083 C 0.86292 0.71557 0.44655 0.0
C2084 C 0.87514 0.74238 0.43906 0.0
C2085 C 0.85518 0.70725 0.47608 0.0
C2086 C 0.85924 0.72621 0.49833 0.0
C2087 C 0.87221 0.75338 0.49086 0.0
C2088 C 0.88009 0.76112 0.46131 0.0
C2089 C 0.84203 0.67813 0.48326 0.0
C2090 C 0.87676 0.77416 0.51382 0.0
C2091 C 0.81654 0.69815 0.56773 0.0
C2092 C 0.8342 0.69649 0.58727 0.0
C2093 C 0.82481 0.7093 0.53909 0.0
C2094 C 0.85087 0.71771 0.52966 0.0
C2095 C 0.86888 0.71701 0.54993 0.0
C2096 C 0.86049 0.7071 0.57863 0.0
C2097 C 0.80539 0.71087 0.51844 0.0
C2098 C 0.89647 0.7247 0.54067 0.0
H2099 H 0.85843 0.70109 0.42907 0.0
H2100 H 0.88884 0.78179 0.45517 0.0
H2101 H 0.85231 0.67473 0.50202 0.0
H2102 H 0.82155 0.67097 0.49044 0.0
H2103 H 0.84171 0.66617 0.46384 0.0
H2104 H 0.88698 0.79444 0.50433 0.0
H2105 H 0.8577 0.77022 0.5232 0.0
H2106 H 0.88863 0.77335 0.53259 0.0
H2107 H 0.79618 0.68962 0.57419 0.0
H2108 H 0.87409 0.70549 0.59363 0.0
H2109 H 0.7999 0.69606 0.50037 0.0
H2110 H 0.8143 0.73066 0.5078 0.0
H2111 H 0.78728 0.70706 0.53031 0.0
H2112 H 0.89574 0.71088 0.5232 0.0
H2113 H 0.9084 0.72417 0.55962 0.0
H2114 H 0.90658 0.74482 0.53092 0.0
loop_
_geom_bond_atom_site_label_1
_geom_bond_atom_site_label_2
_geom_bond_distance
_geom_bond_site_symmetry_2
_ccdc_geom_bond_type
H0 C3 0.929 . S
H1 C6 0.929 . S
H2 C8 0.930 . S
C3 H0 0.929 . S
C3 C4 1.398 . S
C3 C5 1.396 . S
C4 C3 1.398 . S
C4 C8 1.407 . S
C5 C3 1.396 . S
C5 C6 1.394 . S
C6 H1 0.929 . S
C6 C5 1.394 . S
C6 C7 1.382 . S
C7 C6 1.382 . S
C7 C8 1.392 . S
C7 N9 1.420 . S
C8 H2 0.930 . S
C8 C4 1.407 . S
C8 C7 1.392 . S
N9 C7 1.420 . S
N9 C10 1.244 . S
C10 N9 1.244 . S
H11 C14 0.929 . S
H12 C17 0.929 . S
H13 C19 0.930 . S
C14 H11 0.929 . S
C14 C15 1.398 . S
C14 C16 1.396 . S
C15 C14 1.398 . S
C15 C19 1.407 . S
C16 C14 1.396 . S
C16 C17 1.394 . S
C17 H12 0.929 . S
C17 C16 1.394 . S
C17 C18 1.382 . S
C18 C17 1.382 . S
C18 C19 1.392 . S
C18 N20 1.420 . S
C19 H13 0.930 . S
C19 C15 1.407 . S
C19 C18 1.392 . S
N20 C18 1.420 . S
N20 C21 1.244 . S
C21 N20 1.244 . S
H22 C25 0.929 . S
H23 C28 0.929 . S
H24 C30 0.930 . S
C25 H22 0.929 . S
C25 C26 1.398 . S
C25 C27 1.396 . S
C26 C25 1.398 . S
C26 C30 1.407 . S
C27 C25 1.396 . S
C27 C28 1.394 . S
C28 H23 0.929 . S
C28 C27 1.394 . S
C28 C29 1.382 . S
C29 C28 1.382 . S
C29 C30 1.392 . S
C29 N31 1.420 . S
C30 H24 0.930 . S
C30 C26 1.407 . S
C30 C29 1.392 . S
N31 C29 1.420 . S
N31 C32 1.244 . S
C32 N31 1.244 . S
H33 C36 0.929 . S
H34 C39 0.929 . S
H35 C41 0.930 . S
C36 H33 0.929 . S
C36 C37 1.398 . S
C36 C38 1.396 . S
C37 C36 1.398 . S
C37 C41 1.407 . S
C38 C36 1.396 . S
C38 C39 1.394 . S
C39 H34 0.929 . S
C39 C38 1.394 . S
C39 C40 1.382 . S
C40 C39 1.382 . S
C40 C41 1.392 . S
C40 N42 1.420 . S
C41 H35 0.930 . S
C41 C37 1.407 . S
C41 C40 1.392 . S
N42 C40 1.420 . S
N42 C43 1.244 . S
C43 N42 1.244 . S
H44 C47 0.929 . S
H45 C50 0.929 . S
H46 C52 0.930 . S
C47 H44 0.929 . S
C47 C48 1.398 . S
C47 C49 1.396 . S
C48 C47 1.398 . S
C48 C52 1.407 . S
C49 C47 1.396 . S
C49 C50 1.394 . S
C50 H45 0.929 . S
C50 C49 1.394 . S
C50 C51 1.382 . S
C51 C50 1.382 . S
C51 C52 1.392 . S
C51 N53 1.420 . S
C52 H46 0.930 . S
C52 C48 1.407 . S
C52 C51 1.392 . S
N53 C51 1.420 . S
N53 C54 1.244 . S
C54 N53 1.244 . S
H55 C58 0.929 . S
H56 C61 0.929 . S
H57 C63 0.930 . S
C58 H55 0.929 . S
C58 C59 1.398 . S
C58 C60 1.396 . S
C59 C58 1.398 . S
C59 C63 1.407 . S
C60 C58 1.396 . S
C60 C61 1.394 . S
C61 H56 0.929 . S
C61 C60 1.394 . S
C61 C62 1.382 . S
C62 C61 1.382 . S
C62 C63 1.392 . S
C62 N64 1.420 . S
C63 H57 0.930 . S
C63 C59 1.407 . S
C63 C62 1.392 . S
N64 C62 1.420 . S
N64 C65 1.244 . S
C65 N64 1.244 . S
H66 C69 0.929 . S
H67 C72 0.929 . S
H68 C74 0.930 . S
C69 H66 0.929 . S
C69 C70 1.398 . S
C69 C71 1.396 . S
C70 C69 1.398 . S
C70 C74 1.407 . S
C71 C69 1.396 . S
C71 C72 1.394 . S
C72 H67 0.929 . S
C72 C71 1.394 . S
C72 C73 1.382 . S
C73 C72 1.382 . S
C73 C74 1.392 . S
C73 N75 1.420 . S
C74 H68 0.930 . S
C74 C70 1.407 . S
C74 C73 1.392 . S
N75 C73 1.420 . S
N75 C76 1.244 . S
C76 N75 1.244 . S
H77 C80 0.929 . S
H78 C83 0.929 . S
H79 C85 0.930 . S
C80 H77 0.929 . S
C80 C81 1.398 . S
C80 C82 1.396 . S
C81 C80 1.398 . S
C81 C85 1.407 . S
C82 C80 1.396 . S
C82 C83 1.394 . S
C83 H78 0.929 . S
C83 C82 1.394 . S
C83 C84 1.382 . S
C84 C83 1.382 . S
C84 C85 1.392 . S
C84 N86 1.420 . S
C85 H79 0.930 . S
C85 C81 1.407 . S
C85 C84 1.392 . S
N86 C84 1.420 . S
N86 C87 1.244 . S
C87 N86 1.244 . S
H88 C91 0.929 . S
H89 C94 0.929 . S
H90 C96 0.930 . S
C91 H88 0.929 . S
C91 C92 1.398 . S
C91 C93 1.396 . S
C92 C91 1.398 . S
C92 C96 1.407 . S
C93 C91 1.396 . S
C93 C94 1.394 . S
C94 H89 0.929 . S
C94 C93 1.394 . S
C94 C95 1.382 . S
C95 C94 1.382 . S
C95 C96 1.392 . S
C95 N97 1.420 . S
C96 H90 0.930 . S
C96 C92 1.407 . S
C96 C95 1.392 . S
N97 C95 1.420 . S
N97 C98 1.244 . S
C98 N97 1.244 . S
H99 C102 0.929 . S
H100 C105 0.929 . S
H101 C107 0.930 . S
C102 H99 0.929 . S
C102 C103 1.398 . S
C102 C104 1.396 . S
C103 C102 1.398 . S
C103 C107 1.407 1_556 S
C104 C102 1.396 . S
C104 C105 1.394 . S
C105 H100 0.929 . S
C105 C104 1.394 . S
C105 C106 1.382 1_556 S
C106 C105 1.382 1_554 S
C106 C107 1.392 . S
C106 N108 1.420 . S
C107 H101 0.930 . S
C107 C103 1.407 1_554 S
C107 C106 1.392 . S
N108 C106 1.420 . S
N108 C109 1.244 . S
C109 N108 1.244 . S
H110 C113 0.929 . S
H111 C116 0.929 . S
H112 C118 0.930 . S
C113 H110 0.929 . S
C113 C114 1.378 1_556 S
C113 C115 1.396 . S
C114 C113 1.378 1_554 S
C114 C118 1.419 . S
C115 C113 1.396 . S
C115 C116 1.394 . S
C116 H111 0.929 . S
C116 C115 1.394 . S
C116 C117 1.382 1_556 S
C117 C116 1.382 1_554 S
C117 C118 1.392 . S
C117 N119 1.420 . S
C118 H112 0.930 . S
C118 C114 1.419 . S
C118 C117 1.392 . S
N119 C117 1.420 . S
N119 C120 1.244 . S
C120 N119 1.244 . S
H121 C124 0.929 . S
H122 C127 0.929 . S
H123 C129 0.930 . S
C124 H121 0.929 . S
C124 C125 1.398 . S
C124 C126 1.396 . S
C125 C124 1.398 . S
C125 C129 1.407 1_556 S
C126 C124 1.396 . S
C126 C127 1.394 . S
C127 H122 0.929 . S
C127 C126 1.394 . S
C127 C128 1.382 . S
C128 C127 1.382 . S
C128 C129 1.392 1_556 S
C128 N130 1.420 1_556 S
C129 H123 0.930 . S
C129 C125 1.407 1_554 S
C129 C128 1.392 1_554 S
N130 C128 1.420 1_554 S
N130 C131 1.244 . S
C131 N130 1.244 . S
H132 C135 0.929 . S
H133 C138 0.929 . S
H134 C140 0.930 1_556 S
C135 H132 0.929 . S
C135 C136 1.398 . S
C135 C137 1.396 . S
C136 C135 1.398 . S
C136 C140 1.407 . S
C137 C135 1.396 . S
C137 C138 1.394 . S
C138 H133 0.929 . S
C138 C137 1.394 . S
C138 C139 1.382 . S
C139 C138 1.382 . S
C139 C140 1.392 . S
C139 N141 1.420 . S
C140 H134 0.930 1_554 S
C140 C136 1.407 . S
C140 C139 1.392 . S
N141 C139 1.420 . S
N141 C142 1.244 . S
C142 N141 1.244 . S
H143 C146 0.929 . S
H144 C149 0.929 . S
H145 C151 0.930 1_556 S
C146 H143 0.929 . S
C146 C147 1.398 . S
C146 C148 1.396 . S
C147 C146 1.398 . S
C147 C151 1.407 . S
C148 C146 1.396 . S
C148 C149 1.394 . S
C149 H144 0.929 . S
C149 C148 1.394 . S
C149 C150 1.382 . S
C150 C149 1.382 . S
C150 C151 1.392 . S
C150 N152 1.420 . S
C151 H145 0.930 1_554 S
C151 C147 1.407 . S
C151 C150 1.392 . S
N152 C150 1.420 . S
N152 C153 1.244 . S
C153 N152 1.244 . S
H154 C157 0.929 . S
H155 C160 0.929 . S
H156 C162 0.930 1_556 S
C157 H154 0.929 . S
C157 C158 1.398 . S
C157 C159 1.396 . S
C158 C157 1.398 . S
C158 C162 1.407 . S
C159 C157 1.396 . S
C159 C160 1.394 . S
C160 H155 0.929 . S
C160 C159 1.394 . S
C160 C161 1.382 . S
C161 C160 1.382 . S
C161 C162 1.392 . S
C161 N163 1.420 . S
C162 H156 0.930 1_554 S
C162 C158 1.407 . S
C162 C161 1.392 . S
N163 C161 1.420 . S
N163 C164 1.244 . S
C164 N163 1.244 . S
H165 C168 0.929 . S
H166 C171 0.929 . S
H167 C173 0.930 . S
C168 H165 0.929 . S
C168 C169 1.398 . S
C168 C170 1.396 . S
C169 C168 1.398 . S
C169 C173 1.407 . S
C170 C168 1.396 . S
C170 C171 1.394 . S
C171 H166 0.929 . S
C171 C170 1.394 . S
C171 C172 1.382 . S
C172 C171 1.382 . S
C172 C173 1.392 . S
C172 N174 1.420 . S
C173 H167 0.930 . S
C173 C169 1.407 . S
C173 C172 1.392 . S
N174 C172 1.420 . S
N174 C175 1.244 . S
C175 N174 1.244 . S
H176 C179 0.929 . S
H177 C182 0.929 . S
H178 C184 0.930 . S
C179 H176 0.929 . S
C179 C180 1.398 . S
C179 C181 1.396 . S
C180 C179 1.398 . S
C180 C184 1.407 . S
C181 C179 1.396 . S
C181 C182 1.394 . S
C182 H177 0.929 . S
C182 C181 1.394 . S
C182 C183 1.382 . S
C183 C182 1.382 . S
C183 C184 1.392 . S
C183 N185 1.420 . S
C184 H178 0.930 . S
C184 C180 1.407 . S
C184 C183 1.392 . S
N185 C183 1.420 . S
N185 C186 1.244 . S
C186 N185 1.244 . S
H187 C190 0.929 . S
H188 C193 0.929 . S
H189 C195 0.930 . S
C190 H187 0.929 . S
C190 C191 1.398 . S
C190 C192 1.396 . S
C191 C190 1.398 . S
C191 C195 1.407 . S
C192 C190 1.396 . S
C192 C193 1.394 . S
C193 H188 0.929 . S
C193 C192 1.394 . S
C193 C194 1.382 . S
C194 C193 1.382 . S
C194 C195 1.392 . S
C194 N196 1.420 . S
C195 H189 0.930 . S
C195 C191 1.407 . S
C195 C194 1.392 . S
N196 C194 1.420 . S
N196 C197 1.244 . S
C197 N196 1.244 . S
O198 Mn199 2.163 1_565 S
O198 C212 1.244 . S
Mn199 O198 2.163 1_545 S
Mn199 O202 2.160 . S
Mn199 O203 2.221 1_545 S
Mn199 O205 2.163 1_554 S
Mn199 O207 2.160 . S
Mn199 O217 2.221 . S
O200 Mn201 2.087 1_565 S
O200 C212 1.256 . S
Mn201 O200 2.087 1_545 S
Mn201 O208 2.089 1_545 S
Mn201 O217 2.290 . S
Mn201 O218 2.251 . S
O202 Mn199 2.160 . S
O202 C213 1.239 . S
O203 Mn199 2.221 1_565 S
O203 Mn204 2.290 1_564 S
O203 C214 1.278 1_554 S
Mn204 O203 2.290 1_546 S
Mn204 O206 2.089 . S
Mn204 O209 2.251 1_545 S
Mn204 O210 2.087 . S
O205 Mn199 2.163 1_556 S
O205 C215 1.244 . S
O206 Mn204 2.089 . S
O206 C213 1.256 1_556 S
O207 Mn199 2.160 . S
O207 C216 1.239 1_545 S
O208 Mn201 2.089 1_565 S
O208 C216 1.256 . S
O209 Mn204 2.251 1_565 S
O209 C214 1.241 . S
O210 Mn204 2.087 . S
O210 C215 1.256 . S
C211 O217 1.278 . S
C211 O218 1.241 . S
C212 O198 1.244 . S
C212 O200 1.256 . S
C213 O202 1.239 . S
C213 O206 1.256 1_554 S
C214 O203 1.278 1_556 S
C214 O209 1.241 . S
C215 O205 1.244 . S
C215 O210 1.256 . S
C216 O207 1.239 1_565 S
C216 O208 1.256 . S
O217 Mn199 2.221 . S
O217 Mn201 2.290 . S
O217 C211 1.278 . S
O218 Mn201 2.251 . S
O218 C211 1.241 . S
O219 Mn220 2.163 . S
O219 C233 1.244 . S
Mn220 O219 2.163 . S
Mn220 O223 2.160 1_455 S
Mn220 O224 2.221 . S
Mn220 O226 2.163 1_454 S
Mn220 O228 2.160 . S
Mn220 O238 2.221 1_455 S
O221 Mn222 2.087 . S
O221 C233 1.256 . S
Mn222 O221 2.087 . S
Mn222 O229 2.089 . S
Mn222 O238 2.290 1_455 S
Mn222 O239 2.251 1_455 S
O223 Mn220 2.160 1_655 S
O223 C234 1.239 . S
O224 Mn220 2.221 . S
O224 Mn225 2.290 1_554 S
O224 C235 1.278 1_554 S
Mn225 O224 2.290 1_556 S
Mn225 O227 2.089 1_455 S
Mn225 O230 2.251 . S
Mn225 O231 2.087 . S
O226 Mn220 2.163 1_656 S
O226 C236 1.244 . S
O227 Mn225 2.089 1_655 S
O227 C234 1.256 1_556 S
O228 Mn220 2.160 . S
O228 C237 1.239 . S
O229 Mn222 2.089 . S
O229 C237 1.256 . S
O230 Mn225 2.251 . S
O230 C235 1.241 . S
O231 Mn225 2.087 . S
O231 C236 1.256 1_455 S
C232 O238 1.278 . S
C232 O239 1.241 . S
C233 O219 1.244 . S
C233 O221 1.256 . S
C234 O223 1.239 . S
C234 O227 1.256 1_554 S
C235 O224 1.278 1_556 S
C235 O230 1.241 . S
C236 O226 1.244 . S
C236 O231 1.256 1_655 S
C237 O228 1.239 . S
C237 O229 1.256 . S
O238 Mn220 2.221 1_655 S
O238 Mn222 2.290 1_655 S
O238 C232 1.278 . S
O239 Mn222 2.251 1_655 S
O239 C232 1.241 . S
O240 Mn241 2.163 . S
O240 C254 1.244 . S
Mn241 O240 2.163 . S
Mn241 O244 2.164 . S
Mn241 O245 2.221 . S
Mn241 O247 2.163 . S
Mn241 O249 2.160 1_554 S
Mn241 O259 2.221 1_554 S
O242 Mn243 2.087 . S
O242 C254 1.256 1_556 S
Mn243 O242 2.087 . S
Mn243 O250 2.089 . S
Mn243 O259 2.290 . S
Mn243 O260 2.251 1_556 S
O244 Mn241 2.164 . S
O244 C255 1.256 . S
O245 Mn241 2.221 . S
O245 Mn246 2.290 . S
O245 C256 1.278 . S
Mn246 O245 2.290 . S
Mn246 O248 2.089 . S
Mn246 O251 2.251 . S
Mn246 O252 2.087 . S
O247 Mn241 2.163 . S
O247 C257 1.244 . S
O248 Mn246 2.089 . S
O248 C255 1.256 . S
O249 Mn241 2.160 1_556 S
O249 C258 1.239 . S
O250 Mn243 2.089 . S
O250 C258 1.256 . S
O251 Mn246 2.251 . S
O251 C256 1.241 . S
O252 Mn246 2.087 . S
O252 C257 1.256 . S
C253 O259 1.278 1_554 S
C253 O260 1.241 . S
C254 O240 1.244 . S
C254 O242 1.256 1_554 S
C255 O244 1.256 . S
C255 O248 1.256 . S
C256 O245 1.278 . S
C256 O251 1.241 . S
C257 O247 1.244 . S
C257 O252 1.256 . S
C258 O249 1.239 . S
C258 O250 1.256 . S
O259 Mn241 2.221 1_556 S
O259 Mn243 2.290 . S
O259 C253 1.278 1_556 S
O260 Mn243 2.251 1_554 S
O260 C253 1.241 . S
O261 Mn262 2.163 . S
O261 C275 1.244 . S
Mn262 O261 2.163 . S
Mn262 O265 2.160 . S
Mn262 O266 2.221 . S
Mn262 O268 2.163 . S
Mn262 O270 2.160 . S
Mn262 O280 2.221 . S
O263 Mn264 2.087 . S
O263 C275 1.256 . S
Mn264 O263 2.087 . S
Mn264 O271 2.089 . S
Mn264 O280 2.290 . S
Mn264 O281 2.251 . S
O265 Mn262 2.160 . S
O265 C276 1.239 . S
O266 Mn262 2.221 . S
O266 Mn267 2.290 . S
O266 C277 1.278 . S
Mn267 O266 2.290 . S
Mn267 O269 2.089 . S
Mn267 O272 2.251 . S
Mn267 O273 2.087 . S
O268 Mn262 2.163 . S
O268 C278 1.244 . S
O269 Mn267 2.089 . S
O269 C276 1.256 . S
O270 Mn262 2.160 . S
O270 C279 1.239 . S
O271 Mn264 2.089 . S
O271 C279 1.256 . S
O272 Mn267 2.251 . S
O272 C277 1.241 . S
O273 Mn267 2.087 . S
O273 C278 1.256 . S
C274 O280 1.278 . S
C274 O281 1.241 . S
C275 O261 1.244 . S
C275 O263 1.256 . S
C276 O265 1.239 . S
C276 O269 1.256 . S
C277 O266 1.278 . S
C277 O272 1.241 . S
C278 O268 1.244 . S
C278 O273 1.256 . S
C279 O270 1.239 . S
C279 O271 1.256 . S
O280 Mn262 2.221 . S
O280 Mn264 2.290 . S
O280 C274 1.278 . S
O281 Mn264 2.251 . S
O281 C274 1.241 . S
O282 Mn283 2.163 . S
O282 C296 1.244 . S
Mn283 O282 2.163 . S
Mn283 O286 2.160 . S
Mn283 O287 2.221 . S
Mn283 O289 2.163 . S
Mn283 O291 2.160 . S
Mn283 O301 2.221 . S
O284 Mn285 2.087 . S
O284 C296 1.256 . S
Mn285 O284 2.087 . S
Mn285 O292 2.089 . S
Mn285 O301 2.290 . S
Mn285 O302 2.251 . S
O286 Mn283 2.160 . S
O286 C297 1.239 . S
O287 Mn283 2.221 . S
O287 Mn288 2.290 . S
O287 C298 1.278 . S
Mn288 O287 2.290 . S
Mn288 O290 2.089 . S
Mn288 O293 2.251 . S
Mn288 O294 2.087 . S
O289 Mn283 2.163 . S
O289 C299 1.244 . S
O290 Mn288 2.089 . S
O290 C297 1.256 . S
O291 Mn283 2.160 . S
O291 C300 1.239 . S
O292 Mn285 2.089 . S
O292 C300 1.256 . S
O293 Mn288 2.251 . S
O293 C298 1.241 . S
O294 Mn288 2.087 . S
O294 C299 1.256 . S
C295 O301 1.278 . S
C295 O302 1.241 . S
C296 O282 1.244 . S
C296 O284 1.256 . S
C297 O286 1.239 . S
C297 O290 1.256 . S
C298 O287 1.278 . S
C298 O293 1.241 . S
C299 O289 1.244 . S
C299 O294 1.256 . S
C300 O291 1.239 . S
C300 O292 1.256 . S
O301 Mn283 2.221 . S
O301 Mn285 2.290 . S
O301 C295 1.278 . S
O302 Mn285 2.251 . S
O302 C295 1.241 . S
O303 Mn304 2.163 . S
O303 C317 1.244 . S
Mn304 O303 2.163 . S
Mn304 O307 2.160 . S
Mn304 O308 2.221 . S
Mn304 O310 2.163 . S
Mn304 O312 2.160 . S
Mn304 O322 2.221 . S
O305 Mn306 2.087 . S
O305 C317 1.256 . S
Mn306 O305 2.087 . S
Mn306 O313 2.089 . S
Mn306 O322 2.290 . S
Mn306 O323 2.251 . S
O307 Mn304 2.160 . S
O307 C318 1.239 . S
O308 Mn304 2.221 . S
O308 Mn309 2.290 . S
O308 C319 1.278 . S
Mn309 O308 2.290 . S
Mn309 O311 2.089 . S
Mn309 O314 2.251 . S
Mn309 O315 2.087 . S
O310 Mn304 2.163 . S
O310 C320 1.244 . S
O311 Mn309 2.089 . S
O311 C318 1.256 . S
O312 Mn304 2.160 . S
O312 C321 1.239 . S
O313 Mn306 2.089 . S
O313 C321 1.256 . S
O314 Mn309 2.251 . S
O314 C319 1.241 . S
O315 Mn309 2.087 . S
O315 C320 1.256 . S
C316 O322 1.278 . S
C316 O323 1.241 . S
C317 O303 1.244 . S
C317 O305 1.256 . S
C318 O307 1.239 . S
C318 O311 1.256 . S
C319 O308 1.278 . S
C319 O314 1.241 . S
C320 O310 1.244 . S
C320 O315 1.256 . S
C321 O312 1.239 . S
C321 O313 1.256 . S
O322 Mn304 2.221 . S
O322 Mn306 2.290 . S
O322 C316 1.278 . S
O323 Mn306 2.251 . S
O323 C316 1.241 . S
O324 Mn325 2.163 . S
O324 C338 1.244 . S
Mn325 O324 2.163 . S
Mn325 O328 2.160 . S
Mn325 O329 2.221 . S
Mn325 O331 2.163 . S
Mn325 O333 2.160 . S
Mn325 O343 2.221 . S
O326 Mn327 2.087 . S
O326 C338 1.256 . S
Mn327 O326 2.087 . S
Mn327 O334 2.089 . S
Mn327 O343 2.290 . S
Mn327 O344 2.251 . S
O328 Mn325 2.160 . S
O328 C339 1.239 . S
O329 Mn325 2.221 . S
O329 Mn330 2.290 . S
O329 C340 1.278 . S
Mn330 O329 2.290 . S
Mn330 O332 2.089 . S
Mn330 O335 2.251 . S
Mn330 O336 2.087 . S
O331 Mn325 2.163 . S
O331 C341 1.244 . S
O332 Mn330 2.089 . S
O332 C339 1.256 . S
O333 Mn325 2.160 . S
O333 C342 1.239 . S
O334 Mn327 2.089 . S
O334 C342 1.256 . S
O335 Mn330 2.251 . S
O335 C340 1.241 . S
O336 Mn330 2.087 . S
O336 C341 1.256 . S
C337 O343 1.278 . S
C337 O344 1.241 . S
C338 O324 1.244 . S
C338 O326 1.256 . S
C339 O328 1.239 . S
C339 O332 1.256 . S
C340 O329 1.278 . S
C340 O335 1.241 . S
C341 O331 1.244 . S
C341 O336 1.256 . S
C342 O333 1.239 . S
C342 O334 1.256 . S
O343 Mn325 2.221 . S
O343 Mn327 2.290 . S
O343 C337 1.278 . S
O344 Mn327 2.251 . S
O344 C337 1.241 . S
O345 Mn346 2.163 . S
O345 C359 1.244 . S
Mn346 O345 2.163 . S
Mn346 O349 2.160 . S
Mn346 O350 2.221 . S
Mn346 O352 2.163 . S
Mn346 O354 2.160 . S
Mn346 O364 2.221 . S
O347 Mn348 2.087 . S
O347 C359 1.256 . S
Mn348 O347 2.087 . S
Mn348 O355 2.089 . S
Mn348 O364 2.290 . S
Mn348 O365 2.251 . S
O349 Mn346 2.160 . S
O349 C360 1.239 . S
O350 Mn346 2.221 . S
O350 Mn351 2.290 . S
O350 C361 1.278 . S
Mn351 O350 2.290 . S
Mn351 O353 2.089 . S
Mn351 O356 2.251 . S
Mn351 O357 2.087 . S
O352 Mn346 2.163 . S
O352 C362 1.244 . S
O353 Mn351 2.089 . S
O353 C360 1.256 . S
O354 Mn346 2.160 . S
O354 C363 1.239 . S
O355 Mn348 2.089 . S
O355 C363 1.256 . S
O356 Mn351 2.251 . S
O356 C361 1.241 . S
O357 Mn351 2.087 . S
O357 C362 1.256 . S
C358 O364 1.278 . S
C358 O365 1.241 . S
C359 O345 1.244 . S
C359 O347 1.256 . S
C360 O349 1.239 . S
C360 O353 1.256 . S
C361 O350 1.278 . S
C361 O356 1.241 . S
C362 O352 1.244 . S
C362 O357 1.256 . S
C363 O354 1.239 . S
C363 O355 1.256 . S
O364 Mn346 2.221 . S
O364 Mn348 2.290 . S
O364 C358 1.278 . S
O365 Mn348 2.251 . S
O365 C358 1.241 . S
O366 Mn367 2.163 . S
O366 C380 1.244 . S
Mn367 O366 2.163 . S
Mn367 O370 2.160 . S
Mn367 O371 2.221 . S
Mn367 O373 2.163 . S
Mn367 O375 2.160 . S
Mn367 O385 2.221 . S
O368 Mn369 2.087 . S
O368 C380 1.256 . S
Mn369 O368 2.087 . S
Mn369 O376 2.089 . S
Mn369 O385 2.290 . S
Mn369 O386 2.251 . S
O370 Mn367 2.160 . S
O370 C381 1.239 . S
O371 Mn367 2.221 . S
O371 Mn372 2.290 . S
O371 C382 1.278 . S
Mn372 O371 2.290 . S
Mn372 O374 2.089 . S
Mn372 O377 2.251 . S
Mn372 O378 2.087 . S
O373 Mn367 2.163 . S
O373 C383 1.244 . S
O374 Mn372 2.089 . S
O374 C381 1.256 . S
O375 Mn367 2.160 . S
O375 C384 1.239 . S
O376 Mn369 2.089 . S
O376 C384 1.256 . S
O377 Mn372 2.251 . S
O377 C382 1.241 . S
O378 Mn372 2.087 . S
O378 C383 1.256 . S
C379 O385 1.278 . S
C379 O386 1.241 . S
C380 O366 1.244 . S
C380 O368 1.256 . S
C381 O370 1.239 . S
C381 O374 1.256 . S
C382 O371 1.278 . S
C382 O377 1.241 . S
C383 O373 1.244 . S
C383 O378 1.256 . S
C384 O375 1.239 . S
C384 O376 1.256 . S
O385 Mn367 2.221 . S
O385 Mn369 2.290 . S
O385 C379 1.278 . S
O386 Mn369 2.251 . S
O386 C379 1.241 . S
C387 C388 1.391 . S
C387 C389 1.394 . S
C387 H403 0.931 . S
C388 C387 1.391 . S
C388 C392 1.376 . S
C389 C387 1.394 . S
C389 C390 1.369 . S
C389 C393 1.531 . S
C390 C389 1.369 . S
C390 C391 1.410 . S
C390 C398 1.503 . S
C391 C390 1.410 . S
C391 C392 1.392 . S
C391 C394 1.511 1_554 S
C392 C388 1.376 . S
C392 C391 1.392 . S
C392 H404 0.929 1_554 S
C393 C389 1.531 . S
C393 H405 0.960 . S
C393 H406 0.962 . S
C393 H407 0.960 . S
C394 C391 1.511 1_556 S
C394 H408 0.961 . S
C394 H409 0.961 . S
C394 H410 0.961 1_556 S
C395 C396 1.370 1_556 S
C395 C397 1.363 . S
C395 H411 0.931 . S
C396 C395 1.370 1_554 S
C396 C400 1.408 . S
C397 C395 1.363 . S
C397 C398 1.370 1_556 S
C397 C401 1.524 . S
C398 C390 1.503 . S
C398 C397 1.370 1_554 S
C398 C399 1.403 . S
C399 C398 1.403 . S
C399 C400 1.404 . S
C399 C402 1.539 . S
C400 C396 1.408 . S
C400 C399 1.404 . S
C400 H412 0.930 . S
C401 C397 1.524 . S
C401 H413 0.956 . S
C401 H414 0.961 . S
C401 H415 0.961 . S
C402 C399 1.539 . S
C402 H416 0.958 . S
C402 H417 0.961 . S
C402 H418 0.960 . S
H403 C387 0.931 . S
H404 C392 0.929 1_556 S
H405 C393 0.960 . S
H406 C393 0.962 . S
H407 C393 0.960 . S
H408 C394 0.961 . S
H409 C394 0.961 . S
H410 C394 0.961 1_554 S
H411 C395 0.931 . S
H412 C400 0.930 . S
H413 C401 0.956 . S
H414 C401 0.961 . S
H415 C401 0.961 . S
H416 C402 0.958 . S
H417 C402 0.961 . S
H418 C402 0.960 . S
C419 C420 1.391 . S
C419 C421 1.394 . S
C419 H435 0.931 . S
C420 C419 1.391 . S
C420 C424 1.376 . S
C421 C419 1.394 . S
C421 C422 1.369 . S
C421 C425 1.531 . S
C422 C421 1.369 . S
C422 C423 1.410 . S
C422 C430 1.503 . S
C423 C422 1.410 . S
C423 C424 1.392 . S
C423 C426 1.511 1_554 S
C424 C420 1.376 . S
C424 C423 1.392 . S
C424 H436 0.929 . S
C425 C421 1.531 . S
C425 H437 0.960 . S
C425 H438 0.962 . S
C425 H439 0.960 . S
C426 C423 1.511 1_556 S
C426 H440 0.961 . S
C426 H441 0.962 . S
C426 H442 0.961 . S
C427 C428 1.370 . S
C427 C429 1.363 . S
C427 H443 0.931 . S
C428 C427 1.370 . S
C428 C432 1.408 1_554 S
C429 C427 1.363 . S
C429 C430 1.370 . S
C429 C433 1.524 . S
C430 C422 1.503 . S
C430 C429 1.370 . S
C430 C431 1.403 1_554 S
C431 C430 1.403 1_556 S
C431 C432 1.404 . S
C431 C434 1.539 . S
C432 C428 1.408 1_556 S
C432 C431 1.404 . S
C432 H444 0.930 . S
C433 C429 1.524 . S
C433 H445 0.956 . S
C433 H446 0.961 . S
C433 H447 0.961 . S
C434 C431 1.539 . S
C434 H448 0.958 . S
C434 H449 0.961 . S
C434 H450 0.960 . S
H435 C419 0.931 . S
H436 C424 0.929 . S
H437 C425 0.960 . S
H438 C425 0.962 . S
H439 C425 0.960 . S
H440 C426 0.961 . S
H441 C426 0.962 . S
H442 C426 0.961 . S
H443 C427 0.931 . S
H444 C432 0.930 . S
H445 C433 0.956 . S
H446 C433 0.961 . S
H447 C433 0.961 . S
H448 C434 0.958 . S
H449 C434 0.961 . S
H450 C434 0.960 . S
C451 C452 1.391 1_556 S
C451 C453 1.394 . S
C451 H467 0.931 . S
C452 C451 1.391 1_554 S
C452 C456 1.376 . S
C453 C451 1.394 . S
C453 C454 1.369 1_556 S
C453 C457 1.531 . S
C454 C453 1.369 1_554 S
C454 C455 1.410 . S
C454 C462 1.503 . S
C455 C454 1.410 . S
C455 C456 1.392 . S
C455 C458 1.511 . S
C456 C452 1.376 . S
C456 C455 1.392 . S
C456 H468 0.929 . S
C457 C453 1.531 . S
C457 H469 0.960 . S
C457 H470 0.962 . S
C457 H471 0.960 . S
C458 C455 1.511 . S
C458 H472 0.961 . S
C458 H473 0.961 . S
C458 H474 0.961 . S
C459 C460 1.370 . S
C459 C461 1.363 . S
C459 H475 0.931 . S
C460 C459 1.370 . S
C460 C464 1.408 . S
C461 C459 1.363 . S
C461 C462 1.370 . S
C461 C465 1.524 . S
C462 C454 1.503 . S
C462 C461 1.370 . S
C462 C463 1.403 . S
C463 C462 1.403 . S
C463 C464 1.404 . S
C463 C466 1.539 . S
C464 C460 1.408 . S
C464 C463 1.404 . S
C464 H476 0.930 . S
C465 C461 1.524 . S
C465 H477 0.956 1_554 S
C465 H478 0.961 . S
C465 H479 0.961 . S
C466 C463 1.539 . S
C466 H480 0.958 . S
C466 H481 0.961 . S
C466 H482 0.960 . S
H467 C451 0.931 . S
H468 C456 0.929 . S
H469 C457 0.960 . S
H470 C457 0.962 . S
H471 C457 0.960 . S
H472 C458 0.961 . S
H473 C458 0.961 . S
H474 C458 0.961 . S
H475 C459 0.931 . S
H476 C464 0.930 . S
H477 C465 0.956 1_556 S
H478 C465 0.961 . S
H479 C465 0.961 . S
H480 C466 0.958 . S
H481 C466 0.961 . S
H482 C466 0.960 . S
C483 C484 1.402 . S
C483 C485 1.394 . S
C483 H499 0.931 . S
C484 C483 1.402 . S
C484 C488 1.367 1_556 S
C485 C483 1.394 . S
C485 C486 1.369 . S
C485 C489 1.531 . S
C486 C485 1.369 . S
C486 C487 1.410 1_556 S
C486 C494 1.503 1_556 S
C487 C486 1.410 1_554 S
C487 C488 1.392 . S
C487 C490 1.511 . S
C488 C484 1.367 1_554 S
C488 C487 1.392 . S
C488 H500 0.929 . S
C489 C485 1.531 . S
C489 H501 0.960 . S
C489 H502 0.962 . S
C489 H503 0.960 . S
C490 C487 1.511 . S
C490 H504 0.961 . S
C490 H505 0.961 . S
C490 H506 0.961 . S
C491 C492 1.370 . S
C491 C493 1.363 . S
C491 H507 0.931 . S
C492 C491 1.370 . S
C492 C496 1.408 1_554 S
C493 C491 1.363 . S
C493 C494 1.378 . S
C493 C497 1.524 . S
C494 C486 1.503 1_554 S
C494 C493 1.378 . S
C494 C495 1.396 1_554 S
C495 C494 1.396 1_556 S
C495 C496 1.404 . S
C495 C498 1.539 . S
C496 C492 1.408 1_556 S
C496 C495 1.404 . S
C496 H508 0.930 . S
C497 C493 1.524 . S
C497 H509 0.956 . S
C497 H510 0.961 . S
C497 H511 0.961 . S
C498 C495 1.539 . S
C498 H512 0.958 . S
C498 H513 0.961 . S
C498 H514 0.960 . S
H499 C483 0.931 . S
H500 C488 0.929 . S
H501 C489 0.960 . S
H502 C489 0.962 . S
H503 C489 0.960 . S
H504 C490 0.961 . S
H505 C490 0.961 . S
H506 C490 0.961 . S
H507 C491 0.931 . S
H508 C496 0.930 . S
H509 C497 0.956 . S
H510 C497 0.961 . S
H511 C497 0.961 . S
H512 C498 0.958 . S
H513 C498 0.961 . S
H514 C498 0.960 . S
C515 C516 1.391 . S
C515 C517 1.394 . S
C515 H531 0.931 . S
C516 C515 1.391 . S
C516 C520 1.376 . S
C517 C515 1.394 . S
C517 C518 1.369 . S
C517 C521 1.531 . S
C518 C517 1.369 . S
C518 C519 1.410 . S
C518 C526 1.503 . S
C519 C518 1.410 . S
C519 C520 1.392 . S
C519 C522 1.511 . S
C520 C516 1.376 . S
C520 C519 1.392 . S
C520 H532 0.929 . S
C521 C517 1.531 . S
C521 H533 0.960 . S
C521 H534 0.985 . S
C521 H535 0.960 . S
C522 C519 1.511 . S
C522 H536 0.961 1_554 S
C522 H537 0.951 1_554 S
C522 H538 0.961 . S
C523 C524 1.370 1_556 S
C523 C525 1.363 . S
C523 H539 0.931 . S
C524 C523 1.370 1_554 S
C524 C528 1.408 . S
C525 C523 1.363 . S
C525 C526 1.370 1_556 S
C525 C529 1.524 . S
C526 C518 1.503 . S
C526 C525 1.370 1_554 S
C526 C527 1.403 . S
C527 C526 1.403 . S
C527 C528 1.404 . S
C527 C530 1.539 . S
C528 C524 1.408 . S
C528 C527 1.404 . S
C528 H540 0.930 . S
C529 C525 1.524 . S
C529 H541 0.956 . S
C529 H542 0.961 . S
C529 H543 0.961 . S
C530 C527 1.539 . S
C530 H544 0.958 . S
C530 H545 0.961 . S
C530 H546 0.960 . S
H531 C515 0.931 . S
H532 C520 0.929 . S
H533 C521 0.960 . S
H534 C521 0.985 . S
H535 C521 0.960 . S
H536 C522 0.961 1_556 S
H537 C522 0.951 1_556 S
H538 C522 0.961 . S
H539 C523 0.931 . S
H540 C528 0.930 . S
H541 C529 0.956 . S
H542 C529 0.961 . S
H543 C529 0.961 . S
H544 C530 0.958 . S
H545 C530 0.961 . S
H546 C530 0.960 . S
C547 C548 1.391 1_556 S
C547 C549 1.394 . S
C547 H563 0.931 . S
C548 C547 1.391 1_554 S
C548 C552 1.376 . S
C549 C547 1.394 . S
C549 C550 1.369 1_556 S
C549 C553 1.531 . S
C550 C549 1.369 1_554 S
C550 C551 1.410 . S
C550 C558 1.503 . S
C551 C550 1.410 . S
C551 C552 1.392 . S
C551 C554 1.511 . S
C552 C548 1.376 . S
C552 C551 1.392 . S
C552 H564 0.929 . S
C553 C549 1.531 . S
C553 H565 0.960 . S
C553 H566 0.962 . S
C553 H567 0.960 . S
C554 C551 1.511 . S
C554 H568 0.961 . S
C554 H569 0.961 . S
C554 H570 0.961 . S
C555 C556 1.370 . S
C555 C557 1.363 . S
C555 H571 0.931 . S
C556 C555 1.370 . S
C556 C560 1.408 1_554 S
C557 C555 1.363 . S
C557 C558 1.370 . S
C557 C561 1.524 . S
C558 C550 1.503 . S
C558 C557 1.370 . S
C558 C559 1.403 1_554 S
C559 C558 1.403 1_556 S
C559 C560 1.404 . S
C559 C562 1.539 . S
C560 C556 1.408 1_556 S
C560 C559 1.404 . S
C560 H572 0.930 . S
C561 C557 1.524 . S
C561 H573 0.956 . S
C561 H574 0.961 . S
C561 H575 0.961 . S
C562 C559 1.539 . S
C562 H576 0.958 . S
C562 H577 0.961 . S
C562 H578 0.960 . S
H563 C547 0.931 . S
H564 C552 0.929 . S
H565 C553 0.960 . S
H566 C553 0.962 . S
H567 C553 0.960 . S
H568 C554 0.961 . S
H569 C554 0.961 . S
H570 C554 0.961 . S
H571 C555 0.931 . S
H572 C560 0.930 . S
H573 C561 0.956 . S
H574 C561 0.961 . S
H575 C561 0.961 . S
H576 C562 0.958 . S
H577 C562 0.961 . S
H578 C562 0.960 . S
C579 C580 1.391 1_556 S
C579 C581 1.394 . S
C579 H595 0.931 . S
C580 C579 1.391 1_554 S
C580 C584 1.376 . S
C581 C579 1.394 . S
C581 C582 1.369 1_556 S
C581 C585 1.531 . S
C582 C581 1.369 1_554 S
C582 C583 1.410 . S
C582 C590 1.503 . S
C583 C582 1.410 . S
C583 C584 1.392 . S
C583 C586 1.511 . S
C584 C580 1.376 . S
C584 C583 1.392 . S
C584 H596 0.929 . S
C585 C581 1.531 . S
C585 H597 0.960 . S
C585 H598 0.962 . S
C585 H599 0.960 . S
C586 C583 1.511 . S
C586 H600 0.961 . S
C586 H601 0.961 . S
C586 H602 0.961 . S
C587 C588 1.370 . S
C587 C589 1.363 . S
C587 H603 0.931 1_554 S
C588 C587 1.370 . S
C588 C592 1.408 . S
C589 C587 1.363 . S
C589 C590 1.370 . S
C589 C593 1.524 1_554 S
C590 C582 1.503 . S
C590 C589 1.370 . S
C590 C591 1.403 . S
C591 C590 1.403 . S
C591 C592 1.404 . S
C591 C594 1.539 . S
C592 C588 1.408 . S
C592 C591 1.404 . S
C592 H604 0.930 . S
C593 C589 1.524 1_556 S
C593 H605 0.956 . S
C593 H606 0.961 1_556 S
C593 H607 0.961 . S
C594 C591 1.539 . S
C594 H608 0.958 . S
C594 H609 0.961 . S
C594 H610 0.960 . S
H595 C579 0.931 . S
H596 C584 0.929 . S
H597 C585 0.960 . S
H598 C585 0.962 . S
H599 C585 0.960 . S
H600 C586 0.961 . S
H601 C586 0.961 . S
H602 C586 0.961 . S
H603 C587 0.931 1_556 S
H604 C592 0.930 . S
H605 C593 0.956 . S
H606 C593 0.961 1_554 S
H607 C593 0.961 . S
H608 C594 0.958 . S
H609 C594 0.961 . S
H610 C594 0.960 . S
C611 C612 1.391 1_556 S
C611 C613 1.394 . S
C611 H627 0.931 . S
C612 C611 1.391 1_554 S
C612 C616 1.376 . S
C613 C611 1.394 . S
C613 C614 1.369 1_556 S
C613 C617 1.531 . S
C614 C613 1.369 1_554 S
C614 C615 1.410 . S
C614 C622 1.503 . S
C615 C614 1.410 . S
C615 C616 1.392 . S
C615 C618 1.511 . S
C616 C612 1.376 . S
C616 C615 1.392 . S
C616 H628 0.929 . S
C617 C613 1.531 . S
C617 H629 0.960 . S
C617 H630 0.962 . S
C617 H631 0.960 . S
C618 C615 1.511 . S
C618 H632 0.961 . S
C618 H633 0.961 . S
C618 H634 0.961 . S
C619 C620 1.370 . S
C619 C621 1.363 . S
C619 H635 0.931 . S
C620 C619 1.370 . S
C620 C624 1.408 1_554 S
C621 C619 1.363 . S
C621 C622 1.370 . S
C621 C625 1.524 . S
C622 C614 1.503 . S
C622 C621 1.370 . S
C622 C623 1.403 1_554 S
C623 C622 1.403 1_556 S
C623 C624 1.404 . S
C623 C626 1.539 . S
C624 C620 1.408 1_556 S
C624 C623 1.404 . S
C624 H636 0.930 . S
C625 C621 1.524 . S
C625 H637 0.956 . S
C625 H638 0.961 . S
C625 H639 0.961 . S
C626 C623 1.539 . S
C626 H640 0.958 . S
C626 H641 0.961 . S
C626 H642 0.960 . S
H627 C611 0.931 . S
H628 C616 0.929 . S
H629 C617 0.960 . S
H630 C617 0.962 . S
H631 C617 0.960 . S
H632 C618 0.961 . S
H633 C618 0.961 . S
H634 C618 0.961 . S
H635 C619 0.931 . S
H636 C624 0.930 . S
H637 C625 0.956 . S
H638 C625 0.961 . S
H639 C625 0.961 . S
H640 C626 0.958 . S
H641 C626 0.961 . S
H642 C626 0.960 . S
C643 C644 1.391 . S
C643 C645 1.394 . S
C643 H659 0.931 . S
C644 C643 1.391 . S
C644 C648 1.376 1_554 S
C645 C643 1.394 . S
C645 C646 1.369 . S
C645 C649 1.531 . S
C646 C645 1.369 . S
C646 C647 1.410 1_554 S
C646 C654 1.503 . S
C647 C646 1.410 1_556 S
C647 C648 1.392 . S
C647 C650 1.511 . S
C648 C644 1.376 1_556 S
C648 C647 1.392 . S
C648 H660 0.929 . S
C649 C645 1.531 . S
C649 H661 0.960 . S
C649 H662 0.962 . S
C649 H663 0.960 . S
C650 C647 1.511 . S
C650 H664 0.961 . S
C650 H665 0.961 . S
C650 H666 0.961 . S
C651 C652 1.370 . S
C651 C653 1.363 . S
C651 H667 0.925 1_554 S
C652 C651 1.370 . S
C652 C656 1.408 . S
C653 C651 1.363 . S
C653 C654 1.370 . S
C653 C657 1.524 1_554 S
C654 C646 1.503 . S
C654 C653 1.370 . S
C654 C655 1.403 . S
C655 C654 1.403 . S
C655 C656 1.404 . S
C655 C658 1.539 . S
C656 C652 1.408 . S
C656 C655 1.404 . S
C656 H668 0.930 . S
C657 C653 1.524 1_556 S
C657 H669 0.956 1_556 S
C657 H670 0.961 . S
C657 H671 0.961 . S
C658 C655 1.539 . S
C658 H672 0.958 . S
C658 H673 0.961 . S
C658 H674 0.960 . S
H659 C643 0.931 . S
H660 C648 0.929 . S
H661 C649 0.960 . S
H662 C649 0.962 . S
H663 C649 0.960 . S
H664 C650 0.961 . S
H665 C650 0.961 . S
H666 C650 0.961 . S
H667 C651 0.925 1_556 S
H668 C656 0.930 . S
H669 C657 0.956 1_554 S
H670 C657 0.961 . S
H671 C657 0.961 . S
H672 C658 0.958 . S
H673 C658 0.961 . S
H674 C658 0.960 . S
C675 C676 1.391 . S
C675 C677 1.394 . S
C675 H691 0.931 1_554 S
C676 C675 1.391 . S
C676 C680 1.376 . S
C677 C675 1.394 . S
C677 C678 1.369 . S
C677 C681 1.531 1_554 S
C678 C677 1.369 . S
C678 C679 1.410 . S
C678 C686 1.503 . S
C679 C678 1.410 . S
C679 C680 1.392 . S
C679 C682 1.511 . S
C680 C676 1.376 . S
C680 C679 1.392 . S
C680 H692 0.929 . S
C681 C677 1.531 1_556 S
C681 H693 0.960 1_556 S
C681 H694 0.962 . S
C681 H695 0.964 . S
C682 C679 1.511 . S
C682 H696 0.961 . S
C682 H697 0.961 . S
C682 H698 0.961 . S
C683 C684 1.370 1_556 S
C683 C685 1.363 . S
C683 H699 0.931 . S
C684 C683 1.370 1_554 S
C684 C688 1.408 . S
C685 C683 1.363 . S
C685 C686 1.370 1_556 S
C685 C689 1.524 . S
C686 C678 1.503 . S
C686 C685 1.370 1_554 S
C686 C687 1.403 . S
C687 C686 1.403 . S
C687 C688 1.404 . S
C687 C690 1.539 . S
C688 C684 1.408 . S
C688 C687 1.404 . S
C688 H700 0.930 . S
C689 C685 1.524 . S
C689 H701 0.956 . S
C689 H702 0.961 . S
C689 H703 0.961 . S
C690 C687 1.539 . S
C690 H704 0.958 . S
C690 H705 0.961 . S
C690 H706 0.960 . S
H691 C675 0.931 1_556 S
H692 C680 0.929 . S
H693 C681 0.960 1_554 S
H694 C681 0.962 . S
H695 C681 0.964 . S
H696 C682 0.961 . S
H697 C682 0.961 . S
H698 C682 0.961 . S
H699 C683 0.931 . S
H700 C688 0.930 . S
H701 C689 0.956 . S
H702 C689 0.961 . S
H703 C689 0.961 . S
H704 C690 0.958 . S
H705 C690 0.961 . S
H706 C690 0.960 . S
C707 C708 1.391 1_556 S
C707 C709 1.394 . S
C707 H723 0.931 . S
C708 C707 1.391 1_554 S
C708 C712 1.376 . S
C709 C707 1.394 . S
C709 C710 1.369 1_556 S
C709 C713 1.531 . S
C710 C709 1.369 1_554 S
C710 C711 1.410 . S
C710 C718 1.503 . S
C711 C710 1.410 . S
C711 C712 1.392 . S
C711 C714 1.511 . S
C712 C708 1.376 . S
C712 C711 1.392 . S
C712 H724 0.929 . S
C713 C709 1.531 . S
C713 H725 0.960 . S
C713 H726 0.962 . S
C713 H727 0.960 . S
C714 C711 1.511 . S
C714 H728 0.961 . S
C714 H729 0.961 . S
C714 H730 0.961 . S
C715 C716 1.370 . S
C715 C717 1.363 . S
C715 H731 0.931 . S
C716 C715 1.370 . S
C716 C720 1.406 1_554 S
C717 C715 1.363 . S
C717 C718 1.370 . S
C717 C721 1.524 . S
C718 C710 1.503 . S
C718 C717 1.370 . S
C718 C719 1.394 1_554 S
C719 C718 1.394 1_556 S
C719 C720 1.404 . S
C719 C722 1.546 . S
C720 C716 1.406 1_556 S
C720 C719 1.404 . S
C720 H732 0.932 . S
C721 C717 1.524 . S
C721 H733 0.956 . S
C721 H734 0.961 . S
C721 H735 0.961 . S
C722 C719 1.546 . S
C722 H736 0.958 . S
C722 H737 0.961 . S
C722 H738 0.953 1_556 S
H723 C707 0.931 . S
H724 C712 0.929 . S
H725 C713 0.960 . S
H726 C713 0.962 . S
H727 C713 0.960 . S
H728 C714 0.961 . S
H729 C714 0.961 . S
H730 C714 0.961 . S
H731 C715 0.931 . S
H732 C720 0.932 . S
H733 C721 0.956 . S
H734 C721 0.961 . S
H735 C721 0.961 . S
H736 C722 0.958 . S
H737 C722 0.961 . S
H738 C722 0.953 1_554 S
C739 C740 1.391 1_556 S
C739 C741 1.394 . S
C739 H755 0.931 . S
C740 C739 1.391 1_554 S
C740 C744 1.376 . S
C741 C739 1.394 . S
C741 C742 1.369 1_556 S
C741 C745 1.531 . S
C742 C741 1.369 1_554 S
C742 C743 1.410 . S
C742 C750 1.503 . S
C743 C742 1.410 . S
C743 C744 1.392 . S
C743 C746 1.511 . S
C744 C740 1.376 . S
C744 C743 1.392 . S
C744 H756 0.929 . S
C745 C741 1.531 . S
C745 H757 0.960 . S
C745 H758 0.962 . S
C745 H759 0.960 . S
C746 C743 1.511 . S
C746 H760 0.961 . S
C746 H761 0.961 . S
C746 H762 0.961 . S
C747 C748 1.370 1_556 S
C747 C749 1.363 . S
C747 H763 0.931 . S
C748 C747 1.370 1_554 S
C748 C752 1.408 . S
C749 C747 1.363 . S
C749 C750 1.370 1_556 S
C749 C753 1.524 . S
C750 C742 1.503 . S
C750 C749 1.370 1_554 S
C750 C751 1.403 . S
C751 C750 1.403 . S
C751 C752 1.404 . S
C751 C754 1.539 . S
C752 C748 1.408 . S
C752 C751 1.404 . S
C752 H764 0.930 . S
C753 C749 1.524 . S
C753 H765 0.956 . S
C753 H766 0.961 . S
C753 H767 0.961 . S
C754 C751 1.539 . S
C754 H768 0.958 . S
C754 H769 0.961 . S
C754 H770 0.960 . S
H755 C739 0.931 . S
H756 C744 0.929 . S
H757 C745 0.960 . S
H758 C745 0.962 . S
H759 C745 0.960 . S
H760 C746 0.961 . S
H761 C746 0.961 . S
H762 C746 0.961 . S
H763 C747 0.931 . S
H764 C752 0.930 . S
H765 C753 0.956 . S
H766 C753 0.961 . S
H767 C753 0.961 . S
H768 C754 0.958 . S
H769 C754 0.961 . S
H770 C754 0.960 . S
C771 C772 1.391 . S
C771 C773 1.394 . S
C771 H787 0.931 . S
C772 C771 1.391 . S
C772 C776 1.376 . S
C773 C771 1.394 . S
C773 C774 1.369 . S
C773 C777 1.531 1_655 S
C774 C773 1.369 . S
C774 C775 1.410 . S
C774 C782 1.503 1_655 S
C775 C774 1.410 . S
C775 C776 1.392 . S
C775 C778 1.511 . S
C776 C772 1.376 . S
C776 C775 1.392 . S
C776 H788 0.929 . S
C777 C773 1.531 1_455 S
C777 H789 0.960 . S
C777 H790 0.962 . S
C777 H791 0.959 1_455 S
C778 C775 1.511 . S
C778 H792 0.961 . S
C778 H793 0.961 . S
C778 H794 0.961 . S
C779 C780 1.370 . S
C779 C781 1.363 . S
C779 H795 0.931 . S
C780 C779 1.370 . S
C780 C784 1.408 . S
C781 C779 1.363 . S
C781 C782 1.370 . S
C781 C785 1.524 . S
C782 C774 1.503 1_455 S
C782 C781 1.370 . S
C782 C783 1.403 . S
C783 C782 1.403 . S
C783 C784 1.404 . S
C783 C786 1.539 . S
C784 C780 1.408 . S
C784 C783 1.404 . S
C784 H796 0.930 . S
C785 C781 1.524 . S
C785 H797 0.956 . S
C785 H798 0.961 . S
C785 H799 0.961 . S
C786 C783 1.539 . S
C786 H800 0.958 . S
C786 H801 0.961 . S
C786 H802 0.960 1_455 S
H787 C771 0.931 . S
H788 C776 0.929 . S
H789 C777 0.960 . S
H790 C777 0.962 . S
H791 C777 0.959 1_655 S
H792 C778 0.961 . S
H793 C778 0.961 . S
H794 C778 0.961 . S
H795 C779 0.931 . S
H796 C784 0.930 . S
H797 C785 0.956 . S
H798 C785 0.961 . S
H799 C785 0.961 . S
H800 C786 0.958 . S
H801 C786 0.961 . S
H802 C786 0.960 1_655 S
C803 C804 1.391 . S
C803 C805 1.394 . S
C803 H819 0.931 . S
C804 C803 1.391 . S
C804 C808 1.376 . S
C805 C803 1.394 . S
C805 C806 1.369 . S
C805 C809 1.531 . S
C806 C805 1.369 . S
C806 C807 1.410 . S
C806 C814 1.503 . S
C807 C806 1.410 . S
C807 C808 1.392 . S
C807 C810 1.511 . S
C808 C804 1.376 . S
C808 C807 1.392 . S
C808 H820 0.929 . S
C809 C805 1.531 . S
C809 H821 0.960 . S
C809 H822 0.962 . S
C809 H823 0.960 . S
C810 C807 1.511 . S
C810 H824 0.961 . S
C810 H825 0.961 . S
C810 H826 0.961 . S
C811 C812 1.370 . S
C811 C813 1.363 . S
C811 H827 0.931 . S
C812 C811 1.370 . S
C812 C816 1.408 . S
C813 C811 1.363 . S
C813 C814 1.370 . S
C813 C817 1.524 . S
C814 C806 1.503 . S
C814 C813 1.370 . S
C814 C815 1.403 . S
C815 C814 1.403 . S
C815 C816 1.404 . S
C815 C818 1.539 . S
C816 C812 1.408 . S
C816 C815 1.404 . S
C816 H828 0.930 . S
C817 C813 1.524 . S
C817 H829 0.956 . S
C817 H830 0.961 . S
C817 H831 0.961 . S
C818 C815 1.539 . S
C818 H832 0.958 . S
C818 H833 0.961 . S
C818 H834 0.960 . S
H819 C803 0.931 . S
H820 C808 0.929 . S
H821 C809 0.960 . S
H822 C809 0.962 . S
H823 C809 0.960 . S
H824 C810 0.961 . S
H825 C810 0.961 . S
H826 C810 0.961 . S
H827 C811 0.931 . S
H828 C816 0.930 . S
H829 C817 0.956 . S
H830 C817 0.961 . S
H831 C817 0.961 . S
H832 C818 0.958 . S
H833 C818 0.961 . S
H834 C818 0.960 . S
C835 C836 1.391 . S
C835 C837 1.394 . S
C835 H851 0.931 . S
C836 C835 1.391 . S
C836 C840 1.376 . S
C837 C835 1.394 . S
C837 C838 1.369 . S
C837 C841 1.531 . S
C838 C837 1.369 . S
C838 C839 1.410 . S
C838 C846 1.503 1_545 S
C839 C838 1.410 . S
C839 C840 1.392 . S
C839 C842 1.511 . S
C840 C836 1.376 . S
C840 C839 1.392 . S
C840 H852 0.929 . S
C841 C837 1.531 . S
C841 H853 0.960 1_545 S
C841 H854 0.962 1_545 S
C841 H855 0.960 . S
C842 C839 1.511 . S
C842 H856 0.961 . S
C842 H857 0.961 . S
C842 H858 0.961 . S
C843 C844 1.370 . S
C843 C845 1.363 . S
C843 H859 0.931 . S
C844 C843 1.370 . S
C844 C848 1.408 . S
C845 C843 1.363 . S
C845 C846 1.370 . S
C845 C849 1.524 . S
C846 C838 1.503 1_565 S
C846 C845 1.370 . S
C846 C847 1.403 . S
C847 C846 1.403 . S
C847 C848 1.404 . S
C847 C850 1.539 . S
C848 C844 1.408 . S
C848 C847 1.404 . S
C848 H860 0.930 . S
C849 C845 1.524 . S
C849 H861 0.956 . S
C849 H862 0.961 1_565 S
C849 H863 0.961 . S
C850 C847 1.539 . S
C850 H864 0.958 . S
C850 H865 0.961 . S
C850 H866 0.960 1_565 S
H851 C835 0.931 . S
H852 C840 0.929 . S
H853 C841 0.960 1_565 S
H854 C841 0.962 1_565 S
H855 C841 0.960 . S
H856 C842 0.961 . S
H857 C842 0.961 . S
H858 C842 0.961 . S
H859 C843 0.931 . S
H860 C848 0.930 . S
H861 C849 0.956 . S
H862 C849 0.961 1_545 S
H863 C849 0.961 . S
H864 C850 0.958 . S
H865 C850 0.961 . S
H866 C850 0.960 1_545 S
C867 C868 1.391 . S
C867 C869 1.394 . S
C867 H883 0.931 . S
C868 C867 1.391 . S
C868 C872 1.376 . S
C869 C867 1.394 . S
C869 C870 1.369 . S
C869 C873 1.531 . S
C870 C869 1.369 . S
C870 C871 1.410 . S
C870 C878 1.503 . S
C871 C870 1.410 . S
C871 C872 1.392 . S
C871 C874 1.511 . S
C872 C868 1.376 . S
C872 C871 1.392 . S
C872 H884 0.929 . S
C873 C869 1.531 . S
C873 H885 0.960 . S
C873 H886 0.962 . S
C873 H887 0.960 . S
C874 C871 1.511 . S
C874 H888 0.961 . S
C874 H889 0.961 . S
C874 H890 0.961 . S
C875 C876 1.370 . S
C875 C877 1.363 . S
C875 H891 0.931 . S
C876 C875 1.370 . S
C876 C880 1.408 . S
C877 C875 1.363 . S
C877 C878 1.370 . S
C877 C881 1.524 . S
C878 C870 1.503 . S
C878 C877 1.370 . S
C878 C879 1.403 . S
C879 C878 1.403 . S
C879 C880 1.404 . S
C879 C882 1.539 . S
C880 C876 1.408 . S
C880 C879 1.404 . S
C880 H892 0.930 . S
C881 C877 1.524 . S
C881 H893 0.956 . S
C881 H894 0.961 . S
C881 H895 0.961 . S
C882 C879 1.539 . S
C882 H896 0.958 . S
C882 H897 0.961 . S
C882 H898 0.960 . S
H883 C867 0.931 . S
H884 C872 0.929 . S
H885 C873 0.960 . S
H886 C873 0.962 . S
H887 C873 0.960 . S
H888 C874 0.961 . S
H889 C874 0.961 . S
H890 C874 0.961 . S
H891 C875 0.931 . S
H892 C880 0.930 . S
H893 C881 0.956 . S
H894 C881 0.961 . S
H895 C881 0.961 . S
H896 C882 0.958 . S
H897 C882 0.961 . S
H898 C882 0.960 . S
C899 C900 1.391 . S
C899 C901 1.394 . S
C899 H915 0.931 . S
C900 C899 1.391 . S
C900 C904 1.376 . S
C901 C899 1.394 . S
C901 C902 1.369 . S
C901 C905 1.531 . S
C902 C901 1.369 . S
C902 C903 1.410 . S
C902 C910 1.503 . S
C903 C902 1.410 . S
C903 C904 1.392 . S
C903 C906 1.511 . S
C904 C900 1.376 . S
C904 C903 1.392 . S
C904 H916 0.929 . S
C905 C901 1.531 . S
C905 H917 0.960 . S
C905 H918 0.962 . S
C905 H919 0.960 . S
C906 C903 1.511 . S
C906 H920 0.961 . S
C906 H921 0.961 . S
C906 H922 0.961 . S
C907 C908 1.370 . S
C907 C909 1.363 . S
C907 H923 0.931 . S
C908 C907 1.370 . S
C908 C912 1.408 . S
C909 C907 1.363 . S
C909 C910 1.370 . S
C909 C913 1.524 . S
C910 C902 1.503 . S
C910 C909 1.370 . S
C910 C911 1.403 . S
C911 C910 1.403 . S
C911 C912 1.404 . S
C911 C914 1.539 . S
C912 C908 1.408 . S
C912 C911 1.404 . S
C912 H924 0.930 . S
C913 C909 1.524 . S
C913 H925 0.956 . S
C913 H926 0.961 . S
C913 H927 0.961 . S
C914 C911 1.539 . S
C914 H928 0.958 . S
C914 H929 0.961 . S
C914 H930 0.960 . S
H915 C899 0.931 . S
H916 C904 0.929 . S
H917 C905 0.960 . S
H918 C905 0.962 . S
H919 C905 0.960 . S
H920 C906 0.961 . S
H921 C906 0.961 . S
H922 C906 0.961 . S
H923 C907 0.931 . S
H924 C912 0.930 . S
H925 C913 0.956 . S
H926 C913 0.961 . S
H927 C913 0.961 . S
H928 C914 0.958 . S
H929 C914 0.961 . S
H930 C914 0.960 . S
C931 C932 1.391 . S
C931 C933 1.394 . S
C931 H947 0.931 . S
C932 C931 1.391 . S
C932 C936 1.376 . S
C933 C931 1.394 . S
C933 C934 1.369 . S
C933 C937 1.531 . S
C934 C933 1.369 . S
C934 C935 1.410 . S
C934 C942 1.503 . S
C935 C934 1.410 . S
C935 C936 1.392 . S
C935 C938 1.511 . S
C936 C932 1.376 . S
C936 C935 1.392 . S
C936 H948 0.929 . S
C937 C933 1.531 . S
C937 H949 0.960 . S
C937 H950 0.962 . S
C937 H951 0.960 . S
C938 C935 1.511 . S
C938 H952 0.961 . S
C938 H953 0.961 . S
C938 H954 0.961 . S
C939 C940 1.370 . S
C939 C941 1.363 . S
C939 H955 0.931 . S
C940 C939 1.370 . S
C940 C944 1.408 . S
C941 C939 1.363 . S
C941 C942 1.370 . S
C941 C945 1.524 . S
C942 C934 1.503 . S
C942 C941 1.370 . S
C942 C943 1.403 . S
C943 C942 1.403 . S
C943 C944 1.404 . S
C943 C946 1.539 . S
C944 C940 1.408 . S
C944 C943 1.404 . S
C944 H956 0.930 . S
C945 C941 1.524 . S
C945 H957 0.956 . S
C945 H958 0.961 . S
C945 H959 0.961 . S
C946 C943 1.539 . S
C946 H960 0.958 . S
C946 H961 0.961 . S
C946 H962 0.960 . S
H947 C931 0.931 . S
H948 C936 0.929 . S
H949 C937 0.960 . S
H950 C937 0.962 . S
H951 C937 0.960 . S
H952 C938 0.961 . S
H953 C938 0.961 . S
H954 C938 0.961 . S
H955 C939 0.931 . S
H956 C944 0.930 . S
H957 C945 0.956 . S
H958 C945 0.961 . S
H959 C945 0.961 . S
H960 C946 0.958 . S
H961 C946 0.961 . S
H962 C946 0.960 . S
C963 C964 1.391 . S
C963 C965 1.394 . S
C963 H979 0.931 . S
C964 C963 1.391 . S
C964 C968 1.376 . S
C965 C963 1.394 . S
C965 C966 1.369 . S
C965 C969 1.531 . S
C966 C965 1.369 . S
C966 C967 1.410 . S
C966 C974 1.503 . S
C967 C966 1.410 . S
C967 C968 1.392 . S
C967 C970 1.511 . S
C968 C964 1.376 . S
C968 C967 1.392 . S
C968 H980 0.929 . S
C969 C965 1.531 . S
C969 H981 0.960 . S
C969 H982 0.962 . S
C969 H983 0.960 . S
C970 C967 1.511 . S
C970 H984 0.961 . S
C970 H985 0.961 . S
C970 H986 0.961 . S
C971 C972 1.370 . S
C971 C973 1.363 . S
C971 H987 0.931 . S
C972 C971 1.370 . S
C972 C976 1.408 . S
C973 C971 1.363 . S
C973 C974 1.370 . S
C973 C977 1.524 . S
C974 C966 1.503 . S
C974 C973 1.370 . S
C974 C975 1.403 . S
C975 C974 1.403 . S
C975 C976 1.404 . S
C975 C978 1.539 . S
C976 C972 1.408 . S
C976 C975 1.404 . S
C976 H988 0.930 . S
C977 C973 1.524 . S
C977 H989 0.956 . S
C977 H990 0.961 . S
C977 H991 0.961 . S
C978 C975 1.539 . S
C978 H992 0.958 . S
C978 H993 0.961 . S
C978 H994 0.960 . S
H979 C963 0.931 . S
H980 C968 0.929 . S
H981 C969 0.960 . S
H982 C969 0.962 . S
H983 C969 0.960 . S
H984 C970 0.961 . S
H985 C970 0.961 . S
H986 C970 0.961 . S
H987 C971 0.931 . S
H988 C976 0.930 . S
H989 C977 0.956 . S
H990 C977 0.961 . S
H991 C977 0.961 . S
H992 C978 0.958 . S
H993 C978 0.961 . S
H994 C978 0.960 . S
C995 C996 1.391 . S
C995 C997 1.394 . S
C995 H1011 0.931 . S
C996 C995 1.391 . S
C996 C1000 1.376 . S
C997 C995 1.394 . S
C997 C998 1.369 . S
C997 C1001 1.531 . S
C998 C997 1.369 . S
C998 C999 1.410 . S
C998 C1006 1.503 . S
C999 C998 1.410 . S
C999 C1000 1.392 . S
C999 C1002 1.511 . S
C1000 C996 1.376 . S
C1000 C999 1.392 . S
C1000 H1012 0.929 . S
C1001 C997 1.531 . S
C1001 H1013 0.960 . S
C1001 H1014 0.962 . S
C1001 H1015 0.960 . S
C1002 C999 1.511 . S
C1002 H1016 0.961 . S
C1002 H1017 0.961 . S
C1002 H1018 0.961 . S
C1003 C1004 1.370 . S
C1003 C1005 1.363 . S
C1003 H1019 0.931 . S
C1004 C1003 1.370 . S
C1004 C1008 1.408 . S
C1005 C1003 1.363 . S
C1005 C1006 1.370 . S
C1005 C1009 1.524 . S
C1006 C998 1.503 . S
C1006 C1005 1.370 . S
C1006 C1007 1.403 . S
C1007 C1006 1.403 . S
C1007 C1008 1.404 . S
C1007 C1010 1.539 . S
C1008 C1004 1.408 . S
C1008 C1007 1.404 . S
C1008 H1020 0.930 . S
C1009 C1005 1.524 . S
C1009 H1021 0.956 . S
C1009 H1022 0.961 . S
C1009 H1023 0.961 . S
C1010 C1007 1.539 . S
C1010 H1024 0.958 . S
C1010 H1025 0.961 . S
C1010 H1026 0.960 . S
H1011 C995 0.931 . S
H1012 C1000 0.929 . S
H1013 C1001 0.960 . S
H1014 C1001 0.962 . S
H1015 C1001 0.960 . S
H1016 C1002 0.961 . S
H1017 C1002 0.961 . S
H1018 C1002 0.961 . S
H1019 C1003 0.931 . S
H1020 C1008 0.930 . S
H1021 C1009 0.956 . S
H1022 C1009 0.961 . S
H1023 C1009 0.961 . S
H1024 C1010 0.958 . S
H1025 C1010 0.961 . S
H1026 C1010 0.960 . S
C1027 C1028 1.391 . S
C1027 C1029 1.394 . S
C1027 H1043 0.931 . S
C1028 C1027 1.391 . S
C1028 C1032 1.376 . S
C1029 C1027 1.394 . S
C1029 C1030 1.369 . S
C1029 C1033 1.531 . S
C1030 C1029 1.369 . S
C1030 C1031 1.410 . S
C1030 C1038 1.503 . S
C1031 C1030 1.410 . S
C1031 C1032 1.392 . S
C1031 C1034 1.511 . S
C1032 C1028 1.376 . S
C1032 C1031 1.392 . S
C1032 H1044 0.929 . S
C1033 C1029 1.531 . S
C1033 H1045 0.960 . S
C1033 H1046 0.962 . S
C1033 H1047 0.960 . S
C1034 C1031 1.511 . S
C1034 H1048 0.961 . S
C1034 H1049 0.961 . S
C1034 H1050 0.961 . S
C1035 C1036 1.370 . S
C1035 C1037 1.363 . S
C1035 H1051 0.931 . S
C1036 C1035 1.370 . S
C1036 C1040 1.408 . S
C1037 C1035 1.363 . S
C1037 C1038 1.370 . S
C1037 C1041 1.524 . S
C1038 C1030 1.503 . S
C1038 C1037 1.370 . S
C1038 C1039 1.403 . S
C1039 C1038 1.403 . S
C1039 C1040 1.404 . S
C1039 C1042 1.539 . S
C1040 C1036 1.408 . S
C1040 C1039 1.404 . S
C1040 H1052 0.930 . S
C1041 C1037 1.524 . S
C1041 H1053 0.956 . S
C1041 H1054 0.961 . S
C1041 H1055 0.961 . S
C1042 C1039 1.539 . S
C1042 H1056 0.958 . S
C1042 H1057 0.961 . S
C1042 H1058 0.960 . S
H1043 C1027 0.931 . S
H1044 C1032 0.929 . S
H1045 C1033 0.960 . S
H1046 C1033 0.962 . S
H1047 C1033 0.960 . S
H1048 C1034 0.961 . S
H1049 C1034 0.961 . S
H1050 C1034 0.961 . S
H1051 C1035 0.931 . S
H1052 C1040 0.930 . S
H1053 C1041 0.956 . S
H1054 C1041 0.961 . S
H1055 C1041 0.961 . S
H1056 C1042 0.958 . S
H1057 C1042 0.961 . S
H1058 C1042 0.960 . S
C1059 C1060 1.391 . S
C1059 C1061 1.394 1_545 S
C1059 H1075 0.931 . S
C1060 C1059 1.391 . S
C1060 C1064 1.376 . S
C1061 C1059 1.394 1_565 S
C1061 C1062 1.369 . S
C1061 C1065 1.531 . S
C1062 C1061 1.369 . S
C1062 C1063 1.410 . S
C1062 C1070 1.503 . S
C1063 C1062 1.410 . S
C1063 C1064 1.392 1_565 S
C1063 C1066 1.511 . S
C1064 C1060 1.376 . S
C1064 C1063 1.392 1_545 S
C1064 H1076 0.929 . S
C1065 C1061 1.531 . S
C1065 H1077 0.960 . S
C1065 H1078 0.962 . S
C1065 H1079 0.947 1_565 S
C1066 C1063 1.511 . S
C1066 H1080 0.961 . S
C1066 H1081 0.961 . S
C1066 H1082 0.961 . S
C1067 C1068 1.370 . S
C1067 C1069 1.363 . S
C1067 H1083 0.931 . S
C1068 C1067 1.370 . S
C1068 C1072 1.408 . S
C1069 C1067 1.363 . S
C1069 C1070 1.370 . S
C1069 C1073 1.524 . S
C1070 C1062 1.503 . S
C1070 C1069 1.370 . S
C1070 C1071 1.403 . S
C1071 C1070 1.403 . S
C1071 C1072 1.404 . S
C1071 C1074 1.539 . S
C1072 C1068 1.408 . S
C1072 C1071 1.404 . S
C1072 H1084 0.930 . S
C1073 C1069 1.524 . S
C1073 H1085 0.956 . S
C1073 H1086 0.961 . S
C1073 H1087 0.961 . S
C1074 C1071 1.539 . S
C1074 H1088 0.958 . S
C1074 H1089 0.961 . S
C1074 H1090 0.960 . S
H1075 C1059 0.931 . S
H1076 C1064 0.929 . S
H1077 C1065 0.960 . S
H1078 C1065 0.962 . S
H1079 C1065 0.947 1_545 S
H1080 C1066 0.961 . S
H1081 C1066 0.961 . S
H1082 C1066 0.961 . S
H1083 C1067 0.931 . S
H1084 C1072 0.930 . S
H1085 C1073 0.956 . S
H1086 C1073 0.961 . S
H1087 C1073 0.961 . S
H1088 C1074 0.958 . S
H1089 C1074 0.961 . S
H1090 C1074 0.960 . S
C1091 C1092 1.391 . S
C1091 C1093 1.394 1_655 S
C1091 H1107 0.931 . S
C1092 C1091 1.391 . S
C1092 C1096 1.376 . S
C1093 C1091 1.394 1_455 S
C1093 C1094 1.369 . S
C1093 C1097 1.531 . S
C1094 C1093 1.369 . S
C1094 C1095 1.410 . S
C1094 C1102 1.503 . S
C1095 C1094 1.410 . S
C1095 C1096 1.392 1_455 S
C1095 C1098 1.511 . S
C1096 C1092 1.376 . S
C1096 C1095 1.392 1_655 S
C1096 H1108 0.929 . S
C1097 C1093 1.531 . S
C1097 H1109 0.960 . S
C1097 H1110 0.962 . S
C1097 H1111 0.960 . S
C1098 C1095 1.511 . S
C1098 H1112 0.961 . S
C1098 H1113 0.961 . S
C1098 H1114 0.961 . S
C1099 C1100 1.370 . S
C1099 C1101 1.363 . S
C1099 H1115 0.931 . S
C1100 C1099 1.370 . S
C1100 C1104 1.408 . S
C1101 C1099 1.363 . S
C1101 C1102 1.370 . S
C1101 C1105 1.524 . S
C1102 C1094 1.503 . S
C1102 C1101 1.370 . S
C1102 C1103 1.403 . S
C1103 C1102 1.403 . S
C1103 C1104 1.404 . S
C1103 C1106 1.539 . S
C1104 C1100 1.408 . S
C1104 C1103 1.404 . S
C1104 H1116 0.930 . S
C1105 C1101 1.524 . S
C1105 H1117 0.956 . S
C1105 H1118 0.961 . S
C1105 H1119 0.961 . S
C1106 C1103 1.539 . S
C1106 H1120 0.958 . S
C1106 H1121 0.961 . S
C1106 H1122 0.960 . S
H1107 C1091 0.931 . S
H1108 C1096 0.929 . S
H1109 C1097 0.960 . S
H1110 C1097 0.962 . S
H1111 C1097 0.960 . S
H1112 C1098 0.961 . S
H1113 C1098 0.961 . S
H1114 C1098 0.961 . S
H1115 C1099 0.931 . S
H1116 C1104 0.930 . S
H1117 C1105 0.956 . S
H1118 C1105 0.961 . S
H1119 C1105 0.961 . S
H1120 C1106 0.958 . S
H1121 C1106 0.961 . S
H1122 C1106 0.960 . S
C1123 C1124 1.391 . S
C1123 C1125 1.394 . S
C1123 H1139 0.931 . S
C1124 C1123 1.391 . S
C1124 C1128 1.376 . S
C1125 C1123 1.394 . S
C1125 C1126 1.369 . S
C1125 C1129 1.531 . S
C1126 C1125 1.369 . S
C1126 C1127 1.410 . S
C1126 C1134 1.503 . S
C1127 C1126 1.410 . S
C1127 C1128 1.392 . S
C1127 C1130 1.511 . S
C1128 C1124 1.376 . S
C1128 C1127 1.392 . S
C1128 H1140 0.929 . S
C1129 C1125 1.531 . S
C1129 H1141 0.960 . S
C1129 H1142 0.962 . S
C1129 H1143 0.960 . S
C1130 C1127 1.511 . S
C1130 H1144 0.961 . S
C1130 H1145 0.961 . S
C1130 H1146 0.961 . S
C1131 C1132 1.370 . S
C1131 C1133 1.363 . S
C1131 H1147 0.931 . S
C1132 C1131 1.370 . S
C1132 C1136 1.408 . S
C1133 C1131 1.363 . S
C1133 C1134 1.370 . S
C1133 C1137 1.524 . S
C1134 C1126 1.503 . S
C1134 C1133 1.370 . S
C1134 C1135 1.403 . S
C1135 C1134 1.403 . S
C1135 C1136 1.404 . S
C1135 C1138 1.539 . S
C1136 C1132 1.408 . S
C1136 C1135 1.404 . S
C1136 H1148 0.930 . S
C1137 C1133 1.524 . S
C1137 H1149 0.956 . S
C1137 H1150 0.961 . S
C1137 H1151 0.961 . S
C1138 C1135 1.539 . S
C1138 H1152 0.958 . S
C1138 H1153 0.961 . S
C1138 H1154 0.960 . S
H1139 C1123 0.931 . S
H1140 C1128 0.929 . S
H1141 C1129 0.960 . S
H1142 C1129 0.962 . S
H1143 C1129 0.960 . S
H1144 C1130 0.961 . S
H1145 C1130 0.961 . S
H1146 C1130 0.961 . S
H1147 C1131 0.931 . S
H1148 C1136 0.930 . S
H1149 C1137 0.956 . S
H1150 C1137 0.961 . S
H1151 C1137 0.961 . S
H1152 C1138 0.958 . S
H1153 C1138 0.961 . S
H1154 C1138 0.960 . S
C1155 C1156 1.391 . S
C1155 C1157 1.394 . S
C1155 H1171 0.931 . S
C1156 C1155 1.391 . S
C1156 C1160 1.376 . S
C1157 C1155 1.394 . S
C1157 C1158 1.369 . S
C1157 C1161 1.531 . S
C1158 C1157 1.369 . S
C1158 C1159 1.410 . S
C1158 C1166 1.503 . S
C1159 C1158 1.410 . S
C1159 C1160 1.392 . S
C1159 C1162 1.511 . S
C1160 C1156 1.376 . S
C1160 C1159 1.392 . S
C1160 H1172 0.929 . S
C1161 C1157 1.531 . S
C1161 H1173 0.960 . S
C1161 H1174 0.962 . S
C1161 H1175 0.960 . S
C1162 C1159 1.511 . S
C1162 H1176 0.961 . S
C1162 H1177 0.961 . S
C1162 H1178 0.961 . S
C1163 C1164 1.370 . S
C1163 C1165 1.363 . S
C1163 H1179 0.931 . S
C1164 C1163 1.370 . S
C1164 C1168 1.408 . S
C1165 C1163 1.363 . S
C1165 C1166 1.370 . S
C1165 C1169 1.524 . S
C1166 C1158 1.503 . S
C1166 C1165 1.370 . S
C1166 C1167 1.403 . S
C1167 C1166 1.403 . S
C1167 C1168 1.404 . S
C1167 C1170 1.539 . S
C1168 C1164 1.408 . S
C1168 C1167 1.404 . S
C1168 H1180 0.930 . S
C1169 C1165 1.524 . S
C1169 H1181 0.956 . S
C1169 H1182 0.961 . S
C1169 H1183 0.961 . S
C1170 C1167 1.539 . S
C1170 H1184 0.958 . S
C1170 H1185 0.961 . S
C1170 H1186 0.960 . S
H1171 C1155 0.931 . S
H1172 C1160 0.929 . S
H1173 C1161 0.960 . S
H1174 C1161 0.962 . S
H1175 C1161 0.960 . S
H1176 C1162 0.961 . S
H1177 C1162 0.961 . S
H1178 C1162 0.961 . S
H1179 C1163 0.931 . S
H1180 C1168 0.930 . S
H1181 C1169 0.956 . S
H1182 C1169 0.961 . S
H1183 C1169 0.961 . S
H1184 C1170 0.958 . S
H1185 C1170 0.961 . S
H1186 C1170 0.960 . S
C1187 C1188 1.391 . S
C1187 C1189 1.394 . S
C1187 H1203 0.931 . S
C1188 C1187 1.391 . S
C1188 C1192 1.376 . S
C1189 C1187 1.394 . S
C1189 C1190 1.369 . S
C1189 C1193 1.531 . S
C1190 C1189 1.369 . S
C1190 C1191 1.410 . S
C1190 C1198 1.503 . S
C1191 C1190 1.410 . S
C1191 C1192 1.392 . S
C1191 C1194 1.511 . S
C1192 C1188 1.376 . S
C1192 C1191 1.392 . S
C1192 H1204 0.929 . S
C1193 C1189 1.531 . S
C1193 H1205 0.960 . S
C1193 H1206 0.962 . S
C1193 H1207 0.960 . S
C1194 C1191 1.511 . S
C1194 H1208 0.961 . S
C1194 H1209 0.961 . S
C1194 H1210 0.961 . S
C1195 C1196 1.370 . S
C1195 C1197 1.363 . S
C1195 H1211 0.931 . S
C1196 C1195 1.370 . S
C1196 C1200 1.408 . S
C1197 C1195 1.363 . S
C1197 C1198 1.370 . S
C1197 C1201 1.524 . S
C1198 C1190 1.503 . S
C1198 C1197 1.370 . S
C1198 C1199 1.403 . S
C1199 C1198 1.403 . S
C1199 C1200 1.404 . S
C1199 C1202 1.539 . S
C1200 C1196 1.408 . S
C1200 C1199 1.404 . S
C1200 H1212 0.930 . S
C1201 C1197 1.524 . S
C1201 H1213 0.956 . S
C1201 H1214 0.961 . S
C1201 H1215 0.961 . S
C1202 C1199 1.539 . S
C1202 H1216 0.958 . S
C1202 H1217 0.961 . S
C1202 H1218 0.960 . S
H1203 C1187 0.931 . S
H1204 C1192 0.929 . S
H1205 C1193 0.960 . S
H1206 C1193 0.962 . S
H1207 C1193 0.960 . S
H1208 C1194 0.961 . S
H1209 C1194 0.961 . S
H1210 C1194 0.961 . S
H1211 C1195 0.931 . S
H1212 C1200 0.930 . S
H1213 C1201 0.956 . S
H1214 C1201 0.961 . S
H1215 C1201 0.961 . S
H1216 C1202 0.958 . S
H1217 C1202 0.961 . S
H1218 C1202 0.960 . S
C1219 C1220 1.391 . S
C1219 C1221 1.394 . S
C1219 H1235 0.931 . S
C1220 C1219 1.391 . S
C1220 C1224 1.376 . S
C1221 C1219 1.394 . S
C1221 C1222 1.369 . S
C1221 C1225 1.531 . S
C1222 C1221 1.369 . S
C1222 C1223 1.410 . S
C1222 C1230 1.503 . S
C1223 C1222 1.410 . S
C1223 C1224 1.392 . S
C1223 C1226 1.511 . S
C1224 C1220 1.376 . S
C1224 C1223 1.392 . S
C1224 H1236 0.929 . S
C1225 C1221 1.531 . S
C1225 H1237 0.960 . S
C1225 H1238 0.962 . S
C1225 H1239 0.960 . S
C1226 C1223 1.511 . S
C1226 H1240 0.961 . S
C1226 H1241 0.961 . S
C1226 H1242 0.961 . S
C1227 C1228 1.370 . S
C1227 C1229 1.363 . S
C1227 H1243 0.931 . S
C1228 C1227 1.370 . S
C1228 C1232 1.408 . S
C1229 C1227 1.363 . S
C1229 C1230 1.370 . S
C1229 C1233 1.524 . S
C1230 C1222 1.503 . S
C1230 C1229 1.370 . S
C1230 C1231 1.403 . S
C1231 C1230 1.403 . S
C1231 C1232 1.404 . S
C1231 C1234 1.539 . S
C1232 C1228 1.408 . S
C1232 C1231 1.404 . S
C1232 H1244 0.930 . S
C1233 C1229 1.524 . S
C1233 H1245 0.956 . S
C1233 H1246 0.961 . S
C1233 H1247 0.961 . S
C1234 C1231 1.539 . S
C1234 H1248 0.958 . S
C1234 H1249 0.961 . S
C1234 H1250 0.960 . S
H1235 C1219 0.931 . S
H1236 C1224 0.929 . S
H1237 C1225 0.960 . S
H1238 C1225 0.962 . S
H1239 C1225 0.960 . S
H1240 C1226 0.961 . S
H1241 C1226 0.961 . S
H1242 C1226 0.961 . S
H1243 C1227 0.931 . S
H1244 C1232 0.930 . S
H1245 C1233 0.956 . S
H1246 C1233 0.961 . S
H1247 C1233 0.961 . S
H1248 C1234 0.958 . S
H1249 C1234 0.961 . S
H1250 C1234 0.960 . S
C1251 C1252 1.391 . S
C1251 C1253 1.394 . S
C1251 H1267 0.931 . S
C1252 C1251 1.391 . S
C1252 C1256 1.376 . S
C1253 C1251 1.394 . S
C1253 C1254 1.369 . S
C1253 C1257 1.531 1_565 S
C1254 C1253 1.369 . S
C1254 C1255 1.410 . S
C1254 C1262 1.503 1_565 S
C1255 C1254 1.410 . S
C1255 C1256 1.392 . S
C1255 C1258 1.511 . S
C1256 C1252 1.376 . S
C1256 C1255 1.392 . S
C1256 H1268 0.929 . S
C1257 C1253 1.531 1_545 S
C1257 H1269 0.960 . S
C1257 H1270 0.962 . S
C1257 H1271 0.960 1_545 S
C1258 C1255 1.511 . S
C1258 H1272 0.961 . S
C1258 H1273 0.961 . S
C1258 H1274 0.961 . S
C1259 C1260 1.370 . S
C1259 C1261 1.363 . S
C1259 H1275 0.931 . S
C1260 C1259 1.370 . S
C1260 C1264 1.408 . S
C1261 C1259 1.363 . S
C1261 C1262 1.370 . S
C1261 C1265 1.524 . S
C1262 C1254 1.503 1_545 S
C1262 C1261 1.370 . S
C1262 C1263 1.403 . S
C1263 C1262 1.403 . S
C1263 C1264 1.404 . S
C1263 C1266 1.539 . S
C1264 C1260 1.408 . S
C1264 C1263 1.404 . S
C1264 H1276 0.930 . S
C1265 C1261 1.524 . S
C1265 H1277 0.956 . S
C1265 H1278 0.961 . S
C1265 H1279 0.961 . S
C1266 C1263 1.539 . S
C1266 H1280 0.958 . S
C1266 H1281 0.961 . S
C1266 H1282 0.960 1_545 S
H1267 C1251 0.931 . S
H1268 C1256 0.929 . S
H1269 C1257 0.960 . S
H1270 C1257 0.962 . S
H1271 C1257 0.960 1_565 S
H1272 C1258 0.961 . S
H1273 C1258 0.961 . S
H1274 C1258 0.961 . S
H1275 C1259 0.931 . S
H1276 C1264 0.930 . S
H1277 C1265 0.956 . S
H1278 C1265 0.961 . S
H1279 C1265 0.961 . S
H1280 C1266 0.958 . S
H1281 C1266 0.961 . S
H1282 C1266 0.960 1_565 S
C1283 C1284 1.391 . S
C1283 C1285 1.394 . S
C1283 H1299 0.931 . S
C1284 C1283 1.391 . S
C1284 C1288 1.376 . S
C1285 C1283 1.394 . S
C1285 C1286 1.369 . S
C1285 C1289 1.531 . S
C1286 C1285 1.369 . S
C1286 C1287 1.410 . S
C1286 C1294 1.503 1_455 S
C1287 C1286 1.410 . S
C1287 C1288 1.392 . S
C1287 C1290 1.511 . S
C1288 C1284 1.376 . S
C1288 C1287 1.392 . S
C1288 H1300 0.929 . S
C1289 C1285 1.531 . S
C1289 H1301 0.931 1_455 S
C1289 H1302 0.962 . S
C1289 H1303 0.960 . S
C1290 C1287 1.511 . S
C1290 H1304 0.961 . S
C1290 H1305 0.961 . S
C1290 H1306 0.961 . S
C1291 C1292 1.370 . S
C1291 C1293 1.363 . S
C1291 H1307 0.931 . S
C1292 C1291 1.370 . S
C1292 C1296 1.408 . S
C1293 C1291 1.363 . S
C1293 C1294 1.370 . S
C1293 C1297 1.524 . S
C1294 C1286 1.503 1_655 S
C1294 C1293 1.370 . S
C1294 C1295 1.403 . S
C1295 C1294 1.403 . S
C1295 C1296 1.404 . S
C1295 C1298 1.539 1_655 S
C1296 C1292 1.408 . S
C1296 C1295 1.404 . S
C1296 H1308 0.930 . S
C1297 C1293 1.524 . S
C1297 H1309 0.956 . S
C1297 H1310 0.961 1_655 S
C1297 H1311 0.961 . S
C1298 C1295 1.539 1_455 S
C1298 H1312 0.958 . S
C1298 H1313 0.961 1_455 S
C1298 H1314 0.960 . S
H1299 C1283 0.931 . S
H1300 C1288 0.929 . S
H1301 C1289 0.931 1_655 S
H1302 C1289 0.962 . S
H1303 C1289 0.960 . S
H1304 C1290 0.961 . S
H1305 C1290 0.961 . S
H1306 C1290 0.961 . S
H1307 C1291 0.931 . S
H1308 C1296 0.930 . S
H1309 C1297 0.956 . S
H1310 C1297 0.961 1_455 S
H1311 C1297 0.961 . S
H1312 C1298 0.958 . S
H1313 C1298 0.961 1_655 S
H1314 C1298 0.960 . S
C1315 C1316 1.391 . S
C1315 C1317 1.394 . S
C1315 H1331 0.931 . S
C1316 C1315 1.391 . S
C1316 C1320 1.376 . S
C1317 C1315 1.394 . S
C1317 C1318 1.369 . S
C1317 C1321 1.531 . S
C1318 C1317 1.369 . S
C1318 C1319 1.410 . S
C1318 C1326 1.503 . S
C1319 C1318 1.410 . S
C1319 C1320 1.392 . S
C1319 C1322 1.511 . S
C1320 C1316 1.376 . S
C1320 C1319 1.392 . S
C1320 H1332 0.929 . S
C1321 C1317 1.531 . S
C1321 H1333 0.960 . S
C1321 H1334 0.962 . S
C1321 H1335 0.960 . S
C1322 C1319 1.511 . S
C1322 H1336 0.961 . S
C1322 H1337 0.961 . S
C1322 H1338 0.961 . S
C1323 C1324 1.370 . S
C1323 C1325 1.363 . S
C1323 H1339 0.931 . S
C1324 C1323 1.370 . S
C1324 C1328 1.408 . S
C1325 C1323 1.363 . S
C1325 C1326 1.370 . S
C1325 C1329 1.524 . S
C1326 C1318 1.503 . S
C1326 C1325 1.370 . S
C1326 C1327 1.403 . S
C1327 C1326 1.403 . S
C1327 C1328 1.404 . S
C1327 C1330 1.539 . S
C1328 C1324 1.408 . S
C1328 C1327 1.404 . S
C1328 H1340 0.930 . S
C1329 C1325 1.524 . S
C1329 H1341 0.956 . S
C1329 H1342 0.961 . S
C1329 H1343 0.961 . S
C1330 C1327 1.539 . S
C1330 H1344 0.958 . S
C1330 H1345 0.961 . S
C1330 H1346 0.960 . S
H1331 C1315 0.931 . S
H1332 C1320 0.929 . S
H1333 C1321 0.960 . S
H1334 C1321 0.962 . S
H1335 C1321 0.960 . S
H1336 C1322 0.961 . S
H1337 C1322 0.961 . S
H1338 C1322 0.961 . S
H1339 C1323 0.931 . S
H1340 C1328 0.930 . S
H1341 C1329 0.956 . S
H1342 C1329 0.961 . S
H1343 C1329 0.961 . S
H1344 C1330 0.958 . S
H1345 C1330 0.961 . S
H1346 C1330 0.960 . S
C1347 C1348 1.391 . S
C1347 C1349 1.394 . S
C1347 H1363 0.931 . S
C1348 C1347 1.391 . S
C1348 C1352 1.376 . S
C1349 C1347 1.394 . S
C1349 C1350 1.369 1_455 S
C1349 C1353 1.531 1_455 S
C1350 C1349 1.369 1_655 S
C1350 C1351 1.410 1_655 S
C1350 C1358 1.503 . S
C1351 C1350 1.410 1_455 S
C1351 C1352 1.392 . S
C1351 C1354 1.511 1_455 S
C1352 C1348 1.376 . S
C1352 C1351 1.392 . S
C1352 H1364 0.929 . S
C1353 C1349 1.531 1_655 S
C1353 H1365 0.960 . S
C1353 H1366 0.962 . S
C1353 H1367 0.960 . S
C1354 C1351 1.511 1_655 S
C1354 H1368 0.961 1_655 S
C1354 H1369 0.961 . S
C1354 H1370 0.961 . S
C1355 C1356 1.370 . S
C1355 C1357 1.363 . S
C1355 H1371 0.931 . S
C1356 C1355 1.370 . S
C1356 C1360 1.408 . S
C1357 C1355 1.363 . S
C1357 C1358 1.370 . S
C1357 C1361 1.524 . S
C1358 C1350 1.503 . S
C1358 C1357 1.370 . S
C1358 C1359 1.403 . S
C1359 C1358 1.403 . S
C1359 C1360 1.404 . S
C1359 C1362 1.539 . S
C1360 C1356 1.408 . S
C1360 C1359 1.404 . S
C1360 H1372 0.930 . S
C1361 C1357 1.524 . S
C1361 H1373 0.956 . S
C1361 H1374 0.961 . S
C1361 H1375 0.961 . S
C1362 C1359 1.539 . S
C1362 H1376 0.958 . S
C1362 H1377 0.961 . S
C1362 H1378 0.960 . S
H1363 C1347 0.931 . S
H1364 C1352 0.929 . S
H1365 C1353 0.960 . S
H1366 C1353 0.962 . S
H1367 C1353 0.960 . S
H1368 C1354 0.961 1_455 S
H1369 C1354 0.961 . S
H1370 C1354 0.961 . S
H1371 C1355 0.931 . S
H1372 C1360 0.930 . S
H1373 C1361 0.956 . S
H1374 C1361 0.961 . S
H1375 C1361 0.961 . S
H1376 C1362 0.958 . S
H1377 C1362 0.961 . S
H1378 C1362 0.960 . S
C1379 C1380 1.391 . S
C1379 C1381 1.394 . S
C1379 H1395 0.931 . S
C1380 C1379 1.391 . S
C1380 C1384 1.376 . S
C1381 C1379 1.394 . S
C1381 C1382 1.369 . S
C1381 C1385 1.531 . S
C1382 C1381 1.369 . S
C1382 C1383 1.410 . S
C1382 C1390 1.503 . S
C1383 C1382 1.410 . S
C1383 C1384 1.392 . S
C1383 C1386 1.511 . S
C1384 C1380 1.376 . S
C1384 C1383 1.392 . S
C1384 H1396 0.929 . S
C1385 C1381 1.531 . S
C1385 H1397 0.960 . S
C1385 H1398 0.962 . S
C1385 H1399 0.960 . S
C1386 C1383 1.511 . S
C1386 H1400 0.961 . S
C1386 H1401 0.961 . S
C1386 H1402 0.961 . S
C1387 C1388 1.370 . S
C1387 C1389 1.363 . S
C1387 H1403 0.931 . S
C1388 C1387 1.370 . S
C1388 C1392 1.408 . S
C1389 C1387 1.363 . S
C1389 C1390 1.370 . S
C1389 C1393 1.524 . S
C1390 C1382 1.503 . S
C1390 C1389 1.370 . S
C1390 C1391 1.403 . S
C1391 C1390 1.403 . S
C1391 C1392 1.404 . S
C1391 C1394 1.539 . S
C1392 C1388 1.408 . S
C1392 C1391 1.404 . S
C1392 H1404 0.930 . S
C1393 C1389 1.524 . S
C1393 H1405 0.956 . S
C1393 H1406 0.961 . S
C1393 H1407 0.961 . S
C1394 C1391 1.539 . S
C1394 H1408 0.958 . S
C1394 H1409 0.961 . S
C1394 H1410 0.960 . S
H1395 C1379 0.931 . S
H1396 C1384 0.929 . S
H1397 C1385 0.960 . S
H1398 C1385 0.962 . S
H1399 C1385 0.960 . S
H1400 C1386 0.961 . S
H1401 C1386 0.961 . S
H1402 C1386 0.961 . S
H1403 C1387 0.931 . S
H1404 C1392 0.930 . S
H1405 C1393 0.956 . S
H1406 C1393 0.961 . S
H1407 C1393 0.961 . S
H1408 C1394 0.958 . S
H1409 C1394 0.961 . S
H1410 C1394 0.960 . S
C1411 C1412 1.391 . S
C1411 C1413 1.394 1_565 S
C1411 H1427 0.931 . S
C1412 C1411 1.391 . S
C1412 C1416 1.376 . S
C1413 C1411 1.394 1_545 S
C1413 C1414 1.369 . S
C1413 C1417 1.531 . S
C1414 C1413 1.369 . S
C1414 C1415 1.410 . S
C1414 C1422 1.503 . S
C1415 C1414 1.410 . S
C1415 C1416 1.392 1_545 S
C1415 C1418 1.511 . S
C1416 C1412 1.376 . S
C1416 C1415 1.392 1_565 S
C1416 H1428 0.929 . S
C1417 C1413 1.531 . S
C1417 H1429 0.960 . S
C1417 H1430 0.962 . S
C1417 H1431 0.960 . S
C1418 C1415 1.511 . S
C1418 H1432 0.961 . S
C1418 H1433 0.961 . S
C1418 H1434 0.961 . S
C1419 C1420 1.370 . S
C1419 C1421 1.363 . S
C1419 H1435 0.931 . S
C1420 C1419 1.370 . S
C1420 C1424 1.408 . S
C1421 C1419 1.363 . S
C1421 C1422 1.370 . S
C1421 C1425 1.524 . S
C1422 C1414 1.503 . S
C1422 C1421 1.370 . S
C1422 C1423 1.403 . S
C1423 C1422 1.403 . S
C1423 C1424 1.404 . S
C1423 C1426 1.539 . S
C1424 C1420 1.408 . S
C1424 C1423 1.404 . S
C1424 H1436 0.930 . S
C1425 C1421 1.524 . S
C1425 H1437 0.956 . S
C1425 H1438 0.961 . S
C1425 H1439 0.961 . S
C1426 C1423 1.539 . S
C1426 H1440 0.958 . S
C1426 H1441 0.961 . S
C1426 H1442 0.960 . S
H1427 C1411 0.931 . S
H1428 C1416 0.929 . S
H1429 C1417 0.960 . S
H1430 C1417 0.962 . S
H1431 C1417 0.960 . S
H1432 C1418 0.961 . S
H1433 C1418 0.961 . S
H1434 C1418 0.961 . S
H1435 C1419 0.931 . S
H1436 C1424 0.930 . S
H1437 C1425 0.956 . S
H1438 C1425 0.961 . S
H1439 C1425 0.961 . S
H1440 C1426 0.958 . S
H1441 C1426 0.961 . S
H1442 C1426 0.960 . S
C1443 C1444 1.391 . S
C1443 C1445 1.394 . S
C1443 H1459 0.931 . S
C1444 C1443 1.391 . S
C1444 C1448 1.376 . S
C1445 C1443 1.394 . S
C1445 C1446 1.369 . S
C1445 C1449 1.531 . S
C1446 C1445 1.369 . S
C1446 C1447 1.410 . S
C1446 C1454 1.503 . S
C1447 C1446 1.410 . S
C1447 C1448 1.392 . S
C1447 C1450 1.511 . S
C1448 C1444 1.376 . S
C1448 C1447 1.392 . S
C1448 H1460 0.929 . S
C1449 C1445 1.531 . S
C1449 H1461 0.960 . S
C1449 H1462 0.962 . S
C1449 H1463 0.960 . S
C1450 C1447 1.511 . S
C1450 H1464 0.961 . S
C1450 H1465 0.961 . S
C1450 H1466 0.961 . S
C1451 C1452 1.370 . S
C1451 C1453 1.363 . S
C1451 H1467 0.931 . S
C1452 C1451 1.370 . S
C1452 C1456 1.408 . S
C1453 C1451 1.363 . S
C1453 C1454 1.370 . S
C1453 C1457 1.524 . S
C1454 C1446 1.503 . S
C1454 C1453 1.370 . S
C1454 C1455 1.403 . S
C1455 C1454 1.403 . S
C1455 C1456 1.404 . S
C1455 C1458 1.539 . S
C1456 C1452 1.408 . S
C1456 C1455 1.404 . S
C1456 H1468 0.930 . S
C1457 C1453 1.524 . S
C1457 H1469 0.956 . S
C1457 H1470 0.961 . S
C1457 H1471 0.961 . S
C1458 C1455 1.539 . S
C1458 H1472 0.958 . S
C1458 H1473 0.961 . S
C1458 H1474 0.960 . S
H1459 C1443 0.931 . S
H1460 C1448 0.929 . S
H1461 C1449 0.960 . S
H1462 C1449 0.962 . S
H1463 C1449 0.960 . S
H1464 C1450 0.961 . S
H1465 C1450 0.961 . S
H1466 C1450 0.961 . S
H1467 C1451 0.931 . S
H1468 C1456 0.930 . S
H1469 C1457 0.956 . S
H1470 C1457 0.961 . S
H1471 C1457 0.961 . S
H1472 C1458 0.958 . S
H1473 C1458 0.961 . S
H1474 C1458 0.960 . S
C1475 C1476 1.391 . S
C1475 C1477 1.394 . S
C1475 H1491 0.931 . S
C1476 C1475 1.391 . S
C1476 C1480 1.376 . S
C1477 C1475 1.394 . S
C1477 C1478 1.369 . S
C1477 C1481 1.531 . S
C1478 C1477 1.369 . S
C1478 C1479 1.410 . S
C1478 C1486 1.503 . S
C1479 C1478 1.410 . S
C1479 C1480 1.392 . S
C1479 C1482 1.511 . S
C1480 C1476 1.376 . S
C1480 C1479 1.392 . S
C1480 H1492 0.929 . S
C1481 C1477 1.531 . S
C1481 H1493 0.960 . S
C1481 H1494 0.962 . S
C1481 H1495 0.960 . S
C1482 C1479 1.511 . S
C1482 H1496 0.961 . S
C1482 H1497 0.961 . S
C1482 H1498 0.961 . S
C1483 C1484 1.370 . S
C1483 C1485 1.363 . S
C1483 H1499 0.931 . S
C1484 C1483 1.370 . S
C1484 C1488 1.408 . S
C1485 C1483 1.363 . S
C1485 C1486 1.370 . S
C1485 C1489 1.524 . S
C1486 C1478 1.503 . S
C1486 C1485 1.370 . S
C1486 C1487 1.403 . S
C1487 C1486 1.403 . S
C1487 C1488 1.404 . S
C1487 C1490 1.539 . S
C1488 C1484 1.408 . S
C1488 C1487 1.404 . S
C1488 H1500 0.930 . S
C1489 C1485 1.524 . S
C1489 H1501 0.956 . S
C1489 H1502 0.961 . S
C1489 H1503 0.961 . S
C1490 C1487 1.539 . S
C1490 H1504 0.958 . S
C1490 H1505 0.961 . S
C1490 H1506 0.960 . S
H1491 C1475 0.931 . S
H1492 C1480 0.929 . S
H1493 C1481 0.960 . S
H1494 C1481 0.962 . S
H1495 C1481 0.960 . S
H1496 C1482 0.961 . S
H1497 C1482 0.961 . S
H1498 C1482 0.961 . S
H1499 C1483 0.931 . S
H1500 C1488 0.930 . S
H1501 C1489 0.956 . S
H1502 C1489 0.961 . S
H1503 C1489 0.961 . S
H1504 C1490 0.958 . S
H1505 C1490 0.961 . S
H1506 C1490 0.960 . S
C1507 C1508 1.391 . S
C1507 C1509 1.394 . S
C1507 H1523 0.931 . S
C1508 C1507 1.391 . S
C1508 C1512 1.376 . S
C1509 C1507 1.394 . S
C1509 C1510 1.369 . S
C1509 C1513 1.531 . S
C1510 C1509 1.369 . S
C1510 C1511 1.410 . S
C1510 C1518 1.503 . S
C1511 C1510 1.410 . S
C1511 C1512 1.392 . S
C1511 C1514 1.511 . S
C1512 C1508 1.376 . S
C1512 C1511 1.392 . S
C1512 H1524 0.929 . S
C1513 C1509 1.531 . S
C1513 H1525 0.960 . S
C1513 H1526 0.962 . S
C1513 H1527 0.960 . S
C1514 C1511 1.511 . S
C1514 H1528 0.961 . S
C1514 H1529 0.961 . S
C1514 H1530 0.961 . S
C1515 C1516 1.370 . S
C1515 C1517 1.363 . S
C1515 H1531 0.931 . S
C1516 C1515 1.370 . S
C1516 C1520 1.408 . S
C1517 C1515 1.363 . S
C1517 C1518 1.370 . S
C1517 C1521 1.524 . S
C1518 C1510 1.503 . S
C1518 C1517 1.370 . S
C1518 C1519 1.403 . S
C1519 C1518 1.403 . S
C1519 C1520 1.404 . S
C1519 C1522 1.539 . S
C1520 C1516 1.408 . S
C1520 C1519 1.404 . S
C1520 H1532 0.930 . S
C1521 C1517 1.524 . S
C1521 H1533 0.956 . S
C1521 H1534 0.961 . S
C1521 H1535 0.961 . S
C1522 C1519 1.539 . S
C1522 H1536 0.958 . S
C1522 H1537 0.961 . S
C1522 H1538 0.960 . S
H1523 C1507 0.931 . S
H1524 C1512 0.929 . S
H1525 C1513 0.960 . S
H1526 C1513 0.962 . S
H1527 C1513 0.960 . S
H1528 C1514 0.961 . S
H1529 C1514 0.961 . S
H1530 C1514 0.961 . S
H1531 C1515 0.931 . S
H1532 C1520 0.930 . S
H1533 C1521 0.956 . S
H1534 C1521 0.961 . S
H1535 C1521 0.961 . S
H1536 C1522 0.958 . S
H1537 C1522 0.961 . S
H1538 C1522 0.960 . S
C1539 C1540 1.391 . S
C1539 C1541 1.394 . S
C1539 H1555 0.931 . S
C1540 C1539 1.391 . S
C1540 C1544 1.376 . S
C1541 C1539 1.394 . S
C1541 C1542 1.369 . S
C1541 C1545 1.531 . S
C1542 C1541 1.369 . S
C1542 C1543 1.410 . S
C1542 C1550 1.503 . S
C1543 C1542 1.410 . S
C1543 C1544 1.392 . S
C1543 C1546 1.511 . S
C1544 C1540 1.376 . S
C1544 C1543 1.392 . S
C1544 H1556 0.929 . S
C1545 C1541 1.531 . S
C1545 H1557 0.960 . S
C1545 H1558 0.962 . S
C1545 H1559 0.960 . S
C1546 C1543 1.511 . S
C1546 H1560 0.961 . S
C1546 H1561 0.961 . S
C1546 H1562 0.961 . S
C1547 C1548 1.370 1_545 S
C1547 C1549 1.363 1_545 S
C1547 H1563 0.931 . S
C1548 C1547 1.370 1_565 S
C1548 C1552 1.408 . S
C1549 C1547 1.363 1_565 S
C1549 C1550 1.370 . S
C1549 C1553 1.524 1_565 S
C1550 C1542 1.503 . S
C1550 C1549 1.370 . S
C1550 C1551 1.403 . S
C1551 C1550 1.403 . S
C1551 C1552 1.404 . S
C1551 C1554 1.539 . S
C1552 C1548 1.408 . S
C1552 C1551 1.404 . S
C1552 H1564 0.930 . S
C1553 C1549 1.524 1_545 S
C1553 H1565 0.956 . S
C1553 H1566 0.961 . S
C1553 H1567 0.961 . S
C1554 C1551 1.539 . S
C1554 H1568 0.958 . S
C1554 H1569 0.961 . S
C1554 H1570 0.960 . S
H1555 C1539 0.931 . S
H1556 C1544 0.929 . S
H1557 C1545 0.960 . S
H1558 C1545 0.962 . S
H1559 C1545 0.960 . S
H1560 C1546 0.961 . S
H1561 C1546 0.961 . S
H1562 C1546 0.961 . S
H1563 C1547 0.931 . S
H1564 C1552 0.930 . S
H1565 C1553 0.956 . S
H1566 C1553 0.961 . S
H1567 C1553 0.961 . S
H1568 C1554 0.958 . S
H1569 C1554 0.961 . S
H1570 C1554 0.960 . S
C1571 C1572 1.391 . S
C1571 C1573 1.394 . S
C1571 H1587 0.931 . S
C1572 C1571 1.391 . S
C1572 C1576 1.376 . S
C1573 C1571 1.394 . S
C1573 C1574 1.369 . S
C1573 C1577 1.531 . S
C1574 C1573 1.369 . S
C1574 C1575 1.410 . S
C1574 C1582 1.503 . S
C1575 C1574 1.410 . S
C1575 C1576 1.392 . S
C1575 C1578 1.511 . S
C1576 C1572 1.376 . S
C1576 C1575 1.392 . S
C1576 H1588 0.929 . S
C1577 C1573 1.531 . S
C1577 H1589 0.960 . S
C1577 H1590 0.962 . S
C1577 H1591 0.960 . S
C1578 C1575 1.511 . S
C1578 H1592 0.961 . S
C1578 H1593 0.961 . S
C1578 H1594 0.961 . S
C1579 C1580 1.370 . S
C1579 C1581 1.363 . S
C1579 H1595 0.931 . S
C1580 C1579 1.370 . S
C1580 C1584 1.408 . S
C1581 C1579 1.363 . S
C1581 C1582 1.370 . S
C1581 C1585 1.524 . S
C1582 C1574 1.503 . S
C1582 C1581 1.370 . S
C1582 C1583 1.403 . S
C1583 C1582 1.403 . S
C1583 C1584 1.404 . S
C1583 C1586 1.539 . S
C1584 C1580 1.408 . S
C1584 C1583 1.404 . S
C1584 H1596 0.930 . S
C1585 C1581 1.524 . S
C1585 H1597 0.956 . S
C1585 H1598 0.961 . S
C1585 H1599 0.961 . S
C1586 C1583 1.539 . S
C1586 H1600 0.958 . S
C1586 H1601 0.961 . S
C1586 H1602 0.960 . S
H1587 C1571 0.931 . S
H1588 C1576 0.929 . S
H1589 C1577 0.960 . S
H1590 C1577 0.962 . S
H1591 C1577 0.960 . S
H1592 C1578 0.961 . S
H1593 C1578 0.961 . S
H1594 C1578 0.961 . S
H1595 C1579 0.931 . S
H1596 C1584 0.930 . S
H1597 C1585 0.956 . S
H1598 C1585 0.961 . S
H1599 C1585 0.961 . S
H1600 C1586 0.958 . S
H1601 C1586 0.961 . S
H1602 C1586 0.960 . S
C1603 C1604 1.391 . S
C1603 C1605 1.394 . S
C1603 H1619 0.931 . S
C1604 C1603 1.391 . S
C1604 C1608 1.376 . S
C1605 C1603 1.394 . S
C1605 C1606 1.369 . S
C1605 C1609 1.531 . S
C1606 C1605 1.369 . S
C1606 C1607 1.410 . S
C1606 C1614 1.503 . S
C1607 C1606 1.410 . S
C1607 C1608 1.392 . S
C1607 C1610 1.511 . S
C1608 C1604 1.376 . S
C1608 C1607 1.392 . S
C1608 H1620 0.929 . S
C1609 C1605 1.531 . S
C1609 H1621 0.960 . S
C1609 H1622 0.962 . S
C1609 H1623 0.960 . S
C1610 C1607 1.511 . S
C1610 H1624 0.961 . S
C1610 H1625 0.961 . S
C1610 H1626 0.961 . S
C1611 C1612 1.370 . S
C1611 C1613 1.363 . S
C1611 H1627 0.931 . S
C1612 C1611 1.370 . S
C1612 C1616 1.408 . S
C1613 C1611 1.363 . S
C1613 C1614 1.370 . S
C1613 C1617 1.524 . S
C1614 C1606 1.503 . S
C1614 C1613 1.370 . S
C1614 C1615 1.403 . S
C1615 C1614 1.403 . S
C1615 C1616 1.404 . S
C1615 C1618 1.539 . S
C1616 C1612 1.408 . S
C1616 C1615 1.404 . S
C1616 H1628 0.930 . S
C1617 C1613 1.524 . S
C1617 H1629 0.956 . S
C1617 H1630 0.961 . S
C1617 H1631 0.961 . S
C1618 C1615 1.539 . S
C1618 H1632 0.958 . S
C1618 H1633 0.961 . S
C1618 H1634 0.960 . S
H1619 C1603 0.931 . S
H1620 C1608 0.929 . S
H1621 C1609 0.960 . S
H1622 C1609 0.962 . S
H1623 C1609 0.960 . S
H1624 C1610 0.961 . S
H1625 C1610 0.961 . S
H1626 C1610 0.961 . S
H1627 C1611 0.931 . S
H1628 C1616 0.930 . S
H1629 C1617 0.956 . S
H1630 C1617 0.961 . S
H1631 C1617 0.961 . S
H1632 C1618 0.958 . S
H1633 C1618 0.961 . S
H1634 C1618 0.960 . S
C1635 C1636 1.391 . S
C1635 C1637 1.394 . S
C1635 H1651 0.931 . S
C1636 C1635 1.391 . S
C1636 C1640 1.376 . S
C1637 C1635 1.394 . S
C1637 C1638 1.369 . S
C1637 C1641 1.531 . S
C1638 C1637 1.369 . S
C1638 C1639 1.410 . S
C1638 C1646 1.503 . S
C1639 C1638 1.410 . S
C1639 C1640 1.392 . S
C1639 C1642 1.511 1_655 S
C1640 C1636 1.376 . S
C1640 C1639 1.392 . S
C1640 H1652 0.929 . S
C1641 C1637 1.531 . S
C1641 H1653 0.960 . S
C1641 H1654 0.962 . S
C1641 H1655 0.960 . S
C1642 C1639 1.511 1_455 S
C1642 H1656 0.961 . S
C1642 H1657 0.961 . S
C1642 H1658 0.961 . S
C1643 C1644 1.370 . S
C1643 C1645 1.363 . S
C1643 H1659 0.931 . S
C1644 C1643 1.370 . S
C1644 C1648 1.408 . S
C1645 C1643 1.363 . S
C1645 C1646 1.370 . S
C1645 C1649 1.524 . S
C1646 C1638 1.503 . S
C1646 C1645 1.370 . S
C1646 C1647 1.403 . S
C1647 C1646 1.403 . S
C1647 C1648 1.404 . S
C1647 C1650 1.539 . S
C1648 C1644 1.408 . S
C1648 C1647 1.404 . S
C1648 H1660 0.930 . S
C1649 C1645 1.524 . S
C1649 H1661 0.956 . S
C1649 H1662 0.961 . S
C1649 H1663 0.961 . S
C1650 C1647 1.539 . S
C1650 H1664 0.958 . S
C1650 H1665 0.954 1_655 S
C1650 H1666 0.960 . S
H1651 C1635 0.931 . S
H1652 C1640 0.929 . S
H1653 C1641 0.960 . S
H1654 C1641 0.962 . S
H1655 C1641 0.960 . S
H1656 C1642 0.961 . S
H1657 C1642 0.961 . S
H1658 C1642 0.961 . S
H1659 C1643 0.931 . S
H1660 C1648 0.930 . S
H1661 C1649 0.956 . S
H1662 C1649 0.961 . S
H1663 C1649 0.961 . S
H1664 C1650 0.958 . S
H1665 C1650 0.954 1_455 S
H1666 C1650 0.960 . S
C1667 C1668 1.391 . S
C1667 C1669 1.394 . S
C1667 H1683 0.931 . S
C1668 C1667 1.391 . S
C1668 C1672 1.376 . S
C1669 C1667 1.394 . S
C1669 C1670 1.369 . S
C1669 C1673 1.531 . S
C1670 C1669 1.369 . S
C1670 C1671 1.410 . S
C1670 C1678 1.503 . S
C1671 C1670 1.410 . S
C1671 C1672 1.392 . S
C1671 C1674 1.511 . S
C1672 C1668 1.376 . S
C1672 C1671 1.392 . S
C1672 H1684 0.929 . S
C1673 C1669 1.531 . S
C1673 H1685 0.960 . S
C1673 H1686 0.962 . S
C1673 H1687 0.960 . S
C1674 C1671 1.511 . S
C1674 H1688 0.961 . S
C1674 H1689 0.961 . S
C1674 H1690 0.961 . S
C1675 C1676 1.370 . S
C1675 C1677 1.363 . S
C1675 H1691 0.931 . S
C1676 C1675 1.370 . S
C1676 C1680 1.408 . S
C1677 C1675 1.363 . S
C1677 C1678 1.370 . S
C1677 C1681 1.524 . S
C1678 C1670 1.503 . S
C1678 C1677 1.370 . S
C1678 C1679 1.403 . S
C1679 C1678 1.403 . S
C1679 C1680 1.404 . S
C1679 C1682 1.539 . S
C1680 C1676 1.408 . S
C1680 C1679 1.404 . S
C1680 H1692 0.930 . S
C1681 C1677 1.524 . S
C1681 H1693 0.956 . S
C1681 H1694 0.961 . S
C1681 H1695 0.961 . S
C1682 C1679 1.539 . S
C1682 H1696 0.958 . S
C1682 H1697 0.961 . S
C1682 H1698 0.960 . S
H1683 C1667 0.931 . S
H1684 C1672 0.929 . S
H1685 C1673 0.960 . S
H1686 C1673 0.962 . S
H1687 C1673 0.960 . S
H1688 C1674 0.961 . S
H1689 C1674 0.961 . S
H1690 C1674 0.961 . S
H1691 C1675 0.931 . S
H1692 C1680 0.930 . S
H1693 C1681 0.956 . S
H1694 C1681 0.961 . S
H1695 C1681 0.961 . S
H1696 C1682 0.958 . S
H1697 C1682 0.961 . S
H1698 C1682 0.960 . S
C1699 C1700 1.391 . S
C1699 C1701 1.394 . S
C1699 H1715 0.931 . S
C1700 C1699 1.391 . S
C1700 C1704 1.376 . S
C1701 C1699 1.394 . S
C1701 C1702 1.369 . S
C1701 C1705 1.531 . S
C1702 C1701 1.369 . S
C1702 C1703 1.410 . S
C1702 C1710 1.503 . S
C1703 C1702 1.410 . S
C1703 C1704 1.392 . S
C1703 C1706 1.511 . S
C1704 C1700 1.376 . S
C1704 C1703 1.392 . S
C1704 H1716 0.929 . S
C1705 C1701 1.531 . S
C1705 H1717 0.960 . S
C1705 H1718 0.961 1_545 S
C1705 H1719 0.960 . S
C1706 C1703 1.511 . S
C1706 H1720 0.961 . S
C1706 H1721 0.961 . S
C1706 H1722 0.961 . S
C1707 C1708 1.370 . S
C1707 C1709 1.363 . S
C1707 H1723 0.931 . S
C1708 C1707 1.370 . S
C1708 C1712 1.408 . S
C1709 C1707 1.363 . S
C1709 C1710 1.370 . S
C1709 C1713 1.524 . S
C1710 C1702 1.503 . S
C1710 C1709 1.370 . S
C1710 C1711 1.403 . S
C1711 C1710 1.403 . S
C1711 C1712 1.404 . S
C1711 C1714 1.539 . S
C1712 C1708 1.408 . S
C1712 C1711 1.404 . S
C1712 H1724 0.930 . S
C1713 C1709 1.524 . S
C1713 H1725 0.956 . S
C1713 H1726 0.961 . S
C1713 H1727 0.961 . S
C1714 C1711 1.539 . S
C1714 H1728 0.958 . S
C1714 H1729 0.961 . S
C1714 H1730 0.960 . S
H1715 C1699 0.931 . S
H1716 C1704 0.929 . S
H1717 C1705 0.960 . S
H1718 C1705 0.961 1_565 S
H1719 C1705 0.960 . S
H1720 C1706 0.961 . S
H1721 C1706 0.961 . S
H1722 C1706 0.961 . S
H1723 C1707 0.931 . S
H1724 C1712 0.930 . S
H1725 C1713 0.956 . S
H1726 C1713 0.961 . S
H1727 C1713 0.961 . S
H1728 C1714 0.958 . S
H1729 C1714 0.961 . S
H1730 C1714 0.960 . S
C1731 C1732 1.391 . S
C1731 C1733 1.394 . S
C1731 H1747 0.931 . S
C1732 C1731 1.391 . S
C1732 C1736 1.376 . S
C1733 C1731 1.394 . S
C1733 C1734 1.369 . S
C1733 C1737 1.531 . S
C1734 C1733 1.369 . S
C1734 C1735 1.410 . S
C1734 C1742 1.503 . S
C1735 C1734 1.410 . S
C1735 C1736 1.392 . S
C1735 C1738 1.511 . S
C1736 C1732 1.376 . S
C1736 C1735 1.392 . S
C1736 H1748 0.929 . S
C1737 C1733 1.531 . S
C1737 H1749 0.960 . S
C1737 H1750 0.962 . S
C1737 H1751 0.960 . S
C1738 C1735 1.511 . S
C1738 H1752 0.961 . S
C1738 H1753 0.961 . S
C1738 H1754 0.961 . S
C1739 C1740 1.370 . S
C1739 C1741 1.363 . S
C1739 H1755 0.931 . S
C1740 C1739 1.370 . S
C1740 C1744 1.408 . S
C1741 C1739 1.363 . S
C1741 C1742 1.370 . S
C1741 C1745 1.524 . S
C1742 C1734 1.503 . S
C1742 C1741 1.370 . S
C1742 C1743 1.403 . S
C1743 C1742 1.403 . S
C1743 C1744 1.404 . S
C1743 C1746 1.539 . S
C1744 C1740 1.408 . S
C1744 C1743 1.404 . S
C1744 H1756 0.930 . S
C1745 C1741 1.524 . S
C1745 H1757 0.956 . S
C1745 H1758 0.961 . S
C1745 H1759 0.961 . S
C1746 C1743 1.539 . S
C1746 H1760 0.958 . S
C1746 H1761 0.961 . S
C1746 H1762 0.960 . S
H1747 C1731 0.931 . S
H1748 C1736 0.929 . S
H1749 C1737 0.960 . S
H1750 C1737 0.962 . S
H1751 C1737 0.960 . S
H1752 C1738 0.961 . S
H1753 C1738 0.961 . S
H1754 C1738 0.961 . S
H1755 C1739 0.931 . S
H1756 C1744 0.930 . S
H1757 C1745 0.956 . S
H1758 C1745 0.961 . S
H1759 C1745 0.961 . S
H1760 C1746 0.958 . S
H1761 C1746 0.961 . S
H1762 C1746 0.960 . S
C1763 C1764 1.391 . S
C1763 C1765 1.394 . S
C1763 H1779 0.931 . S
C1764 C1763 1.391 . S
C1764 C1768 1.376 . S
C1765 C1763 1.394 . S
C1765 C1766 1.369 . S
C1765 C1769 1.531 . S
C1766 C1765 1.369 . S
C1766 C1767 1.410 . S
C1766 C1774 1.503 . S
C1767 C1766 1.410 . S
C1767 C1768 1.392 . S
C1767 C1770 1.511 . S
C1768 C1764 1.376 . S
C1768 C1767 1.392 . S
C1768 H1780 0.929 . S
C1769 C1765 1.531 . S
C1769 H1781 0.960 . S
C1769 H1782 0.962 . S
C1769 H1783 0.960 . S
C1770 C1767 1.511 . S
C1770 H1784 0.961 . S
C1770 H1785 0.961 . S
C1770 H1786 0.961 . S
C1771 C1772 1.370 . S
C1771 C1773 1.363 . S
C1771 H1787 0.931 . S
C1772 C1771 1.370 . S
C1772 C1776 1.408 . S
C1773 C1771 1.363 . S
C1773 C1774 1.370 . S
C1773 C1777 1.524 . S
C1774 C1766 1.503 . S
C1774 C1773 1.370 . S
C1774 C1775 1.403 . S
C1775 C1774 1.403 . S
C1775 C1776 1.404 . S
C1775 C1778 1.539 . S
C1776 C1772 1.408 . S
C1776 C1775 1.404 . S
C1776 H1788 0.930 . S
C1777 C1773 1.524 . S
C1777 H1789 0.956 . S
C1777 H1790 0.961 . S
C1777 H1791 0.961 . S
C1778 C1775 1.539 . S
C1778 H1792 0.958 . S
C1778 H1793 0.961 . S
C1778 H1794 0.960 . S
H1779 C1763 0.931 . S
H1780 C1768 0.929 . S
H1781 C1769 0.960 . S
H1782 C1769 0.962 . S
H1783 C1769 0.960 . S
H1784 C1770 0.961 . S
H1785 C1770 0.961 . S
H1786 C1770 0.961 . S
H1787 C1771 0.931 . S
H1788 C1776 0.930 . S
H1789 C1777 0.956 . S
H1790 C1777 0.961 . S
H1791 C1777 0.961 . S
H1792 C1778 0.958 . S
H1793 C1778 0.961 . S
H1794 C1778 0.960 . S
C1795 C1796 1.391 . S
C1795 C1797 1.394 . S
C1795 H1811 0.931 . S
C1796 C1795 1.391 . S
C1796 C1800 1.376 . S
C1797 C1795 1.394 . S
C1797 C1798 1.369 . S
C1797 C1801 1.531 . S
C1798 C1797 1.369 . S
C1798 C1799 1.410 . S
C1798 C1806 1.503 . S
C1799 C1798 1.410 . S
C1799 C1800 1.392 . S
C1799 C1802 1.511 . S
C1800 C1796 1.376 . S
C1800 C1799 1.392 . S
C1800 H1812 0.929 . S
C1801 C1797 1.531 . S
C1801 H1813 0.960 . S
C1801 H1814 0.962 . S
C1801 H1815 0.960 . S
C1802 C1799 1.511 . S
C1802 H1816 0.961 . S
C1802 H1817 0.961 . S
C1802 H1818 0.961 . S
C1803 C1804 1.370 . S
C1803 C1805 1.363 . S
C1803 H1819 0.931 . S
C1804 C1803 1.370 . S
C1804 C1808 1.408 . S
C1805 C1803 1.363 . S
C1805 C1806 1.370 . S
C1805 C1809 1.524 . S
C1806 C1798 1.503 . S
C1806 C1805 1.370 . S
C1806 C1807 1.403 . S
C1807 C1806 1.403 . S
C1807 C1808 1.404 . S
C1807 C1810 1.539 . S
C1808 C1804 1.408 . S
C1808 C1807 1.404 . S
C1808 H1820 0.930 . S
C1809 C1805 1.524 . S
C1809 H1821 0.956 . S
C1809 H1822 0.961 . S
C1809 H1823 0.961 . S
C1810 C1807 1.539 . S
C1810 H1824 0.958 . S
C1810 H1825 0.961 . S
C1810 H1826 0.960 . S
H1811 C1795 0.931 . S
H1812 C1800 0.929 . S
H1813 C1801 0.960 . S
H1814 C1801 0.962 . S
H1815 C1801 0.960 . S
H1816 C1802 0.961 . S
H1817 C1802 0.961 . S
H1818 C1802 0.961 . S
H1819 C1803 0.931 . S
H1820 C1808 0.930 . S
H1821 C1809 0.956 . S
H1822 C1809 0.961 . S
H1823 C1809 0.961 . S
H1824 C1810 0.958 . S
H1825 C1810 0.961 . S
H1826 C1810 0.960 . S
C1827 C1828 1.391 . S
C1827 C1829 1.394 . S
C1827 H1843 0.931 . S
C1828 C1827 1.391 . S
C1828 C1832 1.376 . S
C1829 C1827 1.394 . S
C1829 C1830 1.369 . S
C1829 C1833 1.531 . S
C1830 C1829 1.369 . S
C1830 C1831 1.410 . S
C1830 C1838 1.503 . S
C1831 C1830 1.410 . S
C1831 C1832 1.392 . S
C1831 C1834 1.511 . S
C1832 C1828 1.376 . S
C1832 C1831 1.392 . S
C1832 H1844 0.929 . S
C1833 C1829 1.531 . S
C1833 H1845 0.960 . S
C1833 H1846 0.962 . S
C1833 H1847 0.960 . S
C1834 C1831 1.511 . S
C1834 H1848 0.961 . S
C1834 H1849 0.961 . S
C1834 H1850 0.961 . S
C1835 C1836 1.370 . S
C1835 C1837 1.363 . S
C1835 H1851 0.931 . S
C1836 C1835 1.370 . S
C1836 C1840 1.408 . S
C1837 C1835 1.363 . S
C1837 C1838 1.370 . S
C1837 C1841 1.524 . S
C1838 C1830 1.503 . S
C1838 C1837 1.370 . S
C1838 C1839 1.403 . S
C1839 C1838 1.403 . S
C1839 C1840 1.404 . S
C1839 C1842 1.539 . S
C1840 C1836 1.408 . S
C1840 C1839 1.404 . S
C1840 H1852 0.930 . S
C1841 C1837 1.524 . S
C1841 H1853 0.956 . S
C1841 H1854 0.961 . S
C1841 H1855 0.961 . S
C1842 C1839 1.539 . S
C1842 H1856 0.958 . S
C1842 H1857 0.961 . S
C1842 H1858 0.960 . S
H1843 C1827 0.931 . S
H1844 C1832 0.929 . S
H1845 C1833 0.960 . S
H1846 C1833 0.962 . S
H1847 C1833 0.960 . S
H1848 C1834 0.961 . S
H1849 C1834 0.961 . S
H1850 C1834 0.961 . S
H1851 C1835 0.931 . S
H1852 C1840 0.930 . S
H1853 C1841 0.956 . S
H1854 C1841 0.961 . S
H1855 C1841 0.961 . S
H1856 C1842 0.958 . S
H1857 C1842 0.961 . S
H1858 C1842 0.960 . S
C1859 C1860 1.391 . S
C1859 C1861 1.394 . S
C1859 H1875 0.931 . S
C1860 C1859 1.391 . S
C1860 C1864 1.376 . S
C1861 C1859 1.394 . S
C1861 C1862 1.369 . S
C1861 C1865 1.531 . S
C1862 C1861 1.369 . S
C1862 C1863 1.410 . S
C1862 C1870 1.503 . S
C1863 C1862 1.410 . S
C1863 C1864 1.392 . S
C1863 C1866 1.511 . S
C1864 C1860 1.376 . S
C1864 C1863 1.392 . S
C1864 H1876 0.929 . S
C1865 C1861 1.531 . S
C1865 H1877 0.960 . S
C1865 H1878 0.962 . S
C1865 H1879 0.960 . S
C1866 C1863 1.511 . S
C1866 H1880 0.961 . S
C1866 H1881 0.961 . S
C1866 H1882 0.961 . S
C1867 C1868 1.370 . S
C1867 C1869 1.363 . S
C1867 H1883 0.931 . S
C1868 C1867 1.370 . S
C1868 C1872 1.408 . S
C1869 C1867 1.363 . S
C1869 C1870 1.370 . S
C1869 C1873 1.524 . S
C1870 C1862 1.503 . S
C1870 C1869 1.370 . S
C1870 C1871 1.403 . S
C1871 C1870 1.403 . S
C1871 C1872 1.404 . S
C1871 C1874 1.539 . S
C1872 C1868 1.408 . S
C1872 C1871 1.404 . S
C1872 H1884 0.930 . S
C1873 C1869 1.524 . S
C1873 H1885 0.956 . S
C1873 H1886 0.961 . S
C1873 H1887 0.961 . S
C1874 C1871 1.539 . S
C1874 H1888 0.958 . S
C1874 H1889 0.961 . S
C1874 H1890 0.960 . S
H1875 C1859 0.931 . S
H1876 C1864 0.929 . S
H1877 C1865 0.960 . S
H1878 C1865 0.962 . S
H1879 C1865 0.960 . S
H1880 C1866 0.961 . S
H1881 C1866 0.961 . S
H1882 C1866 0.961 . S
H1883 C1867 0.931 . S
H1884 C1872 0.930 . S
H1885 C1873 0.956 . S
H1886 C1873 0.961 . S
H1887 C1873 0.961 . S
H1888 C1874 0.958 . S
H1889 C1874 0.961 . S
H1890 C1874 0.960 . S
C1891 C1892 1.391 . S
C1891 C1893 1.394 . S
C1891 H1907 0.931 . S
C1892 C1891 1.391 . S
C1892 C1896 1.376 . S
C1893 C1891 1.394 . S
C1893 C1894 1.369 . S
C1893 C1897 1.531 . S
C1894 C1893 1.369 . S
C1894 C1895 1.410 . S
C1894 C1902 1.503 . S
C1895 C1894 1.410 . S
C1895 C1896 1.392 . S
C1895 C1898 1.511 . S
C1896 C1892 1.376 . S
C1896 C1895 1.392 . S
C1896 H1908 0.929 . S
C1897 C1893 1.531 . S
C1897 H1909 0.960 . S
C1897 H1910 0.962 . S
C1897 H1911 0.960 . S
C1898 C1895 1.511 . S
C1898 H1912 0.961 . S
C1898 H1913 0.961 . S
C1898 H1914 0.961 . S
C1899 C1900 1.370 . S
C1899 C1901 1.363 . S
C1899 H1915 0.931 . S
C1900 C1899 1.370 . S
C1900 C1904 1.408 . S
C1901 C1899 1.363 . S
C1901 C1902 1.370 . S
C1901 C1905 1.524 . S
C1902 C1894 1.503 . S
C1902 C1901 1.370 . S
C1902 C1903 1.403 . S
C1903 C1902 1.403 . S
C1903 C1904 1.404 . S
C1903 C1906 1.539 . S
C1904 C1900 1.408 . S
C1904 C1903 1.404 . S
C1904 H1916 0.930 . S
C1905 C1901 1.524 . S
C1905 H1917 0.956 . S
C1905 H1918 0.961 . S
C1905 H1919 0.961 . S
C1906 C1903 1.539 . S
C1906 H1920 0.958 . S
C1906 H1921 0.961 . S
C1906 H1922 0.960 . S
H1907 C1891 0.931 . S
H1908 C1896 0.929 . S
H1909 C1897 0.960 . S
H1910 C1897 0.962 . S
H1911 C1897 0.960 . S
H1912 C1898 0.961 . S
H1913 C1898 0.961 . S
H1914 C1898 0.961 . S
H1915 C1899 0.931 . S
H1916 C1904 0.930 . S
H1917 C1905 0.956 . S
H1918 C1905 0.961 . S
H1919 C1905 0.961 . S
H1920 C1906 0.958 . S
H1921 C1906 0.961 . S
H1922 C1906 0.960 . S
C1923 C1924 1.391 . S
C1923 C1925 1.394 . S
C1923 H1939 0.931 . S
C1924 C1923 1.391 . S
C1924 C1928 1.376 . S
C1925 C1923 1.394 . S
C1925 C1926 1.369 . S
C1925 C1929 1.531 . S
C1926 C1925 1.369 . S
C1926 C1927 1.410 . S
C1926 C1934 1.503 . S
C1927 C1926 1.410 . S
C1927 C1928 1.392 . S
C1927 C1930 1.511 . S
C1928 C1924 1.376 . S
C1928 C1927 1.392 . S
C1928 H1940 0.929 . S
C1929 C1925 1.531 . S
C1929 H1941 0.960 . S
C1929 H1942 0.962 . S
C1929 H1943 0.960 . S
C1930 C1927 1.511 . S
C1930 H1944 0.961 . S
C1930 H1945 0.961 . S
C1930 H1946 0.961 . S
C1931 C1932 1.370 . S
C1931 C1933 1.363 . S
C1931 H1947 0.931 . S
C1932 C1931 1.370 . S
C1932 C1936 1.408 . S
C1933 C1931 1.363 . S
C1933 C1934 1.370 . S
C1933 C1937 1.524 . S
C1934 C1926 1.503 . S
C1934 C1933 1.370 . S
C1934 C1935 1.403 . S
C1935 C1934 1.403 . S
C1935 C1936 1.404 . S
C1935 C1938 1.539 . S
C1936 C1932 1.408 . S
C1936 C1935 1.404 . S
C1936 H1948 0.930 . S
C1937 C1933 1.524 . S
C1937 H1949 0.956 . S
C1937 H1950 0.961 . S
C1937 H1951 0.961 . S
C1938 C1935 1.539 . S
C1938 H1952 0.958 . S
C1938 H1953 0.961 . S
C1938 H1954 0.960 . S
H1939 C1923 0.931 . S
H1940 C1928 0.929 . S
H1941 C1929 0.960 . S
H1942 C1929 0.962 . S
H1943 C1929 0.960 . S
H1944 C1930 0.961 . S
H1945 C1930 0.961 . S
H1946 C1930 0.961 . S
H1947 C1931 0.931 . S
H1948 C1936 0.930 . S
H1949 C1937 0.956 . S
H1950 C1937 0.961 . S
H1951 C1937 0.961 . S
H1952 C1938 0.958 . S
H1953 C1938 0.961 . S
H1954 C1938 0.960 . S
C1955 C1956 1.391 . S
C1955 C1957 1.394 . S
C1955 H1971 0.931 . S
C1956 C1955 1.391 . S
C1956 C1960 1.376 . S
C1957 C1955 1.394 . S
C1957 C1958 1.369 . S
C1957 C1961 1.531 . S
C1958 C1957 1.369 . S
C1958 C1959 1.410 . S
C1958 C1966 1.503 . S
C1959 C1958 1.410 . S
C1959 C1960 1.392 . S
C1959 C1962 1.511 . S
C1960 C1956 1.376 . S
C1960 C1959 1.392 . S
C1960 H1972 0.929 . S
C1961 C1957 1.531 . S
C1961 H1973 0.960 . S
C1961 H1974 0.962 . S
C1961 H1975 0.960 . S
C1962 C1959 1.511 . S
C1962 H1976 0.961 . S
C1962 H1977 0.961 . S
C1962 H1978 0.961 . S
C1963 C1964 1.370 . S
C1963 C1965 1.363 . S
C1963 H1979 0.931 . S
C1964 C1963 1.370 . S
C1964 C1968 1.408 . S
C1965 C1963 1.363 . S
C1965 C1966 1.370 . S
C1965 C1969 1.524 . S
C1966 C1958 1.503 . S
C1966 C1965 1.370 . S
C1966 C1967 1.403 . S
C1967 C1966 1.403 . S
C1967 C1968 1.404 . S
C1967 C1970 1.539 . S
C1968 C1964 1.408 . S
C1968 C1967 1.404 . S
C1968 H1980 0.930 . S
C1969 C1965 1.524 . S
C1969 H1981 0.956 . S
C1969 H1982 0.961 . S
C1969 H1983 0.961 . S
C1970 C1967 1.539 . S
C1970 H1984 0.958 . S
C1970 H1985 0.961 . S
C1970 H1986 0.960 . S
H1971 C1955 0.931 . S
H1972 C1960 0.929 . S
H1973 C1961 0.960 . S
H1974 C1961 0.962 . S
H1975 C1961 0.960 . S
H1976 C1962 0.961 . S
H1977 C1962 0.961 . S
H1978 C1962 0.961 . S
H1979 C1963 0.931 . S
H1980 C1968 0.930 . S
H1981 C1969 0.956 . S
H1982 C1969 0.961 . S
H1983 C1969 0.961 . S
H1984 C1970 0.958 . S
H1985 C1970 0.961 . S
H1986 C1970 0.960 . S
C1987 C1988 1.391 . S
C1987 C1989 1.394 . S
C1987 H2003 0.931 . S
C1988 C1987 1.391 . S
C1988 C1992 1.376 . S
C1989 C1987 1.394 . S
C1989 C1990 1.369 . S
C1989 C1993 1.531 . S
C1990 C1989 1.369 . S
C1990 C1991 1.410 . S
C1990 C1998 1.503 . S
C1991 C1990 1.410 . S
C1991 C1992 1.392 . S
C1991 C1994 1.511 . S
C1992 C1988 1.376 . S
C1992 C1991 1.392 . S
C1992 H2004 0.929 . S
C1993 C1989 1.531 . S
C1993 H2005 0.960 . S
C1993 H2006 0.962 . S
C1993 H2007 0.960 . S
C1994 C1991 1.511 . S
C1994 H2008 0.961 . S
C1994 H2009 0.961 . S
C1994 H2010 0.961 . S
C1995 C1996 1.370 . S
C1995 C1997 1.363 . S
C1995 H2011 0.931 . S
C1996 C1995 1.370 . S
C1996 C2000 1.408 . S
C1997 C1995 1.363 . S
C1997 C1998 1.370 . S
C1997 C2001 1.524 . S
C1998 C1990 1.503 . S
C1998 C1997 1.370 . S
C1998 C1999 1.403 . S
C1999 C1998 1.403 . S
C1999 C2000 1.404 . S
C1999 C2002 1.539 . S
C2000 C1996 1.408 . S
C2000 C1999 1.404 . S
C2000 H2012 0.930 . S
C2001 C1997 1.524 . S
C2001 H2013 0.956 . S
C2001 H2014 0.961 . S
C2001 H2015 0.961 . S
C2002 C1999 1.539 . S
C2002 H2016 0.958 . S
C2002 H2017 0.961 . S
C2002 H2018 0.960 . S
H2003 C1987 0.931 . S
H2004 C1992 0.929 . S
H2005 C1993 0.960 . S
H2006 C1993 0.962 . S
H2007 C1993 0.960 . S
H2008 C1994 0.961 . S
H2009 C1994 0.961 . S
H2010 C1994 0.961 . S
H2011 C1995 0.931 . S
H2012 C2000 0.930 . S
H2013 C2001 0.956 . S
H2014 C2001 0.961 . S
H2015 C2001 0.961 . S
H2016 C2002 0.958 . S
H2017 C2002 0.961 . S
H2018 C2002 0.960 . S
C2019 C2020 1.391 . S
C2019 C2021 1.394 . S
C2019 H2035 0.931 . S
C2020 C2019 1.391 . S
C2020 C2024 1.376 . S
C2021 C2019 1.394 . S
C2021 C2022 1.369 . S
C2021 C2025 1.531 . S
C2022 C2021 1.369 . S
C2022 C2023 1.410 . S
C2022 C2030 1.503 . S
C2023 C2022 1.410 . S
C2023 C2024 1.392 . S
C2023 C2026 1.511 . S
C2024 C2020 1.376 . S
C2024 C2023 1.392 . S
C2024 H2036 0.929 . S
C2025 C2021 1.531 . S
C2025 H2037 0.960 . S
C2025 H2038 0.962 . S
C2025 H2039 0.960 . S
C2026 C2023 1.511 . S
C2026 H2040 0.961 . S
C2026 H2041 0.961 . S
C2026 H2042 0.961 . S
C2027 C2028 1.370 . S
C2027 C2029 1.363 . S
C2027 H2043 0.931 . S
C2028 C2027 1.370 . S
C2028 C2032 1.408 . S
C2029 C2027 1.363 . S
C2029 C2030 1.370 . S
C2029 C2033 1.524 . S
C2030 C2022 1.503 . S
C2030 C2029 1.370 . S
C2030 C2031 1.403 . S
C2031 C2030 1.403 . S
C2031 C2032 1.404 . S
C2031 C2034 1.539 . S
C2032 C2028 1.408 . S
C2032 C2031 1.404 . S
C2032 H2044 0.930 . S
C2033 C2029 1.524 . S
C2033 H2045 0.956 . S
C2033 H2046 0.961 . S
C2033 H2047 0.961 . S
C2034 C2031 1.539 . S
C2034 H2048 0.958 . S
C2034 H2049 0.961 . S
C2034 H2050 0.960 . S
H2035 C2019 0.931 . S
H2036 C2024 0.929 . S
H2037 C2025 0.960 . S
H2038 C2025 0.962 . S
H2039 C2025 0.960 . S
H2040 C2026 0.961 . S
H2041 C2026 0.961 . S
H2042 C2026 0.961 . S
H2043 C2027 0.931 . S
H2044 C2032 0.930 . S
H2045 C2033 0.956 . S
H2046 C2033 0.961 . S
H2047 C2033 0.961 . S
H2048 C2034 0.958 . S
H2049 C2034 0.961 . S
H2050 C2034 0.960 . S
C2051 C2052 1.391 . S
C2051 C2053 1.394 . S
C2051 H2067 0.931 . S
C2052 C2051 1.391 . S
C2052 C2056 1.376 . S
C2053 C2051 1.394 . S
C2053 C2054 1.369 . S
C2053 C2057 1.531 . S
C2054 C2053 1.369 . S
C2054 C2055 1.410 . S
C2054 C2062 1.503 . S
C2055 C2054 1.410 . S
C2055 C2056 1.392 . S
C2055 C2058 1.511 . S
C2056 C2052 1.376 . S
C2056 C2055 1.392 . S
C2056 H2068 0.929 . S
C2057 C2053 1.531 . S
C2057 H2069 0.960 . S
C2057 H2070 0.962 . S
C2057 H2071 0.960 . S
C2058 C2055 1.511 . S
C2058 H2072 0.961 . S
C2058 H2073 0.961 . S
C2058 H2074 0.961 . S
C2059 C2060 1.370 . S
C2059 C2061 1.363 . S
C2059 H2075 0.931 . S
C2060 C2059 1.370 . S
C2060 C2064 1.408 . S
C2061 C2059 1.363 . S
C2061 C2062 1.370 . S
C2061 C2065 1.524 . S
C2062 C2054 1.503 . S
C2062 C2061 1.370 . S
C2062 C2063 1.403 . S
C2063 C2062 1.403 . S
C2063 C2064 1.404 . S
C2063 C2066 1.539 . S
C2064 C2060 1.408 . S
C2064 C2063 1.404 . S
C2064 H2076 0.930 . S
C2065 C2061 1.524 . S
C2065 H2077 0.956 . S
C2065 H2078 0.961 . S
C2065 H2079 0.961 . S
C2066 C2063 1.539 . S
C2066 H2080 0.958 . S
C2066 H2081 0.961 . S
C2066 H2082 0.960 . S
H2067 C2051 0.931 . S
H2068 C2056 0.929 . S
H2069 C2057 0.960 . S
H2070 C2057 0.962 . S
H2071 C2057 0.960 . S
H2072 C2058 0.961 . S
H2073 C2058 0.961 . S
H2074 C2058 0.961 . S
H2075 C2059 0.931 . S
H2076 C2064 0.930 . S
H2077 C2065 0.956 . S
H2078 C2065 0.961 . S
H2079 C2065 0.961 . S
H2080 C2066 0.958 . S
H2081 C2066 0.961 . S
H2082 C2066 0.960 . S
C2083 C2084 1.391 . S
C2083 C2085 1.394 . S
C2083 H2099 0.931 . S
C2084 C2083 1.391 . S
C2084 C2088 1.376 . S
C2085 C2083 1.394 . S
C2085 C2086 1.369 . S
C2085 C2089 1.531 . S
C2086 C2085 1.369 . S
C2086 C2087 1.410 . S
C2086 C2094 1.503 . S
C2087 C2086 1.410 . S
C2087 C2088 1.392 . S
C2087 C2090 1.511 . S
C2088 C2084 1.376 . S
C2088 C2087 1.392 . S
C2088 H2100 0.929 . S
C2089 C2085 1.531 . S
C2089 H2101 0.960 . S
C2089 H2102 0.962 . S
C2089 H2103 0.960 . S
C2090 C2087 1.511 . S
C2090 H2104 0.961 . S
C2090 H2105 0.961 . S
C2090 H2106 0.961 . S
C2091 C2092 1.370 . S
C2091 C2093 1.363 . S
C2091 H2107 0.931 . S
C2092 C2091 1.370 . S
C2092 C2096 1.408 . S
C2093 C2091 1.363 . S
C2093 C2094 1.370 . S
C2093 C2097 1.524 . S
C2094 C2086 1.503 . S
C2094 C2093 1.370 . S
C2094 C2095 1.403 . S
C2095 C2094 1.403 . S
C2095 C2096 1.404 . S
C2095 C2098 1.539 . S
C2096 C2092 1.408 . S
C2096 C2095 1.404 . S
C2096 H2108 0.930 . S
C2097 C2093 1.524 . S
C2097 H2109 0.956 . S
C2097 H2110 0.961 . S
C2097 H2111 0.961 . S
C2098 C2095 1.539 . S
C2098 H2112 0.958 . S
C2098 H2113 0.961 . S
C2098 H2114 0.960 . S
H2099 C2083 0.931 . S
H2100 C2088 0.929 . S
H2101 C2089 0.960 . S
H2102 C2089 0.962 . S
H2103 C2089 0.960 . S
H2104 C2090 0.961 . S
H2105 C2090 0.961 . S
H2106 C2090 0.961 . S
H2107 C2091 0.931 . S
H2108 C2096 0.930 . S
H2109 C2097 0.956 . S
H2110 C2097 0.961 . S
H2111 C2097 0.961 . S
H2112 C2098 0.958 . S
H2113 C2098 0.961 . S
H2114 C2098 0.960 . S
C388 C147 1.407 . S
C396 C212 1.414 . S
C420 C158 1.430 . S
C428 C233 1.393 . S
C452 C136 1.362 . S
C460 C253 1.214 . S
C484 C125 1.349 . S
C492 C232 1.243 . S
C524 C254 1.401 . S
C516 C103 1.447 1_554 S
C548 C114 1.367 . S
C556 C211 1.261 . S
C588 C213 1.392 . S
C580 C131 1.452 . S
C620 C234 1.384 . S
C612 C109 1.399 . S
C644 C120 1.498 . S
C652 C256 1.289 . S
C676 C153 1.433 . S
C684 C235 1.280 1_554 S
C708 C164 1.422 . S
C716 C255 1.398 . S
C748 C214 1.299 1_554 S
C740 C142 1.462 . S
C780 C275 1.405 . S
C772 C15 1.445 . S
C804 C26 1.413 . S
C812 C296 1.373 . S
C836 C4 1.391 . S
C844 C316 1.206 . S
C868 C191 1.343 . S
C876 C295 1.242 . S
C900 C169 1.434 . S
C908 C317 1.390 . S
C932 C180 1.407 . S
C940 C274 1.229 . S
C964 C197 1.467 . S
C972 C276 1.412 . S
C996 C175 1.393 . S
C1004 C297 1.386 . S
C1036 C319 1.289 . S
C1028 C186 1.458 . S
C1060 C21 1.493 . S
C1068 C298 1.252 . S
C1100 C318 1.372 . S
C1092 C32 1.422 . S
C1124 C10 1.468 . S
C1132 C277 1.261 . S
C1164 C338 1.400 . S
C1156 C81 1.404 . S
C1188 C92 1.415 . S
C1196 C359 1.399 . S
C1228 C379 1.203 . S
C1220 C70 1.385 . S
C1260 C358 1.192 . S
C1252 C59 1.381 . S
C1292 C380 1.395 . S
C1284 C37 1.443 . S
C1316 C48 1.360 . S
C1324 C337 1.258 . S
C1348 C65 1.422 . S
C1356 C339 1.407 . S
C1380 C43 1.452 . S
C1388 C360 1.413 . S
C1420 C382 1.245 . S
C1412 C54 1.508 . S
C1444 C87 1.459 . S
C1452 C361 1.286 . S
C1476 C98 1.384 . S
C1484 C381 1.375 . S
C1508 C76 1.511 . S
C1516 C340 1.259 . S
C1540 C170 1.479 . S
C1548 C216 1.475 . S
C1580 C237 1.517 . S
C1572 C181 1.527 . S
C1604 C192 1.537 . S
C1612 C257 1.508 . S
C1636 C71 1.601 . S
C1644 C236 1.567 . S
C1668 C82 1.540 . S
C1676 C258 1.531 . S
C1708 C215 1.519 . S
C1700 C93 1.585 . S
C1732 C38 1.502 . S
C1740 C279 1.485 . S
C1764 C49 1.514 . S
C1772 C300 1.509 . S
C1796 C60 1.560 . S
C1804 C320 1.485 . S
C1828 C137 1.620 . S
C1836 C299 1.547 . S
C1868 C321 1.541 . S
C1860 C148 1.551 . S
C1892 C159 1.562 . S
C1900 C278 1.541 . S
C1924 C104 1.502 . S
C1932 C342 1.486 . S
C1956 C115 1.524 . S
C1964 C363 1.510 . S
C1996 C383 1.497 . S
C1988 C126 1.545 . S
C2020 C5 1.598 . S
C2028 C362 1.568 . S
C2052 C16 1.551 . S
C2060 C384 1.538 . S
C2084 C27 1.588 . S
C2092 C341 1.517 . S
