# Generated by pormake.
# Topology pyr, (3,6)-cn, num edge types: 1
# Building blocks:
#     Node 0, Type 0, BuildingBlock: BETDIP_clean_linker_0, # of connection points: 3
#     Node 1, Type 0, BuildingBlock: BETDIP_clean_linker_0, # of connection points: 3
#     Node 2, Type 0, BuildingBlock: BETDIP_clean_linker_0, # of connection points: 3
#     Node 3, Type 0, BuildingBlock: BETDIP_clean_linker_0, # of connection points: 3
#     Node 4, Type 0, BuildingBlock: BETDIP_clean_linker_0, # of connection points: 3
#     Node 5, Type 0, BuildingBlock: BETDIP_clean_linker_0, # of connection points: 3
#     Node 6, Type 0, BuildingBlock: BETDIP_clean_linker_0, # of connection points: 3
#     Node 7, Type 0, BuildingBlock: BETDIP_clean_linker_0, # of connection points: 3
#     Node 8, Type 1, BuildingBlock: BETDAH_clean_sbu_0, # of connection points: 6
#     Node 9, Type 1, BuildingBlock: BETDAH_clean_sbu_0, # of connection points: 6
#     Node 10, Type 1, BuildingBlock: BETDAH_clean_sbu_0, # of connection points: 6
#     Node 11, Type 1, BuildingBlock: BETDAH_clean_sbu_0, # of connection points: 6
#     Edge 12, Type (0, 1), BuildingBlock: TEMPAE_clean_linker_10, # of connection points: 2
#     Edge 13, Type (0, 1), BuildingBlock: TEMPAE_clean_linker_10, # of connection points: 2
#     Edge 14, Type (0, 1), BuildingBlock: TEMPAE_clean_linker_10, # of connection points: 2
#     Edge 15, Type (0, 1), BuildingBlock: TEMPAE_clean_linker_10, # of connection points: 2
#     Edge 16, Type (0, 1), BuildingBlock: TEMPAE_clean_linker_10, # of connection points: 2
#     Edge 17, Type (0, 1), BuildingBlock: TEMPAE_clean_linker_10, # of connection points: 2
#     Edge 18, Type (0, 1), BuildingBlock: TEMPAE_clean_linker_10, # of connection points: 2
#     Edge 19, Type (0, 1), BuildingBlock: TEMPAE_clean_linker_10, # of connection points: 2
#     Edge 20, Type (0, 1), BuildingBlock: TEMPAE_clean_linker_10, # of connection points: 2
#     Edge 21, Type (0, 1), BuildingBlock: TEMPAE_clean_linker_10, # of connection points: 2
#     Edge 22, Type (0, 1), BuildingBlock: TEMPAE_clean_linker_10, # of connection points: 2
#     Edge 23, Type (0, 1), BuildingBlock: TEMPAE_clean_linker_10, # of connection points: 2
#     Edge 24, Type (0, 1), BuildingBlock: TEMPAE_clean_linker_10, # of connection points: 2
#     Edge 25, Type (0, 1), BuildingBlock: TEMPAE_clean_linker_10, # of connection points: 2
#     Edge 26, Type (0, 1), BuildingBlock: TEMPAE_clean_linker_10, # of connection points: 2
#     Edge 27, Type (0, 1), BuildingBlock: TEMPAE_clean_linker_10, # of connection points: 2
#     Edge 28, Type (0, 1), BuildingBlock: TEMPAE_clean_linker_10, # of connection points: 2
#     Edge 29, Type (0, 1), BuildingBlock: TEMPAE_clean_linker_10, # of connection points: 2
#     Edge 30, Type (0, 1), BuildingBlock: TEMPAE_clean_linker_10, # of connection points: 2
#     Edge 31, Type (0, 1), BuildingBlock: TEMPAE_clean_linker_10, # of connection points: 2
#     Edge 32, Type (0, 1), BuildingBlock: TEMPAE_clean_linker_10, # of connection points: 2
#     Edge 33, Type (0, 1), BuildingBlock: TEMPAE_clean_linker_10, # of connection points: 2
#     Edge 34, Type (0, 1), BuildingBlock: TEMPAE_clean_linker_10, # of connection points: 2
#     Edge 35, Type (0, 1), BuildingBlock: TEMPAE_clean_linker_10, # of connection points: 2
# Relax obj value: 0.128
# Max RMSD: 0.169
# Mean RMSD: 0.137
data_MOF--net-pyr--node1-BETDAH_clean_sbu_0--node2-BETDIP_clean_linker_0--edge1-TEMPAE_clean_linker_10
_symmetry_space_group_name_H-M    P1
_symmetry_Int_Tables_number       1
_symmetry_cell_setting            triclinic
loop_
_symmetry_equiv_pos_as_xyz
'x, y, z'
_cell_length_a     38.445131
_cell_length_b     39.860724
_cell_length_c     37.469011
_cell_angle_alpha  92.130462
_cell_angle_beta   87.170167
_cell_angle_gamma 106.81821
loop_
_atom_site_label
_atom_site_type_symbol
_atom_site_fract_x
_atom_site_fract_y
_atom_site_fract_z
_atom_type_partial_charge
H0 H 0.31991 0.33052 0.2175 0.0
H1 H 0.41036 0.31962 0.1509 0.0
H2 H 0.36187 0.2432 0.23075 0.0
H3 H 0.36209 0.39474 0.20924 0.0
C4 C 0.35509 0.38762 0.18166 0.0
C5 C 0.34004 0.31687 0.21074 0.0
C6 C 0.33791 0.28554 0.22771 0.0
C7 C 0.36645 0.32951 0.18337 0.0
C8 C 0.39062 0.31025 0.1726 0.0
C9 C 0.38951 0.27923 0.18999 0.0
C10 C 0.36332 0.26741 0.21771 0.0
N11 N 0.36708 0.36016 0.16486 0.0
H12 H 0.18015 0.86649 0.70215 0.0
H13 H 0.21129 0.80541 0.61626 0.0
H14 H 0.2905 0.86158 0.69066 0.0
H15 H 0.12967 0.80364 0.5979 0.0
C16 C 0.14854 0.8271 0.6089 0.0
C17 C 0.20094 0.85707 0.68808 0.0
C18 C 0.23673 0.86743 0.69961 0.0
C19 C 0.19213 0.83567 0.65743 0.0
C20 C 0.21873 0.82319 0.63903 0.0
C21 C 0.25411 0.83178 0.65146 0.0
C22 C 0.26308 0.85466 0.68113 0.0
N23 N 0.1562 0.82665 0.64548 0.0
H24 H 0.70251 0.42471 0.85544 0.0
H25 H 0.61419 0.32889 0.85246 0.0
H26 H 0.69811 0.34285 0.9283 0.0
H27 H 0.68469 0.43416 0.80261 0.0
C28 C 0.65634 0.41991 0.79927 0.0
C29 C 0.68915 0.39867 0.86489 0.0
C30 C 0.70428 0.38622 0.8935 0.0
C31 C 0.65644 0.37813 0.84974 0.0
C32 C 0.6391 0.34477 0.86397 0.0
C33 C 0.65407 0.33141 0.89209 0.0
C34 C 0.68652 0.3526 0.90654 0.0
N35 N 0.63982 0.39009 0.82094 0.0
H36 H 0.80701 0.6423 0.36025 0.0
H37 H 0.8941 0.73706 0.34435 0.0
H38 H 0.8116 0.73338 0.42725 0.0
H39 H 0.88121 0.71181 0.28248 0.0
C40 C 0.88274 0.68581 0.28848 0.0
C41 C 0.82024 0.6693 0.36793 0.0
C42 C 0.80485 0.68583 0.39563 0.0
C43 C 0.85189 0.68774 0.34889 0.0
C44 C 0.86924 0.72293 0.35851 0.0
C45 C 0.85473 0.73966 0.38683 0.0
C46 C 0.82248 0.72089 0.40496 0.0
N47 N 0.86605 0.6699 0.32076 0.0
H48 H 0.6272 0.79125 0.91633 0.0
H49 H 0.69971 0.76336 0.8386 0.0
H50 H 0.64689 0.84044 0.81369 0.0
H51 H 0.66772 0.70487 0.86862 0.0
C52 C 0.67883 0.71908 0.89278 0.0
C53 C 0.63914 0.79358 0.88942 0.0
C54 C 0.63359 0.81842 0.86619 0.0
C55 C 0.66148 0.77252 0.8788 0.0
C56 C 0.6799 0.77739 0.84529 0.0
C57 C 0.6757 0.80264 0.82205 0.0
C58 C 0.65113 0.82179 0.83206 0.0
N59 N 0.66868 0.74957 0.90367 0.0
H60 H 0.82633 0.22754 0.37526 0.0
H61 H 0.80472 0.27355 0.47653 0.0
H62 H 0.7551 0.29332 0.38263 0.0
H63 H 0.85057 0.25627 0.49531 0.0
C64 C 0.85065 0.23324 0.47896 0.0
C65 C 0.81402 0.24503 0.39063 0.0
C66 C 0.79053 0.26038 0.37432 0.0
C67 C 0.81973 0.24984 0.4273 0.0
C68 C 0.80195 0.2706 0.44792 0.0
C69 C 0.77912 0.28678 0.43175 0.0
C70 C 0.77381 0.28187 0.39493 0.0
N71 N 0.84052 0.23049 0.44282 0.0
H72 H 0.3157 0.66275 0.22992 0.0
H73 H 0.40587 0.75634 0.23948 0.0
H74 H 0.328 0.74783 0.15852 0.0
H75 H 0.42746 0.72533 0.27689 0.0
C76 C 0.40644 0.70242 0.28612 0.0
C77 C 0.33046 0.68871 0.22092 0.0
C78 C 0.31789 0.70282 0.19184 0.0
C79 C 0.36238 0.70722 0.23824 0.0
C80 C 0.38181 0.74117 0.22621 0.0
C81 C 0.36935 0.7563 0.19753 0.0
C82 C 0.3376 0.73661 0.18061 0.0
N83 N 0.37307 0.69078 0.26776 0.0
H84 H 0.11759 0.33303 0.73342 0.0
H85 H 0.20783 0.42628 0.73657 0.0
H86 H 0.21163 0.34267 0.66236 0.0
H87 H 0.18925 0.41515 0.80063 0.0
C88 C 0.16128 0.4145 0.79645 0.0
C89 C 0.14453 0.34743 0.72357 0.0
C90 C 0.16252 0.333 0.69595 0.0
C91 C 0.16119 0.38049 0.73903 0.0
C92 C 0.19541 0.40033 0.72546 0.0
C93 C 0.21343 0.38705 0.69728 0.0
C94 C 0.19719 0.35314 0.68342 0.0
N95 N 0.14275 0.39382 0.76758 0.0
Ho96 Ho 0.03243 0.05354 0.50358 0.0
Ho97 Ho 1.00857 1.01582 0.57663 0.0
C98 C 0.05657 0.09516 0.57685 0.0
C99 C 0.04116 0.08309 0.44239 0.0
C100 C 0.07142 0.10894 0.42405 0.0
C101 C 0.06555 0.13882 0.40986 0.0
C102 C 0.09412 0.16376 0.3927 0.0
C103 C 0.12906 0.15912 0.38929 0.0
C104 C 0.13481 0.12919 0.40376 0.0
C105 C 0.10638 0.10448 0.42114 0.0
C106 C 0.08308 1.03063 0.5345 0.0
C107 C 0.97671 0.97417 0.50399 0.0
C108 C 0.99602 0.97191 0.628 0.0
C109 C 0.96219 0.94674 0.64083 0.0
C110 C 0.96312 0.91863 0.66169 0.0
C111 C 0.93068 0.89536 0.67472 0.0
C112 C 0.89685 0.90004 0.66718 0.0
C113 C 0.89625 0.9278 0.64532 0.0
C114 C 0.92859 0.95077 0.6321 0.0
C115 C 0.96805 0.05685 0.55878 0.0
O116 O 0.04515 0.09736 0.54452 0.0
O117 O 0.05308 0.06454 0.59162 0.0
O118 O 0.04551 0.05216 0.44701 0.0
O119 O 0.02656 0.09486 0.47059 0.0
O120 O 0.09147 0.05688 0.51318 0.0
O121 O 0.04955 1.01643 0.53444 0.0
O122 O 0.97544 0.97479 0.53939 0.0
O123 O 0.99596 1.00122 0.48501 0.0
O124 O 0.99736 1.00491 0.63271 0.0
O125 O 1.0079 0.96512 0.5961 0.0
O126 O 0.97087 0.04857 0.59136 0.0
O127 O 0.98226 0.039 0.53735 0.0
H128 H 0.03884 0.14289 0.41214 0.0
H129 H 0.08888 0.1867 0.38222 0.0
H130 H 0.16116 0.12441 0.40106 0.0
H131 H 0.11181 0.08181 0.43209 0.0
H132 H 0.98888 0.91491 0.66821 0.0
H133 H 0.93211 0.87395 0.69099 0.0
H134 H 0.87086 0.9326 0.63938 0.0
H135 H 0.9274 0.97217 0.61564 0.0
Ho136 Ho 0.55041 0.05125 0.06503 0.0
Ho137 Ho 0.48187 0.03781 1.03061 0.0
C138 C 0.49797 0.09123 0.09807 0.0
C139 C 0.61794 0.06689 0.0816 0.0
C140 C 0.644 0.09498 0.10083 0.0
C141 C 0.63418 0.12411 0.11515 0.0
C142 C 0.65751 0.14808 0.13775 0.0
C143 C 0.69081 0.14303 0.14642 0.0
C144 C 0.70126 0.1148 0.1304 0.0
C145 C 0.67797 0.09093 0.10779 0.0
C146 C 0.49718 0.99751 0.09509 0.0
C147 C 0.53491 0.99819 0.99544 0.0
C148 C 0.41448 1.02374 1.01378 0.0
C149 C 0.39198 1.00914 0.9829 0.0
C150 C 0.37147 0.97369 0.98198 0.0
C151 C 0.35 0.95979 0.95297 0.0
C152 C 0.34835 0.98112 0.92446 0.0
C153 C 0.36821 1.01673 0.92572 0.0
C154 C 0.38976 1.03063 0.95467 0.0
C155 C 0.53524 0.09092 0.99997 0.0
O156 O 0.53269 0.09505 0.09093 0.0
O157 O 0.47328 0.06506 0.08304 0.0
O158 O 0.59103 0.04786 0.1013 0.0
O159 O 0.60744 0.07491 0.05124 0.0
O160 O 0.52016 1.02181 0.11293 0.0
O161 O 0.50349 1.00311 0.06207 0.0
O162 O 0.50086 0.99891 0.99658 0.0
O163 O 0.55889 1.01837 1.01696 0.0
O164 O 0.43821 0.05443 1.01001 0.0
O165 O 0.42734 1.0022 1.03084 0.0
O166 O 0.51207 0.06649 0.9824 0.0
O167 O 0.52897 0.08579 0.03309 0.0
H168 H 0.6079 0.12747 0.11007 0.0
H169 H 0.64861 0.1694 0.15 0.0
H170 H 0.72691 0.1105 0.13636 0.0
H171 H 0.68589 0.06854 0.09686 0.0
H172 H 0.37206 0.95665 1.00366 0.0
H173 H 0.33457 0.93234 0.95291 0.0
H174 H 0.3677 1.03371 0.90396 0.0
H175 H 0.40481 0.05818 0.95477 0.0
Ho176 Ho 0.50676 0.51586 0.52341 0.0
Ho177 Ho 0.50765 0.57633 0.57243 0.0
C178 C 0.53796 0.51797 0.60388 0.0
C179 C 0.52172 0.46509 0.48754 0.0
C180 C 0.54586 0.44353 0.49388 0.0
C181 C 0.58196 0.45902 0.50345 0.0
C182 C 0.60479 0.43825 0.50856 0.0
C183 C 0.59186 0.40156 0.50466 0.0
C184 C 0.55517 0.38609 0.4968 0.0
C185 C 0.53245 0.40694 0.49125 0.0
C186 C 0.44254 0.51143 0.55846 0.0
C187 C 0.47946 0.57541 0.49037 0.0
C188 C 0.49075 0.62555 0.60962 0.0
C189 C 0.46911 0.64919 0.60234 0.0
C190 C 0.4413 0.63934 0.57779 0.0
C191 C 0.42043 0.66171 0.57142 0.0
C192 C 0.42684 0.6942 0.58972 0.0
C193 C 0.45532 0.70428 0.61368 0.0
C194 C 0.47634 0.68194 0.61986 0.0
C195 C 0.57211 0.58047 0.5382 0.0
O196 O 0.5389 0.50673 0.57011 0.0
O197 O 0.52308 0.54331 0.61277 0.0
O198 O 0.49349 0.46055 0.50964 0.0
O199 O 0.53749 0.49813 0.48084 0.0
O200 O 0.44571 0.50213 0.52521 0.0
O201 O 0.47355 0.52189 0.57149 0.0
O202 O 0.47901 0.58753 0.52388 0.0
O203 O 0.49247 0.54869 0.48229 0.0
O204 O 0.52121 0.63054 0.59073 0.0
O205 O 0.47265 0.59238 0.61203 0.0
O206 O 0.56876 0.59067 0.57117 0.0
O207 O 0.54127 0.57016 0.52478 0.0
H208 H 0.59282 0.48723 0.50634 0.0
H209 H 0.63297 0.45111 0.51413 0.0
H210 H 0.54418 0.35789 0.49426 0.0
H211 H 0.50447 0.39451 0.48457 0.0
H212 H 0.43527 0.61411 0.56398 0.0
H213 H 0.39891 0.65335 0.5526 0.0
H214 H 0.46054 0.72889 0.62864 0.0
H215 H 0.4978 0.68996 0.63879 0.0
Ho216 Ho 0.01362 0.51136 0.05198 0.0
Ho217 Ho 1.01205 0.58218 1.0253 0.0
C218 C 0.0825 0.58152 0.0664 0.0
C219 C 0.03171 0.45584 0.06663 0.0
C220 C 0.06428 0.44931 0.08031 0.0
C221 C 0.08956 0.47556 0.09931 0.0
C222 C 0.12173 0.46991 0.1099 0.0
C223 C 0.12899 0.43779 0.1019 0.0
C224 C 0.10328 0.41136 0.0834 0.0
C225 C 0.07127 0.41717 0.07255 0.0
C226 C 0.97895 0.54758 0.09584 0.0
C227 C 0.9438 0.51159 1.00984 0.0
C228 C 0.99395 0.63844 1.0138 0.0
C229 C 0.96102 0.6465 1.0031 0.0
C230 C 0.92667 0.62206 1.00755 0.0
C231 C 0.89556 0.62988 0.99711 0.0
C232 C 0.89813 0.66256 0.98244 0.0
C233 C 0.93269 0.68714 0.97847 0.0
C234 C 0.96383 0.67908 0.98856 0.0
C235 C 0.04715 0.54666 0.98098 0.0
O236 O 0.0706 0.5468 0.06307 0.0
O237 O 0.0627 0.6015 0.05653 0.0
O238 O 0.01313 0.47074 0.08892 0.0
O239 O 0.03602 0.46925 0.03487 0.0
O240 O 0.96767 0.51377 0.0912 0.0
O241 O 1.00831 0.55986 0.07818 0.0
O242 O 0.95529 0.54632 1.0137 0.0
O243 O 0.96389 0.49177 1.01947 0.0
O244 O 1.00998 0.62299 0.9895 0.0
O245 O 0.99188 0.62478 0.04531 0.0
O246 O 0.05725 0.5806 0.98501 0.0
O247 O 0.01805 0.53385 0.99898 0.0
H248 H 0.08456 0.5005 0.10574 0.0
H249 H 0.14082 0.49057 0.12451 0.0
H250 H 0.10831 0.38647 0.07661 0.0
H251 H 0.05218 0.39672 0.05767 0.0
H252 H 0.9239 0.59697 1.01922 0.0
H253 H 0.86956 0.61013 1.00021 0.0
H254 H 0.9357 0.71279 0.96791 0.0
H255 H 0.99012 0.69839 0.98521 0.0
C256 C 0.29032 0.23418 0.25322 0.0
C257 C 0.30763 0.27038 0.25395 0.0
C258 C 0.26138 0.21925 0.27719 0.0
C259 C 0.24883 0.24109 0.30212 0.0
C260 C 0.26582 0.27768 0.30289 0.0
C261 C 0.29524 0.29189 0.27894 0.0
C262 C 0.2441 0.18003 0.27569 0.0
C263 C 0.25278 0.30177 0.32884 0.0
C264 C 0.15284 0.19843 0.33745 0.0
C265 C 0.15922 0.18441 0.36946 0.0
C266 C 0.18172 0.21897 0.31629 0.0
C267 C 0.21782 0.22518 0.32718 0.0
C268 C 0.2243 0.2127 0.36033 0.0
C269 C 0.19489 0.19269 0.3812 0.0
C270 C 0.17372 0.23231 0.28132 0.0
C271 C 0.26244 0.21867 0.37277 0.0
H272 H 0.29901 0.21743 0.23344 0.0
H273 H 0.30862 0.31984 0.27987 0.0
H274 H 0.24504 0.16881 0.30217 0.0
H275 H 0.21506 0.1741 0.26923 0.0
H276 H 0.25783 0.16666 0.25539 0.0
H277 H 0.26865 0.32969 0.3257 0.0
H278 H 0.2237 0.29914 0.32486 0.0
H279 H 0.25485 0.29424 0.35668 0.0
H280 H 0.12544 0.19203 0.32802 0.0
H281 H 0.19995 0.18268 0.40633 0.0
H282 H 0.18266 0.21749 0.2588 0.0
H283 H 0.18905 0.26035 0.27836 0.0
H284 H 0.14427 0.22935 0.27905 0.0
H285 H 0.27686 0.20368 0.35504 0.0
H286 H 0.26266 0.21025 0.40067 0.0
H287 H 0.27799 0.24676 0.37107 0.0
C288 C 0.27969 0.91695 0.73188 0.0
C289 C 0.24685 0.88997 0.73197 0.0
C290 C 0.29302 0.93456 0.76361 0.0
C291 C 0.27286 0.92506 0.79615 0.0
C292 C 0.23838 0.89969 0.79602 0.0
C293 C 0.22576 0.88233 0.76384 0.0
C294 C 0.32984 0.9616 0.76259 0.0
C295 C 0.21595 0.88918 0.83017 0.0
C296 C 0.32973 0.93417 0.87746 0.0
C297 C 0.3271 0.96597 0.89282 0.0
C298 C 0.31145 0.92023 0.84645 0.0
C299 C 0.28994 0.93852 0.83046 0.0
C300 C 0.28647 0.97024 0.84625 0.0
C301 C 0.30523 0.98369 0.87726 0.0
C302 C 0.31605 0.88642 0.83022 0.0
C303 C 0.26354 0.99026 0.83002 0.0
H304 H 0.29569 0.92333 0.7071 0.0
H305 H 0.20039 0.86143 0.76401 0.0
H306 H 0.3286 0.98577 0.77758 0.0
H307 H 0.34968 0.95118 0.77572 0.0
H308 H 0.34018 0.96863 0.73484 0.0
H309 H 0.18777 0.87303 0.82494 0.0
H310 H 0.22891 0.87372 0.84636 0.0
H311 H 0.21475 0.91269 0.8464 0.0
H312 H 0.34698 0.92065 0.88914 0.0
H313 H 0.30286 1.00811 0.88933 0.0
H314 H 0.3294 0.89125 0.8032 0.0
H315 H 0.28909 0.86696 0.82705 0.0
H316 H 0.33268 0.87484 0.84671 0.0
H317 H 0.27525 0.99952 0.80327 0.0
H318 H 0.26182 1.01332 0.84684 0.0
H319 H 0.23563 0.97286 0.82619 0.0
C320 C 0.65606 0.46118 0.75036 0.0
C321 C 0.63706 0.43191 0.7704 0.0
C322 C 0.63955 0.47397 0.72311 0.0
C323 C 0.60278 0.45723 0.71523 0.0
C324 C 0.58339 0.42745 0.73523 0.0
C325 C 0.60067 0.41519 0.7625 0.0
C326 C 0.66155 0.50571 0.70289 0.0
C327 C 0.54425 0.40863 0.72793 0.0
C328 C 0.55223 0.51255 0.66843 0.0
C329 C 0.55401 0.50184 0.63234 0.0
C330 C 0.56722 0.49785 0.69549 0.0
C331 C 0.5847 0.47158 0.6867 0.0
C332 C 0.58632 0.4604 0.65034 0.0
C333 C 0.57104 0.47554 0.62379 0.0
C334 C 0.56475 0.51085 0.73361 0.0
C335 C 0.60465 0.43266 0.63934 0.0
H336 H 0.68415 0.47435 0.75613 0.0
H337 H 0.58561 0.39257 0.77766 0.0
H338 H 0.6622 0.49929 0.67385 0.0
H339 H 0.64858 0.52717 0.70666 0.0
H340 H 0.68996 0.51547 0.71172 0.0
H341 H 0.53304 0.38555 0.74512 0.0
H342 H 0.52738 0.42686 0.73256 0.0
H343 H 0.54182 0.39972 0.69951 0.0
H344 H 0.53914 0.53267 0.67568 0.0
H345 H 0.57267 0.46682 0.59617 0.0
H346 H 0.59247 0.52305 0.74336 0.0
H347 H 0.55145 0.48855 0.75115 0.0
H348 H 0.54922 0.53043 0.73644 0.0
H349 H 0.63382 0.44196 0.64567 0.0
H350 H 0.60262 0.42587 0.61033 0.0
H351 H 0.59225 0.40854 0.65469 0.0
C352 C 0.89678 0.6741 0.22427 0.0
C353 C 0.89619 0.66513 0.26014 0.0
C354 C 0.90885 0.65462 0.1968 0.0
C355 C 0.9218 0.6262 0.20554 0.0
C356 C 0.92173 0.61739 0.24187 0.0
C357 C 0.90842 0.63664 0.26869 0.0
C358 C 0.90754 0.66434 0.15843 0.0
C359 C 0.93627 0.58798 0.25244 0.0
C360 C 0.92747 0.55594 0.13529 0.0
C361 C 0.96388 0.56789 0.12313 0.0
C362 C 0.91316 0.57503 0.16154 0.0
C363 C 0.93616 0.60619 0.17677 0.0
C364 C 0.97307 0.61816 0.16465 0.0
C365 C 0.9863 0.59918 0.13759 0.0
C366 C 0.87342 0.56195 0.17287 0.0
C367 C 0.99879 0.65069 0.18072 0.0
H368 H 0.88717 0.69604 0.21765 0.0
H369 H 0.90831 0.62984 0.29645 0.0
H370 H 0.93542 0.67252 0.14606 0.0
H371 H 0.89172 0.64121 0.14284 0.0
H372 H 0.89505 0.686 0.15602 0.0
H373 H 0.93495 0.58485 0.28186 0.0
H374 H 0.92056 0.5629 0.23988 0.0
H375 H 0.96498 0.59305 0.24258 0.0
H376 H 0.91006 0.53188 0.12392 0.0
H377 H 0.01455 0.60839 0.12835 0.0
H378 H 0.86005 0.58278 0.16941 0.0
H379 H 0.87054 0.55561 0.20163 0.0
H380 H 0.85883 0.53822 0.1573 0.0
H381 H 0.98905 0.67379 0.17653 0.0
H382 H 0.02691 0.65595 0.16899 0.0
H383 H 0.99954 0.64787 0.21001 0.0
C384 C 0.42865 0.24103 0.2032 0.0
C385 C 0.41345 0.25727 0.17799 0.0
C386 C 0.44607 0.2156 0.19268 0.0
C387 C 0.44864 0.20641 0.15603 0.0
C388 C 0.43542 0.2243 0.13026 0.0
C389 C 0.4179 0.24948 0.14156 0.0
C390 C 0.45995 0.19727 0.22096 0.0
C391 C 0.43801 0.21548 0.09086 0.0
C392 C 0.51124 0.15272 0.12228 0.0
C393 C 0.48644 0.11938 0.11765 0.0
C394 C 0.49956 0.18123 0.13557 0.0
C395 C 0.46228 0.17614 0.1448 0.0
C396 C 0.43746 0.14218 0.14182 0.0
C397 C 0.44981 0.11425 0.12812 0.0
C398 C 0.5268 0.21705 0.13817 0.0
C399 C 0.39755 0.13558 0.15188 0.0
H400 H 0.42583 0.24739 0.23138 0.0
H401 H 0.40602 0.26171 0.12195 0.0
H402 H 0.44315 0.16951 0.22218 0.0
H403 H 0.48834 0.19724 0.2141 0.0
H404 H 0.45902 0.20974 0.24787 0.0
H405 H 0.42968 0.23402 0.07411 0.0
H406 H 0.46623 0.2158 0.08265 0.0
H407 H 0.4202 0.18861 0.08537 0.0
H408 H 0.53958 0.15698 0.11399 0.0
H409 H 0.43054 0.08855 0.12471 0.0
H410 H 0.5248 0.22906 0.16509 0.0
H411 H 0.5207 0.2345 0.11852 0.0
H412 H 0.55518 0.21607 0.13282 0.0
H413 H 0.39409 0.14534 0.17956 0.0
H414 H 0.38226 0.10732 0.15004 0.0
H415 H 0.38532 0.15015 0.13389 0.0
C416 C 0.17686 0.89211 0.60267 0.0
C417 C 0.15128 0.86085 0.59202 0.0
C418 C 0.17518 0.92464 0.59111 0.0
C419 C 0.14707 0.92583 0.56871 0.0
C420 C 0.12314 0.8942 0.55547 0.0
C421 C 0.12575 0.86204 0.56712 0.0
C422 C 0.20182 0.95773 0.60497 0.0
C423 C 0.09283 0.89433 0.53136 0.0
C424 C 0.09853 0.99521 0.57984 0.0
C425 C 0.10783 1.01239 0.54743 0.0
C426 C 0.11348 0.96865 0.58842 0.0
C427 C 0.13852 0.95932 0.56389 0.0
C428 C 0.15094 0.97924 0.53281 0.0
C429 C 0.13528 1.00574 0.52483 0.0
C430 C 0.0997 0.94842 0.62208 0.0
C431 C 0.17822 0.9706 0.50646 0.0
H432 H 0.19759 0.89158 0.62089 0.0
H433 H 0.10627 0.83789 0.55848 0.0
H434 H 0.21079 0.97733 0.58365 0.0
H435 H 0.1884 0.96952 0.62688 0.0
H436 H 0.22615 0.95246 0.61563 0.0
H437 H 0.07905 0.86773 0.52051 0.0
H438 H 0.07228 0.90437 0.54661 0.0
H439 H 0.10347 0.91203 0.50869 0.0
H440 H 0.07767 1.00101 0.59743 0.0
H441 H 0.14228 1.01907 0.49963 0.0
H442 H 0.12274 0.94569 0.63725 0.0
H443 H 0.08271 0.92163 0.61487 0.0
H444 H 0.08301 0.96119 0.63983 0.0
H445 H 0.19976 0.96345 0.52043 0.0
H446 H 0.19113 0.99291 0.48873 0.0
H447 H 0.16423 0.94775 0.48949 0.0
C448 C 0.76948 0.42498 0.889 0.0
C449 C 0.73869 0.4079 0.91016 0.0
C450 C 0.80271 0.44307 0.90454 0.0
C451 C 0.80536 0.44462 0.94227 0.0
C452 C 0.77402 0.42833 0.96375 0.0
C453 C 0.74133 0.41015 0.94753 0.0
C454 C 0.83531 0.45973 0.88048 0.0
C455 C 0.77515 0.42961 1.00401 0.0
C456 C 0.89812 0.45869 0.9833 0.0
C457 C 0.90815 0.49455 0.99288 0.0
C458 C 0.86517 0.44237 0.96656 0.0
C459 C 0.84107 0.4621 0.95931 0.0
C460 C 0.85093 0.49828 0.969 0.0
C461 C 0.88425 0.51402 0.98542 0.0
C462 C 0.85615 0.40386 0.95655 0.0
C463 C 0.82613 0.52041 0.96223 0.0
H464 H 0.76794 0.42324 0.86016 0.0
H465 H 0.71766 0.39753 0.96423 0.0
H466 H 0.84651 0.4879 0.88781 0.0
H467 H 0.85704 0.44707 0.88409 0.0
H468 H 0.82863 0.45741 0.85182 0.0
H469 H 0.74811 0.41716 1.01702 0.0
H470 H 0.79463 0.41595 1.01249 0.0
H471 H 0.78492 0.45721 1.01383 0.0
H472 H 0.91624 0.44324 0.98859 0.0
H473 H 0.89144 0.54165 0.99255 0.0
H474 H 0.85162 0.39998 0.92748 0.0
H475 H 0.83057 0.38927 0.9708 0.0
H476 H 0.87803 0.3923 0.96314 0.0
H477 H 0.82067 0.51947 0.93336 0.0
H478 H 0.83782 0.54822 0.97082 0.0
H479 H 0.79959 0.50972 0.97678 0.0
C480 C 0.74353 0.6839 0.42308 0.0
C481 C 0.77025 0.66686 0.41481 0.0
C482 C 0.71135 0.66717 0.44236 0.0
C483 C 0.70552 0.63239 0.45362 0.0
C484 C 0.73198 0.6147 0.44476 0.0
C485 C 0.76405 0.63215 0.42547 0.0
C486 C 0.68379 0.68695 0.45112 0.0
C487 C 0.72671 0.5776 0.45625 0.0
C488 C 0.63939 0.60708 0.53352 0.0
C489 C 0.60686 0.59007 0.51696 0.0
C490 C 0.67204 0.61976 0.51331 0.0
C491 C 0.67215 0.61521 0.47563 0.0
C492 C 0.63966 0.59659 0.45894 0.0
C493 C 0.60736 0.58425 0.47983 0.0
C494 C 0.70607 0.63936 0.53216 0.0
C495 C 0.63867 0.59099 0.4189 0.0
H496 H 0.74778 0.71048 0.41438 0.0
H497 H 0.78466 0.61888 0.41944 0.0
H498 H 0.65703 0.6722 0.44064 0.0
H499 H 0.68003 0.68957 0.48054 0.0
H500 H 0.69208 0.71358 0.43975 0.0
H501 H 0.74894 0.5669 0.44571 0.0
H502 H 0.72557 0.57676 0.48586 0.0
H503 H 0.70044 0.56028 0.44696 0.0
H504 H 0.63914 0.61143 0.56225 0.0
H505 H 0.58228 0.57096 0.46695 0.0
H506 H 0.71445 0.66723 0.52437 0.0
H507 H 0.72874 0.62835 0.52401 0.0
H508 H 0.7021 0.63833 0.56172 0.0
H509 H 0.64341 0.61656 0.40588 0.0
H510 H 0.6122 0.57328 0.41042 0.0
H511 H 0.6607 0.57975 0.40903 0.0
C512 C 0.31315 0.3888 0.13268 0.0
C513 C 0.32502 0.39862 0.16733 0.0
C514 C 0.28251 0.39675 0.12052 0.0
C515 C 0.2632 0.4146 0.14372 0.0
C516 C 0.27573 0.42533 0.1784 0.0
C517 C 0.30662 0.41737 0.18968 0.0
C518 C 0.27022 0.38526 0.08322 0.0
C519 C 0.25577 0.44415 0.20404 0.0
C520 C 0.19675 0.45749 0.10638 0.0
C521 C 0.16341 0.43192 0.11256 0.0
C522 C 0.22953 0.45209 0.116 0.0
C523 C 0.22888 0.42051 0.13248 0.0
C524 C 0.19526 0.39467 0.1389 0.0
C525 C 0.16296 0.40062 0.1287 0.0
C526 C 0.26485 0.48011 0.10842 0.0
C527 C 0.19337 0.36086 0.15688 0.0
H528 H 0.32741 0.37441 0.11525 0.0
H529 H 0.31577 0.4249 0.21651 0.0
H530 H 0.24321 0.36536 0.08462 0.0
H531 H 0.26712 0.40783 0.06856 0.0
H532 H 0.28957 0.3738 0.0677 0.0
H533 H 0.26994 0.45203 0.22948 0.0
H534 H 0.25274 0.46792 0.19162 0.0
H535 H 0.22799 0.42685 0.21027 0.0
H536 H 0.19723 0.48153 0.0935 0.0
H537 H 0.13719 0.38097 0.13385 0.0
H538 H 0.28322 0.46913 0.09095 0.0
H539 H 0.27887 0.48923 0.13369 0.0
H540 H 0.26068 0.50308 0.09524 0.0
H541 H 0.20995 0.34649 0.14116 0.0
H542 H 0.16507 0.34345 0.15991 0.0
H543 H 0.20491 0.36663 0.18375 0.0
C544 C 0.65762 0.27345 0.91479 0.0
C545 C 0.63638 0.29538 0.90665 0.0
C546 C 0.64199 0.24027 0.92992 0.0
C547 C 0.60396 0.22829 0.93747 0.0
C548 C 0.58226 0.25013 0.92908 0.0
C549 C 0.59862 0.28316 0.91368 0.0
C550 C 0.6663 0.21798 0.93783 0.0
C551 C 0.5417 0.23875 0.93679 0.0
C552 C 0.5581 0.12954 0.94704 0.0
C553 C 0.55462 0.12573 0.98428 0.0
C554 C 0.57419 0.1625 0.93158 0.0
C555 C 0.58696 0.19283 0.95374 0.0
C556 C 0.58372 0.18907 0.99143 0.0
C557 C 0.56787 0.15567 1.00618 0.0
C558 C 0.57734 0.16487 0.89138 0.0
C559 C 0.59661 0.22046 1.01626 0.0
H560 H 0.68671 0.28217 0.90908 0.0
H561 H 0.58187 0.29983 0.90792 0.0
H562 H 0.66416 0.21234 0.96676 0.0
H563 H 0.65737 0.19244 0.92316 0.0
H564 H 0.69528 0.23083 0.93023 0.0
H565 H 0.52855 0.25861 0.92888 0.0
H566 H 0.52915 0.21372 0.92229 0.0
H567 H 0.53587 0.23393 0.96575 0.0
H568 H 0.54798 0.10664 0.92985 0.0
H569 H 0.56518 0.15315 0.03497 0.0
H570 H 0.6062 0.17632 0.88255 0.0
H571 H 0.56202 0.18256 0.88253 0.0
H572 H 0.56676 0.13889 0.87781 0.0
H573 H 0.62612 0.23301 1.01125 0.0
H574 H 0.59174 0.21338 0.04486 0.0
H575 H 0.58239 0.24024 1.01099 0.0
C576 C 0.85322 0.80004 0.40675 0.0
C577 C 0.8734 0.77626 0.39878 0.0
C578 C 0.86948 0.83337 0.42185 0.0
C579 C 0.90687 0.84321 0.42937 0.0
C580 C 0.92769 0.81978 0.42026 0.0
C581 C 0.91073 0.78664 0.40495 0.0
C582 C 0.84637 0.85762 0.43076 0.0
C583 C 0.96759 0.8292 0.42793 0.0
C584 C 0.95685 0.93951 0.44731 0.0
C585 C 0.95685 0.94132 0.48483 0.0
C586 C 0.94043 0.9079 0.4289 0.0
C587 C 0.92371 0.87724 0.44839 0.0
C588 C 0.92315 0.879 0.48624 0.0
C589 C 0.9396 0.91095 0.50396 0.0
C590 C 0.94138 0.9072 0.38855 0.0
C591 C 0.90564 0.84694 0.50809 0.0
H592 H 0.82443 0.79232 0.40165 0.0
H593 H 0.9264 0.76829 0.39917 0.0
H594 H 0.84468 0.86196 0.46014 0.0
H595 H 0.85899 0.88356 0.41872 0.0
H596 H 0.81833 0.84697 0.42115 0.0
H597 H 0.98041 0.80899 0.41742 0.0
H598 H 0.98234 0.85469 0.41596 0.0
H599 H 0.97099 0.83223 0.45722 0.0
H600 H 0.97008 0.96272 0.43218 0.0
H601 H 0.93948 0.91187 0.53291 0.0
H602 H 0.91333 0.89747 0.37886 0.0
H603 H 0.95644 0.88882 0.37797 0.0
H604 H 0.95455 0.93347 0.37734 0.0
H605 H 0.87664 0.83602 0.50154 0.0
H606 H 0.90715 0.85274 0.5373 0.0
H607 H 0.91921 0.82632 0.50136 0.0
C608 C 0.30053 0.80052 0.65886 0.0
C609 C 0.28079 0.8144 0.63594 0.0
C610 C 0.32494 0.78273 0.64539 0.0
C611 C 0.32966 0.7785 0.60797 0.0
C612 C 0.31019 0.79279 0.58453 0.0
C613 C 0.28578 0.81054 0.59884 0.0
C614 C 0.34505 0.76772 0.67135 0.0
C615 C 0.31474 0.78882 0.5445 0.0
C616 C 0.41536 0.75272 0.58613 0.0
C617 C 0.40188 0.71606 0.58661 0.0
C618 C 0.39173 0.77374 0.58981 0.0
C619 C 0.35386 0.75761 0.59414 0.0
C620 C 0.33996 0.72068 0.59151 0.0
C621 C 0.36417 0.70032 0.58785 0.0
C622 C 0.40753 0.81307 0.59207 0.0
C623 C 0.29972 0.70248 0.59591 0.0
H624 H 0.2962 0.8028 0.68755 0.0
H625 H 0.27064 0.82142 0.58109 0.0
H626 H 0.33741 0.73876 0.668 0.0
H627 H 0.37481 0.77781 0.66579 0.0
H628 H 0.33907 0.7743 0.69962 0.0
H629 H 0.29939 0.80337 0.52997 0.0
H630 H 0.34391 0.79838 0.53603 0.0
H631 H 0.30507 0.7607 0.53646 0.0
H632 H 0.44449 0.76498 0.58441 0.0
H633 H 0.35353 0.67201 0.58842 0.0
H634 H 0.40648 0.8221 0.62037 0.0
H635 H 0.39144 0.82617 0.57672 0.0
H636 H 0.4363 0.8216 0.58189 0.0
H637 H 0.29093 0.70409 0.62443 0.0
H638 H 0.29295 0.67438 0.58752 0.0
H639 H 0.28386 0.71547 0.58016 0.0
C640 C 0.71351 0.78743 0.77059 0.0
C641 C 0.70121 0.81268 0.79043 0.0
C642 C 0.74303 0.79742 0.74578 0.0
C643 C 0.76027 0.83346 0.74039 0.0
C644 C 0.74611 0.85893 0.75812 0.0
C645 C 0.71698 0.84827 0.78308 0.0
C646 C 0.75729 0.76949 0.7273 0.0
C647 C 0.76339 0.89767 0.7527 0.0
C648 C 0.86136 0.86887 0.72006 0.0
C649 C 0.86243 0.87799 0.68415 0.0
C650 C 0.82835 0.8523 0.73801 0.0
C651 C 0.79551 0.84504 0.71977 0.0
C652 C 0.7965 0.85238 0.68303 0.0
C653 C 0.83001 0.86862 0.66559 0.0
C654 C 0.82848 0.84447 0.77714 0.0
C655 C 0.76207 0.84499 0.66267 0.0
H656 H 0.70106 0.75985 0.77556 0.0
H657 H 0.70817 0.86812 0.79845 0.0
H658 H 0.76336 0.775 0.6985 0.0
H659 H 0.78309 0.76942 0.73928 0.0
H660 H 0.73774 0.74295 0.72996 0.0
H661 H 0.7466 0.91379 0.76513 0.0
H662 H 0.79044 0.90591 0.76477 0.0
H663 H 0.76768 0.90333 0.72379 0.0
H664 H 0.88611 0.87627 0.7348 0.0
H665 H 0.83066 0.87488 0.63762 0.0
H666 H 0.81214 0.81709 0.78235 0.0
H667 H 0.81584 0.86201 0.79339 0.0
H668 H 0.85642 0.84828 0.78637 0.0
H669 H 0.74417 0.8182 0.66796 0.0
H670 H 0.76776 0.84766 0.63339 0.0
H671 H 0.74682 0.86369 0.67182 0.0
C672 C 0.74266 0.23832 0.32987 0.0
C673 C 0.77968 0.25015 0.3372 0.0
C674 C 0.7313 0.22452 0.2961 0.0
C675 C 0.75765 0.22277 0.26889 0.0
C676 C 0.79512 0.23624 0.27559 0.0
C677 C 0.80573 0.24952 0.30986 0.0
C678 C 0.69106 0.21 0.29021 0.0
C679 C 0.82393 0.23529 0.24702 0.0
C680 C 0.72395 0.14792 0.20267 0.0
C681 C 0.7124 0.16455 0.17518 0.0
C682 C 0.74037 0.16694 0.23257 0.0
C683 C 0.7456 0.20358 0.23491 0.0
C684 C 0.73576 0.22085 0.20639 0.0
C685 C 0.71894 0.20104 0.1769 0.0
C686 C 0.75007 0.14745 0.26261 0.0
C687 C 0.74151 0.25995 0.20775 0.0
H688 H 0.72244 0.23828 0.35111 0.0
H689 H 0.83437 0.25887 0.3155 0.0
H690 H 0.68377 0.22134 0.26607 0.0
H691 H 0.68408 0.18119 0.28562 0.0
H692 H 0.67416 0.21543 0.31337 0.0
H693 H 0.85152 0.25073 0.25503 0.0
H694 H 0.82403 0.20777 0.24157 0.0
H695 H 0.81789 0.24563 0.22169 0.0
H696 H 0.71848 0.11965 0.20168 0.0
H697 H 0.71029 0.21396 0.1555 0.0
H698 H 0.73238 0.1488 0.28662 0.0
H699 H 0.77859 0.15982 0.27001 0.0
H700 H 0.74673 0.11943 0.25546 0.0
H701 H 0.72242 0.2665 0.22814 0.0
H702 H 0.73692 0.26993 0.18162 0.0
H703 H 0.76951 0.27388 0.21579 0.0
C704 C 0.44929 0.6941 0.33135 0.0
C705 C 0.41474 0.68282 0.31671 0.0
C706 C 0.45864 0.67653 0.35983 0.0
C707 C 0.43282 0.64676 0.37465 0.0
C708 C 0.3977 0.63537 0.36017 0.0
C709 C 0.38913 0.65338 0.33143 0.0
C710 C 0.49643 0.68975 0.3739 0.0
C711 C 0.36914 0.604 0.37501 0.0
C712 C 0.46973 0.58265 0.42497 0.0
C713 C 0.46602 0.5928 0.46101 0.0
C714 C 0.45862 0.59951 0.39692 0.0
C715 C 0.44302 0.62732 0.40464 0.0
C716 C 0.43864 0.63732 0.441 0.0
C717 C 0.45023 0.62016 0.46854 0.0
C718 C 0.46424 0.58789 0.35881 0.0
C719 C 0.42205 0.66657 0.45087 0.0
H720 H 0.46931 0.71678 0.32029 0.0
H721 H 0.36232 0.64436 0.32056 0.0
H722 H 0.49489 0.69636 0.40285 0.0
H723 H 0.5103 0.6689 0.37086 0.0
H724 H 0.51333 0.71333 0.35981 0.0
H725 H 0.34291 0.59883 0.36159 0.0
H726 H 0.37882 0.58037 0.37177 0.0
H727 H 0.36433 0.60815 0.40406 0.0
H728 H 0.4819 0.56171 0.41847 0.0
H729 H 0.44707 0.62841 0.49608 0.0
H730 H 0.48299 0.60993 0.34395 0.0
H731 H 0.43803 0.58042 0.34517 0.0
H732 H 0.47572 0.56528 0.35711 0.0
H733 H 0.43932 0.69148 0.43949 0.0
H734 H 0.41902 0.67033 0.48027 0.0
H735 H 0.39491 0.66099 0.43925 0.0
C736 C 0.157 0.44096 0.85717 0.0
C737 C 0.14251 0.43219 0.82334 0.0
C738 C 0.14067 0.45858 0.88309 0.0
C739 C 0.10968 0.46869 0.87462 0.0
C740 C 0.09502 0.46002 0.84034 0.0
C741 C 0.11135 0.44146 0.81524 0.0
C742 C 0.15665 0.46644 0.91954 0.0
C743 C 0.06258 0.47103 0.82992 0.0
C744 C 0.04918 0.49021 0.95045 0.0
C745 C 0.06306 0.52676 0.95378 0.0
C746 C 0.06423 0.47095 0.92506 0.0
C747 C 0.09308 0.48878 0.90151 0.0
C748 C 0.1066 0.52582 0.90419 0.0
C749 C 0.09174 0.5443 0.93057 0.0
C750 C 0.04954 0.43148 0.92374 0.0
C751 C 0.13673 0.54595 0.87911 0.0
H752 H 0.18108 0.43376 0.86346 0.0
H753 H 0.1003 0.43505 0.78896 0.0
H754 H 0.16652 0.49519 0.92434 0.0
H755 H 0.13542 0.45566 0.94059 0.0
H756 H 0.17966 0.45526 0.92247 0.0
H757 H 0.05457 0.46245 0.80221 0.0
H758 H 0.03902 0.45991 0.8485 0.0
H759 H 0.06885 0.5 0.83209 0.0
H760 H 0.02653 0.47656 0.9678 0.0
H761 H 0.10236 0.57259 0.93277 0.0
H762 H 0.07181 0.41958 0.9276 0.0
H763 H 0.03855 0.42245 0.89713 0.0
H764 H 0.02768 0.42155 0.94451 0.0
H765 H 0.16183 0.53829 0.88279 0.0
H766 H 0.14294 0.57476 0.8835 0.0
H767 H 0.12909 0.53942 0.85098 0.0
C768 C 0.58287 0.83264 0.9032 0.0
C769 C 0.61282 0.84327 0.87896 0.0
C770 C 0.56643 0.857 0.91914 0.0
C771 C 0.57966 0.89274 0.91002 0.0
C772 C 0.60807 0.90321 0.8837 0.0
C773 C 0.62463 0.87855 0.86892 0.0
C774 C 0.53648 0.84484 0.94744 0.0
C775 C 0.62259 0.94096 0.87275 0.0
C776 C 0.52662 0.95611 0.9427 0.0
C777 C 0.54628 0.97193 0.97246 0.0
C778 C 0.53722 0.9304 0.92176 0.0
C779 C 0.56757 0.91981 0.93143 0.0
C780 C 0.58719 0.93552 0.96166 0.0
C781 C 0.57655 0.96159 0.9815 0.0
C782 C 0.51623 0.9148 0.8892 0.0
C783 C 0.61933 0.92461 0.9733 0.0
H784 H 0.57291 0.8054 0.91061 0.0
H785 H 0.64805 0.88748 0.85074 0.0
H786 H 0.54674 0.85548 0.97395 0.0
H787 H 0.51317 0.8549 0.9424 0.0
H788 H 0.52661 0.81581 0.94872 0.0
H789 H 0.64046 0.94382 0.84815 0.0
H790 H 0.59994 0.9521 0.86807 0.0
H791 H 0.63859 0.95675 0.89459 0.0
H792 H 0.50322 0.96405 0.93562 0.0
H793 H 0.59162 0.97332 1.00474 0.0
H794 H 0.50508 0.88599 0.89168 0.0
H795 H 0.5347 0.91954 0.86503 0.0
H796 H 0.49342 0.92599 0.88519 0.0
H797 H 0.61113 0.89598 0.97782 0.0
H798 H 0.63079 0.93851 0.99823 0.0
H799 H 0.64112 0.93007 0.95195 0.0
C800 C 0.88045 0.2112 0.52675 0.0
C801 C 0.86395 0.20568 0.49372 0.0
C802 C 0.89499 0.18601 0.54027 0.0
C803 C 0.89257 0.15462 0.52029 0.0
C804 C 0.87455 0.14834 0.48764 0.0
C805 C 0.86052 0.17402 0.47468 0.0
C806 C 0.91419 0.19357 0.57515 0.0
C807 C 0.87136 0.11509 0.46568 0.0
C808 C 0.96595 0.10991 0.5278 0.0
C809 C 0.94839 0.08133 0.54883 0.0
C810 C 0.94822 0.13427 0.51879 0.0
C811 C 0.91197 0.12989 0.53147 0.0
C812 C 0.89422 0.1014 0.55355 0.0
C813 C 0.91289 0.07749 0.56227 0.0
C814 C 0.96835 0.16462 0.49564 0.0
C815 C 0.85554 0.09599 0.56752 0.0
H816 H 0.8828 0.23561 0.54154 0.0
H817 H 0.84726 0.16937 0.44936 0.0
H818 H 0.90369 0.17121 0.59332 0.0
H819 H 0.94366 0.19689 0.57007 0.0
H820 H 0.91087 0.21769 0.58892 0.0
H821 H 0.85382 0.11293 0.44252 0.0
H822 H 0.89877 0.11446 0.45549 0.0
H823 H 0.86004 0.0918 0.48248 0.0
H824 H 0.99395 0.11402 0.51936 0.0
H825 H 0.89964 0.05558 0.57919 0.0
H826 H 0.96927 0.1898 0.50977 0.0
H827 H 0.95378 0.16377 0.47064 0.0
H828 H 0.99665 0.16436 0.48843 0.0
H829 H 0.85309 0.11976 0.58257 0.0
H830 H 0.8461 0.07314 0.58528 0.0
H831 H 0.83717 0.09182 0.54482 0.0
C832 C 0.25255 0.66416 0.19257 0.0
C833 C 0.28407 0.68261 0.17314 0.0
C834 C 0.2202 0.64656 0.17531 0.0
C835 C 0.2191 0.64702 0.13753 0.0
C836 C 0.25107 0.6649 0.11772 0.0
C837 C 0.28293 0.68246 0.13566 0.0
C838 C 0.18688 0.62809 0.19764 0.0
C839 C 0.25154 0.66579 0.07746 0.0
C840 C 0.14235 0.57898 0.08991 0.0
C841 C 0.11803 0.59833 0.08356 0.0
C842 C 0.17528 0.59438 0.10715 0.0
C843 C 0.18424 0.63005 0.11881 0.0
C844 C 0.15985 0.6497 0.11237 0.0
C845 C 0.12733 0.63375 0.09479 0.0
C846 C 0.20035 0.57232 0.1131 0.0
C847 C 0.16797 0.68767 0.12435 0.0
H848 H 0.25283 0.66425 0.22148 0.0
H849 H 0.30716 0.69605 0.1202 0.0
H850 H 0.16482 0.6403 0.19389 0.0
H851 H 0.17676 0.60022 0.18879 0.0
H852 H 0.19232 0.62915 0.22657 0.0
H853 H 0.27885 0.67956 0.06579 0.0
H854 H 0.24297 0.63869 0.06606 0.0
H855 H 0.23182 0.67925 0.06915 0.0
H856 H 0.13575 0.5517 0.08129 0.0
H857 H 0.10885 0.64905 0.09035 0.0
H858 H 0.20157 0.56859 0.14215 0.0
H859 H 0.22837 0.58581 0.10306 0.0
H860 H 0.19123 0.54612 0.09965 0.0
H861 H 0.17117 0.69005 0.15369 0.0
H862 H 0.14621 0.69934 0.11764 0.0
H863 H 0.19401 0.70319 0.11158 0.0
C864 C 0.27679 0.39407 0.67191 0.0
C865 C 0.24853 0.40889 0.68115 0.0
C866 C 0.30867 0.41337 0.65368 0.0
C867 C 0.31255 0.44845 0.6445 0.0
C868 C 0.2847 0.464 0.65484 0.0
C869 C 0.25302 0.44403 0.67301 0.0
C870 C 0.33779 0.39584 0.64333 0.0
C871 C 0.28784 0.50134 0.64566 0.0
C872 C 0.4085 0.50294 0.61768 0.0
C873 C 0.40836 0.49907 0.58032 0.0
C874 C 0.37713 0.48767 0.63895 0.0
C875 C 0.34492 0.46805 0.62245 0.0
C876 C 0.34428 0.46536 0.58465 0.0
C877 C 0.37599 0.48096 0.56406 0.0
C878 C 0.37887 0.4914 0.67911 0.0
C879 C 0.31049 0.4448 0.56597 0.0
H880 H 0.27379 0.36713 0.67861 0.0
H881 H 0.23119 0.4556 0.67973 0.0
H882 H 0.341 0.39424 0.61377 0.0
H883 H 0.36432 0.41162 0.6535 0.0
H884 H 0.33135 0.36894 0.65384 0.0
H885 H 0.26519 0.51044 0.65801 0.0
H886 H 0.31397 0.51918 0.65466 0.0
H887 H 0.28773 0.50352 0.61624 0.0
H888 H 0.43346 0.51702 0.63037 0.0
H889 H 0.37571 0.47803 0.53519 0.0
H890 H 0.376 0.46544 0.69062 0.0
H891 H 0.35604 0.50073 0.69049 0.0
H892 H 0.40489 0.50989 0.68767 0.0
H893 H 0.30386 0.41671 0.57266 0.0
H894 H 0.31377 0.44701 0.53644 0.0
H895 H 0.28697 0.45409 0.57533 0.0
C896 C 0.71647 0.67857 0.89902 0.0
C897 C 0.70829 0.70948 0.91001 0.0
C898 C 0.74621 0.67006 0.91243 0.0
C899 C 0.76858 0.69331 0.93708 0.0
C900 C 0.75996 0.72425 0.94886 0.0
C901 C 0.72975 0.73189 0.93532 0.0
C902 C 0.75423 0.63661 0.89954 0.0
C903 C 0.78337 0.74986 0.97483 0.0
C904 C 0.832 0.65959 0.99123 0.0
C905 C 0.86496 0.6709 0.9712 0.0
C906 C 0.80041 0.66669 0.9805 0.0
C907 C 0.80187 0.68599 0.94924 0.0
C908 C 0.83509 0.69788 0.92914 0.0
C909 C 0.86611 0.68998 0.9402 0.0
C910 C 0.76541 0.65334 1.00247 0.0
C911 C 0.83781 0.71874 0.89574 0.0
H912 H 0.69987 0.66127 0.87943 0.0
H913 H 0.72368 0.75596 0.94376 0.0
H914 H 0.78072 0.64296 0.88432 0.0
H915 H 0.75649 0.62086 0.92265 0.0
H916 H 0.73292 0.62033 0.88207 0.0
H917 H 0.77207 0.7719 0.98258 0.0
H918 H 0.78622 0.73628 0.99935 0.0
H919 H 0.81107 0.7608 0.96263 0.0
H920 H 0.83088 0.64534 1.01553 0.0
H921 H 0.8912 0.69835 0.92416 0.0
H922 H 0.74425 0.63588 0.9857 0.0
H923 H 0.75523 0.6756 1.01195 0.0
H924 H 0.76879 0.63861 1.02602 0.0
H925 H 0.8196 0.70278 0.87548 0.0
H926 H 0.86595 0.72715 0.88387 0.0
H927 H 0.8287 0.74239 0.90189 0.0
C928 C 0.42666 0.80388 0.17882 0.0
C929 C 0.38873 0.79272 0.18489 0.0
C930 C 0.44447 0.8371 0.16441 0.0
C931 C 0.42411 0.86021 0.15615 0.0
C932 C 0.38593 0.84937 0.16304 0.0
C933 C 0.36883 0.81597 0.17708 0.0
C934 C 0.48511 0.84721 0.15736 0.0
C935 C 0.36297 0.87303 0.15534 0.0
C936 C 0.47326 0.95854 0.14765 0.0
C937 C 0.47705 0.96271 0.11046 0.0
C938 C 0.45609 0.9256 0.16278 0.0
C939 C 0.44254 0.89564 0.14031 0.0
C940 C 0.44616 0.89976 0.10268 0.0
C941 C 0.46308 0.93313 0.08827 0.0
C942 C 0.45252 0.92286 0.20293 0.0
C943 C 0.43246 0.86877 0.07754 0.0
H944 H 0.44236 0.78619 0.18439 0.0
H945 H 0.33961 0.80799 0.18205 0.0
H946 H 0.49155 0.85208 0.12848 0.0
H947 H 0.49823 0.87194 0.17209 0.0
H948 H 0.49719 0.82661 0.16543 0.0
H949 H 0.33379 0.86119 0.16291 0.0
H950 H 0.37291 0.89839 0.17014 0.0
H951 H 0.36539 0.87885 0.12645 0.0
H952 H 0.48389 0.98114 0.16508 0.0
H953 H 0.46596 0.93593 0.05952 0.0
H954 H 0.46677 0.90425 0.21172 0.0
H955 H 0.42346 0.91236 0.21152 0.0
H956 H 0.46395 0.94856 0.21678 0.0
H957 H 0.44575 0.84825 0.0827 0.0
H958 H 0.43773 0.87607 0.04903 0.0
H959 H 0.40277 0.85705 0.08233 0.0
C960 C 0.12303 0.27011 0.7009 0.0
C961 C 0.1455 0.29717 0.68001 0.0
C962 C 0.1075 0.23633 0.68618 0.0
C963 C 0.11547 0.22891 0.64994 0.0
C964 C 0.13832 0.25587 0.62879 0.0
C965 C 0.15234 0.28966 0.64379 0.0
C966 C 0.08235 0.20864 0.70936 0.0
C967 C 0.14803 0.24906 0.59018 0.0
C968 C 0.10197 0.13412 0.61759 0.0
C969 C 0.07084 0.12816 0.59761 0.0
C970 C 0.11672 0.16672 0.63509 0.0
C971 C 0.09909 0.19337 0.63358 0.0
C972 C 0.06669 0.1867 0.61467 0.0
C973 C 0.05338 0.15446 0.5964 0.0
C974 C 0.15189 0.17312 0.654 0.0
C975 C 0.04626 0.21376 0.61327 0.0
H976 H 0.11777 0.27509 0.72896 0.0
H977 H 0.16859 0.31025 0.6268 0.0
H978 H 0.05562 0.19836 0.69688 0.0
H979 H 0.0937 0.18625 0.71161 0.0
H980 H 0.07791 0.21885 0.73668 0.0
H981 H 0.1683 0.27207 0.57813 0.0
H982 H 0.15925 0.22632 0.58799 0.0
H983 H 0.12328 0.24239 0.57426 0.0
H984 H 0.11553 0.11381 0.61835 0.0
H985 H 0.029 0.14967 0.58129 0.0
H986 H 0.14842 0.18142 0.6822 0.0
H987 H 0.17314 0.19476 0.64103 0.0
H988 H 0.1617 0.14948 0.65356 0.0
H989 H 0.04116 0.22328 0.64068 0.0
H990 H 0.0198 0.20327 0.60027 0.0
H991 H 0.06288 0.23671 0.59817 0.0
C992 C 0.75598 0.33852 0.44278 0.0
C993 C 0.75749 0.30574 0.45346 0.0
C994 C 0.73051 0.35392 0.45874 0.0
C995 C 0.7058 0.33581 0.4857 0.0
C996 C 0.70911 0.30397 0.49849 0.0
C997 C 0.73508 0.28926 0.48217 0.0
C998 C 0.72818 0.38822 0.44472 0.0
C999 C 0.68334 0.28398 0.52723 0.0
C1000 C 0.6466 0.38864 0.52811 0.0
C1001 C 0.61758 0.38011 0.50488 0.0
C1002 C 0.67471 0.37272 0.52385 0.0
C1003 C 0.67344 0.34758 0.49595 0.0
C1004 C 0.64275 0.33676 0.47443 0.0
C1005 C 0.61532 0.35333 0.479 0.0
C1006 C 0.70682 0.38458 0.54757 0.0
C1007 C 0.64011 0.30957 0.44469 0.0
H1008 H 0.77367 0.35133 0.42081 0.0
H1009 H 0.73619 0.26378 0.49029 0.0
H1010 H 0.70322 0.38346 0.4293 0.0
H1011 H 0.72628 0.40665 0.46715 0.0
H1012 H 0.75201 0.40091 0.42698 0.0
H1013 H 0.69391 0.26389 0.53905 0.0
H1014 H 0.67829 0.30196 0.54887 0.0
H1015 H 0.65682 0.27049 0.51551 0.0
H1016 H 0.64807 0.40875 0.54874 0.0
H1017 H 0.59325 0.34672 0.46069 0.0
H1018 H 0.73018 0.40202 0.53239 0.0
H1019 H 0.71535 0.36188 0.55607 0.0
H1020 H 0.70074 0.39923 0.57173 0.0
H1021 H 0.66053 0.32048 0.42299 0.0
H1022 H 0.61275 0.30129 0.43317 0.0
H1023 H 0.64617 0.28606 0.45455 0.0
loop_
_geom_bond_atom_site_label_1
_geom_bond_atom_site_label_2
_geom_bond_distance
_geom_bond_site_symmetry_2
_ccdc_geom_bond_type
H0 C5 0.930 . S
H1 C8 0.930 . S
H2 C10 0.930 . S
H3 C4 1.016 . S
C4 H3 1.016 . S
C4 N11 1.286 . S
C5 H0 0.930 . S
C5 C6 1.397 . S
C5 C7 1.361 . S
C6 C5 1.397 . S
C6 C10 1.390 . S
C7 C5 1.361 . S
C7 C8 1.393 . S
C7 N11 1.413 . S
C8 H1 0.930 . S
C8 C7 1.393 . S
C8 C9 1.399 . S
C9 C8 1.399 . S
C9 C10 1.381 . S
C10 H2 0.930 . S
C10 C6 1.390 . S
C10 C9 1.381 . S
N11 C4 1.286 . S
N11 C7 1.413 . S
H12 C17 0.930 . S
H13 C20 0.930 . S
H14 C22 0.930 . S
H15 C16 1.016 . S
C16 H15 1.016 . S
C16 N23 1.286 . S
C17 H12 0.930 . S
C17 C18 1.397 . S
C17 C19 1.361 . S
C18 C17 1.397 . S
C18 C22 1.390 . S
C19 C17 1.361 . S
C19 C20 1.393 . S
C19 N23 1.413 . S
C20 H13 0.930 . S
C20 C19 1.393 . S
C20 C21 1.399 . S
C21 C20 1.399 . S
C21 C22 1.381 . S
C22 H14 0.930 . S
C22 C18 1.390 . S
C22 C21 1.381 . S
N23 C16 1.286 . S
N23 C19 1.413 . S
H24 C29 0.930 . S
H25 C32 0.930 . S
H26 C34 0.930 . S
H27 C28 1.016 . S
C28 H27 1.016 . S
C28 N35 1.286 . S
C29 H24 0.930 . S
C29 C30 1.397 . S
C29 C31 1.361 . S
C30 C29 1.397 . S
C30 C34 1.390 . S
C31 C29 1.361 . S
C31 C32 1.393 . S
C31 N35 1.413 . S
C32 H25 0.930 . S
C32 C31 1.393 . S
C32 C33 1.399 . S
C33 C32 1.399 . S
C33 C34 1.381 . S
C34 H26 0.930 . S
C34 C30 1.390 . S
C34 C33 1.381 . S
N35 C28 1.286 . S
N35 C31 1.413 . S
H36 C41 0.930 . S
H37 C44 0.930 . S
H38 C46 0.930 . S
H39 C40 1.016 . S
C40 H39 1.016 . S
C40 N47 1.286 . S
C41 H36 0.930 . S
C41 C42 1.397 . S
C41 C43 1.361 . S
C42 C41 1.397 . S
C42 C46 1.390 . S
C43 C41 1.361 . S
C43 C44 1.393 . S
C43 N47 1.413 . S
C44 H37 0.930 . S
C44 C43 1.393 . S
C44 C45 1.399 . S
C45 C44 1.399 . S
C45 C46 1.381 . S
C46 H38 0.930 . S
C46 C42 1.390 . S
C46 C45 1.381 . S
N47 C40 1.286 . S
N47 C43 1.413 . S
H48 C53 0.930 . S
H49 C56 0.930 . S
H50 C58 0.930 . S
H51 C52 1.016 . S
C52 H51 1.016 . S
C52 N59 1.286 . S
C53 H48 0.930 . S
C53 C54 1.397 . S
C53 C55 1.361 . S
C54 C53 1.397 . S
C54 C58 1.390 . S
C55 C53 1.361 . S
C55 C56 1.393 . S
C55 N59 1.413 . S
C56 H49 0.930 . S
C56 C55 1.393 . S
C56 C57 1.399 . S
C57 C56 1.399 . S
C57 C58 1.381 . S
C58 H50 0.930 . S
C58 C54 1.390 . S
C58 C57 1.381 . S
N59 C52 1.286 . S
N59 C55 1.413 . S
H60 C65 0.930 . S
H61 C68 0.930 . S
H62 C70 0.930 . S
H63 C64 1.016 . S
C64 H63 1.016 . S
C64 N71 1.286 . S
C65 H60 0.930 . S
C65 C66 1.397 . S
C65 C67 1.361 . S
C66 C65 1.397 . S
C66 C70 1.390 . S
C67 C65 1.361 . S
C67 C68 1.393 . S
C67 N71 1.413 . S
C68 H61 0.930 . S
C68 C67 1.393 . S
C68 C69 1.399 . S
C69 C68 1.399 . S
C69 C70 1.381 . S
C70 H62 0.930 . S
C70 C66 1.390 . S
C70 C69 1.381 . S
N71 C64 1.286 . S
N71 C67 1.413 . S
H72 C77 0.930 . S
H73 C80 0.930 . S
H74 C82 0.930 . S
H75 C76 1.016 . S
C76 H75 1.016 . S
C76 N83 1.286 . S
C77 H72 0.930 . S
C77 C78 1.397 . S
C77 C79 1.361 . S
C78 C77 1.397 . S
C78 C82 1.390 . S
C79 C77 1.361 . S
C79 C80 1.393 . S
C79 N83 1.413 . S
C80 H73 0.930 . S
C80 C79 1.393 . S
C80 C81 1.399 . S
C81 C80 1.399 . S
C81 C82 1.381 . S
C82 H74 0.930 . S
C82 C78 1.390 . S
C82 C81 1.381 . S
N83 C76 1.286 . S
N83 C79 1.413 . S
H84 C89 0.930 . S
H85 C92 0.930 . S
H86 C94 0.930 . S
H87 C88 1.016 . S
C88 H87 1.016 . S
C88 N95 1.286 . S
C89 H84 0.930 . S
C89 C90 1.397 . S
C89 C91 1.361 . S
C90 C89 1.397 . S
C90 C94 1.390 . S
C91 C89 1.361 . S
C91 C92 1.393 . S
C91 N95 1.413 . S
C92 H85 0.930 . S
C92 C91 1.393 . S
C92 C93 1.399 . S
C93 C92 1.399 . S
C93 C94 1.381 . S
C94 H86 0.930 . S
C94 C90 1.390 . S
C94 C93 1.381 . S
N95 C88 1.286 . S
N95 C91 1.413 . S
Ho96 C99 2.811 . S
Ho96 O116 2.322 . S
Ho96 O118 2.378 . S
Ho96 O119 2.524 . S
Ho96 O120 2.381 1_545 S
Ho96 O121 2.669 1_545 S
Ho96 O123 2.346 1_445 S
Ho96 O127 2.305 1_455 S
Ho97 C108 2.812 . S
Ho97 O117 2.344 1_665 S
Ho97 O121 2.305 1_655 S
Ho97 O122 2.323 . S
Ho97 O124 2.379 . S
Ho97 O125 2.525 . S
Ho97 O126 2.380 1_565 S
Ho97 O127 2.668 1_565 S
C98 O116 1.259 . S
C98 O117 1.268 . S
C99 Ho96 2.811 . S
C99 C100 1.488 . S
C99 O118 1.215 . S
C99 O119 1.289 . S
C100 C99 1.488 . S
C100 C101 1.348 . S
C100 C105 1.413 . S
C101 C100 1.348 . S
C101 C102 1.442 . S
C101 H128 0.930 . S
C102 C101 1.442 . S
C102 C103 1.381 . S
C102 H129 0.931 . S
C103 C102 1.381 . S
C103 C104 1.321 . S
C104 C103 1.321 . S
C104 C105 1.403 . S
C104 H130 0.934 . S
C105 C100 1.413 . S
C105 C104 1.403 . S
C105 H131 0.930 . S
C106 O120 1.275 . S
C106 O121 1.256 . S
C107 O122 1.259 . S
C107 O123 1.268 . S
C108 Ho97 2.812 . S
C108 C109 1.488 . S
C108 O124 1.215 . S
C108 O125 1.289 . S
C109 C108 1.488 . S
C109 C110 1.348 . S
C109 C114 1.413 . S
C110 C109 1.348 . S
C110 C111 1.442 . S
C110 H132 0.930 . S
C111 C110 1.442 . S
C111 C112 1.381 . S
C111 H133 0.931 . S
C112 C111 1.381 . S
C112 C113 1.321 . S
C113 C112 1.321 . S
C113 C114 1.403 . S
C113 H134 0.934 . S
C114 C109 1.413 . S
C114 C113 1.403 . S
C114 H135 0.930 . S
C115 O126 1.275 . S
C115 O127 1.256 . S
O116 Ho96 2.322 . S
O116 C98 1.259 . S
O117 Ho97 2.344 1_445 S
O117 C98 1.268 . S
O118 Ho96 2.378 . S
O118 C99 1.215 . S
O119 Ho96 2.524 . S
O119 C99 1.289 . S
O120 Ho96 2.381 1_565 S
O120 C106 1.275 . S
O121 Ho96 2.669 1_565 S
O121 Ho97 2.305 1_455 S
O121 C106 1.256 . S
O122 Ho97 2.323 . S
O122 C107 1.259 . S
O123 Ho96 2.346 1_665 S
O123 C107 1.268 . S
O124 Ho97 2.379 . S
O124 C108 1.215 . S
O125 Ho97 2.525 . S
O125 C108 1.289 . S
O126 Ho97 2.380 1_545 S
O126 C115 1.275 . S
O127 Ho96 2.305 1_655 S
O127 Ho97 2.668 1_545 S
O127 C115 1.256 . S
H128 C101 0.930 . S
H129 C102 0.931 . S
H130 C104 0.934 . S
H131 C105 0.930 . S
H132 C110 0.930 . S
H133 C111 0.931 . S
H134 C113 0.934 . S
H135 C114 0.930 . S
Ho136 C139 2.811 . S
Ho136 O156 2.322 . S
Ho136 O158 2.378 . S
Ho136 O159 2.524 . S
Ho136 O160 2.381 1_545 S
Ho136 O161 2.669 1_545 S
Ho136 O163 2.346 1_544 S
Ho136 O167 2.304 1_554 S
Ho137 C148 2.811 1_545 S
Ho137 O157 2.346 1_556 S
Ho137 O161 2.305 1_546 S
Ho137 O162 2.322 1_545 S
Ho137 O164 2.378 1_545 S
Ho137 O165 2.524 1_545 S
Ho137 O166 2.381 . S
Ho137 O167 2.670 . S
C138 O156 1.259 . S
C138 O157 1.268 . S
C139 Ho136 2.811 . S
C139 C140 1.488 . S
C139 O158 1.215 . S
C139 O159 1.289 . S
C140 C139 1.488 . S
C140 C141 1.348 . S
C140 C145 1.413 . S
C141 C140 1.348 . S
C141 C142 1.442 . S
C141 H168 0.930 . S
C142 C141 1.442 . S
C142 C143 1.381 . S
C142 H169 0.931 . S
C143 C142 1.381 . S
C143 C144 1.321 . S
C144 C143 1.321 . S
C144 C145 1.403 . S
C144 H170 0.934 . S
C145 C140 1.413 . S
C145 C144 1.403 . S
C145 H171 0.930 . S
C146 O160 1.275 . S
C146 O161 1.256 . S
C147 O162 1.259 . S
C147 O163 1.268 . S
C148 Ho137 2.811 1_565 S
C148 C149 1.488 . S
C148 O164 1.215 . S
C148 O165 1.289 . S
C149 C148 1.488 . S
C149 C150 1.348 . S
C149 C154 1.413 . S
C150 C149 1.348 . S
C150 C151 1.442 . S
C150 H172 0.930 . S
C151 C150 1.442 . S
C151 C152 1.381 . S
C151 H173 0.931 . S
C152 C151 1.381 . S
C152 C153 1.321 . S
C153 C152 1.321 . S
C153 C154 1.403 . S
C153 H174 0.934 . S
C154 C149 1.413 . S
C154 C153 1.403 . S
C154 H175 0.930 . S
C155 O166 1.275 . S
C155 O167 1.257 . S
O156 Ho136 2.322 . S
O156 C138 1.259 . S
O157 Ho137 2.346 1_554 S
O157 C138 1.268 . S
O158 Ho136 2.378 . S
O158 C139 1.215 . S
O159 Ho136 2.524 . S
O159 C139 1.289 . S
O160 Ho136 2.381 1_565 S
O160 C146 1.275 . S
O161 Ho136 2.669 1_565 S
O161 Ho137 2.305 1_564 S
O161 C146 1.256 . S
O162 Ho137 2.322 1_565 S
O162 C147 1.259 . S
O163 Ho136 2.346 1_566 S
O163 C147 1.268 . S
O164 Ho137 2.378 1_565 S
O164 C148 1.215 . S
O165 Ho137 2.524 1_565 S
O165 C148 1.289 . S
O166 Ho137 2.381 . S
O166 C155 1.275 . S
O167 Ho136 2.304 1_556 S
O167 Ho137 2.670 . S
O167 C155 1.257 . S
H168 C141 0.930 . S
H169 C142 0.931 . S
H170 C144 0.934 . S
H171 C145 0.930 . S
H172 C150 0.930 . S
H173 C151 0.931 . S
H174 C153 0.934 . S
H175 C154 0.930 . S
Ho176 C179 2.811 . S
Ho176 O196 2.322 . S
Ho176 O198 2.378 . S
Ho176 O199 2.524 . S
Ho176 O200 2.381 . S
Ho176 O201 2.669 . S
Ho176 O203 2.346 . S
Ho176 O207 2.305 . S
Ho177 C188 2.811 . S
Ho177 O197 2.346 . S
Ho177 O201 2.305 . S
Ho177 O202 2.322 . S
Ho177 O204 2.378 . S
Ho177 O205 2.524 . S
Ho177 O206 2.381 . S
Ho177 O207 2.669 . S
C178 O196 1.259 . S
C178 O197 1.268 . S
C179 Ho176 2.811 . S
C179 C180 1.488 . S
C179 O198 1.215 . S
C179 O199 1.289 . S
C180 C179 1.488 . S
C180 C181 1.348 . S
C180 C185 1.413 . S
C181 C180 1.348 . S
C181 C182 1.442 . S
C181 H208 0.930 . S
C182 C181 1.442 . S
C182 C183 1.381 . S
C182 H209 0.931 . S
C183 C182 1.381 . S
C183 C184 1.321 . S
C184 C183 1.321 . S
C184 C185 1.403 . S
C184 H210 0.934 . S
C185 C180 1.413 . S
C185 C184 1.403 . S
C185 H211 0.930 . S
C186 O200 1.275 . S
C186 O201 1.256 . S
C187 O202 1.259 . S
C187 O203 1.268 . S
C188 Ho177 2.811 . S
C188 C189 1.488 . S
C188 O204 1.215 . S
C188 O205 1.289 . S
C189 C188 1.488 . S
C189 C190 1.348 . S
C189 C194 1.413 . S
C190 C189 1.348 . S
C190 C191 1.442 . S
C190 H212 0.930 . S
C191 C190 1.442 . S
C191 C192 1.381 . S
C191 H213 0.931 . S
C192 C191 1.381 . S
C192 C193 1.321 . S
C193 C192 1.321 . S
C193 C194 1.403 . S
C193 H214 0.934 . S
C194 C189 1.413 . S
C194 C193 1.403 . S
C194 H215 0.930 . S
C195 O206 1.275 . S
C195 O207 1.256 . S
O196 Ho176 2.322 . S
O196 C178 1.259 . S
O197 Ho177 2.346 . S
O197 C178 1.268 . S
O198 Ho176 2.378 . S
O198 C179 1.215 . S
O199 Ho176 2.524 . S
O199 C179 1.289 . S
O200 Ho176 2.381 . S
O200 C186 1.275 . S
O201 Ho176 2.669 . S
O201 Ho177 2.305 . S
O201 C186 1.256 . S
O202 Ho177 2.322 . S
O202 C187 1.259 . S
O203 Ho176 2.346 . S
O203 C187 1.268 . S
O204 Ho177 2.378 . S
O204 C188 1.215 . S
O205 Ho177 2.524 . S
O205 C188 1.289 . S
O206 Ho177 2.381 . S
O206 C195 1.275 . S
O207 Ho176 2.305 . S
O207 Ho177 2.669 . S
O207 C195 1.256 . S
H208 C181 0.930 . S
H209 C182 0.931 . S
H210 C184 0.934 . S
H211 C185 0.930 . S
H212 C190 0.930 . S
H213 C191 0.931 . S
H214 C193 0.934 . S
H215 C194 0.930 . S
Ho216 C219 2.811 . S
Ho216 O236 2.322 . S
Ho216 O238 2.378 . S
Ho216 O239 2.524 . S
Ho216 O240 2.381 1_455 S
Ho216 O241 2.669 1_455 S
Ho216 O243 2.346 1_454 S
Ho216 O247 2.305 1_554 S
Ho217 C228 2.811 1_455 S
Ho217 O237 2.346 1_556 S
Ho217 O241 2.305 1_456 S
Ho217 O242 2.322 1_455 S
Ho217 O244 2.378 1_455 S
Ho217 O245 2.524 1_455 S
Ho217 O246 2.381 . S
Ho217 O247 2.669 . S
C218 O236 1.259 . S
C218 O237 1.268 . S
C219 Ho216 2.811 . S
C219 C220 1.488 . S
C219 O238 1.215 . S
C219 O239 1.289 . S
C220 C219 1.488 . S
C220 C221 1.348 . S
C220 C225 1.413 . S
C221 C220 1.348 . S
C221 C222 1.442 . S
C221 H248 0.930 . S
C222 C221 1.442 . S
C222 C223 1.381 . S
C222 H249 0.931 . S
C223 C222 1.381 . S
C223 C224 1.321 . S
C224 C223 1.321 . S
C224 C225 1.403 . S
C224 H250 0.934 . S
C225 C220 1.413 . S
C225 C224 1.403 . S
C225 H251 0.930 . S
C226 O240 1.275 . S
C226 O241 1.256 . S
C227 O242 1.259 . S
C227 O243 1.268 . S
C228 Ho217 2.811 1_655 S
C228 C229 1.488 . S
C228 O244 1.215 . S
C228 O245 1.289 . S
C229 C228 1.488 . S
C229 C230 1.348 . S
C229 C234 1.413 . S
C230 C229 1.348 . S
C230 C231 1.442 . S
C230 H252 0.930 . S
C231 C230 1.442 . S
C231 C232 1.381 . S
C231 H253 0.931 . S
C232 C231 1.381 . S
C232 C233 1.321 . S
C233 C232 1.321 . S
C233 C234 1.403 . S
C233 H254 0.934 . S
C234 C229 1.413 . S
C234 C233 1.403 . S
C234 H255 0.930 . S
C235 O246 1.275 . S
C235 O247 1.256 . S
O236 Ho216 2.322 . S
O236 C218 1.259 . S
O237 Ho217 2.346 1_554 S
O237 C218 1.268 . S
O238 Ho216 2.378 . S
O238 C219 1.215 . S
O239 Ho216 2.524 . S
O239 C219 1.289 . S
O240 Ho216 2.381 1_655 S
O240 C226 1.275 . S
O241 Ho216 2.669 1_655 S
O241 Ho217 2.305 1_654 S
O241 C226 1.256 . S
O242 Ho217 2.322 1_655 S
O242 C227 1.259 . S
O243 Ho216 2.346 1_656 S
O243 C227 1.268 . S
O244 Ho217 2.378 1_655 S
O244 C228 1.215 . S
O245 Ho217 2.524 1_655 S
O245 C228 1.289 . S
O246 Ho217 2.381 . S
O246 C235 1.275 . S
O247 Ho216 2.305 1_556 S
O247 Ho217 2.669 . S
O247 C235 1.256 . S
H248 C221 0.930 . S
H249 C222 0.931 . S
H250 C224 0.934 . S
H251 C225 0.930 . S
H252 C230 0.930 . S
H253 C231 0.931 . S
H254 C233 0.934 . S
H255 C234 0.930 . S
C256 C257 1.391 . S
C256 C258 1.394 . S
C256 H272 0.931 . S
C257 C256 1.391 . S
C257 C261 1.376 . S
C258 C256 1.394 . S
C258 C259 1.369 . S
C258 C262 1.531 . S
C259 C258 1.369 . S
C259 C260 1.410 . S
C259 C267 1.503 . S
C260 C259 1.410 . S
C260 C261 1.392 . S
C260 C263 1.511 . S
C261 C257 1.376 . S
C261 C260 1.392 . S
C261 H273 0.929 . S
C262 C258 1.531 . S
C262 H274 0.960 . S
C262 H275 0.962 . S
C262 H276 0.960 . S
C263 C260 1.511 . S
C263 H277 0.961 . S
C263 H278 0.961 . S
C263 H279 0.961 . S
C264 C265 1.370 . S
C264 C266 1.363 . S
C264 H280 0.931 . S
C265 C264 1.370 . S
C265 C269 1.408 . S
C266 C264 1.363 . S
C266 C267 1.370 . S
C266 C270 1.524 . S
C267 C259 1.503 . S
C267 C266 1.370 . S
C267 C268 1.403 . S
C268 C267 1.403 . S
C268 C269 1.404 . S
C268 C271 1.539 . S
C269 C265 1.408 . S
C269 C268 1.404 . S
C269 H281 0.930 . S
C270 C266 1.524 . S
C270 H282 0.956 . S
C270 H283 0.961 . S
C270 H284 0.961 . S
C271 C268 1.539 . S
C271 H285 0.958 . S
C271 H286 0.961 . S
C271 H287 0.960 . S
H272 C256 0.931 . S
H273 C261 0.929 . S
H274 C262 0.960 . S
H275 C262 0.962 . S
H276 C262 0.960 . S
H277 C263 0.961 . S
H278 C263 0.961 . S
H279 C263 0.961 . S
H280 C264 0.931 . S
H281 C269 0.930 . S
H282 C270 0.956 . S
H283 C270 0.961 . S
H284 C270 0.961 . S
H285 C271 0.958 . S
H286 C271 0.961 . S
H287 C271 0.960 . S
C288 C289 1.391 . S
C288 C290 1.394 . S
C288 H304 0.931 . S
C289 C288 1.391 . S
C289 C293 1.376 . S
C290 C288 1.394 . S
C290 C291 1.369 . S
C290 C294 1.531 . S
C291 C290 1.369 . S
C291 C292 1.410 . S
C291 C299 1.503 . S
C292 C291 1.410 . S
C292 C293 1.392 . S
C292 C295 1.511 . S
C293 C289 1.376 . S
C293 C292 1.392 . S
C293 H305 0.929 . S
C294 C290 1.531 . S
C294 H306 0.960 . S
C294 H307 0.962 . S
C294 H308 0.960 . S
C295 C292 1.511 . S
C295 H309 0.961 . S
C295 H310 0.961 . S
C295 H311 0.961 . S
C296 C297 1.370 . S
C296 C298 1.363 . S
C296 H312 0.931 . S
C297 C296 1.370 . S
C297 C301 1.408 . S
C298 C296 1.363 . S
C298 C299 1.370 . S
C298 C302 1.524 . S
C299 C291 1.503 . S
C299 C298 1.370 . S
C299 C300 1.403 . S
C300 C299 1.403 . S
C300 C301 1.404 . S
C300 C303 1.539 . S
C301 C297 1.408 . S
C301 C300 1.404 . S
C301 H313 0.930 . S
C302 C298 1.524 . S
C302 H314 0.956 . S
C302 H315 0.961 . S
C302 H316 0.961 . S
C303 C300 1.539 . S
C303 H317 0.958 . S
C303 H318 0.961 . S
C303 H319 0.960 . S
H304 C288 0.931 . S
H305 C293 0.929 . S
H306 C294 0.960 . S
H307 C294 0.962 . S
H308 C294 0.960 . S
H309 C295 0.961 . S
H310 C295 0.961 . S
H311 C295 0.961 . S
H312 C296 0.931 . S
H313 C301 0.930 . S
H314 C302 0.956 . S
H315 C302 0.961 . S
H316 C302 0.961 . S
H317 C303 0.958 . S
H318 C303 0.961 . S
H319 C303 0.960 . S
C320 C321 1.391 . S
C320 C322 1.394 . S
C320 H336 0.931 . S
C321 C320 1.391 . S
C321 C325 1.376 . S
C322 C320 1.394 . S
C322 C323 1.369 . S
C322 C326 1.531 . S
C323 C322 1.369 . S
C323 C324 1.410 . S
C323 C331 1.503 . S
C324 C323 1.410 . S
C324 C325 1.392 . S
C324 C327 1.511 . S
C325 C321 1.376 . S
C325 C324 1.392 . S
C325 H337 0.929 . S
C326 C322 1.531 . S
C326 H338 0.960 . S
C326 H339 0.962 . S
C326 H340 0.960 . S
C327 C324 1.511 . S
C327 H341 0.961 . S
C327 H342 0.961 . S
C327 H343 0.961 . S
C328 C329 1.370 . S
C328 C330 1.363 . S
C328 H344 0.931 . S
C329 C328 1.370 . S
C329 C333 1.408 . S
C330 C328 1.363 . S
C330 C331 1.370 . S
C330 C334 1.524 . S
C331 C323 1.503 . S
C331 C330 1.370 . S
C331 C332 1.403 . S
C332 C331 1.403 . S
C332 C333 1.404 . S
C332 C335 1.539 . S
C333 C329 1.408 . S
C333 C332 1.404 . S
C333 H345 0.930 . S
C334 C330 1.524 . S
C334 H346 0.956 . S
C334 H347 0.961 . S
C334 H348 0.961 . S
C335 C332 1.539 . S
C335 H349 0.958 . S
C335 H350 0.961 . S
C335 H351 0.960 . S
H336 C320 0.931 . S
H337 C325 0.929 . S
H338 C326 0.960 . S
H339 C326 0.962 . S
H340 C326 0.960 . S
H341 C327 0.961 . S
H342 C327 0.961 . S
H343 C327 0.961 . S
H344 C328 0.931 . S
H345 C333 0.930 . S
H346 C334 0.956 . S
H347 C334 0.961 . S
H348 C334 0.961 . S
H349 C335 0.958 . S
H350 C335 0.961 . S
H351 C335 0.960 . S
C352 C353 1.391 . S
C352 C354 1.394 . S
C352 H368 0.931 . S
C353 C352 1.391 . S
C353 C357 1.376 . S
C354 C352 1.394 . S
C354 C355 1.369 . S
C354 C358 1.531 . S
C355 C354 1.369 . S
C355 C356 1.410 . S
C355 C363 1.503 . S
C356 C355 1.410 . S
C356 C357 1.392 . S
C356 C359 1.511 . S
C357 C353 1.376 . S
C357 C356 1.392 . S
C357 H369 0.929 . S
C358 C354 1.531 . S
C358 H370 0.960 . S
C358 H371 0.962 . S
C358 H372 0.960 . S
C359 C356 1.511 . S
C359 H373 0.961 . S
C359 H374 0.961 . S
C359 H375 0.961 . S
C360 C361 1.370 . S
C360 C362 1.363 . S
C360 H376 0.931 . S
C361 C360 1.370 . S
C361 C365 1.408 . S
C362 C360 1.363 . S
C362 C363 1.370 . S
C362 C366 1.524 . S
C363 C355 1.503 . S
C363 C362 1.370 . S
C363 C364 1.403 . S
C364 C363 1.403 . S
C364 C365 1.404 . S
C364 C367 1.539 . S
C365 C361 1.408 . S
C365 C364 1.404 . S
C365 H377 0.930 1_655 S
C366 C362 1.524 . S
C366 H378 0.956 . S
C366 H379 0.961 . S
C366 H380 0.961 . S
C367 C364 1.539 . S
C367 H381 0.958 . S
C367 H382 0.961 1_655 S
C367 H383 0.960 . S
H368 C352 0.931 . S
H369 C357 0.929 . S
H370 C358 0.960 . S
H371 C358 0.962 . S
H372 C358 0.960 . S
H373 C359 0.961 . S
H374 C359 0.961 . S
H375 C359 0.961 . S
H376 C360 0.931 . S
H377 C365 0.930 1_455 S
H378 C366 0.956 . S
H379 C366 0.961 . S
H380 C366 0.961 . S
H381 C367 0.958 . S
H382 C367 0.961 1_455 S
H383 C367 0.960 . S
C384 C385 1.391 . S
C384 C386 1.394 . S
C384 H400 0.931 . S
C385 C384 1.391 . S
C385 C389 1.376 . S
C386 C384 1.394 . S
C386 C387 1.369 . S
C386 C390 1.531 . S
C387 C386 1.369 . S
C387 C388 1.410 . S
C387 C395 1.503 . S
C388 C387 1.410 . S
C388 C389 1.392 . S
C388 C391 1.511 . S
C389 C385 1.376 . S
C389 C388 1.392 . S
C389 H401 0.929 . S
C390 C386 1.531 . S
C390 H402 0.960 . S
C390 H403 0.962 . S
C390 H404 0.960 . S
C391 C388 1.511 . S
C391 H405 0.961 . S
C391 H406 0.961 . S
C391 H407 0.961 . S
C392 C393 1.370 . S
C392 C394 1.363 . S
C392 H408 0.931 . S
C393 C392 1.370 . S
C393 C397 1.408 . S
C394 C392 1.363 . S
C394 C395 1.370 . S
C394 C398 1.524 . S
C395 C387 1.503 . S
C395 C394 1.370 . S
C395 C396 1.403 . S
C396 C395 1.403 . S
C396 C397 1.404 . S
C396 C399 1.539 . S
C397 C393 1.408 . S
C397 C396 1.404 . S
C397 H409 0.930 . S
C398 C394 1.524 . S
C398 H410 0.956 . S
C398 H411 0.961 . S
C398 H412 0.961 . S
C399 C396 1.539 . S
C399 H413 0.958 . S
C399 H414 0.961 . S
C399 H415 0.960 . S
H400 C384 0.931 . S
H401 C389 0.929 . S
H402 C390 0.960 . S
H403 C390 0.962 . S
H404 C390 0.960 . S
H405 C391 0.961 . S
H406 C391 0.961 . S
H407 C391 0.961 . S
H408 C392 0.931 . S
H409 C397 0.930 . S
H410 C398 0.956 . S
H411 C398 0.961 . S
H412 C398 0.961 . S
H413 C399 0.958 . S
H414 C399 0.961 . S
H415 C399 0.960 . S
C416 C417 1.391 . S
C416 C418 1.394 . S
C416 H432 0.931 . S
C417 C416 1.391 . S
C417 C421 1.376 . S
C418 C416 1.394 . S
C418 C419 1.369 . S
C418 C422 1.531 . S
C419 C418 1.369 . S
C419 C420 1.410 . S
C419 C427 1.503 . S
C420 C419 1.410 . S
C420 C421 1.392 . S
C420 C423 1.511 . S
C421 C417 1.376 . S
C421 C420 1.392 . S
C421 H433 0.929 . S
C422 C418 1.531 . S
C422 H434 0.960 . S
C422 H435 0.962 . S
C422 H436 0.960 . S
C423 C420 1.511 . S
C423 H437 0.961 . S
C423 H438 0.961 . S
C423 H439 0.961 . S
C424 C425 1.370 . S
C424 C426 1.363 . S
C424 H440 0.931 . S
C425 C424 1.370 . S
C425 C429 1.408 . S
C426 C424 1.363 . S
C426 C427 1.370 . S
C426 C430 1.524 . S
C427 C419 1.503 . S
C427 C426 1.370 . S
C427 C428 1.403 . S
C428 C427 1.403 . S
C428 C429 1.404 . S
C428 C431 1.539 . S
C429 C425 1.408 . S
C429 C428 1.404 . S
C429 H441 0.930 . S
C430 C426 1.524 . S
C430 H442 0.956 . S
C430 H443 0.961 . S
C430 H444 0.961 . S
C431 C428 1.539 . S
C431 H445 0.958 . S
C431 H446 0.961 . S
C431 H447 0.960 . S
H432 C416 0.931 . S
H433 C421 0.929 . S
H434 C422 0.960 . S
H435 C422 0.962 . S
H436 C422 0.960 . S
H437 C423 0.961 . S
H438 C423 0.961 . S
H439 C423 0.961 . S
H440 C424 0.931 . S
H441 C429 0.930 . S
H442 C430 0.956 . S
H443 C430 0.961 . S
H444 C430 0.961 . S
H445 C431 0.958 . S
H446 C431 0.961 . S
H447 C431 0.960 . S
C448 C449 1.391 . S
C448 C450 1.394 . S
C448 H464 0.931 . S
C449 C448 1.391 . S
C449 C453 1.376 . S
C450 C448 1.394 . S
C450 C451 1.369 . S
C450 C454 1.531 . S
C451 C450 1.369 . S
C451 C452 1.410 . S
C451 C459 1.503 . S
C452 C451 1.410 . S
C452 C453 1.392 . S
C452 C455 1.511 . S
C453 C449 1.376 . S
C453 C452 1.392 . S
C453 H465 0.929 . S
C454 C450 1.531 . S
C454 H466 0.960 . S
C454 H467 0.962 . S
C454 H468 0.960 . S
C455 C452 1.511 . S
C455 H469 0.961 . S
C455 H470 0.961 . S
C455 H471 0.961 . S
C456 C457 1.370 . S
C456 C458 1.363 . S
C456 H472 0.931 . S
C457 C456 1.370 . S
C457 C461 1.408 . S
C458 C456 1.363 . S
C458 C459 1.370 . S
C458 C462 1.524 . S
C459 C451 1.503 . S
C459 C458 1.370 . S
C459 C460 1.403 . S
C460 C459 1.403 . S
C460 C461 1.404 . S
C460 C463 1.539 . S
C461 C457 1.408 . S
C461 C460 1.404 . S
C461 H473 0.930 . S
C462 C458 1.524 . S
C462 H474 0.956 . S
C462 H475 0.961 . S
C462 H476 0.961 . S
C463 C460 1.539 . S
C463 H477 0.958 . S
C463 H478 0.961 . S
C463 H479 0.960 . S
H464 C448 0.931 . S
H465 C453 0.929 . S
H466 C454 0.960 . S
H467 C454 0.962 . S
H468 C454 0.960 . S
H469 C455 0.961 . S
H470 C455 0.961 . S
H471 C455 0.961 . S
H472 C456 0.931 . S
H473 C461 0.930 . S
H474 C462 0.956 . S
H475 C462 0.961 . S
H476 C462 0.961 . S
H477 C463 0.958 . S
H478 C463 0.961 . S
H479 C463 0.960 . S
C480 C481 1.391 . S
C480 C482 1.394 . S
C480 H496 0.931 . S
C481 C480 1.391 . S
C481 C485 1.376 . S
C482 C480 1.394 . S
C482 C483 1.369 . S
C482 C486 1.531 . S
C483 C482 1.369 . S
C483 C484 1.410 . S
C483 C491 1.503 . S
C484 C483 1.410 . S
C484 C485 1.392 . S
C484 C487 1.511 . S
C485 C481 1.376 . S
C485 C484 1.392 . S
C485 H497 0.929 . S
C486 C482 1.531 . S
C486 H498 0.960 . S
C486 H499 0.962 . S
C486 H500 0.960 . S
C487 C484 1.511 . S
C487 H501 0.961 . S
C487 H502 0.961 . S
C487 H503 0.961 . S
C488 C489 1.370 . S
C488 C490 1.363 . S
C488 H504 0.931 . S
C489 C488 1.370 . S
C489 C493 1.408 . S
C490 C488 1.363 . S
C490 C491 1.370 . S
C490 C494 1.524 . S
C491 C483 1.503 . S
C491 C490 1.370 . S
C491 C492 1.403 . S
C492 C491 1.403 . S
C492 C493 1.404 . S
C492 C495 1.539 . S
C493 C489 1.408 . S
C493 C492 1.404 . S
C493 H505 0.930 . S
C494 C490 1.524 . S
C494 H506 0.956 . S
C494 H507 0.961 . S
C494 H508 0.961 . S
C495 C492 1.539 . S
C495 H509 0.958 . S
C495 H510 0.961 . S
C495 H511 0.960 . S
H496 C480 0.931 . S
H497 C485 0.929 . S
H498 C486 0.960 . S
H499 C486 0.962 . S
H500 C486 0.960 . S
H501 C487 0.961 . S
H502 C487 0.961 . S
H503 C487 0.961 . S
H504 C488 0.931 . S
H505 C493 0.930 . S
H506 C494 0.956 . S
H507 C494 0.961 . S
H508 C494 0.961 . S
H509 C495 0.958 . S
H510 C495 0.961 . S
H511 C495 0.960 . S
C512 C513 1.391 . S
C512 C514 1.394 . S
C512 H528 0.931 . S
C513 C512 1.391 . S
C513 C517 1.376 . S
C514 C512 1.394 . S
C514 C515 1.369 . S
C514 C518 1.531 . S
C515 C514 1.369 . S
C515 C516 1.410 . S
C515 C523 1.503 . S
C516 C515 1.410 . S
C516 C517 1.392 . S
C516 C519 1.511 . S
C517 C513 1.376 . S
C517 C516 1.392 . S
C517 H529 0.929 . S
C518 C514 1.531 . S
C518 H530 0.960 . S
C518 H531 0.962 . S
C518 H532 0.960 . S
C519 C516 1.511 . S
C519 H533 0.961 . S
C519 H534 0.961 . S
C519 H535 0.961 . S
C520 C521 1.370 . S
C520 C522 1.363 . S
C520 H536 0.931 . S
C521 C520 1.370 . S
C521 C525 1.408 . S
C522 C520 1.363 . S
C522 C523 1.370 . S
C522 C526 1.524 . S
C523 C515 1.503 . S
C523 C522 1.370 . S
C523 C524 1.403 . S
C524 C523 1.403 . S
C524 C525 1.404 . S
C524 C527 1.539 . S
C525 C521 1.408 . S
C525 C524 1.404 . S
C525 H537 0.930 . S
C526 C522 1.524 . S
C526 H538 0.956 . S
C526 H539 0.961 . S
C526 H540 0.961 . S
C527 C524 1.539 . S
C527 H541 0.958 . S
C527 H542 0.961 . S
C527 H543 0.960 . S
H528 C512 0.931 . S
H529 C517 0.929 . S
H530 C518 0.960 . S
H531 C518 0.962 . S
H532 C518 0.960 . S
H533 C519 0.961 . S
H534 C519 0.961 . S
H535 C519 0.961 . S
H536 C520 0.931 . S
H537 C525 0.930 . S
H538 C526 0.956 . S
H539 C526 0.961 . S
H540 C526 0.961 . S
H541 C527 0.958 . S
H542 C527 0.961 . S
H543 C527 0.960 . S
C544 C545 1.391 . S
C544 C546 1.394 . S
C544 H560 0.931 . S
C545 C544 1.391 . S
C545 C549 1.376 . S
C546 C544 1.394 . S
C546 C547 1.369 . S
C546 C550 1.531 . S
C547 C546 1.369 . S
C547 C548 1.410 . S
C547 C555 1.503 . S
C548 C547 1.410 . S
C548 C549 1.392 . S
C548 C551 1.511 . S
C549 C545 1.376 . S
C549 C548 1.392 . S
C549 H561 0.929 . S
C550 C546 1.531 . S
C550 H562 0.960 . S
C550 H563 0.962 . S
C550 H564 0.960 . S
C551 C548 1.511 . S
C551 H565 0.961 . S
C551 H566 0.961 . S
C551 H567 0.961 . S
C552 C553 1.370 . S
C552 C554 1.363 . S
C552 H568 0.931 . S
C553 C552 1.370 . S
C553 C557 1.408 . S
C554 C552 1.363 . S
C554 C555 1.370 . S
C554 C558 1.524 . S
C555 C547 1.503 . S
C555 C554 1.370 . S
C555 C556 1.403 . S
C556 C555 1.403 . S
C556 C557 1.404 . S
C556 C559 1.539 . S
C557 C553 1.408 . S
C557 C556 1.404 . S
C557 H569 0.930 . S
C558 C554 1.524 . S
C558 H570 0.956 . S
C558 H571 0.961 . S
C558 H572 0.961 . S
C559 C556 1.539 . S
C559 H573 0.958 . S
C559 H574 0.961 . S
C559 H575 0.960 . S
H560 C544 0.931 . S
H561 C549 0.929 . S
H562 C550 0.960 . S
H563 C550 0.962 . S
H564 C550 0.960 . S
H565 C551 0.961 . S
H566 C551 0.961 . S
H567 C551 0.961 . S
H568 C552 0.931 . S
H569 C557 0.930 . S
H570 C558 0.956 . S
H571 C558 0.961 . S
H572 C558 0.961 . S
H573 C559 0.958 . S
H574 C559 0.961 . S
H575 C559 0.960 . S
C576 C577 1.391 . S
C576 C578 1.394 . S
C576 H592 0.931 . S
C577 C576 1.391 . S
C577 C581 1.376 . S
C578 C576 1.394 . S
C578 C579 1.369 . S
C578 C582 1.531 . S
C579 C578 1.369 . S
C579 C580 1.410 . S
C579 C587 1.503 . S
C580 C579 1.410 . S
C580 C581 1.392 . S
C580 C583 1.511 . S
C581 C577 1.376 . S
C581 C580 1.392 . S
C581 H593 0.929 . S
C582 C578 1.531 . S
C582 H594 0.960 . S
C582 H595 0.962 . S
C582 H596 0.960 . S
C583 C580 1.511 . S
C583 H597 0.961 . S
C583 H598 0.961 . S
C583 H599 0.961 . S
C584 C585 1.370 . S
C584 C586 1.363 . S
C584 H600 0.931 . S
C585 C584 1.370 . S
C585 C589 1.408 . S
C586 C584 1.363 . S
C586 C587 1.370 . S
C586 C590 1.524 . S
C587 C579 1.503 . S
C587 C586 1.370 . S
C587 C588 1.403 . S
C588 C587 1.403 . S
C588 C589 1.404 . S
C588 C591 1.539 . S
C589 C585 1.408 . S
C589 C588 1.404 . S
C589 H601 0.930 . S
C590 C586 1.524 . S
C590 H602 0.956 . S
C590 H603 0.961 . S
C590 H604 0.961 . S
C591 C588 1.539 . S
C591 H605 0.958 . S
C591 H606 0.961 . S
C591 H607 0.960 . S
H592 C576 0.931 . S
H593 C581 0.929 . S
H594 C582 0.960 . S
H595 C582 0.962 . S
H596 C582 0.960 . S
H597 C583 0.961 . S
H598 C583 0.961 . S
H599 C583 0.961 . S
H600 C584 0.931 . S
H601 C589 0.930 . S
H602 C590 0.956 . S
H603 C590 0.961 . S
H604 C590 0.961 . S
H605 C591 0.958 . S
H606 C591 0.961 . S
H607 C591 0.960 . S
C608 C609 1.391 . S
C608 C610 1.394 . S
C608 H624 0.931 . S
C609 C608 1.391 . S
C609 C613 1.376 . S
C610 C608 1.394 . S
C610 C611 1.369 . S
C610 C614 1.531 . S
C611 C610 1.369 . S
C611 C612 1.410 . S
C611 C619 1.503 . S
C612 C611 1.410 . S
C612 C613 1.392 . S
C612 C615 1.511 . S
C613 C609 1.376 . S
C613 C612 1.392 . S
C613 H625 0.929 . S
C614 C610 1.531 . S
C614 H626 0.960 . S
C614 H627 0.962 . S
C614 H628 0.960 . S
C615 C612 1.511 . S
C615 H629 0.961 . S
C615 H630 0.961 . S
C615 H631 0.961 . S
C616 C617 1.370 . S
C616 C618 1.363 . S
C616 H632 0.931 . S
C617 C616 1.370 . S
C617 C621 1.408 . S
C618 C616 1.363 . S
C618 C619 1.370 . S
C618 C622 1.524 . S
C619 C611 1.503 . S
C619 C618 1.370 . S
C619 C620 1.403 . S
C620 C619 1.403 . S
C620 C621 1.404 . S
C620 C623 1.539 . S
C621 C617 1.408 . S
C621 C620 1.404 . S
C621 H633 0.930 . S
C622 C618 1.524 . S
C622 H634 0.956 . S
C622 H635 0.961 . S
C622 H636 0.961 . S
C623 C620 1.539 . S
C623 H637 0.958 . S
C623 H638 0.961 . S
C623 H639 0.960 . S
H624 C608 0.931 . S
H625 C613 0.929 . S
H626 C614 0.960 . S
H627 C614 0.962 . S
H628 C614 0.960 . S
H629 C615 0.961 . S
H630 C615 0.961 . S
H631 C615 0.961 . S
H632 C616 0.931 . S
H633 C621 0.930 . S
H634 C622 0.956 . S
H635 C622 0.961 . S
H636 C622 0.961 . S
H637 C623 0.958 . S
H638 C623 0.961 . S
H639 C623 0.960 . S
C640 C641 1.391 . S
C640 C642 1.394 . S
C640 H656 0.931 . S
C641 C640 1.391 . S
C641 C645 1.376 . S
C642 C640 1.394 . S
C642 C643 1.369 . S
C642 C646 1.531 . S
C643 C642 1.369 . S
C643 C644 1.410 . S
C643 C651 1.503 . S
C644 C643 1.410 . S
C644 C645 1.392 . S
C644 C647 1.511 . S
C645 C641 1.376 . S
C645 C644 1.392 . S
C645 H657 0.929 . S
C646 C642 1.531 . S
C646 H658 0.960 . S
C646 H659 0.962 . S
C646 H660 0.960 . S
C647 C644 1.511 . S
C647 H661 0.961 . S
C647 H662 0.961 . S
C647 H663 0.961 . S
C648 C649 1.370 . S
C648 C650 1.363 . S
C648 H664 0.931 . S
C649 C648 1.370 . S
C649 C653 1.408 . S
C650 C648 1.363 . S
C650 C651 1.370 . S
C650 C654 1.524 . S
C651 C643 1.503 . S
C651 C650 1.370 . S
C651 C652 1.403 . S
C652 C651 1.403 . S
C652 C653 1.404 . S
C652 C655 1.539 . S
C653 C649 1.408 . S
C653 C652 1.404 . S
C653 H665 0.930 . S
C654 C650 1.524 . S
C654 H666 0.956 . S
C654 H667 0.961 . S
C654 H668 0.961 . S
C655 C652 1.539 . S
C655 H669 0.958 . S
C655 H670 0.961 . S
C655 H671 0.960 . S
H656 C640 0.931 . S
H657 C645 0.929 . S
H658 C646 0.960 . S
H659 C646 0.962 . S
H660 C646 0.960 . S
H661 C647 0.961 . S
H662 C647 0.961 . S
H663 C647 0.961 . S
H664 C648 0.931 . S
H665 C653 0.930 . S
H666 C654 0.956 . S
H667 C654 0.961 . S
H668 C654 0.961 . S
H669 C655 0.958 . S
H670 C655 0.961 . S
H671 C655 0.960 . S
C672 C673 1.391 . S
C672 C674 1.394 . S
C672 H688 0.931 . S
C673 C672 1.391 . S
C673 C677 1.376 . S
C674 C672 1.394 . S
C674 C675 1.369 . S
C674 C678 1.531 . S
C675 C674 1.369 . S
C675 C676 1.410 . S
C675 C683 1.503 . S
C676 C675 1.410 . S
C676 C677 1.392 . S
C676 C679 1.511 . S
C677 C673 1.376 . S
C677 C676 1.392 . S
C677 H689 0.929 . S
C678 C674 1.531 . S
C678 H690 0.960 . S
C678 H691 0.962 . S
C678 H692 0.960 . S
C679 C676 1.511 . S
C679 H693 0.961 . S
C679 H694 0.961 . S
C679 H695 0.961 . S
C680 C681 1.370 . S
C680 C682 1.363 . S
C680 H696 0.931 . S
C681 C680 1.370 . S
C681 C685 1.408 . S
C682 C680 1.363 . S
C682 C683 1.370 . S
C682 C686 1.524 . S
C683 C675 1.503 . S
C683 C682 1.370 . S
C683 C684 1.403 . S
C684 C683 1.403 . S
C684 C685 1.404 . S
C684 C687 1.539 . S
C685 C681 1.408 . S
C685 C684 1.404 . S
C685 H697 0.930 . S
C686 C682 1.524 . S
C686 H698 0.956 . S
C686 H699 0.961 . S
C686 H700 0.961 . S
C687 C684 1.539 . S
C687 H701 0.958 . S
C687 H702 0.961 . S
C687 H703 0.960 . S
H688 C672 0.931 . S
H689 C677 0.929 . S
H690 C678 0.960 . S
H691 C678 0.962 . S
H692 C678 0.960 . S
H693 C679 0.961 . S
H694 C679 0.961 . S
H695 C679 0.961 . S
H696 C680 0.931 . S
H697 C685 0.930 . S
H698 C686 0.956 . S
H699 C686 0.961 . S
H700 C686 0.961 . S
H701 C687 0.958 . S
H702 C687 0.961 . S
H703 C687 0.960 . S
C704 C705 1.391 . S
C704 C706 1.394 . S
C704 H720 0.931 . S
C705 C704 1.391 . S
C705 C709 1.376 . S
C706 C704 1.394 . S
C706 C707 1.369 . S
C706 C710 1.531 . S
C707 C706 1.369 . S
C707 C708 1.410 . S
C707 C715 1.503 . S
C708 C707 1.410 . S
C708 C709 1.392 . S
C708 C711 1.511 . S
C709 C705 1.376 . S
C709 C708 1.392 . S
C709 H721 0.929 . S
C710 C706 1.531 . S
C710 H722 0.960 . S
C710 H723 0.962 . S
C710 H724 0.960 . S
C711 C708 1.511 . S
C711 H725 0.961 . S
C711 H726 0.961 . S
C711 H727 0.961 . S
C712 C713 1.370 . S
C712 C714 1.363 . S
C712 H728 0.931 . S
C713 C712 1.370 . S
C713 C717 1.408 . S
C714 C712 1.363 . S
C714 C715 1.370 . S
C714 C718 1.524 . S
C715 C707 1.503 . S
C715 C714 1.370 . S
C715 C716 1.403 . S
C716 C715 1.403 . S
C716 C717 1.404 . S
C716 C719 1.539 . S
C717 C713 1.408 . S
C717 C716 1.404 . S
C717 H729 0.930 . S
C718 C714 1.524 . S
C718 H730 0.956 . S
C718 H731 0.961 . S
C718 H732 0.961 . S
C719 C716 1.539 . S
C719 H733 0.958 . S
C719 H734 0.961 . S
C719 H735 0.960 . S
H720 C704 0.931 . S
H721 C709 0.929 . S
H722 C710 0.960 . S
H723 C710 0.962 . S
H724 C710 0.960 . S
H725 C711 0.961 . S
H726 C711 0.961 . S
H727 C711 0.961 . S
H728 C712 0.931 . S
H729 C717 0.930 . S
H730 C718 0.956 . S
H731 C718 0.961 . S
H732 C718 0.961 . S
H733 C719 0.958 . S
H734 C719 0.961 . S
H735 C719 0.960 . S
C736 C737 1.391 . S
C736 C738 1.394 . S
C736 H752 0.931 . S
C737 C736 1.391 . S
C737 C741 1.376 . S
C738 C736 1.394 . S
C738 C739 1.369 . S
C738 C742 1.531 . S
C739 C738 1.369 . S
C739 C740 1.410 . S
C739 C747 1.503 . S
C740 C739 1.410 . S
C740 C741 1.392 . S
C740 C743 1.511 . S
C741 C737 1.376 . S
C741 C740 1.392 . S
C741 H753 0.929 . S
C742 C738 1.531 . S
C742 H754 0.960 . S
C742 H755 0.962 . S
C742 H756 0.960 . S
C743 C740 1.511 . S
C743 H757 0.961 . S
C743 H758 0.961 . S
C743 H759 0.961 . S
C744 C745 1.370 . S
C744 C746 1.363 . S
C744 H760 0.931 . S
C745 C744 1.370 . S
C745 C749 1.408 . S
C746 C744 1.363 . S
C746 C747 1.370 . S
C746 C750 1.524 . S
C747 C739 1.503 . S
C747 C746 1.370 . S
C747 C748 1.403 . S
C748 C747 1.403 . S
C748 C749 1.404 . S
C748 C751 1.539 . S
C749 C745 1.408 . S
C749 C748 1.404 . S
C749 H761 0.930 . S
C750 C746 1.524 . S
C750 H762 0.956 . S
C750 H763 0.961 . S
C750 H764 0.961 . S
C751 C748 1.539 . S
C751 H765 0.958 . S
C751 H766 0.961 . S
C751 H767 0.960 . S
H752 C736 0.931 . S
H753 C741 0.929 . S
H754 C742 0.960 . S
H755 C742 0.962 . S
H756 C742 0.960 . S
H757 C743 0.961 . S
H758 C743 0.961 . S
H759 C743 0.961 . S
H760 C744 0.931 . S
H761 C749 0.930 . S
H762 C750 0.956 . S
H763 C750 0.961 . S
H764 C750 0.961 . S
H765 C751 0.958 . S
H766 C751 0.961 . S
H767 C751 0.960 . S
C768 C769 1.391 . S
C768 C770 1.394 . S
C768 H784 0.931 . S
C769 C768 1.391 . S
C769 C773 1.376 . S
C770 C768 1.394 . S
C770 C771 1.369 . S
C770 C774 1.531 . S
C771 C770 1.369 . S
C771 C772 1.410 . S
C771 C779 1.503 . S
C772 C771 1.410 . S
C772 C773 1.392 . S
C772 C775 1.511 . S
C773 C769 1.376 . S
C773 C772 1.392 . S
C773 H785 0.929 . S
C774 C770 1.531 . S
C774 H786 0.960 . S
C774 H787 0.962 . S
C774 H788 0.960 . S
C775 C772 1.511 . S
C775 H789 0.961 . S
C775 H790 0.961 . S
C775 H791 0.961 . S
C776 C777 1.370 . S
C776 C778 1.363 . S
C776 H792 0.931 . S
C777 C776 1.370 . S
C777 C781 1.408 . S
C778 C776 1.363 . S
C778 C779 1.370 . S
C778 C782 1.524 . S
C779 C771 1.503 . S
C779 C778 1.370 . S
C779 C780 1.403 . S
C780 C779 1.403 . S
C780 C781 1.404 . S
C780 C783 1.539 . S
C781 C777 1.408 . S
C781 C780 1.404 . S
C781 H793 0.930 . S
C782 C778 1.524 . S
C782 H794 0.956 . S
C782 H795 0.961 . S
C782 H796 0.961 . S
C783 C780 1.539 . S
C783 H797 0.958 . S
C783 H798 0.961 . S
C783 H799 0.960 . S
H784 C768 0.931 . S
H785 C773 0.929 . S
H786 C774 0.960 . S
H787 C774 0.962 . S
H788 C774 0.960 . S
H789 C775 0.961 . S
H790 C775 0.961 . S
H791 C775 0.961 . S
H792 C776 0.931 . S
H793 C781 0.930 . S
H794 C782 0.956 . S
H795 C782 0.961 . S
H796 C782 0.961 . S
H797 C783 0.958 . S
H798 C783 0.961 . S
H799 C783 0.960 . S
C800 C801 1.391 . S
C800 C802 1.394 . S
C800 H816 0.931 . S
C801 C800 1.391 . S
C801 C805 1.376 . S
C802 C800 1.394 . S
C802 C803 1.369 . S
C802 C806 1.531 . S
C803 C802 1.369 . S
C803 C804 1.410 . S
C803 C811 1.503 . S
C804 C803 1.410 . S
C804 C805 1.392 . S
C804 C807 1.511 . S
C805 C801 1.376 . S
C805 C804 1.392 . S
C805 H817 0.929 . S
C806 C802 1.531 . S
C806 H818 0.960 . S
C806 H819 0.962 . S
C806 H820 0.960 . S
C807 C804 1.511 . S
C807 H821 0.961 . S
C807 H822 0.961 . S
C807 H823 0.961 . S
C808 C809 1.370 . S
C808 C810 1.363 . S
C808 H824 0.931 . S
C809 C808 1.370 . S
C809 C813 1.408 . S
C810 C808 1.363 . S
C810 C811 1.370 . S
C810 C814 1.524 . S
C811 C803 1.503 . S
C811 C810 1.370 . S
C811 C812 1.403 . S
C812 C811 1.403 . S
C812 C813 1.404 . S
C812 C815 1.539 . S
C813 C809 1.408 . S
C813 C812 1.404 . S
C813 H825 0.930 . S
C814 C810 1.524 . S
C814 H826 0.956 . S
C814 H827 0.961 . S
C814 H828 0.961 . S
C815 C812 1.539 . S
C815 H829 0.958 . S
C815 H830 0.961 . S
C815 H831 0.960 . S
H816 C800 0.931 . S
H817 C805 0.929 . S
H818 C806 0.960 . S
H819 C806 0.962 . S
H820 C806 0.960 . S
H821 C807 0.961 . S
H822 C807 0.961 . S
H823 C807 0.961 . S
H824 C808 0.931 . S
H825 C813 0.930 . S
H826 C814 0.956 . S
H827 C814 0.961 . S
H828 C814 0.961 . S
H829 C815 0.958 . S
H830 C815 0.961 . S
H831 C815 0.960 . S
C832 C833 1.391 . S
C832 C834 1.394 . S
C832 H848 0.931 . S
C833 C832 1.391 . S
C833 C837 1.376 . S
C834 C832 1.394 . S
C834 C835 1.369 . S
C834 C838 1.531 . S
C835 C834 1.369 . S
C835 C836 1.410 . S
C835 C843 1.503 . S
C836 C835 1.410 . S
C836 C837 1.392 . S
C836 C839 1.511 . S
C837 C833 1.376 . S
C837 C836 1.392 . S
C837 H849 0.929 . S
C838 C834 1.531 . S
C838 H850 0.960 . S
C838 H851 0.962 . S
C838 H852 0.960 . S
C839 C836 1.511 . S
C839 H853 0.961 . S
C839 H854 0.961 . S
C839 H855 0.961 . S
C840 C841 1.370 . S
C840 C842 1.363 . S
C840 H856 0.931 . S
C841 C840 1.370 . S
C841 C845 1.408 . S
C842 C840 1.363 . S
C842 C843 1.370 . S
C842 C846 1.524 . S
C843 C835 1.503 . S
C843 C842 1.370 . S
C843 C844 1.403 . S
C844 C843 1.403 . S
C844 C845 1.404 . S
C844 C847 1.539 . S
C845 C841 1.408 . S
C845 C844 1.404 . S
C845 H857 0.930 . S
C846 C842 1.524 . S
C846 H858 0.956 . S
C846 H859 0.961 . S
C846 H860 0.961 . S
C847 C844 1.539 . S
C847 H861 0.958 . S
C847 H862 0.961 . S
C847 H863 0.960 . S
H848 C832 0.931 . S
H849 C837 0.929 . S
H850 C838 0.960 . S
H851 C838 0.962 . S
H852 C838 0.960 . S
H853 C839 0.961 . S
H854 C839 0.961 . S
H855 C839 0.961 . S
H856 C840 0.931 . S
H857 C845 0.930 . S
H858 C846 0.956 . S
H859 C846 0.961 . S
H860 C846 0.961 . S
H861 C847 0.958 . S
H862 C847 0.961 . S
H863 C847 0.960 . S
C864 C865 1.391 . S
C864 C866 1.394 . S
C864 H880 0.931 . S
C865 C864 1.391 . S
C865 C869 1.376 . S
C866 C864 1.394 . S
C866 C867 1.369 . S
C866 C870 1.531 . S
C867 C866 1.369 . S
C867 C868 1.410 . S
C867 C875 1.503 . S
C868 C867 1.410 . S
C868 C869 1.392 . S
C868 C871 1.511 . S
C869 C865 1.376 . S
C869 C868 1.392 . S
C869 H881 0.929 . S
C870 C866 1.531 . S
C870 H882 0.960 . S
C870 H883 0.962 . S
C870 H884 0.960 . S
C871 C868 1.511 . S
C871 H885 0.961 . S
C871 H886 0.961 . S
C871 H887 0.961 . S
C872 C873 1.370 . S
C872 C874 1.363 . S
C872 H888 0.931 . S
C873 C872 1.370 . S
C873 C877 1.408 . S
C874 C872 1.363 . S
C874 C875 1.370 . S
C874 C878 1.524 . S
C875 C867 1.503 . S
C875 C874 1.370 . S
C875 C876 1.403 . S
C876 C875 1.403 . S
C876 C877 1.404 . S
C876 C879 1.539 . S
C877 C873 1.408 . S
C877 C876 1.404 . S
C877 H889 0.930 . S
C878 C874 1.524 . S
C878 H890 0.956 . S
C878 H891 0.961 . S
C878 H892 0.961 . S
C879 C876 1.539 . S
C879 H893 0.958 . S
C879 H894 0.961 . S
C879 H895 0.960 . S
H880 C864 0.931 . S
H881 C869 0.929 . S
H882 C870 0.960 . S
H883 C870 0.962 . S
H884 C870 0.960 . S
H885 C871 0.961 . S
H886 C871 0.961 . S
H887 C871 0.961 . S
H888 C872 0.931 . S
H889 C877 0.930 . S
H890 C878 0.956 . S
H891 C878 0.961 . S
H892 C878 0.961 . S
H893 C879 0.958 . S
H894 C879 0.961 . S
H895 C879 0.960 . S
C896 C897 1.391 . S
C896 C898 1.394 . S
C896 H912 0.931 . S
C897 C896 1.391 . S
C897 C901 1.376 . S
C898 C896 1.394 . S
C898 C899 1.369 . S
C898 C902 1.531 . S
C899 C898 1.369 . S
C899 C900 1.410 . S
C899 C907 1.503 . S
C900 C899 1.410 . S
C900 C901 1.392 . S
C900 C903 1.511 . S
C901 C897 1.376 . S
C901 C900 1.392 . S
C901 H913 0.929 . S
C902 C898 1.531 . S
C902 H914 0.960 . S
C902 H915 0.962 . S
C902 H916 0.960 . S
C903 C900 1.511 . S
C903 H917 0.961 . S
C903 H918 0.961 . S
C903 H919 0.961 . S
C904 C905 1.370 . S
C904 C906 1.363 . S
C904 H920 0.931 . S
C905 C904 1.370 . S
C905 C909 1.408 . S
C906 C904 1.363 . S
C906 C907 1.370 . S
C906 C910 1.524 . S
C907 C899 1.503 . S
C907 C906 1.370 . S
C907 C908 1.403 . S
C908 C907 1.403 . S
C908 C909 1.404 . S
C908 C911 1.539 . S
C909 C905 1.408 . S
C909 C908 1.404 . S
C909 H921 0.930 . S
C910 C906 1.524 . S
C910 H922 0.956 . S
C910 H923 0.961 . S
C910 H924 0.961 . S
C911 C908 1.539 . S
C911 H925 0.958 . S
C911 H926 0.961 . S
C911 H927 0.960 . S
H912 C896 0.931 . S
H913 C901 0.929 . S
H914 C902 0.960 . S
H915 C902 0.962 . S
H916 C902 0.960 . S
H917 C903 0.961 . S
H918 C903 0.961 . S
H919 C903 0.961 . S
H920 C904 0.931 . S
H921 C909 0.930 . S
H922 C910 0.956 . S
H923 C910 0.961 . S
H924 C910 0.961 . S
H925 C911 0.958 . S
H926 C911 0.961 . S
H927 C911 0.960 . S
C928 C929 1.391 . S
C928 C930 1.394 . S
C928 H944 0.931 . S
C929 C928 1.391 . S
C929 C933 1.376 . S
C930 C928 1.394 . S
C930 C931 1.369 . S
C930 C934 1.531 . S
C931 C930 1.369 . S
C931 C932 1.410 . S
C931 C939 1.503 . S
C932 C931 1.410 . S
C932 C933 1.392 . S
C932 C935 1.511 . S
C933 C929 1.376 . S
C933 C932 1.392 . S
C933 H945 0.929 . S
C934 C930 1.531 . S
C934 H946 0.960 . S
C934 H947 0.962 . S
C934 H948 0.960 . S
C935 C932 1.511 . S
C935 H949 0.961 . S
C935 H950 0.961 . S
C935 H951 0.961 . S
C936 C937 1.370 . S
C936 C938 1.363 . S
C936 H952 0.931 . S
C937 C936 1.370 . S
C937 C941 1.408 . S
C938 C936 1.363 . S
C938 C939 1.370 . S
C938 C942 1.524 . S
C939 C931 1.503 . S
C939 C938 1.370 . S
C939 C940 1.403 . S
C940 C939 1.403 . S
C940 C941 1.404 . S
C940 C943 1.539 . S
C941 C937 1.408 . S
C941 C940 1.404 . S
C941 H953 0.930 . S
C942 C938 1.524 . S
C942 H954 0.956 . S
C942 H955 0.961 . S
C942 H956 0.961 . S
C943 C940 1.539 . S
C943 H957 0.958 . S
C943 H958 0.961 . S
C943 H959 0.960 . S
H944 C928 0.931 . S
H945 C933 0.929 . S
H946 C934 0.960 . S
H947 C934 0.962 . S
H948 C934 0.960 . S
H949 C935 0.961 . S
H950 C935 0.961 . S
H951 C935 0.961 . S
H952 C936 0.931 . S
H953 C941 0.930 . S
H954 C942 0.956 . S
H955 C942 0.961 . S
H956 C942 0.961 . S
H957 C943 0.958 . S
H958 C943 0.961 . S
H959 C943 0.960 . S
C960 C961 1.391 . S
C960 C962 1.394 . S
C960 H976 0.931 . S
C961 C960 1.391 . S
C961 C965 1.376 . S
C962 C960 1.394 . S
C962 C963 1.369 . S
C962 C966 1.531 . S
C963 C962 1.369 . S
C963 C964 1.410 . S
C963 C971 1.503 . S
C964 C963 1.410 . S
C964 C965 1.392 . S
C964 C967 1.511 . S
C965 C961 1.376 . S
C965 C964 1.392 . S
C965 H977 0.929 . S
C966 C962 1.531 . S
C966 H978 0.960 . S
C966 H979 0.962 . S
C966 H980 0.960 . S
C967 C964 1.511 . S
C967 H981 0.961 . S
C967 H982 0.961 . S
C967 H983 0.961 . S
C968 C969 1.370 . S
C968 C970 1.363 . S
C968 H984 0.931 . S
C969 C968 1.370 . S
C969 C973 1.408 . S
C970 C968 1.363 . S
C970 C971 1.370 . S
C970 C974 1.524 . S
C971 C963 1.503 . S
C971 C970 1.370 . S
C971 C972 1.403 . S
C972 C971 1.403 . S
C972 C973 1.404 . S
C972 C975 1.539 . S
C973 C969 1.408 . S
C973 C972 1.404 . S
C973 H985 0.930 . S
C974 C970 1.524 . S
C974 H986 0.956 . S
C974 H987 0.961 . S
C974 H988 0.961 . S
C975 C972 1.539 . S
C975 H989 0.958 . S
C975 H990 0.961 . S
C975 H991 0.960 . S
H976 C960 0.931 . S
H977 C965 0.929 . S
H978 C966 0.960 . S
H979 C966 0.962 . S
H980 C966 0.960 . S
H981 C967 0.961 . S
H982 C967 0.961 . S
H983 C967 0.961 . S
H984 C968 0.931 . S
H985 C973 0.930 . S
H986 C974 0.956 . S
H987 C974 0.961 . S
H988 C974 0.961 . S
H989 C975 0.958 . S
H990 C975 0.961 . S
H991 C975 0.960 . S
C992 C993 1.391 . S
C992 C994 1.394 . S
C992 H1008 0.931 . S
C993 C992 1.391 . S
C993 C997 1.376 . S
C994 C992 1.394 . S
C994 C995 1.369 . S
C994 C998 1.531 . S
C995 C994 1.369 . S
C995 C996 1.410 . S
C995 C1003 1.503 . S
C996 C995 1.410 . S
C996 C997 1.392 . S
C996 C999 1.511 . S
C997 C993 1.376 . S
C997 C996 1.392 . S
C997 H1009 0.929 . S
C998 C994 1.531 . S
C998 H1010 0.960 . S
C998 H1011 0.962 . S
C998 H1012 0.960 . S
C999 C996 1.511 . S
C999 H1013 0.961 . S
C999 H1014 0.961 . S
C999 H1015 0.961 . S
C1000 C1001 1.370 . S
C1000 C1002 1.363 . S
C1000 H1016 0.931 . S
C1001 C1000 1.370 . S
C1001 C1005 1.408 . S
C1002 C1000 1.363 . S
C1002 C1003 1.370 . S
C1002 C1006 1.524 . S
C1003 C995 1.503 . S
C1003 C1002 1.370 . S
C1003 C1004 1.403 . S
C1004 C1003 1.403 . S
C1004 C1005 1.404 . S
C1004 C1007 1.539 . S
C1005 C1001 1.408 . S
C1005 C1004 1.404 . S
C1005 H1017 0.930 . S
C1006 C1002 1.524 . S
C1006 H1018 0.956 . S
C1006 H1019 0.961 . S
C1006 H1020 0.961 . S
C1007 C1004 1.539 . S
C1007 H1021 0.958 . S
C1007 H1022 0.961 . S
C1007 H1023 0.960 . S
H1008 C992 0.931 . S
H1009 C997 0.929 . S
H1010 C998 0.960 . S
H1011 C998 0.962 . S
H1012 C998 0.960 . S
H1013 C999 0.961 . S
H1014 C999 0.961 . S
H1015 C999 0.961 . S
H1016 C1000 0.931 . S
H1017 C1005 0.930 . S
H1018 C1006 0.956 . S
H1019 C1006 0.961 . S
H1020 C1006 0.961 . S
H1021 C1007 0.958 . S
H1022 C1007 0.961 . S
H1023 C1007 0.960 . S
C257 C6 1.090 . S
C265 C103 1.079 . S
C289 C18 1.273 . S
C297 C152 1.232 . S
C329 C178 2.572 . S
C321 C28 2.612 . S
C353 C40 1.780 . S
C361 C226 1.753 . S
C393 C138 2.349 . S
C385 C9 2.222 . S
C425 C106 0.831 . S
C417 C16 0.868 . S
C457 C227 1.889 . S
C449 C30 1.919 . S
C489 C195 1.292 . S
C481 C42 1.314 . S
C513 C4 1.490 . S
C521 C223 1.508 . S
C553 C155 2.517 . S
C545 C33 2.574 . S
C577 C45 2.070 . S
C585 C107 2.061 . S
C609 C21 1.051 . S
C617 C192 1.033 . S
C649 C112 1.095 . S
C641 C57 1.111 . S
C673 C66 1.268 . S
C681 C143 1.272 . S
C705 C76 2.666 . S
C713 C187 2.625 . S
C737 C88 1.710 . S
C745 C235 1.695 . S
C769 C54 2.202 . S
C777 C147 2.331 . S
C809 C115 0.947 . S
C801 C64 0.978 . S
C841 C218 1.798 . S
C833 C78 1.832 . S
C873 C186 1.329 . S
C865 C93 1.342 . S
C897 C52 1.422 . S
C905 C232 1.514 . S
C937 C146 2.511 . S
C929 C81 2.558 . S
C969 C98 2.046 . S
C961 C90 2.043 . S
C993 C69 0.978 . S
C1001 C183 1.059 . S
