# Generated by pormake.
# Topology nom, (4,4)-cn, num edge types: 1
# Building blocks:
#     Node 0, Type 0, BuildingBlock: MIFKUJ_clean_linker_1, # of connection points: 4
#     Node 1, Type 0, BuildingBlock: MIFKUJ_clean_linker_1, # of connection points: 4
#     Node 2, Type 0, BuildingBlock: MIFKUJ_clean_linker_1, # of connection points: 4
#     Node 3, Type 0, BuildingBlock: MIFKUJ_clean_linker_1, # of connection points: 4
#     Node 4, Type 0, BuildingBlock: MIFKUJ_clean_linker_1, # of connection points: 4
#     Node 5, Type 0, BuildingBlock: MIFKUJ_clean_linker_1, # of connection points: 4
#     Node 6, Type 1, BuildingBlock: KUFVIS_clean_sbu_0, # of connection points: 4
#     Node 7, Type 1, BuildingBlock: KUFVIS_clean_sbu_0, # of connection points: 4
#     Node 8, Type 1, BuildingBlock: KUFVIS_clean_sbu_0, # of connection points: 4
#     Node 9, Type 1, BuildingBlock: KUFVIS_clean_sbu_0, # of connection points: 4
#     Node 10, Type 1, BuildingBlock: KUFVIS_clean_sbu_0, # of connection points: 4
#     Node 11, Type 1, BuildingBlock: KUFVIS_clean_sbu_0, # of connection points: 4
#     Edge 12, Type (0, 1), BuildingBlock: UVAHIK_clean_linker_0, # of connection points: 2
#     Edge 13, Type (0, 1), BuildingBlock: UVAHIK_clean_linker_0, # of connection points: 2
#     Edge 14, Type (0, 1), BuildingBlock: UVAHIK_clean_linker_0, # of connection points: 2
#     Edge 15, Type (0, 1), BuildingBlock: UVAHIK_clean_linker_0, # of connection points: 2
#     Edge 16, Type (0, 1), BuildingBlock: UVAHIK_clean_linker_0, # of connection points: 2
#     Edge 17, Type (0, 1), BuildingBlock: UVAHIK_clean_linker_0, # of connection points: 2
#     Edge 18, Type (0, 1), BuildingBlock: UVAHIK_clean_linker_0, # of connection points: 2
#     Edge 19, Type (0, 1), BuildingBlock: UVAHIK_clean_linker_0, # of connection points: 2
#     Edge 20, Type (0, 1), BuildingBlock: UVAHIK_clean_linker_0, # of connection points: 2
#     Edge 21, Type (0, 1), BuildingBlock: UVAHIK_clean_linker_0, # of connection points: 2
#     Edge 22, Type (0, 1), BuildingBlock: UVAHIK_clean_linker_0, # of connection points: 2
#     Edge 23, Type (0, 1), BuildingBlock: UVAHIK_clean_linker_0, # of connection points: 2
#     Edge 24, Type (0, 1), BuildingBlock: UVAHIK_clean_linker_0, # of connection points: 2
#     Edge 25, Type (0, 1), BuildingBlock: UVAHIK_clean_linker_0, # of connection points: 2
#     Edge 26, Type (0, 1), BuildingBlock: UVAHIK_clean_linker_0, # of connection points: 2
#     Edge 27, Type (0, 1), BuildingBlock: UVAHIK_clean_linker_0, # of connection points: 2
#     Edge 28, Type (0, 1), BuildingBlock: UVAHIK_clean_linker_0, # of connection points: 2
#     Edge 29, Type (0, 1), BuildingBlock: UVAHIK_clean_linker_0, # of connection points: 2
#     Edge 30, Type (0, 1), BuildingBlock: UVAHIK_clean_linker_0, # of connection points: 2
#     Edge 31, Type (0, 1), BuildingBlock: UVAHIK_clean_linker_0, # of connection points: 2
#     Edge 32, Type (0, 1), BuildingBlock: UVAHIK_clean_linker_0, # of connection points: 2
#     Edge 33, Type (0, 1), BuildingBlock: UVAHIK_clean_linker_0, # of connection points: 2
#     Edge 34, Type (0, 1), BuildingBlock: UVAHIK_clean_linker_0, # of connection points: 2
#     Edge 35, Type (0, 1), BuildingBlock: UVAHIK_clean_linker_0, # of connection points: 2
# Relax obj value: 0.001
# Max RMSD: 0.099
# Mean RMSD: 0.062
data_MOF--net-nom--node1-KUFVIS_clean_sbu_0--node2-MIFKUJ_clean_linker_1--edge1-UVAHIK_clean_linker_0
_symmetry_space_group_name_H-M    P1
_symmetry_Int_Tables_number       1
_symmetry_cell_setting            triclinic
loop_
_symmetry_equiv_pos_as_xyz
'x, y, z'
_cell_length_a     65.721602
_cell_length_b     66.377927
_cell_length_c     70.276564
_cell_angle_alpha  90.614062
_cell_angle_beta   90.632468
_cell_angle_gamma 120.0088
loop_
_atom_site_label
_atom_site_type_symbol
_atom_site_fract_x
_atom_site_fract_y
_atom_site_fract_z
_atom_type_partial_charge
H0 H 0.97706 0.48125 0.28655 0.0
H1 H 0.94942 0.46859 0.25928 0.0
H2 H 0.93603 0.52486 0.271 0.0
H3 H 0.96328 0.53714 0.29847 0.0
H4 H 0.01843 0.52949 0.29225 0.0
H5 H 0.94443 0.47381 0.32007 0.0
H6 H 0.90304 0.45813 0.32754 0.0
H7 H 0.92113 0.5212 0.35937 0.0
H8 H 0.96209 0.53726 0.35084 0.0
H9 H 0.02642 0.56804 0.36817 0.0
H10 H 0.05355 0.58241 0.39558 0.0
H11 H 0.0849 0.54219 0.37639 0.0
H12 H 0.05729 0.52737 0.34935 0.0
H13 H 0.99309 0.52541 0.35902 0.0
H14 H 0.05812 0.58497 0.32597 0.0
H15 H 0.09863 0.60898 0.31538 0.0
H16 H 0.09823 0.54736 0.29456 0.0
H17 H 0.0574 0.52336 0.30486 0.0
C18 C 0.97203 0.51 0.2945 0.0
C19 C 0.96806 0.49075 0.28326 0.0
C20 C 0.95228 0.48352 0.26779 0.0
C21 C 0.94069 0.4958 0.26312 0.0
C22 C 0.94486 0.5152 0.27431 0.0
C23 C 0.9603 0.52215 0.28998 0.0
C24 C 0.98886 0.51781 0.31075 0.0
C25 C 0.01288 0.52815 0.30689 0.0
C26 C 0.98156 0.51698 0.32972 0.0
C27 C 0.95639 0.50691 0.33461 0.0
C28 C 0.93941 0.48441 0.32838 0.0
C29 C 0.91575 0.47532 0.3329 0.0
C30 C 0.90863 0.48843 0.34397 0.0
C31 C 0.9258 0.51077 0.35047 0.0
C32 C 0.94935 0.51991 0.34579 0.0
C33 C 0.03989 0.54673 0.35665 0.0
C34 C 0.03916 0.56235 0.36987 0.0
C35 C 0.05479 0.57068 0.38544 0.0
C36 C 0.07137 0.56343 0.38816 0.0
C37 C 0.07218 0.54792 0.3748 0.0
C38 C 0.05657 0.53963 0.35923 0.0
C39 C 0.02269 0.5372 0.34054 0.0
C40 C 0.99862 0.52646 0.3444 0.0
C41 C 0.02989 0.53836 0.32151 0.0
C42 C 0.05486 0.55242 0.31625 0.0
C43 C 0.06682 0.57662 0.31926 0.0
C44 C 0.08985 0.5903 0.31314 0.0
C45 C 0.10143 0.57996 0.30415 0.0
C46 C 0.08966 0.55567 0.30155 0.0
C47 C 0.06641 0.54201 0.30736 0.0
H48 H 0.44027 0.97152 0.5177 0.0
H49 H 0.41883 0.93136 0.52827 0.0
H50 H 0.46815 0.9171 0.49948 0.0
H51 H 0.48963 0.95749 0.4889 0.0
H52 H 0.48399 0.00428 0.52584 0.0
H53 H 0.44038 0.96254 0.46957 0.0
H54 H 0.42771 0.93519 0.44244 0.0
H55 H 0.49821 0.97098 0.42096 0.0
H56 H 0.5112 0.99758 0.44854 0.0
H57 H 0.54211 0.06293 0.46428 0.0
H58 H 0.56045 0.10335 0.45402 0.0
H59 H 0.51222 0.11365 0.48836 0.0
H60 H 0.49344 0.07311 0.49812 0.0
H61 H 0.50055 0.02815 0.45863 0.0
H62 H 0.54521 0.06678 0.51571 0.0
H63 H 0.55911 0.09367 0.54309 0.0
H64 H 0.48751 0.06477 0.56171 0.0
H65 H 0.47386 0.03767 0.53454 0.0
C66 C 0.4665 0.96752 0.50243 0.0
C67 C 0.44651 0.95977 0.51367 0.0
C68 C 0.43432 0.93682 0.51977 0.0
C69 C 0.44186 0.92106 0.51481 0.0
C70 C 0.46177 0.92876 0.50339 0.0
C71 C 0.47406 0.95182 0.49734 0.0
C72 C 0.47969 0.99226 0.4967 0.0
C73 C 0.48742 0.00947 0.5111 0.0
C74 C 0.48481 0.99905 0.4775 0.0
C75 C 0.47688 0.98196 0.46134 0.0
C76 C 0.45328 0.96421 0.45931 0.0
C77 C 0.44599 0.94868 0.44376 0.0
C78 C 0.46201 0.95106 0.42968 0.0
C79 C 0.48552 0.96889 0.4316 0.0
C80 C 0.49292 0.98408 0.44734 0.0
C81 C 0.51657 0.06497 0.48221 0.0
C82 C 0.53544 0.07386 0.4696 0.0
C83 C 0.54591 0.09694 0.46373 0.0
C84 C 0.53782 0.11165 0.47047 0.0
C85 C 0.51904 0.1028 0.48317 0.0
C86 C 0.50837 0.07964 0.48882 0.0
C87 C 0.50483 0.04011 0.48777 0.0
C88 C 0.49732 0.0229 0.47336 0.0
C89 C 0.50005 0.03324 0.50695 0.0
C90 C 0.50849 0.05028 0.52306 0.0
C91 C 0.53252 0.06639 0.52563 0.0
C92 C 0.54042 0.08179 0.54127 0.0
C93 C 0.52444 0.08135 0.55466 0.0
C94 C 0.50036 0.06532 0.55189 0.0
C95 C 0.4925 0.04989 0.53631 0.0
H96 H 0.52481 0.55645 0.69624 0.0
H97 H 0.51237 0.57085 0.72344 0.0
H98 H 0.43977 0.52182 0.70903 0.0
H99 H 0.45232 0.50722 0.6822 0.0
H100 H 0.51604 0.51095 0.68966 0.0
H101 H 0.499 0.56617 0.65693 0.0
H102 H 0.47397 0.5824 0.64832 0.0
H103 H 0.42005 0.51434 0.62817 0.0
H104 H 0.44544 0.49858 0.63621 0.0
H105 H 0.47942 0.46585 0.61673 0.0
H106 H 0.4903 0.44993 0.58958 0.0
H107 H 0.56372 0.49557 0.60374 0.0
H108 H 0.55275 0.51144 0.63083 0.0
H109 H 0.48947 0.51051 0.62319 0.0
H110 H 0.49788 0.45354 0.65629 0.0
H111 H 0.51499 0.43012 0.66625 0.0
H112 H 0.57701 0.49234 0.68711 0.0
H113 H 0.55916 0.51555 0.67769 0.0
C114 C 0.48949 0.53092 0.68713 0.0
C115 C 0.50623 0.54889 0.69895 0.0
C116 C 0.49909 0.55719 0.71438 0.0
C117 C 0.47509 0.54747 0.71836 0.0
C118 C 0.45839 0.52952 0.70643 0.0
C119 C 0.46553 0.5213 0.691 0.0
C120 C 0.497 0.52165 0.67108 0.0
C121 C 0.51072 0.51137 0.67506 0.0
C122 C 0.48908 0.52115 0.65219 0.0
C123 C 0.47407 0.53119 0.64716 0.0
C124 C 0.48178 0.55482 0.65064 0.0
C125 C 0.46739 0.56403 0.64579 0.0
C126 C 0.445 0.54973 0.63744 0.0
C127 C 0.43736 0.52602 0.63416 0.0
C128 C 0.4518 0.51691 0.63884 0.0
C129 C 0.51528 0.48976 0.62581 0.0
C130 C 0.49785 0.47234 0.61401 0.0
C131 C 0.50407 0.46319 0.5986 0.0
C132 C 0.52785 0.47156 0.59456 0.0
C133 C 0.54526 0.48893 0.60645 0.0
C134 C 0.53903 0.49788 0.62198 0.0
C135 C 0.5087 0.50005 0.64174 0.0
C136 C 0.49518 0.51051 0.63774 0.0
C137 C 0.51617 0.50008 0.66068 0.0
C138 C 0.52735 0.48629 0.66611 0.0
C139 C 0.51524 0.46214 0.66288 0.0
C140 C 0.52515 0.44878 0.66852 0.0
C141 C 0.54751 0.45929 0.67741 0.0
C142 C 0.55965 0.48358 0.68055 0.0
C143 C 0.54956 0.49692 0.67507 0.0
H144 H 0.02798 0.55507 0.78302 0.0
H145 H 0.05472 0.56702 0.75613 0.0
H146 H 0.07863 0.52008 0.7739 0.0
H147 H 0.05152 0.50789 0.80051 0.0
H148 H 0.99119 0.51003 0.79214 0.0
H149 H 0.06773 0.56896 0.81886 0.0
H150 H 0.10957 0.58372 0.8254 0.0
H151 H 0.09182 0.5223 0.85787 0.0
H152 H 0.05036 0.50722 0.85051 0.0
H153 H 0.98712 0.47876 0.86834 0.0
H154 H 0.96043 0.46504 0.89503 0.0
H155 H 0.93154 0.50799 0.8773 0.0
H156 H 0.95774 0.52083 0.8501 0.0
H157 H 0.0211 0.52199 0.85881 0.0
H158 H 0.95042 0.46134 0.83457 0.0
H159 H 0.90873 0.43736 0.82639 0.0
H160 H 0.91379 0.49002 0.78816 0.0
H161 H 0.9554 0.51484 0.79725 0.0
C162 C 0.03792 0.53076 0.79383 0.0
C163 C 0.03894 0.54731 0.78105 0.0
C164 C 0.05436 0.55426 0.7658 0.0
C165 C 0.06889 0.54458 0.76294 0.0
C166 C 0.06756 0.52774 0.77563 0.0
C167 C 0.0522 0.52087 0.79091 0.0
C168 C 0.022 0.52393 0.81028 0.0
C169 C 0.99767 0.51308 0.80675 0.0
C170 C 0.03055 0.52688 0.82928 0.0
C171 C 0.05591 0.53682 0.83397 0.0
C172 C 0.07291 0.55862 0.82725 0.0
C173 C 0.09681 0.56714 0.83116 0.0
C174 C 0.10409 0.55409 0.842 0.0
C175 C 0.08692 0.53258 0.84912 0.0
C176 C 0.06314 0.52404 0.84511 0.0
C177 C 0.97438 0.50077 0.85723 0.0
C178 C 0.97508 0.48527 0.87026 0.0
C179 C 0.95984 0.47753 0.8856 0.0
C180 C 0.94381 0.48545 0.88846 0.0
C181 C 0.94334 0.5012 0.87543 0.0
C182 C 0.95842 0.50871 0.85993 0.0
C183 C 0.99024 0.50837 0.84071 0.0
C184 C 0.01454 0.51934 0.84422 0.0
C185 C 0.98158 0.50463 0.82169 0.0
C186 C 0.95604 0.49027 0.81695 0.0
C187 C 0.94251 0.46818 0.82492 0.0
C188 C 0.91871 0.45437 0.82014 0.0
C189 C 0.90812 0.462 0.80681 0.0
C190 C 0.92162 0.48387 0.79856 0.0
C191 C 0.94535 0.49797 0.8037 0.0
H192 H 0.56772 0.06106 0.01442 0.0
H193 H 0.59358 0.10194 0.02278 0.0
H194 H 0.54165 0.11792 1.0007 0.0
H195 H 0.51625 0.07689 0.99164 0.0
H196 H 0.52128 0.03024 0.02593 0.0
H197 H 0.56475 0.0643 0.96867 0.0
H198 H 0.57903 0.09205 0.94273 0.0
H199 H 0.50738 0.06834 0.92468 0.0
H200 H 0.49321 0.04098 0.95099 0.0
H201 H 0.46121 0.96889 0.96316 0.0
H202 H 0.4437 0.92814 0.95264 0.0
H203 H 0.49396 0.92092 0.9877 0.0
H204 H 0.51189 0.96173 0.99769 0.0
H205 H 0.50231 0.00454 0.95833 0.0
H206 H 0.45936 0.96464 0.01306 0.0
H207 H 0.44635 0.93674 0.0388 0.0
H208 H 0.51679 0.97214 0.063 0.0
H209 H 0.52994 0.99899 0.03659 0.0
C210 C 0.54012 0.06599 0.00243 0.0
C211 C 0.56189 0.07338 0.01146 0.0
C212 C 0.5766 0.09679 0.01633 0.0
C213 C 0.56969 0.11333 0.01257 0.0
C214 C 0.54771 0.10578 0.00361 0.0
C215 C 0.53309 0.08232 0.99853 0.0
C216 C 0.52511 0.04117 0.99687 0.0
C217 C 0.51716 0.02448 0.01117 0.0
C218 C 0.51924 0.03393 0.97764 0.0
C219 C 0.52791 0.05076 0.96189 0.0
C220 C 0.55212 0.06524 0.95924 0.0
C221 C 0.56026 0.08095 0.9443 0.0
C222 C 0.54434 0.08242 0.93164 0.0
C223 C 0.52009 0.06785 0.93432 0.0
C224 C 0.51196 0.05209 0.94925 0.0
C225 C 0.48764 0.96833 0.98148 0.0
C226 C 0.46849 0.95855 0.96856 0.0
C227 C 0.45851 0.93531 0.96256 0.0
C228 C 0.46739 0.92138 0.96948 0.0
C229 C 0.48653 0.93117 0.98239 0.0
C230 C 0.49672 0.95447 0.98815 0.0
C231 C 0.49877 0.99324 0.9874 0.0
C232 C 0.50598 0.01007 0.97316 0.0
C233 C 0.50392 1.00057 0.00677 0.0
C234 C 0.49572 0.98381 0.02269 0.0
C235 C 0.47208 0.9662 0.02377 0.0
C236 C 0.46459 0.9504 0.03867 0.0
C237 C 0.4805 0.95207 0.05304 0.0
C238 C 0.50409 0.96996 0.05205 0.0
C239 C 0.51161 0.98557 0.03704 0.0
H240 H 0.49489 0.48608 0.19875 0.0
H241 H 0.50796 0.47139 0.22526 0.0
H242 H 0.58018 0.5165 0.20962 0.0
H243 H 0.56701 0.53143 0.18341 0.0
H244 H 0.50518 0.53148 0.19161 0.0
H245 H 0.51872 0.47261 0.16127 0.0
H246 H 0.54223 0.4549 0.15218 0.0
H247 H 0.59156 0.51858 0.12481 0.0
H248 H 0.56847 0.53635 0.13446 0.0
H249 H 0.53402 0.56675 0.11587 0.0
H250 H 0.52096 0.58059 0.08885 0.0
H251 H 0.44918 0.54012 0.10724 0.0
H252 H 0.46232 0.52592 0.13403 0.0
H253 H 0.52428 0.52415 0.12472 0.0
H254 H 0.51396 0.58329 0.15142 0.0
H255 H 0.49458 0.60543 0.15941 0.0
H256 H 0.44608 0.54956 0.19468 0.0
H257 H 0.46461 0.52667 0.1858 0.0
C258 C 0.52996 0.50971 0.18904 0.0
C259 C 0.51354 0.49283 0.20109 0.0
C260 C 0.52102 0.48432 0.21612 0.0
C261 C 0.5451 0.49272 0.2195 0.0
C262 C 0.56152 0.50981 0.20749 0.0
C263 C 0.55402 0.51823 0.19242 0.0
C264 C 0.52193 0.51845 0.17296 0.0
C265 C 0.50896 0.52955 0.17693 0.0
C266 C 0.52784 0.51684 0.15393 0.0
C267 C 0.54197 0.50588 0.1487 0.0
C268 C 0.53475 0.48281 0.1535 0.0
C269 C 0.54808 0.47264 0.14814 0.0
C270 C 0.56882 0.48535 0.13781 0.0
C271 C 0.5759 0.50842 0.133 0.0
C272 C 0.56261 0.51855 0.13837 0.0
C273 C 0.49916 0.54539 0.12701 0.0
C274 C 0.51546 0.5608 0.11404 0.0
C275 C 0.508 0.56885 0.09871 0.0
C276 C 0.48405 0.5615 0.09595 0.0
C277 C 0.46773 0.54595 0.10891 0.0
C278 C 0.47522 0.53796 0.12429 0.0
C279 C 0.50725 0.53694 0.14327 0.0
C280 C 0.52027 0.52595 0.13936 0.0
C281 C 0.50194 0.5393 0.16237 0.0
C282 C 0.49043 0.55298 0.1676 0.0
C283 C 0.4988 0.57546 0.1605 0.0
C284 C 0.48783 0.58819 0.16514 0.0
C285 C 0.46877 0.57906 0.1775 0.0
C286 C 0.46074 0.55689 0.18507 0.0
C287 C 0.47137 0.54389 0.18005 0.0
Mn288 Mn 0.62262 0.38408 0.41062 0.0
Mn289 Mn 0.64848 0.44125 0.42218 0.0
C290 C 0.60488 0.39715 0.43178 0.0
C291 C 0.61784 0.34733 0.416 0.0
C292 C 0.62231 0.42078 0.38474 0.0
O293 O 0.65624 0.39676 0.40179 0.0
O294 O 0.67219 0.43409 0.41179 0.0
C295 C 0.67872 0.44217 0.4541 0.0
N296 N 0.66165 0.44627 0.44734 0.0
C297 C 0.65826 0.4609 0.47791 0.0
C298 C 0.67591 0.45697 0.48518 0.0
C299 C 0.68613 0.44751 0.47322 0.0
C300 C 0.6516 0.45524 0.45874 0.0
H301 H 0.68657 0.43485 0.44496 0.0
C302 C 0.6737 0.41735 0.40399 0.0
O303 O 0.61284 0.35264 0.39952 0.0
O304 O 0.62614 0.36354 0.42908 0.0
N305 N 0.62769 0.45075 0.4325 0.0
C306 C 0.61043 0.45284 0.42341 0.0
C307 C 0.59832 0.46192 0.4334 0.0
C308 C 0.6042 0.46891 0.45256 0.0
C309 C 0.62216 0.46677 0.46156 0.0
C310 C 0.63378 0.45784 0.45082 0.0
H311 H 0.60593 0.44762 0.40866 0.0
O312 O 0.59256 0.37732 0.4229 0.0
O313 O 0.62716 0.40858 0.42812 0.0
O314 O 0.6158 0.39956 0.38819 0.0
O315 O 0.63489 0.43759 0.39632 0.0
C316 C 0.62881 0.47292 0.48082 0.0
C317 C 0.64678 0.4699 0.48901 0.0
H318 H 0.68163 0.461 0.49993 0.0
H319 H 0.69969 0.44433 0.47875 0.0
H320 H 0.58449 0.46353 0.42636 0.0
H321 H 0.59479 0.47586 0.46022 0.0
H322 H 0.62002 0.47972 0.48951 0.0
H323 H 0.65154 0.47442 0.50388 0.0
Mn324 Mn 0.25646 0.64787 0.57482 0.0
Mn325 Mn 0.22593 0.59076 0.56296 0.0
C326 C 0.22584 0.6343 0.55273 0.0
C327 C 0.28856 0.68489 0.57004 0.0
C328 C 0.21965 0.61073 0.60013 0.0
O329 O 0.27751 0.63566 0.58472 0.0
O330 O 0.25744 0.59882 0.57319 0.0
C331 C 0.25479 0.59041 0.53105 0.0
N332 N 0.2336 0.58584 0.53783 0.0
C333 C 0.21456 0.5699 0.50753 0.0
C334 C 0.23615 0.57427 0.50024 0.0
C335 C 0.25636 0.58466 0.51204 0.0
C336 C 0.21409 0.57607 0.52656 0.0
H337 H 0.27036 0.59841 0.54006 0.0
C338 C 0.27533 0.61565 0.58167 0.0
O339 O 0.27774 0.6794 0.58616 0.0
O340 O 0.28106 0.66871 0.55696 0.0
N341 N 0.19516 0.58063 0.55265 0.0
C342 C 0.17593 0.57855 0.56161 0.0
C343 C 0.15437 0.56904 0.55162 0.0
C344 C 0.15274 0.56152 0.53262 0.0
C345 C 0.17269 0.56356 0.52378 0.0
C346 C 0.19369 0.57316 0.53445 0.0
H347 H 0.17703 0.58415 0.57625 0.0
O348 O 0.23311 0.65412 0.56147 0.0
O349 O 0.23689 0.62328 0.557 0.0
O350 O 0.23363 0.63212 0.59659 0.0
O351 O 0.21634 0.59408 0.58884 0.0
C352 C 0.17261 0.55665 0.50475 0.0
C353 C 0.19356 0.55992 0.4966 0.0
H354 H 0.23744 0.56988 0.48559 0.0
H355 H 0.27311 0.58821 0.50649 0.0
H356 H 0.13905 0.5675 0.55856 0.0
H357 H 0.13611 0.55429 0.52494 0.0
H358 H 0.15662 0.54913 0.49616 0.0
H359 H 0.19336 0.55489 0.48185 0.0
Mn360 Mn 0.62443 0.26483 0.74123 0.0
Mn361 Mn 0.65169 0.23466 0.73066 0.0
C362 C 0.60767 0.23463 0.71904 0.0
C363 C 0.62005 0.29707 0.73592 0.0
C364 C 0.62514 0.2289 0.76731 0.0
O365 O 0.65764 0.28526 0.75204 0.0
O366 O 0.67534 0.26627 0.74027 0.0
C367 C 0.68008 0.26207 0.69825 0.0
N368 N 0.66376 0.24133 0.70548 0.0
C369 C 0.65962 0.22157 0.67554 0.0
C370 C 0.67659 0.24268 0.66784 0.0
C371 C 0.6868 0.26303 0.67924 0.0
C372 C 0.65369 0.22168 0.6946 0.0
H373 H 0.68781 0.27778 0.70691 0.0
C374 C 0.67589 0.28365 0.74893 0.0
O375 O 0.61398 0.28608 0.7519 0.0
O376 O 0.62893 0.28952 0.72323 0.0
N377 N 0.63084 0.20387 0.72096 0.0
C378 C 0.61383 0.18519 0.73022 0.0
C379 C 0.60144 0.16358 0.72065 0.0
C380 C 0.60676 0.16135 0.70172 0.0
C381 C 0.62445 0.18075 0.69252 0.0
C382 C 0.63636 0.2018 0.70284 0.0
H383 H 0.6097 0.18674 0.74479 0.0
O384 O 0.59495 0.24206 0.72714 0.0
O385 O 0.62978 0.24539 0.72393 0.0
O386 O 0.61687 0.24206 0.76298 0.0
O387 O 0.63924 0.22606 0.7567 0.0
C388 C 0.63047 0.18013 0.67343 0.0
C389 C 0.648 0.20054 0.66493 0.0
H390 H 0.68173 0.24352 0.65315 0.0
H391 H 0.69976 0.27943 0.67335 0.0
H392 H 0.58779 0.14868 0.72784 0.0
H393 H 0.59705 0.14468 0.69434 0.0
H394 H 0.62147 0.16414 0.66507 0.0
H395 H 0.6522 0.19993 0.65015 0.0
Mn396 Mn 0.38993 0.64855 0.9099 0.0
Mn397 Mn 0.36257 0.59109 0.91896 0.0
C398 C 0.40575 0.63457 0.93212 0.0
C399 C 0.39482 0.68537 0.91561 0.0
C400 C 0.39151 0.61216 0.88379 0.0
O401 O 0.35709 0.63661 0.89867 0.0
O402 O 0.33998 0.599 0.90699 0.0
C403 C 0.33022 0.58979 0.94853 0.0
N404 N 0.34756 0.58556 0.943 0.0
C405 C 0.34789 0.56927 0.97333 0.0
C406 C 0.32994 0.57332 0.97933 0.0
C407 C 0.32114 0.5837 0.9669 0.0
C408 C 0.3563 0.57578 0.9549 0.0
H409 H 0.3234 0.59774 0.939 0.0
C410 C 0.33931 0.61615 0.89943 0.0
O411 O 0.40082 0.6801 0.89957 0.0
O412 O 0.38563 0.66913 0.92814 0.0
N413 N 0.3822 0.58088 0.93066 0.0
C414 C 0.40003 0.57887 0.9229 0.0
C415 C 0.41108 0.56921 0.93364 0.0
C416 C 0.40347 0.56142 0.95211 0.0
C417 C 0.38484 0.56333 0.95967 0.0
C418 C 0.3745 0.5731 0.9483 0.0
H419 H 0.40585 0.58468 0.90866 0.0
O420 O 0.4189 0.65454 0.92432 0.0
O421 O 0.38376 0.62354 0.92682 0.0
O422 O 0.39793 0.63331 0.8879 0.0
O423 O 0.37798 0.59515 0.89423 0.0
C424 C 0.37625 0.5561 0.97809 0.0
C425 C 0.35789 0.5592 0.98497 0.0
H426 H 0.32288 0.56864 0.99348 0.0
H427 H 0.30736 0.58697 0.97145 0.0
H428 H 0.42541 0.56775 0.92768 0.0
H429 H 0.41211 0.55408 0.96039 0.0
H430 H 0.38386 0.54842 0.98719 0.0
H431 H 0.35169 0.55391 0.99927 0.0
Mn432 Mn 0.7563 0.39843 0.07681 0.0
Mn433 Mn 0.78914 0.37418 0.0887 0.0
C434 C 0.78605 0.41628 0.0995 0.0
C435 C 0.72308 0.40191 0.08115 0.0
C436 C 0.79531 0.40054 0.05215 0.0
O437 O 0.73684 0.36531 0.06637 0.0
O438 O 0.75867 0.35011 0.07711 0.0
C439 C 0.7595 0.3432 0.11909 0.0
N440 N 0.78068 0.36059 0.11325 0.0
C441 C 0.79839 0.36346 0.14405 0.0
C442 C 0.77682 0.34543 0.15035 0.0
C443 C 0.75728 0.33531 0.13783 0.0
C444 C 0.79957 0.37052 0.12519 0.0
H445 H 0.74442 0.33544 0.10954 0.0
C446 C 0.74037 0.34824 0.06869 0.0
O447 O 0.7343 0.40752 0.06523 0.0
O448 O 0.7308 0.39371 0.09428 0.0
N449 N 0.81897 0.39536 0.1003 0.0
C450 C 0.83805 0.4136 0.09239 0.0
C451 C 0.85888 0.42612 0.10325 0.0
C452 C 0.85994 0.41968 0.12205 0.0
C453 C 0.84014 0.40077 0.12983 0.0
C454 C 0.81991 0.38884 0.11829 0.0
H455 H 0.83733 0.41867 0.07798 0.0
O456 O 0.77822 0.42816 0.09064 0.0
O457 O 0.77616 0.39432 0.0949 0.0
O458 O 0.7798 0.40629 0.05533 0.0
O459 O 0.79969 0.38819 0.06346 0.0
C460 C 0.8395 0.39364 0.14873 0.0
C461 C 0.81864 0.37502 0.15585 0.0
H462 H 0.775 0.33938 0.16482 0.0
H463 H 0.74053 0.32149 0.14263 0.0
H464 H 0.87407 0.44075 0.09716 0.0
H465 H 0.87597 0.42952 0.13043 0.0
H466 H 0.85484 0.40262 0.15802 0.0
H467 H 0.81825 0.36995 0.1705 0.0
Mn468 Mn 0.37553 0.76897 0.2425 0.0
Mn469 Mn 0.43334 0.79672 0.25369 0.0
C470 C 0.39065 0.79902 0.26484 0.0
C471 C 0.33778 0.73791 0.24715 0.0
C472 C 0.41334 0.80423 0.21691 0.0
O473 O 0.38659 0.74748 0.23171 0.0
O474 O 0.42352 0.76484 0.24393 0.0
C475 C 0.43241 0.76812 0.28608 0.0
N476 N 0.43811 0.78926 0.27894 0.0
C477 C 0.45423 0.80824 0.30921 0.0
C478 C 0.4488 0.78671 0.31682 0.0
C479 C 0.43776 0.76656 0.30521 0.0
C480 C 0.44852 0.80873 0.29003 0.0
H481 H 0.42374 0.75257 0.27725 0.0
C482 C 0.40602 0.74804 0.23502 0.0
O483 O 0.34341 0.74916 0.2313 0.0
O484 O 0.35419 0.74443 0.26012 0.0
N485 N 0.44509 0.82766 0.26356 0.0
C486 C 0.44826 0.84692 0.25426 0.0
C487 C 0.45873 0.86849 0.26397 0.0
C488 C 0.46597 0.87008 0.28307 0.0
C489 C 0.46271 0.85008 0.2923 0.0
C490 C 0.4524 0.82911 0.28184 0.0
H491 H 0.44284 0.84586 0.23956 0.0
O492 O 0.37051 0.79249 0.25656 0.0
O493 O 0.40096 0.78741 0.26009 0.0
O494 O 0.39171 0.79184 0.22107 0.0
O495 O 0.43012 0.80606 0.22757 0.0
C496 C 0.46901 0.85008 0.31152 0.0
C497 C 0.46469 0.82916 0.32 0.0
H498 H 0.4528 0.78541 0.33159 0.0
H499 H 0.43333 0.74984 0.31102 0.0
H500 H 0.46119 0.88384 0.25675 0.0
H501 H 0.47394 0.88673 0.29052 0.0
H502 H 0.47691 0.86602 0.31999 0.0
H503 H 0.4693 0.82933 0.33487 0.0
C504 C 0.14367 0.59049 0.30218 0.0
C505 C 0.12547 0.59469 0.29697 0.0
C506 C 0.16652 0.60498 0.29582 0.0
C507 C 0.2041 0.66344 0.27479 0.0
H508 H 0.24612 0.63936 0.26547 0.0
C509 C 0.29457 0.71759 0.23999 0.0
C510 C 0.3135 0.71928 0.25078 0.0
C511 C 0.27144 0.70131 0.24457 0.0
C512 C 0.23453 0.64627 0.26805 0.0
H513 H 0.11649 0.61661 0.28053 0.0
H514 H 0.15596 0.64126 0.2687 0.0
H515 H 0.20588 0.61294 0.27521 0.0
H516 H 0.32317 0.70469 0.27431 0.0
H517 H 0.28272 0.67581 0.28196 0.0
H518 H 0.23272 0.69666 0.26709 0.0
C519 C 0.15303 0.62745 0.27829 0.0
C520 C 0.21151 0.6312 0.27376 0.0
C521 C 0.13034 0.61324 0.28495 0.0
C522 C 0.30891 0.70382 0.26578 0.0
C523 C 0.28581 0.68724 0.27011 0.0
C524 C 0.22694 0.67837 0.26873 0.0
C525 C 0.17155 0.62373 0.28382 0.0
C526 C 0.19599 0.6396 0.27733 0.0
C527 C 0.26687 0.68614 0.25977 0.0
C528 C 0.2424 0.66996 0.26542 0.0
H529 H 0.14032 0.57634 0.31154 0.0
H530 H 0.18028 0.60173 0.30067 0.0
H531 H 0.193 0.67078 0.2778 0.0
H532 H 0.29757 0.72933 0.22839 0.0
H533 H 0.25711 0.7007 0.23632 0.0
C534 C 0.55461 0.1543 0.47716 0.0
C535 C 0.54859 0.13602 0.46399 0.0
C536 C 0.56425 0.1772 0.47102 0.0
C537 C 0.5662 0.21124 0.42988 0.0
H538 H 0.62008 0.26178 0.4561 0.0
C539 C 0.60582 0.30645 0.40571 0.0
C540 C 0.61308 0.32356 0.42017 0.0
C541 C 0.59998 0.28365 0.41005 0.0
C542 C 0.60486 0.24794 0.44873 0.0
H543 H 0.54785 0.12732 0.43409 0.0
H544 H 0.5645 0.16739 0.42332 0.0
H545 H 0.60569 0.22182 0.46585 0.0
H546 H 0.62012 0.33025 0.45049 0.0
H547 H 0.60936 0.2906 0.45812 0.0
H548 H 0.56472 0.23724 0.4132 0.0
C549 C 0.56184 0.16397 0.43839 0.0
C550 C 0.59669 0.22503 0.4543 0.0
C551 C 0.55248 0.1411 0.44456 0.0
C552 C 0.61473 0.31751 0.43899 0.0
C553 C 0.60869 0.29473 0.44335 0.0
C554 C 0.57418 0.23418 0.42445 0.0
C555 C 0.56779 0.18225 0.45156 0.0
C556 C 0.57716 0.20646 0.44504 0.0
C557 C 0.60106 0.27742 0.42898 0.0
C558 C 0.59349 0.25288 0.43392 0.0
H559 H 0.55192 0.15089 0.49224 0.0
H560 H 0.56851 0.19092 0.48147 0.0
H561 H 0.55096 0.19728 0.42261 0.0
H562 H 0.60447 0.31061 0.39106 0.0
H563 H 0.59457 0.27091 0.39856 0.0
C564 C 0.4284 0.57621 0.64362 0.0
C565 C 0.42954 0.55931 0.6321 0.0
C566 C 0.41292 0.5842 0.63894 0.0
C567 C 0.35708 0.5651 0.61428 0.0
H568 H 0.37559 0.63035 0.6112 0.0
C569 C 0.2957 0.59249 0.58008 0.0
C570 C 0.29439 0.61134 0.58798 0.0
C571 C 0.31295 0.58757 0.58623 0.0
C572 C 0.37004 0.61206 0.61229 0.0
H573 H 0.41607 0.53858 0.60606 0.0
H574 H 0.38868 0.55198 0.59833 0.0
H575 H 0.40461 0.61933 0.62079 0.0
H576 H 0.31052 0.64009 0.60836 0.0
H577 H 0.34044 0.63108 0.61953 0.0
H578 H 0.32257 0.55757 0.60619 0.0
C579 C 0.39963 0.55885 0.61105 0.0
C580 C 0.38669 0.60579 0.61772 0.0
C581 C 0.41526 0.5511 0.61556 0.0
C582 C 0.31107 0.62544 0.60199 0.0
C583 C 0.32827 0.62033 0.60833 0.0
C584 C 0.34045 0.57131 0.60911 0.0
C585 C 0.3981 0.57526 0.6228 0.0
C586 C 0.38042 0.58224 0.61838 0.0
C587 C 0.32922 0.60113 0.60066 0.0
C588 C 0.34678 0.59486 0.60763 0.0
H589 H 0.43897 0.58278 0.65655 0.0
H590 H 0.41198 0.5968 0.64827 0.0
H591 H 0.35168 0.54681 0.61505 0.0
H592 H 0.2834 0.58146 0.56904 0.0
H593 H 0.31352 0.57308 0.57957 0.0
C594 C 0.87767 0.4397 0.78163 0.0
C595 C 0.88337 0.44646 0.80083 0.0
C596 C 0.85468 0.42317 0.77619 0.0
C597 C 0.79349 0.39746 0.78696 0.0
H598 H 0.78592 0.3401 0.76527 0.0
C599 C 0.70141 0.31762 0.77064 0.0
C600 C 0.69913 0.30308 0.75512 0.0
C601 C 0.72361 0.33562 0.77658 0.0
C602 C 0.78762 0.35612 0.77093 0.0
H603 H 0.86964 0.44209 0.8293 0.0
H604 H 0.82905 0.41363 0.81959 0.0
H605 H 0.82497 0.37157 0.77417 0.0
H606 H 0.71821 0.29648 0.73326 0.0
H607 H 0.75646 0.32838 0.74282 0.0
H608 H 0.75637 0.38261 0.78305 0.0
C609 C 0.84246 0.42096 0.80888 0.0
C610 C 0.81004 0.37406 0.77616 0.0
C611 C 0.86558 0.4371 0.81441 0.0
C612 C 0.71939 0.30719 0.74543 0.0
C613 C 0.74144 0.32545 0.75106 0.0
C614 C 0.77105 0.37969 0.78131 0.0
C615 C 0.83697 0.41356 0.78979 0.0
C616 C 0.81314 0.39483 0.7842 0.0
C617 C 0.74397 0.33977 0.76688 0.0
C618 C 0.76778 0.35875 0.77318 0.0
H619 H 0.89116 0.44657 0.77097 0.0
H620 H 0.85076 0.41766 0.76138 0.0
H621 H 0.79557 0.41342 0.79312 0.0
H622 H 0.6861 0.31479 0.77844 0.0
H623 H 0.72477 0.34597 0.78899 0.0
C624 C 0.45313 0.89087 0.94356 0.0
C625 C 0.45706 0.89682 0.96303 0.0
C626 C 0.44446 0.86784 0.93744 0.0
C627 C 0.41159 0.80737 0.95301 0.0
H628 H 0.44534 0.79526 0.91379 0.0
C629 C 0.39704 0.71551 0.93847 0.0
C630 C 0.39915 0.70908 0.91982 0.0
C631 C 0.40238 0.73824 0.94281 0.0
C632 C 0.43539 0.79828 0.92449 0.0
H633 H 0.45443 0.88335 0.9914 0.0
H634 H 0.43898 0.84302 0.98072 0.0
H635 H 0.45745 0.83527 0.92296 0.0
H636 H 0.40783 0.72121 0.89093 0.0
H637 H 0.41646 0.76075 0.89834 0.0
H638 H 0.38933 0.7705 0.95448 0.0
C639 C 0.4427 0.85618 0.9702 0.0
C640 C 0.44242 0.82124 0.92979 0.0
C641 C 0.45168 0.87924 0.9763 0.0
C642 C 0.40618 0.72571 0.90547 0.0
C643 C 0.41128 0.74841 0.90976 0.0
C644 C 0.40435 0.78442 0.94756 0.0
C645 C 0.43922 0.85029 0.95071 0.0
C646 C 0.43079 0.82599 0.94427 0.0
C647 C 0.4097 0.75506 0.92854 0.0
C648 C 0.41637 0.77953 0.93342 0.0
H649 H 0.45729 0.90413 0.93303 0.0
H650 H 0.44182 0.86374 0.92233 0.0
H651 H 0.40213 0.81058 0.96405 0.0
H652 H 0.39181 0.70313 0.94988 0.0
H653 H 0.40136 0.74273 0.95748 0.0
C654 C 0.60765 0.48765 0.13269 0.0
C655 C 0.58297 0.47465 0.13181 0.0
C656 C 0.62106 0.47807 0.12625 0.0
C657 C 0.61876 0.42246 0.11569 0.0
H658 H 0.67435 0.46148 0.08662 0.0
C659 C 0.69212 0.40046 0.1024 0.0
C660 C 0.70347 0.40626 0.08481 0.0
C661 C 0.67527 0.40668 0.10674 0.0
C662 C 0.65873 0.45024 0.09451 0.0
H663 H 0.55303 0.44124 0.12359 0.0
H664 H 0.57651 0.42444 0.11243 0.0
H665 H 0.64931 0.47667 0.09704 0.0
H666 H 0.70536 0.42228 0.05767 0.0
H667 H 0.67578 0.43302 0.06521 0.0
H668 H 0.62822 0.396 0.11311 0.0
C669 C 0.58545 0.44202 0.11824 0.0
C670 C 0.64455 0.45905 0.1007 0.0
C671 C 0.57201 0.45164 0.12467 0.0
C672 C 0.69699 0.41765 0.07138 0.0
C673 C 0.68016 0.42392 0.07574 0.0
C674 C 0.63301 0.41364 0.10954 0.0
C675 C 0.61013 0.45523 0.11879 0.0
C676 C 0.62455 0.44537 0.11154 0.0
C677 C 0.66942 0.41888 0.09361 0.0
C678 C 0.65328 0.42752 0.09902 0.0
H679 H 0.61665 0.50527 0.13845 0.0
H680 H 0.64003 0.48854 0.12724 0.0
H681 H 0.60354 0.41151 0.1241 0.0
H682 H 0.69671 0.39168 0.11307 0.0
H683 H 0.66753 0.40273 0.1207 0.0
C684 C 0.42411 0.87788 0.50951 0.0
C685 C 0.42895 0.89676 0.52169 0.0
C686 C 0.41095 0.85501 0.51583 0.0
C687 C 0.36755 0.82035 0.55209 0.0
H688 H 0.38196 0.77251 0.53721 0.0
C689 C 0.31433 0.72678 0.57986 0.0
C690 C 0.30764 0.70882 0.56622 0.0
C691 C 0.33098 0.74972 0.57554 0.0
C692 C 0.37762 0.78565 0.54139 0.0
H693 H 0.42465 0.90642 0.55032 0.0
H694 H 0.40182 0.86662 0.56133 0.0
H695 H 0.40754 0.81256 0.5274 0.0
H696 H 0.31368 0.70074 0.53757 0.0
H697 H 0.34251 0.74068 0.53003 0.0
H698 H 0.33751 0.79348 0.56587 0.0
C699 C 0.40773 0.86943 0.54677 0.0
C700 C 0.39226 0.80859 0.53575 0.0
C701 C 0.42083 0.89225 0.54046 0.0
C702 C 0.31846 0.71417 0.54841 0.0
C703 C 0.33511 0.73707 0.54411 0.0
C704 C 0.35293 0.79744 0.55773 0.0
C705 C 0.40238 0.85051 0.53448 0.0
C706 C 0.38732 0.8262 0.54094 0.0
C707 C 0.34132 0.75519 0.55751 0.0
C708 C 0.35768 0.77977 0.55235 0.0
H709 H 0.42992 0.88076 0.49492 0.0
H710 H 0.40693 0.84084 0.50591 0.0
H711 H 0.36298 0.83338 0.55608 0.0
H712 H 0.30637 0.72321 0.59373 0.0
H713 H 0.33562 0.76322 0.58629 0.0
C714 C 0.55392 0.42523 0.67275 0.0
C715 C 0.55783 0.44482 0.6836 0.0
C716 C 0.56256 0.41096 0.67894 0.0
C717 C 0.58499 0.39604 0.72226 0.0
H718 H 0.60344 0.36488 0.68515 0.0
C719 C 0.59972 0.31983 0.74214 0.0
C720 C 0.61611 0.31666 0.73184 0.0
C721 C 0.59447 0.33707 0.73701 0.0
C722 C 0.59875 0.37367 0.6958 0.0
H723 H 0.57432 0.46481 0.7095 0.0
H724 H 0.59036 0.44061 0.7198 0.0
H725 H 0.59197 0.39244 0.67456 0.0
H726 H 0.64079 0.32977 0.70876 0.0
H727 H 0.6325 0.36043 0.70035 0.0
H728 H 0.59266 0.3779 0.74356 0.0
C729 C 0.58004 0.4359 0.70671 0.0
C730 C 0.59173 0.38925 0.68966 0.0
C731 C 0.57113 0.45004 0.70063 0.0
C732 C 0.62787 0.33164 0.71683 0.0
C733 C 0.62294 0.34912 0.71191 0.0
C734 C 0.59234 0.38068 0.72843 0.0
C735 C 0.5757 0.41604 0.69603 0.0
C736 C 0.58444 0.40043 0.70276 0.0
C737 C 0.6058 0.35177 0.72165 0.0
C738 C 0.59908 0.36908 0.71527 0.0
H739 H 0.54411 0.42082 0.6594 0.0
H740 H 0.55851 0.39568 0.67042 0.0
H741 H 0.57928 0.40409 0.73279 0.0
H742 H 0.59029 0.30843 0.75372 0.0
H743 H 0.58095 0.3383 0.74472 0.0
C744 C 0.13787 0.54687 0.84579 0.0
C745 C 0.12943 0.5626 0.8459 0.0
C746 C 0.16122 0.5543 0.8507 0.0
C747 C 0.22052 0.60486 0.85495 0.0
H748 H 0.22986 0.56684 0.89161 0.0
C749 C 0.31194 0.63008 0.88838 0.0
C750 C 0.3164 0.61174 0.89159 0.0
C751 C 0.28962 0.62542 0.88223 0.0
C752 C 0.22765 0.57751 0.88116 0.0
H753 H 0.13927 0.59874 0.85063 0.0
H754 H 0.18036 0.6118 0.85893 0.0
H755 H 0.19022 0.55635 0.88155 0.0
H756 H 0.30122 0.57424 0.88994 0.0
H757 H 0.26281 0.56625 0.87881 0.0
H758 H 0.25808 0.62581 0.85433 0.0
C759 C 0.16872 0.59368 0.85508 0.0
C760 C 0.2049 0.57151 0.87546 0.0
C761 C 0.14522 0.58619 0.8503 0.0
C762 C 0.29834 0.58878 0.8879 0.0
C763 C 0.27621 0.58417 0.88161 0.0
C764 C 0.2434 0.61078 0.86055 0.0
C765 C 0.17679 0.57769 0.85567 0.0
C766 C 0.20108 0.58494 0.86214 0.0
C767 C 0.27139 0.60236 0.87905 0.0
C768 C 0.24722 0.59697 0.87355 0.0
H769 H 0.12639 0.52871 0.84199 0.0
H770 H 0.16709 0.54168 0.85067 0.0
H771 H 0.21804 0.61548 0.84461 0.0
H772 H 0.32547 0.64797 0.89113 0.0
H773 H 0.28648 0.63984 0.8805 0.0
C774 C 0.58737 0.15618 0.0062 0.0
C775 C 0.58556 0.13828 0.01791 0.0
C776 C 0.60324 0.17953 0.01085 0.0
C777 C 0.65909 0.21563 0.0353 0.0
H778 H 0.64126 0.26305 0.03923 0.0
C779 C 0.72183 0.30494 0.06896 0.0
C780 C 0.72221 0.3248 0.06177 0.0
C781 C 0.70479 0.28274 0.0627 0.0
C782 C 0.64666 0.25014 0.03787 0.0
H783 H 0.59829 0.13119 0.04422 0.0
H784 H 0.62645 0.17174 0.05183 0.0
H785 H 0.61182 0.22325 0.02973 0.0
H786 H 0.70494 0.33686 0.04228 0.0
H787 H 0.67556 0.29801 0.03083 0.0
H788 H 0.6939 0.24222 0.04293 0.0
C789 C 0.61567 0.16762 0.03903 0.0
C790 C 0.62975 0.22735 0.03252 0.0
C791 C 0.59961 0.14438 0.03457 0.0
C792 C 0.70508 0.3219 0.04814 0.0
C793 C 0.68816 0.29961 0.04166 0.0
C794 C 0.67603 0.23839 0.04034 0.0
C795 C 0.6178 0.18538 0.02712 0.0
C796 C 0.63577 0.20984 0.03153 0.0
C797 C 0.68784 0.27973 0.04884 0.0
C798 C 0.66998 0.25588 0.04208 0.0
H799 H 0.57705 0.15218 0.99315 0.0
H800 H 0.60466 0.19296 0.00141 0.0
H801 H 0.66424 0.20249 0.03432 0.0
H802 H 0.73454 0.30648 0.07966 0.0
H803 H 0.70478 0.26791 0.06896 0.0
C804 C 0.4567 0.59837 0.20202 0.0
C805 C 0.45781 0.59303 0.18285 0.0
C806 C 0.44793 0.61298 0.20704 0.0
C807 C 0.43514 0.65714 0.18623 0.0
H808 H 0.40691 0.65238 0.23536 0.0
C809 C 0.3963 0.71467 0.21245 0.0
C810 C 0.40857 0.72812 0.22863 0.0
C811 C 0.39961 0.69642 0.20617 0.0
C812 C 0.41465 0.65376 0.22155 0.0
H813 H 0.44984 0.59785 0.15388 0.0
H814 H 0.43333 0.62235 0.16255 0.0
H815 H 0.41668 0.62295 0.22541 0.0
H816 H 0.43338 0.73257 0.25119 0.0
H817 H 0.4384 0.70021 0.2406 0.0
H818 H 0.43246 0.68777 0.1824 0.0
C819 C 0.44005 0.61612 0.17379 0.0
C820 C 0.4205 0.63707 0.21588 0.0
C821 C 0.44932 0.60192 0.16878 0.0
C822 C 0.42373 0.7226 0.23864 0.0
C823 C 0.42655 0.70404 0.23266 0.0
C824 C 0.42878 0.67352 0.19175 0.0
C825 C 0.43957 0.62221 0.19299 0.0
C826 C 0.43133 0.63879 0.19831 0.0
C827 C 0.41471 0.69096 0.21629 0.0
C828 C 0.41892 0.6722 0.20959 0.0
H829 H 0.46339 0.59188 0.2131 0.0
H830 H 0.44839 0.61755 0.22193 0.0
H831 H 0.4438 0.65943 0.17277 0.0
H832 H 0.38458 0.71859 0.20441 0.0
H833 H 0.39035 0.68652 0.19348 0.0
C834 C 0.86901 0.45532 0.35322 0.0
C835 C 0.8835 0.47897 0.34889 0.0
C836 C 0.84575 0.44688 0.35873 0.0
C837 C 0.80889 0.46643 0.38146 0.0
H838 H 0.75574 0.41129 0.35907 0.0
C839 C 0.71486 0.44583 0.39499 0.0
C840 C 0.6971 0.42258 0.3972 0.0
C841 C 0.73714 0.4512 0.38902 0.0
C842 C 0.77041 0.42651 0.36569 0.0
H843 H 0.88433 0.51192 0.34607 0.0
H844 H 0.84413 0.49731 0.35619 0.0
H845 H 0.79557 0.42322 0.34865 0.0
H846 H 0.68887 0.38667 0.39465 0.0
H847 H 0.72816 0.39612 0.38462 0.0
H848 H 0.78416 0.46971 0.39872 0.0
C849 C 0.85087 0.4854 0.35549 0.0
C850 C 0.79319 0.43336 0.35966 0.0
C851 C 0.87396 0.49377 0.34977 0.0
C852 C 0.70215 0.40477 0.39306 0.0
C853 C 0.72464 0.41019 0.38723 0.0
C854 C 0.78626 0.45948 0.38763 0.0
C855 C 0.83662 0.46195 0.36023 0.0
C856 C 0.81257 0.45364 0.36726 0.0
C857 C 0.74248 0.43352 0.3853 0.0
C858 C 0.76665 0.4397 0.37957 0.0
H859 H 0.8758 0.44345 0.35288 0.0
H860 H 0.83515 0.42874 0.3624 0.0
H861 H 0.82357 0.48188 0.38783 0.0
H862 H 0.71155 0.46001 0.39777 0.0
H863 H 0.75017 0.46933 0.3872 0.0
C864 C 0.09181 0.55596 0.41519 0.0
C865 C 0.08741 0.57158 0.40508 0.0
C866 C 0.10685 0.56351 0.43112 0.0
C867 C 0.13404 0.61063 0.46757 0.0
H868 H 0.17696 0.58709 0.47417 0.0
C869 C 0.18808 0.62625 0.53727 0.0
C870 C 0.21018 0.62808 0.53597 0.0
C871 C 0.17336 0.62026 0.52116 0.0
C872 C 0.16521 0.59398 0.4726 0.0
H873 H 0.09549 0.60745 0.40371 0.0
H874 H 0.1219 0.62071 0.4315 0.0
H875 H 0.15093 0.57494 0.4465 0.0
H876 H 0.2354 0.62742 0.51683 0.0
H877 H 0.21022 0.61779 0.48855 0.0
H878 H 0.14873 0.63011 0.49345 0.0
C879 C 0.11342 0.60252 0.42726 0.0
C880 C 0.15007 0.58678 0.45676 0.0
C881 C 0.09832 0.59494 0.41133 0.0
C882 C 0.21802 0.62529 0.51821 0.0
C883 C 0.20354 0.61971 0.50205 0.0
C884 C 0.14921 0.61783 0.48346 0.0
C885 C 0.11791 0.5869 0.43731 0.0
C886 C 0.13422 0.59492 0.45408 0.0
C887 C 0.18083 0.61672 0.50334 0.0
C888 C 0.16493 0.60949 0.48625 0.0
H889 H 0.08333 0.53776 0.41096 0.0
H890 H 0.10957 0.55093 0.43873 0.0
H891 H 0.12194 0.61713 0.46599 0.0
H892 H 0.18194 0.62877 0.55085 0.0
H893 H 0.15594 0.6179 0.52279 0.0
C894 C 0.5511 0.12043 0.57016 0.0
C895 C 0.53282 0.09726 0.57162 0.0
C896 C 0.5589 0.13531 0.58613 0.0
C897 C 0.55847 0.1351 0.63893 0.0
H898 H 0.57476 0.19952 0.63357 0.0
C899 C 0.57808 0.19702 0.70368 0.0
C900 C 0.59837 0.21889 0.7024 0.0
C901 C 0.56945 0.18219 0.68769 0.0
C902 C 0.57042 0.18161 0.63526 0.0
H903 H 0.5087 0.07152 0.59118 0.0
H904 H 0.52179 0.09761 0.61882 0.0
H905 H 0.56126 0.17351 0.60576 0.0
H906 H 0.62441 0.24349 0.6834 0.0
H907 H 0.60942 0.21767 0.6554 0.0
H908 H 0.56744 0.14324 0.6685 0.0
C909 C 0.53033 0.10423 0.6054 0.0
C910 C 0.56276 0.16671 0.61932 0.0
C911 C 0.52259 0.08934 0.58946 0.0
C912 C 0.6091 0.22637 0.68475 0.0
C913 C 0.60036 0.2117 0.66873 0.0
C914 C 0.56599 0.14997 0.6549 0.0
C915 C 0.54858 0.12741 0.60395 0.0
C916 C 0.55674 0.14328 0.62094 0.0
C917 C 0.58064 0.18932 0.67008 0.0
C918 C 0.57209 0.1734 0.65322 0.0
H919 H 0.55923 0.12719 0.55662 0.0
H920 H 0.57319 0.15297 0.58453 0.0
H921 H 0.55436 0.11727 0.64066 0.0
H922 H 0.56926 0.19123 0.71712 0.0
H923 H 0.554 0.16519 0.68907 0.0
C924 C 0.44988 0.53915 0.74697 0.0
C925 C 0.46745 0.55545 0.73524 0.0
C926 C 0.44276 0.54647 0.76298 0.0
C927 C 0.44104 0.59653 0.78402 0.0
H928 H 0.43115 0.56274 0.83086 0.0
C929 C 0.41733 0.62479 0.85506 0.0
C930 C 0.40056 0.60687 0.86629 0.0
C931 C 0.42636 0.61956 0.83899 0.0
C932 C 0.43358 0.57222 0.81784 0.0
H933 H 0.49114 0.59224 0.73097 0.0
H934 H 0.47871 0.60506 0.75909 0.0
H935 H 0.44536 0.55172 0.80302 0.0
H936 H 0.37983 0.56935 0.86909 0.0
H937 H 0.39521 0.56034 0.84107 0.0
H938 H 0.42894 0.61684 0.79881 0.0
C939 C 0.47043 0.58661 0.75581 0.0
C940 C 0.44176 0.56592 0.8019 0.0
C941 C 0.47768 0.57927 0.73983 0.0
C942 C 0.39282 0.58364 0.8609 0.0
C943 C 0.40178 0.57845 0.84486 0.0
C944 C 0.43275 0.60279 0.79998 0.0
C945 C 0.45297 0.57026 0.76761 0.0
C946 C 0.44535 0.57782 0.78475 0.0
C947 C 0.41881 0.59631 0.8338 0.0
C948 C 0.42866 0.59052 0.81702 0.0
H949 H 0.44183 0.52067 0.74393 0.0
H950 H 0.42907 0.53346 0.77166 0.0
H951 H 0.44346 0.60591 0.77095 0.0
H952 H 0.42375 0.64288 0.8588 0.0
H953 H 0.4396 0.63374 0.83086 0.0
C954 C 0.93524 0.47295 0.92251 0.0
C955 C 0.9277 0.47723 0.90496 0.0
C956 C 0.91996 0.46442 0.93779 0.0
C957 C 0.86786 0.46128 0.95838 0.0
H958 H 0.86211 0.40752 0.98442 0.0
C959 C 0.80218 0.41766 0.01948 0.0
C960 C 0.80938 0.40891 0.03466 0.0
C961 C 0.81562 0.42552 0.00304 0.0
C962 C 0.86372 0.42275 0.97753 0.0
H963 H 0.898 0.47598 0.88995 0.0
H964 H 0.87162 0.46181 0.91695 0.0
H965 H 0.88779 0.42275 0.95723 0.0
H966 H 0.83663 0.40193 0.04453 0.0
H967 H 0.86035 0.41632 0.01639 0.0
H968 H 0.84446 0.46188 0.97901 0.0
C969 C 0.8894 0.46501 0.91871 0.0
C970 C 0.87836 0.43138 0.96188 0.0
C971 C 0.90459 0.47324 0.90329 0.0
C972 C 0.8304 0.40836 0.03307 0.0
C973 C 0.84397 0.41648 0.0168 0.0
C974 C 0.85345 0.45287 0.97424 0.0
C975 C 0.89689 0.46029 0.93603 0.0
C976 C 0.88069 0.4508 0.95222 0.0
C977 C 0.83674 0.42506 0.00149 0.0
C978 C 0.85132 0.43358 0.98413 0.0
H979 H 0.95303 0.47633 0.92455 0.0
H980 H 0.92628 0.46125 0.95109 0.0
H981 H 0.86948 0.47639 0.95124 0.0
H982 H 0.78601 0.41822 0.02018 0.0
H983 H 0.80928 0.43168 0.99147 0.0
C984 C 0.45032 0.92723 0.07705 0.0
C985 C 0.47258 0.93541 0.06907 0.0
C986 C 0.44312 0.91198 0.09233 0.0
C987 C 0.4573 0.87181 0.11856 0.0
H988 H 0.42084 0.8791 0.15826 0.0
C989 C 0.44232 0.82828 0.19206 0.0
C990 C 0.41937 0.81776 0.19912 0.0
C991 C 0.44816 0.84163 0.17563 0.0
C992 C 0.43083 0.87671 0.1472 0.0
H993 H 0.50448 0.93334 0.07082 0.0
H994 H 0.49241 0.90768 0.09788 0.0
H995 H 0.43232 0.90435 0.13082 0.0
H996 H 0.38456 0.81309 0.19432 0.0
H997 H 0.39488 0.83657 0.16578 0.0
H998 H 0.45626 0.84454 0.13534 0.0
C999 C 0.48027 0.91269 0.09212 0.0
C1000 C 0.43736 0.89114 0.1314 0.0
C1001 C 0.48737 0.92776 0.07673 0.0
C1002 C 0.40239 0.82086 0.18929 0.0
C1003 C 0.40831 0.83443 0.17299 0.0
C1004 C 0.45098 0.85757 0.13447 0.0
C1005 C 0.45807 0.90462 0.10018 0.0
C1006 C 0.45072 0.88892 0.11686 0.0
C1007 C 0.43127 0.84501 0.16601 0.0
C1008 C 0.43769 0.85988 0.14896 0.0
H1009 H 0.43851 0.9329 0.07171 0.0
H1010 H 0.42577 0.90591 0.09793 0.0
H1011 H 0.46718 0.86925 0.10752 0.0
H1012 H 0.45585 0.82628 0.19925 0.0
H1013 H 0.46605 0.84973 0.17067 0.0
C1014 C 0.57235 0.49939 0.24717 0.0
C1015 C 0.55311 0.48392 0.23561 0.0
C1016 C 0.57987 0.49121 0.26239 0.0
C1017 C 0.56011 0.44108 0.29439 0.0
H1018 H 0.62678 0.46963 0.30599 0.0
C1019 C 0.59765 0.40889 0.35457 0.0
C1020 C 0.61476 0.42646 0.36656 0.0
C1021 C 0.59018 0.41459 0.33776 0.0
C1022 C 0.6081 0.46156 0.30298 0.0
H1023 H 0.52686 0.44766 0.23082 0.0
H1024 H 0.54011 0.43331 0.25731 0.0
H1025 H 0.61363 0.48195 0.27819 0.0
H1026 H 0.63758 0.46384 0.37003 0.0
H1027 H 0.62463 0.47363 0.34084 0.0
H1028 H 0.55469 0.42071 0.31927 0.0
C1029 C 0.54916 0.45184 0.25481 0.0
C1030 C 0.60054 0.46866 0.28708 0.0
C1031 C 0.54157 0.46005 0.23962 0.0
C1032 C 0.62439 0.4498 0.3612 0.0
C1033 C 0.61707 0.45545 0.34437 0.0
C1034 C 0.5677 0.43388 0.31026 0.0
C1035 C 0.56841 0.46733 0.26639 0.0
C1036 C 0.57643 0.45877 0.28273 0.0
C1037 C 0.59983 0.43795 0.33249 0.0
C1038 C 0.59177 0.44429 0.31488 0.0
H1039 H 0.58138 0.51792 0.24465 0.0
H1040 H 0.59445 0.50371 0.27122 0.0
H1041 H 0.54141 0.43325 0.2916 0.0
H1042 H 0.58983 0.39074 0.35826 0.0
H1043 H 0.57697 0.40071 0.32881 0.0
C1044 C 0.45859 0.94454 0.39444 0.0
C1045 C 0.45418 0.93533 0.41278 0.0
C1046 C 0.45125 0.92979 0.37841 0.0
C1047 C 0.41166 0.86773 0.36332 0.0
H1048 H 0.44902 0.88766 0.31777 0.0
C1049 C 0.40008 0.80684 0.29935 0.0
C1050 C 0.39808 0.81486 0.28144 0.0
C1051 C 0.40631 0.82145 0.31541 0.0
C1052 C 0.4384 0.88196 0.33038 0.0
H1053 H 0.43901 0.90366 0.42891 0.0
H1054 H 0.4271 0.87778 0.40102 0.0
H1055 H 0.46178 0.91306 0.34591 0.0
H1056 H 0.39961 0.84368 0.26617 0.0
H1057 H 0.41143 0.86976 0.29427 0.0
H1058 H 0.38888 0.83615 0.3478 0.0
C1059 C 0.43547 0.89634 0.39884 0.0
C1060 C 0.44557 0.89655 0.34651 0.0
C1061 C 0.44241 0.91112 0.41487 0.0
C1062 C 0.4016 0.83741 0.27984 0.0
C1063 C 0.40832 0.85223 0.29584 0.0
C1064 C 0.40479 0.85296 0.3473 0.0
C1065 C 0.43973 0.90545 0.38036 0.0
C1066 C 0.43224 0.88972 0.36321 0.0
C1067 C 0.41075 0.84436 0.31375 0.0
C1068 C 0.41803 0.86 0.33068 0.0
H1069 H 0.46743 0.96318 0.3925 0.0
H1070 H 0.4544 0.93754 0.36451 0.0
H1071 H 0.40062 0.86196 0.37568 0.0
H1072 H 0.39683 0.78925 0.30091 0.0
H1073 H 0.4081 0.81501 0.32906 0.0
C1074 C 0.55155 0.4781 0.56524 0.0
C1075 C 0.53447 0.4626 0.57772 0.0
C1076 C 0.55757 0.46975 0.54918 0.0
C1077 C 0.55867 0.41888 0.53021 0.0
H1078 H 0.56341 0.44704 0.48118 0.0
C1079 C 0.57442 0.40421 0.44622 0.0
C1080 C 0.595 0.40296 0.44818 0.0
C1081 C 0.56538 0.41001 0.46196 0.0
C1082 C 0.56204 0.43893 0.49475 0.0
H1083 H 0.51051 0.42624 0.58336 0.0
H1084 H 0.52127 0.41159 0.55535 0.0
H1085 H 0.55112 0.46063 0.50885 0.0
H1086 H 0.6211 0.40447 0.46807 0.0
H1087 H 0.60534 0.41451 0.49564 0.0
H1088 H 0.56995 0.39743 0.51618 0.0
C1089 C 0.52989 0.4302 0.55797 0.0
C1090 C 0.55518 0.44682 0.5106 0.0
C1091 C 0.52364 0.43856 0.57391 0.0
C1092 C 0.60556 0.40603 0.46622 0.0
C1093 C 0.59639 0.41149 0.48199 0.0
C1094 C 0.56585 0.41121 0.51441 0.0
C1095 C 0.54684 0.44572 0.54542 0.0
C1096 C 0.55351 0.43693 0.5285 0.0
C1097 C 0.57643 0.41392 0.47997 0.0
C1098 C 0.56771 0.42124 0.49654 0.0
H1099 H 0.56003 0.49672 0.56775 0.0
H1100 H 0.57083 0.4821 0.53983 0.0
H1101 H 0.55765 0.41103 0.54386 0.0
H1102 H 0.56574 0.40134 0.43245 0.0
H1103 H 0.54979 0.41146 0.46007 0.0
C1104 C 0.08756 0.53533 0.73577 0.0
C1105 C 0.08524 0.55191 0.74669 0.0
C1106 C 0.10268 0.54214 0.72033 0.0
C1107 C 0.15425 0.59262 0.6999 0.0
H1108 H 0.13239 0.55608 0.65303 0.0
C1109 C 0.20579 0.62202 0.62952 0.0
C1110 C 0.20582 0.60468 0.61785 0.0
C1111 C 0.1917 0.61602 0.64563 0.0
C1112 C 0.13893 0.56632 0.66608 0.0
H1113 H 0.09734 0.58872 0.75016 0.0
H1114 H 0.12361 0.60061 0.72307 0.0
H1115 H 0.10673 0.54475 0.68033 0.0
H1116 H 0.19146 0.56741 0.61439 0.0
H1117 H 0.16739 0.55708 0.64252 0.0
H1118 H 0.18653 0.61413 0.68565 0.0
C1119 C 0.11379 0.58234 0.72652 0.0
C1120 C 0.12418 0.55983 0.68173 0.0
C1121 C 0.09856 0.5755 0.74191 0.0
C1122 C 0.1918 0.58126 0.62292 0.0
C1123 C 0.17783 0.5753 0.63902 0.0
C1124 C 0.16908 0.59908 0.68424 0.0
C1125 C 0.11592 0.56572 0.71549 0.0
C1126 C 0.13167 0.57284 0.69884 0.0
C1127 C 0.17736 0.59256 0.65047 0.0
C1128 C 0.16162 0.58595 0.66715 0.0
H1129 H 0.07741 0.517 0.73898 0.0
H1130 H 0.1041 0.52893 0.71224 0.0
H1131 H 0.16063 0.60287 0.71295 0.0
H1132 H 0.21629 0.64023 0.62603 0.0
H1133 H 0.19161 0.62976 0.65401 0.0
C1134 C 0.54228 0.11186 0.91067 0.0
C1135 C 0.55303 0.09882 0.91552 0.0
C1136 C 0.55039 0.12714 0.89541 0.0
C1137 C 0.60204 0.159 0.86448 0.0
H1138 H 0.557 0.16224 0.83039 0.0
C1139 C 0.62738 0.20204 0.79107 0.0
C1140 C 0.61763 0.21569 0.78527 0.0
C1141 C 0.61987 0.18901 0.80763 0.0
C1142 C 0.56982 0.16176 0.83991 0.0
H1143 H 0.58051 0.09137 0.90793 0.0
H1144 H 0.59452 0.11781 0.88127 0.0
H1145 H 0.54313 0.13712 0.85794 0.0
H1146 H 0.59234 0.22636 0.79256 0.0
H1147 H 0.57929 0.2036 0.82148 0.0
H1148 H 0.62869 0.18337 0.84626 0.0
C1149 C 0.58013 0.11664 0.88948 0.0
C1150 C 0.56187 0.14736 0.85573 0.0
C1151 C 0.57207 0.10143 0.90476 0.0
C1152 C 0.60027 0.21607 0.79656 0.0
C1153 C 0.59267 0.20292 0.81309 0.0
C1154 C 0.60996 0.17331 0.84864 0.0
C1155 C 0.5694 0.1297 0.88459 0.0
C1156 C 0.57787 0.14566 0.86814 0.0
C1157 C 0.60234 0.18919 0.81878 0.0
C1158 C 0.59395 0.17473 0.83608 0.0
H1159 H 0.52776 0.11049 0.91884 0.0
H1160 H 0.54192 0.13717 0.89223 0.0
H1161 H 0.61489 0.15848 0.87393 0.0
H1162 H 0.64073 0.20123 0.78275 0.0
H1163 H 0.62747 0.17839 0.81148 0.0
C1164 C 0.48873 0.59331 0.07428 0.0
C1165 C 0.47614 0.56984 0.07949 0.0
C1166 C 0.48146 0.60108 0.05862 0.0
C1167 C 0.42974 0.5854 0.02744 0.0
H1168 H 0.47614 0.62986 0.99345 0.0
C1169 C 0.40274 0.62461 0.96626 0.0
C1170 C 0.41438 0.62806 0.94899 0.0
C1171 C 0.41091 0.61876 0.98252 0.0
C1172 C 0.4629 0.61727 0.00267 0.0
H1173 H 0.44623 0.53605 0.07219 0.0
H1174 H 0.43361 0.54954 0.0448 0.0
H1175 H 0.48888 0.61649 0.02079 0.0
H1176 H 0.44433 0.62966 0.93514 0.0
H1177 H 0.45816 0.61832 0.96328 0.0
H1178 H 0.40375 0.58575 0.00928 0.0
C1179 C 0.44887 0.56206 0.05302 0.0
C1180 C 0.47025 0.60984 0.01851 0.0
C1181 C 0.4561 0.55431 0.06871 0.0
C1182 C 0.4349 0.62663 0.94832 0.0
C1183 C 0.44289 0.62037 0.9645 0.0
C1184 C 0.4224 0.59279 0.01161 0.0
C1185 C 0.46146 0.58554 0.04777 0.0
C1186 C 0.45374 0.59373 0.03105 0.0
C1187 C 0.43088 0.61617 0.9818 0.0
C1188 C 0.43885 0.60872 0.99892 0.0
H1189 H 0.50407 0.60575 0.08246 0.0
H1190 H 0.49134 0.61935 0.05516 0.0
H1191 H 0.41656 0.57325 0.03695 0.0
H1192 H 0.38729 0.62643 0.96718 0.0
H1193 H 0.40154 0.61633 0.99563 0.0
C1194 C 0.92748 0.50467 0.23243 0.0
C1195 C 0.92448 0.48855 0.24646 0.0
C1196 C 0.91236 0.49778 0.21655 0.0
C1197 C 0.85319 0.45637 0.20041 0.0
H1198 H 0.8786 0.46697 0.14962 0.0
C1199 C 0.79428 0.41467 0.13379 0.0
C1200 C 0.80122 0.42625 0.11648 0.0
C1201 C 0.8088 0.42358 0.14994 0.0
C1202 C 0.87117 0.46427 0.16367 0.0
H1203 H 0.90329 0.4528 0.25518 0.0
H1204 H 0.87635 0.44086 0.22756 0.0
H1205 H 0.9052 0.48001 0.17724 0.0
H1206 H 0.8272 0.45736 0.10269 0.0
H1207 H 0.85261 0.4734 0.13102 0.0
H1208 H 0.81923 0.44126 0.18707 0.0
C1209 C 0.89056 0.45872 0.22879 0.0
C1210 C 0.88644 0.47161 0.17946 0.0
C1211 C 0.90597 0.46549 0.24448 0.0
C1212 C 0.82196 0.44782 0.11583 0.0
C1213 C 0.83651 0.45686 0.13202 0.0
C1214 C 0.83791 0.44941 0.18463 0.0
C1215 C 0.8937 0.47478 0.21466 0.0
C1216 C 0.87757 0.46753 0.19795 0.0
C1217 C 0.83037 0.44456 0.14919 0.0
C1218 C 0.84667 0.45308 0.16603 0.0
H1219 H 0.94173 0.52252 0.23364 0.0
H1220 H 0.91505 0.51048 0.20586 0.0
H1221 H 0.84597 0.45327 0.21456 0.0
H1222 H 0.77783 0.39841 0.13472 0.0
H1223 H 0.80343 0.41349 0.16279 0.0
loop_
_geom_bond_atom_site_label_1
_geom_bond_atom_site_label_2
_geom_bond_distance
_geom_bond_site_symmetry_2
_ccdc_geom_bond_type
H0 C19 0.949 . S
H1 C20 0.950 . S
H2 C22 0.950 . S
H3 C23 0.950 . S
H4 C25 0.950 . S
H5 C28 0.950 . S
H6 C29 0.950 . S
H7 C31 0.951 . S
H8 C32 0.949 . S
H9 C34 0.949 . S
H10 C35 0.950 . S
H11 C37 0.950 . S
H12 C38 0.950 . S
H13 C40 0.950 . S
H14 C43 0.950 . S
H15 C44 0.950 . S
H16 C46 0.951 . S
H17 C47 0.949 . S
C18 C19 1.376 . S
C18 C23 1.386 . S
C18 C24 1.483 . S
C19 H0 0.949 . S
C19 C18 1.376 . S
C19 C20 1.397 . S
C20 H1 0.950 . S
C20 C19 1.397 . S
C20 C21 1.391 . S
C21 C20 1.391 . S
C21 C22 1.405 . S
C22 H2 0.950 . S
C22 C21 1.405 . S
C22 C23 1.367 . S
C23 H3 0.950 . S
C23 C18 1.386 . S
C23 C22 1.367 . S
C24 C18 1.483 . S
C24 C25 1.382 1_655 S
C24 C26 1.403 . S
C25 H4 0.950 . S
C25 C24 1.382 1_455 S
C25 C41 1.411 . S
C26 C24 1.403 . S
C26 C27 1.489 . S
C26 C40 1.411 . S
C27 C26 1.489 . S
C27 C28 1.383 . S
C27 C32 1.382 . S
C28 H5 0.950 . S
C28 C27 1.383 . S
C28 C29 1.395 . S
C29 H6 0.950 . S
C29 C28 1.395 . S
C29 C30 1.288 . S
C30 C29 1.288 . S
C30 C31 1.392 . S
C31 H7 0.951 . S
C31 C30 1.392 . S
C31 C32 1.392 . S
C32 H8 0.949 . S
C32 C27 1.382 . S
C32 C31 1.392 . S
C33 C34 1.376 . S
C33 C38 1.386 . S
C33 C39 1.483 . S
C34 H9 0.949 . S
C34 C33 1.376 . S
C34 C35 1.397 . S
C35 H10 0.950 . S
C35 C34 1.397 . S
C35 C36 1.391 . S
C36 C35 1.391 . S
C36 C37 1.405 . S
C37 H11 0.950 . S
C37 C36 1.405 . S
C37 C38 1.367 . S
C38 H12 0.950 . S
C38 C33 1.386 . S
C38 C37 1.367 . S
C39 C33 1.483 . S
C39 C40 1.382 1_455 S
C39 C41 1.403 . S
C40 H13 0.950 . S
C40 C26 1.411 . S
C40 C39 1.382 1_655 S
C41 C25 1.411 . S
C41 C39 1.403 . S
C41 C42 1.489 . S
C42 C41 1.489 . S
C42 C43 1.383 . S
C42 C47 1.382 . S
C43 H14 0.950 . S
C43 C42 1.383 . S
C43 C44 1.395 . S
C44 H15 0.950 . S
C44 C43 1.395 . S
C44 C45 1.288 . S
C45 C44 1.288 . S
C45 C46 1.392 . S
C46 H16 0.951 . S
C46 C45 1.392 . S
C46 C47 1.392 . S
C47 H17 0.949 . S
C47 C42 1.382 . S
C47 C46 1.392 . S
H48 C67 0.949 . S
H49 C68 0.950 . S
H50 C70 0.950 . S
H51 C71 0.950 . S
H52 C73 0.950 . S
H53 C76 0.950 . S
H54 C77 0.950 . S
H55 C79 0.951 . S
H56 C80 0.949 . S
H57 C82 0.949 . S
H58 C83 0.950 . S
H59 C85 0.950 . S
H60 C86 0.950 . S
H61 C88 0.950 . S
H62 C91 0.950 . S
H63 C92 0.950 . S
H64 C94 0.951 . S
H65 C95 0.949 . S
C66 C67 1.376 . S
C66 C71 1.386 . S
C66 C72 1.483 . S
C67 H48 0.949 . S
C67 C66 1.376 . S
C67 C68 1.397 . S
C68 H49 0.950 . S
C68 C67 1.397 . S
C68 C69 1.391 . S
C69 C68 1.391 . S
C69 C70 1.405 . S
C70 H50 0.950 . S
C70 C69 1.405 . S
C70 C71 1.367 . S
C71 H51 0.950 . S
C71 C66 1.386 . S
C71 C70 1.367 . S
C72 C66 1.483 . S
C72 C73 1.382 1_565 S
C72 C74 1.402 1_565 S
C73 H52 0.950 . S
C73 C72 1.382 1_545 S
C73 C89 1.411 . S
C74 C72 1.402 1_545 S
C74 C75 1.487 1_545 S
C74 C88 1.414 . S
C75 C74 1.487 1_565 S
C75 C76 1.383 . S
C75 C80 1.382 . S
C76 H53 0.950 . S
C76 C75 1.383 . S
C76 C77 1.395 . S
C77 H54 0.950 . S
C77 C76 1.395 . S
C77 C78 1.288 . S
C78 C77 1.288 . S
C78 C79 1.392 . S
C79 H55 0.951 . S
C79 C78 1.392 . S
C79 C80 1.392 . S
C80 H56 0.949 . S
C80 C75 1.382 . S
C80 C79 1.392 . S
C81 C82 1.376 . S
C81 C86 1.386 . S
C81 C87 1.483 . S
C82 H57 0.949 . S
C82 C81 1.376 . S
C82 C83 1.397 . S
C83 H58 0.950 . S
C83 C82 1.397 . S
C83 C84 1.391 . S
C84 C83 1.391 . S
C84 C85 1.405 . S
C85 H59 0.950 . S
C85 C84 1.405 . S
C85 C86 1.367 . S
C86 H60 0.950 . S
C86 C81 1.386 . S
C86 C85 1.367 . S
C87 C81 1.483 . S
C87 C88 1.382 . S
C87 C89 1.403 . S
C88 H61 0.950 . S
C88 C74 1.414 . S
C88 C87 1.382 . S
C89 C73 1.411 . S
C89 C87 1.403 . S
C89 C90 1.489 . S
C90 C89 1.489 . S
C90 C91 1.383 . S
C90 C95 1.382 . S
C91 H62 0.950 . S
C91 C90 1.383 . S
C91 C92 1.395 . S
C92 H63 0.950 . S
C92 C91 1.395 . S
C92 C93 1.288 . S
C93 C92 1.288 . S
C93 C94 1.392 . S
C94 H64 0.951 . S
C94 C93 1.392 . S
C94 C95 1.392 . S
C95 H65 0.949 . S
C95 C90 1.382 . S
C95 C94 1.392 . S
H96 C115 0.949 . S
H97 C116 0.950 . S
H98 C118 0.950 . S
H99 C119 0.950 . S
H100 C121 0.950 . S
H101 C124 0.950 . S
H102 C125 0.950 . S
H103 C127 0.951 . S
H104 C128 0.949 . S
H105 C130 0.949 . S
H106 C131 0.950 . S
H107 C133 0.950 . S
H108 C134 0.950 . S
H109 C136 0.950 . S
H110 C139 0.950 . S
H111 C140 0.950 . S
H112 C142 0.951 . S
H113 C143 0.949 . S
C114 C115 1.376 . S
C114 C119 1.386 . S
C114 C120 1.483 . S
C115 H96 0.949 . S
C115 C114 1.376 . S
C115 C116 1.397 . S
C116 H97 0.950 . S
C116 C115 1.397 . S
C116 C117 1.391 . S
C117 C116 1.391 . S
C117 C118 1.405 . S
C118 H98 0.950 . S
C118 C117 1.405 . S
C118 C119 1.367 . S
C119 H99 0.950 . S
C119 C114 1.386 . S
C119 C118 1.367 . S
C120 C114 1.483 . S
C120 C121 1.382 . S
C120 C122 1.403 . S
C121 H100 0.950 . S
C121 C120 1.382 . S
C121 C137 1.411 . S
C122 C120 1.403 . S
C122 C123 1.489 . S
C122 C136 1.411 . S
C123 C122 1.489 . S
C123 C124 1.383 . S
C123 C128 1.382 . S
C124 H101 0.950 . S
C124 C123 1.383 . S
C124 C125 1.395 . S
C125 H102 0.950 . S
C125 C124 1.395 . S
C125 C126 1.288 . S
C126 C125 1.288 . S
C126 C127 1.392 . S
C127 H103 0.951 . S
C127 C126 1.392 . S
C127 C128 1.392 . S
C128 H104 0.949 . S
C128 C123 1.382 . S
C128 C127 1.392 . S
C129 C130 1.376 . S
C129 C134 1.386 . S
C129 C135 1.483 . S
C130 H105 0.949 . S
C130 C129 1.376 . S
C130 C131 1.397 . S
C131 H106 0.950 . S
C131 C130 1.397 . S
C131 C132 1.391 . S
C132 C131 1.391 . S
C132 C133 1.405 . S
C133 H107 0.950 . S
C133 C132 1.405 . S
C133 C134 1.367 . S
C134 H108 0.950 . S
C134 C129 1.386 . S
C134 C133 1.367 . S
C135 C129 1.483 . S
C135 C136 1.382 . S
C135 C137 1.403 . S
C136 H109 0.950 . S
C136 C122 1.411 . S
C136 C135 1.382 . S
C137 C121 1.411 . S
C137 C135 1.403 . S
C137 C138 1.489 . S
C138 C137 1.489 . S
C138 C139 1.383 . S
C138 C143 1.382 . S
C139 H110 0.950 . S
C139 C138 1.383 . S
C139 C140 1.395 . S
C140 H111 0.950 . S
C140 C139 1.395 . S
C140 C141 1.288 . S
C141 C140 1.288 . S
C141 C142 1.392 . S
C142 H112 0.951 . S
C142 C141 1.392 . S
C142 C143 1.392 . S
C143 H113 0.949 . S
C143 C138 1.382 . S
C143 C142 1.392 . S
H144 C163 0.949 . S
H145 C164 0.950 . S
H146 C166 0.950 . S
H147 C167 0.950 . S
H148 C169 0.950 . S
H149 C172 0.950 . S
H150 C173 0.950 . S
H151 C175 0.951 . S
H152 C176 0.949 . S
H153 C178 0.949 . S
H154 C179 0.950 . S
H155 C181 0.950 . S
H156 C182 0.950 . S
H157 C184 0.950 . S
H158 C187 0.950 . S
H159 C188 0.950 . S
H160 C190 0.951 . S
H161 C191 0.949 . S
C162 C163 1.376 . S
C162 C167 1.386 . S
C162 C168 1.483 . S
C163 H144 0.949 . S
C163 C162 1.376 . S
C163 C164 1.397 . S
C164 H145 0.950 . S
C164 C163 1.397 . S
C164 C165 1.391 . S
C165 C164 1.391 . S
C165 C166 1.405 . S
C166 H146 0.950 . S
C166 C165 1.405 . S
C166 C167 1.367 . S
C167 H147 0.950 . S
C167 C162 1.386 . S
C167 C166 1.367 . S
C168 C162 1.483 . S
C168 C169 1.382 1_455 S
C168 C170 1.403 . S
C169 H148 0.950 . S
C169 C168 1.382 1_655 S
C169 C185 1.411 . S
C170 C168 1.403 . S
C170 C171 1.489 . S
C170 C184 1.411 . S
C171 C170 1.489 . S
C171 C172 1.383 . S
C171 C176 1.382 . S
C172 H149 0.950 . S
C172 C171 1.383 . S
C172 C173 1.395 . S
C173 H150 0.950 . S
C173 C172 1.395 . S
C173 C174 1.288 . S
C174 C173 1.288 . S
C174 C175 1.392 . S
C175 H151 0.951 . S
C175 C174 1.392 . S
C175 C176 1.392 . S
C176 H152 0.949 . S
C176 C171 1.382 . S
C176 C175 1.392 . S
C177 C178 1.376 . S
C177 C182 1.386 . S
C177 C183 1.483 . S
C178 H153 0.949 . S
C178 C177 1.376 . S
C178 C179 1.397 . S
C179 H154 0.950 . S
C179 C178 1.397 . S
C179 C180 1.391 . S
C180 C179 1.391 . S
C180 C181 1.405 . S
C181 H155 0.950 . S
C181 C180 1.405 . S
C181 C182 1.367 . S
C182 H156 0.950 . S
C182 C177 1.386 . S
C182 C181 1.367 . S
C183 C177 1.483 . S
C183 C184 1.382 1_655 S
C183 C185 1.403 . S
C184 H157 0.950 . S
C184 C170 1.411 . S
C184 C183 1.382 1_455 S
C185 C169 1.411 . S
C185 C183 1.403 . S
C185 C186 1.489 . S
C186 C185 1.489 . S
C186 C187 1.383 . S
C186 C191 1.382 . S
C187 H158 0.950 . S
C187 C186 1.383 . S
C187 C188 1.395 . S
C188 H159 0.950 . S
C188 C187 1.395 . S
C188 C189 1.288 . S
C189 C188 1.288 . S
C189 C190 1.392 . S
C190 H160 0.951 . S
C190 C189 1.392 . S
C190 C191 1.392 . S
C191 H161 0.949 . S
C191 C186 1.382 . S
C191 C190 1.392 . S
H192 C211 0.949 . S
H193 C212 0.950 . S
H194 C214 0.950 . S
H195 C215 0.950 . S
H196 C217 0.950 . S
H197 C220 0.950 . S
H198 C221 0.950 . S
H199 C223 0.951 . S
H200 C224 0.949 . S
H201 C226 0.949 . S
H202 C227 0.950 . S
H203 C229 0.950 . S
H204 C230 0.950 . S
H205 C232 0.950 . S
H206 C235 0.950 . S
H207 C236 0.950 . S
H208 C238 0.951 . S
H209 C239 0.949 1_545 S
C210 C211 1.376 . S
C210 C215 1.386 1_554 S
C210 C216 1.483 1_554 S
C211 H192 0.949 . S
C211 C210 1.376 . S
C211 C212 1.397 . S
C212 H193 0.950 . S
C212 C211 1.397 . S
C212 C213 1.391 . S
C213 C212 1.391 . S
C213 C214 1.405 . S
C214 H194 0.950 . S
C214 C213 1.405 . S
C214 C215 1.367 1_554 S
C215 H195 0.950 . S
C215 C210 1.386 1_556 S
C215 C214 1.367 1_556 S
C216 C210 1.483 1_556 S
C216 C217 1.382 1_556 S
C216 C218 1.403 . S
C217 H196 0.950 . S
C217 C216 1.382 1_554 S
C217 C233 1.411 . S
C218 C216 1.403 . S
C218 C219 1.489 . S
C218 C232 1.411 . S
C219 C218 1.489 . S
C219 C220 1.383 . S
C219 C224 1.382 . S
C220 H197 0.950 . S
C220 C219 1.383 . S
C220 C221 1.395 . S
C221 H198 0.950 . S
C221 C220 1.395 . S
C221 C222 1.288 . S
C222 C221 1.288 . S
C222 C223 1.392 . S
C223 H199 0.951 . S
C223 C222 1.392 . S
C223 C224 1.392 . S
C224 H200 0.949 . S
C224 C219 1.382 . S
C224 C223 1.392 . S
C225 C226 1.376 . S
C225 C230 1.386 . S
C225 C231 1.483 . S
C226 H201 0.949 . S
C226 C225 1.376 . S
C226 C227 1.397 . S
C227 H202 0.950 . S
C227 C226 1.397 . S
C227 C228 1.391 . S
C228 C227 1.391 . S
C228 C229 1.405 . S
C229 H203 0.950 . S
C229 C228 1.405 . S
C229 C230 1.367 . S
C230 H204 0.950 . S
C230 C225 1.386 . S
C230 C229 1.367 . S
C231 C225 1.483 . S
C231 C232 1.382 1_565 S
C231 C233 1.403 1_566 S
C232 H205 0.950 . S
C232 C218 1.411 . S
C232 C231 1.382 1_545 S
C233 C217 1.411 . S
C233 C231 1.403 1_544 S
C233 C234 1.489 1_545 S
C234 C233 1.489 1_565 S
C234 C235 1.383 . S
C234 C239 1.382 . S
C235 H206 0.950 . S
C235 C234 1.383 . S
C235 C236 1.395 . S
C236 H207 0.950 . S
C236 C235 1.395 . S
C236 C237 1.288 . S
C237 C236 1.288 . S
C237 C238 1.392 . S
C238 H208 0.951 . S
C238 C237 1.392 . S
C238 C239 1.392 . S
C239 H209 0.949 1_565 S
C239 C234 1.382 . S
C239 C238 1.392 . S
H240 C259 0.949 . S
H241 C260 0.950 . S
H242 C262 0.950 . S
H243 C263 0.950 . S
H244 C265 0.950 . S
H245 C268 0.950 . S
H246 C269 0.950 . S
H247 C271 0.951 . S
H248 C272 0.949 . S
H249 C274 0.949 . S
H250 C275 0.950 . S
H251 C277 0.950 . S
H252 C278 0.950 . S
H253 C280 0.950 . S
H254 C283 0.950 . S
H255 C284 0.950 . S
H256 C286 0.951 . S
H257 C287 0.949 . S
C258 C259 1.376 . S
C258 C263 1.386 . S
C258 C264 1.483 . S
C259 H240 0.949 . S
C259 C258 1.376 . S
C259 C260 1.397 . S
C260 H241 0.950 . S
C260 C259 1.397 . S
C260 C261 1.391 . S
C261 C260 1.391 . S
C261 C262 1.405 . S
C262 H242 0.950 . S
C262 C261 1.405 . S
C262 C263 1.367 . S
C263 H243 0.950 . S
C263 C258 1.386 . S
C263 C262 1.367 . S
C264 C258 1.483 . S
C264 C265 1.382 . S
C264 C266 1.403 . S
C265 H244 0.950 . S
C265 C264 1.382 . S
C265 C281 1.411 . S
C266 C264 1.403 . S
C266 C267 1.489 . S
C266 C280 1.411 . S
C267 C266 1.489 . S
C267 C268 1.383 . S
C267 C272 1.382 . S
C268 H245 0.950 . S
C268 C267 1.383 . S
C268 C269 1.395 . S
C269 H246 0.950 . S
C269 C268 1.395 . S
C269 C270 1.288 . S
C270 C269 1.288 . S
C270 C271 1.392 . S
C271 H247 0.951 . S
C271 C270 1.392 . S
C271 C272 1.392 . S
C272 H248 0.949 . S
C272 C267 1.382 . S
C272 C271 1.392 . S
C273 C274 1.376 . S
C273 C278 1.386 . S
C273 C279 1.483 . S
C274 H249 0.949 . S
C274 C273 1.376 . S
C274 C275 1.397 . S
C275 H250 0.950 . S
C275 C274 1.397 . S
C275 C276 1.391 . S
C276 C275 1.391 . S
C276 C277 1.405 . S
C277 H251 0.950 . S
C277 C276 1.405 . S
C277 C278 1.367 . S
C278 H252 0.950 . S
C278 C273 1.386 . S
C278 C277 1.367 . S
C279 C273 1.483 . S
C279 C280 1.382 . S
C279 C281 1.403 . S
C280 H253 0.950 . S
C280 C266 1.411 . S
C280 C279 1.382 . S
C281 C265 1.411 . S
C281 C279 1.403 . S
C281 C282 1.489 . S
C282 C281 1.489 . S
C282 C283 1.383 . S
C282 C287 1.382 . S
C283 H254 0.950 . S
C283 C282 1.383 . S
C283 C284 1.395 . S
C284 H255 0.950 . S
C284 C283 1.395 . S
C284 C285 1.288 . S
C285 C284 1.288 . S
C285 C286 1.392 . S
C286 H256 0.951 . S
C286 C285 1.392 . S
C286 C287 1.392 . S
C287 H257 0.949 . S
C287 C282 1.382 . S
C287 C286 1.392 . S
Mn288 O293 2.095 . S
Mn288 O303 2.162 . S
Mn288 O304 2.297 . S
Mn288 O312 2.385 . S
Mn288 O313 2.209 . S
Mn288 O314 2.094 . S
Mn289 O294 2.121 . S
Mn289 N296 2.257 . S
Mn289 N305 2.282 . S
Mn289 O313 2.215 . S
Mn289 O315 2.117 . S
C290 O312 1.234 . S
C290 O313 1.283 . S
C291 O303 1.281 . S
C291 O304 1.236 . S
C292 O314 1.240 . S
C292 O315 1.264 . S
O293 Mn288 2.095 . S
O293 C302 1.250 . S
O294 Mn289 2.121 . S
O294 C302 1.258 . S
C295 N296 1.326 . S
C295 C299 1.460 . S
C295 H301 0.929 . S
N296 Mn289 2.257 . S
N296 C295 1.326 . S
N296 C300 1.362 . S
C297 C298 1.258 . S
C297 C300 1.431 . S
C297 C317 1.449 . S
C298 C297 1.258 . S
C298 C299 1.477 . S
C298 H318 0.931 . S
C299 C295 1.460 . S
C299 C298 1.477 . S
C299 H319 0.930 . S
C300 N296 1.362 . S
C300 C297 1.431 . S
C300 C310 1.476 . S
H301 C295 0.929 . S
C302 O293 1.250 . S
C302 O294 1.258 . S
O303 Mn288 2.162 . S
O303 C291 1.281 . S
O304 Mn288 2.297 . S
O304 C291 1.236 . S
N305 Mn289 2.282 . S
N305 C306 1.328 . S
N305 C310 1.318 . S
C306 N305 1.328 . S
C306 C307 1.457 . S
C306 H311 0.929 . S
C307 C306 1.457 . S
C307 C308 1.291 . S
C307 H320 0.931 . S
C308 C307 1.291 . S
C308 C309 1.373 . S
C308 H321 0.929 . S
C309 C308 1.373 . S
C309 C310 1.396 . S
C309 C316 1.403 . S
C310 C300 1.476 . S
C310 N305 1.318 . S
C310 C309 1.396 . S
H311 C306 0.929 . S
O312 Mn288 2.385 . S
O312 C290 1.234 . S
O313 Mn288 2.209 . S
O313 Mn289 2.215 . S
O313 C290 1.283 . S
O314 Mn288 2.094 . S
O314 C292 1.240 . S
O315 Mn289 2.117 . S
O315 C292 1.264 . S
C316 C309 1.403 . S
C316 C317 1.399 . S
C316 H322 0.929 . S
C317 C297 1.449 . S
C317 C316 1.399 . S
C317 H323 0.930 . S
H318 C298 0.931 . S
H319 C299 0.930 . S
H320 C307 0.931 . S
H321 C308 0.929 . S
H322 C316 0.929 . S
H323 C317 0.930 . S
Mn324 O329 2.095 . S
Mn324 O339 2.162 . S
Mn324 O340 2.297 . S
Mn324 O348 2.385 . S
Mn324 O349 2.209 . S
Mn324 O350 2.094 . S
Mn325 O330 2.121 . S
Mn325 N332 2.257 . S
Mn325 N341 2.282 . S
Mn325 O349 2.215 . S
Mn325 O351 2.117 . S
C326 O348 1.234 . S
C326 O349 1.283 . S
C327 O339 1.281 . S
C327 O340 1.236 . S
C328 O350 1.240 . S
C328 O351 1.264 . S
O329 Mn324 2.095 . S
O329 C338 1.250 . S
O330 Mn325 2.121 . S
O330 C338 1.258 . S
C331 N332 1.326 . S
C331 C335 1.460 . S
C331 H337 0.929 . S
N332 Mn325 2.257 . S
N332 C331 1.326 . S
N332 C336 1.362 . S
C333 C334 1.258 . S
C333 C336 1.431 . S
C333 C353 1.449 . S
C334 C333 1.258 . S
C334 C335 1.477 . S
C334 H354 0.931 . S
C335 C331 1.460 . S
C335 C334 1.477 . S
C335 H355 0.930 . S
C336 N332 1.362 . S
C336 C333 1.431 . S
C336 C346 1.476 . S
H337 C331 0.929 . S
C338 O329 1.250 . S
C338 O330 1.258 . S
O339 Mn324 2.162 . S
O339 C327 1.281 . S
O340 Mn324 2.297 . S
O340 C327 1.236 . S
N341 Mn325 2.282 . S
N341 C342 1.328 . S
N341 C346 1.318 . S
C342 N341 1.328 . S
C342 C343 1.457 . S
C342 H347 0.929 . S
C343 C342 1.457 . S
C343 C344 1.291 . S
C343 H356 0.931 . S
C344 C343 1.291 . S
C344 C345 1.373 . S
C344 H357 0.929 . S
C345 C344 1.373 . S
C345 C346 1.396 . S
C345 C352 1.403 . S
C346 C336 1.476 . S
C346 N341 1.318 . S
C346 C345 1.396 . S
H347 C342 0.929 . S
O348 Mn324 2.385 . S
O348 C326 1.234 . S
O349 Mn324 2.209 . S
O349 Mn325 2.215 . S
O349 C326 1.283 . S
O350 Mn324 2.094 . S
O350 C328 1.240 . S
O351 Mn325 2.117 . S
O351 C328 1.264 . S
C352 C345 1.403 . S
C352 C353 1.399 . S
C352 H358 0.929 . S
C353 C333 1.449 . S
C353 C352 1.399 . S
C353 H359 0.930 . S
H354 C334 0.931 . S
H355 C335 0.930 . S
H356 C343 0.931 . S
H357 C344 0.929 . S
H358 C352 0.929 . S
H359 C353 0.930 . S
Mn360 O365 2.095 . S
Mn360 O375 2.162 . S
Mn360 O376 2.297 . S
Mn360 O384 2.385 . S
Mn360 O385 2.209 . S
Mn360 O386 2.094 . S
Mn361 O366 2.121 . S
Mn361 N368 2.257 . S
Mn361 N377 2.282 . S
Mn361 O385 2.215 . S
Mn361 O387 2.117 . S
C362 O384 1.234 . S
C362 O385 1.283 . S
C363 O375 1.281 . S
C363 O376 1.236 . S
C364 O386 1.240 . S
C364 O387 1.264 . S
O365 Mn360 2.095 . S
O365 C374 1.250 . S
O366 Mn361 2.121 . S
O366 C374 1.258 . S
C367 N368 1.326 . S
C367 C371 1.460 . S
C367 H373 0.929 . S
N368 Mn361 2.257 . S
N368 C367 1.326 . S
N368 C372 1.362 . S
C369 C370 1.258 . S
C369 C372 1.431 . S
C369 C389 1.449 . S
C370 C369 1.258 . S
C370 C371 1.477 . S
C370 H390 0.931 . S
C371 C367 1.460 . S
C371 C370 1.477 . S
C371 H391 0.930 . S
C372 N368 1.362 . S
C372 C369 1.431 . S
C372 C382 1.476 . S
H373 C367 0.929 . S
C374 O365 1.250 . S
C374 O366 1.258 . S
O375 Mn360 2.162 . S
O375 C363 1.281 . S
O376 Mn360 2.297 . S
O376 C363 1.236 . S
N377 Mn361 2.282 . S
N377 C378 1.328 . S
N377 C382 1.318 . S
C378 N377 1.328 . S
C378 C379 1.457 . S
C378 H383 0.929 . S
C379 C378 1.457 . S
C379 C380 1.291 . S
C379 H392 0.931 . S
C380 C379 1.291 . S
C380 C381 1.373 . S
C380 H393 0.929 . S
C381 C380 1.373 . S
C381 C382 1.396 . S
C381 C388 1.403 . S
C382 C372 1.476 . S
C382 N377 1.318 . S
C382 C381 1.396 . S
H383 C378 0.929 . S
O384 Mn360 2.385 . S
O384 C362 1.234 . S
O385 Mn360 2.209 . S
O385 Mn361 2.215 . S
O385 C362 1.283 . S
O386 Mn360 2.094 . S
O386 C364 1.240 . S
O387 Mn361 2.117 . S
O387 C364 1.264 . S
C388 C381 1.403 . S
C388 C389 1.399 . S
C388 H394 0.929 . S
C389 C369 1.449 . S
C389 C388 1.399 . S
C389 H395 0.930 . S
H390 C370 0.931 . S
H391 C371 0.930 . S
H392 C379 0.931 . S
H393 C380 0.929 . S
H394 C388 0.929 . S
H395 C389 0.930 . S
Mn396 O401 2.095 . S
Mn396 O411 2.162 . S
Mn396 O412 2.297 . S
Mn396 O420 2.385 . S
Mn396 O421 2.209 . S
Mn396 O422 2.094 . S
Mn397 O402 2.121 . S
Mn397 N404 2.257 . S
Mn397 N413 2.282 . S
Mn397 O421 2.215 . S
Mn397 O423 2.117 . S
C398 O420 1.234 . S
C398 O421 1.283 . S
C399 O411 1.281 . S
C399 O412 1.236 . S
C400 O422 1.240 . S
C400 O423 1.264 . S
O401 Mn396 2.095 . S
O401 C410 1.250 . S
O402 Mn397 2.121 . S
O402 C410 1.258 . S
C403 N404 1.326 . S
C403 C407 1.460 . S
C403 H409 0.929 . S
N404 Mn397 2.257 . S
N404 C403 1.326 . S
N404 C408 1.362 . S
C405 C406 1.258 . S
C405 C408 1.431 . S
C405 C425 1.449 . S
C406 C405 1.258 . S
C406 C407 1.477 . S
C406 H426 0.931 . S
C407 C403 1.460 . S
C407 C406 1.477 . S
C407 H427 0.930 . S
C408 N404 1.362 . S
C408 C405 1.431 . S
C408 C418 1.476 . S
H409 C403 0.929 . S
C410 O401 1.250 . S
C410 O402 1.258 . S
O411 Mn396 2.162 . S
O411 C399 1.281 . S
O412 Mn396 2.297 . S
O412 C399 1.236 . S
N413 Mn397 2.282 . S
N413 C414 1.328 . S
N413 C418 1.318 . S
C414 N413 1.328 . S
C414 C415 1.457 . S
C414 H419 0.929 . S
C415 C414 1.457 . S
C415 C416 1.291 . S
C415 H428 0.931 . S
C416 C415 1.291 . S
C416 C417 1.373 . S
C416 H429 0.929 . S
C417 C416 1.373 . S
C417 C418 1.396 . S
C417 C424 1.403 . S
C418 C408 1.476 . S
C418 N413 1.318 . S
C418 C417 1.396 . S
H419 C414 0.929 . S
O420 Mn396 2.385 . S
O420 C398 1.234 . S
O421 Mn396 2.209 . S
O421 Mn397 2.215 . S
O421 C398 1.283 . S
O422 Mn396 2.094 . S
O422 C400 1.240 . S
O423 Mn397 2.117 . S
O423 C400 1.264 . S
C424 C417 1.403 . S
C424 C425 1.399 . S
C424 H430 0.929 . S
C425 C405 1.449 . S
C425 C424 1.399 . S
C425 H431 0.930 . S
H426 C406 0.931 . S
H427 C407 0.930 . S
H428 C415 0.931 . S
H429 C416 0.929 . S
H430 C424 0.929 . S
H431 C425 0.930 . S
Mn432 O437 2.095 . S
Mn432 O447 2.162 . S
Mn432 O448 2.297 . S
Mn432 O456 2.385 . S
Mn432 O457 2.209 . S
Mn432 O458 2.094 . S
Mn433 O438 2.121 . S
Mn433 N440 2.257 . S
Mn433 N449 2.282 . S
Mn433 O457 2.215 . S
Mn433 O459 2.117 . S
C434 O456 1.234 . S
C434 O457 1.283 . S
C435 O447 1.281 . S
C435 O448 1.236 . S
C436 O458 1.240 . S
C436 O459 1.264 . S
O437 Mn432 2.095 . S
O437 C446 1.250 . S
O438 Mn433 2.121 . S
O438 C446 1.258 . S
C439 N440 1.326 . S
C439 C443 1.460 . S
C439 H445 0.929 . S
N440 Mn433 2.257 . S
N440 C439 1.326 . S
N440 C444 1.362 . S
C441 C442 1.258 . S
C441 C444 1.431 . S
C441 C461 1.449 . S
C442 C441 1.258 . S
C442 C443 1.477 . S
C442 H462 0.931 . S
C443 C439 1.460 . S
C443 C442 1.477 . S
C443 H463 0.930 . S
C444 N440 1.362 . S
C444 C441 1.431 . S
C444 C454 1.476 . S
H445 C439 0.929 . S
C446 O437 1.250 . S
C446 O438 1.258 . S
O447 Mn432 2.162 . S
O447 C435 1.281 . S
O448 Mn432 2.297 . S
O448 C435 1.236 . S
N449 Mn433 2.282 . S
N449 C450 1.328 . S
N449 C454 1.318 . S
C450 N449 1.328 . S
C450 C451 1.457 . S
C450 H455 0.929 . S
C451 C450 1.457 . S
C451 C452 1.291 . S
C451 H464 0.931 . S
C452 C451 1.291 . S
C452 C453 1.373 . S
C452 H465 0.929 . S
C453 C452 1.373 . S
C453 C454 1.396 . S
C453 C460 1.403 . S
C454 C444 1.476 . S
C454 N449 1.318 . S
C454 C453 1.396 . S
H455 C450 0.929 . S
O456 Mn432 2.385 . S
O456 C434 1.234 . S
O457 Mn432 2.209 . S
O457 Mn433 2.215 . S
O457 C434 1.283 . S
O458 Mn432 2.094 . S
O458 C436 1.240 . S
O459 Mn433 2.117 . S
O459 C436 1.264 . S
C460 C453 1.403 . S
C460 C461 1.399 . S
C460 H466 0.929 . S
C461 C441 1.449 . S
C461 C460 1.399 . S
C461 H467 0.930 . S
H462 C442 0.931 . S
H463 C443 0.930 . S
H464 C451 0.931 . S
H465 C452 0.929 . S
H466 C460 0.929 . S
H467 C461 0.930 . S
Mn468 O473 2.095 . S
Mn468 O483 2.162 . S
Mn468 O484 2.297 . S
Mn468 O492 2.385 . S
Mn468 O493 2.209 . S
Mn468 O494 2.094 . S
Mn469 O474 2.121 . S
Mn469 N476 2.257 . S
Mn469 N485 2.282 . S
Mn469 O493 2.215 . S
Mn469 O495 2.117 . S
C470 O492 1.234 . S
C470 O493 1.283 . S
C471 O483 1.281 . S
C471 O484 1.236 . S
C472 O494 1.240 . S
C472 O495 1.264 . S
O473 Mn468 2.095 . S
O473 C482 1.250 . S
O474 Mn469 2.121 . S
O474 C482 1.258 . S
C475 N476 1.326 . S
C475 C479 1.460 . S
C475 H481 0.929 . S
N476 Mn469 2.257 . S
N476 C475 1.326 . S
N476 C480 1.362 . S
C477 C478 1.258 . S
C477 C480 1.431 . S
C477 C497 1.449 . S
C478 C477 1.258 . S
C478 C479 1.477 . S
C478 H498 0.931 . S
C479 C475 1.460 . S
C479 C478 1.477 . S
C479 H499 0.930 . S
C480 N476 1.362 . S
C480 C477 1.431 . S
C480 C490 1.476 . S
H481 C475 0.929 . S
C482 O473 1.250 . S
C482 O474 1.258 . S
O483 Mn468 2.162 . S
O483 C471 1.281 . S
O484 Mn468 2.297 . S
O484 C471 1.236 . S
N485 Mn469 2.282 . S
N485 C486 1.328 . S
N485 C490 1.318 . S
C486 N485 1.328 . S
C486 C487 1.457 . S
C486 H491 0.929 . S
C487 C486 1.457 . S
C487 C488 1.291 . S
C487 H500 0.931 . S
C488 C487 1.291 . S
C488 C489 1.373 . S
C488 H501 0.929 . S
C489 C488 1.373 . S
C489 C490 1.396 . S
C489 C496 1.403 . S
C490 C480 1.476 . S
C490 N485 1.318 . S
C490 C489 1.396 . S
H491 C486 0.929 . S
O492 Mn468 2.385 . S
O492 C470 1.234 . S
O493 Mn468 2.209 . S
O493 Mn469 2.215 . S
O493 C470 1.283 . S
O494 Mn468 2.094 . S
O494 C472 1.240 . S
O495 Mn469 2.117 . S
O495 C472 1.264 . S
C496 C489 1.403 . S
C496 C497 1.399 . S
C496 H502 0.929 . S
C497 C477 1.449 . S
C497 C496 1.399 . S
C497 H503 0.930 . S
H498 C478 0.931 . S
H499 C479 0.930 . S
H500 C487 0.931 . S
H501 C488 0.929 . S
H502 C496 0.929 . S
H503 C497 0.930 . S
C504 C505 1.349 . S
C504 C506 1.327 . S
C504 H529 0.950 . S
C505 C504 1.349 . S
C505 C521 1.349 . S
C506 C504 1.327 . S
C506 C525 1.429 . S
C506 H530 0.950 . S
C507 C524 1.574 . S
C507 C526 1.368 . S
C507 H531 0.949 . S
H508 C512 0.949 . S
C509 C510 1.349 . S
C509 C511 1.327 . S
C509 H532 0.950 . S
C510 C509 1.349 . S
C510 C522 1.349 . S
C511 C509 1.327 . S
C511 C527 1.429 . S
C511 H533 0.950 . S
C512 H508 0.949 . S
C512 C520 1.574 . S
C512 C528 1.368 . S
H513 C521 0.950 . S
H514 C519 0.950 . S
H515 C520 0.949 . S
H516 C522 0.950 . S
H517 C523 0.950 . S
H518 C524 0.949 . S
C519 H514 0.950 . S
C519 C521 1.327 . S
C519 C525 1.429 . S
C520 C512 1.574 . S
C520 H515 0.949 . S
C520 C526 1.368 . S
C521 C505 1.349 . S
C521 H513 0.950 . S
C521 C519 1.327 . S
C522 C510 1.349 . S
C522 H516 0.950 . S
C522 C523 1.327 . S
C523 H517 0.950 . S
C523 C522 1.327 . S
C523 C527 1.429 . S
C524 C507 1.574 . S
C524 H518 0.949 . S
C524 C528 1.368 . S
C525 C506 1.429 . S
C525 C519 1.429 . S
C525 C526 1.523 . S
C526 C507 1.368 . S
C526 C520 1.368 . S
C526 C525 1.523 . S
C527 C511 1.429 . S
C527 C523 1.429 . S
C527 C528 1.523 . S
C528 C512 1.368 . S
C528 C524 1.368 . S
C528 C527 1.523 . S
H529 C504 0.950 . S
H530 C506 0.950 . S
H531 C507 0.949 . S
H532 C509 0.950 . S
H533 C511 0.950 . S
C534 C535 1.349 . S
C534 C536 1.327 . S
C534 H559 0.950 . S
C535 C534 1.349 . S
C535 C551 1.349 . S
C536 C534 1.327 . S
C536 C555 1.429 . S
C536 H560 0.950 . S
C537 C554 1.574 . S
C537 C556 1.368 . S
C537 H561 0.949 . S
H538 C542 0.949 . S
C539 C540 1.349 . S
C539 C541 1.327 . S
C539 H562 0.950 . S
C540 C539 1.349 . S
C540 C552 1.349 . S
C541 C539 1.327 . S
C541 C557 1.429 . S
C541 H563 0.950 . S
C542 H538 0.949 . S
C542 C550 1.574 . S
C542 C558 1.368 . S
H543 C551 0.950 . S
H544 C549 0.950 . S
H545 C550 0.949 . S
H546 C552 0.950 . S
H547 C553 0.950 . S
H548 C554 0.949 . S
C549 H544 0.950 . S
C549 C551 1.327 . S
C549 C555 1.429 . S
C550 C542 1.574 . S
C550 H545 0.949 . S
C550 C556 1.368 . S
C551 C535 1.349 . S
C551 H543 0.950 . S
C551 C549 1.327 . S
C552 C540 1.349 . S
C552 H546 0.950 . S
C552 C553 1.327 . S
C553 H547 0.950 . S
C553 C552 1.327 . S
C553 C557 1.429 . S
C554 C537 1.574 . S
C554 H548 0.949 . S
C554 C558 1.368 . S
C555 C536 1.429 . S
C555 C549 1.429 . S
C555 C556 1.523 . S
C556 C537 1.368 . S
C556 C550 1.368 . S
C556 C555 1.523 . S
C557 C541 1.429 . S
C557 C553 1.429 . S
C557 C558 1.523 . S
C558 C542 1.368 . S
C558 C554 1.368 . S
C558 C557 1.523 . S
H559 C534 0.950 . S
H560 C536 0.950 . S
H561 C537 0.949 . S
H562 C539 0.950 . S
H563 C541 0.950 . S
C564 C565 1.349 . S
C564 C566 1.327 . S
C564 H589 0.950 . S
C565 C564 1.349 . S
C565 C581 1.349 . S
C566 C564 1.327 . S
C566 C585 1.429 . S
C566 H590 0.950 . S
C567 C584 1.574 . S
C567 C586 1.368 . S
C567 H591 0.949 . S
H568 C572 0.949 . S
C569 C570 1.349 . S
C569 C571 1.327 . S
C569 H592 0.950 . S
C570 C569 1.349 . S
C570 C582 1.349 . S
C571 C569 1.327 . S
C571 C587 1.429 . S
C571 H593 0.950 . S
C572 H568 0.949 . S
C572 C580 1.574 . S
C572 C588 1.368 . S
H573 C581 0.950 . S
H574 C579 0.950 . S
H575 C580 0.949 . S
H576 C582 0.950 . S
H577 C583 0.950 . S
H578 C584 0.949 . S
C579 H574 0.950 . S
C579 C581 1.327 . S
C579 C585 1.429 . S
C580 C572 1.574 . S
C580 H575 0.949 . S
C580 C586 1.368 . S
C581 C565 1.349 . S
C581 H573 0.950 . S
C581 C579 1.327 . S
C582 C570 1.349 . S
C582 H576 0.950 . S
C582 C583 1.327 . S
C583 H577 0.950 . S
C583 C582 1.327 . S
C583 C587 1.429 . S
C584 C567 1.574 . S
C584 H578 0.949 . S
C584 C588 1.368 . S
C585 C566 1.429 . S
C585 C579 1.429 . S
C585 C586 1.523 . S
C586 C567 1.368 . S
C586 C580 1.368 . S
C586 C585 1.523 . S
C587 C571 1.429 . S
C587 C583 1.429 . S
C587 C588 1.523 . S
C588 C572 1.368 . S
C588 C584 1.368 . S
C588 C587 1.523 . S
H589 C564 0.950 . S
H590 C566 0.950 . S
H591 C567 0.949 . S
H592 C569 0.950 . S
H593 C571 0.950 . S
C594 C595 1.349 . S
C594 C596 1.327 . S
C594 H619 0.950 . S
C595 C594 1.349 . S
C595 C611 1.349 . S
C596 C594 1.327 . S
C596 C615 1.429 . S
C596 H620 0.950 . S
C597 C614 1.574 . S
C597 C616 1.368 . S
C597 H621 0.949 . S
H598 C602 0.949 . S
C599 C600 1.349 . S
C599 C601 1.327 . S
C599 H622 0.950 . S
C600 C599 1.349 . S
C600 C612 1.349 . S
C601 C599 1.327 . S
C601 C617 1.429 . S
C601 H623 0.950 . S
C602 H598 0.949 . S
C602 C610 1.574 . S
C602 C618 1.368 . S
H603 C611 0.950 . S
H604 C609 0.950 . S
H605 C610 0.949 . S
H606 C612 0.950 . S
H607 C613 0.950 . S
H608 C614 0.949 . S
C609 H604 0.950 . S
C609 C611 1.327 . S
C609 C615 1.429 . S
C610 C602 1.574 . S
C610 H605 0.949 . S
C610 C616 1.368 . S
C611 C595 1.349 . S
C611 H603 0.950 . S
C611 C609 1.327 . S
C612 C600 1.349 . S
C612 H606 0.950 . S
C612 C613 1.327 . S
C613 H607 0.950 . S
C613 C612 1.327 . S
C613 C617 1.429 . S
C614 C597 1.574 . S
C614 H608 0.949 . S
C614 C618 1.368 . S
C615 C596 1.429 . S
C615 C609 1.429 . S
C615 C616 1.523 . S
C616 C597 1.368 . S
C616 C610 1.368 . S
C616 C615 1.523 . S
C617 C601 1.429 . S
C617 C613 1.429 . S
C617 C618 1.523 . S
C618 C602 1.368 . S
C618 C614 1.368 . S
C618 C617 1.523 . S
H619 C594 0.950 . S
H620 C596 0.950 . S
H621 C597 0.949 . S
H622 C599 0.950 . S
H623 C601 0.950 . S
C624 C625 1.349 . S
C624 C626 1.327 . S
C624 H649 0.950 . S
C625 C624 1.349 . S
C625 C641 1.349 . S
C626 C624 1.327 . S
C626 C645 1.429 . S
C626 H650 0.950 . S
C627 C644 1.574 . S
C627 C646 1.368 . S
C627 H651 0.949 . S
H628 C632 0.949 . S
C629 C630 1.349 . S
C629 C631 1.327 . S
C629 H652 0.950 . S
C630 C629 1.349 . S
C630 C642 1.349 . S
C631 C629 1.327 . S
C631 C647 1.429 . S
C631 H653 0.950 . S
C632 H628 0.949 . S
C632 C640 1.574 . S
C632 C648 1.368 . S
H633 C641 0.950 . S
H634 C639 0.950 . S
H635 C640 0.949 . S
H636 C642 0.950 . S
H637 C643 0.950 . S
H638 C644 0.949 . S
C639 H634 0.950 . S
C639 C641 1.327 . S
C639 C645 1.429 . S
C640 C632 1.574 . S
C640 H635 0.949 . S
C640 C646 1.368 . S
C641 C625 1.349 . S
C641 H633 0.950 . S
C641 C639 1.327 . S
C642 C630 1.349 . S
C642 H636 0.950 . S
C642 C643 1.327 . S
C643 H637 0.950 . S
C643 C642 1.327 . S
C643 C647 1.429 . S
C644 C627 1.574 . S
C644 H638 0.949 . S
C644 C648 1.368 . S
C645 C626 1.429 . S
C645 C639 1.429 . S
C645 C646 1.523 . S
C646 C627 1.368 . S
C646 C640 1.368 . S
C646 C645 1.523 . S
C647 C631 1.429 . S
C647 C643 1.429 . S
C647 C648 1.523 . S
C648 C632 1.368 . S
C648 C644 1.368 . S
C648 C647 1.523 . S
H649 C624 0.950 . S
H650 C626 0.950 . S
H651 C627 0.949 . S
H652 C629 0.950 . S
H653 C631 0.950 . S
C654 C655 1.349 . S
C654 C656 1.327 . S
C654 H679 0.950 . S
C655 C654 1.349 . S
C655 C671 1.349 . S
C656 C654 1.327 . S
C656 C675 1.429 . S
C656 H680 0.950 . S
C657 C674 1.574 . S
C657 C676 1.368 . S
C657 H681 0.949 . S
H658 C662 0.949 . S
C659 C660 1.349 . S
C659 C661 1.327 . S
C659 H682 0.950 . S
C660 C659 1.349 . S
C660 C672 1.349 . S
C661 C659 1.327 . S
C661 C677 1.429 . S
C661 H683 0.950 . S
C662 H658 0.949 . S
C662 C670 1.574 . S
C662 C678 1.368 . S
H663 C671 0.950 . S
H664 C669 0.950 . S
H665 C670 0.949 . S
H666 C672 0.950 . S
H667 C673 0.950 . S
H668 C674 0.949 . S
C669 H664 0.950 . S
C669 C671 1.327 . S
C669 C675 1.429 . S
C670 C662 1.574 . S
C670 H665 0.949 . S
C670 C676 1.368 . S
C671 C655 1.349 . S
C671 H663 0.950 . S
C671 C669 1.327 . S
C672 C660 1.349 . S
C672 H666 0.950 . S
C672 C673 1.327 . S
C673 H667 0.950 . S
C673 C672 1.327 . S
C673 C677 1.429 . S
C674 C657 1.574 . S
C674 H668 0.949 . S
C674 C678 1.368 . S
C675 C656 1.429 . S
C675 C669 1.429 . S
C675 C676 1.523 . S
C676 C657 1.368 . S
C676 C670 1.368 . S
C676 C675 1.523 . S
C677 C661 1.429 . S
C677 C673 1.429 . S
C677 C678 1.523 . S
C678 C662 1.368 . S
C678 C674 1.368 . S
C678 C677 1.523 . S
H679 C654 0.950 . S
H680 C656 0.950 . S
H681 C657 0.949 . S
H682 C659 0.950 . S
H683 C661 0.950 . S
C684 C685 1.349 . S
C684 C686 1.327 . S
C684 H709 0.950 . S
C685 C684 1.349 . S
C685 C701 1.349 . S
C686 C684 1.327 . S
C686 C705 1.429 . S
C686 H710 0.950 . S
C687 C704 1.574 . S
C687 C706 1.368 . S
C687 H711 0.949 . S
H688 C692 0.949 . S
C689 C690 1.349 . S
C689 C691 1.327 . S
C689 H712 0.950 . S
C690 C689 1.349 . S
C690 C702 1.349 . S
C691 C689 1.327 . S
C691 C707 1.429 . S
C691 H713 0.950 . S
C692 H688 0.949 . S
C692 C700 1.574 . S
C692 C708 1.368 . S
H693 C701 0.950 . S
H694 C699 0.950 . S
H695 C700 0.949 . S
H696 C702 0.950 . S
H697 C703 0.950 . S
H698 C704 0.949 . S
C699 H694 0.950 . S
C699 C701 1.327 . S
C699 C705 1.429 . S
C700 C692 1.574 . S
C700 H695 0.949 . S
C700 C706 1.368 . S
C701 C685 1.349 . S
C701 H693 0.950 . S
C701 C699 1.327 . S
C702 C690 1.349 . S
C702 H696 0.950 . S
C702 C703 1.327 . S
C703 H697 0.950 . S
C703 C702 1.327 . S
C703 C707 1.429 . S
C704 C687 1.574 . S
C704 H698 0.949 . S
C704 C708 1.368 . S
C705 C686 1.429 . S
C705 C699 1.429 . S
C705 C706 1.523 . S
C706 C687 1.368 . S
C706 C700 1.368 . S
C706 C705 1.523 . S
C707 C691 1.429 . S
C707 C703 1.429 . S
C707 C708 1.523 . S
C708 C692 1.368 . S
C708 C704 1.368 . S
C708 C707 1.523 . S
H709 C684 0.950 . S
H710 C686 0.950 . S
H711 C687 0.949 . S
H712 C689 0.950 . S
H713 C691 0.950 . S
C714 C715 1.349 . S
C714 C716 1.327 . S
C714 H739 0.950 . S
C715 C714 1.349 . S
C715 C731 1.349 . S
C716 C714 1.327 . S
C716 C735 1.429 . S
C716 H740 0.950 . S
C717 C734 1.574 . S
C717 C736 1.368 . S
C717 H741 0.949 . S
H718 C722 0.949 . S
C719 C720 1.349 . S
C719 C721 1.327 . S
C719 H742 0.950 . S
C720 C719 1.349 . S
C720 C732 1.349 . S
C721 C719 1.327 . S
C721 C737 1.429 . S
C721 H743 0.950 . S
C722 H718 0.949 . S
C722 C730 1.574 . S
C722 C738 1.368 . S
H723 C731 0.950 . S
H724 C729 0.950 . S
H725 C730 0.949 . S
H726 C732 0.950 . S
H727 C733 0.950 . S
H728 C734 0.949 . S
C729 H724 0.950 . S
C729 C731 1.327 . S
C729 C735 1.429 . S
C730 C722 1.574 . S
C730 H725 0.949 . S
C730 C736 1.368 . S
C731 C715 1.349 . S
C731 H723 0.950 . S
C731 C729 1.327 . S
C732 C720 1.349 . S
C732 H726 0.950 . S
C732 C733 1.327 . S
C733 H727 0.950 . S
C733 C732 1.327 . S
C733 C737 1.429 . S
C734 C717 1.574 . S
C734 H728 0.949 . S
C734 C738 1.368 . S
C735 C716 1.429 . S
C735 C729 1.429 . S
C735 C736 1.523 . S
C736 C717 1.368 . S
C736 C730 1.368 . S
C736 C735 1.523 . S
C737 C721 1.429 . S
C737 C733 1.429 . S
C737 C738 1.523 . S
C738 C722 1.368 . S
C738 C734 1.368 . S
C738 C737 1.523 . S
H739 C714 0.950 . S
H740 C716 0.950 . S
H741 C717 0.949 . S
H742 C719 0.950 . S
H743 C721 0.950 . S
C744 C745 1.349 . S
C744 C746 1.327 . S
C744 H769 0.950 . S
C745 C744 1.349 . S
C745 C761 1.349 . S
C746 C744 1.327 . S
C746 C765 1.429 . S
C746 H770 0.950 . S
C747 C764 1.574 . S
C747 C766 1.368 . S
C747 H771 0.949 . S
H748 C752 0.949 . S
C749 C750 1.349 . S
C749 C751 1.327 . S
C749 H772 0.950 . S
C750 C749 1.349 . S
C750 C762 1.349 . S
C751 C749 1.327 . S
C751 C767 1.429 . S
C751 H773 0.950 . S
C752 H748 0.949 . S
C752 C760 1.574 . S
C752 C768 1.368 . S
H753 C761 0.950 . S
H754 C759 0.950 . S
H755 C760 0.949 . S
H756 C762 0.950 . S
H757 C763 0.950 . S
H758 C764 0.949 . S
C759 H754 0.950 . S
C759 C761 1.327 . S
C759 C765 1.429 . S
C760 C752 1.574 . S
C760 H755 0.949 . S
C760 C766 1.368 . S
C761 C745 1.349 . S
C761 H753 0.950 . S
C761 C759 1.327 . S
C762 C750 1.349 . S
C762 H756 0.950 . S
C762 C763 1.327 . S
C763 H757 0.950 . S
C763 C762 1.327 . S
C763 C767 1.429 . S
C764 C747 1.574 . S
C764 H758 0.949 . S
C764 C768 1.368 . S
C765 C746 1.429 . S
C765 C759 1.429 . S
C765 C766 1.523 . S
C766 C747 1.368 . S
C766 C760 1.368 . S
C766 C765 1.523 . S
C767 C751 1.429 . S
C767 C763 1.429 . S
C767 C768 1.523 . S
C768 C752 1.368 . S
C768 C764 1.368 . S
C768 C767 1.523 . S
H769 C744 0.950 . S
H770 C746 0.950 . S
H771 C747 0.949 . S
H772 C749 0.950 . S
H773 C751 0.950 . S
C774 C775 1.349 . S
C774 C776 1.327 . S
C774 H799 0.931 1_554 S
C775 C774 1.349 . S
C775 C791 1.349 . S
C776 C774 1.327 . S
C776 C795 1.429 . S
C776 H800 0.950 . S
C777 C794 1.574 . S
C777 C796 1.368 . S
C777 H801 0.949 . S
H778 C782 0.949 . S
C779 C780 1.349 . S
C779 C781 1.327 . S
C779 H802 0.950 . S
C780 C779 1.349 . S
C780 C792 1.349 . S
C781 C779 1.327 . S
C781 C797 1.429 . S
C781 H803 0.950 . S
C782 H778 0.949 . S
C782 C790 1.574 . S
C782 C798 1.368 . S
H783 C791 0.950 . S
H784 C789 0.950 . S
H785 C790 0.949 . S
H786 C792 0.950 . S
H787 C793 0.950 . S
H788 C794 0.949 . S
C789 H784 0.950 . S
C789 C791 1.327 . S
C789 C795 1.429 . S
C790 C782 1.574 . S
C790 H785 0.949 . S
C790 C796 1.368 . S
C791 C775 1.349 . S
C791 H783 0.950 . S
C791 C789 1.327 . S
C792 C780 1.349 . S
C792 H786 0.950 . S
C792 C793 1.327 . S
C793 H787 0.950 . S
C793 C792 1.327 . S
C793 C797 1.429 . S
C794 C777 1.574 . S
C794 H788 0.949 . S
C794 C798 1.368 . S
C795 C776 1.429 . S
C795 C789 1.429 . S
C795 C796 1.523 . S
C796 C777 1.368 . S
C796 C790 1.368 . S
C796 C795 1.523 . S
C797 C781 1.429 . S
C797 C793 1.429 . S
C797 C798 1.523 . S
C798 C782 1.368 . S
C798 C794 1.368 . S
C798 C797 1.523 . S
H799 C774 0.931 1_556 S
H800 C776 0.950 . S
H801 C777 0.949 . S
H802 C779 0.950 . S
H803 C781 0.950 . S
C804 C805 1.349 . S
C804 C806 1.327 . S
C804 H829 0.950 . S
C805 C804 1.349 . S
C805 C821 1.349 . S
C806 C804 1.327 . S
C806 C825 1.429 . S
C806 H830 0.950 . S
C807 C824 1.574 . S
C807 C826 1.368 . S
C807 H831 0.949 . S
H808 C812 0.949 . S
C809 C810 1.349 . S
C809 C811 1.327 . S
C809 H832 0.950 . S
C810 C809 1.349 . S
C810 C822 1.349 . S
C811 C809 1.327 . S
C811 C827 1.429 . S
C811 H833 0.950 . S
C812 H808 0.949 . S
C812 C820 1.574 . S
C812 C828 1.368 . S
H813 C821 0.950 . S
H814 C819 0.950 . S
H815 C820 0.949 . S
H816 C822 0.950 . S
H817 C823 0.950 . S
H818 C824 0.949 . S
C819 H814 0.950 . S
C819 C821 1.327 . S
C819 C825 1.429 . S
C820 C812 1.574 . S
C820 H815 0.949 . S
C820 C826 1.368 . S
C821 C805 1.349 . S
C821 H813 0.950 . S
C821 C819 1.327 . S
C822 C810 1.349 . S
C822 H816 0.950 . S
C822 C823 1.327 . S
C823 H817 0.950 . S
C823 C822 1.327 . S
C823 C827 1.429 . S
C824 C807 1.574 . S
C824 H818 0.949 . S
C824 C828 1.368 . S
C825 C806 1.429 . S
C825 C819 1.429 . S
C825 C826 1.523 . S
C826 C807 1.368 . S
C826 C820 1.368 . S
C826 C825 1.523 . S
C827 C811 1.429 . S
C827 C823 1.429 . S
C827 C828 1.523 . S
C828 C812 1.368 . S
C828 C824 1.368 . S
C828 C827 1.523 . S
H829 C804 0.950 . S
H830 C806 0.950 . S
H831 C807 0.949 . S
H832 C809 0.950 . S
H833 C811 0.950 . S
C834 C835 1.349 . S
C834 C836 1.327 . S
C834 H859 0.950 . S
C835 C834 1.349 . S
C835 C851 1.349 . S
C836 C834 1.327 . S
C836 C855 1.429 . S
C836 H860 0.950 . S
C837 C854 1.574 . S
C837 C856 1.368 . S
C837 H861 0.949 . S
H838 C842 0.949 . S
C839 C840 1.349 . S
C839 C841 1.327 . S
C839 H862 0.950 . S
C840 C839 1.349 . S
C840 C852 1.349 . S
C841 C839 1.327 . S
C841 C857 1.429 . S
C841 H863 0.950 . S
C842 H838 0.949 . S
C842 C850 1.574 . S
C842 C858 1.368 . S
H843 C851 0.950 . S
H844 C849 0.950 . S
H845 C850 0.949 . S
H846 C852 0.950 . S
H847 C853 0.950 . S
H848 C854 0.949 . S
C849 H844 0.950 . S
C849 C851 1.327 . S
C849 C855 1.429 . S
C850 C842 1.574 . S
C850 H845 0.949 . S
C850 C856 1.368 . S
C851 C835 1.349 . S
C851 H843 0.950 . S
C851 C849 1.327 . S
C852 C840 1.349 . S
C852 H846 0.950 . S
C852 C853 1.327 . S
C853 H847 0.950 . S
C853 C852 1.327 . S
C853 C857 1.429 . S
C854 C837 1.574 . S
C854 H848 0.949 . S
C854 C858 1.368 . S
C855 C836 1.429 . S
C855 C849 1.429 . S
C855 C856 1.523 . S
C856 C837 1.368 . S
C856 C850 1.368 . S
C856 C855 1.523 . S
C857 C841 1.429 . S
C857 C853 1.429 . S
C857 C858 1.523 . S
C858 C842 1.368 . S
C858 C854 1.368 . S
C858 C857 1.523 . S
H859 C834 0.950 . S
H860 C836 0.950 . S
H861 C837 0.949 . S
H862 C839 0.950 . S
H863 C841 0.950 . S
C864 C865 1.349 . S
C864 C866 1.327 . S
C864 H889 0.950 . S
C865 C864 1.349 . S
C865 C881 1.349 . S
C866 C864 1.327 . S
C866 C885 1.429 . S
C866 H890 0.950 . S
C867 C884 1.574 . S
C867 C886 1.368 . S
C867 H891 0.949 . S
H868 C872 0.949 . S
C869 C870 1.349 . S
C869 C871 1.327 . S
C869 H892 0.950 . S
C870 C869 1.349 . S
C870 C882 1.349 . S
C871 C869 1.327 . S
C871 C887 1.429 . S
C871 H893 0.950 . S
C872 H868 0.949 . S
C872 C880 1.574 . S
C872 C888 1.368 . S
H873 C881 0.950 . S
H874 C879 0.950 . S
H875 C880 0.949 . S
H876 C882 0.950 . S
H877 C883 0.950 . S
H878 C884 0.949 . S
C879 H874 0.950 . S
C879 C881 1.327 . S
C879 C885 1.429 . S
C880 C872 1.574 . S
C880 H875 0.949 . S
C880 C886 1.368 . S
C881 C865 1.349 . S
C881 H873 0.950 . S
C881 C879 1.327 . S
C882 C870 1.349 . S
C882 H876 0.950 . S
C882 C883 1.327 . S
C883 H877 0.950 . S
C883 C882 1.327 . S
C883 C887 1.429 . S
C884 C867 1.574 . S
C884 H878 0.949 . S
C884 C888 1.368 . S
C885 C866 1.429 . S
C885 C879 1.429 . S
C885 C886 1.523 . S
C886 C867 1.368 . S
C886 C880 1.368 . S
C886 C885 1.523 . S
C887 C871 1.429 . S
C887 C883 1.429 . S
C887 C888 1.523 . S
C888 C872 1.368 . S
C888 C884 1.368 . S
C888 C887 1.523 . S
H889 C864 0.950 . S
H890 C866 0.950 . S
H891 C867 0.949 . S
H892 C869 0.950 . S
H893 C871 0.950 . S
C894 C895 1.349 . S
C894 C896 1.327 . S
C894 H919 0.950 . S
C895 C894 1.349 . S
C895 C911 1.349 . S
C896 C894 1.327 . S
C896 C915 1.429 . S
C896 H920 0.950 . S
C897 C914 1.574 . S
C897 C916 1.368 . S
C897 H921 0.949 . S
H898 C902 0.949 . S
C899 C900 1.349 . S
C899 C901 1.327 . S
C899 H922 0.950 . S
C900 C899 1.349 . S
C900 C912 1.349 . S
C901 C899 1.327 . S
C901 C917 1.429 . S
C901 H923 0.950 . S
C902 H898 0.949 . S
C902 C910 1.574 . S
C902 C918 1.368 . S
H903 C911 0.950 . S
H904 C909 0.950 . S
H905 C910 0.949 . S
H906 C912 0.950 . S
H907 C913 0.950 . S
H908 C914 0.949 . S
C909 H904 0.950 . S
C909 C911 1.327 . S
C909 C915 1.429 . S
C910 C902 1.574 . S
C910 H905 0.949 . S
C910 C916 1.368 . S
C911 C895 1.349 . S
C911 H903 0.950 . S
C911 C909 1.327 . S
C912 C900 1.349 . S
C912 H906 0.950 . S
C912 C913 1.327 . S
C913 H907 0.950 . S
C913 C912 1.327 . S
C913 C917 1.429 . S
C914 C897 1.574 . S
C914 H908 0.949 . S
C914 C918 1.368 . S
C915 C896 1.429 . S
C915 C909 1.429 . S
C915 C916 1.523 . S
C916 C897 1.368 . S
C916 C910 1.368 . S
C916 C915 1.523 . S
C917 C901 1.429 . S
C917 C913 1.429 . S
C917 C918 1.523 . S
C918 C902 1.368 . S
C918 C914 1.368 . S
C918 C917 1.523 . S
H919 C894 0.950 . S
H920 C896 0.950 . S
H921 C897 0.949 . S
H922 C899 0.950 . S
H923 C901 0.950 . S
C924 C925 1.349 . S
C924 C926 1.327 . S
C924 H949 0.950 . S
C925 C924 1.349 . S
C925 C941 1.349 . S
C926 C924 1.327 . S
C926 C945 1.429 . S
C926 H950 0.950 . S
C927 C944 1.574 . S
C927 C946 1.368 . S
C927 H951 0.949 . S
H928 C932 0.949 . S
C929 C930 1.349 . S
C929 C931 1.327 . S
C929 H952 0.950 . S
C930 C929 1.349 . S
C930 C942 1.349 . S
C931 C929 1.327 . S
C931 C947 1.429 . S
C931 H953 0.950 . S
C932 H928 0.949 . S
C932 C940 1.574 . S
C932 C948 1.368 . S
H933 C941 0.950 . S
H934 C939 0.950 . S
H935 C940 0.949 . S
H936 C942 0.950 . S
H937 C943 0.950 . S
H938 C944 0.949 . S
C939 H934 0.950 . S
C939 C941 1.327 . S
C939 C945 1.429 . S
C940 C932 1.574 . S
C940 H935 0.949 . S
C940 C946 1.368 . S
C941 C925 1.349 . S
C941 H933 0.950 . S
C941 C939 1.327 . S
C942 C930 1.349 . S
C942 H936 0.950 . S
C942 C943 1.327 . S
C943 H937 0.950 . S
C943 C942 1.327 . S
C943 C947 1.429 . S
C944 C927 1.574 . S
C944 H938 0.949 . S
C944 C948 1.368 . S
C945 C926 1.429 . S
C945 C939 1.429 . S
C945 C946 1.523 . S
C946 C927 1.368 . S
C946 C940 1.368 . S
C946 C945 1.523 . S
C947 C931 1.429 . S
C947 C943 1.429 . S
C947 C948 1.523 . S
C948 C932 1.368 . S
C948 C944 1.368 . S
C948 C947 1.523 . S
H949 C924 0.950 . S
H950 C926 0.950 . S
H951 C927 0.949 . S
H952 C929 0.950 . S
H953 C931 0.950 . S
C954 C955 1.349 . S
C954 C956 1.327 . S
C954 H979 0.950 . S
C955 C954 1.349 . S
C955 C971 1.349 . S
C956 C954 1.327 . S
C956 C975 1.429 . S
C956 H980 0.950 . S
C957 C974 1.574 . S
C957 C976 1.368 . S
C957 H981 0.949 . S
H958 C962 0.993 . S
C959 C960 1.349 . S
C959 C961 1.327 1_554 S
C959 H982 0.950 . S
C960 C959 1.349 . S
C960 C972 1.349 . S
C961 C959 1.327 1_556 S
C961 C977 1.429 . S
C961 H983 0.950 . S
C962 H958 0.993 . S
C962 C970 1.574 . S
C962 C978 1.368 . S
H963 C971 0.950 . S
H964 C969 0.950 . S
H965 C970 0.949 . S
H966 C972 0.950 . S
H967 C973 0.950 . S
H968 C974 0.949 . S
C969 H964 0.950 . S
C969 C971 1.327 . S
C969 C975 1.429 . S
C970 C962 1.574 . S
C970 H965 0.949 . S
C970 C976 1.368 . S
C971 C955 1.349 . S
C971 H963 0.950 . S
C971 C969 1.327 . S
C972 C960 1.349 . S
C972 H966 0.950 . S
C972 C973 1.327 . S
C973 H967 0.950 . S
C973 C972 1.327 . S
C973 C977 1.429 1_554 S
C974 C957 1.574 . S
C974 H968 0.949 . S
C974 C978 1.368 . S
C975 C956 1.429 . S
C975 C969 1.429 . S
C975 C976 1.523 . S
C976 C957 1.368 . S
C976 C970 1.368 . S
C976 C975 1.523 . S
C977 C961 1.429 . S
C977 C973 1.429 1_556 S
C977 C978 1.523 . S
C978 C962 1.368 . S
C978 C974 1.368 . S
C978 C977 1.523 . S
H979 C954 0.950 . S
H980 C956 0.950 . S
H981 C957 0.949 . S
H982 C959 0.950 . S
H983 C961 0.950 . S
C984 C985 1.349 . S
C984 C986 1.327 . S
C984 H1009 0.950 . S
C985 C984 1.349 . S
C985 C1001 1.349 . S
C986 C984 1.327 . S
C986 C1005 1.429 . S
C986 H1010 0.950 . S
C987 C1004 1.574 . S
C987 C1006 1.368 . S
C987 H1011 0.949 . S
H988 C992 0.949 . S
C989 C990 1.349 . S
C989 C991 1.327 . S
C989 H1012 0.950 . S
C990 C989 1.349 . S
C990 C1002 1.349 . S
C991 C989 1.327 . S
C991 C1007 1.429 . S
C991 H1013 0.950 . S
C992 H988 0.949 . S
C992 C1000 1.574 . S
C992 C1008 1.368 . S
H993 C1001 0.950 . S
H994 C999 0.950 . S
H995 C1000 0.949 . S
H996 C1002 0.950 . S
H997 C1003 0.950 . S
H998 C1004 0.949 . S
C999 H994 0.950 . S
C999 C1001 1.327 . S
C999 C1005 1.429 . S
C1000 C992 1.574 . S
C1000 H995 0.949 . S
C1000 C1006 1.368 . S
C1001 C985 1.349 . S
C1001 H993 0.950 . S
C1001 C999 1.327 . S
C1002 C990 1.349 . S
C1002 H996 0.950 . S
C1002 C1003 1.327 . S
C1003 H997 0.950 . S
C1003 C1002 1.327 . S
C1003 C1007 1.429 . S
C1004 C987 1.574 . S
C1004 H998 0.949 . S
C1004 C1008 1.368 . S
C1005 C986 1.429 . S
C1005 C999 1.429 . S
C1005 C1006 1.523 . S
C1006 C987 1.368 . S
C1006 C1000 1.368 . S
C1006 C1005 1.523 . S
C1007 C991 1.429 . S
C1007 C1003 1.429 . S
C1007 C1008 1.523 . S
C1008 C992 1.368 . S
C1008 C1004 1.368 . S
C1008 C1007 1.523 . S
H1009 C984 0.950 . S
H1010 C986 0.950 . S
H1011 C987 0.949 . S
H1012 C989 0.950 . S
H1013 C991 0.950 . S
C1014 C1015 1.349 . S
C1014 C1016 1.327 . S
C1014 H1039 0.950 . S
C1015 C1014 1.349 . S
C1015 C1031 1.349 . S
C1016 C1014 1.327 . S
C1016 C1035 1.429 . S
C1016 H1040 0.950 . S
C1017 C1034 1.574 . S
C1017 C1036 1.368 . S
C1017 H1041 0.949 . S
H1018 C1022 0.949 . S
C1019 C1020 1.349 . S
C1019 C1021 1.327 . S
C1019 H1042 0.950 . S
C1020 C1019 1.349 . S
C1020 C1032 1.349 . S
C1021 C1019 1.327 . S
C1021 C1037 1.429 . S
C1021 H1043 0.950 . S
C1022 H1018 0.949 . S
C1022 C1030 1.574 . S
C1022 C1038 1.368 . S
H1023 C1031 0.950 . S
H1024 C1029 0.950 . S
H1025 C1030 0.949 . S
H1026 C1032 0.950 . S
H1027 C1033 0.950 . S
H1028 C1034 0.949 . S
C1029 H1024 0.950 . S
C1029 C1031 1.327 . S
C1029 C1035 1.429 . S
C1030 C1022 1.574 . S
C1030 H1025 0.949 . S
C1030 C1036 1.368 . S
C1031 C1015 1.349 . S
C1031 H1023 0.950 . S
C1031 C1029 1.327 . S
C1032 C1020 1.349 . S
C1032 H1026 0.950 . S
C1032 C1033 1.327 . S
C1033 H1027 0.950 . S
C1033 C1032 1.327 . S
C1033 C1037 1.429 . S
C1034 C1017 1.574 . S
C1034 H1028 0.949 . S
C1034 C1038 1.368 . S
C1035 C1016 1.429 . S
C1035 C1029 1.429 . S
C1035 C1036 1.523 . S
C1036 C1017 1.368 . S
C1036 C1030 1.368 . S
C1036 C1035 1.523 . S
C1037 C1021 1.429 . S
C1037 C1033 1.429 . S
C1037 C1038 1.523 . S
C1038 C1022 1.368 . S
C1038 C1034 1.368 . S
C1038 C1037 1.523 . S
H1039 C1014 0.950 . S
H1040 C1016 0.950 . S
H1041 C1017 0.949 . S
H1042 C1019 0.950 . S
H1043 C1021 0.950 . S
C1044 C1045 1.349 . S
C1044 C1046 1.327 . S
C1044 H1069 0.950 . S
C1045 C1044 1.349 . S
C1045 C1061 1.349 . S
C1046 C1044 1.327 . S
C1046 C1065 1.429 . S
C1046 H1070 0.950 . S
C1047 C1064 1.574 . S
C1047 C1066 1.368 . S
C1047 H1071 0.949 . S
H1048 C1052 0.949 . S
C1049 C1050 1.349 . S
C1049 C1051 1.327 . S
C1049 H1072 0.950 . S
C1050 C1049 1.349 . S
C1050 C1062 1.349 . S
C1051 C1049 1.327 . S
C1051 C1067 1.429 . S
C1051 H1073 0.950 . S
C1052 H1048 0.949 . S
C1052 C1060 1.574 . S
C1052 C1068 1.368 . S
H1053 C1061 0.950 . S
H1054 C1059 0.950 . S
H1055 C1060 0.949 . S
H1056 C1062 0.950 . S
H1057 C1063 0.950 . S
H1058 C1064 0.949 . S
C1059 H1054 0.950 . S
C1059 C1061 1.327 . S
C1059 C1065 1.429 . S
C1060 C1052 1.574 . S
C1060 H1055 0.949 . S
C1060 C1066 1.368 . S
C1061 C1045 1.349 . S
C1061 H1053 0.950 . S
C1061 C1059 1.327 . S
C1062 C1050 1.349 . S
C1062 H1056 0.950 . S
C1062 C1063 1.327 . S
C1063 H1057 0.950 . S
C1063 C1062 1.327 . S
C1063 C1067 1.429 . S
C1064 C1047 1.574 . S
C1064 H1058 0.949 . S
C1064 C1068 1.368 . S
C1065 C1046 1.429 . S
C1065 C1059 1.429 . S
C1065 C1066 1.523 . S
C1066 C1047 1.368 . S
C1066 C1060 1.368 . S
C1066 C1065 1.523 . S
C1067 C1051 1.429 . S
C1067 C1063 1.429 . S
C1067 C1068 1.523 . S
C1068 C1052 1.368 . S
C1068 C1064 1.368 . S
C1068 C1067 1.523 . S
H1069 C1044 0.950 . S
H1070 C1046 0.950 . S
H1071 C1047 0.949 . S
H1072 C1049 0.950 . S
H1073 C1051 0.950 . S
C1074 C1075 1.349 . S
C1074 C1076 1.327 . S
C1074 H1099 0.950 . S
C1075 C1074 1.349 . S
C1075 C1091 1.349 . S
C1076 C1074 1.327 . S
C1076 C1095 1.429 . S
C1076 H1100 0.950 . S
C1077 C1094 1.574 . S
C1077 C1096 1.368 . S
C1077 H1101 0.949 . S
H1078 C1082 0.949 . S
C1079 C1080 1.349 . S
C1079 C1081 1.327 . S
C1079 H1102 0.950 . S
C1080 C1079 1.349 . S
C1080 C1092 1.349 . S
C1081 C1079 1.327 . S
C1081 C1097 1.429 . S
C1081 H1103 0.950 . S
C1082 H1078 0.949 . S
C1082 C1090 1.574 . S
C1082 C1098 1.368 . S
H1083 C1091 0.950 . S
H1084 C1089 0.950 . S
H1085 C1090 0.949 . S
H1086 C1092 0.950 . S
H1087 C1093 0.950 . S
H1088 C1094 0.949 . S
C1089 H1084 0.950 . S
C1089 C1091 1.327 . S
C1089 C1095 1.429 . S
C1090 C1082 1.574 . S
C1090 H1085 0.949 . S
C1090 C1096 1.368 . S
C1091 C1075 1.349 . S
C1091 H1083 0.950 . S
C1091 C1089 1.327 . S
C1092 C1080 1.349 . S
C1092 H1086 0.950 . S
C1092 C1093 1.327 . S
C1093 H1087 0.950 . S
C1093 C1092 1.327 . S
C1093 C1097 1.429 . S
C1094 C1077 1.574 . S
C1094 H1088 0.949 . S
C1094 C1098 1.368 . S
C1095 C1076 1.429 . S
C1095 C1089 1.429 . S
C1095 C1096 1.523 . S
C1096 C1077 1.368 . S
C1096 C1090 1.368 . S
C1096 C1095 1.523 . S
C1097 C1081 1.429 . S
C1097 C1093 1.429 . S
C1097 C1098 1.523 . S
C1098 C1082 1.368 . S
C1098 C1094 1.368 . S
C1098 C1097 1.523 . S
H1099 C1074 0.950 . S
H1100 C1076 0.950 . S
H1101 C1077 0.949 . S
H1102 C1079 0.950 . S
H1103 C1081 0.950 . S
C1104 C1105 1.349 . S
C1104 C1106 1.327 . S
C1104 H1129 0.950 . S
C1105 C1104 1.349 . S
C1105 C1121 1.349 . S
C1106 C1104 1.327 . S
C1106 C1125 1.429 . S
C1106 H1130 0.950 . S
C1107 C1124 1.574 . S
C1107 C1126 1.368 . S
C1107 H1131 0.949 . S
H1108 C1112 0.949 . S
C1109 C1110 1.349 . S
C1109 C1111 1.327 . S
C1109 H1132 0.950 . S
C1110 C1109 1.349 . S
C1110 C1122 1.349 . S
C1111 C1109 1.327 . S
C1111 C1127 1.429 . S
C1111 H1133 0.950 . S
C1112 H1108 0.949 . S
C1112 C1120 1.574 . S
C1112 C1128 1.368 . S
H1113 C1121 0.950 . S
H1114 C1119 0.950 . S
H1115 C1120 0.949 . S
H1116 C1122 0.950 . S
H1117 C1123 0.950 . S
H1118 C1124 0.949 . S
C1119 H1114 0.950 . S
C1119 C1121 1.327 . S
C1119 C1125 1.429 . S
C1120 C1112 1.574 . S
C1120 H1115 0.949 . S
C1120 C1126 1.368 . S
C1121 C1105 1.349 . S
C1121 H1113 0.950 . S
C1121 C1119 1.327 . S
C1122 C1110 1.349 . S
C1122 H1116 0.950 . S
C1122 C1123 1.327 . S
C1123 H1117 0.950 . S
C1123 C1122 1.327 . S
C1123 C1127 1.429 . S
C1124 C1107 1.574 . S
C1124 H1118 0.949 . S
C1124 C1128 1.368 . S
C1125 C1106 1.429 . S
C1125 C1119 1.429 . S
C1125 C1126 1.523 . S
C1126 C1107 1.368 . S
C1126 C1120 1.368 . S
C1126 C1125 1.523 . S
C1127 C1111 1.429 . S
C1127 C1123 1.429 . S
C1127 C1128 1.523 . S
C1128 C1112 1.368 . S
C1128 C1124 1.368 . S
C1128 C1127 1.523 . S
H1129 C1104 0.950 . S
H1130 C1106 0.950 . S
H1131 C1107 0.949 . S
H1132 C1109 0.950 . S
H1133 C1111 0.950 . S
C1134 C1135 1.349 . S
C1134 C1136 1.327 . S
C1134 H1159 0.950 . S
C1135 C1134 1.349 . S
C1135 C1151 1.349 . S
C1136 C1134 1.327 . S
C1136 C1155 1.429 . S
C1136 H1160 0.950 . S
C1137 C1154 1.574 . S
C1137 C1156 1.368 . S
C1137 H1161 0.949 . S
H1138 C1142 0.949 . S
C1139 C1140 1.349 . S
C1139 C1141 1.327 . S
C1139 H1162 0.950 . S
C1140 C1139 1.349 . S
C1140 C1152 1.349 . S
C1141 C1139 1.327 . S
C1141 C1157 1.429 . S
C1141 H1163 0.950 . S
C1142 H1138 0.949 . S
C1142 C1150 1.574 . S
C1142 C1158 1.368 . S
H1143 C1151 0.950 . S
H1144 C1149 0.950 . S
H1145 C1150 0.949 . S
H1146 C1152 0.950 . S
H1147 C1153 0.950 . S
H1148 C1154 0.949 . S
C1149 H1144 0.950 . S
C1149 C1151 1.327 . S
C1149 C1155 1.429 . S
C1150 C1142 1.574 . S
C1150 H1145 0.949 . S
C1150 C1156 1.368 . S
C1151 C1135 1.349 . S
C1151 H1143 0.950 . S
C1151 C1149 1.327 . S
C1152 C1140 1.349 . S
C1152 H1146 0.950 . S
C1152 C1153 1.327 . S
C1153 H1147 0.950 . S
C1153 C1152 1.327 . S
C1153 C1157 1.429 . S
C1154 C1137 1.574 . S
C1154 H1148 0.949 . S
C1154 C1158 1.368 . S
C1155 C1136 1.429 . S
C1155 C1149 1.429 . S
C1155 C1156 1.523 . S
C1156 C1137 1.368 . S
C1156 C1150 1.368 . S
C1156 C1155 1.523 . S
C1157 C1141 1.429 . S
C1157 C1153 1.429 . S
C1157 C1158 1.523 . S
C1158 C1142 1.368 . S
C1158 C1154 1.368 . S
C1158 C1157 1.523 . S
H1159 C1134 0.950 . S
H1160 C1136 0.950 . S
H1161 C1137 0.949 . S
H1162 C1139 0.950 . S
H1163 C1141 0.950 . S
C1164 C1165 1.349 . S
C1164 C1166 1.327 . S
C1164 H1189 0.950 . S
C1165 C1164 1.349 . S
C1165 C1181 1.349 . S
C1166 C1164 1.327 . S
C1166 C1185 1.429 . S
C1166 H1190 0.950 . S
C1167 C1184 1.574 . S
C1167 C1186 1.368 . S
C1167 H1191 0.949 . S
H1168 C1172 0.938 1_556 S
C1169 C1170 1.349 . S
C1169 C1171 1.327 . S
C1169 H1192 0.950 . S
C1170 C1169 1.349 . S
C1170 C1182 1.349 . S
C1171 C1169 1.327 . S
C1171 C1187 1.429 . S
C1171 H1193 0.950 . S
C1172 H1168 0.938 1_554 S
C1172 C1180 1.574 . S
C1172 C1188 1.368 1_554 S
H1173 C1181 0.950 . S
H1174 C1179 0.950 . S
H1175 C1180 0.949 . S
H1176 C1182 0.950 . S
H1177 C1183 0.950 . S
H1178 C1184 0.949 1_556 S
C1179 H1174 0.950 . S
C1179 C1181 1.327 . S
C1179 C1185 1.429 . S
C1180 C1172 1.574 . S
C1180 H1175 0.949 . S
C1180 C1186 1.368 . S
C1181 C1165 1.349 . S
C1181 H1173 0.950 . S
C1181 C1179 1.327 . S
C1182 C1170 1.349 . S
C1182 H1176 0.950 . S
C1182 C1183 1.327 . S
C1183 H1177 0.950 . S
C1183 C1182 1.327 . S
C1183 C1187 1.429 . S
C1184 C1167 1.574 . S
C1184 H1178 0.949 1_554 S
C1184 C1188 1.368 1_554 S
C1185 C1166 1.429 . S
C1185 C1179 1.429 . S
C1185 C1186 1.523 . S
C1186 C1167 1.368 . S
C1186 C1180 1.368 . S
C1186 C1185 1.523 . S
C1187 C1171 1.429 . S
C1187 C1183 1.429 . S
C1187 C1188 1.523 . S
C1188 C1172 1.368 1_556 S
C1188 C1184 1.368 1_556 S
C1188 C1187 1.523 . S
H1189 C1164 0.950 . S
H1190 C1166 0.950 . S
H1191 C1167 0.949 . S
H1192 C1169 0.950 . S
H1193 C1171 0.950 . S
C1194 C1195 1.349 . S
C1194 C1196 1.327 . S
C1194 H1219 0.950 . S
C1195 C1194 1.349 . S
C1195 C1211 1.349 . S
C1196 C1194 1.327 . S
C1196 C1215 1.429 . S
C1196 H1220 0.950 . S
C1197 C1214 1.574 . S
C1197 C1216 1.368 . S
C1197 H1221 0.949 . S
H1198 C1202 0.949 . S
C1199 C1200 1.349 . S
C1199 C1201 1.327 . S
C1199 H1222 0.950 . S
C1200 C1199 1.349 . S
C1200 C1212 1.349 . S
C1201 C1199 1.327 . S
C1201 C1217 1.429 . S
C1201 H1223 0.950 . S
C1202 H1198 0.949 . S
C1202 C1210 1.574 . S
C1202 C1218 1.368 . S
H1203 C1211 0.950 . S
H1204 C1209 0.950 . S
H1205 C1210 0.949 . S
H1206 C1212 0.950 . S
H1207 C1213 0.950 . S
H1208 C1214 0.949 . S
C1209 H1204 0.950 . S
C1209 C1211 1.327 . S
C1209 C1215 1.429 . S
C1210 C1202 1.574 . S
C1210 H1205 0.949 . S
C1210 C1216 1.368 . S
C1211 C1195 1.349 . S
C1211 H1203 0.950 . S
C1211 C1209 1.327 . S
C1212 C1200 1.349 . S
C1212 H1206 0.950 . S
C1212 C1213 1.327 . S
C1213 H1207 0.950 . S
C1213 C1212 1.327 . S
C1213 C1217 1.429 . S
C1214 C1197 1.574 . S
C1214 H1208 0.949 . S
C1214 C1218 1.368 . S
C1215 C1196 1.429 . S
C1215 C1209 1.429 . S
C1215 C1216 1.523 . S
C1216 C1197 1.368 . S
C1216 C1210 1.368 . S
C1216 C1215 1.523 . S
C1217 C1201 1.429 . S
C1217 C1213 1.429 . S
C1217 C1218 1.523 . S
C1218 C1202 1.368 . S
C1218 C1214 1.368 . S
C1218 C1217 1.523 . S
H1219 C1194 0.950 . S
H1220 C1196 0.950 . S
H1221 C1197 0.949 . S
H1222 C1199 0.950 . S
H1223 C1201 0.950 . S
C510 C471 1.608 . S
C505 C45 1.610 . S
C535 C84 1.644 . S
C540 C291 1.650 . S
C565 C126 1.585 . S
C570 C338 1.585 . S
C595 C189 1.556 . S
C600 C374 1.522 . S
C630 C399 1.588 . S
C625 C228 1.583 . S
C655 C270 1.567 . S
C660 C435 1.597 . S
C685 C69 1.621 . S
C690 C327 1.640 . S
C715 C141 1.589 . S
C720 C363 1.587 . S
C745 C174 1.519 . S
C750 C410 1.513 . S
C780 C446 1.560 . S
C775 C213 1.574 . S
C810 C482 1.567 . S
C805 C285 1.599 . S
C840 C302 1.585 . S
C835 C30 1.584 . S
C865 C36 1.487 . S
C870 C326 1.475 . S
C895 C93 1.501 . S
C900 C362 1.493 . S
C930 C400 1.498 . S
C925 C117 1.502 . S
C955 C180 1.505 . S
C960 C436 1.499 . S
C990 C472 1.466 . S
C985 C237 1.471 . S
C1020 C292 1.452 . S
C1015 C261 1.457 . S
C1050 C470 1.470 . S
C1045 C78 1.477 . S
C1075 C132 1.483 . S
C1080 C290 1.471 . S
C1110 C328 1.477 . S
C1105 C165 1.480 . S
C1135 C222 1.491 . S
C1140 C364 1.493 . S
C1165 C276 1.532 . S
C1170 C398 1.522 . S
C1195 C21 1.510 . S
C1200 C434 1.500 . S
