# Generated by pormake.
# Topology ptr, (4,4)-cn, num edge types: 1
# Building blocks:
#     Node 0, Type 0, BuildingBlock: GALJAG_clean_sbu_0, # of connection points: 4
#     Node 1, Type 0, BuildingBlock: GALJAG_clean_sbu_0, # of connection points: 4
#     Node 2, Type 0, BuildingBlock: GALJAG_clean_sbu_0, # of connection points: 4
#     Node 3, Type 0, BuildingBlock: GALJAG_clean_sbu_0, # of connection points: 4
#     Node 4, Type 0, BuildingBlock: GALJAG_clean_sbu_0, # of connection points: 4
#     Node 5, Type 0, BuildingBlock: GALJAG_clean_sbu_0, # of connection points: 4
#     Node 6, Type 0, BuildingBlock: GALJAG_clean_sbu_0, # of connection points: 4
#     Node 7, Type 0, BuildingBlock: GALJAG_clean_sbu_0, # of connection points: 4
#     Node 8, Type 0, BuildingBlock: GALJAG_clean_sbu_0, # of connection points: 4
#     Node 9, Type 0, BuildingBlock: GALJAG_clean_sbu_0, # of connection points: 4
#     Node 10, Type 0, BuildingBlock: GALJAG_clean_sbu_0, # of connection points: 4
#     Node 11, Type 0, BuildingBlock: GALJAG_clean_sbu_0, # of connection points: 4
#     Node 12, Type 0, BuildingBlock: GALJAG_clean_sbu_0, # of connection points: 4
#     Node 13, Type 0, BuildingBlock: GALJAG_clean_sbu_0, # of connection points: 4
#     Node 14, Type 0, BuildingBlock: GALJAG_clean_sbu_0, # of connection points: 4
#     Node 15, Type 0, BuildingBlock: GALJAG_clean_sbu_0, # of connection points: 4
#     Node 16, Type 0, BuildingBlock: GALJAG_clean_sbu_0, # of connection points: 4
#     Node 17, Type 0, BuildingBlock: GALJAG_clean_sbu_0, # of connection points: 4
#     Node 18, Type 1, BuildingBlock: MIFKUJ_clean_linker_1, # of connection points: 4
#     Node 19, Type 1, BuildingBlock: MIFKUJ_clean_linker_1, # of connection points: 4
#     Node 20, Type 1, BuildingBlock: MIFKUJ_clean_linker_1, # of connection points: 4
#     Node 21, Type 1, BuildingBlock: MIFKUJ_clean_linker_1, # of connection points: 4
#     Node 22, Type 1, BuildingBlock: MIFKUJ_clean_linker_1, # of connection points: 4
#     Node 23, Type 1, BuildingBlock: MIFKUJ_clean_linker_1, # of connection points: 4
#     Node 24, Type 1, BuildingBlock: MIFKUJ_clean_linker_1, # of connection points: 4
#     Node 25, Type 1, BuildingBlock: MIFKUJ_clean_linker_1, # of connection points: 4
#     Node 26, Type 1, BuildingBlock: MIFKUJ_clean_linker_1, # of connection points: 4
#     Node 27, Type 1, BuildingBlock: MIFKUJ_clean_linker_1, # of connection points: 4
#     Node 28, Type 1, BuildingBlock: MIFKUJ_clean_linker_1, # of connection points: 4
#     Node 29, Type 1, BuildingBlock: MIFKUJ_clean_linker_1, # of connection points: 4
#     Node 30, Type 1, BuildingBlock: MIFKUJ_clean_linker_1, # of connection points: 4
#     Node 31, Type 1, BuildingBlock: MIFKUJ_clean_linker_1, # of connection points: 4
#     Node 32, Type 1, BuildingBlock: MIFKUJ_clean_linker_1, # of connection points: 4
#     Node 33, Type 1, BuildingBlock: MIFKUJ_clean_linker_1, # of connection points: 4
#     Node 34, Type 1, BuildingBlock: MIFKUJ_clean_linker_1, # of connection points: 4
#     Node 35, Type 1, BuildingBlock: MIFKUJ_clean_linker_1, # of connection points: 4
#     Edge 36, Type (0, 1), BuildingBlock: MIFKUJ_clean_linker_0, # of connection points: 2
#     Edge 37, Type (0, 1), BuildingBlock: MIFKUJ_clean_linker_0, # of connection points: 2
#     Edge 38, Type (0, 1), BuildingBlock: MIFKUJ_clean_linker_0, # of connection points: 2
#     Edge 39, Type (0, 1), BuildingBlock: MIFKUJ_clean_linker_0, # of connection points: 2
#     Edge 40, Type (0, 1), BuildingBlock: MIFKUJ_clean_linker_0, # of connection points: 2
#     Edge 41, Type (0, 1), BuildingBlock: MIFKUJ_clean_linker_0, # of connection points: 2
#     Edge 42, Type (0, 1), BuildingBlock: MIFKUJ_clean_linker_0, # of connection points: 2
#     Edge 43, Type (0, 1), BuildingBlock: MIFKUJ_clean_linker_0, # of connection points: 2
#     Edge 44, Type (0, 1), BuildingBlock: MIFKUJ_clean_linker_0, # of connection points: 2
#     Edge 45, Type (0, 1), BuildingBlock: MIFKUJ_clean_linker_0, # of connection points: 2
#     Edge 46, Type (0, 1), BuildingBlock: MIFKUJ_clean_linker_0, # of connection points: 2
#     Edge 47, Type (0, 1), BuildingBlock: MIFKUJ_clean_linker_0, # of connection points: 2
#     Edge 48, Type (0, 1), BuildingBlock: MIFKUJ_clean_linker_0, # of connection points: 2
#     Edge 49, Type (0, 1), BuildingBlock: MIFKUJ_clean_linker_0, # of connection points: 2
#     Edge 50, Type (0, 1), BuildingBlock: MIFKUJ_clean_linker_0, # of connection points: 2
#     Edge 51, Type (0, 1), BuildingBlock: MIFKUJ_clean_linker_0, # of connection points: 2
#     Edge 52, Type (0, 1), BuildingBlock: MIFKUJ_clean_linker_0, # of connection points: 2
#     Edge 53, Type (0, 1), BuildingBlock: MIFKUJ_clean_linker_0, # of connection points: 2
#     Edge 54, Type (0, 1), BuildingBlock: MIFKUJ_clean_linker_0, # of connection points: 2
#     Edge 55, Type (0, 1), BuildingBlock: MIFKUJ_clean_linker_0, # of connection points: 2
#     Edge 56, Type (0, 1), BuildingBlock: MIFKUJ_clean_linker_0, # of connection points: 2
#     Edge 57, Type (0, 1), BuildingBlock: MIFKUJ_clean_linker_0, # of connection points: 2
#     Edge 58, Type (0, 1), BuildingBlock: MIFKUJ_clean_linker_0, # of connection points: 2
#     Edge 59, Type (0, 1), BuildingBlock: MIFKUJ_clean_linker_0, # of connection points: 2
#     Edge 60, Type (0, 1), BuildingBlock: MIFKUJ_clean_linker_0, # of connection points: 2
#     Edge 61, Type (0, 1), BuildingBlock: MIFKUJ_clean_linker_0, # of connection points: 2
#     Edge 62, Type (0, 1), BuildingBlock: MIFKUJ_clean_linker_0, # of connection points: 2
#     Edge 63, Type (0, 1), BuildingBlock: MIFKUJ_clean_linker_0, # of connection points: 2
#     Edge 64, Type (0, 1), BuildingBlock: MIFKUJ_clean_linker_0, # of connection points: 2
#     Edge 65, Type (0, 1), BuildingBlock: MIFKUJ_clean_linker_0, # of connection points: 2
#     Edge 66, Type (0, 1), BuildingBlock: MIFKUJ_clean_linker_0, # of connection points: 2
#     Edge 67, Type (0, 1), BuildingBlock: MIFKUJ_clean_linker_0, # of connection points: 2
#     Edge 68, Type (0, 1), BuildingBlock: MIFKUJ_clean_linker_0, # of connection points: 2
#     Edge 69, Type (0, 1), BuildingBlock: MIFKUJ_clean_linker_0, # of connection points: 2
#     Edge 70, Type (0, 1), BuildingBlock: MIFKUJ_clean_linker_0, # of connection points: 2
#     Edge 71, Type (0, 1), BuildingBlock: MIFKUJ_clean_linker_0, # of connection points: 2
#     Edge 72, Type (0, 1), BuildingBlock: MIFKUJ_clean_linker_0, # of connection points: 2
#     Edge 73, Type (0, 1), BuildingBlock: MIFKUJ_clean_linker_0, # of connection points: 2
#     Edge 74, Type (0, 1), BuildingBlock: MIFKUJ_clean_linker_0, # of connection points: 2
#     Edge 75, Type (0, 1), BuildingBlock: MIFKUJ_clean_linker_0, # of connection points: 2
#     Edge 76, Type (0, 1), BuildingBlock: MIFKUJ_clean_linker_0, # of connection points: 2
#     Edge 77, Type (0, 1), BuildingBlock: MIFKUJ_clean_linker_0, # of connection points: 2
#     Edge 78, Type (0, 1), BuildingBlock: MIFKUJ_clean_linker_0, # of connection points: 2
#     Edge 79, Type (0, 1), BuildingBlock: MIFKUJ_clean_linker_0, # of connection points: 2
#     Edge 80, Type (0, 1), BuildingBlock: MIFKUJ_clean_linker_0, # of connection points: 2
#     Edge 81, Type (0, 1), BuildingBlock: MIFKUJ_clean_linker_0, # of connection points: 2
#     Edge 82, Type (0, 1), BuildingBlock: MIFKUJ_clean_linker_0, # of connection points: 2
#     Edge 83, Type (0, 1), BuildingBlock: MIFKUJ_clean_linker_0, # of connection points: 2
#     Edge 84, Type (0, 1), BuildingBlock: MIFKUJ_clean_linker_0, # of connection points: 2
#     Edge 85, Type (0, 1), BuildingBlock: MIFKUJ_clean_linker_0, # of connection points: 2
#     Edge 86, Type (0, 1), BuildingBlock: MIFKUJ_clean_linker_0, # of connection points: 2
#     Edge 87, Type (0, 1), BuildingBlock: MIFKUJ_clean_linker_0, # of connection points: 2
#     Edge 88, Type (0, 1), BuildingBlock: MIFKUJ_clean_linker_0, # of connection points: 2
#     Edge 89, Type (0, 1), BuildingBlock: MIFKUJ_clean_linker_0, # of connection points: 2
#     Edge 90, Type (0, 1), BuildingBlock: MIFKUJ_clean_linker_0, # of connection points: 2
#     Edge 91, Type (0, 1), BuildingBlock: MIFKUJ_clean_linker_0, # of connection points: 2
#     Edge 92, Type (0, 1), BuildingBlock: MIFKUJ_clean_linker_0, # of connection points: 2
#     Edge 93, Type (0, 1), BuildingBlock: MIFKUJ_clean_linker_0, # of connection points: 2
#     Edge 94, Type (0, 1), BuildingBlock: MIFKUJ_clean_linker_0, # of connection points: 2
#     Edge 95, Type (0, 1), BuildingBlock: MIFKUJ_clean_linker_0, # of connection points: 2
#     Edge 96, Type (0, 1), BuildingBlock: MIFKUJ_clean_linker_0, # of connection points: 2
#     Edge 97, Type (0, 1), BuildingBlock: MIFKUJ_clean_linker_0, # of connection points: 2
#     Edge 98, Type (0, 1), BuildingBlock: MIFKUJ_clean_linker_0, # of connection points: 2
#     Edge 99, Type (0, 1), BuildingBlock: MIFKUJ_clean_linker_0, # of connection points: 2
#     Edge 100, Type (0, 1), BuildingBlock: MIFKUJ_clean_linker_0, # of connection points: 2
#     Edge 101, Type (0, 1), BuildingBlock: MIFKUJ_clean_linker_0, # of connection points: 2
#     Edge 102, Type (0, 1), BuildingBlock: MIFKUJ_clean_linker_0, # of connection points: 2
#     Edge 103, Type (0, 1), BuildingBlock: MIFKUJ_clean_linker_0, # of connection points: 2
#     Edge 104, Type (0, 1), BuildingBlock: MIFKUJ_clean_linker_0, # of connection points: 2
#     Edge 105, Type (0, 1), BuildingBlock: MIFKUJ_clean_linker_0, # of connection points: 2
#     Edge 106, Type (0, 1), BuildingBlock: MIFKUJ_clean_linker_0, # of connection points: 2
#     Edge 107, Type (0, 1), BuildingBlock: MIFKUJ_clean_linker_0, # of connection points: 2
# Relax obj value: 0.053
# Max RMSD: 0.081
# Mean RMSD: 0.075
data_MOF--net-ptr--node1-GALJAG_clean_sbu_0--node2-MIFKUJ_clean_linker_1--edge1-MIFKUJ_clean_linker_0
_symmetry_space_group_name_H-M    P1
_symmetry_Int_Tables_number       1
_symmetry_cell_setting            triclinic
loop_
_symmetry_equiv_pos_as_xyz
'x, y, z'
_cell_length_a     110.58715
_cell_length_b     110.71897
_cell_length_c     81.29006
_cell_angle_alpha  89.988087
_cell_angle_beta   89.992918
_cell_angle_gamma 120.09961
loop_
_atom_site_label
_atom_site_type_symbol
_atom_site_fract_x
_atom_site_fract_y
_atom_site_fract_z
_atom_type_partial_charge
In0 In 0.00153 0.35446 0.01184 0.0
O1 O 0.98966 0.35689 0.03347 0.0
O2 O 0.00964 0.37407 0.02741 0.0
C3 C 0.98206 0.32943 0.9997 0.0
C4 C 0.02033 0.34896 0.02593 0.0
C5 C 0.00482 0.37089 0.98566 0.0
O6 O 0.97896 0.33658 0.00904 0.0
O7 O 0.99494 0.33475 0.99684 0.0
O8 O 0.01459 0.36912 0.99084 0.0
O9 O 0.9936 0.36448 0.99372 0.0
C10 C 0.99913 0.36922 0.03676 0.0
O11 O 0.02261 0.35525 0.0123 0.0
O12 O 0.00855 0.34531 0.03221 0.0
In13 In 0.64654 0.64777 0.0125 0.0
O14 O 0.64693 0.63573 0.03533 0.0
O15 O 0.62815 0.63571 0.02966 0.0
C16 C 0.6699 0.65068 0.99814 0.0
C17 C 0.65151 0.67284 0.02403 0.0
C18 C 0.62894 0.63358 0.98766 0.0
O19 O 0.66564 0.64478 0.01194 0.0
O20 O 0.66252 0.65522 0.99186 0.0
O21 O 0.63518 0.64674 0.98855 0.0
O22 O 0.6315 0.62765 0.99929 0.0
C23 C 0.6344 0.63166 0.03921 0.0
O24 O 0.64017 0.66424 0.01722 0.0
O25 O 0.66044 0.66897 0.02466 0.0
In26 In 0.35347 0.0007 0.01452 0.0
O27 O 0.36161 0.02349 0.0073 0.0
O28 O 0.33991 0.0092 0.0045 0.0
C29 C 0.37394 0.00959 0.03753 0.0
C30 C 0.36192 0.99172 0.98839 0.0
C31 C 0.33004 0.98006 0.029 0.0
O32 O 0.36312 0.0105 0.03946 0.0
O33 O 0.37466 0.00467 0.02383 0.0
O34 O 0.33388 0.97871 0.01484 0.0
O35 O 0.33792 0.99168 0.03564 0.0
C36 C 0.34984 0.02156 0.00282 0.0
O37 O 0.36155 0.98732 0.00283 0.0
O38 O 0.35752 1.00022 0.98706 0.0
In39 In 1.00038 0.64816 0.01105 0.0
O40 O 0.01184 0.64561 0.98906 0.0
O41 O 0.99237 0.6282 0.9962 0.0
C42 C 0.0201 0.67352 0.02206 0.0
C43 C 0.98112 0.65318 0.99738 0.0
C44 C 0.9978 0.63221 0.0375 0.0
O45 O 0.02303 0.66585 0.01344 0.0
O46 O 0.00724 0.66855 0.02479 0.0
O47 O 0.98768 0.63335 0.03218 0.0
O48 O 0.009 0.63909 0.02954 0.0
C49 C 0.0026 0.63306 0.9864 0.0
O50 O 0.97942 0.64764 0.01143 0.0
O51 O 0.99254 0.65629 0.99046 0.0
In52 In 0.35418 0.35403 0.01353 0.0
O53 O 0.35512 0.36823 0.99231 0.0
O54 O 0.37226 0.36488 0.99563 0.0
C55 C 0.32981 0.34853 0.02752 0.0
C56 C 0.34922 0.32916 0.00148 0.0
C57 C 0.37147 0.36877 0.03846 0.0
O58 O 0.33385 0.35472 0.01384 0.0
O59 O 0.33797 0.34502 0.03396 0.0
O60 O 0.36799 0.35621 0.03562 0.0
O61 O 0.36624 0.3738 0.02874 0.0
C62 C 0.36702 0.37077 0.98742 0.0
O63 O 0.35988 0.33697 0.00995 0.0
O64 O 0.34095 0.33374 0.99939 0.0
In65 In 0.64874 0.00049 0.01291 0.0
O66 O 0.64656 0.01222 0.03494 0.0
O67 O 0.62892 0.99292 0.02799 0.0
C68 C 0.67382 0.01981 1.00074 0.0
C69 C 0.65425 0.9816 0.02674 0.0
C70 C 0.63265 0.99753 0.98645 0.0
O71 O 0.66648 0.02299 0.00966 0.0
O72 O 0.66867 0.0069 0.99829 0.0
O73 O 0.63332 0.98735 0.99246 0.0
O74 O 0.64003 0.00897 0.99375 0.0
C75 C 0.63397 0.00314 0.03775 0.0
O76 O 0.64731 0.97913 0.01357 0.0
O77 O 0.6585 0.9936 0.03269 0.0
In78 In 0.66852 0.68865 0.34815 0.0
O79 O 0.65662 0.69061 0.37007 0.0
O80 O 0.67525 0.70874 0.36236 0.0
C81 C 0.64893 0.66365 0.33601 0.0
C82 C 0.6875 0.68382 0.36314 0.0
C83 C 0.67246 0.70469 0.32136 0.0
O84 O 0.64587 0.67132 0.34442 0.0
O85 O 0.66186 0.66841 0.33408 0.0
O86 O 0.68211 0.70301 0.32721 0.0
O87 O 0.66103 0.69834 0.32902 0.0
C88 C 0.66515 0.70343 0.37232 0.0
O89 O 0.68994 0.69021 0.34956 0.0
O90 O 0.67546 0.67972 0.36892 0.0
In91 In 0.31318 0.97851 0.3468 0.0
O92 O 0.30397 0.95645 0.35787 0.0
O93 O 0.30635 0.97279 0.37348 0.0
C94 C 0.33822 0.98407 0.33474 0.0
C95 C 0.31815 0.00356 0.358 0.0
C96 C 0.2945 0.9674 0.32185 0.0
O97 O 0.33196 0.97499 0.3458 0.0
O98 O 0.33199 0.9904 0.33017 0.0
O99 O 0.29138 0.97062 0.33546 0.0
O100 O 0.30691 0.96995 0.32086 0.0
C101 C 0.30227 0.96 0.37204 0.0
O102 O 0.30872 0.99664 0.34753 0.0
O103 O 0.32513 0.99795 0.36244 0.0
In104 In 0.02118 0.33506 0.34762 0.0
O105 O 0.02917 0.35807 0.34167 0.0
O106 O 0.00867 0.34316 0.33394 0.0
C107 C 0.03637 0.33928 0.37524 0.0
C108 C 0.03393 0.32995 0.32227 0.0
C109 C 0.99656 0.31516 0.36013 0.0
O110 O 0.03438 0.34866 0.36921 0.0
O111 O 0.0307 0.32794 0.36738 0.0
O112 O 0.00415 0.31231 0.3512 0.0
O113 O 0.00125 0.32803 0.36246 0.0
C114 C 0.01818 0.35581 0.33431 0.0
O115 O 0.02088 0.32499 0.32269 0.0
O116 O 0.04036 0.33721 0.33459 0.0
In117 In 0.66498 0.97733 0.34639 0.0
O118 O 0.67825 0.96902 0.33482 0.0
O119 O 0.66611 0.97401 0.31892 0.0
C120 C 0.68566 0.00101 0.36034 0.0
C121 C 0.64375 0.98015 0.33418 0.0
C122 C 0.65584 0.95729 0.36991 0.0
O123 O 0.6869 0.99699 0.34625 0.0
O124 O 0.67412 0.99318 0.36719 0.0
O125 O 0.65452 0.96791 0.37108 0.0
O126 O 0.6614 0.95655 0.3567 0.0
C127 C 0.67435 0.96929 0.32028 0.0
O128 O 0.64239 0.96844 0.33776 0.0
O129 O 0.65571 0.99043 0.33707 0.0
In130 In 0.02186 0.68848 0.34654 0.0
O131 O 0.02292 0.69253 0.31885 0.0
O132 O 0.03228 0.71011 0.33473 0.0
C133 C 0.99815 0.68521 0.36078 0.0
C134 C 0.02027 0.66496 0.33443 0.0
C135 C 0.04169 0.69989 0.37022 0.0
O136 O 0.00165 0.68977 0.34633 0.0
O137 O 0.00648 0.6823 0.36783 0.0
O138 O 0.03257 0.68709 0.37005 0.0
O139 O 0.04105 0.70677 0.35823 0.0
C140 C 0.02982 0.70565 0.32013 0.0
O141 O 0.03177 0.67597 0.33701 0.0
O142 O 0.00963 0.6657 0.33834 0.0
In143 In 0.31412 0.33416 0.34661 0.0
O144 O 0.30505 0.31142 0.35485 0.0
O145 O 0.32694 0.32484 0.3568 0.0
C146 C 0.2968 0.32951 0.32102 0.0
C147 C 0.3034 0.34076 0.37277 0.0
C148 C 0.33789 0.35417 0.33236 0.0
O149 O 0.3016 0.32152 0.32416 0.0
O150 O 0.30079 0.33973 0.33068 0.0
O151 O 0.33282 0.35648 0.3451 0.0
O152 O 0.33108 0.34183 0.32704 0.0
C153 C 0.31663 0.31281 0.35911 0.0
O154 O 0.31623 0.34463 0.37179 0.0
O155 O 0.2962 0.33375 0.36066 0.0
In156 In 0.33402 0.02072 0.67871 0.0
O157 O 0.35508 0.02144 0.6794 0.0
O158 O 0.34132 0.01244 0.69978 0.0
C159 C 0.33815 0.03721 0.65225 0.0
C160 C 0.33098 0.03523 0.70349 0.0
C161 C 0.31429 0.99556 0.66693 0.0
O162 O 0.34765 0.03517 0.6578 0.0
O163 O 0.32678 0.031 0.66003 0.0
O164 O 0.3113 0.00355 0.67476 0.0
O165 O 0.3272 1.00008 0.66537 0.0
C166 C 0.35302 0.01582 0.69344 0.0
O167 O 0.32183 0.02277 0.70025 0.0
O168 O 0.34151 0.04035 0.69414 0.0
In169 In 0.98029 0.31322 0.67753 0.0
O170 O 0.97437 0.33006 0.68123 0.0
O171 O 0.99358 0.33368 0.69139 0.0
C172 C 0.96277 0.29884 0.65263 0.0
C173 C 0.96792 0.29655 0.70386 0.0
C174 C 0.00474 0.31892 0.66359 0.0
O175 O 0.96632 0.31135 0.65581 0.0
O176 O 0.96799 0.2936 0.66206 0.0
O177 O 0.00103 0.3133 0.6776 0.0
O178 O 0.99625 0.32184 0.65682 0.0
C179 C 0.98511 0.33804 0.6895 0.0
O180 O 0.97902 0.29798 0.69761 0.0
O181 O 0.96317 0.30342 0.69681 0.0
In182 In 0.6875 0.66784 0.67908 0.0
O183 O 0.69376 0.69097 0.67698 0.0
O184 O 0.67757 0.67636 0.6615 0.0
C185 C 0.70583 0.6777 0.70439 0.0
C186 C 0.69769 0.65874 0.65466 0.0
C187 C 0.66326 0.64671 0.6913 0.0
O188 O 0.69278 0.67184 0.70648 0.0
O189 O 0.70962 0.67912 0.68953 0.0
O190 O 0.673 0.64491 0.68615 0.0
O191 O 0.66565 0.65905 0.69004 0.0
C192 C 0.68505 0.68894 0.66575 0.0
O193 O 0.70048 0.65843 0.66963 0.0
O194 O 0.6894 0.6632 0.65201 0.0
In195 In 0.3338 0.31289 0.67823 0.0
O196 O 0.34589 0.31151 0.65623 0.0
O197 O 0.32666 0.29342 0.66262 0.0
C198 C 0.35314 0.33746 0.69153 0.0
C199 C 0.31475 0.31809 0.66416 0.0
C200 C 0.3304 0.29592 0.70379 0.0
O201 O 0.35618 0.33119 0.6808 0.0
O202 O 0.34036 0.33152 0.69522 0.0
O203 O 0.32112 0.29881 0.6997 0.0
O204 O 0.34121 0.30145 0.69492 0.0
C205 C 0.33705 0.29893 0.65305 0.0
O206 O 0.3122 0.31099 0.67719 0.0
O207 O 0.32688 0.32266 0.65847 0.0
In208 In 0.6853 0.02141 0.6797 0.0
O209 O 0.68919 0.03827 0.66074 0.0
O210 O 0.70361 0.03087 0.66186 0.0
C211 C 0.66008 0.01601 0.69112 0.0
C212 C 0.67876 0.99687 0.66544 0.0
C213 C 0.70276 0.03435 0.70533 0.0
O214 O 0.66692 0.02545 0.68066 0.0
O215 O 0.6658 0.00914 0.69549 0.0
O216 O 0.70135 0.02327 0.6991 0.0
O217 O 0.69543 0.03874 0.69867 0.0
C218 C 0.70014 0.03892 0.65504 0.0
O219 O 0.68331 0.9998 0.68002 0.0
O220 O 0.67727 0.00616 0.65829 0.0
In221 In 0.9789 0.66718 0.68075 0.0
O222 O 0.98736 0.652 0.68143 0.0
O223 O 0.97059 0.64798 0.69737 0.0
C224 C 0.96194 0.65971 0.65403 0.0
C225 C 0.96911 0.67504 0.70668 0.0
C226 C 0.0034 0.68938 0.67057 0.0
O227 O 0.97008 0.65498 0.6564 0.0
O228 O 0.96244 0.66796 0.66498 0.0
O229 O 0.99167 0.68816 0.6676 0.0
O230 O 0.00287 0.67966 0.67918 0.0
C231 C 0.97917 0.64439 0.69262 0.0
O232 O 0.98194 0.67888 0.70532 0.0
O233 O 0.96155 0.66743 0.69512 0.0
H234 H 0.15679 0.34856 0.18501 0.0
H235 H 0.13898 0.34812 0.20308 0.0
H236 H 0.10806 0.30906 0.18131 0.0
H237 H 0.12597 0.30983 0.16286 0.0
H238 H 0.16487 0.32889 0.18438 0.0
H239 H 0.14513 0.34819 0.14848 0.0
H240 H 0.12721 0.34974 0.13257 0.0
H241 H 0.12062 0.31434 0.10345 0.0
H242 H 0.13821 0.31247 0.1198 0.0
H243 H 0.17405 0.31198 0.1194 0.0
H244 H 0.19323 0.31334 0.10287 0.0
H245 H 0.22296 0.34784 0.13254 0.0
H246 H 0.20382 0.34688 0.14858 0.0
H247 H 0.16481 0.32898 0.1234 0.0
H248 H 0.18251 0.30806 0.16315 0.0
H249 H 0.19893 0.30617 0.18171 0.0
H250 H 0.21025 0.34646 0.20244 0.0
H251 H 0.19343 0.34793 0.18437 0.0
C252 C 0.14271 0.32923 0.17262 0.0
C253 C 0.14615 0.33995 0.18405 0.0
C254 C 0.13596 0.33963 0.19445 0.0
C255 C 0.1221 0.32845 0.19383 0.0
C256 C 0.11859 0.31788 0.18204 0.0
C257 C 0.12881 0.31828 0.17151 0.0
C258 C 0.15391 0.32917 0.16264 0.0
C259 C 0.1649 0.32901 0.17103 0.0
C260 C 0.15378 0.32906 0.14523 0.0
C261 C 0.14285 0.33002 0.1356 0.0
C262 C 0.13964 0.34056 0.13893 0.0
C263 C 0.12945 0.34149 0.12977 0.0
C264 C 0.1225 0.33212 0.11683 0.0
C265 C 0.12587 0.32174 0.11331 0.0
C266 C 0.13591 0.32066 0.12265 0.0
C267 C 0.18745 0.32915 0.13548 0.0
C268 C 0.18469 0.31987 0.12234 0.0
C269 C 0.19563 0.32064 0.1129 0.0
C270 C 0.20956 0.33063 0.11653 0.0
C271 C 0.21233 0.3399 0.12966 0.0
C272 C 0.20138 0.33928 0.1389 0.0
C273 C 0.17576 0.32859 0.14516 0.0
C274 C 0.16467 0.32866 0.13674 0.0
C275 C 0.17577 0.32867 0.16257 0.0
C276 C 0.18673 0.3281 0.17246 0.0
C277 C 0.18865 0.31651 0.17161 0.0
C278 C 0.19809 0.31549 0.18219 0.0
C279 C 0.20582 0.32609 0.19374 0.0
C280 C 0.20423 0.33793 0.19403 0.0
C281 C 0.1947 0.33885 0.18362 0.0
H282 H 0.70209 0.86908 0.18111 0.0
H283 H 0.70411 0.88778 0.19895 0.0
H284 H 0.66236 0.87782 0.18514 0.0
H285 H 0.66053 0.8593 0.16714 0.0
H286 H 0.68326 0.84146 0.18408 0.0
H287 H 0.69539 0.87714 0.14277 0.0
H288 H 0.69314 0.89457 0.12664 0.0
H289 H 0.65167 0.86293 0.11166 0.0
H290 H 0.65404 0.84556 0.12769 0.0
H291 H 0.65429 0.81041 0.12497 0.0
H292 H 0.65161 0.79095 0.10827 0.0
H293 H 0.69008 0.79603 0.12845 0.0
H294 H 0.6932 0.81613 0.14418 0.0
H295 H 0.67204 0.83637 0.12456 0.0
H296 H 0.65871 0.80083 0.16534 0.0
H297 H 0.65913 0.78288 0.18242 0.0
H298 H 0.70014 0.81327 0.20026 0.0
H299 H 0.69989 0.831 0.18262 0.0
C300 C 0.6812 0.86285 0.17272 0.0
C301 C 0.69342 0.87102 0.18183 0.0
C302 C 0.69453 0.88165 0.19209 0.0
C303 C 0.68337 0.88427 0.19355 0.0
C304 C 0.67123 0.87624 0.18414 0.0
C305 C 0.67015 0.86562 0.17385 0.0
C306 C 0.67969 0.85088 0.16287 0.0
C307 C 0.68104 0.84043 0.17099 0.0
C308 C 0.67625 0.84933 0.14596 0.0
C309 C 0.67484 0.86006 0.13654 0.0
C310 C 0.68577 0.874 0.13614 0.0
C311 C 0.68446 0.88395 0.12692 0.0
C312 C 0.67223 0.88015 0.11783 0.0
C313 C 0.66131 0.86618 0.1183 0.0
C314 C 0.66262 0.85624 0.12752 0.0
C315 C 0.67387 0.8147 0.13601 0.0
C316 C 0.66221 0.8074 0.12572 0.0
C317 C 0.6606 0.79613 0.1163 0.0
C318 C 0.67057 0.79179 0.11704 0.0
C319 C 0.68225 0.79913 0.12737 0.0
C320 C 0.68396 0.81053 0.13661 0.0
C321 C 0.67563 0.82686 0.14575 0.0
C322 C 0.67431 0.83736 0.13763 0.0
C323 C 0.67887 0.82835 0.16276 0.0
C324 C 0.67933 0.81725 0.17256 0.0
C325 C 0.6679 0.80356 0.1727 0.0
C326 C 0.66809 0.79334 0.18262 0.0
C327 C 0.67966 0.79662 0.19275 0.0
C328 C 0.69114 0.81031 0.19245 0.0
C329 C 0.69097 0.8205 0.18248 0.0
H330 H 0.13072 0.83205 0.18103 0.0
H331 H 0.11213 0.81515 0.19888 0.0
H332 H 0.12059 0.78303 0.18242 0.0
H333 H 0.13941 0.80005 0.1648 0.0
H334 H 0.1572 0.84115 0.18322 0.0
H335 H 0.12246 0.81635 0.14244 0.0
H336 H 0.1054 0.79647 0.12644 0.0
H337 H 0.13854 0.79028 0.10777 0.0
H338 H 0.15531 0.80942 0.12485 0.0
H339 H 0.19096 0.84333 0.12773 0.0
H340 H 0.21138 0.86006 0.11199 0.0
H341 H 0.20411 0.89327 0.1272 0.0
H342 H 0.1836 0.87647 0.14281 0.0
H343 H 0.16448 0.83534 0.12426 0.0
H344 H 0.19772 0.85677 0.16925 0.0
H345 H 0.21396 0.8746 0.18835 0.0
H346 H 0.18364 0.88765 0.19724 0.0
H347 H 0.16734 0.86949 0.17856 0.0
C348 C 0.13645 0.81734 0.17148 0.0
C349 C 0.12855 0.82136 0.18118 0.0
C350 C 0.11794 0.8117 0.19139 0.0
C351 C 0.11495 0.79779 0.19207 0.0
C352 C 0.12257 0.79365 0.18201 0.0
C353 C 0.13331 0.80337 0.17191 0.0
C354 C 0.14857 0.82802 0.16188 0.0
C355 C 0.15864 0.83995 0.17023 0.0
C356 C 0.15066 0.82631 0.14503 0.0
C357 C 0.14018 0.81429 0.13512 0.0
C358 C 0.12602 0.81054 0.13517 0.0
C359 C 0.11628 0.79927 0.12575 0.0
C360 C 0.12052 0.79167 0.11575 0.0
C361 C 0.13477 0.79563 0.11555 0.0
C362 C 0.14444 0.80673 0.12518 0.0
C363 C 0.1858 0.85864 0.13661 0.0
C364 C 0.19375 0.85421 0.12768 0.0
C365 C 0.2054 0.86377 0.11863 0.0
C366 C 0.20936 0.87798 0.11834 0.0
C367 C 0.20144 0.88242 0.12736 0.0
C368 C 0.18972 0.87283 0.13632 0.0
C369 C 0.17313 0.84828 0.1457 0.0
C370 C 0.16294 0.83647 0.13723 0.0
C371 C 0.17089 0.85004 0.16243 0.0
C372 C 0.18134 0.86183 0.1725 0.0
C373 C 0.19468 0.86362 0.17516 0.0
C374 C 0.20396 0.87385 0.18606 0.0
C375 C 0.20009 0.88253 0.19447 0.0
C376 C 0.18688 0.88099 0.19128 0.0
C377 C 0.17758 0.87068 0.1805 0.0
H378 H 0.30557 0.17068 0.84352 0.0
H379 H 0.30481 0.18778 0.82521 0.0
H380 H 0.345 0.21954 0.84349 0.0
H381 H 0.34579 0.20233 0.86172 0.0
H382 H 0.3236 0.16176 0.8428 0.0
H383 H 0.31125 0.1864 0.88157 0.0
H384 H 0.31378 0.20647 0.89685 0.0
H385 H 0.35153 0.21161 0.91933 0.0
H386 H 0.34954 0.19229 0.903 0.0
H387 H 0.35011 0.1582 0.90279 0.0
H388 H 0.35227 0.14107 0.91944 0.0
H389 H 0.31388 0.10817 0.89843 0.0
H390 H 0.31135 0.1255 0.88258 0.0
H391 H 0.33205 0.16639 0.90293 0.0
H392 H 0.34673 0.1449 0.862 0.0
H393 H 0.34652 0.12694 0.84424 0.0
H394 H 0.30568 0.11662 0.82621 0.0
H395 H 0.30579 0.13429 0.84432 0.0
C396 C 0.3257 0.18522 0.85407 0.0
C397 C 0.3142 0.18134 0.84365 0.0
C398 C 0.31379 0.19111 0.83317 0.0
C399 C 0.32488 0.20499 0.83287 0.0
C400 C 0.33624 0.20896 0.84358 0.0
C401 C 0.3367 0.19914 0.85401 0.0
C402 C 0.32651 0.17445 0.86415 0.0
C403 C 0.32523 0.16268 0.85601 0.0
C404 C 0.32908 0.17588 0.88131 0.0
C405 C 0.33034 0.18793 0.89086 0.0
C406 C 0.32023 0.19202 0.88954 0.0
C407 C 0.32158 0.20341 0.89853 0.0
C408 C 0.33289 0.21078 0.90937 0.0
C409 C 0.34284 0.20645 0.91088 0.0
C410 C 0.34162 0.19524 0.90167 0.0
C411 C 0.33065 0.14316 0.89127 0.0
C412 C 0.34211 0.14731 0.90183 0.0
C413 C 0.34341 0.13745 0.91123 0.0
C414 C 0.3333 0.12318 0.91023 0.0
C415 C 0.3218 0.11906 0.89966 0.0
C416 C 0.32043 0.12896 0.89039 0.0
C417 C 0.32927 0.15379 0.88153 0.0
C418 C 0.33039 0.16549 0.88973 0.0
C419 C 0.32671 0.15241 0.86438 0.0
C420 C 0.32623 0.14087 0.85458 0.0
C421 C 0.33763 0.13859 0.85445 0.0
C422 C 0.33755 0.12842 0.84417 0.0
C423 C 0.32609 0.12037 0.83378 0.0
C424 C 0.31459 0.1225 0.83421 0.0
C425 C 0.31468 0.13267 0.84446 0.0
H426 H 0.83253 0.1328 0.84239 0.0
H427 H 0.81479 0.11539 0.82418 0.0
H428 H 0.7842 0.12478 0.84412 0.0
H429 H 0.80214 0.14255 0.86188 0.0
H430 H 0.84213 0.16018 0.84196 0.0
H431 H 0.81785 0.12295 0.88078 0.0
H432 H 0.79767 0.10541 0.89607 0.0
H433 H 0.79321 0.13816 0.91916 0.0
H434 H 0.81269 0.1555 0.90292 0.0
H435 H 0.84635 0.18923 0.90319 0.0
H436 H 0.86347 0.20883 0.91938 0.0
H437 H 0.89674 0.20565 0.8955 0.0
H438 H 0.87944 0.18521 0.88049 0.0
H439 H 0.83863 0.16365 0.90236 0.0
H440 H 0.85982 0.20027 0.86178 0.0
H441 H 0.87803 0.21825 0.84446 0.0
H442 H 0.88716 0.1875 0.82448 0.0
H443 H 0.8694 0.16977 0.84235 0.0
C444 C 0.81866 0.13893 0.85358 0.0
C445 C 0.82197 0.13104 0.84291 0.0
C446 C 0.81179 0.12101 0.83259 0.0
C447 C 0.79806 0.11868 0.83268 0.0
C448 C 0.7947 0.12641 0.84362 0.0
C449 C 0.80491 0.13647 0.85391 0.0
C450 C 0.82981 0.15032 0.86353 0.0
C451 C 0.84148 0.16083 0.85522 0.0
C452 C 0.82871 0.15136 0.88077 0.0
C453 C 0.81669 0.14058 0.89044 0.0
C454 C 0.81238 0.12634 0.88892 0.0
C455 C 0.80093 0.1163 0.8979 0.0
C456 C 0.79371 0.1203 0.90887 0.0
C457 C 0.79827 0.13461 0.9106 0.0
C458 C 0.80957 0.14459 0.90145 0.0
C459 C 0.86155 0.18579 0.8904 0.0
C460 C 0.85733 0.19265 0.90156 0.0
C461 C 0.8672 0.20404 0.91067 0.0
C462 C 0.8816 0.20904 0.90869 0.0
C463 C 0.88579 0.20208 0.89756 0.0
C464 C 0.87588 0.19048 0.88871 0.0
C465 C 0.85088 0.17368 0.88074 0.0
C466 C 0.83931 0.16299 0.88911 0.0
C467 C 0.85193 0.17257 0.8635 0.0
C468 C 0.86334 0.18369 0.85351 0.0
C469 C 0.86592 0.19747 0.85388 0.0
C470 C 0.87624 0.2077 0.84383 0.0
C471 C 0.88408 0.20434 0.83305 0.0
C472 C 0.88151 0.19054 0.8328 0.0
C473 C 0.87125 0.18034 0.84291 0.0
H474 H 0.81218 0.65838 0.83496 0.0
H475 H 0.79624 0.66093 0.81642 0.0
H476 H 0.79803 0.69343 0.84741 0.0
H477 H 0.81441 0.69118 0.86579 0.0
H478 H 0.83778 0.67597 0.84066 0.0
H479 H 0.79673 0.65353 0.874 0.0
H480 H 0.77659 0.65042 0.88994 0.0
H481 H 0.80425 0.68364 0.92258 0.0
H482 H 0.82434 0.687 0.90637 0.0
H483 H 0.86099 0.68832 0.90672 0.0
H484 H 0.87848 0.68642 0.92321 0.0
H485 H 0.87434 0.65312 0.89177 0.0
H486 H 0.85661 0.65479 0.87558 0.0
H487 H 0.83451 0.67085 0.9013 0.0
H488 H 0.8755 0.69374 0.86543 0.0
H489 H 0.89473 0.69633 0.84793 0.0
H490 H 0.86569 0.65958 0.82064 0.0
H491 H 0.84659 0.65725 0.83791 0.0
C492 C 0.81453 0.67457 0.85182 0.0
C493 C 0.80916 0.66605 0.83783 0.0
C494 C 0.80005 0.66751 0.82723 0.0
C495 C 0.796 0.67744 0.83044 0.0
C496 C 0.80095 0.68565 0.84472 0.0
C497 C 0.81026 0.68433 0.85525 0.0
C498 C 0.82529 0.67379 0.86202 0.0
C499 C 0.83693 0.67467 0.85392 0.0
C500 C 0.82441 0.67244 0.87938 0.0
C501 C 0.81208 0.67065 0.8888 0.0
C502 C 0.79847 0.66033 0.8844 0.0
C503 C 0.78696 0.65851 0.89355 0.0
C504 C 0.78886 0.66679 0.90749 0.0
C505 C 0.80248 0.67703 0.91198 0.0
C506 C 0.81396 0.67896 0.9027 0.0
C507 C 0.85762 0.67187 0.88972 0.0
C508 C 0.8638 0.68058 0.9034 0.0
C509 C 0.87378 0.67947 0.91283 0.0
C510 C 0.87782 0.66968 0.90871 0.0
C511 C 0.87158 0.66091 0.89507 0.0
C512 C 0.86149 0.6619 0.88577 0.0
C513 C 0.84689 0.67297 0.87988 0.0
C514 C 0.83531 0.67219 0.88805 0.0
C515 C 0.84769 0.67424 0.86255 0.0
C516 C 0.85961 0.67532 0.85294 0.0
C517 C 0.87334 0.68617 0.85578 0.0
C518 C 0.88432 0.68761 0.8458 0.0
C519 C 0.88173 0.67824 0.83277 0.0
C520 C 0.86802 0.66716 0.83033 0.0
C521 C 0.85709 0.66576 0.84024 0.0
H522 H 0.82277 0.67516 0.52484 0.0
H523 H 0.80434 0.67247 0.54358 0.0
H524 H 0.77343 0.63976 0.51286 0.0
H525 H 0.79202 0.64215 0.49425 0.0
H526 H 0.83085 0.65764 0.51873 0.0
H527 H 0.8108 0.67936 0.48671 0.0
H528 H 0.79295 0.68162 0.47145 0.0
H529 H 0.78935 0.65031 0.43705 0.0
H530 H 0.8067 0.64753 0.45275 0.0
H531 H 0.84226 0.64731 0.45181 0.0
H532 H 0.86198 0.65032 0.43501 0.0
H533 H 0.89057 0.6829 0.4677 0.0
H534 H 0.87087 0.68019 0.48417 0.0
H535 H 0.8326 0.66389 0.45826 0.0
H536 H 0.85081 0.64056 0.4936 0.0
H537 H 0.8673 0.63781 0.51115 0.0
H538 H 0.87552 0.67477 0.53825 0.0
H539 H 0.85878 0.67715 0.52105 0.0
C540 C 0.80882 0.65887 0.50809 0.0
C541 C 0.81204 0.66739 0.52209 0.0
C542 C 0.80151 0.66585 0.5328 0.0
C543 C 0.7875 0.65584 0.52971 0.0
C544 C 0.78417 0.64759 0.51546 0.0
C545 C 0.79477 0.64899 0.50482 0.0
C546 C 0.82036 0.65993 0.49764 0.0
C547 C 0.83126 0.65915 0.50551 0.0
C548 C 0.82076 0.66156 0.48031 0.0
C549 C 0.80995 0.66306 0.47111 0.0
C550 C 0.80598 0.67275 0.4761 0.0
C551 C 0.79585 0.67411 0.46733 0.0
C552 C 0.78979 0.66611 0.45312 0.0
C553 C 0.79393 0.65663 0.44793 0.0
C554 C 0.80384 0.65506 0.4569 0.0
C555 C 0.85506 0.66334 0.46945 0.0
C556 C 0.85277 0.65513 0.45534 0.0
C557 C 0.86403 0.65687 0.44574 0.0
C558 C 0.87779 0.66679 0.45012 0.0
C559 C 0.88008 0.67503 0.46419 0.0
C560 C 0.86882 0.67343 0.47365 0.0
C561 C 0.84303 0.66165 0.47942 0.0
C562 C 0.83206 0.66228 0.47147 0.0
C563 C 0.84256 0.66001 0.4967 0.0
C564 C 0.85353 0.65902 0.50609 0.0
C565 C 0.8563 0.64813 0.50323 0.0
C566 C 0.86576 0.64661 0.51324 0.0
C567 C 0.87262 0.65597 0.52627 0.0
C568 C 0.87019 0.66716 0.52862 0.0
C569 C 0.86068 0.6686 0.51873 0.0
H570 H 0.36327 0.19876 0.5131 0.0
H571 H 0.36445 0.21682 0.53146 0.0
H572 H 0.32328 0.20721 0.51564 0.0
H573 H 0.32206 0.18903 0.49746 0.0
H574 H 0.34606 0.17181 0.51448 0.0
H575 H 0.35614 0.20749 0.4745 0.0
H576 H 0.35296 0.22479 0.45944 0.0
H577 H 0.31275 0.1921 0.44223 0.0
H578 H 0.31571 0.17498 0.45796 0.0
H579 H 0.3154 0.13844 0.45907 0.0
H580 H 0.31276 0.11865 0.44292 0.0
H581 H 0.35538 0.13012 0.45448 0.0
H582 H 0.35774 0.14961 0.47102 0.0
H583 H 0.33366 0.16641 0.45529 0.0
H584 H 0.32258 0.13125 0.4959 0.0
H585 H 0.32395 0.11388 0.51308 0.0
H586 H 0.36503 0.1453 0.52953 0.0
H587 H 0.36381 0.16249 0.51181 0.0
C588 C 0.34262 0.19259 0.50379 0.0
C589 C 0.35452 0.20058 0.51352 0.0
C590 C 0.35517 0.21087 0.52403 0.0
C591 C 0.34395 0.2134 0.525 0.0
C592 C 0.33216 0.20561 0.515 0.0
C593 C 0.33146 0.19523 0.50458 0.0
C594 C 0.34158 0.18095 0.49365 0.0
C595 C 0.34363 0.17079 0.50145 0.0
C596 C 0.33791 0.17936 0.47677 0.0
C597 C 0.33609 0.18994 0.46755 0.0
C598 C 0.34655 0.20407 0.46766 0.0
C599 C 0.34479 0.21394 0.45887 0.0
C600 C 0.33258 0.20986 0.44961 0.0
C601 C 0.32218 0.19566 0.44943 0.0
C602 C 0.32392 0.18583 0.45829 0.0
C603 C 0.33673 0.14542 0.46633 0.0
C604 C 0.32416 0.13666 0.45811 0.0
C605 C 0.3227 0.1254 0.4488 0.0
C606 C 0.33386 0.12276 0.44735 0.0
C607 C 0.34648 0.13166 0.45554 0.0
C608 C 0.34789 0.14286 0.46495 0.0
C609 C 0.33822 0.15738 0.47614 0.0
C610 C 0.33623 0.16755 0.46828 0.0
C611 C 0.3419 0.15898 0.49299 0.0
C612 C 0.34315 0.14816 0.50243 0.0
C613 C 0.33201 0.13433 0.50291 0.0
C614 C 0.33274 0.12444 0.51291 0.0
C615 C 0.34457 0.12821 0.52277 0.0
C616 C 0.35583 0.14199 0.52197 0.0
C617 C 0.35511 0.15187 0.51193 0.0
H618 H 0.79413 0.16093 0.50547 0.0
H619 H 0.77602 0.14383 0.52361 0.0
H620 H 0.79512 0.11802 0.52051 0.0
H621 H 0.81255 0.13478 0.50153 0.0
H622 H 0.82476 0.17309 0.51369 0.0
H623 H 0.79015 0.14806 0.47236 0.0
H624 H 0.77329 0.12773 0.45664 0.0
H625 H 0.80639 0.12029 0.44127 0.0
H626 H 0.82321 0.14057 0.45718 0.0
H627 H 0.85745 0.17636 0.45536 0.0
H628 H 0.8773 0.19367 0.43955 0.0
H629 H 0.87143 0.22633 0.46038 0.0
H630 H 0.85085 0.20883 0.47492 0.0
H631 H 0.83157 0.16734 0.45452 0.0
H632 H 0.86486 0.18799 0.49898 0.0
H633 H 0.8817 0.2055 0.51788 0.0
H634 H 0.85253 0.21986 0.52779 0.0
H635 H 0.83557 0.20188 0.50943 0.0
C636 C 0.80458 0.14904 0.50213 0.0
C637 C 0.7942 0.15144 0.50852 0.0
C638 C 0.78395 0.1417 0.51904 0.0
C639 C 0.7841 0.12953 0.52377 0.0
C640 C 0.79443 0.12709 0.51701 0.0
C641 C 0.8045 0.13671 0.50621 0.0
C642 C 0.81623 0.15997 0.4924 0.0
C643 C 0.82616 0.17197 0.50067 0.0
C644 C 0.81823 0.15818 0.4756 0.0
C645 C 0.80793 0.14575 0.46617 0.0
C646 C 0.79376 0.14194 0.46583 0.0
C647 C 0.78413 0.13033 0.4568 0.0
C648 C 0.78851 0.12238 0.44774 0.0
C649 C 0.80272 0.12628 0.44798 0.0
C650 C 0.81233 0.13785 0.45711 0.0
C651 C 0.85269 0.19124 0.46658 0.0
C652 C 0.86035 0.18724 0.45641 0.0
C653 C 0.87187 0.19722 0.44751 0.0
C654 C 0.87614 0.21151 0.44871 0.0
C655 C 0.86843 0.21546 0.45892 0.0
C656 C 0.85675 0.20544 0.46754 0.0
C657 C 0.84031 0.18052 0.47585 0.0
C658 C 0.83021 0.16853 0.46752 0.0
C659 C 0.83828 0.18213 0.49273 0.0
C660 C 0.84899 0.19366 0.50283 0.0
C661 C 0.86219 0.19503 0.50512 0.0
C662 C 0.87183 0.20511 0.51588 0.0
C663 C 0.86848 0.21409 0.52449 0.0
C664 C 0.85538 0.21295 0.52169 0.0
C665 C 0.8457 0.20275 0.5111 0.0
H666 H 0.97597 0.50734 0.177 0.0
H667 H 0.97507 0.52437 0.15871 0.0
H668 H 0.01621 0.55573 0.17506 0.0
H669 H 0.01722 0.53849 0.19296 0.0
H670 H 0.99397 0.49796 0.17503 0.0
H671 H 0.98228 0.52209 0.21564 0.0
H672 H 0.98511 0.5423 0.23107 0.0
H673 H 0.02531 0.55007 0.24855 0.0
H674 H 0.02265 0.53021 0.23258 0.0
H675 H 0.02163 0.49454 0.2346 0.0
H676 H 0.02371 0.47726 0.25103 0.0
H677 H 0.98519 0.44461 0.22995 0.0
H678 H 0.98266 0.46208 0.21453 0.0
H679 H 0.00433 0.50332 0.23477 0.0
H680 H 0.01761 0.48123 0.19342 0.0
H681 H 0.01697 0.46303 0.17576 0.0
H682 H 0.97582 0.45264 0.15882 0.0
H683 H 0.97637 0.47057 0.17684 0.0
C684 C 0.99663 0.52164 0.18642 0.0
C685 C 0.98476 0.51791 0.17673 0.0
C686 C 0.98421 0.5277 0.16637 0.0
C687 C 0.99558 0.54142 0.16541 0.0
C688 C 0.00734 0.54521 0.17539 0.0
C689 C 0.00788 0.53541 0.18576 0.0
C690 C 0.99758 0.51088 0.19632 0.0
C691 C 0.99599 0.499 0.18817 0.0
C692 C 0.00074 0.51252 0.21333 0.0
C693 C 0.00232 0.52471 0.22279 0.0
C694 C 0.99177 0.52825 0.22265 0.0
C695 C 0.99334 0.53972 0.23162 0.0
C696 C 0.00545 0.54783 0.24104 0.0
C697 C 0.01595 0.54419 0.24124 0.0
C698 C 0.01439 0.53275 0.23223 0.0
C699 C 0.00207 0.47965 0.22313 0.0
C700 C 0.01357 0.48367 0.23361 0.0
C701 C 0.01483 0.47372 0.24287 0.0
C702 C 0.00468 0.45946 0.24179 0.0
C703 C 0.99315 0.45548 0.2313 0.0
C704 C 0.99179 0.46546 0.22223 0.0
C705 C 0.00072 0.49034 0.21347 0.0
C706 C 0.00224 0.50221 0.22166 0.0
C707 C 0.99769 0.48881 0.19641 0.0
C708 C 0.997 0.4772 0.18654 0.0
C709 C 0.00836 0.47487 0.18611 0.0
C710 C 0.00803 0.46455 0.17589 0.0
C711 C 0.99635 0.4564 0.16585 0.0
C712 C 0.98489 0.4586 0.16654 0.0
C713 C 0.98524 0.46892 0.17674 0.0
H714 H 0.49721 0.46788 0.17931 0.0
H715 H 0.47965 0.45038 0.16091 0.0
H716 H 0.4501 0.4629 0.17611 0.0
H717 H 0.46777 0.48051 0.19433 0.0
H718 H 0.50787 0.49604 0.17691 0.0
H719 H 0.48337 0.46027 0.21742 0.0
H720 H 0.46325 0.443 0.23316 0.0
H721 H 0.45549 0.4755 0.2501 0.0
H722 H 0.47568 0.49273 0.23441 0.0
H723 H 0.51182 0.52686 0.23693 0.0
H724 H 0.52921 0.54608 0.2534 0.0
H725 H 0.56172 0.54043 0.23157 0.0
H726 H 0.5441 0.52042 0.21628 0.0
H727 H 0.5027 0.50094 0.23673 0.0
H728 H 0.52547 0.53643 0.19525 0.0
H729 H 0.54394 0.55377 0.17759 0.0
H730 H 0.55391 0.52257 0.16147 0.0
H731 H 0.53535 0.50528 0.17903 0.0
C732 C 0.48378 0.47545 0.18824 0.0
C733 C 0.4869 0.46675 0.1788 0.0
C734 C 0.47683 0.4567 0.16837 0.0
C735 C 0.4635 0.45528 0.16705 0.0
C736 C 0.46032 0.46383 0.17678 0.0
C737 C 0.47036 0.47381 0.18729 0.0
C738 C 0.49485 0.48688 0.19819 0.0
C739 C 0.50688 0.49702 0.19006 0.0
C740 C 0.49329 0.48835 0.21521 0.0
C741 C 0.48098 0.47779 0.22462 0.0
C742 C 0.47726 0.46366 0.2244 0.0
C743 C 0.46574 0.45379 0.2334 0.0
C744 C 0.45773 0.45786 0.24288 0.0
C745 C 0.46152 0.47203 0.2431 0.0
C746 C 0.47304 0.48189 0.2341 0.0
C747 C 0.5266 0.52224 0.22514 0.0
C748 C 0.52268 0.52967 0.2358 0.0
C749 C 0.53272 0.54083 0.24507 0.0
C750 C 0.54698 0.545 0.24378 0.0
C751 C 0.55087 0.53749 0.23311 0.0
C752 C 0.54078 0.52615 0.22408 0.0
C753 C 0.51579 0.51027 0.21544 0.0
C754 C 0.50378 0.5 0.2236 0.0
C755 C 0.51727 0.50877 0.19836 0.0
C756 C 0.52907 0.51957 0.18852 0.0
C757 C 0.53177 0.53338 0.18808 0.0
C758 C 0.54235 0.54329 0.178 0.0
C759 C 0.55038 0.53955 0.16807 0.0
C760 C 0.54779 0.52575 0.16877 0.0
C761 C 0.53722 0.51587 0.17884 0.0
H762 H 0.5342 0.0285 0.17842 0.0
H763 H 0.55179 0.02846 0.1602 0.0
H764 H 0.5382 0.98592 0.17435 0.0
H765 H 0.52047 0.98594 0.19235 0.0
H766 H 0.50626 0.01205 0.17574 0.0
H767 H 0.54094 0.02126 0.2161 0.0
H768 H 0.558 0.01798 0.23156 0.0
H769 H 0.52494 0.97792 0.2486 0.0
H770 H 0.50801 0.98102 0.23254 0.0
H771 H 0.47205 0.98187 0.23087 0.0
H772 H 0.45253 0.9796 0.24729 0.0
H773 H 0.46441 0.02223 0.23553 0.0
H774 H 0.48376 0.0243 0.21882 0.0
H775 H 0.49974 0.9994 0.23487 0.0
H776 H 0.46491 0.99096 0.19413 0.0
H777 H 0.44886 0.99379 0.17593 0.0
H778 H 0.48293 0.03323 0.15911 0.0
H779 H 0.49887 0.03064 0.17769 0.0
C780 C 0.52606 0.00725 0.18679 0.0
C781 C 0.53509 0.01921 0.17769 0.0
C782 C 0.5452 0.0192 0.16738 0.0
C783 C 0.54637 0.00717 0.16583 0.0
C784 C 0.53747 0.99529 0.17519 0.0
C785 C 0.52742 0.99534 0.18558 0.0
C786 C 0.51466 0.00694 0.19673 0.0
C787 C 0.50496 0.00957 0.18877 0.0
C788 C 0.51282 0.00332 0.2136 0.0
C789 C 0.5232 0.00131 0.22299 0.0
C790 C 0.53739 0.01168 0.22298 0.0
C791 C 0.54711 0.00987 0.232 0.0
C792 C 0.54285 0.99769 0.24134 0.0
C793 C 0.52862 0.98734 0.24137 0.0
C794 C 0.5189 0.98915 0.23231 0.0
C795 C 0.4793 0.00322 0.22354 0.0
C796 C 0.47043 0.99072 0.23183 0.0
C797 C 0.45932 0.98948 0.24129 0.0
C798 C 0.45691 0.00075 0.24281 0.0
C799 C 0.46583 0.01327 0.23446 0.0
C800 C 0.47692 0.01449 0.22492 0.0
C801 C 0.49127 0.00451 0.21386 0.0
C802 C 0.50108 0.00203 0.22189 0.0
C803 C 0.49326 0.0084 0.19705 0.0
C804 C 0.48312 0.01064 0.18742 0.0
C805 C 0.46887 0.00042 0.18691 0.0
C806 C 0.4597 0.002 0.17646 0.0
C807 C 0.46469 0.0137 0.16609 0.0
C808 C 0.47885 0.02406 0.16689 0.0
C809 C 0.48795 0.02258 0.1775 0.0
H810 H 0.48832 0.01082 0.85897 0.0
H811 H 0.46973 0.00802 0.8776 0.0
H812 H 0.43906 0.97543 0.84661 0.0
H813 H 0.45775 0.97768 0.82832 0.0
H814 H 0.49722 0.99455 0.85312 0.0
H815 H 0.47701 0.01485 0.81922 0.0
H816 H 0.45951 0.01717 0.80329 0.0
H817 H 0.45388 0.98331 0.77183 0.0
H818 H 0.47111 0.98076 0.78803 0.0
H819 H 0.50781 0.97827 0.79083 0.0
H820 H 0.52722 0.98051 0.77394 0.0
H821 H 0.55494 0.02006 0.79709 0.0
H822 H 0.53552 0.01773 0.81401 0.0
H823 H 0.49746 0.99729 0.79227 0.0
H824 H 0.51849 0.97786 0.82845 0.0
H825 H 0.53665 0.97736 0.84524 0.0
H826 H 0.542 0.01336 0.8722 0.0
H827 H 0.52422 0.01404 0.85512 0.0
C828 C 0.4745 0.9945 0.84215 0.0
C829 C 0.47762 0.00303 0.85613 0.0
C830 C 0.46701 0.00147 0.86676 0.0
C831 C 0.45303 0.99151 0.86349 0.0
C832 C 0.44978 0.98325 0.84928 0.0
C833 C 0.46045 0.9846 0.8388 0.0
C834 C 0.48609 0.99547 0.83181 0.0
C835 C 0.49731 0.99537 0.83981 0.0
C836 C 0.48614 0.99623 0.81438 0.0
C837 C 0.47527 0.99749 0.805 0.0
C838 C 0.47184 0.00775 0.80908 0.0
C839 C 0.46188 0.00911 0.79994 0.0
C840 C 0.45534 0.00042 0.78632 0.0
C841 C 0.45884 0.99023 0.78217 0.0
C842 C 0.46867 0.98876 0.79144 0.0
C843 C 0.52026 0.99779 0.80371 0.0
C844 C 0.51809 0.9874 0.79228 0.0
C845 C 0.52917 0.98865 0.78271 0.0
C846 C 0.54257 0.00046 0.78421 0.0
C847 C 0.5447 0.0109 0.79561 0.0
C848 C 0.53365 0.00954 0.80533 0.0
C849 C 0.50846 0.99651 0.81367 0.0
C850 C 0.49724 0.9965 0.80558 0.0
C851 C 0.50853 0.99602 0.83103 0.0
C852 C 0.52006 0.99605 0.84045 0.0
C853 C 0.52376 0.98578 0.83779 0.0
C854 C 0.53404 0.98543 0.8475 0.0
C855 C 0.54079 0.99533 0.86005 0.0
C856 C 0.53718 0.00571 0.86249 0.0
C857 C 0.52692 0.00604 0.85281 0.0
H858 H 0.02731 0.53249 0.8459 0.0
H859 H 0.02757 0.54997 0.86453 0.0
H860 H 0.98564 0.53819 0.8493 0.0
H861 H 0.98534 0.52052 0.83096 0.0
H862 H 0.00956 0.5045 0.84819 0.0
H863 H 0.02161 0.53989 0.80595 0.0
H864 H 0.0187 0.5573 0.79049 0.0
H865 H 0.97658 0.52569 0.77785 0.0
H866 H 0.97956 0.50834 0.79327 0.0
H867 H 0.98233 0.47364 0.78814 0.0
H868 H 0.98062 0.45453 0.77158 0.0
H869 H 0.01908 0.46068 0.79315 0.0
H870 H 0.0213 0.48053 0.80857 0.0
H871 H 0.99905 0.49969 0.78847 0.0
H872 H 0.98635 0.4641 0.82933 0.0
H873 H 0.98733 0.44645 0.84648 0.0
H874 H 0.02822 0.47753 0.86385 0.0
H875 H 0.02734 0.495 0.84631 0.0
C876 C 0.00635 0.52526 0.83697 0.0
C877 C 0.01823 0.53378 0.84646 0.0
C878 C 0.0184 0.54382 0.85702 0.0
C879 C 0.00661 0.54544 0.85841 0.0
C880 C 0.99483 0.5371 0.84861 0.0
C881 C 0.9947 0.5271 0.838 0.0
C882 C 0.00572 0.51375 0.82701 0.0
C883 C 0.00752 0.50355 0.83506 0.0
C884 C 0.00252 0.51226 0.81004 0.0
C885 C 0.00078 0.52284 0.8008 0.0
C886 C 0.01175 0.53674 0.79988 0.0
C887 C 0.0101 0.54664 0.79099 0.0
C888 C 0.99741 0.54284 0.78299 0.0
C889 C 0.98643 0.52893 0.78401 0.0
C890 C 0.98814 0.51901 0.79272 0.0
C891 C 0.00184 0.47847 0.79982 0.0
C892 C 0.99046 0.47096 0.7892 0.0
C893 C 0.98941 0.45987 0.77987 0.0
C894 C 0.99964 0.4559 0.78106 0.0
C895 C 0.01106 0.46348 0.79169 0.0
C896 C 0.01224 0.47473 0.80078 0.0
C897 C 0.00294 0.49033 0.80962 0.0
C898 C 0.00119 0.50061 0.80157 0.0
C899 C 0.00599 0.49177 0.82669 0.0
C900 C 0.00682 0.48085 0.83643 0.0
C901 C 0.99561 0.46705 0.83663 0.0
C902 C 0.99613 0.45701 0.84656 0.0
C903 C 0.00785 0.46058 0.85655 0.0
C904 C 0.01913 0.47437 0.85615 0.0
C905 C 0.0186 0.48441 0.84623 0.0
H906 H 0.46607 0.49567 0.84524 0.0
H907 H 0.44791 0.47856 0.86344 0.0
H908 H 0.45985 0.44821 0.85008 0.0
H909 H 0.47813 0.46544 0.83212 0.0
H910 H 0.49413 0.50565 0.84885 0.0
H911 H 0.45987 0.4831 0.80539 0.0
H912 H 0.44254 0.46313 0.78959 0.0
H913 H 0.47339 0.45095 0.7797 0.0
H914 H 0.49077 0.4713 0.79496 0.0
H915 H 0.52665 0.50897 0.79093 0.0
H916 H 0.54627 0.52618 0.77463 0.0
H917 H 0.539 0.55864 0.79303 0.0
H918 H 0.51887 0.54122 0.80853 0.0
H919 H 0.50025 0.49982 0.78952 0.0
H920 H 0.53554 0.52427 0.82987 0.0
H921 H 0.55257 0.54249 0.84809 0.0
H922 H 0.52017 0.54944 0.86719 0.0
H923 H 0.50327 0.53171 0.84846 0.0
C924 C 0.4734 0.48181 0.83727 0.0
C925 C 0.46465 0.48528 0.8461 0.0
C926 C 0.45423 0.47547 0.85641 0.0
C927 C 0.45247 0.46205 0.85822 0.0
C928 C 0.46103 0.4585 0.84904 0.0
C929 C 0.4714 0.46829 0.83867 0.0
C930 C 0.48527 0.49263 0.82758 0.0
C931 C 0.49539 0.50459 0.83578 0.0
C932 C 0.48712 0.49087 0.81075 0.0
C933 C 0.47657 0.47864 0.80135 0.0
C934 C 0.46286 0.47609 0.79981 0.0
C935 C 0.45294 0.46461 0.79085 0.0
C936 C 0.45651 0.45535 0.78335 0.0
C937 C 0.47029 0.45795 0.78502 0.0
C938 C 0.48024 0.46954 0.79382 0.0
C939 C 0.52133 0.52379 0.80111 0.0
C940 C 0.52923 0.51979 0.79137 0.0
C941 C 0.54056 0.52969 0.78219 0.0
C942 C 0.54432 0.54385 0.78256 0.0
C943 C 0.53635 0.54782 0.79228 0.0
C944 C 0.52492 0.53788 0.80134 0.0
C945 C 0.50921 0.51314 0.81072 0.0
C946 C 0.49905 0.5011 0.80254 0.0
C947 C 0.50741 0.51484 0.82768 0.0
C948 C 0.5181 0.52667 0.83763 0.0
C949 C 0.53215 0.52997 0.8376 0.0
C950 C 0.54187 0.54033 0.84806 0.0
C951 C 0.53762 0.54729 0.85901 0.0
C952 C 0.52365 0.54416 0.85888 0.0
C953 C 0.51401 0.53402 0.84821 0.0
H954 H 0.63394 0.83412 0.51341 0.0
H955 H 0.63056 0.84927 0.49434 0.0
H956 H 0.66952 0.88447 0.5104 0.0
H957 H 0.67323 0.86923 0.52894 0.0
H958 H 0.65292 0.82743 0.51172 0.0
H959 H 0.63944 0.84772 0.55706 0.0
H960 H 0.64063 0.86717 0.57298 0.0
H961 H 0.68524 0.88507 0.57801 0.0
H962 H 0.68397 0.86545 0.56247 0.0
H963 H 0.68667 0.8278 0.56613 0.0
H964 H 0.69087 0.81131 0.58164 0.0
H965 H 0.64892 0.77832 0.57038 0.0
H966 H 0.64501 0.79477 0.55455 0.0
H967 H 0.66717 0.836 0.57034 0.0
H968 H 0.68061 0.81531 0.52764 0.0
H969 H 0.68101 0.79781 0.5096 0.0
H970 H 0.6375 0.78181 0.49783 0.0
H971 H 0.63713 0.79926 0.51601 0.0
C972 C 0.65378 0.85051 0.52278 0.0
C973 C 0.64172 0.84512 0.51296 0.0
C974 C 0.63978 0.85376 0.50207 0.0
C975 C 0.64978 0.86801 0.50093 0.0
C976 C 0.66157 0.87355 0.5112 0.0
C977 C 0.66364 0.86484 0.52189 0.0
C978 C 0.65664 0.84086 0.5326 0.0
C979 C 0.65572 0.82916 0.52465 0.0
C980 C 0.66093 0.84339 0.54926 0.0
C981 C 0.66163 0.8552 0.55858 0.0
C982 C 0.64946 0.85584 0.56161 0.0
C983 C 0.65014 0.86688 0.57071 0.0
C984 C 0.66303 0.87757 0.57665 0.0
C985 C 0.67521 0.87698 0.57347 0.0
C986 C 0.67448 0.86578 0.56468 0.0
C987 C 0.66559 0.81248 0.55906 0.0
C988 C 0.67841 0.817 0.56703 0.0
C989 C 0.68076 0.80756 0.57595 0.0
C990 C 0.67026 0.79344 0.57725 0.0
C991 C 0.65736 0.78903 0.56939 0.0
C992 C 0.65507 0.79844 0.56038 0.0
C993 C 0.66307 0.82243 0.54951 0.0
C994 C 0.66417 0.8342 0.55747 0.0
C995 C 0.65896 0.81999 0.53282 0.0
C996 C 0.65882 0.80854 0.52322 0.0
C997 C 0.6711 0.80787 0.52141 0.0
C998 C 0.67134 0.79795 0.511 0.0
C999 C 0.6593 0.78848 0.50227 0.0
C1000 C 0.6469 0.78888 0.50452 0.0
C1001 C 0.64669 0.79889 0.51482 0.0
H1002 H 0.16531 0.7982 0.5127 0.0
H1003 H 0.14856 0.78036 0.49395 0.0
H1004 H 0.11595 0.78725 0.51236 0.0
H1005 H 0.13285 0.80567 0.53058 0.0
H1006 H 0.17404 0.82413 0.51124 0.0
H1007 H 0.14982 0.78956 0.55352 0.0
H1008 H 0.12969 0.77281 0.56972 0.0
H1009 H 0.12236 0.806 0.58499 0.0
H1010 H 0.14212 0.82253 0.56829 0.0
H1011 H 0.17753 0.8571 0.5689 0.0
H1012 H 0.19472 0.87684 0.58493 0.0
H1013 H 0.22755 0.87077 0.56497 0.0
H1014 H 0.21014 0.85035 0.55004 0.0
H1015 H 0.16885 0.83117 0.57042 0.0
H1016 H 0.19058 0.86476 0.52595 0.0
H1017 H 0.20833 0.88097 0.50671 0.0
H1018 H 0.22005 0.84997 0.49589 0.0
H1019 H 0.20204 0.83374 0.51476 0.0
C1020 C 0.15039 0.80329 0.52317 0.0
C1021 C 0.15454 0.79584 0.51285 0.0
C1022 C 0.145 0.78563 0.50218 0.0
C1023 C 0.13104 0.78249 0.50183 0.0
C1024 C 0.12666 0.78945 0.51259 0.0
C1025 C 0.1363 0.7999 0.52306 0.0
C1026 C 0.16111 0.81543 0.53273 0.0
C1027 C 0.173 0.82551 0.52428 0.0
C1028 C 0.15955 0.81755 0.54961 0.0
C1029 C 0.14741 0.80729 0.55952 0.0
C1030 C 0.14378 0.79319 0.56022 0.0
C1031 C 0.13236 0.78365 0.56964 0.0
C1032 C 0.12437 0.78804 0.57864 0.0
C1033 C 0.12813 0.8022 0.57802 0.0
C1034 C 0.13951 0.8117 0.56859 0.0
C1035 C 0.19249 0.85227 0.55805 0.0
C1036 C 0.18842 0.85996 0.56804 0.0
C1037 C 0.19833 0.8714 0.57708 0.0
C1038 C 0.21261 0.87555 0.57624 0.0
C1039 C 0.21666 0.86785 0.56615 0.0
C1040 C 0.20671 0.85626 0.55732 0.0
C1041 C 0.18178 0.83981 0.5489 0.0
C1042 C 0.16991 0.82971 0.55741 0.0
C1043 C 0.18327 0.83766 0.53203 0.0
C1044 C 0.195 0.84806 0.52179 0.0
C1045 C 0.19712 0.86156 0.51959 0.0
C1046 C 0.20731 0.87082 0.5086 0.0
C1047 C 0.21558 0.86676 0.49962 0.0
C1048 C 0.2137 0.85337 0.50231 0.0
C1049 C 0.20347 0.8441 0.51319 0.0
H1050 H 0.14591 0.32552 0.50352 0.0
H1051 H 0.12847 0.32702 0.4867 0.0
H1052 H 0.13282 0.36123 0.51665 0.0
H1053 H 0.15075 0.36003 0.53307 0.0
H1054 H 0.17248 0.34372 0.50757 0.0
H1055 H 0.13227 0.3216 0.54217 0.0
H1056 H 0.1124 0.31929 0.55798 0.0
H1057 H 0.14067 0.35314 0.58952 0.0
H1058 H 0.16053 0.35567 0.57341 0.0
H1059 H 0.19671 0.35575 0.5734 0.0
H1060 H 0.21404 0.35331 0.58957 0.0
H1061 H 0.20947 0.32036 0.55722 0.0
H1062 H 0.19181 0.32247 0.54141 0.0
H1063 H 0.17039 0.33889 0.56828 0.0
H1064 H 0.21082 0.36095 0.53185 0.0
H1065 H 0.22971 0.36314 0.51404 0.0
H1066 H 0.19979 0.32728 0.48616 0.0
H1067 H 0.18103 0.32525 0.50382 0.0
C1068 C 0.14959 0.34259 0.51963 0.0
C1069 C 0.14313 0.33336 0.50647 0.0
C1070 C 0.13304 0.33414 0.49695 0.0
C1071 C 0.12916 0.34419 0.50038 0.0
C1072 C 0.13563 0.35344 0.5136 0.0
C1073 C 0.14579 0.35268 0.5231 0.0
C1074 C 0.16058 0.34184 0.52934 0.0
C1075 C 0.17195 0.34253 0.52084 0.0
C1076 C 0.16001 0.34056 0.5467 0.0
C1077 C 0.14791 0.33898 0.5564 0.0
C1078 C 0.1342 0.32867 0.55233 0.0
C1079 C 0.12285 0.32733 0.5614 0.0
C1080 C 0.125 0.33608 0.57493 0.0
C1081 C 0.13872 0.3462 0.57921 0.0
C1082 C 0.15006 0.34766 0.57001 0.0
C1083 C 0.19309 0.33946 0.556 0.0
C1084 C 0.1994 0.34797 0.5698 0.0
C1085 C 0.20928 0.34656 0.57904 0.0
C1086 C 0.21313 0.3367 0.57458 0.0
C1087 C 0.20683 0.32818 0.56078 0.0
C1088 C 0.19679 0.32944 0.5517 0.0
C1089 C 0.18232 0.34077 0.54648 0.0
C1090 C 0.17097 0.34019 0.55502 0.0
C1091 C 0.18281 0.34201 0.52913 0.0
C1092 C 0.1945 0.34294 0.51915 0.0
C1093 C 0.20838 0.35348 0.52201 0.0
C1094 C 0.21917 0.3547 0.51184 0.0
C1095 C 0.21624 0.34546 0.49859 0.0
C1096 C 0.20237 0.33474 0.49605 0.0
C1097 C 0.19163 0.33353 0.50618 0.0
H1098 H 0.97706 0.36182 0.05762 0.0
H1099 H 0.97583 0.37533 0.08081 0.0
H1100 H 0.01786 0.40829 0.07051 0.0
H1101 H 0.01918 0.39486 0.04741 0.0
H1102 H 0.01373 0.40203 0.10331 0.0
H1103 H 0.99053 0.41168 0.05931 0.0
H1104 H 0.97298 0.40551 0.03739 0.0
H1105 H 0.93996 0.38503 0.07277 0.0
H1106 H 0.95733 0.39092 0.09488 0.0
H1107 H 0.01779 0.45949 0.1462 0.0
H1108 H 0.01746 0.44312 0.12586 0.0
H1109 H 0.97457 0.41376 0.13825 0.0
H1110 H 0.97483 0.43012 0.1587 0.0
H1111 H 0.97792 0.41645 0.10571 0.0
H1112 H 0.00096 0.40807 0.1501 0.0
H1113 H 0.0184 0.41415 0.17213 0.0
H1114 H 0.05149 0.43184 0.13647 0.0
H1115 H 0.03426 0.42605 0.11424 0.0
C1116 C 0.98602 0.37196 0.0603 0.0
C1117 C 0.99819 0.37731 0.05067 0.0
C1118 C 0.98529 0.37966 0.07352 0.0
C1119 C 0.99673 0.39284 0.07732 0.0
C1120 C 0.00893 0.39813 0.0678 0.0
C1121 C 0.00964 0.39048 0.05456 0.0
C1122 C 0.99604 0.40121 0.09116 0.0
C1123 C 0.00599 0.4053 0.10378 0.0
C1124 C 0.98568 0.40512 0.09198 0.0
C1125 C 0.97523 0.4016 0.07871 0.0
C1126 C 0.97953 0.40575 0.06239 0.0
C1127 C 0.96961 0.40233 0.04994 0.0
C1128 C 0.95536 0.39484 0.05368 0.0
C1129 C 0.951 0.3908 0.06989 0.0
C1130 C 0.96088 0.39419 0.08239 0.0
C1131 C 0.00835 0.44945 0.14482 0.0
C1132 C 0.99635 0.44609 0.15412 0.0
C1133 C 0.00817 0.44011 0.13315 0.0
C1134 C 0.99603 0.42714 0.13064 0.0
C1135 C 0.98405 0.42371 0.13997 0.0
C1136 C 0.98421 0.43308 0.15163 0.0
C1137 C 0.99573 0.41744 0.11781 0.0
C1138 C 0.9856 0.41309 0.10536 0.0
C1139 C 0.0059 0.41326 0.11718 0.0
C1140 C 0.01631 0.41673 0.13051 0.0
C1141 C 0.01196 0.41336 0.14696 0.0
C1142 C 0.02181 0.41673 0.15949 0.0
C1143 C 0.03604 0.4234 0.1557 0.0
C1144 C 0.04046 0.42668 0.13938 0.0
C1145 C 0.03065 0.42334 0.12681 0.0
H1146 H 0.04365 0.42601 0.16542 0.0
H1147 H 0.9477 0.3922 0.04402 0.0
H1148 H 0.60672 0.61855 0.04657 0.0
H1149 H 0.59493 0.60419 0.07053 0.0
H1150 H 0.63436 0.6107 0.08892 0.0
H1151 H 0.64621 0.6248 0.06454 0.0
H1152 H 0.61513 0.58463 0.09332 0.0
H1153 H 0.61844 0.62816 0.10563 0.0
H1154 H 0.61625 0.64894 0.10062 0.0
H1155 H 0.57176 0.62296 0.09593 0.0
H1156 H 0.5737 0.60199 0.10068 0.0
H1157 H 0.5692 0.56728 0.17349 0.0
H1158 H 0.5861 0.5842 0.154 0.0
H1159 H 0.57239 0.55198 0.11708 0.0
H1160 H 0.55549 0.53509 0.13639 0.0
H1161 H 0.58225 0.59343 0.12566 0.0
H1162 H 0.59914 0.5576 0.09229 0.0
H1163 H 0.60305 0.53811 0.09906 0.0
H1164 H 0.61051 0.55122 0.14955 0.0
H1165 H 0.60685 0.5709 0.14305 0.0
C1166 C 0.6129 0.61694 0.05571 0.0
C1167 C 0.6274 0.62286 0.05374 0.0
C1168 C 0.60615 0.60879 0.06947 0.0
C1169 C 0.61378 0.60659 0.08173 0.0
C1170 C 0.62826 0.61231 0.07967 0.0
C1171 C 0.63502 0.62037 0.06577 0.0
C1172 C 0.60651 0.59813 0.09651 0.0
C1173 C 0.608 0.5866 0.10044 0.0
C1174 C 0.59747 0.60089 0.10612 0.0
C1175 C 0.59623 0.61349 0.10342 0.0
C1176 C 0.6082 0.62687 0.10344 0.0
C1177 C 0.607 0.63868 0.10065 0.0
C1178 C 0.59388 0.63727 0.09793 0.0
C1179 C 0.58192 0.62404 0.09803 0.0
C1180 C 0.58306 0.61218 0.1008 0.0
C1181 C 0.56978 0.56381 0.16121 0.0
C1182 C 0.56103 0.54981 0.15653 0.0
C1183 C 0.57948 0.57348 0.15011 0.0
C1184 C 0.58064 0.56933 0.13414 0.0
C1185 C 0.57191 0.55537 0.12944 0.0
C1186 C 0.56225 0.54571 0.14052 0.0
C1187 C 0.59052 0.57966 0.12208 0.0
C1188 C 0.5895 0.59154 0.11865 0.0
C1189 C 0.60023 0.57741 0.11321 0.0
C1190 C 0.6026 0.56567 0.11719 0.0
C1191 C 0.60168 0.55636 0.10482 0.0
C1192 C 0.60384 0.54527 0.10861 0.0
C1193 C 0.60699 0.5434 0.12473 0.0
C1194 C 0.60803 0.55265 0.13708 0.0
C1195 C 0.60588 0.56376 0.13335 0.0
H1196 H 0.60866 0.53481 0.12764 0.0
H1197 H 0.59297 0.64643 0.09577 0.0
H1198 H 0.37204 0.01529 0.06982 0.0
H1199 H 0.38778 0.01753 0.09224 0.0
H1200 H 0.41489 0.01316 0.05754 0.0
H1201 H 0.39896 0.0105 0.03518 0.0
H1202 H 0.41036 0.99671 0.08227 0.0
H1203 H 0.4238 0.04486 0.07691 0.0
H1204 H 0.42039 0.06519 0.07537 0.0
H1205 H 0.40302 0.05652 0.12408 0.0
H1206 H 0.40616 0.03601 0.12584 0.0
H1207 H 0.46978 0.01881 0.1334 0.0
H1208 H 0.45422 0.01934 0.11236 0.0
H1209 H 0.42317 0.01124 0.14945 0.0
H1210 H 0.43868 0.01048 0.17062 0.0
H1211 H 0.42931 0.03398 0.12465 0.0
H1212 H 0.41642 0.98554 0.12922 0.0
H1213 H 0.42114 0.96603 0.1302 0.0
H1214 H 0.43901 0.9765 0.08179 0.0
H1215 H 0.4346 0.99623 0.08063 0.0
C1216 C 0.38147 0.01502 0.06695 0.0
C1217 C 0.38427 0.0127 0.05075 0.0
C1218 C 0.39049 0.01634 0.07978 0.0
C1219 C 0.40259 0.01559 0.0766 0.0
C1220 C 0.4056 0.01372 0.06032 0.0
C1221 C 0.39653 0.01226 0.04753 0.0
C1222 C 0.41167 0.01591 0.09028 0.0
C1223 C 0.41463 0.00499 0.09138 0.0
C1224 C 0.41701 0.0265 0.10245 0.0
C1225 C 0.41508 0.03881 0.10143 0.0
C1226 C 0.41914 0.04722 0.08724 0.0
C1227 C 0.41728 0.05879 0.08634 0.0
C1228 C 0.41146 0.06212 0.0996 0.0
C1229 C 0.40751 0.05391 0.11381 0.0
C1230 C 0.40934 0.04232 0.11477 0.0
C1231 C 0.4597 0.01728 0.13709 0.0
C1232 C 0.45542 0.01463 0.15362 0.0
C1233 C 0.45082 0.01754 0.12507 0.0
C1234 C 0.43758 0.01532 0.12939 0.0
C1235 C 0.43338 0.01301 0.14593 0.0
C1236 C 0.44219 0.0125 0.15795 0.0
C1237 C 0.42799 0.0149 0.11642 0.0
C1238 C 0.42495 0.02575 0.1155 0.0
C1239 C 0.4227 0.00435 0.10428 0.0
C1240 C 0.42531 0.99245 0.10491 0.0
C1241 C 0.42148 0.98377 0.11885 0.0
C1242 C 0.42407 0.97265 0.11942 0.0
C1243 C 0.43041 0.97004 0.10608 0.0
C1244 C 0.43413 0.97854 0.09212 0.0
C1245 C 0.43157 0.98968 0.09149 0.0
H1246 H 0.4324 0.96143 0.10655 0.0
H1247 H 0.41003 0.07109 0.09888 0.0
H1248 H 0.36162 0.99774 0.95585 0.0
H1249 H 0.37517 0.99529 0.93357 0.0
H1250 H 0.39112 0.97664 0.96742 0.0
H1251 H 0.37747 0.97889 0.9897 0.0
H1252 H 0.41186 0.99999 0.94972 0.0
H1253 H 0.36907 0.95673 0.93937 0.0
H1254 H 0.34382 0.9423 0.93381 0.0
H1255 H 0.34867 0.96541 0.88948 0.0
H1256 H 0.37393 0.98012 0.8949 0.0
H1257 H 0.45157 0.98474 0.89574 0.0
H1258 H 0.43421 0.98254 0.91596 0.0
H1259 H 0.41275 0.99215 0.87835 0.0
H1260 H 0.4298 0.99362 0.85789 0.0
H1261 H 0.39426 0.97349 0.89762 0.0
H1262 H 0.4357 0.01711 0.907 0.0
H1263 H 0.46081 0.0332 0.91184 0.0
H1264 H 0.4585 0.01203 0.95702 0.0
H1265 H 0.4334 0.99568 0.95233 0.0
C1266 C 0.36781 0.99287 0.95847 0.0
C1267 C 0.36851 0.98852 0.97452 0.0
C1268 C 0.37552 0.99147 0.94573 0.0
C1269 C 0.38414 0.98579 0.94887 0.0
C1270 C 0.38451 0.98104 0.96477 0.0
C1271 C 0.37668 0.98228 0.97746 0.0
C1272 C 0.39358 0.98579 0.93592 0.0
C1273 C 0.40803 0.99402 0.93843 0.0
C1274 C 0.38854 0.97849 0.92093 0.0
C1275 C 0.37337 0.96961 0.91763 0.0
C1276 C 0.36473 0.95882 0.92851 0.0
C1277 C 0.35042 0.95057 0.92537 0.0
C1278 C 0.34464 0.95296 0.91133 0.0
C1279 C 0.35316 0.96358 0.90037 0.0
C1280 C 0.36748 0.97187 0.90346 0.0
C1281 C 0.44307 0.98628 0.89182 0.0
C1282 C 0.44204 0.98947 0.87536 0.0
C1283 C 0.4332 0.98511 0.90337 0.0
C1284 C 0.42235 0.98755 0.89881 0.0
C1285 C 0.42106 0.9903 0.88221 0.0
C1286 C 0.43079 0.99117 0.87054 0.0
C1287 C 0.41263 0.98756 0.91149 0.0
C1288 C 0.39813 0.97943 0.90891 0.0
C1289 C 0.41761 0.99523 0.92632 0.0
C1290 C 0.4327 0.00509 0.92923 0.0
C1291 C 0.44057 0.01582 0.91791 0.0
C1292 C 0.4548 0.025 0.92064 0.0
C1293 C 0.46126 0.02361 0.93471 0.0
C1294 C 0.45349 0.01308 0.94611 0.0
C1295 C 0.43926 0.00386 0.94344 0.0
H1296 H 0.47228 0.03073 0.93679 0.0
H1297 H 0.33355 0.94657 0.90892 0.0
H1298 H 0.98484 0.37552 0.9727 0.0
H1299 H 0.98679 0.38986 0.94898 0.0
H1300 H 0.02968 0.40042 0.94218 0.0
H1301 H 0.02785 0.38611 0.96618 0.0
H1302 H 0.02656 0.42321 0.93955 0.0
H1303 H 0.00489 0.37749 0.91658 0.0
H1304 H 0.9877 0.35233 0.91504 0.0
H1305 H 0.9544 0.36143 0.91051 0.0
H1306 H 0.97136 0.38665 0.91229 0.0
H1307 H 0.02971 0.45625 0.86317 0.0
H1308 H 0.03041 0.44014 0.88326 0.0
H1309 H 0.9873 0.42532 0.89574 0.0
H1310 H 0.98653 0.4414 0.87576 0.0
H1311 H 0.99244 0.40396 0.89367 0.0
H1312 H 0.01392 0.44937 0.9196 0.0
H1313 H 0.03101 0.47452 0.92184 0.0
H1314 H 0.06472 0.4658 0.92097 0.0
H1315 H 0.04781 0.44059 0.91849 0.0
C1316 C 0.9947 0.38086 0.96616 0.0
C1317 C 0.00619 0.37966 0.97127 0.0
C1318 C 0.99577 0.38901 0.95254 0.0
C1319 C 0.00831 0.39604 0.94365 0.0
C1320 C 0.01988 0.39501 0.94882 0.0
C1321 C 0.01882 0.38683 0.9625 0.0
C1322 C 0.00929 0.40467 0.92919 0.0
C1323 C 0.01929 0.41895 0.92934 0.0
C1324 C 0.99965 0.39915 0.91601 0.0
C1325 C 0.98941 0.38398 0.91468 0.0
C1326 C 0.99389 0.37413 0.91536 0.0
C1327 C 0.98419 0.35985 0.91443 0.0
C1328 C 0.96996 0.35528 0.91271 0.0
C1329 C 0.96542 0.36498 0.91185 0.0
C1330 C 0.97508 0.37928 0.9128 0.0
C1331 C 0.02038 0.44957 0.87021 0.0
C1332 C 0.00808 0.45017 0.86792 0.0
C1333 C 0.02079 0.44035 0.88166 0.0
C1334 C 0.00895 0.43163 0.89114 0.0
C1335 C 0.99655 0.43192 0.88853 0.0
C1336 C 0.99612 0.4411 0.87707 0.0
C1337 C 0.00954 0.42254 0.90418 0.0
C1338 C 0.99983 0.40818 0.90376 0.0
C1339 C 0.01946 0.42798 0.91711 0.0
C1340 C 0.02961 0.44312 0.91867 0.0
C1341 C 0.02498 0.45283 0.91976 0.0
C1342 C 0.03463 0.46709 0.92109 0.0
C1343 C 0.04895 0.47176 0.9215 0.0
C1344 C 0.05363 0.46217 0.92062 0.0
C1345 C 0.04402 0.4479 0.91926 0.0
H1346 H 0.0564 0.48281 0.92254 0.0
H1347 H 0.96247 0.34422 0.91201 0.0
H1348 H 0.60817 0.60647 0.9878 0.0
H1349 H 0.59327 0.59296 0.96488 0.0
H1350 H 0.61439 0.62904 0.93328 0.0
H1351 H 0.62877 0.64283 0.95657 0.0
H1352 H 0.58871 0.61652 0.92571 0.0
H1353 H 0.62112 0.60069 0.93262 0.0
H1354 H 0.6346 0.59179 0.94725 0.0
H1355 H 0.59658 0.55437 0.95993 0.0
H1356 H 0.58284 0.56312 0.94557 0.0
H1357 H 0.56319 0.57041 0.85364 0.0
H1358 H 0.57952 0.58643 0.87449 0.0
H1359 H 0.55067 0.56185 0.91284 0.0
H1360 H 0.53422 0.5461 0.89211 0.0
H1361 H 0.5819 0.56942 0.91462 0.0
H1362 H 0.55018 0.58789 0.90776 0.0
H1363 H 0.5384 0.59749 0.89096 0.0
H1364 H 0.57821 0.63104 0.87509 0.0
H1365 H 0.59022 0.62149 0.89161 0.0
C1366 C 0.60958 0.61152 0.97597 0.0
C1367 C 0.61965 0.62565 0.9739 0.0
C1368 C 0.60114 0.60377 0.96283 0.0
C1369 C 0.60293 0.60984 0.94717 0.0
C1370 C 0.61283 0.62407 0.94518 0.0
C1371 C 0.62105 0.63194 0.95847 0.0
C1372 C 0.59445 0.6013 0.93297 0.0
C1373 C 0.58744 0.60632 0.92318 0.0
C1374 C 0.59273 0.58797 0.92952 0.0
C1375 C 0.60095 0.58262 0.93812 0.0
C1376 C 0.61562 0.5906 0.93862 0.0
C1377 C 0.62331 0.58558 0.94686 0.0
C1378 C 0.61645 0.57254 0.95454 0.0
C1379 C 0.60188 0.56447 0.95398 0.0
C1380 C 0.59414 0.56945 0.94578 0.0
C1381 C 0.56037 0.56852 0.86653 0.0
C1382 C 0.54747 0.55711 0.87134 0.0
C1383 C 0.56965 0.57764 0.87837 0.0
C1384 C 0.56623 0.57527 0.89514 0.0
C1385 C 0.55343 0.56382 0.89994 0.0
C1386 C 0.54405 0.5549 0.88812 0.0
C1387 C 0.57607 0.58457 0.9078 0.0
C1388 C 0.58334 0.57968 0.91719 0.0
C1389 C 0.57831 0.59813 0.91059 0.0
C1390 C 0.57108 0.60388 0.90074 0.0
C1391 C 0.55641 0.59722 0.90055 0.0
C1392 C 0.54969 0.60268 0.89111 0.0
C1393 C 0.55755 0.61484 0.88192 0.0
C1394 C 0.57214 0.6216 0.88219 0.0
C1395 C 0.5789 0.61618 0.89159 0.0
H1396 H 0.55233 0.61905 0.87462 0.0
H1397 H 0.62242 0.56867 0.96091 0.0
H1398 H 0.98305 0.60668 0.9774 0.0
H1399 H 0.98446 0.59265 0.95514 0.0
H1400 H 0.02563 0.62625 0.94259 0.0
H1401 H 0.02415 0.64051 0.96472 0.0
H1402 H 0.01015 0.61472 0.91538 0.0
H1403 H 0.02134 0.59784 0.96404 0.0
H1404 H 0.0177 0.58871 0.99239 0.0
H1405 H 0.97923 0.5526 0.97782 0.0
H1406 H 0.98252 0.5616 0.94944 0.0
H1407 H 0.02727 0.57217 0.86535 0.0
H1408 H 0.02714 0.58773 0.88668 0.0
H1409 H 0.98528 0.55641 0.90049 0.0
H1410 H 0.98544 0.54073 0.87944 0.0
H1411 H 0.00231 0.56734 0.92713 0.0
H1412 H 0.99064 0.58444 0.87891 0.0
H1413 H 0.99394 0.59347 0.85055 0.0
H1414 H 0.03318 0.62902 0.86425 0.0
H1415 H 0.03021 0.6201 0.89266 0.0
C1416 C 0.99241 0.61109 0.96992 0.0
C1417 C 0.00353 0.62466 0.97286 0.0
C1418 C 0.99322 0.60304 0.95722 0.0
C1419 C 0.00524 0.60831 0.94736 0.0
C1420 C 0.01628 0.62196 0.95009 0.0
C1421 C 0.01544 0.63007 0.96276 0.0
C1422 C 0.00623 0.59951 0.93425 0.0
C1423 C 0.00866 0.60445 0.91798 0.0
C1424 C 0.00402 0.586 0.9376 0.0
C1425 C 0.00212 0.58046 0.95463 0.0
C1426 C 0.01206 0.58799 0.9669 0.0
C1427 C 0.01006 0.58284 0.98298 0.0
C1428 C 0.99823 0.5701 0.98691 0.0
C1429 C 0.98839 0.56247 0.97476 0.0
C1430 C 0.99032 0.56759 0.95867 0.0
C1431 C 0.01804 0.56861 0.87294 0.0
C1432 C 0.00635 0.55524 0.87068 0.0
C1433 C 0.01795 0.57754 0.88505 0.0
C1434 C 0.00617 0.57325 0.89511 0.0
C1435 C 0.99447 0.55993 0.89284 0.0
C1436 C 0.99453 0.55103 0.88071 0.0
C1437 C 0.0061 0.5825 0.90826 0.0
C1438 C 0.00387 0.57764 0.92455 0.0
C1439 C 0.0085 0.59607 0.90491 0.0
C1440 C 0.01027 0.60152 0.88787 0.0
C1441 C 1.00003 0.59413 0.87585 0.0
C1442 C 0.00183 0.59924 0.85977 0.0
C1443 C 0.01378 0.61179 0.85559 0.0
C1444 C 0.02394 0.61929 0.8675 0.0
C1445 C 0.02219 0.61421 0.88359 0.0
H1446 H 0.01516 0.61573 0.84313 0.0
H1447 H 0.99669 0.56613 0.99936 0.0
H1448 H 0.39324 0.37873 0.97672 0.0
H1449 H 0.40607 0.39458 0.9542 0.0
H1450 H 0.37075 0.39986 0.94386 0.0
H1451 H 0.35773 0.38388 0.96653 0.0
H1452 H 0.3828 0.39623 0.91547 0.0
H1453 H 0.39741 0.42524 0.96289 0.0
H1454 H 0.406 0.43239 0.99121 0.0
H1455 H 0.44415 0.43319 0.9789 0.0
H1456 H 0.4357 0.42583 0.95054 0.0
H1457 H 0.42547 0.45577 0.8638 0.0
H1458 H 0.40942 0.44034 0.88509 0.0
H1459 H 0.44068 0.43063 0.90144 0.0
H1460 H 0.45678 0.44611 0.88039 0.0
H1461 H 0.4291 0.4378 0.92692 0.0
H1462 H 0.41336 0.40729 0.87964 0.0
H1463 H 0.40454 0.4005 0.85133 0.0
H1464 H 0.36817 0.40318 0.86348 0.0
H1465 H 0.37688 0.41019 0.89182 0.0
C1466 C 0.38816 0.38323 0.96966 0.0
C1467 C 0.37449 0.38012 0.97345 0.0
C1468 C 0.39553 0.39232 0.95682 0.0
C1469 C 0.38942 0.39852 0.94749 0.0
C1470 C 0.37565 0.39521 0.95096 0.0
C1471 C 0.36826 0.38613 0.96392 0.0
C1472 C 0.39761 0.40855 0.93427 0.0
C1473 C 0.39281 0.40547 0.91798 0.0
C1474 C 0.41074 0.4205 0.93755 0.0
C1475 C 0.41587 0.42488 0.95461 0.0
C1476 C 0.40758 0.42682 0.96625 0.0
C1477 C 0.41244 0.43093 0.98231 0.0
C1478 C 0.4256 0.43322 0.98685 0.0
C1479 C 0.43395 0.4314 0.97535 0.0
C1480 C 0.42914 0.42728 0.95928 0.0
C1481 C 0.42888 0.45031 0.87193 0.0
C1482 C 0.44237 0.45211 0.87039 0.0
C1483 C 0.41969 0.44146 0.88401 0.0
C1484 C 0.42385 0.43431 0.89479 0.0
C1485 C 0.43726 0.43604 0.89322 0.0
C1486 C 0.4464 0.44479 0.8811 0.0
C1487 C 0.41445 0.42532 0.90808 0.0
C1488 C 0.41903 0.42864 0.92441 0.0
C1489 C 0.4011 0.41367 0.90481 0.0
C1490 C 0.39585 0.40943 0.8878 0.0
C1491 C 0.40354 0.40656 0.87624 0.0
C1492 C 0.39855 0.40265 0.86019 0.0
C1493 C 0.38582 0.40145 0.85559 0.0
C1494 C 0.37804 0.40414 0.86705 0.0
C1495 C 0.38299 0.40807 0.88311 0.0
H1496 H 0.38198 0.39842 0.84316 0.0
H1497 H 0.42936 0.43646 0.99926 0.0
H1498 H 0.61249 0.97369 0.97139 0.0
H1499 H 0.59703 0.97206 0.94879 0.0
H1500 H 0.61756 0.01702 0.94675 0.0
H1501 H 0.63268 0.01868 0.9695 0.0
H1502 H 0.59065 0.00663 0.94623 0.0
H1503 H 0.62284 0.99694 0.91729 0.0
H1504 H 0.63563 0.98445 0.91174 0.0
H1505 H 0.59679 0.94622 0.90487 0.0
H1506 H 0.58376 0.95846 0.91059 0.0
H1507 H 0.5655 0.01697 0.87139 0.0
H1508 H 0.58127 0.01603 0.89174 0.0
H1509 H 0.55545 0.97122 0.89402 0.0
H1510 H 0.5395 0.97207 0.87376 0.0
H1511 H 0.58386 0.98004 0.89462 0.0
H1512 H 0.55186 0.99022 0.9229 0.0
H1513 H 0.53934 0.00304 0.92799 0.0
H1514 H 0.57838 0.04081 0.93591 0.0
H1515 H 0.59116 0.02825 0.93062 0.0
C1516 C 0.61374 0.9832 0.96602 0.0
C1517 C 0.62376 0.99631 0.97223 0.0
C1518 C 0.60494 0.98227 0.95307 0.0
C1519 C 0.60618 0.99443 0.94597 0.0
C1520 C 0.61636 0.00749 0.95204 0.0
C1521 C 0.62502 0.00842 0.96503 0.0
C1522 C 0.59659 0.99369 0.93267 0.0
C1523 C 0.58933 0.00095 0.93488 0.0
C1524 C 0.59451 0.98596 0.91801 0.0
C1525 C 0.60233 0.97859 0.91454 0.0
C1526 C 0.61703 0.98585 0.91472 0.0
C1527 C 0.62432 0.97882 0.91152 0.0
C1528 C 0.61703 0.96454 0.908 0.0
C1529 C 0.60243 0.95728 0.90762 0.0
C1530 C 0.59508 0.96426 0.91083 0.0
C1531 C 0.56317 0.00691 0.8762 0.0
C1532 C 0.55115 0.99461 0.87108 0.0
C1533 C 0.57222 0.00638 0.88778 0.0
C1534 C 0.56941 0.99357 0.89457 0.0
C1535 C 0.5578 0.98121 0.88895 0.0
C1536 C 0.54872 0.98172 0.87734 0.0
C1537 C 0.57822 0.99322 0.90813 0.0
C1538 C 0.58523 0.9857 0.90601 0.0
C1539 C 0.58014 0.00076 0.92287 0.0
C1540 C 0.57247 0.00831 0.92622 0.0
C1541 C 0.55778 0.00128 0.92561 0.0
C1542 C 0.55064 0.0085 0.92855 0.0
C1543 C 0.55806 0.02274 0.93224 0.0
C1544 C 0.57264 0.02978 0.93304 0.0
C1545 C 0.57984 0.02262 0.93008 0.0
H1546 H 0.55251 0.02831 0.93451 0.0
H1547 H 0.62269 0.95912 0.90552 0.0
H1548 H 0.60717 0.98433 0.04616 0.0
H1549 H 0.59337 0.98585 0.06863 0.0
H1550 H 0.62816 0.02579 0.08276 0.0
H1551 H 0.64218 0.02422 0.06033 0.0
H1552 H 0.61561 0.0094 0.10946 0.0
H1553 H 0.6009 0.02416 0.06198 0.0
H1554 H 0.59242 0.02259 0.03357 0.0
H1555 H 0.55479 0.98449 0.04548 0.0
H1556 H 0.56314 0.98572 0.07391 0.0
H1557 H 0.57365 0.02719 0.16026 0.0
H1558 H 0.58946 0.02704 0.13923 0.0
H1559 H 0.55732 0.98626 0.12328 0.0
H1560 H 0.54143 0.98643 0.14408 0.0
H1561 H 0.56934 0.0045 0.0976 0.0
H1562 H 0.58438 0.98952 0.14494 0.0
H1563 H 0.59282 0.99122 0.1734 0.0
H1564 H 0.62978 0.03003 0.16182 0.0
H1565 H 0.62146 0.02867 0.13334 0.0
C1566 C 0.6119 0.99345 0.05403 0.0
C1567 C 0.62573 0.0042 0.05142 0.0
C1568 C 0.60398 0.99433 0.06685 0.0
C1569 C 0.60966 0.00602 0.07724 0.0
C1570 C 0.62356 0.01669 0.07485 0.0
C1571 C 0.63152 0.0158 0.06201 0.0
C1572 C 0.60098 0.00706 0.09049 0.0
C1573 C 0.6056 0.00856 0.10685 0.0
C1574 C 0.5878 0.00571 0.08712 0.0
C1575 C 0.5827 0.00498 0.07004 0.0
C1576 C 0.59086 0.01539 0.05851 0.0
C1577 C 0.58607 0.01457 0.04241 0.0
C1578 C 0.57309 0.00343 0.03771 0.0
C1579 C 0.56485 0.99311 0.04913 0.0
C1580 C 0.5696 0.99387 0.06524 0.0
C1581 C 0.56998 0.01819 0.15228 0.0
C1582 C 0.55631 0.00681 0.15384 0.0
C1583 C 0.57904 0.01808 0.14036 0.0
C1584 C 0.57458 0.00661 0.12975 0.0
C1585 C 0.56098 0.9952 0.13136 0.0
C1586 C 0.55195 0.99527 0.14333 0.0
C1587 C 0.58388 0.00666 0.11657 0.0
C1588 C 0.57938 0.0054 0.1002 0.0
C1589 C 0.59716 0.00826 0.11996 0.0
C1590 C 0.60222 0.00907 0.13706 0.0
C1591 C 0.59425 0.99848 0.1485 0.0
C1592 C 0.59902 0.99937 0.16463 0.0
C1593 C 0.61181 0.01075 0.16943 0.0
C1594 C 0.61987 0.02124 0.15809 0.0
C1595 C 0.61513 0.02041 0.14195 0.0
H1596 H 0.61549 0.01141 0.18192 0.0
H1597 H 0.5694 0.00282 0.02524 0.0
H1598 H 0.01853 0.6288 0.05046 0.0
H1599 H 0.01689 0.61341 0.07287 0.0
H1600 H 0.97317 0.59992 0.07886 0.0
H1601 H 0.97476 0.61549 0.05637 0.0
H1602 H 0.98724 0.60486 0.10874 0.0
H1603 H 0.98201 0.57925 0.05912 0.0
H1604 H 0.98843 0.57578 0.03118 0.0
H1605 H 0.02759 0.58192 0.04932 0.0
H1606 H 0.02149 0.58564 0.07733 0.0
H1607 H 0.97381 0.54568 0.15784 0.0
H1608 H 0.97323 0.56117 0.13676 0.0
H1609 H 0.01637 0.5755 0.12493 0.0
H1610 H 0.0169 0.55975 0.14558 0.0
H1611 H 0.00087 0.56921 0.09766 0.0
H1612 H 0.00697 0.59589 0.14667 0.0
H1613 H 0.00129 0.60009 0.17466 0.0
H1614 H 0.96123 0.59245 0.1579 0.0
H1615 H 0.9666 0.58801 0.12984 0.0
C1616 C 0.00856 0.6226 0.05656 0.0
C1617 C 0.99674 0.62328 0.05158 0.0
C1618 C 0.00764 0.61378 0.06935 0.0
C1619 C 0.99486 0.60537 0.07737 0.0
C1620 C 0.98311 0.60629 0.07277 0.0
C1621 C 0.98402 0.61515 0.05992 0.0
C1622 C 0.99386 0.59545 0.0903 0.0
C1623 C 0.98998 0.59689 0.10629 0.0
C1624 C 0.99773 0.58527 0.08713 0.0
C1625 C 0.00133 0.58283 0.07032 0.0
C1626 C 0.99203 0.57995 0.05714 0.0
C1627 C 0.99561 0.57793 0.04128 0.0
C1628 C 0.00842 0.57867 0.03847 0.0
C1629 C 0.01767 0.58137 0.05152 0.0
C1630 C 0.01415 0.58342 0.06739 0.0
C1631 C 0.98317 0.55212 0.15074 0.0
C1632 C 0.99541 0.55149 0.15342 0.0
C1633 C 0.98285 0.56105 0.13878 0.0
C1634 C 0.99479 0.56957 0.12934 0.0
C1635 C 0.00704 0.56904 0.13209 0.0
C1636 C 0.00737 0.56013 0.14402 0.0
C1637 C 0.99443 0.57872 0.11621 0.0
C1638 C 0.99803 0.5771 0.10014 0.0
C1639 C 0.99036 0.58876 0.11934 0.0
C1640 C 0.98712 0.59147 0.13619 0.0
C1641 C 0.9969 0.59499 0.14898 0.0
C1642 C 0.99375 0.59743 0.16485 0.0
C1643 C 0.98089 0.5965 0.16807 0.0
C1644 C 0.97118 0.59315 0.1554 0.0
C1645 C 0.97427 0.59068 0.13951 0.0
H1646 H 0.97847 0.5984 0.18036 0.0
H1647 H 0.01119 0.57713 0.02619 0.0
H1648 H 0.37989 0.39567 0.04675 0.0
H1649 H 0.3955 0.40942 0.06909 0.0
H1650 H 0.40009 0.37436 0.08321 0.0
H1651 H 0.38425 0.36043 0.06094 0.0
H1652 H 0.39658 0.38671 0.10981 0.0
H1653 H 0.42606 0.40162 0.06262 0.0
H1654 H 0.43363 0.41037 0.03442 0.0
H1655 H 0.43371 0.44817 0.04646 0.0
H1656 H 0.42594 0.43956 0.07468 0.0
H1657 H 0.45659 0.42824 0.16073 0.0
H1658 H 0.44069 0.41267 0.13947 0.0
H1659 H 0.43153 0.44463 0.12462 0.0
H1660 H 0.44749 0.46028 0.14568 0.0
H1661 H 0.43807 0.43306 0.09845 0.0
H1662 H 0.40795 0.41722 0.146 0.0
H1663 H 0.40131 0.40827 0.17429 0.0
H1664 H 0.40346 0.37178 0.16144 0.0
H1665 H 0.41032 0.38061 0.13312 0.0
C1666 C 0.38422 0.39088 0.0546 0.0
C1667 C 0.3809 0.37699 0.05205 0.0
C1668 C 0.39319 0.39877 0.06733 0.0
C1669 C 0.39912 0.39298 0.07769 0.0
C1670 C 0.39567 0.37905 0.07533 0.0
C1671 C 0.38666 0.37112 0.06259 0.0
C1672 C 0.40888 0.40154 0.091 0.0
C1673 C 0.40577 0.39674 0.1073 0.0
C1674 C 0.42078 0.41472 0.08775 0.0
C1675 C 0.4253 0.41989 0.07073 0.0
C1676 C 0.42756 0.41174 0.05921 0.0
C1677 C 0.43191 0.41669 0.04323 0.0
C1678 C 0.43413 0.42981 0.03865 0.0
C1679 C 0.43198 0.438 0.05003 0.0
C1680 C 0.42761 0.4331 0.06602 0.0
C1681 C 0.45115 0.43192 0.15295 0.0
C1682 C 0.45326 0.44547 0.1549 0.0
C1683 C 0.44202 0.423 0.14089 0.0
C1684 C 0.43489 0.42748 0.13052 0.0
C1685 C 0.43692 0.44096 0.13251 0.0
C1686 C 0.44595 0.44984 0.14463 0.0
C1687 C 0.42564 0.41832 0.11724 0.0
C1688 C 0.42889 0.423 0.10093 0.0
C1689 C 0.41397 0.405 0.12048 0.0
C1690 C 0.4098 0.39965 0.13748 0.0
C1691 C 0.40713 0.40734 0.14924 0.0
C1692 C 0.4033 0.40228 0.16528 0.0
C1693 C 0.402 0.38948 0.16967 0.0
C1694 C 0.4045 0.3817 0.15803 0.0
C1695 C 0.40835 0.38673 0.14198 0.0
H1696 H 0.39903 0.38557 0.18209 0.0
H1697 H 0.43759 0.43365 0.02632 0.0
H1698 H 0.68175 0.7312 0.37852 0.0
H1699 H 0.68 0.74459 0.40133 0.0
H1700 H 0.64374 0.70753 0.41959 0.0
H1701 H 0.6453 0.69407 0.39656 0.0
H1702 H 0.64038 0.73032 0.42089 0.0
H1703 H 0.67552 0.71915 0.437 0.0
H1704 H 0.69705 0.7181 0.43283 0.0
H1705 H 0.72098 0.76282 0.42963 0.0
H1706 H 0.69954 0.76412 0.43344 0.0
H1707 H 0.64056 0.76065 0.49802 0.0
H1708 H 0.64103 0.74508 0.47694 0.0
H1709 H 0.67951 0.77903 0.45772 0.0
H1710 H 0.67923 0.79449 0.47895 0.0
H1711 H 0.68109 0.75637 0.45792 0.0
H1712 H 0.64691 0.76807 0.43951 0.0
H1713 H 0.62574 0.77006 0.44167 0.0
H1714 H 0.60057 0.72566 0.44776 0.0
H1715 H 0.62164 0.72342 0.44585 0.0
C1716 C 0.67337 0.7259 0.38735 0.0
C1717 C 0.66371 0.71157 0.38581 0.0
C1718 C 0.67241 0.73356 0.40042 0.0
C1719 C 0.66187 0.72701 0.41231 0.0
C1720 C 0.65199 0.71277 0.41058 0.0
C1721 C 0.65291 0.7051 0.39746 0.0
C1722 C 0.66131 0.73503 0.42662 0.0
C1723 C 0.64919 0.73583 0.42917 0.0
C1724 C 0.67293 0.74248 0.43717 0.0
C1725 C 0.6859 0.74172 0.43538 0.0
C1726 C 0.68536 0.72876 0.43533 0.0
C1727 C 0.69756 0.72812 0.43303 0.0
C1728 C 0.71038 0.74039 0.43094 0.0
C1729 C 0.71104 0.75333 0.43123 0.0
C1730 C 0.69887 0.75402 0.43347 0.0
C1731 C 0.64913 0.76476 0.4893 0.0
C1732 C 0.65985 0.77878 0.49011 0.0
C1733 C 0.64937 0.75587 0.47724 0.0
C1734 C 0.6602 0.76093 0.46556 0.0
C1735 C 0.67106 0.77487 0.46658 0.0
C1736 C 0.6709 0.78369 0.47875 0.0
C1737 C 0.6602 0.75182 0.45212 0.0
C1738 C 0.67222 0.75078 0.44975 0.0
C1739 C 0.64855 0.74429 0.44161 0.0
C1740 C 0.63587 0.7456 0.44272 0.0
C1741 C 0.63688 0.75875 0.44143 0.0
C1742 C 0.62489 0.75992 0.44259 0.0
C1743 C 0.61182 0.748 0.4449 0.0
C1744 C 0.6107 0.73488 0.446 0.0
C1745 C 0.62266 0.73365 0.44488 0.0
H1746 H 0.60255 0.74892 0.44579 0.0
H1747 H 0.71981 0.7399 0.42908 0.0
H1748 H 0.2984 0.96593 0.40343 0.0
H1749 H 0.28506 0.94949 0.42531 0.0
H1750 H 0.27664 0.91503 0.39336 0.0
H1751 H 0.28991 0.9315 0.37126 0.0
H1752 H 0.25314 0.91133 0.40826 0.0
H1753 H 0.2994 0.92369 0.42543 0.0
H1754 H 0.32406 0.93973 0.43265 0.0
H1755 H 0.3113 0.9566 0.47214 0.0
H1756 H 0.28655 0.94079 0.46502 0.0
H1757 H 0.22115 0.85958 0.46947 0.0
H1758 H 0.23721 0.87491 0.44843 0.0
H1759 H 0.24838 0.91064 0.47937 0.0
H1760 H 0.23281 0.89526 0.50091 0.0
H1761 H 0.27099 0.91311 0.46473 0.0
H1762 H 0.22518 0.90207 0.44708 0.0
H1763 H 0.20038 0.88668 0.43988 0.0
H1764 H 0.21215 0.8681 0.40133 0.0
H1765 H 0.23703 0.88326 0.40845 0.0
C1766 C 0.29385 0.95485 0.4011 0.0
C1767 C 0.29522 0.95 0.38562 0.0
C1768 C 0.28627 0.94547 0.41365 0.0
C1769 C 0.27995 0.93103 0.41103 0.0
C1770 C 0.28146 0.92614 0.39566 0.0
C1771 C 0.28908 0.93554 0.38307 0.0
C1772 C 0.27117 0.92109 0.42409 0.0
C1773 C 0.25711 0.91154 0.42053 0.0
C1774 C 0.27624 0.92166 0.44023 0.0
C1775 C 0.29111 0.93113 0.4446 0.0
C1776 C 0.30185 0.93089 0.43558 0.0
C1777 C 0.31584 0.93993 0.43967 0.0
C1778 C 0.31924 0.9492 0.45282 0.0
C1779 C 0.30865 0.94943 0.46195 0.0
C1780 C 0.29463 0.94041 0.4579 0.0
C1781 C 0.22718 0.87067 0.47197 0.0
C1782 C 0.22565 0.87616 0.48694 0.0
C1783 C 0.23625 0.87945 0.4598 0.0
C1784 C 0.24384 0.89396 0.46218 0.0
C1785 C 0.24257 0.89948 0.47721 0.0
C1786 C 0.23356 0.89068 0.48946 0.0
C1787 C 0.25296 0.90337 0.44891 0.0
C1788 C 0.26705 0.91283 0.45243 0.0
C1789 C 0.24791 0.9028 0.43274 0.0
C1790 C 0.23296 0.8937 0.42841 0.0
C1791 C 0.22248 0.89463 0.43715 0.0
C1792 C 0.20841 0.88596 0.43307 0.0
C1793 C 0.20469 0.87639 0.42019 0.0
C1794 C 0.21504 0.8755 0.41132 0.0
C1795 C 0.22913 0.88413 0.41537 0.0
H1796 H 0.19379 0.86969 0.41705 0.0
H1797 H 0.33009 0.95619 0.45597 0.0
H1798 H 0.03836 0.31939 0.39261 0.0
H1799 H 0.05325 0.32263 0.4163 0.0
H1800 H 0.06883 0.36698 0.41501 0.0
H1801 H 0.05381 0.36378 0.39121 0.0
H1802 H 0.0899 0.36001 0.41713 0.0
H1803 H 0.04764 0.34894 0.44512 0.0
H1804 H 0.02236 0.33547 0.45088 0.0
H1805 H 0.02556 0.29929 0.46217 0.0
H1806 H 0.05084 0.31248 0.45624 0.0
H1807 H 0.12946 0.36777 0.4893 0.0
H1808 H 0.11284 0.36915 0.47065 0.0
H1809 H 0.08878 0.32418 0.46853 0.0
H1810 H 0.10496 0.32272 0.48772 0.0
H1811 H 0.07183 0.33449 0.46978 0.0
H1812 H 0.11264 0.34392 0.43825 0.0
H1813 H 0.13776 0.3564 0.43142 0.0
H1814 H 0.1371 0.39464 0.42584 0.0
H1815 H 0.11199 0.3824 0.43285 0.0
C1816 C 0.04487 0.32983 0.39743 0.0
C1817 C 0.04493 0.34134 0.39007 0.0
C1818 C 0.05333 0.33165 0.41102 0.0
C1819 C 0.06205 0.34502 0.4175 0.0
C1820 C 0.06212 0.35656 0.41022 0.0
C1821 C 0.05352 0.35472 0.39668 0.0
C1822 C 0.0715 0.34685 0.4314 0.0
C1823 C 0.08597 0.3547 0.4288 0.0
C1824 C 0.06633 0.33965 0.44645 0.0
C1825 C 0.05114 0.33169 0.45013 0.0
C1826 C 0.04294 0.33808 0.44871 0.0
C1827 C 0.02861 0.3305 0.45203 0.0
C1828 C 0.02235 0.31653 0.45686 0.0
C1829 C 0.03042 0.31012 0.45842 0.0
C1830 C 0.04476 0.31765 0.45511 0.0
C1831 C 0.12049 0.35817 0.48511 0.0
C1832 C 0.11863 0.34513 0.4899 0.0
C1833 C 0.11107 0.35898 0.47431 0.0
C1834 C 0.09968 0.34677 0.46796 0.0
C1835 C 0.09752 0.33375 0.47319 0.0
C1836 C 0.10687 0.33293 0.48404 0.0
C1837 C 0.09026 0.34743 0.45541 0.0
C1838 C 0.07578 0.34002 0.45824 0.0
C1839 C 0.09542 0.35492 0.4405 0.0
C1840 C 0.11049 0.36228 0.43627 0.0
C1841 C 0.11788 0.35501 0.4357 0.0
C1842 C 0.13211 0.36204 0.43177 0.0
C1843 C 0.13903 0.37632 0.42825 0.0
C1844 C 0.13173 0.38359 0.42861 0.0
C1845 C 0.1175 0.37661 0.43255 0.0
H1846 H 0.15004 0.38174 0.42521 0.0
H1847 H 0.01126 0.31068 0.45941 0.0
H1848 H 0.06134 0.33743 0.32079 0.0
H1849 H 0.07422 0.33602 0.29724 0.0
H1850 H 0.03644 0.31723 0.26828 0.0
H1851 H 0.02333 0.31834 0.29209 0.0
H1852 H 0.05192 0.30494 0.2622 0.0
H1853 H 0.06009 0.3514 0.26334 0.0
H1854 H 0.06619 0.37412 0.27563 0.0
H1855 H 0.10731 0.38161 0.28696 0.0
H1856 H 0.1014 0.35883 0.27495 0.0
H1857 H 0.09425 0.31962 0.18872 0.0
H1858 H 0.07728 0.31864 0.20889 0.0
H1859 H 0.10925 0.33461 0.24626 0.0
H1860 H 0.1261 0.33528 0.22645 0.0
H1861 H 0.09448 0.34861 0.24512 0.0
H1862 H 0.08503 0.30084 0.24574 0.0
H1863 H 0.07857 0.27814 0.23312 0.0
H1864 H 0.03936 0.27346 0.21745 0.0
H1865 H 0.04568 0.29625 0.22979 0.0
C1866 C 0.05573 0.33291 0.30945 0.0
C1867 C 0.04135 0.3281 0.30823 0.0
C1868 C 0.06312 0.33217 0.29597 0.0
C1869 C 0.05636 0.32679 0.28089 0.0
C1870 C 0.04188 0.3215 0.27977 0.0
C1871 C 0.03442 0.32215 0.29336 0.0
C1872 C 0.06461 0.32708 0.26632 0.0
C1873 C 0.06108 0.31452 0.25826 0.0
C1874 C 0.0766 0.33958 0.26122 0.0
C1875 C 0.08026 0.35336 0.26834 0.0
C1876 C 0.07041 0.35785 0.26855 0.0
C1877 C 0.07384 0.37074 0.27545 0.0
C1878 C 0.08712 0.37929 0.2821 0.0
C1879 C 0.09702 0.37497 0.28181 0.0
C1880 C 0.09364 0.36208 0.27494 0.0
C1881 C 0.09762 0.32277 0.20128 0.0
C1882 C 0.11159 0.32764 0.20591 0.0
C1883 C 0.08792 0.32225 0.21276 0.0
C1884 C 0.09202 0.32657 0.22905 0.0
C1885 C 0.1059 0.33134 0.23371 0.0
C1886 C 0.11555 0.33179 0.22232 0.0
C1887 C 0.08204 0.32642 0.24135 0.0
C1888 C 0.08522 0.33905 0.24894 0.0
C1889 C 0.0697 0.31402 0.24588 0.0
C1890 C 0.0659 0.30032 0.23851 0.0
C1891 C 0.07508 0.29503 0.23947 0.0
C1892 C 0.07144 0.28214 0.2324 0.0
C1893 C 0.05858 0.27438 0.22444 0.0
C1894 C 0.04933 0.27949 0.22359 0.0
C1895 C 0.05293 0.29239 0.23063 0.0
H1896 H 0.05578 0.2644 0.21898 0.0
H1897 H 0.08976 0.38927 0.28744 0.0
H1898 H 0.65273 0.70882 0.30675 0.0
H1899 H 0.65546 0.72347 0.28305 0.0
H1900 H 0.69886 0.73503 0.27917 0.0
H1901 H 0.69622 0.7204 0.30316 0.0
H1902 H 0.6954 0.75754 0.27642 0.0
H1903 H 0.67554 0.71259 0.2518 0.0
H1904 H 0.65882 0.6874 0.24885 0.0
H1905 H 0.62526 0.69588 0.24222 0.0
H1906 H 0.64174 0.72111 0.2454 0.0
H1907 H 0.7013 0.7921 0.20021 0.0
H1908 H 0.70138 0.77564 0.22025 0.0
H1909 H 0.65792 0.76061 0.23092 0.0
H1910 H 0.65778 0.77714 0.21113 0.0
H1911 H 0.66346 0.73923 0.22841 0.0
H1912 H 0.68303 0.78378 0.25605 0.0
H1913 H 0.69965 0.80893 0.25956 0.0
H1914 H 0.73387 0.80099 0.26053 0.0
H1915 H 0.71745 0.77579 0.25679 0.0
C1916 C 0.66286 0.71443 0.30084 0.0
C1917 C 0.67426 0.71344 0.30679 0.0
C1918 C 0.66438 0.72275 0.28723 0.0
C1919 C 0.67732 0.7302 0.27919 0.0
C1920 C 0.68877 0.72932 0.28515 0.0
C1921 C 0.68724 0.72095 0.29882 0.0
C1922 C 0.67883 0.73917 0.26486 0.0
C1923 C 0.68862 0.75349 0.26575 0.0
C1924 C 0.66982 0.73392 0.25108 0.0
C1925 C 0.65987 0.71875 0.24896 0.0
C1926 C 0.66458 0.70908 0.24982 0.0
C1927 C 0.65515 0.69479 0.24809 0.0
C1928 C 0.64099 0.69004 0.24537 0.0
C1929 C 0.63623 0.69957 0.24433 0.0
C1930 C 0.64562 0.71387 0.24608 0.0
C1931 C 0.69176 0.78532 0.20686 0.0
C1932 C 0.67955 0.78601 0.20411 0.0
C1933 C 0.69182 0.77589 0.21826 0.0
C1934 C 0.67969 0.76699 0.22718 0.0
C1935 C 0.66739 0.76735 0.22413 0.0
C1936 C 0.66732 0.77679 0.21276 0.0
C1937 C 0.67986 0.75761 0.24012 0.0
C1938 C 0.67038 0.74323 0.23897 0.0
C1939 C 0.68916 0.7628 0.25365 0.0
C1940 C 0.69903 0.77793 0.25595 0.0
C1941 C 0.69411 0.78741 0.25688 0.0
C1942 C 0.70349 0.80167 0.25893 0.0
C1943 C 0.71781 0.80656 0.26021 0.0
C1944 C 0.72277 0.79719 0.2595 0.0
C1945 C 0.71344 0.78292 0.25742 0.0
H1946 H 0.72505 0.8176 0.2618 0.0
H1947 H 0.6337 0.67898 0.24405 0.0
H1948 H 0.2663 0.95768 0.32201 0.0
H1949 H 0.24952 0.94478 0.30002 0.0
H1950 H 0.28312 0.94866 0.26935 0.0
H1951 H 0.29989 0.96157 0.29113 0.0
H1952 H 0.26454 0.95303 0.25192 0.0
H1953 H 0.26319 0.91906 0.29035 0.0
H1954 H 0.26026 0.90831 0.31771 0.0
H1955 H 0.21836 0.90106 0.32047 0.0
H1956 H 0.22111 0.91196 0.2932 0.0
H1957 H 0.22875 0.89885 0.19375 0.0
H1958 H 0.24406 0.91447 0.21519 0.0
H1959 H 0.2081 0.90527 0.24489 0.0
H1960 H 0.19277 0.88904 0.22397 0.0
H1961 H 0.22694 0.90447 0.26321 0.0
H1962 H 0.22755 0.93702 0.22401 0.0
H1963 H 0.23039 0.94782 0.1967 0.0
H1964 H 0.27329 0.95797 0.19533 0.0
H1965 H 0.27066 0.94705 0.22255 0.0
C1966 C 0.2701 0.95589 0.31052 0.0
C1967 C 0.28438 0.96056 0.30832 0.0
C1968 C 0.26051 0.94849 0.29799 0.0
C1969 C 0.26507 0.94565 0.28311 0.0
C1970 C 0.27938 0.95074 0.28072 0.0
C1971 C 0.28894 0.95807 0.29322 0.0
C1972 C 0.25495 0.93688 0.27023 0.0
C1973 C 0.25637 0.94238 0.25433 0.0
C1974 C 0.2441 0.9231 0.27349 0.0
C1975 C 0.24241 0.91647 0.28983 0.0
C1976 C 0.25339 0.91528 0.29685 0.0
C1977 C 0.25176 0.90914 0.31233 0.0
C1978 C 0.23915 0.90404 0.32085 0.0
C1979 C 0.22813 0.90504 0.31387 0.0
C1980 C 0.22972 0.91119 0.29841 0.0
C1981 C 0.22408 0.90007 0.20488 0.0
C1982 C 0.20949 0.89268 0.20706 0.0
C1983 C 0.23286 0.90916 0.21706 0.0
C1984 C 0.22724 0.91122 0.23159 0.0
C1985 C 0.21269 0.90392 0.23377 0.0
C1986 C 0.20392 0.89474 0.22167 0.0
C1987 C 0.23653 0.92057 0.24478 0.0
C1988 C 0.23499 0.91517 0.26077 0.0
C1989 C 0.24722 0.93447 0.2416 0.0
C1990 C 0.24887 0.94111 0.22526 0.0
C1991 C 0.23756 0.94147 0.21784 0.0
C1992 C 0.23914 0.94762 0.20238 0.0
C1993 C 0.252 0.95355 0.19427 0.0
C1994 C 0.26333 0.95336 0.20162 0.0
C1995 C 0.2618 0.94721 0.21707 0.0
H1996 H 0.2532 0.95831 0.1823 0.0
H1997 H 0.2379 0.89929 0.33283 0.0
H1998 H 0.66774 0.96954 0.28802 0.0
H1999 H 0.6713 0.95734 0.26514 0.0
H2000 H 0.6923 0.943 0.29768 0.0
H2001 H 0.689 0.95542 0.32061 0.0
H2002 H 0.70486 0.94996 0.26783 0.0
H2003 H 0.65799 0.92209 0.28843 0.0
H2004 H 0.63455 0.91744 0.29655 0.0
H2005 H 0.62707 0.92622 0.24734 0.0
H2006 H 0.65057 0.93112 0.23898 0.0
H2007 H 0.69439 0.8897 0.22463 0.0
H2008 H 0.69486 0.90645 0.24449 0.0
H2009 H 0.67428 0.91942 0.20951 0.0
H2010 H 0.67393 0.90277 0.18942 0.0
H2011 H 0.66201 0.91429 0.2394 0.0
H2012 H 0.70859 0.94058 0.21843 0.0
H2013 H 0.73196 0.94486 0.21061 0.0
H2014 H 0.73995 0.9386 0.26067 0.0
H2015 H 0.71654 0.93408 0.26876 0.0
C2016 C 0.67329 0.96395 0.29027 0.0
C2017 C 0.678 0.96334 0.30614 0.0
C2018 C 0.67526 0.95693 0.27719 0.0
C2019 C 0.68183 0.94904 0.27976 0.0
C2020 C 0.68716 0.94899 0.29543 0.0
C2021 C 0.68525 0.95607 0.30852 0.0
C2022 C 0.68246 0.94025 0.26637 0.0
C2023 C 0.69549 0.94207 0.26171 0.0
C2024 C 0.67025 0.93014 0.25816 0.0
C2025 C 0.65609 0.92711 0.26313 0.0
C2026 C 0.65139 0.92313 0.27937 0.0
C2027 C 0.63809 0.92043 0.28401 0.0
C2028 C 0.62934 0.92157 0.27248 0.0
C2029 C 0.63387 0.92537 0.25627 0.0
C2030 C 0.64717 0.92809 0.25157 0.0
C2031 C 0.69019 0.89629 0.22101 0.0
C2032 C 0.68416 0.89491 0.20538 0.0
C2033 C 0.69045 0.90585 0.23241 0.0
C2034 C 0.68473 0.91429 0.22843 0.0
C2035 C 0.67876 0.91301 0.21283 0.0
C2036 C 0.67852 0.90345 0.20139 0.0
C2037 C 0.68442 0.92396 0.24086 0.0
C2038 C 0.67142 0.92226 0.2454 0.0
C2039 C 0.69665 0.93412 0.24898 0.0
C2040 C 0.71076 0.93687 0.24418 0.0
C2041 C 0.71529 0.94001 0.22775 0.0
C2042 C 0.72855 0.94249 0.22328 0.0
C2043 C 0.73742 0.94197 0.23513 0.0
C2044 C 0.73306 0.93899 0.2515 0.0
C2045 C 0.7198 0.93648 0.25604 0.0
H2046 H 0.74769 0.9439 0.23164 0.0
H2047 H 0.61905 0.91948 0.2761 0.0
H2048 H 0.02492 0.69864 0.28758 0.0
H2049 H 0.03662 0.71366 0.26387 0.0
H2050 H 0.06012 0.74853 0.29647 0.0
H2051 H 0.04819 0.73367 0.32014 0.0
H2052 H 0.05239 0.75681 0.26982 0.0
H2053 H 0.07365 0.72837 0.28051 0.0
H2054 H 0.07332 0.70606 0.28393 0.0
H2055 H 0.05715 0.69387 0.23498 0.0
H2056 H 0.05723 0.71604 0.23134 0.0
H2057 H 0.11222 0.80225 0.22444 0.0
H2058 H 0.09532 0.78594 0.2442 0.0
H2059 H 0.07689 0.75459 0.20625 0.0
H2060 H 0.09411 0.77087 0.18645 0.0
H2061 H 0.07948 0.74325 0.23314 0.0
H2062 H 0.06052 0.77261 0.22116 0.0
H2063 H 0.06076 0.79483 0.21747 0.0
H2064 H 0.07206 0.80517 0.26818 0.0
H2065 H 0.07208 0.78309 0.27213 0.0
C2066 C 0.03245 0.70955 0.28966 0.0
C2067 C 0.03571 0.71497 0.30572 0.0
C2068 C 0.03918 0.71811 0.27611 0.0
C2069 C 0.04945 0.73217 0.2784 0.0
C2070 C 0.05227 0.73771 0.29439 0.0
C2071 C 0.04545 0.7292 0.30792 0.0
C2072 C 0.05772 0.74103 0.26431 0.0
C2073 C 0.05839 0.7539 0.26186 0.0
C2074 C 0.06521 0.73704 0.25358 0.0
C2075 C 0.06531 0.72379 0.25572 0.0
C2076 C 0.06995 0.72089 0.27051 0.0
C2077 C 0.06981 0.70828 0.27249 0.0
C2078 C 0.06518 0.69854 0.2597 0.0
C2079 C 0.06071 0.70141 0.24488 0.0
C2080 C 0.06081 0.714 0.24286 0.0
C2081 C 0.10447 0.79193 0.22026 0.0
C2082 C 0.10441 0.78786 0.20387 0.0
C2083 C 0.09478 0.78262 0.23156 0.0
C2084 C 0.08461 0.76911 0.22667 0.0
C2085 C 0.08458 0.76498 0.21031 0.0
C2086 C 0.09441 0.77426 0.19902 0.0
C2087 C 0.0744 0.7592 0.23884 0.0
C2088 C 0.07335 0.74613 0.24093 0.0
C2089 C 0.06651 0.76298 0.24919 0.0
C2090 C 0.06639 0.77622 0.24691 0.0
C2091 C 0.06314 0.77965 0.2315 0.0
C2092 C 0.06322 0.79222 0.22937 0.0
C2093 C 0.06645 0.80142 0.24258 0.0
C2094 C 0.06957 0.79804 0.25796 0.0
C2095 C 0.06951 0.78549 0.26016 0.0
H2096 H 0.06651 0.81115 0.2409 0.0
H2097 H 0.06507 0.68878 0.26125 0.0
H2098 H 0.29127 0.31255 0.29416 0.0
H2099 H 0.2754 0.30924 0.27119 0.0
H2100 H 0.26453 0.33759 0.29425 0.0
H2101 H 0.28047 0.34114 0.31694 0.0
H2102 H 0.24117 0.31153 0.28268 0.0
H2103 H 0.28637 0.34967 0.26477 0.0
H2104 H 0.31139 0.36008 0.25805 0.0
H2105 H 0.30151 0.32844 0.22155 0.0
H2106 H 0.27643 0.31772 0.22824 0.0
H2107 H 0.20966 0.33401 0.22607 0.0
H2108 H 0.22478 0.33196 0.24615 0.0
H2109 H 0.23732 0.31187 0.20998 0.0
H2110 H 0.22277 0.31468 0.18935 0.0
H2111 H 0.25923 0.32972 0.22681 0.0
H2112 H 0.2142 0.29304 0.24152 0.0
H2113 H 0.18906 0.2816 0.24799 0.0
H2114 H 0.19796 0.30822 0.29005 0.0
H2115 H 0.22315 0.31996 0.28371 0.0
C2116 C 0.28546 0.31804 0.2943 0.0
C2117 C 0.28711 0.32713 0.30728 0.0
C2118 C 0.27645 0.31616 0.2812 0.0
C2119 C 0.26883 0.32318 0.28107 0.0
C2120 C 0.27031 0.33206 0.29416 0.0
C2121 C 0.27946 0.33412 0.30707 0.0
C2122 C 0.25941 0.32155 0.26726 0.0
C2123 C 0.24508 0.31554 0.27046 0.0
C2124 C 0.2645 0.32631 0.25121 0.0
C2125 C 0.27956 0.3328 0.24715 0.0
C2126 C 0.28955 0.34486 0.25543 0.0
C2127 C 0.30373 0.35083 0.2516 0.0
C2128 C 0.30804 0.3449 0.23942 0.0
C2129 C 0.29816 0.333 0.23101 0.0
C2130 C 0.28396 0.32698 0.2348 0.0
C2131 C 0.21576 0.32934 0.22223 0.0
C2132 C 0.21501 0.32458 0.206 0.0
C2133 C 0.22426 0.32796 0.23385 0.0
C2134 C 0.23199 0.3215 0.22971 0.0
C2135 C 0.23137 0.31679 0.21351 0.0
C2136 C 0.22295 0.31831 0.20177 0.0
C2137 C 0.24093 0.32004 0.2423 0.0
C2138 C 0.25519 0.32545 0.2389 0.0
C2139 C 0.23573 0.31452 0.25814 0.0
C2140 C 0.22058 0.30745 0.26207 0.0
C2141 C 0.2108 0.29652 0.25209 0.0
C2142 C 0.19653 0.28997 0.25574 0.0
C2143 C 0.19192 0.2942 0.2694 0.0
C2144 C 0.20156 0.30496 0.27946 0.0
C2145 C 0.21583 0.31155 0.27586 0.0
H2146 H 0.18087 0.28911 0.27221 0.0
H2147 H 0.31903 0.34954 0.23647 0.0
H2148 H 0.27749 0.33764 0.37428 0.0
H2149 H 0.26631 0.34185 0.39769 0.0
H2150 H 0.30344 0.35492 0.42682 0.0
H2151 H 0.31483 0.35079 0.4032 0.0
H2152 H 0.27822 0.33542 0.44277 0.0
H2153 H 0.297 0.37915 0.4153 0.0
H2154 H 0.30225 0.39498 0.39167 0.0
H2155 H 0.25838 0.37861 0.38362 0.0
H2156 H 0.25285 0.36252 0.40705 0.0
H2157 H 0.24309 0.35177 0.50582 0.0
H2158 H 0.26121 0.35421 0.48648 0.0
H2159 H 0.23265 0.34523 0.44605 0.0
H2160 H 0.21476 0.34326 0.46514 0.0
H2161 H 0.25785 0.3663 0.43846 0.0
H2162 H 0.23911 0.32029 0.46251 0.0
H2163 H 0.23327 0.30359 0.48535 0.0
H2164 H 0.27654 0.32362 0.49919 0.0
H2165 H 0.28261 0.34056 0.47655 0.0
C2166 C 0.28333 0.34149 0.38562 0.0
C2167 C 0.29704 0.34391 0.38691 0.0
C2168 C 0.27694 0.34394 0.39897 0.0
C2169 C 0.28409 0.34881 0.41393 0.0
C2170 C 0.29778 0.35122 0.41534 0.0
C2171 C 0.30427 0.34891 0.40185 0.0
C2172 C 0.27688 0.3509 0.4281 0.0
C2173 C 0.27404 0.34242 0.44204 0.0
C2174 C 0.27125 0.35986 0.42697 0.0
C2175 C 0.27451 0.36957 0.4129 0.0
C2176 C 0.28847 0.37885 0.40842 0.0
C2177 C 0.2915 0.38788 0.39507 0.0
C2178 C 0.28066 0.38779 0.38613 0.0
C2179 C 0.26677 0.37867 0.39055 0.0
C2180 C 0.26368 0.36961 0.40389 0.0
C2181 C 0.24074 0.35046 0.49279 0.0
C2182 C 0.22744 0.34719 0.48704 0.0
C2183 C 0.25107 0.35175 0.48177 0.0
C2184 C 0.24825 0.34976 0.46482 0.0
C2185 C 0.23507 0.34678 0.45907 0.0
C2186 C 0.2248 0.34551 0.47003 0.0
C2187 C 0.2588 0.3505 0.45293 0.0
C2188 C 0.26227 0.35952 0.43939 0.0
C2189 C 0.26493 0.34197 0.45439 0.0
C2190 C 0.26129 0.3318 0.46798 0.0
C2191 C 0.24736 0.32121 0.47052 0.0
C2192 C 0.24401 0.31169 0.48341 0.0
C2193 C 0.25452 0.31258 0.49375 0.0
C2194 C 0.2684 0.32297 0.4912 0.0
C2195 C 0.27181 0.33253 0.47834 0.0
H2196 H 0.2519 0.30519 0.50372 0.0
H2197 H 0.28302 0.39479 0.3758 0.0
H2198 H 0.64925 0.95973 0.40162 0.0
H2199 H 0.6459 0.94412 0.42471 0.0
H2200 H 0.65119 0.91647 0.39197 0.0
H2201 H 0.65471 0.93211 0.36886 0.0
H2202 H 0.6288 0.9027 0.41548 0.0
H2203 H 0.67795 0.93811 0.41302 0.0
H2204 H 0.69753 0.9624 0.41248 0.0
H2205 H 0.68468 0.97014 0.45928 0.0
H2206 H 0.6649 0.94593 0.45997 0.0
H2207 H 0.64532 0.86265 0.46823 0.0
H2208 H 0.64421 0.87754 0.44685 0.0
H2209 H 0.64975 0.90806 0.48361 0.0
H2210 H 0.65152 0.89336 0.50497 0.0
H2211 H 0.66507 0.92096 0.45911 0.0
H2212 H 0.61716 0.8858 0.46344 0.0
H2213 H 0.59685 0.86194 0.46453 0.0
H2214 H 0.60579 0.85409 0.41557 0.0
H2215 H 0.62627 0.87784 0.41426 0.0
C2216 C 0.64951 0.95023 0.39931 0.0
C2217 C 0.6523 0.94716 0.38346 0.0
C2218 C 0.64764 0.94136 0.41251 0.0
C2219 C 0.6484 0.92921 0.41004 0.0
C2220 C 0.65056 0.9258 0.39411 0.0
C2221 C 0.65261 0.93475 0.38094 0.0
C2222 C 0.64774 0.92046 0.42418 0.0
C2223 C 0.63676 0.90661 0.42499 0.0
C2224 C 0.6579 0.92576 0.4368 0.0
C2225 C 0.66986 0.94027 0.43646 0.0
C2226 C 0.67924 0.94503 0.42313 0.0
C2227 C 0.69038 0.95877 0.42281 0.0
C2228 C 0.69232 0.96782 0.43581 0.0
C2229 C 0.68315 0.96313 0.4492 0.0
C2230 C 0.67198 0.94939 0.44956 0.0
C2231 C 0.64615 0.87248 0.47174 0.0
C2232 C 0.6484 0.87683 0.48823 0.0
C2233 C 0.64545 0.88097 0.45953 0.0
C2234 C 0.64659 0.89384 0.4636 0.0
C2235 C 0.64878 0.89817 0.48013 0.0
C2236 C 0.64977 0.88978 0.49233 0.0
C2237 C 0.64613 0.903 0.45049 0.0
C2238 C 0.65695 0.91699 0.44979 0.0
C2239 C 0.63568 0.89786 0.43811 0.0
C2240 C 0.62332 0.88357 0.43881 0.0
C2241 C 0.61485 0.87895 0.45294 0.0
C2242 C 0.6033 0.86545 0.45359 0.0
C2243 C 0.60004 0.85649 0.44014 0.0
C2244 C 0.60832 0.86103 0.42598 0.0
C2245 C 0.6199 0.87452 0.42528 0.0
H2246 H 0.5911 0.84604 0.44067 0.0
H2247 H 0.70096 0.97846 0.43554 0.0
H2248 H 0.04129 0.6889 0.40049 0.0
H2249 H 0.05646 0.701 0.42405 0.0
H2250 H 0.07945 0.73807 0.39453 0.0
H2251 H 0.06429 0.72613 0.37104 0.0
H2252 H 0.09651 0.73124 0.41406 0.0
H2253 H 0.05532 0.73617 0.41942 0.0
H2254 H 0.02994 0.72693 0.4218 0.0
H2255 H 0.02865 0.7045 0.46548 0.0
H2256 H 0.05401 0.71345 0.46322 0.0
H2257 H 0.1331 0.7863 0.46893 0.0
H2258 H 0.11768 0.77046 0.44768 0.0
H2259 H 0.09237 0.7408 0.48513 0.0
H2260 H 0.10748 0.75715 0.5065 0.0
H2261 H 0.07602 0.74098 0.46309 0.0
H2262 H 0.11667 0.73679 0.46009 0.0
H2263 H 0.14182 0.74473 0.45834 0.0
H2264 H 0.1441 0.76356 0.4114 0.0
H2265 H 0.11899 0.75589 0.41297 0.0
C2266 C 0.04968 0.69958 0.39899 0.0
C2267 C 0.0516 0.70659 0.38395 0.0
C2268 C 0.05829 0.70648 0.41246 0.0
C2269 C 0.069 0.72045 0.41104 0.0
C2270 C 0.07124 0.72729 0.39587 0.0
C2271 C 0.06256 0.72046 0.38247 0.0
C2272 C 0.07762 0.7282 0.42544 0.0
C2273 C 0.09208 0.73346 0.42476 0.0
C2274 C 0.07173 0.73062 0.43963 0.0
C2275 C 0.05652 0.72535 0.44104 0.0
C2276 C 0.0496 0.72917 0.42945 0.0
C2277 C 0.03522 0.72401 0.43079 0.0
C2278 C 0.02768 0.7151 0.44375 0.0
C2279 C 0.0345 0.71138 0.45543 0.0
C2280 C 0.04888 0.7165 0.45413 0.0
C2281 C 0.12422 0.77639 0.47257 0.0
C2282 C 0.12147 0.77283 0.48924 0.0
C2283 C 0.11547 0.76729 0.46044 0.0
C2284 C 0.10405 0.75422 0.46472 0.0
C2285 C 0.10116 0.75076 0.48148 0.0
C2286 C 0.10977 0.76005 0.49367 0.0
C2287 C 0.09507 0.74436 0.45165 0.0
C2288 C 0.08052 0.73865 0.45255 0.0
C2289 C 0.10086 0.7413 0.43778 0.0
C2290 C 0.11595 0.74584 0.43671 0.0
C2291 C 0.12255 0.74269 0.44944 0.0
C2292 C 0.1368 0.74714 0.44847 0.0
C2293 C 0.14456 0.75467 0.43478 0.0
C2294 C 0.13808 0.75773 0.422 0.0
C2295 C 0.12383 0.75332 0.42291 0.0
H2296 H 0.1556 0.7581 0.43406 0.0
H2297 H 0.01655 0.71111 0.44477 0.0
H2298 H 0.35074 0.06077 0.71476 0.0
H2299 H 0.34903 0.07367 0.73818 0.0
H2300 H 0.30682 0.04054 0.74718 0.0
H2301 H 0.30847 0.02751 0.7237 0.0
H2302 H 0.30957 0.06684 0.74857 0.0
H2303 H 0.33165 0.04322 0.77174 0.0
H2304 H 0.34898 0.03549 0.77374 0.0
H2305 H 0.38207 0.07811 0.77754 0.0
H2306 H 0.36494 0.08613 0.77533 0.0
H2307 H 0.30483 0.09415 0.82591 0.0
H2308 H 0.30493 0.07834 0.80494 0.0
H2309 H 0.34802 0.10798 0.79382 0.0
H2310 H 0.34799 0.12383 0.81471 0.0
H2311 H 0.34363 0.08178 0.79452 0.0
H2312 H 0.32156 0.10536 0.76971 0.0
H2313 H 0.30417 0.11303 0.76772 0.0
H2314 H 0.27097 0.0703 0.76691 0.0
H2315 H 0.28817 0.06238 0.76912 0.0
C2316 C 0.34108 0.05623 0.7217 0.0
C2317 C 0.32975 0.04312 0.71742 0.0
C2318 C 0.34014 0.06359 0.73512 0.0
C2319 C 0.32785 0.058 0.74451 0.0
C2320 C 0.31641 0.04501 0.74011 0.0
C2321 C 0.31738 0.03758 0.72673 0.0
C2322 C 0.32698 0.06582 0.75884 0.0
C2323 C 0.31686 0.06991 0.75876 0.0
C2324 C 0.33666 0.07003 0.77197 0.0
C2325 C 0.34702 0.06528 0.77324 0.0
C2326 C 0.34264 0.05096 0.77286 0.0
C2327 C 0.35242 0.04652 0.77406 0.0
C2328 C 0.36661 0.05631 0.77575 0.0
C2329 C 0.37106 0.07055 0.77623 0.0
C2330 C 0.36132 0.07504 0.77502 0.0
C2331 C 0.31432 0.0973 0.81899 0.0
C2332 C 0.32638 0.11028 0.82193 0.0
C2333 C 0.31437 0.08825 0.80703 0.0
C2334 C 0.32643 0.09206 0.79766 0.0
C2335 C 0.3386 0.10482 0.80091 0.0
C2336 C 0.33858 0.11385 0.8129 0.0
C2337 C 0.32632 0.08295 0.78417 0.0
C2338 C 0.33627 0.07863 0.78439 0.0
C2339 C 0.31648 0.07853 0.77117 0.0
C2340 C 0.30614 0.08328 0.76976 0.0
C2341 C 0.31054 0.0976 0.76923 0.0
C2342 C 0.30072 0.10199 0.76805 0.0
C2343 C 0.28647 0.09216 0.76724 0.0
C2344 C 0.28201 0.07791 0.76757 0.0
C2345 C 0.29179 0.07346 0.76878 0.0
H2346 H 0.27889 0.09558 0.76632 0.0
H2347 H 0.37414 0.05284 0.77677 0.0
H2348 H 0.94468 0.29311 0.71952 0.0
H2349 H 0.93281 0.27828 0.74315 0.0
H2350 H 0.96332 0.26489 0.74459 0.0
H2351 H 0.97525 0.27971 0.7207 0.0
H2352 H 0.93677 0.24304 0.74774 0.0
H2353 H 0.96441 0.28744 0.77299 0.0
H2354 H 0.97416 0.31275 0.77669 0.0
H2355 H 0.933 0.30614 0.78562 0.0
H2356 H 0.92297 0.2808 0.78171 0.0
H2357 H 0.90976 0.20825 0.82418 0.0
H2358 H 0.92602 0.22463 0.80384 0.0
H2359 H 0.8984 0.241 0.79582 0.0
H2360 H 0.88197 0.22451 0.81588 0.0
H2361 H 0.92596 0.26179 0.79756 0.0
H2362 H 0.89838 0.21781 0.76952 0.0
H2363 H 0.88859 0.19253 0.76534 0.0
H2364 H 0.93001 0.1986 0.76164 0.0
H2365 H 0.94006 0.22391 0.76604 0.0
C2366 C 0.94891 0.28705 0.72487 0.0
C2367 C 0.96092 0.2876 0.71828 0.0
C2368 C 0.94214 0.27863 0.73844 0.0
C2369 C 0.94728 0.27062 0.74578 0.0
C2370 C 0.95922 0.27104 0.73915 0.0
C2371 C 0.96603 0.27951 0.72555 0.0
C2372 C 0.93989 0.2616 0.7601 0.0
C2373 C 0.93466 0.24718 0.75878 0.0
C2374 C 0.93693 0.26697 0.77439 0.0
C2375 C 0.94292 0.28221 0.77693 0.0
C2376 C 0.95742 0.29138 0.77563 0.0
C2377 C 0.963 0.30574 0.77778 0.0
C2378 C 0.9542 0.31105 0.78136 0.0
C2379 C 0.9398 0.30201 0.78284 0.0
C2380 C 0.93417 0.28764 0.78068 0.0
C2381 C 0.90711 0.2153 0.81806 0.0
C2382 C 0.8945 0.21498 0.82161 0.0
C2383 C 0.91645 0.22469 0.80649 0.0
C2384 C 0.91335 0.23394 0.79822 0.0
C2385 C 0.90101 0.23398 0.8021 0.0
C2386 C 0.89165 0.22456 0.81363 0.0
C2387 C 0.92268 0.24325 0.78507 0.0
C2388 C 0.92826 0.25771 0.78662 0.0
C2389 C 0.92599 0.23792 0.771 0.0
C2390 C 0.91997 0.22272 0.7683 0.0
C2391 C 0.9054 0.21373 0.76796 0.0
C2392 C 0.8998 0.19941 0.76552 0.0
C2393 C 0.90867 0.19396 0.76327 0.0
C2394 C 0.92316 0.20284 0.76341 0.0
C2395 C 0.92881 0.21717 0.76587 0.0
H2396 H 0.90432 0.18286 0.76138 0.0
H2397 H 0.95854 0.32217 0.78301 0.0
H2398 H 0.70039 0.67629 0.7374 0.0
H2399 H 0.71613 0.67861 0.75997 0.0
H2400 H 0.74915 0.68842 0.72505 0.0
H2401 H 0.73356 0.68623 0.70249 0.0
H2402 H 0.74369 0.66629 0.74614 0.0
H2403 H 0.75162 0.71322 0.7496 0.0
H2404 H 0.7445 0.73095 0.75243 0.0
H2405 H 0.72608 0.71397 0.79944 0.0
H2406 H 0.73292 0.696 0.79678 0.0
H2407 H 0.80002 0.68137 0.7975 0.0
H2408 H 0.78487 0.68348 0.77726 0.0
H2409 H 0.75655 0.67995 0.81596 0.0
H2410 H 0.77204 0.67829 0.8364 0.0
H2411 H 0.75847 0.69843 0.79395 0.0
H2412 H 0.74982 0.65176 0.79138 0.0
H2413 H 0.75571 0.63309 0.78922 0.0
H2414 H 0.77349 0.64797 0.7414 0.0
H2415 H 0.76788 0.66687 0.74337 0.0
C2416 C 0.71109 0.67921 0.73457 0.0
C2417 C 0.71574 0.68104 0.71817 0.0
C2418 C 0.72006 0.68055 0.74748 0.0
C2419 C 0.73379 0.68367 0.74416 0.0
C2420 C 0.73859 0.68599 0.72785 0.0
C2421 C 0.72968 0.68479 0.71498 0.0
C2422 C 0.74282 0.6834 0.75748 0.0
C2423 C 0.74709 0.67345 0.75648 0.0
C2424 C 0.74675 0.69235 0.77129 0.0
C2425 C 0.74266 0.70317 0.77291 0.0
C2426 C 0.74594 0.71318 0.76047 0.0
C2427 C 0.74198 0.72329 0.76206 0.0
C2428 C 0.73481 0.72356 0.77608 0.0
C2429 C 0.73162 0.71374 0.78857 0.0
C2430 C 0.73554 0.70359 0.78704 0.0
C2431 C 0.79058 0.68108 0.80168 0.0
C2432 C 0.78709 0.67948 0.81846 0.0
C2433 C 0.78191 0.68225 0.79012 0.0
C2434 C 0.76938 0.68153 0.79502 0.0
C2435 C 0.76612 0.68045 0.81187 0.0
C2436 C 0.77494 0.67949 0.82352 0.0
C2437 C 0.75959 0.68149 0.78244 0.0
C2438 C 0.75508 0.69127 0.78362 0.0
C2439 C 0.75522 0.67221 0.76887 0.0
C2440 C 0.75854 0.66081 0.76759 0.0
C2441 C 0.75507 0.65111 0.78045 0.0
C2442 C 0.75835 0.64048 0.77925 0.0
C2443 C 0.765 0.63937 0.7652 0.0
C2444 C 0.76835 0.64886 0.75229 0.0
C2445 C 0.76511 0.65953 0.75343 0.0
H2446 H 0.76753 0.63113 0.7643 0.0
H2447 H 0.73175 0.7314 0.77729 0.0
H2448 H 0.69347 0.65881 0.62152 0.0
H2449 H 0.70697 0.65605 0.59944 0.0
H2450 H 0.73128 0.64883 0.63548 0.0
H2451 H 0.71786 0.65159 0.65758 0.0
H2452 H 0.74753 0.66922 0.61335 0.0
H2453 H 0.70802 0.62245 0.61177 0.0
H2454 H 0.68302 0.60476 0.60959 0.0
H2455 H 0.68128 0.62026 0.56174 0.0
H2456 H 0.70624 0.63817 0.56374 0.0
H2457 H 0.78769 0.65215 0.5627 0.0
H2458 H 0.77066 0.65054 0.58299 0.0
H2459 H 0.74577 0.65379 0.54423 0.0
H2460 H 0.76269 0.65498 0.52376 0.0
H2461 H 0.72922 0.6357 0.56687 0.0
H2462 H 0.7679 0.68231 0.56781 0.0
H2463 H 0.79269 0.70072 0.56941 0.0
H2464 H 0.79568 0.68678 0.61774 0.0
H2465 H 0.77095 0.66815 0.61634 0.0
C2466 C 0.70154 0.65641 0.62472 0.0
C2467 C 0.70463 0.65544 0.64128 0.0
C2468 C 0.70923 0.65481 0.61209 0.0
C2469 C 0.72011 0.65221 0.61582 0.0
C2470 C 0.72293 0.65084 0.63234 0.0
C2471 C 0.71522 0.65237 0.64495 0.0
C2472 C 0.72924 0.65192 0.60264 0.0
C2473 C 0.74356 0.66175 0.60332 0.0
C2474 C 0.72396 0.64253 0.58921 0.0
C2475 C 0.70896 0.63174 0.58798 0.0
C2476 C 0.70228 0.62216 0.60084 0.0
C2477 C 0.68812 0.61208 0.59963 0.0
C2478 C 0.68056 0.61141 0.58555 0.0
C2479 C 0.68715 0.6208 0.57264 0.0
C2480 C 0.7013 0.63091 0.57381 0.0
C2481 C 0.77855 0.65247 0.55851 0.0
C2482 C 0.77657 0.65387 0.54171 0.0
C2483 C 0.76884 0.65157 0.57011 0.0
C2484 C 0.75709 0.65238 0.56519 0.0
C2485 C 0.75479 0.65322 0.54833 0.0
C2486 C 0.76444 0.65391 0.53666 0.0
C2487 C 0.74757 0.65285 0.57776 0.0
C2488 C 0.7332 0.64315 0.57691 0.0
C2489 C 0.75275 0.66249 0.59097 0.0
C2490 C 0.7676 0.67375 0.59191 0.0
C2491 C 0.77387 0.68311 0.57874 0.0
C2492 C 0.78791 0.69359 0.57961 0.0
C2493 C 0.79576 0.6949 0.59365 0.0
C2494 C 0.78958 0.68575 0.60687 0.0
C2495 C 0.77556 0.67523 0.60605 0.0
H2496 H 0.80663 0.70302 0.5943 0.0
H2497 H 0.6696 0.60359 0.58463 0.0
H2498 H 0.3617 0.05233 0.63349 0.0
H2499 H 0.36445 0.0672 0.60975 0.0
H2500 H 0.32157 0.05717 0.61498 0.0
H2501 H 0.31873 0.04225 0.63845 0.0
H2502 H 0.32776 0.05583 0.58335 0.0
H2503 H 0.34869 0.08822 0.62859 0.0
H2504 H 0.36524 0.09941 0.6515 0.0
H2505 H 0.39979 0.11251 0.61826 0.0
H2506 H 0.38342 0.10123 0.59518 0.0
H2507 H 0.3233 0.10935 0.54224 0.0
H2508 H 0.32388 0.09321 0.56219 0.0
H2509 H 0.36709 0.108 0.55026 0.0
H2510 H 0.36656 0.12417 0.53008 0.0
H2511 H 0.363 0.10635 0.58314 0.0
H2512 H 0.34193 0.07608 0.53732 0.0
H2513 H 0.3253 0.06515 0.51444 0.0
H2514 H 0.29103 0.04805 0.54856 0.0
H2515 H 0.30745 0.05905 0.57164 0.0
C2516 C 0.35288 0.0533 0.62954 0.0
C2517 C 0.34002 0.04616 0.63785 0.0
C2518 C 0.35447 0.06182 0.61601 0.0
C2519 C 0.34323 0.06337 0.61065 0.0
C2520 C 0.33037 0.05611 0.61886 0.0
C2521 C 0.32878 0.04763 0.63233 0.0
C2522 C 0.34475 0.0726 0.59659 0.0
C2523 C 0.33541 0.0669 0.58335 0.0
C2524 C 0.355 0.08695 0.59634 0.0
C2525 C 0.36484 0.09374 0.6102 0.0
C2526 C 0.35982 0.09339 0.62619 0.0
C2527 C 0.36916 0.09977 0.6392 0.0
C2528 C 0.38356 0.10663 0.63635 0.0
C2529 C 0.38864 0.10717 0.62046 0.0
C2530 C 0.37933 0.10079 0.60741 0.0
C2531 C 0.33287 0.10902 0.54362 0.0
C2532 C 0.34486 0.11801 0.53446 0.0
C2533 C 0.3332 0.0998 0.55508 0.0
C2534 C 0.34548 0.09927 0.55759 0.0
C2535 C 0.35749 0.10822 0.54851 0.0
C2536 C 0.35718 0.11748 0.53701 0.0
C2537 C 0.34579 0.08964 0.57008 0.0
C2538 C 0.35548 0.09525 0.58301 0.0
C2539 C 0.33585 0.07519 0.57005 0.0
C2540 C 0.32593 0.06848 0.55621 0.0
C2541 C 0.33084 0.07007 0.53994 0.0
C2542 C 0.32145 0.06385 0.52693 0.0
C2543 C 0.30711 0.05593 0.53004 0.0
C2544 C 0.30214 0.0542 0.54617 0.0
C2545 C 0.31149 0.06041 0.55922 0.0
H2546 H 0.29986 0.05113 0.51995 0.0
H2547 H 0.39078 0.11156 0.64644 0.0
H2548 H 0.94867 0.30711 0.63216 0.0
H2549 H 0.93255 0.29364 0.60993 0.0
H2550 H 0.93982 0.25948 0.61964 0.0
H2551 H 0.95565 0.27274 0.64207 0.0
H2552 H 0.93527 0.283 0.5818 0.0
H2553 H 0.91028 0.22886 0.61361 0.0
H2554 H 0.90502 0.219 0.64165 0.0
H2555 H 0.90353 0.25484 0.65906 0.0
H2556 H 0.90859 0.26482 0.63109 0.0
H2557 H 0.89724 0.22929 0.52342 0.0
H2558 H 0.91315 0.24443 0.54475 0.0
H2559 H 0.87795 0.23728 0.57471 0.0
H2560 H 0.86201 0.22141 0.55402 0.0
H2561 H 0.8957 0.2354 0.59299 0.0
H2562 H 0.89897 0.26878 0.55317 0.0
H2563 H 0.90271 0.27941 0.52562 0.0
H2564 H 0.94472 0.28681 0.52517 0.0
H2565 H 0.94117 0.27606 0.55264 0.0
C2566 C 0.94681 0.29672 0.62955 0.0
C2567 C 0.95331 0.29092 0.63894 0.0
C2568 C 0.93765 0.28907 0.6168 0.0
C2569 C 0.93485 0.27549 0.61324 0.0
C2570 C 0.94163 0.26984 0.62235 0.0
C2571 C 0.9507 0.27744 0.63515 0.0
C2572 C 0.92465 0.26711 0.60022 0.0
C2573 C 0.92661 0.2726 0.58423 0.0
C2574 C 0.91318 0.25365 0.60345 0.0
C2575 C 0.90995 0.24764 0.62028 0.0
C2576 C 0.90877 0.23461 0.62341 0.0
C2577 C 0.90584 0.229 0.63929 0.0
C2578 C 0.90399 0.23631 0.65214 0.0
C2579 C 0.90502 0.24922 0.64911 0.0
C2580 C 0.90793 0.25486 0.63325 0.0
C2581 C 0.89286 0.23084 0.53459 0.0
C2582 C 0.87829 0.2241 0.53693 0.0
C2583 C 0.90199 0.23967 0.54671 0.0
C2584 C 0.89677 0.24216 0.56128 0.0
C2585 C 0.88225 0.23557 0.56356 0.0
C2586 C 0.87313 0.22661 0.55158 0.0
C2587 C 0.90637 0.2512 0.57446 0.0
C2588 C 0.90433 0.24582 0.59051 0.0
C2589 C 0.91753 0.26488 0.57134 0.0
C2590 C 0.91976 0.27151 0.55491 0.0
C2591 C 0.90898 0.2726 0.54716 0.0
C2592 C 0.91107 0.27866 0.53156 0.0
C2593 C 0.92394 0.28375 0.52363 0.0
C2594 C 0.93476 0.28285 0.53132 0.0
C2595 C 0.93272 0.27679 0.54691 0.0
H2596 H 0.92553 0.28843 0.51155 0.0
H2597 H 0.90173 0.23196 0.66443 0.0
H2598 H 0.3569 0.30919 0.62885 0.0
H2599 H 0.35888 0.2965 0.60528 0.0
H2600 H 0.32286 0.25866 0.62243 0.0
H2601 H 0.32063 0.27134 0.64571 0.0
H2602 H 0.36359 0.27568 0.60258 0.0
H2603 H 0.3042 0.23859 0.59074 0.0
H2604 H 0.28214 0.23891 0.59333 0.0
H2605 H 0.30461 0.28361 0.58939 0.0
H2606 H 0.32678 0.28355 0.58654 0.0
H2607 H 0.35204 0.2167 0.55714 0.0
H2608 H 0.35198 0.23312 0.57713 0.0
H2609 H 0.33657 0.24982 0.53993 0.0
H2610 H 0.3364 0.23319 0.5199 0.0
H2611 H 0.32274 0.24629 0.567 0.0
H2612 H 0.37099 0.26811 0.55354 0.0
H2613 H 0.39385 0.26984 0.54899 0.0
H2614 H 0.39518 0.25958 0.59965 0.0
H2615 H 0.37223 0.2576 0.60446 0.0
C2616 C 0.3494 0.29817 0.62756 0.0
C2617 C 0.33856 0.29126 0.63906 0.0
C2618 C 0.35056 0.29093 0.61411 0.0
C2619 C 0.3409 0.27667 0.61194 0.0
C2620 C 0.33025 0.26972 0.62363 0.0
C2621 C 0.32903 0.27696 0.63699 0.0
C2622 C 0.342 0.26898 0.59758 0.0
C2623 C 0.35467 0.26929 0.59477 0.0
C2624 C 0.33048 0.26093 0.58709 0.0
C2625 C 0.31717 0.26106 0.58857 0.0
C2626 C 0.30443 0.24848 0.59034 0.0
C2627 C 0.2919 0.24862 0.59187 0.0
C2628 C 0.29198 0.26128 0.59157 0.0
C2629 C 0.30457 0.27382 0.58968 0.0
C2630 C 0.31712 0.27374 0.58813 0.0
C2631 C 0.3488 0.22399 0.55317 0.0
C2632 C 0.3443 0.22372 0.53693 0.0
C2633 C 0.34878 0.23338 0.5646 0.0
C2634 C 0.34447 0.24286 0.55999 0.0
C2635 C 0.33996 0.24262 0.54377 0.0
C2636 C 0.33985 0.23312 0.53235 0.0
C2637 C 0.34422 0.25267 0.57229 0.0
C2638 C 0.3317 0.25276 0.57472 0.0
C2639 C 0.35599 0.26138 0.58214 0.0
C2640 C 0.36983 0.26261 0.57933 0.0
C2641 C 0.37611 0.26613 0.56369 0.0
C2642 C 0.38909 0.26717 0.56106 0.0
C2643 C 0.39595 0.2648 0.57401 0.0
C2644 C 0.38985 0.26141 0.58962 0.0
C2645 C 0.37686 0.26034 0.59231 0.0
H2646 H 0.406 0.26561 0.57195 0.0
H2647 H 0.28227 0.26136 0.59278 0.0
H2648 H 0.70084 0.06278 0.64488 0.0
H2649 H 0.71444 0.07809 0.62216 0.0
H2650 H 0.73031 0.0505 0.6107 0.0
H2651 H 0.71743 0.03571 0.63403 0.0
H2652 H 0.7503 0.07483 0.60793 0.0
H2653 H 0.70355 0.05263 0.58737 0.0
H2654 H 0.6784 0.04492 0.58731 0.0
H2655 H 0.68801 0.0876 0.58884 0.0
H2656 H 0.71323 0.09557 0.58913 0.0
H2657 H 0.77234 0.10093 0.52585 0.0
H2658 H 0.75749 0.08551 0.54776 0.0
H2659 H 0.75742 0.12023 0.57153 0.0
H2660 H 0.77299 0.13597 0.55038 0.0
H2661 H 0.72939 0.0924 0.56717 0.0
H2662 H 0.77704 0.11344 0.58822 0.0
H2663 H 0.80173 0.11958 0.58619 0.0
H2664 H 0.78914 0.07624 0.58101 0.0
H2665 H 0.76435 0.06987 0.58275 0.0
C2666 C 0.70725 0.06002 0.63748 0.0
C2667 C 0.7081 0.04808 0.64118 0.0
C2668 C 0.71494 0.06871 0.62441 0.0
C2669 C 0.72324 0.06536 0.61443 0.0
C2670 C 0.72403 0.05337 0.61816 0.0
C2671 C 0.71663 0.0449 0.63148 0.0
C2672 C 0.7314 0.07447 0.60038 0.0
C2673 C 0.74559 0.07846 0.59894 0.0
C2674 C 0.72543 0.07943 0.58863 0.0
C2675 C 0.71028 0.07469 0.58844 0.0
C2676 C 0.7003 0.06037 0.58782 0.0
C2677 C 0.68603 0.05596 0.58772 0.0
C2678 C 0.68161 0.06576 0.58811 0.0
C2679 C 0.69145 0.08001 0.58856 0.0
C2680 C 0.70573 0.08449 0.58867 0.0
C2681 C 0.76932 0.10539 0.53578 0.0
C2682 C 0.77402 0.1198 0.53628 0.0
C2683 C 0.76071 0.0965 0.54821 0.0
C2684 C 0.7564 0.10177 0.5612 0.0
C2685 C 0.76059 0.11598 0.5615 0.0
C2686 C 0.76943 0.12494 0.54929 0.0
C2687 C 0.74806 0.09258 0.57491 0.0
C2688 C 0.73393 0.08864 0.57623 0.0
C2689 C 0.75396 0.08738 0.58632 0.0
C2690 C 0.76885 0.0912 0.58542 0.0
C2691 C 0.77953 0.10524 0.58648 0.0
C2692 C 0.79354 0.10875 0.58542 0.0
C2693 C 0.797 0.09831 0.58342 0.0
C2694 C 0.78645 0.08432 0.58253 0.0
C2695 C 0.77242 0.08075 0.58356 0.0
H2696 H 0.80785 0.10105 0.58261 0.0
H2697 H 0.67056 0.06233 0.58804 0.0
H2698 H 0.94091 0.66527 0.65022 0.0
H2699 H 0.92575 0.66051 0.62648 0.0
H2700 H 0.94652 0.64167 0.60135 0.0
H2701 H 0.96184 0.64638 0.62538 0.0
H2702 H 0.94299 0.6614 0.58206 0.0
H2703 H 0.9151 0.62058 0.614 0.0
H2704 H 0.90392 0.60722 0.63921 0.0
H2705 H 0.88017 0.62807 0.64366 0.0
H2706 H 0.89136 0.64171 0.61861 0.0
H2707 H 0.89143 0.64717 0.51949 0.0
H2708 H 0.90634 0.64375 0.53903 0.0
H2709 H 0.88964 0.65683 0.57876 0.0
H2710 H 0.87432 0.65957 0.55958 0.0
H2711 H 0.89138 0.63516 0.58802 0.0
H2712 H 0.92221 0.67885 0.56009 0.0
H2713 H 0.93387 0.6935 0.53581 0.0
H2714 H 0.95228 0.66832 0.52459 0.0
H2715 H 0.94058 0.65342 0.5487 0.0
C2716 C 0.94224 0.66004 0.63971 0.0
C2717 C 0.95255 0.65617 0.63967 0.0
C2718 C 0.93352 0.65728 0.62616 0.0
C2719 C 0.93493 0.65063 0.61222 0.0
C2720 C 0.94525 0.64677 0.61204 0.0
C2721 C 0.95393 0.64941 0.62576 0.0
C2722 C 0.92571 0.64818 0.59785 0.0
C2723 C 0.93169 0.65537 0.58316 0.0
C2724 C 0.911 0.6405 0.59944 0.0
C2725 C 0.90412 0.63221 0.61444 0.0
C2726 C 0.90756 0.62238 0.62041 0.0
C2727 C 0.90121 0.61475 0.63466 0.0
C2728 C 0.89135 0.61681 0.64304 0.0
C2729 C 0.88781 0.62648 0.63715 0.0
C2730 C 0.89413 0.63415 0.62291 0.0
C2731 C 0.89084 0.64917 0.53242 0.0
C2732 C 0.88177 0.6538 0.53791 0.0
C2733 C 0.89945 0.64733 0.54356 0.0
C2734 C 0.89924 0.65018 0.56037 0.0
C2735 C 0.89003 0.65457 0.56587 0.0
C2736 C 0.88139 0.65632 0.55482 0.0
C2737 C 0.90862 0.64885 0.57242 0.0
C2738 C 0.90266 0.64092 0.5867 0.0
C2739 C 0.92334 0.65596 0.5705 0.0
C2740 C 0.93039 0.66493 0.55605 0.0
C2741 C 0.92866 0.67638 0.55236 0.0
C2742 C 0.93529 0.68474 0.53865 0.0
C2743 C 0.94377 0.68181 0.52863 0.0
C2744 C 0.94568 0.67055 0.53234 0.0
C2745 C 0.93906 0.66215 0.54602 0.0
H2746 H 0.9489 0.68829 0.51802 0.0
H2747 H 0.88645 0.61089 0.65408 0.0
H2748 H 0.98117 0.68629 0.73659 0.0
H2749 H 0.96991 0.69051 0.76029 0.0
H2750 H 0.93212 0.67596 0.73198 0.0
H2751 H 0.94318 0.67172 0.70852 0.0
H2752 H 0.93883 0.69977 0.74945 0.0
H2753 H 0.9353 0.6546 0.7585 0.0
H2754 H 0.9451 0.63911 0.76249 0.0
H2755 H 0.9678 0.66288 0.80481 0.0
H2756 H 0.95826 0.67863 0.80092 0.0
H2757 H 0.88015 0.67507 0.7994 0.0
H2758 H 0.89841 0.67793 0.78041 0.0
H2759 H 0.92755 0.68951 0.82069 0.0
H2760 H 0.90904 0.6861 0.84002 0.0
H2761 H 0.9298 0.67162 0.80023 0.0
H2762 H 0.92991 0.71432 0.79389 0.0
H2763 H 0.91984 0.72956 0.78997 0.0
H2764 H 0.90388 0.71097 0.74277 0.0
H2765 H 0.91369 0.69547 0.7465 0.0
C2766 C 0.97051 0.68413 0.73544 0.0
C2767 C 0.96303 0.67863 0.72075 0.0
C2768 C 0.96409 0.6865 0.74896 0.0
C2769 C 0.95016 0.68349 0.7479 0.0
C2770 C 0.94288 0.67839 0.73306 0.0
C2771 C 0.94921 0.67592 0.71968 0.0
C2772 C 0.94275 0.68505 0.76223 0.0
C2773 C 0.93685 0.69363 0.76057 0.0
C2774 C 0.94055 0.67738 0.77694 0.0
C2775 C 0.94622 0.66789 0.7793 0.0
C2776 C 0.94248 0.65659 0.76857 0.0
C2777 C 0.94797 0.64775 0.77083 0.0
C2778 C 0.95711 0.65004 0.78386 0.0
C2779 C 0.96074 0.66114 0.7947 0.0
C2780 C 0.9553 0.67002 0.79248 0.0
C2781 C 0.89039 0.67808 0.80431 0.0
C2782 C 0.89309 0.68029 0.82127 0.0
C2783 C 0.90089 0.6799 0.79338 0.0
C2784 C 0.91443 0.68417 0.79907 0.0
C2785 C 0.9172 0.68631 0.81601 0.0
C2786 C 0.90664 0.68445 0.82701 0.0
C2787 C 0.92545 0.68598 0.78721 0.0
C2788 C 0.93203 0.67804 0.78932 0.0
C2789 C 0.92832 0.69429 0.7729 0.0
C2790 C 0.92249 0.70368 0.77052 0.0
C2791 C 0.92419 0.71342 0.78272 0.0
C2792 C 0.91853 0.72212 0.78052 0.0
C2793 C 0.91121 0.72123 0.76614 0.0
C2794 C 0.90956 0.71166 0.7539 0.0
C2795 C 0.91519 0.70293 0.75604 0.0
H2796 H 0.90683 0.72796 0.76447 0.0
H2797 H 0.96134 0.64319 0.78559 0.0
H2798 H 0.31004 0.28575 0.72746 0.0
H2799 H 0.30837 0.27165 0.75154 0.0
H2800 H 0.34561 0.27153 0.7359 0.0
H2801 H 0.34754 0.28591 0.7122 0.0
H2802 H 0.30474 0.24667 0.75508 0.0
H2803 H 0.3643 0.2712 0.76804 0.0
H2804 H 0.38587 0.29403 0.76524 0.0
H2805 H 0.36194 0.3148 0.76774 0.0
H2806 H 0.34025 0.29211 0.77082 0.0
H2807 H 0.31805 0.20067 0.80035 0.0
H2808 H 0.31803 0.21715 0.78046 0.0
H2809 H 0.33152 0.24863 0.81829 0.0
H2810 H 0.33175 0.23215 0.83827 0.0
H2811 H 0.34561 0.25979 0.7913 0.0
H2812 H 0.29743 0.23158 0.80415 0.0
H2813 H 0.27503 0.20981 0.80847 0.0
H2814 H 0.27466 0.19862 0.75782 0.0
H2815 H 0.29716 0.22024 0.75324 0.0
C2816 C 0.31787 0.28272 0.72921 0.0
C2817 C 0.32897 0.28699 0.71802 0.0
C2818 C 0.3169 0.27466 0.74295 0.0
C2819 C 0.327 0.27072 0.7457 0.0
C2820 C 0.33788 0.27471 0.73429 0.0
C2821 C 0.33893 0.28286 0.72067 0.0
C2822 C 0.32608 0.26223 0.76031 0.0
C2823 C 0.31366 0.24957 0.76304 0.0
C2824 C 0.33759 0.26618 0.77099 0.0
C2825 C 0.35063 0.27992 0.76953 0.0
C2826 C 0.36365 0.28064 0.7681 0.0
C2827 C 0.3759 0.29356 0.76644 0.0
C2828 C 0.37527 0.30585 0.76627 0.0
C2829 C 0.3624 0.30526 0.76782 0.0
C2830 C 0.35013 0.29237 0.76952 0.0
C2831 C 0.32087 0.21105 0.80448 0.0
C2832 C 0.32479 0.21508 0.8209 0.0
C2833 C 0.32085 0.22048 0.7931 0.0
C2834 C 0.32453 0.23407 0.79792 0.0
C2835 C 0.3286 0.23819 0.81429 0.0
C2836 C 0.32874 0.22878 0.82568 0.0
C2837 C 0.32443 0.24402 0.78572 0.0
C2838 C 0.33665 0.25695 0.78344 0.0
C2839 C 0.31262 0.24049 0.77572 0.0
C2840 C 0.29904 0.2275 0.77838 0.0
C2841 C 0.29262 0.22444 0.79395 0.0
C2842 C 0.2799 0.21213 0.79645 0.0
C2843 C 0.27344 0.20283 0.78343 0.0
C2844 C 0.27968 0.20584 0.76789 0.0
C2845 C 0.29241 0.21813 0.76533 0.0
H2846 H 0.26359 0.1933 0.78539 0.0
H2847 H 0.38477 0.31584 0.76495 0.0
H2848 H 0.70696 0.05817 0.72005 0.0
H2849 H 0.72317 0.07116 0.74222 0.0
H2850 H 0.73658 0.0407 0.74402 0.0
H2851 H 0.72016 0.02748 0.72179 0.0
H2852 H 0.73278 0.04858 0.77506 0.0
H2853 H 0.75692 0.07116 0.72551 0.0
H2854 H 0.75983 0.08226 0.69838 0.0
H2855 H 0.75415 0.11437 0.72026 0.0
H2856 H 0.751 0.10334 0.7475 0.0
H2857 H 0.7935 0.09292 0.82316 0.0
H2858 H 0.77729 0.0775 0.80211 0.0
H2859 H 0.76245 0.10642 0.79446 0.0
H2860 H 0.77893 0.12209 0.81502 0.0
H2861 H 0.76796 0.09844 0.76589 0.0
H2862 H 0.74286 0.07547 0.81517 0.0
H2863 H 0.73966 0.06435 0.84233 0.0
H2864 H 0.74704 0.0331 0.82112 0.0
H2865 H 0.75047 0.04416 0.79385 0.0
C2866 C 0.71332 0.05419 0.72517 0.0
C2867 C 0.71236 0.04185 0.71911 0.0
C2868 C 0.72262 0.06165 0.73782 0.0
C2869 C 0.73122 0.057 0.74462 0.0
C2870 C 0.73006 0.04449 0.7389 0.0
C2871 C 0.72073 0.03699 0.72618 0.0
C2872 C 0.74155 0.06542 0.7575 0.0
C2873 C 0.74063 0.05942 0.773 0.0
C2874 C 0.75162 0.07963 0.75488 0.0
C2875 C 0.75361 0.08635 0.73853 0.0
C2876 C 0.75619 0.08053 0.72452 0.0
C2877 C 0.7579 0.08682 0.70912 0.0
C2878 C 0.75715 0.09899 0.70759 0.0
C2879 C 0.75472 0.10493 0.72147 0.0
C2880 C 0.75299 0.09867 0.73689 0.0
C2881 C 0.78679 0.096 0.81698 0.0
C2882 C 0.78752 0.10875 0.82079 0.0
C2883 C 0.77744 0.08711 0.80506 0.0
C2884 C 0.76858 0.09075 0.79678 0.0
C2885 C 0.76917 0.10338 0.8007 0.0
C2886 C 0.77851 0.11227 0.81259 0.0
C2887 C 0.75905 0.08171 0.78358 0.0
C2888 C 0.76016 0.08759 0.76797 0.0
C2889 C 0.74917 0.06742 0.78613 0.0
C2890 C 0.74707 0.06073 0.8025 0.0
C2891 C 0.74392 0.0663 0.81632 0.0
C2892 C 0.74204 0.05999 0.83173 0.0
C2893 C 0.74319 0.04805 0.83346 0.0
C2894 C 0.74618 0.04237 0.81977 0.0
C2895 C 0.74808 0.04864 0.80433 0.0
H2896 H 0.74173 0.04318 0.8454 0.0
H2897 H 0.75847 0.10384 0.69566 0.0
H2898 H 0.01988 0.34106 0.05771 0.0
H2899 H 0.03762 0.33806 0.07212 0.0
H2900 H 0.06204 0.34822 0.02763 0.0
H2901 H 0.0444 0.35149 0.01313 0.0
H2902 H 0.0585 0.32368 0.04613 0.0
H2903 H 0.07287 0.3723 0.05351 0.0
H2904 H 0.06923 0.39181 0.0611 0.0
H2905 H 0.05866 0.37592 0.11037 0.0
H2906 H 0.06203 0.35618 0.103 0.0
H2907 H 0.12053 0.3324 0.08338 0.0
H2908 H 0.10337 0.33502 0.0671 0.0
H2909 H 0.08319 0.3368 0.11176 0.0
H2910 H 0.10064 0.33467 0.12804 0.0
H2911 H 0.08487 0.35565 0.09206 0.0
H2912 H 0.06946 0.30707 0.08585 0.0
H2913 H 0.07156 0.28646 0.07921 0.0
H2914 H 0.08219 0.3006 0.02931 0.0
H2915 H 0.08034 0.3214 0.03571 0.0
C2916 C 0.02899 0.34259 0.05096 0.0
C2917 C 0.03079 0.34654 0.0343 0.0
C2918 C 0.03912 0.3409 0.05922 0.0
C2919 C 0.05114 0.34299 0.05094 0.0
C2920 C 0.05281 0.34657 0.0342 0.0
C2921 C 0.04277 0.34847 0.02597 0.0
C2922 C 0.06208 0.34174 0.05997 0.0
C2923 C 0.06445 0.33077 0.05602 0.0
C2924 C 0.06949 0.35076 0.07316 0.0
C2925 C 0.06758 0.36269 0.07765 0.0
C2926 C 0.06966 0.3729 0.06592 0.0
C2927 C 0.06766 0.38401 0.07019 0.0
C2928 C 0.06369 0.38508 0.0862 0.0
C2929 C 0.06173 0.37506 0.09797 0.0
C2930 C 0.06369 0.36392 0.09376 0.0
C2931 C 0.11236 0.33326 0.08968 0.0
C2932 C 0.11188 0.3333 0.10695 0.0
C2933 C 0.10253 0.33471 0.08038 0.0
C2934 C 0.09183 0.33591 0.08817 0.0
C2935 C 0.09134 0.33592 0.10544 0.0
C2936 C 0.1013 0.33469 0.11474 0.0
C2937 C 0.08132 0.33747 0.07837 0.0
C2938 C 0.079 0.34853 0.08216 0.0
C2939 C 0.0738 0.32837 0.06521 0.0
C2940 C 0.07491 0.31586 0.06131 0.0
C2941 C 0.07235 0.30584 0.0735 0.0
C2942 C 0.07348 0.29411 0.06977 0.0
C2943 C 0.07704 0.29224 0.05386 0.0
C2944 C 0.07945 0.30207 0.04164 0.0
C2945 C 0.07836 0.31383 0.0453 0.0
H2946 H 0.07791 0.28316 0.051 0.0
H2947 H 0.06215 0.39369 0.08948 0.0
H2948 H 0.67621 0.69493 0.03421 0.0
H2949 H 0.67979 0.71578 0.0488 0.0
H2950 H 0.63547 0.70073 0.0466 0.0
H2951 H 0.63196 0.68015 0.03137 0.0
H2952 H 0.64866 0.72736 0.04199 0.0
H2953 H 0.65205 0.69754 0.08198 0.0
H2954 H 0.66073 0.6829 0.09414 0.0
H2955 H 0.70224 0.71836 0.09621 0.0
H2956 H 0.69384 0.73317 0.08386 0.0
H2957 H 0.64623 0.76763 0.10944 0.0
H2958 H 0.64342 0.74823 0.09239 0.0
H2959 H 0.68801 0.76878 0.08532 0.0
H2960 H 0.69096 0.78857 0.10173 0.0
H2961 H 0.6749 0.73978 0.09464 0.0
H2962 H 0.66994 0.76952 0.05505 0.0
H2963 H 0.6598 0.78331 0.04425 0.0
H2964 H 0.61912 0.74656 0.04333 0.0
H2965 H 0.629 0.73258 0.05437 0.0
C2966 C 0.66726 0.69615 0.03671 0.0
C2967 C 0.6538 0.6859 0.03174 0.0
C2968 C 0.66929 0.70802 0.04515 0.0
C2969 C 0.65786 0.7097 0.04916 0.0
C2970 C 0.64446 0.69967 0.04372 0.0
C2971 C 0.64245 0.6879 0.03503 0.0
C2972 C 0.65982 0.72175 0.05927 0.0
C2973 C 0.65426 0.72995 0.05359 0.0
C2974 C 0.66725 0.72529 0.07436 0.0
C2975 C 0.67234 0.71643 0.08184 0.0
C2976 C 0.66305 0.70219 0.08492 0.0
C2977 C 0.66791 0.69387 0.09186 0.0
C2978 C 0.68204 0.69969 0.0959 0.0
C2979 C 0.69131 0.71386 0.09305 0.0
C2980 C 0.6865 0.72222 0.08609 0.0
C2981 C 0.65546 0.76818 0.10408 0.0
C2982 C 0.66883 0.77976 0.10696 0.0
C2983 C 0.65382 0.75701 0.09442 0.0
C2984 C 0.6655 0.75712 0.08756 0.0
C2985 C 0.67887 0.76851 0.09057 0.0
C2986 C 0.68052 0.77977 0.10005 0.0
C2987 C 0.66377 0.7453 0.0773 0.0
C2988 C 0.66934 0.73716 0.083 0.0
C2989 C 0.65612 0.74166 0.06242 0.0
C2990 C 0.65019 0.75004 0.05569 0.0
C2991 C 0.65881 0.7644 0.05268 0.0
C2992 C 0.65312 0.77225 0.04649 0.0
C2993 C 0.63882 0.76583 0.04315 0.0
C2994 C 0.63019 0.75153 0.04595 0.0
C2995 C 0.63584 0.74364 0.05216 0.0
H2996 H 0.63442 0.77192 0.03835 0.0
H2997 H 0.68578 0.69323 0.10127 0.0
H2998 H 0.31055 0.95436 0.01708 0.0
H2999 H 0.28982 0.93624 0.03141 0.0
H3000 H 0.30045 0.96284 0.07407 0.0
H3001 H 0.32114 0.98086 0.05994 0.0
H3002 H 0.29333 0.93664 0.08265 0.0
H3003 H 0.27459 0.95871 0.04829 0.0
H3004 H 0.27012 0.96711 0.02217 0.0
H3005 H 0.24914 0.92528 0.00318 0.0
H3006 H 0.25366 0.91665 0.02913 0.0
H3007 H 0.22988 0.90416 0.12735 0.0
H3008 H 0.25018 0.92073 0.11124 0.0
H3009 H 0.23707 0.89124 0.07122 0.0
H3010 H 0.21659 0.87471 0.08714 0.0
H3011 H 0.2454 0.9177 0.06042 0.0
H3012 H 0.26333 0.89555 0.09541 0.0
H3013 H 0.26764 0.88728 0.12172 0.0
H3014 H 0.29012 0.92942 0.13964 0.0
H3015 H 0.28577 0.93793 0.1135 0.0
C3016 C 0.30844 0.95632 0.02951 0.0
C3017 C 0.31745 0.96903 0.03738 0.0
C3018 C 0.29658 0.946 0.03766 0.0
C3019 C 0.29354 0.94823 0.05379 0.0
C3020 C 0.30259 0.96088 0.06166 0.0
C3021 C 0.31439 0.97118 0.05353 0.0
C3022 C 0.28099 0.93742 0.06262 0.0
C3023 C 0.28284 0.93261 0.07786 0.0
C3024 C 0.26733 0.9319 0.05618 0.0
C3025 C 0.26461 0.93706 0.04058 0.0
C3026 C 0.26913 0.95132 0.03849 0.0
C3027 C 0.26657 0.95612 0.02373 0.0
C3028 C 0.25939 0.94674 0.011 0.0
C3029 C 0.25472 0.93254 0.01303 0.0
C3030 C 0.25728 0.92769 0.02777 0.0
C3031 C 0.23126 0.90124 0.11507 0.0
C3032 C 0.22166 0.8881 0.10855 0.0
C3033 C 0.24292 0.91067 0.10593 0.0
C3034 C 0.24521 0.90715 0.09009 0.0
C3035 C 0.23553 0.89414 0.08343 0.0
C3036 C 0.2239 0.88468 0.0926 0.0
C3037 C 0.25775 0.91706 0.08052 0.0
C3038 C 0.2559 0.92169 0.06515 0.0
C3039 C 0.27142 0.92243 0.08684 0.0
C3040 C 0.27411 0.91736 0.10255 0.0
C3041 C 0.2691 0.90304 0.10501 0.0
C3042 C 0.27157 0.89831 0.11988 0.0
C3043 C 0.27912 0.90781 0.13236 0.0
C3044 C 0.28426 0.92207 0.12997 0.0
C3045 C 0.2818 0.92685 0.11512 0.0
H3046 H 0.28103 0.90413 0.14387 0.0
H3047 H 0.2574 0.95047 0.99958 0.0
H3048 H 0.3253 0.02047 0.99517 0.0
H3049 H 0.32218 0.03806 0.98065 0.0
H3050 H 0.36694 0.06491 0.97801 0.0
H3051 H 0.3701 0.04752 0.99299 0.0
H3052 H 0.35515 0.07993 0.98435 0.0
H3053 H 0.34749 0.04461 0.9449 0.0
H3054 H 0.33676 0.0207 0.9338 0.0
H3055 H 0.29635 0.01731 0.93494 0.0
H3056 H 0.30681 0.04114 0.94627 0.0
H3057 H 0.35726 0.12267 0.91763 0.0
H3058 H 0.35961 0.10578 0.93463 0.0
H3059 H 0.31502 0.08276 0.94216 0.0
H3060 H 0.31256 0.09985 0.92562 0.0
H3061 H 0.32629 0.06589 0.93363 0.0
H3062 H 0.33486 0.10212 0.97236 0.0
H3063 H 0.34634 0.12633 0.98262 0.0
H3064 H 0.38611 0.1283 0.98167 0.0
H3065 H 0.37489 0.10416 0.97117 0.0
C3066 C 0.33447 0.03018 0.99161 0.0
C3067 C 0.34795 0.03259 0.99512 0.0
C3068 C 0.33268 0.04019 0.98323 0.0
C3069 C 0.34432 0.0527 0.97794 0.0
C3070 C 0.35779 0.05532 0.98191 0.0
C3071 C 0.35959 0.04537 0.99045 0.0
C3072 C 0.34248 0.06292 0.96794 0.0
C3073 C 0.34897 0.07688 0.97316 0.0
C3074 C 0.33423 0.05892 0.95347 0.0
C3075 C 0.32792 0.04461 0.94659 0.0
C3076 C 0.3363 0.03873 0.9429 0.0
C3077 C 0.33027 0.0252 0.93655 0.0
C3078 C 0.31588 0.01748 0.93371 0.0
C3079 C 0.30749 0.02329 0.93717 0.0
C3080 C 0.31347 0.03682 0.94355 0.0
C3081 C 0.34795 0.11414 0.92306 0.0
C3082 C 0.33472 0.1127 0.92028 0.0
C3083 C 0.34932 0.10445 0.93272 0.0
C3084 C 0.3375 0.09309 0.93975 0.0
C3085 C 0.32426 0.09146 0.93682 0.0
C3086 C 0.32289 0.10121 0.92727 0.0
C3087 C 0.33896 0.08284 0.95005 0.0
C3088 C 0.33242 0.0689 0.94486 0.0
C3089 C 0.34728 0.08688 0.96443 0.0
C3090 C 0.35405 0.10138 0.97083 0.0
C3091 C 0.34607 0.10776 0.97421 0.0
C3092 C 0.35253 0.12146 0.98009 0.0
C3093 C 0.36695 0.12886 0.98276 0.0
C3094 C 0.37494 0.12256 0.97958 0.0
C3095 C 0.36854 0.10886 0.97368 0.0
H3096 H 0.37194 0.13947 0.98732 0.0
H3097 H 0.31123 0.007 0.92879 0.0
H3098 H 0.98642 0.31062 0.98301 0.0
H3099 H 0.96918 0.28986 0.96824 0.0
H3100 H 0.93663 0.29824 0.98311 0.0
H3101 H 0.95381 0.31878 0.99841 0.0
H3102 H 0.92696 0.27156 0.98452 0.0
H3103 H 0.95114 0.30635 0.94388 0.0
H3104 H 0.97141 0.32469 0.92881 0.0
H3105 H 0.98377 0.29499 0.91509 0.0
H3106 H 0.96365 0.27649 0.93025 0.0
H3107 H 0.88019 0.23217 0.91826 0.0
H3108 H 0.89704 0.25195 0.93465 0.0
H3109 H 0.92419 0.23454 0.93626 0.0
H3110 H 0.90705 0.21419 0.9208 0.0
H3111 H 0.93611 0.26567 0.92614 0.0
H3112 H 0.91003 0.23082 0.96821 0.0
H3113 H 0.88825 0.21358 0.98197 0.0
H3114 H 0.87777 0.24543 0.99118 0.0
H3115 H 0.8994 0.26281 0.97724 0.0
C3116 C 0.97557 0.30797 0.98324 0.0
C3117 C 0.97146 0.31635 0.99179 0.0
C3118 C 0.96573 0.29615 0.9747 0.0
C3119 C 0.95163 0.29263 0.97425 0.0
C3120 C 0.94744 0.30076 0.98321 0.0
C3121 C 0.95727 0.3125 0.99194 0.0
C3122 C 0.94134 0.28059 0.96424 0.0
C3123 C 0.92893 0.27039 0.97172 0.0
C3124 C 0.94386 0.27898 0.9475 0.0
C3125 C 0.95597 0.29006 0.93834 0.0
C3126 C 0.95824 0.30375 0.93775 0.0
C3127 C 0.96969 0.31417 0.92918 0.0
C3128 C 0.97889 0.31102 0.92104 0.0
C3129 C 0.97664 0.29742 0.92142 0.0
C3130 C 0.96521 0.28696 0.92999 0.0
C3131 C 0.8896 0.23233 0.92231 0.0
C3132 C 0.89213 0.22142 0.91821 0.0
C3133 C 0.89928 0.24375 0.93155 0.0
C3134 C 0.9118 0.24465 0.93664 0.0
C3135 C 0.91457 0.23402 0.93235 0.0
C3136 C 0.90477 0.22244 0.92339 0.0
C3137 C 0.92197 0.25669 0.94654 0.0
C3138 C 0.93426 0.2669 0.93898 0.0
C3139 C 0.91919 0.25849 0.96304 0.0
C3140 C 0.90625 0.24807 0.97152 0.0
C3141 C 0.90301 0.23411 0.97302 0.0
C3142 C 0.89071 0.22433 0.98089 0.0
C3143 C 0.88161 0.2284 0.9874 0.0
C3144 C 0.88481 0.24228 0.98611 0.0
C3145 C 0.8971 0.25211 0.97824 0.0
H3146 H 0.87209 0.22081 0.99349 0.0
H3147 H 0.98775 0.3191 0.9144 0.0
H3148 H 0.69073 0.64701 0.01106 0.0
H3149 H 0.71127 0.64924 0.9966 0.0
H3150 H 0.69732 0.65906 0.95165 0.0
H3151 H 0.67699 0.65711 0.96601 0.0
H3152 H 0.70552 0.63824 0.94854 0.0
H3153 H 0.72219 0.68452 0.97082 0.0
H3154 H 0.7268 0.70137 0.99313 0.0
H3155 H 0.75286 0.6884 0.0175 0.0
H3156 H 0.74822 0.67131 0.99542 0.0
H3157 H 0.7643 0.6641 0.89647 0.0
H3158 H 0.74428 0.6607 0.91284 0.0
H3159 H 0.76581 0.66104 0.95728 0.0
H3160 H 0.78601 0.66481 0.94093 0.0
H3161 H 0.75371 0.67554 0.96219 0.0
H3162 H 0.73852 0.63022 0.9404 0.0
H3163 H 0.73385 0.61254 0.91913 0.0
H3164 H 0.70497 0.62208 0.89537 0.0
H3165 H 0.70961 0.63998 0.91638 0.0
C3166 C 0.69207 0.64966 0.9981 0.0
C3167 C 0.6823 0.65194 0.98967 0.0
C3168 C 0.70379 0.65094 0.98988 0.0
C3169 C 0.70579 0.65433 0.97308 0.0
C3170 C 0.69595 0.65642 0.96461 0.0
C3171 C 0.68438 0.65536 0.97286 0.0
C3172 C 0.71816 0.65578 0.96422 0.0
C3173 C 0.71606 0.64646 0.95139 0.0
C3174 C 0.73191 0.66623 0.96834 0.0
C3175 C 0.73473 0.67652 0.98157 0.0
C3176 C 0.72879 0.68517 0.98101 0.0
C3177 C 0.73143 0.69478 0.9936 0.0
C3178 C 0.74008 0.69593 0.00675 0.0
C3179 C 0.74614 0.68748 0.00732 0.0
C3180 C 0.74351 0.67783 0.99477 0.0
C3181 C 0.76471 0.66336 0.90973 0.0
C3182 C 0.77668 0.66467 0.91743 0.0
C3183 C 0.75325 0.66138 0.91909 0.0
C3184 C 0.75341 0.66037 0.93632 0.0
C3185 C 0.76541 0.66177 0.94403 0.0
C3186 C 0.77695 0.66394 0.93468 0.0
C3187 C 0.74113 0.65806 0.94628 0.0
C3188 C 0.74321 0.66722 0.95935 0.0
C3189 C 0.72737 0.64731 0.94254 0.0
C3190 C 0.72451 0.63653 0.92989 0.0
C3191 C 0.73125 0.62863 0.93057 0.0
C3192 C 0.7286 0.61855 0.91857 0.0
C3193 C 0.71914 0.61621 0.90588 0.0
C3194 C 0.7123 0.62392 0.90519 0.0
C3195 C 0.71493 0.63402 0.91715 0.0
H3196 H 0.7171 0.6084 0.8966 0.0
H3197 H 0.74212 0.70338 0.01648 0.0
H3198 H 0.9804 0.65986 0.96536 0.0
H3199 H 0.96275 0.66331 0.95169 0.0
H3200 H 0.94036 0.65572 0.99754 0.0
H3201 H 0.95781 0.65169 0.01117 0.0
H3202 H 0.9226 0.64288 0.97412 0.0
H3203 H 0.96043 0.68939 0.98058 0.0
H3204 H 0.98474 0.70885 0.97888 0.0
H3205 H 0.98353 0.7053 0.92623 0.0
H3206 H 0.95926 0.68568 0.92763 0.0
H3207 H 0.87942 0.66875 0.94221 0.0
H3208 H 0.89694 0.66664 0.9585 0.0
H3209 H 0.91772 0.66596 0.9139 0.0
H3210 H 0.90027 0.6681 0.89756 0.0
H3211 H 0.93597 0.68401 0.93834 0.0
H3212 H 0.89793 0.63644 0.93299 0.0
H3213 H 0.87341 0.61755 0.93557 0.0
H3214 H 0.87498 0.62426 0.98774 0.0
H3215 H 0.89946 0.64334 0.98543 0.0
C3216 C 0.97175 0.65898 0.97256 0.0
C3217 C 0.97052 0.65558 0.98936 0.0
C3218 C 0.96169 0.66104 0.96474 0.0
C3219 C 0.95034 0.66007 0.97363 0.0
C3220 C 0.94905 0.65659 0.99042 0.0
C3221 C 0.95903 0.65432 0.99821 0.0
C3222 C 0.93969 0.66233 0.96523 0.0
C3223 C 0.92553 0.65201 0.96655 0.0
C3224 C 0.94347 0.67415 0.95513 0.0
C3225 C 0.95805 0.68599 0.95423 0.0
C3226 C 0.96537 0.69269 0.96865 0.0
C3227 C 0.97914 0.70376 0.96774 0.0
C3228 C 0.98568 0.70829 0.95246 0.0
C3229 C 0.97845 0.70177 0.93806 0.0
C3230 C 0.96468 0.69069 0.9389 0.0
C3231 C 0.88778 0.66823 0.9359 0.0
C3232 C 0.88848 0.66855 0.91862 0.0
C3233 C 0.89772 0.66695 0.9452 0.0
C3234 C 0.90856 0.66607 0.93738 0.0
C3235 C 0.90941 0.66661 0.92015 0.0
C3236 C 0.8994 0.66774 0.91084 0.0
C3237 C 0.91902 0.6645 0.94713 0.0
C3238 C 0.9331 0.67496 0.94605 0.0
C3239 C 0.91516 0.65293 0.95761 0.0
C3240 C 0.90047 0.64142 0.95901 0.0
C3241 C 0.89301 0.63397 0.94499 0.0
C3242 C 0.87913 0.62321 0.9464 0.0
C3243 C 0.87263 0.61973 0.9618 0.0
C3244 C 0.88001 0.62698 0.97582 0.0
C3245 C 0.89389 0.63776 0.97446 0.0
H3246 H 0.86188 0.6114 0.96287 0.0
H3247 H 0.99635 0.71685 0.95178 0.0
H3248 H 0.36835 0.32075 0.99711 0.0
H3249 H 0.36513 0.30014 0.98212 0.0
H3250 H 0.32194 0.28756 0.9734 0.0
H3251 H 0.32513 0.3083 0.9881 0.0
H3252 H 0.32758 0.26536 0.98405 0.0
H3253 H 0.34188 0.30225 0.94374 0.0
H3254 H 0.35738 0.32591 0.93284 0.0
H3255 H 0.39182 0.3183 0.9327 0.0
H3256 H 0.37656 0.29466 0.94385 0.0
H3257 H 0.31202 0.21435 0.92279 0.0
H3258 H 0.31447 0.23413 0.9386 0.0
H3259 H 0.35936 0.25393 0.93506 0.0
H3260 H 0.357 0.23476 0.91809 0.0
H3261 H 0.35276 0.27263 0.93117 0.0
H3262 H 0.33985 0.23643 0.9711 0.0
H3263 H 0.3256 0.21305 0.98334 0.0
H3264 H 0.29034 0.21931 0.98602 0.0
H3265 H 0.30434 0.24266 0.97358 0.0
C3266 C 0.35813 0.31352 0.99214 0.0
C3267 C 0.34699 0.31614 0.99372 0.0
C3268 C 0.35633 0.30179 0.98356 0.0
C3269 C 0.34332 0.2924 0.97661 0.0
C3270 C 0.33205 0.2947 0.9787 0.0
C3271 C 0.3339 0.30656 0.98704 0.0
C3272 C 0.34164 0.28049 0.96659 0.0
C3273 C 0.33294 0.26689 0.97239 0.0
C3274 C 0.34896 0.28258 0.95164 0.0
C3275 C 0.35811 0.29674 0.9448 0.0
C3276 C 0.35278 0.30567 0.94153 0.0
C3277 C 0.36152 0.31907 0.93527 0.0
C3278 C 0.37559 0.32362 0.93212 0.0
C3279 C 0.38093 0.31477 0.93517 0.0
C3280 C 0.37224 0.30136 0.94145 0.0
C3281 C 0.32243 0.22299 0.92511 0.0
C3282 C 0.33431 0.22284 0.91915 0.0
C3283 C 0.32382 0.23423 0.93442 0.0
C3284 C 0.33711 0.24544 0.93837 0.0
C3285 C 0.34898 0.24539 0.9323 0.0
C3286 C 0.3476 0.23429 0.92274 0.0
C3287 C 0.3387 0.25731 0.9486 0.0
C3288 C 0.34739 0.27098 0.94284 0.0
C3289 C 0.33155 0.25527 0.96375 0.0
C3290 C 0.32311 0.24124 0.97126 0.0
C3291 C 0.32903 0.23278 0.97419 0.0
C3292 C 0.321 0.21954 0.98118 0.0
C3293 C 0.30706 0.21468 0.98542 0.0
C3294 C 0.30113 0.22307 0.98271 0.0
C3295 C 0.30911 0.23632 0.9757 0.0
H3296 H 0.30087 0.20443 0.99083 0.0
H3297 H 0.38234 0.334 0.92728 0.0
H3298 H 0.69419 0.01592 0.98721 0.0
H3299 H 0.71518 0.03315 0.97246 0.0
H3300 H 0.70373 0.06453 0.98109 0.0
H3301 H 0.6829 0.04746 0.99619 0.0
H3302 H 0.7102 0.06065 0.94659 0.0
H3303 H 0.72871 0.06806 0.00197 0.0
H3304 H 0.73365 0.06047 0.02839 0.0
H3305 H 0.75745 0.04517 0.00327 0.0
H3306 H 0.75247 0.05249 0.97666 0.0
H3307 H 0.76984 0.12067 0.9173 0.0
H3308 H 0.75019 0.10368 0.93361 0.0
H3309 H 0.7695 0.07826 0.93762 0.0
H3310 H 0.78974 0.09575 0.92232 0.0
H3311 H 0.75885 0.07833 0.96566 0.0
H3312 H 0.74129 0.07009 0.91092 0.0
H3313 H 0.73605 0.07584 0.8835 0.0
H3314 H 0.71014 0.0901 0.90548 0.0
H3315 H 0.71537 0.08461 0.93307 0.0
C3316 C 0.69624 0.02653 0.9861 0.0
C3317 C 0.68695 0.03038 0.99286 0.0
C3318 C 0.70821 0.03634 0.9777 0.0
C3319 C 0.71095 0.05008 0.9757 0.0
C3320 C 0.70175 0.05397 0.98252 0.0
C3321 C 0.68992 0.04424 0.9912 0.0
C3322 C 0.72319 0.06026 0.96603 0.0
C3323 C 0.72085 0.06469 0.95082 0.0
C3324 C 0.73704 0.06504 0.97132 0.0
C3325 C 0.74008 0.06069 0.98731 0.0
C3326 C 0.73488 0.06296 0.00207 0.0
C3327 C 0.73772 0.05873 0.01708 0.0
C3328 C 0.74583 0.0523 0.01751 0.0
C3329 C 0.75115 0.05013 0.00292 0.0
C3330 C 0.74833 0.05433 0.98787 0.0
C3331 C 0.77006 0.11158 0.92182 0.0
C3332 C 0.78146 0.10965 0.91844 0.0
C3333 C 0.75866 0.10173 0.93097 0.0
C3334 C 0.7582 0.08952 0.93662 0.0
C3335 C 0.76956 0.08755 0.93334 0.0
C3336 C 0.78107 0.09751 0.92439 0.0
C3337 C 0.74594 0.07893 0.94615 0.0
C3338 C 0.74823 0.07434 0.96134 0.0
C3339 C 0.73203 0.07375 0.94065 0.0
C3340 C 0.72883 0.07706 0.92408 0.0
C3341 C 0.73455 0.07455 0.90992 0.0
C3342 C 0.73157 0.07775 0.89434 0.0
C3343 C 0.72279 0.08337 0.89275 0.0
C3344 C 0.71695 0.08577 0.90674 0.0
C3345 C 0.71991 0.0826 0.92235 0.0
H3346 H 0.7205 0.08584 0.88068 0.0
H3347 H 0.74801 0.04904 0.02914 0.0
H3348 H 0.66785 0.98455 0.05569 0.0
H3349 H 0.67145 0.96718 0.06991 0.0
H3350 H 0.65027 0.9378 0.03066 0.0
H3351 H 0.6464 0.95511 0.01647 0.0
H3352 H 0.64129 0.9256 0.05988 0.0
H3353 H 0.686 0.95422 0.03497 0.0
H3354 H 0.70744 0.97619 0.02794 0.0
H3355 H 0.71808 0.98401 0.07914 0.0
H3356 H 0.6966 0.96217 0.0865 0.0
H3357 H 0.66102 0.87685 0.08699 0.0
H3358 H 0.65841 0.89395 0.07069 0.0
H3359 H 0.67791 0.92435 0.10939 0.0
H3360 H 0.68046 0.90726 0.12585 0.0
H3361 H 0.68797 0.93566 0.07935 0.0
H3362 H 0.64279 0.90743 0.10417 0.0
H3363 H 0.62133 0.88545 0.11114 0.0
H3364 H 0.61166 0.87687 0.05981 0.0
H3365 H 0.63318 0.89872 0.05253 0.0
C3366 C 0.66402 0.97442 0.05002 0.0
C3367 C 0.65687 0.9712 0.03493 0.0
C3368 C 0.66615 0.96452 0.05814 0.0
C3369 C 0.66129 0.95123 0.05127 0.0
C3370 C 0.65414 0.94799 0.03618 0.0
C3371 C 0.65197 0.9579 0.02806 0.0
C3372 C 0.66333 0.94064 0.06011 0.0
C3373 C 0.65153 0.92771 0.06389 0.0
C3374 C 0.67665 0.9435 0.06568 0.0
C3375 C 0.68962 0.95661 0.06129 0.0
C3376 C 0.69286 0.96067 0.04474 0.0
C3377 C 0.70503 0.9731 0.04069 0.0
C3378 C 0.7141 0.9815 0.05309 0.0
C3379 C 0.71104 0.97749 0.06955 0.0
C3380 C 0.69887 0.96509 0.07367 0.0
C3381 C 0.66464 0.88713 0.09211 0.0
C3382 C 0.67088 0.89065 0.10778 0.0
C3383 C 0.66317 0.89691 0.08275 0.0
C3384 C 0.66783 0.91038 0.08889 0.0
C3385 C 0.67426 0.91402 0.1044 0.0
C3386 C 0.67574 0.90424 0.11378 0.0
C3387 C 0.66593 0.92068 0.07918 0.0
C3388 C 0.67775 0.93353 0.07525 0.0
C3389 C 0.65264 0.91775 0.07345 0.0
C3390 C 0.63967 0.90464 0.0778 0.0
C3391 C 0.63614 0.9008 0.09437 0.0
C3392 C 0.62396 0.88838 0.09837 0.0
C3393 C 0.61516 0.87975 0.08592 0.0
C3394 C 0.6185 0.88355 0.06944 0.0
C3395 C 0.63068 0.89596 0.06537 0.0
H3396 H 0.60573 0.87013 0.08905 0.0
H3397 H 0.72352 0.99112 0.04993 0.0
H3398 H 0.04771 0.68225 0.02647 0.0
H3399 H 0.06501 0.70304 0.04138 0.0
H3400 H 0.0342 0.71544 0.04916 0.0
H3401 H 0.01672 0.69448 0.03463 0.0
H3402 H 0.06343 0.7377 0.0383 0.0
H3403 H 0.03795 0.70154 0.07905 0.0
H3404 H 0.02851 0.67784 0.09041 0.0
H3405 H 0.06995 0.68384 0.09305 0.0
H3406 H 0.07961 0.70751 0.08145 0.0
H3407 H 0.09725 0.78886 0.09989 0.0
H3408 H 0.08034 0.76927 0.08342 0.0
H3409 H 0.10392 0.7483 0.09073 0.0
H3410 H 0.12023 0.7673 0.10834 0.0
H3411 H 0.07823 0.73022 0.09319 0.0
H3412 H 0.10447 0.76571 0.05352 0.0
H3413 H 0.11507 0.789 0.04068 0.0
H3414 H 0.07439 0.78426 0.0341 0.0
H3415 H 0.06354 0.761 0.0471 0.0
C3416 C 0.04467 0.6895 0.03118 0.0
C3417 C 0.03088 0.68675 0.02946 0.0
C3418 C 0.05454 0.70133 0.0397 0.0
C3419 C 0.05082 0.7107 0.04637 0.0
C3420 C 0.03723 0.70831 0.04405 0.0
C3421 C 0.02728 0.69634 0.03582 0.0
C3422 C 0.06091 0.72256 0.05656 0.0
C3423 C 0.06658 0.73615 0.05039 0.0
C3424 C 0.06526 0.7204 0.07207 0.0
C3425 C 0.05948 0.70623 0.07921 0.0
C3426 C 0.04503 0.69776 0.08191 0.0
C3427 C 0.03964 0.68434 0.08842 0.0
C3428 C 0.04862 0.67932 0.0924 0.0
C3429 C 0.06301 0.68773 0.08993 0.0
C3430 C 0.06845 0.70115 0.0834 0.0
C3431 C 0.09876 0.78001 0.09825 0.0
C3432 C 0.11021 0.77977 0.10548 0.0
C3433 C 0.08917 0.76888 0.08855 0.0
C3434 C 0.09097 0.75739 0.0855 0.0
C3435 C 0.10231 0.75706 0.09279 0.0
C3436 C 0.11176 0.76806 0.10273 0.0
C3437 C 0.08092 0.74558 0.075 0.0
C3438 C 0.07518 0.73192 0.0811 0.0
C3439 C 0.07673 0.74769 0.05927 0.0
C3440 C 0.0832 0.76167 0.05144 0.0
C3441 C 0.09779 0.76968 0.04945 0.0
C3442 C 0.10384 0.78287 0.04212 0.0
C3443 C 0.09541 0.78812 0.03662 0.0
C3444 C 0.0809 0.78018 0.03839 0.0
C3445 C 0.0748 0.76699 0.04573 0.0
H3446 H 0.10012 0.79834 0.03095 0.0
H3447 H 0.04443 0.66892 0.09744 0.0
H3448 H 0.30846 0.35118 0.01444 0.0
H3449 H 0.28708 0.34714 0.02827 0.0
H3450 H 0.30065 0.33646 0.07298 0.0
H3451 H 0.32172 0.33995 0.05902 0.0
H3452 H 0.27434 0.31934 0.06927 0.0
H3453 H 0.30314 0.36917 0.06642 0.0
H3454 H 0.31751 0.39202 0.053 0.0
H3455 H 0.28232 0.38532 0.0238 0.0
H3456 H 0.26778 0.36234 0.0369 0.0
H3457 H 0.2334 0.33173 0.12748 0.0
H3458 H 0.25287 0.33373 0.11095 0.0
H3459 H 0.23156 0.33386 0.06658 0.0
H3460 H 0.21196 0.3317 0.08307 0.0
H3461 H 0.26062 0.35568 0.0689 0.0
H3462 H 0.23168 0.30586 0.07415 0.0
H3463 H 0.21795 0.28379 0.08933 0.0
H3464 H 0.25459 0.29161 0.11624 0.0
H3465 H 0.2685 0.31385 0.10139 0.0
C3466 C 0.30684 0.34793 0.0272 0.0
C3467 C 0.31676 0.34592 0.03567 0.0
C3468 C 0.29465 0.3457 0.03513 0.0
C3469 C 0.29232 0.3417 0.05177 0.0
C3470 C 0.30218 0.33953 0.06015 0.0
C3471 C 0.31424 0.34157 0.05217 0.0
C3472 C 0.27967 0.33982 0.06055 0.0
C3473 C 0.27146 0.32737 0.0693 0.0
C3474 C 0.2757 0.35016 0.06041 0.0
C3475 C 0.28441 0.36397 0.05251 0.0
C3476 C 0.29849 0.37252 0.05704 0.0
C3477 C 0.30667 0.3855 0.04951 0.0
C3478 C 0.30085 0.3901 0.03752 0.0
C3479 C 0.28682 0.38174 0.03307 0.0
C3480 C 0.27861 0.36874 0.04055 0.0
C3481 C 0.23288 0.33217 0.1142 0.0
C3482 C 0.22119 0.33154 0.10653 0.0
C3483 C 0.24396 0.33326 0.10479 0.0
C3484 C 0.24361 0.33389 0.08757 0.0
C3485 C 0.232 0.33336 0.07987 0.0
C3486 C 0.2208 0.33205 0.08927 0.0
C3487 C 0.25549 0.33531 0.07765 0.0
C3488 C 0.26352 0.34766 0.06873 0.0
C3489 C 0.25943 0.32499 0.07786 0.0
C3490 C 0.2511 0.31159 0.08676 0.0
C3491 C 0.23678 0.30294 0.0834 0.0
C3492 C 0.22897 0.29038 0.09193 0.0
C3493 C 0.23538 0.28631 0.10377 0.0
C3494 C 0.24963 0.29478 0.10708 0.0
C3495 C 0.25749 0.30736 0.0986 0.0
H3496 H 0.22932 0.27659 0.11036 0.0
H3497 H 0.30719 0.40016 0.0317 0.0
H3498 H 0.68545 0.67331 0.39399 0.0
H3499 H 0.70299 0.67034 0.40892 0.0
H3500 H 0.73074 0.68644 0.36722 0.0
H3501 H 0.71322 0.68948 0.35217 0.0
H3502 H 0.72888 0.66224 0.38083 0.0
H3503 H 0.73616 0.70693 0.39959 0.0
H3504 H 0.72936 0.723 0.41199 0.0
H3505 H 0.71702 0.69862 0.45631 0.0
H3506 H 0.72353 0.68229 0.4441 0.0
H3507 H 0.78999 0.67132 0.42033 0.0
H3508 H 0.77276 0.67432 0.40473 0.0
H3509 H 0.74832 0.66693 0.44891 0.0
H3510 H 0.76594 0.66463 0.46464 0.0
H3511 H 0.74843 0.68683 0.43362 0.0
H3512 H 0.73947 0.64181 0.41655 0.0
H3513 H 0.745 0.62437 0.40559 0.0
H3514 H 0.75817 0.64678 0.35991 0.0
H3515 H 0.75289 0.66447 0.37067 0.0
C3516 C 0.69527 0.67619 0.38796 0.0
C3517 C 0.69798 0.68166 0.37191 0.0
C3518 C 0.7053 0.67454 0.39655 0.0
C3519 C 0.71821 0.6783 0.38923 0.0
C3520 C 0.72085 0.68351 0.37309 0.0
C3521 C 0.71086 0.68527 0.36453 0.0
C3522 C 0.72894 0.67677 0.39846 0.0
C3523 C 0.73331 0.66775 0.39227 0.0
C3524 C 0.73434 0.68359 0.41366 0.0
C3525 C 0.73023 0.69332 0.42087 0.0
C3526 C 0.73186 0.70492 0.41191 0.0
C3527 C 0.72808 0.71409 0.41892 0.0
C3528 C 0.72276 0.71182 0.43492 0.0
C3529 C 0.72115 0.70036 0.44392 0.0
C3530 C 0.72488 0.69115 0.43697 0.0
C3531 C 0.7809 0.67031 0.42666 0.0
C3532 C 0.77924 0.66771 0.44365 0.0
C3533 C 0.77101 0.67194 0.41773 0.0
C3534 C 0.75904 0.6706 0.42554 0.0
C3535 C 0.75743 0.66802 0.44257 0.0
C3536 C 0.76747 0.66669 0.45155 0.0
C3537 C 0.74839 0.6722 0.41608 0.0
C3538 C 0.74402 0.68127 0.4222 0.0
C3539 C 0.74275 0.66517 0.40101 0.0
C3540 C 0.74592 0.65454 0.39448 0.0
C3541 C 0.74365 0.64308 0.40421 0.0
C3542 C 0.74672 0.63314 0.39803 0.0
C3543 C 0.75197 0.63449 0.38208 0.0
C3544 C 0.75413 0.64576 0.37227 0.0
C3545 C 0.75108 0.65574 0.3784 0.0
H3546 H 0.75435 0.62678 0.37732 0.0
H3547 H 0.71994 0.71896 0.4404 0.0
H3548 H 0.33615 0.01844 0.38262 0.0
H3549 H 0.33862 0.03911 0.39651 0.0
H3550 H 0.30765 0.03911 0.36427 0.0
H3551 H 0.30506 0.01829 0.35026 0.0
H3552 H 0.33134 0.06606 0.36985 0.0
H3553 H 0.29762 0.02635 0.40084 0.0
H3554 H 0.2889 0.00407 0.41567 0.0
H3555 H 0.32276 0.02384 0.45012 0.0
H3556 H 0.33181 0.0462 0.43534 0.0
H3557 H 0.31991 0.11291 0.41808 0.0
H3558 H 0.31699 0.09298 0.40209 0.0
H3559 H 0.342 0.086 0.43738 0.0
H3560 H 0.34426 0.10539 0.45396 0.0
H3561 H 0.3204 0.06225 0.42949 0.0
H3562 H 0.3548 0.10153 0.3988 0.0
H3563 H 0.36458 0.12391 0.38393 0.0
H3564 H 0.33089 0.1054 0.3491 0.0
H3565 H 0.32081 0.08294 0.3639 0.0
C3566 C 0.32993 0.02288 0.37837 0.0
C3567 C 0.32035 0.0167 0.36541 0.0
C3568 C 0.33134 0.03467 0.38636 0.0
C3569 C 0.3232 0.04052 0.38153 0.0
C3570 C 0.31399 0.0347 0.36819 0.0
C3571 C 0.31251 0.02282 0.36024 0.0
C3572 C 0.32403 0.05241 0.39087 0.0
C3573 C 0.32876 0.06521 0.38283 0.0
C3574 C 0.32097 0.05133 0.40788 0.0
C3575 C 0.31546 0.03793 0.41689 0.0
C3576 C 0.30327 0.02593 0.41151 0.0
C3577 C 0.29826 0.01329 0.41991 0.0
C3578 C 0.30529 0.01253 0.4338 0.0
C3579 C 0.31733 0.02443 0.43934 0.0
C3580 C 0.3224 0.0371 0.43097 0.0
C3581 C 0.32466 0.10705 0.42257 0.0
C3582 C 0.33234 0.1108 0.43734 0.0
C3583 C 0.32314 0.09575 0.41327 0.0
C3584 C 0.32945 0.0881 0.41837 0.0
C3585 C 0.33708 0.09178 0.43313 0.0
C3586 C 0.33849 0.10298 0.44252 0.0
C3587 C 0.32789 0.07606 0.40856 0.0
C3588 C 0.32297 0.06317 0.4165 0.0
C3589 C 0.33092 0.07711 0.3915 0.0
C3590 C 0.33697 0.09059 0.38256 0.0
C3591 C 0.34942 0.10226 0.38805 0.0
C3592 C 0.35503 0.11495 0.37962 0.0
C3593 C 0.34834 0.11608 0.36561 0.0
C3594 C 0.33605 0.10451 0.35997 0.0
C3595 C 0.33039 0.0918 0.36837 0.0
H3596 H 0.3527 0.12592 0.3591 0.0
H3597 H 0.30139 0.00273 0.44029 0.0
H3598 H 0.98806 0.28758 0.36409 0.0
H3599 H 0.96738 0.26997 0.37869 0.0
H3600 H 0.95486 0.30052 0.38814 0.0
H3601 H 0.97593 0.31832 0.37421 0.0
H3602 H 0.95118 0.2866 0.41443 0.0
H3603 H 0.93838 0.27329 0.35847 0.0
H3604 H 0.94091 0.26697 0.33011 0.0
H3605 H 0.94239 0.23126 0.3481 0.0
H3606 H 0.94004 0.23747 0.3766 0.0
H3607 H 0.88008 0.23592 0.43481 0.0
H3608 H 0.9005 0.25352 0.41987 0.0
H3609 H 0.92034 0.22876 0.42523 0.0
H3610 H 0.90038 0.21145 0.44108 0.0
H3611 H 0.91968 0.2395 0.39141 0.0
H3612 H 0.93242 0.254 0.44797 0.0
H3613 H 0.92853 0.26054 0.47564 0.0
H3614 H 0.92541 0.29459 0.45504 0.0
H3615 H 0.92907 0.28811 0.4272 0.0
C3616 C 0.98083 0.2905 0.36917 0.0
C3617 C 0.98356 0.3043 0.36796 0.0
C3618 C 0.96896 0.28041 0.37746 0.0
C3619 C 0.95938 0.28382 0.38433 0.0
C3620 C 0.96206 0.2976 0.38297 0.0
C3621 C 0.97407 0.30776 0.37494 0.0
C3622 C 0.94683 0.27315 0.39339 0.0
C3623 C 0.9442 0.27639 0.40924 0.0
C3624 C 0.93777 0.2597 0.38681 0.0
C3625 C 0.93917 0.25592 0.36969 0.0
C3626 C 0.93935 0.26414 0.35639 0.0
C3627 C 0.94073 0.26057 0.34029 0.0
C3628 C 0.94185 0.24874 0.33731 0.0
C3629 C 0.94154 0.24043 0.35043 0.0
C3630 C 0.94017 0.24397 0.36656 0.0
C3631 C 0.88885 0.23426 0.43313 0.0
C3632 C 0.8885 0.22219 0.43929 0.0
C3633 C 0.90046 0.24431 0.42443 0.0
C3634 C 0.91188 0.2424 0.42147 0.0
C3635 C 0.91157 0.23035 0.42733 0.0
C3636 C 0.90007 0.22041 0.43631 0.0
C3637 C 0.92418 0.25304 0.41228 0.0
C3638 C 0.9267 0.24976 0.39647 0.0
C3639 C 0.93299 0.26652 0.41874 0.0
C3640 C 0.93086 0.27046 0.43548 0.0
C3641 C 0.93076 0.26279 0.44932 0.0
C3642 C 0.92863 0.26651 0.46504 0.0
C3643 C 0.92668 0.27794 0.46709 0.0
C3644 C 0.9269 0.28571 0.45343 0.0
C3645 C 0.92901 0.28203 0.43768 0.0
H3646 H 0.92504 0.28081 0.47927 0.0
H3647 H 0.94292 0.24599 0.32483 0.0
H3648 H 0.99432 0.35431 0.32283 0.0
H3649 H 0.99206 0.37223 0.3079 0.0
H3650 H 0.03661 0.4001 0.31158 0.0
H3651 H 0.03882 0.38236 0.32712 0.0
H3652 H 0.02418 0.41435 0.31597 0.0
H3653 H 0.02041 0.38135 0.27555 0.0
H3654 H 0.0113 0.35816 0.26286 0.0
H3655 H 0.97046 0.35359 0.25957 0.0
H3656 H 0.97929 0.37669 0.27246 0.0
H3657 H 0.02867 0.45905 0.24961 0.0
H3658 H 0.03087 0.44187 0.26622 0.0
H3659 H 0.98615 0.41826 0.27234 0.0
H3660 H 0.98382 0.43569 0.2564 0.0
H3661 H 0.9989 0.40217 0.26268 0.0
H3662 H 0.00401 0.4363 0.3032 0.0
H3663 H 0.01445 0.46004 0.31472 0.0
H3664 H 0.05469 0.46304 0.3161 0.0
H3665 H 0.04452 0.43937 0.30434 0.0
C3666 C 0.00362 0.36429 0.32054 0.0
C3667 C 0.01675 0.36692 0.32606 0.0
C3668 C 0.00233 0.37451 0.31191 0.0
C3669 C 0.01421 0.38744 0.30827 0.0
C3670 C 0.0273 0.3902 0.31416 0.0
C3671 C 0.02856 0.38005 0.32303 0.0
C3672 C 0.01298 0.39801 0.2982 0.0
C3673 C 0.0188 0.4117 0.30423 0.0
C3674 C 0.00583 0.39457 0.28292 0.0
C3675 C 1.00049 0.38069 0.27512 0.0
C3676 C 0.00947 0.37536 0.27223 0.0
C3677 C 0.00435 0.36224 0.26499 0.0
C3678 C 0.9903 0.35439 0.26045 0.0
C3679 C 0.98134 0.35967 0.26311 0.0
C3680 C 0.98639 0.37278 0.27037 0.0
C3681 C 0.01929 0.45034 0.25467 0.0
C3682 C 0.00605 0.44884 0.25165 0.0
C3683 C 0.02058 0.44048 0.26408 0.0
C3684 C 0.00868 0.42884 0.27054 0.0
C3685 C 0.99546 0.42716 0.2674 0.0
C3686 C 0.99416 0.43711 0.25818 0.0
C3687 C 0.01003 0.41838 0.28052 0.0
C3688 C 0.00425 0.40475 0.27444 0.0
C3689 C 0.01742 0.42192 0.29558 0.0
C3690 C 0.02353 0.43612 0.30273 0.0
C3691 C 0.01511 0.44207 0.30582 0.0
C3692 C 0.02097 0.4555 0.31242 0.0
C3693 C 0.03523 0.46306 0.3161 0.0
C3694 C 0.04365 0.45718 0.31322 0.0
C3695 C 0.03784 0.44375 0.3066 0.0
H3696 H 0.03975 0.47346 0.32121 0.0
H3697 H 0.98636 0.34423 0.25484 0.0
H3698 H 0.65261 0.64336 0.3219 0.0
H3699 H 0.63526 0.62262 0.30713 0.0
H3700 H 0.60401 0.63421 0.31664 0.0
H3701 H 0.6212 0.65464 0.33202 0.0
H3702 H 0.59246 0.60762 0.31954 0.0
H3703 H 0.62126 0.64019 0.27853 0.0
H3704 H 0.64318 0.65668 0.26443 0.0
H3705 H 0.65226 0.62373 0.25621 0.0
H3706 H 0.63045 0.60706 0.27044 0.0
H3707 H 0.54712 0.5691 0.25245 0.0
H3708 H 0.56432 0.58841 0.26917 0.0
H3709 H 0.58882 0.56818 0.27326 0.0
H3710 H 0.57131 0.54837 0.25739 0.0
H3711 H 0.60361 0.59865 0.26331 0.0
H3712 H 0.57281 0.56611 0.30459 0.0
H3713 H 0.54976 0.55074 0.31713 0.0
H3714 H 0.54326 0.58563 0.3228 0.0
H3715 H 0.5662 0.60118 0.31005 0.0
C3716 C 0.642 0.6414 0.32095 0.0
C3717 C 0.63826 0.65063 0.32805 0.0
C3718 C 0.63211 0.6296 0.3124 0.0
C3719 C 0.61837 0.62698 0.31044 0.0
C3720 C 0.61454 0.636 0.31793 0.0
C3721 C 0.62437 0.64769 0.32671 0.0
C3722 C 0.60806 0.61496 0.3004 0.0
C3723 C 0.59489 0.60579 0.30719 0.0
C3724 C 0.61118 0.61243 0.28428 0.0
C3725 C 0.6243 0.62241 0.2757 0.0
C3726 C 0.62798 0.63648 0.27383 0.0
C3727 C 0.64038 0.64586 0.26579 0.0
C3728 C 0.64913 0.64126 0.25948 0.0
C3729 C 0.64548 0.62727 0.26114 0.0
C3730 C 0.6331 0.61786 0.26917 0.0
C3731 C 0.55602 0.56857 0.2571 0.0
C3732 C 0.55771 0.55704 0.25356 0.0
C3733 C 0.5659 0.5797 0.26654 0.0
C3734 C 0.57779 0.57967 0.27243 0.0
C3735 C 0.57972 0.56839 0.26873 0.0
C3736 C 0.56971 0.55711 0.25955 0.0
C3737 C 0.58818 0.59142 0.28254 0.0
C3738 C 0.6013 0.60054 0.27571 0.0
C3739 C 0.58489 0.59409 0.29844 0.0
C3740 C 0.57115 0.58477 0.30621 0.0
C3741 C 0.56641 0.57048 0.30837 0.0
C3742 C 0.55338 0.56174 0.31554 0.0
C3743 C 0.54503 0.5672 0.32071 0.0
C3744 C 0.54972 0.58141 0.31877 0.0
C3745 C 0.56274 0.59019 0.31158 0.0
H3746 H 0.53495 0.56042 0.32627 0.0
H3747 H 0.65872 0.64854 0.25326 0.0
H3748 H 0.35455 0.97276 0.34288 0.0
H3749 H 0.37544 0.97597 0.32837 0.0
H3750 H 0.3721 0.00393 0.29414 0.0
H3751 H 0.35136 0.00084 0.30854 0.0
H3752 H 0.37534 0.98352 0.27874 0.0
H3753 H 0.39683 0.01687 0.32263 0.0
H3754 H 0.40128 0.02456 0.35156 0.0
H3755 H 0.4158 0.99585 0.36137 0.0
H3756 H 0.41125 0.98784 0.33253 0.0
H3757 H 0.4394 0.01105 0.23645 0.0
H3758 H 0.41997 0.00859 0.25321 0.0
H3759 H 0.42793 0.98454 0.28885 0.0
H3760 H 0.44782 0.98753 0.27256 0.0
H3761 H 0.42216 0.00211 0.3041 0.0
H3762 H 0.40109 0.96876 0.26074 0.0
H3763 H 0.39644 0.96043 0.23205 0.0
H3764 H 0.38068 0.98802 0.22154 0.0
H3765 H 0.38541 0.99665 0.25013 0.0
C3766 C 0.35836 0.97968 0.33236 0.0
C3767 C 0.35133 0.98655 0.32685 0.0
C3768 C 0.37029 0.98152 0.3241 0.0
C3769 C 0.37531 0.9902 0.31019 0.0
C3770 C 0.36838 0.99716 0.30482 0.0
C3771 C 0.35656 0.99542 0.31311 0.0
C3772 C 0.38751 0.99173 0.30083 0.0
C3773 C 0.38562 0.98774 0.28422 0.0
C3774 C 0.40081 0.99684 0.30813 0.0
C3775 C 0.40355 0.00164 0.32547 0.0
C3776 C 0.40085 0.0121 0.33099 0.0
C3777 C 0.40341 0.01654 0.34737 0.0
C3778 C 0.40878 0.01066 0.35831 0.0
C3779 C 0.41162 1.00037 0.35289 0.0
C3780 C 0.40906 0.99588 0.33653 0.0
C3781 C 0.43716 0.00539 0.24795 0.0
C3782 C 0.44515 0.99942 0.25309 0.0
C3783 C 0.42593 0.00386 0.25744 0.0
C3784 C 0.42233 0.99618 0.27216 0.0
C3785 C 0.43045 0.99044 0.27749 0.0
C3786 C 0.44174 0.99204 0.26807 0.0
C3787 C 0.41004 0.99403 0.28192 0.0
C3788 C 0.41188 0.99786 0.2986 0.0
C3789 C 0.39665 0.98865 0.27473 0.0
C3790 C 0.39373 0.98344 0.25754 0.0
C3791 C 0.39673 0.97312 0.25228 0.0
C3792 C 0.39406 0.96834 0.23604 0.0
C3793 C 0.3883 0.97372 0.22497 0.0
C3794 C 0.38516 0.98387 0.23012 0.0
C3795 C 0.38782 0.98871 0.24635 0.0
H3796 H 0.38624 0.97 0.2124 0.0
H3797 H 0.41076 0.01412 0.37098 0.0
H3798 H 0.64306 0.00414 0.32896 0.0
H3799 H 0.6253 0.00677 0.31396 0.0
H3800 H 0.60177 0.9623 0.3058 0.0
H3801 H 0.61942 0.95957 0.32092 0.0
H3802 H 0.60608 0.97843 0.27713 0.0
H3803 H 0.58987 0.97554 0.33275 0.0
H3804 H 0.59218 0.98217 0.36202 0.0
H3805 H 0.60299 0.0239 0.34854 0.0
H3806 H 0.60094 0.01758 0.31916 0.0
H3807 H 0.54435 0.97389 0.24526 0.0
H3808 H 0.56113 0.97083 0.26168 0.0
H3809 H 0.58175 0.01428 0.27556 0.0
H3810 H 0.56467 0.01728 0.2597 0.0
H3811 H 0.57896 0.9986 0.3015 0.0
H3812 H 0.59588 0.00255 0.24661 0.0
H3813 H 0.59467 0.99711 0.21703 0.0
H3814 H 0.58399 0.95505 0.2285 0.0
H3815 H 0.58495 0.96018 0.25817 0.0
C3816 C 0.63403 0.99491 0.3241 0.0
C3817 C 0.6326 0.98165 0.32613 0.0
C3818 C 0.6239 0.99643 0.31556 0.0
C3819 C 0.61222 0.98472 0.30882 0.0
C3820 C 0.61071 0.97146 0.31092 0.0
C3821 C 0.62076 0.96991 0.31962 0.0
C3822 C 0.60177 0.98639 0.29918 0.0
C3823 C 0.59998 0.98264 0.2825 0.0
C3824 C 0.59419 0.99231 0.30609 0.0
C3825 C 0.59539 0.99612 0.32375 0.0
C3826 C 0.59286 0.98617 0.33602 0.0
C3827 C 0.5941 0.98986 0.35264 0.0
C3828 C 0.59777 0.00345 0.35714 0.0
C3829 C 0.60017 0.01338 0.34503 0.0
C3830 C 0.59896 0.00974 0.3284 0.0
C3831 C 0.55238 0.98277 0.25192 0.0
C3832 C 0.55317 0.99584 0.25112 0.0
C3833 C 0.56206 0.98104 0.26117 0.0
C3834 C 0.57281 0.99237 0.26969 0.0
C3835 C 0.57357 0.0054 0.26904 0.0
C3836 C 0.56387 0.00713 0.25983 0.0
C3837 C 0.58319 0.9906 0.27941 0.0
C3838 C 0.58502 0.99436 0.2961 0.0
C3839 C 0.59095 0.98486 0.27245 0.0
C3840 C 0.59034 0.98171 0.25462 0.0
C3841 C 0.59315 0.9921 0.24282 0.0
C3842 C 0.59253 0.98908 0.22604 0.0
C3843 C 0.58921 0.97573 0.22089 0.0
C3844 C 0.58654 0.96538 0.23251 0.0
C3845 C 0.58713 0.96834 0.24931 0.0
H3846 H 0.58874 0.97341 0.20789 0.0
H3847 H 0.59872 0.00629 0.37001 0.0
H3848 H 0.9969 0.63955 0.32984 0.0
H3849 H 0.99496 0.61955 0.31471 0.0
H3850 H 0.03932 0.64234 0.30527 0.0
H3851 H 0.04134 0.66241 0.32042 0.0
H3852 H 0.0237 0.62997 0.2773 0.0
H3853 H 0.02665 0.61661 0.33268 0.0
H3854 H 0.02007 0.61201 0.36196 0.0
H3855 H 0.97857 0.58032 0.34844 0.0
H3856 H 0.98484 0.58486 0.31906 0.0
H3857 H 0.0291 0.57334 0.24505 0.0
H3858 H 0.03191 0.59303 0.26153 0.0
H3859 H 0.98834 0.56974 0.27506 0.0
H3860 H 0.98557 0.54978 0.25913 0.0
H3861 H 0.00397 0.58254 0.3012 0.0
H3862 H 1.00029 0.59587 0.24624 0.0
H3863 H 0.00614 0.60044 0.21678 0.0
H3864 H 0.04799 0.6321 0.2291 0.0
H3865 H 0.04244 0.62758 0.25865 0.0
C3866 C 0.00626 0.64025 0.32468 0.0
C3867 C 0.01928 0.65253 0.32635 0.0
C3868 C 0.00514 0.62881 0.31606 0.0
C3869 C 0.01701 0.62944 0.30893 0.0
C3870 C 0.03004 0.64165 0.31069 0.0
C3871 C 0.03119 0.65307 0.31941 0.0
C3872 C 0.01571 0.61751 0.29922 0.0
C3873 C 0.01959 0.61964 0.28257 0.0
C3874 C 0.00998 0.60396 0.30601 0.0
C3875 C 0.00619 0.60117 0.32367 0.0
C3876 C 0.01609 0.60874 0.33595 0.0
C3877 C 0.01242 0.60613 0.35256 0.0
C3878 C 0.9989 0.5959 0.35706 0.0
C3879 C 0.98903 0.58825 0.34494 0.0
C3880 C 0.99264 0.59082 0.3283 0.0
C3881 C 0.02013 0.57235 0.25164 0.0
C3882 C 0.0071 0.55997 0.25074 0.0
C3883 C 0.02172 0.58368 0.26092 0.0
C3884 C 0.01029 0.58293 0.26939 0.0
C3885 C 0.99729 0.57057 0.26859 0.0
C3886 C 0.9957 0.55922 0.25934 0.0
C3887 C 0.01194 0.59497 0.27923 0.0
C3888 C 0.00811 0.59287 0.29591 0.0
C3889 C 0.01762 0.60853 0.27243 0.0
C3890 C 0.02099 0.61128 0.25466 0.0
C3891 C 0.01078 0.60372 0.24267 0.0
C3892 C 0.01403 0.60632 0.22595 0.0
C3893 C 0.02744 0.61652 0.22107 0.0
C3894 C 0.03761 0.62418 0.2329 0.0
C3895 C 0.03441 0.62161 0.24964 0.0
H3896 H 0.02994 0.61852 0.20812 0.0
H3897 H 0.99608 0.5939 0.36992 0.0
H3898 H 0.35612 0.38071 0.34297 0.0
H3899 H 0.37697 0.39864 0.32873 0.0
H3900 H 0.36884 0.37018 0.28843 0.0
H3901 H 0.34831 0.35215 0.30281 0.0
H3902 H 0.39545 0.3833 0.29517 0.0
H3903 H 0.36116 0.39728 0.28664 0.0
H3904 H 0.3437 0.40372 0.29503 0.0
H3905 H 0.37503 0.43839 0.32263 0.0
H3906 H 0.39265 0.43204 0.31457 0.0
H3907 H 0.43787 0.43141 0.23367 0.0
H3908 H 0.41803 0.41415 0.24978 0.0
H3909 H 0.43003 0.44331 0.29004 0.0
H3910 H 0.44997 0.46061 0.27406 0.0
H3911 H 0.40212 0.43036 0.28434 0.0
H3912 H 0.43661 0.41656 0.29158 0.0
H3913 H 0.45385 0.41006 0.28244 0.0
H3914 H 0.42171 0.37484 0.25636 0.0
H3915 H 0.40431 0.38125 0.26516 0.0
C3916 C 0.35882 0.37829 0.33109 0.0
C3917 C 0.35058 0.36505 0.32399 0.0
C3918 C 0.37069 0.38856 0.32291 0.0
C3919 C 0.37439 0.38584 0.30738 0.0
C3920 C 0.36622 0.37255 0.30039 0.0
C3921 C 0.35446 0.36226 0.30861 0.0
C3922 C 0.38676 0.39675 0.29834 0.0
C3923 C 0.39681 0.39353 0.29265 0.0
C3924 C 0.38874 0.41023 0.29534 0.0
C3925 C 0.37818 0.4141 0.30014 0.0
C3926 C 0.3643 0.40621 0.2946 0.0
C3927 C 0.35438 0.40986 0.29927 0.0
C3928 C 0.35825 0.42143 0.30939 0.0
C3929 C 0.37205 0.42941 0.31481 0.0
C3930 C 0.38201 0.4258 0.31018 0.0
C3931 C 0.43637 0.43412 0.24601 0.0
C3932 C 0.44556 0.44738 0.25259 0.0
C3933 C 0.425 0.42424 0.25519 0.0
C3934 C 0.42263 0.42739 0.27119 0.0
C3935 C 0.43165 0.44067 0.27772 0.0
C3936 C 0.44303 0.45056 0.26854 0.0
C3937 C 0.41069 0.41683 0.28107 0.0
C3938 C 0.40075 0.42013 0.28692 0.0
C3939 C 0.40876 0.40339 0.28413 0.0
C3940 C 0.41919 0.39946 0.27892 0.0
C3941 C 0.43324 0.40749 0.2838 0.0
C3942 C 0.44304 0.40381 0.2787 0.0
C3943 C 0.43889 0.39206 0.26879 0.0
C3944 C 0.42492 0.38394 0.26401 0.0
C3945 C 0.41508 0.38759 0.26907 0.0
H3946 H 0.44648 0.38923 0.26485 0.0
H3947 H 0.35055 0.42424 0.313 0.0
H3948 H 0.29574 0.28794 0.37092 0.0
H3949 H 0.2982 0.26998 0.38567 0.0
H3950 H 0.34296 0.29419 0.37987 0.0
H3951 H 0.3406 0.31226 0.36525 0.0
H3952 H 0.33145 0.2653 0.37336 0.0
H3953 H 0.33006 0.29551 0.41508 0.0
H3954 H 0.32002 0.30809 0.42943 0.0
H3955 H 0.28278 0.26921 0.43996 0.0
H3956 H 0.29252 0.25641 0.42545 0.0
H3957 H 0.35236 0.2322 0.43197 0.0
H3958 H 0.34929 0.24925 0.41623 0.0
H3959 H 0.30556 0.22795 0.42912 0.0
H3960 H 0.30868 0.21125 0.44557 0.0
H3961 H 0.31601 0.25503 0.43155 0.0
H3962 H 0.31693 0.22453 0.39059 0.0
H3963 H 0.3262 0.21148 0.37578 0.0
H3964 H 0.3632 0.24992 0.36315 0.0
H3965 H 0.35422 0.2632 0.37809 0.0
C3966 C 0.3061 0.28938 0.37268 0.0
C3967 C 0.31799 0.30151 0.36699 0.0
C3968 C 0.30748 0.27915 0.38115 0.0
C3969 C 0.32077 0.28083 0.38396 0.0
C3970 C 0.33262 0.29272 0.37783 0.0
C3971 C 0.33126 0.30303 0.36953 0.0
C3972 C 0.32234 0.27038 0.39369 0.0
C3973 C 0.32823 0.26314 0.38614 0.0
C3974 C 0.3178 0.26735 0.41022 0.0
C3975 C 0.31196 0.27502 0.41902 0.0
C3976 C 0.31968 0.28965 0.42033 0.0
C3977 C 0.31405 0.29682 0.42852 0.0
C3978 C 0.30076 0.28946 0.43556 0.0
C3979 C 0.29307 0.2749 0.43448 0.0
C3980 C 0.29864 0.26769 0.42628 0.0
C3981 C 0.34211 0.23122 0.43164 0.0
C3982 C 0.33076 0.2203 0.44003 0.0
C3983 C 0.34034 0.24089 0.42245 0.0
C3984 C 0.32714 0.23976 0.42125 0.0
C3985 C 0.31582 0.22899 0.42977 0.0
C3986 C 0.31761 0.21937 0.43906 0.0
C3987 C 0.32516 0.24989 0.41125 0.0
C3988 C 0.31921 0.2571 0.41876 0.0
C3989 C 0.32953 0.2528 0.39462 0.0
C3990 C 0.33496 0.24485 0.3856 0.0
C3991 C 0.32709 0.2302 0.38477 0.0
C3992 C 0.33228 0.22276 0.37633 0.0
C3993 C 0.3453 0.22986 0.36857 0.0
C3994 C 0.35313 0.24443 0.36919 0.0
C3995 C 0.34798 0.25192 0.37763 0.0
H3996 H 0.3493 0.22408 0.36204 0.0
H3997 H 0.29642 0.29502 0.4419 0.0
H3998 H 0.68518 0.01042 0.39108 0.0
H3999 H 0.70319 0.03153 0.40449 0.0
H4000 H 0.72909 0.04179 0.3612 0.0
H4001 H 0.71111 0.02043 0.34775 0.0
H4002 H 0.74417 0.04589 0.38885 0.0
H4003 H 0.71143 0.05897 0.3697 0.0
H4004 H 0.6882 0.05659 0.36598 0.0
H4005 H 0.684 0.05848 0.41828 0.0
H4006 H 0.70713 0.06068 0.42234 0.0
H4007 H 0.79153 0.11507 0.41649 0.0
H4008 H 0.77459 0.09494 0.40047 0.0
H4009 H 0.7455 0.08186 0.44099 0.0
H4010 H 0.76235 0.10202 0.457 0.0
H4011 H 0.73254 0.08002 0.41285 0.0
H4012 H 0.76465 0.06569 0.43208 0.0
H4013 H 0.78779 0.0679 0.43595 0.0
H4014 H 0.79312 0.06827 0.38359 0.0
H4015 H 0.77008 0.06625 0.37941 0.0
C4016 C 0.6947 0.01717 0.38438 0.0
C4017 C 0.69671 0.01382 0.36832 0.0
C4018 C 0.70496 0.02927 0.39205 0.0
C4019 C 0.7174 0.03837 0.38376 0.0
C4020 C 0.71954 0.03495 0.36779 0.0
C4021 C 0.70926 0.02278 0.36011 0.0
C4022 C 0.72816 0.05135 0.39192 0.0
C4023 C 0.7417 0.05348 0.39386 0.0
C4024 C 0.72486 0.06111 0.39873 0.0
C4025 C 0.71098 0.05988 0.39633 0.0
C4026 C 0.70552 0.05878 0.38042 0.0
C4027 C 0.69237 0.05748 0.37825 0.0
C4028 C 0.68462 0.05735 0.39189 0.0
C4029 C 0.69001 0.05857 0.40773 0.0
C4030 C 0.70315 0.05986 0.40997 0.0
C4031 C 0.78156 0.10783 0.42202 0.0
C4032 C 0.77828 0.11011 0.43803 0.0
C4033 C 0.77189 0.09633 0.41286 0.0
C4034 C 0.75882 0.08679 0.41958 0.0
C4035 C 0.7555 0.08909 0.43552 0.0
C4036 C 0.76513 0.10063 0.44465 0.0
C4037 C 0.74851 0.07446 0.41001 0.0
C4038 C 0.73504 0.07247 0.40777 0.0
C4039 C 0.75188 0.06483 0.40294 0.0
C4040 C 0.7657 0.06597 0.40544 0.0
C4041 C 0.7708 0.06635 0.42139 0.0
C4042 C 0.78389 0.06755 0.42364 0.0
C4043 C 0.79194 0.06826 0.41002 0.0
C4044 C 0.78689 0.06774 0.39413 0.0
C4045 C 0.77381 0.06656 0.39181 0.0
H4046 H 0.80207 0.06919 0.41179 0.0
H4047 H 0.67444 0.05634 0.39018 0.0
H4048 H 0.97685 0.68785 0.34734 0.0
H4049 H 0.95568 0.68448 0.36121 0.0
H4050 H 0.96984 0.67554 0.40665 0.0
H4051 H 0.99072 0.67849 0.39278 0.0
H4052 H 0.94346 0.6576 0.40268 0.0
H4053 H 0.97177 0.7075 0.39891 0.0
H4054 H 0.98579 0.73016 0.38496 0.0
H4055 H 0.95019 0.72249 0.35594 0.0
H4056 H 0.93599 0.69969 0.36958 0.0
H4057 H 0.90193 0.66839 0.46084 0.0
H4058 H 0.92168 0.67127 0.44421 0.0
H4059 H 0.90047 0.67214 0.40009 0.0
H4060 H 0.88064 0.66924 0.41669 0.0
H4061 H 0.92919 0.69352 0.40183 0.0
H4062 H 0.90072 0.64377 0.40762 0.0
H4063 H 0.88718 0.62174 0.42296 0.0
H4064 H 0.924 0.63002 0.44978 0.0
H4065 H 0.93772 0.65221 0.43477 0.0
C4066 C 0.97542 0.68518 0.36028 0.0
C4067 C 0.98542 0.68343 0.36898 0.0
C4068 C 0.96336 0.68331 0.36822 0.0
C4069 C 0.96121 0.67988 0.38504 0.0
C4070 C 0.97122 0.67814 0.39368 0.0
C4071 C 0.98318 0.67987 0.38573 0.0
C4072 C 0.94852 0.67793 0.39371 0.0
C4073 C 0.94045 0.66554 0.40261 0.0
C4074 C 0.94436 0.68813 0.39336 0.0
C4075 C 0.95287 0.70182 0.38513 0.0
C4076 C 0.96696 0.71059 0.38946 0.0
C4077 C 0.97494 0.72347 0.38162 0.0
C4078 C 0.9689 0.72774 0.36953 0.0
C4079 C 0.95486 0.71916 0.36529 0.0
C4080 C 0.94684 0.70626 0.37307 0.0
C4081 C 0.90152 0.66926 0.4476 0.0
C4082 C 0.88976 0.66856 0.44004 0.0
C4083 C 0.91276 0.67083 0.43812 0.0
C4084 C 0.91248 0.67184 0.42093 0.0
C4085 C 0.90085 0.67136 0.41335 0.0
C4086 C 0.88952 0.66961 0.42281 0.0
C4087 C 0.92435 0.67333 0.41092 0.0
C4088 C 0.93221 0.68559 0.40178 0.0
C4089 C 0.92843 0.6631 0.4112 0.0
C4090 C 0.92022 0.64972 0.42017 0.0
C4091 C 0.9059 0.64095 0.41689 0.0
C4092 C 0.8982 0.62842 0.4255 0.0
C4093 C 0.90472 0.6245 0.43737 0.0
C4094 C 0.91896 0.63308 0.4406 0.0
C4095 C 0.92671 0.64563 0.43203 0.0
H4096 H 0.89874 0.6148 0.44402 0.0
H4097 H 0.97508 0.73772 0.36349 0.0
H4098 H 0.3531 0.00949 0.72578 0.0
H4099 H 0.37108 0.00724 0.74068 0.0
H4100 H 0.39488 0.01539 0.69592 0.0
H4101 H 0.37697 0.01788 0.68091 0.0
H4102 H 0.39196 0.99208 0.71514 0.0
H4103 H 0.40556 0.04038 0.7213 0.0
H4104 H 0.40219 0.06015 0.72836 0.0
H4105 H 0.39298 0.0458 0.77833 0.0
H4106 H 0.39597 0.02575 0.77149 0.0
H4107 H 0.45402 0.00157 0.75285 0.0
H4108 H 0.43707 0.00436 0.73639 0.0
H4109 H 0.41628 0.00556 0.78079 0.0
H4110 H 0.43346 0.00314 0.79729 0.0
H4111 H 0.41811 0.02461 0.76071 0.0
H4112 H 0.4031 0.97599 0.75514 0.0
H4113 H 0.4056 0.95557 0.74881 0.0
H4114 H 0.41639 0.96956 0.69889 0.0
H4115 H 0.41414 0.99018 0.70498 0.0
C4116 C 0.36213 0.01075 0.71907 0.0
C4117 C 0.36365 0.01388 0.70218 0.0
C4118 C 0.37241 0.0095 0.72762 0.0
C4119 C 0.38433 0.01123 0.71941 0.0
C4120 C 0.38575 0.01404 0.70246 0.0
C4121 C 0.37555 0.01549 0.69393 0.0
C4122 C 0.39535 0.01023 0.72864 0.0
C4123 C 0.39785 0.9993 0.72495 0.0
C4124 C 0.40272 0.01945 0.74171 0.0
C4125 C 0.40084 0.03147 0.74583 0.0
C4126 C 0.40265 0.04134 0.73375 0.0
C4127 C 0.40083 0.05261 0.73772 0.0
C4128 C 0.39732 0.05421 0.75377 0.0
C4129 C 0.39565 0.04453 0.76589 0.0
C4130 C 0.3974 0.03321 0.76197 0.0
C4131 C 0.44578 0.00235 0.75908 0.0
C4132 C 0.44502 0.00207 0.77635 0.0
C4133 C 0.43608 0.00392 0.74967 0.0
C4134 C 0.42523 0.00495 0.75731 0.0
C4135 C 0.42454 0.00479 0.77458 0.0
C4136 C 0.43435 0.0034 0.78401 0.0
C4137 C 0.4147 0.00635 0.74736 0.0
C4138 C 0.41228 0.01738 0.7509 0.0
C4139 C 0.40727 0.99711 0.73428 0.0
C4140 C 0.40859 0.9847 0.73056 0.0
C4141 C 0.40611 0.97477 0.74285 0.0
C4142 C 0.40747 0.96315 0.7393 0.0
C4143 C 0.41119 0.96129 0.72347 0.0
C4144 C 0.41353 0.97103 0.71115 0.0
C4145 C 0.41221 0.98267 0.71464 0.0
H4146 H 0.41223 0.95228 0.72075 0.0
H4147 H 0.39596 0.06296 0.75682 0.0
H4148 H 0.00904 0.35912 0.70288 0.0
H4149 H 0.01193 0.3797 0.7175 0.0
H4150 H 0.96842 0.36626 0.70922 0.0
H4151 H 0.96567 0.346 0.69396 0.0
H4152 H 0.98252 0.39282 0.70587 0.0
H4153 H 0.98107 0.36144 0.74703 0.0
H4154 H 0.98768 0.34581 0.76098 0.0
H4155 H 0.02941 0.38008 0.76783 0.0
H4156 H 0.02308 0.39589 0.75375 0.0
H4157 H 0.97577 0.43153 0.77264 0.0
H4158 H 0.97384 0.41228 0.75601 0.0
H4159 H 0.01866 0.43331 0.75129 0.0
H4160 H 0.02076 0.45303 0.76711 0.0
H4161 H 0.00404 0.40331 0.76141 0.0
H4162 H 0.00342 0.43457 0.72007 0.0
H4163 H 0.9946 0.44902 0.70774 0.0
H4164 H 0.95368 0.41293 0.70338 0.0
H4165 H 0.96221 0.3983 0.71593 0.0
C4166 C 1.00013 0.36063 0.70407 0.0
C4167 C 0.98712 0.35094 0.69736 0.0
C4168 C 0.00176 0.37235 0.71253 0.0
C4169 C 0.99032 0.37441 0.7148 0.0
C4170 C 0.97741 0.36491 0.70769 0.0
C4171 C 0.97583 0.35332 0.69898 0.0
C4172 C 0.99175 0.38633 0.72476 0.0
C4173 C 0.98709 0.39499 0.71808 0.0
C4174 C 0.99779 0.38928 0.74069 0.0
C4175 C 0.00164 0.37981 0.74919 0.0
C4176 C 0.99168 0.36562 0.75141 0.0
C4177 C 0.99537 0.35673 0.75935 0.0
C4178 C 0.00897 0.36194 0.76524 0.0
C4179 C 0.01889 0.37606 0.76324 0.0
C4180 C 0.01525 0.38499 0.75529 0.0
C4181 C 0.98524 0.43224 0.76787 0.0
C4182 C 0.99843 0.44395 0.77123 0.0
C4183 C 0.9841 0.42115 0.75847 0.0
C4184 C 0.99611 0.42143 0.75244 0.0
C4185 C 0.00928 0.43291 0.75593 0.0
C4186 C 0.01044 0.44413 0.76508 0.0
C4187 C 0.99489 0.4097 0.74244 0.0
C4188 C 0.99954 0.4011 0.74916 0.0
C4189 C 0.98853 0.4066 0.72675 0.0
C4190 C 0.98343 0.41537 0.71909 0.0
C4191 C 0.99251 0.42974 0.71662 0.0
C4192 C 0.98757 0.43796 0.70956 0.0
C4193 C 0.97358 0.4319 0.70482 0.0
C4194 C 0.96451 0.41761 0.70708 0.0
C4195 C 0.9694 0.40935 0.71415 0.0
H4196 H 0.96977 0.43828 0.69936 0.0
H4197 H 0.01181 0.35504 0.77139 0.0
H4198 H 0.63934 0.64699 0.69845 0.0
H4199 H 0.61871 0.62912 0.71291 0.0
H4200 H 0.63788 0.60356 0.71691 0.0
H4201 H 0.65832 0.6212 0.70184 0.0
H4202 H 0.61148 0.58762 0.7106 0.0
H4203 H 0.6373 0.62403 0.74958 0.0
H4204 H 0.64954 0.64813 0.76023 0.0
H4205 H 0.61158 0.64969 0.757 0.0
H4206 H 0.59916 0.62565 0.74612 0.0
H4207 H 0.56944 0.54513 0.77704 0.0
H4208 H 0.58906 0.56214 0.76049 0.0
H4209 H 0.56664 0.58375 0.74978 0.0
H4210 H 0.54674 0.56654 0.76586 0.0
H4211 H 0.59443 0.60149 0.75952 0.0
H4212 H 0.56876 0.56409 0.72101 0.0
H4213 H 0.55715 0.53967 0.71149 0.0
H4214 H 0.59587 0.53968 0.71544 0.0
H4215 H 0.60768 0.56405 0.72523 0.0
C4216 C 0.6391 0.63751 0.7023 0.0
C4217 C 0.65046 0.63552 0.69911 0.0
C4218 C 0.62734 0.62734 0.71066 0.0
C4219 C 0.62685 0.61511 0.71634 0.0
C4220 C 0.63803 0.61292 0.71272 0.0
C4221 C 0.64971 0.62302 0.70413 0.0
C4222 C 0.61479 0.60472 0.72627 0.0
C4223 C 0.60788 0.59065 0.72141 0.0
C4224 C 0.60992 0.60865 0.74027 0.0
C4225 C 0.61734 0.62309 0.74688 0.0
C4226 C 0.63159 0.62955 0.75103 0.0
C4227 C 0.63855 0.64319 0.75713 0.0
C4228 C 0.63135 0.65045 0.75925 0.0
C4229 C 0.61716 0.64406 0.75533 0.0
C4230 C 0.61015 0.63042 0.74921 0.0
C4231 C 0.56856 0.55338 0.771 0.0
C4232 C 0.55643 0.55439 0.77276 0.0
C4233 C 0.57984 0.56313 0.7616 0.0
C4234 C 0.57925 0.57414 0.75382 0.0
C4235 C 0.56729 0.57534 0.75572 0.0
C4236 C 0.55596 0.56552 0.765 0.0
C4237 C 0.59118 0.58448 0.74381 0.0
C4238 C 0.59806 0.59851 0.74868 0.0
C4239 C 0.59614 0.58048 0.72998 0.0
C4240 C 0.58907 0.56585 0.72401 0.0
C4241 C 0.57477 0.55885 0.71998 0.0
C4242 C 0.56816 0.54502 0.71451 0.0
C4243 C 0.57576 0.53811 0.7129 0.0
C4244 C 0.58999 0.54503 0.71672 0.0
C4245 C 0.59666 0.55886 0.72221 0.0
H4246 H 0.57062 0.5274 0.70866 0.0
H4247 H 0.63676 0.66101 0.76397 0.0
H4248 H 0.66903 0.68687 0.63933 0.0
H4249 H 0.66777 0.70567 0.62518 0.0
H4250 H 0.69725 0.73554 0.65963 0.0
H4251 H 0.69861 0.7167 0.6739 0.0
H4252 H 0.67417 0.73914 0.65315 0.0
H4253 H 0.70867 0.73403 0.62303 0.0
H4254 H 0.71792 0.72101 0.60809 0.0
H4255 H 0.68522 0.70795 0.5722 0.0
H4256 H 0.67564 0.72073 0.58707 0.0
H4257 H 0.6847 0.79785 0.60623 0.0
H4258 H 0.68851 0.78116 0.62175 0.0
H4259 H 0.66457 0.74929 0.58585 0.0
H4260 H 0.6614 0.76609 0.56978 0.0
H4261 H 0.68651 0.7478 0.59395 0.0
H4262 H 0.65098 0.75117 0.62421 0.0
H4263 H 0.64063 0.76319 0.63915 0.0
H4264 H 0.67388 0.77846 0.67457 0.0
H4265 H 0.68453 0.76667 0.65971 0.0
C4266 C 0.67522 0.69743 0.64395 0.0
C4267 C 0.68396 0.70033 0.65769 0.0
C4268 C 0.67452 0.70816 0.63581 0.0
C4269 C 0.68252 0.72201 0.64126 0.0
C4270 C 0.69102 0.72492 0.65522 0.0
C4271 C 0.69181 0.71417 0.66332 0.0
C4272 C 0.68206 0.73339 0.63218 0.0
C4273 C 0.67709 0.74122 0.64028 0.0
C4274 C 0.68556 0.73584 0.61529 0.0
C4275 C 0.69137 0.72824 0.60624 0.0
C4276 C 0.70339 0.7283 0.61202 0.0
C4277 C 0.7087 0.72097 0.60355 0.0
C4278 C 0.70215 0.71363 0.58922 0.0
C4279 C 0.69028 0.71363 0.58331 0.0
C4280 C 0.68492 0.72092 0.59174 0.0
C4281 C 0.6804 0.78735 0.6015 0.0
C4282 C 0.67268 0.78333 0.58676 0.0
C4283 C 0.68244 0.77775 0.61052 0.0
C4284 C 0.67664 0.76388 0.60513 0.0
C4285 C 0.6691 0.7599 0.59032 0.0
C4286 C 0.66716 0.76951 0.58122 0.0
C4287 C 0.67842 0.75348 0.61483 0.0
C4288 C 0.68367 0.74582 0.60685 0.0
C4289 C 0.67503 0.7511 0.63179 0.0
C4290 C 0.66864 0.75817 0.64075 0.0
C4291 C 0.65615 0.75718 0.63512 0.0
C4292 C 0.65022 0.76394 0.64358 0.0
C4293 C 0.65662 0.77162 0.65777 0.0
C4294 C 0.66895 0.77253 0.66356 0.0
C4295 C 0.67493 0.7658 0.65513 0.0
H4296 H 0.65201 0.77684 0.66431 0.0
H4297 H 0.70627 0.70797 0.58269 0.0
H4298 H 0.28704 0.98745 0.6608 0.0
H4299 H 0.2698 0.96657 0.64622 0.0
H4300 H 0.29996 0.95288 0.64159 0.0
H4301 H 0.31746 0.97415 0.65545 0.0
H4302 H 0.28761 0.94887 0.61416 0.0
H4303 H 0.27081 0.9375 0.66926 0.0
H4304 H 0.26308 0.94089 0.69647 0.0
H4305 H 0.22923 0.94327 0.6739 0.0
H4306 H 0.23687 0.94008 0.64653 0.0
H4307 H 0.23643 0.87888 0.59121 0.0
H4308 H 0.25373 0.89891 0.60698 0.0
H4309 H 0.22985 0.91955 0.60005 0.0
H4310 H 0.21284 0.89993 0.58354 0.0
H4311 H 0.23888 0.91914 0.63374 0.0
H4312 H 0.25696 0.93063 0.57824 0.0
H4313 H 0.26484 0.92602 0.55182 0.0
H4314 H 0.29668 0.92171 0.5768 0.0
H4315 H 0.28885 0.9261 0.60343 0.0
C4316 C 0.28994 0.97991 0.6568 0.0
C4317 C 0.30357 0.98239 0.6593 0.0
C4318 C 0.28005 0.96793 0.64853 0.0
C4319 C 0.28345 0.95796 0.64299 0.0
C4320 C 0.29704 0.96037 0.64571 0.0
C4321 C 0.30702 0.9725 0.6537 0.0
C4322 C 0.27305 0.94536 0.63377 0.0
C4323 C 0.27704 0.94226 0.61864 0.0
C4324 C 0.25914 0.93679 0.63938 0.0
C4325 C 0.25449 0.93868 0.65583 0.0
C4326 C 0.26178 0.93885 0.67009 0.0
C4327 C 0.25741 0.94072 0.68554 0.0
C4328 C 0.2457 0.94232 0.68691 0.0
C4329 C 0.23831 0.94203 0.67282 0.0
C4330 C 0.24265 0.94018 0.65734 0.0
C4331 C 0.23492 0.88775 0.59276 0.0
C4332 C 0.22318 0.88772 0.58599 0.0
C4333 C 0.24478 0.89914 0.60191 0.0
C4334 C 0.24304 0.91068 0.60466 0.0
C4335 C 0.23132 0.91068 0.59813 0.0
C4336 C 0.22156 0.8994 0.58876 0.0
C4337 C 0.25351 0.9228 0.61429 0.0
C4338 C 0.24951 0.92577 0.62943 0.0
C4339 C 0.26746 0.93109 0.60885 0.0
C4340 C 0.27222 0.92854 0.59284 0.0
C4341 C 0.26556 0.92858 0.57812 0.0
C4342 C 0.27003 0.92603 0.5631 0.0
C4343 C 0.28122 0.92354 0.56263 0.0
C4344 C 0.288 0.92362 0.57719 0.0
C4345 C 0.28355 0.92615 0.59224 0.0
H4346 H 0.28467 0.92157 0.55099 0.0
H4347 H 0.24233 0.94377 0.69888 0.0
H4348 H 0.01211 0.32607 0.63159 0.0
H4349 H 0.03299 0.3291 0.6175 0.0
H4350 H 0.04763 0.32055 0.66276 0.0
H4351 H 0.0266 0.31731 0.67696 0.0
H4352 H 0.0685 0.3443 0.64414 0.0
H4353 H 0.03421 0.29572 0.63696 0.0
H4354 H 0.0111 0.27605 0.62928 0.0
H4355 H 0.01687 0.29144 0.57974 0.0
H4356 H 0.03994 0.31133 0.58718 0.0
H4357 H 0.12201 0.33514 0.60836 0.0
H4358 H 0.10199 0.33246 0.62418 0.0
H4359 H 0.08088 0.33133 0.57905 0.0
H4360 H 0.10075 0.33365 0.5632 0.0
H4361 H 0.06325 0.31215 0.59863 0.0
H4362 H 0.09666 0.36075 0.60488 0.0
H4363 H 0.11941 0.3813 0.61178 0.0
H4364 H 0.11516 0.36721 0.66178 0.0
H4365 H 0.09246 0.34646 0.65513 0.0
C4366 C 0.0198 0.3249 0.63858 0.0
C4367 C 0.01772 0.32141 0.65537 0.0
C4368 C 0.0317 0.3266 0.6305 0.0
C4369 C 0.04179 0.32496 0.63908 0.0
C4370 C 0.03994 0.32185 0.65594 0.0
C4371 C 0.02793 0.31996 0.66401 0.0
C4372 C 0.05408 0.32619 0.63026 0.0
C4373 C 0.06742 0.33717 0.63435 0.0
C4374 C 0.05256 0.3171 0.61721 0.0
C4375 C 0.03874 0.30509 0.61267 0.0
C4376 C 0.0305 0.29497 0.62446 0.0
C4377 C 0.01742 0.28377 0.62014 0.0
C4378 C 0.01251 0.28251 0.60404 0.0
C4379 C 0.02069 0.29244 0.59221 0.0
C4380 C 0.03377 0.30367 0.59647 0.0
C4381 C 0.11313 0.33441 0.60184 0.0
C4382 C 0.11294 0.33463 0.58456 0.0
C4383 C 0.1017 0.33291 0.61089 0.0
C4384 C 0.08997 0.33189 0.60284 0.0
C4385 C 0.08978 0.33208 0.58556 0.0
C4386 C 0.10113 0.3334 0.57651 0.0
C4387 C 0.0778 0.33037 0.61236 0.0
C4388 C 0.06442 0.3193 0.60843 0.0
C4389 C 0.07929 0.33951 0.62541 0.0
C4390 C 0.09293 0.35198 0.62946 0.0
C4391 C 0.10063 0.36198 0.61732 0.0
C4392 C 0.11351 0.37367 0.62119 0.0
C4393 C 0.11875 0.37554 0.6372 0.0
C4394 C 0.1111 0.36573 0.64938 0.0
C4395 C 0.09822 0.35401 0.64557 0.0
H4396 H 0.12872 0.3846 0.64018 0.0
H4397 H 0.00238 0.27383 0.60072 0.0
H4398 H 0.3157 0.3271 0.63284 0.0
H4399 H 0.29829 0.33066 0.61867 0.0
H4400 H 0.27299 0.31866 0.66264 0.0
H4401 H 0.29016 0.31445 0.67665 0.0
H4402 H 0.25687 0.30731 0.63783 0.0
H4403 H 0.29309 0.35379 0.6491 0.0
H4404 H 0.3171 0.3739 0.64973 0.0
H4405 H 0.31871 0.37395 0.59695 0.0
H4406 H 0.29477 0.35371 0.59601 0.0
H4407 H 0.21404 0.33436 0.60793 0.0
H4408 H 0.23125 0.33161 0.62407 0.0
H4409 H 0.25306 0.33301 0.57949 0.0
H4410 H 0.23583 0.33567 0.56328 0.0
H4411 H 0.27054 0.35046 0.60583 0.0
H4412 H 0.23377 0.30294 0.59578 0.0
H4413 H 0.2094 0.2835 0.59633 0.0
H4414 H 0.20857 0.28667 0.64892 0.0
H4415 H 0.23289 0.30628 0.64865 0.0
C4416 C 0.30645 0.32527 0.63951 0.0
C4417 C 0.30431 0.32057 0.65588 0.0
C4418 C 0.29653 0.32739 0.63142 0.0
C4419 C 0.28443 0.32522 0.63966 0.0
C4420 C 0.28225 0.32047 0.65602 0.0
C4421 C 0.29208 0.3181 0.66404 0.0
C4422 C 0.27392 0.32757 0.63101 0.0
C4423 C 0.25986 0.31686 0.63109 0.0
C4424 C 0.27778 0.33995 0.62199 0.0
C4425 C 0.29217 0.35216 0.62249 0.0
C4426 C 0.2986 0.35803 0.63763 0.0
C4427 C 0.31219 0.36946 0.63804 0.0
C4428 C 0.31943 0.37518 0.62339 0.0
C4429 C 0.31309 0.3695 0.60829 0.0
C4430 C 0.2995 0.35806 0.60781 0.0
C4431 C 0.22255 0.33414 0.6016 0.0
C4432 C 0.22361 0.3352 0.58437 0.0
C4433 C 0.23231 0.33251 0.61081 0.0
C4434 C 0.24337 0.33206 0.60294 0.0
C4435 C 0.24458 0.33333 0.58576 0.0
C4436 C 0.23471 0.33476 0.57653 0.0
C4437 C 0.25366 0.33018 0.61261 0.0
C4438 C 0.26763 0.34098 0.61271 0.0
C4439 C 0.24969 0.31801 0.622 0.0
C4440 C 0.2351 0.30617 0.62218 0.0
C4441 C 0.22835 0.29958 0.60744 0.0
C4442 C 0.21456 0.28851 0.60771 0.0
C4443 C 0.20743 0.28388 0.62264 0.0
C4444 C 0.2141 0.29028 0.63735 0.0
C4445 C 0.22789 0.30136 0.63716 0.0
H4446 H 0.19675 0.27531 0.62282 0.0
H4447 H 0.32996 0.38403 0.62373 0.0
H4448 H 0.67194 0.97172 0.67924 0.0
H4449 H 0.6678 0.95049 0.66499 0.0
H4450 H 0.67646 0.97217 0.61847 0.0
H4451 H 0.67961 0.99299 0.63261 0.0
H4452 H 0.65683 0.94821 0.61342 0.0
H4453 H 0.70073 0.96495 0.64083 0.0
H4454 H 0.71716 0.97281 0.66421 0.0
H4455 H 0.6925 0.93306 0.68778 0.0
H4456 H 0.67582 0.92502 0.66463 0.0
H4457 H 0.67923 0.90537 0.57038 0.0
H4458 H 0.68056 0.92484 0.58635 0.0
H4459 H 0.65031 0.89565 0.62069 0.0
H4460 H 0.64862 0.8761 0.60448 0.0
H4461 H 0.67984 0.92207 0.63239 0.0
H4462 H 0.63624 0.90628 0.60201 0.0
H4463 H 0.62246 0.8997 0.57638 0.0
H4464 H 0.65046 0.94003 0.55583 0.0
H4465 H 0.66453 0.94676 0.58127 0.0
C4466 C 0.67288 0.97187 0.66597 0.0
C4467 C 0.6761 0.98396 0.65701 0.0
C4468 C 0.67063 0.95978 0.65782 0.0
C4469 C 0.67209 0.95973 0.64062 0.0
C4470 C 0.67523 0.97185 0.63171 0.0
C4471 C 0.67707 0.98378 0.63981 0.0
C4472 C 0.67036 0.94714 0.6318 0.0
C4473 C 0.66199 0.94263 0.61758 0.0
C4474 C 0.67695 0.93964 0.63715 0.0
C4475 C 0.68695 0.94444 0.65109 0.0
C4476 C 0.69876 0.95792 0.65106 0.0
C4477 C 0.70812 0.96241 0.66426 0.0
C4478 C 0.70585 0.95346 0.67749 0.0
C4479 C 0.69423 0.93999 0.67754 0.0
C4480 C 0.68483 0.93546 0.66438 0.0
C4481 C 0.67286 0.90314 0.58133 0.0
C4482 C 0.6638 0.88929 0.58623 0.0
C4483 C 0.67362 0.91423 0.59039 0.0
C4484 C 0.66553 0.91162 0.60465 0.0
C4485 C 0.65661 0.89781 0.6097 0.0
C4486 C 0.65561 0.8867 0.60043 0.0
C4487 C 0.66642 0.92339 0.61422 0.0
C4488 C 0.67465 0.9277 0.62846 0.0
C4489 C 0.66006 0.93094 0.60867 0.0
C4490 C 0.65152 0.92695 0.59346 0.0
C4491 C 0.63953 0.91369 0.59196 0.0
C4492 C 0.63165 0.90995 0.57749 0.0
C4493 C 0.6356 0.91943 0.56446 0.0
C4494 C 0.64742 0.93269 0.56592 0.0
C4495 C 0.65534 0.93647 0.58037 0.0
H4496 H 0.62949 0.91651 0.55327 0.0
H4497 H 0.71311 0.95694 0.6877 0.0
H4498 H 0.02929 0.6919 0.67121 0.0
H4499 H 0.05031 0.70908 0.65667 0.0
H4500 H 0.0282 0.72938 0.63893 0.0
H4501 H 0.00706 0.71201 0.6531 0.0
H4502 H 0.04157 0.72564 0.61458 0.0
H4503 H 0.0539 0.74388 0.66952 0.0
H4504 H 0.05777 0.74294 0.69925 0.0
H4505 H 0.08902 0.73177 0.68909 0.0
H4506 H 0.0852 0.73246 0.65929 0.0
H4507 H 0.09902 0.78658 0.58203 0.0
H4508 H 0.07913 0.77029 0.59875 0.0
H4509 H 0.10186 0.75001 0.61422 0.0
H4510 H 0.12205 0.76665 0.59799 0.0
H4511 H 0.08851 0.75351 0.63979 0.0
H4512 H 0.07629 0.73532 0.58503 0.0
H4513 H 0.07253 0.73623 0.55526 0.0
H4514 H 0.04106 0.74715 0.56513 0.0
H4515 H 0.04477 0.74649 0.59497 0.0
C4516 C 0.02897 0.70013 0.66439 0.0
C4517 C 0.01653 0.70061 0.6633 0.0
C4518 C 0.04101 0.70999 0.65611 0.0
C4519 C 0.0409 0.72062 0.64677 0.0
C4520 C 0.02855 0.72128 0.64602 0.0
C4521 C 0.01649 0.71138 0.65418 0.0
C4522 C 0.05338 0.73062 0.63711 0.0
C4523 C 0.05178 0.73189 0.62017 0.0
C4524 C 0.06683 0.73847 0.64425 0.0
C4525 C 0.06917 0.73809 0.66217 0.0
C4526 C 0.06152 0.74112 0.67362 0.0
C4527 C 0.06372 0.74065 0.69049 0.0
C4528 C 0.07361 0.73727 0.69606 0.0
C4529 C 0.08135 0.73438 0.68476 0.0
C4530 C 0.07918 0.73482 0.66788 0.0
C4531 C 0.09987 0.77875 0.58911 0.0
C4532 C 0.11215 0.77793 0.58863 0.0
C4533 C 0.08842 0.76934 0.59854 0.0
C4534 C 0.08893 0.7588 0.60759 0.0
C4535 C 0.10121 0.75802 0.60729 0.0
C4536 C 0.11269 0.76746 0.59787 0.0
C4537 C 0.07663 0.74861 0.61734 0.0
C4538 C 0.07828 0.74727 0.63425 0.0
C4539 C 0.06322 0.74067 0.61018 0.0
C4540 C 0.0609 0.74098 0.59224 0.0
C4541 C 0.06864 0.73802 0.58085 0.0
C4542 C 0.06651 0.73847 0.56397 0.0
C4543 C 0.05659 0.74178 0.55831 0.0
C4544 C 0.04875 0.7446 0.56953 0.0
C4545 C 0.05085 0.74418 0.58643 0.0
H4546 H 0.05495 0.74213 0.54523 0.0
H4547 H 0.07529 0.73691 0.70912 0.0
H4548 H 0.99854 0.63644 0.6868 0.0
H4549 H 0.0014 0.61878 0.70159 0.0
H4550 H 0.96507 0.60874 0.73102 0.0
H4551 H 0.96234 0.62658 0.71651 0.0
H4552 H 0.98555 0.61144 0.75005 0.0
H4553 H 0.96437 0.58677 0.70028 0.0
H4554 H 0.96158 0.58298 0.6703 0.0
H4555 H 0.00183 0.58612 0.66735 0.0
H4556 H 0.00494 0.59012 0.69729 0.0
H4557 H 0.97554 0.54771 0.78423 0.0
H4558 H 0.97253 0.56486 0.76838 0.0
H4559 H 0.01216 0.57864 0.74449 0.0
H4560 H 0.01525 0.56152 0.76034 0.0
H4561 H 0.99025 0.57396 0.72266 0.0
H4562 H 0.01098 0.59839 0.77292 0.0
H4563 H 0.01313 0.60162 0.803 0.0
H4564 H 0.97275 0.59824 0.80505 0.0
H4565 H 0.97026 0.59478 0.77499 0.0
C4566 C 0.99108 0.63036 0.6963 0.0
C4567 C 0.9802 0.63288 0.70047 0.0
C4568 C 0.9927 0.62024 0.70472 0.0
C4569 C 0.98339 0.61234 0.71736 0.0
C4570 C 0.9724 0.61471 0.72135 0.0
C4571 C 0.97081 0.62486 0.71298 0.0
C4572 C 0.98538 0.60196 0.72683 0.0
C4573 C 0.98637 0.60313 0.74405 0.0
C4574 C 0.98678 0.59129 0.71902 0.0
C4575 C 0.98495 0.58889 0.70101 0.0
C4576 C 0.97268 0.58677 0.69322 0.0
C4577 C 0.97102 0.58456 0.67624 0.0
C4578 C 0.98153 0.58435 0.66692 0.0
C4579 C 0.9937 0.58631 0.67458 0.0
C4580 C 0.99541 0.58854 0.69156 0.0
C4581 C 0.98359 0.55438 0.77556 0.0
C4582 C 0.99564 0.55331 0.77353 0.0
C4583 C 0.98189 0.5642 0.76659 0.0
C4584 C 0.99215 0.57305 0.75532 0.0
C4585 C 0.00413 0.57191 0.75314 0.0
C4586 C 0.00592 0.56221 0.76226 0.0
C4587 C 0.99034 0.58345 0.7458 0.0
C4588 C 0.98941 0.58229 0.7286 0.0
C4589 C 0.98889 0.59407 0.75363 0.0
C4590 C 0.99037 0.59617 0.77171 0.0
C4591 C 0.0025 0.5982 0.7798 0.0
C4592 C 0.00379 0.6001 0.79685 0.0
C4593 C 0.99307 0.6001 0.80594 0.0
C4594 C 0.98104 0.59822 0.79799 0.0
C4595 C 0.97969 0.5963 0.78095 0.0
H4596 H 0.9941 0.60159 0.81913 0.0
H4597 H 0.98023 0.58263 0.65377 0.0
H4598 H 0.38136 0.35183 0.68631 0.0
H4599 H 0.399 0.37215 0.7015 0.0
H4600 H 0.36657 0.37209 0.7311 0.0
H4601 H 0.34889 0.35193 0.71579 0.0
H4602 H 0.38549 0.39802 0.72286 0.0
H4603 H 0.38611 0.35883 0.74608 0.0
H4604 H 0.38749 0.33728 0.74615 0.0
H4605 H 0.42885 0.35968 0.72577 0.0
H4606 H 0.42765 0.38134 0.72536 0.0
H4607 H 0.42848 0.43866 0.78979 0.0
H4608 H 0.4111 0.41909 0.77349 0.0
H4609 H 0.44314 0.42425 0.73929 0.0
H4610 H 0.46054 0.44422 0.75506 0.0
H4611 H 0.42461 0.3959 0.74993 0.0
H4612 H 0.42306 0.43561 0.72779 0.0
H4613 H 0.42081 0.45662 0.72968 0.0
H4614 H 0.37986 0.43224 0.75067 0.0
H4615 H 0.38196 0.4111 0.74913 0.0
C4616 C 0.37799 0.35622 0.69597 0.0
C4617 C 0.36376 0.35027 0.69991 0.0
C4618 C 0.38808 0.36778 0.7047 0.0
C4619 C 0.38412 0.37351 0.7176 0.0
C4620 C 0.36987 0.36782 0.72122 0.0
C4621 C 0.35979 0.35629 0.71248 0.0
C4622 C 0.39482 0.38531 0.72749 0.0
C4623 C 0.39395 0.39749 0.72892 0.0
C4624 C 0.40594 0.38467 0.73529 0.0
C4625 C 0.40673 0.37168 0.73552 0.0
C4626 C 0.39546 0.35914 0.74148 0.0
C4627 C 0.39621 0.34691 0.74161 0.0
C4628 C 0.40824 0.3471 0.73593 0.0
C4629 C 0.41954 0.35954 0.73014 0.0
C4630 C 0.41883 0.3718 0.72997 0.0
C4631 C 0.43185 0.43579 0.77869 0.0
C4632 C 0.44595 0.44312 0.77374 0.0
C4633 C 0.4219 0.42453 0.76946 0.0
C4634 C 0.42586 0.42029 0.75518 0.0
C4635 C 0.43992 0.42735 0.75033 0.0
C4636 C 0.44985 0.43873 0.75944 0.0
C4637 C 0.41527 0.40856 0.74519 0.0
C4638 C 0.41616 0.39641 0.74379 0.0
C4639 C 0.40403 0.40912 0.73766 0.0
C4640 C 0.40272 0.4218 0.73849 0.0
C4641 C 0.41362 0.43475 0.73294 0.0
C4642 C 0.41237 0.44668 0.73392 0.0
C4643 C 0.40022 0.44577 0.74033 0.0
C4644 C 0.38928 0.43293 0.74573 0.0
C4645 C 0.39049 0.42097 0.74479 0.0
H4646 H 0.39926 0.45502 0.74108 0.0
H4647 H 0.4088 0.33762 0.73605 0.0
H4648 H 0.6419 0.99423 0.71034 0.0
H4649 H 0.62107 0.99141 0.72442 0.0
H4650 H 0.62788 0.03005 0.70323 0.0
H4651 H 0.64868 0.03287 0.68895 0.0
H4652 H 0.62369 0.02814 0.73762 0.0
H4653 H 0.60192 0.00094 0.68917 0.0
H4654 H 0.5968 0.98262 0.6686 0.0
H4655 H 0.57992 0.95134 0.70642 0.0
H4656 H 0.58512 0.9695 0.72727 0.0
H4657 H 0.56093 0.02315 0.76627 0.0
H4658 H 0.58017 0.02561 0.74904 0.0
H4659 H 0.57001 0.9837 0.76176 0.0
H4660 H 0.55046 0.98107 0.77858 0.0
H4661 H 0.57589 0.98759 0.73075 0.0
H4662 H 0.59827 0.01371 0.77934 0.0
H4663 H 0.60397 0.03138 0.80096 0.0
H4664 H 0.62046 0.06385 0.76453 0.0
H4665 H 0.61469 0.04634 0.74266 0.0
C4666 C 0.63887 0.00205 0.70853 0.0
C4667 C 0.6469 0.01377 0.69854 0.0
C4668 C 0.62696 0.00041 0.71656 0.0
C4669 C 0.62293 0.0105 0.71482 0.0
C4670 C 0.63083 0.02214 0.70471 0.0
C4671 C 0.64266 0.0237 0.69651 0.0
C4672 C 0.61081 0.00919 0.72417 0.0
C4673 C 0.61319 0.01941 0.73595 0.0
C4674 C 0.59722 0.99755 0.72233 0.0
C4675 C 0.59403 0.9866 0.7098 0.0
C4676 C 0.59722 0.99017 0.69313 0.0
C4677 C 0.59428 0.97981 0.68141 0.0
C4678 C 0.58807 0.96583 0.68621 0.0
C4679 C 0.58475 0.96218 0.70273 0.0
C4680 C 0.58767 0.9725 0.71449 0.0
C4681 C 0.56285 0.0145 0.76542 0.0
C4682 C 0.55426 0.00195 0.77382 0.0
C4683 C 0.57387 0.01591 0.7556 0.0
C4684 C 0.57672 0.00493 0.75429 0.0
C4685 C 0.56804 0.99233 0.76255 0.0
C4686 C 0.55688 0.99084 0.77217 0.0
C4687 C 0.58874 0.00655 0.7443 0.0
C4688 C 0.58637 0.99638 0.73241 0.0
C4689 C 0.6024 0.01814 0.74622 0.0
C4690 C 0.60591 0.0287 0.75935 0.0
C4691 C 0.60302 0.02461 0.77593 0.0
C4692 C 0.60627 0.0346 0.78823 0.0
C4693 C 0.61254 0.04873 0.78412 0.0
C4694 C 0.61559 0.0529 0.76769 0.0
C4695 C 0.61234 0.04295 0.75534 0.0
H4696 H 0.61505 0.05645 0.79366 0.0
H4697 H 0.5858 0.95783 0.67712 0.0
loop_
_geom_bond_atom_site_label_1
_geom_bond_atom_site_label_2
_geom_bond_distance
_geom_bond_site_symmetry_2
_ccdc_geom_bond_type
In0 O1 2.261 1_455 S
In0 O2 2.331 . S
In0 O6 2.230 1_455 S
In0 O7 2.334 1_454 S
In0 O8 2.278 1_554 S
In0 O9 2.284 1_454 S
In0 O11 2.352 . S
In0 O12 2.358 . S
O1 In0 2.261 1_655 S
O1 C10 1.218 1_655 S
O2 In0 2.331 . S
O2 C10 1.294 . S
C3 O6 1.252 1_556 S
C3 O7 1.260 . S
C4 O11 1.240 . S
C4 O12 1.252 . S
C5 O8 1.284 . S
C5 O9 1.237 1_455 S
O6 In0 2.230 1_655 S
O6 C3 1.252 1_554 S
O7 In0 2.334 1_656 S
O7 C3 1.260 . S
O8 In0 2.278 1_556 S
O8 C5 1.284 . S
O9 In0 2.284 1_656 S
O9 C5 1.237 1_655 S
C10 O1 1.218 1_455 S
C10 O2 1.294 . S
O11 In0 2.352 . S
O11 C4 1.240 . S
O12 In0 2.358 . S
O12 C4 1.252 . S
In13 O14 2.294 . S
In13 O15 2.326 . S
In13 O19 2.266 . S
In13 O20 2.326 1_554 S
In13 O21 2.266 1_554 S
In13 O22 2.326 1_554 S
In13 O24 2.294 . S
In13 O25 2.326 . S
O14 In13 2.294 . S
O14 C23 1.240 . S
O15 In13 2.326 . S
O15 C23 1.252 . S
C16 O19 1.252 1_556 S
C16 O20 1.260 . S
C17 O24 1.240 . S
C17 O25 1.252 . S
C18 O21 1.252 . S
C18 O22 1.260 . S
O19 In13 2.266 . S
O19 C16 1.252 1_554 S
O20 In13 2.326 1_556 S
O20 C16 1.260 . S
O21 In13 2.266 1_556 S
O21 C18 1.252 . S
O22 In13 2.326 1_556 S
O22 C18 1.260 . S
C23 O14 1.240 . S
C23 O15 1.252 . S
O24 In13 2.294 . S
O24 C17 1.240 . S
O25 In13 2.326 . S
O25 C17 1.252 . S
In26 O27 2.372 . S
In26 O28 2.370 1_554 S
In26 O32 2.282 . S
In26 O33 2.269 1_545 S
In26 O34 2.218 1_545 S
In26 O35 2.338 1_545 S
In26 O37 2.250 1_544 S
In26 O38 2.333 1_554 S
O27 In26 2.372 . S
O27 C36 1.240 1_554 S
O28 In26 2.370 1_556 S
O28 C36 1.252 . S
C29 O32 1.307 . S
C29 O33 1.222 1_545 S
C30 O37 1.210 1_545 S
C30 O38 1.311 . S
C31 O34 1.252 . S
C31 O35 1.260 . S
O32 In26 2.282 . S
O32 C29 1.307 . S
O33 In26 2.269 1_565 S
O33 C29 1.222 1_565 S
O34 In26 2.218 1_565 S
O34 C31 1.252 . S
O35 In26 2.338 1_565 S
O35 C31 1.260 . S
C36 O27 1.240 1_556 S
C36 O28 1.252 . S
O37 In26 2.250 1_566 S
O37 C30 1.210 1_565 S
O38 In26 2.333 1_556 S
O38 C30 1.311 . S
In39 O40 2.293 1_554 S
In39 O41 2.326 1_454 S
In39 O45 2.265 . S
In39 O46 2.326 . S
In39 O47 2.267 1_455 S
In39 O48 2.324 . S
In39 O50 2.296 1_455 S
In39 O51 2.328 1_454 S
O40 In39 2.293 1_556 S
O40 C49 1.239 . S
O41 In39 2.326 1_656 S
O41 C49 1.253 1_655 S
C42 O45 1.252 . S
C42 O46 1.260 . S
C43 O50 1.240 1_556 S
C43 O51 1.252 . S
C44 O47 1.232 1_455 S
C44 O48 1.275 . S
O45 In39 2.265 . S
O45 C42 1.252 . S
O46 In39 2.326 . S
O46 C42 1.260 . S
O47 In39 2.267 1_655 S
O47 C44 1.232 1_655 S
O48 In39 2.324 . S
O48 C44 1.275 . S
C49 O40 1.239 . S
C49 O41 1.253 1_455 S
O50 In39 2.296 1_655 S
O50 C43 1.240 1_554 S
O51 In39 2.328 1_656 S
O51 C43 1.252 . S
In52 O53 2.294 1_554 S
In52 O54 2.326 1_554 S
In52 O58 2.266 . S
In52 O59 2.326 . S
In52 O60 2.266 . S
In52 O61 2.326 . S
In52 O63 2.294 . S
In52 O64 2.326 1_554 S
O53 In52 2.294 1_556 S
O53 C62 1.240 . S
O54 In52 2.326 1_556 S
O54 C62 1.252 . S
C55 O58 1.252 . S
C55 O59 1.260 . S
C56 O63 1.240 1_556 S
C56 O64 1.252 . S
C57 O60 1.252 . S
C57 O61 1.260 . S
O58 In52 2.266 . S
O58 C55 1.252 . S
O59 In52 2.326 . S
O59 C55 1.260 . S
O60 In52 2.266 . S
O60 C57 1.252 . S
O61 In52 2.326 . S
O61 C57 1.260 . S
C62 O53 1.240 . S
C62 O54 1.252 . S
O63 In52 2.294 . S
O63 C56 1.240 1_554 S
O64 In52 2.326 1_556 S
O64 C56 1.252 . S
In65 O66 2.293 . S
In65 O67 2.326 1_545 S
In65 O71 2.265 . S
In65 O72 2.326 1_554 S
In65 O73 2.267 1_544 S
In65 O74 2.324 1_554 S
In65 O76 2.296 1_545 S
In65 O77 2.328 1_545 S
O66 In65 2.293 . S
O66 C75 1.239 . S
O67 In65 2.326 1_565 S
O67 C75 1.255 1_565 S
C68 O71 1.252 1_556 S
C68 O72 1.260 . S
C69 O76 1.240 . S
C69 O77 1.252 . S
C70 O73 1.234 1_545 S
C70 O74 1.273 . S
O71 In65 2.265 . S
O71 C68 1.252 1_554 S
O72 In65 2.326 1_556 S
O72 C68 1.260 . S
O73 In65 2.267 1_566 S
O73 C70 1.234 1_565 S
O74 In65 2.324 1_556 S
O74 C70 1.273 . S
C75 O66 1.239 . S
C75 O67 1.255 1_545 S
O76 In65 2.296 1_565 S
O76 C69 1.240 . S
O77 In65 2.328 1_565 S
O77 C69 1.252 . S
In78 O79 2.294 . S
In78 O80 2.326 . S
In78 O84 2.266 . S
In78 O85 2.326 . S
In78 O86 2.266 . S
In78 O87 2.326 . S
In78 O89 2.294 . S
In78 O90 2.326 . S
O79 In78 2.294 . S
O79 C88 1.240 . S
O80 In78 2.326 . S
O80 C88 1.252 . S
C81 O84 1.252 . S
C81 O85 1.260 . S
C82 O89 1.240 . S
C82 O90 1.252 . S
C83 O86 1.252 . S
C83 O87 1.260 . S
O84 In78 2.266 . S
O84 C81 1.252 . S
O85 In78 2.326 . S
O85 C81 1.260 . S
O86 In78 2.266 . S
O86 C83 1.252 . S
O87 In78 2.326 . S
O87 C83 1.260 . S
C88 O79 1.240 . S
C88 O80 1.252 . S
O89 In78 2.294 . S
O89 C82 1.240 . S
O90 In78 2.326 . S
O90 C82 1.252 . S
In91 O92 2.294 . S
In91 O93 2.326 . S
In91 O97 2.266 . S
In91 O98 2.326 . S
In91 O99 2.266 . S
In91 O100 2.326 . S
In91 O102 2.250 1_565 S
In91 O103 2.326 . S
O92 In91 2.294 . S
O92 C101 1.240 . S
O93 In91 2.326 . S
O93 C101 1.252 . S
C94 O97 1.252 . S
C94 O98 1.260 . S
C95 O102 1.241 . S
C95 O103 1.252 1_545 S
C96 O99 1.252 . S
C96 O100 1.260 . S
O97 In91 2.266 . S
O97 C94 1.252 . S
O98 In91 2.326 . S
O98 C94 1.260 . S
O99 In91 2.266 . S
O99 C96 1.252 . S
O100 In91 2.326 . S
O100 C96 1.260 . S
C101 O92 1.240 . S
C101 O93 1.252 . S
O102 In91 2.250 1_545 S
O102 C95 1.241 . S
O103 In91 2.326 . S
O103 C95 1.252 1_565 S
In104 O105 2.294 . S
In104 O106 2.326 . S
In104 O110 2.266 . S
In104 O111 2.326 . S
In104 O112 2.290 . S
In104 O113 2.326 . S
In104 O115 2.294 . S
In104 O116 2.326 . S
O105 In104 2.294 . S
O105 C114 1.240 . S
O106 In104 2.326 . S
O106 C114 1.252 . S
C107 O110 1.252 . S
C107 O111 1.260 . S
C108 O115 1.240 . S
C108 O116 1.252 . S
C109 O112 1.218 1_655 S
C109 O113 1.260 1_655 S
O110 In104 2.266 . S
O110 C107 1.252 . S
O111 In104 2.326 . S
O111 C107 1.260 . S
O112 In104 2.290 . S
O112 C109 1.218 1_455 S
O113 In104 2.326 . S
O113 C109 1.260 1_455 S
C114 O105 1.240 . S
C114 O106 1.252 . S
O115 In104 2.294 . S
O115 C108 1.240 . S
O116 In104 2.326 . S
O116 C108 1.252 . S
In117 O118 2.294 . S
In117 O119 2.326 . S
In117 O123 2.274 . S
In117 O124 2.326 . S
In117 O125 2.266 . S
In117 O126 2.326 . S
In117 O128 2.294 . S
In117 O129 2.326 . S
O118 In117 2.294 . S
O118 C127 1.240 . S
O119 In117 2.326 . S
O119 C127 1.252 . S
C120 O123 1.241 1_545 S
C120 O124 1.260 1_545 S
C121 O128 1.240 . S
C121 O129 1.252 . S
C122 O125 1.252 . S
C122 O126 1.260 . S
O123 In117 2.274 . S
O123 C120 1.241 1_565 S
O124 In117 2.326 . S
O124 C120 1.260 1_565 S
O125 In117 2.266 . S
O125 C122 1.252 . S
O126 In117 2.326 . S
O126 C122 1.260 . S
C127 O118 1.240 . S
C127 O119 1.252 . S
O128 In117 2.294 . S
O128 C121 1.240 . S
O129 In117 2.326 . S
O129 C121 1.252 . S
In130 O131 2.294 . S
In130 O132 2.326 . S
In130 O136 2.313 . S
In130 O137 2.326 . S
In130 O138 2.266 . S
In130 O139 2.326 . S
In130 O141 2.294 . S
In130 O142 2.326 . S
O131 In130 2.294 . S
O131 C140 1.240 . S
O132 In130 2.326 . S
O132 C140 1.252 . S
C133 O136 1.252 1_655 S
C133 O137 1.260 1_655 S
C134 O141 1.240 . S
C134 O142 1.252 . S
C135 O138 1.252 . S
C135 O139 1.260 . S
O136 In130 2.313 . S
O136 C133 1.252 1_455 S
O137 In130 2.326 . S
O137 C133 1.260 1_455 S
O138 In130 2.266 . S
O138 C135 1.252 . S
O139 In130 2.326 . S
O139 C135 1.260 . S
C140 O131 1.240 . S
C140 O132 1.252 . S
O141 In130 2.294 . S
O141 C134 1.240 . S
O142 In130 2.326 . S
O142 C134 1.252 . S
In143 O144 2.294 . S
In143 O145 2.326 . S
In143 O149 2.266 . S
In143 O150 2.326 . S
In143 O151 2.266 . S
In143 O152 2.326 . S
In143 O154 2.294 . S
In143 O155 2.326 . S
O144 In143 2.294 . S
O144 C153 1.240 . S
O145 In143 2.326 . S
O145 C153 1.252 . S
C146 O149 1.252 . S
C146 O150 1.260 . S
C147 O154 1.240 . S
C147 O155 1.252 . S
C148 O151 1.252 . S
C148 O152 1.260 . S
O149 In143 2.266 . S
O149 C146 1.252 . S
O150 In143 2.326 . S
O150 C146 1.260 . S
O151 In143 2.266 . S
O151 C148 1.252 . S
O152 In143 2.326 . S
O152 C148 1.260 . S
C153 O144 1.240 . S
C153 O145 1.252 . S
O154 In143 2.294 . S
O154 C147 1.240 . S
O155 In143 2.326 . S
O155 C147 1.252 . S
In156 O157 2.294 . S
In156 O158 2.326 . S
In156 O162 2.266 . S
In156 O163 2.326 . S
In156 O164 2.290 . S
In156 O165 2.326 . S
In156 O167 2.294 . S
In156 O168 2.326 . S
O157 In156 2.294 . S
O157 C166 1.240 . S
O158 In156 2.326 . S
O158 C166 1.252 . S
C159 O162 1.252 . S
C159 O163 1.260 . S
C160 O167 1.240 . S
C160 O168 1.252 . S
C161 O164 1.218 1_565 S
C161 O165 1.260 1_565 S
O162 In156 2.266 . S
O162 C159 1.252 . S
O163 In156 2.326 . S
O163 C159 1.260 . S
O164 In156 2.290 . S
O164 C161 1.218 1_545 S
O165 In156 2.326 . S
O165 C161 1.260 1_545 S
C166 O157 1.240 . S
C166 O158 1.252 . S
O167 In156 2.294 . S
O167 C160 1.240 . S
O168 In156 2.326 . S
O168 C160 1.252 . S
In169 O170 2.294 . S
In169 O171 2.326 . S
In169 O175 2.266 . S
In169 O176 2.326 . S
In169 O177 2.262 . S
In169 O178 2.326 . S
In169 O180 2.294 . S
In169 O181 2.326 . S
O170 In169 2.294 . S
O170 C179 1.240 . S
O171 In169 2.326 . S
O171 C179 1.252 . S
C172 O175 1.252 . S
C172 O176 1.260 . S
C173 O180 1.240 . S
C173 O181 1.252 . S
C174 O177 1.252 1_455 S
C174 O178 1.260 1_455 S
O175 In169 2.266 . S
O175 C172 1.252 . S
O176 In169 2.326 . S
O176 C172 1.260 . S
O177 In169 2.262 . S
O177 C174 1.252 1_655 S
O178 In169 2.326 . S
O178 C174 1.260 1_655 S
C179 O170 1.240 . S
C179 O171 1.252 . S
O180 In169 2.294 . S
O180 C173 1.240 . S
O181 In169 2.326 . S
O181 C173 1.252 . S
In182 O183 2.294 . S
In182 O184 2.326 . S
In182 O188 2.266 . S
In182 O189 2.326 . S
In182 O190 2.266 . S
In182 O191 2.326 . S
In182 O193 2.294 . S
In182 O194 2.326 . S
O183 In182 2.294 . S
O183 C192 1.240 . S
O184 In182 2.326 . S
O184 C192 1.252 . S
C185 O188 1.252 . S
C185 O189 1.260 . S
C186 O193 1.240 . S
C186 O194 1.252 . S
C187 O190 1.252 . S
C187 O191 1.260 . S
O188 In182 2.266 . S
O188 C185 1.252 . S
O189 In182 2.326 . S
O189 C185 1.260 . S
O190 In182 2.266 . S
O190 C187 1.252 . S
O191 In182 2.326 . S
O191 C187 1.260 . S
C192 O183 1.240 . S
C192 O184 1.252 . S
O193 In182 2.294 . S
O193 C186 1.240 . S
O194 In182 2.326 . S
O194 C186 1.252 . S
In195 O196 2.294 . S
In195 O197 2.326 . S
In195 O201 2.266 . S
In195 O202 2.326 . S
In195 O203 2.266 . S
In195 O204 2.326 . S
In195 O206 2.294 . S
In195 O207 2.326 . S
O196 In195 2.294 . S
O196 C205 1.240 . S
O197 In195 2.326 . S
O197 C205 1.252 . S
C198 O201 1.252 . S
C198 O202 1.260 . S
C199 O206 1.240 . S
C199 O207 1.252 . S
C200 O203 1.252 . S
C200 O204 1.260 . S
O201 In195 2.266 . S
O201 C198 1.252 . S
O202 In195 2.326 . S
O202 C198 1.260 . S
O203 In195 2.266 . S
O203 C200 1.252 . S
O204 In195 2.326 . S
O204 C200 1.260 . S
C205 O196 1.240 . S
C205 O197 1.252 . S
O206 In195 2.294 . S
O206 C199 1.240 . S
O207 In195 2.326 . S
O207 C199 1.252 . S
In208 O209 2.294 . S
In208 O210 2.326 . S
In208 O214 2.266 . S
In208 O215 2.326 . S
In208 O216 2.266 . S
In208 O217 2.326 . S
In208 O219 2.294 . S
In208 O220 2.326 . S
O209 In208 2.294 . S
O209 C218 1.240 . S
O210 In208 2.326 . S
O210 C218 1.252 . S
C211 O214 1.252 . S
C211 O215 1.260 . S
C212 O219 1.240 1_565 S
C212 O220 1.252 1_565 S
C213 O216 1.252 . S
C213 O217 1.260 . S
O214 In208 2.266 . S
O214 C211 1.252 . S
O215 In208 2.326 . S
O215 C211 1.260 . S
O216 In208 2.266 . S
O216 C213 1.252 . S
O217 In208 2.326 . S
O217 C213 1.260 . S
C218 O209 1.240 . S
C218 O210 1.252 . S
O219 In208 2.294 . S
O219 C212 1.240 1_545 S
O220 In208 2.326 . S
O220 C212 1.252 1_545 S
In221 O222 2.294 . S
In221 O223 2.326 . S
In221 O227 2.266 . S
In221 O228 2.326 . S
In221 O229 2.269 . S
In221 O230 2.326 . S
In221 O232 2.294 . S
In221 O233 2.326 . S
O222 In221 2.294 . S
O222 C231 1.240 . S
O223 In221 2.326 . S
O223 C231 1.252 . S
C224 O227 1.252 . S
C224 O228 1.260 . S
C225 O232 1.240 . S
C225 O233 1.252 . S
C226 O229 1.248 1_455 S
C226 O230 1.260 1_455 S
O227 In221 2.266 . S
O227 C224 1.252 . S
O228 In221 2.326 . S
O228 C224 1.260 . S
O229 In221 2.269 . S
O229 C226 1.248 1_655 S
O230 In221 2.326 . S
O230 C226 1.260 1_655 S
C231 O222 1.240 . S
C231 O223 1.252 . S
O232 In221 2.294 . S
O232 C225 1.240 . S
O233 In221 2.326 . S
O233 C225 1.252 . S
H234 C253 0.949 . S
H235 C254 0.950 . S
H236 C256 0.950 . S
H237 C257 0.950 . S
H238 C259 0.950 . S
H239 C262 0.950 . S
H240 C263 0.950 . S
H241 C265 0.951 . S
H242 C266 0.949 . S
H243 C268 0.949 . S
H244 C269 0.950 . S
H245 C271 0.950 . S
H246 C272 0.950 . S
H247 C274 0.950 . S
H248 C277 0.950 . S
H249 C278 0.950 . S
H250 C280 0.951 . S
H251 C281 0.949 . S
C252 C253 1.376 . S
C252 C257 1.386 . S
C252 C258 1.483 . S
C253 H234 0.949 . S
C253 C252 1.376 . S
C253 C254 1.397 . S
C254 H235 0.950 . S
C254 C253 1.397 . S
C254 C255 1.391 . S
C255 C254 1.391 . S
C255 C256 1.405 . S
C256 H236 0.950 . S
C256 C255 1.405 . S
C256 C257 1.367 . S
C257 H237 0.950 . S
C257 C252 1.386 . S
C257 C256 1.367 . S
C258 C252 1.483 . S
C258 C259 1.382 . S
C258 C260 1.403 . S
C259 H238 0.950 . S
C259 C258 1.382 . S
C259 C275 1.411 . S
C260 C258 1.403 . S
C260 C261 1.489 . S
C260 C274 1.411 . S
C261 C260 1.489 . S
C261 C262 1.383 . S
C261 C266 1.382 . S
C262 H239 0.950 . S
C262 C261 1.383 . S
C262 C263 1.395 . S
C263 H240 0.950 . S
C263 C262 1.395 . S
C263 C264 1.288 . S
C264 C263 1.288 . S
C264 C265 1.392 . S
C265 H241 0.951 . S
C265 C264 1.392 . S
C265 C266 1.392 . S
C266 H242 0.949 . S
C266 C261 1.382 . S
C266 C265 1.392 . S
C267 C268 1.376 . S
C267 C272 1.386 . S
C267 C273 1.483 . S
C268 H243 0.949 . S
C268 C267 1.376 . S
C268 C269 1.397 . S
C269 H244 0.950 . S
C269 C268 1.397 . S
C269 C270 1.391 . S
C270 C269 1.391 . S
C270 C271 1.405 . S
C271 H245 0.950 . S
C271 C270 1.405 . S
C271 C272 1.367 . S
C272 H246 0.950 . S
C272 C267 1.386 . S
C272 C271 1.367 . S
C273 C267 1.483 . S
C273 C274 1.382 . S
C273 C275 1.403 . S
C274 H247 0.950 . S
C274 C260 1.411 . S
C274 C273 1.382 . S
C275 C259 1.411 . S
C275 C273 1.403 . S
C275 C276 1.489 . S
C276 C275 1.489 . S
C276 C277 1.383 . S
C276 C281 1.382 . S
C277 H248 0.950 . S
C277 C276 1.383 . S
C277 C278 1.395 . S
C278 H249 0.950 . S
C278 C277 1.395 . S
C278 C279 1.288 . S
C279 C278 1.288 . S
C279 C280 1.392 . S
C280 H250 0.951 . S
C280 C279 1.392 . S
C280 C281 1.392 . S
C281 H251 0.949 . S
C281 C276 1.382 . S
C281 C280 1.392 . S
H282 C301 0.949 . S
H283 C302 0.950 . S
H284 C304 0.950 . S
H285 C305 0.950 . S
H286 C307 0.950 . S
H287 C310 0.950 . S
H288 C311 0.950 . S
H289 C313 0.951 . S
H290 C314 0.949 . S
H291 C316 0.949 . S
H292 C317 0.950 . S
H293 C319 0.950 . S
H294 C320 0.950 . S
H295 C322 0.950 . S
H296 C325 0.950 . S
H297 C326 0.950 . S
H298 C328 0.951 . S
H299 C329 0.949 . S
C300 C301 1.376 . S
C300 C305 1.386 . S
C300 C306 1.483 . S
C301 H282 0.949 . S
C301 C300 1.376 . S
C301 C302 1.397 . S
C302 H283 0.950 . S
C302 C301 1.397 . S
C302 C303 1.391 . S
C303 C302 1.391 . S
C303 C304 1.405 . S
C304 H284 0.950 . S
C304 C303 1.405 . S
C304 C305 1.367 . S
C305 H285 0.950 . S
C305 C300 1.386 . S
C305 C304 1.367 . S
C306 C300 1.483 . S
C306 C307 1.382 . S
C306 C308 1.403 . S
C307 H286 0.950 . S
C307 C306 1.382 . S
C307 C323 1.411 . S
C308 C306 1.403 . S
C308 C309 1.489 . S
C308 C322 1.411 . S
C309 C308 1.489 . S
C309 C310 1.383 . S
C309 C314 1.382 . S
C310 H287 0.950 . S
C310 C309 1.383 . S
C310 C311 1.395 . S
C311 H288 0.950 . S
C311 C310 1.395 . S
C311 C312 1.288 . S
C312 C311 1.288 . S
C312 C313 1.392 . S
C313 H289 0.951 . S
C313 C312 1.392 . S
C313 C314 1.392 . S
C314 H290 0.949 . S
C314 C309 1.382 . S
C314 C313 1.392 . S
C315 C316 1.376 . S
C315 C320 1.386 . S
C315 C321 1.483 . S
C316 H291 0.949 . S
C316 C315 1.376 . S
C316 C317 1.397 . S
C317 H292 0.950 . S
C317 C316 1.397 . S
C317 C318 1.391 . S
C318 C317 1.391 . S
C318 C319 1.405 . S
C319 H293 0.950 . S
C319 C318 1.405 . S
C319 C320 1.367 . S
C320 H294 0.950 . S
C320 C315 1.386 . S
C320 C319 1.367 . S
C321 C315 1.483 . S
C321 C322 1.382 . S
C321 C323 1.403 . S
C322 H295 0.950 . S
C322 C308 1.411 . S
C322 C321 1.382 . S
C323 C307 1.411 . S
C323 C321 1.403 . S
C323 C324 1.489 . S
C324 C323 1.489 . S
C324 C325 1.383 . S
C324 C329 1.382 . S
C325 H296 0.950 . S
C325 C324 1.383 . S
C325 C326 1.395 . S
C326 H297 0.950 . S
C326 C325 1.395 . S
C326 C327 1.288 . S
C327 C326 1.288 . S
C327 C328 1.392 . S
C328 H298 0.951 . S
C328 C327 1.392 . S
C328 C329 1.392 . S
C329 H299 0.949 . S
C329 C324 1.382 . S
C329 C328 1.392 . S
H330 C349 0.949 . S
H331 C350 0.950 . S
H332 C352 0.950 . S
H333 C353 0.950 . S
H334 C355 0.950 . S
H335 C358 0.950 . S
H336 C359 0.950 . S
H337 C361 0.951 . S
H338 C362 0.949 . S
H339 C364 0.949 . S
H340 C365 0.950 . S
H341 C367 0.950 . S
H342 C368 0.950 . S
H343 C370 0.950 . S
H344 C373 0.950 . S
H345 C374 0.950 . S
H346 C376 0.951 . S
H347 C377 0.949 . S
C348 C349 1.376 . S
C348 C353 1.386 . S
C348 C354 1.483 . S
C349 H330 0.949 . S
C349 C348 1.376 . S
C349 C350 1.397 . S
C350 H331 0.950 . S
C350 C349 1.397 . S
C350 C351 1.391 . S
C351 C350 1.391 . S
C351 C352 1.405 . S
C352 H332 0.950 . S
C352 C351 1.405 . S
C352 C353 1.367 . S
C353 H333 0.950 . S
C353 C348 1.386 . S
C353 C352 1.367 . S
C354 C348 1.483 . S
C354 C355 1.382 . S
C354 C356 1.403 . S
C355 H334 0.950 . S
C355 C354 1.382 . S
C355 C371 1.411 . S
C356 C354 1.403 . S
C356 C357 1.489 . S
C356 C370 1.411 . S
C357 C356 1.489 . S
C357 C358 1.383 . S
C357 C362 1.382 . S
C358 H335 0.950 . S
C358 C357 1.383 . S
C358 C359 1.395 . S
C359 H336 0.950 . S
C359 C358 1.395 . S
C359 C360 1.288 . S
C360 C359 1.288 . S
C360 C361 1.392 . S
C361 H337 0.951 . S
C361 C360 1.392 . S
C361 C362 1.392 . S
C362 H338 0.949 . S
C362 C357 1.382 . S
C362 C361 1.392 . S
C363 C364 1.376 . S
C363 C368 1.386 . S
C363 C369 1.483 . S
C364 H339 0.949 . S
C364 C363 1.376 . S
C364 C365 1.397 . S
C365 H340 0.950 . S
C365 C364 1.397 . S
C365 C366 1.391 . S
C366 C365 1.391 . S
C366 C367 1.405 . S
C367 H341 0.950 . S
C367 C366 1.405 . S
C367 C368 1.367 . S
C368 H342 0.950 . S
C368 C363 1.386 . S
C368 C367 1.367 . S
C369 C363 1.483 . S
C369 C370 1.382 . S
C369 C371 1.403 . S
C370 H343 0.950 . S
C370 C356 1.411 . S
C370 C369 1.382 . S
C371 C355 1.411 . S
C371 C369 1.403 . S
C371 C372 1.489 . S
C372 C371 1.489 . S
C372 C373 1.383 . S
C372 C377 1.382 . S
C373 H344 0.950 . S
C373 C372 1.383 . S
C373 C374 1.395 . S
C374 H345 0.950 . S
C374 C373 1.395 . S
C374 C375 1.288 . S
C375 C374 1.288 . S
C375 C376 1.392 . S
C376 H346 0.951 . S
C376 C375 1.392 . S
C376 C377 1.392 . S
C377 H347 0.949 . S
C377 C372 1.382 . S
C377 C376 1.392 . S
H378 C397 0.949 . S
H379 C398 0.950 . S
H380 C400 0.950 . S
H381 C401 0.950 . S
H382 C403 0.950 . S
H383 C406 0.950 . S
H384 C407 0.950 . S
H385 C409 0.951 . S
H386 C410 0.949 . S
H387 C412 0.949 . S
H388 C413 0.950 . S
H389 C415 0.950 . S
H390 C416 0.950 . S
H391 C418 0.950 . S
H392 C421 0.950 . S
H393 C422 0.950 . S
H394 C424 0.951 . S
H395 C425 0.949 . S
C396 C397 1.376 . S
C396 C401 1.386 . S
C396 C402 1.483 . S
C397 H378 0.949 . S
C397 C396 1.376 . S
C397 C398 1.397 . S
C398 H379 0.950 . S
C398 C397 1.397 . S
C398 C399 1.391 . S
C399 C398 1.391 . S
C399 C400 1.405 . S
C400 H380 0.950 . S
C400 C399 1.405 . S
C400 C401 1.367 . S
C401 H381 0.950 . S
C401 C396 1.386 . S
C401 C400 1.367 . S
C402 C396 1.483 . S
C402 C403 1.382 . S
C402 C404 1.403 . S
C403 H382 0.950 . S
C403 C402 1.382 . S
C403 C419 1.411 . S
C404 C402 1.403 . S
C404 C405 1.489 . S
C404 C418 1.411 . S
C405 C404 1.489 . S
C405 C406 1.383 . S
C405 C410 1.382 . S
C406 H383 0.950 . S
C406 C405 1.383 . S
C406 C407 1.395 . S
C407 H384 0.950 . S
C407 C406 1.395 . S
C407 C408 1.288 . S
C408 C407 1.288 . S
C408 C409 1.392 . S
C409 H385 0.951 . S
C409 C408 1.392 . S
C409 C410 1.392 . S
C410 H386 0.949 . S
C410 C405 1.382 . S
C410 C409 1.392 . S
C411 C412 1.376 . S
C411 C416 1.386 . S
C411 C417 1.483 . S
C412 H387 0.949 . S
C412 C411 1.376 . S
C412 C413 1.397 . S
C413 H388 0.950 . S
C413 C412 1.397 . S
C413 C414 1.391 . S
C414 C413 1.391 . S
C414 C415 1.405 . S
C415 H389 0.950 . S
C415 C414 1.405 . S
C415 C416 1.367 . S
C416 H390 0.950 . S
C416 C411 1.386 . S
C416 C415 1.367 . S
C417 C411 1.483 . S
C417 C418 1.382 . S
C417 C419 1.403 . S
C418 H391 0.950 . S
C418 C404 1.411 . S
C418 C417 1.382 . S
C419 C403 1.411 . S
C419 C417 1.403 . S
C419 C420 1.489 . S
C420 C419 1.489 . S
C420 C421 1.383 . S
C420 C425 1.382 . S
C421 H392 0.950 . S
C421 C420 1.383 . S
C421 C422 1.395 . S
C422 H393 0.950 . S
C422 C421 1.395 . S
C422 C423 1.288 . S
C423 C422 1.288 . S
C423 C424 1.392 . S
C424 H394 0.951 . S
C424 C423 1.392 . S
C424 C425 1.392 . S
C425 H395 0.949 . S
C425 C420 1.382 . S
C425 C424 1.392 . S
H426 C445 0.949 . S
H427 C446 0.950 . S
H428 C448 0.950 . S
H429 C449 0.950 . S
H430 C451 0.950 . S
H431 C454 0.950 . S
H432 C455 0.950 . S
H433 C457 0.951 . S
H434 C458 0.949 . S
H435 C460 0.949 . S
H436 C461 0.950 . S
H437 C463 0.950 . S
H438 C464 0.950 . S
H439 C466 0.950 . S
H440 C469 0.950 . S
H441 C470 0.950 . S
H442 C472 0.951 . S
H443 C473 0.949 . S
C444 C445 1.376 . S
C444 C449 1.386 . S
C444 C450 1.483 . S
C445 H426 0.949 . S
C445 C444 1.376 . S
C445 C446 1.397 . S
C446 H427 0.950 . S
C446 C445 1.397 . S
C446 C447 1.391 . S
C447 C446 1.391 . S
C447 C448 1.405 . S
C448 H428 0.950 . S
C448 C447 1.405 . S
C448 C449 1.367 . S
C449 H429 0.950 . S
C449 C444 1.386 . S
C449 C448 1.367 . S
C450 C444 1.483 . S
C450 C451 1.382 . S
C450 C452 1.403 . S
C451 H430 0.950 . S
C451 C450 1.382 . S
C451 C467 1.411 . S
C452 C450 1.403 . S
C452 C453 1.489 . S
C452 C466 1.411 . S
C453 C452 1.489 . S
C453 C454 1.383 . S
C453 C458 1.382 . S
C454 H431 0.950 . S
C454 C453 1.383 . S
C454 C455 1.395 . S
C455 H432 0.950 . S
C455 C454 1.395 . S
C455 C456 1.288 . S
C456 C455 1.288 . S
C456 C457 1.392 . S
C457 H433 0.951 . S
C457 C456 1.392 . S
C457 C458 1.392 . S
C458 H434 0.949 . S
C458 C453 1.382 . S
C458 C457 1.392 . S
C459 C460 1.376 . S
C459 C464 1.386 . S
C459 C465 1.483 . S
C460 H435 0.949 . S
C460 C459 1.376 . S
C460 C461 1.397 . S
C461 H436 0.950 . S
C461 C460 1.397 . S
C461 C462 1.391 . S
C462 C461 1.391 . S
C462 C463 1.405 . S
C463 H437 0.950 . S
C463 C462 1.405 . S
C463 C464 1.367 . S
C464 H438 0.950 . S
C464 C459 1.386 . S
C464 C463 1.367 . S
C465 C459 1.483 . S
C465 C466 1.382 . S
C465 C467 1.403 . S
C466 H439 0.950 . S
C466 C452 1.411 . S
C466 C465 1.382 . S
C467 C451 1.411 . S
C467 C465 1.403 . S
C467 C468 1.489 . S
C468 C467 1.489 . S
C468 C469 1.383 . S
C468 C473 1.382 . S
C469 H440 0.950 . S
C469 C468 1.383 . S
C469 C470 1.395 . S
C470 H441 0.950 . S
C470 C469 1.395 . S
C470 C471 1.288 . S
C471 C470 1.288 . S
C471 C472 1.392 . S
C472 H442 0.951 . S
C472 C471 1.392 . S
C472 C473 1.392 . S
C473 H443 0.949 . S
C473 C468 1.382 . S
C473 C472 1.392 . S
H474 C493 0.949 . S
H475 C494 0.950 . S
H476 C496 0.950 . S
H477 C497 0.950 . S
H478 C499 0.950 . S
H479 C502 0.950 . S
H480 C503 0.950 . S
H481 C505 0.951 . S
H482 C506 0.949 . S
H483 C508 0.949 . S
H484 C509 0.950 . S
H485 C511 0.950 . S
H486 C512 0.950 . S
H487 C514 0.950 . S
H488 C517 0.950 . S
H489 C518 0.950 . S
H490 C520 0.951 . S
H491 C521 0.949 . S
C492 C493 1.376 . S
C492 C497 1.386 . S
C492 C498 1.483 . S
C493 H474 0.949 . S
C493 C492 1.376 . S
C493 C494 1.397 . S
C494 H475 0.950 . S
C494 C493 1.397 . S
C494 C495 1.391 . S
C495 C494 1.391 . S
C495 C496 1.405 . S
C496 H476 0.950 . S
C496 C495 1.405 . S
C496 C497 1.367 . S
C497 H477 0.950 . S
C497 C492 1.386 . S
C497 C496 1.367 . S
C498 C492 1.483 . S
C498 C499 1.382 . S
C498 C500 1.403 . S
C499 H478 0.950 . S
C499 C498 1.382 . S
C499 C515 1.411 . S
C500 C498 1.403 . S
C500 C501 1.489 . S
C500 C514 1.411 . S
C501 C500 1.489 . S
C501 C502 1.383 . S
C501 C506 1.382 . S
C502 H479 0.950 . S
C502 C501 1.383 . S
C502 C503 1.395 . S
C503 H480 0.950 . S
C503 C502 1.395 . S
C503 C504 1.288 . S
C504 C503 1.288 . S
C504 C505 1.392 . S
C505 H481 0.951 . S
C505 C504 1.392 . S
C505 C506 1.392 . S
C506 H482 0.949 . S
C506 C501 1.382 . S
C506 C505 1.392 . S
C507 C508 1.376 . S
C507 C512 1.386 . S
C507 C513 1.483 . S
C508 H483 0.949 . S
C508 C507 1.376 . S
C508 C509 1.397 . S
C509 H484 0.950 . S
C509 C508 1.397 . S
C509 C510 1.391 . S
C510 C509 1.391 . S
C510 C511 1.405 . S
C511 H485 0.950 . S
C511 C510 1.405 . S
C511 C512 1.367 . S
C512 H486 0.950 . S
C512 C507 1.386 . S
C512 C511 1.367 . S
C513 C507 1.483 . S
C513 C514 1.382 . S
C513 C515 1.403 . S
C514 H487 0.950 . S
C514 C500 1.411 . S
C514 C513 1.382 . S
C515 C499 1.411 . S
C515 C513 1.403 . S
C515 C516 1.489 . S
C516 C515 1.489 . S
C516 C517 1.383 . S
C516 C521 1.382 . S
C517 H488 0.950 . S
C517 C516 1.383 . S
C517 C518 1.395 . S
C518 H489 0.950 . S
C518 C517 1.395 . S
C518 C519 1.288 . S
C519 C518 1.288 . S
C519 C520 1.392 . S
C520 H490 0.951 . S
C520 C519 1.392 . S
C520 C521 1.392 . S
C521 H491 0.949 . S
C521 C516 1.382 . S
C521 C520 1.392 . S
H522 C541 0.949 . S
H523 C542 0.950 . S
H524 C544 0.950 . S
H525 C545 0.950 . S
H526 C547 0.950 . S
H527 C550 0.950 . S
H528 C551 0.950 . S
H529 C553 0.951 . S
H530 C554 0.949 . S
H531 C556 0.949 . S
H532 C557 0.950 . S
H533 C559 0.950 . S
H534 C560 0.950 . S
H535 C562 0.950 . S
H536 C565 0.950 . S
H537 C566 0.950 . S
H538 C568 0.951 . S
H539 C569 0.949 . S
C540 C541 1.376 . S
C540 C545 1.386 . S
C540 C546 1.483 . S
C541 H522 0.949 . S
C541 C540 1.376 . S
C541 C542 1.397 . S
C542 H523 0.950 . S
C542 C541 1.397 . S
C542 C543 1.391 . S
C543 C542 1.391 . S
C543 C544 1.405 . S
C544 H524 0.950 . S
C544 C543 1.405 . S
C544 C545 1.367 . S
C545 H525 0.950 . S
C545 C540 1.386 . S
C545 C544 1.367 . S
C546 C540 1.483 . S
C546 C547 1.382 . S
C546 C548 1.403 . S
C547 H526 0.950 . S
C547 C546 1.382 . S
C547 C563 1.411 . S
C548 C546 1.403 . S
C548 C549 1.489 . S
C548 C562 1.411 . S
C549 C548 1.489 . S
C549 C550 1.383 . S
C549 C554 1.382 . S
C550 H527 0.950 . S
C550 C549 1.383 . S
C550 C551 1.395 . S
C551 H528 0.950 . S
C551 C550 1.395 . S
C551 C552 1.288 . S
C552 C551 1.288 . S
C552 C553 1.392 . S
C553 H529 0.951 . S
C553 C552 1.392 . S
C553 C554 1.392 . S
C554 H530 0.949 . S
C554 C549 1.382 . S
C554 C553 1.392 . S
C555 C556 1.376 . S
C555 C560 1.386 . S
C555 C561 1.483 . S
C556 H531 0.949 . S
C556 C555 1.376 . S
C556 C557 1.397 . S
C557 H532 0.950 . S
C557 C556 1.397 . S
C557 C558 1.391 . S
C558 C557 1.391 . S
C558 C559 1.405 . S
C559 H533 0.950 . S
C559 C558 1.405 . S
C559 C560 1.367 . S
C560 H534 0.950 . S
C560 C555 1.386 . S
C560 C559 1.367 . S
C561 C555 1.483 . S
C561 C562 1.382 . S
C561 C563 1.403 . S
C562 H535 0.950 . S
C562 C548 1.411 . S
C562 C561 1.382 . S
C563 C547 1.411 . S
C563 C561 1.403 . S
C563 C564 1.489 . S
C564 C563 1.489 . S
C564 C565 1.383 . S
C564 C569 1.382 . S
C565 H536 0.950 . S
C565 C564 1.383 . S
C565 C566 1.395 . S
C566 H537 0.950 . S
C566 C565 1.395 . S
C566 C567 1.288 . S
C567 C566 1.288 . S
C567 C568 1.392 . S
C568 H538 0.951 . S
C568 C567 1.392 . S
C568 C569 1.392 . S
C569 H539 0.949 . S
C569 C564 1.382 . S
C569 C568 1.392 . S
H570 C589 0.949 . S
H571 C590 0.950 . S
H572 C592 0.950 . S
H573 C593 0.950 . S
H574 C595 0.950 . S
H575 C598 0.950 . S
H576 C599 0.950 . S
H577 C601 0.951 . S
H578 C602 0.949 . S
H579 C604 0.949 . S
H580 C605 0.950 . S
H581 C607 0.950 . S
H582 C608 0.950 . S
H583 C610 0.950 . S
H584 C613 0.950 . S
H585 C614 0.950 . S
H586 C616 0.951 . S
H587 C617 0.949 . S
C588 C589 1.376 . S
C588 C593 1.386 . S
C588 C594 1.483 . S
C589 H570 0.949 . S
C589 C588 1.376 . S
C589 C590 1.397 . S
C590 H571 0.950 . S
C590 C589 1.397 . S
C590 C591 1.391 . S
C591 C590 1.391 . S
C591 C592 1.405 . S
C592 H572 0.950 . S
C592 C591 1.405 . S
C592 C593 1.367 . S
C593 H573 0.950 . S
C593 C588 1.386 . S
C593 C592 1.367 . S
C594 C588 1.483 . S
C594 C595 1.382 . S
C594 C596 1.403 . S
C595 H574 0.950 . S
C595 C594 1.382 . S
C595 C611 1.411 . S
C596 C594 1.403 . S
C596 C597 1.489 . S
C596 C610 1.411 . S
C597 C596 1.489 . S
C597 C598 1.383 . S
C597 C602 1.382 . S
C598 H575 0.950 . S
C598 C597 1.383 . S
C598 C599 1.395 . S
C599 H576 0.950 . S
C599 C598 1.395 . S
C599 C600 1.288 . S
C600 C599 1.288 . S
C600 C601 1.392 . S
C601 H577 0.951 . S
C601 C600 1.392 . S
C601 C602 1.392 . S
C602 H578 0.949 . S
C602 C597 1.382 . S
C602 C601 1.392 . S
C603 C604 1.376 . S
C603 C608 1.386 . S
C603 C609 1.483 . S
C604 H579 0.949 . S
C604 C603 1.376 . S
C604 C605 1.397 . S
C605 H580 0.950 . S
C605 C604 1.397 . S
C605 C606 1.391 . S
C606 C605 1.391 . S
C606 C607 1.405 . S
C607 H581 0.950 . S
C607 C606 1.405 . S
C607 C608 1.367 . S
C608 H582 0.950 . S
C608 C603 1.386 . S
C608 C607 1.367 . S
C609 C603 1.483 . S
C609 C610 1.382 . S
C609 C611 1.403 . S
C610 H583 0.950 . S
C610 C596 1.411 . S
C610 C609 1.382 . S
C611 C595 1.411 . S
C611 C609 1.403 . S
C611 C612 1.489 . S
C612 C611 1.489 . S
C612 C613 1.383 . S
C612 C617 1.382 . S
C613 H584 0.950 . S
C613 C612 1.383 . S
C613 C614 1.395 . S
C614 H585 0.950 . S
C614 C613 1.395 . S
C614 C615 1.288 . S
C615 C614 1.288 . S
C615 C616 1.392 . S
C616 H586 0.951 . S
C616 C615 1.392 . S
C616 C617 1.392 . S
C617 H587 0.949 . S
C617 C612 1.382 . S
C617 C616 1.392 . S
H618 C637 0.949 . S
H619 C638 0.950 . S
H620 C640 0.950 . S
H621 C641 0.950 . S
H622 C643 0.950 . S
H623 C646 0.950 . S
H624 C647 0.950 . S
H625 C649 0.951 . S
H626 C650 0.949 . S
H627 C652 0.949 . S
H628 C653 0.950 . S
H629 C655 0.950 . S
H630 C656 0.950 . S
H631 C658 0.950 . S
H632 C661 0.950 . S
H633 C662 0.950 . S
H634 C664 0.951 . S
H635 C665 0.949 . S
C636 C637 1.376 . S
C636 C641 1.386 . S
C636 C642 1.483 . S
C637 H618 0.949 . S
C637 C636 1.376 . S
C637 C638 1.397 . S
C638 H619 0.950 . S
C638 C637 1.397 . S
C638 C639 1.391 . S
C639 C638 1.391 . S
C639 C640 1.405 . S
C640 H620 0.950 . S
C640 C639 1.405 . S
C640 C641 1.367 . S
C641 H621 0.950 . S
C641 C636 1.386 . S
C641 C640 1.367 . S
C642 C636 1.483 . S
C642 C643 1.382 . S
C642 C644 1.403 . S
C643 H622 0.950 . S
C643 C642 1.382 . S
C643 C659 1.411 . S
C644 C642 1.403 . S
C644 C645 1.489 . S
C644 C658 1.411 . S
C645 C644 1.489 . S
C645 C646 1.383 . S
C645 C650 1.382 . S
C646 H623 0.950 . S
C646 C645 1.383 . S
C646 C647 1.395 . S
C647 H624 0.950 . S
C647 C646 1.395 . S
C647 C648 1.288 . S
C648 C647 1.288 . S
C648 C649 1.392 . S
C649 H625 0.951 . S
C649 C648 1.392 . S
C649 C650 1.392 . S
C650 H626 0.949 . S
C650 C645 1.382 . S
C650 C649 1.392 . S
C651 C652 1.376 . S
C651 C656 1.386 . S
C651 C657 1.483 . S
C652 H627 0.949 . S
C652 C651 1.376 . S
C652 C653 1.397 . S
C653 H628 0.950 . S
C653 C652 1.397 . S
C653 C654 1.391 . S
C654 C653 1.391 . S
C654 C655 1.405 . S
C655 H629 0.950 . S
C655 C654 1.405 . S
C655 C656 1.367 . S
C656 H630 0.950 . S
C656 C651 1.386 . S
C656 C655 1.367 . S
C657 C651 1.483 . S
C657 C658 1.382 . S
C657 C659 1.403 . S
C658 H631 0.950 . S
C658 C644 1.411 . S
C658 C657 1.382 . S
C659 C643 1.411 . S
C659 C657 1.403 . S
C659 C660 1.489 . S
C660 C659 1.489 . S
C660 C661 1.383 . S
C660 C665 1.382 . S
C661 H632 0.950 . S
C661 C660 1.383 . S
C661 C662 1.395 . S
C662 H633 0.950 . S
C662 C661 1.395 . S
C662 C663 1.288 . S
C663 C662 1.288 . S
C663 C664 1.392 . S
C664 H634 0.951 . S
C664 C663 1.392 . S
C664 C665 1.392 . S
C665 H635 0.949 . S
C665 C660 1.382 . S
C665 C664 1.392 . S
H666 C685 0.949 . S
H667 C686 0.950 . S
H668 C688 0.950 . S
H669 C689 0.950 . S
H670 C691 0.950 . S
H671 C694 0.950 . S
H672 C695 0.950 . S
H673 C697 0.951 . S
H674 C698 0.949 . S
H675 C700 0.949 . S
H676 C701 0.950 . S
H677 C703 0.950 . S
H678 C704 0.950 . S
H679 C706 0.950 . S
H680 C709 0.950 . S
H681 C710 0.950 . S
H682 C712 0.951 . S
H683 C713 0.949 . S
C684 C685 1.376 . S
C684 C689 1.386 1_655 S
C684 C690 1.483 . S
C685 H666 0.949 . S
C685 C684 1.376 . S
C685 C686 1.397 . S
C686 H667 0.950 . S
C686 C685 1.397 . S
C686 C687 1.391 . S
C687 C686 1.391 . S
C687 C688 1.405 1_655 S
C688 H668 0.950 . S
C688 C687 1.405 1_455 S
C688 C689 1.367 . S
C689 H669 0.950 . S
C689 C684 1.386 1_455 S
C689 C688 1.367 . S
C690 C684 1.483 . S
C690 C691 1.382 . S
C690 C692 1.403 1_655 S
C691 H670 0.950 . S
C691 C690 1.382 . S
C691 C707 1.411 . S
C692 C690 1.403 1_455 S
C692 C693 1.489 . S
C692 C706 1.411 . S
C693 C692 1.489 . S
C693 C694 1.383 1_455 S
C693 C698 1.382 . S
C694 H671 0.950 . S
C694 C693 1.383 1_655 S
C694 C695 1.395 . S
C695 H672 0.950 . S
C695 C694 1.395 . S
C695 C696 1.288 1_655 S
C696 C695 1.288 1_455 S
C696 C697 1.392 . S
C697 H673 0.951 . S
C697 C696 1.392 . S
C697 C698 1.392 . S
C698 H674 0.949 . S
C698 C693 1.382 . S
C698 C697 1.392 . S
C699 C700 1.376 . S
C699 C704 1.386 1_455 S
C699 C705 1.483 . S
C700 H675 0.949 . S
C700 C699 1.376 . S
C700 C701 1.397 . S
C701 H676 0.950 . S
C701 C700 1.397 . S
C701 C702 1.391 . S
C702 C701 1.391 . S
C702 C703 1.405 1_455 S
C703 H677 0.950 . S
C703 C702 1.405 1_655 S
C703 C704 1.367 . S
C704 H678 0.950 . S
C704 C699 1.386 1_655 S
C704 C703 1.367 . S
C705 C699 1.483 . S
C705 C706 1.382 . S
C705 C707 1.403 1_455 S
C706 H679 0.950 . S
C706 C692 1.411 . S
C706 C705 1.382 . S
C707 C691 1.411 . S
C707 C705 1.403 1_655 S
C707 C708 1.489 . S
C708 C707 1.489 . S
C708 C709 1.383 1_655 S
C708 C713 1.382 . S
C709 H680 0.950 . S
C709 C708 1.383 1_455 S
C709 C710 1.395 . S
C710 H681 0.950 . S
C710 C709 1.395 . S
C710 C711 1.288 1_455 S
C711 C710 1.288 1_655 S
C711 C712 1.392 . S
C712 H682 0.951 . S
C712 C711 1.392 . S
C712 C713 1.392 . S
C713 H683 0.949 . S
C713 C708 1.382 . S
C713 C712 1.392 . S
H714 C733 0.949 . S
H715 C734 0.950 . S
H716 C736 0.950 . S
H717 C737 0.950 . S
H718 C739 0.950 . S
H719 C742 0.950 . S
H720 C743 0.950 . S
H721 C745 0.951 . S
H722 C746 0.949 . S
H723 C748 0.949 . S
H724 C749 0.950 . S
H725 C751 0.950 . S
H726 C752 0.950 . S
H727 C754 0.950 . S
H728 C757 0.950 . S
H729 C758 0.950 . S
H730 C760 0.951 . S
H731 C761 0.949 . S
C732 C733 1.376 . S
C732 C737 1.386 . S
C732 C738 1.483 . S
C733 H714 0.949 . S
C733 C732 1.376 . S
C733 C734 1.397 . S
C734 H715 0.950 . S
C734 C733 1.397 . S
C734 C735 1.391 . S
C735 C734 1.391 . S
C735 C736 1.405 . S
C736 H716 0.950 . S
C736 C735 1.405 . S
C736 C737 1.367 . S
C737 H717 0.950 . S
C737 C732 1.386 . S
C737 C736 1.367 . S
C738 C732 1.483 . S
C738 C739 1.382 . S
C738 C740 1.403 . S
C739 H718 0.950 . S
C739 C738 1.382 . S
C739 C755 1.411 . S
C740 C738 1.403 . S
C740 C741 1.489 . S
C740 C754 1.411 . S
C741 C740 1.489 . S
C741 C742 1.383 . S
C741 C746 1.382 . S
C742 H719 0.950 . S
C742 C741 1.383 . S
C742 C743 1.395 . S
C743 H720 0.950 . S
C743 C742 1.395 . S
C743 C744 1.288 . S
C744 C743 1.288 . S
C744 C745 1.392 . S
C745 H721 0.951 . S
C745 C744 1.392 . S
C745 C746 1.392 . S
C746 H722 0.949 . S
C746 C741 1.382 . S
C746 C745 1.392 . S
C747 C748 1.376 . S
C747 C752 1.386 . S
C747 C753 1.483 . S
C748 H723 0.949 . S
C748 C747 1.376 . S
C748 C749 1.397 . S
C749 H724 0.950 . S
C749 C748 1.397 . S
C749 C750 1.391 . S
C750 C749 1.391 . S
C750 C751 1.405 . S
C751 H725 0.950 . S
C751 C750 1.405 . S
C751 C752 1.367 . S
C752 H726 0.950 . S
C752 C747 1.386 . S
C752 C751 1.367 . S
C753 C747 1.483 . S
C753 C754 1.382 . S
C753 C755 1.403 . S
C754 H727 0.950 . S
C754 C740 1.411 . S
C754 C753 1.382 . S
C755 C739 1.411 . S
C755 C753 1.403 . S
C755 C756 1.489 . S
C756 C755 1.489 . S
C756 C757 1.383 . S
C756 C761 1.382 . S
C757 H728 0.950 . S
C757 C756 1.383 . S
C757 C758 1.395 . S
C758 H729 0.950 . S
C758 C757 1.395 . S
C758 C759 1.288 . S
C759 C758 1.288 . S
C759 C760 1.392 . S
C760 H730 0.951 . S
C760 C759 1.392 . S
C760 C761 1.392 . S
C761 H731 0.949 . S
C761 C756 1.382 . S
C761 C760 1.392 . S
H762 C781 0.949 . S
H763 C782 0.950 . S
H764 C784 0.950 . S
H765 C785 0.950 . S
H766 C787 0.950 . S
H767 C790 0.950 . S
H768 C791 0.950 . S
H769 C793 0.951 . S
H770 C794 0.949 . S
H771 C796 0.949 . S
H772 C797 0.950 . S
H773 C799 0.950 . S
H774 C800 0.950 . S
H775 C802 0.950 . S
H776 C805 0.950 . S
H777 C806 0.950 . S
H778 C808 0.951 . S
H779 C809 0.949 . S
C780 C781 1.376 . S
C780 C785 1.386 1_545 S
C780 C786 1.483 . S
C781 H762 0.949 . S
C781 C780 1.376 . S
C781 C782 1.397 . S
C782 H763 0.950 . S
C782 C781 1.397 . S
C782 C783 1.391 . S
C783 C782 1.391 . S
C783 C784 1.405 1_545 S
C784 H764 0.950 . S
C784 C783 1.405 1_565 S
C784 C785 1.367 . S
C785 H765 0.950 . S
C785 C780 1.386 1_565 S
C785 C784 1.367 . S
C786 C780 1.483 . S
C786 C787 1.382 . S
C786 C788 1.403 1_545 S
C787 H766 0.950 . S
C787 C786 1.382 . S
C787 C803 1.411 . S
C788 C786 1.403 1_565 S
C788 C789 1.489 . S
C788 C802 1.411 . S
C789 C788 1.489 . S
C789 C790 1.383 1_565 S
C789 C794 1.382 . S
C790 H767 0.950 . S
C790 C789 1.383 1_545 S
C790 C791 1.395 . S
C791 H768 0.950 . S
C791 C790 1.395 . S
C791 C792 1.288 1_545 S
C792 C791 1.288 1_565 S
C792 C793 1.392 . S
C793 H769 0.951 . S
C793 C792 1.392 . S
C793 C794 1.392 . S
C794 H770 0.949 . S
C794 C789 1.382 . S
C794 C793 1.392 . S
C795 C796 1.376 . S
C795 C800 1.386 1_565 S
C795 C801 1.483 . S
C796 H771 0.949 . S
C796 C795 1.376 . S
C796 C797 1.397 . S
C797 H772 0.950 . S
C797 C796 1.397 . S
C797 C798 1.391 . S
C798 C797 1.391 . S
C798 C799 1.405 1_565 S
C799 H773 0.950 . S
C799 C798 1.405 1_545 S
C799 C800 1.367 . S
C800 H774 0.950 . S
C800 C795 1.386 1_545 S
C800 C799 1.367 . S
C801 C795 1.483 . S
C801 C802 1.382 . S
C801 C803 1.403 1_565 S
C802 H775 0.950 . S
C802 C788 1.411 . S
C802 C801 1.382 . S
C803 C787 1.411 . S
C803 C801 1.403 1_545 S
C803 C804 1.489 . S
C804 C803 1.489 . S
C804 C805 1.383 1_545 S
C804 C809 1.382 . S
C805 H776 0.950 . S
C805 C804 1.383 1_565 S
C805 C806 1.395 . S
C806 H777 0.950 . S
C806 C805 1.395 . S
C806 C807 1.288 1_565 S
C807 C806 1.288 1_545 S
C807 C808 1.392 . S
C808 H778 0.951 . S
C808 C807 1.392 . S
C808 C809 1.392 . S
C809 H779 0.949 . S
C809 C804 1.382 . S
C809 C808 1.392 . S
H810 C829 0.949 . S
H811 C830 0.950 . S
H812 C832 0.950 . S
H813 C833 0.950 . S
H814 C835 0.950 . S
H815 C838 0.950 . S
H816 C839 0.950 . S
H817 C841 0.951 . S
H818 C842 0.949 . S
H819 C844 0.949 . S
H820 C845 0.950 . S
H821 C847 0.950 . S
H822 C848 0.950 . S
H823 C850 0.950 . S
H824 C853 0.950 . S
H825 C854 0.950 . S
H826 C856 0.951 . S
H827 C857 0.949 . S
C828 C829 1.383 . S
C828 C833 1.383 1_545 S
C828 C834 1.504 . S
C829 H810 0.949 . S
C829 C828 1.383 . S
C829 C830 1.397 . S
C830 H811 0.950 . S
C830 C829 1.397 . S
C830 C831 1.391 1_545 S
C831 C830 1.391 1_565 S
C831 C832 1.405 . S
C832 H812 0.950 . S
C832 C831 1.405 . S
C832 C833 1.367 . S
C833 H813 0.950 . S
C833 C828 1.383 1_565 S
C833 C832 1.367 . S
C834 C828 1.504 . S
C834 C835 1.358 . S
C834 C836 1.398 1_545 S
C835 H814 0.950 . S
C835 C834 1.358 . S
C835 C851 1.444 . S
C836 C834 1.398 1_565 S
C836 C837 1.484 . S
C836 C850 1.433 . S
C837 C836 1.484 . S
C837 C838 1.353 1_565 S
C837 C842 1.398 . S
C838 H815 0.950 . S
C838 C837 1.353 1_545 S
C838 C839 1.395 . S
C839 H816 0.950 . S
C839 C838 1.395 . S
C839 C840 1.288 . S
C840 C839 1.288 . S
C840 C841 1.392 1_545 S
C841 H817 0.951 . S
C841 C840 1.392 1_565 S
C841 C842 1.392 . S
C842 H818 0.949 . S
C842 C837 1.398 . S
C842 C841 1.392 . S
C843 C844 1.383 1_545 S
C843 C848 1.383 . S
C843 C849 1.495 1_545 S
C844 H819 0.949 . S
C844 C843 1.383 1_565 S
C844 C845 1.397 . S
C845 H820 0.950 . S
C845 C844 1.397 . S
C845 C846 1.391 1_565 S
C846 C845 1.391 1_545 S
C846 C847 1.405 . S
C847 H821 0.950 . S
C847 C846 1.405 . S
C847 C848 1.367 . S
C848 H822 0.950 . S
C848 C843 1.383 . S
C848 C847 1.367 . S
C849 C843 1.495 1_565 S
C849 C850 1.366 . S
C849 C851 1.398 1_565 S
C850 H823 0.950 . S
C850 C836 1.433 . S
C850 C849 1.366 . S
C851 C835 1.444 . S
C851 C849 1.398 1_545 S
C851 C852 1.484 . S
C852 C851 1.484 . S
C852 C853 1.332 1_545 S
C852 C857 1.410 . S
C853 H824 0.950 . S
C853 C852 1.332 1_565 S
C853 C854 1.395 . S
C854 H825 0.950 . S
C854 C853 1.395 . S
C854 C855 1.330 . S
C855 C854 1.330 . S
C855 C856 1.311 1_565 S
C856 H826 0.951 . S
C856 C855 1.311 1_545 S
C856 C857 1.392 . S
C857 H827 0.949 . S
C857 C852 1.410 . S
C857 C856 1.392 . S
H858 C877 0.949 . S
H859 C878 0.950 . S
H860 C880 0.950 . S
H861 C881 0.950 . S
H862 C883 0.950 . S
H863 C886 0.950 . S
H864 C887 0.950 . S
H865 C889 0.951 . S
H866 C890 0.949 . S
H867 C892 0.949 . S
H868 C893 0.950 . S
H869 C895 0.950 . S
H870 C896 0.950 . S
H871 C898 0.950 . S
H872 C901 0.950 . S
H873 C902 0.950 . S
H874 C904 0.951 . S
H875 C905 0.949 . S
C876 C877 1.376 . S
C876 C881 1.386 1_455 S
C876 C882 1.483 . S
C877 H858 0.949 . S
C877 C876 1.376 . S
C877 C878 1.397 . S
C878 H859 0.950 . S
C878 C877 1.397 . S
C878 C879 1.391 . S
C879 C878 1.391 . S
C879 C880 1.405 1_455 S
C880 H860 0.950 . S
C880 C879 1.405 1_655 S
C880 C881 1.367 . S
C881 H861 0.950 . S
C881 C876 1.386 1_655 S
C881 C880 1.367 . S
C882 C876 1.483 . S
C882 C883 1.382 . S
C882 C884 1.403 1_455 S
C883 H862 0.950 . S
C883 C882 1.382 . S
C883 C899 1.411 . S
C884 C882 1.403 1_655 S
C884 C885 1.489 . S
C884 C898 1.411 . S
C885 C884 1.489 . S
C885 C886 1.383 1_655 S
C885 C890 1.382 . S
C886 H863 0.950 . S
C886 C885 1.383 1_455 S
C886 C887 1.395 . S
C887 H864 0.950 . S
C887 C886 1.395 . S
C887 C888 1.288 1_455 S
C888 C887 1.288 1_655 S
C888 C889 1.392 . S
C889 H865 0.951 . S
C889 C888 1.392 . S
C889 C890 1.392 . S
C890 H866 0.949 . S
C890 C885 1.382 . S
C890 C889 1.392 . S
C891 C892 1.376 . S
C891 C896 1.386 1_655 S
C891 C897 1.483 . S
C892 H867 0.949 . S
C892 C891 1.376 . S
C892 C893 1.397 . S
C893 H868 0.950 . S
C893 C892 1.397 . S
C893 C894 1.391 . S
C894 C893 1.391 . S
C894 C895 1.405 1_655 S
C895 H869 0.950 . S
C895 C894 1.405 1_455 S
C895 C896 1.367 . S
C896 H870 0.950 . S
C896 C891 1.386 1_455 S
C896 C895 1.367 . S
C897 C891 1.483 . S
C897 C898 1.382 . S
C897 C899 1.403 1_655 S
C898 H871 0.950 . S
C898 C884 1.411 . S
C898 C897 1.382 . S
C899 C883 1.411 . S
C899 C897 1.403 1_455 S
C899 C900 1.489 . S
C900 C899 1.489 . S
C900 C901 1.383 1_455 S
C900 C905 1.382 . S
C901 H872 0.950 . S
C901 C900 1.383 1_655 S
C901 C902 1.395 . S
C902 H873 0.950 . S
C902 C901 1.395 . S
C902 C903 1.288 1_655 S
C903 C902 1.288 1_455 S
C903 C904 1.392 . S
C904 H874 0.951 . S
C904 C903 1.392 . S
C904 C905 1.392 . S
C905 H875 0.949 . S
C905 C900 1.382 . S
C905 C904 1.392 . S
H906 C925 0.949 . S
H907 C926 0.950 . S
H908 C928 0.950 . S
H909 C929 0.950 . S
H910 C931 0.950 . S
H911 C934 0.950 . S
H912 C935 0.950 . S
H913 C937 0.951 . S
H914 C938 0.949 . S
H915 C940 0.949 . S
H916 C941 0.950 . S
H917 C943 0.950 . S
H918 C944 0.950 . S
H919 C946 0.950 . S
H920 C949 0.950 . S
H921 C950 0.950 . S
H922 C952 0.951 . S
H923 C953 0.949 . S
C924 C925 1.376 . S
C924 C929 1.386 . S
C924 C930 1.483 . S
C925 H906 0.949 . S
C925 C924 1.376 . S
C925 C926 1.397 . S
C926 H907 0.950 . S
C926 C925 1.397 . S
C926 C927 1.391 . S
C927 C926 1.391 . S
C927 C928 1.405 . S
C928 H908 0.950 . S
C928 C927 1.405 . S
C928 C929 1.367 . S
C929 H909 0.950 . S
C929 C924 1.386 . S
C929 C928 1.367 . S
C930 C924 1.483 . S
C930 C931 1.382 . S
C930 C932 1.403 . S
C931 H910 0.950 . S
C931 C930 1.382 . S
C931 C947 1.411 . S
C932 C930 1.403 . S
C932 C933 1.489 . S
C932 C946 1.411 . S
C933 C932 1.489 . S
C933 C934 1.383 . S
C933 C938 1.382 . S
C934 H911 0.950 . S
C934 C933 1.383 . S
C934 C935 1.395 . S
C935 H912 0.950 . S
C935 C934 1.395 . S
C935 C936 1.288 . S
C936 C935 1.288 . S
C936 C937 1.392 . S
C937 H913 0.951 . S
C937 C936 1.392 . S
C937 C938 1.392 . S
C938 H914 0.949 . S
C938 C933 1.382 . S
C938 C937 1.392 . S
C939 C940 1.376 . S
C939 C944 1.386 . S
C939 C945 1.483 . S
C940 H915 0.949 . S
C940 C939 1.376 . S
C940 C941 1.397 . S
C941 H916 0.950 . S
C941 C940 1.397 . S
C941 C942 1.391 . S
C942 C941 1.391 . S
C942 C943 1.405 . S
C943 H917 0.950 . S
C943 C942 1.405 . S
C943 C944 1.367 . S
C944 H918 0.950 . S
C944 C939 1.386 . S
C944 C943 1.367 . S
C945 C939 1.483 . S
C945 C946 1.382 . S
C945 C947 1.403 . S
C946 H919 0.950 . S
C946 C932 1.411 . S
C946 C945 1.382 . S
C947 C931 1.411 . S
C947 C945 1.403 . S
C947 C948 1.489 . S
C948 C947 1.489 . S
C948 C949 1.383 . S
C948 C953 1.382 . S
C949 H920 0.950 . S
C949 C948 1.383 . S
C949 C950 1.395 . S
C950 H921 0.950 . S
C950 C949 1.395 . S
C950 C951 1.288 . S
C951 C950 1.288 . S
C951 C952 1.392 . S
C952 H922 0.951 . S
C952 C951 1.392 . S
C952 C953 1.392 . S
C953 H923 0.949 . S
C953 C948 1.382 . S
C953 C952 1.392 . S
H954 C973 0.949 . S
H955 C974 0.950 . S
H956 C976 0.950 . S
H957 C977 0.950 . S
H958 C979 0.950 . S
H959 C982 0.950 . S
H960 C983 0.950 . S
H961 C985 0.951 . S
H962 C986 0.949 . S
H963 C988 0.949 . S
H964 C989 0.950 . S
H965 C991 0.950 . S
H966 C992 0.950 . S
H967 C994 0.950 . S
H968 C997 0.950 . S
H969 C998 0.950 . S
H970 C1000 0.951 . S
H971 C1001 0.949 . S
C972 C973 1.376 . S
C972 C977 1.386 . S
C972 C978 1.483 . S
C973 H954 0.949 . S
C973 C972 1.376 . S
C973 C974 1.397 . S
C974 H955 0.950 . S
C974 C973 1.397 . S
C974 C975 1.391 . S
C975 C974 1.391 . S
C975 C976 1.405 . S
C976 H956 0.950 . S
C976 C975 1.405 . S
C976 C977 1.367 . S
C977 H957 0.950 . S
C977 C972 1.386 . S
C977 C976 1.367 . S
C978 C972 1.483 . S
C978 C979 1.382 . S
C978 C980 1.403 . S
C979 H958 0.950 . S
C979 C978 1.382 . S
C979 C995 1.411 . S
C980 C978 1.403 . S
C980 C981 1.489 . S
C980 C994 1.411 . S
C981 C980 1.489 . S
C981 C982 1.383 . S
C981 C986 1.382 . S
C982 H959 0.950 . S
C982 C981 1.383 . S
C982 C983 1.395 . S
C983 H960 0.950 . S
C983 C982 1.395 . S
C983 C984 1.288 . S
C984 C983 1.288 . S
C984 C985 1.392 . S
C985 H961 0.951 . S
C985 C984 1.392 . S
C985 C986 1.392 . S
C986 H962 0.949 . S
C986 C981 1.382 . S
C986 C985 1.392 . S
C987 C988 1.376 . S
C987 C992 1.386 . S
C987 C993 1.483 . S
C988 H963 0.949 . S
C988 C987 1.376 . S
C988 C989 1.397 . S
C989 H964 0.950 . S
C989 C988 1.397 . S
C989 C990 1.391 . S
C990 C989 1.391 . S
C990 C991 1.405 . S
C991 H965 0.950 . S
C991 C990 1.405 . S
C991 C992 1.367 . S
C992 H966 0.950 . S
C992 C987 1.386 . S
C992 C991 1.367 . S
C993 C987 1.483 . S
C993 C994 1.382 . S
C993 C995 1.403 . S
C994 H967 0.950 . S
C994 C980 1.411 . S
C994 C993 1.382 . S
C995 C979 1.411 . S
C995 C993 1.403 . S
C995 C996 1.489 . S
C996 C995 1.489 . S
C996 C997 1.383 . S
C996 C1001 1.382 . S
C997 H968 0.950 . S
C997 C996 1.383 . S
C997 C998 1.395 . S
C998 H969 0.950 . S
C998 C997 1.395 . S
C998 C999 1.288 . S
C999 C998 1.288 . S
C999 C1000 1.392 . S
C1000 H970 0.951 . S
C1000 C999 1.392 . S
C1000 C1001 1.392 . S
C1001 H971 0.949 . S
C1001 C996 1.382 . S
C1001 C1000 1.392 . S
H1002 C1021 0.949 . S
H1003 C1022 0.950 . S
H1004 C1024 0.950 . S
H1005 C1025 0.950 . S
H1006 C1027 0.950 . S
H1007 C1030 0.950 . S
H1008 C1031 0.950 . S
H1009 C1033 0.951 . S
H1010 C1034 0.949 . S
H1011 C1036 0.949 . S
H1012 C1037 0.950 . S
H1013 C1039 0.950 . S
H1014 C1040 0.950 . S
H1015 C1042 0.950 . S
H1016 C1045 0.950 . S
H1017 C1046 0.950 . S
H1018 C1048 0.951 . S
H1019 C1049 0.949 . S
C1020 C1021 1.376 . S
C1020 C1025 1.386 . S
C1020 C1026 1.483 . S
C1021 H1002 0.949 . S
C1021 C1020 1.376 . S
C1021 C1022 1.397 . S
C1022 H1003 0.950 . S
C1022 C1021 1.397 . S
C1022 C1023 1.391 . S
C1023 C1022 1.391 . S
C1023 C1024 1.405 . S
C1024 H1004 0.950 . S
C1024 C1023 1.405 . S
C1024 C1025 1.367 . S
C1025 H1005 0.950 . S
C1025 C1020 1.386 . S
C1025 C1024 1.367 . S
C1026 C1020 1.483 . S
C1026 C1027 1.382 . S
C1026 C1028 1.403 . S
C1027 H1006 0.950 . S
C1027 C1026 1.382 . S
C1027 C1043 1.411 . S
C1028 C1026 1.403 . S
C1028 C1029 1.489 . S
C1028 C1042 1.411 . S
C1029 C1028 1.489 . S
C1029 C1030 1.383 . S
C1029 C1034 1.382 . S
C1030 H1007 0.950 . S
C1030 C1029 1.383 . S
C1030 C1031 1.395 . S
C1031 H1008 0.950 . S
C1031 C1030 1.395 . S
C1031 C1032 1.288 . S
C1032 C1031 1.288 . S
C1032 C1033 1.392 . S
C1033 H1009 0.951 . S
C1033 C1032 1.392 . S
C1033 C1034 1.392 . S
C1034 H1010 0.949 . S
C1034 C1029 1.382 . S
C1034 C1033 1.392 . S
C1035 C1036 1.376 . S
C1035 C1040 1.386 . S
C1035 C1041 1.483 . S
C1036 H1011 0.949 . S
C1036 C1035 1.376 . S
C1036 C1037 1.397 . S
C1037 H1012 0.950 . S
C1037 C1036 1.397 . S
C1037 C1038 1.391 . S
C1038 C1037 1.391 . S
C1038 C1039 1.405 . S
C1039 H1013 0.950 . S
C1039 C1038 1.405 . S
C1039 C1040 1.367 . S
C1040 H1014 0.950 . S
C1040 C1035 1.386 . S
C1040 C1039 1.367 . S
C1041 C1035 1.483 . S
C1041 C1042 1.382 . S
C1041 C1043 1.403 . S
C1042 H1015 0.950 . S
C1042 C1028 1.411 . S
C1042 C1041 1.382 . S
C1043 C1027 1.411 . S
C1043 C1041 1.403 . S
C1043 C1044 1.489 . S
C1044 C1043 1.489 . S
C1044 C1045 1.383 . S
C1044 C1049 1.382 . S
C1045 H1016 0.950 . S
C1045 C1044 1.383 . S
C1045 C1046 1.395 . S
C1046 H1017 0.950 . S
C1046 C1045 1.395 . S
C1046 C1047 1.288 . S
C1047 C1046 1.288 . S
C1047 C1048 1.392 . S
C1048 H1018 0.951 . S
C1048 C1047 1.392 . S
C1048 C1049 1.392 . S
C1049 H1019 0.949 . S
C1049 C1044 1.382 . S
C1049 C1048 1.392 . S
H1050 C1069 0.949 . S
H1051 C1070 0.950 . S
H1052 C1072 0.950 . S
H1053 C1073 0.950 . S
H1054 C1075 0.950 . S
H1055 C1078 0.950 . S
H1056 C1079 0.950 . S
H1057 C1081 0.951 . S
H1058 C1082 0.949 . S
H1059 C1084 0.949 . S
H1060 C1085 0.950 . S
H1061 C1087 0.950 . S
H1062 C1088 0.950 . S
H1063 C1090 0.950 . S
H1064 C1093 0.950 . S
H1065 C1094 0.950 . S
H1066 C1096 0.951 . S
H1067 C1097 0.949 . S
C1068 C1069 1.376 . S
C1068 C1073 1.386 . S
C1068 C1074 1.483 . S
C1069 H1050 0.949 . S
C1069 C1068 1.376 . S
C1069 C1070 1.397 . S
C1070 H1051 0.950 . S
C1070 C1069 1.397 . S
C1070 C1071 1.391 . S
C1071 C1070 1.391 . S
C1071 C1072 1.405 . S
C1072 H1052 0.950 . S
C1072 C1071 1.405 . S
C1072 C1073 1.367 . S
C1073 H1053 0.950 . S
C1073 C1068 1.386 . S
C1073 C1072 1.367 . S
C1074 C1068 1.483 . S
C1074 C1075 1.382 . S
C1074 C1076 1.403 . S
C1075 H1054 0.950 . S
C1075 C1074 1.382 . S
C1075 C1091 1.411 . S
C1076 C1074 1.403 . S
C1076 C1077 1.489 . S
C1076 C1090 1.411 . S
C1077 C1076 1.489 . S
C1077 C1078 1.383 . S
C1077 C1082 1.382 . S
C1078 H1055 0.950 . S
C1078 C1077 1.383 . S
C1078 C1079 1.395 . S
C1079 H1056 0.950 . S
C1079 C1078 1.395 . S
C1079 C1080 1.288 . S
C1080 C1079 1.288 . S
C1080 C1081 1.392 . S
C1081 H1057 0.951 . S
C1081 C1080 1.392 . S
C1081 C1082 1.392 . S
C1082 H1058 0.949 . S
C1082 C1077 1.382 . S
C1082 C1081 1.392 . S
C1083 C1084 1.376 . S
C1083 C1088 1.386 . S
C1083 C1089 1.483 . S
C1084 H1059 0.949 . S
C1084 C1083 1.376 . S
C1084 C1085 1.397 . S
C1085 H1060 0.950 . S
C1085 C1084 1.397 . S
C1085 C1086 1.391 . S
C1086 C1085 1.391 . S
C1086 C1087 1.405 . S
C1087 H1061 0.950 . S
C1087 C1086 1.405 . S
C1087 C1088 1.367 . S
C1088 H1062 0.950 . S
C1088 C1083 1.386 . S
C1088 C1087 1.367 . S
C1089 C1083 1.483 . S
C1089 C1090 1.382 . S
C1089 C1091 1.403 . S
C1090 H1063 0.950 . S
C1090 C1076 1.411 . S
C1090 C1089 1.382 . S
C1091 C1075 1.411 . S
C1091 C1089 1.403 . S
C1091 C1092 1.489 . S
C1092 C1091 1.489 . S
C1092 C1093 1.383 . S
C1092 C1097 1.382 . S
C1093 H1064 0.950 . S
C1093 C1092 1.383 . S
C1093 C1094 1.395 . S
C1094 H1065 0.950 . S
C1094 C1093 1.395 . S
C1094 C1095 1.288 . S
C1095 C1094 1.288 . S
C1095 C1096 1.392 . S
C1096 H1066 0.951 . S
C1096 C1095 1.392 . S
C1096 C1097 1.392 . S
C1097 H1067 0.949 . S
C1097 C1092 1.382 . S
C1097 C1096 1.392 . S
H1098 C1116 0.951 . S
H1099 C1118 0.951 . S
H1100 C1120 0.950 . S
H1101 C1121 0.950 . S
H1102 C1123 0.950 . S
H1103 C1126 0.950 1_455 S
H1104 C1127 0.950 . S
H1105 C1129 0.950 . S
H1106 C1130 0.950 . S
H1107 C1131 0.951 . S
H1108 C1133 0.951 . S
H1109 C1135 0.950 . S
H1110 C1136 0.950 . S
H1111 C1138 0.950 . S
H1112 C1141 0.950 1_655 S
H1113 C1142 0.950 . S
H1114 C1144 0.950 . S
H1115 C1145 0.950 . S
C1116 H1098 0.951 . S
C1116 C1117 1.368 1_655 S
C1116 C1118 1.388 . S
C1117 C1116 1.368 1_455 S
C1117 C1121 1.383 . S
C1118 H1099 0.951 . S
C1118 C1116 1.388 . S
C1118 C1119 1.383 . S
C1119 C1118 1.383 . S
C1119 C1120 1.384 1_655 S
C1119 C1122 1.503 . S
C1120 H1100 0.950 . S
C1120 C1119 1.384 1_455 S
C1120 C1121 1.374 . S
C1121 H1101 0.950 . S
C1121 C1117 1.383 . S
C1121 C1120 1.374 . S
C1122 C1119 1.503 . S
C1122 C1123 1.365 1_655 S
C1122 C1124 1.404 . S
C1123 H1102 0.950 . S
C1123 C1122 1.365 1_455 S
C1123 C1139 1.377 . S
C1124 C1122 1.404 . S
C1124 C1125 1.524 . S
C1124 C1138 1.377 . S
C1125 C1124 1.524 . S
C1125 C1126 1.397 . S
C1125 C1130 1.363 . S
C1126 H1103 0.950 1_655 S
C1126 C1125 1.397 . S
C1126 C1127 1.334 . S
C1127 H1104 0.950 . S
C1127 C1126 1.334 . S
C1127 C1128 1.287 . S
C1128 C1127 1.287 . S
C1128 C1129 1.524 . S
C1128 H1147 0.913 . S
C1129 H1105 0.950 . S
C1129 C1128 1.524 . S
C1129 C1130 1.415 . S
C1130 H1106 0.950 . S
C1130 C1125 1.363 . S
C1130 C1129 1.415 . S
C1131 H1107 0.951 . S
C1131 C1132 1.366 1_455 S
C1131 C1133 1.388 . S
C1132 C1131 1.366 1_655 S
C1132 C1136 1.385 . S
C1133 H1108 0.951 . S
C1133 C1131 1.388 . S
C1133 C1134 1.366 1_455 S
C1134 C1133 1.366 1_655 S
C1134 C1135 1.414 . S
C1134 C1137 1.499 . S
C1135 H1109 0.950 . S
C1135 C1134 1.414 . S
C1135 C1136 1.374 . S
C1136 H1110 0.950 . S
C1136 C1132 1.385 . S
C1136 C1135 1.374 . S
C1137 C1134 1.499 . S
C1137 C1138 1.373 . S
C1137 C1139 1.389 1_655 S
C1138 H1111 0.950 . S
C1138 C1124 1.377 . S
C1138 C1137 1.373 . S
C1139 C1123 1.377 . S
C1139 C1137 1.389 1_455 S
C1139 C1140 1.524 . S
C1140 C1139 1.524 . S
C1140 C1141 1.397 . S
C1140 C1145 1.363 . S
C1141 H1112 0.950 1_455 S
C1141 C1140 1.397 . S
C1141 C1142 1.334 . S
C1142 H1113 0.950 . S
C1142 C1141 1.334 . S
C1142 C1143 1.287 . S
C1143 C1142 1.287 . S
C1143 C1144 1.524 . S
C1143 H1146 0.999 . S
C1144 H1114 0.950 . S
C1144 C1143 1.524 . S
C1144 C1145 1.415 . S
C1145 H1115 0.950 . S
C1145 C1140 1.363 . S
C1145 C1144 1.415 . S
H1146 C1143 0.999 . S
H1147 C1128 0.913 . S
H1148 C1166 0.951 . S
H1149 C1168 0.951 . S
H1150 C1170 0.950 . S
H1151 C1171 0.950 . S
H1152 C1173 0.950 . S
H1153 C1176 0.950 . S
H1154 C1177 0.950 . S
H1155 C1179 0.950 . S
H1156 C1180 0.950 . S
H1157 C1181 0.951 . S
H1158 C1183 0.951 . S
H1159 C1185 0.950 . S
H1160 C1186 0.950 . S
H1161 C1188 0.950 . S
H1162 C1191 0.950 . S
H1163 C1192 0.950 . S
H1164 C1194 0.950 . S
H1165 C1195 0.950 . S
C1166 H1148 0.951 . S
C1166 C1167 1.366 . S
C1166 C1168 1.388 . S
C1167 C1166 1.366 . S
C1167 C1171 1.385 . S
C1168 H1149 0.951 . S
C1168 C1166 1.388 . S
C1168 C1169 1.366 . S
C1169 C1168 1.366 . S
C1169 C1170 1.414 . S
C1169 C1172 1.499 . S
C1170 H1150 0.950 . S
C1170 C1169 1.414 . S
C1170 C1171 1.374 . S
C1171 H1151 0.950 . S
C1171 C1167 1.385 . S
C1171 C1170 1.374 . S
C1172 C1169 1.499 . S
C1172 C1173 1.373 . S
C1172 C1174 1.389 . S
C1173 H1152 0.950 . S
C1173 C1172 1.373 . S
C1173 C1189 1.377 . S
C1174 C1172 1.389 . S
C1174 C1175 1.524 . S
C1174 C1188 1.377 . S
C1175 C1174 1.524 . S
C1175 C1176 1.397 . S
C1175 C1180 1.363 . S
C1176 H1153 0.950 . S
C1176 C1175 1.397 . S
C1176 C1177 1.334 . S
C1177 H1154 0.950 . S
C1177 C1176 1.334 . S
C1177 C1178 1.287 . S
C1178 C1177 1.287 . S
C1178 C1179 1.524 . S
C1178 H1197 0.913 . S
C1179 H1155 0.950 . S
C1179 C1178 1.524 . S
C1179 C1180 1.415 . S
C1180 H1156 0.950 . S
C1180 C1175 1.363 . S
C1180 C1179 1.415 . S
C1181 H1157 0.951 . S
C1181 C1182 1.366 . S
C1181 C1183 1.388 . S
C1182 C1181 1.366 . S
C1182 C1186 1.385 . S
C1183 H1158 0.951 . S
C1183 C1181 1.388 . S
C1183 C1184 1.366 . S
C1184 C1183 1.366 . S
C1184 C1185 1.414 . S
C1184 C1187 1.499 . S
C1185 H1159 0.950 . S
C1185 C1184 1.414 . S
C1185 C1186 1.374 . S
C1186 H1160 0.950 . S
C1186 C1182 1.385 . S
C1186 C1185 1.374 . S
C1187 C1184 1.499 . S
C1187 C1188 1.373 . S
C1187 C1189 1.389 . S
C1188 H1161 0.950 . S
C1188 C1174 1.377 . S
C1188 C1187 1.373 . S
C1189 C1173 1.377 . S
C1189 C1187 1.389 . S
C1189 C1190 1.524 . S
C1190 C1189 1.524 . S
C1190 C1191 1.397 . S
C1190 C1195 1.363 . S
C1191 H1162 0.950 . S
C1191 C1190 1.397 . S
C1191 C1192 1.334 . S
C1192 H1163 0.950 . S
C1192 C1191 1.334 . S
C1192 C1193 1.287 . S
C1193 C1192 1.287 . S
C1193 C1194 1.524 . S
C1193 H1196 0.999 . S
C1194 H1164 0.950 . S
C1194 C1193 1.524 . S
C1194 C1195 1.415 . S
C1195 H1165 0.950 . S
C1195 C1190 1.363 . S
C1195 C1194 1.415 . S
H1196 C1193 0.999 . S
H1197 C1178 0.913 . S
H1198 C1216 0.951 . S
H1199 C1218 0.951 . S
H1200 C1220 0.950 . S
H1201 C1221 0.950 . S
H1202 C1223 0.950 . S
H1203 C1226 0.950 . S
H1204 C1227 0.950 . S
H1205 C1229 0.950 . S
H1206 C1230 0.950 . S
H1207 C1231 0.951 . S
H1208 C1233 0.951 . S
H1209 C1235 0.950 . S
H1210 C1236 0.950 . S
H1211 C1238 0.950 . S
H1212 C1241 0.950 . S
H1213 C1242 0.950 . S
H1214 C1244 0.950 . S
H1215 C1245 0.950 . S
C1216 H1198 0.951 . S
C1216 C1217 1.407 . S
C1216 C1218 1.388 . S
C1217 C1216 1.407 . S
C1217 C1221 1.315 1_545 S
C1218 H1199 0.951 . S
C1218 C1216 1.388 . S
C1218 C1219 1.366 . S
C1219 C1218 1.366 . S
C1219 C1220 1.414 1_545 S
C1219 C1222 1.499 . S
C1220 H1200 0.950 . S
C1220 C1219 1.414 1_565 S
C1220 C1221 1.374 . S
C1221 H1201 0.950 . S
C1221 C1217 1.315 1_565 S
C1221 C1220 1.374 . S
C1222 C1219 1.499 . S
C1222 C1223 1.373 1_545 S
C1222 C1224 1.389 . S
C1223 H1202 0.950 . S
C1223 C1222 1.373 1_565 S
C1223 C1239 1.377 . S
C1224 C1222 1.389 . S
C1224 C1225 1.524 . S
C1224 C1238 1.377 . S
C1225 C1224 1.524 . S
C1225 C1226 1.397 . S
C1225 C1230 1.363 . S
C1226 H1203 0.950 . S
C1226 C1225 1.397 . S
C1226 C1227 1.334 . S
C1227 H1204 0.950 . S
C1227 C1226 1.334 . S
C1227 C1228 1.287 . S
C1228 C1227 1.287 . S
C1228 C1229 1.524 . S
C1228 H1247 0.913 . S
C1229 H1205 0.950 . S
C1229 C1228 1.524 . S
C1229 C1230 1.415 . S
C1230 H1206 0.950 . S
C1230 C1225 1.363 . S
C1230 C1229 1.415 . S
C1231 H1207 0.951 . S
C1231 C1232 1.366 1_565 S
C1231 C1233 1.388 . S
C1232 C1231 1.366 1_545 S
C1232 C1236 1.385 . S
C1233 H1208 0.951 . S
C1233 C1231 1.388 . S
C1233 C1234 1.366 1_565 S
C1234 C1233 1.366 1_545 S
C1234 C1235 1.414 . S
C1234 C1237 1.499 . S
C1235 H1209 0.950 . S
C1235 C1234 1.414 . S
C1235 C1236 1.374 . S
C1236 H1210 0.950 . S
C1236 C1232 1.385 . S
C1236 C1235 1.374 . S
C1237 C1234 1.499 . S
C1237 C1238 1.373 . S
C1237 C1239 1.389 1_545 S
C1238 H1211 0.950 . S
C1238 C1224 1.377 . S
C1238 C1237 1.373 . S
C1239 C1223 1.377 . S
C1239 C1237 1.389 1_565 S
C1239 C1240 1.524 . S
C1240 C1239 1.524 . S
C1240 C1241 1.397 . S
C1240 C1245 1.363 . S
C1241 H1212 0.950 . S
C1241 C1240 1.397 . S
C1241 C1242 1.334 . S
C1242 H1213 0.950 . S
C1242 C1241 1.334 . S
C1242 C1243 1.287 . S
C1243 C1242 1.287 . S
C1243 C1244 1.524 . S
C1243 H1246 0.999 . S
C1244 H1214 0.950 . S
C1244 C1243 1.524 . S
C1244 C1245 1.415 . S
C1245 H1215 0.950 . S
C1245 C1240 1.363 . S
C1245 C1244 1.415 . S
H1246 C1243 0.999 . S
H1247 C1228 0.913 . S
H1248 C1266 0.951 . S
H1249 C1268 0.951 . S
H1250 C1270 0.950 . S
H1251 C1271 0.950 . S
H1252 C1273 0.950 . S
H1253 C1276 0.950 . S
H1254 C1277 0.950 . S
H1255 C1279 0.950 . S
H1256 C1280 0.950 . S
H1257 C1281 0.951 . S
H1258 C1283 0.951 . S
H1259 C1285 0.950 . S
H1260 C1286 0.950 . S
H1261 C1288 0.950 . S
H1262 C1291 0.950 . S
H1263 C1292 0.950 . S
H1264 C1294 0.950 . S
H1265 C1295 0.950 . S
C1266 H1248 0.951 . S
C1266 C1267 1.373 . S
C1266 C1268 1.388 . S
C1267 C1266 1.373 . S
C1267 C1271 1.370 1_545 S
C1268 H1249 0.951 . S
C1268 C1266 1.388 . S
C1268 C1269 1.366 1_545 S
C1269 C1268 1.366 1_565 S
C1269 C1270 1.414 . S
C1269 C1272 1.499 . S
C1270 H1250 0.950 . S
C1270 C1269 1.414 . S
C1270 C1271 1.374 . S
C1271 H1251 0.950 . S
C1271 C1267 1.370 1_565 S
C1271 C1270 1.374 . S
C1272 C1269 1.499 . S
C1272 C1273 1.373 1_565 S
C1272 C1274 1.389 . S
C1273 H1252 0.950 . S
C1273 C1272 1.373 1_545 S
C1273 C1289 1.377 . S
C1274 C1272 1.389 . S
C1274 C1275 1.524 . S
C1274 C1288 1.377 . S
C1275 C1274 1.524 . S
C1275 C1276 1.397 . S
C1275 C1280 1.363 . S
C1276 H1253 0.950 . S
C1276 C1275 1.397 . S
C1276 C1277 1.334 . S
C1277 H1254 0.950 . S
C1277 C1276 1.334 . S
C1277 C1278 1.287 . S
C1278 C1277 1.287 . S
C1278 C1279 1.524 . S
C1278 H1297 0.913 . S
C1279 H1255 0.950 . S
C1279 C1278 1.524 . S
C1279 C1280 1.415 . S
C1280 H1256 0.950 . S
C1280 C1275 1.363 . S
C1280 C1279 1.415 . S
C1281 H1257 0.951 . S
C1281 C1282 1.366 . S
C1281 C1283 1.388 . S
C1282 C1281 1.366 . S
C1282 C1286 1.385 1_565 S
C1283 H1258 0.951 . S
C1283 C1281 1.388 . S
C1283 C1284 1.429 . S
C1284 C1283 1.429 . S
C1284 C1285 1.389 1_565 S
C1284 C1287 1.477 . S
C1285 H1259 0.950 . S
C1285 C1284 1.389 1_545 S
C1285 C1286 1.374 . S
C1286 H1260 0.950 . S
C1286 C1282 1.385 1_545 S
C1286 C1285 1.374 . S
C1287 C1284 1.477 . S
C1287 C1288 1.372 . S
C1287 C1289 1.382 1_565 S
C1288 H1261 0.950 . S
C1288 C1274 1.377 . S
C1288 C1287 1.372 . S
C1289 C1273 1.377 . S
C1289 C1287 1.382 1_545 S
C1289 C1290 1.524 . S
C1290 C1289 1.524 . S
C1290 C1291 1.397 . S
C1290 C1295 1.363 . S
C1291 H1262 0.950 . S
C1291 C1290 1.397 . S
C1291 C1292 1.334 . S
C1292 H1263 0.950 . S
C1292 C1291 1.334 . S
C1292 C1293 1.287 . S
C1293 C1292 1.287 . S
C1293 C1294 1.524 . S
C1293 H1296 0.999 . S
C1294 H1264 0.950 . S
C1294 C1293 1.524 . S
C1294 C1295 1.415 . S
C1295 H1265 0.950 . S
C1295 C1290 1.363 . S
C1295 C1294 1.415 . S
H1296 C1293 0.999 . S
H1297 C1278 0.913 . S
H1298 C1316 0.951 . S
H1299 C1318 0.951 . S
H1300 C1320 0.950 . S
H1301 C1321 0.950 . S
H1302 C1323 0.950 . S
H1303 C1326 0.950 . S
H1304 C1327 0.950 . S
H1305 C1329 0.950 . S
H1306 C1330 0.950 . S
H1307 C1331 0.951 . S
H1308 C1333 0.951 . S
H1309 C1335 0.950 . S
H1310 C1336 0.950 . S
H1311 C1338 0.950 . S
H1312 C1341 0.950 . S
H1313 C1342 0.950 . S
H1314 C1344 0.950 . S
H1315 C1345 0.950 . S
C1316 H1298 0.951 . S
C1316 C1317 1.292 1_655 S
C1316 C1318 1.388 . S
C1317 C1316 1.292 1_455 S
C1317 C1321 1.430 . S
C1318 H1299 0.951 . S
C1318 C1316 1.388 . S
C1318 C1319 1.338 1_655 S
C1319 C1318 1.338 1_455 S
C1319 C1320 1.465 . S
C1319 C1322 1.480 . S
C1320 H1300 0.950 . S
C1320 C1319 1.465 . S
C1320 C1321 1.374 . S
C1321 H1301 0.950 . S
C1321 C1317 1.430 . S
C1321 C1320 1.374 . S
C1322 C1319 1.480 . S
C1322 C1323 1.373 . S
C1322 C1324 1.389 1_455 S
C1323 H1302 0.950 . S
C1323 C1322 1.373 . S
C1323 C1339 1.377 . S
C1324 C1322 1.389 1_655 S
C1324 C1325 1.524 . S
C1324 C1338 1.377 . S
C1325 C1324 1.524 . S
C1325 C1326 1.397 . S
C1325 C1330 1.363 . S
C1326 H1303 0.950 . S
C1326 C1325 1.397 . S
C1326 C1327 1.334 . S
C1327 H1304 0.950 . S
C1327 C1326 1.334 . S
C1327 C1328 1.287 . S
C1328 C1327 1.287 . S
C1328 C1329 1.524 . S
C1328 H1347 0.913 . S
C1329 H1305 0.950 . S
C1329 C1328 1.524 . S
C1329 C1330 1.415 . S
C1330 H1306 0.950 . S
C1330 C1325 1.363 . S
C1330 C1329 1.415 . S
C1331 H1307 0.951 . S
C1331 C1332 1.366 . S
C1331 C1333 1.388 . S
C1332 C1331 1.366 . S
C1332 C1336 1.385 1_455 S
C1333 H1308 0.951 . S
C1333 C1331 1.388 . S
C1333 C1334 1.366 . S
C1334 C1333 1.366 . S
C1334 C1335 1.414 1_455 S
C1334 C1337 1.499 . S
C1335 H1309 0.950 . S
C1335 C1334 1.414 1_655 S
C1335 C1336 1.374 . S
C1336 H1310 0.950 . S
C1336 C1332 1.385 1_655 S
C1336 C1335 1.374 . S
C1337 C1334 1.499 . S
C1337 C1338 1.373 1_455 S
C1337 C1339 1.389 . S
C1338 H1311 0.950 . S
C1338 C1324 1.377 . S
C1338 C1337 1.373 1_655 S
C1339 C1323 1.377 . S
C1339 C1337 1.389 . S
C1339 C1340 1.524 . S
C1340 C1339 1.524 . S
C1340 C1341 1.397 . S
C1340 C1345 1.363 . S
C1341 H1312 0.950 . S
C1341 C1340 1.397 . S
C1341 C1342 1.334 . S
C1342 H1313 0.950 . S
C1342 C1341 1.334 . S
C1342 C1343 1.287 . S
C1343 C1342 1.287 . S
C1343 C1344 1.524 . S
C1343 H1346 0.999 . S
C1344 H1314 0.950 . S
C1344 C1343 1.524 . S
C1344 C1345 1.415 . S
C1345 H1315 0.950 . S
C1345 C1340 1.363 . S
C1345 C1344 1.415 . S
H1346 C1343 0.999 . S
H1347 C1328 0.913 . S
H1348 C1366 0.951 . S
H1349 C1368 0.951 . S
H1350 C1370 0.950 . S
H1351 C1371 0.950 . S
H1352 C1373 0.950 . S
H1353 C1376 0.950 . S
H1354 C1377 0.950 . S
H1355 C1379 0.950 . S
H1356 C1380 0.950 . S
H1357 C1381 0.951 . S
H1358 C1383 0.951 . S
H1359 C1385 0.950 . S
H1360 C1386 0.950 . S
H1361 C1388 0.950 . S
H1362 C1391 0.950 . S
H1363 C1392 0.950 . S
H1364 C1394 0.950 . S
H1365 C1395 0.950 . S
C1366 H1348 0.951 . S
C1366 C1367 1.366 . S
C1366 C1368 1.388 . S
C1367 C1366 1.366 . S
C1367 C1371 1.385 . S
C1368 H1349 0.951 . S
C1368 C1366 1.388 . S
C1368 C1369 1.366 . S
C1369 C1368 1.366 . S
C1369 C1370 1.414 . S
C1369 C1372 1.499 . S
C1370 H1350 0.950 . S
C1370 C1369 1.414 . S
C1370 C1371 1.374 . S
C1371 H1351 0.950 . S
C1371 C1367 1.385 . S
C1371 C1370 1.374 . S
C1372 C1369 1.499 . S
C1372 C1373 1.373 . S
C1372 C1374 1.389 . S
C1373 H1352 0.950 . S
C1373 C1372 1.373 . S
C1373 C1389 1.377 . S
C1374 C1372 1.389 . S
C1374 C1375 1.524 . S
C1374 C1388 1.377 . S
C1375 C1374 1.524 . S
C1375 C1376 1.397 . S
C1375 C1380 1.363 . S
C1376 H1353 0.950 . S
C1376 C1375 1.397 . S
C1376 C1377 1.334 . S
C1377 H1354 0.950 . S
C1377 C1376 1.334 . S
C1377 C1378 1.287 . S
C1378 C1377 1.287 . S
C1378 C1379 1.524 . S
C1378 H1397 0.913 . S
C1379 H1355 0.950 . S
C1379 C1378 1.524 . S
C1379 C1380 1.415 . S
C1380 H1356 0.950 . S
C1380 C1375 1.363 . S
C1380 C1379 1.415 . S
C1381 H1357 0.951 . S
C1381 C1382 1.366 . S
C1381 C1383 1.388 . S
C1382 C1381 1.366 . S
C1382 C1386 1.385 . S
C1383 H1358 0.951 . S
C1383 C1381 1.388 . S
C1383 C1384 1.366 . S
C1384 C1383 1.366 . S
C1384 C1385 1.414 . S
C1384 C1387 1.499 . S
C1385 H1359 0.950 . S
C1385 C1384 1.414 . S
C1385 C1386 1.374 . S
C1386 H1360 0.950 . S
C1386 C1382 1.385 . S
C1386 C1385 1.374 . S
C1387 C1384 1.499 . S
C1387 C1388 1.373 . S
C1387 C1389 1.389 . S
C1388 H1361 0.950 . S
C1388 C1374 1.377 . S
C1388 C1387 1.373 . S
C1389 C1373 1.377 . S
C1389 C1387 1.389 . S
C1389 C1390 1.524 . S
C1390 C1389 1.524 . S
C1390 C1391 1.397 . S
C1390 C1395 1.363 . S
C1391 H1362 0.950 . S
C1391 C1390 1.397 . S
C1391 C1392 1.334 . S
C1392 H1363 0.950 . S
C1392 C1391 1.334 . S
C1392 C1393 1.287 . S
C1393 C1392 1.287 . S
C1393 C1394 1.524 . S
C1393 H1396 0.999 . S
C1394 H1364 0.950 . S
C1394 C1393 1.524 . S
C1394 C1395 1.415 . S
C1395 H1365 0.950 . S
C1395 C1390 1.363 . S
C1395 C1394 1.415 . S
H1396 C1393 0.999 . S
H1397 C1378 0.913 . S
H1398 C1416 0.951 . S
H1399 C1418 0.951 . S
H1400 C1420 0.950 . S
H1401 C1421 0.950 . S
H1402 C1423 0.950 . S
H1403 C1426 0.950 . S
H1404 C1427 0.950 . S
H1405 C1429 0.950 . S
H1406 C1430 0.950 . S
H1407 C1431 0.951 . S
H1408 C1433 0.951 . S
H1409 C1435 0.950 . S
H1410 C1436 0.950 . S
H1411 C1438 0.950 . S
H1412 C1441 0.950 . S
H1413 C1442 0.950 . S
H1414 C1444 0.950 . S
H1415 C1445 0.950 . S
C1416 H1398 0.951 . S
C1416 C1417 1.351 1_655 S
C1416 C1418 1.388 . S
C1417 C1416 1.351 1_455 S
C1417 C1421 1.421 . S
C1418 H1399 0.951 . S
C1418 C1416 1.388 . S
C1418 C1419 1.366 1_655 S
C1419 C1418 1.366 1_455 S
C1419 C1420 1.414 . S
C1419 C1422 1.499 . S
C1420 H1400 0.950 . S
C1420 C1419 1.414 . S
C1420 C1421 1.374 . S
C1421 H1401 0.950 . S
C1421 C1417 1.421 . S
C1421 C1420 1.374 . S
C1422 C1419 1.499 . S
C1422 C1423 1.373 . S
C1422 C1424 1.414 1_455 S
C1423 H1402 0.950 . S
C1423 C1422 1.373 . S
C1423 C1439 1.377 . S
C1424 C1422 1.414 1_655 S
C1424 C1425 1.519 . S
C1424 C1438 1.356 . S
C1425 C1424 1.519 . S
C1425 C1426 1.397 1_655 S
C1425 C1430 1.363 . S
C1426 H1403 0.950 . S
C1426 C1425 1.397 1_455 S
C1426 C1427 1.334 . S
C1427 H1404 0.950 . S
C1427 C1426 1.334 . S
C1427 C1428 1.287 1_455 S
C1428 C1427 1.287 1_655 S
C1428 C1429 1.524 . S
C1428 H1447 0.913 . S
C1429 H1405 0.950 . S
C1429 C1428 1.524 . S
C1429 C1430 1.415 . S
C1430 H1406 0.950 . S
C1430 C1425 1.363 . S
C1430 C1429 1.415 . S
C1431 H1407 0.951 . S
C1431 C1432 1.366 . S
C1431 C1433 1.388 . S
C1432 C1431 1.366 . S
C1432 C1436 1.385 1_455 S
C1433 H1408 0.951 . S
C1433 C1431 1.388 . S
C1433 C1434 1.366 . S
C1434 C1433 1.366 . S
C1434 C1435 1.414 1_455 S
C1434 C1437 1.535 . S
C1435 H1409 0.950 . S
C1435 C1434 1.414 1_655 S
C1435 C1436 1.374 . S
C1436 H1410 0.950 . S
C1436 C1432 1.385 1_655 S
C1436 C1435 1.374 . S
C1437 C1434 1.535 . S
C1437 C1438 1.376 1_455 S
C1437 C1439 1.364 . S
C1438 H1411 0.950 . S
C1438 C1424 1.356 . S
C1438 C1437 1.376 1_655 S
C1439 C1423 1.377 . S
C1439 C1437 1.364 . S
C1439 C1440 1.524 . S
C1440 C1439 1.524 . S
C1440 C1441 1.397 1_455 S
C1440 C1445 1.363 . S
C1441 H1412 0.950 . S
C1441 C1440 1.397 1_655 S
C1441 C1442 1.334 . S
C1442 H1413 0.950 . S
C1442 C1441 1.334 . S
C1442 C1443 1.287 1_655 S
C1443 C1442 1.287 1_455 S
C1443 C1444 1.524 . S
C1443 H1446 0.999 . S
C1444 H1414 0.950 . S
C1444 C1443 1.524 . S
C1444 C1445 1.415 . S
C1445 H1415 0.950 . S
C1445 C1440 1.363 . S
C1445 C1444 1.415 . S
H1446 C1443 0.999 . S
H1447 C1428 0.913 . S
H1448 C1466 0.951 . S
H1449 C1468 0.951 . S
H1450 C1470 0.950 . S
H1451 C1471 0.950 . S
H1452 C1473 0.950 . S
H1453 C1476 0.950 . S
H1454 C1477 0.950 . S
H1455 C1479 0.950 . S
H1456 C1480 0.950 . S
H1457 C1481 0.951 . S
H1458 C1483 0.951 . S
H1459 C1485 0.950 . S
H1460 C1486 0.950 . S
H1461 C1488 0.950 . S
H1462 C1491 0.950 . S
H1463 C1492 0.950 . S
H1464 C1494 0.950 . S
H1465 C1495 0.950 . S
C1466 H1448 0.951 . S
C1466 C1467 1.366 . S
C1466 C1468 1.388 . S
C1467 C1466 1.366 . S
C1467 C1471 1.385 . S
C1468 H1449 0.951 . S
C1468 C1466 1.388 . S
C1468 C1469 1.366 . S
C1469 C1468 1.366 . S
C1469 C1470 1.414 . S
C1469 C1472 1.499 . S
C1470 H1450 0.950 . S
C1470 C1469 1.414 . S
C1470 C1471 1.374 . S
C1471 H1451 0.950 . S
C1471 C1467 1.385 . S
C1471 C1470 1.374 . S
C1472 C1469 1.499 . S
C1472 C1473 1.373 . S
C1472 C1474 1.389 . S
C1473 H1452 0.950 . S
C1473 C1472 1.373 . S
C1473 C1489 1.377 . S
C1474 C1472 1.389 . S
C1474 C1475 1.524 . S
C1474 C1488 1.377 . S
C1475 C1474 1.524 . S
C1475 C1476 1.397 . S
C1475 C1480 1.363 . S
C1476 H1453 0.950 . S
C1476 C1475 1.397 . S
C1476 C1477 1.334 . S
C1477 H1454 0.950 . S
C1477 C1476 1.334 . S
C1477 C1478 1.287 . S
C1478 C1477 1.287 . S
C1478 C1479 1.524 . S
C1478 H1497 0.913 . S
C1479 H1455 0.950 . S
C1479 C1478 1.524 . S
C1479 C1480 1.415 . S
C1480 H1456 0.950 . S
C1480 C1475 1.363 . S
C1480 C1479 1.415 . S
C1481 H1457 0.951 . S
C1481 C1482 1.366 . S
C1481 C1483 1.388 . S
C1482 C1481 1.366 . S
C1482 C1486 1.385 . S
C1483 H1458 0.951 . S
C1483 C1481 1.388 . S
C1483 C1484 1.366 . S
C1484 C1483 1.366 . S
C1484 C1485 1.414 . S
C1484 C1487 1.499 . S
C1485 H1459 0.950 . S
C1485 C1484 1.414 . S
C1485 C1486 1.374 . S
C1486 H1460 0.950 . S
C1486 C1482 1.385 . S
C1486 C1485 1.374 . S
C1487 C1484 1.499 . S
C1487 C1488 1.373 . S
C1487 C1489 1.389 . S
C1488 H1461 0.950 . S
C1488 C1474 1.377 . S
C1488 C1487 1.373 . S
C1489 C1473 1.377 . S
C1489 C1487 1.389 . S
C1489 C1490 1.524 . S
C1490 C1489 1.524 . S
C1490 C1491 1.397 . S
C1490 C1495 1.363 . S
C1491 H1462 0.950 . S
C1491 C1490 1.397 . S
C1491 C1492 1.334 . S
C1492 H1463 0.950 . S
C1492 C1491 1.334 . S
C1492 C1493 1.287 . S
C1493 C1492 1.287 . S
C1493 C1494 1.524 . S
C1493 H1496 0.999 . S
C1494 H1464 0.950 . S
C1494 C1493 1.524 . S
C1494 C1495 1.415 . S
C1495 H1465 0.950 . S
C1495 C1490 1.363 . S
C1495 C1494 1.415 . S
H1496 C1493 0.999 . S
H1497 C1478 0.913 . S
H1498 C1516 0.951 . S
H1499 C1518 0.951 . S
H1500 C1520 0.950 . S
H1501 C1521 0.950 . S
H1502 C1523 0.950 . S
H1503 C1526 0.950 . S
H1504 C1527 0.950 . S
H1505 C1529 0.950 . S
H1506 C1530 0.950 . S
H1507 C1531 0.951 . S
H1508 C1533 0.951 . S
H1509 C1535 0.950 . S
H1510 C1536 0.950 . S
H1511 C1538 0.950 . S
H1512 C1541 0.950 . S
H1513 C1542 0.950 . S
H1514 C1544 0.950 . S
H1515 C1545 0.950 . S
C1516 H1498 0.951 . S
C1516 C1517 1.371 . S
C1516 C1518 1.388 . S
C1517 C1516 1.371 . S
C1517 C1521 1.374 1_565 S
C1518 H1499 0.951 . S
C1518 C1516 1.388 . S
C1518 C1519 1.366 . S
C1519 C1518 1.366 . S
C1519 C1520 1.414 1_565 S
C1519 C1522 1.499 . S
C1520 H1500 0.950 . S
C1520 C1519 1.414 1_545 S
C1520 C1521 1.374 . S
C1521 H1501 0.950 . S
C1521 C1517 1.374 1_545 S
C1521 C1520 1.374 . S
C1522 C1519 1.499 . S
C1522 C1523 1.373 1_565 S
C1522 C1524 1.389 . S
C1523 H1502 0.950 . S
C1523 C1522 1.373 1_545 S
C1523 C1539 1.377 . S
C1524 C1522 1.389 . S
C1524 C1525 1.524 . S
C1524 C1538 1.377 . S
C1525 C1524 1.524 . S
C1525 C1526 1.397 . S
C1525 C1530 1.363 . S
C1526 H1503 0.950 . S
C1526 C1525 1.397 . S
C1526 C1527 1.334 . S
C1527 H1504 0.950 . S
C1527 C1526 1.334 . S
C1527 C1528 1.287 . S
C1528 C1527 1.287 . S
C1528 C1529 1.524 . S
C1528 H1547 0.913 . S
C1529 H1505 0.950 . S
C1529 C1528 1.524 . S
C1529 C1530 1.415 . S
C1530 H1506 0.950 . S
C1530 C1525 1.363 . S
C1530 C1529 1.415 . S
C1531 H1507 0.951 . S
C1531 C1532 1.366 1_545 S
C1531 C1533 1.388 . S
C1532 C1531 1.366 1_565 S
C1532 C1536 1.385 . S
C1533 H1508 0.951 . S
C1533 C1531 1.388 . S
C1533 C1534 1.366 1_545 S
C1534 C1533 1.366 1_565 S
C1534 C1535 1.414 . S
C1534 C1537 1.499 . S
C1535 H1509 0.950 . S
C1535 C1534 1.414 . S
C1535 C1536 1.374 . S
C1536 H1510 0.950 . S
C1536 C1532 1.385 . S
C1536 C1535 1.374 . S
C1537 C1534 1.499 . S
C1537 C1538 1.373 . S
C1537 C1539 1.389 1_565 S
C1538 H1511 0.950 . S
C1538 C1524 1.377 . S
C1538 C1537 1.373 . S
C1539 C1523 1.377 . S
C1539 C1537 1.389 1_545 S
C1539 C1540 1.524 . S
C1540 C1539 1.524 . S
C1540 C1541 1.397 . S
C1540 C1545 1.363 . S
C1541 H1512 0.950 . S
C1541 C1540 1.397 . S
C1541 C1542 1.334 . S
C1542 H1513 0.950 . S
C1542 C1541 1.334 . S
C1542 C1543 1.287 . S
C1543 C1542 1.287 . S
C1543 C1544 1.524 . S
C1543 H1546 0.999 . S
C1544 H1514 0.950 . S
C1544 C1543 1.524 . S
C1544 C1545 1.415 . S
C1545 H1515 0.950 . S
C1545 C1540 1.363 . S
C1545 C1544 1.415 . S
H1546 C1543 0.999 . S
H1547 C1528 0.913 . S
H1548 C1566 0.951 . S
H1549 C1568 0.951 . S
H1550 C1570 0.950 . S
H1551 C1571 0.950 . S
H1552 C1573 0.950 . S
H1553 C1576 0.950 . S
H1554 C1577 0.950 . S
H1555 C1579 0.950 . S
H1556 C1580 0.950 . S
H1557 C1581 0.951 . S
H1558 C1583 0.951 . S
H1559 C1585 0.950 . S
H1560 C1586 0.950 . S
H1561 C1588 0.950 . S
H1562 C1591 0.950 . S
H1563 C1592 0.950 . S
H1564 C1594 0.950 . S
H1565 C1595 0.950 . S
C1566 H1548 0.951 . S
C1566 C1567 1.351 1_565 S
C1566 C1568 1.388 . S
C1567 C1566 1.351 1_545 S
C1567 C1571 1.420 . S
C1568 H1549 0.951 . S
C1568 C1566 1.388 . S
C1568 C1569 1.366 1_565 S
C1569 C1568 1.366 1_545 S
C1569 C1570 1.414 . S
C1569 C1572 1.499 . S
C1570 H1550 0.950 . S
C1570 C1569 1.414 . S
C1570 C1571 1.374 . S
C1571 H1551 0.950 . S
C1571 C1567 1.420 . S
C1571 C1570 1.374 . S
C1572 C1569 1.499 . S
C1572 C1573 1.373 . S
C1572 C1574 1.389 1_545 S
C1573 H1552 0.950 . S
C1573 C1572 1.373 . S
C1573 C1589 1.377 . S
C1574 C1572 1.389 1_565 S
C1574 C1575 1.524 . S
C1574 C1588 1.377 . S
C1575 C1574 1.524 . S
C1575 C1576 1.397 1_565 S
C1575 C1580 1.363 . S
C1576 H1553 0.950 . S
C1576 C1575 1.397 1_545 S
C1576 C1577 1.334 . S
C1577 H1554 0.950 . S
C1577 C1576 1.334 . S
C1577 C1578 1.287 1_545 S
C1578 C1577 1.287 1_565 S
C1578 C1579 1.524 . S
C1578 H1597 0.913 . S
C1579 H1555 0.950 . S
C1579 C1578 1.524 . S
C1579 C1580 1.415 . S
C1580 H1556 0.950 . S
C1580 C1575 1.363 . S
C1580 C1579 1.415 . S
C1581 H1557 0.951 . S
C1581 C1582 1.366 . S
C1581 C1583 1.388 . S
C1582 C1581 1.366 . S
C1582 C1586 1.385 1_545 S
C1583 H1558 0.951 . S
C1583 C1581 1.388 . S
C1583 C1584 1.366 . S
C1584 C1583 1.366 . S
C1584 C1585 1.414 1_545 S
C1584 C1587 1.534 . S
C1585 H1559 0.950 . S
C1585 C1584 1.414 1_565 S
C1585 C1586 1.374 . S
C1586 H1560 0.950 . S
C1586 C1582 1.385 1_565 S
C1586 C1585 1.374 . S
C1587 C1584 1.534 . S
C1587 C1588 1.374 1_545 S
C1587 C1589 1.366 . S
C1588 H1561 0.950 . S
C1588 C1574 1.377 . S
C1588 C1587 1.374 1_565 S
C1589 C1573 1.377 . S
C1589 C1587 1.366 . S
C1589 C1590 1.524 . S
C1590 C1589 1.524 . S
C1590 C1591 1.397 1_545 S
C1590 C1595 1.363 . S
C1591 H1562 0.950 . S
C1591 C1590 1.397 1_565 S
C1591 C1592 1.334 . S
C1592 H1563 0.950 . S
C1592 C1591 1.334 . S
C1592 C1593 1.287 1_565 S
C1593 C1592 1.287 1_545 S
C1593 C1594 1.524 . S
C1593 H1596 0.999 . S
C1594 H1564 0.950 . S
C1594 C1593 1.524 . S
C1594 C1595 1.415 . S
C1595 H1565 0.950 . S
C1595 C1590 1.363 . S
C1595 C1594 1.415 . S
H1596 C1593 0.999 . S
H1597 C1578 0.913 . S
H1598 C1616 0.951 . S
H1599 C1618 0.951 . S
H1600 C1620 0.950 . S
H1601 C1621 0.950 . S
H1602 C1623 0.950 . S
H1603 C1626 0.945 . S
H1604 C1627 0.950 1_655 S
H1605 C1629 0.950 . S
H1606 C1630 0.950 . S
H1607 C1631 0.951 . S
H1608 C1633 0.951 . S
H1609 C1635 0.950 . S
H1610 C1636 0.950 . S
H1611 C1638 0.950 . S
H1612 C1641 0.950 1_455 S
H1613 C1642 0.944 1_455 S
H1614 C1644 0.950 . S
H1615 C1645 0.950 . S
C1616 H1598 0.951 . S
C1616 C1617 1.350 1_455 S
C1616 C1618 1.388 . S
C1617 C1616 1.350 1_655 S
C1617 C1621 1.395 . S
C1618 H1599 0.951 . S
C1618 C1616 1.388 . S
C1618 C1619 1.308 1_455 S
C1619 C1618 1.308 1_655 S
C1619 C1620 1.507 . S
C1619 C1622 1.472 . S
C1620 H1600 0.950 . S
C1620 C1619 1.507 . S
C1620 C1621 1.374 . S
C1621 H1601 0.950 . S
C1621 C1617 1.395 . S
C1621 C1620 1.374 . S
C1622 C1619 1.472 . S
C1622 C1623 1.373 . S
C1622 C1624 1.389 1_655 S
C1623 H1602 0.950 . S
C1623 C1622 1.373 . S
C1623 C1639 1.377 . S
C1624 C1622 1.389 1_455 S
C1624 C1625 1.524 . S
C1624 C1638 1.377 . S
C1625 C1624 1.524 . S
C1625 C1626 1.399 1_455 S
C1625 C1630 1.363 . S
C1626 H1603 0.945 . S
C1626 C1625 1.399 1_655 S
C1626 C1627 1.336 1_655 S
C1627 H1604 0.950 1_455 S
C1627 C1626 1.336 1_455 S
C1627 C1628 1.287 . S
C1628 C1627 1.287 . S
C1628 C1629 1.524 . S
C1628 H1647 0.913 . S
C1629 H1605 0.950 . S
C1629 C1628 1.524 . S
C1629 C1630 1.415 . S
C1630 H1606 0.950 . S
C1630 C1625 1.363 . S
C1630 C1629 1.415 . S
C1631 H1607 0.951 . S
C1631 C1632 1.366 . S
C1631 C1633 1.388 . S
C1632 C1631 1.366 . S
C1632 C1636 1.385 1_655 S
C1633 H1608 0.951 . S
C1633 C1631 1.388 . S
C1633 C1634 1.366 . S
C1634 C1633 1.366 . S
C1634 C1635 1.414 1_655 S
C1634 C1637 1.475 . S
C1635 H1609 0.950 . S
C1635 C1634 1.414 1_455 S
C1635 C1636 1.374 . S
C1636 H1610 0.950 . S
C1636 C1632 1.385 1_455 S
C1636 C1635 1.374 . S
C1637 C1634 1.475 . S
C1637 C1638 1.338 1_655 S
C1637 C1639 1.457 . S
C1638 H1611 0.950 . S
C1638 C1624 1.377 . S
C1638 C1637 1.338 1_455 S
C1639 C1623 1.377 . S
C1639 C1637 1.457 . S
C1639 C1640 1.524 . S
C1640 C1639 1.524 . S
C1640 C1641 1.397 . S
C1640 C1645 1.363 . S
C1641 H1612 0.950 1_655 S
C1641 C1640 1.397 . S
C1641 C1642 1.334 . S
C1642 H1613 0.944 1_655 S
C1642 C1641 1.334 . S
C1642 C1643 1.287 . S
C1643 C1642 1.287 . S
C1643 C1644 1.524 . S
C1643 H1646 0.999 . S
C1644 H1614 0.950 . S
C1644 C1643 1.524 . S
C1644 C1645 1.415 . S
C1645 H1615 0.950 . S
C1645 C1640 1.363 . S
C1645 C1644 1.415 . S
H1646 C1643 0.999 . S
H1647 C1628 0.913 . S
H1648 C1666 0.951 . S
H1649 C1668 0.951 . S
H1650 C1670 0.950 . S
H1651 C1671 0.950 . S
H1652 C1673 0.950 . S
H1653 C1676 0.950 . S
H1654 C1677 0.950 . S
H1655 C1679 0.950 . S
H1656 C1680 0.950 . S
H1657 C1681 0.951 . S
H1658 C1683 0.951 . S
H1659 C1685 0.950 . S
H1660 C1686 0.950 . S
H1661 C1688 0.950 . S
H1662 C1691 0.950 . S
H1663 C1692 0.950 . S
H1664 C1694 0.950 . S
H1665 C1695 0.950 . S
C1666 H1648 0.951 . S
C1666 C1667 1.366 . S
C1666 C1668 1.388 . S
C1667 C1666 1.366 . S
C1667 C1671 1.385 . S
C1668 H1649 0.951 . S
C1668 C1666 1.388 . S
C1668 C1669 1.366 . S
C1669 C1668 1.366 . S
C1669 C1670 1.414 . S
C1669 C1672 1.499 . S
C1670 H1650 0.950 . S
C1670 C1669 1.414 . S
C1670 C1671 1.374 . S
C1671 H1651 0.950 . S
C1671 C1667 1.385 . S
C1671 C1670 1.374 . S
C1672 C1669 1.499 . S
C1672 C1673 1.373 . S
C1672 C1674 1.389 . S
C1673 H1652 0.950 . S
C1673 C1672 1.373 . S
C1673 C1689 1.377 . S
C1674 C1672 1.389 . S
C1674 C1675 1.524 . S
C1674 C1688 1.377 . S
C1675 C1674 1.524 . S
C1675 C1676 1.397 . S
C1675 C1680 1.363 . S
C1676 H1653 0.950 . S
C1676 C1675 1.397 . S
C1676 C1677 1.334 . S
C1677 H1654 0.950 . S
C1677 C1676 1.334 . S
C1677 C1678 1.287 . S
C1678 C1677 1.287 . S
C1678 C1679 1.524 . S
C1678 H1697 0.913 . S
C1679 H1655 0.950 . S
C1679 C1678 1.524 . S
C1679 C1680 1.415 . S
C1680 H1656 0.950 . S
C1680 C1675 1.363 . S
C1680 C1679 1.415 . S
C1681 H1657 0.951 . S
C1681 C1682 1.366 . S
C1681 C1683 1.388 . S
C1682 C1681 1.366 . S
C1682 C1686 1.385 . S
C1683 H1658 0.951 . S
C1683 C1681 1.388 . S
C1683 C1684 1.366 . S
C1684 C1683 1.366 . S
C1684 C1685 1.414 . S
C1684 C1687 1.499 . S
C1685 H1659 0.950 . S
C1685 C1684 1.414 . S
C1685 C1686 1.374 . S
C1686 H1660 0.950 . S
C1686 C1682 1.385 . S
C1686 C1685 1.374 . S
C1687 C1684 1.499 . S
C1687 C1688 1.373 . S
C1687 C1689 1.389 . S
C1688 H1661 0.950 . S
C1688 C1674 1.377 . S
C1688 C1687 1.373 . S
C1689 C1673 1.377 . S
C1689 C1687 1.389 . S
C1689 C1690 1.524 . S
C1690 C1689 1.524 . S
C1690 C1691 1.397 . S
C1690 C1695 1.363 . S
C1691 H1662 0.950 . S
C1691 C1690 1.397 . S
C1691 C1692 1.334 . S
C1692 H1663 0.950 . S
C1692 C1691 1.334 . S
C1692 C1693 1.287 . S
C1693 C1692 1.287 . S
C1693 C1694 1.524 . S
C1693 H1696 0.999 . S
C1694 H1664 0.950 . S
C1694 C1693 1.524 . S
C1694 C1695 1.415 . S
C1695 H1665 0.950 . S
C1695 C1690 1.363 . S
C1695 C1694 1.415 . S
H1696 C1693 0.999 . S
H1697 C1678 0.913 . S
H1698 C1716 0.951 . S
H1699 C1718 0.951 . S
H1700 C1720 0.950 . S
H1701 C1721 0.950 . S
H1702 C1723 0.950 . S
H1703 C1726 0.950 . S
H1704 C1727 0.950 . S
H1705 C1729 0.950 . S
H1706 C1730 0.950 . S
H1707 C1731 0.951 . S
H1708 C1733 0.951 . S
H1709 C1735 0.950 . S
H1710 C1736 0.950 . S
H1711 C1738 0.950 . S
H1712 C1741 0.950 . S
H1713 C1742 0.950 . S
H1714 C1744 0.950 . S
H1715 C1745 0.950 . S
C1716 H1698 0.951 . S
C1716 C1717 1.366 . S
C1716 C1718 1.388 . S
C1717 C1716 1.366 . S
C1717 C1721 1.385 . S
C1718 H1699 0.951 . S
C1718 C1716 1.388 . S
C1718 C1719 1.366 . S
C1719 C1718 1.366 . S
C1719 C1720 1.414 . S
C1719 C1722 1.499 . S
C1720 H1700 0.950 . S
C1720 C1719 1.414 . S
C1720 C1721 1.374 . S
C1721 H1701 0.950 . S
C1721 C1717 1.385 . S
C1721 C1720 1.374 . S
C1722 C1719 1.499 . S
C1722 C1723 1.373 . S
C1722 C1724 1.389 . S
C1723 H1702 0.950 . S
C1723 C1722 1.373 . S
C1723 C1739 1.377 . S
C1724 C1722 1.389 . S
C1724 C1725 1.524 . S
C1724 C1738 1.377 . S
C1725 C1724 1.524 . S
C1725 C1726 1.397 . S
C1725 C1730 1.363 . S
C1726 H1703 0.950 . S
C1726 C1725 1.397 . S
C1726 C1727 1.334 . S
C1727 H1704 0.950 . S
C1727 C1726 1.334 . S
C1727 C1728 1.287 . S
C1728 C1727 1.287 . S
C1728 C1729 1.524 . S
C1728 H1747 0.913 . S
C1729 H1705 0.950 . S
C1729 C1728 1.524 . S
C1729 C1730 1.415 . S
C1730 H1706 0.950 . S
C1730 C1725 1.363 . S
C1730 C1729 1.415 . S
C1731 H1707 0.951 . S
C1731 C1732 1.366 . S
C1731 C1733 1.388 . S
C1732 C1731 1.366 . S
C1732 C1736 1.385 . S
C1733 H1708 0.951 . S
C1733 C1731 1.388 . S
C1733 C1734 1.366 . S
C1734 C1733 1.366 . S
C1734 C1735 1.414 . S
C1734 C1737 1.499 . S
C1735 H1709 0.950 . S
C1735 C1734 1.414 . S
C1735 C1736 1.374 . S
C1736 H1710 0.950 . S
C1736 C1732 1.385 . S
C1736 C1735 1.374 . S
C1737 C1734 1.499 . S
C1737 C1738 1.373 . S
C1737 C1739 1.389 . S
C1738 H1711 0.950 . S
C1738 C1724 1.377 . S
C1738 C1737 1.373 . S
C1739 C1723 1.377 . S
C1739 C1737 1.389 . S
C1739 C1740 1.524 . S
C1740 C1739 1.524 . S
C1740 C1741 1.397 . S
C1740 C1745 1.363 . S
C1741 H1712 0.950 . S
C1741 C1740 1.397 . S
C1741 C1742 1.334 . S
C1742 H1713 0.950 . S
C1742 C1741 1.334 . S
C1742 C1743 1.287 . S
C1743 C1742 1.287 . S
C1743 C1744 1.524 . S
C1743 H1746 0.999 . S
C1744 H1714 0.950 . S
C1744 C1743 1.524 . S
C1744 C1745 1.415 . S
C1745 H1715 0.950 . S
C1745 C1740 1.363 . S
C1745 C1744 1.415 . S
H1746 C1743 0.999 . S
H1747 C1728 0.913 . S
H1748 C1766 0.951 . S
H1749 C1768 0.951 . S
H1750 C1770 0.950 . S
H1751 C1771 0.950 . S
H1752 C1773 0.950 . S
H1753 C1776 0.950 . S
H1754 C1777 0.950 . S
H1755 C1779 0.950 . S
H1756 C1780 0.950 . S
H1757 C1781 0.951 . S
H1758 C1783 0.951 . S
H1759 C1785 0.950 . S
H1760 C1786 0.950 . S
H1761 C1788 0.950 . S
H1762 C1791 0.950 . S
H1763 C1792 0.950 . S
H1764 C1794 0.950 . S
H1765 C1795 0.950 . S
C1766 H1748 0.951 . S
C1766 C1767 1.366 . S
C1766 C1768 1.388 . S
C1767 C1766 1.366 . S
C1767 C1771 1.385 . S
C1768 H1749 0.951 . S
C1768 C1766 1.388 . S
C1768 C1769 1.366 . S
C1769 C1768 1.366 . S
C1769 C1770 1.414 . S
C1769 C1772 1.499 . S
C1770 H1750 0.950 . S
C1770 C1769 1.414 . S
C1770 C1771 1.374 . S
C1771 H1751 0.950 . S
C1771 C1767 1.385 . S
C1771 C1770 1.374 . S
C1772 C1769 1.499 . S
C1772 C1773 1.373 . S
C1772 C1774 1.389 . S
C1773 H1752 0.950 . S
C1773 C1772 1.373 . S
C1773 C1789 1.377 . S
C1774 C1772 1.389 . S
C1774 C1775 1.524 . S
C1774 C1788 1.377 . S
C1775 C1774 1.524 . S
C1775 C1776 1.397 . S
C1775 C1780 1.363 . S
C1776 H1753 0.950 . S
C1776 C1775 1.397 . S
C1776 C1777 1.334 . S
C1777 H1754 0.950 . S
C1777 C1776 1.334 . S
C1777 C1778 1.287 . S
C1778 C1777 1.287 . S
C1778 C1779 1.524 . S
C1778 H1797 0.913 . S
C1779 H1755 0.950 . S
C1779 C1778 1.524 . S
C1779 C1780 1.415 . S
C1780 H1756 0.950 . S
C1780 C1775 1.363 . S
C1780 C1779 1.415 . S
C1781 H1757 0.951 . S
C1781 C1782 1.366 . S
C1781 C1783 1.388 . S
C1782 C1781 1.366 . S
C1782 C1786 1.385 . S
C1783 H1758 0.951 . S
C1783 C1781 1.388 . S
C1783 C1784 1.366 . S
C1784 C1783 1.366 . S
C1784 C1785 1.414 . S
C1784 C1787 1.499 . S
C1785 H1759 0.950 . S
C1785 C1784 1.414 . S
C1785 C1786 1.374 . S
C1786 H1760 0.950 . S
C1786 C1782 1.385 . S
C1786 C1785 1.374 . S
C1787 C1784 1.499 . S
C1787 C1788 1.373 . S
C1787 C1789 1.389 . S
C1788 H1761 0.950 . S
C1788 C1774 1.377 . S
C1788 C1787 1.373 . S
C1789 C1773 1.377 . S
C1789 C1787 1.389 . S
C1789 C1790 1.524 . S
C1790 C1789 1.524 . S
C1790 C1791 1.397 . S
C1790 C1795 1.363 . S
C1791 H1762 0.950 . S
C1791 C1790 1.397 . S
C1791 C1792 1.334 . S
C1792 H1763 0.950 . S
C1792 C1791 1.334 . S
C1792 C1793 1.287 . S
C1793 C1792 1.287 . S
C1793 C1794 1.524 . S
C1793 H1796 0.999 . S
C1794 H1764 0.950 . S
C1794 C1793 1.524 . S
C1794 C1795 1.415 . S
C1795 H1765 0.950 . S
C1795 C1790 1.363 . S
C1795 C1794 1.415 . S
H1796 C1793 0.999 . S
H1797 C1778 0.913 . S
H1798 C1816 0.951 . S
H1799 C1818 0.951 . S
H1800 C1820 0.950 . S
H1801 C1821 0.950 . S
H1802 C1823 0.950 . S
H1803 C1826 0.950 . S
H1804 C1827 0.950 . S
H1805 C1829 0.950 . S
H1806 C1830 0.950 . S
H1807 C1831 0.951 . S
H1808 C1833 0.951 . S
H1809 C1835 0.950 . S
H1810 C1836 0.950 . S
H1811 C1838 0.950 . S
H1812 C1841 0.950 . S
H1813 C1842 0.950 . S
H1814 C1844 0.950 . S
H1815 C1845 0.950 . S
C1816 H1798 0.951 . S
C1816 C1817 1.366 . S
C1816 C1818 1.388 . S
C1817 C1816 1.366 . S
C1817 C1821 1.385 . S
C1818 H1799 0.951 . S
C1818 C1816 1.388 . S
C1818 C1819 1.366 . S
C1819 C1818 1.366 . S
C1819 C1820 1.414 . S
C1819 C1822 1.499 . S
C1820 H1800 0.950 . S
C1820 C1819 1.414 . S
C1820 C1821 1.374 . S
C1821 H1801 0.950 . S
C1821 C1817 1.385 . S
C1821 C1820 1.374 . S
C1822 C1819 1.499 . S
C1822 C1823 1.373 . S
C1822 C1824 1.389 . S
C1823 H1802 0.950 . S
C1823 C1822 1.373 . S
C1823 C1839 1.377 . S
C1824 C1822 1.389 . S
C1824 C1825 1.524 . S
C1824 C1838 1.377 . S
C1825 C1824 1.524 . S
C1825 C1826 1.397 . S
C1825 C1830 1.363 . S
C1826 H1803 0.950 . S
C1826 C1825 1.397 . S
C1826 C1827 1.334 . S
C1827 H1804 0.950 . S
C1827 C1826 1.334 . S
C1827 C1828 1.287 . S
C1828 C1827 1.287 . S
C1828 C1829 1.524 . S
C1828 H1847 0.913 . S
C1829 H1805 0.950 . S
C1829 C1828 1.524 . S
C1829 C1830 1.415 . S
C1830 H1806 0.950 . S
C1830 C1825 1.363 . S
C1830 C1829 1.415 . S
C1831 H1807 0.951 . S
C1831 C1832 1.366 . S
C1831 C1833 1.388 . S
C1832 C1831 1.366 . S
C1832 C1836 1.385 . S
C1833 H1808 0.951 . S
C1833 C1831 1.388 . S
C1833 C1834 1.366 . S
C1834 C1833 1.366 . S
C1834 C1835 1.414 . S
C1834 C1837 1.499 . S
C1835 H1809 0.950 . S
C1835 C1834 1.414 . S
C1835 C1836 1.374 . S
C1836 H1810 0.950 . S
C1836 C1832 1.385 . S
C1836 C1835 1.374 . S
C1837 C1834 1.499 . S
C1837 C1838 1.373 . S
C1837 C1839 1.389 . S
C1838 H1811 0.950 . S
C1838 C1824 1.377 . S
C1838 C1837 1.373 . S
C1839 C1823 1.377 . S
C1839 C1837 1.389 . S
C1839 C1840 1.524 . S
C1840 C1839 1.524 . S
C1840 C1841 1.397 . S
C1840 C1845 1.363 . S
C1841 H1812 0.950 . S
C1841 C1840 1.397 . S
C1841 C1842 1.334 . S
C1842 H1813 0.950 . S
C1842 C1841 1.334 . S
C1842 C1843 1.287 . S
C1843 C1842 1.287 . S
C1843 C1844 1.524 . S
C1843 H1846 0.999 . S
C1844 H1814 0.950 . S
C1844 C1843 1.524 . S
C1844 C1845 1.415 . S
C1845 H1815 0.950 . S
C1845 C1840 1.363 . S
C1845 C1844 1.415 . S
H1846 C1843 0.999 . S
H1847 C1828 0.913 . S
H1848 C1866 0.951 . S
H1849 C1868 0.951 . S
H1850 C1870 0.950 . S
H1851 C1871 0.950 . S
H1852 C1873 0.950 . S
H1853 C1876 0.950 . S
H1854 C1877 0.950 . S
H1855 C1879 0.950 . S
H1856 C1880 0.950 . S
H1857 C1881 0.951 . S
H1858 C1883 0.951 . S
H1859 C1885 0.950 . S
H1860 C1886 0.950 . S
H1861 C1888 0.950 . S
H1862 C1891 0.950 . S
H1863 C1892 0.950 . S
H1864 C1894 0.950 . S
H1865 C1895 0.950 . S
C1866 H1848 0.951 . S
C1866 C1867 1.366 . S
C1866 C1868 1.388 . S
C1867 C1866 1.366 . S
C1867 C1871 1.385 . S
C1868 H1849 0.951 . S
C1868 C1866 1.388 . S
C1868 C1869 1.366 . S
C1869 C1868 1.366 . S
C1869 C1870 1.414 . S
C1869 C1872 1.499 . S
C1870 H1850 0.950 . S
C1870 C1869 1.414 . S
C1870 C1871 1.374 . S
C1871 H1851 0.950 . S
C1871 C1867 1.385 . S
C1871 C1870 1.374 . S
C1872 C1869 1.499 . S
C1872 C1873 1.373 . S
C1872 C1874 1.389 . S
C1873 H1852 0.950 . S
C1873 C1872 1.373 . S
C1873 C1889 1.377 . S
C1874 C1872 1.389 . S
C1874 C1875 1.524 . S
C1874 C1888 1.377 . S
C1875 C1874 1.524 . S
C1875 C1876 1.397 . S
C1875 C1880 1.363 . S
C1876 H1853 0.950 . S
C1876 C1875 1.397 . S
C1876 C1877 1.334 . S
C1877 H1854 0.950 . S
C1877 C1876 1.334 . S
C1877 C1878 1.287 . S
C1878 C1877 1.287 . S
C1878 C1879 1.524 . S
C1878 H1897 0.913 . S
C1879 H1855 0.950 . S
C1879 C1878 1.524 . S
C1879 C1880 1.415 . S
C1880 H1856 0.950 . S
C1880 C1875 1.363 . S
C1880 C1879 1.415 . S
C1881 H1857 0.951 . S
C1881 C1882 1.366 . S
C1881 C1883 1.388 . S
C1882 C1881 1.366 . S
C1882 C1886 1.385 . S
C1883 H1858 0.951 . S
C1883 C1881 1.388 . S
C1883 C1884 1.366 . S
C1884 C1883 1.366 . S
C1884 C1885 1.414 . S
C1884 C1887 1.499 . S
C1885 H1859 0.950 . S
C1885 C1884 1.414 . S
C1885 C1886 1.374 . S
C1886 H1860 0.950 . S
C1886 C1882 1.385 . S
C1886 C1885 1.374 . S
C1887 C1884 1.499 . S
C1887 C1888 1.373 . S
C1887 C1889 1.389 . S
C1888 H1861 0.950 . S
C1888 C1874 1.377 . S
C1888 C1887 1.373 . S
C1889 C1873 1.377 . S
C1889 C1887 1.389 . S
C1889 C1890 1.524 . S
C1890 C1889 1.524 . S
C1890 C1891 1.397 . S
C1890 C1895 1.363 . S
C1891 H1862 0.950 . S
C1891 C1890 1.397 . S
C1891 C1892 1.334 . S
C1892 H1863 0.950 . S
C1892 C1891 1.334 . S
C1892 C1893 1.287 . S
C1893 C1892 1.287 . S
C1893 C1894 1.524 . S
C1893 H1896 0.999 . S
C1894 H1864 0.950 . S
C1894 C1893 1.524 . S
C1894 C1895 1.415 . S
C1895 H1865 0.950 . S
C1895 C1890 1.363 . S
C1895 C1894 1.415 . S
H1896 C1893 0.999 . S
H1897 C1878 0.913 . S
H1898 C1916 0.951 . S
H1899 C1918 0.951 . S
H1900 C1920 0.950 . S
H1901 C1921 0.950 . S
H1902 C1923 0.950 . S
H1903 C1926 0.950 . S
H1904 C1927 0.950 . S
H1905 C1929 0.950 . S
H1906 C1930 0.950 . S
H1907 C1931 0.951 . S
H1908 C1933 0.951 . S
H1909 C1935 0.950 . S
H1910 C1936 0.950 . S
H1911 C1938 0.950 . S
H1912 C1941 0.950 . S
H1913 C1942 0.950 . S
H1914 C1944 0.950 . S
H1915 C1945 0.950 . S
C1916 H1898 0.951 . S
C1916 C1917 1.366 . S
C1916 C1918 1.388 . S
C1917 C1916 1.366 . S
C1917 C1921 1.385 . S
C1918 H1899 0.951 . S
C1918 C1916 1.388 . S
C1918 C1919 1.366 . S
C1919 C1918 1.366 . S
C1919 C1920 1.414 . S
C1919 C1922 1.499 . S
C1920 H1900 0.950 . S
C1920 C1919 1.414 . S
C1920 C1921 1.374 . S
C1921 H1901 0.950 . S
C1921 C1917 1.385 . S
C1921 C1920 1.374 . S
C1922 C1919 1.499 . S
C1922 C1923 1.373 . S
C1922 C1924 1.389 . S
C1923 H1902 0.950 . S
C1923 C1922 1.373 . S
C1923 C1939 1.377 . S
C1924 C1922 1.389 . S
C1924 C1925 1.524 . S
C1924 C1938 1.377 . S
C1925 C1924 1.524 . S
C1925 C1926 1.397 . S
C1925 C1930 1.363 . S
C1926 H1903 0.950 . S
C1926 C1925 1.397 . S
C1926 C1927 1.334 . S
C1927 H1904 0.950 . S
C1927 C1926 1.334 . S
C1927 C1928 1.287 . S
C1928 C1927 1.287 . S
C1928 C1929 1.524 . S
C1928 H1947 0.913 . S
C1929 H1905 0.950 . S
C1929 C1928 1.524 . S
C1929 C1930 1.415 . S
C1930 H1906 0.950 . S
C1930 C1925 1.363 . S
C1930 C1929 1.415 . S
C1931 H1907 0.951 . S
C1931 C1932 1.366 . S
C1931 C1933 1.388 . S
C1932 C1931 1.366 . S
C1932 C1936 1.385 . S
C1933 H1908 0.951 . S
C1933 C1931 1.388 . S
C1933 C1934 1.366 . S
C1934 C1933 1.366 . S
C1934 C1935 1.414 . S
C1934 C1937 1.499 . S
C1935 H1909 0.950 . S
C1935 C1934 1.414 . S
C1935 C1936 1.374 . S
C1936 H1910 0.950 . S
C1936 C1932 1.385 . S
C1936 C1935 1.374 . S
C1937 C1934 1.499 . S
C1937 C1938 1.373 . S
C1937 C1939 1.389 . S
C1938 H1911 0.950 . S
C1938 C1924 1.377 . S
C1938 C1937 1.373 . S
C1939 C1923 1.377 . S
C1939 C1937 1.389 . S
C1939 C1940 1.524 . S
C1940 C1939 1.524 . S
C1940 C1941 1.397 . S
C1940 C1945 1.363 . S
C1941 H1912 0.950 . S
C1941 C1940 1.397 . S
C1941 C1942 1.334 . S
C1942 H1913 0.950 . S
C1942 C1941 1.334 . S
C1942 C1943 1.287 . S
C1943 C1942 1.287 . S
C1943 C1944 1.524 . S
C1943 H1946 0.999 . S
C1944 H1914 0.950 . S
C1944 C1943 1.524 . S
C1944 C1945 1.415 . S
C1945 H1915 0.950 . S
C1945 C1940 1.363 . S
C1945 C1944 1.415 . S
H1946 C1943 0.999 . S
H1947 C1928 0.913 . S
H1948 C1966 0.951 . S
H1949 C1968 0.951 . S
H1950 C1970 0.950 . S
H1951 C1971 0.950 . S
H1952 C1973 0.950 . S
H1953 C1976 0.950 . S
H1954 C1977 0.950 . S
H1955 C1979 0.950 . S
H1956 C1980 0.950 . S
H1957 C1981 0.951 . S
H1958 C1983 0.951 . S
H1959 C1985 0.950 . S
H1960 C1986 0.950 . S
H1961 C1988 0.950 . S
H1962 C1991 0.950 . S
H1963 C1992 0.950 . S
H1964 C1994 0.950 . S
H1965 C1995 0.950 . S
C1966 H1948 0.951 . S
C1966 C1967 1.366 . S
C1966 C1968 1.388 . S
C1967 C1966 1.366 . S
C1967 C1971 1.385 . S
C1968 H1949 0.951 . S
C1968 C1966 1.388 . S
C1968 C1969 1.366 . S
C1969 C1968 1.366 . S
C1969 C1970 1.414 . S
C1969 C1972 1.499 . S
C1970 H1950 0.950 . S
C1970 C1969 1.414 . S
C1970 C1971 1.374 . S
C1971 H1951 0.950 . S
C1971 C1967 1.385 . S
C1971 C1970 1.374 . S
C1972 C1969 1.499 . S
C1972 C1973 1.373 . S
C1972 C1974 1.389 . S
C1973 H1952 0.950 . S
C1973 C1972 1.373 . S
C1973 C1989 1.377 . S
C1974 C1972 1.389 . S
C1974 C1975 1.524 . S
C1974 C1988 1.377 . S
C1975 C1974 1.524 . S
C1975 C1976 1.397 . S
C1975 C1980 1.363 . S
C1976 H1953 0.950 . S
C1976 C1975 1.397 . S
C1976 C1977 1.334 . S
C1977 H1954 0.950 . S
C1977 C1976 1.334 . S
C1977 C1978 1.287 . S
C1978 C1977 1.287 . S
C1978 C1979 1.524 . S
C1978 H1997 0.913 . S
C1979 H1955 0.950 . S
C1979 C1978 1.524 . S
C1979 C1980 1.415 . S
C1980 H1956 0.950 . S
C1980 C1975 1.363 . S
C1980 C1979 1.415 . S
C1981 H1957 0.951 . S
C1981 C1982 1.366 . S
C1981 C1983 1.388 . S
C1982 C1981 1.366 . S
C1982 C1986 1.385 . S
C1983 H1958 0.951 . S
C1983 C1981 1.388 . S
C1983 C1984 1.366 . S
C1984 C1983 1.366 . S
C1984 C1985 1.414 . S
C1984 C1987 1.499 . S
C1985 H1959 0.950 . S
C1985 C1984 1.414 . S
C1985 C1986 1.374 . S
C1986 H1960 0.950 . S
C1986 C1982 1.385 . S
C1986 C1985 1.374 . S
C1987 C1984 1.499 . S
C1987 C1988 1.373 . S
C1987 C1989 1.389 . S
C1988 H1961 0.950 . S
C1988 C1974 1.377 . S
C1988 C1987 1.373 . S
C1989 C1973 1.377 . S
C1989 C1987 1.389 . S
C1989 C1990 1.524 . S
C1990 C1989 1.524 . S
C1990 C1991 1.397 . S
C1990 C1995 1.363 . S
C1991 H1962 0.950 . S
C1991 C1990 1.397 . S
C1991 C1992 1.334 . S
C1992 H1963 0.950 . S
C1992 C1991 1.334 . S
C1992 C1993 1.287 . S
C1993 C1992 1.287 . S
C1993 C1994 1.524 . S
C1993 H1996 0.999 . S
C1994 H1964 0.950 . S
C1994 C1993 1.524 . S
C1994 C1995 1.415 . S
C1995 H1965 0.950 . S
C1995 C1990 1.363 . S
C1995 C1994 1.415 . S
H1996 C1993 0.999 . S
H1997 C1978 0.913 . S
H1998 C2016 0.951 . S
H1999 C2018 0.951 . S
H2000 C2020 0.950 . S
H2001 C2021 0.950 . S
H2002 C2023 0.950 . S
H2003 C2026 0.950 . S
H2004 C2027 0.950 . S
H2005 C2029 0.950 . S
H2006 C2030 0.950 . S
H2007 C2031 0.951 . S
H2008 C2033 0.951 . S
H2009 C2035 0.950 . S
H2010 C2036 0.950 . S
H2011 C2038 0.950 . S
H2012 C2041 0.950 . S
H2013 C2042 0.950 . S
H2014 C2044 0.950 . S
H2015 C2045 0.950 . S
C2016 H1998 0.951 . S
C2016 C2017 1.366 . S
C2016 C2018 1.388 . S
C2017 C2016 1.366 . S
C2017 C2021 1.385 . S
C2018 H1999 0.951 . S
C2018 C2016 1.388 . S
C2018 C2019 1.366 . S
C2019 C2018 1.366 . S
C2019 C2020 1.414 . S
C2019 C2022 1.499 . S
C2020 H2000 0.950 . S
C2020 C2019 1.414 . S
C2020 C2021 1.374 . S
C2021 H2001 0.950 . S
C2021 C2017 1.385 . S
C2021 C2020 1.374 . S
C2022 C2019 1.499 . S
C2022 C2023 1.373 . S
C2022 C2024 1.389 . S
C2023 H2002 0.950 . S
C2023 C2022 1.373 . S
C2023 C2039 1.377 . S
C2024 C2022 1.389 . S
C2024 C2025 1.524 . S
C2024 C2038 1.377 . S
C2025 C2024 1.524 . S
C2025 C2026 1.397 . S
C2025 C2030 1.363 . S
C2026 H2003 0.950 . S
C2026 C2025 1.397 . S
C2026 C2027 1.334 . S
C2027 H2004 0.950 . S
C2027 C2026 1.334 . S
C2027 C2028 1.287 . S
C2028 C2027 1.287 . S
C2028 C2029 1.524 . S
C2028 H2047 0.913 . S
C2029 H2005 0.950 . S
C2029 C2028 1.524 . S
C2029 C2030 1.415 . S
C2030 H2006 0.950 . S
C2030 C2025 1.363 . S
C2030 C2029 1.415 . S
C2031 H2007 0.951 . S
C2031 C2032 1.366 . S
C2031 C2033 1.388 . S
C2032 C2031 1.366 . S
C2032 C2036 1.385 . S
C2033 H2008 0.951 . S
C2033 C2031 1.388 . S
C2033 C2034 1.366 . S
C2034 C2033 1.366 . S
C2034 C2035 1.414 . S
C2034 C2037 1.499 . S
C2035 H2009 0.950 . S
C2035 C2034 1.414 . S
C2035 C2036 1.374 . S
C2036 H2010 0.950 . S
C2036 C2032 1.385 . S
C2036 C2035 1.374 . S
C2037 C2034 1.499 . S
C2037 C2038 1.373 . S
C2037 C2039 1.389 . S
C2038 H2011 0.950 . S
C2038 C2024 1.377 . S
C2038 C2037 1.373 . S
C2039 C2023 1.377 . S
C2039 C2037 1.389 . S
C2039 C2040 1.524 . S
C2040 C2039 1.524 . S
C2040 C2041 1.397 . S
C2040 C2045 1.363 . S
C2041 H2012 0.950 . S
C2041 C2040 1.397 . S
C2041 C2042 1.334 . S
C2042 H2013 0.950 . S
C2042 C2041 1.334 . S
C2042 C2043 1.287 . S
C2043 C2042 1.287 . S
C2043 C2044 1.524 . S
C2043 H2046 0.999 . S
C2044 H2014 0.950 . S
C2044 C2043 1.524 . S
C2044 C2045 1.415 . S
C2045 H2015 0.950 . S
C2045 C2040 1.363 . S
C2045 C2044 1.415 . S
H2046 C2043 0.999 . S
H2047 C2028 0.913 . S
H2048 C2066 0.951 . S
H2049 C2068 0.951 . S
H2050 C2070 0.950 . S
H2051 C2071 0.950 . S
H2052 C2073 0.950 . S
H2053 C2076 0.950 . S
H2054 C2077 0.950 . S
H2055 C2079 0.950 . S
H2056 C2080 0.950 . S
H2057 C2081 0.951 . S
H2058 C2083 0.951 . S
H2059 C2085 0.950 . S
H2060 C2086 0.950 . S
H2061 C2088 0.950 . S
H2062 C2091 0.950 . S
H2063 C2092 0.950 . S
H2064 C2094 0.950 . S
H2065 C2095 0.950 . S
C2066 H2048 0.951 . S
C2066 C2067 1.366 . S
C2066 C2068 1.388 . S
C2067 C2066 1.366 . S
C2067 C2071 1.385 . S
C2068 H2049 0.951 . S
C2068 C2066 1.388 . S
C2068 C2069 1.366 . S
C2069 C2068 1.366 . S
C2069 C2070 1.414 . S
C2069 C2072 1.499 . S
C2070 H2050 0.950 . S
C2070 C2069 1.414 . S
C2070 C2071 1.374 . S
C2071 H2051 0.950 . S
C2071 C2067 1.385 . S
C2071 C2070 1.374 . S
C2072 C2069 1.499 . S
C2072 C2073 1.373 . S
C2072 C2074 1.389 . S
C2073 H2052 0.950 . S
C2073 C2072 1.373 . S
C2073 C2089 1.377 . S
C2074 C2072 1.389 . S
C2074 C2075 1.524 . S
C2074 C2088 1.377 . S
C2075 C2074 1.524 . S
C2075 C2076 1.397 . S
C2075 C2080 1.363 . S
C2076 H2053 0.950 . S
C2076 C2075 1.397 . S
C2076 C2077 1.334 . S
C2077 H2054 0.950 . S
C2077 C2076 1.334 . S
C2077 C2078 1.287 . S
C2078 C2077 1.287 . S
C2078 C2079 1.524 . S
C2078 H2097 0.913 . S
C2079 H2055 0.950 . S
C2079 C2078 1.524 . S
C2079 C2080 1.415 . S
C2080 H2056 0.950 . S
C2080 C2075 1.363 . S
C2080 C2079 1.415 . S
C2081 H2057 0.951 . S
C2081 C2082 1.366 . S
C2081 C2083 1.388 . S
C2082 C2081 1.366 . S
C2082 C2086 1.385 . S
C2083 H2058 0.951 . S
C2083 C2081 1.388 . S
C2083 C2084 1.366 . S
C2084 C2083 1.366 . S
C2084 C2085 1.414 . S
C2084 C2087 1.499 . S
C2085 H2059 0.950 . S
C2085 C2084 1.414 . S
C2085 C2086 1.374 . S
C2086 H2060 0.950 . S
C2086 C2082 1.385 . S
C2086 C2085 1.374 . S
C2087 C2084 1.499 . S
C2087 C2088 1.373 . S
C2087 C2089 1.389 . S
C2088 H2061 0.950 . S
C2088 C2074 1.377 . S
C2088 C2087 1.373 . S
C2089 C2073 1.377 . S
C2089 C2087 1.389 . S
C2089 C2090 1.524 . S
C2090 C2089 1.524 . S
C2090 C2091 1.397 . S
C2090 C2095 1.363 . S
C2091 H2062 0.950 . S
C2091 C2090 1.397 . S
C2091 C2092 1.334 . S
C2092 H2063 0.950 . S
C2092 C2091 1.334 . S
C2092 C2093 1.287 . S
C2093 C2092 1.287 . S
C2093 C2094 1.524 . S
C2093 H2096 0.999 . S
C2094 H2064 0.950 . S
C2094 C2093 1.524 . S
C2094 C2095 1.415 . S
C2095 H2065 0.950 . S
C2095 C2090 1.363 . S
C2095 C2094 1.415 . S
H2096 C2093 0.999 . S
H2097 C2078 0.913 . S
H2098 C2116 0.951 . S
H2099 C2118 0.951 . S
H2100 C2120 0.950 . S
H2101 C2121 0.950 . S
H2102 C2123 0.950 . S
H2103 C2126 0.950 . S
H2104 C2127 0.950 . S
H2105 C2129 0.950 . S
H2106 C2130 0.950 . S
H2107 C2131 0.951 . S
H2108 C2133 0.951 . S
H2109 C2135 0.950 . S
H2110 C2136 0.950 . S
H2111 C2138 0.950 . S
H2112 C2141 0.950 . S
H2113 C2142 0.950 . S
H2114 C2144 0.950 . S
H2115 C2145 0.950 . S
C2116 H2098 0.951 . S
C2116 C2117 1.366 . S
C2116 C2118 1.388 . S
C2117 C2116 1.366 . S
C2117 C2121 1.385 . S
C2118 H2099 0.951 . S
C2118 C2116 1.388 . S
C2118 C2119 1.366 . S
C2119 C2118 1.366 . S
C2119 C2120 1.414 . S
C2119 C2122 1.499 . S
C2120 H2100 0.950 . S
C2120 C2119 1.414 . S
C2120 C2121 1.374 . S
C2121 H2101 0.950 . S
C2121 C2117 1.385 . S
C2121 C2120 1.374 . S
C2122 C2119 1.499 . S
C2122 C2123 1.373 . S
C2122 C2124 1.389 . S
C2123 H2102 0.950 . S
C2123 C2122 1.373 . S
C2123 C2139 1.377 . S
C2124 C2122 1.389 . S
C2124 C2125 1.524 . S
C2124 C2138 1.377 . S
C2125 C2124 1.524 . S
C2125 C2126 1.397 . S
C2125 C2130 1.363 . S
C2126 H2103 0.950 . S
C2126 C2125 1.397 . S
C2126 C2127 1.334 . S
C2127 H2104 0.950 . S
C2127 C2126 1.334 . S
C2127 C2128 1.287 . S
C2128 C2127 1.287 . S
C2128 C2129 1.524 . S
C2128 H2147 0.913 . S
C2129 H2105 0.950 . S
C2129 C2128 1.524 . S
C2129 C2130 1.415 . S
C2130 H2106 0.950 . S
C2130 C2125 1.363 . S
C2130 C2129 1.415 . S
C2131 H2107 0.951 . S
C2131 C2132 1.366 . S
C2131 C2133 1.388 . S
C2132 C2131 1.366 . S
C2132 C2136 1.385 . S
C2133 H2108 0.951 . S
C2133 C2131 1.388 . S
C2133 C2134 1.366 . S
C2134 C2133 1.366 . S
C2134 C2135 1.414 . S
C2134 C2137 1.499 . S
C2135 H2109 0.950 . S
C2135 C2134 1.414 . S
C2135 C2136 1.374 . S
C2136 H2110 0.950 . S
C2136 C2132 1.385 . S
C2136 C2135 1.374 . S
C2137 C2134 1.499 . S
C2137 C2138 1.373 . S
C2137 C2139 1.389 . S
C2138 H2111 0.950 . S
C2138 C2124 1.377 . S
C2138 C2137 1.373 . S
C2139 C2123 1.377 . S
C2139 C2137 1.389 . S
C2139 C2140 1.524 . S
C2140 C2139 1.524 . S
C2140 C2141 1.397 . S
C2140 C2145 1.363 . S
C2141 H2112 0.950 . S
C2141 C2140 1.397 . S
C2141 C2142 1.334 . S
C2142 H2113 0.950 . S
C2142 C2141 1.334 . S
C2142 C2143 1.287 . S
C2143 C2142 1.287 . S
C2143 C2144 1.524 . S
C2143 H2146 0.999 . S
C2144 H2114 0.950 . S
C2144 C2143 1.524 . S
C2144 C2145 1.415 . S
C2145 H2115 0.950 . S
C2145 C2140 1.363 . S
C2145 C2144 1.415 . S
H2146 C2143 0.999 . S
H2147 C2128 0.913 . S
H2148 C2166 0.951 . S
H2149 C2168 0.951 . S
H2150 C2170 0.950 . S
H2151 C2171 0.950 . S
H2152 C2173 0.950 . S
H2153 C2176 0.950 . S
H2154 C2177 0.950 . S
H2155 C2179 0.950 . S
H2156 C2180 0.950 . S
H2157 C2181 0.951 . S
H2158 C2183 0.951 . S
H2159 C2185 0.950 . S
H2160 C2186 0.950 . S
H2161 C2188 0.950 . S
H2162 C2191 0.950 . S
H2163 C2192 0.950 . S
H2164 C2194 0.950 . S
H2165 C2195 0.950 . S
C2166 H2148 0.951 . S
C2166 C2167 1.366 . S
C2166 C2168 1.388 . S
C2167 C2166 1.366 . S
C2167 C2171 1.385 . S
C2168 H2149 0.951 . S
C2168 C2166 1.388 . S
C2168 C2169 1.366 . S
C2169 C2168 1.366 . S
C2169 C2170 1.414 . S
C2169 C2172 1.499 . S
C2170 H2150 0.950 . S
C2170 C2169 1.414 . S
C2170 C2171 1.374 . S
C2171 H2151 0.950 . S
C2171 C2167 1.385 . S
C2171 C2170 1.374 . S
C2172 C2169 1.499 . S
C2172 C2173 1.373 . S
C2172 C2174 1.389 . S
C2173 H2152 0.950 . S
C2173 C2172 1.373 . S
C2173 C2189 1.377 . S
C2174 C2172 1.389 . S
C2174 C2175 1.524 . S
C2174 C2188 1.377 . S
C2175 C2174 1.524 . S
C2175 C2176 1.397 . S
C2175 C2180 1.363 . S
C2176 H2153 0.950 . S
C2176 C2175 1.397 . S
C2176 C2177 1.334 . S
C2177 H2154 0.950 . S
C2177 C2176 1.334 . S
C2177 C2178 1.287 . S
C2178 C2177 1.287 . S
C2178 C2179 1.524 . S
C2178 H2197 0.913 . S
C2179 H2155 0.950 . S
C2179 C2178 1.524 . S
C2179 C2180 1.415 . S
C2180 H2156 0.950 . S
C2180 C2175 1.363 . S
C2180 C2179 1.415 . S
C2181 H2157 0.951 . S
C2181 C2182 1.366 . S
C2181 C2183 1.388 . S
C2182 C2181 1.366 . S
C2182 C2186 1.385 . S
C2183 H2158 0.951 . S
C2183 C2181 1.388 . S
C2183 C2184 1.366 . S
C2184 C2183 1.366 . S
C2184 C2185 1.414 . S
C2184 C2187 1.499 . S
C2185 H2159 0.950 . S
C2185 C2184 1.414 . S
C2185 C2186 1.374 . S
C2186 H2160 0.950 . S
C2186 C2182 1.385 . S
C2186 C2185 1.374 . S
C2187 C2184 1.499 . S
C2187 C2188 1.373 . S
C2187 C2189 1.389 . S
C2188 H2161 0.950 . S
C2188 C2174 1.377 . S
C2188 C2187 1.373 . S
C2189 C2173 1.377 . S
C2189 C2187 1.389 . S
C2189 C2190 1.524 . S
C2190 C2189 1.524 . S
C2190 C2191 1.397 . S
C2190 C2195 1.363 . S
C2191 H2162 0.950 . S
C2191 C2190 1.397 . S
C2191 C2192 1.334 . S
C2192 H2163 0.950 . S
C2192 C2191 1.334 . S
C2192 C2193 1.287 . S
C2193 C2192 1.287 . S
C2193 C2194 1.524 . S
C2193 H2196 0.999 . S
C2194 H2164 0.950 . S
C2194 C2193 1.524 . S
C2194 C2195 1.415 . S
C2195 H2165 0.950 . S
C2195 C2190 1.363 . S
C2195 C2194 1.415 . S
H2196 C2193 0.999 . S
H2197 C2178 0.913 . S
H2198 C2216 0.951 . S
H2199 C2218 0.951 . S
H2200 C2220 0.950 . S
H2201 C2221 0.950 . S
H2202 C2223 0.950 . S
H2203 C2226 0.950 . S
H2204 C2227 0.950 . S
H2205 C2229 0.950 . S
H2206 C2230 0.950 . S
H2207 C2231 0.951 . S
H2208 C2233 0.951 . S
H2209 C2235 0.950 . S
H2210 C2236 0.950 . S
H2211 C2238 0.950 . S
H2212 C2241 0.950 . S
H2213 C2242 0.950 . S
H2214 C2244 0.950 . S
H2215 C2245 0.950 . S
C2216 H2198 0.951 . S
C2216 C2217 1.366 . S
C2216 C2218 1.388 . S
C2217 C2216 1.366 . S
C2217 C2221 1.385 . S
C2218 H2199 0.951 . S
C2218 C2216 1.388 . S
C2218 C2219 1.366 . S
C2219 C2218 1.366 . S
C2219 C2220 1.414 . S
C2219 C2222 1.499 . S
C2220 H2200 0.950 . S
C2220 C2219 1.414 . S
C2220 C2221 1.374 . S
C2221 H2201 0.950 . S
C2221 C2217 1.385 . S
C2221 C2220 1.374 . S
C2222 C2219 1.499 . S
C2222 C2223 1.373 . S
C2222 C2224 1.389 . S
C2223 H2202 0.950 . S
C2223 C2222 1.373 . S
C2223 C2239 1.377 . S
C2224 C2222 1.389 . S
C2224 C2225 1.524 . S
C2224 C2238 1.377 . S
C2225 C2224 1.524 . S
C2225 C2226 1.397 . S
C2225 C2230 1.363 . S
C2226 H2203 0.950 . S
C2226 C2225 1.397 . S
C2226 C2227 1.334 . S
C2227 H2204 0.950 . S
C2227 C2226 1.334 . S
C2227 C2228 1.287 . S
C2228 C2227 1.287 . S
C2228 C2229 1.524 . S
C2228 H2247 0.913 . S
C2229 H2205 0.950 . S
C2229 C2228 1.524 . S
C2229 C2230 1.415 . S
C2230 H2206 0.950 . S
C2230 C2225 1.363 . S
C2230 C2229 1.415 . S
C2231 H2207 0.951 . S
C2231 C2232 1.366 . S
C2231 C2233 1.388 . S
C2232 C2231 1.366 . S
C2232 C2236 1.385 . S
C2233 H2208 0.951 . S
C2233 C2231 1.388 . S
C2233 C2234 1.366 . S
C2234 C2233 1.366 . S
C2234 C2235 1.414 . S
C2234 C2237 1.499 . S
C2235 H2209 0.950 . S
C2235 C2234 1.414 . S
C2235 C2236 1.374 . S
C2236 H2210 0.950 . S
C2236 C2232 1.385 . S
C2236 C2235 1.374 . S
C2237 C2234 1.499 . S
C2237 C2238 1.373 . S
C2237 C2239 1.389 . S
C2238 H2211 0.950 . S
C2238 C2224 1.377 . S
C2238 C2237 1.373 . S
C2239 C2223 1.377 . S
C2239 C2237 1.389 . S
C2239 C2240 1.524 . S
C2240 C2239 1.524 . S
C2240 C2241 1.397 . S
C2240 C2245 1.363 . S
C2241 H2212 0.950 . S
C2241 C2240 1.397 . S
C2241 C2242 1.334 . S
C2242 H2213 0.950 . S
C2242 C2241 1.334 . S
C2242 C2243 1.287 . S
C2243 C2242 1.287 . S
C2243 C2244 1.524 . S
C2243 H2246 0.999 . S
C2244 H2214 0.950 . S
C2244 C2243 1.524 . S
C2244 C2245 1.415 . S
C2245 H2215 0.950 . S
C2245 C2240 1.363 . S
C2245 C2244 1.415 . S
H2246 C2243 0.999 . S
H2247 C2228 0.913 . S
H2248 C2266 0.951 . S
H2249 C2268 0.951 . S
H2250 C2270 0.950 . S
H2251 C2271 0.950 . S
H2252 C2273 0.950 . S
H2253 C2276 0.950 . S
H2254 C2277 0.950 . S
H2255 C2279 0.950 . S
H2256 C2280 0.950 . S
H2257 C2281 0.951 . S
H2258 C2283 0.951 . S
H2259 C2285 0.950 . S
H2260 C2286 0.950 . S
H2261 C2288 0.950 . S
H2262 C2291 0.950 . S
H2263 C2292 0.950 . S
H2264 C2294 0.950 . S
H2265 C2295 0.950 . S
C2266 H2248 0.951 . S
C2266 C2267 1.366 . S
C2266 C2268 1.388 . S
C2267 C2266 1.366 . S
C2267 C2271 1.385 . S
C2268 H2249 0.951 . S
C2268 C2266 1.388 . S
C2268 C2269 1.366 . S
C2269 C2268 1.366 . S
C2269 C2270 1.414 . S
C2269 C2272 1.499 . S
C2270 H2250 0.950 . S
C2270 C2269 1.414 . S
C2270 C2271 1.374 . S
C2271 H2251 0.950 . S
C2271 C2267 1.385 . S
C2271 C2270 1.374 . S
C2272 C2269 1.499 . S
C2272 C2273 1.373 . S
C2272 C2274 1.389 . S
C2273 H2252 0.950 . S
C2273 C2272 1.373 . S
C2273 C2289 1.377 . S
C2274 C2272 1.389 . S
C2274 C2275 1.524 . S
C2274 C2288 1.377 . S
C2275 C2274 1.524 . S
C2275 C2276 1.397 . S
C2275 C2280 1.363 . S
C2276 H2253 0.950 . S
C2276 C2275 1.397 . S
C2276 C2277 1.334 . S
C2277 H2254 0.950 . S
C2277 C2276 1.334 . S
C2277 C2278 1.287 . S
C2278 C2277 1.287 . S
C2278 C2279 1.524 . S
C2278 H2297 0.913 . S
C2279 H2255 0.950 . S
C2279 C2278 1.524 . S
C2279 C2280 1.415 . S
C2280 H2256 0.950 . S
C2280 C2275 1.363 . S
C2280 C2279 1.415 . S
C2281 H2257 0.951 . S
C2281 C2282 1.366 . S
C2281 C2283 1.388 . S
C2282 C2281 1.366 . S
C2282 C2286 1.385 . S
C2283 H2258 0.951 . S
C2283 C2281 1.388 . S
C2283 C2284 1.366 . S
C2284 C2283 1.366 . S
C2284 C2285 1.414 . S
C2284 C2287 1.499 . S
C2285 H2259 0.950 . S
C2285 C2284 1.414 . S
C2285 C2286 1.374 . S
C2286 H2260 0.950 . S
C2286 C2282 1.385 . S
C2286 C2285 1.374 . S
C2287 C2284 1.499 . S
C2287 C2288 1.373 . S
C2287 C2289 1.389 . S
C2288 H2261 0.950 . S
C2288 C2274 1.377 . S
C2288 C2287 1.373 . S
C2289 C2273 1.377 . S
C2289 C2287 1.389 . S
C2289 C2290 1.524 . S
C2290 C2289 1.524 . S
C2290 C2291 1.397 . S
C2290 C2295 1.363 . S
C2291 H2262 0.950 . S
C2291 C2290 1.397 . S
C2291 C2292 1.334 . S
C2292 H2263 0.950 . S
C2292 C2291 1.334 . S
C2292 C2293 1.287 . S
C2293 C2292 1.287 . S
C2293 C2294 1.524 . S
C2293 H2296 0.999 . S
C2294 H2264 0.950 . S
C2294 C2293 1.524 . S
C2294 C2295 1.415 . S
C2295 H2265 0.950 . S
C2295 C2290 1.363 . S
C2295 C2294 1.415 . S
H2296 C2293 0.999 . S
H2297 C2278 0.913 . S
H2298 C2316 0.951 . S
H2299 C2318 0.951 . S
H2300 C2320 0.950 . S
H2301 C2321 0.950 . S
H2302 C2323 0.950 . S
H2303 C2326 0.950 . S
H2304 C2327 0.950 . S
H2305 C2329 0.950 . S
H2306 C2330 0.950 . S
H2307 C2331 0.951 . S
H2308 C2333 0.951 . S
H2309 C2335 0.950 . S
H2310 C2336 0.950 . S
H2311 C2338 0.950 . S
H2312 C2341 0.950 . S
H2313 C2342 0.950 . S
H2314 C2344 0.950 . S
H2315 C2345 0.950 . S
C2316 H2298 0.951 . S
C2316 C2317 1.366 . S
C2316 C2318 1.388 . S
C2317 C2316 1.366 . S
C2317 C2321 1.385 . S
C2318 H2299 0.951 . S
C2318 C2316 1.388 . S
C2318 C2319 1.366 . S
C2319 C2318 1.366 . S
C2319 C2320 1.414 . S
C2319 C2322 1.499 . S
C2320 H2300 0.950 . S
C2320 C2319 1.414 . S
C2320 C2321 1.374 . S
C2321 H2301 0.950 . S
C2321 C2317 1.385 . S
C2321 C2320 1.374 . S
C2322 C2319 1.499 . S
C2322 C2323 1.373 . S
C2322 C2324 1.389 . S
C2323 H2302 0.950 . S
C2323 C2322 1.373 . S
C2323 C2339 1.377 . S
C2324 C2322 1.389 . S
C2324 C2325 1.524 . S
C2324 C2338 1.377 . S
C2325 C2324 1.524 . S
C2325 C2326 1.397 . S
C2325 C2330 1.363 . S
C2326 H2303 0.950 . S
C2326 C2325 1.397 . S
C2326 C2327 1.334 . S
C2327 H2304 0.950 . S
C2327 C2326 1.334 . S
C2327 C2328 1.287 . S
C2328 C2327 1.287 . S
C2328 C2329 1.524 . S
C2328 H2347 0.913 . S
C2329 H2305 0.950 . S
C2329 C2328 1.524 . S
C2329 C2330 1.415 . S
C2330 H2306 0.950 . S
C2330 C2325 1.363 . S
C2330 C2329 1.415 . S
C2331 H2307 0.951 . S
C2331 C2332 1.366 . S
C2331 C2333 1.388 . S
C2332 C2331 1.366 . S
C2332 C2336 1.385 . S
C2333 H2308 0.951 . S
C2333 C2331 1.388 . S
C2333 C2334 1.366 . S
C2334 C2333 1.366 . S
C2334 C2335 1.414 . S
C2334 C2337 1.499 . S
C2335 H2309 0.950 . S
C2335 C2334 1.414 . S
C2335 C2336 1.374 . S
C2336 H2310 0.950 . S
C2336 C2332 1.385 . S
C2336 C2335 1.374 . S
C2337 C2334 1.499 . S
C2337 C2338 1.373 . S
C2337 C2339 1.389 . S
C2338 H2311 0.950 . S
C2338 C2324 1.377 . S
C2338 C2337 1.373 . S
C2339 C2323 1.377 . S
C2339 C2337 1.389 . S
C2339 C2340 1.524 . S
C2340 C2339 1.524 . S
C2340 C2341 1.397 . S
C2340 C2345 1.363 . S
C2341 H2312 0.950 . S
C2341 C2340 1.397 . S
C2341 C2342 1.334 . S
C2342 H2313 0.950 . S
C2342 C2341 1.334 . S
C2342 C2343 1.287 . S
C2343 C2342 1.287 . S
C2343 C2344 1.524 . S
C2343 H2346 0.999 . S
C2344 H2314 0.950 . S
C2344 C2343 1.524 . S
C2344 C2345 1.415 . S
C2345 H2315 0.950 . S
C2345 C2340 1.363 . S
C2345 C2344 1.415 . S
H2346 C2343 0.999 . S
H2347 C2328 0.913 . S
H2348 C2366 0.951 . S
H2349 C2368 0.951 . S
H2350 C2370 0.950 . S
H2351 C2371 0.950 . S
H2352 C2373 0.950 . S
H2353 C2376 0.950 . S
H2354 C2377 0.950 . S
H2355 C2379 0.950 . S
H2356 C2380 0.950 . S
H2357 C2381 0.951 . S
H2358 C2383 0.951 . S
H2359 C2385 0.950 . S
H2360 C2386 0.950 . S
H2361 C2388 0.950 . S
H2362 C2391 0.950 . S
H2363 C2392 0.950 . S
H2364 C2394 0.950 . S
H2365 C2395 0.950 . S
C2366 H2348 0.951 . S
C2366 C2367 1.366 . S
C2366 C2368 1.388 . S
C2367 C2366 1.366 . S
C2367 C2371 1.385 . S
C2368 H2349 0.951 . S
C2368 C2366 1.388 . S
C2368 C2369 1.366 . S
C2369 C2368 1.366 . S
C2369 C2370 1.414 . S
C2369 C2372 1.499 . S
C2370 H2350 0.950 . S
C2370 C2369 1.414 . S
C2370 C2371 1.374 . S
C2371 H2351 0.950 . S
C2371 C2367 1.385 . S
C2371 C2370 1.374 . S
C2372 C2369 1.499 . S
C2372 C2373 1.373 . S
C2372 C2374 1.389 . S
C2373 H2352 0.950 . S
C2373 C2372 1.373 . S
C2373 C2389 1.377 . S
C2374 C2372 1.389 . S
C2374 C2375 1.524 . S
C2374 C2388 1.377 . S
C2375 C2374 1.524 . S
C2375 C2376 1.397 . S
C2375 C2380 1.363 . S
C2376 H2353 0.950 . S
C2376 C2375 1.397 . S
C2376 C2377 1.334 . S
C2377 H2354 0.950 . S
C2377 C2376 1.334 . S
C2377 C2378 1.287 . S
C2378 C2377 1.287 . S
C2378 C2379 1.524 . S
C2378 H2397 0.913 . S
C2379 H2355 0.950 . S
C2379 C2378 1.524 . S
C2379 C2380 1.415 . S
C2380 H2356 0.950 . S
C2380 C2375 1.363 . S
C2380 C2379 1.415 . S
C2381 H2357 0.951 . S
C2381 C2382 1.366 . S
C2381 C2383 1.388 . S
C2382 C2381 1.366 . S
C2382 C2386 1.385 . S
C2383 H2358 0.951 . S
C2383 C2381 1.388 . S
C2383 C2384 1.366 . S
C2384 C2383 1.366 . S
C2384 C2385 1.414 . S
C2384 C2387 1.499 . S
C2385 H2359 0.950 . S
C2385 C2384 1.414 . S
C2385 C2386 1.374 . S
C2386 H2360 0.950 . S
C2386 C2382 1.385 . S
C2386 C2385 1.374 . S
C2387 C2384 1.499 . S
C2387 C2388 1.373 . S
C2387 C2389 1.389 . S
C2388 H2361 0.950 . S
C2388 C2374 1.377 . S
C2388 C2387 1.373 . S
C2389 C2373 1.377 . S
C2389 C2387 1.389 . S
C2389 C2390 1.524 . S
C2390 C2389 1.524 . S
C2390 C2391 1.397 . S
C2390 C2395 1.363 . S
C2391 H2362 0.950 . S
C2391 C2390 1.397 . S
C2391 C2392 1.334 . S
C2392 H2363 0.950 . S
C2392 C2391 1.334 . S
C2392 C2393 1.287 . S
C2393 C2392 1.287 . S
C2393 C2394 1.524 . S
C2393 H2396 0.999 . S
C2394 H2364 0.950 . S
C2394 C2393 1.524 . S
C2394 C2395 1.415 . S
C2395 H2365 0.950 . S
C2395 C2390 1.363 . S
C2395 C2394 1.415 . S
H2396 C2393 0.999 . S
H2397 C2378 0.913 . S
H2398 C2416 0.951 . S
H2399 C2418 0.951 . S
H2400 C2420 0.950 . S
H2401 C2421 0.950 . S
H2402 C2423 0.950 . S
H2403 C2426 0.950 . S
H2404 C2427 0.950 . S
H2405 C2429 0.950 . S
H2406 C2430 0.950 . S
H2407 C2431 0.951 . S
H2408 C2433 0.951 . S
H2409 C2435 0.950 . S
H2410 C2436 0.950 . S
H2411 C2438 0.950 . S
H2412 C2441 0.950 . S
H2413 C2442 0.950 . S
H2414 C2444 0.950 . S
H2415 C2445 0.950 . S
C2416 H2398 0.951 . S
C2416 C2417 1.366 . S
C2416 C2418 1.388 . S
C2417 C2416 1.366 . S
C2417 C2421 1.385 . S
C2418 H2399 0.951 . S
C2418 C2416 1.388 . S
C2418 C2419 1.366 . S
C2419 C2418 1.366 . S
C2419 C2420 1.414 . S
C2419 C2422 1.499 . S
C2420 H2400 0.950 . S
C2420 C2419 1.414 . S
C2420 C2421 1.374 . S
C2421 H2401 0.950 . S
C2421 C2417 1.385 . S
C2421 C2420 1.374 . S
C2422 C2419 1.499 . S
C2422 C2423 1.373 . S
C2422 C2424 1.389 . S
C2423 H2402 0.950 . S
C2423 C2422 1.373 . S
C2423 C2439 1.377 . S
C2424 C2422 1.389 . S
C2424 C2425 1.524 . S
C2424 C2438 1.377 . S
C2425 C2424 1.524 . S
C2425 C2426 1.397 . S
C2425 C2430 1.363 . S
C2426 H2403 0.950 . S
C2426 C2425 1.397 . S
C2426 C2427 1.334 . S
C2427 H2404 0.950 . S
C2427 C2426 1.334 . S
C2427 C2428 1.287 . S
C2428 C2427 1.287 . S
C2428 C2429 1.524 . S
C2428 H2447 0.913 . S
C2429 H2405 0.950 . S
C2429 C2428 1.524 . S
C2429 C2430 1.415 . S
C2430 H2406 0.950 . S
C2430 C2425 1.363 . S
C2430 C2429 1.415 . S
C2431 H2407 0.951 . S
C2431 C2432 1.366 . S
C2431 C2433 1.388 . S
C2432 C2431 1.366 . S
C2432 C2436 1.385 . S
C2433 H2408 0.951 . S
C2433 C2431 1.388 . S
C2433 C2434 1.366 . S
C2434 C2433 1.366 . S
C2434 C2435 1.414 . S
C2434 C2437 1.499 . S
C2435 H2409 0.950 . S
C2435 C2434 1.414 . S
C2435 C2436 1.374 . S
C2436 H2410 0.950 . S
C2436 C2432 1.385 . S
C2436 C2435 1.374 . S
C2437 C2434 1.499 . S
C2437 C2438 1.373 . S
C2437 C2439 1.389 . S
C2438 H2411 0.950 . S
C2438 C2424 1.377 . S
C2438 C2437 1.373 . S
C2439 C2423 1.377 . S
C2439 C2437 1.389 . S
C2439 C2440 1.524 . S
C2440 C2439 1.524 . S
C2440 C2441 1.397 . S
C2440 C2445 1.363 . S
C2441 H2412 0.950 . S
C2441 C2440 1.397 . S
C2441 C2442 1.334 . S
C2442 H2413 0.950 . S
C2442 C2441 1.334 . S
C2442 C2443 1.287 . S
C2443 C2442 1.287 . S
C2443 C2444 1.524 . S
C2443 H2446 0.999 . S
C2444 H2414 0.950 . S
C2444 C2443 1.524 . S
C2444 C2445 1.415 . S
C2445 H2415 0.950 . S
C2445 C2440 1.363 . S
C2445 C2444 1.415 . S
H2446 C2443 0.999 . S
H2447 C2428 0.913 . S
H2448 C2466 0.951 . S
H2449 C2468 0.951 . S
H2450 C2470 0.950 . S
H2451 C2471 0.950 . S
H2452 C2473 0.950 . S
H2453 C2476 0.950 . S
H2454 C2477 0.950 . S
H2455 C2479 0.950 . S
H2456 C2480 0.950 . S
H2457 C2481 0.951 . S
H2458 C2483 0.951 . S
H2459 C2485 0.950 . S
H2460 C2486 0.950 . S
H2461 C2488 0.950 . S
H2462 C2491 0.950 . S
H2463 C2492 0.950 . S
H2464 C2494 0.950 . S
H2465 C2495 0.950 . S
C2466 H2448 0.951 . S
C2466 C2467 1.366 . S
C2466 C2468 1.388 . S
C2467 C2466 1.366 . S
C2467 C2471 1.385 . S
C2468 H2449 0.951 . S
C2468 C2466 1.388 . S
C2468 C2469 1.366 . S
C2469 C2468 1.366 . S
C2469 C2470 1.414 . S
C2469 C2472 1.499 . S
C2470 H2450 0.950 . S
C2470 C2469 1.414 . S
C2470 C2471 1.374 . S
C2471 H2451 0.950 . S
C2471 C2467 1.385 . S
C2471 C2470 1.374 . S
C2472 C2469 1.499 . S
C2472 C2473 1.373 . S
C2472 C2474 1.389 . S
C2473 H2452 0.950 . S
C2473 C2472 1.373 . S
C2473 C2489 1.377 . S
C2474 C2472 1.389 . S
C2474 C2475 1.524 . S
C2474 C2488 1.377 . S
C2475 C2474 1.524 . S
C2475 C2476 1.397 . S
C2475 C2480 1.363 . S
C2476 H2453 0.950 . S
C2476 C2475 1.397 . S
C2476 C2477 1.334 . S
C2477 H2454 0.950 . S
C2477 C2476 1.334 . S
C2477 C2478 1.287 . S
C2478 C2477 1.287 . S
C2478 C2479 1.524 . S
C2478 H2497 0.913 . S
C2479 H2455 0.950 . S
C2479 C2478 1.524 . S
C2479 C2480 1.415 . S
C2480 H2456 0.950 . S
C2480 C2475 1.363 . S
C2480 C2479 1.415 . S
C2481 H2457 0.951 . S
C2481 C2482 1.366 . S
C2481 C2483 1.388 . S
C2482 C2481 1.366 . S
C2482 C2486 1.385 . S
C2483 H2458 0.951 . S
C2483 C2481 1.388 . S
C2483 C2484 1.366 . S
C2484 C2483 1.366 . S
C2484 C2485 1.414 . S
C2484 C2487 1.499 . S
C2485 H2459 0.950 . S
C2485 C2484 1.414 . S
C2485 C2486 1.374 . S
C2486 H2460 0.950 . S
C2486 C2482 1.385 . S
C2486 C2485 1.374 . S
C2487 C2484 1.499 . S
C2487 C2488 1.373 . S
C2487 C2489 1.389 . S
C2488 H2461 0.950 . S
C2488 C2474 1.377 . S
C2488 C2487 1.373 . S
C2489 C2473 1.377 . S
C2489 C2487 1.389 . S
C2489 C2490 1.524 . S
C2490 C2489 1.524 . S
C2490 C2491 1.397 . S
C2490 C2495 1.363 . S
C2491 H2462 0.950 . S
C2491 C2490 1.397 . S
C2491 C2492 1.334 . S
C2492 H2463 0.950 . S
C2492 C2491 1.334 . S
C2492 C2493 1.287 . S
C2493 C2492 1.287 . S
C2493 C2494 1.524 . S
C2493 H2496 0.999 . S
C2494 H2464 0.950 . S
C2494 C2493 1.524 . S
C2494 C2495 1.415 . S
C2495 H2465 0.950 . S
C2495 C2490 1.363 . S
C2495 C2494 1.415 . S
H2496 C2493 0.999 . S
H2497 C2478 0.913 . S
H2498 C2516 0.951 . S
H2499 C2518 0.951 . S
H2500 C2520 0.950 . S
H2501 C2521 0.950 . S
H2502 C2523 0.950 . S
H2503 C2526 0.950 . S
H2504 C2527 0.950 . S
H2505 C2529 0.950 . S
H2506 C2530 0.950 . S
H2507 C2531 0.951 . S
H2508 C2533 0.951 . S
H2509 C2535 0.950 . S
H2510 C2536 0.950 . S
H2511 C2538 0.950 . S
H2512 C2541 0.950 . S
H2513 C2542 0.950 . S
H2514 C2544 0.950 . S
H2515 C2545 0.950 . S
C2516 H2498 0.951 . S
C2516 C2517 1.366 . S
C2516 C2518 1.388 . S
C2517 C2516 1.366 . S
C2517 C2521 1.385 . S
C2518 H2499 0.951 . S
C2518 C2516 1.388 . S
C2518 C2519 1.366 . S
C2519 C2518 1.366 . S
C2519 C2520 1.414 . S
C2519 C2522 1.499 . S
C2520 H2500 0.950 . S
C2520 C2519 1.414 . S
C2520 C2521 1.374 . S
C2521 H2501 0.950 . S
C2521 C2517 1.385 . S
C2521 C2520 1.374 . S
C2522 C2519 1.499 . S
C2522 C2523 1.373 . S
C2522 C2524 1.389 . S
C2523 H2502 0.950 . S
C2523 C2522 1.373 . S
C2523 C2539 1.377 . S
C2524 C2522 1.389 . S
C2524 C2525 1.524 . S
C2524 C2538 1.377 . S
C2525 C2524 1.524 . S
C2525 C2526 1.397 . S
C2525 C2530 1.363 . S
C2526 H2503 0.950 . S
C2526 C2525 1.397 . S
C2526 C2527 1.334 . S
C2527 H2504 0.950 . S
C2527 C2526 1.334 . S
C2527 C2528 1.287 . S
C2528 C2527 1.287 . S
C2528 C2529 1.524 . S
C2528 H2547 0.913 . S
C2529 H2505 0.950 . S
C2529 C2528 1.524 . S
C2529 C2530 1.415 . S
C2530 H2506 0.950 . S
C2530 C2525 1.363 . S
C2530 C2529 1.415 . S
C2531 H2507 0.951 . S
C2531 C2532 1.366 . S
C2531 C2533 1.388 . S
C2532 C2531 1.366 . S
C2532 C2536 1.385 . S
C2533 H2508 0.951 . S
C2533 C2531 1.388 . S
C2533 C2534 1.366 . S
C2534 C2533 1.366 . S
C2534 C2535 1.414 . S
C2534 C2537 1.499 . S
C2535 H2509 0.950 . S
C2535 C2534 1.414 . S
C2535 C2536 1.374 . S
C2536 H2510 0.950 . S
C2536 C2532 1.385 . S
C2536 C2535 1.374 . S
C2537 C2534 1.499 . S
C2537 C2538 1.373 . S
C2537 C2539 1.389 . S
C2538 H2511 0.950 . S
C2538 C2524 1.377 . S
C2538 C2537 1.373 . S
C2539 C2523 1.377 . S
C2539 C2537 1.389 . S
C2539 C2540 1.524 . S
C2540 C2539 1.524 . S
C2540 C2541 1.397 . S
C2540 C2545 1.363 . S
C2541 H2512 0.950 . S
C2541 C2540 1.397 . S
C2541 C2542 1.334 . S
C2542 H2513 0.950 . S
C2542 C2541 1.334 . S
C2542 C2543 1.287 . S
C2543 C2542 1.287 . S
C2543 C2544 1.524 . S
C2543 H2546 0.999 . S
C2544 H2514 0.950 . S
C2544 C2543 1.524 . S
C2544 C2545 1.415 . S
C2545 H2515 0.950 . S
C2545 C2540 1.363 . S
C2545 C2544 1.415 . S
H2546 C2543 0.999 . S
H2547 C2528 0.913 . S
H2548 C2566 0.951 . S
H2549 C2568 0.951 . S
H2550 C2570 0.950 . S
H2551 C2571 0.950 . S
H2552 C2573 0.950 . S
H2553 C2576 0.950 . S
H2554 C2577 0.950 . S
H2555 C2579 0.950 . S
H2556 C2580 0.950 . S
H2557 C2581 0.951 . S
H2558 C2583 0.951 . S
H2559 C2585 0.950 . S
H2560 C2586 0.950 . S
H2561 C2588 0.950 . S
H2562 C2591 0.950 . S
H2563 C2592 0.950 . S
H2564 C2594 0.950 . S
H2565 C2595 0.950 . S
C2566 H2548 0.951 . S
C2566 C2567 1.366 . S
C2566 C2568 1.388 . S
C2567 C2566 1.366 . S
C2567 C2571 1.385 . S
C2568 H2549 0.951 . S
C2568 C2566 1.388 . S
C2568 C2569 1.366 . S
C2569 C2568 1.366 . S
C2569 C2570 1.414 . S
C2569 C2572 1.499 . S
C2570 H2550 0.950 . S
C2570 C2569 1.414 . S
C2570 C2571 1.374 . S
C2571 H2551 0.950 . S
C2571 C2567 1.385 . S
C2571 C2570 1.374 . S
C2572 C2569 1.499 . S
C2572 C2573 1.373 . S
C2572 C2574 1.389 . S
C2573 H2552 0.950 . S
C2573 C2572 1.373 . S
C2573 C2589 1.377 . S
C2574 C2572 1.389 . S
C2574 C2575 1.524 . S
C2574 C2588 1.377 . S
C2575 C2574 1.524 . S
C2575 C2576 1.397 . S
C2575 C2580 1.363 . S
C2576 H2553 0.950 . S
C2576 C2575 1.397 . S
C2576 C2577 1.334 . S
C2577 H2554 0.950 . S
C2577 C2576 1.334 . S
C2577 C2578 1.287 . S
C2578 C2577 1.287 . S
C2578 C2579 1.524 . S
C2578 H2597 0.913 . S
C2579 H2555 0.950 . S
C2579 C2578 1.524 . S
C2579 C2580 1.415 . S
C2580 H2556 0.950 . S
C2580 C2575 1.363 . S
C2580 C2579 1.415 . S
C2581 H2557 0.951 . S
C2581 C2582 1.366 . S
C2581 C2583 1.388 . S
C2582 C2581 1.366 . S
C2582 C2586 1.385 . S
C2583 H2558 0.951 . S
C2583 C2581 1.388 . S
C2583 C2584 1.366 . S
C2584 C2583 1.366 . S
C2584 C2585 1.414 . S
C2584 C2587 1.499 . S
C2585 H2559 0.950 . S
C2585 C2584 1.414 . S
C2585 C2586 1.374 . S
C2586 H2560 0.950 . S
C2586 C2582 1.385 . S
C2586 C2585 1.374 . S
C2587 C2584 1.499 . S
C2587 C2588 1.373 . S
C2587 C2589 1.389 . S
C2588 H2561 0.950 . S
C2588 C2574 1.377 . S
C2588 C2587 1.373 . S
C2589 C2573 1.377 . S
C2589 C2587 1.389 . S
C2589 C2590 1.524 . S
C2590 C2589 1.524 . S
C2590 C2591 1.397 . S
C2590 C2595 1.363 . S
C2591 H2562 0.950 . S
C2591 C2590 1.397 . S
C2591 C2592 1.334 . S
C2592 H2563 0.950 . S
C2592 C2591 1.334 . S
C2592 C2593 1.287 . S
C2593 C2592 1.287 . S
C2593 C2594 1.524 . S
C2593 H2596 0.999 . S
C2594 H2564 0.950 . S
C2594 C2593 1.524 . S
C2594 C2595 1.415 . S
C2595 H2565 0.950 . S
C2595 C2590 1.363 . S
C2595 C2594 1.415 . S
H2596 C2593 0.999 . S
H2597 C2578 0.913 . S
H2598 C2616 0.951 . S
H2599 C2618 0.951 . S
H2600 C2620 0.950 . S
H2601 C2621 0.950 . S
H2602 C2623 0.950 . S
H2603 C2626 0.950 . S
H2604 C2627 0.950 . S
H2605 C2629 0.950 . S
H2606 C2630 0.950 . S
H2607 C2631 0.951 . S
H2608 C2633 0.951 . S
H2609 C2635 0.950 . S
H2610 C2636 0.950 . S
H2611 C2638 0.950 . S
H2612 C2641 0.950 . S
H2613 C2642 0.950 . S
H2614 C2644 0.950 . S
H2615 C2645 0.950 . S
C2616 H2598 0.951 . S
C2616 C2617 1.366 . S
C2616 C2618 1.388 . S
C2617 C2616 1.366 . S
C2617 C2621 1.385 . S
C2618 H2599 0.951 . S
C2618 C2616 1.388 . S
C2618 C2619 1.366 . S
C2619 C2618 1.366 . S
C2619 C2620 1.414 . S
C2619 C2622 1.499 . S
C2620 H2600 0.950 . S
C2620 C2619 1.414 . S
C2620 C2621 1.374 . S
C2621 H2601 0.950 . S
C2621 C2617 1.385 . S
C2621 C2620 1.374 . S
C2622 C2619 1.499 . S
C2622 C2623 1.373 . S
C2622 C2624 1.389 . S
C2623 H2602 0.950 . S
C2623 C2622 1.373 . S
C2623 C2639 1.377 . S
C2624 C2622 1.389 . S
C2624 C2625 1.524 . S
C2624 C2638 1.377 . S
C2625 C2624 1.524 . S
C2625 C2626 1.397 . S
C2625 C2630 1.363 . S
C2626 H2603 0.950 . S
C2626 C2625 1.397 . S
C2626 C2627 1.334 . S
C2627 H2604 0.950 . S
C2627 C2626 1.334 . S
C2627 C2628 1.287 . S
C2628 C2627 1.287 . S
C2628 C2629 1.524 . S
C2628 H2647 0.913 . S
C2629 H2605 0.950 . S
C2629 C2628 1.524 . S
C2629 C2630 1.415 . S
C2630 H2606 0.950 . S
C2630 C2625 1.363 . S
C2630 C2629 1.415 . S
C2631 H2607 0.951 . S
C2631 C2632 1.366 . S
C2631 C2633 1.388 . S
C2632 C2631 1.366 . S
C2632 C2636 1.385 . S
C2633 H2608 0.951 . S
C2633 C2631 1.388 . S
C2633 C2634 1.366 . S
C2634 C2633 1.366 . S
C2634 C2635 1.414 . S
C2634 C2637 1.499 . S
C2635 H2609 0.950 . S
C2635 C2634 1.414 . S
C2635 C2636 1.374 . S
C2636 H2610 0.950 . S
C2636 C2632 1.385 . S
C2636 C2635 1.374 . S
C2637 C2634 1.499 . S
C2637 C2638 1.373 . S
C2637 C2639 1.389 . S
C2638 H2611 0.950 . S
C2638 C2624 1.377 . S
C2638 C2637 1.373 . S
C2639 C2623 1.377 . S
C2639 C2637 1.389 . S
C2639 C2640 1.524 . S
C2640 C2639 1.524 . S
C2640 C2641 1.397 . S
C2640 C2645 1.363 . S
C2641 H2612 0.950 . S
C2641 C2640 1.397 . S
C2641 C2642 1.334 . S
C2642 H2613 0.950 . S
C2642 C2641 1.334 . S
C2642 C2643 1.287 . S
C2643 C2642 1.287 . S
C2643 C2644 1.524 . S
C2643 H2646 0.999 . S
C2644 H2614 0.950 . S
C2644 C2643 1.524 . S
C2644 C2645 1.415 . S
C2645 H2615 0.950 . S
C2645 C2640 1.363 . S
C2645 C2644 1.415 . S
H2646 C2643 0.999 . S
H2647 C2628 0.913 . S
H2648 C2666 0.951 . S
H2649 C2668 0.951 . S
H2650 C2670 0.950 . S
H2651 C2671 0.950 . S
H2652 C2673 0.950 . S
H2653 C2676 0.950 . S
H2654 C2677 0.950 . S
H2655 C2679 0.950 . S
H2656 C2680 0.950 . S
H2657 C2681 0.951 . S
H2658 C2683 0.951 . S
H2659 C2685 0.950 . S
H2660 C2686 0.950 . S
H2661 C2688 0.950 . S
H2662 C2691 0.950 . S
H2663 C2692 0.950 . S
H2664 C2694 0.950 . S
H2665 C2695 0.950 . S
C2666 H2648 0.951 . S
C2666 C2667 1.366 . S
C2666 C2668 1.388 . S
C2667 C2666 1.366 . S
C2667 C2671 1.385 . S
C2668 H2649 0.951 . S
C2668 C2666 1.388 . S
C2668 C2669 1.366 . S
C2669 C2668 1.366 . S
C2669 C2670 1.414 . S
C2669 C2672 1.499 . S
C2670 H2650 0.950 . S
C2670 C2669 1.414 . S
C2670 C2671 1.374 . S
C2671 H2651 0.950 . S
C2671 C2667 1.385 . S
C2671 C2670 1.374 . S
C2672 C2669 1.499 . S
C2672 C2673 1.373 . S
C2672 C2674 1.389 . S
C2673 H2652 0.950 . S
C2673 C2672 1.373 . S
C2673 C2689 1.377 . S
C2674 C2672 1.389 . S
C2674 C2675 1.524 . S
C2674 C2688 1.377 . S
C2675 C2674 1.524 . S
C2675 C2676 1.397 . S
C2675 C2680 1.363 . S
C2676 H2653 0.950 . S
C2676 C2675 1.397 . S
C2676 C2677 1.334 . S
C2677 H2654 0.950 . S
C2677 C2676 1.334 . S
C2677 C2678 1.287 . S
C2678 C2677 1.287 . S
C2678 C2679 1.524 . S
C2678 H2697 0.913 . S
C2679 H2655 0.950 . S
C2679 C2678 1.524 . S
C2679 C2680 1.415 . S
C2680 H2656 0.950 . S
C2680 C2675 1.363 . S
C2680 C2679 1.415 . S
C2681 H2657 0.951 . S
C2681 C2682 1.366 . S
C2681 C2683 1.388 . S
C2682 C2681 1.366 . S
C2682 C2686 1.385 . S
C2683 H2658 0.951 . S
C2683 C2681 1.388 . S
C2683 C2684 1.366 . S
C2684 C2683 1.366 . S
C2684 C2685 1.414 . S
C2684 C2687 1.499 . S
C2685 H2659 0.950 . S
C2685 C2684 1.414 . S
C2685 C2686 1.374 . S
C2686 H2660 0.950 . S
C2686 C2682 1.385 . S
C2686 C2685 1.374 . S
C2687 C2684 1.499 . S
C2687 C2688 1.373 . S
C2687 C2689 1.389 . S
C2688 H2661 0.950 . S
C2688 C2674 1.377 . S
C2688 C2687 1.373 . S
C2689 C2673 1.377 . S
C2689 C2687 1.389 . S
C2689 C2690 1.524 . S
C2690 C2689 1.524 . S
C2690 C2691 1.397 . S
C2690 C2695 1.363 . S
C2691 H2662 0.950 . S
C2691 C2690 1.397 . S
C2691 C2692 1.334 . S
C2692 H2663 0.950 . S
C2692 C2691 1.334 . S
C2692 C2693 1.287 . S
C2693 C2692 1.287 . S
C2693 C2694 1.524 . S
C2693 H2696 0.999 . S
C2694 H2664 0.950 . S
C2694 C2693 1.524 . S
C2694 C2695 1.415 . S
C2695 H2665 0.950 . S
C2695 C2690 1.363 . S
C2695 C2694 1.415 . S
H2696 C2693 0.999 . S
H2697 C2678 0.913 . S
H2698 C2716 0.951 . S
H2699 C2718 0.951 . S
H2700 C2720 0.950 . S
H2701 C2721 0.950 . S
H2702 C2723 0.950 . S
H2703 C2726 0.950 . S
H2704 C2727 0.950 . S
H2705 C2729 0.950 . S
H2706 C2730 0.950 . S
H2707 C2731 0.951 . S
H2708 C2733 0.951 . S
H2709 C2735 0.950 . S
H2710 C2736 0.950 . S
H2711 C2738 0.950 . S
H2712 C2741 0.950 . S
H2713 C2742 0.950 . S
H2714 C2744 0.950 . S
H2715 C2745 0.950 . S
C2716 H2698 0.951 . S
C2716 C2717 1.366 . S
C2716 C2718 1.388 . S
C2717 C2716 1.366 . S
C2717 C2721 1.385 . S
C2718 H2699 0.951 . S
C2718 C2716 1.388 . S
C2718 C2719 1.366 . S
C2719 C2718 1.366 . S
C2719 C2720 1.414 . S
C2719 C2722 1.499 . S
C2720 H2700 0.950 . S
C2720 C2719 1.414 . S
C2720 C2721 1.374 . S
C2721 H2701 0.950 . S
C2721 C2717 1.385 . S
C2721 C2720 1.374 . S
C2722 C2719 1.499 . S
C2722 C2723 1.373 . S
C2722 C2724 1.389 . S
C2723 H2702 0.950 . S
C2723 C2722 1.373 . S
C2723 C2739 1.377 . S
C2724 C2722 1.389 . S
C2724 C2725 1.524 . S
C2724 C2738 1.377 . S
C2725 C2724 1.524 . S
C2725 C2726 1.397 . S
C2725 C2730 1.363 . S
C2726 H2703 0.950 . S
C2726 C2725 1.397 . S
C2726 C2727 1.334 . S
C2727 H2704 0.950 . S
C2727 C2726 1.334 . S
C2727 C2728 1.287 . S
C2728 C2727 1.287 . S
C2728 C2729 1.524 . S
C2728 H2747 0.913 . S
C2729 H2705 0.950 . S
C2729 C2728 1.524 . S
C2729 C2730 1.415 . S
C2730 H2706 0.950 . S
C2730 C2725 1.363 . S
C2730 C2729 1.415 . S
C2731 H2707 0.951 . S
C2731 C2732 1.366 . S
C2731 C2733 1.388 . S
C2732 C2731 1.366 . S
C2732 C2736 1.385 . S
C2733 H2708 0.951 . S
C2733 C2731 1.388 . S
C2733 C2734 1.366 . S
C2734 C2733 1.366 . S
C2734 C2735 1.414 . S
C2734 C2737 1.499 . S
C2735 H2709 0.950 . S
C2735 C2734 1.414 . S
C2735 C2736 1.374 . S
C2736 H2710 0.950 . S
C2736 C2732 1.385 . S
C2736 C2735 1.374 . S
C2737 C2734 1.499 . S
C2737 C2738 1.373 . S
C2737 C2739 1.389 . S
C2738 H2711 0.950 . S
C2738 C2724 1.377 . S
C2738 C2737 1.373 . S
C2739 C2723 1.377 . S
C2739 C2737 1.389 . S
C2739 C2740 1.524 . S
C2740 C2739 1.524 . S
C2740 C2741 1.397 . S
C2740 C2745 1.363 . S
C2741 H2712 0.950 . S
C2741 C2740 1.397 . S
C2741 C2742 1.334 . S
C2742 H2713 0.950 . S
C2742 C2741 1.334 . S
C2742 C2743 1.287 . S
C2743 C2742 1.287 . S
C2743 C2744 1.524 . S
C2743 H2746 0.999 . S
C2744 H2714 0.950 . S
C2744 C2743 1.524 . S
C2744 C2745 1.415 . S
C2745 H2715 0.950 . S
C2745 C2740 1.363 . S
C2745 C2744 1.415 . S
H2746 C2743 0.999 . S
H2747 C2728 0.913 . S
H2748 C2766 0.951 . S
H2749 C2768 0.951 . S
H2750 C2770 0.950 . S
H2751 C2771 0.950 . S
H2752 C2773 0.950 . S
H2753 C2776 0.950 . S
H2754 C2777 0.950 . S
H2755 C2779 0.950 . S
H2756 C2780 0.950 . S
H2757 C2781 0.951 . S
H2758 C2783 0.951 . S
H2759 C2785 0.950 . S
H2760 C2786 0.950 . S
H2761 C2788 0.950 . S
H2762 C2791 0.950 . S
H2763 C2792 0.950 . S
H2764 C2794 0.950 . S
H2765 C2795 0.950 . S
C2766 H2748 0.951 . S
C2766 C2767 1.366 . S
C2766 C2768 1.388 . S
C2767 C2766 1.366 . S
C2767 C2771 1.385 . S
C2768 H2749 0.951 . S
C2768 C2766 1.388 . S
C2768 C2769 1.366 . S
C2769 C2768 1.366 . S
C2769 C2770 1.414 . S
C2769 C2772 1.499 . S
C2770 H2750 0.950 . S
C2770 C2769 1.414 . S
C2770 C2771 1.374 . S
C2771 H2751 0.950 . S
C2771 C2767 1.385 . S
C2771 C2770 1.374 . S
C2772 C2769 1.499 . S
C2772 C2773 1.373 . S
C2772 C2774 1.389 . S
C2773 H2752 0.950 . S
C2773 C2772 1.373 . S
C2773 C2789 1.377 . S
C2774 C2772 1.389 . S
C2774 C2775 1.524 . S
C2774 C2788 1.377 . S
C2775 C2774 1.524 . S
C2775 C2776 1.397 . S
C2775 C2780 1.363 . S
C2776 H2753 0.950 . S
C2776 C2775 1.397 . S
C2776 C2777 1.334 . S
C2777 H2754 0.950 . S
C2777 C2776 1.334 . S
C2777 C2778 1.287 . S
C2778 C2777 1.287 . S
C2778 C2779 1.524 . S
C2778 H2797 0.913 . S
C2779 H2755 0.950 . S
C2779 C2778 1.524 . S
C2779 C2780 1.415 . S
C2780 H2756 0.950 . S
C2780 C2775 1.363 . S
C2780 C2779 1.415 . S
C2781 H2757 0.951 . S
C2781 C2782 1.366 . S
C2781 C2783 1.388 . S
C2782 C2781 1.366 . S
C2782 C2786 1.385 . S
C2783 H2758 0.951 . S
C2783 C2781 1.388 . S
C2783 C2784 1.366 . S
C2784 C2783 1.366 . S
C2784 C2785 1.414 . S
C2784 C2787 1.499 . S
C2785 H2759 0.950 . S
C2785 C2784 1.414 . S
C2785 C2786 1.374 . S
C2786 H2760 0.950 . S
C2786 C2782 1.385 . S
C2786 C2785 1.374 . S
C2787 C2784 1.499 . S
C2787 C2788 1.373 . S
C2787 C2789 1.389 . S
C2788 H2761 0.950 . S
C2788 C2774 1.377 . S
C2788 C2787 1.373 . S
C2789 C2773 1.377 . S
C2789 C2787 1.389 . S
C2789 C2790 1.524 . S
C2790 C2789 1.524 . S
C2790 C2791 1.397 . S
C2790 C2795 1.363 . S
C2791 H2762 0.950 . S
C2791 C2790 1.397 . S
C2791 C2792 1.334 . S
C2792 H2763 0.950 . S
C2792 C2791 1.334 . S
C2792 C2793 1.287 . S
C2793 C2792 1.287 . S
C2793 C2794 1.524 . S
C2793 H2796 0.999 . S
C2794 H2764 0.950 . S
C2794 C2793 1.524 . S
C2794 C2795 1.415 . S
C2795 H2765 0.950 . S
C2795 C2790 1.363 . S
C2795 C2794 1.415 . S
H2796 C2793 0.999 . S
H2797 C2778 0.913 . S
H2798 C2816 0.951 . S
H2799 C2818 0.951 . S
H2800 C2820 0.950 . S
H2801 C2821 0.950 . S
H2802 C2823 0.950 . S
H2803 C2826 0.950 . S
H2804 C2827 0.950 . S
H2805 C2829 0.950 . S
H2806 C2830 0.950 . S
H2807 C2831 0.951 . S
H2808 C2833 0.951 . S
H2809 C2835 0.950 . S
H2810 C2836 0.950 . S
H2811 C2838 0.950 . S
H2812 C2841 0.950 . S
H2813 C2842 0.950 . S
H2814 C2844 0.950 . S
H2815 C2845 0.950 . S
C2816 H2798 0.951 . S
C2816 C2817 1.366 . S
C2816 C2818 1.388 . S
C2817 C2816 1.366 . S
C2817 C2821 1.385 . S
C2818 H2799 0.951 . S
C2818 C2816 1.388 . S
C2818 C2819 1.366 . S
C2819 C2818 1.366 . S
C2819 C2820 1.414 . S
C2819 C2822 1.499 . S
C2820 H2800 0.950 . S
C2820 C2819 1.414 . S
C2820 C2821 1.374 . S
C2821 H2801 0.950 . S
C2821 C2817 1.385 . S
C2821 C2820 1.374 . S
C2822 C2819 1.499 . S
C2822 C2823 1.373 . S
C2822 C2824 1.389 . S
C2823 H2802 0.950 . S
C2823 C2822 1.373 . S
C2823 C2839 1.377 . S
C2824 C2822 1.389 . S
C2824 C2825 1.524 . S
C2824 C2838 1.377 . S
C2825 C2824 1.524 . S
C2825 C2826 1.397 . S
C2825 C2830 1.363 . S
C2826 H2803 0.950 . S
C2826 C2825 1.397 . S
C2826 C2827 1.334 . S
C2827 H2804 0.950 . S
C2827 C2826 1.334 . S
C2827 C2828 1.287 . S
C2828 C2827 1.287 . S
C2828 C2829 1.524 . S
C2828 H2847 0.913 . S
C2829 H2805 0.950 . S
C2829 C2828 1.524 . S
C2829 C2830 1.415 . S
C2830 H2806 0.950 . S
C2830 C2825 1.363 . S
C2830 C2829 1.415 . S
C2831 H2807 0.951 . S
C2831 C2832 1.366 . S
C2831 C2833 1.388 . S
C2832 C2831 1.366 . S
C2832 C2836 1.385 . S
C2833 H2808 0.951 . S
C2833 C2831 1.388 . S
C2833 C2834 1.366 . S
C2834 C2833 1.366 . S
C2834 C2835 1.414 . S
C2834 C2837 1.499 . S
C2835 H2809 0.950 . S
C2835 C2834 1.414 . S
C2835 C2836 1.374 . S
C2836 H2810 0.950 . S
C2836 C2832 1.385 . S
C2836 C2835 1.374 . S
C2837 C2834 1.499 . S
C2837 C2838 1.373 . S
C2837 C2839 1.389 . S
C2838 H2811 0.950 . S
C2838 C2824 1.377 . S
C2838 C2837 1.373 . S
C2839 C2823 1.377 . S
C2839 C2837 1.389 . S
C2839 C2840 1.524 . S
C2840 C2839 1.524 . S
C2840 C2841 1.397 . S
C2840 C2845 1.363 . S
C2841 H2812 0.950 . S
C2841 C2840 1.397 . S
C2841 C2842 1.334 . S
C2842 H2813 0.950 . S
C2842 C2841 1.334 . S
C2842 C2843 1.287 . S
C2843 C2842 1.287 . S
C2843 C2844 1.524 . S
C2843 H2846 0.999 . S
C2844 H2814 0.950 . S
C2844 C2843 1.524 . S
C2844 C2845 1.415 . S
C2845 H2815 0.950 . S
C2845 C2840 1.363 . S
C2845 C2844 1.415 . S
H2846 C2843 0.999 . S
H2847 C2828 0.913 . S
H2848 C2866 0.951 . S
H2849 C2868 0.951 . S
H2850 C2870 0.950 . S
H2851 C2871 0.950 . S
H2852 C2873 0.950 . S
H2853 C2876 0.950 . S
H2854 C2877 0.950 . S
H2855 C2879 0.950 . S
H2856 C2880 0.950 . S
H2857 C2881 0.951 . S
H2858 C2883 0.951 . S
H2859 C2885 0.950 . S
H2860 C2886 0.950 . S
H2861 C2888 0.950 . S
H2862 C2891 0.950 . S
H2863 C2892 0.950 . S
H2864 C2894 0.950 . S
H2865 C2895 0.950 . S
C2866 H2848 0.951 . S
C2866 C2867 1.366 . S
C2866 C2868 1.388 . S
C2867 C2866 1.366 . S
C2867 C2871 1.385 . S
C2868 H2849 0.951 . S
C2868 C2866 1.388 . S
C2868 C2869 1.366 . S
C2869 C2868 1.366 . S
C2869 C2870 1.414 . S
C2869 C2872 1.499 . S
C2870 H2850 0.950 . S
C2870 C2869 1.414 . S
C2870 C2871 1.374 . S
C2871 H2851 0.950 . S
C2871 C2867 1.385 . S
C2871 C2870 1.374 . S
C2872 C2869 1.499 . S
C2872 C2873 1.373 . S
C2872 C2874 1.389 . S
C2873 H2852 0.950 . S
C2873 C2872 1.373 . S
C2873 C2889 1.377 . S
C2874 C2872 1.389 . S
C2874 C2875 1.524 . S
C2874 C2888 1.377 . S
C2875 C2874 1.524 . S
C2875 C2876 1.397 . S
C2875 C2880 1.363 . S
C2876 H2853 0.950 . S
C2876 C2875 1.397 . S
C2876 C2877 1.334 . S
C2877 H2854 0.950 . S
C2877 C2876 1.334 . S
C2877 C2878 1.287 . S
C2878 C2877 1.287 . S
C2878 C2879 1.524 . S
C2878 H2897 0.913 . S
C2879 H2855 0.950 . S
C2879 C2878 1.524 . S
C2879 C2880 1.415 . S
C2880 H2856 0.950 . S
C2880 C2875 1.363 . S
C2880 C2879 1.415 . S
C2881 H2857 0.951 . S
C2881 C2882 1.366 . S
C2881 C2883 1.388 . S
C2882 C2881 1.366 . S
C2882 C2886 1.385 . S
C2883 H2858 0.951 . S
C2883 C2881 1.388 . S
C2883 C2884 1.366 . S
C2884 C2883 1.366 . S
C2884 C2885 1.414 . S
C2884 C2887 1.499 . S
C2885 H2859 0.950 . S
C2885 C2884 1.414 . S
C2885 C2886 1.374 . S
C2886 H2860 0.950 . S
C2886 C2882 1.385 . S
C2886 C2885 1.374 . S
C2887 C2884 1.499 . S
C2887 C2888 1.373 . S
C2887 C2889 1.389 . S
C2888 H2861 0.950 . S
C2888 C2874 1.377 . S
C2888 C2887 1.373 . S
C2889 C2873 1.377 . S
C2889 C2887 1.389 . S
C2889 C2890 1.524 . S
C2890 C2889 1.524 . S
C2890 C2891 1.397 . S
C2890 C2895 1.363 . S
C2891 H2862 0.950 . S
C2891 C2890 1.397 . S
C2891 C2892 1.334 . S
C2892 H2863 0.950 . S
C2892 C2891 1.334 . S
C2892 C2893 1.287 . S
C2893 C2892 1.287 . S
C2893 C2894 1.524 . S
C2893 H2896 0.999 . S
C2894 H2864 0.950 . S
C2894 C2893 1.524 . S
C2894 C2895 1.415 . S
C2895 H2865 0.950 . S
C2895 C2890 1.363 . S
C2895 C2894 1.415 . S
H2896 C2893 0.999 . S
H2897 C2878 0.913 . S
H2898 C2916 0.951 . S
H2899 C2918 0.951 . S
H2900 C2920 0.950 . S
H2901 C2921 0.950 . S
H2902 C2923 0.950 . S
H2903 C2926 0.950 . S
H2904 C2927 0.950 . S
H2905 C2929 0.950 . S
H2906 C2930 0.950 . S
H2907 C2931 0.951 . S
H2908 C2933 0.951 . S
H2909 C2935 0.950 . S
H2910 C2936 0.950 . S
H2911 C2938 0.950 . S
H2912 C2941 0.950 . S
H2913 C2942 0.950 . S
H2914 C2944 0.950 . S
H2915 C2945 0.950 . S
C2916 H2898 0.951 . S
C2916 C2917 1.366 . S
C2916 C2918 1.388 . S
C2917 C2916 1.366 . S
C2917 C2921 1.385 . S
C2918 H2899 0.951 . S
C2918 C2916 1.388 . S
C2918 C2919 1.366 . S
C2919 C2918 1.366 . S
C2919 C2920 1.414 . S
C2919 C2922 1.499 . S
C2920 H2900 0.950 . S
C2920 C2919 1.414 . S
C2920 C2921 1.374 . S
C2921 H2901 0.950 . S
C2921 C2917 1.385 . S
C2921 C2920 1.374 . S
C2922 C2919 1.499 . S
C2922 C2923 1.373 . S
C2922 C2924 1.389 . S
C2923 H2902 0.950 . S
C2923 C2922 1.373 . S
C2923 C2939 1.377 . S
C2924 C2922 1.389 . S
C2924 C2925 1.524 . S
C2924 C2938 1.377 . S
C2925 C2924 1.524 . S
C2925 C2926 1.397 . S
C2925 C2930 1.363 . S
C2926 H2903 0.950 . S
C2926 C2925 1.397 . S
C2926 C2927 1.334 . S
C2927 H2904 0.950 . S
C2927 C2926 1.334 . S
C2927 C2928 1.287 . S
C2928 C2927 1.287 . S
C2928 C2929 1.524 . S
C2928 H2947 0.913 . S
C2929 H2905 0.950 . S
C2929 C2928 1.524 . S
C2929 C2930 1.415 . S
C2930 H2906 0.950 . S
C2930 C2925 1.363 . S
C2930 C2929 1.415 . S
C2931 H2907 0.951 . S
C2931 C2932 1.366 . S
C2931 C2933 1.388 . S
C2932 C2931 1.366 . S
C2932 C2936 1.385 . S
C2933 H2908 0.951 . S
C2933 C2931 1.388 . S
C2933 C2934 1.366 . S
C2934 C2933 1.366 . S
C2934 C2935 1.414 . S
C2934 C2937 1.499 . S
C2935 H2909 0.950 . S
C2935 C2934 1.414 . S
C2935 C2936 1.374 . S
C2936 H2910 0.950 . S
C2936 C2932 1.385 . S
C2936 C2935 1.374 . S
C2937 C2934 1.499 . S
C2937 C2938 1.373 . S
C2937 C2939 1.389 . S
C2938 H2911 0.950 . S
C2938 C2924 1.377 . S
C2938 C2937 1.373 . S
C2939 C2923 1.377 . S
C2939 C2937 1.389 . S
C2939 C2940 1.524 . S
C2940 C2939 1.524 . S
C2940 C2941 1.397 . S
C2940 C2945 1.363 . S
C2941 H2912 0.950 . S
C2941 C2940 1.397 . S
C2941 C2942 1.334 . S
C2942 H2913 0.950 . S
C2942 C2941 1.334 . S
C2942 C2943 1.287 . S
C2943 C2942 1.287 . S
C2943 C2944 1.524 . S
C2943 H2946 0.999 . S
C2944 H2914 0.950 . S
C2944 C2943 1.524 . S
C2944 C2945 1.415 . S
C2945 H2915 0.950 . S
C2945 C2940 1.363 . S
C2945 C2944 1.415 . S
H2946 C2943 0.999 . S
H2947 C2928 0.913 . S
H2948 C2966 0.951 . S
H2949 C2968 0.951 . S
H2950 C2970 0.950 . S
H2951 C2971 0.950 . S
H2952 C2973 0.950 . S
H2953 C2976 0.950 . S
H2954 C2977 0.950 . S
H2955 C2979 0.950 . S
H2956 C2980 0.950 . S
H2957 C2981 0.951 . S
H2958 C2983 0.951 . S
H2959 C2985 0.950 . S
H2960 C2986 0.950 . S
H2961 C2988 0.950 . S
H2962 C2991 0.950 . S
H2963 C2992 0.950 . S
H2964 C2994 0.950 . S
H2965 C2995 0.950 . S
C2966 H2948 0.951 . S
C2966 C2967 1.366 . S
C2966 C2968 1.388 . S
C2967 C2966 1.366 . S
C2967 C2971 1.385 . S
C2968 H2949 0.951 . S
C2968 C2966 1.388 . S
C2968 C2969 1.366 . S
C2969 C2968 1.366 . S
C2969 C2970 1.414 . S
C2969 C2972 1.499 . S
C2970 H2950 0.950 . S
C2970 C2969 1.414 . S
C2970 C2971 1.374 . S
C2971 H2951 0.950 . S
C2971 C2967 1.385 . S
C2971 C2970 1.374 . S
C2972 C2969 1.499 . S
C2972 C2973 1.373 . S
C2972 C2974 1.389 . S
C2973 H2952 0.950 . S
C2973 C2972 1.373 . S
C2973 C2989 1.377 . S
C2974 C2972 1.389 . S
C2974 C2975 1.524 . S
C2974 C2988 1.377 . S
C2975 C2974 1.524 . S
C2975 C2976 1.397 . S
C2975 C2980 1.363 . S
C2976 H2953 0.950 . S
C2976 C2975 1.397 . S
C2976 C2977 1.334 . S
C2977 H2954 0.950 . S
C2977 C2976 1.334 . S
C2977 C2978 1.287 . S
C2978 C2977 1.287 . S
C2978 C2979 1.524 . S
C2978 H2997 0.913 . S
C2979 H2955 0.950 . S
C2979 C2978 1.524 . S
C2979 C2980 1.415 . S
C2980 H2956 0.950 . S
C2980 C2975 1.363 . S
C2980 C2979 1.415 . S
C2981 H2957 0.951 . S
C2981 C2982 1.366 . S
C2981 C2983 1.388 . S
C2982 C2981 1.366 . S
C2982 C2986 1.385 . S
C2983 H2958 0.951 . S
C2983 C2981 1.388 . S
C2983 C2984 1.366 . S
C2984 C2983 1.366 . S
C2984 C2985 1.414 . S
C2984 C2987 1.499 . S
C2985 H2959 0.950 . S
C2985 C2984 1.414 . S
C2985 C2986 1.374 . S
C2986 H2960 0.950 . S
C2986 C2982 1.385 . S
C2986 C2985 1.374 . S
C2987 C2984 1.499 . S
C2987 C2988 1.373 . S
C2987 C2989 1.389 . S
C2988 H2961 0.950 . S
C2988 C2974 1.377 . S
C2988 C2987 1.373 . S
C2989 C2973 1.377 . S
C2989 C2987 1.389 . S
C2989 C2990 1.524 . S
C2990 C2989 1.524 . S
C2990 C2991 1.397 . S
C2990 C2995 1.363 . S
C2991 H2962 0.950 . S
C2991 C2990 1.397 . S
C2991 C2992 1.334 . S
C2992 H2963 0.950 . S
C2992 C2991 1.334 . S
C2992 C2993 1.287 . S
C2993 C2992 1.287 . S
C2993 C2994 1.524 . S
C2993 H2996 0.999 . S
C2994 H2964 0.950 . S
C2994 C2993 1.524 . S
C2994 C2995 1.415 . S
C2995 H2965 0.950 . S
C2995 C2990 1.363 . S
C2995 C2994 1.415 . S
H2996 C2993 0.999 . S
H2997 C2978 0.913 . S
H2998 C3016 0.951 . S
H2999 C3018 0.951 . S
H3000 C3020 0.950 . S
H3001 C3021 0.950 . S
H3002 C3023 0.950 . S
H3003 C3026 0.950 . S
H3004 C3027 0.950 . S
H3005 C3029 0.950 . S
H3006 C3030 0.950 . S
H3007 C3031 0.951 . S
H3008 C3033 0.951 . S
H3009 C3035 0.950 . S
H3010 C3036 0.950 . S
H3011 C3038 0.950 . S
H3012 C3041 0.950 . S
H3013 C3042 0.950 . S
H3014 C3044 0.950 . S
H3015 C3045 0.950 . S
C3016 H2998 0.951 . S
C3016 C3017 1.366 . S
C3016 C3018 1.388 . S
C3017 C3016 1.366 . S
C3017 C3021 1.385 . S
C3018 H2999 0.951 . S
C3018 C3016 1.388 . S
C3018 C3019 1.366 . S
C3019 C3018 1.366 . S
C3019 C3020 1.414 . S
C3019 C3022 1.499 . S
C3020 H3000 0.950 . S
C3020 C3019 1.414 . S
C3020 C3021 1.374 . S
C3021 H3001 0.950 . S
C3021 C3017 1.385 . S
C3021 C3020 1.374 . S
C3022 C3019 1.499 . S
C3022 C3023 1.373 . S
C3022 C3024 1.389 . S
C3023 H3002 0.950 . S
C3023 C3022 1.373 . S
C3023 C3039 1.377 . S
C3024 C3022 1.389 . S
C3024 C3025 1.524 . S
C3024 C3038 1.377 . S
C3025 C3024 1.524 . S
C3025 C3026 1.397 . S
C3025 C3030 1.363 . S
C3026 H3003 0.950 . S
C3026 C3025 1.397 . S
C3026 C3027 1.334 . S
C3027 H3004 0.950 . S
C3027 C3026 1.334 . S
C3027 C3028 1.287 . S
C3028 C3027 1.287 . S
C3028 C3029 1.524 . S
C3028 H3047 0.913 . S
C3029 H3005 0.950 . S
C3029 C3028 1.524 . S
C3029 C3030 1.415 . S
C3030 H3006 0.950 . S
C3030 C3025 1.363 . S
C3030 C3029 1.415 . S
C3031 H3007 0.951 . S
C3031 C3032 1.366 . S
C3031 C3033 1.388 . S
C3032 C3031 1.366 . S
C3032 C3036 1.385 . S
C3033 H3008 0.951 . S
C3033 C3031 1.388 . S
C3033 C3034 1.366 . S
C3034 C3033 1.366 . S
C3034 C3035 1.414 . S
C3034 C3037 1.499 . S
C3035 H3009 0.950 . S
C3035 C3034 1.414 . S
C3035 C3036 1.374 . S
C3036 H3010 0.950 . S
C3036 C3032 1.385 . S
C3036 C3035 1.374 . S
C3037 C3034 1.499 . S
C3037 C3038 1.373 . S
C3037 C3039 1.389 . S
C3038 H3011 0.950 . S
C3038 C3024 1.377 . S
C3038 C3037 1.373 . S
C3039 C3023 1.377 . S
C3039 C3037 1.389 . S
C3039 C3040 1.524 . S
C3040 C3039 1.524 . S
C3040 C3041 1.397 . S
C3040 C3045 1.363 . S
C3041 H3012 0.950 . S
C3041 C3040 1.397 . S
C3041 C3042 1.334 . S
C3042 H3013 0.950 . S
C3042 C3041 1.334 . S
C3042 C3043 1.287 . S
C3043 C3042 1.287 . S
C3043 C3044 1.524 . S
C3043 H3046 0.999 . S
C3044 H3014 0.950 . S
C3044 C3043 1.524 . S
C3044 C3045 1.415 . S
C3045 H3015 0.950 . S
C3045 C3040 1.363 . S
C3045 C3044 1.415 . S
H3046 C3043 0.999 . S
H3047 C3028 0.913 . S
H3048 C3066 0.951 . S
H3049 C3068 0.951 . S
H3050 C3070 0.950 . S
H3051 C3071 0.950 . S
H3052 C3073 0.950 . S
H3053 C3076 0.950 . S
H3054 C3077 0.950 . S
H3055 C3079 0.950 . S
H3056 C3080 0.950 . S
H3057 C3081 0.951 . S
H3058 C3083 0.951 . S
H3059 C3085 0.950 . S
H3060 C3086 0.950 . S
H3061 C3088 0.950 . S
H3062 C3091 0.950 . S
H3063 C3092 0.950 . S
H3064 C3094 0.950 . S
H3065 C3095 0.950 . S
C3066 H3048 0.951 . S
C3066 C3067 1.366 . S
C3066 C3068 1.388 . S
C3067 C3066 1.366 . S
C3067 C3071 1.385 . S
C3068 H3049 0.951 . S
C3068 C3066 1.388 . S
C3068 C3069 1.366 . S
C3069 C3068 1.366 . S
C3069 C3070 1.414 . S
C3069 C3072 1.499 . S
C3070 H3050 0.950 . S
C3070 C3069 1.414 . S
C3070 C3071 1.374 . S
C3071 H3051 0.950 . S
C3071 C3067 1.385 . S
C3071 C3070 1.374 . S
C3072 C3069 1.499 . S
C3072 C3073 1.373 . S
C3072 C3074 1.389 . S
C3073 H3052 0.950 . S
C3073 C3072 1.373 . S
C3073 C3089 1.377 . S
C3074 C3072 1.389 . S
C3074 C3075 1.524 . S
C3074 C3088 1.377 . S
C3075 C3074 1.524 . S
C3075 C3076 1.397 . S
C3075 C3080 1.363 . S
C3076 H3053 0.950 . S
C3076 C3075 1.397 . S
C3076 C3077 1.334 . S
C3077 H3054 0.950 . S
C3077 C3076 1.334 . S
C3077 C3078 1.287 . S
C3078 C3077 1.287 . S
C3078 C3079 1.524 . S
C3078 H3097 0.913 . S
C3079 H3055 0.950 . S
C3079 C3078 1.524 . S
C3079 C3080 1.415 . S
C3080 H3056 0.950 . S
C3080 C3075 1.363 . S
C3080 C3079 1.415 . S
C3081 H3057 0.951 . S
C3081 C3082 1.366 . S
C3081 C3083 1.388 . S
C3082 C3081 1.366 . S
C3082 C3086 1.385 . S
C3083 H3058 0.951 . S
C3083 C3081 1.388 . S
C3083 C3084 1.366 . S
C3084 C3083 1.366 . S
C3084 C3085 1.414 . S
C3084 C3087 1.499 . S
C3085 H3059 0.950 . S
C3085 C3084 1.414 . S
C3085 C3086 1.374 . S
C3086 H3060 0.950 . S
C3086 C3082 1.385 . S
C3086 C3085 1.374 . S
C3087 C3084 1.499 . S
C3087 C3088 1.373 . S
C3087 C3089 1.389 . S
C3088 H3061 0.950 . S
C3088 C3074 1.377 . S
C3088 C3087 1.373 . S
C3089 C3073 1.377 . S
C3089 C3087 1.389 . S
C3089 C3090 1.524 . S
C3090 C3089 1.524 . S
C3090 C3091 1.397 . S
C3090 C3095 1.363 . S
C3091 H3062 0.950 . S
C3091 C3090 1.397 . S
C3091 C3092 1.334 . S
C3092 H3063 0.950 . S
C3092 C3091 1.334 . S
C3092 C3093 1.287 . S
C3093 C3092 1.287 . S
C3093 C3094 1.524 . S
C3093 H3096 0.999 . S
C3094 H3064 0.950 . S
C3094 C3093 1.524 . S
C3094 C3095 1.415 . S
C3095 H3065 0.950 . S
C3095 C3090 1.363 . S
C3095 C3094 1.415 . S
H3096 C3093 0.999 . S
H3097 C3078 0.913 . S
H3098 C3116 0.951 . S
H3099 C3118 0.951 . S
H3100 C3120 0.950 . S
H3101 C3121 0.950 . S
H3102 C3123 0.950 . S
H3103 C3126 0.950 . S
H3104 C3127 0.950 . S
H3105 C3129 0.950 . S
H3106 C3130 0.950 . S
H3107 C3131 0.951 . S
H3108 C3133 0.951 . S
H3109 C3135 0.950 . S
H3110 C3136 0.950 . S
H3111 C3138 0.950 . S
H3112 C3141 0.950 . S
H3113 C3142 0.950 . S
H3114 C3144 0.950 . S
H3115 C3145 0.950 . S
C3116 H3098 0.951 . S
C3116 C3117 1.366 . S
C3116 C3118 1.388 . S
C3117 C3116 1.366 . S
C3117 C3121 1.385 . S
C3118 H3099 0.951 . S
C3118 C3116 1.388 . S
C3118 C3119 1.366 . S
C3119 C3118 1.366 . S
C3119 C3120 1.414 . S
C3119 C3122 1.499 . S
C3120 H3100 0.950 . S
C3120 C3119 1.414 . S
C3120 C3121 1.374 . S
C3121 H3101 0.950 . S
C3121 C3117 1.385 . S
C3121 C3120 1.374 . S
C3122 C3119 1.499 . S
C3122 C3123 1.373 . S
C3122 C3124 1.389 . S
C3123 H3102 0.950 . S
C3123 C3122 1.373 . S
C3123 C3139 1.377 . S
C3124 C3122 1.389 . S
C3124 C3125 1.524 . S
C3124 C3138 1.377 . S
C3125 C3124 1.524 . S
C3125 C3126 1.397 . S
C3125 C3130 1.363 . S
C3126 H3103 0.950 . S
C3126 C3125 1.397 . S
C3126 C3127 1.334 . S
C3127 H3104 0.950 . S
C3127 C3126 1.334 . S
C3127 C3128 1.287 . S
C3128 C3127 1.287 . S
C3128 C3129 1.524 . S
C3128 H3147 0.913 . S
C3129 H3105 0.950 . S
C3129 C3128 1.524 . S
C3129 C3130 1.415 . S
C3130 H3106 0.950 . S
C3130 C3125 1.363 . S
C3130 C3129 1.415 . S
C3131 H3107 0.951 . S
C3131 C3132 1.366 . S
C3131 C3133 1.388 . S
C3132 C3131 1.366 . S
C3132 C3136 1.385 . S
C3133 H3108 0.951 . S
C3133 C3131 1.388 . S
C3133 C3134 1.366 . S
C3134 C3133 1.366 . S
C3134 C3135 1.414 . S
C3134 C3137 1.499 . S
C3135 H3109 0.950 . S
C3135 C3134 1.414 . S
C3135 C3136 1.374 . S
C3136 H3110 0.950 . S
C3136 C3132 1.385 . S
C3136 C3135 1.374 . S
C3137 C3134 1.499 . S
C3137 C3138 1.373 . S
C3137 C3139 1.389 . S
C3138 H3111 0.950 . S
C3138 C3124 1.377 . S
C3138 C3137 1.373 . S
C3139 C3123 1.377 . S
C3139 C3137 1.389 . S
C3139 C3140 1.524 . S
C3140 C3139 1.524 . S
C3140 C3141 1.397 . S
C3140 C3145 1.363 . S
C3141 H3112 0.950 . S
C3141 C3140 1.397 . S
C3141 C3142 1.334 . S
C3142 H3113 0.950 . S
C3142 C3141 1.334 . S
C3142 C3143 1.287 . S
C3143 C3142 1.287 . S
C3143 C3144 1.524 . S
C3143 H3146 1.017 . S
C3144 H3114 0.950 . S
C3144 C3143 1.524 . S
C3144 C3145 1.415 . S
C3145 H3115 0.950 . S
C3145 C3140 1.363 . S
C3145 C3144 1.415 . S
H3146 C3143 1.017 . S
H3147 C3128 0.913 . S
H3148 C3166 0.951 1_554 S
H3149 C3168 0.951 . S
H3150 C3170 0.950 . S
H3151 C3171 0.950 . S
H3152 C3173 0.950 . S
H3153 C3176 0.950 . S
H3154 C3177 0.950 . S
H3155 C3179 0.950 . S
H3156 C3180 0.950 . S
H3157 C3181 0.951 . S
H3158 C3183 0.951 . S
H3159 C3185 0.950 . S
H3160 C3186 0.950 . S
H3161 C3188 0.950 . S
H3162 C3191 0.950 . S
H3163 C3192 0.950 . S
H3164 C3194 0.950 . S
H3165 C3195 0.950 . S
C3166 H3148 0.951 1_556 S
C3166 C3167 1.366 . S
C3166 C3168 1.388 . S
C3167 C3166 1.366 . S
C3167 C3171 1.385 . S
C3168 H3149 0.951 . S
C3168 C3166 1.388 . S
C3168 C3169 1.366 . S
C3169 C3168 1.366 . S
C3169 C3170 1.414 . S
C3169 C3172 1.499 . S
C3170 H3150 0.950 . S
C3170 C3169 1.414 . S
C3170 C3171 1.374 . S
C3171 H3151 0.950 . S
C3171 C3167 1.385 . S
C3171 C3170 1.374 . S
C3172 C3169 1.499 . S
C3172 C3173 1.373 . S
C3172 C3174 1.389 . S
C3173 H3152 0.950 . S
C3173 C3172 1.373 . S
C3173 C3189 1.377 . S
C3174 C3172 1.389 . S
C3174 C3175 1.524 . S
C3174 C3188 1.377 . S
C3175 C3174 1.524 . S
C3175 C3176 1.397 . S
C3175 C3180 1.363 . S
C3176 H3153 0.950 . S
C3176 C3175 1.397 . S
C3176 C3177 1.334 . S
C3177 H3154 0.950 . S
C3177 C3176 1.334 . S
C3177 C3178 1.287 . S
C3178 C3177 1.287 . S
C3178 C3179 1.524 . S
C3178 H3197 0.913 . S
C3179 H3155 0.950 . S
C3179 C3178 1.524 . S
C3179 C3180 1.415 . S
C3180 H3156 0.950 . S
C3180 C3175 1.363 . S
C3180 C3179 1.415 . S
C3181 H3157 0.951 . S
C3181 C3182 1.366 . S
C3181 C3183 1.388 . S
C3182 C3181 1.366 . S
C3182 C3186 1.385 . S
C3183 H3158 0.951 . S
C3183 C3181 1.388 . S
C3183 C3184 1.366 . S
C3184 C3183 1.366 . S
C3184 C3185 1.414 . S
C3184 C3187 1.499 . S
C3185 H3159 0.950 . S
C3185 C3184 1.414 . S
C3185 C3186 1.374 . S
C3186 H3160 0.950 . S
C3186 C3182 1.385 . S
C3186 C3185 1.374 . S
C3187 C3184 1.499 . S
C3187 C3188 1.373 . S
C3187 C3189 1.389 . S
C3188 H3161 0.950 . S
C3188 C3174 1.377 . S
C3188 C3187 1.373 . S
C3189 C3173 1.377 . S
C3189 C3187 1.389 . S
C3189 C3190 1.524 . S
C3190 C3189 1.524 . S
C3190 C3191 1.397 . S
C3190 C3195 1.363 . S
C3191 H3162 0.950 . S
C3191 C3190 1.397 . S
C3191 C3192 1.334 . S
C3192 H3163 0.950 . S
C3192 C3191 1.334 . S
C3192 C3193 1.287 . S
C3193 C3192 1.287 . S
C3193 C3194 1.524 . S
C3193 H3196 0.999 . S
C3194 H3164 0.950 . S
C3194 C3193 1.524 . S
C3194 C3195 1.415 . S
C3195 H3165 0.950 . S
C3195 C3190 1.363 . S
C3195 C3194 1.415 . S
H3196 C3193 0.999 . S
H3197 C3178 0.913 . S
H3198 C3216 0.951 . S
H3199 C3218 0.951 . S
H3200 C3220 0.950 . S
H3201 C3221 0.950 1_554 S
H3202 C3223 0.950 . S
H3203 C3226 0.950 . S
H3204 C3227 0.950 . S
H3205 C3229 0.950 . S
H3206 C3230 0.950 . S
H3207 C3231 0.951 . S
H3208 C3233 0.951 . S
H3209 C3235 0.950 . S
H3210 C3236 0.950 . S
H3211 C3238 0.950 . S
H3212 C3241 0.950 . S
H3213 C3242 0.950 . S
H3214 C3244 0.958 . S
H3215 C3245 0.950 . S
C3216 H3198 0.951 . S
C3216 C3217 1.366 . S
C3216 C3218 1.388 . S
C3217 C3216 1.366 . S
C3217 C3221 1.385 . S
C3218 H3199 0.951 . S
C3218 C3216 1.388 . S
C3218 C3219 1.366 . S
C3219 C3218 1.366 . S
C3219 C3220 1.414 . S
C3219 C3222 1.499 . S
C3220 H3200 0.950 . S
C3220 C3219 1.414 . S
C3220 C3221 1.374 . S
C3221 H3201 0.950 1_556 S
C3221 C3217 1.385 . S
C3221 C3220 1.374 . S
C3222 C3219 1.499 . S
C3222 C3223 1.373 . S
C3222 C3224 1.389 . S
C3223 H3202 0.950 . S
C3223 C3222 1.373 . S
C3223 C3239 1.377 . S
C3224 C3222 1.389 . S
C3224 C3225 1.524 . S
C3224 C3238 1.377 . S
C3225 C3224 1.524 . S
C3225 C3226 1.397 . S
C3225 C3230 1.363 . S
C3226 H3203 0.950 . S
C3226 C3225 1.397 . S
C3226 C3227 1.334 . S
C3227 H3204 0.950 . S
C3227 C3226 1.334 . S
C3227 C3228 1.287 . S
C3228 C3227 1.287 . S
C3228 C3229 1.524 . S
C3228 H3247 0.913 . S
C3229 H3205 0.950 . S
C3229 C3228 1.524 . S
C3229 C3230 1.415 . S
C3230 H3206 0.950 . S
C3230 C3225 1.363 . S
C3230 C3229 1.415 . S
C3231 H3207 0.951 . S
C3231 C3232 1.366 . S
C3231 C3233 1.388 . S
C3232 C3231 1.366 . S
C3232 C3236 1.385 . S
C3233 H3208 0.951 . S
C3233 C3231 1.388 . S
C3233 C3234 1.366 . S
C3234 C3233 1.366 . S
C3234 C3235 1.414 . S
C3234 C3237 1.499 . S
C3235 H3209 0.950 . S
C3235 C3234 1.414 . S
C3235 C3236 1.374 . S
C3236 H3210 0.950 . S
C3236 C3232 1.385 . S
C3236 C3235 1.374 . S
C3237 C3234 1.499 . S
C3237 C3238 1.373 . S
C3237 C3239 1.389 . S
C3238 H3211 0.950 . S
C3238 C3224 1.377 . S
C3238 C3237 1.373 . S
C3239 C3223 1.377 . S
C3239 C3237 1.389 . S
C3239 C3240 1.524 . S
C3240 C3239 1.524 . S
C3240 C3241 1.397 . S
C3240 C3245 1.363 . S
C3241 H3212 0.950 . S
C3241 C3240 1.397 . S
C3241 C3242 1.334 . S
C3242 H3213 0.950 . S
C3242 C3241 1.334 . S
C3242 C3243 1.287 . S
C3243 C3242 1.287 . S
C3243 C3244 1.524 . S
C3243 H3246 0.999 . S
C3244 H3214 0.958 . S
C3244 C3243 1.524 . S
C3244 C3245 1.415 . S
C3245 H3215 0.950 . S
C3245 C3240 1.363 . S
C3245 C3244 1.415 . S
H3246 C3243 0.999 . S
H3247 C3228 0.913 . S
H3248 C3266 0.951 . S
H3249 C3268 0.951 . S
H3250 C3270 0.950 . S
H3251 C3271 0.950 . S
H3252 C3273 0.950 . S
H3253 C3276 0.950 . S
H3254 C3277 0.950 . S
H3255 C3279 0.950 . S
H3256 C3280 0.950 . S
H3257 C3281 0.951 . S
H3258 C3283 0.951 . S
H3259 C3285 0.950 . S
H3260 C3286 0.950 . S
H3261 C3288 0.950 . S
H3262 C3291 0.950 . S
H3263 C3292 0.950 . S
H3264 C3294 0.950 . S
H3265 C3295 0.950 . S
C3266 H3248 0.951 . S
C3266 C3267 1.366 . S
C3266 C3268 1.388 . S
C3267 C3266 1.366 . S
C3267 C3271 1.385 . S
C3268 H3249 0.951 . S
C3268 C3266 1.388 . S
C3268 C3269 1.366 . S
C3269 C3268 1.366 . S
C3269 C3270 1.414 . S
C3269 C3272 1.499 . S
C3270 H3250 0.950 . S
C3270 C3269 1.414 . S
C3270 C3271 1.374 . S
C3271 H3251 0.950 . S
C3271 C3267 1.385 . S
C3271 C3270 1.374 . S
C3272 C3269 1.499 . S
C3272 C3273 1.373 . S
C3272 C3274 1.389 . S
C3273 H3252 0.950 . S
C3273 C3272 1.373 . S
C3273 C3289 1.377 . S
C3274 C3272 1.389 . S
C3274 C3275 1.524 . S
C3274 C3288 1.377 . S
C3275 C3274 1.524 . S
C3275 C3276 1.397 . S
C3275 C3280 1.363 . S
C3276 H3253 0.950 . S
C3276 C3275 1.397 . S
C3276 C3277 1.334 . S
C3277 H3254 0.950 . S
C3277 C3276 1.334 . S
C3277 C3278 1.287 . S
C3278 C3277 1.287 . S
C3278 C3279 1.524 . S
C3278 H3297 0.913 . S
C3279 H3255 0.950 . S
C3279 C3278 1.524 . S
C3279 C3280 1.415 . S
C3280 H3256 0.950 . S
C3280 C3275 1.363 . S
C3280 C3279 1.415 . S
C3281 H3257 0.951 . S
C3281 C3282 1.366 . S
C3281 C3283 1.388 . S
C3282 C3281 1.366 . S
C3282 C3286 1.385 . S
C3283 H3258 0.951 . S
C3283 C3281 1.388 . S
C3283 C3284 1.366 . S
C3284 C3283 1.366 . S
C3284 C3285 1.414 . S
C3284 C3287 1.499 . S
C3285 H3259 0.950 . S
C3285 C3284 1.414 . S
C3285 C3286 1.374 . S
C3286 H3260 0.950 . S
C3286 C3282 1.385 . S
C3286 C3285 1.374 . S
C3287 C3284 1.499 . S
C3287 C3288 1.373 . S
C3287 C3289 1.389 . S
C3288 H3261 0.950 . S
C3288 C3274 1.377 . S
C3288 C3287 1.373 . S
C3289 C3273 1.377 . S
C3289 C3287 1.389 . S
C3289 C3290 1.524 . S
C3290 C3289 1.524 . S
C3290 C3291 1.397 . S
C3290 C3295 1.363 . S
C3291 H3262 0.950 . S
C3291 C3290 1.397 . S
C3291 C3292 1.334 . S
C3292 H3263 0.950 . S
C3292 C3291 1.334 . S
C3292 C3293 1.287 . S
C3293 C3292 1.287 . S
C3293 C3294 1.524 . S
C3293 H3296 0.999 . S
C3294 H3264 0.950 . S
C3294 C3293 1.524 . S
C3294 C3295 1.415 . S
C3295 H3265 0.950 . S
C3295 C3290 1.363 . S
C3295 C3294 1.415 . S
H3296 C3293 0.999 . S
H3297 C3278 0.913 . S
H3298 C3316 0.951 . S
H3299 C3318 0.951 . S
H3300 C3320 0.950 . S
H3301 C3321 0.950 . S
H3302 C3323 0.950 . S
H3303 C3326 0.949 . S
H3304 C3327 0.950 . S
H3305 C3329 0.950 . S
H3306 C3330 0.950 . S
H3307 C3331 0.951 . S
H3308 C3333 0.951 . S
H3309 C3335 0.950 . S
H3310 C3336 0.950 . S
H3311 C3338 0.950 . S
H3312 C3341 0.950 . S
H3313 C3342 0.950 . S
H3314 C3344 0.950 . S
H3315 C3345 0.950 . S
C3316 H3298 0.951 . S
C3316 C3317 1.366 . S
C3316 C3318 1.388 . S
C3317 C3316 1.366 . S
C3317 C3321 1.385 . S
C3318 H3299 0.951 . S
C3318 C3316 1.388 . S
C3318 C3319 1.366 . S
C3319 C3318 1.366 . S
C3319 C3320 1.414 . S
C3319 C3322 1.499 . S
C3320 H3300 0.950 . S
C3320 C3319 1.414 . S
C3320 C3321 1.374 . S
C3321 H3301 0.950 . S
C3321 C3317 1.385 . S
C3321 C3320 1.374 . S
C3322 C3319 1.499 . S
C3322 C3323 1.373 . S
C3322 C3324 1.389 . S
C3323 H3302 0.950 . S
C3323 C3322 1.373 . S
C3323 C3339 1.377 . S
C3324 C3322 1.389 . S
C3324 C3325 1.524 . S
C3324 C3338 1.377 . S
C3325 C3324 1.524 . S
C3325 C3326 1.396 . S
C3325 C3330 1.363 . S
C3326 H3303 0.949 . S
C3326 C3325 1.396 . S
C3326 C3327 1.336 1_556 S
C3327 H3304 0.950 . S
C3327 C3326 1.336 1_554 S
C3327 C3328 1.287 . S
C3328 C3327 1.287 . S
C3328 C3329 1.524 . S
C3328 H3347 0.913 . S
C3329 H3305 0.950 . S
C3329 C3328 1.524 . S
C3329 C3330 1.415 1_554 S
C3330 H3306 0.950 . S
C3330 C3325 1.363 . S
C3330 C3329 1.415 1_556 S
C3331 H3307 0.951 . S
C3331 C3332 1.366 . S
C3331 C3333 1.388 . S
C3332 C3331 1.366 . S
C3332 C3336 1.385 . S
C3333 H3308 0.951 . S
C3333 C3331 1.388 . S
C3333 C3334 1.366 . S
C3334 C3333 1.366 . S
C3334 C3335 1.414 . S
C3334 C3337 1.499 . S
C3335 H3309 0.950 . S
C3335 C3334 1.414 . S
C3335 C3336 1.374 . S
C3336 H3310 0.950 . S
C3336 C3332 1.385 . S
C3336 C3335 1.374 . S
C3337 C3334 1.499 . S
C3337 C3338 1.373 . S
C3337 C3339 1.389 . S
C3338 H3311 0.950 . S
C3338 C3324 1.377 . S
C3338 C3337 1.373 . S
C3339 C3323 1.377 . S
C3339 C3337 1.389 . S
C3339 C3340 1.524 . S
C3340 C3339 1.524 . S
C3340 C3341 1.397 . S
C3340 C3345 1.363 . S
C3341 H3312 0.950 . S
C3341 C3340 1.397 . S
C3341 C3342 1.334 . S
C3342 H3313 0.950 . S
C3342 C3341 1.334 . S
C3342 C3343 1.287 . S
C3343 C3342 1.287 . S
C3343 C3344 1.524 . S
C3343 H3346 0.999 . S
C3344 H3314 0.950 . S
C3344 C3343 1.524 . S
C3344 C3345 1.415 . S
C3345 H3315 0.950 . S
C3345 C3340 1.363 . S
C3345 C3344 1.415 . S
H3346 C3343 0.999 . S
H3347 C3328 0.913 . S
H3348 C3366 0.951 . S
H3349 C3368 0.951 . S
H3350 C3370 0.950 . S
H3351 C3371 0.950 . S
H3352 C3373 0.950 . S
H3353 C3376 0.950 . S
H3354 C3377 0.950 . S
H3355 C3379 0.950 . S
H3356 C3380 0.950 . S
H3357 C3381 0.951 . S
H3358 C3383 0.951 . S
H3359 C3385 0.950 . S
H3360 C3386 0.950 . S
H3361 C3388 0.950 . S
H3362 C3391 0.950 . S
H3363 C3392 0.950 . S
H3364 C3394 0.950 . S
H3365 C3395 0.950 . S
C3366 H3348 0.951 . S
C3366 C3367 1.366 . S
C3366 C3368 1.388 . S
C3367 C3366 1.366 . S
C3367 C3371 1.385 . S
C3368 H3349 0.951 . S
C3368 C3366 1.388 . S
C3368 C3369 1.366 . S
C3369 C3368 1.366 . S
C3369 C3370 1.414 . S
C3369 C3372 1.499 . S
C3370 H3350 0.950 . S
C3370 C3369 1.414 . S
C3370 C3371 1.374 . S
C3371 H3351 0.950 . S
C3371 C3367 1.385 . S
C3371 C3370 1.374 . S
C3372 C3369 1.499 . S
C3372 C3373 1.373 . S
C3372 C3374 1.389 . S
C3373 H3352 0.950 . S
C3373 C3372 1.373 . S
C3373 C3389 1.377 . S
C3374 C3372 1.389 . S
C3374 C3375 1.524 . S
C3374 C3388 1.377 . S
C3375 C3374 1.524 . S
C3375 C3376 1.397 . S
C3375 C3380 1.363 . S
C3376 H3353 0.950 . S
C3376 C3375 1.397 . S
C3376 C3377 1.334 . S
C3377 H3354 0.950 . S
C3377 C3376 1.334 . S
C3377 C3378 1.287 . S
C3378 C3377 1.287 . S
C3378 C3379 1.524 . S
C3378 H3397 0.913 . S
C3379 H3355 0.950 . S
C3379 C3378 1.524 . S
C3379 C3380 1.415 . S
C3380 H3356 0.950 . S
C3380 C3375 1.363 . S
C3380 C3379 1.415 . S
C3381 H3357 0.951 . S
C3381 C3382 1.366 . S
C3381 C3383 1.388 . S
C3382 C3381 1.366 . S
C3382 C3386 1.385 . S
C3383 H3358 0.951 . S
C3383 C3381 1.388 . S
C3383 C3384 1.366 . S
C3384 C3383 1.366 . S
C3384 C3385 1.414 . S
C3384 C3387 1.499 . S
C3385 H3359 0.950 . S
C3385 C3384 1.414 . S
C3385 C3386 1.374 . S
C3386 H3360 0.950 . S
C3386 C3382 1.385 . S
C3386 C3385 1.374 . S
C3387 C3384 1.499 . S
C3387 C3388 1.373 . S
C3387 C3389 1.389 . S
C3388 H3361 0.950 . S
C3388 C3374 1.377 . S
C3388 C3387 1.373 . S
C3389 C3373 1.377 . S
C3389 C3387 1.389 . S
C3389 C3390 1.524 . S
C3390 C3389 1.524 . S
C3390 C3391 1.397 . S
C3390 C3395 1.363 . S
C3391 H3362 0.950 . S
C3391 C3390 1.397 . S
C3391 C3392 1.334 . S
C3392 H3363 0.950 . S
C3392 C3391 1.334 . S
C3392 C3393 1.287 . S
C3393 C3392 1.287 . S
C3393 C3394 1.524 . S
C3393 H3396 0.999 . S
C3394 H3364 0.950 . S
C3394 C3393 1.524 . S
C3394 C3395 1.415 . S
C3395 H3365 0.950 . S
C3395 C3390 1.363 . S
C3395 C3394 1.415 . S
H3396 C3393 0.999 . S
H3397 C3378 0.913 . S
H3398 C3416 0.951 . S
H3399 C3418 0.951 . S
H3400 C3420 0.950 . S
H3401 C3421 0.950 . S
H3402 C3423 0.950 . S
H3403 C3426 0.950 . S
H3404 C3427 0.950 . S
H3405 C3429 0.950 . S
H3406 C3430 0.950 . S
H3407 C3431 0.951 . S
H3408 C3433 0.951 . S
H3409 C3435 0.950 . S
H3410 C3436 0.950 . S
H3411 C3438 0.950 . S
H3412 C3441 0.950 . S
H3413 C3442 0.950 . S
H3414 C3444 0.950 . S
H3415 C3445 0.950 . S
C3416 H3398 0.951 . S
C3416 C3417 1.366 . S
C3416 C3418 1.388 . S
C3417 C3416 1.366 . S
C3417 C3421 1.385 . S
C3418 H3399 0.951 . S
C3418 C3416 1.388 . S
C3418 C3419 1.366 . S
C3419 C3418 1.366 . S
C3419 C3420 1.414 . S
C3419 C3422 1.499 . S
C3420 H3400 0.950 . S
C3420 C3419 1.414 . S
C3420 C3421 1.374 . S
C3421 H3401 0.950 . S
C3421 C3417 1.385 . S
C3421 C3420 1.374 . S
C3422 C3419 1.499 . S
C3422 C3423 1.373 . S
C3422 C3424 1.389 . S
C3423 H3402 0.950 . S
C3423 C3422 1.373 . S
C3423 C3439 1.377 . S
C3424 C3422 1.389 . S
C3424 C3425 1.524 . S
C3424 C3438 1.377 . S
C3425 C3424 1.524 . S
C3425 C3426 1.397 . S
C3425 C3430 1.363 . S
C3426 H3403 0.950 . S
C3426 C3425 1.397 . S
C3426 C3427 1.334 . S
C3427 H3404 0.950 . S
C3427 C3426 1.334 . S
C3427 C3428 1.287 . S
C3428 C3427 1.287 . S
C3428 C3429 1.524 . S
C3428 H3447 0.913 . S
C3429 H3405 0.950 . S
C3429 C3428 1.524 . S
C3429 C3430 1.415 . S
C3430 H3406 0.950 . S
C3430 C3425 1.363 . S
C3430 C3429 1.415 . S
C3431 H3407 0.951 . S
C3431 C3432 1.366 . S
C3431 C3433 1.388 . S
C3432 C3431 1.366 . S
C3432 C3436 1.385 . S
C3433 H3408 0.951 . S
C3433 C3431 1.388 . S
C3433 C3434 1.366 . S
C3434 C3433 1.366 . S
C3434 C3435 1.414 . S
C3434 C3437 1.499 . S
C3435 H3409 0.950 . S
C3435 C3434 1.414 . S
C3435 C3436 1.374 . S
C3436 H3410 0.950 . S
C3436 C3432 1.385 . S
C3436 C3435 1.374 . S
C3437 C3434 1.499 . S
C3437 C3438 1.373 . S
C3437 C3439 1.389 . S
C3438 H3411 0.950 . S
C3438 C3424 1.377 . S
C3438 C3437 1.373 . S
C3439 C3423 1.377 . S
C3439 C3437 1.389 . S
C3439 C3440 1.524 . S
C3440 C3439 1.524 . S
C3440 C3441 1.397 . S
C3440 C3445 1.363 . S
C3441 H3412 0.950 . S
C3441 C3440 1.397 . S
C3441 C3442 1.334 . S
C3442 H3413 0.950 . S
C3442 C3441 1.334 . S
C3442 C3443 1.287 . S
C3443 C3442 1.287 . S
C3443 C3444 1.524 . S
C3443 H3446 0.999 . S
C3444 H3414 0.950 . S
C3444 C3443 1.524 . S
C3444 C3445 1.415 . S
C3445 H3415 0.950 . S
C3445 C3440 1.363 . S
C3445 C3444 1.415 . S
H3446 C3443 0.999 . S
H3447 C3428 0.913 . S
H3448 C3466 0.951 . S
H3449 C3468 0.951 . S
H3450 C3470 0.950 . S
H3451 C3471 0.950 . S
H3452 C3473 0.950 . S
H3453 C3476 0.950 . S
H3454 C3477 0.950 . S
H3455 C3479 0.950 . S
H3456 C3480 0.950 . S
H3457 C3481 0.951 . S
H3458 C3483 0.951 . S
H3459 C3485 0.950 . S
H3460 C3486 0.950 . S
H3461 C3488 0.950 . S
H3462 C3491 0.950 . S
H3463 C3492 0.950 . S
H3464 C3494 0.950 . S
H3465 C3495 0.950 . S
C3466 H3448 0.951 . S
C3466 C3467 1.366 . S
C3466 C3468 1.388 . S
C3467 C3466 1.366 . S
C3467 C3471 1.385 . S
C3468 H3449 0.951 . S
C3468 C3466 1.388 . S
C3468 C3469 1.366 . S
C3469 C3468 1.366 . S
C3469 C3470 1.414 . S
C3469 C3472 1.499 . S
C3470 H3450 0.950 . S
C3470 C3469 1.414 . S
C3470 C3471 1.374 . S
C3471 H3451 0.950 . S
C3471 C3467 1.385 . S
C3471 C3470 1.374 . S
C3472 C3469 1.499 . S
C3472 C3473 1.373 . S
C3472 C3474 1.389 . S
C3473 H3452 0.950 . S
C3473 C3472 1.373 . S
C3473 C3489 1.377 . S
C3474 C3472 1.389 . S
C3474 C3475 1.524 . S
C3474 C3488 1.377 . S
C3475 C3474 1.524 . S
C3475 C3476 1.397 . S
C3475 C3480 1.363 . S
C3476 H3453 0.950 . S
C3476 C3475 1.397 . S
C3476 C3477 1.334 . S
C3477 H3454 0.950 . S
C3477 C3476 1.334 . S
C3477 C3478 1.287 . S
C3478 C3477 1.287 . S
C3478 C3479 1.524 . S
C3478 H3497 0.913 . S
C3479 H3455 0.950 . S
C3479 C3478 1.524 . S
C3479 C3480 1.415 . S
C3480 H3456 0.950 . S
C3480 C3475 1.363 . S
C3480 C3479 1.415 . S
C3481 H3457 0.951 . S
C3481 C3482 1.366 . S
C3481 C3483 1.388 . S
C3482 C3481 1.366 . S
C3482 C3486 1.385 . S
C3483 H3458 0.951 . S
C3483 C3481 1.388 . S
C3483 C3484 1.366 . S
C3484 C3483 1.366 . S
C3484 C3485 1.414 . S
C3484 C3487 1.499 . S
C3485 H3459 0.950 . S
C3485 C3484 1.414 . S
C3485 C3486 1.374 . S
C3486 H3460 0.950 . S
C3486 C3482 1.385 . S
C3486 C3485 1.374 . S
C3487 C3484 1.499 . S
C3487 C3488 1.373 . S
C3487 C3489 1.389 . S
C3488 H3461 0.950 . S
C3488 C3474 1.377 . S
C3488 C3487 1.373 . S
C3489 C3473 1.377 . S
C3489 C3487 1.389 . S
C3489 C3490 1.524 . S
C3490 C3489 1.524 . S
C3490 C3491 1.397 . S
C3490 C3495 1.363 . S
C3491 H3462 0.950 . S
C3491 C3490 1.397 . S
C3491 C3492 1.334 . S
C3492 H3463 0.950 . S
C3492 C3491 1.334 . S
C3492 C3493 1.287 . S
C3493 C3492 1.287 . S
C3493 C3494 1.524 . S
C3493 H3496 0.999 . S
C3494 H3464 0.950 . S
C3494 C3493 1.524 . S
C3494 C3495 1.415 . S
C3495 H3465 0.950 . S
C3495 C3490 1.363 . S
C3495 C3494 1.415 . S
H3496 C3493 0.999 . S
H3497 C3478 0.913 . S
H3498 C3516 0.951 . S
H3499 C3518 0.951 . S
H3500 C3520 0.950 . S
H3501 C3521 0.950 . S
H3502 C3523 0.950 . S
H3503 C3526 0.950 . S
H3504 C3527 0.950 . S
H3505 C3529 0.950 . S
H3506 C3530 0.950 . S
H3507 C3531 0.951 . S
H3508 C3533 0.951 . S
H3509 C3535 0.950 . S
H3510 C3536 0.950 . S
H3511 C3538 0.950 . S
H3512 C3541 0.950 . S
H3513 C3542 0.950 . S
H3514 C3544 0.950 . S
H3515 C3545 0.950 . S
C3516 H3498 0.951 . S
C3516 C3517 1.366 . S
C3516 C3518 1.388 . S
C3517 C3516 1.366 . S
C3517 C3521 1.385 . S
C3518 H3499 0.951 . S
C3518 C3516 1.388 . S
C3518 C3519 1.366 . S
C3519 C3518 1.366 . S
C3519 C3520 1.414 . S
C3519 C3522 1.499 . S
C3520 H3500 0.950 . S
C3520 C3519 1.414 . S
C3520 C3521 1.374 . S
C3521 H3501 0.950 . S
C3521 C3517 1.385 . S
C3521 C3520 1.374 . S
C3522 C3519 1.499 . S
C3522 C3523 1.373 . S
C3522 C3524 1.389 . S
C3523 H3502 0.950 . S
C3523 C3522 1.373 . S
C3523 C3539 1.377 . S
C3524 C3522 1.389 . S
C3524 C3525 1.524 . S
C3524 C3538 1.377 . S
C3525 C3524 1.524 . S
C3525 C3526 1.397 . S
C3525 C3530 1.363 . S
C3526 H3503 0.950 . S
C3526 C3525 1.397 . S
C3526 C3527 1.334 . S
C3527 H3504 0.950 . S
C3527 C3526 1.334 . S
C3527 C3528 1.287 . S
C3528 C3527 1.287 . S
C3528 C3529 1.524 . S
C3528 H3547 0.913 . S
C3529 H3505 0.950 . S
C3529 C3528 1.524 . S
C3529 C3530 1.415 . S
C3530 H3506 0.950 . S
C3530 C3525 1.363 . S
C3530 C3529 1.415 . S
C3531 H3507 0.951 . S
C3531 C3532 1.366 . S
C3531 C3533 1.388 . S
C3532 C3531 1.366 . S
C3532 C3536 1.385 . S
C3533 H3508 0.951 . S
C3533 C3531 1.388 . S
C3533 C3534 1.366 . S
C3534 C3533 1.366 . S
C3534 C3535 1.414 . S
C3534 C3537 1.499 . S
C3535 H3509 0.950 . S
C3535 C3534 1.414 . S
C3535 C3536 1.374 . S
C3536 H3510 0.950 . S
C3536 C3532 1.385 . S
C3536 C3535 1.374 . S
C3537 C3534 1.499 . S
C3537 C3538 1.373 . S
C3537 C3539 1.389 . S
C3538 H3511 0.950 . S
C3538 C3524 1.377 . S
C3538 C3537 1.373 . S
C3539 C3523 1.377 . S
C3539 C3537 1.389 . S
C3539 C3540 1.524 . S
C3540 C3539 1.524 . S
C3540 C3541 1.397 . S
C3540 C3545 1.363 . S
C3541 H3512 0.950 . S
C3541 C3540 1.397 . S
C3541 C3542 1.334 . S
C3542 H3513 0.950 . S
C3542 C3541 1.334 . S
C3542 C3543 1.287 . S
C3543 C3542 1.287 . S
C3543 C3544 1.524 . S
C3543 H3546 0.999 . S
C3544 H3514 0.950 . S
C3544 C3543 1.524 . S
C3544 C3545 1.415 . S
C3545 H3515 0.950 . S
C3545 C3540 1.363 . S
C3545 C3544 1.415 . S
H3546 C3543 0.999 . S
H3547 C3528 0.913 . S
H3548 C3566 0.951 . S
H3549 C3568 0.951 . S
H3550 C3570 0.950 . S
H3551 C3571 0.950 . S
H3552 C3573 0.950 . S
H3553 C3576 0.950 . S
H3554 C3577 0.950 . S
H3555 C3579 0.950 . S
H3556 C3580 0.950 . S
H3557 C3581 0.951 . S
H3558 C3583 0.951 . S
H3559 C3585 0.950 . S
H3560 C3586 0.950 . S
H3561 C3588 0.950 . S
H3562 C3591 0.950 . S
H3563 C3592 0.950 . S
H3564 C3594 0.950 . S
H3565 C3595 0.950 . S
C3566 H3548 0.951 . S
C3566 C3567 1.366 . S
C3566 C3568 1.388 . S
C3567 C3566 1.366 . S
C3567 C3571 1.385 . S
C3568 H3549 0.951 . S
C3568 C3566 1.388 . S
C3568 C3569 1.366 . S
C3569 C3568 1.366 . S
C3569 C3570 1.414 . S
C3569 C3572 1.499 . S
C3570 H3550 0.950 . S
C3570 C3569 1.414 . S
C3570 C3571 1.374 . S
C3571 H3551 0.950 . S
C3571 C3567 1.385 . S
C3571 C3570 1.374 . S
C3572 C3569 1.499 . S
C3572 C3573 1.373 . S
C3572 C3574 1.389 . S
C3573 H3552 0.950 . S
C3573 C3572 1.373 . S
C3573 C3589 1.377 . S
C3574 C3572 1.389 . S
C3574 C3575 1.524 . S
C3574 C3588 1.377 . S
C3575 C3574 1.524 . S
C3575 C3576 1.397 . S
C3575 C3580 1.363 . S
C3576 H3553 0.950 . S
C3576 C3575 1.397 . S
C3576 C3577 1.334 . S
C3577 H3554 0.950 . S
C3577 C3576 1.334 . S
C3577 C3578 1.287 . S
C3578 C3577 1.287 . S
C3578 C3579 1.524 . S
C3578 H3597 0.913 . S
C3579 H3555 0.950 . S
C3579 C3578 1.524 . S
C3579 C3580 1.415 . S
C3580 H3556 0.950 . S
C3580 C3575 1.363 . S
C3580 C3579 1.415 . S
C3581 H3557 0.951 . S
C3581 C3582 1.366 . S
C3581 C3583 1.388 . S
C3582 C3581 1.366 . S
C3582 C3586 1.385 . S
C3583 H3558 0.951 . S
C3583 C3581 1.388 . S
C3583 C3584 1.366 . S
C3584 C3583 1.366 . S
C3584 C3585 1.414 . S
C3584 C3587 1.499 . S
C3585 H3559 0.950 . S
C3585 C3584 1.414 . S
C3585 C3586 1.374 . S
C3586 H3560 0.950 . S
C3586 C3582 1.385 . S
C3586 C3585 1.374 . S
C3587 C3584 1.499 . S
C3587 C3588 1.373 . S
C3587 C3589 1.389 . S
C3588 H3561 0.950 . S
C3588 C3574 1.377 . S
C3588 C3587 1.373 . S
C3589 C3573 1.377 . S
C3589 C3587 1.389 . S
C3589 C3590 1.524 . S
C3590 C3589 1.524 . S
C3590 C3591 1.397 . S
C3590 C3595 1.363 . S
C3591 H3562 0.950 . S
C3591 C3590 1.397 . S
C3591 C3592 1.334 . S
C3592 H3563 0.950 . S
C3592 C3591 1.334 . S
C3592 C3593 1.287 . S
C3593 C3592 1.287 . S
C3593 C3594 1.524 . S
C3593 H3596 0.999 . S
C3594 H3564 0.950 . S
C3594 C3593 1.524 . S
C3594 C3595 1.415 . S
C3595 H3565 0.950 . S
C3595 C3590 1.363 . S
C3595 C3594 1.415 . S
H3596 C3593 0.999 . S
H3597 C3578 0.913 . S
H3598 C3616 0.951 . S
H3599 C3618 0.951 . S
H3600 C3620 0.950 . S
H3601 C3621 0.950 . S
H3602 C3623 0.950 . S
H3603 C3626 0.950 . S
H3604 C3627 0.950 . S
H3605 C3629 0.950 . S
H3606 C3630 0.950 . S
H3607 C3631 0.951 . S
H3608 C3633 0.951 . S
H3609 C3635 0.950 . S
H3610 C3636 0.950 . S
H3611 C3638 0.950 . S
H3612 C3641 0.950 . S
H3613 C3642 0.950 . S
H3614 C3644 0.950 . S
H3615 C3645 0.950 . S
C3616 H3598 0.951 . S
C3616 C3617 1.366 . S
C3616 C3618 1.388 . S
C3617 C3616 1.366 . S
C3617 C3621 1.385 . S
C3618 H3599 0.951 . S
C3618 C3616 1.388 . S
C3618 C3619 1.366 . S
C3619 C3618 1.366 . S
C3619 C3620 1.414 . S
C3619 C3622 1.499 . S
C3620 H3600 0.950 . S
C3620 C3619 1.414 . S
C3620 C3621 1.374 . S
C3621 H3601 0.950 . S
C3621 C3617 1.385 . S
C3621 C3620 1.374 . S
C3622 C3619 1.499 . S
C3622 C3623 1.373 . S
C3622 C3624 1.389 . S
C3623 H3602 0.950 . S
C3623 C3622 1.373 . S
C3623 C3639 1.377 . S
C3624 C3622 1.389 . S
C3624 C3625 1.524 . S
C3624 C3638 1.377 . S
C3625 C3624 1.524 . S
C3625 C3626 1.397 . S
C3625 C3630 1.363 . S
C3626 H3603 0.950 . S
C3626 C3625 1.397 . S
C3626 C3627 1.334 . S
C3627 H3604 0.950 . S
C3627 C3626 1.334 . S
C3627 C3628 1.287 . S
C3628 C3627 1.287 . S
C3628 C3629 1.524 . S
C3628 H3647 0.913 . S
C3629 H3605 0.950 . S
C3629 C3628 1.524 . S
C3629 C3630 1.415 . S
C3630 H3606 0.950 . S
C3630 C3625 1.363 . S
C3630 C3629 1.415 . S
C3631 H3607 0.951 . S
C3631 C3632 1.366 . S
C3631 C3633 1.388 . S
C3632 C3631 1.366 . S
C3632 C3636 1.385 . S
C3633 H3608 0.951 . S
C3633 C3631 1.388 . S
C3633 C3634 1.366 . S
C3634 C3633 1.366 . S
C3634 C3635 1.414 . S
C3634 C3637 1.499 . S
C3635 H3609 0.950 . S
C3635 C3634 1.414 . S
C3635 C3636 1.374 . S
C3636 H3610 0.950 . S
C3636 C3632 1.385 . S
C3636 C3635 1.374 . S
C3637 C3634 1.499 . S
C3637 C3638 1.373 . S
C3637 C3639 1.389 . S
C3638 H3611 0.950 . S
C3638 C3624 1.377 . S
C3638 C3637 1.373 . S
C3639 C3623 1.377 . S
C3639 C3637 1.389 . S
C3639 C3640 1.524 . S
C3640 C3639 1.524 . S
C3640 C3641 1.397 . S
C3640 C3645 1.363 . S
C3641 H3612 0.950 . S
C3641 C3640 1.397 . S
C3641 C3642 1.334 . S
C3642 H3613 0.950 . S
C3642 C3641 1.334 . S
C3642 C3643 1.287 . S
C3643 C3642 1.287 . S
C3643 C3644 1.524 . S
C3643 H3646 0.999 . S
C3644 H3614 0.950 . S
C3644 C3643 1.524 . S
C3644 C3645 1.415 . S
C3645 H3615 0.950 . S
C3645 C3640 1.363 . S
C3645 C3644 1.415 . S
H3646 C3643 0.999 . S
H3647 C3628 0.913 . S
H3648 C3666 0.960 . S
H3649 C3668 0.951 . S
H3650 C3670 0.950 . S
H3651 C3671 0.950 . S
H3652 C3673 0.950 . S
H3653 C3676 0.967 . S
H3654 C3677 0.982 . S
H3655 C3679 0.950 . S
H3656 C3680 0.950 . S
H3657 C3681 0.951 . S
H3658 C3683 0.951 . S
H3659 C3685 0.950 . S
H3660 C3686 0.950 . S
H3661 C3688 0.950 . S
H3662 C3691 0.950 . S
H3663 C3692 0.950 . S
H3664 C3694 0.950 . S
H3665 C3695 0.950 . S
C3666 H3648 0.960 . S
C3666 C3667 1.347 1_655 S
C3666 C3668 1.398 . S
C3667 C3666 1.347 1_455 S
C3667 C3671 1.385 . S
C3668 H3649 0.951 . S
C3668 C3666 1.398 . S
C3668 C3669 1.366 1_655 S
C3669 C3668 1.366 1_455 S
C3669 C3670 1.414 . S
C3669 C3672 1.499 . S
C3670 H3650 0.950 . S
C3670 C3669 1.414 . S
C3670 C3671 1.374 . S
C3671 H3651 0.950 . S
C3671 C3667 1.385 . S
C3671 C3670 1.374 . S
C3672 C3669 1.499 . S
C3672 C3673 1.373 . S
C3672 C3674 1.407 . S
C3673 H3652 0.950 . S
C3673 C3672 1.373 . S
C3673 C3689 1.377 . S
C3674 C3672 1.407 . S
C3674 C3675 1.523 1_455 S
C3674 C3688 1.361 1_455 S
C3675 C3674 1.523 1_655 S
C3675 C3676 1.379 1_655 S
C3675 C3680 1.363 . S
C3676 H3653 0.967 . S
C3676 C3675 1.379 1_455 S
C3676 C3677 1.335 1_455 S
C3677 H3654 0.982 . S
C3677 C3676 1.335 1_655 S
C3677 C3678 1.287 . S
C3678 C3677 1.287 . S
C3678 C3679 1.524 . S
C3678 H3697 0.913 . S
C3679 H3655 0.950 . S
C3679 C3678 1.524 . S
C3679 C3680 1.415 . S
C3680 H3656 0.950 . S
C3680 C3675 1.363 . S
C3680 C3679 1.415 . S
C3681 H3657 0.951 . S
C3681 C3682 1.366 . S
C3681 C3683 1.388 . S
C3682 C3681 1.366 . S
C3682 C3686 1.385 1_455 S
C3683 H3658 0.951 . S
C3683 C3681 1.388 . S
C3683 C3684 1.366 . S
C3684 C3683 1.366 . S
C3684 C3685 1.414 1_455 S
C3684 C3687 1.499 . S
C3685 H3659 0.950 . S
C3685 C3684 1.414 1_655 S
C3685 C3686 1.374 . S
C3686 H3660 0.950 . S
C3686 C3682 1.385 1_655 S
C3686 C3685 1.374 . S
C3687 C3684 1.499 . S
C3687 C3688 1.373 1_455 S
C3687 C3689 1.389 . S
C3688 H3661 0.950 . S
C3688 C3674 1.361 1_655 S
C3688 C3687 1.373 1_655 S
C3689 C3673 1.377 . S
C3689 C3687 1.389 . S
C3689 C3690 1.524 . S
C3690 C3689 1.524 . S
C3690 C3691 1.397 . S
C3690 C3695 1.363 . S
C3691 H3662 0.950 . S
C3691 C3690 1.397 . S
C3691 C3692 1.334 . S
C3692 H3663 0.950 . S
C3692 C3691 1.334 . S
C3692 C3693 1.287 . S
C3693 C3692 1.287 . S
C3693 C3694 1.524 . S
C3693 H3696 0.999 . S
C3694 H3664 0.950 . S
C3694 C3693 1.524 . S
C3694 C3695 1.415 . S
C3695 H3665 0.950 . S
C3695 C3690 1.363 . S
C3695 C3694 1.415 . S
H3696 C3693 0.999 . S
H3697 C3678 0.913 . S
H3698 C3716 0.951 . S
H3699 C3718 0.951 . S
H3700 C3720 0.950 . S
H3701 C3721 0.950 . S
H3702 C3723 0.950 . S
H3703 C3726 0.950 . S
H3704 C3727 0.950 . S
H3705 C3729 0.950 . S
H3706 C3730 0.950 . S
H3707 C3731 0.951 . S
H3708 C3733 0.951 . S
H3709 C3735 0.950 . S
H3710 C3736 0.950 . S
H3711 C3738 0.950 . S
H3712 C3741 0.950 . S
H3713 C3742 0.950 . S
H3714 C3744 0.950 . S
H3715 C3745 0.950 . S
C3716 H3698 0.951 . S
C3716 C3717 1.366 . S
C3716 C3718 1.388 . S
C3717 C3716 1.366 . S
C3717 C3721 1.385 . S
C3718 H3699 0.951 . S
C3718 C3716 1.388 . S
C3718 C3719 1.366 . S
C3719 C3718 1.366 . S
C3719 C3720 1.414 . S
C3719 C3722 1.499 . S
C3720 H3700 0.950 . S
C3720 C3719 1.414 . S
C3720 C3721 1.374 . S
C3721 H3701 0.950 . S
C3721 C3717 1.385 . S
C3721 C3720 1.374 . S
C3722 C3719 1.499 . S
C3722 C3723 1.373 . S
C3722 C3724 1.389 . S
C3723 H3702 0.950 . S
C3723 C3722 1.373 . S
C3723 C3739 1.377 . S
C3724 C3722 1.389 . S
C3724 C3725 1.524 . S
C3724 C3738 1.377 . S
C3725 C3724 1.524 . S
C3725 C3726 1.397 . S
C3725 C3730 1.363 . S
C3726 H3703 0.950 . S
C3726 C3725 1.397 . S
C3726 C3727 1.334 . S
C3727 H3704 0.950 . S
C3727 C3726 1.334 . S
C3727 C3728 1.287 . S
C3728 C3727 1.287 . S
C3728 C3729 1.524 . S
C3728 H3747 0.913 . S
C3729 H3705 0.950 . S
C3729 C3728 1.524 . S
C3729 C3730 1.415 . S
C3730 H3706 0.950 . S
C3730 C3725 1.363 . S
C3730 C3729 1.415 . S
C3731 H3707 0.951 . S
C3731 C3732 1.366 . S
C3731 C3733 1.388 . S
C3732 C3731 1.366 . S
C3732 C3736 1.385 . S
C3733 H3708 0.951 . S
C3733 C3731 1.388 . S
C3733 C3734 1.366 . S
C3734 C3733 1.366 . S
C3734 C3735 1.414 . S
C3734 C3737 1.499 . S
C3735 H3709 0.950 . S
C3735 C3734 1.414 . S
C3735 C3736 1.374 . S
C3736 H3710 0.950 . S
C3736 C3732 1.385 . S
C3736 C3735 1.374 . S
C3737 C3734 1.499 . S
C3737 C3738 1.373 . S
C3737 C3739 1.389 . S
C3738 H3711 0.950 . S
C3738 C3724 1.377 . S
C3738 C3737 1.373 . S
C3739 C3723 1.377 . S
C3739 C3737 1.389 . S
C3739 C3740 1.524 . S
C3740 C3739 1.524 . S
C3740 C3741 1.397 . S
C3740 C3745 1.363 . S
C3741 H3712 0.950 . S
C3741 C3740 1.397 . S
C3741 C3742 1.334 . S
C3742 H3713 0.950 . S
C3742 C3741 1.334 . S
C3742 C3743 1.287 . S
C3743 C3742 1.287 . S
C3743 C3744 1.524 . S
C3743 H3746 0.999 . S
C3744 H3714 0.950 . S
C3744 C3743 1.524 . S
C3744 C3745 1.415 . S
C3745 H3715 0.950 . S
C3745 C3740 1.363 . S
C3745 C3744 1.415 . S
H3746 C3743 0.999 . S
H3747 C3728 0.913 . S
H3748 C3766 0.951 . S
H3749 C3768 0.951 . S
H3750 C3770 0.950 . S
H3751 C3771 0.950 . S
H3752 C3773 0.950 . S
H3753 C3776 0.950 . S
H3754 C3777 0.950 . S
H3755 C3779 0.950 . S
H3756 C3780 0.950 1_565 S
H3757 C3781 0.982 . S
H3758 C3783 0.921 1_545 S
H3759 C3785 0.950 . S
H3760 C3786 0.950 . S
H3761 C3788 0.950 1_545 S
H3762 C3791 0.950 . S
H3763 C3792 0.950 . S
H3764 C3794 0.950 . S
H3765 C3795 0.950 . S
C3766 H3748 0.951 . S
C3766 C3767 1.366 . S
C3766 C3768 1.388 . S
C3767 C3766 1.366 . S
C3767 C3771 1.385 . S
C3768 H3749 0.951 . S
C3768 C3766 1.388 . S
C3768 C3769 1.366 . S
C3769 C3768 1.366 . S
C3769 C3770 1.414 . S
C3769 C3772 1.499 . S
C3770 H3750 0.950 . S
C3770 C3769 1.414 . S
C3770 C3771 1.374 . S
C3771 H3751 0.950 . S
C3771 C3767 1.385 . S
C3771 C3770 1.374 . S
C3772 C3769 1.499 . S
C3772 C3773 1.373 . S
C3772 C3774 1.389 . S
C3773 H3752 0.950 . S
C3773 C3772 1.373 . S
C3773 C3789 1.377 . S
C3774 C3772 1.389 . S
C3774 C3775 1.524 1_565 S
C3774 C3788 1.377 . S
C3775 C3774 1.524 1_545 S
C3775 C3776 1.397 . S
C3775 C3780 1.363 . S
C3776 H3753 0.950 . S
C3776 C3775 1.397 . S
C3776 C3777 1.334 . S
C3777 H3754 0.950 . S
C3777 C3776 1.334 . S
C3777 C3778 1.287 . S
C3778 C3777 1.287 . S
C3778 C3779 1.524 . S
C3778 H3797 0.913 . S
C3779 H3755 0.950 . S
C3779 C3778 1.524 . S
C3779 C3780 1.415 . S
C3780 H3756 0.950 1_545 S
C3780 C3775 1.363 . S
C3780 C3779 1.415 . S
C3781 H3757 0.982 . S
C3781 C3782 1.310 1_545 S
C3781 C3783 1.440 1_545 S
C3782 C3781 1.310 1_565 S
C3782 C3786 1.385 . S
C3783 H3758 0.921 1_565 S
C3783 C3781 1.440 1_565 S
C3783 C3784 1.380 . S
C3784 C3783 1.380 . S
C3784 C3785 1.414 . S
C3784 C3787 1.499 . S
C3785 H3759 0.950 . S
C3785 C3784 1.414 . S
C3785 C3786 1.374 . S
C3786 H3760 0.950 . S
C3786 C3782 1.385 . S
C3786 C3785 1.374 . S
C3787 C3784 1.499 . S
C3787 C3788 1.373 . S
C3787 C3789 1.389 . S
C3788 H3761 0.950 1_565 S
C3788 C3774 1.377 . S
C3788 C3787 1.373 . S
C3789 C3773 1.377 . S
C3789 C3787 1.389 . S
C3789 C3790 1.524 . S
C3790 C3789 1.524 . S
C3790 C3791 1.397 . S
C3790 C3795 1.363 . S
C3791 H3762 0.950 . S
C3791 C3790 1.397 . S
C3791 C3792 1.334 . S
C3792 H3763 0.950 . S
C3792 C3791 1.334 . S
C3792 C3793 1.287 . S
C3793 C3792 1.287 . S
C3793 C3794 1.524 . S
C3793 H3796 0.999 . S
C3794 H3764 0.950 . S
C3794 C3793 1.524 . S
C3794 C3795 1.415 . S
C3795 H3765 0.950 . S
C3795 C3790 1.363 . S
C3795 C3794 1.415 . S
H3796 C3793 0.999 . S
H3797 C3778 0.913 . S
H3798 C3816 0.951 1_545 S
H3799 C3818 0.951 1_545 S
H3800 C3820 0.950 . S
H3801 C3821 0.950 . S
H3802 C3823 0.950 . S
H3803 C3826 0.950 . S
H3804 C3827 0.950 . S
H3805 C3829 0.950 1_545 S
H3806 C3830 0.964 . S
H3807 C3831 0.951 . S
H3808 C3833 0.951 . S
H3809 C3835 0.950 . S
H3810 C3836 0.950 . S
H3811 C3838 0.950 . S
H3812 C3841 0.950 . S
H3813 C3842 0.950 . S
H3814 C3844 0.950 . S
H3815 C3845 0.950 . S
C3816 H3798 0.951 1_565 S
C3816 C3817 1.366 . S
C3816 C3818 1.388 . S
C3817 C3816 1.366 . S
C3817 C3821 1.385 . S
C3818 H3799 0.951 1_565 S
C3818 C3816 1.388 . S
C3818 C3819 1.366 . S
C3819 C3818 1.366 . S
C3819 C3820 1.414 . S
C3819 C3822 1.499 . S
C3820 H3800 0.950 . S
C3820 C3819 1.414 . S
C3820 C3821 1.374 . S
C3821 H3801 0.950 . S
C3821 C3817 1.385 . S
C3821 C3820 1.374 . S
C3822 C3819 1.499 . S
C3822 C3823 1.373 . S
C3822 C3824 1.389 . S
C3823 H3802 0.950 . S
C3823 C3822 1.373 . S
C3823 C3839 1.377 . S
C3824 C3822 1.389 . S
C3824 C3825 1.524 . S
C3824 C3838 1.377 . S
C3825 C3824 1.524 . S
C3825 C3826 1.397 . S
C3825 C3830 1.349 1_565 S
C3826 H3803 0.950 . S
C3826 C3825 1.397 . S
C3826 C3827 1.334 . S
C3827 H3804 0.950 . S
C3827 C3826 1.334 . S
C3827 C3828 1.287 . S
C3828 C3827 1.287 . S
C3828 C3829 1.524 . S
C3828 H3847 0.913 . S
C3829 H3805 0.950 1_565 S
C3829 C3828 1.524 . S
C3829 C3830 1.414 1_565 S
C3830 H3806 0.964 . S
C3830 C3825 1.349 1_545 S
C3830 C3829 1.414 1_545 S
C3831 H3807 0.951 . S
C3831 C3832 1.366 . S
C3831 C3833 1.388 . S
C3832 C3831 1.366 . S
C3832 C3836 1.385 1_565 S
C3833 H3808 0.951 . S
C3833 C3831 1.388 . S
C3833 C3834 1.366 . S
C3834 C3833 1.366 . S
C3834 C3835 1.414 1_565 S
C3834 C3837 1.499 . S
C3835 H3809 0.950 . S
C3835 C3834 1.414 1_545 S
C3835 C3836 1.374 . S
C3836 H3810 0.950 . S
C3836 C3832 1.385 1_545 S
C3836 C3835 1.374 . S
C3837 C3834 1.499 . S
C3837 C3838 1.373 . S
C3837 C3839 1.389 . S
C3838 H3811 0.950 . S
C3838 C3824 1.377 . S
C3838 C3837 1.373 . S
C3839 C3823 1.377 . S
C3839 C3837 1.389 . S
C3839 C3840 1.524 . S
C3840 C3839 1.524 . S
C3840 C3841 1.397 1_565 S
C3840 C3845 1.363 . S
C3841 H3812 0.950 . S
C3841 C3840 1.397 1_545 S
C3841 C3842 1.334 . S
C3842 H3813 0.950 . S
C3842 C3841 1.334 . S
C3842 C3843 1.281 1_545 S
C3843 C3842 1.281 1_565 S
C3843 C3844 1.531 . S
C3843 H3846 1.000 1_565 S
C3844 H3814 0.950 . S
C3844 C3843 1.531 . S
C3844 C3845 1.415 . S
C3845 H3815 0.950 . S
C3845 C3840 1.363 . S
C3845 C3844 1.415 . S
H3846 C3843 1.000 1_545 S
H3847 C3828 0.913 . S
H3848 C3866 0.950 1_655 S
H3849 C3868 0.996 . S
H3850 C3870 0.950 . S
H3851 C3871 0.950 . S
H3852 C3873 0.950 . S
H3853 C3876 0.950 . S
H3854 C3877 0.950 . S
H3855 C3879 0.950 . S
H3856 C3880 0.950 . S
H3857 C3881 0.951 . S
H3858 C3883 0.951 . S
H3859 C3885 0.950 . S
H3860 C3886 0.950 . S
H3861 C3888 0.950 1_655 S
H3862 C3891 0.950 1_655 S
H3863 C3892 0.917 1_655 S
H3864 C3894 0.950 . S
H3865 C3895 0.950 . S
C3866 H3848 0.950 1_455 S
C3866 C3867 1.366 . S
C3866 C3868 1.424 1_455 S
C3867 C3866 1.366 . S
C3867 C3871 1.385 . S
C3868 H3849 0.996 . S
C3868 C3866 1.424 1_655 S
C3868 C3869 1.291 1_655 S
C3869 C3868 1.291 1_455 S
C3869 C3870 1.414 . S
C3869 C3872 1.499 . S
C3870 H3850 0.950 . S
C3870 C3869 1.414 . S
C3870 C3871 1.374 . S
C3871 H3851 0.950 . S
C3871 C3867 1.385 . S
C3871 C3870 1.374 . S
C3872 C3869 1.499 . S
C3872 C3873 1.373 . S
C3872 C3874 1.389 . S
C3873 H3852 0.950 . S
C3873 C3872 1.373 . S
C3873 C3889 1.377 . S
C3874 C3872 1.389 . S
C3874 C3875 1.528 . S
C3874 C3888 1.377 . S
C3875 C3874 1.528 . S
C3875 C3876 1.408 . S
C3875 C3880 1.350 1_455 S
C3876 H3853 0.950 . S
C3876 C3875 1.408 . S
C3876 C3877 1.334 . S
C3877 H3854 0.950 . S
C3877 C3876 1.334 . S
C3877 C3878 1.287 1_455 S
C3878 C3877 1.287 1_655 S
C3878 C3879 1.524 . S
C3878 H3897 0.913 . S
C3879 H3855 0.950 . S
C3879 C3878 1.524 . S
C3879 C3880 1.415 . S
C3880 H3856 0.950 . S
C3880 C3875 1.350 1_655 S
C3880 C3879 1.415 . S
C3881 H3857 0.951 . S
C3881 C3882 1.366 . S
C3881 C3883 1.388 . S
C3882 C3881 1.366 . S
C3882 C3886 1.385 1_455 S
C3883 H3858 0.951 . S
C3883 C3881 1.388 . S
C3883 C3884 1.366 . S
C3884 C3883 1.366 . S
C3884 C3885 1.414 1_455 S
C3884 C3887 1.499 . S
C3885 H3859 0.950 . S
C3885 C3884 1.414 1_655 S
C3885 C3886 1.374 . S
C3886 H3860 0.950 . S
C3886 C3882 1.385 1_655 S
C3886 C3885 1.374 . S
C3887 C3884 1.499 . S
C3887 C3888 1.373 . S
C3887 C3889 1.389 . S
C3888 H3861 0.950 1_455 S
C3888 C3874 1.377 . S
C3888 C3887 1.373 . S
C3889 C3873 1.377 . S
C3889 C3887 1.389 . S
C3889 C3890 1.524 . S
C3890 C3889 1.524 . S
C3890 C3891 1.397 . S
C3890 C3895 1.363 . S
C3891 H3862 0.950 1_455 S
C3891 C3890 1.397 . S
C3891 C3892 1.334 . S
C3892 H3863 0.917 1_455 S
C3892 C3891 1.334 . S
C3892 C3893 1.287 . S
C3893 C3892 1.287 . S
C3893 C3894 1.524 . S
C3893 H3896 0.999 . S
C3894 H3864 0.950 . S
C3894 C3893 1.524 . S
C3894 C3895 1.415 . S
C3895 H3865 0.950 . S
C3895 C3890 1.363 . S
C3895 C3894 1.415 . S
H3896 C3893 0.999 . S
H3897 C3878 0.913 . S
H3898 C3916 0.951 . S
H3899 C3918 0.951 . S
H3900 C3920 0.950 . S
H3901 C3921 0.950 . S
H3902 C3923 0.950 . S
H3903 C3926 0.950 . S
H3904 C3927 0.950 . S
H3905 C3929 0.950 . S
H3906 C3930 0.950 . S
H3907 C3931 0.951 . S
H3908 C3933 0.951 . S
H3909 C3935 0.950 . S
H3910 C3936 0.950 . S
H3911 C3938 0.950 . S
H3912 C3941 0.950 . S
H3913 C3942 0.950 . S
H3914 C3944 0.950 . S
H3915 C3945 0.950 . S
C3916 H3898 0.951 . S
C3916 C3917 1.366 . S
C3916 C3918 1.388 . S
C3917 C3916 1.366 . S
C3917 C3921 1.385 . S
C3918 H3899 0.951 . S
C3918 C3916 1.388 . S
C3918 C3919 1.366 . S
C3919 C3918 1.366 . S
C3919 C3920 1.414 . S
C3919 C3922 1.499 . S
C3920 H3900 0.950 . S
C3920 C3919 1.414 . S
C3920 C3921 1.374 . S
C3921 H3901 0.950 . S
C3921 C3917 1.385 . S
C3921 C3920 1.374 . S
C3922 C3919 1.499 . S
C3922 C3923 1.373 . S
C3922 C3924 1.389 . S
C3923 H3902 0.950 . S
C3923 C3922 1.373 . S
C3923 C3939 1.377 . S
C3924 C3922 1.389 . S
C3924 C3925 1.524 . S
C3924 C3938 1.377 . S
C3925 C3924 1.524 . S
C3925 C3926 1.397 . S
C3925 C3930 1.363 . S
C3926 H3903 0.950 . S
C3926 C3925 1.397 . S
C3926 C3927 1.334 . S
C3927 H3904 0.950 . S
C3927 C3926 1.334 . S
C3927 C3928 1.287 . S
C3928 C3927 1.287 . S
C3928 C3929 1.524 . S
C3928 H3947 0.913 . S
C3929 H3905 0.950 . S
C3929 C3928 1.524 . S
C3929 C3930 1.415 . S
C3930 H3906 0.950 . S
C3930 C3925 1.363 . S
C3930 C3929 1.415 . S
C3931 H3907 0.951 . S
C3931 C3932 1.366 . S
C3931 C3933 1.388 . S
C3932 C3931 1.366 . S
C3932 C3936 1.385 . S
C3933 H3908 0.951 . S
C3933 C3931 1.388 . S
C3933 C3934 1.366 . S
C3934 C3933 1.366 . S
C3934 C3935 1.414 . S
C3934 C3937 1.499 . S
C3935 H3909 0.950 . S
C3935 C3934 1.414 . S
C3935 C3936 1.374 . S
C3936 H3910 0.950 . S
C3936 C3932 1.385 . S
C3936 C3935 1.374 . S
C3937 C3934 1.499 . S
C3937 C3938 1.373 . S
C3937 C3939 1.389 . S
C3938 H3911 0.950 . S
C3938 C3924 1.377 . S
C3938 C3937 1.373 . S
C3939 C3923 1.377 . S
C3939 C3937 1.389 . S
C3939 C3940 1.524 . S
C3940 C3939 1.524 . S
C3940 C3941 1.397 . S
C3940 C3945 1.363 . S
C3941 H3912 0.950 . S
C3941 C3940 1.397 . S
C3941 C3942 1.334 . S
C3942 H3913 0.950 . S
C3942 C3941 1.334 . S
C3942 C3943 1.287 . S
C3943 C3942 1.287 . S
C3943 C3944 1.524 . S
C3943 H3946 0.999 . S
C3944 H3914 0.950 . S
C3944 C3943 1.524 . S
C3944 C3945 1.415 . S
C3945 H3915 0.950 . S
C3945 C3940 1.363 . S
C3945 C3944 1.415 . S
H3946 C3943 0.999 . S
H3947 C3928 0.913 . S
H3948 C3966 0.951 . S
H3949 C3968 0.951 . S
H3950 C3970 0.950 . S
H3951 C3971 0.950 . S
H3952 C3973 0.950 . S
H3953 C3976 0.950 . S
H3954 C3977 0.950 . S
H3955 C3979 0.950 . S
H3956 C3980 0.950 . S
H3957 C3981 0.951 . S
H3958 C3983 0.951 . S
H3959 C3985 0.950 . S
H3960 C3986 0.950 . S
H3961 C3988 0.950 . S
H3962 C3991 0.950 . S
H3963 C3992 0.950 . S
H3964 C3994 0.950 . S
H3965 C3995 0.950 . S
C3966 H3948 0.951 . S
C3966 C3967 1.366 . S
C3966 C3968 1.388 . S
C3967 C3966 1.366 . S
C3967 C3971 1.385 . S
C3968 H3949 0.951 . S
C3968 C3966 1.388 . S
C3968 C3969 1.366 . S
C3969 C3968 1.366 . S
C3969 C3970 1.414 . S
C3969 C3972 1.499 . S
C3970 H3950 0.950 . S
C3970 C3969 1.414 . S
C3970 C3971 1.374 . S
C3971 H3951 0.950 . S
C3971 C3967 1.385 . S
C3971 C3970 1.374 . S
C3972 C3969 1.499 . S
C3972 C3973 1.373 . S
C3972 C3974 1.389 . S
C3973 H3952 0.950 . S
C3973 C3972 1.373 . S
C3973 C3989 1.377 . S
C3974 C3972 1.389 . S
C3974 C3975 1.524 . S
C3974 C3988 1.377 . S
C3975 C3974 1.524 . S
C3975 C3976 1.397 . S
C3975 C3980 1.363 . S
C3976 H3953 0.950 . S
C3976 C3975 1.397 . S
C3976 C3977 1.334 . S
C3977 H3954 0.950 . S
C3977 C3976 1.334 . S
C3977 C3978 1.287 . S
C3978 C3977 1.287 . S
C3978 C3979 1.524 . S
C3978 H3997 0.913 . S
C3979 H3955 0.950 . S
C3979 C3978 1.524 . S
C3979 C3980 1.415 . S
C3980 H3956 0.950 . S
C3980 C3975 1.363 . S
C3980 C3979 1.415 . S
C3981 H3957 0.951 . S
C3981 C3982 1.366 . S
C3981 C3983 1.388 . S
C3982 C3981 1.366 . S
C3982 C3986 1.385 . S
C3983 H3958 0.951 . S
C3983 C3981 1.388 . S
C3983 C3984 1.366 . S
C3984 C3983 1.366 . S
C3984 C3985 1.414 . S
C3984 C3987 1.499 . S
C3985 H3959 0.950 . S
C3985 C3984 1.414 . S
C3985 C3986 1.374 . S
C3986 H3960 0.950 . S
C3986 C3982 1.385 . S
C3986 C3985 1.374 . S
C3987 C3984 1.499 . S
C3987 C3988 1.373 . S
C3987 C3989 1.389 . S
C3988 H3961 0.950 . S
C3988 C3974 1.377 . S
C3988 C3987 1.373 . S
C3989 C3973 1.377 . S
C3989 C3987 1.389 . S
C3989 C3990 1.524 . S
C3990 C3989 1.524 . S
C3990 C3991 1.397 . S
C3990 C3995 1.363 . S
C3991 H3962 0.950 . S
C3991 C3990 1.397 . S
C3991 C3992 1.334 . S
C3992 H3963 0.950 . S
C3992 C3991 1.334 . S
C3992 C3993 1.287 . S
C3993 C3992 1.287 . S
C3993 C3994 1.524 . S
C3993 H3996 0.999 . S
C3994 H3964 0.950 . S
C3994 C3993 1.524 . S
C3994 C3995 1.415 . S
C3995 H3965 0.950 . S
C3995 C3990 1.363 . S
C3995 C3994 1.415 . S
H3996 C3993 0.999 . S
H3997 C3978 0.913 . S
H3998 C4016 0.951 . S
H3999 C4018 0.951 . S
H4000 C4020 0.950 . S
H4001 C4021 0.950 . S
H4002 C4023 0.950 . S
H4003 C4026 0.950 . S
H4004 C4027 0.950 . S
H4005 C4029 0.950 . S
H4006 C4030 0.950 . S
H4007 C4031 0.951 . S
H4008 C4033 0.951 . S
H4009 C4035 0.950 . S
H4010 C4036 0.950 . S
H4011 C4038 0.950 . S
H4012 C4041 0.950 . S
H4013 C4042 0.950 . S
H4014 C4044 0.950 . S
H4015 C4045 0.950 . S
C4016 H3998 0.951 . S
C4016 C4017 1.366 . S
C4016 C4018 1.388 . S
C4017 C4016 1.366 . S
C4017 C4021 1.385 . S
C4018 H3999 0.951 . S
C4018 C4016 1.388 . S
C4018 C4019 1.366 . S
C4019 C4018 1.366 . S
C4019 C4020 1.414 . S
C4019 C4022 1.499 . S
C4020 H4000 0.950 . S
C4020 C4019 1.414 . S
C4020 C4021 1.374 . S
C4021 H4001 0.950 . S
C4021 C4017 1.385 . S
C4021 C4020 1.374 . S
C4022 C4019 1.499 . S
C4022 C4023 1.373 . S
C4022 C4024 1.389 . S
C4023 H4002 0.950 . S
C4023 C4022 1.373 . S
C4023 C4039 1.377 . S
C4024 C4022 1.389 . S
C4024 C4025 1.524 . S
C4024 C4038 1.377 . S
C4025 C4024 1.524 . S
C4025 C4026 1.397 . S
C4025 C4030 1.363 . S
C4026 H4003 0.950 . S
C4026 C4025 1.397 . S
C4026 C4027 1.334 . S
C4027 H4004 0.950 . S
C4027 C4026 1.334 . S
C4027 C4028 1.287 . S
C4028 C4027 1.287 . S
C4028 C4029 1.524 . S
C4028 H4047 0.913 . S
C4029 H4005 0.950 . S
C4029 C4028 1.524 . S
C4029 C4030 1.415 . S
C4030 H4006 0.950 . S
C4030 C4025 1.363 . S
C4030 C4029 1.415 . S
C4031 H4007 0.951 . S
C4031 C4032 1.366 . S
C4031 C4033 1.388 . S
C4032 C4031 1.366 . S
C4032 C4036 1.385 . S
C4033 H4008 0.951 . S
C4033 C4031 1.388 . S
C4033 C4034 1.366 . S
C4034 C4033 1.366 . S
C4034 C4035 1.414 . S
C4034 C4037 1.499 . S
C4035 H4009 0.950 . S
C4035 C4034 1.414 . S
C4035 C4036 1.374 . S
C4036 H4010 0.950 . S
C4036 C4032 1.385 . S
C4036 C4035 1.374 . S
C4037 C4034 1.499 . S
C4037 C4038 1.373 . S
C4037 C4039 1.389 . S
C4038 H4011 0.950 . S
C4038 C4024 1.377 . S
C4038 C4037 1.373 . S
C4039 C4023 1.377 . S
C4039 C4037 1.389 . S
C4039 C4040 1.524 . S
C4040 C4039 1.524 . S
C4040 C4041 1.397 . S
C4040 C4045 1.363 . S
C4041 H4012 0.950 . S
C4041 C4040 1.397 . S
C4041 C4042 1.334 . S
C4042 H4013 0.950 . S
C4042 C4041 1.334 . S
C4042 C4043 1.287 . S
C4043 C4042 1.287 . S
C4043 C4044 1.524 . S
C4043 H4046 0.999 . S
C4044 H4014 0.950 . S
C4044 C4043 1.524 . S
C4044 C4045 1.415 . S
C4045 H4015 0.950 . S
C4045 C4040 1.363 . S
C4045 C4044 1.415 . S
H4046 C4043 0.999 . S
H4047 C4028 0.913 . S
H4048 C4066 0.951 . S
H4049 C4068 0.951 . S
H4050 C4070 0.950 . S
H4051 C4071 0.950 . S
H4052 C4073 0.950 . S
H4053 C4076 0.950 . S
H4054 C4077 0.950 . S
H4055 C4079 0.950 . S
H4056 C4080 0.950 . S
H4057 C4081 0.951 . S
H4058 C4083 0.951 . S
H4059 C4085 0.950 . S
H4060 C4086 0.950 . S
H4061 C4088 0.950 . S
H4062 C4091 0.950 . S
H4063 C4092 0.950 . S
H4064 C4094 0.950 . S
H4065 C4095 0.950 . S
C4066 H4048 0.951 . S
C4066 C4067 1.366 . S
C4066 C4068 1.388 . S
C4067 C4066 1.366 . S
C4067 C4071 1.385 . S
C4068 H4049 0.951 . S
C4068 C4066 1.388 . S
C4068 C4069 1.366 . S
C4069 C4068 1.366 . S
C4069 C4070 1.414 . S
C4069 C4072 1.499 . S
C4070 H4050 0.950 . S
C4070 C4069 1.414 . S
C4070 C4071 1.374 . S
C4071 H4051 0.950 . S
C4071 C4067 1.385 . S
C4071 C4070 1.374 . S
C4072 C4069 1.499 . S
C4072 C4073 1.373 . S
C4072 C4074 1.389 . S
C4073 H4052 0.950 . S
C4073 C4072 1.373 . S
C4073 C4089 1.377 . S
C4074 C4072 1.389 . S
C4074 C4075 1.524 . S
C4074 C4088 1.377 . S
C4075 C4074 1.524 . S
C4075 C4076 1.397 . S
C4075 C4080 1.363 . S
C4076 H4053 0.950 . S
C4076 C4075 1.397 . S
C4076 C4077 1.334 . S
C4077 H4054 0.950 . S
C4077 C4076 1.334 . S
C4077 C4078 1.287 . S
C4078 C4077 1.287 . S
C4078 C4079 1.524 . S
C4078 H4097 0.913 . S
C4079 H4055 0.950 . S
C4079 C4078 1.524 . S
C4079 C4080 1.415 . S
C4080 H4056 0.950 . S
C4080 C4075 1.363 . S
C4080 C4079 1.415 . S
C4081 H4057 0.951 . S
C4081 C4082 1.366 . S
C4081 C4083 1.388 . S
C4082 C4081 1.366 . S
C4082 C4086 1.385 . S
C4083 H4058 0.951 . S
C4083 C4081 1.388 . S
C4083 C4084 1.366 . S
C4084 C4083 1.366 . S
C4084 C4085 1.414 . S
C4084 C4087 1.499 . S
C4085 H4059 0.950 . S
C4085 C4084 1.414 . S
C4085 C4086 1.374 . S
C4086 H4060 0.950 . S
C4086 C4082 1.385 . S
C4086 C4085 1.374 . S
C4087 C4084 1.499 . S
C4087 C4088 1.373 . S
C4087 C4089 1.389 . S
C4088 H4061 0.950 . S
C4088 C4074 1.377 . S
C4088 C4087 1.373 . S
C4089 C4073 1.377 . S
C4089 C4087 1.389 . S
C4089 C4090 1.524 . S
C4090 C4089 1.524 . S
C4090 C4091 1.397 . S
C4090 C4095 1.363 . S
C4091 H4062 0.950 . S
C4091 C4090 1.397 . S
C4091 C4092 1.334 . S
C4092 H4063 0.950 . S
C4092 C4091 1.334 . S
C4092 C4093 1.287 . S
C4093 C4092 1.287 . S
C4093 C4094 1.524 . S
C4093 H4096 0.999 . S
C4094 H4064 0.950 . S
C4094 C4093 1.524 . S
C4094 C4095 1.415 . S
C4095 H4065 0.950 . S
C4095 C4090 1.363 . S
C4095 C4094 1.415 . S
H4096 C4093 0.999 . S
H4097 C4078 0.913 . S
H4098 C4116 0.951 . S
H4099 C4118 0.951 . S
H4100 C4120 0.950 . S
H4101 C4121 0.950 . S
H4102 C4123 0.944 1_565 S
H4103 C4126 0.950 . S
H4104 C4127 0.950 . S
H4105 C4129 0.950 . S
H4106 C4130 0.950 . S
H4107 C4131 0.951 . S
H4108 C4133 0.951 . S
H4109 C4135 0.950 . S
H4110 C4136 0.950 . S
H4111 C4138 0.950 . S
H4112 C4141 0.950 . S
H4113 C4142 0.950 . S
H4114 C4144 0.950 . S
H4115 C4145 0.950 . S
C4116 H4098 0.951 . S
C4116 C4117 1.366 . S
C4116 C4118 1.388 . S
C4117 C4116 1.366 . S
C4117 C4121 1.385 . S
C4118 H4099 0.951 . S
C4118 C4116 1.388 . S
C4118 C4119 1.366 . S
C4119 C4118 1.366 . S
C4119 C4120 1.414 . S
C4119 C4122 1.499 . S
C4120 H4100 0.950 . S
C4120 C4119 1.414 . S
C4120 C4121 1.374 . S
C4121 H4101 0.950 . S
C4121 C4117 1.385 . S
C4121 C4120 1.374 . S
C4122 C4119 1.499 . S
C4122 C4123 1.390 . S
C4122 C4124 1.389 . S
C4123 H4102 0.944 1_545 S
C4123 C4122 1.390 . S
C4123 C4139 1.366 1_545 S
C4124 C4122 1.389 . S
C4124 C4125 1.524 . S
C4124 C4138 1.377 . S
C4125 C4124 1.524 . S
C4125 C4126 1.397 . S
C4125 C4130 1.363 . S
C4126 H4103 0.950 . S
C4126 C4125 1.397 . S
C4126 C4127 1.334 . S
C4127 H4104 0.950 . S
C4127 C4126 1.334 . S
C4127 C4128 1.287 . S
C4128 C4127 1.287 . S
C4128 C4129 1.524 . S
C4128 H4147 0.913 . S
C4129 H4105 0.950 . S
C4129 C4128 1.524 . S
C4129 C4130 1.415 . S
C4130 H4106 0.950 . S
C4130 C4125 1.363 . S
C4130 C4129 1.415 . S
C4131 H4107 0.951 . S
C4131 C4132 1.366 . S
C4131 C4133 1.388 . S
C4132 C4131 1.366 . S
C4132 C4136 1.385 . S
C4133 H4108 0.951 . S
C4133 C4131 1.388 . S
C4133 C4134 1.366 . S
C4134 C4133 1.366 . S
C4134 C4135 1.414 . S
C4134 C4137 1.499 . S
C4135 H4109 0.950 . S
C4135 C4134 1.414 . S
C4135 C4136 1.374 . S
C4136 H4110 0.950 . S
C4136 C4132 1.385 . S
C4136 C4135 1.374 . S
C4137 C4134 1.499 . S
C4137 C4138 1.373 . S
C4137 C4139 1.389 1_545 S
C4138 H4111 0.950 . S
C4138 C4124 1.377 . S
C4138 C4137 1.373 . S
C4139 C4123 1.366 1_565 S
C4139 C4137 1.389 1_565 S
C4139 C4140 1.524 . S
C4140 C4139 1.524 . S
C4140 C4141 1.397 . S
C4140 C4145 1.363 . S
C4141 H4112 0.950 . S
C4141 C4140 1.397 . S
C4141 C4142 1.334 . S
C4142 H4113 0.950 . S
C4142 C4141 1.334 . S
C4142 C4143 1.287 . S
C4143 C4142 1.287 . S
C4143 C4144 1.524 . S
C4143 H4146 0.999 . S
C4144 H4114 0.950 . S
C4144 C4143 1.524 . S
C4144 C4145 1.415 . S
C4145 H4115 0.950 . S
C4145 C4140 1.363 . S
C4145 C4144 1.415 . S
H4146 C4143 0.999 . S
H4147 C4128 0.913 . S
H4148 C4166 0.951 . S
H4149 C4168 0.951 . S
H4150 C4170 0.950 . S
H4151 C4171 0.950 . S
H4152 C4173 0.950 . S
H4153 C4176 1.011 . S
H4154 C4177 0.950 . S
H4155 C4179 0.950 . S
H4156 C4180 0.950 . S
H4157 C4181 0.951 . S
H4158 C4183 0.951 . S
H4159 C4185 0.950 . S
H4160 C4186 0.950 . S
H4161 C4188 0.950 . S
H4162 C4191 0.950 . S
H4163 C4192 0.950 . S
H4164 C4194 0.950 . S
H4165 C4195 0.950 . S
C4166 H4148 0.951 . S
C4166 C4167 1.365 1_455 S
C4166 C4168 1.388 . S
C4167 C4166 1.365 1_655 S
C4167 C4171 1.385 . S
C4168 H4149 0.951 . S
C4168 C4166 1.388 . S
C4168 C4169 1.366 1_455 S
C4169 C4168 1.366 1_655 S
C4169 C4170 1.414 . S
C4169 C4172 1.499 . S
C4170 H4150 0.950 . S
C4170 C4169 1.414 . S
C4170 C4171 1.374 . S
C4171 H4151 0.950 . S
C4171 C4167 1.385 . S
C4171 C4170 1.374 . S
C4172 C4169 1.499 . S
C4172 C4173 1.373 . S
C4172 C4174 1.389 1_655 S
C4173 H4152 0.950 . S
C4173 C4172 1.373 . S
C4173 C4189 1.377 . S
C4174 C4172 1.389 1_455 S
C4174 C4175 1.524 . S
C4174 C4188 1.377 . S
C4175 C4174 1.524 . S
C4175 C4176 1.397 . S
C4175 C4180 1.363 . S
C4176 H4153 1.011 . S
C4176 C4175 1.397 . S
C4176 C4177 1.334 . S
C4177 H4154 0.950 . S
C4177 C4176 1.334 . S
C4177 C4178 1.287 . S
C4178 C4177 1.287 . S
C4178 C4179 1.524 . S
C4178 H4197 0.913 . S
C4179 H4155 0.950 . S
C4179 C4178 1.524 . S
C4179 C4180 1.415 . S
C4180 H4156 0.950 . S
C4180 C4175 1.363 . S
C4180 C4179 1.415 . S
C4181 H4157 0.951 . S
C4181 C4182 1.366 . S
C4181 C4183 1.388 . S
C4182 C4181 1.366 . S
C4182 C4186 1.385 1_655 S
C4183 H4158 0.951 . S
C4183 C4181 1.388 . S
C4183 C4184 1.366 . S
C4184 C4183 1.366 . S
C4184 C4185 1.414 1_655 S
C4184 C4187 1.499 . S
C4185 H4159 0.950 . S
C4185 C4184 1.414 1_455 S
C4185 C4186 1.374 . S
C4186 H4160 0.950 . S
C4186 C4182 1.385 1_455 S
C4186 C4185 1.374 . S
C4187 C4184 1.499 . S
C4187 C4188 1.373 1_655 S
C4187 C4189 1.389 . S
C4188 H4161 0.950 . S
C4188 C4174 1.377 . S
C4188 C4187 1.373 1_455 S
C4189 C4173 1.377 . S
C4189 C4187 1.389 . S
C4189 C4190 1.524 . S
C4190 C4189 1.524 . S
C4190 C4191 1.397 . S
C4190 C4195 1.363 . S
C4191 H4162 0.950 . S
C4191 C4190 1.397 . S
C4191 C4192 1.334 . S
C4192 H4163 0.950 . S
C4192 C4191 1.334 . S
C4192 C4193 1.287 . S
C4193 C4192 1.287 . S
C4193 C4194 1.524 . S
C4193 H4196 0.999 . S
C4194 H4164 0.950 . S
C4194 C4193 1.524 . S
C4194 C4195 1.415 . S
C4195 H4165 0.950 . S
C4195 C4190 1.363 . S
C4195 C4194 1.415 . S
H4196 C4193 0.999 . S
H4197 C4178 0.913 . S
H4198 C4216 0.951 . S
H4199 C4218 0.951 . S
H4200 C4220 0.950 . S
H4201 C4221 0.950 . S
H4202 C4223 0.950 . S
H4203 C4226 0.950 . S
H4204 C4227 0.950 . S
H4205 C4229 0.950 . S
H4206 C4230 0.950 . S
H4207 C4231 0.951 . S
H4208 C4233 0.951 . S
H4209 C4235 0.950 . S
H4210 C4236 0.950 . S
H4211 C4238 0.950 . S
H4212 C4241 0.950 . S
H4213 C4242 0.950 . S
H4214 C4244 0.950 . S
H4215 C4245 0.950 . S
C4216 H4198 0.951 . S
C4216 C4217 1.366 . S
C4216 C4218 1.388 . S
C4217 C4216 1.366 . S
C4217 C4221 1.385 . S
C4218 H4199 0.951 . S
C4218 C4216 1.388 . S
C4218 C4219 1.366 . S
C4219 C4218 1.366 . S
C4219 C4220 1.414 . S
C4219 C4222 1.499 . S
C4220 H4200 0.950 . S
C4220 C4219 1.414 . S
C4220 C4221 1.374 . S
C4221 H4201 0.950 . S
C4221 C4217 1.385 . S
C4221 C4220 1.374 . S
C4222 C4219 1.499 . S
C4222 C4223 1.373 . S
C4222 C4224 1.389 . S
C4223 H4202 0.950 . S
C4223 C4222 1.373 . S
C4223 C4239 1.377 . S
C4224 C4222 1.389 . S
C4224 C4225 1.524 . S
C4224 C4238 1.377 . S
C4225 C4224 1.524 . S
C4225 C4226 1.397 . S
C4225 C4230 1.363 . S
C4226 H4203 0.950 . S
C4226 C4225 1.397 . S
C4226 C4227 1.334 . S
C4227 H4204 0.950 . S
C4227 C4226 1.334 . S
C4227 C4228 1.287 . S
C4228 C4227 1.287 . S
C4228 C4229 1.524 . S
C4228 H4247 0.913 . S
C4229 H4205 0.950 . S
C4229 C4228 1.524 . S
C4229 C4230 1.415 . S
C4230 H4206 0.950 . S
C4230 C4225 1.363 . S
C4230 C4229 1.415 . S
C4231 H4207 0.951 . S
C4231 C4232 1.366 . S
C4231 C4233 1.388 . S
C4232 C4231 1.366 . S
C4232 C4236 1.385 . S
C4233 H4208 0.951 . S
C4233 C4231 1.388 . S
C4233 C4234 1.366 . S
C4234 C4233 1.366 . S
C4234 C4235 1.414 . S
C4234 C4237 1.499 . S
C4235 H4209 0.950 . S
C4235 C4234 1.414 . S
C4235 C4236 1.374 . S
C4236 H4210 0.950 . S
C4236 C4232 1.385 . S
C4236 C4235 1.374 . S
C4237 C4234 1.499 . S
C4237 C4238 1.373 . S
C4237 C4239 1.389 . S
C4238 H4211 0.950 . S
C4238 C4224 1.377 . S
C4238 C4237 1.373 . S
C4239 C4223 1.377 . S
C4239 C4237 1.389 . S
C4239 C4240 1.524 . S
C4240 C4239 1.524 . S
C4240 C4241 1.397 . S
C4240 C4245 1.363 . S
C4241 H4212 0.950 . S
C4241 C4240 1.397 . S
C4241 C4242 1.334 . S
C4242 H4213 0.950 . S
C4242 C4241 1.334 . S
C4242 C4243 1.287 . S
C4243 C4242 1.287 . S
C4243 C4244 1.524 . S
C4243 H4246 0.999 . S
C4244 H4214 0.950 . S
C4244 C4243 1.524 . S
C4244 C4245 1.415 . S
C4245 H4215 0.950 . S
C4245 C4240 1.363 . S
C4245 C4244 1.415 . S
H4246 C4243 0.999 . S
H4247 C4228 0.913 . S
H4248 C4266 0.951 . S
H4249 C4268 0.951 . S
H4250 C4270 0.950 . S
H4251 C4271 0.950 . S
H4252 C4273 0.950 . S
H4253 C4276 0.950 . S
H4254 C4277 0.950 . S
H4255 C4279 0.950 . S
H4256 C4280 0.950 . S
H4257 C4281 0.951 . S
H4258 C4283 0.951 . S
H4259 C4285 0.950 . S
H4260 C4286 0.950 . S
H4261 C4288 0.950 . S
H4262 C4291 0.950 . S
H4263 C4292 0.950 . S
H4264 C4294 0.950 . S
H4265 C4295 0.950 . S
C4266 H4248 0.951 . S
C4266 C4267 1.366 . S
C4266 C4268 1.388 . S
C4267 C4266 1.366 . S
C4267 C4271 1.385 . S
C4268 H4249 0.951 . S
C4268 C4266 1.388 . S
C4268 C4269 1.366 . S
C4269 C4268 1.366 . S
C4269 C4270 1.414 . S
C4269 C4272 1.499 . S
C4270 H4250 0.950 . S
C4270 C4269 1.414 . S
C4270 C4271 1.374 . S
C4271 H4251 0.950 . S
C4271 C4267 1.385 . S
C4271 C4270 1.374 . S
C4272 C4269 1.499 . S
C4272 C4273 1.373 . S
C4272 C4274 1.389 . S
C4273 H4252 0.950 . S
C4273 C4272 1.373 . S
C4273 C4289 1.377 . S
C4274 C4272 1.389 . S
C4274 C4275 1.524 . S
C4274 C4288 1.377 . S
C4275 C4274 1.524 . S
C4275 C4276 1.397 . S
C4275 C4280 1.363 . S
C4276 H4253 0.950 . S
C4276 C4275 1.397 . S
C4276 C4277 1.334 . S
C4277 H4254 0.950 . S
C4277 C4276 1.334 . S
C4277 C4278 1.287 . S
C4278 C4277 1.287 . S
C4278 C4279 1.524 . S
C4278 H4297 0.913 . S
C4279 H4255 0.950 . S
C4279 C4278 1.524 . S
C4279 C4280 1.415 . S
C4280 H4256 0.950 . S
C4280 C4275 1.363 . S
C4280 C4279 1.415 . S
C4281 H4257 0.951 . S
C4281 C4282 1.366 . S
C4281 C4283 1.388 . S
C4282 C4281 1.366 . S
C4282 C4286 1.385 . S
C4283 H4258 0.951 . S
C4283 C4281 1.388 . S
C4283 C4284 1.366 . S
C4284 C4283 1.366 . S
C4284 C4285 1.414 . S
C4284 C4287 1.499 . S
C4285 H4259 0.950 . S
C4285 C4284 1.414 . S
C4285 C4286 1.374 . S
C4286 H4260 0.950 . S
C4286 C4282 1.385 . S
C4286 C4285 1.374 . S
C4287 C4284 1.499 . S
C4287 C4288 1.373 . S
C4287 C4289 1.389 . S
C4288 H4261 0.950 . S
C4288 C4274 1.377 . S
C4288 C4287 1.373 . S
C4289 C4273 1.377 . S
C4289 C4287 1.389 . S
C4289 C4290 1.524 . S
C4290 C4289 1.524 . S
C4290 C4291 1.397 . S
C4290 C4295 1.363 . S
C4291 H4262 0.950 . S
C4291 C4290 1.397 . S
C4291 C4292 1.334 . S
C4292 H4263 0.950 . S
C4292 C4291 1.334 . S
C4292 C4293 1.287 . S
C4293 C4292 1.287 . S
C4293 C4294 1.524 . S
C4293 H4296 0.999 . S
C4294 H4264 0.950 . S
C4294 C4293 1.524 . S
C4294 C4295 1.415 . S
C4295 H4265 0.950 . S
C4295 C4290 1.363 . S
C4295 C4294 1.415 . S
H4296 C4293 0.999 . S
H4297 C4278 0.913 . S
H4298 C4316 0.951 . S
H4299 C4318 0.951 . S
H4300 C4320 0.950 . S
H4301 C4321 0.950 . S
H4302 C4323 0.950 . S
H4303 C4326 0.950 . S
H4304 C4327 0.950 . S
H4305 C4329 0.950 . S
H4306 C4330 0.950 . S
H4307 C4331 0.951 . S
H4308 C4333 0.951 . S
H4309 C4335 0.950 . S
H4310 C4336 0.950 . S
H4311 C4338 0.950 . S
H4312 C4341 0.950 . S
H4313 C4342 0.950 . S
H4314 C4344 0.950 . S
H4315 C4345 0.950 . S
C4316 H4298 0.951 . S
C4316 C4317 1.366 . S
C4316 C4318 1.388 . S
C4317 C4316 1.366 . S
C4317 C4321 1.385 . S
C4318 H4299 0.951 . S
C4318 C4316 1.388 . S
C4318 C4319 1.366 . S
C4319 C4318 1.366 . S
C4319 C4320 1.414 . S
C4319 C4322 1.499 . S
C4320 H4300 0.950 . S
C4320 C4319 1.414 . S
C4320 C4321 1.374 . S
C4321 H4301 0.950 . S
C4321 C4317 1.385 . S
C4321 C4320 1.374 . S
C4322 C4319 1.499 . S
C4322 C4323 1.373 . S
C4322 C4324 1.389 . S
C4323 H4302 0.950 . S
C4323 C4322 1.373 . S
C4323 C4339 1.377 . S
C4324 C4322 1.389 . S
C4324 C4325 1.524 . S
C4324 C4338 1.377 . S
C4325 C4324 1.524 . S
C4325 C4326 1.397 . S
C4325 C4330 1.363 . S
C4326 H4303 0.950 . S
C4326 C4325 1.397 . S
C4326 C4327 1.334 . S
C4327 H4304 0.950 . S
C4327 C4326 1.334 . S
C4327 C4328 1.287 . S
C4328 C4327 1.287 . S
C4328 C4329 1.524 . S
C4328 H4347 0.913 . S
C4329 H4305 0.950 . S
C4329 C4328 1.524 . S
C4329 C4330 1.415 . S
C4330 H4306 0.950 . S
C4330 C4325 1.363 . S
C4330 C4329 1.415 . S
C4331 H4307 0.951 . S
C4331 C4332 1.366 . S
C4331 C4333 1.388 . S
C4332 C4331 1.366 . S
C4332 C4336 1.385 . S
C4333 H4308 0.951 . S
C4333 C4331 1.388 . S
C4333 C4334 1.366 . S
C4334 C4333 1.366 . S
C4334 C4335 1.414 . S
C4334 C4337 1.499 . S
C4335 H4309 0.950 . S
C4335 C4334 1.414 . S
C4335 C4336 1.374 . S
C4336 H4310 0.950 . S
C4336 C4332 1.385 . S
C4336 C4335 1.374 . S
C4337 C4334 1.499 . S
C4337 C4338 1.373 . S
C4337 C4339 1.389 . S
C4338 H4311 0.950 . S
C4338 C4324 1.377 . S
C4338 C4337 1.373 . S
C4339 C4323 1.377 . S
C4339 C4337 1.389 . S
C4339 C4340 1.524 . S
C4340 C4339 1.524 . S
C4340 C4341 1.397 . S
C4340 C4345 1.363 . S
C4341 H4312 0.950 . S
C4341 C4340 1.397 . S
C4341 C4342 1.334 . S
C4342 H4313 0.950 . S
C4342 C4341 1.334 . S
C4342 C4343 1.287 . S
C4343 C4342 1.287 . S
C4343 C4344 1.524 . S
C4343 H4346 0.999 . S
C4344 H4314 0.950 . S
C4344 C4343 1.524 . S
C4344 C4345 1.415 . S
C4345 H4315 0.950 . S
C4345 C4340 1.363 . S
C4345 C4344 1.415 . S
H4346 C4343 0.999 . S
H4347 C4328 0.913 . S
H4348 C4366 0.951 . S
H4349 C4368 0.951 . S
H4350 C4370 0.950 . S
H4351 C4371 0.950 . S
H4352 C4373 0.950 . S
H4353 C4376 0.950 . S
H4354 C4377 0.950 . S
H4355 C4379 0.950 . S
H4356 C4380 0.950 . S
H4357 C4381 0.951 . S
H4358 C4383 0.951 . S
H4359 C4385 0.950 . S
H4360 C4386 0.950 . S
H4361 C4388 0.950 . S
H4362 C4391 0.950 . S
H4363 C4392 0.950 . S
H4364 C4394 0.950 . S
H4365 C4395 0.950 . S
C4366 H4348 0.951 . S
C4366 C4367 1.366 . S
C4366 C4368 1.388 . S
C4367 C4366 1.366 . S
C4367 C4371 1.385 . S
C4368 H4349 0.951 . S
C4368 C4366 1.388 . S
C4368 C4369 1.366 . S
C4369 C4368 1.366 . S
C4369 C4370 1.414 . S
C4369 C4372 1.499 . S
C4370 H4350 0.950 . S
C4370 C4369 1.414 . S
C4370 C4371 1.374 . S
C4371 H4351 0.950 . S
C4371 C4367 1.385 . S
C4371 C4370 1.374 . S
C4372 C4369 1.499 . S
C4372 C4373 1.373 . S
C4372 C4374 1.389 . S
C4373 H4352 0.950 . S
C4373 C4372 1.373 . S
C4373 C4389 1.377 . S
C4374 C4372 1.389 . S
C4374 C4375 1.524 . S
C4374 C4388 1.377 . S
C4375 C4374 1.524 . S
C4375 C4376 1.397 . S
C4375 C4380 1.363 . S
C4376 H4353 0.950 . S
C4376 C4375 1.397 . S
C4376 C4377 1.334 . S
C4377 H4354 0.950 . S
C4377 C4376 1.334 . S
C4377 C4378 1.287 . S
C4378 C4377 1.287 . S
C4378 C4379 1.524 . S
C4378 H4397 0.913 . S
C4379 H4355 0.950 . S
C4379 C4378 1.524 . S
C4379 C4380 1.415 . S
C4380 H4356 0.950 . S
C4380 C4375 1.363 . S
C4380 C4379 1.415 . S
C4381 H4357 0.951 . S
C4381 C4382 1.366 . S
C4381 C4383 1.388 . S
C4382 C4381 1.366 . S
C4382 C4386 1.385 . S
C4383 H4358 0.951 . S
C4383 C4381 1.388 . S
C4383 C4384 1.366 . S
C4384 C4383 1.366 . S
C4384 C4385 1.414 . S
C4384 C4387 1.499 . S
C4385 H4359 0.950 . S
C4385 C4384 1.414 . S
C4385 C4386 1.374 . S
C4386 H4360 0.950 . S
C4386 C4382 1.385 . S
C4386 C4385 1.374 . S
C4387 C4384 1.499 . S
C4387 C4388 1.373 . S
C4387 C4389 1.389 . S
C4388 H4361 0.950 . S
C4388 C4374 1.377 . S
C4388 C4387 1.373 . S
C4389 C4373 1.377 . S
C4389 C4387 1.389 . S
C4389 C4390 1.524 . S
C4390 C4389 1.524 . S
C4390 C4391 1.397 . S
C4390 C4395 1.363 . S
C4391 H4362 0.950 . S
C4391 C4390 1.397 . S
C4391 C4392 1.334 . S
C4392 H4363 0.950 . S
C4392 C4391 1.334 . S
C4392 C4393 1.287 . S
C4393 C4392 1.287 . S
C4393 C4394 1.524 . S
C4393 H4396 0.999 . S
C4394 H4364 0.950 . S
C4394 C4393 1.524 . S
C4394 C4395 1.415 . S
C4395 H4365 0.950 . S
C4395 C4390 1.363 . S
C4395 C4394 1.415 . S
H4396 C4393 0.999 . S
H4397 C4378 0.913 . S
H4398 C4416 0.951 . S
H4399 C4418 0.951 . S
H4400 C4420 0.950 . S
H4401 C4421 0.950 . S
H4402 C4423 0.950 . S
H4403 C4426 0.950 . S
H4404 C4427 0.950 . S
H4405 C4429 0.950 . S
H4406 C4430 0.950 . S
H4407 C4431 0.951 . S
H4408 C4433 0.951 . S
H4409 C4435 0.950 . S
H4410 C4436 0.950 . S
H4411 C4438 0.950 . S
H4412 C4441 0.950 . S
H4413 C4442 0.950 . S
H4414 C4444 0.950 . S
H4415 C4445 0.950 . S
C4416 H4398 0.951 . S
C4416 C4417 1.366 . S
C4416 C4418 1.388 . S
C4417 C4416 1.366 . S
C4417 C4421 1.385 . S
C4418 H4399 0.951 . S
C4418 C4416 1.388 . S
C4418 C4419 1.366 . S
C4419 C4418 1.366 . S
C4419 C4420 1.414 . S
C4419 C4422 1.499 . S
C4420 H4400 0.950 . S
C4420 C4419 1.414 . S
C4420 C4421 1.374 . S
C4421 H4401 0.950 . S
C4421 C4417 1.385 . S
C4421 C4420 1.374 . S
C4422 C4419 1.499 . S
C4422 C4423 1.373 . S
C4422 C4424 1.389 . S
C4423 H4402 0.950 . S
C4423 C4422 1.373 . S
C4423 C4439 1.377 . S
C4424 C4422 1.389 . S
C4424 C4425 1.524 . S
C4424 C4438 1.377 . S
C4425 C4424 1.524 . S
C4425 C4426 1.397 . S
C4425 C4430 1.363 . S
C4426 H4403 0.950 . S
C4426 C4425 1.397 . S
C4426 C4427 1.334 . S
C4427 H4404 0.950 . S
C4427 C4426 1.334 . S
C4427 C4428 1.287 . S
C4428 C4427 1.287 . S
C4428 C4429 1.524 . S
C4428 H4447 0.913 . S
C4429 H4405 0.950 . S
C4429 C4428 1.524 . S
C4429 C4430 1.415 . S
C4430 H4406 0.950 . S
C4430 C4425 1.363 . S
C4430 C4429 1.415 . S
C4431 H4407 0.951 . S
C4431 C4432 1.366 . S
C4431 C4433 1.388 . S
C4432 C4431 1.366 . S
C4432 C4436 1.385 . S
C4433 H4408 0.951 . S
C4433 C4431 1.388 . S
C4433 C4434 1.366 . S
C4434 C4433 1.366 . S
C4434 C4435 1.414 . S
C4434 C4437 1.499 . S
C4435 H4409 0.950 . S
C4435 C4434 1.414 . S
C4435 C4436 1.374 . S
C4436 H4410 0.950 . S
C4436 C4432 1.385 . S
C4436 C4435 1.374 . S
C4437 C4434 1.499 . S
C4437 C4438 1.373 . S
C4437 C4439 1.389 . S
C4438 H4411 0.950 . S
C4438 C4424 1.377 . S
C4438 C4437 1.373 . S
C4439 C4423 1.377 . S
C4439 C4437 1.389 . S
C4439 C4440 1.524 . S
C4440 C4439 1.524 . S
C4440 C4441 1.397 . S
C4440 C4445 1.363 . S
C4441 H4412 0.950 . S
C4441 C4440 1.397 . S
C4441 C4442 1.334 . S
C4442 H4413 0.950 . S
C4442 C4441 1.334 . S
C4442 C4443 1.287 . S
C4443 C4442 1.287 . S
C4443 C4444 1.524 . S
C4443 H4446 0.999 . S
C4444 H4414 0.950 . S
C4444 C4443 1.524 . S
C4444 C4445 1.415 . S
C4445 H4415 0.950 . S
C4445 C4440 1.363 . S
C4445 C4444 1.415 . S
H4446 C4443 0.999 . S
H4447 C4428 0.913 . S
H4448 C4466 0.951 . S
H4449 C4468 0.951 . S
H4450 C4470 0.950 . S
H4451 C4471 0.950 . S
H4452 C4473 0.950 . S
H4453 C4476 0.950 . S
H4454 C4477 0.950 . S
H4455 C4479 0.950 . S
H4456 C4480 0.950 . S
H4457 C4481 0.951 . S
H4458 C4483 0.951 . S
H4459 C4485 0.950 . S
H4460 C4486 0.950 . S
H4461 C4488 0.950 . S
H4462 C4491 0.950 . S
H4463 C4492 0.950 . S
H4464 C4494 0.950 . S
H4465 C4495 0.950 . S
C4466 H4448 0.951 . S
C4466 C4467 1.366 . S
C4466 C4468 1.388 . S
C4467 C4466 1.366 . S
C4467 C4471 1.385 . S
C4468 H4449 0.951 . S
C4468 C4466 1.388 . S
C4468 C4469 1.366 . S
C4469 C4468 1.366 . S
C4469 C4470 1.414 . S
C4469 C4472 1.499 . S
C4470 H4450 0.950 . S
C4470 C4469 1.414 . S
C4470 C4471 1.374 . S
C4471 H4451 0.950 . S
C4471 C4467 1.385 . S
C4471 C4470 1.374 . S
C4472 C4469 1.499 . S
C4472 C4473 1.373 . S
C4472 C4474 1.389 . S
C4473 H4452 0.950 . S
C4473 C4472 1.373 . S
C4473 C4489 1.377 . S
C4474 C4472 1.389 . S
C4474 C4475 1.524 . S
C4474 C4488 1.377 . S
C4475 C4474 1.524 . S
C4475 C4476 1.397 . S
C4475 C4480 1.363 . S
C4476 H4453 0.950 . S
C4476 C4475 1.397 . S
C4476 C4477 1.334 . S
C4477 H4454 0.950 . S
C4477 C4476 1.334 . S
C4477 C4478 1.287 . S
C4478 C4477 1.287 . S
C4478 C4479 1.524 . S
C4478 H4497 0.913 . S
C4479 H4455 0.950 . S
C4479 C4478 1.524 . S
C4479 C4480 1.415 . S
C4480 H4456 0.950 . S
C4480 C4475 1.363 . S
C4480 C4479 1.415 . S
C4481 H4457 0.951 . S
C4481 C4482 1.366 . S
C4481 C4483 1.388 . S
C4482 C4481 1.366 . S
C4482 C4486 1.385 . S
C4483 H4458 0.951 . S
C4483 C4481 1.388 . S
C4483 C4484 1.366 . S
C4484 C4483 1.366 . S
C4484 C4485 1.414 . S
C4484 C4487 1.499 . S
C4485 H4459 0.950 . S
C4485 C4484 1.414 . S
C4485 C4486 1.374 . S
C4486 H4460 0.950 . S
C4486 C4482 1.385 . S
C4486 C4485 1.374 . S
C4487 C4484 1.499 . S
C4487 C4488 1.373 . S
C4487 C4489 1.389 . S
C4488 H4461 0.950 . S
C4488 C4474 1.377 . S
C4488 C4487 1.373 . S
C4489 C4473 1.377 . S
C4489 C4487 1.389 . S
C4489 C4490 1.524 . S
C4490 C4489 1.524 . S
C4490 C4491 1.397 . S
C4490 C4495 1.363 . S
C4491 H4462 0.950 . S
C4491 C4490 1.397 . S
C4491 C4492 1.334 . S
C4492 H4463 0.950 . S
C4492 C4491 1.334 . S
C4492 C4493 1.287 . S
C4493 C4492 1.287 . S
C4493 C4494 1.524 . S
C4493 H4496 0.999 . S
C4494 H4464 0.950 . S
C4494 C4493 1.524 . S
C4494 C4495 1.415 . S
C4495 H4465 0.950 . S
C4495 C4490 1.363 . S
C4495 C4494 1.415 . S
H4496 C4493 0.999 . S
H4497 C4478 0.913 . S
H4498 C4516 0.951 . S
H4499 C4518 0.951 . S
H4500 C4520 0.950 . S
H4501 C4521 0.950 . S
H4502 C4523 0.950 . S
H4503 C4526 0.950 . S
H4504 C4527 0.950 . S
H4505 C4529 0.950 . S
H4506 C4530 0.950 . S
H4507 C4531 0.951 . S
H4508 C4533 0.951 . S
H4509 C4535 0.950 . S
H4510 C4536 0.950 . S
H4511 C4538 0.950 . S
H4512 C4541 0.950 . S
H4513 C4542 0.950 . S
H4514 C4544 0.950 . S
H4515 C4545 0.950 . S
C4516 H4498 0.951 . S
C4516 C4517 1.366 . S
C4516 C4518 1.388 . S
C4517 C4516 1.366 . S
C4517 C4521 1.385 . S
C4518 H4499 0.951 . S
C4518 C4516 1.388 . S
C4518 C4519 1.366 . S
C4519 C4518 1.366 . S
C4519 C4520 1.414 . S
C4519 C4522 1.499 . S
C4520 H4500 0.950 . S
C4520 C4519 1.414 . S
C4520 C4521 1.374 . S
C4521 H4501 0.950 . S
C4521 C4517 1.385 . S
C4521 C4520 1.374 . S
C4522 C4519 1.499 . S
C4522 C4523 1.373 . S
C4522 C4524 1.389 . S
C4523 H4502 0.950 . S
C4523 C4522 1.373 . S
C4523 C4539 1.377 . S
C4524 C4522 1.389 . S
C4524 C4525 1.524 . S
C4524 C4538 1.377 . S
C4525 C4524 1.524 . S
C4525 C4526 1.397 . S
C4525 C4530 1.363 . S
C4526 H4503 0.950 . S
C4526 C4525 1.397 . S
C4526 C4527 1.334 . S
C4527 H4504 0.950 . S
C4527 C4526 1.334 . S
C4527 C4528 1.287 . S
C4528 C4527 1.287 . S
C4528 C4529 1.524 . S
C4528 H4547 0.913 . S
C4529 H4505 0.950 . S
C4529 C4528 1.524 . S
C4529 C4530 1.415 . S
C4530 H4506 0.950 . S
C4530 C4525 1.363 . S
C4530 C4529 1.415 . S
C4531 H4507 0.951 . S
C4531 C4532 1.366 . S
C4531 C4533 1.388 . S
C4532 C4531 1.366 . S
C4532 C4536 1.385 . S
C4533 H4508 0.951 . S
C4533 C4531 1.388 . S
C4533 C4534 1.366 . S
C4534 C4533 1.366 . S
C4534 C4535 1.414 . S
C4534 C4537 1.499 . S
C4535 H4509 0.950 . S
C4535 C4534 1.414 . S
C4535 C4536 1.374 . S
C4536 H4510 0.950 . S
C4536 C4532 1.385 . S
C4536 C4535 1.374 . S
C4537 C4534 1.499 . S
C4537 C4538 1.373 . S
C4537 C4539 1.389 . S
C4538 H4511 0.950 . S
C4538 C4524 1.377 . S
C4538 C4537 1.373 . S
C4539 C4523 1.377 . S
C4539 C4537 1.389 . S
C4539 C4540 1.524 . S
C4540 C4539 1.524 . S
C4540 C4541 1.397 . S
C4540 C4545 1.363 . S
C4541 H4512 0.950 . S
C4541 C4540 1.397 . S
C4541 C4542 1.334 . S
C4542 H4513 0.950 . S
C4542 C4541 1.334 . S
C4542 C4543 1.287 . S
C4543 C4542 1.287 . S
C4543 C4544 1.524 . S
C4543 H4546 0.999 . S
C4544 H4514 0.950 . S
C4544 C4543 1.524 . S
C4544 C4545 1.415 . S
C4545 H4515 0.950 . S
C4545 C4540 1.363 . S
C4545 C4544 1.415 . S
H4546 C4543 0.999 . S
H4547 C4528 0.913 . S
H4548 C4566 0.951 1_455 S
H4549 C4568 0.951 1_455 S
H4550 C4570 0.950 . S
H4551 C4571 0.950 . S
H4552 C4573 0.950 . S
H4553 C4576 0.950 . S
H4554 C4577 0.950 . S
H4555 C4579 0.950 . S
H4556 C4580 0.950 1_455 S
H4557 C4581 0.951 . S
H4558 C4583 0.951 . S
H4559 C4585 0.950 . S
H4560 C4586 0.950 . S
H4561 C4588 0.950 . S
H4562 C4591 0.950 . S
H4563 C4592 0.950 . S
H4564 C4594 0.950 . S
H4565 C4595 0.950 . S
C4566 H4548 0.951 1_655 S
C4566 C4567 1.366 . S
C4566 C4568 1.388 . S
C4567 C4566 1.366 . S
C4567 C4571 1.385 . S
C4568 H4549 0.951 1_655 S
C4568 C4566 1.388 . S
C4568 C4569 1.366 . S
C4569 C4568 1.366 . S
C4569 C4570 1.414 . S
C4569 C4572 1.499 . S
C4570 H4550 0.950 . S
C4570 C4569 1.414 . S
C4570 C4571 1.374 . S
C4571 H4551 0.950 . S
C4571 C4567 1.385 . S
C4571 C4570 1.374 . S
C4572 C4569 1.499 . S
C4572 C4573 1.373 . S
C4572 C4574 1.389 . S
C4573 H4552 0.950 . S
C4573 C4572 1.373 . S
C4573 C4589 1.377 . S
C4574 C4572 1.389 . S
C4574 C4575 1.524 . S
C4574 C4588 1.377 . S
C4575 C4574 1.524 . S
C4575 C4576 1.397 . S
C4575 C4580 1.363 . S
C4576 H4553 0.950 . S
C4576 C4575 1.397 . S
C4576 C4577 1.334 . S
C4577 H4554 0.950 . S
C4577 C4576 1.334 . S
C4577 C4578 1.287 . S
C4578 C4577 1.287 . S
C4578 C4579 1.524 . S
C4578 H4597 0.913 . S
C4579 H4555 0.950 . S
C4579 C4578 1.524 . S
C4579 C4580 1.415 . S
C4580 H4556 0.950 1_655 S
C4580 C4575 1.363 . S
C4580 C4579 1.415 . S
C4581 H4557 0.951 . S
C4581 C4582 1.366 . S
C4581 C4583 1.388 . S
C4582 C4581 1.366 . S
C4582 C4586 1.385 1_655 S
C4583 H4558 0.951 . S
C4583 C4581 1.388 . S
C4583 C4584 1.366 . S
C4584 C4583 1.366 . S
C4584 C4585 1.414 1_655 S
C4584 C4587 1.499 . S
C4585 H4559 0.950 . S
C4585 C4584 1.414 1_455 S
C4585 C4586 1.374 . S
C4586 H4560 0.950 . S
C4586 C4582 1.385 1_455 S
C4586 C4585 1.374 . S
C4587 C4584 1.499 . S
C4587 C4588 1.373 . S
C4587 C4589 1.389 . S
C4588 H4561 0.950 . S
C4588 C4574 1.377 . S
C4588 C4587 1.373 . S
C4589 C4573 1.377 . S
C4589 C4587 1.389 . S
C4589 C4590 1.524 . S
C4590 C4589 1.524 . S
C4590 C4591 1.397 1_655 S
C4590 C4595 1.363 . S
C4591 H4562 0.950 . S
C4591 C4590 1.397 1_455 S
C4591 C4592 1.334 . S
C4592 H4563 0.950 . S
C4592 C4591 1.334 . S
C4592 C4593 1.287 . S
C4593 C4592 1.287 . S
C4593 C4594 1.524 1_455 S
C4593 H4596 0.999 . S
C4594 H4564 0.950 . S
C4594 C4593 1.524 1_655 S
C4594 C4595 1.415 . S
C4595 H4565 0.950 . S
C4595 C4590 1.363 . S
C4595 C4594 1.415 . S
H4596 C4593 0.999 . S
H4597 C4578 0.913 . S
H4598 C4616 0.951 . S
H4599 C4618 0.951 . S
H4600 C4620 0.950 . S
H4601 C4621 0.950 . S
H4602 C4623 0.950 . S
H4603 C4626 0.950 . S
H4604 C4627 0.950 . S
H4605 C4629 0.950 . S
H4606 C4630 0.950 . S
H4607 C4631 0.951 . S
H4608 C4633 0.951 . S
H4609 C4635 0.950 . S
H4610 C4636 0.950 . S
H4611 C4638 0.950 . S
H4612 C4641 0.950 . S
H4613 C4642 0.950 . S
H4614 C4644 0.950 . S
H4615 C4645 0.950 . S
C4616 H4598 0.951 . S
C4616 C4617 1.366 . S
C4616 C4618 1.388 . S
C4617 C4616 1.366 . S
C4617 C4621 1.385 . S
C4618 H4599 0.951 . S
C4618 C4616 1.388 . S
C4618 C4619 1.366 . S
C4619 C4618 1.366 . S
C4619 C4620 1.414 . S
C4619 C4622 1.499 . S
C4620 H4600 0.950 . S
C4620 C4619 1.414 . S
C4620 C4621 1.374 . S
C4621 H4601 0.950 . S
C4621 C4617 1.385 . S
C4621 C4620 1.374 . S
C4622 C4619 1.499 . S
C4622 C4623 1.373 . S
C4622 C4624 1.389 . S
C4623 H4602 0.950 . S
C4623 C4622 1.373 . S
C4623 C4639 1.377 . S
C4624 C4622 1.389 . S
C4624 C4625 1.524 . S
C4624 C4638 1.377 . S
C4625 C4624 1.524 . S
C4625 C4626 1.397 . S
C4625 C4630 1.363 . S
C4626 H4603 0.950 . S
C4626 C4625 1.397 . S
C4626 C4627 1.334 . S
C4627 H4604 0.950 . S
C4627 C4626 1.334 . S
C4627 C4628 1.287 . S
C4628 C4627 1.287 . S
C4628 C4629 1.524 . S
C4628 H4647 0.913 . S
C4629 H4605 0.950 . S
C4629 C4628 1.524 . S
C4629 C4630 1.415 . S
C4630 H4606 0.950 . S
C4630 C4625 1.363 . S
C4630 C4629 1.415 . S
C4631 H4607 0.951 . S
C4631 C4632 1.366 . S
C4631 C4633 1.388 . S
C4632 C4631 1.366 . S
C4632 C4636 1.385 . S
C4633 H4608 0.951 . S
C4633 C4631 1.388 . S
C4633 C4634 1.366 . S
C4634 C4633 1.366 . S
C4634 C4635 1.414 . S
C4634 C4637 1.499 . S
C4635 H4609 0.950 . S
C4635 C4634 1.414 . S
C4635 C4636 1.374 . S
C4636 H4610 0.950 . S
C4636 C4632 1.385 . S
C4636 C4635 1.374 . S
C4637 C4634 1.499 . S
C4637 C4638 1.373 . S
C4637 C4639 1.389 . S
C4638 H4611 0.950 . S
C4638 C4624 1.377 . S
C4638 C4637 1.373 . S
C4639 C4623 1.377 . S
C4639 C4637 1.389 . S
C4639 C4640 1.524 . S
C4640 C4639 1.524 . S
C4640 C4641 1.397 . S
C4640 C4645 1.363 . S
C4641 H4612 0.950 . S
C4641 C4640 1.397 . S
C4641 C4642 1.334 . S
C4642 H4613 0.950 . S
C4642 C4641 1.334 . S
C4642 C4643 1.287 . S
C4643 C4642 1.287 . S
C4643 C4644 1.524 . S
C4643 H4646 0.999 . S
C4644 H4614 0.950 . S
C4644 C4643 1.524 . S
C4644 C4645 1.415 . S
C4645 H4615 0.950 . S
C4645 C4640 1.363 . S
C4645 C4644 1.415 . S
H4646 C4643 0.999 . S
H4647 C4628 0.913 . S
H4648 C4666 0.951 1_565 S
H4649 C4668 0.956 . S
H4650 C4670 0.950 . S
H4651 C4671 0.950 . S
H4652 C4673 0.950 . S
H4653 C4676 0.950 . S
H4654 C4677 0.950 . S
H4655 C4679 0.950 . S
H4656 C4680 0.950 . S
H4657 C4681 0.951 . S
H4658 C4683 0.951 . S
H4659 C4685 0.950 . S
H4660 C4686 0.950 . S
H4661 C4688 0.950 . S
H4662 C4691 0.950 . S
H4663 C4692 0.950 . S
H4664 C4694 0.950 . S
H4665 C4695 0.950 . S
C4666 H4648 0.951 1_545 S
C4666 C4667 1.366 . S
C4666 C4668 1.391 1_545 S
C4667 C4666 1.366 . S
C4667 C4671 1.385 . S
C4668 H4649 0.956 . S
C4668 C4666 1.391 1_565 S
C4668 C4669 1.357 1_565 S
C4669 C4668 1.357 1_545 S
C4669 C4670 1.414 . S
C4669 C4672 1.499 . S
C4670 H4650 0.950 . S
C4670 C4669 1.414 . S
C4670 C4671 1.374 . S
C4671 H4651 0.950 . S
C4671 C4667 1.385 . S
C4671 C4670 1.374 . S
C4672 C4669 1.499 . S
C4672 C4673 1.373 . S
C4672 C4674 1.389 1_545 S
C4673 H4652 0.950 . S
C4673 C4672 1.373 . S
C4673 C4689 1.377 . S
C4674 C4672 1.389 1_565 S
C4674 C4675 1.524 . S
C4674 C4688 1.377 . S
C4675 C4674 1.524 . S
C4675 C4676 1.397 . S
C4675 C4680 1.363 . S
C4676 H4653 0.950 . S
C4676 C4675 1.397 . S
C4676 C4677 1.334 . S
C4677 H4654 0.950 . S
C4677 C4676 1.334 . S
C4677 C4678 1.287 . S
C4678 C4677 1.287 . S
C4678 C4679 1.524 . S
C4678 H4697 0.913 . S
C4679 H4655 0.950 . S
C4679 C4678 1.524 . S
C4679 C4680 1.415 . S
C4680 H4656 0.950 . S
C4680 C4675 1.363 . S
C4680 C4679 1.415 . S
C4681 H4657 0.951 . S
C4681 C4682 1.366 . S
C4681 C4683 1.388 . S
C4682 C4681 1.366 . S
C4682 C4686 1.385 1_545 S
C4683 H4658 0.951 . S
C4683 C4681 1.388 . S
C4683 C4684 1.366 . S
C4684 C4683 1.366 . S
C4684 C4685 1.414 1_545 S
C4684 C4687 1.499 . S
C4685 H4659 0.950 . S
C4685 C4684 1.414 1_565 S
C4685 C4686 1.374 . S
C4686 H4660 0.950 . S
C4686 C4682 1.385 1_565 S
C4686 C4685 1.374 . S
C4687 C4684 1.499 . S
C4687 C4688 1.373 1_545 S
C4687 C4689 1.389 . S
C4688 H4661 0.950 . S
C4688 C4674 1.377 . S
C4688 C4687 1.373 1_565 S
C4689 C4673 1.377 . S
C4689 C4687 1.389 . S
C4689 C4690 1.524 . S
C4690 C4689 1.524 . S
C4690 C4691 1.397 . S
C4690 C4695 1.363 . S
C4691 H4662 0.950 . S
C4691 C4690 1.397 . S
C4691 C4692 1.334 . S
C4692 H4663 0.950 . S
C4692 C4691 1.334 . S
C4692 C4693 1.287 . S
C4693 C4692 1.287 . S
C4693 C4694 1.524 . S
C4693 H4696 0.999 . S
C4694 H4664 0.950 . S
C4694 C4693 1.524 . S
C4694 C4695 1.415 . S
C4695 H4665 0.950 . S
C4695 C4690 1.363 . S
C4695 C4694 1.415 . S
H4696 C4693 0.999 . S
H4697 C4678 0.913 . S
C1117 C10 1.590 . S
C1132 C711 1.595 . S
C1167 C23 1.629 . S
C1182 C759 1.619 . S
C1232 C807 1.603 . S
C1217 C29 1.628 . S
C1267 C30 1.592 . S
C1282 C831 1.604 . S
C1317 C5 1.635 . S
C1332 C903 1.612 . S
C1367 C18 1.636 . S
C1382 C951 1.628 . S
C1417 C49 1.591 . S
C1432 C879 1.600 . S
C1482 C927 1.630 . S
C1467 C62 1.632 . S
C1532 C855 1.638 . S
C1517 C70 1.625 1_565 S
C1567 C75 1.588 . S
C1582 C783 1.597 . S
C1632 C687 1.626 . S
C1617 C44 1.637 1_655 S
C1667 C57 1.638 . S
C1682 C735 1.637 . S
C1717 C88 1.663 . S
C1732 C999 1.653 . S
C1767 C101 1.658 . S
C1782 C1047 1.648 . S
C1832 C1071 1.646 . S
C1817 C107 1.653 . S
C1867 C108 1.640 . S
C1882 C255 1.631 . S
C1917 C83 1.654 . S
C1932 C327 1.646 . S
C1967 C96 1.648 . S
C1982 C375 1.639 . S
C2017 C127 1.639 . S
C2032 C303 1.636 . S
C2067 C140 1.646 . S
C2082 C351 1.643 . S
C2132 C279 1.620 . S
C2117 C146 1.644 . S
C2182 C1095 1.635 . S
C2167 C147 1.661 . S
C2232 C975 1.659 . S
C2217 C122 1.659 . S
C2282 C1023 1.665 . S
C2267 C135 1.666 . S
C2317 C160 1.638 . S
C2332 C423 1.629 . S
C2367 C173 1.641 . S
C2382 C471 1.631 . S
C2417 C185 1.649 . S
C2432 C495 1.643 . S
C2467 C186 1.664 . S
C2482 C543 1.655 . S
C2532 C615 1.650 . S
C2517 C159 1.658 . S
C2582 C663 1.654 . S
C2567 C172 1.663 . S
C2632 C591 1.664 . S
C2617 C205 1.666 . S
C2682 C639 1.659 . S
C2667 C218 1.662 . S
C2717 C224 1.647 . S
C2732 C567 1.623 . S
C2782 C519 1.607 . S
C2767 C225 1.634 . S
C2817 C200 1.658 . S
C2832 C399 1.657 . S
C2882 C447 1.650 . S
C2867 C213 1.652 . S
C2932 C264 1.515 . S
C2917 C4 1.515 . S
C2967 C17 1.487 . S
C2982 C318 1.478 . S
C3032 C366 1.507 . S
C3017 C31 1.517 . S
C3082 C414 1.509 . S
C3067 C36 1.517 . S
C3132 C462 1.511 . S
C3117 C3 1.521 . S
C3182 C504 1.493 . S
C3167 C16 1.494 . S
C3217 C43 1.522 . S
C3232 C510 1.528 . S
C3267 C56 1.488 . S
C3282 C408 1.475 . S
C3317 C68 1.509 . S
C3332 C456 1.490 . S
C3367 C69 1.518 . S
C3382 C312 1.515 . S
C3432 C360 1.504 . S
C3417 C42 1.515 . S
C3467 C55 1.498 . S
C3482 C270 1.493 . S
C3532 C552 1.513 . S
C3517 C82 1.513 . S
C3567 C95 1.528 . S
C3582 C606 1.520 . S
C3617 C109 1.547 . S
C3632 C654 1.537 . S
C3682 C702 1.484 . S
C3667 C114 1.481 . S
C3717 C81 1.525 . S
C3732 C750 1.516 . S
C3767 C94 1.487 . S
C3782 C798 1.487 . S
C3817 C121 1.485 . S
C3832 C792 1.475 . S
C3867 C134 1.478 . S
C3882 C696 1.478 . S
C3932 C744 1.504 . S
C3917 C148 1.518 . S
C3967 C153 1.513 . S
C3982 C600 1.501 . S
C4017 C120 1.548 . S
C4032 C648 1.534 . S
C4082 C558 1.535 . S
C4067 C133 1.539 . S
C4132 C840 1.486 . S
C4117 C166 1.479 . S
C4167 C179 1.476 . S
C4182 C894 1.477 . S
C4217 C187 1.521 . S
C4232 C942 1.512 . S
C4282 C990 1.507 . S
C4267 C192 1.516 . S
C4332 C1038 1.539 . S
C4317 C161 1.549 . S
C4367 C174 1.537 . S
C4382 C1080 1.536 . S
C4417 C199 1.519 . S
C4432 C1086 1.515 . S
C4467 C212 1.528 . S
C4482 C984 1.516 . S
C4532 C1032 1.526 . S
C4517 C226 1.540 . S
C4582 C888 1.474 . S
C4567 C231 1.473 . S
C4632 C936 1.514 . S
C4617 C198 1.528 . S
C4667 C211 1.491 . S
C4682 C846 1.492 . S
