# Generated by pormake.
# Topology pyr, (3,6)-cn, num edge types: 1
# Building blocks:
#     Node 0, Type 0, BuildingBlock: KAKCAD_clean_linker_0, # of connection points: 3
#     Node 1, Type 0, BuildingBlock: KAKCAD_clean_linker_0, # of connection points: 3
#     Node 2, Type 0, BuildingBlock: KAKCAD_clean_linker_0, # of connection points: 3
#     Node 3, Type 0, BuildingBlock: KAKCAD_clean_linker_0, # of connection points: 3
#     Node 4, Type 0, BuildingBlock: KAKCAD_clean_linker_0, # of connection points: 3
#     Node 5, Type 0, BuildingBlock: KAKCAD_clean_linker_0, # of connection points: 3
#     Node 6, Type 0, BuildingBlock: KAKCAD_clean_linker_0, # of connection points: 3
#     Node 7, Type 0, BuildingBlock: KAKCAD_clean_linker_0, # of connection points: 3
#     Node 8, Type 1, BuildingBlock: MIDCAF_clean_sbu_0, # of connection points: 6
#     Node 9, Type 1, BuildingBlock: MIDCAF_clean_sbu_0, # of connection points: 6
#     Node 10, Type 1, BuildingBlock: MIDCAF_clean_sbu_0, # of connection points: 6
#     Node 11, Type 1, BuildingBlock: MIDCAF_clean_sbu_0, # of connection points: 6
#     Edge 12, Type (0, 1), BuildingBlock: UVAHIK_clean_linker_0, # of connection points: 2
#     Edge 13, Type (0, 1), BuildingBlock: UVAHIK_clean_linker_0, # of connection points: 2
#     Edge 14, Type (0, 1), BuildingBlock: UVAHIK_clean_linker_0, # of connection points: 2
#     Edge 15, Type (0, 1), BuildingBlock: UVAHIK_clean_linker_0, # of connection points: 2
#     Edge 16, Type (0, 1), BuildingBlock: UVAHIK_clean_linker_0, # of connection points: 2
#     Edge 17, Type (0, 1), BuildingBlock: UVAHIK_clean_linker_0, # of connection points: 2
#     Edge 18, Type (0, 1), BuildingBlock: UVAHIK_clean_linker_0, # of connection points: 2
#     Edge 19, Type (0, 1), BuildingBlock: UVAHIK_clean_linker_0, # of connection points: 2
#     Edge 20, Type (0, 1), BuildingBlock: UVAHIK_clean_linker_0, # of connection points: 2
#     Edge 21, Type (0, 1), BuildingBlock: UVAHIK_clean_linker_0, # of connection points: 2
#     Edge 22, Type (0, 1), BuildingBlock: UVAHIK_clean_linker_0, # of connection points: 2
#     Edge 23, Type (0, 1), BuildingBlock: UVAHIK_clean_linker_0, # of connection points: 2
#     Edge 24, Type (0, 1), BuildingBlock: UVAHIK_clean_linker_0, # of connection points: 2
#     Edge 25, Type (0, 1), BuildingBlock: UVAHIK_clean_linker_0, # of connection points: 2
#     Edge 26, Type (0, 1), BuildingBlock: UVAHIK_clean_linker_0, # of connection points: 2
#     Edge 27, Type (0, 1), BuildingBlock: UVAHIK_clean_linker_0, # of connection points: 2
#     Edge 28, Type (0, 1), BuildingBlock: UVAHIK_clean_linker_0, # of connection points: 2
#     Edge 29, Type (0, 1), BuildingBlock: UVAHIK_clean_linker_0, # of connection points: 2
#     Edge 30, Type (0, 1), BuildingBlock: UVAHIK_clean_linker_0, # of connection points: 2
#     Edge 31, Type (0, 1), BuildingBlock: UVAHIK_clean_linker_0, # of connection points: 2
#     Edge 32, Type (0, 1), BuildingBlock: UVAHIK_clean_linker_0, # of connection points: 2
#     Edge 33, Type (0, 1), BuildingBlock: UVAHIK_clean_linker_0, # of connection points: 2
#     Edge 34, Type (0, 1), BuildingBlock: UVAHIK_clean_linker_0, # of connection points: 2
#     Edge 35, Type (0, 1), BuildingBlock: UVAHIK_clean_linker_0, # of connection points: 2
# Relax obj value: 0.019
# Max RMSD: 0.063
# Mean RMSD: 0.024
data_MOF--net-pry--node1-MIDCAF_clean_sbu_0--node2-KAKCAD_clean_linker_0--edge1-UVAHIK_clean_linker_0
_symmetry_space_group_name_H-M    P1
_symmetry_Int_Tables_number       1
_symmetry_cell_setting            triclinic
loop_
_symmetry_equiv_pos_as_xyz
'x, y, z'
_cell_length_a     54.377609
_cell_length_b     54.375832
_cell_length_c     54.324797
_cell_angle_alpha  90.231314
_cell_angle_beta   89.93025
_cell_angle_gamma 90.293546
loop_
_atom_site_label
_atom_site_type_symbol
_atom_site_fract_x
_atom_site_fract_y
_atom_site_fract_z
_atom_type_partial_charge
C0 C 0.15166 0.19311 0.27988 0.0
C1 C 0.16413 0.18584 0.3013 0.0
C2 C 0.16468 0.20234 0.25965 0.0
C3 C 0.19046 0.20443 0.26039 0.0
C4 C 0.20282 0.19788 0.28207 0.0
C5 C 0.18982 0.18876 0.30229 0.0
C6 C 0.20456 0.21253 0.23839 0.0
C7 C 0.1966 0.23253 0.22421 0.0
C8 C 0.20998 0.24013 0.20342 0.0
C9 C 0.23132 0.22731 0.19664 0.0
C10 C 0.23932 0.207 0.21033 0.0
C11 C 0.22594 0.1999 0.23129 0.0
C12 C 0.26109 0.19262 0.20227 0.0
C13 C 0.26411 0.18627 0.17735 0.0
C14 C 0.27861 0.18458 0.21943 0.0
C15 C 0.29862 0.17032 0.21185 0.0
C16 C 0.30139 0.16365 0.18698 0.0
C17 C 0.20162 0.26136 0.1886 0.0
C18 C 0.17701 0.26298 0.18097 0.0
C19 C 0.21825 0.27999 0.18179 0.0
C20 C 0.2104 0.29994 0.16771 0.0
C21 C 0.18585 0.30144 0.15987 0.0
C22 C 0.16924 0.28274 0.1666 0.0
C23 C 0.284 0.17191 0.16981 0.0
H24 H 0.13191 0.19087 0.27839 0.0
H25 H 0.15465 0.20705 0.24313 0.0
H26 H 0.22262 0.19971 0.28338 0.0
H27 H 0.19997 0.18383 0.31867 0.0
H28 H 0.18028 0.24255 0.22968 0.0
H29 H 0.2317 0.18392 0.24161 0.0
H30 H 0.24158 0.23301 0.1805 0.0
H31 H 0.25081 0.19197 0.16372 0.0
H32 H 0.27687 0.18934 0.23873 0.0
H33 H 0.31164 0.16412 0.22553 0.0
H34 H 0.16385 0.24878 0.18583 0.0
H35 H 0.2373 0.27925 0.18756 0.0
H36 H 0.28578 0.16732 0.15047 0.0
H37 H 0.15016 0.28355 0.16097 0.0
H38 H 0.2236 0.31404 0.16269 0.0
C39 C 0.33887 0.84729 0.80691 0.0
C40 C 0.36468 0.84801 0.80524 0.0
C41 C 0.32467 0.83908 0.78699 0.0
C42 C 0.336 0.83131 0.76502 0.0
C43 C 0.36182 0.83157 0.76361 0.0
C44 C 0.37596 0.83975 0.78347 0.0
C45 C 0.32118 0.82363 0.74326 0.0
C46 C 0.30016 0.83683 0.7363 0.0
C47 C 0.2876 0.83095 0.71447 0.0
C48 C 0.29599 0.81154 0.69955 0.0
C49 C 0.31666 0.79779 0.7065 0.0
C50 C 0.32891 0.80387 0.7285 0.0
C51 C 0.32599 0.77732 0.69085 0.0
C52 C 0.30984 0.76019 0.67987 0.0
C53 C 0.35145 0.7742 0.68771 0.0
C54 C 0.3606 0.75387 0.67501 0.0
C55 C 0.34456 0.73621 0.66493 0.0
C56 C 0.26633 0.84591 0.70678 0.0
C57 C 0.24569 0.84818 0.72218 0.0
C58 C 0.26686 0.85855 0.6843 0.0
C59 C 0.24719 0.87351 0.67747 0.0
C60 C 0.22645 0.87561 0.69275 0.0
C61 C 0.22575 0.86268 0.71506 0.0
C62 C 0.31906 0.73984 0.66695 0.0
H63 H 0.3296 0.85371 0.82337 0.0
H64 H 0.30483 0.8389 0.78875 0.0
H65 H 0.37119 0.82602 0.7469 0.0
H66 H 0.3958 0.83981 0.78166 0.0
H67 H 0.29416 0.85239 0.74726 0.0
H68 H 0.34455 0.79306 0.73426 0.0
H69 H 0.28654 0.80734 0.68248 0.0
H70 H 0.29014 0.76204 0.68201 0.0
H71 H 0.3644 0.78737 0.69532 0.0
H72 H 0.38034 0.75185 0.67326 0.0
H73 H 0.24494 0.83859 0.7396 0.0
H74 H 0.28269 0.85717 0.67225 0.0
H75 H 0.30629 0.72648 0.65936 0.0
H76 H 0.20993 0.86408 0.72712 0.0
H77 H 0.24803 0.88323 0.66011 0.0
C78 C 0.79009 0.3764 0.83505 0.0
C79 C 0.8106 0.36346 0.84379 0.0
C80 C 0.76929 0.36383 0.82658 0.0
C81 C 0.76843 0.33799 0.82665 0.0
C82 C 0.78892 0.32499 0.83533 0.0
C83 C 0.80979 0.33759 0.84377 0.0
C84 C 0.74604 0.32478 0.81794 0.0
C85 C 0.73366 0.33284 0.79682 0.0
C86 C 0.71161 0.32162 0.78913 0.0
C87 C 0.70226 0.30166 0.80265 0.0
C88 C 0.71452 0.29313 0.82374 0.0
C89 C 0.73645 0.30478 0.83119 0.0
C90 C 0.70385 0.27281 0.83866 0.0
C91 C 0.67848 0.27204 0.8436 0.0
C92 C 0.71893 0.25435 0.84849 0.0
C93 C 0.70887 0.23562 0.86302 0.0
C94 C 0.68352 0.23502 0.86813 0.0
C95 C 0.69812 0.33137 0.76744 0.0
C96 C 0.69685 0.35688 0.76354 0.0
C97 C 0.68659 0.31548 0.75043 0.0
C98 C 0.67449 0.32492 0.72979 0.0
C99 C 0.67386 0.3504 0.72567 0.0
C100 C 0.68497 0.36625 0.74289 0.0
C101 C 0.66845 0.25338 0.85812 0.0
H102 H 0.78987 0.39632 0.83526 0.0
H103 H 0.75364 0.3744 0.82043 0.0
H104 H 0.78892 0.30507 0.83537 0.0
H105 H 0.82538 0.32704 0.85009 0.0
H106 H 0.74137 0.34786 0.78621 0.0
H107 H 0.74551 0.29892 0.8479 0.0
H108 H 0.68521 0.29296 0.79696 0.0
H109 H 0.66638 0.28612 0.83657 0.0
H110 H 0.73852 0.25432 0.84487 0.0
H111 H 0.721 0.22185 0.87058 0.0
H112 H 0.70493 0.36971 0.77655 0.0
H113 H 0.68737 0.29573 0.75276 0.0
H114 H 0.6488 0.25328 0.8614 0.0
H115 H 0.68434 0.38601 0.74048 0.0
H116 H 0.66615 0.31228 0.71676 0.0
C117 C 0.84738 0.68748 0.23075 0.0
C118 C 0.8732 0.68775 0.23237 0.0
C119 C 0.833 0.69746 0.24963 0.0
C120 C 0.84408 0.70794 0.27059 0.0
C121 C 0.8699 0.70836 0.27212 0.0
C122 C 0.88427 0.69843 0.25323 0.0
C123 C 0.82881 0.71823 0.29089 0.0
C124 C 0.80738 0.70593 0.29876 0.0
C125 C 0.79316 0.71526 0.31828 0.0
C126 C 0.80051 0.73735 0.32974 0.0
C127 C 0.822 0.74969 0.3224 0.0
C128 C 0.83596 0.74009 0.30289 0.0
C129 C 0.83043 0.77196 0.33594 0.0
C130 C 0.81381 0.79066 0.34233 0.0
C131 C 0.85506 0.77413 0.34346 0.0
C132 C 0.86279 0.79429 0.35753 0.0
C133 C 0.84611 0.81281 0.36424 0.0
C134 C 0.77115 0.70163 0.3274 0.0
C135 C 0.75479 0.68992 0.31098 0.0
C136 C 0.76628 0.70038 0.35279 0.0
C137 C 0.74529 0.68841 0.36152 0.0
C138 C 0.72871 0.67714 0.34513 0.0
C139 C 0.73382 0.6777 0.31978 0.0
C140 C 0.8216 0.81096 0.35624 0.0
H141 H 0.83823 0.67915 0.21509 0.0
H142 H 0.81318 0.69706 0.24775 0.0
H143 H 0.87906 0.71603 0.28811 0.0
H144 H 0.90409 0.69919 0.25498 0.0
H145 H 0.80228 0.68857 0.29028 0.0
H146 H 0.8523 0.74986 0.29686 0.0
H147 H 0.78971 0.74477 0.34479 0.0
H148 H 0.79475 0.78954 0.33664 0.0
H149 H 0.86824 0.75992 0.339 0.0
H150 H 0.88186 0.79535 0.36321 0.0
H151 H 0.75789 0.69065 0.2913 0.0
H152 H 0.77878 0.70856 0.36603 0.0
H153 H 0.80832 0.8249 0.36122 0.0
H154 H 0.72129 0.66923 0.30674 0.0
H155 H 0.7421 0.68783 0.3812 0.0
C156 C 0.9702 0.92657 0.83948 0.0
C157 C 0.97216 0.9516 0.83335 0.0
C158 C 0.95782 0.91921 0.86077 0.0
C159 C 0.94736 0.9367 0.87678 0.0
C160 C 0.94984 0.96177 0.87099 0.0
C161 C 0.96196 0.96912 0.8495 0.0
C162 C 0.93336 0.92867 0.89899 0.0
C163 C 0.94074 0.90784 0.91223 0.0
C164 C 0.92669 0.89893 0.93198 0.0
C165 C 0.90539 0.91153 0.93914 0.0
C166 C 0.89759 0.93244 0.92618 0.0
C167 C 0.91174 0.9409 0.90619 0.0
C168 C 0.87375 0.94433 0.93223 0.0
C169 C 0.85286 0.92988 0.9373 0.0
C170 C 0.87141 0.97009 0.93207 0.0
C171 C 0.84863 0.9811 0.93661 0.0
C172 C 0.82768 0.96659 0.94127 0.0
C173 C 0.93325 0.87526 0.94363 0.0
C174 C 0.93787 0.85466 0.92875 0.0
C175 C 0.9346 0.87288 0.96933 0.0
C176 C 0.94098 0.85032 0.97991 0.0
C177 C 0.94581 0.82967 0.96496 0.0
C178 C 0.94388 0.83214 0.93925 0.0
C179 C 0.83013 0.94087 0.94177 0.0
H180 H 0.9781 0.91254 0.82774 0.0
H181 H 0.95601 0.89971 0.86434 0.0
H182 H 0.9423 0.97578 0.883 0.0
H183 H 0.9628 0.98856 0.8453 0.0
H184 H 0.95743 0.89828 0.9071 0.0
H185 H 0.90521 0.95629 0.89548 0.0
H186 H 0.89446 0.90457 0.95431 0.0
H187 H 0.85392 0.91 0.93727 0.0
H188 H 0.8872 0.98173 0.92839 0.0
H189 H 0.84733 0.00096 0.93598 0.0
H190 H 0.93644 0.85586 0.90889 0.0
H191 H 0.93113 0.88855 0.98119 0.0
H192 H 0.81444 0.92916 0.94567 0.0
H193 H 0.9467 0.81656 0.92711 0.0
H194 H 0.94248 0.8492 0.99974 0.0
C195 C 0.57511 0.0765 0.35011 0.0
C196 C 0.57072 0.0948 0.33244 0.0
C197 C 0.58618 0.08252 0.37263 0.0
C198 C 0.59293 0.10697 0.37797 0.0
C199 C 0.58808 0.12526 0.36043 0.0
C200 C 0.57708 0.11926 0.338 0.0
C201 C 0.60567 0.11353 0.40132 0.0
C202 C 0.62496 0.09895 0.4103 0.0
C203 C 0.63881 0.10663 0.43082 0.0
C204 C 0.6327 0.12871 0.44287 0.0
C205 C 0.61349 0.14336 0.43416 0.0
C206 C 0.59997 0.13559 0.41356 0.0
C207 C 0.6089 0.16789 0.44503 0.0
C208 C 0.60414 0.17075 0.47027 0.0
C209 C 0.60938 0.18871 0.42991 0.0
C210 C 0.60494 0.21199 0.43972 0.0
C211 C 0.5994 0.21502 0.46488 0.0
C212 C 0.66123 0.09304 0.43803 0.0
C213 C 0.66081 0.06737 0.44102 0.0
C214 C 0.68354 0.1058 0.44109 0.0
C215 C 0.70505 0.09318 0.44681 0.0
C216 C 0.70471 0.06755 0.44982 0.0
C217 C 0.68234 0.05474 0.44712 0.0
C218 C 0.59922 0.19409 0.48009 0.0
H219 H 0.57058 0.05745 0.34629 0.0
H220 H 0.58952 0.06805 0.38582 0.0
H221 H 0.59334 0.14423 0.36375 0.0
H222 H 0.5737 0.13383 0.32492 0.0
H223 H 0.63024 0.08244 0.40042 0.0
H224 H 0.58514 0.14702 0.40688 0.0
H225 H 0.64353 0.13499 0.45844 0.0
H226 H 0.60369 0.15489 0.48227 0.0
H227 H 0.61347 0.18699 0.41045 0.0
H228 H 0.60602 0.22765 0.42751 0.0
H229 H 0.64382 0.05712 0.43876 0.0
H230 H 0.68447 0.12554 0.4386 0.0
H231 H 0.59479 0.19559 0.49947 0.0
H232 H 0.68162 0.03496 0.44932 0.0
H233 H 0.72198 0.10354 0.44904 0.0
C234 C 0.33968 0.57987 0.10356 0.0
C235 C 0.33671 0.56992 0.07977 0.0
C236 C 0.36209 0.59025 0.11079 0.0
C237 C 0.38197 0.59126 0.09434 0.0
C238 C 0.37912 0.58153 0.07054 0.0
C239 C 0.3568 0.57079 0.06339 0.0
C240 C 0.40564 0.60244 0.10209 0.0
C241 C 0.41633 0.59564 0.12451 0.0
C242 C 0.43842 0.60647 0.1324 0.0
C243 C 0.44994 0.62416 0.11755 0.0
C244 C 0.43894 0.63216 0.09551 0.0
C245 C 0.41692 0.62075 0.08775 0.0
C246 C 0.44921 0.65374 0.08188 0.0
C247 C 0.4607 0.67312 0.09485 0.0
C248 C 0.44653 0.65597 0.05615 0.0
C249 C 0.45453 0.67723 0.04395 0.0
C250 C 0.46592 0.69634 0.05713 0.0
C251 C 0.44831 0.60075 0.15711 0.0
C252 C 0.4329 0.60232 0.17777 0.0
C253 C 0.47308 0.59438 0.16036 0.0
C254 C 0.48216 0.58928 0.1839 0.0
C255 C 0.46672 0.59084 0.20469 0.0
C256 C 0.44201 0.59764 0.20126 0.0
C257 C 0.46919 0.69397 0.08258 0.0
H258 H 0.32455 0.58012 0.11653 0.0
H259 H 0.36373 0.59792 0.12916 0.0
H260 H 0.39429 0.58191 0.05759 0.0
H261 H 0.35541 0.56299 0.04508 0.0
H262 H 0.40746 0.58184 0.13586 0.0
H263 H 0.40773 0.6269 0.07122 0.0
H264 H 0.46704 0.63236 0.1238 0.0
H265 H 0.46251 0.67269 0.11468 0.0
H266 H 0.43816 0.64138 0.04539 0.0
H267 H 0.45187 0.67873 0.02425 0.0
H268 H 0.41384 0.60767 0.1758 0.0
H269 H 0.4853 0.59301 0.14466 0.0
H270 H 0.47761 0.7087 0.09316 0.0
H271 H 0.42968 0.59972 0.21678 0.0
H272 H 0.50118 0.58381 0.18572 0.0
C273 C 0.11368 0.333 0.57515 0.0
C274 C 0.09046 0.33081 0.56388 0.0
C275 C 0.12028 0.3544 0.58785 0.0
C276 C 0.10373 0.374 0.58997 0.0
C277 C 0.0805 0.37195 0.57892 0.0
C278 C 0.07401 0.35068 0.56581 0.0
C279 C 0.11085 0.39642 0.60386 0.0
C280 C 0.13349 0.40793 0.59902 0.0
C281 C 0.1412 0.42832 0.61292 0.0
C282 C 0.12626 0.43703 0.63207 0.0
C283 C 0.10383 0.42531 0.63761 0.0
C284 C 0.09592 0.40538 0.62301 0.0
C285 C 0.09001 0.43234 0.66011 0.0
C286 C 0.10257 0.43505 0.68254 0.0
C287 C 0.06439 0.43564 0.65965 0.0
C288 C 0.05163 0.44172 0.68125 0.0
C289 C 0.06425 0.44412 0.70371 0.0
C290 C 0.16562 0.43949 0.60839 0.0
C291 C 0.18669 0.42476 0.60879 0.0
C292 C 0.16806 0.46473 0.60366 0.0
C293 C 0.19122 0.47497 0.59877 0.0
C294 C 0.21244 0.46021 0.59896 0.0
C295 C 0.20984 0.43502 0.6044 0.0
C296 C 0.08984 0.44078 0.70409 0.0
H297 H 0.12666 0.31798 0.57468 0.0
H298 H 0.13821 0.35541 0.5965 0.0
H299 H 0.0675 0.38694 0.58016 0.0
H300 H 0.05613 0.34992 0.55709 0.0
H301 H 0.14515 0.40101 0.58437 0.0
H302 H 0.07891 0.3959 0.62746 0.0
H303 H 0.13254 0.45239 0.64323 0.0
H304 H 0.12227 0.43231 0.68352 0.0
H305 H 0.05428 0.43366 0.64257 0.0
H306 H 0.0319 0.44417 0.68048 0.0
H307 H 0.18526 0.40529 0.61278 0.0
H308 H 0.15199 0.47641 0.60322 0.0
H309 H 0.10009 0.4428 0.72108 0.0
H310 H 0.22571 0.42313 0.60543 0.0
H311 H 0.19237 0.49434 0.59436 0.0
Zn312 Zn 0.97541 0.06352 0.56057 0.0
Zn313 Zn 0.03072 0.9995 0.50882 0.0
Zn314 Zn 0.00331 0.03346 0.53301 0.0
C315 C 0.04211 0.04767 0.49087 0.0
C316 C 0.98125 0.98928 0.49887 0.0
O317 O 0.01096 0.0276 0.57268 0.0
O318 O 0.98974 0.05571 0.59317 0.0
C319 C 0.00448 0.0925 0.52849 0.0
O320 O 0.02612 0.05452 0.50697 0.0
O321 O 0.04745 0.02517 0.4884 0.0
O322 O 0.00246 0.98068 0.4952 0.0
O323 O 0.97828 0.00893 0.51188 0.0
O324 O 0.98693 0.0938 0.5437 0.0
O325 O 0.01347 0.07144 0.52239 0.0
O326 O 0.96402 0.02616 0.52496 0.0
O327 O 0.94299 0.04896 0.55148 0.0
C328 C 0.94342 0.03335 0.53423 0.0
O329 O 0.02684 0.01255 0.55912 0.0
O330 O 0.048 0.9853 0.53742 0.0
C331 C 0.00462 0.03798 0.5931 0.0
C332 C 0.04271 0.99503 0.55785 0.0
Zn333 Zn 0.50008 0.03065 0.00612 0.0
Zn334 Zn 0.56071 0.98198 0.05895 0.0
Zn335 Zn 0.52949 0.00575 0.03143 0.0
C336 C 0.58823 0.00447 0.02258 0.0
C337 C 0.52753 0.94758 0.03895 0.0
O338 O 0.50444 0.02606 0.0567 0.0
O339 O 0.47426 0.03589 0.03146 0.0
C340 C 0.54508 0.05255 0.99928 0.0
O341 O 0.56724 0.01463 0.01867 0.0
O342 O 0.59036 0.98766 0.03836 0.0
O343 O 0.54282 0.9501 0.05627 0.0
O344 O 0.52148 0.96618 0.02569 0.0
O345 O 0.52267 0.05843 0.99851 0.0
O346 O 0.55141 0.03183 0.00876 0.0
O347 O 0.50868 0.9794 0.00797 0.0
O348 O 0.49435 0.00534 0.98033 0.0
C349 C 0.49784 0.98353 0.98734 0.0
O350 O 0.52361 0.01645 0.07049 0.0
O351 O 0.55652 0.00179 0.08932 0.0
C352 C 0.4827 0.0347 0.05305 0.0
C353 C 0.53706 0.0143 0.08989 0.0
Zn354 Zn 0.53669 0.54193 0.53529 0.0
Zn355 Zn 0.4801 0.48266 0.47934 0.0
Zn356 Zn 0.50875 0.51269 0.50735 0.0
C357 C 0.51231 0.45302 0.50621 0.0
C358 C 0.50637 0.51384 0.44761 0.0
O359 O 0.48434 0.5347 0.53168 0.0
O360 O 0.50979 0.55581 0.5556 0.0
C361 C 0.5516 0.49396 0.54453 0.0
O362 O 0.52032 0.47425 0.5133 0.0
O363 O 0.4939 0.45135 0.49213 0.0
O364 O 0.49216 0.49539 0.44717 0.0
O365 O 0.51396 0.5228 0.46828 0.0
O366 O 0.55759 0.51586 0.54958 0.0
O367 O 0.53381 0.48944 0.52948 0.0
O368 O 0.53001 0.53728 0.48262 0.0
O369 O 0.55013 0.5621 0.50805 0.0
C370 C 0.54483 0.55548 0.48638 0.0
O371 O 0.46998 0.5175 0.51853 0.0
O372 O 0.44816 0.49462 0.49263 0.0
C373 C 0.48813 0.55019 0.54932 0.0
C374 C 0.44911 0.50935 0.51065 0.0
Zn375 Zn 0.05725 0.56291 0.97284 0.0
Zn376 Zn 0.00764 0.50145 0.0293 0.0
Zn377 Zn 0.03289 0.53125 0.00183 0.0
C378 C 0.05637 0.48695 0.03241 0.0
C379 C 0.98918 0.49588 0.98253 0.0
O380 O 0.02122 0.56937 0.01086 0.0
O381 O 0.04525 0.59361 0.9885 0.0
C382 C 0.09224 0.5354 0.9987 0.0
O383 O 0.05947 0.50797 0.02193 0.0
O384 O 0.03504 0.47821 0.03543 0.0
O385 O 0.98223 0.49253 0.00444 0.0
O386 O 0.00898 0.50818 0.97799 0.0
O387 O 0.09053 0.55094 0.98157 0.0
O388 O 0.07272 0.52632 0.00875 0.0
O389 O 0.02442 0.52259 0.96281 0.0
O390 O 0.04237 0.5521 0.94111 0.0
C391 C 0.02929 0.53288 0.94201 0.0
O392 O 0.01083 0.55329 0.02823 0.0
O393 O 0.99931 0.52549 0.05561 0.0
C394 C 0.02834 0.59102 0.00422 0.0
C395 C 0.00081 0.54765 0.04898 0.0
C396 C 0.16084 0.15362 0.33401 0.0
C397 C 0.15066 0.17403 0.32204 0.0
C398 C 0.14808 0.14181 0.3529 0.0
C399 C 0.09806 0.14904 0.39838 0.0
H400 H 0.10012 0.07777 0.39837 0.0
C401 C 0.04156 0.08596 0.4651 0.0
C402 C 0.05425 0.06558 0.47442 0.0
C403 C 0.05257 0.10114 0.44736 0.0
C404 C 0.09954 0.09767 0.39879 0.0
H405 H 0.11917 0.19832 0.32094 0.0
H406 H 0.09662 0.17734 0.35383 0.0
H407 H 0.12034 0.10038 0.36554 0.0
H408 H 0.08852 0.04545 0.47315 0.0
H409 H 0.10768 0.07181 0.44244 0.0
H410 H 0.07712 0.14608 0.43182 0.0
C411 C 0.11463 0.17065 0.34864 0.0
C412 C 0.11115 0.11065 0.37996 0.0
C413 C 0.12743 0.18251 0.32964 0.0
C414 C 0.07827 0.061 0.4662 0.0
C415 C 0.0892 0.07602 0.44853 0.0
C416 C 0.08635 0.13597 0.41731 0.0
C417 C 0.12472 0.14999 0.36029 0.0
C418 C 0.11094 0.13648 0.37971 0.0
C419 C 0.0763 0.09593 0.43848 0.0
C420 C 0.08736 0.11015 0.41791 0.0
H421 H 0.17853 0.14637 0.32846 0.0
H422 H 0.15656 0.12617 0.36172 0.0
H423 H 0.09764 0.16894 0.39875 0.0
H424 H 0.02285 0.08962 0.47081 0.0
H425 H 0.04213 0.11628 0.43988 0.0
C426 C 0.37456 0.8533 0.85033 0.0
C427 C 0.37983 0.85853 0.82552 0.0
C428 C 0.38856 0.86399 0.86924 0.0
C429 C 0.42695 0.91838 0.88114 0.0
H430 H 0.45135 0.88284 0.9378 0.0
C431 C 0.49419 0.96513 0.94588 0.0
C432 C 0.48941 0.96344 0.97117 0.0
C433 C 0.4826 0.94928 0.92933 0.0
C434 C 0.44447 0.89301 0.92218 0.0
H435 H 0.40395 0.87905 0.80118 0.0
H436 H 0.42839 0.89736 0.83396 0.0
H437 H 0.42679 0.86116 0.90653 0.0
H438 H 0.46978 0.94327 0.99932 0.0
H439 H 0.44893 0.91548 0.97015 0.0
H440 H 0.44413 0.9502 0.89656 0.0
C441 C 0.4134 0.88511 0.83886 0.0
C442 C 0.43043 0.88063 0.90431 0.0
C443 C 0.39954 0.87441 0.82005 0.0
C444 C 0.47386 0.94471 0.97986 0.0
C445 C 0.46196 0.92888 0.96317 0.0
C446 C 0.44082 0.93069 0.8989 0.0
C447 C 0.40792 0.88028 0.86367 0.0
C448 C 0.42185 0.89317 0.88342 0.0
C449 C 0.46552 0.93168 0.93764 0.0
C450 C 0.45012 0.91813 0.91943 0.0
H451 H 0.35962 0.84096 0.85512 0.0
H452 H 0.38385 0.86001 0.88819 0.0
H453 H 0.42008 0.9287 0.8656 0.0
H454 H 0.50625 0.97938 0.9388 0.0
H455 H 0.48631 0.95148 0.90987 0.0
C456 C 0.63845 0.35295 0.69596 0.0
C457 C 0.662 0.36073 0.70342 0.0
C458 C 0.62665 0.36441 0.67619 0.0
C459 C 0.62749 0.42356 0.64341 0.0
H460 H 0.5872 0.39022 0.59462 0.0
C461 C 0.58992 0.47675 0.56205 0.0
C462 C 0.56477 0.47396 0.55706 0.0
C463 C 0.60199 0.46011 0.57721 0.0
C464 C 0.59829 0.39974 0.60823 0.0
H465 H 0.6923 0.38535 0.69505 0.0
H466 H 0.67198 0.40505 0.66054 0.0
H467 H 0.60801 0.36624 0.62655 0.0
H468 H 0.53258 0.45121 0.5633 0.0
H469 H 0.55377 0.4219 0.59006 0.0
H470 H 0.61782 0.45697 0.62549 0.0
C471 C 0.66226 0.39065 0.67031 0.0
C472 C 0.61017 0.38604 0.6265 0.0
C473 C 0.67394 0.37934 0.69006 0.0
C474 C 0.55209 0.45354 0.56662 0.0
C475 C 0.56421 0.43682 0.58193 0.0
C476 C 0.61575 0.43714 0.62525 0.0
C477 C 0.63825 0.38377 0.6635 0.0
C478 C 0.62511 0.39784 0.64416 0.0
C479 C 0.58911 0.44046 0.58804 0.0
C480 C 0.60122 0.42543 0.60728 0.0
H481 H 0.6288 0.33867 0.70599 0.0
H482 H 0.60811 0.35876 0.67148 0.0
H483 H 0.63825 0.43334 0.65711 0.0
H484 H 0.60013 0.49228 0.55479 0.0
H485 H 0.62131 0.46311 0.58112 0.0
C486 C 0.88223 0.67887 0.18773 0.0
C487 C 0.88849 0.67633 0.21271 0.0
C488 C 0.89614 0.66731 0.16938 0.0
C489 C 0.93832 0.61514 0.16071 0.0
H490 H 0.95288 0.64587 0.098 0.0
C491 C 0.99999 0.5671 0.09027 0.0
C492 C 0.99169 0.56673 0.06586 0.0
C493 C 0.98934 0.58289 0.1075 0.0
C494 C 0.94882 0.63702 0.11537 0.0
H495 H 0.91448 0.65978 0.2379 0.0
H496 H 0.93898 0.64014 0.20597 0.0
H497 H 0.93042 0.66885 0.12959 0.0
H498 H 0.96562 0.58201 0.04024 0.0
H499 H 0.94701 0.61008 0.07028 0.0
H500 H 0.95638 0.58329 0.14658 0.0
C501 C 0.92314 0.65082 0.20055 0.0
C502 C 0.93594 0.65015 0.13345 0.0
C503 C 0.90925 0.66233 0.21885 0.0
C504 C 0.97293 0.58277 0.05874 0.0
C505 C 0.96218 0.59862 0.07601 0.0
C506 C 0.95117 0.60208 0.14272 0.0
C507 C 0.91661 0.65292 0.17561 0.0
C508 C 0.93057 0.63935 0.15635 0.0
C509 C 0.96989 0.59841 0.10074 0.0
C510 C 0.95663 0.61284 0.11985 0.0
H511 H 0.86655 0.68978 0.18233 0.0
H512 H 0.89049 0.66917 0.15038 0.0
H513 H 0.93404 0.60605 0.17789 0.0
H514 H 0.01439 0.55474 0.09614 0.0
H515 H 0.99599 0.58255 0.12628 0.0
C516 C 0.31798 0.12851 0.16212 0.0
C517 C 0.32211 0.14781 0.1789 0.0
C518 C 0.33744 0.114 0.15385 0.0
C519 C 0.40415 0.1155 0.14433 0.0
H520 H 0.39487 0.04575 0.13214 0.0
C521 C 0.47713 0.05742 0.09294 0.0
C522 C 0.46724 0.04333 0.07361 0.0
C523 C 0.46163 0.06776 0.1108 0.0
C524 C 0.39777 0.0652 0.13548 0.0
H525 H 0.34993 0.16685 0.20038 0.0
H526 H 0.38404 0.14137 0.18593 0.0
H527 H 0.36326 0.06879 0.1541 0.0
H528 H 0.43368 0.02851 0.05793 0.0
H529 H 0.4067 0.04652 0.08878 0.0
H530 H 0.43829 0.11207 0.12494 0.0
C531 C 0.36569 0.13756 0.17914 0.0
C532 C 0.37965 0.0784 0.14801 0.0
C533 C 0.34615 0.15203 0.18754 0.0
C534 C 0.44177 0.03921 0.07275 0.0
C535 C 0.42635 0.04937 0.09056 0.0
C536 C 0.4223 0.10228 0.13177 0.0
C537 C 0.36156 0.11845 0.1621 0.0
C538 C 0.38229 0.10385 0.15193 0.0
C539 C 0.43601 0.06412 0.10957 0.0
C540 C 0.41896 0.07713 0.12654 0.0
H541 H 0.29964 0.1246 0.15534 0.0
H542 H 0.33364 0.09964 0.14049 0.0
H543 H 0.40669 0.13511 0.14692 0.0
H544 H 0.49664 0.06138 0.09361 0.0
H545 H 0.46963 0.07901 0.12525 0.0
C546 C 0.20905 0.91608 0.67994 0.0
C547 C 0.20549 0.89109 0.68522 0.0
C548 C 0.18942 0.9305 0.67191 0.0
C549 C 0.12067 0.92971 0.6634 0.0
H550 H 0.13579 0.97863 0.61383 0.0
C551 C 0.05769 0.96104 0.58417 0.0
C552 C 0.05558 0.98638 0.57997 0.0
C553 C 0.07305 0.95234 0.60273 0.0
C554 C 0.13133 0.96535 0.62799 0.0
H555 H 0.17885 0.86147 0.68645 0.0
H556 H 0.14485 0.88606 0.67116 0.0
H557 H 0.16911 0.95747 0.63447 0.0
H558 H 0.06703 0.02261 0.59215 0.0
H559 H 0.09489 0.00725 0.62421 0.0
H560 H 0.08268 0.9365 0.65511 0.0
C561 C 0.16243 0.89502 0.67406 0.0
C562 C 0.15045 0.95319 0.63996 0.0
C563 C 0.18195 0.88078 0.68263 0.0
C564 C 0.0683 0.00298 0.59523 0.0
C565 C 0.0842 0.99424 0.61345 0.0
C566 C 0.10155 0.94152 0.65099 0.0
C567 C 0.16588 0.92009 0.66838 0.0
C568 C 0.14544 0.93482 0.65753 0.0
C569 C 0.08706 0.96881 0.61696 0.0
C570 C 0.10676 0.95916 0.63293 0.0
H571 H 0.22705 0.92446 0.68208 0.0
H572 H 0.19283 0.94979 0.66837 0.0
H573 H 0.11594 0.91622 0.67723 0.0
H574 H 0.04807 0.94794 0.57253 0.0
H575 H 0.07513 0.93266 0.60495 0.0
C576 C 0.84449 0.3689 0.8748 0.0
C577 C 0.83242 0.37699 0.85346 0.0
C578 C 0.86413 0.38234 0.88467 0.0
C579 C 0.88933 0.44503 0.88704 0.0
H580 H 0.94525 0.41295 0.91705 0.0
C581 C 0.9487 0.49032 0.96217 0.0
C582 C 0.97405 0.48576 0.96248 0.0
C583 C 0.9336 0.47874 0.94485 0.0
C584 C 0.92997 0.42225 0.90843 0.0
H585 H 0.83226 0.40513 0.82524 0.0
H586 H 0.86642 0.42869 0.84263 0.0
H587 H 0.91524 0.38853 0.89408 0.0
H588 H 0.00351 0.46516 0.94565 0.0
H589 H 0.97724 0.44522 0.91472 0.0
H590 H 0.90387 0.47871 0.9017 0.0
C591 C 0.86045 0.41208 0.85187 0.0
C592 C 0.91262 0.40821 0.89552 0.0
C593 C 0.84085 0.39859 0.84195 0.0
C594 C 0.98416 0.46963 0.94506 0.0
C595 C 0.96904 0.45793 0.92772 0.0
C596 C 0.90663 0.45906 0.90002 0.0
C597 C 0.87216 0.40423 0.87349 0.0
C598 C 0.89185 0.41938 0.88509 0.0
C599 C 0.94352 0.46209 0.92768 0.0
C600 C 0.92688 0.44776 0.91128 0.0
H601 H 0.83827 0.35256 0.88435 0.0
H602 H 0.87248 0.37599 0.90157 0.0
H603 H 0.87347 0.4542 0.87935 0.0
H604 H 0.9405 0.50248 0.9757 0.0
H605 H 0.91399 0.48204 0.94562 0.0
C606 C 0.699 0.64152 0.34708 0.0
C607 C 0.70607 0.66525 0.35476 0.0
C608 C 0.67882 0.62969 0.35803 0.0
C609 C 0.64389 0.63111 0.41612 0.0
H610 H 0.59654 0.5897 0.38203 0.0
C611 C 0.56135 0.59376 0.4679 0.0
C612 C 0.55691 0.56842 0.46583 0.0
C613 C 0.57662 0.60571 0.45112 0.0
C614 C 0.60973 0.60112 0.39175 0.0
H615 H 0.69662 0.69583 0.37858 0.0
H616 H 0.66139 0.67548 0.39736 0.0
H617 H 0.62923 0.61043 0.35863 0.0
H618 H 0.56396 0.53579 0.44401 0.0
H619 H 0.59101 0.55676 0.41449 0.0
H620 H 0.62482 0.62187 0.44915 0.0
C621 C 0.67176 0.66564 0.38346 0.0
C622 C 0.62844 0.61295 0.37839 0.0
C623 C 0.69192 0.67734 0.37268 0.0
C624 C 0.56691 0.55543 0.44581 0.0
C625 C 0.58239 0.56742 0.42897 0.0
C626 C 0.6253 0.61943 0.42935 0.0
C627 C 0.66533 0.64145 0.37676 0.0
C628 C 0.64557 0.6283 0.39045 0.0
C629 C 0.58813 0.59251 0.43207 0.0
C630 C 0.60782 0.60453 0.41736 0.0
H631 H 0.70963 0.63177 0.33332 0.0
H632 H 0.67441 0.61102 0.35253 0.0
H633 H 0.65717 0.64219 0.42612 0.0
H634 H 0.5537 0.60421 0.4831 0.0
H635 H 0.58021 0.62517 0.45366 0.0
C636 C 0.16322 0.31854 0.12364 0.0
C637 C 0.17749 0.32252 0.14485 0.0
C638 C 0.15477 0.33841 0.10983 0.0
C639 C 0.13747 0.4026 0.11612 0.0
H640 H 0.13995 0.40314 0.04479 0.0
C641 C 0.09045 0.47983 0.06208 0.0
C642 C 0.07728 0.47241 0.04117 0.0
C643 C 0.10736 0.46394 0.073 0.0
C644 C 0.13893 0.40323 0.0647 0.0
H645 H 0.19421 0.35035 0.16817 0.0
H646 H 0.17908 0.38517 0.1442 0.0
H647 H 0.1601 0.37017 0.06739 0.0
H648 H 0.07081 0.44269 0.01541 0.0
H649 H 0.0996 0.41455 0.03475 0.0
H650 H 0.1153 0.43476 0.11367 0.0
C651 C 0.1746 0.36665 0.13822 0.0
C652 C 0.15055 0.38437 0.07761 0.0
C653 C 0.18335 0.34676 0.15183 0.0
C654 C 0.08132 0.44898 0.03119 0.0
C655 C 0.09792 0.43294 0.04226 0.0
C656 C 0.12556 0.42126 0.10324 0.0
C657 C 0.16015 0.36267 0.11713 0.0
C658 C 0.14964 0.38369 0.10344 0.0
C659 C 0.11079 0.43998 0.06365 0.0
C660 C 0.1258 0.42165 0.07732 0.0
H661 H 0.1586 0.30004 0.11774 0.0
H662 H 0.14348 0.33481 0.09379 0.0
H663 H 0.13624 0.40239 0.13603 0.0
H664 H 0.08675 0.49739 0.07075 0.0
H665 H 0.11707 0.47015 0.08928 0.0
C666 C 0.65436 0.22136 0.9012 0.0
C667 C 0.67267 0.21547 0.88391 0.0
C668 C 0.64299 0.20297 0.91504 0.0
C669 C 0.64822 0.13885 0.93648 0.0
H670 H 0.57721 0.14347 0.94066 0.0
C671 C 0.58406 0.06188 0.97612 0.0
C672 C 0.56348 0.06997 0.98947 0.0
C673 C 0.59964 0.07893 0.96454 0.0
C674 C 0.59706 0.14204 0.94001 0.0
H675 H 0.69392 0.18562 0.86818 0.0
H676 H 0.674 0.15339 0.89252 0.0
H677 H 0.60019 0.17449 0.91821 0.0
H678 H 0.5437 0.10202 0.00233 0.0
H679 H 0.57092 0.13165 0.98271 0.0
H680 H 0.64488 0.10623 0.95843 0.0
C681 C 0.66858 0.17233 0.89538 0.0
C682 C 0.61024 0.15984 0.92708 0.0
C683 C 0.67997 0.19079 0.88144 0.0
C684 C 0.55931 0.09529 0.99191 0.0
C685 C 0.57484 0.11225 0.98056 0.0
C686 C 0.63496 0.12097 0.94957 0.0
C687 C 0.64965 0.1782 0.912 0.0
C688 C 0.63597 0.15865 0.92537 0.0
C689 C 0.59477 0.10431 0.96613 0.0
C690 C 0.60923 0.12257 0.95172 0.0
H691 H 0.64871 0.24024 0.90399 0.0
H692 H 0.62883 0.20815 0.92809 0.0
H693 H 0.66806 0.13748 0.93551 0.0
H694 H 0.58735 0.04244 0.97354 0.0
H695 H 0.61476 0.0722 0.95346 0.0
C696 C 0.84769 0.85798 0.37437 0.0
C697 C 0.85424 0.83367 0.38003 0.0
C698 C 0.85613 0.87758 0.38892 0.0
C699 C 0.88206 0.89238 0.45019 0.0
H700 H 0.91396 0.94684 0.41689 0.0
C701 C 0.95758 0.9505 0.49519 0.0
C702 C 0.96006 0.97543 0.48926 0.0
C703 C 0.93949 0.93607 0.48396 0.0
C704 C 0.90464 0.9321 0.42655 0.0
H705 H 0.874 0.81077 0.40581 0.0
H706 H 0.88879 0.84488 0.43108 0.0
H707 H 0.89182 0.91588 0.3929 0.0
H708 H 0.94611 0.00494 0.46683 0.0
H709 H 0.91374 0.97988 0.44748 0.0
H710 H 0.8954 0.9082 0.48378 0.0
C711 C 0.87711 0.84884 0.41546 0.0
C712 C 0.892 0.91431 0.41277 0.0
C713 C 0.86889 0.82932 0.40082 0.0
C714 C 0.9439 0.98593 0.47224 0.0
C715 C 0.92571 0.97147 0.46092 0.0
C716 C 0.89458 0.91021 0.46397 0.0
C717 C 0.871 0.87321 0.40958 0.0
C718 C 0.88124 0.89387 0.42439 0.0
C719 C 0.92361 0.94624 0.46635 0.0
C720 C 0.9067 0.92985 0.45225 0.0
H721 H 0.8365 0.86188 0.35839 0.0
H722 H 0.85106 0.89616 0.384 0.0
H723 H 0.87353 0.87708 0.4597 0.0
H724 H 0.97012 0.94199 0.50805 0.0
H725 H 0.93878 0.91665 0.48826 0.0
C726 C 0.37367 0.7009 0.66526 0.0
C727 C 0.35476 0.71368 0.65336 0.0
C728 C 0.38482 0.68077 0.65398 0.0
C729 C 0.37947 0.63467 0.60383 0.0
H730 H 0.45046 0.6341 0.61037 0.0
C731 C 0.44725 0.57142 0.54858 0.0
C732 C 0.46761 0.56277 0.56183 0.0
C733 C 0.43032 0.58729 0.55983 0.0
C734 C 0.43062 0.63376 0.6086 0.0
H735 H 0.33195 0.71478 0.62073 0.0
H736 H 0.35183 0.67957 0.60064 0.0
H737 H 0.42707 0.6669 0.62938 0.0
H738 H 0.4854 0.56245 0.59746 0.0
H739 H 0.45588 0.58974 0.61711 0.0
H740 H 0.38342 0.60144 0.58259 0.0
C741 C 0.35784 0.68508 0.61885 0.0
C742 C 0.41718 0.6526 0.61953 0.0
C743 C 0.34651 0.70525 0.63029 0.0
C744 C 0.46996 0.56902 0.58679 0.0
C745 C 0.45312 0.58472 0.59799 0.0
C746 C 0.39304 0.61571 0.59274 0.0
C747 C 0.37751 0.67297 0.63038 0.0
C748 C 0.39142 0.65314 0.61764 0.0
C749 C 0.43368 0.59482 0.58441 0.0
C750 C 0.41875 0.6149 0.59538 0.0
H751 H 0.38002 0.70662 0.6833 0.0
H752 H 0.39944 0.67147 0.66368 0.0
H753 H 0.35964 0.63456 0.60205 0.0
H754 H 0.44522 0.5671 0.52921 0.0
H755 H 0.41553 0.59481 0.5489 0.0
C756 C 0.9806 0.94512 0.78824 0.0
C757 C 0.98382 0.95932 0.80974 0.0
C758 C 0.99015 0.95306 0.76573 0.0
C759 C 0.00376 0.00939 0.73326 0.0
H760 H 0.03475 0.96679 0.68504 0.0
C761 C 0.01946 0.04468 0.63587 0.0
C762 C 0.0131 0.02834 0.61688 0.0
C763 C 0.02316 0.03608 0.65974 0.0
C764 C 0.02599 0.97891 0.69823 0.0
H765 H 0.00071 0.99254 0.82442 0.0
H766 H 0.01662 0.00675 0.78488 0.0
H767 H 0.02697 0.95165 0.72668 0.0
H768 H 0.00665 0.99017 0.60743 0.0
H769 H 0.01215 0.97508 0.64925 0.0
H770 H 0.00118 0.0361 0.70485 0.0
C771 C 0.00669 0.98944 0.7856 0.0
C772 C 0.02166 0.97025 0.72209 0.0
C773 C 0.9974 0.98136 0.8082 0.0
C774 C 0.01179 0.00308 0.6218 0.0
C775 C 0.01503 0.99447 0.6458 0.0
C776 C 0.00773 0.01791 0.70939 0.0
C777 C 0.00288 0.97551 0.7641 0.0
C778 C 0.01015 0.9853 0.7397 0.0
C779 C 0.01985 0.01101 0.66528 0.0
C780 C 0.01854 0.00268 0.69139 0.0
H781 H 0.96991 0.92828 0.78852 0.0
H782 H 0.9866 0.94214 0.74938 0.0
H783 H 0.99452 0.02128 0.74634 0.0
H784 H 0.02076 0.06426 0.6324 0.0
H785 H 0.02763 0.04928 0.67404 0.0
C786 C 0.54104 0.07154 0.30524 0.0
C787 C 0.56054 0.08843 0.30783 0.0
C788 C 0.5318 0.06562 0.28188 0.0
C789 C 0.53206 0.08718 0.21682 0.0
H790 H 0.52128 0.01838 0.20102 0.0
C791 C 0.54687 0.04573 0.12133 0.0
C792 C 0.53093 0.02731 0.11274 0.0
C793 C 0.54369 0.05579 0.14475 0.0
C794 C 0.52366 0.03773 0.20525 0.0
H795 H 0.58595 0.11192 0.28789 0.0
H796 H 0.57013 0.10151 0.2474 0.0
H797 H 0.52907 0.0306 0.24358 0.0
H798 H 0.49891 0.00513 0.12119 0.0
H799 H 0.49352 0.02248 0.16278 0.0
H800 H 0.52802 0.09406 0.17824 0.0
C801 C 0.56143 0.0933 0.26334 0.0
C802 C 0.52816 0.04475 0.22965 0.0
C803 C 0.57059 0.09923 0.2866 0.0
C804 C 0.51125 0.01952 0.12753 0.0
C805 C 0.50827 0.02933 0.15124 0.0
C806 C 0.52775 0.08014 0.19246 0.0
C807 C 0.54192 0.07644 0.26064 0.0
C808 C 0.53325 0.06946 0.23558 0.0
C809 C 0.52478 0.04724 0.16021 0.0
C810 C 0.52429 0.05526 0.18632 0.0
H811 H 0.53277 0.06308 0.32127 0.0
H812 H 0.51666 0.05267 0.28046 0.0
H813 H 0.53528 0.10645 0.22085 0.0
H814 H 0.5623 0.05176 0.1102 0.0
H815 H 0.5569 0.06929 0.15127 0.0
C816 C 0.46064 0.57411 0.24735 0.0
C817 C 0.47609 0.58541 0.22989 0.0
C818 C 0.46878 0.57001 0.27131 0.0
C819 C 0.52216 0.55852 0.30869 0.0
H820 H 0.47987 0.57885 0.36256 0.0
C821 C 0.51645 0.5113 0.40301 0.0
C822 C 0.51265 0.52576 0.42411 0.0
C823 C 0.51826 0.52221 0.37986 0.0
C824 C 0.49213 0.57343 0.34779 0.0
H825 H 0.5126 0.60077 0.22413 0.0
H826 H 0.52709 0.59256 0.26593 0.0
H827 H 0.46985 0.59083 0.32051 0.0
H828 H 0.5086 0.56296 0.43784 0.0
H829 H 0.51147 0.58215 0.39717 0.0
H830 H 0.54373 0.54 0.33594 0.0
C831 C 0.50853 0.58727 0.26089 0.0
C832 C 0.48627 0.5801 0.32373 0.0
C833 C 0.50024 0.5918 0.23693 0.0
C834 C 0.51181 0.55145 0.42185 0.0
C835 C 0.51331 0.56238 0.39861 0.0
C836 C 0.52784 0.5515 0.33278 0.0
C837 C 0.49272 0.57666 0.27835 0.0
C838 C 0.50089 0.57223 0.30392 0.0
C839 C 0.51584 0.54778 0.37734 0.0
C840 C 0.51257 0.55847 0.3525 0.0
H841 H 0.44219 0.56825 0.24254 0.0
H842 H 0.45639 0.56133 0.28432 0.0
H843 H 0.53368 0.55219 0.29368 0.0
H844 H 0.51708 0.49143 0.40432 0.0
H845 H 0.51994 0.51047 0.36379 0.0
C846 C 0.05623 0.43739 0.74854 0.0
C847 C 0.05112 0.45035 0.72684 0.0
C848 C 0.04603 0.44478 0.77096 0.0
C849 C 0.02546 0.50035 0.80188 0.0
H850 H 0.00564 0.45525 0.85345 0.0
C851 C 0.01051 0.5356 0.90034 0.0
C852 C 0.02157 0.52141 0.9187 0.0
C853 C 0.00697 0.5259 0.87673 0.0
C854 C 0.01117 0.4681 0.83927 0.0
H855 H 0.03056 0.48059 0.71136 0.0
H856 H 0.01277 0.49368 0.75073 0.0
H857 H 0.01255 0.43978 0.81173 0.0
H858 H 0.03779 0.48624 0.92707 0.0
H859 H 0.03188 0.46919 0.88591 0.0
H860 H 0.02543 0.52844 0.82943 0.0
C861 C 0.02472 0.47781 0.75034 0.0
C862 C 0.01505 0.45923 0.81537 0.0
C863 C 0.03475 0.47024 0.72782 0.0
C864 C 0.02846 0.49719 0.91337 0.0
C865 C 0.0251 0.4875 0.88974 0.0
C866 C 0.02177 0.50918 0.82578 0.0
C867 C 0.03063 0.46542 0.77222 0.0
C868 C 0.02282 0.47518 0.79657 0.0
C869 C 0.01492 0.50197 0.87091 0.0
C870 C 0.01518 0.49307 0.84493 0.0
H871 H 0.0686 0.42183 0.74827 0.0
H872 H 0.05114 0.43498 0.78749 0.0
H873 H 0.03175 0.51305 0.78789 0.0
H874 H 0.00527 0.55445 0.90407 0.0
H875 H 0.99874 0.53744 0.86282 0.0
C876 C 0.80074 0.99906 0.96032 0.0
C877 C 0.80323 0.97803 0.94539 0.0
C878 C 0.77747 0.00885 0.96524 0.0
C879 C 0.71207 0.00681 0.9448 0.0
H880 H 0.69801 0.02071 0.01341 0.0
C881 C 0.61669 0.99579 0.98822 0.0
C882 C 0.60986 0.01102 0.00787 0.0
C883 C 0.63968 0.99859 0.9771 0.0
C884 C 0.70168 0.0175 0.99407 0.0
H885 H 0.78332 0.95154 0.92297 0.0
H886 H 0.74287 0.96818 0.93195 0.0
H887 H 0.7401 0.01257 0.00067 0.0
H888 H 0.62075 0.04172 0.03087 0.0
H889 H 0.6612 0.04683 0.01133 0.0
H890 H 0.67341 0.01069 0.93846 0.0
C891 C 0.75883 0.9773 0.93973 0.0
C892 C 0.72586 0.01278 0.98675 0.0
C893 C 0.78202 0.96752 0.93486 0.0
C894 C 0.62573 0.02992 0.01556 0.0
C895 C 0.64885 0.03269 0.0045 0.0
C896 C 0.68788 0.01149 0.95213 0.0
C897 C 0.75621 0.99789 0.95523 0.0
C898 C 0.73124 0.00663 0.96217 0.0
C899 C 0.65637 0.01653 0.98566 0.0
C900 C 0.68231 0.01615 0.97698 0.0
H901 H 0.8167 0.00755 0.96879 0.0
H902 H 0.77611 0.02484 0.9771 0.0
H903 H 0.71567 0.00265 0.92562 0.0
H904 H 0.60473 0.98091 0.98229 0.0
H905 H 0.64496 0.98562 0.96288 0.0
C906 C 0.72872 0.0381 0.47577 0.0
C907 C 0.72777 0.0545 0.45589 0.0
C908 C 0.75118 0.02801 0.4831 0.0
C909 C 0.81573 0.01776 0.4637 0.0
H910 H 0.83089 0.02926 0.53249 0.0
C911 C 0.91429 0.03134 0.4992 0.0
C912 C 0.91993 0.02526 0.52356 0.0
C913 C 0.89051 0.02775 0.49012 0.0
C914 C 0.82693 0.02526 0.51336 0.0
H915 H 0.74915 0.07207 0.42717 0.0
H916 H 0.78828 0.05444 0.43985 0.0
H917 H 0.78926 0.03558 0.51778 0.0
H918 H 0.90573 0.01016 0.5575 0.0
H919 H 0.86421 0.00312 0.54156 0.0
H920 H 0.85355 0.00793 0.45915 0.0
C921 C 0.77177 0.04936 0.44982 0.0
C922 C 0.80299 0.02896 0.50492 0.0
C923 C 0.74942 0.05965 0.44271 0.0
C924 C 0.90174 0.01474 0.53853 0.0
C925 C 0.87797 0.01093 0.52943 0.0
C926 C 0.83966 0.01381 0.47218 0.0
C927 C 0.773 0.03389 0.47043 0.0
C928 C 0.7973 0.02597 0.47988 0.0
C929 C 0.87184 0.01812 0.50534 0.0
C930 C 0.84574 0.01825 0.49699 0.0
H931 H 0.7123 0.03389 0.48628 0.0
H932 H 0.75159 0.01604 0.49898 0.0
H933 H 0.81177 0.015 0.44434 0.0
H934 H 0.92792 0.04019 0.48763 0.0
H935 H 0.88648 0.03394 0.47165 0.0
C936 C 0.30403 0.56232 0.04775 0.0
C937 C 0.31258 0.55929 0.072 0.0
C938 C 0.28083 0.55356 0.04084 0.0
C939 C 0.2202 0.54264 0.06584 0.0
H940 H 0.20806 0.50747 0.00481 0.0
C941 C 0.12118 0.52537 0.03289 0.0
C942 C 0.11701 0.52921 0.00777 0.0
C943 C 0.14515 0.52295 0.04189 0.0
C944 C 0.21107 0.51744 0.02184 0.0
H945 H 0.3036 0.54355 0.10762 0.0
H946 H 0.26271 0.52921 0.09568 0.0
H947 H 0.25028 0.5154 0.01799 0.0
H948 H 0.1345 0.53337 0.97218 0.0
H949 H 0.17619 0.53029 0.98775 0.0
H950 H 0.18128 0.54616 0.06914 0.0
C951 C 0.27412 0.53837 0.08212 0.0
C952 C 0.23527 0.52185 0.0294 0.0
C953 C 0.29748 0.54677 0.08896 0.0
C954 C 0.13719 0.53015 0.99166 0.0
C955 C 0.16113 0.52813 0.00062 0.0
C956 C 0.19602 0.5386 0.0581 0.0
C957 C 0.2655 0.54187 0.05806 0.0
C958 C 0.24004 0.53486 0.05126 0.0
C959 C 0.16551 0.52501 0.02594 0.0
C960 C 0.19111 0.52637 0.03573 0.0
H961 H 0.31486 0.57218 0.03425 0.0
H962 H 0.27448 0.55678 0.02224 0.0
H963 H 0.22339 0.55293 0.08267 0.0
H964 H 0.10603 0.52578 0.04575 0.0
H965 H 0.1477 0.52033 0.06146 0.0
C966 C 0.2547 0.45648 0.58055 0.0
C967 C 0.23716 0.47075 0.59314 0.0
C968 C 0.2781 0.46584 0.57563 0.0
C969 C 0.31246 0.5207 0.56287 0.0
H970 H 0.36897 0.48135 0.58077 0.0
C971 C 0.40419 0.51787 0.51032 0.0
C972 C 0.4261 0.51529 0.52366 0.0
C973 C 0.38163 0.51914 0.52253 0.0
C974 C 0.35346 0.49282 0.57603 0.0
H975 H 0.23071 0.50644 0.61006 0.0
H976 H 0.27147 0.52311 0.60031 0.0
H977 H 0.32807 0.46944 0.59513 0.0
H978 H 0.44186 0.51294 0.56016 0.0
H979 H 0.40225 0.51486 0.58162 0.0
H980 H 0.33777 0.54326 0.54252 0.0
C981 C 0.26692 0.5045 0.5947 0.0
C982 C 0.33007 0.48588 0.58408 0.0
C983 C 0.24356 0.49496 0.6001 0.0
C984 C 0.42522 0.51521 0.54949 0.0
C985 C 0.4026 0.51617 0.56173 0.0
C986 C 0.33588 0.52744 0.55444 0.0
C987 C 0.28444 0.48988 0.58269 0.0
C988 C 0.30933 0.4994 0.57709 0.0
C989 C 0.38055 0.5174 0.5483 0.0
C990 C 0.35651 0.51322 0.56052 0.0
H991 H 0.25036 0.43806 0.57421 0.0
H992 H 0.29119 0.45438 0.56592 0.0
H993 H 0.29668 0.53135 0.55719 0.0
H994 H 0.40443 0.5179 0.49038 0.0
H995 H 0.36493 0.51982 0.5117 0.0
C996 C 0.96955 0.79022 0.96342 0.0
C997 C 0.95275 0.80553 0.97578 0.0
C998 C 0.97457 0.7667 0.97212 0.0
C999 C 0.97873 0.72726 0.0242 0.0
H1000 H 0.96577 0.67476 0.97732 0.0
C1001 C 0.02869 0.634 0.02002 0.0
C1002 C 0.0153 0.61315 0.01256 0.0
C1003 C 0.01709 0.65678 0.02229 0.0
C1004 C 0.96909 0.6891 0.99084 0.0
H1005 H 0.92894 0.80825 0.00781 0.0
H1006 H 0.93863 0.7672 0.02352 0.0
H1007 H 0.9539 0.71676 0.9675 0.0
H1008 H 0.97942 0.59941 0.00208 0.0
H1009 H 0.95897 0.63922 0.00622 0.0
H1010 H 0.99521 0.69966 0.04697 0.0
C1011 C 0.94748 0.77358 0.00683 0.0
C1012 C 0.96247 0.71313 0.98511 0.0
C1013 C 0.94208 0.79708 0.99787 0.0
C1014 C 0.98992 0.61511 0.00859 0.0
C1015 C 0.97833 0.63792 0.01067 0.0
C1016 C 0.98576 0.70316 0.02981 0.0
C1017 C 0.96335 0.75806 0.99367 0.0
C1018 C 0.96767 0.73246 0.00148 0.0
C1019 C 0.99201 0.65914 0.01662 0.0
C1020 C 0.98137 0.68392 0.01295 0.0
H1021 H 0.97874 0.79629 0.9468 0.0
H1022 H 0.98718 0.75514 0.96189 0.0
H1023 H 0.98296 0.74197 0.03705 0.0
H1024 H 0.04838 0.63292 0.0228 0.0
H1025 H 0.02817 0.67284 0.02661 0.0
C1026 C 0.45586 0.73497 0.03459 0.0
C1027 C 0.47351 0.71944 0.04503 0.0
C1028 C 0.4622 0.75902 0.02786 0.0
C1029 C 0.50745 0.80581 0.04664 0.0
H1030 H 0.47652 0.8458 0.99658 0.0
C1031 C 0.50948 0.90938 0.05565 0.0
C1032 C 0.51653 0.9231 0.03501 0.0
C1033 C 0.50279 0.88476 0.05321 0.0
C1034 C 0.48544 0.83478 0.01049 0.0
H1035 H 0.51187 0.71576 0.05469 0.0
H1036 H 0.52331 0.75725 0.04198 0.0
H1037 H 0.46967 0.80112 0.99679 0.0
H1038 H 0.52128 0.92233 0.99546 0.0
H1039 H 0.50965 0.87871 0.99106 0.0
H1040 H 0.52331 0.83907 0.06034 0.0
C1041 C 0.50438 0.75136 0.03975 0.0
C1042 C 0.4814 0.80926 0.01074 0.0
C1043 C 0.49795 0.72755 0.04684 0.0
C1044 C 0.5156 0.91211 0.01159 0.0
C1045 C 0.50903 0.88721 0.00912 0.0
C1046 C 0.51147 0.8311 0.04637 0.0
C1047 C 0.48637 0.7678 0.03126 0.0
C1048 C 0.49216 0.79451 0.02904 0.0
C1049 C 0.50342 0.8731 0.03009 0.0
C1050 C 0.50013 0.84599 0.02867 0.0
H1051 H 0.43685 0.72907 0.0332 0.0
H1052 H 0.44782 0.77115 0.02154 0.0
H1053 H 0.51574 0.79527 0.06129 0.0
H1054 H 0.50986 0.91754 0.07388 0.0
H1055 H 0.49791 0.8746 0.06963 0.0
C1056 C 0.10091 0.29332 0.53845 0.0
C1057 C 0.08326 0.30755 0.55102 0.0
C1058 C 0.0946 0.27045 0.52834 0.0
C1059 C 0.04305 0.23208 0.50729 0.0
H1060 H 0.07966 0.1772 0.53371 0.0
C1061 C 1.00048 0.13682 0.51847 0.0
C1062 C 0.01529 0.11578 0.51952 0.0
C1063 C 0.01092 0.15996 0.51471 0.0
C1064 C 0.06958 0.19219 0.5255 0.0
H1065 H 0.04484 0.30887 0.56198 0.0
H1066 H 0.03379 0.26949 0.54354 0.0
H1067 H 0.09394 0.21903 0.54127 0.0
H1068 H 0.05256 0.10228 0.51635 0.0
H1069 H 0.07085 0.14273 0.50864 0.0
H1070 H 0.01856 0.20543 0.49165 0.0
C1071 C 0.05253 0.27611 0.54165 0.0
C1072 C 0.07774 0.21621 0.52999 0.0
C1073 C 0.0589 0.29876 0.55216 0.0
C1074 C 0.04065 0.11816 0.51527 0.0
C1075 C 0.05115 0.14139 0.51122 0.0
C1076 C 0.03512 0.20806 0.50241 0.0
C1077 C 0.07041 0.26154 0.53008 0.0
C1078 C 0.06407 0.23636 0.52168 0.0
C1079 C 0.03649 0.16271 0.51176 0.0
C1080 C 0.04771 0.1878 0.51231 0.0
H1081 H 0.11971 0.29967 0.53661 0.0
H1082 H 0.10867 0.25961 0.51933 0.0
H1083 H 0.03239 0.24734 0.50039 0.0
H1084 H 0.98087 0.13555 0.52174 0.0
H1085 H 0.99897 0.1758 0.51565 0.0
C1086 C 0.5808 0.25693 0.46017 0.0
C1087 C 0.59348 0.23991 0.47485 0.0
C1088 C 0.57606 0.28061 0.46881 0.0
C1089 C 0.56432 0.31713 0.52257 0.0
H1090 H 0.58202 0.37183 0.48033 0.0
C1091 C 0.51218 0.40854 0.51687 0.0
C1092 C 0.52546 0.43034 0.51273 0.0
C1093 C 0.52438 0.38611 0.5189 0.0
C1094 C 0.57735 0.35686 0.4926 0.0
H1095 H 0.61057 0.2346 0.51056 0.0
H1096 H 0.60118 0.27591 0.526 0.0
H1097 H 0.59596 0.33047 0.47002 0.0
H1098 H 0.56186 0.44607 0.50835 0.0
H1099 H 0.58329 0.40668 0.51167 0.0
H1100 H 0.54448 0.34342 0.54438 0.0
C1101 C 0.59538 0.27074 0.50762 0.0
C1102 C 0.58517 0.33319 0.48658 0.0
C1103 C 0.60058 0.24707 0.49879 0.0
C1104 C 0.55124 0.42953 0.51181 0.0
C1105 C 0.56346 0.40702 0.51358 0.0
C1106 C 0.55616 0.34084 0.52842 0.0
C1107 C 0.5834 0.28778 0.49252 0.0
C1108 C 0.5782 0.31305 0.50114 0.0
C1109 C 0.55006 0.38501 0.5164 0.0
C1110 C 0.56213 0.36083 0.51314 0.0
H1111 H 0.57433 0.25199 0.44197 0.0
H1112 H 0.56634 0.29329 0.45701 0.0
H1113 H 0.55869 0.30184 0.53402 0.0
H1114 H 0.49227 0.40873 0.51756 0.0
H1115 H 0.51355 0.36945 0.52079 0.0
loop_
_geom_bond_atom_site_label_1
_geom_bond_atom_site_label_2
_geom_bond_distance
_geom_bond_site_symmetry_2
_ccdc_geom_bond_type
C0 C1 1.386 . S
C0 C2 1.397 . S
C0 H24 0.931 . S
C1 C0 1.386 . S
C1 C5 1.397 . S
C2 C0 1.397 . S
C2 C3 1.384 . S
C2 H25 0.930 . S
C3 C2 1.384 . S
C3 C4 1.377 . S
C3 C6 1.481 . S
C4 C3 1.377 . S
C4 C5 1.389 . S
C4 H26 0.929 . S
C5 C1 1.397 . S
C5 C4 1.389 . S
C5 H27 0.931 . S
C6 C3 1.481 . S
C6 C7 1.387 . S
C6 C11 1.390 . S
C7 C6 1.387 . S
C7 C8 1.401 . S
C7 H28 0.930 . S
C8 C7 1.401 . S
C8 C9 1.376 . S
C8 C17 1.511 . S
C9 C8 1.376 . S
C9 C10 1.392 . S
C9 H30 0.931 . S
C10 C9 1.392 . S
C10 C11 1.361 . S
C10 C12 1.500 . S
C11 C6 1.390 . S
C11 C10 1.361 . S
C11 H29 0.931 . S
C12 C10 1.500 . S
C12 C13 1.371 . S
C12 C14 1.365 . S
C13 C12 1.371 . S
C13 C23 1.386 . S
C13 H31 0.931 . S
C14 C12 1.365 . S
C14 C15 1.409 . S
C14 H32 0.929 . S
C15 C14 1.409 . S
C15 C16 1.380 . S
C15 H33 0.930 . S
C16 C15 1.380 . S
C16 C23 1.357 . S
C17 C8 1.511 . S
C17 C18 1.341 . S
C17 C19 1.371 . S
C18 C17 1.341 . S
C18 C22 1.394 . S
C18 H34 0.930 . S
C19 C17 1.371 . S
C19 C20 1.392 . S
C19 H35 0.931 . S
C20 C19 1.392 . S
C20 C21 1.331 . S
C20 H38 0.932 . S
C21 C20 1.331 . S
C21 C22 1.336 . S
C22 C18 1.394 . S
C22 C21 1.336 . S
C22 H37 0.929 . S
C23 C13 1.386 . S
C23 C16 1.357 . S
C23 H36 0.928 . S
H24 C0 0.931 . S
H25 C2 0.930 . S
H26 C4 0.929 . S
H27 C5 0.931 . S
H28 C7 0.930 . S
H29 C11 0.931 . S
H30 C9 0.931 . S
H31 C13 0.931 . S
H32 C14 0.929 . S
H33 C15 0.930 . S
H34 C18 0.930 . S
H35 C19 0.931 . S
H36 C23 0.928 . S
H37 C22 0.929 . S
H38 C20 0.932 . S
C39 C40 1.386 . S
C39 C41 1.397 . S
C39 H63 0.931 . S
C40 C39 1.386 . S
C40 C44 1.397 . S
C41 C39 1.397 . S
C41 C42 1.384 . S
C41 H64 0.930 . S
C42 C41 1.384 . S
C42 C43 1.377 . S
C42 C45 1.481 . S
C43 C42 1.377 . S
C43 C44 1.389 . S
C43 H65 0.929 . S
C44 C40 1.397 . S
C44 C43 1.389 . S
C44 H66 0.931 . S
C45 C42 1.481 . S
C45 C46 1.387 . S
C45 C50 1.390 . S
C46 C45 1.387 . S
C46 C47 1.401 . S
C46 H67 0.930 . S
C47 C46 1.401 . S
C47 C48 1.376 . S
C47 C56 1.511 . S
C48 C47 1.376 . S
C48 C49 1.392 . S
C48 H69 0.931 . S
C49 C48 1.392 . S
C49 C50 1.361 . S
C49 C51 1.500 . S
C50 C45 1.390 . S
C50 C49 1.361 . S
C50 H68 0.931 . S
C51 C49 1.500 . S
C51 C52 1.371 . S
C51 C53 1.365 . S
C52 C51 1.371 . S
C52 C62 1.386 . S
C52 H70 0.931 . S
C53 C51 1.365 . S
C53 C54 1.409 . S
C53 H71 0.929 . S
C54 C53 1.409 . S
C54 C55 1.380 . S
C54 H72 0.930 . S
C55 C54 1.380 . S
C55 C62 1.357 . S
C56 C47 1.511 . S
C56 C57 1.341 . S
C56 C58 1.371 . S
C57 C56 1.341 . S
C57 C61 1.394 . S
C57 H73 0.930 . S
C58 C56 1.371 . S
C58 C59 1.392 . S
C58 H74 0.931 . S
C59 C58 1.392 . S
C59 C60 1.331 . S
C59 H77 0.932 . S
C60 C59 1.331 . S
C60 C61 1.336 . S
C61 C57 1.394 . S
C61 C60 1.336 . S
C61 H76 0.929 . S
C62 C52 1.386 . S
C62 C55 1.357 . S
C62 H75 0.928 . S
H63 C39 0.931 . S
H64 C41 0.930 . S
H65 C43 0.929 . S
H66 C44 0.931 . S
H67 C46 0.930 . S
H68 C50 0.931 . S
H69 C48 0.931 . S
H70 C52 0.931 . S
H71 C53 0.929 . S
H72 C54 0.930 . S
H73 C57 0.930 . S
H74 C58 0.931 . S
H75 C62 0.928 . S
H76 C61 0.929 . S
H77 C59 0.932 . S
C78 C79 1.386 . S
C78 C80 1.397 . S
C78 H102 0.931 . S
C79 C78 1.386 . S
C79 C83 1.397 . S
C80 C78 1.397 . S
C80 C81 1.384 . S
C80 H103 0.930 . S
C81 C80 1.384 . S
C81 C82 1.377 . S
C81 C84 1.481 . S
C82 C81 1.377 . S
C82 C83 1.389 . S
C82 H104 0.929 . S
C83 C79 1.397 . S
C83 C82 1.389 . S
C83 H105 0.931 . S
C84 C81 1.481 . S
C84 C85 1.387 . S
C84 C89 1.390 . S
C85 C84 1.387 . S
C85 C86 1.401 . S
C85 H106 0.930 . S
C86 C85 1.401 . S
C86 C87 1.376 . S
C86 C95 1.511 . S
C87 C86 1.376 . S
C87 C88 1.392 . S
C87 H108 0.931 . S
C88 C87 1.392 . S
C88 C89 1.361 . S
C88 C90 1.500 . S
C89 C84 1.390 . S
C89 C88 1.361 . S
C89 H107 0.931 . S
C90 C88 1.500 . S
C90 C91 1.371 . S
C90 C92 1.365 . S
C91 C90 1.371 . S
C91 C101 1.386 . S
C91 H109 0.931 . S
C92 C90 1.365 . S
C92 C93 1.409 . S
C92 H110 0.929 . S
C93 C92 1.409 . S
C93 C94 1.380 . S
C93 H111 0.930 . S
C94 C93 1.380 . S
C94 C101 1.357 . S
C95 C86 1.511 . S
C95 C96 1.341 . S
C95 C97 1.371 . S
C96 C95 1.341 . S
C96 C100 1.394 . S
C96 H112 0.930 . S
C97 C95 1.371 . S
C97 C98 1.392 . S
C97 H113 0.931 . S
C98 C97 1.392 . S
C98 C99 1.331 . S
C98 H116 0.932 . S
C99 C98 1.331 . S
C99 C100 1.336 . S
C100 C96 1.394 . S
C100 C99 1.336 . S
C100 H115 0.929 . S
C101 C91 1.386 . S
C101 C94 1.357 . S
C101 H114 0.928 . S
H102 C78 0.931 . S
H103 C80 0.930 . S
H104 C82 0.929 . S
H105 C83 0.931 . S
H106 C85 0.930 . S
H107 C89 0.931 . S
H108 C87 0.931 . S
H109 C91 0.931 . S
H110 C92 0.929 . S
H111 C93 0.930 . S
H112 C96 0.930 . S
H113 C97 0.931 . S
H114 C101 0.928 . S
H115 C100 0.929 . S
H116 C98 0.932 . S
C117 C118 1.386 . S
C117 C119 1.397 . S
C117 H141 0.931 . S
C118 C117 1.386 . S
C118 C122 1.397 . S
C119 C117 1.397 . S
C119 C120 1.384 . S
C119 H142 0.930 . S
C120 C119 1.384 . S
C120 C121 1.377 . S
C120 C123 1.481 . S
C121 C120 1.377 . S
C121 C122 1.389 . S
C121 H143 0.929 . S
C122 C118 1.397 . S
C122 C121 1.389 . S
C122 H144 0.931 . S
C123 C120 1.481 . S
C123 C124 1.387 . S
C123 C128 1.390 . S
C124 C123 1.387 . S
C124 C125 1.401 . S
C124 H145 0.930 . S
C125 C124 1.401 . S
C125 C126 1.376 . S
C125 C134 1.511 . S
C126 C125 1.376 . S
C126 C127 1.392 . S
C126 H147 0.931 . S
C127 C126 1.392 . S
C127 C128 1.361 . S
C127 C129 1.500 . S
C128 C123 1.390 . S
C128 C127 1.361 . S
C128 H146 0.931 . S
C129 C127 1.500 . S
C129 C130 1.371 . S
C129 C131 1.365 . S
C130 C129 1.371 . S
C130 C140 1.386 . S
C130 H148 0.931 . S
C131 C129 1.365 . S
C131 C132 1.409 . S
C131 H149 0.929 . S
C132 C131 1.409 . S
C132 C133 1.380 . S
C132 H150 0.930 . S
C133 C132 1.380 . S
C133 C140 1.357 . S
C134 C125 1.511 . S
C134 C135 1.341 . S
C134 C136 1.371 . S
C135 C134 1.341 . S
C135 C139 1.394 . S
C135 H151 0.930 . S
C136 C134 1.371 . S
C136 C137 1.392 . S
C136 H152 0.931 . S
C137 C136 1.392 . S
C137 C138 1.331 . S
C137 H155 0.932 . S
C138 C137 1.331 . S
C138 C139 1.336 . S
C139 C135 1.394 . S
C139 C138 1.336 . S
C139 H154 0.929 . S
C140 C130 1.386 . S
C140 C133 1.357 . S
C140 H153 0.928 . S
H141 C117 0.931 . S
H142 C119 0.930 . S
H143 C121 0.929 . S
H144 C122 0.931 . S
H145 C124 0.930 . S
H146 C128 0.931 . S
H147 C126 0.931 . S
H148 C130 0.931 . S
H149 C131 0.929 . S
H150 C132 0.930 . S
H151 C135 0.930 . S
H152 C136 0.931 . S
H153 C140 0.928 . S
H154 C139 0.929 . S
H155 C137 0.932 . S
C156 C157 1.386 . S
C156 C158 1.397 . S
C156 H180 0.931 . S
C157 C156 1.386 . S
C157 C161 1.397 . S
C158 C156 1.397 . S
C158 C159 1.384 . S
C158 H181 0.930 . S
C159 C158 1.384 . S
C159 C160 1.377 . S
C159 C162 1.481 . S
C160 C159 1.377 . S
C160 C161 1.389 . S
C160 H182 0.929 . S
C161 C157 1.397 . S
C161 C160 1.389 . S
C161 H183 0.931 1_565 S
C162 C159 1.481 . S
C162 C163 1.387 . S
C162 C167 1.390 . S
C163 C162 1.387 . S
C163 C164 1.401 . S
C163 H184 0.930 . S
C164 C163 1.401 . S
C164 C165 1.376 . S
C164 C173 1.511 . S
C165 C164 1.376 . S
C165 C166 1.392 . S
C165 H186 0.931 . S
C166 C165 1.392 . S
C166 C167 1.361 . S
C166 C168 1.500 . S
C167 C162 1.390 . S
C167 C166 1.361 . S
C167 H185 0.931 . S
C168 C166 1.500 . S
C168 C169 1.371 . S
C168 C170 1.365 . S
C169 C168 1.371 . S
C169 C179 1.386 . S
C169 H187 0.931 . S
C170 C168 1.365 . S
C170 C171 1.409 . S
C170 H188 0.929 . S
C171 C170 1.409 . S
C171 C172 1.380 . S
C171 H189 0.930 1_565 S
C172 C171 1.380 . S
C172 C179 1.357 . S
C173 C164 1.511 . S
C173 C174 1.341 . S
C173 C175 1.371 . S
C174 C173 1.341 . S
C174 C178 1.394 . S
C174 H190 0.930 . S
C175 C173 1.371 . S
C175 C176 1.392 . S
C175 H191 0.931 . S
C176 C175 1.392 . S
C176 C177 1.331 . S
C176 H194 0.888 1_556 S
C177 C176 1.331 . S
C177 C178 1.336 . S
C178 C174 1.394 . S
C178 C177 1.336 . S
C178 H193 0.929 . S
C179 C169 1.386 . S
C179 C172 1.357 . S
C179 H192 0.928 . S
H180 C156 0.931 . S
H181 C158 0.930 . S
H182 C160 0.929 . S
H183 C161 0.931 1_545 S
H184 C163 0.930 . S
H185 C167 0.931 . S
H186 C165 0.931 . S
H187 C169 0.931 . S
H188 C170 0.929 . S
H189 C171 0.930 1_545 S
H190 C174 0.930 . S
H191 C175 0.931 . S
H192 C179 0.928 . S
H193 C178 0.929 . S
H194 C176 0.888 1_554 S
C195 C196 1.386 . S
C195 C197 1.397 . S
C195 H219 0.931 . S
C196 C195 1.386 . S
C196 C200 1.397 . S
C197 C195 1.397 . S
C197 C198 1.384 . S
C197 H220 0.930 . S
C198 C197 1.384 . S
C198 C199 1.377 . S
C198 C201 1.481 . S
C199 C198 1.377 . S
C199 C200 1.389 . S
C199 H221 0.929 . S
C200 C196 1.397 . S
C200 C199 1.389 . S
C200 H222 0.931 . S
C201 C198 1.481 . S
C201 C202 1.387 . S
C201 C206 1.390 . S
C202 C201 1.387 . S
C202 C203 1.401 . S
C202 H223 0.930 . S
C203 C202 1.401 . S
C203 C204 1.376 . S
C203 C212 1.511 . S
C204 C203 1.376 . S
C204 C205 1.392 . S
C204 H225 0.931 . S
C205 C204 1.392 . S
C205 C206 1.361 . S
C205 C207 1.500 . S
C206 C201 1.390 . S
C206 C205 1.361 . S
C206 H224 0.931 . S
C207 C205 1.500 . S
C207 C208 1.371 . S
C207 C209 1.365 . S
C208 C207 1.371 . S
C208 C218 1.386 . S
C208 H226 0.931 . S
C209 C207 1.365 . S
C209 C210 1.409 . S
C209 H227 0.929 . S
C210 C209 1.409 . S
C210 C211 1.380 . S
C210 H228 0.930 . S
C211 C210 1.380 . S
C211 C218 1.357 . S
C212 C203 1.511 . S
C212 C213 1.341 . S
C212 C214 1.371 . S
C213 C212 1.341 . S
C213 C217 1.394 . S
C213 H229 0.930 . S
C214 C212 1.371 . S
C214 C215 1.392 . S
C214 H230 0.931 . S
C215 C214 1.392 . S
C215 C216 1.331 . S
C215 H233 0.932 . S
C216 C215 1.331 . S
C216 C217 1.336 . S
C217 C213 1.394 . S
C217 C216 1.336 . S
C217 H232 0.929 . S
C218 C208 1.386 . S
C218 C211 1.357 . S
C218 H231 0.928 . S
H219 C195 0.931 . S
H220 C197 0.930 . S
H221 C199 0.929 . S
H222 C200 0.931 . S
H223 C202 0.930 . S
H224 C206 0.931 . S
H225 C204 0.931 . S
H226 C208 0.931 . S
H227 C209 0.929 . S
H228 C210 0.930 . S
H229 C213 0.930 . S
H230 C214 0.931 . S
H231 C218 0.928 . S
H232 C217 0.929 . S
H233 C215 0.932 . S
C234 C235 1.386 . S
C234 C236 1.397 . S
C234 H258 0.931 . S
C235 C234 1.386 . S
C235 C239 1.397 . S
C236 C234 1.397 . S
C236 C237 1.384 . S
C236 H259 0.930 . S
C237 C236 1.384 . S
C237 C238 1.377 . S
C237 C240 1.481 . S
C238 C237 1.377 . S
C238 C239 1.389 . S
C238 H260 0.929 . S
C239 C235 1.397 . S
C239 C238 1.389 . S
C239 H261 0.931 . S
C240 C237 1.481 . S
C240 C241 1.387 . S
C240 C245 1.390 . S
C241 C240 1.387 . S
C241 C242 1.401 . S
C241 H262 0.930 . S
C242 C241 1.401 . S
C242 C243 1.376 . S
C242 C251 1.511 . S
C243 C242 1.376 . S
C243 C244 1.392 . S
C243 H264 0.931 . S
C244 C243 1.392 . S
C244 C245 1.361 . S
C244 C246 1.500 . S
C245 C240 1.390 . S
C245 C244 1.361 . S
C245 H263 0.931 . S
C246 C244 1.500 . S
C246 C247 1.371 . S
C246 C248 1.365 . S
C247 C246 1.371 . S
C247 C257 1.386 . S
C247 H265 0.931 . S
C248 C246 1.365 . S
C248 C249 1.409 . S
C248 H266 0.929 . S
C249 C248 1.409 . S
C249 C250 1.380 . S
C249 H267 0.930 . S
C250 C249 1.380 . S
C250 C257 1.357 . S
C251 C242 1.511 . S
C251 C252 1.341 . S
C251 C253 1.371 . S
C252 C251 1.341 . S
C252 C256 1.394 . S
C252 H268 0.930 . S
C253 C251 1.371 . S
C253 C254 1.392 . S
C253 H269 0.931 . S
C254 C253 1.392 . S
C254 C255 1.331 . S
C254 H272 0.932 . S
C255 C254 1.331 . S
C255 C256 1.336 . S
C256 C252 1.394 . S
C256 C255 1.336 . S
C256 H271 0.929 . S
C257 C247 1.386 . S
C257 C250 1.357 . S
C257 H270 0.928 . S
H258 C234 0.931 . S
H259 C236 0.930 . S
H260 C238 0.929 . S
H261 C239 0.931 . S
H262 C241 0.930 . S
H263 C245 0.931 . S
H264 C243 0.931 . S
H265 C247 0.931 . S
H266 C248 0.929 . S
H267 C249 0.930 . S
H268 C252 0.930 . S
H269 C253 0.931 . S
H270 C257 0.928 . S
H271 C256 0.929 . S
H272 C254 0.932 . S
C273 C274 1.386 . S
C273 C275 1.397 . S
C273 H297 0.931 . S
C274 C273 1.386 . S
C274 C278 1.397 . S
C275 C273 1.397 . S
C275 C276 1.384 . S
C275 H298 0.930 . S
C276 C275 1.384 . S
C276 C277 1.377 . S
C276 C279 1.481 . S
C277 C276 1.377 . S
C277 C278 1.389 . S
C277 H299 0.929 . S
C278 C274 1.397 . S
C278 C277 1.389 . S
C278 H300 0.931 . S
C279 C276 1.481 . S
C279 C280 1.387 . S
C279 C284 1.390 . S
C280 C279 1.387 . S
C280 C281 1.401 . S
C280 H301 0.930 . S
C281 C280 1.401 . S
C281 C282 1.376 . S
C281 C290 1.511 . S
C282 C281 1.376 . S
C282 C283 1.392 . S
C282 H303 0.931 . S
C283 C282 1.392 . S
C283 C284 1.361 . S
C283 C285 1.500 . S
C284 C279 1.390 . S
C284 C283 1.361 . S
C284 H302 0.931 . S
C285 C283 1.500 . S
C285 C286 1.371 . S
C285 C287 1.365 . S
C286 C285 1.371 . S
C286 C296 1.386 . S
C286 H304 0.931 . S
C287 C285 1.365 . S
C287 C288 1.409 . S
C287 H305 0.929 . S
C288 C287 1.409 . S
C288 C289 1.380 . S
C288 H306 0.930 . S
C289 C288 1.380 . S
C289 C296 1.357 . S
C290 C281 1.511 . S
C290 C291 1.341 . S
C290 C292 1.371 . S
C291 C290 1.341 . S
C291 C295 1.394 . S
C291 H307 0.930 . S
C292 C290 1.371 . S
C292 C293 1.392 . S
C292 H308 0.931 . S
C293 C292 1.392 . S
C293 C294 1.331 . S
C293 H311 0.932 . S
C294 C293 1.331 . S
C294 C295 1.336 . S
C295 C291 1.394 . S
C295 C294 1.336 . S
C295 H310 0.929 . S
C296 C286 1.386 . S
C296 C289 1.357 . S
C296 H309 0.928 . S
H297 C273 0.931 . S
H298 C275 0.930 . S
H299 C277 0.929 . S
H300 C278 0.931 . S
H301 C280 0.930 . S
H302 C284 0.931 . S
H303 C282 0.931 . S
H304 C286 0.931 . S
H305 C287 0.929 . S
H306 C288 0.930 . S
H307 C291 0.930 . S
H308 C292 0.931 . S
H309 C296 0.928 . S
H310 C295 0.929 . S
H311 C293 0.932 . S
Zn312 O318 1.920 . S
Zn312 O324 1.898 . S
Zn312 O327 1.905 . S
Zn313 O321 1.905 1_565 S
Zn313 O322 1.898 . S
Zn313 O330 1.920 . S
Zn314 O317 2.080 1_455 S
Zn314 O320 2.114 . S
Zn314 O323 2.120 1_445 S
Zn314 O325 2.120 . S
Zn314 O326 2.114 1_455 S
Zn314 O329 2.080 . S
C315 O320 1.166 . S
C315 O321 1.182 . S
C316 O322 1.167 1_655 S
C316 O323 1.299 . S
O317 Zn314 2.080 1_655 S
O317 C331 1.305 . S
O318 Zn312 1.920 . S
O318 C331 1.234 . S
C319 O324 1.167 1_455 S
C319 O325 1.299 . S
O320 Zn314 2.114 . S
O320 C315 1.166 . S
O321 Zn313 1.905 1_545 S
O321 C315 1.182 . S
O322 Zn313 1.898 . S
O322 C316 1.167 1_455 S
O323 Zn314 2.120 1_665 S
O323 C316 1.299 . S
O324 Zn312 1.898 . S
O324 C319 1.167 1_655 S
O325 Zn314 2.120 . S
O325 C319 1.299 . S
O326 Zn314 2.114 1_655 S
O326 C328 1.166 . S
O327 Zn312 1.905 . S
O327 C328 1.182 . S
C328 O326 1.166 . S
C328 O327 1.182 . S
O329 Zn314 2.080 . S
O329 C332 1.305 . S
O330 Zn313 1.920 . S
O330 C332 1.234 1_565 S
C331 O317 1.305 . S
C331 O318 1.234 . S
C332 O329 1.305 . S
C332 O330 1.234 1_545 S
Zn333 O339 1.920 1_556 S
Zn333 O345 1.898 . S
Zn333 O348 1.905 . S
Zn334 O342 1.905 . S
Zn334 O343 1.898 . S
Zn334 O351 1.920 . S
Zn335 O338 2.080 . S
Zn335 O341 2.114 1_545 S
Zn335 O344 2.120 1_545 S
Zn335 O346 2.120 . S
Zn335 O347 2.114 1_544 S
Zn335 O350 2.080 . S
C336 O341 1.166 . S
C336 O342 1.182 . S
C337 O343 1.167 . S
C337 O344 1.299 . S
O338 Zn335 2.080 . S
O338 C352 1.305 . S
O339 Zn333 1.920 1_554 S
O339 C352 1.234 . S
C340 O345 1.167 . S
C340 O346 1.299 1_556 S
O341 Zn335 2.114 1_565 S
O341 C336 1.166 . S
O342 Zn334 1.905 . S
O342 C336 1.182 . S
O343 Zn334 1.898 . S
O343 C337 1.167 . S
O344 Zn335 2.120 1_565 S
O344 C337 1.299 . S
O345 Zn333 1.898 . S
O345 C340 1.167 . S
O346 Zn335 2.120 . S
O346 C340 1.299 1_554 S
O347 Zn335 2.114 1_566 S
O347 C349 1.166 . S
O348 Zn333 1.905 . S
O348 C349 1.182 1_545 S
C349 O347 1.166 . S
C349 O348 1.182 1_565 S
O350 Zn335 2.080 . S
O350 C353 1.305 . S
O351 Zn334 1.920 . S
O351 C353 1.234 1_565 S
C352 O338 1.305 . S
C352 O339 1.234 . S
C353 O350 1.305 . S
C353 O351 1.234 1_545 S
Zn354 O360 1.920 . S
Zn354 O366 1.898 . S
Zn354 O369 1.905 . S
Zn355 O363 1.905 . S
Zn355 O364 1.898 . S
Zn355 O372 1.920 . S
Zn356 O359 2.080 . S
Zn356 O362 2.114 . S
Zn356 O365 2.120 . S
Zn356 O367 2.120 . S
Zn356 O368 2.114 . S
Zn356 O371 2.080 . S
C357 O362 1.166 . S
C357 O363 1.182 . S
C358 O364 1.167 . S
C358 O365 1.299 . S
O359 Zn356 2.080 . S
O359 C373 1.305 . S
O360 Zn354 1.920 . S
O360 C373 1.234 . S
C361 O366 1.167 . S
C361 O367 1.299 . S
O362 Zn356 2.114 . S
O362 C357 1.166 . S
O363 Zn355 1.905 . S
O363 C357 1.182 . S
O364 Zn355 1.898 . S
O364 C358 1.167 . S
O365 Zn356 2.120 . S
O365 C358 1.299 . S
O366 Zn354 1.898 . S
O366 C361 1.167 . S
O367 Zn356 2.120 . S
O367 C361 1.299 . S
O368 Zn356 2.114 . S
O368 C370 1.166 . S
O369 Zn354 1.905 . S
O369 C370 1.182 . S
C370 O368 1.166 . S
C370 O369 1.182 . S
O371 Zn356 2.080 . S
O371 C374 1.305 . S
O372 Zn355 1.920 . S
O372 C374 1.234 . S
C373 O359 1.305 . S
C373 O360 1.234 . S
C374 O371 1.305 . S
C374 O372 1.234 . S
Zn375 O381 1.920 . S
Zn375 O387 1.898 . S
Zn375 O390 1.905 . S
Zn376 O384 1.905 1_655 S
Zn376 O385 1.898 . S
Zn376 O393 1.920 . S
Zn377 O380 2.080 1_554 S
Zn377 O383 2.114 . S
Zn377 O386 2.120 1_454 S
Zn377 O388 2.120 . S
Zn377 O389 2.114 1_554 S
Zn377 O392 2.080 . S
C378 O383 1.166 . S
C378 O384 1.182 . S
C379 O385 1.167 1_556 S
C379 O386 1.299 . S
O380 Zn377 2.080 1_556 S
O380 C394 1.305 . S
O381 Zn375 1.920 . S
O381 C394 1.234 . S
C382 O387 1.167 1_554 S
C382 O388 1.299 . S
O383 Zn377 2.114 . S
O383 C378 1.166 . S
O384 Zn376 1.905 1_455 S
O384 C378 1.182 . S
O385 Zn376 1.898 . S
O385 C379 1.167 1_554 S
O386 Zn377 2.120 1_656 S
O386 C379 1.299 . S
O387 Zn375 1.898 . S
O387 C382 1.167 1_556 S
O388 Zn377 2.120 . S
O388 C382 1.299 . S
O389 Zn377 2.114 1_556 S
O389 C391 1.166 . S
O390 Zn375 1.905 . S
O390 C391 1.182 . S
C391 O389 1.166 . S
C391 O390 1.182 . S
O392 Zn377 2.080 . S
O392 C395 1.305 1_455 S
O393 Zn376 1.920 . S
O393 C395 1.234 . S
C394 O380 1.305 . S
C394 O381 1.234 . S
C395 O392 1.305 1_655 S
C395 O393 1.234 . S
C396 C397 1.349 . S
C396 C398 1.327 . S
C396 H421 0.950 . S
C397 C396 1.349 . S
C397 C413 1.349 . S
C398 C396 1.327 . S
C398 C417 1.429 . S
C398 H422 0.950 . S
C399 C416 1.574 . S
C399 C418 1.368 . S
C399 H423 0.949 . S
H400 C404 0.949 . S
C401 C402 1.349 . S
C401 C403 1.327 . S
C401 H424 0.950 . S
C402 C401 1.349 . S
C402 C414 1.349 . S
C403 C401 1.327 . S
C403 C419 1.429 . S
C403 H425 0.950 . S
C404 H400 0.949 . S
C404 C412 1.574 . S
C404 C420 1.368 . S
H405 C413 0.950 . S
H406 C411 0.950 . S
H407 C412 0.949 . S
H408 C414 0.950 . S
H409 C415 0.950 . S
H410 C416 0.949 . S
C411 H406 0.950 . S
C411 C413 1.327 . S
C411 C417 1.429 . S
C412 C404 1.574 . S
C412 H407 0.949 . S
C412 C418 1.368 . S
C413 C397 1.349 . S
C413 H405 0.950 . S
C413 C411 1.327 . S
C414 C402 1.349 . S
C414 H408 0.950 . S
C414 C415 1.327 . S
C415 H409 0.950 . S
C415 C414 1.327 . S
C415 C419 1.429 . S
C416 C399 1.574 . S
C416 H410 0.949 . S
C416 C420 1.368 . S
C417 C398 1.429 . S
C417 C411 1.429 . S
C417 C418 1.523 . S
C418 C399 1.368 . S
C418 C412 1.368 . S
C418 C417 1.523 . S
C419 C403 1.429 . S
C419 C415 1.429 . S
C419 C420 1.523 . S
C420 C404 1.368 . S
C420 C416 1.368 . S
C420 C419 1.523 . S
H421 C396 0.950 . S
H422 C398 0.950 . S
H423 C399 0.949 . S
H424 C401 0.950 . S
H425 C403 0.950 . S
C426 C427 1.349 . S
C426 C428 1.327 . S
C426 H451 0.950 . S
C427 C426 1.349 . S
C427 C443 1.349 . S
C428 C426 1.327 . S
C428 C447 1.429 . S
C428 H452 0.950 . S
C429 C446 1.574 . S
C429 C448 1.368 . S
C429 H453 0.949 . S
H430 C434 0.949 . S
C431 C432 1.349 . S
C431 C433 1.327 . S
C431 H454 0.950 1_565 S
C432 C431 1.349 . S
C432 C444 1.349 . S
C433 C431 1.327 . S
C433 C449 1.429 . S
C433 H455 0.950 . S
C434 H430 0.949 . S
C434 C442 1.574 . S
C434 C450 1.368 . S
H435 C443 0.950 . S
H436 C441 0.950 . S
H437 C442 0.949 . S
H438 C444 0.950 . S
H439 C445 0.950 . S
H440 C446 0.949 . S
C441 H436 0.950 . S
C441 C443 1.327 . S
C441 C447 1.429 . S
C442 C434 1.574 . S
C442 H437 0.949 . S
C442 C448 1.368 . S
C443 C427 1.349 . S
C443 H435 0.950 . S
C443 C441 1.327 . S
C444 C432 1.349 . S
C444 H438 0.950 . S
C444 C445 1.327 . S
C445 H439 0.950 . S
C445 C444 1.327 . S
C445 C449 1.429 . S
C446 C429 1.574 . S
C446 H440 0.949 . S
C446 C450 1.368 . S
C447 C428 1.429 . S
C447 C441 1.429 . S
C447 C448 1.523 . S
C448 C429 1.368 . S
C448 C442 1.368 . S
C448 C447 1.523 . S
C449 C433 1.429 . S
C449 C445 1.429 . S
C449 C450 1.523 . S
C450 C434 1.368 . S
C450 C446 1.368 . S
C450 C449 1.523 . S
H451 C426 0.950 . S
H452 C428 0.950 . S
H453 C429 0.949 . S
H454 C431 0.950 1_545 S
H455 C433 0.950 . S
C456 C457 1.349 . S
C456 C458 1.327 . S
C456 H481 0.950 . S
C457 C456 1.349 . S
C457 C473 1.349 . S
C458 C456 1.327 . S
C458 C477 1.429 . S
C458 H482 0.950 . S
C459 C476 1.574 . S
C459 C478 1.368 . S
C459 H483 0.949 . S
H460 C464 0.949 . S
C461 C462 1.349 . S
C461 C463 1.327 . S
C461 H484 0.950 . S
C462 C461 1.349 . S
C462 C474 1.349 . S
C463 C461 1.327 . S
C463 C479 1.429 . S
C463 H485 0.950 . S
C464 H460 0.949 . S
C464 C472 1.574 . S
C464 C480 1.368 . S
H465 C473 0.950 . S
H466 C471 0.950 . S
H467 C472 0.949 . S
H468 C474 0.950 . S
H469 C475 0.950 . S
H470 C476 0.949 . S
C471 H466 0.950 . S
C471 C473 1.327 . S
C471 C477 1.429 . S
C472 C464 1.574 . S
C472 H467 0.949 . S
C472 C478 1.368 . S
C473 C457 1.349 . S
C473 H465 0.950 . S
C473 C471 1.327 . S
C474 C462 1.349 . S
C474 H468 0.950 . S
C474 C475 1.327 . S
C475 H469 0.950 . S
C475 C474 1.327 . S
C475 C479 1.429 . S
C476 C459 1.574 . S
C476 H470 0.949 . S
C476 C480 1.368 . S
C477 C458 1.429 . S
C477 C471 1.429 . S
C477 C478 1.523 . S
C478 C459 1.368 . S
C478 C472 1.368 . S
C478 C477 1.523 . S
C479 C463 1.429 . S
C479 C475 1.429 . S
C479 C480 1.523 . S
C480 C464 1.368 . S
C480 C476 1.368 . S
C480 C479 1.523 . S
H481 C456 0.950 . S
H482 C458 0.950 . S
H483 C459 0.949 . S
H484 C461 0.950 . S
H485 C463 0.950 . S
C486 C487 1.349 . S
C486 C488 1.327 . S
C486 H511 0.950 . S
C487 C486 1.349 . S
C487 C503 1.349 . S
C488 C486 1.327 . S
C488 C507 1.429 . S
C488 H512 0.950 . S
C489 C506 1.574 . S
C489 C508 1.368 . S
C489 H513 0.949 . S
H490 C494 0.949 . S
C491 C492 1.349 . S
C491 C493 1.327 . S
C491 H514 0.970 . S
C492 C491 1.349 . S
C492 C504 1.349 . S
C493 C491 1.327 . S
C493 C509 1.429 . S
C493 H515 0.950 . S
C494 H490 0.949 . S
C494 C502 1.574 . S
C494 C510 1.368 . S
H495 C503 0.950 . S
H496 C501 0.950 . S
H497 C502 0.949 . S
H498 C504 0.950 . S
H499 C505 0.950 . S
H500 C506 0.949 . S
C501 H496 0.950 . S
C501 C503 1.327 . S
C501 C507 1.429 . S
C502 C494 1.574 . S
C502 H497 0.949 . S
C502 C508 1.368 . S
C503 C487 1.349 . S
C503 H495 0.950 . S
C503 C501 1.327 . S
C504 C492 1.349 . S
C504 H498 0.950 . S
C504 C505 1.327 . S
C505 H499 0.950 . S
C505 C504 1.327 . S
C505 C509 1.429 . S
C506 C489 1.574 . S
C506 H500 0.949 . S
C506 C510 1.368 . S
C507 C488 1.429 . S
C507 C501 1.429 . S
C507 C508 1.523 . S
C508 C489 1.368 . S
C508 C502 1.368 . S
C508 C507 1.523 . S
C509 C493 1.429 . S
C509 C505 1.429 . S
C509 C510 1.523 . S
C510 C494 1.368 . S
C510 C506 1.368 . S
C510 C509 1.523 . S
H511 C486 0.950 . S
H512 C488 0.950 . S
H513 C489 0.949 . S
H514 C491 0.970 . S
H515 C493 0.950 . S
C516 C517 1.349 . S
C516 C518 1.327 . S
C516 H541 0.950 . S
C517 C516 1.349 . S
C517 C533 1.349 . S
C518 C516 1.327 . S
C518 C537 1.429 . S
C518 H542 0.950 . S
C519 C536 1.574 . S
C519 C538 1.368 . S
C519 H543 0.949 . S
H520 C524 0.949 . S
C521 C522 1.349 . S
C521 C523 1.327 . S
C521 H544 0.950 . S
C522 C521 1.349 . S
C522 C534 1.349 . S
C523 C521 1.327 . S
C523 C539 1.429 . S
C523 H545 0.950 . S
C524 H520 0.949 . S
C524 C532 1.574 . S
C524 C540 1.368 . S
H525 C533 0.950 . S
H526 C531 0.950 . S
H527 C532 0.949 . S
H528 C534 0.950 . S
H529 C535 0.950 . S
H530 C536 0.949 . S
C531 H526 0.950 . S
C531 C533 1.327 . S
C531 C537 1.429 . S
C532 C524 1.574 . S
C532 H527 0.949 . S
C532 C538 1.368 . S
C533 C517 1.349 . S
C533 H525 0.950 . S
C533 C531 1.327 . S
C534 C522 1.349 . S
C534 H528 0.950 . S
C534 C535 1.327 . S
C535 H529 0.950 . S
C535 C534 1.327 . S
C535 C539 1.429 . S
C536 C519 1.574 . S
C536 H530 0.949 . S
C536 C540 1.368 . S
C537 C518 1.429 . S
C537 C531 1.429 . S
C537 C538 1.523 . S
C538 C519 1.368 . S
C538 C532 1.368 . S
C538 C537 1.523 . S
C539 C523 1.429 . S
C539 C535 1.429 . S
C539 C540 1.523 . S
C540 C524 1.368 . S
C540 C536 1.368 . S
C540 C539 1.523 . S
H541 C516 0.950 . S
H542 C518 0.950 . S
H543 C519 0.949 . S
H544 C521 0.950 . S
H545 C523 0.950 . S
C546 C547 1.349 . S
C546 C548 1.327 . S
C546 H571 0.950 . S
C547 C546 1.349 . S
C547 C563 1.349 . S
C548 C546 1.327 . S
C548 C567 1.429 . S
C548 H572 0.950 . S
C549 C566 1.574 . S
C549 C568 1.368 . S
C549 H573 0.949 . S
H550 C554 0.949 . S
C551 C552 1.349 . S
C551 C553 1.327 . S
C551 H574 0.950 . S
C552 C551 1.349 . S
C552 C564 1.349 . S
C553 C551 1.327 . S
C553 C569 1.429 . S
C553 H575 0.950 . S
C554 H550 0.949 . S
C554 C562 1.574 . S
C554 C570 1.368 . S
H555 C563 0.950 . S
H556 C561 0.950 . S
H557 C562 0.949 . S
H558 C564 0.950 . S
H559 C565 0.950 . S
H560 C566 0.949 . S
C561 H556 0.950 . S
C561 C563 1.327 . S
C561 C567 1.429 . S
C562 C554 1.574 . S
C562 H557 0.949 . S
C562 C568 1.368 . S
C563 C547 1.349 . S
C563 H555 0.950 . S
C563 C561 1.327 . S
C564 C552 1.349 . S
C564 H558 0.950 . S
C564 C565 1.327 . S
C565 H559 0.950 . S
C565 C564 1.327 . S
C565 C569 1.429 . S
C566 C549 1.574 . S
C566 H560 0.949 . S
C566 C570 1.368 . S
C567 C548 1.429 . S
C567 C561 1.429 . S
C567 C568 1.523 . S
C568 C549 1.368 . S
C568 C562 1.368 . S
C568 C567 1.523 . S
C569 C553 1.429 . S
C569 C565 1.429 . S
C569 C570 1.523 . S
C570 C554 1.368 . S
C570 C566 1.368 . S
C570 C569 1.523 . S
H571 C546 0.950 . S
H572 C548 0.950 . S
H573 C549 0.949 . S
H574 C551 0.950 . S
H575 C553 0.950 . S
C576 C577 1.349 . S
C576 C578 1.327 . S
C576 H601 0.950 . S
C577 C576 1.349 . S
C577 C593 1.349 . S
C578 C576 1.327 . S
C578 C597 1.429 . S
C578 H602 0.950 . S
C579 C596 1.574 . S
C579 C598 1.368 . S
C579 H603 0.949 . S
H580 C584 0.949 . S
C581 C582 1.349 . S
C581 C583 1.327 . S
C581 H604 0.950 . S
C582 C581 1.349 . S
C582 C594 1.349 . S
C583 C581 1.327 . S
C583 C599 1.429 . S
C583 H605 0.950 . S
C584 H580 0.949 . S
C584 C592 1.574 . S
C584 C600 1.368 . S
H585 C593 0.950 . S
H586 C591 0.950 . S
H587 C592 0.949 . S
H588 C594 0.950 . S
H589 C595 0.950 . S
H590 C596 0.949 . S
C591 H586 0.950 . S
C591 C593 1.327 . S
C591 C597 1.429 . S
C592 C584 1.574 . S
C592 H587 0.949 . S
C592 C598 1.368 . S
C593 C577 1.349 . S
C593 H585 0.950 . S
C593 C591 1.327 . S
C594 C582 1.349 . S
C594 H588 0.950 . S
C594 C595 1.327 . S
C595 H589 0.950 . S
C595 C594 1.327 . S
C595 C599 1.429 . S
C596 C579 1.574 . S
C596 H590 0.949 . S
C596 C600 1.368 . S
C597 C578 1.429 . S
C597 C591 1.429 . S
C597 C598 1.523 . S
C598 C579 1.368 . S
C598 C592 1.368 . S
C598 C597 1.523 . S
C599 C583 1.429 . S
C599 C595 1.429 . S
C599 C600 1.523 . S
C600 C584 1.368 . S
C600 C596 1.368 . S
C600 C599 1.523 . S
H601 C576 0.950 . S
H602 C578 0.950 . S
H603 C579 0.949 . S
H604 C581 0.950 . S
H605 C583 0.950 . S
C606 C607 1.349 . S
C606 C608 1.327 . S
C606 H631 0.950 . S
C607 C606 1.349 . S
C607 C623 1.349 . S
C608 C606 1.327 . S
C608 C627 1.429 . S
C608 H632 0.950 . S
C609 C626 1.574 . S
C609 C628 1.368 . S
C609 H633 0.949 . S
H610 C614 0.949 . S
C611 C612 1.349 . S
C611 C613 1.327 . S
C611 H634 0.950 . S
C612 C611 1.349 . S
C612 C624 1.349 . S
C613 C611 1.327 . S
C613 C629 1.429 . S
C613 H635 0.950 . S
C614 H610 0.949 . S
C614 C622 1.574 . S
C614 C630 1.368 . S
H615 C623 0.950 . S
H616 C621 0.950 . S
H617 C622 0.949 . S
H618 C624 0.950 . S
H619 C625 0.950 . S
H620 C626 0.949 . S
C621 H616 0.950 . S
C621 C623 1.327 . S
C621 C627 1.429 . S
C622 C614 1.574 . S
C622 H617 0.949 . S
C622 C628 1.368 . S
C623 C607 1.349 . S
C623 H615 0.950 . S
C623 C621 1.327 . S
C624 C612 1.349 . S
C624 H618 0.950 . S
C624 C625 1.327 . S
C625 H619 0.950 . S
C625 C624 1.327 . S
C625 C629 1.429 . S
C626 C609 1.574 . S
C626 H620 0.949 . S
C626 C630 1.368 . S
C627 C608 1.429 . S
C627 C621 1.429 . S
C627 C628 1.523 . S
C628 C609 1.368 . S
C628 C622 1.368 . S
C628 C627 1.523 . S
C629 C613 1.429 . S
C629 C625 1.429 . S
C629 C630 1.523 . S
C630 C614 1.368 . S
C630 C626 1.368 . S
C630 C629 1.523 . S
H631 C606 0.950 . S
H632 C608 0.950 . S
H633 C609 0.949 . S
H634 C611 0.950 . S
H635 C613 0.950 . S
C636 C637 1.349 . S
C636 C638 1.327 . S
C636 H661 0.950 . S
C637 C636 1.349 . S
C637 C653 1.349 . S
C638 C636 1.327 . S
C638 C657 1.429 . S
C638 H662 0.950 . S
C639 C656 1.574 . S
C639 C658 1.368 . S
C639 H663 0.949 . S
H640 C644 0.949 . S
C641 C642 1.349 . S
C641 C643 1.327 . S
C641 H664 0.950 . S
C642 C641 1.349 . S
C642 C654 1.349 . S
C643 C641 1.327 . S
C643 C659 1.429 . S
C643 H665 0.950 . S
C644 H640 0.949 . S
C644 C652 1.574 . S
C644 C660 1.368 . S
H645 C653 0.950 . S
H646 C651 0.950 . S
H647 C652 0.949 . S
H648 C654 0.950 . S
H649 C655 0.950 . S
H650 C656 0.949 . S
C651 H646 0.950 . S
C651 C653 1.327 . S
C651 C657 1.429 . S
C652 C644 1.574 . S
C652 H647 0.949 . S
C652 C658 1.368 . S
C653 C637 1.349 . S
C653 H645 0.950 . S
C653 C651 1.327 . S
C654 C642 1.349 . S
C654 H648 0.950 . S
C654 C655 1.327 . S
C655 H649 0.950 . S
C655 C654 1.327 . S
C655 C659 1.429 . S
C656 C639 1.574 . S
C656 H650 0.949 . S
C656 C660 1.368 . S
C657 C638 1.429 . S
C657 C651 1.429 . S
C657 C658 1.523 . S
C658 C639 1.368 . S
C658 C652 1.368 . S
C658 C657 1.523 . S
C659 C643 1.429 . S
C659 C655 1.429 . S
C659 C660 1.523 . S
C660 C644 1.368 . S
C660 C656 1.368 . S
C660 C659 1.523 . S
H661 C636 0.950 . S
H662 C638 0.950 . S
H663 C639 0.949 . S
H664 C641 0.950 . S
H665 C643 0.950 . S
C666 C667 1.349 . S
C666 C668 1.327 . S
C666 H691 0.950 . S
C667 C666 1.349 . S
C667 C683 1.349 . S
C668 C666 1.327 . S
C668 C687 1.429 . S
C668 H692 0.950 . S
C669 C686 1.574 . S
C669 C688 1.368 . S
C669 H693 0.949 . S
H670 C674 0.949 . S
C671 C672 1.349 . S
C671 C673 1.327 . S
C671 H694 0.950 . S
C672 C671 1.349 . S
C672 C684 1.349 . S
C673 C671 1.327 . S
C673 C689 1.429 . S
C673 H695 0.950 . S
C674 H670 0.949 . S
C674 C682 1.574 . S
C674 C690 1.368 . S
H675 C683 0.950 . S
H676 C681 0.950 . S
H677 C682 0.949 . S
H678 C684 0.950 . S
H679 C685 0.950 . S
H680 C686 0.949 . S
C681 H676 0.950 . S
C681 C683 1.327 . S
C681 C687 1.429 . S
C682 C674 1.574 . S
C682 H677 0.949 . S
C682 C688 1.368 . S
C683 C667 1.349 . S
C683 H675 0.950 . S
C683 C681 1.327 . S
C684 C672 1.349 . S
C684 H678 0.950 . S
C684 C685 1.327 . S
C685 H679 0.950 . S
C685 C684 1.327 . S
C685 C689 1.429 . S
C686 C669 1.574 . S
C686 H680 0.949 . S
C686 C690 1.368 . S
C687 C668 1.429 . S
C687 C681 1.429 . S
C687 C688 1.523 . S
C688 C669 1.368 . S
C688 C682 1.368 . S
C688 C687 1.523 . S
C689 C673 1.429 . S
C689 C685 1.429 . S
C689 C690 1.523 . S
C690 C674 1.368 . S
C690 C686 1.368 . S
C690 C689 1.523 . S
H691 C666 0.950 . S
H692 C668 0.950 . S
H693 C669 0.949 . S
H694 C671 0.950 . S
H695 C673 0.950 . S
C696 C697 1.349 . S
C696 C698 1.327 . S
C696 H721 0.950 . S
C697 C696 1.349 . S
C697 C713 1.349 . S
C698 C696 1.327 . S
C698 C717 1.429 . S
C698 H722 0.950 . S
C699 C716 1.574 . S
C699 C718 1.368 . S
C699 H723 0.949 . S
H700 C704 0.949 . S
C701 C702 1.349 . S
C701 C703 1.327 . S
C701 H724 0.940 1_655 S
C702 C701 1.349 . S
C702 C714 1.349 . S
C703 C701 1.327 . S
C703 C719 1.429 . S
C703 H725 0.950 . S
C704 H700 0.949 . S
C704 C712 1.574 . S
C704 C720 1.368 . S
H705 C713 0.950 . S
H706 C711 0.950 . S
H707 C712 0.949 . S
H708 C714 0.950 . S
H709 C715 0.950 . S
H710 C716 0.949 . S
C711 H706 0.950 . S
C711 C713 1.327 . S
C711 C717 1.429 . S
C712 C704 1.574 . S
C712 H707 0.949 . S
C712 C718 1.368 . S
C713 C697 1.349 . S
C713 H705 0.950 . S
C713 C711 1.327 . S
C714 C702 1.349 . S
C714 H708 0.950 . S
C714 C715 1.327 . S
C715 H709 0.950 . S
C715 C714 1.327 . S
C715 C719 1.429 . S
C716 C699 1.574 . S
C716 H710 0.949 . S
C716 C720 1.368 . S
C717 C698 1.429 . S
C717 C711 1.429 . S
C717 C718 1.523 . S
C718 C699 1.368 . S
C718 C712 1.368 . S
C718 C717 1.523 . S
C719 C703 1.429 . S
C719 C715 1.429 . S
C719 C720 1.523 . S
C720 C704 1.368 . S
C720 C716 1.368 . S
C720 C719 1.523 . S
H721 C696 0.950 . S
H722 C698 0.950 . S
H723 C699 0.949 . S
H724 C701 0.940 1_455 S
H725 C703 0.950 . S
C726 C727 1.349 . S
C726 C728 1.327 . S
C726 H751 0.950 . S
C727 C726 1.349 . S
C727 C743 1.349 . S
C728 C726 1.327 . S
C728 C747 1.429 . S
C728 H752 0.950 . S
C729 C746 1.574 . S
C729 C748 1.368 . S
C729 H753 0.949 . S
H730 C734 0.949 . S
C731 C732 1.349 . S
C731 C733 1.327 . S
C731 H754 0.950 . S
C732 C731 1.349 . S
C732 C744 1.349 . S
C733 C731 1.327 . S
C733 C749 1.429 . S
C733 H755 0.950 . S
C734 H730 0.949 . S
C734 C742 1.574 . S
C734 C750 1.368 . S
H735 C743 0.950 . S
H736 C741 0.950 . S
H737 C742 0.949 . S
H738 C744 0.950 . S
H739 C745 0.950 . S
H740 C746 0.949 . S
C741 H736 0.950 . S
C741 C743 1.327 . S
C741 C747 1.429 . S
C742 C734 1.574 . S
C742 H737 0.949 . S
C742 C748 1.368 . S
C743 C727 1.349 . S
C743 H735 0.950 . S
C743 C741 1.327 . S
C744 C732 1.349 . S
C744 H738 0.950 . S
C744 C745 1.327 . S
C745 H739 0.950 . S
C745 C744 1.327 . S
C745 C749 1.429 . S
C746 C729 1.574 . S
C746 H740 0.949 . S
C746 C750 1.368 . S
C747 C728 1.429 . S
C747 C741 1.429 . S
C747 C748 1.523 . S
C748 C729 1.368 . S
C748 C742 1.368 . S
C748 C747 1.523 . S
C749 C733 1.429 . S
C749 C745 1.429 . S
C749 C750 1.523 . S
C750 C734 1.368 . S
C750 C746 1.368 . S
C750 C749 1.523 . S
H751 C726 0.950 . S
H752 C728 0.950 . S
H753 C729 0.949 . S
H754 C731 0.950 . S
H755 C733 0.950 . S
C756 C757 1.349 . S
C756 C758 1.327 . S
C756 H781 0.950 . S
C757 C756 1.349 . S
C757 C773 1.349 1_565 S
C758 C756 1.327 . S
C758 C777 1.429 . S
C758 H782 0.950 . S
C759 C776 1.574 . S
C759 C778 1.368 1_545 S
C759 H783 0.949 1_655 S
H760 C764 0.949 . S
C761 C762 1.349 1_455 S
C761 C763 1.327 . S
C761 H784 0.950 . S
C762 C761 1.349 1_655 S
C762 C774 1.349 1_545 S
C763 C761 1.327 . S
C763 C779 1.429 1_455 S
C763 H785 0.950 . S
C764 H760 0.949 . S
C764 C772 1.574 . S
C764 C780 1.368 1_565 S
H765 C773 0.950 . S
H766 C771 0.950 . S
H767 C772 0.949 . S
H768 C774 0.950 . S
H769 C775 0.950 . S
H770 C776 0.949 1_455 S
C771 H766 0.950 . S
C771 C773 1.327 . S
C771 C777 1.429 1_545 S
C772 C764 1.574 . S
C772 H767 0.949 . S
C772 C778 1.368 . S
C773 C757 1.349 1_545 S
C773 H765 0.950 . S
C773 C771 1.327 . S
C774 C762 1.349 1_565 S
C774 H768 0.950 . S
C774 C775 1.327 . S
C775 H769 0.950 . S
C775 C774 1.327 . S
C775 C779 1.429 1_565 S
C776 C759 1.574 . S
C776 H770 0.949 1_655 S
C776 C780 1.368 . S
C777 C758 1.429 . S
C777 C771 1.429 1_565 S
C777 C778 1.523 . S
C778 C759 1.368 1_565 S
C778 C772 1.368 . S
C778 C777 1.523 . S
C779 C763 1.429 1_655 S
C779 C775 1.429 1_545 S
C779 C780 1.523 . S
C780 C764 1.368 1_545 S
C780 C776 1.368 . S
C780 C779 1.523 . S
H781 C756 0.950 . S
H782 C758 0.950 . S
H783 C759 0.949 1_455 S
H784 C761 0.950 . S
H785 C763 0.950 . S
C786 C787 1.349 . S
C786 C788 1.327 . S
C786 H811 0.950 . S
C787 C786 1.349 . S
C787 C803 1.349 . S
C788 C786 1.327 . S
C788 C807 1.429 . S
C788 H812 0.950 . S
C789 C806 1.574 . S
C789 C808 1.368 . S
C789 H813 0.949 . S
H790 C794 0.949 . S
C791 C792 1.349 . S
C791 C793 1.327 . S
C791 H814 0.950 . S
C792 C791 1.349 . S
C792 C804 1.349 . S
C793 C791 1.327 . S
C793 C809 1.429 . S
C793 H815 0.950 . S
C794 H790 0.949 . S
C794 C802 1.574 . S
C794 C810 1.368 . S
H795 C803 0.950 . S
H796 C801 0.950 . S
H797 C802 0.949 . S
H798 C804 0.921 1_565 S
H799 C805 0.950 . S
H800 C806 0.949 . S
C801 H796 0.950 . S
C801 C803 1.327 . S
C801 C807 1.429 . S
C802 C794 1.574 . S
C802 H797 0.949 . S
C802 C808 1.368 . S
C803 C787 1.349 . S
C803 H795 0.950 . S
C803 C801 1.327 . S
C804 C792 1.349 . S
C804 H798 0.921 1_545 S
C804 C805 1.327 . S
C805 H799 0.950 . S
C805 C804 1.327 . S
C805 C809 1.429 . S
C806 C789 1.574 . S
C806 H800 0.949 . S
C806 C810 1.368 . S
C807 C788 1.429 . S
C807 C801 1.429 . S
C807 C808 1.523 . S
C808 C789 1.368 . S
C808 C802 1.368 . S
C808 C807 1.523 . S
C809 C793 1.429 . S
C809 C805 1.429 . S
C809 C810 1.523 . S
C810 C794 1.368 . S
C810 C806 1.368 . S
C810 C809 1.523 . S
H811 C786 0.950 . S
H812 C788 0.950 . S
H813 C789 0.949 . S
H814 C791 0.950 . S
H815 C793 0.950 . S
C816 C817 1.349 . S
C816 C818 1.327 . S
C816 H841 0.950 . S
C817 C816 1.349 . S
C817 C833 1.349 . S
C818 C816 1.327 . S
C818 C837 1.429 . S
C818 H842 0.950 . S
C819 C836 1.574 . S
C819 C838 1.368 . S
C819 H843 0.949 . S
H820 C824 0.949 . S
C821 C822 1.349 . S
C821 C823 1.327 . S
C821 H844 0.950 . S
C822 C821 1.349 . S
C822 C834 1.349 . S
C823 C821 1.327 . S
C823 C839 1.429 . S
C823 H845 0.950 . S
C824 H820 0.949 . S
C824 C832 1.574 . S
C824 C840 1.368 . S
H825 C833 0.950 . S
H826 C831 0.950 . S
H827 C832 0.949 . S
H828 C834 0.950 . S
H829 C835 0.950 . S
H830 C836 0.949 . S
C831 H826 0.950 . S
C831 C833 1.327 . S
C831 C837 1.429 . S
C832 C824 1.574 . S
C832 H827 0.949 . S
C832 C838 1.368 . S
C833 C817 1.349 . S
C833 H825 0.950 . S
C833 C831 1.327 . S
C834 C822 1.349 . S
C834 H828 0.950 . S
C834 C835 1.327 . S
C835 H829 0.950 . S
C835 C834 1.327 . S
C835 C839 1.429 . S
C836 C819 1.574 . S
C836 H830 0.949 . S
C836 C840 1.368 . S
C837 C818 1.429 . S
C837 C831 1.429 . S
C837 C838 1.523 . S
C838 C819 1.368 . S
C838 C832 1.368 . S
C838 C837 1.523 . S
C839 C823 1.429 . S
C839 C835 1.429 . S
C839 C840 1.523 . S
C840 C824 1.368 . S
C840 C836 1.368 . S
C840 C839 1.523 . S
H841 C816 0.950 . S
H842 C818 0.950 . S
H843 C819 0.949 . S
H844 C821 0.950 . S
H845 C823 0.950 . S
C846 C847 1.349 . S
C846 C848 1.327 . S
C846 H871 0.950 . S
C847 C846 1.349 . S
C847 C863 1.349 . S
C848 C846 1.327 . S
C848 C867 1.429 . S
C848 H872 0.950 . S
C849 C866 1.574 . S
C849 C868 1.368 . S
C849 H873 0.949 . S
H850 C854 0.949 . S
C851 C852 1.349 . S
C851 C853 1.327 . S
C851 H874 0.950 . S
C852 C851 1.349 . S
C852 C864 1.349 . S
C853 C851 1.327 . S
C853 C869 1.429 . S
C853 H875 0.950 . S
C854 H850 0.949 . S
C854 C862 1.574 . S
C854 C870 1.368 . S
H855 C863 0.950 . S
H856 C861 0.950 . S
H857 C862 0.949 . S
H858 C864 0.950 . S
H859 C865 0.950 . S
H860 C866 0.949 . S
C861 H856 0.950 . S
C861 C863 1.327 . S
C861 C867 1.429 . S
C862 C854 1.574 . S
C862 H857 0.949 . S
C862 C868 1.368 . S
C863 C847 1.349 . S
C863 H855 0.950 . S
C863 C861 1.327 . S
C864 C852 1.349 . S
C864 H858 0.950 . S
C864 C865 1.327 . S
C865 H859 0.950 . S
C865 C864 1.327 . S
C865 C869 1.429 . S
C866 C849 1.574 . S
C866 H860 0.949 . S
C866 C870 1.368 . S
C867 C848 1.429 . S
C867 C861 1.429 . S
C867 C868 1.523 . S
C868 C849 1.368 . S
C868 C862 1.368 . S
C868 C867 1.523 . S
C869 C853 1.429 . S
C869 C865 1.429 . S
C869 C870 1.523 . S
C870 C854 1.368 . S
C870 C866 1.368 . S
C870 C869 1.523 . S
H871 C846 0.950 . S
H872 C848 0.950 . S
H873 C849 0.949 . S
H874 C851 0.950 . S
H875 C853 0.950 . S
C876 C877 1.349 1_554 S
C876 C878 1.327 . S
C876 H901 0.950 . S
C877 C876 1.349 1_556 S
C877 C893 1.349 . S
C878 C876 1.327 . S
C878 C897 1.429 1_554 S
C878 H902 0.950 . S
C879 C896 1.574 . S
C879 C898 1.368 . S
C879 H903 0.949 . S
H880 C884 0.957 . S
C881 C882 1.349 1_556 S
C881 C883 1.327 . S
C881 H904 0.950 . S
C882 C881 1.349 1_554 S
C882 C894 1.351 . S
C883 C881 1.327 . S
C883 C899 1.429 1_556 S
C883 H905 0.950 . S
C884 H880 0.957 . S
C884 C892 1.574 . S
C884 C900 1.368 . S
H885 C893 0.950 . S
H886 C891 0.950 . S
H887 C892 0.949 . S
H888 C894 0.947 1_545 S
H889 C895 0.950 1_545 S
H890 C896 0.949 . S
C891 H886 0.950 . S
C891 C893 1.327 . S
C891 C897 1.429 . S
C892 C884 1.574 . S
C892 H887 0.949 . S
C892 C898 1.368 1_554 S
C893 C877 1.349 . S
C893 H885 0.950 . S
C893 C891 1.327 . S
C894 C882 1.351 . S
C894 H888 0.947 1_565 S
C894 C895 1.328 . S
C895 H889 0.950 1_565 S
C895 C894 1.328 . S
C895 C899 1.429 . S
C896 C879 1.574 . S
C896 H890 0.949 . S
C896 C900 1.368 1_556 S
C897 C878 1.429 1_556 S
C897 C891 1.429 . S
C897 C898 1.523 . S
C898 C879 1.368 . S
C898 C892 1.368 1_556 S
C898 C897 1.523 . S
C899 C883 1.429 1_554 S
C899 C895 1.429 . S
C899 C900 1.523 . S
C900 C884 1.368 . S
C900 C896 1.368 1_554 S
C900 C899 1.523 . S
H901 C876 0.950 . S
H902 C878 0.950 . S
H903 C879 0.949 . S
H904 C881 0.950 . S
H905 C883 0.950 . S
C906 C907 1.349 . S
C906 C908 1.327 . S
C906 H931 0.950 . S
C907 C906 1.349 . S
C907 C923 1.349 . S
C908 C906 1.327 . S
C908 C927 1.429 . S
C908 H932 0.950 . S
C909 C926 1.574 . S
C909 C928 1.368 . S
C909 H933 0.949 . S
H910 C914 0.949 . S
C911 C912 1.349 . S
C911 C913 1.327 . S
C911 H934 0.950 . S
C912 C911 1.349 . S
C912 C924 1.349 . S
C913 C911 1.327 . S
C913 C929 1.429 . S
C913 H935 0.950 . S
C914 H910 0.949 . S
C914 C922 1.574 . S
C914 C930 1.368 . S
H915 C923 0.950 . S
H916 C921 0.950 . S
H917 C922 0.949 . S
H918 C924 0.950 . S
H919 C925 0.950 . S
H920 C926 0.949 . S
C921 H916 0.950 . S
C921 C923 1.327 . S
C921 C927 1.429 . S
C922 C914 1.574 . S
C922 H917 0.949 . S
C922 C928 1.368 . S
C923 C907 1.349 . S
C923 H915 0.950 . S
C923 C921 1.327 . S
C924 C912 1.349 . S
C924 H918 0.950 . S
C924 C925 1.327 . S
C925 H919 0.950 . S
C925 C924 1.327 . S
C925 C929 1.429 . S
C926 C909 1.574 . S
C926 H920 0.949 . S
C926 C930 1.368 . S
C927 C908 1.429 . S
C927 C921 1.429 . S
C927 C928 1.523 . S
C928 C909 1.368 . S
C928 C922 1.368 . S
C928 C927 1.523 . S
C929 C913 1.429 . S
C929 C925 1.429 . S
C929 C930 1.523 . S
C930 C914 1.368 . S
C930 C926 1.368 . S
C930 C929 1.523 . S
H931 C906 0.950 . S
H932 C908 0.950 . S
H933 C909 0.949 . S
H934 C911 0.950 . S
H935 C913 0.950 . S
C936 C937 1.349 . S
C936 C938 1.327 . S
C936 H961 0.950 . S
C937 C936 1.349 . S
C937 C953 1.349 . S
C938 C936 1.327 . S
C938 C957 1.429 . S
C938 H962 0.950 . S
C939 C956 1.574 . S
C939 C958 1.368 . S
C939 H963 0.949 . S
H940 C944 0.949 1_556 S
C941 C942 1.349 . S
C941 C943 1.327 . S
C941 H964 0.950 . S
C942 C941 1.349 . S
C942 C954 1.349 . S
C943 C941 1.327 . S
C943 C959 1.429 . S
C943 H965 0.950 . S
C944 H940 0.949 1_554 S
C944 C952 1.574 . S
C944 C960 1.368 . S
H945 C953 0.950 . S
H946 C951 0.950 . S
H947 C952 0.949 . S
H948 C954 0.950 1_556 S
H949 C955 0.950 1_556 S
H950 C956 0.949 . S
C951 H946 0.950 . S
C951 C953 1.327 . S
C951 C957 1.429 . S
C952 C944 1.574 . S
C952 H947 0.949 . S
C952 C958 1.368 . S
C953 C937 1.349 . S
C953 H945 0.950 . S
C953 C951 1.327 . S
C954 C942 1.349 . S
C954 H948 0.950 1_554 S
C954 C955 1.327 . S
C955 H949 0.950 1_554 S
C955 C954 1.327 . S
C955 C959 1.429 . S
C956 C939 1.574 . S
C956 H950 0.949 . S
C956 C960 1.368 . S
C957 C938 1.429 . S
C957 C951 1.429 . S
C957 C958 1.523 . S
C958 C939 1.368 . S
C958 C952 1.368 . S
C958 C957 1.523 . S
C959 C943 1.429 . S
C959 C955 1.429 . S
C959 C960 1.523 . S
C960 C944 1.368 . S
C960 C956 1.368 . S
C960 C959 1.523 . S
H961 C936 0.950 . S
H962 C938 0.950 . S
H963 C939 0.949 . S
H964 C941 0.950 . S
H965 C943 0.950 . S
C966 C967 1.349 . S
C966 C968 1.327 . S
C966 H991 0.950 . S
C967 C966 1.349 . S
C967 C983 1.349 . S
C968 C966 1.327 . S
C968 C987 1.429 . S
C968 H992 0.950 . S
C969 C986 1.574 . S
C969 C988 1.368 . S
C969 H993 0.949 . S
H970 C974 0.949 . S
C971 C972 1.349 . S
C971 C973 1.327 . S
C971 H994 0.950 . S
C972 C971 1.349 . S
C972 C984 1.349 . S
C973 C971 1.327 . S
C973 C989 1.429 . S
C973 H995 0.950 . S
C974 H970 0.949 . S
C974 C982 1.574 . S
C974 C990 1.368 . S
H975 C983 0.950 . S
H976 C981 0.950 . S
H977 C982 0.949 . S
H978 C984 0.950 . S
H979 C985 0.950 . S
H980 C986 0.949 . S
C981 H976 0.950 . S
C981 C983 1.327 . S
C981 C987 1.429 . S
C982 C974 1.574 . S
C982 H977 0.949 . S
C982 C988 1.368 . S
C983 C967 1.349 . S
C983 H975 0.950 . S
C983 C981 1.327 . S
C984 C972 1.349 . S
C984 H978 0.950 . S
C984 C985 1.327 . S
C985 H979 0.950 . S
C985 C984 1.327 . S
C985 C989 1.429 . S
C986 C969 1.574 . S
C986 H980 0.949 . S
C986 C990 1.368 . S
C987 C968 1.429 . S
C987 C981 1.429 . S
C987 C988 1.523 . S
C988 C969 1.368 . S
C988 C982 1.368 . S
C988 C987 1.523 . S
C989 C973 1.429 . S
C989 C985 1.429 . S
C989 C990 1.523 . S
C990 C974 1.368 . S
C990 C986 1.368 . S
C990 C989 1.523 . S
H991 C966 0.950 . S
H992 C968 0.950 . S
H993 C969 0.949 . S
H994 C971 0.950 . S
H995 C973 0.950 . S
C996 C997 1.347 . S
C996 C998 1.328 1_655 S
C996 H1021 0.951 1_655 S
C997 C996 1.347 . S
C997 C1013 1.349 . S
C998 C996 1.328 1_455 S
C998 C1017 1.429 1_455 S
C998 H1022 0.950 . S
C999 C1016 1.574 . S
C999 C1018 1.368 1_554 S
C999 H1023 0.949 . S
H1000 C1004 0.949 . S
C1001 C1002 1.358 1_554 S
C1001 C1003 1.325 1_455 S
C1001 H1024 0.943 1_455 S
C1002 C1001 1.358 1_556 S
C1002 C1014 1.349 . S
C1003 C1001 1.325 1_655 S
C1003 C1019 1.429 1_654 S
C1003 H1025 0.950 . S
C1004 H1000 0.949 . S
C1004 C1012 1.574 . S
C1004 C1020 1.368 . S
H1005 C1013 0.950 1_554 S
H1006 C1011 0.950 1_554 S
H1007 C1012 0.949 . S
H1008 C1014 0.950 . S
H1009 C1015 0.950 . S
H1010 C1016 0.949 . S
C1011 H1006 0.950 1_556 S
C1011 C1013 1.327 . S
C1011 C1017 1.429 . S
C1012 C1004 1.574 . S
C1012 H1007 0.949 . S
C1012 C1018 1.368 1_455 S
C1013 C997 1.349 . S
C1013 H1005 0.950 1_556 S
C1013 C1011 1.327 . S
C1014 C1002 1.349 . S
C1014 H1008 0.950 . S
C1014 C1015 1.327 . S
C1015 H1009 0.950 . S
C1015 C1014 1.327 . S
C1015 C1019 1.429 . S
C1016 C999 1.574 . S
C1016 H1010 0.949 . S
C1016 C1020 1.368 1_654 S
C1017 C998 1.429 1_655 S
C1017 C1011 1.429 . S
C1017 C1018 1.523 . S
C1018 C999 1.368 1_556 S
C1018 C1012 1.368 1_655 S
C1018 C1017 1.523 . S
C1019 C1003 1.429 1_456 S
C1019 C1015 1.429 . S
C1019 C1020 1.523 . S
C1020 C1004 1.368 . S
C1020 C1016 1.368 1_456 S
C1020 C1019 1.523 . S
H1021 C996 0.951 1_455 S
H1022 C998 0.950 . S
H1023 C999 0.949 . S
H1024 C1001 0.943 1_655 S
H1025 C1003 0.950 . S
C1026 C1027 1.349 . S
C1026 C1028 1.327 . S
C1026 H1051 0.950 . S
C1027 C1026 1.349 . S
C1027 C1043 1.349 . S
C1028 C1026 1.327 . S
C1028 C1047 1.429 . S
C1028 H1052 0.950 . S
C1029 C1046 1.574 . S
C1029 C1048 1.368 . S
C1029 H1053 0.949 . S
H1030 C1034 0.949 . S
C1031 C1032 1.349 . S
C1031 C1033 1.327 . S
C1031 H1054 0.950 . S
C1032 C1031 1.349 . S
C1032 C1044 1.349 . S
C1033 C1031 1.327 . S
C1033 C1049 1.429 . S
C1033 H1055 0.950 . S
C1034 H1030 0.949 . S
C1034 C1042 1.574 . S
C1034 C1050 1.368 . S
H1035 C1043 0.950 . S
H1036 C1041 0.950 . S
H1037 C1042 0.949 . S
H1038 C1044 0.950 . S
H1039 C1045 0.950 . S
H1040 C1046 0.949 . S
C1041 H1036 0.950 . S
C1041 C1043 1.327 . S
C1041 C1047 1.429 . S
C1042 C1034 1.574 . S
C1042 H1037 0.949 . S
C1042 C1048 1.368 . S
C1043 C1027 1.349 . S
C1043 H1035 0.950 . S
C1043 C1041 1.327 . S
C1044 C1032 1.349 . S
C1044 H1038 0.950 . S
C1044 C1045 1.327 . S
C1045 H1039 0.950 . S
C1045 C1044 1.327 . S
C1045 C1049 1.429 . S
C1046 C1029 1.574 . S
C1046 H1040 0.949 . S
C1046 C1050 1.368 . S
C1047 C1028 1.429 . S
C1047 C1041 1.429 . S
C1047 C1048 1.523 . S
C1048 C1029 1.368 . S
C1048 C1042 1.368 . S
C1048 C1047 1.523 . S
C1049 C1033 1.429 . S
C1049 C1045 1.429 . S
C1049 C1050 1.523 . S
C1050 C1034 1.368 . S
C1050 C1046 1.368 . S
C1050 C1049 1.523 . S
H1051 C1026 0.950 . S
H1052 C1028 0.950 . S
H1053 C1029 0.949 . S
H1054 C1031 0.950 . S
H1055 C1033 0.950 . S
C1056 C1057 1.349 . S
C1056 C1058 1.327 . S
C1056 H1081 0.950 . S
C1057 C1056 1.349 . S
C1057 C1073 1.349 . S
C1058 C1056 1.327 . S
C1058 C1077 1.429 . S
C1058 H1082 0.950 . S
C1059 C1076 1.574 . S
C1059 C1078 1.368 . S
C1059 H1083 0.949 . S
H1060 C1064 0.949 . S
C1061 C1062 1.349 . S
C1061 C1063 1.327 . S
C1061 H1084 0.952 . S
C1062 C1061 1.349 . S
C1062 C1074 1.349 . S
C1063 C1061 1.327 . S
C1063 C1079 1.429 . S
C1063 H1085 0.950 . S
C1064 H1060 0.949 . S
C1064 C1072 1.574 . S
C1064 C1080 1.368 . S
H1065 C1073 0.950 . S
H1066 C1071 0.950 . S
H1067 C1072 0.949 . S
H1068 C1074 0.950 . S
H1069 C1075 0.950 . S
H1070 C1076 0.949 . S
C1071 H1066 0.950 . S
C1071 C1073 1.327 . S
C1071 C1077 1.429 . S
C1072 C1064 1.574 . S
C1072 H1067 0.949 . S
C1072 C1078 1.368 . S
C1073 C1057 1.349 . S
C1073 H1065 0.950 . S
C1073 C1071 1.327 . S
C1074 C1062 1.349 . S
C1074 H1068 0.950 . S
C1074 C1075 1.327 . S
C1075 H1069 0.950 . S
C1075 C1074 1.327 . S
C1075 C1079 1.429 . S
C1076 C1059 1.574 . S
C1076 H1070 0.949 . S
C1076 C1080 1.368 . S
C1077 C1058 1.429 . S
C1077 C1071 1.429 . S
C1077 C1078 1.523 . S
C1078 C1059 1.368 . S
C1078 C1072 1.368 . S
C1078 C1077 1.523 . S
C1079 C1063 1.429 . S
C1079 C1075 1.429 . S
C1079 C1080 1.523 . S
C1080 C1064 1.368 . S
C1080 C1076 1.368 . S
C1080 C1079 1.523 . S
H1081 C1056 0.950 . S
H1082 C1058 0.950 . S
H1083 C1059 0.949 . S
H1084 C1061 0.952 . S
H1085 C1063 0.950 . S
C1086 C1087 1.349 . S
C1086 C1088 1.327 . S
C1086 H1111 0.950 . S
C1087 C1086 1.349 . S
C1087 C1103 1.349 . S
C1088 C1086 1.327 . S
C1088 C1107 1.429 . S
C1088 H1112 0.950 . S
C1089 C1106 1.574 . S
C1089 C1108 1.368 . S
C1089 H1113 0.949 . S
H1090 C1094 0.949 . S
C1091 C1092 1.349 . S
C1091 C1093 1.327 . S
C1091 H1114 0.950 . S
C1092 C1091 1.349 . S
C1092 C1104 1.349 . S
C1093 C1091 1.327 . S
C1093 C1109 1.429 . S
C1093 H1115 0.950 . S
C1094 H1090 0.949 . S
C1094 C1102 1.574 . S
C1094 C1110 1.368 . S
H1095 C1103 0.950 . S
H1096 C1101 0.950 . S
H1097 C1102 0.949 . S
H1098 C1104 0.950 . S
H1099 C1105 0.950 . S
H1100 C1106 0.949 . S
C1101 H1096 0.950 . S
C1101 C1103 1.327 . S
C1101 C1107 1.429 . S
C1102 C1094 1.574 . S
C1102 H1097 0.949 . S
C1102 C1108 1.368 . S
C1103 C1087 1.349 . S
C1103 H1095 0.950 . S
C1103 C1101 1.327 . S
C1104 C1092 1.349 . S
C1104 H1098 0.950 . S
C1104 C1105 1.327 . S
C1105 H1099 0.950 . S
C1105 C1104 1.327 . S
C1105 C1109 1.429 . S
C1106 C1089 1.574 . S
C1106 H1100 0.949 . S
C1106 C1110 1.368 . S
C1107 C1088 1.429 . S
C1107 C1101 1.429 . S
C1107 C1108 1.523 . S
C1108 C1089 1.368 . S
C1108 C1102 1.368 . S
C1108 C1107 1.523 . S
C1109 C1093 1.429 . S
C1109 C1105 1.429 . S
C1109 C1110 1.523 . S
C1110 C1094 1.368 . S
C1110 C1106 1.368 . S
C1110 C1109 1.523 . S
H1111 C1086 0.950 . S
H1112 C1088 0.950 . S
H1113 C1089 0.949 . S
H1114 C1091 0.950 . S
H1115 C1093 0.950 . S
C397 C1 1.554 . S
C402 C315 1.444 . S
C427 C40 1.513 . S
C432 C349 1.407 . S
C462 C361 1.396 . S
C457 C99 1.504 . S
C487 C118 1.507 . S
C492 C395 1.400 . S
C522 C352 1.435 . S
C517 C16 1.547 . S
C552 C332 1.401 1_565 S
C547 C60 1.511 . S
C582 C379 1.398 . S
C577 C79 1.509 . S
C612 C370 1.387 . S
C607 C138 1.490 . S
C637 C21 1.538 . S
C642 C378 1.430 . S
C672 C340 1.409 . S
C667 C94 1.520 . S
C697 C133 1.496 . S
C702 C316 1.381 . S
C727 C55 1.522 . S
C732 C373 1.411 . S
C762 C331 1.623 . S
C757 C157 1.717 . S
C787 C196 1.702 . S
C792 C353 1.603 . S
C817 C255 1.713 . S
C822 C358 1.622 . S
C847 C289 1.720 . S
C852 C391 1.630 . S
C877 C172 1.731 . S
C882 C336 1.638 . S
C912 C328 1.639 . S
C907 C216 1.738 . S
C942 C382 1.644 . S
C937 C235 1.741 . S
C972 C374 1.585 . S
C967 C294 1.670 . S
C997 C177 1.682 . S
C1002 C394 1.596 . S
C1032 C337 1.643 . S
C1027 C250 1.745 . S
C1062 C319 1.592 . S
C1057 C274 1.690 . S
C1087 C211 1.701 . S
C1092 C357 1.615 . S
