# Generated by pormake.
# Topology zzz, (3,6)-cn, num edge types: 1
# Building blocks:
#     Node 0, Type 0, BuildingBlock: MIDCAF_clean_linker_0, # of connection points: 3
#     Node 1, Type 0, BuildingBlock: MIDCAF_clean_linker_0, # of connection points: 3
#     Node 2, Type 0, BuildingBlock: MIDCAF_clean_linker_0, # of connection points: 3
#     Node 3, Type 0, BuildingBlock: MIDCAF_clean_linker_0, # of connection points: 3
#     Node 4, Type 0, BuildingBlock: MIDCAF_clean_linker_0, # of connection points: 3
#     Node 5, Type 0, BuildingBlock: MIDCAF_clean_linker_0, # of connection points: 3
#     Node 6, Type 0, BuildingBlock: MIDCAF_clean_linker_0, # of connection points: 3
#     Node 7, Type 0, BuildingBlock: MIDCAF_clean_linker_0, # of connection points: 3
#     Node 8, Type 1, BuildingBlock: GEDQOX_clean_sbu_0, # of connection points: 6
#     Node 9, Type 1, BuildingBlock: GEDQOX_clean_sbu_0, # of connection points: 6
#     Node 10, Type 1, BuildingBlock: GEDQOX_clean_sbu_0, # of connection points: 6
#     Node 11, Type 1, BuildingBlock: GEDQOX_clean_sbu_0, # of connection points: 6
#     Edge 12, Type (0, 1), BuildingBlock: UVAHIK_clean_linker_0, # of connection points: 2
#     Edge 13, Type (0, 1), BuildingBlock: UVAHIK_clean_linker_0, # of connection points: 2
#     Edge 14, Type (0, 1), BuildingBlock: UVAHIK_clean_linker_0, # of connection points: 2
#     Edge 15, Type (0, 1), BuildingBlock: UVAHIK_clean_linker_0, # of connection points: 2
#     Edge 16, Type (0, 1), BuildingBlock: UVAHIK_clean_linker_0, # of connection points: 2
#     Edge 17, Type (0, 1), BuildingBlock: UVAHIK_clean_linker_0, # of connection points: 2
#     Edge 18, Type (0, 1), BuildingBlock: UVAHIK_clean_linker_0, # of connection points: 2
#     Edge 19, Type (0, 1), BuildingBlock: UVAHIK_clean_linker_0, # of connection points: 2
#     Edge 20, Type (0, 1), BuildingBlock: UVAHIK_clean_linker_0, # of connection points: 2
#     Edge 21, Type (0, 1), BuildingBlock: UVAHIK_clean_linker_0, # of connection points: 2
#     Edge 22, Type (0, 1), BuildingBlock: UVAHIK_clean_linker_0, # of connection points: 2
#     Edge 23, Type (0, 1), BuildingBlock: UVAHIK_clean_linker_0, # of connection points: 2
#     Edge 24, Type (0, 1), BuildingBlock: UVAHIK_clean_linker_0, # of connection points: 2
#     Edge 25, Type (0, 1), BuildingBlock: UVAHIK_clean_linker_0, # of connection points: 2
#     Edge 26, Type (0, 1), BuildingBlock: UVAHIK_clean_linker_0, # of connection points: 2
#     Edge 27, Type (0, 1), BuildingBlock: UVAHIK_clean_linker_0, # of connection points: 2
#     Edge 28, Type (0, 1), BuildingBlock: UVAHIK_clean_linker_0, # of connection points: 2
#     Edge 29, Type (0, 1), BuildingBlock: UVAHIK_clean_linker_0, # of connection points: 2
#     Edge 30, Type (0, 1), BuildingBlock: UVAHIK_clean_linker_0, # of connection points: 2
#     Edge 31, Type (0, 1), BuildingBlock: UVAHIK_clean_linker_0, # of connection points: 2
#     Edge 32, Type (0, 1), BuildingBlock: UVAHIK_clean_linker_0, # of connection points: 2
#     Edge 33, Type (0, 1), BuildingBlock: UVAHIK_clean_linker_0, # of connection points: 2
#     Edge 34, Type (0, 1), BuildingBlock: UVAHIK_clean_linker_0, # of connection points: 2
#     Edge 35, Type (0, 1), BuildingBlock: UVAHIK_clean_linker_0, # of connection points: 2
# Relax obj value: 0.305
# Max RMSD: 0.255
# Mean RMSD: 0.205
data_MOF--net-zzz--node1-GEDQOX_clean_sbu_0--node2-MIDCAF_clean_linker_0--edge1-UVAHIK_clean_linker_0
_symmetry_space_group_name_H-M    P1
_symmetry_Int_Tables_number       1
_symmetry_cell_setting            triclinic
loop_
_symmetry_equiv_pos_as_xyz
'x, y, z'
_cell_length_a     76.688697
_cell_length_b     72.108272
_cell_length_c     26.314336
_cell_angle_alpha  83.631278
_cell_angle_beta   91.314086
_cell_angle_gamma 101.02873
loop_
_atom_site_label
_atom_site_type_symbol
_atom_site_fract_x
_atom_site_fract_y
_atom_site_fract_z
_atom_type_partial_charge
C0 C 0.79289 0.41977 0.27396 0.0
C1 C 0.78865 0.43522 0.29599 0.0
C2 C 0.77482 0.44383 0.27452 0.0
C3 C 0.76599 0.4377 0.23048 0.0
H4 H 0.7172 0.43181 0.14027 0.0
H5 H 0.69106 0.44336 0.10608 0.0
H6 H 0.7087 0.44114 0.95239 0.0
H7 H 0.73449 0.42889 0.98668 0.0
H8 H 0.77489 0.41923 0.97413 0.0
H9 H 0.79917 0.41352 0.92401 0.0
H10 H 0.81367 0.37578 0.05066 0.0
H11 H 0.78999 0.38254 0.10165 0.0
H12 H 0.78833 0.40232 0.21262 0.0
H13 H 0.80356 0.41291 0.28936 0.0
H14 H 0.77114 0.45565 0.29102 0.0
H15 H 0.75587 0.44512 0.21376 0.0
N16 N 0.74919 0.42469 0.13634 0.0
N17 N 0.75404 0.41462 0.0568 0.0
N18 N 0.77363 0.41045 0.12493 0.0
C19 C 0.744 0.42251 0.08718 0.0
C20 C 0.76877 0.40838 0.07572 0.0
C21 C 0.76402 0.41867 0.15546 0.0
C22 C 0.72798 0.42942 0.06628 0.0
C23 C 0.7155 0.43376 0.09917 0.0
C24 C 0.70053 0.44051 0.07949 0.0
C25 C 0.69774 0.44331 0.02636 0.0
C26 C 0.71022 0.4389 0.99349 0.0
C27 C 0.7251 0.43196 0.0132 0.0
C28 C 0.78076 0.40157 0.042 0.0
C29 C 0.78305 0.4094 0.9908 0.0
C30 C 0.79698 0.40602 0.96196 0.0
C31 C 0.80871 0.39443 0.98344 0.0
C32 C 0.80531 0.38526 0.03328 0.0
C33 C 0.79165 0.38899 0.06244 0.0
C34 C 0.771 0.423 0.20669 0.0
C35 C 0.78421 0.41377 0.22973 0.0
C36 C 0.92159 0.76381 0.32707 0.0
C37 C 0.93906 0.76818 0.3456 0.0
C38 C 0.9519 0.75874 0.32821 0.0
C39 C 0.94755 0.74607 0.29094 0.0
H40 H 0.94721 0.68663 0.22535 0.0
H41 H 0.95872 0.65971 0.1976 0.0
H42 H 0.93879 0.67205 0.0454 0.0
H43 H 0.92746 0.6983 0.07201 0.0
H44 H 0.91457 0.73206 0.03508 0.0
H45 H 0.91624 0.75654 0.96297 0.0
H46 H 0.90921 0.7974 0.06512 0.0
H47 H 0.90754 0.77305 0.13748 0.0
H48 H 0.90404 0.74935 0.27363 0.0
H49 H 0.9114 0.7709 0.33913 0.0
H50 H 0.96545 0.7617 0.34204 0.0
H51 H 0.95791 0.73989 0.27598 0.0
N52 N 0.93267 0.71824 0.21201 0.0
N53 N 0.92205 0.72196 0.12777 0.0
N54 N 0.91892 0.74408 0.18327 0.0
C55 C 0.92995 0.71181 0.16492 0.0
C56 C 0.91656 0.73807 0.13626 0.0
C57 C 0.9268 0.7343 0.22136 0.0
C58 C 0.9365 0.69485 0.15106 0.0
C59 C 0.94527 0.68352 0.18607 0.0
C60 C 0.95183 0.66811 0.17025 0.0
C61 C 0.9499 0.664 0.11908 0.0
C62 C 0.94084 0.67509 0.08476 0.0
C63 C 0.93423 0.69018 0.10041 0.0
C64 C 0.9116 0.75077 0.09239 0.0
C65 C 0.9128 0.74609 0.0422 0.0
C66 C 0.91373 0.76009 1.00073 0.0
C67 C 0.91327 0.77891 0.00868 0.0
C68 C 0.90965 0.78299 0.0579 0.0
C69 C 0.90882 0.76903 0.09948 0.0
C70 C 0.93038 0.74288 0.26996 0.0
C71 C 0.91735 0.75143 0.28949 0.0
C72 C 0.70683 0.01057 0.23062 0.0
C73 C 0.71149 0.99648 0.26667 0.0
C74 C 0.72458 0.98654 0.25418 0.0
C75 C 0.73279 0.99056 0.20617 0.0
H76 H 0.78826 0.01527 0.11469 0.0
H77 H 0.8185 0.01394 0.08824 0.0
H78 H 0.79735 0.98935 0.95224 0.0
H79 H 0.76734 0.99115 0.97769 0.0
H80 H 0.74263 0.03252 0.93344 0.0
H81 H 0.72422 0.04162 0.86116 0.0
H82 H 0.67735 0.02335 0.95495 0.0
H83 H 0.69559 0.01444 0.0273 0.0
H84 H 0.71059 0.02503 0.15514 0.0
H85 H 0.69665 0.01831 0.23914 0.0
H86 H 0.72839 0.97561 0.28145 0.0
H87 H 0.74268 0.98253 0.19717 0.0
N88 N 0.75149 0.00408 0.10794 0.0
N89 N 0.74774 0.01276 0.02023 0.0
N90 N 0.72518 0.01366 0.07767 0.0
C91 C 0.75781 0.00667 0.05929 0.0
C92 C 0.73145 0.01634 0.02909 0.0
C93 C 0.73508 0.00752 0.11724 0.0
C94 C 0.77558 0.00337 0.04805 0.0
C95 C 0.79011 0.00929 0.07967 0.0
C96 C 0.80733 0.00863 0.06449 0.0
C97 C 0.8101 1.00157 0.01829 0.0
C98 C 0.79547 0.99475 0.98813 0.0
C99 C 0.77837 0.99584 0.0026 0.0
C100 C 0.72053 0.02266 0.98602 0.0
C101 C 0.7284 0.03052 0.93869 0.0
C102 C 0.71794 0.03582 0.89743 0.0
C103 C 0.69945 0.03303 0.90263 0.0
C104 C 0.69161 0.02546 0.95002 0.0
C105 C 0.70206 0.02045 0.99143 0.0
C106 C 0.7277 0.00427 0.16955 0.0
C107 C 0.71474 0.01432 0.18245 0.0
C108 C 0.61958 0.7287 0.23059 0.0
C109 C 0.61308 0.73051 0.18022 0.0
C110 C 0.60815 0.74776 0.16077 0.0
C111 C 0.60778 0.7619 0.19263 0.0
H112 H 0.60299 0.8169 0.20352 0.0
H113 H 0.59332 0.84475 0.16305 0.0
H114 H 0.56199 0.84678 0.29599 0.0
H115 H 0.5714 0.81796 0.33685 0.0
H116 H 0.56156 0.75909 0.40128 0.0
H117 H 0.55393 0.73209 0.4671 0.0
H118 H 0.60967 0.73485 0.50139 0.0
H119 H 0.61715 0.76131 0.43459 0.0
H120 H 0.62274 0.74026 0.3024 0.0
H121 H 0.62401 0.71586 0.24632 0.0
H122 H 0.60303 0.74973 0.12228 0.0
H123 H 0.60255 0.77432 0.17737 0.0
N124 N 0.60144 0.78746 0.26422 0.0
N125 N 0.58946 0.78912 0.34474 0.0
N126 N 0.60309 0.76355 0.33034 0.0
C127 C 0.59325 0.79691 0.29549 0.0
C128 C 0.59475 0.7725 0.36231 0.0
C129 C 0.60639 0.77083 0.28119 0.0
C130 C 0.58793 0.81497 0.27364 0.0
C131 C 0.59407 0.82316 0.22469 0.0
C132 C 0.58865 0.8394 0.2014 0.0
C133 C 0.57698 0.84822 0.22626 0.0
C134 C 0.57093 0.84029 0.27561 0.0
C135 C 0.57641 0.82385 0.29918 0.0
C136 C 0.58992 0.76232 0.41321 0.0
C137 C 0.57207 0.75446 0.42465 0.0
C138 C 0.56774 0.73887 0.46211 0.0
C139 C 0.58122 0.73096 0.4887 0.0
C140 C 0.59898 0.74023 0.48076 0.0
C141 C 0.60327 0.75561 0.44313 0.0
C142 C 0.61206 0.75897 0.24472 0.0
C143 C 0.61894 0.74274 0.26268 0.0
C144 C 0.22527 0.58343 0.3236 0.0
C145 C 0.23126 0.5702 0.29627 0.0
C146 C 0.24683 0.56367 0.31283 0.0
C147 C 0.25573 0.56962 0.35701 0.0
H148 H 0.30052 0.56664 0.44943 0.0
H149 H 0.32739 0.55592 0.48107 0.0
H150 H 0.32158 0.57736 0.62539 0.0
H151 H 0.29453 0.58775 0.59437 0.0
H152 H 0.25374 0.59062 0.62213 0.0
H153 H 0.23038 0.59369 0.68042 0.0
H154 H 0.2018 0.61723 0.5537 0.0
H155 H 0.22506 0.61425 0.49544 0.0
H156 H 0.2287 0.59907 0.38849 0.0
H157 H 0.21325 0.58862 0.31237 0.0
H158 H 0.25192 0.55365 0.29223 0.0
H159 H 0.26732 0.56383 0.36967 0.0
N160 N 0.27243 0.58143 0.45261 0.0
N161 N 0.26857 0.5912 0.53321 0.0
N162 N 0.24725 0.59376 0.4691 0.0
C163 C 0.2785 0.58399 0.5009 0.0
C164 C 0.25297 0.59621 0.51745 0.0
C165 C 0.25681 0.5864 0.43639 0.0
C166 C 0.29527 0.57805 0.51929 0.0
C167 C 0.30496 0.56914 0.48788 0.0
C168 C 0.32045 0.56305 0.50595 0.0
C169 C 0.32664 0.56574 0.55583 0.0
C170 C 0.31705 0.5748 0.58706 0.0
C171 C 0.30156 0.58088 0.56905 0.0
C172 C 0.24109 0.60186 0.554 0.0
C173 C 0.24273 0.59694 0.60687 0.0
C174 C 0.22933 0.59862 0.64026 0.0
C175 C 0.21419 0.60549 0.62148 0.0
C176 C 0.21334 0.61197 0.56933 0.0
C177 C 0.22662 0.61011 0.53589 0.0
C178 C 0.24917 0.58212 0.38571 0.0
C179 C 0.2341 0.58931 0.36767 0.0
C180 C 0.10665 0.24028 0.26813 0.0
C181 C 0.08938 0.23421 0.24967 0.0
C182 C 0.07573 0.24321 0.26394 0.0
C183 C 0.07903 0.25673 0.29935 0.0
H184 H 0.07574 0.31659 0.36323 0.0
H185 H 0.06624 0.34514 0.38711 0.0
H186 H 0.09557 0.34055 0.52873 0.0
H187 H 0.10551 0.31323 0.50439 0.0
H188 H 0.1051 0.27296 0.55706 0.0
H189 H 0.10206 0.24904 0.63081 0.0
H190 H 0.11179 0.20732 0.53476 0.0
H191 H 0.11485 0.23111 0.46082 0.0
H192 H 0.12306 0.25684 0.32001 0.0
H193 H 0.11759 0.23407 0.25701 0.0
H194 H 0.06226 0.23887 0.25057 0.0
H195 H 0.06804 0.2623 0.31286 0.0
N196 N 0.09388 0.28723 0.37527 0.0
N197 N 0.10206 0.28348 0.46192 0.0
N198 N 0.10455 0.25996 0.4102 0.0
C199 C 0.09607 0.29412 0.42189 0.0
C200 C 0.10627 0.26644 0.4567 0.0
C201 C 0.0985 0.27017 0.36941 0.0
C202 C 0.09131 0.31246 0.43187 0.0
C203 C 0.08038 0.32196 0.39894 0.0
C204 C 0.07481 0.33822 0.41291 0.0
C205 C 0.08015 0.34528 0.45991 0.0
C206 C 0.09143 0.33595 0.49181 0.0
C207 C 0.09699 0.31996 0.47792 0.0
C208 C 0.10964 0.25379 0.50263 0.0
C209 C 0.10714 0.25885 0.55173 0.0
C210 C 0.1054 0.24518 0.59412 0.0
C211 C 0.10635 0.2263 0.58824 0.0
C212 C 0.111 0.22179 0.5404 0.0
C213 C 0.11261 0.23542 0.4979 0.0
C214 C 0.096 0.26139 0.32101 0.0
C215 C 0.10987 0.25355 0.30367 0.0
C216 C 0.32658 1.00152 0.38747 0.0
C217 C 0.32107 0.01279 0.34547 0.0
C218 C 0.30469 0.01871 0.34804 0.0
C219 C 0.29446 0.01414 0.39281 0.0
H220 H 0.23667 0.98814 0.47854 0.0
H221 H 0.20567 0.98892 0.49897 0.0
H222 H 0.22377 0.0211 0.62533 0.0
H223 H 0.25447 0.01987 0.60592 0.0
H224 H 0.27729 0.9738 0.66548 0.0
H225 H 0.29345 0.96333 0.74157 0.0
H226 H 0.34318 0.98623 0.66412 0.0
H227 H 0.32725 0.99642 0.58824 0.0
H228 H 0.32139 0.98859 0.4637 0.0
H229 H 0.3389 0.99632 0.38622 0.0
H230 H 0.30011 0.0274 0.3162 0.0
H231 H 0.28219 0.0194 0.39438 0.0
N232 N 0.274 0.00319 0.48873 0.0
N233 N 0.27474 0.9951 0.57778 0.0
N234 N 0.29951 0.99466 0.52825 0.0
C235 C 0.26595 1.00069 0.53523 0.0
C236 C 0.2915 0.99198 0.57454 0.0
C237 C 0.29092 1.00022 0.48516 0.0
C238 C 0.2478 0.00392 0.5408 0.0
C239 C 0.23395 0.99571 0.50989 0.0
C240 C 0.21631 0.99605 0.52172 0.0
C241 C 0.21246 0.00505 0.56368 0.0
C242 C 0.22644 0.0142 0.59258 0.0
C243 C 0.24395 0.01345 0.58159 0.0
C244 C 0.30103 0.98591 0.62091 0.0
C245 C 0.29168 0.97665 0.66487 0.0
C246 C 0.30085 0.97061 0.70826 0.0
C247 C 0.31948 0.97415 0.7086 0.0
C248 C 0.32879 0.98356 0.6649 0.0
C249 C 0.31967 0.98926 0.62138 0.0
C250 C 0.30047 0.0036 0.43564 0.0
C251 C 0.31646 0.99702 0.43191 0.0
C252 C 0.4091 0.27263 0.36513 0.0
C253 C 0.4087 0.26459 0.41637 0.0
C254 C 0.40829 0.24497 0.42682 0.0
C255 C 0.41027 0.2341 0.38731 0.0
H256 H 0.41734 0.18222 0.35511 0.0
H257 H 0.42632 0.15364 0.39323 0.0
H258 H 0.4672 0.16024 0.2787 0.0
H259 H 0.45847 0.18985 0.24095 0.0
H260 H 0.46603 0.24168 0.17085 0.0
H261 H 0.47653 0.26752 0.1032 0.0
H262 H 0.4236 0.27993 0.08892 0.0
H263 H 0.4133 0.25433 0.15561 0.0
H264 H 0.41256 0.26881 0.28701 0.0
H265 H 0.40949 0.28771 0.35561 0.0
H266 H 0.40762 0.23828 0.46585 0.0
H267 H 0.41112 0.21931 0.39712 0.0
N268 N 0.42383 0.21548 0.31008 0.0
N269 N 0.43788 0.21706 0.23076 0.0
N270 N 0.4243 0.24201 0.25065 0.0
C271 C 0.43275 0.20736 0.27732 0.0
C272 C 0.43329 0.23435 0.21711 0.0
C273 C 0.41961 0.23276 0.29732 0.0
C274 C 0.43729 0.18855 0.29508 0.0
C275 C 0.42821 0.17766 0.33751 0.0
C276 C 0.43325 0.161 0.35924 0.0
C277 C 0.44747 0.15445 0.33912 0.0
C278 C 0.45628 0.16494 0.29552 0.0
C279 C 0.45118 0.18182 0.27357 0.0
C280 C 0.43886 0.24601 0.16831 0.0
C281 C 0.45658 0.24954 0.15181 0.0
C282 C 0.46262 0.26448 0.1136 0.0
C283 C 0.45095 0.27594 0.09087 0.0
C284 C 0.43295 0.27136 0.10504 0.0
C285 C 0.42703 0.25668 0.1434 0.0
C286 C 0.4127 0.24267 0.33663 0.0
C287 C 0.41103 0.26178 0.32565 0.0
Nd288 Nd 0.002 0.00216 0.74207 0.0
Nd289 Nd 0.02039 0.00192 0.84341 0.0
C290 C 0.98098 0.99291 0.66398 0.0
C291 C 0.97572 0.97496 0.64017 0.0
C292 C 0.97062 0.95743 0.67021 0.0
C293 C 0.96725 0.94041 0.6476 0.0
C294 C 0.96898 0.94048 0.59444 0.0
C295 C 0.97379 0.95808 0.56439 0.0
C296 C 0.9771 0.97512 0.58703 0.0
C297 C 0.03749 1.00171 0.73741 0.0
C298 C 0.00176 0.96184 0.8158 0.0
C299 C 0.04151 0.01114 0.92151 0.0
C300 C 0.047 0.02903 0.94536 0.0
C301 C 0.04966 0.04677 0.9156 0.0
C302 C 0.05337 0.06365 0.93879 0.0
C303 C 0.05452 0.06323 0.99235 0.0
C304 C 0.05216 0.04542 0.02201 0.0
C305 C 0.04839 0.02852 0.99873 0.0
C306 C 0.98492 0.00243 0.84773 0.0
C307 C 0.0203 0.04224 0.77001 0.0
O308 O 0.97503 0.99323 0.71004 0.0
O309 O 0.99764 1.00114 0.65856 0.0
O310 O 0.02936 0.01213 0.70548 0.0
O311 O 0.02702 0.99157 0.77018 0.0
O312 O 0.99331 0.97195 0.78236 0.0
O313 O 0.0159 0.96987 0.84034 0.0
O314 O 0.04738 0.01081 0.87537 0.0
O315 O 0.02478 0.00314 0.92686 0.0
O316 O 0.99298 0.99199 0.87985 0.0
O317 O 0.99546 0.01258 0.8152 0.0
O318 O 0.02896 0.03213 0.80285 0.0
O319 O 0.00615 0.03415 0.74569 0.0
H320 H 0.96958 0.95679 0.71133 0.0
H321 H 0.96379 0.92715 0.67204 0.0
H322 H 0.97502 0.9587 0.5233 0.0
H323 H 0.98108 0.98843 0.56308 0.0
H324 H 0.04868 0.04765 0.8744 0.0
H325 H 0.05537 0.07706 0.91466 0.0
H326 H 0.05277 0.04453 0.06334 0.0
H327 H 0.04623 0.01503 0.02251 0.0
Nd328 Nd 0.51567 0.98315 0.75998 0.0
Nd329 Nd 0.50229 0.01515 0.80558 0.0
C330 C 0.5298 0.95484 0.73516 0.0
C331 C 0.54569 0.95575 0.70417 0.0
C332 C 0.5545 0.94035 0.70628 0.0
C333 C 0.57037 0.94207 0.67917 0.0
C334 C 0.57766 0.95928 0.64998 0.0
C335 C 0.56859 0.97455 0.64776 0.0
C336 C 0.55283 0.97281 0.67466 0.0
C337 C 0.50327 0.00862 0.68953 0.0
C338 C 0.54145 0.02407 0.75151 0.0
C339 C 0.48949 0.0442 0.83134 0.0
C340 C 0.47641 0.04554 0.87027 0.0
C341 C 0.46324 0.05644 0.85847 0.0
C342 C 0.44997 0.05653 0.8941 0.0
C343 C 0.44976 0.04581 0.94217 0.0
C344 C 0.46306 0.03502 0.95388 0.0
C345 C 0.47618 0.03481 0.91825 0.0
C346 C 0.51511 0.98996 0.87594 0.0
C347 C 0.47649 0.97399 0.81431 0.0
O348 O 0.53293 0.96195 0.77886 0.0
O349 O 0.51629 0.96031 0.71057 0.0
O350 O 0.51675 1.0009 0.68169 0.0
O351 O 0.49614 0.00208 0.73219 0.0
O352 O 0.5408 0.00565 0.7535 0.0
O353 O 0.52793 0.03138 0.76488 0.0
O354 O 0.48314 0.03471 0.7932 0.0
O355 O 0.50468 0.04023 0.84848 0.0
O356 O 0.50168 0.99771 0.88431 0.0
O357 O 0.522 0.99649 0.833 0.0
O358 O 0.47736 0.99236 0.81541 0.0
O359 O 0.48964 0.96679 0.79793 0.0
H360 H 0.54927 0.92715 0.72938 0.0
H361 H 0.5771 0.93009 0.68188 0.0
H362 H 0.57362 0.98788 0.62496 0.0
H363 H 0.5463 0.98492 0.67279 0.0
H364 H 0.46307 0.06464 0.82144 0.0
H365 H 0.4399 0.065 0.88414 0.0
H366 H 0.46307 0.02634 0.99022 0.0
H367 H 0.48597 0.02597 0.92801 0.0
Nd368 Nd 0.50383 0.51097 0.82373 0.0
Nd369 Nd 0.52179 0.49438 0.73399 0.0
C370 C 0.48508 0.53011 0.87292 0.0
C371 C 0.49132 0.54861 0.89214 0.0
C372 C 0.4844 0.55313 0.93704 0.0
C373 C 0.49231 0.56968 0.95849 0.0
C374 C 0.50722 0.58186 0.93513 0.0
C375 C 0.51371 0.57746 0.88938 0.0
C376 C 0.50591 0.56101 0.86836 0.0
C377 C 0.53911 0.50921 0.84622 0.0
C378 C 0.52922 0.53938 0.73533 0.0
C379 C 0.53574 0.47267 0.67898 0.0
C380 C 0.52649 0.45422 0.66492 0.0
C381 C 0.53533 0.44192 0.64247 0.0
C382 C 0.52595 0.4242 0.63091 0.0
C383 C 0.50771 0.41861 0.64235 0.0
C384 C 0.49903 0.43106 0.66497 0.0
C385 C 0.50831 0.44868 0.67594 0.0
C386 C 0.48921 0.50384 0.713 0.0
C387 C 0.4984 0.46503 0.82693 0.0
O388 O 0.48472 0.53042 0.82293 0.0
O389 O 0.49207 0.51615 0.89582 0.0
O390 O 0.52883 0.51494 0.87708 0.0
O391 O 0.53034 0.50528 0.80694 0.0
O392 O 0.51495 0.53641 0.76482 0.0
O393 O 0.53685 0.52525 0.72467 0.0
O394 O 0.53886 0.47312 0.72796 0.0
O395 O 0.52907 0.4872 0.65859 0.0
O396 O 0.50163 0.50561 0.67919 0.0
O397 O 0.4937 0.49596 0.7552 0.0
O398 O 0.50922 0.46771 0.78712 0.0
O399 O 0.49311 0.47924 0.84622 0.0
H400 H 0.4733 0.54359 0.95632 0.0
H401 H 0.48701 0.57274 0.99377 0.0
H402 H 0.5254 0.58624 0.87101 0.0
H403 H 0.51181 0.55763 0.83451 0.0
H404 H 0.54939 0.44598 0.63398 0.0
H405 H 0.53293 0.41483 0.61345 0.0
H406 H 0.48495 0.42735 0.67326 0.0
H407 H 0.50122 0.45806 0.693 0.0
Nd408 Nd 0.99901 0.51254 0.75317 0.0
Nd409 Nd 0.01884 0.48861 0.83762 0.0
C410 C 0.97579 0.53216 0.71131 0.0
C411 C 0.95987 0.5258 0.68099 0.0
C412 C 0.94753 0.5376 0.66821 0.0
C413 C 0.93199 0.53088 0.64149 0.0
C414 C 0.92857 0.51222 0.6274 0.0
C415 C 0.94114 0.50058 0.64008 0.0
C416 C 0.95658 0.50728 0.66671 0.0
C417 C 0.01118 0.48429 0.70942 0.0
C418 C 0.97902 0.47038 0.80731 0.0
C419 C 0.04241 0.47187 0.8901 0.0
C420 C 0.05961 0.47855 0.91456 0.0
C421 C 0.07137 0.49478 0.89308 0.0
C422 C 0.08713 0.50164 0.91832 0.0
C423 C 0.09145 0.49244 0.96562 0.0
C424 C 0.07971 0.47605 0.98663 0.0
C425 C 0.06395 0.4692 0.96133 0.0
C426 C -0.00037 0.51297 0.87312 0.0
C427 C 0.0402 0.5298 0.77825 0.0
O428 O 0.97496 0.52488 0.75936 0.0
O429 O 0.99101 0.53202 0.68965 0.0
O430 O 0.0027 0.49627 0.684 0.0
O431 O 0.01276 0.4879 0.75511 0.0
O432 O 0.97756 0.4875 0.78584 0.0
O433 O 0.99423 0.46619 0.82499 0.0
O434 O 0.04196 0.47424 0.84003 0.0
O435 O 0.0285 0.47592 0.91108 0.0
O436 O 0.00079 0.49649 0.89715 0.0
O437 O 0.00908 0.5163 0.83329 0.0
O438 O 0.04035 0.51465 0.8116 0.0
O439 O 0.02597 0.53274 0.75149 0.0
H440 H 0.9498 0.55188 0.67939 0.0
H441 H 0.92251 0.54015 0.63276 0.0
H442 H 0.93913 0.48628 0.62914 0.0
H443 H 0.96593 0.49793 0.67653 0.0
H444 H 0.06833 0.50227 0.85702 0.0
H445 H 0.09595 0.51414 0.90072 0.0
H446 H 0.08247 0.46878 0.02331 0.0
H447 H 0.05498 0.45676 0.97872 0.0
C448 C 0.18309 0.98578 0.59216 0.0
C449 C 0.19401 0.00366 0.58057 0.0
C450 C 0.16651 0.98424 0.61481 0.0
C451 C 0.14093 0.01191 0.68631 0.0
H452 H 0.10058 0.97401 0.65203 0.0
C453 C 0.06785 0.01696 0.70901 0.0
C454 C 0.05634 1.00097 0.73241 0.0
C455 C 0.08543 0.01611 0.69926 0.0
C456 C 0.11184 0.98444 0.66254 0.0
H457 H 0.19607 0.03397 0.58133 0.0
H458 H 0.16676 0.03148 0.61838 0.0
H459 H 0.12944 0.97508 0.61348 0.0
H460 H 0.05403 0.97171 0.76533 0.0
H461 H 0.08493 0.96998 0.74628 0.0
H462 H 0.12291 0.0219 0.73298 0.0
C463 C 0.17117 0.01854 0.61198 0.0
C464 C 0.12838 0.98508 0.64051 0.0
C465 C 0.18785 0.02003 0.59016 0.0
C466 C 0.06276 0.98421 0.74733 0.0
C467 C 0.08031 0.98321 0.73635 0.0
C468 C 0.12434 0.01145 0.70758 0.0
C469 C 0.16043 1.0006 0.62564 0.0
C470 C 0.14307 0.99906 0.6514 0.0
C471 C 0.09168 0.99912 0.71176 0.0
C472 C 0.10963 0.99789 0.69527 0.0
H473 H 0.18772 0.97294 0.58577 0.0
H474 H 0.15873 0.97019 0.62526 0.0
H475 H 0.15203 0.02252 0.6968 0.0
H476 H 0.06316 0.03005 0.69747 0.0
H477 H 0.09394 0.0285 0.67994 0.0
C478 C 0.47161 0.13679 0.37236 0.0
C479 C 0.45342 0.13736 0.36603 0.0
C480 C 0.47708 0.12198 0.40401 0.0
C481 C 0.46324 0.08999 0.51818 0.0
H482 H 0.49667 0.06007 0.47931 0.0
C483 C 0.48032 0.02737 0.6553 0.0
C484 C 0.49743 0.02331 0.65299 0.0
C485 C 0.47486 0.0409 0.61913 0.0
C486 C 0.48757 0.06849 0.49133 0.0
H487 H 0.42679 0.12184 0.38502 0.0
H488 H 0.43641 0.09655 0.44138 0.0
H489 H 0.48787 0.08427 0.41703 0.0
H490 H 0.52249 0.03061 0.61246 0.0
H491 H 0.51341 0.05477 0.55124 0.0
H492 H 0.46334 0.075 0.59285 0.0
C493 C 0.44638 0.10766 0.42223 0.0
C494 C 0.48245 0.08228 0.45534 0.0
C495 C 0.44091 0.12222 0.39003 0.0
C496 C 0.50912 0.0333 0.61472 0.0
C497 C 0.50382 0.04707 0.57926 0.0
C498 C 0.4686 0.0765 0.55448 0.0
C499 C 0.4645 0.1076 0.4304 0.0
C500 C 0.47016 0.09307 0.46835 0.0
C501 C 0.48653 0.05097 0.58046 0.0
C502 C 0.4808 0.06545 0.54163 0.0
H503 H 0.48164 0.14822 0.35491 0.0
H504 H 0.49116 0.12224 0.40971 0.0
H505 H 0.45389 0.09831 0.52938 0.0
H506 H 0.47104 0.01981 0.68438 0.0
H507 H 0.46136 0.04319 0.62111 0.0
C508 C 0.35786 0.56113 0.54337 0.0
C509 C 0.343 0.55904 0.57526 0.0
C510 C 0.37311 0.55455 0.56121 0.0
C511 C 0.39702 0.54104 0.67883 0.0
H512 H 0.42088 0.5155 0.5872 0.0
C513 C 0.45838 0.50646 0.73816 0.0
C514 C 0.47202 0.50974 0.70166 0.0
C515 C 0.44205 0.51187 0.72565 0.0
C516 C 0.41446 0.52273 0.61316 0.0
H517 H 0.33257 0.54834 0.65105 0.0
H518 H 0.35927 0.53692 0.68223 0.0
H519 H 0.39361 0.52623 0.55971 0.0
H520 H 0.47948 0.52157 0.6241 0.0
H521 H 0.45126 0.53105 0.60252 0.0
H522 H 0.41806 0.53762 0.73214 0.0
C523 C 0.35915 0.54383 0.64356 0.0
C524 C 0.39883 0.5289 0.59735 0.0
C525 C 0.34385 0.55039 0.62567 0.0
C526 C 0.46916 0.5187 0.65291 0.0
C527 C 0.45293 0.52404 0.64043 0.0
C528 C 0.41271 0.53485 0.69469 0.0
C529 C 0.3739 0.54572 0.6114 0.0
C530 C 0.39005 0.53838 0.62965 0.0
C531 C 0.43911 0.52054 0.67637 0.0
C532 C 0.42175 0.5259 0.66166 0.0
H533 H 0.35778 0.56804 0.50469 0.0
H534 H 0.38437 0.55656 0.53575 0.0
H535 H 0.39062 0.5484 0.70451 0.0
H536 H 0.46028 0.49958 0.77607 0.0
H537 H 0.43163 0.50893 0.75412 0.0
C538 C 0.08447 0.37419 0.5078 0.0
C539 C 0.07352 0.36165 0.47782 0.0
C540 C 0.07769 0.38773 0.53132 0.0
C541 C 0.03452 0.39895 0.56954 0.0
H542 H 0.06482 0.4457 0.60208 0.0
C543 C 0.00953 0.46235 0.64224 0.0
C544 C 0.01769 0.46907 0.68673 0.0
C545 C 0.01602 0.44874 0.61816 0.0
C546 C 0.05627 0.43261 0.59359 0.0
H547 H 0.04696 0.35454 0.44663 0.0
H548 H 0.03541 0.37897 0.48484 0.0
H549 H 0.07669 0.42441 0.55228 0.0
H550 H 0.03903 0.46692 0.74097 0.0
H551 H 0.05084 0.4434 0.69769 0.0
H552 H 0.01389 0.40786 0.60908 0.0
C553 C 0.04911 0.37776 0.49217 0.0
C554 C 0.06305 0.42031 0.56514 0.0
C555 C 0.05584 0.36392 0.46932 0.0
C556 C 0.03243 0.46183 0.707 0.0
C557 C 0.03922 0.44851 0.68211 0.0
C558 C 0.02765 0.41148 0.59702 0.0
C559 C 0.05981 0.38956 0.52465 0.0
C560 C 0.05233 0.40319 0.55294 0.0
C561 C 0.03108 0.44189 0.63738 0.0
C562 C 0.03849 0.42835 0.60959 0.0
H563 H 0.09828 0.37325 0.51433 0.0
H564 H 0.08643 0.39631 0.55619 0.0
H565 H 0.02587 0.3858 0.56215 0.0
H566 H 0.99813 0.4677 0.62584 0.0
H567 H 0.00957 0.44395 0.58362 0.0
C568 C 0.83338 0.98612 0.98554 0.0
C569 C 0.8282 0.00249 0.9993 0.0
C570 C 0.85001 0.98729 0.96367 0.0
C571 C 0.89414 0.01923 0.94359 0.0
H572 H 0.89927 0.98431 0.84532 0.0
C573 C 0.95988 0.02017 0.83742 0.0
C574 C 0.96609 0.0033 0.85236 0.0
C575 C 0.94233 0.02133 0.84775 0.0
C576 C 0.89792 0.99424 0.87234 0.0
H577 H 0.83597 0.03289 0.0008 0.0
H578 H 0.86479 0.03518 0.96081 0.0
H579 H 0.86995 0.9842 0.8796 0.0
H580 H 0.95891 0.97418 0.88659 0.0
H581 H 0.92807 0.97597 0.90293 0.0
H582 H 0.9222 0.02936 0.93534 0.0
C583 C 0.85637 0.0213 0.9683 0.0
C584 C 0.88121 0.99405 0.89255 0.0
C585 C 0.83988 0.02004 0.99114 0.0
C586 C 0.95438 0.98733 0.87512 0.0
C587 C 0.93678 0.98834 0.88416 0.0
C588 C 0.91078 0.01966 0.92253 0.0
C589 C 0.86164 0.00495 0.95401 0.0
C590 C 0.87917 0.00622 0.92943 0.0
C591 C 0.93075 0.00545 0.87166 0.0
C592 C 0.91283 0.0069 0.88763 0.0
H593 H 0.82453 0.97244 0.99166 0.0
H594 H 0.85373 0.97431 0.9545 0.0
H595 H 0.8932 0.02862 0.97234 0.0
H596 H 0.96878 0.03266 0.81987 0.0
H597 H 0.93787 0.03464 0.83792 0.0
C598 C 0.58259 0.87865 0.16726 0.0
C599 C 0.57084 0.86513 0.19908 0.0
C600 C 0.5765 0.89305 0.136 0.0
C601 C 0.53487 0.90474 0.07682 0.0
H602 H 0.56532 0.95346 0.03713 0.0
C603 C 0.5107 0.96682 0.95435 0.0
C604 C 0.52156 0.97586 0.91309 0.0
C605 C 0.51659 0.9536 0.99031 0.0
C606 C 0.55672 0.93986 0.04762 0.0
H607 H 0.54354 0.85696 0.22494 0.0
H608 H 0.53302 0.88262 0.17218 0.0
H609 H 0.57552 0.93091 0.10159 0.0
H610 H 0.54708 0.97819 0.87693 0.0
H611 H 0.55759 0.95524 0.94063 0.0
H612 H 0.51593 0.91403 0.02348 0.0
C613 C 0.5469 0.88168 0.17006 0.0
C614 C 0.56256 0.92687 0.08454 0.0
C615 C 0.55299 0.86711 0.20103 0.0
C616 C 0.53846 0.97142 0.9084 0.0
C617 C 0.54448 0.95838 0.94493 0.0
C618 C 0.52894 0.91785 0.04047 0.0
C619 C 0.55849 0.89459 0.13614 0.0
C620 C 0.5518 0.90901 0.09934 0.0
C621 C 0.53359 0.94932 0.98623 0.0
C622 C 0.53987 0.93548 0.02514 0.0
H623 H 0.59652 0.87784 0.16545 0.0
H624 H 0.58587 0.90251 0.11033 0.0
H625 H 0.5263 0.89106 0.08622 0.0
H626 H 0.49758 0.96992 0.9588 0.0
H627 H 0.50795 0.94693 0.02184 0.0
C628 C 0.67556 0.46478 0.02942 0.0
C629 C 0.68196 0.45092 0.00542 0.0
C630 C 0.66063 0.47175 0.01036 0.0
C631 C 0.63385 0.47807 0.89468 0.0
H632 H 0.5968 0.48062 0.98999 0.0
C633 C 0.56532 0.49484 0.8285 0.0
C634 C 0.55677 0.50484 0.85981 0.0
C635 C 0.58119 0.48907 0.8444 0.0
C636 C 0.60712 0.48034 0.96285 0.0
H637 H 0.6775 0.43356 0.94227 0.0
H638 H 0.65169 0.44611 0.90842 0.0
H639 H 0.62328 0.46905 0.02127 0.0
H640 H 0.5585 0.51763 0.93088 0.0
H641 H 0.58645 0.50828 0.95786 0.0
H642 H 0.61786 0.48967 0.8363 0.0
C643 C 0.65833 0.45157 0.94198 0.0
C644 C 0.62227 0.47361 0.98085 0.0
C645 C 0.67315 0.44443 0.96136 0.0
C646 C 0.56474 0.50974 0.9062 0.0
C647 C 0.58068 0.50421 0.92185 0.0
C648 C 0.61876 0.48503 0.87668 0.0
C649 C 0.65184 0.4652 0.9665 0.0
C650 C 0.63579 0.47239 0.94701 0.0
C651 C 0.58893 0.49342 0.89174 0.0
C652 C 0.60518 0.48626 0.91056 0.0
H653 H 0.68218 0.47045 0.06272 0.0
H654 H 0.65607 0.48245 0.02965 0.0
H655 H 0.64415 0.47744 0.86779 0.0
H656 H 0.55952 0.49102 0.79241 0.0
H657 H 0.58705 0.48069 0.82028 0.0
C658 C 0.96627 0.65164 0.05314 0.0
C659 C 0.95719 0.64836 0.10005 0.0
C660 C 0.97097 0.63665 0.03071 0.0
C661 C 0.9771 0.58677 0.05453 0.0
H662 H 0.96815 0.58719 0.90873 0.0
C663 C 0.98447 0.52336 0.94518 0.0
C664 C 0.99275 0.52773 0.89712 0.0
C665 C 0.97941 0.53761 0.97027 0.0
C666 C 0.97092 0.58692 0.94932 0.0
H667 H 0.94666 0.62688 0.16145 0.0
H668 H 0.95494 0.60049 0.12218 0.0
H669 H 0.96162 0.61285 0.95345 0.0
H670 H 0.0018 0.55035 0.83696 0.0
H671 H 0.99313 0.57529 0.8808 0.0
H672 H 0.98652 0.56088 0.05025 0.0
C673 C 0.95844 0.61474 0.10282 0.0
C674 C 0.96717 0.60166 0.97503 0.0
C675 C 0.95373 0.62984 0.12541 0.0
C676 C 0.99541 0.54655 0.87395 0.0
C677 C 0.99037 0.56083 0.89906 0.0
C678 C 0.98089 0.57202 0.02875 0.0
C679 C 0.9667 0.61793 0.05453 0.0
C680 C 0.97035 0.60187 0.02788 0.0
C681 C 0.98251 0.55659 0.94788 0.0
C682 C 0.97795 0.57196 0.97572 0.0
H683 H 0.9694 0.66582 0.0331 0.0
H684 H 0.97774 0.6397 0.99421 0.0
H685 H 0.97984 0.58657 0.09513 0.0
H686 H 0.98218 0.50895 0.96388 0.0
H687 H 0.9731 0.53375 0.00734 0.0
C688 C 0.08212 0.21024 0.64805 0.0
C689 C 0.09909 0.21081 0.62808 0.0
C690 C 0.07307 0.19375 0.67572 0.0
C691 C 0.07597 0.14801 0.74543 0.0
H692 H 0.0339 0.12815 0.66911 0.0
C693 C 0.0461 0.06883 0.76518 0.0
C694 C 0.02775 0.06262 0.75909 0.0
C695 C 0.05364 0.08802 0.75664 0.0
C696 C 0.04531 0.13358 0.69181 0.0
H697 H 0.1205 0.19526 0.62492 0.0
H698 H 0.10471 0.1664 0.67462 0.0
H699 H 0.04987 0.16042 0.64571 0.0
H700 H 0.00282 0.07149 0.73957 0.0
H701 H 0.01593 0.10543 0.72597 0.0
H702 H 0.07143 0.12135 0.79197 0.0
C703 C 0.09845 0.17871 0.66837 0.0
C704 C 0.05449 0.15205 0.67819 0.0
C705 C 0.10743 0.19514 0.6399 0.0
C706 C 0.01702 0.07598 0.74416 0.0
C707 C 0.02457 0.09536 0.73638 0.0
C708 C 0.06658 0.12966 0.75982 0.0
C709 C 0.08093 0.17768 0.68457 0.0
C710 C 0.07012 0.15921 0.70406 0.0
C711 C 0.043 0.1016 0.74256 0.0
C712 C 0.05144 0.12199 0.73211 0.0
H713 H 0.07527 0.22202 0.63899 0.0
H714 H 0.05957 0.19322 0.688 0.0
H715 H 0.08794 0.15335 0.76606 0.0
H716 H 0.05475 0.05879 0.77589 0.0
H717 H 0.06791 0.09211 0.76016 0.0
C718 C 0.32681 0.94845 0.77277 0.0
C719 C 0.32954 0.96772 0.75344 0.0
C720 C 0.33897 0.94182 0.80735 0.0
C721 C 0.37552 0.93233 0.82942 0.0
H722 H 0.40623 0.96658 0.91106 0.0
C723 C 0.44902 0.95122 0.79728 0.0
C724 C 0.45998 0.96138 0.83193 0.0
C725 C 0.43132 0.94354 0.80989 0.0
C726 C 0.39781 0.95632 0.88976 0.0
H727 H 0.34581 0.99549 0.75846 0.0
H728 H 0.367 0.98416 0.81793 0.0
H729 H 0.37563 0.96969 0.8982 0.0
H730 H 0.4622 0.96971 0.90861 0.0
H731 H 0.43163 0.95525 0.93219 0.0
H732 H 0.3978 0.91917 0.8201 0.0
C733 C 0.35559 0.97399 0.8072 0.0
C734 C 0.38019 0.95831 0.8819 0.0
C735 C 0.34356 0.98053 0.7726 0.0
C736 C 0.45377 0.96202 0.88123 0.0
C737 C 0.43623 0.95388 0.89444 0.0
C738 C 0.39308 0.93006 0.83814 0.0
C739 C 0.35391 0.95445 0.82325 0.0
C740 C 0.36935 0.94742 0.8481 0.0
C741 C 0.42443 0.94567 0.85777 0.0
C742 C 0.40484 0.94308 0.8648 0.0
H743 H 0.31603 0.93833 0.75845 0.0
H744 H 0.33723 0.92673 0.81937 0.0
H745 H 0.36747 0.92347 0.80371 0.0
H746 H 0.45363 0.95071 0.75893 0.0
H747 H 0.42278 0.93752 0.78022 0.0
C748 C 0.40504 0.29387 0.45543 0.0
C749 C 0.41213 0.27721 0.45783 0.0
C750 C 0.41198 0.30813 0.48622 0.0
C751 C 0.44358 0.32047 0.59258 0.0
H752 H 0.45636 0.36832 0.5068 0.0
C753 C 0.48457 0.38928 0.66296 0.0
C754 C 0.49729 0.40033 0.62879 0.0
C755 C 0.47298 0.37347 0.64771 0.0
C756 C 0.45295 0.35503 0.53118 0.0
H757 H 0.43098 0.26177 0.49772 0.0
H758 H 0.44293 0.28647 0.55119 0.0
H759 H 0.43607 0.3421 0.47423 0.0
H760 H 0.50837 0.40304 0.55273 0.0
H761 H 0.48833 0.37518 0.5263 0.0
H762 H 0.46112 0.33333 0.6488 0.0
C763 C 0.43197 0.28856 0.52586 0.0
C764 C 0.44106 0.3401 0.51289 0.0
C765 C 0.42506 0.27433 0.49513 0.0
C766 C 0.49876 0.39474 0.57991 0.0
C767 C 0.48713 0.37896 0.56461 0.0
C768 C 0.45548 0.33547 0.61098 0.0
C769 C 0.42612 0.30597 0.51995 0.0
C770 C 0.43649 0.32253 0.54297 0.0
C771 C 0.47386 0.36844 0.59793 0.0
C772 C 0.46057 0.35276 0.57998 0.0
H773 H 0.39485 0.29635 0.4277 0.0
H774 H 0.40693 0.32126 0.48166 0.0
H775 H 0.44024 0.30712 0.61673 0.0
H776 H 0.48329 0.39317 0.70112 0.0
H777 H 0.4629 0.36564 0.67422 0.0
C778 C 0.18802 0.61749 0.65221 0.0
C779 C 0.19823 0.6032 0.65395 0.0
C780 C 0.17144 0.61391 0.6763 0.0
C781 C 0.13224 0.59791 0.69329 0.0
H782 H 0.12085 0.55886 0.80731 0.0
C783 C 0.06201 0.55296 0.72258 0.0
C784 C 0.05687 0.54382 0.7712 0.0
C785 C 0.07898 0.5641 0.71493 0.0
C786 C 0.12365 0.57011 0.77614 0.0
H787 H 0.19932 0.57415 0.68329 0.0
H788 H 0.17048 0.5677 0.72376 0.0
H789 H 0.15157 0.57195 0.78675 0.0
H790 H 0.06471 0.54028 0.85076 0.0
H791 H 0.0938 0.56061 0.83834 0.0
H792 H 0.10429 0.59652 0.68378 0.0
C793 C 0.1753 0.5819 0.70544 0.0
C794 C 0.14141 0.5774 0.76371 0.0
C795 C 0.19191 0.58557 0.68205 0.0
C796 C 0.06848 0.54698 0.81267 0.0
C797 C 0.08524 0.55852 0.80536 0.0
C798 C 0.11445 0.59091 0.70644 0.0
C799 C 0.16463 0.59586 0.70194 0.0
C800 C 0.14596 0.59083 0.72087 0.0
C801 C 0.09101 0.56671 0.75607 0.0
C802 C 0.10987 0.57639 0.74688 0.0
H803 H 0.19265 0.63126 0.63102 0.0
H804 H 0.16379 0.62513 0.67363 0.0
H805 H 0.13513 0.60819 0.65992 0.0
H806 H 0.05331 0.55062 0.68995 0.0
H807 H 0.0829 0.56985 0.67625 0.0
C808 C 0.91222 0.81066 0.96007 0.0
C809 C 0.92028 0.79468 0.96929 0.0
C810 C 0.92112 0.82716 0.93165 0.0
C811 C 0.96497 0.85337 0.9178 0.0
H812 H 0.94822 0.88348 0.80245 0.0
C813 C 0.0041 0.928 0.84462 0.0
C814 C 0.99382 0.94164 0.82813 0.0
C815 C 0.99601 0.90882 0.85449 0.0
C816 C 0.95302 0.87536 0.83509 0.0
H817 H 0.94353 0.78308 0.95416 0.0
H818 H 0.9591 0.812 0.90538 0.0
H819 H 0.93117 0.85198 0.8311 0.0
H820 H 0.96707 0.94621 0.81073 0.0
H821 H 0.95299 0.91334 0.83008 0.0
H822 H 0.9861 0.87697 0.92457 0.0
C823 C 0.94586 0.81164 0.91953 0.0
C824 C 0.9433 0.8573 0.85105 0.0
C825 C 0.93687 0.79509 0.94706 0.0
C826 C 0.97539 0.93593 0.82252 0.0
C827 C 0.96731 0.91697 0.83321 0.0
C828 C 0.97447 0.87158 0.90266 0.0
C829 C 0.93829 0.82794 0.913 0.0
C830 C 0.94913 0.84629 0.89282 0.0
C831 C 0.97747 0.90309 0.84896 0.0
C832 C 0.96846 0.88296 0.86163 0.0
H833 H 0.89947 0.81069 0.9769 0.0
H834 H 0.91511 0.83967 0.92716 0.0
H835 H 0.96959 0.84511 0.95053 0.0
H836 H 0.01835 0.93208 0.84895 0.0
H837 H 0.0043 0.89851 0.86607 0.0
C838 C 0.67368 0.02348 0.84619 0.0
C839 C 0.68808 0.03736 0.85865 0.0
C840 C 0.66162 0.02788 0.80864 0.0
C841 C 0.64182 0.06754 0.75854 0.0
H842 H 0.61464 0.02795 0.68513 0.0
C843 C 0.5664 0.03345 0.6904 0.0
C844 C 0.55818 0.03652 0.7349 0.0
C845 C 0.58424 0.0414 0.68105 0.0
C846 C 0.62212 0.0396 0.70379 0.0
H847 H 0.70183 0.06642 0.8402 0.0
H848 H 0.68036 0.07433 0.77438 0.0
H849 H 0.64459 0.02599 0.71175 0.0
H850 H 0.56127 0.05147 0.80223 0.0
H851 H 0.59264 0.06443 0.78818 0.0
H852 H 0.61915 0.08091 0.75186 0.0
C853 C 0.67851 0.06002 0.79368 0.0
C854 C 0.63934 0.0383 0.71962 0.0
C855 C 0.69076 0.05551 0.83111 0.0
C856 C 0.56744 0.04902 0.76758 0.0
C857 C 0.58545 0.05653 0.75912 0.0
C858 C 0.62464 0.06903 0.74197 0.0
C859 C 0.66361 0.04632 0.78284 0.0
C860 C 0.6488 0.05145 0.75055 0.0
C861 C 0.59434 0.05189 0.71727 0.0
C862 C 0.61409 0.05429 0.7179 0.0
H863 H 0.67145 0.00935 0.86666 0.0
H864 H 0.65015 0.01707 0.80199 0.0
H865 H 0.64888 0.07805 0.78181 0.0
H866 H 0.55931 0.02397 0.6644 0.0
H867 H 0.59042 0.03806 0.64749 0.0
C868 C 0.60876 0.71547 0.09773 0.0
C869 C 0.60833 0.7136 0.15151 0.0
C870 C 0.60032 0.70058 0.07085 0.0
C871 C 0.57946 0.64956 0.08339 0.0
H872 H 0.54546 0.66579 0.98509 0.0
C873 C 0.52102 0.59618 0.01247 0.0
C874 C 0.51717 0.5982 0.95994 0.0
C875 C 0.53274 0.61047 0.03427 0.0
C876 C 0.55502 0.66101 0.01187 0.0
H877 H 0.59971 0.69397 0.21897 0.0
H878 H 0.58555 0.66807 0.17223 0.0
H879 H 0.56731 0.6895 0.023 0.0
H880 H 0.52169 0.61725 0.88972 0.0
H881 H 0.5424 0.64196 0.92743 0.0
H882 H 0.56714 0.62107 0.07257 0.0
C883 C 0.59236 0.68104 0.15083 0.0
C884 C 0.56759 0.6746 0.03341 0.0
C885 C 0.60061 0.69594 0.17766 0.0
C886 C 0.52458 0.61519 0.93022 0.0
C887 C 0.53635 0.62941 0.95193 0.0
C888 C 0.56696 0.63596 0.06162 0.0
C889 C 0.5915 0.68347 0.09725 0.0
C890 C 0.57978 0.66901 0.06989 0.0
C891 C 0.54088 0.62704 0.00397 0.0
C892 C 0.55443 0.64152 0.02616 0.0
H893 H 0.61489 0.72873 0.07637 0.0
H894 H 0.6001 0.70268 0.02945 0.0
H895 H 0.58879 0.64488 0.11117 0.0
H896 H 0.51564 0.58321 0.03633 0.0
H897 H 0.53566 0.60838 0.07473 0.0
C898 C 0.84134 0.39362 0.98452 0.0
C899 C 0.82548 0.39382 0.95653 0.0
C900 C 0.85761 0.39612 0.95955 0.0
C901 C 0.87893 0.42246 0.84714 0.0
H902 H 0.91819 0.39724 0.88778 0.0
C903 C 0.94899 0.4561 0.77705 0.0
C904 C 0.96262 0.45588 0.81348 0.0
C905 C 0.93248 0.44417 0.78567 0.0
C906 C 0.90742 0.40453 0.87617 0.0
H907 H 0.81436 0.3953 0.87984 0.0
H908 H 0.84298 0.40048 0.83638 0.0
H909 H 0.88834 0.38347 0.91987 0.0
H910 H 0.97006 0.44255 0.8864 0.0
H911 H 0.94099 0.42239 0.90303 0.0
H912 H 0.89784 0.44423 0.80673 0.0
C913 C 0.84265 0.39833 0.87778 0.0
C914 C 0.8903 0.39653 0.89424 0.0
C915 C 0.82629 0.39551 0.90276 0.0
C916 C 0.95976 0.4429 0.85763 0.0
C917 C 0.94308 0.43127 0.86692 0.0
C918 C 0.89602 0.43061 0.8298 0.0
C919 C 0.85849 0.39916 0.90602 0.0
C920 C 0.87598 0.40564 0.88068 0.0
C921 C 0.92905 0.43212 0.83165 0.0
C922 C 0.9106 0.422 0.84492 0.0
H923 H 0.84143 0.39272 0.02585 0.0
H924 H 0.86964 0.39694 0.98229 0.0
H925 H 0.86818 0.42995 0.83674 0.0
H926 H 0.95097 0.46581 0.74227 0.0
H927 H 0.92226 0.44485 0.75684 0.0
C928 C 0.07354 0.21651 0.17859 0.0
C929 C 0.08552 0.21737 0.21997 0.0
C930 C 0.07001 0.20041 0.15171 0.0
C931 C 0.0886 0.15795 0.12852 0.0
H932 H 0.04073 0.13793 0.08495 0.0
C933 C 0.06939 0.08336 0.05942 0.0
C934 C 0.05793 0.08126 0.01707 0.0
C935 C 0.07263 0.1003 0.08243 0.0
C936 C 0.05422 0.14345 0.09634 0.0
H937 H 0.10254 0.20148 0.26668 0.0
H938 H 0.09644 0.17371 0.22026 0.0
H939 H 0.04656 0.16698 0.12733 0.0
H940 H 0.04065 0.09539 0.96642 0.0
H941 H 0.04645 0.12498 0.00616 0.0
H942 H 0.09625 0.13438 0.09803 0.0
C943 C 0.09011 0.18562 0.20745 0.0
C944 C 0.05757 0.16015 0.1206 0.0
C945 C 0.09364 0.20163 0.23414 0.0
C946 C 0.04971 0.09655 0.99857 0.0
C947 C 0.05288 0.11347 0.02174 0.0
C948 C 0.08525 0.14127 0.10444 0.0
C949 C 0.07833 0.18478 0.16569 0.0
C950 C 0.07479 0.16753 0.13747 0.0
C951 C 0.06443 0.1156 0.06389 0.0
C952 C 0.06799 0.13369 0.08838 0.0
H953 H 0.06708 0.22838 0.16654 0.0
H954 H 0.06096 0.20034 0.11951 0.0
H955 H 0.1021 0.1634 0.13995 0.0
H956 H 0.07607 0.07197 0.07447 0.0
H957 H 0.08144 0.10133 0.11517 0.0
C958 C 0.35125 0.0246 0.30768 0.0
C959 C 0.3329 0.01874 0.30034 0.0
C960 C 0.36282 0.02871 0.26619 0.0
C961 C 0.36635 0.04096 0.12706 0.0
H962 H 0.40862 0.01875 0.14529 0.0
C963 C 0.41762 0.04265 0.96536 0.0
C964 C 0.4356 0.04535 0.98001 0.0
C965 C 0.40426 0.04036 0.0022 0.0
C966 C 0.39701 0.02526 0.13973 0.0
H967 H 0.31219 0.01349 0.2434 0.0
H968 H 0.33258 0.0208 0.17024 0.0
H969 H 0.38667 0.01305 0.21313 0.0
H970 H 0.45373 0.04892 0.04411 0.0
H971 H 0.43054 0.04516 0.10812 0.0
H972 H 0.37689 0.05327 0.05347 0.0
C973 C 0.33792 0.02214 0.2084 0.0
C974 C 0.3844 0.02195 0.1786 0.0
C975 C 0.32627 0.01797 0.25019 0.0
C976 C 0.43998 0.0465 0.03181 0.0
C977 C 0.42668 0.04429 0.06847 0.0
C978 C 0.37906 0.04433 0.08799 0.0
C979 C 0.35635 0.02714 0.21619 0.0
C980 C 0.36907 0.02998 0.17309 0.0
C981 C 0.40866 0.04076 0.0543 0.0
C982 C 0.39466 0.03673 0.0943 0.0
H983 H 0.35673 0.02583 0.34574 0.0
H984 H 0.37691 0.03298 0.27333 0.0
H985 H 0.35467 0.04736 0.12184 0.0
H986 H 0.41386 0.04158 0.92572 0.0
H987 H 0.3905 0.03757 0.99008 0.0
C988 C 0.44741 0.29932 0.01448 0.0
C989 C 0.45755 0.29372 0.05665 0.0
C990 C 0.45223 0.31727 0.98691 0.0
C991 C 0.47736 0.36545 0.00243 0.0
H992 H 0.47113 0.37422 0.85569 0.0
C993 C 0.48304 0.44135 0.89732 0.0
C994 C 0.49238 0.44519 0.8508 0.0
C995 C 0.47845 0.42268 0.92102 0.0
C996 C 0.47304 0.37203 0.89667 0.0
H997 H 0.48113 0.30252 0.10162 0.0
H998 H 0.48976 0.33364 0.05289 0.0
H999 H 0.46511 0.34182 0.8982 0.0
H1000 H 0.5038 0.43219 0.79219 0.0
H1001 H 0.4959 0.39989 0.83345 0.0
H1002 H 0.48556 0.39562 0.00085 0.0
C1003 C 0.47789 0.32423 0.04162 0.0
C1004 C 0.46943 0.35344 0.92112 0.0
C1005 C 0.47308 0.30625 0.06912 0.0
C1006 C 0.49664 0.42985 0.82804 0.0
C1007 C 0.492 0.41123 0.85159 0.0
C1008 C 0.48093 0.38404 0.97801 0.0
C1009 C 0.46732 0.33014 0.00082 0.0
C1010 C 0.47157 0.34989 0.97435 0.0
C1011 C 0.48302 0.40739 0.89868 0.0
C1012 C 0.47883 0.38759 0.92479 0.0
H1013 H 0.43545 0.28997 0.00352 0.0
H1014 H 0.44372 0.32133 0.9559 0.0
H1015 H 0.47892 0.36332 0.04355 0.0
H1016 H 0.47952 0.45277 0.91595 0.0
H1017 H 0.47131 0.42023 0.95691 0.0
C1018 C 0.21739 0.54263 0.24898 0.0
C1019 C 0.22044 0.56225 0.25328 0.0
C1020 C 0.20539 0.53476 0.2128 0.0
C1021 C 0.17964 0.54667 0.09609 0.0
H1022 H 0.147 0.5006 0.14615 0.0
C1023 C 0.11325 0.51986 0.99519 0.0
C1024 C 0.10786 0.50016 0.99362 0.0
C1025 C 0.12827 0.52709 0.02316 0.0
C1026 C 0.15615 0.51331 0.13124 0.0
H1027 H 0.21402 0.58912 0.22078 0.0
H1028 H 0.19284 0.57536 0.15844 0.0
H1029 H 0.17128 0.51379 0.20048 0.0
H1030 H 0.11444 0.47266 0.01894 0.0
H1031 H 0.14058 0.48526 0.06792 0.0
H1032 H 0.16422 0.54633 0.02715 0.0
C1033 C 0.19979 0.56604 0.18281 0.0
C1034 C 0.17012 0.52087 0.16239 0.0
C1035 C 0.2118 0.57391 0.21894 0.0
C1036 C 0.11803 0.48788 0.02005 0.0
C1037 C 0.13303 0.49511 0.04808 0.0
C1038 C 0.16563 0.53911 0.06493 0.0
C1039 C 0.19613 0.54631 0.18006 0.0
C1040 C 0.18197 0.53772 0.14539 0.0
C1041 C 0.13824 0.51479 0.05033 0.0
C1042 C 0.15364 0.52242 0.0823 0.0
H1043 H 0.22369 0.5332 0.27503 0.0
H1044 H 0.20311 0.51954 0.21117 0.0
H1045 H 0.18866 0.55953 0.08153 0.0
H1046 H 0.1056 0.52972 0.97593 0.0
H1047 H 0.13176 0.5423 0.02468 0.0
C1048 C 0.95921 0.79799 0.36821 0.0
C1049 C 0.94398 0.78385 0.37885 0.0
C1050 C 0.96255 0.81413 0.39469 0.0
C1051 C 0.93896 0.8426 0.46911 0.0
H1052 H 0.98659 0.86769 0.5017 0.0
C1053 C 0.95226 0.90717 0.58702 0.0
C1054 C 0.96618 0.92226 0.57069 0.0
C1055 C 0.94981 0.88999 0.56523 0.0
C1056 C 0.97321 0.86095 0.49245 0.0
H1057 H 0.92084 0.77516 0.42773 0.0
H1058 H 0.92681 0.80307 0.47454 0.0
H1059 H 0.98223 0.83794 0.46287 0.0
H1060 H 0.98856 0.93089 0.51887 0.0
H1061 H 0.98415 0.90105 0.48048 0.0
H1062 H 0.92994 0.86561 0.4987 0.0
C1063 C 0.93596 0.80197 0.44477 0.0
C1064 C 0.9707 0.84386 0.47014 0.0
C1065 C 0.93258 0.78589 0.41814 0.0
C1066 C 0.97759 0.91968 0.53201 0.0
C1067 C 0.97519 0.90247 0.5104 0.0
C1068 C 0.94146 0.85963 0.49158 0.0
C1069 C 0.95079 0.81654 0.43268 0.0
C1070 C 0.95353 0.83446 0.458 0.0
C1071 C 0.96126 0.88739 0.5267 0.0
C1072 C 0.95862 0.86908 0.50339 0.0
H1073 H 0.96813 0.79703 0.33769 0.0
H1074 H 0.974 0.82509 0.38383 0.0
H1075 H 0.92557 0.83604 0.45942 0.0
H1076 H 0.94314 0.90869 0.61642 0.0
H1077 H 0.93904 0.87865 0.57905 0.0
C1078 C 0.69365 0.9729 0.33173 0.0
C1079 C 0.70193 0.9917 0.31601 0.0
C1080 C 0.68256 0.9688 0.37459 0.0
C1081 C 0.65537 0.99274 0.45074 0.0
H1082 H 0.64863 0.9452 0.5392 0.0
C1083 C 0.60694 0.97868 0.6192 0.0
C1084 C 0.59454 0.9615 0.62132 0.0
C1085 C 0.62187 0.98171 0.58787 0.0
C1086 C 0.65038 0.95851 0.51468 0.0
H1087 H 0.70616 0.02076 0.33436 0.0
H1088 H 0.68736 0.01359 0.41019 0.0
H1089 H 0.672 0.95199 0.47428 0.0
H1090 H 0.58861 0.93367 0.59405 0.0
H1091 H 0.61487 0.93894 0.53952 0.0
H1092 H 0.6338 0.99926 0.49097 0.0
C1093 C 0.68886 0.00205 0.3886 0.0
C1094 C 0.66372 0.9624 0.47741 0.0
C1095 C 0.69973 0.00617 0.34541 0.0
C1096 C 0.59794 0.94702 0.59348 0.0
C1097 C 0.61297 0.95003 0.56225 0.0
C1098 C 0.64222 0.98894 0.4882 0.0
C1099 C 0.67969 0.98341 0.40288 0.0
C1100 C 0.66629 0.97952 0.44471 0.0
C1101 C 0.62483 0.96759 0.55817 0.0
C1102 C 0.63949 0.97176 0.52034 0.0
H1103 H 0.69504 0.96152 0.30939 0.0
H1104 H 0.67561 0.95431 0.38404 0.0
H1105 H 0.6566 0.00585 0.42555 0.0
H1106 H 0.60495 0.98996 0.64114 0.0
H1107 H 0.63096 0.99526 0.58619 0.0
C1108 C 0.56196 0.7066 0.55069 0.0
C1109 C 0.57709 0.71195 0.51934 0.0
C1110 C 0.55771 0.68821 0.57646 0.0
C1111 C 0.56533 0.63931 0.57035 0.0
H1112 H 0.54776 0.63041 0.70952 0.0
C1113 C 0.55154 0.56388 0.68243 0.0
C1114 C 0.53608 0.5592 0.71253 0.0
C1115 C 0.5575 0.58263 0.66052 0.0
C1116 C 0.55249 0.63261 0.67046 0.0
H1117 H 0.59949 0.70191 0.4903 0.0
H1118 H 0.59229 0.67021 0.53573 0.0
H1119 H 0.5559 0.66289 0.6685 0.0
H1120 H 0.51474 0.57073 0.74269 0.0
H1121 H 0.52497 0.60298 0.70454 0.0
H1122 H 0.56171 0.60905 0.57196 0.0
C1123 C 0.58364 0.68015 0.5403 0.0
C1124 C 0.55716 0.65126 0.64694 0.0
C1125 C 0.58791 0.69848 0.5148 0.0
C1126 C 0.52681 0.57372 0.72028 0.0
C1127 C 0.53274 0.59236 0.69849 0.0
C1128 C 0.56061 0.62065 0.59379 0.0
C1129 C 0.56841 0.67469 0.5711 0.0
C1130 C 0.56358 0.65485 0.59652 0.0
C1131 C 0.54814 0.59712 0.66823 0.0
C1132 C 0.55403 0.61703 0.64407 0.0
H1133 H 0.55335 0.71659 0.55514 0.0
H1134 H 0.5458 0.68444 0.59959 0.0
H1135 H 0.56999 0.64152 0.5312 0.0
H1136 H 0.55902 0.55309 0.6757 0.0
H1137 H 0.56952 0.5858 0.63783 0.0
C1138 C 0.80519 0.43123 0.3788 0.0
C1139 C 0.79971 0.44323 0.33832 0.0
C1140 C 0.81726 0.43869 0.41537 0.0
C1141 C 0.83906 0.48393 0.46531 0.0
H1142 H 0.87626 0.45552 0.50456 0.0
C1143 C 0.90527 0.51627 0.56018 0.0
C1144 C 0.91203 0.50479 0.59957 0.0
C1145 C 0.89028 0.50885 0.53228 0.0
C1146 C 0.86585 0.46352 0.49453 0.0
H1147 H 0.80232 0.4725 0.30505 0.0
H1148 H 0.8235 0.4855 0.36828 0.0
H1149 H 0.85219 0.44232 0.44961 0.0
H1150 H 0.90776 0.47673 0.64205 0.0
H1151 H 0.88181 0.46378 0.593 0.0
H1152 H 0.85311 0.50537 0.50935 0.0
C1153 C 0.81825 0.47036 0.37253 0.0
C1154 C 0.85199 0.45592 0.4631 0.0
C1155 C 0.80609 0.46292 0.3362 0.0
C1156 C 0.90316 0.48586 0.61122 0.0
C1157 C 0.88826 0.47844 0.5832 0.0
C1158 C 0.85301 0.49159 0.49653 0.0
C1159 C 0.82425 0.45831 0.41206 0.0
C1160 C 0.83845 0.46606 0.44784 0.0
C1161 C 0.88177 0.48978 0.54303 0.0
C1162 C 0.8666 0.48149 0.51129 0.0
H1163 H 0.80033 0.41603 0.38177 0.0
H1164 H 0.82129 0.42903 0.44588 0.0
H1165 H 0.82874 0.49202 0.45494 0.0
H1166 H 0.91186 0.53084 0.54984 0.0
H1167 H 0.8857 0.5179 0.5012 0.0
loop_
_geom_bond_atom_site_label_1
_geom_bond_atom_site_label_2
_geom_bond_distance
_geom_bond_site_symmetry_2
_ccdc_geom_bond_type
C0 C1 1.384 . S
C0 H13 0.947 . S
C0 C35 1.382 . S
C1 C0 1.384 . S
C1 C2 1.378 . S
C2 C1 1.378 . S
C2 C3 1.378 . S
C2 H14 0.952 . S
C3 C2 1.378 . S
C3 H15 0.950 . S
C3 C34 1.383 . S
H4 C23 0.947 . S
H5 C24 0.946 . S
H6 C26 0.953 . S
H7 C27 0.945 . S
H8 C29 0.952 . S
H9 C30 0.949 . S
H10 C32 0.950 . S
H11 C33 0.948 1_554 S
H12 C35 0.951 . S
H13 C0 0.947 . S
H14 C2 0.952 . S
H15 C3 0.950 . S
N16 C19 1.382 . S
N16 C21 1.363 . S
N17 C19 1.371 1_556 S
N17 C20 1.372 1_556 S
N18 C20 1.361 . S
N18 C21 1.377 . S
C19 N16 1.382 . S
C19 N17 1.371 1_554 S
C19 C22 1.480 . S
C20 N17 1.372 1_554 S
C20 N18 1.361 . S
C20 C28 1.457 1_554 S
C21 N16 1.363 . S
C21 N18 1.377 . S
C21 C34 1.479 . S
C22 C19 1.480 . S
C22 C23 1.383 . S
C22 C27 1.385 1_554 S
C23 H4 0.947 . S
C23 C22 1.383 . S
C23 C24 1.388 . S
C24 H5 0.946 . S
C24 C23 1.388 . S
C24 C25 1.384 1_554 S
C25 C24 1.384 1_556 S
C25 C26 1.377 . S
C26 H6 0.953 . S
C26 C25 1.377 . S
C26 C27 1.369 . S
C27 H7 0.945 . S
C27 C22 1.385 1_556 S
C27 C26 1.369 . S
C28 C20 1.457 1_556 S
C28 C29 1.372 . S
C28 C33 1.364 . S
C29 H8 0.952 . S
C29 C28 1.372 . S
C29 C30 1.389 . S
C30 H9 0.949 . S
C30 C29 1.389 . S
C30 C31 1.387 . S
C31 C30 1.387 . S
C31 C32 1.372 . S
C32 H10 0.950 . S
C32 C31 1.372 . S
C32 C33 1.379 . S
C33 H11 0.948 1_556 S
C33 C28 1.364 . S
C33 C32 1.379 . S
C34 C3 1.383 . S
C34 C21 1.479 . S
C34 C35 1.398 . S
C35 C0 1.382 . S
C35 H12 0.951 . S
C35 C34 1.398 . S
C36 C37 1.384 . S
C36 H49 0.947 . S
C36 C71 1.382 . S
C37 C36 1.384 . S
C37 C38 1.378 . S
C38 C37 1.378 . S
C38 C39 1.378 . S
C38 H50 0.952 . S
C39 C38 1.378 . S
C39 H51 0.950 . S
C39 C70 1.383 . S
H40 C59 0.947 . S
H41 C60 0.946 . S
H42 C62 0.953 . S
H43 C63 0.945 . S
H44 C65 0.952 . S
H45 C66 0.949 . S
H46 C68 0.950 . S
H47 C69 0.948 1_554 S
H48 C71 0.951 . S
H49 C36 0.947 . S
H50 C38 0.952 . S
H51 C39 0.950 . S
N52 C55 1.382 . S
N52 C57 1.363 . S
N53 C55 1.357 1_556 S
N53 C56 1.366 1_556 S
N54 C56 1.361 . S
N54 C57 1.377 . S
C55 N52 1.382 . S
C55 N53 1.357 1_554 S
C55 C58 1.480 . S
C56 N53 1.366 1_554 S
C56 N54 1.361 . S
C56 C64 1.457 1_554 S
C57 N52 1.363 . S
C57 N54 1.377 . S
C57 C70 1.479 . S
C58 C55 1.480 . S
C58 C59 1.383 . S
C58 C63 1.385 1_554 S
C59 H40 0.947 . S
C59 C58 1.383 . S
C59 C60 1.388 . S
C60 H41 0.946 . S
C60 C59 1.388 . S
C60 C61 1.384 . S
C61 C60 1.384 . S
C61 C62 1.377 1_554 S
C62 H42 0.953 . S
C62 C61 1.377 1_556 S
C62 C63 1.369 . S
C63 H43 0.945 . S
C63 C58 1.385 1_556 S
C63 C62 1.369 . S
C64 C56 1.457 1_556 S
C64 C65 1.372 . S
C64 C69 1.364 . S
C65 H44 0.952 . S
C65 C64 1.372 . S
C65 C66 1.389 . S
C66 H45 0.949 . S
C66 C65 1.389 . S
C66 C67 1.387 . S
C67 C66 1.387 . S
C67 C68 1.372 . S
C68 H46 0.950 . S
C68 C67 1.372 . S
C68 C69 1.379 . S
C69 H47 0.948 1_556 S
C69 C64 1.364 . S
C69 C68 1.379 . S
C70 C39 1.383 . S
C70 C57 1.479 . S
C70 C71 1.398 . S
C71 C36 1.382 . S
C71 H48 0.951 . S
C71 C70 1.398 . S
C72 C73 1.384 1_565 S
C72 H85 0.947 . S
C72 C107 1.382 1_565 S
C73 C72 1.384 1_545 S
C73 C74 1.378 . S
C74 C73 1.378 . S
C74 C75 1.378 . S
C74 H86 0.952 . S
C75 C74 1.378 . S
C75 H87 0.950 . S
C75 C106 1.383 . S
H76 C95 0.947 . S
H77 C96 0.953 . S
H78 C98 0.953 . S
H79 C99 0.945 . S
H80 C101 0.945 1_565 S
H81 C102 0.963 . S
H82 C104 0.950 . S
H83 C105 0.948 . S
H84 C107 0.951 1_565 S
H85 C72 0.947 . S
H86 C74 0.952 . S
H87 C75 0.950 . S
N88 C91 1.382 1_554 S
N88 C93 1.363 . S
N89 C91 1.371 . S
N89 C92 1.372 . S
N90 C92 1.361 1_554 S
N90 C93 1.377 . S
C91 N88 1.382 1_556 S
C91 N89 1.371 . S
C91 C94 1.480 . S
C92 N89 1.372 . S
C92 N90 1.361 1_556 S
C92 C100 1.457 . S
C93 N88 1.363 . S
C93 N90 1.377 . S
C93 C106 1.479 . S
C94 C91 1.480 . S
C94 C95 1.383 1_556 S
C94 C99 1.385 . S
C95 H76 0.947 . S
C95 C94 1.383 1_554 S
C95 C96 1.380 1_545 S
C96 H77 0.953 . S
C96 C95 1.380 1_565 S
C96 C97 1.386 1_564 S
C97 C96 1.386 1_546 S
C97 C98 1.377 . S
C98 H78 0.953 . S
C98 C97 1.377 . S
C98 C99 1.369 . S
C99 H79 0.945 . S
C99 C94 1.385 . S
C99 C98 1.369 . S
C100 C92 1.457 . S
C100 C101 1.379 . S
C100 C105 1.364 . S
C101 H80 0.945 1_545 S
C101 C100 1.379 . S
C101 C102 1.390 1_545 S
C102 H81 0.963 . S
C102 C101 1.390 1_565 S
C102 C103 1.373 1_565 S
C103 C102 1.373 1_545 S
C103 C104 1.372 . S
C104 H82 0.950 . S
C104 C103 1.372 . S
C104 C105 1.379 . S
C105 H83 0.948 . S
C105 C100 1.364 . S
C105 C104 1.379 . S
C106 C75 1.383 . S
C106 C93 1.479 . S
C106 C107 1.398 . S
C107 C72 1.382 1_545 S
C107 H84 0.951 1_545 S
C107 C106 1.398 . S
C108 C109 1.384 . S
C108 H121 0.947 . S
C108 C143 1.382 . S
C109 C108 1.384 . S
C109 C110 1.378 . S
C110 C109 1.378 . S
C110 C111 1.378 . S
C110 H122 0.952 . S
C111 C110 1.378 . S
C111 H123 0.950 . S
C111 C142 1.383 . S
H112 C131 0.947 . S
H113 C132 0.946 . S
H114 C134 0.953 . S
H115 C135 0.945 . S
H116 C137 0.952 . S
H117 C138 0.949 . S
H118 C140 0.950 . S
H119 C141 0.948 . S
H120 C143 0.951 . S
H121 C108 0.947 . S
H122 C110 0.952 . S
H123 C111 0.950 . S
N124 C127 1.382 . S
N124 C129 1.363 . S
N125 C127 1.371 . S
N125 C128 1.372 . S
N126 C128 1.361 . S
N126 C129 1.377 . S
C127 N124 1.382 . S
C127 N125 1.371 . S
C127 C130 1.480 . S
C128 N125 1.372 . S
C128 N126 1.361 . S
C128 C136 1.457 . S
C129 N124 1.363 . S
C129 N126 1.377 . S
C129 C142 1.479 . S
C130 C127 1.480 . S
C130 C131 1.383 . S
C130 C135 1.385 . S
C131 H112 0.947 . S
C131 C130 1.383 . S
C131 C132 1.388 . S
C132 H113 0.946 . S
C132 C131 1.388 . S
C132 C133 1.384 . S
C133 C132 1.384 . S
C133 C134 1.377 . S
C134 H114 0.953 . S
C134 C133 1.377 . S
C134 C135 1.369 . S
C135 H115 0.945 . S
C135 C130 1.385 . S
C135 C134 1.369 . S
C136 C128 1.457 . S
C136 C137 1.372 . S
C136 C141 1.364 . S
C137 H116 0.952 . S
C137 C136 1.372 . S
C137 C138 1.389 . S
C138 H117 0.949 . S
C138 C137 1.389 . S
C138 C139 1.387 . S
C139 C138 1.387 . S
C139 C140 1.372 . S
C140 H118 0.950 . S
C140 C139 1.372 . S
C140 C141 1.379 . S
C141 H119 0.948 . S
C141 C136 1.364 . S
C141 C140 1.379 . S
C142 C111 1.383 . S
C142 C129 1.479 . S
C142 C143 1.398 . S
C143 C108 1.382 . S
C143 H120 0.951 . S
C143 C142 1.398 . S
C144 C145 1.384 . S
C144 H157 0.947 . S
C144 C179 1.382 . S
C145 C144 1.384 . S
C145 C146 1.378 . S
C146 C145 1.378 . S
C146 C147 1.378 . S
C146 H158 0.952 . S
C147 C146 1.378 . S
C147 H159 0.950 . S
C147 C178 1.383 . S
H148 C167 0.947 . S
H149 C168 0.946 . S
H150 C170 0.953 . S
H151 C171 0.945 . S
H152 C173 0.952 . S
H153 C174 0.949 . S
H154 C176 0.950 . S
H155 C177 0.948 . S
H156 C179 0.951 . S
H157 C144 0.947 . S
H158 C146 0.952 . S
H159 C147 0.950 . S
N160 C163 1.382 . S
N160 C165 1.363 . S
N161 C163 1.371 . S
N161 C164 1.372 . S
N162 C164 1.361 . S
N162 C165 1.377 . S
C163 N160 1.382 . S
C163 N161 1.371 . S
C163 C166 1.480 . S
C164 N161 1.372 . S
C164 N162 1.361 . S
C164 C172 1.457 . S
C165 N160 1.363 . S
C165 N162 1.377 . S
C165 C178 1.479 . S
C166 C163 1.480 . S
C166 C167 1.383 . S
C166 C171 1.385 . S
C167 H148 0.947 . S
C167 C166 1.383 . S
C167 C168 1.388 . S
C168 H149 0.946 . S
C168 C167 1.388 . S
C168 C169 1.384 . S
C169 C168 1.384 . S
C169 C170 1.377 . S
C170 H150 0.953 . S
C170 C169 1.377 . S
C170 C171 1.369 . S
C171 H151 0.945 . S
C171 C166 1.385 . S
C171 C170 1.369 . S
C172 C164 1.457 . S
C172 C173 1.372 . S
C172 C177 1.364 . S
C173 H152 0.952 . S
C173 C172 1.372 . S
C173 C174 1.389 . S
C174 H153 0.949 . S
C174 C173 1.389 . S
C174 C175 1.387 . S
C175 C174 1.387 . S
C175 C176 1.372 . S
C176 H154 0.950 . S
C176 C175 1.372 . S
C176 C177 1.379 . S
C177 H155 0.948 . S
C177 C172 1.364 . S
C177 C176 1.379 . S
C178 C147 1.383 . S
C178 C165 1.479 . S
C178 C179 1.398 . S
C179 C144 1.382 . S
C179 H156 0.951 . S
C179 C178 1.398 . S
C180 C181 1.384 . S
C180 H193 0.947 . S
C180 C215 1.382 . S
C181 C180 1.384 . S
C181 C182 1.378 . S
C182 C181 1.378 . S
C182 C183 1.378 . S
C182 H194 0.952 . S
C183 C182 1.378 . S
C183 H195 0.950 . S
C183 C214 1.383 . S
H184 C203 0.947 . S
H185 C204 0.946 . S
H186 C206 0.953 . S
H187 C207 0.945 . S
H188 C209 0.952 . S
H189 C210 0.949 . S
H190 C212 0.950 . S
H191 C213 0.948 . S
H192 C215 0.951 . S
H193 C180 0.947 . S
H194 C182 0.952 . S
H195 C183 0.950 . S
N196 C199 1.382 . S
N196 C201 1.363 . S
N197 C199 1.371 . S
N197 C200 1.372 . S
N198 C200 1.361 . S
N198 C201 1.377 . S
C199 N196 1.382 . S
C199 N197 1.371 . S
C199 C202 1.480 . S
C200 N197 1.372 . S
C200 N198 1.361 . S
C200 C208 1.457 . S
C201 N196 1.363 . S
C201 N198 1.377 . S
C201 C214 1.479 . S
C202 C199 1.480 . S
C202 C203 1.383 . S
C202 C207 1.385 . S
C203 H184 0.947 . S
C203 C202 1.383 . S
C203 C204 1.388 . S
C204 H185 0.946 . S
C204 C203 1.388 . S
C204 C205 1.384 . S
C205 C204 1.384 . S
C205 C206 1.377 . S
C206 H186 0.953 . S
C206 C205 1.377 . S
C206 C207 1.369 . S
C207 H187 0.945 . S
C207 C202 1.385 . S
C207 C206 1.369 . S
C208 C200 1.457 . S
C208 C209 1.372 . S
C208 C213 1.364 . S
C209 H188 0.952 . S
C209 C208 1.372 . S
C209 C210 1.389 . S
C210 H189 0.949 . S
C210 C209 1.389 . S
C210 C211 1.387 . S
C211 C210 1.387 . S
C211 C212 1.372 . S
C212 H190 0.950 . S
C212 C211 1.372 . S
C212 C213 1.379 . S
C213 H191 0.948 . S
C213 C208 1.364 . S
C213 C212 1.379 . S
C214 C183 1.383 . S
C214 C201 1.479 . S
C214 C215 1.398 . S
C215 C180 1.382 . S
C215 H192 0.951 . S
C215 C214 1.398 . S
C216 C217 1.383 . S
C216 H229 0.949 1_545 S
C216 C251 1.379 . S
C217 C216 1.383 . S
C217 C218 1.378 . S
C218 C217 1.378 . S
C218 C219 1.378 . S
C218 H230 0.952 . S
C219 C218 1.378 . S
C219 H231 0.950 . S
C219 C250 1.383 . S
H220 C239 0.947 . S
H221 C240 0.948 . S
H222 C242 0.953 . S
H223 C243 0.945 . S
H224 C245 0.954 1_565 S
H225 C246 0.949 . S
H226 C248 0.950 . S
H227 C249 0.948 . S
H228 C251 0.950 1_565 S
H229 C216 0.949 1_565 S
H230 C218 0.952 . S
H231 C219 0.950 . S
N232 C235 1.382 . S
N232 C237 1.363 . S
N233 C235 1.371 . S
N233 C236 1.372 . S
N234 C236 1.361 . S
N234 C237 1.377 . S
C235 N232 1.382 . S
C235 N233 1.371 . S
C235 C238 1.480 . S
C236 N233 1.372 . S
C236 N234 1.361 . S
C236 C244 1.457 . S
C237 N232 1.363 . S
C237 N234 1.377 . S
C237 C250 1.479 . S
C238 C235 1.480 . S
C238 C239 1.383 . S
C238 C243 1.385 . S
C239 H220 0.947 . S
C239 C238 1.383 . S
C239 C240 1.390 1_545 S
C240 H221 0.948 . S
C240 C239 1.390 1_565 S
C240 C241 1.380 1_565 S
C241 C240 1.380 1_545 S
C241 C242 1.377 . S
C242 H222 0.953 . S
C242 C241 1.377 . S
C242 C243 1.369 . S
C243 H223 0.945 . S
C243 C238 1.385 . S
C243 C242 1.369 . S
C244 C236 1.457 . S
C244 C245 1.373 . S
C244 C249 1.364 . S
C245 H224 0.954 1_545 S
C245 C244 1.373 . S
C245 C246 1.384 1_545 S
C246 H225 0.949 . S
C246 C245 1.384 1_565 S
C246 C247 1.390 1_565 S
C247 C246 1.390 1_545 S
C247 C248 1.372 . S
C248 H226 0.950 . S
C248 C247 1.372 . S
C248 C249 1.379 . S
C249 H227 0.948 . S
C249 C244 1.364 . S
C249 C248 1.379 . S
C250 C219 1.383 . S
C250 C237 1.479 . S
C250 C251 1.402 . S
C251 C216 1.379 . S
C251 H228 0.950 1_545 S
C251 C250 1.402 . S
C252 C253 1.384 . S
C252 H265 0.947 . S
C252 C287 1.382 . S
C253 C252 1.384 . S
C253 C254 1.378 . S
C254 C253 1.378 . S
C254 C255 1.378 . S
C254 H266 0.952 . S
C255 C254 1.378 . S
C255 H267 0.950 . S
C255 C286 1.383 . S
H256 C275 0.947 . S
H257 C276 0.946 . S
H258 C278 0.953 . S
H259 C279 0.945 . S
H260 C281 0.952 . S
H261 C282 0.949 . S
H262 C284 0.950 . S
H263 C285 0.948 . S
H264 C287 0.951 . S
H265 C252 0.947 . S
H266 C254 0.952 . S
H267 C255 0.950 . S
N268 C271 1.382 . S
N268 C273 1.363 . S
N269 C271 1.371 . S
N269 C272 1.372 . S
N270 C272 1.361 . S
N270 C273 1.377 . S
C271 N268 1.382 . S
C271 N269 1.371 . S
C271 C274 1.480 . S
C272 N269 1.372 . S
C272 N270 1.361 . S
C272 C280 1.457 . S
C273 N268 1.363 . S
C273 N270 1.377 . S
C273 C286 1.479 . S
C274 C271 1.480 . S
C274 C275 1.383 . S
C274 C279 1.385 . S
C275 H256 0.947 . S
C275 C274 1.383 . S
C275 C276 1.388 . S
C276 H257 0.946 . S
C276 C275 1.388 . S
C276 C277 1.384 . S
C277 C276 1.384 . S
C277 C278 1.377 . S
C278 H258 0.953 . S
C278 C277 1.377 . S
C278 C279 1.369 . S
C279 H259 0.945 . S
C279 C274 1.385 . S
C279 C278 1.369 . S
C280 C272 1.457 . S
C280 C281 1.372 . S
C280 C285 1.364 . S
C281 H260 0.952 . S
C281 C280 1.372 . S
C281 C282 1.389 . S
C282 H261 0.949 . S
C282 C281 1.389 . S
C282 C283 1.387 . S
C283 C282 1.387 . S
C283 C284 1.372 . S
C284 H262 0.950 . S
C284 C283 1.372 . S
C284 C285 1.379 . S
C285 H263 0.948 . S
C285 C280 1.364 . S
C285 C284 1.379 . S
C286 C255 1.383 . S
C286 C273 1.479 . S
C286 C287 1.398 . S
C287 C252 1.382 . S
C287 H264 0.951 . S
C287 C286 1.398 . S
Nd288 C290 2.836 1_455 S
Nd288 O308 2.500 1_455 S
Nd288 O309 2.492 . S
Nd288 O310 2.487 . S
Nd288 O311 2.678 1_565 S
Nd288 O312 2.410 . S
Nd288 O317 2.427 1_455 S
Nd288 O319 2.424 1_565 S
Nd289 C299 2.836 . S
Nd289 O311 2.431 . S
Nd289 O313 2.424 1_545 S
Nd289 O314 2.500 . S
Nd289 O315 2.492 . S
Nd289 O316 2.487 1_455 S
Nd289 O317 2.679 1_445 S
Nd289 O318 2.410 . S
C290 Nd288 2.836 1_655 S
C290 C291 1.498 . S
C290 O308 1.258 . S
C290 O309 1.239 1_655 S
C291 C290 1.498 . S
C291 C292 1.366 . S
C291 C296 1.407 . S
C292 C291 1.366 . S
C292 C293 1.392 . S
C292 H320 0.930 . S
C293 C292 1.392 . S
C293 C294 1.398 . S
C293 H321 0.929 . S
C294 C293 1.398 . S
C294 C295 1.352 . S
C295 C294 1.352 . S
C295 C296 1.384 . S
C295 H322 0.930 . S
C296 C291 1.407 . S
C296 C295 1.384 . S
C296 H323 0.929 1_655 S
C297 O310 1.241 . S
C297 O311 1.248 1_565 S
C298 O312 1.251 . S
C298 O313 1.268 . S
C299 Nd289 2.836 . S
C299 C300 1.498 . S
C299 O314 1.258 . S
C299 O315 1.239 . S
C300 C299 1.498 . S
C300 C301 1.366 . S
C300 C305 1.407 . S
C301 C300 1.366 . S
C301 C302 1.392 . S
C301 H324 0.930 . S
C302 C301 1.392 . S
C302 C303 1.398 . S
C302 H325 0.929 . S
C303 C302 1.398 . S
C303 C304 1.352 1_556 S
C304 C303 1.352 1_554 S
C304 C305 1.384 1_554 S
C304 H326 0.930 . S
C305 C300 1.407 . S
C305 C304 1.384 1_556 S
C305 H327 0.929 . S
C306 O316 1.241 . S
C306 O317 1.254 1_545 S
C307 O318 1.251 . S
C307 O319 1.268 . S
O308 Nd288 2.500 1_655 S
O308 C290 1.258 . S
O309 Nd288 2.492 . S
O309 C290 1.239 1_455 S
O310 Nd288 2.487 . S
O310 C297 1.241 . S
O311 Nd288 2.678 1_545 S
O311 Nd289 2.431 . S
O311 C297 1.248 1_545 S
O312 Nd288 2.410 . S
O312 C298 1.251 . S
O313 Nd289 2.424 1_565 S
O313 C298 1.268 . S
O314 Nd289 2.500 . S
O314 C299 1.258 . S
O315 Nd289 2.492 . S
O315 C299 1.239 . S
O316 Nd289 2.487 1_655 S
O316 C306 1.241 . S
O317 Nd288 2.427 1_655 S
O317 Nd289 2.679 1_665 S
O317 C306 1.254 1_565 S
O318 Nd289 2.410 . S
O318 C307 1.251 . S
O319 Nd288 2.424 1_545 S
O319 C307 1.268 . S
H320 C292 0.930 . S
H321 C293 0.929 . S
H322 C295 0.930 . S
H323 C296 0.929 1_455 S
H324 C301 0.930 . S
H325 C302 0.929 . S
H326 C304 0.930 . S
H327 C305 0.929 . S
Nd328 C330 2.836 . S
Nd328 O348 2.500 . S
Nd328 O349 2.492 1_565 S
Nd328 O350 2.487 1_565 S
Nd328 O351 2.682 1_565 S
Nd328 O352 2.410 1_565 S
Nd328 O357 2.414 . S
Nd328 O359 2.424 . S
Nd329 C339 2.836 . S
Nd329 O351 2.414 . S
Nd329 O353 2.424 . S
Nd329 O354 2.500 . S
Nd329 O355 2.492 1_545 S
Nd329 O356 2.487 1_545 S
Nd329 O357 2.682 1_545 S
Nd329 O358 2.410 1_545 S
C330 Nd328 2.836 . S
C330 C331 1.498 . S
C330 O348 1.258 . S
C330 O349 1.228 1_565 S
C331 C330 1.498 . S
C331 C332 1.366 . S
C331 C336 1.407 . S
C332 C331 1.366 . S
C332 C333 1.392 . S
C332 H360 0.930 . S
C333 C332 1.392 . S
C333 C334 1.398 . S
C333 H361 0.929 . S
C334 C333 1.398 . S
C334 C335 1.352 . S
C335 C334 1.352 . S
C335 C336 1.384 . S
C335 H362 0.930 1_565 S
C336 C331 1.407 . S
C336 C335 1.384 . S
C336 H363 0.929 1_565 S
C337 O350 1.241 . S
C337 O351 1.273 . S
C338 O352 1.251 . S
C338 O353 1.268 . S
C339 Nd329 2.836 . S
C339 C340 1.498 . S
C339 O354 1.258 . S
C339 O355 1.240 1_545 S
C340 C339 1.498 . S
C340 C341 1.366 . S
C340 C345 1.407 . S
C341 C340 1.366 . S
C341 C342 1.392 . S
C341 H364 0.930 . S
C342 C341 1.392 . S
C342 C343 1.404 . S
C342 H365 0.929 . S
C343 C342 1.404 . S
C343 C344 1.350 1_556 S
C344 C343 1.350 1_554 S
C344 C345 1.384 1_554 S
C344 H366 0.930 . S
C345 C340 1.407 . S
C345 C344 1.384 1_556 S
C345 H367 0.929 1_546 S
C346 O356 1.241 . S
C346 O357 1.273 . S
C347 O358 1.251 . S
C347 O359 1.268 . S
O348 Nd328 2.500 . S
O348 C330 1.258 . S
O349 Nd328 2.492 1_545 S
O349 C330 1.228 1_545 S
O350 Nd328 2.487 1_545 S
O350 C337 1.241 . S
O351 Nd328 2.682 1_545 S
O351 Nd329 2.414 . S
O351 C337 1.273 . S
O352 Nd328 2.410 1_545 S
O352 C338 1.251 . S
O353 Nd329 2.424 . S
O353 C338 1.268 . S
O354 Nd329 2.500 . S
O354 C339 1.258 . S
O355 Nd329 2.492 1_565 S
O355 C339 1.240 1_565 S
O356 Nd329 2.487 1_565 S
O356 C346 1.241 . S
O357 Nd328 2.414 . S
O357 Nd329 2.682 1_565 S
O357 C346 1.273 . S
O358 Nd329 2.410 1_565 S
O358 C347 1.251 . S
O359 Nd328 2.424 . S
O359 C347 1.268 . S
H360 C332 0.930 . S
H361 C333 0.929 . S
H362 C335 0.930 1_545 S
H363 C336 0.929 1_545 S
H364 C341 0.930 . S
H365 C342 0.929 . S
H366 C344 0.930 . S
H367 C345 0.929 1_564 S
Nd368 C370 2.836 . S
Nd368 O388 2.500 . S
Nd368 O389 2.492 . S
Nd368 O390 2.487 . S
Nd368 O391 2.682 . S
Nd368 O392 2.410 . S
Nd368 O397 2.414 . S
Nd368 O399 2.424 . S
Nd369 C379 2.836 . S
Nd369 O391 2.414 . S
Nd369 O393 2.424 . S
Nd369 O394 2.500 . S
Nd369 O395 2.492 . S
Nd369 O396 2.487 . S
Nd369 O397 2.682 . S
Nd369 O398 2.410 . S
C370 Nd368 2.836 . S
C370 C371 1.498 . S
C370 O388 1.258 . S
C370 O389 1.239 . S
C371 C370 1.498 . S
C371 C372 1.366 . S
C371 C376 1.407 . S
C372 C371 1.366 . S
C372 C373 1.392 . S
C372 H400 0.930 . S
C373 C372 1.392 . S
C373 C374 1.398 . S
C373 H401 0.929 . S
C374 C373 1.398 . S
C374 C375 1.352 . S
C375 C374 1.352 . S
C375 C376 1.384 . S
C375 H402 0.930 . S
C376 C371 1.407 . S
C376 C375 1.384 . S
C376 H403 0.929 . S
C377 O390 1.241 . S
C377 O391 1.273 . S
C378 O392 1.251 . S
C378 O393 1.268 . S
C379 Nd369 2.836 . S
C379 C380 1.498 . S
C379 O394 1.258 . S
C379 O395 1.239 . S
C380 C379 1.498 . S
C380 C381 1.366 . S
C380 C385 1.407 . S
C381 C380 1.366 . S
C381 C382 1.392 . S
C381 H404 0.930 . S
C382 C381 1.392 . S
C382 C383 1.398 . S
C382 H405 0.929 . S
C383 C382 1.398 . S
C383 C384 1.352 . S
C384 C383 1.352 . S
C384 C385 1.384 . S
C384 H406 0.930 . S
C385 C380 1.407 . S
C385 C384 1.384 . S
C385 H407 0.929 . S
C386 O396 1.241 . S
C386 O397 1.273 . S
C387 O398 1.251 . S
C387 O399 1.268 . S
O388 Nd368 2.500 . S
O388 C370 1.258 . S
O389 Nd368 2.492 . S
O389 C370 1.239 . S
O390 Nd368 2.487 . S
O390 C377 1.241 . S
O391 Nd368 2.682 . S
O391 Nd369 2.414 . S
O391 C377 1.273 . S
O392 Nd368 2.410 . S
O392 C378 1.251 . S
O393 Nd369 2.424 . S
O393 C378 1.268 . S
O394 Nd369 2.500 . S
O394 C379 1.258 . S
O395 Nd369 2.492 . S
O395 C379 1.239 . S
O396 Nd369 2.487 . S
O396 C386 1.241 . S
O397 Nd368 2.414 . S
O397 Nd369 2.682 . S
O397 C386 1.273 . S
O398 Nd369 2.410 . S
O398 C387 1.251 . S
O399 Nd368 2.424 . S
O399 C387 1.268 . S
H400 C372 0.930 . S
H401 C373 0.929 . S
H402 C375 0.930 . S
H403 C376 0.929 . S
H404 C381 0.930 . S
H405 C382 0.929 . S
H406 C384 0.930 . S
H407 C385 0.929 . S
Nd408 C410 2.836 1_455 S
Nd408 O428 2.500 1_455 S
Nd408 O429 2.492 1_455 S
Nd408 O430 2.487 . S
Nd408 O431 2.682 . S
Nd408 O432 2.410 1_455 S
Nd408 O437 2.414 . S
Nd408 O439 2.424 . S
Nd409 C419 2.836 . S
Nd409 O431 2.414 . S
Nd409 O433 2.424 1_455 S
Nd409 O434 2.500 . S
Nd409 O435 2.492 . S
Nd409 O436 2.487 . S
Nd409 O437 2.682 . S
Nd409 O438 2.410 . S
C410 Nd408 2.836 1_655 S
C410 C411 1.498 . S
C410 O428 1.258 . S
C410 O429 1.239 . S
C411 C410 1.498 . S
C411 C412 1.366 . S
C411 C416 1.407 . S
C412 C411 1.366 . S
C412 C413 1.392 . S
C412 H440 0.930 . S
C413 C412 1.392 . S
C413 C414 1.398 . S
C413 H441 0.929 . S
C414 C413 1.398 . S
C414 C415 1.352 . S
C415 C414 1.352 . S
C415 C416 1.384 . S
C415 H442 0.930 . S
C416 C411 1.407 . S
C416 C415 1.384 . S
C416 H443 0.929 . S
C417 O430 1.241 . S
C417 O431 1.273 . S
C418 O432 1.251 . S
C418 O433 1.268 . S
C419 Nd409 2.836 . S
C419 C420 1.498 . S
C419 O434 1.258 . S
C419 O435 1.239 . S
C420 C419 1.498 . S
C420 C421 1.366 . S
C420 C425 1.407 . S
C421 C420 1.366 . S
C421 C422 1.392 . S
C421 H444 0.930 . S
C422 C421 1.392 . S
C422 C423 1.400 1_556 S
C422 H445 0.929 . S
C423 C422 1.400 1_554 S
C423 C424 1.352 . S
C424 C423 1.352 . S
C424 C425 1.384 1_554 S
C424 H446 0.930 . S
C425 C420 1.407 . S
C425 C424 1.384 1_556 S
C425 H447 0.929 . S
C426 O436 1.273 . S
C426 O437 1.288 . S
C427 O438 1.251 . S
C427 O439 1.268 . S
O428 Nd408 2.500 1_655 S
O428 C410 1.258 . S
O429 Nd408 2.492 1_655 S
O429 C410 1.239 . S
O430 Nd408 2.487 . S
O430 C417 1.241 . S
O431 Nd408 2.682 . S
O431 Nd409 2.414 . S
O431 C417 1.273 . S
O432 Nd408 2.410 1_655 S
O432 C418 1.251 . S
O433 Nd409 2.424 1_655 S
O433 C418 1.268 . S
O434 Nd409 2.500 . S
O434 C419 1.258 . S
O435 Nd409 2.492 . S
O435 C419 1.239 . S
O436 Nd409 2.487 . S
O436 C426 1.273 . S
O437 Nd408 2.414 . S
O437 Nd409 2.682 . S
O437 C426 1.288 . S
O438 Nd409 2.410 . S
O438 C427 1.251 . S
O439 Nd408 2.424 . S
O439 C427 1.268 . S
H440 C412 0.930 . S
H441 C413 0.929 . S
H442 C415 0.930 . S
H443 C416 0.929 . S
H444 C421 0.930 . S
H445 C422 0.929 . S
H446 C424 0.930 . S
H447 C425 0.929 . S
C448 C449 1.350 1_565 S
C448 C450 1.327 . S
C448 H473 0.950 . S
C449 C448 1.350 1_545 S
C449 C465 1.347 . S
C450 C448 1.327 . S
C450 C469 1.472 . S
C450 H474 0.950 . S
C451 C468 1.574 . S
C451 C470 1.368 1_545 S
C451 H475 0.949 . S
H452 C456 0.949 . S
C453 C454 1.349 1_545 S
C453 C455 1.327 . S
C453 H476 0.950 . S
C454 C453 1.349 1_565 S
C454 C466 1.349 . S
C455 C453 1.327 . S
C455 C471 1.429 1_545 S
C455 H477 0.950 . S
C456 H452 0.949 . S
C456 C464 1.574 . S
C456 C472 1.368 . S
H457 C465 0.950 . S
H458 C463 0.950 . S
H459 C464 0.949 . S
H460 C466 0.950 . S
H461 C467 0.950 . S
H462 C468 0.949 . S
C463 H458 0.950 . S
C463 C465 1.327 . S
C463 C469 1.395 1_545 S
C464 C456 1.574 . S
C464 H459 0.949 . S
C464 C470 1.368 . S
C465 C449 1.347 . S
C465 H457 0.950 . S
C465 C463 1.327 . S
C466 C454 1.349 . S
C466 H460 0.950 . S
C466 C467 1.327 . S
C467 H461 0.950 . S
C467 C466 1.327 . S
C467 C471 1.429 . S
C468 C451 1.574 . S
C468 H462 0.949 . S
C468 C472 1.368 1_545 S
C469 C450 1.472 . S
C469 C463 1.395 1_565 S
C469 C470 1.514 . S
C470 C451 1.368 1_565 S
C470 C464 1.368 . S
C470 C469 1.514 . S
C471 C455 1.429 1_565 S
C471 C467 1.429 . S
C471 C472 1.523 . S
C472 C456 1.368 . S
C472 C468 1.368 1_565 S
C472 C471 1.523 . S
H473 C448 0.950 . S
H474 C450 0.950 . S
H475 C451 0.949 . S
H476 C453 0.950 . S
H477 C455 0.950 . S
C478 C479 1.349 . S
C478 C480 1.327 . S
C478 H503 0.950 . S
C479 C478 1.349 . S
C479 C495 1.349 . S
C480 C478 1.327 . S
C480 C499 1.429 . S
C480 H504 0.950 . S
C481 C498 1.574 . S
C481 C500 1.368 . S
C481 H505 0.949 . S
H482 C486 0.949 . S
C483 C484 1.349 . S
C483 C485 1.327 . S
C483 H506 0.950 . S
C484 C483 1.349 . S
C484 C496 1.349 . S
C485 C483 1.327 . S
C485 C501 1.429 . S
C485 H507 0.950 . S
C486 H482 0.949 . S
C486 C494 1.574 . S
C486 C502 1.368 . S
H487 C495 0.950 . S
H488 C493 0.950 . S
H489 C494 0.949 . S
H490 C496 0.950 . S
H491 C497 0.950 . S
H492 C498 0.949 . S
C493 H488 0.950 . S
C493 C495 1.327 . S
C493 C499 1.429 . S
C494 C486 1.574 . S
C494 H489 0.949 . S
C494 C500 1.368 . S
C495 C479 1.349 . S
C495 H487 0.950 . S
C495 C493 1.327 . S
C496 C484 1.349 . S
C496 H490 0.950 . S
C496 C497 1.327 . S
C497 H491 0.950 . S
C497 C496 1.327 . S
C497 C501 1.429 . S
C498 C481 1.574 . S
C498 H492 0.949 . S
C498 C502 1.368 . S
C499 C480 1.429 . S
C499 C493 1.429 . S
C499 C500 1.523 . S
C500 C481 1.368 . S
C500 C494 1.368 . S
C500 C499 1.523 . S
C501 C485 1.429 . S
C501 C497 1.429 . S
C501 C502 1.523 . S
C502 C486 1.368 . S
C502 C498 1.368 . S
C502 C501 1.523 . S
H503 C478 0.950 . S
H504 C480 0.950 . S
H505 C481 0.949 . S
H506 C483 0.950 . S
H507 C485 0.950 . S
C508 C509 1.349 . S
C508 C510 1.327 . S
C508 H533 0.950 . S
C509 C508 1.349 . S
C509 C525 1.349 . S
C510 C508 1.327 . S
C510 C529 1.429 . S
C510 H534 0.950 . S
C511 C528 1.574 . S
C511 C530 1.368 . S
C511 H535 0.949 . S
H512 C516 0.949 . S
C513 C514 1.349 . S
C513 C515 1.327 . S
C513 H536 0.950 . S
C514 C513 1.349 . S
C514 C526 1.349 . S
C515 C513 1.327 . S
C515 C531 1.429 . S
C515 H537 0.950 . S
C516 H512 0.949 . S
C516 C524 1.574 . S
C516 C532 1.368 . S
H517 C525 0.950 . S
H518 C523 0.950 . S
H519 C524 0.949 . S
H520 C526 0.950 . S
H521 C527 0.950 . S
H522 C528 0.949 . S
C523 H518 0.950 . S
C523 C525 1.327 . S
C523 C529 1.429 . S
C524 C516 1.574 . S
C524 H519 0.949 . S
C524 C530 1.368 . S
C525 C509 1.349 . S
C525 H517 0.950 . S
C525 C523 1.327 . S
C526 C514 1.349 . S
C526 H520 0.950 . S
C526 C527 1.327 . S
C527 H521 0.950 . S
C527 C526 1.327 . S
C527 C531 1.429 . S
C528 C511 1.574 . S
C528 H522 0.949 . S
C528 C532 1.368 . S
C529 C510 1.429 . S
C529 C523 1.429 . S
C529 C530 1.523 . S
C530 C511 1.368 . S
C530 C524 1.368 . S
C530 C529 1.523 . S
C531 C515 1.429 . S
C531 C527 1.429 . S
C531 C532 1.523 . S
C532 C516 1.368 . S
C532 C528 1.368 . S
C532 C531 1.523 . S
H533 C508 0.950 . S
H534 C510 0.950 . S
H535 C511 0.949 . S
H536 C513 0.950 . S
H537 C515 0.950 . S
C538 C539 1.349 . S
C538 C540 1.327 . S
C538 H563 0.950 . S
C539 C538 1.349 . S
C539 C555 1.349 . S
C540 C538 1.327 . S
C540 C559 1.429 . S
C540 H564 0.950 . S
C541 C558 1.574 . S
C541 C560 1.368 . S
C541 H565 0.949 . S
H542 C546 0.949 . S
C543 C544 1.349 . S
C543 C545 1.327 . S
C543 H566 0.950 . S
C544 C543 1.349 . S
C544 C556 1.349 . S
C545 C543 1.327 . S
C545 C561 1.429 . S
C545 H567 0.950 . S
C546 H542 0.949 . S
C546 C554 1.574 . S
C546 C562 1.368 . S
H547 C555 0.950 . S
H548 C553 0.950 . S
H549 C554 0.949 . S
H550 C556 0.950 . S
H551 C557 0.950 . S
H552 C558 0.949 . S
C553 H548 0.950 . S
C553 C555 1.327 . S
C553 C559 1.429 . S
C554 C546 1.574 . S
C554 H549 0.949 . S
C554 C560 1.368 . S
C555 C539 1.349 . S
C555 H547 0.950 . S
C555 C553 1.327 . S
C556 C544 1.349 . S
C556 H550 0.950 . S
C556 C557 1.327 . S
C557 H551 0.950 . S
C557 C556 1.327 . S
C557 C561 1.429 . S
C558 C541 1.574 . S
C558 H552 0.949 . S
C558 C562 1.368 . S
C559 C540 1.429 . S
C559 C553 1.429 . S
C559 C560 1.523 . S
C560 C541 1.368 . S
C560 C554 1.368 . S
C560 C559 1.523 . S
C561 C545 1.429 . S
C561 C557 1.429 . S
C561 C562 1.523 . S
C562 C546 1.368 . S
C562 C558 1.368 . S
C562 C561 1.523 . S
H563 C538 0.950 . S
H564 C540 0.950 . S
H565 C541 0.949 . S
H566 C543 0.950 . S
H567 C545 0.950 . S
C568 C569 1.348 1_565 S
C568 C570 1.327 . S
C568 H593 0.950 . S
C569 C568 1.348 1_545 S
C569 C585 1.349 . S
C570 C568 1.327 . S
C570 C589 1.406 1_565 S
C570 H594 0.950 . S
C571 C588 1.574 . S
C571 C590 1.368 . S
C571 H595 0.949 . S
H572 C576 0.949 . S
C573 C574 1.349 . S
C573 C575 1.327 . S
C573 H596 0.950 . S
C574 C573 1.349 . S
C574 C586 1.349 1_545 S
C575 C573 1.327 . S
C575 C591 1.429 . S
C575 H597 0.950 . S
C576 H572 0.949 . S
C576 C584 1.574 . S
C576 C592 1.368 1_565 S
H577 C585 0.959 . S
H578 C583 0.950 . S
H579 C584 0.949 . S
H580 C586 0.950 . S
H581 C587 0.950 . S
H582 C588 0.949 . S
C583 H578 0.950 . S
C583 C585 1.327 . S
C583 C589 1.466 . S
C584 C576 1.574 . S
C584 H579 0.949 . S
C584 C590 1.368 1_565 S
C585 C569 1.349 . S
C585 H577 0.959 . S
C585 C583 1.327 . S
C586 C574 1.349 1_565 S
C586 H580 0.950 . S
C586 C587 1.327 . S
C587 H581 0.950 . S
C587 C586 1.327 . S
C587 C591 1.429 1_565 S
C588 C571 1.574 . S
C588 H582 0.949 . S
C588 C592 1.368 . S
C589 C570 1.406 1_545 S
C589 C583 1.466 . S
C589 C590 1.512 . S
C590 C571 1.368 . S
C590 C584 1.368 1_545 S
C590 C589 1.512 . S
C591 C575 1.429 . S
C591 C587 1.429 1_545 S
C591 C592 1.523 . S
C592 C576 1.368 1_545 S
C592 C588 1.368 . S
C592 C591 1.523 . S
H593 C568 0.950 . S
H594 C570 0.950 . S
H595 C571 0.949 . S
H596 C573 0.950 . S
H597 C575 0.950 . S
C598 C599 1.349 . S
C598 C600 1.327 . S
C598 H623 0.950 . S
C599 C598 1.349 . S
C599 C615 1.349 . S
C600 C598 1.327 . S
C600 C619 1.429 . S
C600 H624 0.950 . S
C601 C618 1.574 . S
C601 C620 1.368 . S
C601 H625 0.949 . S
H602 C606 0.949 1_556 S
C603 C604 1.349 . S
C603 C605 1.327 . S
C603 H626 0.950 . S
C604 C603 1.349 . S
C604 C616 1.349 . S
C605 C603 1.327 . S
C605 C621 1.429 . S
C605 H627 0.950 . S
C606 H602 0.949 1_554 S
C606 C614 1.574 . S
C606 C622 1.368 . S
H607 C615 0.950 . S
H608 C613 0.950 . S
H609 C614 0.949 . S
H610 C616 0.950 . S
H611 C617 0.950 . S
H612 C618 0.949 . S
C613 H608 0.950 . S
C613 C615 1.327 . S
C613 C619 1.429 . S
C614 C606 1.574 . S
C614 H609 0.949 . S
C614 C620 1.368 . S
C615 C599 1.349 . S
C615 H607 0.950 . S
C615 C613 1.327 . S
C616 C604 1.349 . S
C616 H610 0.950 . S
C616 C617 1.327 . S
C617 H611 0.950 . S
C617 C616 1.327 . S
C617 C621 1.429 . S
C618 C601 1.574 . S
C618 H612 0.949 . S
C618 C622 1.368 . S
C619 C600 1.429 . S
C619 C613 1.429 . S
C619 C620 1.523 . S
C620 C601 1.368 . S
C620 C614 1.368 . S
C620 C619 1.523 . S
C621 C605 1.429 . S
C621 C617 1.429 . S
C621 C622 1.523 1_556 S
C622 C606 1.368 . S
C622 C618 1.368 . S
C622 C621 1.523 1_554 S
H623 C598 0.950 . S
H624 C600 0.950 . S
H625 C601 0.949 . S
H626 C603 0.950 . S
H627 C605 0.950 . S
C628 C629 1.349 . S
C628 C630 1.327 . S
C628 H653 0.950 1_556 S
C629 C628 1.349 . S
C629 C645 1.349 . S
C630 C628 1.327 . S
C630 C649 1.429 . S
C630 H654 0.950 . S
C631 C648 1.574 . S
C631 C650 1.368 . S
C631 H655 0.949 . S
H632 C636 0.949 . S
C633 C634 1.349 . S
C633 C635 1.327 . S
C633 H656 0.950 . S
C634 C633 1.349 . S
C634 C646 1.349 . S
C635 C633 1.327 . S
C635 C651 1.429 . S
C635 H657 0.950 . S
C636 H632 0.949 . S
C636 C644 1.574 . S
C636 C652 1.368 . S
H637 C645 0.950 . S
H638 C643 0.950 . S
H639 C644 0.949 . S
H640 C646 0.950 . S
H641 C647 0.950 . S
H642 C648 0.949 . S
C643 H638 0.950 . S
C643 C645 1.327 . S
C643 C649 1.429 . S
C644 C636 1.574 . S
C644 H639 0.949 . S
C644 C650 1.368 . S
C645 C629 1.349 . S
C645 H637 0.950 . S
C645 C643 1.327 . S
C646 C634 1.349 . S
C646 H640 0.950 . S
C646 C647 1.327 . S
C647 H641 0.950 . S
C647 C646 1.327 . S
C647 C651 1.429 . S
C648 C631 1.574 . S
C648 H642 0.949 . S
C648 C652 1.368 . S
C649 C630 1.429 . S
C649 C643 1.429 . S
C649 C650 1.523 . S
C650 C631 1.368 . S
C650 C644 1.368 . S
C650 C649 1.523 . S
C651 C635 1.429 . S
C651 C647 1.429 . S
C651 C652 1.523 . S
C652 C636 1.368 . S
C652 C648 1.368 . S
C652 C651 1.523 . S
H653 C628 0.950 1_554 S
H654 C630 0.950 . S
H655 C631 0.949 . S
H656 C633 0.950 . S
H657 C635 0.950 . S
C658 C659 1.349 . S
C658 C660 1.327 . S
C658 H683 0.950 . S
C659 C658 1.349 . S
C659 C675 1.349 1_556 S
C660 C658 1.327 . S
C660 C679 1.429 . S
C660 H684 0.950 . S
C661 C678 1.574 . S
C661 C680 1.368 . S
C661 H685 0.949 . S
H662 C666 0.949 . S
C663 C664 1.349 . S
C663 C665 1.327 . S
C663 H686 0.950 . S
C664 C663 1.349 . S
C664 C676 1.349 . S
C665 C663 1.327 . S
C665 C681 1.429 . S
C665 H687 0.950 . S
C666 H662 0.949 . S
C666 C674 1.574 . S
C666 C682 1.368 . S
H667 C675 0.950 . S
H668 C673 0.950 1_554 S
H669 C674 0.949 . S
H670 C676 0.950 . S
H671 C677 0.950 . S
H672 C678 0.949 . S
C673 H668 0.950 1_556 S
C673 C675 1.327 1_556 S
C673 C679 1.429 . S
C674 C666 1.574 . S
C674 H669 0.949 . S
C674 C680 1.368 . S
C675 C659 1.349 1_554 S
C675 H667 0.950 . S
C675 C673 1.327 1_554 S
C676 C664 1.349 . S
C676 H670 0.950 . S
C676 C677 1.327 . S
C677 H671 0.950 . S
C677 C676 1.327 . S
C677 C681 1.429 . S
C678 C661 1.574 . S
C678 H672 0.949 . S
C678 C682 1.368 . S
C679 C660 1.429 . S
C679 C673 1.429 . S
C679 C680 1.523 . S
C680 C661 1.368 . S
C680 C674 1.368 . S
C680 C679 1.523 . S
C681 C665 1.429 . S
C681 C677 1.429 . S
C681 C682 1.523 . S
C682 C666 1.368 . S
C682 C678 1.368 . S
C682 C681 1.523 . S
H683 C658 0.950 . S
H684 C660 0.950 . S
H685 C661 0.949 . S
H686 C663 0.950 . S
H687 C665 0.950 . S
C688 C689 1.349 . S
C688 C690 1.327 . S
C688 H713 0.950 . S
C689 C688 1.349 . S
C689 C705 1.349 . S
C690 C688 1.327 . S
C690 C709 1.429 . S
C690 H714 0.950 . S
C691 C708 1.574 . S
C691 C710 1.368 . S
C691 H715 0.949 . S
H692 C696 0.949 . S
C693 C694 1.349 . S
C693 C695 1.327 . S
C693 H716 0.950 . S
C694 C693 1.349 . S
C694 C706 1.349 . S
C695 C693 1.327 . S
C695 C711 1.429 . S
C695 H717 0.950 . S
C696 H692 0.949 . S
C696 C704 1.574 . S
C696 C712 1.368 . S
H697 C705 0.950 . S
H698 C703 0.950 . S
H699 C704 0.949 . S
H700 C706 0.950 . S
H701 C707 0.950 . S
H702 C708 0.949 . S
C703 H698 0.950 . S
C703 C705 1.327 . S
C703 C709 1.429 . S
C704 C696 1.574 . S
C704 H699 0.949 . S
C704 C710 1.368 . S
C705 C689 1.349 . S
C705 H697 0.950 . S
C705 C703 1.327 . S
C706 C694 1.349 . S
C706 H700 0.950 . S
C706 C707 1.327 . S
C707 H701 0.950 . S
C707 C706 1.327 . S
C707 C711 1.429 . S
C708 C691 1.574 . S
C708 H702 0.949 . S
C708 C712 1.368 . S
C709 C690 1.429 . S
C709 C703 1.429 . S
C709 C710 1.523 . S
C710 C691 1.368 . S
C710 C704 1.368 . S
C710 C709 1.523 . S
C711 C695 1.429 . S
C711 C707 1.429 . S
C711 C712 1.523 . S
C712 C696 1.368 . S
C712 C708 1.368 . S
C712 C711 1.523 . S
H713 C688 0.950 . S
H714 C690 0.950 . S
H715 C691 0.949 . S
H716 C693 0.950 . S
H717 C695 0.950 . S
C718 C719 1.337 1_565 S
C718 C720 1.327 . S
C718 H743 0.950 . S
C719 C718 1.337 1_545 S
C719 C735 1.354 . S
C720 C718 1.327 . S
C720 C739 1.429 . S
C720 H744 0.950 . S
C721 C738 1.588 . S
C721 C740 1.368 1_545 S
C721 H745 0.949 . S
H722 C726 0.949 . S
C723 C724 1.349 . S
C723 C725 1.327 . S
C723 H746 0.951 . S
C724 C723 1.349 . S
C724 C736 1.349 . S
C725 C723 1.327 . S
C725 C741 1.429 . S
C725 H747 0.950 1_565 S
C726 H722 0.949 . S
C726 C734 1.574 . S
C726 C742 1.368 . S
H727 C735 0.950 . S
H728 C733 0.950 . S
H729 C734 0.949 . S
H730 C736 0.950 . S
H731 C737 0.950 . S
H732 C738 0.957 . S
C733 H728 0.950 . S
C733 C735 1.327 . S
C733 C739 1.429 1_545 S
C734 C726 1.574 . S
C734 H729 0.949 . S
C734 C740 1.368 . S
C735 C719 1.354 . S
C735 H727 0.950 . S
C735 C733 1.327 . S
C736 C724 1.349 . S
C736 H730 0.950 . S
C736 C737 1.327 . S
C737 H731 0.950 . S
C737 C736 1.327 . S
C737 C741 1.429 . S
C738 C721 1.588 . S
C738 H732 0.957 . S
C738 C742 1.347 1_545 S
C739 C720 1.429 . S
C739 C733 1.429 1_565 S
C739 C740 1.523 . S
C740 C721 1.368 1_565 S
C740 C734 1.368 . S
C740 C739 1.523 . S
C741 C725 1.429 . S
C741 C737 1.429 . S
C741 C742 1.523 . S
C742 C726 1.368 . S
C742 C738 1.347 1_565 S
C742 C741 1.523 . S
H743 C718 0.950 . S
H744 C720 0.950 . S
H745 C721 0.949 . S
H746 C723 0.951 . S
H747 C725 0.950 1_545 S
C748 C749 1.349 . S
C748 C750 1.327 . S
C748 H773 0.950 . S
C749 C748 1.349 . S
C749 C765 1.349 . S
C750 C748 1.327 . S
C750 C769 1.429 . S
C750 H774 0.950 . S
C751 C768 1.574 . S
C751 C770 1.368 . S
C751 H775 0.949 . S
H752 C756 0.949 . S
C753 C754 1.349 . S
C753 C755 1.327 . S
C753 H776 0.950 . S
C754 C753 1.349 . S
C754 C766 1.349 . S
C755 C753 1.327 . S
C755 C771 1.429 . S
C755 H777 0.950 . S
C756 H752 0.949 . S
C756 C764 1.574 . S
C756 C772 1.368 . S
H757 C765 0.950 . S
H758 C763 0.950 . S
H759 C764 0.949 . S
H760 C766 0.950 . S
H761 C767 0.950 . S
H762 C768 0.949 . S
C763 H758 0.950 . S
C763 C765 1.327 . S
C763 C769 1.429 . S
C764 C756 1.574 . S
C764 H759 0.949 . S
C764 C770 1.368 . S
C765 C749 1.349 . S
C765 H757 0.950 . S
C765 C763 1.327 . S
C766 C754 1.349 . S
C766 H760 0.950 . S
C766 C767 1.327 . S
C767 H761 0.950 . S
C767 C766 1.327 . S
C767 C771 1.429 . S
C768 C751 1.574 . S
C768 H762 0.949 . S
C768 C772 1.368 . S
C769 C750 1.429 . S
C769 C763 1.429 . S
C769 C770 1.523 . S
C770 C751 1.368 . S
C770 C764 1.368 . S
C770 C769 1.523 . S
C771 C755 1.429 . S
C771 C767 1.429 . S
C771 C772 1.523 . S
C772 C756 1.368 . S
C772 C768 1.368 . S
C772 C771 1.523 . S
H773 C748 0.950 . S
H774 C750 0.950 . S
H775 C751 0.949 . S
H776 C753 0.950 . S
H777 C755 0.950 . S
C778 C779 1.349 . S
C778 C780 1.327 . S
C778 H803 0.950 . S
C779 C778 1.349 . S
C779 C795 1.349 . S
C780 C778 1.327 . S
C780 C799 1.429 . S
C780 H804 0.950 . S
C781 C798 1.574 . S
C781 C800 1.368 . S
C781 H805 0.949 . S
H782 C786 0.949 . S
C783 C784 1.349 . S
C783 C785 1.327 . S
C783 H806 0.950 . S
C784 C783 1.349 . S
C784 C796 1.349 . S
C785 C783 1.327 . S
C785 C801 1.429 . S
C785 H807 0.950 . S
C786 H782 0.949 . S
C786 C794 1.574 . S
C786 C802 1.368 . S
H787 C795 0.950 . S
H788 C793 0.950 . S
H789 C794 0.949 . S
H790 C796 0.950 . S
H791 C797 0.950 . S
H792 C798 0.949 . S
C793 H788 0.950 . S
C793 C795 1.327 . S
C793 C799 1.429 . S
C794 C786 1.574 . S
C794 H789 0.949 . S
C794 C800 1.368 . S
C795 C779 1.349 . S
C795 H787 0.950 . S
C795 C793 1.327 . S
C796 C784 1.349 . S
C796 H790 0.950 . S
C796 C797 1.327 . S
C797 H791 0.950 . S
C797 C796 1.327 . S
C797 C801 1.429 . S
C798 C781 1.574 . S
C798 H792 0.949 . S
C798 C802 1.368 . S
C799 C780 1.429 . S
C799 C793 1.429 . S
C799 C800 1.523 . S
C800 C781 1.368 . S
C800 C794 1.368 . S
C800 C799 1.523 . S
C801 C785 1.429 . S
C801 C797 1.429 . S
C801 C802 1.523 . S
C802 C786 1.368 . S
C802 C798 1.368 . S
C802 C801 1.523 . S
H803 C778 0.950 . S
H804 C780 0.950 . S
H805 C781 0.949 . S
H806 C783 0.950 . S
H807 C785 0.950 . S
C808 C809 1.349 . S
C808 C810 1.327 . S
C808 H833 0.950 . S
C809 C808 1.349 . S
C809 C825 1.349 . S
C810 C808 1.327 . S
C810 C829 1.429 . S
C810 H834 0.950 . S
C811 C828 1.574 . S
C811 C830 1.368 . S
C811 H835 0.949 . S
H812 C816 0.949 . S
C813 C814 1.349 . S
C813 C815 1.327 . S
C813 H836 0.950 1_655 S
C814 C813 1.349 . S
C814 C826 1.349 . S
C815 C813 1.327 . S
C815 C831 1.429 . S
C815 H837 0.950 . S
C816 H812 0.949 . S
C816 C824 1.574 . S
C816 C832 1.368 . S
H817 C825 0.950 . S
H818 C823 0.950 . S
H819 C824 0.949 . S
H820 C826 0.950 . S
H821 C827 0.950 . S
H822 C828 0.949 . S
C823 H818 0.950 . S
C823 C825 1.327 . S
C823 C829 1.429 . S
C824 C816 1.574 . S
C824 H819 0.949 . S
C824 C830 1.368 . S
C825 C809 1.349 . S
C825 H817 0.950 . S
C825 C823 1.327 . S
C826 C814 1.349 . S
C826 H820 0.950 . S
C826 C827 1.327 . S
C827 H821 0.950 . S
C827 C826 1.327 . S
C827 C831 1.429 . S
C828 C811 1.574 . S
C828 H822 0.949 . S
C828 C832 1.368 . S
C829 C810 1.429 . S
C829 C823 1.429 . S
C829 C830 1.523 . S
C830 C811 1.368 . S
C830 C824 1.368 . S
C830 C829 1.523 . S
C831 C815 1.429 . S
C831 C827 1.429 . S
C831 C832 1.523 . S
C832 C816 1.368 . S
C832 C828 1.368 . S
C832 C831 1.523 . S
H833 C808 0.950 . S
H834 C810 0.950 . S
H835 C811 0.949 . S
H836 C813 0.950 1_455 S
H837 C815 0.950 . S
C838 C839 1.357 . S
C838 C840 1.327 . S
C838 H863 0.950 . S
C839 C838 1.357 . S
C839 C855 1.336 1_565 S
C840 C838 1.327 . S
C840 C859 1.429 1_565 S
C840 H864 0.950 . S
C841 C858 1.574 . S
C841 C860 1.368 . S
C841 H865 0.949 . S
H842 C846 0.949 . S
C843 C844 1.349 . S
C843 C845 1.327 . S
C843 H866 0.950 . S
C844 C843 1.349 . S
C844 C856 1.349 . S
C845 C843 1.327 . S
C845 C861 1.429 . S
C845 H867 0.950 . S
C846 H842 0.949 . S
C846 C854 1.574 . S
C846 C862 1.368 1_565 S
H847 C855 0.950 . S
H848 C853 0.950 . S
H849 C854 0.949 . S
H850 C856 0.950 1_565 S
H851 C857 0.957 . S
H852 C858 0.949 . S
C853 H848 0.950 . S
C853 C855 1.327 . S
C853 C859 1.429 . S
C854 C846 1.574 . S
C854 H849 0.949 . S
C854 C860 1.368 1_565 S
C855 C839 1.336 1_545 S
C855 H847 0.950 . S
C855 C853 1.327 . S
C856 C844 1.349 . S
C856 H850 0.950 1_545 S
C856 C857 1.325 1_545 S
C857 H851 0.957 . S
C857 C856 1.325 1_565 S
C857 C861 1.424 1_565 S
C858 C841 1.574 . S
C858 H852 0.949 . S
C858 C862 1.368 . S
C859 C840 1.429 1_545 S
C859 C853 1.429 . S
C859 C860 1.523 . S
C860 C841 1.368 . S
C860 C854 1.368 1_545 S
C860 C859 1.523 . S
C861 C845 1.429 . S
C861 C857 1.424 1_545 S
C861 C862 1.523 . S
C862 C846 1.368 1_545 S
C862 C858 1.368 . S
C862 C861 1.523 . S
H863 C838 0.950 . S
H864 C840 0.950 . S
H865 C841 0.949 . S
H866 C843 0.950 . S
H867 C845 0.950 . S
C868 C869 1.349 . S
C868 C870 1.327 . S
C868 H893 0.950 . S
C869 C868 1.349 . S
C869 C885 1.349 . S
C870 C868 1.327 . S
C870 C889 1.429 . S
C870 H894 0.950 . S
C871 C888 1.574 . S
C871 C890 1.368 . S
C871 H895 0.949 . S
H872 C876 0.949 . S
C873 C874 1.349 . S
C873 C875 1.327 1_556 S
C873 H896 0.950 1_556 S
C874 C873 1.349 . S
C874 C886 1.349 . S
C875 C873 1.327 1_554 S
C875 C891 1.429 1_554 S
C875 H897 0.950 . S
C876 H872 0.949 . S
C876 C884 1.574 1_556 S
C876 C892 1.368 1_556 S
H877 C885 0.950 . S
H878 C883 0.950 . S
H879 C884 0.947 1_556 S
H880 C886 0.950 . S
H881 C887 0.950 . S
H882 C888 0.949 . S
C883 H878 0.950 . S
C883 C885 1.327 . S
C883 C889 1.429 . S
C884 C876 1.574 1_554 S
C884 H879 0.947 1_554 S
C884 C890 1.368 . S
C885 C869 1.349 . S
C885 H877 0.950 . S
C885 C883 1.327 . S
C886 C874 1.349 . S
C886 H880 0.950 . S
C886 C887 1.327 . S
C887 H881 0.950 . S
C887 C886 1.327 . S
C887 C891 1.429 . S
C888 C871 1.574 . S
C888 H882 0.949 . S
C888 C892 1.368 . S
C889 C870 1.429 . S
C889 C883 1.429 . S
C889 C890 1.523 . S
C890 C871 1.368 . S
C890 C884 1.368 . S
C890 C889 1.523 . S
C891 C875 1.429 1_556 S
C891 C887 1.429 . S
C891 C892 1.523 1_556 S
C892 C876 1.368 1_554 S
C892 C888 1.368 . S
C892 C891 1.523 1_554 S
H893 C868 0.950 . S
H894 C870 0.950 . S
H895 C871 0.949 . S
H896 C873 0.950 1_554 S
H897 C875 0.950 . S
C898 C899 1.349 . S
C898 C900 1.327 . S
C898 H923 0.950 . S
C899 C898 1.349 . S
C899 C915 1.349 . S
C900 C898 1.327 . S
C900 C919 1.429 . S
C900 H924 0.950 . S
C901 C918 1.574 . S
C901 C920 1.368 . S
C901 H925 0.949 . S
H902 C906 0.949 . S
C903 C904 1.349 . S
C903 C905 1.327 . S
C903 H926 0.950 . S
C904 C903 1.349 . S
C904 C916 1.349 . S
C905 C903 1.327 . S
C905 C921 1.429 . S
C905 H927 0.950 . S
C906 H902 0.949 . S
C906 C914 1.574 . S
C906 C922 1.368 . S
H907 C915 0.950 . S
H908 C913 0.950 . S
H909 C914 0.949 . S
H910 C916 0.950 . S
H911 C917 0.950 . S
H912 C918 0.949 . S
C913 H908 0.950 . S
C913 C915 1.327 . S
C913 C919 1.429 . S
C914 C906 1.574 . S
C914 H909 0.949 . S
C914 C920 1.368 . S
C915 C899 1.349 . S
C915 H907 0.950 . S
C915 C913 1.327 . S
C916 C904 1.349 . S
C916 H910 0.950 . S
C916 C917 1.327 . S
C917 H911 0.950 . S
C917 C916 1.327 . S
C917 C921 1.429 . S
C918 C901 1.574 . S
C918 H912 0.949 . S
C918 C922 1.368 . S
C919 C900 1.429 . S
C919 C913 1.429 . S
C919 C920 1.523 . S
C920 C901 1.368 . S
C920 C914 1.368 . S
C920 C919 1.523 . S
C921 C905 1.429 . S
C921 C917 1.429 . S
C921 C922 1.523 . S
C922 C906 1.368 . S
C922 C918 1.368 . S
C922 C921 1.523 . S
H923 C898 0.950 . S
H924 C900 0.950 . S
H925 C901 0.949 . S
H926 C903 0.950 . S
H927 C905 0.950 . S
C928 C929 1.349 . S
C928 C930 1.327 . S
C928 H953 0.950 . S
C929 C928 1.349 . S
C929 C945 1.349 . S
C930 C928 1.327 . S
C930 C949 1.429 . S
C930 H954 0.950 . S
C931 C948 1.574 . S
C931 C950 1.368 . S
C931 H955 0.949 . S
H932 C936 0.949 . S
C933 C934 1.349 . S
C933 C935 1.327 . S
C933 H956 0.950 . S
C934 C933 1.349 . S
C934 C946 1.349 . S
C935 C933 1.327 . S
C935 C951 1.429 . S
C935 H957 0.950 . S
C936 H932 0.949 . S
C936 C944 1.574 . S
C936 C952 1.368 . S
H937 C945 0.950 . S
H938 C943 0.950 . S
H939 C944 0.949 . S
H940 C946 0.950 1_556 S
H941 C947 0.950 . S
H942 C948 0.949 . S
C943 H938 0.950 . S
C943 C945 1.327 . S
C943 C949 1.429 . S
C944 C936 1.574 . S
C944 H939 0.949 . S
C944 C950 1.368 . S
C945 C929 1.349 . S
C945 H937 0.950 . S
C945 C943 1.327 . S
C946 C934 1.349 . S
C946 H940 0.950 1_554 S
C946 C947 1.327 . S
C947 H941 0.950 . S
C947 C946 1.327 . S
C947 C951 1.429 . S
C948 C931 1.574 . S
C948 H942 0.949 . S
C948 C952 1.368 . S
C949 C930 1.429 . S
C949 C943 1.429 . S
C949 C950 1.523 . S
C950 C931 1.368 . S
C950 C944 1.368 . S
C950 C949 1.523 . S
C951 C935 1.429 . S
C951 C947 1.429 . S
C951 C952 1.523 . S
C952 C936 1.368 . S
C952 C948 1.368 . S
C952 C951 1.523 . S
H953 C928 0.950 . S
H954 C930 0.950 . S
H955 C931 0.949 . S
H956 C933 0.950 . S
H957 C935 0.950 . S
C958 C959 1.349 . S
C958 C960 1.327 . S
C958 H983 0.952 . S
C959 C958 1.349 . S
C959 C975 1.349 . S
C960 C958 1.327 . S
C960 C979 1.429 . S
C960 H984 0.950 . S
C961 C978 1.574 . S
C961 C980 1.368 . S
C961 H985 0.949 . S
H962 C966 0.949 . S
C963 C964 1.349 . S
C963 C965 1.327 . S
C963 H986 0.950 1_554 S
C964 C963 1.349 . S
C964 C976 1.349 . S
C965 C963 1.327 . S
C965 C981 1.429 . S
C965 H987 0.950 . S
C966 H962 0.949 . S
C966 C974 1.574 . S
C966 C982 1.368 . S
H967 C975 0.950 . S
H968 C973 0.950 . S
H969 C974 0.949 . S
H970 C976 0.950 . S
H971 C977 0.950 . S
H972 C978 0.949 . S
C973 H968 0.950 . S
C973 C975 1.327 . S
C973 C979 1.429 . S
C974 C966 1.574 . S
C974 H969 0.949 . S
C974 C980 1.368 . S
C975 C959 1.349 . S
C975 H967 0.950 . S
C975 C973 1.327 . S
C976 C964 1.349 . S
C976 H970 0.950 . S
C976 C977 1.327 . S
C977 H971 0.950 . S
C977 C976 1.327 . S
C977 C981 1.429 . S
C978 C961 1.574 . S
C978 H972 0.949 . S
C978 C982 1.368 . S
C979 C960 1.429 . S
C979 C973 1.429 . S
C979 C980 1.523 . S
C980 C961 1.368 . S
C980 C974 1.368 . S
C980 C979 1.523 . S
C981 C965 1.429 . S
C981 C977 1.429 . S
C981 C982 1.523 . S
C982 C966 1.368 . S
C982 C978 1.368 . S
C982 C981 1.523 . S
H983 C958 0.952 . S
H984 C960 0.950 . S
H985 C961 0.949 . S
H986 C963 0.950 1_556 S
H987 C965 0.950 . S
C988 C989 1.349 1_556 S
C988 C990 1.327 . S
C988 H1013 0.950 . S
C989 C988 1.349 1_554 S
C989 C1005 1.349 . S
C990 C988 1.327 . S
C990 C1009 1.429 . S
C990 H1014 0.950 . S
C991 C1008 1.574 1_554 S
C991 C1010 1.368 1_554 S
C991 H1015 0.949 . S
H992 C996 0.949 . S
C993 C994 1.349 . S
C993 C995 1.327 . S
C993 H1016 0.950 . S
C994 C993 1.349 . S
C994 C1006 1.349 . S
C995 C993 1.327 . S
C995 C1011 1.429 . S
C995 H1017 0.950 . S
C996 H992 0.949 . S
C996 C1004 1.574 . S
C996 C1012 1.368 . S
H997 C1005 0.950 . S
H998 C1003 0.950 . S
H999 C1004 0.949 . S
H1000 C1006 0.950 . S
H1001 C1007 0.950 . S
H1002 C1008 0.944 1_554 S
C1003 H998 0.950 . S
C1003 C1005 1.327 . S
C1003 C1009 1.429 1_554 S
C1004 C996 1.574 . S
C1004 H999 0.949 . S
C1004 C1010 1.368 . S
C1005 C989 1.349 . S
C1005 H997 0.950 . S
C1005 C1003 1.327 . S
C1006 C994 1.349 . S
C1006 H1000 0.950 . S
C1006 C1007 1.327 . S
C1007 H1001 0.950 . S
C1007 C1006 1.327 . S
C1007 C1011 1.429 . S
C1008 C991 1.574 1_556 S
C1008 H1002 0.944 1_556 S
C1008 C1012 1.368 . S
C1009 C990 1.429 . S
C1009 C1003 1.429 1_556 S
C1009 C1010 1.523 . S
C1010 C991 1.368 1_556 S
C1010 C1004 1.368 . S
C1010 C1009 1.523 . S
C1011 C995 1.429 . S
C1011 C1007 1.429 . S
C1011 C1012 1.523 . S
C1012 C996 1.368 . S
C1012 C1008 1.368 . S
C1012 C1011 1.523 . S
H1013 C988 0.950 . S
H1014 C990 0.950 . S
H1015 C991 0.949 . S
H1016 C993 0.950 . S
H1017 C995 0.950 . S
C1018 C1019 1.349 . S
C1018 C1020 1.327 . S
C1018 H1043 0.950 . S
C1019 C1018 1.349 . S
C1019 C1035 1.349 . S
C1020 C1018 1.327 . S
C1020 C1039 1.429 . S
C1020 H1044 0.950 . S
C1021 C1038 1.574 . S
C1021 C1040 1.368 . S
C1021 H1045 0.949 . S
H1022 C1026 0.949 . S
C1023 C1024 1.349 . S
C1023 C1025 1.327 . S
C1023 H1046 0.950 1_554 S
C1024 C1023 1.349 . S
C1024 C1036 1.349 . S
C1025 C1023 1.327 . S
C1025 C1041 1.429 . S
C1025 H1047 0.950 . S
C1026 H1022 0.949 . S
C1026 C1034 1.574 . S
C1026 C1042 1.368 . S
H1027 C1035 0.950 . S
H1028 C1033 0.950 . S
H1029 C1034 0.949 . S
H1030 C1036 0.950 . S
H1031 C1037 0.950 . S
H1032 C1038 0.949 . S
C1033 H1028 0.950 . S
C1033 C1035 1.327 . S
C1033 C1039 1.429 . S
C1034 C1026 1.574 . S
C1034 H1029 0.949 . S
C1034 C1040 1.368 . S
C1035 C1019 1.349 . S
C1035 H1027 0.950 . S
C1035 C1033 1.327 . S
C1036 C1024 1.349 . S
C1036 H1030 0.950 . S
C1036 C1037 1.327 . S
C1037 H1031 0.950 . S
C1037 C1036 1.327 . S
C1037 C1041 1.429 . S
C1038 C1021 1.574 . S
C1038 H1032 0.949 . S
C1038 C1042 1.368 . S
C1039 C1020 1.429 . S
C1039 C1033 1.429 . S
C1039 C1040 1.523 . S
C1040 C1021 1.368 . S
C1040 C1034 1.368 . S
C1040 C1039 1.523 . S
C1041 C1025 1.429 . S
C1041 C1037 1.429 . S
C1041 C1042 1.523 . S
C1042 C1026 1.368 . S
C1042 C1038 1.368 . S
C1042 C1041 1.523 . S
H1043 C1018 0.950 . S
H1044 C1020 0.950 . S
H1045 C1021 0.949 . S
H1046 C1023 0.950 1_556 S
H1047 C1025 0.950 . S
C1048 C1049 1.349 . S
C1048 C1050 1.327 . S
C1048 H1073 0.950 . S
C1049 C1048 1.349 . S
C1049 C1065 1.349 . S
C1050 C1048 1.327 . S
C1050 C1069 1.429 . S
C1050 H1074 0.950 . S
C1051 C1068 1.574 . S
C1051 C1070 1.368 . S
C1051 H1075 0.949 . S
H1052 C1056 0.949 . S
C1053 C1054 1.349 . S
C1053 C1055 1.327 . S
C1053 H1076 0.950 . S
C1054 C1053 1.349 . S
C1054 C1066 1.349 . S
C1055 C1053 1.327 . S
C1055 C1071 1.429 . S
C1055 H1077 0.950 . S
C1056 H1052 0.949 . S
C1056 C1064 1.574 . S
C1056 C1072 1.368 . S
H1057 C1065 0.950 . S
H1058 C1063 0.950 . S
H1059 C1064 0.949 . S
H1060 C1066 0.950 . S
H1061 C1067 0.950 . S
H1062 C1068 0.949 . S
C1063 H1058 0.950 . S
C1063 C1065 1.327 . S
C1063 C1069 1.429 . S
C1064 C1056 1.574 . S
C1064 H1059 0.949 . S
C1064 C1070 1.368 . S
C1065 C1049 1.349 . S
C1065 H1057 0.950 . S
C1065 C1063 1.327 . S
C1066 C1054 1.349 . S
C1066 H1060 0.950 . S
C1066 C1067 1.327 . S
C1067 H1061 0.950 . S
C1067 C1066 1.327 . S
C1067 C1071 1.429 . S
C1068 C1051 1.574 . S
C1068 H1062 0.949 . S
C1068 C1072 1.368 . S
C1069 C1050 1.429 . S
C1069 C1063 1.429 . S
C1069 C1070 1.523 . S
C1070 C1051 1.368 . S
C1070 C1064 1.368 . S
C1070 C1069 1.523 . S
C1071 C1055 1.429 . S
C1071 C1067 1.429 . S
C1071 C1072 1.523 . S
C1072 C1056 1.368 . S
C1072 C1068 1.368 . S
C1072 C1071 1.523 . S
H1073 C1048 0.950 . S
H1074 C1050 0.950 . S
H1075 C1051 0.949 . S
H1076 C1053 0.950 . S
H1077 C1055 0.950 . S
C1078 C1079 1.349 . S
C1078 C1080 1.327 . S
C1078 H1103 0.950 . S
C1079 C1078 1.349 . S
C1079 C1095 1.349 1_565 S
C1080 C1078 1.327 . S
C1080 C1099 1.429 . S
C1080 H1104 0.950 . S
C1081 C1098 1.574 . S
C1081 C1100 1.368 1_545 S
C1081 H1105 0.949 . S
H1082 C1086 0.949 . S
C1083 C1084 1.349 . S
C1083 C1085 1.327 . S
C1083 H1106 0.950 1_565 S
C1084 C1083 1.349 . S
C1084 C1096 1.349 . S
C1085 C1083 1.327 . S
C1085 C1101 1.429 . S
C1085 H1107 0.950 1_565 S
C1086 H1082 0.949 . S
C1086 C1094 1.574 . S
C1086 C1102 1.368 . S
H1087 C1095 0.950 . S
H1088 C1093 0.950 . S
H1089 C1094 0.949 . S
H1090 C1096 0.950 . S
H1091 C1097 0.950 . S
H1092 C1098 0.949 . S
C1093 H1088 0.950 . S
C1093 C1095 1.327 . S
C1093 C1099 1.429 1_545 S
C1094 C1086 1.574 . S
C1094 H1089 0.949 . S
C1094 C1100 1.368 . S
C1095 C1079 1.349 1_545 S
C1095 H1087 0.950 . S
C1095 C1093 1.327 . S
C1096 C1084 1.349 . S
C1096 H1090 0.950 . S
C1096 C1097 1.327 . S
C1097 H1091 0.950 . S
C1097 C1096 1.327 . S
C1097 C1101 1.429 . S
C1098 C1081 1.574 . S
C1098 H1092 0.949 . S
C1098 C1102 1.368 1_545 S
C1099 C1080 1.429 . S
C1099 C1093 1.429 1_565 S
C1099 C1100 1.523 . S
C1100 C1081 1.368 1_565 S
C1100 C1094 1.368 . S
C1100 C1099 1.523 . S
C1101 C1085 1.429 . S
C1101 C1097 1.429 . S
C1101 C1102 1.523 . S
C1102 C1086 1.368 . S
C1102 C1098 1.368 1_565 S
C1102 C1101 1.523 . S
H1103 C1078 0.950 . S
H1104 C1080 0.950 . S
H1105 C1081 0.949 . S
H1106 C1083 0.950 1_545 S
H1107 C1085 0.950 1_545 S
C1108 C1109 1.349 . S
C1108 C1110 1.327 . S
C1108 H1133 0.950 . S
C1109 C1108 1.349 . S
C1109 C1125 1.349 . S
C1110 C1108 1.327 . S
C1110 C1129 1.429 . S
C1110 H1134 0.950 . S
C1111 C1128 1.574 . S
C1111 C1130 1.368 . S
C1111 H1135 0.949 . S
H1112 C1116 0.949 . S
C1113 C1114 1.349 . S
C1113 C1115 1.327 . S
C1113 H1136 0.950 . S
C1114 C1113 1.349 . S
C1114 C1126 1.349 . S
C1115 C1113 1.327 . S
C1115 C1131 1.429 . S
C1115 H1137 0.950 . S
C1116 H1112 0.949 . S
C1116 C1124 1.574 . S
C1116 C1132 1.368 . S
H1117 C1125 0.950 . S
H1118 C1123 0.950 . S
H1119 C1124 0.949 . S
H1120 C1126 0.950 . S
H1121 C1127 0.950 . S
H1122 C1128 0.949 . S
C1123 H1118 0.950 . S
C1123 C1125 1.327 . S
C1123 C1129 1.429 . S
C1124 C1116 1.574 . S
C1124 H1119 0.949 . S
C1124 C1130 1.368 . S
C1125 C1109 1.349 . S
C1125 H1117 0.950 . S
C1125 C1123 1.327 . S
C1126 C1114 1.349 . S
C1126 H1120 0.950 . S
C1126 C1127 1.327 . S
C1127 H1121 0.950 . S
C1127 C1126 1.327 . S
C1127 C1131 1.429 . S
C1128 C1111 1.574 . S
C1128 H1122 0.949 . S
C1128 C1132 1.368 . S
C1129 C1110 1.429 . S
C1129 C1123 1.429 . S
C1129 C1130 1.523 . S
C1130 C1111 1.368 . S
C1130 C1124 1.368 . S
C1130 C1129 1.523 . S
C1131 C1115 1.429 . S
C1131 C1127 1.429 . S
C1131 C1132 1.523 . S
C1132 C1116 1.368 . S
C1132 C1128 1.368 . S
C1132 C1131 1.523 . S
H1133 C1108 0.950 . S
H1134 C1110 0.950 . S
H1135 C1111 0.949 . S
H1136 C1113 0.950 . S
H1137 C1115 0.950 . S
C1138 C1139 1.349 . S
C1138 C1140 1.327 . S
C1138 H1163 0.950 . S
C1139 C1138 1.349 . S
C1139 C1155 1.349 . S
C1140 C1138 1.327 . S
C1140 C1159 1.429 . S
C1140 H1164 0.950 . S
C1141 C1158 1.574 . S
C1141 C1160 1.368 . S
C1141 H1165 0.949 . S
H1142 C1146 0.949 . S
C1143 C1144 1.349 . S
C1143 C1145 1.327 . S
C1143 H1166 0.950 . S
C1144 C1143 1.349 . S
C1144 C1156 1.349 . S
C1145 C1143 1.327 . S
C1145 C1161 1.429 . S
C1145 H1167 0.950 . S
C1146 H1142 0.949 . S
C1146 C1154 1.574 . S
C1146 C1162 1.368 . S
H1147 C1155 0.950 . S
H1148 C1153 0.950 . S
H1149 C1154 0.949 . S
H1150 C1156 0.950 . S
H1151 C1157 0.950 . S
H1152 C1158 0.949 . S
C1153 H1148 0.950 . S
C1153 C1155 1.327 . S
C1153 C1159 1.429 . S
C1154 C1146 1.574 . S
C1154 H1149 0.949 . S
C1154 C1160 1.368 . S
C1155 C1139 1.349 . S
C1155 H1147 0.950 . S
C1155 C1153 1.327 . S
C1156 C1144 1.349 . S
C1156 H1150 0.950 . S
C1156 C1157 1.327 . S
C1157 H1151 0.950 . S
C1157 C1156 1.327 . S
C1157 C1161 1.429 . S
C1158 C1141 1.574 . S
C1158 H1152 0.949 . S
C1158 C1162 1.368 . S
C1159 C1140 1.429 . S
C1159 C1153 1.429 . S
C1159 C1160 1.523 . S
C1160 C1141 1.368 . S
C1160 C1154 1.368 . S
C1160 C1159 1.523 . S
C1161 C1145 1.429 . S
C1161 C1157 1.429 . S
C1161 C1162 1.523 . S
C1162 C1146 1.368 . S
C1162 C1158 1.368 . S
C1162 C1161 1.523 . S
H1163 C1138 0.950 . S
H1164 C1140 0.950 . S
H1165 C1141 0.949 . S
H1166 C1143 0.950 . S
H1167 C1145 0.950 . S
C449 C241 0.809 . S
C454 C297 0.799 . S
C484 C337 1.751 . S
C479 C277 1.764 . S
C514 C386 1.633 . S
C509 C169 1.607 . S
C544 C417 2.120 . S
C539 C205 2.163 . S
C574 C306 0.799 . S
C569 C97 0.804 . S
C599 C133 1.832 . S
C604 C346 1.755 . S
C629 C25 1.665 . S
C634 C377 1.633 . S
C659 C61 2.082 1_556 S
C664 C426 2.075 1_655 S
C694 C307 1.078 . S
C689 C211 0.986 . S
C724 C347 0.428 . S
C719 C247 0.585 . S
C754 C383 0.404 . S
C749 C253 0.476 . S
C779 C175 1.093 . S
C784 C427 1.225 . S
C809 C67 0.945 . S
C814 C298 1.084 1_655 S
C844 C338 0.428 . S
C839 C103 0.588 1_565 S
C874 C374 0.405 . S
C869 C109 0.418 . S
C899 C31 1.132 . S
C904 C418 1.225 . S
C929 C181 2.138 . S
C934 C303 2.212 1_554 S
C959 C217 1.677 . S
C964 C343 1.707 1_554 S
C994 C387 2.756 . S
C989 C283 2.443 . S
C1024 C423 1.771 . S
C1019 C145 1.688 . S
C1049 C37 2.099 . S
C1054 C294 2.223 . S
C1084 C334 1.711 . S
C1079 C73 1.685 1_565 S
C1114 C378 2.756 . S
C1109 C139 2.501 . S
C1139 C1 1.728 . S
C1144 C414 1.772 . S
