# Generated by pormake.
# Topology ssb, (4,4)-cn, num edge types: 1
# Building blocks:
#     Node 0, Type 0, BuildingBlock: KUFVIS_clean_linker_0, # of connection points: 4
#     Node 1, Type 0, BuildingBlock: KUFVIS_clean_linker_0, # of connection points: 4
#     Node 2, Type 0, BuildingBlock: KUFVIS_clean_linker_0, # of connection points: 4
#     Node 3, Type 0, BuildingBlock: KUFVIS_clean_linker_0, # of connection points: 4
#     Node 4, Type 0, BuildingBlock: KUFVIS_clean_linker_0, # of connection points: 4
#     Node 5, Type 0, BuildingBlock: KUFVIS_clean_linker_0, # of connection points: 4
#     Node 6, Type 0, BuildingBlock: KUFVIS_clean_linker_0, # of connection points: 4
#     Node 7, Type 0, BuildingBlock: KUFVIS_clean_linker_0, # of connection points: 4
#     Node 8, Type 1, BuildingBlock: NAWXER_clean_sbu_0, # of connection points: 4
#     Node 9, Type 1, BuildingBlock: NAWXER_clean_sbu_0, # of connection points: 4
#     Node 10, Type 1, BuildingBlock: NAWXER_clean_sbu_0, # of connection points: 4
#     Node 11, Type 1, BuildingBlock: NAWXER_clean_sbu_0, # of connection points: 4
#     Node 12, Type 1, BuildingBlock: NAWXER_clean_sbu_0, # of connection points: 4
#     Node 13, Type 1, BuildingBlock: NAWXER_clean_sbu_0, # of connection points: 4
#     Node 14, Type 1, BuildingBlock: NAWXER_clean_sbu_0, # of connection points: 4
#     Node 15, Type 1, BuildingBlock: NAWXER_clean_sbu_0, # of connection points: 4
#     Edge 16, Type (0, 1), BuildingBlock: MIFKUJ_clean_linker_0, # of connection points: 2
#     Edge 17, Type (0, 1), BuildingBlock: MIFKUJ_clean_linker_0, # of connection points: 2
#     Edge 18, Type (0, 1), BuildingBlock: MIFKUJ_clean_linker_0, # of connection points: 2
#     Edge 19, Type (0, 1), BuildingBlock: MIFKUJ_clean_linker_0, # of connection points: 2
#     Edge 20, Type (0, 1), BuildingBlock: MIFKUJ_clean_linker_0, # of connection points: 2
#     Edge 21, Type (0, 1), BuildingBlock: MIFKUJ_clean_linker_0, # of connection points: 2
#     Edge 22, Type (0, 1), BuildingBlock: MIFKUJ_clean_linker_0, # of connection points: 2
#     Edge 23, Type (0, 1), BuildingBlock: MIFKUJ_clean_linker_0, # of connection points: 2
#     Edge 24, Type (0, 1), BuildingBlock: MIFKUJ_clean_linker_0, # of connection points: 2
#     Edge 25, Type (0, 1), BuildingBlock: MIFKUJ_clean_linker_0, # of connection points: 2
#     Edge 26, Type (0, 1), BuildingBlock: MIFKUJ_clean_linker_0, # of connection points: 2
#     Edge 27, Type (0, 1), BuildingBlock: MIFKUJ_clean_linker_0, # of connection points: 2
#     Edge 28, Type (0, 1), BuildingBlock: MIFKUJ_clean_linker_0, # of connection points: 2
#     Edge 29, Type (0, 1), BuildingBlock: MIFKUJ_clean_linker_0, # of connection points: 2
#     Edge 30, Type (0, 1), BuildingBlock: MIFKUJ_clean_linker_0, # of connection points: 2
#     Edge 31, Type (0, 1), BuildingBlock: MIFKUJ_clean_linker_0, # of connection points: 2
#     Edge 32, Type (0, 1), BuildingBlock: MIFKUJ_clean_linker_0, # of connection points: 2
#     Edge 33, Type (0, 1), BuildingBlock: MIFKUJ_clean_linker_0, # of connection points: 2
#     Edge 34, Type (0, 1), BuildingBlock: MIFKUJ_clean_linker_0, # of connection points: 2
#     Edge 35, Type (0, 1), BuildingBlock: MIFKUJ_clean_linker_0, # of connection points: 2
#     Edge 36, Type (0, 1), BuildingBlock: MIFKUJ_clean_linker_0, # of connection points: 2
#     Edge 37, Type (0, 1), BuildingBlock: MIFKUJ_clean_linker_0, # of connection points: 2
#     Edge 38, Type (0, 1), BuildingBlock: MIFKUJ_clean_linker_0, # of connection points: 2
#     Edge 39, Type (0, 1), BuildingBlock: MIFKUJ_clean_linker_0, # of connection points: 2
#     Edge 40, Type (0, 1), BuildingBlock: MIFKUJ_clean_linker_0, # of connection points: 2
#     Edge 41, Type (0, 1), BuildingBlock: MIFKUJ_clean_linker_0, # of connection points: 2
#     Edge 42, Type (0, 1), BuildingBlock: MIFKUJ_clean_linker_0, # of connection points: 2
#     Edge 43, Type (0, 1), BuildingBlock: MIFKUJ_clean_linker_0, # of connection points: 2
#     Edge 44, Type (0, 1), BuildingBlock: MIFKUJ_clean_linker_0, # of connection points: 2
#     Edge 45, Type (0, 1), BuildingBlock: MIFKUJ_clean_linker_0, # of connection points: 2
#     Edge 46, Type (0, 1), BuildingBlock: MIFKUJ_clean_linker_0, # of connection points: 2
#     Edge 47, Type (0, 1), BuildingBlock: MIFKUJ_clean_linker_0, # of connection points: 2
# Relax obj value: 0.000
# Max RMSD: 0.051
# Mean RMSD: 0.025
data_MOF--net-ssb--node1-NAWXER_clean_sbu_0--node2-KUFVIS_clean_linker_0--edge1-MIFKUJ_clean_linker_0
_symmetry_space_group_name_H-M    P1
_symmetry_Int_Tables_number       1
_symmetry_cell_setting            triclinic
loop_
_symmetry_equiv_pos_as_xyz
'x, y, z'
_cell_length_a     59.283438
_cell_length_b     59.283334
_cell_length_c     50.789109
_cell_angle_alpha  89.539274
_cell_angle_beta   90.008811
_cell_angle_gamma 89.923966
loop_
_atom_site_label
_atom_site_type_symbol
_atom_site_fract_x
_atom_site_fract_y
_atom_site_fract_z
_atom_type_partial_charge
H0 H 0.23217 0.23698 0.35735 0.0
H1 H 0.27424 0.23207 0.28922 0.0
H2 H 0.23414 0.29209 0.3023 0.0
H3 H 0.23201 0.29254 0.25883 0.0
H4 H 0.28056 0.29634 0.19687 0.0
H5 H 0.29513 0.25575 0.26504 0.0
C6 C 0.23879 0.24456 0.33946 0.0
C7 C 0.23108 0.26588 0.33138 0.0
C8 C 0.2547 0.2326 0.32469 0.0
C9 C 0.26275 0.24199 0.30097 0.0
C10 C 0.25516 0.2634 0.29202 0.0
C11 C 0.23961 0.27532 0.30791 0.0
C12 C 0.26264 0.27293 0.26581 0.0
C13 C 0.24844 0.28783 0.2514 0.0
C14 C 0.25492 0.29625 0.22664 0.0
C15 C 0.2755 0.28952 0.21585 0.0
C16 C 0.28987 0.27463 0.22929 0.0
C17 C 0.28364 0.26679 0.25452 0.0
H18 H 0.73019 0.28175 0.17861 0.0
H19 H 0.7873 0.27307 0.22942 0.0
H20 H 0.72571 0.23541 0.24296 0.0
H21 H 0.7463 0.21206 0.26455 0.0
H22 H 0.79431 0.21359 0.32726 0.0
H23 H 0.79395 0.26744 0.27091 0.0
C24 C 0.73807 0.2737 0.19548 0.0
C25 C 0.72611 0.2571 0.20936 0.0
C26 C 0.76003 0.27987 0.20285 0.0
C27 C 0.77001 0.269 0.22477 0.0
C28 C 0.75805 0.2527 0.23992 0.0
C29 C 0.73589 0.24716 0.2318 0.0
C30 C 0.76844 0.24155 0.26401 0.0
C31 C 0.7598 0.22091 0.2743 0.0
C32 C 0.7689 0.21093 0.29718 0.0
C33 C 0.78719 0.22117 0.30959 0.0
C34 C 0.79639 0.24118 0.29974 0.0
C35 C 0.78695 0.25149 0.27731 0.0
H36 H 0.78829 0.77185 0.35405 0.0
H37 H 0.78406 0.7226 0.29345 0.0
H38 H 0.73472 0.77673 0.29791 0.0
H39 H 0.72641 0.76842 0.2577 0.0
H40 H 0.71167 0.71093 0.21064 0.0
H41 H 0.75824 0.70366 0.27421 0.0
C42 C 0.77963 0.76521 0.33696 0.0
C43 C 0.76108 0.77674 0.32651 0.0
C44 C 0.78756 0.74557 0.32517 0.0
C45 C 0.7768 0.73728 0.30264 0.0
C46 C 0.75712 0.74783 0.29239 0.0
C47 C 0.74963 0.76792 0.30466 0.0
C48 C 0.74442 0.73769 0.26948 0.0
C49 C 0.72905 0.75068 0.2541 0.0
C50 C 0.71706 0.74084 0.23327 0.0
C51 C 0.72061 0.71825 0.22716 0.0
C52 C 0.73571 0.70507 0.24164 0.0
C53 C 0.74734 0.71463 0.26287 0.0
H54 H 0.20511 0.79674 0.31219 0.0
H55 H 0.25877 0.80732 0.25748 0.0
H56 H 0.22752 0.74131 0.26596 0.0
H57 H 0.24131 0.7346 0.22734 0.0
H58 H 0.30263 0.74208 0.18337 0.0
H59 H 0.28754 0.78959 0.2431 0.0
C60 C 0.21605 0.79039 0.29681 0.0
C61 C 0.21401 0.76797 0.28918 0.0
C62 C 0.23259 0.80433 0.28595 0.0
C63 C 0.24686 0.79577 0.26634 0.0
C64 C 0.24556 0.77289 0.25835 0.0
C65 C 0.2289 0.75904 0.27043 0.0
C66 C 0.26167 0.7637 0.23793 0.0
C67 C 0.25676 0.74373 0.22373 0.0
C68 C 0.27185 0.73522 0.20471 0.0
C69 C 0.29139 0.74755 0.1989 0.0
C70 C 0.29669 0.76714 0.21252 0.0
C71 C 0.28227 0.7749 0.23228 0.0
H72 H 0.28254 0.71353 0.83814 0.0
H73 H 0.2335 0.72113 0.77737 0.0
H74 H 0.29582 0.75933 0.7743 0.0
H75 H 0.27677 0.7825 0.74877 0.0
H76 H 0.23219 0.78101 0.68251 0.0
H77 H 0.23355 0.72469 0.73536 0.0
C78 C 0.27714 0.72172 0.82003 0.0
C79 C 0.29098 0.73805 0.8082 0.0
C80 C 0.25672 0.71532 0.80862 0.0
C81 C 0.24996 0.72549 0.78489 0.0
C82 C 0.26385 0.74143 0.77166 0.0
C83 C 0.28461 0.74736 0.78367 0.0
C84 C 0.25627 0.75203 0.74596 0.0
C85 C 0.26447 0.77335 0.73735 0.0
C86 C 0.25601 0.78368 0.71432 0.0
C87 C 0.23891 0.77297 0.7001 0.0
C88 C 0.23045 0.752 0.70805 0.0
C89 C 0.23979 0.74126 0.73023 0.0
H90 H 0.29028 0.27518 0.84673 0.0
H91 H 0.27238 0.22049 0.79635 0.0
H92 H 0.24785 0.28808 0.77997 0.0
H93 H 0.21915 0.2683 0.76078 0.0
H94 H 0.2205 0.22355 0.69482 0.0
H95 H 0.27298 0.21923 0.75222 0.0
C96 C 0.28127 0.26899 0.82965 0.0
C97 C 0.26856 0.28407 0.81438 0.0
C98 C 0.28279 0.24615 0.82318 0.0
C99 C 0.27135 0.23827 0.80087 0.0
C100 C 0.25851 0.25314 0.78481 0.0
C101 C 0.2571 0.27612 0.79206 0.0
C102 C 0.24749 0.24485 0.76005 0.0
C103 C 0.22741 0.25487 0.75014 0.0
C104 C 0.218 0.24765 0.72617 0.0
C105 C 0.22817 0.22983 0.71273 0.0
C106 C 0.2477 0.21948 0.72223 0.0
C107 C 0.25741 0.22702 0.7457 0.0
H108 H 0.71881 0.29108 0.83553 0.0
H109 H 0.77159 0.29094 0.7784 0.0
H110 H 0.71573 0.24405 0.77186 0.0
H111 H 0.74326 0.2224 0.75336 0.0
H112 H 0.78829 0.23044 0.68809 0.0
H113 H 0.77154 0.28801 0.73463 0.0
C114 C 0.72622 0.28387 0.81795 0.0
C115 C 0.71535 0.26602 0.80536 0.0
C116 C 0.74619 0.29298 0.80808 0.0
C117 C 0.75564 0.28414 0.78509 0.0
C118 C 0.74502 0.26627 0.77153 0.0
C119 C 0.7245 0.25752 0.78182 0.0
C120 C 0.75591 0.25654 0.74738 0.0
C121 C 0.75344 0.23343 0.74113 0.0
C122 C 0.76506 0.2241 0.71967 0.0
C123 C 0.77907 0.23786 0.70432 0.0
C124 C 0.78159 0.26084 0.70966 0.0
C125 C 0.76985 0.27012 0.73103 0.0
H126 H 0.74145 0.7413 0.85436 0.0
H127 H 0.7829 0.73275 0.78588 0.0
H128 H 0.73642 0.78911 0.79168 0.0
H129 H 0.73657 0.78928 0.74966 0.0
H130 H 0.78567 0.79367 0.68845 0.0
H131 H 0.8003 0.75351 0.75663 0.0
C132 C 0.74732 0.74724 0.8353 0.0
C133 C 0.73701 0.7661 0.82392 0.0
C134 C 0.76424 0.73537 0.82193 0.0
C135 C 0.77049 0.74256 0.79636 0.0
C136 C 0.76074 0.76212 0.78461 0.0
C137 C 0.74408 0.7738 0.79914 0.0
C138 C 0.76758 0.77039 0.75746 0.0
C139 C 0.75315 0.78481 0.74259 0.0
C140 C 0.75966 0.79344 0.71791 0.0
C141 C 0.78033 0.78675 0.70727 0.0
C142 C 0.79462 0.7718 0.7207 0.0
C143 C 0.78856 0.76422 0.74609 0.0
C144 C 0.96943 0.30607 0.54639 0.0
C145 C 0.03685 0.30454 0.49031 0.0
O146 O 0.98023 0.32317 0.53788 0.0
Zn147 Zn 1.0029 0.30633 0.51817 0.0
O148 O 0.97633 0.28616 0.54088 0.0
Zn149 Zn 1.00318 0.27022 0.51974 0.0
O150 O 0.01977 0.25464 0.54746 0.0
O151 O 0.02239 0.29171 0.54967 0.0
O152 O 0.0301 0.28495 0.49762 0.0
O153 O 0.02573 0.32194 0.497 0.0
O154 O 0.9828 0.29006 0.4887 0.0
O155 O 0.98653 0.25324 0.49352 0.0
C156 C 0.02749 0.2721 0.55875 0.0
C157 C 0.97789 0.27 0.48136 0.0
C158 C 0.75012 0.03344 0.55239 0.0
C159 C 0.74934 0.97455 0.48509 0.0
O160 O 0.76703 0.0231 0.54286 0.0
Zn161 Zn 0.75072 1.00434 0.5179 0.0
O162 O 0.73033 0.0289 0.54381 0.0
Zn163 Zn 0.71469 0.00715 0.51595 0.0
O164 O 0.69579 0.98851 0.53897 0.0
O165 O 0.73233 0.98153 0.54292 0.0
O166 O 0.72962 0.98176 0.49117 0.0
O167 O 0.76675 0.98339 0.49542 0.0
O168 O 0.73862 0.02789 0.48935 0.0
O169 O 0.70149 0.02844 0.49047 0.0
C170 C 0.71185 0.97722 0.54927 0.0
C171 C 0.71987 0.03561 0.48055 0.0
C172 C 0.98214 0.74208 0.54691 0.0
C173 C 0.03888 0.73969 0.47646 0.0
O174 O 0.98998 0.75877 0.53395 0.0
Zn175 Zn 0.01014 0.74174 0.51113 0.0
O176 O 0.98865 0.72208 0.54123 0.0
Zn177 Zn 0.01068 0.70571 0.51392 0.0
O178 O 0.03192 0.69059 0.53734 0.0
O179 O 0.03403 0.72776 0.53852 0.0
O180 O 0.03309 0.72013 0.48509 0.0
O181 O 0.0297 0.75718 0.48613 0.0
O182 O 0.98719 0.72498 0.4855 0.0
O183 O 0.98958 0.68829 0.49281 0.0
C184 C 0.04079 0.70836 0.54667 0.0
C185 C 0.98081 0.70485 0.48043 0.0
C186 C 0.25901 0.03293 0.54792 0.0
C187 C 0.25557 0.97621 0.47859 0.0
O188 O 0.27843 0.02597 0.5404 0.0
Zn189 Zn 0.29261 1.0033 0.51228 0.0
O190 O 0.24126 0.02526 0.53711 0.0
Zn191 Zn 0.25631 0.00468 0.51332 0.0
O192 O 0.27138 0.98095 0.53992 0.0
O193 O 0.30838 0.98167 0.53529 0.0
O194 O 0.23896 0.98567 0.48992 0.0
O195 O 0.27574 0.98143 0.48533 0.0
O196 O 0.3087 0.02434 0.4886 0.0
O197 O 0.27171 0.02761 0.48652 0.0
C198 C 0.29094 0.97368 0.54665 0.0
C199 C 0.2913 0.0338 0.47873 0.0
C200 C 0.48346 0.79691 0.04596 0.0
C201 C 0.54174 0.80181 0.97767 0.0
O202 O 0.49199 0.81475 0.03612 0.0
Zn203 Zn 0.51263 0.80017 1.01158 0.0
O204 O 0.49012 0.77766 0.03768 0.0
Zn205 Zn 0.51334 0.76426 1.00974 0.0
O206 O 0.53379 0.74724 0.03223 0.0
O207 O 0.53677 0.78414 0.0371 0.0
O208 O 0.53591 0.7815 0.98324 0.0
O209 O 0.5326 0.8182 0.98968 0.0
O210 O 0.49007 0.78549 0.98319 0.0
O211 O 0.49355 0.74848 0.98581 0.0
C212 C 0.54309 0.76408 0.04309 0.0
C213 C 0.48435 0.76576 0.97539 0.0
C214 C 0.24932 0.53562 0.04719 0.0
C215 C 0.25084 0.47509 0.9819 0.0
O216 O 0.26663 0.52616 0.03738 0.0
Zn217 Zn 0.25078 0.50515 1.01505 0.0
O218 O 0.22958 0.52905 0.04024 0.0
Zn219 Zn 0.21471 0.50465 1.01415 0.0
O220 O 0.19843 0.48476 0.0384 0.0
O221 O 0.23537 0.48313 0.04326 0.0
O222 O 0.2308 0.48109 0.98833 0.0
O223 O 0.26761 0.48464 0.99272 0.0
O224 O 0.23554 0.52764 0.9872 0.0
O225 O 0.19855 0.52414 0.98922 0.0
C226 C 0.2156 0.47677 0.0503 0.0
C227 C 0.21588 0.53349 0.97916 0.0
C228 C 0.52603 0.24683 0.97672 0.0
C229 C 0.47544 0.24829 0.05354 0.0
O230 O 0.51758 0.26422 0.98746 0.0
Zn231 Zn 0.50049 0.2487 0.01513 0.0
O232 O 0.5215 0.22727 0.9862 0.0
Zn233 Zn 0.50242 0.2125 0.01747 0.0
O234 O 0.48048 0.19444 0.99802 0.0
O235 O 0.47482 0.23116 0.99416 0.0
O236 O 0.48175 0.22843 0.04685 0.0
O237 O 0.48226 0.26531 0.04031 0.0
O238 O 0.52648 0.23569 0.04001 0.0
O239 O 0.5259 0.19852 0.03932 0.0
C240 C 0.46891 0.21089 0.98904 0.0
C241 C 0.53455 0.21672 0.04779 0.0
C242 C 0.76249 0.53195 0.05367 0.0
C243 C 0.7643 0.48042 0.97901 0.0
O244 O 0.78248 0.52784 0.04535 0.0
Zn245 Zn 0.79869 0.50785 0.01607 0.0
O246 O 0.74575 0.52239 0.0428 0.0
Zn247 Zn 0.76257 0.50586 0.01642 0.0
O248 O 0.77919 0.48032 0.03904 0.0
O249 O 0.81591 0.48607 0.0376 0.0
O250 O 0.74685 0.48751 0.99097 0.0
O251 O 0.78393 0.48679 0.98652 0.0
O252 O 0.81348 0.53085 0.99419 0.0
O253 O 0.77634 0.53225 0.99213 0.0
C254 C 0.7992 0.47449 0.04572 0.0
C255 C 0.79562 0.54005 0.98516 0.0
H256 H 0.22757 0.26856 0.38508 0.0
H257 H 0.19492 0.28079 0.41056 0.0
H258 H 0.16153 0.30213 0.33922 0.0
H259 H 0.19388 0.2891 0.31329 0.0
H260 H 0.157 0.33184 0.39015 0.0
H261 H 0.14617 0.25642 0.35456 0.0
H262 H 0.15932 0.2177 0.34585 0.0
H263 H 0.16756 0.20586 0.42882 0.0
H264 H 0.15484 0.24468 0.43797 0.0
H265 H 0.0456 0.33125 0.44709 0.0
H266 H 0.07909 0.32972 0.41867 0.0
H267 H 0.10919 0.28064 0.47133 0.0
H268 H 0.0753 0.28116 0.49851 0.0
H269 H 0.11471 0.2663 0.42604 0.0
H270 H 0.12687 0.33928 0.46385 0.0
H271 H 0.11742 0.37845 0.47562 0.0
H272 H 0.10997 0.39565 0.39379 0.0
H273 H 0.1191 0.35649 0.38154 0.0
C274 C 0.21339 0.27601 0.37474 0.0
C275 C 0.21321 0.27742 0.34705 0.0
C276 C 0.19483 0.28319 0.38939 0.0
C277 C 0.17579 0.29221 0.37675 0.0
C278 C 0.17614 0.29529 0.34933 0.0
C279 C 0.19467 0.28786 0.33455 0.0
C280 C 0.15472 0.29567 0.39196 0.0
C281 C 0.14747 0.3176 0.39775 0.0
C282 C 0.14274 0.27704 0.40236 0.0
C283 C 0.14975 0.2535 0.39692 0.0
C284 C 0.15094 0.24561 0.37092 0.0
C285 C 0.1583 0.22364 0.36591 0.0
C286 C 0.16433 0.20935 0.38677 0.0
C287 C 0.16291 0.21696 0.41269 0.0
C288 C 0.15561 0.23893 0.41779 0.0
C289 C 0.05955 0.3204 0.45264 0.0
C290 C 0.0579 0.30626 0.47487 0.0
C291 C 0.07874 0.31956 0.43647 0.0
C292 C 0.0969 0.30511 0.44278 0.0
C293 C 0.09545 0.29176 0.46572 0.0
C294 C 0.07611 0.29213 0.48136 0.0
C295 C 0.11685 0.30267 0.425 0.0
C296 C 0.12397 0.28075 0.41853 0.0
C297 C 0.1289 0.32136 0.4145 0.0
C298 C 0.12342 0.3449 0.4218 0.0
C299 C 0.12304 0.35138 0.44838 0.0
C300 C 0.11778 0.37358 0.45514 0.0
C301 C 0.11303 0.38951 0.43547 0.0
C302 C 0.11361 0.38328 0.409 0.0
C303 C 0.11885 0.36109 0.40214 0.0
H304 H 0.10895 0.40669 0.44074 0.0
H305 H 0.17005 0.19236 0.38285 0.0
H306 H 0.72498 0.20288 0.31083 0.0
H307 H 0.7106 0.17136 0.3377 0.0
H308 H 0.77683 0.14116 0.33811 0.0
H309 H 0.79119 0.17253 0.31142 0.0
H310 H 0.74304 0.1093 0.33308 0.0
H311 H 0.7619 0.17224 0.38825 0.0
H312 H 0.75991 0.2118 0.40265 0.0
H313 H 0.68879 0.2049 0.41655 0.0
H314 H 0.69031 0.16532 0.40185 0.0
H315 H 0.75563 0.04678 0.44967 0.0
H316 H 0.75748 0.07479 0.4145 0.0
H317 H 0.68735 0.09112 0.42645 0.0
H318 H 0.68527 0.06273 0.46205 0.0
H319 H 0.71617 0.12942 0.42244 0.0
H320 H 0.70044 0.06275 0.3735 0.0
H321 H 0.70527 0.02303 0.36064 0.0
H322 H 0.77328 0.0367 0.33632 0.0
H323 H 0.76899 0.07645 0.3494 0.0
C324 C 0.73628 0.1892 0.31613 0.0
C325 C 0.7592 0.19014 0.30912 0.0
C326 C 0.72811 0.17131 0.33162 0.0
C327 C 0.7427 0.15401 0.34014 0.0
C328 C 0.76526 0.15429 0.33178 0.0
C329 C 0.77346 0.17224 0.31659 0.0
C330 C 0.73512 0.1365 0.35932 0.0
C331 C 0.73714 0.11368 0.3526 0.0
C332 C 0.7271 0.14221 0.38469 0.0
C333 C 0.72615 0.16594 0.39363 0.0
C334 C 0.7458 0.17922 0.39415 0.0
C335 C 0.74477 0.20163 0.40241 0.0
C336 C 0.72422 0.21088 0.41043 0.0
C337 C 0.70468 0.19772 0.41028 0.0
C338 C 0.70561 0.1753 0.40199 0.0
C339 C 0.7405 0.05622 0.44488 0.0
C340 C 0.72027 0.05247 0.45874 0.0
C341 C 0.74159 0.07219 0.42461 0.0
C342 C 0.72252 0.08491 0.41763 0.0
C343 C 0.70225 0.0814 0.43145 0.0
C344 C 0.70107 0.06515 0.45171 0.0
C345 C 0.72433 0.10217 0.39631 0.0
C346 C 0.72144 0.12499 0.40269 0.0
C347 C 0.73182 0.09644 0.37073 0.0
C348 C 0.73442 0.07258 0.36257 0.0
C349 C 0.71648 0.05727 0.36557 0.0
C350 C 0.71911 0.03474 0.35822 0.0
C351 C 0.73958 0.02734 0.3477 0.0
C352 C 0.75744 0.04246 0.34446 0.0
C353 C 0.7549 0.065 0.35181 0.0
H354 H 0.74158 0.00989 0.34204 0.0
H355 H 0.72345 0.22824 0.41683 0.0
H356 H 0.83147 0.74873 0.31025 0.0
H357 H 0.86447 0.7344 0.33428 0.0
H358 H 0.82048 0.70242 0.3911 0.0
H359 H 0.78758 0.71745 0.36742 0.0
H360 H 0.85075 0.72464 0.41589 0.0
H361 H 0.85376 0.67157 0.34656 0.0
H362 H 0.85392 0.65791 0.30085 0.0
H363 H 0.91501 0.69453 0.28543 0.0
H364 H 0.91505 0.70869 0.33096 0.0
H365 H 0.94567 0.67497 0.48223 0.0
H366 H 0.91257 0.67458 0.45295 0.0
H367 H 0.94251 0.72702 0.4052 0.0
H368 H 0.97509 0.72802 0.43479 0.0
H369 H 0.91847 0.68881 0.37677 0.0
H370 H 0.91049 0.74584 0.44516 0.0
H371 H 0.91033 0.7579 0.49153 0.0
H372 H 0.85747 0.7106 0.50887 0.0
H373 H 0.85762 0.69799 0.46264 0.0
C374 C 0.82898 0.7382 0.32753 0.0
C375 C 0.80716 0.73391 0.33694 0.0
C376 C 0.84778 0.72995 0.34124 0.0
C377 C 0.84504 0.71708 0.36444 0.0
C378 C 0.82309 0.71225 0.37329 0.0
C379 C 0.80432 0.72068 0.35971 0.0
C380 C 0.86498 0.71038 0.38061 0.0
C381 C 0.8653 0.71634 0.40735 0.0
C382 C 0.88422 0.6998 0.36958 0.0
C383 C 0.8843 0.69134 0.34215 0.0
C384 C 0.86713 0.67686 0.33337 0.0
C385 C 0.86721 0.669 0.3075 0.0
C386 C 0.88444 0.67539 0.29023 0.0
C387 C 0.90166 0.68961 0.29883 0.0
C388 C 0.90166 0.69754 0.32468 0.0
C389 C 0.94534 0.68602 0.46515 0.0
C390 C 0.96282 0.70158 0.46076 0.0
C391 C 0.92648 0.68582 0.4485 0.0
C392 C 0.92516 0.70078 0.42695 0.0
C393 C 0.94328 0.71528 0.42163 0.0
C394 C 0.9618 0.7159 0.4386 0.0
C395 C 0.90403 0.70325 0.41163 0.0
C396 C 0.90362 0.69667 0.38518 0.0
C397 C 0.88458 0.713 0.4229 0.0
C398 C 0.88428 0.72076 0.45057 0.0
C399 C 0.89899 0.73786 0.45893 0.0
C400 C 0.89888 0.74482 0.48516 0.0
C401 C 0.88396 0.73497 0.50316 0.0
C402 C 0.86906 0.71818 0.49492 0.0
C403 C 0.86915 0.71112 0.46871 0.0
H404 H 0.8839 0.74038 0.52346 0.0
H405 H 0.88447 0.66928 0.27021 0.0
H406 H 0.20066 0.83633 0.29646 0.0
H407 H 0.20484 0.86868 0.3256 0.0
H408 H 0.27623 0.85543 0.33167 0.0
H409 H 0.27204 0.82276 0.30288 0.0
H410 H 0.2557 0.85667 0.37942 0.0
H411 H 0.25712 0.90305 0.30162 0.0
H412 H 0.24334 0.91747 0.25888 0.0
H413 H 0.18193 0.9396 0.29537 0.0
H414 H 0.19521 0.92502 0.33828 0.0
H415 H 0.28743 0.94972 0.45571 0.0
H416 H 0.28255 0.92272 0.42032 0.0
H417 H 0.21132 0.93744 0.41785 0.0
H418 H 0.21607 0.9648 0.4535 0.0
H419 H 0.23059 0.93601 0.368 0.0
H420 H 0.22707 0.88821 0.44412 0.0
H421 H 0.23877 0.87228 0.48695 0.0
H422 H 0.30229 0.85226 0.45387 0.0
H423 H 0.2909 0.868 0.41072 0.0
C424 C 0.21735 0.8407 0.30345 0.0
C425 C 0.23602 0.82698 0.29752 0.0
C426 C 0.21973 0.85923 0.32004 0.0
C427 C 0.24084 0.86444 0.33086 0.0
C428 C 0.25978 0.85167 0.32353 0.0
C429 C 0.25741 0.83316 0.30688 0.0
C430 C 0.24267 0.88141 0.35207 0.0
C431 C 0.25062 0.87413 0.37674 0.0
C432 C 0.23509 0.90392 0.34891 0.0
C433 C 0.22708 0.91274 0.32313 0.0
C434 C 0.24059 0.91081 0.3005 0.0
C435 C 0.23289 0.91905 0.27625 0.0
C436 C 0.21175 0.9294 0.2744 0.0
C437 C 0.19829 0.93157 0.29682 0.0
C438 C 0.20591 0.92334 0.32112 0.0
C439 C 0.27067 0.94725 0.44776 0.0
C440 C 0.25211 0.95942 0.45751 0.0
C441 C 0.26792 0.93172 0.42754 0.0
C442 C 0.24656 0.92794 0.41659 0.0
C443 C 0.22796 0.94011 0.42608 0.0
C444 C 0.23068 0.95564 0.44651 0.0
C445 C 0.24396 0.91129 0.39513 0.0
C446 C 0.23577 0.91857 0.37055 0.0
C447 C 0.25113 0.88867 0.39834 0.0
C448 C 0.25822 0.87948 0.42429 0.0
C449 C 0.24361 0.88058 0.44604 0.0
C450 C 0.25016 0.87153 0.47035 0.0
C451 C 0.27132 0.86139 0.4732 0.0
C452 C 0.28592 0.86017 0.45166 0.0
C453 C 0.2794 0.86908 0.42724 0.0
H454 H 0.27636 0.85441 0.49206 0.0
H455 H 0.20582 0.93577 0.2556 0.0
H456 H 0.19194 0.77365 0.69366 0.0
H457 H 0.15961 0.75856 0.67001 0.0
H458 H 0.19154 0.6932 0.66738 0.0
H459 H 0.22439 0.70842 0.69096 0.0
H460 H 0.17324 0.70648 0.61908 0.0
H461 H 0.1483 0.69963 0.70758 0.0
H462 H 0.14163 0.71169 0.75327 0.0
H463 H 0.09751 0.76428 0.72568 0.0
H464 H 0.10417 0.75278 0.67979 0.0
H465 H 0.06783 0.6722 0.56007 0.0
H466 H 0.09968 0.67206 0.59113 0.0
H467 H 0.08661 0.74187 0.60897 0.0
H468 H 0.0551 0.74217 0.57824 0.0
H469 H 0.09558 0.71679 0.65344 0.0
H470 H 0.12674 0.72827 0.56576 0.0
H471 H 0.13392 0.71753 0.5197 0.0
H472 H 0.16647 0.65664 0.54602 0.0
H473 H 0.1592 0.66691 0.59226 0.0
C474 C 0.19217 0.75607 0.68797 0.0
C475 C 0.21077 0.74225 0.69404 0.0
C476 C 0.17358 0.74742 0.67466 0.0
C477 C 0.17304 0.72469 0.66719 0.0
C478 C 0.19158 0.71076 0.6731 0.0
C479 C 0.21025 0.71943 0.68665 0.0
C480 C 0.1532 0.71605 0.65256 0.0
C481 C 0.15627 0.70815 0.62683 0.0
C482 C 0.13105 0.71847 0.66258 0.0
C483 C 0.12683 0.72539 0.69019 0.0
C484 C 0.13728 0.71386 0.71123 0.0
C485 C 0.13349 0.72059 0.73718 0.0
C486 C 0.11917 0.73875 0.74237 0.0
C487 C 0.10859 0.75021 0.72163 0.0
C488 C 0.11234 0.74357 0.69564 0.0
C489 C 0.07165 0.68742 0.57084 0.0
C490 C 0.05904 0.70723 0.56657 0.0
C491 C 0.08987 0.68734 0.58849 0.0
C492 C 0.09557 0.707 0.60226 0.0
C493 C 0.0825 0.7265 0.59861 0.0
C494 C 0.06454 0.72666 0.5809 0.0
C495 C 0.11563 0.70798 0.61971 0.0
C496 C 0.11257 0.71449 0.64597 0.0
C497 C 0.13776 0.70434 0.61017 0.0
C498 C 0.14216 0.6982 0.58242 0.0
C499 C 0.13525 0.7125 0.56171 0.0
C500 C 0.13937 0.70652 0.53557 0.0
C501 C 0.15057 0.68637 0.52993 0.0
C502 C 0.15774 0.67221 0.55042 0.0
C503 C 0.15363 0.6781 0.57659 0.0
H504 H 0.15375 0.68177 0.50969 0.0
H505 H 0.11626 0.74393 0.76247 0.0
H506 H 0.26126 0.21931 0.67124 0.0
H507 H 0.26685 0.18615 0.64361 0.0
H508 H 0.25918 0.14294 0.71178 0.0
H509 H 0.25354 0.17625 0.73952 0.0
H510 H 0.29421 0.14936 0.64055 0.0
H511 H 0.22245 0.10095 0.69371 0.0
H512 H 0.18885 0.10944 0.72063 0.0
H513 H 0.18354 0.17474 0.68385 0.0
H514 H 0.2168 0.16649 0.65654 0.0
H515 H 0.29036 0.04135 0.58546 0.0
H516 H 0.29062 0.07181 0.61741 0.0
H517 H 0.22596 0.09474 0.58866 0.0
H518 H 0.22525 0.06358 0.55713 0.0
H519 H 0.2273 0.09908 0.63981 0.0
H520 H 0.27625 0.11983 0.56884 0.0
H521 H 0.30761 0.11507 0.53741 0.0
H522 H 0.35474 0.11122 0.60145 0.0
H523 H 0.32366 0.11561 0.63331 0.0
C524 C 0.26151 0.20274 0.68041 0.0
C525 C 0.25696 0.20022 0.70741 0.0
C526 C 0.26468 0.18383 0.66464 0.0
C527 C 0.26308 0.1621 0.67559 0.0
C528 C 0.26026 0.1596 0.70294 0.0
C529 C 0.25725 0.17857 0.71879 0.0
C530 C 0.26187 0.14232 0.65796 0.0
C531 C 0.27972 0.13821 0.64054 0.0
C532 C 0.24256 0.12831 0.65729 0.0
C533 C 0.22227 0.1332 0.67335 0.0
C534 C 0.21404 0.11708 0.69134 0.0
C535 C 0.19505 0.12185 0.70667 0.0
C536 C 0.1841 0.14265 0.70405 0.0
C537 C 0.19205 0.15867 0.686 0.0
C538 C 0.21098 0.15396 0.6706 0.0
C539 C 0.27609 0.05277 0.58607 0.0
C540 C 0.25786 0.05023 0.56865 0.0
C541 C 0.27631 0.07024 0.60428 0.0
C542 C 0.25857 0.0859 0.60504 0.0
C543 C 0.23989 0.08291 0.58835 0.0
C544 C 0.23949 0.06513 0.57035 0.0
C545 C 0.25991 0.10572 0.6227 0.0
C546 C 0.24199 0.10997 0.64003 0.0
C547 C 0.27886 0.12032 0.62263 0.0
C548 C 0.2976 0.11784 0.60348 0.0
C549 C 0.29328 0.11782 0.57624 0.0
C550 C 0.311 0.1152 0.55834 0.0
C551 C 0.33312 0.1128 0.56744 0.0
C552 C 0.33759 0.11306 0.59444 0.0
C553 C 0.31994 0.11562 0.61243 0.0
H554 H 0.34681 0.11077 0.55355 0.0
H555 H 0.16943 0.14631 0.71596 0.0
H556 H 0.81405 0.29069 0.72612 0.0
H557 H 0.84518 0.30621 0.69959 0.0
H558 H 0.81694 0.27594 0.63015 0.0
H559 H 0.7856 0.26106 0.65616 0.0
H560 H 0.86392 0.26212 0.64857 0.0
H561 H 0.81558 0.32668 0.62847 0.0
H562 H 0.79284 0.3598 0.64083 0.0
H563 H 0.85075 0.38958 0.67752 0.0
H564 H 0.87375 0.35644 0.66571 0.0
H565 H 0.93137 0.28178 0.54122 0.0
H566 H 0.89858 0.28124 0.57014 0.0
H567 H 0.92815 0.33384 0.61714 0.0
H568 H 0.96075 0.33522 0.58704 0.0
H569 H 0.88349 0.33887 0.61632 0.0
H570 H 0.93276 0.27794 0.63581 0.0
H571 H 0.95717 0.24517 0.62691 0.0
H572 H 0.90026 0.2085 0.59733 0.0
H573 H 0.87556 0.24118 0.60567 0.0
C574 C 0.81407 0.28803 0.70505 0.0
C575 C 0.79755 0.27436 0.69329 0.0
C576 C 0.8319 0.29682 0.68996 0.0
C577 C 0.83339 0.29204 0.66299 0.0
C578 C 0.81611 0.27973 0.65096 0.0
C579 C 0.79827 0.27117 0.66589 0.0
C580 C 0.85415 0.29706 0.64781 0.0
C581 C 0.86813 0.27887 0.64134 0.0
C582 C 0.86014 0.31906 0.6395 0.0
C583 C 0.8463 0.33896 0.64651 0.0
C584 C 0.8234 0.34017 0.63944 0.0
C585 C 0.81048 0.35898 0.64628 0.0
C586 C 0.82032 0.37675 0.66004 0.0
C587 C 0.84313 0.37578 0.66691 0.0
C588 C 0.85612 0.357 0.66013 0.0
C589 C 0.93072 0.29349 0.55748 0.0
C590 C 0.94863 0.30838 0.56211 0.0
C591 C 0.91203 0.2931 0.57411 0.0
C592 C 0.91118 0.30698 0.59637 0.0
C593 C 0.9285 0.32282 0.60025 0.0
C594 C 0.94709 0.32362 0.58309 0.0
C595 C 0.89283 0.3037 0.61609 0.0
C596 C 0.87943 0.32214 0.62367 0.0
C597 C 0.88758 0.28191 0.62605 0.0
C598 C 0.90233 0.26209 0.62122 0.0
C599 C 0.92547 0.26294 0.62727 0.0
C600 C 0.93936 0.24437 0.62233 0.0
C601 C 0.93028 0.22478 0.61152 0.0
C602 C 0.90727 0.22369 0.60569 0.0
C603 C 0.89331 0.24222 0.61055 0.0
H604 H 0.94106 0.21043 0.6077 0.0
H605 H 0.81029 0.3913 0.66531 0.0
H606 H 0.7384 0.83116 0.73702 0.0
H607 H 0.72246 0.86252 0.71105 0.0
H608 H 0.73451 0.82551 0.63971 0.0
H609 H 0.74982 0.79405 0.66539 0.0
H610 H 0.75661 0.86899 0.64395 0.0
H611 H 0.68313 0.8339 0.65578 0.0
H612 H 0.65206 0.81903 0.6831 0.0
H613 H 0.64374 0.88392 0.7188 0.0
H614 H 0.67497 0.89911 0.6919 0.0
H615 H 0.72199 0.93395 0.5397 0.0
H616 H 0.72251 0.90257 0.57112 0.0
H617 H 0.69487 0.94586 0.63096 0.0
H618 H 0.69343 0.97725 0.59881 0.0
H619 H 0.67997 0.9024 0.63778 0.0
H620 H 0.75068 0.93869 0.62779 0.0
H621 H 0.78298 0.95545 0.60419 0.0
H622 H 0.79873 0.89108 0.57062 0.0
H623 H 0.76628 0.874 0.59369 0.0
C624 C 0.73695 0.82943 0.71588 0.0
C625 C 0.7457 0.81026 0.70322 0.0
C626 C 0.72793 0.84739 0.70107 0.0
C627 C 0.72753 0.84639 0.67345 0.0
C628 C 0.73482 0.82667 0.66099 0.0
C629 C 0.74362 0.80874 0.6757 0.0
C630 C 0.72222 0.86663 0.65719 0.0
C631 C 0.7398 0.87614 0.64238 0.0
C632 C 0.70055 0.87662 0.65622 0.0
C633 C 0.68155 0.86758 0.67203 0.0
C634 C 0.6748 0.84495 0.6696 0.0
C635 C 0.65713 0.83648 0.68498 0.0
C636 C 0.64598 0.8505 0.70274 0.0
C637 C 0.65241 0.87307 0.70506 0.0
C638 C 0.67007 0.88163 0.68973 0.0
C639 C 0.71539 0.93655 0.55933 0.0
C640 C 0.70761 0.95787 0.56691 0.0
C641 C 0.71582 0.91868 0.57734 0.0
C642 C 0.70925 0.92197 0.60362 0.0
C643 C 0.7001 0.94294 0.61084 0.0
C644 C 0.69925 0.96082 0.59252 0.0
C645 C 0.71422 0.90414 0.62365 0.0
C646 C 0.69678 0.89528 0.63938 0.0
C647 C 0.73622 0.89497 0.62607 0.0
C648 C 0.75593 0.9051 0.61233 0.0
C649 C 0.76094 0.92814 0.61524 0.0
C650 C 0.77928 0.93769 0.60197 0.0
C651 C 0.79287 0.92435 0.58588 0.0
C652 C 0.78817 0.9014 0.58308 0.0
C653 C 0.76982 0.89176 0.59627 0.0
H654 H 0.80707 0.93178 0.57561 0.0
H655 H 0.63233 0.8439 0.71466 0.0
H656 H 0.79899 0.75718 0.67047 0.0
H657 H 0.83353 0.75041 0.64593 0.0
H658 H 0.87282 0.76269 0.71588 0.0
H659 H 0.83793 0.77041 0.74051 0.0
H660 H 0.89069 0.78457 0.67521 0.0
H661 H 0.86749 0.70896 0.69039 0.0
H662 H 0.84139 0.67663 0.69198 0.0
H663 H 0.83201 0.68125 0.60828 0.0
H664 H 0.85781 0.71382 0.60622 0.0
H665 H 0.97121 0.71198 0.5855 0.0
H666 H 0.94286 0.71573 0.61989 0.0
H667 H 0.92632 0.78242 0.59109 0.0
H668 H 0.95539 0.77901 0.557 0.0
H669 H 0.90034 0.71858 0.61686 0.0
H670 H 0.90416 0.8144 0.63993 0.0
H671 H 0.93234 0.84493 0.64171 0.0
H672 H 0.98488 0.79629 0.65534 0.0
H673 H 0.95698 0.7655 0.654 0.0
C674 C 0.81497 0.7583 0.68073 0.0
C675 C 0.81574 0.76446 0.70741 0.0
C676 C 0.83474 0.75425 0.66669 0.0
C677 C 0.85585 0.75584 0.67903 0.0
C678 C 0.85673 0.76134 0.70592 0.0
C679 C 0.83681 0.76552 0.72005 0.0
C680 C 0.8768 0.7527 0.66326 0.0
C681 C 0.8929 0.77006 0.6626 0.0
C682 C 0.87997 0.7336 0.64709 0.0
C683 C 0.8645 0.71393 0.64819 0.0
C684 C 0.85975 0.70318 0.67234 0.0
C685 C 0.84503 0.68479 0.67332 0.0
C686 C 0.83502 0.67691 0.65025 0.0
C687 C 0.83977 0.68737 0.62614 0.0
C688 C 0.85447 0.70578 0.62505 0.0
C689 C 0.96168 0.72755 0.58657 0.0
C690 C 0.96554 0.7452 0.56845 0.0
C691 C 0.94542 0.72966 0.60628 0.0
C692 C 0.93244 0.74939 0.6083 0.0
C693 C 0.93637 0.76717 0.59034 0.0
C694 C 0.95292 0.76518 0.57076 0.0
C695 C 0.91405 0.7507 0.62831 0.0
C696 C 0.89834 0.733 0.62967 0.0
C697 C 0.9116 0.76921 0.64556 0.0
C698 C 0.92849 0.78763 0.64661 0.0
C699 C 0.92171 0.81022 0.64341 0.0
C700 C 0.93764 0.82757 0.64433 0.0
C701 C 0.96039 0.82254 0.64856 0.0
C702 C 0.96726 0.80016 0.65197 0.0
C703 C 0.9514 0.78275 0.65109 0.0
H704 H 0.9727 0.836 0.64925 0.0
H705 H 0.82362 0.66268 0.65106 0.0
H706 H 0.29931 0.79594 0.70169 0.0
H707 H 0.31089 0.82964 0.67651 0.0
H708 H 0.24256 0.85463 0.67925 0.0
H709 H 0.23103 0.82107 0.70396 0.0
H710 H 0.25747 0.85272 0.62988 0.0
H711 H 0.28594 0.88017 0.71267 0.0
H712 H 0.30921 0.87871 0.75289 0.0
H713 H 0.36935 0.87586 0.70592 0.0
H714 H 0.3464 0.877 0.66538 0.0
H715 H 0.25813 0.96139 0.58108 0.0
H716 H 0.2583 0.93037 0.61263 0.0
H717 H 0.32686 0.91434 0.59149 0.0
H718 H 0.32697 0.94597 0.55966 0.0
H719 H 0.31706 0.90936 0.64732 0.0
H720 H 0.28802 0.88508 0.56442 0.0
H721 H 0.26427 0.88868 0.52483 0.0
H722 H 0.20462 0.88536 0.57264 0.0
H723 H 0.22805 0.88243 0.61265 0.0
C724 C 0.28698 0.80899 0.69753 0.0
C725 C 0.26426 0.8059 0.70462 0.0
C726 C 0.29357 0.8282 0.68309 0.0
C727 C 0.27755 0.84463 0.67576 0.0
C728 C 0.25519 0.84213 0.68441 0.0
C729 C 0.24862 0.82301 0.69864 0.0
C730 C 0.28321 0.86329 0.65706 0.0
C731 C 0.2704 0.86517 0.63388 0.0
C732 C 0.30065 0.8791 0.66166 0.0
C733 C 0.31444 0.87839 0.686 0.0
C734 C 0.30412 0.87901 0.71091 0.0
C735 C 0.31725 0.87829 0.73377 0.0
C736 C 0.34074 0.87712 0.73196 0.0
C737 C 0.35115 0.87673 0.70729 0.0
C738 C 0.33809 0.87742 0.68437 0.0
C739 C 0.27339 0.95146 0.58316 0.0
C740 C 0.29245 0.95598 0.56748 0.0
C741 C 0.27345 0.93373 0.60134 0.0
C742 C 0.29245 0.9198 0.60416 0.0
C743 C 0.31199 0.92486 0.58958 0.0
C744 C 0.312 0.94286 0.57135 0.0
C745 C 0.29077 0.89907 0.62077 0.0
C746 C 0.30434 0.89671 0.64331 0.0
C747 C 0.27399 0.88269 0.61568 0.0
C748 C 0.25982 0.88369 0.59157 0.0
C749 C 0.26984 0.88524 0.56652 0.0
C750 C 0.25642 0.88716 0.54399 0.0
C751 C 0.23293 0.88722 0.5462 0.0
C752 C 0.22282 0.88531 0.57095 0.0
C753 C 0.23616 0.88353 0.59358 0.0
H754 H 0.22256 0.88878 0.52875 0.0
H755 H 0.35088 0.87657 0.74968 0.0
H756 H 0.17683 0.25597 0.74946 0.0
H757 H 0.14131 0.26486 0.72654 0.0
H758 H 0.17746 0.26932 0.65287 0.0
H759 H 0.21267 0.26194 0.67579 0.0
H760 H 0.14627 0.2973 0.65012 0.0
H761 H 0.14967 0.21897 0.67836 0.0
H762 H 0.15196 0.18809 0.71115 0.0
H763 H 0.09103 0.2114 0.74761 0.0
H764 H 0.08855 0.24265 0.71533 0.0
H765 H 0.05182 0.23513 0.57532 0.0
H766 H 0.08137 0.23411 0.60911 0.0
H767 H 0.0679 0.30378 0.62735 0.0
H768 H 0.03891 0.30508 0.59329 0.0
H769 H 0.08545 0.24056 0.66082 0.0
H770 H 0.11683 0.33117 0.63791 0.0
H771 H 0.11702 0.3583 0.60079 0.0
H772 H 0.1132 0.3037 0.54592 0.0
H773 H 0.11336 0.27626 0.58267 0.0
C774 C 0.17718 0.25963 0.72854 0.0
C775 C 0.19744 0.25795 0.71434 0.0
C776 C 0.15685 0.26437 0.71536 0.0
C777 C 0.1565 0.2671 0.68776 0.0
C778 C 0.17706 0.26714 0.67407 0.0
C779 C 0.19725 0.26281 0.6872 0.0
C780 C 0.135 0.26838 0.67249 0.0
C781 C 0.13291 0.285 0.65273 0.0
C782 C 0.1176 0.25212 0.67535 0.0
C783 C 0.11906 0.23328 0.69464 0.0
C784 C 0.13684 0.21758 0.69347 0.0
C785 C 0.13817 0.20002 0.71194 0.0
C786 C 0.12169 0.19781 0.73146 0.0
C787 C 0.10381 0.21315 0.73252 0.0
C788 C 0.10243 0.2308 0.71416 0.0
C789 C 0.05497 0.25013 0.58677 0.0
C790 C 0.04324 0.27027 0.58135 0.0
C791 C 0.07183 0.24952 0.60614 0.0
C792 C 0.07716 0.26899 0.62047 0.0
C793 C 0.06444 0.28867 0.6162 0.0
C794 C 0.04783 0.28937 0.59671 0.0
C795 C 0.09702 0.26927 0.63843 0.0
C796 C 0.09871 0.25303 0.65859 0.0
C797 C 0.11452 0.28532 0.63533 0.0
C798 C 0.11483 0.3017 0.61307 0.0
C799 C 0.11612 0.32497 0.61792 0.0
C800 C 0.11616 0.34039 0.59694 0.0
C801 C 0.11504 0.33274 0.57102 0.0
C802 C 0.11399 0.30962 0.56601 0.0
C803 C 0.114 0.29413 0.5869 0.0
H804 H 0.11503 0.34471 0.55482 0.0
H805 H 0.12276 0.18419 0.74572 0.0
H806 H 0.72691 0.20102 0.70643 0.0
H807 H 0.72523 0.16461 0.68386 0.0
H808 H 0.79722 0.15702 0.69302 0.0
H809 H 0.7989 0.19349 0.7151 0.0
H810 H 0.78593 0.15262 0.64334 0.0
H811 H 0.7593 0.12149 0.72468 0.0
H812 H 0.73505 0.1187 0.764 0.0
H813 H 0.67684 0.10994 0.71484 0.0
H814 H 0.7007 0.11299 0.67519 0.0
H815 H 0.78894 0.04668 0.57778 0.0
H816 H 0.7926 0.07556 0.61181 0.0
H817 H 0.721 0.08823 0.60778 0.0
H818 H 0.71715 0.05927 0.57437 0.0
H819 H 0.73421 0.08801 0.65754 0.0
H820 H 0.75989 0.12291 0.5768 0.0
H821 H 0.78355 0.12662 0.53706 0.0
H822 H 0.84306 0.12913 0.58517 0.0
H823 H 0.81975 0.12514 0.62519 0.0
C824 C 0.7422 0.19117 0.70438 0.0
C825 C 0.76302 0.2 0.71244 0.0
C826 C 0.74127 0.17039 0.69143 0.0
C827 C 0.76114 0.15805 0.68662 0.0
C828 C 0.7817 0.16624 0.69632 0.0
C829 C 0.78263 0.187 0.70907 0.0
C830 C 0.76093 0.138 0.66912 0.0
C831 C 0.77493 0.13828 0.64679 0.0
C832 C 0.74618 0.11954 0.67313 0.0
C833 C 0.73178 0.11766 0.69694 0.0
C834 C 0.74131 0.11915 0.72224 0.0
C835 C 0.72763 0.11749 0.74459 0.0
C836 C 0.70442 0.1142 0.74192 0.0
C837 C 0.69483 0.11251 0.71688 0.0
C838 C 0.70842 0.11417 0.69446 0.0
C839 C 0.77399 0.05559 0.58419 0.0
C840 C 0.75279 0.05071 0.5732 0.0
C841 C 0.7761 0.07213 0.60362 0.0
C842 C 0.75709 0.08425 0.61223 0.0
C843 C 0.73591 0.07911 0.60157 0.0
C844 C 0.73377 0.06258 0.5823 0.0
C845 C 0.75913 0.10274 0.63178 0.0
C846 C 0.74542 0.10222 0.65437 0.0
C847 C 0.77408 0.12108 0.62799 0.0
C848 C 0.7881 0.12345 0.60395 0.0
C849 C 0.77804 0.12406 0.57888 0.0
C850 C 0.79138 0.12625 0.55631 0.0
C851 C 0.8148 0.12803 0.55858 0.0
C852 C 0.82492 0.12769 0.58344 0.0
C853 C 0.81165 0.12548 0.60607 0.0
H854 H 0.8251 0.12974 0.54109 0.0
H855 H 0.69386 0.11291 0.75925 0.0
H856 H 0.84009 0.24021 0.28377 0.0
H857 H 0.8734 0.2462 0.31162 0.0
H858 H 0.83025 0.26838 0.3748 0.0
H859 H 0.79704 0.26165 0.34724 0.0
H860 H 0.89385 0.27859 0.33889 0.0
H861 H 0.84742 0.24519 0.43196 0.0
H862 H 0.81464 0.22112 0.44241 0.0
H863 H 0.82311 0.18606 0.36942 0.0
H864 H 0.85621 0.20958 0.35879 0.0
H865 H 0.95566 0.30265 0.45348 0.0
H866 H 0.92714 0.29796 0.41952 0.0
H867 H 0.934 0.22566 0.42564 0.0
H868 H 0.96243 0.23022 0.46029 0.0
H869 H 0.89098 0.23657 0.42378 0.0
H870 H 0.95517 0.25502 0.37222 0.0
H871 H 0.98894 0.27641 0.35875 0.0
H872 H 0.94817 0.33512 0.34425 0.0
H873 H 0.91417 0.31417 0.358 0.0
C874 C 0.83789 0.24705 0.30332 0.0
C875 C 0.81616 0.25063 0.31343 0.0
C876 C 0.85686 0.25037 0.31926 0.0
C877 C 0.8543 0.25727 0.3455 0.0
C878 C 0.83262 0.26262 0.3548 0.0
C879 C 0.81369 0.25904 0.33901 0.0
C880 C 0.87388 0.25694 0.36384 0.0
C881 C 0.89322 0.26945 0.35747 0.0
C882 C 0.87342 0.24431 0.38767 0.0
C883 C 0.8542 0.22931 0.3945 0.0
C884 C 0.84242 0.23221 0.41826 0.0
C885 C 0.82376 0.21867 0.42419 0.0
C886 C 0.81677 0.20211 0.40656 0.0
C887 C 0.82853 0.19892 0.38305 0.0
C888 C 0.84725 0.21233 0.37707 0.0
C889 C 0.95129 0.2857 0.44755 0.0
C890 C 0.96144 0.2668 0.45963 0.0
C891 C 0.93499 0.28306 0.42797 0.0
C892 C 0.92857 0.26147 0.4197 0.0
C893 C 0.9387 0.24251 0.43162 0.0
C894 C 0.95502 0.24514 0.45136 0.0
C895 C 0.91072 0.25888 0.39928 0.0
C896 C 0.89169 0.2457 0.40521 0.0
C897 C 0.91175 0.27038 0.37472 0.0
C898 C 0.93214 0.28306 0.36634 0.0
C899 C 0.95342 0.27254 0.36634 0.0
C900 C 0.9726 0.28458 0.35863 0.0
C901 C 0.97071 0.30712 0.3507 0.0
C902 C 0.94961 0.31766 0.35042 0.0
C903 C 0.93037 0.3057 0.35814 0.0
H904 H 0.98558 0.31641 0.34474 0.0
H905 H 0.80225 0.19173 0.41113 0.0
H906 H 0.7427 0.78351 0.3748 0.0
H907 H 0.73843 0.81964 0.3976 0.0
H908 H 0.76271 0.85481 0.32858 0.0
H909 H 0.76644 0.81864 0.30552 0.0
H910 H 0.78641 0.86377 0.37828 0.0
H911 H 0.71155 0.86291 0.34166 0.0
H912 H 0.67444 0.84611 0.33217 0.0
H913 H 0.66103 0.83992 0.41499 0.0
H914 H 0.69822 0.8564 0.42499 0.0
H915 H 0.77517 0.97087 0.44069 0.0
H916 H 0.77534 0.93955 0.40939 0.0
H917 H 0.72878 0.90295 0.4593 0.0
H918 H 0.72722 0.935 0.4891 0.0
H919 H 0.71594 0.89663 0.41403 0.0
H920 H 0.7903 0.89192 0.45239 0.0
H921 H 0.82807 0.90568 0.46475 0.0
H922 H 0.84344 0.91865 0.38341 0.0
H923 H 0.80565 0.90519 0.3706 0.0
C924 C 0.74646 0.79904 0.36432 0.0
C925 C 0.75457 0.79847 0.33837 0.0
C926 C 0.74413 0.81961 0.37734 0.0
C927 C 0.75027 0.83987 0.36475 0.0
C928 C 0.75784 0.83936 0.33857 0.0
C929 C 0.75978 0.81879 0.32538 0.0
C930 C 0.75024 0.86127 0.37969 0.0
C931 C 0.771 0.87126 0.38578 0.0
C932 C 0.73019 0.87052 0.39005 0.0
C933 C 0.70776 0.86073 0.38407 0.0
C934 C 0.70078 0.8578 0.35785 0.0
C935 C 0.6797 0.84837 0.35238 0.0
C936 C 0.66541 0.84191 0.37296 0.0
C937 C 0.67213 0.84492 0.39907 0.0
C938 C 0.69319 0.85433 0.40465 0.0
C939 C 0.76513 0.95602 0.44489 0.0
C940 C 0.75128 0.95518 0.46726 0.0
C941 C 0.7653 0.93804 0.42711 0.0
C942 C 0.75234 0.91852 0.43202 0.0
C943 C 0.73884 0.91772 0.45478 0.0
C944 C 0.73807 0.93597 0.47196 0.0
C945 C 0.75228 0.89906 0.41346 0.0
C946 C 0.73145 0.88938 0.40655 0.0
C947 C 0.77236 0.88972 0.4029 0.0
C948 C 0.79508 0.89779 0.41058 0.0
C949 C 0.80169 0.89785 0.43717 0.0
C950 C 0.8231 0.90557 0.44425 0.0
C951 C 0.83812 0.9131 0.42489 0.0
C952 C 0.83178 0.91285 0.39839 0.0
C953 C 0.81037 0.90517 0.39121 0.0
H954 H 0.85469 0.91907 0.43041 0.0
H955 H 0.6491 0.83461 0.36868 0.0
H956 H 0.17053 0.76297 0.27402 0.0
H957 H 0.13901 0.7543 0.30368 0.0
H958 H 0.18621 0.73665 0.36514 0.0
H959 H 0.21766 0.74544 0.33549 0.0
H960 H 0.12249 0.72032 0.33613 0.0
H961 H 0.1706 0.76578 0.41963 0.0
H962 H 0.20098 0.79392 0.42432 0.0
H963 H 0.18473 0.82179 0.34836 0.0
H964 H 0.15414 0.79401 0.34335 0.0
H965 H 0.06396 0.70559 0.4557 0.0
H966 H 0.09253 0.70789 0.42136 0.0
H967 H 0.08185 0.77971 0.41486 0.0
H968 H 0.05339 0.77762 0.44984 0.0
H969 H 0.12535 0.77091 0.41351 0.0
H970 H 0.061 0.74333 0.36834 0.0
H971 H 0.0283 0.71868 0.36026 0.0
H972 H 0.0723 0.66139 0.35398 0.0
H973 H 0.10526 0.68565 0.36241 0.0
C974 C 0.17409 0.75609 0.29342 0.0
C975 C 0.19642 0.75449 0.30244 0.0
C976 C 0.1561 0.75135 0.31043 0.0
C977 C 0.16028 0.74524 0.33675 0.0
C978 C 0.18263 0.74156 0.34497 0.0
C979 C 0.20058 0.74626 0.32796 0.0
C980 C 0.14168 0.74563 0.35634 0.0
C981 C 0.12314 0.73125 0.35315 0.0
C982 C 0.14212 0.76059 0.37796 0.0
C983 C 0.16023 0.77765 0.38103 0.0
C984 C 0.17347 0.77797 0.40398 0.0
C985 C 0.19074 0.79384 0.40667 0.0
C986 C 0.19485 0.80957 0.38659 0.0
C987 C 0.18162 0.80953 0.36384 0.0
C988 C 0.16433 0.7937 0.36105 0.0
C989 C 0.0676 0.72192 0.44699 0.0
C990 C 0.05625 0.74143 0.45548 0.0
C991 C 0.08392 0.72317 0.42721 0.0
C992 C 0.08914 0.7439 0.41517 0.0
C993 C 0.07807 0.76349 0.42379 0.0
C994 C 0.06176 0.76228 0.44375 0.0
C995 C 0.10639 0.74502 0.39387 0.0
C996 C 0.12467 0.75983 0.39664 0.0
C997 C 0.10535 0.73094 0.37145 0.0
C998 C 0.08559 0.71629 0.36623 0.0
C999 C 0.0637 0.72545 0.36543 0.0
C1000 C 0.04511 0.71155 0.36076 0.0
C1001 C 0.04822 0.68848 0.35667 0.0
C1002 C 0.06992 0.67926 0.35718 0.0
C1003 C 0.08857 0.69308 0.36188 0.0
H1004 H 0.03381 0.67774 0.35305 0.0
H1005 H 0.20825 0.82182 0.38869 0.0
H1006 H 0.29804 0.2177 0.33276 0.0
H1007 H 0.30981 0.18323 0.35631 0.0
H1008 H 0.24018 0.16275 0.36261 0.0
H1009 H 0.22848 0.19714 0.33962 0.0
H1010 H 0.2595 0.1611 0.40908 0.0
H1011 H 0.27933 0.13601 0.32177 0.0
H1012 H 0.29908 0.13822 0.2791 0.0
H1013 H 0.363 0.13651 0.31885 0.0
H1014 H 0.3436 0.13459 0.3618 0.0
H1015 H 0.25763 0.04947 0.44747 0.0
H1016 H 0.25756 0.08262 0.41907 0.0
H1017 H 0.32775 0.0941 0.43651 0.0
H1018 H 0.32804 0.06041 0.46536 0.0
H1019 H 0.31424 0.10259 0.38121 0.0
H1020 H 0.29342 0.12407 0.46867 0.0
H1021 H 0.27271 0.12036 0.51061 0.0
H1022 H 0.20982 0.12843 0.46972 0.0
H1023 H 0.23008 0.1318 0.42747 0.0
C1024 C 0.28536 0.20554 0.33868 0.0
C1025 C 0.26235 0.21014 0.33452 0.0
C1026 C 0.29207 0.18587 0.35218 0.0
C1027 C 0.27588 0.17037 0.36142 0.0
C1028 C 0.253 0.17449 0.35597 0.0
C1029 C 0.24632 0.19412 0.34273 0.0
C1030 C 0.28223 0.15068 0.37837 0.0
C1031 C 0.27138 0.14827 0.40282 0.0
C1032 C 0.29836 0.13429 0.3708 0.0
C1033 C 0.31002 0.13544 0.345 0.0
C1034 C 0.29759 0.13631 0.32142 0.0
C1035 C 0.30873 0.13747 0.29718 0.0
C1036 C 0.33228 0.13759 0.29627 0.0
C1037 C 0.34476 0.13647 0.31959 0.0
C1038 C 0.3337 0.13533 0.34388 0.0
C1039 C 0.2732 0.05882 0.44519 0.0
C1040 C 0.29279 0.05241 0.45903 0.0
C1041 C 0.27311 0.0778 0.42884 0.0
C1042 C 0.29253 0.09103 0.42596 0.0
C1043 C 0.31255 0.08412 0.43853 0.0
C1044 C 0.31268 0.06492 0.45501 0.0
C1045 C 0.29091 0.11281 0.41131 0.0
C1046 C 0.30265 0.11564 0.3875 0.0
C1047 C 0.27552 0.12967 0.41937 0.0
C1048 C 0.26329 0.12806 0.44485 0.0
C1049 C 0.27516 0.12491 0.46859 0.0
C1050 C 0.26351 0.12288 0.49243 0.0
C1051 C 0.23998 0.12412 0.49282 0.0
C1052 C 0.22805 0.12746 0.46939 0.0
C1053 C 0.23961 0.12947 0.44549 0.0
H1054 H 0.23101 0.12252 0.5113 0.0
H1055 H 0.34087 0.13848 0.27749 0.0
H1056 H 0.69337 0.76563 0.80841 0.0
H1057 H 0.66045 0.77853 0.83303 0.0
H1058 H 0.7042 0.80368 0.89415 0.0
H1059 H 0.73706 0.78927 0.87011 0.0
H1060 H 0.67274 0.78376 0.91666 0.0
H1061 H 0.67201 0.83909 0.84872 0.0
H1062 H 0.67321 0.85433 0.80343 0.0
H1063 H 0.61205 0.81919 0.78482 0.0
H1064 H 0.61063 0.80346 0.82989 0.0
H1065 H 0.57568 0.83294 0.97938 0.0
H1066 H 0.60932 0.83427 0.95103 0.0
H1067 H 0.58229 0.78039 0.90413 0.0
H1068 H 0.54916 0.77841 0.93287 0.0
H1069 H 0.60626 0.82126 0.87606 0.0
H1070 H 0.61305 0.76193 0.94427 0.0
H1071 H 0.61182 0.74983 0.99084 0.0
H1072 H 0.66316 0.7981 1.00978 0.0
H1073 H 0.66433 0.81078 0.96336 0.0
C1074 C 0.69588 0.77424 0.82691 0.0
C1075 C 0.71762 0.77669 0.83735 0.0
C1076 C 0.67708 0.78178 0.84094 0.0
C1077 C 0.6797 0.79257 0.86535 0.0
C1078 C 0.70162 0.79549 0.87541 0.0
C1079 C 0.7204 0.78741 0.86165 0.0
C1080 C 0.65953 0.79916 0.88115 0.0
C1081 C 0.6585 0.79243 0.90776 0.0
C1082 C 0.64066 0.81039 0.8698 0.0
C1083 C 0.6413 0.81996 0.84268 0.0
C1084 C 0.65888 0.83449 0.83493 0.0
C1085 C 0.65959 0.84324 0.80929 0.0
C1086 C 0.64274 0.8377 0.79124 0.0
C1087 C 0.6251 0.82346 0.79882 0.0
C1088 C 0.62431 0.81465 0.82443 0.0
C1089 C 0.57673 0.82177 0.96265 0.0
C1090 C 0.55992 0.80554 0.95829 0.0
C1091 C 0.59591 0.82253 0.94654 0.0
C1092 C 0.59819 0.80745 0.92552 0.0
C1093 C 0.58073 0.79224 0.92016 0.0
C1094 C 0.56191 0.79107 0.93663 0.0
C1095 C 0.61973 0.80556 0.91097 0.0
C1096 C 0.62086 0.81306 0.88476 0.0
C1097 C 0.63888 0.79551 0.92274 0.0
C1098 C 0.63858 0.78748 0.95045 0.0
C1099 C 0.62393 0.77009 0.95842 0.0
C1100 C 0.62326 0.76311 0.98477 0.0
C1101 C 0.63736 0.77323 1.00328 0.0
C1102 C 0.65221 0.7903 0.99544 0.0
C1103 C 0.65288 0.79739 0.96912 0.0
H1104 H 0.63682 0.76781 0.02367 0.0
H1105 H 0.64333 0.84447 0.77139 0.0
H1106 H 0.23864 0.67759 0.78627 0.0
H1107 H 0.22178 0.64512 0.80918 0.0
H1108 H 0.22793 0.67993 0.88311 0.0
H1109 H 0.24449 0.71233 0.86031 0.0
H1110 H 0.24327 0.61977 0.84422 0.0
H1111 H 0.18882 0.66208 0.92647 0.0
H1112 H 0.16234 0.69395 0.9306 0.0
H1113 H 0.14846 0.69143 0.8477 0.0
H1114 H 0.17458 0.65933 0.84312 0.0
H1115 H 0.24935 0.56082 0.9614 0.0
H1116 H 0.24762 0.58964 0.9273 0.0
H1117 H 0.17695 0.57578 0.91548 0.0
H1118 H 0.17843 0.54683 0.95049 0.0
H1119 H 0.18497 0.62065 0.91431 0.0
H1120 H 0.2154 0.55704 0.87079 0.0
H1121 H 0.24022 0.52405 0.86497 0.0
H1122 H 0.29838 0.56712 0.86571 0.0
H1123 H 0.27395 0.60034 0.87194 0.0
C1124 C 0.23579 0.67851 0.8073 0.0
C1125 C 0.24299 0.69741 0.82155 0.0
C1126 C 0.22627 0.65992 0.82038 0.0
C1127 C 0.22351 0.66007 0.84788 0.0
C1128 C 0.22958 0.67947 0.86187 0.0
C1129 C 0.23921 0.69793 0.84886 0.0
C1130 C 0.21696 0.63922 0.86249 0.0
C1131 C 0.23032 0.61988 0.85929 0.0
C1132 C 0.19969 0.63911 0.88175 0.0
C1133 C 0.1838 0.65834 0.88444 0.0
C1134 C 0.18003 0.66822 0.90914 0.0
C1135 C 0.16509 0.68636 0.91156 0.0
C1136 C 0.15376 0.69474 0.88942 0.0
C1137 C 0.1573 0.68497 0.86482 0.0
C1138 C 0.1722 0.66683 0.8623 0.0
C1139 C 0.23337 0.56375 0.9516 0.0
C1140 C 0.21405 0.5513 0.95855 0.0
C1141 C 0.23245 0.58024 0.93196 0.0
C1142 C 0.2123 0.58456 0.91835 0.0
C1143 C 0.19275 0.57259 0.92557 0.0
C1144 C 0.19361 0.55606 0.94553 0.0
C1145 C 0.21209 0.60177 0.89686 0.0
C1146 C 0.19755 0.62039 0.89881 0.0
C1147 C 0.22802 0.6011 0.87608 0.0
C1148 C 0.24281 0.5812 0.8719 0.0
C1149 C 0.23349 0.55948 0.86983 0.0
C1150 C 0.24749 0.54073 0.86645 0.0
C1151 C 0.27086 0.54349 0.86499 0.0
C1152 C 0.28028 0.56501 0.86683 0.0
C1153 C 0.26635 0.58382 0.87023 0.0
H1154 H 0.28168 0.52895 0.8624 0.0
H1155 H 0.14221 0.70879 0.89134 0.0
H1156 H 0.28307 0.24167 0.87653 0.0
H1157 H 0.3138 0.22662 0.9035 0.0
H1158 H 0.34725 0.20268 0.83375 0.0
H1159 H 0.31653 0.21807 0.80646 0.0
H1160 H 0.35082 0.17502 0.88949 0.0
H1161 H 0.36433 0.24727 0.84363 0.0
H1162 H 0.35044 0.28474 0.82961 0.0
H1163 H 0.33924 0.30264 0.91032 0.0
H1164 H 0.3526 0.26506 0.92475 0.0
H1165 H 0.46144 0.18007 0.94977 0.0
H1166 H 0.42878 0.17886 0.91996 0.0
H1167 H 0.3972 0.23238 0.96393 0.0
H1168 H 0.43015 0.2344 0.99244 0.0
H1169 H 0.39395 0.24272 0.91644 0.0
H1170 H 0.37946 0.17392 0.9643 0.0
H1171 H 0.38791 0.13596 0.98194 0.0
H1172 H 0.39694 0.11122 0.90341 0.0
H1173 H 0.3888 0.14913 0.88531 0.0
C1174 C 0.2966 0.23256 0.867 0.0
C1175 C 0.29761 0.23134 0.83939 0.0
C1176 C 0.31407 0.22386 0.88244 0.0
C1177 C 0.33283 0.21371 0.87058 0.0
C1178 C 0.33282 0.21034 0.84324 0.0
C1179 C 0.31528 0.21914 0.82769 0.0
C1180 C 0.35386 0.21106 0.88606 0.0
C1181 C 0.36058 0.18968 0.8951 0.0
C1182 C 0.36612 0.2303 0.89383 0.0
C1183 C 0.35931 0.25332 0.88524 0.0
C1184 C 0.35882 0.25917 0.85837 0.0
C1185 C 0.35102 0.28042 0.85035 0.0
C1186 C 0.34392 0.29605 0.86906 0.0
C1187 C 0.34473 0.29051 0.89584 0.0
C1188 C 0.35243 0.26925 0.90395 0.0
C1189 C 0.44732 0.19129 0.95316 0.0
C1190 C 0.44829 0.2074 0.97327 0.0
C1191 C 0.42862 0.19058 0.93619 0.0
C1192 C 0.41037 0.20554 0.93958 0.0
C1193 C 0.41107 0.22083 0.96055 0.0
C1194 C 0.42988 0.22192 0.97697 0.0
C1195 C 0.39109 0.20654 0.92066 0.0
C1196 C 0.38458 0.22781 0.91079 0.0
C1197 C 0.37887 0.18718 0.91265 0.0
C1198 C 0.38379 0.16441 0.92347 0.0
C1199 C 0.38343 0.16043 0.95081 0.0
C1200 C 0.38813 0.13891 0.96088 0.0
C1201 C 0.39303 0.12121 0.94381 0.0
C1202 C 0.39318 0.12496 0.91661 0.0
C1203 C 0.38852 0.14645 0.90643 0.0
H1204 H 0.39666 0.10456 0.95165 0.0
H1205 H 0.33783 0.31246 0.86282 0.0
H1206 H 0.75939 0.2943 0.85917 0.0
H1207 H 0.76669 0.32808 0.88514 0.0
H1208 H 0.76189 0.36909 0.81479 0.0
H1209 H 0.75453 0.33515 0.78871 0.0
H1210 H 0.79579 0.36336 0.88705 0.0
H1211 H 0.72703 0.41359 0.83034 0.0
H1212 H 0.69341 0.4058 0.80319 0.0
H1213 H 0.68477 0.34207 0.84273 0.0
H1214 H 0.71796 0.34968 0.87032 0.0
H1215 H 0.79562 0.47168 0.94136 0.0
H1216 H 0.79504 0.44174 0.90872 0.0
H1217 H 0.72908 0.42133 0.93569 0.0
H1218 H 0.72926 0.45187 0.96795 0.0
H1219 H 0.73127 0.41684 0.88448 0.0
H1220 H 0.77725 0.3944 0.95721 0.0
H1221 H 0.80772 0.39804 0.98996 0.0
H1222 H 0.85696 0.39951 0.92797 0.0
H1223 H 0.82672 0.39622 0.89481 0.0
C1224 C 0.76062 0.31047 0.84918 0.0
C1225 C 0.75634 0.31225 0.82204 0.0
C1226 C 0.7648 0.32973 0.86399 0.0
C1227 C 0.7645 0.3511 0.85195 0.0
C1228 C 0.762 0.35274 0.82447 0.0
C1229 C 0.75797 0.33339 0.80958 0.0
C1230 C 0.76411 0.37154 0.86858 0.0
C1231 C 0.78185 0.37523 0.88627 0.0
C1232 C 0.74547 0.3865 0.8683 0.0
C1233 C 0.72516 0.38209 0.85212 0.0
C1234 C 0.71788 0.39797 0.83327 0.0
C1235 C 0.69888 0.39358 0.8178 0.0
C1236 C 0.68698 0.37342 0.82113 0.0
C1237 C 0.69398 0.35765 0.84004 0.0
C1238 C 0.7129 0.36199 0.85559 0.0
C1239 C 0.78086 0.46099 0.94015 0.0
C1240 C 0.76257 0.46396 0.9574 0.0
C1241 C 0.7806 0.44383 0.92153 0.0
C1242 C 0.76225 0.42895 0.92014 0.0
C1243 C 0.74347 0.43255 0.93647 0.0
C1244 C 0.74358 0.44998 0.95491 0.0
C1245 C 0.76322 0.40901 0.90264 0.0
C1246 C 0.74548 0.40529 0.88491 0.0
C1247 C 0.78146 0.39352 0.90364 0.0
C1248 C 0.79971 0.3953 0.92352 0.0
C1249 C 0.79457 0.39566 0.95056 0.0
C1250 C 0.81179 0.39764 0.96919 0.0
C1251 C 0.83426 0.39906 0.96104 0.0
C1252 C 0.83954 0.39844 0.93424 0.0
C1253 C 0.82237 0.39651 0.91552 0.0
H1254 H 0.84757 0.40059 0.9755 0.0
H1255 H 0.67231 0.37003 0.80911 0.0
H1256 H 0.71113 0.21388 0.20279 0.0
H1257 H 0.6765 0.20167 0.18069 0.0
H1258 H 0.65638 0.27115 0.17056 0.0
H1259 H 0.6907 0.28339 0.19299 0.0
H1260 H 0.62045 0.24446 0.18288 0.0
H1261 H 0.68306 0.24356 0.12175 0.0
H1262 H 0.72071 0.2319 0.10629 0.0
H1263 H 0.69985 0.16256 0.10735 0.0
H1264 H 0.66214 0.17381 0.1232 0.0
H1265 H 0.55373 0.25323 0.07075 0.0
H1266 H 0.58403 0.25424 0.10283 0.0
H1267 H 0.58888 0.18168 0.10121 0.0
H1268 H 0.55821 0.18045 0.06855 0.0
H1269 H 0.6308 0.20297 0.09923 0.0
H1270 H 0.56545 0.20563 0.15349 0.0
H1271 H 0.52776 0.21866 0.16718 0.0
H1272 H 0.5535 0.2856 0.17812 0.0
H1273 H 0.59129 0.27307 0.1641 0.0
C1274 C 0.69906 0.22651 0.19637 0.0
C1275 C 0.70373 0.24961 0.19943 0.0
C1276 C 0.67937 0.21952 0.18357 0.0
C1277 C 0.66399 0.23551 0.17362 0.0
C1278 C 0.66802 0.25851 0.17797 0.0
C1279 C 0.68771 0.26549 0.19065 0.0
C1280 C 0.64445 0.22858 0.15717 0.0
C1281 C 0.62271 0.2354 0.16459 0.0
C1282 C 0.6473 0.21625 0.13361 0.0
C1283 C 0.6699 0.20949 0.12398 0.0
C1284 C 0.68657 0.22581 0.1189 0.0
C1285 C 0.7079 0.21928 0.11003 0.0
C1286 C 0.71269 0.1965 0.10592 0.0
C1287 C 0.69613 0.1802 0.1106 0.0
C1288 C 0.67477 0.18664 0.11952 0.0
C1289 C 0.56112 0.23738 0.0771 0.0
C1290 C 0.55341 0.21671 0.06706 0.0
C1291 C 0.57843 0.23802 0.09564 0.0
C1292 C 0.58848 0.21804 0.10479 0.0
C1293 C 0.58122 0.19731 0.09455 0.0
C1294 C 0.5637 0.19663 0.07592 0.0
C1295 C 0.60687 0.21931 0.12465 0.0
C1296 C 0.62843 0.21151 0.11784 0.0
C1297 C 0.60386 0.23084 0.14873 0.0
C1298 C 0.58121 0.23841 0.1576 0.0
C1299 C 0.56306 0.22316 0.15867 0.0
C1300 C 0.54167 0.23046 0.1665 0.0
C1301 C 0.53823 0.25295 0.17347 0.0
C1302 C 0.55619 0.26818 0.17271 0.0
C1303 C 0.57761 0.26097 0.16486 0.0
H1304 H 0.52165 0.25858 0.17949 0.0
H1305 H 0.72922 0.19148 0.09905 0.0
H1306 H 0.77598 0.68689 0.22744 0.0
H1307 H 0.78136 0.65312 0.20058 0.0
H1308 H 0.71053 0.6377 0.2076 0.0
H1309 H 0.7051 0.67148 0.23436 0.0
H1310 H 0.73937 0.59838 0.20504 0.0
H1311 H 0.72375 0.66819 0.15939 0.0
H1312 H 0.72991 0.70847 0.14937 0.0
H1313 H 0.7972 0.69381 0.12323 0.0
H1314 H 0.7916 0.65347 0.13368 0.0
H1315 H 0.72421 0.54003 0.08274 0.0
H1316 H 0.71992 0.56665 0.1192 0.0
H1317 H 0.78939 0.58678 0.11024 0.0
H1318 H 0.79385 0.56035 0.0741 0.0
H1319 H 0.76066 0.62306 0.11475 0.0
H1320 H 0.77567 0.55285 0.15877 0.0
H1321 H 0.76934 0.51266 0.16855 0.0
H1322 H 0.70295 0.52776 0.19739 0.0
H1323 H 0.70873 0.56812 0.18714 0.0
C1324 C 0.76179 0.67577 0.22414 0.0
C1325 C 0.74012 0.68178 0.23275 0.0
C1326 C 0.76483 0.65658 0.20871 0.0
C1327 C 0.74626 0.64315 0.20183 0.0
C1328 C 0.72505 0.64786 0.21269 0.0
C1329 C 0.72197 0.66714 0.22791 0.0
C1330 C 0.74818 0.62663 0.18022 0.0
C1331 C 0.74385 0.60374 0.18526 0.0
C1332 C 0.75408 0.63369 0.15444 0.0
C1333 C 0.75734 0.65786 0.1476 0.0
C1334 C 0.73993 0.67358 0.15171 0.0
C1335 C 0.74331 0.69642 0.14594 0.0
C1336 C 0.76395 0.7037 0.13572 0.0
C1337 C 0.78123 0.68815 0.13119 0.0
C1338 C 0.77797 0.66529 0.13705 0.0
C1339 C 0.73854 0.55014 0.08855 0.0
C1340 C 0.75938 0.54801 0.07557 0.0
C1341 C 0.7361 0.56527 0.10942 0.0
C1342 C 0.75439 0.57859 0.11748 0.0
C1343 C 0.77507 0.57667 0.10433 0.0
C1344 C 0.77759 0.56146 0.08372 0.0
C1345 C 0.75214 0.59468 0.13955 0.0
C1346 C 0.75626 0.6176 0.13453 0.0
C1347 C 0.74597 0.58761 0.16525 0.0
C1348 C 0.74254 0.56346 0.17191 0.0
C1349 C 0.75964 0.54759 0.16699 0.0
C1350 C 0.75616 0.52476 0.17265 0.0
C1351 C 0.73572 0.51761 0.18357 0.0
C1352 C 0.71876 0.53331 0.1889 0.0
C1353 C 0.72213 0.55618 0.18315 0.0
H1354 H 0.73305 0.49991 0.18793 0.0
H1355 H 0.76655 0.72139 0.13125 0.0
H1356 H 0.29989 0.80206 0.17815 0.0
H1357 H 0.33425 0.8143 0.1552 0.0
H1358 H 0.37404 0.77063 0.20511 0.0
H1359 H 0.33964 0.75815 0.22785 0.0
H1360 H 0.39229 0.82187 0.18075 0.0
H1361 H 0.37462 0.73926 0.16162 0.0
H1362 H 0.34355 0.71163 0.15883 0.0
H1363 H 0.30819 0.75532 0.10502 0.0
H1364 H 0.33913 0.78314 0.10752 0.0
H1365 H 0.4674 0.76189 0.07535 0.0
H1366 H 0.43757 0.76232 0.10821 0.0
H1367 H 0.42896 0.83394 0.09613 0.0
H1368 H 0.45941 0.83373 0.06339 0.0
H1369 H 0.39503 0.7708 0.10375 0.0
H1370 H 0.4087 0.85761 0.15337 0.0
H1371 H 0.43983 0.8837 0.16365 0.0
H1372 H 0.48679 0.8285 0.16347 0.0
H1373 H 0.45592 0.80206 0.15355 0.0
C1374 C 0.31611 0.79596 0.185 0.0
C1375 C 0.31731 0.77944 0.20489 0.0
C1376 C 0.33569 0.80295 0.17194 0.0
C1377 C 0.35665 0.79354 0.17869 0.0
C1378 C 0.35806 0.7784 0.20001 0.0
C1379 C 0.33846 0.77127 0.21294 0.0
C1380 C 0.37565 0.79522 0.15991 0.0
C1381 C 0.39292 0.81095 0.16374 0.0
C1382 C 0.37664 0.78053 0.13825 0.0
C1383 C 0.35919 0.76306 0.13452 0.0
C1384 C 0.36035 0.74275 0.14889 0.0
C1385 C 0.34276 0.72713 0.14745 0.0
C1386 C 0.32395 0.73169 0.1317 0.0
C1387 C 0.32282 0.75176 0.1171 0.0
C1388 C 0.34041 0.76742 0.11844 0.0
C1389 C 0.45929 0.77781 0.0797 0.0
C1390 C 0.4658 0.79779 0.06665 0.0
C1391 C 0.44214 0.778 0.09852 0.0
C1392 C 0.43098 0.79814 0.10477 0.0
C1393 C 0.43751 0.81822 0.09194 0.0
C1394 C 0.45487 0.81807 0.07315 0.0
C1395 C 0.41211 0.79771 0.12416 0.0
C1396 C 0.39462 0.78204 0.12049 0.0
C1397 C 0.41136 0.81219 0.14628 0.0
C1398 C 0.43003 0.82792 0.15239 0.0
C1399 C 0.42566 0.85105 0.15559 0.0
C1400 C 0.44326 0.86589 0.16135 0.0
C1401 C 0.46529 0.85778 0.1641 0.0
C1402 C 0.46975 0.83478 0.16121 0.0
C1403 C 0.45221 0.81987 0.15547 0.0
H1404 H 0.47888 0.8693 0.16855 0.0
H1405 H 0.31019 0.71974 0.13102 0.0
H1406 H 0.24035 0.33787 0.24195 0.0
H1407 H 0.22541 0.36783 0.2132 0.0
H1408 H 0.22348 0.32123 0.14839 0.0
H1409 H 0.23891 0.29158 0.1769 0.0
H1410 H 0.24653 0.35646 0.13503 0.0
H1411 H 0.17466 0.34489 0.17525 0.0
H1412 H 0.14768 0.34074 0.21191 0.0
H1413 H 0.16249 0.40805 0.23722 0.0
H1414 H 0.1898 0.4125 0.20092 0.0
H1415 H 0.1794 0.44933 0.0622 0.0
H1416 H 0.1787 0.41803 0.09433 0.0
H1417 H 0.2461 0.43506 0.11908 0.0
H1418 H 0.2471 0.46578 0.08701 0.0
H1419 H 0.18554 0.41242 0.14944 0.0
H1420 H 0.27679 0.38736 0.12262 0.0
H1421 H 0.30316 0.39199 0.08541 0.0
H1422 H 0.2474 0.39583 0.03157 0.0
H1423 H 0.22075 0.39058 0.06833 0.0
C1424 C 0.23601 0.33392 0.22179 0.0
C1425 C 0.24082 0.3125 0.21157 0.0
C1426 C 0.22748 0.35103 0.20534 0.0
C1427 C 0.22336 0.34685 0.17853 0.0
C1428 C 0.22664 0.32494 0.16891 0.0
C1429 C 0.23535 0.30798 0.18522 0.0
C1430 C 0.21852 0.36573 0.15979 0.0
C1431 C 0.23304 0.36853 0.13816 0.0
C1432 C 0.2009 0.38153 0.16367 0.0
C1433 C 0.18441 0.37896 0.18546 0.0
C1434 C 0.17229 0.35875 0.18875 0.0
C1435 C 0.15692 0.35636 0.20945 0.0
C1436 C 0.15341 0.37411 0.22691 0.0
C1437 C 0.16523 0.39431 0.22368 0.0
C1438 C 0.18064 0.39679 0.20302 0.0
C1439 C 0.19391 0.44656 0.07478 0.0
C1440 C 0.21345 0.45978 0.07174 0.0
C1441 C 0.19346 0.42875 0.09318 0.0
C1442 C 0.21249 0.424 0.10879 0.0
C1443 C 0.23136 0.43817 0.10695 0.0
C1444 C 0.23191 0.45572 0.08852 0.0
C1445 C 0.21379 0.40315 0.12519 0.0
C1446 C 0.19878 0.40009 0.1463 0.0
C1447 C 0.23083 0.38686 0.12077 0.0
C1448 C 0.24677 0.38878 0.09829 0.0
C1449 C 0.27017 0.38894 0.1028 0.0
C1450 C 0.28517 0.39169 0.08179 0.0
C1451 C 0.27697 0.39426 0.05615 0.0
C1452 C 0.25375 0.39384 0.05143 0.0
C1453 C 0.23869 0.39095 0.07235 0.0
H1454 H 0.28862 0.39659 0.03996 0.0
H1455 H 0.1415 0.37222 0.24293 0.0
H1456 H 0.29498 0.26121 0.17861 0.0
H1457 H 0.32983 0.2546 0.15468 0.0
H1458 H 0.36806 0.26462 0.22593 0.0
H1459 H 0.33287 0.27232 0.24995 0.0
H1460 H 0.38743 0.28672 0.18688 0.0
H1461 H 0.36256 0.21151 0.19834 0.0
H1462 H 0.33598 0.17956 0.19848 0.0
H1463 H 0.32732 0.18656 0.11487 0.0
H1464 H 0.3536 0.21877 0.11427 0.0
H1465 H 0.46576 0.21687 0.09123 0.0
H1466 H 0.43855 0.21946 0.12701 0.0
H1467 H 0.42209 0.28747 0.10289 0.0
H1468 H 0.44993 0.28518 0.06732 0.0
H1469 H 0.39591 0.22285 0.12516 0.0
H1470 H 0.4023 0.31765 0.15442 0.0
H1471 H 0.43156 0.34699 0.15828 0.0
H1472 H 0.4824 0.29591 0.16787 0.0
H1473 H 0.45343 0.26629 0.16445 0.0
C1474 C 0.31078 0.26193 0.18929 0.0
C1475 C 0.31115 0.26747 0.21616 0.0
C1476 C 0.33074 0.25794 0.17559 0.0
C1477 C 0.35166 0.25889 0.18848 0.0
C1478 C 0.35213 0.26377 0.21555 0.0
C1479 C 0.33202 0.26793 0.22932 0.0
C1480 C 0.37283 0.25572 0.17308 0.0
C1481 C 0.38938 0.27266 0.17353 0.0
C1482 C 0.37576 0.2371 0.1561 0.0
C1483 C 0.35998 0.21766 0.1563 0.0
C1484 C 0.35488 0.20634 0.18 0.0
C1485 C 0.33987 0.18816 0.18016 0.0
C1486 C 0.32994 0.18106 0.15671 0.0
C1487 C 0.33503 0.19208 0.13303 0.0
C1488 C 0.35001 0.21028 0.13276 0.0
C1489 C 0.45653 0.2325 0.09364 0.0
C1490 C 0.45996 0.25081 0.0763 0.0
C1491 C 0.44092 0.23393 0.11415 0.0
C1492 C 0.42822 0.25366 0.11781 0.0
C1493 C 0.43191 0.27217 0.10082 0.0
C1494 C 0.44776 0.27083 0.08038 0.0
C1495 C 0.41019 0.25423 0.13828 0.0
C1496 C 0.39416 0.23679 0.13872 0.0
C1497 C 0.40818 0.272 0.15661 0.0
C1498 C 0.42569 0.28975 0.15893 0.0
C1499 C 0.41971 0.31268 0.15746 0.0
C1500 C 0.43625 0.32936 0.15956 0.0
C1501 C 0.45883 0.32332 0.16324 0.0
C1502 C 0.46491 0.30058 0.16492 0.0
C1503 C 0.44844 0.28383 0.16286 0.0
H1504 H 0.4716 0.33626 0.16484 0.0
H1505 H 0.31833 0.16699 0.15687 0.0
H1506 H 0.75945 0.28732 0.1494 0.0
H1507 H 0.77372 0.31971 0.12527 0.0
H1508 H 0.80381 0.34528 0.1964 0.0
H1509 H 0.78777 0.3136 0.2213 0.0
H1510 H 0.78527 0.37814 0.17379 0.0
H1511 H 0.83576 0.32369 0.14114 0.0
H1512 H 0.84871 0.28762 0.12262 0.0
H1513 H 0.81072 0.30057 0.05211 0.0
H1514 H 0.79725 0.33658 0.07034 0.0
H1515 H 0.82972 0.46628 0.0857 0.0
H1516 H 0.83109 0.43281 0.11493 0.0
H1517 H 0.77673 0.40279 0.0711 0.0
H1518 H 0.77482 0.43617 0.04267 0.0
H1519 H 0.8165 0.37335 0.08343 0.0
H1520 H 0.76267 0.42635 0.12304 0.0
H1521 H 0.7516 0.46201 0.14421 0.0
H1522 H 0.80162 0.45137 0.2042 0.0
H1523 H 0.81323 0.41583 0.18314 0.0
C1524 C 0.76901 0.29982 0.16008 0.0
C1525 C 0.77207 0.29789 0.18751 0.0
C1526 C 0.77761 0.31826 0.14604 0.0
C1527 C 0.79024 0.335 0.15876 0.0
C1528 C 0.79417 0.33267 0.18599 0.0
C1529 C 0.78518 0.31436 0.20021 0.0
C1530 C 0.79763 0.35563 0.14388 0.0
C1531 C 0.79266 0.37698 0.15431 0.0
C1532 C 0.80731 0.35446 0.11836 0.0
C1533 C 0.8154 0.33282 0.1072 0.0
C1534 C 0.83005 0.3188 0.12175 0.0
C1535 C 0.8375 0.29836 0.11129 0.0
C1536 C 0.83052 0.29179 0.08622 0.0
C1537 C 0.81611 0.30568 0.07153 0.0
C1538 C 0.8086 0.32613 0.0819 0.0
C1539 C 0.81827 0.4524 0.08223 0.0
C1540 C 0.80213 0.45382 0.06198 0.0
C1541 C 0.81899 0.43338 0.09895 0.0
C1542 C 0.80396 0.41534 0.09519 0.0
C1543 C 0.78848 0.41647 0.07435 0.0
C1544 C 0.78738 0.43559 0.05817 0.0
C1545 C 0.80351 0.39543 0.11317 0.0
C1546 C 0.80971 0.37431 0.10322 0.0
C1547 C 0.79552 0.39684 0.13934 0.0
C1548 C 0.78904 0.41862 0.1513 0.0
C1549 C 0.77155 0.43179 0.14049 0.0
C1550 C 0.76511 0.45194 0.15254 0.0
C1551 C 0.77593 0.45894 0.17551 0.0
C1552 C 0.79329 0.44593 0.18639 0.0
C1553 C 0.79981 0.42581 0.1744 0.0
H1554 H 0.77077 0.47436 0.18502 0.0
H1555 H 0.8363 0.27596 0.07816 0.0
H1556 H 0.72199 0.75771 0.18384 0.0
H1557 H 0.69133 0.76639 0.15295 0.0
H1558 H 0.64285 0.7575 0.21549 0.0
H1559 H 0.67361 0.74906 0.24642 0.0
H1560 H 0.63611 0.72921 0.17243 0.0
H1561 H 0.64845 0.80815 0.18803 0.0
H1562 H 0.6711 0.84288 0.19104 0.0
H1563 H 0.68922 0.83725 0.1095 0.0
H1564 H 0.66693 0.80229 0.10609 0.0
H1565 H 0.53918 0.74834 0.09318 0.0
H1566 H 0.5684 0.74807 0.12733 0.0
H1567 H 0.61693 0.77276 0.07059 0.0
H1568 H 0.58725 0.77431 0.03699 0.0
H1569 H 0.62315 0.79428 0.11237 0.0
H1570 H 0.61503 0.71538 0.09581 0.0
H1571 H 0.59516 0.67913 0.09086 0.0
H1572 H 0.57277 0.6824 0.17114 0.0
H1573 H 0.59227 0.71882 0.17647 0.0
C1574 C 0.70486 0.75874 0.19118 0.0
C1575 C 0.70009 0.75323 0.21754 0.0
C1576 C 0.68735 0.76351 0.17352 0.0
C1577 C 0.6648 0.76257 0.18192 0.0
C1578 C 0.66013 0.7584 0.20864 0.0
C1579 C 0.67768 0.75385 0.22635 0.0
C1580 C 0.6462 0.76304 0.16231 0.0
C1581 C 0.63296 0.7436 0.1596 0.0
C1582 C 0.64279 0.78143 0.14486 0.0
C1583 C 0.65616 0.80248 0.14687 0.0
C1584 C 0.65742 0.8142 0.1708 0.0
C1585 C 0.67016 0.83396 0.17256 0.0
C1586 C 0.68163 0.84224 0.15049 0.0
C1587 C 0.68034 0.83081 0.12659 0.0
C1588 C 0.66763 0.81104 0.12472 0.0
C1589 C 0.5562 0.75335 0.08805 0.0
C1590 C 0.56119 0.76102 0.06255 0.0
C1591 C 0.57293 0.75316 0.10751 0.0
C1592 C 0.5951 0.76005 0.10157 0.0
C1593 C 0.60004 0.76737 0.07579 0.0
C1594 C 0.58318 0.76807 0.05654 0.0
C1595 C 0.61294 0.76035 0.12234 0.0
C1596 C 0.62613 0.77989 0.12524 0.0
C1597 C 0.6167 0.74182 0.13961 0.0
C1598 C 0.60491 0.71994 0.13645 0.0
C1599 C 0.60572 0.70845 0.11235 0.0
C1600 C 0.59455 0.68786 0.10949 0.0
C1601 C 0.58266 0.6785 0.13065 0.0
C1602 C 0.58196 0.68969 0.15475 0.0
C1603 C 0.59308 0.71029 0.15771 0.0
H1604 H 0.57403 0.66255 0.1284 0.0
H1605 H 0.69149 0.85754 0.1519 0.0
H1606 H 0.3031 0.70361 0.19012 0.0
H1607 H 0.29747 0.67008 0.16366 0.0
H1608 H 0.22587 0.68252 0.16222 0.0
H1609 H 0.23139 0.71723 0.18746 0.0
H1610 H 0.24231 0.63497 0.17544 0.0
H1611 H 0.24718 0.69379 0.1104 0.0
H1612 H 0.26286 0.72667 0.08673 0.0
H1613 H 0.32397 0.68999 0.0718 0.0
H1614 H 0.3088 0.65699 0.09578 0.0
H1615 H 0.21569 0.55688 0.07416 0.0
H1616 H 0.2188 0.58961 0.10272 0.0
H1617 H 0.29085 0.59049 0.09106 0.0
H1618 H 0.28788 0.55772 0.06217 0.0
H1619 H 0.27278 0.6319 0.08454 0.0
H1620 H 0.2685 0.57316 0.14927 0.0
H1621 H 0.25278 0.53951 0.17136 0.0
H1622 H 0.19129 0.57537 0.18688 0.0
H1623 H 0.20653 0.60917 0.16452 0.0
C1624 C 0.28612 0.69956 0.18393 0.0
C1625 C 0.26774 0.71353 0.19065 0.0
C1626 C 0.28295 0.68021 0.16895 0.0
C1627 C 0.26131 0.67397 0.16082 0.0
C1628 C 0.24273 0.68716 0.16832 0.0
C1629 C 0.24593 0.7069 0.18291 0.0
C1630 C 0.25843 0.6537 0.14427 0.0
C1631 C 0.2486 0.63435 0.1554 0.0
C1632 C 0.2673 0.6528 0.11845 0.0
C1633 C 0.27692 0.67298 0.10513 0.0
C1634 C 0.26409 0.69283 0.10242 0.0
C1635 C 0.27283 0.71145 0.0888 0.0
C1636 C 0.29434 0.71037 0.07764 0.0
C1637 C 0.30726 0.69076 0.08033 0.0
C1638 C 0.29861 0.6721 0.09396 0.0
C1639 C 0.23227 0.56389 0.07778 0.0
C1640 C 0.25156 0.55465 0.06581 0.0
C1641 C 0.234 0.58258 0.09424 0.0
C1642 C 0.25507 0.59243 0.09921 0.0
C1643 C 0.27441 0.58314 0.08752 0.0
C1644 C 0.27271 0.56436 0.07108 0.0
C1645 C 0.25672 0.613 0.11567 0.0
C1646 C 0.26641 0.63244 0.10455 0.0
C1647 C 0.24782 0.61393 0.14153 0.0
C1648 C 0.23858 0.59363 0.15497 0.0
C1649 C 0.25155 0.57382 0.15718 0.0
C1650 C 0.24274 0.55473 0.16979 0.0
C1651 C 0.22102 0.55528 0.18045 0.0
C1652 C 0.20809 0.57496 0.17857 0.0
C1653 C 0.21682 0.59409 0.16595 0.0
H1654 H 0.21423 0.54049 0.19022 0.0
H1655 H 0.30105 0.72477 0.06702 0.0
H1656 H 0.33357 0.74564 0.78784 0.0
H1657 H 0.36826 0.75334 0.8126 0.0
H1658 H 0.33022 0.75278 0.88506 0.0
H1659 H 0.29569 0.74656 0.86049 0.0
H1660 H 0.35959 0.78314 0.88893 0.0
H1661 H 0.36158 0.7056 0.86136 0.0
H1662 H 0.36121 0.67461 0.82924 0.0
H1663 H 0.42077 0.70137 0.79247 0.0
H1664 H 0.42132 0.73269 0.8242 0.0
H1665 H 0.46143 0.7276 0.96089 0.0
H1666 H 0.43039 0.72486 0.92922 0.0
H1667 H 0.437 0.79577 0.91113 0.0
H1668 H 0.46747 0.79877 0.9432 0.0
H1669 H 0.42461 0.73124 0.87832 0.0
H1670 H 0.38596 0.819 0.90046 0.0
H1671 H 0.38365 0.84591 0.9372 0.0
H1672 H 0.39277 0.79168 0.99276 0.0
H1673 H 0.39482 0.76445 0.95639 0.0
C1674 C 0.3326 0.74764 0.80898 0.0
C1675 C 0.3119 0.7451 0.82221 0.0
C1676 C 0.35247 0.75177 0.82318 0.0
C1677 C 0.35202 0.75316 0.85084 0.0
C1678 C 0.33117 0.75168 0.86381 0.0
C1679 C 0.3114 0.74787 0.8497 0.0
C1680 C 0.37306 0.75537 0.86672 0.0
C1681 C 0.37385 0.77188 0.8864 0.0
C1682 C 0.39159 0.74044 0.86396 0.0
C1683 C 0.39134 0.7216 0.84494 0.0
C1684 C 0.3745 0.70495 0.8463 0.0
C1685 C 0.37427 0.68732 0.82819 0.0
C1686 C 0.39091 0.68606 0.80877 0.0
C1687 C 0.40786 0.7024 0.80748 0.0
C1688 C 0.40815 0.72008 0.82553 0.0
C1689 C 0.45634 0.74258 0.95006 0.0
C1690 C 0.46674 0.76346 0.95483 0.0
C1691 C 0.43865 0.74097 0.93188 0.0
C1692 C 0.43109 0.76018 0.91805 0.0
C1693 C 0.44217 0.78081 0.92193 0.0
C1694 C 0.45965 0.78247 0.94027 0.0
C1695 C 0.41099 0.75891 0.90052 0.0
C1696 C 0.41043 0.74266 0.88057 0.0
C1697 C 0.39226 0.77352 0.90365 0.0
C1698 C 0.39082 0.78975 0.92567 0.0
C1699 C 0.3874 0.81283 0.92052 0.0
C1700 C 0.38614 0.82813 0.94128 0.0
C1701 C 0.38815 0.82052 0.96729 0.0
C1702 C 0.39132 0.79757 0.97261 0.0
C1703 C 0.39255 0.7822 0.95193 0.0
H1704 H 0.38719 0.8324 0.98333 0.0
H1705 H 0.39071 0.6724 0.79477 0.0
H1706 H 0.23106 0.30983 0.82324 0.0
H1707 H 0.22964 0.346 0.84633 0.0
H1708 H 0.3024 0.34797 0.84797 0.0
H1709 H 0.3038 0.31181 0.82525 0.0
H1710 H 0.28624 0.35284 0.89561 0.0
H1711 H 0.27081 0.38662 0.8118 0.0
H1712 H 0.25127 0.39167 0.7693 0.0
H1713 H 0.18905 0.40462 0.80975 0.0
H1714 H 0.20815 0.39934 0.85251 0.0
H1715 H 0.29059 0.45812 0.96225 0.0
H1716 H 0.29526 0.42865 0.92914 0.0
H1717 H 0.22298 0.42206 0.92336 0.0
H1718 H 0.21817 0.45162 0.95599 0.0
H1719 H 0.24117 0.42138 0.87557 0.0
H1720 H 0.25465 0.38192 0.9578 0.0
H1721 H 0.27282 0.37444 1.00065 0.0
H1722 H 0.33764 0.37169 0.96313 0.0
H1723 H 0.31977 0.37883 0.91992 0.0
C1724 C 0.24669 0.31839 0.82782 0.0
C1725 C 0.26751 0.30801 0.82262 0.0
C1726 C 0.24591 0.33904 0.84105 0.0
C1727 C 0.26594 0.34974 0.84898 0.0
C1728 C 0.28673 0.34003 0.84221 0.0
C1729 C 0.28751 0.31941 0.82916 0.0
C1730 C 0.2653 0.3696 0.86674 0.0
C1731 C 0.27675 0.36802 0.89091 0.0
C1732 C 0.25243 0.38917 0.86106 0.0
C1733 C 0.24089 0.39239 0.83537 0.0
C1734 C 0.25292 0.39036 0.81164 0.0
C1735 C 0.24193 0.39331 0.7875 0.0
C1736 C 0.21893 0.39842 0.78682 0.0
C1737 C 0.20687 0.40065 0.8103 0.0
C1738 C 0.21778 0.39771 0.8345 0.0
C1739 C 0.27571 0.45041 0.95393 0.0
C1740 C 0.25403 0.45722 0.96189 0.0
C1741 C 0.27838 0.4335 0.93504 0.0
C1742 C 0.25945 0.42297 0.92387 0.0
C1743 C 0.23783 0.42994 0.9316 0.0
C1744 C 0.23515 0.44681 0.95039 0.0
C1745 C 0.262 0.4045 0.90439 0.0
C1746 C 0.25089 0.4063 0.88 0.0
C1747 C 0.27509 0.38504 0.90983 0.0
C1748 C 0.28593 0.38119 0.93575 0.0
C1749 C 0.2728 0.37991 0.95874 0.0
C1750 C 0.28303 0.37568 0.98307 0.0
C1751 C 0.3064 0.37282 0.98468 0.0
C1752 C 0.31956 0.374 0.96188 0.0
C1753 C 0.30938 0.37803 0.93745 0.0
H1754 H 0.31428 0.36958 1.00356 0.0
H1755 H 0.21045 0.40069 0.76811 0.0
H1756 H 0.67342 0.25931 0.78321 0.0
H1757 H 0.63799 0.25218 0.80713 0.0
H1758 H 0.67528 0.2471 0.87998 0.0
H1759 H 0.71032 0.25287 0.85613 0.0
H1760 H 0.6435 0.21973 0.88333 0.0
H1761 H 0.64809 0.29809 0.85493 0.0
H1762 H 0.65026 0.32889 0.82201 0.0
H1763 H 0.58824 0.30675 0.78723 0.0
H1764 H 0.58581 0.27565 0.8197 0.0
H1765 H 0.55082 0.28355 0.96024 0.0
H1766 H 0.5802 0.28424 0.92615 0.0
H1767 H 0.56553 0.21492 0.90754 0.0
H1768 H 0.53683 0.21394 0.94189 0.0
H1769 H 0.58381 0.27801 0.87429 0.0
H1770 H 0.61345 0.18657 0.89546 0.0
H1771 H 0.61362 0.15897 0.9321 0.0
H1772 H 0.61191 0.21294 0.98796 0.0
H1773 H 0.61205 0.24083 0.95167 0.0
C1774 C 0.67399 0.25592 0.80419 0.0
C1775 C 0.69458 0.25687 0.81786 0.0
C1776 C 0.65373 0.2522 0.81794 0.0
C1777 C 0.65378 0.24971 0.84557 0.0
C1778 C 0.67458 0.24908 0.85877 0.0
C1779 C 0.69468 0.25245 0.8451 0.0
C1780 C 0.63253 0.24901 0.86137 0.0
C1781 C 0.63039 0.23238 0.88109 0.0
C1782 C 0.61543 0.26569 0.85896 0.0
C1783 C 0.6169 0.28441 0.83953 0.0
C1784 C 0.63499 0.29972 0.84015 0.0
C1785 C 0.63627 0.31723 0.82161 0.0
C1786 C 0.61945 0.31973 0.80253 0.0
C1787 C 0.60128 0.30476 0.80199 0.0
C1788 C 0.59994 0.28719 0.82045 0.0
C1789 C 0.55371 0.26857 0.94865 0.0
C1790 C 0.54174 0.2486 0.95405 0.0
C1791 C 0.57046 0.26898 0.92912 0.0
C1792 C 0.57542 0.24949 0.91458 0.0
C1793 C 0.56243 0.23002 0.91886 0.0
C1794 C 0.54597 0.22951 0.93852 0.0
C1795 C 0.59509 0.24893 0.8963 0.0
C1796 C 0.59683 0.26522 0.87619 0.0
C1797 C 0.61226 0.2324 0.89886 0.0
C1798 C 0.61248 0.21575 0.92083 0.0
C1799 C 0.61318 0.19253 0.91556 0.0
C1800 C 0.61322 0.17684 0.93627 0.0
C1801 C 0.61269 0.18419 0.96234 0.0
C1802 C 0.61223 0.20726 0.96776 0.0
C1803 C 0.61223 0.22301 0.94713 0.0
H1804 H 0.61268 0.17202 0.97833 0.0
H1805 H 0.62048 0.33331 0.7882 0.0
H1806 H 0.77395 0.69385 0.80038 0.0
H1807 H 0.78575 0.65949 0.82386 0.0
H1808 H 0.78828 0.69652 0.89657 0.0
H1809 H 0.77767 0.73091 0.87311 0.0
H1810 H 0.82017 0.66692 0.89767 0.0
H1811 H 0.74067 0.66523 0.87653 0.0
H1812 H 0.70772 0.66599 0.84686 0.0
H1813 H 0.73269 0.60742 0.80702 0.0
H1814 H 0.76594 0.6065 0.83628 0.0
H1815 H 0.76104 0.56795 0.97154 0.0
H1816 H 0.76127 0.59957 0.94081 0.0
H1817 H 0.83184 0.588 0.92498 0.0
H1818 H 0.83187 0.55646 0.95668 0.0
H1819 H 0.76708 0.60266 0.89111 0.0
H1820 H 0.85648 0.63818 0.906 0.0
H1821 H 0.88595 0.63994 0.94026 0.0
H1822 H 0.83539 0.63467 1.00052 0.0
H1823 H 0.80563 0.63315 0.96664 0.0
C1824 C 0.77759 0.69478 0.82123 0.0
C1825 C 0.77449 0.71509 0.83492 0.0
C1826 C 0.78412 0.67505 0.83472 0.0
C1827 C 0.78745 0.6752 0.86218 0.0
C1828 C 0.78573 0.6958 0.87548 0.0
C1829 C 0.77942 0.71547 0.86203 0.0
C1830 C 0.79097 0.65391 0.87763 0.0
C1831 C 0.80869 0.65277 0.89602 0.0
C1832 C 0.77588 0.63547 0.8759 0.0
C1833 C 0.7559 0.63596 0.85835 0.0
C1834 C 0.7392 0.65261 0.86132 0.0
C1835 C 0.72047 0.65306 0.8446 0.0
C1836 C 0.71815 0.63681 0.82501 0.0
C1837 C 0.73453 0.62003 0.82216 0.0
C1838 C 0.75332 0.61953 0.8388 0.0
C1839 C 0.7767 0.5721 0.96164 0.0
C1840 C 0.79646 0.55962 0.96666 0.0
C1841 C 0.77677 0.5902 0.9439 0.0
C1842 C 0.79655 0.59634 0.93046 0.0
C1843 C 0.81639 0.58387 0.93531 0.0
C1844 C 0.81639 0.5658 0.9534 0.0
C1845 C 0.796 0.61583 0.91159 0.0
C1846 C 0.77886 0.61659 0.89246 0.0
C1847 C 0.81118 0.63421 0.91324 0.0
C1848 C 0.82889 0.63526 0.93378 0.0
C1849 C 0.85167 0.63744 0.92657 0.0
C1850 C 0.86842 0.63839 0.94592 0.0
C1851 C 0.86256 0.63733 0.97255 0.0
C1852 C 0.83992 0.63539 0.97989 0.0
C1853 C 0.82311 0.63446 0.96063 0.0
H1854 H 0.87555 0.63806 0.98749 0.0
H1855 H 0.70363 0.63718 0.81209 0.0
loop_
_geom_bond_atom_site_label_1
_geom_bond_atom_site_label_2
_geom_bond_distance
_geom_bond_site_symmetry_2
_ccdc_geom_bond_type
H0 C6 0.930 . S
H1 C9 0.931 . S
H2 C11 0.931 . S
H3 C13 0.930 . S
H4 C15 0.930 . S
H5 C17 0.931 . S
C6 H0 0.930 . S
C6 C7 1.380 . S
C6 C8 1.394 . S
C7 C6 1.380 . S
C7 C11 1.382 . S
C8 C6 1.394 . S
C8 C9 1.400 . S
C9 H1 0.931 . S
C9 C8 1.400 . S
C9 C10 1.375 . S
C10 C9 1.375 . S
C10 C11 1.415 . S
C10 C12 1.501 . S
C11 H2 0.931 . S
C11 C7 1.382 . S
C11 C10 1.415 . S
C12 C10 1.501 . S
C12 C13 1.384 . S
C12 C17 1.408 . S
C13 H3 0.930 . S
C13 C12 1.384 . S
C13 C14 1.389 . S
C14 C13 1.389 . S
C14 C15 1.405 . S
C15 H4 0.930 . S
C15 C14 1.405 . S
C15 C16 1.364 . S
C16 C15 1.364 . S
C16 C17 1.400 . S
C17 H5 0.931 . S
C17 C12 1.408 . S
C17 C16 1.400 . S
H18 C24 0.930 . S
H19 C27 0.931 . S
H20 C29 0.931 . S
H21 C31 0.930 . S
H22 C33 0.930 . S
H23 C35 0.931 . S
C24 H18 0.930 . S
C24 C25 1.380 . S
C24 C26 1.394 . S
C25 C24 1.380 . S
C25 C29 1.382 . S
C26 C24 1.394 . S
C26 C27 1.400 . S
C27 H19 0.931 . S
C27 C26 1.400 . S
C27 C28 1.375 . S
C28 C27 1.375 . S
C28 C29 1.415 . S
C28 C30 1.501 . S
C29 H20 0.931 . S
C29 C25 1.382 . S
C29 C28 1.415 . S
C30 C28 1.501 . S
C30 C31 1.384 . S
C30 C35 1.408 . S
C31 H21 0.930 . S
C31 C30 1.384 . S
C31 C32 1.389 . S
C32 C31 1.389 . S
C32 C33 1.405 . S
C33 H22 0.930 . S
C33 C32 1.405 . S
C33 C34 1.364 . S
C34 C33 1.364 . S
C34 C35 1.400 . S
C35 H23 0.931 . S
C35 C30 1.408 . S
C35 C34 1.400 . S
H36 C42 0.930 . S
H37 C45 0.931 . S
H38 C47 0.931 . S
H39 C49 0.930 . S
H40 C51 0.930 . S
H41 C53 0.931 . S
C42 H36 0.930 . S
C42 C43 1.380 . S
C42 C44 1.394 . S
C43 C42 1.380 . S
C43 C47 1.382 . S
C44 C42 1.394 . S
C44 C45 1.400 . S
C45 H37 0.931 . S
C45 C44 1.400 . S
C45 C46 1.375 . S
C46 C45 1.375 . S
C46 C47 1.415 . S
C46 C48 1.501 . S
C47 H38 0.931 . S
C47 C43 1.382 . S
C47 C46 1.415 . S
C48 C46 1.501 . S
C48 C49 1.384 . S
C48 C53 1.408 . S
C49 H39 0.930 . S
C49 C48 1.384 . S
C49 C50 1.389 . S
C50 C49 1.389 . S
C50 C51 1.405 . S
C51 H40 0.930 . S
C51 C50 1.405 . S
C51 C52 1.364 . S
C52 C51 1.364 . S
C52 C53 1.400 . S
C53 H41 0.931 . S
C53 C48 1.408 . S
C53 C52 1.400 . S
H54 C60 0.930 . S
H55 C63 0.931 . S
H56 C65 0.931 . S
H57 C67 0.930 . S
H58 C69 0.930 . S
H59 C71 0.931 . S
C60 H54 0.930 . S
C60 C61 1.380 . S
C60 C62 1.394 . S
C61 C60 1.380 . S
C61 C65 1.382 . S
C62 C60 1.394 . S
C62 C63 1.400 . S
C63 H55 0.931 . S
C63 C62 1.400 . S
C63 C64 1.375 . S
C64 C63 1.375 . S
C64 C65 1.415 . S
C64 C66 1.501 . S
C65 H56 0.931 . S
C65 C61 1.382 . S
C65 C64 1.415 . S
C66 C64 1.501 . S
C66 C67 1.384 . S
C66 C71 1.408 . S
C67 H57 0.930 . S
C67 C66 1.384 . S
C67 C68 1.389 . S
C68 C67 1.389 . S
C68 C69 1.405 . S
C69 H58 0.930 . S
C69 C68 1.405 . S
C69 C70 1.364 . S
C70 C69 1.364 . S
C70 C71 1.400 . S
C71 H59 0.931 . S
C71 C66 1.408 . S
C71 C70 1.400 . S
H72 C78 0.930 . S
H73 C81 0.931 . S
H74 C83 0.931 . S
H75 C85 0.930 . S
H76 C87 0.930 . S
H77 C89 0.931 . S
C78 H72 0.930 . S
C78 C79 1.380 . S
C78 C80 1.394 . S
C79 C78 1.380 . S
C79 C83 1.382 . S
C80 C78 1.394 . S
C80 C81 1.400 . S
C81 H73 0.931 . S
C81 C80 1.400 . S
C81 C82 1.375 . S
C82 C81 1.375 . S
C82 C83 1.415 . S
C82 C84 1.501 . S
C83 H74 0.931 . S
C83 C79 1.382 . S
C83 C82 1.415 . S
C84 C82 1.501 . S
C84 C85 1.384 . S
C84 C89 1.408 . S
C85 H75 0.930 . S
C85 C84 1.384 . S
C85 C86 1.389 . S
C86 C85 1.389 . S
C86 C87 1.405 . S
C87 H76 0.930 . S
C87 C86 1.405 . S
C87 C88 1.364 . S
C88 C87 1.364 . S
C88 C89 1.400 . S
C89 H77 0.931 . S
C89 C84 1.408 . S
C89 C88 1.400 . S
H90 C96 0.930 . S
H91 C99 0.931 . S
H92 C101 0.931 . S
H93 C103 0.930 . S
H94 C105 0.930 . S
H95 C107 0.931 . S
C96 H90 0.930 . S
C96 C97 1.380 . S
C96 C98 1.394 . S
C97 C96 1.380 . S
C97 C101 1.382 . S
C98 C96 1.394 . S
C98 C99 1.400 . S
C99 H91 0.931 . S
C99 C98 1.400 . S
C99 C100 1.375 . S
C100 C99 1.375 . S
C100 C101 1.415 . S
C100 C102 1.501 . S
C101 H92 0.931 . S
C101 C97 1.382 . S
C101 C100 1.415 . S
C102 C100 1.501 . S
C102 C103 1.384 . S
C102 C107 1.408 . S
C103 H93 0.930 . S
C103 C102 1.384 . S
C103 C104 1.389 . S
C104 C103 1.389 . S
C104 C105 1.405 . S
C105 H94 0.930 . S
C105 C104 1.405 . S
C105 C106 1.364 . S
C106 C105 1.364 . S
C106 C107 1.400 . S
C107 H95 0.931 . S
C107 C102 1.408 . S
C107 C106 1.400 . S
H108 C114 0.930 . S
H109 C117 0.931 . S
H110 C119 0.931 . S
H111 C121 0.930 . S
H112 C123 0.930 . S
H113 C125 0.931 . S
C114 H108 0.930 . S
C114 C115 1.380 . S
C114 C116 1.394 . S
C115 C114 1.380 . S
C115 C119 1.382 . S
C116 C114 1.394 . S
C116 C117 1.400 . S
C117 H109 0.931 . S
C117 C116 1.400 . S
C117 C118 1.375 . S
C118 C117 1.375 . S
C118 C119 1.415 . S
C118 C120 1.501 . S
C119 H110 0.931 . S
C119 C115 1.382 . S
C119 C118 1.415 . S
C120 C118 1.501 . S
C120 C121 1.384 . S
C120 C125 1.408 . S
C121 H111 0.930 . S
C121 C120 1.384 . S
C121 C122 1.389 . S
C122 C121 1.389 . S
C122 C123 1.405 . S
C123 H112 0.930 . S
C123 C122 1.405 . S
C123 C124 1.364 . S
C124 C123 1.364 . S
C124 C125 1.400 . S
C125 H113 0.931 . S
C125 C120 1.408 . S
C125 C124 1.400 . S
H126 C132 0.930 . S
H127 C135 0.931 . S
H128 C137 0.931 . S
H129 C139 0.930 . S
H130 C141 0.930 . S
H131 C143 0.931 . S
C132 H126 0.930 . S
C132 C133 1.380 . S
C132 C134 1.394 . S
C133 C132 1.380 . S
C133 C137 1.382 . S
C134 C132 1.394 . S
C134 C135 1.400 . S
C135 H127 0.931 . S
C135 C134 1.400 . S
C135 C136 1.375 . S
C136 C135 1.375 . S
C136 C137 1.415 . S
C136 C138 1.501 . S
C137 H128 0.931 . S
C137 C133 1.382 . S
C137 C136 1.415 . S
C138 C136 1.501 . S
C138 C139 1.384 . S
C138 C143 1.408 . S
C139 H129 0.930 . S
C139 C138 1.384 . S
C139 C140 1.389 . S
C140 C139 1.389 . S
C140 C141 1.405 . S
C141 H130 0.930 . S
C141 C140 1.405 . S
C141 C142 1.364 . S
C142 C141 1.364 . S
C142 C143 1.400 . S
C143 H131 0.931 . S
C143 C138 1.408 . S
C143 C142 1.400 . S
C144 O146 1.247 . S
C144 O148 1.258 . S
C145 O152 1.247 . S
C145 O153 1.258 . S
O146 C144 1.247 . S
O146 Zn147 2.028 1_655 S
Zn147 O146 2.028 1_455 S
Zn147 O151 2.035 . S
Zn147 O153 2.035 . S
Zn147 O154 2.028 1_455 S
O148 C144 1.258 . S
O148 Zn149 2.035 1_655 S
Zn149 O148 2.035 1_455 S
Zn149 O150 2.028 . S
Zn149 O152 2.028 . S
Zn149 O155 2.035 1_455 S
O150 Zn149 2.028 . S
O150 C156 1.247 . S
O151 Zn147 2.035 . S
O151 C156 1.258 . S
O152 C145 1.247 . S
O152 Zn149 2.028 . S
O153 C145 1.258 . S
O153 Zn147 2.035 . S
O154 Zn147 2.028 1_655 S
O154 C157 1.247 . S
O155 Zn149 2.035 1_655 S
O155 C157 1.258 . S
C156 O150 1.247 . S
C156 O151 1.258 . S
C157 O154 1.247 . S
C157 O155 1.258 . S
C158 O160 1.247 . S
C158 O162 1.258 . S
C159 O166 1.247 . S
C159 O167 1.258 . S
O160 C158 1.247 . S
O160 Zn161 2.028 . S
Zn161 O160 2.028 . S
Zn161 O165 2.035 1_545 S
Zn161 O167 2.035 1_545 S
Zn161 O168 2.028 . S
O162 C158 1.258 . S
O162 Zn163 2.070 . S
Zn163 O162 2.070 . S
Zn163 O164 1.994 1_545 S
Zn163 O166 1.995 1_545 S
Zn163 O169 2.070 . S
O164 Zn163 1.994 1_565 S
O164 C170 1.247 . S
O165 Zn161 2.035 1_565 S
O165 C170 1.258 . S
O166 C159 1.247 . S
O166 Zn163 1.995 1_565 S
O167 C159 1.258 . S
O167 Zn161 2.035 1_565 S
O168 Zn161 2.028 . S
O168 C171 1.247 . S
O169 Zn163 2.070 . S
O169 C171 1.258 . S
C170 O164 1.247 . S
C170 O165 1.258 . S
C171 O168 1.247 . S
C171 O169 1.258 . S
C172 O174 1.247 . S
C172 O176 1.258 . S
C173 O180 1.247 . S
C173 O181 1.258 . S
O174 C172 1.247 . S
O174 Zn175 2.028 1_655 S
Zn175 O174 2.028 1_455 S
Zn175 O179 2.035 . S
Zn175 O181 2.035 . S
Zn175 O182 2.028 1_455 S
O176 C172 1.258 . S
O176 Zn177 2.035 1_655 S
Zn177 O176 2.035 1_455 S
Zn177 O178 2.028 . S
Zn177 O180 2.028 . S
Zn177 O183 2.035 1_455 S
O178 Zn177 2.028 . S
O178 C184 1.247 . S
O179 Zn175 2.035 . S
O179 C184 1.258 . S
O180 C173 1.247 . S
O180 Zn177 2.028 . S
O181 C173 1.258 . S
O181 Zn175 2.035 . S
O182 Zn175 2.028 1_655 S
O182 C185 1.247 . S
O183 Zn177 2.035 1_655 S
O183 C185 1.258 . S
C184 O178 1.247 . S
C184 O179 1.258 . S
C185 O182 1.247 . S
C185 O183 1.258 . S
C186 O188 1.247 . S
C186 O190 1.258 . S
C187 O194 1.247 . S
C187 O195 1.258 . S
O188 C186 1.247 . S
O188 Zn189 2.060 . S
Zn189 O188 2.060 . S
Zn189 O193 2.003 1_545 S
Zn189 O195 2.003 1_545 S
Zn189 O196 2.060 . S
O190 C186 1.258 . S
O190 Zn191 2.053 . S
Zn191 O190 2.053 . S
Zn191 O192 2.010 1_545 S
Zn191 O194 2.010 1_545 S
Zn191 O197 2.054 . S
O192 Zn191 2.010 1_565 S
O192 C198 1.247 . S
O193 Zn189 2.003 1_565 S
O193 C198 1.258 . S
O194 C187 1.247 . S
O194 Zn191 2.010 1_565 S
O195 C187 1.258 . S
O195 Zn189 2.003 1_565 S
O196 Zn189 2.060 . S
O196 C199 1.247 . S
O197 Zn191 2.054 . S
O197 C199 1.258 . S
C198 O192 1.247 . S
C198 O193 1.258 . S
C199 O196 1.247 . S
C199 O197 1.258 . S
C200 O202 1.247 . S
C200 O204 1.258 . S
C201 O208 1.247 . S
C201 O209 1.258 . S
O202 C200 1.247 . S
O202 Zn203 2.028 . S
Zn203 O202 2.028 . S
Zn203 O207 2.035 . S
Zn203 O209 2.036 1_554 S
Zn203 O210 2.028 1_554 S
O204 C200 1.258 . S
O204 Zn205 2.036 . S
Zn205 O204 2.036 . S
Zn205 O206 2.028 . S
Zn205 O208 2.028 1_554 S
Zn205 O211 2.035 1_554 S
O206 Zn205 2.028 . S
O206 C212 1.247 . S
O207 Zn203 2.035 . S
O207 C212 1.258 . S
O208 C201 1.247 . S
O208 Zn205 2.028 1_556 S
O209 C201 1.258 . S
O209 Zn203 2.036 1_556 S
O210 Zn203 2.028 1_556 S
O210 C213 1.247 . S
O211 Zn205 2.035 1_556 S
O211 C213 1.258 . S
C212 O206 1.247 . S
C212 O207 1.258 . S
C213 O210 1.247 . S
C213 O211 1.258 . S
C214 O216 1.247 . S
C214 O218 1.258 . S
C215 O222 1.247 . S
C215 O223 1.258 . S
O216 C214 1.247 . S
O216 Zn217 2.050 . S
Zn217 O216 2.050 . S
Zn217 O221 2.057 . S
Zn217 O223 2.014 1_554 S
Zn217 O224 2.006 1_554 S
O218 C214 1.258 . S
O218 Zn219 2.059 . S
Zn219 O218 2.059 . S
Zn219 O220 2.052 . S
Zn219 O222 2.004 1_554 S
Zn219 O225 2.012 1_554 S
O220 Zn219 2.052 . S
O220 C226 1.247 . S
O221 Zn217 2.057 . S
O221 C226 1.258 . S
O222 C215 1.247 . S
O222 Zn219 2.004 1_556 S
O223 C215 1.258 . S
O223 Zn217 2.014 1_556 S
O224 Zn217 2.006 1_556 S
O224 C227 1.247 . S
O225 Zn219 2.012 1_556 S
O225 C227 1.258 . S
C226 O220 1.247 . S
C226 O221 1.258 . S
C227 O224 1.247 . S
C227 O225 1.258 . S
C228 O230 1.247 . S
C228 O232 1.258 . S
C229 O236 1.247 . S
C229 O237 1.258 . S
O230 C228 1.247 . S
O230 Zn231 2.004 1_556 S
Zn231 O230 2.004 1_554 S
Zn231 O235 2.011 1_554 S
Zn231 O237 2.059 . S
Zn231 O238 2.052 . S
O232 C228 1.258 . S
O232 Zn233 2.011 1_556 S
Zn233 O232 2.011 1_554 S
Zn233 O234 2.003 1_554 S
Zn233 O236 2.053 . S
Zn233 O239 2.060 . S
O234 Zn233 2.003 1_556 S
O234 C240 1.247 . S
O235 Zn231 2.011 1_556 S
O235 C240 1.258 . S
O236 C229 1.247 . S
O236 Zn233 2.053 . S
O237 C229 1.258 . S
O237 Zn231 2.059 . S
O238 Zn231 2.052 . S
O238 C241 1.247 . S
O239 Zn233 2.060 . S
O239 C241 1.258 . S
C240 O234 1.247 . S
C240 O235 1.258 . S
C241 O238 1.247 . S
C241 O239 1.258 . S
C242 O244 1.247 . S
C242 O246 1.258 . S
C243 O250 1.247 . S
C243 O251 1.258 . S
O244 C242 1.247 . S
O244 Zn245 2.037 . S
Zn245 O244 2.037 . S
Zn245 O249 2.045 . S
Zn245 O251 2.026 1_554 S
Zn245 O252 2.018 1_554 S
O246 C242 1.258 . S
O246 Zn247 2.047 . S
Zn247 O246 2.047 . S
Zn247 O248 2.040 . S
Zn247 O250 2.016 1_554 S
Zn247 O253 2.024 1_554 S
O248 Zn247 2.040 . S
O248 C254 1.247 . S
O249 Zn245 2.045 . S
O249 C254 1.258 . S
O250 C243 1.247 . S
O250 Zn247 2.016 1_556 S
O251 C243 1.258 . S
O251 Zn245 2.026 1_556 S
O252 Zn245 2.018 1_556 S
O252 C255 1.247 . S
O253 Zn247 2.024 1_556 S
O253 C255 1.258 . S
C254 O248 1.247 . S
C254 O249 1.258 . S
C255 O252 1.247 . S
C255 O253 1.258 . S
H256 C274 0.951 . S
H257 C276 0.951 . S
H258 C278 0.950 . S
H259 C279 0.950 . S
H260 C281 0.950 . S
H261 C284 0.950 . S
H262 C285 0.950 . S
H263 C287 0.950 . S
H264 C288 0.950 . S
H265 C289 0.951 . S
H266 C291 0.951 . S
H267 C293 0.950 . S
H268 C294 0.950 . S
H269 C296 0.950 . S
H270 C299 0.950 . S
H271 C300 0.950 . S
H272 C302 0.950 . S
H273 C303 0.950 . S
C274 H256 0.951 . S
C274 C275 1.366 . S
C274 C276 1.388 . S
C275 C274 1.366 . S
C275 C279 1.385 . S
C276 H257 0.951 . S
C276 C274 1.388 . S
C276 C277 1.366 . S
C277 C276 1.366 . S
C277 C278 1.414 . S
C277 C280 1.499 . S
C278 H258 0.950 . S
C278 C277 1.414 . S
C278 C279 1.374 . S
C279 H259 0.950 . S
C279 C275 1.385 . S
C279 C278 1.374 . S
C280 C277 1.499 . S
C280 C281 1.373 . S
C280 C282 1.389 . S
C281 H260 0.950 . S
C281 C280 1.373 . S
C281 C297 1.377 . S
C282 C280 1.389 . S
C282 C283 1.524 . S
C282 C296 1.377 . S
C283 C282 1.524 . S
C283 C284 1.397 . S
C283 C288 1.363 . S
C284 H261 0.950 . S
C284 C283 1.397 . S
C284 C285 1.334 . S
C285 H262 0.950 . S
C285 C284 1.334 . S
C285 C286 1.287 . S
C286 C285 1.287 . S
C286 C287 1.524 . S
C286 H305 0.913 . S
C287 H263 0.950 . S
C287 C286 1.524 . S
C287 C288 1.415 . S
C288 H264 0.950 . S
C288 C283 1.363 . S
C288 C287 1.415 . S
C289 H265 0.951 . S
C289 C290 1.366 . S
C289 C291 1.388 . S
C290 C289 1.366 . S
C290 C294 1.385 . S
C291 H266 0.951 . S
C291 C289 1.388 . S
C291 C292 1.366 . S
C292 C291 1.366 . S
C292 C293 1.414 . S
C292 C295 1.499 . S
C293 H267 0.950 . S
C293 C292 1.414 . S
C293 C294 1.374 . S
C294 H268 0.950 . S
C294 C290 1.385 . S
C294 C293 1.374 . S
C295 C292 1.499 . S
C295 C296 1.373 . S
C295 C297 1.389 . S
C296 H269 0.950 . S
C296 C282 1.377 . S
C296 C295 1.373 . S
C297 C281 1.377 . S
C297 C295 1.389 . S
C297 C298 1.524 . S
C298 C297 1.524 . S
C298 C299 1.397 . S
C298 C303 1.363 . S
C299 H270 0.950 . S
C299 C298 1.397 . S
C299 C300 1.334 . S
C300 H271 0.950 . S
C300 C299 1.334 . S
C300 C301 1.287 . S
C301 C300 1.287 . S
C301 C302 1.524 . S
C301 H304 0.999 . S
C302 H272 0.950 . S
C302 C301 1.524 . S
C302 C303 1.415 . S
C303 H273 0.950 . S
C303 C298 1.363 . S
C303 C302 1.415 . S
H304 C301 0.999 . S
H305 C286 0.913 . S
H306 C324 0.951 . S
H307 C326 0.951 . S
H308 C328 0.950 . S
H309 C329 0.950 . S
H310 C331 0.950 . S
H311 C334 0.950 . S
H312 C335 0.950 . S
H313 C337 0.950 . S
H314 C338 0.950 . S
H315 C339 0.951 . S
H316 C341 0.951 . S
H317 C343 0.950 . S
H318 C344 0.950 . S
H319 C346 0.950 . S
H320 C349 0.950 . S
H321 C350 0.950 . S
H322 C352 0.950 . S
H323 C353 0.950 . S
C324 H306 0.951 . S
C324 C325 1.366 . S
C324 C326 1.388 . S
C325 C324 1.366 . S
C325 C329 1.385 . S
C326 H307 0.951 . S
C326 C324 1.388 . S
C326 C327 1.366 . S
C327 C326 1.366 . S
C327 C328 1.414 . S
C327 C330 1.499 . S
C328 H308 0.950 . S
C328 C327 1.414 . S
C328 C329 1.374 . S
C329 H309 0.950 . S
C329 C325 1.385 . S
C329 C328 1.374 . S
C330 C327 1.499 . S
C330 C331 1.373 . S
C330 C332 1.389 . S
C331 H310 0.950 . S
C331 C330 1.373 . S
C331 C347 1.377 . S
C332 C330 1.389 . S
C332 C333 1.524 . S
C332 C346 1.377 . S
C333 C332 1.524 . S
C333 C334 1.397 . S
C333 C338 1.363 . S
C334 H311 0.950 . S
C334 C333 1.397 . S
C334 C335 1.334 . S
C335 H312 0.950 . S
C335 C334 1.334 . S
C335 C336 1.287 . S
C336 C335 1.287 . S
C336 C337 1.524 . S
C336 H355 0.913 . S
C337 H313 0.950 . S
C337 C336 1.524 . S
C337 C338 1.415 . S
C338 H314 0.950 . S
C338 C333 1.363 . S
C338 C337 1.415 . S
C339 H315 0.951 . S
C339 C340 1.366 . S
C339 C341 1.388 . S
C340 C339 1.366 . S
C340 C344 1.385 . S
C341 H316 0.951 . S
C341 C339 1.388 . S
C341 C342 1.366 . S
C342 C341 1.366 . S
C342 C343 1.414 . S
C342 C345 1.499 . S
C343 H317 0.950 . S
C343 C342 1.414 . S
C343 C344 1.374 . S
C344 H318 0.950 . S
C344 C340 1.385 . S
C344 C343 1.374 . S
C345 C342 1.499 . S
C345 C346 1.373 . S
C345 C347 1.389 . S
C346 H319 0.950 . S
C346 C332 1.377 . S
C346 C345 1.373 . S
C347 C331 1.377 . S
C347 C345 1.389 . S
C347 C348 1.524 . S
C348 C347 1.524 . S
C348 C349 1.397 . S
C348 C353 1.363 . S
C349 H320 0.950 . S
C349 C348 1.397 . S
C349 C350 1.334 . S
C350 H321 0.950 . S
C350 C349 1.334 . S
C350 C351 1.287 . S
C351 C350 1.287 . S
C351 C352 1.524 . S
C351 H354 0.999 . S
C352 H322 0.950 . S
C352 C351 1.524 . S
C352 C353 1.415 . S
C353 H323 0.950 . S
C353 C348 1.363 . S
C353 C352 1.415 . S
H354 C351 0.999 . S
H355 C336 0.913 . S
H356 C374 0.951 . S
H357 C376 0.951 . S
H358 C378 0.950 . S
H359 C379 0.950 . S
H360 C381 0.950 . S
H361 C384 0.950 . S
H362 C385 0.950 . S
H363 C387 0.950 . S
H364 C388 0.950 . S
H365 C389 0.951 . S
H366 C391 0.951 . S
H367 C393 0.950 . S
H368 C394 0.950 . S
H369 C396 0.950 . S
H370 C399 0.950 . S
H371 C400 0.950 . S
H372 C402 0.950 . S
H373 C403 0.950 . S
C374 H356 0.951 . S
C374 C375 1.366 . S
C374 C376 1.388 . S
C375 C374 1.366 . S
C375 C379 1.385 . S
C376 H357 0.951 . S
C376 C374 1.388 . S
C376 C377 1.366 . S
C377 C376 1.366 . S
C377 C378 1.414 . S
C377 C380 1.499 . S
C378 H358 0.950 . S
C378 C377 1.414 . S
C378 C379 1.374 . S
C379 H359 0.950 . S
C379 C375 1.385 . S
C379 C378 1.374 . S
C380 C377 1.499 . S
C380 C381 1.373 . S
C380 C382 1.389 . S
C381 H360 0.950 . S
C381 C380 1.373 . S
C381 C397 1.377 . S
C382 C380 1.389 . S
C382 C383 1.524 . S
C382 C396 1.377 . S
C383 C382 1.524 . S
C383 C384 1.397 . S
C383 C388 1.363 . S
C384 H361 0.950 . S
C384 C383 1.397 . S
C384 C385 1.334 . S
C385 H362 0.950 . S
C385 C384 1.334 . S
C385 C386 1.287 . S
C386 C385 1.287 . S
C386 C387 1.524 . S
C386 H405 0.913 . S
C387 H363 0.950 . S
C387 C386 1.524 . S
C387 C388 1.415 . S
C388 H364 0.950 . S
C388 C383 1.363 . S
C388 C387 1.415 . S
C389 H365 0.951 . S
C389 C390 1.366 . S
C389 C391 1.388 . S
C390 C389 1.366 . S
C390 C394 1.385 . S
C391 H366 0.951 . S
C391 C389 1.388 . S
C391 C392 1.366 . S
C392 C391 1.366 . S
C392 C393 1.414 . S
C392 C395 1.499 . S
C393 H367 0.950 . S
C393 C392 1.414 . S
C393 C394 1.374 . S
C394 H368 0.950 . S
C394 C390 1.385 . S
C394 C393 1.374 . S
C395 C392 1.499 . S
C395 C396 1.373 . S
C395 C397 1.389 . S
C396 H369 0.950 . S
C396 C382 1.377 . S
C396 C395 1.373 . S
C397 C381 1.377 . S
C397 C395 1.389 . S
C397 C398 1.524 . S
C398 C397 1.524 . S
C398 C399 1.397 . S
C398 C403 1.363 . S
C399 H370 0.950 . S
C399 C398 1.397 . S
C399 C400 1.334 . S
C400 H371 0.950 . S
C400 C399 1.334 . S
C400 C401 1.287 . S
C401 C400 1.287 . S
C401 C402 1.524 . S
C401 H404 0.999 . S
C402 H372 0.950 . S
C402 C401 1.524 . S
C402 C403 1.415 . S
C403 H373 0.950 . S
C403 C398 1.363 . S
C403 C402 1.415 . S
H404 C401 0.999 . S
H405 C386 0.913 . S
H406 C424 0.951 . S
H407 C426 0.951 . S
H408 C428 0.950 . S
H409 C429 0.950 . S
H410 C431 0.950 . S
H411 C434 0.950 . S
H412 C435 0.950 . S
H413 C437 0.950 . S
H414 C438 0.950 . S
H415 C439 0.951 . S
H416 C441 0.951 . S
H417 C443 0.950 . S
H418 C444 0.950 . S
H419 C446 0.950 . S
H420 C449 0.950 . S
H421 C450 0.950 . S
H422 C452 0.950 . S
H423 C453 0.950 . S
C424 H406 0.951 . S
C424 C425 1.366 . S
C424 C426 1.388 . S
C425 C424 1.366 . S
C425 C429 1.385 . S
C426 H407 0.951 . S
C426 C424 1.388 . S
C426 C427 1.366 . S
C427 C426 1.366 . S
C427 C428 1.414 . S
C427 C430 1.499 . S
C428 H408 0.950 . S
C428 C427 1.414 . S
C428 C429 1.374 . S
C429 H409 0.950 . S
C429 C425 1.385 . S
C429 C428 1.374 . S
C430 C427 1.499 . S
C430 C431 1.373 . S
C430 C432 1.389 . S
C431 H410 0.950 . S
C431 C430 1.373 . S
C431 C447 1.377 . S
C432 C430 1.389 . S
C432 C433 1.524 . S
C432 C446 1.377 . S
C433 C432 1.524 . S
C433 C434 1.397 . S
C433 C438 1.363 . S
C434 H411 0.950 . S
C434 C433 1.397 . S
C434 C435 1.334 . S
C435 H412 0.950 . S
C435 C434 1.334 . S
C435 C436 1.287 . S
C436 C435 1.287 . S
C436 C437 1.524 . S
C436 H455 0.913 . S
C437 H413 0.950 . S
C437 C436 1.524 . S
C437 C438 1.415 . S
C438 H414 0.950 . S
C438 C433 1.363 . S
C438 C437 1.415 . S
C439 H415 0.951 . S
C439 C440 1.366 . S
C439 C441 1.388 . S
C440 C439 1.366 . S
C440 C444 1.385 . S
C441 H416 0.951 . S
C441 C439 1.388 . S
C441 C442 1.366 . S
C442 C441 1.366 . S
C442 C443 1.414 . S
C442 C445 1.499 . S
C443 H417 0.950 . S
C443 C442 1.414 . S
C443 C444 1.374 . S
C444 H418 0.950 . S
C444 C440 1.385 . S
C444 C443 1.374 . S
C445 C442 1.499 . S
C445 C446 1.373 . S
C445 C447 1.389 . S
C446 H419 0.950 . S
C446 C432 1.377 . S
C446 C445 1.373 . S
C447 C431 1.377 . S
C447 C445 1.389 . S
C447 C448 1.524 . S
C448 C447 1.524 . S
C448 C449 1.397 . S
C448 C453 1.363 . S
C449 H420 0.950 . S
C449 C448 1.397 . S
C449 C450 1.334 . S
C450 H421 0.950 . S
C450 C449 1.334 . S
C450 C451 1.287 . S
C451 C450 1.287 . S
C451 C452 1.524 . S
C451 H454 0.999 . S
C452 H422 0.950 . S
C452 C451 1.524 . S
C452 C453 1.415 . S
C453 H423 0.950 . S
C453 C448 1.363 . S
C453 C452 1.415 . S
H454 C451 0.999 . S
H455 C436 0.913 . S
H456 C474 0.951 . S
H457 C476 0.951 . S
H458 C478 0.950 . S
H459 C479 0.950 . S
H460 C481 0.950 . S
H461 C484 0.950 . S
H462 C485 0.950 . S
H463 C487 0.950 . S
H464 C488 0.950 . S
H465 C489 0.951 . S
H466 C491 0.951 . S
H467 C493 0.950 . S
H468 C494 0.950 . S
H469 C496 0.950 . S
H470 C499 0.950 . S
H471 C500 0.950 . S
H472 C502 0.950 . S
H473 C503 0.950 . S
C474 H456 0.951 . S
C474 C475 1.366 . S
C474 C476 1.388 . S
C475 C474 1.366 . S
C475 C479 1.385 . S
C476 H457 0.951 . S
C476 C474 1.388 . S
C476 C477 1.366 . S
C477 C476 1.366 . S
C477 C478 1.414 . S
C477 C480 1.499 . S
C478 H458 0.950 . S
C478 C477 1.414 . S
C478 C479 1.374 . S
C479 H459 0.950 . S
C479 C475 1.385 . S
C479 C478 1.374 . S
C480 C477 1.499 . S
C480 C481 1.373 . S
C480 C482 1.389 . S
C481 H460 0.950 . S
C481 C480 1.373 . S
C481 C497 1.377 . S
C482 C480 1.389 . S
C482 C483 1.524 . S
C482 C496 1.377 . S
C483 C482 1.524 . S
C483 C484 1.397 . S
C483 C488 1.363 . S
C484 H461 0.950 . S
C484 C483 1.397 . S
C484 C485 1.334 . S
C485 H462 0.950 . S
C485 C484 1.334 . S
C485 C486 1.287 . S
C486 C485 1.287 . S
C486 C487 1.524 . S
C486 H505 0.913 . S
C487 H463 0.950 . S
C487 C486 1.524 . S
C487 C488 1.415 . S
C488 H464 0.950 . S
C488 C483 1.363 . S
C488 C487 1.415 . S
C489 H465 0.951 . S
C489 C490 1.366 . S
C489 C491 1.388 . S
C490 C489 1.366 . S
C490 C494 1.385 . S
C491 H466 0.951 . S
C491 C489 1.388 . S
C491 C492 1.366 . S
C492 C491 1.366 . S
C492 C493 1.414 . S
C492 C495 1.499 . S
C493 H467 0.950 . S
C493 C492 1.414 . S
C493 C494 1.374 . S
C494 H468 0.950 . S
C494 C490 1.385 . S
C494 C493 1.374 . S
C495 C492 1.499 . S
C495 C496 1.373 . S
C495 C497 1.389 . S
C496 H469 0.950 . S
C496 C482 1.377 . S
C496 C495 1.373 . S
C497 C481 1.377 . S
C497 C495 1.389 . S
C497 C498 1.524 . S
C498 C497 1.524 . S
C498 C499 1.397 . S
C498 C503 1.363 . S
C499 H470 0.950 . S
C499 C498 1.397 . S
C499 C500 1.334 . S
C500 H471 0.950 . S
C500 C499 1.334 . S
C500 C501 1.287 . S
C501 C500 1.287 . S
C501 C502 1.524 . S
C501 H504 0.999 . S
C502 H472 0.950 . S
C502 C501 1.524 . S
C502 C503 1.415 . S
C503 H473 0.950 . S
C503 C498 1.363 . S
C503 C502 1.415 . S
H504 C501 0.999 . S
H505 C486 0.913 . S
H506 C524 0.951 . S
H507 C526 0.951 . S
H508 C528 0.950 . S
H509 C529 0.950 . S
H510 C531 0.950 . S
H511 C534 0.950 . S
H512 C535 0.950 . S
H513 C537 0.950 . S
H514 C538 0.950 . S
H515 C539 0.951 . S
H516 C541 0.951 . S
H517 C543 0.950 . S
H518 C544 0.950 . S
H519 C546 0.950 . S
H520 C549 0.950 . S
H521 C550 0.950 . S
H522 C552 0.950 . S
H523 C553 0.950 . S
C524 H506 0.951 . S
C524 C525 1.366 . S
C524 C526 1.388 . S
C525 C524 1.366 . S
C525 C529 1.385 . S
C526 H507 0.951 . S
C526 C524 1.388 . S
C526 C527 1.366 . S
C527 C526 1.366 . S
C527 C528 1.414 . S
C527 C530 1.499 . S
C528 H508 0.950 . S
C528 C527 1.414 . S
C528 C529 1.374 . S
C529 H509 0.950 . S
C529 C525 1.385 . S
C529 C528 1.374 . S
C530 C527 1.499 . S
C530 C531 1.373 . S
C530 C532 1.389 . S
C531 H510 0.950 . S
C531 C530 1.373 . S
C531 C547 1.377 . S
C532 C530 1.389 . S
C532 C533 1.524 . S
C532 C546 1.377 . S
C533 C532 1.524 . S
C533 C534 1.397 . S
C533 C538 1.363 . S
C534 H511 0.950 . S
C534 C533 1.397 . S
C534 C535 1.334 . S
C535 H512 0.950 . S
C535 C534 1.334 . S
C535 C536 1.287 . S
C536 C535 1.287 . S
C536 C537 1.524 . S
C536 H555 0.913 . S
C537 H513 0.950 . S
C537 C536 1.524 . S
C537 C538 1.415 . S
C538 H514 0.950 . S
C538 C533 1.363 . S
C538 C537 1.415 . S
C539 H515 0.951 . S
C539 C540 1.366 . S
C539 C541 1.388 . S
C540 C539 1.366 . S
C540 C544 1.385 . S
C541 H516 0.951 . S
C541 C539 1.388 . S
C541 C542 1.366 . S
C542 C541 1.366 . S
C542 C543 1.414 . S
C542 C545 1.499 . S
C543 H517 0.950 . S
C543 C542 1.414 . S
C543 C544 1.374 . S
C544 H518 0.950 . S
C544 C540 1.385 . S
C544 C543 1.374 . S
C545 C542 1.499 . S
C545 C546 1.373 . S
C545 C547 1.389 . S
C546 H519 0.950 . S
C546 C532 1.377 . S
C546 C545 1.373 . S
C547 C531 1.377 . S
C547 C545 1.389 . S
C547 C548 1.524 . S
C548 C547 1.524 . S
C548 C549 1.397 . S
C548 C553 1.363 . S
C549 H520 0.950 . S
C549 C548 1.397 . S
C549 C550 1.334 . S
C550 H521 0.950 . S
C550 C549 1.334 . S
C550 C551 1.287 . S
C551 C550 1.287 . S
C551 C552 1.524 . S
C551 H554 0.999 . S
C552 H522 0.950 . S
C552 C551 1.524 . S
C552 C553 1.415 . S
C553 H523 0.950 . S
C553 C548 1.363 . S
C553 C552 1.415 . S
H554 C551 0.999 . S
H555 C536 0.913 . S
H556 C574 0.951 . S
H557 C576 0.951 . S
H558 C578 0.950 . S
H559 C579 0.950 . S
H560 C581 0.950 . S
H561 C584 0.950 . S
H562 C585 0.950 . S
H563 C587 0.950 . S
H564 C588 0.950 . S
H565 C589 0.951 . S
H566 C591 0.951 . S
H567 C593 0.950 . S
H568 C594 0.950 . S
H569 C596 0.950 . S
H570 C599 0.950 . S
H571 C600 0.950 . S
H572 C602 0.950 . S
H573 C603 0.950 . S
C574 H556 0.951 . S
C574 C575 1.366 . S
C574 C576 1.388 . S
C575 C574 1.366 . S
C575 C579 1.385 . S
C576 H557 0.951 . S
C576 C574 1.388 . S
C576 C577 1.366 . S
C577 C576 1.366 . S
C577 C578 1.414 . S
C577 C580 1.499 . S
C578 H558 0.950 . S
C578 C577 1.414 . S
C578 C579 1.374 . S
C579 H559 0.950 . S
C579 C575 1.385 . S
C579 C578 1.374 . S
C580 C577 1.499 . S
C580 C581 1.373 . S
C580 C582 1.389 . S
C581 H560 0.950 . S
C581 C580 1.373 . S
C581 C597 1.377 . S
C582 C580 1.389 . S
C582 C583 1.524 . S
C582 C596 1.377 . S
C583 C582 1.524 . S
C583 C584 1.397 . S
C583 C588 1.363 . S
C584 H561 0.950 . S
C584 C583 1.397 . S
C584 C585 1.334 . S
C585 H562 0.950 . S
C585 C584 1.334 . S
C585 C586 1.287 . S
C586 C585 1.287 . S
C586 C587 1.524 . S
C586 H605 0.913 . S
C587 H563 0.950 . S
C587 C586 1.524 . S
C587 C588 1.415 . S
C588 H564 0.950 . S
C588 C583 1.363 . S
C588 C587 1.415 . S
C589 H565 0.951 . S
C589 C590 1.366 . S
C589 C591 1.388 . S
C590 C589 1.366 . S
C590 C594 1.385 . S
C591 H566 0.951 . S
C591 C589 1.388 . S
C591 C592 1.366 . S
C592 C591 1.366 . S
C592 C593 1.414 . S
C592 C595 1.499 . S
C593 H567 0.950 . S
C593 C592 1.414 . S
C593 C594 1.374 . S
C594 H568 0.950 . S
C594 C590 1.385 . S
C594 C593 1.374 . S
C595 C592 1.499 . S
C595 C596 1.373 . S
C595 C597 1.389 . S
C596 H569 0.950 . S
C596 C582 1.377 . S
C596 C595 1.373 . S
C597 C581 1.377 . S
C597 C595 1.389 . S
C597 C598 1.524 . S
C598 C597 1.524 . S
C598 C599 1.397 . S
C598 C603 1.363 . S
C599 H570 0.950 . S
C599 C598 1.397 . S
C599 C600 1.334 . S
C600 H571 0.950 . S
C600 C599 1.334 . S
C600 C601 1.287 . S
C601 C600 1.287 . S
C601 C602 1.524 . S
C601 H604 0.999 . S
C602 H572 0.950 . S
C602 C601 1.524 . S
C602 C603 1.415 . S
C603 H573 0.950 . S
C603 C598 1.363 . S
C603 C602 1.415 . S
H604 C601 0.999 . S
H605 C586 0.913 . S
H606 C624 0.951 . S
H607 C626 0.951 . S
H608 C628 0.950 . S
H609 C629 0.950 . S
H610 C631 0.950 . S
H611 C634 0.950 . S
H612 C635 0.950 . S
H613 C637 0.950 . S
H614 C638 0.950 . S
H615 C639 0.951 . S
H616 C641 0.951 . S
H617 C643 0.950 . S
H618 C644 0.950 . S
H619 C646 0.950 . S
H620 C649 0.950 . S
H621 C650 0.950 . S
H622 C652 0.950 . S
H623 C653 0.950 . S
C624 H606 0.951 . S
C624 C625 1.366 . S
C624 C626 1.388 . S
C625 C624 1.366 . S
C625 C629 1.385 . S
C626 H607 0.951 . S
C626 C624 1.388 . S
C626 C627 1.366 . S
C627 C626 1.366 . S
C627 C628 1.414 . S
C627 C630 1.499 . S
C628 H608 0.950 . S
C628 C627 1.414 . S
C628 C629 1.374 . S
C629 H609 0.950 . S
C629 C625 1.385 . S
C629 C628 1.374 . S
C630 C627 1.499 . S
C630 C631 1.373 . S
C630 C632 1.389 . S
C631 H610 0.950 . S
C631 C630 1.373 . S
C631 C647 1.377 . S
C632 C630 1.389 . S
C632 C633 1.524 . S
C632 C646 1.377 . S
C633 C632 1.524 . S
C633 C634 1.397 . S
C633 C638 1.363 . S
C634 H611 0.950 . S
C634 C633 1.397 . S
C634 C635 1.334 . S
C635 H612 0.950 . S
C635 C634 1.334 . S
C635 C636 1.287 . S
C636 C635 1.287 . S
C636 C637 1.524 . S
C636 H655 0.913 . S
C637 H613 0.950 . S
C637 C636 1.524 . S
C637 C638 1.415 . S
C638 H614 0.950 . S
C638 C633 1.363 . S
C638 C637 1.415 . S
C639 H615 0.951 . S
C639 C640 1.366 . S
C639 C641 1.388 . S
C640 C639 1.366 . S
C640 C644 1.385 . S
C641 H616 0.951 . S
C641 C639 1.388 . S
C641 C642 1.366 . S
C642 C641 1.366 . S
C642 C643 1.414 . S
C642 C645 1.499 . S
C643 H617 0.950 . S
C643 C642 1.414 . S
C643 C644 1.374 . S
C644 H618 0.950 . S
C644 C640 1.385 . S
C644 C643 1.374 . S
C645 C642 1.499 . S
C645 C646 1.373 . S
C645 C647 1.389 . S
C646 H619 0.950 . S
C646 C632 1.377 . S
C646 C645 1.373 . S
C647 C631 1.377 . S
C647 C645 1.389 . S
C647 C648 1.524 . S
C648 C647 1.524 . S
C648 C649 1.397 . S
C648 C653 1.363 . S
C649 H620 0.950 . S
C649 C648 1.397 . S
C649 C650 1.334 . S
C650 H621 0.950 . S
C650 C649 1.334 . S
C650 C651 1.287 . S
C651 C650 1.287 . S
C651 C652 1.524 . S
C651 H654 0.999 . S
C652 H622 0.950 . S
C652 C651 1.524 . S
C652 C653 1.415 . S
C653 H623 0.950 . S
C653 C648 1.363 . S
C653 C652 1.415 . S
H654 C651 0.999 . S
H655 C636 0.913 . S
H656 C674 0.951 . S
H657 C676 0.951 . S
H658 C678 0.950 . S
H659 C679 0.950 . S
H660 C681 0.950 . S
H661 C684 0.950 . S
H662 C685 0.950 . S
H663 C687 0.950 . S
H664 C688 0.950 . S
H665 C689 0.951 . S
H666 C691 0.951 . S
H667 C693 0.950 . S
H668 C694 0.950 . S
H669 C696 0.950 . S
H670 C699 0.950 . S
H671 C700 0.950 . S
H672 C702 0.950 . S
H673 C703 0.950 . S
C674 H656 0.951 . S
C674 C675 1.366 . S
C674 C676 1.388 . S
C675 C674 1.366 . S
C675 C679 1.385 . S
C676 H657 0.951 . S
C676 C674 1.388 . S
C676 C677 1.366 . S
C677 C676 1.366 . S
C677 C678 1.414 . S
C677 C680 1.499 . S
C678 H658 0.950 . S
C678 C677 1.414 . S
C678 C679 1.374 . S
C679 H659 0.950 . S
C679 C675 1.385 . S
C679 C678 1.374 . S
C680 C677 1.499 . S
C680 C681 1.373 . S
C680 C682 1.389 . S
C681 H660 0.950 . S
C681 C680 1.373 . S
C681 C697 1.377 . S
C682 C680 1.389 . S
C682 C683 1.524 . S
C682 C696 1.377 . S
C683 C682 1.524 . S
C683 C684 1.397 . S
C683 C688 1.363 . S
C684 H661 0.950 . S
C684 C683 1.397 . S
C684 C685 1.334 . S
C685 H662 0.950 . S
C685 C684 1.334 . S
C685 C686 1.287 . S
C686 C685 1.287 . S
C686 C687 1.524 . S
C686 H705 0.913 . S
C687 H663 0.950 . S
C687 C686 1.524 . S
C687 C688 1.415 . S
C688 H664 0.950 . S
C688 C683 1.363 . S
C688 C687 1.415 . S
C689 H665 0.951 . S
C689 C690 1.366 . S
C689 C691 1.388 . S
C690 C689 1.366 . S
C690 C694 1.385 . S
C691 H666 0.951 . S
C691 C689 1.388 . S
C691 C692 1.366 . S
C692 C691 1.366 . S
C692 C693 1.414 . S
C692 C695 1.499 . S
C693 H667 0.950 . S
C693 C692 1.414 . S
C693 C694 1.374 . S
C694 H668 0.950 . S
C694 C690 1.385 . S
C694 C693 1.374 . S
C695 C692 1.499 . S
C695 C696 1.373 . S
C695 C697 1.389 . S
C696 H669 0.950 . S
C696 C682 1.377 . S
C696 C695 1.373 . S
C697 C681 1.377 . S
C697 C695 1.389 . S
C697 C698 1.524 . S
C698 C697 1.524 . S
C698 C699 1.397 . S
C698 C703 1.363 . S
C699 H670 0.950 . S
C699 C698 1.397 . S
C699 C700 1.334 . S
C700 H671 0.950 . S
C700 C699 1.334 . S
C700 C701 1.287 . S
C701 C700 1.287 . S
C701 C702 1.524 . S
C701 H704 0.999 . S
C702 H672 0.950 . S
C702 C701 1.524 . S
C702 C703 1.415 . S
C703 H673 0.950 . S
C703 C698 1.363 . S
C703 C702 1.415 . S
H704 C701 0.999 . S
H705 C686 0.913 . S
H706 C724 0.951 . S
H707 C726 0.951 . S
H708 C728 0.950 . S
H709 C729 0.950 . S
H710 C731 0.950 . S
H711 C734 0.950 . S
H712 C735 0.950 . S
H713 C737 0.950 . S
H714 C738 0.950 . S
H715 C739 0.951 . S
H716 C741 0.951 . S
H717 C743 0.950 . S
H718 C744 0.950 . S
H719 C746 0.950 . S
H720 C749 0.950 . S
H721 C750 0.950 . S
H722 C752 0.950 . S
H723 C753 0.950 . S
C724 H706 0.951 . S
C724 C725 1.366 . S
C724 C726 1.388 . S
C725 C724 1.366 . S
C725 C729 1.385 . S
C726 H707 0.951 . S
C726 C724 1.388 . S
C726 C727 1.366 . S
C727 C726 1.366 . S
C727 C728 1.414 . S
C727 C730 1.499 . S
C728 H708 0.950 . S
C728 C727 1.414 . S
C728 C729 1.374 . S
C729 H709 0.950 . S
C729 C725 1.385 . S
C729 C728 1.374 . S
C730 C727 1.499 . S
C730 C731 1.373 . S
C730 C732 1.389 . S
C731 H710 0.950 . S
C731 C730 1.373 . S
C731 C747 1.377 . S
C732 C730 1.389 . S
C732 C733 1.524 . S
C732 C746 1.377 . S
C733 C732 1.524 . S
C733 C734 1.397 . S
C733 C738 1.363 . S
C734 H711 0.950 . S
C734 C733 1.397 . S
C734 C735 1.334 . S
C735 H712 0.950 . S
C735 C734 1.334 . S
C735 C736 1.287 . S
C736 C735 1.287 . S
C736 C737 1.524 . S
C736 H755 0.913 . S
C737 H713 0.950 . S
C737 C736 1.524 . S
C737 C738 1.415 . S
C738 H714 0.950 . S
C738 C733 1.363 . S
C738 C737 1.415 . S
C739 H715 0.951 . S
C739 C740 1.366 . S
C739 C741 1.388 . S
C740 C739 1.366 . S
C740 C744 1.385 . S
C741 H716 0.951 . S
C741 C739 1.388 . S
C741 C742 1.366 . S
C742 C741 1.366 . S
C742 C743 1.414 . S
C742 C745 1.499 . S
C743 H717 0.950 . S
C743 C742 1.414 . S
C743 C744 1.374 . S
C744 H718 0.950 . S
C744 C740 1.385 . S
C744 C743 1.374 . S
C745 C742 1.499 . S
C745 C746 1.373 . S
C745 C747 1.389 . S
C746 H719 0.950 . S
C746 C732 1.377 . S
C746 C745 1.373 . S
C747 C731 1.377 . S
C747 C745 1.389 . S
C747 C748 1.524 . S
C748 C747 1.524 . S
C748 C749 1.397 . S
C748 C753 1.363 . S
C749 H720 0.950 . S
C749 C748 1.397 . S
C749 C750 1.334 . S
C750 H721 0.950 . S
C750 C749 1.334 . S
C750 C751 1.287 . S
C751 C750 1.287 . S
C751 C752 1.524 . S
C751 H754 0.999 . S
C752 H722 0.950 . S
C752 C751 1.524 . S
C752 C753 1.415 . S
C753 H723 0.950 . S
C753 C748 1.363 . S
C753 C752 1.415 . S
H754 C751 0.999 . S
H755 C736 0.913 . S
H756 C774 0.951 . S
H757 C776 0.951 . S
H758 C778 0.950 . S
H759 C779 0.950 . S
H760 C781 0.950 . S
H761 C784 0.950 . S
H762 C785 0.950 . S
H763 C787 0.950 . S
H764 C788 0.950 . S
H765 C789 0.951 . S
H766 C791 0.951 . S
H767 C793 0.950 . S
H768 C794 0.950 . S
H769 C796 0.950 . S
H770 C799 0.950 . S
H771 C800 0.950 . S
H772 C802 0.950 . S
H773 C803 0.950 . S
C774 H756 0.951 . S
C774 C775 1.366 . S
C774 C776 1.388 . S
C775 C774 1.366 . S
C775 C779 1.385 . S
C776 H757 0.951 . S
C776 C774 1.388 . S
C776 C777 1.366 . S
C777 C776 1.366 . S
C777 C778 1.414 . S
C777 C780 1.499 . S
C778 H758 0.950 . S
C778 C777 1.414 . S
C778 C779 1.374 . S
C779 H759 0.950 . S
C779 C775 1.385 . S
C779 C778 1.374 . S
C780 C777 1.499 . S
C780 C781 1.373 . S
C780 C782 1.389 . S
C781 H760 0.950 . S
C781 C780 1.373 . S
C781 C797 1.377 . S
C782 C780 1.389 . S
C782 C783 1.524 . S
C782 C796 1.377 . S
C783 C782 1.524 . S
C783 C784 1.397 . S
C783 C788 1.363 . S
C784 H761 0.950 . S
C784 C783 1.397 . S
C784 C785 1.334 . S
C785 H762 0.950 . S
C785 C784 1.334 . S
C785 C786 1.287 . S
C786 C785 1.287 . S
C786 C787 1.524 . S
C786 H805 0.913 . S
C787 H763 0.950 . S
C787 C786 1.524 . S
C787 C788 1.415 . S
C788 H764 0.950 . S
C788 C783 1.363 . S
C788 C787 1.415 . S
C789 H765 0.951 . S
C789 C790 1.366 . S
C789 C791 1.388 . S
C790 C789 1.366 . S
C790 C794 1.385 . S
C791 H766 0.951 . S
C791 C789 1.388 . S
C791 C792 1.366 . S
C792 C791 1.366 . S
C792 C793 1.414 . S
C792 C795 1.499 . S
C793 H767 0.950 . S
C793 C792 1.414 . S
C793 C794 1.374 . S
C794 H768 0.950 . S
C794 C790 1.385 . S
C794 C793 1.374 . S
C795 C792 1.499 . S
C795 C796 1.373 . S
C795 C797 1.389 . S
C796 H769 0.950 . S
C796 C782 1.377 . S
C796 C795 1.373 . S
C797 C781 1.377 . S
C797 C795 1.389 . S
C797 C798 1.524 . S
C798 C797 1.524 . S
C798 C799 1.397 . S
C798 C803 1.363 . S
C799 H770 0.950 . S
C799 C798 1.397 . S
C799 C800 1.334 . S
C800 H771 0.950 . S
C800 C799 1.334 . S
C800 C801 1.287 . S
C801 C800 1.287 . S
C801 C802 1.524 . S
C801 H804 0.999 . S
C802 H772 0.950 . S
C802 C801 1.524 . S
C802 C803 1.415 . S
C803 H773 0.950 . S
C803 C798 1.363 . S
C803 C802 1.415 . S
H804 C801 0.999 . S
H805 C786 0.913 . S
H806 C824 0.951 . S
H807 C826 0.951 . S
H808 C828 0.950 . S
H809 C829 0.950 . S
H810 C831 0.950 . S
H811 C834 0.950 . S
H812 C835 0.950 . S
H813 C837 0.950 . S
H814 C838 0.950 . S
H815 C839 0.951 . S
H816 C841 0.951 . S
H817 C843 0.950 . S
H818 C844 0.950 . S
H819 C846 0.950 . S
H820 C849 0.950 . S
H821 C850 0.950 . S
H822 C852 0.950 . S
H823 C853 0.950 . S
C824 H806 0.951 . S
C824 C825 1.366 . S
C824 C826 1.388 . S
C825 C824 1.366 . S
C825 C829 1.385 . S
C826 H807 0.951 . S
C826 C824 1.388 . S
C826 C827 1.366 . S
C827 C826 1.366 . S
C827 C828 1.414 . S
C827 C830 1.499 . S
C828 H808 0.950 . S
C828 C827 1.414 . S
C828 C829 1.374 . S
C829 H809 0.950 . S
C829 C825 1.385 . S
C829 C828 1.374 . S
C830 C827 1.499 . S
C830 C831 1.373 . S
C830 C832 1.389 . S
C831 H810 0.950 . S
C831 C830 1.373 . S
C831 C847 1.377 . S
C832 C830 1.389 . S
C832 C833 1.524 . S
C832 C846 1.377 . S
C833 C832 1.524 . S
C833 C834 1.397 . S
C833 C838 1.363 . S
C834 H811 0.950 . S
C834 C833 1.397 . S
C834 C835 1.334 . S
C835 H812 0.950 . S
C835 C834 1.334 . S
C835 C836 1.287 . S
C836 C835 1.287 . S
C836 C837 1.524 . S
C836 H855 0.913 . S
C837 H813 0.950 . S
C837 C836 1.524 . S
C837 C838 1.415 . S
C838 H814 0.950 . S
C838 C833 1.363 . S
C838 C837 1.415 . S
C839 H815 0.951 . S
C839 C840 1.366 . S
C839 C841 1.388 . S
C840 C839 1.366 . S
C840 C844 1.385 . S
C841 H816 0.951 . S
C841 C839 1.388 . S
C841 C842 1.366 . S
C842 C841 1.366 . S
C842 C843 1.414 . S
C842 C845 1.499 . S
C843 H817 0.950 . S
C843 C842 1.414 . S
C843 C844 1.374 . S
C844 H818 0.950 . S
C844 C840 1.385 . S
C844 C843 1.374 . S
C845 C842 1.499 . S
C845 C846 1.373 . S
C845 C847 1.389 . S
C846 H819 0.950 . S
C846 C832 1.377 . S
C846 C845 1.373 . S
C847 C831 1.377 . S
C847 C845 1.389 . S
C847 C848 1.524 . S
C848 C847 1.524 . S
C848 C849 1.397 . S
C848 C853 1.363 . S
C849 H820 0.950 . S
C849 C848 1.397 . S
C849 C850 1.334 . S
C850 H821 0.950 . S
C850 C849 1.334 . S
C850 C851 1.287 . S
C851 C850 1.287 . S
C851 C852 1.524 . S
C851 H854 0.999 . S
C852 H822 0.950 . S
C852 C851 1.524 . S
C852 C853 1.415 . S
C853 H823 0.950 . S
C853 C848 1.363 . S
C853 C852 1.415 . S
H854 C851 0.999 . S
H855 C836 0.913 . S
H856 C874 0.951 . S
H857 C876 0.951 . S
H858 C878 0.950 . S
H859 C879 0.950 . S
H860 C881 0.950 . S
H861 C884 0.950 . S
H862 C885 0.950 . S
H863 C887 0.950 . S
H864 C888 0.950 . S
H865 C889 0.951 . S
H866 C891 0.951 . S
H867 C893 0.950 . S
H868 C894 0.950 . S
H869 C896 0.950 . S
H870 C899 0.950 . S
H871 C900 0.950 . S
H872 C902 0.950 . S
H873 C903 0.950 . S
C874 H856 0.951 . S
C874 C875 1.366 . S
C874 C876 1.388 . S
C875 C874 1.366 . S
C875 C879 1.385 . S
C876 H857 0.951 . S
C876 C874 1.388 . S
C876 C877 1.366 . S
C877 C876 1.366 . S
C877 C878 1.414 . S
C877 C880 1.499 . S
C878 H858 0.950 . S
C878 C877 1.414 . S
C878 C879 1.374 . S
C879 H859 0.950 . S
C879 C875 1.385 . S
C879 C878 1.374 . S
C880 C877 1.499 . S
C880 C881 1.373 . S
C880 C882 1.389 . S
C881 H860 0.950 . S
C881 C880 1.373 . S
C881 C897 1.377 . S
C882 C880 1.389 . S
C882 C883 1.524 . S
C882 C896 1.377 . S
C883 C882 1.524 . S
C883 C884 1.397 . S
C883 C888 1.363 . S
C884 H861 0.950 . S
C884 C883 1.397 . S
C884 C885 1.334 . S
C885 H862 0.950 . S
C885 C884 1.334 . S
C885 C886 1.287 . S
C886 C885 1.287 . S
C886 C887 1.524 . S
C886 H905 0.913 . S
C887 H863 0.950 . S
C887 C886 1.524 . S
C887 C888 1.415 . S
C888 H864 0.950 . S
C888 C883 1.363 . S
C888 C887 1.415 . S
C889 H865 0.951 . S
C889 C890 1.366 . S
C889 C891 1.388 . S
C890 C889 1.366 . S
C890 C894 1.385 . S
C891 H866 0.951 . S
C891 C889 1.388 . S
C891 C892 1.366 . S
C892 C891 1.366 . S
C892 C893 1.414 . S
C892 C895 1.499 . S
C893 H867 0.950 . S
C893 C892 1.414 . S
C893 C894 1.374 . S
C894 H868 0.950 . S
C894 C890 1.385 . S
C894 C893 1.374 . S
C895 C892 1.499 . S
C895 C896 1.373 . S
C895 C897 1.389 . S
C896 H869 0.950 . S
C896 C882 1.377 . S
C896 C895 1.373 . S
C897 C881 1.377 . S
C897 C895 1.389 . S
C897 C898 1.524 . S
C898 C897 1.524 . S
C898 C899 1.397 . S
C898 C903 1.363 . S
C899 H870 0.950 . S
C899 C898 1.397 . S
C899 C900 1.334 . S
C900 H871 0.950 . S
C900 C899 1.334 . S
C900 C901 1.287 . S
C901 C900 1.287 . S
C901 C902 1.524 . S
C901 H904 0.999 . S
C902 H872 0.950 . S
C902 C901 1.524 . S
C902 C903 1.415 . S
C903 H873 0.950 . S
C903 C898 1.363 . S
C903 C902 1.415 . S
H904 C901 0.999 . S
H905 C886 0.913 . S
H906 C924 0.951 . S
H907 C926 0.951 . S
H908 C928 0.950 . S
H909 C929 0.950 . S
H910 C931 0.950 . S
H911 C934 0.950 . S
H912 C935 0.950 . S
H913 C937 0.950 . S
H914 C938 0.950 . S
H915 C939 0.951 . S
H916 C941 0.951 . S
H917 C943 0.950 . S
H918 C944 0.950 . S
H919 C946 0.950 . S
H920 C949 0.950 . S
H921 C950 0.950 . S
H922 C952 0.950 . S
H923 C953 0.950 . S
C924 H906 0.951 . S
C924 C925 1.366 . S
C924 C926 1.388 . S
C925 C924 1.366 . S
C925 C929 1.385 . S
C926 H907 0.951 . S
C926 C924 1.388 . S
C926 C927 1.366 . S
C927 C926 1.366 . S
C927 C928 1.414 . S
C927 C930 1.499 . S
C928 H908 0.950 . S
C928 C927 1.414 . S
C928 C929 1.374 . S
C929 H909 0.950 . S
C929 C925 1.385 . S
C929 C928 1.374 . S
C930 C927 1.499 . S
C930 C931 1.373 . S
C930 C932 1.389 . S
C931 H910 0.950 . S
C931 C930 1.373 . S
C931 C947 1.377 . S
C932 C930 1.389 . S
C932 C933 1.524 . S
C932 C946 1.377 . S
C933 C932 1.524 . S
C933 C934 1.397 . S
C933 C938 1.363 . S
C934 H911 0.950 . S
C934 C933 1.397 . S
C934 C935 1.334 . S
C935 H912 0.950 . S
C935 C934 1.334 . S
C935 C936 1.287 . S
C936 C935 1.287 . S
C936 C937 1.524 . S
C936 H955 0.913 . S
C937 H913 0.950 . S
C937 C936 1.524 . S
C937 C938 1.415 . S
C938 H914 0.950 . S
C938 C933 1.363 . S
C938 C937 1.415 . S
C939 H915 0.951 . S
C939 C940 1.366 . S
C939 C941 1.388 . S
C940 C939 1.366 . S
C940 C944 1.385 . S
C941 H916 0.951 . S
C941 C939 1.388 . S
C941 C942 1.366 . S
C942 C941 1.366 . S
C942 C943 1.414 . S
C942 C945 1.499 . S
C943 H917 0.950 . S
C943 C942 1.414 . S
C943 C944 1.374 . S
C944 H918 0.950 . S
C944 C940 1.385 . S
C944 C943 1.374 . S
C945 C942 1.499 . S
C945 C946 1.373 . S
C945 C947 1.389 . S
C946 H919 0.950 . S
C946 C932 1.377 . S
C946 C945 1.373 . S
C947 C931 1.377 . S
C947 C945 1.389 . S
C947 C948 1.524 . S
C948 C947 1.524 . S
C948 C949 1.397 . S
C948 C953 1.363 . S
C949 H920 0.950 . S
C949 C948 1.397 . S
C949 C950 1.334 . S
C950 H921 0.950 . S
C950 C949 1.334 . S
C950 C951 1.287 . S
C951 C950 1.287 . S
C951 C952 1.524 . S
C951 H954 0.999 . S
C952 H922 0.950 . S
C952 C951 1.524 . S
C952 C953 1.415 . S
C953 H923 0.950 . S
C953 C948 1.363 . S
C953 C952 1.415 . S
H954 C951 0.999 . S
H955 C936 0.913 . S
H956 C974 0.951 . S
H957 C976 0.951 . S
H958 C978 0.950 . S
H959 C979 0.950 . S
H960 C981 0.950 . S
H961 C984 0.950 . S
H962 C985 0.950 . S
H963 C987 0.950 . S
H964 C988 0.950 . S
H965 C989 0.951 . S
H966 C991 0.951 . S
H967 C993 0.950 . S
H968 C994 0.950 . S
H969 C996 0.950 . S
H970 C999 0.950 . S
H971 C1000 0.950 . S
H972 C1002 0.950 . S
H973 C1003 0.950 . S
C974 H956 0.951 . S
C974 C975 1.366 . S
C974 C976 1.388 . S
C975 C974 1.366 . S
C975 C979 1.385 . S
C976 H957 0.951 . S
C976 C974 1.388 . S
C976 C977 1.366 . S
C977 C976 1.366 . S
C977 C978 1.414 . S
C977 C980 1.499 . S
C978 H958 0.950 . S
C978 C977 1.414 . S
C978 C979 1.374 . S
C979 H959 0.950 . S
C979 C975 1.385 . S
C979 C978 1.374 . S
C980 C977 1.499 . S
C980 C981 1.373 . S
C980 C982 1.389 . S
C981 H960 0.950 . S
C981 C980 1.373 . S
C981 C997 1.377 . S
C982 C980 1.389 . S
C982 C983 1.524 . S
C982 C996 1.377 . S
C983 C982 1.524 . S
C983 C984 1.397 . S
C983 C988 1.363 . S
C984 H961 0.950 . S
C984 C983 1.397 . S
C984 C985 1.334 . S
C985 H962 0.950 . S
C985 C984 1.334 . S
C985 C986 1.287 . S
C986 C985 1.287 . S
C986 C987 1.524 . S
C986 H1005 0.913 . S
C987 H963 0.950 . S
C987 C986 1.524 . S
C987 C988 1.415 . S
C988 H964 0.950 . S
C988 C983 1.363 . S
C988 C987 1.415 . S
C989 H965 0.951 . S
C989 C990 1.366 . S
C989 C991 1.388 . S
C990 C989 1.366 . S
C990 C994 1.385 . S
C991 H966 0.951 . S
C991 C989 1.388 . S
C991 C992 1.366 . S
C992 C991 1.366 . S
C992 C993 1.414 . S
C992 C995 1.499 . S
C993 H967 0.950 . S
C993 C992 1.414 . S
C993 C994 1.374 . S
C994 H968 0.950 . S
C994 C990 1.385 . S
C994 C993 1.374 . S
C995 C992 1.499 . S
C995 C996 1.373 . S
C995 C997 1.389 . S
C996 H969 0.950 . S
C996 C982 1.377 . S
C996 C995 1.373 . S
C997 C981 1.377 . S
C997 C995 1.389 . S
C997 C998 1.524 . S
C998 C997 1.524 . S
C998 C999 1.397 . S
C998 C1003 1.363 . S
C999 H970 0.950 . S
C999 C998 1.397 . S
C999 C1000 1.334 . S
C1000 H971 0.950 . S
C1000 C999 1.334 . S
C1000 C1001 1.287 . S
C1001 C1000 1.287 . S
C1001 C1002 1.524 . S
C1001 H1004 0.999 . S
C1002 H972 0.950 . S
C1002 C1001 1.524 . S
C1002 C1003 1.415 . S
C1003 H973 0.950 . S
C1003 C998 1.363 . S
C1003 C1002 1.415 . S
H1004 C1001 0.999 . S
H1005 C986 0.913 . S
H1006 C1024 0.951 . S
H1007 C1026 0.951 . S
H1008 C1028 0.950 . S
H1009 C1029 0.950 . S
H1010 C1031 0.950 . S
H1011 C1034 0.950 . S
H1012 C1035 0.950 . S
H1013 C1037 0.950 . S
H1014 C1038 0.950 . S
H1015 C1039 0.951 . S
H1016 C1041 0.951 . S
H1017 C1043 0.950 . S
H1018 C1044 0.950 . S
H1019 C1046 0.950 . S
H1020 C1049 0.950 . S
H1021 C1050 0.950 . S
H1022 C1052 0.950 . S
H1023 C1053 0.950 . S
C1024 H1006 0.951 . S
C1024 C1025 1.366 . S
C1024 C1026 1.388 . S
C1025 C1024 1.366 . S
C1025 C1029 1.385 . S
C1026 H1007 0.951 . S
C1026 C1024 1.388 . S
C1026 C1027 1.366 . S
C1027 C1026 1.366 . S
C1027 C1028 1.414 . S
C1027 C1030 1.499 . S
C1028 H1008 0.950 . S
C1028 C1027 1.414 . S
C1028 C1029 1.374 . S
C1029 H1009 0.950 . S
C1029 C1025 1.385 . S
C1029 C1028 1.374 . S
C1030 C1027 1.499 . S
C1030 C1031 1.373 . S
C1030 C1032 1.389 . S
C1031 H1010 0.950 . S
C1031 C1030 1.373 . S
C1031 C1047 1.377 . S
C1032 C1030 1.389 . S
C1032 C1033 1.524 . S
C1032 C1046 1.377 . S
C1033 C1032 1.524 . S
C1033 C1034 1.397 . S
C1033 C1038 1.363 . S
C1034 H1011 0.950 . S
C1034 C1033 1.397 . S
C1034 C1035 1.334 . S
C1035 H1012 0.950 . S
C1035 C1034 1.334 . S
C1035 C1036 1.287 . S
C1036 C1035 1.287 . S
C1036 C1037 1.524 . S
C1036 H1055 0.913 . S
C1037 H1013 0.950 . S
C1037 C1036 1.524 . S
C1037 C1038 1.415 . S
C1038 H1014 0.950 . S
C1038 C1033 1.363 . S
C1038 C1037 1.415 . S
C1039 H1015 0.951 . S
C1039 C1040 1.366 . S
C1039 C1041 1.388 . S
C1040 C1039 1.366 . S
C1040 C1044 1.385 . S
C1041 H1016 0.951 . S
C1041 C1039 1.388 . S
C1041 C1042 1.366 . S
C1042 C1041 1.366 . S
C1042 C1043 1.414 . S
C1042 C1045 1.499 . S
C1043 H1017 0.950 . S
C1043 C1042 1.414 . S
C1043 C1044 1.374 . S
C1044 H1018 0.950 . S
C1044 C1040 1.385 . S
C1044 C1043 1.374 . S
C1045 C1042 1.499 . S
C1045 C1046 1.373 . S
C1045 C1047 1.389 . S
C1046 H1019 0.950 . S
C1046 C1032 1.377 . S
C1046 C1045 1.373 . S
C1047 C1031 1.377 . S
C1047 C1045 1.389 . S
C1047 C1048 1.524 . S
C1048 C1047 1.524 . S
C1048 C1049 1.397 . S
C1048 C1053 1.363 . S
C1049 H1020 0.950 . S
C1049 C1048 1.397 . S
C1049 C1050 1.334 . S
C1050 H1021 0.950 . S
C1050 C1049 1.334 . S
C1050 C1051 1.287 . S
C1051 C1050 1.287 . S
C1051 C1052 1.524 . S
C1051 H1054 0.999 . S
C1052 H1022 0.950 . S
C1052 C1051 1.524 . S
C1052 C1053 1.415 . S
C1053 H1023 0.950 . S
C1053 C1048 1.363 . S
C1053 C1052 1.415 . S
H1054 C1051 0.999 . S
H1055 C1036 0.913 . S
H1056 C1074 0.951 . S
H1057 C1076 0.951 . S
H1058 C1078 0.950 . S
H1059 C1079 0.950 . S
H1060 C1081 0.950 . S
H1061 C1084 0.950 . S
H1062 C1085 0.950 . S
H1063 C1087 0.950 . S
H1064 C1088 0.950 . S
H1065 C1089 0.951 . S
H1066 C1091 0.951 . S
H1067 C1093 0.950 . S
H1068 C1094 0.950 . S
H1069 C1096 0.950 . S
H1070 C1099 0.950 . S
H1071 C1100 0.950 . S
H1072 C1102 0.950 . S
H1073 C1103 0.950 . S
C1074 H1056 0.951 . S
C1074 C1075 1.366 . S
C1074 C1076 1.388 . S
C1075 C1074 1.366 . S
C1075 C1079 1.385 . S
C1076 H1057 0.951 . S
C1076 C1074 1.388 . S
C1076 C1077 1.366 . S
C1077 C1076 1.366 . S
C1077 C1078 1.414 . S
C1077 C1080 1.499 . S
C1078 H1058 0.950 . S
C1078 C1077 1.414 . S
C1078 C1079 1.374 . S
C1079 H1059 0.950 . S
C1079 C1075 1.385 . S
C1079 C1078 1.374 . S
C1080 C1077 1.499 . S
C1080 C1081 1.373 . S
C1080 C1082 1.389 . S
C1081 H1060 0.950 . S
C1081 C1080 1.373 . S
C1081 C1097 1.377 . S
C1082 C1080 1.389 . S
C1082 C1083 1.524 . S
C1082 C1096 1.377 . S
C1083 C1082 1.524 . S
C1083 C1084 1.397 . S
C1083 C1088 1.363 . S
C1084 H1061 0.950 . S
C1084 C1083 1.397 . S
C1084 C1085 1.334 . S
C1085 H1062 0.950 . S
C1085 C1084 1.334 . S
C1085 C1086 1.287 . S
C1086 C1085 1.287 . S
C1086 C1087 1.524 . S
C1086 H1105 0.913 . S
C1087 H1063 0.950 . S
C1087 C1086 1.524 . S
C1087 C1088 1.415 . S
C1088 H1064 0.950 . S
C1088 C1083 1.363 . S
C1088 C1087 1.415 . S
C1089 H1065 0.951 . S
C1089 C1090 1.366 . S
C1089 C1091 1.388 . S
C1090 C1089 1.366 . S
C1090 C1094 1.385 . S
C1091 H1066 0.951 . S
C1091 C1089 1.388 . S
C1091 C1092 1.366 . S
C1092 C1091 1.366 . S
C1092 C1093 1.414 . S
C1092 C1095 1.499 . S
C1093 H1067 0.950 . S
C1093 C1092 1.414 . S
C1093 C1094 1.374 . S
C1094 H1068 0.950 . S
C1094 C1090 1.385 . S
C1094 C1093 1.374 . S
C1095 C1092 1.499 . S
C1095 C1096 1.373 . S
C1095 C1097 1.389 . S
C1096 H1069 0.950 . S
C1096 C1082 1.377 . S
C1096 C1095 1.373 . S
C1097 C1081 1.377 . S
C1097 C1095 1.389 . S
C1097 C1098 1.524 . S
C1098 C1097 1.524 . S
C1098 C1099 1.397 . S
C1098 C1103 1.363 . S
C1099 H1070 0.950 . S
C1099 C1098 1.397 . S
C1099 C1100 1.334 . S
C1100 H1071 0.950 . S
C1100 C1099 1.334 . S
C1100 C1101 1.287 . S
C1101 C1100 1.287 . S
C1101 C1102 1.524 . S
C1101 H1104 0.999 . S
C1102 H1072 0.950 . S
C1102 C1101 1.524 . S
C1102 C1103 1.415 . S
C1103 H1073 0.950 . S
C1103 C1098 1.363 . S
C1103 C1102 1.415 . S
H1104 C1101 0.999 . S
H1105 C1086 0.913 . S
H1106 C1124 0.951 . S
H1107 C1126 0.951 . S
H1108 C1128 0.950 . S
H1109 C1129 0.950 . S
H1110 C1131 0.950 . S
H1111 C1134 0.950 . S
H1112 C1135 0.950 . S
H1113 C1137 0.950 . S
H1114 C1138 0.950 . S
H1115 C1139 0.951 . S
H1116 C1141 0.951 . S
H1117 C1143 0.950 . S
H1118 C1144 0.950 . S
H1119 C1146 0.950 . S
H1120 C1149 0.950 . S
H1121 C1150 0.950 . S
H1122 C1152 0.950 . S
H1123 C1153 0.950 . S
C1124 H1106 0.951 . S
C1124 C1125 1.366 . S
C1124 C1126 1.388 . S
C1125 C1124 1.366 . S
C1125 C1129 1.385 . S
C1126 H1107 0.951 . S
C1126 C1124 1.388 . S
C1126 C1127 1.366 . S
C1127 C1126 1.366 . S
C1127 C1128 1.414 . S
C1127 C1130 1.499 . S
C1128 H1108 0.950 . S
C1128 C1127 1.414 . S
C1128 C1129 1.374 . S
C1129 H1109 0.950 . S
C1129 C1125 1.385 . S
C1129 C1128 1.374 . S
C1130 C1127 1.499 . S
C1130 C1131 1.373 . S
C1130 C1132 1.389 . S
C1131 H1110 0.950 . S
C1131 C1130 1.373 . S
C1131 C1147 1.377 . S
C1132 C1130 1.389 . S
C1132 C1133 1.524 . S
C1132 C1146 1.377 . S
C1133 C1132 1.524 . S
C1133 C1134 1.397 . S
C1133 C1138 1.363 . S
C1134 H1111 0.950 . S
C1134 C1133 1.397 . S
C1134 C1135 1.334 . S
C1135 H1112 0.950 . S
C1135 C1134 1.334 . S
C1135 C1136 1.287 . S
C1136 C1135 1.287 . S
C1136 C1137 1.524 . S
C1136 H1155 0.913 . S
C1137 H1113 0.950 . S
C1137 C1136 1.524 . S
C1137 C1138 1.415 . S
C1138 H1114 0.950 . S
C1138 C1133 1.363 . S
C1138 C1137 1.415 . S
C1139 H1115 0.951 . S
C1139 C1140 1.366 . S
C1139 C1141 1.388 . S
C1140 C1139 1.366 . S
C1140 C1144 1.385 . S
C1141 H1116 0.951 . S
C1141 C1139 1.388 . S
C1141 C1142 1.366 . S
C1142 C1141 1.366 . S
C1142 C1143 1.414 . S
C1142 C1145 1.499 . S
C1143 H1117 0.950 . S
C1143 C1142 1.414 . S
C1143 C1144 1.374 . S
C1144 H1118 0.950 . S
C1144 C1140 1.385 . S
C1144 C1143 1.374 . S
C1145 C1142 1.499 . S
C1145 C1146 1.373 . S
C1145 C1147 1.389 . S
C1146 H1119 0.950 . S
C1146 C1132 1.377 . S
C1146 C1145 1.373 . S
C1147 C1131 1.377 . S
C1147 C1145 1.389 . S
C1147 C1148 1.524 . S
C1148 C1147 1.524 . S
C1148 C1149 1.397 . S
C1148 C1153 1.363 . S
C1149 H1120 0.950 . S
C1149 C1148 1.397 . S
C1149 C1150 1.334 . S
C1150 H1121 0.950 . S
C1150 C1149 1.334 . S
C1150 C1151 1.287 . S
C1151 C1150 1.287 . S
C1151 C1152 1.524 . S
C1151 H1154 0.999 . S
C1152 H1122 0.950 . S
C1152 C1151 1.524 . S
C1152 C1153 1.415 . S
C1153 H1123 0.950 . S
C1153 C1148 1.363 . S
C1153 C1152 1.415 . S
H1154 C1151 0.999 . S
H1155 C1136 0.913 . S
H1156 C1174 0.951 . S
H1157 C1176 0.951 . S
H1158 C1178 0.950 . S
H1159 C1179 0.950 . S
H1160 C1181 0.950 . S
H1161 C1184 0.950 . S
H1162 C1185 0.950 . S
H1163 C1187 0.950 . S
H1164 C1188 0.950 . S
H1165 C1189 0.951 . S
H1166 C1191 0.951 . S
H1167 C1193 0.950 . S
H1168 C1194 0.950 . S
H1169 C1196 0.950 . S
H1170 C1199 0.950 . S
H1171 C1200 0.950 . S
H1172 C1202 0.950 . S
H1173 C1203 0.950 . S
C1174 H1156 0.951 . S
C1174 C1175 1.366 . S
C1174 C1176 1.388 . S
C1175 C1174 1.366 . S
C1175 C1179 1.385 . S
C1176 H1157 0.951 . S
C1176 C1174 1.388 . S
C1176 C1177 1.366 . S
C1177 C1176 1.366 . S
C1177 C1178 1.414 . S
C1177 C1180 1.499 . S
C1178 H1158 0.950 . S
C1178 C1177 1.414 . S
C1178 C1179 1.374 . S
C1179 H1159 0.950 . S
C1179 C1175 1.385 . S
C1179 C1178 1.374 . S
C1180 C1177 1.499 . S
C1180 C1181 1.373 . S
C1180 C1182 1.389 . S
C1181 H1160 0.950 . S
C1181 C1180 1.373 . S
C1181 C1197 1.377 . S
C1182 C1180 1.389 . S
C1182 C1183 1.524 . S
C1182 C1196 1.377 . S
C1183 C1182 1.524 . S
C1183 C1184 1.397 . S
C1183 C1188 1.363 . S
C1184 H1161 0.950 . S
C1184 C1183 1.397 . S
C1184 C1185 1.334 . S
C1185 H1162 0.950 . S
C1185 C1184 1.334 . S
C1185 C1186 1.287 . S
C1186 C1185 1.287 . S
C1186 C1187 1.524 . S
C1186 H1205 0.913 . S
C1187 H1163 0.950 . S
C1187 C1186 1.524 . S
C1187 C1188 1.415 . S
C1188 H1164 0.950 . S
C1188 C1183 1.363 . S
C1188 C1187 1.415 . S
C1189 H1165 0.951 . S
C1189 C1190 1.366 . S
C1189 C1191 1.388 . S
C1190 C1189 1.366 . S
C1190 C1194 1.385 . S
C1191 H1166 0.951 . S
C1191 C1189 1.388 . S
C1191 C1192 1.366 . S
C1192 C1191 1.366 . S
C1192 C1193 1.414 . S
C1192 C1195 1.499 . S
C1193 H1167 0.950 . S
C1193 C1192 1.414 . S
C1193 C1194 1.374 . S
C1194 H1168 0.950 . S
C1194 C1190 1.385 . S
C1194 C1193 1.374 . S
C1195 C1192 1.499 . S
C1195 C1196 1.373 . S
C1195 C1197 1.389 . S
C1196 H1169 0.950 . S
C1196 C1182 1.377 . S
C1196 C1195 1.373 . S
C1197 C1181 1.377 . S
C1197 C1195 1.389 . S
C1197 C1198 1.524 . S
C1198 C1197 1.524 . S
C1198 C1199 1.397 . S
C1198 C1203 1.363 . S
C1199 H1170 0.950 . S
C1199 C1198 1.397 . S
C1199 C1200 1.334 . S
C1200 H1171 0.950 . S
C1200 C1199 1.334 . S
C1200 C1201 1.287 . S
C1201 C1200 1.287 . S
C1201 C1202 1.524 . S
C1201 H1204 0.999 . S
C1202 H1172 0.950 . S
C1202 C1201 1.524 . S
C1202 C1203 1.415 . S
C1203 H1173 0.950 . S
C1203 C1198 1.363 . S
C1203 C1202 1.415 . S
H1204 C1201 0.999 . S
H1205 C1186 0.913 . S
H1206 C1224 0.951 . S
H1207 C1226 0.951 . S
H1208 C1228 0.950 . S
H1209 C1229 0.950 . S
H1210 C1231 0.950 . S
H1211 C1234 0.950 . S
H1212 C1235 0.950 . S
H1213 C1237 0.950 . S
H1214 C1238 0.950 . S
H1215 C1239 0.951 . S
H1216 C1241 0.951 . S
H1217 C1243 0.950 . S
H1218 C1244 0.950 . S
H1219 C1246 0.950 . S
H1220 C1249 0.950 . S
H1221 C1250 0.950 . S
H1222 C1252 0.950 . S
H1223 C1253 0.950 . S
C1224 H1206 0.951 . S
C1224 C1225 1.366 . S
C1224 C1226 1.388 . S
C1225 C1224 1.366 . S
C1225 C1229 1.385 . S
C1226 H1207 0.951 . S
C1226 C1224 1.388 . S
C1226 C1227 1.366 . S
C1227 C1226 1.366 . S
C1227 C1228 1.414 . S
C1227 C1230 1.499 . S
C1228 H1208 0.950 . S
C1228 C1227 1.414 . S
C1228 C1229 1.374 . S
C1229 H1209 0.950 . S
C1229 C1225 1.385 . S
C1229 C1228 1.374 . S
C1230 C1227 1.499 . S
C1230 C1231 1.373 . S
C1230 C1232 1.389 . S
C1231 H1210 0.950 . S
C1231 C1230 1.373 . S
C1231 C1247 1.377 . S
C1232 C1230 1.389 . S
C1232 C1233 1.524 . S
C1232 C1246 1.377 . S
C1233 C1232 1.524 . S
C1233 C1234 1.397 . S
C1233 C1238 1.363 . S
C1234 H1211 0.950 . S
C1234 C1233 1.397 . S
C1234 C1235 1.334 . S
C1235 H1212 0.950 . S
C1235 C1234 1.334 . S
C1235 C1236 1.287 . S
C1236 C1235 1.287 . S
C1236 C1237 1.524 . S
C1236 H1255 0.913 . S
C1237 H1213 0.950 . S
C1237 C1236 1.524 . S
C1237 C1238 1.415 . S
C1238 H1214 0.950 . S
C1238 C1233 1.363 . S
C1238 C1237 1.415 . S
C1239 H1215 0.951 . S
C1239 C1240 1.366 . S
C1239 C1241 1.388 . S
C1240 C1239 1.366 . S
C1240 C1244 1.385 . S
C1241 H1216 0.951 . S
C1241 C1239 1.388 . S
C1241 C1242 1.366 . S
C1242 C1241 1.366 . S
C1242 C1243 1.414 . S
C1242 C1245 1.499 . S
C1243 H1217 0.950 . S
C1243 C1242 1.414 . S
C1243 C1244 1.374 . S
C1244 H1218 0.950 . S
C1244 C1240 1.385 . S
C1244 C1243 1.374 . S
C1245 C1242 1.499 . S
C1245 C1246 1.373 . S
C1245 C1247 1.389 . S
C1246 H1219 0.950 . S
C1246 C1232 1.377 . S
C1246 C1245 1.373 . S
C1247 C1231 1.377 . S
C1247 C1245 1.389 . S
C1247 C1248 1.524 . S
C1248 C1247 1.524 . S
C1248 C1249 1.397 . S
C1248 C1253 1.363 . S
C1249 H1220 0.950 . S
C1249 C1248 1.397 . S
C1249 C1250 1.334 . S
C1250 H1221 0.950 . S
C1250 C1249 1.334 . S
C1250 C1251 1.287 . S
C1251 C1250 1.287 . S
C1251 C1252 1.524 . S
C1251 H1254 0.999 . S
C1252 H1222 0.950 . S
C1252 C1251 1.524 . S
C1252 C1253 1.415 . S
C1253 H1223 0.950 . S
C1253 C1248 1.363 . S
C1253 C1252 1.415 . S
H1254 C1251 0.999 . S
H1255 C1236 0.913 . S
H1256 C1274 0.951 . S
H1257 C1276 0.951 . S
H1258 C1278 0.950 . S
H1259 C1279 0.950 . S
H1260 C1281 0.950 . S
H1261 C1284 0.950 . S
H1262 C1285 0.950 . S
H1263 C1287 0.950 . S
H1264 C1288 0.950 . S
H1265 C1289 0.951 . S
H1266 C1291 0.951 . S
H1267 C1293 0.950 . S
H1268 C1294 0.950 . S
H1269 C1296 0.950 . S
H1270 C1299 0.950 . S
H1271 C1300 0.950 . S
H1272 C1302 0.950 . S
H1273 C1303 0.950 . S
C1274 H1256 0.951 . S
C1274 C1275 1.366 . S
C1274 C1276 1.388 . S
C1275 C1274 1.366 . S
C1275 C1279 1.385 . S
C1276 H1257 0.951 . S
C1276 C1274 1.388 . S
C1276 C1277 1.366 . S
C1277 C1276 1.366 . S
C1277 C1278 1.414 . S
C1277 C1280 1.499 . S
C1278 H1258 0.950 . S
C1278 C1277 1.414 . S
C1278 C1279 1.374 . S
C1279 H1259 0.950 . S
C1279 C1275 1.385 . S
C1279 C1278 1.374 . S
C1280 C1277 1.499 . S
C1280 C1281 1.373 . S
C1280 C1282 1.389 . S
C1281 H1260 0.950 . S
C1281 C1280 1.373 . S
C1281 C1297 1.377 . S
C1282 C1280 1.389 . S
C1282 C1283 1.524 . S
C1282 C1296 1.377 . S
C1283 C1282 1.524 . S
C1283 C1284 1.397 . S
C1283 C1288 1.363 . S
C1284 H1261 0.950 . S
C1284 C1283 1.397 . S
C1284 C1285 1.334 . S
C1285 H1262 0.950 . S
C1285 C1284 1.334 . S
C1285 C1286 1.287 . S
C1286 C1285 1.287 . S
C1286 C1287 1.524 . S
C1286 H1305 0.913 . S
C1287 H1263 0.950 . S
C1287 C1286 1.524 . S
C1287 C1288 1.415 . S
C1288 H1264 0.950 . S
C1288 C1283 1.363 . S
C1288 C1287 1.415 . S
C1289 H1265 0.951 . S
C1289 C1290 1.366 . S
C1289 C1291 1.388 . S
C1290 C1289 1.366 . S
C1290 C1294 1.385 . S
C1291 H1266 0.951 . S
C1291 C1289 1.388 . S
C1291 C1292 1.366 . S
C1292 C1291 1.366 . S
C1292 C1293 1.414 . S
C1292 C1295 1.499 . S
C1293 H1267 0.950 . S
C1293 C1292 1.414 . S
C1293 C1294 1.374 . S
C1294 H1268 0.950 . S
C1294 C1290 1.385 . S
C1294 C1293 1.374 . S
C1295 C1292 1.499 . S
C1295 C1296 1.373 . S
C1295 C1297 1.389 . S
C1296 H1269 0.950 . S
C1296 C1282 1.377 . S
C1296 C1295 1.373 . S
C1297 C1281 1.377 . S
C1297 C1295 1.389 . S
C1297 C1298 1.524 . S
C1298 C1297 1.524 . S
C1298 C1299 1.397 . S
C1298 C1303 1.363 . S
C1299 H1270 0.950 . S
C1299 C1298 1.397 . S
C1299 C1300 1.334 . S
C1300 H1271 0.950 . S
C1300 C1299 1.334 . S
C1300 C1301 1.287 . S
C1301 C1300 1.287 . S
C1301 C1302 1.524 . S
C1301 H1304 0.999 . S
C1302 H1272 0.950 . S
C1302 C1301 1.524 . S
C1302 C1303 1.415 . S
C1303 H1273 0.950 . S
C1303 C1298 1.363 . S
C1303 C1302 1.415 . S
H1304 C1301 0.999 . S
H1305 C1286 0.913 . S
H1306 C1324 0.951 . S
H1307 C1326 0.951 . S
H1308 C1328 0.950 . S
H1309 C1329 0.950 . S
H1310 C1331 0.950 . S
H1311 C1334 0.950 . S
H1312 C1335 0.950 . S
H1313 C1337 0.950 . S
H1314 C1338 0.950 . S
H1315 C1339 0.951 . S
H1316 C1341 0.951 . S
H1317 C1343 0.950 . S
H1318 C1344 0.950 . S
H1319 C1346 0.950 . S
H1320 C1349 0.950 . S
H1321 C1350 0.950 . S
H1322 C1352 0.950 . S
H1323 C1353 0.950 . S
C1324 H1306 0.951 . S
C1324 C1325 1.366 . S
C1324 C1326 1.388 . S
C1325 C1324 1.366 . S
C1325 C1329 1.385 . S
C1326 H1307 0.951 . S
C1326 C1324 1.388 . S
C1326 C1327 1.366 . S
C1327 C1326 1.366 . S
C1327 C1328 1.414 . S
C1327 C1330 1.499 . S
C1328 H1308 0.950 . S
C1328 C1327 1.414 . S
C1328 C1329 1.374 . S
C1329 H1309 0.950 . S
C1329 C1325 1.385 . S
C1329 C1328 1.374 . S
C1330 C1327 1.499 . S
C1330 C1331 1.373 . S
C1330 C1332 1.389 . S
C1331 H1310 0.950 . S
C1331 C1330 1.373 . S
C1331 C1347 1.377 . S
C1332 C1330 1.389 . S
C1332 C1333 1.524 . S
C1332 C1346 1.377 . S
C1333 C1332 1.524 . S
C1333 C1334 1.397 . S
C1333 C1338 1.363 . S
C1334 H1311 0.950 . S
C1334 C1333 1.397 . S
C1334 C1335 1.334 . S
C1335 H1312 0.950 . S
C1335 C1334 1.334 . S
C1335 C1336 1.287 . S
C1336 C1335 1.287 . S
C1336 C1337 1.524 . S
C1336 H1355 0.913 . S
C1337 H1313 0.950 . S
C1337 C1336 1.524 . S
C1337 C1338 1.415 . S
C1338 H1314 0.950 . S
C1338 C1333 1.363 . S
C1338 C1337 1.415 . S
C1339 H1315 0.951 . S
C1339 C1340 1.366 . S
C1339 C1341 1.388 . S
C1340 C1339 1.366 . S
C1340 C1344 1.385 . S
C1341 H1316 0.951 . S
C1341 C1339 1.388 . S
C1341 C1342 1.366 . S
C1342 C1341 1.366 . S
C1342 C1343 1.414 . S
C1342 C1345 1.499 . S
C1343 H1317 0.950 . S
C1343 C1342 1.414 . S
C1343 C1344 1.374 . S
C1344 H1318 0.950 . S
C1344 C1340 1.385 . S
C1344 C1343 1.374 . S
C1345 C1342 1.499 . S
C1345 C1346 1.373 . S
C1345 C1347 1.389 . S
C1346 H1319 0.950 . S
C1346 C1332 1.377 . S
C1346 C1345 1.373 . S
C1347 C1331 1.377 . S
C1347 C1345 1.389 . S
C1347 C1348 1.524 . S
C1348 C1347 1.524 . S
C1348 C1349 1.397 . S
C1348 C1353 1.363 . S
C1349 H1320 0.950 . S
C1349 C1348 1.397 . S
C1349 C1350 1.334 . S
C1350 H1321 0.950 . S
C1350 C1349 1.334 . S
C1350 C1351 1.287 . S
C1351 C1350 1.287 . S
C1351 C1352 1.524 . S
C1351 H1354 0.999 . S
C1352 H1322 0.950 . S
C1352 C1351 1.524 . S
C1352 C1353 1.415 . S
C1353 H1323 0.950 . S
C1353 C1348 1.363 . S
C1353 C1352 1.415 . S
H1354 C1351 0.999 . S
H1355 C1336 0.913 . S
H1356 C1374 0.951 . S
H1357 C1376 0.951 . S
H1358 C1378 0.950 . S
H1359 C1379 0.950 . S
H1360 C1381 0.950 . S
H1361 C1384 0.950 . S
H1362 C1385 0.950 . S
H1363 C1387 0.950 . S
H1364 C1388 0.950 . S
H1365 C1389 0.951 . S
H1366 C1391 0.951 . S
H1367 C1393 0.950 . S
H1368 C1394 0.950 . S
H1369 C1396 0.950 . S
H1370 C1399 0.950 . S
H1371 C1400 0.950 . S
H1372 C1402 0.950 . S
H1373 C1403 0.950 . S
C1374 H1356 0.951 . S
C1374 C1375 1.366 . S
C1374 C1376 1.388 . S
C1375 C1374 1.366 . S
C1375 C1379 1.385 . S
C1376 H1357 0.951 . S
C1376 C1374 1.388 . S
C1376 C1377 1.366 . S
C1377 C1376 1.366 . S
C1377 C1378 1.414 . S
C1377 C1380 1.499 . S
C1378 H1358 0.950 . S
C1378 C1377 1.414 . S
C1378 C1379 1.374 . S
C1379 H1359 0.950 . S
C1379 C1375 1.385 . S
C1379 C1378 1.374 . S
C1380 C1377 1.499 . S
C1380 C1381 1.373 . S
C1380 C1382 1.389 . S
C1381 H1360 0.950 . S
C1381 C1380 1.373 . S
C1381 C1397 1.377 . S
C1382 C1380 1.389 . S
C1382 C1383 1.524 . S
C1382 C1396 1.377 . S
C1383 C1382 1.524 . S
C1383 C1384 1.397 . S
C1383 C1388 1.363 . S
C1384 H1361 0.950 . S
C1384 C1383 1.397 . S
C1384 C1385 1.334 . S
C1385 H1362 0.950 . S
C1385 C1384 1.334 . S
C1385 C1386 1.287 . S
C1386 C1385 1.287 . S
C1386 C1387 1.524 . S
C1386 H1405 0.913 . S
C1387 H1363 0.950 . S
C1387 C1386 1.524 . S
C1387 C1388 1.415 . S
C1388 H1364 0.950 . S
C1388 C1383 1.363 . S
C1388 C1387 1.415 . S
C1389 H1365 0.951 . S
C1389 C1390 1.366 . S
C1389 C1391 1.388 . S
C1390 C1389 1.366 . S
C1390 C1394 1.385 . S
C1391 H1366 0.951 . S
C1391 C1389 1.388 . S
C1391 C1392 1.366 . S
C1392 C1391 1.366 . S
C1392 C1393 1.414 . S
C1392 C1395 1.499 . S
C1393 H1367 0.950 . S
C1393 C1392 1.414 . S
C1393 C1394 1.374 . S
C1394 H1368 0.950 . S
C1394 C1390 1.385 . S
C1394 C1393 1.374 . S
C1395 C1392 1.499 . S
C1395 C1396 1.373 . S
C1395 C1397 1.389 . S
C1396 H1369 0.950 . S
C1396 C1382 1.377 . S
C1396 C1395 1.373 . S
C1397 C1381 1.377 . S
C1397 C1395 1.389 . S
C1397 C1398 1.524 . S
C1398 C1397 1.524 . S
C1398 C1399 1.397 . S
C1398 C1403 1.363 . S
C1399 H1370 0.950 . S
C1399 C1398 1.397 . S
C1399 C1400 1.334 . S
C1400 H1371 0.950 . S
C1400 C1399 1.334 . S
C1400 C1401 1.287 . S
C1401 C1400 1.287 . S
C1401 C1402 1.524 . S
C1401 H1404 0.999 . S
C1402 H1372 0.950 . S
C1402 C1401 1.524 . S
C1402 C1403 1.415 . S
C1403 H1373 0.950 . S
C1403 C1398 1.363 . S
C1403 C1402 1.415 . S
H1404 C1401 0.999 . S
H1405 C1386 0.913 . S
H1406 C1424 0.951 . S
H1407 C1426 0.951 . S
H1408 C1428 0.950 . S
H1409 C1429 0.950 . S
H1410 C1431 0.950 . S
H1411 C1434 0.950 . S
H1412 C1435 0.950 . S
H1413 C1437 0.950 . S
H1414 C1438 0.950 . S
H1415 C1439 0.951 . S
H1416 C1441 0.951 . S
H1417 C1443 0.950 . S
H1418 C1444 0.950 . S
H1419 C1446 0.950 . S
H1420 C1449 0.950 . S
H1421 C1450 0.950 . S
H1422 C1452 0.950 . S
H1423 C1453 0.950 . S
C1424 H1406 0.951 . S
C1424 C1425 1.366 . S
C1424 C1426 1.388 . S
C1425 C1424 1.366 . S
C1425 C1429 1.385 . S
C1426 H1407 0.951 . S
C1426 C1424 1.388 . S
C1426 C1427 1.366 . S
C1427 C1426 1.366 . S
C1427 C1428 1.414 . S
C1427 C1430 1.499 . S
C1428 H1408 0.950 . S
C1428 C1427 1.414 . S
C1428 C1429 1.374 . S
C1429 H1409 0.950 . S
C1429 C1425 1.385 . S
C1429 C1428 1.374 . S
C1430 C1427 1.499 . S
C1430 C1431 1.373 . S
C1430 C1432 1.389 . S
C1431 H1410 0.950 . S
C1431 C1430 1.373 . S
C1431 C1447 1.377 . S
C1432 C1430 1.389 . S
C1432 C1433 1.524 . S
C1432 C1446 1.377 . S
C1433 C1432 1.524 . S
C1433 C1434 1.397 . S
C1433 C1438 1.363 . S
C1434 H1411 0.950 . S
C1434 C1433 1.397 . S
C1434 C1435 1.334 . S
C1435 H1412 0.950 . S
C1435 C1434 1.334 . S
C1435 C1436 1.287 . S
C1436 C1435 1.287 . S
C1436 C1437 1.524 . S
C1436 H1455 0.913 . S
C1437 H1413 0.950 . S
C1437 C1436 1.524 . S
C1437 C1438 1.415 . S
C1438 H1414 0.950 . S
C1438 C1433 1.363 . S
C1438 C1437 1.415 . S
C1439 H1415 0.951 . S
C1439 C1440 1.366 . S
C1439 C1441 1.388 . S
C1440 C1439 1.366 . S
C1440 C1444 1.385 . S
C1441 H1416 0.951 . S
C1441 C1439 1.388 . S
C1441 C1442 1.366 . S
C1442 C1441 1.366 . S
C1442 C1443 1.414 . S
C1442 C1445 1.499 . S
C1443 H1417 0.950 . S
C1443 C1442 1.414 . S
C1443 C1444 1.374 . S
C1444 H1418 0.950 . S
C1444 C1440 1.385 . S
C1444 C1443 1.374 . S
C1445 C1442 1.499 . S
C1445 C1446 1.373 . S
C1445 C1447 1.389 . S
C1446 H1419 0.950 . S
C1446 C1432 1.377 . S
C1446 C1445 1.373 . S
C1447 C1431 1.377 . S
C1447 C1445 1.389 . S
C1447 C1448 1.524 . S
C1448 C1447 1.524 . S
C1448 C1449 1.397 . S
C1448 C1453 1.363 . S
C1449 H1420 0.950 . S
C1449 C1448 1.397 . S
C1449 C1450 1.334 . S
C1450 H1421 0.950 . S
C1450 C1449 1.334 . S
C1450 C1451 1.287 . S
C1451 C1450 1.287 . S
C1451 C1452 1.524 . S
C1451 H1454 0.999 . S
C1452 H1422 0.950 . S
C1452 C1451 1.524 . S
C1452 C1453 1.415 . S
C1453 H1423 0.950 . S
C1453 C1448 1.363 . S
C1453 C1452 1.415 . S
H1454 C1451 0.999 . S
H1455 C1436 0.913 . S
H1456 C1474 0.951 . S
H1457 C1476 0.951 . S
H1458 C1478 0.950 . S
H1459 C1479 0.950 . S
H1460 C1481 0.950 . S
H1461 C1484 0.950 . S
H1462 C1485 0.950 . S
H1463 C1487 0.950 . S
H1464 C1488 0.950 . S
H1465 C1489 0.951 . S
H1466 C1491 0.951 . S
H1467 C1493 0.950 . S
H1468 C1494 0.950 . S
H1469 C1496 0.950 . S
H1470 C1499 0.950 . S
H1471 C1500 0.950 . S
H1472 C1502 0.950 . S
H1473 C1503 0.950 . S
C1474 H1456 0.951 . S
C1474 C1475 1.366 . S
C1474 C1476 1.388 . S
C1475 C1474 1.366 . S
C1475 C1479 1.385 . S
C1476 H1457 0.951 . S
C1476 C1474 1.388 . S
C1476 C1477 1.366 . S
C1477 C1476 1.366 . S
C1477 C1478 1.414 . S
C1477 C1480 1.499 . S
C1478 H1458 0.950 . S
C1478 C1477 1.414 . S
C1478 C1479 1.374 . S
C1479 H1459 0.950 . S
C1479 C1475 1.385 . S
C1479 C1478 1.374 . S
C1480 C1477 1.499 . S
C1480 C1481 1.373 . S
C1480 C1482 1.389 . S
C1481 H1460 0.950 . S
C1481 C1480 1.373 . S
C1481 C1497 1.377 . S
C1482 C1480 1.389 . S
C1482 C1483 1.524 . S
C1482 C1496 1.377 . S
C1483 C1482 1.524 . S
C1483 C1484 1.397 . S
C1483 C1488 1.363 . S
C1484 H1461 0.950 . S
C1484 C1483 1.397 . S
C1484 C1485 1.334 . S
C1485 H1462 0.950 . S
C1485 C1484 1.334 . S
C1485 C1486 1.287 . S
C1486 C1485 1.287 . S
C1486 C1487 1.524 . S
C1486 H1505 0.913 . S
C1487 H1463 0.950 . S
C1487 C1486 1.524 . S
C1487 C1488 1.415 . S
C1488 H1464 0.950 . S
C1488 C1483 1.363 . S
C1488 C1487 1.415 . S
C1489 H1465 0.951 . S
C1489 C1490 1.366 . S
C1489 C1491 1.388 . S
C1490 C1489 1.366 . S
C1490 C1494 1.385 . S
C1491 H1466 0.951 . S
C1491 C1489 1.388 . S
C1491 C1492 1.366 . S
C1492 C1491 1.366 . S
C1492 C1493 1.414 . S
C1492 C1495 1.499 . S
C1493 H1467 0.950 . S
C1493 C1492 1.414 . S
C1493 C1494 1.374 . S
C1494 H1468 0.950 . S
C1494 C1490 1.385 . S
C1494 C1493 1.374 . S
C1495 C1492 1.499 . S
C1495 C1496 1.373 . S
C1495 C1497 1.389 . S
C1496 H1469 0.950 . S
C1496 C1482 1.377 . S
C1496 C1495 1.373 . S
C1497 C1481 1.377 . S
C1497 C1495 1.389 . S
C1497 C1498 1.524 . S
C1498 C1497 1.524 . S
C1498 C1499 1.397 . S
C1498 C1503 1.363 . S
C1499 H1470 0.950 . S
C1499 C1498 1.397 . S
C1499 C1500 1.334 . S
C1500 H1471 0.950 . S
C1500 C1499 1.334 . S
C1500 C1501 1.287 . S
C1501 C1500 1.287 . S
C1501 C1502 1.524 . S
C1501 H1504 0.999 . S
C1502 H1472 0.950 . S
C1502 C1501 1.524 . S
C1502 C1503 1.415 . S
C1503 H1473 0.950 . S
C1503 C1498 1.363 . S
C1503 C1502 1.415 . S
H1504 C1501 0.999 . S
H1505 C1486 0.913 . S
H1506 C1524 0.951 . S
H1507 C1526 0.951 . S
H1508 C1528 0.950 . S
H1509 C1529 0.950 . S
H1510 C1531 0.950 . S
H1511 C1534 0.950 . S
H1512 C1535 0.950 . S
H1513 C1537 0.950 . S
H1514 C1538 0.950 . S
H1515 C1539 0.951 . S
H1516 C1541 0.951 . S
H1517 C1543 0.950 . S
H1518 C1544 0.950 . S
H1519 C1546 0.950 . S
H1520 C1549 0.950 . S
H1521 C1550 0.950 . S
H1522 C1552 0.950 . S
H1523 C1553 0.950 . S
C1524 H1506 0.951 . S
C1524 C1525 1.366 . S
C1524 C1526 1.388 . S
C1525 C1524 1.366 . S
C1525 C1529 1.385 . S
C1526 H1507 0.951 . S
C1526 C1524 1.388 . S
C1526 C1527 1.366 . S
C1527 C1526 1.366 . S
C1527 C1528 1.414 . S
C1527 C1530 1.499 . S
C1528 H1508 0.950 . S
C1528 C1527 1.414 . S
C1528 C1529 1.374 . S
C1529 H1509 0.950 . S
C1529 C1525 1.385 . S
C1529 C1528 1.374 . S
C1530 C1527 1.499 . S
C1530 C1531 1.373 . S
C1530 C1532 1.389 . S
C1531 H1510 0.950 . S
C1531 C1530 1.373 . S
C1531 C1547 1.377 . S
C1532 C1530 1.389 . S
C1532 C1533 1.524 . S
C1532 C1546 1.377 . S
C1533 C1532 1.524 . S
C1533 C1534 1.397 . S
C1533 C1538 1.363 . S
C1534 H1511 0.950 . S
C1534 C1533 1.397 . S
C1534 C1535 1.334 . S
C1535 H1512 0.950 . S
C1535 C1534 1.334 . S
C1535 C1536 1.287 . S
C1536 C1535 1.287 . S
C1536 C1537 1.524 . S
C1536 H1555 0.913 . S
C1537 H1513 0.950 . S
C1537 C1536 1.524 . S
C1537 C1538 1.415 . S
C1538 H1514 0.950 . S
C1538 C1533 1.363 . S
C1538 C1537 1.415 . S
C1539 H1515 0.951 . S
C1539 C1540 1.366 . S
C1539 C1541 1.388 . S
C1540 C1539 1.366 . S
C1540 C1544 1.385 . S
C1541 H1516 0.951 . S
C1541 C1539 1.388 . S
C1541 C1542 1.366 . S
C1542 C1541 1.366 . S
C1542 C1543 1.414 . S
C1542 C1545 1.499 . S
C1543 H1517 0.950 . S
C1543 C1542 1.414 . S
C1543 C1544 1.374 . S
C1544 H1518 0.950 . S
C1544 C1540 1.385 . S
C1544 C1543 1.374 . S
C1545 C1542 1.499 . S
C1545 C1546 1.373 . S
C1545 C1547 1.389 . S
C1546 H1519 0.950 . S
C1546 C1532 1.377 . S
C1546 C1545 1.373 . S
C1547 C1531 1.377 . S
C1547 C1545 1.389 . S
C1547 C1548 1.524 . S
C1548 C1547 1.524 . S
C1548 C1549 1.397 . S
C1548 C1553 1.363 . S
C1549 H1520 0.950 . S
C1549 C1548 1.397 . S
C1549 C1550 1.334 . S
C1550 H1521 0.950 . S
C1550 C1549 1.334 . S
C1550 C1551 1.287 . S
C1551 C1550 1.287 . S
C1551 C1552 1.524 . S
C1551 H1554 0.999 . S
C1552 H1522 0.950 . S
C1552 C1551 1.524 . S
C1552 C1553 1.415 . S
C1553 H1523 0.950 . S
C1553 C1548 1.363 . S
C1553 C1552 1.415 . S
H1554 C1551 0.999 . S
H1555 C1536 0.913 . S
H1556 C1574 0.951 . S
H1557 C1576 0.951 . S
H1558 C1578 0.950 . S
H1559 C1579 0.950 . S
H1560 C1581 0.950 . S
H1561 C1584 0.950 . S
H1562 C1585 0.950 . S
H1563 C1587 0.950 . S
H1564 C1588 0.950 . S
H1565 C1589 0.951 . S
H1566 C1591 0.951 . S
H1567 C1593 0.950 . S
H1568 C1594 0.950 . S
H1569 C1596 0.950 . S
H1570 C1599 0.950 . S
H1571 C1600 0.950 . S
H1572 C1602 0.950 . S
H1573 C1603 0.950 . S
C1574 H1556 0.951 . S
C1574 C1575 1.366 . S
C1574 C1576 1.388 . S
C1575 C1574 1.366 . S
C1575 C1579 1.385 . S
C1576 H1557 0.951 . S
C1576 C1574 1.388 . S
C1576 C1577 1.366 . S
C1577 C1576 1.366 . S
C1577 C1578 1.414 . S
C1577 C1580 1.499 . S
C1578 H1558 0.950 . S
C1578 C1577 1.414 . S
C1578 C1579 1.374 . S
C1579 H1559 0.950 . S
C1579 C1575 1.385 . S
C1579 C1578 1.374 . S
C1580 C1577 1.499 . S
C1580 C1581 1.373 . S
C1580 C1582 1.389 . S
C1581 H1560 0.950 . S
C1581 C1580 1.373 . S
C1581 C1597 1.377 . S
C1582 C1580 1.389 . S
C1582 C1583 1.524 . S
C1582 C1596 1.377 . S
C1583 C1582 1.524 . S
C1583 C1584 1.397 . S
C1583 C1588 1.363 . S
C1584 H1561 0.950 . S
C1584 C1583 1.397 . S
C1584 C1585 1.334 . S
C1585 H1562 0.950 . S
C1585 C1584 1.334 . S
C1585 C1586 1.287 . S
C1586 C1585 1.287 . S
C1586 C1587 1.524 . S
C1586 H1605 0.913 . S
C1587 H1563 0.950 . S
C1587 C1586 1.524 . S
C1587 C1588 1.415 . S
C1588 H1564 0.950 . S
C1588 C1583 1.363 . S
C1588 C1587 1.415 . S
C1589 H1565 0.951 . S
C1589 C1590 1.366 . S
C1589 C1591 1.388 . S
C1590 C1589 1.366 . S
C1590 C1594 1.385 . S
C1591 H1566 0.951 . S
C1591 C1589 1.388 . S
C1591 C1592 1.366 . S
C1592 C1591 1.366 . S
C1592 C1593 1.414 . S
C1592 C1595 1.499 . S
C1593 H1567 0.950 . S
C1593 C1592 1.414 . S
C1593 C1594 1.374 . S
C1594 H1568 0.950 . S
C1594 C1590 1.385 . S
C1594 C1593 1.374 . S
C1595 C1592 1.499 . S
C1595 C1596 1.373 . S
C1595 C1597 1.389 . S
C1596 H1569 0.950 . S
C1596 C1582 1.377 . S
C1596 C1595 1.373 . S
C1597 C1581 1.377 . S
C1597 C1595 1.389 . S
C1597 C1598 1.524 . S
C1598 C1597 1.524 . S
C1598 C1599 1.397 . S
C1598 C1603 1.363 . S
C1599 H1570 0.950 . S
C1599 C1598 1.397 . S
C1599 C1600 1.334 . S
C1600 H1571 0.950 . S
C1600 C1599 1.334 . S
C1600 C1601 1.287 . S
C1601 C1600 1.287 . S
C1601 C1602 1.524 . S
C1601 H1604 0.999 . S
C1602 H1572 0.950 . S
C1602 C1601 1.524 . S
C1602 C1603 1.415 . S
C1603 H1573 0.950 . S
C1603 C1598 1.363 . S
C1603 C1602 1.415 . S
H1604 C1601 0.999 . S
H1605 C1586 0.913 . S
H1606 C1624 0.951 . S
H1607 C1626 0.951 . S
H1608 C1628 0.950 . S
H1609 C1629 0.950 . S
H1610 C1631 0.950 . S
H1611 C1634 0.950 . S
H1612 C1635 0.950 . S
H1613 C1637 0.950 . S
H1614 C1638 0.950 . S
H1615 C1639 0.951 . S
H1616 C1641 0.951 . S
H1617 C1643 0.950 . S
H1618 C1644 0.950 . S
H1619 C1646 0.950 . S
H1620 C1649 0.950 . S
H1621 C1650 0.950 . S
H1622 C1652 0.950 . S
H1623 C1653 0.950 . S
C1624 H1606 0.951 . S
C1624 C1625 1.366 . S
C1624 C1626 1.388 . S
C1625 C1624 1.366 . S
C1625 C1629 1.385 . S
C1626 H1607 0.951 . S
C1626 C1624 1.388 . S
C1626 C1627 1.366 . S
C1627 C1626 1.366 . S
C1627 C1628 1.414 . S
C1627 C1630 1.499 . S
C1628 H1608 0.950 . S
C1628 C1627 1.414 . S
C1628 C1629 1.374 . S
C1629 H1609 0.950 . S
C1629 C1625 1.385 . S
C1629 C1628 1.374 . S
C1630 C1627 1.499 . S
C1630 C1631 1.373 . S
C1630 C1632 1.389 . S
C1631 H1610 0.950 . S
C1631 C1630 1.373 . S
C1631 C1647 1.377 . S
C1632 C1630 1.389 . S
C1632 C1633 1.524 . S
C1632 C1646 1.377 . S
C1633 C1632 1.524 . S
C1633 C1634 1.397 . S
C1633 C1638 1.363 . S
C1634 H1611 0.950 . S
C1634 C1633 1.397 . S
C1634 C1635 1.334 . S
C1635 H1612 0.950 . S
C1635 C1634 1.334 . S
C1635 C1636 1.287 . S
C1636 C1635 1.287 . S
C1636 C1637 1.524 . S
C1636 H1655 0.913 . S
C1637 H1613 0.950 . S
C1637 C1636 1.524 . S
C1637 C1638 1.415 . S
C1638 H1614 0.950 . S
C1638 C1633 1.363 . S
C1638 C1637 1.415 . S
C1639 H1615 0.951 . S
C1639 C1640 1.366 . S
C1639 C1641 1.388 . S
C1640 C1639 1.366 . S
C1640 C1644 1.385 . S
C1641 H1616 0.951 . S
C1641 C1639 1.388 . S
C1641 C1642 1.366 . S
C1642 C1641 1.366 . S
C1642 C1643 1.414 . S
C1642 C1645 1.499 . S
C1643 H1617 0.950 . S
C1643 C1642 1.414 . S
C1643 C1644 1.374 . S
C1644 H1618 0.950 . S
C1644 C1640 1.385 . S
C1644 C1643 1.374 . S
C1645 C1642 1.499 . S
C1645 C1646 1.373 . S
C1645 C1647 1.389 . S
C1646 H1619 0.950 . S
C1646 C1632 1.377 . S
C1646 C1645 1.373 . S
C1647 C1631 1.377 . S
C1647 C1645 1.389 . S
C1647 C1648 1.524 . S
C1648 C1647 1.524 . S
C1648 C1649 1.397 . S
C1648 C1653 1.363 . S
C1649 H1620 0.950 . S
C1649 C1648 1.397 . S
C1649 C1650 1.334 . S
C1650 H1621 0.950 . S
C1650 C1649 1.334 . S
C1650 C1651 1.287 . S
C1651 C1650 1.287 . S
C1651 C1652 1.524 . S
C1651 H1654 0.999 . S
C1652 H1622 0.950 . S
C1652 C1651 1.524 . S
C1652 C1653 1.415 . S
C1653 H1623 0.950 . S
C1653 C1648 1.363 . S
C1653 C1652 1.415 . S
H1654 C1651 0.999 . S
H1655 C1636 0.913 . S
H1656 C1674 0.951 . S
H1657 C1676 0.951 . S
H1658 C1678 0.950 . S
H1659 C1679 0.950 . S
H1660 C1681 0.950 . S
H1661 C1684 0.950 . S
H1662 C1685 0.950 . S
H1663 C1687 0.950 . S
H1664 C1688 0.950 . S
H1665 C1689 0.951 . S
H1666 C1691 0.951 . S
H1667 C1693 0.950 . S
H1668 C1694 0.950 . S
H1669 C1696 0.950 . S
H1670 C1699 0.950 . S
H1671 C1700 0.950 . S
H1672 C1702 0.950 . S
H1673 C1703 0.950 . S
C1674 H1656 0.951 . S
C1674 C1675 1.366 . S
C1674 C1676 1.388 . S
C1675 C1674 1.366 . S
C1675 C1679 1.385 . S
C1676 H1657 0.951 . S
C1676 C1674 1.388 . S
C1676 C1677 1.366 . S
C1677 C1676 1.366 . S
C1677 C1678 1.414 . S
C1677 C1680 1.499 . S
C1678 H1658 0.950 . S
C1678 C1677 1.414 . S
C1678 C1679 1.374 . S
C1679 H1659 0.950 . S
C1679 C1675 1.385 . S
C1679 C1678 1.374 . S
C1680 C1677 1.499 . S
C1680 C1681 1.373 . S
C1680 C1682 1.389 . S
C1681 H1660 0.950 . S
C1681 C1680 1.373 . S
C1681 C1697 1.377 . S
C1682 C1680 1.389 . S
C1682 C1683 1.524 . S
C1682 C1696 1.377 . S
C1683 C1682 1.524 . S
C1683 C1684 1.397 . S
C1683 C1688 1.363 . S
C1684 H1661 0.950 . S
C1684 C1683 1.397 . S
C1684 C1685 1.334 . S
C1685 H1662 0.950 . S
C1685 C1684 1.334 . S
C1685 C1686 1.287 . S
C1686 C1685 1.287 . S
C1686 C1687 1.524 . S
C1686 H1705 0.913 . S
C1687 H1663 0.950 . S
C1687 C1686 1.524 . S
C1687 C1688 1.415 . S
C1688 H1664 0.950 . S
C1688 C1683 1.363 . S
C1688 C1687 1.415 . S
C1689 H1665 0.951 . S
C1689 C1690 1.366 . S
C1689 C1691 1.388 . S
C1690 C1689 1.366 . S
C1690 C1694 1.385 . S
C1691 H1666 0.951 . S
C1691 C1689 1.388 . S
C1691 C1692 1.366 . S
C1692 C1691 1.366 . S
C1692 C1693 1.414 . S
C1692 C1695 1.499 . S
C1693 H1667 0.950 . S
C1693 C1692 1.414 . S
C1693 C1694 1.374 . S
C1694 H1668 0.950 . S
C1694 C1690 1.385 . S
C1694 C1693 1.374 . S
C1695 C1692 1.499 . S
C1695 C1696 1.373 . S
C1695 C1697 1.389 . S
C1696 H1669 0.950 . S
C1696 C1682 1.377 . S
C1696 C1695 1.373 . S
C1697 C1681 1.377 . S
C1697 C1695 1.389 . S
C1697 C1698 1.524 . S
C1698 C1697 1.524 . S
C1698 C1699 1.397 . S
C1698 C1703 1.363 . S
C1699 H1670 0.950 . S
C1699 C1698 1.397 . S
C1699 C1700 1.334 . S
C1700 H1671 0.950 . S
C1700 C1699 1.334 . S
C1700 C1701 1.287 . S
C1701 C1700 1.287 . S
C1701 C1702 1.524 . S
C1701 H1704 0.999 . S
C1702 H1672 0.950 . S
C1702 C1701 1.524 . S
C1702 C1703 1.415 . S
C1703 H1673 0.950 . S
C1703 C1698 1.363 . S
C1703 C1702 1.415 . S
H1704 C1701 0.999 . S
H1705 C1686 0.913 . S
H1706 C1724 0.951 . S
H1707 C1726 0.951 . S
H1708 C1728 0.950 . S
H1709 C1729 0.950 . S
H1710 C1731 0.950 . S
H1711 C1734 0.950 . S
H1712 C1735 0.950 . S
H1713 C1737 0.950 . S
H1714 C1738 0.950 . S
H1715 C1739 0.951 . S
H1716 C1741 0.951 . S
H1717 C1743 0.950 . S
H1718 C1744 0.950 . S
H1719 C1746 0.950 . S
H1720 C1749 0.950 . S
H1721 C1750 0.950 . S
H1722 C1752 0.950 . S
H1723 C1753 0.950 . S
C1724 H1706 0.951 . S
C1724 C1725 1.366 . S
C1724 C1726 1.388 . S
C1725 C1724 1.366 . S
C1725 C1729 1.385 . S
C1726 H1707 0.951 . S
C1726 C1724 1.388 . S
C1726 C1727 1.366 . S
C1727 C1726 1.366 . S
C1727 C1728 1.414 . S
C1727 C1730 1.499 . S
C1728 H1708 0.950 . S
C1728 C1727 1.414 . S
C1728 C1729 1.374 . S
C1729 H1709 0.950 . S
C1729 C1725 1.385 . S
C1729 C1728 1.374 . S
C1730 C1727 1.499 . S
C1730 C1731 1.373 . S
C1730 C1732 1.389 . S
C1731 H1710 0.950 . S
C1731 C1730 1.373 . S
C1731 C1747 1.377 . S
C1732 C1730 1.389 . S
C1732 C1733 1.524 . S
C1732 C1746 1.377 . S
C1733 C1732 1.524 . S
C1733 C1734 1.397 . S
C1733 C1738 1.363 . S
C1734 H1711 0.950 . S
C1734 C1733 1.397 . S
C1734 C1735 1.334 . S
C1735 H1712 0.950 . S
C1735 C1734 1.334 . S
C1735 C1736 1.287 . S
C1736 C1735 1.287 . S
C1736 C1737 1.524 . S
C1736 H1755 0.913 . S
C1737 H1713 0.950 . S
C1737 C1736 1.524 . S
C1737 C1738 1.415 . S
C1738 H1714 0.950 . S
C1738 C1733 1.363 . S
C1738 C1737 1.415 . S
C1739 H1715 0.951 . S
C1739 C1740 1.366 . S
C1739 C1741 1.388 . S
C1740 C1739 1.366 . S
C1740 C1744 1.385 . S
C1741 H1716 0.951 . S
C1741 C1739 1.388 . S
C1741 C1742 1.366 . S
C1742 C1741 1.366 . S
C1742 C1743 1.414 . S
C1742 C1745 1.499 . S
C1743 H1717 0.950 . S
C1743 C1742 1.414 . S
C1743 C1744 1.374 . S
C1744 H1718 0.950 . S
C1744 C1740 1.385 . S
C1744 C1743 1.374 . S
C1745 C1742 1.499 . S
C1745 C1746 1.373 . S
C1745 C1747 1.389 . S
C1746 H1719 0.950 . S
C1746 C1732 1.377 . S
C1746 C1745 1.373 . S
C1747 C1731 1.377 . S
C1747 C1745 1.389 . S
C1747 C1748 1.524 . S
C1748 C1747 1.524 . S
C1748 C1749 1.397 . S
C1748 C1753 1.363 . S
C1749 H1720 0.950 . S
C1749 C1748 1.397 . S
C1749 C1750 1.334 . S
C1750 H1721 0.950 . S
C1750 C1749 1.334 . S
C1750 C1751 1.287 . S
C1751 C1750 1.287 . S
C1751 C1752 1.524 . S
C1751 H1754 0.999 . S
C1752 H1722 0.950 . S
C1752 C1751 1.524 . S
C1752 C1753 1.415 . S
C1753 H1723 0.950 . S
C1753 C1748 1.363 . S
C1753 C1752 1.415 . S
H1754 C1751 0.999 . S
H1755 C1736 0.913 . S
H1756 C1774 0.951 . S
H1757 C1776 0.951 . S
H1758 C1778 0.950 . S
H1759 C1779 0.950 . S
H1760 C1781 0.950 . S
H1761 C1784 0.950 . S
H1762 C1785 0.950 . S
H1763 C1787 0.950 . S
H1764 C1788 0.950 . S
H1765 C1789 0.951 . S
H1766 C1791 0.951 . S
H1767 C1793 0.950 . S
H1768 C1794 0.950 . S
H1769 C1796 0.950 . S
H1770 C1799 0.950 . S
H1771 C1800 0.950 . S
H1772 C1802 0.950 . S
H1773 C1803 0.950 . S
C1774 H1756 0.951 . S
C1774 C1775 1.366 . S
C1774 C1776 1.388 . S
C1775 C1774 1.366 . S
C1775 C1779 1.385 . S
C1776 H1757 0.951 . S
C1776 C1774 1.388 . S
C1776 C1777 1.366 . S
C1777 C1776 1.366 . S
C1777 C1778 1.414 . S
C1777 C1780 1.499 . S
C1778 H1758 0.950 . S
C1778 C1777 1.414 . S
C1778 C1779 1.374 . S
C1779 H1759 0.950 . S
C1779 C1775 1.385 . S
C1779 C1778 1.374 . S
C1780 C1777 1.499 . S
C1780 C1781 1.373 . S
C1780 C1782 1.389 . S
C1781 H1760 0.950 . S
C1781 C1780 1.373 . S
C1781 C1797 1.377 . S
C1782 C1780 1.389 . S
C1782 C1783 1.524 . S
C1782 C1796 1.377 . S
C1783 C1782 1.524 . S
C1783 C1784 1.397 . S
C1783 C1788 1.363 . S
C1784 H1761 0.950 . S
C1784 C1783 1.397 . S
C1784 C1785 1.334 . S
C1785 H1762 0.950 . S
C1785 C1784 1.334 . S
C1785 C1786 1.287 . S
C1786 C1785 1.287 . S
C1786 C1787 1.524 . S
C1786 H1805 0.913 . S
C1787 H1763 0.950 . S
C1787 C1786 1.524 . S
C1787 C1788 1.415 . S
C1788 H1764 0.950 . S
C1788 C1783 1.363 . S
C1788 C1787 1.415 . S
C1789 H1765 0.951 . S
C1789 C1790 1.366 . S
C1789 C1791 1.388 . S
C1790 C1789 1.366 . S
C1790 C1794 1.385 . S
C1791 H1766 0.951 . S
C1791 C1789 1.388 . S
C1791 C1792 1.366 . S
C1792 C1791 1.366 . S
C1792 C1793 1.414 . S
C1792 C1795 1.499 . S
C1793 H1767 0.950 . S
C1793 C1792 1.414 . S
C1793 C1794 1.374 . S
C1794 H1768 0.950 . S
C1794 C1790 1.385 . S
C1794 C1793 1.374 . S
C1795 C1792 1.499 . S
C1795 C1796 1.373 . S
C1795 C1797 1.389 . S
C1796 H1769 0.950 . S
C1796 C1782 1.377 . S
C1796 C1795 1.373 . S
C1797 C1781 1.377 . S
C1797 C1795 1.389 . S
C1797 C1798 1.524 . S
C1798 C1797 1.524 . S
C1798 C1799 1.397 . S
C1798 C1803 1.363 . S
C1799 H1770 0.950 . S
C1799 C1798 1.397 . S
C1799 C1800 1.334 . S
C1800 H1771 0.950 . S
C1800 C1799 1.334 . S
C1800 C1801 1.287 . S
C1801 C1800 1.287 . S
C1801 C1802 1.524 . S
C1801 H1804 0.999 . S
C1802 H1772 0.950 . S
C1802 C1801 1.524 . S
C1802 C1803 1.415 . S
C1803 H1773 0.950 . S
C1803 C1798 1.363 . S
C1803 C1802 1.415 . S
H1804 C1801 0.999 . S
H1805 C1786 0.913 . S
H1806 C1824 0.951 . S
H1807 C1826 0.951 . S
H1808 C1828 0.950 . S
H1809 C1829 0.950 . S
H1810 C1831 0.950 . S
H1811 C1834 0.950 . S
H1812 C1835 0.950 . S
H1813 C1837 0.950 . S
H1814 C1838 0.950 . S
H1815 C1839 0.951 . S
H1816 C1841 0.951 . S
H1817 C1843 0.950 . S
H1818 C1844 0.950 . S
H1819 C1846 0.950 . S
H1820 C1849 0.950 . S
H1821 C1850 0.950 . S
H1822 C1852 0.950 . S
H1823 C1853 0.950 . S
C1824 H1806 0.951 . S
C1824 C1825 1.366 . S
C1824 C1826 1.388 . S
C1825 C1824 1.366 . S
C1825 C1829 1.385 . S
C1826 H1807 0.951 . S
C1826 C1824 1.388 . S
C1826 C1827 1.366 . S
C1827 C1826 1.366 . S
C1827 C1828 1.414 . S
C1827 C1830 1.499 . S
C1828 H1808 0.950 . S
C1828 C1827 1.414 . S
C1828 C1829 1.374 . S
C1829 H1809 0.950 . S
C1829 C1825 1.385 . S
C1829 C1828 1.374 . S
C1830 C1827 1.499 . S
C1830 C1831 1.373 . S
C1830 C1832 1.389 . S
C1831 H1810 0.950 . S
C1831 C1830 1.373 . S
C1831 C1847 1.377 . S
C1832 C1830 1.389 . S
C1832 C1833 1.524 . S
C1832 C1846 1.377 . S
C1833 C1832 1.524 . S
C1833 C1834 1.397 . S
C1833 C1838 1.363 . S
C1834 H1811 0.950 . S
C1834 C1833 1.397 . S
C1834 C1835 1.334 . S
C1835 H1812 0.950 . S
C1835 C1834 1.334 . S
C1835 C1836 1.287 . S
C1836 C1835 1.287 . S
C1836 C1837 1.524 . S
C1836 H1855 0.913 . S
C1837 H1813 0.950 . S
C1837 C1836 1.524 . S
C1837 C1838 1.415 . S
C1838 H1814 0.950 . S
C1838 C1833 1.363 . S
C1838 C1837 1.415 . S
C1839 H1815 0.951 . S
C1839 C1840 1.366 . S
C1839 C1841 1.388 . S
C1840 C1839 1.366 . S
C1840 C1844 1.385 . S
C1841 H1816 0.951 . S
C1841 C1839 1.388 . S
C1841 C1842 1.366 . S
C1842 C1841 1.366 . S
C1842 C1843 1.414 . S
C1842 C1845 1.499 . S
C1843 H1817 0.950 . S
C1843 C1842 1.414 . S
C1843 C1844 1.374 . S
C1844 H1818 0.950 . S
C1844 C1840 1.385 . S
C1844 C1843 1.374 . S
C1845 C1842 1.499 . S
C1845 C1846 1.373 . S
C1845 C1847 1.389 . S
C1846 H1819 0.950 . S
C1846 C1832 1.377 . S
C1846 C1845 1.373 . S
C1847 C1831 1.377 . S
C1847 C1845 1.389 . S
C1847 C1848 1.524 . S
C1848 C1847 1.524 . S
C1848 C1849 1.397 . S
C1848 C1853 1.363 . S
C1849 H1820 0.950 . S
C1849 C1848 1.397 . S
C1849 C1850 1.334 . S
C1850 H1821 0.950 . S
C1850 C1849 1.334 . S
C1850 C1851 1.287 . S
C1851 C1850 1.287 . S
C1851 C1852 1.524 . S
C1851 H1854 0.999 . S
C1852 H1822 0.950 . S
C1852 C1851 1.524 . S
C1852 C1853 1.415 . S
C1853 H1823 0.950 . S
C1853 C1848 1.363 . S
C1853 C1852 1.415 . S
H1854 C1851 0.999 . S
H1855 C1836 0.913 . S
C290 C145 1.505 . S
C275 C7 1.446 . S
C340 C171 1.506 . S
C325 C32 1.452 . S
C390 C185 1.501 . S
C375 C44 1.448 . S
C440 C187 1.500 . S
C425 C62 1.447 . S
C475 C88 1.446 . S
C490 C184 1.505 . S
C540 C186 1.503 . S
C525 C106 1.445 . S
C590 C144 1.505 . S
C575 C124 1.446 . S
C640 C170 1.507 . S
C625 C140 1.452 . S
C690 C172 1.504 . S
C675 C142 1.447 . S
C740 C198 1.503 . S
C725 C86 1.449 . S
C790 C156 1.506 . S
C775 C104 1.452 . S
C840 C158 1.505 . S
C825 C122 1.452 . S
C890 C157 1.505 . S
C875 C34 1.448 . S
C940 C159 1.505 . S
C925 C43 1.447 . S
C990 C173 1.501 . S
C975 C61 1.444 . S
C1040 C199 1.499 . S
C1025 C8 1.447 . S
C1090 C201 1.504 . S
C1075 C133 1.446 . S
C1125 C80 1.451 . S
C1140 C227 1.504 . S
C1175 C98 1.449 . S
C1190 C240 1.501 . S
C1225 C116 1.448 . S
C1240 C243 1.501 . S
C1275 C25 1.446 . S
C1290 C241 1.504 . S
C1325 C52 1.444 . S
C1340 C242 1.503 . S
C1375 C70 1.449 . S
C1390 C200 1.504 . S
C1440 C226 1.507 . S
C1425 C14 1.452 . S
C1490 C229 1.504 . S
C1475 C16 1.447 . S
C1525 C26 1.449 . S
C1540 C254 1.501 . S
C1575 C50 1.451 . S
C1590 C212 1.504 . S
C1625 C68 1.453 . S
C1640 C214 1.506 . S
C1690 C213 1.504 . S
C1675 C79 1.448 . S
C1740 C215 1.505 . S
C1725 C97 1.447 . S
C1775 C115 1.445 . S
C1790 C228 1.503 . S
C1840 C255 1.499 . S
C1825 C134 1.448 . S
