# Generated by pormake.
# Topology pyr, (3,6)-cn, num edge types: 1
# Building blocks:
#     Node 0, Type 0, BuildingBlock: VETTIZ_charged_linker_0, # of connection points: 3
#     Node 1, Type 0, BuildingBlock: VETTIZ_charged_linker_0, # of connection points: 3
#     Node 2, Type 0, BuildingBlock: VETTIZ_charged_linker_0, # of connection points: 3
#     Node 3, Type 0, BuildingBlock: VETTIZ_charged_linker_0, # of connection points: 3
#     Node 4, Type 0, BuildingBlock: VETTIZ_charged_linker_0, # of connection points: 3
#     Node 5, Type 0, BuildingBlock: VETTIZ_charged_linker_0, # of connection points: 3
#     Node 6, Type 0, BuildingBlock: VETTIZ_charged_linker_0, # of connection points: 3
#     Node 7, Type 0, BuildingBlock: VETTIZ_charged_linker_0, # of connection points: 3
#     Node 8, Type 1, BuildingBlock: BETFEN_clean_sbu_0, # of connection points: 6
#     Node 9, Type 1, BuildingBlock: BETFEN_clean_sbu_0, # of connection points: 6
#     Node 10, Type 1, BuildingBlock: BETFEN_clean_sbu_0, # of connection points: 6
#     Node 11, Type 1, BuildingBlock: BETFEN_clean_sbu_0, # of connection points: 6
#     Edge 12, Type (0, 1), None
#     Edge 13, Type (0, 1), None
#     Edge 14, Type (0, 1), None
#     Edge 15, Type (0, 1), None
#     Edge 16, Type (0, 1), None
#     Edge 17, Type (0, 1), None
#     Edge 18, Type (0, 1), None
#     Edge 19, Type (0, 1), None
#     Edge 20, Type (0, 1), None
#     Edge 21, Type (0, 1), None
#     Edge 22, Type (0, 1), None
#     Edge 23, Type (0, 1), None
#     Edge 24, Type (0, 1), None
#     Edge 25, Type (0, 1), None
#     Edge 26, Type (0, 1), None
#     Edge 27, Type (0, 1), None
#     Edge 28, Type (0, 1), None
#     Edge 29, Type (0, 1), None
#     Edge 30, Type (0, 1), None
#     Edge 31, Type (0, 1), None
#     Edge 32, Type (0, 1), None
#     Edge 33, Type (0, 1), None
#     Edge 34, Type (0, 1), None
#     Edge 35, Type (0, 1), None
# Relax obj value: 0.261
# Max RMSD: 0.304
# Mean RMSD: 0.152
data_MOF--net-pyr--node1-BETFEN_clean_sbu_0--node2-VETTIZ_charged_linker_0--edge1-none
_symmetry_space_group_name_H-M    P1
_symmetry_Int_Tables_number       1
_symmetry_cell_setting            triclinic
loop_
_symmetry_equiv_pos_as_xyz
'x, y, z'
_cell_length_a     24.799947
_cell_length_b     27.523884
_cell_length_c     23.481938
_cell_angle_alpha  89.906441
_cell_angle_beta   98.512775
_cell_angle_gamma 111.02484
loop_
_atom_site_label
_atom_site_type_symbol
_atom_site_fract_x
_atom_site_fract_y
_atom_site_fract_z
_atom_type_partial_charge
C0 C 0.43109 0.21994 0.57981 0.0
C1 C 0.39921 0.2273 0.62196 0.0
C2 C 0.40014 0.27837 0.63137 0.0
C3 C 0.42459 0.29722 0.53681 0.0
C4 C 0.44283 0.25576 0.537 0.0
C5 C 0.47812 0.25755 0.4899 0.0
H6 H 0.53128 0.33454 0.22964 0.0
C7 C 0.43693 0.32453 0.48488 0.0
C8 C 0.47358 0.30559 0.45968 0.0
H9 H 0.5866 0.22752 0.33611 0.0
H10 H 0.56351 0.25977 0.41756 0.0
H11 H 0.57511 0.43478 0.32375 0.0
H12 H 0.44946 0.35486 0.22809 0.0
H13 H 0.41144 0.30736 0.27518 0.0
H14 H 0.40327 0.36877 0.27036 0.0
H15 H 0.51937 0.44105 0.26961 0.0
H16 H 0.52126 0.45572 0.34499 0.0
C17 C 0.54096 0.26438 0.51899 0.0
C18 C 0.44747 0.20726 0.45053 0.0
C19 C 0.29183 0.39888 0.38315 0.0
C20 C 0.29349 0.42965 0.33512 0.0
C21 C 0.34565 0.45005 0.31145 0.0
C22 C 0.39403 0.43694 0.33287 0.0
C23 C 0.38912 0.40172 0.37664 0.0
C24 C 0.34062 0.38622 0.40392 0.0
C25 C 0.34865 0.35695 0.45669 0.0
C26 C 0.40946 0.35574 0.45411 0.0
C27 C 0.42942 0.37747 0.40363 0.0
C28 C 0.34508 0.38809 0.50939 0.0
C29 C 0.3016 0.30163 0.45065 0.0
C30 C 0.54082 0.32033 0.2715 0.0
C31 C 0.55824 0.27712 0.27579 0.0
C32 C 0.57275 0.26058 0.33082 0.0
C33 C 0.55805 0.27883 0.37885 0.0
C34 C 0.52911 0.31404 0.37181 0.0
C35 C 0.52455 0.33738 0.32008 0.0
C36 C 0.48849 0.37126 0.32012 0.0
C37 C 0.47081 0.36238 0.37984 0.0
C38 C 0.49341 0.32734 0.40857 0.0
C39 C 0.52776 0.42867 0.31405 0.0
C40 C 0.43528 0.34968 0.27108 0.0
H41 H 0.41133 0.35153 0.59329 0.0
H42 H 0.43993 0.18455 0.57528 0.0
H43 H 0.4009 0.20185 0.4354 0.0
H44 H 0.46792 0.20787 0.41176 0.0
H45 H 0.44849 0.1725 0.47412 0.0
H46 H 0.55004 0.27803 0.56523 0.0
H47 H 0.54888 0.22721 0.51709 0.0
H48 H 0.5743 0.29437 0.49899 0.0
H49 H 0.25286 0.38371 0.40311 0.0
H50 H 0.34867 0.47546 0.27586 0.0
H51 H 0.43289 0.45298 0.31358 0.0
H52 H 0.30682 0.40056 0.50143 0.0
H53 H 0.33797 0.36422 0.54727 0.0
H54 H 0.38481 0.42378 0.5188 0.0
H55 H 0.30342 0.27994 0.4115 0.0
H56 H 0.30813 0.27928 0.48876 0.0
H57 H 0.25713 0.30325 0.44732 0.0
H58 H 0.38418 0.28851 0.66826 0.0
C59 C 0.41162 0.31327 0.58743 0.0
C60 C 0.08531 0.88242 0.64905 0.0
C61 C 0.0677 0.91647 0.68022 0.0
C62 C 0.08421 0.92333 0.74031 0.0
C63 C 0.14308 0.87016 0.73667 0.0
C64 C 0.12277 0.85913 0.67841 0.0
C65 C 0.15058 0.8252 0.6527 0.0
H66 H 0.34589 0.70029 0.70093 0.0
C67 C 0.18763 0.84695 0.7536 0.0
C68 C 0.19082 0.81828 0.70538 0.0
H69 H 0.24715 0.70907 0.53647 0.0
H70 H 0.19917 0.75833 0.58316 0.0
H71 H 0.38878 0.80501 0.72854 0.0
H72 H 0.24542 0.68674 0.7848 0.0
H73 H 0.28558 0.72848 0.84563 0.0
H74 H 0.32156 0.69696 0.80525 0.0
H75 H 0.39811 0.77717 0.79614 0.0
H76 H 0.3815 0.83598 0.79017 0.0
C77 C 0.18544 0.85557 0.60633 0.0
C78 C 0.10202 0.77313 0.6291 0.0
C79 C 0.33998 0.92154 0.93106 0.0
C80 C 0.39011 0.91071 0.95277 0.0
C81 C 0.39459 0.86374 0.9355 0.0
C82 C 0.35326 0.83079 0.89176 0.0
C83 C 0.30762 0.84566 0.86468 0.0
C84 C 0.29909 0.88831 0.88678 0.0
C85 C 0.24534 0.89539 0.85466 0.0
C86 C 0.22819 0.85409 0.80515 0.0
C87 C 0.26565 0.82602 0.81106 0.0
C88 C 0.26326 0.95132 0.83304 0.0
C89 C 0.1987 0.88328 0.89537 0.0
C90 C 0.31263 0.71136 0.67494 0.0
C91 C 0.29906 0.69962 0.61542 0.0
C92 C 0.25777 0.7172 0.58271 0.0
C93 C 0.23024 0.74582 0.60988 0.0
C94 C 0.24573 0.75822 0.66989 0.0
C95 C 0.28685 0.74109 0.70075 0.0
C96 C 0.30514 0.76263 0.76179 0.0
C97 C 0.26659 0.79422 0.76411 0.0
C98 C 0.23071 0.79114 0.71072 0.0
C99 C 0.37162 0.79678 0.7701 0.0
C100 C 0.28908 0.71646 0.80183 0.0
H101 H 0.1336 0.90737 0.81438 0.0
H102 H 0.07404 0.87744 0.60252 0.0
H103 H 0.07295 0.75682 0.6617 0.0
H104 H 0.11957 0.74317 0.61889 0.0
H105 H 0.07467 0.77881 0.58958 0.0
H106 H 0.20968 0.8971 0.62139 0.0
H107 H 0.15576 0.85465 0.56562 0.0
H108 H 0.21892 0.84049 0.59675 0.0
H109 H 0.33479 0.95668 0.94563 0.0
H110 H 0.43095 0.85333 0.95508 0.0
H111 H 0.35978 0.79619 0.87905 0.0
H112 H 0.30066 0.95945 0.80891 0.0
H113 H 0.27667 0.98073 0.86975 0.0
H114 H 0.22778 0.95789 0.80382 0.0
H115 H 0.21153 0.86657 0.93605 0.0
H116 H 0.15626 0.85373 0.87517 0.0
H117 H 0.19135 0.91902 0.90801 0.0
H118 H 0.07174 0.94988 0.76473 0.0
C119 C 0.12096 0.89954 0.76882 0.0
C120 C 0.61606 0.17405 0.93612 0.0
C121 C 0.5567 0.14909 0.93887 0.0
C122 C 0.51798 0.17277 0.91085 0.0
C123 C 0.59997 0.24657 0.88347 0.0
C124 C 0.63649 0.22233 0.91077 0.0
C125 C 0.69957 0.25456 0.91414 0.0
H126 H 0.87647 0.48734 0.98725 0.0
C127 C 0.63805 0.29904 0.86438 0.0
C128 C 0.69632 0.30283 0.8846 0.0
H129 H 0.90966 0.34364 1.00466 0.0
H130 H 0.82902 0.30187 0.92832 0.0
H131 H 0.72457 0.44492 0.95684 0.0
H132 H 0.86462 0.50212 0.87747 0.0
H133 H 0.82423 0.45931 0.81618 0.0
H134 H 0.80302 0.51198 0.8395 0.0
H135 H 0.7864 0.50451 0.95675 0.0
H136 H 0.72458 0.48909 0.90013 0.0
C137 C 0.72778 0.26544 0.97924 0.0
C138 C 0.72722 0.22505 0.87851 0.0
C139 C 0.57537 0.43959 0.74742 0.0
C140 C 0.61114 0.4866 0.72405 0.0
C141 C 0.67172 0.49796 0.73253 0.0
C142 C 0.69678 0.4672 0.76639 0.0
C143 C 0.66198 0.42597 0.7953 0.0
C144 C 0.60205 0.40906 0.78252 0.0
C145 C 0.57497 0.35478 0.80702 0.0
C146 C 0.62944 0.3432 0.83498 0.0
C147 C 0.6789 0.38803 0.83028 0.0
C148 C 0.53784 0.35887 0.85241 0.0
C149 C 0.53853 0.3143 0.75788 0.0
C150 C 0.86484 0.44635 0.97602 0.0
C151 C 0.89649 0.4176 1.0048 0.0
C152 C 0.88375 0.36567 0.98564 0.0
C153 C 0.83669 0.34116 0.94229 0.0
C154 C 0.80083 0.3681 0.91991 0.0
C155 C 0.8177 0.42074 0.93231 0.0
C156 C 0.78049 0.44376 0.89296 0.0
C157 C 0.73439 0.39403 0.86111 0.0
C158 C 0.74406 0.35011 0.88245 0.0
C159 C 0.75239 0.47225 0.92878 0.0
C160 C 0.81981 0.48103 0.85398 0.0
H161 H 0.50839 0.23756 0.8627 0.0
H162 H 0.64735 0.15772 0.95664 0.0
H163 H 0.69623 0.20433 0.83935 0.0
H164 H 0.76623 0.2516 0.86202 0.0
H165 H 0.73925 0.19557 0.90437 0.0
H166 H 0.69931 0.24115 1.00885 0.0
H167 H 0.76844 0.25673 0.98807 0.0
H168 H 0.73692 0.30619 0.99447 0.0
H169 H 0.52815 0.4266 0.73764 0.0
H170 H 0.69933 0.52829 0.70929 0.0
H171 H 0.74165 0.47302 0.76506 0.0
H172 H 0.56454 0.38954 0.88652 0.0
H173 H 0.50019 0.36916 0.83216 0.0
H174 H 0.52058 0.32168 0.87349 0.0
H175 H 0.56568 0.31329 0.72455 0.0
H176 H 0.52144 0.27475 0.77424 0.0
H177 H 0.50077 0.32408 0.73693 0.0
H178 H 0.47151 0.15479 0.91178 0.0
C179 C 0.53922 0.22093 0.88282 0.0
C180 C 0.99593 0.86688 0.42815 0.0
C181 C 0.9699 0.90202 0.4448 0.0
C182 C 0.9106 0.89142 0.42249 0.0
C183 C 0.9005 0.80517 0.38783 0.0
C184 C 0.96029 0.81962 0.39661 0.0
C185 C 0.97754 0.77827 0.36954 0.0
H186 H 0.90462 0.53447 0.24768 0.0
C187 C 0.87398 0.74995 0.36671 0.0
C188 C 0.91732 0.7371 0.3452 0.0
H189 H 0.99767 0.6745 0.16643 0.0
H190 H 0.97127 0.72661 0.23435 0.0
H191 H 0.93743 0.59265 0.39504 0.0
H192 H 0.78679 0.5721 0.26279 0.0
H193 H 0.77188 0.54331 0.32999 0.0
H194 H 0.80717 0.51719 0.28346 0.0
H195 H 0.89288 0.52875 0.36306 0.0
H196 H 0.86773 0.55944 0.4154 0.0
C197 C 1.01099 0.75588 0.41644 0.0
C198 C 1.01517 0.80194 0.32286 0.0
C199 C 0.71223 0.6451 0.47759 0.0
C200 C 0.69663 0.59518 0.49957 0.0
C201 C 0.72293 0.56141 0.4804 0.0
C202 C 0.76285 0.57679 0.44025 0.0
C203 C 0.77852 0.62724 0.41947 0.0
C204 C 0.75417 0.66083 0.43975 0.0
C205 C 0.78124 0.71523 0.42055 0.0
C206 C 0.82754 0.70959 0.38737 0.0
C207 C 0.8239 0.65701 0.3834 0.0
C208 C 0.80644 0.75256 0.47494 0.0
C209 C 0.734 0.7287 0.38058 0.0
C210 C 0.92106 0.57643 0.24543 0.0
C211 C 0.95559 0.60007 0.20195 0.0
C212 C 0.97307 0.65492 0.19962 0.0
C213 C 0.95992 0.68547 0.24004 0.0
C214 C 0.92949 0.66178 0.28465 0.0
C215 C 0.90657 0.608 0.28485 0.0
C216 C 0.86428 0.59137 0.3292 0.0
C217 C 0.86188 0.64379 0.34984 0.0
C218 C 0.90522 0.68429 0.32761 0.0
C219 C 0.89177 0.56649 0.37848 0.0
C220 C 0.80404 0.5538 0.29982 0.0
H221 H 0.83023 0.83548 0.37829 0.0
H222 H 0.04244 0.87565 0.4401 0.0
H223 H 0.05189 0.83836 0.3401 0.0
H224 H 0.98863 0.81147 0.28518 0.0
H225 H 1.03516 0.77484 0.30863 0.0
H226 H 0.98441 0.74012 0.45109 0.0
H227 H 0.05287 0.78648 0.43625 0.0
H228 H 1.02116 0.72374 0.39765 0.0
H229 H 0.69271 0.67195 0.49045 0.0
H230 H 0.71226 0.52272 0.49617 0.0
H231 H 0.78079 0.54924 0.42712 0.0
H232 H 0.84222 0.7438 0.50203 0.0
H233 H 0.77155 0.7492 0.5006 0.0
H234 H 0.82206 0.79382 0.46589 0.0
H235 H 0.71149 0.69768 0.34567 0.0
H236 H 0.75292 0.76555 0.35957 0.0
H237 H 0.70052 0.7325 0.40511 0.0
H238 H 0.89076 0.91961 0.42927 0.0
C239 C 0.8758 0.84314 0.39341 0.0
C240 C 0.7578 0.64117 0.84686 0.0
C241 C 0.80032 0.63054 0.8207 0.0
C242 C 0.79129 0.62235 0.76014 0.0
C243 C 0.71018 0.65078 0.75316 0.0
C244 C 0.71175 0.64952 0.81161 0.0
C245 C 0.65929 0.65715 0.82928 0.0
H246 H 0.5128 0.8045 0.79681 0.0
C247 C 0.6627 0.66651 0.7282 0.0
C248 C 0.62834 0.66555 0.77047 0.0
H249 H 0.52499 0.70386 0.93575 0.0
H250 H 0.54381 0.64593 0.86838 0.0
H251 H 0.46882 0.76899 0.69916 0.0
H252 H 0.63535 0.81418 0.74571 0.0
H253 H 0.60231 0.819 0.67344 0.0
H254 H 0.57567 0.83749 0.73248 0.0
H255 H 0.49393 0.75705 0.6373 0.0
H256 H 0.4601 0.70356 0.68131 0.0
C257 C 0.62261 0.60709 0.8567 0.0
C258 C 0.68201 0.70636 0.87084 0.0
C259 C 0.70665 0.79264 0.57056 0.0
C260 C 0.67205 0.81633 0.53687 0.0
C261 C 0.61152 0.7983 0.53782 0.0
C262 C 0.58749 0.76153 0.57707 0.0
C263 C 0.62456 0.74496 0.61635 0.0
C264 C 0.68181 0.75666 0.60966 0.0
C265 C 0.71249 0.7314 0.65306 0.0
C266 C 0.66033 0.69587 0.6795 0.0
C267 C 0.6131 0.71251 0.66561 0.0
C268 C 0.74582 0.70407 0.62308 0.0
C269 C 0.75523 0.77346 0.69844 0.0
C270 C 0.51871 0.76969 0.81324 0.0
C271 C 0.52044 0.75995 0.87195 0.0
C272 C 0.52535 0.7129 0.89087 0.0
C273 C 0.53847 0.68088 0.85308 0.0
C274 C 0.55095 0.69911 0.79898 0.0
C275 C 0.53707 0.74041 0.77822 0.0
C276 C 0.54954 0.75221 0.7183 0.0
C277 C 0.57722 0.71197 0.70774 0.0
C278 C 0.58233 0.6849 0.75824 0.0
C279 C 0.49018 0.7445 0.68122 0.0
C280 C 0.59323 0.80878 0.71747 0.0
H281 H 0.73589 0.62113 0.68072 0.0
H282 H 0.76082 0.64425 0.89321 0.0
H283 H 0.70659 0.74132 0.84876 0.0
H284 H 0.64682 0.71438 0.88782 0.0
H285 H 0.71169 0.70187 0.9091 0.0
H286 H 0.57829 0.58849 0.83101 0.0
H287 H 0.64265 0.57674 0.85914 0.0
H288 H 0.61788 0.61559 0.90154 0.0
H289 H 0.75358 0.80649 0.57175 0.0
H290 H 0.58407 0.81559 0.51171 0.0
H291 H 0.54166 0.74779 0.57697 0.0
H292 H 0.76788 0.72782 0.58962 0.0
H293 H 0.78245 0.69981 0.65316 0.0
H294 H 0.71597 0.66592 0.60277 0.0
H295 H 0.73197 0.79481 0.71902 0.0
H296 H 0.77636 0.75553 0.73295 0.0
H297 H 0.79033 0.80223 0.67827 0.0
H298 H 0.81943 0.60853 0.73897 0.0
C299 C 0.74519 0.63145 0.7263 0.0
C300 C 0.97089 0.17566 0.48027 0.0
C301 C 0.98906 0.13867 0.45534 0.0
C302 C 0.98244 0.13248 0.39511 0.0
C303 C 0.9304 0.19208 0.38517 0.0
C304 C 0.94219 0.20269 0.44404 0.0
C305 C 0.91618 0.24142 0.46157 0.0
H306 H 0.72886 0.36735 0.37747 0.0
C307 C 0.89213 0.2192 0.35964 0.0
C308 C 0.88564 0.25064 0.40345 0.0
H309 H 0.81424 0.36512 0.55142 0.0
H310 H 0.87064 0.3192 0.51513 0.0
H311 H 0.69291 0.26842 0.35537 0.0
H312 H 0.84242 0.38328 0.30574 0.0
H313 H 0.80699 0.33924 0.24541 0.0
H314 H 0.76721 0.37223 0.27821 0.0
H315 H 0.68979 0.29115 0.28422 0.0
H316 H 0.70678 0.23334 0.30191 0.0
C317 C 0.87229 0.21518 0.5028 0.0
C318 C 0.96654 0.29129 0.48838 0.0
C319 C 0.75079 0.13929 0.17724 0.0
C320 C 0.7019 0.14994 0.15102 0.0
C321 C 0.69787 0.19843 0.16254 0.0
C322 C 0.73968 0.23433 0.20359 0.0
C323 C 0.78354 0.22001 0.23585 0.0
C324 C 0.79085 0.17467 0.22036 0.0
C325 C 0.84075 0.16668 0.25917 0.0
C326 C 0.85699 0.21154 0.30452 0.0
C327 C 0.82254 0.24183 0.29084 0.0
C328 C 0.81713 0.11264 0.28505 0.0
C329 C 0.89056 0.17256 0.22361 0.0
C330 C 0.76144 0.35981 0.4084 0.0
C331 C 0.76603 0.37027 0.46772 0.0
C332 C 0.80797 0.35663 0.50542 0.0
C333 C 0.84086 0.32986 0.48429 0.0
C334 C 0.83129 0.31585 0.42493 0.0
C335 C 0.79299 0.33223 0.38839 0.0
C336 C 0.78036 0.30854 0.32853 0.0
C337 C 0.81933 0.27684 0.3334 0.0
C338 C 0.84964 0.28092 0.38992 0.0
C339 C 0.71427 0.27382 0.31622 0.0
C340 C 0.79982 0.35298 0.28688 0.0
H341 H 0.94923 0.15333 0.31418 0.0
H342 H 0.97569 0.18095 0.5267 0.0
H343 H 1.0022 0.30285 0.46169 0.0
H344 H 0.9526 0.32496 0.49064 0.0
H345 H 0.98536 0.28489 0.53244 0.0
H346 H 0.84471 0.17459 0.4865 0.0
H347 H 0.89556 0.21349 0.54655 0.0
H348 H 0.84152 0.23511 0.50669 0.0
H349 H 0.75503 0.1025 0.16756 0.0
H350 H 0.66131 0.2078 0.14107 0.0
H351 H 0.73429 0.27056 0.21104 0.0
H352 H 0.77879 0.10914 0.3063 0.0
H353 H 0.80327 0.08074 0.25099 0.0
H354 H 0.84968 0.10523 0.31755 0.0
H355 H 0.88126 0.18493 0.17925 0.0
H356 H 0.93248 0.20288 0.24373 0.0
H357 H 0.89752 0.13518 0.21876 0.0
H358 H 0.9964 0.10434 0.37542 0.0
C359 C 0.95426 0.15999 0.35983 0.0
C360 C 0.52984 0.63774 0.39431 0.0
C361 C 0.49641 0.58915 0.41626 0.0
C362 C 0.43602 0.56839 0.3969 0.0
C363 C 0.4419 0.64146 0.33607 0.0
C364 C 0.50129 0.66399 0.35466 0.0
C365 C 0.52642 0.71661 0.32633 0.0
H366 H 0.44622 0.89707 0.15161 0.0
C367 C 0.423 0.67657 0.29693 0.0
C368 C 0.47138 0.72254 0.29124 0.0
H369 H 0.62477 0.91081 0.2064 0.0
H370 H 0.59094 0.83054 0.2605 0.0
H371 H 0.3981 0.85762 0.27015 0.0
H372 H 0.40696 0.79874 0.10718 0.0
H373 H 0.34935 0.74622 0.12595 0.0
H374 H 0.34262 0.80924 0.11924 0.0
H375 H 0.35208 0.8585 0.20393 0.0
H376 H 0.33069 0.80605 0.25223 0.0
C377 C 0.55693 0.76106 0.37293 0.0
C378 C 0.56867 0.71236 0.28654 0.0
C379 C 0.21676 0.60895 0.18511 0.0
C380 C 0.1846 0.63438 0.15137 0.0
C381 C 0.20623 0.68906 0.15139 0.0
C382 C 0.26136 0.71805 0.18105 0.0
C383 C 0.2955 0.6921 0.21052 0.0
C384 C 0.27192 0.63902 0.2153 0.0
C385 C 0.31137 0.6203 0.25681 0.0
C386 C 0.36624 0.66974 0.26809 0.0
C387 C 0.35648 0.71093 0.23966 0.0
C388 C 0.28157 0.60409 0.31131 0.0
C389 C 0.32232 0.57589 0.22582 0.0
C390 C 0.47883 0.88393 0.17555 0.0
C391 C 0.538 0.91107 0.17402 0.0
C392 C 0.57832 0.89105 0.20622 0.0
C393 C 0.55889 0.84433 0.23727 0.0
C394 C 0.49837 0.81646 0.23575 0.0
C395 C 0.46047 0.83746 0.20458 0.0
C396 C 0.39825 0.80326 0.20064 0.0
C397 C 0.40339 0.75743 0.23352 0.0
C398 C 0.46175 0.76408 0.25687 0.0
C399 C 0.3677 0.83271 0.23289 0.0
C400 C 0.37253 0.78863 0.13531 0.0
H401 H 0.36361 0.5738 0.34321 0.0
H402 H 0.57661 0.65504 0.40843 0.0
H403 H 0.54632 0.67898 0.25431 0.0
H404 H 0.58498 0.74805 0.26272 0.0
H405 H 0.60692 0.70611 0.31196 0.0
H406 H 0.52614 0.76253 0.40223 0.0
H407 H 0.59507 0.75529 0.39923 0.0
H408 H 0.57273 0.79923 0.35316 0.0
H409 H 0.1993 0.56704 0.18816 0.0
H410 H 0.1812 0.70956 0.12708 0.0
H411 H 0.27554 0.7594 0.17848 0.0
H412 H 0.24344 0.61637 0.31156 0.0
H413 H 0.26497 0.56111 0.31445 0.0
H414 H 0.31175 0.62282 0.35151 0.0
H415 H 0.33377 0.58728 0.18243 0.0
H416 H 0.35899 0.56636 0.24899 0.0
H417 H 0.28263 0.53987 0.21997 0.0
H418 H 0.4092 0.53165 0.41188 0.0
C419 C 0.40923 0.59361 0.35698 0.0
C420 C 0.05819 0.18229 0.7198 0.0
C421 C 0.08236 0.14832 0.69634 0.0
C422 C 0.14261 0.15858 0.71246 0.0
C423 C 0.15543 0.24145 0.75848 0.0
C424 C 0.096 0.2279 0.75345 0.0
C425 C 0.08195 0.26843 0.7868 0.0
H426 H 0.17287 0.50952 0.92639 0.0
C427 C 0.18412 0.29512 0.78332 0.0
C428 C 0.14376 0.30849 0.80948 0.0
H429 H 0.06154 0.36786 0.99154 0.0
H430 H 0.08649 0.31654 0.92168 0.0
H431 H 0.15068 0.46765 0.77538 0.0
H432 H 0.27929 0.4575 0.91805 0.0
H433 H 0.30853 0.48904 0.85715 0.0
H434 H 0.27417 0.51951 0.90016 0.0
H435 H 0.19908 0.52523 0.81809 0.0
H436 H 0.22506 0.49619 0.76488 0.0
C437 C 0.04672 0.29356 0.74532 0.0
C438 C 0.04746 0.24209 0.83478 0.0
C439 C 0.34947 0.39972 0.67789 0.0
C440 C 0.378 0.4528 0.67022 0.0
C441 C 0.36501 0.48852 0.70463 0.0
C442 C 0.32252 0.47185 0.74209 0.0
C443 C 0.29273 0.41834 0.74724 0.0
C444 C 0.30734 0.38354 0.71553 0.0
C445 C 0.27161 0.32805 0.7241 0.0
C446 C 0.23237 0.3349 0.76543 0.0
C447 C 0.24424 0.38794 0.77995 0.0
C448 C 0.23688 0.30296 0.66426 0.0
C449 C 0.31265 0.30036 0.75246 0.0
C450 C 0.15168 0.46752 0.92422 0.0
C451 C 0.11269 0.44332 0.96396 0.0
C452 C 0.08954 0.38812 0.96106 0.0
C453 C 0.10167 0.35816 0.91903 0.0
C454 C 0.13649 0.38278 0.87762 0.0
C455 C 0.16467 0.4364 0.88298 0.0
C456 C 0.21223 0.4532 0.84413 0.0
C457 C 0.20876 0.40084 0.81711 0.0
C458 C 0.1606 0.3605 0.83384 0.0
C459 C 0.19619 0.48765 0.79803 0.0
C460 C 0.272 0.48156 0.88175 0.0
H461 H 0.22489 0.21159 0.7559 0.0
H462 H 1.01151 0.17379 0.71166 0.0
H463 H 1.01223 0.20458 0.81812 0.0
H464 H 0.07664 0.23387 0.87107 0.0
H465 H 1.02521 0.26657 0.85076 0.0
H466 H 0.07073 0.31075 0.70937 0.0
H467 H 1.0035 0.26416 0.72666 0.0
H468 H 0.03915 0.32514 0.76848 0.0
H469 H 0.35913 0.37093 0.65466 0.0
H470 H 0.38899 0.52975 0.70421 0.0
H471 H 0.31462 0.5011 0.76615 0.0
H472 H 0.26636 0.30774 0.6317 0.0
H473 H 0.2132 0.26073 0.66428 0.0
H474 H 0.20466 0.32138 0.64839 0.0
H475 H 0.35978 0.32528 0.7566 0.0
H476 H 0.30445 0.28922 0.79678 0.0
H477 H 0.30703 0.26457 0.72723 0.0
H478 H 0.16196 0.13207 0.69823 0.0
C479 C 0.1791 0.20469 0.7444 0.0
Pr480 Pr 0.97208 1.01537 0.5814 0.0
Pr481 Pr 0.07663 0.03693 0.55788 0.0
C482 C 0.86005 0.98205 0.59824 0.0
C483 C 0.80507 0.95054 0.56298 0.0
C484 C 0.7522 0.94961 0.5777 0.0
C485 C 0.70048 0.90939 0.55471 0.0
C486 C 0.70282 0.86906 0.51958 0.0
C487 C 0.75323 0.87719 0.49471 0.0
C488 C 0.80498 0.9172 0.51794 0.0
C489 C 0.04654 0.10378 0.65384 0.0
C490 C 0.04831 0.9555 0.65 0.0
C491 C 0.18903 0.07083 0.54438 0.0
C492 C 0.24119 0.10601 0.58107 0.0
C493 C 0.24124 0.15288 0.60391 0.0
C494 C 0.29345 0.19066 0.62896 0.0
C495 C 0.34659 0.18224 0.63143 0.0
C496 C 0.34378 0.13099 0.62022 0.0
C497 C 0.29144 0.09341 0.59332 0.0
C498 C 1.00335 0.94745 0.48703 0.0
C499 C 1.00333 0.09961 0.49064 0.0
O500 O 0.88642 0.02734 0.57901 0.0
O501 O 0.89545 0.95775 0.61644 0.0
O502 O 0.05867 0.06386 0.64439 0.0
O503 O 0.99684 0.09958 0.62451 0.0
O504 O 0.0876 1.00129 0.64581 0.0
O505 O 0.9964 0.94449 0.61911 0.0
O506 O 0.16355 1.02637 0.56585 0.0
O507 O 0.15237 0.0916 0.51933 0.0
O508 O 0.99006 0.98711 0.49515 0.0
O509 O 0.05304 0.95267 0.51709 0.0
O510 O 0.96191 0.05509 0.4956 0.0
O511 O 0.05542 0.10867 0.52009 0.0
H512 H 0.75161 0.97644 0.61111 0.0
H513 H 0.66154 0.90472 0.57329 0.0
H514 H 0.75547 0.84705 0.46653 0.0
H515 H 0.84573 0.91847 0.50574 0.0
H516 H 0.20198 0.16228 0.59795 0.0
H517 H 0.29216 0.2286 0.63757 0.0
H518 H 0.38309 0.1218 0.62506 0.0
H519 H 0.29111 0.05592 0.57891 0.0
Pr520 Pr 0.50901 0.04584 0.07479 0.0
Pr521 Pr 0.58306 1.01108 1.03435 0.0
C522 C 0.45749 0.08763 0.14196 0.0
C523 C 0.48433 0.13873 0.17236 0.0
C524 C 0.45552 0.17423 0.16805 0.0
C525 C 0.48299 0.22356 0.19601 0.0
C526 C 0.54011 0.23803 0.22725 0.0
C527 C 0.57061 0.20428 0.22524 0.0
C528 C 0.54223 0.15445 0.20063 0.0
C529 C 0.53848 0.10193 0.97542 0.0
C530 C 0.65246 0.10907 0.11657 0.0
C531 C 0.63167 0.96509 0.96928 0.0
C532 C 0.60234 0.91118 0.94598 0.0
C533 C 0.62504 0.87294 0.96445 0.0
C534 C 0.59363 0.82073 0.94692 0.0
C535 C 0.53891 0.80628 0.91124 0.0
C536 C 0.51436 0.84411 0.89734 0.0
C537 C 0.54643 0.8961 0.91275 0.0
C538 C 0.55477 0.95681 0.13516 0.0
C539 C 0.43987 0.94977 0.98922 0.0
O540 O 0.48005 0.05304 0.15996 0.0
O541 O 0.44868 0.08899 0.086 0.0
O542 O 0.57435 0.09163 1.01391 0.0
O543 O 0.48532 0.0787 0.98504 0.0
O544 O 0.66057 0.08368 0.07403 0.0
O545 O 0.59966 0.09744 0.12951 0.0
O546 O 0.60799 0.9982 0.94854 0.0
O547 O 0.64582 0.96997 1.02528 0.0
O548 O 0.51844 0.9656 0.09576 0.0
O549 O 0.60773 0.98066 0.1254 0.0
O550 O 0.43135 0.97524 1.03137 0.0
O551 O 0.49308 0.96046 0.9777 0.0
H552 H 0.41127 0.16315 0.14505 0.0
H553 H 0.45765 0.24834 0.19706 0.0
H554 H 0.61419 0.21387 0.24844 0.0
H555 H 0.56534 0.12781 0.20612 0.0
H556 H 0.66741 0.88358 0.99144 0.0
H557 H 0.61436 0.79254 0.95728 0.0
H558 H 0.47278 0.8341 0.86926 0.0
H559 H 0.52727 0.92436 0.89771 0.0
Pr560 Pr 0.53255 0.56543 0.59084 0.0
Pr561 Pr 0.53415 0.48251 0.56045 0.0
C562 C 0.49189 0.64349 0.59644 0.0
C563 C 0.43236 0.64649 0.58384 0.0
C564 C 0.38761 0.61572 0.613 0.0
C565 C 0.33848 0.6285 0.61583 0.0
C566 C 0.33329 0.673 0.59006 0.0
C567 C 0.37324 0.69913 0.55344 0.0
C568 C 0.42197 0.68521 0.54947 0.0
C569 C 0.58583 0.51908 0.68395 0.0
C570 C 0.42293 0.47189 0.6296 0.0
C571 C 0.56207 0.40292 0.52625 0.0
C572 C 0.61872 0.40099 0.5149 0.0
C573 C 0.64075 0.41995 0.46434 0.0
C574 C 0.69207 0.41494 0.4522 0.0
C575 C 0.72122 0.38806 0.48857 0.0
C576 C 0.70101 0.37206 0.54104 0.0
C577 C 0.65117 0.37951 0.55454 0.0
C578 C 0.52365 0.55965 0.45836 0.0
C579 C 0.64947 0.57691 0.53757 0.0
O580 O 0.51545 0.636 0.55294 0.0
O581 O 0.50339 0.61863 0.64137 0.0
O582 O 0.53701 0.49991 0.65402 0.0
O583 O 0.61291 0.56447 0.66409 0.0
O584 O 0.45223 0.44413 0.61214 0.0
O585 O 0.44069 0.52086 0.61763 0.0
O586 O 0.55788 0.41105 0.57962 0.0
O587 O 0.53616 0.42717 0.49075 0.0
O588 O 0.49607 0.52966 0.49537 0.0
O589 O 0.4935 0.52928 0.49495 0.0
O590 O 0.6169 0.60399 0.54602 0.0
O591 O 0.63369 0.52991 0.55651 0.0
H592 H 0.39293 0.58476 0.6381 0.0
H593 H 0.30796 0.60715 0.64377 0.0
H594 H 0.37013 0.73337 0.5326 0.0
H595 H 0.45383 0.70784 0.52361 0.0
H596 H 0.61817 0.43839 0.43368 0.0
H597 H 0.7075 0.4308 0.41294 0.0
H598 H 0.72146 0.35119 0.57051 0.0
H599 H 0.63591 0.3654 0.59452 0.0
Pr600 Pr 1.02762 0.55706 1.0397 0.0
Pr601 Pr 0.04598 0.48899 0.12956 0.0
C602 C 1.0007 0.59955 0.94199 0.0
C603 C 0.95253 0.61397 0.91545 0.0
C604 C 0.95531 0.63648 0.86225 0.0
C605 C 0.90631 0.64383 0.8326 0.0
C606 C 0.85362 0.62768 0.85543 0.0
C607 C 0.85239 0.60791 0.91065 0.0
C608 C 0.90178 0.60125 0.94061 0.0
C609 C 0.12825 0.60539 0.11652 0.0
C610 C 0.97577 0.57002 0.15988 0.0
C611 C 0.08175 0.45448 0.22986 0.0
C612 C 0.13491 0.44681 0.25638 0.0
C613 C 0.15032 0.45203 0.31644 0.0
C614 C 0.20263 0.44766 0.34223 0.0
C615 C 0.24009 0.43797 0.3081 0.0
C616 C 0.22461 0.43331 0.24777 0.0
C617 C 0.17253 0.43807 0.22205 0.0
C618 C 0.94454 0.44112 1.05261 0.0
C619 C 0.09388 0.47357 1.00721 0.0
O620 O 0.98807 0.54946 0.9462 0.0
O621 O 1.0323 0.62741 0.98826 0.0
O622 O 0.11318 0.55921 0.09587 0.0
O623 O 0.09291 0.62819 0.09548 0.0
O624 O 1.00077 0.53674 0.17955 0.0
O625 O 0.97482 0.58151 0.10479 0.0
O626 O 0.08764 0.5031 0.223 0.0
O627 O 0.05064 0.4232 0.18545 0.0
O628 O 0.96073 0.48735 0.07325 0.0
O629 O 0.97748 0.41675 0.07622 0.0
O630 O 0.06946 0.5074 0.98829 0.0
O631 O 0.09544 0.46204 1.06235 0.0
H632 H 0.99476 0.64697 0.84292 0.0
H633 H 0.90949 0.66124 0.79125 0.0
H634 H 0.81276 0.59521 0.92963 0.0
H635 H 0.89959 0.584 0.98212 0.0
H636 H 0.12211 0.45989 0.34332 0.0
H637 H 0.21389 0.45211 0.38877 0.0
H638 H 0.25231 0.42524 0.22045 0.0
H639 H 0.16168 0.43498 0.17544 0.0
loop_
_geom_bond_atom_site_label_1
_geom_bond_atom_site_label_2
_geom_bond_distance
_geom_bond_site_symmetry_2
_ccdc_geom_bond_type
C0 C1 1.391 . S
C0 C4 1.391 . S
C0 H42 0.948 . S
C1 C0 1.391 . S
C1 C2 1.391 . S
C2 C1 1.391 . S
C2 H58 0.947 . S
C2 C59 1.392 . S
C3 C4 1.391 . S
C3 C7 1.397 . S
C3 C59 1.419 . S
C4 C0 1.391 . S
C4 C3 1.391 . S
C4 C5 1.399 . S
C5 C4 1.399 . S
C5 C8 1.396 . S
C5 C17 1.453 . S
C5 C18 1.684 . S
H6 C30 0.948 . S
C7 C3 1.397 . S
C7 C8 1.394 . S
C7 C26 1.723 . S
C8 C5 1.396 . S
C8 C7 1.394 . S
C8 C38 1.723 . S
H9 C32 0.947 . S
H10 C33 0.948 . S
H11 C39 0.982 . S
H12 C40 0.979 . S
H13 C40 0.980 . S
H14 C40 0.983 . S
H15 C39 0.979 . S
H16 C39 0.977 . S
C17 C5 1.453 . S
C17 H46 0.982 . S
C17 H47 0.979 . S
C17 H48 0.977 . S
C18 C5 1.684 . S
C18 H43 0.979 . S
C18 H44 0.980 . S
C18 H45 0.983 . S
C19 C20 1.391 . S
C19 C24 1.391 . S
C19 H49 0.948 . S
C20 C19 1.391 . S
C20 C21 1.391 . S
C21 C20 1.391 . S
C21 C22 1.392 . S
C21 H50 0.947 . S
C22 C21 1.392 . S
C22 C23 1.419 . S
C22 H51 0.948 . S
C23 C22 1.419 . S
C23 C24 1.391 . S
C23 C27 1.397 . S
C24 C19 1.391 . S
C24 C23 1.391 . S
C24 C25 1.399 . S
C25 C24 1.399 . S
C25 C26 1.396 . S
C25 C28 1.453 . S
C25 C29 1.684 . S
C26 C7 1.723 . S
C26 C25 1.396 . S
C26 C27 1.394 . S
C27 C23 1.397 . S
C27 C26 1.394 . S
C27 C37 1.723 . S
C28 C25 1.453 . S
C28 H52 0.982 . S
C28 H53 0.979 . S
C28 H54 0.977 . S
C29 C25 1.684 . S
C29 H55 0.979 . S
C29 H56 0.980 . S
C29 H57 0.983 . S
C30 H6 0.948 . S
C30 C31 1.391 . S
C30 C35 1.391 . S
C31 C30 1.391 . S
C31 C32 1.391 . S
C32 H9 0.947 . S
C32 C31 1.391 . S
C32 C33 1.392 . S
C33 H10 0.948 . S
C33 C32 1.392 . S
C33 C34 1.419 . S
C34 C33 1.419 . S
C34 C35 1.391 . S
C34 C38 1.397 . S
C35 C30 1.391 . S
C35 C34 1.391 . S
C35 C36 1.399 . S
C36 C35 1.399 . S
C36 C37 1.396 . S
C36 C39 1.453 . S
C36 C40 1.684 . S
C37 C27 1.723 . S
C37 C36 1.396 . S
C37 C38 1.394 . S
C38 C8 1.723 . S
C38 C34 1.397 . S
C38 C37 1.394 . S
C39 H11 0.982 . S
C39 H15 0.979 . S
C39 H16 0.977 . S
C39 C36 1.453 . S
C40 H12 0.979 . S
C40 H13 0.980 . S
C40 H14 0.983 . S
C40 C36 1.684 . S
H41 C59 0.948 . S
H42 C0 0.948 . S
H43 C18 0.979 . S
H44 C18 0.980 . S
H45 C18 0.983 . S
H46 C17 0.982 . S
H47 C17 0.979 . S
H48 C17 0.977 . S
H49 C19 0.948 . S
H50 C21 0.947 . S
H51 C22 0.948 . S
H52 C28 0.982 . S
H53 C28 0.979 . S
H54 C28 0.977 . S
H55 C29 0.979 . S
H56 C29 0.980 . S
H57 C29 0.983 . S
H58 C2 0.947 . S
C59 C2 1.392 . S
C59 C3 1.419 . S
C59 H41 0.948 . S
C60 C61 1.391 . S
C60 C64 1.391 . S
C60 H102 0.948 . S
C61 C60 1.391 . S
C61 C62 1.391 . S
C62 C61 1.391 . S
C62 H118 0.947 . S
C62 C119 1.392 . S
C63 C64 1.391 . S
C63 C67 1.397 . S
C63 C119 1.419 . S
C64 C60 1.391 . S
C64 C63 1.391 . S
C64 C65 1.399 . S
C65 C64 1.399 . S
C65 C68 1.396 . S
C65 C77 1.453 . S
C65 C78 1.684 . S
H66 C90 0.948 . S
C67 C63 1.397 . S
C67 C68 1.394 . S
C67 C86 1.723 . S
C68 C65 1.396 . S
C68 C67 1.394 . S
C68 C98 1.723 . S
H69 C92 0.947 . S
H70 C93 0.948 . S
H71 C99 0.982 . S
H72 C100 0.979 . S
H73 C100 0.980 . S
H74 C100 0.983 . S
H75 C99 0.979 . S
H76 C99 0.977 . S
C77 C65 1.453 . S
C77 H106 0.982 . S
C77 H107 0.979 . S
C77 H108 0.977 . S
C78 C65 1.684 . S
C78 H103 0.979 . S
C78 H104 0.980 . S
C78 H105 0.983 . S
C79 C80 1.391 . S
C79 C84 1.391 . S
C79 H109 0.948 . S
C80 C79 1.391 . S
C80 C81 1.391 . S
C81 C80 1.391 . S
C81 C82 1.392 . S
C81 H110 0.947 . S
C82 C81 1.392 . S
C82 C83 1.419 . S
C82 H111 0.948 . S
C83 C82 1.419 . S
C83 C84 1.391 . S
C83 C87 1.397 . S
C84 C79 1.391 . S
C84 C83 1.391 . S
C84 C85 1.399 . S
C85 C84 1.399 . S
C85 C86 1.396 . S
C85 C88 1.453 . S
C85 C89 1.684 . S
C86 C67 1.723 . S
C86 C85 1.396 . S
C86 C87 1.394 . S
C87 C83 1.397 . S
C87 C86 1.394 . S
C87 C97 1.723 . S
C88 C85 1.453 . S
C88 H112 0.982 . S
C88 H113 0.979 . S
C88 H114 0.977 . S
C89 C85 1.684 . S
C89 H115 0.979 . S
C89 H116 0.980 . S
C89 H117 0.983 . S
C90 H66 0.948 . S
C90 C91 1.391 . S
C90 C95 1.391 . S
C91 C90 1.391 . S
C91 C92 1.391 . S
C92 H69 0.947 . S
C92 C91 1.391 . S
C92 C93 1.392 . S
C93 H70 0.948 . S
C93 C92 1.392 . S
C93 C94 1.419 . S
C94 C93 1.419 . S
C94 C95 1.391 . S
C94 C98 1.397 . S
C95 C90 1.391 . S
C95 C94 1.391 . S
C95 C96 1.399 . S
C96 C95 1.399 . S
C96 C97 1.396 . S
C96 C99 1.453 . S
C96 C100 1.684 . S
C97 C87 1.723 . S
C97 C96 1.396 . S
C97 C98 1.394 . S
C98 C68 1.723 . S
C98 C94 1.397 . S
C98 C97 1.394 . S
C99 H71 0.982 . S
C99 H75 0.979 . S
C99 H76 0.977 . S
C99 C96 1.453 . S
C100 H72 0.979 . S
C100 H73 0.980 . S
C100 H74 0.983 . S
C100 C96 1.684 . S
H101 C119 0.948 . S
H102 C60 0.948 . S
H103 C78 0.979 . S
H104 C78 0.980 . S
H105 C78 0.983 . S
H106 C77 0.982 . S
H107 C77 0.979 . S
H108 C77 0.977 . S
H109 C79 0.948 . S
H110 C81 0.947 . S
H111 C82 0.948 . S
H112 C88 0.982 . S
H113 C88 0.979 . S
H114 C88 0.977 . S
H115 C89 0.979 . S
H116 C89 0.980 . S
H117 C89 0.983 . S
H118 C62 0.947 . S
C119 C62 1.392 . S
C119 C63 1.419 . S
C119 H101 0.948 . S
C120 C121 1.391 . S
C120 C124 1.391 . S
C120 H162 0.948 . S
C121 C120 1.391 . S
C121 C122 1.391 . S
C122 C121 1.391 . S
C122 H178 0.947 . S
C122 C179 1.392 . S
C123 C124 1.391 . S
C123 C127 1.397 . S
C123 C179 1.419 . S
C124 C120 1.391 . S
C124 C123 1.391 . S
C124 C125 1.399 . S
C125 C124 1.399 . S
C125 C128 1.396 . S
C125 C137 1.453 . S
C125 C138 1.684 . S
H126 C150 0.948 . S
C127 C123 1.397 . S
C127 C128 1.394 . S
C127 C146 1.723 . S
C128 C125 1.396 . S
C128 C127 1.394 . S
C128 C158 1.723 . S
H129 C152 0.947 . S
H130 C153 0.948 . S
H131 C159 0.982 . S
H132 C160 0.979 . S
H133 C160 0.980 . S
H134 C160 0.983 . S
H135 C159 0.979 . S
H136 C159 0.977 . S
C137 C125 1.453 . S
C137 H166 0.982 . S
C137 H167 0.979 . S
C137 H168 0.977 . S
C138 C125 1.684 . S
C138 H163 0.979 . S
C138 H164 0.980 . S
C138 H165 0.983 . S
C139 C140 1.391 . S
C139 C144 1.391 . S
C139 H169 0.948 . S
C140 C139 1.391 . S
C140 C141 1.391 . S
C141 C140 1.391 . S
C141 C142 1.392 . S
C141 H170 0.947 . S
C142 C141 1.392 . S
C142 C143 1.419 . S
C142 H171 0.948 . S
C143 C142 1.419 . S
C143 C144 1.391 . S
C143 C147 1.397 . S
C144 C139 1.391 . S
C144 C143 1.391 . S
C144 C145 1.399 . S
C145 C144 1.399 . S
C145 C146 1.396 . S
C145 C148 1.453 . S
C145 C149 1.684 . S
C146 C127 1.723 . S
C146 C145 1.396 . S
C146 C147 1.394 . S
C147 C143 1.397 . S
C147 C146 1.394 . S
C147 C157 1.723 . S
C148 C145 1.453 . S
C148 H172 0.982 . S
C148 H173 0.979 . S
C148 H174 0.977 . S
C149 C145 1.684 . S
C149 H175 0.979 . S
C149 H176 0.980 . S
C149 H177 0.983 . S
C150 H126 0.948 . S
C150 C151 1.391 . S
C150 C155 1.391 . S
C151 C150 1.391 . S
C151 C152 1.391 . S
C152 H129 0.947 . S
C152 C151 1.391 . S
C152 C153 1.392 . S
C153 H130 0.948 . S
C153 C152 1.392 . S
C153 C154 1.419 . S
C154 C153 1.419 . S
C154 C155 1.391 . S
C154 C158 1.397 . S
C155 C150 1.391 . S
C155 C154 1.391 . S
C155 C156 1.399 . S
C156 C155 1.399 . S
C156 C157 1.396 . S
C156 C159 1.453 . S
C156 C160 1.684 . S
C157 C147 1.723 . S
C157 C156 1.396 . S
C157 C158 1.394 . S
C158 C128 1.723 . S
C158 C154 1.397 . S
C158 C157 1.394 . S
C159 H131 0.982 . S
C159 H135 0.979 . S
C159 H136 0.977 . S
C159 C156 1.453 . S
C160 H132 0.979 . S
C160 H133 0.980 . S
C160 H134 0.983 . S
C160 C156 1.684 . S
H161 C179 0.948 . S
H162 C120 0.948 . S
H163 C138 0.979 . S
H164 C138 0.980 . S
H165 C138 0.983 . S
H166 C137 0.982 . S
H167 C137 0.979 . S
H168 C137 0.977 . S
H169 C139 0.948 . S
H170 C141 0.947 . S
H171 C142 0.948 . S
H172 C148 0.982 . S
H173 C148 0.979 . S
H174 C148 0.977 . S
H175 C149 0.979 . S
H176 C149 0.980 . S
H177 C149 0.983 . S
H178 C122 0.947 . S
C179 C122 1.392 . S
C179 C123 1.419 . S
C179 H161 0.948 . S
C180 C181 1.391 . S
C180 C184 1.391 . S
C180 H222 0.948 . S
C181 C180 1.391 . S
C181 C182 1.391 . S
C182 C181 1.391 . S
C182 H238 0.947 . S
C182 C239 1.392 . S
C183 C184 1.391 . S
C183 C187 1.397 . S
C183 C239 1.419 . S
C184 C180 1.391 . S
C184 C183 1.391 . S
C184 C185 1.399 . S
C185 C184 1.399 . S
C185 C188 1.396 . S
C185 C197 1.453 . S
C185 C198 1.684 . S
H186 C210 0.948 . S
C187 C183 1.397 . S
C187 C188 1.394 . S
C187 C206 1.723 . S
C188 C185 1.396 . S
C188 C187 1.394 . S
C188 C218 1.723 . S
H189 C212 0.947 . S
H190 C213 0.948 . S
H191 C219 0.982 . S
H192 C220 0.979 . S
H193 C220 0.980 . S
H194 C220 0.983 . S
H195 C219 0.979 . S
H196 C219 0.977 . S
C197 C185 1.453 . S
C197 H226 0.982 . S
C197 H227 0.979 . S
C197 H228 0.977 . S
C198 C185 1.684 . S
C198 H223 0.979 . S
C198 H224 0.980 . S
C198 H225 0.983 . S
C199 C200 1.391 . S
C199 C204 1.391 . S
C199 H229 0.948 . S
C200 C199 1.391 . S
C200 C201 1.391 . S
C201 C200 1.391 . S
C201 C202 1.392 . S
C201 H230 0.947 . S
C202 C201 1.392 . S
C202 C203 1.419 . S
C202 H231 0.948 . S
C203 C202 1.419 . S
C203 C204 1.391 . S
C203 C207 1.397 . S
C204 C199 1.391 . S
C204 C203 1.391 . S
C204 C205 1.399 . S
C205 C204 1.399 . S
C205 C206 1.396 . S
C205 C208 1.453 . S
C205 C209 1.684 . S
C206 C187 1.723 . S
C206 C205 1.396 . S
C206 C207 1.394 . S
C207 C203 1.397 . S
C207 C206 1.394 . S
C207 C217 1.723 . S
C208 C205 1.453 . S
C208 H232 0.982 . S
C208 H233 0.979 . S
C208 H234 0.977 . S
C209 C205 1.684 . S
C209 H235 0.979 . S
C209 H236 0.980 . S
C209 H237 0.983 . S
C210 H186 0.948 . S
C210 C211 1.391 . S
C210 C215 1.391 . S
C211 C210 1.391 . S
C211 C212 1.391 . S
C212 H189 0.947 . S
C212 C211 1.391 . S
C212 C213 1.392 . S
C213 H190 0.948 . S
C213 C212 1.392 . S
C213 C214 1.419 . S
C214 C213 1.419 . S
C214 C215 1.391 . S
C214 C218 1.397 . S
C215 C210 1.391 . S
C215 C214 1.391 . S
C215 C216 1.399 . S
C216 C215 1.399 . S
C216 C217 1.396 . S
C216 C219 1.453 . S
C216 C220 1.684 . S
C217 C207 1.723 . S
C217 C216 1.396 . S
C217 C218 1.394 . S
C218 C188 1.723 . S
C218 C214 1.397 . S
C218 C217 1.394 . S
C219 H191 0.982 . S
C219 H195 0.979 . S
C219 H196 0.977 . S
C219 C216 1.453 . S
C220 H192 0.979 . S
C220 H193 0.980 . S
C220 H194 0.983 . S
C220 C216 1.684 . S
H221 C239 0.948 . S
H222 C180 0.948 . S
H223 C198 0.979 . S
H224 C198 0.980 . S
H225 C198 0.983 . S
H226 C197 0.982 . S
H227 C197 0.979 . S
H228 C197 0.977 . S
H229 C199 0.948 . S
H230 C201 0.947 . S
H231 C202 0.948 . S
H232 C208 0.982 . S
H233 C208 0.979 . S
H234 C208 0.977 . S
H235 C209 0.979 . S
H236 C209 0.980 . S
H237 C209 0.983 . S
H238 C182 0.947 . S
C239 C182 1.392 . S
C239 C183 1.419 . S
C239 H221 0.948 . S
C240 C241 1.391 . S
C240 C244 1.391 . S
C240 H282 0.948 . S
C241 C240 1.391 . S
C241 C242 1.391 . S
C242 C241 1.391 . S
C242 H298 0.947 . S
C242 C299 1.392 . S
C243 C244 1.391 . S
C243 C247 1.397 . S
C243 C299 1.419 . S
C244 C240 1.391 . S
C244 C243 1.391 . S
C244 C245 1.399 . S
C245 C244 1.399 . S
C245 C248 1.396 . S
C245 C257 1.453 . S
C245 C258 1.684 . S
H246 C270 0.948 . S
C247 C243 1.397 . S
C247 C248 1.394 . S
C247 C266 1.723 . S
C248 C245 1.396 . S
C248 C247 1.394 . S
C248 C278 1.723 . S
H249 C272 0.947 . S
H250 C273 0.948 . S
H251 C279 0.982 . S
H252 C280 0.979 . S
H253 C280 0.980 . S
H254 C280 0.983 . S
H255 C279 0.979 . S
H256 C279 0.977 . S
C257 C245 1.453 . S
C257 H286 0.982 . S
C257 H287 0.979 . S
C257 H288 0.977 . S
C258 C245 1.684 . S
C258 H283 0.979 . S
C258 H284 0.980 . S
C258 H285 0.983 . S
C259 C260 1.391 . S
C259 C264 1.391 . S
C259 H289 0.948 . S
C260 C259 1.391 . S
C260 C261 1.391 . S
C261 C260 1.391 . S
C261 C262 1.392 . S
C261 H290 0.947 . S
C262 C261 1.392 . S
C262 C263 1.419 . S
C262 H291 0.948 . S
C263 C262 1.419 . S
C263 C264 1.391 . S
C263 C267 1.397 . S
C264 C259 1.391 . S
C264 C263 1.391 . S
C264 C265 1.399 . S
C265 C264 1.399 . S
C265 C266 1.396 . S
C265 C268 1.453 . S
C265 C269 1.684 . S
C266 C247 1.723 . S
C266 C265 1.396 . S
C266 C267 1.394 . S
C267 C263 1.397 . S
C267 C266 1.394 . S
C267 C277 1.723 . S
C268 C265 1.453 . S
C268 H292 0.982 . S
C268 H293 0.979 . S
C268 H294 0.977 . S
C269 C265 1.684 . S
C269 H295 0.979 . S
C269 H296 0.980 . S
C269 H297 0.983 . S
C270 H246 0.948 . S
C270 C271 1.391 . S
C270 C275 1.391 . S
C271 C270 1.391 . S
C271 C272 1.391 . S
C272 H249 0.947 . S
C272 C271 1.391 . S
C272 C273 1.392 . S
C273 H250 0.948 . S
C273 C272 1.392 . S
C273 C274 1.419 . S
C274 C273 1.419 . S
C274 C275 1.391 . S
C274 C278 1.397 . S
C275 C270 1.391 . S
C275 C274 1.391 . S
C275 C276 1.399 . S
C276 C275 1.399 . S
C276 C277 1.396 . S
C276 C279 1.453 . S
C276 C280 1.684 . S
C277 C267 1.723 . S
C277 C276 1.396 . S
C277 C278 1.394 . S
C278 C248 1.723 . S
C278 C274 1.397 . S
C278 C277 1.394 . S
C279 H251 0.982 . S
C279 H255 0.979 . S
C279 H256 0.977 . S
C279 C276 1.453 . S
C280 H252 0.979 . S
C280 H253 0.980 . S
C280 H254 0.983 . S
C280 C276 1.684 . S
H281 C299 0.948 . S
H282 C240 0.948 . S
H283 C258 0.979 . S
H284 C258 0.980 . S
H285 C258 0.983 . S
H286 C257 0.982 . S
H287 C257 0.979 . S
H288 C257 0.977 . S
H289 C259 0.948 . S
H290 C261 0.947 . S
H291 C262 0.948 . S
H292 C268 0.982 . S
H293 C268 0.979 . S
H294 C268 0.977 . S
H295 C269 0.979 . S
H296 C269 0.980 . S
H297 C269 0.983 . S
H298 C242 0.947 . S
C299 C242 1.392 . S
C299 C243 1.419 . S
C299 H281 0.948 . S
C300 C301 1.391 . S
C300 C304 1.391 . S
C300 H342 0.948 . S
C301 C300 1.391 . S
C301 C302 1.391 . S
C302 C301 1.391 . S
C302 H358 0.947 . S
C302 C359 1.392 . S
C303 C304 1.391 . S
C303 C307 1.397 . S
C303 C359 1.419 . S
C304 C300 1.391 . S
C304 C303 1.391 . S
C304 C305 1.399 . S
C305 C304 1.399 . S
C305 C308 1.396 . S
C305 C317 1.453 . S
C305 C318 1.684 . S
H306 C330 0.948 . S
C307 C303 1.397 . S
C307 C308 1.394 . S
C307 C326 1.723 . S
C308 C305 1.396 . S
C308 C307 1.394 . S
C308 C338 1.723 . S
H309 C332 0.947 . S
H310 C333 0.948 . S
H311 C339 0.982 . S
H312 C340 0.979 . S
H313 C340 0.980 . S
H314 C340 0.983 . S
H315 C339 0.979 . S
H316 C339 0.977 . S
C317 C305 1.453 . S
C317 H346 0.982 . S
C317 H347 0.979 . S
C317 H348 0.977 . S
C318 C305 1.684 . S
C318 H343 0.979 . S
C318 H344 0.980 . S
C318 H345 0.983 . S
C319 C320 1.391 . S
C319 C324 1.391 . S
C319 H349 0.948 . S
C320 C319 1.391 . S
C320 C321 1.391 . S
C321 C320 1.391 . S
C321 C322 1.392 . S
C321 H350 0.947 . S
C322 C321 1.392 . S
C322 C323 1.419 . S
C322 H351 0.948 . S
C323 C322 1.419 . S
C323 C324 1.391 . S
C323 C327 1.397 . S
C324 C319 1.391 . S
C324 C323 1.391 . S
C324 C325 1.399 . S
C325 C324 1.399 . S
C325 C326 1.396 . S
C325 C328 1.453 . S
C325 C329 1.684 . S
C326 C307 1.723 . S
C326 C325 1.396 . S
C326 C327 1.394 . S
C327 C323 1.397 . S
C327 C326 1.394 . S
C327 C337 1.723 . S
C328 C325 1.453 . S
C328 H352 0.982 . S
C328 H353 0.979 . S
C328 H354 0.977 . S
C329 C325 1.684 . S
C329 H355 0.979 . S
C329 H356 0.980 . S
C329 H357 0.983 . S
C330 H306 0.948 . S
C330 C331 1.391 . S
C330 C335 1.391 . S
C331 C330 1.391 . S
C331 C332 1.391 . S
C332 H309 0.947 . S
C332 C331 1.391 . S
C332 C333 1.392 . S
C333 H310 0.948 . S
C333 C332 1.392 . S
C333 C334 1.419 . S
C334 C333 1.419 . S
C334 C335 1.391 . S
C334 C338 1.397 . S
C335 C330 1.391 . S
C335 C334 1.391 . S
C335 C336 1.399 . S
C336 C335 1.399 . S
C336 C337 1.396 . S
C336 C339 1.453 . S
C336 C340 1.684 . S
C337 C327 1.723 . S
C337 C336 1.396 . S
C337 C338 1.394 . S
C338 C308 1.723 . S
C338 C334 1.397 . S
C338 C337 1.394 . S
C339 H311 0.982 . S
C339 H315 0.979 . S
C339 H316 0.977 . S
C339 C336 1.453 . S
C340 H312 0.979 . S
C340 H313 0.980 . S
C340 H314 0.983 . S
C340 C336 1.684 . S
H341 C359 0.948 . S
H342 C300 0.948 . S
H343 C318 0.979 . S
H344 C318 0.980 . S
H345 C318 0.983 . S
H346 C317 0.982 . S
H347 C317 0.979 . S
H348 C317 0.977 . S
H349 C319 0.948 . S
H350 C321 0.947 . S
H351 C322 0.948 . S
H352 C328 0.982 . S
H353 C328 0.979 . S
H354 C328 0.977 . S
H355 C329 0.979 . S
H356 C329 0.980 . S
H357 C329 0.983 . S
H358 C302 0.947 . S
C359 C302 1.392 . S
C359 C303 1.419 . S
C359 H341 0.948 . S
C360 C361 1.391 . S
C360 C364 1.391 . S
C360 H402 0.948 . S
C361 C360 1.391 . S
C361 C362 1.391 . S
C362 C361 1.391 . S
C362 H418 0.947 . S
C362 C419 1.392 . S
C363 C364 1.391 . S
C363 C367 1.397 . S
C363 C419 1.419 . S
C364 C360 1.391 . S
C364 C363 1.391 . S
C364 C365 1.399 . S
C365 C364 1.399 . S
C365 C368 1.396 . S
C365 C377 1.453 . S
C365 C378 1.684 . S
H366 C390 0.948 . S
C367 C363 1.397 . S
C367 C368 1.394 . S
C367 C386 1.723 . S
C368 C365 1.396 . S
C368 C367 1.394 . S
C368 C398 1.723 . S
H369 C392 0.947 . S
H370 C393 0.948 . S
H371 C399 0.982 . S
H372 C400 0.979 . S
H373 C400 0.980 . S
H374 C400 0.983 . S
H375 C399 0.979 . S
H376 C399 0.977 . S
C377 C365 1.453 . S
C377 H406 0.982 . S
C377 H407 0.979 . S
C377 H408 0.977 . S
C378 C365 1.684 . S
C378 H403 0.979 . S
C378 H404 0.980 . S
C378 H405 0.983 . S
C379 C380 1.391 . S
C379 C384 1.391 . S
C379 H409 0.948 . S
C380 C379 1.391 . S
C380 C381 1.391 . S
C381 C380 1.391 . S
C381 C382 1.392 . S
C381 H410 0.947 . S
C382 C381 1.392 . S
C382 C383 1.419 . S
C382 H411 0.948 . S
C383 C382 1.419 . S
C383 C384 1.391 . S
C383 C387 1.397 . S
C384 C379 1.391 . S
C384 C383 1.391 . S
C384 C385 1.399 . S
C385 C384 1.399 . S
C385 C386 1.396 . S
C385 C388 1.453 . S
C385 C389 1.684 . S
C386 C367 1.723 . S
C386 C385 1.396 . S
C386 C387 1.394 . S
C387 C383 1.397 . S
C387 C386 1.394 . S
C387 C397 1.723 . S
C388 C385 1.453 . S
C388 H412 0.982 . S
C388 H413 0.979 . S
C388 H414 0.977 . S
C389 C385 1.684 . S
C389 H415 0.979 . S
C389 H416 0.980 . S
C389 H417 0.983 . S
C390 H366 0.948 . S
C390 C391 1.391 . S
C390 C395 1.391 . S
C391 C390 1.391 . S
C391 C392 1.391 . S
C392 H369 0.947 . S
C392 C391 1.391 . S
C392 C393 1.392 . S
C393 H370 0.948 . S
C393 C392 1.392 . S
C393 C394 1.419 . S
C394 C393 1.419 . S
C394 C395 1.391 . S
C394 C398 1.397 . S
C395 C390 1.391 . S
C395 C394 1.391 . S
C395 C396 1.399 . S
C396 C395 1.399 . S
C396 C397 1.396 . S
C396 C399 1.453 . S
C396 C400 1.684 . S
C397 C387 1.723 . S
C397 C396 1.396 . S
C397 C398 1.394 . S
C398 C368 1.723 . S
C398 C394 1.397 . S
C398 C397 1.394 . S
C399 H371 0.982 . S
C399 H375 0.979 . S
C399 H376 0.977 . S
C399 C396 1.453 . S
C400 H372 0.979 . S
C400 H373 0.980 . S
C400 H374 0.983 . S
C400 C396 1.684 . S
H401 C419 0.948 . S
H402 C360 0.948 . S
H403 C378 0.979 . S
H404 C378 0.980 . S
H405 C378 0.983 . S
H406 C377 0.982 . S
H407 C377 0.979 . S
H408 C377 0.977 . S
H409 C379 0.948 . S
H410 C381 0.947 . S
H411 C382 0.948 . S
H412 C388 0.982 . S
H413 C388 0.979 . S
H414 C388 0.977 . S
H415 C389 0.979 . S
H416 C389 0.980 . S
H417 C389 0.983 . S
H418 C362 0.947 . S
C419 C362 1.392 . S
C419 C363 1.419 . S
C419 H401 0.948 . S
C420 C421 1.391 . S
C420 C424 1.391 . S
C420 H462 0.948 . S
C421 C420 1.391 . S
C421 C422 1.391 . S
C422 C421 1.391 . S
C422 H478 0.947 . S
C422 C479 1.392 . S
C423 C424 1.391 . S
C423 C427 1.397 . S
C423 C479 1.419 . S
C424 C420 1.391 . S
C424 C423 1.391 . S
C424 C425 1.399 . S
C425 C424 1.399 . S
C425 C428 1.396 . S
C425 C437 1.453 . S
C425 C438 1.684 . S
H426 C450 0.948 . S
C427 C423 1.397 . S
C427 C428 1.394 . S
C427 C446 1.723 . S
C428 C425 1.396 . S
C428 C427 1.394 . S
C428 C458 1.723 . S
H429 C452 0.947 . S
H430 C453 0.948 . S
H431 C459 0.982 . S
H432 C460 0.979 . S
H433 C460 0.980 . S
H434 C460 0.983 . S
H435 C459 0.979 . S
H436 C459 0.977 . S
C437 C425 1.453 . S
C437 H466 0.982 . S
C437 H467 0.979 . S
C437 H468 0.977 . S
C438 C425 1.684 . S
C438 H463 0.979 . S
C438 H464 0.980 . S
C438 H465 0.983 . S
C439 C440 1.391 . S
C439 C444 1.391 . S
C439 H469 0.948 . S
C440 C439 1.391 . S
C440 C441 1.391 . S
C441 C440 1.391 . S
C441 C442 1.392 . S
C441 H470 0.947 . S
C442 C441 1.392 . S
C442 C443 1.419 . S
C442 H471 0.948 . S
C443 C442 1.419 . S
C443 C444 1.391 . S
C443 C447 1.397 . S
C444 C439 1.391 . S
C444 C443 1.391 . S
C444 C445 1.399 . S
C445 C444 1.399 . S
C445 C446 1.396 . S
C445 C448 1.453 . S
C445 C449 1.684 . S
C446 C427 1.723 . S
C446 C445 1.396 . S
C446 C447 1.394 . S
C447 C443 1.397 . S
C447 C446 1.394 . S
C447 C457 1.723 . S
C448 C445 1.453 . S
C448 H472 0.982 . S
C448 H473 0.979 . S
C448 H474 0.977 . S
C449 C445 1.684 . S
C449 H475 0.979 . S
C449 H476 0.980 . S
C449 H477 0.983 . S
C450 H426 0.948 . S
C450 C451 1.391 . S
C450 C455 1.391 . S
C451 C450 1.391 . S
C451 C452 1.391 . S
C452 H429 0.947 . S
C452 C451 1.391 . S
C452 C453 1.392 . S
C453 H430 0.948 . S
C453 C452 1.392 . S
C453 C454 1.419 . S
C454 C453 1.419 . S
C454 C455 1.391 . S
C454 C458 1.397 . S
C455 C450 1.391 . S
C455 C454 1.391 . S
C455 C456 1.399 . S
C456 C455 1.399 . S
C456 C457 1.396 . S
C456 C459 1.453 . S
C456 C460 1.684 . S
C457 C447 1.723 . S
C457 C456 1.396 . S
C457 C458 1.394 . S
C458 C428 1.723 . S
C458 C454 1.397 . S
C458 C457 1.394 . S
C459 H431 0.982 . S
C459 H435 0.979 . S
C459 H436 0.977 . S
C459 C456 1.453 . S
C460 H432 0.979 . S
C460 H433 0.980 . S
C460 H434 0.983 . S
C460 C456 1.684 . S
H461 C479 0.948 . S
H462 C420 0.948 . S
H463 C438 0.979 . S
H464 C438 0.980 . S
H465 C438 0.983 . S
H466 C437 0.982 . S
H467 C437 0.979 . S
H468 C437 0.977 . S
H469 C439 0.948 . S
H470 C441 0.947 . S
H471 C442 0.948 . S
H472 C448 0.982 . S
H473 C448 0.979 . S
H474 C448 0.977 . S
H475 C449 0.979 . S
H476 C449 0.980 . S
H477 C449 0.983 . S
H478 C422 0.947 . S
C479 C422 1.392 . S
C479 C423 1.419 . S
C479 H461 0.948 . S
Pr480 C482 2.880 . S
Pr480 O500 2.562 . S
Pr480 O501 2.490 . S
Pr480 O502 2.695 1_665 S
Pr480 O503 2.512 1_565 S
Pr480 O505 2.437 1_655 S
Pr480 O508 2.436 . S
Pr480 O510 2.438 1_565 S
Pr481 C491 2.880 . S
Pr481 O502 2.436 . S
Pr481 O504 2.438 1_545 S
Pr481 O506 2.562 . S
Pr481 O507 2.490 . S
Pr481 O508 2.695 1_445 S
Pr481 O509 2.512 1_545 S
Pr481 O511 2.437 1_455 S
C482 Pr480 2.880 . S
C482 C483 1.491 . S
C482 O500 1.254 . S
C482 O501 1.225 . S
C483 C482 1.491 . S
C483 C484 1.392 . S
C483 C488 1.356 . S
C484 C483 1.392 . S
C484 C485 1.368 . S
C484 H512 0.929 . S
C485 C484 1.368 . S
C485 C486 1.386 . S
C485 H513 0.929 . S
C486 C485 1.386 . S
C486 C487 1.373 . S
C487 C486 1.373 . S
C487 C488 1.409 . S
C487 H514 0.931 . S
C488 C483 1.356 . S
C488 C487 1.409 . S
C488 H515 0.930 . S
C489 O502 1.270 . S
C489 O503 1.248 1_455 S
C490 O504 1.267 . S
C490 O505 1.278 . S
C491 Pr481 2.880 . S
C491 C492 1.491 . S
C491 O506 1.254 . S
C491 O507 1.225 . S
C492 C491 1.491 . S
C492 C493 1.392 . S
C492 C497 1.356 . S
C493 C492 1.392 . S
C493 C494 1.368 . S
C493 H516 0.929 . S
C494 C493 1.368 . S
C494 C495 1.386 . S
C494 H517 0.929 . S
C495 C494 1.386 . S
C495 C496 1.373 . S
C496 C495 1.373 . S
C496 C497 1.409 . S
C496 H518 0.931 . S
C497 C492 1.356 . S
C497 C496 1.409 . S
C497 H519 0.930 . S
C498 O508 1.270 . S
C498 O509 1.248 1_655 S
C499 O510 1.267 . S
C499 O511 1.278 . S
O500 Pr480 2.562 . S
O500 C482 1.254 . S
O501 Pr480 2.490 . S
O501 C482 1.225 . S
O502 Pr480 2.695 1_445 S
O502 Pr481 2.436 . S
O502 C489 1.270 . S
O503 Pr480 2.512 1_545 S
O503 C489 1.248 1_655 S
O504 Pr481 2.438 1_565 S
O504 C490 1.267 . S
O505 Pr480 2.437 1_455 S
O505 C490 1.278 . S
O506 Pr481 2.562 . S
O506 C491 1.254 . S
O507 Pr481 2.490 . S
O507 C491 1.225 . S
O508 Pr480 2.436 . S
O508 Pr481 2.695 1_665 S
O508 C498 1.270 . S
O509 Pr481 2.512 1_565 S
O509 C498 1.248 1_455 S
O510 Pr480 2.438 1_545 S
O510 C499 1.267 . S
O511 Pr481 2.437 1_655 S
O511 C499 1.278 . S
H512 C484 0.929 . S
H513 C485 0.929 . S
H514 C487 0.931 . S
H515 C488 0.930 . S
H516 C493 0.929 . S
H517 C494 0.929 . S
H518 C496 0.931 . S
H519 C497 0.930 . S
Pr520 C522 2.880 . S
Pr520 O540 2.562 . S
Pr520 O541 2.490 . S
Pr520 O542 2.695 1_554 S
Pr520 O543 2.512 1_554 S
Pr520 O545 2.437 . S
Pr520 O548 2.436 1_545 S
Pr520 O550 2.438 1_544 S
Pr521 C531 2.880 . S
Pr521 O542 2.436 1_565 S
Pr521 O544 2.438 1_566 S
Pr521 O546 2.562 . S
Pr521 O547 2.490 . S
Pr521 O548 2.695 1_556 S
Pr521 O549 2.512 1_556 S
Pr521 O551 2.437 . S
C522 Pr520 2.880 . S
C522 C523 1.491 . S
C522 O540 1.254 . S
C522 O541 1.225 . S
C523 C522 1.491 . S
C523 C524 1.392 . S
C523 C528 1.356 . S
C524 C523 1.392 . S
C524 C525 1.368 . S
C524 H552 0.929 . S
C525 C524 1.368 . S
C525 C526 1.386 . S
C525 H553 0.929 . S
C526 C525 1.386 . S
C526 C527 1.373 . S
C527 C526 1.373 . S
C527 C528 1.409 . S
C527 H554 0.931 . S
C528 C523 1.356 . S
C528 C527 1.409 . S
C528 H555 0.930 . S
C529 O542 1.270 . S
C529 O543 1.248 . S
C530 O544 1.267 . S
C530 O545 1.278 . S
C531 Pr521 2.880 . S
C531 C532 1.491 . S
C531 O546 1.254 . S
C531 O547 1.225 . S
C532 C531 1.491 . S
C532 C533 1.392 . S
C532 C537 1.356 . S
C533 C532 1.392 . S
C533 C534 1.368 . S
C533 H556 0.929 . S
C534 C533 1.368 . S
C534 C535 1.386 . S
C534 H557 0.929 . S
C535 C534 1.386 . S
C535 C536 1.373 . S
C536 C535 1.373 . S
C536 C537 1.409 . S
C536 H558 0.931 . S
C537 C532 1.356 . S
C537 C536 1.409 . S
C537 H559 0.930 . S
C538 O548 1.270 . S
C538 O549 1.248 . S
C539 O550 1.267 . S
C539 O551 1.278 . S
O540 Pr520 2.562 . S
O540 C522 1.254 . S
O541 Pr520 2.490 . S
O541 C522 1.225 . S
O542 Pr520 2.695 1_556 S
O542 Pr521 2.436 1_545 S
O542 C529 1.270 . S
O543 Pr520 2.512 1_556 S
O543 C529 1.248 . S
O544 Pr521 2.438 1_544 S
O544 C530 1.267 . S
O545 Pr520 2.437 . S
O545 C530 1.278 . S
O546 Pr521 2.562 . S
O546 C531 1.254 . S
O547 Pr521 2.490 . S
O547 C531 1.225 . S
O548 Pr520 2.436 1_565 S
O548 Pr521 2.695 1_554 S
O548 C538 1.270 . S
O549 Pr521 2.512 1_554 S
O549 C538 1.248 . S
O550 Pr520 2.438 1_566 S
O550 C539 1.267 . S
O551 Pr521 2.437 . S
O551 C539 1.278 . S
H552 C524 0.929 . S
H553 C525 0.929 . S
H554 C527 0.931 . S
H555 C528 0.930 . S
H556 C533 0.929 . S
H557 C534 0.929 . S
H558 C536 0.931 . S
H559 C537 0.930 . S
Pr560 C562 2.880 . S
Pr560 O580 2.562 . S
Pr560 O581 2.490 . S
Pr560 O582 2.695 . S
Pr560 O583 2.512 . S
Pr560 O585 2.437 . S
Pr560 O588 2.436 . S
Pr560 O590 2.438 . S
Pr561 C571 2.880 . S
Pr561 O582 2.436 . S
Pr561 O584 2.438 . S
Pr561 O586 2.562 . S
Pr561 O587 2.490 . S
Pr561 O588 2.695 . S
Pr561 O589 2.512 . S
Pr561 O591 2.437 . S
C562 Pr560 2.880 . S
C562 C563 1.491 . S
C562 O580 1.254 . S
C562 O581 1.225 . S
C563 C562 1.491 . S
C563 C564 1.392 . S
C563 C568 1.356 . S
C564 C563 1.392 . S
C564 C565 1.368 . S
C564 H592 0.929 . S
C565 C564 1.368 . S
C565 C566 1.386 . S
C565 H593 0.929 . S
C566 C565 1.386 . S
C566 C567 1.373 . S
C567 C566 1.373 . S
C567 C568 1.409 . S
C567 H594 0.931 . S
C568 C563 1.356 . S
C568 C567 1.409 . S
C568 H595 0.930 . S
C569 O582 1.270 . S
C569 O583 1.248 . S
C570 O584 1.267 . S
C570 O585 1.278 . S
C571 Pr561 2.880 . S
C571 C572 1.491 . S
C571 O586 1.254 . S
C571 O587 1.225 . S
C572 C571 1.491 . S
C572 C573 1.392 . S
C572 C577 1.356 . S
C573 C572 1.392 . S
C573 C574 1.368 . S
C573 H596 0.929 . S
C574 C573 1.368 . S
C574 C575 1.386 . S
C574 H597 0.929 . S
C575 C574 1.386 . S
C575 C576 1.373 . S
C576 C575 1.373 . S
C576 C577 1.409 . S
C576 H598 0.931 . S
C577 C572 1.356 . S
C577 C576 1.409 . S
C577 H599 0.930 . S
C578 O588 1.270 . S
C578 O589 1.248 . S
C579 O590 1.267 . S
C579 O591 1.278 . S
O580 Pr560 2.562 . S
O580 C562 1.254 . S
O581 Pr560 2.490 . S
O581 C562 1.225 . S
O582 Pr560 2.695 . S
O582 Pr561 2.436 . S
O582 C569 1.270 . S
O583 Pr560 2.512 . S
O583 C569 1.248 . S
O584 Pr561 2.438 . S
O584 C570 1.267 . S
O585 Pr560 2.437 . S
O585 C570 1.278 . S
O586 Pr561 2.562 . S
O586 C571 1.254 . S
O587 Pr561 2.490 . S
O587 C571 1.225 . S
O588 Pr560 2.436 . S
O588 Pr561 2.695 . S
O588 C578 1.270 . S
O589 Pr561 2.512 . S
O589 C578 1.248 . S
O590 Pr560 2.438 . S
O590 C579 1.267 . S
O591 Pr561 2.437 . S
O591 C579 1.278 . S
H592 C564 0.929 . S
H593 C565 0.929 . S
H594 C567 0.931 . S
H595 C568 0.930 . S
H596 C573 0.929 . S
H597 C574 0.929 . S
H598 C576 0.931 . S
H599 C577 0.930 . S
Pr600 C602 2.880 . S
Pr600 O620 2.562 . S
Pr600 O621 2.490 . S
Pr600 O622 2.695 1_656 S
Pr600 O623 2.512 1_656 S
Pr600 O625 2.437 1_556 S
Pr600 O628 2.436 . S
Pr600 O630 2.438 1_655 S
Pr601 C611 2.880 . S
Pr601 O622 2.436 . S
Pr601 O624 2.438 1_455 S
Pr601 O626 2.562 . S
Pr601 O627 2.490 . S
Pr601 O628 2.695 1_454 S
Pr601 O629 2.512 1_454 S
Pr601 O631 2.437 1_554 S
C602 Pr600 2.880 . S
C602 C603 1.491 . S
C602 O620 1.254 . S
C602 O621 1.225 . S
C603 C602 1.491 . S
C603 C604 1.392 . S
C603 C608 1.356 . S
C604 C603 1.392 . S
C604 C605 1.368 . S
C604 H632 0.929 . S
C605 C604 1.368 . S
C605 C606 1.386 . S
C605 H633 0.929 . S
C606 C605 1.386 . S
C606 C607 1.373 . S
C607 C606 1.373 . S
C607 C608 1.409 . S
C607 H634 0.931 . S
C608 C603 1.356 . S
C608 C607 1.409 . S
C608 H635 0.930 . S
C609 O622 1.270 . S
C609 O623 1.248 . S
C610 O624 1.267 . S
C610 O625 1.278 . S
C611 Pr601 2.880 . S
C611 C612 1.491 . S
C611 O626 1.254 . S
C611 O627 1.225 . S
C612 C611 1.491 . S
C612 C613 1.392 . S
C612 C617 1.356 . S
C613 C612 1.392 . S
C613 C614 1.368 . S
C613 H636 0.929 . S
C614 C613 1.368 . S
C614 C615 1.386 . S
C614 H637 0.929 . S
C615 C614 1.386 . S
C615 C616 1.373 . S
C616 C615 1.373 . S
C616 C617 1.409 . S
C616 H638 0.931 . S
C617 C612 1.356 . S
C617 C616 1.409 . S
C617 H639 0.930 . S
C618 O628 1.270 . S
C618 O629 1.248 . S
C619 O630 1.267 . S
C619 O631 1.278 . S
O620 Pr600 2.562 . S
O620 C602 1.254 . S
O621 Pr600 2.490 . S
O621 C602 1.225 . S
O622 Pr600 2.695 1_454 S
O622 Pr601 2.436 . S
O622 C609 1.270 . S
O623 Pr600 2.512 1_454 S
O623 C609 1.248 . S
O624 Pr601 2.438 1_655 S
O624 C610 1.267 . S
O625 Pr600 2.437 1_554 S
O625 C610 1.278 . S
O626 Pr601 2.562 . S
O626 C611 1.254 . S
O627 Pr601 2.490 . S
O627 C611 1.225 . S
O628 Pr600 2.436 . S
O628 Pr601 2.695 1_656 S
O628 C618 1.270 . S
O629 Pr601 2.512 1_656 S
O629 C618 1.248 . S
O630 Pr600 2.438 1_455 S
O630 C619 1.267 . S
O631 Pr601 2.437 1_556 S
O631 C619 1.278 . S
H632 C604 0.929 . S
H633 C605 0.929 . S
H634 C607 0.931 . S
H635 C608 0.930 . S
H636 C613 0.929 . S
H637 C614 0.929 . S
H638 C616 0.931 . S
H639 C617 0.930 . S
C1 C495 3.424 . S
C80 C539 2.714 . S
C569 C140 3.916 . S
C211 C610 3.999 . S
C526 C31 2.477 . S
C490 C61 3.676 . S
C618 C151 1.607 . S
C579 C200 4.314 . S
C20 C615 4.782 . S
C529 C121 3.483 . S
C181 C498 2.575 . S
C91 C566 4.094 . S
C486 C260 3.553 . S
C320 C530 2.713 . S
C361 C578 3.809 . S
C451 C619 3.999 . S
C271 C535 2.639 . S
C499 C301 3.675 . S
C609 C380 1.418 . S
C570 C440 4.314 . S
C241 C606 4.762 . S
C538 C391 3.377 . S
C489 C421 2.574 . S
C331 C575 4.094 . S
