# Generated by pormake.
# Topology anh, (6,3)-cn, num edge types: 1
# Building blocks:
#     Node 0, Type 0, BuildingBlock: PAMTUU_clean_sbu_0, # of connection points: 6
#     Node 1, Type 0, BuildingBlock: PAMTUU_clean_sbu_0, # of connection points: 6
#     Node 2, Type 0, BuildingBlock: PAMTUU_clean_sbu_0, # of connection points: 6
#     Node 3, Type 1, BuildingBlock: KAKCAD_clean_linker_0, # of connection points: 3
#     Node 4, Type 1, BuildingBlock: KAKCAD_clean_linker_0, # of connection points: 3
#     Node 5, Type 1, BuildingBlock: KAKCAD_clean_linker_0, # of connection points: 3
#     Node 6, Type 1, BuildingBlock: KAKCAD_clean_linker_0, # of connection points: 3
#     Node 7, Type 1, BuildingBlock: KAKCAD_clean_linker_0, # of connection points: 3
#     Node 8, Type 1, BuildingBlock: KAKCAD_clean_linker_0, # of connection points: 3
#     Edge 9, Type (0, 1), BuildingBlock: XIVTED_clean_linker_0, # of connection points: 2
#     Edge 10, Type (0, 1), BuildingBlock: XIVTED_clean_linker_0, # of connection points: 2
#     Edge 11, Type (0, 1), BuildingBlock: XIVTED_clean_linker_0, # of connection points: 2
#     Edge 12, Type (0, 1), BuildingBlock: XIVTED_clean_linker_0, # of connection points: 2
#     Edge 13, Type (0, 1), BuildingBlock: XIVTED_clean_linker_0, # of connection points: 2
#     Edge 14, Type (0, 1), BuildingBlock: XIVTED_clean_linker_0, # of connection points: 2
#     Edge 15, Type (0, 1), BuildingBlock: XIVTED_clean_linker_0, # of connection points: 2
#     Edge 16, Type (0, 1), BuildingBlock: XIVTED_clean_linker_0, # of connection points: 2
#     Edge 17, Type (0, 1), BuildingBlock: XIVTED_clean_linker_0, # of connection points: 2
#     Edge 18, Type (0, 1), BuildingBlock: XIVTED_clean_linker_0, # of connection points: 2
#     Edge 19, Type (0, 1), BuildingBlock: XIVTED_clean_linker_0, # of connection points: 2
#     Edge 20, Type (0, 1), BuildingBlock: XIVTED_clean_linker_0, # of connection points: 2
#     Edge 21, Type (0, 1), BuildingBlock: XIVTED_clean_linker_0, # of connection points: 2
#     Edge 22, Type (0, 1), BuildingBlock: XIVTED_clean_linker_0, # of connection points: 2
#     Edge 23, Type (0, 1), BuildingBlock: XIVTED_clean_linker_0, # of connection points: 2
#     Edge 24, Type (0, 1), BuildingBlock: XIVTED_clean_linker_0, # of connection points: 2
#     Edge 25, Type (0, 1), BuildingBlock: XIVTED_clean_linker_0, # of connection points: 2
#     Edge 26, Type (0, 1), BuildingBlock: XIVTED_clean_linker_0, # of connection points: 2
# Relax obj value: 0.237
# Max RMSD: 0.188
# Mean RMSD: 0.155
data_MOF--net-anh--node1-PAMTUU_clean_sbu_0--node2-KAKCAD_clean_linker_0--edge1-XIVTED_clean_linker_0
_symmetry_space_group_name_H-M    P1
_symmetry_Int_Tables_number       1
_symmetry_cell_setting            triclinic
loop_
_symmetry_equiv_pos_as_xyz
'x, y, z'
_cell_length_a     37.856606
_cell_length_b     37.974064
_cell_length_c     66.548484
_cell_angle_alpha  93.40012
_cell_angle_beta   90.96054
_cell_angle_gamma 120.11175
loop_
_atom_site_label
_atom_site_type_symbol
_atom_site_fract_x
_atom_site_fract_y
_atom_site_fract_z
_atom_type_partial_charge
Tb0 Tb 0.09266 0.6202 0.16061 0.0
Tb1 Tb 0.13797 0.56994 0.16715 0.0
C2 C 0.12002 0.58741 0.12366 0.0
C3 C 1.01162 0.64286 0.16404 0.0
C4 C 0.92839 0.60159 0.17206 0.0
C5 C 0.94284 0.62951 0.15705 0.0
C6 C 0.98428 0.6499 0.15301 0.0
C7 C 0.99767 0.61733 0.17999 0.0
C8 C 0.95641 0.5969 0.18399 0.0
C9 C 1.05233 0.65559 0.15682 0.0
O10 O 1.03987 0.55532 0.16014 0.0
O11 O 0.07301 0.52255 0.17053 0.0
O12 O 0.14022 0.59842 0.19695 0.0
O13 O 0.08331 0.60288 0.19113 0.0
O14 O 0.1813 0.55405 0.15812 0.0
O15 O 0.14153 0.52489 0.18226 0.0
O16 O 0.19087 0.63402 0.16721 0.0
O17 O 0.15723 0.67036 0.16811 0.0
O18 O 0.11929 0.61907 0.13201 0.0
O19 O 0.11824 0.55941 0.13497 0.0
C20 C 1.03838 0.52178 0.16619 0.0
O21 O 0.08132 0.66677 0.17083 0.0
O22 O 1.05288 0.63034 0.1428 0.0
C23 C 0.11046 0.60329 0.2036 0.0
C24 C 0.20516 0.52844 0.18336 0.0
C25 C 0.27203 0.52487 0.19979 0.0
C26 C 0.23407 0.48898 0.1953 0.0
C27 C 0.20105 0.49084 0.18717 0.0
C28 C 0.24155 0.56468 0.1894 0.0
C29 C 0.27481 0.56289 0.19767 0.0
C30 C 0.17171 0.52811 0.17191 0.0
C31 C 0.19203 0.66972 0.16882 0.0
H32 H 0.92177 0.63334 0.14749 0.0
H33 H 0.99446 0.66908 0.14049 0.0
H34 H 1.01819 0.61113 0.1886 0.0
H35 H 0.94609 0.57582 0.19573 0.0
H36 H 0.23051 0.45904 0.19637 0.0
H37 H 0.17291 0.46263 0.18277 0.0
H38 H 0.24485 0.59408 0.18687 0.0
H39 H 0.30333 0.59113 0.20129 0.0
Tb40 Tb 0.59244 0.04726 0.49563 0.0
Tb41 Tb 0.68959 0.09721 0.49942 0.0
C42 C 0.64246 0.07313 0.45637 0.0
C43 C 0.48336 0.97559 0.506 0.0
C44 C 0.41435 0.9137 0.5233 0.0
C45 C 0.42626 0.90607 0.50438 0.0
C46 C 0.46031 0.93679 0.49578 0.0
C47 C 0.47285 0.98249 0.52544 0.0
C48 C 0.43867 0.95181 0.534 0.0
C49 C 0.51563 1.00954 0.49568 0.0
O50 O 0.60715 0.99671 0.49526 0.0
O51 O 0.67663 1.03319 0.50258 0.0
O52 O 0.66617 0.10273 0.52857 0.0
O53 O 0.61057 0.03972 0.52515 0.0
O54 O 0.7464 0.13156 0.4869 0.0
O55 O 0.74301 0.11995 0.51828 0.0
O56 O 0.67555 0.14742 0.49653 0.0
O57 O 0.60765 0.11234 0.50274 0.0
O58 O 0.60868 0.06485 0.46515 0.0
O59 O 0.67537 0.08018 0.46694 0.0
C60 C 0.64199 0.99739 0.4997 0.0
O61 O 0.53944 0.04296 0.5069 0.0
O62 O 0.53584 1.00078 0.4825 0.0
C63 C 0.63776 0.07078 0.53667 0.0
C64 C 0.78543 0.1876 0.5095 0.0
C65 C 0.79712 0.26604 0.50619 0.0
C66 C 0.81964 0.25264 0.49472 0.0
C67 C 0.81391 0.21368 0.49641 0.0
C68 C 0.76713 0.20311 0.52285 0.0
C69 C 0.77309 0.24217 0.52125 0.0
C70 C 0.76548 0.14326 0.50461 0.0
C71 C 0.6415 0.1477 0.50052 0.0
H72 H 0.40772 0.87722 0.49559 0.0
H73 H 0.4675 0.93067 0.48074 0.0
H74 H 0.48997 1.01209 0.53376 0.0
H75 H 0.43027 0.95844 0.54863 0.0
H76 H 0.8392 0.27102 0.48332 0.0
H77 H 0.82823 0.20237 0.48594 0.0
H78 H 0.74477 0.18365 0.53304 0.0
H79 H 0.75554 0.25182 0.53035 0.0
Tb80 Tb 0.6122 0.51815 0.82369 0.0
Tb81 Tb 0.6603 0.61398 0.8347 0.0
C82 C 0.64404 0.57769 0.78945 0.0
C83 C 0.53862 0.40568 0.82326 0.0
C84 C 0.47222 0.33132 0.83371 0.0
C85 C 0.51208 0.33736 0.83399 0.0
C86 C 0.54484 0.37409 0.82875 0.0
C87 C 0.49932 0.40082 0.82419 0.0
C88 C 0.46636 0.36385 0.82932 0.0
C89 C 0.57287 0.44183 0.81527 0.0
O90 O 0.67836 0.53614 0.82103 0.0
O91 O 0.70829 0.59719 0.84006 0.0
O92 O 0.63355 0.58823 0.8629 0.0
O93 O 0.62457 0.52466 0.85569 0.0
O94 O 0.68067 0.67197 0.82466 0.0
O95 O 0.69542 0.66538 0.8551 0.0
O96 O 0.59488 0.59856 0.8305 0.0
O97 O 0.56303 0.53017 0.83464 0.0
O98 O 0.61368 0.54434 0.79546 0.0
O99 O 0.67131 0.60546 0.80274 0.0
C100 C 0.711 0.56622 0.83151 0.0
O101 O 0.56463 0.46724 0.80699 0.0
O102 O 0.60664 0.46072 0.82647 0.0
C103 C 0.6269 0.55301 0.86863 0.0
C104 C 0.68234 0.71862 0.84963 0.0
C105 C 0.65552 0.77504 0.85693 0.0
C106 C 0.69754 0.78792 0.85832 0.0
C107 C 0.71082 0.75991 0.85454 0.0
C108 C 0.64046 0.70513 0.84974 0.0
C109 C 0.62714 0.73304 0.85322 0.0
C110 C 0.6961 0.69049 0.8424 0.0
C111 C 0.56095 0.56402 0.83376 0.0
H112 H 0.51767 0.31279 0.83694 0.0
H113 H 0.57485 0.37716 0.82814 0.0
H114 H 0.4937 0.42491 0.82023 0.0
H115 H 0.43607 0.36016 0.82909 0.0
H116 H 0.72025 0.81983 0.86158 0.0
H117 H 0.74332 0.77074 0.85467 0.0
H118 H 0.61804 0.67329 0.84607 0.0
H119 H 0.59462 0.72178 0.85173 0.0
C120 C 0.65586 0.13106 0.29612 0.0
C121 C 0.6416 0.09351 0.30471 0.0
C122 C 0.65282 0.13273 0.27508 0.0
C123 C 0.6359 0.09692 0.2619 0.0
C124 C 0.62277 0.05955 0.27061 0.0
C125 C 0.62522 0.05786 0.29159 0.0
C126 C 0.63109 0.09803 0.23932 0.0
C127 C 0.66003 0.13118 0.22899 0.0
C128 C 0.65684 0.13279 0.20788 0.0
C129 C 0.62174 0.09808 0.19689 0.0
C130 C 0.59121 0.06357 0.20713 0.0
C131 C 0.59723 0.06539 0.22821 0.0
C132 C 0.55279 1.02392 0.1976 0.0
C133 C 0.51813 1.02322 0.18865 0.0
C134 C 0.54665 0.98498 0.20167 0.0
C135 C 0.50858 0.94793 0.19742 0.0
C136 C 0.47336 0.9469 0.18892 0.0
C137 C 0.69136 0.17188 0.19894 0.0
C138 C 0.69994 0.21142 0.20636 0.0
C139 C 0.72111 0.17161 0.18633 0.0
C140 C 0.75733 0.20851 0.18176 0.0
C141 C 0.76608 0.24817 0.18938 0.0
C142 C 0.73565 0.24818 0.20159 0.0
C143 C 0.4797 0.98593 0.18442 0.0
H144 H 0.66841 0.15917 0.30571 0.0
H145 H 0.66291 0.16212 0.26924 0.0
H146 H 0.61067 1.03127 0.26121 0.0
H147 H 0.6146 1.02845 0.29754 0.0
H148 H 0.68629 0.15598 0.23749 0.0
H149 H 0.57432 0.04072 0.23623 0.0
H150 H 0.61828 0.09792 0.18071 0.0
H151 H 0.52008 0.05184 0.18567 0.0
H152 H 0.57139 0.9832 0.20901 0.0
H153 H 0.50671 0.92002 0.20166 0.0
H154 H 0.67918 0.21401 0.21653 0.0
H155 H 0.7173 0.14257 0.18057 0.0
H156 H 0.45467 0.98808 0.17775 0.0
H157 H 0.73997 0.27685 0.20825 0.0
H158 H 0.77876 0.20568 0.17221 0.0
C159 C 0.62608 0.59893 0.62631 0.0
C160 C 0.65342 0.59144 0.63738 0.0
C161 C 0.62509 0.59719 0.60511 0.0
C162 C 0.651 0.58734 0.59424 0.0
C163 C 0.67843 0.58 0.6053 0.0
C164 C 0.67982 0.58229 0.62651 0.0
C165 C 0.64892 0.58399 0.5715 0.0
C166 C 0.64678 0.61377 0.5607 0.0
C167 C 0.64499 0.61213 0.53942 0.0
C168 C 0.6449 0.5772 0.52878 0.0
C169 C 0.64574 0.54512 0.53957 0.0
C170 C 0.64837 0.55051 0.56084 0.0
C171 C 0.64218 0.50428 0.53052 0.0
C172 C 0.61322 0.46647 0.53784 0.0
C173 C 0.6712 0.50203 0.51807 0.0
C174 C 0.67149 0.46451 0.51363 0.0
C175 C 0.6428 0.42672 0.52137 0.0
C176 C 0.64192 0.64749 0.53009 0.0
C177 C 0.60986 0.65511 0.53509 0.0
C178 C 0.67426 0.67912 0.52023 0.0
C179 C 0.67459 0.71603 0.51594 0.0
C180 C 0.64257 0.72384 0.5212 0.0
C181 C 0.60994 0.6916 0.53066 0.0
C182 C 0.6134 0.42927 0.53343 0.0
H183 H 0.60549 0.6064 0.63406 0.0
H184 H 0.60337 0.60279 0.59719 0.0
H185 H 0.69908 0.57262 0.59752 0.0
H186 H 0.70106 0.576 0.63439 0.0
H187 H 0.64724 0.63936 0.56912 0.0
H188 H 0.64932 0.52758 0.56942 0.0
H189 H 0.6428 0.57434 0.51248 0.0
H190 H 0.59055 0.4658 0.54777 0.0
H191 H 0.69494 0.52975 0.51232 0.0
H192 H 0.69485 0.46555 0.50415 0.0
H193 H 0.58472 0.63296 0.54321 0.0
H194 H 0.70045 0.67619 0.51653 0.0
H195 H 0.59073 0.40258 0.54029 0.0
H196 H 0.58458 0.69495 0.5355 0.0
H197 H 0.70057 0.73877 0.50854 0.0
C198 C 0.16888 0.59609 0.96131 0.0
C199 C 0.13286 0.57056 0.97097 0.0
C200 C 0.1698 0.59427 0.94014 0.0
C201 C 0.13457 0.56731 0.9279 0.0
C202 C 0.09855 0.5418 0.93754 0.0
C203 C 0.09779 0.54316 0.95872 0.0
C204 C 0.13525 0.56615 0.90522 0.0
C205 C 0.16751 0.56528 0.8953 0.0
C206 C 0.16964 0.56408 0.87406 0.0
C207 C 0.13666 0.5647 0.86263 0.0
C208 C 0.10283 0.56551 0.87251 0.0
C209 C 0.10359 0.56605 0.89371 0.0
C210 C 0.06569 0.56625 0.86242 0.0
C211 C 0.06349 0.60253 0.86333 0.0
C212 C 1.02804 0.52997 0.8569 0.0
C213 C 0.99074 0.53002 0.85254 0.0
C214 C 0.98828 0.56636 0.85374 0.0
C215 C 0.20666 0.5612 0.86555 0.0
C216 C 0.21742 0.53333 0.87307 0.0
C217 C 0.23555 0.58931 0.85284 0.0
C218 C 0.27305 0.58992 0.84842 0.0
C219 C 0.28405 0.56231 0.85632 0.0
C220 C 0.25442 0.53372 0.8686 0.0
C221 C 1.02634 0.60267 0.85898 0.0
H222 H 0.19661 0.61737 0.97014 0.0
H223 H 0.19804 0.61457 0.93334 0.0
H224 H 0.07087 0.52044 0.92868 0.0
H225 H 0.0694 0.52322 0.9655 0.0
H226 H 0.19148 0.56524 0.90442 0.0
H227 H 0.07913 0.56703 0.9015 0.0
H228 H 0.13701 0.564 0.84636 0.0
H229 H 0.09065 0.63124 0.86819 0.0
H230 H 1.02691 0.5009 0.85679 0.0
H231 H 0.96331 0.50084 0.84897 0.0
H232 H 0.19721 0.51119 0.88307 0.0
H233 H 0.23001 0.61207 0.84682 0.0
H234 H 1.02779 0.63188 0.86004 0.0
H235 H 0.26013 0.51187 0.87551 0.0
H236 H 0.29359 0.61256 0.83875 0.0
C237 C 1.00698 0.61848 0.352 0.0
C238 C 1.04441 0.62073 0.34792 0.0
C239 C 0.99723 0.62283 0.37182 0.0
C240 C 1.02465 0.62947 0.38802 0.0
C241 C 0.06143 0.63029 0.38398 0.0
C242 C 0.07123 0.62608 0.36418 0.0
C243 C 1.01556 0.6365 0.40905 0.0
C244 C 0.97628 0.61244 0.41618 0.0
C245 C 0.96854 0.61771 0.43645 0.0
C246 C 1.00029 0.64833 0.4493 0.0
C247 C 1.03993 0.67106 0.44272 0.0
C248 C 1.04707 0.66586 0.42245 0.0
C249 C 0.07455 0.69528 0.4577 0.0
C250 C 0.07162 0.71918 0.47383 0.0
C251 C 0.1094 0.69122 0.45697 0.0
C252 C 0.14043 0.71024 0.47209 0.0
C253 C 0.13735 0.73364 0.48839 0.0
C254 C 0.92982 0.58753 0.44512 0.0
C255 C 0.89204 0.56894 0.434 0.0
C256 C 0.9313 0.57458 0.46433 0.0
C257 C 0.89666 0.54296 0.47187 0.0
C258 C 0.8595 0.52264 0.46032 0.0
C259 C 0.85719 0.53662 0.4415 0.0
C260 C 0.10279 0.73827 0.48903 0.0
H261 H 0.98527 0.61366 0.33984 0.0
H262 H 0.96866 0.622 0.37441 0.0
H263 H 0.08287 0.63446 0.39614 0.0
H264 H 0.10038 0.62816 0.36162 0.0
H265 H 0.95258 0.58797 0.40628 0.0
H266 H 0.07757 0.68425 0.41724 0.0
H267 H 0.99487 0.65243 0.46496 0.0
H268 H 1.04511 0.72287 0.47477 0.0
H269 H 0.11229 0.67241 0.44497 0.0
H270 H 0.1671 0.70687 0.47087 0.0
H271 H 0.88969 0.57846 0.41925 0.0
H272 H 0.95983 0.58699 0.47319 0.0
H273 H 0.09963 0.75623 0.50137 0.0
H274 H 0.82893 0.5215 0.43225 0.0
H275 H 0.90006 0.53239 0.48615 0.0
C276 C 0.51848 0.99178 0.68111 0.0
C277 C 0.53898 1.03238 0.67564 0.0
C278 C 0.49994 0.9822 0.69953 0.0
C279 C 0.50073 1.01281 0.71272 0.0
C280 C 0.5202 0.05315 0.70714 0.0
C281 C 0.53937 0.06289 0.68888 0.0
C282 C 0.4835 1.00337 0.7328 0.0
C283 C 0.49584 0.98327 0.74577 0.0
C284 C 0.48391 0.97882 0.76571 0.0
C285 C 0.4586 0.99358 0.77254 0.0
C286 C 0.44468 1.01253 0.75958 0.0
C287 C 0.45738 1.01723 0.73965 0.0
C288 C 0.41997 1.03037 0.76747 0.0
C289 C 0.39196 1.01195 0.7825 0.0
C290 C 0.4267 0.06787 0.76121 0.0
C291 C 0.40763 0.08737 0.77039 0.0
C292 C 0.38182 0.07024 0.78627 0.0
C293 C 0.50009 0.96112 0.77982 0.0
C294 C 0.49464 0.92212 0.77524 0.0
C295 C 0.52186 0.98361 0.79775 0.0
C296 C 0.53863 0.96762 0.81075 0.0
C297 C 0.53312 0.92857 0.80619 0.0
C298 C 0.51068 0.90579 0.78843 0.0
C299 C 0.37346 1.03194 0.79198 0.0
H300 H 0.51654 0.96721 0.67115 0.0
H301 H 0.48488 0.95082 0.70346 0.0
H302 H 0.52173 0.07742 0.71722 0.0
H303 H 0.55531 0.09455 0.68543 0.0
H304 H 0.5166 0.97314 0.74071 0.0
H305 H 0.44731 1.03197 0.72941 0.0
H306 H 0.45072 0.99114 0.78817 0.0
H307 H 0.38524 0.98263 0.78739 0.0
H308 H 0.44851 0.0835 0.75 0.0
H309 H 0.41531 0.11729 0.76594 0.0
H310 H 0.47793 0.90432 0.76148 0.0
H311 H 0.52662 1.0139 0.80148 0.0
H312 H 0.35362 1.01809 0.80417 0.0
H313 H 0.50646 0.87576 0.78452 0.0
H314 H 0.55588 0.98569 0.82435 0.0
C315 C 0.55765 0.41781 0.01082 0.0
C316 C 0.54719 0.44642 0.00471 0.0
C317 C 0.54556 0.40042 0.02917 0.0
C318 C 0.52298 0.41141 0.04198 0.0
C319 C 0.51271 0.44022 0.03595 0.0
C320 C 0.52459 0.45744 0.01751 0.0
C321 C 0.51197 0.39437 0.06197 0.0
C322 C 0.54111 0.3916 0.07414 0.0
C323 C 0.53292 0.37975 0.09392 0.0
C324 C 0.49431 0.36851 0.101 0.0
C325 C 0.46635 0.37458 0.08985 0.0
C326 C 0.47451 0.38564 0.06997 0.0
C327 C 0.43661 0.38145 0.10115 0.0
C328 C 0.41661 0.35768 0.11719 0.0
C329 C 0.437 0.41836 0.09946 0.0
C330 C 0.42246 0.43356 0.11473 0.0
C331 C 0.40717 0.41219 0.13196 0.0
C332 C 0.56686 0.38774 0.10849 0.0
C333 C 0.59972 0.38292 0.1025 0.0
C334 C 0.56888 0.40522 0.12807 0.0
C335 C 0.60359 0.41962 0.1408 0.0
C336 C 0.63768 0.41794 0.13418 0.0
C337 C 0.63491 0.39802 0.11521 0.0
C338 C 0.40213 0.37303 0.13255 0.0
H339 H 0.57563 0.40908 1.00152 0.0
H340 H 0.55393 0.37832 0.03333 0.0
H341 H 0.4961 0.4501 0.04563 0.0
H342 H 0.51571 0.47909 0.01322 0.0
H343 H 0.57142 0.40214 0.06879 0.0
H344 H 0.4527 0.38989 0.06124 0.0
H345 H 0.48819 0.36007 0.11636 0.0
H346 H 0.4154 0.32886 0.11874 0.0
H347 H 0.45222 0.43762 0.0874 0.0
H348 H 0.42539 0.46325 0.11358 0.0
H349 H 0.599 0.36917 0.08765 0.0
H350 H 0.54482 0.41042 0.13327 0.0
H351 H 0.3898 0.35562 0.14553 0.0
H352 H 0.66081 0.39637 0.10966 0.0
H353 H 0.60455 0.43418 0.15546 0.0
H354 H 0.34705 0.57316 0.18485 0.0
H355 H 0.4558 0.49008 0.14847 0.0
H356 H 0.28225 0.46803 0.21928 0.0
H357 H 0.34195 0.37971 0.15625 0.0
H358 H 0.4391 0.52585 0.17496 0.0
H359 H 0.39455 0.55081 0.17606 0.0
C360 C 0.3437 0.54629 0.19138 0.0
C361 C 0.30931 0.52147 0.2021 0.0
C362 C 0.41787 0.49379 0.17092 0.0
C363 C 0.36352 0.495 0.19157 0.0
C364 C 0.42723 0.4734 0.15577 0.0
C365 C 0.39937 0.4323 0.14964 0.0
C366 C 0.38016 0.47301 0.17983 0.0
C367 C 0.36381 0.41162 0.16023 0.0
C368 C 0.37105 0.53331 0.18622 0.0
C369 C 0.30717 0.48706 0.21012 0.0
N370 N 0.35484 0.43244 0.1746 0.0
N371 N 0.33284 0.47382 0.20397 0.0
H372 H 0.79912 0.32827 0.53059 0.0
H373 H 0.81427 0.45165 0.43662 0.0
H374 H 0.78454 0.28209 0.46838 0.0
H375 H 0.83136 0.50221 0.49819 0.0
H376 H 0.78283 0.38363 0.44848 0.0
H377 H 0.79447 0.3865 0.51967 0.0
C378 C 0.79488 0.3304 0.51467 0.0
C379 C 0.79376 0.30124 0.5003 0.0
C380 C 0.79259 0.40948 0.45942 0.0
C381 C 0.78767 0.36698 0.48775 0.0
C382 C 0.81008 0.44844 0.45261 0.0
C383 C 0.82688 0.4828 0.4665 0.0
C384 C 0.79258 0.40504 0.48024 0.0
C385 C 0.82019 0.47652 0.48702 0.0
C386 C 0.79198 0.36342 0.50844 0.0
C387 C 0.78729 0.30483 0.4799 0.0
N388 N 0.8047 0.43843 0.49336 0.0
N389 N 0.78492 0.33729 0.47423 0.0
H390 H 0.58455 0.76842 0.87123 0.0
H391 H 0.6131 0.96493 0.81953 0.0
H392 H 0.6936 0.85049 0.84177 0.0
H393 H 0.49658 0.85485 0.82245 0.0
H394 H 0.6458 0.93368 0.83789 0.0
H395 H 0.55546 0.81117 0.86359 0.0
C396 C 0.60266 0.79561 0.86341 0.0
C397 C 0.64129 0.80515 0.85671 0.0
C398 C 0.613 0.9167 0.83478 0.0
C399 C 0.60845 0.85459 0.84845 0.0
C400 C 0.59437 0.93448 0.8244 0.0
C401 C 0.55225 0.91214 0.81936 0.0
C402 C 0.58915 0.87662 0.84037 0.0
C403 C 0.52925 0.87277 0.82588 0.0
C404 C 0.58605 0.82003 0.85916 0.0
C405 C 0.66379 0.84167 0.84728 0.0
N406 N 0.54804 0.85613 0.83599 0.0
N407 N 0.64684 0.8648 0.84323 0.0
H408 H 0.88927 0.51915 0.1742 0.0
H409 H 0.66991 0.49404 0.15325 0.0
H410 H 0.86689 0.61971 0.17199 0.0
H411 H 0.69639 0.39688 0.14114 0.0
H412 H 0.73846 0.53693 0.16859 0.0
H413 H 0.81568 0.47151 0.17055 0.0
C414 C 0.86878 0.53124 0.17343 0.0
C415 C 0.88408 0.57342 0.17324 0.0
C416 C 0.72914 0.50606 0.16283 0.0
C417 C 0.80013 0.51911 0.16877 0.0
C418 C 0.68983 0.48133 0.15421 0.0
C419 C 0.67742 0.44178 0.1458 0.0
C420 C 0.75644 0.49133 0.16296 0.0
C421 C 0.70493 0.42738 0.14717 0.0
C422 C 0.82685 0.50401 0.17119 0.0
C423 C 0.85627 0.58739 0.17193 0.0
N424 N 0.74339 0.45233 0.15542 0.0
N425 N 0.81557 0.56024 0.16956 0.0
H426 H 0.35749 0.93052 0.53849 0.0
H427 H 0.18269 0.70462 0.50601 0.0
H428 H 0.37765 0.83028 0.52289 0.0
H429 H 0.17016 0.8115 0.50594 0.0
H430 H 0.24842 0.7454 0.52494 0.0
H431 H 0.28467 0.88207 0.54009 0.0
C432 C 0.34684 0.8982 0.53608 0.0
C433 C 0.37346 0.8844 0.53004 0.0
C434 C 0.23079 0.75965 0.52117 0.0
C435 C 0.29013 0.82904 0.5314 0.0
C436 C 0.19344 0.73651 0.51027 0.0
C437 C 0.17161 0.75506 0.50381 0.0
C438 C 0.24635 0.80158 0.52559 0.0
C439 C 0.18619 0.79605 0.51036 0.0
C440 C 0.30517 0.87058 0.53684 0.0
C441 C 0.35789 0.84219 0.52705 0.0
N442 N 0.2231 0.81817 0.52056 0.0
N443 N 0.31703 0.81598 0.52735 0.0
H444 H 0.40162 0.29339 0.8098 0.0
H445 H 0.38958 0.08567 0.82715 0.0
H446 H 0.46286 0.27314 0.85922 0.0
H447 H 0.34712 0.11353 0.77313 0.0
H448 H 0.39066 0.14395 0.84544 0.0
H449 H 0.35653 0.21989 0.80378 0.0
C450 C 0.40469 0.27361 0.81988 0.0
C451 C 0.43701 0.28936 0.83461 0.0
C452 C 0.37985 0.13658 0.82974 0.0
C453 C 0.38621 0.20512 0.82738 0.0
C454 C 0.37896 0.10312 0.81932 0.0
C455 C 0.36929 0.09556 0.79849 0.0
C456 C 0.37129 0.16261 0.81917 0.0
C457 C 0.35578 0.11909 0.78909 0.0
C458 C 0.37906 0.23152 0.81632 0.0
C459 C 0.43925 0.26214 0.84723 0.0
N460 N 0.35806 0.15216 0.79939 0.0
N461 N 0.41494 0.22124 0.84299 0.0
H462 H 0.57614 0.91646 0.49917 0.0
H463 H 0.7092 0.8039 0.51724 0.0
H464 H 0.70747 0.98272 0.50645 0.0
H465 H 0.57761 0.74044 0.51631 0.0
H466 H 0.70931 0.8676 0.51195 0.0
H467 H 0.57633 0.85263 0.50402 0.0
C468 C 0.60525 0.91804 0.50168 0.0
C469 C 0.64186 0.95652 0.50224 0.0
C470 C 0.68028 0.83982 0.51288 0.0
C471 C 0.64226 0.88084 0.50797 0.0
C472 C 0.68007 0.80264 0.51583 0.0
C473 C 0.64331 0.76486 0.5174 0.0
C474 C 0.64342 0.84079 0.51119 0.0
C475 C 0.60717 0.76761 0.51558 0.0
C476 C 0.60528 0.88098 0.50454 0.0
C477 C 0.67816 0.95478 0.50576 0.0
N478 N 0.60824 0.80397 0.51259 0.0
N479 N 0.67735 0.91839 0.50837 0.0
H480 H 0.73141 0.50709 0.81743 0.0
H481 H 0.96599 0.625 0.86654 0.0
H482 H 0.78604 0.62355 0.8517 0.0
H483 H 0.91292 0.5079 0.8327 0.0
H484 H 0.90178 0.62482 0.86086 0.0
H485 H 0.79609 0.50667 0.8224 0.0
C486 C 0.75674 0.53279 0.82596 0.0
C487 C 0.75185 0.56548 0.83401 0.0
C488 C 0.90395 0.59904 0.8546 0.0
C489 C 0.82841 0.5651 0.83998 0.0
C490 C 0.94145 0.59913 0.85775 0.0
C491 C 0.94698 0.56648 0.85016 0.0
C492 C 0.86994 0.56606 0.84363 0.0
C493 C 0.91174 0.534 0.83925 0.0
C494 C 0.79418 0.53246 0.82885 0.0
C495 C 0.78709 0.59745 0.84501 0.0
N496 N 0.87571 0.53474 0.83639 0.0
N497 N 0.82294 0.59638 0.84757 0.0
H498 H 0.27243 0.68346 0.1717 0.0
H499 H 0.39227 0.93308 0.18532 0.0
H500 H 0.20951 0.75149 0.17251 0.0
H501 H 0.45455 0.8642 0.1842 0.0
H502 H 0.32665 0.86858 0.18042 0.0
H503 H 0.33817 0.74834 0.17615 0.0
C504 C 0.27198 0.71179 0.17278 0.0
C505 C 0.23393 0.71059 0.17162 0.0
C506 C 0.35462 0.86741 0.18125 0.0
C507 C 0.31166 0.78748 0.17689 0.0
C508 C 0.39289 0.90488 0.18397 0.0
C509 C 0.43098 0.90601 0.18537 0.0
C510 C 0.35282 0.82918 0.17976 0.0
C511 C 0.42734 0.86666 0.18366 0.0
C512 C 0.31011 0.74935 0.17536 0.0
C513 C 0.23709 0.74962 0.17324 0.0
N514 N 0.38988 0.83087 0.181 0.0
N515 N 0.27446 0.78561 0.17574 0.0
H516 H 0.57903 0.16325 0.51207 0.0
H517 H 0.70644 0.41198 0.50887 0.0
H518 H 0.7037 0.22862 0.49497 0.0
H519 H 0.58061 0.34406 0.52455 0.0
H520 H 0.70633 0.34722 0.50357 0.0
H521 H 0.57966 0.22848 0.51659 0.0
C522 C 0.60675 0.19107 0.50921 0.0
C523 C 0.64143 0.18897 0.50312 0.0
C524 C 0.67871 0.34638 0.50823 0.0
C525 C 0.64238 0.26649 0.50849 0.0
C526 C 0.67852 0.38399 0.51121 0.0
C527 C 0.6435 0.38558 0.51745 0.0
C528 C 0.64363 0.30843 0.51137 0.0
C529 C 0.60903 0.34643 0.52019 0.0
C530 C 0.60707 0.22889 0.51186 0.0
C531 C 0.67606 0.22748 0.49982 0.0
N532 N 0.61011 0.31057 0.51721 0.0
N533 N 0.6756 0.26378 0.50251 0.0
H534 H 0.48338 0.49951 0.84239 0.0
H535 H 0.36097 0.62661 0.84531 0.0
H536 H 0.54193 0.62715 0.83235 0.0
H537 H 0.305 0.50018 0.85785 0.0
H538 H 0.42549 0.62724 0.83985 0.0
H539 H 0.41882 0.49925 0.84743 0.0
C540 C 0.48312 0.52768 0.84118 0.0
C541 C 0.51966 0.56341 0.83682 0.0
C542 C 0.39916 0.59924 0.8438 0.0
C543 C 0.44311 0.56326 0.84275 0.0
C544 C 0.36149 0.59868 0.84688 0.0
C545 C 0.32555 0.56329 0.85228 0.0
C546 C 0.40249 0.56408 0.8459 0.0
C547 C 0.33065 0.5288 0.85411 0.0
C548 C 0.44563 0.52747 0.84412 0.0
C549 C 0.51557 0.59855 0.83562 0.0
N550 N 0.36741 0.53015 0.85097 0.0
N551 N 0.47883 0.5975 0.83848 0.0
H552 H 0.95703 0.5071 0.16658 0.0
H553 H 0.84536 0.26227 0.18157 0.0
H554 H 1.02296 0.4428 0.17211 0.0
H555 H 0.78163 0.32935 0.18749 0.0
H556 H 0.90833 0.3262 0.17581 0.0
H557 H 0.89282 0.44317 0.17186 0.0
C558 C 0.95843 0.47977 0.16874 0.0
C559 C 0.99688 0.4817 0.16872 0.0
C560 C 0.88066 0.32717 0.17833 0.0
C561 C 0.9211 0.40604 0.17487 0.0
C562 C 0.84393 0.29002 0.18156 0.0
C563 C 0.80641 0.28868 0.1852 0.0
C564 C 0.88133 0.36482 0.17833 0.0
C565 C 0.80878 0.32738 0.18509 0.0
C566 C 0.92123 0.4428 0.17187 0.0
C567 C 0.99503 0.44407 0.17188 0.0
N568 N 0.8447 0.36289 0.18169 0.0
N569 N 0.95864 0.4087 0.17466 0.0
H570 H 0.10529 0.51976 0.09872 0.0
H571 H 0.16644 0.63906 0.99768 0.0
H572 H 0.14043 0.64652 0.09706 0.0
H573 H 0.0967 0.50769 0.99623 0.0
H574 H 0.16395 0.64265 0.03447 0.0
H575 H 0.10842 0.51498 0.06179 0.0
C576 C 0.11382 0.54663 0.09067 0.0
C577 C 0.12251 0.5836 0.10119 0.0
C578 C 0.14918 0.61299 0.02614 0.0
C579 C 0.12652 0.57838 0.05874 0.0
C580 C 0.15081 0.61089 0.00506 0.0
C581 C 0.13177 0.57299 0.99364 0.0
C582 C 0.12885 0.57693 0.03616 0.0
C583 C 0.11154 0.53763 0.00426 0.0
C584 C 0.11545 0.54382 0.06954 0.0
C585 C 0.13327 0.61729 0.08976 0.0
N586 N 0.11081 0.54044 0.02482 0.0
N587 N 0.13514 0.61392 0.06932 0.0
H588 H 0.57704 0.03987 0.4288 0.0
H589 H 0.70454 0.14253 0.33298 0.0
H590 H 0.7088 0.11083 0.43244 0.0
H591 H 0.58192 1.03912 0.32797 0.0
H592 H 0.70589 0.13719 0.36963 0.0
H593 H 0.57747 0.04474 0.39231 0.0
C594 C 0.60616 0.05648 0.42196 0.0
C595 C 0.64297 0.07486 0.43389 0.0
C596 C 0.67874 0.11563 0.36049 0.0
C597 C 0.64357 0.08106 0.39173 0.0
C598 C 0.67782 0.11881 0.33955 0.0
C599 C 0.64308 0.09118 0.3272 0.0
C600 C 0.64437 0.08506 0.36936 0.0
C601 C 0.60955 0.06088 0.33672 0.0
C602 C 0.60634 0.05917 0.40103 0.0
C603 C 0.67965 0.09591 0.42395 0.0
N604 N 0.61095 0.05885 0.3571 0.0
N605 N 0.67902 0.09871 0.40355 0.0
H606 H 0.58266 0.53735 0.76025 0.0
H607 H 0.71957 0.62363 0.66513 0.0
H608 H 0.71047 0.62919 0.76761 0.0
H609 H 0.58777 0.56068 0.66165 0.0
H610 H 0.71857 0.62293 0.70207 0.0
H611 H 0.58565 0.54255 0.72394 0.0
C612 C 0.61151 0.55874 0.75427 0.0
C613 C 0.64641 0.58284 0.76722 0.0
C614 C 0.6899 0.60945 0.69321 0.0
C615 C 0.65008 0.58867 0.72504 0.0
C616 C 0.69039 0.60959 0.67207 0.0
C617 C 0.65367 0.59219 0.66006 0.0
C618 C 0.65238 0.59119 0.70257 0.0
C619 C 0.61691 0.57486 0.67011 0.0
C620 C 0.61311 0.56174 0.73341 0.0
C621 C 0.68273 0.61008 0.75832 0.0
N622 N 0.61724 0.57456 0.69061 0.0
N623 N 0.68371 0.61201 0.73782 0.0
H624 H 0.61667 1.00625 0.55866 0.0
H625 H 0.54727 0.0911 0.65048 0.0
H626 H 0.64733 0.13226 0.56403 0.0
H627 H 0.5793 0.99768 0.65648 0.0
H628 H 0.57993 0.10554 0.61827 0.0
H629 H 0.59895 1.00063 0.59392 0.0
C630 C 0.62023 1.03291 0.56743 0.0
C631 C 0.63352 0.06978 0.55857 0.0
C632 C 0.58007 0.08217 0.6268 0.0
C633 C 0.61224 0.06329 0.59866 0.0
C634 C 0.56149 0.07388 0.64524 0.0
C635 C 0.56001 0.04274 0.65629 0.0
C636 C 0.59666 0.05872 0.61914 0.0
C637 C 0.57852 1.02115 0.64837 0.0
C638 C 0.61016 1.02971 0.58752 0.0
C639 C 0.6375 0.10343 0.57047 0.0
N640 N 0.59558 1.0292 0.6302 0.0
N641 N 0.62614 0.09921 0.58989 0.0
H642 H 0.61259 0.59375 0.90063 0.0
H643 H 0.54833 0.4075 0.96909 0.0
H644 H 0.6243 0.48815 0.88496 0.0
H645 H 0.57316 0.52524 0.99496 0.0
H646 H 0.57027 0.43643 0.93698 0.0
H647 H 0.59388 0.56984 0.93462 0.0
C648 C 0.61162 0.5659 0.90435 0.0
C649 C 0.61957 0.54272 0.88983 0.0
C650 C 0.57114 0.45611 0.94968 0.0
C651 C 0.59788 0.5152 0.92827 0.0
C652 C 0.55875 0.43959 0.9681 0.0
C653 C 0.55937 0.46402 0.9849 0.0
C654 C 0.58402 0.49742 0.94782 0.0
C655 C 0.57197 0.50518 0.98239 0.0
C656 C 0.60087 0.55226 0.92367 0.0
C657 C 0.61789 0.50686 0.89546 0.0
N658 N 0.58385 0.52067 0.96417 0.0
N659 N 0.60698 0.49417 0.91408 0.0
H660 H 0.14234 0.58331 0.23582 0.0
H661 H 1.03161 0.6559 0.31605 0.0
H662 H 0.06752 0.63526 0.22096 0.0
H663 H 0.08481 0.58306 0.33165 0.0
H664 H 1.05088 0.65376 0.28154 0.0
H665 H 0.12857 0.5887 0.2716 0.0
C666 C 0.12337 0.59611 0.24009 0.0
C667 C 0.10579 0.60854 0.2254 0.0
C668 C 1.05834 0.63814 0.29247 0.0
C669 C 0.09004 0.61481 0.266 0.0
C670 C 1.04702 0.63909 0.31219 0.0
C671 C 1.05614 0.61925 0.32679 0.0
C672 C 0.07915 0.6173 0.28715 0.0
C673 C 0.07731 0.59898 0.32093 0.0
C674 C 0.11536 0.59898 0.26044 0.0
C675 C 0.08135 0.62482 0.2317 0.0
N676 N 0.08804 0.59843 0.30154 0.0
N677 N 0.07422 0.62741 0.25145 0.0
loop_
_geom_bond_atom_site_label_1
_geom_bond_atom_site_label_2
_geom_bond_distance
_geom_bond_site_symmetry_2
_ccdc_geom_bond_type
Tb0 C9 2.764 1_455 S
Tb0 O10 2.325 1_455 S
Tb0 O13 2.303 . S
Tb0 O17 2.322 . S
Tb0 O18 2.349 . S
Tb0 O21 2.415 1_455 S
Tb0 O22 2.399 1_455 S
Tb1 O11 2.322 . S
Tb1 O12 2.349 . S
Tb1 O14 2.415 . S
Tb1 O15 2.399 . S
Tb1 O16 2.325 . S
Tb1 O19 2.303 . S
Tb1 C30 2.764 . S
C2 O18 1.261 . S
C2 O19 1.257 . S
C3 C6 1.358 . S
C3 C7 1.332 . S
C3 C9 1.504 . S
C4 C5 1.373 . S
C4 C8 1.308 . S
C5 C4 1.373 . S
C5 C6 1.429 . S
C5 H32 0.932 . S
C6 C3 1.358 . S
C6 C5 1.429 . S
C6 H33 0.930 . S
C7 C3 1.332 . S
C7 C8 1.394 . S
C7 H34 0.932 . S
C8 C4 1.308 . S
C8 C7 1.394 . S
C8 H35 0.929 . S
C9 Tb0 2.764 1_655 S
C9 C3 1.504 . S
C9 O21 1.239 . S
C9 O22 1.263 . S
O10 Tb0 2.325 1_655 S
O10 C20 1.236 . S
O11 Tb1 2.322 . S
O11 C20 1.257 1_455 S
O12 Tb1 2.349 . S
O12 C23 1.261 . S
O13 Tb0 2.303 . S
O13 C23 1.257 . S
O14 Tb1 2.415 . S
O14 C30 1.239 . S
O15 Tb1 2.399 . S
O15 C30 1.263 . S
O16 Tb1 2.325 . S
O16 C31 1.236 . S
O17 Tb0 2.322 . S
O17 C31 1.257 . S
O18 Tb0 2.349 . S
O18 C2 1.261 . S
O19 Tb1 2.303 . S
O19 C2 1.257 . S
C20 O10 1.236 . S
C20 O11 1.257 1_655 S
O21 Tb0 2.415 1_655 S
O21 C9 1.239 . S
O22 Tb0 2.399 1_655 S
O22 C9 1.263 . S
C23 O12 1.261 . S
C23 O13 1.257 . S
C24 C27 1.358 . S
C24 C28 1.332 . S
C24 C30 1.504 . S
C25 C26 1.373 . S
C25 C29 1.308 . S
C26 C25 1.373 . S
C26 C27 1.429 . S
C26 H36 0.932 . S
C27 C24 1.358 . S
C27 C26 1.429 . S
C27 H37 0.930 . S
C28 C24 1.332 . S
C28 C29 1.394 . S
C28 H38 0.932 . S
C29 C25 1.308 . S
C29 C28 1.394 . S
C29 H39 0.929 . S
C30 Tb1 2.764 . S
C30 O14 1.239 . S
C30 O15 1.263 . S
C30 C24 1.504 . S
C31 O16 1.236 . S
C31 O17 1.257 . S
H32 C5 0.932 . S
H33 C6 0.930 . S
H34 C7 0.932 . S
H35 C8 0.929 . S
H36 C26 0.932 . S
H37 C27 0.930 . S
H38 C28 0.932 . S
H39 C29 0.929 . S
Tb40 C49 2.764 . S
Tb40 O50 2.325 . S
Tb40 O53 2.303 1_565 S
Tb40 O57 2.322 1_565 S
Tb40 O58 2.349 1_565 S
Tb40 O61 2.415 . S
Tb40 O62 2.399 . S
Tb41 O51 2.322 1_545 S
Tb41 O52 2.349 . S
Tb41 O54 2.415 . S
Tb41 O55 2.399 . S
Tb41 O56 2.325 . S
Tb41 O59 2.303 . S
Tb41 C70 2.764 . S
C42 O58 1.261 . S
C42 O59 1.257 . S
C43 C46 1.358 . S
C43 C47 1.332 . S
C43 C49 1.504 . S
C44 C45 1.373 . S
C44 C48 1.308 . S
C45 C44 1.373 . S
C45 C46 1.429 . S
C45 H72 0.932 . S
C46 C43 1.358 . S
C46 C45 1.429 . S
C46 H73 0.930 . S
C47 C43 1.332 . S
C47 C48 1.394 . S
C47 H74 0.932 . S
C48 C44 1.308 . S
C48 C47 1.394 . S
C48 H75 0.929 . S
C49 Tb40 2.764 . S
C49 C43 1.504 . S
C49 O61 1.239 . S
C49 O62 1.263 . S
O50 Tb40 2.325 . S
O50 C60 1.236 . S
O51 Tb41 2.322 1_565 S
O51 C60 1.257 . S
O52 Tb41 2.349 . S
O52 C63 1.261 . S
O53 Tb40 2.303 1_545 S
O53 C63 1.257 . S
O54 Tb41 2.415 . S
O54 C70 1.239 . S
O55 Tb41 2.399 . S
O55 C70 1.263 . S
O56 Tb41 2.325 . S
O56 C71 1.236 . S
O57 Tb40 2.322 1_545 S
O57 C71 1.257 . S
O58 Tb40 2.349 1_545 S
O58 C42 1.261 . S
O59 Tb41 2.303 . S
O59 C42 1.257 . S
C60 O50 1.236 . S
C60 O51 1.257 . S
O61 Tb40 2.415 . S
O61 C49 1.239 . S
O62 Tb40 2.399 . S
O62 C49 1.263 . S
C63 O52 1.261 . S
C63 O53 1.257 . S
C64 C67 1.358 . S
C64 C68 1.332 . S
C64 C70 1.504 . S
C65 C66 1.373 . S
C65 C69 1.308 . S
C66 C65 1.373 . S
C66 C67 1.429 . S
C66 H76 0.932 . S
C67 C64 1.358 . S
C67 C66 1.429 . S
C67 H77 0.930 . S
C68 C64 1.332 . S
C68 C69 1.394 . S
C68 H78 0.932 . S
C69 C65 1.308 . S
C69 C68 1.394 . S
C69 H79 0.929 . S
C70 Tb41 2.764 . S
C70 O54 1.239 . S
C70 O55 1.263 . S
C70 C64 1.504 . S
C71 O56 1.236 . S
C71 O57 1.257 . S
H72 C45 0.932 . S
H73 C46 0.930 . S
H74 C47 0.932 . S
H75 C48 0.929 . S
H76 C66 0.932 . S
H77 C67 0.930 . S
H78 C68 0.932 . S
H79 C69 0.929 . S
Tb80 C89 2.764 . S
Tb80 O90 2.325 . S
Tb80 O93 2.303 . S
Tb80 O97 2.322 . S
Tb80 O98 2.349 . S
Tb80 O101 2.415 . S
Tb80 O102 2.399 . S
Tb81 O91 2.322 . S
Tb81 O92 2.349 . S
Tb81 O94 2.415 . S
Tb81 O95 2.399 . S
Tb81 O96 2.325 . S
Tb81 O99 2.303 . S
Tb81 C110 2.764 . S
C82 O98 1.261 . S
C82 O99 1.257 . S
C83 C86 1.358 . S
C83 C87 1.332 . S
C83 C89 1.504 . S
C84 C85 1.373 . S
C84 C88 1.308 . S
C85 C84 1.373 . S
C85 C86 1.429 . S
C85 H112 0.932 . S
C86 C83 1.358 . S
C86 C85 1.429 . S
C86 H113 0.930 . S
C87 C83 1.332 . S
C87 C88 1.394 . S
C87 H114 0.932 . S
C88 C84 1.308 . S
C88 C87 1.394 . S
C88 H115 0.929 . S
C89 Tb80 2.764 . S
C89 C83 1.504 . S
C89 O101 1.239 . S
C89 O102 1.263 . S
O90 Tb80 2.325 . S
O90 C100 1.236 . S
O91 Tb81 2.322 . S
O91 C100 1.257 . S
O92 Tb81 2.349 . S
O92 C103 1.261 . S
O93 Tb80 2.303 . S
O93 C103 1.257 . S
O94 Tb81 2.415 . S
O94 C110 1.239 . S
O95 Tb81 2.399 . S
O95 C110 1.263 . S
O96 Tb81 2.325 . S
O96 C111 1.236 . S
O97 Tb80 2.322 . S
O97 C111 1.257 . S
O98 Tb80 2.349 . S
O98 C82 1.261 . S
O99 Tb81 2.303 . S
O99 C82 1.257 . S
C100 O90 1.236 . S
C100 O91 1.257 . S
O101 Tb80 2.415 . S
O101 C89 1.239 . S
O102 Tb80 2.399 . S
O102 C89 1.263 . S
C103 O92 1.261 . S
C103 O93 1.257 . S
C104 C107 1.358 . S
C104 C108 1.332 . S
C104 C110 1.504 . S
C105 C106 1.373 . S
C105 C109 1.308 . S
C106 C105 1.373 . S
C106 C107 1.429 . S
C106 H116 0.932 . S
C107 C104 1.358 . S
C107 C106 1.429 . S
C107 H117 0.930 . S
C108 C104 1.332 . S
C108 C109 1.394 . S
C108 H118 0.932 . S
C109 C105 1.308 . S
C109 C108 1.394 . S
C109 H119 0.929 . S
C110 Tb81 2.764 . S
C110 O94 1.239 . S
C110 O95 1.263 . S
C110 C104 1.504 . S
C111 O96 1.236 . S
C111 O97 1.257 . S
H112 C85 0.932 . S
H113 C86 0.930 . S
H114 C87 0.932 . S
H115 C88 0.929 . S
H116 C106 0.932 . S
H117 C107 0.930 . S
H118 C108 0.932 . S
H119 C109 0.929 . S
C120 C121 1.386 . S
C120 C122 1.397 . S
C120 H144 0.931 . S
C121 C120 1.386 . S
C121 C125 1.397 . S
C122 C120 1.397 . S
C122 C123 1.384 . S
C122 H145 0.930 . S
C123 C122 1.384 . S
C123 C124 1.377 . S
C123 C126 1.481 . S
C124 C123 1.377 . S
C124 C125 1.389 . S
C124 H146 0.929 1_545 S
C125 C121 1.397 . S
C125 C124 1.389 . S
C125 H147 0.931 1_545 S
C126 C123 1.481 . S
C126 C127 1.387 . S
C126 C131 1.393 . S
C127 C126 1.387 . S
C127 C128 1.401 . S
C127 H148 0.930 . S
C128 C127 1.401 . S
C128 C129 1.376 . S
C128 C137 1.511 . S
C129 C128 1.376 . S
C129 C130 1.392 1_545 S
C129 H150 0.931 . S
C130 C129 1.392 1_565 S
C130 C131 1.361 1_565 S
C130 C132 1.500 . S
C131 C126 1.393 . S
C131 C130 1.361 1_545 S
C131 H149 0.929 1_545 S
C132 C130 1.500 . S
C132 C133 1.371 . S
C132 C134 1.365 . S
C133 C132 1.371 . S
C133 C143 1.386 . S
C133 H151 0.931 . S
C134 C132 1.365 . S
C134 C135 1.409 . S
C134 H152 0.929 . S
C135 C134 1.409 . S
C135 C136 1.380 . S
C135 H153 0.930 . S
C136 C135 1.380 . S
C136 C143 1.357 . S
C137 C128 1.511 . S
C137 C138 1.341 . S
C137 C139 1.371 . S
C138 C137 1.341 . S
C138 C142 1.394 . S
C138 H154 0.930 . S
C139 C137 1.371 . S
C139 C140 1.392 . S
C139 H155 0.931 . S
C140 C139 1.392 . S
C140 C141 1.331 . S
C140 H158 0.932 . S
C141 C140 1.331 . S
C141 C142 1.336 . S
C142 C138 1.394 . S
C142 C141 1.336 . S
C142 H157 0.929 . S
C143 C133 1.386 . S
C143 C136 1.357 . S
C143 H156 0.928 . S
H144 C120 0.931 . S
H145 C122 0.930 . S
H146 C124 0.929 1_565 S
H147 C125 0.931 1_565 S
H148 C127 0.930 . S
H149 C131 0.929 1_565 S
H150 C129 0.931 . S
H151 C133 0.931 . S
H152 C134 0.929 . S
H153 C135 0.930 . S
H154 C138 0.930 . S
H155 C139 0.931 . S
H156 C143 0.928 . S
H157 C142 0.929 . S
H158 C140 0.932 . S
C159 C160 1.386 . S
C159 C161 1.397 . S
C159 H183 0.931 . S
C160 C159 1.386 . S
C160 C164 1.397 . S
C161 C159 1.397 . S
C161 C162 1.384 . S
C161 H184 0.930 . S
C162 C161 1.384 . S
C162 C163 1.377 . S
C162 C165 1.481 . S
C163 C162 1.377 . S
C163 C164 1.389 . S
C163 H185 0.929 . S
C164 C160 1.397 . S
C164 C163 1.389 . S
C164 H186 0.931 . S
C165 C162 1.481 . S
C165 C166 1.387 . S
C165 C170 1.390 . S
C166 C165 1.387 . S
C166 C167 1.401 . S
C166 H187 0.930 . S
C167 C166 1.401 . S
C167 C168 1.376 . S
C167 C176 1.511 . S
C168 C167 1.376 . S
C168 C169 1.392 . S
C168 H189 0.931 . S
C169 C168 1.392 . S
C169 C170 1.361 . S
C169 C171 1.500 . S
C170 C165 1.390 . S
C170 C169 1.361 . S
C170 H188 0.931 . S
C171 C169 1.500 . S
C171 C172 1.371 . S
C171 C173 1.365 . S
C172 C171 1.371 . S
C172 C182 1.386 . S
C172 H190 0.931 . S
C173 C171 1.365 . S
C173 C174 1.409 . S
C173 H191 0.929 . S
C174 C173 1.409 . S
C174 C175 1.380 . S
C174 H192 0.930 . S
C175 C174 1.380 . S
C175 C182 1.357 . S
C176 C167 1.511 . S
C176 C177 1.341 . S
C176 C178 1.371 . S
C177 C176 1.341 . S
C177 C181 1.394 . S
C177 H193 0.930 . S
C178 C176 1.371 . S
C178 C179 1.392 . S
C178 H194 0.931 . S
C179 C178 1.392 . S
C179 C180 1.331 . S
C179 H197 0.932 . S
C180 C179 1.331 . S
C180 C181 1.336 . S
C181 C177 1.394 . S
C181 C180 1.336 . S
C181 H196 0.929 . S
C182 C172 1.386 . S
C182 C175 1.357 . S
C182 H195 0.928 . S
H183 C159 0.931 . S
H184 C161 0.930 . S
H185 C163 0.929 . S
H186 C164 0.931 . S
H187 C166 0.930 . S
H188 C170 0.931 . S
H189 C168 0.931 . S
H190 C172 0.931 . S
H191 C173 0.929 . S
H192 C174 0.930 . S
H193 C177 0.930 . S
H194 C178 0.931 . S
H195 C182 0.928 . S
H196 C181 0.929 . S
H197 C179 0.932 . S
C198 C199 1.386 . S
C198 C200 1.397 . S
C198 H222 0.931 . S
C199 C198 1.386 . S
C199 C203 1.397 . S
C200 C198 1.397 . S
C200 C201 1.384 . S
C200 H223 0.930 . S
C201 C200 1.384 . S
C201 C202 1.377 . S
C201 C204 1.481 . S
C202 C201 1.377 . S
C202 C203 1.389 . S
C202 H224 0.929 . S
C203 C199 1.397 . S
C203 C202 1.389 . S
C203 H225 0.931 . S
C204 C201 1.481 . S
C204 C205 1.387 . S
C204 C209 1.390 . S
C205 C204 1.387 . S
C205 C206 1.401 . S
C205 H226 0.930 . S
C206 C205 1.401 . S
C206 C207 1.376 . S
C206 C215 1.511 . S
C207 C206 1.376 . S
C207 C208 1.392 . S
C207 H228 0.931 . S
C208 C207 1.392 . S
C208 C209 1.361 . S
C208 C210 1.500 1_455 S
C209 C204 1.390 . S
C209 C208 1.361 . S
C209 H227 0.931 . S
C210 C208 1.500 1_655 S
C210 C211 1.371 1_655 S
C210 C212 1.365 . S
C211 C210 1.371 1_455 S
C211 C221 1.386 1_455 S
C211 H229 0.931 . S
C212 C210 1.365 . S
C212 C213 1.409 . S
C212 H230 0.929 . S
C213 C212 1.409 . S
C213 C214 1.380 . S
C213 H231 0.930 . S
C214 C213 1.380 . S
C214 C221 1.357 . S
C215 C206 1.511 . S
C215 C216 1.341 . S
C215 C217 1.371 . S
C216 C215 1.341 . S
C216 C220 1.394 . S
C216 H232 0.930 . S
C217 C215 1.371 . S
C217 C218 1.392 . S
C217 H233 0.931 . S
C218 C217 1.392 . S
C218 C219 1.331 . S
C218 H236 0.932 . S
C219 C218 1.331 . S
C219 C220 1.336 . S
C220 C216 1.394 . S
C220 C219 1.336 . S
C220 H235 0.929 . S
C221 C211 1.386 1_655 S
C221 C214 1.357 . S
C221 H234 0.928 . S
H222 C198 0.931 . S
H223 C200 0.930 . S
H224 C202 0.929 . S
H225 C203 0.931 . S
H226 C205 0.930 . S
H227 C209 0.931 . S
H228 C207 0.931 . S
H229 C211 0.931 . S
H230 C212 0.929 . S
H231 C213 0.930 . S
H232 C216 0.930 . S
H233 C217 0.931 . S
H234 C221 0.928 . S
H235 C220 0.929 . S
H236 C218 0.932 . S
C237 C238 1.386 . S
C237 C239 1.397 . S
C237 H261 0.931 . S
C238 C237 1.386 . S
C238 C242 1.397 1_655 S
C239 C237 1.397 . S
C239 C240 1.384 . S
C239 H262 0.930 . S
C240 C239 1.384 . S
C240 C241 1.377 1_655 S
C240 C243 1.481 . S
C241 C240 1.377 1_455 S
C241 C242 1.389 . S
C241 H263 0.929 . S
C242 C238 1.397 1_455 S
C242 C241 1.389 . S
C242 H264 0.931 . S
C243 C240 1.481 . S
C243 C244 1.387 . S
C243 C248 1.390 1_655 S
C244 C243 1.387 . S
C244 C245 1.401 . S
C244 H265 0.930 . S
C245 C244 1.401 . S
C245 C246 1.376 . S
C245 C254 1.511 . S
C246 C245 1.376 . S
C246 C247 1.393 1_655 S
C246 H267 0.931 1_655 S
C247 C246 1.393 1_455 S
C247 C248 1.361 . S
C247 C249 1.500 . S
C248 C243 1.390 1_455 S
C248 C247 1.361 . S
C248 H266 0.931 . S
C249 C247 1.500 . S
C249 C250 1.371 . S
C249 C251 1.365 . S
C250 C249 1.371 . S
C250 C260 1.386 . S
C250 H268 0.931 . S
C251 C249 1.365 . S
C251 C252 1.409 . S
C251 H269 0.929 . S
C252 C251 1.409 . S
C252 C253 1.380 . S
C252 H270 0.930 . S
C253 C252 1.380 . S
C253 C260 1.357 . S
C254 C245 1.511 . S
C254 C255 1.341 . S
C254 C256 1.371 . S
C255 C254 1.341 . S
C255 C259 1.394 . S
C255 H271 0.930 . S
C256 C254 1.371 . S
C256 C257 1.392 . S
C256 H272 0.931 . S
C257 C256 1.392 . S
C257 C258 1.331 . S
C257 H275 0.932 . S
C258 C257 1.331 . S
C258 C259 1.336 . S
C259 C255 1.394 . S
C259 C258 1.336 . S
C259 H274 0.929 . S
C260 C250 1.386 . S
C260 C253 1.357 . S
C260 H273 0.928 . S
H261 C237 0.931 . S
H262 C239 0.930 . S
H263 C241 0.929 . S
H264 C242 0.931 . S
H265 C244 0.930 . S
H266 C248 0.931 . S
H267 C246 0.931 1_455 S
H268 C250 0.931 . S
H269 C251 0.929 . S
H270 C252 0.930 . S
H271 C255 0.930 . S
H272 C256 0.931 . S
H273 C260 0.928 . S
H274 C259 0.929 . S
H275 C257 0.932 . S
C276 C277 1.386 . S
C276 C278 1.397 . S
C276 H300 0.931 . S
C277 C276 1.386 . S
C277 C281 1.397 1_565 S
C278 C276 1.397 . S
C278 C279 1.384 . S
C278 H301 0.930 . S
C279 C278 1.384 . S
C279 C280 1.377 1_565 S
C279 C282 1.481 . S
C280 C279 1.377 1_545 S
C280 C281 1.389 . S
C280 H302 0.929 . S
C281 C277 1.397 1_545 S
C281 C280 1.389 . S
C281 H303 0.931 . S
C282 C279 1.481 . S
C282 C283 1.387 . S
C282 C287 1.390 1_565 S
C283 C282 1.387 . S
C283 C284 1.401 . S
C283 H304 0.930 . S
C284 C283 1.401 . S
C284 C285 1.376 1_565 S
C284 C293 1.511 . S
C285 C284 1.376 1_545 S
C285 C286 1.392 . S
C285 H306 0.931 . S
C286 C285 1.392 . S
C286 C287 1.361 . S
C286 C288 1.500 . S
C287 C282 1.390 1_545 S
C287 C286 1.361 . S
C287 H305 0.931 . S
C288 C286 1.500 . S
C288 C289 1.371 . S
C288 C290 1.365 . S
C289 C288 1.371 . S
C289 C299 1.386 . S
C289 H307 0.931 . S
C290 C288 1.365 . S
C290 C291 1.409 . S
C290 H308 0.929 . S
C291 C290 1.409 . S
C291 C292 1.380 . S
C291 H309 0.930 . S
C292 C291 1.380 . S
C292 C299 1.357 . S
C293 C284 1.511 . S
C293 C294 1.341 . S
C293 C295 1.371 . S
C294 C293 1.341 . S
C294 C298 1.394 . S
C294 H310 0.930 . S
C295 C293 1.371 . S
C295 C296 1.392 . S
C295 H311 0.931 . S
C296 C295 1.392 . S
C296 C297 1.331 . S
C296 H314 0.932 . S
C297 C296 1.331 . S
C297 C298 1.336 . S
C298 C294 1.394 . S
C298 C297 1.336 . S
C298 H313 0.929 . S
C299 C289 1.386 . S
C299 C292 1.357 . S
C299 H312 0.928 . S
H300 C276 0.931 . S
H301 C278 0.930 . S
H302 C280 0.929 . S
H303 C281 0.931 . S
H304 C283 0.930 . S
H305 C287 0.931 . S
H306 C285 0.931 . S
H307 C289 0.931 . S
H308 C290 0.929 . S
H309 C291 0.930 . S
H310 C294 0.930 . S
H311 C295 0.931 . S
H312 C299 0.928 . S
H313 C298 0.929 . S
H314 C296 0.932 . S
C315 C316 1.386 . S
C315 C317 1.397 . S
C315 H339 0.931 . S
C316 C315 1.386 . S
C316 C320 1.397 . S
C317 C315 1.397 . S
C317 C318 1.384 . S
C317 H340 0.930 . S
C318 C317 1.384 . S
C318 C319 1.377 . S
C318 C321 1.481 . S
C319 C318 1.377 . S
C319 C320 1.389 . S
C319 H341 0.929 . S
C320 C316 1.397 . S
C320 C319 1.389 . S
C320 H342 0.931 . S
C321 C318 1.481 . S
C321 C322 1.387 . S
C321 C326 1.390 . S
C322 C321 1.387 . S
C322 C323 1.401 . S
C322 H343 0.930 . S
C323 C322 1.401 . S
C323 C324 1.376 . S
C323 C332 1.511 . S
C324 C323 1.376 . S
C324 C325 1.392 . S
C324 H345 0.931 . S
C325 C324 1.392 . S
C325 C326 1.361 . S
C325 C327 1.500 . S
C326 C321 1.390 . S
C326 C325 1.361 . S
C326 H344 0.931 . S
C327 C325 1.500 . S
C327 C328 1.371 . S
C327 C329 1.365 . S
C328 C327 1.371 . S
C328 C338 1.386 . S
C328 H346 0.931 . S
C329 C327 1.365 . S
C329 C330 1.409 . S
C329 H347 0.929 . S
C330 C329 1.409 . S
C330 C331 1.380 . S
C330 H348 0.930 . S
C331 C330 1.380 . S
C331 C338 1.357 . S
C332 C323 1.511 . S
C332 C333 1.341 . S
C332 C334 1.371 . S
C333 C332 1.341 . S
C333 C337 1.394 . S
C333 H349 0.930 . S
C334 C332 1.371 . S
C334 C335 1.392 . S
C334 H350 0.931 . S
C335 C334 1.392 . S
C335 C336 1.331 . S
C335 H353 0.932 . S
C336 C335 1.331 . S
C336 C337 1.336 . S
C337 C333 1.394 . S
C337 C336 1.336 . S
C337 H352 0.929 . S
C338 C328 1.386 . S
C338 C331 1.357 . S
C338 H351 0.928 . S
H339 C315 0.931 . S
H340 C317 0.930 . S
H341 C319 0.929 . S
H342 C320 0.931 . S
H343 C322 0.930 . S
H344 C326 0.931 . S
H345 C324 0.931 . S
H346 C328 0.931 . S
H347 C329 0.929 . S
H348 C330 0.930 . S
H349 C333 0.930 . S
H350 C334 0.931 . S
H351 C338 0.928 . S
H352 C337 0.929 . S
H353 C335 0.932 . S
H354 C360 0.930 . S
H355 C364 0.930 . S
H356 C369 0.929 . S
H357 C367 0.929 . S
H358 C362 0.929 . S
H359 C368 0.929 . S
C360 H354 0.930 . S
C360 C361 1.367 . S
C360 C368 1.378 . S
C361 C360 1.367 . S
C361 C369 1.433 . S
C362 H358 0.929 . S
C362 C364 1.378 . S
C362 C366 1.350 . S
C363 C366 1.463 . S
C363 C368 1.350 . S
C363 N371 1.427 . S
C364 H355 0.930 . S
C364 C362 1.378 . S
C364 C365 1.367 . S
C365 C364 1.367 . S
C365 C367 1.433 . S
C366 C362 1.350 . S
C366 C363 1.463 . S
C366 N370 1.427 . S
C367 H357 0.929 . S
C367 C365 1.433 . S
C367 N370 1.384 . S
C368 H359 0.929 . S
C368 C360 1.378 . S
C368 C363 1.350 . S
C369 H356 0.929 . S
C369 C361 1.433 . S
C369 N371 1.384 . S
N370 C366 1.427 . S
N370 C367 1.384 . S
N371 C363 1.427 . S
N371 C369 1.384 . S
H372 C378 0.930 . S
H373 C382 0.930 . S
H374 C387 0.929 . S
H375 C385 0.929 . S
H376 C380 0.929 . S
H377 C386 0.929 . S
C378 H372 0.930 . S
C378 C379 1.367 . S
C378 C386 1.378 . S
C379 C378 1.367 . S
C379 C387 1.433 . S
C380 H376 0.929 . S
C380 C382 1.378 . S
C380 C384 1.350 . S
C381 C384 1.463 . S
C381 C386 1.350 . S
C381 N389 1.427 . S
C382 H373 0.930 . S
C382 C380 1.378 . S
C382 C383 1.367 . S
C383 C382 1.367 . S
C383 C385 1.433 . S
C384 C380 1.350 . S
C384 C381 1.463 . S
C384 N388 1.427 . S
C385 H375 0.929 . S
C385 C383 1.433 . S
C385 N388 1.384 . S
C386 H377 0.929 . S
C386 C378 1.378 . S
C386 C381 1.350 . S
C387 H374 0.929 . S
C387 C379 1.433 . S
C387 N389 1.384 . S
N388 C384 1.427 . S
N388 C385 1.384 . S
N389 C381 1.427 . S
N389 C387 1.384 . S
H390 C396 0.930 . S
H391 C400 0.930 . S
H392 C405 0.929 . S
H393 C403 0.929 . S
H394 C398 0.929 . S
H395 C404 0.929 . S
C396 H390 0.930 . S
C396 C397 1.367 . S
C396 C404 1.378 . S
C397 C396 1.367 . S
C397 C405 1.433 . S
C398 H394 0.929 . S
C398 C400 1.378 . S
C398 C402 1.350 . S
C399 C402 1.463 . S
C399 C404 1.350 . S
C399 N407 1.427 . S
C400 H391 0.930 . S
C400 C398 1.378 . S
C400 C401 1.367 . S
C401 C400 1.367 . S
C401 C403 1.433 . S
C402 C398 1.350 . S
C402 C399 1.463 . S
C402 N406 1.427 . S
C403 H393 0.929 . S
C403 C401 1.433 . S
C403 N406 1.384 . S
C404 H395 0.929 . S
C404 C396 1.378 . S
C404 C399 1.350 . S
C405 H392 0.929 . S
C405 C397 1.433 . S
C405 N407 1.384 . S
N406 C402 1.427 . S
N406 C403 1.384 . S
N407 C399 1.427 . S
N407 C405 1.384 . S
H408 C414 0.930 . S
H409 C418 0.930 . S
H410 C423 0.929 . S
H411 C421 0.929 . S
H412 C416 0.929 . S
H413 C422 0.929 . S
C414 H408 0.930 . S
C414 C415 1.367 . S
C414 C422 1.378 . S
C415 C414 1.367 . S
C415 C423 1.433 . S
C416 H412 0.929 . S
C416 C418 1.378 . S
C416 C420 1.350 . S
C417 C420 1.463 . S
C417 C422 1.350 . S
C417 N425 1.427 . S
C418 H409 0.930 . S
C418 C416 1.378 . S
C418 C419 1.367 . S
C419 C418 1.367 . S
C419 C421 1.433 . S
C420 C416 1.350 . S
C420 C417 1.463 . S
C420 N424 1.427 . S
C421 H411 0.929 . S
C421 C419 1.433 . S
C421 N424 1.384 . S
C422 H413 0.929 . S
C422 C414 1.378 . S
C422 C417 1.350 . S
C423 H410 0.929 . S
C423 C415 1.433 . S
C423 N425 1.384 . S
N424 C420 1.427 . S
N424 C421 1.384 . S
N425 C417 1.427 . S
N425 C423 1.384 . S
H426 C432 0.930 . S
H427 C436 0.930 . S
H428 C441 0.929 . S
H429 C439 0.929 . S
H430 C434 0.929 . S
H431 C440 0.929 . S
C432 H426 0.930 . S
C432 C433 1.367 . S
C432 C440 1.378 . S
C433 C432 1.367 . S
C433 C441 1.433 . S
C434 H430 0.929 . S
C434 C436 1.378 . S
C434 C438 1.350 . S
C435 C438 1.463 . S
C435 C440 1.350 . S
C435 N443 1.427 . S
C436 H427 0.930 . S
C436 C434 1.378 . S
C436 C437 1.367 . S
C437 C436 1.367 . S
C437 C439 1.433 . S
C438 C434 1.350 . S
C438 C435 1.463 . S
C438 N442 1.427 . S
C439 H429 0.929 . S
C439 C437 1.433 . S
C439 N442 1.384 . S
C440 H431 0.929 . S
C440 C432 1.378 . S
C440 C435 1.350 . S
C441 H428 0.929 . S
C441 C433 1.433 . S
C441 N443 1.384 . S
N442 C438 1.427 . S
N442 C439 1.384 . S
N443 C435 1.427 . S
N443 C441 1.384 . S
H444 C450 0.930 . S
H445 C454 0.930 . S
H446 C459 0.929 . S
H447 C457 0.929 . S
H448 C452 0.929 . S
H449 C458 0.929 . S
C450 H444 0.930 . S
C450 C451 1.367 . S
C450 C458 1.378 . S
C451 C450 1.367 . S
C451 C459 1.433 . S
C452 H448 0.929 . S
C452 C454 1.378 . S
C452 C456 1.350 . S
C453 C456 1.463 . S
C453 C458 1.350 . S
C453 N461 1.427 . S
C454 H445 0.930 . S
C454 C452 1.378 . S
C454 C455 1.367 . S
C455 C454 1.367 . S
C455 C457 1.433 . S
C456 C452 1.350 . S
C456 C453 1.463 . S
C456 N460 1.427 . S
C457 H447 0.929 . S
C457 C455 1.433 . S
C457 N460 1.384 . S
C458 H449 0.929 . S
C458 C450 1.378 . S
C458 C453 1.350 . S
C459 H446 0.929 . S
C459 C451 1.433 . S
C459 N461 1.384 . S
N460 C456 1.427 . S
N460 C457 1.384 . S
N461 C453 1.427 . S
N461 C459 1.384 . S
H462 C468 0.930 . S
H463 C472 0.930 . S
H464 C477 0.929 . S
H465 C475 0.929 . S
H466 C470 0.929 . S
H467 C476 0.929 . S
C468 H462 0.930 . S
C468 C469 1.367 . S
C468 C476 1.378 . S
C469 C468 1.367 . S
C469 C477 1.433 . S
C470 H466 0.929 . S
C470 C472 1.378 . S
C470 C474 1.350 . S
C471 C474 1.463 . S
C471 C476 1.350 . S
C471 N479 1.427 . S
C472 H463 0.930 . S
C472 C470 1.378 . S
C472 C473 1.367 . S
C473 C472 1.367 . S
C473 C475 1.433 . S
C474 C470 1.350 . S
C474 C471 1.463 . S
C474 N478 1.427 . S
C475 H465 0.929 . S
C475 C473 1.433 . S
C475 N478 1.384 . S
C476 H467 0.929 . S
C476 C468 1.378 . S
C476 C471 1.350 . S
C477 H464 0.929 . S
C477 C469 1.433 . S
C477 N479 1.384 . S
N478 C474 1.427 . S
N478 C475 1.384 . S
N479 C471 1.427 . S
N479 C477 1.384 . S
H480 C486 0.930 . S
H481 C490 0.930 . S
H482 C495 0.929 . S
H483 C493 0.929 . S
H484 C488 0.929 . S
H485 C494 0.929 . S
C486 H480 0.930 . S
C486 C487 1.367 . S
C486 C494 1.378 . S
C487 C486 1.367 . S
C487 C495 1.433 . S
C488 H484 0.929 . S
C488 C490 1.378 . S
C488 C492 1.350 . S
C489 C492 1.463 . S
C489 C494 1.350 . S
C489 N497 1.427 . S
C490 H481 0.930 . S
C490 C488 1.378 . S
C490 C491 1.367 . S
C491 C490 1.367 . S
C491 C493 1.433 . S
C492 C488 1.350 . S
C492 C489 1.463 . S
C492 N496 1.427 . S
C493 H483 0.929 . S
C493 C491 1.433 . S
C493 N496 1.384 . S
C494 H485 0.929 . S
C494 C486 1.378 . S
C494 C489 1.350 . S
C495 H482 0.929 . S
C495 C487 1.433 . S
C495 N497 1.384 . S
N496 C492 1.427 . S
N496 C493 1.384 . S
N497 C489 1.427 . S
N497 C495 1.384 . S
H498 C504 0.930 . S
H499 C508 0.930 . S
H500 C513 0.929 . S
H501 C511 0.929 . S
H502 C506 0.929 . S
H503 C512 0.929 . S
C504 H498 0.930 . S
C504 C505 1.367 . S
C504 C512 1.378 . S
C505 C504 1.367 . S
C505 C513 1.433 . S
C506 H502 0.929 . S
C506 C508 1.378 . S
C506 C510 1.350 . S
C507 C510 1.463 . S
C507 C512 1.350 . S
C507 N515 1.427 . S
C508 H499 0.930 . S
C508 C506 1.378 . S
C508 C509 1.367 . S
C509 C508 1.367 . S
C509 C511 1.433 . S
C510 C506 1.350 . S
C510 C507 1.463 . S
C510 N514 1.427 . S
C511 H501 0.929 . S
C511 C509 1.433 . S
C511 N514 1.384 . S
C512 H503 0.929 . S
C512 C504 1.378 . S
C512 C507 1.350 . S
C513 H500 0.929 . S
C513 C505 1.433 . S
C513 N515 1.384 . S
N514 C510 1.427 . S
N514 C511 1.384 . S
N515 C507 1.427 . S
N515 C513 1.384 . S
H516 C522 0.930 . S
H517 C526 0.930 . S
H518 C531 0.929 . S
H519 C529 0.929 . S
H520 C524 0.929 . S
H521 C530 0.929 . S
C522 H516 0.930 . S
C522 C523 1.367 . S
C522 C530 1.378 . S
C523 C522 1.367 . S
C523 C531 1.433 . S
C524 H520 0.929 . S
C524 C526 1.378 . S
C524 C528 1.350 . S
C525 C528 1.463 . S
C525 C530 1.350 . S
C525 N533 1.427 . S
C526 H517 0.930 . S
C526 C524 1.378 . S
C526 C527 1.367 . S
C527 C526 1.367 . S
C527 C529 1.433 . S
C528 C524 1.350 . S
C528 C525 1.463 . S
C528 N532 1.427 . S
C529 H519 0.929 . S
C529 C527 1.433 . S
C529 N532 1.384 . S
C530 H521 0.929 . S
C530 C522 1.378 . S
C530 C525 1.350 . S
C531 H518 0.929 . S
C531 C523 1.433 . S
C531 N533 1.384 . S
N532 C528 1.427 . S
N532 C529 1.384 . S
N533 C525 1.427 . S
N533 C531 1.384 . S
H534 C540 0.930 . S
H535 C544 0.930 . S
H536 C549 0.929 . S
H537 C547 0.929 . S
H538 C542 0.929 . S
H539 C548 0.929 . S
C540 H534 0.930 . S
C540 C541 1.367 . S
C540 C548 1.378 . S
C541 C540 1.367 . S
C541 C549 1.433 . S
C542 H538 0.929 . S
C542 C544 1.378 . S
C542 C546 1.350 . S
C543 C546 1.463 . S
C543 C548 1.350 . S
C543 N551 1.427 . S
C544 H535 0.930 . S
C544 C542 1.378 . S
C544 C545 1.367 . S
C545 C544 1.367 . S
C545 C547 1.433 . S
C546 C542 1.350 . S
C546 C543 1.463 . S
C546 N550 1.427 . S
C547 H537 0.929 . S
C547 C545 1.433 . S
C547 N550 1.384 . S
C548 H539 0.929 . S
C548 C540 1.378 . S
C548 C543 1.350 . S
C549 H536 0.929 . S
C549 C541 1.433 . S
C549 N551 1.384 . S
N550 C546 1.427 . S
N550 C547 1.384 . S
N551 C543 1.427 . S
N551 C549 1.384 . S
H552 C558 0.930 . S
H553 C562 0.930 . S
H554 C567 0.929 . S
H555 C565 0.929 . S
H556 C560 0.929 . S
H557 C566 0.929 . S
C558 H552 0.930 . S
C558 C559 1.367 . S
C558 C566 1.378 . S
C559 C558 1.367 . S
C559 C567 1.433 . S
C560 H556 0.929 . S
C560 C562 1.378 . S
C560 C564 1.350 . S
C561 C564 1.463 . S
C561 C566 1.350 . S
C561 N569 1.427 . S
C562 H553 0.930 . S
C562 C560 1.378 . S
C562 C563 1.367 . S
C563 C562 1.367 . S
C563 C565 1.433 . S
C564 C560 1.350 . S
C564 C561 1.463 . S
C564 N568 1.427 . S
C565 H555 0.929 . S
C565 C563 1.433 . S
C565 N568 1.384 . S
C566 H557 0.929 . S
C566 C558 1.378 . S
C566 C561 1.350 . S
C567 H554 0.929 . S
C567 C559 1.433 . S
C567 N569 1.384 . S
N568 C564 1.427 . S
N568 C565 1.384 . S
N569 C561 1.427 . S
N569 C567 1.384 . S
H570 C576 0.930 . S
H571 C580 0.930 . S
H572 C585 0.929 . S
H573 C583 0.953 . S
H574 C578 0.929 . S
H575 C584 0.929 . S
C576 H570 0.930 . S
C576 C577 1.367 . S
C576 C584 1.378 . S
C577 C576 1.367 . S
C577 C585 1.433 . S
C578 H574 0.929 . S
C578 C580 1.378 . S
C578 C582 1.350 . S
C579 C582 1.463 . S
C579 C584 1.350 . S
C579 N587 1.427 . S
C580 H571 0.930 . S
C580 C578 1.378 . S
C580 C581 1.367 . S
C581 C580 1.367 . S
C581 C583 1.433 . S
C582 C578 1.350 . S
C582 C579 1.463 . S
C582 N586 1.427 . S
C583 H573 0.953 . S
C583 C581 1.433 . S
C583 N586 1.384 . S
C584 H575 0.929 . S
C584 C576 1.378 . S
C584 C579 1.350 . S
C585 H572 0.929 . S
C585 C577 1.433 . S
C585 N587 1.384 . S
N586 C582 1.427 . S
N586 C583 1.384 . S
N587 C579 1.427 . S
N587 C585 1.384 . S
H588 C594 0.930 1_565 S
H589 C598 0.930 . S
H590 C603 0.929 . S
H591 C601 0.929 1_565 S
H592 C596 0.929 . S
H593 C602 0.929 1_565 S
C594 H588 0.930 1_545 S
C594 C595 1.367 . S
C594 C602 1.378 . S
C595 C594 1.367 . S
C595 C603 1.433 . S
C596 H592 0.929 . S
C596 C598 1.378 . S
C596 C600 1.350 . S
C597 C600 1.463 . S
C597 C602 1.350 . S
C597 N605 1.427 . S
C598 H589 0.930 . S
C598 C596 1.378 . S
C598 C599 1.367 . S
C599 C598 1.367 . S
C599 C601 1.433 . S
C600 C596 1.350 . S
C600 C597 1.463 . S
C600 N604 1.427 . S
C601 H591 0.929 1_545 S
C601 C599 1.433 . S
C601 N604 1.384 . S
C602 H593 0.929 1_545 S
C602 C594 1.378 . S
C602 C597 1.350 . S
C603 H590 0.929 . S
C603 C595 1.433 . S
C603 N605 1.384 . S
N604 C600 1.427 . S
N604 C601 1.384 . S
N605 C597 1.427 . S
N605 C603 1.384 . S
H606 C612 0.930 . S
H607 C616 0.930 . S
H608 C621 0.929 . S
H609 C619 0.929 . S
H610 C614 0.929 . S
H611 C620 0.929 . S
C612 H606 0.930 . S
C612 C613 1.367 . S
C612 C620 1.378 . S
C613 C612 1.367 . S
C613 C621 1.433 . S
C614 H610 0.929 . S
C614 C616 1.378 . S
C614 C618 1.350 . S
C615 C618 1.463 . S
C615 C620 1.350 . S
C615 N623 1.427 . S
C616 H607 0.930 . S
C616 C614 1.378 . S
C616 C617 1.367 . S
C617 C616 1.367 . S
C617 C619 1.433 . S
C618 C614 1.350 . S
C618 C615 1.463 . S
C618 N622 1.427 . S
C619 H609 0.929 . S
C619 C617 1.433 . S
C619 N622 1.384 . S
C620 H611 0.929 . S
C620 C612 1.378 . S
C620 C615 1.350 . S
C621 H608 0.929 . S
C621 C613 1.433 . S
C621 N623 1.384 . S
N622 C618 1.427 . S
N622 C619 1.384 . S
N623 C615 1.427 . S
N623 C621 1.384 . S
H624 C630 0.930 . S
H625 C634 0.930 . S
H626 C639 0.929 . S
H627 C637 0.929 . S
H628 C632 0.929 . S
H629 C638 0.929 . S
C630 H624 0.930 . S
C630 C631 1.367 1_565 S
C630 C638 1.378 . S
C631 C630 1.367 1_545 S
C631 C639 1.433 . S
C632 H628 0.929 . S
C632 C634 1.378 . S
C632 C636 1.350 . S
C633 C636 1.463 . S
C633 C638 1.350 1_545 S
C633 N641 1.427 . S
C634 H625 0.930 . S
C634 C632 1.378 . S
C634 C635 1.367 1_545 S
C635 C634 1.367 1_565 S
C635 C637 1.433 . S
C636 C632 1.350 . S
C636 C633 1.463 . S
C636 N640 1.427 1_545 S
C637 H627 0.929 . S
C637 C635 1.433 . S
C637 N640 1.384 . S
C638 H629 0.929 . S
C638 C630 1.378 . S
C638 C633 1.350 1_565 S
C639 H626 0.929 . S
C639 C631 1.433 . S
C639 N641 1.384 . S
N640 C636 1.427 1_565 S
N640 C637 1.384 . S
N641 C633 1.427 . S
N641 C639 1.384 . S
H642 C648 0.930 . S
H643 C652 0.930 . S
H644 C657 0.929 . S
H645 C655 0.929 . S
H646 C650 0.929 . S
H647 C656 0.929 . S
C648 H642 0.930 . S
C648 C649 1.367 . S
C648 C656 1.378 . S
C649 C648 1.367 . S
C649 C657 1.433 . S
C650 H646 0.929 . S
C650 C652 1.378 . S
C650 C654 1.350 . S
C651 C654 1.463 . S
C651 C656 1.350 . S
C651 N659 1.427 . S
C652 H643 0.930 . S
C652 C650 1.378 . S
C652 C653 1.367 . S
C653 C652 1.367 . S
C653 C655 1.433 . S
C654 C650 1.350 . S
C654 C651 1.463 . S
C654 N658 1.427 . S
C655 H645 0.929 . S
C655 C653 1.433 . S
C655 N658 1.384 . S
C656 H647 0.929 . S
C656 C648 1.378 . S
C656 C651 1.350 . S
C657 H644 0.929 . S
C657 C649 1.433 . S
C657 N659 1.384 . S
N658 C654 1.427 . S
N658 C655 1.384 . S
N659 C651 1.427 . S
N659 C657 1.384 . S
H660 C666 0.930 . S
H661 C670 0.930 . S
H662 C675 0.929 . S
H663 C673 0.921 . S
H664 C668 0.929 . S
H665 C674 0.929 . S
C666 H660 0.930 . S
C666 C667 1.367 . S
C666 C674 1.378 . S
C667 C666 1.367 . S
C667 C675 1.433 . S
C668 H664 0.929 . S
C668 C670 1.378 . S
C668 C672 1.350 . S
C669 C672 1.463 . S
C669 C674 1.350 . S
C669 N677 1.427 . S
C670 H661 0.930 . S
C670 C668 1.378 . S
C670 C671 1.366 1_455 S
C671 C670 1.366 1_655 S
C671 C673 1.451 . S
C672 C668 1.350 . S
C672 C669 1.463 . S
C672 N676 1.427 . S
C673 H663 0.921 . S
C673 C671 1.451 . S
C673 N676 1.377 1_655 S
C674 H665 0.929 . S
C674 C666 1.378 . S
C674 C669 1.350 . S
C675 H662 0.929 . S
C675 C667 1.433 . S
C675 N677 1.384 . S
N676 C672 1.427 . S
N676 C673 1.377 1_455 S
N677 C669 1.427 . S
N677 C675 1.384 . S
C361 C25 0.396 . S
C365 C331 0.411 . S
C379 C65 0.373 . S
C383 C258 0.193 . S
C397 C105 0.412 . S
C401 C297 0.296 . S
C415 C4 0.399 . S
C419 C336 0.288 . S
C437 C253 0.334 . S
C433 C44 0.383 . S
C455 C292 0.410 . S
C451 C84 0.418 . S
C469 C60 2.930 . S
C473 C180 2.887 . S
C487 C100 3.118 . S
C491 C214 3.059 . S
C505 C31 3.116 . S
C509 C136 3.053 . S
C527 C175 3.046 . S
C523 C71 3.109 . S
C545 C219 2.888 . S
C541 C111 2.920 . S
C559 C20 2.930 . S
C563 C141 2.886 . S
C581 C199 1.807 1_554 S
C577 C2 1.740 . S
C595 C42 1.751 . S
C599 C121 1.798 . S
C613 C82 1.747 . S
C617 C160 1.803 . S
C635 C277 1.068 . S
C631 C63 1.066 . S
C653 C316 1.112 1_556 S
C649 C103 1.097 . S
C667 C23 1.047 . S
C671 C238 1.062 . S
