# Generated by pormake.
# Topology wbl, (4,4)-cn, num edge types: 1
# Building blocks:
#     Node 0, Type 0, BuildingBlock: NAWXER_clean_linker_0, # of connection points: 4
#     Node 1, Type 0, BuildingBlock: NAWXER_clean_linker_0, # of connection points: 4
#     Node 2, Type 0, BuildingBlock: NAWXER_clean_linker_0, # of connection points: 4
#     Node 3, Type 0, BuildingBlock: NAWXER_clean_linker_0, # of connection points: 4
#     Node 4, Type 0, BuildingBlock: NAWXER_clean_linker_0, # of connection points: 4
#     Node 5, Type 0, BuildingBlock: NAWXER_clean_linker_0, # of connection points: 4
#     Node 6, Type 0, BuildingBlock: NAWXER_clean_linker_0, # of connection points: 4
#     Node 7, Type 0, BuildingBlock: NAWXER_clean_linker_0, # of connection points: 4
#     Node 8, Type 1, BuildingBlock: QUQFOY_clean_sbu_1, # of connection points: 4
#     Node 9, Type 1, BuildingBlock: QUQFOY_clean_sbu_1, # of connection points: 4
#     Node 10, Type 1, BuildingBlock: QUQFOY_clean_sbu_1, # of connection points: 4
#     Node 11, Type 1, BuildingBlock: QUQFOY_clean_sbu_1, # of connection points: 4
#     Node 12, Type 1, BuildingBlock: QUQFOY_clean_sbu_1, # of connection points: 4
#     Node 13, Type 1, BuildingBlock: QUQFOY_clean_sbu_1, # of connection points: 4
#     Node 14, Type 1, BuildingBlock: QUQFOY_clean_sbu_1, # of connection points: 4
#     Node 15, Type 1, BuildingBlock: QUQFOY_clean_sbu_1, # of connection points: 4
#     Edge 16, Type (0, 1), BuildingBlock: UVAHIK_clean_linker_0, # of connection points: 2
#     Edge 17, Type (0, 1), BuildingBlock: UVAHIK_clean_linker_0, # of connection points: 2
#     Edge 18, Type (0, 1), BuildingBlock: UVAHIK_clean_linker_0, # of connection points: 2
#     Edge 19, Type (0, 1), BuildingBlock: UVAHIK_clean_linker_0, # of connection points: 2
#     Edge 20, Type (0, 1), BuildingBlock: UVAHIK_clean_linker_0, # of connection points: 2
#     Edge 21, Type (0, 1), BuildingBlock: UVAHIK_clean_linker_0, # of connection points: 2
#     Edge 22, Type (0, 1), BuildingBlock: UVAHIK_clean_linker_0, # of connection points: 2
#     Edge 23, Type (0, 1), BuildingBlock: UVAHIK_clean_linker_0, # of connection points: 2
#     Edge 24, Type (0, 1), BuildingBlock: UVAHIK_clean_linker_0, # of connection points: 2
#     Edge 25, Type (0, 1), BuildingBlock: UVAHIK_clean_linker_0, # of connection points: 2
#     Edge 26, Type (0, 1), BuildingBlock: UVAHIK_clean_linker_0, # of connection points: 2
#     Edge 27, Type (0, 1), BuildingBlock: UVAHIK_clean_linker_0, # of connection points: 2
#     Edge 28, Type (0, 1), BuildingBlock: UVAHIK_clean_linker_0, # of connection points: 2
#     Edge 29, Type (0, 1), BuildingBlock: UVAHIK_clean_linker_0, # of connection points: 2
#     Edge 30, Type (0, 1), BuildingBlock: UVAHIK_clean_linker_0, # of connection points: 2
#     Edge 31, Type (0, 1), BuildingBlock: UVAHIK_clean_linker_0, # of connection points: 2
#     Edge 32, Type (0, 1), BuildingBlock: UVAHIK_clean_linker_0, # of connection points: 2
#     Edge 33, Type (0, 1), BuildingBlock: UVAHIK_clean_linker_0, # of connection points: 2
#     Edge 34, Type (0, 1), BuildingBlock: UVAHIK_clean_linker_0, # of connection points: 2
#     Edge 35, Type (0, 1), BuildingBlock: UVAHIK_clean_linker_0, # of connection points: 2
#     Edge 36, Type (0, 1), BuildingBlock: UVAHIK_clean_linker_0, # of connection points: 2
#     Edge 37, Type (0, 1), BuildingBlock: UVAHIK_clean_linker_0, # of connection points: 2
#     Edge 38, Type (0, 1), BuildingBlock: UVAHIK_clean_linker_0, # of connection points: 2
#     Edge 39, Type (0, 1), BuildingBlock: UVAHIK_clean_linker_0, # of connection points: 2
#     Edge 40, Type (0, 1), BuildingBlock: UVAHIK_clean_linker_0, # of connection points: 2
#     Edge 41, Type (0, 1), BuildingBlock: UVAHIK_clean_linker_0, # of connection points: 2
#     Edge 42, Type (0, 1), BuildingBlock: UVAHIK_clean_linker_0, # of connection points: 2
#     Edge 43, Type (0, 1), BuildingBlock: UVAHIK_clean_linker_0, # of connection points: 2
#     Edge 44, Type (0, 1), BuildingBlock: UVAHIK_clean_linker_0, # of connection points: 2
#     Edge 45, Type (0, 1), BuildingBlock: UVAHIK_clean_linker_0, # of connection points: 2
#     Edge 46, Type (0, 1), BuildingBlock: UVAHIK_clean_linker_0, # of connection points: 2
#     Edge 47, Type (0, 1), BuildingBlock: UVAHIK_clean_linker_0, # of connection points: 2
# Relax obj value: 0.184
# Max RMSD: 0.221
# Mean RMSD: 0.164
data_MOF--net-wbl--node1-QUQFOY_clean_sbu_1--node2-NAWXER_clean_linker_0--edge1-UVAHIK_clean_linker_0
_symmetry_space_group_name_H-M    P1
_symmetry_Int_Tables_number       1
_symmetry_cell_setting            triclinic
loop_
_symmetry_equiv_pos_as_xyz
'x, y, z'
_cell_length_a     55.287954
_cell_length_b     55.302853
_cell_length_c     98.594294
_cell_angle_alpha  93.196569
_cell_angle_beta   93.201241
_cell_angle_gamma 90.426729
loop_
_atom_site_label
_atom_site_type_symbol
_atom_site_fract_x
_atom_site_fract_y
_atom_site_fract_z
_atom_type_partial_charge
C0 C 0.22372 0.02346 0.38423 0.0
C1 C 0.23912 0.03426 0.39473 0.0
C2 C 0.21104 0.03772 0.37503 0.0
C3 C 0.21378 0.06305 0.37602 0.0
C4 C 0.24258 0.05953 0.39534 0.0
C5 C 0.22993 0.07377 0.38613 0.0
C6 C 0.19728 0.07853 0.36803 0.0
C7 C 0.24065 0.03779 0.33731 0.0
C8 C 0.22684 0.02179 0.32831 0.0
C9 C 0.22929 0.05493 0.34567 0.0
C10 C 0.20391 0.05631 0.34523 0.0
C11 C 0.20147 0.02349 0.32774 0.0
C12 C 0.19014 0.0407 0.33605 0.0
C13 C 0.19151 0.07438 0.35395 0.0
C14 C 0.11395 0.15069 0.34433 0.0
C15 C 0.09823 0.1364 0.33538 0.0
C16 C 0.13499 0.14085 0.3502 0.0
C17 C 0.14022 0.11621 0.34778 0.0
C18 C 0.1048 0.11233 0.33204 0.0
C19 C 0.12537 0.10233 0.33826 0.0
C20 C 0.1607 0.10437 0.35511 0.0
C21 C 0.1149 0.13615 0.38798 0.0
C22 C 0.12648 0.1556 0.39565 0.0
C23 C 0.12796 0.12093 0.37936 0.0
C24 C 0.15282 0.12491 0.37817 0.0
C25 C 0.1515 0.1593 0.39453 0.0
C26 C 0.16457 0.14396 0.38595 0.0
C27 C 0.16677 0.10875 0.36917 0.0
H28 H 0.22077 0.00404 0.38344 0.0
H29 H 0.19818 0.02897 0.36761 0.0
H30 H 0.25402 0.06848 0.40341 0.0
H31 H 0.23207 0.09328 0.38721 0.0
H32 H 0.26023 0.0368 0.33804 0.0
H33 H 0.24034 0.06715 0.35243 0.0
H34 H 0.19038 0.01162 0.32079 0.0
H35 H 0.17054 0.0416 0.33544 0.0
H36 H 0.10975 0.16929 0.34719 0.0
H37 H 0.14679 0.15245 0.35689 0.0
H38 H 0.09386 0.10095 0.32477 0.0
H39 H 0.12926 0.08344 0.33588 0.0
H40 H 0.09582 0.13239 0.38882 0.0
H41 H 0.11868 0.10595 0.37367 0.0
H42 H 0.16096 0.17418 0.4002 0.0
H43 H 0.1838 0.14717 0.38524 0.0
N44 N 0.18484 0.09575 0.37504 0.0
N45 N 0.17337 0.08735 0.34809 0.0
C46 C 0.95443 0.60895 0.62103 0.0
C47 C 0.9635 0.60043 0.63349 0.0
C48 C 0.96828 0.62488 0.61396 0.0
C49 C 0.99146 0.63245 0.61921 0.0
C50 C 0.98658 0.60829 0.63872 0.0
C51 C 0.00033 0.62407 0.63168 0.0
C52 C 0.00642 0.64994 0.61236 0.0
C53 C 0.00111 0.58439 0.58291 0.0
C54 C 0.98786 0.58862 0.5707 0.0
C55 C 0.00804 0.60363 0.59209 0.0
C56 C 0.0019 0.62744 0.5892 0.0
C57 C 0.98155 0.61245 0.56787 0.0
C58 C 0.98879 0.63176 0.57699 0.0
C59 C 0.01083 0.64793 0.59837 0.0
C60 C 0.09029 0.70241 0.58192 0.0
C61 C 0.09145 0.72742 0.58541 0.0
C62 C 0.07207 0.688 0.58668 0.0
C63 C 0.05469 0.69827 0.59503 0.0
C64 C 0.07323 0.73784 0.5932 0.0
C65 C 0.0549 0.72344 0.59783 0.0
C66 C 0.0373 0.68233 0.60126 0.0
C67 C 0.04643 0.73063 0.64426 0.0
C68 C 0.0719 0.73054 0.64558 0.0
C69 C 0.03396 0.71581 0.63422 0.0
C70 C 0.04669 0.70092 0.62519 0.0
C71 C 0.08461 0.71572 0.63641 0.0
C72 C 0.07212 0.70096 0.62636 0.0
C73 C 0.03329 0.684 0.6153 0.0
H74 H 0.9367 0.60327 0.61674 0.0
H75 H 0.96073 0.63155 0.60452 0.0
H76 H 0.99392 0.60259 0.64843 0.0
H77 H 0.01803 0.62977 0.63603 0.0
H78 H 0.00604 0.56615 0.58537 0.0
H79 H 0.01859 0.59998 0.60133 0.0
H80 H 0.97147 0.61617 0.55849 0.0
H81 H 0.98419 0.65007 0.57452 0.0
H82 H 0.10366 0.69388 0.57567 0.0
H83 H 0.07211 0.66865 0.58423 0.0
H84 H 0.07355 0.757 0.59614 0.0
H85 H 0.04128 0.73191 0.60394 0.0
H86 H 0.03609 0.74201 0.65105 0.0
H87 H 0.01433 0.71588 0.63354 0.0
H88 H 0.10419 0.71485 0.63731 0.0
H89 H 0.0823 0.68911 0.61972 0.0
N90 N 0.01789 0.66791 0.62025 0.0
N91 N 0.02599 0.66426 0.59334 0.0
C92 C 0.55 0.45891 0.86503 0.0
C93 C 0.56322 0.46801 0.87685 0.0
C94 C 0.53638 0.47458 0.85698 0.0
C95 C 0.53599 0.49952 0.86062 0.0
C96 C 0.56391 0.49312 0.87992 0.0
C97 C 0.55034 0.50865 0.87195 0.0
C98 C 0.51842 0.51585 0.85405 0.0
C99 C 0.57181 0.50018 0.82226 0.0
C100 C 0.56235 0.48559 0.81107 0.0
C101 C 0.55649 0.51025 0.83177 0.0
C102 C 0.53141 0.50604 0.83022 0.0
C103 C 0.53725 0.48121 0.80956 0.0
C104 C 0.52183 0.49166 0.81898 0.0
C105 C 0.51524 0.51796 0.83988 0.0
C106 C 0.45791 0.60904 0.83692 0.0
C107 C 0.43944 0.60282 0.82693 0.0
C108 C 0.47299 0.59127 0.84213 0.0
C109 C 0.46979 0.56691 0.83754 0.0
C110 C 0.43676 0.5785 0.82205 0.0
C111 C 0.45195 0.56071 0.82724 0.0
C112 C 0.48514 0.54803 0.84348 0.0
C113 C 0.43705 0.57432 0.87699 0.0
C114 C 0.4498 0.58366 0.88889 0.0
C115 C 0.44939 0.56234 0.8666 0.0
C116 C 0.47472 0.55993 0.86788 0.0
C117 C 0.47513 0.58154 0.89001 0.0
C118 C 0.48741 0.56976 0.87964 0.0
C119 C 0.48819 0.54569 0.85766 0.0
H120 H 0.54912 0.43962 0.86245 0.0
H121 H 0.52514 0.46706 0.8484 0.0
H122 H 0.57434 0.50072 0.8888 0.0
H123 H 0.55041 0.52782 0.87492 0.0
H124 H 0.59112 0.50367 0.8237 0.0
H125 H 0.5642 0.52168 0.84022 0.0
H126 H 0.52956 0.47008 0.80097 0.0
H127 H 0.50248 0.48846 0.81756 0.0
H128 H 0.46035 0.62757 0.84096 0.0
H129 H 0.48702 0.59653 0.84986 0.0
H130 H 0.42289 0.57323 0.81422 0.0
H131 H 0.44943 0.54204 0.82345 0.0
H132 H 0.4175 0.57552 0.87592 0.0
H133 H 0.43908 0.55438 0.85778 0.0
H134 H 0.48547 0.58888 0.89898 0.0
H135 H 0.50692 0.56813 0.88088 0.0
N136 N 0.50476 0.52978 0.86234 0.0
N137 N 0.49866 0.53394 0.83509 0.0
C138 C 0.55734 0.95682 0.08786 0.0
C139 C 0.53971 0.96576 0.07866 0.0
C140 C 0.57524 0.97214 0.09415 0.0
C141 C 0.57567 0.99684 0.09156 0.0
C142 C 0.54024 0.99047 0.076 0.0
C143 C 0.55818 0.00585 0.08234 0.0
C144 C 0.59514 0.0129 0.09787 0.0
C145 C 0.55185 0.992 0.13297 0.0
C146 C 0.56456 0.97761 0.14222 0.0
C147 C 0.56398 0.00315 0.12288 0.0
C148 C 0.58905 0.00014 0.12189 0.0
C149 C 0.5896 0.97452 0.14113 0.0
C150 C 0.60175 0.98585 0.13114 0.0
C151 C 0.60243 0.01302 0.11184 0.0
C152 C 0.67315 0.09459 0.12101 0.0
C153 C 0.68905 0.08431 0.13068 0.0
C154 C 0.65628 0.08009 0.11314 0.0
C155 C 0.65517 0.05503 0.1147 0.0
C156 C 0.68856 0.05908 0.13179 0.0
C157 C 0.67172 0.04463 0.12392 0.0
C158 C 0.63495 0.04006 0.10826 0.0
C159 C 0.67751 0.06298 0.07359 0.0
C160 C 0.66547 0.08063 0.06603 0.0
C161 C 0.66518 0.04988 0.08282 0.0
C162 C 0.64051 0.05392 0.08456 0.0
C163 C 0.64059 0.08427 0.06771 0.0
C164 C 0.6282 0.07084 0.07676 0.0
C165 C 0.62738 0.04034 0.09436 0.0
H166 H 0.55732 0.93794 0.09024 0.0
H167 H 0.58896 0.96456 0.10089 0.0
H168 H 0.52708 0.99782 0.06883 0.0
H169 H 0.55839 0.02477 0.08005 0.0
H170 H 0.53253 0.99468 0.13357 0.0
H171 H 0.55388 0.01451 0.11603 0.0
H172 H 0.59994 0.96382 0.14824 0.0
H173 H 0.62113 0.98349 0.13065 0.0
H174 H 0.67317 0.11396 0.11988 0.0
H175 H 0.64333 0.08869 0.10635 0.0
H176 H 0.70028 0.05061 0.13927 0.0
H177 H 0.67102 0.02537 0.1254 0.0
H178 H 0.69648 0.05921 0.07238 0.0
H179 H 0.67488 0.0365 0.08856 0.0
H180 H 0.63073 0.09794 0.0623 0.0
H181 H 0.60912 0.07414 0.07795 0.0
N182 N 0.60775 0.02675 0.08968 0.0
N183 N 0.62216 0.02642 0.11645 0.0
C184 C 0.05086 0.69835 0.93003 0.0
C185 C 0.06498 0.68824 0.91975 0.0
C186 C 0.03645 0.6834 0.9374 0.0
C187 C 0.03602 0.65822 0.93454 0.0
C188 C 0.06568 0.6629 0.91766 0.0
C189 C 0.05118 0.6481 0.92488 0.0
C190 C 0.01777 0.64245 0.9401 0.0
C191 C 0.07264 0.65671 0.97464 0.0
C192 C 0.06444 0.67214 0.98517 0.0
C193 C 0.05644 0.6469 0.96443 0.0
C194 C 0.03171 0.65226 0.96458 0.0
C195 C 0.03967 0.67762 0.9853 0.0
C196 C 0.02333 0.66744 0.97515 0.0
C197 C 0.01469 0.64068 0.9541 0.0
C198 C 0.95628 0.54952 0.95459 0.0
C199 C 0.93863 0.55569 0.96387 0.0
C200 C 0.97105 0.56736 0.94982 0.0
C201 C 0.96831 0.59178 0.9541 0.0
C202 C 0.93631 0.58011 0.9684 0.0
C203 C 0.95117 0.59798 0.96362 0.0
C204 C 0.98382 0.61065 0.94891 0.0
C205 C 0.93561 0.58233 0.91263 0.0
C206 C 0.9484 0.57244 0.90173 0.0
C207 C 0.94795 0.59512 0.92361 0.0
C208 C 0.97329 0.59785 0.92394 0.0
C209 C 0.97373 0.57497 0.90222 0.0
C210 C 0.986 0.58759 0.91316 0.0
C211 C 0.98684 0.61261 0.93487 0.0
H212 H 0.04993 0.7178 0.93185 0.0
H213 H 0.02466 0.69157 0.94474 0.0
H214 H 0.07684 0.6545 0.91007 0.0
H215 H 0.05123 0.62871 0.92259 0.0
H216 H 0.09168 0.6524 0.97422 0.0
H217 H 0.06321 0.63484 0.9565 0.0
H218 H 0.03295 0.68946 0.99334 0.0
H219 H 0.00423 0.67153 0.97549 0.0
H220 H 0.95843 0.53093 0.95084 0.0
H221 H 0.98462 0.56206 0.94275 0.0
H222 H 0.92311 0.58537 0.9757 0.0
H223 H 0.94904 0.61668 0.9672 0.0
H224 H 0.91605 0.58084 0.91246 0.0
H225 H 0.93765 0.60336 0.93164 0.0
H226 H 0.98411 0.56722 0.89408 0.0
H227 H 0.00553 0.58942 0.91318 0.0
N228 N 0.00374 0.62837 0.93107 0.0
N229 N 0.99776 0.62488 0.95802 0.0
C230 C 0.49536 0.54175 0.16704 0.0
C231 C 0.50262 0.55092 0.15486 0.0
C232 C 0.51078 0.52688 0.17453 0.0
C233 C 0.53387 0.52111 0.17008 0.0
C234 C 0.52546 0.54453 0.15025 0.0
C235 C 0.54086 0.52976 0.15776 0.0
C236 C 0.55071 0.50571 0.17796 0.0
C237 C 0.54497 0.5736 0.20414 0.0
C238 C 0.53363 0.57096 0.21638 0.0
C239 C 0.5515 0.55331 0.19622 0.0
C240 C 0.54659 0.52994 0.20028 0.0
C241 C 0.5287 0.54755 0.22046 0.0
C242 C 0.53536 0.52717 0.21252 0.0
C243 C 0.55494 0.50861 0.19223 0.0
C244 C 0.64089 0.44595 0.20333 0.0
C245 C 0.63396 0.43456 0.21492 0.0
C246 C 0.62416 0.45923 0.19575 0.0
C247 C 0.60002 0.46092 0.19941 0.0
C248 C 0.60998 0.43683 0.21881 0.0
C249 C 0.59317 0.44994 0.21112 0.0
C250 C 0.58229 0.47547 0.19165 0.0
C251 C 0.60368 0.4157 0.16102 0.0
C252 C 0.61887 0.42525 0.15165 0.0
C253 C 0.59081 0.43126 0.16963 0.0
C254 C 0.59266 0.45644 0.1687 0.0
C255 C 0.62085 0.45042 0.15088 0.0
C256 C 0.6076 0.46588 0.15921 0.0
C257 C 0.57889 0.47333 0.17733 0.0
H258 H 0.47791 0.54634 0.17088 0.0
H259 H 0.50463 0.51989 0.1838 0.0
H260 H 0.53142 0.55084 0.14077 0.0
H261 H 0.55843 0.52535 0.154 0.0
H262 H 0.54881 0.5914 0.20067 0.0
H263 H 0.56077 0.55591 0.18701 0.0
H264 H 0.52017 0.54502 0.22991 0.0
H265 H 0.53179 0.50927 0.21593 0.0
H266 H 0.65939 0.44498 0.20027 0.0
H267 H 0.63028 0.4685 0.18716 0.0
H268 H 0.60415 0.4282 0.22768 0.0
H269 H 0.57475 0.45137 0.21428 0.0
H270 H 0.60185 0.39629 0.16168 0.0
H271 H 0.57921 0.4237 0.17685 0.0
H272 H 0.63228 0.4581 0.14361 0.0
H273 H 0.60919 0.48527 0.15835 0.0
N274 N 0.56316 0.48841 0.17105 0.0
N275 N 0.57022 0.49311 0.19856 0.0
C276 C 0.55693 0.99868 0.43681 0.0
C277 C 0.54052 0.00914 0.42746 0.0
C278 C 0.57328 0.01326 0.44502 0.0
C279 C 0.57344 0.03849 0.44401 0.0
C280 C 0.5396 0.03452 0.42726 0.0
C281 C 0.55606 0.04902 0.43535 0.0
C282 C 0.59377 0.05354 0.45015 0.0
C283 C 0.55158 0.03574 0.4859 0.0
C284 C 0.56324 0.01923 0.49432 0.0
C285 C 0.56402 0.04641 0.47582 0.0
C286 C 0.58843 0.04094 0.47407 0.0
C287 C 0.58759 0.01352 0.49248 0.0
C288 C 0.60021 0.02459 0.48253 0.0
C289 C 0.60188 0.05339 0.46394 0.0
C290 C 0.6746 0.13526 0.46904 0.0
C291 C 0.69358 0.12492 0.47677 0.0
C292 C 0.65496 0.12107 0.46374 0.0
C293 C 0.65408 0.09621 0.46591 0.0
C294 C 0.69221 0.10019 0.47932 0.0
C295 C 0.67256 0.086 0.474 0.0
C296 C 0.63387 0.08083 0.45991 0.0
C297 C 0.6747 0.10496 0.42446 0.0
C298 C 0.66055 0.11571 0.41422 0.0
C299 C 0.66365 0.09377 0.43493 0.0
C300 C 0.63829 0.0939 0.4356 0.0
C301 C 0.63526 0.1157 0.4148 0.0
C302 C 0.62426 0.105 0.42542 0.0
C303 C 0.62589 0.08076 0.44602 0.0
H304 H 0.55825 0.97919 0.43713 0.0
H305 H 0.58683 0.0047 0.45146 0.0
H306 H 0.52685 0.04316 0.42037 0.0
H307 H 0.55586 0.06845 0.43443 0.0
H308 H 0.53275 0.04029 0.48709 0.0
H309 H 0.55471 0.05929 0.46955 0.0
H310 H 0.59694 0.00087 0.49889 0.0
H311 H 0.61911 0.02032 0.48139 0.0
H312 H 0.67517 0.15422 0.46684 0.0
H313 H 0.64058 0.12945 0.4578 0.0
H314 H 0.70635 0.09181 0.48543 0.0
H315 H 0.67203 0.06693 0.47596 0.0
H316 H 0.69423 0.10439 0.42406 0.0
H317 H 0.67495 0.08445 0.44224 0.0
H318 H 0.62401 0.12385 0.40699 0.0
H319 H 0.60468 0.10515 0.42557 0.0
N320 N 0.60608 0.06718 0.44176 0.0
N321 N 0.62166 0.06701 0.46832 0.0
C322 C 0.20172 0.1072 0.69284 0.0
C323 C 0.19363 0.09505 0.68049 0.0
C324 C 0.18522 0.11981 0.70087 0.0
C325 C 0.16053 0.12017 0.69662 0.0
C326 C 0.16872 0.09412 0.67685 0.0
C327 C 0.1524 0.10663 0.68478 0.0
C328 C 0.14346 0.13721 0.70291 0.0
C329 C 0.15495 0.07998 0.73331 0.0
C330 C 0.16745 0.08895 0.74537 0.0
C331 C 0.14571 0.09585 0.72384 0.0
C332 C 0.14864 0.12094 0.72632 0.0
C333 C 0.17054 0.11408 0.7478 0.0
C334 C 0.16091 0.12999 0.7384 0.0
C335 C 0.13774 0.13771 0.71668 0.0
C336 C 0.04295 0.18953 0.71275 0.0
C337 C 0.04385 0.20488 0.72458 0.0
C338 C 0.06334 0.17664 0.70907 0.0
C339 C 0.08527 0.17936 0.71694 0.0
C340 C 0.06531 0.20646 0.73295 0.0
C341 C 0.08592 0.19375 0.72914 0.0
C342 C 0.1073 0.16713 0.7123 0.0
C343 C 0.0887 0.22282 0.68169 0.0
C344 C 0.08339 0.2131 0.66837 0.0
C345 C 0.09863 0.2082 0.69168 0.0
C346 C 0.10293 0.18353 0.68856 0.0
C347 C 0.08774 0.18846 0.66531 0.0
C348 C 0.09745 0.17388 0.67528 0.0
C349 C 0.11421 0.16773 0.69874 0.0
H350 H 0.22086 0.10815 0.69585 0.0
H351 H 0.19189 0.13038 0.7099 0.0
H352 H 0.16195 0.08451 0.66751 0.0
H353 H 0.13343 0.10659 0.68134 0.0
H354 H 0.15249 0.06067 0.73117 0.0
H355 H 0.13593 0.08854 0.71467 0.0
H356 H 0.18002 0.1214 0.75705 0.0
H357 H 0.16312 0.14934 0.74053 0.0
H358 H 0.02646 0.18762 0.70628 0.0
H359 H 0.06207 0.16486 0.6999 0.0
H360 H 0.06637 0.21814 0.74216 0.0
H361 H 0.10254 0.19576 0.73548 0.0
H362 H 0.08574 0.24181 0.68429 0.0
H363 H 0.1033 0.21627 0.70176 0.0
H364 H 0.0835 0.18038 0.65518 0.0
H365 H 0.1006 0.15494 0.6726 0.0
N366 N 0.13169 0.15246 0.69457 0.0
N367 N 0.11968 0.15251 0.72087 0.0
O368 O 0.3455 0.72231 0.00803 0.0
Cd369 Cd 0.33532 0.74259 0.02499 0.0
Cd370 Cd 0.37218 0.71729 0.03811 0.0
O371 O 0.37135 0.69939 0.01921 0.0
O372 O 0.30237 0.75489 0.02065 0.0
O373 O 0.31034 0.72846 0.03637 0.0
C374 C 0.29473 0.74129 0.02975 0.0
C375 C 0.38313 0.69416 0.05667 0.0
C376 C 0.36018 0.70473 0.00818 0.0
C377 C 0.37693 0.77204 0.03713 0.0
O378 O 0.38631 0.75197 0.04007 0.0
O379 O 0.35575 0.77268 0.03152 0.0
O380 O 0.3985 0.70017 0.04811 0.0
O381 O 0.36097 0.70082 0.0546 0.0
O382 O 0.44404 0.84707 0.30856 0.0
Cd383 Cd 0.42912 0.83403 0.28998 0.0
Cd384 Cd 0.46854 0.85311 0.27999 0.0
O385 O 0.47057 0.87001 0.29927 0.0
O386 O 0.3934 0.83334 0.29107 0.0
O387 O 0.41288 0.8588 0.27877 0.0
C388 C 0.39279 0.85149 0.28337 0.0
C389 C 0.47721 0.87604 0.26161 0.0
C390 C 0.46009 0.86371 0.30969 0.0
C391 C 0.46221 0.7987 0.27771 0.0
O392 O 0.4765 0.81673 0.27731 0.0
O393 O 0.44091 0.80171 0.28164 0.0
O394 O 0.49398 0.86959 0.27022 0.0
O395 O 0.45515 0.86994 0.26359 0.0
O396 O 0.31869 0.91579 0.52376 0.0
Cd397 Cd 0.32909 0.90344 0.54255 0.0
Cd398 Cd 0.30152 0.93894 0.55206 0.0
O399 O 0.30443 0.94992 0.53254 0.0
O400 O 0.36309 0.89215 0.54208 0.0
O401 O 0.35196 0.92526 0.55381 0.0
C402 C 0.36908 0.91151 0.54951 0.0
C403 C 0.29962 0.9687 0.56982 0.0
C404 C 0.31017 0.9368 0.52224 0.0
C405 C 0.28525 0.88695 0.55463 0.0
O406 O 0.27984 0.90925 0.55464 0.0
O407 O 0.30601 0.88001 0.55119 0.0
O408 O 0.28264 0.96579 0.5604 0.0
O409 O 0.31844 0.95515 0.56902 0.0
O410 O 0.22648 0.82233 0.76809 0.0
Cd411 Cd 0.24483 0.83117 0.7865 0.0
Cd412 Cd 0.21231 0.80181 0.79664 0.0
O413 O 0.19561 0.8063 0.77771 0.0
O414 O 0.25947 0.86384 0.78561 0.0
O415 O 0.22887 0.85596 0.79842 0.0
C416 C 0.24338 0.87157 0.79377 0.0
C417 C 0.1869 0.79663 0.81453 0.0
C418 C 0.20516 0.81344 0.76718 0.0
C419 C 0.26494 0.7865 0.79707 0.0
O420 O 0.24286 0.7806 0.79797 0.0
O421 O 0.27048 0.8075 0.79358 0.0
O422 O 0.18833 0.78068 0.80462 0.0
O423 O 0.19956 0.81628 0.81421 0.0
O424 O 0.95091 0.30508 0.54562 0.0
Cd425 Cd 0.93354 0.31276 0.52735 0.0
Cd426 Cd 0.96109 0.27498 0.5173 0.0
O427 O 0.97654 0.279 0.53684 0.0
O428 O 0.91962 0.34545 0.5302 0.0
O429 O 0.94927 0.33748 0.51643 0.0
C430 C 0.93495 0.35303 0.52197 0.0
C431 C 0.98689 0.2647 0.49992 0.0
C432 C 0.96909 0.29133 0.54701 0.0
C433 C 0.90638 0.26937 0.51534 0.0
O434 O 0.92695 0.25967 0.5141 0.0
O435 O 0.90489 0.29119 0.51991 0.0
O436 O 0.9811 0.24945 0.50861 0.0
O437 O 0.97849 0.28637 0.50126 0.0
O438 O 0.835 0.424 0.78113 0.0
Cd439 Cd 0.82057 0.40387 0.76447 0.0
Cd440 Cd 0.85349 0.43065 0.75006 0.0
O441 O 0.8585 0.4467 0.76954 0.0
O442 O 0.78832 0.39192 0.76911 0.0
O443 O 0.79344 0.41876 0.75357 0.0
C444 C 0.77899 0.40627 0.7604 0.0
C445 C 0.86246 0.45607 0.73263 0.0
C446 C 0.8501 0.44132 0.78075 0.0
C447 C 0.85763 0.37539 0.75015 0.0
O448 O 0.86491 0.39555 0.74623 0.0
O449 O 0.83975 0.37436 0.75764 0.0
O450 O 0.87897 0.44789 0.7408 0.0
O451 O 0.84029 0.45015 0.73441 0.0
O452 O 0.74781 0.33547 0.0297 0.0
Cd453 Cd 0.75992 0.32421 0.01104 0.0
Cd454 Cd 0.72331 0.35076 0.00163 0.0
O455 O 0.71202 0.34527 0.0209 0.0
O456 O 0.77606 0.29281 0.01363 0.0
O457 O 0.74154 0.29649 0.00135 0.0
C458 C 0.7578 0.28268 0.00673 0.0
C459 C 0.69329 0.35418 0.98416 0.0
C460 C 0.72593 0.34131 0.03121 0.0
C461 C 0.77487 0.3683 0.99888 0.0
O462 O 0.75259 0.37355 0.99946 0.0
O463 O 0.78212 0.34739 0.0018 0.0
O464 O 0.6962 0.37018 0.9941 0.0
O465 O 0.70701 0.3354 0.98427 0.0
O466 O 0.81714 0.21787 0.25157 0.0
Cd467 Cd 0.82632 0.23856 0.269 0.0
Cd468 Cd 0.80922 0.20102 0.28232 0.0
O469 O 0.7983 0.19015 0.2624 0.0
O470 O 0.82415 0.27313 0.26473 0.0
O471 O 0.79885 0.25519 0.27782 0.0
C472 C 0.80507 0.27419 0.27172 0.0
C473 C 0.78243 0.19348 0.29914 0.0
C474 C 0.80421 0.19878 0.25134 0.0
C475 C 0.86255 0.21444 0.28662 0.0
O476 O 0.84541 0.19999 0.28884 0.0
O477 O 0.85887 0.23206 0.27907 0.0
O478 O 0.7936 0.1762 0.29291 0.0
O479 O 0.7861 0.21533 0.29568 0.0
C480 C 0.25985 0.00873 0.31312 0.0
C481 C 0.23887 0.00306 0.31977 0.0
C482 C 0.27196 0.99074 0.30575 0.0
C483 C 0.2823 0.92578 0.30523 0.0
H484 H 0.31311 0.93614 0.27161 0.0
C485 C 0.3481 0.85568 0.28499 0.0
C486 C 0.37027 0.86537 0.28144 0.0
C487 C 0.32785 0.87046 0.28611 0.0
C488 C 0.30465 0.93297 0.28101 0.0
H489 H 0.21384 0.97419 0.32363 0.0
H490 H 0.23499 0.94277 0.31071 0.0
H491 H 0.28553 0.96655 0.28069 0.0
H492 H 0.38816 0.89762 0.27521 0.0
H493 H 0.35317 0.92356 0.27755 0.0
H494 H 0.30215 0.89297 0.30605 0.0
C495 C 0.24207 0.96113 0.31125 0.0
C496 C 0.28885 0.95037 0.28619 0.0
C497 C 0.22988 0.97915 0.31856 0.0
C498 C 0.3713 0.88963 0.27797 0.0
C499 C 0.35115 0.9045 0.27927 0.0
C500 C 0.29818 0.90852 0.30013 0.0
C501 C 0.26343 0.96667 0.30493 0.0
C502 C 0.2779 0.94715 0.2985 0.0
C503 C 0.32947 0.89532 0.28391 0.0
C504 C 0.30996 0.91209 0.2881 0.0
H505 H 0.26703 0.02706 0.31374 0.0
H506 H 0.28851 0.99552 0.3011 0.0
H507 H 0.27442 0.92293 0.31483 0.0
H508 H 0.34668 0.83694 0.28755 0.0
H509 H 0.31125 0.86262 0.28933 0.0
C510 C 0.10852 0.76646 0.57791 0.0
C511 C 0.11209 0.74243 0.58147 0.0
C512 C 0.12816 0.78103 0.57512 0.0
C513 C 0.19069 0.77987 0.56468 0.0
H514 H 0.19462 0.84421 0.58246 0.0
C515 C 0.27241 0.84479 0.55976 0.0
C516 C 0.26679 0.86929 0.5583 0.0
C517 C 0.25454 0.82837 0.56307 0.0
C518 C 0.19369 0.82641 0.57729 0.0
H519 H 0.13927 0.71486 0.58473 0.0
H520 H 0.17344 0.74021 0.5795 0.0
H521 H 0.16109 0.81738 0.58667 0.0
H522 H 0.23791 0.89566 0.55902 0.0
H523 H 0.20692 0.86717 0.56442 0.0
H524 H 0.22299 0.78911 0.55502 0.0
C525 C 0.15537 0.74767 0.57888 0.0
C526 C 0.17449 0.81104 0.57973 0.0
C527 C 0.13575 0.73314 0.5818 0.0
C528 C 0.24298 0.87697 0.56019 0.0
C529 C 0.22517 0.86062 0.56338 0.0
C530 C 0.20983 0.79537 0.56212 0.0
C531 C 0.15179 0.77185 0.5757 0.0
C532 C 0.17265 0.78773 0.57334 0.0
C533 C 0.23069 0.83613 0.56492 0.0
C534 C 0.21138 0.81894 0.56827 0.0
H535 H 0.09053 0.77408 0.57729 0.0
H536 H 0.12487 0.79952 0.57249 0.0
H537 H 0.18964 0.76199 0.55959 0.0
H538 H 0.2906 0.83831 0.5584 0.0
H539 H 0.25945 0.80967 0.56431 0.0
C540 C 0.43125 0.64469 0.81932 0.0
C541 C 0.42258 0.6216 0.82203 0.0
C542 C 0.41518 0.66283 0.81554 0.0
C543 C 0.35209 0.67286 0.80247 0.0
H544 H 0.36266 0.73747 0.81924 0.0
C545 C 0.27756 0.74464 0.80248 0.0
C546 C 0.28401 0.76843 0.7997 0.0
C547 C 0.29531 0.72721 0.80452 0.0
C548 C 0.35964 0.7196 0.81435 0.0
H549 H 0.39028 0.59939 0.82285 0.0
H550 H 0.36222 0.63101 0.81633 0.0
H551 H 0.39215 0.70589 0.82374 0.0
H552 H 0.31427 0.79261 0.79704 0.0
H553 H 0.34534 0.76205 0.80067 0.0
H554 H 0.31935 0.68647 0.79328 0.0
C555 C 0.38147 0.63503 0.81689 0.0
C556 C 0.37654 0.70151 0.8169 0.0
C557 C 0.39754 0.61689 0.82063 0.0
C558 C 0.30869 0.77446 0.79917 0.0
C559 C 0.32649 0.75699 0.80129 0.0
C560 C 0.33517 0.69091 0.79996 0.0
C561 C 0.39007 0.65828 0.81442 0.0
C562 C 0.37283 0.67785 0.8111 0.0
C563 C 0.31994 0.73314 0.80389 0.0
C564 C 0.33862 0.7144 0.80599 0.0
H565 H 0.45049 0.64876 0.82013 0.0
H566 H 0.42242 0.68042 0.81348 0.0
H567 H 0.34891 0.65496 0.79764 0.0
H568 H 0.25875 0.73935 0.80299 0.0
H569 H 0.28972 0.7091 0.80672 0.0
C570 C 0.49677 0.95606 0.07021 0.0
C571 C 0.52114 0.94911 0.07178 0.0
C572 C 0.4792 0.9397 0.06439 0.0
C573 C 0.47212 0.88102 0.04413 0.0
H574 H 0.41235 0.87532 0.06258 0.0
C575 C 0.41652 0.79332 0.04248 0.0
C576 C 0.39133 0.79458 0.03985 0.0
C577 C 0.43047 0.8144 0.0447 0.0
C578 C 0.42879 0.87697 0.0572 0.0
H579 H 0.54632 0.91997 0.06792 0.0
H580 H 0.51577 0.89134 0.05822 0.0
H581 H 0.44051 0.90868 0.06928 0.0
H582 H 0.36096 0.81895 0.03766 0.0
H583 H 0.38553 0.85601 0.0419 0.0
H584 H 0.4609 0.8486 0.03253 0.0
C585 C 0.51015 0.90945 0.0613 0.0
C586 C 0.44489 0.89609 0.06099 0.0
C587 C 0.52765 0.92576 0.06706 0.0
C588 C 0.38034 0.81743 0.03963 0.0
C589 C 0.39433 0.83859 0.04208 0.0
C590 C 0.45617 0.86182 0.04045 0.0
C591 C 0.48568 0.91612 0.06 0.0
C592 C 0.46705 0.89794 0.05474 0.0
C593 C 0.41954 0.8372 0.04451 0.0
C594 C 0.43467 0.85929 0.04718 0.0
H595 H 0.49118 0.97391 0.0738 0.0
H596 H 0.46054 0.94547 0.06342 0.0
H597 H 0.48875 0.88224 0.03888 0.0
H598 H 0.42556 0.77603 0.04268 0.0
H599 H 0.44984 0.81284 0.04675 0.0
C600 C 0.0835 0.70792 0.99844 0.0
C601 C 0.08211 0.68275 0.9957 0.0
C602 C 0.10282 0.71817 0.00662 0.0
C603 C 0.15487 0.70478 0.03037 0.0
H604 H 0.18912 0.75086 0.01006 0.0
C605 C 0.25835 0.71763 0.03545 0.0
C606 C 0.26857 0.7394 0.03172 0.0
C607 C 0.23318 0.71446 0.03482 0.0
C608 C 0.17969 0.73856 0.01616 0.0
H609 H 0.09845 0.64841 0.00018 0.0
H610 H 0.13212 0.66625 0.01449 0.0
H611 H 0.14819 0.73871 0.0026 0.0
H612 H 0.26077 0.77575 0.02574 0.0
H613 H 0.21695 0.77077 0.02534 0.0
H614 H 0.18665 0.70423 0.04378 0.0
C615 C 0.11841 0.67811 0.01034 0.0
C616 C 0.15612 0.73155 0.01182 0.0
C617 C 0.09929 0.6679 0.00206 0.0
C618 C 0.2533 0.75862 0.02845 0.0
C619 C 0.22818 0.75568 0.02813 0.0
C620 C 0.17841 0.71204 0.03483 0.0
C621 C 0.12084 0.70338 0.01231 0.0
C622 C 0.14375 0.71403 0.01861 0.0
C623 C 0.21777 0.73321 0.0307 0.0
C624 C 0.19143 0.72845 0.02752 0.0
H625 H 0.07048 0.71973 0.99363 0.0
H626 H 0.10422 0.73771 0.00805 0.0
H627 H 0.14562 0.69138 0.03585 0.0
H628 H 0.26977 0.7025 0.03797 0.0
H629 H 0.22595 0.69682 0.03676 0.0
C630 C 0.50444 0.59478 0.23031 0.0
C631 C 0.5273 0.59274 0.22482 0.0
C632 C 0.49795 0.61622 0.23733 0.0
C633 C 0.51309 0.68119 0.23971 0.0
H634 H 0.47621 0.68294 0.27206 0.0
C635 C 0.49402 0.7708 0.26908 0.0
C636 C 0.47031 0.77426 0.27321 0.0
C637 C 0.50141 0.74803 0.2642 0.0
C638 C 0.48634 0.6827 0.26297 0.0
H639 H 0.5618 0.61088 0.22309 0.0
H640 H 0.55057 0.64816 0.23538 0.0
H641 H 0.48843 0.64395 0.2618 0.0
H642 H 0.43594 0.75632 0.27576 0.0
H643 H 0.44881 0.71658 0.26707 0.0
H644 H 0.51089 0.71978 0.24074 0.0
C645 C 0.53743 0.63348 0.23399 0.0
C646 C 0.49333 0.66041 0.2571 0.0
C647 C 0.54387 0.61214 0.22696 0.0
C648 C 0.45433 0.75428 0.27265 0.0
C649 C 0.46173 0.73147 0.26775 0.0
C650 C 0.50613 0.7034 0.24555 0.0
C651 C 0.51425 0.63595 0.23902 0.0
C652 C 0.50685 0.65945 0.24542 0.0
C653 C 0.48526 0.72819 0.2633 0.0
C654 C 0.49273 0.70444 0.25726 0.0
H655 H 0.49128 0.58015 0.22874 0.0
H656 H 0.4799 0.61765 0.24101 0.0
H657 H 0.52304 0.68105 0.23055 0.0
H658 H 0.50687 0.78574 0.26947 0.0
H659 H 0.51979 0.74599 0.26106 0.0
C660 C 0.53713 0.02272 0.51417 0.0
C661 C 0.54975 0.00807 0.50494 0.0
C662 C 0.52226 0.01232 0.52328 0.0
C663 C 0.50372 0.95343 0.53685 0.0
H664 H 0.44194 0.9857 0.53899 0.0
C665 C 0.41276 0.90624 0.54479 0.0
C666 C 0.39469 0.9196 0.55123 0.0
C667 C 0.43555 0.9166 0.54336 0.0
C668 C 0.45925 0.97667 0.53881 0.0
H669 H 0.5576 0.97116 0.49829 0.0
H670 H 0.53086 0.95282 0.51383 0.0
H671 H 0.47458 0.00499 0.52817 0.0
H672 H 0.38721 0.95324 0.56255 0.0
H673 H 0.42705 0.97119 0.56013 0.0
H674 H 0.48753 0.9244 0.54687 0.0
C675 C 0.53285 0.97235 0.51433 0.0
C676 C 0.47807 0.98777 0.53258 0.0
C677 C 0.54807 0.9828 0.50536 0.0
C678 C 0.40064 0.94256 0.55739 0.0
C679 C 0.42343 0.95291 0.55595 0.0
C680 C 0.48472 0.94219 0.54301 0.0
C681 C 0.51928 0.98701 0.52318 0.0
C682 C 0.50043 0.97614 0.53127 0.0
C683 C 0.44069 0.9405 0.54835 0.0
C684 C 0.46213 0.95352 0.54383 0.0
H685 H 0.53846 0.04228 0.51415 0.0
H686 H 0.5126 0.02417 0.53017 0.0
H687 H 0.5208 0.9441 0.53622 0.0
H688 H 0.40881 0.88844 0.54001 0.0
H689 H 0.44842 0.90656 0.53742 0.0
C690 C 0.16244 0.05339 0.75956 0.0
C691 C 0.17724 0.07194 0.7553 0.0
C692 C 0.17209 0.03603 0.76802 0.0
C693 C 0.22778 0.00441 0.77431 0.0
H694 H 0.19537 0.97837 0.80427 0.0
C695 C 0.25857 0.91422 0.79412 0.0
C696 C 0.23977 0.89784 0.79614 0.0
C697 C 0.25386 0.9389 0.79336 0.0
C698 C 0.20463 0.98533 0.79589 0.0
H699 H 0.21345 0.08742 0.75682 0.0
H700 H 0.23054 0.05661 0.77142 0.0
H701 H 0.18086 0.01573 0.79464 0.0
H702 H 0.20168 0.89453 0.79987 0.0
H703 H 0.19314 0.93723 0.79792 0.0
H704 H 0.25038 0.97344 0.77471 0.0
C705 C 0.21144 0.0557 0.76831 0.0
C706 C 0.19637 0.0068 0.79045 0.0
C707 C 0.20168 0.07331 0.76001 0.0
C708 C 0.21655 0.90678 0.79836 0.0
C709 C 0.2117 0.93139 0.79729 0.0
C710 C 0.23578 0.98279 0.77958 0.0
C711 C 0.1968 0.0367 0.77222 0.0
C712 C 0.20756 0.01622 0.77941 0.0
C713 C 0.23011 0.94764 0.79421 0.0
C714 C 0.22395 0.97259 0.79022 0.0
H715 H 0.14349 0.05208 0.75613 0.0
H716 H 0.16046 0.02144 0.77076 0.0
H717 H 0.23655 0.01111 0.76568 0.0
H718 H 0.27672 0.90781 0.79255 0.0
H719 H 0.26867 0.95093 0.79144 0.0
C720 C 0.57854 0.4499 0.79783 0.0
C721 C 0.5789 0.47493 0.80113 0.0
C722 C 0.59614 0.43952 0.78973 0.0
C723 C 0.64321 0.45244 0.76594 0.0
H724 H 0.6796 0.40295 0.78421 0.0
C725 C 0.74304 0.4325 0.75636 0.0
C726 C 0.75257 0.40987 0.75941 0.0
C727 C 0.71863 0.43748 0.75818 0.0
C728 C 0.66941 0.41623 0.77868 0.0
H729 H 0.59681 0.50895 0.79795 0.0
H730 H 0.62741 0.49088 0.78369 0.0
H731 H 0.64192 0.41705 0.79312 0.0
H732 H 0.74376 0.37394 0.76545 0.0
H733 H 0.70094 0.38207 0.76787 0.0
H734 H 0.67079 0.45181 0.75155 0.0
C735 C 0.61363 0.47926 0.78737 0.0
C736 C 0.64778 0.42439 0.78387 0.0
C737 C 0.59629 0.48957 0.79562 0.0
C738 C 0.7369 0.39167 0.7632 0.0
C739 C 0.7124 0.39644 0.76471 0.0
C740 C 0.6647 0.444 0.7606 0.0
C741 C 0.61411 0.45408 0.78464 0.0
C742 C 0.63481 0.44301 0.77778 0.0
C743 C 0.70315 0.41974 0.76283 0.0
C744 C 0.67847 0.42625 0.76713 0.0
H745 H 0.56533 0.43824 0.802 0.0
H746 H 0.5961 0.42006 0.78774 0.0
H747 H 0.6334 0.4667 0.761 0.0
H748 H 0.75478 0.4469 0.75349 0.0
H749 H 0.71237 0.4557 0.75673 0.0
C750 C 0.66752 0.10416 0.04492 0.0
C751 C 0.67892 0.09584 0.05688 0.0
C752 C 0.67943 0.12028 0.03705 0.0
C753 C 0.72949 0.16538 0.04064 0.0
H754 H 0.71602 0.16987 0.00183 0.0
C755 C 0.77133 0.24189 0.01348 0.0
C756 C 0.75392 0.25619 0.00687 0.0
C757 C 0.7655 0.21845 0.01684 0.0
C758 C 0.72002 0.16871 0.01265 0.0
H759 H 0.71244 0.09733 0.06951 0.0
H760 H 0.73354 0.12412 0.05544 0.0
H761 H 0.69982 0.13563 0.01329 0.0
H762 H 0.71761 0.25623 0.99733 0.0
H763 H 0.70744 0.21521 0.00321 0.0
H764 H 0.74946 0.19845 0.04005 0.0
C765 C 0.71505 0.11888 0.05236 0.0
C766 C 0.71064 0.14921 0.01925 0.0
C767 C 0.70302 0.10311 0.06035 0.0
C768 C 0.73139 0.24571 0.00248 0.0
C769 C 0.72557 0.22218 0.00582 0.0
C770 C 0.73907 0.18459 0.03403 0.0
C771 C 0.70321 0.12823 0.04082 0.0
C772 C 0.71493 0.14752 0.03339 0.0
C773 C 0.74218 0.2088 0.01361 0.0
C774 C 0.73417 0.18669 0.02002 0.0
H775 H 0.64919 0.09856 0.04171 0.0
H776 H 0.66959 0.12716 0.0283 0.0
H777 H 0.73275 0.16516 0.05156 0.0
H778 H 0.78897 0.24932 0.01687 0.0
H779 H 0.7788 0.20835 0.02263 0.0
C780 C 0.05437 0.13053 0.3276 0.0
C781 C 0.07462 0.14604 0.33007 0.0
C782 C 0.03203 0.13942 0.32304 0.0
C783 C 0.00238 0.19371 0.3087 0.0
H784 H 0.94489 0.16075 0.31924 0.0
C785 C 0.9074 0.21425 0.28503 0.0
C786 C 0.88707 0.21009 0.29249 0.0
C787 C 0.93051 0.20816 0.29013 0.0
C788 C 0.96062 0.1706 0.31639 0.0
H789 H 0.08688 0.18336 0.32938 0.0
H790 H 0.04756 0.19913 0.3225 0.0
H791 H 0.9842 0.14761 0.32748 0.0
H792 H 0.87483 0.19765 0.3114 0.0
H793 H 0.91516 0.18862 0.32078 0.0
H794 H 0.97865 0.21777 0.29838 0.0
C795 C 0.04915 0.17984 0.32363 0.0
C796 C 0.98339 0.16262 0.32088 0.0
C797 C 0.07174 0.17081 0.32785 0.0
C798 C 0.89026 0.20073 0.30538 0.0
C799 C 0.91342 0.19534 0.31068 0.0
C800 C 0.97954 0.20213 0.3045 0.0
C801 C 0.02892 0.16427 0.32121 0.0
C802 C 0.00464 0.17374 0.31691 0.0
C803 C 0.93386 0.19839 0.303 0.0
C804 C 0.9583 0.19047 0.30812 0.0
H805 H 0.0555 0.11144 0.32941 0.0
H806 H 0.01718 0.12664 0.32097 0.0
H807 H 0.01821 0.20267 0.30528 0.0
H808 H 0.90533 0.2213 0.275 0.0
H809 H 0.94557 0.21042 0.28374 0.0
C810 C 0.99785 0.55063 0.55732 0.0
C811 C 0.98074 0.5681 0.561 0.0
C812 C 0.99083 0.53025 0.54899 0.0
C813 C 0.93912 0.49068 0.54198 0.0
H814 H 0.97657 0.46187 0.51327 0.0
C815 C 0.91722 0.39422 0.52166 0.0
C816 C 0.9373 0.37916 0.52012 0.0
C817 C 0.92015 0.41935 0.52262 0.0
C818 C 0.96595 0.46959 0.5213 0.0
H819 H 0.94311 0.57847 0.55855 0.0
H820 H 0.93069 0.54248 0.54414 0.0
H821 H 0.9867 0.50268 0.5228 0.0
H822 H 0.9759 0.37836 0.51751 0.0
H823 H 0.98136 0.42215 0.51986 0.0
H824 H 0.91943 0.45739 0.54132 0.0
C825 C 0.94954 0.54469 0.54764 0.0
C826 C 0.9717 0.493 0.52669 0.0
C827 C 0.95664 0.56526 0.55583 0.0
C828 C 0.96011 0.38963 0.51864 0.0
C829 C 0.96317 0.41479 0.51994 0.0
C830 C 0.93361 0.46722 0.53676 0.0
C831 C 0.96651 0.52683 0.54433 0.0
C832 C 0.95861 0.50356 0.53726 0.0
C833 C 0.94335 0.42995 0.52247 0.0
C834 C 0.94725 0.45612 0.52654 0.0
H835 H 0.0166 0.55254 0.56107 0.0
H836 H 0.00423 0.51665 0.54671 0.0
H837 H 0.92895 0.49824 0.55026 0.0
H838 H 0.89936 0.38653 0.52264 0.0
H839 H 0.90432 0.4304 0.52409 0.0
C840 C 0.71228 0.16357 0.48721 0.0
C841 C 0.71502 0.13974 0.48183 0.0
C842 C 0.73257 0.17777 0.4915 0.0
C843 C 0.79759 0.17394 0.50182 0.0
H844 H 0.7998 0.24062 0.49163 0.0
C845 C 0.88559 0.23073 0.50669 0.0
C846 C 0.88409 0.25497 0.51166 0.0
C847 C 0.86462 0.21693 0.50346 0.0
C848 C 0.79934 0.22213 0.4947 0.0
H849 H 0.74118 0.11216 0.47667 0.0
H850 H 0.77656 0.13692 0.48418 0.0
H851 H 0.76369 0.21593 0.48551 0.0
H852 H 0.85931 0.28374 0.51707 0.0
H853 H 0.82269 0.25954 0.51149 0.0
H854 H 0.83329 0.18008 0.51094 0.0
C855 C 0.75873 0.14451 0.48527 0.0
C856 C 0.77865 0.20799 0.4912 0.0
C857 C 0.73845 0.13032 0.48097 0.0
C858 C 0.86112 0.26514 0.51324 0.0
C859 C 0.84012 0.25132 0.50999 0.0
C860 C 0.81826 0.18807 0.50532 0.0
C861 C 0.75601 0.16843 0.49051 0.0
C862 C 0.77762 0.1837 0.49465 0.0
C863 C 0.84166 0.22704 0.50511 0.0
C864 C 0.81942 0.21227 0.50172 0.0
H865 H 0.69444 0.17121 0.48817 0.0
H866 H 0.72989 0.19602 0.49568 0.0
H867 H 0.79719 0.15539 0.50481 0.0
H868 H 0.90299 0.22234 0.50531 0.0
H869 H 0.86639 0.19839 0.49953 0.0
C870 C 0.01179 0.23385 0.71764 0.0
C871 C 0.02266 0.21992 0.72772 0.0
C872 C 0.99158 0.24787 0.72033 0.0
C873 C 0.95769 0.27531 0.74866 0.0
H874 H 0.90975 0.28542 0.71931 0.0
C875 C 0.8725 0.33417 0.75554 0.0
C876 C 0.87148 0.35336 0.74676 0.0
C877 C 0.88829 0.31488 0.75328 0.0
C878 C 0.92296 0.28263 0.7276 0.0
H879 H 0.02099 0.20955 0.74849 0.0
H880 H 0.98506 0.23352 0.75315 0.0
H881 H 0.94263 0.2571 0.7156 0.0
H882 H 0.8851 0.36684 0.72838 0.0
H883 H 0.9121 0.3328 0.72423 0.0
H884 H 0.93764 0.30081 0.76065 0.0
C885 C 0.99246 0.23407 0.74324 0.0
C886 C 0.94193 0.26658 0.72547 0.0
C887 C 0.01298 0.22029 0.74059 0.0
C888 C 0.88557 0.35232 0.73533 0.0
C889 C 0.90093 0.33282 0.73292 0.0
C890 C 0.93845 0.29106 0.75085 0.0
C891 C 0.98146 0.24803 0.73312 0.0
C892 C 0.95992 0.26319 0.73586 0.0
C893 C 0.90284 0.31424 0.74204 0.0
C894 C 0.92126 0.29525 0.74024 0.0
H895 H 0.01916 0.23414 0.70769 0.0
H896 H 0.98412 0.25886 0.71239 0.0
H897 H 0.97128 0.27342 0.75686 0.0
H898 H 0.86194 0.33459 0.76448 0.0
H899 H 0.88944 0.30069 0.76042 0.0
C900 C 0.89758 0.54081 0.96948 0.0
C901 C 0.92251 0.53668 0.9686 0.0
C902 C 0.88222 0.52251 0.97329 0.0
C903 C 0.87788 0.45612 0.97456 0.0
H904 H 0.82575 0.47093 0.9983 0.0
C905 C 0.81721 0.38207 0.99501 0.0
C906 C 0.79231 0.38696 0.9952 0.0
C907 C 0.83362 0.4001 0.99198 0.0
C908 C 0.84009 0.46654 0.99156 0.0
H909 H 0.95098 0.51037 0.97145 0.0
H910 H 0.92417 0.47845 0.97813 0.0
H911 H 0.85349 0.50304 0.99294 0.0
H912 H 0.76511 0.41454 0.9921 0.0
H913 H 0.79364 0.44576 0.9867 0.0
H914 H 0.86439 0.41962 0.97314 0.0
C915 C 0.91644 0.49569 0.97564 0.0
C916 C 0.85598 0.48494 0.98849 0.0
C917 C 0.93179 0.51399 0.97183 0.0
C918 C 0.78417 0.41016 0.99212 0.0
C919 C 0.80055 0.42814 0.98911 0.0
C920 C 0.86199 0.4377 0.97764 0.0
C921 C 0.89145 0.49968 0.97631 0.0
C922 C 0.87498 0.47998 0.9799 0.0
C923 C 0.82547 0.42338 0.98909 0.0
C924 C 0.84281 0.44275 0.9861 0.0
H925 H 0.88983 0.55799 0.96687 0.0
H926 H 0.86301 0.52606 0.97352 0.0
H927 H 0.89213 0.45176 0.96775 0.0
H928 H 0.82409 0.36441 0.99736 0.0
H929 H 0.85274 0.39593 0.99215 0.0
C930 C 0.66716 0.40417 0.21612 0.0
C931 C 0.65183 0.42037 0.22286 0.0
C932 C 0.68439 0.39113 0.22348 0.0
C933 C 0.70068 0.37037 0.25781 0.0
H934 H 0.76222 0.35825 0.24184 0.0
C935 C 0.76451 0.29338 0.27333 0.0
C936 C 0.78933 0.29561 0.27127 0.0
C937 C 0.74863 0.31197 0.26999 0.0
C938 C 0.74538 0.36179 0.24665 0.0
H939 H 0.64248 0.43565 0.24258 0.0
H940 H 0.67293 0.41307 0.25548 0.0
H941 H 0.73305 0.38417 0.23078 0.0
H942 H 0.81741 0.31988 0.26546 0.0
H943 H 0.78995 0.35274 0.26023 0.0
H944 H 0.71329 0.3482 0.27383 0.0
C945 C 0.67136 0.41017 0.24451 0.0
C946 C 0.72841 0.37636 0.24013 0.0
C947 C 0.65394 0.42311 0.23713 0.0
C948 C 0.79829 0.31755 0.26697 0.0
C949 C 0.7825 0.33629 0.26386 0.0
C950 C 0.7178 0.35591 0.26442 0.0
C951 C 0.6869 0.39412 0.23775 0.0
C952 C 0.70563 0.38037 0.24544 0.0
C953 C 0.75734 0.33332 0.26473 0.0
C954 C 0.74019 0.35104 0.25878 0.0
H955 H 0.66566 0.40139 0.20514 0.0
H956 H 0.69561 0.37848 0.21794 0.0
H957 H 0.68329 0.37302 0.26218 0.0
H958 H 0.75708 0.27662 0.2766 0.0
H959 H 0.7294 0.3089 0.27073 0.0
C960 C 0.27287 0.02442 0.41169 0.0
C961 C 0.24939 0.01971 0.40586 0.0
C962 C 0.28119 0.01282 0.42329 0.0
C963 C 0.25703 0.98646 0.45293 0.0
H964 H 0.32236 0.96328 0.45988 0.0
C965 C 0.29396 0.96789 0.50674 0.0
C966 C 0.30589 0.94581 0.50845 0.0
C967 C 0.28846 0.97583 0.49376 0.0
C968 C 0.30402 0.96956 0.45803 0.0
H969 H 0.21658 0.99848 0.4074 0.0
H970 H 0.23122 0.97806 0.42744 0.0
H971 H 0.31016 0.97769 0.43746 0.0
H972 H 0.3221 0.91514 0.4978 0.0
H973 H 0.31251 0.92919 0.47504 0.0
H974 H 0.25083 0.97853 0.47343 0.0
C975 C 0.24312 0.99086 0.42311 0.0
C976 C 0.2971 0.97794 0.44526 0.0
C977 C 0.23484 0.00237 0.41153 0.0
C978 C 0.31283 0.9322 0.49684 0.0
C979 C 0.30745 0.94027 0.48382 0.0
C980 C 0.26398 0.9783 0.46568 0.0
C981 C 0.26613 0.9964 0.42932 0.0
C982 C 0.27353 0.98652 0.4426 0.0
C983 C 0.29486 0.96198 0.48216 0.0
C984 C 0.28758 0.96992 0.46841 0.0
H985 H 0.28459 0.03751 0.40748 0.0
H986 H 0.29899 0.01752 0.42787 0.0
H987 H 0.23884 0.99323 0.45127 0.0
H988 H 0.28844 0.97891 0.51544 0.0
H989 H 0.27908 0.99283 0.4928 0.0
C990 C 0.10724 0.75643 0.65502 0.0
C991 C 0.08511 0.74473 0.65696 0.0
C992 C 0.12031 0.76842 0.66598 0.0
C993 C 0.11464 0.79376 0.70126 0.0
H994 H 0.18312 0.77958 0.70576 0.0
C995 C 0.16732 0.80229 0.75308 0.0
C996 C 0.19146 0.81065 0.75384 0.0
C997 C 0.1546 0.79836 0.74053 0.0
C998 C 0.16412 0.78411 0.70454 0.0
H999 H 0.05939 0.73659 0.67195 0.0
H1000 H 0.08205 0.75756 0.69097 0.0
H1001 H 0.16022 0.76536 0.68495 0.0
H1002 H 0.22097 0.82202 0.74197 0.0
H1003 H 0.19864 0.81513 0.71996 0.0
H1004 H 0.1184 0.81195 0.721 0.0
C1005 C 0.08914 0.75781 0.68095 0.0
C1006 C 0.151 0.77596 0.69261 0.0
C1007 C 0.07613 0.74578 0.67003 0.0
C1008 C 0.20242 0.81551 0.74173 0.0
C1009 C 0.18968 0.81147 0.72913 0.0
C1010 C 0.12776 0.80192 0.71317 0.0
C1011 C 0.11149 0.76905 0.67909 0.0
C1012 C 0.12599 0.78021 0.69098 0.0
C1013 C 0.16569 0.80266 0.7284 0.0
C1014 C 0.15251 0.79668 0.71508 0.0
H1015 H 0.1145 0.75624 0.64504 0.0
H1016 H 0.13736 0.77715 0.66421 0.0
H1017 H 0.09549 0.79772 0.70019 0.0
H1018 H 0.15829 0.79838 0.76219 0.0
H1019 H 0.13628 0.79124 0.74032 0.0
C1020 C 0.41884 0.61212 0.89839 0.0
C1021 C 0.43696 0.5948 0.90044 0.0
C1022 C 0.40821 0.62375 0.90953 0.0
C1023 C 0.4217 0.63868 0.94606 0.0
H1024 H 0.35315 0.65243 0.94729 0.0
C1025 C 0.38114 0.67111 0.99573 0.0
C1026 C 0.36541 0.69094 0.99537 0.0
C1027 C 0.38787 0.65919 0.98372 0.0
C1028 C 0.37236 0.64889 0.94702 0.0
H1029 H 0.45701 0.5749 0.91563 0.0
H1030 H 0.43845 0.5949 0.93496 0.0
H1031 H 0.36856 0.63182 0.92691 0.0
H1032 H 0.34363 0.71316 0.98206 0.0
H1033 H 0.35559 0.69227 0.96097 0.0
H1034 H 0.42565 0.65556 0.96608 0.0
C1035 C 0.43289 0.60009 0.92483 0.0
C1036 C 0.38118 0.63712 0.93536 0.0
C1037 C 0.44351 0.5886 0.91376 0.0
C1038 C 0.35583 0.69799 0.98269 0.0
C1039 C 0.36259 0.68599 0.97061 0.0
C1040 C 0.41294 0.65033 0.95765 0.0
C1041 C 0.41551 0.61816 0.92288 0.0
C1042 C 0.40592 0.6316 0.93486 0.0
C1043 C 0.37909 0.66679 0.97102 0.0
C1044 C 0.38815 0.65527 0.95835 0.0
H1045 H 0.41349 0.61725 0.88822 0.0
H1046 H 0.39492 0.63765 0.90771 0.0
H1047 H 0.44095 0.63528 0.94587 0.0
H1048 H 0.38868 0.66499 0.00531 0.0
H1049 H 0.40022 0.64413 0.98437 0.0
C1050 C 0.5363 0.98025 0.16129 0.0
C1051 C 0.55206 0.96652 0.15331 0.0
C1052 C 0.52612 0.97038 0.17246 0.0
C1053 C 0.53715 0.92207 0.19642 0.0
H1054 H 0.47272 0.93799 0.20752 0.0
C1055 C 0.50706 0.89831 0.24874 0.0
C1056 C 0.48352 0.88898 0.24953 0.0
C1057 C 0.51397 0.90862 0.23693 0.0
C1058 C 0.49068 0.9332 0.2045 0.0
H1059 H 0.5685 0.93133 0.1503 0.0
H1060 H 0.5504 0.91392 0.16957 0.0
H1061 H 0.48668 0.95294 0.18643 0.0
H1062 H 0.44849 0.8838 0.2387 0.0
H1063 H 0.4607 0.90143 0.21791 0.0
H1064 H 0.54103 0.90186 0.21422 0.0
C1065 C 0.5464 0.93254 0.16748 0.0
C1066 C 0.49878 0.94199 0.19248 0.0
C1067 C 0.55673 0.94246 0.15641 0.0
C1068 C 0.46676 0.89089 0.2384 0.0
C1069 C 0.47375 0.90106 0.2265 0.0
C1070 C 0.52903 0.91323 0.20836 0.0
C1071 C 0.53135 0.94651 0.17582 0.0
C1072 C 0.52218 0.9366 0.18832 0.0
C1073 C 0.49759 0.90965 0.22555 0.0
C1074 C 0.50579 0.91884 0.21263 0.0
H1075 H 0.53256 0.99892 0.15922 0.0
H1076 H 0.51486 0.98178 0.17873 0.0
H1077 H 0.55539 0.9178 0.19367 0.0
H1078 H 0.52034 0.89736 0.25719 0.0
H1079 H 0.53228 0.9156 0.2367 0.0
C1080 C 0.09049 0.72469 0.91504 0.0
C1081 C 0.07736 0.70368 0.91035 0.0
C1082 C 0.10298 0.73816 0.90594 0.0
C1083 C 0.13059 0.7295 0.87317 0.0
H1084 H 0.1256 0.79888 0.86988 0.0
C1085 C 0.15644 0.77134 0.82498 0.0
C1086 C 0.17233 0.79136 0.82616 0.0
C1087 C 0.14513 0.76373 0.83628 0.0
C1088 C 0.12738 0.77955 0.87083 0.0
H1089 H 0.06555 0.68145 0.89232 0.0
H1090 H 0.08739 0.70455 0.87666 0.0
H1091 H 0.10568 0.77961 0.88829 0.0
H1092 H 0.1877 0.82005 0.83997 0.0
H1093 H 0.16773 0.80654 0.85994 0.0
H1094 H 0.15176 0.72909 0.85572 0.0
C1095 C 0.08858 0.71034 0.88736 0.0
C1096 C 0.11605 0.76856 0.88134 0.0
C1097 C 0.07614 0.69705 0.89636 0.0
C1098 C 0.17557 0.80452 0.83877 0.0
C1099 C 0.16417 0.79682 0.85018 0.0
C1100 C 0.14182 0.74038 0.86277 0.0
C1101 C 0.10252 0.73073 0.89206 0.0
C1102 C 0.11698 0.74331 0.88232 0.0
C1103 C 0.14947 0.77586 0.84909 0.0
C1104 C 0.13973 0.76538 0.86121 0.0
H1105 H 0.09167 0.73029 0.92576 0.0
H1106 H 0.11356 0.75388 0.90981 0.0
H1107 H 0.13208 0.71008 0.87388 0.0
H1108 H 0.15326 0.76101 0.81538 0.0
H1109 H 0.13342 0.74787 0.83507 0.0
C1110 C 0.46152 0.56285 0.14521 0.0
C1111 C 0.48663 0.56723 0.14698 0.0
C1112 C 0.44679 0.57781 0.13734 0.0
C1113 C 0.44632 0.63785 0.122 0.0
H1114 H 0.39887 0.60763 0.0958 0.0
C1115 C 0.41609 0.68023 0.07249 0.0
C1116 C 0.39127 0.6807 0.0686 0.0
C1117 C 0.42437 0.66766 0.08366 0.0
C1118 C 0.41174 0.61636 0.10323 0.0
H1119 H 0.51576 0.59129 0.14223 0.0
H1120 H 0.49038 0.61679 0.12825 0.0
H1121 H 0.41985 0.58311 0.11257 0.0
H1122 H 0.35561 0.66829 0.07336 0.0
H1123 H 0.37033 0.64555 0.09287 0.0
H1124 H 0.43907 0.67081 0.1122 0.0
C1125 C 0.4819 0.60204 0.13306 0.0
C1126 C 0.42376 0.60235 0.11285 0.0
C1127 C 0.49656 0.58716 0.14092 0.0
C1128 C 0.37483 0.66825 0.07615 0.0
C1129 C 0.38323 0.65523 0.08726 0.0
C1130 C 0.4345 0.65174 0.11233 0.0
C1131 C 0.45684 0.59751 0.1311 0.0
C1132 C 0.4417 0.61282 0.1221 0.0
C1133 C 0.40809 0.65497 0.09113 0.0
C1134 C 0.41758 0.64101 0.10263 0.0
H1135 H 0.45331 0.54754 0.14966 0.0
H1136 H 0.42754 0.57392 0.13613 0.0
H1137 H 0.45956 0.64663 0.1292 0.0
H1138 H 0.42923 0.68971 0.06692 0.0
H1139 H 0.44365 0.6675 0.08631 0.0
C1140 C 0.52538 0.00068 0.40332 0.0
C1141 C 0.52663 0.9938 0.41685 0.0
C1142 C 0.51408 0.98577 0.39299 0.0
C1143 C 0.49768 0.92222 0.38401 0.0
H1144 H 0.46414 0.9507 0.35328 0.0
C1145 C 0.45812 0.8677 0.33513 0.0
C1146 C 0.46575 0.87679 0.323 0.0
C1147 C 0.46275 0.8808 0.34758 0.0
C1148 C 0.47341 0.94251 0.36182 0.0
H1149 H 0.51655 0.96592 0.43014 0.0
H1150 H 0.49653 0.93971 0.41196 0.0
H1151 H 0.47579 0.9761 0.37362 0.0
H1152 H 0.48428 0.90665 0.31445 0.0
H1153 H 0.49199 0.92951 0.3361 0.0
H1154 H 0.49535 0.8886 0.372 0.0
C1155 C 0.50455 0.95667 0.40941 0.0
C1156 C 0.48014 0.95702 0.37345 0.0
C1157 C 0.51596 0.97167 0.41981 0.0
C1158 C 0.47819 0.8991 0.32359 0.0
C1159 C 0.48246 0.91229 0.33597 0.0
C1160 C 0.49068 0.90761 0.37239 0.0
C1161 C 0.50363 0.96352 0.39586 0.0
C1162 C 0.49309 0.94725 0.38451 0.0
C1163 C 0.47467 0.90336 0.34806 0.0
C1164 C 0.47916 0.91782 0.36104 0.0
H1165 H 0.53397 0.01726 0.4006 0.0
H1166 H 0.5143 0.99136 0.38264 0.0
H1167 H 0.50776 0.91414 0.39231 0.0
H1168 H 0.44853 0.85054 0.33499 0.0
H1169 H 0.4566 0.87355 0.35679 0.0
C1170 C 0.2077 0.09138 0.65698 0.0
C1171 C 0.21075 0.08524 0.67059 0.0
C1172 C 0.22145 0.08032 0.64705 0.0
C1173 C 0.27547 0.04514 0.63969 0.0
H1174 H 0.23461 0.02073 0.60859 0.0
C1175 C 0.30739 0.98197 0.59447 0.0
C1176 C 0.29627 0.98578 0.5816 0.0
C1177 C 0.30036 0.9955 0.60603 0.0
C1178 C 0.24639 0.0277 0.61709 0.0
H1179 H 0.23175 0.06395 0.68469 0.0
H1180 H 0.25604 0.04421 0.66709 0.0
H1181 H 0.2164 0.04149 0.62771 0.0
H1182 H 0.27085 0.00808 0.57052 0.0
H1183 H 0.25922 0.03206 0.59047 0.0
H1184 H 0.30556 0.03128 0.62885 0.0
C1185 C 0.24287 0.05765 0.6642 0.0
C1186 C 0.23591 0.03951 0.62808 0.0
C1187 C 0.229 0.06887 0.67424 0.0
C1188 C 0.27946 0.0045 0.58034 0.0
C1189 C 0.27268 0.01813 0.59179 0.0
C1190 C 0.28607 0.03329 0.62857 0.0
C1191 C 0.23862 0.06277 0.65046 0.0
C1192 C 0.25031 0.04877 0.63939 0.0
C1193 C 0.28225 0.01311 0.60484 0.0
C1194 C 0.27162 0.02487 0.61703 0.0
H1195 H 0.19416 0.10439 0.65394 0.0
H1196 H 0.21818 0.08503 0.63659 0.0
H1197 H 0.28696 0.05206 0.64832 0.0
H1198 H 0.3204 0.9676 0.59572 0.0
H1199 H 0.30809 0.99124 0.61594 0.0
C1200 C 0.57135 0.45597 0.90063 0.0
C1201 C 0.57467 0.45162 0.88669 0.0
C1202 C 0.58318 0.44203 0.91021 0.0
C1203 C 0.61487 0.38508 0.91602 0.0
H1204 H 0.64433 0.42326 0.94687 0.0
C1205 C 0.67917 0.34825 0.9595 0.0
C1206 C 0.67607 0.35874 0.9726 0.0
C1207 C 0.6656 0.35642 0.94823 0.0
C1208 C 0.636 0.41227 0.93841 0.0
H1209 H 0.59199 0.42835 0.8718 0.0
H1210 H 0.61303 0.40377 0.88875 0.0
H1211 H 0.62352 0.44349 0.92847 0.0
H1212 H 0.65493 0.38429 0.98436 0.0
H1213 H 0.63108 0.39806 0.96489 0.0
H1214 H 0.62755 0.35376 0.92618 0.0
C1215 C 0.60119 0.4181 0.89216 0.0
C1216 C 0.62411 0.42388 0.92784 0.0
C1217 C 0.58922 0.43215 0.88249 0.0
C1218 C 0.65798 0.37612 0.97437 0.0
C1219 C 0.64441 0.38411 0.9632 0.0
C1220 C 0.62688 0.37335 0.92669 0.0
C1221 C 0.5987 0.42333 0.90614 0.0
C1222 C 0.61295 0.41046 0.91667 0.0
C1223 C 0.64873 0.3751 0.94995 0.0
C1224 C 0.63709 0.38688 0.93813 0.0
H1225 H 0.5597 0.47039 0.90416 0.0
H1226 H 0.58039 0.44609 0.92089 0.0
H1227 H 0.60645 0.37429 0.90751 0.0
H1228 H 0.69302 0.33482 0.95786 0.0
H1229 H 0.66927 0.34911 0.93814 0.0
C1230 C 0.7276 0.09288 0.14497 0.0
C1231 C 0.70414 0.09987 0.14065 0.0
C1232 C 0.74026 0.10561 0.15582 0.0
C1233 C 0.72774 0.14214 0.18662 0.0
H1234 H 0.79693 0.15511 0.18916 0.0
C1235 C 0.80187 0.19598 0.2258 0.0
C1236 C 0.79511 0.18707 0.23814 0.0
C1237 C 0.79214 0.18575 0.21337 0.0
C1238 C 0.77757 0.15172 0.18856 0.0
H1239 H 0.67603 0.12639 0.14398 0.0
H1240 H 0.69828 0.1488 0.1627 0.0
H1241 H 0.77755 0.13815 0.16774 0.0
H1242 H 0.77329 0.15999 0.24707 0.0
H1243 H 0.7564 0.14219 0.22542 0.0
H1244 H 0.72764 0.15563 0.20735 0.0
C1245 C 0.70676 0.13329 0.1578 0.0
C1246 C 0.76653 0.14188 0.17634 0.0
C1247 C 0.69414 0.12062 0.14696 0.0
C1248 C 0.77882 0.16738 0.23777 0.0
C1249 C 0.76903 0.15725 0.22536 0.0
C1250 C 0.73877 0.15181 0.19881 0.0
C1251 C 0.72966 0.12553 0.1626 0.0
C1252 C 0.74149 0.13696 0.17526 0.0
C1253 C 0.77535 0.16651 0.21304 0.0
C1254 C 0.76381 0.15657 0.19995 0.0
H1255 H 0.73589 0.07712 0.14021 0.0
H1256 H 0.75785 0.09915 0.1593 0.0
H1257 H 0.70847 0.13825 0.18618 0.0
H1258 H 0.8144 0.21111 0.22572 0.0
H1259 H 0.79724 0.19335 0.20403 0.0
C1260 C 0.12281 0.17959 0.41787 0.0
C1261 C 0.11258 0.1715 0.40501 0.0
C1262 C 0.10923 0.1933 0.42697 0.0
C1263 C 0.04668 0.20231 0.43567 0.0
H1264 H 0.07274 0.25658 0.45871 0.0
C1265 C 0.0064 0.23213 0.48602 0.0
C1266 C 0.00187 0.2569 0.48853 0.0
C1267 C 0.01956 0.22418 0.47501 0.0
C1268 C 0.06518 0.24161 0.45225 0.0
H1269 H 0.08037 0.17258 0.39143 0.0
H1270 H 0.05654 0.19607 0.40747 0.0
H1271 H 0.09673 0.23883 0.44055 0.0
H1272 H 0.00801 0.29284 0.4816 0.0
H1273 H 0.03161 0.27882 0.46234 0.0
H1274 H 0.01545 0.20461 0.44753 0.0
C1275 C 0.07503 0.19161 0.4105 0.0
C1276 C 0.07894 0.23136 0.44194 0.0
C1277 C 0.08865 0.17805 0.40135 0.0
C1278 C 0.0112 0.27364 0.4799 0.0
C1279 C 0.02472 0.26566 0.46893 0.0
C1280 C 0.03309 0.21235 0.44603 0.0
C1281 C 0.08507 0.1991 0.42347 0.0
C1282 C 0.06992 0.21141 0.43366 0.0
C1283 C 0.02873 0.2408 0.46631 0.0
C1284 C 0.04234 0.23185 0.45455 0.0
H1285 H 0.14105 0.17463 0.4211 0.0
H1286 H 0.11734 0.19856 0.43697 0.0
H1287 H 0.03933 0.18682 0.42953 0.0
H1288 H -0.00051 0.21873 0.49246 0.0
H1289 H 0.02268 0.20495 0.47333 0.0
C1290 C 0.92415 0.58769 0.64293 0.0
C1291 C 0.94903 0.58394 0.64138 0.0
C1292 C 0.91153 0.57401 0.65185 0.0
C1293 C 0.9231 0.54459 0.68333 0.0
H1294 H 0.86385 0.50731 0.67526 0.0
C1295 C 0.89391 0.47421 0.71912 0.0
C1296 C 0.86931 0.47144 0.72161 0.0
C1297 C 0.90106 0.48881 0.70899 0.0
C1298 C 0.88016 0.51799 0.67772 0.0
H1299 H 0.97958 0.56151 0.64709 0.0
H1300 H 0.95777 0.53824 0.66282 0.0
H1301 H 0.88073 0.53092 0.65756 0.0
H1302 H 0.8328 0.48159 0.71523 0.0
H1303 H 0.84544 0.50773 0.69751 0.0
H1304 H 0.92274 0.53216 0.7034 0.0
C1305 C 0.94813 0.55193 0.65728 0.0
C1306 C 0.88983 0.53138 0.66759 0.0
C1307 C 0.96062 0.56533 0.64832 0.0
C1308 C 0.85191 0.48343 0.71356 0.0
C1309 C 0.85914 0.49829 0.70339 0.0
C1310 C 0.91338 0.53154 0.69344 0.0
C1311 C 0.92368 0.55655 0.65941 0.0
C1312 C 0.91175 0.54424 0.67024 0.0
C1313 C 0.88386 0.50134 0.70111 0.0
C1314 C 0.8922 0.51747 0.69068 0.0
H1315 H 0.91471 0.60194 0.63777 0.0
H1316 H 0.89266 0.57788 0.65334 0.0
H1317 H 0.93976 0.5548 0.6857 0.0
H1318 H 0.9078 0.465 0.72499 0.0
H1319 H 0.9202 0.49016 0.70729 0.0
C1320 C 0.69027 0.1435 0.40447 0.0
C1321 C 0.672 0.12565 0.4025 0.0
C1322 C 0.70115 0.15256 0.39329 0.0
C1323 C 0.71853 0.1352 0.35977 0.0
H1324 H 0.71601 0.20284 0.35141 0.0
C1325 C 0.75518 0.16547 0.31018 0.0
C1326 C 0.76677 0.18812 0.31024 0.0
C1327 C 0.74224 0.15917 0.32123 0.0
C1328 C 0.71727 0.18396 0.35368 0.0
H1329 H 0.65092 0.10307 0.38748 0.0
H1330 H 0.67059 0.11833 0.36795 0.0
H1331 H 0.69706 0.18949 0.37158 0.0
H1332 H 0.77363 0.22219 0.32175 0.0
H1333 H 0.75205 0.21085 0.34142 0.0
H1334 H 0.73954 0.12947 0.34244 0.0
C1335 C 0.67612 0.12558 0.3781 0.0
C1336 C 0.70629 0.17636 0.3652 0.0
C1337 C 0.66487 0.11694 0.38922 0.0
C1338 C 0.76469 0.20465 0.32143 0.0
C1339 C 0.75222 0.19813 0.33268 0.0
C1340 C 0.72994 0.14282 0.34846 0.0
C1341 C 0.69432 0.14345 0.38004 0.0
C1342 C 0.70664 0.15188 0.36823 0.0
C1343 C 0.74114 0.1751 0.33283 0.0
C1344 C 0.72924 0.16727 0.34512 0.0
H1345 H 0.69599 0.15048 0.41464 0.0
H1346 H 0.71526 0.16627 0.39499 0.0
H1347 H 0.71923 0.11625 0.36203 0.0
H1348 H 0.75628 0.15249 0.30159 0.0
H1349 H 0.73331 0.14163 0.32069 0.0
C1350 C 0.08294 0.22642 0.64457 0.0
C1351 C 0.07361 0.22842 0.65754 0.0
C1352 C 0.0726 0.23917 0.63395 0.0
C1353 C 0.01486 0.26491 0.62247 0.0
H1354 H 0.05331 0.28877 0.59422 0.0
C1355 C 0.97172 0.29966 0.57237 0.0
C1356 C 0.98167 0.28946 0.56056 0.0
C1357 C 0.98335 0.29703 0.58517 0.0
C1358 C 0.04234 0.28221 0.60204 0.0
H1359 H 0.04666 0.24602 0.6697 0.0
H1360 H 0.02854 0.26855 0.65106 0.0
H1361 H 0.07339 0.27625 0.61532 0.0
H1362 H 0.0119 0.26903 0.55291 0.0
H1363 H 0.03206 0.26448 0.57516 0.0
H1364 H 0.98385 0.27026 0.609 0.0
C1365 C 0.04378 0.25691 0.64913 0.0
C1366 C 0.05382 0.27504 0.61411 0.0
C1367 C 0.05424 0.24418 0.65981 0.0
C1368 C 0.0037 0.27706 0.5618 0.0
C1369 C 0.01538 0.27463 0.57455 0.0
C1370 C 0.00336 0.27217 0.6104 0.0
C1371 C 0.05264 0.25425 0.63603 0.0
C1372 C 0.04027 0.2656 0.62428 0.0
C1373 C 0.00525 0.2844 0.58638 0.0
C1374 C 0.01705 0.28019 0.5999 0.0
H1375 H 0.09806 0.21465 0.64257 0.0
H1376 H 0.0797 0.23645 0.62397 0.0
H1377 H 0.00391 0.25751 0.63005 0.0
H1378 H 0.95478 0.30935 0.57176 0.0
H1379 H 0.9752 0.30484 0.59412 0.0
C1380 C 0.91718 0.54286 0.89103 0.0
C1381 C 0.93559 0.56007 0.88964 0.0
C1382 C 0.90644 0.53014 0.87953 0.0
C1383 C 0.91923 0.51195 0.84412 0.0
H1384 H 0.8503 0.49817 0.8395 0.0
C1385 C 0.87547 0.47406 0.79316 0.0
C1386 C 0.85833 0.45523 0.79347 0.0
C1387 C 0.88384 0.48678 0.80515 0.0
C1388 C 0.86962 0.50168 0.84072 0.0
H1389 H 0.95615 0.57848 0.87514 0.0
H1390 H 0.9374 0.55652 0.85517 0.0
H1391 H 0.86659 0.52075 0.86009 0.0
H1392 H 0.83623 0.43531 0.80665 0.0
H1393 H 0.85103 0.4575 0.82762 0.0
H1394 H 0.92236 0.49302 0.82482 0.0
C1395 C 0.93168 0.55232 0.86511 0.0
C1396 C 0.87894 0.51459 0.85251 0.0
C1397 C 0.9424 0.56493 0.87655 0.0
C1398 C 0.84946 0.44969 0.80605 0.0
C1399 C 0.85783 0.46248 0.81806 0.0
C1400 C 0.90994 0.49912 0.83238 0.0
C1401 C 0.91389 0.53447 0.86647 0.0
C1402 C 0.90382 0.52008 0.85425 0.0
C1403 C 0.87529 0.48101 0.81774 0.0
C1404 C 0.88502 0.49403 0.83048 0.0
H1405 H 0.91164 0.53869 0.90101 0.0
H1406 H 0.89286 0.51642 0.88091 0.0
H1407 H 0.93856 0.51539 0.8453 0.0
H1408 H 0.8826 0.47893 0.78366 0.0
H1409 H 0.89701 0.50123 0.80454 0.0
C1410 C 0.65723 0.41092 0.14196 0.0
C1411 C 0.63194 0.40931 0.14213 0.0
C1412 C 0.6694 0.39865 0.13166 0.0
C1413 C 0.66077 0.35362 0.10184 0.0
H1414 H 0.71268 0.39116 0.08809 0.0
C1415 C 0.69165 0.34456 0.04673 0.0
C1416 C 0.71671 0.34418 0.045 0.0
C1417 C 0.6829 0.34854 0.05967 0.0
C1418 C 0.69845 0.3803 0.09193 0.0
H1419 H 0.59945 0.39328 0.13209 0.0
H1420 H 0.6204 0.37262 0.11373 0.0
H1421 H 0.69454 0.40517 0.10894 0.0
H1422 H 0.75225 0.3472 0.05549 0.0
H1423 H 0.73684 0.35479 0.07811 0.0
H1424 H 0.66396 0.32957 0.0842 0.0
C1425 C 0.63112 0.38263 0.12172 0.0
C1426 C 0.68809 0.38823 0.10395 0.0
C1427 C 0.61903 0.39452 0.13219 0.0
C1428 C 0.73284 0.34739 0.05651 0.0
C1429 C 0.72406 0.35178 0.06943 0.0
C1430 C 0.67091 0.34592 0.08967 0.0
C1431 C 0.65643 0.38503 0.12112 0.0
C1432 C 0.66889 0.37517 0.109 0.0
C1433 C 0.69902 0.3526 0.0711 0.0
C1434 C 0.68965 0.35935 0.08454 0.0
H1435 H 0.6675 0.42219 0.14961 0.0
H1436 H 0.68892 0.40044 0.13178 0.0
H1437 H 0.64637 0.34282 0.10552 0.0
H1438 H 0.67878 0.34202 0.03807 0.0
H1439 H 0.6635 0.3493 0.06069 0.0
loop_
_geom_bond_atom_site_label_1
_geom_bond_atom_site_label_2
_geom_bond_distance
_geom_bond_site_symmetry_2
_ccdc_geom_bond_type
C0 C1 1.398 . S
C0 C2 1.395 . S
C0 H28 0.906 1_545 S
C1 C0 1.398 . S
C1 C4 1.382 . S
C2 C0 1.395 . S
C2 C3 1.381 . S
C2 H29 0.939 . S
C3 C2 1.381 . S
C3 C5 1.381 . S
C3 C6 1.487 . S
C4 C1 1.382 . S
C4 C5 1.387 . S
C4 H30 0.930 . S
C5 C3 1.381 . S
C5 C4 1.387 . S
C5 H31 0.931 . S
C6 C3 1.487 . S
C6 C13 1.399 . S
C6 N44 1.343 . S
C7 C8 1.384 1_545 S
C7 C9 1.384 . S
C7 H32 0.931 . S
C8 C7 1.384 1_565 S
C8 C11 1.382 . S
C9 C7 1.384 . S
C9 C10 1.381 . S
C9 H33 0.930 . S
C10 C9 1.381 . S
C10 C12 1.381 . S
C10 C13 1.487 . S
C11 C8 1.382 . S
C11 C12 1.387 1_565 S
C11 H34 0.930 . S
C12 C10 1.381 . S
C12 C11 1.387 1_545 S
C12 H35 0.931 . S
C13 C6 1.399 . S
C13 C10 1.487 . S
C13 N45 1.343 . S
C14 C15 1.384 . S
C14 C16 1.384 . S
C14 H36 0.931 . S
C15 C14 1.384 . S
C15 C18 1.382 . S
C16 C14 1.384 . S
C16 C17 1.381 . S
C16 H37 0.930 . S
C17 C16 1.381 . S
C17 C19 1.381 . S
C17 C20 1.487 . S
C18 C15 1.382 . S
C18 C19 1.387 . S
C18 H38 0.930 . S
C19 C17 1.381 . S
C19 C18 1.387 . S
C19 H39 0.931 . S
C20 C17 1.487 . S
C20 C27 1.399 . S
C20 N45 1.343 . S
C21 C22 1.384 . S
C21 C23 1.384 . S
C21 H40 0.931 . S
C22 C21 1.384 . S
C22 C25 1.382 . S
C23 C21 1.384 . S
C23 C24 1.381 . S
C23 H41 0.930 . S
C24 C23 1.381 . S
C24 C26 1.381 . S
C24 C27 1.487 . S
C25 C22 1.382 . S
C25 C26 1.387 . S
C25 H42 0.930 . S
C26 C24 1.381 . S
C26 C25 1.387 . S
C26 H43 0.931 . S
C27 C20 1.399 . S
C27 C24 1.487 . S
C27 N44 1.343 . S
H28 C0 0.906 1_565 S
H29 C2 0.939 . S
H30 C4 0.930 . S
H31 C5 0.931 . S
H32 C7 0.931 . S
H33 C9 0.930 . S
H34 C11 0.930 . S
H35 C12 0.931 . S
H36 C14 0.931 . S
H37 C16 0.930 . S
H38 C18 0.930 . S
H39 C19 0.931 . S
H40 C21 0.931 . S
H41 C23 0.930 . S
H42 C25 0.930 . S
H43 C26 0.931 . S
N44 C6 1.343 . S
N44 C27 1.343 . S
N45 C13 1.343 . S
N45 C20 1.343 . S
C46 C47 1.384 . S
C46 C48 1.384 . S
C46 H74 0.931 . S
C47 C46 1.384 . S
C47 C50 1.382 1_655 S
C48 C46 1.384 . S
C48 C49 1.381 1_655 S
C48 H75 0.930 . S
C49 C48 1.381 1_455 S
C49 C51 1.381 . S
C49 C52 1.487 . S
C50 C47 1.382 1_455 S
C50 C51 1.387 . S
C50 H76 0.930 . S
C51 C49 1.381 . S
C51 C50 1.387 . S
C51 H77 0.931 . S
C52 C49 1.487 . S
C52 C59 1.399 . S
C52 N90 1.343 . S
C53 C54 1.384 . S
C53 C55 1.384 . S
C53 H78 0.931 . S
C54 C53 1.384 . S
C54 C57 1.382 . S
C55 C53 1.384 . S
C55 C56 1.381 . S
C55 H79 0.930 . S
C56 C55 1.381 . S
C56 C58 1.381 . S
C56 C59 1.487 . S
C57 C54 1.382 . S
C57 C58 1.387 . S
C57 H80 0.930 1_455 S
C58 C56 1.381 . S
C58 C57 1.387 . S
C58 H81 0.931 . S
C59 C52 1.399 . S
C59 C56 1.487 . S
C59 N91 1.343 . S
C60 C61 1.384 . S
C60 C62 1.384 . S
C60 H82 0.931 . S
C61 C60 1.384 . S
C61 C64 1.382 . S
C62 C60 1.384 . S
C62 C63 1.381 . S
C62 H83 0.930 . S
C63 C62 1.381 . S
C63 C65 1.381 . S
C63 C66 1.487 . S
C64 C61 1.382 . S
C64 C65 1.387 . S
C64 H84 0.930 . S
C65 C63 1.381 . S
C65 C64 1.387 . S
C65 H85 0.931 . S
C66 C63 1.487 . S
C66 C73 1.399 . S
C66 N91 1.343 . S
C67 C68 1.384 . S
C67 C69 1.384 . S
C67 H86 0.931 . S
C68 C67 1.384 . S
C68 C71 1.382 . S
C69 C67 1.384 . S
C69 C70 1.381 . S
C69 H87 0.930 . S
C70 C69 1.381 . S
C70 C72 1.381 . S
C70 C73 1.487 . S
C71 C68 1.382 . S
C71 C72 1.387 . S
C71 H88 0.930 . S
C72 C70 1.381 . S
C72 C71 1.387 . S
C72 H89 0.931 . S
C73 C66 1.399 . S
C73 C70 1.487 . S
C73 N90 1.343 . S
H74 C46 0.931 . S
H75 C48 0.930 . S
H76 C50 0.930 . S
H77 C51 0.931 . S
H78 C53 0.931 . S
H79 C55 0.930 . S
H80 C57 0.930 1_655 S
H81 C58 0.931 . S
H82 C60 0.931 . S
H83 C62 0.930 . S
H84 C64 0.930 . S
H85 C65 0.931 . S
H86 C67 0.931 . S
H87 C69 0.930 . S
H88 C71 0.930 . S
H89 C72 0.931 . S
N90 C52 1.343 . S
N90 C73 1.343 . S
N91 C59 1.343 . S
N91 C66 1.343 . S
C92 C93 1.384 . S
C92 C94 1.384 . S
C92 H120 0.931 . S
C93 C92 1.384 . S
C93 C96 1.382 . S
C94 C92 1.384 . S
C94 C95 1.381 . S
C94 H121 0.930 . S
C95 C94 1.381 . S
C95 C97 1.381 . S
C95 C98 1.487 . S
C96 C93 1.382 . S
C96 C97 1.387 . S
C96 H122 0.930 . S
C97 C95 1.381 . S
C97 C96 1.387 . S
C97 H123 0.931 . S
C98 C95 1.487 . S
C98 C105 1.399 . S
C98 N136 1.343 . S
C99 C100 1.384 . S
C99 C101 1.384 . S
C99 H124 0.931 . S
C100 C99 1.384 . S
C100 C103 1.382 . S
C101 C99 1.384 . S
C101 C102 1.381 . S
C101 H125 0.930 . S
C102 C101 1.381 . S
C102 C104 1.381 . S
C102 C105 1.487 . S
C103 C100 1.382 . S
C103 C104 1.387 . S
C103 H126 0.930 . S
C104 C102 1.381 . S
C104 C103 1.387 . S
C104 H127 0.931 . S
C105 C98 1.399 . S
C105 C102 1.487 . S
C105 N137 1.343 . S
C106 C107 1.384 . S
C106 C108 1.384 . S
C106 H128 0.931 . S
C107 C106 1.384 . S
C107 C110 1.382 . S
C108 C106 1.384 . S
C108 C109 1.381 . S
C108 H129 0.930 . S
C109 C108 1.381 . S
C109 C111 1.381 . S
C109 C112 1.487 . S
C110 C107 1.382 . S
C110 C111 1.387 . S
C110 H130 0.930 . S
C111 C109 1.381 . S
C111 C110 1.387 . S
C111 H131 0.931 . S
C112 C109 1.487 . S
C112 C119 1.399 . S
C112 N137 1.343 . S
C113 C114 1.384 . S
C113 C115 1.384 . S
C113 H132 0.931 . S
C114 C113 1.384 . S
C114 C117 1.382 . S
C115 C113 1.384 . S
C115 C116 1.381 . S
C115 H133 0.930 . S
C116 C115 1.381 . S
C116 C118 1.381 . S
C116 C119 1.487 . S
C117 C114 1.382 . S
C117 C118 1.387 . S
C117 H134 0.930 . S
C118 C116 1.381 . S
C118 C117 1.387 . S
C118 H135 0.931 . S
C119 C112 1.399 . S
C119 C116 1.487 . S
C119 N136 1.343 . S
H120 C92 0.931 . S
H121 C94 0.930 . S
H122 C96 0.930 . S
H123 C97 0.931 . S
H124 C99 0.931 . S
H125 C101 0.930 . S
H126 C103 0.930 . S
H127 C104 0.931 . S
H128 C106 0.931 . S
H129 C108 0.930 . S
H130 C110 0.930 . S
H131 C111 0.931 . S
H132 C113 0.931 . S
H133 C115 0.930 . S
H134 C117 0.930 . S
H135 C118 0.931 . S
N136 C98 1.343 . S
N136 C119 1.343 . S
N137 C105 1.343 . S
N137 C112 1.343 . S
C138 C139 1.384 . S
C138 C140 1.384 . S
C138 H166 0.931 . S
C139 C138 1.384 . S
C139 C142 1.382 . S
C140 C138 1.384 . S
C140 C141 1.381 . S
C140 H167 0.930 . S
C141 C140 1.381 . S
C141 C143 1.381 . S
C141 C144 1.487 . S
C142 C139 1.382 . S
C142 C143 1.387 . S
C142 H168 0.930 . S
C143 C141 1.381 . S
C143 C142 1.387 . S
C143 H169 0.931 . S
C144 C141 1.487 . S
C144 C151 1.399 . S
C144 N182 1.343 1_565 S
C145 C146 1.384 . S
C145 C147 1.384 . S
C145 H170 0.931 . S
C146 C145 1.384 . S
C146 C149 1.382 . S
C147 C145 1.384 . S
C147 C148 1.381 . S
C147 H171 0.930 . S
C148 C147 1.381 . S
C148 C150 1.381 . S
C148 C151 1.487 . S
C149 C146 1.382 . S
C149 C150 1.387 . S
C149 H172 0.930 . S
C150 C148 1.381 . S
C150 C149 1.387 . S
C150 H173 0.931 . S
C151 C144 1.399 . S
C151 C148 1.487 . S
C151 N183 1.343 . S
C152 C153 1.384 . S
C152 C154 1.384 . S
C152 H174 0.931 . S
C153 C152 1.384 . S
C153 C156 1.382 . S
C154 C152 1.384 . S
C154 C155 1.381 . S
C154 H175 0.930 . S
C155 C154 1.381 . S
C155 C157 1.381 . S
C155 C158 1.487 . S
C156 C153 1.382 . S
C156 C157 1.387 . S
C156 H176 0.930 . S
C157 C155 1.381 . S
C157 C156 1.387 . S
C157 H177 0.931 . S
C158 C155 1.487 . S
C158 C165 1.399 . S
C158 N183 1.343 1_545 S
C159 C160 1.384 . S
C159 C161 1.384 . S
C159 H178 0.931 . S
C160 C159 1.384 . S
C160 C163 1.382 . S
C161 C159 1.384 . S
C161 C162 1.381 . S
C161 H179 0.930 . S
C162 C161 1.381 . S
C162 C164 1.381 . S
C162 C165 1.487 . S
C163 C160 1.382 . S
C163 C164 1.387 . S
C163 H180 0.930 . S
C164 C162 1.381 . S
C164 C163 1.387 . S
C164 H181 0.931 . S
C165 C158 1.399 . S
C165 C162 1.487 . S
C165 N182 1.343 . S
H166 C138 0.931 . S
H167 C140 0.930 . S
H168 C142 0.930 . S
H169 C143 0.931 . S
H170 C145 0.931 . S
H171 C147 0.930 . S
H172 C149 0.930 . S
H173 C150 0.931 . S
H174 C152 0.931 . S
H175 C154 0.930 . S
H176 C156 0.930 . S
H177 C157 0.931 . S
H178 C159 0.931 . S
H179 C161 0.930 . S
H180 C163 0.930 . S
H181 C164 0.931 . S
N182 C144 1.343 1_545 S
N182 C165 1.343 . S
N183 C151 1.343 . S
N183 C158 1.343 1_565 S
C184 C185 1.384 . S
C184 C186 1.384 . S
C184 H212 0.931 . S
C185 C184 1.384 . S
C185 C188 1.382 . S
C186 C184 1.384 . S
C186 C187 1.381 . S
C186 H213 0.930 . S
C187 C186 1.381 . S
C187 C189 1.381 . S
C187 C190 1.487 . S
C188 C185 1.382 . S
C188 C189 1.387 . S
C188 H214 0.930 . S
C189 C187 1.381 . S
C189 C188 1.387 . S
C189 H215 0.931 . S
C190 C187 1.487 . S
C190 C197 1.399 . S
C190 N228 1.342 1_455 S
C191 C192 1.384 . S
C191 C193 1.384 . S
C191 H216 0.931 . S
C192 C191 1.384 . S
C192 C195 1.382 . S
C193 C191 1.384 . S
C193 C194 1.381 . S
C193 H217 0.930 . S
C194 C193 1.381 . S
C194 C196 1.381 . S
C194 C197 1.487 . S
C195 C192 1.382 . S
C195 C196 1.387 . S
C195 H218 1.000 . S
C196 C194 1.381 . S
C196 C195 1.387 . S
C196 H219 0.931 . S
C197 C190 1.399 . S
C197 C194 1.487 . S
C197 N229 1.352 . S
C198 C199 1.384 . S
C198 C200 1.384 . S
C198 H220 0.931 . S
C199 C198 1.384 . S
C199 C202 1.382 . S
C200 C198 1.384 . S
C200 C201 1.381 . S
C200 H221 0.930 . S
C201 C200 1.381 . S
C201 C203 1.381 . S
C201 C204 1.487 . S
C202 C199 1.382 . S
C202 C203 1.387 . S
C202 H222 0.930 . S
C203 C201 1.381 . S
C203 C202 1.387 . S
C203 H223 0.931 . S
C204 C201 1.487 . S
C204 C211 1.399 . S
C204 N229 1.335 1_655 S
C205 C206 1.384 . S
C205 C207 1.384 . S
C205 H224 0.931 . S
C206 C205 1.384 . S
C206 C209 1.382 . S
C207 C205 1.384 . S
C207 C208 1.381 . S
C207 H225 0.930 . S
C208 C207 1.381 . S
C208 C210 1.381 . S
C208 C211 1.487 . S
C209 C206 1.382 . S
C209 C210 1.387 . S
C209 H226 0.930 . S
C210 C208 1.381 . S
C210 C209 1.387 . S
C210 H227 0.931 . S
C211 C204 1.399 . S
C211 C208 1.487 . S
C211 N228 1.344 . S
H212 C184 0.931 . S
H213 C186 0.930 . S
H214 C188 0.930 . S
H215 C189 0.931 . S
H216 C191 0.931 . S
H217 C193 0.930 . S
H218 C195 1.000 . S
H219 C196 0.931 . S
H220 C198 0.931 . S
H221 C200 0.930 . S
H222 C202 0.930 . S
H223 C203 0.931 . S
H224 C205 0.931 . S
H225 C207 0.930 . S
H226 C209 0.930 . S
H227 C210 0.931 . S
N228 C190 1.342 1_655 S
N228 C211 1.344 . S
N229 C197 1.352 . S
N229 C204 1.335 1_455 S
C230 C231 1.384 . S
C230 C232 1.384 . S
C230 H258 0.931 . S
C231 C230 1.384 . S
C231 C234 1.382 . S
C232 C230 1.384 . S
C232 C233 1.381 . S
C232 H259 0.930 . S
C233 C232 1.381 . S
C233 C235 1.381 . S
C233 C236 1.487 . S
C234 C231 1.382 . S
C234 C235 1.387 . S
C234 H260 0.930 . S
C235 C233 1.381 . S
C235 C234 1.387 . S
C235 H261 0.931 . S
C236 C233 1.487 . S
C236 C243 1.399 . S
C236 N274 1.343 . S
C237 C238 1.384 . S
C237 C239 1.384 . S
C237 H262 0.931 . S
C238 C237 1.384 . S
C238 C241 1.382 . S
C239 C237 1.384 . S
C239 C240 1.381 . S
C239 H263 0.930 . S
C240 C239 1.381 . S
C240 C242 1.381 . S
C240 C243 1.487 . S
C241 C238 1.382 . S
C241 C242 1.387 . S
C241 H264 0.930 . S
C242 C240 1.381 . S
C242 C241 1.387 . S
C242 H265 0.931 . S
C243 C236 1.399 . S
C243 C240 1.487 . S
C243 N275 1.343 . S
C244 C245 1.384 . S
C244 C246 1.384 . S
C244 H266 0.931 . S
C245 C244 1.384 . S
C245 C248 1.382 . S
C246 C244 1.384 . S
C246 C247 1.381 . S
C246 H267 0.930 . S
C247 C246 1.381 . S
C247 C249 1.381 . S
C247 C250 1.487 . S
C248 C245 1.382 . S
C248 C249 1.387 . S
C248 H268 0.930 . S
C249 C247 1.381 . S
C249 C248 1.387 . S
C249 H269 0.931 . S
C250 C247 1.487 . S
C250 C257 1.399 . S
C250 N275 1.343 . S
C251 C252 1.384 . S
C251 C253 1.384 . S
C251 H270 0.931 . S
C252 C251 1.384 . S
C252 C255 1.382 . S
C253 C251 1.384 . S
C253 C254 1.381 . S
C253 H271 0.930 . S
C254 C253 1.381 . S
C254 C256 1.381 . S
C254 C257 1.487 . S
C255 C252 1.382 . S
C255 C256 1.387 . S
C255 H272 0.930 . S
C256 C254 1.381 . S
C256 C255 1.387 . S
C256 H273 0.931 . S
C257 C250 1.399 . S
C257 C254 1.487 . S
C257 N274 1.343 . S
H258 C230 0.931 . S
H259 C232 0.930 . S
H260 C234 0.930 . S
H261 C235 0.931 . S
H262 C237 0.931 . S
H263 C239 0.930 . S
H264 C241 0.930 . S
H265 C242 0.931 . S
H266 C244 0.931 . S
H267 C246 0.930 . S
H268 C248 0.930 . S
H269 C249 0.931 . S
H270 C251 0.931 . S
H271 C253 0.930 . S
H272 C255 0.930 . S
H273 C256 0.931 . S
N274 C236 1.343 . S
N274 C257 1.343 . S
N275 C243 1.343 . S
N275 C250 1.343 . S
C276 C277 1.384 . S
C276 C278 1.384 . S
C276 H304 0.931 . S
C277 C276 1.384 . S
C277 C280 1.382 . S
C278 C276 1.384 . S
C278 C279 1.381 . S
C278 H305 0.930 . S
C279 C278 1.381 . S
C279 C281 1.381 1_565 S
C279 C282 1.487 1_565 S
C280 C277 1.382 . S
C280 C281 1.387 1_565 S
C280 H306 0.930 . S
C281 C279 1.381 1_545 S
C281 C280 1.387 1_545 S
C281 H307 0.931 . S
C282 C279 1.487 1_545 S
C282 C289 1.399 . S
C282 N320 1.343 . S
C283 C284 1.404 . S
C283 C285 1.368 1_565 S
C283 H308 0.929 1_565 S
C284 C283 1.404 . S
C284 C287 1.382 . S
C285 C283 1.368 1_545 S
C285 C286 1.381 . S
C285 H309 0.930 . S
C286 C285 1.381 . S
C286 C288 1.381 1_545 S
C286 C289 1.487 . S
C287 C284 1.382 . S
C287 C288 1.387 . S
C287 H310 0.930 . S
C288 C286 1.381 1_565 S
C288 C287 1.387 . S
C288 H311 0.931 . S
C289 C282 1.399 . S
C289 C286 1.487 . S
C289 N321 1.343 . S
C290 C291 1.384 . S
C290 C292 1.384 . S
C290 H312 0.931 . S
C291 C290 1.384 . S
C291 C294 1.382 . S
C292 C290 1.384 . S
C292 C293 1.381 . S
C292 H313 0.930 . S
C293 C292 1.381 . S
C293 C295 1.381 . S
C293 C296 1.487 . S
C294 C291 1.382 . S
C294 C295 1.387 . S
C294 H314 0.930 . S
C295 C293 1.381 . S
C295 C294 1.387 . S
C295 H315 0.931 . S
C296 C293 1.487 . S
C296 C303 1.399 . S
C296 N321 1.343 . S
C297 C298 1.384 . S
C297 C299 1.384 . S
C297 H316 0.931 . S
C298 C297 1.384 . S
C298 C301 1.382 . S
C299 C297 1.384 . S
C299 C300 1.381 . S
C299 H317 0.930 . S
C300 C299 1.381 . S
C300 C302 1.381 . S
C300 C303 1.487 . S
C301 C298 1.382 . S
C301 C302 1.387 . S
C301 H318 0.930 . S
C302 C300 1.381 . S
C302 C301 1.387 . S
C302 H319 0.931 . S
C303 C296 1.399 . S
C303 C300 1.487 . S
C303 N320 1.343 . S
H304 C276 0.931 . S
H305 C278 0.930 . S
H306 C280 0.930 . S
H307 C281 0.931 . S
H308 C283 0.929 1_545 S
H309 C285 0.930 . S
H310 C287 0.930 . S
H311 C288 0.931 . S
H312 C290 0.931 . S
H313 C292 0.930 . S
H314 C294 0.930 . S
H315 C295 0.931 . S
H316 C297 0.931 . S
H317 C299 0.930 . S
H318 C301 0.930 . S
H319 C302 0.931 . S
N320 C282 1.343 . S
N320 C303 1.343 . S
N321 C289 1.343 . S
N321 C296 1.343 . S
C322 C323 1.384 . S
C322 C324 1.384 . S
C322 H350 0.931 . S
C323 C322 1.384 . S
C323 C326 1.382 . S
C324 C322 1.384 . S
C324 C325 1.381 . S
C324 H351 0.930 . S
C325 C324 1.381 . S
C325 C327 1.381 . S
C325 C328 1.487 . S
C326 C323 1.382 . S
C326 C327 1.387 . S
C326 H352 0.930 . S
C327 C325 1.381 . S
C327 C326 1.387 . S
C327 H353 0.931 . S
C328 C325 1.487 . S
C328 C335 1.399 . S
C328 N366 1.343 . S
C329 C330 1.384 . S
C329 C331 1.384 . S
C329 H354 0.931 . S
C330 C329 1.384 . S
C330 C333 1.382 . S
C331 C329 1.384 . S
C331 C332 1.381 . S
C331 H355 0.930 . S
C332 C331 1.381 . S
C332 C334 1.381 . S
C332 C335 1.487 . S
C333 C330 1.382 . S
C333 C334 1.387 . S
C333 H356 0.930 . S
C334 C332 1.381 . S
C334 C333 1.387 . S
C334 H357 0.931 . S
C335 C328 1.399 . S
C335 C332 1.487 . S
C335 N367 1.343 . S
C336 C337 1.384 . S
C336 C338 1.384 . S
C336 H358 0.931 . S
C337 C336 1.384 . S
C337 C340 1.382 . S
C338 C336 1.384 . S
C338 C339 1.381 . S
C338 H359 0.930 . S
C339 C338 1.381 . S
C339 C341 1.381 . S
C339 C342 1.487 . S
C340 C337 1.382 . S
C340 C341 1.387 . S
C340 H360 0.930 . S
C341 C339 1.381 . S
C341 C340 1.387 . S
C341 H361 0.931 . S
C342 C339 1.487 . S
C342 C349 1.399 . S
C342 N367 1.343 . S
C343 C344 1.384 . S
C343 C345 1.384 . S
C343 H362 0.931 . S
C344 C343 1.384 . S
C344 C347 1.382 . S
C345 C343 1.384 . S
C345 C346 1.381 . S
C345 H363 0.930 . S
C346 C345 1.381 . S
C346 C348 1.381 . S
C346 C349 1.487 . S
C347 C344 1.382 . S
C347 C348 1.387 . S
C347 H364 0.930 . S
C348 C346 1.381 . S
C348 C347 1.387 . S
C348 H365 0.931 . S
C349 C342 1.399 . S
C349 C346 1.487 . S
C349 N366 1.343 . S
H350 C322 0.931 . S
H351 C324 0.930 . S
H352 C326 0.930 . S
H353 C327 0.931 . S
H354 C329 0.931 . S
H355 C331 0.930 . S
H356 C333 0.930 . S
H357 C334 0.931 . S
H358 C336 0.931 . S
H359 C338 0.930 . S
H360 C340 0.930 . S
H361 C341 0.931 . S
H362 C343 0.931 . S
H363 C345 0.930 . S
H364 C347 0.930 . S
H365 C348 0.931 . S
N366 C328 1.343 . S
N366 C349 1.343 . S
N367 C335 1.343 . S
N367 C342 1.343 . S
O368 Cd369 2.223 . S
O368 C376 1.315 . S
Cd369 O368 2.223 . S
Cd369 O372 2.297 . S
Cd369 O373 2.439 . S
Cd369 O379 2.240 . S
Cd370 O371 2.240 . S
Cd370 O378 2.223 . S
Cd370 O380 2.297 . S
Cd370 O381 2.439 . S
O371 Cd370 2.240 . S
O371 C376 1.279 . S
O372 Cd369 2.297 . S
O372 C374 1.247 . S
O373 Cd369 2.439 . S
O373 C374 1.208 . S
C374 O372 1.247 . S
C374 O373 1.208 . S
C375 O380 1.247 . S
C375 O381 1.208 . S
C376 O368 1.315 . S
C376 O371 1.279 . S
C377 O378 1.315 . S
C377 O379 1.279 . S
O378 Cd370 2.223 . S
O378 C377 1.315 . S
O379 Cd369 2.240 . S
O379 C377 1.279 . S
O380 Cd370 2.297 . S
O380 C375 1.247 . S
O381 Cd370 2.439 . S
O381 C375 1.208 . S
O382 Cd383 2.223 . S
O382 C390 1.315 . S
Cd383 O382 2.223 . S
Cd383 O386 2.297 . S
Cd383 O387 2.439 . S
Cd383 O393 2.240 . S
Cd384 O385 2.240 . S
Cd384 O392 2.223 . S
Cd384 O394 2.297 . S
Cd384 O395 2.439 . S
O385 Cd384 2.240 . S
O385 C390 1.279 . S
O386 Cd383 2.297 . S
O386 C388 1.247 . S
O387 Cd383 2.439 . S
O387 C388 1.208 . S
C388 O386 1.247 . S
C388 O387 1.208 . S
C389 O394 1.247 . S
C389 O395 1.208 . S
C390 O382 1.315 . S
C390 O385 1.279 . S
C391 O392 1.315 . S
C391 O393 1.279 . S
O392 Cd384 2.223 . S
O392 C391 1.315 . S
O393 Cd383 2.240 . S
O393 C391 1.279 . S
O394 Cd384 2.297 . S
O394 C389 1.247 . S
O395 Cd384 2.439 . S
O395 C389 1.208 . S
O396 Cd397 2.223 . S
O396 C404 1.315 . S
Cd397 O396 2.223 . S
Cd397 O400 2.297 . S
Cd397 O401 2.439 . S
Cd397 O407 2.240 . S
Cd398 O399 2.240 . S
Cd398 O406 2.223 . S
Cd398 O408 2.297 . S
Cd398 O409 2.439 . S
O399 Cd398 2.240 . S
O399 C404 1.279 . S
O400 Cd397 2.297 . S
O400 C402 1.247 . S
O401 Cd397 2.439 . S
O401 C402 1.208 . S
C402 O400 1.247 . S
C402 O401 1.208 . S
C403 O408 1.247 . S
C403 O409 1.208 . S
C404 O396 1.315 . S
C404 O399 1.279 . S
C405 O406 1.315 . S
C405 O407 1.279 . S
O406 Cd398 2.223 . S
O406 C405 1.315 . S
O407 Cd397 2.240 . S
O407 C405 1.279 . S
O408 Cd398 2.297 . S
O408 C403 1.247 . S
O409 Cd398 2.439 . S
O409 C403 1.208 . S
O410 Cd411 2.223 . S
O410 C418 1.315 . S
Cd411 O410 2.223 . S
Cd411 O414 2.297 . S
Cd411 O415 2.439 . S
Cd411 O421 2.240 . S
Cd412 O413 2.240 . S
Cd412 O420 2.223 . S
Cd412 O422 2.297 . S
Cd412 O423 2.439 . S
O413 Cd412 2.240 . S
O413 C418 1.279 . S
O414 Cd411 2.297 . S
O414 C416 1.247 . S
O415 Cd411 2.439 . S
O415 C416 1.208 . S
C416 O414 1.247 . S
C416 O415 1.208 . S
C417 O422 1.247 . S
C417 O423 1.208 . S
C418 O410 1.315 . S
C418 O413 1.279 . S
C419 O420 1.315 . S
C419 O421 1.279 . S
O420 Cd412 2.223 . S
O420 C419 1.315 . S
O421 Cd411 2.240 . S
O421 C419 1.279 . S
O422 Cd412 2.297 . S
O422 C417 1.247 . S
O423 Cd412 2.439 . S
O423 C417 1.208 . S
O424 Cd425 2.223 . S
O424 C432 1.315 . S
Cd425 O424 2.223 . S
Cd425 O428 2.297 . S
Cd425 O429 2.439 . S
Cd425 O435 2.240 . S
Cd426 O427 2.240 . S
Cd426 O434 2.223 . S
Cd426 O436 2.297 . S
Cd426 O437 2.439 . S
O427 Cd426 2.240 . S
O427 C432 1.279 . S
O428 Cd425 2.297 . S
O428 C430 1.247 . S
O429 Cd425 2.439 . S
O429 C430 1.208 . S
C430 O428 1.247 . S
C430 O429 1.208 . S
C431 O436 1.247 . S
C431 O437 1.208 . S
C432 O424 1.315 . S
C432 O427 1.279 . S
C433 O434 1.315 . S
C433 O435 1.279 . S
O434 Cd426 2.223 . S
O434 C433 1.315 . S
O435 Cd425 2.240 . S
O435 C433 1.279 . S
O436 Cd426 2.297 . S
O436 C431 1.247 . S
O437 Cd426 2.439 . S
O437 C431 1.208 . S
O438 Cd439 2.223 . S
O438 C446 1.315 . S
Cd439 O438 2.223 . S
Cd439 O442 2.297 . S
Cd439 O443 2.439 . S
Cd439 O449 2.240 . S
Cd440 O441 2.240 . S
Cd440 O448 2.223 . S
Cd440 O450 2.297 . S
Cd440 O451 2.439 . S
O441 Cd440 2.240 . S
O441 C446 1.279 . S
O442 Cd439 2.297 . S
O442 C444 1.247 . S
O443 Cd439 2.439 . S
O443 C444 1.208 . S
C444 O442 1.247 . S
C444 O443 1.208 . S
C445 O450 1.247 . S
C445 O451 1.208 . S
C446 O438 1.315 . S
C446 O441 1.279 . S
C447 O448 1.315 . S
C447 O449 1.279 . S
O448 Cd440 2.223 . S
O448 C447 1.315 . S
O449 Cd439 2.240 . S
O449 C447 1.279 . S
O450 Cd440 2.297 . S
O450 C445 1.247 . S
O451 Cd440 2.439 . S
O451 C445 1.208 . S
O452 Cd453 2.223 . S
O452 C460 1.315 . S
Cd453 O452 2.223 . S
Cd453 O456 2.297 . S
Cd453 O457 2.439 . S
Cd453 O463 2.240 1_554 S
Cd454 O455 2.234 . S
Cd454 O462 2.223 . S
Cd454 O464 2.304 1_554 S
Cd454 O465 2.444 1_554 S
O455 Cd454 2.234 . S
O455 C460 1.279 . S
O456 Cd453 2.297 . S
O456 C458 1.247 . S
O457 Cd453 2.439 . S
O457 C458 1.208 . S
C458 O456 1.247 . S
C458 O457 1.208 . S
C459 O464 1.247 . S
C459 O465 1.208 . S
C460 O452 1.315 . S
C460 O455 1.279 . S
C461 O462 1.314 1_556 S
C461 O463 1.281 . S
O462 Cd454 2.223 . S
O462 C461 1.314 1_554 S
O463 Cd453 2.240 1_556 S
O463 C461 1.281 . S
O464 Cd454 2.304 1_556 S
O464 C459 1.247 . S
O465 Cd454 2.444 1_556 S
O465 C459 1.208 . S
O466 Cd467 2.223 . S
O466 C474 1.315 . S
Cd467 O466 2.223 . S
Cd467 O470 2.297 . S
Cd467 O471 2.439 . S
Cd467 O477 2.240 . S
Cd468 O469 2.240 . S
Cd468 O476 2.223 . S
Cd468 O478 2.297 . S
Cd468 O479 2.439 . S
O469 Cd468 2.240 . S
O469 C474 1.279 . S
O470 Cd467 2.297 . S
O470 C472 1.247 . S
O471 Cd467 2.439 . S
O471 C472 1.208 . S
C472 O470 1.247 . S
C472 O471 1.208 . S
C473 O478 1.247 . S
C473 O479 1.208 . S
C474 O466 1.315 . S
C474 O469 1.279 . S
C475 O476 1.315 . S
C475 O477 1.279 . S
O476 Cd468 2.223 . S
O476 C475 1.315 . S
O477 Cd467 2.240 . S
O477 C475 1.279 . S
O478 Cd468 2.297 . S
O478 C473 1.247 . S
O479 Cd468 2.439 . S
O479 C473 1.208 . S
C480 C481 1.349 . S
C480 C482 1.327 . S
C480 H505 0.950 1_565 S
C481 C480 1.349 . S
C481 C497 1.349 . S
C482 C480 1.327 . S
C482 C501 1.429 . S
C482 H506 0.950 . S
C483 C500 1.574 . S
C483 C502 1.368 . S
C483 H507 0.949 . S
H484 C488 0.949 . S
C485 C486 1.349 . S
C485 C487 1.327 . S
C485 H508 0.950 . S
C486 C485 1.349 . S
C486 C498 1.349 . S
C487 C485 1.327 . S
C487 C503 1.429 . S
C487 H509 0.950 . S
C488 H484 0.949 . S
C488 C496 1.574 . S
C488 C504 1.368 . S
H489 C497 0.950 . S
H490 C495 0.950 . S
H491 C496 0.949 . S
H492 C498 0.950 . S
H493 C499 0.950 . S
H494 C500 0.949 . S
C495 H490 0.950 . S
C495 C497 1.327 . S
C495 C501 1.429 . S
C496 C488 1.574 . S
C496 H491 0.949 . S
C496 C502 1.368 . S
C497 C481 1.349 . S
C497 H489 0.950 . S
C497 C495 1.327 . S
C498 C486 1.349 . S
C498 H492 0.950 . S
C498 C499 1.327 . S
C499 H493 0.950 . S
C499 C498 1.327 . S
C499 C503 1.429 . S
C500 C483 1.574 . S
C500 H494 0.949 . S
C500 C504 1.368 . S
C501 C482 1.429 . S
C501 C495 1.429 . S
C501 C502 1.523 . S
C502 C483 1.368 . S
C502 C496 1.368 . S
C502 C501 1.523 . S
C503 C487 1.429 . S
C503 C499 1.429 . S
C503 C504 1.523 . S
C504 C488 1.368 . S
C504 C500 1.368 . S
C504 C503 1.523 . S
H505 C480 0.950 1_545 S
H506 C482 0.950 . S
H507 C483 0.949 . S
H508 C485 0.950 . S
H509 C487 0.950 . S
C510 C511 1.349 . S
C510 C512 1.327 . S
C510 H535 0.950 . S
C511 C510 1.349 . S
C511 C527 1.349 . S
C512 C510 1.327 . S
C512 C531 1.429 . S
C512 H536 0.950 . S
C513 C530 1.574 . S
C513 C532 1.368 . S
C513 H537 0.949 . S
H514 C518 0.949 . S
C515 C516 1.349 . S
C515 C517 1.327 . S
C515 H538 0.950 . S
C516 C515 1.349 . S
C516 C528 1.349 . S
C517 C515 1.327 . S
C517 C533 1.429 . S
C517 H539 0.950 . S
C518 H514 0.949 . S
C518 C526 1.574 . S
C518 C534 1.368 . S
H519 C527 0.950 . S
H520 C525 0.950 . S
H521 C526 0.949 . S
H522 C528 0.950 . S
H523 C529 0.950 . S
H524 C530 0.949 . S
C525 H520 0.950 . S
C525 C527 1.327 . S
C525 C531 1.429 . S
C526 C518 1.574 . S
C526 H521 0.949 . S
C526 C532 1.368 . S
C527 C511 1.349 . S
C527 H519 0.950 . S
C527 C525 1.327 . S
C528 C516 1.349 . S
C528 H522 0.950 . S
C528 C529 1.327 . S
C529 H523 0.950 . S
C529 C528 1.327 . S
C529 C533 1.429 . S
C530 C513 1.574 . S
C530 H524 0.949 . S
C530 C534 1.368 . S
C531 C512 1.429 . S
C531 C525 1.429 . S
C531 C532 1.523 . S
C532 C513 1.368 . S
C532 C526 1.368 . S
C532 C531 1.523 . S
C533 C517 1.429 . S
C533 C529 1.429 . S
C533 C534 1.523 . S
C534 C518 1.368 . S
C534 C530 1.368 . S
C534 C533 1.523 . S
H535 C510 0.950 . S
H536 C512 0.950 . S
H537 C513 0.949 . S
H538 C515 0.950 . S
H539 C517 0.950 . S
C540 C541 1.349 . S
C540 C542 1.327 . S
C540 H565 0.950 . S
C541 C540 1.349 . S
C541 C557 1.349 . S
C542 C540 1.327 . S
C542 C561 1.429 . S
C542 H566 0.950 . S
C543 C560 1.574 . S
C543 C562 1.368 . S
C543 H567 0.949 . S
H544 C548 0.949 . S
C545 C546 1.349 . S
C545 C547 1.327 . S
C545 H568 0.950 . S
C546 C545 1.349 . S
C546 C558 1.349 . S
C547 C545 1.327 . S
C547 C563 1.429 . S
C547 H569 0.950 . S
C548 H544 0.949 . S
C548 C556 1.574 . S
C548 C564 1.368 . S
H549 C557 0.950 . S
H550 C555 0.950 . S
H551 C556 0.949 . S
H552 C558 0.950 . S
H553 C559 0.950 . S
H554 C560 0.949 . S
C555 H550 0.950 . S
C555 C557 1.327 . S
C555 C561 1.429 . S
C556 C548 1.574 . S
C556 H551 0.949 . S
C556 C562 1.368 . S
C557 C541 1.349 . S
C557 H549 0.950 . S
C557 C555 1.327 . S
C558 C546 1.349 . S
C558 H552 0.950 . S
C558 C559 1.327 . S
C559 H553 0.950 . S
C559 C558 1.327 . S
C559 C563 1.429 . S
C560 C543 1.574 . S
C560 H554 0.949 . S
C560 C564 1.368 . S
C561 C542 1.429 . S
C561 C555 1.429 . S
C561 C562 1.523 . S
C562 C543 1.368 . S
C562 C556 1.368 . S
C562 C561 1.523 . S
C563 C547 1.429 . S
C563 C559 1.429 . S
C563 C564 1.523 . S
C564 C548 1.368 . S
C564 C560 1.368 . S
C564 C563 1.523 . S
H565 C540 0.950 . S
H566 C542 0.950 . S
H567 C543 0.949 . S
H568 C545 0.950 . S
H569 C547 0.950 . S
C570 C571 1.349 . S
C570 C572 1.327 . S
C570 H595 0.950 . S
C571 C570 1.349 . S
C571 C587 1.349 . S
C572 C570 1.327 . S
C572 C591 1.429 . S
C572 H596 0.950 . S
C573 C590 1.574 . S
C573 C592 1.368 . S
C573 H597 0.949 . S
H574 C578 0.949 . S
C575 C576 1.349 . S
C575 C577 1.327 . S
C575 H598 0.950 . S
C576 C575 1.349 . S
C576 C588 1.349 . S
C577 C575 1.327 . S
C577 C593 1.429 . S
C577 H599 0.950 . S
C578 H574 0.949 . S
C578 C586 1.574 . S
C578 C594 1.368 . S
H579 C587 0.950 . S
H580 C585 0.950 . S
H581 C586 0.949 . S
H582 C588 0.950 . S
H583 C589 0.950 . S
H584 C590 0.949 . S
C585 H580 0.950 . S
C585 C587 1.327 . S
C585 C591 1.429 . S
C586 C578 1.574 . S
C586 H581 0.949 . S
C586 C592 1.368 . S
C587 C571 1.349 . S
C587 H579 0.950 . S
C587 C585 1.327 . S
C588 C576 1.349 . S
C588 H582 0.950 . S
C588 C589 1.327 . S
C589 H583 0.950 . S
C589 C588 1.327 . S
C589 C593 1.429 . S
C590 C573 1.574 . S
C590 H584 0.949 . S
C590 C594 1.368 . S
C591 C572 1.429 . S
C591 C585 1.429 . S
C591 C592 1.523 . S
C592 C573 1.368 . S
C592 C586 1.368 . S
C592 C591 1.523 . S
C593 C577 1.429 . S
C593 C589 1.429 . S
C593 C594 1.523 . S
C594 C578 1.368 . S
C594 C590 1.368 . S
C594 C593 1.523 . S
H595 C570 0.950 . S
H596 C572 0.950 . S
H597 C573 0.949 . S
H598 C575 0.950 . S
H599 C577 0.950 . S
C600 C601 1.349 . S
C600 C602 1.327 . S
C600 H625 0.950 . S
C601 C600 1.349 . S
C601 C617 1.349 1_556 S
C602 C600 1.327 . S
C602 C621 1.429 1_556 S
C602 H626 0.950 . S
C603 C620 1.574 . S
C603 C622 1.368 . S
C603 H627 0.949 . S
H604 C608 0.949 . S
C605 C606 1.349 . S
C605 C607 1.327 . S
C605 H628 0.950 . S
C606 C605 1.349 . S
C606 C618 1.349 . S
C607 C605 1.327 . S
C607 C623 1.429 . S
C607 H629 0.950 . S
C608 H604 0.949 . S
C608 C616 1.574 . S
C608 C624 1.368 . S
H609 C617 0.950 . S
H610 C615 0.950 . S
H611 C616 0.949 . S
H612 C618 0.950 . S
H613 C619 0.950 . S
H614 C620 0.949 . S
C615 H610 0.950 . S
C615 C617 1.327 . S
C615 C621 1.429 . S
C616 C608 1.574 . S
C616 H611 0.949 . S
C616 C622 1.368 . S
C617 C601 1.349 1_554 S
C617 H609 0.950 . S
C617 C615 1.327 . S
C618 C606 1.349 . S
C618 H612 0.950 . S
C618 C619 1.327 . S
C619 H613 0.950 . S
C619 C618 1.327 . S
C619 C623 1.429 . S
C620 C603 1.574 . S
C620 H614 0.949 . S
C620 C624 1.368 . S
C621 C602 1.429 1_554 S
C621 C615 1.429 . S
C621 C622 1.523 . S
C622 C603 1.368 . S
C622 C616 1.368 . S
C622 C621 1.523 . S
C623 C607 1.429 . S
C623 C619 1.429 . S
C623 C624 1.523 . S
C624 C608 1.368 . S
C624 C620 1.368 . S
C624 C623 1.523 . S
H625 C600 0.950 . S
H626 C602 0.950 . S
H627 C603 0.949 . S
H628 C605 0.950 . S
H629 C607 0.950 . S
C630 C631 1.349 . S
C630 C632 1.327 . S
C630 H655 0.950 . S
C631 C630 1.349 . S
C631 C647 1.349 . S
C632 C630 1.327 . S
C632 C651 1.429 . S
C632 H656 0.950 . S
C633 C650 1.574 . S
C633 C652 1.368 . S
C633 H657 0.949 . S
H634 C638 0.949 . S
C635 C636 1.349 . S
C635 C637 1.327 . S
C635 H658 0.950 . S
C636 C635 1.349 . S
C636 C648 1.349 . S
C637 C635 1.327 . S
C637 C653 1.429 . S
C637 H659 0.950 . S
C638 H634 0.949 . S
C638 C646 1.574 . S
C638 C654 1.368 . S
H639 C647 0.950 . S
H640 C645 0.950 . S
H641 C646 0.949 . S
H642 C648 0.950 . S
H643 C649 0.950 . S
H644 C650 0.949 . S
C645 H640 0.950 . S
C645 C647 1.327 . S
C645 C651 1.429 . S
C646 C638 1.574 . S
C646 H641 0.949 . S
C646 C652 1.368 . S
C647 C631 1.349 . S
C647 H639 0.950 . S
C647 C645 1.327 . S
C648 C636 1.349 . S
C648 H642 0.950 . S
C648 C649 1.327 . S
C649 H643 0.950 . S
C649 C648 1.327 . S
C649 C653 1.429 . S
C650 C633 1.574 . S
C650 H644 0.949 . S
C650 C654 1.368 . S
C651 C632 1.429 . S
C651 C645 1.429 . S
C651 C652 1.523 . S
C652 C633 1.368 . S
C652 C646 1.368 . S
C652 C651 1.523 . S
C653 C637 1.429 . S
C653 C649 1.429 . S
C653 C654 1.523 . S
C654 C638 1.368 . S
C654 C650 1.368 . S
C654 C653 1.523 . S
H655 C630 0.950 . S
H656 C632 0.950 . S
H657 C633 0.949 . S
H658 C635 0.950 . S
H659 C637 0.950 . S
C660 C661 1.349 . S
C660 C662 1.327 . S
C660 H685 0.950 1_565 S
C661 C660 1.349 . S
C661 C677 1.349 . S
C662 C660 1.327 . S
C662 C681 1.429 . S
C662 H686 0.950 1_565 S
C663 C680 1.574 . S
C663 C682 1.368 . S
C663 H687 0.949 . S
H664 C668 0.949 . S
C665 C666 1.349 . S
C665 C667 1.327 . S
C665 H688 0.950 . S
C666 C665 1.349 . S
C666 C678 1.349 . S
C667 C665 1.327 . S
C667 C683 1.429 . S
C667 H689 0.950 . S
C668 H664 0.949 . S
C668 C676 1.574 . S
C668 C684 1.368 . S
H669 C677 0.950 . S
H670 C675 0.950 . S
H671 C676 0.987 . S
H672 C678 0.950 . S
H673 C679 0.950 . S
H674 C680 0.949 . S
C675 H670 0.950 . S
C675 C677 1.327 . S
C675 C681 1.429 . S
C676 C668 1.574 . S
C676 H671 0.987 . S
C676 C682 1.368 . S
C677 C661 1.349 . S
C677 H669 0.950 . S
C677 C675 1.327 . S
C678 C666 1.349 . S
C678 H672 0.950 . S
C678 C679 1.327 . S
C679 H673 0.950 . S
C679 C678 1.327 . S
C679 C683 1.429 . S
C680 C663 1.574 . S
C680 H674 0.949 . S
C680 C684 1.368 . S
C681 C662 1.429 . S
C681 C675 1.429 . S
C681 C682 1.523 . S
C682 C663 1.368 . S
C682 C676 1.368 . S
C682 C681 1.523 . S
C683 C667 1.429 . S
C683 C679 1.429 . S
C683 C684 1.523 . S
C684 C668 1.368 . S
C684 C680 1.368 . S
C684 C683 1.523 . S
H685 C660 0.950 1_545 S
H686 C662 0.950 1_545 S
H687 C663 0.949 . S
H688 C665 0.950 . S
H689 C667 0.950 . S
C690 C691 1.349 . S
C690 C692 1.327 . S
C690 H715 0.950 . S
C691 C690 1.349 . S
C691 C707 1.349 . S
C692 C690 1.327 . S
C692 C711 1.429 . S
C692 H716 0.950 . S
C693 C710 1.574 1_545 S
C693 C712 1.368 . S
C693 H717 0.949 . S
H694 C698 0.949 . S
C695 C696 1.349 . S
C695 C697 1.327 . S
C695 H718 0.950 . S
C696 C695 1.349 . S
C696 C708 1.349 . S
C697 C695 1.327 . S
C697 C713 1.429 . S
C697 H719 0.950 . S
C698 H694 0.949 . S
C698 C706 1.574 1_565 S
C698 C714 1.368 . S
H699 C707 0.950 . S
H700 C705 0.950 . S
H701 C706 0.949 . S
H702 C708 0.950 . S
H703 C709 0.950 . S
H704 C710 0.949 . S
C705 H700 0.950 . S
C705 C707 1.327 . S
C705 C711 1.429 . S
C706 C698 1.574 1_545 S
C706 H701 0.949 . S
C706 C712 1.368 . S
C707 C691 1.349 . S
C707 H699 0.950 . S
C707 C705 1.327 . S
C708 C696 1.349 . S
C708 H702 0.950 . S
C708 C709 1.327 . S
C709 H703 0.950 . S
C709 C708 1.327 . S
C709 C713 1.429 . S
C710 C693 1.574 1_565 S
C710 H704 0.949 . S
C710 C714 1.368 . S
C711 C692 1.429 . S
C711 C705 1.429 . S
C711 C712 1.523 . S
C712 C693 1.368 . S
C712 C706 1.368 . S
C712 C711 1.523 . S
C713 C697 1.429 . S
C713 C709 1.429 . S
C713 C714 1.523 . S
C714 C698 1.368 . S
C714 C710 1.368 . S
C714 C713 1.523 . S
H715 C690 0.950 . S
H716 C692 0.950 . S
H717 C693 0.949 . S
H718 C695 0.950 . S
H719 C697 0.950 . S
C720 C721 1.349 . S
C720 C722 1.327 . S
C720 H745 0.950 . S
C721 C720 1.349 . S
C721 C737 1.349 . S
C722 C720 1.327 . S
C722 C741 1.429 . S
C722 H746 0.950 . S
C723 C740 1.574 . S
C723 C742 1.368 . S
C723 H747 0.949 . S
H724 C728 0.949 . S
C725 C726 1.349 . S
C725 C727 1.327 . S
C725 H748 0.950 . S
C726 C725 1.349 . S
C726 C738 1.349 . S
C727 C725 1.327 . S
C727 C743 1.429 . S
C727 H749 0.950 . S
C728 H724 0.949 . S
C728 C736 1.574 . S
C728 C744 1.368 . S
H729 C737 0.950 . S
H730 C735 0.950 . S
H731 C736 0.949 . S
H732 C738 0.950 . S
H733 C739 0.950 . S
H734 C740 0.949 . S
C735 H730 0.950 . S
C735 C737 1.327 . S
C735 C741 1.429 . S
C736 C728 1.574 . S
C736 H731 0.949 . S
C736 C742 1.368 . S
C737 C721 1.349 . S
C737 H729 0.950 . S
C737 C735 1.327 . S
C738 C726 1.349 . S
C738 H732 0.950 . S
C738 C739 1.327 . S
C739 H733 0.950 . S
C739 C738 1.327 . S
C739 C743 1.429 . S
C740 C723 1.574 . S
C740 H734 0.949 . S
C740 C744 1.368 . S
C741 C722 1.429 . S
C741 C735 1.429 . S
C741 C742 1.523 . S
C742 C723 1.368 . S
C742 C736 1.368 . S
C742 C741 1.523 . S
C743 C727 1.429 . S
C743 C739 1.429 . S
C743 C744 1.523 . S
C744 C728 1.368 . S
C744 C740 1.368 . S
C744 C743 1.523 . S
H745 C720 0.950 . S
H746 C722 0.950 . S
H747 C723 0.949 . S
H748 C725 0.950 . S
H749 C727 0.950 . S
C750 C751 1.349 . S
C750 C752 1.327 . S
C750 H775 0.950 . S
C751 C750 1.349 . S
C751 C767 1.349 . S
C752 C750 1.327 . S
C752 C771 1.429 . S
C752 H776 0.950 . S
C753 C770 1.574 . S
C753 C772 1.368 . S
C753 H777 0.949 . S
H754 C758 0.949 . S
C755 C756 1.349 . S
C755 C757 1.327 . S
C755 H778 0.950 . S
C756 C755 1.349 . S
C756 C768 1.349 . S
C757 C755 1.327 . S
C757 C773 1.429 . S
C757 H779 0.950 . S
C758 H754 0.949 . S
C758 C766 1.574 . S
C758 C774 1.368 . S
H759 C767 0.950 . S
H760 C765 0.950 . S
H761 C766 0.949 . S
H762 C768 0.882 1_556 S
H763 C769 0.950 . S
H764 C770 0.949 . S
C765 H760 0.950 . S
C765 C767 1.327 . S
C765 C771 1.429 . S
C766 C758 1.574 . S
C766 H761 0.949 . S
C766 C772 1.368 . S
C767 C751 1.349 . S
C767 H759 0.950 . S
C767 C765 1.327 . S
C768 C756 1.349 . S
C768 H762 0.882 1_554 S
C768 C769 1.327 . S
C769 H763 0.950 . S
C769 C768 1.327 . S
C769 C773 1.429 . S
C770 C753 1.574 . S
C770 H764 0.949 . S
C770 C774 1.368 . S
C771 C752 1.429 . S
C771 C765 1.429 . S
C771 C772 1.523 . S
C772 C753 1.368 . S
C772 C766 1.368 . S
C772 C771 1.523 . S
C773 C757 1.429 . S
C773 C769 1.429 . S
C773 C774 1.523 . S
C774 C758 1.368 . S
C774 C770 1.368 . S
C774 C773 1.523 . S
H775 C750 0.950 . S
H776 C752 0.950 . S
H777 C753 0.949 . S
H778 C755 0.950 . S
H779 C757 0.950 . S
C780 C781 1.349 . S
C780 C782 1.327 . S
C780 H805 0.950 . S
C781 C780 1.349 . S
C781 C797 1.349 . S
C782 C780 1.327 . S
C782 C801 1.429 . S
C782 H806 0.950 1_455 S
C783 C800 1.574 . S
C783 C802 1.368 . S
C783 H807 0.949 . S
H784 C788 0.949 . S
C785 C786 1.349 . S
C785 C787 1.327 . S
C785 H808 0.950 . S
C786 C785 1.349 . S
C786 C798 1.349 . S
C787 C785 1.327 . S
C787 C803 1.429 . S
C787 H809 0.950 . S
C788 H784 0.949 . S
C788 C796 1.574 . S
C788 C804 1.368 . S
H789 C797 0.950 . S
H790 C795 0.950 . S
H791 C796 0.949 . S
H792 C798 0.950 . S
H793 C799 0.950 . S
H794 C800 0.949 . S
C795 H790 0.950 . S
C795 C797 1.327 . S
C795 C801 1.429 . S
C796 C788 1.574 . S
C796 H791 0.949 . S
C796 C802 1.368 . S
C797 C781 1.349 . S
C797 H789 0.950 . S
C797 C795 1.327 . S
C798 C786 1.349 . S
C798 H792 0.950 . S
C798 C799 1.327 . S
C799 H793 0.950 . S
C799 C798 1.327 . S
C799 C803 1.429 . S
C800 C783 1.574 . S
C800 H794 0.949 . S
C800 C804 1.368 . S
C801 C782 1.429 . S
C801 C795 1.429 . S
C801 C802 1.523 1_455 S
C802 C783 1.368 . S
C802 C796 1.368 . S
C802 C801 1.523 1_655 S
C803 C787 1.429 . S
C803 C799 1.429 . S
C803 C804 1.523 . S
C804 C788 1.368 . S
C804 C800 1.368 . S
C804 C803 1.523 . S
H805 C780 0.950 . S
H806 C782 0.950 1_655 S
H807 C783 0.949 . S
H808 C785 0.950 . S
H809 C787 0.950 . S
C810 C811 1.349 1_455 S
C810 C812 1.327 . S
C810 H835 0.950 . S
C811 C810 1.349 1_655 S
C811 C827 1.349 . S
C812 C810 1.327 . S
C812 C831 1.429 1_455 S
C812 H836 0.950 . S
C813 C830 1.574 . S
C813 C832 1.368 . S
C813 H837 0.949 . S
H814 C818 0.949 . S
C815 C816 1.349 . S
C815 C817 1.327 . S
C815 H838 0.950 . S
C816 C815 1.349 . S
C816 C828 1.349 . S
C817 C815 1.327 . S
C817 C833 1.429 . S
C817 H839 0.950 . S
C818 H814 0.949 . S
C818 C826 1.574 . S
C818 C834 1.368 . S
H819 C827 0.950 . S
H820 C825 0.950 . S
H821 C826 0.950 1_455 S
H822 C828 0.950 . S
H823 C829 0.950 . S
H824 C830 0.949 . S
C825 H820 0.950 . S
C825 C827 1.327 . S
C825 C831 1.429 . S
C826 C818 1.574 . S
C826 H821 0.950 1_655 S
C826 C832 1.368 . S
C827 C811 1.349 . S
C827 H819 0.950 . S
C827 C825 1.327 . S
C828 C816 1.349 . S
C828 H822 0.950 . S
C828 C829 1.327 . S
C829 H823 0.950 . S
C829 C828 1.327 . S
C829 C833 1.429 . S
C830 C813 1.574 . S
C830 H824 0.949 . S
C830 C834 1.368 . S
C831 C812 1.429 1_655 S
C831 C825 1.429 . S
C831 C832 1.523 . S
C832 C813 1.368 . S
C832 C826 1.368 . S
C832 C831 1.523 . S
C833 C817 1.429 . S
C833 C829 1.429 . S
C833 C834 1.523 . S
C834 C818 1.368 . S
C834 C830 1.368 . S
C834 C833 1.523 . S
H835 C810 0.950 . S
H836 C812 0.950 . S
H837 C813 0.949 . S
H838 C815 0.950 . S
H839 C817 0.950 . S
C840 C841 1.349 . S
C840 C842 1.327 . S
C840 H865 0.950 . S
C841 C840 1.349 . S
C841 C857 1.349 . S
C842 C840 1.327 . S
C842 C861 1.429 . S
C842 H866 0.950 . S
C843 C860 1.574 . S
C843 C862 1.368 . S
C843 H867 0.949 . S
H844 C848 0.949 . S
C845 C846 1.349 . S
C845 C847 1.327 . S
C845 H868 0.950 . S
C846 C845 1.349 . S
C846 C858 1.349 . S
C847 C845 1.327 . S
C847 C863 1.429 . S
C847 H869 0.950 . S
C848 H844 0.949 . S
C848 C856 1.574 . S
C848 C864 1.368 . S
H849 C857 0.950 . S
H850 C855 0.950 . S
H851 C856 0.949 . S
H852 C858 0.950 . S
H853 C859 0.950 . S
H854 C860 0.949 . S
C855 H850 0.950 . S
C855 C857 1.327 . S
C855 C861 1.429 . S
C856 C848 1.574 . S
C856 H851 0.949 . S
C856 C862 1.368 . S
C857 C841 1.349 . S
C857 H849 0.950 . S
C857 C855 1.327 . S
C858 C846 1.349 . S
C858 H852 0.950 . S
C858 C859 1.327 . S
C859 H853 0.950 . S
C859 C858 1.327 . S
C859 C863 1.429 . S
C860 C843 1.574 . S
C860 H854 0.949 . S
C860 C864 1.368 . S
C861 C842 1.429 . S
C861 C855 1.429 . S
C861 C862 1.523 . S
C862 C843 1.368 . S
C862 C856 1.368 . S
C862 C861 1.523 . S
C863 C847 1.429 . S
C863 C859 1.429 . S
C863 C864 1.523 . S
C864 C848 1.368 . S
C864 C860 1.368 . S
C864 C863 1.523 . S
H865 C840 0.950 . S
H866 C842 0.950 . S
H867 C843 0.949 . S
H868 C845 0.950 . S
H869 C847 0.950 . S
C870 C871 1.349 . S
C870 C872 1.327 1_455 S
C870 H895 0.950 . S
C871 C870 1.349 . S
C871 C887 1.349 . S
C872 C870 1.327 1_655 S
C872 C891 1.429 . S
C872 H896 0.950 . S
C873 C890 1.574 . S
C873 C892 1.368 . S
C873 H897 0.949 . S
H874 C878 0.949 . S
C875 C876 1.349 . S
C875 C877 1.327 . S
C875 H898 0.950 . S
C876 C875 1.349 . S
C876 C888 1.349 . S
C877 C875 1.327 . S
C877 C893 1.429 . S
C877 H899 0.950 . S
C878 H874 0.949 . S
C878 C886 1.574 . S
C878 C894 1.368 . S
H879 C887 0.950 . S
H880 C885 0.950 . S
H881 C886 0.949 . S
H882 C888 0.950 . S
H883 C889 0.950 . S
H884 C890 0.949 . S
C885 H880 0.950 . S
C885 C887 1.327 . S
C885 C891 1.429 1_455 S
C886 C878 1.574 . S
C886 H881 0.949 . S
C886 C892 1.368 . S
C887 C871 1.349 . S
C887 H879 0.950 . S
C887 C885 1.327 . S
C888 C876 1.349 . S
C888 H882 0.950 . S
C888 C889 1.327 . S
C889 H883 0.950 . S
C889 C888 1.327 . S
C889 C893 1.429 . S
C890 C873 1.574 . S
C890 H884 0.949 . S
C890 C894 1.368 . S
C891 C872 1.429 . S
C891 C885 1.429 1_655 S
C891 C892 1.523 . S
C892 C873 1.368 . S
C892 C886 1.368 . S
C892 C891 1.523 . S
C893 C877 1.429 . S
C893 C889 1.429 . S
C893 C894 1.523 . S
C894 C878 1.368 . S
C894 C890 1.368 . S
C894 C893 1.523 . S
H895 C870 0.950 . S
H896 C872 0.950 . S
H897 C873 0.949 . S
H898 C875 0.950 . S
H899 C877 0.950 . S
C900 C901 1.349 . S
C900 C902 1.327 . S
C900 H925 0.950 . S
C901 C900 1.349 . S
C901 C917 1.349 . S
C902 C900 1.327 . S
C902 C921 1.429 . S
C902 H926 0.950 . S
C903 C920 1.574 . S
C903 C922 1.368 . S
C903 H927 0.949 . S
H904 C908 0.949 1_554 S
C905 C906 1.349 . S
C905 C907 1.327 . S
C905 H928 0.950 . S
C906 C905 1.349 . S
C906 C918 1.349 1_556 S
C907 C905 1.327 . S
C907 C923 1.429 . S
C907 H929 0.950 . S
C908 H904 0.949 1_556 S
C908 C916 1.574 . S
C908 C924 1.368 . S
H909 C917 0.950 . S
H910 C915 0.950 . S
H911 C916 0.928 1_554 S
H912 C918 0.950 . S
H913 C919 0.950 . S
H914 C920 0.949 . S
C915 H910 0.950 . S
C915 C917 1.327 . S
C915 C921 1.429 . S
C916 C908 1.574 . S
C916 H911 0.928 1_556 S
C916 C922 1.368 . S
C917 C901 1.349 . S
C917 H909 0.950 . S
C917 C915 1.327 . S
C918 C906 1.349 1_554 S
C918 H912 0.950 . S
C918 C919 1.327 . S
C919 H913 0.950 . S
C919 C918 1.327 . S
C919 C923 1.429 1_554 S
C920 C903 1.574 . S
C920 H914 0.949 . S
C920 C924 1.368 . S
C921 C902 1.429 . S
C921 C915 1.429 . S
C921 C922 1.523 . S
C922 C903 1.368 . S
C922 C916 1.368 . S
C922 C921 1.523 . S
C923 C907 1.429 . S
C923 C919 1.429 1_556 S
C923 C924 1.523 . S
C924 C908 1.368 . S
C924 C920 1.368 . S
C924 C923 1.523 . S
H925 C900 0.950 . S
H926 C902 0.950 . S
H927 C903 0.949 . S
H928 C905 0.950 . S
H929 C907 0.950 . S
C930 C931 1.349 . S
C930 C932 1.327 . S
C930 H955 0.950 . S
C931 C930 1.349 . S
C931 C947 1.349 . S
C932 C930 1.327 . S
C932 C951 1.429 . S
C932 H956 0.950 . S
C933 C950 1.574 . S
C933 C952 1.368 . S
C933 H957 0.949 . S
H934 C938 0.949 . S
C935 C936 1.349 . S
C935 C937 1.327 . S
C935 H958 0.950 . S
C936 C935 1.349 . S
C936 C948 1.349 . S
C937 C935 1.327 . S
C937 C953 1.429 . S
C937 H959 0.950 . S
C938 H934 0.949 . S
C938 C946 1.574 . S
C938 C954 1.368 . S
H939 C947 0.950 . S
H940 C945 0.950 . S
H941 C946 0.949 . S
H942 C948 0.950 . S
H943 C949 0.950 . S
H944 C950 0.949 . S
C945 H940 0.950 . S
C945 C947 1.327 . S
C945 C951 1.429 . S
C946 C938 1.574 . S
C946 H941 0.949 . S
C946 C952 1.368 . S
C947 C931 1.349 . S
C947 H939 0.950 . S
C947 C945 1.327 . S
C948 C936 1.349 . S
C948 H942 0.950 . S
C948 C949 1.327 . S
C949 H943 0.950 . S
C949 C948 1.327 . S
C949 C953 1.429 . S
C950 C933 1.574 . S
C950 H944 0.949 . S
C950 C954 1.368 . S
C951 C932 1.429 . S
C951 C945 1.429 . S
C951 C952 1.523 . S
C952 C933 1.368 . S
C952 C946 1.368 . S
C952 C951 1.523 . S
C953 C937 1.429 . S
C953 C949 1.429 . S
C953 C954 1.523 . S
C954 C938 1.368 . S
C954 C950 1.368 . S
C954 C953 1.523 . S
H955 C930 0.950 . S
H956 C932 0.950 . S
H957 C933 0.949 . S
H958 C935 0.950 . S
H959 C937 0.950 . S
C960 C961 1.349 . S
C960 C962 1.327 1_545 S
C960 H985 0.950 . S
C961 C960 1.349 . S
C961 C977 1.349 1_545 S
C962 C960 1.327 1_565 S
C962 C981 1.429 . S
C962 H986 0.950 . S
C963 C980 1.574 . S
C963 C982 1.368 . S
C963 H987 0.949 . S
H964 C968 0.949 . S
C965 C966 1.349 . S
C965 C967 1.327 . S
C965 H988 0.950 . S
C966 C965 1.349 . S
C966 C978 1.349 . S
C967 C965 1.327 . S
C967 C983 1.429 . S
C967 H989 0.950 . S
C968 H964 0.949 . S
C968 C976 1.574 . S
C968 C984 1.368 . S
H969 C977 0.950 . S
H970 C975 0.950 . S
H971 C976 0.949 . S
H972 C978 0.950 . S
H973 C979 0.950 . S
H974 C980 0.949 . S
C975 H970 0.950 . S
C975 C977 1.327 . S
C975 C981 1.429 . S
C976 C968 1.574 . S
C976 H971 0.949 . S
C976 C982 1.368 . S
C977 C961 1.349 1_565 S
C977 H969 0.950 . S
C977 C975 1.327 . S
C978 C966 1.349 . S
C978 H972 0.950 . S
C978 C979 1.327 . S
C979 H973 0.950 . S
C979 C978 1.327 . S
C979 C983 1.429 . S
C980 C963 1.574 . S
C980 H974 0.949 . S
C980 C984 1.368 . S
C981 C962 1.429 . S
C981 C975 1.429 . S
C981 C982 1.523 . S
C982 C963 1.368 . S
C982 C976 1.368 . S
C982 C981 1.523 . S
C983 C967 1.429 . S
C983 C979 1.429 . S
C983 C984 1.523 . S
C984 C968 1.368 . S
C984 C980 1.368 . S
C984 C983 1.523 . S
H985 C960 0.950 . S
H986 C962 0.950 . S
H987 C963 0.949 . S
H988 C965 0.950 . S
H989 C967 0.950 . S
C990 C991 1.349 . S
C990 C992 1.327 . S
C990 H1015 0.950 . S
C991 C990 1.349 . S
C991 C1007 1.349 . S
C992 C990 1.327 . S
C992 C1011 1.429 . S
C992 H1016 0.950 . S
C993 C1010 1.574 . S
C993 C1012 1.368 . S
C993 H1017 0.949 . S
H994 C998 0.949 . S
C995 C996 1.349 . S
C995 C997 1.327 . S
C995 H1018 0.950 . S
C996 C995 1.349 . S
C996 C1008 1.349 . S
C997 C995 1.327 . S
C997 C1013 1.429 . S
C997 H1019 0.950 . S
C998 H994 0.949 . S
C998 C1006 1.574 . S
C998 C1014 1.368 . S
H999 C1007 0.950 . S
H1000 C1005 0.950 . S
H1001 C1006 0.949 . S
H1002 C1008 0.950 . S
H1003 C1009 0.950 . S
H1004 C1010 0.949 . S
C1005 H1000 0.950 . S
C1005 C1007 1.327 . S
C1005 C1011 1.429 . S
C1006 C998 1.574 . S
C1006 H1001 0.949 . S
C1006 C1012 1.368 . S
C1007 C991 1.349 . S
C1007 H999 0.950 . S
C1007 C1005 1.327 . S
C1008 C996 1.349 . S
C1008 H1002 0.950 . S
C1008 C1009 1.327 . S
C1009 H1003 0.950 . S
C1009 C1008 1.327 . S
C1009 C1013 1.429 . S
C1010 C993 1.574 . S
C1010 H1004 0.949 . S
C1010 C1014 1.368 . S
C1011 C992 1.429 . S
C1011 C1005 1.429 . S
C1011 C1012 1.523 . S
C1012 C993 1.368 . S
C1012 C1006 1.368 . S
C1012 C1011 1.523 . S
C1013 C997 1.429 . S
C1013 C1009 1.429 . S
C1013 C1014 1.523 . S
C1014 C998 1.368 . S
C1014 C1010 1.368 . S
C1014 C1013 1.523 . S
H1015 C990 0.950 . S
H1016 C992 0.950 . S
H1017 C993 0.949 . S
H1018 C995 0.950 . S
H1019 C997 0.950 . S
C1020 C1021 1.349 . S
C1020 C1022 1.327 . S
C1020 H1045 0.950 . S
C1021 C1020 1.349 . S
C1021 C1037 1.349 . S
C1022 C1020 1.327 . S
C1022 C1041 1.429 . S
C1022 H1046 0.950 . S
C1023 C1040 1.574 . S
C1023 C1042 1.368 . S
C1023 H1047 0.949 . S
H1024 C1028 0.949 . S
C1025 C1026 1.349 . S
C1025 C1027 1.327 1_554 S
C1025 H1048 0.950 . S
C1026 C1025 1.349 . S
C1026 C1038 1.349 1_554 S
C1027 C1025 1.327 1_556 S
C1027 C1043 1.429 . S
C1027 H1049 0.950 . S
C1028 H1024 0.949 . S
C1028 C1036 1.574 . S
C1028 C1044 1.368 . S
H1029 C1037 0.950 . S
H1030 C1035 0.950 . S
H1031 C1036 0.949 . S
H1032 C1038 0.950 . S
H1033 C1039 0.950 . S
H1034 C1040 0.949 . S
C1035 H1030 0.950 . S
C1035 C1037 1.327 . S
C1035 C1041 1.429 . S
C1036 C1028 1.574 . S
C1036 H1031 0.949 . S
C1036 C1042 1.368 . S
C1037 C1021 1.349 . S
C1037 H1029 0.950 . S
C1037 C1035 1.327 . S
C1038 C1026 1.349 1_556 S
C1038 H1032 0.950 . S
C1038 C1039 1.327 . S
C1039 H1033 0.950 . S
C1039 C1038 1.327 . S
C1039 C1043 1.429 . S
C1040 C1023 1.574 . S
C1040 H1034 0.949 . S
C1040 C1044 1.368 . S
C1041 C1022 1.429 . S
C1041 C1035 1.429 . S
C1041 C1042 1.523 . S
C1042 C1023 1.368 . S
C1042 C1036 1.368 . S
C1042 C1041 1.523 . S
C1043 C1027 1.429 . S
C1043 C1039 1.429 . S
C1043 C1044 1.523 . S
C1044 C1028 1.368 . S
C1044 C1040 1.368 . S
C1044 C1043 1.523 . S
H1045 C1020 0.950 . S
H1046 C1022 0.950 . S
H1047 C1023 0.949 . S
H1048 C1025 0.950 . S
H1049 C1027 0.950 . S
C1050 C1051 1.349 . S
C1050 C1052 1.327 . S
C1050 H1075 0.950 . S
C1051 C1050 1.349 . S
C1051 C1067 1.349 . S
C1052 C1050 1.327 . S
C1052 C1071 1.429 . S
C1052 H1076 0.950 . S
C1053 C1070 1.574 . S
C1053 C1072 1.368 . S
C1053 H1077 0.949 . S
H1054 C1058 0.949 . S
C1055 C1056 1.349 . S
C1055 C1057 1.327 . S
C1055 H1078 0.950 . S
C1056 C1055 1.349 . S
C1056 C1068 1.349 . S
C1057 C1055 1.327 . S
C1057 C1073 1.429 . S
C1057 H1079 0.950 . S
C1058 H1054 0.949 . S
C1058 C1066 1.574 . S
C1058 C1074 1.368 . S
H1059 C1067 0.950 . S
H1060 C1065 0.950 . S
H1061 C1066 0.949 . S
H1062 C1068 0.950 . S
H1063 C1069 0.950 . S
H1064 C1070 0.949 . S
C1065 H1060 0.950 . S
C1065 C1067 1.327 . S
C1065 C1071 1.429 . S
C1066 C1058 1.574 . S
C1066 H1061 0.949 . S
C1066 C1072 1.368 . S
C1067 C1051 1.349 . S
C1067 H1059 0.950 . S
C1067 C1065 1.327 . S
C1068 C1056 1.349 . S
C1068 H1062 0.950 . S
C1068 C1069 1.327 . S
C1069 H1063 0.950 . S
C1069 C1068 1.327 . S
C1069 C1073 1.429 . S
C1070 C1053 1.574 . S
C1070 H1064 0.949 . S
C1070 C1074 1.368 . S
C1071 C1052 1.429 . S
C1071 C1065 1.429 . S
C1071 C1072 1.523 . S
C1072 C1053 1.368 . S
C1072 C1066 1.368 . S
C1072 C1071 1.523 . S
C1073 C1057 1.429 . S
C1073 C1069 1.429 . S
C1073 C1074 1.523 . S
C1074 C1058 1.368 . S
C1074 C1070 1.368 . S
C1074 C1073 1.523 . S
H1075 C1050 0.950 . S
H1076 C1052 0.950 . S
H1077 C1053 0.949 . S
H1078 C1055 0.950 . S
H1079 C1057 0.950 . S
C1080 C1081 1.349 . S
C1080 C1082 1.327 . S
C1080 H1105 0.950 . S
C1081 C1080 1.349 . S
C1081 C1097 1.349 . S
C1082 C1080 1.327 . S
C1082 C1101 1.429 . S
C1082 H1106 0.950 . S
C1083 C1100 1.574 . S
C1083 C1102 1.368 . S
C1083 H1107 0.949 . S
H1084 C1088 0.949 . S
C1085 C1086 1.349 . S
C1085 C1087 1.327 . S
C1085 H1108 0.950 . S
C1086 C1085 1.349 . S
C1086 C1098 1.349 . S
C1087 C1085 1.327 . S
C1087 C1103 1.429 . S
C1087 H1109 0.950 . S
C1088 H1084 0.949 . S
C1088 C1096 1.574 . S
C1088 C1104 1.368 . S
H1089 C1097 0.950 . S
H1090 C1095 0.950 . S
H1091 C1096 0.949 . S
H1092 C1098 0.950 . S
H1093 C1099 0.950 . S
H1094 C1100 0.949 . S
C1095 H1090 0.950 . S
C1095 C1097 1.327 . S
C1095 C1101 1.429 . S
C1096 C1088 1.574 . S
C1096 H1091 0.949 . S
C1096 C1102 1.368 . S
C1097 C1081 1.349 . S
C1097 H1089 0.950 . S
C1097 C1095 1.327 . S
C1098 C1086 1.349 . S
C1098 H1092 0.950 . S
C1098 C1099 1.327 . S
C1099 H1093 0.950 . S
C1099 C1098 1.327 . S
C1099 C1103 1.429 . S
C1100 C1083 1.574 . S
C1100 H1094 0.949 . S
C1100 C1104 1.368 . S
C1101 C1082 1.429 . S
C1101 C1095 1.429 . S
C1101 C1102 1.523 . S
C1102 C1083 1.368 . S
C1102 C1096 1.368 . S
C1102 C1101 1.523 . S
C1103 C1087 1.429 . S
C1103 C1099 1.429 . S
C1103 C1104 1.523 . S
C1104 C1088 1.368 . S
C1104 C1100 1.368 . S
C1104 C1103 1.523 . S
H1105 C1080 0.950 . S
H1106 C1082 0.950 . S
H1107 C1083 0.949 . S
H1108 C1085 0.950 . S
H1109 C1087 0.950 . S
C1110 C1111 1.349 . S
C1110 C1112 1.327 . S
C1110 H1135 0.950 . S
C1111 C1110 1.349 . S
C1111 C1127 1.349 . S
C1112 C1110 1.327 . S
C1112 C1131 1.429 . S
C1112 H1136 0.950 . S
C1113 C1130 1.574 . S
C1113 C1132 1.368 . S
C1113 H1137 0.949 . S
H1114 C1118 0.949 . S
C1115 C1116 1.349 . S
C1115 C1117 1.327 . S
C1115 H1138 0.950 . S
C1116 C1115 1.349 . S
C1116 C1128 1.349 . S
C1117 C1115 1.327 . S
C1117 C1133 1.429 . S
C1117 H1139 0.950 . S
C1118 H1114 0.949 . S
C1118 C1126 1.574 . S
C1118 C1134 1.368 . S
H1119 C1127 0.950 . S
H1120 C1125 0.950 . S
H1121 C1126 0.949 . S
H1122 C1128 0.950 . S
H1123 C1129 0.950 . S
H1124 C1130 0.949 . S
C1125 H1120 0.950 . S
C1125 C1127 1.327 . S
C1125 C1131 1.429 . S
C1126 C1118 1.574 . S
C1126 H1121 0.949 . S
C1126 C1132 1.368 . S
C1127 C1111 1.349 . S
C1127 H1119 0.950 . S
C1127 C1125 1.327 . S
C1128 C1116 1.349 . S
C1128 H1122 0.950 . S
C1128 C1129 1.327 . S
C1129 H1123 0.950 . S
C1129 C1128 1.327 . S
C1129 C1133 1.429 . S
C1130 C1113 1.574 . S
C1130 H1124 0.949 . S
C1130 C1134 1.368 . S
C1131 C1112 1.429 . S
C1131 C1125 1.429 . S
C1131 C1132 1.523 . S
C1132 C1113 1.368 . S
C1132 C1126 1.368 . S
C1132 C1131 1.523 . S
C1133 C1117 1.429 . S
C1133 C1129 1.429 . S
C1133 C1134 1.523 . S
C1134 C1118 1.368 . S
C1134 C1130 1.368 . S
C1134 C1133 1.523 . S
H1135 C1110 0.950 . S
H1136 C1112 0.950 . S
H1137 C1113 0.949 . S
H1138 C1115 0.950 . S
H1139 C1117 0.950 . S
C1140 C1141 1.349 . S
C1140 C1142 1.327 . S
C1140 H1165 0.950 . S
C1141 C1140 1.349 . S
C1141 C1157 1.349 . S
C1142 C1140 1.327 . S
C1142 C1161 1.429 . S
C1142 H1166 0.950 . S
C1143 C1160 1.574 . S
C1143 C1162 1.368 . S
C1143 H1167 0.949 . S
H1144 C1148 0.949 . S
C1145 C1146 1.349 . S
C1145 C1147 1.327 . S
C1145 H1168 0.950 . S
C1146 C1145 1.349 . S
C1146 C1158 1.349 . S
C1147 C1145 1.327 . S
C1147 C1163 1.429 . S
C1147 H1169 0.950 . S
C1148 H1144 0.949 . S
C1148 C1156 1.574 . S
C1148 C1164 1.368 . S
H1149 C1157 0.950 . S
H1150 C1155 0.950 . S
H1151 C1156 0.949 . S
H1152 C1158 0.950 . S
H1153 C1159 0.950 . S
H1154 C1160 0.949 . S
C1155 H1150 0.950 . S
C1155 C1157 1.327 . S
C1155 C1161 1.429 . S
C1156 C1148 1.574 . S
C1156 H1151 0.949 . S
C1156 C1162 1.368 . S
C1157 C1141 1.349 . S
C1157 H1149 0.950 . S
C1157 C1155 1.327 . S
C1158 C1146 1.349 . S
C1158 H1152 0.950 . S
C1158 C1159 1.327 . S
C1159 H1153 0.950 . S
C1159 C1158 1.327 . S
C1159 C1163 1.429 . S
C1160 C1143 1.574 . S
C1160 H1154 0.949 . S
C1160 C1164 1.368 . S
C1161 C1142 1.429 . S
C1161 C1155 1.429 . S
C1161 C1162 1.523 . S
C1162 C1143 1.368 . S
C1162 C1156 1.368 . S
C1162 C1161 1.523 . S
C1163 C1147 1.429 . S
C1163 C1159 1.429 . S
C1163 C1164 1.523 . S
C1164 C1148 1.368 . S
C1164 C1160 1.368 . S
C1164 C1163 1.523 . S
H1165 C1140 0.950 . S
H1166 C1142 0.950 . S
H1167 C1143 0.949 . S
H1168 C1145 0.950 . S
H1169 C1147 0.950 . S
C1170 C1171 1.349 . S
C1170 C1172 1.327 . S
C1170 H1195 0.950 . S
C1171 C1170 1.349 . S
C1171 C1187 1.349 . S
C1172 C1170 1.327 . S
C1172 C1191 1.429 . S
C1172 H1196 0.950 . S
C1173 C1190 1.574 . S
C1173 C1192 1.368 . S
C1173 H1197 0.949 . S
H1174 C1178 0.949 . S
C1175 C1176 1.349 . S
C1175 C1177 1.327 . S
C1175 H1198 0.950 . S
C1176 C1175 1.349 . S
C1176 C1188 1.349 . S
C1177 C1175 1.327 . S
C1177 C1193 1.448 . S
C1177 H1199 0.950 . S
C1178 H1174 0.949 . S
C1178 C1186 1.574 . S
C1178 C1194 1.368 . S
H1179 C1187 0.950 . S
H1180 C1185 0.950 . S
H1181 C1186 0.949 . S
H1182 C1188 0.950 . S
H1183 C1189 0.983 . S
H1184 C1190 0.949 1_565 S
C1185 H1180 0.950 . S
C1185 C1187 1.327 . S
C1185 C1191 1.429 . S
C1186 C1178 1.574 . S
C1186 H1181 0.949 . S
C1186 C1192 1.368 . S
C1187 C1171 1.349 . S
C1187 H1179 0.950 . S
C1187 C1185 1.327 . S
C1188 C1176 1.349 . S
C1188 H1182 0.950 . S
C1188 C1189 1.302 1_565 S
C1189 H1183 0.983 . S
C1189 C1188 1.302 1_545 S
C1189 C1193 1.422 1_545 S
C1190 C1173 1.574 . S
C1190 H1184 0.949 1_545 S
C1190 C1194 1.368 . S
C1191 C1172 1.429 . S
C1191 C1185 1.429 . S
C1191 C1192 1.523 . S
C1192 C1173 1.368 . S
C1192 C1186 1.368 . S
C1192 C1191 1.523 . S
C1193 C1177 1.448 . S
C1193 C1189 1.422 1_565 S
C1193 C1194 1.508 1_565 S
C1194 C1178 1.368 . S
C1194 C1190 1.368 . S
C1194 C1193 1.508 1_545 S
H1195 C1170 0.950 . S
H1196 C1172 0.950 . S
H1197 C1173 0.949 . S
H1198 C1175 0.950 . S
H1199 C1177 0.950 . S
C1200 C1201 1.349 . S
C1200 C1202 1.327 . S
C1200 H1225 0.950 . S
C1201 C1200 1.349 . S
C1201 C1217 1.349 . S
C1202 C1200 1.327 . S
C1202 C1221 1.429 . S
C1202 H1226 0.950 . S
C1203 C1220 1.574 . S
C1203 C1222 1.368 . S
C1203 H1227 0.949 . S
H1204 C1208 0.949 . S
C1205 C1206 1.349 . S
C1205 C1207 1.327 . S
C1205 H1228 0.950 . S
C1206 C1205 1.349 . S
C1206 C1218 1.349 . S
C1207 C1205 1.327 . S
C1207 C1223 1.429 . S
C1207 H1229 0.950 . S
C1208 H1204 0.949 . S
C1208 C1216 1.574 . S
C1208 C1224 1.368 . S
H1209 C1217 0.950 . S
H1210 C1215 0.950 . S
H1211 C1216 0.949 . S
H1212 C1218 0.950 . S
H1213 C1219 0.950 . S
H1214 C1220 0.949 . S
C1215 H1210 0.950 . S
C1215 C1217 1.327 . S
C1215 C1221 1.429 . S
C1216 C1208 1.574 . S
C1216 H1211 0.949 . S
C1216 C1222 1.368 . S
C1217 C1201 1.349 . S
C1217 H1209 0.950 . S
C1217 C1215 1.327 . S
C1218 C1206 1.349 . S
C1218 H1212 0.950 . S
C1218 C1219 1.327 . S
C1219 H1213 0.950 . S
C1219 C1218 1.327 . S
C1219 C1223 1.429 . S
C1220 C1203 1.574 . S
C1220 H1214 0.949 . S
C1220 C1224 1.368 . S
C1221 C1202 1.429 . S
C1221 C1215 1.429 . S
C1221 C1222 1.523 . S
C1222 C1203 1.368 . S
C1222 C1216 1.368 . S
C1222 C1221 1.523 . S
C1223 C1207 1.429 . S
C1223 C1219 1.429 . S
C1223 C1224 1.523 . S
C1224 C1208 1.368 . S
C1224 C1220 1.368 . S
C1224 C1223 1.523 . S
H1225 C1200 0.950 . S
H1226 C1202 0.950 . S
H1227 C1203 0.949 . S
H1228 C1205 0.950 . S
H1229 C1207 0.950 . S
C1230 C1231 1.349 . S
C1230 C1232 1.327 . S
C1230 H1255 0.950 . S
C1231 C1230 1.349 . S
C1231 C1247 1.349 . S
C1232 C1230 1.327 . S
C1232 C1251 1.429 . S
C1232 H1256 0.950 . S
C1233 C1250 1.574 . S
C1233 C1252 1.368 . S
C1233 H1257 0.949 . S
H1234 C1238 0.949 . S
C1235 C1236 1.349 . S
C1235 C1237 1.327 . S
C1235 H1258 0.950 . S
C1236 C1235 1.349 . S
C1236 C1248 1.349 . S
C1237 C1235 1.327 . S
C1237 C1253 1.429 . S
C1237 H1259 0.950 . S
C1238 H1234 0.949 . S
C1238 C1246 1.574 . S
C1238 C1254 1.368 . S
H1239 C1247 0.950 . S
H1240 C1245 0.950 . S
H1241 C1246 0.949 . S
H1242 C1248 0.950 . S
H1243 C1249 0.950 . S
H1244 C1250 0.949 . S
C1245 H1240 0.950 . S
C1245 C1247 1.327 . S
C1245 C1251 1.429 . S
C1246 C1238 1.574 . S
C1246 H1241 0.949 . S
C1246 C1252 1.368 . S
C1247 C1231 1.349 . S
C1247 H1239 0.950 . S
C1247 C1245 1.327 . S
C1248 C1236 1.349 . S
C1248 H1242 0.950 . S
C1248 C1249 1.327 . S
C1249 H1243 0.950 . S
C1249 C1248 1.327 . S
C1249 C1253 1.429 . S
C1250 C1233 1.574 . S
C1250 H1244 0.949 . S
C1250 C1254 1.368 . S
C1251 C1232 1.429 . S
C1251 C1245 1.429 . S
C1251 C1252 1.523 . S
C1252 C1233 1.368 . S
C1252 C1246 1.368 . S
C1252 C1251 1.523 . S
C1253 C1237 1.429 . S
C1253 C1249 1.429 . S
C1253 C1254 1.523 . S
C1254 C1238 1.368 . S
C1254 C1250 1.368 . S
C1254 C1253 1.523 . S
H1255 C1230 0.950 . S
H1256 C1232 0.950 . S
H1257 C1233 0.949 . S
H1258 C1235 0.950 . S
H1259 C1237 0.950 . S
C1260 C1261 1.349 . S
C1260 C1262 1.327 . S
C1260 H1285 0.950 . S
C1261 C1260 1.349 . S
C1261 C1277 1.349 . S
C1262 C1260 1.327 . S
C1262 C1281 1.429 . S
C1262 H1286 0.950 . S
C1263 C1280 1.574 . S
C1263 C1282 1.368 1_655 S
C1263 H1287 0.949 . S
H1264 C1268 0.949 . S
C1265 C1266 1.349 . S
C1265 C1267 1.327 . S
C1265 H1288 0.950 . S
C1266 C1265 1.349 . S
C1266 C1278 1.349 . S
C1267 C1265 1.327 . S
C1267 C1283 1.429 . S
C1267 H1289 0.950 . S
C1268 H1264 0.949 . S
C1268 C1276 1.574 . S
C1268 C1284 1.368 1_455 S
H1269 C1277 0.950 . S
H1270 C1275 0.950 1_655 S
H1271 C1276 0.949 . S
H1272 C1278 0.950 . S
H1273 C1279 0.950 1_455 S
H1274 C1280 0.949 . S
C1275 H1270 0.950 1_455 S
C1275 C1277 1.327 . S
C1275 C1281 1.429 . S
C1276 C1268 1.574 . S
C1276 H1271 0.949 . S
C1276 C1282 1.368 . S
C1277 C1261 1.349 . S
C1277 H1269 0.950 . S
C1277 C1275 1.327 . S
C1278 C1266 1.349 . S
C1278 H1272 0.950 . S
C1278 C1279 1.327 . S
C1279 H1273 0.950 1_655 S
C1279 C1278 1.327 . S
C1279 C1283 1.429 . S
C1280 C1263 1.574 . S
C1280 H1274 0.949 . S
C1280 C1284 1.368 . S
C1281 C1262 1.429 . S
C1281 C1275 1.429 . S
C1281 C1282 1.523 . S
C1282 C1263 1.368 1_455 S
C1282 C1276 1.368 . S
C1282 C1281 1.523 . S
C1283 C1267 1.429 . S
C1283 C1279 1.429 . S
C1283 C1284 1.523 . S
C1284 C1268 1.368 1_655 S
C1284 C1280 1.368 . S
C1284 C1283 1.523 . S
H1285 C1260 0.950 . S
H1286 C1262 0.950 . S
H1287 C1263 0.949 . S
H1288 C1265 0.950 . S
H1289 C1267 0.950 . S
C1290 C1291 1.349 . S
C1290 C1292 1.327 . S
C1290 H1315 0.950 . S
C1291 C1290 1.349 . S
C1291 C1307 1.349 . S
C1292 C1290 1.327 . S
C1292 C1311 1.429 . S
C1292 H1316 0.950 . S
C1293 C1310 1.574 . S
C1293 C1312 1.368 . S
C1293 H1317 0.949 . S
H1294 C1298 0.949 . S
C1295 C1296 1.349 . S
C1295 C1297 1.327 . S
C1295 H1318 0.950 . S
C1296 C1295 1.349 . S
C1296 C1308 1.349 . S
C1297 C1295 1.327 . S
C1297 C1313 1.429 . S
C1297 H1319 0.950 . S
C1298 H1294 0.949 . S
C1298 C1306 1.574 . S
C1298 C1314 1.368 . S
H1299 C1307 0.950 . S
H1300 C1305 0.950 . S
H1301 C1306 0.949 . S
H1302 C1308 0.950 . S
H1303 C1309 0.950 . S
H1304 C1310 0.949 . S
C1305 H1300 0.950 . S
C1305 C1307 1.327 . S
C1305 C1311 1.429 . S
C1306 C1298 1.574 . S
C1306 H1301 0.949 . S
C1306 C1312 1.368 . S
C1307 C1291 1.349 . S
C1307 H1299 0.950 . S
C1307 C1305 1.327 . S
C1308 C1296 1.349 . S
C1308 H1302 0.950 . S
C1308 C1309 1.327 . S
C1309 H1303 0.950 . S
C1309 C1308 1.327 . S
C1309 C1313 1.429 . S
C1310 C1293 1.574 . S
C1310 H1304 0.949 . S
C1310 C1314 1.368 . S
C1311 C1292 1.429 . S
C1311 C1305 1.429 . S
C1311 C1312 1.523 . S
C1312 C1293 1.368 . S
C1312 C1306 1.368 . S
C1312 C1311 1.523 . S
C1313 C1297 1.429 . S
C1313 C1309 1.429 . S
C1313 C1314 1.523 . S
C1314 C1298 1.368 . S
C1314 C1310 1.368 . S
C1314 C1313 1.523 . S
H1315 C1290 0.950 . S
H1316 C1292 0.950 . S
H1317 C1293 0.949 . S
H1318 C1295 0.950 . S
H1319 C1297 0.950 . S
C1320 C1321 1.349 . S
C1320 C1322 1.327 . S
C1320 H1345 0.950 . S
C1321 C1320 1.349 . S
C1321 C1337 1.349 . S
C1322 C1320 1.327 . S
C1322 C1341 1.429 . S
C1322 H1346 0.950 . S
C1323 C1340 1.574 . S
C1323 C1342 1.368 . S
C1323 H1347 0.949 . S
H1324 C1328 0.949 . S
C1325 C1326 1.349 . S
C1325 C1327 1.327 . S
C1325 H1348 0.950 . S
C1326 C1325 1.349 . S
C1326 C1338 1.349 . S
C1327 C1325 1.327 . S
C1327 C1343 1.429 . S
C1327 H1349 0.950 . S
C1328 H1324 0.949 . S
C1328 C1336 1.574 . S
C1328 C1344 1.368 . S
H1329 C1337 0.950 . S
H1330 C1335 0.950 . S
H1331 C1336 0.949 . S
H1332 C1338 0.950 . S
H1333 C1339 0.950 . S
H1334 C1340 0.949 . S
C1335 H1330 0.950 . S
C1335 C1337 1.327 . S
C1335 C1341 1.429 . S
C1336 C1328 1.574 . S
C1336 H1331 0.949 . S
C1336 C1342 1.368 . S
C1337 C1321 1.349 . S
C1337 H1329 0.950 . S
C1337 C1335 1.327 . S
C1338 C1326 1.349 . S
C1338 H1332 0.950 . S
C1338 C1339 1.327 . S
C1339 H1333 0.950 . S
C1339 C1338 1.327 . S
C1339 C1343 1.429 . S
C1340 C1323 1.574 . S
C1340 H1334 0.949 . S
C1340 C1344 1.368 . S
C1341 C1322 1.429 . S
C1341 C1335 1.429 . S
C1341 C1342 1.523 . S
C1342 C1323 1.368 . S
C1342 C1336 1.368 . S
C1342 C1341 1.523 . S
C1343 C1327 1.429 . S
C1343 C1339 1.429 . S
C1343 C1344 1.523 . S
C1344 C1328 1.368 . S
C1344 C1340 1.368 . S
C1344 C1343 1.523 . S
H1345 C1320 0.950 . S
H1346 C1322 0.950 . S
H1347 C1323 0.949 . S
H1348 C1325 0.950 . S
H1349 C1327 0.950 . S
C1350 C1351 1.349 . S
C1350 C1352 1.327 . S
C1350 H1375 0.950 . S
C1351 C1350 1.349 . S
C1351 C1367 1.349 . S
C1352 C1350 1.327 . S
C1352 C1371 1.429 . S
C1352 H1376 0.950 . S
C1353 C1370 1.574 . S
C1353 C1372 1.368 1_655 S
C1353 H1377 0.949 . S
H1354 C1358 0.949 . S
C1355 C1356 1.349 . S
C1355 C1357 1.327 . S
C1355 H1378 0.950 . S
C1356 C1355 1.349 . S
C1356 C1368 1.349 . S
C1357 C1355 1.327 . S
C1357 C1373 1.429 . S
C1357 H1379 0.950 . S
C1358 H1354 0.949 . S
C1358 C1366 1.574 . S
C1358 C1374 1.368 1_455 S
H1359 C1367 0.950 . S
H1360 C1365 0.929 1_655 S
H1361 C1366 0.949 . S
H1362 C1368 0.950 . S
H1363 C1369 0.922 1_455 S
H1364 C1370 0.949 . S
C1365 H1360 0.929 1_455 S
C1365 C1367 1.327 . S
C1365 C1371 1.429 . S
C1366 C1358 1.574 . S
C1366 H1361 0.949 . S
C1366 C1372 1.368 . S
C1367 C1351 1.349 . S
C1367 H1359 0.950 . S
C1367 C1365 1.327 . S
C1368 C1356 1.349 . S
C1368 H1362 0.950 . S
C1368 C1369 1.327 . S
C1369 H1363 0.922 1_655 S
C1369 C1368 1.327 . S
C1369 C1373 1.429 . S
C1370 C1353 1.574 . S
C1370 H1364 0.949 . S
C1370 C1374 1.368 . S
C1371 C1352 1.429 . S
C1371 C1365 1.429 . S
C1371 C1372 1.523 . S
C1372 C1353 1.368 1_455 S
C1372 C1366 1.368 . S
C1372 C1371 1.523 . S
C1373 C1357 1.429 . S
C1373 C1369 1.429 . S
C1373 C1374 1.523 . S
C1374 C1358 1.368 1_655 S
C1374 C1370 1.368 . S
C1374 C1373 1.523 . S
H1375 C1350 0.950 . S
H1376 C1352 0.950 . S
H1377 C1353 0.949 . S
H1378 C1355 0.950 . S
H1379 C1357 0.950 . S
C1380 C1381 1.349 . S
C1380 C1382 1.327 . S
C1380 H1405 0.950 . S
C1381 C1380 1.349 . S
C1381 C1397 1.349 . S
C1382 C1380 1.327 . S
C1382 C1401 1.429 . S
C1382 H1406 0.950 . S
C1383 C1400 1.574 . S
C1383 C1402 1.368 . S
C1383 H1407 0.949 . S
H1384 C1388 0.949 . S
C1385 C1386 1.349 . S
C1385 C1387 1.327 . S
C1385 H1408 0.950 . S
C1386 C1385 1.349 . S
C1386 C1398 1.349 . S
C1387 C1385 1.327 . S
C1387 C1403 1.429 . S
C1387 H1409 0.950 . S
C1388 H1384 0.949 . S
C1388 C1396 1.574 . S
C1388 C1404 1.368 . S
H1389 C1397 0.950 . S
H1390 C1395 0.950 . S
H1391 C1396 0.949 . S
H1392 C1398 0.950 . S
H1393 C1399 0.950 . S
H1394 C1400 0.949 . S
C1395 H1390 0.950 . S
C1395 C1397 1.327 . S
C1395 C1401 1.429 . S
C1396 C1388 1.574 . S
C1396 H1391 0.949 . S
C1396 C1402 1.368 . S
C1397 C1381 1.349 . S
C1397 H1389 0.950 . S
C1397 C1395 1.327 . S
C1398 C1386 1.349 . S
C1398 H1392 0.950 . S
C1398 C1399 1.327 . S
C1399 H1393 0.950 . S
C1399 C1398 1.327 . S
C1399 C1403 1.429 . S
C1400 C1383 1.574 . S
C1400 H1394 0.949 . S
C1400 C1404 1.368 . S
C1401 C1382 1.429 . S
C1401 C1395 1.429 . S
C1401 C1402 1.523 . S
C1402 C1383 1.368 . S
C1402 C1396 1.368 . S
C1402 C1401 1.523 . S
C1403 C1387 1.429 . S
C1403 C1399 1.429 . S
C1403 C1404 1.523 . S
C1404 C1388 1.368 . S
C1404 C1400 1.368 . S
C1404 C1403 1.523 . S
H1405 C1380 0.950 . S
H1406 C1382 0.950 . S
H1407 C1383 0.949 . S
H1408 C1385 0.950 . S
H1409 C1387 0.950 . S
C1410 C1411 1.349 . S
C1410 C1412 1.327 . S
C1410 H1435 0.950 . S
C1411 C1410 1.349 . S
C1411 C1427 1.349 . S
C1412 C1410 1.327 . S
C1412 C1431 1.429 . S
C1412 H1436 0.950 . S
C1413 C1430 1.574 . S
C1413 C1432 1.368 . S
C1413 H1437 0.949 . S
H1414 C1418 0.949 . S
C1415 C1416 1.349 . S
C1415 C1417 1.327 . S
C1415 H1438 0.950 . S
C1416 C1415 1.349 . S
C1416 C1428 1.349 . S
C1417 C1415 1.327 . S
C1417 C1433 1.429 . S
C1417 H1439 0.950 . S
C1418 H1414 0.949 . S
C1418 C1426 1.574 . S
C1418 C1434 1.368 . S
H1419 C1427 0.950 . S
H1420 C1425 0.950 . S
H1421 C1426 0.949 . S
H1422 C1428 0.950 . S
H1423 C1429 0.950 . S
H1424 C1430 0.949 . S
C1425 H1420 0.950 . S
C1425 C1427 1.327 . S
C1425 C1431 1.429 . S
C1426 C1418 1.574 . S
C1426 H1421 0.949 . S
C1426 C1432 1.368 . S
C1427 C1411 1.349 . S
C1427 H1419 0.950 . S
C1427 C1425 1.327 . S
C1428 C1416 1.349 . S
C1428 H1422 0.950 . S
C1428 C1429 1.327 . S
C1429 H1423 0.950 . S
C1429 C1428 1.327 . S
C1429 C1433 1.429 . S
C1430 C1413 1.574 . S
C1430 H1424 0.949 . S
C1430 C1434 1.368 . S
C1431 C1412 1.429 . S
C1431 C1425 1.429 . S
C1431 C1432 1.523 . S
C1432 C1413 1.368 . S
C1432 C1426 1.368 . S
C1432 C1431 1.523 . S
C1433 C1417 1.429 . S
C1433 C1429 1.429 . S
C1433 C1434 1.523 . S
C1434 C1418 1.368 . S
C1434 C1430 1.368 . S
C1434 C1433 1.523 . S
H1435 C1410 0.950 . S
H1436 C1412 0.950 . S
H1437 C1413 0.949 . S
H1438 C1415 0.950 . S
H1439 C1417 0.950 . S
C486 C388 1.232 . S
C481 C8 1.220 . S
C516 C405 1.346 . S
C511 C61 1.378 . S
C546 C419 1.509 . S
C541 C107 1.535 . S
C571 C139 1.247 . S
C576 C377 1.234 . S
C601 C192 1.161 . S
C606 C374 1.170 . S
C631 C238 0.984 . S
C636 C391 0.971 . S
C666 C402 1.473 . S
C661 C284 1.468 . S
C696 C416 1.294 . S
C691 C330 1.285 . S
C721 C100 1.285 . S
C726 C444 1.294 . S
C756 C458 1.473 . S
C751 C160 1.456 . S
C781 C15 0.983 . S
C786 C475 0.972 . S
C816 C430 1.175 . S
C811 C54 1.161 1_655 S
C841 C291 1.251 . S
C846 C433 1.233 . S
C871 C337 1.535 . S
C876 C447 1.508 . S
C906 C461 1.347 . S
C901 C199 1.381 . S
C931 C245 1.216 . S
C936 C472 1.233 . S
C966 C404 1.961 . S
C961 C1 1.969 . S
C996 C418 2.054 . S
C991 C68 2.037 . S
C1021 C114 1.961 . S
C1026 C376 1.974 . S
C1051 C146 1.856 . S
C1056 C389 1.752 . S
C1081 C185 1.625 . S
C1086 C417 1.498 . S
C1116 C375 1.425 . S
C1111 C231 1.553 . S
C1146 C390 1.829 . S
C1141 C277 1.841 . S
C1176 C403 1.632 . S
C1171 C323 1.750 . S
C1206 C459 1.632 . S
C1201 C93 1.750 . S
C1236 C474 1.829 . S
C1231 C153 1.844 . S
C1261 C22 1.545 . S
C1266 C431 1.425 . S
C1296 C445 1.500 . S
C1291 C47 1.625 . S
C1326 C473 1.751 . S
C1321 C298 1.840 . S
C1351 C344 1.961 . S
C1356 C432 1.974 . S
C1386 C446 2.055 . S
C1381 C206 2.040 . S
C1416 C460 1.961 . S
C1411 C252 1.962 . S
