# Generated by pormake.
# Topology pyr, (3,6)-cn, num edge types: 1
# Building blocks:
#     Node 0, Type 0, BuildingBlock: BETDIP_clean_linker_0, # of connection points: 3
#     Node 1, Type 0, BuildingBlock: BETDIP_clean_linker_0, # of connection points: 3
#     Node 2, Type 0, BuildingBlock: BETDIP_clean_linker_0, # of connection points: 3
#     Node 3, Type 0, BuildingBlock: BETDIP_clean_linker_0, # of connection points: 3
#     Node 4, Type 0, BuildingBlock: BETDIP_clean_linker_0, # of connection points: 3
#     Node 5, Type 0, BuildingBlock: BETDIP_clean_linker_0, # of connection points: 3
#     Node 6, Type 0, BuildingBlock: BETDIP_clean_linker_0, # of connection points: 3
#     Node 7, Type 0, BuildingBlock: BETDIP_clean_linker_0, # of connection points: 3
#     Node 8, Type 1, BuildingBlock: MIDCAF_clean_sbu_0, # of connection points: 6
#     Node 9, Type 1, BuildingBlock: MIDCAF_clean_sbu_0, # of connection points: 6
#     Node 10, Type 1, BuildingBlock: MIDCAF_clean_sbu_0, # of connection points: 6
#     Node 11, Type 1, BuildingBlock: MIDCAF_clean_sbu_0, # of connection points: 6
#     Edge 12, Type (0, 1), BuildingBlock: EZIPEK_clean_linker_0, # of connection points: 2
#     Edge 13, Type (0, 1), BuildingBlock: EZIPEK_clean_linker_0, # of connection points: 2
#     Edge 14, Type (0, 1), BuildingBlock: EZIPEK_clean_linker_0, # of connection points: 2
#     Edge 15, Type (0, 1), BuildingBlock: EZIPEK_clean_linker_0, # of connection points: 2
#     Edge 16, Type (0, 1), BuildingBlock: EZIPEK_clean_linker_0, # of connection points: 2
#     Edge 17, Type (0, 1), BuildingBlock: EZIPEK_clean_linker_0, # of connection points: 2
#     Edge 18, Type (0, 1), BuildingBlock: EZIPEK_clean_linker_0, # of connection points: 2
#     Edge 19, Type (0, 1), BuildingBlock: EZIPEK_clean_linker_0, # of connection points: 2
#     Edge 20, Type (0, 1), BuildingBlock: EZIPEK_clean_linker_0, # of connection points: 2
#     Edge 21, Type (0, 1), BuildingBlock: EZIPEK_clean_linker_0, # of connection points: 2
#     Edge 22, Type (0, 1), BuildingBlock: EZIPEK_clean_linker_0, # of connection points: 2
#     Edge 23, Type (0, 1), BuildingBlock: EZIPEK_clean_linker_0, # of connection points: 2
#     Edge 24, Type (0, 1), BuildingBlock: EZIPEK_clean_linker_0, # of connection points: 2
#     Edge 25, Type (0, 1), BuildingBlock: EZIPEK_clean_linker_0, # of connection points: 2
#     Edge 26, Type (0, 1), BuildingBlock: EZIPEK_clean_linker_0, # of connection points: 2
#     Edge 27, Type (0, 1), BuildingBlock: EZIPEK_clean_linker_0, # of connection points: 2
#     Edge 28, Type (0, 1), BuildingBlock: EZIPEK_clean_linker_0, # of connection points: 2
#     Edge 29, Type (0, 1), BuildingBlock: EZIPEK_clean_linker_0, # of connection points: 2
#     Edge 30, Type (0, 1), BuildingBlock: EZIPEK_clean_linker_0, # of connection points: 2
#     Edge 31, Type (0, 1), BuildingBlock: EZIPEK_clean_linker_0, # of connection points: 2
#     Edge 32, Type (0, 1), BuildingBlock: EZIPEK_clean_linker_0, # of connection points: 2
#     Edge 33, Type (0, 1), BuildingBlock: EZIPEK_clean_linker_0, # of connection points: 2
#     Edge 34, Type (0, 1), BuildingBlock: EZIPEK_clean_linker_0, # of connection points: 2
#     Edge 35, Type (0, 1), BuildingBlock: EZIPEK_clean_linker_0, # of connection points: 2
# Relax obj value: 0.092
# Max RMSD: 0.176
# Mean RMSD: 0.134
data_MOF--net-pyr--node1-MIDCAF_clean_sbu_0--node2-BETDIP_clean_linker_0--edge1-EZIPEK_clean_linker_0
_symmetry_space_group_name_H-M    P1
_symmetry_Int_Tables_number       1
_symmetry_cell_setting            triclinic
loop_
_symmetry_equiv_pos_as_xyz
'x, y, z'
_cell_length_a     25.519624
_cell_length_b     25.151534
_cell_length_c     26.629767
_cell_angle_alpha  93.611086
_cell_angle_beta   85.141731
_cell_angle_gamma 97.36765
loop_
_atom_site_label
_atom_site_type_symbol
_atom_site_fract_x
_atom_site_fract_y
_atom_site_fract_z
_atom_type_partial_charge
H0 H 0.1959 0.271 0.29912 0.0
H1 H 0.3204 0.27278 0.17957 0.0
H2 H 0.27554 0.13152 0.26383 0.0
H3 H 0.29459 0.34768 0.15798 0.0
C4 C 0.25549 0.35114 0.17619 0.0
C5 C 0.22688 0.25175 0.27753 0.0
C6 C 0.23515 0.19979 0.28823 0.0
C7 C 0.25572 0.27768 0.23712 0.0
C8 C 0.29638 0.25265 0.20976 0.0
C9 C 0.30343 0.19924 0.21816 0.0
C10 C 0.27202 0.17303 0.25751 0.0
N11 N 0.23813 0.3252 0.22169 0.0
H12 H 0.29949 0.86366 0.808 0.0
H13 H 0.28517 0.75468 0.67702 0.0
H14 H 0.40949 0.74805 0.77465 0.0
H15 H 0.20578 0.7834 0.67414 0.0
C16 C 0.20991 0.82436 0.69005 0.0
C17 C 0.312 0.82959 0.78524 0.0
C18 C 0.35664 0.80702 0.79722 0.0
C19 C 0.28515 0.81087 0.74252 0.0
C20 C 0.30343 0.76838 0.71146 0.0
C21 C 0.34841 0.7457 0.72287 0.0
C22 C 0.37402 0.76437 0.76644 0.0
N23 N 0.24424 0.83985 0.72922 0.0
H24 H 0.76769 0.40153 0.7964 0.0
H25 H 0.65829 0.25654 0.79523 0.0
H26 H 0.76826 0.28723 0.90991 0.0
H27 H 0.65686 0.27266 0.71028 0.0
C28 C 0.65814 0.31604 0.71334 0.0
C29 C 0.75363 0.36276 0.81145 0.0
C30 C 0.77514 0.34714 0.85427 0.0
C31 C 0.71343 0.32922 0.78832 0.0
C32 C 0.69216 0.28089 0.81016 0.0
C33 C 0.71154 0.26609 0.85431 0.0
C34 C 0.75407 0.29831 0.87524 0.0
N35 N 0.6917 0.348 0.7464 0.0
H36 H 0.76775 0.67168 0.2844 0.0
H37 H 0.87797 0.81456 0.30383 0.0
H38 H 0.76513 0.76299 0.42568 0.0
H39 H 0.79793 0.67284 0.20312 0.0
C40 C 0.83879 0.69089 0.20436 0.0
C41 C 0.78241 0.7071 0.30645 0.0
C42 C 0.76113 0.71377 0.35644 0.0
C43 C 0.82433 0.74389 0.28693 0.0
C44 C 0.84403 0.78765 0.31792 0.0
C45 C 0.82291 0.79488 0.36795 0.0
C46 C 0.78036 0.75864 0.38656 0.0
N47 N 0.85229 0.7345 0.2393 0.0
H48 H 0.83966 0.90364 0.96323 0.0
H49 H 0.97203 0.88691 0.85414 0.0
H50 H 0.86447 0.00012 0.83348 0.0
H51 H 0.00572 0.85346 0.91917 0.0
C52 C 0.97116 0.82897 0.93567 0.0
C53 C 0.86319 0.91597 0.92915 0.0
C54 C 0.84724 0.9553 0.90059 0.0
C55 C 0.90859 0.89152 0.91353 0.0
C56 C 0.93793 0.90642 0.86827 0.0
C57 C 0.92229 0.94568 0.83961 0.0
C58 C 0.87708 0.97031 0.85597 0.0
N59 N 0.92176 0.84994 0.94229 0.0
H60 H 0.64173 0.07664 0.32934 0.0
H61 H 0.65334 0.17748 0.46571 0.0
H62 H 0.5399 0.20023 0.36071 0.0
H63 H 0.68456 0.0971 0.49232 0.0
C64 C 0.71212 0.09311 0.45929 0.0
C65 C 0.62801 0.10872 0.35414 0.0
C66 C 0.58751 0.13626 0.34007 0.0
C67 C 0.65134 0.12231 0.39968 0.0
C68 C 0.63428 0.16481 0.43137 0.0
C69 C 0.59448 0.19336 0.41709 0.0
C70 C 0.5706 0.17833 0.37184 0.0
N71 N 0.69464 0.09548 0.41035 0.0
H72 H 0.38838 0.52874 0.13595 0.0
H73 H 0.49534 0.67601 0.13017 0.0
H74 H 0.35836 0.65528 0.04515 0.0
H75 H 0.5232 0.65167 0.1999 0.0
C76 C 0.50572 0.61153 0.20884 0.0
C77 C 0.40077 0.56769 0.1206 0.0
C78 C 0.36893 0.58807 0.08809 0.0
C79 C 0.44587 0.59934 0.13705 0.0
C80 C 0.46071 0.65062 0.11819 0.0
C81 C 0.42947 0.67036 0.08447 0.0
C82 C 0.38367 0.63905 0.06953 0.0
N83 N 0.47167 0.57994 0.176 0.0
H84 H 0.06374 0.34174 0.6209 0.0
H85 H 0.13233 0.49924 0.67133 0.0
H86 H 0.21489 0.40825 0.55462 0.0
H87 H 0.99205 0.35698 0.70428 0.0
C88 C 0.03027 0.37587 0.71517 0.0
C89 C 0.09464 0.37542 0.61722 0.0
C90 C 0.13869 0.37077 0.58294 0.0
C91 C 0.09214 0.42158 0.64928 0.0
C92 C 0.13315 0.46436 0.64535 0.0
C93 C 0.17786 0.45943 0.61163 0.0
C94 C 0.17976 0.41307 0.57958 0.0
N95 N 0.05253 0.42271 0.68989 0.0
Zn96 Zn 0.98666 0.10625 0.58792 0.0
Zn97 Zn 0.07656 0.97112 0.47344 0.0
Zn98 Zn 0.033 0.0375 0.53416 0.0
C99 C 0.1143 0.06994 0.43818 0.0
C100 C 0.96992 0.94404 0.4673 0.0
O101 O 0.03391 0.01393 0.61214 0.0
O102 O 0.97363 0.06319 0.64792 0.0
C103 C 0.07658 0.16193 0.54713 0.0
O104 O 0.09132 0.08332 0.48127 0.0
O105 O 0.11051 0.02142 0.4222 0.0
O106 O 0.01222 0.9234 0.45646 0.0
O107 O 0.97034 0.98883 0.49351 0.0
O108 O 0.04435 0.16618 0.58531 0.0
O109 O 0.07553 0.11772 0.51999 0.0
O110 O 0.9489 0.03336 0.51423 0.0
O111 O 0.92578 0.11034 0.54803 0.0
C112 C 0.9157 0.06834 0.52041 0.0
O113 O 0.07635 0.99087 0.58403 0.0
O114 O 0.12148 0.94891 0.52346 0.0
C115 C 0.00203 0.02605 0.65015 0.0
C116 C 0.11424 0.96236 0.5698 0.0
Zn117 Zn 0.4714 0.05169 0.97822 0.0
Zn118 Zn 0.58903 0.96442 0.0837 0.0
Zn119 Zn 0.52962 0.01085 0.03044 0.0
C120 C 0.65396 0.00037 1.00179 0.0
C121 C 0.50891 0.88691 0.05407 0.0
O122 O 0.48211 0.06437 0.08191 0.0
O123 O 0.41814 0.07038 0.03274 0.0
C124 C 0.57359 0.10058 0.95521 0.0
O125 O 0.61275 0.02347 0.99573 0.0
O126 O 0.6536 0.9694 0.03726 0.0
O127 O 0.54375 0.89457 0.08549 0.0
O128 O 0.50018 0.92497 0.02692 0.0
O129 O 0.52628 0.10962 0.95332 0.0
O130 O 0.58379 0.0606 0.97898 0.0
O131 O 0.48007 0.94573 0.9869 0.0
O132 O 0.45041 0.99215 0.92998 0.0
C133 C 0.45595 0.94748 0.94638 0.0
O134 O 0.52126 0.04576 0.10925 0.0
O135 O 0.58587 0.01372 0.14388 0.0
C136 C 0.43702 0.07994 0.07513 0.0
C137 C 0.54977 0.04388 0.14675 0.0
Zn138 Zn 0.5679 0.56714 0.57641 0.0
Zn139 Zn 0.43342 0.44768 0.47068 0.0
Zn140 Zn 0.50594 0.50949 0.51728 0.0
C141 C 0.50584 0.38159 0.49157 0.0
C142 C 0.48389 0.5252 0.40534 0.0
O143 O 0.46166 0.56298 0.57174 0.0
O144 O 0.52234 0.62087 0.60699 0.0
C145 C 0.56979 0.46091 0.59795 0.0
O146 O 0.52191 0.4246 0.51777 0.0
O147 O 0.46719 0.3806 0.46485 0.0
O148 O 0.44204 0.49289 0.41156 0.0
O149 O 0.51712 0.53367 0.43968 0.0
O150 O 0.58078 0.50747 0.61787 0.0
O151 O 0.54491 0.45385 0.5575 0.0
O152 O 0.56547 0.55367 0.46358 0.0
O153 O 0.62125 0.5863 0.51982 0.0
C154 C 0.61182 0.57637 0.47413 0.0
O155 O 0.42598 0.52464 0.54948 0.0
O156 O 0.37217 0.45616 0.51904 0.0
C157 C 0.47433 0.60493 0.60079 0.0
C158 C 0.37954 0.49788 0.54764 0.0
Zn159 Zn 0.10708 0.55962 0.94159 0.0
Zn160 Zn 0.99066 0.44848 0.06399 0.0
Zn161 Zn 0.04516 0.51203 0.00781 0.0
C162 C 0.08788 0.42837 0.07839 0.0
C163 C 0.93851 0.44482 0.97568 0.0
O164 O 0.02513 0.59436 0.0114 0.0
O165 O 0.06259 0.6182 0.93681 0.0
C166 C 0.16931 0.53968 0.01355 0.0
O167 O 0.0943 0.47248 0.05526 0.0
O168 O 0.04298 0.40042 0.0816 0.0
O169 O 0.9309 0.42781 0.01969 0.0
O170 O 0.9853 0.46678 0.96121 0.0
O171 O 0.17102 0.57329 0.98006 0.0
O172 O 0.12616 0.50958 0.02567 0.0
O173 O 0.03562 0.46077 0.93774 0.0
O174 O 0.10628 0.49625 0.89337 0.0
C175 C 0.07081 0.45705 0.90045 0.0
O176 O 0.0025 0.56818 0.05661 0.0
O177 O 0.9778 0.50921 0.11389 0.0
C178 C 0.03276 0.62749 0.97584 0.0
C179 C 0.98311 0.55744 0.10155 0.0
C180 C 0.22176 0.17034 0.37744 0.0
C181 C 0.20187 0.1716 0.32935 0.0
C182 C 0.11885 0.11914 0.35948 0.0
C183 C 0.14177 0.11115 0.40463 0.0
N184 N 0.21469 0.12766 0.45756 0.0
N185 N 0.13308 0.14493 0.27276 0.0
C186 C 0.19291 0.13698 0.41427 0.0
C187 C 0.1506 0.14577 0.31998 0.0
N188 N 0.26793 0.20146 0.38786 0.0
N189 N 0.06627 0.10211 0.35499 0.0
H190 H 0.15477 0.16474 0.24299 0.0
H191 H 0.09877 0.12155 0.26199 0.0
H192 H 0.04183 0.08313 0.38369 0.0
H193 H 0.0457 0.11127 0.32518 0.0
H194 H 0.282 0.20669 0.42362 0.0
H195 H 0.29042 0.22548 0.36136 0.0
H196 H 0.25397 0.14028 0.46455 0.0
H197 H 0.19402 0.10459 0.48576 0.0
C198 C 0.43682 0.86651 0.8257 0.0
C199 C 0.38884 0.83314 0.83831 0.0
C200 C 0.39297 0.86414 0.92758 0.0
C201 C 0.43969 0.89878 0.91426 0.0
N202 N 0.51495 0.92042 0.85544 0.0
N203 N 0.32849 0.78963 0.90188 0.0
C204 C 0.46464 0.89532 0.86484 0.0
C205 C 0.36939 0.82836 0.88967 0.0
N206 N 0.45394 0.87381 0.77624 0.0
N207 N 0.36983 0.86756 0.97564 0.0
H208 H 0.3107 0.76312 0.87475 0.0
H209 H 0.31515 0.78081 0.9388 0.0
H210 H 0.3873 0.89216 0.00422 0.0
H211 H 0.33265 0.84788 0.98675 0.0
H212 H 0.48506 0.90253 0.76487 0.0
H213 H 0.43463 0.85425 0.74606 0.0
H214 H 0.5376 0.91536 0.82146 0.0
H215 H 0.53586 0.94217 0.88363 0.0
C216 C 0.64147 0.34453 0.62825 0.0
C217 C 0.627 0.34338 0.68075 0.0
C218 C 0.56229 0.40573 0.67309 0.0
C219 C 0.58411 0.41473 0.62319 0.0
N220 N 0.64592 0.39484 0.55295 0.0
N221 N 0.57228 0.37021 0.75384 0.0
C222 C 0.62333 0.3839 0.60015 0.0
C223 C 0.58662 0.3729 0.70332 0.0
N224 N 0.67321 0.30873 0.6056 0.0
N225 N 0.51765 0.42784 0.691 0.0
H226 H 0.58647 0.34355 0.77633 0.0
H227 H 0.54808 0.39577 0.77393 0.0
H228 H 0.4984 0.4512 0.66917 0.0
H229 H 0.49686 0.41914 0.72544 0.0
H230 H 0.68094 0.30403 0.56665 0.0
H231 H 0.68799 0.28026 0.62555 0.0
H232 H 0.67859 0.37774 0.53621 0.0
H233 H 0.6343 0.42399 0.53157 0.0
C234 C 0.88597 0.60928 0.2007 0.0
C235 C 0.88127 0.65984 0.18182 0.0
C236 C 0.96074 0.65218 0.12456 0.0
C237 C 0.95909 0.59818 0.13701 0.0
N238 N 0.94458 0.54271 0.20871 0.0
N239 N 0.91421 0.73042 0.1257 0.0
C240 C 0.92885 0.58143 0.18164 0.0
C241 C 0.91922 0.68208 0.14429 0.0
N242 N 0.84926 0.58725 0.23631 0.0
N243 N 0.00509 0.67661 0.09936 0.0
H244 H 0.88444 0.75356 0.13938 0.0
H245 H 0.93713 0.74546 0.09425 0.0
H246 H 0.0387 0.6571 0.09089 0.0
H247 H 0.01141 0.71772 0.09426 0.0
H248 H 0.84752 0.54775 0.24664 0.0
H249 H 0.81814 0.60684 0.25289 0.0
H250 H 0.92642 0.53178 0.2437 0.0
H251 H 0.98086 0.52794 0.20022 0.0
C252 C 0.37491 0.13629 0.2007 0.0
C253 C 0.34005 0.16949 0.1827 0.0
C254 C 0.38117 0.15429 0.0977 0.0
C255 C 0.4077 0.1129 0.11399 0.0
N256 N 0.415 0.05486 0.1814 0.0
N257 N 0.29911 0.19235 0.10916 0.0
C258 C 0.40085 0.10116 0.16574 0.0
C259 C 0.33993 0.17352 0.12971 0.0
N260 N 0.38472 0.13898 0.25041 0.0
N261 N 0.39561 0.17624 0.05221 0.0
H262 H 0.26466 0.20088 0.13036 0.0
H263 H 0.29673 0.19243 0.07024 0.0
H264 H 0.4287 0.16676 0.02927 0.0
H265 H 0.37873 0.20874 0.04084 0.0
H266 H 0.41277 0.1178 0.26384 0.0
H267 H 0.36964 0.16682 0.27662 0.0
H268 H 0.40632 0.04314 0.21838 0.0
H269 H 0.42907 0.0255 0.15634 0.0
C270 C 0.21105 0.87486 0.61168 0.0
C271 C 0.19037 0.86634 0.66205 0.0
C272 C 0.13571 0.93946 0.65819 0.0
C273 C 0.14825 0.94018 0.60543 0.0
N274 N 0.22159 0.93465 0.54288 0.0
N275 N 0.13197 0.88994 0.73382 0.0
C276 C 0.19298 0.91533 0.58503 0.0
C277 C 0.15288 0.89894 0.68575 0.0
N278 N 0.24759 0.84399 0.58893 0.0
N279 N 0.11439 0.98153 0.68294 0.0
H280 H 0.14369 0.86089 0.75531 0.0
H281 H 0.10014 0.90846 0.75067 0.0
H282 H 0.11142 0.01637 0.66475 0.0
H283 H 0.10894 0.98576 0.72214 0.0
H284 H 0.25878 0.84365 0.55039 0.0
H285 H 0.26455 0.81627 0.6079 0.0
H286 H 0.25715 0.92148 0.52834 0.0
H287 H 0.21395 0.96944 0.5269 0.0
C288 C 0.80026 0.40282 0.93199 0.0
C289 C 0.81451 0.38465 0.88176 0.0
C290 C 0.90253 0.43548 0.88807 0.0
C291 C 0.89371 0.43646 0.94149 0.0
N292 N 0.82841 0.44269 0.01203 0.0
N293 N 0.8779 0.39024 0.80886 0.0
C294 C 0.84057 0.4267 0.96289 0.0
C295 C 0.86514 0.40347 0.85852 0.0
N296 N 0.74788 0.40008 0.94874 0.0
N297 N 0.94387 0.46776 0.8657 0.0
H298 H 0.85321 0.36404 0.78679 0.0
H299 H 0.91454 0.40231 0.79018 0.0
H300 H 0.96603 0.49814 0.88593 0.0
H301 H 0.95069 0.47072 0.82683 0.0
H302 H 0.73386 0.41518 0.98387 0.0
H303 H 0.71771 0.38744 0.92508 0.0
H304 H 0.79303 0.42973 0.03251 0.0
H305 H 0.85381 0.47045 0.03209 0.0
C306 C 0.74518 0.63953 0.41659 0.0
C307 C 0.72567 0.66915 0.38007 0.0
C308 C 0.64321 0.60914 0.38726 0.0
C309 C 0.65498 0.59506 0.43493 0.0
N310 N 0.72496 0.58126 0.48658 0.0
N311 N 0.65459 0.6787 0.32784 0.0
C312 C 0.70861 0.60558 0.44728 0.0
C313 C 0.67419 0.65301 0.36437 0.0
N314 N 0.79856 0.64084 0.41905 0.0
N315 N 0.60988 0.57503 0.35993 0.0
H316 H 0.67593 0.71153 0.31025 0.0
H317 H 0.61562 0.66905 0.31805 0.0
H318 H 0.5958 0.53696 0.37242 0.0
H319 H 0.60537 0.58086 0.32217 0.0
H320 H 0.81564 0.61758 0.4426 0.0
H321 H 0.82577 0.66022 0.39267 0.0
H322 H 0.76117 0.59292 0.50187 0.0
H323 H 0.70206 0.54882 0.50347 0.0
C324 C 0.20356 0.35267 0.10022 0.0
C325 C 0.21635 0.37488 0.14877 0.0
C326 C 0.14917 0.43667 0.14799 0.0
C327 C 0.13319 0.41103 0.10172 0.0
N328 N 0.14337 0.34517 0.03321 0.0
N329 N 0.20408 0.43884 0.21862 0.0
C330 C 0.16018 0.36941 0.07748 0.0
C331 C 0.19001 0.41733 0.17248 0.0
N332 N 0.2329 0.3155 0.07594 0.0
N333 N 0.12539 0.47981 0.16816 0.0
H334 H 0.23676 0.42901 0.23546 0.0
H335 H 0.18312 0.46545 0.24113 0.0
H336 H 0.09381 0.49352 0.15253 0.0
H337 H 0.13824 0.50416 0.19883 0.0
H338 H 0.22969 0.3017 0.03856 0.0
H339 H 0.26311 0.30009 0.09216 0.0
H340 H 0.15689 0.31072 0.01594 0.0
H341 H 0.11355 0.35821 0.01433 0.0
C342 C 0.64499 0.23549 0.92424 0.0
C343 C 0.68119 0.22221 0.88335 0.0
C344 C 0.65106 0.12645 0.89241 0.0
C345 C 0.61651 0.14017 0.93449 0.0
N346 N 0.59267 0.20568 0.99956 0.0
N347 N 0.72672 0.1557 0.83465 0.0
C348 C 0.61757 0.19411 0.95339 0.0
C349 C 0.68698 0.16775 0.8695 0.0
N350 N 0.63437 0.28725 0.93352 0.0
N351 N 0.64753 0.07475 0.87272 0.0
H352 H 0.75296 0.18524 0.81679 0.0
H353 H 0.7363 0.11691 0.8265 0.0
H354 H 0.62137 0.04379 0.88838 0.0
H355 H 0.66782 0.06317 0.83906 0.0
H356 H 0.60433 0.29811 0.95964 0.0
H357 H 0.65165 0.3186 0.91154 0.0
H358 H 0.59639 0.24392 0.01736 0.0
H359 H 0.57301 0.17598 0.02243 0.0
C360 C 0.87735 0.82164 0.44242 0.0
C361 C 0.8502 0.83676 0.40205 0.0
C362 C 0.89281 0.92935 0.41307 0.0
C363 C 0.91994 0.91335 0.45271 0.0
N364 N 0.92314 0.85139 0.51707 0.0
N365 N 0.81987 0.90753 0.35943 0.0
C366 C 0.90653 0.86192 0.47168 0.0
C367 C 0.8537 0.8917 0.39101 0.0
N368 N 0.87962 0.76888 0.45015 0.0
N369 N 0.90658 0.97904 0.39453 0.0
H370 H 0.79063 0.88063 0.3432 0.0
H371 H 0.8175 0.94762 0.35332 0.0
H372 H 0.9348 0.00754 0.41021 0.0
H373 H 0.89221 0.9909 0.36208 0.0
H374 H 0.90349 0.75623 0.47578 0.0
H375 H 0.8624 0.73765 0.42737 0.0
H376 H 0.91068 0.81573 0.53491 0.0
H377 H 0.94468 0.88078 0.53916 0.0
C378 C 0.37288 0.65265 0.70136 0.0
C379 C 0.37255 0.70597 0.68693 0.0
C380 C 0.42548 0.68529 0.60838 0.0
C381 C 0.43322 0.63563 0.62702 0.0
N382 N 0.41814 0.57307 0.69312 0.0
N383 N 0.40347 0.77533 0.62872 0.0
C384 C 0.40742 0.61918 0.67377 0.0
C385 C 0.39958 0.72279 0.64059 0.0
N386 N 0.33986 0.634 0.74121 0.0
N387 N 0.44301 0.69654 0.55982 0.0
H388 H 0.38604 0.80453 0.65146 0.0
H389 H 0.4277 0.79104 0.59837 0.0
H390 H 0.46217 0.66974 0.53546 0.0
H391 H 0.43407 0.7298 0.54233 0.0
H392 H 0.33444 0.59397 0.75056 0.0
H393 H 0.31407 0.65762 0.762 0.0
H394 H 0.40509 0.56185 0.72949 0.0
H395 H 0.44326 0.54768 0.67392 0.0
C396 C 0.98889 0.008 0.79037 0.0
C397 C 0.95263 0.96039 0.7914 0.0
C398 C 0.96853 0.9459 0.69967 0.0
C399 C 0.99686 0.99809 0.69789 0.0
N400 N 0.03743 0.07829 0.74031 0.0
N401 N 0.9071 0.88317 0.74817 0.0
C402 C 0.00863 0.02868 0.74307 0.0
C403 C 0.94298 0.92847 0.74643 0.0
N404 N 0.00447 0.03307 0.83469 0.0
N405 N 0.96524 0.91362 0.65653 0.0
H406 H 0.88823 0.86876 0.78179 0.0
H407 H 0.89347 0.86147 0.71628 0.0
H408 H 0.98285 0.92569 0.62168 0.0
H409 H 0.94923 0.87341 0.65582 0.0
H410 H 0.03437 0.06522 0.83677 0.0
H411 H 0.99026 0.01895 0.86992 0.0
H412 H 0.04198 0.1058 0.77096 0.0
H413 H 0.05566 0.09268 0.70639 0.0
C414 C 0.5306 0.07053 0.28744 0.0
C415 C 0.56346 0.1202 0.29152 0.0
C416 C 0.56319 0.1288 0.2002 0.0
C417 C 0.54068 0.0745 0.19535 0.0
N418 N 0.50052 0.99332 0.23345 0.0
N419 N 0.61065 0.19824 0.2525 0.0
C420 C 0.52271 0.04559 0.23886 0.0
C421 C 0.57862 0.15053 0.24823 0.0
N422 N 0.5073 0.04734 0.33015 0.0
N423 N 0.5711 0.15881 0.15862 0.0
H424 H 0.62237 0.21557 0.28701 0.0
H425 H 0.6281 0.21928 0.22171 0.0
H426 H 0.56056 0.14327 0.12313 0.0
H427 H 0.58338 0.19994 0.16004 0.0
H428 H 0.47923 0.01344 0.32977 0.0
H429 H 0.51245 0.06512 0.36617 0.0
H430 H 0.49265 0.96776 0.26316 0.0
H431 H 0.49181 0.97487 0.1984 0.0
C432 C 0.51759 0.539 0.26495 0.0
C433 C 0.50821 0.59267 0.26006 0.0
C434 C 0.49348 0.6051 0.3521 0.0
C435 C 0.49523 0.54941 0.35598 0.0
N436 N 0.50703 0.46202 0.31663 0.0
N437 N 0.48276 0.67633 0.29815 0.0
C438 C 0.50637 0.51587 0.31246 0.0
C439 C 0.49578 0.626 0.30344 0.0
N440 N 0.53994 0.51117 0.22465 0.0
N441 N 0.48946 0.63791 0.39482 0.0
H442 H 0.48367 0.69346 0.26343 0.0
H443 H 0.46717 0.69988 0.32787 0.0
H444 H 0.48504 0.62366 0.43106 0.0
H445 H 0.49445 0.67963 0.39455 0.0
H446 H 0.55261 0.47373 0.22694 0.0
H447 H 0.55112 0.52801 0.18994 0.0
H448 H 0.50804 0.43462 0.28568 0.0
H449 H 0.50395 0.44405 0.35118 0.0
C450 C 0.01 0.3539 0.80694 0.0
C451 C 0.04716 0.36874 0.76623 0.0
C452 C 0.11129 0.40761 0.82464 0.0
C453 C 0.06822 0.41105 0.86171 0.0
N454 N 0.9912 0.35776 0.89843 0.0
N455 N 0.13961 0.37394 0.74033 0.0
C456 C 0.02161 0.37448 0.85648 0.0
C457 C 0.10041 0.3845 0.77619 0.0
N458 N 0.96554 0.31952 0.79808 0.0
N459 N 0.16175 0.42598 0.83619 0.0
H460 H 0.13088 0.35178 0.70698 0.0
H461 H 0.17985 0.38116 0.74568 0.0
H462 H 0.17103 0.4355 0.8734 0.0
H463 H 0.19413 0.43044 0.80963 0.0
H464 H 0.93578 0.30778 0.82573 0.0
H465 H 0.95954 0.30117 0.76245 0.0
H466 H 0.95605 0.33184 0.89777 0.0
H467 H 0.00447 0.3663 0.93438 0.0
C468 C 0.74847 0.94961 0.90058 0.0
C469 C 0.79678 0.97758 0.91616 0.0
C470 C 0.74804 0.03468 0.97644 0.0
C471 C 0.70022 0.00334 0.96426 0.0
N472 N 0.65212 0.94067 0.90776 0.0
N473 N 0.84355 0.05413 0.95881 0.0
C474 C 0.69963 0.96436 0.92346 0.0
C475 C 0.7968 0.02295 0.95064 0.0
N476 N 0.74962 0.90719 0.86589 0.0
N477 N 0.74653 0.07391 0.01427 0.0
H478 H 0.87968 0.04593 0.94056 0.0
H479 H 0.8465 0.0899 0.98079 0.0
H480 H 0.71085 0.08468 0.03154 0.0
H481 H 0.77992 0.095 0.02926 0.0
H482 H 0.71644 0.88106 0.85669 0.0
H483 H 0.78467 0.89668 0.84709 0.0
H484 H 0.64804 0.91496 0.8758 0.0
H485 H 0.61597 0.95009 0.92491 0.0
C486 C 0.81166 0.11238 0.44728 0.0
C487 C 0.7659 0.07899 0.46594 0.0
C488 C 0.82153 0.02795 0.51089 0.0
C489 C 0.8667 0.06256 0.49346 0.0
N490 N 0.90761 0.12541 0.43333 0.0
N491 N 0.72801 0.9971 0.50425 0.0
C492 C 0.86255 0.10052 0.45746 0.0
C493 C 0.77113 0.0341 0.49416 0.0
N494 N 0.80661 0.15773 0.42327 0.0
N495 N 0.82649 0.99112 0.54523 0.0
H496 H 0.69079 0.00044 0.49214 0.0
H497 H 0.72995 0.96096 0.52059 0.0
H498 H 0.86316 0.98431 0.55642 0.0
H499 H 0.79442 0.96896 0.56417 0.0
H500 H 0.83836 0.18666 0.41403 0.0
H501 H 0.77019 0.16912 0.41627 0.0
H502 H 0.90745 0.14988 0.40323 0.0
H503 H 0.94532 0.11697 0.44013 0.0
C504 C 0.31141 0.52889 0.0309 0.0
C505 C 0.31678 0.55934 0.07711 0.0
C506 C 0.2215 0.56361 0.08824 0.0
C507 C 0.21682 0.53698 0.0401 0.0
N508 N 0.25162 0.48014 0.97281 0.0
N509 N 0.2773 0.59146 0.15684 0.0
C510 C 0.26006 0.51463 0.01389 0.0
C511 C 0.27169 0.57144 0.10842 0.0
N512 N 0.35561 0.51614 0.00244 0.0
N513 N 0.17896 0.58465 0.11285 0.0
H514 H 0.31395 0.5987 0.17221 0.0
H515 H 0.24547 0.59641 0.18312 0.0
H516 H 0.14122 0.57862 0.09962 0.0
H517 H 0.18134 0.61014 0.14513 0.0
H518 H 0.35514 0.49943 0.96569 0.0
H519 H 0.39349 0.52421 0.01528 0.0
H520 H 0.28066 0.45913 0.95404 0.0
H521 H 0.21392 0.46899 0.96021 0.0
C522 C 0.24251 0.52987 0.57191 0.0
C523 C 0.22702 0.49759 0.61347 0.0
C524 C 0.31909 0.48932 0.62551 0.0
C525 C 0.33374 0.51416 0.57938 0.0
N526 N 0.31531 0.57455 0.51882 0.0
N527 N 0.2497 0.46792 0.69185 0.0
C528 C 0.2973 0.54094 0.55651 0.0
C529 C 0.26537 0.48547 0.64489 0.0
N530 N 0.20441 0.54595 0.54538 0.0
N531 N 0.35547 0.46553 0.64811 0.0
H532 H 0.21029 0.46584 0.70633 0.0
H533 H 0.27599 0.46114 0.71792 0.0
H534 H 0.39526 0.46837 0.63451 0.0
H535 H 0.34595 0.44147 0.67879 0.0
H536 H 0.21222 0.56494 0.51147 0.0
H537 H 0.16426 0.53894 0.55765 0.0
H538 H 0.29135 0.59756 0.50186 0.0
H539 H 0.35565 0.58244 0.50761 0.0
C540 C 0.94595 0.72916 0.94679 0.0
C541 C 0.97937 0.77776 0.95721 0.0
C542 C 0.04333 0.72703 0.99046 0.0
C543 C 0.00997 0.67879 0.98011 0.0
N544 N 0.92399 0.63437 0.96222 0.0
N545 N 0.05102 0.82388 0.00272 0.0
C546 C 0.95906 0.68019 0.96345 0.0
C547 C 0.02528 0.77693 0.98355 0.0
N548 N 0.90461 0.72866 0.91725 0.0
N549 N 0.09287 0.72502 0.00559 0.0
H550 H 0.03786 0.86105 0.9995 0.0
H551 H 0.08191 0.82548 0.02616 0.0
H552 H 0.10616 0.68923 0.01387 0.0
H553 H 0.12153 0.75837 0.00762 0.0
H554 H 0.88274 0.69349 0.90407 0.0
H555 H 0.89493 0.76274 0.90174 0.0
H556 H 0.88449 0.63376 0.9548 0.0
H557 H 0.93321 0.59789 0.97353 0.0
C558 C 0.41954 0.76782 0.09945 0.0
C559 C 0.44158 0.72641 0.06924 0.0
C560 C 0.49693 0.79275 0.01812 0.0
C561 C 0.47756 0.83378 0.05058 0.0
N562 N 0.41119 0.86304 0.11169 0.0
N563 N 0.49064 0.69757 0.99333 0.0
C564 C 0.43546 0.82202 0.08771 0.0
C565 C 0.47673 0.73833 0.02614 0.0
N566 N 0.38542 0.7553 0.14064 0.0
N567 N 0.53621 0.80606 0.98125 0.0
H568 H 0.47685 0.65731 0.99884 0.0
H569 H 0.51269 0.70348 0.95901 0.0
H570 H 0.54951 0.84585 0.97318 0.0
H571 H 0.5566 0.77828 0.95965 0.0
H572 H 0.3727 0.78367 0.16751 0.0
H573 H 0.37165 0.71592 0.14963 0.0
H574 H 0.37729 0.8574 0.13631 0.0
H575 H 0.42242 0.90309 0.10328 0.0
C576 C 0.16796 0.27966 0.58061 0.0
C577 C 0.14399 0.31803 0.55647 0.0
C578 C 0.09763 0.24711 0.504 0.0
C579 C 0.11409 0.20934 0.53448 0.0
N580 N 0.17837 0.18538 0.5864 0.0
N581 N 0.10083 0.34125 0.48572 0.0
C582 C 0.15472 0.22445 0.56706 0.0
C583 C 0.11433 0.30258 0.51422 0.0
N584 N 0.19959 0.29585 0.61905 0.0
N585 N 0.06327 0.22966 0.46812 0.0
H586 H 0.11326 0.38196 0.49325 0.0
H587 H 0.08075 0.33331 0.45316 0.0
H588 H 0.05244 0.18883 0.45965 0.0
H589 H 0.04557 0.25484 0.44704 0.0
H590 H 0.21345 0.26963 0.64204 0.0
H591 H 0.21094 0.33617 0.62903 0.0
H592 H 0.21068 0.19299 0.60827 0.0
H593 H 0.16785 0.14477 0.57653 0.0
C594 C 0.60738 0.29276 0.43552 0.0
C595 C 0.57981 0.24189 0.44712 0.0
C596 C 0.51546 0.28574 0.50379 0.0
C597 C 0.53743 0.33586 0.48504 0.0
N598 N 0.60354 0.3882 0.43206 0.0
N599 N 0.509 0.18845 0.49331 0.0
C600 C 0.58393 0.33991 0.45149 0.0
C601 C 0.53463 0.23793 0.48225 0.0
N602 N 0.65567 0.29586 0.40868 0.0
N603 N 0.47633 0.28432 0.54218 0.0
H604 H 0.52341 0.15286 0.47968 0.0
H605 H 0.47252 0.18246 0.5141 0.0
H606 H 0.46236 0.31916 0.55854 0.0
H607 H 0.46105 0.24977 0.56063 0.0
H608 H 0.68035 0.33171 0.40352 0.0
H609 H 0.6733 0.26204 0.39517 0.0
H610 H 0.63285 0.39254 0.40245 0.0
H611 H 0.58853 0.42403 0.44362 0.0
loop_
_geom_bond_atom_site_label_1
_geom_bond_atom_site_label_2
_geom_bond_distance
_geom_bond_site_symmetry_2
_ccdc_geom_bond_type
H0 C5 0.930 . S
H1 C8 0.930 . S
H2 C10 0.930 . S
H3 C4 1.016 . S
C4 H3 1.016 . S
C4 N11 1.286 . S
C5 H0 0.930 . S
C5 C6 1.397 . S
C5 C7 1.361 . S
C6 C5 1.397 . S
C6 C10 1.390 . S
C7 C5 1.361 . S
C7 C8 1.393 . S
C7 N11 1.413 . S
C8 H1 0.930 . S
C8 C7 1.393 . S
C8 C9 1.399 . S
C9 C8 1.399 . S
C9 C10 1.381 . S
C10 H2 0.930 . S
C10 C6 1.390 . S
C10 C9 1.381 . S
N11 C4 1.286 . S
N11 C7 1.413 . S
H12 C17 0.930 . S
H13 C20 0.930 . S
H14 C22 0.930 . S
H15 C16 1.016 . S
C16 H15 1.016 . S
C16 N23 1.286 . S
C17 H12 0.930 . S
C17 C18 1.397 . S
C17 C19 1.361 . S
C18 C17 1.397 . S
C18 C22 1.390 . S
C19 C17 1.361 . S
C19 C20 1.393 . S
C19 N23 1.413 . S
C20 H13 0.930 . S
C20 C19 1.393 . S
C20 C21 1.399 . S
C21 C20 1.399 . S
C21 C22 1.381 . S
C22 H14 0.930 . S
C22 C18 1.390 . S
C22 C21 1.381 . S
N23 C16 1.286 . S
N23 C19 1.413 . S
H24 C29 0.930 . S
H25 C32 0.930 . S
H26 C34 0.930 . S
H27 C28 1.016 . S
C28 H27 1.016 . S
C28 N35 1.286 . S
C29 H24 0.930 . S
C29 C30 1.397 . S
C29 C31 1.361 . S
C30 C29 1.397 . S
C30 C34 1.390 . S
C31 C29 1.361 . S
C31 C32 1.393 . S
C31 N35 1.413 . S
C32 H25 0.930 . S
C32 C31 1.393 . S
C32 C33 1.399 . S
C33 C32 1.399 . S
C33 C34 1.381 . S
C34 H26 0.930 . S
C34 C30 1.390 . S
C34 C33 1.381 . S
N35 C28 1.286 . S
N35 C31 1.413 . S
H36 C41 0.930 . S
H37 C44 0.930 . S
H38 C46 0.930 . S
H39 C40 1.016 . S
C40 H39 1.016 . S
C40 N47 1.286 . S
C41 H36 0.930 . S
C41 C42 1.397 . S
C41 C43 1.361 . S
C42 C41 1.397 . S
C42 C46 1.390 . S
C43 C41 1.361 . S
C43 C44 1.393 . S
C43 N47 1.413 . S
C44 H37 0.930 . S
C44 C43 1.393 . S
C44 C45 1.399 . S
C45 C44 1.399 . S
C45 C46 1.381 . S
C46 H38 0.930 . S
C46 C42 1.390 . S
C46 C45 1.381 . S
N47 C40 1.286 . S
N47 C43 1.413 . S
H48 C53 0.930 1_554 S
H49 C56 0.930 1_455 S
H50 C58 0.930 . S
H51 C52 1.008 1_455 S
C52 H51 1.008 1_655 S
C52 N59 1.297 . S
C53 H48 0.930 1_556 S
C53 C54 1.397 . S
C53 C55 1.361 . S
C54 C53 1.397 . S
C54 C58 1.390 1_565 S
C55 C53 1.361 . S
C55 C56 1.393 . S
C55 N59 1.413 . S
C56 H49 0.930 1_655 S
C56 C55 1.393 . S
C56 C57 1.399 . S
C57 C56 1.399 . S
C57 C58 1.381 1_565 S
C58 H50 0.930 . S
C58 C54 1.390 1_545 S
C58 C57 1.381 1_545 S
N59 C52 1.297 . S
N59 C55 1.413 . S
H60 C65 0.930 . S
H61 C68 0.930 . S
H62 C70 0.930 . S
H63 C64 1.016 . S
C64 H63 1.016 . S
C64 N71 1.286 . S
C65 H60 0.930 . S
C65 C66 1.397 . S
C65 C67 1.361 . S
C66 C65 1.397 . S
C66 C70 1.390 . S
C67 C65 1.361 . S
C67 C68 1.393 . S
C67 N71 1.413 . S
C68 H61 0.930 . S
C68 C67 1.393 . S
C68 C69 1.399 . S
C69 C68 1.399 . S
C69 C70 1.381 . S
C70 H62 0.930 . S
C70 C66 1.390 . S
C70 C69 1.381 . S
N71 C64 1.286 . S
N71 C67 1.413 . S
H72 C77 0.930 . S
H73 C80 0.930 . S
H74 C82 0.930 . S
H75 C76 1.016 . S
C76 H75 1.016 . S
C76 N83 1.286 . S
C77 H72 0.930 . S
C77 C78 1.397 . S
C77 C79 1.361 . S
C78 C77 1.397 . S
C78 C82 1.390 . S
C79 C77 1.361 . S
C79 C80 1.393 . S
C79 N83 1.413 . S
C80 H73 0.930 . S
C80 C79 1.393 . S
C80 C81 1.399 . S
C81 C80 1.399 . S
C81 C82 1.381 . S
C82 H74 0.930 . S
C82 C78 1.390 . S
C82 C81 1.381 . S
N83 C76 1.286 . S
N83 C79 1.413 . S
H84 C89 0.930 . S
H85 C92 0.930 . S
H86 C94 0.930 . S
H87 C88 1.016 . S
C88 H87 1.016 . S
C88 N95 1.286 . S
C89 H84 0.930 . S
C89 C90 1.397 . S
C89 C91 1.361 . S
C90 C89 1.397 . S
C90 C94 1.390 . S
C91 C89 1.361 . S
C91 C92 1.393 . S
C91 N95 1.413 . S
C92 H85 0.930 . S
C92 C91 1.393 . S
C92 C93 1.399 . S
C93 C92 1.399 . S
C93 C94 1.381 . S
C94 H86 0.930 . S
C94 C90 1.390 . S
C94 C93 1.381 . S
N95 C88 1.286 . S
N95 C91 1.413 . S
Zn96 O102 1.920 . S
Zn96 O108 1.898 . S
Zn96 O111 1.905 . S
Zn97 O105 1.905 1_565 S
Zn97 O106 1.898 . S
Zn97 O114 1.920 . S
Zn98 O101 2.077 1_445 S
Zn98 O104 2.114 . S
Zn98 O107 2.120 1_445 S
Zn98 O109 2.120 . S
Zn98 O110 2.114 1_455 S
Zn98 O113 2.080 . S
C99 O104 1.166 . S
C99 O105 1.182 . S
C100 O106 1.167 1_655 S
C100 O107 1.299 . S
O101 Zn98 2.077 1_665 S
O101 C115 1.301 1_565 S
O102 Zn96 1.920 . S
O102 C115 1.234 . S
C103 O108 1.167 1_455 S
C103 O109 1.299 . S
O104 Zn98 2.114 . S
O104 C99 1.166 . S
O105 Zn97 1.905 1_545 S
O105 C99 1.182 . S
O106 Zn97 1.898 . S
O106 C100 1.167 1_455 S
O107 Zn98 2.120 1_665 S
O107 C100 1.299 . S
O108 Zn96 1.898 . S
O108 C103 1.167 1_655 S
O109 Zn98 2.120 . S
O109 C103 1.299 . S
O110 Zn98 2.114 1_655 S
O110 C112 1.166 . S
O111 Zn96 1.905 . S
O111 C112 1.182 . S
C112 O110 1.166 . S
C112 O111 1.182 . S
O113 Zn98 2.080 . S
O113 C116 1.305 1_545 S
O114 Zn97 1.920 . S
O114 C116 1.234 . S
C115 O101 1.301 1_545 S
C115 O102 1.234 . S
C116 O113 1.305 1_565 S
C116 O114 1.234 . S
Zn117 O123 1.920 1_556 S
Zn117 O129 1.898 . S
Zn117 O132 1.905 . S
Zn118 O126 1.905 . S
Zn118 O127 1.898 . S
Zn118 O135 1.920 . S
Zn119 O122 2.080 . S
Zn119 O125 2.114 1_545 S
Zn119 O128 2.120 1_545 S
Zn119 O130 2.120 . S
Zn119 O131 2.114 1_544 S
Zn119 O134 2.080 . S
C120 O125 1.166 . S
C120 O126 1.182 . S
C121 O127 1.167 . S
C121 O128 1.299 . S
O122 Zn119 2.080 . S
O122 C136 1.305 . S
O123 Zn117 1.920 1_554 S
O123 C136 1.234 . S
C124 O129 1.167 . S
C124 O130 1.299 1_556 S
O125 Zn119 2.114 1_565 S
O125 C120 1.166 . S
O126 Zn118 1.905 . S
O126 C120 1.182 . S
O127 Zn118 1.898 . S
O127 C121 1.167 . S
O128 Zn119 2.120 1_565 S
O128 C121 1.299 . S
O129 Zn117 1.898 . S
O129 C124 1.167 . S
O130 Zn119 2.120 . S
O130 C124 1.299 1_554 S
O131 Zn119 2.114 1_566 S
O131 C133 1.166 . S
O132 Zn117 1.905 . S
O132 C133 1.182 1_545 S
C133 O131 1.166 . S
C133 O132 1.182 1_565 S
O134 Zn119 2.080 . S
O134 C137 1.305 . S
O135 Zn118 1.920 . S
O135 C137 1.234 1_565 S
C136 O122 1.305 . S
C136 O123 1.234 . S
C137 O134 1.305 . S
C137 O135 1.234 1_545 S
Zn138 O144 1.920 . S
Zn138 O150 1.898 . S
Zn138 O153 1.905 . S
Zn139 O147 1.905 . S
Zn139 O148 1.898 . S
Zn139 O156 1.920 . S
Zn140 O143 2.080 . S
Zn140 O146 2.114 . S
Zn140 O149 2.120 . S
Zn140 O151 2.120 . S
Zn140 O152 2.114 . S
Zn140 O155 2.080 . S
C141 O146 1.166 . S
C141 O147 1.182 . S
C142 O148 1.167 . S
C142 O149 1.299 . S
O143 Zn140 2.080 . S
O143 C157 1.305 . S
O144 Zn138 1.920 . S
O144 C157 1.234 . S
C145 O150 1.167 . S
C145 O151 1.299 . S
O146 Zn140 2.114 . S
O146 C141 1.166 . S
O147 Zn139 1.905 . S
O147 C141 1.182 . S
O148 Zn139 1.898 . S
O148 C142 1.167 . S
O149 Zn140 2.120 . S
O149 C142 1.299 . S
O150 Zn138 1.898 . S
O150 C145 1.167 . S
O151 Zn140 2.120 . S
O151 C145 1.299 . S
O152 Zn140 2.114 . S
O152 C154 1.166 . S
O153 Zn138 1.905 . S
O153 C154 1.182 . S
C154 O152 1.166 . S
C154 O153 1.182 . S
O155 Zn140 2.080 . S
O155 C158 1.305 . S
O156 Zn139 1.920 . S
O156 C158 1.234 . S
C157 O143 1.305 . S
C157 O144 1.234 . S
C158 O155 1.305 . S
C158 O156 1.234 . S
Zn159 O165 1.920 . S
Zn159 O171 1.898 . S
Zn159 O174 1.905 . S
Zn160 O168 1.905 1_655 S
Zn160 O169 1.898 . S
Zn160 O177 1.920 . S
Zn161 O164 2.080 1_554 S
Zn161 O167 2.114 . S
Zn161 O170 2.120 1_454 S
Zn161 O172 2.120 . S
Zn161 O173 2.114 1_554 S
Zn161 O176 2.080 . S
C162 O167 1.166 . S
C162 O168 1.182 . S
C163 O169 1.167 1_556 S
C163 O170 1.299 . S
O164 Zn161 2.080 1_556 S
O164 C178 1.305 . S
O165 Zn159 1.920 . S
O165 C178 1.234 . S
C166 O171 1.167 1_554 S
C166 O172 1.299 . S
O167 Zn161 2.114 . S
O167 C162 1.166 . S
O168 Zn160 1.905 1_455 S
O168 C162 1.182 . S
O169 Zn160 1.898 . S
O169 C163 1.167 1_554 S
O170 Zn161 2.120 1_656 S
O170 C163 1.299 . S
O171 Zn159 1.898 . S
O171 C166 1.167 1_556 S
O172 Zn161 2.120 . S
O172 C166 1.299 . S
O173 Zn161 2.114 1_556 S
O173 C175 1.166 . S
O174 Zn159 1.905 . S
O174 C175 1.182 . S
C175 O173 1.166 . S
C175 O174 1.182 . S
O176 Zn161 2.080 . S
O176 C179 1.305 1_455 S
O177 Zn160 1.920 . S
O177 C179 1.234 . S
C178 O164 1.305 . S
C178 O165 1.234 . S
C179 O176 1.305 1_655 S
C179 O177 1.234 . S
C180 C181 1.363 . S
C180 C186 1.379 . S
C180 N188 1.356 . S
C181 C180 1.363 . S
C181 C187 1.363 . S
C182 C183 1.363 . S
C182 C187 1.379 . S
C182 N189 1.356 . S
C183 C182 1.363 . S
C183 C186 1.363 . S
N184 C186 1.356 . S
N184 H196 0.984 . S
N184 H197 0.985 . S
N185 C187 1.356 . S
N185 H190 0.984 . S
N185 H191 0.985 . S
C186 C180 1.379 . S
C186 C183 1.363 . S
C186 N184 1.356 . S
C187 C181 1.363 . S
C187 C182 1.379 . S
C187 N185 1.356 . S
N188 C180 1.356 . S
N188 H194 0.984 . S
N188 H195 0.984 . S
N189 C182 1.356 . S
N189 H192 0.984 . S
N189 H193 0.985 . S
H190 N185 0.984 . S
H191 N185 0.985 . S
H192 N189 0.984 . S
H193 N189 0.985 . S
H194 N188 0.984 . S
H195 N188 0.984 . S
H196 N184 0.984 . S
H197 N184 0.985 . S
C198 C199 1.363 . S
C198 C204 1.379 . S
C198 N206 1.356 . S
C199 C198 1.363 . S
C199 C205 1.363 . S
C200 C201 1.363 . S
C200 C205 1.379 . S
C200 N207 1.356 . S
C201 C200 1.363 . S
C201 C204 1.363 . S
N202 C204 1.356 . S
N202 H214 0.984 . S
N202 H215 0.985 . S
N203 C205 1.356 . S
N203 H208 0.984 . S
N203 H209 0.985 . S
C204 C198 1.379 . S
C204 C201 1.363 . S
C204 N202 1.356 . S
C205 C199 1.363 . S
C205 C200 1.379 . S
C205 N203 1.356 . S
N206 C198 1.356 . S
N206 H212 0.984 . S
N206 H213 0.984 . S
N207 C200 1.356 . S
N207 H210 0.984 . S
N207 H211 0.985 . S
H208 N203 0.984 . S
H209 N203 0.985 . S
H210 N207 0.984 . S
H211 N207 0.985 . S
H212 N206 0.984 . S
H213 N206 0.984 . S
H214 N202 0.984 . S
H215 N202 0.985 . S
C216 C217 1.363 . S
C216 C222 1.379 . S
C216 N224 1.356 . S
C217 C216 1.363 . S
C217 C223 1.363 . S
C218 C219 1.363 . S
C218 C223 1.379 . S
C218 N225 1.356 . S
C219 C218 1.363 . S
C219 C222 1.363 . S
N220 C222 1.356 . S
N220 H232 0.984 . S
N220 H233 0.985 . S
N221 C223 1.356 . S
N221 H226 0.984 . S
N221 H227 0.985 . S
C222 C216 1.379 . S
C222 C219 1.363 . S
C222 N220 1.356 . S
C223 C217 1.363 . S
C223 C218 1.379 . S
C223 N221 1.356 . S
N224 C216 1.356 . S
N224 H230 0.984 . S
N224 H231 0.984 . S
N225 C218 1.356 . S
N225 H228 0.984 . S
N225 H229 0.985 . S
H226 N221 0.984 . S
H227 N221 0.985 . S
H228 N225 0.984 . S
H229 N225 0.985 . S
H230 N224 0.984 . S
H231 N224 0.984 . S
H232 N220 0.984 . S
H233 N220 0.985 . S
C234 C235 1.363 . S
C234 C240 1.379 . S
C234 N242 1.356 . S
C235 C234 1.363 . S
C235 C241 1.363 . S
C236 C237 1.363 . S
C236 C241 1.379 . S
C236 N243 1.356 1_655 S
C237 C236 1.363 . S
C237 C240 1.363 . S
N238 C240 1.356 . S
N238 H250 0.984 . S
N238 H251 0.985 . S
N239 C241 1.356 . S
N239 H244 0.984 . S
N239 H245 0.985 . S
C240 C234 1.379 . S
C240 C237 1.363 . S
C240 N238 1.356 . S
C241 C235 1.363 . S
C241 C236 1.379 . S
C241 N239 1.356 . S
N242 C234 1.356 . S
N242 H248 0.984 . S
N242 H249 0.984 . S
N243 C236 1.356 1_455 S
N243 H246 0.984 . S
N243 H247 0.985 . S
H244 N239 0.984 . S
H245 N239 0.985 . S
H246 N243 0.984 . S
H247 N243 0.985 . S
H248 N242 0.984 . S
H249 N242 0.984 . S
H250 N238 0.984 . S
H251 N238 0.985 . S
C252 C253 1.363 . S
C252 C258 1.379 . S
C252 N260 1.356 . S
C253 C252 1.363 . S
C253 C259 1.363 . S
C254 C255 1.363 . S
C254 C259 1.379 . S
C254 N261 1.356 . S
C255 C254 1.363 . S
C255 C258 1.363 . S
N256 C258 1.356 . S
N256 H268 0.984 . S
N256 H269 0.985 . S
N257 C259 1.356 . S
N257 H262 0.984 . S
N257 H263 0.985 . S
C258 C252 1.379 . S
C258 C255 1.363 . S
C258 N256 1.356 . S
C259 C253 1.363 . S
C259 C254 1.379 . S
C259 N257 1.356 . S
N260 C252 1.356 . S
N260 H266 0.984 . S
N260 H267 0.984 . S
N261 C254 1.356 . S
N261 H264 0.984 . S
N261 H265 0.985 . S
H262 N257 0.984 . S
H263 N257 0.985 . S
H264 N261 0.984 . S
H265 N261 0.985 . S
H266 N260 0.984 . S
H267 N260 0.984 . S
H268 N256 0.984 . S
H269 N256 0.985 . S
C270 C271 1.363 . S
C270 C276 1.379 . S
C270 N278 1.356 . S
C271 C270 1.363 . S
C271 C277 1.363 . S
C272 C273 1.363 . S
C272 C277 1.379 . S
C272 N279 1.356 . S
C273 C272 1.363 . S
C273 C276 1.363 . S
N274 C276 1.356 . S
N274 H286 0.984 . S
N274 H287 0.985 . S
N275 C277 1.356 . S
N275 H280 0.984 . S
N275 H281 0.985 . S
C276 C270 1.379 . S
C276 C273 1.363 . S
C276 N274 1.356 . S
C277 C271 1.363 . S
C277 C272 1.379 . S
C277 N275 1.356 . S
N278 C270 1.356 . S
N278 H284 0.984 . S
N278 H285 0.984 . S
N279 C272 1.356 . S
N279 H282 0.984 . S
N279 H283 0.985 . S
H280 N275 0.984 . S
H281 N275 0.985 . S
H282 N279 0.984 . S
H283 N279 0.985 . S
H284 N278 0.984 . S
H285 N278 0.984 . S
H286 N274 0.984 . S
H287 N274 0.985 . S
C288 C289 1.363 . S
C288 C294 1.379 . S
C288 N296 1.356 . S
C289 C288 1.363 . S
C289 C295 1.363 . S
C290 C291 1.363 . S
C290 C295 1.379 . S
C290 N297 1.356 . S
C291 C290 1.363 . S
C291 C294 1.363 . S
N292 C294 1.356 1_554 S
N292 H304 0.984 . S
N292 H305 0.985 . S
N293 C295 1.356 . S
N293 H298 0.984 . S
N293 H299 0.985 . S
C294 C288 1.379 . S
C294 C291 1.363 . S
C294 N292 1.356 1_556 S
C295 C289 1.363 . S
C295 C290 1.379 . S
C295 N293 1.356 . S
N296 C288 1.356 . S
N296 H302 0.984 1_556 S
N296 H303 0.984 . S
N297 C290 1.356 . S
N297 H300 0.984 . S
N297 H301 0.985 . S
H298 N293 0.984 . S
H299 N293 0.985 . S
H300 N297 0.984 . S
H301 N297 0.985 . S
H302 N296 0.984 1_554 S
H303 N296 0.984 . S
H304 N292 0.984 . S
H305 N292 0.985 . S
C306 C307 1.363 . S
C306 C312 1.379 . S
C306 N314 1.356 . S
C307 C306 1.363 . S
C307 C313 1.363 . S
C308 C309 1.363 . S
C308 C313 1.379 . S
C308 N315 1.356 . S
C309 C308 1.363 . S
C309 C312 1.363 . S
N310 C312 1.356 . S
N310 H322 0.984 . S
N310 H323 0.985 . S
N311 C313 1.356 . S
N311 H316 0.984 . S
N311 H317 0.985 . S
C312 C306 1.379 . S
C312 C309 1.363 . S
C312 N310 1.356 . S
C313 C307 1.363 . S
C313 C308 1.379 . S
C313 N311 1.356 . S
N314 C306 1.356 . S
N314 H320 0.984 . S
N314 H321 0.984 . S
N315 C308 1.356 . S
N315 H318 0.984 . S
N315 H319 0.985 . S
H316 N311 0.984 . S
H317 N311 0.985 . S
H318 N315 0.984 . S
H319 N315 0.985 . S
H320 N314 0.984 . S
H321 N314 0.984 . S
H322 N310 0.984 . S
H323 N310 0.985 . S
C324 C325 1.363 . S
C324 C330 1.379 . S
C324 N332 1.356 . S
C325 C324 1.363 . S
C325 C331 1.363 . S
C326 C327 1.363 . S
C326 C331 1.379 . S
C326 N333 1.356 . S
C327 C326 1.363 . S
C327 C330 1.363 . S
N328 C330 1.356 . S
N328 H340 0.984 1_554 S
N328 H341 0.985 . S
N329 C331 1.356 . S
N329 H334 0.984 . S
N329 H335 0.985 . S
C330 C324 1.379 . S
C330 C327 1.363 . S
C330 N328 1.356 . S
C331 C325 1.363 . S
C331 C326 1.379 . S
C331 N329 1.356 . S
N332 C324 1.356 . S
N332 H338 0.984 . S
N332 H339 0.984 . S
N333 C326 1.356 . S
N333 H336 0.984 . S
N333 H337 0.985 . S
H334 N329 0.984 . S
H335 N329 0.985 . S
H336 N333 0.984 . S
H337 N333 0.985 . S
H338 N332 0.984 . S
H339 N332 0.984 . S
H340 N328 0.984 1_556 S
H341 N328 0.985 . S
C342 C343 1.363 . S
C342 C348 1.379 . S
C342 N350 1.356 . S
C343 C342 1.363 . S
C343 C349 1.363 . S
C344 C345 1.363 . S
C344 C349 1.379 . S
C344 N351 1.356 . S
C345 C344 1.363 . S
C345 C348 1.363 . S
N346 C348 1.356 . S
N346 H358 0.984 . S
N346 H359 0.985 . S
N347 C349 1.356 . S
N347 H352 0.984 . S
N347 H353 0.985 . S
C348 C342 1.379 . S
C348 C345 1.363 . S
C348 N346 1.356 . S
C349 C343 1.363 . S
C349 C344 1.379 . S
C349 N347 1.356 . S
N350 C342 1.356 . S
N350 H356 0.984 . S
N350 H357 0.984 . S
N351 C344 1.356 . S
N351 H354 0.984 . S
N351 H355 0.985 . S
H352 N347 0.984 . S
H353 N347 0.985 . S
H354 N351 0.984 . S
H355 N351 0.985 . S
H356 N350 0.984 . S
H357 N350 0.984 . S
H358 N346 0.984 . S
H359 N346 0.985 . S
C360 C361 1.363 . S
C360 C366 1.379 . S
C360 N368 1.356 . S
C361 C360 1.363 . S
C361 C367 1.363 . S
C362 C363 1.363 . S
C362 C367 1.379 . S
C362 N369 1.356 . S
C363 C362 1.363 . S
C363 C366 1.363 . S
N364 C366 1.356 . S
N364 H376 0.984 1_655 S
N364 H377 0.985 1_655 S
N365 C367 1.356 . S
N365 H370 0.984 . S
N365 H371 0.985 . S
C366 C360 1.379 . S
C366 C363 1.363 . S
C366 N364 1.356 . S
C367 C361 1.363 . S
C367 C362 1.379 . S
C367 N365 1.356 . S
N368 C360 1.356 . S
N368 H374 0.984 . S
N368 H375 0.984 . S
N369 C362 1.356 . S
N369 H372 0.984 . S
N369 H373 0.985 . S
H370 N365 0.984 . S
H371 N365 0.985 . S
H372 N369 0.984 . S
H373 N369 0.985 . S
H374 N368 0.984 . S
H375 N368 0.984 . S
H376 N364 0.984 1_455 S
H377 N364 0.985 1_455 S
C378 C379 1.363 . S
C378 C384 1.379 . S
C378 N386 1.356 . S
C379 C378 1.363 . S
C379 C385 1.363 . S
C380 C381 1.363 . S
C380 C385 1.379 . S
C380 N387 1.356 . S
C381 C380 1.363 . S
C381 C384 1.363 . S
N382 C384 1.356 . S
N382 H394 0.984 . S
N382 H395 0.985 . S
N383 C385 1.356 . S
N383 H388 0.984 . S
N383 H389 0.985 . S
C384 C378 1.379 . S
C384 C381 1.363 . S
C384 N382 1.356 . S
C385 C379 1.363 . S
C385 C380 1.379 . S
C385 N383 1.356 . S
N386 C378 1.356 . S
N386 H392 0.984 . S
N386 H393 0.984 . S
N387 C380 1.356 . S
N387 H390 0.984 . S
N387 H391 0.985 . S
H388 N383 0.984 . S
H389 N383 0.985 . S
H390 N387 0.984 . S
H391 N387 0.985 . S
H392 N386 0.984 . S
H393 N386 0.984 . S
H394 N382 0.984 . S
H395 N382 0.985 . S
C396 C397 1.363 1_545 S
C396 C402 1.379 . S
C396 N404 1.356 . S
C397 C396 1.363 1_565 S
C397 C403 1.363 . S
C398 C399 1.366 . S
C398 C403 1.379 . S
C398 N405 1.354 1_655 S
C399 C398 1.366 . S
C399 C402 1.363 1_565 S
N400 C402 1.356 . S
N400 H412 0.984 . S
N400 H413 0.985 . S
N401 C403 1.356 1_455 S
N401 H406 0.984 . S
N401 H407 0.985 . S
C402 C396 1.379 . S
C402 C399 1.363 1_545 S
C402 N400 1.356 . S
C403 C397 1.363 . S
C403 C398 1.379 . S
C403 N401 1.356 1_655 S
N404 C396 1.356 . S
N404 H410 0.984 . S
N404 H411 0.984 . S
N405 C398 1.354 1_455 S
N405 H408 0.984 . S
N405 H409 0.985 . S
H406 N401 0.984 . S
H407 N401 0.985 . S
H408 N405 0.984 . S
H409 N405 0.985 . S
H410 N404 0.984 . S
H411 N404 0.984 . S
H412 N400 0.984 . S
H413 N400 0.985 . S
C414 C415 1.363 . S
C414 C420 1.379 . S
C414 N422 1.356 . S
C415 C414 1.363 . S
C415 C421 1.363 . S
C416 C417 1.363 . S
C416 C421 1.379 . S
C416 N423 1.356 . S
C417 C416 1.363 . S
C417 C420 1.363 . S
N418 C420 1.356 1_565 S
N418 H430 0.984 . S
N418 H431 0.985 . S
N419 C421 1.356 . S
N419 H424 0.984 . S
N419 H425 0.985 . S
C420 C414 1.379 . S
C420 C417 1.363 . S
C420 N418 1.356 1_545 S
C421 C415 1.363 . S
C421 C416 1.379 . S
C421 N419 1.356 . S
N422 C414 1.356 . S
N422 H428 0.984 1_545 S
N422 H429 0.984 . S
N423 C416 1.356 . S
N423 H426 0.984 . S
N423 H427 0.985 . S
H424 N419 0.984 . S
H425 N419 0.985 . S
H426 N423 0.984 . S
H427 N423 0.985 . S
H428 N422 0.984 1_565 S
H429 N422 0.984 . S
H430 N418 0.984 . S
H431 N418 0.985 . S
C432 C433 1.363 . S
C432 C438 1.379 . S
C432 N440 1.356 . S
C433 C432 1.363 . S
C433 C439 1.363 . S
C434 C435 1.363 . S
C434 C439 1.379 . S
C434 N441 1.356 . S
C435 C434 1.363 . S
C435 C438 1.363 . S
N436 C438 1.356 . S
N436 H448 0.984 . S
N436 H449 0.985 . S
N437 C439 1.356 . S
N437 H442 0.984 . S
N437 H443 0.985 . S
C438 C432 1.379 . S
C438 C435 1.363 . S
C438 N436 1.356 . S
C439 C433 1.363 . S
C439 C434 1.379 . S
C439 N437 1.356 . S
N440 C432 1.356 . S
N440 H446 0.984 . S
N440 H447 0.984 . S
N441 C434 1.356 . S
N441 H444 0.984 . S
N441 H445 0.985 . S
H442 N437 0.984 . S
H443 N437 0.985 . S
H444 N441 0.984 . S
H445 N441 0.985 . S
H446 N440 0.984 . S
H447 N440 0.984 . S
H448 N436 0.984 . S
H449 N436 0.985 . S
C450 C451 1.363 . S
C450 C456 1.379 . S
C450 N458 1.356 . S
C451 C450 1.363 . S
C451 C457 1.363 . S
C452 C453 1.363 . S
C452 C457 1.379 . S
C452 N459 1.356 . S
C453 C452 1.363 . S
C453 C456 1.363 . S
N454 C456 1.356 . S
N454 H466 0.984 . S
N454 H467 0.985 . S
N455 C457 1.356 . S
N455 H460 0.984 . S
N455 H461 0.985 . S
C456 C450 1.379 . S
C456 C453 1.363 . S
C456 N454 1.356 . S
C457 C451 1.363 . S
C457 C452 1.379 . S
C457 N455 1.356 . S
N458 C450 1.356 . S
N458 H464 0.984 . S
N458 H465 0.984 . S
N459 C452 1.356 . S
N459 H462 0.984 . S
N459 H463 0.985 . S
H460 N455 0.984 . S
H461 N455 0.985 . S
H462 N459 0.984 . S
H463 N459 0.985 . S
H464 N458 0.984 . S
H465 N458 0.984 . S
H466 N454 0.984 . S
H467 N454 0.985 . S
C468 C469 1.363 1_565 S
C468 C474 1.379 . S
C468 N476 1.356 . S
C469 C468 1.363 1_545 S
C469 C475 1.363 . S
C470 C471 1.363 1_544 S
C470 C475 1.379 1_554 S
C470 N477 1.356 . S
C471 C470 1.363 1_566 S
C471 C474 1.363 . S
N472 C474 1.356 . S
N472 H484 0.984 . S
N472 H485 0.985 . S
N473 C475 1.355 1_554 S
N473 H478 0.983 1_554 S
N473 H479 0.988 . S
C474 C468 1.379 . S
C474 C471 1.363 . S
C474 N472 1.356 . S
C475 C469 1.363 . S
C475 C470 1.379 1_556 S
C475 N473 1.355 1_556 S
N476 C468 1.356 . S
N476 H482 0.984 . S
N476 H483 0.984 . S
N477 C470 1.356 . S
N477 H480 0.984 . S
N477 H481 0.985 . S
H478 N473 0.983 1_556 S
H479 N473 0.988 . S
H480 N477 0.984 . S
H481 N477 0.985 . S
H482 N476 0.984 . S
H483 N476 0.984 . S
H484 N472 0.984 . S
H485 N472 0.985 . S
C486 C487 1.363 . S
C486 C492 1.379 . S
C486 N494 1.356 . S
C487 C486 1.363 . S
C487 C493 1.363 . S
C488 C489 1.363 . S
C488 C493 1.379 . S
C488 N495 1.356 1_545 S
C489 C488 1.363 . S
C489 C492 1.363 . S
N490 C492 1.356 . S
N490 H502 0.984 . S
N490 H503 0.985 . S
N491 C493 1.356 1_565 S
N491 H496 0.984 . S
N491 H497 0.985 . S
C492 C486 1.379 . S
C492 C489 1.363 . S
C492 N490 1.356 . S
C493 C487 1.363 . S
C493 C488 1.379 . S
C493 N491 1.356 1_545 S
N494 C486 1.356 . S
N494 H500 0.984 . S
N494 H501 0.984 . S
N495 C488 1.356 1_565 S
N495 H498 0.984 . S
N495 H499 0.985 . S
H496 N491 0.984 . S
H497 N491 0.985 . S
H498 N495 0.984 . S
H499 N495 0.985 . S
H500 N494 0.984 . S
H501 N494 0.984 . S
H502 N490 0.984 . S
H503 N490 0.985 . S
C504 C505 1.363 . S
C504 C510 1.379 . S
C504 N512 1.356 . S
C505 C504 1.363 . S
C505 C511 1.363 . S
C506 C507 1.363 . S
C506 C511 1.379 . S
C506 N513 1.356 . S
C507 C506 1.363 . S
C507 C510 1.363 . S
N508 C510 1.356 1_556 S
N508 H520 0.984 . S
N508 H521 0.985 . S
N509 C511 1.356 . S
N509 H514 0.984 . S
N509 H515 0.985 . S
C510 C504 1.379 . S
C510 C507 1.363 . S
C510 N508 1.356 1_554 S
C511 C505 1.363 . S
C511 C506 1.379 . S
C511 N509 1.356 . S
N512 C504 1.356 . S
N512 H518 0.984 1_554 S
N512 H519 0.984 . S
N513 C506 1.356 . S
N513 H516 0.984 . S
N513 H517 0.985 . S
H514 N509 0.984 . S
H515 N509 0.985 . S
H516 N513 0.984 . S
H517 N513 0.985 . S
H518 N512 0.984 1_556 S
H519 N512 0.984 . S
H520 N508 0.984 . S
H521 N508 0.985 . S
C522 C523 1.363 . S
C522 C528 1.379 . S
C522 N530 1.356 . S
C523 C522 1.363 . S
C523 C529 1.363 . S
C524 C525 1.363 . S
C524 C529 1.379 . S
C524 N531 1.356 . S
C525 C524 1.363 . S
C525 C528 1.363 . S
N526 C528 1.356 . S
N526 H538 0.984 . S
N526 H539 0.985 . S
N527 C529 1.356 . S
N527 H532 0.984 . S
N527 H533 0.985 . S
C528 C522 1.379 . S
C528 C525 1.363 . S
C528 N526 1.356 . S
C529 C523 1.363 . S
C529 C524 1.379 . S
C529 N527 1.356 . S
N530 C522 1.356 . S
N530 H536 0.984 . S
N530 H537 0.984 . S
N531 C524 1.356 . S
N531 H534 0.984 . S
N531 H535 0.985 . S
H532 N527 0.984 . S
H533 N527 0.985 . S
H534 N531 0.984 . S
H535 N531 0.985 . S
H536 N530 0.984 . S
H537 N530 0.984 . S
H538 N526 0.984 . S
H539 N526 0.985 . S
C540 C541 1.363 1_655 S
C540 C546 1.379 1_655 S
C540 N548 1.356 . S
C541 C540 1.363 1_455 S
C541 C547 1.363 1_556 S
C542 C543 1.363 1_554 S
C542 C547 1.379 . S
C542 N549 1.356 . S
C543 C542 1.363 1_556 S
C543 C546 1.363 . S
N544 C546 1.356 1_655 S
N544 H556 0.984 . S
N544 H557 0.985 1_655 S
N545 C547 1.356 . S
N545 H550 0.984 . S
N545 H551 0.985 . S
C546 C540 1.379 1_455 S
C546 C543 1.363 . S
C546 N544 1.356 1_455 S
C547 C541 1.363 1_554 S
C547 C542 1.379 . S
C547 N545 1.356 . S
N548 C540 1.356 . S
N548 H554 0.984 . S
N548 H555 0.984 . S
N549 C542 1.356 . S
N549 H552 0.984 . S
N549 H553 0.985 . S
H550 N545 0.984 . S
H551 N545 0.985 . S
H552 N549 0.984 . S
H553 N549 0.985 . S
H554 N548 0.984 . S
H555 N548 0.984 . S
H556 N544 0.984 . S
H557 N544 0.985 1_455 S
C558 C559 1.363 . S
C558 C564 1.379 . S
C558 N566 1.356 . S
C559 C558 1.363 . S
C559 C565 1.363 . S
C560 C561 1.363 . S
C560 C565 1.379 . S
C560 N567 1.356 . S
C561 C560 1.363 . S
C561 C564 1.363 . S
N562 C564 1.356 . S
N562 H574 0.984 . S
N562 H575 0.985 . S
N563 C565 1.356 . S
N563 H568 0.984 . S
N563 H569 0.985 . S
C564 C558 1.379 . S
C564 C561 1.363 . S
C564 N562 1.356 . S
C565 C559 1.363 . S
C565 C560 1.379 . S
C565 N563 1.356 . S
N566 C558 1.356 . S
N566 H572 0.984 . S
N566 H573 0.984 . S
N567 C560 1.356 . S
N567 H570 0.984 . S
N567 H571 0.986 . S
H568 N563 0.984 . S
H569 N563 0.985 . S
H570 N567 0.984 . S
H571 N567 0.986 . S
H572 N566 0.984 . S
H573 N566 0.984 . S
H574 N562 0.984 . S
H575 N562 0.985 . S
C576 C577 1.363 . S
C576 C582 1.379 . S
C576 N584 1.356 . S
C577 C576 1.363 . S
C577 C583 1.363 . S
C578 C579 1.363 . S
C578 C583 1.379 . S
C578 N585 1.356 . S
C579 C578 1.363 . S
C579 C582 1.363 . S
N580 C582 1.356 . S
N580 H592 0.984 . S
N580 H593 0.985 . S
N581 C583 1.356 . S
N581 H586 0.984 . S
N581 H587 0.985 . S
C582 C576 1.379 . S
C582 C579 1.363 . S
C582 N580 1.356 . S
C583 C577 1.363 . S
C583 C578 1.379 . S
C583 N581 1.356 . S
N584 C576 1.356 . S
N584 H590 0.984 . S
N584 H591 0.984 . S
N585 C578 1.356 . S
N585 H588 0.984 . S
N585 H589 0.985 1_455 S
H586 N581 0.984 . S
H587 N581 0.985 . S
H588 N585 0.984 . S
H589 N585 0.985 1_655 S
H590 N584 0.984 . S
H591 N584 0.984 . S
H592 N580 0.984 . S
H593 N580 0.985 . S
C594 C595 1.363 . S
C594 C600 1.379 . S
C594 N602 1.356 . S
C595 C594 1.363 . S
C595 C601 1.363 . S
C596 C597 1.363 . S
C596 C601 1.379 . S
C596 N603 1.356 . S
C597 C596 1.363 . S
C597 C600 1.363 . S
N598 C600 1.356 . S
N598 H610 0.984 . S
N598 H611 0.985 . S
N599 C601 1.356 . S
N599 H604 0.984 . S
N599 H605 0.985 . S
C600 C594 1.379 . S
C600 C597 1.363 . S
C600 N598 1.356 . S
C601 C595 1.363 . S
C601 C596 1.379 . S
C601 N599 1.356 . S
N602 C594 1.356 . S
N602 H608 0.984 . S
N602 H609 0.984 . S
N603 C596 1.356 . S
N603 H606 0.984 . S
N603 H607 0.985 . S
H604 N599 0.984 . S
H605 N599 0.985 . S
H606 N603 0.984 . S
H607 N603 0.985 . S
H608 N602 0.984 . S
H609 N602 0.984 . S
H610 N598 0.984 . S
H611 N598 0.985 . S
C181 C6 1.693 . S
C183 C99 1.561 . S
C199 C18 1.746 . S
C201 C133 1.647 . S
C219 C145 1.411 . S
C217 C28 1.502 . S
C235 C40 1.156 . S
C237 C179 1.085 . S
C255 C136 1.625 . S
C253 C9 1.742 . S
C273 C116 1.416 . S
C271 C16 1.504 . S
C291 C163 1.435 . S
C289 C30 1.546 . S
C309 C154 1.217 . S
C307 C42 1.318 . S
C325 C4 1.530 . S
C327 C162 1.453 . S
C345 C124 1.444 . S
C343 C33 1.556 . S
C361 C45 1.358 . S
C363 C100 1.269 . S
C379 C21 1.721 . S
C381 C157 1.616 . S
C399 C115 1.643 1_565 S
C397 C57 1.772 . S
C415 C66 1.805 . S
C417 C137 1.704 . S
C433 C76 1.642 . S
C435 C142 1.565 . S
C451 C88 1.228 . S
C453 C175 1.207 . S
C469 C54 1.789 1_545 S
C471 C120 1.706 1_556 S
C489 C112 1.514 . S
C487 C64 1.597 . S
C507 C166 1.450 . S
C505 C78 1.496 . S
C525 C158 1.326 . S
C523 C93 1.416 . S
C541 C52 1.489 1_455 S
C543 C178 1.448 . S
C561 C121 1.514 . S
C559 C81 1.616 . S
C579 C103 1.410 . S
C577 C90 1.467 . S
C595 C69 1.772 . S
C597 C141 1.670 . S
