# Generated by pormake.
# Topology pyr, (3,6)-cn, num edge types: 1
# Building blocks:
#     Node 0, Type 0, BuildingBlock: ESEHIV_clean_linker_0, # of connection points: 3
#     Node 1, Type 0, BuildingBlock: ESEHIV_clean_linker_0, # of connection points: 3
#     Node 2, Type 0, BuildingBlock: ESEHIV_clean_linker_0, # of connection points: 3
#     Node 3, Type 0, BuildingBlock: ESEHIV_clean_linker_0, # of connection points: 3
#     Node 4, Type 0, BuildingBlock: ESEHIV_clean_linker_0, # of connection points: 3
#     Node 5, Type 0, BuildingBlock: ESEHIV_clean_linker_0, # of connection points: 3
#     Node 6, Type 0, BuildingBlock: ESEHIV_clean_linker_0, # of connection points: 3
#     Node 7, Type 0, BuildingBlock: ESEHIV_clean_linker_0, # of connection points: 3
#     Node 8, Type 1, BuildingBlock: PAMTUU_clean_sbu_0, # of connection points: 6
#     Node 9, Type 1, BuildingBlock: PAMTUU_clean_sbu_0, # of connection points: 6
#     Node 10, Type 1, BuildingBlock: PAMTUU_clean_sbu_0, # of connection points: 6
#     Node 11, Type 1, BuildingBlock: PAMTUU_clean_sbu_0, # of connection points: 6
#     Edge 12, Type (0, 1), BuildingBlock: CIFDUS_clean_linker_0, # of connection points: 2
#     Edge 13, Type (0, 1), BuildingBlock: CIFDUS_clean_linker_0, # of connection points: 2
#     Edge 14, Type (0, 1), BuildingBlock: CIFDUS_clean_linker_0, # of connection points: 2
#     Edge 15, Type (0, 1), BuildingBlock: CIFDUS_clean_linker_0, # of connection points: 2
#     Edge 16, Type (0, 1), BuildingBlock: CIFDUS_clean_linker_0, # of connection points: 2
#     Edge 17, Type (0, 1), BuildingBlock: CIFDUS_clean_linker_0, # of connection points: 2
#     Edge 18, Type (0, 1), BuildingBlock: CIFDUS_clean_linker_0, # of connection points: 2
#     Edge 19, Type (0, 1), BuildingBlock: CIFDUS_clean_linker_0, # of connection points: 2
#     Edge 20, Type (0, 1), BuildingBlock: CIFDUS_clean_linker_0, # of connection points: 2
#     Edge 21, Type (0, 1), BuildingBlock: CIFDUS_clean_linker_0, # of connection points: 2
#     Edge 22, Type (0, 1), BuildingBlock: CIFDUS_clean_linker_0, # of connection points: 2
#     Edge 23, Type (0, 1), BuildingBlock: CIFDUS_clean_linker_0, # of connection points: 2
#     Edge 24, Type (0, 1), BuildingBlock: CIFDUS_clean_linker_0, # of connection points: 2
#     Edge 25, Type (0, 1), BuildingBlock: CIFDUS_clean_linker_0, # of connection points: 2
#     Edge 26, Type (0, 1), BuildingBlock: CIFDUS_clean_linker_0, # of connection points: 2
#     Edge 27, Type (0, 1), BuildingBlock: CIFDUS_clean_linker_0, # of connection points: 2
#     Edge 28, Type (0, 1), BuildingBlock: CIFDUS_clean_linker_0, # of connection points: 2
#     Edge 29, Type (0, 1), BuildingBlock: CIFDUS_clean_linker_0, # of connection points: 2
#     Edge 30, Type (0, 1), BuildingBlock: CIFDUS_clean_linker_0, # of connection points: 2
#     Edge 31, Type (0, 1), BuildingBlock: CIFDUS_clean_linker_0, # of connection points: 2
#     Edge 32, Type (0, 1), BuildingBlock: CIFDUS_clean_linker_0, # of connection points: 2
#     Edge 33, Type (0, 1), BuildingBlock: CIFDUS_clean_linker_0, # of connection points: 2
#     Edge 34, Type (0, 1), BuildingBlock: CIFDUS_clean_linker_0, # of connection points: 2
#     Edge 35, Type (0, 1), BuildingBlock: CIFDUS_clean_linker_0, # of connection points: 2
# Relax obj value: 0.160
# Max RMSD: 0.153
# Mean RMSD: 0.062
data_MOF--net-pyr--node1-PAMTUU_clean_sbu_0--node2-ESEHIV_clean_linker_0--edge1-CIFDUS_clean_linker_0
_symmetry_space_group_name_H-M    P1
_symmetry_Int_Tables_number       1
_symmetry_cell_setting            triclinic
loop_
_symmetry_equiv_pos_as_xyz
'x, y, z'
_cell_length_a     31.863511
_cell_length_b     32.077085
_cell_length_c     29.06998
_cell_angle_alpha  89.512417
_cell_angle_beta   89.41356
_cell_angle_gamma 103.69075
loop_
_atom_site_label
_atom_site_type_symbol
_atom_site_fract_x
_atom_site_fract_y
_atom_site_fract_z
_atom_type_partial_charge
H0 H 0.33956 0.33125 0.3193 0.0
H1 H 0.44571 0.27097 0.31123 0.0
H2 H 0.41231 0.3386 0.19397 0.0
C3 C 0.36786 0.3263 0.30139 0.0
C4 C 0.37483 0.34059 0.25556 0.0
C5 C 0.39316 0.30105 0.32204 0.0
C6 C 0.42674 0.29106 0.29592 0.0
C7 C 0.43192 0.30149 0.24872 0.0
C8 C 0.40775 0.32891 0.22979 0.0
H9 H 0.10082 0.8415 0.79843 0.0
H10 H 0.20605 0.78185 0.82058 0.0
H11 H 0.15468 0.78541 0.68516 0.0
C12 C 0.12249 0.82275 0.78563 0.0
C13 C 0.12415 0.81496 0.73826 0.0
C14 C 0.15236 0.81168 0.8157 0.0
C15 C 0.18116 0.78838 0.79848 0.0
C16 C 0.18184 0.77797 0.75166 0.0
C17 C 0.15314 0.79144 0.72168 0.0
H18 H 0.70468 0.35017 0.98515 0.0
H19 H 0.71381 0.44476 0.87741 0.0
H20 H 0.60371 0.33658 0.88609 0.0
C21 C 0.69175 0.36198 0.95478 0.0
C22 C 0.65211 0.33821 0.9377 0.0
C23 C 0.71456 0.40065 0.93396 0.0
C24 C 0.69634 0.41577 0.89477 0.0
C25 C 0.65628 0.39316 0.87684 0.0
C26 C 0.63476 0.35404 0.89858 0.0
H27 H 0.83064 0.74329 0.46997 0.0
H28 H 0.92308 0.75564 0.35885 0.0
H29 H 0.82415 0.63893 0.37623 0.0
C30 C 0.84254 0.73034 0.43954 0.0
C31 C 0.82228 0.6885 0.42569 0.0
C32 C 0.87879 0.75515 0.41585 0.0
C33 C 0.89526 0.73694 0.37753 0.0
C34 C 0.87618 0.6947 0.36312 0.0
C35 C 0.83975 0.67083 0.38769 0.0
H36 H 0.58497 0.79877 0.88646 0.0
H37 H 0.68885 0.73759 0.86376 0.0
H38 H 0.63261 0.7359 0.99871 0.0
C39 C 0.60519 0.77854 0.89913 0.0
C40 C 0.60583 0.76975 0.94653 0.0
C41 C 0.63537 0.76753 0.86891 0.0
C42 C 0.6632 0.74314 0.88586 0.0
C43 C 0.66252 0.73139 0.93261 0.0
C44 C 0.63255 0.7436 0.96236 0.0
H45 H 0.85601 0.38033 0.33661 0.0
H46 H 0.93141 0.28593 0.33648 0.0
H47 H 0.91307 0.34887 0.46174 0.0
C48 C 0.87717 0.36393 0.3544 0.0
C49 C 0.88183 0.36825 0.40231 0.0
C50 C 0.89372 0.33339 0.33032 0.0
C51 C 0.92056 0.31144 0.3536 0.0
C52 C 0.92796 0.31709 0.40085 0.0
C53 C 0.90908 0.34609 0.42484 0.0
H54 H 0.32728 0.72131 0.2137 0.0
H55 H 0.32663 0.61762 0.30848 0.0
H56 H 0.43386 0.72853 0.30557 0.0
C57 C 0.34246 0.70748 0.24115 0.0
C58 C 0.3832 0.73008 0.2568 0.0
C59 C 0.32148 0.66692 0.25902 0.0
C60 C 0.34206 0.64886 0.29419 0.0
C61 C 0.38224 0.67108 0.31181 0.0
C62 C 0.40245 0.71194 0.29317 0.0
H63 H 0.10135 0.34303 0.80423 0.0
H64 H 0.2044 0.35875 0.70465 0.0
H65 H 0.21423 0.44705 0.81683 0.0
C66 C 0.13308 0.3601 0.79214 0.0
C67 C 0.1554 0.39721 0.81552 0.0
C68 C 0.15057 0.34586 0.75208 0.0
C69 C 0.19118 0.36929 0.73565 0.0
C70 C 0.21465 0.40612 0.75811 0.0
C71 C 0.19628 0.41959 0.79823 0.0
Tb72 Tb 0.03577 0.0599 0.55983 0.0
Tb73 Tb 0.94642 0.04669 0.62034 0.0
C74 C 0.95419 0.98648 0.53557 0.0
C75 C 0.14374 0.10631 0.50636 0.0
C76 C 0.21806 0.17078 0.48496 0.0
C77 C 0.20534 0.13459 0.45676 0.0
C78 C 0.16869 0.10259 0.46755 0.0
C79 C 0.15526 0.14295 0.53397 0.0
C80 C 0.19226 0.17501 0.52333 0.0
C81 C 0.10756 0.0704 0.51884 0.0
O82 O 0.99741 0.09776 0.52367 0.0
O83 O 0.95467 0.10727 0.58463 0.0
O84 O 0.99724 0.08864 0.66073 0.0
O85 O 0.04421 0.11692 0.60197 0.0
O86 O 0.88179 0.05104 0.62059 0.0
O87 O 0.91169 1.03429 0.68255 0.0
O88 O 0.96888 0.98955 0.63522 0.0
O89 O 0.04008 1.01958 0.61928 0.0
O90 O 0.99653 0.99901 0.53603 0.0
O91 O 0.92966 1.00679 0.55913 0.0
C92 C 0.97043 0.11768 0.54329 0.0
O93 O 0.10172 0.06247 0.56272 0.0
O94 O 0.07126 0.06805 0.49752 0.0
C95 C 0.02945 0.11891 0.64404 0.0
C96 C 0.83699 1.00404 0.67274 0.0
C97 C 0.76196 0.94259 0.69936 0.0
C98 C 0.75927 0.98348 0.6838 0.0
C99 C 0.79654 1.01399 0.6708 0.0
C100 C 0.83958 0.96236 0.6851 0.0
C101 C 0.80234 0.93189 0.69846 0.0
C102 C 0.87588 1.03811 0.66329 0.0
C103 C 1.00957 0.98828 0.63643 0.0
H104 H 0.22364 0.13099 0.42605 0.0
H105 H 0.1601 0.07464 0.44582 0.0
H106 H 0.13614 0.14638 0.56412 0.0
H107 H 0.20108 0.2026 0.54549 0.0
H108 H 0.72858 0.99246 0.68351 0.0
H109 H 0.79394 1.04587 0.66066 0.0
H110 H 0.87048 0.95382 0.68615 0.0
H111 H 0.80563 0.90086 0.71072 0.0
Tb112 Tb 0.56836 1.04216 0.12187 0.0
Tb113 Tb 0.47076 1.02994 1.07715 0.0
C114 C 0.52818 0.96626 1.05104 0.0
C115 C 0.67768 0.0987 0.15218 0.0
C116 C 0.73445 0.17749 0.17245 0.0
C117 C 0.74621 0.1386 0.18145 0.0
C118 C 0.71792 0.09941 0.17137 0.0
C119 C 0.66672 0.1374 0.1411 0.0
C120 C 0.69495 0.1765 0.15095 0.0
C121 C 0.6463 0.05789 0.14533 0.0
O122 O 0.56942 0.09768 1.07752 0.0
O123 O 0.51369 0.07243 1.02821 0.0
O124 O 0.48451 0.08931 0.11512 0.0
O125 O 0.53851 0.08278 0.16436 0.0
O126 O 0.4265 1.0247 1.02358 0.0
O127 O 0.40643 1.02901 0.09455 0.0
O128 O 0.46407 0.97956 0.13004 0.0
O129 O 0.53193 0.98761 0.16177 0.0
O130 O 0.56094 0.98912 1.074 0.0
O131 O 0.49076 0.97624 1.04788 0.0
C132 C 0.54853 0.1014 1.03961 0.0
O133 O 0.61398 0.04942 0.17461 0.0
O134 O 0.6335 0.05067 0.10305 0.0
C135 C 0.50904 0.10238 0.15057 0.0
C136 C 0.35694 0.98535 1.04559 0.0
C137 C 0.28526 0.91925 1.02299 0.0
C138 C 0.2794 0.95802 1.04119 0.0
C139 C 0.31503 0.99091 1.05213 0.0
C140 C 0.36291 0.94547 1.03127 0.0
C141 C 0.32734 0.91272 1.01986 0.0
C142 C 0.39397 1.02176 1.05216 0.0
C143 C 0.49104 0.96745 0.15848 0.0
H144 H 0.77613 0.13834 0.19866 0.0
H145 H 0.7268 0.06974 0.18001 0.0
H146 H 0.63575 0.13742 0.12617 0.0
H147 H 0.68517 0.20593 0.14339 0.0
H148 H 0.24737 0.96374 1.04474 0.0
H149 H 0.30991 1.02127 1.06403 0.0
H150 H 0.3951 0.94031 1.02684 0.0
H151 H 0.33314 0.88347 1.00562 0.0
Tb152 Tb 0.52836 0.50775 0.57184 0.0
Tb153 Tb 0.52089 0.59015 0.63351 0.0
C154 C 0.48263 0.57912 0.53474 0.0
C155 C 0.58462 0.44446 0.50119 0.0
C156 C 0.66786 0.43949 0.47093 0.0
C157 C 0.63714 0.40235 0.48548 0.0
C158 C 0.59599 0.40488 0.5006 0.0
C159 C 0.61461 0.48136 0.48527 0.0
C160 C 0.65572 0.47888 0.47015 0.0
C161 C 0.54387 0.44794 0.5235 0.0
O162 O 0.59263 0.55066 0.57014 0.0
O163 O 0.57429 0.614 0.58512 0.0
O164 O 0.56794 0.56095 0.66766 0.0
O165 O 0.54065 0.49266 0.64345 0.0
O166 O 0.51744 0.65476 0.63699 0.0
O167 O 0.51712 0.61685 0.69866 0.0
O168 O 0.46561 0.53905 0.65492 0.0
O169 O 0.46152 0.48968 0.59675 0.0
O170 O 0.50813 0.55348 0.52483 0.0
O171 O 0.47551 0.58804 0.57768 0.0
C172 C 0.60137 0.59271 0.56812 0.0
O173 O 0.54455 0.44801 0.56816 0.0
O174 O 0.52593 0.47751 0.50759 0.0
C175 C 0.56356 0.51935 0.67287 0.0
C176 C 0.46952 0.66316 0.69615 0.0
C177 C 0.38986 0.6834 0.71653 0.0
C178 C 0.426 0.71571 0.70257 0.0
C179 C 0.46547 0.70563 0.69243 0.0
C180 C 0.43364 0.63098 0.71066 0.0
C181 C 0.39427 0.64098 0.72077 0.0
C182 C 0.5098 0.65199 0.68116 0.0
C183 C 0.44516 0.50427 0.63345 0.0
H184 H 0.64495 0.37129 0.48553 0.0
H185 H 0.57344 0.37609 0.513 0.0
H186 H 0.60673 0.5124 0.48577 0.0
H187 H 0.67837 0.50809 0.45922 0.0
H188 H 0.4238 0.7488 0.69958 0.0
H189 H 0.49265 0.73088 0.68101 0.0
H190 H 0.43578 0.59789 0.71347 0.0
H191 H 0.36701 0.61527 0.73093 0.0
Tb192 Tb 0.01552 0.58206 1.06647 0.0
Tb193 Tb 0.02034 0.49625 0.12534 0.0
C194 C 0.06067 0.51328 1.02562 0.0
C195 C 0.96579 0.65169 0.99796 0.0
C196 C 0.88425 0.66314 0.97153 0.0
C197 C 0.91563 0.69755 0.98936 0.0
C198 C 0.95603 0.69182 1.00253 0.0
C199 C 0.93495 0.61766 0.97892 0.0
C200 C 0.89469 0.62335 0.96579 0.0
C201 C 1.00595 0.64407 1.01733 0.0
O202 O 0.96076 0.53196 1.04379 0.0
O203 O 0.95375 0.48103 0.10159 0.0
O204 O 0.99387 0.53598 0.17346 0.0
O205 O 0.97139 0.58253 0.12429 0.0
O206 O 0.02087 0.43081 0.12907 0.0
O207 O 0.03115 0.47015 0.18939 0.0
O208 O 0.08506 0.53844 0.12638 0.0
O209 O 0.06831 0.6032 0.11463 0.0
O210 O 0.06389 0.55449 1.03182 0.0
O211 O 0.03798 0.48482 1.0545 0.0
C212 C 0.93897 0.49688 1.0648 0.0
O213 O 1.0084 0.64561 1.062 0.0
O214 O 0.01849 0.61117 1.00122 0.0
C215 C 0.973 0.56616 0.16565 0.0
C216 C 0.0756 0.42251 0.18027 0.0
C217 C 0.15856 0.41229 0.20239 0.0
C218 C 0.12472 0.40287 0.23514 0.0
C219 C 0.08357 0.40787 0.22411 0.0
C220 C 0.10915 0.43125 0.1472 0.0
C221 C 0.15018 0.42583 0.15806 0.0
C222 C 0.03437 0.43408 0.17134 0.0
C223 C 0.0945 0.58036 0.13031 0.0
H224 H 0.90884 0.72884 0.9935 0.0
H225 H 0.97924 0.71842 1.01734 0.0
H226 H 0.94139 0.58618 0.97528 0.0
H227 H 0.87126 0.59612 0.95253 0.0
H228 H 0.13021 0.39195 0.26943 0.0
H229 H 0.05831 0.40155 0.25025 0.0
H230 H 0.10403 0.44351 0.11339 0.0
H231 H 0.17573 0.43362 0.13231 0.0
H232 H 0.34899 0.32617 0.39485 0.0
H233 H 0.40135 0.22036 0.34913 0.0
H234 H 0.359 0.17427 0.40653 0.0
H235 H 0.29459 0.15827 0.45496 0.0
H236 H 0.23001 0.25845 0.48762 0.0
H237 H 0.28846 0.31154 0.45019 0.0
C238 C 0.35126 0.29304 0.39721 0.0
C239 C 0.37767 0.27714 0.36587 0.0
C240 C 0.32337 0.26492 0.42749 0.0
C241 C 0.38181 0.23457 0.37197 0.0
C242 C 0.35678 0.20745 0.40461 0.0
C243 C 0.29346 0.19181 0.45421 0.0
C244 C 0.25739 0.20418 0.47261 0.0
C245 C 0.32545 0.22149 0.4301 0.0
C246 C 0.25722 0.24796 0.47323 0.0
C247 C 0.29048 0.27829 0.45148 0.0
H248 H 0.17827 0.77892 0.89531 0.0
H249 H 0.14579 0.89246 0.83916 0.0
H250 H 0.17561 0.93287 0.90565 0.0
H251 H 0.22505 0.94077 0.96929 0.0
H252 H 0.26575 0.83084 1.02245 0.0
H253 H 0.21954 0.78475 0.96718 0.0
C254 C 0.17722 0.81236 0.89789 0.0
C255 C 0.16024 0.8324 0.86153 0.0
C256 C 0.197 0.83657 0.9352 0.0
C257 C 0.15805 0.87553 0.86633 0.0
C258 C 0.17581 0.89915 0.90426 0.0
C259 C 0.22269 0.90648 0.97017 0.0
C260 C 0.24931 0.88941 0.99951 0.0
C261 C 0.19737 0.88063 0.93747 0.0
C262 C 0.24612 0.84491 0.99959 0.0
C263 C 0.21976 0.81857 0.96797 0.0
H264 H 0.65744 0.47734 0.85418 0.0
H265 H 0.61117 0.34802 0.80548 0.0
H266 H 0.57863 0.37502 0.7394 0.0
H267 H 0.56299 0.43537 0.69457 0.0
H268 H 0.61053 0.56476 0.74246 0.0
H269 H 0.6431 0.53775 0.80862 0.0
C270 C 0.64069 0.45493 0.82896 0.0
C271 C 0.63692 0.41039 0.83555 0.0
C272 C 0.62213 0.47077 0.79042 0.0
C273 C 0.61426 0.38227 0.80233 0.0
C274 C 0.59576 0.39777 0.7641 0.0
C275 C 0.58051 0.45778 0.71938 0.0
C276 C 0.58405 0.50228 0.71306 0.0
C277 C 0.59936 0.44196 0.75773 0.0
C278 C 0.60706 0.53047 0.74595 0.0
C279 C 0.62578 0.51498 0.78404 0.0
H280 H 0.8912 0.61412 0.35321 0.0
H281 H 0.90052 0.73317 0.27935 0.0
H282 H 0.92904 0.70377 0.21175 0.0
H283 H 0.95263 0.64447 0.17331 0.0
H284 H 0.94667 0.52664 0.24842 0.0
H285 H 0.91539 0.55496 0.31496 0.0
C286 C 0.89923 0.63357 0.32224 0.0
C287 C 0.89363 0.67601 0.32174 0.0
C288 C 0.91625 0.61654 0.28335 0.0
C289 C 0.90482 0.7007 0.28122 0.0
C290 C 0.92098 0.68377 0.24231 0.0
C291 C 0.94416 0.6248 0.20407 0.0
C292 C 0.9519 0.58319 0.2054 0.0
C293 C 0.927 0.64176 0.24291 0.0
C294 C 0.9412 0.55866 0.24609 0.0
C295 C 0.92327 0.5749 0.28433 0.0
H296 H 0.50159 0.26608 0.26691 0.0
H297 H 0.40914 0.27461 0.16112 0.0
H298 H 0.42853 0.21673 0.12029 0.0
H299 H 0.46203 0.15654 0.11999 0.0
H300 H 0.54879 0.14091 0.22846 0.0
H301 H 0.53947 0.20737 0.2638 0.0
C302 C 0.48551 0.25542 0.23498 0.0
C303 C 0.45309 0.27482 0.21819 0.0
C304 C 0.49459 0.21968 0.21277 0.0
C305 C 0.43445 0.26136 0.1754 0.0
C306 C 0.44489 0.22736 0.15213 0.0
C307 C 0.47901 0.16739 0.15145 0.0
C308 C 0.50525 0.14306 0.17215 0.0
C309 C 0.47326 0.20511 0.17159 0.0
C310 C 0.52776 0.15854 0.21222 0.0
C311 C 0.52259 0.19666 0.23228 0.0
H312 H 0.04254 0.82813 0.74479 0.0
H313 H 0.15879 0.85932 0.66121 0.0
H314 H 0.13224 0.91444 0.62078 0.0
H315 H 0.08064 0.95986 0.61579 0.0
H316 H 0.96488 0.93068 0.69994 0.0
H317 H 0.98704 0.86934 0.73423 0.0
C318 C 0.06171 0.84655 0.71721 0.0
C319 C 0.10275 0.83971 0.70638 0.0
C320 C 0.04692 0.87937 0.69509 0.0
C321 C 0.1269 0.8634 0.67003 0.0
C322 C 0.11206 0.8955 0.64732 0.0
C323 C 0.06026 0.9401 0.64169 0.0
C324 C 0.02173 0.95031 0.65617 0.0
C325 C 0.07296 0.90481 0.66079 0.0
C326 C 0.995 0.92373 0.68872 0.0
C327 C 1.0076 0.88863 0.7082 0.0
H328 H 0.77608 0.36916 0.98072 0.0
H329 H 0.74931 0.48845 0.93394 0.0
H330 H 0.81586 0.52807 0.96882 0.0
H331 H 0.88143 0.5295 1.01464 0.0
H332 H 0.90312 0.41073 1.06833 0.0
H333 H 0.83793 0.37076 1.03051 0.0
C334 C 0.78388 0.40386 0.97867 0.0
C335 C 0.75669 0.42524 0.95426 0.0
C336 C 0.82146 0.42686 1.00067 0.0
C337 C 0.7693 0.47043 0.95131 0.0
C338 C 0.8074 0.49339 0.97185 0.0
C339 C 0.87186 0.49487 1.01809 0.0
C340 C 0.89745 0.47321 1.04425 0.0
C341 C 0.83369 0.47201 0.99682 0.0
C342 C 0.8841 0.42834 1.04877 0.0
C343 C 0.84687 0.4054 1.02685 0.0
H344 H 0.75533 0.7187 0.46113 0.0
H345 H 0.80012 0.60239 0.44841 0.0
H346 H 0.73697 0.56289 0.49201 0.0
H347 H 0.66842 0.5612 0.53384 0.0
H348 H 0.62534 0.67845 0.5476 0.0
H349 H 0.68866 0.71756 0.50448 0.0
C350 C 0.75162 0.68476 0.46813 0.0
C351 C 0.78285 0.66378 0.45128 0.0
C352 C 0.71533 0.66224 0.49362 0.0
C353 C 0.77659 0.61949 0.46017 0.0
C354 C 0.74046 0.59684 0.48541 0.0
C355 C 0.67282 0.59531 0.52746 0.0
C356 C 0.64172 0.61663 0.54406 0.0
C357 C 0.70951 0.61784 0.50229 0.0
C358 C 0.64848 0.66099 0.53557 0.0
C359 C 0.68472 0.68347 0.51065 0.0
H360 H 0.33466 0.39954 0.29113 0.0
H361 H 0.33935 0.32362 0.17008 0.0
H362 H 0.27506 0.34293 0.14073 0.0
H363 H 0.21187 0.37323 0.15427 0.0
H364 H 0.20392 0.44367 0.27847 0.0
H365 H 0.27424 0.43365 0.30232 0.0
C366 C 0.32188 0.38753 0.25809 0.0
C367 C 0.34185 0.3599 0.23316 0.0
C368 C 0.28356 0.3969 0.24248 0.0
C369 C 0.32522 0.34535 0.18995 0.0
C370 C 0.28794 0.35585 0.17338 0.0
C371 C 0.22589 0.38685 0.18623 0.0
C372 C 0.20258 0.40867 0.21487 0.0
C373 C 0.26601 0.38034 0.20009 0.0
C374 C 0.22095 0.42605 0.25629 0.0
C375 C 0.26123 0.42055 0.26979 0.0
H376 H 0.60854 0.26031 0.90134 0.0
H377 H 0.64317 0.32425 1.03045 0.0
H378 H 0.61538 0.2573 1.07212 0.0
H379 H 0.58408 0.18005 1.07279 0.0
H380 H 0.54354 0.115 0.94601 0.0
H381 H 0.57012 0.18262 0.90287 0.0
C382 C 0.60944 0.25974 0.9386 0.0
C383 C 0.62923 0.29753 0.96237 0.0
C384 C 0.59251 0.22072 0.96293 0.0
C385 C 0.62964 0.29579 1.01083 0.0
C386 C 0.61345 0.2574 1.0349 0.0
C387 C 0.58109 0.18053 1.03565 0.0
C388 C 0.56251 0.14224 1.01261 0.0
C389 C 0.59559 0.21955 1.01136 0.0
C390 C 0.55794 0.14387 0.96461 0.0
C391 C 0.5732 0.18259 0.93995 0.0
H392 H 0.83949 0.81642 0.44956 0.0
H393 H 0.96542 0.79433 0.41996 0.0
H394 H 0.99949 0.86437 0.45152 0.0
H395 H 0.99388 0.93047 0.49152 0.0
H396 H 0.86781 0.95117 0.52357 0.0
H397 H 0.83383 0.88317 0.48769 0.0
C398 C 0.87443 0.8267 0.45013 0.0
C399 C 0.89965 0.79954 0.43237 0.0
C400 C 0.89396 0.86692 0.46909 0.0
C401 C 0.94493 0.81431 0.43273 0.0
C402 C 0.96454 0.8544 0.45119 0.0
C403 C 0.95894 0.92042 0.49036 0.0
C404 C 0.93361 0.94636 0.51043 0.0
C405 C 0.93942 0.88081 0.46996 0.0
C406 C 0.88834 0.93226 0.50855 0.0
C407 C 0.86878 0.89317 0.48803 0.0
H408 H 0.21249 0.71371 0.79033 0.0
H409 H 0.2316 0.80077 0.67383 0.0
H410 H 0.29637 0.7775 0.65137 0.0
H411 H 0.35085 0.73667 0.66829 0.0
H412 H 0.33388 0.65305 0.78758 0.0
H413 H 0.26536 0.67102 0.80563 0.0
C414 C 0.2307 0.72743 0.75986 0.0
C415 C 0.21716 0.75903 0.73396 0.0
C416 C 0.2687 0.71495 0.74796 0.0
C417 C 0.24079 0.77598 0.69414 0.0
C418 C 0.27822 0.76309 0.68157 0.0
C419 C 0.33226 0.72257 0.69837 0.0
C420 C 0.34768 0.69379 0.7267 0.0
C421 C 0.29303 0.73337 0.70885 0.0
C422 C 0.32269 0.67507 0.765 0.0
C423 C 0.28355 0.68545 0.77546 0.0
H424 H 0.63422 0.85028 0.84993 0.0
H425 H 0.66231 0.73807 0.78738 0.0
H426 H 0.69964 0.78262 0.72373 0.0
H427 H 0.73465 0.85516 0.694 0.0
H428 H 0.70615 0.96578 0.75963 0.0
H429 H 0.6565 0.91946 0.81258 0.0
C430 C 0.64657 0.83477 0.8216 0.0
C431 C 0.64597 0.79078 0.8241 0.0
C432 C 0.66825 0.86046 0.78563 0.0
C433 C 0.66313 0.77202 0.78694 0.0
C434 C 0.68451 0.79748 0.75055 0.0
C435 C 0.71691 0.86898 0.71938 0.0
C436 C 0.72468 0.91388 0.72326 0.0
C437 C 0.68912 0.84209 0.75084 0.0
C438 C 0.70078 0.93139 0.75562 0.0
C439 C 0.67263 0.90491 0.78635 0.0
H440 H 0.8105 0.32569 0.30419 0.0
H441 H 0.93092 0.29986 0.25723 0.0
H442 H 0.89204 0.25197 0.19866 0.0
H443 H 0.82222 0.20853 0.17057 0.0
H444 H 0.70355 0.23675 0.21924 0.0
H445 H 0.7441 0.29449 0.26593 0.0
C446 C 0.8291 0.3115 0.28009 0.0
C447 C 0.87375 0.31592 0.28613 0.0
C448 C 0.80668 0.28404 0.24687 0.0
C449 C 0.89638 0.2962 0.25438 0.0
C450 C 0.87416 0.26878 0.22084 0.0
C451 C 0.80543 0.22795 0.19076 0.0
C452 C 0.75996 0.21796 0.19196 0.0
C453 C 0.829 0.26082 0.21841 0.0
C454 C 0.7385 0.24379 0.21752 0.0
C455 C 0.76166 0.27664 0.24461 0.0
H456 H 0.39997 0.69584 0.40098 0.0
H457 H 0.41155 0.59826 0.30419 0.0
H458 H 0.44443 0.56152 0.36321 0.0
H459 H 0.46925 0.55638 0.44343 0.0
H460 H 0.45244 0.65164 0.54134 0.0
H461 H 0.42249 0.68943 0.4816 0.0
C462 C 0.40999 0.66669 0.39284 0.0
C463 C 0.40371 0.65009 0.34803 0.0
C464 C 0.42783 0.64499 0.4275 0.0
C465 C 0.41622 0.61185 0.33828 0.0
C466 C 0.43498 0.59077 0.37211 0.0
C467 C 0.45903 0.58538 0.45171 0.0
C468 C 0.46329 0.60088 0.49722 0.0
C469 C 0.44085 0.60687 0.41703 0.0
C470 C 0.44947 0.63852 0.50698 0.0
C471 C 0.43238 0.66042 0.47265 0.0
H472 H 0.15774 0.48027 0.84166 0.0
H473 H 0.10914 0.34868 0.88573 0.0
H474 H 0.07626 0.37257 0.95371 0.0
H475 H 0.0606 0.43068 1.00109 0.0
H476 H 0.1097 0.56236 0.95762 0.0
H477 H 0.14334 0.53856 0.88996 0.0
C478 C 0.14037 0.45671 0.8663 0.0
C479 C 0.13601 0.4125 0.85792 0.0
C480 C 0.12152 0.47073 0.90582 0.0
C481 C 0.11266 0.38279 0.89037 0.0
C482 C 0.09398 0.39647 0.92963 0.0
C483 C 0.07875 0.4543 0.97696 0.0
C484 C 0.08239 0.49844 0.98489 0.0
C485 C 0.09802 0.44035 0.93772 0.0
C486 C 0.10617 0.52826 0.95285 0.0
C487 C 0.12547 0.51463 0.91392 0.0
H488 H 0.53126 0.79863 0.94016 0.0
H489 H 0.64279 0.80544 1.02584 0.0
H490 H 0.62668 0.86505 1.06712 0.0
H491 H 0.58765 0.92164 1.07222 0.0
H492 H 0.4787 0.91896 0.98436 0.0
H493 H 0.48819 0.8525 0.94966 0.0
C494 C 0.55184 0.81285 0.96814 0.0
C495 C 0.58852 0.79745 0.97916 0.0
C496 C 0.5438 0.84892 0.99047 0.0
C497 C 0.614 0.81575 1.01653 0.0
C498 C 0.60533 0.85062 1.03981 0.0
C499 C 0.56603 0.90669 1.04534 0.0
C500 C 0.53323 0.92584 1.03009 0.0
C501 C 0.57151 0.86855 1.02576 0.0
C502 C 0.50469 0.90525 0.99622 0.0
C503 C 0.50996 0.86714 0.97652 0.0
H504 H 0.89332 0.27031 0.47516 0.0
H505 H 1.00195 0.29043 0.38124 0.0
H506 H 0.02496 0.22969 0.41623 0.0
H507 H 1.01198 0.16873 0.47208 0.0
H508 H 0.90153 0.14982 0.56404 0.0
H509 H 0.88157 0.21203 0.5312 0.0
C510 C 0.9227 0.26217 0.46309 0.0
C511 C 0.94627 0.28521 0.42617 0.0
C512 C 0.93503 0.22688 0.48256 0.0
C513 C 0.98348 0.27332 0.40995 0.0
C514 C 0.99645 0.23846 0.42973 0.0
C515 C 0.98346 0.17816 0.48464 0.0
C516 C 0.95833 0.1545 0.52044 0.0
C517 C 0.97202 0.21449 0.46564 0.0
C518 C 0.92165 0.16741 0.53666 0.0
C519 C 0.91013 0.20311 0.51797 0.0
H520 H 0.25456 0.70021 0.22883 0.0
H521 H 0.29222 0.58008 0.24349 0.0
H522 H 0.22573 0.54281 0.20601 0.0
H523 H 0.15786 0.54459 0.16601 0.0
H524 H 0.12303 0.66589 0.14828 0.0
H525 H 0.18797 0.70224 0.18851 0.0
C526 C 0.24874 0.66594 0.22348 0.0
C527 C 0.27909 0.64335 0.23901 0.0
C528 C 0.21094 0.64479 0.20064 0.0
C529 C 0.26966 0.59859 0.23266 0.0
C530 C 0.23169 0.5772 0.21067 0.0
C531 C 0.16448 0.57902 0.17074 0.0
C532 C 0.1353 0.60234 0.15369 0.0
C533 C 0.20227 0.60002 0.19401 0.0
C534 C 0.14468 0.64694 0.16059 0.0
C535 C 0.18188 0.66785 0.18383 0.0
H536 H 0.27636 0.37517 0.71041 0.0
H537 H 0.25115 0.49329 0.76123 0.0
H538 H 0.31975 0.53322 0.72861 0.0
H539 H 0.38642 0.53539 0.68362 0.0
H540 H 0.40814 0.41844 0.62683 0.0
H541 H 0.34055 0.37782 0.66203 0.0
C542 C 0.28509 0.40973 0.71386 0.0
C543 C 0.25773 0.43069 0.73874 0.0
C544 C 0.32404 0.43301 0.69333 0.0
C545 C 0.27126 0.47559 0.74343 0.0
C546 C 0.31051 0.49875 0.7242 0.0
C547 C 0.37646 0.50101 0.67903 0.0
C548 C 0.40268 0.48005 0.65277 0.0
C549 C 0.33711 0.47786 0.69891 0.0
C550 C 0.38869 0.43552 0.6466 0.0
C551 C 0.35007 0.41221 0.66698 0.0
H552 H 0.70258 0.67357 0.89365 0.0
H553 H 0.70622 0.7539 1.01283 0.0
H554 H 0.77334 0.73736 1.03666 0.0
H555 H 0.8347 0.70592 1.02018 0.0
H556 H 0.83485 0.63112 0.89749 0.0
H557 H 0.76312 0.64025 0.87834 0.0
C558 C 0.71791 0.6873 0.92499 0.0
C559 C 0.69906 0.71497 0.95121 0.0
C560 C 0.75775 0.67932 0.93753 0.0
C561 C 0.71917 0.73183 0.99219 0.0
C562 C 0.75811 0.72296 1.00559 0.0
C563 C 0.81922 0.6919 0.98904 0.0
C564 C 0.84039 0.66828 0.9601 0.0
C565 C 0.77828 0.69779 0.97784 0.0
C566 C 0.81928 0.64934 0.92051 0.0
C567 C 0.77828 0.65464 0.90945 0.0
H568 H 0.43271 0.80577 0.29319 0.0
H569 H 0.38499 0.74751 0.16462 0.0
H570 H 0.41148 0.81535 0.12449 0.0
H571 H 0.44624 0.8921 0.125 0.0
H572 H 0.5019 0.95046 0.24997 0.0
H573 H 0.47478 0.88229 0.29199 0.0
C574 C 0.42856 0.80776 0.25635 0.0
C575 C 0.4053 0.77136 0.2326 0.0
C576 C 0.44509 0.84723 0.23265 0.0
C577 C 0.40099 0.77495 0.18455 0.0
C578 C 0.41647 0.81386 0.16124 0.0
C579 C 0.45223 0.88993 0.16153 0.0
C580 C 0.47522 0.92649 0.18457 0.0
C581 C 0.43786 0.85038 0.18495 0.0
C582 C 0.48386 0.92287 0.23158 0.0
C583 C 0.4684 0.88384 0.25555 0.0
H584 H 0.1025 0.26804 0.78614 0.0
H585 H 0.14398 0.33645 0.6588 0.0
H586 H 0.11189 0.27272 0.61529 0.0
H587 H 0.07344 0.19717 0.61245 0.0
H588 H 0.02713 0.12852 0.73813 0.0
H589 H 0.05913 0.19253 0.78283 0.0
C590 C 0.10407 0.26921 0.74887 0.0
C591 C 0.12669 0.30719 0.72613 0.0
C592 C 0.08475 0.23219 0.72355 0.0
C593 C 0.12812 0.30767 0.67764 0.0
C594 C 0.10946 0.27116 0.65252 0.0
C595 C 0.07038 0.19601 0.64967 0.0
C596 C 0.04825 0.15772 0.67182 0.0
C597 C 0.08819 0.23311 0.67503 0.0
C598 C 0.04407 0.15737 0.72007 0.0
C599 C 0.06241 0.19405 0.74567 0.0
H600 H 0.84819 0.43724 0.3797 0.0
H601 H 0.84182 0.33936 0.48446 0.0
H602 H 0.77788 0.3564 0.51752 0.0
H603 H 0.71781 0.39136 0.51069 0.0
H604 H 0.71882 0.48291 0.40074 0.0
H605 H 0.78998 0.47546 0.3756 0.0
C606 C 0.83305 0.41971 0.40993 0.0
C607 C 0.85003 0.3866 0.42886 0.0
C608 C 0.79445 0.42781 0.42739 0.0
C609 C 0.83039 0.36537 0.46903 0.0
C610 C 0.79309 0.37455 0.4877 0.0
C611 C 0.73341 0.40955 0.48104 0.0
C612 C 0.71245 0.43707 0.45724 0.0
C613 C 0.77386 0.40435 0.46602 0.0
C614 C 0.734 0.46145 0.41983 0.0
C615 C 0.77472 0.4571 0.40527 0.0
loop_
_geom_bond_atom_site_label_1
_geom_bond_atom_site_label_2
_geom_bond_distance
_geom_bond_site_symmetry_2
_ccdc_geom_bond_type
H0 C3 0.931 . S
H1 C6 0.928 . S
H2 C8 0.930 . S
C3 H0 0.931 . S
C3 C4 1.413 . S
C3 C5 1.360 . S
C4 C3 1.413 . S
C4 C8 1.429 . S
C5 C3 1.360 . S
C5 C6 1.372 . S
C6 H1 0.928 . S
C6 C5 1.372 . S
C6 C7 1.404 . S
C7 C6 1.404 . S
C7 C8 1.391 . S
C8 H2 0.930 . S
C8 C4 1.429 . S
C8 C7 1.391 . S
H9 C12 0.931 . S
H10 C15 0.928 . S
H11 C17 0.930 . S
C12 H9 0.931 . S
C12 C13 1.413 . S
C12 C14 1.360 . S
C13 C12 1.413 . S
C13 C17 1.429 . S
C14 C12 1.360 . S
C14 C15 1.372 . S
C15 H10 0.928 . S
C15 C14 1.372 . S
C15 C16 1.404 . S
C16 C15 1.404 . S
C16 C17 1.391 . S
C17 H11 0.930 . S
C17 C13 1.429 . S
C17 C16 1.391 . S
H18 C21 0.931 . S
H19 C24 0.928 . S
H20 C26 0.930 . S
C21 H18 0.931 . S
C21 C22 1.413 . S
C21 C23 1.360 . S
C22 C21 1.413 . S
C22 C26 1.429 . S
C23 C21 1.360 . S
C23 C24 1.372 . S
C24 H19 0.928 . S
C24 C23 1.372 . S
C24 C25 1.404 . S
C25 C24 1.404 . S
C25 C26 1.391 . S
C26 H20 0.930 . S
C26 C22 1.429 . S
C26 C25 1.391 . S
H27 C30 0.931 . S
H28 C33 0.928 . S
H29 C35 0.930 . S
C30 H27 0.931 . S
C30 C31 1.413 . S
C30 C32 1.360 . S
C31 C30 1.413 . S
C31 C35 1.429 . S
C32 C30 1.360 . S
C32 C33 1.372 . S
C33 H28 0.928 . S
C33 C32 1.372 . S
C33 C34 1.404 . S
C34 C33 1.404 . S
C34 C35 1.391 . S
C35 H29 0.930 . S
C35 C31 1.429 . S
C35 C34 1.391 . S
H36 C39 0.931 . S
H37 C42 0.928 . S
H38 C44 0.930 . S
C39 H36 0.931 . S
C39 C40 1.413 . S
C39 C41 1.360 . S
C40 C39 1.413 . S
C40 C44 1.429 . S
C41 C39 1.360 . S
C41 C42 1.372 . S
C42 H37 0.928 . S
C42 C41 1.372 . S
C42 C43 1.404 . S
C43 C42 1.404 . S
C43 C44 1.391 . S
C44 H38 0.930 . S
C44 C40 1.429 . S
C44 C43 1.391 . S
H45 C48 0.931 . S
H46 C51 0.928 . S
H47 C53 0.930 . S
C48 H45 0.931 . S
C48 C49 1.413 . S
C48 C50 1.360 . S
C49 C48 1.413 . S
C49 C53 1.429 . S
C50 C48 1.360 . S
C50 C51 1.372 . S
C51 H46 0.928 . S
C51 C50 1.372 . S
C51 C52 1.404 . S
C52 C51 1.404 . S
C52 C53 1.391 . S
C53 H47 0.930 . S
C53 C49 1.429 . S
C53 C52 1.391 . S
H54 C57 0.931 . S
H55 C60 0.928 . S
H56 C62 0.930 . S
C57 H54 0.931 . S
C57 C58 1.413 . S
C57 C59 1.360 . S
C58 C57 1.413 . S
C58 C62 1.429 . S
C59 C57 1.360 . S
C59 C60 1.372 . S
C60 H55 0.928 . S
C60 C59 1.372 . S
C60 C61 1.404 . S
C61 C60 1.404 . S
C61 C62 1.391 . S
C62 H56 0.930 . S
C62 C58 1.429 . S
C62 C61 1.391 . S
H63 C66 0.931 . S
H64 C69 0.928 . S
H65 C71 0.930 . S
C66 H63 0.931 . S
C66 C67 1.413 . S
C66 C68 1.360 . S
C67 C66 1.413 . S
C67 C71 1.429 . S
C68 C66 1.360 . S
C68 C69 1.372 . S
C69 H64 0.928 . S
C69 C68 1.372 . S
C69 C70 1.404 . S
C70 C69 1.404 . S
C70 C71 1.391 . S
C71 H65 0.930 . S
C71 C67 1.429 . S
C71 C70 1.391 . S
Tb72 C81 2.764 . S
Tb72 O82 2.325 . S
Tb72 O85 2.303 . S
Tb72 O89 2.322 1_545 S
Tb72 O90 2.349 1_545 S
Tb72 O93 2.415 . S
Tb72 O94 2.399 . S
Tb73 O83 2.334 . S
Tb73 O84 2.363 . S
Tb73 O86 2.401 1_545 S
Tb73 O87 2.398 1_545 S
Tb73 O88 2.315 1_645 S
Tb73 O91 2.292 1_545 S
Tb73 C102 2.756 1_545 S
C74 O90 1.261 1_655 S
C74 O91 1.257 . S
C75 C78 1.358 . S
C75 C79 1.332 . S
C75 C81 1.504 . S
C76 C77 1.373 . S
C76 C80 1.308 . S
C77 C76 1.373 . S
C77 C78 1.429 . S
C77 H104 0.932 . S
C78 C75 1.358 . S
C78 C77 1.429 . S
C78 H105 0.930 . S
C79 C75 1.332 . S
C79 C80 1.394 . S
C79 H106 0.932 . S
C80 C76 1.308 . S
C80 C79 1.394 . S
C80 H107 0.929 . S
C81 Tb72 2.764 . S
C81 C75 1.504 . S
C81 O93 1.239 . S
C81 O94 1.263 . S
O82 Tb72 2.325 . S
O82 C92 1.236 1_455 S
O83 Tb73 2.334 . S
O83 C92 1.257 . S
O84 Tb73 2.363 . S
O84 C95 1.261 1_655 S
O85 Tb72 2.303 . S
O85 C95 1.257 . S
O86 Tb73 2.401 1_565 S
O86 C102 1.239 . S
O87 Tb73 2.398 1_565 S
O87 C102 1.263 . S
O88 Tb73 2.315 1_465 S
O88 C103 1.236 . S
O89 Tb72 2.322 1_565 S
O89 C103 1.257 . S
O90 Tb72 2.349 1_565 S
O90 C74 1.261 1_455 S
O91 Tb73 2.292 1_565 S
O91 C74 1.257 . S
C92 O82 1.236 1_655 S
C92 O83 1.257 . S
O93 Tb72 2.415 . S
O93 C81 1.239 . S
O94 Tb72 2.399 . S
O94 C81 1.263 . S
C95 O84 1.261 1_455 S
C95 O85 1.257 . S
C96 C99 1.358 . S
C96 C100 1.332 . S
C96 C102 1.504 . S
C97 C98 1.373 . S
C97 C101 1.308 . S
C98 C97 1.373 . S
C98 C99 1.429 . S
C98 H108 0.932 . S
C99 C96 1.358 . S
C99 C98 1.429 . S
C99 H109 0.930 . S
C100 C96 1.332 . S
C100 C101 1.394 . S
C100 H110 0.932 . S
C101 C97 1.308 . S
C101 C100 1.394 . S
C101 H111 0.929 . S
C102 Tb73 2.756 1_565 S
C102 O86 1.239 . S
C102 O87 1.263 . S
C102 C96 1.504 . S
C103 O88 1.236 . S
C103 O89 1.257 . S
H104 C77 0.932 . S
H105 C78 0.930 . S
H106 C79 0.932 . S
H107 C80 0.929 . S
H108 C98 0.932 . S
H109 C99 0.930 . S
H110 C100 0.932 . S
H111 C101 0.929 . S
Tb112 C121 2.764 . S
Tb112 O122 2.325 1_554 S
Tb112 O125 2.303 . S
Tb112 O129 2.322 1_545 S
Tb112 O130 2.349 1_544 S
Tb112 O133 2.415 . S
Tb112 O134 2.399 . S
Tb113 O123 2.322 1_565 S
Tb113 O124 2.349 1_566 S
Tb113 O126 2.415 . S
Tb113 O127 2.399 . S
Tb113 O128 2.325 1_556 S
Tb113 O131 2.303 . S
Tb113 C142 2.764 . S
C114 O130 1.261 . S
C114 O131 1.257 . S
C115 C118 1.358 . S
C115 C119 1.332 . S
C115 C121 1.504 . S
C116 C117 1.373 . S
C116 C120 1.308 . S
C117 C116 1.373 . S
C117 C118 1.429 . S
C117 H144 0.932 . S
C118 C115 1.358 . S
C118 C117 1.429 . S
C118 H145 0.930 . S
C119 C115 1.332 . S
C119 C120 1.394 . S
C119 H146 0.932 . S
C120 C116 1.308 . S
C120 C119 1.394 . S
C120 H147 0.929 . S
C121 Tb112 2.764 . S
C121 C115 1.504 . S
C121 O133 1.239 . S
C121 O134 1.263 . S
O122 Tb112 2.325 1_556 S
O122 C132 1.236 . S
O123 Tb113 2.322 1_545 S
O123 C132 1.257 . S
O124 Tb113 2.349 1_544 S
O124 C135 1.261 . S
O125 Tb112 2.303 . S
O125 C135 1.257 . S
O126 Tb113 2.415 . S
O126 C142 1.239 . S
O127 Tb113 2.399 . S
O127 C142 1.263 . S
O128 Tb113 2.325 1_554 S
O128 C143 1.236 . S
O129 Tb112 2.322 1_565 S
O129 C143 1.257 . S
O130 Tb112 2.349 1_566 S
O130 C114 1.261 . S
O131 Tb113 2.303 . S
O131 C114 1.257 . S
C132 O122 1.236 . S
C132 O123 1.257 . S
O133 Tb112 2.415 . S
O133 C121 1.239 . S
O134 Tb112 2.399 . S
O134 C121 1.263 . S
C135 O124 1.261 . S
C135 O125 1.257 . S
C136 C139 1.358 . S
C136 C140 1.332 . S
C136 C142 1.504 . S
C137 C138 1.373 . S
C137 C141 1.308 . S
C138 C137 1.373 . S
C138 C139 1.429 . S
C138 H148 0.932 . S
C139 C136 1.358 . S
C139 C138 1.429 . S
C139 H149 0.930 . S
C140 C136 1.332 . S
C140 C141 1.394 . S
C140 H150 0.932 . S
C141 C137 1.308 . S
C141 C140 1.394 . S
C141 H151 0.929 . S
C142 Tb113 2.764 . S
C142 O126 1.239 . S
C142 O127 1.263 . S
C142 C136 1.504 . S
C143 O128 1.236 . S
C143 O129 1.257 . S
H144 C117 0.932 . S
H145 C118 0.930 . S
H146 C119 0.932 . S
H147 C120 0.929 . S
H148 C138 0.932 . S
H149 C139 0.930 . S
H150 C140 0.932 . S
H151 C141 0.929 . S
Tb152 C161 2.764 . S
Tb152 O162 2.325 . S
Tb152 O165 2.303 . S
Tb152 O169 2.322 . S
Tb152 O170 2.349 . S
Tb152 O173 2.415 . S
Tb152 O174 2.399 . S
Tb153 O163 2.322 . S
Tb153 O164 2.349 . S
Tb153 O166 2.415 . S
Tb153 O167 2.399 . S
Tb153 O168 2.325 . S
Tb153 O171 2.303 . S
Tb153 C182 2.764 . S
C154 O170 1.261 . S
C154 O171 1.257 . S
C155 C158 1.358 . S
C155 C159 1.332 . S
C155 C161 1.504 . S
C156 C157 1.373 . S
C156 C160 1.308 . S
C157 C156 1.373 . S
C157 C158 1.429 . S
C157 H184 0.932 . S
C158 C155 1.358 . S
C158 C157 1.429 . S
C158 H185 0.930 . S
C159 C155 1.332 . S
C159 C160 1.394 . S
C159 H186 0.932 . S
C160 C156 1.308 . S
C160 C159 1.394 . S
C160 H187 0.929 . S
C161 Tb152 2.764 . S
C161 C155 1.504 . S
C161 O173 1.239 . S
C161 O174 1.263 . S
O162 Tb152 2.325 . S
O162 C172 1.236 . S
O163 Tb153 2.322 . S
O163 C172 1.257 . S
O164 Tb153 2.349 . S
O164 C175 1.261 . S
O165 Tb152 2.303 . S
O165 C175 1.257 . S
O166 Tb153 2.415 . S
O166 C182 1.239 . S
O167 Tb153 2.399 . S
O167 C182 1.263 . S
O168 Tb153 2.325 . S
O168 C183 1.236 . S
O169 Tb152 2.322 . S
O169 C183 1.257 . S
O170 Tb152 2.349 . S
O170 C154 1.261 . S
O171 Tb153 2.303 . S
O171 C154 1.257 . S
C172 O162 1.236 . S
C172 O163 1.257 . S
O173 Tb152 2.415 . S
O173 C161 1.239 . S
O174 Tb152 2.399 . S
O174 C161 1.263 . S
C175 O164 1.261 . S
C175 O165 1.257 . S
C176 C179 1.358 . S
C176 C180 1.332 . S
C176 C182 1.504 . S
C177 C178 1.373 . S
C177 C181 1.308 . S
C178 C177 1.373 . S
C178 C179 1.429 . S
C178 H188 0.932 . S
C179 C176 1.358 . S
C179 C178 1.429 . S
C179 H189 0.930 . S
C180 C176 1.332 . S
C180 C181 1.394 . S
C180 H190 0.932 . S
C181 C177 1.308 . S
C181 C180 1.394 . S
C181 H191 0.929 . S
C182 Tb153 2.764 . S
C182 O166 1.239 . S
C182 O167 1.263 . S
C182 C176 1.504 . S
C183 O168 1.236 . S
C183 O169 1.257 . S
H184 C157 0.932 . S
H185 C158 0.930 . S
H186 C159 0.932 . S
H187 C160 0.929 . S
H188 C178 0.932 . S
H189 C179 0.930 . S
H190 C180 0.932 . S
H191 C181 0.929 . S
Tb192 C201 2.764 . S
Tb192 O202 2.325 . S
Tb192 O205 2.303 1_556 S
Tb192 O209 2.324 1_656 S
Tb192 O210 2.349 1_655 S
Tb192 O213 2.415 . S
Tb192 O214 2.399 . S
Tb193 O203 2.322 1_455 S
Tb193 O204 2.349 1_455 S
Tb193 O206 2.415 . S
Tb193 O207 2.399 . S
Tb193 O208 2.325 . S
Tb193 O211 2.303 1_554 S
Tb193 C222 2.764 . S
C194 O210 1.261 . S
C194 O211 1.257 . S
C195 C198 1.358 . S
C195 C199 1.332 . S
C195 C201 1.504 . S
C196 C197 1.373 . S
C196 C200 1.308 . S
C197 C196 1.373 . S
C197 C198 1.429 . S
C197 H224 0.932 . S
C198 C195 1.358 . S
C198 C197 1.429 . S
C198 H225 0.930 . S
C199 C195 1.332 . S
C199 C200 1.394 . S
C199 H226 0.932 . S
C200 C196 1.308 . S
C200 C199 1.394 . S
C200 H227 0.929 . S
C201 Tb192 2.764 . S
C201 C195 1.504 . S
C201 O213 1.239 . S
C201 O214 1.263 . S
O202 Tb192 2.325 . S
O202 C212 1.236 . S
O203 Tb193 2.322 1_655 S
O203 C212 1.257 1_554 S
O204 Tb193 2.349 1_655 S
O204 C215 1.261 . S
O205 Tb192 2.303 1_554 S
O205 C215 1.257 . S
O206 Tb193 2.415 . S
O206 C222 1.239 . S
O207 Tb193 2.399 . S
O207 C222 1.263 . S
O208 Tb193 2.325 . S
O208 C223 1.236 . S
O209 Tb192 2.324 1_454 S
O209 C223 1.255 . S
O210 Tb192 2.349 1_455 S
O210 C194 1.261 . S
O211 Tb193 2.303 1_556 S
O211 C194 1.257 . S
C212 O202 1.236 . S
C212 O203 1.257 1_556 S
O213 Tb192 2.415 . S
O213 C201 1.239 . S
O214 Tb192 2.399 . S
O214 C201 1.263 . S
C215 O204 1.261 . S
C215 O205 1.257 . S
C216 C219 1.358 . S
C216 C220 1.332 . S
C216 C222 1.504 . S
C217 C218 1.373 . S
C217 C221 1.308 . S
C218 C217 1.373 . S
C218 C219 1.429 . S
C218 H228 0.932 . S
C219 C216 1.358 . S
C219 C218 1.429 . S
C219 H229 0.930 . S
C220 C216 1.332 . S
C220 C221 1.394 . S
C220 H230 0.932 . S
C221 C217 1.308 . S
C221 C220 1.394 . S
C221 H231 0.929 . S
C222 Tb193 2.764 . S
C222 O206 1.239 . S
C222 O207 1.263 . S
C222 C216 1.504 . S
C223 O208 1.236 . S
C223 O209 1.255 . S
H224 C197 0.932 . S
H225 C198 0.930 . S
H226 C199 0.932 . S
H227 C200 0.929 . S
H228 C218 0.932 . S
H229 C219 0.930 . S
H230 C220 0.932 . S
H231 C221 0.929 . S
H232 C238 0.930 . S
H233 C241 0.930 . S
H234 C242 0.930 . S
H235 C243 0.930 . S
H236 C246 0.930 . S
H237 C247 0.930 . S
C238 H232 0.930 . S
C238 C239 1.355 . S
C238 C240 1.415 . S
C239 C238 1.355 . S
C239 C241 1.419 . S
C240 C238 1.415 . S
C240 C245 1.425 . S
C240 C247 1.409 . S
C241 H233 0.930 . S
C241 C239 1.419 . S
C241 C242 1.362 . S
C242 H234 0.930 . S
C242 C241 1.362 . S
C242 C245 1.409 . S
C243 H235 0.930 . S
C243 C244 1.355 . S
C243 C245 1.415 . S
C244 C243 1.355 . S
C244 C246 1.419 . S
C245 C240 1.425 . S
C245 C242 1.409 . S
C245 C243 1.415 . S
C246 H236 0.930 . S
C246 C244 1.419 . S
C246 C247 1.362 . S
C247 H237 0.930 . S
C247 C240 1.409 . S
C247 C246 1.362 . S
H248 C254 0.930 . S
H249 C257 0.930 . S
H250 C258 0.930 . S
H251 C259 0.930 . S
H252 C262 0.930 . S
H253 C263 0.930 . S
C254 H248 0.930 . S
C254 C255 1.355 . S
C254 C256 1.415 . S
C255 C254 1.355 . S
C255 C257 1.419 . S
C256 C254 1.415 . S
C256 C261 1.425 . S
C256 C263 1.409 . S
C257 H249 0.930 . S
C257 C255 1.419 . S
C257 C258 1.362 . S
C258 H250 0.930 . S
C258 C257 1.362 . S
C258 C261 1.409 . S
C259 H251 0.930 . S
C259 C260 1.355 . S
C259 C261 1.415 . S
C260 C259 1.355 . S
C260 C262 1.419 . S
C261 C256 1.425 . S
C261 C258 1.409 . S
C261 C259 1.415 . S
C262 H252 0.930 . S
C262 C260 1.419 . S
C262 C263 1.362 . S
C263 H253 0.930 . S
C263 C256 1.409 . S
C263 C262 1.362 . S
H264 C270 0.930 . S
H265 C273 0.930 . S
H266 C274 0.930 . S
H267 C275 0.930 . S
H268 C278 0.930 . S
H269 C279 0.930 . S
C270 H264 0.930 . S
C270 C271 1.355 . S
C270 C272 1.415 . S
C271 C270 1.355 . S
C271 C273 1.419 . S
C272 C270 1.415 . S
C272 C277 1.425 . S
C272 C279 1.409 . S
C273 H265 0.930 . S
C273 C271 1.419 . S
C273 C274 1.362 . S
C274 H266 0.930 . S
C274 C273 1.362 . S
C274 C277 1.409 . S
C275 H267 0.930 . S
C275 C276 1.355 . S
C275 C277 1.415 . S
C276 C275 1.355 . S
C276 C278 1.419 . S
C277 C272 1.425 . S
C277 C274 1.409 . S
C277 C275 1.415 . S
C278 H268 0.930 . S
C278 C276 1.419 . S
C278 C279 1.362 . S
C279 H269 0.930 . S
C279 C272 1.409 . S
C279 C278 1.362 . S
H280 C286 0.930 . S
H281 C289 0.930 . S
H282 C290 0.930 . S
H283 C291 0.930 . S
H284 C294 0.930 . S
H285 C295 0.930 . S
C286 H280 0.930 . S
C286 C287 1.355 . S
C286 C288 1.415 . S
C287 C286 1.355 . S
C287 C289 1.419 . S
C288 C286 1.415 . S
C288 C293 1.425 . S
C288 C295 1.409 . S
C289 H281 0.930 . S
C289 C287 1.419 . S
C289 C290 1.362 . S
C290 H282 0.930 . S
C290 C289 1.362 . S
C290 C293 1.409 . S
C291 H283 0.930 . S
C291 C292 1.355 . S
C291 C293 1.415 . S
C292 C291 1.355 . S
C292 C294 1.419 . S
C293 C288 1.425 . S
C293 C290 1.409 . S
C293 C291 1.415 . S
C294 H284 0.930 . S
C294 C292 1.419 . S
C294 C295 1.362 . S
C295 H285 0.930 . S
C295 C288 1.409 . S
C295 C294 1.362 . S
H296 C302 0.930 . S
H297 C305 0.930 . S
H298 C306 0.930 . S
H299 C307 0.930 . S
H300 C310 0.930 . S
H301 C311 0.930 . S
C302 H296 0.930 . S
C302 C303 1.355 . S
C302 C304 1.415 . S
C303 C302 1.355 . S
C303 C305 1.419 . S
C304 C302 1.415 . S
C304 C309 1.425 . S
C304 C311 1.409 . S
C305 H297 0.930 . S
C305 C303 1.419 . S
C305 C306 1.362 . S
C306 H298 0.930 . S
C306 C305 1.362 . S
C306 C309 1.409 . S
C307 H299 0.930 . S
C307 C308 1.355 . S
C307 C309 1.415 . S
C308 C307 1.355 . S
C308 C310 1.419 . S
C309 C304 1.425 . S
C309 C306 1.409 . S
C309 C307 1.415 . S
C310 H300 0.930 . S
C310 C308 1.419 . S
C310 C311 1.362 . S
C311 H301 0.930 . S
C311 C304 1.409 . S
C311 C310 1.362 . S
H312 C318 0.930 . S
H313 C321 0.930 . S
H314 C322 0.930 . S
H315 C323 0.930 . S
H316 C326 0.930 . S
H317 C327 0.930 . S
C318 H312 0.930 . S
C318 C319 1.355 . S
C318 C320 1.415 . S
C319 C318 1.355 . S
C319 C321 1.419 . S
C320 C318 1.415 . S
C320 C325 1.425 . S
C320 C327 1.409 . S
C321 H313 0.930 . S
C321 C319 1.419 . S
C321 C322 1.362 . S
C322 H314 0.930 . S
C322 C321 1.362 . S
C322 C325 1.409 . S
C323 H315 0.930 . S
C323 C324 1.355 . S
C323 C325 1.415 . S
C324 C323 1.355 . S
C324 C326 1.419 . S
C325 C320 1.425 . S
C325 C322 1.409 . S
C325 C323 1.415 . S
C326 H316 0.930 . S
C326 C324 1.419 . S
C326 C327 1.362 . S
C327 H317 0.930 . S
C327 C320 1.409 . S
C327 C326 1.362 . S
H328 C334 0.930 . S
H329 C337 0.930 . S
H330 C338 0.930 . S
H331 C339 0.930 . S
H332 C342 0.930 1_554 S
H333 C343 0.930 . S
C334 H328 0.930 . S
C334 C335 1.355 . S
C334 C336 1.415 . S
C335 C334 1.355 . S
C335 C337 1.419 . S
C336 C334 1.415 . S
C336 C341 1.425 . S
C336 C343 1.409 . S
C337 H329 0.930 . S
C337 C335 1.419 . S
C337 C338 1.362 . S
C338 H330 0.930 . S
C338 C337 1.362 . S
C338 C341 1.409 . S
C339 H331 0.930 . S
C339 C340 1.355 . S
C339 C341 1.415 . S
C340 C339 1.355 . S
C340 C342 1.419 . S
C341 C336 1.425 . S
C341 C338 1.409 . S
C341 C339 1.415 . S
C342 H332 0.930 1_556 S
C342 C340 1.419 . S
C342 C343 1.362 . S
C343 H333 0.930 . S
C343 C336 1.409 . S
C343 C342 1.362 . S
H344 C350 0.930 . S
H345 C353 0.930 . S
H346 C354 0.930 . S
H347 C355 0.930 . S
H348 C358 0.930 . S
H349 C359 0.930 . S
C350 H344 0.930 . S
C350 C351 1.355 . S
C350 C352 1.415 . S
C351 C350 1.355 . S
C351 C353 1.419 . S
C352 C350 1.415 . S
C352 C357 1.425 . S
C352 C359 1.409 . S
C353 H345 0.930 . S
C353 C351 1.419 . S
C353 C354 1.362 . S
C354 H346 0.930 . S
C354 C353 1.362 . S
C354 C357 1.409 . S
C355 H347 0.930 . S
C355 C356 1.355 . S
C355 C357 1.415 . S
C356 C355 1.355 . S
C356 C358 1.419 . S
C357 C352 1.425 . S
C357 C354 1.409 . S
C357 C355 1.415 . S
C358 H348 0.930 . S
C358 C356 1.419 . S
C358 C359 1.362 . S
C359 H349 0.930 . S
C359 C352 1.409 . S
C359 C358 1.362 . S
H360 C366 0.930 . S
H361 C369 0.930 . S
H362 C370 0.930 . S
H363 C371 0.930 . S
H364 C374 0.930 . S
H365 C375 0.930 . S
C366 H360 0.930 . S
C366 C367 1.355 . S
C366 C368 1.415 . S
C367 C366 1.355 . S
C367 C369 1.419 . S
C368 C366 1.415 . S
C368 C373 1.425 . S
C368 C375 1.409 . S
C369 H361 0.930 . S
C369 C367 1.419 . S
C369 C370 1.362 . S
C370 H362 0.930 . S
C370 C369 1.362 . S
C370 C373 1.409 . S
C371 H363 0.930 . S
C371 C372 1.355 . S
C371 C373 1.415 . S
C372 C371 1.355 . S
C372 C374 1.419 . S
C373 C368 1.425 . S
C373 C370 1.409 . S
C373 C371 1.415 . S
C374 H364 0.930 . S
C374 C372 1.419 . S
C374 C375 1.362 . S
C375 H365 0.930 . S
C375 C368 1.409 . S
C375 C374 1.362 . S
H376 C382 0.930 . S
H377 C385 0.930 . S
H378 C386 0.930 . S
H379 C387 0.930 . S
H380 C390 0.930 . S
H381 C391 0.930 . S
C382 H376 0.930 . S
C382 C383 1.355 . S
C382 C384 1.415 . S
C383 C382 1.355 . S
C383 C385 1.419 . S
C384 C382 1.415 . S
C384 C389 1.425 . S
C384 C391 1.409 . S
C385 H377 0.930 . S
C385 C383 1.419 . S
C385 C386 1.362 . S
C386 H378 0.930 . S
C386 C385 1.362 . S
C386 C389 1.409 . S
C387 H379 0.930 . S
C387 C388 1.355 . S
C387 C389 1.415 . S
C388 C387 1.355 . S
C388 C390 1.419 . S
C389 C384 1.425 . S
C389 C386 1.409 . S
C389 C387 1.415 . S
C390 H380 0.930 . S
C390 C388 1.419 . S
C390 C391 1.362 . S
C391 H381 0.930 . S
C391 C384 1.409 . S
C391 C390 1.362 . S
H392 C398 0.930 . S
H393 C401 0.930 . S
H394 C402 0.930 . S
H395 C403 0.930 . S
H396 C406 0.930 . S
H397 C407 0.930 . S
C398 H392 0.930 . S
C398 C399 1.355 . S
C398 C400 1.415 . S
C399 C398 1.355 . S
C399 C401 1.419 . S
C400 C398 1.415 . S
C400 C405 1.425 . S
C400 C407 1.409 . S
C401 H393 0.930 . S
C401 C399 1.419 . S
C401 C402 1.362 . S
C402 H394 0.930 . S
C402 C401 1.362 . S
C402 C405 1.409 . S
C403 H395 0.930 . S
C403 C404 1.355 . S
C403 C405 1.415 . S
C404 C403 1.355 . S
C404 C406 1.419 . S
C405 C400 1.425 . S
C405 C402 1.409 . S
C405 C403 1.415 . S
C406 H396 0.930 . S
C406 C404 1.419 . S
C406 C407 1.362 . S
C407 H397 0.930 . S
C407 C400 1.409 . S
C407 C406 1.362 . S
H408 C414 0.930 . S
H409 C417 0.930 . S
H410 C418 0.930 . S
H411 C419 0.930 . S
H412 C422 0.930 . S
H413 C423 0.930 . S
C414 H408 0.930 . S
C414 C415 1.355 . S
C414 C416 1.415 . S
C415 C414 1.355 . S
C415 C417 1.419 . S
C416 C414 1.415 . S
C416 C421 1.425 . S
C416 C423 1.409 . S
C417 H409 0.930 . S
C417 C415 1.419 . S
C417 C418 1.362 . S
C418 H410 0.930 . S
C418 C417 1.362 . S
C418 C421 1.409 . S
C419 H411 0.930 . S
C419 C420 1.355 . S
C419 C421 1.415 . S
C420 C419 1.355 . S
C420 C422 1.419 . S
C421 C416 1.425 . S
C421 C418 1.409 . S
C421 C419 1.415 . S
C422 H412 0.930 . S
C422 C420 1.419 . S
C422 C423 1.362 . S
C423 H413 0.930 . S
C423 C416 1.409 . S
C423 C422 1.362 . S
H424 C430 0.930 . S
H425 C433 0.930 . S
H426 C434 0.930 . S
H427 C435 0.930 . S
H428 C438 0.930 . S
H429 C439 0.930 . S
C430 H424 0.930 . S
C430 C431 1.355 . S
C430 C432 1.415 . S
C431 C430 1.355 . S
C431 C433 1.419 . S
C432 C430 1.415 . S
C432 C437 1.425 . S
C432 C439 1.409 . S
C433 H425 0.930 . S
C433 C431 1.419 . S
C433 C434 1.362 . S
C434 H426 0.930 . S
C434 C433 1.362 . S
C434 C437 1.409 . S
C435 H427 0.930 . S
C435 C436 1.355 . S
C435 C437 1.415 . S
C436 C435 1.355 . S
C436 C438 1.419 . S
C437 C432 1.425 . S
C437 C434 1.409 . S
C437 C435 1.415 . S
C438 H428 0.930 . S
C438 C436 1.419 . S
C438 C439 1.362 . S
C439 H429 0.930 . S
C439 C432 1.409 . S
C439 C438 1.362 . S
H440 C446 0.930 . S
H441 C449 0.930 . S
H442 C450 0.930 . S
H443 C451 0.930 . S
H444 C454 0.930 . S
H445 C455 0.930 . S
C446 H440 0.930 . S
C446 C447 1.355 . S
C446 C448 1.415 . S
C447 C446 1.355 . S
C447 C449 1.419 . S
C448 C446 1.415 . S
C448 C453 1.425 . S
C448 C455 1.409 . S
C449 H441 0.930 . S
C449 C447 1.419 . S
C449 C450 1.362 . S
C450 H442 0.930 . S
C450 C449 1.362 . S
C450 C453 1.409 . S
C451 H443 0.930 . S
C451 C452 1.355 . S
C451 C453 1.415 . S
C452 C451 1.355 . S
C452 C454 1.419 . S
C453 C448 1.425 . S
C453 C450 1.409 . S
C453 C451 1.415 . S
C454 H444 0.930 . S
C454 C452 1.419 . S
C454 C455 1.362 . S
C455 H445 0.930 . S
C455 C448 1.409 . S
C455 C454 1.362 . S
H456 C462 0.930 . S
H457 C465 0.930 . S
H458 C466 0.930 . S
H459 C467 0.930 . S
H460 C470 0.930 . S
H461 C471 0.930 . S
C462 H456 0.930 . S
C462 C463 1.355 . S
C462 C464 1.415 . S
C463 C462 1.355 . S
C463 C465 1.419 . S
C464 C462 1.415 . S
C464 C469 1.425 . S
C464 C471 1.409 . S
C465 H457 0.930 . S
C465 C463 1.419 . S
C465 C466 1.362 . S
C466 H458 0.930 . S
C466 C465 1.362 . S
C466 C469 1.409 . S
C467 H459 0.930 . S
C467 C468 1.355 . S
C467 C469 1.415 . S
C468 C467 1.355 . S
C468 C470 1.419 . S
C469 C464 1.425 . S
C469 C466 1.409 . S
C469 C467 1.415 . S
C470 H460 0.930 . S
C470 C468 1.419 . S
C470 C471 1.362 . S
C471 H461 0.930 . S
C471 C464 1.409 . S
C471 C470 1.362 . S
H472 C478 0.930 . S
H473 C481 0.930 . S
H474 C482 0.930 . S
H475 C483 0.930 . S
H476 C486 0.930 . S
H477 C487 0.930 . S
C478 H472 0.930 . S
C478 C479 1.355 . S
C478 C480 1.415 . S
C479 C478 1.355 . S
C479 C481 1.419 . S
C480 C478 1.415 . S
C480 C485 1.425 . S
C480 C487 1.409 . S
C481 H473 0.930 . S
C481 C479 1.419 . S
C481 C482 1.362 . S
C482 H474 0.930 . S
C482 C481 1.362 . S
C482 C485 1.409 . S
C483 H475 0.930 . S
C483 C484 1.355 . S
C483 C485 1.415 . S
C484 C483 1.355 . S
C484 C486 1.419 . S
C485 C480 1.425 . S
C485 C482 1.409 . S
C485 C483 1.415 . S
C486 H476 0.930 . S
C486 C484 1.419 . S
C486 C487 1.362 . S
C487 H477 0.930 . S
C487 C480 1.409 . S
C487 C486 1.362 . S
H488 C494 0.930 . S
H489 C497 0.930 . S
H490 C498 0.930 . S
H491 C499 0.930 . S
H492 C502 0.930 . S
H493 C503 0.930 . S
C494 H488 0.930 . S
C494 C495 1.355 . S
C494 C496 1.415 . S
C495 C494 1.355 . S
C495 C497 1.419 . S
C496 C494 1.415 . S
C496 C501 1.425 . S
C496 C503 1.409 . S
C497 H489 0.930 . S
C497 C495 1.419 . S
C497 C498 1.362 . S
C498 H490 0.930 . S
C498 C497 1.362 . S
C498 C501 1.409 . S
C499 H491 0.930 . S
C499 C500 1.355 . S
C499 C501 1.415 . S
C500 C499 1.355 . S
C500 C502 1.419 . S
C501 C496 1.425 . S
C501 C498 1.409 . S
C501 C499 1.415 . S
C502 H492 0.930 . S
C502 C500 1.419 . S
C502 C503 1.362 . S
C503 H493 0.930 . S
C503 C496 1.409 . S
C503 C502 1.362 . S
H504 C510 0.930 . S
H505 C513 0.930 . S
H506 C514 0.930 1_455 S
H507 C515 0.930 . S
H508 C518 0.930 . S
H509 C519 0.930 . S
C510 H504 0.930 . S
C510 C511 1.355 . S
C510 C512 1.415 . S
C511 C510 1.355 . S
C511 C513 1.419 . S
C512 C510 1.415 . S
C512 C517 1.425 . S
C512 C519 1.409 . S
C513 H505 0.930 . S
C513 C511 1.419 . S
C513 C514 1.362 . S
C514 H506 0.930 1_655 S
C514 C513 1.362 . S
C514 C517 1.409 . S
C515 H507 0.930 . S
C515 C516 1.355 . S
C515 C517 1.415 . S
C516 C515 1.355 . S
C516 C518 1.419 . S
C517 C512 1.425 . S
C517 C514 1.409 . S
C517 C515 1.415 . S
C518 H508 0.930 . S
C518 C516 1.419 . S
C518 C519 1.362 . S
C519 H509 0.930 . S
C519 C512 1.409 . S
C519 C518 1.362 . S
H520 C526 0.930 . S
H521 C529 0.930 . S
H522 C530 0.930 . S
H523 C531 0.930 . S
H524 C534 0.930 . S
H525 C535 0.930 . S
C526 H520 0.930 . S
C526 C527 1.355 . S
C526 C528 1.415 . S
C527 C526 1.355 . S
C527 C529 1.419 . S
C528 C526 1.415 . S
C528 C533 1.425 . S
C528 C535 1.409 . S
C529 H521 0.930 . S
C529 C527 1.419 . S
C529 C530 1.362 . S
C530 H522 0.930 . S
C530 C529 1.362 . S
C530 C533 1.409 . S
C531 H523 0.930 . S
C531 C532 1.355 . S
C531 C533 1.415 . S
C532 C531 1.355 . S
C532 C534 1.419 . S
C533 C528 1.425 . S
C533 C530 1.409 . S
C533 C531 1.415 . S
C534 H524 0.930 . S
C534 C532 1.419 . S
C534 C535 1.362 . S
C535 H525 0.930 . S
C535 C528 1.409 . S
C535 C534 1.362 . S
H536 C542 0.930 . S
H537 C545 0.930 . S
H538 C546 0.930 . S
H539 C547 0.930 . S
H540 C550 0.930 . S
H541 C551 0.930 . S
C542 H536 0.930 . S
C542 C543 1.355 . S
C542 C544 1.415 . S
C543 C542 1.355 . S
C543 C545 1.419 . S
C544 C542 1.415 . S
C544 C549 1.425 . S
C544 C551 1.409 . S
C545 H537 0.930 . S
C545 C543 1.419 . S
C545 C546 1.362 . S
C546 H538 0.930 . S
C546 C545 1.362 . S
C546 C549 1.409 . S
C547 H539 0.930 . S
C547 C548 1.355 . S
C547 C549 1.415 . S
C548 C547 1.355 . S
C548 C550 1.419 . S
C549 C544 1.425 . S
C549 C546 1.409 . S
C549 C547 1.415 . S
C550 H540 0.930 . S
C550 C548 1.419 . S
C550 C551 1.362 . S
C551 H541 0.930 . S
C551 C544 1.409 . S
C551 C550 1.362 . S
H552 C558 0.930 . S
H553 C561 0.930 . S
H554 C562 0.930 . S
H555 C563 0.930 . S
H556 C566 0.930 . S
H557 C567 0.930 . S
C558 H552 0.930 . S
C558 C559 1.355 . S
C558 C560 1.415 . S
C559 C558 1.355 . S
C559 C561 1.419 . S
C560 C558 1.415 . S
C560 C565 1.425 . S
C560 C567 1.409 . S
C561 H553 0.930 . S
C561 C559 1.419 . S
C561 C562 1.362 . S
C562 H554 0.930 . S
C562 C561 1.362 . S
C562 C565 1.409 . S
C563 H555 0.930 . S
C563 C564 1.355 . S
C563 C565 1.415 . S
C564 C563 1.355 . S
C564 C566 1.419 . S
C565 C560 1.425 . S
C565 C562 1.409 . S
C565 C563 1.415 . S
C566 H556 0.930 . S
C566 C564 1.419 . S
C566 C567 1.362 . S
C567 H557 0.930 . S
C567 C560 1.409 . S
C567 C566 1.362 . S
H568 C574 0.930 . S
H569 C577 0.930 . S
H570 C578 0.930 . S
H571 C579 0.930 . S
H572 C582 0.930 . S
H573 C583 0.930 . S
C574 H568 0.930 . S
C574 C575 1.355 . S
C574 C576 1.415 . S
C575 C574 1.355 . S
C575 C577 1.419 . S
C576 C574 1.415 . S
C576 C581 1.425 . S
C576 C583 1.409 . S
C577 H569 0.930 . S
C577 C575 1.419 . S
C577 C578 1.362 . S
C578 H570 0.930 . S
C578 C577 1.362 . S
C578 C581 1.409 . S
C579 H571 0.930 . S
C579 C580 1.355 . S
C579 C581 1.415 . S
C580 C579 1.355 . S
C580 C582 1.419 . S
C581 C576 1.425 . S
C581 C578 1.409 . S
C581 C579 1.415 . S
C582 H572 0.930 . S
C582 C580 1.419 . S
C582 C583 1.362 . S
C583 H573 0.930 . S
C583 C576 1.409 . S
C583 C582 1.362 . S
H584 C590 0.930 . S
H585 C593 0.930 . S
H586 C594 0.930 . S
H587 C595 0.930 . S
H588 C598 0.930 . S
H589 C599 0.930 . S
C590 H584 0.930 . S
C590 C591 1.355 . S
C590 C592 1.415 . S
C591 C590 1.355 . S
C591 C593 1.419 . S
C592 C590 1.415 . S
C592 C597 1.425 . S
C592 C599 1.409 . S
C593 H585 0.930 . S
C593 C591 1.419 . S
C593 C594 1.362 . S
C594 H586 0.930 . S
C594 C593 1.362 . S
C594 C597 1.409 . S
C595 H587 0.930 . S
C595 C596 1.355 . S
C595 C597 1.415 . S
C596 C595 1.355 . S
C596 C598 1.419 . S
C597 C592 1.425 . S
C597 C594 1.409 . S
C597 C595 1.415 . S
C598 H588 0.930 . S
C598 C596 1.419 . S
C598 C599 1.362 . S
C599 H589 0.930 . S
C599 C592 1.409 . S
C599 C598 1.362 . S
H600 C606 0.930 . S
H601 C609 0.930 . S
H602 C610 0.930 . S
H603 C611 0.930 . S
H604 C614 0.930 . S
H605 C615 0.930 . S
C606 H600 0.930 . S
C606 C607 1.355 . S
C606 C608 1.415 . S
C607 C606 1.355 . S
C607 C609 1.419 . S
C608 C606 1.415 . S
C608 C613 1.425 . S
C608 C615 1.409 . S
C609 H601 0.930 . S
C609 C607 1.419 . S
C609 C610 1.362 . S
C610 H602 0.930 . S
C610 C609 1.362 . S
C610 C613 1.409 . S
C611 H603 0.930 . S
C611 C612 1.355 . S
C611 C613 1.415 . S
C612 C611 1.355 . S
C612 C614 1.419 . S
C613 C608 1.425 . S
C613 C610 1.409 . S
C613 C611 1.415 . S
C614 H604 0.930 . S
C614 C612 1.419 . S
C614 C615 1.362 . S
C615 H605 0.930 . S
C615 C608 1.409 . S
C615 C614 1.362 . S
C239 C5 0.857 . S
C244 C76 0.855 . S
C255 C14 0.986 . S
C260 C137 1.008 . S
C276 C175 2.548 . S
C271 C25 2.596 . S
C287 C34 2.430 . S
C292 C215 2.374 . S
C308 C135 1.119 . S
C303 C7 1.043 . S
C324 C103 1.765 . S
C319 C13 1.681 . S
C340 C212 1.818 . S
C335 C23 1.834 . S
C356 C172 1.896 . S
C351 C31 1.936 . S
C367 C4 1.030 . S
C372 C217 1.053 . S
C388 C132 2.365 . S
C383 C22 2.372 . S
C399 C32 2.261 . S
C404 C74 2.224 . S
C415 C16 1.204 . S
C420 C177 1.273 . S
C436 C97 0.866 . S
C431 C41 0.875 . S
C447 C50 1.031 . S
C452 C116 0.996 . S
C463 C61 2.590 . S
C468 C154 2.548 . S
C479 C67 2.433 . S
C484 C194 2.382 . S
C495 C40 1.079 . S
C500 C114 1.161 . S
C516 C92 1.751 . S
C511 C52 1.688 . S
C532 C223 1.806 . S
C527 C59 1.839 . S
C548 C183 1.907 . S
C543 C70 1.937 . S
C559 C43 1.016 . S
C564 C196 1.055 . S
C580 C143 2.374 . S
C575 C58 2.382 . S
C596 C95 2.191 . S
C591 C68 2.241 . S
C607 C49 1.213 . S
C612 C156 1.277 . S
