# Generated by pormake.
# Topology the, (3,8)-cn, num edge types: 1
# Building blocks:
#     Node 0, Type 0, BuildingBlock: BETDAH_clean_linker_0, # of connection points: 3
#     Node 1, Type 0, BuildingBlock: BETDAH_clean_linker_0, # of connection points: 3
#     Node 2, Type 0, BuildingBlock: BETDAH_clean_linker_0, # of connection points: 3
#     Node 3, Type 0, BuildingBlock: BETDAH_clean_linker_0, # of connection points: 3
#     Node 4, Type 0, BuildingBlock: BETDAH_clean_linker_0, # of connection points: 3
#     Node 5, Type 0, BuildingBlock: BETDAH_clean_linker_0, # of connection points: 3
#     Node 6, Type 0, BuildingBlock: BETDAH_clean_linker_0, # of connection points: 3
#     Node 7, Type 0, BuildingBlock: BETDAH_clean_linker_0, # of connection points: 3
#     Node 8, Type 1, BuildingBlock: GIZVER_clean_sbu_0, # of connection points: 8
#     Node 9, Type 1, BuildingBlock: GIZVER_clean_sbu_0, # of connection points: 8
#     Node 10, Type 1, BuildingBlock: GIZVER_clean_sbu_0, # of connection points: 8
#     Edge 11, Type (0, 1), BuildingBlock: MIFKUJ_clean_linker_0, # of connection points: 2
#     Edge 12, Type (0, 1), BuildingBlock: MIFKUJ_clean_linker_0, # of connection points: 2
#     Edge 13, Type (0, 1), BuildingBlock: MIFKUJ_clean_linker_0, # of connection points: 2
#     Edge 14, Type (0, 1), BuildingBlock: MIFKUJ_clean_linker_0, # of connection points: 2
#     Edge 15, Type (0, 1), BuildingBlock: MIFKUJ_clean_linker_0, # of connection points: 2
#     Edge 16, Type (0, 1), BuildingBlock: MIFKUJ_clean_linker_0, # of connection points: 2
#     Edge 17, Type (0, 1), BuildingBlock: MIFKUJ_clean_linker_0, # of connection points: 2
#     Edge 18, Type (0, 1), BuildingBlock: MIFKUJ_clean_linker_0, # of connection points: 2
#     Edge 19, Type (0, 1), BuildingBlock: MIFKUJ_clean_linker_0, # of connection points: 2
#     Edge 20, Type (0, 1), BuildingBlock: MIFKUJ_clean_linker_0, # of connection points: 2
#     Edge 21, Type (0, 1), BuildingBlock: MIFKUJ_clean_linker_0, # of connection points: 2
#     Edge 22, Type (0, 1), BuildingBlock: MIFKUJ_clean_linker_0, # of connection points: 2
#     Edge 23, Type (0, 1), BuildingBlock: MIFKUJ_clean_linker_0, # of connection points: 2
#     Edge 24, Type (0, 1), BuildingBlock: MIFKUJ_clean_linker_0, # of connection points: 2
#     Edge 25, Type (0, 1), BuildingBlock: MIFKUJ_clean_linker_0, # of connection points: 2
#     Edge 26, Type (0, 1), BuildingBlock: MIFKUJ_clean_linker_0, # of connection points: 2
#     Edge 27, Type (0, 1), BuildingBlock: MIFKUJ_clean_linker_0, # of connection points: 2
#     Edge 28, Type (0, 1), BuildingBlock: MIFKUJ_clean_linker_0, # of connection points: 2
#     Edge 29, Type (0, 1), BuildingBlock: MIFKUJ_clean_linker_0, # of connection points: 2
#     Edge 30, Type (0, 1), BuildingBlock: MIFKUJ_clean_linker_0, # of connection points: 2
#     Edge 31, Type (0, 1), BuildingBlock: MIFKUJ_clean_linker_0, # of connection points: 2
#     Edge 32, Type (0, 1), BuildingBlock: MIFKUJ_clean_linker_0, # of connection points: 2
#     Edge 33, Type (0, 1), BuildingBlock: MIFKUJ_clean_linker_0, # of connection points: 2
#     Edge 34, Type (0, 1), BuildingBlock: MIFKUJ_clean_linker_0, # of connection points: 2
# Relax obj value: 0.072
# Max RMSD: 0.193
# Mean RMSD: 0.136
data_MOF--net-the--node1-GIZVER_clean_sbu_0--node2-BETDAH_clean_linker_0--edge1-MIFKUJ_clean_linker_0
_symmetry_space_group_name_H-M    P1
_symmetry_Int_Tables_number       1
_symmetry_cell_setting            triclinic
loop_
_symmetry_equiv_pos_as_xyz
'x, y, z'
_cell_length_a     51.999394
_cell_length_b     49.420286
_cell_length_c     47.299099
_cell_angle_alpha  87.154366
_cell_angle_beta   94.306481
_cell_angle_gamma 107.23493
loop_
_atom_site_label
_atom_site_type_symbol
_atom_site_fract_x
_atom_site_fract_y
_atom_site_fract_z
_atom_type_partial_charge
H0 H 0.38685 0.29943 0.34282 0.0
H1 H 0.32634 0.2697 0.40317 0.0
H2 H 0.32088 0.33584 0.34273 0.0
C3 C 0.36857 0.30069 0.35157 0.0
C4 C 0.35497 0.31966 0.3394 0.0
C5 C 0.35828 0.28252 0.3744 0.0
C6 C 0.33457 0.28382 0.38564 0.0
C7 C 0.32158 0.30357 0.37502 0.0
C8 C 0.33174 0.32155 0.35183 0.0
N9 N 0.29757 0.30352 0.3874 0.0
C10 C 0.2875 0.32657 0.38762 0.0
H11 H 0.75369 0.2845 0.3484 0.0
H12 H 0.78805 0.3359 0.27688 0.0
H13 H 0.71079 0.27378 0.26599 0.0
C14 C 0.75197 0.29081 0.32625 0.0
C15 C 0.72936 0.27632 0.30881 0.0
C16 C 0.77315 0.31253 0.31508 0.0
C17 C 0.77181 0.31941 0.28598 0.0
C18 C 0.74928 0.30582 0.26846 0.0
C19 C 0.72796 0.28446 0.27985 0.0
N20 N 0.7495 0.31259 0.23902 0.0
C21 C 0.72903 0.32078 0.22376 0.0
H22 H 0.74296 0.64082 0.31751 0.0
H23 H 0.77271 0.71073 0.3736 0.0
H24 H 0.70512 0.70787 0.315 0.0
C25 C 0.74161 0.66044 0.32557 0.0
C26 C 0.72193 0.67269 0.31314 0.0
C27 C 0.7599 0.67356 0.34784 0.0
C28 C 0.75821 0.69941 0.35741 0.0
C29 C 0.73831 0.7115 0.34628 0.0
C30 C 0.7201 0.69815 0.3241 0.0
N31 N 0.73901 0.73818 0.35683 0.0
C32 C 0.7176 0.74961 0.35764 0.0
H33 H 0.31953 0.71788 0.3529 0.0
H34 H 0.39327 0.70023 0.33717 0.0
H35 H 0.31851 0.63403 0.33022 0.0
C36 C 0.32984 0.70333 0.34635 0.0
C37 C 0.31521 0.67487 0.34137 0.0
C38 C 0.358 0.71267 0.34503 0.0
C39 C 0.37146 0.69358 0.3375 0.0
C40 C 0.35708 0.66561 0.33123 0.0
C41 C 0.32906 0.65626 0.33318 0.0
N42 N 0.37137 0.64597 0.32732 0.0
C43 C 0.37312 0.63606 0.30082 0.0
H44 H 0.34127 0.73052 0.68031 0.0
H45 H 0.33586 0.64788 0.71695 0.0
H46 H 0.40786 0.71606 0.73269 0.0
C47 C 0.34971 0.71687 0.69427 0.0
C48 C 0.37611 0.72746 0.70677 0.0
C49 C 0.33473 0.68829 0.69795 0.0
C50 C 0.34671 0.67011 0.71405 0.0
C51 C 0.37286 0.68001 0.72645 0.0
C52 C 0.38744 0.70875 0.72331 0.0
N53 N 0.38517 0.65969 0.73829 0.0
C54 C 0.39825 0.66088 0.76508 0.0
H55 H 0.41787 0.29137 0.72417 0.0
H56 H 0.35711 0.33553 0.71334 0.0
H57 H 0.36048 0.27564 0.65226 0.0
C58 C 0.40081 0.29563 0.71226 0.0
C59 C 0.39103 0.2815 0.68674 0.0
C60 C 0.38887 0.31538 0.72225 0.0
C61 C 0.36639 0.32031 0.70636 0.0
C62 C 0.35622 0.30584 0.6811 0.0
C63 C 0.36864 0.28672 0.67166 0.0
N64 N 0.33362 0.30949 0.66414 0.0
C65 C 0.31866 0.32803 0.66808 0.0
H66 H 0.77951 0.30511 0.67056 0.0
H67 H 0.78804 0.35125 0.74758 0.0
H68 H 0.71913 0.27935 0.73154 0.0
C69 C 0.77234 0.30798 0.69079 0.0
C70 C 0.74771 0.28954 0.69894 0.0
C71 C 0.78743 0.33026 0.7082 0.0
C72 C 0.77673 0.33459 0.73357 0.0
C73 C 0.75193 0.31635 0.7417 0.0
C74 C 0.73788 0.29372 0.72465 0.0
N75 N 0.74112 0.31926 0.7676 0.0
C76 C 0.74314 0.34512 0.77923 0.0
H77 H 0.76765 0.63501 0.6889 0.0
H78 H 0.76372 0.67566 0.60706 0.0
H79 H 0.71051 0.68247 0.6697 0.0
C80 C 0.75876 0.6479 0.67438 0.0
C81 C 0.73763 0.65758 0.68276 0.0
C82 C 0.76812 0.65414 0.64707 0.0
C83 C 0.75662 0.67068 0.62822 0.0
C84 C 0.73646 0.68154 0.63639 0.0
C85 C 0.72689 0.67502 0.66374 0.0
N86 N 0.72577 0.69788 0.61583 0.0
C87 C 0.71088 0.71603 0.6211 0.0
Co88 Co 0.09858 0.48651 0.53594 0.0
Co89 Co 0.06887 0.4693 0.48946 0.0
Co90 Co 0.04404 0.51089 0.51795 0.0
O91 O 0.0606 0.47895 0.52465 0.0
H92 H 0.04916 0.46274 0.53447 0.0
O93 O 0.02766 0.5429 0.51093 0.0
Co94 Co 0.9901 0.5355 0.49859 0.0
Co95 Co 0.01878 0.55316 0.54508 0.0
H96 H 0.03928 0.55904 0.50118 0.0
O97 O 0.07602 0.4356 0.48333 0.0
O98 O 0.10584 0.47651 0.49775 0.0
O99 O 0.06521 0.49357 0.45697 0.0
O100 O 0.06695 0.52847 0.48531 0.0
O101 O 0.01581 0.4864 0.49147 0.0
O102 O 0.95638 0.53146 0.48513 0.0
O103 O 0.99194 0.57089 0.48439 0.0
O104 O 0.98321 0.4973 0.51083 0.0
O105 O 0.0212 0.49358 0.55099 0.0
O106 O 0.02353 0.52997 0.57773 0.0
O107 O 0.9818 0.54578 0.53632 0.0
O108 O 0.01152 0.58689 0.55062 0.0
C109 C 0.12323 0.46408 0.55522 0.0
C110 C 0.09733 0.54031 0.5403 0.0
C111 C 0.07114 0.51981 0.46156 0.0
C112 C 0.1008 0.45103 0.48828 0.0
C113 C 0.96657 0.55792 0.47762 0.0
C114 C 0.99077 0.48149 0.49498 0.0
C115 C 0.01789 0.50349 0.57451 0.0
C116 C 0.98678 0.57135 0.54561 0.0
O117 O 0.13272 0.49066 0.54775 0.0
O118 O 0.09755 0.45116 0.54996 0.0
O119 O 0.07237 0.53533 0.54427 0.0
O120 O 0.10475 0.52466 0.52409 0.0
Co121 Co 0.56737 0.95421 0.50032 0.0
Co122 Co 0.58569 0.98104 0.54722 0.0
Co123 Co 0.54441 0.00982 0.51476 0.0
O124 O 0.57491 0.99293 0.51167 0.0
H125 H 0.59008 0.00571 0.50262 0.0
O126 O 0.51406 0.02689 0.51734 0.0
Co127 Co 0.52111 0.0657 0.52853 0.0
Co128 Co 0.50483 0.03929 0.4813 0.0
H129 H 0.49857 0.01397 0.52577 0.0
O130 O 0.6184 0.97307 0.55526 0.0
O131 O 0.57916 0.94306 0.5388 0.0
O132 O 0.56313 0.98143 0.5774 0.0
O133 O 0.52844 0.98405 0.54798 0.0
O134 O 0.56812 0.03846 0.54105 0.0
O135 O 0.52524 0.10033 0.54046 0.0
O136 O 0.48812 0.0628 0.54171 0.0
O137 O 0.55703 0.0739 0.51824 0.0
O138 O 0.56088 0.03558 0.48217 0.0
O139 O 0.5282 0.03989 0.45092 0.0
O140 O 0.50888 0.07686 0.48963 0.0
O141 O 0.47142 0.04403 0.47249 0.0
C142 C 0.58773 0.93042 0.48161 0.0
C143 C 0.51624 0.95483 0.49335 0.0
C144 C 0.53797 0.97696 0.57207 0.0
C145 C 0.60398 0.94754 0.54895 0.0
C146 C 0.5007 0.08916 0.54796 0.0
C147 C 0.57294 0.06497 0.53546 0.0
C148 C 0.55294 0.04301 0.45764 0.0
C149 C 0.48418 0.07021 0.47826 0.0
O150 O 0.56295 0.91946 0.48848 0.0
O151 O 0.60017 0.95693 0.4873 0.0
O152 O 0.52054 0.9813 0.48812 0.0
O153 O 0.53195 0.94649 0.51118 0.0
Co154 Co 0.51417 0.50405 0.07346 0.0
Co155 Co 0.50217 0.45463 0.05109 0.0
Co156 Co 0.5487 0.50045 0.01689 0.0
O157 O 0.51382 0.49124 0.03591 0.0
H158 H 0.49963 0.49514 0.02351 0.0
O159 O 0.58345 0.51011 0.99794 0.0
Co160 Co 0.58459 0.50004 0.95975 0.0
Co161 Co 0.59507 0.54834 0.98562 0.0
H162 H 0.59751 0.50578 0.01021 0.0
O163 O 0.46653 0.4371 0.0611 0.0
O164 O 0.5005 0.46475 0.08811 0.0
O165 O 0.52832 0.43422 0.05262 0.0
O166 O 0.56265 0.47103 0.03971 0.0
O167 O 0.5298 0.47149 0.98753 0.0
O168 O 0.58927 0.49024 0.9252 0.0
O169 O 0.61909 0.49954 0.96315 0.0
O170 O 0.54819 0.49851 0.95162 0.0
O171 O 0.53483 0.52947 0.99383 0.0
O172 O 0.5688 0.56874 0.98711 0.0
O173 O 0.59505 0.54029 0.94755 0.0
O174 O 0.63014 0.56733 0.97331 0.0
C175 C 0.48844 0.51754 0.09575 0.0
C176 C 0.56798 0.52291 0.07256 0.0
C177 C 0.55339 0.4459 0.05037 0.0
C178 C 0.47593 0.44819 0.08544 0.0
C179 C 0.61312 0.49175 0.93692 0.0
C180 C 0.52988 0.47753 0.96093 0.0
C181 C 0.54375 0.55563 0.98622 0.0
C182 C 0.61934 0.55744 0.94892 0.0
O183 O 0.51194 0.51726 0.10702 0.0
O184 O 0.48052 0.50794 0.07035 0.0
O185 O 0.56775 0.52953 0.04613 0.0
O186 O 0.54947 0.50206 0.08154 0.0
H187 H 0.30521 0.36968 0.42357 0.0
H188 H 0.27841 0.39853 0.44005 0.0
H189 H 0.21226 0.35738 0.38145 0.0
H190 H 0.23925 0.32888 0.36478 0.0
H191 H 0.21574 0.41302 0.3861 0.0
H192 H 0.21559 0.33294 0.44879 0.0
H193 H 0.2373 0.30314 0.4795 0.0
H194 H 0.27286 0.37302 0.53426 0.0
H195 H 0.25169 0.4034 0.50357 0.0
H196 H 0.09756 0.40847 0.45251 0.0
H197 H 0.13469 0.39432 0.43538 0.0
H198 H 0.19168 0.45607 0.48802 0.0
H199 H 0.15463 0.47095 0.50481 0.0
H200 H 0.19758 0.39688 0.48812 0.0
H201 H 0.19244 0.47548 0.42687 0.0
H202 H 0.16908 0.50342 0.3957 0.0
H203 H 0.14122 0.43441 0.33858 0.0
H204 H 0.16411 0.40587 0.36961 0.0
C205 C 0.28524 0.36752 0.41369 0.0
C206 C 0.27418 0.34739 0.39288 0.0
C207 C 0.2699 0.3838 0.42321 0.0
C208 C 0.24318 0.3798 0.41227 0.0
C209 C 0.23281 0.36084 0.39017 0.0
C210 C 0.24819 0.34462 0.38063 0.0
C211 C 0.22516 0.39319 0.42552 0.0
C212 C 0.21178 0.40947 0.40839 0.0
C213 C 0.22026 0.38894 0.45475 0.0
C214 C 0.23244 0.37056 0.47363 0.0
C215 C 0.2282 0.34201 0.46727 0.0
C216 C 0.24038 0.32501 0.48467 0.0
C217 C 0.25662 0.33625 0.50867 0.0
C218 C 0.26041 0.36441 0.51555 0.0
C219 C 0.24832 0.38152 0.49816 0.0
C220 C 0.11794 0.41892 0.46068 0.0
C221 C 0.12315 0.44089 0.48001 0.0
C222 C 0.13912 0.41087 0.45077 0.0
C223 C 0.16585 0.42433 0.4603 0.0
C224 C 0.17114 0.44553 0.48039 0.0
C225 C 0.14996 0.45399 0.48993 0.0
C226 C 0.18808 0.41635 0.4486 0.0
C227 C 0.20206 0.40094 0.46599 0.0
C228 C 0.19338 0.42123 0.41961 0.0
C229 C 0.17982 0.43843 0.4007 0.0
C230 C 0.18115 0.46616 0.40779 0.0
C231 C 0.16802 0.48213 0.39013 0.0
C232 C 0.15361 0.47067 0.36523 0.0
C233 C 0.15238 0.44325 0.35789 0.0
C234 C 0.16546 0.42718 0.37548 0.0
H235 H 0.14345 0.48307 0.3516 0.0
H236 H 0.26627 0.32313 0.5219 0.0
H237 H 0.70873 0.27075 0.36129 0.0
H238 H 0.67886 0.2283 0.38302 0.0
H239 H 0.67159 0.18386 0.30533 0.0
H240 H 0.70233 0.22591 0.28362 0.0
H241 H 0.62114 0.17518 0.33417 0.0
H242 H 0.71305 0.17086 0.35279 0.0
H243 H 0.76076 0.19077 0.36952 0.0
H244 H 0.73682 0.2011 0.45228 0.0
H245 H 0.68893 0.18158 0.43592 0.0
H246 H 0.55588 0.04329 0.39987 0.0
H247 H 0.5875 0.07869 0.37093 0.0
H248 H 0.62501 0.12295 0.44683 0.0
H249 H 0.59545 0.0863 0.47554 0.0
H250 H 0.66138 0.12983 0.41465 0.0
H251 H 0.57118 0.13743 0.39908 0.0
H252 H 0.52276 0.11754 0.38566 0.0
H253 H 0.54106 0.10634 0.30076 0.0
H254 H 0.58975 0.1248 0.31411 0.0
C255 C 0.70087 0.25198 0.34875 0.0
C256 C 0.7083 0.25175 0.32076 0.0
C257 C 0.68364 0.22779 0.36119 0.0
C258 C 0.67325 0.20289 0.34586 0.0
C259 C 0.6794 0.20291 0.31749 0.0
C260 C 0.69689 0.22705 0.30509 0.0
C261 C 0.65726 0.17648 0.36009 0.0
C262 C 0.62992 0.16497 0.35154 0.0
C263 C 0.66863 0.16363 0.38313 0.0
C264 C 0.69743 0.17491 0.39309 0.0
C265 C 0.71796 0.17752 0.37451 0.0
C266 C 0.74503 0.18871 0.38393 0.0
C267 C 0.75181 0.19721 0.41194 0.0
C268 C 0.73154 0.19448 0.4306 0.0
C269 C 0.70444 0.18332 0.42128 0.0
C270 C 0.57132 0.06031 0.41023 0.0
C271 C 0.57324 0.06213 0.43986 0.0
C272 C 0.58922 0.08072 0.39373 0.0
C273 C 0.60824 0.1042 0.40649 0.0
C274 C 0.61063 0.10526 0.43624 0.0
C275 C 0.59361 0.08428 0.45272 0.0
C276 C 0.62476 0.12849 0.38929 0.0
C277 C 0.65237 0.13974 0.39722 0.0
C278 C 0.61337 0.14156 0.36619 0.0
C279 C 0.58412 0.13215 0.35769 0.0
C280 C 0.56489 0.13062 0.37757 0.0
C281 C 0.53741 0.11944 0.37002 0.0
C282 C 0.52883 0.11068 0.34236 0.0
C283 C 0.54774 0.11307 0.3222 0.0
C284 C 0.57531 0.12372 0.32979 0.0
H285 H 0.50751 0.10208 0.33654 0.0
H286 H 0.77278 0.20589 0.41918 0.0
H287 H 0.78777 0.64256 0.32219 0.0
H288 H 0.82294 0.62302 0.34378 0.0
H289 H 0.817 0.65767 0.42393 0.0
H290 H 0.78061 0.6756 0.40334 0.0
H291 H 0.87337 0.66949 0.39932 0.0
H292 H 0.79201 0.59599 0.42447 0.0
H293 H 0.74821 0.56043 0.41369 0.0
H294 H 0.78591 0.5175 0.36038 0.0
H295 H 0.82986 0.55318 0.3704 0.0
H296 H 0.95857 0.60826 0.48993 0.0
H297 H 0.92404 0.6286 0.46781 0.0
H298 H 0.90078 0.56148 0.40739 0.0
H299 H 0.93355 0.54002 0.4312 0.0
H300 H 0.85859 0.56706 0.42117 0.0
H301 H 0.93843 0.63697 0.3925 0.0
H302 H 0.98328 0.67211 0.3984 0.0
H303 H 0.95126 0.72131 0.45077 0.0
H304 H 0.90627 0.68628 0.44546 0.0
C305 C 0.79342 0.64561 0.34455 0.0
C306 C 0.78115 0.66093 0.36084 0.0
C307 C 0.81379 0.63463 0.35677 0.0
C308 C 0.82268 0.63909 0.38539 0.0
C309 C 0.81061 0.65425 0.40173 0.0
C310 C 0.78987 0.66468 0.38975 0.0
C311 C 0.84462 0.62802 0.39835 0.0
C312 C 0.87021 0.64713 0.40437 0.0
C313 C 0.84063 0.59879 0.40403 0.0
C314 C 0.81415 0.57751 0.39785 0.0
C315 C 0.7909 0.57921 0.41014 0.0
C316 C 0.76605 0.55898 0.40423 0.0
C317 C 0.76425 0.53679 0.38626 0.0
C318 C 0.78731 0.53476 0.37421 0.0
C319 C 0.81219 0.55498 0.37999 0.0
C320 C 0.94625 0.59818 0.47169 0.0
C321 C 0.94877 0.57274 0.46208 0.0
C322 C 0.92656 0.60987 0.45889 0.0
C323 C 0.9098 0.59696 0.43544 0.0
C324 C 0.91313 0.57194 0.42544 0.0
C325 C 0.93205 0.55976 0.43888 0.0
C326 C 0.88796 0.60846 0.42209 0.0
C327 C 0.86218 0.58945 0.41603 0.0
C328 C 0.89205 0.63774 0.41559 0.0
C329 C 0.91905 0.65886 0.4188 0.0
C330 C 0.941 0.65519 0.40543 0.0
C331 C 0.96643 0.6751 0.40865 0.0
C332 C 0.97013 0.69889 0.42501 0.0
C333 C 0.94838 0.70286 0.43814 0.0
C334 C 0.9229 0.683 0.43501 0.0
H335 H 0.98984 0.71427 0.42748 0.0
H336 H 0.74501 0.52112 0.38176 0.0
H337 H 0.40046 0.72542 0.38411 0.0
H338 H 0.42346 0.77149 0.40455 0.0
H339 H 0.37363 0.81029 0.34962 0.0
H340 H 0.35007 0.76389 0.32924 0.0
H341 H 0.4384 0.83919 0.35957 0.0
H342 H 0.35276 0.80428 0.40386 0.0
H343 H 0.31747 0.7669 0.4271 0.0
H344 H 0.37523 0.75808 0.494 0.0
H345 H 0.41099 0.79503 0.47085 0.0
H346 H 0.48496 0.96302 0.44585 0.0
H347 H 0.45385 0.9261 0.4164 0.0
H348 H 0.47053 0.86159 0.47333 0.0
H349 H 0.50162 0.89791 0.50229 0.0
H350 H 0.41671 0.85005 0.45804 0.0
H351 H 0.50184 0.87743 0.41542 0.0
H352 H 0.54105 0.911 0.3941 0.0
H353 H 0.48921 0.93023 0.32604 0.0
H354 H 0.44951 0.89731 0.34747 0.0
C355 C 0.39472 0.74384 0.376 0.0
C356 C 0.37355 0.74116 0.35505 0.0
C357 C 0.4078 0.77007 0.38774 0.0
C358 C 0.40017 0.79414 0.37855 0.0
C359 C 0.37978 0.79187 0.35686 0.0
C360 C 0.36633 0.76545 0.34538 0.0
C361 C 0.41246 0.82102 0.39328 0.0
C362 C 0.43322 0.84206 0.38079 0.0
C363 C 0.40616 0.82411 0.42126 0.0
C364 C 0.38459 0.80223 0.43546 0.0
C365 C 0.35799 0.79418 0.42338 0.0
C366 C 0.33789 0.7731 0.43656 0.0
C367 C 0.34411 0.76008 0.46198 0.0
C368 C 0.37044 0.76816 0.4743 0.0
C369 C 0.39063 0.78918 0.46116 0.0
C370 C 0.48172 0.94097 0.45219 0.0
C371 C 0.49568 0.93338 0.47646 0.0
C372 C 0.46403 0.91994 0.43534 0.0
C373 C 0.45994 0.89114 0.44272 0.0
C374 C 0.47326 0.88367 0.46735 0.0
C375 C 0.49105 0.90451 0.4839 0.0
C376 C 0.44281 0.86838 0.42444 0.0
C377 C 0.42132 0.84784 0.43643 0.0
C378 C 0.44886 0.86551 0.39624 0.0
C379 C 0.47265 0.88527 0.38329 0.0
C380 C 0.49874 0.88908 0.3961 0.0
C381 C 0.52107 0.90795 0.38397 0.0
C382 C 0.51763 0.92278 0.35873 0.0
C383 C 0.49183 0.91877 0.34561 0.0
C384 C 0.4694 0.90006 0.35778 0.0
H385 H 0.53496 0.93731 0.34931 0.0
H386 H 0.32853 0.74376 0.47215 0.0
H387 H 0.29505 0.71491 0.68884 0.0
H388 H 0.25044 0.69652 0.66434 0.0
H389 H 0.26687 0.61766 0.65166 0.0
H390 H 0.31191 0.6362 0.67436 0.0
H391 H 0.24027 0.67197 0.60504 0.0
H392 H 0.20486 0.567 0.6695 0.0
H393 H 0.21068 0.54822 0.7181 0.0
H394 H 0.22538 0.6313 0.75084 0.0
H395 H 0.21921 0.65047 0.70253 0.0
H396 H 0.15072 0.55875 0.53202 0.0
H397 H 0.18645 0.59069 0.56098 0.0
H398 H 0.12743 0.60326 0.61427 0.0
H399 H 0.09128 0.5706 0.58537 0.0
H400 H 0.16999 0.59049 0.64467 0.0
H401 H 0.15933 0.65662 0.56997 0.0
H402 H 0.1545 0.67138 0.51975 0.0
H403 H 0.23273 0.66372 0.50616 0.0
H404 H 0.23788 0.64855 0.55618 0.0
C405 C 0.28937 0.69378 0.68054 0.0
C406 C 0.30722 0.67706 0.68377 0.0
C407 C 0.26379 0.68328 0.66675 0.0
C408 C 0.25541 0.6557 0.65652 0.0
C409 C 0.27294 0.63889 0.6598 0.0
C410 C 0.29864 0.64951 0.67304 0.0
C411 C 0.22866 0.64442 0.64151 0.0
C412 C 0.22468 0.65444 0.61378 0.0
C413 C 0.20847 0.62158 0.65309 0.0
C414 C 0.21182 0.61021 0.68233 0.0
C415 C 0.20923 0.58123 0.68709 0.0
C416 C 0.2126 0.57052 0.71458 0.0
C417 C 0.21849 0.58857 0.73753 0.0
C418 C 0.22093 0.61736 0.73304 0.0
C419 C 0.21754 0.62817 0.70558 0.0
C420 C 0.14527 0.5685 0.54969 0.0
C421 C 0.11822 0.56209 0.55642 0.0
C422 C 0.16571 0.58691 0.56614 0.0
C423 C 0.15957 0.59962 0.58956 0.0
C424 C 0.13253 0.59375 0.59615 0.0
C425 C 0.11194 0.57522 0.57958 0.0
C426 C 0.1818 0.61758 0.60788 0.0
C427 C 0.18513 0.6086 0.63616 0.0
C428 C 0.20155 0.64117 0.59668 0.0
C429 C 0.19897 0.65144 0.56686 0.0
C430 C 0.17549 0.65807 0.55627 0.0
C431 C 0.17269 0.66648 0.52782 0.0
C432 C 0.19329 0.66848 0.50977 0.0
C433 C 0.21681 0.66224 0.52018 0.0
C434 C 0.21971 0.65379 0.5486 0.0
H435 H 0.19103 0.67486 0.48773 0.0
H436 H 0.2211 0.58024 0.7588 0.0
H437 H 0.40761 0.23871 0.7149 0.0
H438 H 0.42545 0.20378 0.69437 0.0
H439 H 0.4216 0.24425 0.61188 0.0
H440 H 0.4036 0.27876 0.63215 0.0
H441 H 0.40226 0.1902 0.60626 0.0
H442 H 0.48216 0.251 0.65286 0.0
H443 H 0.51069 0.27615 0.69308 0.0
H444 H 0.50482 0.19673 0.73728 0.0
H445 H 0.47593 0.17113 0.69745 0.0
H446 H 0.52339 0.14366 0.56422 0.0
H447 H 0.50408 0.17301 0.59066 0.0
H448 H 0.4301 0.10466 0.59476 0.0
H449 H 0.44943 0.07488 0.56783 0.0
H450 H 0.48685 0.16977 0.64213 0.0
H451 H 0.37674 0.13651 0.59218 0.0
H452 H 0.35226 0.1167 0.54755 0.0
H453 H 0.4251 0.14952 0.50375 0.0
H454 H 0.44935 0.17058 0.54739 0.0
C455 C 0.41088 0.24032 0.69246 0.0
C456 C 0.404 0.26147 0.67516 0.0
C457 C 0.42105 0.22029 0.68069 0.0
C458 C 0.42492 0.22122 0.65146 0.0
C459 C 0.41858 0.24274 0.63438 0.0
C460 C 0.4083 0.26255 0.64604 0.0
C461 C 0.43514 0.19976 0.63827 0.0
C462 C 0.42065 0.1856 0.61433 0.0
C463 C 0.45933 0.19385 0.64836 0.0
C464 C 0.47662 0.20918 0.67234 0.0
C465 C 0.48676 0.23892 0.67127 0.0
C466 C 0.50303 0.25325 0.69397 0.0
C467 C 0.50949 0.23805 0.71776 0.0
C468 C 0.49975 0.20848 0.71887 0.0
C469 C 0.48344 0.19405 0.69623 0.0
C470 C 0.50297 0.13469 0.57064 0.0
C471 C 0.48796 0.10679 0.56369 0.0
C472 C 0.492 0.15155 0.58604 0.0
C473 C 0.46561 0.1412 0.59488 0.0
C474 C 0.45048 0.11327 0.58812 0.0
C475 C 0.46153 0.09625 0.57266 0.0
C476 C 0.45397 0.16029 0.61012 0.0
C477 C 0.46818 0.17398 0.63443 0.0
C478 C 0.42991 0.1664 0.59992 0.0
C479 C 0.415 0.15461 0.57322 0.0
C480 C 0.3874 0.13965 0.5729 0.0
C481 C 0.37349 0.12832 0.54769 0.0
C482 C 0.387 0.13178 0.52271 0.0
C483 C 0.41439 0.14686 0.52286 0.0
C484 C 0.42825 0.15857 0.54784 0.0
H485 H 0.37623 0.12273 0.50332 0.0
H486 H 0.5221 0.24919 0.73531 0.0
H487 H 0.81157 0.38718 0.71738 0.0
H488 H 0.85525 0.41652 0.70255 0.0
H489 H 0.86729 0.34449 0.66349 0.0
H490 H 0.82512 0.31447 0.68067 0.0
H491 H 0.91254 0.37298 0.68484 0.0
H492 H 0.84386 0.39977 0.62412 0.0
H493 H 0.80372 0.41645 0.61406 0.0
H494 H 0.84302 0.49254 0.65909 0.0
H495 H 0.88337 0.47624 0.66945 0.0
H496 H 0.99638 0.44559 0.57352 0.0
H497 H 0.96198 0.41606 0.60368 0.0
H498 H 0.96707 0.48854 0.65328 0.0
H499 H 1.00152 0.51812 0.62364 0.0
H500 H 0.9154 0.46204 0.63041 0.0
H501 H 0.98733 0.43675 0.68373 0.0
H502 H 0.0273 0.41945 0.69045 0.0
H503 H 0.98141 0.33939 0.6562 0.0
H504 H 0.94124 0.35635 0.64889 0.0
C505 C 0.8237 0.37738 0.70614 0.0
C506 C 0.8144 0.34841 0.69987 0.0
C507 C 0.84857 0.39436 0.69725 0.0
C508 C 0.86433 0.38298 0.68115 0.0
C509 C 0.85549 0.35393 0.67564 0.0
C510 C 0.83101 0.33683 0.68511 0.0
C511 C 0.88964 0.40123 0.66931 0.0
C512 C 0.91306 0.39235 0.67275 0.0
C513 C 0.89066 0.42685 0.65399 0.0
C514 C 0.86647 0.43668 0.64777 0.0
C515 C 0.84386 0.41998 0.63198 0.0
C516 C 0.8211 0.42938 0.62621 0.0
C517 C 0.82078 0.45547 0.63605 0.0
C518 C 0.84324 0.47226 0.65164 0.0
C519 C 0.86608 0.463 0.65738 0.0
C520 C 0.99073 0.45511 0.5913 0.0
C521 C 1.00156 0.48432 0.59593 0.0
C522 C 0.97106 0.43818 0.60852 0.0
C523 C 0.96192 0.45019 0.6306 0.0
C524 C 0.97381 0.47891 0.63629 0.0
C525 C 0.99359 0.49576 0.61931 0.0
C526 C 0.93804 0.43367 0.64573 0.0
C527 C 0.9149 0.44286 0.64279 0.0
C528 C 0.93723 0.40821 0.6611 0.0
C529 C 0.96133 0.39793 0.66553 0.0
C530 C 0.98582 0.41554 0.6774 0.0
C531 C 0.0085 0.40578 0.68137 0.0
C532 C 0.00691 0.37836 0.6737 0.0
C533 C 0.98261 0.36063 0.66211 0.0
C534 C 0.95987 0.3703 0.65808 0.0
H535 H 0.02449 0.37084 0.67679 0.0
H536 H 0.80317 0.46274 0.6315 0.0
H537 H 0.66192 0.71165 0.59574 0.0
H538 H 0.64194 0.7505 0.58524 0.0
H539 H 0.70932 0.80749 0.6316 0.0
H540 H 0.72916 0.76846 0.64226 0.0
H541 H 0.66163 0.81792 0.64039 0.0
H542 H 0.7089 0.80494 0.56128 0.0
H543 H 0.7201 0.77772 0.52419 0.0
H544 H 0.6391 0.75925 0.48702 0.0
H545 H 0.62726 0.78594 0.52422 0.0
H546 H 0.6518 0.94824 0.57772 0.0
H547 H 0.66848 0.90781 0.59134 0.0
H548 H 0.59808 0.85169 0.5487 0.0
H549 H 0.58098 0.89192 0.53532 0.0
H550 H 0.64649 0.8406 0.53819 0.0
H551 H 0.59951 0.85414 0.61733 0.0
H552 H 0.58868 0.88163 0.65441 0.0
H553 H 0.66994 0.90013 0.69089 0.0
H554 H 0.68137 0.87308 0.65373 0.0
C555 C 0.67201 0.73233 0.60429 0.0
C556 C 0.69682 0.73723 0.61998 0.0
C557 C 0.66076 0.75453 0.59809 0.0
C558 C 0.67436 0.78201 0.60725 0.0
C559 C 0.69851 0.78649 0.62429 0.0
C560 C 0.70977 0.76425 0.63045 0.0
C561 C 0.66427 0.80632 0.59765 0.0
C562 C 0.6586 0.82305 0.61806 0.0
C563 C 0.65991 0.81278 0.56846 0.0
C564 C 0.66708 0.79705 0.54582 0.0
C565 C 0.69339 0.79484 0.54537 0.0
C566 C 0.69986 0.7795 0.52433 0.0
C567 C 0.68023 0.7665 0.50346 0.0
C568 C 0.65421 0.76913 0.50336 0.0
C569 C 0.64761 0.78436 0.52441 0.0
C570 C 0.6399 0.92734 0.57106 0.0
C571 C 0.615 0.92334 0.55548 0.0
C572 C 0.64944 0.90425 0.57896 0.0
C573 C 0.63437 0.87674 0.57129 0.0
C574 C 0.60997 0.87275 0.5549 0.0
C575 C 0.60024 0.89579 0.54729 0.0
C576 C 0.64382 0.85208 0.58093 0.0
C577 C 0.64944 0.83537 0.56052 0.0
C578 C 0.64821 0.84571 0.61008 0.0
C579 C 0.64136 0.86181 0.63258 0.0
C580 C 0.61513 0.86426 0.63311 0.0
C581 C 0.60887 0.87973 0.65417 0.0
C582 C 0.62863 0.89268 0.67495 0.0
C583 C 0.65466 0.89011 0.67476 0.0
C584 C 0.66104 0.8747 0.65372 0.0
H585 H 0.62374 0.90465 0.69124 0.0
H586 H 0.68526 0.75455 0.48725 0.0
H587 H 0.33602 0.22555 0.38011 0.0
H588 H 0.35801 0.19038 0.39859 0.0
H589 H 0.43253 0.25701 0.41431 0.0
H590 H 0.41073 0.29205 0.39435 0.0
H591 H 0.44426 0.21645 0.39405 0.0
H592 H 0.39012 0.21968 0.46945 0.0
H593 H 0.34978 0.21851 0.49431 0.0
H594 H 0.31124 0.13343 0.4677 0.0
H595 H 0.35121 0.13422 0.44232 0.0
H596 H 0.50597 0.12802 0.48134 0.0
H597 H 0.4854 0.16456 0.46308 0.0
H598 H 0.41344 0.09974 0.435 0.0
H599 H 0.43361 0.06323 0.45338 0.0
H600 H 0.40043 0.13886 0.46066 0.0
H601 H 0.45325 0.1418 0.38028 0.0
H602 H 0.49347 0.14465 0.35455 0.0
H603 H 0.53752 0.22018 0.39828 0.0
H604 H 0.497 0.21837 0.4234 0.0
C605 C 0.35707 0.23261 0.38763 0.0
C606 C 0.37171 0.26143 0.38595 0.0
C607 C 0.3696 0.21255 0.39842 0.0
C608 C 0.39685 0.22099 0.40853 0.0
C609 C 0.41149 0.24989 0.40676 0.0
C610 C 0.39908 0.2699 0.39539 0.0
C611 C 0.41026 0.19954 0.41982 0.0
C612 C 0.43506 0.20013 0.40948 0.0
C613 C 0.39801 0.1775 0.43919 0.0
C614 C 0.37356 0.17716 0.45368 0.0
C615 C 0.37292 0.20084 0.46861 0.0
C616 C 0.35015 0.20021 0.48287 0.0
C617 C 0.32793 0.17594 0.48251 0.0
C618 C 0.32844 0.15224 0.4679 0.0
C619 C 0.35115 0.15277 0.45357 0.0
C620 C 0.48576 0.12155 0.47131 0.0
C621 C 0.47151 0.09266 0.46877 0.0
C622 C 0.47412 0.14247 0.4606 0.0
C623 C 0.44805 0.13491 0.44714 0.0
C624 C 0.43365 0.10611 0.44508 0.0
C625 C 0.44524 0.08524 0.4557 0.0
C626 C 0.43517 0.15695 0.43655 0.0
C627 C 0.41015 0.15603 0.4464 0.0
C628 C 0.44763 0.17921 0.41766 0.0
C629 C 0.47235 0.17972 0.40393 0.0
C630 C 0.47161 0.15886 0.38455 0.0
C631 C 0.49439 0.1604 0.36996 0.0
C632 C 0.5182 0.18237 0.37503 0.0
C633 C 0.51912 0.20309 0.39447 0.0
C634 C 0.49619 0.20197 0.4087 0.0
H635 H 0.53587 0.18342 0.36379 0.0
H636 H 0.31033 0.17547 0.49361 0.0
H637 H 0.77251 0.33286 0.36763 0.0
H638 H 0.81091 0.35986 0.39778 0.0
H639 H 0.86515 0.35493 0.33489 0.0
H640 H 0.82683 0.32743 0.30482 0.0
H641 H 0.88449 0.34497 0.38858 0.0
H642 H 0.84874 0.41466 0.34039 0.0
H643 H 0.81428 0.43803 0.32393 0.0
H644 H 0.80023 0.44952 0.41021 0.0
H645 H 0.83429 0.42577 0.42721 0.0
H646 H 0.99729 0.45444 0.44784 0.0
H647 H 0.96167 0.42375 0.417 0.0
H648 H 0.90194 0.43006 0.4729 0.0
H649 H 0.93718 0.46113 0.50327 0.0
H650 H 0.88674 0.43985 0.42034 0.0
H651 H 0.92148 0.36861 0.46862 0.0
H652 H 0.95676 0.34628 0.48495 0.0
H653 H 0.97327 0.33851 0.39862 0.0
H654 H 0.93831 0.36114 0.38177 0.0
C655 C 0.79264 0.33726 0.36035 0.0
C656 C 0.79662 0.3281 0.33378 0.0
C657 C 0.81454 0.35289 0.37749 0.0
C658 C 0.84087 0.35969 0.36842 0.0
C659 C 0.845 0.35002 0.34223 0.0
C660 C 0.82307 0.33449 0.325 0.0
C661 C 0.86401 0.37713 0.38621 0.0
C662 C 0.88518 0.36588 0.39526 0.0
C663 C 0.8647 0.40423 0.39525 0.0
C664 C 0.84388 0.41814 0.38507 0.0
C665 C 0.8381 0.42188 0.35586 0.0
C666 C 0.81867 0.43526 0.34643 0.0
C667 C 0.80503 0.44519 0.36601 0.0
C668 C 0.81078 0.44177 0.39507 0.0
C669 C 0.83015 0.42835 0.40461 0.0
C670 C 0.9766 0.44895 0.45372 0.0
C671 C 0.97004 0.46032 0.47792 0.0
C672 C 0.95625 0.43137 0.43611 0.0
C673 C 0.92908 0.42452 0.44265 0.0
C674 C 0.9227 0.43516 0.4673 0.0
C675 C 0.94291 0.45287 0.48471 0.0
C676 C 0.90702 0.40749 0.42327 0.0
C677 C 0.88608 0.41892 0.41375 0.0
C678 C 0.90657 0.38059 0.41386 0.0
C679 C 0.92747 0.36683 0.42395 0.0
C680 C 0.93277 0.36233 0.45313 0.0
C681 C 0.95268 0.34959 0.46247 0.0
C682 C 0.96729 0.34106 0.44284 0.0
C683 C 0.96196 0.34517 0.41381 0.0
C684 C 0.94208 0.35793 0.40434 0.0
H685 H 0.98271 0.3312 0.45012 0.0
H686 H 0.79005 0.45562 0.35867 0.0
H687 H 0.73182 0.80624 0.35475 0.0
H688 H 0.70838 0.83698 0.37384 0.0
H689 H 0.64339 0.7635 0.39613 0.0
H690 H 0.6671 0.7326 0.37709 0.0
H691 H 0.62565 0.81018 0.37352 0.0
H692 H 0.68896 0.79111 0.44452 0.0
H693 H 0.73325 0.78868 0.46503 0.0
H694 H 0.76592 0.87877 0.45326 0.0
H695 H 0.7219 0.88167 0.43225 0.0
H696 H 0.56812 0.87374 0.47249 0.0
H697 H 0.58929 0.84354 0.4496 0.0
H698 H 0.65924 0.91512 0.43687 0.0
H699 H 0.63823 0.94563 0.46043 0.0
H700 H 0.67405 0.86921 0.45399 0.0
H701 H 0.61272 0.88881 0.38063 0.0
H702 H 0.56881 0.89238 0.36005 0.0
H703 H 0.53312 0.8033 0.37605 0.0
H704 H 0.5769 0.79919 0.39668 0.0
C705 C 0.71222 0.79673 0.36312 0.0
C706 C 0.70104 0.76718 0.36421 0.0
C707 C 0.69894 0.81427 0.3742 0.0
C708 C 0.67423 0.80258 0.38669 0.0
C709 C 0.6624 0.77301 0.38657 0.0
C710 C 0.67585 0.75539 0.37563 0.0
C711 C 0.66173 0.82117 0.40125 0.0
C712 C 0.6361 0.82283 0.39132 0.0
C713 C 0.67559 0.83823 0.4241 0.0
C714 C 0.70216 0.83654 0.43655 0.0
C715 C 0.70564 0.81036 0.44606 0.0
C716 C 0.73069 0.80891 0.45782 0.0
C717 C 0.7524 0.83355 0.4604 0.0
C718 C 0.74909 0.8597 0.45123 0.0
C719 C 0.72409 0.86125 0.4394 0.0
C720 C 0.58801 0.88321 0.46482 0.0
C721 C 0.60136 0.91227 0.46811 0.0
C722 C 0.60006 0.86584 0.45157 0.0
C723 C 0.62567 0.87706 0.44092 0.0
C724 C 0.63938 0.90595 0.44472 0.0
C725 C 0.62733 0.9234 0.45815 0.0
C726 C 0.63808 0.85848 0.42611 0.0
C727 C 0.66365 0.85671 0.43608 0.0
C728 C 0.62427 0.8415 0.40317 0.0
C729 C 0.59802 0.84374 0.3904 0.0
C730 C 0.59547 0.87 0.37986 0.0
C731 C 0.57062 0.87212 0.36816 0.0
C732 C 0.54814 0.84812 0.3669 0.0
C733 C 0.55054 0.82189 0.3771 0.0
C734 C 0.57539 0.81963 0.38869 0.0
H735 H 0.52888 0.84983 0.35795 0.0
H736 H 0.77177 0.83239 0.46956 0.0
H737 H 0.27377 0.63527 0.31316 0.0
H738 H 0.22832 0.61276 0.32883 0.0
H739 H 0.24609 0.66691 0.40092 0.0
H740 H 0.29167 0.68853 0.38621 0.0
H741 H 0.22664 0.61361 0.41717 0.0
H742 H 0.20133 0.67436 0.34544 0.0
H743 H 0.19876 0.69563 0.29744 0.0
H744 H 0.15683 0.61368 0.26471 0.0
H745 H 0.15948 0.59184 0.31248 0.0
H746 H 0.09888 0.5752 0.47122 0.0
H747 H 0.13664 0.60485 0.44566 0.0
H748 H 0.12372 0.54035 0.38364 0.0
H749 H 0.08591 0.51017 0.40927 0.0
H750 H 0.13937 0.59901 0.36095 0.0
H751 H 0.16712 0.53838 0.43152 0.0
H752 H 0.17212 0.51633 0.47862 0.0
H753 H 0.21054 0.5983 0.51307 0.0
H754 H 0.20545 0.62094 0.46612 0.0
C755 C 0.26791 0.64252 0.33223 0.0
C756 C 0.28644 0.66374 0.34837 0.0
C757 C 0.24183 0.62982 0.34101 0.0
C758 C 0.23373 0.63825 0.36599 0.0
C759 C 0.25186 0.6601 0.38154 0.0
C760 C 0.27789 0.67267 0.37289 0.0
C761 C 0.20736 0.62272 0.37741 0.0
C762 C 0.20755 0.61093 0.405 0.0
C763 C 0.18249 0.61837 0.36124 0.0
C764 C 0.18085 0.63143 0.3325 0.0
C765 C 0.19177 0.66084 0.32797 0.0
C766 C 0.19025 0.673 0.30081 0.0
C767 C 0.1777 0.65601 0.27803 0.0
C768 C 0.16657 0.62681 0.28238 0.0
C769 C 0.16805 0.61453 0.3095 0.0
C770 C 0.1035 0.5675 0.45174 0.0
C771 C 0.08946 0.5401 0.44248 0.0
C772 C 0.1252 0.5845 0.43722 0.0
C773 C 0.1331 0.57462 0.41299 0.0
C774 C 0.11787 0.54831 0.40233 0.0
C775 C 0.09629 0.5311 0.41703 0.0
C776 C 0.15884 0.59045 0.40072 0.0
C777 C 0.15852 0.60205 0.37306 0.0
C778 C 0.18371 0.59472 0.41678 0.0
C779 C 0.18566 0.58135 0.44534 0.0
C780 C 0.17631 0.55174 0.4492 0.0
C781 C 0.17927 0.53912 0.47586 0.0
C782 C 0.19172 0.55588 0.49882 0.0
C783 C 0.20098 0.58535 0.49524 0.0
C784 C 0.19804 0.59808 0.46861 0.0
H785 H 0.1941 0.54604 0.51942 0.0
H786 H 0.17655 0.66547 0.25702 0.0
H787 H 0.43035 0.74796 0.69803 0.0
H788 H 0.45523 0.79554 0.68167 0.0
H789 H 0.38332 0.82182 0.6818 0.0
H790 H 0.35853 0.77487 0.69989 0.0
H791 H 0.41389 0.82848 0.62679 0.0
H792 H 0.42354 0.85095 0.72618 0.0
H793 H 0.43559 0.84296 0.77667 0.0
H794 H 0.51711 0.85192 0.75725 0.0
H795 H 0.50543 0.85954 0.70656 0.0
H796 H 0.48273 0.96457 0.57227 0.0
H797 H 0.45239 0.92743 0.60052 0.0
H798 H 0.52108 0.90703 0.64285 0.0
H799 H 0.55124 0.94484 0.61612 0.0
H800 H 0.48733 0.89985 0.67905 0.0
H801 H 0.4795 0.86501 0.58409 0.0
H802 H 0.47095 0.86471 0.53215 0.0
H803 H 0.39224 0.87358 0.5407 0.0
H804 H 0.40009 0.87309 0.59288 0.0
C805 C 0.41991 0.76398 0.69551 0.0
C806 C 0.39225 0.75729 0.70015 0.0
C807 C 0.43417 0.79114 0.68589 0.0
C808 C 0.42102 0.81204 0.6804 0.0
C809 C 0.39374 0.80586 0.68578 0.0
C810 C 0.37959 0.77891 0.69594 0.0
C811 C 0.43539 0.83967 0.66719 0.0
C812 C 0.42957 0.84444 0.6383 0.0
C813 C 0.45643 0.85985 0.68204 0.0
C814 C 0.46355 0.85558 0.71254 0.0
C815 C 0.44398 0.85098 0.73264 0.0
C816 C 0.45076 0.84657 0.76131 0.0
C817 C 0.47709 0.84687 0.77016 0.0
C818 C 0.49672 0.85168 0.75037 0.0
C819 C 0.49004 0.85608 0.72167 0.0
C820 C 0.49133 0.95253 0.58803 0.0
C821 C 0.51945 0.95772 0.59181 0.0
C822 C 0.47395 0.93103 0.60396 0.0
C823 C 0.48431 0.91378 0.62342 0.0
C824 C 0.51241 0.91988 0.62806 0.0
C825 C 0.52973 0.94165 0.61265 0.0
C826 C 0.46626 0.88871 0.63824 0.0
C827 C 0.47135 0.88427 0.66749 0.0
C828 C 0.44511 0.86828 0.6235 0.0
C829 C 0.44053 0.86944 0.59226 0.0
C830 C 0.46046 0.86713 0.57485 0.0
C831 C 0.45571 0.86703 0.54538 0.0
C832 C 0.43121 0.86952 0.53306 0.0
C833 C 0.41126 0.87179 0.55025 0.0
C834 C 0.41578 0.87153 0.57978 0.0
H835 H 0.42761 0.86951 0.51022 0.0
H836 H 0.48229 0.84344 0.79236 0.0
H837 H 0.2657 0.30829 0.6766 0.0
H838 H 0.23102 0.33148 0.66147 0.0
H839 H 0.29289 0.40594 0.63484 0.0
H840 H 0.32758 0.3827 0.65017 0.0
H841 H 0.25227 0.4198 0.65938 0.0
H842 H 0.2602 0.35628 0.58928 0.0
H843 H 0.26029 0.31009 0.57205 0.0
H844 H 0.17719 0.27459 0.59043 0.0
H845 H 0.17693 0.32024 0.60905 0.0
H846 H 0.17806 0.48398 0.56145 0.0
H847 H 0.20962 0.46055 0.58403 0.0
H848 H 0.14351 0.38666 0.60237 0.0
H849 H 0.11154 0.40996 0.57903 0.0
H850 H 0.18457 0.3714 0.58451 0.0
H851 H 0.17618 0.43443 0.65451 0.0
H852 H 0.1762 0.48007 0.67338 0.0
H853 H 0.25918 0.51625 0.65478 0.0
H854 H 0.25958 0.47093 0.63543 0.0
C855 C 0.27187 0.32991 0.66827 0.0
C856 C 0.29921 0.34393 0.66483 0.0
C857 C 0.25206 0.34305 0.65938 0.0
C858 C 0.25927 0.37034 0.64661 0.0
C859 C 0.2868 0.38491 0.64461 0.0
C860 C 0.30662 0.37171 0.65346 0.0
C861 C 0.23817 0.38293 0.63369 0.0
C862 C 0.23761 0.40932 0.64285 0.0
C863 C 0.2186 0.36901 0.6125 0.0
C864 C 0.21866 0.34164 0.60093 0.0
C865 C 0.24202 0.33856 0.58997 0.0
C866 C 0.2421 0.31247 0.57992 0.0
C867 C 0.21874 0.28945 0.58004 0.0
C868 C 0.19528 0.29244 0.59035 0.0
C869 C 0.19519 0.31839 0.60079 0.0
C870 C 0.17008 0.46275 0.57032 0.0
C871 C 0.14213 0.44899 0.56866 0.0
C872 C 0.18825 0.44939 0.58338 0.0
C873 C 0.17903 0.42202 0.59554 0.0
C874 C 0.15117 0.40787 0.59336 0.0
C875 C 0.13288 0.42123 0.58006 0.0
C876 C 0.19862 0.4083 0.6102 0.0
C877 C 0.19902 0.38176 0.60126 0.0
C878 C 0.218 0.42204 0.63164 0.0
C879 C 0.21784 0.44933 0.64331 0.0
C880 C 0.19438 0.45217 0.65425 0.0
C881 C 0.19432 0.47798 0.66506 0.0
C882 C 0.21766 0.50105 0.66522 0.0
C883 C 0.24112 0.49836 0.65461 0.0
C884 C 0.24128 0.47261 0.64376 0.0
H885 H 0.2176 0.52098 0.67363 0.0
H886 H 0.21883 0.2693 0.57213 0.0
H887 H 0.69365 0.27307 0.68427 0.0
H888 H 0.66809 0.23281 0.65575 0.0
H889 H 0.74141 0.21184 0.64421 0.0
H890 H 0.76716 0.25234 0.67253 0.0
H891 H 0.71068 0.20621 0.59577 0.0
H892 H 0.69752 0.17484 0.69248 0.0
H893 H 0.68581 0.17755 0.74162 0.0
H894 H 0.6053 0.17584 0.71179 0.0
H895 H 0.61664 0.17352 0.66243 0.0
H896 H 0.60432 0.05558 0.58187 0.0
H897 H 0.6391 0.0912 0.60902 0.0
H898 H 0.62726 0.15677 0.55037 0.0
H899 H 0.59269 0.12149 0.52315 0.0
H900 H 0.63189 0.1355 0.63597 0.0
H901 H 0.68695 0.20816 0.54488 0.0
H902 H 0.69953 0.20305 0.49655 0.0
H903 H 0.6994 0.11746 0.51733 0.0
H904 H 0.68723 0.12215 0.56583 0.0
C905 C 0.7043 0.25982 0.67572 0.0
C906 C 0.73236 0.2657 0.6808 0.0
C907 C 0.68969 0.23684 0.65942 0.0
C908 C 0.70279 0.21905 0.64823 0.0
C909 C 0.7309 0.22527 0.65267 0.0
C910 C 0.74557 0.2484 0.66882 0.0
C911 C 0.68699 0.19372 0.63231 0.0
C912 C 0.69351 0.1907 0.60458 0.0
C913 C 0.66497 0.1731 0.64404 0.0
C914 C 0.658 0.1742 0.67374 0.0
C915 C 0.67737 0.17521 0.69639 0.0
C916 C 0.67079 0.17666 0.72428 0.0
C917 C 0.64484 0.17691 0.72982 0.0
C918 C 0.6254 0.17565 0.70747 0.0
C919 C 0.63188 0.17423 0.67953 0.0
C920 C 0.6094 0.07754 0.57456 0.0
C921 C 0.59567 0.08575 0.55046 0.0
C922 C 0.62918 0.09784 0.59013 0.0
C923 C 0.6358 0.12656 0.58162 0.0
C924 C 0.62267 0.13467 0.55712 0.0
C925 C 0.60281 0.11448 0.54168 0.0
C926 C 0.65513 0.14844 0.59923 0.0
C927 C 0.64922 0.15086 0.62726 0.0
C928 C 0.67793 0.16817 0.58792 0.0
C929 C 0.68596 0.16547 0.55895 0.0
C930 C 0.68977 0.18831 0.53919 0.0
C931 C 0.69679 0.18547 0.51175 0.0
C932 C 0.70018 0.15992 0.50387 0.0
C933 C 0.69668 0.1372 0.52343 0.0
C934 C 0.68969 0.13993 0.55088 0.0
H935 H 0.70556 0.1577 0.48264 0.0
H936 H 0.63979 0.17805 0.75143 0.0
H937 H 0.81754 0.65881 0.67395 0.0
H938 H 0.85454 0.64407 0.65655 0.0
H939 H 0.8043 0.61035 0.58218 0.0
H940 H 0.76743 0.62533 0.5993 0.0
H941 H 0.83529 0.57436 0.60946 0.0
H942 H 0.84614 0.67104 0.57432 0.0
H943 H 0.85099 0.72165 0.58023 0.0
H944 H 0.92235 0.72951 0.63503 0.0
H945 H 0.91768 0.67881 0.62977 0.0
H946 H 0.93371 0.55348 0.52614 0.0
H947 H 0.89647 0.56858 0.54149 0.0
H948 H 0.95151 0.62516 0.60056 0.0
H949 H 0.98908 0.61187 0.5835 0.0
H950 H 0.91735 0.64933 0.5818 0.0
H951 H 0.90927 0.5557 0.61868 0.0
H952 H 0.90709 0.5056 0.6149 0.0
H953 H 0.83281 0.49071 0.56359 0.0
H954 H 0.83499 0.5411 0.56633 0.0
C955 C 0.81436 0.64796 0.65407 0.0
C956 C 0.78975 0.64331 0.63787 0.0
C957 C 0.83547 0.63966 0.64413 0.0
C958 C 0.83212 0.62626 0.61803 0.0
C959 C 0.80723 0.62066 0.60236 0.0
C960 C 0.78629 0.62933 0.61206 0.0
C961 C 0.85493 0.61922 0.6064 0.0
C962 C 0.85317 0.59067 0.60314 0.0
C963 C 0.87847 0.64056 0.59894 0.0
C964 C 0.8814 0.67108 0.60188 0.0
C965 C 0.86273 0.6835 0.58781 0.0
C966 C 0.86547 0.71221 0.59101 0.0
C967 C 0.88692 0.72877 0.60805 0.0
C968 C 0.90572 0.71666 0.62187 0.0
C969 C 0.90305 0.68795 0.61877 0.0
C970 C 0.93793 0.56949 0.54203 0.0
C971 C 0.96435 0.5815 0.55357 0.0
C972 C 0.91656 0.57792 0.55105 0.0
C973 C 0.92095 0.59746 0.57282 0.0
C974 C 0.94747 0.61 0.58381 0.0
C975 C 0.96897 0.60231 0.57409 0.0
C976 C 0.89797 0.60427 0.5848 0.0
C977 C 0.89961 0.63283 0.58815 0.0
C978 C 0.87459 0.58286 0.59302 0.0
C979 C 0.87248 0.55227 0.59242 0.0
C980 C 0.89253 0.54179 0.60646 0.0
C981 C 0.89135 0.51335 0.6044 0.0
C982 C 0.86994 0.49499 0.58881 0.0
C983 C 0.8495 0.505 0.57548 0.0
C984 C 0.85071 0.53353 0.57725 0.0
H985 H 0.86906 0.47295 0.58728 0.0
H986 H 0.88901 0.75099 0.61051 0.0
H987 H 0.37379 0.3012 0.29393 0.0
H988 H 0.39169 0.32812 0.2516 0.0
H989 H 0.37424 0.40157 0.28098 0.0
H990 H 0.35688 0.3749 0.32425 0.0
H991 H 0.36027 0.3898 0.22048 0.0
H992 H 0.43515 0.40389 0.28941 0.0
H993 H 0.46446 0.38859 0.32624 0.0
H994 H 0.48493 0.33716 0.26618 0.0
H995 H 0.4554 0.35182 0.22909 0.0
H996 H 0.48965 0.46846 0.13883 0.0
H997 H 0.46577 0.45202 0.18159 0.0
H998 H 0.40284 0.39178 0.13311 0.0
H999 H 0.42642 0.40867 0.08983 0.0
H1000 H 0.4567 0.40259 0.20593 0.0
H1001 H 0.34276 0.37487 0.16986 0.0
H1002 H 0.31281 0.39047 0.13409 0.0
H1003 H 0.37065 0.47269 0.12869 0.0
H1004 H 0.40095 0.45784 0.16468 0.0
C1005 C 0.37396 0.32317 0.29169 0.0
C1006 C 0.36436 0.33602 0.31287 0.0
C1007 C 0.38398 0.33843 0.26729 0.0
C1008 C 0.38447 0.36686 0.26329 0.0
C1009 C 0.37397 0.3796 0.28371 0.0
C1010 C 0.36407 0.36433 0.30839 0.0
C1011 C 0.39731 0.3833 0.23835 0.0
C1012 C 0.38137 0.39281 0.2172 0.0
C1013 C 0.42488 0.38741 0.23441 0.0
C1014 C 0.4429 0.37878 0.25655 0.0
C1015 C 0.44574 0.38915 0.28412 0.0
C1016 C 0.46242 0.38062 0.30503 0.0
C1017 C 0.4765 0.36187 0.29857 0.0
C1018 C 0.47399 0.35167 0.27116 0.0
C1019 C 0.45731 0.3601 0.25017 0.0
C1020 C 0.4705 0.45206 0.13706 0.0
C1021 C 0.46 0.43985 0.11084 0.0
C1022 C 0.45685 0.44266 0.16162 0.0
C1023 C 0.43239 0.42079 0.16064 0.0
C1024 C 0.42145 0.409 0.13438 0.0
C1025 C 0.43504 0.41858 0.10966 0.0
C1026 C 0.41966 0.40895 0.18745 0.0
C1027 C 0.43562 0.39997 0.20901 0.0
C1028 C 0.39216 0.40563 0.1917 0.0
C1029 C 0.37421 0.41513 0.17004 0.0
C1030 C 0.34908 0.39636 0.16121 0.0
C1031 C 0.33206 0.40508 0.14084 0.0
C1032 C 0.33988 0.43257 0.12914 0.0
C1033 C 0.36472 0.45142 0.13781 0.0
C1034 C 0.38183 0.44285 0.1582 0.0
H1035 H 0.32668 0.43927 0.11335 0.0
H1036 H 0.48939 0.35528 0.31479 0.0
H1037 H 0.43289 0.69753 0.80172 0.0
H1038 H 0.45489 0.68439 0.84608 0.0
H1039 H 0.41256 0.59618 0.83235 0.0
H1040 H 0.39033 0.60941 0.78873 0.0
H1041 H 0.41401 0.60647 0.88656 0.0
H1042 H 0.47861 0.62666 0.8142 0.0
H1043 H 0.5065 0.6563 0.77776 0.0
H1044 H 0.54556 0.71816 0.83995 0.0
H1045 H 0.51766 0.689 0.87671 0.0
H1046 H 0.49586 0.53003 0.95776 0.0
H1047 H 0.46863 0.55241 0.92607 0.0
H1048 H 0.52131 0.63493 0.94855 0.0
H1049 H 0.54957 0.61244 0.9793 0.0
H1050 H 0.51397 0.63321 0.89457 0.0
H1051 H 0.45222 0.60701 0.96889 0.0
H1052 H 0.42508 0.57425 1.00389 0.0
H1053 H 0.38093 0.52074 0.93692 0.0
H1054 H 0.40793 0.55305 0.90155 0.0
C1055 C 0.42818 0.67545 0.80854 0.0
C1056 C 0.4101 0.65438 0.79211 0.0
C1057 C 0.44076 0.66791 0.83372 0.0
C1058 C 0.43559 0.63922 0.84244 0.0
C1059 C 0.41683 0.61841 0.82621 0.0
C1060 C 0.40423 0.62594 0.80126 0.0
C1061 C 0.45055 0.63038 0.8675 0.0
C1062 C 0.43588 0.61229 0.88834 0.0
C1063 C 0.47908 0.63833 0.87014 0.0
C1064 C 0.49584 0.65585 0.84809 0.0
C1065 C 0.49301 0.64669 0.82004 0.0
C1066 C 0.50884 0.66338 0.79935 0.0
C1067 C 0.52773 0.68914 0.80651 0.0
C1068 C 0.53088 0.69823 0.83442 0.0
C1069 C 0.51508 0.68163 0.85519 0.0
C1070 C 0.50133 0.55297 0.9565 0.0
C1071 C 0.52485 0.56949 0.97112 0.0
C1072 C 0.48562 0.5658 0.93839 0.0
C1073 C 0.49259 0.59547 0.93513 0.0
C1074 C 0.51546 0.61203 0.95068 0.0
C1075 C 0.53154 0.59917 0.96835 0.0
C1076 C 0.47748 0.60899 0.91364 0.0
C1077 C 0.49213 0.62787 0.89332 0.0
C1078 C 0.44892 0.60151 0.91136 0.0
C1079 C 0.43219 0.58241 0.93258 0.0
C1080 C 0.43677 0.58822 0.96164 0.0
C1081 C 0.4214 0.56973 0.98155 0.0
C1082 C 0.40131 0.54542 0.97264 0.0
C1083 C 0.39647 0.5396 0.94379 0.0
C1084 C 0.41176 0.55803 0.9238 0.0
H1085 H 0.38947 0.53111 0.98809 0.0
H1086 H 0.53997 0.70203 0.79046 0.0
H1087 H 0.4421 0.3363 0.74145 0.0
H1088 H 0.46056 0.36083 0.78528 0.0
H1089 H 0.3803 0.35557 0.80747 0.0
H1090 H 0.3615 0.33038 0.76382 0.0
H1091 H 0.41471 0.40786 0.81754 0.0
H1092 H 0.41337 0.3125 0.8409 0.0
H1093 H 0.4221 0.26688 0.8344 0.0
H1094 H 0.5074 0.30835 0.83879 0.0
H1095 H 0.49918 0.35432 0.8449 0.0
H1096 H 0.49383 0.42419 0.96864 0.0
H1097 H 0.46423 0.39431 0.93195 0.0
H1098 H 0.49229 0.46064 0.86899 0.0
H1099 H 0.52127 0.49039 0.9051 0.0
H1100 H 0.4769 0.37338 0.88468 0.0
H1101 H 0.44391 0.46088 0.81832 0.0
H1102 H 0.43454 0.50587 0.82642 0.0
H1103 H 0.41418 0.47779 0.91144 0.0
H1104 H 0.423 0.43243 0.90373 0.0
C1105 C 0.42823 0.33993 0.75575 0.0
C1106 C 0.40018 0.331 0.74898 0.0
C1107 C 0.43889 0.35413 0.78086 0.0
C1108 C 0.42186 0.35982 0.79998 0.0
C1109 C 0.39391 0.35145 0.79313 0.0
C1110 C 0.38318 0.33711 0.76802 0.0
C1111 C 0.43339 0.37468 0.82693 0.0
C1112 C 0.42819 0.40023 0.83227 0.0
C1113 C 0.45057 0.36453 0.84661 0.0
C1114 C 0.45563 0.3369 0.84316 0.0
C1115 C 0.43399 0.31193 0.84029 0.0
C1116 C 0.43884 0.286 0.8367 0.0
C1117 C 0.46528 0.28473 0.83613 0.0
C1118 C 0.48693 0.30938 0.83922 0.0
C1119 C 0.48218 0.33537 0.84278 0.0
C1120 C 0.49336 0.4325 0.94705 0.0
C1121 C 0.50997 0.45974 0.93992 0.0
C1122 C 0.47655 0.41535 0.92605 0.0
C1123 C 0.47578 0.42526 0.89765 0.0
C1124 C 0.49208 0.45258 0.89072 0.0
C1125 C 0.50882 0.46958 0.91151 0.0
C1126 C 0.45893 0.40701 0.87478 0.0
C1127 C 0.46316 0.38085 0.87014 0.0
C1128 C 0.44061 0.41646 0.85594 0.0
C1129 C 0.43429 0.44328 0.86047 0.0
C1130 C 0.43721 0.46418 0.83867 0.0
C1131 C 0.43205 0.48978 0.84321 0.0
C1132 C 0.42384 0.49471 0.86945 0.0
C1133 C 0.42062 0.47397 0.89115 0.0
C1134 C 0.42571 0.44831 0.8867 0.0
H1135 H 0.41996 0.51458 0.87295 0.0
H1136 H 0.469 0.26464 0.83334 0.0
H1137 H 0.71418 0.37957 0.7592 0.0
H1138 H 0.70137 0.41391 0.78648 0.0
H1139 H 0.75211 0.39839 0.85817 0.0
H1140 H 0.76452 0.36367 0.83086 0.0
H1141 H 0.70273 0.39056 0.87275 0.0
H1142 H 0.76545 0.46386 0.82311 0.0
H1143 H 0.78813 0.49088 0.78218 0.0
H1144 H 0.71409 0.50631 0.75025 0.0
H1145 H 0.69082 0.47894 0.79072 0.0
H1146 H 0.66008 0.48143 0.95704 0.0
H1147 H 0.69056 0.46449 0.93043 0.0
H1148 H 0.64201 0.46883 0.85325 0.0
H1149 H 0.61149 0.48583 0.87967 0.0
H1150 H 0.69616 0.48642 0.8445 0.0
H1151 H 0.63268 0.407 0.88942 0.0
H1152 H 0.6093 0.37986 0.92996 0.0
H1153 H 0.68511 0.37611 0.97003 0.0
H1154 H 0.70897 0.40359 0.92985 0.0
C1155 C 0.72319 0.38425 0.78048 0.0
C1156 C 0.74039 0.36935 0.79304 0.0
C1157 C 0.71595 0.4039 0.79605 0.0
C1158 C 0.72588 0.4089 0.82438 0.0
C1159 C 0.74426 0.39496 0.83634 0.0
C1160 C 0.75144 0.37527 0.82077 0.0
C1161 C 0.71423 0.42544 0.84249 0.0
C1162 C 0.70194 0.41182 0.86689 0.0
C1163 C 0.71247 0.45288 0.83448 0.0
C1164 C 0.72632 0.46908 0.80987 0.0
C1165 C 0.75392 0.47274 0.80722 0.0
C1166 C 0.7669 0.48818 0.78411 0.0
C1167 C 0.75255 0.50024 0.76359 0.0
C1168 C 0.72518 0.49692 0.76614 0.0
C1169 C 0.71209 0.48145 0.78918 0.0
C1170 C 0.65607 0.47909 0.93436 0.0
C1171 C 0.63314 0.4845 0.92052 0.0
C1172 C 0.67344 0.46932 0.91921 0.0
C1173 C 0.66827 0.46495 0.88996 0.0
C1174 C 0.64628 0.47191 0.87583 0.0
C1175 C 0.62878 0.48145 0.891 0.0
C1176 C 0.68463 0.45135 0.87439 0.0
C1177 C 0.69756 0.46541 0.85051 0.0
C1178 C 0.68695 0.42425 0.88272 0.0
C1179 C 0.67263 0.40762 0.90681 0.0
C1180 C 0.64437 0.40058 0.90698 0.0
C1181 C 0.63104 0.38511 0.92987 0.0
C1182 C 0.64572 0.37635 0.9526 0.0
C1183 C 0.67377 0.38297 0.95244 0.0
C1184 C 0.68721 0.39848 0.92961 0.0
H1185 H 0.63536 0.36437 0.97031 0.0
H1186 H 0.76264 0.51222 0.74574 0.0
H1187 H 0.72745 0.60485 0.70803 0.0
H1188 H 0.70912 0.58901 0.75395 0.0
H1189 H 0.70279 0.67251 0.76696 0.0
H1190 H 0.7215 0.68871 0.7209 0.0
H1191 H 0.7268 0.60511 0.8069 0.0
H1192 H 0.64635 0.66447 0.80482 0.0
H1193 H 0.61816 0.68392 0.77007 0.0
H1194 H 0.62116 0.62316 0.70954 0.0
H1195 H 0.64901 0.60309 0.74405 0.0
H1196 H 0.67018 0.59406 0.94285 0.0
H1197 H 0.69191 0.6113 0.89848 0.0
H1198 H 0.62244 0.55904 0.85094 0.0
H1199 H 0.60053 0.54216 0.89486 0.0
H1200 H 0.63704 0.61163 0.82873 0.0
H1201 H 0.68158 0.54127 0.85948 0.0
H1202 H 0.70871 0.51858 0.89225 0.0
H1203 H 0.77471 0.59511 0.89275 0.0
H1204 H 0.74798 0.61848 0.86021 0.0
C1205 C 0.7225 0.62002 0.72075 0.0
C1206 C 0.72614 0.64816 0.71079 0.0
C1207 C 0.71193 0.61087 0.74702 0.0
C1208 C 0.70451 0.62951 0.76392 0.0
C1209 C 0.70812 0.65765 0.75415 0.0
C1210 C 0.71874 0.66686 0.72779 0.0
C1211 C 0.69268 0.61914 0.79153 0.0
C1212 C 0.70722 0.60667 0.81174 0.0
C1213 C 0.66701 0.62084 0.79776 0.0
C1214 C 0.65004 0.63253 0.77691 0.0
C1215 C 0.64093 0.65523 0.78411 0.0
C1216 C 0.62501 0.66635 0.76446 0.0
C1217 C 0.61796 0.65486 0.73758 0.0
C1218 C 0.62673 0.63212 0.73033 0.0
C1219 C 0.64261 0.62089 0.74991 0.0
C1220 C 0.65962 0.58613 0.92295 0.0
C1221 C 0.63357 0.56678 0.92246 0.0
C1222 C 0.6721 0.59593 0.8976 0.0
C1223 C 0.65881 0.58646 0.87134 0.0
C1224 C 0.63304 0.56678 0.8709 0.0
C1225 C 0.62058 0.55704 0.89612 0.0
C1226 C 0.67118 0.59762 0.84416 0.0
C1227 C 0.65673 0.61029 0.82403 0.0
C1228 C 0.69676 0.59573 0.83786 0.0
C1229 C 0.71268 0.58173 0.85765 0.0
C1230 C 0.70179 0.55337 0.86678 0.0
C1231 C 0.7171 0.54035 0.88525 0.0
C1232 C 0.74333 0.55538 0.89463 0.0
C1233 C 0.75437 0.5835 0.88551 0.0
C1234 C 0.73917 0.59664 0.86703 0.0
H1235 H 0.75512 0.54522 0.90891 0.0
H1236 H 0.60566 0.66352 0.72239 0.0
H1237 H 0.69764 0.61608 0.30388 0.0
H1238 H 0.67369 0.59417 0.26055 0.0
H1239 H 0.68232 0.67681 0.22152 0.0
H1240 H 0.7068 0.699 0.26476 0.0
H1241 H 0.63163 0.63996 0.20949 0.0
H1242 H 0.72324 0.63911 0.20583 0.0
H1243 H 0.76554 0.62932 0.22336 0.0
H1244 H 0.72432 0.54014 0.22744 0.0
H1245 H 0.68164 0.54941 0.21041 0.0
H1246 H 0.59543 0.58006 0.06952 0.0
H1247 H 0.62298 0.60904 0.1081 0.0
H1248 H 0.61131 0.53431 0.16238 0.0
H1249 H 0.58379 0.50551 0.1244 0.0
H1250 H 0.66653 0.57139 0.16285 0.0
H1251 H 0.57575 0.57163 0.17839 0.0
H1252 H 0.53134 0.5784 0.16489 0.0
H1253 H 0.56965 0.66481 0.13951 0.0
H1254 H 0.61437 0.65858 0.15338 0.0
C1255 C 0.69456 0.62968 0.2861 0.0
C1256 C 0.70451 0.65939 0.28784 0.0
C1257 C 0.68079 0.61708 0.26129 0.0
C1258 C 0.6766 0.63379 0.23749 0.0
C1259 C 0.6854 0.66344 0.23952 0.0
C1260 C 0.69928 0.6761 0.26436 0.0
C1261 C 0.66349 0.62018 0.21047 0.0
C1262 C 0.63963 0.62543 0.19902 0.0
C1263 C 0.67347 0.60066 0.19697 0.0
C1264 C 0.69916 0.59501 0.20712 0.0
C1265 C 0.72313 0.61743 0.21071 0.0
C1266 C 0.74719 0.61197 0.22052 0.0
C1267 C 0.7476 0.58413 0.22659 0.0
C1268 C 0.72396 0.56169 0.22278 0.0
C1269 C 0.69983 0.56704 0.21304 0.0
C1270 C 0.59916 0.56981 0.08953 0.0
C1271 C 0.5875 0.54048 0.09387 0.0
C1272 C 0.61472 0.58638 0.1116 0.0
C1273 C 0.61922 0.57379 0.13813 0.0
C1274 C 0.60829 0.54444 0.14208 0.0
C1275 C 0.59252 0.52803 0.12032 0.0
C1276 C 0.63466 0.59097 0.16224 0.0
C1277 C 0.65889 0.58632 0.17313 0.0
C1278 C 0.62493 0.61073 0.17541 0.0
C1279 C 0.59832 0.61455 0.16654 0.0
C1280 C 0.57468 0.592 0.1697 0.0
C1281 C 0.54946 0.59576 0.16207 0.0
C1282 C 0.54765 0.62195 0.15106 0.0
C1283 C 0.57108 0.6445 0.14793 0.0
C1284 C 0.59637 0.64091 0.15579 0.0
H1285 H 0.52809 0.6248 0.14511 0.0
H1286 H 0.76625 0.57995 0.23417 0.0
H1287 H 0.41427 0.65971 0.26804 0.0
H1288 H 0.42669 0.63846 0.22741 0.0
H1289 H 0.356 0.56635 0.2349 0.0
H1290 H 0.3439 0.58756 0.276 0.0
H1291 H 0.39971 0.54992 0.23223 0.0
H1292 H 0.36174 0.61399 0.17758 0.0
H1293 H 0.35441 0.66001 0.16366 0.0
H1294 H 0.4379 0.69439 0.14633 0.0
H1295 H 0.44585 0.6487 0.16053 0.0
H1296 H 0.43589 0.49265 0.10832 0.0
H1297 H 0.40972 0.51129 0.13974 0.0
H1298 H 0.47684 0.58677 0.15105 0.0
H1299 H 0.50296 0.56813 0.12019 0.0
H1300 H 0.42774 0.59816 0.14029 0.0
H1301 H 0.46697 0.53725 0.19932 0.0
H1302 H 0.47672 0.49397 0.21888 0.0
H1303 H 0.39269 0.45535 0.23146 0.0
H1304 H 0.38226 0.49809 0.21113 0.0
C1305 C 0.40116 0.63961 0.26054 0.0
C1306 C 0.37812 0.62522 0.27473 0.0
C1307 C 0.40816 0.62752 0.2373 0.0
C1308 C 0.3921 0.60093 0.22784 0.0
C1309 C 0.3686 0.58693 0.24171 0.0
C1310 C 0.36164 0.59904 0.26504 0.0
C1311 C 0.40132 0.58672 0.20531 0.0
C1312 C 0.40512 0.56009 0.21176 0.0
C1313 C 0.40912 0.60041 0.17897 0.0
C1314 C 0.40441 0.62793 0.1703 0.0
C1315 C 0.37858 0.63141 0.17099 0.0
C1316 C 0.37431 0.65744 0.16301 0.0
C1317 C 0.39568 0.68012 0.15415 0.0
C1318 C 0.42137 0.6768 0.1532 0.0
C1319 C 0.42575 0.65083 0.16117 0.0
C1320 C 0.44479 0.51334 0.11732 0.0
C1321 C 0.47135 0.52908 0.11207 0.0
C1322 C 0.42996 0.52382 0.13532 0.0
C1323 C 0.44138 0.55031 0.14774 0.0
C1324 C 0.46764 0.5663 0.14168 0.0
C1325 C 0.48256 0.55564 0.12423 0.0
C1326 C 0.42638 0.56153 0.16741 0.0
C1327 C 0.4216 0.58764 0.16043 0.0
C1328 C 0.41782 0.54741 0.19335 0.0
C1329 C 0.42376 0.52076 0.20319 0.0
C1330 C 0.45045 0.5193 0.20558 0.0
C1331 C 0.45613 0.4949 0.21697 0.0
C1332 C 0.43534 0.47192 0.22637 0.0
C1333 C 0.40878 0.47315 0.22413 0.0
C1334 C 0.40296 0.49742 0.21255 0.0
H1335 H 0.43985 0.45323 0.23557 0.0
H1336 H 0.39233 0.70025 0.14799 0.0
H1337 H 0.67435 0.30176 0.21755 0.0
H1338 H 0.64491 0.32235 0.18576 0.0
H1339 H 0.71495 0.38665 0.1572 0.0
H1340 H 0.74412 0.3663 0.18917 0.0
H1341 H 0.6764 0.40953 0.16777 0.0
H1342 H 0.68133 0.33011 0.11599 0.0
H1343 H 0.67732 0.27986 0.10905 0.0
H1344 H 0.59291 0.25684 0.12349 0.0
H1345 H 0.5965 0.30693 0.13088 0.0
H1346 H 0.60891 0.46384 0.05284 0.0
H1347 H 0.6398 0.44187 0.07991 0.0
H1348 H 0.57211 0.37355 0.1068 0.0
H1349 H 0.54125 0.3948 0.0793 0.0
H1350 H 0.61066 0.35288 0.09593 0.0
H1351 H 0.60574 0.43097 0.15044 0.0
H1352 H 0.60957 0.48054 0.16044 0.0
H1353 H 0.69321 0.50568 0.14239 0.0
H1354 H 0.68985 0.4562 0.13224 0.0
C1355 C 0.68327 0.32029 0.20443 0.0
C1356 C 0.7113 0.33257 0.20558 0.0
C1357 C 0.66656 0.33195 0.18622 0.0
C1358 C 0.67775 0.3559 0.16883 0.0
C1359 C 0.70585 0.36821 0.17034 0.0
C1360 C 0.72248 0.35658 0.18853 0.0
C1361 C 0.6603 0.36849 0.14932 0.0
C1362 C 0.6623 0.39724 0.15178 0.0
C1363 C 0.64148 0.35234 0.12885 0.0
C1364 C 0.63925 0.32224 0.12425 0.0
C1365 C 0.66196 0.31431 0.11788 0.0
C1366 C 0.65975 0.28586 0.11384 0.0
C1367 C 0.63489 0.26516 0.1159 0.0
C1368 C 0.61216 0.27288 0.12193 0.0
C1369 C 0.61427 0.3013 0.12602 0.0
C1370 C 0.60059 0.44395 0.0642 0.0
C1371 C 0.57251 0.43123 0.06395 0.0
C1372 C 0.6183 0.43151 0.07989 0.0
C1373 C 0.60829 0.40631 0.09591 0.0
C1374 C 0.58037 0.39303 0.09474 0.0
C1375 C 0.5627 0.40529 0.07895 0.0
C1376 C 0.62665 0.39395 0.11445 0.0
C1377 C 0.62485 0.36523 0.11182 0.0
C1378 C 0.64557 0.4101 0.13488 0.0
C1379 C 0.64745 0.43995 0.14028 0.0
C1380 C 0.62487 0.44712 0.14833 0.0
C1381 C 0.62698 0.4752 0.15409 0.0
C1382 C 0.65159 0.49629 0.1519 0.0
C1383 C 0.67415 0.48933 0.144 0.0
C1384 C 0.67217 0.46127 0.1383 0.0
H1385 H 0.65325 0.51799 0.15648 0.0
H1386 H 0.63322 0.24315 0.11276 0.0
loop_
_geom_bond_atom_site_label_1
_geom_bond_atom_site_label_2
_geom_bond_distance
_geom_bond_site_symmetry_2
_ccdc_geom_bond_type
H0 C3 0.929 . S
H1 C6 0.929 . S
H2 C8 0.930 . S
C3 H0 0.929 . S
C3 C4 1.398 . S
C3 C5 1.396 . S
C4 C3 1.398 . S
C4 C8 1.407 . S
C5 C3 1.396 . S
C5 C6 1.394 . S
C6 H1 0.929 . S
C6 C5 1.394 . S
C6 C7 1.382 . S
C7 C6 1.382 . S
C7 C8 1.392 . S
C7 N9 1.420 . S
C8 H2 0.930 . S
C8 C4 1.407 . S
C8 C7 1.392 . S
N9 C7 1.420 . S
N9 C10 1.244 . S
C10 N9 1.244 . S
H11 C14 0.929 . S
H12 C17 0.929 . S
H13 C19 0.930 . S
C14 H11 0.929 . S
C14 C15 1.398 . S
C14 C16 1.396 . S
C15 C14 1.398 . S
C15 C19 1.407 . S
C16 C14 1.396 . S
C16 C17 1.394 . S
C17 H12 0.929 . S
C17 C16 1.394 . S
C17 C18 1.382 . S
C18 C17 1.382 . S
C18 C19 1.392 . S
C18 N20 1.420 . S
C19 H13 0.930 . S
C19 C15 1.407 . S
C19 C18 1.392 . S
N20 C18 1.420 . S
N20 C21 1.244 . S
C21 N20 1.244 . S
H22 C25 0.929 . S
H23 C28 0.929 . S
H24 C30 0.930 . S
C25 H22 0.929 . S
C25 C26 1.398 . S
C25 C27 1.396 . S
C26 C25 1.398 . S
C26 C30 1.407 . S
C27 C25 1.396 . S
C27 C28 1.394 . S
C28 H23 0.929 . S
C28 C27 1.394 . S
C28 C29 1.382 . S
C29 C28 1.382 . S
C29 C30 1.392 . S
C29 N31 1.420 . S
C30 H24 0.930 . S
C30 C26 1.407 . S
C30 C29 1.392 . S
N31 C29 1.420 . S
N31 C32 1.244 . S
C32 N31 1.244 . S
H33 C36 0.929 . S
H34 C39 0.929 . S
H35 C41 0.930 . S
C36 H33 0.929 . S
C36 C37 1.398 . S
C36 C38 1.396 . S
C37 C36 1.398 . S
C37 C41 1.407 . S
C38 C36 1.396 . S
C38 C39 1.394 . S
C39 H34 0.929 . S
C39 C38 1.394 . S
C39 C40 1.382 . S
C40 C39 1.382 . S
C40 C41 1.392 . S
C40 N42 1.420 . S
C41 H35 0.930 . S
C41 C37 1.407 . S
C41 C40 1.392 . S
N42 C40 1.420 . S
N42 C43 1.244 . S
C43 N42 1.244 . S
H44 C47 0.929 . S
H45 C50 0.929 . S
H46 C52 0.930 . S
C47 H44 0.929 . S
C47 C48 1.398 . S
C47 C49 1.396 . S
C48 C47 1.398 . S
C48 C52 1.407 . S
C49 C47 1.396 . S
C49 C50 1.394 . S
C50 H45 0.929 . S
C50 C49 1.394 . S
C50 C51 1.382 . S
C51 C50 1.382 . S
C51 C52 1.392 . S
C51 N53 1.420 . S
C52 H46 0.930 . S
C52 C48 1.407 . S
C52 C51 1.392 . S
N53 C51 1.420 . S
N53 C54 1.244 . S
C54 N53 1.244 . S
H55 C58 0.929 . S
H56 C61 0.929 . S
H57 C63 0.930 . S
C58 H55 0.929 . S
C58 C59 1.398 . S
C58 C60 1.396 . S
C59 C58 1.398 . S
C59 C63 1.407 . S
C60 C58 1.396 . S
C60 C61 1.394 . S
C61 H56 0.929 . S
C61 C60 1.394 . S
C61 C62 1.382 . S
C62 C61 1.382 . S
C62 C63 1.392 . S
C62 N64 1.420 . S
C63 H57 0.930 . S
C63 C59 1.407 . S
C63 C62 1.392 . S
N64 C62 1.420 . S
N64 C65 1.244 . S
C65 N64 1.244 . S
H66 C69 0.929 . S
H67 C72 0.929 . S
H68 C74 0.930 . S
C69 H66 0.929 . S
C69 C70 1.398 . S
C69 C71 1.396 . S
C70 C69 1.398 . S
C70 C74 1.407 . S
C71 C69 1.396 . S
C71 C72 1.394 . S
C72 H67 0.929 . S
C72 C71 1.394 . S
C72 C73 1.382 . S
C73 C72 1.382 . S
C73 C74 1.392 . S
C73 N75 1.420 . S
C74 H68 0.930 . S
C74 C70 1.407 . S
C74 C73 1.392 . S
N75 C73 1.420 . S
N75 C76 1.244 . S
C76 N75 1.244 . S
H77 C80 0.929 . S
H78 C83 0.929 . S
H79 C85 0.930 . S
C80 H77 0.929 . S
C80 C81 1.398 . S
C80 C82 1.396 . S
C81 C80 1.398 . S
C81 C85 1.407 . S
C82 C80 1.396 . S
C82 C83 1.394 . S
C83 H78 0.929 . S
C83 C82 1.394 . S
C83 C84 1.382 . S
C84 C83 1.382 . S
C84 C85 1.392 . S
C84 N86 1.420 . S
C85 H79 0.930 . S
C85 C81 1.407 . S
C85 C84 1.392 . S
N86 C84 1.420 . S
N86 C87 1.244 . S
C87 N86 1.244 . S
Co88 O91 2.042 . S
Co88 O98 2.264 . S
Co88 O117 2.286 . S
Co88 O118 2.069 . S
Co88 O120 2.015 . S
Co89 O91 2.122 . S
Co89 O97 2.073 . S
Co89 O98 2.327 . S
Co89 O99 1.976 . S
Co90 O91 2.087 . S
Co90 O93 2.087 . S
Co90 O100 2.111 . S
Co90 O101 2.143 1_455 S
Co90 O105 2.111 . S
Co90 O119 2.143 . S
O91 Co88 2.042 . S
O91 Co89 2.122 . S
O91 Co90 2.087 . S
O91 H92 0.980 . S
H92 O91 0.980 . S
O93 Co90 2.087 . S
O93 Co94 2.042 1_455 S
O93 Co95 2.122 1_455 S
O93 H96 0.980 . S
Co94 O93 2.042 1_655 S
Co94 O102 2.286 . S
Co94 O103 2.069 . S
Co94 O104 2.015 . S
Co94 O107 2.264 . S
Co95 O93 2.122 1_655 S
Co95 O106 1.976 . S
Co95 O107 2.327 . S
Co95 O108 2.073 . S
H96 O93 0.980 . S
O97 Co89 2.073 . S
O97 C112 1.245 . S
O98 Co88 2.264 . S
O98 Co89 2.327 . S
O98 C112 1.257 . S
O99 Co89 1.976 . S
O99 C111 1.251 . S
O100 Co90 2.111 . S
O100 C111 1.274 . S
O101 Co90 2.143 1_655 S
O101 C114 1.246 . S
O102 Co94 2.286 . S
O102 C113 1.259 . S
O103 Co94 2.069 . S
O103 C113 1.289 . S
O104 Co94 2.015 . S
O104 C114 1.257 . S
O105 Co90 2.111 . S
O105 C115 1.274 1_455 S
O106 Co95 1.976 . S
O106 C115 1.251 . S
O107 Co94 2.264 . S
O107 Co95 2.327 . S
O107 C116 1.257 . S
O108 Co95 2.073 . S
O108 C116 1.245 . S
C109 O117 1.259 . S
C109 O118 1.289 . S
C110 O119 1.246 . S
C110 O120 1.257 . S
C111 O99 1.251 . S
C111 O100 1.274 . S
C112 O97 1.245 . S
C112 O98 1.257 . S
C113 O102 1.259 . S
C113 O103 1.289 . S
C114 O101 1.246 . S
C114 O104 1.257 . S
C115 O105 1.274 1_655 S
C115 O106 1.251 . S
C116 O107 1.257 . S
C116 O108 1.245 . S
O117 Co88 2.286 . S
O117 C109 1.259 . S
O118 Co88 2.069 . S
O118 C109 1.289 . S
O119 Co90 2.143 . S
O119 C110 1.246 . S
O120 Co88 2.015 . S
O120 C110 1.257 . S
Co121 O124 2.042 . S
Co121 O131 2.264 . S
Co121 O150 2.286 . S
Co121 O151 2.069 . S
Co121 O153 2.015 . S
Co122 O124 2.122 . S
Co122 O130 2.073 . S
Co122 O131 2.327 . S
Co122 O132 1.976 . S
Co123 O124 2.087 1_545 S
Co123 O126 2.087 . S
Co123 O133 2.111 1_545 S
Co123 O134 2.143 . S
Co123 O138 2.111 . S
Co123 O152 2.143 1_545 S
O124 Co121 2.042 . S
O124 Co122 2.122 . S
O124 Co123 2.087 1_565 S
O124 H125 0.980 1_565 S
H125 O124 0.980 1_545 S
O126 Co123 2.087 . S
O126 Co127 2.042 . S
O126 Co128 2.122 . S
O126 H129 0.980 . S
Co127 O126 2.042 . S
Co127 O135 2.286 . S
Co127 O136 2.069 . S
Co127 O137 2.015 . S
Co127 O140 2.264 . S
Co128 O126 2.122 . S
Co128 O139 1.976 . S
Co128 O140 2.327 . S
Co128 O141 2.073 . S
H129 O126 0.980 . S
O130 Co122 2.073 . S
O130 C145 1.245 . S
O131 Co121 2.264 . S
O131 Co122 2.327 . S
O131 C145 1.257 . S
O132 Co122 1.976 . S
O132 C144 1.251 . S
O133 Co123 2.111 1_565 S
O133 C144 1.274 . S
O134 Co123 2.143 . S
O134 C147 1.246 . S
O135 Co127 2.286 . S
O135 C146 1.259 . S
O136 Co127 2.069 . S
O136 C146 1.289 . S
O137 Co127 2.015 . S
O137 C147 1.257 . S
O138 Co123 2.111 . S
O138 C148 1.274 . S
O139 Co128 1.976 . S
O139 C148 1.251 . S
O140 Co127 2.264 . S
O140 Co128 2.327 . S
O140 C149 1.257 . S
O141 Co128 2.073 . S
O141 C149 1.245 . S
C142 O150 1.259 . S
C142 O151 1.289 . S
C143 O152 1.246 . S
C143 O153 1.257 . S
C144 O132 1.251 . S
C144 O133 1.274 . S
C145 O130 1.245 . S
C145 O131 1.257 . S
C146 O135 1.259 . S
C146 O136 1.289 . S
C147 O134 1.246 . S
C147 O137 1.257 . S
C148 O138 1.274 . S
C148 O139 1.251 . S
C149 O140 1.257 . S
C149 O141 1.245 . S
O150 Co121 2.286 . S
O150 C142 1.259 . S
O151 Co121 2.069 . S
O151 C142 1.289 . S
O152 Co123 2.143 1_565 S
O152 C143 1.246 . S
O153 Co121 2.015 . S
O153 C143 1.257 . S
Co154 O157 2.042 . S
Co154 O164 2.264 . S
Co154 O183 2.286 . S
Co154 O184 2.069 . S
Co154 O186 2.015 . S
Co155 O157 2.122 . S
Co155 O163 2.073 . S
Co155 O164 2.327 . S
Co155 O165 1.976 . S
Co156 O157 2.087 . S
Co156 O159 2.087 1_554 S
Co156 O166 2.111 . S
Co156 O167 2.143 1_554 S
Co156 O171 2.111 1_554 S
Co156 O185 2.143 . S
O157 Co154 2.042 . S
O157 Co155 2.122 . S
O157 Co156 2.087 . S
O157 H158 0.980 . S
H158 O157 0.980 . S
O159 Co156 2.087 1_556 S
O159 Co160 2.042 . S
O159 Co161 2.122 . S
O159 H162 0.980 . S
Co160 O159 2.042 . S
Co160 O168 2.286 . S
Co160 O169 2.069 . S
Co160 O170 2.015 . S
Co160 O173 2.264 . S
Co161 O159 2.122 . S
Co161 O172 1.976 . S
Co161 O173 2.327 . S
Co161 O174 2.073 . S
H162 O159 0.980 . S
O163 Co155 2.073 . S
O163 C178 1.245 . S
O164 Co154 2.264 . S
O164 Co155 2.327 . S
O164 C178 1.257 . S
O165 Co155 1.976 . S
O165 C177 1.251 . S
O166 Co156 2.111 . S
O166 C177 1.274 . S
O167 Co156 2.143 1_556 S
O167 C180 1.246 . S
O168 Co160 2.286 . S
O168 C179 1.259 . S
O169 Co160 2.069 . S
O169 C179 1.289 . S
O170 Co160 2.015 . S
O170 C180 1.257 . S
O171 Co156 2.111 1_556 S
O171 C181 1.274 . S
O172 Co161 1.976 . S
O172 C181 1.251 . S
O173 Co160 2.264 . S
O173 Co161 2.327 . S
O173 C182 1.257 . S
O174 Co161 2.073 . S
O174 C182 1.245 . S
C175 O183 1.259 . S
C175 O184 1.289 . S
C176 O185 1.246 . S
C176 O186 1.257 . S
C177 O165 1.251 . S
C177 O166 1.274 . S
C178 O163 1.245 . S
C178 O164 1.257 . S
C179 O168 1.259 . S
C179 O169 1.289 . S
C180 O167 1.246 . S
C180 O170 1.257 . S
C181 O171 1.274 . S
C181 O172 1.251 . S
C182 O173 1.257 . S
C182 O174 1.245 . S
O183 Co154 2.286 . S
O183 C175 1.259 . S
O184 Co154 2.069 . S
O184 C175 1.289 . S
O185 Co156 2.143 . S
O185 C176 1.246 . S
O186 Co154 2.015 . S
O186 C176 1.257 . S
H187 C205 0.951 . S
H188 C207 0.951 . S
H189 C209 0.950 . S
H190 C210 0.950 . S
H191 C212 0.950 . S
H192 C215 0.950 . S
H193 C216 0.950 . S
H194 C218 0.950 . S
H195 C219 0.950 . S
H196 C220 0.951 . S
H197 C222 0.951 . S
H198 C224 0.950 . S
H199 C225 0.950 . S
H200 C227 0.950 . S
H201 C230 0.950 . S
H202 C231 0.950 . S
H203 C233 0.950 . S
H204 C234 0.950 . S
C205 H187 0.951 . S
C205 C206 1.366 . S
C205 C207 1.388 . S
C206 C205 1.366 . S
C206 C210 1.385 . S
C207 H188 0.951 . S
C207 C205 1.388 . S
C207 C208 1.366 . S
C208 C207 1.366 . S
C208 C209 1.414 . S
C208 C211 1.499 . S
C209 H189 0.950 . S
C209 C208 1.414 . S
C209 C210 1.374 . S
C210 H190 0.950 . S
C210 C206 1.385 . S
C210 C209 1.374 . S
C211 C208 1.499 . S
C211 C212 1.373 . S
C211 C213 1.389 . S
C212 H191 0.950 . S
C212 C211 1.373 . S
C212 C228 1.377 . S
C213 C211 1.389 . S
C213 C214 1.524 . S
C213 C227 1.377 . S
C214 C213 1.524 . S
C214 C215 1.397 . S
C214 C219 1.363 . S
C215 H192 0.950 . S
C215 C214 1.397 . S
C215 C216 1.334 . S
C216 H193 0.950 . S
C216 C215 1.334 . S
C216 C217 1.287 . S
C217 C216 1.287 . S
C217 C218 1.524 . S
C217 H236 0.913 . S
C218 H194 0.950 . S
C218 C217 1.524 . S
C218 C219 1.415 . S
C219 H195 0.950 . S
C219 C214 1.363 . S
C219 C218 1.415 . S
C220 H196 0.951 . S
C220 C221 1.366 . S
C220 C222 1.388 . S
C221 C220 1.366 . S
C221 C225 1.385 . S
C222 H197 0.951 . S
C222 C220 1.388 . S
C222 C223 1.366 . S
C223 C222 1.366 . S
C223 C224 1.414 . S
C223 C226 1.499 . S
C224 H198 0.950 . S
C224 C223 1.414 . S
C224 C225 1.374 . S
C225 H199 0.950 . S
C225 C221 1.385 . S
C225 C224 1.374 . S
C226 C223 1.499 . S
C226 C227 1.373 . S
C226 C228 1.389 . S
C227 H200 0.950 . S
C227 C213 1.377 . S
C227 C226 1.373 . S
C228 C212 1.377 . S
C228 C226 1.389 . S
C228 C229 1.524 . S
C229 C228 1.524 . S
C229 C230 1.397 . S
C229 C234 1.363 . S
C230 H201 0.950 . S
C230 C229 1.397 . S
C230 C231 1.334 . S
C231 H202 0.950 . S
C231 C230 1.334 . S
C231 C232 1.287 . S
C232 C231 1.287 . S
C232 C233 1.524 . S
C232 H235 0.999 . S
C233 H203 0.950 . S
C233 C232 1.524 . S
C233 C234 1.415 . S
C234 H204 0.950 . S
C234 C229 1.363 . S
C234 C233 1.415 . S
H235 C232 0.999 . S
H236 C217 0.913 . S
H237 C255 0.951 . S
H238 C257 0.951 . S
H239 C259 0.950 . S
H240 C260 0.950 . S
H241 C262 0.950 . S
H242 C265 0.950 . S
H243 C266 0.950 . S
H244 C268 0.950 . S
H245 C269 0.950 . S
H246 C270 0.951 . S
H247 C272 0.951 . S
H248 C274 0.950 . S
H249 C275 0.950 . S
H250 C277 0.950 . S
H251 C280 0.950 . S
H252 C281 0.950 . S
H253 C283 0.950 . S
H254 C284 0.950 . S
C255 H237 0.951 . S
C255 C256 1.366 . S
C255 C257 1.388 . S
C256 C255 1.366 . S
C256 C260 1.385 . S
C257 H238 0.951 . S
C257 C255 1.388 . S
C257 C258 1.366 . S
C258 C257 1.366 . S
C258 C259 1.414 . S
C258 C261 1.499 . S
C259 H239 0.950 . S
C259 C258 1.414 . S
C259 C260 1.374 . S
C260 H240 0.950 . S
C260 C256 1.385 . S
C260 C259 1.374 . S
C261 C258 1.499 . S
C261 C262 1.373 . S
C261 C263 1.389 . S
C262 H241 0.950 . S
C262 C261 1.373 . S
C262 C278 1.377 . S
C263 C261 1.389 . S
C263 C264 1.524 . S
C263 C277 1.377 . S
C264 C263 1.524 . S
C264 C265 1.397 . S
C264 C269 1.363 . S
C265 H242 0.950 . S
C265 C264 1.397 . S
C265 C266 1.334 . S
C266 H243 0.950 . S
C266 C265 1.334 . S
C266 C267 1.287 . S
C267 C266 1.287 . S
C267 C268 1.524 . S
C267 H286 0.913 . S
C268 H244 0.950 . S
C268 C267 1.524 . S
C268 C269 1.415 . S
C269 H245 0.950 . S
C269 C264 1.363 . S
C269 C268 1.415 . S
C270 H246 0.951 . S
C270 C271 1.366 . S
C270 C272 1.388 . S
C271 C270 1.366 . S
C271 C275 1.385 . S
C272 H247 0.951 . S
C272 C270 1.388 . S
C272 C273 1.366 . S
C273 C272 1.366 . S
C273 C274 1.414 . S
C273 C276 1.499 . S
C274 H248 0.950 . S
C274 C273 1.414 . S
C274 C275 1.374 . S
C275 H249 0.950 . S
C275 C271 1.385 . S
C275 C274 1.374 . S
C276 C273 1.499 . S
C276 C277 1.373 . S
C276 C278 1.389 . S
C277 H250 0.950 . S
C277 C263 1.377 . S
C277 C276 1.373 . S
C278 C262 1.377 . S
C278 C276 1.389 . S
C278 C279 1.524 . S
C279 C278 1.524 . S
C279 C280 1.397 . S
C279 C284 1.363 . S
C280 H251 0.950 . S
C280 C279 1.397 . S
C280 C281 1.334 . S
C281 H252 0.950 . S
C281 C280 1.334 . S
C281 C282 1.287 . S
C282 C281 1.287 . S
C282 C283 1.524 . S
C282 H285 0.999 . S
C283 H253 0.950 . S
C283 C282 1.524 . S
C283 C284 1.415 . S
C284 H254 0.950 . S
C284 C279 1.363 . S
C284 C283 1.415 . S
H285 C282 0.999 . S
H286 C267 0.913 . S
H287 C305 0.951 . S
H288 C307 0.951 . S
H289 C309 0.950 . S
H290 C310 0.950 . S
H291 C312 0.950 . S
H292 C315 0.950 . S
H293 C316 0.950 . S
H294 C318 0.950 . S
H295 C319 0.950 . S
H296 C320 0.951 . S
H297 C322 0.951 . S
H298 C324 0.950 . S
H299 C325 0.950 . S
H300 C327 0.950 . S
H301 C330 0.950 . S
H302 C331 0.950 . S
H303 C333 0.950 . S
H304 C334 0.950 . S
C305 H287 0.951 . S
C305 C306 1.366 . S
C305 C307 1.388 . S
C306 C305 1.366 . S
C306 C310 1.385 . S
C307 H288 0.951 . S
C307 C305 1.388 . S
C307 C308 1.366 . S
C308 C307 1.366 . S
C308 C309 1.414 . S
C308 C311 1.499 . S
C309 H289 0.950 . S
C309 C308 1.414 . S
C309 C310 1.374 . S
C310 H290 0.950 . S
C310 C306 1.385 . S
C310 C309 1.374 . S
C311 C308 1.499 . S
C311 C312 1.373 . S
C311 C313 1.389 . S
C312 H291 0.950 . S
C312 C311 1.373 . S
C312 C328 1.377 . S
C313 C311 1.389 . S
C313 C314 1.524 . S
C313 C327 1.377 . S
C314 C313 1.524 . S
C314 C315 1.397 . S
C314 C319 1.363 . S
C315 H292 0.950 . S
C315 C314 1.397 . S
C315 C316 1.334 . S
C316 H293 0.950 . S
C316 C315 1.334 . S
C316 C317 1.287 . S
C317 C316 1.287 . S
C317 C318 1.524 . S
C317 H336 0.913 . S
C318 H294 0.950 . S
C318 C317 1.524 . S
C318 C319 1.415 . S
C319 H295 0.950 . S
C319 C314 1.363 . S
C319 C318 1.415 . S
C320 H296 0.951 . S
C320 C321 1.366 . S
C320 C322 1.388 . S
C321 C320 1.366 . S
C321 C325 1.385 . S
C322 H297 0.951 . S
C322 C320 1.388 . S
C322 C323 1.366 . S
C323 C322 1.366 . S
C323 C324 1.414 . S
C323 C326 1.499 . S
C324 H298 0.950 . S
C324 C323 1.414 . S
C324 C325 1.374 . S
C325 H299 0.950 . S
C325 C321 1.385 . S
C325 C324 1.374 . S
C326 C323 1.499 . S
C326 C327 1.373 . S
C326 C328 1.389 . S
C327 H300 0.950 . S
C327 C313 1.377 . S
C327 C326 1.373 . S
C328 C312 1.377 . S
C328 C326 1.389 . S
C328 C329 1.524 . S
C329 C328 1.524 . S
C329 C330 1.397 . S
C329 C334 1.363 . S
C330 H301 0.950 . S
C330 C329 1.397 . S
C330 C331 1.334 . S
C331 H302 0.950 . S
C331 C330 1.334 . S
C331 C332 1.287 . S
C332 C331 1.287 . S
C332 C333 1.524 . S
C332 H335 1.032 . S
C333 H303 0.950 . S
C333 C332 1.524 . S
C333 C334 1.415 . S
C334 H304 0.950 . S
C334 C329 1.363 . S
C334 C333 1.415 . S
H335 C332 1.032 . S
H336 C317 0.913 . S
H337 C355 0.951 . S
H338 C357 0.951 . S
H339 C359 0.950 . S
H340 C360 0.950 . S
H341 C362 0.950 . S
H342 C365 0.950 . S
H343 C366 0.950 . S
H344 C368 0.950 . S
H345 C369 0.950 . S
H346 C370 0.951 . S
H347 C372 0.951 . S
H348 C374 0.950 . S
H349 C375 0.950 . S
H350 C377 0.950 . S
H351 C380 0.950 . S
H352 C381 0.950 . S
H353 C383 0.950 . S
H354 C384 0.950 . S
C355 H337 0.951 . S
C355 C356 1.366 . S
C355 C357 1.388 . S
C356 C355 1.366 . S
C356 C360 1.385 . S
C357 H338 0.951 . S
C357 C355 1.388 . S
C357 C358 1.366 . S
C358 C357 1.366 . S
C358 C359 1.414 . S
C358 C361 1.499 . S
C359 H339 0.950 . S
C359 C358 1.414 . S
C359 C360 1.374 . S
C360 H340 0.950 . S
C360 C356 1.385 . S
C360 C359 1.374 . S
C361 C358 1.499 . S
C361 C362 1.373 . S
C361 C363 1.389 . S
C362 H341 0.950 . S
C362 C361 1.373 . S
C362 C378 1.377 . S
C363 C361 1.389 . S
C363 C364 1.524 . S
C363 C377 1.377 . S
C364 C363 1.524 . S
C364 C365 1.397 . S
C364 C369 1.363 . S
C365 H342 0.950 . S
C365 C364 1.397 . S
C365 C366 1.334 . S
C366 H343 0.950 . S
C366 C365 1.334 . S
C366 C367 1.287 . S
C367 C366 1.287 . S
C367 C368 1.524 . S
C367 H386 0.913 . S
C368 H344 0.950 . S
C368 C367 1.524 . S
C368 C369 1.415 . S
C369 H345 0.950 . S
C369 C364 1.363 . S
C369 C368 1.415 . S
C370 H346 0.951 . S
C370 C371 1.366 . S
C370 C372 1.388 . S
C371 C370 1.366 . S
C371 C375 1.385 . S
C372 H347 0.951 . S
C372 C370 1.388 . S
C372 C373 1.366 . S
C373 C372 1.366 . S
C373 C374 1.414 . S
C373 C376 1.499 . S
C374 H348 0.950 . S
C374 C373 1.414 . S
C374 C375 1.374 . S
C375 H349 0.950 . S
C375 C371 1.385 . S
C375 C374 1.374 . S
C376 C373 1.499 . S
C376 C377 1.373 . S
C376 C378 1.389 . S
C377 H350 0.950 . S
C377 C363 1.377 . S
C377 C376 1.373 . S
C378 C362 1.377 . S
C378 C376 1.389 . S
C378 C379 1.524 . S
C379 C378 1.524 . S
C379 C380 1.397 . S
C379 C384 1.363 . S
C380 H351 0.950 . S
C380 C379 1.397 . S
C380 C381 1.334 . S
C381 H352 0.950 . S
C381 C380 1.334 . S
C381 C382 1.287 . S
C382 C381 1.287 . S
C382 C383 1.524 . S
C382 H385 0.999 . S
C383 H353 0.950 . S
C383 C382 1.524 . S
C383 C384 1.415 . S
C384 H354 0.950 . S
C384 C379 1.363 . S
C384 C383 1.415 . S
H385 C382 0.999 . S
H386 C367 0.913 . S
H387 C405 0.951 . S
H388 C407 0.951 . S
H389 C409 0.950 . S
H390 C410 0.950 . S
H391 C412 0.950 . S
H392 C415 0.950 . S
H393 C416 0.950 . S
H394 C418 0.950 . S
H395 C419 0.950 . S
H396 C420 0.951 . S
H397 C422 0.951 . S
H398 C424 0.950 . S
H399 C425 0.950 . S
H400 C427 0.950 . S
H401 C430 0.950 . S
H402 C431 0.950 . S
H403 C433 0.950 . S
H404 C434 0.950 . S
C405 H387 0.951 . S
C405 C406 1.366 . S
C405 C407 1.388 . S
C406 C405 1.366 . S
C406 C410 1.385 . S
C407 H388 0.951 . S
C407 C405 1.388 . S
C407 C408 1.366 . S
C408 C407 1.366 . S
C408 C409 1.414 . S
C408 C411 1.499 . S
C409 H389 0.950 . S
C409 C408 1.414 . S
C409 C410 1.374 . S
C410 H390 0.950 . S
C410 C406 1.385 . S
C410 C409 1.374 . S
C411 C408 1.499 . S
C411 C412 1.373 . S
C411 C413 1.389 . S
C412 H391 0.950 . S
C412 C411 1.373 . S
C412 C428 1.377 . S
C413 C411 1.389 . S
C413 C414 1.524 . S
C413 C427 1.377 . S
C414 C413 1.524 . S
C414 C415 1.397 . S
C414 C419 1.363 . S
C415 H392 0.950 . S
C415 C414 1.397 . S
C415 C416 1.334 . S
C416 H393 0.950 . S
C416 C415 1.334 . S
C416 C417 1.287 . S
C417 C416 1.287 . S
C417 C418 1.524 . S
C417 H436 0.913 . S
C418 H394 0.950 . S
C418 C417 1.524 . S
C418 C419 1.415 . S
C419 H395 0.950 . S
C419 C414 1.363 . S
C419 C418 1.415 . S
C420 H396 0.951 . S
C420 C421 1.366 . S
C420 C422 1.388 . S
C421 C420 1.366 . S
C421 C425 1.385 . S
C422 H397 0.951 . S
C422 C420 1.388 . S
C422 C423 1.366 . S
C423 C422 1.366 . S
C423 C424 1.414 . S
C423 C426 1.499 . S
C424 H398 0.950 . S
C424 C423 1.414 . S
C424 C425 1.374 . S
C425 H399 0.950 . S
C425 C421 1.385 . S
C425 C424 1.374 . S
C426 C423 1.499 . S
C426 C427 1.373 . S
C426 C428 1.389 . S
C427 H400 0.950 . S
C427 C413 1.377 . S
C427 C426 1.373 . S
C428 C412 1.377 . S
C428 C426 1.389 . S
C428 C429 1.524 . S
C429 C428 1.524 . S
C429 C430 1.397 . S
C429 C434 1.363 . S
C430 H401 0.950 . S
C430 C429 1.397 . S
C430 C431 1.334 . S
C431 H402 0.950 . S
C431 C430 1.334 . S
C431 C432 1.287 . S
C432 C431 1.287 . S
C432 C433 1.524 . S
C432 H435 0.999 . S
C433 H403 0.950 . S
C433 C432 1.524 . S
C433 C434 1.415 . S
C434 H404 0.950 . S
C434 C429 1.363 . S
C434 C433 1.415 . S
H435 C432 0.999 . S
H436 C417 0.913 . S
H437 C455 0.951 . S
H438 C457 0.951 . S
H439 C459 0.950 . S
H440 C460 0.950 . S
H441 C462 0.950 . S
H442 C465 0.950 . S
H443 C466 0.950 . S
H444 C468 0.950 . S
H445 C469 0.950 . S
H446 C470 0.951 . S
H447 C472 0.951 . S
H448 C474 0.950 . S
H449 C475 0.950 . S
H450 C477 0.950 . S
H451 C480 0.950 . S
H452 C481 0.950 . S
H453 C483 0.950 . S
H454 C484 0.950 . S
C455 H437 0.951 . S
C455 C456 1.366 . S
C455 C457 1.388 . S
C456 C455 1.366 . S
C456 C460 1.385 . S
C457 H438 0.951 . S
C457 C455 1.388 . S
C457 C458 1.366 . S
C458 C457 1.366 . S
C458 C459 1.414 . S
C458 C461 1.499 . S
C459 H439 0.950 . S
C459 C458 1.414 . S
C459 C460 1.374 . S
C460 H440 0.950 . S
C460 C456 1.385 . S
C460 C459 1.374 . S
C461 C458 1.499 . S
C461 C462 1.373 . S
C461 C463 1.389 . S
C462 H441 0.950 . S
C462 C461 1.373 . S
C462 C478 1.377 . S
C463 C461 1.389 . S
C463 C464 1.524 . S
C463 C477 1.377 . S
C464 C463 1.524 . S
C464 C465 1.397 . S
C464 C469 1.363 . S
C465 H442 0.950 . S
C465 C464 1.397 . S
C465 C466 1.334 . S
C466 H443 0.950 . S
C466 C465 1.334 . S
C466 C467 1.287 . S
C467 C466 1.287 . S
C467 C468 1.524 . S
C467 H486 0.913 . S
C468 H444 0.950 . S
C468 C467 1.524 . S
C468 C469 1.415 . S
C469 H445 0.950 . S
C469 C464 1.363 . S
C469 C468 1.415 . S
C470 H446 0.951 . S
C470 C471 1.366 . S
C470 C472 1.388 . S
C471 C470 1.366 . S
C471 C475 1.385 . S
C472 H447 0.951 . S
C472 C470 1.388 . S
C472 C473 1.366 . S
C473 C472 1.366 . S
C473 C474 1.414 . S
C473 C476 1.499 . S
C474 H448 0.950 . S
C474 C473 1.414 . S
C474 C475 1.374 . S
C475 H449 0.950 . S
C475 C471 1.385 . S
C475 C474 1.374 . S
C476 C473 1.499 . S
C476 C477 1.373 . S
C476 C478 1.389 . S
C477 H450 0.950 . S
C477 C463 1.377 . S
C477 C476 1.373 . S
C478 C462 1.377 . S
C478 C476 1.389 . S
C478 C479 1.524 . S
C479 C478 1.524 . S
C479 C480 1.397 . S
C479 C484 1.363 . S
C480 H451 0.950 . S
C480 C479 1.397 . S
C480 C481 1.334 . S
C481 H452 0.950 . S
C481 C480 1.334 . S
C481 C482 1.287 . S
C482 C481 1.287 . S
C482 C483 1.524 . S
C482 H485 0.999 . S
C483 H453 0.950 . S
C483 C482 1.524 . S
C483 C484 1.415 . S
C484 H454 0.950 . S
C484 C479 1.363 . S
C484 C483 1.415 . S
H485 C482 0.999 . S
H486 C467 0.913 . S
H487 C505 0.951 . S
H488 C507 0.951 . S
H489 C509 0.950 . S
H490 C510 0.950 . S
H491 C512 0.950 . S
H492 C515 0.950 . S
H493 C516 0.950 . S
H494 C518 0.950 . S
H495 C519 0.950 . S
H496 C520 0.951 . S
H497 C522 0.951 . S
H498 C524 0.950 . S
H499 C525 0.950 . S
H500 C527 0.950 . S
H501 C530 0.950 . S
H502 C531 0.950 . S
H503 C533 0.950 . S
H504 C534 0.950 . S
C505 H487 0.951 . S
C505 C506 1.366 . S
C505 C507 1.388 . S
C506 C505 1.366 . S
C506 C510 1.385 . S
C507 H488 0.951 . S
C507 C505 1.388 . S
C507 C508 1.366 . S
C508 C507 1.366 . S
C508 C509 1.414 . S
C508 C511 1.499 . S
C509 H489 0.950 . S
C509 C508 1.414 . S
C509 C510 1.374 . S
C510 H490 0.950 . S
C510 C506 1.385 . S
C510 C509 1.374 . S
C511 C508 1.499 . S
C511 C512 1.373 . S
C511 C513 1.389 . S
C512 H491 0.950 . S
C512 C511 1.373 . S
C512 C528 1.377 . S
C513 C511 1.389 . S
C513 C514 1.524 . S
C513 C527 1.377 . S
C514 C513 1.524 . S
C514 C515 1.397 . S
C514 C519 1.363 . S
C515 H492 0.950 . S
C515 C514 1.397 . S
C515 C516 1.334 . S
C516 H493 0.950 . S
C516 C515 1.334 . S
C516 C517 1.287 . S
C517 C516 1.287 . S
C517 C518 1.524 . S
C517 H536 0.913 . S
C518 H494 0.950 . S
C518 C517 1.524 . S
C518 C519 1.415 . S
C519 H495 0.950 . S
C519 C514 1.363 . S
C519 C518 1.415 . S
C520 H496 0.951 . S
C520 C521 1.366 . S
C520 C522 1.388 . S
C521 C520 1.366 . S
C521 C525 1.385 . S
C522 H497 0.951 . S
C522 C520 1.388 . S
C522 C523 1.366 . S
C523 C522 1.366 . S
C523 C524 1.414 . S
C523 C526 1.499 . S
C524 H498 0.950 . S
C524 C523 1.414 . S
C524 C525 1.374 . S
C525 H499 0.950 . S
C525 C521 1.385 . S
C525 C524 1.374 . S
C526 C523 1.499 . S
C526 C527 1.373 . S
C526 C528 1.389 . S
C527 H500 0.950 . S
C527 C513 1.377 . S
C527 C526 1.373 . S
C528 C512 1.377 . S
C528 C526 1.389 . S
C528 C529 1.524 . S
C529 C528 1.524 . S
C529 C530 1.397 . S
C529 C534 1.363 . S
C530 H501 0.950 . S
C530 C529 1.397 . S
C530 C531 1.334 . S
C531 H502 0.950 . S
C531 C530 1.334 . S
C531 C532 1.287 . S
C532 C531 1.287 . S
C532 C533 1.524 . S
C532 H535 0.999 1_655 S
C533 H503 0.950 . S
C533 C532 1.524 . S
C533 C534 1.415 . S
C534 H504 0.950 . S
C534 C529 1.363 . S
C534 C533 1.415 . S
H535 C532 0.999 1_455 S
H536 C517 0.913 . S
H537 C555 0.951 . S
H538 C557 0.951 . S
H539 C559 0.950 . S
H540 C560 0.950 . S
H541 C562 0.950 . S
H542 C565 0.950 . S
H543 C566 0.950 . S
H544 C568 0.950 . S
H545 C569 0.950 . S
H546 C570 0.951 . S
H547 C572 0.951 . S
H548 C574 0.950 . S
H549 C575 0.950 . S
H550 C577 0.950 . S
H551 C580 0.950 . S
H552 C581 0.950 . S
H553 C583 0.950 . S
H554 C584 0.950 . S
C555 H537 0.951 . S
C555 C556 1.366 . S
C555 C557 1.388 . S
C556 C555 1.366 . S
C556 C560 1.385 . S
C557 H538 0.951 . S
C557 C555 1.388 . S
C557 C558 1.366 . S
C558 C557 1.366 . S
C558 C559 1.414 . S
C558 C561 1.499 . S
C559 H539 0.950 . S
C559 C558 1.414 . S
C559 C560 1.374 . S
C560 H540 0.950 . S
C560 C556 1.385 . S
C560 C559 1.374 . S
C561 C558 1.499 . S
C561 C562 1.373 . S
C561 C563 1.389 . S
C562 H541 0.950 . S
C562 C561 1.373 . S
C562 C578 1.377 . S
C563 C561 1.389 . S
C563 C564 1.524 . S
C563 C577 1.377 . S
C564 C563 1.524 . S
C564 C565 1.397 . S
C564 C569 1.363 . S
C565 H542 0.950 . S
C565 C564 1.397 . S
C565 C566 1.334 . S
C566 H543 0.950 . S
C566 C565 1.334 . S
C566 C567 1.287 . S
C567 C566 1.287 . S
C567 C568 1.524 . S
C567 H586 0.913 . S
C568 H544 0.950 . S
C568 C567 1.524 . S
C568 C569 1.415 . S
C569 H545 0.950 . S
C569 C564 1.363 . S
C569 C568 1.415 . S
C570 H546 0.951 . S
C570 C571 1.366 . S
C570 C572 1.388 . S
C571 C570 1.366 . S
C571 C575 1.385 . S
C572 H547 0.951 . S
C572 C570 1.388 . S
C572 C573 1.366 . S
C573 C572 1.366 . S
C573 C574 1.414 . S
C573 C576 1.499 . S
C574 H548 0.950 . S
C574 C573 1.414 . S
C574 C575 1.374 . S
C575 H549 0.950 . S
C575 C571 1.385 . S
C575 C574 1.374 . S
C576 C573 1.499 . S
C576 C577 1.373 . S
C576 C578 1.389 . S
C577 H550 0.950 . S
C577 C563 1.377 . S
C577 C576 1.373 . S
C578 C562 1.377 . S
C578 C576 1.389 . S
C578 C579 1.524 . S
C579 C578 1.524 . S
C579 C580 1.397 . S
C579 C584 1.363 . S
C580 H551 0.950 . S
C580 C579 1.397 . S
C580 C581 1.334 . S
C581 H552 0.950 . S
C581 C580 1.334 . S
C581 C582 1.287 . S
C582 C581 1.287 . S
C582 C583 1.524 . S
C582 H585 0.999 . S
C583 H553 0.950 . S
C583 C582 1.524 . S
C583 C584 1.415 . S
C584 H554 0.950 . S
C584 C579 1.363 . S
C584 C583 1.415 . S
H585 C582 0.999 . S
H586 C567 0.913 . S
H587 C605 0.951 . S
H588 C607 0.951 . S
H589 C609 0.950 . S
H590 C610 0.950 . S
H591 C612 0.950 . S
H592 C615 0.950 . S
H593 C616 0.950 . S
H594 C618 0.950 . S
H595 C619 0.950 . S
H596 C620 0.951 . S
H597 C622 0.951 . S
H598 C624 0.950 . S
H599 C625 0.950 . S
H600 C627 0.950 . S
H601 C630 0.950 . S
H602 C631 0.950 . S
H603 C633 0.950 . S
H604 C634 0.950 . S
C605 H587 0.951 . S
C605 C606 1.366 . S
C605 C607 1.388 . S
C606 C605 1.366 . S
C606 C610 1.385 . S
C607 H588 0.951 . S
C607 C605 1.388 . S
C607 C608 1.366 . S
C608 C607 1.366 . S
C608 C609 1.414 . S
C608 C611 1.499 . S
C609 H589 0.950 . S
C609 C608 1.414 . S
C609 C610 1.374 . S
C610 H590 0.950 . S
C610 C606 1.385 . S
C610 C609 1.374 . S
C611 C608 1.499 . S
C611 C612 1.373 . S
C611 C613 1.389 . S
C612 H591 0.950 . S
C612 C611 1.373 . S
C612 C628 1.377 . S
C613 C611 1.389 . S
C613 C614 1.524 . S
C613 C627 1.377 . S
C614 C613 1.524 . S
C614 C615 1.397 . S
C614 C619 1.363 . S
C615 H592 0.950 . S
C615 C614 1.397 . S
C615 C616 1.334 . S
C616 H593 0.950 . S
C616 C615 1.334 . S
C616 C617 1.287 . S
C617 C616 1.287 . S
C617 C618 1.524 . S
C617 H636 0.913 . S
C618 H594 0.950 . S
C618 C617 1.524 . S
C618 C619 1.415 . S
C619 H595 0.950 . S
C619 C614 1.363 . S
C619 C618 1.415 . S
C620 H596 0.951 . S
C620 C621 1.366 . S
C620 C622 1.388 . S
C621 C620 1.366 . S
C621 C625 1.385 . S
C622 H597 0.951 . S
C622 C620 1.388 . S
C622 C623 1.366 . S
C623 C622 1.366 . S
C623 C624 1.414 . S
C623 C626 1.499 . S
C624 H598 0.950 . S
C624 C623 1.414 . S
C624 C625 1.374 . S
C625 H599 0.950 . S
C625 C621 1.385 . S
C625 C624 1.374 . S
C626 C623 1.499 . S
C626 C627 1.373 . S
C626 C628 1.389 . S
C627 H600 0.950 . S
C627 C613 1.377 . S
C627 C626 1.373 . S
C628 C612 1.377 . S
C628 C626 1.389 . S
C628 C629 1.524 . S
C629 C628 1.524 . S
C629 C630 1.397 . S
C629 C634 1.363 . S
C630 H601 0.950 . S
C630 C629 1.397 . S
C630 C631 1.334 . S
C631 H602 0.950 . S
C631 C630 1.334 . S
C631 C632 1.287 . S
C632 C631 1.287 . S
C632 C633 1.524 . S
C632 H635 0.999 . S
C633 H603 0.950 . S
C633 C632 1.524 . S
C633 C634 1.415 . S
C634 H604 0.950 . S
C634 C629 1.363 . S
C634 C633 1.415 . S
H635 C632 0.999 . S
H636 C617 0.913 . S
H637 C655 0.951 . S
H638 C657 0.951 . S
H639 C659 0.950 . S
H640 C660 0.950 . S
H641 C662 0.950 . S
H642 C665 0.950 . S
H643 C666 0.950 . S
H644 C668 0.950 . S
H645 C669 0.950 . S
H646 C670 0.951 . S
H647 C672 0.951 . S
H648 C674 0.950 . S
H649 C675 0.950 . S
H650 C677 0.950 . S
H651 C680 0.950 . S
H652 C681 0.950 . S
H653 C683 0.950 . S
H654 C684 0.950 . S
C655 H637 0.951 . S
C655 C656 1.366 . S
C655 C657 1.388 . S
C656 C655 1.366 . S
C656 C660 1.385 . S
C657 H638 0.951 . S
C657 C655 1.388 . S
C657 C658 1.366 . S
C658 C657 1.366 . S
C658 C659 1.414 . S
C658 C661 1.499 . S
C659 H639 0.950 . S
C659 C658 1.414 . S
C659 C660 1.374 . S
C660 H640 0.950 . S
C660 C656 1.385 . S
C660 C659 1.374 . S
C661 C658 1.499 . S
C661 C662 1.373 . S
C661 C663 1.389 . S
C662 H641 0.950 . S
C662 C661 1.373 . S
C662 C678 1.377 . S
C663 C661 1.389 . S
C663 C664 1.524 . S
C663 C677 1.377 . S
C664 C663 1.524 . S
C664 C665 1.397 . S
C664 C669 1.363 . S
C665 H642 0.950 . S
C665 C664 1.397 . S
C665 C666 1.334 . S
C666 H643 0.950 . S
C666 C665 1.334 . S
C666 C667 1.287 . S
C667 C666 1.287 . S
C667 C668 1.524 . S
C667 H686 0.913 . S
C668 H644 0.950 . S
C668 C667 1.524 . S
C668 C669 1.415 . S
C669 H645 0.950 . S
C669 C664 1.363 . S
C669 C668 1.415 . S
C670 H646 0.951 . S
C670 C671 1.366 . S
C670 C672 1.388 . S
C671 C670 1.366 . S
C671 C675 1.385 . S
C672 H647 0.951 . S
C672 C670 1.388 . S
C672 C673 1.366 . S
C673 C672 1.366 . S
C673 C674 1.414 . S
C673 C676 1.499 . S
C674 H648 0.950 . S
C674 C673 1.414 . S
C674 C675 1.374 . S
C675 H649 0.950 . S
C675 C671 1.385 . S
C675 C674 1.374 . S
C676 C673 1.499 . S
C676 C677 1.373 . S
C676 C678 1.389 . S
C677 H650 0.950 . S
C677 C663 1.377 . S
C677 C676 1.373 . S
C678 C662 1.377 . S
C678 C676 1.389 . S
C678 C679 1.524 . S
C679 C678 1.524 . S
C679 C680 1.397 . S
C679 C684 1.363 . S
C680 H651 0.950 . S
C680 C679 1.397 . S
C680 C681 1.334 . S
C681 H652 0.950 . S
C681 C680 1.334 . S
C681 C682 1.287 . S
C682 C681 1.287 . S
C682 C683 1.524 . S
C682 H685 0.999 . S
C683 H653 0.950 . S
C683 C682 1.524 . S
C683 C684 1.415 . S
C684 H654 0.950 . S
C684 C679 1.363 . S
C684 C683 1.415 . S
H685 C682 0.999 . S
H686 C667 0.913 . S
H687 C705 0.951 . S
H688 C707 0.951 . S
H689 C709 0.950 . S
H690 C710 0.950 . S
H691 C712 0.950 . S
H692 C715 0.950 . S
H693 C716 0.950 . S
H694 C718 0.950 . S
H695 C719 0.950 . S
H696 C720 0.951 . S
H697 C722 0.951 . S
H698 C724 0.950 . S
H699 C725 0.950 . S
H700 C727 0.950 . S
H701 C730 0.950 . S
H702 C731 0.950 . S
H703 C733 0.950 . S
H704 C734 0.950 . S
C705 H687 0.951 . S
C705 C706 1.366 . S
C705 C707 1.388 . S
C706 C705 1.366 . S
C706 C710 1.385 . S
C707 H688 0.951 . S
C707 C705 1.388 . S
C707 C708 1.366 . S
C708 C707 1.366 . S
C708 C709 1.414 . S
C708 C711 1.499 . S
C709 H689 0.950 . S
C709 C708 1.414 . S
C709 C710 1.374 . S
C710 H690 0.950 . S
C710 C706 1.385 . S
C710 C709 1.374 . S
C711 C708 1.499 . S
C711 C712 1.373 . S
C711 C713 1.389 . S
C712 H691 0.950 . S
C712 C711 1.373 . S
C712 C728 1.377 . S
C713 C711 1.389 . S
C713 C714 1.524 . S
C713 C727 1.377 . S
C714 C713 1.524 . S
C714 C715 1.397 . S
C714 C719 1.363 . S
C715 H692 0.950 . S
C715 C714 1.397 . S
C715 C716 1.334 . S
C716 H693 0.950 . S
C716 C715 1.334 . S
C716 C717 1.287 . S
C717 C716 1.287 . S
C717 C718 1.524 . S
C717 H736 0.913 . S
C718 H694 0.950 . S
C718 C717 1.524 . S
C718 C719 1.415 . S
C719 H695 0.950 . S
C719 C714 1.363 . S
C719 C718 1.415 . S
C720 H696 0.951 . S
C720 C721 1.366 . S
C720 C722 1.388 . S
C721 C720 1.366 . S
C721 C725 1.385 . S
C722 H697 0.951 . S
C722 C720 1.388 . S
C722 C723 1.366 . S
C723 C722 1.366 . S
C723 C724 1.414 . S
C723 C726 1.499 . S
C724 H698 0.950 . S
C724 C723 1.414 . S
C724 C725 1.374 . S
C725 H699 0.950 . S
C725 C721 1.385 . S
C725 C724 1.374 . S
C726 C723 1.499 . S
C726 C727 1.373 . S
C726 C728 1.389 . S
C727 H700 0.950 . S
C727 C713 1.377 . S
C727 C726 1.373 . S
C728 C712 1.377 . S
C728 C726 1.389 . S
C728 C729 1.524 . S
C729 C728 1.524 . S
C729 C730 1.397 . S
C729 C734 1.363 . S
C730 H701 0.950 . S
C730 C729 1.397 . S
C730 C731 1.334 . S
C731 H702 0.950 . S
C731 C730 1.334 . S
C731 C732 1.287 . S
C732 C731 1.287 . S
C732 C733 1.524 . S
C732 H735 0.999 . S
C733 H703 0.950 . S
C733 C732 1.524 . S
C733 C734 1.415 . S
C734 H704 0.950 . S
C734 C729 1.363 . S
C734 C733 1.415 . S
H735 C732 0.999 . S
H736 C717 0.913 . S
H737 C755 0.951 . S
H738 C757 0.951 . S
H739 C759 0.950 . S
H740 C760 0.950 . S
H741 C762 0.950 . S
H742 C765 0.950 . S
H743 C766 0.950 . S
H744 C768 0.950 . S
H745 C769 0.950 . S
H746 C770 0.951 . S
H747 C772 0.951 . S
H748 C774 0.950 . S
H749 C775 0.950 . S
H750 C777 0.950 . S
H751 C780 0.950 . S
H752 C781 0.950 . S
H753 C783 0.950 . S
H754 C784 0.950 . S
C755 H737 0.951 . S
C755 C756 1.366 . S
C755 C757 1.388 . S
C756 C755 1.366 . S
C756 C760 1.385 . S
C757 H738 0.951 . S
C757 C755 1.388 . S
C757 C758 1.366 . S
C758 C757 1.366 . S
C758 C759 1.414 . S
C758 C761 1.499 . S
C759 H739 0.950 . S
C759 C758 1.414 . S
C759 C760 1.374 . S
C760 H740 0.950 . S
C760 C756 1.385 . S
C760 C759 1.374 . S
C761 C758 1.499 . S
C761 C762 1.373 . S
C761 C763 1.389 . S
C762 H741 0.950 . S
C762 C761 1.373 . S
C762 C778 1.377 . S
C763 C761 1.389 . S
C763 C764 1.524 . S
C763 C777 1.377 . S
C764 C763 1.524 . S
C764 C765 1.397 . S
C764 C769 1.363 . S
C765 H742 0.950 . S
C765 C764 1.397 . S
C765 C766 1.334 . S
C766 H743 0.950 . S
C766 C765 1.334 . S
C766 C767 1.287 . S
C767 C766 1.287 . S
C767 C768 1.524 . S
C767 H786 0.913 . S
C768 H744 0.950 . S
C768 C767 1.524 . S
C768 C769 1.415 . S
C769 H745 0.950 . S
C769 C764 1.363 . S
C769 C768 1.415 . S
C770 H746 0.951 . S
C770 C771 1.366 . S
C770 C772 1.388 . S
C771 C770 1.366 . S
C771 C775 1.385 . S
C772 H747 0.951 . S
C772 C770 1.388 . S
C772 C773 1.366 . S
C773 C772 1.366 . S
C773 C774 1.414 . S
C773 C776 1.499 . S
C774 H748 0.950 . S
C774 C773 1.414 . S
C774 C775 1.374 . S
C775 H749 0.950 . S
C775 C771 1.385 . S
C775 C774 1.374 . S
C776 C773 1.499 . S
C776 C777 1.373 . S
C776 C778 1.389 . S
C777 H750 0.950 . S
C777 C763 1.377 . S
C777 C776 1.373 . S
C778 C762 1.377 . S
C778 C776 1.389 . S
C778 C779 1.524 . S
C779 C778 1.524 . S
C779 C780 1.397 . S
C779 C784 1.363 . S
C780 H751 0.950 . S
C780 C779 1.397 . S
C780 C781 1.334 . S
C781 H752 0.950 . S
C781 C780 1.334 . S
C781 C782 1.287 . S
C782 C781 1.287 . S
C782 C783 1.524 . S
C782 H785 0.999 . S
C783 H753 0.950 . S
C783 C782 1.524 . S
C783 C784 1.415 . S
C784 H754 0.950 . S
C784 C779 1.363 . S
C784 C783 1.415 . S
H785 C782 0.999 . S
H786 C767 0.913 . S
H787 C805 0.951 . S
H788 C807 0.951 . S
H789 C809 0.950 . S
H790 C810 0.950 . S
H791 C812 0.950 . S
H792 C815 0.950 . S
H793 C816 0.950 . S
H794 C818 0.950 . S
H795 C819 0.950 . S
H796 C820 0.951 . S
H797 C822 0.951 . S
H798 C824 0.950 . S
H799 C825 0.950 . S
H800 C827 0.950 . S
H801 C830 0.950 . S
H802 C831 0.950 . S
H803 C833 0.950 . S
H804 C834 0.950 . S
C805 H787 0.951 . S
C805 C806 1.366 . S
C805 C807 1.388 . S
C806 C805 1.366 . S
C806 C810 1.385 . S
C807 H788 0.951 . S
C807 C805 1.388 . S
C807 C808 1.366 . S
C808 C807 1.366 . S
C808 C809 1.414 . S
C808 C811 1.499 . S
C809 H789 0.950 . S
C809 C808 1.414 . S
C809 C810 1.374 . S
C810 H790 0.950 . S
C810 C806 1.385 . S
C810 C809 1.374 . S
C811 C808 1.499 . S
C811 C812 1.373 . S
C811 C813 1.389 . S
C812 H791 0.950 . S
C812 C811 1.373 . S
C812 C828 1.377 . S
C813 C811 1.389 . S
C813 C814 1.524 . S
C813 C827 1.377 . S
C814 C813 1.524 . S
C814 C815 1.397 . S
C814 C819 1.363 . S
C815 H792 0.950 . S
C815 C814 1.397 . S
C815 C816 1.334 . S
C816 H793 0.950 . S
C816 C815 1.334 . S
C816 C817 1.287 . S
C817 C816 1.287 . S
C817 C818 1.524 . S
C817 H836 0.913 . S
C818 H794 0.950 . S
C818 C817 1.524 . S
C818 C819 1.415 . S
C819 H795 0.950 . S
C819 C814 1.363 . S
C819 C818 1.415 . S
C820 H796 0.951 . S
C820 C821 1.366 . S
C820 C822 1.388 . S
C821 C820 1.366 . S
C821 C825 1.385 . S
C822 H797 0.951 . S
C822 C820 1.388 . S
C822 C823 1.366 . S
C823 C822 1.366 . S
C823 C824 1.414 . S
C823 C826 1.499 . S
C824 H798 0.950 . S
C824 C823 1.414 . S
C824 C825 1.374 . S
C825 H799 0.950 . S
C825 C821 1.385 . S
C825 C824 1.374 . S
C826 C823 1.499 . S
C826 C827 1.373 . S
C826 C828 1.389 . S
C827 H800 0.950 . S
C827 C813 1.377 . S
C827 C826 1.373 . S
C828 C812 1.377 . S
C828 C826 1.389 . S
C828 C829 1.524 . S
C829 C828 1.524 . S
C829 C830 1.397 . S
C829 C834 1.363 . S
C830 H801 0.950 . S
C830 C829 1.397 . S
C830 C831 1.334 . S
C831 H802 0.950 . S
C831 C830 1.334 . S
C831 C832 1.287 . S
C832 C831 1.287 . S
C832 C833 1.524 . S
C832 H835 0.999 . S
C833 H803 0.950 . S
C833 C832 1.524 . S
C833 C834 1.415 . S
C834 H804 0.950 . S
C834 C829 1.363 . S
C834 C833 1.415 . S
H835 C832 0.999 . S
H836 C817 0.913 . S
H837 C855 0.951 . S
H838 C857 0.951 . S
H839 C859 0.950 . S
H840 C860 0.950 . S
H841 C862 0.950 . S
H842 C865 0.950 . S
H843 C866 0.950 . S
H844 C868 0.950 . S
H845 C869 0.950 . S
H846 C870 0.951 . S
H847 C872 0.951 . S
H848 C874 0.950 . S
H849 C875 0.950 . S
H850 C877 0.950 . S
H851 C880 0.950 . S
H852 C881 0.950 . S
H853 C883 0.950 . S
H854 C884 0.950 . S
C855 H837 0.951 . S
C855 C856 1.366 . S
C855 C857 1.388 . S
C856 C855 1.366 . S
C856 C860 1.385 . S
C857 H838 0.951 . S
C857 C855 1.388 . S
C857 C858 1.366 . S
C858 C857 1.366 . S
C858 C859 1.414 . S
C858 C861 1.499 . S
C859 H839 0.950 . S
C859 C858 1.414 . S
C859 C860 1.374 . S
C860 H840 0.950 . S
C860 C856 1.385 . S
C860 C859 1.374 . S
C861 C858 1.499 . S
C861 C862 1.373 . S
C861 C863 1.389 . S
C862 H841 0.950 . S
C862 C861 1.373 . S
C862 C878 1.377 . S
C863 C861 1.389 . S
C863 C864 1.524 . S
C863 C877 1.377 . S
C864 C863 1.524 . S
C864 C865 1.397 . S
C864 C869 1.363 . S
C865 H842 0.950 . S
C865 C864 1.397 . S
C865 C866 1.334 . S
C866 H843 0.950 . S
C866 C865 1.334 . S
C866 C867 1.287 . S
C867 C866 1.287 . S
C867 C868 1.524 . S
C867 H886 0.913 . S
C868 H844 0.950 . S
C868 C867 1.524 . S
C868 C869 1.415 . S
C869 H845 0.950 . S
C869 C864 1.363 . S
C869 C868 1.415 . S
C870 H846 0.951 . S
C870 C871 1.366 . S
C870 C872 1.388 . S
C871 C870 1.366 . S
C871 C875 1.385 . S
C872 H847 0.951 . S
C872 C870 1.388 . S
C872 C873 1.366 . S
C873 C872 1.366 . S
C873 C874 1.414 . S
C873 C876 1.499 . S
C874 H848 0.950 . S
C874 C873 1.414 . S
C874 C875 1.374 . S
C875 H849 0.950 . S
C875 C871 1.385 . S
C875 C874 1.374 . S
C876 C873 1.499 . S
C876 C877 1.373 . S
C876 C878 1.389 . S
C877 H850 0.950 . S
C877 C863 1.377 . S
C877 C876 1.373 . S
C878 C862 1.377 . S
C878 C876 1.389 . S
C878 C879 1.524 . S
C879 C878 1.524 . S
C879 C880 1.397 . S
C879 C884 1.363 . S
C880 H851 0.950 . S
C880 C879 1.397 . S
C880 C881 1.334 . S
C881 H852 0.950 . S
C881 C880 1.334 . S
C881 C882 1.287 . S
C882 C881 1.287 . S
C882 C883 1.524 . S
C882 H885 0.999 . S
C883 H853 0.950 . S
C883 C882 1.524 . S
C883 C884 1.415 . S
C884 H854 0.950 . S
C884 C879 1.363 . S
C884 C883 1.415 . S
H885 C882 0.999 . S
H886 C867 0.913 . S
H887 C905 0.951 . S
H888 C907 0.951 . S
H889 C909 0.950 . S
H890 C910 0.950 . S
H891 C912 0.950 . S
H892 C915 0.950 . S
H893 C916 0.950 . S
H894 C918 0.950 . S
H895 C919 0.950 . S
H896 C920 0.951 . S
H897 C922 0.951 . S
H898 C924 0.950 . S
H899 C925 0.950 . S
H900 C927 0.950 . S
H901 C930 0.950 . S
H902 C931 0.950 . S
H903 C933 0.950 . S
H904 C934 0.950 . S
C905 H887 0.951 . S
C905 C906 1.366 . S
C905 C907 1.388 . S
C906 C905 1.366 . S
C906 C910 1.385 . S
C907 H888 0.951 . S
C907 C905 1.388 . S
C907 C908 1.366 . S
C908 C907 1.366 . S
C908 C909 1.414 . S
C908 C911 1.499 . S
C909 H889 0.950 . S
C909 C908 1.414 . S
C909 C910 1.374 . S
C910 H890 0.950 . S
C910 C906 1.385 . S
C910 C909 1.374 . S
C911 C908 1.499 . S
C911 C912 1.373 . S
C911 C913 1.389 . S
C912 H891 0.950 . S
C912 C911 1.373 . S
C912 C928 1.377 . S
C913 C911 1.389 . S
C913 C914 1.524 . S
C913 C927 1.377 . S
C914 C913 1.524 . S
C914 C915 1.397 . S
C914 C919 1.363 . S
C915 H892 0.950 . S
C915 C914 1.397 . S
C915 C916 1.334 . S
C916 H893 0.950 . S
C916 C915 1.334 . S
C916 C917 1.287 . S
C917 C916 1.287 . S
C917 C918 1.524 . S
C917 H936 0.913 . S
C918 H894 0.950 . S
C918 C917 1.524 . S
C918 C919 1.415 . S
C919 H895 0.950 . S
C919 C914 1.363 . S
C919 C918 1.415 . S
C920 H896 0.951 . S
C920 C921 1.366 . S
C920 C922 1.388 . S
C921 C920 1.366 . S
C921 C925 1.385 . S
C922 H897 0.951 . S
C922 C920 1.388 . S
C922 C923 1.366 . S
C923 C922 1.366 . S
C923 C924 1.414 . S
C923 C926 1.499 . S
C924 H898 0.950 . S
C924 C923 1.414 . S
C924 C925 1.374 . S
C925 H899 0.950 . S
C925 C921 1.385 . S
C925 C924 1.374 . S
C926 C923 1.499 . S
C926 C927 1.373 . S
C926 C928 1.389 . S
C927 H900 0.950 . S
C927 C913 1.377 . S
C927 C926 1.373 . S
C928 C912 1.377 . S
C928 C926 1.389 . S
C928 C929 1.524 . S
C929 C928 1.524 . S
C929 C930 1.397 . S
C929 C934 1.363 . S
C930 H901 0.950 . S
C930 C929 1.397 . S
C930 C931 1.334 . S
C931 H902 0.950 . S
C931 C930 1.334 . S
C931 C932 1.287 . S
C932 C931 1.287 . S
C932 C933 1.524 . S
C932 H935 0.999 . S
C933 H903 0.950 . S
C933 C932 1.524 . S
C933 C934 1.415 . S
C934 H904 0.950 . S
C934 C929 1.363 . S
C934 C933 1.415 . S
H935 C932 0.999 . S
H936 C917 0.913 . S
H937 C955 0.951 . S
H938 C957 0.951 . S
H939 C959 0.950 . S
H940 C960 0.950 . S
H941 C962 0.950 . S
H942 C965 0.950 . S
H943 C966 0.950 . S
H944 C968 0.950 . S
H945 C969 0.950 . S
H946 C970 0.951 . S
H947 C972 0.951 . S
H948 C974 0.950 . S
H949 C975 0.950 . S
H950 C977 0.950 . S
H951 C980 0.950 . S
H952 C981 0.950 . S
H953 C983 0.950 . S
H954 C984 0.950 . S
C955 H937 0.951 . S
C955 C956 1.366 . S
C955 C957 1.388 . S
C956 C955 1.366 . S
C956 C960 1.385 . S
C957 H938 0.951 . S
C957 C955 1.388 . S
C957 C958 1.366 . S
C958 C957 1.366 . S
C958 C959 1.414 . S
C958 C961 1.499 . S
C959 H939 0.950 . S
C959 C958 1.414 . S
C959 C960 1.374 . S
C960 H940 0.950 . S
C960 C956 1.385 . S
C960 C959 1.374 . S
C961 C958 1.499 . S
C961 C962 1.373 . S
C961 C963 1.389 . S
C962 H941 0.950 . S
C962 C961 1.373 . S
C962 C978 1.377 . S
C963 C961 1.389 . S
C963 C964 1.524 . S
C963 C977 1.377 . S
C964 C963 1.524 . S
C964 C965 1.397 . S
C964 C969 1.363 . S
C965 H942 0.950 . S
C965 C964 1.397 . S
C965 C966 1.334 . S
C966 H943 0.950 . S
C966 C965 1.334 . S
C966 C967 1.287 . S
C967 C966 1.287 . S
C967 C968 1.524 . S
C967 H986 0.913 . S
C968 H944 0.950 . S
C968 C967 1.524 . S
C968 C969 1.415 . S
C969 H945 0.950 . S
C969 C964 1.363 . S
C969 C968 1.415 . S
C970 H946 0.951 . S
C970 C971 1.366 . S
C970 C972 1.388 . S
C971 C970 1.366 . S
C971 C975 1.385 . S
C972 H947 0.951 . S
C972 C970 1.388 . S
C972 C973 1.366 . S
C973 C972 1.366 . S
C973 C974 1.414 . S
C973 C976 1.499 . S
C974 H948 0.950 . S
C974 C973 1.414 . S
C974 C975 1.374 . S
C975 H949 0.950 . S
C975 C971 1.385 . S
C975 C974 1.374 . S
C976 C973 1.499 . S
C976 C977 1.373 . S
C976 C978 1.389 . S
C977 H950 0.950 . S
C977 C963 1.377 . S
C977 C976 1.373 . S
C978 C962 1.377 . S
C978 C976 1.389 . S
C978 C979 1.524 . S
C979 C978 1.524 . S
C979 C980 1.397 . S
C979 C984 1.363 . S
C980 H951 0.950 . S
C980 C979 1.397 . S
C980 C981 1.334 . S
C981 H952 0.950 . S
C981 C980 1.334 . S
C981 C982 1.287 . S
C982 C981 1.287 . S
C982 C983 1.524 . S
C982 H985 0.999 . S
C983 H953 0.950 . S
C983 C982 1.524 . S
C983 C984 1.415 . S
C984 H954 0.950 . S
C984 C979 1.363 . S
C984 C983 1.415 . S
H985 C982 0.999 . S
H986 C967 0.913 . S
H987 C1005 0.951 . S
H988 C1007 0.951 . S
H989 C1009 0.950 . S
H990 C1010 0.950 . S
H991 C1012 0.950 . S
H992 C1015 0.950 . S
H993 C1016 0.950 . S
H994 C1018 0.950 . S
H995 C1019 0.950 . S
H996 C1020 0.951 . S
H997 C1022 0.951 . S
H998 C1024 0.950 . S
H999 C1025 0.950 . S
H1000 C1027 0.950 . S
H1001 C1030 0.950 . S
H1002 C1031 0.950 . S
H1003 C1033 0.950 . S
H1004 C1034 0.950 . S
C1005 H987 0.951 . S
C1005 C1006 1.366 . S
C1005 C1007 1.388 . S
C1006 C1005 1.366 . S
C1006 C1010 1.385 . S
C1007 H988 0.951 . S
C1007 C1005 1.388 . S
C1007 C1008 1.366 . S
C1008 C1007 1.366 . S
C1008 C1009 1.414 . S
C1008 C1011 1.499 . S
C1009 H989 0.950 . S
C1009 C1008 1.414 . S
C1009 C1010 1.374 . S
C1010 H990 0.950 . S
C1010 C1006 1.385 . S
C1010 C1009 1.374 . S
C1011 C1008 1.499 . S
C1011 C1012 1.373 . S
C1011 C1013 1.389 . S
C1012 H991 0.950 . S
C1012 C1011 1.373 . S
C1012 C1028 1.377 . S
C1013 C1011 1.389 . S
C1013 C1014 1.524 . S
C1013 C1027 1.377 . S
C1014 C1013 1.524 . S
C1014 C1015 1.397 . S
C1014 C1019 1.363 . S
C1015 H992 0.950 . S
C1015 C1014 1.397 . S
C1015 C1016 1.334 . S
C1016 H993 0.950 . S
C1016 C1015 1.334 . S
C1016 C1017 1.287 . S
C1017 C1016 1.287 . S
C1017 C1018 1.524 . S
C1017 H1036 0.913 . S
C1018 H994 0.950 . S
C1018 C1017 1.524 . S
C1018 C1019 1.415 . S
C1019 H995 0.950 . S
C1019 C1014 1.363 . S
C1019 C1018 1.415 . S
C1020 H996 0.951 . S
C1020 C1021 1.366 . S
C1020 C1022 1.388 . S
C1021 C1020 1.366 . S
C1021 C1025 1.385 . S
C1022 H997 0.951 . S
C1022 C1020 1.388 . S
C1022 C1023 1.366 . S
C1023 C1022 1.366 . S
C1023 C1024 1.414 . S
C1023 C1026 1.499 . S
C1024 H998 0.950 . S
C1024 C1023 1.414 . S
C1024 C1025 1.374 . S
C1025 H999 0.950 . S
C1025 C1021 1.385 . S
C1025 C1024 1.374 . S
C1026 C1023 1.499 . S
C1026 C1027 1.373 . S
C1026 C1028 1.389 . S
C1027 H1000 0.950 . S
C1027 C1013 1.377 . S
C1027 C1026 1.373 . S
C1028 C1012 1.377 . S
C1028 C1026 1.389 . S
C1028 C1029 1.524 . S
C1029 C1028 1.524 . S
C1029 C1030 1.397 . S
C1029 C1034 1.363 . S
C1030 H1001 0.950 . S
C1030 C1029 1.397 . S
C1030 C1031 1.334 . S
C1031 H1002 0.950 . S
C1031 C1030 1.334 . S
C1031 C1032 1.287 . S
C1032 C1031 1.287 . S
C1032 C1033 1.524 . S
C1032 H1035 0.999 . S
C1033 H1003 0.950 . S
C1033 C1032 1.524 . S
C1033 C1034 1.415 . S
C1034 H1004 0.950 . S
C1034 C1029 1.363 . S
C1034 C1033 1.415 . S
H1035 C1032 0.999 . S
H1036 C1017 0.913 . S
H1037 C1055 0.951 . S
H1038 C1057 0.951 . S
H1039 C1059 0.950 . S
H1040 C1060 0.950 . S
H1041 C1062 0.950 . S
H1042 C1065 0.950 . S
H1043 C1066 0.950 . S
H1044 C1068 0.950 . S
H1045 C1069 0.950 . S
H1046 C1070 0.951 . S
H1047 C1072 0.951 . S
H1048 C1074 0.950 . S
H1049 C1075 0.950 . S
H1050 C1077 0.950 . S
H1051 C1080 0.950 . S
H1052 C1081 0.950 . S
H1053 C1083 0.950 . S
H1054 C1084 0.950 . S
C1055 H1037 0.951 . S
C1055 C1056 1.366 . S
C1055 C1057 1.388 . S
C1056 C1055 1.366 . S
C1056 C1060 1.385 . S
C1057 H1038 0.951 . S
C1057 C1055 1.388 . S
C1057 C1058 1.366 . S
C1058 C1057 1.366 . S
C1058 C1059 1.414 . S
C1058 C1061 1.499 . S
C1059 H1039 0.950 . S
C1059 C1058 1.414 . S
C1059 C1060 1.374 . S
C1060 H1040 0.950 . S
C1060 C1056 1.385 . S
C1060 C1059 1.374 . S
C1061 C1058 1.499 . S
C1061 C1062 1.373 . S
C1061 C1063 1.389 . S
C1062 H1041 0.950 . S
C1062 C1061 1.373 . S
C1062 C1078 1.377 . S
C1063 C1061 1.389 . S
C1063 C1064 1.524 . S
C1063 C1077 1.377 . S
C1064 C1063 1.524 . S
C1064 C1065 1.397 . S
C1064 C1069 1.363 . S
C1065 H1042 0.950 . S
C1065 C1064 1.397 . S
C1065 C1066 1.334 . S
C1066 H1043 0.950 . S
C1066 C1065 1.334 . S
C1066 C1067 1.287 . S
C1067 C1066 1.287 . S
C1067 C1068 1.524 . S
C1067 H1086 0.913 . S
C1068 H1044 0.950 . S
C1068 C1067 1.524 . S
C1068 C1069 1.415 . S
C1069 H1045 0.950 . S
C1069 C1064 1.363 . S
C1069 C1068 1.415 . S
C1070 H1046 0.951 . S
C1070 C1071 1.366 . S
C1070 C1072 1.388 . S
C1071 C1070 1.366 . S
C1071 C1075 1.385 . S
C1072 H1047 0.951 . S
C1072 C1070 1.388 . S
C1072 C1073 1.366 . S
C1073 C1072 1.366 . S
C1073 C1074 1.414 . S
C1073 C1076 1.499 . S
C1074 H1048 0.950 . S
C1074 C1073 1.414 . S
C1074 C1075 1.374 . S
C1075 H1049 0.950 . S
C1075 C1071 1.385 . S
C1075 C1074 1.374 . S
C1076 C1073 1.499 . S
C1076 C1077 1.373 . S
C1076 C1078 1.389 . S
C1077 H1050 0.950 . S
C1077 C1063 1.377 . S
C1077 C1076 1.373 . S
C1078 C1062 1.377 . S
C1078 C1076 1.389 . S
C1078 C1079 1.524 . S
C1079 C1078 1.524 . S
C1079 C1080 1.397 . S
C1079 C1084 1.363 . S
C1080 H1051 0.950 . S
C1080 C1079 1.397 . S
C1080 C1081 1.334 . S
C1081 H1052 0.950 . S
C1081 C1080 1.334 . S
C1081 C1082 1.287 . S
C1082 C1081 1.287 . S
C1082 C1083 1.524 . S
C1082 H1085 0.999 . S
C1083 H1053 0.950 . S
C1083 C1082 1.524 . S
C1083 C1084 1.415 . S
C1084 H1054 0.950 . S
C1084 C1079 1.363 . S
C1084 C1083 1.415 . S
H1085 C1082 0.999 . S
H1086 C1067 0.913 . S
H1087 C1105 0.951 . S
H1088 C1107 0.951 . S
H1089 C1109 0.950 . S
H1090 C1110 0.950 . S
H1091 C1112 0.950 . S
H1092 C1115 0.950 . S
H1093 C1116 0.950 . S
H1094 C1118 0.950 . S
H1095 C1119 0.950 . S
H1096 C1120 0.951 . S
H1097 C1122 0.951 . S
H1098 C1124 0.950 . S
H1099 C1125 0.950 . S
H1100 C1127 0.950 . S
H1101 C1130 0.950 . S
H1102 C1131 0.950 . S
H1103 C1133 0.950 . S
H1104 C1134 0.950 . S
C1105 H1087 0.951 . S
C1105 C1106 1.366 . S
C1105 C1107 1.388 . S
C1106 C1105 1.366 . S
C1106 C1110 1.385 . S
C1107 H1088 0.951 . S
C1107 C1105 1.388 . S
C1107 C1108 1.366 . S
C1108 C1107 1.366 . S
C1108 C1109 1.414 . S
C1108 C1111 1.499 . S
C1109 H1089 0.950 . S
C1109 C1108 1.414 . S
C1109 C1110 1.374 . S
C1110 H1090 0.950 . S
C1110 C1106 1.385 . S
C1110 C1109 1.374 . S
C1111 C1108 1.499 . S
C1111 C1112 1.373 . S
C1111 C1113 1.389 . S
C1112 H1091 0.950 . S
C1112 C1111 1.373 . S
C1112 C1128 1.377 . S
C1113 C1111 1.389 . S
C1113 C1114 1.524 . S
C1113 C1127 1.377 . S
C1114 C1113 1.524 . S
C1114 C1115 1.397 . S
C1114 C1119 1.363 . S
C1115 H1092 0.950 . S
C1115 C1114 1.397 . S
C1115 C1116 1.334 . S
C1116 H1093 0.950 . S
C1116 C1115 1.334 . S
C1116 C1117 1.287 . S
C1117 C1116 1.287 . S
C1117 C1118 1.524 . S
C1117 H1136 0.913 . S
C1118 H1094 0.950 . S
C1118 C1117 1.524 . S
C1118 C1119 1.415 . S
C1119 H1095 0.950 . S
C1119 C1114 1.363 . S
C1119 C1118 1.415 . S
C1120 H1096 0.951 . S
C1120 C1121 1.366 . S
C1120 C1122 1.388 . S
C1121 C1120 1.366 . S
C1121 C1125 1.385 . S
C1122 H1097 0.951 . S
C1122 C1120 1.388 . S
C1122 C1123 1.366 . S
C1123 C1122 1.366 . S
C1123 C1124 1.414 . S
C1123 C1126 1.499 . S
C1124 H1098 0.950 . S
C1124 C1123 1.414 . S
C1124 C1125 1.374 . S
C1125 H1099 0.950 . S
C1125 C1121 1.385 . S
C1125 C1124 1.374 . S
C1126 C1123 1.499 . S
C1126 C1127 1.373 . S
C1126 C1128 1.389 . S
C1127 H1100 0.950 . S
C1127 C1113 1.377 . S
C1127 C1126 1.373 . S
C1128 C1112 1.377 . S
C1128 C1126 1.389 . S
C1128 C1129 1.524 . S
C1129 C1128 1.524 . S
C1129 C1130 1.397 . S
C1129 C1134 1.363 . S
C1130 H1101 0.950 . S
C1130 C1129 1.397 . S
C1130 C1131 1.334 . S
C1131 H1102 0.950 . S
C1131 C1130 1.334 . S
C1131 C1132 1.287 . S
C1132 C1131 1.287 . S
C1132 C1133 1.524 . S
C1132 H1135 0.999 . S
C1133 H1103 0.950 . S
C1133 C1132 1.524 . S
C1133 C1134 1.415 . S
C1134 H1104 0.950 . S
C1134 C1129 1.363 . S
C1134 C1133 1.415 . S
H1135 C1132 0.999 . S
H1136 C1117 0.913 . S
H1137 C1155 0.951 . S
H1138 C1157 0.951 . S
H1139 C1159 0.950 . S
H1140 C1160 0.950 . S
H1141 C1162 0.950 . S
H1142 C1165 0.950 . S
H1143 C1166 0.950 . S
H1144 C1168 0.950 . S
H1145 C1169 0.950 . S
H1146 C1170 0.951 . S
H1147 C1172 0.951 . S
H1148 C1174 0.950 . S
H1149 C1175 0.950 . S
H1150 C1177 0.950 . S
H1151 C1180 0.950 . S
H1152 C1181 0.950 . S
H1153 C1183 0.950 . S
H1154 C1184 0.950 . S
C1155 H1137 0.951 . S
C1155 C1156 1.366 . S
C1155 C1157 1.388 . S
C1156 C1155 1.366 . S
C1156 C1160 1.385 . S
C1157 H1138 0.951 . S
C1157 C1155 1.388 . S
C1157 C1158 1.366 . S
C1158 C1157 1.366 . S
C1158 C1159 1.414 . S
C1158 C1161 1.499 . S
C1159 H1139 0.950 . S
C1159 C1158 1.414 . S
C1159 C1160 1.374 . S
C1160 H1140 0.950 . S
C1160 C1156 1.385 . S
C1160 C1159 1.374 . S
C1161 C1158 1.499 . S
C1161 C1162 1.373 . S
C1161 C1163 1.389 . S
C1162 H1141 0.950 . S
C1162 C1161 1.373 . S
C1162 C1178 1.377 . S
C1163 C1161 1.389 . S
C1163 C1164 1.524 . S
C1163 C1177 1.377 . S
C1164 C1163 1.524 . S
C1164 C1165 1.397 . S
C1164 C1169 1.363 . S
C1165 H1142 0.950 . S
C1165 C1164 1.397 . S
C1165 C1166 1.334 . S
C1166 H1143 0.950 . S
C1166 C1165 1.334 . S
C1166 C1167 1.287 . S
C1167 C1166 1.287 . S
C1167 C1168 1.524 . S
C1167 H1186 0.913 . S
C1168 H1144 0.950 . S
C1168 C1167 1.524 . S
C1168 C1169 1.415 . S
C1169 H1145 0.950 . S
C1169 C1164 1.363 . S
C1169 C1168 1.415 . S
C1170 H1146 0.951 . S
C1170 C1171 1.366 . S
C1170 C1172 1.388 . S
C1171 C1170 1.366 . S
C1171 C1175 1.385 . S
C1172 H1147 0.951 . S
C1172 C1170 1.388 . S
C1172 C1173 1.366 . S
C1173 C1172 1.366 . S
C1173 C1174 1.414 . S
C1173 C1176 1.499 . S
C1174 H1148 0.950 . S
C1174 C1173 1.414 . S
C1174 C1175 1.374 . S
C1175 H1149 0.950 . S
C1175 C1171 1.385 . S
C1175 C1174 1.374 . S
C1176 C1173 1.499 . S
C1176 C1177 1.373 . S
C1176 C1178 1.389 . S
C1177 H1150 0.950 . S
C1177 C1163 1.377 . S
C1177 C1176 1.373 . S
C1178 C1162 1.377 . S
C1178 C1176 1.389 . S
C1178 C1179 1.524 . S
C1179 C1178 1.524 . S
C1179 C1180 1.397 . S
C1179 C1184 1.363 . S
C1180 H1151 0.950 . S
C1180 C1179 1.397 . S
C1180 C1181 1.334 . S
C1181 H1152 0.950 . S
C1181 C1180 1.334 . S
C1181 C1182 1.287 . S
C1182 C1181 1.287 . S
C1182 C1183 1.524 . S
C1182 H1185 0.999 . S
C1183 H1153 0.950 . S
C1183 C1182 1.524 . S
C1183 C1184 1.415 . S
C1184 H1154 0.950 . S
C1184 C1179 1.363 . S
C1184 C1183 1.415 . S
H1185 C1182 0.999 . S
H1186 C1167 0.913 . S
H1187 C1205 0.951 . S
H1188 C1207 0.951 . S
H1189 C1209 0.950 . S
H1190 C1210 0.950 . S
H1191 C1212 0.950 . S
H1192 C1215 0.950 . S
H1193 C1216 0.950 . S
H1194 C1218 0.950 . S
H1195 C1219 0.950 . S
H1196 C1220 0.951 . S
H1197 C1222 0.951 . S
H1198 C1224 0.950 . S
H1199 C1225 0.950 . S
H1200 C1227 0.950 . S
H1201 C1230 0.950 . S
H1202 C1231 0.950 . S
H1203 C1233 0.950 . S
H1204 C1234 0.950 . S
C1205 H1187 0.951 . S
C1205 C1206 1.366 . S
C1205 C1207 1.388 . S
C1206 C1205 1.366 . S
C1206 C1210 1.385 . S
C1207 H1188 0.951 . S
C1207 C1205 1.388 . S
C1207 C1208 1.366 . S
C1208 C1207 1.366 . S
C1208 C1209 1.414 . S
C1208 C1211 1.499 . S
C1209 H1189 0.950 . S
C1209 C1208 1.414 . S
C1209 C1210 1.374 . S
C1210 H1190 0.950 . S
C1210 C1206 1.385 . S
C1210 C1209 1.374 . S
C1211 C1208 1.499 . S
C1211 C1212 1.373 . S
C1211 C1213 1.389 . S
C1212 H1191 0.950 . S
C1212 C1211 1.373 . S
C1212 C1228 1.377 . S
C1213 C1211 1.389 . S
C1213 C1214 1.524 . S
C1213 C1227 1.377 . S
C1214 C1213 1.524 . S
C1214 C1215 1.397 . S
C1214 C1219 1.363 . S
C1215 H1192 0.950 . S
C1215 C1214 1.397 . S
C1215 C1216 1.334 . S
C1216 H1193 0.950 . S
C1216 C1215 1.334 . S
C1216 C1217 1.287 . S
C1217 C1216 1.287 . S
C1217 C1218 1.524 . S
C1217 H1236 0.913 . S
C1218 H1194 0.950 . S
C1218 C1217 1.524 . S
C1218 C1219 1.415 . S
C1219 H1195 0.950 . S
C1219 C1214 1.363 . S
C1219 C1218 1.415 . S
C1220 H1196 0.951 . S
C1220 C1221 1.366 . S
C1220 C1222 1.388 . S
C1221 C1220 1.366 . S
C1221 C1225 1.385 . S
C1222 H1197 0.951 . S
C1222 C1220 1.388 . S
C1222 C1223 1.366 . S
C1223 C1222 1.366 . S
C1223 C1224 1.414 . S
C1223 C1226 1.499 . S
C1224 H1198 0.950 . S
C1224 C1223 1.414 . S
C1224 C1225 1.374 . S
C1225 H1199 0.950 . S
C1225 C1221 1.385 . S
C1225 C1224 1.374 . S
C1226 C1223 1.499 . S
C1226 C1227 1.373 . S
C1226 C1228 1.389 . S
C1227 H1200 0.950 . S
C1227 C1213 1.377 . S
C1227 C1226 1.373 . S
C1228 C1212 1.377 . S
C1228 C1226 1.389 . S
C1228 C1229 1.524 . S
C1229 C1228 1.524 . S
C1229 C1230 1.397 . S
C1229 C1234 1.363 . S
C1230 H1201 0.950 . S
C1230 C1229 1.397 . S
C1230 C1231 1.334 . S
C1231 H1202 0.950 . S
C1231 C1230 1.334 . S
C1231 C1232 1.287 . S
C1232 C1231 1.287 . S
C1232 C1233 1.524 . S
C1232 H1235 0.999 . S
C1233 H1203 0.950 . S
C1233 C1232 1.524 . S
C1233 C1234 1.415 . S
C1234 H1204 0.950 . S
C1234 C1229 1.363 . S
C1234 C1233 1.415 . S
H1235 C1232 0.999 . S
H1236 C1217 0.913 . S
H1237 C1255 0.951 . S
H1238 C1257 0.951 . S
H1239 C1259 0.950 . S
H1240 C1260 0.950 . S
H1241 C1262 0.950 . S
H1242 C1265 0.950 . S
H1243 C1266 0.950 . S
H1244 C1268 0.950 . S
H1245 C1269 0.950 . S
H1246 C1270 0.951 . S
H1247 C1272 0.951 . S
H1248 C1274 0.950 . S
H1249 C1275 0.950 . S
H1250 C1277 0.950 . S
H1251 C1280 0.950 . S
H1252 C1281 0.950 . S
H1253 C1283 0.950 . S
H1254 C1284 0.950 . S
C1255 H1237 0.951 . S
C1255 C1256 1.366 . S
C1255 C1257 1.388 . S
C1256 C1255 1.366 . S
C1256 C1260 1.385 . S
C1257 H1238 0.951 . S
C1257 C1255 1.388 . S
C1257 C1258 1.366 . S
C1258 C1257 1.366 . S
C1258 C1259 1.414 . S
C1258 C1261 1.499 . S
C1259 H1239 0.950 . S
C1259 C1258 1.414 . S
C1259 C1260 1.374 . S
C1260 H1240 0.950 . S
C1260 C1256 1.385 . S
C1260 C1259 1.374 . S
C1261 C1258 1.499 . S
C1261 C1262 1.373 . S
C1261 C1263 1.389 . S
C1262 H1241 0.950 . S
C1262 C1261 1.373 . S
C1262 C1278 1.377 . S
C1263 C1261 1.389 . S
C1263 C1264 1.524 . S
C1263 C1277 1.377 . S
C1264 C1263 1.524 . S
C1264 C1265 1.397 . S
C1264 C1269 1.363 . S
C1265 H1242 0.950 . S
C1265 C1264 1.397 . S
C1265 C1266 1.334 . S
C1266 H1243 0.950 . S
C1266 C1265 1.334 . S
C1266 C1267 1.287 . S
C1267 C1266 1.287 . S
C1267 C1268 1.524 . S
C1267 H1286 0.913 . S
C1268 H1244 0.950 . S
C1268 C1267 1.524 . S
C1268 C1269 1.415 . S
C1269 H1245 0.950 . S
C1269 C1264 1.363 . S
C1269 C1268 1.415 . S
C1270 H1246 0.951 . S
C1270 C1271 1.366 . S
C1270 C1272 1.388 . S
C1271 C1270 1.366 . S
C1271 C1275 1.385 . S
C1272 H1247 0.951 . S
C1272 C1270 1.388 . S
C1272 C1273 1.366 . S
C1273 C1272 1.366 . S
C1273 C1274 1.414 . S
C1273 C1276 1.499 . S
C1274 H1248 0.950 . S
C1274 C1273 1.414 . S
C1274 C1275 1.374 . S
C1275 H1249 0.950 . S
C1275 C1271 1.385 . S
C1275 C1274 1.374 . S
C1276 C1273 1.499 . S
C1276 C1277 1.373 . S
C1276 C1278 1.389 . S
C1277 H1250 0.950 . S
C1277 C1263 1.377 . S
C1277 C1276 1.373 . S
C1278 C1262 1.377 . S
C1278 C1276 1.389 . S
C1278 C1279 1.524 . S
C1279 C1278 1.524 . S
C1279 C1280 1.397 . S
C1279 C1284 1.363 . S
C1280 H1251 0.950 . S
C1280 C1279 1.397 . S
C1280 C1281 1.334 . S
C1281 H1252 0.950 . S
C1281 C1280 1.334 . S
C1281 C1282 1.287 . S
C1282 C1281 1.287 . S
C1282 C1283 1.524 . S
C1282 H1285 0.999 . S
C1283 H1253 0.950 . S
C1283 C1282 1.524 . S
C1283 C1284 1.415 . S
C1284 H1254 0.950 . S
C1284 C1279 1.363 . S
C1284 C1283 1.415 . S
H1285 C1282 0.999 . S
H1286 C1267 0.913 . S
H1287 C1305 0.951 . S
H1288 C1307 0.951 . S
H1289 C1309 0.950 . S
H1290 C1310 0.950 . S
H1291 C1312 0.950 . S
H1292 C1315 0.950 . S
H1293 C1316 0.950 . S
H1294 C1318 0.950 . S
H1295 C1319 0.950 . S
H1296 C1320 0.951 . S
H1297 C1322 0.951 . S
H1298 C1324 0.950 . S
H1299 C1325 0.950 . S
H1300 C1327 0.950 . S
H1301 C1330 0.950 . S
H1302 C1331 0.950 . S
H1303 C1333 0.950 . S
H1304 C1334 0.950 . S
C1305 H1287 0.951 . S
C1305 C1306 1.366 . S
C1305 C1307 1.388 . S
C1306 C1305 1.366 . S
C1306 C1310 1.385 . S
C1307 H1288 0.951 . S
C1307 C1305 1.388 . S
C1307 C1308 1.366 . S
C1308 C1307 1.366 . S
C1308 C1309 1.414 . S
C1308 C1311 1.499 . S
C1309 H1289 0.950 . S
C1309 C1308 1.414 . S
C1309 C1310 1.374 . S
C1310 H1290 0.950 . S
C1310 C1306 1.385 . S
C1310 C1309 1.374 . S
C1311 C1308 1.499 . S
C1311 C1312 1.373 . S
C1311 C1313 1.389 . S
C1312 H1291 0.950 . S
C1312 C1311 1.373 . S
C1312 C1328 1.377 . S
C1313 C1311 1.389 . S
C1313 C1314 1.524 . S
C1313 C1327 1.377 . S
C1314 C1313 1.524 . S
C1314 C1315 1.397 . S
C1314 C1319 1.363 . S
C1315 H1292 0.950 . S
C1315 C1314 1.397 . S
C1315 C1316 1.334 . S
C1316 H1293 0.950 . S
C1316 C1315 1.334 . S
C1316 C1317 1.287 . S
C1317 C1316 1.287 . S
C1317 C1318 1.524 . S
C1317 H1336 0.913 . S
C1318 H1294 0.950 . S
C1318 C1317 1.524 . S
C1318 C1319 1.415 . S
C1319 H1295 0.950 . S
C1319 C1314 1.363 . S
C1319 C1318 1.415 . S
C1320 H1296 0.951 . S
C1320 C1321 1.366 . S
C1320 C1322 1.388 . S
C1321 C1320 1.366 . S
C1321 C1325 1.385 . S
C1322 H1297 0.951 . S
C1322 C1320 1.388 . S
C1322 C1323 1.366 . S
C1323 C1322 1.366 . S
C1323 C1324 1.414 . S
C1323 C1326 1.499 . S
C1324 H1298 0.950 . S
C1324 C1323 1.414 . S
C1324 C1325 1.374 . S
C1325 H1299 0.950 . S
C1325 C1321 1.385 . S
C1325 C1324 1.374 . S
C1326 C1323 1.499 . S
C1326 C1327 1.373 . S
C1326 C1328 1.389 . S
C1327 H1300 0.950 . S
C1327 C1313 1.377 . S
C1327 C1326 1.373 . S
C1328 C1312 1.377 . S
C1328 C1326 1.389 . S
C1328 C1329 1.524 . S
C1329 C1328 1.524 . S
C1329 C1330 1.397 . S
C1329 C1334 1.363 . S
C1330 H1301 0.950 . S
C1330 C1329 1.397 . S
C1330 C1331 1.334 . S
C1331 H1302 0.950 . S
C1331 C1330 1.334 . S
C1331 C1332 1.287 . S
C1332 C1331 1.287 . S
C1332 C1333 1.524 . S
C1332 H1335 0.999 . S
C1333 H1303 0.950 . S
C1333 C1332 1.524 . S
C1333 C1334 1.415 . S
C1334 H1304 0.950 . S
C1334 C1329 1.363 . S
C1334 C1333 1.415 . S
H1335 C1332 0.999 . S
H1336 C1317 0.913 . S
H1337 C1355 0.951 . S
H1338 C1357 0.951 . S
H1339 C1359 0.950 . S
H1340 C1360 0.950 . S
H1341 C1362 0.950 . S
H1342 C1365 0.950 . S
H1343 C1366 0.950 . S
H1344 C1368 0.950 . S
H1345 C1369 0.950 . S
H1346 C1370 0.951 . S
H1347 C1372 0.951 . S
H1348 C1374 0.950 . S
H1349 C1375 0.950 . S
H1350 C1377 0.950 . S
H1351 C1380 0.950 . S
H1352 C1381 0.950 . S
H1353 C1383 0.950 . S
H1354 C1384 0.950 . S
C1355 H1337 0.951 . S
C1355 C1356 1.366 . S
C1355 C1357 1.388 . S
C1356 C1355 1.366 . S
C1356 C1360 1.385 . S
C1357 H1338 0.951 . S
C1357 C1355 1.388 . S
C1357 C1358 1.366 . S
C1358 C1357 1.366 . S
C1358 C1359 1.414 . S
C1358 C1361 1.499 . S
C1359 H1339 0.950 . S
C1359 C1358 1.414 . S
C1359 C1360 1.374 . S
C1360 H1340 0.950 . S
C1360 C1356 1.385 . S
C1360 C1359 1.374 . S
C1361 C1358 1.499 . S
C1361 C1362 1.373 . S
C1361 C1363 1.389 . S
C1362 H1341 0.950 . S
C1362 C1361 1.373 . S
C1362 C1378 1.377 . S
C1363 C1361 1.389 . S
C1363 C1364 1.524 . S
C1363 C1377 1.377 . S
C1364 C1363 1.524 . S
C1364 C1365 1.397 . S
C1364 C1369 1.363 . S
C1365 H1342 0.950 . S
C1365 C1364 1.397 . S
C1365 C1366 1.334 . S
C1366 H1343 0.950 . S
C1366 C1365 1.334 . S
C1366 C1367 1.287 . S
C1367 C1366 1.287 . S
C1367 C1368 1.524 . S
C1367 H1386 0.913 . S
C1368 H1344 0.950 . S
C1368 C1367 1.524 . S
C1368 C1369 1.415 . S
C1369 H1345 0.950 . S
C1369 C1364 1.363 . S
C1369 C1368 1.415 . S
C1370 H1346 0.951 . S
C1370 C1371 1.366 . S
C1370 C1372 1.388 . S
C1371 C1370 1.366 . S
C1371 C1375 1.385 . S
C1372 H1347 0.951 . S
C1372 C1370 1.388 . S
C1372 C1373 1.366 . S
C1373 C1372 1.366 . S
C1373 C1374 1.414 . S
C1373 C1376 1.499 . S
C1374 H1348 0.950 . S
C1374 C1373 1.414 . S
C1374 C1375 1.374 . S
C1375 H1349 0.950 . S
C1375 C1371 1.385 . S
C1375 C1374 1.374 . S
C1376 C1373 1.499 . S
C1376 C1377 1.373 . S
C1376 C1378 1.389 . S
C1377 H1350 0.950 . S
C1377 C1363 1.377 . S
C1377 C1376 1.373 . S
C1378 C1362 1.377 . S
C1378 C1376 1.389 . S
C1378 C1379 1.524 . S
C1379 C1378 1.524 . S
C1379 C1380 1.397 . S
C1379 C1384 1.363 . S
C1380 H1351 0.950 . S
C1380 C1379 1.397 . S
C1380 C1381 1.334 . S
C1381 H1352 0.950 . S
C1381 C1380 1.334 . S
C1381 C1382 1.287 . S
C1382 C1381 1.287 . S
C1382 C1383 1.524 . S
C1382 H1385 0.999 . S
C1383 H1353 0.950 . S
C1383 C1382 1.524 . S
C1383 C1384 1.415 . S
C1384 H1354 0.950 . S
C1384 C1379 1.363 . S
C1384 C1383 1.415 . S
H1385 C1382 0.999 . S
H1386 C1367 0.913 . S
C221 C112 1.316 . S
C206 C10 1.390 . S
C271 C148 1.248 . S
C256 C15 1.333 . S
C321 C113 1.703 . S
C306 C27 1.715 . S
C371 C143 1.542 . S
C356 C38 1.608 . S
C421 C110 1.397 . S
C406 C49 1.459 . S
C456 C59 1.955 . S
C471 C146 1.958 . S
C506 C71 0.606 . S
C521 C115 0.662 . S
C571 C145 1.460 . S
C556 C87 1.512 . S
C621 C149 1.825 . S
C606 C5 1.861 . S
C671 C114 1.045 . S
C656 C16 1.080 . S
C721 C142 1.635 . S
C706 C32 1.630 . S
C771 C111 1.081 . S
C756 C37 1.193 . S
C821 C144 1.678 . S
C806 C48 1.801 . S
C856 C65 1.318 . S
C871 C109 1.308 . S
C906 C70 1.069 . S
C921 C147 1.041 . S
C971 C116 1.440 . S
C956 C82 1.503 . S
C1021 C178 2.007 . S
C1006 C4 2.095 . S
C1056 C54 1.917 . S
C1071 C181 1.785 . S
C1121 C180 2.035 . S
C1106 C60 2.096 . S
C1156 C76 1.240 . S
C1171 C179 1.228 . S
C1221 C182 2.054 . S
C1206 C81 2.185 . S
C1256 C26 1.986 . S
C1271 C176 1.893 . S
C1321 C175 2.020 . S
C1306 C43 2.039 . S
C1356 C21 1.030 . S
C1371 C177 0.975 . S
