# Generated by pormake.
# Topology anh, (6,3)-cn, num edge types: 1
# Building blocks:
#     Node 0, Type 0, BuildingBlock: VOLQOD_clean_sbu_1, # of connection points: 6
#     Node 1, Type 0, BuildingBlock: VOLQOD_clean_sbu_1, # of connection points: 6
#     Node 2, Type 0, BuildingBlock: VOLQOD_clean_sbu_1, # of connection points: 6
#     Node 3, Type 1, BuildingBlock: VETTIZ_charged_linker_0, # of connection points: 3
#     Node 4, Type 1, BuildingBlock: VETTIZ_charged_linker_0, # of connection points: 3
#     Node 5, Type 1, BuildingBlock: VETTIZ_charged_linker_0, # of connection points: 3
#     Node 6, Type 1, BuildingBlock: VETTIZ_charged_linker_0, # of connection points: 3
#     Node 7, Type 1, BuildingBlock: VETTIZ_charged_linker_0, # of connection points: 3
#     Node 8, Type 1, BuildingBlock: VETTIZ_charged_linker_0, # of connection points: 3
#     Edge 9, Type (0, 1), BuildingBlock: ZUJKAS_clean_linker_0, # of connection points: 2
#     Edge 10, Type (0, 1), BuildingBlock: ZUJKAS_clean_linker_0, # of connection points: 2
#     Edge 11, Type (0, 1), BuildingBlock: ZUJKAS_clean_linker_0, # of connection points: 2
#     Edge 12, Type (0, 1), BuildingBlock: ZUJKAS_clean_linker_0, # of connection points: 2
#     Edge 13, Type (0, 1), BuildingBlock: ZUJKAS_clean_linker_0, # of connection points: 2
#     Edge 14, Type (0, 1), BuildingBlock: ZUJKAS_clean_linker_0, # of connection points: 2
#     Edge 15, Type (0, 1), BuildingBlock: ZUJKAS_clean_linker_0, # of connection points: 2
#     Edge 16, Type (0, 1), BuildingBlock: ZUJKAS_clean_linker_0, # of connection points: 2
#     Edge 17, Type (0, 1), BuildingBlock: ZUJKAS_clean_linker_0, # of connection points: 2
#     Edge 18, Type (0, 1), BuildingBlock: ZUJKAS_clean_linker_0, # of connection points: 2
#     Edge 19, Type (0, 1), BuildingBlock: ZUJKAS_clean_linker_0, # of connection points: 2
#     Edge 20, Type (0, 1), BuildingBlock: ZUJKAS_clean_linker_0, # of connection points: 2
#     Edge 21, Type (0, 1), BuildingBlock: ZUJKAS_clean_linker_0, # of connection points: 2
#     Edge 22, Type (0, 1), BuildingBlock: ZUJKAS_clean_linker_0, # of connection points: 2
#     Edge 23, Type (0, 1), BuildingBlock: ZUJKAS_clean_linker_0, # of connection points: 2
#     Edge 24, Type (0, 1), BuildingBlock: ZUJKAS_clean_linker_0, # of connection points: 2
#     Edge 25, Type (0, 1), BuildingBlock: ZUJKAS_clean_linker_0, # of connection points: 2
#     Edge 26, Type (0, 1), BuildingBlock: ZUJKAS_clean_linker_0, # of connection points: 2
# Relax obj value: 0.169
# Max RMSD: 0.231
# Mean RMSD: 0.117
data_MOF--net-anh--node1-VOLQOD_clean_sbu_1--node2-VETTIZ_charged_linker_0--edge1-ZUJKAS_clean_linker_0
_symmetry_space_group_name_H-M    P1
_symmetry_Int_Tables_number       1
_symmetry_cell_setting            triclinic
loop_
_symmetry_equiv_pos_as_xyz
'x, y, z'
_cell_length_a     42.611922
_cell_length_b     42.647911
_cell_length_c     92.141269
_cell_angle_alpha  90.014773
_cell_angle_beta   89.928538
_cell_angle_gamma 120.05216
loop_
_atom_site_label
_atom_site_type_symbol
_atom_site_fract_x
_atom_site_fract_y
_atom_site_fract_z
_atom_type_partial_charge
O0 O 0.01231 0.55234 0.19029 0.0
Zn1 Zn 0.01092 0.55911 0.16878 0.0
O2 O 0.01127 0.51941 0.15818 0.0
Zn3 Zn 0.96718 0.4938 0.14658 0.0
Zn4 Zn 0.01354 0.48569 0.1719 0.0
Zn5 Zn 0.05352 0.53891 0.14545 0.0
O6 O 0.97844 0.49819 0.12513 0.0
O7 O 0.03857 0.53022 0.12453 0.0
O8 O 0.96595 0.56201 0.16462 0.0
O9 O 0.9351 0.51482 0.15007 0.0
O10 O 0.93768 0.44121 0.15224 0.0
O11 O 0.96979 0.43628 0.17014 0.0
O12 O 0.0569 0.4801 0.16839 0.0
O13 O 0.05487 0.60689 0.16396 0.0
O14 O 0.08414 0.51614 0.14958 0.0
O15 O 0.08507 0.59268 0.14813 0.0
C16 C 0.01438 0.52887 0.19813 0.0
C17 C 0.00813 0.51379 0.11805 0.0
C18 C 0.94212 0.42248 0.16191 0.0
C19 C 0.93778 0.54161 0.1572 0.0
C20 C 0.08236 0.49359 0.15907 0.0
C21 C 0.08209 0.61601 0.15572 0.0
O22 O 0.01542 0.50215 0.19249 0.0
O23 O 0.46859 0.9905 0.4677 0.0
Zn24 Zn 0.46016 -0.00366 0.48872 0.0
O25 O 0.4986 -0.00225 0.5007 0.0
Zn26 Zn 0.52371 0.04404 0.51084 0.0
Zn27 Zn 0.53288 0.99131 0.48856 0.0
Zn28 Zn 0.47715 0.95907 0.51496 0.0
O29 O 0.52106 0.03775 0.53259 0.0
O30 O 0.48424 0.97858 0.53517 0.0
O31 O 0.45661 0.04135 0.49083 0.0
O32 O 0.50127 0.07435 0.50615 0.0
O33 O 0.57567 0.07247 0.5046 0.0
O34 O 0.58232 0.03607 0.48923 0.0
O35 O 0.53813 0.94892 0.49522 0.0
O36 O 0.41176 0.95416 0.49404 0.0
O37 O 0.50099 0.92915 0.51419 0.0
O38 O 0.42382 0.92595 0.51152 0.0
C39 C 0.49157 0.98516 0.46093 0.0
C40 C 0.5032 0.01003 0.54062 0.0
C41 C 0.59515 0.06606 0.49598 0.0
C42 C 0.47508 0.07014 0.49817 0.0
C43 C 0.524 0.92744 0.50593 0.0
C44 C 0.4015 0.9282 0.50303 0.0
O45 O 0.51711 0.98392 0.4676 0.0
O46 O 0.46285 0.4525 0.80215 0.0
Zn47 Zn 0.45212 0.4433 0.8235 0.0
O48 O 0.49215 0.47979 0.83525 0.0
Zn49 Zn 0.47443 0.5038 0.84812 0.0
Zn50 Zn 0.52917 0.51549 0.82242 0.0
Zn51 Zn 0.51331 0.45716 0.84703 0.0
O52 O 0.48255 0.49777 0.86914 0.0
O53 O 0.5082 0.46364 0.86832 0.0
O54 O 0.40526 0.44274 0.82755 0.0
O55 O 0.42101 0.48218 0.84567 0.0
O56 O 0.49694 0.55683 0.84342 0.0
O57 O 0.53239 0.56377 0.82459 0.0
O58 O 0.57816 0.52223 0.82689 0.0
O59 O 0.44434 0.39355 0.82776 0.0
O60 O 0.56665 0.47897 0.84296 0.0
O61 O 0.48785 0.40365 0.84354 0.0
C62 C 0.49039 0.47579 0.79505 0.0
C63 C 0.49573 0.48048 0.87551 0.0
C64 C 0.51881 0.57653 0.83351 0.0
C65 C 0.39726 0.45919 0.83709 0.0
C66 C 0.58881 0.50529 0.83502 0.0
C67 C 0.46068 0.3821 0.83587 0.0
O68 O 0.51806 0.5008 0.80148 0.0
C69 C 0.61147 0.0896 0.21764 0.0
C70 C 0.64168 0.115 0.22557 0.0
C71 C 0.64029 0.11422 0.24084 0.0
C72 C 0.5789 0.06341 0.24008 0.0
C73 C 0.58036 0.06439 0.22509 0.0
C74 C 0.54513 0.03687 0.21832 0.0
H75 H 0.37193 0.90172 0.22652 0.0
C76 C 0.54236 0.03455 0.24442 0.0
C77 C 0.52235 0.01914 0.23172 0.0
H78 H 0.43102 0.94683 0.18656 0.0
H79 H 0.48348 0.98932 0.20017 0.0
H80 H 0.43611 0.89878 0.24257 0.0
H81 H 0.40145 0.97781 0.24351 0.0
H82 H 0.41204 0.9722 0.2614 0.0
H83 H 0.37607 0.93415 0.25194 0.0
H84 H 0.39597 0.89098 0.25201 0.0
H85 H 0.43989 0.91351 0.2606 0.0
C86 C 0.55211 0.01011 0.20942 0.0
C87 C 0.53023 0.05734 0.20934 0.0
C88 C 0.51183 0.00603 0.2978 0.0
C89 C 0.48028 0.98076 0.30517 0.0
C90 C 0.44902 0.95771 0.29707 0.0
C91 C 0.44929 0.9596 0.28188 0.0
C92 C 0.48114 0.98481 0.27468 0.0
C93 C 0.51165 0.00758 0.28264 0.0
C94 C 0.54288 0.03305 0.27319 0.0
C95 C 0.52628 0.02138 0.25821 0.0
C96 C 0.49015 0.99315 0.25915 0.0
C97 C 0.57436 0.02534 0.2756 0.0
C98 C 0.55236 0.07238 0.27678 0.0
C99 C 0.39621 0.92065 0.22069 0.0
C100 C 0.39727 0.92085 0.20542 0.0
C101 C 0.42928 0.94637 0.19829 0.0
C102 C 0.45986 0.97084 0.20623 0.0
C103 C 0.45853 0.96982 0.22147 0.0
C104 C 0.42703 0.94511 0.22845 0.0
C105 C 0.43078 0.94749 0.2447 0.0
C106 C 0.46974 0.9778 0.24632 0.0
C107 C 0.4858 0.99075 0.23269 0.0
C108 C 0.4252 0.91083 0.2504 0.0
C109 C 0.4036 0.95822 0.25083 0.0
H110 H 0.60968 0.08922 0.25978 0.0
H111 H 0.61165 0.09008 0.20588 0.0
H112 H 0.53751 0.08376 0.21446 0.0
H113 H 0.50033 0.0427 0.20874 0.0
H114 H 0.54155 0.06299 0.19817 0.0
H115 H 0.57215 0.0048 0.21499 0.0
H116 H 0.56309 0.02122 0.1985 0.0
H117 H 0.52768 0.98317 0.2082 0.0
H118 H 0.53609 0.02457 0.30372 0.0
H119 H 0.42445 0.93784 0.30248 0.0
H120 H 0.4247 0.94124 0.27634 0.0
H121 H 0.56386 -0.00432 0.2764 0.0
H122 H 0.5891 0.038 0.28582 0.0
H123 H 0.59399 0.03471 0.26656 0.0
H124 H 0.52802 0.07334 0.28052 0.0
H125 H 0.56204 0.09042 0.2672 0.0
H126 H 0.57302 0.08417 0.28551 0.0
H127 H 0.6634 0.13359 0.24713 0.0
C128 C 0.60911 0.08845 0.24815 0.0
C129 C 0.52974 0.58868 0.54808 0.0
C130 C 0.53924 0.62166 0.555 0.0
C131 C 0.53856 0.62257 0.57032 0.0
C132 C 0.5174 0.55828 0.5714 0.0
C133 C 0.51848 0.55746 0.55643 0.0
C134 C 0.50447 0.51983 0.55065 0.0
H135 H 0.43362 0.34107 0.56353 0.0
C136 C 0.50279 0.52089 0.57676 0.0
C137 C 0.49485 0.49822 0.56464 0.0
H138 H 0.46039 0.39649 0.52213 0.0
H139 H 0.47934 0.45323 0.53421 0.0
H140 H 0.504 0.3958 0.57864 0.0
H141 H 0.3992 0.38758 0.57879 0.0
H142 H 0.41553 0.39521 0.59674 0.0
H143 H 0.40835 0.35514 0.58732 0.0
H144 H 0.46796 0.36404 0.59007 0.0
H145 H 0.49886 0.40981 0.59593 0.0
C146 C 0.53584 0.51902 0.54247 0.0
C147 C 0.4705 0.50965 0.54124 0.0
C148 C 0.49205 0.49564 0.63098 0.0
C149 C 0.48113 0.46391 0.63909 0.0
C150 C 0.46893 0.4308 0.63177 0.0
C151 C 0.46763 0.42927 0.61659 0.0
C152 C 0.47896 0.46126 0.60861 0.0
C153 C 0.49103 0.49374 0.61581 0.0
C154 C 0.50295 0.52509 0.60552 0.0
C155 C 0.49624 0.50606 0.59097 0.0
C156 C 0.4819 0.46867 0.59287 0.0
C157 C 0.54378 0.55188 0.60813 0.0
C158 C 0.4781 0.54155 0.60783 0.0
C159 C 0.44347 0.3654 0.55704 0.0
C160 C 0.44542 0.36418 0.54182 0.0
C161 C 0.45806 0.39649 0.53383 0.0
C162 C 0.46945 0.42955 0.54089 0.0
C163 C 0.46834 0.43042 0.55613 0.0
C164 C 0.45528 0.39866 0.56393 0.0
C165 C 0.45727 0.4049 0.58005 0.0
C166 C 0.47339 0.44566 0.58062 0.0
C167 C 0.47977 0.46039 0.56659 0.0
C168 C 0.48309 0.39287 0.58663 0.0
C169 C 0.41816 0.38455 0.58618 0.0
H170 H 0.52744 0.59358 0.59011 0.0
H171 H 0.5302 0.58685 0.53637 0.0
H172 H 0.45532 0.52271 0.54545 0.0
H173 H 0.45054 0.48036 0.54141 0.0
H174 H 0.47815 0.51858 0.52982 0.0
H175 H 0.56214 0.53615 0.54808 0.0
H176 H 0.53852 0.52951 0.53123 0.0
H177 H 0.53277 0.49175 0.54205 0.0
H178 H 0.50193 0.52153 0.63633 0.0
H179 H 0.46013 0.40599 0.63783 0.0
H180 H 0.45799 0.40325 0.61167 0.0
H181 H 0.55856 0.53697 0.6102 0.0
H182 H 0.54784 0.56935 0.6177 0.0
H183 H 0.5575 0.56929 0.59867 0.0
H184 H 0.4502 0.52029 0.61097 0.0
H185 H 0.47441 0.5537 0.59785 0.0
H186 H 0.48868 0.56223 0.61658 0.0
H187 H 0.54496 0.64727 0.57601 0.0
C188 C 0.52788 0.59116 0.57853 0.0
C189 C 0.10911 0.54153 0.87281 0.0
C190 C 0.13223 0.5316 0.87967 0.0
C191 C 0.13582 0.5342 0.89489 0.0
C192 C 0.09241 0.55495 0.89622 0.0
C193 C 0.08979 0.5534 0.88126 0.0
C194 C 0.06437 0.5654 0.87569 0.0
H195 H 0.93651 0.61024 0.88961 0.0
C196 C 0.06784 0.56719 0.90178 0.0
C197 C 0.05176 0.5739 0.8898 0.0
H198 H 0.97467 0.59664 0.84789 0.0
H199 H 0.02042 0.58815 0.85967 0.0
H200 H 0.93654 0.54594 0.90455 0.0
H201 H 0.01834 0.65886 0.90452 0.0
H202 H 0.01599 0.64246 0.92223 0.0
H203 H 0.97671 0.64173 0.91449 0.0
H204 H 0.93159 0.57922 0.91463 0.0
H205 H 0.95404 0.55672 0.92221 0.0
C206 C 0.03304 0.53296 0.8676 0.0
C207 C 0.08639 0.59974 0.86624 0.0
C208 C 0.04627 0.56628 0.95602 0.0
C209 C 0.02298 0.57351 0.96438 0.0
C210 C 0.00187 0.58595 0.95737 0.0
C211 C 0.00337 0.5904 0.94227 0.0
C212 C 0.02599 0.58203 0.93403 0.0
C213 C 0.0473 0.57065 0.94095 0.0
C214 C 0.06954 0.56277 0.93046 0.0
C215 C 0.05774 0.57092 0.91609 0.0
C216 C 0.03214 0.58202 0.91825 0.0
C217 C 0.05791 0.52218 0.93194 0.0
C218 C 0.1102 0.58931 0.9336 0.0
C219 C 0.95537 0.60639 0.88301 0.0
C220 C 0.952 0.60399 0.86781 0.0
C221 C 0.97659 0.59825 0.85962 0.0
C222 C 0.00303 0.59322 0.86649 0.0
C223 C 0.00461 0.59349 0.88172 0.0
C224 C 0.98166 0.60092 0.88971 0.0
C225 C 0.98664 0.59923 0.9058 0.0
C226 C 0.01611 0.58916 0.90613 0.0
C227 C 0.02626 0.58556 0.892 0.0
C228 C 0.95041 0.56895 0.91227 0.0
C229 C -0.00013 0.63739 0.91222 0.0
H230 H 0.11961 0.54685 0.91474 0.0
H231 H 0.10638 0.54038 0.8611 0.0
H232 H 0.11496 0.61578 0.87003 0.0
H233 H 0.0759 0.61874 0.86691 0.0
H234 H 0.08699 0.59252 0.8547 0.0
H235 H 0.02488 0.50713 0.87343 0.0
H236 H 0.0414 0.53035 0.85645 0.0
H237 H 0.00808 0.53461 0.86695 0.0
H238 H 0.06261 0.55637 0.96105 0.0
H239 H 0.98413 0.59224 0.96358 0.0
H240 H 0.98646 0.59969 0.93757 0.0
H241 H 0.02797 0.50531 0.9332 0.0
H242 H 0.07057 0.51751 0.94162 0.0
H243 H 0.06447 0.51118 0.92232 0.0
H244 H 0.11449 0.6155 0.93796 0.0
H245 H 0.12713 0.59682 0.92369 0.0
H246 H 0.12098 0.57786 0.94171 0.0
H247 H 0.15352 0.52662 0.90037 0.0
C248 C 0.11602 0.5458 0.9032 0.0
C249 C 0.91167 0.40884 0.44072 0.0
C250 C 0.88662 0.37856 0.43272 0.0
C251 C 0.88521 0.38126 0.41753 0.0
C252 C 0.93383 0.44366 0.41848 0.0
C253 C 0.93473 0.4411 0.43341 0.0
C254 C 0.96209 0.47625 0.44029 0.0
H255 H 0.10084 0.64755 0.43224 0.0
C256 C 0.96148 0.48077 0.41426 0.0
C257 C 0.9779 0.50011 0.42699 0.0
H258 H 0.05412 0.5899 0.47222 0.0
H259 H 0.00853 0.53866 0.45865 0.0
H260 H 0.09575 0.58069 0.41434 0.0
H261 H 0.0252 0.62552 0.41719 0.0
H262 H 0.02335 0.61164 0.39913 0.0
H263 H 0.0659 0.64649 0.40652 0.0
H264 H 0.10712 0.62407 0.40694 0.0
H265 H 0.08158 0.58302 0.39666 0.0
C266 C 0.99048 0.46989 0.4482 0.0
C267 C 0.94173 0.4895 0.45026 0.0
C268 C 0.98608 0.51387 0.36092 0.0
C269 C 0.01102 0.54568 0.35362 0.0
C270 C 0.03435 0.57666 0.3618 0.0
C271 C 0.03334 0.57573 0.377 0.0
C272 C 0.00875 0.54349 0.38413 0.0
C273 C 0.98541 0.5134 0.37609 0.0
C274 C 0.96083 0.48163 0.38548 0.0
C275 C 0.97347 0.49755 0.4005 0.0
C276 C 0.00165 0.53367 0.39963 0.0
C277 C 0.9688 0.45061 0.38228 0.0
C278 C 0.92112 0.47193 0.38257 0.0
C279 C 0.08076 0.62379 0.43803 0.0
C280 C 0.08114 0.62229 0.45324 0.0
C281 C 0.05422 0.59142 0.46048 0.0
C282 C 0.02799 0.56173 0.45258 0.0
C283 C 0.02867 0.56313 0.43732 0.0
C284 C 0.05427 0.59414 0.43032 0.0
C285 C 0.0502 0.59137 0.4141 0.0
C286 C 0.01834 0.55325 0.41248 0.0
C287 C 0.00617 0.53672 0.42609 0.0
C288 C 0.08546 0.59518 0.40754 0.0
C289 C 0.04093 0.62032 0.40884 0.0
H290 H 0.90646 0.41395 0.39878 0.0
H291 H 0.91276 0.40764 0.45244 0.0
H292 H 0.91363 0.47972 0.44635 0.0
H293 H 0.95446 0.51935 0.4504 0.0
H294 H 0.93979 0.47954 0.46155 0.0
H295 H -0.00189 0.45317 0.4414 0.0
H296 H 0.97948 0.45535 0.45862 0.0
H297 H 0.01611 0.49512 0.4504 0.0
H298 H 0.96736 0.48981 0.35494 0.0
H299 H 0.05396 0.60141 0.35643 0.0
H300 H 0.05205 0.60005 0.3826 0.0
H301 H -0.0016 0.46151 0.3808 0.0
H302 H 0.955 0.43596 0.37219 0.0
H303 H 0.96089 0.43087 0.39122 0.0
H304 H 0.9196 0.49639 0.37954 0.0
H305 H 0.90366 0.4611 0.39228 0.0
H306 H 0.90903 0.45213 0.37355 0.0
H307 H 0.86605 0.35816 0.41118 0.0
C308 C 0.90873 0.41362 0.41036 0.0
C309 C 0.49881 0.90128 0.78429 0.0
C310 C 0.51152 0.88101 0.77686 0.0
C311 C 0.51724 0.88568 0.76175 0.0
C312 C 0.49641 0.92908 0.76166 0.0
C313 C 0.49148 0.92504 0.77651 0.0
C314 C 0.47771 0.94849 0.78273 0.0
H315 H 0.42955 0.07547 0.7721 0.0
C316 C 0.48548 0.9552 0.75683 0.0
C317 C 0.4745 0.96668 0.76912 0.0
H318 H 0.43914 0.03059 0.81283 0.0
H319 H 0.45297 0.98968 0.79994 0.0
H320 H 0.49973 0.08446 0.75868 0.0
H321 H 0.38926 -0.0016 0.75408 0.0
H322 H 0.4095 0.00597 0.73686 0.0
H323 H 0.40603 0.04189 0.7457 0.0
H324 H 0.46727 0.08923 0.74794 0.0
H325 H 0.49397 0.0711 0.74042 0.0
C326 C 0.50682 0.97596 0.7933 0.0
C327 C 0.44025 0.92356 0.7898 0.0
C328 C 0.49201 0.98682 0.70337 0.0
C329 C 0.48356 0.01002 0.69562 0.0
C330 C 0.47018 0.0296 0.70321 0.0
C331 C 0.46527 0.0261 0.71828 0.0
C332 C 0.474 0.00291 0.72588 0.0
C333 C 0.48703 0.98369 0.71842 0.0
C334 C 0.4948 0.96031 0.72827 0.0
C335 C 0.48428 0.9687 0.74289 0.0
C336 C 0.47218 0.99366 0.74141 0.0
C337 C 0.5359 0.97347 0.72737 0.0
C338 C 0.46972 0.92026 0.7238 0.0
C339 C 0.43446 0.05671 0.77825 0.0
C340 C 0.4336 0.0565 0.7935 0.0
C341 C 0.43947 0.03118 0.80107 0.0
C342 C 0.44793 0.00775 0.79357 0.0
C343 C 0.45073 0.00981 0.77835 0.0
C344 C 0.4434 0.03356 0.77095 0.0
C345 C 0.44881 0.033 0.75485 0.0
C346 C 0.46138 0.00554 0.75383 0.0
C347 C 0.46236 0.99198 0.7676 0.0
C348 C 0.47877 0.07138 0.75009 0.0
C349 C 0.41166 0.01938 0.74736 0.0
H350 H 0.51447 0.9117 0.74263 0.0
H351 H 0.4938 0.89813 0.79587 0.0
H352 H 0.42419 0.89873 0.78316 0.0
H353 H 0.42327 0.93631 0.79053 0.0
H354 H 0.44329 0.91486 0.80082 0.0
H355 H 0.53461 0.98338 0.78965 0.0
H356 H 0.50303 0.96448 0.8044 0.0
H357 H 0.50717 0.002 0.79383 0.0
H358 H 0.50271 0.9717 0.69788 0.0
H359 H 0.46306 0.04729 0.69745 0.0
H360 H 0.45493 0.04165 0.72341 0.0
H361 H 0.552 0.00331 0.72574 0.0
H362 H 0.54195 0.96051 0.71817 0.0
H363 H 0.54673 0.9686 0.73748 0.0
H364 H 0.44262 0.91551 0.7204 0.0
H365 H 0.46405 0.90103 0.73279 0.0
H366 H 0.48136 0.91279 0.71453 0.0
H367 H 0.52757 0.87085 0.7558 0.0
C368 C 0.50973 0.90954 0.75412 0.0
C369 C 0.58809 0.50552 0.11913 0.0
C370 C 0.6212 0.51877 0.11165 0.0
C371 C 0.62086 0.51785 0.09634 0.0
C372 C 0.55545 0.4886 0.09627 0.0
C373 C 0.55568 0.49076 0.11124 0.0
C374 C 0.51812 0.4761 0.11738 0.0
H375 H 0.33826 0.40239 0.10514 0.0
C376 C 0.51748 0.47079 0.09136 0.0
C377 C 0.49539 0.46351 0.10364 0.0
H378 H 0.39613 0.44367 0.14557 0.0
H379 H 0.45167 0.45501 0.134 0.0
H380 H 0.39213 0.46579 0.08708 0.0
H381 H 0.38367 0.36188 0.09355 0.0
H382 H 0.3925 0.37273 0.07503 0.0
H383 H 0.35158 0.36779 0.08303 0.0
H384 H 0.35785 0.42555 0.07834 0.0
H385 H 0.40204 0.45318 0.07035 0.0
C386 C 0.5162 0.50766 0.1249 0.0
C387 C 0.50988 0.44397 0.12753 0.0
C388 C 0.48935 0.44759 0.03766 0.0
C389 C 0.4569 0.4323 0.02972 0.0
C390 C 0.42366 0.41784 0.03721 0.0
C391 C 0.42284 0.41912 0.0524 0.0
C392 C 0.45563 0.43542 0.06018 0.0
C393 C 0.48809 0.44894 0.05279 0.0
C394 C 0.52026 0.46572 0.06277 0.0
C395 C 0.50177 0.4603 0.07737 0.0
C396 C 0.46399 0.4426 0.07579 0.0
C397 C 0.54388 0.50644 0.0588 0.0
C398 C 0.54 0.44364 0.06147 0.0
C399 C 0.36281 0.4137 0.11156 0.0
C400 C 0.36272 0.4225 0.12627 0.0
C401 C 0.39524 0.43644 0.13425 0.0
C402 C 0.42763 0.44354 0.12746 0.0
C403 C 0.42763 0.43705 0.1125 0.0
C404 C 0.39544 0.42177 0.10488 0.0
C405 C 0.40076 0.41895 0.0889 0.0
C406 C 0.44158 0.43578 0.08815 0.0
C407 C 0.45718 0.44608 0.102 0.0
C408 C 0.38736 0.44175 0.08062 0.0
C409 C 0.38097 0.3783 0.08477 0.0
H410 H 0.58998 0.50251 0.07705 0.0
H411 H 0.58724 0.50583 0.13087 0.0
H412 H 0.51893 0.42613 0.12248 0.0
H413 H 0.48066 0.42638 0.12972 0.0
H414 H 0.52428 0.45374 0.13805 0.0
H415 H 0.5361 0.53433 0.12014 0.0
H416 H 0.52217 0.50878 0.13668 0.0
H417 H 0.48964 0.50597 0.12344 0.0
H418 H 0.51535 0.4594 0.03221 0.0
H419 H 0.3983 0.40564 0.03131 0.0
H420 H 0.39674 0.40789 0.05748 0.0
H421 H 0.52711 0.51728 0.05417 0.0
H422 H 0.56487 0.5108 0.05063 0.0
H423 H 0.55713 0.52375 0.06836 0.0
H424 H 0.52011 0.41417 0.06055 0.0
H425 H 0.55651 0.44612 0.07108 0.0
H426 H 0.55757 0.45177 0.05167 0.0
H427 H 0.64591 0.52879 0.09024 0.0
C428 C 0.58827 0.5027 0.08865 0.0
H429 H 0.14441 0.52151 0.1429 0.0
H430 H 0.18891 0.50138 0.14233 0.0
H431 H 0.12785 0.42024 0.17465 0.0
H432 H 0.083 0.44014 0.17536 0.0
H433 H 0.22959 0.49395 0.16787 0.0
H434 H 0.13955 0.36652 0.13768 0.0
H435 H 0.13203 0.40461 0.13743 0.0
H436 H 0.12212 0.37758 0.15351 0.0
C437 C 0.14041 0.49946 0.14993 0.0
C438 C 0.11003 0.48232 0.15912 0.0
C439 C 0.16593 0.48811 0.14963 0.0
C440 C 0.16143 0.45929 0.1584 0.0
C441 C 0.13157 0.44243 0.16776 0.0
H442 H 0.33565 0.40332 0.1541 0.0
H443 H 0.28464 0.40694 0.16477 0.0
C444 C 0.10606 0.4539 0.16814 0.0
C445 C 0.18769 0.44647 0.15726 0.0
H446 H 0.20048 0.38236 0.14053 0.0
C447 C 0.22315 0.46914 0.16221 0.0
C448 C 0.17895 0.41411 0.14983 0.0
C449 C 0.14117 0.38917 0.14422 0.0
C450 C 0.2507 0.46117 0.15927 0.0
C451 C 0.24237 0.42983 0.15116 0.0
C452 C 0.20652 0.40618 0.14686 0.0
C453 C 0.27135 0.42473 0.14491 0.0
C454 C 0.28901 0.48742 0.16395 0.0
C455 C 0.28023 0.43317 0.13027 0.0
C456 C 0.30935 0.43163 0.12423 0.0
C457 C 0.33005 0.42115 0.13268 0.0
C458 C 0.32046 0.41177 0.14733 0.0
C459 C 0.2913 0.41362 0.15342 0.0
H460 H 0.29108 0.51103 0.16991 0.0
H461 H 0.29904 0.47336 0.17108 0.0
H462 H 0.30706 0.49743 0.1543 0.0
H463 H 0.26526 0.44213 0.1236 0.0
H464 H 0.31637 0.43997 0.11303 0.0
H465 H 0.62415 0.13812 0.50139 0.0
H466 H 0.68132 0.18753 0.49233 0.0
H467 H 0.70811 0.11043 0.47433 0.0
H468 H 0.64994 0.06057 0.48284 0.0
H469 H 0.75171 0.21071 0.4955 0.0
H470 H 0.71005 0.16517 0.43864 0.0
H471 H 0.67953 0.14518 0.45376 0.0
H472 H 0.71337 0.1328 0.45 0.0
C473 C 0.64235 0.13157 0.49567 0.0
C474 C 0.63225 0.09544 0.49261 0.0
C475 C 0.6751 0.1599 0.49051 0.0
C476 C 0.69856 0.15266 0.48234 0.0
C477 C 0.68988 0.1166 0.48023 0.0
H478 H 0.90291 0.34172 0.45272 0.0
H479 H 0.8606 0.28501 0.46504 0.0
C480 C 0.65676 0.08817 0.48518 0.0
C481 C 0.73049 0.18304 0.47522 0.0
H482 H 0.7659 0.21827 0.44197 0.0
C483 C 0.75507 0.21231 0.4838 0.0
C484 C 0.73448 0.18515 0.45994 0.0
C485 C 0.70783 0.15559 0.45001 0.0
C486 C 0.78273 0.24419 0.4775 0.0
C487 C 0.78656 0.2463 0.46221 0.0
C488 C 0.76291 0.21648 0.45369 0.0
C489 C 0.81274 0.28013 0.4547 0.0
C490 C 0.80623 0.27589 0.48722 0.0
C491 C 0.8 0.29552 0.44447 0.0
C492 C 0.8241 0.32734 0.43724 0.0
C493 C 0.86135 0.34451 0.44021 0.0
C494 C 0.8742 0.32911 0.4504 0.0
C495 C 0.85009 0.29689 0.45747 0.0
H496 H 0.79403 0.27288 0.49816 0.0
H497 H 0.83295 0.27771 0.48861 0.0
H498 H 0.81081 0.30171 0.4824 0.0
H499 H 0.77129 0.28305 0.44216 0.0
H500 H 0.81356 0.33887 0.42951 0.0
H501 H 0.49629 0.61424 0.85059 0.0
H502 H 0.50135 0.67276 0.84515 0.0
H503 H 0.56199 0.68161 0.80636 0.0
H504 H 0.55786 0.62375 0.81181 0.0
H505 H 0.58728 0.7477 0.82078 0.0
H506 H 0.43778 0.67558 0.81251 0.0
H507 H 0.45266 0.67065 0.83016 0.0
H508 H 0.46259 0.65184 0.81455 0.0
C509 C 0.5112 0.62889 0.84102 0.0
C510 C 0.52614 0.61401 0.8315 0.0
C511 C 0.51397 0.66226 0.83792 0.0
C512 C 0.53138 0.68104 0.82521 0.0
C513 C 0.5483 0.66741 0.8162 0.0
H514 H 0.49366 0.8132 0.76783 0.0
H515 H 0.50119 0.76777 0.78096 0.0
C516 C 0.54577 0.63423 0.81932 0.0
C517 C 0.52929 0.71303 0.82046 0.0
H518 H 0.46978 0.73792 0.80773 0.0
C519 C 0.56162 0.74581 0.81808 0.0
C520 C 0.4957 0.71016 0.81679 0.0
C521 C 0.46018 0.67515 0.8185 0.0
C522 C 0.56131 0.77561 0.81176 0.0
C523 C 0.52775 0.77249 0.80793 0.0
C524 C 0.49542 0.74011 0.81073 0.0
C525 C 0.52545 0.80125 0.79992 0.0
C526 C 0.59686 0.80954 0.80861 0.0
C527 C 0.53678 0.83518 0.80623 0.0
C528 C 0.53287 0.86144 0.79867 0.0
C529 C 0.51737 0.85403 0.78471 0.0
C530 C 0.50627 0.82002 0.77844 0.0
C531 C 0.51027 0.79392 0.78597 0.0
H532 H 0.62032 0.80514 0.80975 0.0
H533 H 0.59694 0.81945 0.79746 0.0
H534 H 0.60056 0.83108 0.81634 0.0
H535 H 0.54808 0.84113 0.81707 0.0
H536 H 0.54191 0.88748 0.80375 0.0
H537 H 0.93742 0.60377 0.1648 0.0
H538 H 0.88603 0.61465 0.1633 0.0
H539 H 0.81776 0.50563 0.14775 0.0
H540 H 0.86846 0.49462 0.14908 0.0
H541 H 0.84636 0.6068 0.13661 0.0
H542 H 0.75679 0.51791 0.18024 0.0
H543 H 0.80515 0.53503 0.17999 0.0
H544 H 0.77515 0.49601 0.16932 0.0
C545 C 0.91132 0.58205 0.16121 0.0
C546 C 0.90701 0.54839 0.15699 0.0
C547 C 0.88208 0.5883 0.1604 0.0
C548 C 0.84807 0.56071 0.15568 0.0
C549 C 0.84364 0.527 0.15172 0.0
H550 H 0.67751 0.50847 0.10452 0.0
H551 H 0.73434 0.52954 0.11737 0.0
C552 C 0.87278 0.5209 0.15234 0.0
C553 C 0.81764 0.56738 0.15336 0.0
H554 H 0.72675 0.52743 0.15962 0.0
C555 C 0.82044 0.59044 0.14197 0.0
C556 C 0.78402 0.54634 0.16047 0.0
C557 C 0.78013 0.52269 0.1733 0.0
C558 C 0.78954 0.58995 0.13647 0.0
C559 C 0.7553 0.56578 0.14254 0.0
C560 C 0.75308 0.54571 0.15493 0.0
C561 C 0.7216 0.55586 0.13458 0.0
C562 C 0.79331 0.6133 0.12356 0.0
C563 C 0.69543 0.56336 0.14015 0.0
C564 C 0.66286 0.55179 0.13265 0.0
C565 C 0.65589 0.5321 0.11962 0.0
C566 C 0.68224 0.52442 0.11427 0.0
C567 C 0.71475 0.53631 0.12163 0.0
H568 H 0.82102 0.63727 0.12287 0.0
H569 H 0.78825 0.5972 0.11349 0.0
H570 H 0.77325 0.62267 0.12408 0.0
H571 H 0.70023 0.57812 0.15023 0.0
H572 H 0.64328 0.55839 0.13703 0.0
H573 H 0.37486 0.8576 0.51073 0.0
H574 H 0.31419 0.80685 0.50574 0.0
H575 H 0.28128 0.88126 0.48996 0.0
H576 H 0.34241 0.932 0.4943 0.0
H577 H 0.24413 0.78455 0.51287 0.0
H578 H 0.26887 0.82124 0.45443 0.0
H579 H 0.30385 0.8427 0.46792 0.0
H580 H 0.27029 0.85617 0.46572 0.0
C581 C 0.35451 0.86318 0.50642 0.0
C582 C 0.36347 0.8986 0.50261 0.0
C583 C 0.31985 0.83418 0.5036 0.0
C584 C 0.29358 0.84026 0.49712 0.0
C585 C 0.30152 0.87593 0.49456 0.0
H586 H 0.07524 0.66026 0.47599 0.0
H587 H 0.12477 0.71353 0.488 0.0
C588 C 0.33637 0.90486 0.49709 0.0
C589 C 0.25945 0.80919 0.49172 0.0
H590 H 0.21254 0.77122 0.46057 0.0
C591 C 0.23702 0.78162 0.50145 0.0
C592 C 0.25063 0.8053 0.47678 0.0
C593 C 0.2748 0.83271 0.46558 0.0
C594 C 0.20627 0.7499 0.49658 0.0
C595 C 0.19745 0.74622 0.48165 0.0
C596 C 0.21937 0.77422 0.47202 0.0
C597 C 0.1673 0.71265 0.47542 0.0
C598 C 0.18446 0.72008 0.50733 0.0
C599 C 0.17479 0.69479 0.46432 0.0
C600 C 0.1467 0.66508 0.45732 0.0
C601 C 0.11058 0.65243 0.46138 0.0
C602 C 0.10298 0.6695 0.47278 0.0
C603 C 0.1312 0.69971 0.47967 0.0
H604 H 0.19965 0.72357 0.51756 0.0
H605 H 0.15928 0.72044 0.51006 0.0
H606 H 0.17664 0.69314 0.50266 0.0
H607 H 0.20245 0.70428 0.46089 0.0
H608 H 0.15318 0.65208 0.44865 0.0
H609 H 0.41947 0.33106 0.81571 0.0
H610 H 0.40571 0.26831 0.81473 0.0
H611 H 0.46001 0.28179 0.85571 0.0
H612 H 0.47513 0.34511 0.85647 0.0
H613 H 0.48514 0.25565 0.83682 0.0
H614 H 0.33634 0.17451 0.83336 0.0
H615 H 0.35289 0.20928 0.81981 0.0
H616 H 0.35945 0.22153 0.83877 0.0
C617 C 0.42791 0.32048 0.82465 0.0
C618 C 0.44867 0.34308 0.8361 0.0
C619 C 0.41964 0.28443 0.82416 0.0
C620 C 0.43124 0.27007 0.83528 0.0
C621 C 0.4506 0.29221 0.84705 0.0
H622 H 0.39426 0.0496 0.81823 0.0
H623 H 0.3919 0.09837 0.83157 0.0
C624 C 0.45936 0.32842 0.84744 0.0
C625 C 0.42779 0.23395 0.8335 0.0
H626 H 0.36965 0.14807 0.8217 0.0
C627 C 0.45964 0.2319 0.8339 0.0
C628 C 0.39452 0.20264 0.82995 0.0
C629 C 0.35886 0.20205 0.83062 0.0
C630 C 0.45964 0.2004 0.82968 0.0
C631 C 0.42714 0.17054 0.82458 0.0
C632 C 0.39468 0.17134 0.82536 0.0
C633 C 0.42752 0.1406 0.81671 0.0
C634 C 0.49479 0.19991 0.83013 0.0
C635 C 0.44769 0.14829 0.80387 0.0
C636 C 0.44922 0.12084 0.79634 0.0
C637 C 0.43021 0.08494 0.80139 0.0
C638 C 0.40939 0.07708 0.81415 0.0
C639 C 0.40789 0.10477 0.82173 0.0
H640 H 0.51331 0.21868 0.83856 0.0
H641 H 0.49 0.17226 0.83235 0.0
H642 H 0.50867 0.20899 0.81948 0.0
H643 H 0.46253 0.17572 0.7997 0.0
H644 H 0.46597 0.12796 0.78669 0.0
H645 H 0.51736 0.89366 0.53159 0.0
H646 H 0.5286 0.84414 0.53659 0.0
H647 H 0.56335 0.84759 0.49233 0.0
H648 H 0.55297 0.89826 0.48729 0.0
H649 H 0.49208 0.779 0.52292 0.0
H650 H 0.64094 0.83928 0.51567 0.0
H651 H 0.61978 0.86659 0.51788 0.0
H652 H 0.61699 0.84507 0.50081 0.0
C653 C 0.52778 0.88423 0.52293 0.0
C654 C 0.53398 0.8996 0.50901 0.0
C655 C 0.5343 0.85599 0.52583 0.0
C656 C 0.54689 0.84228 0.51485 0.0
C657 C 0.55418 0.85819 0.50101 0.0
H658 H 0.50766 0.62387 0.52938 0.0
H659 H 0.51404 0.677 0.51691 0.0
C660 C 0.54806 0.88694 0.49813 0.0
C661 C 0.549 0.80933 0.51782 0.0
H662 H 0.60733 0.77682 0.52132 0.0
C663 C 0.51723 0.77842 0.52248 0.0
C664 C 0.58191 0.80885 0.51728 0.0
C665 C 0.61698 0.84175 0.51275 0.0
C666 C 0.51758 0.74738 0.52711 0.0
C667 C 0.55045 0.74675 0.52657 0.0
C668 C 0.58215 0.77734 0.52157 0.0
C669 C 0.55256 0.7154 0.53222 0.0
C670 C 0.48303 0.71626 0.53319 0.0
C671 C 0.57406 0.7196 0.54438 0.0
C672 C 0.5713 0.68924 0.55136 0.0
C673 C 0.5467 0.65414 0.54636 0.0
C674 C 0.52706 0.65033 0.53356 0.0
C675 C 0.53032 0.68072 0.52647 0.0
H676 H 0.46299 0.72466 0.5361 0.0
H677 H 0.47041 0.69454 0.52492 0.0
H678 H 0.48861 0.70478 0.54302 0.0
H679 H 0.59167 0.74624 0.54891 0.0
H680 H 0.58759 0.69327 0.56094 0.0
H681 H 0.64523 0.56781 0.82407 0.0
H682 H 0.70998 0.59031 0.82715 0.0
H683 H 0.68577 0.49325 0.85064 0.0
H684 H 0.62097 0.4709 0.84796 0.0
H685 H 0.73344 0.5542 0.86487 0.0
H686 H 0.77675 0.56108 0.80753 0.0
H687 H 0.75317 0.58529 0.81114 0.0
H688 H 0.72974 0.53681 0.81299 0.0
C689 C 0.65365 0.55102 0.82974 0.0
C690 C 0.62793 0.51757 0.8358 0.0
C691 C 0.6907 0.56387 0.83141 0.0
C692 C 0.70265 0.54326 0.83897 0.0
C693 C 0.67706 0.50953 0.84475 0.0
H694 H 0.90729 0.55567 0.84771 0.0
H695 H 0.84885 0.54648 0.83952 0.0
C696 C 0.64004 0.4968 0.8432 0.0
C697 C 0.74169 0.55768 0.84174 0.0
H698 H 0.82335 0.5861 0.82524 0.0
C699 C 0.75314 0.56125 0.85621 0.0
C700 C 0.7672 0.56673 0.83039 0.0
C701 C 0.75614 0.56201 0.81464 0.0
C702 C 0.78933 0.57297 0.85969 0.0
C703 C 0.81498 0.58241 0.84836 0.0
C704 C 0.80366 0.57934 0.83388 0.0
C705 C 0.85284 0.59212 0.8514 0.0
C706 C 0.79938 0.57366 0.87545 0.0
C707 C 0.87511 0.6218 0.86028 0.0
C708 C 0.90848 0.62697 0.86507 0.0
C709 C 0.92024 0.60288 0.86083 0.0
C710 C 0.89908 0.57485 0.85105 0.0
C711 C 0.86563 0.5695 0.8464 0.0
H712 H 0.77513 0.55787 0.88242 0.0
H713 H 0.81781 0.56252 0.87684 0.0
H714 H 0.81361 0.60206 0.87938 0.0
H715 H 0.86603 0.64004 0.86398 0.0
H716 H 0.92452 0.64906 0.87245 0.0
H717 H 0.09394 0.66878 0.17531 0.0
H718 H 0.14829 0.72777 0.1779 0.0
H719 H 0.19305 0.70852 0.13913 0.0
H720 H 0.13906 0.64865 0.13674 0.0
H721 H 0.2388 0.72662 0.16029 0.0
H722 H 0.19134 0.82528 0.15971 0.0
H723 H 0.16541 0.79033 0.17262 0.0
H724 H 0.16313 0.77916 0.15362 0.0
C725 C 0.11495 0.67736 0.16713 0.0
C726 C 0.11231 0.65389 0.15589 0.0
C727 C 0.14595 0.71135 0.16855 0.0
C728 C 0.1746 0.72288 0.15859 0.0
C729 C 0.17121 0.70025 0.14691 0.0
H730 H 0.3696 0.93071 0.18003 0.0
H731 H 0.31817 0.8848 0.16601 0.0
C732 C 0.14037 0.66602 0.14558 0.0
C733 C 0.20976 0.75593 0.16164 0.0
H734 H 0.24668 0.84304 0.17363 0.0
C735 C 0.24065 0.75232 0.16286 0.0
C736 C 0.21254 0.78973 0.16476 0.0
C737 C 0.18135 0.79642 0.16244 0.0
C738 C 0.27343 0.78068 0.16813 0.0
C739 C 0.27507 0.81312 0.17268 0.0
C740 C 0.24511 0.81782 0.17043 0.0
C741 C 0.30647 0.84103 0.18089 0.0
C742 C 0.30574 0.77524 0.1691 0.0
C743 C 0.31644 0.83169 0.19399 0.0
C744 C 0.34587 0.85761 0.20191 0.0
C745 C 0.36565 0.89361 0.197 0.0
C746 C 0.35522 0.90309 0.18398 0.0
C747 C 0.32576 0.877 0.17601 0.0
H748 H 0.3042 0.75556 0.16083 0.0
H749 H 0.33158 0.80114 0.1676 0.0
H750 H 0.3061 0.7641 0.17995 0.0
H751 H 0.30137 0.80426 0.19813 0.0
H752 H 0.35338 0.84927 0.21179 0.0
H753 H 0.51378 0.13826 0.5093 0.0
H754 H 0.49564 0.184 0.51085 0.0
H755 H 0.39637 0.11337 0.48816 0.0
H756 H 0.41425 0.06699 0.48656 0.0
H757 H 0.47358 0.21732 0.48772 0.0
H758 H 0.36669 0.13683 0.52878 0.0
H759 H 0.40268 0.12742 0.52485 0.0
H760 H 0.36719 0.11583 0.51188 0.0
C761 C 0.4882 0.13243 0.50452 0.0
C762 C 0.46529 0.09883 0.49794 0.0
C763 C 0.47798 0.15868 0.50536 0.0
C764 C 0.44463 0.15185 0.4997 0.0
C765 C 0.42214 0.11893 0.49266 0.0
H766 H 0.41054 0.33755 0.51577 0.0
H767 H 0.40199 0.28338 0.5029 0.0
C768 C 0.43244 0.09257 0.49174 0.0
C769 C 0.43306 0.1787 0.50222 0.0
H770 H 0.38415 0.19808 0.52621 0.0
C771 C 0.45326 0.21297 0.4958 0.0
C772 C 0.4066 0.17268 0.51282 0.0
C773 C 0.38448 0.1363 0.52008 0.0
C774 C 0.44953 0.24222 0.50049 0.0
C775 C 0.42493 0.23677 0.51182 0.0
C776 C 0.40283 0.20192 0.51747 0.0
C777 C 0.42681 0.26772 0.51971 0.0
C778 C 0.47394 0.27934 0.49417 0.0
C779 C 0.44304 0.27626 0.53344 0.0
C780 C 0.44829 0.30713 0.54071 0.0
C781 C 0.43712 0.32997 0.53443 0.0
C782 C 0.41984 0.32073 0.52081 0.0
C783 C 0.41476 0.28979 0.51348 0.0
H784 H 0.49274 0.27918 0.48584 0.0
H785 H 0.45722 0.28959 0.48908 0.0
H786 H 0.49018 0.29854 0.50292 0.0
H787 H 0.45276 0.25961 0.53834 0.0
H788 H 0.46231 0.31371 0.55103 0.0
H789 H 0.36395 0.46505 0.86111 0.0
H790 H 0.30551 0.46231 0.86254 0.0
H791 H 0.28831 0.43757 0.81685 0.0
H792 H 0.347 0.43967 0.81537 0.0
H793 H 0.28587 0.5019 0.82735 0.0
H794 H 0.19745 0.37829 0.85916 0.0
H795 H 0.24271 0.40376 0.86624 0.0
H796 H 0.23551 0.38344 0.84855 0.0
C797 C 0.34744 0.45832 0.85142 0.0
C798 C 0.36 0.45275 0.83812 0.0
C799 C 0.31396 0.45646 0.85227 0.0
C800 C 0.29254 0.44933 0.83983 0.0
C801 C 0.30438 0.44265 0.82659 0.0
H802 H 0.10588 0.47918 0.85878 0.0
H803 H 0.13948 0.45543 0.84535 0.0
C804 C 0.33778 0.44386 0.82577 0.0
C805 C 0.26049 0.45387 0.84063 0.0
H806 H 0.18495 0.42772 0.86128 0.0
C807 C 0.26308 0.48505 0.83437 0.0
C808 C 0.23083 0.43175 0.84973 0.0
C809 C 0.22619 0.39722 0.85621 0.0
C810 C 0.23858 0.49656 0.83814 0.0
C811 C 0.21107 0.4763 0.84836 0.0
C812 C 0.20635 0.44329 0.85352 0.0
C813 C 0.19087 0.49167 0.85551 0.0
C814 C 0.24365 0.53152 0.83195 0.0
C815 C 0.20882 0.51964 0.86564 0.0
C816 C 0.18979 0.53286 0.87338 0.0
C817 C 0.15253 0.51845 0.87104 0.0
C818 C 0.13469 0.49086 0.86068 0.0
C819 C 0.15371 0.47728 0.85305 0.0
H820 H 0.25995 0.5392 0.8218 0.0
H821 H 0.21703 0.52933 0.82968 0.0
H822 H 0.2581 0.55355 0.83999 0.0
H823 H 0.23748 0.53075 0.86775 0.0
H824 H 0.20415 0.55429 0.88124 0.0
H825 H 0.87001 0.39298 0.15628 0.0
H826 H 0.82086 0.33508 0.16515 0.0
H827 H 0.89914 0.30898 0.18239 0.0
H828 H 0.94844 0.36768 0.17416 0.0
H829 H 0.79779 0.26474 0.16192 0.0
H830 H 0.84535 0.30607 0.21848 0.0
H831 H 0.86447 0.33673 0.20337 0.0
H832 H 0.87827 0.30393 0.20703 0.0
C833 C 0.87675 0.37466 0.16177 0.0
C834 C 0.91299 0.38504 0.16476 0.0
C835 C 0.84864 0.34158 0.16683 0.0
C836 C 0.85635 0.31819 0.1748 0.0
C837 C 0.89259 0.32716 0.17669 0.0
H838 H 0.67972 0.10593 0.20373 0.0
H839 H 0.73299 0.15325 0.19095 0.0
C840 C 0.9207 0.36057 0.1719 0.0
C841 C 0.82652 0.28593 0.18199 0.0
H842 H 0.79513 0.24766 0.21524 0.0
C843 C 0.79719 0.26087 0.17357 0.0
C844 C 0.82558 0.28133 0.19724 0.0
C845 C 0.8549 0.3086 0.20709 0.0
C846 C 0.76668 0.23161 0.17999 0.0
C847 C 0.7661 0.22669 0.1952 0.0
C848 C 0.79575 0.25136 0.20357 0.0
C849 C 0.7342 0.19762 0.20288 0.0
C850 C 0.73484 0.20726 0.17048 0.0
C851 C 0.71802 0.20674 0.21416 0.0
C852 C 0.68828 0.17979 0.22165 0.0
C853 C 0.67396 0.14325 0.21792 0.0
C854 C 0.69016 0.13402 0.20668 0.0
C855 C 0.72035 0.161 0.19933 0.0
H856 H 0.73563 0.22038 0.15997 0.0
H857 H 0.73559 0.18214 0.16809 0.0
H858 H 0.70876 0.19959 0.17597 0.0
H859 H 0.72826 0.23481 0.21709 0.0
H860 H 0.67603 0.18756 0.2302 0.0
H861 H 0.94887 0.489 0.10024 0.0
H862 H 0.94859 0.49479 0.07381 0.0
H863 H 0.06526 0.54699 0.07315 0.0
H864 H 0.06592 0.54114 0.09946 0.0
H865 H 0.98367 0.56111 0.05837 0.0
H866 H 0.034 0.46929 0.04138 0.0
H867 H 0.01591 0.46771 0.05928 0.0
H868 H 0.06155 0.50191 0.05487 0.0
C869 C 0.97445 0.50127 0.09446 0.0
C870 C 0.00743 0.5146 0.10199 0.0
C871 C 0.97421 0.5046 0.07937 0.0
C872 C 0.00686 0.52094 0.07154 0.0
C873 C 0.03973 0.5337 0.07897 0.0
H874 H 0.07767 0.59025 0.98381 0.0
H875 H 0.07211 0.57701 0.00983 0.0
C876 C 0.04003 0.5305 0.09404 0.0
C877 C 0.00691 0.52679 0.05572 0.0
H878 H 0.03364 0.50906 0.0233 0.0
C879 C -0.00578 0.54945 0.05066 0.0
C880 C 0.02087 0.51164 0.04575 0.0
C881 C 0.03357 0.48601 0.05054 0.0
C882 C -0.00385 0.55831 0.0359 0.0
C883 C 0.01055 0.54354 0.02594 0.0
C884 C 0.02274 0.52044 0.03098 0.0
C885 C 0.01367 0.55207 0.01026 0.0
C886 C 0.98385 0.58432 0.03115 0.0
C887 C 0.98262 0.54226 0.0019 0.0
C888 C 0.9857 0.54976 0.98704 0.0
C889 C 0.01989 0.56696 0.98026 0.0
C890 C 0.05094 0.57671 0.98869 0.0
C891 C 0.04783 0.56927 0.00355 0.0
H892 H 0.98201 0.59995 0.04044 0.0
H893 H 0.00264 0.60365 0.02292 0.0
H894 H 0.95656 0.56882 0.02617 0.0
H895 H 0.95594 0.52827 0.00682 0.0
H896 H 0.96123 0.54129 0.9808 0.0
H897 H 0.43813 0.98136 0.44334 0.0
H898 H 0.43478 0.977 0.41692 0.0
H899 H 0.53573 0.97655 0.41578 0.0
H900 H 0.5391 0.9803 0.44226 0.0
H901 H 0.48393 0.02603 0.39745 0.0
H902 H 0.47057 0.89072 0.38991 0.0
H903 H 0.46371 0.90613 0.40725 0.0
H904 H 0.50886 0.92134 0.40069 0.0
C905 C 0.45952 0.98003 0.43751 0.0
C906 C 0.48888 0.98113 0.44494 0.0
C907 C 0.45753 0.97754 0.4224 0.0
C908 C 0.48474 0.97598 0.41442 0.0
C909 C 0.51403 0.97692 0.42176 0.0
H910 H 0.53268 0.9826 0.3228 0.0
H911 H 0.53316 0.98123 0.34936 0.0
C912 C 0.516 0.97928 0.4369 0.0
C913 C 0.48334 0.97528 0.39836 0.0
H914 H 0.48113 0.92634 0.36866 0.0
C915 C 0.48308 0.00413 0.39115 0.0
C916 C 0.48234 0.94669 0.3902 0.0
C917 C 0.48105 0.91428 0.39739 0.0
C918 C 0.48242 0.00548 0.37596 0.0
C919 C 0.48153 0.97698 0.36781 0.0
C920 C 0.48181 0.94812 0.37499 0.0
C921 C 0.48062 0.97687 0.35178 0.0
C922 C 0.48345 0.03774 0.36874 0.0
C923 C 0.45067 0.97435 0.3444 0.0
C924 C 0.45035 0.97525 0.32925 0.0
C925 C 0.48001 0.97864 0.32123 0.0
C926 C 0.50969 0.98051 0.32868 0.0
C927 C 0.50991 0.97949 0.34383 0.0
H928 H 0.49219 0.06084 0.37635 0.0
H929 H 0.50212 0.04689 0.35927 0.0
H930 H 0.45592 0.02994 0.36475 0.0
H931 H 0.42761 0.97185 0.35037 0.0
H932 H 0.42722 0.97398 0.32382 0.0
H933 H 0.43201 0.43818 0.77723 0.0
H934 H 0.43164 0.43614 0.75073 0.0
H935 H 0.54778 0.50622 0.75013 0.0
H936 H 0.54824 0.50945 0.77661 0.0
H937 H 0.51661 0.52744 0.73068 0.0
H938 H 0.46098 0.37971 0.72483 0.0
H939 H 0.43187 0.39003 0.73535 0.0
H940 H 0.47638 0.40266 0.74201 0.0
C941 C 0.45751 0.453 0.77146 0.0
C942 C 0.49018 0.47387 0.77903 0.0
C943 C 0.45728 0.45161 0.75631 0.0
C944 C 0.48977 0.47041 0.74845 0.0
C945 C 0.5224 0.49135 0.75598 0.0
H946 H 0.51019 0.43416 0.65692 0.0
H947 H 0.51378 0.43706 0.68345 0.0
C948 C 0.52262 0.49315 0.77112 0.0
C949 C 0.48964 0.46928 0.73237 0.0
H950 H 0.46211 0.41171 0.7034 0.0
C951 C 0.50491 0.50214 0.72471 0.0
C952 C 0.4749 0.4363 0.72458 0.0
C953 C 0.46047 0.40022 0.73211 0.0
C954 C 0.50529 0.50293 0.70949 0.0
C955 C 0.48892 0.46986 0.70172 0.0
C956 C 0.47423 0.43703 0.70937 0.0
C957 C 0.48705 0.46864 0.68565 0.0
C958 C 0.52391 0.53921 0.70193 0.0
C959 C 0.4705 0.48509 0.67808 0.0
C960 C 0.4688 0.4838 0.66294 0.0
C961 C 0.48294 0.46537 0.65512 0.0
C962 C 0.49889 0.44834 0.66271 0.0
C963 C 0.50101 0.45005 0.67783 0.0
H964 H 0.5443 0.56077 0.70908 0.0
H965 H 0.53768 0.53824 0.69184 0.0
H966 H 0.50344 0.54694 0.69901 0.0
H967 H 0.45858 0.49866 0.68389 0.0
H968 H 0.45591 0.4967 0.65735 0.0
H969 H 0.47425 0.9563 0.56095 0.0
H970 H 0.47579 0.96273 0.58728 0.0
H971 H 0.5364 0.07899 0.58296 0.0
H972 H 0.53501 0.07298 0.55647 0.0
H973 H 0.54122 0.00165 0.60527 0.0
H974 H 0.44636 0.05555 0.60926 0.0
H975 H 0.44819 0.03149 0.59344 0.0
H976 H 0.48351 0.07721 0.59665 0.0
C977 C 0.48786 0.9833 0.56554 0.0
C978 C 0.50441 0.01415 0.55658 0.0
C979 C 0.48876 0.98688 0.5806 0.0
C980 C 0.50593 0.02129 0.58699 0.0
C981 C 0.52267 0.05221 0.57816 0.0
H982 H 0.51238 0.07204 0.67936 0.0
H983 H 0.52089 0.07761 0.65298 0.0
C984 C 0.52195 0.04869 0.56305 0.0
C985 C 0.50642 0.02442 0.60294 0.0
H986 H 0.46923 0.04657 0.63113 0.0
C987 C 0.52572 0.01169 0.61096 0.0
C988 C 0.48631 0.03776 0.61024 0.0
C989 C 0.46468 0.05114 0.60203 0.0
C990 C 0.525 0.01142 0.62616 0.0
C991 C 0.50375 0.02344 0.63348 0.0
C992 C 0.48537 0.03725 0.62546 0.0
C993 C 0.49883 0.02022 0.64939 0.0
C994 C 0.547 -0.00174 0.63425 0.0
C995 C 0.48302 0.98604 0.65603 0.0
C996 C 0.47806 0.98276 0.67103 0.0
C997 C 0.48853 0.0136 0.67967 0.0
C998 C 0.50382 0.04778 0.67297 0.0
C999 C 0.50886 0.05103 0.65794 0.0
H1000 H 0.56969 0.00055 0.62751 0.0
H1001 H 0.5583 0.01377 0.64444 0.0
H1002 H 0.52929 0.96928 0.6371 0.0
H1003 H 0.47421 0.96183 0.64957 0.0
H1004 H 0.46557 0.95602 0.67585 0.0
H1005 H 0.462 0.50381 0.89433 0.0
H1006 H 0.45617 0.49544 0.92065 0.0
H1007 H 0.52012 0.44288 0.91928 0.0
H1008 H 0.5262 0.45105 0.89296 0.0
H1009 H 0.42551 0.42424 0.93496 0.0
H1010 H 0.56692 0.52222 0.95174 0.0
H1011 H 0.54858 0.52511 0.93445 0.0
H1012 H 0.56177 0.49167 0.93727 0.0
C1013 C 0.47522 0.49085 0.89962 0.0
C1014 C 0.49458 0.47808 0.89153 0.0
C1015 C 0.47174 0.48602 0.91464 0.0
C1016 C 0.4879 0.46877 0.92184 0.0
C1017 C 0.50782 0.45663 0.91389 0.0
H1018 H 0.4975 0.41541 0.01186 0.0
H1019 H 0.50311 0.42182 0.98544 0.0
C1020 C 0.51115 0.46123 0.89886 0.0
C1021 C 0.4825 0.46195 0.93759 0.0
H1022 H 0.5269 0.48441 0.97001 0.0
C1023 C 0.44758 0.43742 0.94266 0.0
C1024 C 0.51149 0.47906 0.94751 0.0
C1025 C 0.54932 0.50621 0.94255 0.0
C1026 C 0.44091 0.42915 0.95748 0.0
C1027 C 0.46984 0.44658 0.96745 0.0
C1028 C 0.5048 0.47106 0.96233 0.0
C1029 C 0.46445 0.44036 0.98327 0.0
C1030 C 0.40316 0.4013 0.96226 0.0
C1031 C 0.44075 0.44853 0.99077 0.0
C1032 C 0.43739 0.44473 0.00584 0.0
C1033 C 0.45804 0.43316 0.01366 0.0
C1034 C 0.48144 0.4246 0.0061 0.0
C1035 C 0.48461 0.42819 0.99103 0.0
H1036 H 0.3872 0.38316 0.95318 0.0
H1037 H 0.40394 0.38445 0.97128 0.0
H1038 H 0.38873 0.41533 0.96612 0.0
H1039 H 0.42561 0.45882 0.98503 0.0
H1040 H 0.41964 0.45214 0.01141 0.0
H1041 H 0.01464 0.4822 0.21845 0.0
H1042 H 0.01524 0.48808 0.24484 0.0
H1043 H 0.01763 0.58991 0.24044 0.0
H1044 H 0.01648 0.58412 0.21404 0.0
H1045 H 0.06697 0.54318 0.26238 0.0
H1046 H 0.93203 0.53245 0.26793 0.0
H1047 H 0.94632 0.52016 0.25149 0.0
H1048 H 0.96254 0.567 0.25562 0.0
C1049 C 0.0152 0.50583 0.22307 0.0
C1050 C 0.01529 0.53259 0.21412 0.0
C1051 C 0.01557 0.50914 0.23815 0.0
C1052 C 0.01593 0.53914 0.24456 0.0
C1053 C 0.01659 0.56618 0.23569 0.0
H1054 H 0.01701 0.59869 0.33516 0.0
H1055 H 0.02033 0.59914 0.30858 0.0
C1056 C 0.01612 0.56288 0.2206 0.0
C1057 C 0.01617 0.54232 0.26054 0.0
H1058 H 0.96747 0.54611 0.28925 0.0
C1059 C 0.04522 0.5438 0.26827 0.0
C1060 C 0.98777 0.54322 0.26814 0.0
C1061 C 0.95521 0.54032 0.26041 0.0
C1062 C 0.04671 0.54626 0.28345 0.0
C1063 C 0.01814 0.54676 0.29105 0.0
C1064 C 0.98933 0.5458 0.28333 0.0
C1065 C 0.01698 0.54692 0.30707 0.0
C1066 C 0.07894 0.54859 0.29124 0.0
C1067 C 0.01366 0.51726 0.31493 0.0
C1068 C 0.0118 0.51694 0.33004 0.0
C1069 C 0.01311 0.54626 0.33757 0.0
C1070 C 0.01635 0.57593 0.32966 0.0
C1071 C 0.01807 0.57615 0.31451 0.0
H1072 H 0.10244 0.5571 0.28383 0.0
H1073 H 0.08737 0.56798 0.30044 0.0
H1074 H 0.07144 0.52153 0.29568 0.0
H1075 H 0.01223 0.49422 0.30935 0.0
H1076 H 0.00964 0.49386 0.33585 0.0
loop_
_geom_bond_atom_site_label_1
_geom_bond_atom_site_label_2
_geom_bond_distance
_geom_bond_site_symmetry_2
_ccdc_geom_bond_type
O0 Zn1 1.952 . S
O0 C16 1.225 1_655 S
Zn1 O0 1.952 . S
Zn1 O2 1.936 1_655 S
Zn1 O8 1.940 . S
Zn1 O13 1.915 1_655 S
O2 Zn1 1.936 1_455 S
O2 Zn3 1.923 1_455 S
O2 Zn4 1.950 . S
O2 Zn5 1.945 . S
Zn3 O2 1.923 1_655 S
Zn3 O6 1.933 . S
Zn3 O9 1.941 . S
Zn3 O10 1.965 . S
Zn4 O2 1.950 . S
Zn4 O11 1.938 1_455 S
Zn4 O12 1.906 . S
Zn4 O22 1.953 . S
Zn5 O2 1.945 . S
Zn5 O7 1.932 . S
Zn5 O14 1.977 . S
Zn5 O15 1.910 . S
O6 Zn3 1.933 . S
O6 C17 1.226 1_655 S
O7 Zn5 1.932 . S
O7 C17 1.307 . S
O8 Zn1 1.940 . S
O8 C19 1.253 . S
O9 Zn3 1.941 . S
O9 C19 1.283 . S
O10 Zn3 1.965 . S
O10 C18 1.303 . S
O11 Zn4 1.938 1_655 S
O11 C18 1.247 . S
O12 Zn4 1.906 . S
O12 C20 1.304 . S
O13 Zn1 1.915 1_455 S
O13 C21 1.311 . S
O14 Zn5 1.977 . S
O14 C20 1.272 . S
O15 Zn5 1.910 . S
O15 C21 1.231 . S
C16 O0 1.225 1_455 S
C16 O22 1.298 . S
C17 O6 1.226 1_455 S
C17 O7 1.307 . S
C18 O10 1.303 . S
C18 O11 1.247 . S
C19 O8 1.253 . S
C19 O9 1.283 . S
C20 O12 1.304 . S
C20 O14 1.272 . S
C21 O13 1.311 . S
C21 O15 1.231 . S
O22 Zn4 1.953 . S
O22 C16 1.298 . S
O23 Zn24 1.953 . S
O23 C39 1.225 . S
Zn24 O23 1.953 . S
Zn24 O25 1.949 . S
Zn24 O31 1.919 . S
Zn24 O36 1.924 1_545 S
O25 Zn24 1.949 . S
O25 Zn26 1.923 . S
O25 Zn27 1.950 1_545 S
O25 Zn28 1.945 1_545 S
Zn26 O25 1.923 . S
Zn26 O29 1.933 . S
Zn26 O32 1.941 . S
Zn26 O33 1.965 . S
Zn27 O25 1.950 1_565 S
Zn27 O34 1.938 1_565 S
Zn27 O35 1.906 . S
Zn27 O45 1.953 . S
Zn28 O25 1.945 1_565 S
Zn28 O30 1.932 . S
Zn28 O37 1.977 . S
Zn28 O38 1.910 . S
O29 Zn26 1.933 . S
O29 C40 1.226 . S
O30 Zn28 1.932 . S
O30 C40 1.307 1_565 S
O31 Zn24 1.919 . S
O31 C42 1.253 . S
O32 Zn26 1.941 . S
O32 C42 1.283 . S
O33 Zn26 1.965 . S
O33 C41 1.303 . S
O34 Zn27 1.938 1_545 S
O34 C41 1.247 . S
O35 Zn27 1.906 . S
O35 C43 1.304 . S
O36 Zn24 1.924 1_565 S
O36 C44 1.311 . S
O37 Zn28 1.977 . S
O37 C43 1.272 . S
O38 Zn28 1.910 . S
O38 C44 1.231 . S
C39 O23 1.225 . S
C39 O45 1.298 1_545 S
C40 O29 1.226 . S
C40 O30 1.307 1_545 S
C41 O33 1.303 . S
C41 O34 1.247 . S
C42 O31 1.253 . S
C42 O32 1.283 . S
C43 O35 1.304 . S
C43 O37 1.272 . S
C44 O36 1.311 . S
C44 O38 1.231 . S
O45 Zn27 1.953 . S
O45 C39 1.298 1_565 S
O46 Zn47 1.953 . S
O46 C62 1.225 . S
Zn47 O46 1.953 . S
Zn47 O48 1.949 . S
Zn47 O54 1.919 . S
Zn47 O59 1.924 . S
O48 Zn47 1.949 . S
O48 Zn49 1.923 . S
O48 Zn50 1.950 . S
O48 Zn51 1.945 . S
Zn49 O48 1.923 . S
Zn49 O52 1.933 . S
Zn49 O55 1.941 . S
Zn49 O56 1.965 . S
Zn50 O48 1.950 . S
Zn50 O57 1.938 . S
Zn50 O58 1.906 . S
Zn50 O68 1.953 . S
Zn51 O48 1.945 . S
Zn51 O53 1.932 . S
Zn51 O60 1.977 . S
Zn51 O61 1.910 . S
O52 Zn49 1.933 . S
O52 C63 1.226 . S
O53 Zn51 1.932 . S
O53 C63 1.307 . S
O54 Zn47 1.919 . S
O54 C65 1.253 . S
O55 Zn49 1.941 . S
O55 C65 1.283 . S
O56 Zn49 1.965 . S
O56 C64 1.303 . S
O57 Zn50 1.938 . S
O57 C64 1.247 . S
O58 Zn50 1.906 . S
O58 C66 1.304 . S
O59 Zn47 1.924 . S
O59 C67 1.311 . S
O60 Zn51 1.977 . S
O60 C66 1.272 . S
O61 Zn51 1.910 . S
O61 C67 1.231 . S
C62 O46 1.225 . S
C62 O68 1.298 . S
C63 O52 1.226 . S
C63 O53 1.307 . S
C64 O56 1.303 . S
C64 O57 1.247 . S
C65 O54 1.253 . S
C65 O55 1.283 . S
C66 O58 1.304 . S
C66 O60 1.272 . S
C67 O59 1.311 . S
C67 O61 1.231 . S
O68 Zn50 1.953 . S
O68 C62 1.298 . S
C69 C70 1.391 . S
C69 C73 1.391 . S
C69 H111 0.948 . S
C70 C69 1.391 . S
C70 C71 1.391 . S
C71 C70 1.391 . S
C71 H127 0.947 . S
C71 C128 1.392 . S
C72 C73 1.391 . S
C72 C76 1.397 . S
C72 C128 1.419 . S
C73 C69 1.391 . S
C73 C72 1.391 . S
C73 C74 1.399 . S
C74 C73 1.399 . S
C74 C77 1.396 . S
C74 C86 1.453 . S
C74 C87 1.684 . S
H75 C99 0.948 . S
C76 C72 1.397 . S
C76 C77 1.394 . S
C76 C95 1.723 . S
C77 C74 1.396 . S
C77 C76 1.394 . S
C77 C107 1.723 1_545 S
H78 C101 0.947 . S
H79 C102 0.948 . S
H80 C108 0.982 . S
H81 C109 0.979 . S
H82 C109 0.980 . S
H83 C109 0.983 . S
H84 C108 0.979 . S
H85 C108 0.977 . S
C86 C74 1.453 . S
C86 H115 0.982 . S
C86 H116 0.979 . S
C86 H117 0.977 1_545 S
C87 C74 1.684 . S
C87 H112 0.979 . S
C87 H113 0.980 . S
C87 H114 0.983 . S
C88 C89 1.391 . S
C88 C93 1.391 . S
C88 H118 0.948 . S
C89 C88 1.391 . S
C89 C90 1.391 1_545 S
C90 C89 1.391 1_565 S
C90 C91 1.392 . S
C90 H119 0.947 . S
C91 C90 1.392 . S
C91 C92 1.417 1_565 S
C91 H120 0.948 . S
C92 C91 1.417 1_545 S
C92 C93 1.394 . S
C92 C96 1.397 . S
C93 C88 1.391 . S
C93 C92 1.394 . S
C93 C94 1.399 . S
C94 C93 1.399 . S
C94 C95 1.396 . S
C94 C97 1.453 . S
C94 C98 1.684 . S
C95 C76 1.723 . S
C95 C94 1.396 . S
C95 C96 1.394 . S
C96 C92 1.397 . S
C96 C95 1.394 . S
C96 C106 1.723 1_545 S
C97 C94 1.453 . S
C97 H121 0.982 . S
C97 H122 0.979 . S
C97 H123 0.977 . S
C98 C94 1.684 . S
C98 H124 0.979 . S
C98 H125 0.980 . S
C98 H126 0.983 . S
C99 H75 0.948 . S
C99 C100 1.391 . S
C99 C104 1.391 . S
C100 C99 1.391 . S
C100 C101 1.391 . S
C101 H78 0.947 . S
C101 C100 1.391 . S
C101 C102 1.392 . S
C102 H79 0.948 . S
C102 C101 1.392 . S
C102 C103 1.419 . S
C103 C102 1.419 . S
C103 C104 1.391 . S
C103 C107 1.397 . S
C104 C99 1.391 . S
C104 C103 1.391 . S
C104 C105 1.399 . S
C105 C104 1.399 . S
C105 C106 1.396 . S
C105 C108 1.453 . S
C105 C109 1.684 . S
C106 C96 1.723 1_565 S
C106 C105 1.396 . S
C106 C107 1.394 . S
C107 C77 1.723 1_565 S
C107 C103 1.397 . S
C107 C106 1.394 . S
C108 H80 0.982 . S
C108 H84 0.979 . S
C108 H85 0.977 . S
C108 C105 1.453 . S
C109 H81 0.979 . S
C109 H82 0.980 . S
C109 H83 0.983 . S
C109 C105 1.684 . S
H110 C128 0.948 . S
H111 C69 0.948 . S
H112 C87 0.979 . S
H113 C87 0.980 . S
H114 C87 0.983 . S
H115 C86 0.982 . S
H116 C86 0.979 . S
H117 C86 0.977 1_565 S
H118 C88 0.948 . S
H119 C90 0.947 . S
H120 C91 0.948 . S
H121 C97 0.982 . S
H122 C97 0.979 . S
H123 C97 0.977 . S
H124 C98 0.979 . S
H125 C98 0.980 . S
H126 C98 0.983 . S
H127 C71 0.947 . S
C128 C71 1.392 . S
C128 C72 1.419 . S
C128 H110 0.948 . S
C129 C130 1.391 . S
C129 C133 1.391 . S
C129 H171 0.948 . S
C130 C129 1.391 . S
C130 C131 1.391 . S
C131 C130 1.391 . S
C131 H187 0.947 . S
C131 C188 1.392 . S
C132 C133 1.391 . S
C132 C136 1.397 . S
C132 C188 1.419 . S
C133 C129 1.391 . S
C133 C132 1.391 . S
C133 C134 1.399 . S
C134 C133 1.399 . S
C134 C137 1.396 . S
C134 C146 1.453 . S
C134 C147 1.684 . S
H135 C159 0.948 . S
C136 C132 1.397 . S
C136 C137 1.394 . S
C136 C155 1.723 . S
C137 C134 1.396 . S
C137 C136 1.394 . S
C137 C167 1.723 . S
H138 C161 0.947 . S
H139 C162 0.948 . S
H140 C168 0.982 . S
H141 C169 0.979 . S
H142 C169 0.980 . S
H143 C169 0.983 . S
H144 C168 0.979 . S
H145 C168 0.977 . S
C146 C134 1.453 . S
C146 H175 0.982 . S
C146 H176 0.979 . S
C146 H177 0.977 . S
C147 C134 1.684 . S
C147 H172 0.979 . S
C147 H173 0.980 . S
C147 H174 0.983 . S
C148 C149 1.391 . S
C148 C153 1.391 . S
C148 H178 0.948 . S
C149 C148 1.391 . S
C149 C150 1.391 . S
C150 C149 1.391 . S
C150 C151 1.392 . S
C150 H179 0.947 . S
C151 C150 1.392 . S
C151 C152 1.419 . S
C151 H180 0.948 . S
C152 C151 1.419 . S
C152 C153 1.391 . S
C152 C156 1.397 . S
C153 C148 1.391 . S
C153 C152 1.391 . S
C153 C154 1.399 . S
C154 C153 1.399 . S
C154 C155 1.396 . S
C154 C157 1.453 . S
C154 C158 1.684 . S
C155 C136 1.723 . S
C155 C154 1.396 . S
C155 C156 1.394 . S
C156 C152 1.397 . S
C156 C155 1.394 . S
C156 C166 1.723 . S
C157 C154 1.453 . S
C157 H181 0.982 . S
C157 H182 0.979 . S
C157 H183 0.977 . S
C158 C154 1.684 . S
C158 H184 0.979 . S
C158 H185 0.980 . S
C158 H186 0.983 . S
C159 H135 0.948 . S
C159 C160 1.391 . S
C159 C164 1.391 . S
C160 C159 1.391 . S
C160 C161 1.391 . S
C161 H138 0.947 . S
C161 C160 1.391 . S
C161 C162 1.392 . S
C162 H139 0.948 . S
C162 C161 1.392 . S
C162 C163 1.419 . S
C163 C162 1.419 . S
C163 C164 1.391 . S
C163 C167 1.397 . S
C164 C159 1.391 . S
C164 C163 1.391 . S
C164 C165 1.399 . S
C165 C164 1.399 . S
C165 C166 1.396 . S
C165 C168 1.453 . S
C165 C169 1.684 . S
C166 C156 1.723 . S
C166 C165 1.396 . S
C166 C167 1.394 . S
C167 C137 1.723 . S
C167 C163 1.397 . S
C167 C166 1.394 . S
C168 H140 0.982 . S
C168 H144 0.979 . S
C168 H145 0.977 . S
C168 C165 1.453 . S
C169 H141 0.979 . S
C169 H142 0.980 . S
C169 H143 0.983 . S
C169 C165 1.684 . S
H170 C188 0.948 . S
H171 C129 0.948 . S
H172 C147 0.979 . S
H173 C147 0.980 . S
H174 C147 0.983 . S
H175 C146 0.982 . S
H176 C146 0.979 . S
H177 C146 0.977 . S
H178 C148 0.948 . S
H179 C150 0.947 . S
H180 C151 0.948 . S
H181 C157 0.982 . S
H182 C157 0.979 . S
H183 C157 0.977 . S
H184 C158 0.979 . S
H185 C158 0.980 . S
H186 C158 0.983 . S
H187 C131 0.947 . S
C188 C131 1.392 . S
C188 C132 1.419 . S
C188 H170 0.948 . S
C189 C190 1.391 . S
C189 C193 1.391 . S
C189 H231 0.948 . S
C190 C189 1.391 . S
C190 C191 1.391 . S
C191 C190 1.391 . S
C191 H247 0.947 . S
C191 C248 1.392 . S
C192 C193 1.391 . S
C192 C196 1.397 . S
C192 C248 1.419 . S
C193 C189 1.391 . S
C193 C192 1.391 . S
C193 C194 1.399 . S
C194 C193 1.399 . S
C194 C197 1.396 . S
C194 C206 1.453 . S
C194 C207 1.684 . S
H195 C219 0.948 . S
C196 C192 1.397 . S
C196 C197 1.394 . S
C196 C215 1.723 . S
C197 C194 1.396 . S
C197 C196 1.394 . S
C197 C227 1.723 1_455 S
H198 C221 0.947 . S
H199 C222 0.948 . S
H200 C228 0.982 . S
H201 C229 0.979 . S
H202 C229 0.980 . S
H203 C229 0.983 . S
H204 C228 0.979 . S
H205 C228 0.977 . S
C206 C194 1.453 . S
C206 H235 0.982 . S
C206 H236 0.979 . S
C206 H237 0.977 . S
C207 C194 1.684 . S
C207 H232 0.979 . S
C207 H233 0.980 . S
C207 H234 0.983 . S
C208 C209 1.391 . S
C208 C213 1.391 . S
C208 H238 0.948 . S
C209 C208 1.391 . S
C209 C210 1.391 1_455 S
C210 C209 1.391 1_655 S
C210 C211 1.392 . S
C210 H239 0.947 . S
C211 C210 1.392 . S
C211 C212 1.419 1_655 S
C211 H240 0.948 . S
C212 C211 1.419 1_455 S
C212 C213 1.391 . S
C212 C216 1.397 . S
C213 C208 1.391 . S
C213 C212 1.391 . S
C213 C214 1.399 . S
C214 C213 1.399 . S
C214 C215 1.396 . S
C214 C217 1.453 . S
C214 C218 1.684 . S
C215 C196 1.723 . S
C215 C214 1.396 . S
C215 C216 1.394 . S
C216 C212 1.397 . S
C216 C215 1.394 . S
C216 C226 1.723 1_455 S
C217 C214 1.453 . S
C217 H241 0.982 . S
C217 H242 0.979 . S
C217 H243 0.977 . S
C218 C214 1.684 . S
C218 H244 0.979 . S
C218 H245 0.980 . S
C218 H246 0.983 . S
C219 H195 0.948 . S
C219 C220 1.391 . S
C219 C224 1.391 . S
C220 C219 1.391 . S
C220 C221 1.391 . S
C221 H198 0.947 . S
C221 C220 1.391 . S
C221 C222 1.392 . S
C222 H199 0.948 . S
C222 C221 1.392 . S
C222 C223 1.419 . S
C223 C222 1.419 . S
C223 C224 1.391 . S
C223 C227 1.397 . S
C224 C219 1.391 . S
C224 C223 1.391 . S
C224 C225 1.399 . S
C225 C224 1.399 . S
C225 C226 1.396 . S
C225 C228 1.453 . S
C225 C229 1.684 . S
C226 C216 1.723 1_655 S
C226 C225 1.396 . S
C226 C227 1.394 . S
C227 C197 1.723 1_655 S
C227 C223 1.397 . S
C227 C226 1.394 . S
C228 H200 0.982 . S
C228 H204 0.979 . S
C228 H205 0.977 . S
C228 C225 1.453 . S
C229 H201 0.979 . S
C229 H202 0.980 . S
C229 H203 0.983 . S
C229 C225 1.684 . S
H230 C248 0.948 . S
H231 C189 0.948 . S
H232 C207 0.979 . S
H233 C207 0.980 . S
H234 C207 0.983 . S
H235 C206 0.982 . S
H236 C206 0.979 . S
H237 C206 0.977 . S
H238 C208 0.948 . S
H239 C210 0.947 . S
H240 C211 0.948 . S
H241 C217 0.982 . S
H242 C217 0.979 . S
H243 C217 0.977 . S
H244 C218 0.979 . S
H245 C218 0.980 . S
H246 C218 0.983 . S
H247 C191 0.947 . S
C248 C191 1.392 . S
C248 C192 1.419 . S
C248 H230 0.948 . S
C249 C250 1.391 . S
C249 C253 1.391 . S
C249 H291 0.948 . S
C250 C249 1.391 . S
C250 C251 1.391 . S
C251 C250 1.391 . S
C251 H307 0.947 . S
C251 C308 1.392 . S
C252 C253 1.391 . S
C252 C256 1.397 . S
C252 C308 1.419 . S
C253 C249 1.391 . S
C253 C252 1.391 . S
C253 C254 1.399 . S
C254 C253 1.399 . S
C254 C257 1.396 . S
C254 C266 1.453 . S
C254 C267 1.684 . S
H255 C279 0.948 . S
C256 C252 1.397 . S
C256 C257 1.394 . S
C256 C275 1.723 . S
C257 C254 1.396 . S
C257 C256 1.394 . S
C257 C287 1.723 1_655 S
H258 C281 0.947 . S
H259 C282 0.948 . S
H260 C288 0.982 . S
H261 C289 0.979 . S
H262 C289 0.980 . S
H263 C289 0.983 . S
H264 C288 0.979 . S
H265 C288 0.977 . S
C266 C254 1.453 . S
C266 H295 0.982 1_655 S
C266 H296 0.979 . S
C266 H297 0.977 1_655 S
C267 C254 1.684 . S
C267 H292 0.979 . S
C267 H293 0.980 . S
C267 H294 0.983 . S
C268 C269 1.391 1_655 S
C268 C273 1.391 . S
C268 H298 0.948 . S
C269 C268 1.391 1_455 S
C269 C270 1.391 . S
C270 C269 1.391 . S
C270 C271 1.392 . S
C270 H299 0.947 . S
C271 C270 1.392 . S
C271 C272 1.419 . S
C271 H300 0.948 . S
C272 C271 1.419 . S
C272 C273 1.391 1_455 S
C272 C276 1.397 . S
C273 C268 1.391 . S
C273 C272 1.391 1_655 S
C273 C274 1.399 . S
C274 C273 1.399 . S
C274 C275 1.396 . S
C274 C277 1.453 . S
C274 C278 1.684 . S
C275 C256 1.723 . S
C275 C274 1.396 . S
C275 C276 1.394 1_655 S
C276 C272 1.397 . S
C276 C275 1.394 1_455 S
C276 C286 1.723 . S
C277 C274 1.453 . S
C277 H301 0.982 . S
C277 H302 0.979 . S
C277 H303 0.977 . S
C278 C274 1.684 . S
C278 H304 0.979 . S
C278 H305 0.980 . S
C278 H306 0.983 . S
C279 H255 0.948 . S
C279 C280 1.391 . S
C279 C284 1.391 . S
C280 C279 1.391 . S
C280 C281 1.391 . S
C281 H258 0.947 . S
C281 C280 1.391 . S
C281 C282 1.392 . S
C282 H259 0.948 . S
C282 C281 1.392 . S
C282 C283 1.419 . S
C283 C282 1.419 . S
C283 C284 1.391 . S
C283 C287 1.397 . S
C284 C279 1.391 . S
C284 C283 1.391 . S
C284 C285 1.399 . S
C285 C284 1.399 . S
C285 C286 1.396 . S
C285 C288 1.453 . S
C285 C289 1.684 . S
C286 C276 1.723 . S
C286 C285 1.396 . S
C286 C287 1.394 . S
C287 C257 1.723 1_455 S
C287 C283 1.397 . S
C287 C286 1.394 . S
C288 H260 0.982 . S
C288 H264 0.979 . S
C288 H265 0.977 . S
C288 C285 1.453 . S
C289 H261 0.979 . S
C289 H262 0.980 . S
C289 H263 0.983 . S
C289 C285 1.684 . S
H290 C308 0.948 . S
H291 C249 0.948 . S
H292 C267 0.979 . S
H293 C267 0.980 . S
H294 C267 0.983 . S
H295 C266 0.982 1_455 S
H296 C266 0.979 . S
H297 C266 0.977 1_455 S
H298 C268 0.948 . S
H299 C270 0.947 . S
H300 C271 0.948 . S
H301 C277 0.982 . S
H302 C277 0.979 . S
H303 C277 0.977 . S
H304 C278 0.979 . S
H305 C278 0.980 . S
H306 C278 0.983 . S
H307 C251 0.947 . S
C308 C251 1.392 . S
C308 C252 1.419 . S
C308 H290 0.948 . S
C309 C310 1.391 . S
C309 C313 1.391 . S
C309 H351 0.948 . S
C310 C309 1.391 . S
C310 C311 1.391 . S
C311 C310 1.391 . S
C311 H367 0.947 . S
C311 C368 1.392 . S
C312 C313 1.391 . S
C312 C316 1.397 . S
C312 C368 1.419 . S
C313 C309 1.391 . S
C313 C312 1.391 . S
C313 C314 1.399 . S
C314 C313 1.399 . S
C314 C317 1.396 . S
C314 C326 1.453 . S
C314 C327 1.684 . S
H315 C339 0.948 . S
C316 C312 1.397 . S
C316 C317 1.394 . S
C316 C335 1.723 . S
C317 C314 1.396 . S
C317 C316 1.394 . S
C317 C347 1.723 1_565 S
H318 C341 0.947 . S
H319 C342 0.948 . S
H320 C348 0.982 . S
H321 C349 0.979 . S
H322 C349 0.980 . S
H323 C349 0.983 . S
H324 C348 0.979 . S
H325 C348 0.977 . S
C326 C314 1.453 . S
C326 H355 0.982 1_565 S
C326 H356 0.979 . S
C326 H357 0.977 1_565 S
C327 C314 1.684 . S
C327 H352 0.979 . S
C327 H353 0.980 . S
C327 H354 0.983 . S
C328 C329 1.391 1_565 S
C328 C333 1.391 . S
C328 H358 0.948 . S
C329 C328 1.391 1_545 S
C329 C330 1.391 . S
C330 C329 1.391 . S
C330 C331 1.392 . S
C330 H359 0.947 . S
C331 C330 1.392 . S
C331 C332 1.419 . S
C331 H360 0.948 . S
C332 C331 1.419 . S
C332 C333 1.391 1_545 S
C332 C336 1.397 . S
C333 C328 1.391 . S
C333 C332 1.391 1_565 S
C333 C334 1.399 . S
C334 C333 1.399 . S
C334 C335 1.396 . S
C334 C337 1.453 . S
C334 C338 1.684 . S
C335 C316 1.723 . S
C335 C334 1.396 . S
C335 C336 1.394 1_565 S
C336 C332 1.397 . S
C336 C335 1.394 1_545 S
C336 C346 1.723 . S
C337 C334 1.453 . S
C337 H361 0.982 . S
C337 H362 0.979 . S
C337 H363 0.977 . S
C338 C334 1.684 . S
C338 H364 0.979 . S
C338 H365 0.980 . S
C338 H366 0.983 . S
C339 H315 0.948 . S
C339 C340 1.391 . S
C339 C344 1.391 . S
C340 C339 1.391 . S
C340 C341 1.391 . S
C341 H318 0.947 . S
C341 C340 1.391 . S
C341 C342 1.392 . S
C342 H319 0.948 . S
C342 C341 1.392 . S
C342 C343 1.419 . S
C343 C342 1.419 . S
C343 C344 1.391 . S
C343 C347 1.397 . S
C344 C339 1.391 . S
C344 C343 1.391 . S
C344 C345 1.399 . S
C345 C344 1.399 . S
C345 C346 1.396 . S
C345 C348 1.453 . S
C345 C349 1.684 . S
C346 C336 1.723 . S
C346 C345 1.396 . S
C346 C347 1.394 . S
C347 C317 1.723 1_545 S
C347 C343 1.397 . S
C347 C346 1.394 . S
C348 H320 0.982 . S
C348 H324 0.979 . S
C348 H325 0.977 . S
C348 C345 1.453 . S
C349 H321 0.979 . S
C349 H322 0.980 . S
C349 H323 0.983 . S
C349 C345 1.684 . S
H350 C368 0.948 . S
H351 C309 0.948 . S
H352 C327 0.979 . S
H353 C327 0.980 . S
H354 C327 0.983 . S
H355 C326 0.982 1_545 S
H356 C326 0.979 . S
H357 C326 0.977 1_545 S
H358 C328 0.948 . S
H359 C330 0.947 . S
H360 C331 0.948 . S
H361 C337 0.982 . S
H362 C337 0.979 . S
H363 C337 0.977 . S
H364 C338 0.979 . S
H365 C338 0.980 . S
H366 C338 0.983 . S
H367 C311 0.947 . S
C368 C311 1.392 . S
C368 C312 1.419 . S
C368 H350 0.948 . S
C369 C370 1.391 . S
C369 C373 1.391 . S
C369 H411 0.948 . S
C370 C369 1.391 . S
C370 C371 1.391 . S
C371 C370 1.391 . S
C371 H427 0.947 . S
C371 C428 1.392 . S
C372 C373 1.391 . S
C372 C376 1.397 . S
C372 C428 1.419 . S
C373 C369 1.391 . S
C373 C372 1.391 . S
C373 C374 1.399 . S
C374 C373 1.399 . S
C374 C377 1.396 . S
C374 C386 1.453 . S
C374 C387 1.684 . S
H375 C399 0.948 . S
C376 C372 1.397 . S
C376 C377 1.394 . S
C376 C395 1.723 . S
C377 C374 1.396 . S
C377 C376 1.394 . S
C377 C407 1.723 . S
H378 C401 0.947 . S
H379 C402 0.948 . S
H380 C408 0.982 . S
H381 C409 0.979 . S
H382 C409 0.980 . S
H383 C409 0.983 . S
H384 C408 0.979 . S
H385 C408 0.977 . S
C386 C374 1.453 . S
C386 H415 0.982 . S
C386 H416 0.979 . S
C386 H417 0.977 . S
C387 C374 1.684 . S
C387 H412 0.979 . S
C387 H413 0.980 . S
C387 H414 0.983 . S
C388 C389 1.391 . S
C388 C393 1.391 . S
C388 H418 0.948 . S
C389 C388 1.391 . S
C389 C390 1.391 . S
C390 C389 1.391 . S
C390 C391 1.392 . S
C390 H419 0.947 . S
C391 C390 1.392 . S
C391 C392 1.419 . S
C391 H420 0.948 . S
C392 C391 1.419 . S
C392 C393 1.391 . S
C392 C396 1.397 . S
C393 C388 1.391 . S
C393 C392 1.391 . S
C393 C394 1.399 . S
C394 C393 1.399 . S
C394 C395 1.396 . S
C394 C397 1.453 . S
C394 C398 1.684 . S
C395 C376 1.723 . S
C395 C394 1.396 . S
C395 C396 1.394 . S
C396 C392 1.397 . S
C396 C395 1.394 . S
C396 C406 1.723 . S
C397 C394 1.453 . S
C397 H421 0.982 . S
C397 H422 0.979 . S
C397 H423 0.977 . S
C398 C394 1.684 . S
C398 H424 0.979 . S
C398 H425 0.980 . S
C398 H426 0.983 . S
C399 H375 0.948 . S
C399 C400 1.391 . S
C399 C404 1.391 . S
C400 C399 1.391 . S
C400 C401 1.391 . S
C401 H378 0.947 . S
C401 C400 1.391 . S
C401 C402 1.392 . S
C402 H379 0.948 . S
C402 C401 1.392 . S
C402 C403 1.419 . S
C403 C402 1.419 . S
C403 C404 1.391 . S
C403 C407 1.397 . S
C404 C399 1.391 . S
C404 C403 1.391 . S
C404 C405 1.399 . S
C405 C404 1.399 . S
C405 C406 1.396 . S
C405 C408 1.453 . S
C405 C409 1.684 . S
C406 C396 1.723 . S
C406 C405 1.396 . S
C406 C407 1.394 . S
C407 C377 1.723 . S
C407 C403 1.397 . S
C407 C406 1.394 . S
C408 H380 0.982 . S
C408 H384 0.979 . S
C408 H385 0.977 . S
C408 C405 1.453 . S
C409 H381 0.979 . S
C409 H382 0.980 . S
C409 H383 0.983 . S
C409 C405 1.684 . S
H410 C428 0.948 . S
H411 C369 0.948 . S
H412 C387 0.979 . S
H413 C387 0.980 . S
H414 C387 0.983 . S
H415 C386 0.982 . S
H416 C386 0.979 . S
H417 C386 0.977 . S
H418 C388 0.948 . S
H419 C390 0.947 . S
H420 C391 0.948 . S
H421 C397 0.982 . S
H422 C397 0.979 . S
H423 C397 0.977 . S
H424 C398 0.979 . S
H425 C398 0.980 . S
H426 C398 0.983 . S
H427 C371 0.947 . S
C428 C371 1.392 . S
C428 C372 1.419 . S
C428 H410 0.948 . S
H429 C437 0.929 . S
H430 C439 0.930 . S
H431 C441 0.930 . S
H432 C444 0.929 . S
H433 C447 0.930 . S
H434 C449 0.960 . S
H435 C449 0.960 . S
H436 C449 0.960 . S
C437 H429 0.929 . S
C437 C438 1.377 . S
C437 C439 1.384 . S
C438 C437 1.377 . S
C438 C444 1.390 . S
C439 H430 0.930 . S
C439 C437 1.384 . S
C439 C440 1.372 . S
C440 C439 1.372 . S
C440 C441 1.400 . S
C440 C445 1.490 . S
C441 H431 0.930 . S
C441 C440 1.400 . S
C441 C444 1.386 . S
H442 C458 0.930 . S
H443 C459 0.931 . S
C444 H432 0.929 . S
C444 C438 1.390 . S
C444 C441 1.386 . S
C445 C440 1.490 . S
C445 C447 1.395 . S
C445 C448 1.403 . S
H446 C452 0.930 . S
C447 H433 0.930 . S
C447 C445 1.395 . S
C447 C450 1.403 . S
C448 C445 1.403 . S
C448 C449 1.524 . S
C448 C452 1.400 . S
C449 H434 0.960 . S
C449 H435 0.960 . S
C449 H436 0.960 . S
C449 C448 1.524 . S
C450 C447 1.403 . S
C450 C451 1.392 . S
C450 C454 1.495 . S
C451 C450 1.392 . S
C451 C452 1.385 . S
C451 C453 1.478 . S
C452 H446 0.930 . S
C452 C448 1.400 . S
C452 C451 1.385 . S
C453 C451 1.478 . S
C453 C455 1.381 . S
C453 C459 1.383 . S
C454 C450 1.495 . S
C454 H460 0.959 . S
C454 H461 0.961 . S
C454 H462 0.960 . S
C455 C453 1.381 . S
C455 C456 1.394 . S
C455 H463 0.930 . S
C456 C455 1.394 . S
C456 C457 1.383 . S
C456 H464 0.929 . S
C457 C456 1.383 . S
C457 C458 1.377 . S
C458 H442 0.930 . S
C458 C457 1.377 . S
C458 C459 1.379 . S
C459 H443 0.931 . S
C459 C453 1.383 . S
C459 C458 1.379 . S
H460 C454 0.959 . S
H461 C454 0.961 . S
H462 C454 0.960 . S
H463 C455 0.930 . S
H464 C456 0.929 . S
H465 C473 0.929 . S
H466 C475 0.930 . S
H467 C477 0.930 . S
H468 C480 0.929 . S
H469 C483 0.930 . S
H470 C485 0.960 . S
H471 C485 0.960 . S
H472 C485 0.960 . S
C473 H465 0.929 . S
C473 C474 1.377 . S
C473 C475 1.384 . S
C474 C473 1.377 . S
C474 C480 1.390 . S
C475 H466 0.930 . S
C475 C473 1.384 . S
C475 C476 1.372 . S
C476 C475 1.372 . S
C476 C477 1.400 . S
C476 C481 1.490 . S
C477 H467 0.930 . S
C477 C476 1.400 . S
C477 C480 1.386 . S
H478 C494 0.930 . S
H479 C495 0.931 . S
C480 H468 0.929 . S
C480 C474 1.390 . S
C480 C477 1.386 . S
C481 C476 1.490 . S
C481 C483 1.395 . S
C481 C484 1.403 . S
H482 C488 0.930 . S
C483 H469 0.930 . S
C483 C481 1.395 . S
C483 C486 1.403 . S
C484 C481 1.403 . S
C484 C485 1.524 . S
C484 C488 1.400 . S
C485 H470 0.960 . S
C485 H471 0.960 . S
C485 H472 0.960 . S
C485 C484 1.524 . S
C486 C483 1.403 . S
C486 C487 1.392 . S
C486 C490 1.495 . S
C487 C486 1.392 . S
C487 C488 1.385 . S
C487 C489 1.478 . S
C488 H482 0.930 . S
C488 C484 1.400 . S
C488 C487 1.385 . S
C489 C487 1.478 . S
C489 C491 1.381 . S
C489 C495 1.383 . S
C490 C486 1.495 . S
C490 H496 0.959 . S
C490 H497 0.961 . S
C490 H498 0.960 . S
C491 C489 1.381 . S
C491 C492 1.394 . S
C491 H499 0.930 . S
C492 C491 1.394 . S
C492 C493 1.383 . S
C492 H500 0.929 . S
C493 C492 1.383 . S
C493 C494 1.377 . S
C494 H478 0.930 . S
C494 C493 1.377 . S
C494 C495 1.379 . S
C495 H479 0.931 . S
C495 C489 1.383 . S
C495 C494 1.379 . S
H496 C490 0.959 . S
H497 C490 0.961 . S
H498 C490 0.960 . S
H499 C491 0.930 . S
H500 C492 0.929 . S
H501 C509 0.929 . S
H502 C511 0.930 . S
H503 C513 0.930 . S
H504 C516 0.929 . S
H505 C519 0.930 . S
H506 C521 0.960 . S
H507 C521 0.960 . S
H508 C521 0.960 . S
C509 H501 0.929 . S
C509 C510 1.377 . S
C509 C511 1.384 . S
C510 C509 1.377 . S
C510 C516 1.390 . S
C511 H502 0.930 . S
C511 C509 1.384 . S
C511 C512 1.372 . S
C512 C511 1.372 . S
C512 C513 1.400 . S
C512 C517 1.490 . S
C513 H503 0.930 . S
C513 C512 1.400 . S
C513 C516 1.386 . S
H514 C530 0.930 . S
H515 C531 0.931 . S
C516 H504 0.929 . S
C516 C510 1.390 . S
C516 C513 1.386 . S
C517 C512 1.490 . S
C517 C519 1.395 . S
C517 C520 1.403 . S
H518 C524 0.930 . S
C519 H505 0.930 . S
C519 C517 1.395 . S
C519 C522 1.403 . S
C520 C517 1.403 . S
C520 C521 1.524 . S
C520 C524 1.400 . S
C521 H506 0.960 . S
C521 H507 0.960 . S
C521 H508 0.960 . S
C521 C520 1.524 . S
C522 C519 1.403 . S
C522 C523 1.392 . S
C522 C526 1.495 . S
C523 C522 1.392 . S
C523 C524 1.385 . S
C523 C525 1.478 . S
C524 H518 0.930 . S
C524 C520 1.400 . S
C524 C523 1.385 . S
C525 C523 1.478 . S
C525 C527 1.381 . S
C525 C531 1.383 . S
C526 C522 1.495 . S
C526 H532 0.959 . S
C526 H533 0.961 . S
C526 H534 0.960 . S
C527 C525 1.381 . S
C527 C528 1.394 . S
C527 H535 0.930 . S
C528 C527 1.394 . S
C528 C529 1.383 . S
C528 H536 0.929 . S
C529 C528 1.383 . S
C529 C530 1.377 . S
C530 H514 0.930 . S
C530 C529 1.377 . S
C530 C531 1.379 . S
C531 H515 0.931 . S
C531 C525 1.383 . S
C531 C530 1.379 . S
H532 C526 0.959 . S
H533 C526 0.961 . S
H534 C526 0.960 . S
H535 C527 0.930 . S
H536 C528 0.929 . S
H537 C545 0.929 . S
H538 C547 0.930 . S
H539 C549 0.930 . S
H540 C552 0.929 . S
H541 C555 0.930 . S
H542 C557 0.960 . S
H543 C557 0.960 . S
H544 C557 0.960 . S
C545 H537 0.929 . S
C545 C546 1.377 . S
C545 C547 1.384 . S
C546 C545 1.377 . S
C546 C552 1.390 . S
C547 H538 0.930 . S
C547 C545 1.384 . S
C547 C548 1.372 . S
C548 C547 1.372 . S
C548 C549 1.400 . S
C548 C553 1.490 . S
C549 H539 0.930 . S
C549 C548 1.400 . S
C549 C552 1.386 . S
H550 C566 0.930 . S
H551 C567 0.931 . S
C552 H540 0.929 . S
C552 C546 1.390 . S
C552 C549 1.386 . S
C553 C548 1.490 . S
C553 C555 1.395 . S
C553 C556 1.403 . S
H554 C560 0.930 . S
C555 H541 0.930 . S
C555 C553 1.395 . S
C555 C558 1.403 . S
C556 C553 1.403 . S
C556 C557 1.524 . S
C556 C560 1.400 . S
C557 H542 0.960 . S
C557 H543 0.960 . S
C557 H544 0.960 . S
C557 C556 1.524 . S
C558 C555 1.403 . S
C558 C559 1.392 . S
C558 C562 1.495 . S
C559 C558 1.392 . S
C559 C560 1.385 . S
C559 C561 1.478 . S
C560 H554 0.930 . S
C560 C556 1.400 . S
C560 C559 1.385 . S
C561 C559 1.478 . S
C561 C563 1.381 . S
C561 C567 1.383 . S
C562 C558 1.495 . S
C562 H568 0.959 . S
C562 H569 0.961 . S
C562 H570 0.960 . S
C563 C561 1.381 . S
C563 C564 1.394 . S
C563 H571 0.930 . S
C564 C563 1.394 . S
C564 C565 1.383 . S
C564 H572 0.929 . S
C565 C564 1.383 . S
C565 C566 1.377 . S
C566 H550 0.930 . S
C566 C565 1.377 . S
C566 C567 1.379 . S
C567 H551 0.931 . S
C567 C561 1.383 . S
C567 C566 1.379 . S
H568 C562 0.959 . S
H569 C562 0.961 . S
H570 C562 0.960 . S
H571 C563 0.930 . S
H572 C564 0.929 . S
H573 C581 0.929 . S
H574 C583 0.930 . S
H575 C585 0.930 . S
H576 C588 0.929 . S
H577 C591 0.930 . S
H578 C593 0.960 . S
H579 C593 0.960 . S
H580 C593 0.960 . S
C581 H573 0.929 . S
C581 C582 1.377 . S
C581 C583 1.384 . S
C582 C581 1.377 . S
C582 C588 1.390 . S
C583 H574 0.930 . S
C583 C581 1.384 . S
C583 C584 1.372 . S
C584 C583 1.372 . S
C584 C585 1.400 . S
C584 C589 1.490 . S
C585 H575 0.930 . S
C585 C584 1.400 . S
C585 C588 1.386 . S
H586 C602 0.930 . S
H587 C603 0.931 . S
C588 H576 0.929 . S
C588 C582 1.390 . S
C588 C585 1.386 . S
C589 C584 1.490 . S
C589 C591 1.395 . S
C589 C592 1.403 . S
H590 C596 0.930 . S
C591 H577 0.930 . S
C591 C589 1.395 . S
C591 C594 1.403 . S
C592 C589 1.403 . S
C592 C593 1.524 . S
C592 C596 1.400 . S
C593 H578 0.960 . S
C593 H579 0.960 . S
C593 H580 0.960 . S
C593 C592 1.524 . S
C594 C591 1.403 . S
C594 C595 1.392 . S
C594 C598 1.495 . S
C595 C594 1.392 . S
C595 C596 1.385 . S
C595 C597 1.478 . S
C596 H590 0.930 . S
C596 C592 1.400 . S
C596 C595 1.385 . S
C597 C595 1.478 . S
C597 C599 1.381 . S
C597 C603 1.383 . S
C598 C594 1.495 . S
C598 H604 0.959 . S
C598 H605 0.961 . S
C598 H606 0.960 . S
C599 C597 1.381 . S
C599 C600 1.394 . S
C599 H607 0.930 . S
C600 C599 1.394 . S
C600 C601 1.383 . S
C600 H608 0.929 . S
C601 C600 1.383 . S
C601 C602 1.377 . S
C602 H586 0.930 . S
C602 C601 1.377 . S
C602 C603 1.379 . S
C603 H587 0.931 . S
C603 C597 1.383 . S
C603 C602 1.379 . S
H604 C598 0.959 . S
H605 C598 0.961 . S
H606 C598 0.960 . S
H607 C599 0.930 . S
H608 C600 0.929 . S
H609 C617 0.929 . S
H610 C619 0.930 . S
H611 C621 0.930 . S
H612 C624 0.929 . S
H613 C627 0.930 . S
H614 C629 0.960 . S
H615 C629 0.960 . S
H616 C629 0.960 . S
C617 H609 0.929 . S
C617 C618 1.377 . S
C617 C619 1.384 . S
C618 C617 1.377 . S
C618 C624 1.390 . S
C619 H610 0.930 . S
C619 C617 1.384 . S
C619 C620 1.372 . S
C620 C619 1.372 . S
C620 C621 1.400 . S
C620 C625 1.490 . S
C621 H611 0.930 . S
C621 C620 1.400 . S
C621 C624 1.386 . S
H622 C638 0.930 . S
H623 C639 0.931 . S
C624 H612 0.929 . S
C624 C618 1.390 . S
C624 C621 1.386 . S
C625 C620 1.490 . S
C625 C627 1.395 . S
C625 C628 1.403 . S
H626 C632 0.930 . S
C627 H613 0.930 . S
C627 C625 1.395 . S
C627 C630 1.403 . S
C628 C625 1.403 . S
C628 C629 1.524 . S
C628 C632 1.400 . S
C629 H614 0.960 . S
C629 H615 0.960 . S
C629 H616 0.960 . S
C629 C628 1.524 . S
C630 C627 1.403 . S
C630 C631 1.392 . S
C630 C634 1.495 . S
C631 C630 1.392 . S
C631 C632 1.385 . S
C631 C633 1.478 . S
C632 H626 0.930 . S
C632 C628 1.400 . S
C632 C631 1.385 . S
C633 C631 1.478 . S
C633 C635 1.381 . S
C633 C639 1.383 . S
C634 C630 1.495 . S
C634 H640 0.959 . S
C634 H641 0.961 . S
C634 H642 0.960 . S
C635 C633 1.381 . S
C635 C636 1.394 . S
C635 H643 0.930 . S
C636 C635 1.394 . S
C636 C637 1.383 . S
C636 H644 0.929 . S
C637 C636 1.383 . S
C637 C638 1.377 . S
C638 H622 0.930 . S
C638 C637 1.377 . S
C638 C639 1.379 . S
C639 H623 0.931 . S
C639 C633 1.383 . S
C639 C638 1.379 . S
H640 C634 0.959 . S
H641 C634 0.961 . S
H642 C634 0.960 . S
H643 C635 0.930 . S
H644 C636 0.929 . S
H645 C653 0.929 . S
H646 C655 0.930 . S
H647 C657 0.930 . S
H648 C660 0.929 . S
H649 C663 0.930 . S
H650 C665 0.960 . S
H651 C665 0.960 . S
H652 C665 0.960 . S
C653 H645 0.929 . S
C653 C654 1.377 . S
C653 C655 1.384 . S
C654 C653 1.377 . S
C654 C660 1.390 . S
C655 H646 0.930 . S
C655 C653 1.384 . S
C655 C656 1.372 . S
C656 C655 1.372 . S
C656 C657 1.400 . S
C656 C661 1.490 . S
C657 H647 0.930 . S
C657 C656 1.400 . S
C657 C660 1.386 . S
H658 C674 0.930 . S
H659 C675 0.931 . S
C660 H648 0.929 . S
C660 C654 1.390 . S
C660 C657 1.386 . S
C661 C656 1.490 . S
C661 C663 1.395 . S
C661 C664 1.403 . S
H662 C668 0.930 . S
C663 H649 0.930 . S
C663 C661 1.395 . S
C663 C666 1.403 . S
C664 C661 1.403 . S
C664 C665 1.524 . S
C664 C668 1.400 . S
C665 H650 0.960 . S
C665 H651 0.960 . S
C665 H652 0.960 . S
C665 C664 1.524 . S
C666 C663 1.403 . S
C666 C667 1.392 . S
C666 C670 1.495 . S
C667 C666 1.392 . S
C667 C668 1.385 . S
C667 C669 1.478 . S
C668 H662 0.930 . S
C668 C664 1.400 . S
C668 C667 1.385 . S
C669 C667 1.478 . S
C669 C671 1.381 . S
C669 C675 1.383 . S
C670 C666 1.495 . S
C670 H676 0.959 . S
C670 H677 0.961 . S
C670 H678 0.960 . S
C671 C669 1.381 . S
C671 C672 1.394 . S
C671 H679 0.930 . S
C672 C671 1.394 . S
C672 C673 1.383 . S
C672 H680 0.929 . S
C673 C672 1.383 . S
C673 C674 1.377 . S
C674 H658 0.930 . S
C674 C673 1.377 . S
C674 C675 1.379 . S
C675 H659 0.931 . S
C675 C669 1.383 . S
C675 C674 1.379 . S
H676 C670 0.959 . S
H677 C670 0.961 . S
H678 C670 0.960 . S
H679 C671 0.930 . S
H680 C672 0.929 . S
H681 C689 0.929 . S
H682 C691 0.930 . S
H683 C693 0.930 . S
H684 C696 0.929 . S
H685 C699 0.930 . S
H686 C701 0.960 . S
H687 C701 0.960 . S
H688 C701 0.960 . S
C689 H681 0.929 . S
C689 C690 1.377 . S
C689 C691 1.384 . S
C690 C689 1.377 . S
C690 C696 1.390 . S
C691 H682 0.930 . S
C691 C689 1.384 . S
C691 C692 1.372 . S
C692 C691 1.372 . S
C692 C693 1.400 . S
C692 C697 1.490 . S
C693 H683 0.930 . S
C693 C692 1.400 . S
C693 C696 1.386 . S
H694 C710 0.930 . S
H695 C711 0.931 . S
C696 H684 0.929 . S
C696 C690 1.390 . S
C696 C693 1.386 . S
C697 C692 1.490 . S
C697 C699 1.395 . S
C697 C700 1.403 . S
H698 C704 0.930 . S
C699 H685 0.930 . S
C699 C697 1.395 . S
C699 C702 1.403 . S
C700 C697 1.403 . S
C700 C701 1.524 . S
C700 C704 1.400 . S
C701 H686 0.960 . S
C701 H687 0.960 . S
C701 H688 0.960 . S
C701 C700 1.524 . S
C702 C699 1.403 . S
C702 C703 1.392 . S
C702 C706 1.495 . S
C703 C702 1.392 . S
C703 C704 1.385 . S
C703 C705 1.478 . S
C704 H698 0.930 . S
C704 C700 1.400 . S
C704 C703 1.385 . S
C705 C703 1.478 . S
C705 C707 1.381 . S
C705 C711 1.383 . S
C706 C702 1.495 . S
C706 H712 0.959 . S
C706 H713 0.961 . S
C706 H714 0.960 . S
C707 C705 1.381 . S
C707 C708 1.394 . S
C707 H715 0.930 . S
C708 C707 1.394 . S
C708 C709 1.383 . S
C708 H716 0.929 . S
C709 C708 1.383 . S
C709 C710 1.377 . S
C710 H694 0.930 . S
C710 C709 1.377 . S
C710 C711 1.379 . S
C711 H695 0.931 . S
C711 C705 1.383 . S
C711 C710 1.379 . S
H712 C706 0.959 . S
H713 C706 0.961 . S
H714 C706 0.960 . S
H715 C707 0.930 . S
H716 C708 0.929 . S
H717 C725 0.929 . S
H718 C727 0.930 . S
H719 C729 0.930 . S
H720 C732 0.929 . S
H721 C735 0.930 . S
H722 C737 0.960 . S
H723 C737 0.960 . S
H724 C737 0.960 . S
C725 H717 0.929 . S
C725 C726 1.377 . S
C725 C727 1.384 . S
C726 C725 1.377 . S
C726 C732 1.390 . S
C727 H718 0.930 . S
C727 C725 1.384 . S
C727 C728 1.372 . S
C728 C727 1.372 . S
C728 C729 1.400 . S
C728 C733 1.490 . S
C729 H719 0.930 . S
C729 C728 1.400 . S
C729 C732 1.386 . S
H730 C746 0.930 . S
H731 C747 0.931 . S
C732 H720 0.929 . S
C732 C726 1.390 . S
C732 C729 1.386 . S
C733 C728 1.490 . S
C733 C735 1.395 . S
C733 C736 1.403 . S
H734 C740 0.930 . S
C735 H721 0.930 . S
C735 C733 1.395 . S
C735 C738 1.403 . S
C736 C733 1.403 . S
C736 C737 1.524 . S
C736 C740 1.400 . S
C737 H722 0.960 . S
C737 H723 0.960 . S
C737 H724 0.960 . S
C737 C736 1.524 . S
C738 C735 1.403 . S
C738 C739 1.392 . S
C738 C742 1.495 . S
C739 C738 1.392 . S
C739 C740 1.385 . S
C739 C741 1.478 . S
C740 H734 0.930 . S
C740 C736 1.400 . S
C740 C739 1.385 . S
C741 C739 1.478 . S
C741 C743 1.381 . S
C741 C747 1.383 . S
C742 C738 1.495 . S
C742 H748 0.959 . S
C742 H749 0.961 . S
C742 H750 0.960 . S
C743 C741 1.381 . S
C743 C744 1.394 . S
C743 H751 0.930 . S
C744 C743 1.394 . S
C744 C745 1.383 . S
C744 H752 0.929 . S
C745 C744 1.383 . S
C745 C746 1.377 . S
C746 H730 0.930 . S
C746 C745 1.377 . S
C746 C747 1.379 . S
C747 H731 0.931 . S
C747 C741 1.383 . S
C747 C746 1.379 . S
H748 C742 0.959 . S
H749 C742 0.961 . S
H750 C742 0.960 . S
H751 C743 0.930 . S
H752 C744 0.929 . S
H753 C761 0.929 . S
H754 C763 0.930 . S
H755 C765 0.930 . S
H756 C768 0.929 . S
H757 C771 0.930 . S
H758 C773 0.960 . S
H759 C773 0.960 . S
H760 C773 0.960 . S
C761 H753 0.929 . S
C761 C762 1.377 . S
C761 C763 1.384 . S
C762 C761 1.377 . S
C762 C768 1.390 . S
C763 H754 0.930 . S
C763 C761 1.384 . S
C763 C764 1.372 . S
C764 C763 1.372 . S
C764 C765 1.400 . S
C764 C769 1.490 . S
C765 H755 0.930 . S
C765 C764 1.400 . S
C765 C768 1.386 . S
H766 C782 0.930 . S
H767 C783 0.931 . S
C768 H756 0.929 . S
C768 C762 1.390 . S
C768 C765 1.386 . S
C769 C764 1.490 . S
C769 C771 1.395 . S
C769 C772 1.403 . S
H770 C776 0.930 . S
C771 H757 0.930 . S
C771 C769 1.395 . S
C771 C774 1.403 . S
C772 C769 1.403 . S
C772 C773 1.524 . S
C772 C776 1.400 . S
C773 H758 0.960 . S
C773 H759 0.960 . S
C773 H760 0.960 . S
C773 C772 1.524 . S
C774 C771 1.403 . S
C774 C775 1.392 . S
C774 C778 1.495 . S
C775 C774 1.392 . S
C775 C776 1.385 . S
C775 C777 1.478 . S
C776 H770 0.930 . S
C776 C772 1.400 . S
C776 C775 1.385 . S
C777 C775 1.478 . S
C777 C779 1.381 . S
C777 C783 1.383 . S
C778 C774 1.495 . S
C778 H784 0.959 . S
C778 H785 0.961 . S
C778 H786 0.960 . S
C779 C777 1.381 . S
C779 C780 1.394 . S
C779 H787 0.930 . S
C780 C779 1.394 . S
C780 C781 1.383 . S
C780 H788 0.929 . S
C781 C780 1.383 . S
C781 C782 1.377 . S
C782 H766 0.930 . S
C782 C781 1.377 . S
C782 C783 1.379 . S
C783 H767 0.931 . S
C783 C777 1.383 . S
C783 C782 1.379 . S
H784 C778 0.959 . S
H785 C778 0.961 . S
H786 C778 0.960 . S
H787 C779 0.930 . S
H788 C780 0.929 . S
H789 C797 0.929 . S
H790 C799 0.930 . S
H791 C801 0.930 . S
H792 C804 0.929 . S
H793 C807 0.930 . S
H794 C809 0.960 . S
H795 C809 0.960 . S
H796 C809 0.960 . S
C797 H789 0.929 . S
C797 C798 1.377 . S
C797 C799 1.384 . S
C798 C797 1.377 . S
C798 C804 1.390 . S
C799 H790 0.930 . S
C799 C797 1.384 . S
C799 C800 1.372 . S
C800 C799 1.372 . S
C800 C801 1.400 . S
C800 C805 1.490 . S
C801 H791 0.930 . S
C801 C800 1.400 . S
C801 C804 1.386 . S
H802 C818 0.930 . S
H803 C819 0.931 . S
C804 H792 0.929 . S
C804 C798 1.390 . S
C804 C801 1.386 . S
C805 C800 1.490 . S
C805 C807 1.395 . S
C805 C808 1.403 . S
H806 C812 0.930 . S
C807 H793 0.930 . S
C807 C805 1.395 . S
C807 C810 1.403 . S
C808 C805 1.403 . S
C808 C809 1.524 . S
C808 C812 1.400 . S
C809 H794 0.960 . S
C809 H795 0.960 . S
C809 H796 0.960 . S
C809 C808 1.524 . S
C810 C807 1.403 . S
C810 C811 1.392 . S
C810 C814 1.495 . S
C811 C810 1.392 . S
C811 C812 1.385 . S
C811 C813 1.478 . S
C812 H806 0.930 . S
C812 C808 1.400 . S
C812 C811 1.385 . S
C813 C811 1.478 . S
C813 C815 1.381 . S
C813 C819 1.383 . S
C814 C810 1.495 . S
C814 H820 0.959 . S
C814 H821 0.961 . S
C814 H822 0.960 . S
C815 C813 1.381 . S
C815 C816 1.394 . S
C815 H823 0.930 . S
C816 C815 1.394 . S
C816 C817 1.383 . S
C816 H824 0.929 . S
C817 C816 1.383 . S
C817 C818 1.377 . S
C818 H802 0.930 . S
C818 C817 1.377 . S
C818 C819 1.379 . S
C819 H803 0.931 . S
C819 C813 1.383 . S
C819 C818 1.379 . S
H820 C814 0.959 . S
H821 C814 0.961 . S
H822 C814 0.960 . S
H823 C815 0.930 . S
H824 C816 0.929 . S
H825 C833 0.929 . S
H826 C835 0.930 . S
H827 C837 0.930 . S
H828 C840 0.929 . S
H829 C843 0.930 . S
H830 C845 0.960 . S
H831 C845 0.960 . S
H832 C845 0.960 . S
C833 H825 0.929 . S
C833 C834 1.377 . S
C833 C835 1.384 . S
C834 C833 1.377 . S
C834 C840 1.390 . S
C835 H826 0.930 . S
C835 C833 1.384 . S
C835 C836 1.372 . S
C836 C835 1.372 . S
C836 C837 1.400 . S
C836 C841 1.490 . S
C837 H827 0.930 . S
C837 C836 1.400 . S
C837 C840 1.386 . S
H838 C854 0.930 . S
H839 C855 0.931 . S
C840 H828 0.929 . S
C840 C834 1.390 . S
C840 C837 1.386 . S
C841 C836 1.490 . S
C841 C843 1.395 . S
C841 C844 1.403 . S
H842 C848 0.930 . S
C843 H829 0.930 . S
C843 C841 1.395 . S
C843 C846 1.403 . S
C844 C841 1.403 . S
C844 C845 1.524 . S
C844 C848 1.400 . S
C845 H830 0.960 . S
C845 H831 0.960 . S
C845 H832 0.960 . S
C845 C844 1.524 . S
C846 C843 1.403 . S
C846 C847 1.392 . S
C846 C850 1.495 . S
C847 C846 1.392 . S
C847 C848 1.385 . S
C847 C849 1.478 . S
C848 H842 0.930 . S
C848 C844 1.400 . S
C848 C847 1.385 . S
C849 C847 1.478 . S
C849 C851 1.381 . S
C849 C855 1.383 . S
C850 C846 1.495 . S
C850 H856 0.959 . S
C850 H857 0.961 . S
C850 H858 0.960 . S
C851 C849 1.381 . S
C851 C852 1.394 . S
C851 H859 0.930 . S
C852 C851 1.394 . S
C852 C853 1.383 . S
C852 H860 0.929 . S
C853 C852 1.383 . S
C853 C854 1.377 . S
C854 H838 0.930 . S
C854 C853 1.377 . S
C854 C855 1.379 . S
C855 H839 0.931 . S
C855 C849 1.383 . S
C855 C854 1.379 . S
H856 C850 0.959 . S
H857 C850 0.961 . S
H858 C850 0.960 . S
H859 C851 0.930 . S
H860 C852 0.929 . S
H861 C869 0.929 . S
H862 C871 0.930 . S
H863 C873 0.930 . S
H864 C876 0.929 . S
H865 C879 0.930 . S
H866 C881 0.960 . S
H867 C881 0.960 . S
H868 C881 0.960 . S
C869 H861 0.929 . S
C869 C870 1.377 1_655 S
C869 C871 1.384 . S
C870 C869 1.377 1_455 S
C870 C876 1.390 . S
C871 H862 0.930 . S
C871 C869 1.384 . S
C871 C872 1.372 1_655 S
C872 C871 1.372 1_455 S
C872 C873 1.400 . S
C872 C877 1.490 . S
C873 H863 0.930 . S
C873 C872 1.400 . S
C873 C876 1.386 . S
H874 C890 0.930 . S
H875 C891 0.931 . S
C876 H864 0.929 . S
C876 C870 1.390 . S
C876 C873 1.386 . S
C877 C872 1.490 . S
C877 C879 1.395 1_455 S
C877 C880 1.403 . S
H878 C884 0.930 . S
C879 H865 0.930 . S
C879 C877 1.395 1_655 S
C879 C882 1.403 . S
C880 C877 1.403 . S
C880 C881 1.524 . S
C880 C884 1.400 . S
C881 H866 0.960 . S
C881 H867 0.960 . S
C881 H868 0.960 . S
C881 C880 1.524 . S
C882 C879 1.403 . S
C882 C883 1.392 1_655 S
C882 C886 1.495 . S
C883 C882 1.392 1_455 S
C883 C884 1.385 . S
C883 C885 1.478 . S
C884 H878 0.930 . S
C884 C880 1.400 . S
C884 C883 1.385 . S
C885 C883 1.478 . S
C885 C887 1.381 1_455 S
C885 C891 1.383 . S
C886 C882 1.495 . S
C886 H892 0.959 . S
C886 H893 0.961 . S
C886 H894 0.960 . S
C887 C885 1.381 1_655 S
C887 C888 1.394 1_554 S
C887 H895 0.930 . S
C888 C887 1.394 1_556 S
C888 C889 1.383 1_655 S
C888 H896 0.929 . S
C889 C888 1.383 1_455 S
C889 C890 1.377 . S
C890 H874 0.930 . S
C890 C889 1.377 . S
C890 C891 1.379 1_556 S
C891 H875 0.931 . S
C891 C885 1.383 . S
C891 C890 1.379 1_554 S
H892 C886 0.959 . S
H893 C886 0.961 . S
H894 C886 0.960 . S
H895 C887 0.930 . S
H896 C888 0.929 . S
H897 C905 0.929 . S
H898 C907 0.930 . S
H899 C909 0.930 . S
H900 C912 0.929 . S
H901 C915 0.930 . S
H902 C917 0.960 . S
H903 C917 0.960 . S
H904 C917 0.960 . S
C905 H897 0.929 . S
C905 C906 1.377 1_565 S
C905 C907 1.384 . S
C906 C905 1.377 1_545 S
C906 C912 1.390 . S
C907 H898 0.930 . S
C907 C905 1.384 . S
C907 C908 1.372 1_565 S
C908 C907 1.372 1_545 S
C908 C909 1.400 . S
C908 C913 1.490 . S
C909 H899 0.930 . S
C909 C908 1.400 . S
C909 C912 1.386 . S
H910 C926 0.930 . S
H911 C927 0.931 . S
C912 H900 0.929 . S
C912 C906 1.390 . S
C912 C909 1.386 . S
C913 C908 1.490 . S
C913 C915 1.395 . S
C913 C916 1.403 1_545 S
H914 C920 0.930 . S
C915 H901 0.930 . S
C915 C913 1.395 . S
C915 C918 1.403 . S
C916 C913 1.403 1_565 S
C916 C917 1.524 . S
C916 C920 1.400 . S
C917 H902 0.960 . S
C917 H903 0.960 . S
C917 H904 0.960 . S
C917 C916 1.524 . S
C918 C915 1.403 . S
C918 C919 1.392 . S
C918 C922 1.495 . S
C919 C918 1.392 . S
C919 C920 1.385 1_545 S
C919 C921 1.478 . S
C920 H914 0.930 . S
C920 C916 1.400 . S
C920 C919 1.385 1_565 S
C921 C919 1.478 . S
C921 C923 1.381 1_545 S
C921 C927 1.383 . S
C922 C918 1.495 . S
C922 H928 0.959 . S
C922 H929 0.961 . S
C922 H930 0.960 . S
C923 C921 1.381 1_565 S
C923 C924 1.394 . S
C923 H931 0.930 . S
C924 C923 1.394 . S
C924 C925 1.383 1_565 S
C924 H932 0.929 . S
C925 C924 1.383 1_545 S
C925 C926 1.377 . S
C926 H910 0.930 . S
C926 C925 1.377 . S
C926 C927 1.379 . S
C927 H911 0.931 . S
C927 C921 1.383 . S
C927 C926 1.379 . S
H928 C922 0.959 . S
H929 C922 0.961 . S
H930 C922 0.960 . S
H931 C923 0.930 . S
H932 C924 0.929 . S
H933 C941 0.929 . S
H934 C943 0.930 . S
H935 C945 0.930 . S
H936 C948 0.929 . S
H937 C951 0.930 . S
H938 C953 0.960 . S
H939 C953 0.960 . S
H940 C953 0.960 . S
C941 H933 0.929 . S
C941 C942 1.377 . S
C941 C943 1.384 . S
C942 C941 1.377 . S
C942 C948 1.390 . S
C943 H934 0.930 . S
C943 C941 1.384 . S
C943 C944 1.372 . S
C944 C943 1.372 . S
C944 C945 1.400 . S
C944 C949 1.490 . S
C945 H935 0.930 . S
C945 C944 1.400 . S
C945 C948 1.386 . S
H946 C962 0.930 . S
H947 C963 0.931 . S
C948 H936 0.929 . S
C948 C942 1.390 . S
C948 C945 1.386 . S
C949 C944 1.490 . S
C949 C951 1.395 . S
C949 C952 1.403 . S
H950 C956 0.930 . S
C951 H937 0.930 . S
C951 C949 1.395 . S
C951 C954 1.403 . S
C952 C949 1.403 . S
C952 C953 1.524 . S
C952 C956 1.400 . S
C953 H938 0.960 . S
C953 H939 0.960 . S
C953 H940 0.960 . S
C953 C952 1.524 . S
C954 C951 1.403 . S
C954 C955 1.392 . S
C954 C958 1.495 . S
C955 C954 1.392 . S
C955 C956 1.385 . S
C955 C957 1.478 . S
C956 H950 0.930 . S
C956 C952 1.400 . S
C956 C955 1.385 . S
C957 C955 1.478 . S
C957 C959 1.381 . S
C957 C963 1.383 . S
C958 C954 1.495 . S
C958 H964 0.959 . S
C958 H965 0.961 . S
C958 H966 0.960 . S
C959 C957 1.381 . S
C959 C960 1.394 . S
C959 H967 0.930 . S
C960 C959 1.394 . S
C960 C961 1.383 . S
C960 H968 0.929 . S
C961 C960 1.383 . S
C961 C962 1.377 . S
C962 H946 0.930 . S
C962 C961 1.377 . S
C962 C963 1.379 . S
C963 H947 0.931 . S
C963 C957 1.383 . S
C963 C962 1.379 . S
H964 C958 0.959 . S
H965 C958 0.961 . S
H966 C958 0.960 . S
H967 C959 0.930 . S
H968 C960 0.929 . S
H969 C977 0.929 . S
H970 C979 0.930 . S
H971 C981 0.930 . S
H972 C984 0.929 . S
H973 C987 0.930 . S
H974 C989 0.960 . S
H975 C989 0.960 . S
H976 C989 0.960 . S
C977 H969 0.929 . S
C977 C978 1.377 1_565 S
C977 C979 1.384 . S
C978 C977 1.377 1_545 S
C978 C984 1.390 . S
C979 H970 0.930 . S
C979 C977 1.384 . S
C979 C980 1.372 1_565 S
C980 C979 1.372 1_545 S
C980 C981 1.400 . S
C980 C985 1.490 . S
C981 H971 0.930 . S
C981 C980 1.400 . S
C981 C984 1.386 . S
H982 C998 0.930 . S
H983 C999 0.931 . S
C984 H972 0.929 . S
C984 C978 1.390 . S
C984 C981 1.386 . S
C985 C980 1.490 . S
C985 C987 1.388 1_545 S
C985 C988 1.409 . S
H986 C992 0.930 . S
C987 H973 0.930 . S
C987 C985 1.388 1_565 S
C987 C990 1.403 . S
C988 C985 1.409 . S
C988 C989 1.524 . S
C988 C992 1.400 . S
C989 H974 0.960 . S
C989 H975 0.960 . S
C989 H976 0.960 . S
C989 C988 1.524 . S
C990 C987 1.403 . S
C990 C991 1.392 . S
C990 C994 1.495 . S
C991 C990 1.392 . S
C991 C992 1.385 1_565 S
C991 C993 1.478 . S
C992 H986 0.930 . S
C992 C988 1.400 . S
C992 C991 1.385 1_545 S
C993 C991 1.478 . S
C993 C995 1.381 . S
C993 C999 1.383 1_565 S
C994 C990 1.495 . S
C994 H1000 0.959 . S
C994 H1001 0.961 . S
C994 H1002 0.960 . S
C995 C993 1.381 . S
C995 C996 1.394 . S
C995 H1003 0.930 . S
C996 C995 1.394 . S
C996 C997 1.383 . S
C996 H1004 0.929 . S
C997 C996 1.383 . S
C997 C998 1.377 1_565 S
C998 H982 0.930 . S
C998 C997 1.377 1_545 S
C998 C999 1.379 . S
C999 H983 0.931 . S
C999 C993 1.383 1_545 S
C999 C998 1.379 . S
H1000 C994 0.959 . S
H1001 C994 0.961 . S
H1002 C994 0.960 . S
H1003 C995 0.930 . S
H1004 C996 0.929 . S
H1005 C1013 0.929 . S
H1006 C1015 0.930 . S
H1007 C1017 0.930 . S
H1008 C1020 0.929 . S
H1009 C1023 0.930 . S
H1010 C1025 0.960 . S
H1011 C1025 0.960 . S
H1012 C1025 0.960 . S
C1013 H1005 0.929 . S
C1013 C1014 1.377 . S
C1013 C1015 1.384 . S
C1014 C1013 1.377 . S
C1014 C1020 1.390 . S
C1015 H1006 0.930 . S
C1015 C1013 1.384 . S
C1015 C1016 1.372 . S
C1016 C1015 1.372 . S
C1016 C1017 1.400 . S
C1016 C1021 1.490 . S
C1017 H1007 0.930 . S
C1017 C1016 1.400 . S
C1017 C1020 1.386 . S
H1018 C1034 0.930 . S
H1019 C1035 0.931 . S
C1020 H1008 0.929 . S
C1020 C1014 1.390 . S
C1020 C1017 1.386 . S
C1021 C1016 1.490 . S
C1021 C1023 1.395 . S
C1021 C1024 1.403 . S
H1022 C1028 0.930 . S
C1023 H1009 0.930 . S
C1023 C1021 1.395 . S
C1023 C1026 1.403 . S
C1024 C1021 1.403 . S
C1024 C1025 1.524 . S
C1024 C1028 1.400 . S
C1025 H1010 0.960 . S
C1025 H1011 0.960 . S
C1025 H1012 0.960 . S
C1025 C1024 1.524 . S
C1026 C1023 1.403 . S
C1026 C1027 1.392 . S
C1026 C1030 1.495 . S
C1027 C1026 1.392 . S
C1027 C1028 1.385 . S
C1027 C1029 1.478 . S
C1028 H1022 0.930 . S
C1028 C1024 1.400 . S
C1028 C1027 1.385 . S
C1029 C1027 1.478 . S
C1029 C1031 1.381 . S
C1029 C1035 1.383 . S
C1030 C1026 1.495 . S
C1030 H1036 0.959 . S
C1030 H1037 0.961 . S
C1030 H1038 0.960 . S
C1031 C1029 1.381 . S
C1031 C1032 1.394 1_556 S
C1031 H1039 0.930 . S
C1032 C1031 1.394 1_554 S
C1032 C1033 1.383 . S
C1032 H1040 0.929 . S
C1033 C1032 1.383 . S
C1033 C1034 1.377 . S
C1034 H1018 0.930 . S
C1034 C1033 1.377 . S
C1034 C1035 1.379 1_554 S
C1035 H1019 0.931 . S
C1035 C1029 1.383 . S
C1035 C1034 1.379 1_556 S
H1036 C1030 0.959 . S
H1037 C1030 0.961 . S
H1038 C1030 0.960 . S
H1039 C1031 0.930 . S
H1040 C1032 0.929 . S
H1041 C1049 0.929 . S
H1042 C1051 0.930 . S
H1043 C1053 0.930 . S
H1044 C1056 0.929 . S
H1045 C1059 0.930 . S
H1046 C1061 0.960 . S
H1047 C1061 0.960 . S
H1048 C1061 0.948 1_455 S
C1049 H1041 0.929 . S
C1049 C1050 1.377 1_655 S
C1049 C1051 1.384 . S
C1050 C1049 1.377 1_455 S
C1050 C1056 1.390 . S
C1051 H1042 0.930 . S
C1051 C1049 1.384 . S
C1051 C1052 1.372 1_655 S
C1052 C1051 1.372 1_455 S
C1052 C1053 1.400 . S
C1052 C1057 1.490 . S
C1053 H1043 0.930 . S
C1053 C1052 1.400 . S
C1053 C1056 1.386 . S
H1054 C1070 0.930 . S
H1055 C1071 0.931 . S
C1056 H1044 0.929 . S
C1056 C1050 1.390 . S
C1056 C1053 1.386 . S
C1057 C1052 1.490 . S
C1057 C1059 1.395 . S
C1057 C1060 1.403 1_455 S
H1058 C1064 0.930 . S
C1059 H1045 0.930 . S
C1059 C1057 1.395 . S
C1059 C1062 1.403 . S
C1060 C1057 1.403 1_655 S
C1060 C1061 1.524 . S
C1060 C1064 1.400 . S
C1061 H1046 0.960 . S
C1061 H1047 0.960 . S
C1061 H1048 0.948 1_655 S
C1061 C1060 1.524 . S
C1062 C1059 1.403 . S
C1062 C1063 1.392 . S
C1062 C1066 1.495 . S
C1063 C1062 1.392 . S
C1063 C1064 1.385 1_455 S
C1063 C1065 1.478 . S
C1064 H1058 0.930 . S
C1064 C1060 1.400 . S
C1064 C1063 1.385 1_655 S
C1065 C1063 1.478 . S
C1065 C1067 1.381 1_455 S
C1065 C1071 1.383 . S
C1066 C1062 1.495 . S
C1066 H1072 0.959 . S
C1066 H1073 0.961 . S
C1066 H1074 0.960 . S
C1067 C1065 1.381 1_655 S
C1067 C1068 1.394 . S
C1067 H1075 0.930 . S
C1068 C1067 1.394 . S
C1068 C1069 1.383 1_655 S
C1068 H1076 0.929 . S
C1069 C1068 1.383 1_455 S
C1069 C1070 1.377 . S
C1070 H1054 0.930 . S
C1070 C1069 1.377 . S
C1070 C1071 1.379 . S
C1071 H1055 0.931 . S
C1071 C1065 1.383 . S
C1071 C1070 1.379 . S
H1072 C1066 0.959 . S
H1073 C1066 0.961 . S
H1074 C1066 0.960 . S
H1075 C1067 0.930 . S
H1076 C1068 0.929 . S
C438 C20 1.063 . S
C457 C400 1.088 . S
C474 C41 1.120 . S
C493 C250 1.107 . S
C510 C64 1.141 . S
C529 C310 1.103 . S
C546 C19 1.105 . S
C565 C370 1.118 . S
C601 C280 1.118 . S
C582 C44 1.115 . S
C637 C340 1.115 . S
C618 C67 1.103 . S
C654 C43 1.065 . S
C673 C130 1.013 . S
C690 C66 1.068 . S
C709 C220 1.086 . S
C726 C21 1.114 . S
C745 C100 1.122 . S
C781 C160 1.136 . S
C762 C42 1.105 . S
C817 C190 1.103 . S
C798 C65 1.118 . S
C834 C18 1.123 . S
C853 C70 1.108 . S
C889 C209 1.409 . S
C870 C17 1.450 . S
C906 C39 1.446 . S
C925 C89 1.415 . S
C942 C62 1.466 . S
C961 C149 1.457 . S
C997 C329 1.418 1_565 S
C978 C40 1.430 . S
C1033 C389 1.410 . S
C1014 C63 1.451 . S
C1050 C16 1.446 . S
C1069 C269 1.432 . S
