# Generated by pormake.
# Topology rtl, (3,6)-cn, num edge types: 1
# Building blocks:
#     Node 0, Type 0, BuildingBlock: CUQRIR_clean_linker_1, # of connection points: 3
#     Node 1, Type 0, BuildingBlock: CUQRIR_clean_linker_1, # of connection points: 3
#     Node 2, Type 0, BuildingBlock: CUQRIR_clean_linker_1, # of connection points: 3
#     Node 3, Type 0, BuildingBlock: CUQRIR_clean_linker_1, # of connection points: 3
#     Node 4, Type 1, BuildingBlock: LEVNOQ01_clean_sbu_1, # of connection points: 6
#     Node 5, Type 1, BuildingBlock: LEVNOQ01_clean_sbu_1, # of connection points: 6
#     Edge 6, Type (0, 1), BuildingBlock: TEMPAE_clean_linker_10, # of connection points: 2
#     Edge 7, Type (0, 1), BuildingBlock: TEMPAE_clean_linker_10, # of connection points: 2
#     Edge 8, Type (0, 1), BuildingBlock: TEMPAE_clean_linker_10, # of connection points: 2
#     Edge 9, Type (0, 1), BuildingBlock: TEMPAE_clean_linker_10, # of connection points: 2
#     Edge 10, Type (0, 1), BuildingBlock: TEMPAE_clean_linker_10, # of connection points: 2
#     Edge 11, Type (0, 1), BuildingBlock: TEMPAE_clean_linker_10, # of connection points: 2
#     Edge 12, Type (0, 1), BuildingBlock: TEMPAE_clean_linker_10, # of connection points: 2
#     Edge 13, Type (0, 1), BuildingBlock: TEMPAE_clean_linker_10, # of connection points: 2
#     Edge 14, Type (0, 1), BuildingBlock: TEMPAE_clean_linker_10, # of connection points: 2
#     Edge 15, Type (0, 1), BuildingBlock: TEMPAE_clean_linker_10, # of connection points: 2
#     Edge 16, Type (0, 1), BuildingBlock: TEMPAE_clean_linker_10, # of connection points: 2
#     Edge 17, Type (0, 1), BuildingBlock: TEMPAE_clean_linker_10, # of connection points: 2
# Relax obj value: 0.023
# Max RMSD: 0.124
# Mean RMSD: 0.102
data_MOF--net-rtl--node1-LEVNOQ01_clean_sbu_1--node2-CUQRIR_clean_linker_1--edge1-TEMPAE_clean_linker_10
_symmetry_space_group_name_H-M    P1
_symmetry_Int_Tables_number       1
_symmetry_cell_setting            triclinic
loop_
_symmetry_equiv_pos_as_xyz
'x, y, z'
_cell_length_a     33.65204
_cell_length_b     33.594379
_cell_length_c     20.605146
_cell_angle_alpha  90.036494
_cell_angle_beta   97.776513
_cell_angle_gamma 89.972451
loop_
_atom_site_label
_atom_site_type_symbol
_atom_site_fract_x
_atom_site_fract_y
_atom_site_fract_z
_atom_type_partial_charge
C0 C 0.19243 0.76459 0.0502 0.0
N1 N 0.17105 0.79793 0.05924 0.0
N2 N 0.21327 0.7523 0.10758 0.0
C3 C 0.19733 0.7471 0.98432 0.0
C4 C 0.20473 0.77979 0.15151 0.0
N5 N 0.17955 0.80782 0.12212 0.0
C6 C 0.21948 0.77806 0.22377 0.0
H7 H 0.17453 0.72346 0.97213 0.0
H8 H 0.22746 0.7336 0.98481 0.0
H9 H 0.19322 0.77007 0.94532 0.0
H10 H 0.2462 0.79748 0.23472 0.0
H11 H 0.22805 0.74725 0.23925 0.0
H12 H 0.19607 0.78897 0.25253 0.0
C13 C 0.71639 0.72303 0.64684 0.0
N14 N 0.69082 0.69493 0.6185 0.0
N15 N 0.72378 0.75061 0.60244 0.0
C16 C 0.73254 0.72491 0.71855 0.0
C17 C 0.70212 0.73836 0.54587 0.0
N18 N 0.68122 0.70487 0.55577 0.0
C19 C 0.70527 0.7566 0.47992 0.0
H20 H 0.74197 0.75561 0.73335 0.0
H21 H 0.75902 0.70505 0.72823 0.0
H22 H 0.70965 0.71466 0.74884 0.0
H23 H 0.73444 0.77195 0.47973 0.0
H24 H 0.68102 0.77891 0.46853 0.0
H25 H 0.70211 0.73364 0.44083 0.0
C26 C 0.79069 0.21126 0.04687 0.0
N27 N 0.81712 0.18251 0.03618 0.0
N28 N 0.76638 0.22002 0.99071 0.0
C29 C 0.787 0.22899 0.11288 0.0
C30 C 0.77875 0.19517 0.94573 0.0
N31 N 0.80934 0.17208 0.97362 0.0
C32 C 0.76304 0.19549 0.87383 0.0
H33 H 0.75583 0.23894 0.11562 0.0
H34 H 0.80721 0.25512 0.12093 0.0
H35 H 0.79606 0.20718 0.15256 0.0
H36 H 0.74916 0.22457 0.8587 0.0
H37 H 0.73998 0.17189 0.86376 0.0
H38 H 0.78743 0.18908 0.84407 0.0
C39 C 0.26408 0.32505 0.43557 0.0
N40 N 0.29352 0.35038 0.46051 0.0
N41 N 0.24357 0.31178 0.48332 0.0
C42 C 0.25452 0.3141 0.36441 0.0
C43 C 0.26175 0.32972 0.53837 0.0
N44 N 0.29192 0.35356 0.5244 0.0
C45 C 0.25268 0.32078 0.60647 0.0
H46 H 0.22273 0.30479 0.35251 0.0
H47 H 0.27393 0.28888 0.35373 0.0
H48 H 0.26049 0.33953 0.33276 0.0
H49 H 0.24046 0.29028 0.60956 0.0
H50 H 0.22991 0.34228 0.61913 0.0
H51 H 0.27992 0.32378 0.64302 0.0
O52 O 0.01576 0.02985 0.70666 0.0
Mg53 Mg 0.06171 0.02467 0.64489 0.0
O54 O 0.97048 0.0356 0.6197 0.0
Mg55 Mg 0.00997 0.00653 0.54937 0.0
O56 O 0.05871 0.05929 0.56289 0.0
O57 O 0.09754 0.07219 0.65819 0.0
O58 O 0.05645 0.98186 0.4798 0.0
O59 O 0.97987 0.04745 0.4657 0.0
Mg60 Mg 0.98949 0.95758 0.46213 0.0
O61 O 0.95533 0.95964 0.53611 0.0
O62 O 0.03958 0.91958 0.47568 0.0
O63 O 0.98493 0.00309 0.38904 0.0
O64 O 0.94038 0.92383 0.44388 0.0
C65 C 0.06985 0.94945 0.65788 0.0
C66 C 0.9801 0.03747 0.68156 0.0
C67 C 0.0858 0.08103 0.59777 0.0
C68 C 0.06438 0.94606 0.46566 0.0
C69 C 0.97718 0.03832 0.40524 0.0
C70 C 0.93238 0.9342 0.50091 0.0
O71 O 0.09787 0.97321 0.65131 0.0
O72 O 0.03448 0.95888 0.63226 0.0
O73 O 0.59834 0.52838 0.14507 0.0
Mg74 Mg 0.55696 0.48104 0.12977 0.0
O75 O 0.53654 0.54888 0.12825 0.0
Mg76 Mg 0.50669 0.50675 0.04047 0.0
O77 O 0.55108 0.45003 0.04369 0.0
O78 O 0.5872 0.42992 0.13801 0.0
O79 O 0.47197 0.47287 0.95108 0.0
O80 O 0.55413 0.53012 0.97181 0.0
Mg81 Mg 0.49084 0.56205 0.96411 0.0
O82 O 0.45612 0.55784 0.03688 0.0
O83 O 0.47849 0.52215 0.8834 0.0
O84 O 0.54538 0.5937 0.97985 0.0
O85 O 0.44665 0.60213 0.95456 0.0
C86 C 0.47624 0.47244 0.17082 0.0
C87 C 0.57265 0.55417 0.15466 0.0
C88 C 0.57525 0.42457 0.07657 0.0
C89 C 0.46798 0.48662 0.89277 0.0
C90 C 0.56616 0.56539 0.96292 0.0
C91 C 0.43629 0.5876 0.00762 0.0
O92 O 0.51285 0.47612 0.19384 0.0
O93 O 0.46541 0.47805 0.10978 0.0
C94 C 0.22345 0.24264 0.45873 0.0
C95 C 0.21396 0.28077 0.47915 0.0
C96 C 0.1979 0.21037 0.4654 0.0
C97 C 0.16211 0.21666 0.49313 0.0
C98 C 0.15089 0.25584 0.50856 0.0
C99 C 0.1772 0.28748 0.50176 0.0
C100 C 0.21116 0.16913 0.44867 0.0
C101 C 0.11287 0.26392 0.53763 0.0
C102 C 0.09123 0.12918 0.50547 0.0
C103 C 0.10421 0.11588 0.56939 0.0
C104 C 0.10941 0.16229 0.47961 0.0
C105 C 0.14135 0.18212 0.51853 0.0
C106 C 0.15441 0.16875 0.58296 0.0
C107 C 0.13567 0.136 0.60749 0.0
C108 C 0.09461 0.176 0.41087 0.0
C109 C 0.1885 0.18887 0.62618 0.0
H110 H 0.25211 0.23771 0.44159 0.0
H111 H 0.17005 0.31723 0.517 0.0
H112 H 0.22215 0.15295 0.49456 0.0
H113 H 0.18571 0.15191 0.42275 0.0
H114 H 0.23572 0.16998 0.41768 0.0
H115 H 0.10484 0.29602 0.5354 0.0
H116 H 0.08748 0.24654 0.51182 0.0
H117 H 0.11701 0.25455 0.58975 0.0
H118 H 0.0669 0.11382 0.47578 0.0
H119 H 0.14609 0.12602 0.65687 0.0
H120 H 0.11917 0.17389 0.38015 0.0
H121 H 0.08547 0.20773 0.41138 0.0
H122 H 0.06875 0.15811 0.38765 0.0
H123 H 0.21613 0.18798 0.60233 0.0
H124 H 0.19504 0.17461 0.67509 0.0
H125 H 0.18115 0.22063 0.63333 0.0
C126 C 0.28275 0.73115 0.14124 0.0
C127 C 0.24313 0.72152 0.11667 0.0
C128 C 0.31376 0.70371 0.13795 0.0
C129 C 0.30474 0.66609 0.10859 0.0
C130 C 0.26424 0.6549 0.08989 0.0
C131 C 0.2338 0.68293 0.0941 0.0
C132 C 0.35648 0.71674 0.15902 0.0
C133 C 0.2533 0.61497 0.05899 0.0
C134 C 0.37875 0.6344 0.99666 0.0
C135 C 0.40165 0.60551 0.03397 0.0
C136 C 0.34673 0.65344 0.0202 0.0
C137 C 0.33711 0.64344 0.08291 0.0
C138 C 0.35929 0.61356 0.12046 0.0
C139 C 0.3915 0.59487 0.09549 0.0
C140 C 0.32371 0.68496 0.97815 0.0
C141 C 0.34971 0.60207 0.18739 0.0
H142 H 0.2898 0.76113 0.15849 0.0
H143 H 0.20292 0.67561 0.07598 0.0
H144 H 0.37433 0.6923 0.18475 0.0
H145 H 0.37056 0.72461 0.11505 0.0
H146 H 0.35804 0.74317 0.19172 0.0
H147 H 0.22121 0.60769 0.06017 0.0
H148 H 0.25876 0.6155 0.00707 0.0
H149 H 0.27213 0.59098 0.08412 0.0
H150 H 0.38602 0.64259 0.94878 0.0
H151 H 0.40901 0.57247 0.12447 0.0
H152 H 0.32661 0.71412 1.00369 0.0
H153 H 0.29135 0.67735 0.96961 0.0
H154 H 0.33449 0.68841 0.92983 0.0
H155 H 0.35864 0.62658 0.22243 0.0
H156 H 0.36571 0.57457 0.206 0.0
H157 H 0.31698 0.59744 0.18633 0.0
C158 C 0.73958 0.82163 0.5957 0.0
C159 C 0.75217 0.78264 0.61068 0.0
C160 C 0.76767 0.85201 0.59146 0.0
C161 C 0.80908 0.84266 0.60099 0.0
C162 C 0.82177 0.8039 0.6216 0.0
C163 C 0.79299 0.7743 0.62643 0.0
C164 C 0.75293 0.89313 0.57097 0.0
C165 C 0.86558 0.79256 0.63185 0.0
C166 C 0.87339 0.88916 0.48521 0.0
C167 C 0.8982 0.91478 0.52644 0.0
C168 C 0.84365 0.86655 0.50883 0.0
C169 C 0.83803 0.8699 0.57542 0.0
C170 C 0.86146 0.8972 0.61679 0.0
C171 C 0.89157 0.91927 0.59184 0.0
C172 C 0.8193 0.83784 0.46281 0.0
C173 C 0.85575 0.90207 0.68773 0.0
H174 H 0.70779 0.82774 0.58411 0.0
H175 H 0.80233 0.74394 0.63787 0.0
H176 H 0.7719 0.91629 0.59824 0.0
H177 H 0.7548 0.89732 0.51805 0.0
H178 H 0.72127 0.8977 0.57907 0.0
H179 H 0.87069 0.76342 0.65708 0.0
H180 H 0.87665 0.7905 0.5836 0.0
H181 H 0.88366 0.81558 0.66098 0.0
H182 H 0.8779 0.88578 0.4344 0.0
H183 H 0.91053 0.93914 0.62393 0.0
H184 H 0.78683 0.84417 0.46108 0.0
H185 H 0.8245 0.8069 0.48087 0.0
H186 H 0.82701 0.83944 0.41213 0.0
H187 H 0.8234 0.90393 0.69285 0.0
H188 H 0.87114 0.92906 0.70991 0.0
H189 H 0.86817 0.87571 0.71589 0.0
C190 C 0.69603 0.23903 0.95585 0.0
C191 C 0.73527 0.2496 0.98144 0.0
C192 C 0.66451 0.26656 0.95487 0.0
C193 C 0.67267 0.30515 0.98103 0.0
C194 C 0.71283 0.31664 1.00245 0.0
C195 C 0.74366 0.28869 1.00206 0.0
C196 C 0.62229 0.25344 0.93029 0.0
C197 C 0.72297 0.35744 0.03076 0.0
C198 C 0.60031 0.39197 0.98028 0.0
C199 C 0.59152 0.39 0.04476 0.0
C200 C 0.62433 0.36257 0.95615 0.0
C201 C 0.63961 0.3309 0.99772 0.0
C202 C 0.62754 0.32708 0.06059 0.0
C203 C 0.60363 0.35664 0.08319 0.0
C204 C 0.63579 0.3671 0.88828 0.0
C205 C 0.64275 0.29366 0.10647 0.0
H206 H 0.68979 0.20871 0.93962 0.0
H207 H 0.77428 0.29678 0.02053 0.0
H208 H 0.60639 0.24634 0.97262 0.0
H209 H 0.60535 0.27755 0.90199 0.0
H210 H 0.62193 0.22649 0.89895 0.0
H211 H 0.75581 0.363 0.03865 0.0
H212 H 0.70835 0.38087 0.99792 0.0
H213 H 0.71146 0.3603 0.07855 0.0
H214 H 0.59082 0.4177 0.95039 0.0
H215 H 0.59621 0.35473 0.1327 0.0
H216 H 0.63617 0.3378 0.86347 0.0
H217 H 0.66642 0.3798 0.89179 0.0
H218 H 0.6149 0.3873 0.85758 0.0
H219 H 0.63807 0.26449 0.08143 0.0
H220 H 0.62767 0.29305 0.15121 0.0
H221 H 0.67547 0.29726 0.12168 0.0
C222 C 0.19161 0.86724 0.19082 0.0
C223 C 0.16451 0.84141 0.15449 0.0
C224 C 0.17911 0.89262 0.23813 0.0
C225 C 0.13842 0.89227 0.24849 0.0
C226 C 0.11019 0.86952 0.20644 0.0
C227 C 0.12369 0.84408 0.15991 0.0
C228 C 0.21014 0.91659 0.28125 0.0
C229 C 0.06633 0.86912 0.21473 0.0
C230 C 0.10983 0.899 0.41941 0.0
C231 C 0.09267 0.93694 0.41903 0.0
C232 C 0.1272 0.88518 0.36557 0.0
C233 C 0.1266 0.90968 0.30946 0.0
C234 C 0.11182 0.9491 0.31064 0.0
C235 C 0.09525 0.96243 0.36585 0.0
C236 C 0.1437 0.8433 0.36708 0.0
C237 C 0.11045 0.97608 0.25185 0.0
H238 H 0.22316 0.86523 0.18558 0.0
H239 H 0.10293 0.82402 0.13148 0.0
H240 H 0.1987 0.94679 0.2902 0.0
H241 H 0.21703 0.9016 0.32945 0.0
H242 H 0.23845 0.91943 0.25947 0.0
H243 H 0.04764 0.85504 0.17231 0.0
H244 H 0.06227 0.85216 0.25957 0.0
H245 H 0.0553 0.89984 0.22088 0.0
H246 H 0.10767 0.8793 0.46048 0.0
H247 H 0.08136 0.9916 0.36499 0.0
H248 H 0.17418 0.84317 0.35221 0.0
H249 H 0.12428 0.82446 0.33163 0.0
H250 H 0.14529 0.82957 0.4164 0.0
H251 H 0.13859 0.974 0.22957 0.0
H252 H 0.10543 0.00764 0.2647 0.0
H253 H 0.0855 0.96667 0.21417 0.0
C254 C 0.63326 0.66171 0.65637 0.0
C255 C 0.67434 0.66279 0.65243 0.0
C256 C 0.61818 0.63781 0.70332 0.0
C257 C 0.64507 0.61488 0.74737 0.0
C258 C 0.68605 0.61295 0.7389 0.0
C259 C 0.70015 0.63685 0.69111 0.0
C260 C 0.57407 0.63994 0.70961 0.0
C261 C 0.71568 0.5887 0.78415 0.0
C262 C 0.61316 0.61098 0.91646 0.0
C263 C 0.59467 0.57364 0.91602 0.0
C264 C 0.63185 0.62367 0.8633 0.0
C265 C 0.63149 0.59861 0.80786 0.0
C266 C 0.61534 0.55975 0.80905 0.0
C267 C 0.59731 0.54758 0.86348 0.0
C268 C 0.64968 0.66498 0.86478 0.0
C269 C 0.61431 0.53214 0.75106 0.0
H270 H 0.61348 0.68185 0.62623 0.0
H271 H 0.73191 0.63752 0.68703 0.0
H272 H 0.56187 0.60972 0.7159 0.0
H273 H 0.56985 0.65758 0.75373 0.0
H274 H 0.55649 0.65416 0.66623 0.0
H275 H 0.74445 0.58466 0.76408 0.0
H276 H 0.72206 0.60415 0.83205 0.0
H277 H 0.70318 0.559 0.79332 0.0
H278 H 0.61123 0.63111 0.95709 0.0
H279 H 0.58267 0.5188 0.86255 0.0
H280 H 0.63149 0.68403 0.82807 0.0
H281 H 0.68055 0.6639 0.85159 0.0
H282 H 0.65075 0.67925 0.91364 0.0
H283 H 0.59045 0.54203 0.71189 0.0
H284 H 0.60788 0.50094 0.76415 0.0
H285 H 0.64313 0.53289 0.73059 0.0
C286 C 0.87721 0.18524 0.11857 0.0
C287 C 0.84553 0.16347 0.0847 0.0
C288 C 0.90294 0.16791 0.17029 0.0
C289 C 0.89594 0.12829 0.18937 0.0
C290 C 0.8642 0.1061 0.15423 0.0
C291 C 0.83965 0.1239 0.10172 0.0
C292 C 0.93712 0.19213 0.20513 0.0
C293 C 0.85529 0.064 0.17346 0.0
C294 C 0.97341 0.06386 0.29108 0.0
C295 C 0.96119 0.06664 0.35335 0.0
C296 C 0.95405 0.08579 0.23801 0.0
C297 C 0.92089 0.11012 0.24706 0.0
C298 C 0.90955 0.11433 0.31053 0.0
C299 C 0.93025 0.09292 0.36321 0.0
C300 C 0.96794 0.08146 0.17168 0.0
C301 C 0.8739 0.1394 0.32202 0.0
H302 H 0.88144 0.21591 0.10476 0.0
H303 H 0.81478 0.10753 0.07537 0.0
H304 H 0.93213 0.19759 0.2565 0.0
H305 H 0.96571 0.17545 0.20677 0.0
H306 H 0.94035 0.2213 0.18101 0.0
H307 H 0.82946 0.05094 0.14116 0.0
H308 H 0.88191 0.04482 0.1714 0.0
H309 H 0.84854 0.06351 0.22471 0.0
H310 H -0.00246 0.0437 0.2835 0.0
H311 H 0.92054 0.09481 0.41119 0.0
H312 H 0.97085 0.11112 0.14911 0.0
H313 H 0.94538 0.06438 0.13858 0.0
H314 H -0.00281 0.06574 0.17465 0.0
H315 H 0.87664 0.16983 0.30231 0.0
H316 H 0.87057 0.14165 0.37481 0.0
H317 H 0.84613 0.12611 0.29556 0.0
C318 C 0.30687 0.40193 0.61378 0.0
C319 C 0.32036 0.37408 0.57127 0.0
C320 C 0.33334 0.41897 0.66472 0.0
C321 C 0.37429 0.40762 0.67349 0.0
C322 C 0.3882 0.38007 0.62953 0.0
C323 C 0.36099 0.36367 0.57872 0.0
C324 C 0.31732 0.44866 0.70974 0.0
C325 C 0.43155 0.3672 0.63716 0.0
C326 C 0.44508 0.47972 0.77268 0.0
C327 C 0.44817 0.46337 0.83597 0.0
C328 C 0.42239 0.46113 0.71901 0.0
C329 C 0.40234 0.42504 0.72844 0.0
C330 C 0.40688 0.40727 0.79145 0.0
C331 C 0.42971 0.42668 0.84455 0.0
C332 C 0.41837 0.48112 0.65277 0.0
C333 C 0.38632 0.36855 0.80327 0.0
H334 H 0.27534 0.40975 0.60758 0.0
H335 H 0.37107 0.34167 0.5461 0.0
H336 H 0.3218 0.43726 0.76072 0.0
H337 H 0.33408 0.47709 0.70951 0.0
H338 H 0.28489 0.45486 0.69542 0.0
H339 H 0.4378 0.34651 0.59767 0.0
H340 H 0.45139 0.39354 0.63682 0.0
H341 H 0.43951 0.35217 0.68509 0.0
H342 H 0.45946 0.5079 0.76517 0.0
H343 H 0.43199 0.41374 0.89308 0.0
H344 H 0.3869 0.49095 0.63865 0.0
H345 H 0.42553 0.45986 0.61481 0.0
H346 H 0.4383 0.50745 0.65247 0.0
H347 H 0.35334 0.37299 0.79616 0.0
H348 H 0.39553 0.35691 0.85351 0.0
H349 H 0.39313 0.34577 0.76734 0.0
C350 C 0.66386 0.64176 0.49728 0.0
C351 C 0.65662 0.68232 0.50589 0.0
C352 C 0.6454 0.6214 0.44158 0.0
C353 C 0.62014 0.64249 0.39256 0.0
C354 C 0.61107 0.68293 0.40298 0.0
C355 C 0.62875 0.70205 0.46025 0.0
C356 C 0.65461 0.57784 0.43362 0.0
C357 C 0.58501 0.70682 0.35169 0.0
C358 C 0.61923 0.6013 0.2204 0.0
C359 C 0.58204 0.58207 0.20995 0.0
C360 C 0.63114 0.6226 0.27848 0.0
C361 C 0.60596 0.62318 0.32839 0.0
C362 C 0.56802 0.60432 0.31747 0.0
C363 C 0.55623 0.58456 0.25784 0.0
C364 C 0.67121 0.64353 0.28717 0.0
C365 C 0.54087 0.60304 0.37009 0.0
H366 H 0.6855 0.6265 0.53236 0.0
H367 H 0.62262 0.73325 0.46775 0.0
H368 H 0.62664 0.56095 0.41778 0.0
H369 H 0.67437 0.57423 0.39508 0.0
H370 H 0.66989 0.56457 0.47975 0.0
H371 H 0.57848 0.73706 0.36938 0.0
H372 H 0.60042 0.7099 0.30762 0.0
H373 H 0.55622 0.69128 0.33626 0.0
H374 H 0.63927 0.59908 0.18353 0.0
H375 H 0.52781 0.56887 0.2504 0.0
H376 H 0.69185 0.62864 0.32626 0.0
H377 H 0.66764 0.67482 0.30272 0.0
H378 H 0.68537 0.64348 0.24149 0.0
H379 H 0.55555 0.58562 0.41245 0.0
H380 H 0.51139 0.58921 0.35252 0.0
H381 H 0.5357 0.63344 0.38815 0.0
C382 C 0.81748 0.11254 0.90748 0.0
C383 C 0.83384 0.14657 0.93977 0.0
C384 C 0.83982 0.09007 0.86773 0.0
C385 C 0.87887 0.10282 0.85907 0.0
C386 C 0.89579 0.1367 0.89337 0.0
C387 C 0.87308 0.15795 0.93393 0.0
C388 C 0.82124 0.05349 0.83354 0.0
C389 C 0.93709 0.15161 0.88485 0.0
C390 C 0.95477 0.03748 0.78969 0.0
C391 C 0.9509 0.05051 0.72449 0.0
C392 C 0.92994 0.05262 0.8333 0.0
C393 C 0.9014 0.08232 0.81154 0.0
C394 C 0.8965 0.09462 0.74514 0.0
C395 C 0.921 0.07811 0.7021 0.0
C396 C 0.93518 0.03785 0.90314 0.0
C397 C 0.86687 0.12674 0.72039 0.0
H398 H 0.78697 0.10411 0.91255 0.0
H399 H 0.88517 0.18463 0.95881 0.0
H400 H 0.81535 0.05891 0.78001 0.0
H401 H 0.84221 0.02791 0.84143 0.0
H402 H 0.79253 0.04523 0.851 0.0
H403 H 0.94616 0.1778 0.91635 0.0
H404 H 0.95961 0.12769 0.89676 0.0
H405 H 0.93774 0.16011 0.83296 0.0
H406 H 0.97762 0.01572 0.80684 0.0
H407 H 0.91812 0.0883 0.65177 0.0
H408 H 0.90568 0.02997 0.91798 0.0
H409 H 0.94827 0.06179 0.93647 0.0
H410 H 0.95517 0.01143 0.9101 0.0
H411 H 0.83643 0.11886 0.73111 0.0
H412 H 0.86553 0.13172 0.66684 0.0
H413 H 0.87544 0.15511 0.74617 0.0
C414 C 0.32173 0.4122 0.42224 0.0
C415 C 0.32112 0.37062 0.42448 0.0
C416 C 0.34572 0.4322 0.38193 0.0
C417 C 0.36975 0.40984 0.34373 0.0
C418 C 0.36994 0.36773 0.34756 0.0
C419 C 0.34551 0.34866 0.38788 0.0
C420 C 0.34479 0.47709 0.37925 0.0
C421 C 0.39565 0.3428 0.30861 0.0
C422 C 0.40721 0.45179 0.19166 0.0
C423 C 0.4474 0.46001 0.21537 0.0
C424 C 0.381 0.43694 0.23356 0.0
C425 C 0.39541 0.43013 0.30052 0.0
C426 C 0.43545 0.43992 0.32517 0.0
C427 C 0.46087 0.45478 0.28242 0.0
C428 C 0.3383 0.42721 0.20574 0.0
C429 C 0.45199 0.43313 0.39621 0.0
H430 H 0.30253 0.42888 0.4506 0.0
H431 H 0.34504 0.31645 0.39055 0.0
H432 H 0.37548 0.4892 0.39248 0.0
H433 H 0.33402 0.48702 0.32858 0.0
H434 H 0.325 0.49003 0.4128 0.0
H435 H 0.39255 0.31042 0.31764 0.0
H436 H 0.38726 0.34854 0.2555 0.0
H437 H 0.42764 0.35118 0.32133 0.0
H438 H 0.39647 0.45603 0.14012 0.0
H439 H 0.49176 0.46141 0.30155 0.0
H440 H 0.31714 0.44135 0.23567 0.0
H441 H 0.33356 0.39456 0.20759 0.0
H442 H 0.33081 0.43725 0.15418 0.0
H443 H 0.43234 0.44723 0.42875 0.0
H444 H 0.48283 0.44516 0.40871 0.0
H445 H 0.45269 0.40075 0.40688 0.0
C446 C 0.11898 0.80007 0.96325 0.0
C447 C 0.14672 0.82014 0.00868 0.0
C448 C 0.10136 0.81878 0.90558 0.0
C449 C 0.11065 0.85904 0.89427 0.0
C450 C 0.1359 0.88045 0.94291 0.0
C451 C 0.1541 0.86056 0.99923 0.0
C452 C 0.0752 0.79461 0.85481 0.0
C453 C 0.14552 0.92379 0.93379 0.0
C454 C 0.11263 0.8989 0.7223 0.0
C455 C 0.07638 0.91982 0.7111 0.0
C456 C 0.12306 0.87718 0.78032 0.0
C457 C 0.09726 0.87767 0.82932 0.0
C458 C 0.05991 0.89762 0.81717 0.0
C459 C 0.04965 0.918 0.75769 0.0
C460 C 0.16255 0.85518 0.79035 0.0
C461 C 0.03202 0.89978 0.86863 0.0
H462 H 0.11296 0.7689 0.97126 0.0
H463 H 0.17573 0.87602 0.03405 0.0
H464 H 0.04691 0.81065 0.83779 0.0
H465 H 0.09107 0.79014 0.81152 0.0
H466 H 0.06775 0.76496 0.87372 0.0
H467 H 0.16089 0.93743 0.97957 0.0
H468 H 0.16535 0.92668 0.8952 0.0
H469 H 0.11772 0.94084 0.9174 0.0
H470 H 0.13339 0.90056 0.68646 0.0
H471 H 0.02196 0.93491 0.74974 0.0
H472 H 0.15807 0.82421 0.80663 0.0
H473 H 0.18332 0.87 0.82937 0.0
H474 H 0.17706 0.85422 0.74504 0.0
H475 H 0.02676 0.86971 0.88792 0.0
H476 H 0.00263 0.91328 0.84944 0.0
H477 H 0.0461 0.91801 0.91046 0.0
loop_
_geom_bond_atom_site_label_1
_geom_bond_atom_site_label_2
_geom_bond_distance
_geom_bond_site_symmetry_2
_ccdc_geom_bond_type
C0 N1 1.317 . S
C0 N2 1.348 . S
C0 C3 1.485 1_554 S
N1 C0 1.317 . S
N1 N5 1.370 . S
N2 C0 1.348 . S
N2 C4 1.346 . S
C3 C0 1.485 1_556 S
C3 H7 0.960 . S
C3 H8 0.961 . S
C3 H9 0.960 . S
C4 N2 1.346 . S
C4 N5 1.307 . S
C4 C6 1.486 . S
N5 N1 1.370 . S
N5 C4 1.307 . S
C6 C4 1.486 . S
C6 H10 0.960 . S
C6 H11 0.960 . S
C6 H12 0.959 . S
H7 C3 0.960 . S
H8 C3 0.961 . S
H9 C3 0.960 . S
H10 C6 0.960 . S
H11 C6 0.960 . S
H12 C6 0.959 . S
C13 N14 1.317 . S
C13 N15 1.348 . S
C13 C16 1.485 . S
N14 C13 1.317 . S
N14 N18 1.370 . S
N15 C13 1.348 . S
N15 C17 1.346 . S
C16 C13 1.485 . S
C16 H20 0.960 . S
C16 H21 0.961 . S
C16 H22 0.960 . S
C17 N15 1.346 . S
C17 N18 1.307 . S
C17 C19 1.486 . S
N18 N14 1.370 . S
N18 C17 1.307 . S
C19 C17 1.486 . S
C19 H23 0.960 . S
C19 H24 0.960 . S
C19 H25 0.959 . S
H20 C16 0.960 . S
H21 C16 0.961 . S
H22 C16 0.960 . S
H23 C19 0.960 . S
H24 C19 0.960 . S
H25 C19 0.959 . S
C26 N27 1.317 . S
C26 N28 1.353 . S
C26 C29 1.485 . S
N27 C26 1.317 . S
N27 N31 1.370 1_554 S
N28 C26 1.353 . S
N28 C30 1.341 1_554 S
C29 C26 1.485 . S
C29 H33 0.960 . S
C29 H34 0.961 . S
C29 H35 0.960 . S
C30 N28 1.341 1_556 S
C30 N31 1.307 . S
C30 C32 1.486 . S
N31 N27 1.370 1_556 S
N31 C30 1.307 . S
C32 C30 1.486 . S
C32 H36 0.960 . S
C32 H37 0.960 . S
C32 H38 0.959 . S
H33 C29 0.960 . S
H34 C29 0.961 . S
H35 C29 0.960 . S
H36 C32 0.960 . S
H37 C32 0.960 . S
H38 C32 0.959 . S
C39 N40 1.317 . S
C39 N41 1.348 . S
C39 C42 1.485 . S
N40 C39 1.317 . S
N40 N44 1.370 . S
N41 C39 1.348 . S
N41 C43 1.346 . S
C42 C39 1.485 . S
C42 H46 0.960 . S
C42 H47 0.961 . S
C42 H48 0.960 . S
C43 N41 1.346 . S
C43 N44 1.307 . S
C43 C45 1.486 . S
N44 N40 1.370 . S
N44 C43 1.307 . S
C45 C43 1.486 . S
C45 H49 0.960 . S
C45 H50 0.960 . S
C45 H51 0.959 . S
H46 C42 0.960 . S
H47 C42 0.961 . S
H48 C42 0.960 . S
H49 C45 0.960 . S
H50 C45 0.960 . S
H51 C45 0.959 . S
O52 Mg53 1.990 . S
O52 C66 1.253 1_455 S
Mg53 O52 1.990 . S
Mg53 O56 2.180 . S
Mg53 O57 2.117 . S
Mg53 O71 2.030 . S
O54 Mg55 2.072 1_655 S
O54 C66 1.260 . S
Mg55 O54 2.072 1_455 S
Mg55 O56 2.099 . S
Mg55 O58 2.079 1_545 S
Mg55 O59 2.072 1_455 S
Mg55 O61 2.099 1_445 S
Mg55 O72 2.079 1_545 S
O56 Mg53 2.180 . S
O56 Mg55 2.099 . S
O56 C67 1.279 . S
O57 Mg53 2.117 . S
O57 C67 1.250 . S
O58 Mg55 2.079 1_565 S
O58 C68 1.264 . S
O59 Mg55 2.072 1_655 S
O59 C69 1.260 . S
Mg60 O61 2.180 . S
Mg60 O62 2.030 1_655 S
Mg60 O63 1.990 1_565 S
Mg60 O64 2.117 . S
O61 Mg55 2.099 1_665 S
O61 Mg60 2.180 . S
O61 C70 1.279 . S
O62 Mg60 2.030 1_455 S
O62 C68 1.248 . S
O63 Mg60 1.990 1_545 S
O63 C69 1.253 . S
O64 Mg60 2.117 . S
O64 C70 1.250 . S
C65 O71 1.248 1_565 S
C65 O72 1.264 . S
C66 O52 1.253 1_655 S
C66 O54 1.260 . S
C67 O56 1.279 . S
C67 O57 1.250 . S
C68 O58 1.264 . S
C68 O62 1.248 . S
C69 O59 1.260 . S
C69 O63 1.253 . S
C70 O61 1.279 . S
C70 O64 1.250 . S
O71 Mg53 2.030 . S
O71 C65 1.248 1_545 S
O72 Mg55 2.079 1_565 S
O72 C65 1.264 . S
O73 Mg74 1.990 . S
O73 C87 1.253 . S
Mg74 O73 1.990 . S
Mg74 O77 2.180 . S
Mg74 O78 2.117 . S
Mg74 O92 2.030 . S
O75 Mg76 2.072 . S
O75 C87 1.260 . S
Mg76 O75 2.072 . S
Mg76 O77 2.099 . S
Mg76 O79 2.079 1_554 S
Mg76 O80 2.072 1_554 S
Mg76 O82 2.099 . S
Mg76 O93 2.079 . S
O77 Mg74 2.180 . S
O77 Mg76 2.099 . S
O77 C88 1.279 . S
O78 Mg74 2.117 . S
O78 C88 1.250 . S
O79 Mg76 2.079 1_556 S
O79 C89 1.264 . S
O80 Mg76 2.072 1_556 S
O80 C90 1.260 . S
Mg81 O82 2.180 1_556 S
Mg81 O83 2.030 . S
Mg81 O84 1.990 . S
Mg81 O85 2.117 . S
O82 Mg76 2.099 . S
O82 Mg81 2.180 1_554 S
O82 C91 1.279 . S
O83 Mg81 2.030 . S
O83 C89 1.248 . S
O84 Mg81 1.990 . S
O84 C90 1.253 . S
O85 Mg81 2.117 . S
O85 C91 1.250 1_556 S
C86 O92 1.248 . S
C86 O93 1.264 . S
C87 O73 1.253 . S
C87 O75 1.260 . S
C88 O77 1.279 . S
C88 O78 1.250 . S
C89 O79 1.264 . S
C89 O83 1.248 . S
C90 O80 1.260 . S
C90 O84 1.253 . S
C91 O82 1.279 . S
C91 O85 1.250 1_554 S
O92 Mg74 2.030 . S
O92 C86 1.248 . S
O93 Mg76 2.079 . S
O93 C86 1.264 . S
C94 C95 1.391 . S
C94 C96 1.394 . S
C94 H110 0.931 . S
C95 C94 1.391 . S
C95 C99 1.376 . S
C96 C94 1.394 . S
C96 C97 1.369 . S
C96 C100 1.531 . S
C97 C96 1.369 . S
C97 C98 1.410 . S
C97 C105 1.503 . S
C98 C97 1.410 . S
C98 C99 1.392 . S
C98 C101 1.511 . S
C99 C95 1.376 . S
C99 C98 1.392 . S
C99 H111 0.929 . S
C100 C96 1.531 . S
C100 H112 0.960 . S
C100 H113 0.962 . S
C100 H114 0.960 . S
C101 C98 1.511 . S
C101 H115 0.961 . S
C101 H116 0.961 . S
C101 H117 0.961 . S
C102 C103 1.370 . S
C102 C104 1.363 . S
C102 H118 0.931 . S
C103 C102 1.370 . S
C103 C107 1.408 . S
C104 C102 1.363 . S
C104 C105 1.370 . S
C104 C108 1.524 . S
C105 C97 1.503 . S
C105 C104 1.370 . S
C105 C106 1.403 . S
C106 C105 1.403 . S
C106 C107 1.404 . S
C106 C109 1.539 . S
C107 C103 1.408 . S
C107 C106 1.404 . S
C107 H119 0.930 . S
C108 C104 1.524 . S
C108 H120 0.956 . S
C108 H121 0.961 . S
C108 H122 0.961 . S
C109 C106 1.539 . S
C109 H123 0.958 . S
C109 H124 0.961 . S
C109 H125 0.960 . S
H110 C94 0.931 . S
H111 C99 0.929 . S
H112 C100 0.960 . S
H113 C100 0.962 . S
H114 C100 0.960 . S
H115 C101 0.961 . S
H116 C101 0.961 . S
H117 C101 0.961 . S
H118 C102 0.931 . S
H119 C107 0.930 . S
H120 C108 0.956 . S
H121 C108 0.961 . S
H122 C108 0.961 . S
H123 C109 0.958 . S
H124 C109 0.961 . S
H125 C109 0.960 . S
C126 C127 1.391 . S
C126 C128 1.394 . S
C126 H142 0.931 . S
C127 C126 1.391 . S
C127 C131 1.376 . S
C128 C126 1.394 . S
C128 C129 1.369 . S
C128 C132 1.531 . S
C129 C128 1.369 . S
C129 C130 1.410 . S
C129 C137 1.503 . S
C130 C129 1.410 . S
C130 C131 1.392 . S
C130 C133 1.511 1_554 S
C131 C127 1.376 . S
C131 C130 1.392 . S
C131 H143 0.929 1_554 S
C132 C128 1.531 . S
C132 H144 0.960 . S
C132 H145 0.962 . S
C132 H146 0.960 . S
C133 C130 1.511 1_556 S
C133 H147 0.961 . S
C133 H148 0.961 . S
C133 H149 0.961 . S
C134 C135 1.370 . S
C134 C136 1.363 . S
C134 H150 0.931 . S
C135 C134 1.370 . S
C135 C139 1.408 . S
C136 C134 1.363 . S
C136 C137 1.370 . S
C136 C140 1.524 . S
C137 C129 1.503 . S
C137 C136 1.370 . S
C137 C138 1.403 . S
C138 C137 1.403 . S
C138 C139 1.404 . S
C138 C141 1.539 . S
C139 C135 1.408 . S
C139 C138 1.404 . S
C139 H151 0.930 . S
C140 C136 1.524 . S
C140 H152 0.956 . S
C140 H153 0.961 . S
C140 H154 0.961 . S
C141 C138 1.539 . S
C141 H155 0.958 . S
C141 H156 0.961 1_554 S
C141 H157 0.960 . S
H142 C126 0.931 . S
H143 C131 0.929 1_556 S
H144 C132 0.960 . S
H145 C132 0.962 . S
H146 C132 0.960 . S
H147 C133 0.961 . S
H148 C133 0.961 . S
H149 C133 0.961 . S
H150 C134 0.931 . S
H151 C139 0.930 . S
H152 C140 0.956 . S
H153 C140 0.961 . S
H154 C140 0.961 . S
H155 C141 0.958 . S
H156 C141 0.961 1_556 S
H157 C141 0.960 . S
C158 C159 1.391 . S
C158 C160 1.394 . S
C158 H174 0.931 . S
C159 C158 1.391 . S
C159 C163 1.376 . S
C160 C158 1.394 . S
C160 C161 1.369 . S
C160 C164 1.531 . S
C161 C160 1.369 . S
C161 C162 1.410 . S
C161 C169 1.503 . S
C162 C161 1.410 . S
C162 C163 1.392 . S
C162 C165 1.511 . S
C163 C159 1.376 . S
C163 C162 1.392 . S
C163 H175 0.929 . S
C164 C160 1.531 . S
C164 H176 0.960 . S
C164 H177 0.962 . S
C164 H178 0.960 . S
C165 C162 1.511 . S
C165 H179 0.961 . S
C165 H180 0.961 . S
C165 H181 0.961 . S
C166 C167 1.370 . S
C166 C168 1.363 . S
C166 H182 0.931 . S
C167 C166 1.370 . S
C167 C171 1.408 . S
C168 C166 1.363 . S
C168 C169 1.370 . S
C168 C172 1.524 . S
C169 C161 1.503 . S
C169 C168 1.370 . S
C169 C170 1.403 . S
C170 C169 1.403 . S
C170 C171 1.404 . S
C170 C173 1.539 . S
C171 C167 1.408 . S
C171 C170 1.404 . S
C171 H183 0.930 . S
C172 C168 1.524 . S
C172 H184 0.956 . S
C172 H185 0.961 . S
C172 H186 0.961 . S
C173 C170 1.539 . S
C173 H187 0.958 . S
C173 H188 0.961 . S
C173 H189 0.960 . S
H174 C158 0.931 . S
H175 C163 0.929 . S
H176 C164 0.960 . S
H177 C164 0.962 . S
H178 C164 0.960 . S
H179 C165 0.961 . S
H180 C165 0.961 . S
H181 C165 0.961 . S
H182 C166 0.931 . S
H183 C171 0.930 . S
H184 C172 0.956 . S
H185 C172 0.961 . S
H186 C172 0.961 . S
H187 C173 0.958 . S
H188 C173 0.961 . S
H189 C173 0.960 . S
C190 C191 1.391 1_556 S
C190 C192 1.394 . S
C190 H206 0.931 . S
C191 C190 1.391 1_554 S
C191 C195 1.376 . S
C192 C190 1.394 . S
C192 C193 1.369 1_556 S
C192 C196 1.531 . S
C193 C192 1.369 1_554 S
C193 C194 1.410 . S
C193 C201 1.503 . S
C194 C193 1.410 . S
C194 C195 1.392 . S
C194 C197 1.511 . S
C195 C191 1.376 . S
C195 C194 1.392 . S
C195 H207 0.929 . S
C196 C192 1.531 . S
C196 H208 0.960 . S
C196 H209 0.962 . S
C196 H210 0.960 . S
C197 C194 1.511 . S
C197 H211 0.961 . S
C197 H212 0.961 . S
C197 H213 0.961 . S
C198 C199 1.370 . S
C198 C200 1.363 . S
C198 H214 0.931 1_554 S
C199 C198 1.370 . S
C199 C203 1.408 . S
C200 C198 1.363 . S
C200 C201 1.370 . S
C200 C204 1.524 1_554 S
C201 C193 1.503 . S
C201 C200 1.370 . S
C201 C202 1.403 . S
C202 C201 1.403 . S
C202 C203 1.404 . S
C202 C205 1.539 . S
C203 C199 1.408 . S
C203 C202 1.404 . S
C203 H215 0.930 . S
C204 C200 1.524 1_556 S
C204 H216 0.956 . S
C204 H217 0.961 1_556 S
C204 H218 0.961 . S
C205 C202 1.539 . S
C205 H219 0.958 . S
C205 H220 0.961 . S
C205 H221 0.960 . S
H206 C190 0.931 . S
H207 C195 0.929 . S
H208 C196 0.960 . S
H209 C196 0.962 . S
H210 C196 0.960 . S
H211 C197 0.961 . S
H212 C197 0.961 . S
H213 C197 0.961 . S
H214 C198 0.931 1_556 S
H215 C203 0.930 . S
H216 C204 0.956 . S
H217 C204 0.961 1_554 S
H218 C204 0.961 . S
H219 C205 0.958 . S
H220 C205 0.961 . S
H221 C205 0.960 . S
C222 C223 1.391 . S
C222 C224 1.394 . S
C222 H238 0.931 . S
C223 C222 1.391 . S
C223 C227 1.376 . S
C224 C222 1.394 . S
C224 C225 1.369 . S
C224 C228 1.531 . S
C225 C224 1.369 . S
C225 C226 1.410 . S
C225 C233 1.503 . S
C226 C225 1.410 . S
C226 C227 1.392 . S
C226 C229 1.511 . S
C227 C223 1.376 . S
C227 C226 1.392 . S
C227 H239 0.929 . S
C228 C224 1.531 . S
C228 H240 0.960 . S
C228 H241 0.962 . S
C228 H242 0.960 . S
C229 C226 1.511 . S
C229 H243 0.961 . S
C229 H244 0.961 . S
C229 H245 0.961 . S
C230 C231 1.370 . S
C230 C232 1.363 . S
C230 H246 0.931 . S
C231 C230 1.370 . S
C231 C235 1.408 . S
C232 C230 1.363 . S
C232 C233 1.370 . S
C232 C236 1.524 . S
C233 C225 1.503 . S
C233 C232 1.370 . S
C233 C234 1.403 . S
C234 C233 1.403 . S
C234 C235 1.404 . S
C234 C237 1.539 . S
C235 C231 1.408 . S
C235 C234 1.404 . S
C235 H247 0.953 . S
C236 C232 1.524 . S
C236 H248 0.956 . S
C236 H249 0.961 . S
C236 H250 0.961 . S
C237 C234 1.539 . S
C237 H251 0.958 . S
C237 H252 0.961 1_565 S
C237 H253 0.960 . S
H238 C222 0.931 . S
H239 C227 0.929 . S
H240 C228 0.960 . S
H241 C228 0.962 . S
H242 C228 0.960 . S
H243 C229 0.961 . S
H244 C229 0.961 . S
H245 C229 0.961 . S
H246 C230 0.931 . S
H247 C235 0.953 . S
H248 C236 0.956 . S
H249 C236 0.961 . S
H250 C236 0.961 . S
H251 C237 0.958 . S
H252 C237 0.961 1_545 S
H253 C237 0.960 . S
C254 C255 1.391 . S
C254 C256 1.394 . S
C254 H270 0.931 . S
C255 C254 1.391 . S
C255 C259 1.376 . S
C256 C254 1.394 . S
C256 C257 1.369 . S
C256 C260 1.531 . S
C257 C256 1.369 . S
C257 C258 1.410 . S
C257 C265 1.503 . S
C258 C257 1.410 . S
C258 C259 1.392 . S
C258 C261 1.511 . S
C259 C255 1.376 . S
C259 C258 1.392 . S
C259 H271 0.929 . S
C260 C256 1.531 . S
C260 H272 0.960 . S
C260 H273 0.962 . S
C260 H274 0.960 . S
C261 C258 1.511 . S
C261 H275 0.961 . S
C261 H276 0.961 . S
C261 H277 0.961 . S
C262 C263 1.370 . S
C262 C264 1.363 . S
C262 H278 0.931 . S
C263 C262 1.370 . S
C263 C267 1.408 . S
C264 C262 1.363 . S
C264 C265 1.370 . S
C264 C268 1.524 . S
C265 C257 1.503 . S
C265 C264 1.370 . S
C265 C266 1.403 . S
C266 C265 1.403 . S
C266 C267 1.404 . S
C266 C269 1.539 . S
C267 C263 1.408 . S
C267 C266 1.404 . S
C267 H279 0.930 . S
C268 C264 1.524 . S
C268 H280 0.956 . S
C268 H281 0.961 . S
C268 H282 0.961 . S
C269 C266 1.539 . S
C269 H283 0.958 . S
C269 H284 0.961 . S
C269 H285 0.960 . S
H270 C254 0.931 . S
H271 C259 0.929 . S
H272 C260 0.960 . S
H273 C260 0.962 . S
H274 C260 0.960 . S
H275 C261 0.961 . S
H276 C261 0.961 . S
H277 C261 0.961 . S
H278 C262 0.931 . S
H279 C267 0.930 . S
H280 C268 0.956 . S
H281 C268 0.961 . S
H282 C268 0.961 . S
H283 C269 0.958 . S
H284 C269 0.961 . S
H285 C269 0.960 . S
C286 C287 1.391 . S
C286 C288 1.394 . S
C286 H302 0.931 . S
C287 C286 1.391 . S
C287 C291 1.376 . S
C288 C286 1.394 . S
C288 C289 1.369 . S
C288 C292 1.531 . S
C289 C288 1.369 . S
C289 C290 1.410 . S
C289 C297 1.503 . S
C290 C289 1.410 . S
C290 C291 1.392 . S
C290 C293 1.511 . S
C291 C287 1.376 . S
C291 C290 1.392 . S
C291 H303 0.929 . S
C292 C288 1.531 . S
C292 H304 0.960 . S
C292 H305 0.962 . S
C292 H306 0.960 . S
C293 C290 1.511 . S
C293 H307 0.961 . S
C293 H308 0.961 . S
C293 H309 0.961 . S
C294 C295 1.370 . S
C294 C296 1.363 . S
C294 H310 0.931 . S
C295 C294 1.370 . S
C295 C299 1.408 . S
C296 C294 1.363 . S
C296 C297 1.370 . S
C296 C300 1.524 . S
C297 C289 1.503 . S
C297 C296 1.370 . S
C297 C298 1.403 . S
C298 C297 1.403 . S
C298 C299 1.404 . S
C298 C301 1.539 . S
C299 C295 1.408 . S
C299 C298 1.404 . S
C299 H311 0.930 . S
C300 C296 1.524 . S
C300 H312 0.956 . S
C300 H313 0.961 . S
C300 H314 0.961 . S
C301 C298 1.539 . S
C301 H315 0.958 . S
C301 H316 0.961 . S
C301 H317 0.960 . S
H302 C286 0.931 . S
H303 C291 0.929 . S
H304 C292 0.960 . S
H305 C292 0.962 . S
H306 C292 0.960 . S
H307 C293 0.961 . S
H308 C293 0.961 . S
H309 C293 0.961 . S
H310 C294 0.931 . S
H311 C299 0.930 . S
H312 C300 0.956 . S
H313 C300 0.961 . S
H314 C300 0.961 . S
H315 C301 0.958 . S
H316 C301 0.961 . S
H317 C301 0.960 . S
C318 C319 1.391 . S
C318 C320 1.394 . S
C318 H334 0.931 . S
C319 C318 1.391 . S
C319 C323 1.376 . S
C320 C318 1.394 . S
C320 C321 1.369 . S
C320 C324 1.531 . S
C321 C320 1.369 . S
C321 C322 1.410 . S
C321 C329 1.503 . S
C322 C321 1.410 . S
C322 C323 1.392 . S
C322 C325 1.511 . S
C323 C319 1.376 . S
C323 C322 1.392 . S
C323 H335 0.929 . S
C324 C320 1.531 . S
C324 H336 0.960 . S
C324 H337 0.962 . S
C324 H338 0.960 . S
C325 C322 1.511 . S
C325 H339 0.961 . S
C325 H340 0.961 . S
C325 H341 0.961 . S
C326 C327 1.370 . S
C326 C328 1.363 . S
C326 H342 0.931 . S
C327 C326 1.370 . S
C327 C331 1.408 . S
C328 C326 1.363 . S
C328 C329 1.370 . S
C328 C332 1.524 . S
C329 C321 1.503 . S
C329 C328 1.370 . S
C329 C330 1.403 . S
C330 C329 1.403 . S
C330 C331 1.404 . S
C330 C333 1.539 . S
C331 C327 1.408 . S
C331 C330 1.404 . S
C331 H343 0.930 . S
C332 C328 1.524 . S
C332 H344 0.956 . S
C332 H345 0.961 . S
C332 H346 0.961 . S
C333 C330 1.539 . S
C333 H347 0.958 . S
C333 H348 0.961 . S
C333 H349 0.960 . S
H334 C318 0.931 . S
H335 C323 0.929 . S
H336 C324 0.960 . S
H337 C324 0.962 . S
H338 C324 0.960 . S
H339 C325 0.961 . S
H340 C325 0.961 . S
H341 C325 0.961 . S
H342 C326 0.931 . S
H343 C331 0.930 . S
H344 C332 0.956 . S
H345 C332 0.961 . S
H346 C332 0.961 . S
H347 C333 0.958 . S
H348 C333 0.961 . S
H349 C333 0.960 . S
C350 C351 1.391 . S
C350 C352 1.394 . S
C350 H366 0.931 . S
C351 C350 1.391 . S
C351 C355 1.376 . S
C352 C350 1.394 . S
C352 C353 1.369 . S
C352 C356 1.531 . S
C353 C352 1.369 . S
C353 C354 1.410 . S
C353 C361 1.503 . S
C354 C353 1.410 . S
C354 C355 1.392 . S
C354 C357 1.511 . S
C355 C351 1.376 . S
C355 C354 1.392 . S
C355 H367 0.929 . S
C356 C352 1.531 . S
C356 H368 0.960 . S
C356 H369 0.962 . S
C356 H370 0.960 . S
C357 C354 1.511 . S
C357 H371 0.961 . S
C357 H372 0.961 . S
C357 H373 0.961 . S
C358 C359 1.370 . S
C358 C360 1.363 . S
C358 H374 0.931 . S
C359 C358 1.370 . S
C359 C363 1.408 . S
C360 C358 1.363 . S
C360 C361 1.370 . S
C360 C364 1.524 . S
C361 C353 1.503 . S
C361 C360 1.370 . S
C361 C362 1.403 . S
C362 C361 1.403 . S
C362 C363 1.404 . S
C362 C365 1.539 . S
C363 C359 1.408 . S
C363 C362 1.404 . S
C363 H375 0.930 . S
C364 C360 1.524 . S
C364 H376 0.956 . S
C364 H377 0.961 . S
C364 H378 0.961 . S
C365 C362 1.539 . S
C365 H379 0.958 . S
C365 H380 0.961 . S
C365 H381 0.960 . S
H366 C350 0.931 . S
H367 C355 0.929 . S
H368 C356 0.960 . S
H369 C356 0.962 . S
H370 C356 0.960 . S
H371 C357 0.961 . S
H372 C357 0.961 . S
H373 C357 0.961 . S
H374 C358 0.931 . S
H375 C363 0.930 . S
H376 C364 0.956 . S
H377 C364 0.961 . S
H378 C364 0.961 . S
H379 C365 0.958 . S
H380 C365 0.961 . S
H381 C365 0.960 . S
C382 C383 1.391 . S
C382 C384 1.394 . S
C382 H398 0.931 . S
C383 C382 1.391 . S
C383 C387 1.376 . S
C384 C382 1.394 . S
C384 C385 1.369 . S
C384 C388 1.531 . S
C385 C384 1.369 . S
C385 C386 1.410 . S
C385 C393 1.503 . S
C386 C385 1.410 . S
C386 C387 1.392 . S
C386 C389 1.511 . S
C387 C383 1.376 . S
C387 C386 1.392 . S
C387 H399 0.929 . S
C388 C384 1.531 . S
C388 H400 0.960 . S
C388 H401 0.962 . S
C388 H402 0.960 . S
C389 C386 1.511 . S
C389 H403 0.961 . S
C389 H404 0.961 . S
C389 H405 0.961 . S
C390 C391 1.370 . S
C390 C392 1.363 . S
C390 H406 0.931 . S
C391 C390 1.370 . S
C391 C395 1.408 . S
C392 C390 1.363 . S
C392 C393 1.370 . S
C392 C396 1.524 . S
C393 C385 1.503 . S
C393 C392 1.370 . S
C393 C394 1.403 . S
C394 C393 1.403 . S
C394 C395 1.404 . S
C394 C397 1.539 . S
C395 C391 1.408 . S
C395 C394 1.404 . S
C395 H407 0.930 . S
C396 C392 1.524 . S
C396 H408 0.956 . S
C396 H409 0.961 . S
C396 H410 0.961 . S
C397 C394 1.539 . S
C397 H411 0.958 . S
C397 H412 0.961 . S
C397 H413 0.960 . S
H398 C382 0.931 . S
H399 C387 0.929 . S
H400 C388 0.960 . S
H401 C388 0.962 . S
H402 C388 0.960 . S
H403 C389 0.961 . S
H404 C389 0.961 . S
H405 C389 0.961 . S
H406 C390 0.931 . S
H407 C395 0.930 . S
H408 C396 0.956 . S
H409 C396 0.961 . S
H410 C396 0.961 . S
H411 C397 0.958 . S
H412 C397 0.961 . S
H413 C397 0.960 . S
C414 C415 1.391 . S
C414 C416 1.394 . S
C414 H430 0.931 . S
C415 C414 1.391 . S
C415 C419 1.376 . S
C416 C414 1.394 . S
C416 C417 1.369 . S
C416 C420 1.531 . S
C417 C416 1.369 . S
C417 C418 1.410 . S
C417 C425 1.503 . S
C418 C417 1.410 . S
C418 C419 1.392 . S
C418 C421 1.511 . S
C419 C415 1.376 . S
C419 C418 1.392 . S
C419 H431 0.929 . S
C420 C416 1.531 . S
C420 H432 0.960 . S
C420 H433 0.962 . S
C420 H434 0.960 . S
C421 C418 1.511 . S
C421 H435 0.961 . S
C421 H436 0.961 . S
C421 H437 0.961 . S
C422 C423 1.370 . S
C422 C424 1.363 . S
C422 H438 0.931 . S
C423 C422 1.370 . S
C423 C427 1.408 . S
C424 C422 1.363 . S
C424 C425 1.370 . S
C424 C428 1.524 . S
C425 C417 1.503 . S
C425 C424 1.370 . S
C425 C426 1.403 . S
C426 C425 1.403 . S
C426 C427 1.404 . S
C426 C429 1.539 . S
C427 C423 1.408 . S
C427 C426 1.404 . S
C427 H439 0.930 . S
C428 C424 1.524 . S
C428 H440 0.956 . S
C428 H441 0.961 . S
C428 H442 0.961 . S
C429 C426 1.539 . S
C429 H443 0.958 . S
C429 H444 0.961 . S
C429 H445 0.960 . S
H430 C414 0.931 . S
H431 C419 0.929 . S
H432 C420 0.960 . S
H433 C420 0.962 . S
H434 C420 0.960 . S
H435 C421 0.961 . S
H436 C421 0.961 . S
H437 C421 0.961 . S
H438 C422 0.931 . S
H439 C427 0.930 . S
H440 C428 0.956 . S
H441 C428 0.961 . S
H442 C428 0.961 . S
H443 C429 0.958 . S
H444 C429 0.961 . S
H445 C429 0.960 . S
C446 C447 1.391 . S
C446 C448 1.394 . S
C446 H462 0.931 . S
C447 C446 1.391 . S
C447 C451 1.376 1_556 S
C448 C446 1.394 . S
C448 C449 1.369 . S
C448 C452 1.531 . S
C449 C448 1.369 . S
C449 C450 1.410 . S
C449 C457 1.503 . S
C450 C449 1.410 . S
C450 C451 1.392 1_556 S
C450 C453 1.511 . S
C451 C447 1.376 1_554 S
C451 C450 1.392 1_554 S
C451 H463 0.929 . S
C452 C448 1.531 . S
C452 H464 0.960 . S
C452 H465 0.962 . S
C452 H466 0.960 . S
C453 C450 1.511 . S
C453 H467 0.961 . S
C453 H468 0.961 . S
C453 H469 0.961 . S
C454 C455 1.370 . S
C454 C456 1.363 . S
C454 H470 0.931 . S
C455 C454 1.370 . S
C455 C459 1.408 . S
C456 C454 1.363 . S
C456 C457 1.370 . S
C456 C460 1.524 . S
C457 C449 1.503 . S
C457 C456 1.370 . S
C457 C458 1.403 . S
C458 C457 1.403 . S
C458 C459 1.404 . S
C458 C461 1.539 . S
C459 C455 1.408 . S
C459 C458 1.404 . S
C459 H471 0.930 . S
C460 C456 1.524 . S
C460 H472 0.956 . S
C460 H473 0.961 . S
C460 H474 0.961 . S
C461 C458 1.539 . S
C461 H475 0.958 . S
C461 H476 0.961 . S
C461 H477 0.960 . S
H462 C446 0.931 . S
H463 C451 0.929 . S
H464 C452 0.960 . S
H465 C452 0.962 . S
H466 C452 0.960 . S
H467 C453 0.961 . S
H468 C453 0.961 . S
H469 C453 0.961 . S
H470 C454 0.931 . S
H471 C459 0.930 . S
H472 C460 0.956 . S
H473 C460 0.961 . S
H474 C460 0.961 . S
H475 C461 0.958 . S
H476 C461 0.961 . S
H477 C461 0.960 . S
C103 C67 1.254 . S
C95 N41 1.466 . S
C127 N2 1.471 . S
C135 C91 1.270 . S
C159 N15 1.607 . S
C167 C70 1.409 . S
C191 N28 1.604 . S
C199 C88 1.378 . S
C231 C68 1.462 . S
C223 N5 1.491 . S
C263 C90 1.530 . S
C255 N14 1.571 . S
C287 N27 1.545 . S
C295 C69 1.497 . S
C319 N44 1.469 . S
C327 C89 1.456 . S
C359 C87 1.515 . S
C351 N18 1.561 . S
C391 C66 1.502 . S
C383 N31 1.578 . S
C423 C86 1.443 . S
C415 N40 1.478 . S
C447 N1 1.483 1_556 S
C455 C65 1.453 . S
