# Generated by pormake.
# Topology pyr, (3,6)-cn, num edge types: 1
# Building blocks:
#     Node 0, Type 0, BuildingBlock: BETDAH_clean_linker_0, # of connection points: 3
#     Node 1, Type 0, BuildingBlock: BETDAH_clean_linker_0, # of connection points: 3
#     Node 2, Type 0, BuildingBlock: BETDAH_clean_linker_0, # of connection points: 3
#     Node 3, Type 0, BuildingBlock: BETDAH_clean_linker_0, # of connection points: 3
#     Node 4, Type 0, BuildingBlock: BETDAH_clean_linker_0, # of connection points: 3
#     Node 5, Type 0, BuildingBlock: BETDAH_clean_linker_0, # of connection points: 3
#     Node 6, Type 0, BuildingBlock: BETDAH_clean_linker_0, # of connection points: 3
#     Node 7, Type 0, BuildingBlock: BETDAH_clean_linker_0, # of connection points: 3
#     Node 8, Type 1, BuildingBlock: LEVNOQ01_clean_sbu_1, # of connection points: 6
#     Node 9, Type 1, BuildingBlock: LEVNOQ01_clean_sbu_1, # of connection points: 6
#     Node 10, Type 1, BuildingBlock: LEVNOQ01_clean_sbu_1, # of connection points: 6
#     Node 11, Type 1, BuildingBlock: LEVNOQ01_clean_sbu_1, # of connection points: 6
#     Edge 12, Type (0, 1), BuildingBlock: XIVTED_clean_linker_0, # of connection points: 2
#     Edge 13, Type (0, 1), BuildingBlock: XIVTED_clean_linker_0, # of connection points: 2
#     Edge 14, Type (0, 1), BuildingBlock: XIVTED_clean_linker_0, # of connection points: 2
#     Edge 15, Type (0, 1), BuildingBlock: XIVTED_clean_linker_0, # of connection points: 2
#     Edge 16, Type (0, 1), BuildingBlock: XIVTED_clean_linker_0, # of connection points: 2
#     Edge 17, Type (0, 1), BuildingBlock: XIVTED_clean_linker_0, # of connection points: 2
#     Edge 18, Type (0, 1), BuildingBlock: XIVTED_clean_linker_0, # of connection points: 2
#     Edge 19, Type (0, 1), BuildingBlock: XIVTED_clean_linker_0, # of connection points: 2
#     Edge 20, Type (0, 1), BuildingBlock: XIVTED_clean_linker_0, # of connection points: 2
#     Edge 21, Type (0, 1), BuildingBlock: XIVTED_clean_linker_0, # of connection points: 2
#     Edge 22, Type (0, 1), BuildingBlock: XIVTED_clean_linker_0, # of connection points: 2
#     Edge 23, Type (0, 1), BuildingBlock: XIVTED_clean_linker_0, # of connection points: 2
#     Edge 24, Type (0, 1), BuildingBlock: XIVTED_clean_linker_0, # of connection points: 2
#     Edge 25, Type (0, 1), BuildingBlock: XIVTED_clean_linker_0, # of connection points: 2
#     Edge 26, Type (0, 1), BuildingBlock: XIVTED_clean_linker_0, # of connection points: 2
#     Edge 27, Type (0, 1), BuildingBlock: XIVTED_clean_linker_0, # of connection points: 2
#     Edge 28, Type (0, 1), BuildingBlock: XIVTED_clean_linker_0, # of connection points: 2
#     Edge 29, Type (0, 1), BuildingBlock: XIVTED_clean_linker_0, # of connection points: 2
#     Edge 30, Type (0, 1), BuildingBlock: XIVTED_clean_linker_0, # of connection points: 2
#     Edge 31, Type (0, 1), BuildingBlock: XIVTED_clean_linker_0, # of connection points: 2
#     Edge 32, Type (0, 1), BuildingBlock: XIVTED_clean_linker_0, # of connection points: 2
#     Edge 33, Type (0, 1), BuildingBlock: XIVTED_clean_linker_0, # of connection points: 2
#     Edge 34, Type (0, 1), BuildingBlock: XIVTED_clean_linker_0, # of connection points: 2
#     Edge 35, Type (0, 1), BuildingBlock: XIVTED_clean_linker_0, # of connection points: 2
# Relax obj value: 0.081
# Max RMSD: 0.172
# Mean RMSD: 0.135
data_MOF--net-pry--node1-LEVNOQ01_clean_sbu_1--node2-BETDAH_clean_linker_0--edge1-XIVTED_clean_linker_0
_symmetry_space_group_name_H-M    P1
_symmetry_Int_Tables_number       1
_symmetry_cell_setting            triclinic
loop_
_symmetry_equiv_pos_as_xyz
'x, y, z'
_cell_length_a     36.688628
_cell_length_b     35.991133
_cell_length_c     36.405257
_cell_angle_alpha  93.00814
_cell_angle_beta   91.536007
_cell_angle_gamma 97.187554
loop_
_atom_site_label
_atom_site_type_symbol
_atom_site_fract_x
_atom_site_fract_y
_atom_site_fract_z
_atom_type_partial_charge
H0 H 0.17953 0.11321 0.20397 0.0
H1 H 0.16179 0.16167 0.10045 0.0
H2 H 0.0834 0.16807 0.18507 0.0
C3 C 0.16348 0.12893 0.18652 0.0
C4 C 0.13035 0.14006 0.19946 0.0
C5 C 0.17537 0.13632 0.15088 0.0
C6 C 0.15377 0.15614 0.12826 0.0
C7 C 0.12125 0.16851 0.14082 0.0
C8 C 0.10965 0.1605 0.17642 0.0
N9 N 0.09713 0.1821 0.11502 0.0
C10 C 0.09062 0.21937 0.11398 0.0
H11 H 0.42102 0.87175 0.70475 0.0
H12 H 0.3772 0.97348 0.68005 0.0
H13 H 0.37884 0.88582 0.59561 0.0
C14 C 0.40833 0.88852 0.68537 0.0
C15 C 0.4007 0.8743 0.64896 0.0
C16 C 0.40015 0.92431 0.69694 0.0
C17 C 0.38334 0.94564 0.67177 0.0
C18 C 0.37584 0.9317 0.63528 0.0
C19 C 0.38479 0.8963 0.62387 0.0
N20 N 0.36131 0.9542 0.60936 0.0
C21 C 0.32369 0.95405 0.60442 0.0
H22 H 0.67069 0.34854 0.94941 0.0
H23 H 0.63047 0.4473 0.91084 0.0
H24 H 0.56515 0.34071 0.89245 0.0
C25 C 0.64886 0.36173 0.9369 0.0
C26 C 0.61716 0.33941 0.92186 0.0
C27 C 0.6538 0.40081 0.93367 0.0
C28 C 0.62678 0.41743 0.91475 0.0
C29 C 0.59524 0.39548 0.89973 0.0
C30 C 0.59 0.35696 0.90413 0.0
N31 N 0.57069 0.41125 0.87653 0.0
C32 C 0.58239 0.42267 0.84259 0.0
H33 H 0.8426 0.66593 0.47971 0.0
H34 H 0.91446 0.63061 0.39643 0.0
H35 H 0.82046 0.55618 0.42525 0.0
C36 C 0.85039 0.64468 0.46032 0.0
C37 C 0.82789 0.61017 0.45527 0.0
C38 C 0.88205 0.65239 0.43964 0.0
C39 C 0.89054 0.62517 0.41307 0.0
C40 C 0.86838 0.59041 0.40837 0.0
C41 C 0.83777 0.5828 0.42992 0.0
N42 N 0.87607 0.56277 0.3817 0.0
C43 C 0.87841 0.57001 0.34475 0.0
H44 H 0.91103 0.84411 0.83517 0.0
H45 H 0.87059 0.87577 0.94119 0.0
H46 H 0.86096 0.9454 0.85078 0.0
C47 C 0.89728 0.86277 0.8527 0.0
C48 C 0.88544 0.89477 0.8377 0.0
C49 C 0.89211 0.85508 0.8901 0.0
C50 C 0.87475 0.88043 0.91238 0.0
C51 C 0.86322 0.9126 0.89802 0.0
C52 C 0.86858 0.91959 0.86094 0.0
N53 N 0.85228 0.94109 0.92212 0.0
C54 C 0.81593 0.94369 0.93078 0.0
H55 H 0.6576 0.08615 0.37519 0.0
H56 H 0.695 0.17018 0.46061 0.0
H57 H 0.60285 0.18484 0.3905 0.0
C58 C 0.65403 0.11183 0.39085 0.0
C59 C 0.62661 0.13328 0.37974 0.0
C60 C 0.67881 0.12481 0.4201 0.0
C61 C 0.67512 0.15887 0.43904 0.0
C62 C 0.64751 0.18009 0.42916 0.0
C63 C 0.62303 0.16738 0.39947 0.0
N64 N 0.64883 0.21623 0.44669 0.0
C65 C 0.61882 0.23469 0.45467 0.0
H66 H 0.30904 0.72143 0.15481 0.0
H67 H 0.34762 0.61462 0.16596 0.0
H68 H 0.42034 0.71579 0.19292 0.0
C69 C 0.33099 0.70537 0.16198 0.0
C70 C 0.36559 0.72405 0.17373 0.0
C71 C 0.32445 0.66607 0.15824 0.0
C72 C 0.35246 0.645 0.16795 0.0
C73 C 0.38656 0.66324 0.18131 0.0
C74 C 0.39331 0.70247 0.18369 0.0
N75 N 0.41352 0.64213 0.19439 0.0
C76 C 0.41303 0.63303 0.23083 0.0
H77 H 0.1395 0.3632 0.57345 0.0
H78 H 0.14082 0.46748 0.6369 0.0
H79 H 0.03891 0.39661 0.61569 0.0
C80 C 0.1247 0.38341 0.58786 0.0
C81 C 0.08654 0.37539 0.59231 0.0
C82 C 0.14428 0.41699 0.60306 0.0
C83 C 0.12575 0.44221 0.62378 0.0
C84 C 0.08788 0.43446 0.62849 0.0
C85 C 0.06824 0.40193 0.61179 0.0
N86 N 0.06967 0.45782 0.6522 0.0
C87 C 0.08107 0.46416 0.68888 0.0
O88 O 0.94981 0.02446 0.59702 0.0
Mg89 Mg 0.00096 0.04046 0.57424 0.0
O90 O 0.96823 0.97813 0.56532 0.0
Mg91 Mg -0.00807 0.01318 0.51288 0.0
O92 O 0.00371 0.07859 0.53496 0.0
O93 O 0.01487 0.09275 0.59544 0.0
O94 O 0.01758 0.049 0.46074 0.0
O95 O 0.93242 0.02614 0.50185 0.0
Mg96 Mg 0.98094 -0.01038 0.45432 0.0
O97 O 0.97866 0.94735 0.48954 0.0
O98 O 0.03044 0.00076 0.42792 0.0
O99 O 0.93757 0.02163 0.44246 0.0
O100 O 0.96045 0.94033 0.43005 0.0
C101 C 0.06473 0.00032 0.55874 0.0
C102 C 0.9493 -0.0103 0.59159 0.0
C103 C 0.01131 0.10328 0.56245 0.0
C104 C 0.03449 0.03569 0.43371 0.0
C105 C 0.91955 0.0305 0.46989 0.0
C106 C 0.96657 0.92578 0.46071 0.0
O107 O 0.04701 0.01178 0.58552 0.0
O108 O 0.05131 0.00076 0.52616 0.0
O109 O 0.42993 0.1012 0.06534 0.0
Mg110 Mg 0.48706 0.11234 0.06447 0.0
O111 O 0.43279 0.04003 0.06001 0.0
Mg112 Mg 0.49345 0.02851 0.04373 0.0
O113 O 0.51051 0.08678 0.02163 0.0
O114 O 0.50919 0.14882 0.02819 0.0
O115 O 0.55419 0.01621 0.02758 0.0
O116 O 0.47069 0.01178 0.98321 0.0
Mg117 Mg 0.49897 0.94334 0.02315 0.0
O118 O 0.4758 0.97033 0.06508 0.0
O119 O 0.55596 0.95477 0.02692 0.0
O120 O 0.47419 0.95108 0.97201 0.0
O121 O 0.47362 0.90795 0.059 0.0
C122 C 0.52551 0.07636 0.1238 0.0
C123 C 0.41447 0.06782 0.06527 0.0
C124 C 0.51937 0.12018 0.01028 0.0
C125 C 0.57208 -0.01224 0.02498 0.0
C126 C 0.46592 0.98216 0.96178 0.0
C127 C 0.46581 0.93752 0.0772 0.0
O128 O 0.51739 0.10722 0.11288 0.0
O129 O 0.51764 0.04571 0.10413 0.0
O130 O 0.46038 0.59851 0.63337 0.0
Mg131 Mg 0.47073 0.54427 0.64398 0.0
O132 O 0.47457 0.59865 0.57434 0.0
Mg133 Mg 0.49096 0.53851 0.56012 0.0
O134 O 0.51603 0.53311 0.61699 0.0
O135 O 0.51408 0.53614 0.67808 0.0
O136 O 0.5096 0.47641 0.55376 0.0
O137 O 0.54877 0.56585 0.54574 0.0
Mg138 Mg 0.49507 0.50775 0.50186 0.0
O139 O 0.46421 0.55036 0.50128 0.0
O140 O 0.46803 0.45448 0.51243 0.0
O141 O 0.55404 0.5194 0.50561 0.0
O142 O 0.4783 0.51633 0.45098 0.0
C143 C 0.41381 0.49624 0.59955 0.0
C144 C 0.46338 0.61478 0.60333 0.0
C145 C 0.53156 0.52952 0.64865 0.0
C146 C 0.49191 0.44818 0.53582 0.0
C147 C 0.56856 0.54822 0.52463 0.0
C148 C 0.46129 0.54209 0.46599 0.0
O149 O 0.42675 0.50128 0.6323 0.0
O150 O 0.43183 0.51003 0.57281 0.0
O151 O 0.04405 0.50292 0.07704 0.0
Mg152 Mg 0.02012 0.55409 0.07452 0.0
O153 O 0.00609 0.48099 0.03164 0.0
Mg154 Mg -0.00228 0.54184 0.01458 0.0
O155 O 0.96522 0.55598 0.0696 0.0
O156 O -0.00224 0.55971 0.12334 0.0
O157 O 0.9896 0.60495 0.99887 0.0
O158 O 0.93444 0.51772 0.99959 0.0
Mg159 Mg 0.97856 0.53896 0.94655 0.0
O160 O 0.0292 0.52511 0.96061 0.0
O161 O 0.96848 0.59382 0.94202 0.0
O162 O 0.9339 0.49829 0.94175 0.0
O163 O 0.00805 0.53045 0.9027 0.0
C164 C 0.07471 0.59317 0.04789 0.0
C165 C 0.0294 0.47523 0.05665 0.0
C166 C 0.9673 0.56057 0.10533 0.0
C167 C 0.97725 0.61677 0.96899 0.0
C168 C 0.91727 0.50069 0.97133 0.0
C169 C 0.03332 0.52288 0.92521 0.0
O170 O 0.05318 0.60546 0.07035 0.0
O171 O 0.06231 0.56448 0.02722 0.0
H172 H 0.13409 0.07212 0.2288 0.0
H173 H 0.02261 0.10592 0.41066 0.0
H174 H 0.09385 0.17816 0.25271 0.0
H175 H 0.08925 0.01673 0.39142 0.0
H176 H 0.0467 0.13455 0.35444 0.0
H177 H 0.11459 0.05185 0.28831 0.0
C178 C 0.12156 0.09149 0.24674 0.0
C179 C 0.11651 0.12738 0.23573 0.0
C180 C 0.05638 0.10902 0.36299 0.0
C181 C 0.09293 0.10359 0.30465 0.0
C182 C 0.04293 0.09291 0.39524 0.0
C183 C 0.05383 0.05877 0.4057 0.0
C184 C 0.08062 0.09066 0.34121 0.0
C185 C 0.07982 0.04287 0.38436 0.0
C186 C 0.11016 0.07972 0.28089 0.0
C187 C 0.09849 0.15031 0.25997 0.0
N188 N 0.09192 0.05865 0.3532 0.0
N189 N 0.08736 0.13807 0.29331 0.0
H190 H 0.46598 0.92375 0.73264 0.0
H191 H 0.40387 0.00303 0.92773 0.0
H192 H 0.35924 0.95975 0.74714 0.0
H193 H 0.50842 0.96473 0.90679 0.0
H194 H 0.38817 -0.00532 0.86108 0.0
H195 H 0.4832 0.94511 0.79582 0.0
C196 C 0.44613 0.9362 0.74925 0.0
C197 C 0.41101 0.9396 0.7348 0.0
C198 C 0.41473 -0.01131 0.87113 0.0
C199 C 0.43055 0.96441 0.80758 0.0
C200 C 0.4237 -0.00632 0.90897 0.0
C201 C 0.45732 0.98429 0.92239 0.0
C202 C 0.43978 0.97446 0.8471 0.0
C203 C 0.48209 0.97197 0.89735 0.0
C204 C 0.45601 0.94862 0.78536 0.0
C205 C 0.38662 0.95665 0.75734 0.0
N206 N 0.47276 0.96722 0.86105 0.0
N207 N 0.39671 0.96813 0.79284 0.0
H208 H 0.62901 0.48342 0.82692 0.0
H209 H 0.54427 0.45916 0.62872 0.0
H210 H 0.56378 0.38459 0.77792 0.0
H211 H 0.5954 0.56316 0.68129 0.0
H212 H 0.57905 0.42497 0.67053 0.0
H213 H 0.64161 0.50517 0.76519 0.0
C214 C 0.61791 0.46611 0.80297 0.0
C215 C 0.59453 0.43294 0.80694 0.0
C216 C 0.58409 0.45532 0.67191 0.0
C217 C 0.60852 0.45726 0.73683 0.0
C218 C 0.56472 0.47486 0.64747 0.0
C219 C 0.56617 0.51381 0.6527 0.0
C220 C 0.60441 0.47528 0.70157 0.0
C221 C 0.59292 0.53291 0.67731 0.0
C222 C 0.62528 0.47828 0.76784 0.0
C223 C 0.58127 0.41087 0.77557 0.0
N224 N 0.61009 0.51342 0.70194 0.0
N225 N 0.58784 0.42379 0.7417 0.0
H226 H 0.84302 0.5231 0.29187 0.0
H227 H 0.95756 0.62735 0.13686 0.0
H228 H 0.91613 0.62622 0.30965 0.0
H229 H 0.9096 0.51174 0.12538 0.0
H230 H 0.92372 0.63556 0.19298 0.0
H231 H 0.85035 0.5265 0.22521 0.0
C232 C 0.86022 0.5467 0.28151 0.0
C233 C 0.87945 0.57419 0.30575 0.0
C234 C 0.91951 0.60872 0.17756 0.0
C235 C 0.88783 0.57839 0.23026 0.0
C236 C 0.93835 0.60422 0.14529 0.0
C237 C 0.93601 0.56893 0.12671 0.0
C238 C 0.89868 0.57747 0.19143 0.0
C239 C 0.91165 0.53947 0.13896 0.0
C240 C 0.86431 0.54869 0.24364 0.0
C241 C 0.90118 0.60438 0.2915 0.0
N242 N 0.89439 0.54417 0.17114 0.0
N243 N 0.90513 0.60551 0.25455 0.0
H244 H 0.18819 0.10807 0.08089 0.0
H245 H 0.39015 0.0607 0.13416 0.0
H246 H 0.24019 0.13028 0.189 0.0
H247 H 0.35258 0.06854 0.02215 0.0
H248 H 0.32977 0.07329 0.15525 0.0
H249 H 0.24357 0.08347 0.05937 0.0
C250 C 0.21119 0.10808 0.10013 0.0
C251 C 0.20923 0.12159 0.13695 0.0
C252 C 0.33434 0.07136 0.12599 0.0
C253 C 0.27254 0.09221 0.11249 0.0
C254 C 0.36859 0.06355 0.11395 0.0
C255 C 0.37593 0.06274 0.07636 0.0
C256 C 0.30725 0.07862 0.10022 0.0
C257 C 0.34761 0.06813 0.05132 0.0
C258 C 0.24272 0.09362 0.08783 0.0
C259 C 0.23989 0.1198 0.16058 0.0
N260 N 0.31453 0.07604 0.06368 0.0
N261 N 0.2701 0.10543 0.14798 0.0
H262 H 0.28415 0.93507 0.54121 0.0
H263 H 0.10117 4e-05 0.62497 0.0
H264 H 0.27619 0.97711 0.65327 0.0
H265 H 0.11229 0.97444 0.5089 0.0
H266 H 0.16305 0.98493 0.63662 0.0
H267 H 0.21916 0.94239 0.52972 0.0
C268 C 0.26846 0.94559 0.56339 0.0
C269 C 0.28505 0.95564 0.59812 0.0
C270 C 0.15198 0.98243 0.60859 0.0
C271 C 0.21138 0.96426 0.5854 0.0
C272 C 0.11653 -0.00901 0.60187 0.0
C273 C 0.10148 -0.0113 0.56582 0.0
C274 C 0.17276 0.97133 0.57912 0.0
C275 C 0.12281 0.97673 0.5371 0.0
C276 C 0.23154 0.94986 0.55686 0.0
C277 C 0.26405 0.96912 0.62611 0.0
N278 N 0.15746 0.9686 0.54436 0.0
N279 N 0.22823 0.97317 0.61912 0.0
H280 H 0.69409 0.39729 0.99807 0.0
H281 H 0.87228 0.49383 0.91095 0.0
H282 H 0.69422 0.45515 0.89715 0.0
H283 H 0.87047 0.48309 0.02851 0.0
H284 H 0.80649 0.47682 0.90676 0.0
H285 H 0.7573 0.42707 0.01214 0.0
C286 C 0.70721 0.41661 0.97916 0.0
C287 C 0.6891 0.42323 0.94606 0.0
C288 C 0.82023 0.47831 0.9336 0.0
C289 C 0.76096 0.45703 0.96192 0.0
C290 C 0.85802 0.48764 0.93603 0.0
C291 C 0.87707 0.48947 0.97015 0.0
C292 C 0.80089 0.46991 0.96539 0.0
C293 C 0.85681 0.48175 1.00166 0.0
C294 C 0.74309 0.43371 0.98734 0.0
C295 C 0.70699 0.44909 0.92293 0.0
N296 N 0.81965 0.47173 0.99849 0.0
N297 N 0.74207 0.46452 0.93103 0.0
H298 H 0.79916 0.54736 0.4889 0.0
H299 H 0.60403 0.61971 0.52179 0.0
H300 H 0.7758 0.65786 0.46335 0.0
H301 H 0.62283 0.50386 0.52189 0.0
H302 H 0.66976 0.63747 0.51137 0.0
H303 H 0.73744 0.53434 0.51265 0.0
C304 C 0.78109 0.56897 0.48859 0.0
C305 C 0.79248 0.60363 0.47396 0.0
C306 C 0.65953 0.60823 0.51413 0.0
C307 C 0.72183 0.58895 0.50091 0.0
C308 C 0.62217 0.59817 0.5202 0.0
C309 C 0.60822 0.56029 0.52228 0.0
C310 C 0.68292 0.58019 0.51084 0.0
C311 C 0.63259 0.53333 0.51988 0.0
C312 C 0.74591 0.56157 0.50215 0.0
C313 C 0.76819 0.63086 0.47467 0.0
N314 N 0.66874 0.54378 0.51426 0.0
N315 N 0.73385 0.62283 0.4876 0.0
H316 H 0.03018 0.2346 0.07687 0.0
H317 H 0.0872 0.45744 0.09798 0.0
H318 H 0.12954 0.28745 0.13295 0.0
H319 H -0.00597 0.40585 0.03071 0.0
H320 H 0.10205 0.39544 0.11174 0.0
H321 H 0.0151 0.29659 0.06107 0.0
C322 C 0.04865 0.25942 0.08607 0.0
C323 C 0.08091 0.25618 0.10651 0.0
C324 C 0.07838 0.39752 0.0939 0.0
C325 C 0.06417 0.32708 0.0883 0.0
C326 C 0.06981 0.43304 0.08599 0.0
C327 C 0.03918 0.43706 0.06318 0.0
C328 C 0.05608 0.36535 0.07924 0.0
C329 C 0.01793 0.40421 0.04836 0.0
C330 C 0.04016 0.29474 0.0769 0.0
C331 C 0.10421 0.28893 0.11744 0.0
N332 N 0.02665 0.36977 0.05681 0.0
N333 N 0.09536 0.32302 0.10826 0.0
H334 H 0.58442 0.28547 0.87049 0.0
H335 H 0.59329 0.12707 0.01221 0.0
H336 H 0.64026 0.298 0.97735 0.0
H337 H 0.49934 0.13483 0.941 0.0
H338 H 0.62927 0.17467 0.97788 0.0
H339 H 0.57052 0.21818 0.87825 0.0
C340 C 0.59402 0.27424 0.89547 0.0
C341 C 0.61269 0.29788 0.92382 0.0
C342 C 0.60128 0.16462 0.96865 0.0
C343 C 0.59847 0.22061 0.93169 0.0
C344 C 0.58095 0.13703 0.98781 0.0
C345 C 0.54334 0.12761 0.9795 0.0
C346 C 0.58359 0.18251 0.94123 0.0
C347 C 0.52833 0.14168 0.94816 0.0
C348 C 0.58657 0.23572 0.89947 0.0
C349 C 0.62577 0.28119 0.95473 0.0
N350 N 0.54825 0.16937 0.93064 0.0
N351 N 0.61805 0.24367 0.95799 0.0
H352 H 0.91224 0.69595 0.38597 0.0
H353 H 0.9616 0.88015 0.52016 0.0
H354 H 0.90242 0.6945 0.5038 0.0
H355 H 0.95959 0.87686 0.40134 0.0
H356 H 0.949 0.81103 0.51683 0.0
H357 H 0.9406 0.76082 0.39325 0.0
C358 C 0.9166 0.70904 0.41347 0.0
C359 C 0.90427 0.68991 0.44425 0.0
C360 C 0.95164 0.82566 0.49161 0.0
C361 C 0.93597 0.76482 0.45281 0.0
C362 C 0.9588 0.86499 0.49353 0.0
C363 C 0.96115 0.88436 0.46103 0.0
C364 C 0.94717 0.80592 0.45699 0.0
C365 C 0.95746 0.86335 0.42721 0.0
C366 C 0.93253 0.74631 0.41764 0.0
C367 C 0.91059 0.70857 0.47922 0.0
N368 N 0.95055 0.82551 0.42613 0.0
N369 N 0.92557 0.74517 0.48255 0.0
H370 H 0.43596 0.85127 0.58756 0.0
H371 H 0.40929 0.63829 0.64296 0.0
H372 H 0.38372 0.81065 0.68503 0.0
H373 H 0.48858 0.67589 0.56311 0.0
H374 H 0.39236 0.70091 0.65015 0.0
H375 H 0.44966 0.78727 0.57113 0.0
C376 C 0.42721 0.82885 0.60531 0.0
C377 C 0.40876 0.83614 0.63774 0.0
C378 C 0.41346 0.69575 0.63096 0.0
C379 C 0.42403 0.76351 0.61913 0.0
C380 C 0.42314 0.65989 0.62678 0.0
C381 C 0.45088 0.65209 0.60292 0.0
C382 C 0.4317 0.72452 0.61133 0.0
C383 C 0.46721 0.68095 0.58198 0.0
C384 C 0.43517 0.79254 0.59603 0.0
C385 C 0.39829 0.80635 0.65999 0.0
N386 N 0.45763 0.71629 0.58698 0.0
N387 N 0.40602 0.77146 0.65023 0.0
H388 H 0.84009 0.92539 0.78946 0.0
H389 H 0.97832 0.93084 0.62175 0.0
H390 H 0.94525 0.88357 0.79547 0.0
H391 H 0.88748 -0.0043 0.62965 0.0
H392 H 0.96075 0.90294 0.68007 0.0
H393 H 0.85203 0.94217 0.72643 0.0
C394 C 0.86574 0.91971 0.77765 0.0
C395 C 0.89174 0.90319 0.79826 0.0
C396 C 0.94427 0.92274 0.66863 0.0
C397 C 0.90534 0.92187 0.72525 0.0
C398 C 0.95398 0.93825 0.6351 0.0
C399 C 0.93416 0.96544 0.62073 0.0
C400 C 0.91432 0.93426 0.68765 0.0
C401 C 0.90342 0.97474 0.63969 0.0
C402 C 0.87243 0.92912 0.74144 0.0
C403 C 0.9241 0.89583 0.78078 0.0
N404 N 0.89458 0.95936 0.67212 0.0
N405 N 0.93003 0.90534 0.74545 0.0
H406 H 0.59016 0.06463 0.35509 0.0
H407 H 0.58128 0.12765 0.14887 0.0
H408 H 0.61987 0.17759 0.32244 0.0
H409 H 0.51292 0.02912 0.18086 0.0
H410 H 0.60487 0.13946 0.21204 0.0
H411 H 0.56729 0.04604 0.29172 0.0
C412 C 0.59129 0.08559 0.33472 0.0
C413 C 0.60666 0.12278 0.34401 0.0
C414 C 0.58484 0.11512 0.20538 0.0
C415 C 0.58182 0.10153 0.27173 0.0
C416 C 0.57164 0.10818 0.16927 0.0
C417 C 0.5449 0.07763 0.15987 0.0
C418 C 0.57106 0.09152 0.23259 0.0
C419 C 0.5336 0.05297 0.18717 0.0
C420 C 0.57845 0.07493 0.29866 0.0
C421 C 0.60775 0.14881 0.31666 0.0
N422 N 0.54648 0.06069 0.22263 0.0
N423 N 0.59589 0.13759 0.28175 0.0
H424 H 0.43326 0.67978 0.29022 0.0
H425 H 0.40513 0.51016 0.42173 0.0
H426 H 0.38632 0.56697 0.25681 0.0
H427 H 0.46768 0.61676 0.45405 0.0
H428 H 0.38157 0.53724 0.3673 0.0
H429 H 0.43187 0.66303 0.35485 0.0
C430 C 0.4225 0.65155 0.29673 0.0
C431 C 0.41056 0.62433 0.26873 0.0
C432 C 0.39973 0.55509 0.38665 0.0
C433 C 0.40847 0.60518 0.34171 0.0
C434 C 0.41286 0.53972 0.41782 0.0
C435 C 0.43844 0.56137 0.44185 0.0
C436 C 0.41316 0.59207 0.37913 0.0
C437 C 0.44789 0.59937 0.43589 0.0
C438 C 0.4215 0.64208 0.33342 0.0
C439 C 0.39625 0.58841 0.27797 0.0
N440 N 0.43588 0.61344 0.40446 0.0
N441 N 0.39593 0.5797 0.31376 0.0
H442 H 0.12191 0.52288 0.72569 0.0
H443 H 0.04472 0.45096 0.91249 0.0
H444 H 0.06132 0.41434 0.73941 0.0
H445 H 0.09096 0.56465 0.89679 0.0
H446 H 0.07286 0.43056 0.85611 0.0
H447 H 0.13035 0.53225 0.79285 0.0
C448 C 0.11095 0.50085 0.743 0.0
C449 C 0.09046 0.46814 0.72759 0.0
C450 C 0.07825 0.45977 0.86573 0.0
C451 C 0.09977 0.4784 0.80378 0.0
C452 C 0.06279 0.47126 0.89835 0.0
C453 C 0.06539 0.50948 0.90882 0.0
C454 C 0.09598 0.48694 0.84364 0.0
C455 C 0.08837 0.53488 0.88932 0.0
C456 C 0.11585 0.50605 0.78118 0.0
C457 C 0.07695 0.44014 0.75067 0.0
N458 N 0.10195 0.52335 0.85694 0.0
N459 N 0.08137 0.44611 0.78775 0.0
H460 H 0.78196 0.91354 0.98885 0.0
H461 H 0.61016 0.03141 0.97494 0.0
H462 H 0.77054 -0.0092 0.90415 0.0
H463 H 0.62301 0.94944 0.05489 0.0
H464 H 0.67122 0.02247 0.95175 0.0
H465 H 0.725 0.92978 0.01531 0.0
C466 C 0.76708 0.93366 0.97565 0.0
C467 C 0.78047 0.9506 0.9442 0.0
C468 C 0.66087 0.00694 0.97478 0.0
C469 C 0.71562 0.97002 0.97452 0.0
C470 C 0.62631 0.01247 0.98833 0.0
C471 C 0.61164 -0.00881 0.01693 0.0
C472 C 0.68069 0.98005 0.9901 0.0
C473 C 0.63332 0.9664 0.03278 0.0
C474 C 0.73471 0.94318 0.99085 0.0
C475 C 0.76066 0.97692 0.92832 0.0
N476 N 0.66646 0.96135 0.01904 0.0
N477 N 0.72913 -0.01414 0.94362 0.0
H478 H 0.72369 0.09589 0.37053 0.0
H479 H 0.87117 0.04961 0.52208 0.0
H480 H 0.70931 0.11228 0.48731 0.0
H481 H 0.8858 0.042 0.40472 0.0
H482 H 0.81067 0.06995 0.51082 0.0
H483 H 0.78141 0.07167 0.38342 0.0
C484 C 0.73233 0.0937 0.39894 0.0
C485 C 0.71155 0.10592 0.4279 0.0
C486 C 0.82721 0.06381 0.48761 0.0
C487 C 0.77829 0.07913 0.44292 0.0
C488 C 0.86173 0.0523 0.49401 0.0
C489 C 0.88356 0.04407 0.46429 0.0
C490 C 0.81454 0.06696 0.45127 0.0
C491 C 0.86996 0.04798 0.4285 0.0
C492 C 0.76557 0.08028 0.40631 0.0
C493 C 0.72464 0.10332 0.46418 0.0
N494 N 0.83638 0.05908 0.42303 0.0
N495 N 0.7573 0.09033 0.47069 0.0
H496 H 0.31035 0.61218 0.10155 0.0
H497 H 0.10627 0.66028 0.07765 0.0
H498 H 0.25688 0.67983 0.17951 0.0
H499 H 0.13307 0.55373 0.03364 0.0
H500 H 0.16841 0.67455 0.10389 0.0
H501 H 0.25059 0.5934 0.06884 0.0
C502 C 0.28594 0.62242 0.11216 0.0
C503 C 0.28846 0.64807 0.14285 0.0
C504 C 0.16088 0.64817 0.08817 0.0
C505 C 0.22106 0.62781 0.10528 0.0
C506 C 0.12556 0.64021 0.0728 0.0
C507 C 0.1144 0.6056 0.05384 0.0
C508 C 0.18543 0.62142 0.08459 0.0
C509 C 0.14065 0.58075 0.04813 0.0
C510 C 0.25208 0.61199 0.09335 0.0
C511 C 0.25619 0.66065 0.15549 0.0
N512 N 0.17506 0.58894 0.06391 0.0
N513 N 0.22398 0.65083 0.13637 0.0
H514 H 0.19702 0.37277 0.61971 0.0
H515 H 0.36351 0.51105 0.54739 0.0
H516 H 0.18239 0.47967 0.57717 0.0
H517 H 0.37684 0.44178 0.63878 0.0
H518 H 0.29736 0.48898 0.54488 0.0
H519 H 0.26383 0.3879 0.61449 0.0
C520 C 0.20794 0.39922 0.60891 0.0
C521 C 0.1844 0.42506 0.59881 0.0
C522 C 0.31495 0.47829 0.56511 0.0
C523 C 0.26022 0.4422 0.59235 0.0
C524 C 0.35265 0.49055 0.56635 0.0
C525 C 0.37555 0.4783 0.59345 0.0
C526 C 0.30032 0.45303 0.59062 0.0
C527 C 0.36003 0.45205 0.61762 0.0
C528 C 0.2459 0.40786 0.60608 0.0
C529 C 0.19977 0.45912 0.58533 0.0
N530 N 0.32332 0.44026 0.61566 0.0
N531 N 0.23677 0.46668 0.58231 0.0
H532 H 0.9186 0.84617 0.9612 0.0
H533 H 0.9897 0.65232 0.90667 0.0
H534 H 0.89692 0.7859 0.85543 0.0
H535 H 0.95458 0.67164 0.01739 0.0
H536 H 0.97051 0.7117 0.89042 0.0
H537 H 0.94243 0.79095 0.98477 0.0
C538 C 0.91848 0.82151 0.94285 0.0
C539 C 0.9058 0.82134 0.90584 0.0
C540 C 0.96725 0.70325 0.91839 0.0
C541 C 0.93449 0.75853 0.93273 0.0
C542 C 0.97844 0.66943 0.92784 0.0
C543 C 0.97331 0.65668 0.96335 0.0
C544 C 0.95079 0.72506 0.94456 0.0
C545 C 0.95902 0.68042 0.9897 0.0
C546 C 0.93239 0.79009 0.95645 0.0
C547 C 0.90723 0.78838 0.88367 0.0
N548 N 0.94785 0.7135 0.97968 0.0
N549 N 0.92158 0.75872 0.89732 0.0
H550 H 0.41188 0.77398 0.21982 0.0
H551 H 0.39227 0.93419 0.08282 0.0
H552 H 0.33686 0.76978 0.12556 0.0
H553 H 0.49182 0.92377 0.1445 0.0
H554 H 0.35841 0.88973 0.12201 0.0
H555 H 0.42912 0.84106 0.21197 0.0
C556 C 0.39863 0.78701 0.19784 0.0
C557 C 0.37313 0.76569 0.17305 0.0
C558 C 0.38739 0.89842 0.12807 0.0
C559 C 0.39169 0.84265 0.16509 0.0
C560 C 0.40655 0.92429 0.10611 0.0
C561 C 0.44479 0.932 0.11034 0.0
C562 C 0.40697 0.88009 0.15381 0.0
C563 C 0.46225 0.9181 0.14043 0.0
C564 C 0.40813 0.8254 0.19379 0.0
C565 C 0.35621 0.78463 0.1458 0.0
N566 N 0.44341 0.89174 0.16044 0.0
N567 N 0.36603 0.8218 0.14242 0.0
H568 H 0.03213 0.33374 0.62785 0.0
H569 H 0.0437 0.14446 0.50717 0.0
H570 H 0.09605 0.33069 0.53 0.0
H571 H 0.98473 0.15407 0.60739 0.0
H572 H 0.05508 0.2136 0.50766 0.0
H573 H 0.00554 0.26969 0.61282 0.0
C574 C 0.04014 0.31996 0.60273 0.0
C575 C 0.06679 0.33782 0.58039 0.0
C576 C 0.03914 0.20043 0.52914 0.0
C577 C 0.03717 0.26314 0.56367 0.0
C578 C 0.03256 0.16113 0.52875 0.0
C579 C 0.01379 0.14383 0.55761 0.0
C580 C 0.02644 0.22203 0.55839 0.0
C581 C -9e-05 0.16642 0.58499 0.0
C582 C 0.02512 0.28299 0.59432 0.0
C583 C 0.07631 0.3178 0.54855 0.0
N584 N 0.00672 0.20421 0.58484 0.0
N585 N 0.06191 0.28131 0.5414 0.0
H586 H 0.54893 0.2448 0.43309 0.0
H587 H 0.55575 0.4291 0.56614 0.0
H588 H 0.63715 0.28257 0.51194 0.0
H589 H 0.45995 0.3837 0.49923 0.0
H590 H 0.58366 0.37248 0.55058 0.0
H591 H 0.51355 0.29298 0.45958 0.0
C592 C 0.56052 0.26306 0.4562 0.0
C593 C 0.59571 0.2602 0.47055 0.0
C594 C 0.55625 0.37459 0.53979 0.0
C595 C 0.55617 0.31493 0.50064 0.0
C596 C 0.54017 0.40683 0.54898 0.0
C597 C 0.50554 0.41124 0.53384 0.0
C598 C 0.5377 0.34674 0.51506 0.0
C599 C 0.48683 0.38158 0.51133 0.0
C600 C 0.54048 0.29043 0.47135 0.0
C601 C 0.60994 0.28423 0.5003 0.0
N602 N 0.50336 0.35083 0.50219 0.0
N603 N 0.59025 0.31081 0.51424 0.0
loop_
_geom_bond_atom_site_label_1
_geom_bond_atom_site_label_2
_geom_bond_distance
_geom_bond_site_symmetry_2
_ccdc_geom_bond_type
H0 C3 0.929 . S
H1 C6 0.929 . S
H2 C8 0.930 . S
C3 H0 0.929 . S
C3 C4 1.398 . S
C3 C5 1.396 . S
C4 C3 1.398 . S
C4 C8 1.407 . S
C5 C3 1.396 . S
C5 C6 1.394 . S
C6 H1 0.929 . S
C6 C5 1.394 . S
C6 C7 1.382 . S
C7 C6 1.382 . S
C7 C8 1.392 . S
C7 N9 1.420 . S
C8 H2 0.930 . S
C8 C4 1.407 . S
C8 C7 1.392 . S
N9 C7 1.420 . S
N9 C10 1.244 . S
C10 N9 1.244 . S
H11 C14 0.929 . S
H12 C17 0.929 . S
H13 C19 0.930 . S
C14 H11 0.929 . S
C14 C15 1.398 . S
C14 C16 1.396 . S
C15 C14 1.398 . S
C15 C19 1.407 . S
C16 C14 1.396 . S
C16 C17 1.394 . S
C17 H12 0.929 . S
C17 C16 1.394 . S
C17 C18 1.382 . S
C18 C17 1.382 . S
C18 C19 1.392 . S
C18 N20 1.420 . S
C19 H13 0.930 . S
C19 C15 1.407 . S
C19 C18 1.392 . S
N20 C18 1.420 . S
N20 C21 1.244 . S
C21 N20 1.244 . S
H22 C25 0.929 . S
H23 C28 0.929 . S
H24 C30 0.930 . S
C25 H22 0.929 . S
C25 C26 1.398 . S
C25 C27 1.396 . S
C26 C25 1.398 . S
C26 C30 1.407 . S
C27 C25 1.396 . S
C27 C28 1.394 . S
C28 H23 0.929 . S
C28 C27 1.394 . S
C28 C29 1.382 . S
C29 C28 1.382 . S
C29 C30 1.392 . S
C29 N31 1.420 . S
C30 H24 0.930 . S
C30 C26 1.407 . S
C30 C29 1.392 . S
N31 C29 1.420 . S
N31 C32 1.244 . S
C32 N31 1.244 . S
H33 C36 0.929 . S
H34 C39 0.929 . S
H35 C41 0.930 . S
C36 H33 0.929 . S
C36 C37 1.398 . S
C36 C38 1.396 . S
C37 C36 1.398 . S
C37 C41 1.407 . S
C38 C36 1.396 . S
C38 C39 1.394 . S
C39 H34 0.929 . S
C39 C38 1.394 . S
C39 C40 1.382 . S
C40 C39 1.382 . S
C40 C41 1.392 . S
C40 N42 1.420 . S
C41 H35 0.930 . S
C41 C37 1.407 . S
C41 C40 1.392 . S
N42 C40 1.420 . S
N42 C43 1.244 . S
C43 N42 1.244 . S
H44 C47 0.929 . S
H45 C50 0.929 . S
H46 C52 0.930 . S
C47 H44 0.929 . S
C47 C48 1.398 . S
C47 C49 1.396 . S
C48 C47 1.398 . S
C48 C52 1.407 . S
C49 C47 1.396 . S
C49 C50 1.394 . S
C50 H45 0.929 . S
C50 C49 1.394 . S
C50 C51 1.382 . S
C51 C50 1.382 . S
C51 C52 1.392 . S
C51 N53 1.420 . S
C52 H46 0.930 . S
C52 C48 1.407 . S
C52 C51 1.392 . S
N53 C51 1.420 . S
N53 C54 1.244 . S
C54 N53 1.244 . S
H55 C58 0.929 . S
H56 C61 0.929 . S
H57 C63 0.930 . S
C58 H55 0.929 . S
C58 C59 1.398 . S
C58 C60 1.396 . S
C59 C58 1.398 . S
C59 C63 1.407 . S
C60 C58 1.396 . S
C60 C61 1.394 . S
C61 H56 0.929 . S
C61 C60 1.394 . S
C61 C62 1.382 . S
C62 C61 1.382 . S
C62 C63 1.392 . S
C62 N64 1.420 . S
C63 H57 0.930 . S
C63 C59 1.407 . S
C63 C62 1.392 . S
N64 C62 1.420 . S
N64 C65 1.244 . S
C65 N64 1.244 . S
H66 C69 0.929 . S
H67 C72 0.929 . S
H68 C74 0.930 . S
C69 H66 0.929 . S
C69 C70 1.398 . S
C69 C71 1.396 . S
C70 C69 1.398 . S
C70 C74 1.407 . S
C71 C69 1.396 . S
C71 C72 1.394 . S
C72 H67 0.929 . S
C72 C71 1.394 . S
C72 C73 1.382 . S
C73 C72 1.382 . S
C73 C74 1.392 . S
C73 N75 1.420 . S
C74 H68 0.930 . S
C74 C70 1.407 . S
C74 C73 1.392 . S
N75 C73 1.420 . S
N75 C76 1.244 . S
C76 N75 1.244 . S
H77 C80 0.929 . S
H78 C83 0.929 . S
H79 C85 0.930 . S
C80 H77 0.929 . S
C80 C81 1.398 . S
C80 C82 1.396 . S
C81 C80 1.398 . S
C81 C85 1.407 . S
C82 C80 1.396 . S
C82 C83 1.394 . S
C83 H78 0.929 . S
C83 C82 1.394 . S
C83 C84 1.382 . S
C84 C83 1.382 . S
C84 C85 1.392 . S
C84 N86 1.420 . S
C85 H79 0.930 . S
C85 C81 1.407 . S
C85 C84 1.392 . S
N86 C84 1.420 . S
N86 C87 1.244 . S
C87 N86 1.244 . S
O88 Mg89 1.990 . S
O88 C102 1.253 1_455 S
Mg89 O88 1.990 . S
Mg89 O92 2.180 . S
Mg89 O93 2.117 . S
Mg89 O107 2.030 . S
O90 Mg91 2.069 1_665 S
O90 C102 1.260 1_565 S
Mg91 O90 2.069 1_445 S
Mg91 O92 2.099 . S
Mg91 O94 2.079 . S
Mg91 O95 2.072 1_455 S
Mg91 O97 2.099 1_445 S
Mg91 O108 2.079 . S
O92 Mg89 2.180 . S
O92 Mg91 2.099 . S
O92 C103 1.279 . S
O93 Mg89 2.117 . S
O93 C103 1.250 . S
O94 Mg91 2.079 . S
O94 C104 1.264 . S
O95 Mg91 2.072 1_655 S
O95 C105 1.260 . S
Mg96 O97 2.180 . S
Mg96 O98 2.030 1_565 S
Mg96 O99 1.990 1_565 S
Mg96 O100 2.117 . S
O97 Mg91 2.099 1_665 S
O97 Mg96 2.180 . S
O97 C106 1.279 . S
O98 Mg96 2.030 1_545 S
O98 C104 1.248 1_655 S
O99 Mg96 1.990 1_545 S
O99 C105 1.253 . S
O100 Mg96 2.117 . S
O100 C106 1.250 . S
C101 O107 1.248 . S
C101 O108 1.264 . S
C102 O88 1.253 1_655 S
C102 O90 1.260 1_545 S
C103 O92 1.279 . S
C103 O93 1.250 . S
C104 O94 1.264 . S
C104 O98 1.248 1_455 S
C105 O95 1.260 . S
C105 O99 1.253 . S
C106 O97 1.279 . S
C106 O100 1.250 . S
O107 Mg89 2.030 . S
O107 C101 1.248 . S
O108 Mg91 2.079 . S
O108 C101 1.264 . S
O109 Mg110 1.990 . S
O109 C123 1.253 . S
Mg110 O109 1.990 . S
Mg110 O113 2.180 . S
Mg110 O114 2.117 . S
Mg110 O128 2.030 . S
O111 Mg112 2.072 . S
O111 C123 1.260 . S
Mg112 O111 2.072 . S
Mg112 O113 2.099 . S
Mg112 O115 2.079 . S
Mg112 O116 2.072 1_554 S
Mg112 O118 2.099 1_545 S
Mg112 O129 2.079 . S
O113 Mg110 2.180 . S
O113 Mg112 2.099 . S
O113 C124 1.279 . S
O114 Mg110 2.117 . S
O114 C124 1.250 . S
O115 Mg112 2.079 . S
O115 C125 1.264 . S
O116 Mg112 2.072 1_556 S
O116 C126 1.266 . S
Mg117 O118 2.180 . S
Mg117 O119 2.030 1_554 S
Mg117 O120 1.990 1_554 S
Mg117 O121 2.117 . S
O118 Mg112 2.099 1_565 S
O118 Mg117 2.180 . S
O118 C127 1.279 . S
O119 Mg117 2.030 1_556 S
O119 C125 1.248 1_566 S
O120 Mg117 1.990 1_556 S
O120 C126 1.245 1_565 S
O121 Mg117 2.117 . S
O121 C127 1.250 . S
C122 O128 1.248 . S
C122 O129 1.264 . S
C123 O109 1.253 . S
C123 O111 1.260 . S
C124 O113 1.279 . S
C124 O114 1.250 . S
C125 O115 1.264 . S
C125 O119 1.248 1_544 S
C126 O116 1.266 . S
C126 O120 1.245 1_545 S
C127 O118 1.279 . S
C127 O121 1.250 . S
O128 Mg110 2.030 . S
O128 C122 1.248 . S
O129 Mg112 2.079 . S
O129 C122 1.264 . S
O130 Mg131 1.990 . S
O130 C144 1.253 . S
Mg131 O130 1.990 . S
Mg131 O134 2.180 . S
Mg131 O135 2.117 . S
Mg131 O149 2.030 . S
O132 Mg133 2.072 . S
O132 C144 1.260 . S
Mg133 O132 2.072 . S
Mg133 O134 2.099 . S
Mg133 O136 2.079 . S
Mg133 O137 2.072 . S
Mg133 O139 2.099 . S
Mg133 O150 2.079 . S
O134 Mg131 2.180 . S
O134 Mg133 2.099 . S
O134 C145 1.279 . S
O135 Mg131 2.117 . S
O135 C145 1.250 . S
O136 Mg133 2.079 . S
O136 C146 1.264 . S
O137 Mg133 2.072 . S
O137 C147 1.260 . S
Mg138 O139 2.180 . S
Mg138 O140 2.030 . S
Mg138 O141 1.990 . S
Mg138 O142 2.117 . S
O139 Mg133 2.099 . S
O139 Mg138 2.180 . S
O139 C148 1.279 . S
O140 Mg138 2.030 . S
O140 C146 1.248 . S
O141 Mg138 1.990 . S
O141 C147 1.253 . S
O142 Mg138 2.117 . S
O142 C148 1.250 . S
C143 O149 1.248 . S
C143 O150 1.264 . S
C144 O130 1.253 . S
C144 O132 1.260 . S
C145 O134 1.279 . S
C145 O135 1.250 . S
C146 O136 1.264 . S
C146 O140 1.248 . S
C147 O137 1.260 . S
C147 O141 1.253 . S
C148 O139 1.279 . S
C148 O142 1.250 . S
O149 Mg131 2.030 . S
O149 C143 1.248 . S
O150 Mg133 2.079 . S
O150 C143 1.264 . S
O151 Mg152 1.990 . S
O151 C165 1.253 . S
Mg152 O151 1.990 . S
Mg152 O155 2.180 . S
Mg152 O156 2.117 1_455 S
Mg152 O170 2.030 . S
O153 Mg154 2.072 . S
O153 C165 1.260 . S
Mg154 O153 2.072 . S
Mg154 O155 2.099 . S
Mg154 O157 2.079 1_554 S
Mg154 O158 2.072 1_455 S
Mg154 O160 2.099 1_554 S
Mg154 O171 2.079 . S
O155 Mg152 2.180 . S
O155 Mg154 2.099 . S
O155 C166 1.279 1_455 S
O156 Mg152 2.117 1_655 S
O156 C166 1.250 . S
O157 Mg154 2.079 1_556 S
O157 C167 1.263 1_455 S
O158 Mg154 2.072 1_655 S
O158 C168 1.260 1_554 S
Mg159 O160 2.180 1_655 S
Mg159 O161 2.030 . S
Mg159 O162 1.990 . S
Mg159 O163 2.117 1_655 S
O160 Mg154 2.099 1_556 S
O160 Mg159 2.180 1_455 S
O160 C169 1.279 . S
O161 Mg159 2.030 . S
O161 C167 1.248 . S
O162 Mg159 1.990 . S
O162 C168 1.253 . S
O163 Mg159 2.117 1_455 S
O163 C169 1.250 . S
C164 O170 1.248 . S
C164 O171 1.264 . S
C165 O151 1.253 . S
C165 O153 1.260 . S
C166 O155 1.279 1_655 S
C166 O156 1.250 . S
C167 O157 1.263 1_655 S
C167 O161 1.248 . S
C168 O158 1.260 1_556 S
C168 O162 1.253 . S
C169 O160 1.279 . S
C169 O163 1.250 . S
O170 Mg152 2.030 . S
O170 C164 1.248 . S
O171 Mg154 2.079 . S
O171 C164 1.264 . S
H172 C178 0.930 . S
H173 C182 0.930 . S
H174 C187 0.929 . S
H175 C185 0.929 . S
H176 C180 0.929 . S
H177 C186 0.929 . S
C178 H172 0.930 . S
C178 C179 1.367 . S
C178 C186 1.378 . S
C179 C178 1.367 . S
C179 C187 1.433 . S
C180 H176 0.929 . S
C180 C182 1.378 . S
C180 C184 1.350 . S
C181 C184 1.463 . S
C181 C186 1.350 . S
C181 N189 1.427 . S
C182 H173 0.930 . S
C182 C180 1.378 . S
C182 C183 1.367 . S
C183 C182 1.367 . S
C183 C185 1.433 . S
C184 C180 1.350 . S
C184 C181 1.463 . S
C184 N188 1.427 . S
C185 H175 0.929 . S
C185 C183 1.433 . S
C185 N188 1.384 . S
C186 H177 0.929 . S
C186 C178 1.378 . S
C186 C181 1.350 . S
C187 H174 0.929 . S
C187 C179 1.433 . S
C187 N189 1.384 . S
N188 C184 1.427 . S
N188 C185 1.384 . S
N189 C181 1.427 . S
N189 C187 1.384 . S
H190 C196 0.930 . S
H191 C200 0.930 . S
H192 C205 0.929 . S
H193 C203 0.929 . S
H194 C198 0.945 . S
H195 C204 0.929 . S
C196 H190 0.930 . S
C196 C197 1.367 . S
C196 C204 1.378 . S
C197 C196 1.367 . S
C197 C205 1.433 . S
C198 H194 0.945 . S
C198 C200 1.384 . S
C198 C202 1.327 1_545 S
C199 C202 1.463 . S
C199 C204 1.350 . S
C199 N207 1.427 . S
C200 H191 0.930 . S
C200 C198 1.384 . S
C200 C201 1.367 1_545 S
C201 C200 1.367 1_565 S
C201 C203 1.433 . S
C202 C198 1.327 1_565 S
C202 C199 1.463 . S
C202 N206 1.427 . S
C203 H193 0.929 . S
C203 C201 1.433 . S
C203 N206 1.384 . S
C204 H195 0.929 . S
C204 C196 1.378 . S
C204 C199 1.350 . S
C205 H192 0.929 . S
C205 C197 1.433 . S
C205 N207 1.384 . S
N206 C202 1.427 . S
N206 C203 1.384 . S
N207 C199 1.427 . S
N207 C205 1.384 . S
H208 C214 0.930 . S
H209 C218 0.930 . S
H210 C223 0.929 . S
H211 C221 0.929 . S
H212 C216 0.929 . S
H213 C222 0.929 . S
C214 H208 0.930 . S
C214 C215 1.367 . S
C214 C222 1.378 . S
C215 C214 1.367 . S
C215 C223 1.433 . S
C216 H212 0.929 . S
C216 C218 1.378 . S
C216 C220 1.350 . S
C217 C220 1.463 . S
C217 C222 1.350 . S
C217 N225 1.427 . S
C218 H209 0.930 . S
C218 C216 1.378 . S
C218 C219 1.367 . S
C219 C218 1.367 . S
C219 C221 1.433 . S
C220 C216 1.350 . S
C220 C217 1.463 . S
C220 N224 1.427 . S
C221 H211 0.929 . S
C221 C219 1.433 . S
C221 N224 1.384 . S
C222 H213 0.929 . S
C222 C214 1.378 . S
C222 C217 1.350 . S
C223 H210 0.929 . S
C223 C215 1.433 . S
C223 N225 1.384 . S
N224 C220 1.427 . S
N224 C221 1.384 . S
N225 C217 1.427 . S
N225 C223 1.384 . S
H226 C232 0.930 . S
H227 C236 0.948 . S
H228 C241 0.929 . S
H229 C239 0.929 . S
H230 C234 0.929 . S
H231 C240 0.929 . S
C232 H226 0.930 . S
C232 C233 1.367 . S
C232 C240 1.378 . S
C233 C232 1.367 . S
C233 C241 1.433 . S
C234 H230 0.929 . S
C234 C236 1.378 . S
C234 C238 1.350 . S
C235 C238 1.463 . S
C235 C240 1.350 . S
C235 N243 1.427 . S
C236 H227 0.948 . S
C236 C234 1.378 . S
C236 C237 1.367 . S
C237 C236 1.367 . S
C237 C239 1.433 . S
C238 C234 1.350 . S
C238 C235 1.463 . S
C238 N242 1.427 . S
C239 H229 0.929 . S
C239 C237 1.433 . S
C239 N242 1.384 . S
C240 H231 0.929 . S
C240 C232 1.378 . S
C240 C235 1.350 . S
C241 H228 0.929 . S
C241 C233 1.433 . S
C241 N243 1.384 . S
N242 C238 1.427 . S
N242 C239 1.384 . S
N243 C235 1.427 . S
N243 C241 1.384 . S
H244 C250 0.930 . S
H245 C254 0.930 . S
H246 C259 0.929 . S
H247 C257 0.929 . S
H248 C252 0.929 . S
H249 C258 0.929 . S
C250 H244 0.930 . S
C250 C251 1.367 . S
C250 C258 1.378 . S
C251 C250 1.367 . S
C251 C259 1.433 . S
C252 H248 0.929 . S
C252 C254 1.378 . S
C252 C256 1.350 . S
C253 C256 1.463 . S
C253 C258 1.350 . S
C253 N261 1.427 . S
C254 H245 0.930 . S
C254 C252 1.378 . S
C254 C255 1.367 . S
C255 C254 1.367 . S
C255 C257 1.433 . S
C256 C252 1.350 . S
C256 C253 1.463 . S
C256 N260 1.427 . S
C257 H247 0.929 . S
C257 C255 1.433 . S
C257 N260 1.384 . S
C258 H249 0.929 . S
C258 C250 1.378 . S
C258 C253 1.350 . S
C259 H246 0.929 . S
C259 C251 1.433 . S
C259 N261 1.384 . S
N260 C256 1.427 . S
N260 C257 1.384 . S
N261 C253 1.427 . S
N261 C259 1.384 . S
H262 C268 0.930 . S
H263 C272 0.930 . S
H264 C277 0.943 . S
H265 C275 0.929 . S
H266 C270 0.929 . S
H267 C276 0.929 . S
C268 H262 0.930 . S
C268 C269 1.367 . S
C268 C276 1.378 . S
C269 C268 1.367 . S
C269 C277 1.433 . S
C270 H266 0.929 . S
C270 C272 1.378 . S
C270 C274 1.350 1_545 S
C271 C274 1.463 . S
C271 C276 1.350 . S
C271 N279 1.427 . S
C272 H263 0.930 . S
C272 C270 1.378 . S
C272 C273 1.367 1_545 S
C273 C272 1.367 1_565 S
C273 C275 1.433 . S
C274 C270 1.350 1_565 S
C274 C271 1.463 . S
C274 N278 1.427 . S
C275 H265 0.929 . S
C275 C273 1.433 . S
C275 N278 1.384 . S
C276 H267 0.929 . S
C276 C268 1.378 . S
C276 C271 1.350 . S
C277 H264 0.943 . S
C277 C269 1.433 . S
C277 N279 1.384 . S
N278 C274 1.427 . S
N278 C275 1.384 . S
N279 C271 1.427 . S
N279 C277 1.384 . S
H280 C286 0.930 . S
H281 C290 0.930 . S
H282 C295 0.929 . S
H283 C293 0.929 . S
H284 C288 0.929 . S
H285 C294 0.929 . S
C286 H280 0.930 . S
C286 C287 1.367 . S
C286 C294 1.378 . S
C287 C286 1.367 . S
C287 C295 1.433 . S
C288 H284 0.929 . S
C288 C290 1.378 . S
C288 C292 1.350 . S
C289 C292 1.463 . S
C289 C294 1.350 . S
C289 N297 1.427 . S
C290 H281 0.930 . S
C290 C288 1.378 . S
C290 C291 1.367 . S
C291 C290 1.367 . S
C291 C293 1.433 1_556 S
C292 C288 1.350 . S
C292 C289 1.463 . S
C292 N296 1.427 . S
C293 H283 0.929 . S
C293 C291 1.433 1_554 S
C293 N296 1.384 1_554 S
C294 H285 0.929 . S
C294 C286 1.378 . S
C294 C289 1.350 . S
C295 H282 0.929 . S
C295 C287 1.433 . S
C295 N297 1.384 . S
N296 C292 1.427 . S
N296 C293 1.384 1_556 S
N297 C289 1.427 . S
N297 C295 1.384 . S
H298 C304 0.930 . S
H299 C308 0.930 . S
H300 C313 0.929 . S
H301 C311 0.929 . S
H302 C306 0.929 . S
H303 C312 0.929 . S
C304 H298 0.930 . S
C304 C305 1.367 . S
C304 C312 1.378 . S
C305 C304 1.367 . S
C305 C313 1.433 . S
C306 H302 0.929 . S
C306 C308 1.378 . S
C306 C310 1.350 . S
C307 C310 1.463 . S
C307 C312 1.350 . S
C307 N315 1.427 . S
C308 H299 0.930 . S
C308 C306 1.378 . S
C308 C309 1.367 . S
C309 C308 1.367 . S
C309 C311 1.433 . S
C310 C306 1.350 . S
C310 C307 1.463 . S
C310 N314 1.427 . S
C311 H301 0.929 . S
C311 C309 1.433 . S
C311 N314 1.384 . S
C312 H303 0.929 . S
C312 C304 1.378 . S
C312 C307 1.350 . S
C313 H300 0.929 . S
C313 C305 1.433 . S
C313 N315 1.384 . S
N314 C310 1.427 . S
N314 C311 1.384 . S
N315 C307 1.427 . S
N315 C313 1.384 . S
H316 C322 0.930 . S
H317 C326 0.930 . S
H318 C331 0.929 . S
H319 C329 0.955 . S
H320 C324 0.929 . S
H321 C330 0.929 . S
C322 H316 0.930 . S
C322 C323 1.367 . S
C322 C330 1.378 . S
C323 C322 1.367 . S
C323 C331 1.433 . S
C324 H320 0.929 . S
C324 C326 1.378 . S
C324 C328 1.350 . S
C325 C328 1.463 . S
C325 C330 1.350 . S
C325 N333 1.427 . S
C326 H317 0.930 . S
C326 C324 1.378 . S
C326 C327 1.367 . S
C327 C326 1.367 . S
C327 C329 1.433 . S
C328 C324 1.350 . S
C328 C325 1.463 . S
C328 N332 1.427 . S
C329 H319 0.955 . S
C329 C327 1.433 . S
C329 N332 1.384 . S
C330 H321 0.929 . S
C330 C322 1.378 . S
C330 C325 1.350 . S
C331 H318 0.929 . S
C331 C323 1.433 . S
C331 N333 1.384 . S
N332 C328 1.427 . S
N332 C329 1.384 . S
N333 C325 1.427 . S
N333 C331 1.384 . S
H334 C340 0.930 . S
H335 C344 0.930 . S
H336 C349 0.929 . S
H337 C347 0.929 . S
H338 C342 0.941 . S
H339 C348 0.929 . S
C340 H334 0.930 . S
C340 C341 1.367 . S
C340 C348 1.378 . S
C341 C340 1.367 . S
C341 C349 1.433 . S
C342 H338 0.941 . S
C342 C344 1.384 . S
C342 C346 1.332 1_554 S
C343 C346 1.463 . S
C343 C348 1.350 . S
C343 N351 1.427 . S
C344 H335 0.930 . S
C344 C342 1.384 . S
C344 C345 1.367 1_554 S
C345 C344 1.367 1_556 S
C345 C347 1.433 . S
C346 C342 1.332 1_556 S
C346 C343 1.463 . S
C346 N350 1.427 . S
C347 H337 0.929 . S
C347 C345 1.433 . S
C347 N350 1.384 . S
C348 H339 0.929 . S
C348 C340 1.378 . S
C348 C343 1.350 . S
C349 H336 0.929 . S
C349 C341 1.433 . S
C349 N351 1.384 . S
N350 C346 1.427 . S
N350 C347 1.384 . S
N351 C343 1.427 . S
N351 C349 1.384 . S
H352 C358 0.930 . S
H353 C362 0.930 . S
H354 C367 0.929 . S
H355 C365 0.929 . S
H356 C360 0.929 . S
H357 C366 0.929 . S
C358 H352 0.930 . S
C358 C359 1.367 . S
C358 C366 1.378 . S
C359 C358 1.367 . S
C359 C367 1.433 . S
C360 H356 0.929 . S
C360 C362 1.378 . S
C360 C364 1.350 . S
C361 C364 1.463 . S
C361 C366 1.350 . S
C361 N369 1.427 . S
C362 H353 0.930 . S
C362 C360 1.378 . S
C362 C363 1.367 . S
C363 C362 1.367 . S
C363 C365 1.433 . S
C364 C360 1.350 . S
C364 C361 1.463 . S
C364 N368 1.427 . S
C365 H355 0.929 . S
C365 C363 1.433 . S
C365 N368 1.384 . S
C366 H357 0.929 . S
C366 C358 1.378 . S
C366 C361 1.350 . S
C367 H354 0.929 . S
C367 C359 1.433 . S
C367 N369 1.384 . S
N368 C364 1.427 . S
N368 C365 1.384 . S
N369 C361 1.427 . S
N369 C367 1.384 . S
H370 C376 0.930 . S
H371 C380 0.930 . S
H372 C385 0.929 . S
H373 C383 0.929 . S
H374 C378 0.929 . S
H375 C384 0.929 . S
C376 H370 0.930 . S
C376 C377 1.367 . S
C376 C384 1.378 . S
C377 C376 1.367 . S
C377 C385 1.433 . S
C378 H374 0.929 . S
C378 C380 1.378 . S
C378 C382 1.350 . S
C379 C382 1.463 . S
C379 C384 1.350 . S
C379 N387 1.427 . S
C380 H371 0.930 . S
C380 C378 1.378 . S
C380 C381 1.367 . S
C381 C380 1.367 . S
C381 C383 1.433 . S
C382 C378 1.350 . S
C382 C379 1.463 . S
C382 N386 1.427 . S
C383 H373 0.929 . S
C383 C381 1.433 . S
C383 N386 1.384 . S
C384 H375 0.929 . S
C384 C376 1.378 . S
C384 C379 1.350 . S
C385 H372 0.929 . S
C385 C377 1.433 . S
C385 N387 1.384 . S
N386 C382 1.427 . S
N386 C383 1.384 . S
N387 C379 1.427 . S
N387 C385 1.384 . S
H388 C394 0.930 . S
H389 C398 0.930 1_455 S
H390 C403 0.929 . S
H391 C401 0.929 . S
H392 C396 0.929 1_455 S
H393 C402 0.929 . S
C394 H388 0.930 . S
C394 C395 1.367 . S
C394 C402 1.378 . S
C395 C394 1.367 . S
C395 C403 1.433 . S
C396 H392 0.929 1_655 S
C396 C398 1.378 . S
C396 C400 1.350 . S
C397 C400 1.463 . S
C397 C402 1.350 . S
C397 N405 1.427 . S
C398 H389 0.930 1_655 S
C398 C396 1.378 . S
C398 C399 1.367 . S
C399 C398 1.367 . S
C399 C401 1.433 . S
C400 C396 1.350 . S
C400 C397 1.463 . S
C400 N404 1.427 . S
C401 H391 0.929 . S
C401 C399 1.433 . S
C401 N404 1.384 . S
C402 H393 0.929 . S
C402 C394 1.378 . S
C402 C397 1.350 . S
C403 H390 0.929 . S
C403 C395 1.433 . S
C403 N405 1.384 . S
N404 C400 1.427 . S
N404 C401 1.384 . S
N405 C397 1.427 . S
N405 C403 1.384 . S
H406 C412 0.930 . S
H407 C416 0.930 . S
H408 C421 0.929 . S
H409 C419 0.929 . S
H410 C414 0.929 . S
H411 C420 0.929 . S
C412 H406 0.930 . S
C412 C413 1.367 . S
C412 C420 1.378 . S
C413 C412 1.367 . S
C413 C421 1.433 . S
C414 H410 0.929 . S
C414 C416 1.378 . S
C414 C418 1.350 . S
C415 C418 1.463 . S
C415 C420 1.350 . S
C415 N423 1.427 . S
C416 H407 0.930 . S
C416 C414 1.378 . S
C416 C417 1.367 . S
C417 C416 1.367 . S
C417 C419 1.433 . S
C418 C414 1.350 . S
C418 C415 1.463 . S
C418 N422 1.427 . S
C419 H409 0.929 . S
C419 C417 1.433 . S
C419 N422 1.384 . S
C420 H411 0.929 . S
C420 C412 1.378 . S
C420 C415 1.350 . S
C421 H408 0.929 . S
C421 C413 1.433 . S
C421 N423 1.384 . S
N422 C418 1.427 . S
N422 C419 1.384 . S
N423 C415 1.427 . S
N423 C421 1.384 . S
H424 C430 0.930 . S
H425 C434 0.930 . S
H426 C439 0.929 . S
H427 C437 0.929 . S
H428 C432 0.929 . S
H429 C438 0.929 . S
C430 H424 0.930 . S
C430 C431 1.367 . S
C430 C438 1.378 . S
C431 C430 1.367 . S
C431 C439 1.433 . S
C432 H428 0.929 . S
C432 C434 1.378 . S
C432 C436 1.350 . S
C433 C436 1.463 . S
C433 C438 1.350 . S
C433 N441 1.427 . S
C434 H425 0.930 . S
C434 C432 1.378 . S
C434 C435 1.367 . S
C435 C434 1.367 . S
C435 C437 1.433 . S
C436 C432 1.350 . S
C436 C433 1.463 . S
C436 N440 1.427 . S
C437 H427 0.929 . S
C437 C435 1.433 . S
C437 N440 1.384 . S
C438 H429 0.929 . S
C438 C430 1.378 . S
C438 C433 1.350 . S
C439 H426 0.929 . S
C439 C431 1.433 . S
C439 N441 1.384 . S
N440 C436 1.427 . S
N440 C437 1.384 . S
N441 C433 1.427 . S
N441 C439 1.384 . S
H442 C448 0.930 . S
H443 C452 0.930 1_655 S
H444 C457 0.929 . S
H445 C455 0.929 . S
H446 C450 0.929 . S
H447 C456 0.929 . S
C448 H442 0.930 . S
C448 C449 1.367 . S
C448 C456 1.378 . S
C449 C448 1.367 . S
C449 C457 1.433 . S
C450 H446 0.929 . S
C450 C452 1.378 . S
C450 C454 1.350 . S
C451 C454 1.463 . S
C451 C456 1.350 . S
C451 N459 1.427 . S
C452 H443 0.930 1_455 S
C452 C450 1.378 . S
C452 C453 1.367 . S
C453 C452 1.367 . S
C453 C455 1.433 . S
C454 C450 1.350 . S
C454 C451 1.463 . S
C454 N458 1.427 . S
C455 H445 0.929 . S
C455 C453 1.433 . S
C455 N458 1.384 . S
C456 H447 0.929 . S
C456 C448 1.378 . S
C456 C451 1.350 . S
C457 H444 0.929 . S
C457 C449 1.433 . S
C457 N459 1.384 . S
N458 C454 1.427 . S
N458 C455 1.384 . S
N459 C451 1.427 . S
N459 C457 1.384 . S
H460 C466 0.930 . S
H461 C470 0.930 . S
H462 C475 0.929 . S
H463 C473 0.929 . S
H464 C468 0.929 1_545 S
H465 C474 0.929 1_554 S
C466 H460 0.930 . S
C466 C467 1.367 . S
C466 C474 1.378 . S
C467 C466 1.367 . S
C467 C475 1.433 . S
C468 H464 0.929 1_565 S
C468 C470 1.378 1_565 S
C468 C472 1.350 . S
C469 C472 1.463 . S
C469 C474 1.350 . S
C469 N477 1.427 . S
C470 H461 0.930 . S
C470 C468 1.378 1_545 S
C470 C471 1.371 . S
C471 C470 1.371 . S
C471 C473 1.419 1_546 S
C472 C468 1.350 . S
C472 C469 1.463 . S
C472 N476 1.427 1_556 S
C473 H463 0.929 . S
C473 C471 1.419 1_564 S
C473 N476 1.384 . S
C474 H465 0.929 1_556 S
C474 C466 1.378 . S
C474 C469 1.350 . S
C475 H462 0.929 . S
C475 C467 1.433 . S
C475 N477 1.384 . S
N476 C472 1.427 1_554 S
N476 C473 1.384 . S
N477 C469 1.427 . S
N477 C475 1.384 . S
H478 C484 0.930 . S
H479 C488 0.930 . S
H480 C493 0.929 . S
H481 C491 0.929 . S
H482 C486 0.929 . S
H483 C492 0.929 . S
C484 H478 0.930 . S
C484 C485 1.367 . S
C484 C492 1.378 . S
C485 C484 1.367 . S
C485 C493 1.433 . S
C486 H482 0.929 . S
C486 C488 1.378 . S
C486 C490 1.350 . S
C487 C490 1.463 . S
C487 C492 1.350 . S
C487 N495 1.427 . S
C488 H479 0.930 . S
C488 C486 1.378 . S
C488 C489 1.367 . S
C489 C488 1.367 . S
C489 C491 1.433 . S
C490 C486 1.350 . S
C490 C487 1.463 . S
C490 N494 1.427 . S
C491 H481 0.929 . S
C491 C489 1.433 . S
C491 N494 1.384 . S
C492 H483 0.929 . S
C492 C484 1.378 . S
C492 C487 1.350 . S
C493 H480 0.929 . S
C493 C485 1.433 . S
C493 N495 1.384 . S
N494 C490 1.427 . S
N494 C491 1.384 . S
N495 C487 1.427 . S
N495 C493 1.384 . S
H496 C502 0.930 . S
H497 C506 0.930 . S
H498 C511 0.929 . S
H499 C509 0.929 . S
H500 C504 0.929 . S
H501 C510 0.929 . S
C502 H496 0.930 . S
C502 C503 1.367 . S
C502 C510 1.378 . S
C503 C502 1.367 . S
C503 C511 1.433 . S
C504 H500 0.929 . S
C504 C506 1.378 . S
C504 C508 1.350 . S
C505 C508 1.463 . S
C505 C510 1.350 . S
C505 N513 1.427 . S
C506 H497 0.930 . S
C506 C504 1.378 . S
C506 C507 1.367 . S
C507 C506 1.367 . S
C507 C509 1.433 . S
C508 C504 1.350 . S
C508 C505 1.463 . S
C508 N512 1.427 . S
C509 H499 0.929 . S
C509 C507 1.433 . S
C509 N512 1.384 . S
C510 H501 0.929 . S
C510 C502 1.378 . S
C510 C505 1.350 . S
C511 H498 0.929 . S
C511 C503 1.433 . S
C511 N513 1.384 . S
N512 C508 1.427 . S
N512 C509 1.384 . S
N513 C505 1.427 . S
N513 C511 1.384 . S
H514 C520 0.930 . S
H515 C524 0.930 . S
H516 C529 0.929 . S
H517 C527 0.929 . S
H518 C522 0.929 . S
H519 C528 0.929 . S
C520 H514 0.930 . S
C520 C521 1.367 . S
C520 C528 1.378 . S
C521 C520 1.367 . S
C521 C529 1.433 . S
C522 H518 0.929 . S
C522 C524 1.378 . S
C522 C526 1.350 . S
C523 C526 1.463 . S
C523 C528 1.350 . S
C523 N531 1.427 . S
C524 H515 0.930 . S
C524 C522 1.378 . S
C524 C525 1.367 . S
C525 C524 1.367 . S
C525 C527 1.433 . S
C526 C522 1.350 . S
C526 C523 1.463 . S
C526 N530 1.427 . S
C527 H517 0.929 . S
C527 C525 1.433 . S
C527 N530 1.384 . S
C528 H519 0.929 . S
C528 C520 1.378 . S
C528 C523 1.350 . S
C529 H516 0.929 . S
C529 C521 1.433 . S
C529 N531 1.384 . S
N530 C526 1.427 . S
N530 C527 1.384 . S
N531 C523 1.427 . S
N531 C529 1.384 . S
H532 C538 0.930 . S
H533 C542 0.930 . S
H534 C547 0.929 . S
H535 C545 0.903 1_554 S
H536 C540 0.929 . S
H537 C546 0.929 . S
C538 H532 0.930 . S
C538 C539 1.367 . S
C538 C546 1.378 . S
C539 C538 1.367 . S
C539 C547 1.433 . S
C540 H536 0.929 . S
C540 C542 1.378 . S
C540 C544 1.350 . S
C541 C544 1.463 . S
C541 C546 1.350 . S
C541 N549 1.427 . S
C542 H533 0.930 . S
C542 C540 1.378 . S
C542 C543 1.367 . S
C543 C542 1.367 . S
C543 C545 1.451 . S
C544 C540 1.350 . S
C544 C541 1.463 . S
C544 N548 1.427 . S
C545 H535 0.903 1_556 S
C545 C543 1.451 . S
C545 N548 1.393 . S
C546 H537 0.929 . S
C546 C538 1.378 . S
C546 C541 1.350 . S
C547 H534 0.929 . S
C547 C539 1.433 . S
C547 N549 1.384 . S
N548 C544 1.427 . S
N548 C545 1.393 . S
N549 C541 1.427 . S
N549 C547 1.384 . S
H550 C556 0.930 . S
H551 C560 0.930 . S
H552 C565 0.929 . S
H553 C563 0.929 . S
H554 C558 0.929 . S
H555 C564 0.929 . S
C556 H550 0.930 . S
C556 C557 1.367 . S
C556 C564 1.378 . S
C557 C556 1.367 . S
C557 C565 1.433 . S
C558 H554 0.929 . S
C558 C560 1.378 . S
C558 C562 1.350 . S
C559 C562 1.463 . S
C559 C564 1.350 . S
C559 N567 1.427 . S
C560 H551 0.930 . S
C560 C558 1.378 . S
C560 C561 1.367 . S
C561 C560 1.367 . S
C561 C563 1.433 . S
C562 C558 1.350 . S
C562 C559 1.463 . S
C562 N566 1.427 . S
C563 H553 0.929 . S
C563 C561 1.433 . S
C563 N566 1.384 . S
C564 H555 0.929 . S
C564 C556 1.378 . S
C564 C559 1.350 . S
C565 H552 0.929 . S
C565 C557 1.433 . S
C565 N567 1.384 . S
N566 C562 1.427 . S
N566 C563 1.384 . S
N567 C559 1.427 . S
N567 C565 1.384 . S
H568 C574 0.930 . S
H569 C578 0.930 . S
H570 C583 0.929 . S
H571 C581 0.929 . S
H572 C576 0.929 . S
H573 C582 0.929 . S
C574 H568 0.930 . S
C574 C575 1.367 . S
C574 C582 1.378 . S
C575 C574 1.367 . S
C575 C583 1.433 . S
C576 H572 0.929 . S
C576 C578 1.378 . S
C576 C580 1.350 . S
C577 C580 1.463 . S
C577 C582 1.350 . S
C577 N585 1.427 . S
C578 H569 0.930 . S
C578 C576 1.378 . S
C578 C579 1.367 . S
C579 C578 1.367 . S
C579 C581 1.433 . S
C580 C576 1.350 . S
C580 C577 1.463 . S
C580 N584 1.427 . S
C581 H571 0.929 . S
C581 C579 1.433 . S
C581 N584 1.384 . S
C582 H573 0.929 . S
C582 C574 1.378 . S
C582 C577 1.350 . S
C583 H570 0.929 . S
C583 C575 1.433 . S
C583 N585 1.384 . S
N584 C580 1.427 . S
N584 C581 1.384 . S
N585 C577 1.427 . S
N585 C583 1.384 . S
H586 C592 0.930 . S
H587 C596 0.930 . S
H588 C601 0.929 . S
H589 C599 0.929 . S
H590 C594 0.929 . S
H591 C600 0.929 . S
C592 H586 0.930 . S
C592 C593 1.367 . S
C592 C600 1.378 . S
C593 C592 1.367 . S
C593 C601 1.433 . S
C594 H590 0.929 . S
C594 C596 1.378 . S
C594 C598 1.350 . S
C595 C598 1.463 . S
C595 C600 1.350 . S
C595 N603 1.427 . S
C596 H587 0.930 . S
C596 C594 1.378 . S
C596 C597 1.367 . S
C597 C596 1.367 . S
C597 C599 1.433 . S
C598 C594 1.350 . S
C598 C595 1.463 . S
C598 N602 1.427 . S
C599 H589 0.929 . S
C599 C597 1.433 . S
C599 N602 1.384 . S
C600 H591 0.929 . S
C600 C592 1.378 . S
C600 C595 1.350 . S
C601 H588 0.929 . S
C601 C593 1.433 . S
C601 N603 1.384 . S
N602 C598 1.427 . S
N602 C599 1.384 . S
N603 C595 1.427 . S
N603 C601 1.384 . S
C179 C4 1.760 . S
C183 C104 1.710 . S
C197 C16 1.757 . S
C201 C126 1.709 1_565 S
C219 C145 0.946 . S
C215 C32 1.083 . S
C233 C43 1.598 . S
C237 C166 1.306 . S
C255 C123 2.103 . S
C251 C5 2.189 . S
C273 C101 1.389 1_565 S
C269 C21 1.451 . S
C291 C168 1.163 . S
C287 C27 1.209 . S
C309 C147 1.259 . S
C305 C37 1.355 . S
C323 C10 1.707 . S
C327 C165 1.651 . S
C345 C124 1.369 1_556 S
C341 C26 1.660 . S
C359 C38 1.428 . S
C363 C106 1.277 . S
C377 C15 1.627 . S
C381 C144 1.576 . S
C399 C102 1.798 1_565 S
C395 C48 1.897 . S
C413 C59 1.439 . S
C417 C122 1.403 . S
C431 C76 1.372 . S
C435 C148 1.146 . S
C449 C87 1.350 . S
C453 C169 1.098 . S
C467 C54 1.546 . S
C471 C125 1.513 1_556 S
C489 C105 2.068 . S
C485 C60 2.097 . S
C507 C164 1.094 . S
C503 C71 1.166 . S
C525 C143 1.341 . S
C521 C82 1.364 . S
C539 C49 1.797 . S
C543 C167 1.725 . S
C561 C127 1.035 . S
C557 C70 1.224 . S
C579 C103 1.351 . S
C575 C81 1.533 . S
C593 C65 1.478 . S
C597 C146 1.437 . S
