# Generated by pormake.
# Topology zzz, (3,6)-cn, num edge types: 1
# Building blocks:
#     Node 0, Type 0, BuildingBlock: VETTIZ_charged_linker_0, # of connection points: 3
#     Node 1, Type 0, BuildingBlock: VETTIZ_charged_linker_0, # of connection points: 3
#     Node 2, Type 0, BuildingBlock: VETTIZ_charged_linker_0, # of connection points: 3
#     Node 3, Type 0, BuildingBlock: VETTIZ_charged_linker_0, # of connection points: 3
#     Node 4, Type 0, BuildingBlock: VETTIZ_charged_linker_0, # of connection points: 3
#     Node 5, Type 0, BuildingBlock: VETTIZ_charged_linker_0, # of connection points: 3
#     Node 6, Type 0, BuildingBlock: VETTIZ_charged_linker_0, # of connection points: 3
#     Node 7, Type 0, BuildingBlock: VETTIZ_charged_linker_0, # of connection points: 3
#     Node 8, Type 1, BuildingBlock: HISSIN_clean_sbu_0, # of connection points: 6
#     Node 9, Type 1, BuildingBlock: HISSIN_clean_sbu_0, # of connection points: 6
#     Node 10, Type 1, BuildingBlock: HISSIN_clean_sbu_0, # of connection points: 6
#     Node 11, Type 1, BuildingBlock: HISSIN_clean_sbu_0, # of connection points: 6
#     Edge 12, Type (0, 1), BuildingBlock: XUDNAN_clean_linker_2, # of connection points: 2
#     Edge 13, Type (0, 1), BuildingBlock: XUDNAN_clean_linker_2, # of connection points: 2
#     Edge 14, Type (0, 1), BuildingBlock: XUDNAN_clean_linker_2, # of connection points: 2
#     Edge 15, Type (0, 1), BuildingBlock: XUDNAN_clean_linker_2, # of connection points: 2
#     Edge 16, Type (0, 1), BuildingBlock: XUDNAN_clean_linker_2, # of connection points: 2
#     Edge 17, Type (0, 1), BuildingBlock: XUDNAN_clean_linker_2, # of connection points: 2
#     Edge 18, Type (0, 1), BuildingBlock: XUDNAN_clean_linker_2, # of connection points: 2
#     Edge 19, Type (0, 1), BuildingBlock: XUDNAN_clean_linker_2, # of connection points: 2
#     Edge 20, Type (0, 1), BuildingBlock: XUDNAN_clean_linker_2, # of connection points: 2
#     Edge 21, Type (0, 1), BuildingBlock: XUDNAN_clean_linker_2, # of connection points: 2
#     Edge 22, Type (0, 1), BuildingBlock: XUDNAN_clean_linker_2, # of connection points: 2
#     Edge 23, Type (0, 1), BuildingBlock: XUDNAN_clean_linker_2, # of connection points: 2
#     Edge 24, Type (0, 1), BuildingBlock: XUDNAN_clean_linker_2, # of connection points: 2
#     Edge 25, Type (0, 1), BuildingBlock: XUDNAN_clean_linker_2, # of connection points: 2
#     Edge 26, Type (0, 1), BuildingBlock: XUDNAN_clean_linker_2, # of connection points: 2
#     Edge 27, Type (0, 1), BuildingBlock: XUDNAN_clean_linker_2, # of connection points: 2
#     Edge 28, Type (0, 1), BuildingBlock: XUDNAN_clean_linker_2, # of connection points: 2
#     Edge 29, Type (0, 1), BuildingBlock: XUDNAN_clean_linker_2, # of connection points: 2
#     Edge 30, Type (0, 1), BuildingBlock: XUDNAN_clean_linker_2, # of connection points: 2
#     Edge 31, Type (0, 1), BuildingBlock: XUDNAN_clean_linker_2, # of connection points: 2
#     Edge 32, Type (0, 1), BuildingBlock: XUDNAN_clean_linker_2, # of connection points: 2
#     Edge 33, Type (0, 1), BuildingBlock: XUDNAN_clean_linker_2, # of connection points: 2
#     Edge 34, Type (0, 1), BuildingBlock: XUDNAN_clean_linker_2, # of connection points: 2
#     Edge 35, Type (0, 1), BuildingBlock: XUDNAN_clean_linker_2, # of connection points: 2
# Relax obj value: 0.401
# Max RMSD: 0.226
# Mean RMSD: 0.194
data_MOF--net-zzz--node1-HISSIN_clean_sbu_0--node2-VETTIZ_charged_linker_0--edge1-XUDNAN_clean_linker_2
_symmetry_space_group_name_H-M    P1
_symmetry_Int_Tables_number       1
_symmetry_cell_setting            triclinic
loop_
_symmetry_equiv_pos_as_xyz
'x, y, z'
_cell_length_a     55.808635
_cell_length_b     55.998921
_cell_length_c     21.534383
_cell_angle_alpha  89.784087
_cell_angle_beta   91.664274
_cell_angle_gamma 91.572595
loop_
_atom_site_label
_atom_site_type_symbol
_atom_site_fract_x
_atom_site_fract_y
_atom_site_fract_z
_atom_type_partial_charge
C0 C 0.80581 0.55679 0.32185 0.0
C1 C 0.82751 0.56851 0.34353 0.0
C2 C 0.83326 0.5912 0.31842 0.0
C3 C 0.79956 0.58824 0.24565 0.0
C4 C 0.79186 0.56728 0.27318 0.0
C5 C 0.76795 0.5587 0.24362 0.0
H6 H 0.68815 0.57197 0.99493 0.0
C7 C 0.78391 0.59332 0.19133 0.0
C8 C 0.76449 0.57665 0.19011 0.0
H9 H 0.67891 0.52243 0.14686 0.0
H10 H 0.71646 0.53763 0.19597 0.0
H11 H 0.70585 0.61741 0.07217 0.0
H12 H 0.73717 0.56136 0.97337 0.0
H13 H 0.76084 0.58252 0.97605 0.0
H14 H 0.73282 0.58958 0.93686 0.0
H15 H 0.70573 0.61399 0.98926 0.0
H16 H 0.72933 0.63071 0.02999 0.0
C17 C 0.74845 0.56083 0.29233 0.0
C18 C 0.77028 0.533 0.21972 0.0
C19 C 0.82159 0.63742 1.01366 0.0
C20 C 0.8157 0.6337 0.95031 0.0
C21 C 0.79117 0.63158 0.93291 0.0
C22 C 0.77402 0.62719 0.97796 0.0
C23 C 0.78173 0.62364 0.03991 0.0
C24 C 0.80487 0.63027 0.05785 0.0
C25 C 0.81079 0.62297 0.12382 0.0
C26 C 0.788 0.60879 0.14005 0.0
C27 C 0.77122 0.60929 0.0906 0.0
C28 C 0.81448 0.64594 0.16351 0.0
C29 C 0.83313 0.60697 0.12318 0.0
C30 C 0.69403 0.56412 0.03864 0.0
C31 C 0.68051 0.54575 0.06618 0.0
C32 C 0.68893 0.53663 0.12415 0.0
C33 C 0.71069 0.54548 0.1527 0.0
C34 C 0.72409 0.56382 0.12343 0.0
C35 C 0.71533 0.57267 0.06733 0.0
C36 C 0.73152 0.59122 0.03983 0.0
C37 C 0.7508 0.59366 0.09036 0.0
C38 C 0.74705 0.57734 0.13955 0.0
C39 C 0.71746 0.6146 0.03183 0.0
C40 C 0.74106 0.58088 0.97836 0.0
H41 H 0.82471 0.61836 0.25401 0.0
H42 H 0.80003 0.53988 0.34161 0.0
H43 H 0.78586 0.53192 0.18893 0.0
H44 H 0.75421 0.52689 0.19251 0.0
H45 H 0.77299 0.52037 0.25904 0.0
H46 H 0.74967 0.57869 0.31482 0.0
H47 H 0.75061 0.54705 0.32919 0.0
H48 H 0.73019 0.559 0.27167 0.0
H49 H 0.83997 0.64133 0.02845 0.0
H50 H 0.78533 0.63012 0.88472 0.0
H51 H 0.75587 0.62425 0.96177 0.0
H52 H 0.80934 0.66234 0.13763 0.0
H53 H 0.83354 0.64862 0.17887 0.0
H54 H 0.80316 0.64545 0.20509 0.0
H55 H 0.83073 0.59288 0.08707 0.0
H56 H 0.83684 0.59758 0.16708 0.0
H57 H 0.84958 0.6177 0.11296 0.0
H58 H 0.84945 0.601 0.33266 0.0
C59 C 0.81914 0.60124 0.27125 0.0
C60 C 0.90504 0.81159 0.99343 0.0
C61 C 0.89742 0.83326 0.01834 0.0
C62 C 0.88832 0.83309 0.07862 0.0
C63 C 0.90764 0.79579 0.09728 0.0
C64 C 0.91025 0.7928 0.0345 0.0
C65 C 0.92381 0.77058 0.02133 0.0
H66 H 0.01245 0.70018 0.074 0.0
C67 C 0.92467 0.78033 0.13022 0.0
C68 C 0.93159 0.76324 0.08764 0.0
H69 H 0.94595 0.68202 0.97277 0.0
H70 H 0.92633 0.7132 0.028 0.0
H71 H 1.00791 0.76417 0.07721 0.0
H72 H 0.98002 0.71292 0.21141 0.0
H73 H 0.99916 0.73637 0.24201 0.0
H74 H 0.01144 0.71373 0.19437 0.0
H75 H 0.02761 0.74323 0.11462 0.0
H76 H 0.01746 0.76855 0.15638 0.0
C77 C 0.94573 0.77656 0.98119 0.0
C78 C 0.90639 0.75264 0.98808 0.0
C79 C 0.97006 0.82456 0.30302 0.0
C80 C 0.993 0.82367 0.33134 0.0
C81 C 1.00759 0.8045 0.31334 0.0
C82 C 0.9995 0.78736 0.268 0.0
C83 C 0.97654 0.78917 0.2396 0.0
C84 C 0.96244 0.80771 0.25799 0.0
C85 C 0.9389 0.80828 0.22326 0.0
C86 C 0.94074 0.78688 0.1804 0.0
C87 C 0.96289 0.77529 0.18949 0.0
C88 C 0.93742 0.83264 0.1881 0.0
C89 C 0.91875 0.80414 0.27029 0.0
C90 C 0.99399 0.70359 0.06093 0.0
C91 C 0.98129 0.68869 0.01616 0.0
C92 C 0.95671 0.69301 1.00467 0.0
C93 C 0.94546 0.71187 0.0332 0.0
C94 C 0.95895 0.72775 0.07055 0.0
C95 C 0.98205 0.72286 0.08898 0.0
C96 C 0.99018 0.73979 0.1422 0.0
C97 C 0.96798 0.75534 0.14985 0.0
C98 C 0.95091 0.74853 0.1037 0.0
C99 C 0.01207 0.7548 0.1217 0.0
C100 C 0.99559 0.72494 0.20092 0.0
H101 H 0.88857 0.81531 0.16651 0.0
H102 H 0.9111 0.81111 0.94617 0.0
H103 H 0.89427 0.76191 0.95452 0.0
H104 H 0.89503 0.74288 0.0219 0.0
H105 H 0.91609 0.7398 0.95966 0.0
H106 H 0.95735 0.79072 1.0035 0.0
H107 H 0.94002 0.78277 0.93416 0.0
H108 H 0.95666 0.76055 0.97475 0.0
H109 H 0.95819 0.83887 0.3131 0.0
H110 H 0.02529 0.80258 0.33423 0.0
H111 H 0.01135 0.77339 0.25613 0.0
H112 H 0.95093 0.84622 0.20493 0.0
H113 H 0.91993 0.84112 0.19408 0.0
H114 H 0.9408 0.83062 0.13792 0.0
H115 H 0.9237 0.79016 0.30485 0.0
H116 H 0.90181 0.7976 0.2477 0.0
H117 H 0.91534 0.82081 0.29605 0.0
H118 H 0.88136 0.84924 0.09801 0.0
C119 C 0.89341 0.81404 0.11877 0.0
C120 C 0.82997 0.99502 0.07014 0.0
C121 C 0.8453 0.98203 0.03055 0.0
C122 C 0.84206 0.95701 0.02781 0.0
C123 C 0.80682 0.95863 0.08978 0.0
C124 C 0.81066 0.98263 0.10023 0.0
C125 C 0.79231 0.9912 0.14725 0.0
H126 H 0.69663 0.95276 0.33197 0.0
C127 C 0.78615 0.94996 0.12385 0.0
C128 C 0.77791 0.96794 0.1625 0.0
H129 H 0.71959 0.02613 0.30946 0.0
H130 H 0.75282 0.01346 0.24428 0.0
H131 H 0.68909 0.94054 0.22549 0.0
H132 H 0.74912 0.92562 0.33192 0.0
H133 H 0.74225 0.90079 0.28344 0.0
H134 H 0.71905 0.91316 0.32905 0.0
H135 H 0.69687 0.91042 0.22684 0.0
H136 H 0.70487 0.92975 0.16241 0.0
C137 C 0.77623 0.00969 0.11519 0.0
C138 C 0.80551 1.00144 0.20524 0.0
C139 C 0.72766 0.89102 0.02889 0.0
C140 C 0.70698 0.8805 0.05482 0.0
C141 C 0.7074 0.87522 0.11896 0.0
C142 C 0.72539 0.8854 0.15796 0.0
C143 C 0.74221 0.9012 0.13196 0.0
C144 C 0.74528 0.9013 0.06885 0.0
C145 C 0.76642 0.91692 0.05155 0.0
C146 C 0.77297 0.92842 0.11472 0.0
C147 C 0.75645 0.92125 0.15903 0.0
C148 C 0.7588 0.93587 1.00302 0.0
C149 C 0.78567 0.90067 0.02586 0.0
C150 C 0.7091 0.96621 0.31459 0.0
C151 C 0.70554 0.99031 0.32719 0.0
C152 C 0.72198 1.00727 0.30168 0.0
C153 C 0.74099 0.99998 0.26314 0.0
C154 C 0.74312 0.97558 0.24799 0.0
C155 C 0.72684 0.95943 0.27368 0.0
C156 C 0.72825 0.93491 0.24729 0.0
C157 C 0.74881 0.93823 0.20297 0.0
C158 C 0.75826 0.96208 0.20326 0.0
C159 C 0.70372 0.92844 0.21372 0.0
C160 C 0.7349 0.91756 0.30068 0.0
H161 H 0.82333 0.92616 0.06182 0.0
H162 H 0.83281 0.01405 0.07674 0.0
H163 H 0.8177 0.988 0.22596 0.0
H164 H 0.79272 1.00642 0.24102 0.0
H165 H 0.81641 0.0176 0.19309 0.0
H166 H 0.76777 1.00215 0.0719 0.0
H167 H 0.78692 0.02595 0.1027 0.0
H168 H 0.76167 0.01509 0.14538 0.0
H169 H 0.72837 0.89436 0.97945 0.0
H170 H 0.69221 0.86613 0.13971 0.0
H171 H 0.72444 0.88259 0.20719 0.0
H172 H 0.74379 0.94646 0.0202 0.0
H173 H 0.75301 0.9274 0.95832 0.0
H174 H 0.77399 0.94837 0.99302 0.0
H175 H 0.77737 0.88621 0.99647 0.0
H176 H 0.79612 0.8921 0.06418 0.0
H177 H 0.79786 0.91064 0.99467 0.0
H178 H 0.85444 0.9463 1.00277 0.0
C179 C 0.82357 0.94533 0.0591 0.0
C180 C 0.5131 0.7097 0.28461 0.0
C181 C 0.5029 0.68745 0.30446 0.0
C182 C 0.48215 0.6785 0.27311 0.0
C183 C 0.48122 0.71319 0.20559 0.0
C184 C 0.50204 0.72219 0.23406 0.0
C185 C 0.51031 0.74531 0.20207 0.0
H186 H 0.4791 0.83311 0.98931 0.0
C187 C 0.47296 0.73032 0.15774 0.0
C188 C 0.48961 0.74966 0.155 0.0
H189 H 0.54873 0.82716 0.08039 0.0
H190 H 0.53395 0.79231 0.138 0.0
H191 H 0.44931 0.79898 0.94074 0.0
H192 H 0.44605 0.81694 0.10394 0.0
H193 H 0.42392 0.79694 0.07352 0.0
H194 H 0.43544 0.8208 0.02518 0.0
H195 H 0.45 0.76747 0.9578 0.0
H196 H 0.47689 0.78345 0.94794 0.0
C197 C 0.53386 0.74041 0.1693 0.0
C198 C 0.51309 0.76554 0.25009 0.0
C199 C 0.39876 0.70872 0.02666 0.0
C200 C 0.38615 0.72076 0.97878 0.0
C201 C 0.39084 0.74548 0.97099 0.0
C202 C 0.40949 0.75715 1.00498 0.0
C203 C 0.42355 0.74407 0.04763 0.0
C204 C 0.41712 0.72071 0.06044 0.0
C205 C 0.43319 0.7099 0.1095 0.0
C206 C 0.45166 0.73004 0.1201 0.0
C207 C 0.44615 0.74976 0.08297 0.0
C208 C 0.44462 0.68749 0.08169 0.0
C209 C 0.41794 0.70498 0.16769 0.0
C210 C 0.49167 0.82437 0.02046 0.0
C211 C 0.51541 0.83303 0.02821 0.0
C212 C 0.53033 0.82109 0.07234 0.0
C213 C 0.52187 0.8006 0.1053 0.0
C214 C 0.49837 0.79151 0.09347 0.0
C215 C 0.48392 0.80367 0.05136 0.0
C216 C 0.4604 0.79111 0.03827 0.0
C217 C 0.46281 0.76917 0.07874 0.0
C218 C 0.48481 0.76927 0.11309 0.0
C219 C 0.45879 0.78498 0.96774 0.0
C220 C 0.44026 0.80723 0.06083 0.0
H221 H 0.4556 0.68298 0.20349 0.0
H222 H 0.52926 0.71694 0.30727 0.0
H223 H 0.49623 0.76729 0.27577 0.0
H224 H 0.51709 0.78295 0.22779 0.0
H225 H 0.52781 0.76185 0.28431 0.0
H226 H 0.53206 0.72365 0.14178 0.0
H227 H 0.54886 0.73839 0.20383 0.0
H228 H 0.53881 0.75469 0.13636 0.0
H229 H 0.39597 0.68981 0.03491 0.0
H230 H 0.38096 0.75558 0.93633 0.0
H231 H 0.41299 0.77564 0.99446 0.0
H232 H 0.44891 0.69053 0.03209 0.0
H233 H 0.43223 0.67166 0.08386 0.0
H234 H 0.46189 0.68299 0.10459 0.0
H235 H 0.42775 0.7098 0.21153 0.0
H236 H 0.4118 0.68597 0.17003 0.0
H237 H 0.40165 0.716 0.16775 0.0
H238 H 0.47385 0.66169 0.28721 0.0
C239 C 0.47134 0.69113 0.22456 0.0
C240 C 0.33234 0.48097 0.21854 0.0
C241 C 0.34396 0.47225 0.27332 0.0
C242 C 0.33375 0.45237 0.30369 0.0
C243 C 0.30072 0.45043 0.22824 0.0
C244 C 0.31048 0.4698 0.19698 0.0
C245 C 0.2945 0.4765 0.14127 0.0
H246 H 0.18965 0.45044 0.97357 0.0
C247 C 0.27829 0.44246 0.19564 0.0
C248 C 0.27441 0.45725 0.14332 0.0
H249 H 0.23745 0.51083 0.942 0.0
H250 H 0.26494 0.49647 0.02384 0.0
H251 H 0.23119 0.41107 0.99674 0.0
H252 H 0.18506 0.45411 0.09681 0.0
H253 H 0.19386 0.43452 0.15613 0.0
H254 H 0.17795 0.42312 0.08777 0.0
H255 H 0.19955 0.40635 1.00609 0.0
H256 H 0.22128 0.39322 0.05889 0.0
C257 C 0.30893 0.47487 0.08162 0.0
C258 C 0.28499 0.50167 0.15244 0.0
C259 C 0.22019 0.3873 0.305 0.0
C260 C 0.19569 0.38297 0.2899 0.0
C261 C 0.18871 0.38174 0.22645 0.0
C262 C 0.20417 0.39039 0.18109 0.0
C263 C 0.22638 0.40078 0.19974 0.0
C264 C 0.23501 0.39729 0.25961 0.0
C265 C 0.25892 0.40993 0.27095 0.0
C266 C 0.26148 0.42395 0.21048 0.0
C267 C 0.24213 0.41874 0.16968 0.0
C268 C 0.27826 0.39065 0.27896 0.0
C269 C 0.25692 0.42675 0.32768 0.0
C270 C 0.20587 0.4609 0.98421 0.0
C271 C 0.21089 0.48211 0.95196 0.0
C272 C 0.23283 0.49451 0.96654 0.0
C273 C 0.24866 0.4863 1.01446 0.0
C274 C 0.2425 0.46551 0.04842 0.0
C275 C 0.2214 0.45325 0.03189 0.0
C276 C 0.21642 0.43215 0.07246 0.0
C277 C 0.23784 0.43353 0.11717 0.0
C278 C 0.25353 0.45295 0.10359 0.0
C279 C 0.21693 0.40941 0.03169 0.0
C280 C 0.19215 0.43594 0.10488 0.0
H281 H 0.30597 0.42632 0.30697 0.0
H282 H 0.33987 0.49617 0.19396 0.0
H283 H 0.27017 0.50615 0.11992 0.0
H284 H 0.29955 0.51545 0.14806 0.0
H285 H 0.27781 0.50294 0.19993 0.0
H286 H 0.31781 0.45737 0.07946 0.0
H287 H 0.32305 0.48923 0.08036 0.0
H288 H 0.29741 0.4763 0.03931 0.0
H289 H 0.22649 0.38692 0.35301 0.0
H290 H 0.17037 0.37741 0.2121 0.0
H291 H 0.19725 0.39084 0.13424 0.0
H292 H 0.27187 0.37295 0.2608 0.0
H293 H 0.28351 0.38809 0.32863 0.0
H294 H 0.29452 0.39511 0.25237 0.0
H295 H 0.2397 0.4363 0.3251 0.0
H296 H 0.271 0.44091 0.33045 0.0
H297 H 0.25757 0.41651 0.37194 0.0
H298 H 0.34242 0.44512 0.34505 0.0
C299 C 0.31256 0.44133 0.2812 0.0
C300 C 0.14568 0.2225 0.32724 0.0
C301 C 0.14987 0.19845 0.31282 0.0
C302 C 0.15154 0.19229 0.24967 0.0
C303 C 0.13232 0.22894 0.22097 0.0
C304 C 0.1359 0.23726 0.28071 0.0
C305 C 0.12399 0.26078 0.28975 0.0
H306 H 0.03076 0.3309 0.22699 0.0
C307 C 0.11368 0.2434 0.19008 0.0
C308 C 0.10896 0.26244 0.22926 0.0
H309 H 0.09226 0.34337 0.35128 0.0
H310 H 0.11112 0.30958 0.30928 0.0
H311 H 0.06602 0.31351 0.0994 0.0
H312 H 0.03003 0.26747 0.23306 0.0
H313 H 0.02274 0.26168 0.15325 0.0
H314 H 0.01332 0.28884 0.18797 0.0
H315 H 0.03428 0.31567 0.11032 0.0
H316 H 0.04577 0.29122 0.06754 0.0
C317 C 0.14403 0.28057 0.29477 0.0
C318 C 0.10814 0.25897 0.34767 0.0
C319 C 0.06874 0.20201 1.01297 0.0
C320 C 0.04636 0.20405 0.9825 0.0
C321 C 0.03251 0.224 0.99836 0.0
C322 C 0.04069 0.24074 0.04478 0.0
C323 C 0.06296 0.23762 0.07625 0.0
C324 C 0.07631 0.21829 0.0593 0.0
C325 C 0.09873 0.21591 0.09783 0.0
C326 C 0.0974 0.23727 0.14046 0.0
C327 C 0.07651 0.25052 0.12862 0.0
C328 C 0.12033 0.21863 0.05439 0.0
C329 C 0.09713 0.19151 0.1332 0.0
C330 C 0.04816 0.32601 0.24573 0.0
C331 C 0.05943 0.33953 0.29533 0.0
C332 C 0.08248 0.33297 0.31606 0.0
C333 C 0.0936 0.31327 0.29146 0.0
C334 C 0.08166 0.29905 0.24636 0.0
C335 C 0.05977 0.30572 0.22166 0.0
C336 C 0.0517 0.28872 0.16884 0.0
C337 C 0.07251 0.27119 0.16691 0.0
C338 C 0.08936 0.27733 0.21484 0.0
C339 C 0.04922 0.30302 0.10797 0.0
C340 C 0.02808 0.27595 0.18647 0.0
H341 H 0.14307 0.20157 0.15641 0.0
H342 H 0.14599 0.22818 0.37524 0.0
H343 H 0.0963 0.24266 0.34515 0.0
H344 H 0.09636 0.27425 0.35259 0.0
H345 H 0.11935 0.2581 0.39102 0.0
H346 H 0.14152 0.29465 0.25886 0.0
H347 H 0.16223 0.27363 0.28756 0.0
H348 H 0.1447 0.28906 0.34137 0.0
H349 H 0.0804 0.18759 1.0018 0.0
H350 H 0.01516 0.22644 0.97583 0.0
H351 H 0.02939 0.25534 0.05522 0.0
H352 H 0.11691 0.23234 0.01788 0.0
H353 H 0.12376 0.20153 0.03065 0.0
H354 H 0.13693 0.22494 0.07923 0.0
H355 H 0.09825 0.19379 0.18434 0.0
H356 H 0.11122 0.17922 0.11894 0.0
H357 H 0.07976 0.18168 0.12469 0.0
H358 H 0.15598 0.1744 0.23606 0.0
C359 C 0.14306 0.20774 0.20337 0.0
C360 C 0.31889 0.03452 0.02637 0.0
C361 C 0.33887 0.04668 0.9982 0.0
C362 C 0.34193 0.07132 1.00935 0.0
C363 C 0.31039 0.07043 0.08422 0.0
C364 C 0.30458 0.04706 0.06937 0.0
C365 C 0.28173 0.0392 0.10352 0.0
H366 H 0.20354 0.07002 0.33771 0.0
C367 C 0.29498 0.0786 0.1339 0.0
C368 C 0.27698 0.061 0.14506 0.0
H369 H 0.19457 1.00753 0.22219 0.0
H370 H 0.23089 0.01937 0.16594 0.0
H371 H 0.25335 0.06637 0.36683 0.0
H372 H 0.21579 0.10643 0.23063 0.0
H373 H 0.23896 0.12564 0.25943 0.0
H374 H 0.21784 0.11251 0.31243 0.0
H375 H 0.24767 0.09701 0.38046 0.0
H376 H 0.27553 0.08775 0.34862 0.0
C377 C 0.28658 0.01673 0.14261 0.0
C378 C 0.26131 0.03498 0.05497 0.0
C379 C 0.33199 0.13855 0.28352 0.0
C380 C 0.32547 0.14336 0.34469 0.0
C381 C 0.30095 0.14248 0.35844 0.0
C382 C 0.28423 0.13177 0.31671 0.0
C383 C 0.29237 0.12158 0.26178 0.0
C384 C 0.31539 0.12675 0.24353 0.0
C385 C 0.32102 0.11455 0.18377 0.0
C386 C 0.29858 0.09845 0.17428 0.0
C387 C 0.28218 0.10247 0.22074 0.0
C388 C 0.34404 0.09995 0.19439 0.0
C389 C 0.32347 0.13414 0.13286 0.0
C390 C 0.2092 0.05855 0.30081 0.0
C391 C 0.19595 0.03768 0.28565 0.0
C392 C 0.20423 0.02382 0.23558 0.0
C393 C 0.22524 0.0307 0.20266 0.0
C394 C 0.2381 0.05195 0.2188 0.0
C395 C 0.2296 0.06527 0.26737 0.0
C396 C 0.24457 0.08718 0.28051 0.0
C397 C 0.26298 0.08588 0.23039 0.0
C398 C 0.25993 0.06503 0.19358 0.0
C399 C 0.25583 0.08467 0.34734 0.0
C400 C 0.22855 0.10919 0.2708 0.0
H401 H 0.33051 0.10193 0.05535 0.0
H402 H 0.31488 0.01591 0.01612 0.0
H403 H 0.25929 0.05098 0.0247 0.0
H404 H 0.24393 0.0315 0.07689 0.0
H405 H 0.26512 0.0195 0.025 0.0
H406 H 0.30204 0.02005 0.17548 0.0
H407 H 0.29082 1.00149 0.1123 0.0
H408 H 0.27084 0.01148 0.17014 0.0
H409 H 0.35057 0.14007 0.27074 0.0
H410 H 0.29528 0.14696 0.40457 0.0
H411 H 0.26613 0.12992 0.33151 0.0
H412 H 0.36009 0.11191 0.20116 0.0
H413 H 0.34794 0.08825 0.15528 0.0
H414 H 0.34241 0.08832 0.23614 0.0
H415 H 0.32123 0.1525 0.15102 0.0
H416 H 0.30959 0.13172 0.09521 0.0
H417 H 0.3415 0.13426 0.11226 0.0
H418 H 0.3556 0.0817 0.98577 0.0
C419 C 0.32754 0.08316 0.05041 0.0
C420 C 0.52734 0.31418 0.04973 0.0
C421 C 0.53792 0.33573 0.02617 0.0
C422 C 0.55928 0.34452 0.05521 0.0
C423 C 0.55995 0.31106 0.12688 0.0
C424 C 0.53885 0.30199 0.10008 0.0
C425 C 0.53108 0.27881 0.13248 0.0
H426 H 0.55977 0.19547 0.35965 0.0
C427 C 0.56807 0.29474 0.17684 0.0
C428 C 0.55159 0.27529 0.18065 0.0
H429 H 0.49475 0.19489 0.24592 0.0
H430 H 0.50903 0.23073 0.19176 0.0
H431 H 0.59515 0.20782 0.25804 0.0
H432 H 0.55922 0.25137 0.38796 0.0
H433 H 0.58935 0.26108 0.3888 0.0
H434 H 0.58207 0.23076 0.40981 0.0
H435 H 0.60588 0.21104 0.33693 0.0
H436 H 0.61559 0.23128 0.27649 0.0
C437 C 0.52953 0.25847 0.08449 0.0
C438 C 0.50706 0.28289 0.16378 0.0
C439 C 0.63908 0.32068 0.31487 0.0
C440 C 0.65128 0.30982 0.36545 0.0
C441 C 0.64705 0.28514 0.37558 0.0
C442 C 0.62911 0.27249 0.3414 0.0
C443 C 0.61535 0.28448 0.29593 0.0
C444 C 0.62156 0.30766 0.28066 0.0
C445 C 0.60645 0.31697 0.22748 0.0
C446 C 0.58861 0.29624 0.21727 0.0
C447 C 0.59362 0.27754 0.25837 0.0
C448 C 0.623 0.32081 0.17124 0.0
C449 C 0.59401 0.33978 0.2495 0.0
C450 C 0.54817 0.20307 0.32402 0.0
C451 C 0.52586 0.19226 0.3085 0.0
C452 C 0.51206 0.2027 0.25955 0.0
C453 C 0.52027 0.22364 0.2283 0.0
C454 C 0.54253 0.23445 0.24598 0.0
C455 C 0.55591 0.22383 0.29322 0.0
C456 C 0.57871 0.23734 0.3087 0.0
C457 C 0.57715 0.25799 0.26347 0.0
C458 C 0.55599 0.25663 0.2257 0.0
C459 C 0.60003 0.22111 0.29489 0.0
C460 C 0.57757 0.24554 0.37735 0.0
H461 H 0.5862 0.34063 0.12414 0.0
H462 H 0.51078 0.30694 0.02917 0.0
H463 H 0.50813 0.29959 0.19165 0.0
H464 H 0.50221 0.26833 0.196 0.0
H465 H 0.49232 0.2846 0.12836 0.0
H466 H 0.54639 0.25791 0.05832 0.0
H467 H 0.51444 0.26115 0.05061 0.0
H468 H 0.52697 0.24081 0.10658 0.0
H469 H 0.6416 0.33943 0.30419 0.0
H470 H 0.65678 0.27575 0.41189 0.0
H471 H 0.62593 0.25413 0.35373 0.0
H472 H 0.63978 0.31059 0.17624 0.0
H473 H 0.6284 0.33992 0.16579 0.0
H474 H 0.61448 0.31426 0.12715 0.0
H475 H 0.58801 0.33756 0.29807 0.0
H476 H 0.57762 0.34385 0.22204 0.0
H477 H 0.60644 0.3556 0.2483 0.0
H478 H 0.56752 0.36126 0.04052 0.0
C479 C 0.57022 0.33243 0.10457 0.0
Eu480 Eu 0.99971 0.02209 0.60821 0.0
Eu481 Eu 0.03944 1.00409 0.70724 0.0
C482 C 0.02505 0.05972 0.71244 0.0
C483 C 0.98831 0.06099 0.48076 0.0
C484 C 0.99399 0.08302 0.50954 0.0
C485 C 0.02028 0.06885 0.40829 0.0
C486 C 0.01377 0.09675 0.4912 0.0
C487 C 1.00057 0.05496 0.42708 0.0
C488 C 0.02796 0.08913 0.44252 0.0
C489 C 0.97643 0.0418 0.51726 0.0
O490 O 1.00374 1.00297 0.75822 0.0
O491 O 0.97448 0.01146 0.68497 0.0
C492 C 0.98096 1.00597 0.74234 0.0
O493 O 0.99654 0.98167 0.59907 0.0
O494 O 0.06639 1.00519 0.78347 0.0
O495 O 0.05258 0.97127 0.74804 0.0
O496 O 0.03537 0.97661 0.62915 0.0
C497 C 0.01574 0.96862 0.59994 0.0
O498 O 0.03539 0.02255 0.55814 0.0
O499 O 0.06478 0.01846 0.63371 0.0
O500 O 0.03749 0.04249 0.73787 0.0
O501 O 0.98585 0.02086 0.51227 0.0
O502 O 0.97244 0.04684 0.57516 0.0
O503 O 0.01139 0.05594 0.66211 0.0
C504 C 0.0544 0.97497 0.85483 0.0
C505 C 0.0552 0.95076 0.87095 0.0
C506 C 0.02123 0.97957 0.92416 0.0
C507 C 0.03787 0.94062 0.90913 0.0
C508 C 0.03832 0.98962 0.88496 0.0
C509 C 0.01967 0.95468 0.93287 0.0
C510 C 0.06363 0.98231 0.79419 0.0
C511 C 0.05831 0.02219 0.57516 0.0
H512 H 0.98485 0.08847 0.55065 0.0
H513 H 0.03026 0.06293 0.36907 0.0
H514 H 0.01895 0.11229 0.5187 0.0
H515 H 0.9965 0.03823 0.4034 0.0
H516 H 0.06729 0.93909 0.84788 0.0
H517 H 1.00806 0.99107 0.94344 0.0
H518 H 0.03743 0.92139 0.91431 0.0
H519 H 0.03725 0.00842 0.87336 0.0
Eu520 Eu 0.53499 0.0264 0.70695 0.0
Eu521 Eu 0.50399 0.9923 0.61174 0.0
C522 C 0.52961 0.9692 0.73368 0.0
C523 C 0.57995 0.03351 0.83117 0.0
C524 C 0.57237 0.02204 0.88579 0.0
C525 C 0.61435 1.00784 0.83079 0.0
C526 C 0.58481 1.00262 0.91009 0.0
C527 C 0.60201 0.02728 0.80669 0.0
C528 C 0.60504 0.99439 0.8802 0.0
C529 C 0.56248 0.04671 0.79186 0.0
O530 O 0.4757 0.01153 0.66447 0.0
O531 O 0.49784 0.02272 0.7506 0.0
C532 C 0.4768 0.01837 0.72281 0.0
O533 O 0.51967 0.05427 0.64098 0.0
O534 O 0.47425 0.96694 0.59205 0.0
O535 O 0.49609 0.97966 0.51726 0.0
O536 O 0.50657 0.02835 0.56409 0.0
C537 C 0.51147 0.0502 0.58388 0.0
O538 O 0.56053 0.01958 0.62742 0.0
O539 O 0.54236 0.98615 0.58419 0.0
O540 O 0.51162 0.96754 0.69309 0.0
O541 O 0.56697 0.04796 0.73285 0.0
O542 O 0.53998 0.04117 0.80043 0.0
O543 O 0.54351 0.98853 0.73654 0.0
C544 C 0.45438 0.98321 0.50373 0.0
C545 C 0.43491 0.98885 0.54061 0.0
C546 C 0.44317 0.01502 0.4324 0.0
C547 C 0.42106 0.00861 0.52626 0.0
C548 C 0.45715 0.99535 0.44702 0.0
C549 C 0.42607 0.02279 0.47402 0.0
C550 C 0.47515 0.9709 0.53238 0.0
C551 C 0.56068 1.00153 0.58822 0.0
H552 H 0.55561 0.02657 0.90637 0.0
H553 H 0.63047 1.00248 0.80835 0.0
H554 H 0.57734 0.9928 0.94875 0.0
H555 H 0.60869 0.03602 0.76544 0.0
H556 H 0.43189 0.9796 0.58406 0.0
H557 H 0.44684 0.02504 0.39046 0.0
H558 H 0.40784 0.01386 0.55904 0.0
H559 H 0.47173 0.99122 0.41703 0.0
Eu560 Eu 0.49024 0.52051 0.70728 0.0
Eu561 Eu 0.53439 0.50166 0.62573 0.0
C562 C 0.54414 0.51938 0.76722 0.0
C563 C 0.43536 0.55307 0.76236 0.0
C564 C 0.43999 0.57534 0.73455 0.0
C565 C 0.39494 0.56515 0.78342 0.0
C566 C 0.42253 0.59271 0.73333 0.0
C567 C 0.41253 0.54784 0.78515 0.0
C568 C 0.39998 0.58807 0.75932 0.0
C569 C 0.45432 0.53551 0.7701 0.0
O570 O 0.52884 0.47259 0.69863 0.0
O571 O 0.49028 0.48045 0.72371 0.0
C572 C 0.50887 0.46648 0.72639 0.0
O573 O 0.47385 0.51674 0.61051 0.0
O574 O 0.57043 0.50763 0.59021 0.0
O575 O 0.54989 0.47531 0.56623 0.0
O576 O 0.50088 0.492 0.5673 0.0
C577 C 0.48003 0.50253 0.5657 0.0
O578 O 0.50588 0.55406 0.66138 0.0
O579 O 0.52447 0.53673 0.58017 0.0
O580 O 0.55222 0.51937 0.71047 0.0
O581 O 0.45277 0.51705 0.73339 0.0
O582 O 0.47628 0.54396 0.77716 0.0
O583 O 0.5211 0.51643 0.77702 0.0
C584 C 0.59202 0.47229 0.57647 0.0
C585 C 0.59041 0.45061 0.60913 0.0
C586 C 0.63355 0.46442 0.55481 0.0
C587 C 0.60981 0.43543 0.61194 0.0
C588 C 0.61396 0.47948 0.55129 0.0
C589 C 0.63139 0.44172 0.58281 0.0
C590 C 0.57064 0.48662 0.56434 0.0
C591 C 0.51573 0.55562 0.60651 0.0
H592 H 0.45742 0.57965 0.71589 0.0
H593 H 0.37768 0.56085 0.80299 0.0
H594 H 0.42729 0.61021 0.71521 0.0
H595 H 0.40855 0.5306 0.80601 0.0
H596 H 0.57376 0.44479 0.62983 0.0
H597 H 0.65 0.4701 0.53301 0.0
H598 H 0.60718 0.41807 0.63333 0.0
H599 H 0.61566 0.49632 0.52664 0.0
Eu600 Eu 0.03131 0.53751 0.58715 0.0
Eu601 Eu 1.00813 0.5017 0.68568 0.0
C602 C 0.06526 0.50997 0.68951 0.0
C603 C 0.07178 0.54552 0.46403 0.0
C604 C 0.09307 0.53881 0.49519 0.0
C605 C 0.07673 0.51321 0.39056 0.0
C606 C 0.10487 0.51846 0.4773 0.0
C607 C 0.06469 0.53346 0.40903 0.0
C608 C 0.09613 0.50468 0.42662 0.0
C609 C 0.05377 0.55866 0.49861 0.0
O610 O 1.00156 0.53947 0.72295 0.0
O611 O 0.03062 0.56074 0.67231 0.0
C612 C 0.01547 0.55883 0.7177 0.0
O613 O 0.9917 0.54628 0.58212 0.0
O614 O 0.996 0.49307 0.77903 0.0
O615 O 0.98625 0.46947 0.70299 0.0
O616 O 0.98093 0.50838 0.60808 0.0
C617 C 0.97545 0.5289 0.58285 0.0
O618 O 0.0239 0.5022 0.53796 0.0
O619 O 0.02641 0.4764 0.61947 0.0
O620 O 0.04639 0.5045 0.72234 0.0
O621 O 0.03178 0.55041 0.49124 0.0
O622 O 0.05913 0.56291 0.55706 0.0
O623 O 0.06284 0.51827 0.63235 0.0
C624 C 0.95556 0.48192 0.76723 0.0
C625 C 0.9422 0.49122 0.71692 0.0
C626 C 0.92611 0.49688 0.8369 0.0
C627 C 0.92247 0.5052 0.72683 0.0
C628 C 0.94665 0.48374 0.82704 0.0
C629 C 0.91484 0.50944 0.78746 0.0
C630 C 0.98093 0.47655 0.7584 0.0
C631 C 0.02673 0.4804 0.55913 0.0
H632 H 0.09929 0.54773 0.53744 0.0
H633 H 0.07004 0.50357 0.34986 0.0
H634 H 0.11975 0.51264 0.50638 0.0
H635 H 0.04849 0.53829 0.38359 0.0
H636 H 0.9482 0.48959 0.66993 0.0
H637 H 0.92013 0.49824 0.88401 0.0
H638 H 0.91469 0.51407 0.68675 0.0
H639 H 0.9565 0.4765 0.86659 0.0
H640 H 0.18761 0.04194 0.4127 0.0
H641 H 0.15221 0.02044 0.239 0.0
H642 H 0.11405 0.01477 0.29363 0.0
H643 H 0.15479 0.99998 0.51168 0.0
H644 H 0.15346 0.0206 0.57549 0.0
H645 H 0.17803 0.02267 0.52308 0.0
H646 H 0.16853 0.06688 0.50097 0.0
H647 H 0.14379 0.06493 0.55287 0.0
H648 H 0.13888 0.07449 0.47366 0.0
H649 H 0.07871 0.01393 0.36643 0.0
H650 H 0.05026 0.01375 0.45149 0.0
H651 H 0.10807 0.03378 0.58179 0.0
C652 C 0.17188 0.03593 0.38595 0.0
C653 C 0.17325 0.03167 0.32073 0.0
C654 C 0.15204 0.02359 0.28855 0.0
C655 C 0.13011 0.02052 0.31934 0.0
C656 C 0.12938 0.02529 0.38303 0.0
C657 C 0.14981 0.03249 0.41623 0.0
C658 C 0.14417 0.03604 0.48468 0.0
C659 C 0.15846 0.01879 0.52619 0.0
C660 C 0.14914 0.06213 0.50418 0.0
C661 C 0.11734 0.02979 0.48495 0.0
C662 C 0.10921 0.02393 0.42547 0.0
C663 C 0.08506 0.01826 0.41311 0.0
C664 C 0.06891 0.01831 0.46222 0.0
C665 C 0.0766 0.02361 0.52432 0.0
C666 C 0.10138 0.02945 0.5354 0.0
H667 H 0.53347 0.18078 0.4332 0.0
H668 H 0.50054 0.1527 0.26248 0.0
H669 H 0.49106 0.11476 0.31658 0.0
H670 H 0.5619 0.12756 0.47965 0.0
H671 H 0.55736 0.13141 0.5615 0.0
H672 H 0.55952 0.15713 0.51132 0.0
H673 H 0.51835 0.17104 0.54756 0.0
H674 H 0.51607 0.14537 0.59799 0.0
H675 H 0.49259 0.15098 0.54099 0.0
H676 H 0.48827 0.07854 0.38683 0.0
H677 H 0.49072 0.04748 0.46749 0.0
H678 H 0.52627 0.09829 0.59373 0.0
C679 C 0.52421 0.16674 0.40686 0.0
C680 C 0.51786 0.17 0.34288 0.0
C681 C 0.50539 0.15105 0.31131 0.0
C682 C 0.50006 0.12928 0.34171 0.0
C683 C 0.50717 0.12656 0.40406 0.0
C684 C 0.51884 0.14485 0.43644 0.0
C685 C 0.52533 0.13702 0.50255 0.0
C686 C 0.55265 0.13836 0.51443 0.0
C687 C 0.51231 0.152 0.55009 0.0
C688 C 0.5159 0.11127 0.50212 0.0
C689 C 0.50539 0.10571 0.44481 0.0
C690 C 0.49621 0.08284 0.43199 0.0
C691 C 0.49776 0.06522 0.47849 0.0
C692 C 0.50856 0.07023 0.53778 0.0
C693 C 0.51759 0.09379 0.54955 0.0
H694 H 0.35173 0.49185 0.38851 0.0
H695 H 0.38828 0.47346 0.22146 0.0
H696 H 0.42751 0.48068 0.27652 0.0
H697 H 0.39616 0.53925 0.4429 0.0
H698 H 0.39244 0.53116 0.52321 0.0
H699 H 0.36774 0.52724 0.46807 0.0
H700 H 0.36393 0.48265 0.49945 0.0
H701 H 0.38887 0.48629 0.55373 0.0
H702 H 0.38956 0.46394 0.49383 0.0
H703 H 0.46277 0.48437 0.35586 0.0
H704 H 0.49064 0.48936 0.44682 0.0
H705 H 0.43096 0.50731 0.56074 0.0
C706 C 0.36802 0.49023 0.36291 0.0
C707 C 0.36696 0.48252 0.30024 0.0
C708 C 0.38866 0.47992 0.26884 0.0
C709 C 0.41102 0.48374 0.30009 0.0
C710 C 0.41143 0.49049 0.36262 0.0
C711 C 0.39043 0.49428 0.39319 0.0
C712 C 0.39559 0.50067 0.46088 0.0
C713 C 0.38751 0.5261 0.47456 0.0
C714 C 0.38379 0.48229 0.50452 0.0
C715 C 0.42273 0.49928 0.46435 0.0
C716 C 0.43157 0.49327 0.40731 0.0
C717 C 0.45599 0.48949 0.40033 0.0
C718 C 0.47171 0.4922 0.45247 0.0
C719 C 0.46312 0.49889 0.51107 0.0
C720 C 0.43823 0.5025 0.51657 0.0
H721 H 0.05976 0.35132 0.42029 0.0
H722 H 0.03578 0.3771 0.23942 0.0
H723 H 0.02409 0.41501 0.28786 0.0
H724 H 0.01286 0.37927 0.51004 0.0
H725 H 0.0329 0.38587 0.57525 0.0
H726 H 0.03785 0.36035 0.52698 0.0
H727 H 0.08096 0.37615 0.50762 0.0
H728 H 0.0761 0.40181 0.55537 0.0
H729 H 0.08556 0.40578 0.4767 0.0
H730 H 0.01805 0.45155 0.35533 0.0
H731 H 0.01535 0.48247 0.43527 0.0
H732 H 0.04255 0.43328 0.57494 0.0
C733 C 0.05179 0.36482 0.39073 0.0
C734 C 0.04872 0.36099 0.32547 0.0
C735 C 0.03808 0.37923 0.28921 0.0
C736 C 0.03157 0.40097 0.31645 0.0
C737 C 0.03552 0.40431 0.38043 0.0
C738 C 0.04511 0.38657 0.41726 0.0
C739 C 0.04777 0.39474 0.48479 0.0
C740 C 0.0319 0.37912 0.52674 0.0
C741 C 0.07416 0.39461 0.50741 0.0
C742 C 0.03864 0.42011 0.48024 0.0
C743 C 0.03166 0.42518 0.41949 0.0
C744 C 0.02323 0.44757 0.40299 0.0
C745 C 0.02185 0.46515 0.44917 0.0
C746 C 0.02856 0.46056 0.51223 0.0
C747 C 0.03702 0.4375 0.52766 0.0
H748 H 0.854 0.977 0.90567 0.0
H749 H 0.88417 0.00959 0.07347 0.0
H750 H 0.92164 0.01949 0.01818 0.0
H751 H 0.90606 0.95039 0.8542 0.0
H752 H 0.90092 0.9564 0.77276 0.0
H753 H 0.87593 0.95345 0.82357 0.0
H754 H 0.86136 0.99506 0.79017 0.0
H755 H 0.88603 0.99805 0.73827 0.0
H756 H 0.8817 0.02057 0.79615 0.0
H757 H 0.95783 0.02207 0.94583 0.0
H758 H 0.98713 0.02139 0.86196 0.0
H759 H 0.93297 0.98931 0.73784 0.0
C760 C 0.86827 0.98681 0.93041 0.0
C761 C 0.86581 0.9928 0.99421 0.0
C762 C 0.8852 1.00524 0.02468 0.0
C763 C 0.90672 0.01069 0.99358 0.0
C764 C 0.90871 1.00393 0.93132 0.0
C765 C 0.88973 0.9927 0.8997 0.0
C766 C 0.89638 0.98729 0.83295 0.0
C767 C 0.89473 0.96029 0.82016 0.0
C768 C 0.88042 1.00107 0.78664 0.0
C769 C 0.9223 0.99668 0.83202 0.0
C770 C 0.92909 1.0061 0.88943 0.0
C771 C 0.95245 0.015 0.9007 0.0
C772 C 0.96911 0.01438 0.85261 0.0
C773 C 0.96261 1.00531 0.79279 0.0
C774 C 0.93865 0.99649 0.78265 0.0
H775 H 0.50023 0.84565 0.90867 0.0
H776 H 0.55005 0.86846 0.05699 0.0
H777 H 0.56149 0.90388 0.99427 0.0
H778 H 0.53394 0.86715 0.77801 0.0
H779 H 0.50762 0.8768 0.73549 0.0
H780 H 0.50541 0.85208 0.78901 0.0
H781 H 0.47236 0.87356 0.84761 0.0
H782 H 0.4744 0.89829 0.7942 0.0
H783 H 0.47827 0.90338 0.87653 0.0
H784 H 0.56633 0.93826 0.91476 0.0
H785 H 0.56203 0.96863 0.83192 0.0
H786 H 0.50624 0.92487 0.74129 0.0
C787 C 0.5134 0.85805 0.92901 0.0
C788 C 0.52395 0.85395 0.989 0.0
C789 C 0.54173 0.87067 1.0114 0.0
C790 C 0.5483 0.89103 0.97603 0.0
C791 C 0.53695 0.89468 0.9181 0.0
C792 C 0.51977 0.87862 0.89506 0.0
C793 C 0.50902 0.88717 0.83349 0.0
C794 C 0.51432 0.86976 0.7809 0.0
C795 C 0.48191 0.89082 0.83827 0.0
C796 C 0.52256 0.91081 0.8255 0.0
C797 C 0.53891 0.91466 0.87423 0.0
C798 C 0.55348 0.93533 0.87677 0.0
C799 C 0.55091 0.95256 0.8293 0.0
C800 C 0.5337 0.94945 0.77993 0.0
C801 C 0.51958 0.928 0.77808 0.0
H802 H 0.67264 0.53764 0.94091 0.0
H803 H 0.63646 0.53497 0.11645 0.0
H804 H 0.59783 0.52661 0.05979 0.0
H805 H 0.62823 0.56855 0.85702 0.0
H806 H 0.63177 0.5528 0.78516 0.0
H807 H 0.6567 0.55607 0.83969 0.0
H808 H 0.66122 0.51017 0.84271 0.0
H809 H 0.63643 0.50676 0.78767 0.0
H810 H 0.63574 0.49122 0.86107 0.0
H811 H 0.56235 0.52178 0.98168 0.0
H812 H 0.53404 0.5187 0.89156 0.0
H813 H 0.59363 0.52538 0.76697 0.0
C814 C 0.65665 0.53509 0.96774 0.0
C815 C 0.65772 0.53708 0.03354 0.0
C816 C 0.6363 0.5333 0.06636 0.0
C817 C 0.6142 0.52872 0.03438 0.0
C818 C 0.61375 0.52777 0.96942 0.0
C819 C 0.63453 0.53059 0.93661 0.0
C820 C 0.62927 0.52959 0.86699 0.0
C821 C 0.63695 0.55316 0.83538 0.0
C822 C 0.64138 0.50816 0.83791 0.0
C823 C 0.60219 0.5262 0.86539 0.0
C824 C 0.59355 0.52509 0.92492 0.0
C825 C 0.56903 0.52249 0.93501 0.0
C826 C 0.55302 0.52083 0.88328 0.0
C827 C 0.56142 0.52183 0.82166 0.0
C828 C 0.58645 0.52456 0.81313 0.0
H829 H 0.96126 0.64489 0.97651 0.0
H830 H 0.02712 0.68777 0.97001 0.0
H831 H 0.04338 0.65865 0.89698 0.0
H832 H 0.98667 0.58594 0.96236 0.0
H833 H 0.96201 0.57513 0.91332 0.0
H834 H 0.95741 0.59827 0.96944 0.0
H835 H 0.94097 0.62622 0.87923 0.0
H836 H 0.94516 0.60181 0.82646 0.0
H837 H 0.95894 0.63071 0.8121 0.0
H838 H 0.05094 0.62628 0.81589 0.0
H839 H 0.05047 0.59291 0.74153 0.0
H840 H 0.97936 0.57093 0.79931 0.0
C841 C 0.97917 0.64833 0.96013 0.0
C842 C 0.99275 0.66909 0.97956 0.0
C843 C 0.0163 0.67212 0.95712 0.0
C844 C 0.02563 0.65569 0.91492 0.0
C845 C 0.01133 0.63605 0.89517 0.0
C846 C 0.98865 0.63225 0.91756 0.0
C847 C 0.97642 0.61039 0.88711 0.0
C848 C 0.97025 0.59129 0.93595 0.0
C849 C 0.95403 0.61767 0.84901 0.0
C850 C 0.99584 0.6021 0.84463 0.0
C851 C 0.01575 0.61736 0.8495 0.0
C852 C 0.0355 0.6142 0.81246 0.0
C853 C 0.03498 0.59512 0.76988 0.0
C854 C 0.01494 0.57896 0.76412 0.0
C855 C 0.99512 0.58261 0.80265 0.0
H856 H 0.11428 0.20046 0.39553 0.0
H857 H 0.16708 0.15252 0.32626 0.0
H858 H 0.14331 0.11815 0.36604 0.0
H859 H 0.09373 0.16253 0.53298 0.0
H860 H 0.06341 0.17172 0.51781 0.0
H861 H 0.08823 0.19201 0.50282 0.0
H862 H 0.07186 0.19705 0.38999 0.0
H863 H 0.04766 0.17611 0.40313 0.0
H864 H 0.06789 0.1711 0.34104 0.0
H865 H 0.10908 0.08924 0.3909 0.0
H866 H 0.07008 0.06886 0.40821 0.0
H867 H 0.03932 0.137 0.45122 0.0
C868 C 0.12187 0.18297 0.39188 0.0
C869 C 0.14264 0.17934 0.3574 0.0
C870 C 0.15119 0.15583 0.35228 0.0
C871 C 0.13776 0.13617 0.3747 0.0
C872 C 0.11605 0.14041 0.4028 0.0
C873 C 0.1085 0.16335 0.41273 0.0
C874 C 0.08295 0.16348 0.43421 0.0
C875 C 0.08204 0.17299 0.50094 0.0
C876 C 0.06667 0.17776 0.3894 0.0
C877 C 0.07677 0.13712 0.43164 0.0
C878 C 0.09615 0.12397 0.41487 0.0
C879 C 0.09399 0.09938 0.40532 0.0
C880 C 0.07159 0.08802 0.41415 0.0
C881 C 0.05148 0.1013 0.43105 0.0
C882 C 0.05433 0.12617 0.4397 0.0
H883 H 0.32076 0.11193 0.43859 0.0
H884 H 0.37171 0.16177 0.35735 0.0
H885 H 0.40497 0.13844 0.40164 0.0
H886 H 0.36119 0.09101 0.57863 0.0
H887 H 0.34904 0.06111 0.56782 0.0
H888 H 0.33036 0.08641 0.55321 0.0
H889 H 0.32046 0.06994 0.44316 0.0
H890 H 0.33991 0.04535 0.45541 0.0
H891 H 0.3445 0.0653 0.3907 0.0
H892 H 0.43093 0.10397 0.42325 0.0
H893 H 0.44813 0.06415 0.43482 0.0
H894 H 0.37985 0.03552 0.49624 0.0
C895 C 0.33887 0.11903 0.43405 0.0
C896 C 0.34366 0.13868 0.39449 0.0
C897 C 0.36767 0.14686 0.38787 0.0
C898 C 0.38666 0.13358 0.41256 0.0
C899 C 0.38125 0.11248 0.44461 0.0
C900 C 0.35787 0.10563 0.45713 0.0
C901 C 0.3563 0.08017 0.48119 0.0
C902 C 0.34879 0.07965 0.54928 0.0
C903 C 0.33931 0.06429 0.44013 0.0
C904 C 0.38207 0.07314 0.47565 0.0
C905 C 0.3963 0.09215 0.45592 0.0
C906 C 0.4201 0.0892 0.44056 0.0
C907 C 0.42963 0.06639 0.44631 0.0
C908 C 0.41539 0.04668 0.46663 0.0
C909 C 0.39135 0.05029 0.48187 0.0
H910 H 0.6751 0.35319 0.34801 0.0
H911 H 0.65714 0.30165 0.49162 0.0
H912 H 0.66633 0.33169 0.57074 0.0
H913 H 0.71542 0.39714 0.45019 0.0
H914 H 0.70129 0.422 0.41204 0.0
H915 H 0.70649 0.39509 0.36922 0.0
H916 H 0.66138 0.39213 0.3373 0.0
H917 H 0.65617 0.41877 0.37955 0.0
H918 H 0.63935 0.39173 0.39697 0.0
H919 H 0.66341 0.36813 0.63109 0.0
H920 H 0.64538 0.40561 0.66244 0.0
H921 H 0.65747 0.43503 0.47914 0.0
C922 C 0.67365 0.34797 0.39614 0.0
C923 C 0.6648 0.32497 0.41258 0.0
C924 C 0.66407 0.31887 0.47654 0.0
C925 C 0.66926 0.33603 0.52249 0.0
C926 C 0.67492 0.35937 0.50425 0.0
C927 C 0.67731 0.36534 0.44223 0.0
C928 C 0.67667 0.39217 0.43277 0.0
C929 C 0.70145 0.40219 0.41503 0.0
C930 C 0.65723 0.39906 0.3839 0.0
C931 C 0.67057 0.4 0.49757 0.0
C932 C 0.67129 0.38107 0.53897 0.0
C933 C 0.66323 0.38316 0.59937 0.0
C934 C 0.65272 0.40449 0.61659 0.0
C935 C 0.64955 0.42318 0.57287 0.0
C936 C 0.65999 0.42134 0.51409 0.0
H937 H 0.20055 0.41635 0.381 0.0
H938 H 0.1485 0.36593 0.29861 0.0
H939 H 0.11584 0.38964 0.33959 0.0
H940 H 0.16335 0.43565 0.51861 0.0
H941 H 0.17516 0.46571 0.50955 0.0
H942 H 0.19357 0.44066 0.49313 0.0
H943 H 0.20078 0.45835 0.38389 0.0
H944 H 0.18162 0.48277 0.39809 0.0
H945 H 0.17545 0.46359 0.33217 0.0
H946 H 0.08963 0.42441 0.36475 0.0
H947 H 0.07243 0.46372 0.38417 0.0
H948 H 0.14296 0.49161 0.44114 0.0
C949 C 0.18246 0.40919 0.3745 0.0
C950 C 0.17727 0.38934 0.3355 0.0
C951 C 0.15305 0.38126 0.32754 0.0
C952 C 0.13434 0.39465 0.35071 0.0
C953 C 0.14021 0.41574 0.38275 0.0
C954 C 0.16379 0.42253 0.39622 0.0
C955 C 0.16588 0.44763 0.42182 0.0
C956 C 0.17502 0.44739 0.48983 0.0
C957 C 0.18185 0.46401 0.38155 0.0
C958 C 0.14 0.45456 0.41695 0.0
C959 C 0.1253 0.43587 0.39577 0.0
C960 C 0.10096 0.43894 0.38275 0.0
C961 C 0.09142 0.4615 0.3929 0.0
C962 C 0.1063 0.48091 0.41439 0.0
C963 C 0.13089 0.47715 0.42633 0.0
H964 H 0.9447 0.84022 0.02749 0.0
H965 H 0.87949 0.876 0.9731 0.0
H966 H 0.9035 0.91352 0.95475 0.0
H967 H 0.97127 0.88998 0.11251 0.0
H968 H 1.00129 0.88306 0.09123 0.0
H969 H 0.9789 0.85948 0.098 0.0
H970 H 0.98613 0.8459 0.98535 0.0
H971 H 1.00889 0.86902 0.97843 0.0
H972 H 0.98413 0.86732 0.92283 0.0
H973 H 0.9362 0.94588 0.93636 0.0
H974 H 0.97316 0.96913 0.91637 0.0
H975 H 0.0154 0.91276 0.99938 0.0
C976 C 0.93546 0.85588 1.01088 0.0
C977 C 0.91045 0.85523 0.99971 0.0
C978 C 0.89879 0.87617 0.98018 0.0
C979 C 0.91224 0.89748 0.97043 0.0
C980 C 0.93702 0.89746 0.98269 0.0
C981 C 0.94835 0.87715 1.00303 0.0
C982 C 0.97494 0.88138 1.01392 0.0
C983 C 0.982 0.8783 0.08302 0.0
C984 C 0.98936 0.86494 0.97265 0.0
C985 C 0.97725 0.90714 0.99394 0.0
C986 C 0.95524 0.91623 0.97636 0.0
C987 C 0.9534 0.93901 0.9509 0.0
C988 C 0.97461 0.9523 0.9406 0.0
C989 C 0.99741 0.94297 0.95657 0.0
C990 C 0.99843 0.92047 0.9861 0.0
H991 H 0.66911 0.90271 0.10001 0.0
H992 H 0.69406 0.8693 0.93364 0.0
H993 H 0.66316 0.89017 0.87137 0.0
H994 H 0.6029 0.91024 0.04576 0.0
H995 H 0.60288 0.93903 0.0829 0.0
H996 H 0.62014 0.91526 0.11678 0.0
H997 H 0.65804 0.94269 0.11657 0.0
H998 H 0.64156 0.96644 0.08133 0.0
H999 H 0.66773 0.95565 0.04441 0.0
H1000 H 0.63802 0.92195 0.82555 0.0
H1001 H 0.61924 0.96019 0.79994 0.0
H1002 H 0.61306 0.97508 0.99626 0.0
C1003 C 0.667 0.89843 0.05113 0.0
C1004 C 0.6837 0.88405 0.02173 0.0
C1005 C 0.68116 0.87991 0.95711 0.0
C1006 C 0.66369 0.89178 0.92146 0.0
C1007 C 0.64891 0.90758 0.95128 0.0
C1008 C 0.65009 0.91058 0.01503 0.0
C1009 C 0.6359 0.93183 0.03475 0.0
C1010 C 0.61415 0.9236 0.07225 0.0
C1011 C 0.65177 0.95021 0.07134 0.0
C1012 C 0.6281 0.94145 0.97193 0.0
C1013 C 0.63511 0.92681 0.92451 0.0
C1014 C 0.63203 0.93325 0.86234 0.0
C1015 C 0.62173 0.95522 0.84831 0.0
C1016 C 0.61501 0.97077 0.89622 0.0
C1017 C 0.61779 0.96346 0.95871 0.0
H1018 H 0.36017 0.67871 0.99457 0.0
H1019 H 0.38107 0.73004 0.85339 0.0
H1020 H 0.37124 0.70063 0.77287 0.0
H1021 H 0.3939 0.6386 0.94658 0.0
H1022 H 0.37566 0.61226 0.96191 0.0
H1023 H 0.37133 0.63894 1.00484 0.0
H1024 H 0.32648 0.63845 0.97017 0.0
H1025 H 0.33071 0.61142 0.92695 0.0
H1026 H 0.31821 0.63712 0.88869 0.0
H1027 H 0.37387 0.66425 0.71238 0.0
H1028 H 0.39014 0.62587 0.68122 0.0
H1029 H 0.37386 0.59622 0.86182 0.0
C1030 C 0.36194 0.68402 0.94656 0.0
C1031 C 0.3719 0.70667 0.93107 0.0
C1032 C 0.37328 0.71304 0.86744 0.0
C1033 C 0.36775 0.69625 0.82081 0.0
C1034 C 0.361 0.67307 0.83816 0.0
C1035 C 0.35777 0.66699 0.89983 0.0
C1036 C 0.35696 0.6401 0.90854 0.0
C1037 C 0.37558 0.63204 0.95827 0.0
C1038 C 0.33158 0.63125 0.92451 0.0
C1039 C 0.36324 0.6322 0.84397 0.0
C1040 C 0.364 0.65133 0.80314 0.0
C1041 C 0.37276 0.64906 0.74348 0.0
C1042 C 0.38224 0.62722 0.72637 0.0
C1043 C 0.38353 0.60808 0.76936 0.0
C1044 C 0.37264 0.61029 0.82741 0.0
H1045 H 0.85575 0.60918 0.98676 0.0
H1046 H 0.81661 0.63255 0.82067 0.0
H1047 H 0.83799 0.60311 0.75952 0.0
H1048 H 0.91294 0.59732 0.91239 0.0
H1049 H 0.91782 0.57211 0.96296 0.0
H1050 H 0.90181 0.59738 0.99001 0.0
H1051 H 0.86646 0.56875 0.01738 0.0
H1052 H 0.88179 0.54355 0.98784 0.0
H1053 H 0.85235 0.55042 0.95738 0.0
H1054 H 0.85744 0.56507 0.72259 0.0
H1055 H 0.88015 0.52884 0.70694 0.0
H1056 H 0.90986 0.53525 0.89573 0.0
C1057 C 0.85218 0.60936 0.9372 0.0
C1058 C 0.8339 0.62325 0.90936 0.0
C1059 C 0.83001 0.62185 0.84397 0.0
C1060 C 0.84209 0.60514 0.80867 0.0
C1061 C 0.85846 0.59044 0.83916 0.0
C1062 C 0.86408 0.59306 0.90157 0.0
C1063 C 0.8812 0.57438 0.92479 0.0
C1064 C 0.90487 0.58599 0.94899 0.0
C1065 C 0.86975 0.55834 0.97477 0.0
C1066 C 0.88441 0.56071 0.86555 0.0
C1067 C 0.8708 0.56983 0.81694 0.0
C1068 C 0.86896 0.55841 0.75968 0.0
C1069 C 0.88218 0.53775 0.75127 0.0
C1070 C 0.89774 0.52901 0.79929 0.0
C1071 C 0.89837 0.54078 0.85741 0.0
H1072 H 0.05449 0.15527 0.98515 0.0
H1073 H 0.02012 0.20934 0.87153 0.0
H1074 H 1.01053 0.17878 0.79084 0.0
H1075 H 0.08235 0.12541 0.86143 0.0
H1076 H 0.07827 0.09603 0.8946 0.0
H1077 H 0.08094 0.12177 0.94447 0.0
H1078 H 0.0404 0.1102 0.99336 0.0
H1079 H 0.03765 0.08435 0.94386 0.0
H1080 H 0.01409 0.10572 0.94376 0.0
H1081 H 1.00612 0.14134 0.71928 0.0
H1082 H 1.00632 0.1019 0.66774 0.0
H1083 H 0.04503 0.07298 0.82732 0.0
C1084 C 0.04503 0.16093 0.9433 0.0
C1085 C 0.03831 0.18516 0.93524 0.0
C1086 C 0.02539 0.19112 0.87982 0.0
C1087 C 0.02 0.1738 0.83329 0.0
C1088 C 0.02753 0.15034 0.84233 0.0
C1089 C 0.03967 0.14395 0.89638 0.0
C1090 C 0.04621 0.11773 0.89492 0.0
C1091 C 0.07357 0.11509 0.8991 0.0
C1092 C 0.03385 0.10367 0.94707 0.0
C1093 C 0.03609 0.11025 0.83137 0.0
C1094 C 0.02526 0.12925 0.80169 0.0
C1095 C 0.01457 0.12646 0.74249 0.0
C1096 C 0.01481 0.10387 0.71337 0.0
C1097 C 0.02578 0.08404 0.74282 0.0
C1098 C 0.03662 0.08759 0.80279 0.0
H1099 H 0.38829 0.05251 1.00026 0.0
H1100 H 0.33015 0.01667 0.89682 0.0
H1101 H 0.3589 1.0052 0.81683 0.0
H1102 H 0.41824 0.077 0.87139 0.0
H1103 H 0.4481 0.07307 0.90326 0.0
H1104 H 0.42349 0.0767 0.95438 0.0
H1105 H 0.43339 0.03694 1.00967 0.0
H1106 H 0.45822 0.03331 0.9592 0.0
H1107 H 0.43537 0.01007 0.96447 0.0
H1108 H 0.3942 1.00119 0.74199 0.0
H1109 H 0.43213 1.00105 0.68626 0.0
H1110 H 0.46818 0.0387 0.83947 0.0
C1111 C 0.38158 0.04186 0.96133 0.0
C1112 C 0.35665 0.03546 0.9555 0.0
C1113 C 0.34895 0.02156 0.90342 0.0
C1114 C 0.36525 0.01518 0.85727 0.0
C1115 C 0.38945 0.02255 0.86362 0.0
C1116 C 0.39762 0.03526 0.91512 0.0
C1117 C 0.42437 0.04144 0.91074 0.0
C1118 C 0.4288 0.06867 0.9099 0.0
C1119 C 0.43868 0.02974 0.9642 0.0
C1120 C 0.43013 0.03046 0.84838 0.0
C1121 C 0.40966 0.01978 0.82177 0.0
C1122 C 0.41025 0.00929 0.76313 0.0
C1123 C 0.43208 0.00942 0.73145 0.0
C1124 C 0.45359 0.01977 0.75781 0.0
C1125 C 0.45234 0.03045 0.81755 0.0
H1126 H 0.56152 0.3589 0.93141 0.0
H1127 H 0.49036 0.34661 1.00282 0.0
H1128 H 0.47448 0.37644 0.92791 0.0
H1129 H 0.55813 0.42095 0.91869 0.0
H1130 H 0.57508 0.42355 0.84889 0.0
H1131 H 0.58008 0.39906 0.90159 0.0
H1132 H 0.5713 0.36893 0.81233 0.0
H1133 H 0.56642 0.39337 0.75918 0.0
H1134 H 0.54351 0.37038 0.76782 0.0
H1135 H 0.46739 0.41136 0.85202 0.0
H1136 H 0.46932 0.44617 0.78145 0.0
H1137 H 0.54555 0.43627 0.76153 0.0
C1138 C 0.54248 0.36215 0.93091 0.0
C1139 C 0.52722 0.35024 0.97361 0.0
C1140 C 0.50243 0.3551 0.97046 0.0
C1141 C 0.49329 0.37222 0.92822 0.0
C1142 C 0.50908 0.38432 0.88881 0.0
C1143 C 0.53316 0.37925 0.88948 0.0
C1144 C 0.54676 0.39564 0.84537 0.0
C1145 C 0.56615 0.41068 0.88076 0.0
C1146 C 0.55764 0.38122 0.79307 0.0
C1147 C 0.52672 0.41113 0.82041 0.0
C1148 C 0.50508 0.40424 0.84569 0.0
C1149 C 0.48423 0.41662 0.83161 0.0
C1150 C 0.48554 0.4365 0.79132 0.0
C1151 C 0.50755 0.44409 0.7651 0.0
C1152 C 0.52833 0.43091 0.77977 0.0
H1153 H 0.16186 0.48212 0.96153 0.0
H1154 H 0.21832 0.50119 0.83486 0.0
H1155 H 0.18749 0.51078 0.75376 0.0
H1156 H 0.12296 0.45296 0.85136 0.0
H1157 H 0.09585 0.46333 0.88447 0.0
H1158 H 0.12229 0.45966 0.9331 0.0
H1159 H 0.1206 0.50373 0.96841 0.0
H1160 H 0.09401 0.50749 0.9203 0.0
H1161 H 0.11976 0.52717 0.91081 0.0
H1162 H 0.14945 0.516 0.68399 0.0
H1163 H 0.10889 0.51864 0.63552 0.0
H1164 H 0.07775 0.4954 0.80867 0.0
C1165 C 0.16786 0.48839 0.91681 0.0
C1166 C 0.19269 0.49073 0.9047 0.0
C1167 C 0.19953 0.49939 0.84569 0.0
C1168 C 0.18208 0.50471 0.79915 0.0
C1169 C 0.15779 0.50146 0.81228 0.0
C1170 C 0.15075 0.49371 0.87008 0.0
C1171 C 0.12363 0.49125 0.87271 0.0
C1172 C 0.11573 0.46526 0.8862 0.0
C1173 C 0.11394 0.50844 0.92091 0.0
C1174 C 0.11633 0.49858 0.80713 0.0
C1175 C 0.13624 0.50445 0.77283 0.0
C1176 C 0.13383 0.51154 0.71077 0.0
C1177 C 0.11062 0.51293 0.68349 0.0
C1178 C 0.0899 0.50722 0.71794 0.0
C1179 C 0.09305 0.49985 0.78064 0.0
H1180 H 0.96582 0.85331 0.40616 0.0
H1181 H 0.03963 0.8401 0.35976 0.0
H1182 H 0.05301 0.87391 0.42615 0.0
H1183 H 0.97185 0.91715 0.39577 0.0
H1184 H 0.95174 0.9225 0.45794 0.0
H1185 H 0.94802 0.89582 0.41179 0.0
H1186 H 0.95073 0.86994 0.5114 0.0
H1187 H 0.95448 0.89653 0.55791 0.0
H1188 H 0.97641 0.87352 0.56362 0.0
H1189 H 0.05854 0.91041 0.49687 0.0
H1190 H 0.05567 0.94659 0.56072 0.0
H1191 H 0.97806 0.93903 0.55303 0.0
C1192 C 0.98486 0.85739 0.40872 0.0
C1193 C 1.0015 0.8434 0.37626 0.0
C1194 C 0.02625 0.84972 0.38409 0.0
C1195 C 0.0341 0.86923 0.4216 0.0
C1196 C 0.01713 0.88278 0.45116 0.0
C1197 C 0.99299 0.87717 0.4448 0.0
C1198 C 0.97827 0.89529 0.47897 0.0
C1199 C 0.96148 0.90847 0.4334 0.0
C1200 C 0.96414 0.88309 0.53107 0.0
C1201 C 0.99789 0.91209 0.50553 0.0
C1202 C 0.0202 0.90432 0.48952 0.0
C1203 C 0.04112 0.91658 0.50936 0.0
C1204 C 0.03927 0.93721 0.546 0.0
C1205 C 0.01665 0.94597 0.56238 0.0
C1206 C 0.99566 0.93306 0.54143 0.0
H1207 H 0.69561 1.00748 0.44738 0.0
H1208 H 0.66168 0.98478 0.27305 0.0
H1209 H 0.62206 0.98565 0.32049 0.0
H1210 H 0.65745 0.97427 0.54726 0.0
H1211 H 0.6554 0.99682 0.60624 0.0
H1212 H 0.68143 0.99619 0.55874 0.0
H1213 H 0.67486 0.03994 0.52512 0.0
H1214 H 0.64898 0.0408 0.57317 0.0
H1215 H 0.64624 0.04813 0.49174 0.0
H1216 H 0.58641 0.98415 0.38862 0.0
H1217 H 0.55604 0.98606 0.46903 0.0
H1218 H 0.61034 0.01304 0.601 0.0
C1219 C 0.67975 1.00348 0.41877 0.0
C1220 C 0.68195 0.99643 0.35558 0.0
C1221 C 0.66063 0.99062 0.3208 0.0
C1222 C 0.63795 0.99087 0.34764 0.0
C1223 C 0.63637 0.99724 0.40992 0.0
C1224 C 0.65657 1.00399 0.44497 0.0
C1225 C 0.64935 0.0099 0.51129 0.0
C1226 C 0.66165 0.99331 0.55869 0.0
C1227 C 0.65521 0.03626 0.52621 0.0
C1228 C 0.62217 1.00499 0.50803 0.0
C1229 C 0.61529 0.99743 0.44901 0.0
C1230 C 0.59158 0.99042 0.43468 0.0
C1231 C 0.57438 0.99142 0.48111 0.0
C1232 C 0.58045 0.99978 0.5418 0.0
C1233 C 0.60487 1.00678 0.55512 0.0
H1234 H 0.51545 0.64045 0.30527 0.0
H1235 H 0.50891 0.70126 0.42651 0.0
H1236 H 0.51354 0.67462 0.51832 0.0
H1237 H 0.48157 0.60013 0.3901 0.0
H1238 H 0.4995 0.57449 0.37643 0.0
H1239 H 0.49895 0.59861 0.32101 0.0
H1240 H 0.54518 0.60347 0.33009 0.0
H1241 H 0.54595 0.57905 0.38481 0.0
H1242 H 0.55952 0.6076 0.40553 0.0
H1243 H 0.51289 0.63958 0.59699 0.0
H1244 H 0.51202 0.60105 0.65402 0.0
H1245 H 0.52055 0.56342 0.48081 0.0
C1246 C 0.51588 0.6483 0.35119 0.0
C1247 C 0.51221 0.6731 0.35857 0.0
C1248 C 0.51228 0.68251 0.41953 0.0
C1249 C 0.51462 0.6674 0.47198 0.0
C1250 C 0.51721 0.64286 0.46294 0.0
C1251 C 0.5184 0.6335 0.40383 0.0
C1252 C 0.52022 0.60647 0.40612 0.0
C1253 C 0.49878 0.59422 0.37136 0.0
C1254 C 0.54414 0.59869 0.3801 0.0
C1255 C 0.51933 0.60188 0.47559 0.0
C1256 C 0.51749 0.62305 0.50774 0.0
C1257 C 0.5148 0.62302 0.57211 0.0
C1258 C 0.51421 0.60097 0.60422 0.0
C1259 C 0.51653 0.57906 0.57237 0.0
C1260 C 0.51919 0.57976 0.50704 0.0
H1261 H 0.8591 0.59057 0.42995 0.0
H1262 H 0.83759 0.52065 0.35741 0.0
H1263 H 0.87137 0.50303 0.41634 0.0
H1264 H 0.92064 0.58394 0.41022 0.0
H1265 H 0.93019 0.60017 0.47914 0.0
H1266 H 0.90217 0.60688 0.44031 0.0
H1267 H 0.87966 0.59912 0.54232 0.0
H1268 H 0.9077 0.59265 0.58166 0.0
H1269 H 0.88313 0.5711 0.58262 0.0
H1270 H 0.90947 0.49334 0.47716 0.0
H1271 H 0.94855 0.49223 0.53293 0.0
H1272 H 0.9482 0.56911 0.55694 0.0
C1273 C 0.86127 0.5715 0.42612 0.0
C1274 C 0.84536 0.55715 0.38793 0.0
C1275 C 0.84897 0.53218 0.38656 0.0
C1276 C 0.86836 0.52198 0.41962 0.0
C1277 C 0.88422 0.53689 0.45398 0.0
C1278 C 0.88083 0.56113 0.45761 0.0
C1279 C 0.90143 0.57352 0.49393 0.0
C1280 C 0.91437 0.59223 0.45347 0.0
C1281 C 0.89244 0.58476 0.55367 0.0
C1282 C 0.91737 0.55255 0.5088 0.0
C1283 C 0.90678 0.53153 0.48642 0.0
C1284 C 0.91783 0.50971 0.4948 0.0
C1285 C 0.94013 0.5093 0.52666 0.0
C1286 C 0.9517 0.5306 0.54917 0.0
C1287 C 0.94004 0.55255 0.53985 0.0
loop_
_geom_bond_atom_site_label_1
_geom_bond_atom_site_label_2
_geom_bond_distance
_geom_bond_site_symmetry_2
_ccdc_geom_bond_type
C0 C1 1.391 . S
C0 C4 1.391 . S
C0 H42 0.948 . S
C1 C0 1.391 . S
C1 C2 1.391 . S
C2 C1 1.391 . S
C2 H58 0.947 . S
C2 C59 1.392 . S
C3 C4 1.391 . S
C3 C7 1.397 . S
C3 C59 1.419 . S
C4 C0 1.391 . S
C4 C3 1.391 . S
C4 C5 1.399 . S
C5 C4 1.399 . S
C5 C8 1.396 . S
C5 C17 1.453 . S
C5 C18 1.684 . S
H6 C30 0.948 . S
C7 C3 1.397 . S
C7 C8 1.394 . S
C7 C26 1.723 . S
C8 C5 1.396 . S
C8 C7 1.394 . S
C8 C38 1.723 . S
H9 C32 0.947 . S
H10 C33 0.948 . S
H11 C39 0.982 . S
H12 C40 0.979 . S
H13 C40 0.980 . S
H14 C40 0.983 . S
H15 C39 0.979 . S
H16 C39 0.977 . S
C17 C5 1.453 . S
C17 H46 0.982 . S
C17 H47 0.979 . S
C17 H48 0.977 . S
C18 C5 1.684 . S
C18 H43 0.979 . S
C18 H44 0.980 . S
C18 H45 0.983 . S
C19 C20 1.391 . S
C19 C24 1.391 . S
C19 H49 0.948 . S
C20 C19 1.391 . S
C20 C21 1.391 . S
C21 C20 1.391 . S
C21 C22 1.392 . S
C21 H50 0.947 1_554 S
C22 C21 1.392 . S
C22 C23 1.419 . S
C22 H51 0.948 . S
C23 C22 1.419 . S
C23 C24 1.391 . S
C23 C27 1.397 . S
C24 C19 1.391 . S
C24 C23 1.391 . S
C24 C25 1.399 . S
C25 C24 1.399 . S
C25 C26 1.396 . S
C25 C28 1.453 . S
C25 C29 1.684 . S
C26 C7 1.723 . S
C26 C25 1.396 . S
C26 C27 1.394 . S
C27 C23 1.397 . S
C27 C26 1.394 . S
C27 C37 1.723 . S
C28 C25 1.453 . S
C28 H52 0.982 . S
C28 H53 0.979 . S
C28 H54 0.977 . S
C29 C25 1.684 . S
C29 H55 0.979 . S
C29 H56 0.980 . S
C29 H57 0.983 . S
C30 H6 0.948 . S
C30 C31 1.391 . S
C30 C35 1.391 . S
C31 C30 1.391 . S
C31 C32 1.391 . S
C32 H9 0.947 . S
C32 C31 1.391 . S
C32 C33 1.392 . S
C33 H10 0.948 . S
C33 C32 1.392 . S
C33 C34 1.419 . S
C34 C33 1.419 . S
C34 C35 1.391 . S
C34 C38 1.397 . S
C35 C30 1.391 . S
C35 C34 1.391 . S
C35 C36 1.399 . S
C36 C35 1.399 . S
C36 C37 1.396 . S
C36 C39 1.453 . S
C36 C40 1.684 . S
C37 C27 1.723 . S
C37 C36 1.396 . S
C37 C38 1.394 . S
C38 C8 1.723 . S
C38 C34 1.397 . S
C38 C37 1.394 . S
C39 H11 0.982 . S
C39 H15 0.979 . S
C39 H16 0.977 . S
C39 C36 1.453 . S
C40 H12 0.979 . S
C40 H13 0.980 . S
C40 H14 0.983 . S
C40 C36 1.684 . S
H41 C59 0.948 . S
H42 C0 0.948 . S
H43 C18 0.979 . S
H44 C18 0.980 . S
H45 C18 0.983 . S
H46 C17 0.982 . S
H47 C17 0.979 . S
H48 C17 0.977 . S
H49 C19 0.948 . S
H50 C21 0.947 1_556 S
H51 C22 0.948 . S
H52 C28 0.982 . S
H53 C28 0.979 . S
H54 C28 0.977 . S
H55 C29 0.979 . S
H56 C29 0.980 . S
H57 C29 0.983 . S
H58 C2 0.947 . S
C59 C2 1.392 . S
C59 C3 1.419 . S
C59 H41 0.948 . S
C60 C61 1.391 . S
C60 C64 1.391 . S
C60 H102 0.948 . S
C61 C60 1.391 . S
C61 C62 1.391 . S
C62 C61 1.391 . S
C62 H118 0.947 . S
C62 C119 1.392 . S
C63 C64 1.391 . S
C63 C67 1.397 . S
C63 C119 1.419 . S
C64 C60 1.391 . S
C64 C63 1.391 . S
C64 C65 1.399 . S
C65 C64 1.399 . S
C65 C68 1.396 . S
C65 C77 1.453 . S
C65 C78 1.684 . S
H66 C90 0.948 . S
C67 C63 1.397 . S
C67 C68 1.394 . S
C67 C86 1.723 . S
C68 C65 1.396 . S
C68 C67 1.394 . S
C68 C98 1.723 . S
H69 C92 0.947 . S
H70 C93 0.948 . S
H71 C99 0.982 . S
H72 C100 0.979 . S
H73 C100 0.980 . S
H74 C100 0.983 . S
H75 C99 0.979 . S
H76 C99 0.977 . S
C77 C65 1.453 . S
C77 H106 0.982 . S
C77 H107 0.979 . S
C77 H108 0.977 . S
C78 C65 1.684 . S
C78 H103 0.979 . S
C78 H104 0.980 . S
C78 H105 0.983 . S
C79 C80 1.391 . S
C79 C84 1.391 . S
C79 H109 0.948 . S
C80 C79 1.391 . S
C80 C81 1.391 . S
C81 C80 1.391 . S
C81 C82 1.392 . S
C81 H110 0.947 . S
C82 C81 1.392 . S
C82 C83 1.419 . S
C82 H111 0.948 . S
C83 C82 1.419 . S
C83 C84 1.391 . S
C83 C87 1.397 . S
C84 C79 1.391 . S
C84 C83 1.391 . S
C84 C85 1.399 . S
C85 C84 1.399 . S
C85 C86 1.396 . S
C85 C88 1.453 . S
C85 C89 1.684 . S
C86 C67 1.723 . S
C86 C85 1.396 . S
C86 C87 1.394 . S
C87 C83 1.397 . S
C87 C86 1.394 . S
C87 C97 1.723 . S
C88 C85 1.453 . S
C88 H112 0.982 . S
C88 H113 0.979 . S
C88 H114 0.977 . S
C89 C85 1.684 . S
C89 H115 0.979 . S
C89 H116 0.980 . S
C89 H117 0.983 . S
C90 H66 0.948 . S
C90 C91 1.391 . S
C90 C95 1.391 . S
C91 C90 1.391 . S
C91 C92 1.391 . S
C92 H69 0.947 . S
C92 C91 1.391 . S
C92 C93 1.392 . S
C93 H70 0.948 . S
C93 C92 1.392 . S
C93 C94 1.419 . S
C94 C93 1.419 . S
C94 C95 1.391 . S
C94 C98 1.397 . S
C95 C90 1.391 . S
C95 C94 1.391 . S
C95 C96 1.399 . S
C96 C95 1.399 . S
C96 C97 1.396 . S
C96 C99 1.453 . S
C96 C100 1.684 . S
C97 C87 1.723 . S
C97 C96 1.396 . S
C97 C98 1.394 . S
C98 C68 1.723 . S
C98 C94 1.397 . S
C98 C97 1.394 . S
C99 H71 0.982 . S
C99 H75 0.979 . S
C99 H76 0.977 . S
C99 C96 1.453 . S
C100 H72 0.979 . S
C100 H73 0.980 . S
C100 H74 0.983 . S
C100 C96 1.684 . S
H101 C119 0.948 . S
H102 C60 0.948 . S
H103 C78 0.979 . S
H104 C78 0.980 . S
H105 C78 0.983 . S
H106 C77 0.982 . S
H107 C77 0.979 . S
H108 C77 0.977 . S
H109 C79 0.948 . S
H110 C81 0.947 . S
H111 C82 0.948 . S
H112 C88 0.982 . S
H113 C88 0.979 . S
H114 C88 0.977 . S
H115 C89 0.979 . S
H116 C89 0.980 . S
H117 C89 0.983 . S
H118 C62 0.947 . S
C119 C62 1.392 . S
C119 C63 1.419 . S
C119 H101 0.948 . S
C120 C121 1.391 . S
C120 C124 1.391 . S
C120 H162 0.948 . S
C121 C120 1.391 . S
C121 C122 1.391 . S
C122 C121 1.391 . S
C122 H178 0.947 . S
C122 C179 1.392 . S
C123 C124 1.391 . S
C123 C127 1.397 . S
C123 C179 1.419 . S
C124 C120 1.391 . S
C124 C123 1.391 . S
C124 C125 1.399 . S
C125 C124 1.399 . S
C125 C128 1.396 . S
C125 C137 1.453 . S
C125 C138 1.684 . S
H126 C150 0.948 . S
C127 C123 1.397 . S
C127 C128 1.394 . S
C127 C146 1.723 . S
C128 C125 1.396 . S
C128 C127 1.394 . S
C128 C158 1.723 . S
H129 C152 0.947 . S
H130 C153 0.948 . S
H131 C159 0.982 . S
H132 C160 0.979 . S
H133 C160 0.980 . S
H134 C160 0.983 . S
H135 C159 0.979 . S
H136 C159 0.977 . S
C137 C125 1.453 . S
C137 H166 0.982 . S
C137 H167 0.979 . S
C137 H168 0.977 . S
C138 C125 1.684 . S
C138 H163 0.979 . S
C138 H164 0.980 . S
C138 H165 0.983 . S
C139 C140 1.391 . S
C139 C144 1.391 . S
C139 H169 0.948 . S
C140 C139 1.391 . S
C140 C141 1.391 . S
C141 C140 1.391 . S
C141 C142 1.392 . S
C141 H170 0.947 . S
C142 C141 1.392 . S
C142 C143 1.419 . S
C142 H171 0.948 . S
C143 C142 1.419 . S
C143 C144 1.391 . S
C143 C147 1.397 . S
C144 C139 1.391 . S
C144 C143 1.391 . S
C144 C145 1.399 . S
C145 C144 1.399 . S
C145 C146 1.396 . S
C145 C148 1.453 . S
C145 C149 1.684 . S
C146 C127 1.723 . S
C146 C145 1.396 . S
C146 C147 1.394 . S
C147 C143 1.397 . S
C147 C146 1.394 . S
C147 C157 1.723 . S
C148 C145 1.453 . S
C148 H172 0.982 . S
C148 H173 0.979 . S
C148 H174 0.977 . S
C149 C145 1.684 . S
C149 H175 0.979 . S
C149 H176 0.980 . S
C149 H177 0.983 . S
C150 H126 0.948 . S
C150 C151 1.391 . S
C150 C155 1.391 . S
C151 C150 1.391 . S
C151 C152 1.391 . S
C152 H129 0.947 . S
C152 C151 1.391 . S
C152 C153 1.392 . S
C153 H130 0.948 . S
C153 C152 1.392 . S
C153 C154 1.419 . S
C154 C153 1.419 . S
C154 C155 1.391 . S
C154 C158 1.397 . S
C155 C150 1.391 . S
C155 C154 1.391 . S
C155 C156 1.399 . S
C156 C155 1.399 . S
C156 C157 1.396 . S
C156 C159 1.453 . S
C156 C160 1.684 . S
C157 C147 1.723 . S
C157 C156 1.396 . S
C157 C158 1.394 . S
C158 C128 1.723 . S
C158 C154 1.397 . S
C158 C157 1.394 . S
C159 H131 0.982 . S
C159 H135 0.979 . S
C159 H136 0.977 . S
C159 C156 1.453 . S
C160 H132 0.979 . S
C160 H133 0.980 . S
C160 H134 0.983 . S
C160 C156 1.684 . S
H161 C179 0.948 . S
H162 C120 0.948 . S
H163 C138 0.979 . S
H164 C138 0.980 . S
H165 C138 0.983 . S
H166 C137 0.982 . S
H167 C137 0.979 . S
H168 C137 0.977 . S
H169 C139 0.948 . S
H170 C141 0.947 . S
H171 C142 0.948 . S
H172 C148 0.982 . S
H173 C148 0.979 . S
H174 C148 0.977 . S
H175 C149 0.979 . S
H176 C149 0.980 . S
H177 C149 0.983 . S
H178 C122 0.947 . S
C179 C122 1.392 . S
C179 C123 1.419 . S
C179 H161 0.948 . S
C180 C181 1.391 . S
C180 C184 1.391 . S
C180 H222 0.948 . S
C181 C180 1.391 . S
C181 C182 1.391 . S
C182 C181 1.391 . S
C182 H238 0.947 . S
C182 C239 1.392 . S
C183 C184 1.391 . S
C183 C187 1.397 . S
C183 C239 1.419 . S
C184 C180 1.391 . S
C184 C183 1.391 . S
C184 C185 1.399 . S
C185 C184 1.399 . S
C185 C188 1.396 . S
C185 C197 1.453 . S
C185 C198 1.684 . S
H186 C210 0.948 . S
C187 C183 1.397 . S
C187 C188 1.394 . S
C187 C206 1.723 . S
C188 C185 1.396 . S
C188 C187 1.394 . S
C188 C218 1.723 . S
H189 C212 0.947 . S
H190 C213 0.948 . S
H191 C219 0.982 . S
H192 C220 0.979 . S
H193 C220 0.980 . S
H194 C220 0.983 . S
H195 C219 0.979 . S
H196 C219 0.977 . S
C197 C185 1.453 . S
C197 H226 0.982 . S
C197 H227 0.979 . S
C197 H228 0.977 . S
C198 C185 1.684 . S
C198 H223 0.979 . S
C198 H224 0.980 . S
C198 H225 0.983 . S
C199 C200 1.391 . S
C199 C204 1.391 . S
C199 H229 0.948 . S
C200 C199 1.391 . S
C200 C201 1.391 . S
C201 C200 1.391 . S
C201 C202 1.392 . S
C201 H230 0.947 1_554 S
C202 C201 1.392 . S
C202 C203 1.419 . S
C202 H231 0.948 . S
C203 C202 1.419 . S
C203 C204 1.391 . S
C203 C207 1.397 . S
C204 C199 1.391 . S
C204 C203 1.391 . S
C204 C205 1.399 . S
C205 C204 1.399 . S
C205 C206 1.396 . S
C205 C208 1.453 . S
C205 C209 1.684 . S
C206 C187 1.723 . S
C206 C205 1.396 . S
C206 C207 1.394 . S
C207 C203 1.397 . S
C207 C206 1.394 . S
C207 C217 1.723 . S
C208 C205 1.453 . S
C208 H232 0.982 . S
C208 H233 0.979 . S
C208 H234 0.977 . S
C209 C205 1.684 . S
C209 H235 0.979 . S
C209 H236 0.980 . S
C209 H237 0.983 . S
C210 H186 0.948 . S
C210 C211 1.391 . S
C210 C215 1.391 . S
C211 C210 1.391 . S
C211 C212 1.391 . S
C212 H189 0.947 . S
C212 C211 1.391 . S
C212 C213 1.392 . S
C213 H190 0.948 . S
C213 C212 1.392 . S
C213 C214 1.419 . S
C214 C213 1.419 . S
C214 C215 1.391 . S
C214 C218 1.397 . S
C215 C210 1.391 . S
C215 C214 1.391 . S
C215 C216 1.399 . S
C216 C215 1.399 . S
C216 C217 1.396 . S
C216 C219 1.453 . S
C216 C220 1.684 . S
C217 C207 1.723 . S
C217 C216 1.396 . S
C217 C218 1.394 . S
C218 C188 1.723 . S
C218 C214 1.397 . S
C218 C217 1.394 . S
C219 H191 0.982 . S
C219 H195 0.979 . S
C219 H196 0.977 . S
C219 C216 1.453 . S
C220 H192 0.979 . S
C220 H193 0.980 . S
C220 H194 0.983 . S
C220 C216 1.684 . S
H221 C239 0.948 . S
H222 C180 0.948 . S
H223 C198 0.979 . S
H224 C198 0.980 . S
H225 C198 0.983 . S
H226 C197 0.982 . S
H227 C197 0.979 . S
H228 C197 0.977 . S
H229 C199 0.948 . S
H230 C201 0.947 1_556 S
H231 C202 0.948 . S
H232 C208 0.982 . S
H233 C208 0.979 . S
H234 C208 0.977 . S
H235 C209 0.979 . S
H236 C209 0.980 . S
H237 C209 0.983 . S
H238 C182 0.947 . S
C239 C182 1.392 . S
C239 C183 1.419 . S
C239 H221 0.948 . S
C240 C241 1.391 . S
C240 C244 1.391 . S
C240 H282 0.948 . S
C241 C240 1.391 . S
C241 C242 1.391 . S
C242 C241 1.391 . S
C242 H298 0.947 . S
C242 C299 1.392 . S
C243 C244 1.391 . S
C243 C247 1.397 . S
C243 C299 1.419 . S
C244 C240 1.391 . S
C244 C243 1.391 . S
C244 C245 1.399 . S
C245 C244 1.399 . S
C245 C248 1.396 . S
C245 C257 1.453 1_554 S
C245 C258 1.684 1_554 S
H246 C270 0.948 . S
C247 C243 1.397 . S
C247 C248 1.394 . S
C247 C266 1.723 . S
C248 C245 1.396 . S
C248 C247 1.394 . S
C248 C278 1.723 . S
H249 C272 0.947 . S
H250 C273 0.948 . S
H251 C279 0.982 . S
H252 C280 0.977 1_556 S
H253 C280 0.980 . S
H254 C280 0.983 1_556 S
H255 C279 0.979 1_556 S
H256 C279 0.977 . S
C257 C245 1.453 1_556 S
C257 H286 0.982 1_556 S
C257 H287 0.979 . S
C257 H288 0.977 . S
C258 C245 1.684 1_556 S
C258 H283 0.979 . S
C258 H284 0.980 . S
C258 H285 0.983 . S
C259 C260 1.391 . S
C259 C264 1.391 . S
C259 H289 0.948 . S
C260 C259 1.391 . S
C260 C261 1.391 . S
C261 C260 1.391 . S
C261 C262 1.392 . S
C261 H290 0.947 . S
C262 C261 1.392 . S
C262 C263 1.419 . S
C262 H291 0.948 . S
C263 C262 1.419 . S
C263 C264 1.391 . S
C263 C267 1.397 . S
C264 C259 1.391 . S
C264 C263 1.391 . S
C264 C265 1.399 . S
C265 C264 1.399 . S
C265 C266 1.396 . S
C265 C268 1.453 . S
C265 C269 1.684 . S
C266 C247 1.723 . S
C266 C265 1.396 . S
C266 C267 1.394 . S
C267 C263 1.397 . S
C267 C266 1.394 . S
C267 C277 1.723 . S
C268 C265 1.453 . S
C268 H292 0.982 . S
C268 H293 0.979 . S
C268 H294 0.977 . S
C269 C265 1.684 . S
C269 H295 0.979 . S
C269 H296 0.980 . S
C269 H297 0.983 . S
C270 H246 0.948 . S
C270 C271 1.391 . S
C270 C275 1.391 . S
C271 C270 1.391 . S
C271 C272 1.391 . S
C272 H249 0.947 . S
C272 C271 1.391 . S
C272 C273 1.392 . S
C273 H250 0.948 . S
C273 C272 1.392 . S
C273 C274 1.419 . S
C274 C273 1.419 . S
C274 C275 1.391 . S
C274 C278 1.397 1_556 S
C275 C270 1.391 . S
C275 C274 1.391 . S
C275 C276 1.399 . S
C276 C275 1.399 . S
C276 C277 1.396 1_556 S
C276 C279 1.453 1_556 S
C276 C280 1.684 1_556 S
C277 C267 1.723 . S
C277 C276 1.396 1_554 S
C277 C278 1.394 . S
C278 C248 1.723 . S
C278 C274 1.397 1_554 S
C278 C277 1.394 . S
C279 H251 0.982 . S
C279 H255 0.979 1_554 S
C279 H256 0.977 . S
C279 C276 1.453 1_554 S
C280 H252 0.977 1_554 S
C280 H253 0.980 . S
C280 H254 0.983 1_554 S
C280 C276 1.684 1_554 S
H281 C299 0.948 . S
H282 C240 0.948 . S
H283 C258 0.979 . S
H284 C258 0.980 . S
H285 C258 0.983 . S
H286 C257 0.982 1_554 S
H287 C257 0.979 . S
H288 C257 0.977 . S
H289 C259 0.948 . S
H290 C261 0.947 . S
H291 C262 0.948 . S
H292 C268 0.982 . S
H293 C268 0.979 . S
H294 C268 0.977 . S
H295 C269 0.979 . S
H296 C269 0.980 . S
H297 C269 0.983 . S
H298 C242 0.947 . S
C299 C242 1.392 . S
C299 C243 1.419 . S
C299 H281 0.948 . S
C300 C301 1.391 . S
C300 C304 1.391 . S
C300 H342 0.948 . S
C301 C300 1.391 . S
C301 C302 1.391 . S
C302 C301 1.391 . S
C302 H358 0.947 . S
C302 C359 1.392 . S
C303 C304 1.391 . S
C303 C307 1.397 . S
C303 C359 1.419 . S
C304 C300 1.391 . S
C304 C303 1.391 . S
C304 C305 1.399 . S
C305 C304 1.399 . S
C305 C308 1.396 . S
C305 C317 1.453 . S
C305 C318 1.684 . S
H306 C330 0.948 . S
C307 C303 1.397 . S
C307 C308 1.394 . S
C307 C326 1.712 1_554 S
C308 C305 1.396 . S
C308 C307 1.394 . S
C308 C338 1.723 . S
H309 C332 0.947 . S
H310 C333 0.948 . S
H311 C339 0.982 . S
H312 C340 0.979 . S
H313 C340 0.980 . S
H314 C340 0.983 . S
H315 C339 0.979 . S
H316 C339 0.977 . S
C317 C305 1.453 . S
C317 H346 0.982 . S
C317 H347 0.979 . S
C317 H348 0.977 . S
C318 C305 1.684 . S
C318 H343 0.979 . S
C318 H344 0.980 . S
C318 H345 0.983 . S
C319 C320 1.391 . S
C319 C324 1.391 . S
C319 H349 0.948 . S
C320 C319 1.391 . S
C320 C321 1.391 . S
C321 C320 1.391 . S
C321 C322 1.392 . S
C321 H350 0.947 . S
C322 C321 1.392 . S
C322 C323 1.419 . S
C322 H351 0.948 . S
C323 C322 1.419 . S
C323 C324 1.391 . S
C323 C327 1.397 . S
C324 C319 1.391 . S
C324 C323 1.391 . S
C324 C325 1.399 . S
C325 C324 1.399 . S
C325 C326 1.404 . S
C325 C328 1.453 . S
C325 C329 1.684 . S
C326 C307 1.712 1_556 S
C326 C325 1.404 . S
C326 C327 1.399 . S
C327 C323 1.397 . S
C327 C326 1.399 . S
C327 C337 1.719 1_556 S
C328 C325 1.453 . S
C328 H352 0.982 . S
C328 H353 0.979 . S
C328 H354 0.977 1_556 S
C329 C325 1.684 . S
C329 H355 0.979 . S
C329 H356 0.980 1_556 S
C329 H357 0.983 . S
C330 H306 0.948 . S
C330 C331 1.391 . S
C330 C335 1.391 . S
C331 C330 1.391 . S
C331 C332 1.391 . S
C332 H309 0.947 . S
C332 C331 1.391 . S
C332 C333 1.392 . S
C333 H310 0.948 . S
C333 C332 1.392 . S
C333 C334 1.419 . S
C334 C333 1.419 . S
C334 C335 1.391 . S
C334 C338 1.397 . S
C335 C330 1.391 . S
C335 C334 1.391 . S
C335 C336 1.399 1_554 S
C336 C335 1.399 1_556 S
C336 C337 1.394 1_556 S
C336 C339 1.453 . S
C336 C340 1.684 . S
C337 C327 1.719 1_554 S
C337 C336 1.394 1_554 S
C337 C338 1.405 . S
C338 C308 1.723 . S
C338 C334 1.397 . S
C338 C337 1.405 . S
C339 H311 0.982 . S
C339 H315 0.979 . S
C339 H316 0.977 . S
C339 C336 1.453 . S
C340 H312 0.979 . S
C340 H313 0.980 . S
C340 H314 0.983 . S
C340 C336 1.684 . S
H341 C359 0.948 . S
H342 C300 0.948 . S
H343 C318 0.979 . S
H344 C318 0.980 . S
H345 C318 0.983 . S
H346 C317 0.982 . S
H347 C317 0.979 . S
H348 C317 0.977 . S
H349 C319 0.948 . S
H350 C321 0.947 . S
H351 C322 0.948 . S
H352 C328 0.982 . S
H353 C328 0.979 . S
H354 C328 0.977 1_554 S
H355 C329 0.979 . S
H356 C329 0.980 1_554 S
H357 C329 0.983 . S
H358 C302 0.947 . S
C359 C302 1.392 . S
C359 C303 1.419 . S
C359 H341 0.948 . S
C360 C361 1.391 . S
C360 C364 1.391 . S
C360 H402 0.948 . S
C361 C360 1.391 . S
C361 C362 1.391 . S
C362 C361 1.391 . S
C362 H418 0.947 . S
C362 C419 1.392 . S
C363 C364 1.391 . S
C363 C367 1.397 . S
C363 C419 1.419 . S
C364 C360 1.391 . S
C364 C363 1.391 . S
C364 C365 1.399 . S
C365 C364 1.399 . S
C365 C368 1.396 . S
C365 C377 1.453 . S
C365 C378 1.684 . S
H366 C390 0.948 . S
C367 C363 1.397 . S
C367 C368 1.394 . S
C367 C386 1.723 1_556 S
C368 C365 1.396 . S
C368 C367 1.394 . S
C368 C398 1.723 1_556 S
H369 C392 0.947 . S
H370 C393 0.948 . S
H371 C399 0.982 . S
H372 C400 0.979 . S
H373 C400 0.980 . S
H374 C400 0.983 . S
H375 C399 0.979 . S
H376 C399 0.977 . S
C377 C365 1.453 . S
C377 H406 0.982 . S
C377 H407 0.979 . S
C377 H408 0.977 . S
C378 C365 1.684 . S
C378 H403 0.979 . S
C378 H404 0.980 . S
C378 H405 0.983 . S
C379 C380 1.391 . S
C379 C384 1.391 . S
C379 H409 0.948 . S
C380 C379 1.391 . S
C380 C381 1.391 . S
C381 C380 1.391 . S
C381 C382 1.392 . S
C381 H410 0.947 . S
C382 C381 1.392 . S
C382 C383 1.419 . S
C382 H411 0.948 . S
C383 C382 1.419 . S
C383 C384 1.391 . S
C383 C387 1.397 . S
C384 C379 1.391 . S
C384 C383 1.391 . S
C384 C385 1.399 . S
C385 C384 1.399 . S
C385 C386 1.396 . S
C385 C388 1.453 . S
C385 C389 1.684 . S
C386 C367 1.723 1_554 S
C386 C385 1.396 . S
C386 C387 1.394 . S
C387 C383 1.397 . S
C387 C386 1.394 . S
C387 C397 1.723 . S
C388 C385 1.453 . S
C388 H412 0.982 . S
C388 H413 0.979 . S
C388 H414 0.977 1_554 S
C389 C385 1.684 . S
C389 H415 0.979 . S
C389 H416 0.980 1_554 S
C389 H417 0.983 . S
C390 H366 0.948 . S
C390 C391 1.391 . S
C390 C395 1.391 . S
C391 C390 1.391 . S
C391 C392 1.391 1_554 S
C392 H369 0.947 . S
C392 C391 1.391 1_556 S
C392 C393 1.392 . S
C393 H370 0.948 . S
C393 C392 1.392 . S
C393 C394 1.419 1_556 S
C394 C393 1.419 1_554 S
C394 C395 1.391 . S
C394 C398 1.397 . S
C395 C390 1.391 . S
C395 C394 1.391 . S
C395 C396 1.399 . S
C396 C395 1.399 . S
C396 C397 1.396 . S
C396 C399 1.453 . S
C396 C400 1.684 . S
C397 C387 1.723 . S
C397 C396 1.396 . S
C397 C398 1.394 . S
C398 C368 1.723 1_554 S
C398 C394 1.397 . S
C398 C397 1.394 . S
C399 H371 0.982 . S
C399 H375 0.979 . S
C399 H376 0.977 . S
C399 C396 1.453 . S
C400 H372 0.979 . S
C400 H373 0.980 . S
C400 H374 0.983 . S
C400 C396 1.684 . S
H401 C419 0.948 . S
H402 C360 0.948 . S
H403 C378 0.979 . S
H404 C378 0.980 . S
H405 C378 0.983 . S
H406 C377 0.982 . S
H407 C377 0.979 . S
H408 C377 0.977 . S
H409 C379 0.948 . S
H410 C381 0.947 . S
H411 C382 0.948 . S
H412 C388 0.982 . S
H413 C388 0.979 . S
H414 C388 0.977 1_556 S
H415 C389 0.979 . S
H416 C389 0.980 1_556 S
H417 C389 0.983 . S
H418 C362 0.947 . S
C419 C362 1.392 . S
C419 C363 1.419 . S
C419 H401 0.948 . S
C420 C421 1.391 . S
C420 C424 1.391 . S
C420 H462 0.948 . S
C421 C420 1.391 . S
C421 C422 1.391 . S
C422 C421 1.391 . S
C422 H478 0.947 . S
C422 C479 1.392 . S
C423 C424 1.391 . S
C423 C427 1.397 1_556 S
C423 C479 1.419 . S
C424 C420 1.391 . S
C424 C423 1.391 . S
C424 C425 1.399 . S
C425 C424 1.399 . S
C425 C428 1.396 1_556 S
C425 C437 1.453 . S
C425 C438 1.684 . S
H426 C450 0.948 . S
C427 C423 1.397 1_554 S
C427 C428 1.394 . S
C427 C446 1.723 . S
C428 C425 1.396 1_554 S
C428 C427 1.394 . S
C428 C458 1.723 . S
H429 C452 0.947 . S
H430 C453 0.948 1_556 S
H431 C459 0.982 . S
H432 C460 0.979 . S
H433 C460 0.980 . S
H434 C460 0.983 . S
H435 C459 0.979 . S
H436 C459 0.977 . S
C437 C425 1.453 . S
C437 H466 0.982 . S
C437 H467 0.979 . S
C437 H468 0.977 . S
C438 C425 1.684 . S
C438 H463 0.979 . S
C438 H464 0.980 . S
C438 H465 0.983 . S
C439 C440 1.391 . S
C439 C444 1.391 . S
C439 H469 0.948 . S
C440 C439 1.391 . S
C440 C441 1.391 . S
C441 C440 1.391 . S
C441 C442 1.392 . S
C441 H470 0.947 . S
C442 C441 1.392 . S
C442 C443 1.419 . S
C442 H471 0.948 . S
C443 C442 1.419 . S
C443 C444 1.391 . S
C443 C447 1.397 . S
C444 C439 1.391 . S
C444 C443 1.391 . S
C444 C445 1.399 . S
C445 C444 1.399 . S
C445 C446 1.396 . S
C445 C448 1.453 . S
C445 C449 1.684 . S
C446 C427 1.723 . S
C446 C445 1.396 . S
C446 C447 1.394 . S
C447 C443 1.397 . S
C447 C446 1.394 . S
C447 C457 1.723 . S
C448 C445 1.453 . S
C448 H472 0.982 . S
C448 H473 0.979 . S
C448 H474 0.977 . S
C449 C445 1.684 . S
C449 H475 0.979 . S
C449 H476 0.980 . S
C449 H477 0.983 . S
C450 H426 0.948 . S
C450 C451 1.391 . S
C450 C455 1.391 . S
C451 C450 1.391 . S
C451 C452 1.391 . S
C452 H429 0.947 . S
C452 C451 1.391 . S
C452 C453 1.392 . S
C453 H430 0.948 1_554 S
C453 C452 1.392 . S
C453 C454 1.419 . S
C454 C453 1.419 . S
C454 C455 1.391 . S
C454 C458 1.397 . S
C455 C450 1.391 . S
C455 C454 1.391 . S
C455 C456 1.399 . S
C456 C455 1.399 . S
C456 C457 1.396 . S
C456 C459 1.453 . S
C456 C460 1.684 . S
C457 C447 1.723 . S
C457 C456 1.396 . S
C457 C458 1.394 . S
C458 C428 1.723 . S
C458 C454 1.397 . S
C458 C457 1.394 . S
C459 H431 0.982 . S
C459 H435 0.979 . S
C459 H436 0.977 . S
C459 C456 1.453 . S
C460 H432 0.979 . S
C460 H433 0.980 . S
C460 H434 0.983 . S
C460 C456 1.684 . S
H461 C479 0.948 . S
H462 C420 0.948 . S
H463 C438 0.979 . S
H464 C438 0.980 . S
H465 C438 0.983 . S
H466 C437 0.982 . S
H467 C437 0.979 . S
H468 C437 0.977 . S
H469 C439 0.948 . S
H470 C441 0.947 . S
H471 C442 0.948 . S
H472 C448 0.982 . S
H473 C448 0.979 . S
H474 C448 0.977 . S
H475 C449 0.979 . S
H476 C449 0.980 . S
H477 C449 0.983 . S
H478 C422 0.947 . S
C479 C422 1.392 . S
C479 C423 1.419 . S
C479 H461 0.948 . S
Eu480 C489 2.828 . S
Eu480 O491 2.392 . S
Eu480 O493 2.418 1_545 S
Eu480 O498 2.373 1_655 S
Eu480 O501 2.488 . S
Eu480 O502 2.471 . S
Eu480 O503 2.349 1_655 S
Eu481 O490 2.373 1_455 S
Eu481 O494 2.488 . S
Eu481 O495 2.471 . S
Eu481 O496 2.349 . S
Eu481 O499 2.392 1_565 S
Eu481 O500 2.418 1_565 S
Eu481 C510 2.828 . S
C482 O500 1.244 . S
C482 O503 1.265 . S
C483 C484 1.379 1_655 S
C483 C487 1.373 . S
C483 C489 1.505 . S
C484 C483 1.379 1_455 S
C484 C486 1.369 . S
C484 H512 0.930 . S
C485 C487 1.383 . S
C485 C488 1.370 1_655 S
C485 H513 0.930 . S
C486 C484 1.369 . S
C486 C488 1.401 . S
C486 H514 0.930 . S
C487 C483 1.373 . S
C487 C485 1.383 . S
C487 H515 0.931 . S
C488 C485 1.370 1_455 S
C488 C486 1.401 . S
C489 Eu480 2.828 . S
C489 C483 1.505 . S
C489 O501 1.249 . S
C489 O502 1.244 . S
O490 Eu481 2.373 1_655 S
O490 C492 1.258 . S
O491 Eu480 2.392 . S
O491 C492 1.242 1_545 S
C492 O490 1.258 . S
C492 O491 1.242 1_565 S
O493 Eu480 2.418 1_565 S
O493 C497 1.244 . S
O494 Eu481 2.488 . S
O494 C510 1.249 . S
O495 Eu481 2.471 . S
O495 C510 1.244 . S
O496 Eu481 2.349 . S
O496 C497 1.265 1_455 S
C497 O493 1.244 . S
C497 O496 1.265 1_655 S
O498 Eu480 2.373 1_455 S
O498 C511 1.258 . S
O499 Eu481 2.392 1_545 S
O499 C511 1.242 . S
O500 Eu481 2.418 1_545 S
O500 C482 1.244 . S
O501 Eu480 2.488 . S
O501 C489 1.249 . S
O502 Eu480 2.471 . S
O502 C489 1.244 . S
O503 Eu480 2.349 1_455 S
O503 C482 1.265 . S
C504 C505 1.379 . S
C504 C508 1.373 . S
C504 C510 1.505 . S
C505 C504 1.379 . S
C505 C507 1.369 . S
C505 H516 0.930 1_455 S
C506 C508 1.383 . S
C506 C509 1.382 . S
C506 H517 0.930 . S
C507 C505 1.369 . S
C507 C509 1.392 . S
C507 H518 0.930 1_455 S
C508 C504 1.373 . S
C508 C506 1.383 . S
C508 H519 0.931 . S
C509 C506 1.382 . S
C509 C507 1.392 . S
C510 Eu481 2.828 . S
C510 O494 1.249 . S
C510 O495 1.244 . S
C510 C504 1.505 . S
C511 O498 1.258 . S
C511 O499 1.242 . S
H512 C484 0.930 . S
H513 C485 0.930 . S
H514 C486 0.930 . S
H515 C487 0.931 . S
H516 C505 0.930 1_655 S
H517 C506 0.930 . S
H518 C507 0.930 1_655 S
H519 C508 0.931 . S
Eu520 C529 2.828 . S
Eu520 O531 2.392 . S
Eu520 O533 2.418 . S
Eu520 O538 2.373 . S
Eu520 O541 2.488 . S
Eu520 O542 2.471 . S
Eu520 O543 2.349 1_545 S
Eu521 O530 2.373 1_565 S
Eu521 O534 2.488 . S
Eu521 O535 2.471 1_565 S
Eu521 O536 2.349 1_565 S
Eu521 O539 2.392 . S
Eu521 O540 2.418 . S
Eu521 C550 2.828 . S
C522 O540 1.244 . S
C522 O543 1.265 . S
C523 C524 1.379 1_545 S
C523 C527 1.373 . S
C523 C529 1.505 . S
C524 C523 1.379 1_565 S
C524 C526 1.369 . S
C524 H552 0.930 . S
C525 C527 1.383 . S
C525 C528 1.382 . S
C525 H553 0.930 . S
C526 C524 1.369 . S
C526 C528 1.392 1_565 S
C526 H554 0.930 . S
C527 C523 1.373 . S
C527 C525 1.383 . S
C527 H555 0.931 . S
C528 C525 1.382 . S
C528 C526 1.392 1_545 S
C529 Eu520 2.828 . S
C529 C523 1.505 . S
C529 O541 1.249 . S
C529 O542 1.244 . S
O530 Eu521 2.373 1_545 S
O530 C532 1.258 . S
O531 Eu520 2.392 . S
O531 C532 1.242 . S
C532 O530 1.258 . S
C532 O531 1.242 . S
O533 Eu520 2.418 . S
O533 C537 1.244 . S
O534 Eu521 2.488 . S
O534 C550 1.249 . S
O535 Eu521 2.471 1_545 S
O535 C550 1.244 1_545 S
O536 Eu521 2.349 1_545 S
O536 C537 1.265 . S
C537 O533 1.244 . S
C537 O536 1.265 . S
O538 Eu520 2.373 . S
O538 C551 1.258 1_545 S
O539 Eu521 2.392 . S
O539 C551 1.242 . S
O540 Eu521 2.418 . S
O540 C522 1.244 . S
O541 Eu520 2.488 . S
O541 C529 1.249 . S
O542 Eu520 2.471 . S
O542 C529 1.244 . S
O543 Eu520 2.349 1_565 S
O543 C522 1.265 . S
C544 C545 1.379 1_565 S
C544 C548 1.373 . S
C544 C550 1.505 . S
C545 C544 1.379 1_545 S
C545 C547 1.369 . S
C545 H556 0.930 . S
C546 C548 1.383 . S
C546 C549 1.382 . S
C546 H557 0.930 . S
C547 C545 1.369 . S
C547 C549 1.392 1_545 S
C547 H558 0.930 . S
C548 C544 1.373 . S
C548 C546 1.383 . S
C548 H559 0.931 . S
C549 C546 1.382 . S
C549 C547 1.392 1_565 S
C550 Eu521 2.828 . S
C550 O534 1.249 . S
C550 O535 1.244 1_565 S
C550 C544 1.505 . S
C551 O538 1.258 1_565 S
C551 O539 1.242 . S
H552 C524 0.930 . S
H553 C525 0.930 . S
H554 C526 0.930 . S
H555 C527 0.931 . S
H556 C545 0.930 . S
H557 C546 0.930 . S
H558 C547 0.930 . S
H559 C548 0.931 . S
Eu560 C569 2.828 . S
Eu560 O571 2.392 . S
Eu560 O573 2.418 . S
Eu560 O578 2.373 . S
Eu560 O581 2.488 . S
Eu560 O582 2.471 . S
Eu560 O583 2.349 . S
Eu561 O570 2.373 . S
Eu561 O574 2.488 . S
Eu561 O575 2.471 . S
Eu561 O576 2.349 . S
Eu561 O579 2.392 . S
Eu561 O580 2.418 . S
Eu561 C590 2.828 . S
C562 O580 1.244 . S
C562 O583 1.265 . S
C563 C564 1.379 . S
C563 C567 1.373 . S
C563 C569 1.505 . S
C564 C563 1.379 . S
C564 C566 1.369 . S
C564 H592 0.930 . S
C565 C567 1.383 . S
C565 C568 1.382 . S
C565 H593 0.930 . S
C566 C564 1.369 . S
C566 C568 1.392 . S
C566 H594 0.930 . S
C567 C563 1.373 . S
C567 C565 1.383 . S
C567 H595 0.931 . S
C568 C565 1.382 . S
C568 C566 1.392 . S
C569 Eu560 2.828 . S
C569 C563 1.505 . S
C569 O581 1.249 . S
C569 O582 1.244 . S
O570 Eu561 2.373 . S
O570 C572 1.258 . S
O571 Eu560 2.392 . S
O571 C572 1.242 . S
C572 O570 1.258 . S
C572 O571 1.242 . S
O573 Eu560 2.418 . S
O573 C577 1.244 . S
O574 Eu561 2.488 . S
O574 C590 1.249 . S
O575 Eu561 2.471 . S
O575 C590 1.244 . S
O576 Eu561 2.349 . S
O576 C577 1.265 . S
C577 O573 1.244 . S
C577 O576 1.265 . S
O578 Eu560 2.373 . S
O578 C591 1.258 . S
O579 Eu561 2.392 . S
O579 C591 1.242 . S
O580 Eu561 2.418 . S
O580 C562 1.244 . S
O581 Eu560 2.488 . S
O581 C569 1.249 . S
O582 Eu560 2.471 . S
O582 C569 1.244 . S
O583 Eu560 2.349 . S
O583 C562 1.265 . S
C584 C585 1.379 . S
C584 C588 1.373 . S
C584 C590 1.505 . S
C585 C584 1.379 . S
C585 C587 1.369 . S
C585 H596 0.930 . S
C586 C588 1.383 . S
C586 C589 1.382 . S
C586 H597 0.930 . S
C587 C585 1.369 . S
C587 C589 1.392 . S
C587 H598 0.930 . S
C588 C584 1.373 . S
C588 C586 1.383 . S
C588 H599 0.931 . S
C589 C586 1.382 . S
C589 C587 1.392 . S
C590 Eu561 2.828 . S
C590 O574 1.249 . S
C590 O575 1.244 . S
C590 C584 1.505 . S
C591 O578 1.258 . S
C591 O579 1.242 . S
H592 C564 0.930 . S
H593 C565 0.930 . S
H594 C566 0.930 . S
H595 C567 0.931 . S
H596 C585 0.930 . S
H597 C586 0.930 . S
H598 C587 0.930 . S
H599 C588 0.931 . S
Eu600 C609 2.828 . S
Eu600 O611 2.392 . S
Eu600 O613 2.418 1_455 S
Eu600 O618 2.373 . S
Eu600 O621 2.488 . S
Eu600 O622 2.471 . S
Eu600 O623 2.349 . S
Eu601 O610 2.373 . S
Eu601 O614 2.488 . S
Eu601 O615 2.471 . S
Eu601 O616 2.349 . S
Eu601 O619 2.392 1_655 S
Eu601 O620 2.418 1_655 S
Eu601 C630 2.828 . S
C602 O620 1.244 . S
C602 O623 1.265 . S
C603 C604 1.379 . S
C603 C607 1.373 . S
C603 C609 1.505 . S
C604 C603 1.379 . S
C604 C606 1.369 . S
C604 H632 0.930 . S
C605 C607 1.383 . S
C605 C608 1.382 . S
C605 H633 0.930 . S
C606 C604 1.369 . S
C606 C608 1.392 . S
C606 H634 0.930 . S
C607 C603 1.373 . S
C607 C605 1.383 . S
C607 H635 0.931 . S
C608 C605 1.382 . S
C608 C606 1.392 . S
C609 Eu600 2.828 . S
C609 C603 1.505 . S
C609 O621 1.249 . S
C609 O622 1.244 . S
O610 Eu601 2.373 . S
O610 C612 1.258 1_655 S
O611 Eu600 2.392 . S
O611 C612 1.242 . S
C612 O610 1.258 1_455 S
C612 O611 1.242 . S
O613 Eu600 2.418 1_655 S
O613 C617 1.244 . S
O614 Eu601 2.488 . S
O614 C630 1.249 . S
O615 Eu601 2.471 . S
O615 C630 1.244 . S
O616 Eu601 2.349 . S
O616 C617 1.265 . S
C617 O613 1.244 . S
C617 O616 1.265 . S
O618 Eu600 2.373 . S
O618 C631 1.258 . S
O619 Eu601 2.392 1_455 S
O619 C631 1.242 . S
O620 Eu601 2.418 1_455 S
O620 C602 1.244 . S
O621 Eu600 2.488 . S
O621 C609 1.249 . S
O622 Eu600 2.471 . S
O622 C609 1.244 . S
O623 Eu600 2.349 . S
O623 C602 1.265 . S
C624 C625 1.379 . S
C624 C628 1.373 . S
C624 C630 1.505 . S
C625 C624 1.379 . S
C625 C627 1.369 . S
C625 H636 0.930 . S
C626 C628 1.383 . S
C626 C629 1.382 . S
C626 H637 0.930 . S
C627 C625 1.369 . S
C627 C629 1.392 . S
C627 H638 0.930 . S
C628 C624 1.373 . S
C628 C626 1.383 . S
C628 H639 0.931 . S
C629 C626 1.382 . S
C629 C627 1.392 . S
C630 Eu601 2.828 . S
C630 O614 1.249 . S
C630 O615 1.244 . S
C630 C624 1.505 . S
C631 O618 1.258 . S
C631 O619 1.242 . S
H632 C604 0.930 . S
H633 C605 0.930 . S
H634 C606 0.930 . S
H635 C607 0.931 . S
H636 C625 0.930 . S
H637 C626 0.930 . S
H638 C627 0.930 . S
H639 C628 0.931 . S
H640 C652 0.930 . S
H641 C654 0.930 . S
H642 C655 0.930 . S
H643 C659 0.959 . S
H644 C659 0.959 1_565 S
H645 C659 0.962 . S
H646 C660 0.960 . S
H647 C660 0.961 . S
H648 C660 0.959 . S
H649 C663 0.929 . S
H650 C664 0.931 . S
H651 C666 0.932 1_565 S
C652 H640 0.930 . S
C652 C653 1.399 . S
C652 C657 1.399 . S
C653 C652 1.399 . S
C653 C654 1.376 . S
C654 H641 0.930 . S
C654 C653 1.376 . S
C654 C655 1.388 . S
C655 H642 0.930 . S
C655 C654 1.388 . S
C655 C656 1.390 . S
C656 C655 1.390 . S
C656 C657 1.394 . S
C656 C662 1.465 . S
C657 C652 1.399 . S
C657 C656 1.394 . S
C657 C658 1.516 . S
C658 C657 1.516 . S
C658 C659 1.502 . S
C658 C660 1.561 1_545 S
C658 C661 1.526 . S
C659 H643 0.959 . S
C659 H644 0.959 1_545 S
C659 H645 0.962 . S
C659 C658 1.502 . S
C660 H646 0.960 . S
C660 H647 0.961 . S
C660 H648 0.959 . S
C660 C658 1.561 1_565 S
C661 C658 1.526 . S
C661 C662 1.396 . S
C661 C666 1.390 . S
C662 C656 1.465 . S
C662 C661 1.396 . S
C662 C663 1.399 . S
C663 H649 0.929 . S
C663 C662 1.399 . S
C663 C664 1.385 . S
C664 H650 0.931 . S
C664 C663 1.385 . S
C664 C665 1.389 . S
C665 C664 1.389 . S
C665 C666 1.387 . S
C666 H651 0.932 1_545 S
C666 C661 1.390 . S
C666 C665 1.387 . S
H667 C679 0.930 . S
H668 C681 0.930 . S
H669 C682 0.930 . S
H670 C686 0.959 . S
H671 C686 0.959 . S
H672 C686 0.961 . S
H673 C687 0.960 . S
H674 C687 0.961 . S
H675 C687 0.959 . S
H676 C690 0.929 . S
H677 C691 0.931 . S
H678 C693 0.930 . S
C679 H667 0.930 . S
C679 C680 1.399 . S
C679 C684 1.399 . S
C680 C679 1.399 . S
C680 C681 1.376 . S
C681 H668 0.930 . S
C681 C680 1.376 . S
C681 C682 1.388 . S
C682 H669 0.930 . S
C682 C681 1.388 . S
C682 C683 1.390 . S
C683 C682 1.390 . S
C683 C684 1.394 . S
C683 C689 1.465 . S
C684 C679 1.399 . S
C684 C683 1.394 . S
C684 C685 1.516 . S
C685 C684 1.516 . S
C685 C686 1.502 . S
C685 C687 1.561 . S
C685 C688 1.526 . S
C686 H670 0.959 . S
C686 H671 0.959 . S
C686 H672 0.961 . S
C686 C685 1.502 . S
C687 H673 0.960 . S
C687 H674 0.961 . S
C687 H675 0.959 . S
C687 C685 1.561 . S
C688 C685 1.526 . S
C688 C689 1.396 . S
C688 C693 1.390 . S
C689 C683 1.465 . S
C689 C688 1.396 . S
C689 C690 1.399 . S
C690 H676 0.929 . S
C690 C689 1.399 . S
C690 C691 1.385 . S
C691 H677 0.931 . S
C691 C690 1.385 . S
C691 C692 1.389 . S
C692 C691 1.389 . S
C692 C693 1.387 . S
C693 H678 0.930 . S
C693 C688 1.390 . S
C693 C692 1.387 . S
H694 C706 0.930 . S
H695 C708 0.930 . S
H696 C709 0.930 . S
H697 C713 0.959 . S
H698 C713 0.959 . S
H699 C713 0.961 . S
H700 C714 0.960 . S
H701 C714 0.961 . S
H702 C714 0.959 . S
H703 C717 0.929 . S
H704 C718 0.931 . S
H705 C720 0.930 . S
C706 H694 0.930 . S
C706 C707 1.399 . S
C706 C711 1.399 . S
C707 C706 1.399 . S
C707 C708 1.376 . S
C708 H695 0.930 . S
C708 C707 1.376 . S
C708 C709 1.388 . S
C709 H696 0.930 . S
C709 C708 1.388 . S
C709 C710 1.390 . S
C710 C709 1.390 . S
C710 C711 1.394 . S
C710 C716 1.465 . S
C711 C706 1.399 . S
C711 C710 1.394 . S
C711 C712 1.516 . S
C712 C711 1.516 . S
C712 C713 1.502 . S
C712 C714 1.561 . S
C712 C715 1.526 . S
C713 H697 0.959 . S
C713 H698 0.959 . S
C713 H699 0.961 . S
C713 C712 1.502 . S
C714 H700 0.960 . S
C714 H701 0.961 . S
C714 H702 0.959 . S
C714 C712 1.561 . S
C715 C712 1.526 . S
C715 C716 1.396 . S
C715 C720 1.390 . S
C716 C710 1.465 . S
C716 C715 1.396 . S
C716 C717 1.399 . S
C717 H703 0.929 . S
C717 C716 1.399 . S
C717 C718 1.385 . S
C718 H704 0.931 . S
C718 C717 1.385 . S
C718 C719 1.389 . S
C719 C718 1.389 . S
C719 C720 1.387 . S
C720 H705 0.930 . S
C720 C715 1.390 . S
C720 C719 1.387 . S
H721 C733 0.930 . S
H722 C735 0.930 . S
H723 C736 0.930 . S
H724 C740 0.959 . S
H725 C740 0.959 . S
H726 C740 0.961 . S
H727 C741 0.960 . S
H728 C741 0.961 . S
H729 C741 0.959 . S
H730 C744 0.929 . S
H731 C745 0.931 . S
H732 C747 0.930 . S
C733 H721 0.930 . S
C733 C734 1.399 . S
C733 C738 1.399 . S
C734 C733 1.399 . S
C734 C735 1.376 . S
C735 H722 0.930 . S
C735 C734 1.376 . S
C735 C736 1.388 . S
C736 H723 0.930 . S
C736 C735 1.388 . S
C736 C737 1.390 . S
C737 C736 1.390 . S
C737 C738 1.394 . S
C737 C743 1.465 . S
C738 C733 1.399 . S
C738 C737 1.394 . S
C738 C739 1.516 . S
C739 C738 1.516 . S
C739 C740 1.502 . S
C739 C741 1.561 1_455 S
C739 C742 1.526 . S
C740 H724 0.959 . S
C740 H725 0.959 . S
C740 H726 0.961 . S
C740 C739 1.502 . S
C741 H727 0.960 . S
C741 H728 0.961 . S
C741 H729 0.959 . S
C741 C739 1.561 1_655 S
C742 C739 1.526 . S
C742 C743 1.396 . S
C742 C747 1.390 . S
C743 C737 1.465 . S
C743 C742 1.396 . S
C743 C744 1.399 . S
C744 H730 0.929 . S
C744 C743 1.399 . S
C744 C745 1.385 . S
C745 H731 0.931 . S
C745 C744 1.385 . S
C745 C746 1.389 . S
C746 C745 1.389 . S
C746 C747 1.387 . S
C747 H732 0.930 . S
C747 C742 1.390 . S
C747 C746 1.387 . S
H748 C760 0.930 . S
H749 C762 0.930 . S
H750 C763 0.930 . S
H751 C767 0.959 1_565 S
H752 C767 0.959 . S
H753 C767 0.961 . S
H754 C768 0.960 . S
H755 C768 0.961 1_556 S
H756 C768 0.959 . S
H757 C771 0.929 . S
H758 C772 0.931 . S
H759 C774 0.930 1_545 S
C760 H748 0.930 . S
C760 C761 1.399 . S
C760 C765 1.399 . S
C761 C760 1.399 . S
C761 C762 1.376 . S
C762 H749 0.930 . S
C762 C761 1.376 . S
C762 C763 1.388 . S
C763 H750 0.930 . S
C763 C762 1.388 . S
C763 C764 1.390 . S
C764 C763 1.390 . S
C764 C765 1.394 . S
C764 C770 1.465 1_554 S
C765 C760 1.399 . S
C765 C764 1.394 . S
C765 C766 1.516 1_554 S
C766 C765 1.516 1_556 S
C766 C767 1.502 1_565 S
C766 C768 1.561 1_566 S
C766 C769 1.526 . S
C767 H751 0.959 1_545 S
C767 H752 0.959 . S
C767 H753 0.961 . S
C767 C766 1.502 1_545 S
C768 H754 0.960 . S
C768 H755 0.961 1_554 S
C768 H756 0.959 . S
C768 C766 1.561 1_544 S
C769 C766 1.526 . S
C769 C770 1.396 . S
C769 C774 1.390 . S
C770 C764 1.465 1_556 S
C770 C769 1.396 . S
C770 C771 1.399 . S
C771 H757 0.929 . S
C771 C770 1.399 . S
C771 C772 1.385 . S
C772 H758 0.931 . S
C772 C771 1.385 . S
C772 C773 1.389 . S
C773 C772 1.389 . S
C773 C774 1.387 . S
C774 H759 0.930 1_565 S
C774 C769 1.390 . S
C774 C773 1.387 . S
H775 C787 0.930 . S
H776 C789 0.930 . S
H777 C790 0.930 . S
H778 C794 0.959 . S
H779 C794 0.959 . S
H780 C794 0.961 . S
H781 C795 0.960 . S
H782 C795 0.961 . S
H783 C795 0.959 . S
H784 C798 0.929 . S
H785 C799 0.931 . S
H786 C801 0.930 . S
C787 H775 0.930 . S
C787 C788 1.399 . S
C787 C792 1.399 1_554 S
C788 C787 1.399 . S
C788 C789 1.376 . S
C789 H776 0.930 . S
C789 C788 1.376 . S
C789 C790 1.388 . S
C790 H777 0.930 . S
C790 C789 1.388 . S
C790 C791 1.390 1_554 S
C791 C790 1.390 1_556 S
C791 C792 1.394 . S
C791 C797 1.465 . S
C792 C787 1.399 1_556 S
C792 C791 1.394 . S
C792 C793 1.516 . S
C793 C792 1.516 . S
C793 C794 1.502 . S
C793 C795 1.561 . S
C793 C796 1.526 . S
C794 H778 0.959 . S
C794 H779 0.959 . S
C794 H780 0.961 . S
C794 C793 1.502 . S
C795 H781 0.960 . S
C795 H782 0.961 . S
C795 H783 0.959 . S
C795 C793 1.561 . S
C796 C793 1.526 . S
C796 C797 1.396 . S
C796 C801 1.390 . S
C797 C791 1.465 . S
C797 C796 1.396 . S
C797 C798 1.399 . S
C798 H784 0.929 . S
C798 C797 1.399 . S
C798 C799 1.385 . S
C799 H785 0.931 . S
C799 C798 1.385 . S
C799 C800 1.389 . S
C800 C799 1.389 . S
C800 C801 1.387 . S
C801 H786 0.930 . S
C801 C796 1.390 . S
C801 C800 1.387 . S
H802 C814 0.930 . S
H803 C816 0.930 . S
H804 C817 0.930 1_556 S
H805 C821 0.959 . S
H806 C821 0.959 . S
H807 C821 0.961 . S
H808 C822 0.960 . S
H809 C822 0.961 . S
H810 C822 0.959 . S
H811 C825 0.929 . S
H812 C826 0.931 . S
H813 C828 0.930 . S
C814 H802 0.930 . S
C814 C815 1.399 . S
C814 C819 1.399 1_554 S
C815 C814 1.399 . S
C815 C816 1.376 . S
C816 H803 0.930 . S
C816 C815 1.376 . S
C816 C817 1.388 . S
C817 H804 0.930 1_554 S
C817 C816 1.388 . S
C817 C818 1.390 1_554 S
C818 C817 1.390 1_556 S
C818 C819 1.394 . S
C818 C824 1.465 . S
C819 C814 1.399 1_556 S
C819 C818 1.394 . S
C819 C820 1.516 . S
C820 C819 1.516 . S
C820 C821 1.502 . S
C820 C822 1.561 . S
C820 C823 1.526 . S
C821 H805 0.959 . S
C821 H806 0.959 . S
C821 H807 0.961 . S
C821 C820 1.502 . S
C822 H808 0.960 . S
C822 H809 0.961 . S
C822 H810 0.959 . S
C822 C820 1.561 . S
C823 C820 1.526 . S
C823 C824 1.396 . S
C823 C828 1.390 . S
C824 C818 1.465 . S
C824 C823 1.396 . S
C824 C825 1.399 . S
C825 H811 0.929 . S
C825 C824 1.399 . S
C825 C826 1.385 . S
C826 H812 0.931 . S
C826 C825 1.385 . S
C826 C827 1.389 . S
C827 C826 1.389 . S
C827 C828 1.387 . S
C828 H813 0.930 . S
C828 C823 1.390 . S
C828 C827 1.387 . S
H829 C841 0.930 . S
H830 C843 0.930 . S
H831 C844 0.930 1_455 S
H832 C848 0.959 . S
H833 C848 0.959 . S
H834 C848 0.961 . S
H835 C849 0.960 . S
H836 C849 0.961 . S
H837 C849 0.959 . S
H838 C852 0.929 . S
H839 C853 0.931 . S
H840 C855 0.930 . S
C841 H829 0.930 . S
C841 C842 1.399 . S
C841 C846 1.388 1_554 S
C842 C841 1.399 . S
C842 C843 1.376 . S
C843 H830 0.930 . S
C843 C842 1.376 . S
C843 C844 1.388 . S
C844 H831 0.930 1_655 S
C844 C843 1.388 . S
C844 C845 1.390 . S
C845 C844 1.390 . S
C845 C846 1.392 1_554 S
C845 C851 1.465 1_554 S
C846 C841 1.388 1_556 S
C846 C845 1.392 1_556 S
C846 C847 1.529 . S
C847 C846 1.529 . S
C847 C848 1.502 . S
C847 C849 1.561 . S
C847 C850 1.526 . S
C848 H832 0.959 . S
C848 H833 0.959 . S
C848 H834 0.961 . S
C848 C847 1.502 . S
C849 H835 0.960 . S
C849 H836 0.961 . S
C849 H837 0.959 . S
C849 C847 1.561 . S
C850 C847 1.526 . S
C850 C851 1.396 . S
C850 C855 1.390 . S
C851 C845 1.465 1_556 S
C851 C850 1.396 . S
C851 C852 1.399 1_655 S
C852 H838 0.929 . S
C852 C851 1.399 1_455 S
C852 C853 1.385 . S
C853 H839 0.931 . S
C853 C852 1.385 . S
C853 C854 1.389 1_455 S
C854 C853 1.389 1_655 S
C854 C855 1.387 . S
C855 H840 0.930 . S
C855 C850 1.390 . S
C855 C854 1.387 . S
H856 C868 0.930 . S
H857 C870 0.930 . S
H858 C871 0.930 . S
H859 C875 0.959 . S
H860 C875 0.959 . S
H861 C875 0.961 . S
H862 C876 0.960 . S
H863 C876 0.961 . S
H864 C876 0.959 . S
H865 C879 0.929 . S
H866 C880 0.931 . S
H867 C882 0.930 . S
C868 H856 0.930 . S
C868 C869 1.399 . S
C868 C873 1.399 . S
C869 C868 1.399 . S
C869 C870 1.376 . S
C870 H857 0.930 . S
C870 C869 1.376 . S
C870 C871 1.388 . S
C871 H858 0.930 . S
C871 C870 1.388 . S
C871 C872 1.390 . S
C872 C871 1.390 . S
C872 C873 1.394 . S
C872 C878 1.465 . S
C873 C868 1.399 . S
C873 C872 1.394 . S
C873 C874 1.516 . S
C874 C873 1.516 . S
C874 C875 1.502 . S
C874 C876 1.561 . S
C874 C877 1.526 . S
C875 H859 0.959 . S
C875 H860 0.959 . S
C875 H861 0.961 . S
C875 C874 1.502 . S
C876 H862 0.960 . S
C876 H863 0.961 . S
C876 H864 0.959 . S
C876 C874 1.561 . S
C877 C874 1.526 . S
C877 C878 1.396 . S
C877 C882 1.390 . S
C878 C872 1.465 . S
C878 C877 1.396 . S
C878 C879 1.399 . S
C879 H865 0.929 . S
C879 C878 1.399 . S
C879 C880 1.385 1_455 S
C880 H866 0.931 . S
C880 C879 1.385 1_655 S
C880 C881 1.389 . S
C881 C880 1.389 . S
C881 C882 1.387 1_655 S
C882 H867 0.930 . S
C882 C877 1.390 . S
C882 C881 1.387 1_455 S
H883 C895 0.930 . S
H884 C897 0.930 . S
H885 C898 0.930 . S
H886 C902 0.959 . S
H887 C902 0.959 1_565 S
H888 C902 0.961 . S
H889 C903 0.960 . S
H890 C903 0.961 . S
H891 C903 0.959 . S
H892 C906 0.929 . S
H893 C907 0.931 . S
H894 C909 0.930 . S
C895 H883 0.930 . S
C895 C896 1.399 . S
C895 C900 1.399 . S
C896 C895 1.399 . S
C896 C897 1.376 . S
C897 H884 0.930 . S
C897 C896 1.376 . S
C897 C898 1.388 . S
C898 H885 0.930 . S
C898 C897 1.388 . S
C898 C899 1.390 . S
C899 C898 1.390 . S
C899 C900 1.394 . S
C899 C905 1.465 . S
C900 C895 1.399 . S
C900 C899 1.394 . S
C900 C901 1.516 . S
C901 C900 1.516 . S
C901 C902 1.502 . S
C901 C903 1.561 1_545 S
C901 C904 1.526 . S
C902 H886 0.959 . S
C902 H887 0.959 1_545 S
C902 H888 0.961 . S
C902 C901 1.502 . S
C903 H889 0.960 . S
C903 H890 0.961 . S
C903 H891 0.959 . S
C903 C901 1.561 1_565 S
C904 C901 1.526 . S
C904 C905 1.396 . S
C904 C909 1.390 1_545 S
C905 C899 1.465 . S
C905 C904 1.396 . S
C905 C906 1.399 . S
C906 H892 0.929 . S
C906 C905 1.399 . S
C906 C907 1.385 . S
C907 H893 0.931 . S
C907 C906 1.385 . S
C907 C908 1.389 1_545 S
C908 C907 1.389 1_565 S
C908 C909 1.387 . S
C909 H894 0.930 . S
C909 C904 1.390 1_565 S
C909 C908 1.387 . S
H910 C922 0.930 . S
H911 C924 0.930 . S
H912 C925 0.930 . S
H913 C929 0.959 . S
H914 C929 0.959 . S
H915 C929 0.961 . S
H916 C930 0.960 . S
H917 C930 0.961 . S
H918 C930 0.959 . S
H919 C933 0.929 . S
H920 C934 0.931 . S
H921 C936 0.930 . S
C922 H910 0.930 . S
C922 C923 1.399 . S
C922 C927 1.399 . S
C923 C922 1.399 . S
C923 C924 1.376 . S
C924 H911 0.930 . S
C924 C923 1.376 . S
C924 C925 1.388 . S
C925 H912 0.930 . S
C925 C924 1.388 . S
C925 C926 1.390 . S
C926 C925 1.390 . S
C926 C927 1.394 . S
C926 C932 1.465 . S
C927 C922 1.399 . S
C927 C926 1.394 . S
C927 C928 1.516 . S
C928 C927 1.516 . S
C928 C929 1.502 . S
C928 C930 1.561 . S
C928 C931 1.526 . S
C929 H913 0.959 . S
C929 H914 0.959 . S
C929 H915 0.961 . S
C929 C928 1.502 . S
C930 H916 0.960 . S
C930 H917 0.961 . S
C930 H918 0.959 . S
C930 C928 1.561 . S
C931 C928 1.526 . S
C931 C932 1.396 . S
C931 C936 1.390 . S
C932 C926 1.465 . S
C932 C931 1.396 . S
C932 C933 1.399 . S
C933 H919 0.929 . S
C933 C932 1.399 . S
C933 C934 1.385 . S
C934 H920 0.931 . S
C934 C933 1.385 . S
C934 C935 1.389 . S
C935 C934 1.389 . S
C935 C936 1.387 . S
C936 H921 0.930 . S
C936 C931 1.390 . S
C936 C935 1.387 . S
H937 C949 0.930 . S
H938 C951 0.930 . S
H939 C952 0.930 . S
H940 C956 0.959 . S
H941 C956 0.959 . S
H942 C956 0.961 . S
H943 C957 0.960 . S
H944 C957 0.961 . S
H945 C957 0.959 . S
H946 C960 0.929 . S
H947 C961 0.931 . S
H948 C963 0.930 . S
C949 H937 0.930 . S
C949 C950 1.399 . S
C949 C954 1.399 . S
C950 C949 1.399 . S
C950 C951 1.376 . S
C951 H938 0.930 . S
C951 C950 1.376 . S
C951 C952 1.388 . S
C952 H939 0.930 . S
C952 C951 1.388 . S
C952 C953 1.390 . S
C953 C952 1.390 . S
C953 C954 1.394 . S
C953 C959 1.465 . S
C954 C949 1.399 . S
C954 C953 1.394 . S
C954 C955 1.516 . S
C955 C954 1.516 . S
C955 C956 1.502 . S
C955 C957 1.561 . S
C955 C958 1.526 . S
C956 H940 0.959 . S
C956 H941 0.959 . S
C956 H942 0.961 . S
C956 C955 1.502 . S
C957 H943 0.960 . S
C957 H944 0.961 . S
C957 H945 0.959 . S
C957 C955 1.561 . S
C958 C955 1.526 . S
C958 C959 1.396 . S
C958 C963 1.390 . S
C959 C953 1.465 . S
C959 C958 1.396 . S
C959 C960 1.399 . S
C960 H946 0.929 . S
C960 C959 1.399 . S
C960 C961 1.385 . S
C961 H947 0.931 . S
C961 C960 1.385 . S
C961 C962 1.389 . S
C962 C961 1.389 . S
C962 C963 1.387 . S
C963 H948 0.930 . S
C963 C958 1.390 . S
C963 C962 1.387 . S
H964 C976 0.930 . S
H965 C978 0.930 . S
H966 C979 0.930 . S
H967 C983 0.959 . S
H968 C983 0.959 . S
H969 C983 0.961 . S
H970 C984 0.960 . S
H971 C984 0.961 . S
H972 C984 0.959 . S
H973 C987 0.929 . S
H974 C988 0.931 . S
H975 C990 0.930 . S
C976 H964 0.930 . S
C976 C977 1.399 . S
C976 C981 1.399 . S
C977 C976 1.399 . S
C977 C978 1.376 . S
C978 H965 0.930 . S
C978 C977 1.376 . S
C978 C979 1.388 . S
C979 H966 0.930 . S
C979 C978 1.388 . S
C979 C980 1.390 . S
C980 C979 1.390 . S
C980 C981 1.394 . S
C980 C986 1.465 1_554 S
C981 C976 1.399 . S
C981 C980 1.394 . S
C981 C982 1.516 1_655 S
C982 C981 1.516 1_455 S
C982 C983 1.502 . S
C982 C984 1.561 1_554 S
C982 C985 1.526 1_554 S
C983 H967 0.959 . S
C983 H968 0.959 . S
C983 H969 0.961 . S
C983 C982 1.502 . S
C984 H970 0.960 . S
C984 H971 0.961 . S
C984 H972 0.959 . S
C984 C982 1.561 1_556 S
C985 C982 1.526 1_556 S
C985 C986 1.396 1_455 S
C985 C990 1.390 . S
C986 C980 1.465 1_556 S
C986 C985 1.396 1_655 S
C986 C987 1.399 . S
C987 H973 0.929 . S
C987 C986 1.399 . S
C987 C988 1.385 . S
C988 H974 0.931 . S
C988 C987 1.385 . S
C988 C989 1.389 1_655 S
C989 C988 1.389 1_455 S
C989 C990 1.387 . S
C990 H975 0.930 . S
C990 C985 1.390 . S
C990 C989 1.387 . S
H991 C1003 0.930 . S
H992 C1005 0.930 . S
H993 C1006 0.930 . S
H994 C1010 0.959 . S
H995 C1010 0.959 . S
H996 C1010 0.961 . S
H997 C1011 0.960 . S
H998 C1011 0.959 1_556 S
H999 C1011 0.959 1_556 S
H1000 C1014 0.929 . S
H1001 C1015 0.931 . S
H1002 C1017 0.930 . S
C1003 H991 0.930 . S
C1003 C1004 1.399 . S
C1003 C1008 1.399 . S
C1004 C1003 1.399 . S
C1004 C1005 1.376 . S
C1005 H992 0.930 . S
C1005 C1004 1.376 . S
C1005 C1006 1.388 1_554 S
C1006 H993 0.930 . S
C1006 C1005 1.388 1_556 S
C1006 C1007 1.390 . S
C1007 C1006 1.390 . S
C1007 C1008 1.394 1_556 S
C1007 C1013 1.465 . S
C1008 C1003 1.399 . S
C1008 C1007 1.394 1_554 S
C1008 C1009 1.516 1_565 S
C1009 C1008 1.516 1_545 S
C1009 C1010 1.502 . S
C1009 C1011 1.561 . S
C1009 C1012 1.526 1_554 S
C1010 H994 0.959 . S
C1010 H995 0.959 . S
C1010 H996 0.961 . S
C1010 C1009 1.502 . S
C1011 H997 0.960 . S
C1011 H998 0.959 1_554 S
C1011 H999 0.959 1_554 S
C1011 C1009 1.561 . S
C1012 C1009 1.526 1_556 S
C1012 C1013 1.396 1_545 S
C1012 C1017 1.390 . S
C1013 C1007 1.465 . S
C1013 C1012 1.396 1_565 S
C1013 C1014 1.399 . S
C1014 H1000 0.929 . S
C1014 C1013 1.399 . S
C1014 C1015 1.385 . S
C1015 H1001 0.931 . S
C1015 C1014 1.385 . S
C1015 C1016 1.389 1_565 S
C1016 C1015 1.389 1_545 S
C1016 C1017 1.387 . S
C1017 H1002 0.930 . S
C1017 C1012 1.390 . S
C1017 C1016 1.387 . S
H1018 C1030 0.930 . S
H1019 C1032 0.930 . S
H1020 C1033 0.930 . S
H1021 C1037 0.959 . S
H1022 C1037 0.959 . S
H1023 C1037 0.961 . S
H1024 C1038 0.960 1_554 S
H1025 C1038 0.961 . S
H1026 C1038 0.959 . S
H1027 C1041 0.929 . S
H1028 C1042 0.931 . S
H1029 C1044 0.930 . S
C1030 H1018 0.930 . S
C1030 C1031 1.399 . S
C1030 C1035 1.399 1_554 S
C1031 C1030 1.399 . S
C1031 C1032 1.376 1_554 S
C1032 H1019 0.930 . S
C1032 C1031 1.376 1_556 S
C1032 C1033 1.388 . S
C1033 H1020 0.930 . S
C1033 C1032 1.388 . S
C1033 C1034 1.390 . S
C1034 C1033 1.390 . S
C1034 C1035 1.394 . S
C1034 C1040 1.465 . S
C1035 C1030 1.399 1_556 S
C1035 C1034 1.394 . S
C1035 C1036 1.516 . S
C1036 C1035 1.516 . S
C1036 C1037 1.502 1_556 S
C1036 C1038 1.561 . S
C1036 C1039 1.526 . S
C1037 H1021 0.959 . S
C1037 H1022 0.959 . S
C1037 H1023 0.961 . S
C1037 C1036 1.502 1_554 S
C1038 H1024 0.960 1_556 S
C1038 H1025 0.961 . S
C1038 H1026 0.959 . S
C1038 C1036 1.561 . S
C1039 C1036 1.526 . S
C1039 C1040 1.396 . S
C1039 C1044 1.390 . S
C1040 C1034 1.465 . S
C1040 C1039 1.396 . S
C1040 C1041 1.399 . S
C1041 H1027 0.929 . S
C1041 C1040 1.399 . S
C1041 C1042 1.385 . S
C1042 H1028 0.931 . S
C1042 C1041 1.385 . S
C1042 C1043 1.389 . S
C1043 C1042 1.389 . S
C1043 C1044 1.387 . S
C1044 H1029 0.930 . S
C1044 C1039 1.390 . S
C1044 C1043 1.387 . S
H1045 C1057 0.930 . S
H1046 C1059 0.930 . S
H1047 C1060 0.930 . S
H1048 C1064 0.959 . S
H1049 C1064 0.959 . S
H1050 C1064 0.961 . S
H1051 C1065 0.960 . S
H1052 C1065 0.961 . S
H1053 C1065 0.959 . S
H1054 C1068 0.929 . S
H1055 C1069 0.931 . S
H1056 C1071 0.930 1_554 S
C1057 H1045 0.930 . S
C1057 C1058 1.399 . S
C1057 C1062 1.399 . S
C1058 C1057 1.399 . S
C1058 C1059 1.376 1_554 S
C1059 H1046 0.930 . S
C1059 C1058 1.376 1_556 S
C1059 C1060 1.388 . S
C1060 H1047 0.930 . S
C1060 C1059 1.388 . S
C1060 C1061 1.390 . S
C1061 C1060 1.390 . S
C1061 C1062 1.394 1_556 S
C1061 C1067 1.465 . S
C1062 C1057 1.399 . S
C1062 C1061 1.394 1_554 S
C1062 C1063 1.516 . S
C1063 C1062 1.516 . S
C1063 C1064 1.502 . S
C1063 C1065 1.561 . S
C1063 C1066 1.526 1_554 S
C1064 H1048 0.959 . S
C1064 H1049 0.959 . S
C1064 H1050 0.961 . S
C1064 C1063 1.502 . S
C1065 H1051 0.960 . S
C1065 H1052 0.961 . S
C1065 H1053 0.959 . S
C1065 C1063 1.561 . S
C1066 C1063 1.526 1_556 S
C1066 C1067 1.396 . S
C1066 C1071 1.390 . S
C1067 C1061 1.465 . S
C1067 C1066 1.396 . S
C1067 C1068 1.399 . S
C1068 H1054 0.929 . S
C1068 C1067 1.399 . S
C1068 C1069 1.385 . S
C1069 H1055 0.931 . S
C1069 C1068 1.385 . S
C1069 C1070 1.389 . S
C1070 C1069 1.389 . S
C1070 C1071 1.387 . S
C1071 H1056 0.930 1_556 S
C1071 C1066 1.390 . S
C1071 C1070 1.387 . S
H1072 C1084 0.930 . S
H1073 C1086 0.930 . S
H1074 C1087 0.930 . S
H1075 C1091 0.959 . S
H1076 C1091 0.959 . S
H1077 C1091 0.961 . S
H1078 C1092 0.960 . S
H1079 C1092 0.961 . S
H1080 C1092 0.959 . S
H1081 C1095 0.929 . S
H1082 C1096 0.931 . S
H1083 C1098 0.930 . S
C1084 H1072 0.930 . S
C1084 C1085 1.399 . S
C1084 C1089 1.399 . S
C1085 C1084 1.399 . S
C1085 C1086 1.376 . S
C1086 H1073 0.930 . S
C1086 C1085 1.376 . S
C1086 C1087 1.388 . S
C1087 H1074 0.930 . S
C1087 C1086 1.388 . S
C1087 C1088 1.390 . S
C1088 C1087 1.390 . S
C1088 C1089 1.394 . S
C1088 C1094 1.465 . S
C1089 C1084 1.399 . S
C1089 C1088 1.394 . S
C1089 C1090 1.516 . S
C1090 C1089 1.516 . S
C1090 C1091 1.502 . S
C1090 C1092 1.561 . S
C1090 C1093 1.526 . S
C1091 H1075 0.959 . S
C1091 H1076 0.959 . S
C1091 H1077 0.961 . S
C1091 C1090 1.502 . S
C1092 H1078 0.960 . S
C1092 H1079 0.961 . S
C1092 H1080 0.959 . S
C1092 C1090 1.561 . S
C1093 C1090 1.526 . S
C1093 C1094 1.396 . S
C1093 C1098 1.390 . S
C1094 C1088 1.465 . S
C1094 C1093 1.396 . S
C1094 C1095 1.399 . S
C1095 H1081 0.929 . S
C1095 C1094 1.399 . S
C1095 C1096 1.385 . S
C1096 H1082 0.931 . S
C1096 C1095 1.385 . S
C1096 C1097 1.389 . S
C1097 C1096 1.389 . S
C1097 C1098 1.387 . S
C1098 H1083 0.930 . S
C1098 C1093 1.390 . S
C1098 C1097 1.387 . S
H1099 C1111 0.930 . S
H1100 C1113 0.930 . S
H1101 C1114 0.930 . S
H1102 C1118 0.959 . S
H1103 C1118 0.959 . S
H1104 C1118 0.961 . S
H1105 C1119 0.960 . S
H1106 C1119 0.961 . S
H1107 C1119 0.959 . S
H1108 C1122 0.929 . S
H1109 C1123 0.931 . S
H1110 C1125 0.930 . S
C1111 H1099 0.930 . S
C1111 C1112 1.399 . S
C1111 C1116 1.399 . S
C1112 C1111 1.399 . S
C1112 C1113 1.376 . S
C1113 H1100 0.930 . S
C1113 C1112 1.376 . S
C1113 C1114 1.388 . S
C1114 H1101 0.930 . S
C1114 C1113 1.388 . S
C1114 C1115 1.390 . S
C1115 C1114 1.390 . S
C1115 C1116 1.394 . S
C1115 C1121 1.465 . S
C1116 C1111 1.399 . S
C1116 C1115 1.394 . S
C1116 C1117 1.516 . S
C1117 C1116 1.516 . S
C1117 C1118 1.502 . S
C1117 C1119 1.561 . S
C1117 C1120 1.526 . S
C1118 H1102 0.959 . S
C1118 H1103 0.959 . S
C1118 H1104 0.961 . S
C1118 C1117 1.502 . S
C1119 H1105 0.960 . S
C1119 H1106 0.961 . S
C1119 H1107 0.959 . S
C1119 C1117 1.561 . S
C1120 C1117 1.526 . S
C1120 C1121 1.396 . S
C1120 C1125 1.390 . S
C1121 C1115 1.465 . S
C1121 C1120 1.396 . S
C1121 C1122 1.399 . S
C1122 H1108 0.929 . S
C1122 C1121 1.399 . S
C1122 C1123 1.385 . S
C1123 H1109 0.931 . S
C1123 C1122 1.385 . S
C1123 C1124 1.389 . S
C1124 C1123 1.389 . S
C1124 C1125 1.387 . S
C1125 H1110 0.930 . S
C1125 C1120 1.390 . S
C1125 C1124 1.387 . S
H1126 C1138 0.930 . S
H1127 C1140 0.930 . S
H1128 C1141 0.930 . S
H1129 C1145 0.959 . S
H1130 C1145 0.959 . S
H1131 C1145 0.961 . S
H1132 C1146 0.960 . S
H1133 C1146 0.961 . S
H1134 C1146 0.959 . S
H1135 C1149 0.929 . S
H1136 C1150 0.931 . S
H1137 C1152 0.930 . S
C1138 H1126 0.930 . S
C1138 C1139 1.399 . S
C1138 C1143 1.399 . S
C1139 C1138 1.399 . S
C1139 C1140 1.376 . S
C1140 H1127 0.930 . S
C1140 C1139 1.376 . S
C1140 C1141 1.388 . S
C1141 H1128 0.930 . S
C1141 C1140 1.388 . S
C1141 C1142 1.390 . S
C1142 C1141 1.390 . S
C1142 C1143 1.394 . S
C1142 C1148 1.465 . S
C1143 C1138 1.399 . S
C1143 C1142 1.394 . S
C1143 C1144 1.516 . S
C1144 C1143 1.516 . S
C1144 C1145 1.502 . S
C1144 C1146 1.561 . S
C1144 C1147 1.526 . S
C1145 H1129 0.959 . S
C1145 H1130 0.959 . S
C1145 H1131 0.961 . S
C1145 C1144 1.502 . S
C1146 H1132 0.960 . S
C1146 H1133 0.961 . S
C1146 H1134 0.959 . S
C1146 C1144 1.561 . S
C1147 C1144 1.526 . S
C1147 C1148 1.396 . S
C1147 C1152 1.390 . S
C1148 C1142 1.465 . S
C1148 C1147 1.396 . S
C1148 C1149 1.399 . S
C1149 H1135 0.929 . S
C1149 C1148 1.399 . S
C1149 C1150 1.385 . S
C1150 H1136 0.931 . S
C1150 C1149 1.385 . S
C1150 C1151 1.389 . S
C1151 C1150 1.389 . S
C1151 C1152 1.387 . S
C1152 H1137 0.930 . S
C1152 C1147 1.390 . S
C1152 C1151 1.387 . S
H1153 C1165 0.930 . S
H1154 C1167 0.930 . S
H1155 C1168 0.930 . S
H1156 C1172 0.959 . S
H1157 C1172 0.959 . S
H1158 C1172 0.961 . S
H1159 C1173 0.960 . S
H1160 C1173 0.961 . S
H1161 C1173 0.959 . S
H1162 C1176 0.929 . S
H1163 C1177 0.931 . S
H1164 C1179 0.930 . S
C1165 H1153 0.930 . S
C1165 C1166 1.399 . S
C1165 C1170 1.399 . S
C1166 C1165 1.399 . S
C1166 C1167 1.376 . S
C1167 H1154 0.930 . S
C1167 C1166 1.376 . S
C1167 C1168 1.388 . S
C1168 H1155 0.930 . S
C1168 C1167 1.388 . S
C1168 C1169 1.390 . S
C1169 C1168 1.390 . S
C1169 C1170 1.394 . S
C1169 C1175 1.465 . S
C1170 C1165 1.399 . S
C1170 C1169 1.394 . S
C1170 C1171 1.516 . S
C1171 C1170 1.516 . S
C1171 C1172 1.502 . S
C1171 C1173 1.561 . S
C1171 C1174 1.526 . S
C1172 H1156 0.959 . S
C1172 H1157 0.959 . S
C1172 H1158 0.961 . S
C1172 C1171 1.502 . S
C1173 H1159 0.960 . S
C1173 H1160 0.961 . S
C1173 H1161 0.959 . S
C1173 C1171 1.561 . S
C1174 C1171 1.526 . S
C1174 C1175 1.396 . S
C1174 C1179 1.390 . S
C1175 C1169 1.465 . S
C1175 C1174 1.396 . S
C1175 C1176 1.399 . S
C1176 H1162 0.929 . S
C1176 C1175 1.399 . S
C1176 C1177 1.385 . S
C1177 H1163 0.931 . S
C1177 C1176 1.385 . S
C1177 C1178 1.389 . S
C1178 C1177 1.389 . S
C1178 C1179 1.387 . S
C1179 H1164 0.930 . S
C1179 C1174 1.390 . S
C1179 C1178 1.387 . S
H1180 C1192 0.930 . S
H1181 C1194 0.930 1_455 S
H1182 C1195 0.947 . S
H1183 C1199 0.959 . S
H1184 C1199 0.959 . S
H1185 C1199 0.961 . S
H1186 C1200 0.960 . S
H1187 C1200 0.961 . S
H1188 C1200 0.959 . S
H1189 C1203 0.929 . S
H1190 C1204 0.931 . S
H1191 C1206 0.930 . S
C1192 H1180 0.930 . S
C1192 C1193 1.399 . S
C1192 C1197 1.399 . S
C1193 C1192 1.399 . S
C1193 C1194 1.376 . S
C1194 H1181 0.930 1_655 S
C1194 C1193 1.376 . S
C1194 C1195 1.383 1_655 S
C1195 H1182 0.947 . S
C1195 C1194 1.383 1_455 S
C1195 C1196 1.379 1_455 S
C1196 C1195 1.379 1_655 S
C1196 C1197 1.394 . S
C1196 C1202 1.465 . S
C1197 C1192 1.399 . S
C1197 C1196 1.394 . S
C1197 C1198 1.516 . S
C1198 C1197 1.516 . S
C1198 C1199 1.502 . S
C1198 C1200 1.561 . S
C1198 C1201 1.526 . S
C1199 H1183 0.959 . S
C1199 H1184 0.959 . S
C1199 H1185 0.961 . S
C1199 C1198 1.502 . S
C1200 H1186 0.960 . S
C1200 H1187 0.961 . S
C1200 H1188 0.959 . S
C1200 C1198 1.561 . S
C1201 C1198 1.526 . S
C1201 C1202 1.396 . S
C1201 C1206 1.390 . S
C1202 C1196 1.465 . S
C1202 C1201 1.396 . S
C1202 C1203 1.399 1_655 S
C1203 H1189 0.929 . S
C1203 C1202 1.399 1_455 S
C1203 C1204 1.385 . S
C1204 H1190 0.931 . S
C1204 C1203 1.385 . S
C1204 C1205 1.389 1_455 S
C1205 C1204 1.389 1_655 S
C1205 C1206 1.387 . S
C1206 H1191 0.930 . S
C1206 C1201 1.390 . S
C1206 C1205 1.387 . S
H1207 C1219 0.930 . S
H1208 C1221 0.930 . S
H1209 C1222 0.930 . S
H1210 C1226 0.959 . S
H1211 C1226 0.959 . S
H1212 C1226 0.961 . S
H1213 C1227 0.960 . S
H1214 C1227 0.961 . S
H1215 C1227 0.959 . S
H1216 C1230 0.929 . S
H1217 C1231 0.931 . S
H1218 C1233 0.930 . S
C1219 H1207 0.930 . S
C1219 C1220 1.399 . S
C1219 C1224 1.399 . S
C1220 C1219 1.399 . S
C1220 C1221 1.376 . S
C1221 H1208 0.930 . S
C1221 C1220 1.376 . S
C1221 C1222 1.388 . S
C1222 H1209 0.930 . S
C1222 C1221 1.388 . S
C1222 C1223 1.390 . S
C1223 C1222 1.390 . S
C1223 C1224 1.394 . S
C1223 C1229 1.465 . S
C1224 C1219 1.399 . S
C1224 C1223 1.394 . S
C1224 C1225 1.516 . S
C1225 C1224 1.516 . S
C1225 C1226 1.502 . S
C1225 C1227 1.561 . S
C1225 C1228 1.526 . S
C1226 H1210 0.959 . S
C1226 H1211 0.959 . S
C1226 H1212 0.961 . S
C1226 C1225 1.502 . S
C1227 H1213 0.960 . S
C1227 H1214 0.961 . S
C1227 H1215 0.959 . S
C1227 C1225 1.561 . S
C1228 C1225 1.526 . S
C1228 C1229 1.396 . S
C1228 C1233 1.390 . S
C1229 C1223 1.465 . S
C1229 C1228 1.396 . S
C1229 C1230 1.399 . S
C1230 H1216 0.929 . S
C1230 C1229 1.399 . S
C1230 C1231 1.385 . S
C1231 H1217 0.931 . S
C1231 C1230 1.385 . S
C1231 C1232 1.389 . S
C1232 C1231 1.389 . S
C1232 C1233 1.387 . S
C1233 H1218 0.930 . S
C1233 C1228 1.390 . S
C1233 C1232 1.387 . S
H1234 C1246 0.930 . S
H1235 C1248 0.930 . S
H1236 C1249 0.930 . S
H1237 C1253 0.959 . S
H1238 C1253 0.959 . S
H1239 C1253 0.961 . S
H1240 C1254 0.960 . S
H1241 C1254 0.961 . S
H1242 C1254 0.959 . S
H1243 C1257 0.929 . S
H1244 C1258 0.931 . S
H1245 C1260 0.930 . S
C1246 H1234 0.930 . S
C1246 C1247 1.399 . S
C1246 C1251 1.399 . S
C1247 C1246 1.399 . S
C1247 C1248 1.376 . S
C1248 H1235 0.930 . S
C1248 C1247 1.376 . S
C1248 C1249 1.388 . S
C1249 H1236 0.930 . S
C1249 C1248 1.388 . S
C1249 C1250 1.390 . S
C1250 C1249 1.390 . S
C1250 C1251 1.394 . S
C1250 C1256 1.465 . S
C1251 C1246 1.399 . S
C1251 C1250 1.394 . S
C1251 C1252 1.516 . S
C1252 C1251 1.516 . S
C1252 C1253 1.502 . S
C1252 C1254 1.561 . S
C1252 C1255 1.526 . S
C1253 H1237 0.959 . S
C1253 H1238 0.959 . S
C1253 H1239 0.961 . S
C1253 C1252 1.502 . S
C1254 H1240 0.960 . S
C1254 H1241 0.961 . S
C1254 H1242 0.959 . S
C1254 C1252 1.561 . S
C1255 C1252 1.526 . S
C1255 C1256 1.396 . S
C1255 C1260 1.390 . S
C1256 C1250 1.465 . S
C1256 C1255 1.396 . S
C1256 C1257 1.399 . S
C1257 H1243 0.929 . S
C1257 C1256 1.399 . S
C1257 C1258 1.385 . S
C1258 H1244 0.931 . S
C1258 C1257 1.385 . S
C1258 C1259 1.389 . S
C1259 C1258 1.389 . S
C1259 C1260 1.387 . S
C1260 H1245 0.930 . S
C1260 C1255 1.390 . S
C1260 C1259 1.387 . S
H1261 C1273 0.930 . S
H1262 C1275 0.930 . S
H1263 C1276 0.930 . S
H1264 C1280 0.959 . S
H1265 C1280 0.959 . S
H1266 C1280 0.961 . S
H1267 C1281 0.960 . S
H1268 C1281 0.961 . S
H1269 C1281 0.959 . S
H1270 C1284 0.929 . S
H1271 C1285 0.931 . S
H1272 C1287 0.930 . S
C1273 H1261 0.930 . S
C1273 C1274 1.399 . S
C1273 C1278 1.399 . S
C1274 C1273 1.399 . S
C1274 C1275 1.376 . S
C1275 H1262 0.930 . S
C1275 C1274 1.376 . S
C1275 C1276 1.388 . S
C1276 H1263 0.930 . S
C1276 C1275 1.388 . S
C1276 C1277 1.390 . S
C1277 C1276 1.390 . S
C1277 C1278 1.394 . S
C1277 C1283 1.465 . S
C1278 C1273 1.399 . S
C1278 C1277 1.394 . S
C1278 C1279 1.516 . S
C1279 C1278 1.516 . S
C1279 C1280 1.502 . S
C1279 C1281 1.561 . S
C1279 C1282 1.526 . S
C1280 H1264 0.959 . S
C1280 H1265 0.959 . S
C1280 H1266 0.961 . S
C1280 C1279 1.502 . S
C1281 H1267 0.960 . S
C1281 H1268 0.961 . S
C1281 H1269 0.959 . S
C1281 C1279 1.561 . S
C1282 C1279 1.526 . S
C1282 C1283 1.396 . S
C1282 C1287 1.390 . S
C1283 C1277 1.465 . S
C1283 C1282 1.396 . S
C1283 C1284 1.399 . S
C1284 H1270 0.929 . S
C1284 C1283 1.399 . S
C1284 C1285 1.385 . S
C1285 H1271 0.931 . S
C1285 C1284 1.385 . S
C1285 C1286 1.389 . S
C1286 C1285 1.389 . S
C1286 C1287 1.387 . S
C1287 H1272 0.930 . S
C1287 C1282 1.390 . S
C1287 C1286 1.387 . S
C653 C391 2.845 . S
C665 C511 2.936 . S
C692 C537 2.342 . S
C680 C451 2.268 . S
C719 C577 2.358 . S
C707 C241 1.938 . S
C746 C631 2.868 . S
C734 C331 2.436 . S
C773 C492 2.913 . S
C761 C121 2.585 . S
C788 C211 2.299 . S
C800 C522 2.341 . S
C815 C31 2.265 . S
C827 C562 2.351 . S
C842 C91 2.542 . S
C854 C612 2.842 1_655 S
C881 C488 0.530 1_655 S
C869 C301 0.481 . S
C908 C549 0.561 . S
C896 C380 0.708 . S
C935 C589 0.376 . S
C923 C440 0.311 . S
C950 C260 0.548 . S
C962 C608 0.493 . S
C977 C61 0.600 . S
C989 C509 0.342 . S
C1016 C528 0.631 . S
C1004 C140 0.717 . S
C1043 C568 0.450 . S
C1031 C200 0.321 . S
C1058 C20 0.500 . S
C1070 C629 0.244 . S
C1085 C320 2.660 . S
C1097 C482 2.873 . S
C1112 C361 2.973 . S
C1124 C532 3.488 . S
C1151 C572 3.223 . S
C1139 C421 2.633 . S
C1178 C602 2.585 . S
C1166 C271 2.416 . S
C1193 C80 2.680 . S
C1205 C497 2.886 . S
C1232 C551 3.497 . S
C1220 C151 3.294 . S
C1259 C591 3.215 . S
C1247 C181 2.686 . S
C1274 C1 2.006 . S
C1286 C617 2.602 . S
