# Generated by pormake.
# Topology zzz, (3,6)-cn, num edge types: 1
# Building blocks:
#     Node 0, Type 0, BuildingBlock: CUQRIR_clean_linker_1, # of connection points: 3
#     Node 1, Type 0, BuildingBlock: CUQRIR_clean_linker_1, # of connection points: 3
#     Node 2, Type 0, BuildingBlock: CUQRIR_clean_linker_1, # of connection points: 3
#     Node 3, Type 0, BuildingBlock: CUQRIR_clean_linker_1, # of connection points: 3
#     Node 4, Type 0, BuildingBlock: CUQRIR_clean_linker_1, # of connection points: 3
#     Node 5, Type 0, BuildingBlock: CUQRIR_clean_linker_1, # of connection points: 3
#     Node 6, Type 0, BuildingBlock: CUQRIR_clean_linker_1, # of connection points: 3
#     Node 7, Type 0, BuildingBlock: CUQRIR_clean_linker_1, # of connection points: 3
#     Node 8, Type 1, BuildingBlock: KUMJIN_clean_sbu_0, # of connection points: 6
#     Node 9, Type 1, BuildingBlock: KUMJIN_clean_sbu_0, # of connection points: 6
#     Node 10, Type 1, BuildingBlock: KUMJIN_clean_sbu_0, # of connection points: 6
#     Node 11, Type 1, BuildingBlock: KUMJIN_clean_sbu_0, # of connection points: 6
#     Edge 12, Type (0, 1), BuildingBlock: XUDNAN_clean_linker_2, # of connection points: 2
#     Edge 13, Type (0, 1), BuildingBlock: XUDNAN_clean_linker_2, # of connection points: 2
#     Edge 14, Type (0, 1), BuildingBlock: XUDNAN_clean_linker_2, # of connection points: 2
#     Edge 15, Type (0, 1), BuildingBlock: XUDNAN_clean_linker_2, # of connection points: 2
#     Edge 16, Type (0, 1), BuildingBlock: XUDNAN_clean_linker_2, # of connection points: 2
#     Edge 17, Type (0, 1), BuildingBlock: XUDNAN_clean_linker_2, # of connection points: 2
#     Edge 18, Type (0, 1), BuildingBlock: XUDNAN_clean_linker_2, # of connection points: 2
#     Edge 19, Type (0, 1), BuildingBlock: XUDNAN_clean_linker_2, # of connection points: 2
#     Edge 20, Type (0, 1), BuildingBlock: XUDNAN_clean_linker_2, # of connection points: 2
#     Edge 21, Type (0, 1), BuildingBlock: XUDNAN_clean_linker_2, # of connection points: 2
#     Edge 22, Type (0, 1), BuildingBlock: XUDNAN_clean_linker_2, # of connection points: 2
#     Edge 23, Type (0, 1), BuildingBlock: XUDNAN_clean_linker_2, # of connection points: 2
#     Edge 24, Type (0, 1), BuildingBlock: XUDNAN_clean_linker_2, # of connection points: 2
#     Edge 25, Type (0, 1), BuildingBlock: XUDNAN_clean_linker_2, # of connection points: 2
#     Edge 26, Type (0, 1), BuildingBlock: XUDNAN_clean_linker_2, # of connection points: 2
#     Edge 27, Type (0, 1), BuildingBlock: XUDNAN_clean_linker_2, # of connection points: 2
#     Edge 28, Type (0, 1), BuildingBlock: XUDNAN_clean_linker_2, # of connection points: 2
#     Edge 29, Type (0, 1), BuildingBlock: XUDNAN_clean_linker_2, # of connection points: 2
#     Edge 30, Type (0, 1), BuildingBlock: XUDNAN_clean_linker_2, # of connection points: 2
#     Edge 31, Type (0, 1), BuildingBlock: XUDNAN_clean_linker_2, # of connection points: 2
#     Edge 32, Type (0, 1), BuildingBlock: XUDNAN_clean_linker_2, # of connection points: 2
#     Edge 33, Type (0, 1), BuildingBlock: XUDNAN_clean_linker_2, # of connection points: 2
#     Edge 34, Type (0, 1), BuildingBlock: XUDNAN_clean_linker_2, # of connection points: 2
#     Edge 35, Type (0, 1), BuildingBlock: XUDNAN_clean_linker_2, # of connection points: 2
# Relax obj value: 0.208
# Max RMSD: 0.170
# Mean RMSD: 0.120
data_MOF--net-zzz--node1-KUMJIN_clean_sbu_0--node2-CUQRIR_clean_linker_1--edge1-XUDNAN_clean_linker_2
_symmetry_space_group_name_H-M    P1
_symmetry_Int_Tables_number       1
_symmetry_cell_setting            triclinic
loop_
_symmetry_equiv_pos_as_xyz
'x, y, z'
_cell_length_a     47.443427
_cell_length_b     47.464435
_cell_length_c     13.418124
_cell_angle_alpha  90.992784
_cell_angle_beta   90.057468
_cell_angle_gamma 89.967967
loop_
_atom_site_label
_atom_site_type_symbol
_atom_site_fract_x
_atom_site_fract_y
_atom_site_fract_z
_atom_type_partial_charge
C0 C 0.74045 0.53407 0.29611 0.0
N1 N 0.76609 0.54602 0.32131 0.0
N2 N 0.72465 0.55108 0.23454 0.0
C3 C 0.73092 0.50593 0.33168 0.0
C4 C 0.74249 0.5733 0.22156 0.0
N5 N 0.76668 0.57049 0.27452 0.0
C6 C 0.73776 0.59676 0.14814 0.0
H7 H 0.7355 0.48979 0.27311 0.0
H8 H 0.70786 0.50612 0.34542 0.0
H9 H 0.7423 0.50014 0.40069 0.0
H10 H 0.72614 0.61422 0.18562 0.0
H11 H 0.72562 0.58915 0.08232 0.0
H12 H 0.75763 0.60603 0.12097 0.0
C13 C 1.00685 0.75512 0.27556 0.0
N14 N 0.99474 0.78104 0.29904 0.0
N15 N 0.98738 0.73613 0.23676 0.0
C16 C 0.03686 0.74757 0.29744 0.0
C17 C 0.96332 0.75157 0.24954 0.0
N18 N 0.96816 0.77934 0.26745 0.0
C19 C 0.93465 0.7392 0.2688 0.0
H20 H 0.04893 0.74664 0.22668 0.0
H21 H 0.03771 0.72655 0.33208 0.0
H22 H 0.04688 0.76292 0.34935 0.0
H23 H 0.9358 0.71615 0.28071 0.0
H24 H 0.9202 0.74381 0.20611 0.0
H25 H 0.92541 0.74948 0.33617 0.0
C26 C 0.78279 1.00294 0.30691 0.0
N27 N 0.75493 0.99569 0.29567 0.0
N28 N 0.79914 0.99242 0.23038 0.0
C29 C 0.79358 0.02266 0.38639 0.0
C30 C 0.77983 0.97893 0.17255 0.0
N31 N 0.7531 0.98281 0.20699 0.0
C32 C 0.78638 0.96774 0.06916 0.0
H33 H 0.79112 0.04464 0.36084 0.0
H34 H 0.81629 0.01873 0.40054 0.0
H35 H 0.78131 0.02029 0.45611 0.0
H36 H 0.77042 0.95203 0.04462 0.0
H37 H 0.80745 0.95764 0.06695 0.0
H38 H 0.78635 0.98545 0.01621 0.0
C39 C 0.52883 0.78447 0.28342 0.0
N40 N 0.54265 0.75921 0.29186 0.0
N41 N 0.54453 0.80355 0.2315 0.0
C42 C 0.49909 0.78943 0.31712 0.0
C43 C 0.56846 0.78894 0.21199 0.0
N44 N 0.56678 0.76184 0.24202 0.0
C45 C 0.59358 0.8006 0.15778 0.0
H46 H 0.48456 0.78303 0.25599 0.0
H47 H 0.49536 0.81199 0.33502 0.0
H48 H 0.49425 0.77657 0.38324 0.0
H49 H 0.59573 0.82358 0.17263 0.0
H50 H 0.59107 0.79704 0.07636 0.0
H51 H 0.61308 0.78963 0.18143 0.0
C52 C 0.28744 0.51059 0.10198 0.0
N53 N 0.25841 0.51108 0.10775 0.0
N54 N 0.29983 0.5098 0.19514 0.0
C55 C 0.30353 0.50993 1.00614 0.0
C56 C 0.27716 0.50987 0.25656 0.0
N57 N 0.25273 0.51076 0.20462 0.0
C58 C 0.27889 0.50928 0.3685 0.0
H59 H 0.32488 0.50091 0.01693 0.0
H60 H 0.30577 0.5318 0.97936 0.0
H61 H 0.29184 0.49757 0.94859 0.0
H62 H 0.29871 0.5192 0.39565 0.0
H63 H 0.27863 0.48703 0.39248 0.0
H64 H 0.26061 0.52028 0.40304 0.0
C65 C 0.0229 0.27262 0.17571 0.0
N66 N 0.04008 0.25076 0.14354 0.0
N67 N 0.03803 0.2966 0.20052 0.0
C68 C 0.99144 0.2706 0.1841 0.0
C69 C 0.06463 0.28843 0.1767 0.0
N70 N 0.06648 0.26047 0.15226 0.0
C71 C 0.08901 0.30852 0.1654 0.0
H72 H 0.98171 0.28216 0.12169 0.0
H73 H 0.9843 0.28063 0.25499 0.0
H74 H 0.98395 0.24854 0.18023 0.0
H75 H 0.10037 0.31161 0.23685 0.0
H76 H 0.08133 0.32939 0.14091 0.0
H77 H 0.10427 0.29994 0.11003 0.0
C78 C 0.26486 0.02292 0.11079 0.0
N79 N 0.28586 0.04075 0.08169 0.0
N80 N 0.2424 0.03729 0.15143 0.0
C81 C 0.2666 0.99148 0.1017 0.0
C82 C 0.25065 0.0645 0.14381 0.0
N83 N 0.27724 0.06673 0.10636 0.0
C84 C 0.23322 0.0892 0.18008 0.0
H85 H 0.27536 0.98527 0.02787 0.0
H86 H 0.24558 0.98171 0.11183 0.0
H87 H 0.2812 0.98363 0.15963 0.0
H88 H 0.22889 0.08725 0.26096 0.0
H89 H 0.21264 0.08912 0.14083 0.0
H90 H 0.24378 0.10958 0.16585 0.0
C91 C 0.51639 0.25109 0.05786 0.0
N92 N 0.50255 0.27598 0.04208 0.0
N93 N 0.50139 0.23399 0.11973 0.0
C94 C 0.54536 0.24443 0.01943 0.0
C95 C 0.47797 0.24946 0.13967 0.0
N96 N 0.47865 0.27467 0.09381 0.0
C97 C 0.45475 0.24071 0.20883 0.0
H98 H 0.54772 0.22158 1.00346 0.0
H99 H 0.56104 0.25043 0.07742 0.0
H100 H 0.5499 0.25639 0.95096 0.0
H101 H 0.46016 0.2475 0.28604 0.0
H102 H 0.45202 0.21749 0.20696 0.0
H103 H 0.4346 0.25097 0.1881 0.0
Eu104 Eu 0.04269 1.00304 0.80937 0.0
C105 C 0.94952 0.99675 0.51721 0.0
C106 C 0.96549 0.9579 0.41326 0.0
C107 C 0.91542 0.96441 0.44278 0.0
C108 C 0.97125 0.98143 0.47568 0.0
C109 C 0.92125 0.98905 0.49841 0.0
C110 C 0.93756 0.94883 0.40032 0.0
C111 C 0.90676 0.03242 0.57971 0.0
N112 N 0.95602 0.02062 0.56876 0.0
C113 C 0.93511 0.03922 0.59557 0.0
C114 C 0.89976 1.00696 0.5324 0.0
Eu115 Eu 1.00468 0.02946 0.60388 0.0
N116 N 0.99791 0.99097 0.48946 0.0
C117 C 0.01953 0.97943 0.43507 0.0
C118 C 0.98781 0.945 0.36228 0.0
C119 C 0.01484 0.95623 0.37137 0.0
H120 H 0.9404 0.05889 0.63292 0.0
H121 H 0.03216 0.94689 0.33001 0.0
H122 H 0.93276 0.93054 0.354 0.0
H123 H 0.89036 0.04683 0.60396 0.0
H124 H 0.04067 0.98744 0.44153 0.0
H125 H 0.99635 0.9678 0.15955 0.0
H126 H 0.98424 0.92706 0.31315 0.0
H127 H 0.08542 0.05996 0.76818 0.0
H128 H 1.00966 0.96392 0.98226 0.0
H129 H 0.1075 0.09793 0.86481 0.0
H130 H 0.89387 0.95791 0.42861 0.0
H131 H 1.01122 1.00949 0.26002 0.0
H132 H 0.03989 0.05351 0.27333 0.0
H133 H 0.8778 1.00182 0.51937 0.0
H134 H 0.07123 0.08752 0.19501 0.0
N135 N 0.03074 1.00353 0.98115 0.0
C136 C 0.01641 0.98207 0.02577 0.0
C137 C 0.01726 1.00768 0.18245 0.0
C138 C 0.03396 0.02835 0.13868 0.0
C139 C 1.00881 0.9842 0.12609 0.0
C140 C 0.04046 0.02572 0.03627 0.0
H141 H 0.09794 0.1033 0.04403 0.0
N142 N 0.06334 0.04269 0.89196 0.0
C143 C 0.09356 0.08329 0.90123 0.0
C144 C 0.05773 0.04541 0.99116 0.0
C145 C 0.08111 0.06127 0.84679 0.0
C146 C 0.08784 0.08644 1.00247 0.0
C147 C 0.06945 0.06771 0.04856 0.0
O148 O 0.07773 0.97711 0.75554 0.0
O149 O 0.02487 0.98948 0.65966 0.0
O150 O 0.97183 0.02088 0.72677 0.0
O151 O 0.99673 1.00514 0.86376 0.0
O152 O 0.01497 0.96425 0.7761 0.0
O153 O 0.06901 0.97899 0.91193 0.0
O154 O 0.98596 0.06297 0.51533 0.0
O155 O 0.02963 0.04396 0.74062 0.0
O156 O 0.07608 0.01614 0.69611 0.0
O157 O 0.05093 0.02506 0.55207 0.0
O158 O 0.99423 0.0669 0.70788 0.0
O159 O 0.02862 0.0505 0.48813 0.0
C160 C 1.01309 0.96593 0.68025 0.0
C161 C 0.08302 0.93553 0.84133 0.0
C162 C 0.05644 0.89216 0.85959 0.0
C163 C 0.05856 0.92141 0.86952 0.0
C164 C 0.07948 0.87683 0.82097 0.0
C165 C 0.10589 0.92018 0.80283 0.0
C166 C 0.10411 0.89085 0.79309 0.0
C167 C 0.97285 1.01255 0.82059 0.0
C168 C 0.0831 0.96633 0.84133 0.0
C169 C 0.06258 0.07057 0.14997 0.0
C170 C 0.04468 0.05114 0.19469 0.0
C171 C 0.01437 0.06486 0.77152 0.0
C172 C 0.01915 0.09903 0.48648 0.0
C173 C 0.04766 0.10602 0.47113 0.0
C174 C 0.05726 0.13353 0.49021 0.0
C175 C 0.0379 0.15417 0.52281 0.0
C176 C 1.00023 0.12004 0.51902 0.0
C177 C 1.00963 0.14742 0.53698 0.0
C178 C 0.07515 0.02122 0.59929 0.0
C179 C 1.00965 0.06963 0.47386 0.0
H180 H 0.04076 0.93336 0.89726 0.0
H181 H 0.07865 0.85409 0.8137 0.0
H182 H 0.1248 0.93088 0.77881 0.0
H183 H 0.12177 0.87898 0.7633 0.0
H184 H 0.06237 0.09017 0.44404 0.0
H185 H 0.04441 0.17587 0.53408 0.0
H186 H 0.97818 0.11531 0.53129 0.0
H187 H 0.99491 0.16354 0.56145 0.0
Eu188 Eu 0.52599 0.04632 0.77107 0.0
C189 C 0.53951 0.93476 0.51445 0.0
C190 C 0.57209 0.9455 0.38188 0.0
C191 C 0.56508 0.89691 0.42932 0.0
C192 C 0.55317 0.95446 0.45737 0.0
C193 C 0.54499 0.9057 0.49994 0.0
C194 C 0.57839 0.91674 0.36966 0.0
C195 C 0.50798 0.89582 0.61737 0.0
N196 N 0.51955 0.94382 0.57968 0.0
C197 C 0.50321 0.92473 0.62886 0.0
C198 C 0.52926 0.88624 0.55373 0.0
Eu199 Eu 0.51078 0.9932 0.59064 0.0
N200 N 0.54658 0.98214 0.47076 0.0
C201 C 0.55742 1.00164 0.40726 0.0
C202 C 0.58345 0.96555 0.31851 0.0
C203 C 0.57611 0.99374 0.33141 0.0
H204 H 0.48655 0.93191 0.67793 0.0
H205 H 0.58474 1.00948 0.28261 0.0
H206 H 0.59309 0.90959 0.31285 0.0
H207 H 0.49505 0.88096 0.65698 0.0
H208 H 0.55245 0.02359 0.41484 0.0
H209 H 0.52494 0.02581 0.17227 0.0
H210 H 0.59761 0.95944 0.25862 0.0
H211 H 0.47164 0.07614 0.62974 0.0
H212 H 0.54335 0.02304 1.00209 0.0
H213 H 0.43098 0.10596 0.65923 0.0
H214 H 0.56973 0.87473 0.41778 0.0
H215 H 0.48197 0.05351 0.20876 0.0
H216 H 0.44792 0.08915 0.15105 0.0
H217 H 0.53276 0.86379 0.54426 0.0
H218 H 0.42208 0.11098 0.01334 0.0
N219 N 0.50885 0.04542 0.93755 0.0
C220 C 0.52366 0.03398 0.0149 0.0
C221 C 0.48956 0.05164 0.1328 0.0
C222 C 0.47621 0.06582 0.05564 0.0
C223 C 0.51364 0.03589 0.11249 0.0
C224 C 0.48592 0.06178 0.95697 0.0
H225 H 0.41531 0.11676 0.83091 0.0
N226 N 0.48186 0.07092 0.78412 0.0
C227 C 0.44273 0.09794 0.72188 0.0
C228 C 0.47233 0.0751 0.87888 0.0
C229 C 0.46664 0.08133 0.70578 0.0
C230 C 0.43383 0.10379 0.81867 0.0
C231 C 0.44841 0.09216 0.89846 0.0
O232 O 0.53743 0.08959 0.81322 0.0
O233 O 0.54809 0.01405 0.66635 0.0
O234 O 0.52921 0.96835 0.7203 0.0
O235 O 0.5276 1.00244 0.84624 0.0
O236 O 0.56298 0.05449 0.67021 0.0
O237 O 0.56128 0.05432 0.86989 0.0
O238 O 0.47534 0.96942 0.52957 0.0
O239 O 0.49021 0.02427 0.69849 0.0
O240 O 0.52063 0.07215 0.63201 0.0
O241 O 0.51468 0.03657 0.51252 0.0
O242 O 0.47544 0.98418 0.70342 0.0
O243 O 0.48966 1.0066 0.45472 0.0
C244 C 0.56737 0.03009 0.63108 0.0
C245 C 0.5873 0.09355 0.81732 0.0
C246 C 0.63617 0.08424 0.77308 0.0
C247 C 0.612 0.07785 0.82736 0.0
C248 C 0.63673 0.10829 0.71426 0.0
C249 C 0.58775 0.11761 0.75747 0.0
C250 C 0.61251 0.12508 0.70725 0.0
C251 C 0.52984 0.9756 0.81605 0.0
C252 C 0.56078 0.08153 0.85596 0.0
C253 C 0.43977 0.09722 0.99694 0.0
C254 C 0.45398 0.08442 0.0752 0.0
C255 C 0.47239 1.00883 0.74326 0.0
C256 C 0.44039 0.99867 0.46309 0.0
C257 C 0.43435 0.02667 0.43749 0.0
C258 C 0.40668 0.03706 0.44383 0.0
C259 C 0.38506 0.01895 0.4758 0.0
C260 C 0.4184 0.98103 0.49395 0.0
C261 C 0.39096 0.99123 0.50083 0.0
C262 C 0.51737 0.06372 0.53833 0.0
C263 C 0.46957 0.98806 0.4628 0.0
H264 H 0.6122 0.05955 0.87477 0.0
H265 H 0.65557 0.11383 0.67356 0.0
H266 H 0.5689 0.13012 0.7472 0.0
H267 H 0.61271 0.14352 0.66094 0.0
H268 H 0.45114 0.04046 0.41354 0.0
H269 H 0.3633 0.02583 0.47846 0.0
H270 H 0.42246 0.95937 0.51379 0.0
H271 H 0.37415 0.97751 0.5247 0.0
Eu272 Eu 0.54411 0.51775 0.5899 0.0
C273 C 0.43596 0.48326 0.79619 0.0
C274 C 0.39844 0.50485 0.70176 0.0
C275 C 0.39018 0.46033 0.78325 0.0
C276 C 0.42653 0.50492 0.73705 0.0
C277 C 0.4176 0.46118 0.82249 0.0
C278 C 0.38065 0.48208 0.72269 0.0
C279 C 0.45392 0.44368 0.93137 0.0
N280 N 0.46252 0.48464 0.83321 0.0
C281 C 0.47128 0.46587 0.90333 0.0
C282 C 0.42705 0.44111 0.89003 0.0
Eu283 Eu 0.49135 0.52244 0.77928 0.0
N284 N 0.44414 0.52686 0.71922 0.0
C285 C 0.4339 0.5505 0.67458 0.0
C286 C 0.3887 0.52815 0.6496 0.0
C287 C 0.40632 0.55131 0.63808 0.0
H288 H 0.49228 0.46752 0.93422 0.0
H289 H 0.39868 0.56994 0.60136 0.0
H290 H 0.35917 0.48157 0.69516 0.0
H291 H 0.46143 0.42854 0.98439 0.0
H292 H 0.44658 0.56901 0.66555 0.0
H293 H 0.63866 0.4703 0.75651 0.0
H294 H 0.36733 0.52889 0.62113 0.0
H295 H 0.54339 0.5704 0.42462 0.0
H296 H 0.59066 0.47033 0.69238 0.0
H297 H 0.57277 0.61081 0.37986 0.0
H298 H 0.37593 0.44337 0.80156 0.0
H299 H 0.66841 0.5128 0.74391 0.0
H300 H 0.67486 0.56123 0.67752 0.0
H301 H 0.41357 0.42391 0.91232 0.0
H302 H 0.65727 0.59933 0.57238 0.0
N303 N 0.59143 0.5134 0.64792 0.0
C304 C 0.60253 0.48953 0.68818 0.0
C305 C 0.64692 0.51319 0.71662 0.0
C306 C 0.63635 0.53676 0.66809 0.0
C307 C 0.63019 0.48921 0.72402 0.0
C308 C 0.60833 0.53606 0.63237 0.0
H309 H 0.61976 0.61761 0.45937 0.0
N310 N 0.57249 0.55511 0.53189 0.0
C311 C 0.58049 0.59604 0.4337 0.0
C312 C 0.5986 0.55748 0.57236 0.0
C313 C 0.56385 0.5731 0.45911 0.0
C314 C 0.60673 0.59985 0.47929 0.0
C315 C 0.61636 0.58014 0.54778 0.0
O316 O 0.561 0.51386 0.43903 0.0
O317 O 0.49758 0.51174 0.61803 0.0
O318 O 0.49678 0.47597 0.73456 0.0
O319 O 0.54297 0.47664 0.6823 0.0
O320 O 0.5072 0.53298 0.49163 0.0
O321 O 0.54406 0.47722 0.51025 0.0
O322 O 0.48171 0.5237 0.93803 0.0
O323 O 0.53791 0.52915 0.75076 0.0
O324 O 0.53936 0.56435 0.63093 0.0
O325 O 0.49399 0.56467 0.69116 0.0
O326 O 0.52871 0.50855 0.878 0.0
O327 O 0.48131 0.5623 0.85526 0.0
C328 C 0.4865 0.52292 0.54188 0.0
C329 C 0.53248 0.48427 0.33996 0.0
C330 C 0.49165 0.46098 0.26395 0.0
C331 C 0.50861 0.46703 0.3476 0.0
C332 C 0.49693 0.47549 0.17528 0.0
C333 C 0.53781 0.49791 0.24986 0.0
C334 C 0.51974 0.49395 0.16872 0.0
C335 C 0.52114 0.46303 0.72115 0.0
C336 C 0.55145 0.48848 0.4262 0.0
C337 C 0.64348 0.58187 0.58933 0.0
C338 C 0.65346 0.5602 0.64935 0.0
C339 C 0.54937 0.51817 0.82664 0.0
C340 C 0.4987 0.5636 0.02117 0.0
C341 C 0.52288 0.5787 0.99555 0.0
C342 C 0.53958 0.592 0.06915 0.0
C343 C 0.53267 0.58778 0.17018 0.0
C344 C 0.49234 0.55953 0.12176 0.0
C345 C 0.5095 0.57128 0.19594 0.0
C346 C 0.51561 0.57781 0.64862 0.0
C347 C 0.48076 0.55096 0.94329 0.0
H348 H 0.50392 0.45721 0.41791 0.0
H349 H 0.48449 0.47149 0.10925 0.0
H350 H 0.55588 0.51166 0.24226 0.0
H351 H 0.52401 0.50445 0.09936 0.0
H352 H 0.52812 0.5806 0.91757 0.0
H353 H 0.54423 0.59811 0.22981 0.0
H354 H 0.47427 0.54705 0.14275 0.0
H355 H 0.5044 0.56824 0.27365 0.0
Eu356 Eu 0.018 0.53839 0.61472 0.0
C357 C 0.03983 0.43982 0.87022 0.0
C358 C 0.02371 0.40043 0.76794 0.0
C359 C 0.06211 0.39387 0.88508 0.0
C360 C 0.02226 0.42924 0.79582 0.0
C361 C 0.05911 0.42191 0.91835 0.0
C362 C 0.04443 0.38315 0.80999 0.0
C363 C 0.06756 0.45915 0.03955 0.0
N364 N 0.03605 0.46683 0.90259 0.0
C365 C 0.04822 0.4761 0.98978 0.0
C366 C 0.07358 0.43219 1.00231 0.0
Eu367 Eu 1.00337 0.49432 0.81218 0.0
N368 N 1.00186 0.44626 0.75851 0.0
C369 C 0.98073 0.43499 0.70093 0.0
C370 C 1.00326 0.38942 0.7031 0.0
C371 C 0.98141 0.40665 0.67101 0.0
H372 H 0.04355 0.49688 0.01928 0.0
H373 H 0.96499 0.39809 0.62331 0.0
H374 H 0.04609 0.36112 0.78822 0.0
H375 H 0.07784 0.46686 0.10644 0.0
H376 H 0.96336 0.44757 0.67577 0.0
H377 H 0.12599 0.54785 0.46877 0.0
H378 H 1.00341 0.36736 0.68098 0.0
H379 H 0.97365 0.59103 0.67805 0.0
H380 H 0.08135 0.52411 0.49906 0.0
H381 H 0.9758 0.64145 0.72372 0.0
H382 H 0.0771 0.37994 0.92016 0.0
H383 H 0.13301 0.59722 0.52507 0.0
H384 H 0.11327 0.6408 0.60588 0.0
H385 H 0.08848 0.41906 0.04148 0.0
H386 H 0.07278 0.66595 0.679 0.0
N387 N 0.06233 0.55926 0.57501 0.0
C388 C 0.08349 0.54568 0.52373 0.0
C389 C 0.11306 0.58689 0.53875 0.0
C390 C 0.09104 0.60119 0.58694 0.0
C391 C 0.10915 0.55911 0.50637 0.0
C392 C 0.06549 0.58676 0.60365 0.0
H393 H 0.02145 0.66649 0.72238 0.0
N394 N 0.01788 0.58701 0.65624 0.0
C395 C 0.99487 0.63023 0.7034 0.0
C396 C 0.04273 0.60089 0.64632 0.0
C397 C 0.99378 0.60154 0.67807 0.0
C398 C 0.02067 0.64427 0.70268 0.0
C399 C 0.04488 0.62985 0.6711 0.0
O400 O 0.997 0.52326 0.47896 0.0
O401 O 1.00801 0.49262 0.6465 0.0
O402 O 0.05238 0.49789 0.80881 0.0
O403 O 0.06 0.53515 0.70335 0.0
O404 O 0.04207 0.49918 0.55798 0.0
O405 O 1.00834 0.56677 0.49249 0.0
O406 O 0.98552 0.47031 0.93531 0.0
O407 O 1.00199 0.5405 0.77198 0.0
O408 O 0.97024 0.54087 0.64834 0.0
O409 O 0.96512 0.49579 0.70148 0.0
O410 O 0.02154 0.53171 0.90356 0.0
O411 O 0.9652 0.50816 0.88824 0.0
C412 C 0.02694 0.47953 0.59593 0.0
C413 C 1.01152 0.54593 0.33538 0.0
C414 C 0.05225 0.53348 0.2357 0.0
C415 C 0.0367 0.53127 0.3232 0.0
C416 C 0.04081 0.54808 0.15499 0.0
C417 C 1.00067 0.56146 0.25672 0.0
C418 C 0.01454 0.56125 0.16516 0.0
C419 C 0.06957 0.51674 0.7691 0.0
C420 C 0.99867 0.54712 0.43377 0.0
C421 C 0.07068 0.64383 0.65911 0.0
C422 C 0.0937 0.62953 0.61713 0.0
C423 C 0.01413 0.55222 0.84733 0.0
C424 C 0.96436 0.49888 0.06102 0.0
C425 C 0.95353 0.52573 0.08192 0.0
C426 C 0.94407 0.5331 0.17785 0.0
C427 C 0.94959 0.51468 0.25657 0.0
C428 C 0.96983 0.48068 0.1402 0.0
C429 C 0.96317 0.48897 0.23788 0.0
C430 C 0.95405 0.51841 0.6586 0.0
C431 C 0.96663 0.48913 0.9563 0.0
H432 H 0.04531 0.51997 0.38528 0.0
H433 H 0.05244 0.54989 0.08601 0.0
H434 H 0.98171 0.57383 0.26609 0.0
H435 H 1.00526 0.57235 0.10412 0.0
H436 H 0.9504 0.54027 0.02157 0.0
H437 H 0.94251 0.51952 0.33153 0.0
H438 H 0.9785 0.45986 0.12641 0.0
H439 H 0.96709 0.47479 0.29852 0.0
H440 H 0.18488 0.04678 0.13899 0.0
H441 H 0.24896 1.0077 0.3203 0.0
H442 H 0.21337 0.9991 0.45137 0.0
H443 H 0.14875 0.08232 0.33463 0.0
H444 H 0.11345 0.07657 0.28971 0.0
H445 H 0.14233 0.07788 0.20281 0.0
H446 H 0.12948 0.02952 0.1307 0.0
H447 H 0.10025 0.02637 0.21543 0.0
H448 H 0.12703 0.99958 0.21122 0.0
H449 H 0.17154 0.99873 0.5709 0.0
H450 H 0.12656 1.00172 0.66148 0.0
H451 H 0.08726 0.03962 0.40399 0.0
C452 C 0.1913 0.03594 0.20555 0.0
C453 C 0.22001 0.02758 0.21816 0.0
C454 C 0.22726 0.01369 0.30724 0.0
C455 C 0.20712 1.00904 0.38281 0.0
C456 C 0.17933 0.01816 0.36924 0.0
C457 C 0.17122 0.03092 0.28197 0.0
C458 C 0.13989 0.03878 0.28706 0.0
C459 C 0.13589 0.07079 0.27792 0.0
C460 C 0.12318 0.02263 0.20623 0.0
C461 C 0.13176 0.02896 0.39131 0.0
C462 C 0.15498 0.01727 0.43728 0.0
C463 C 0.15325 1.00759 0.53477 0.0
C464 C 0.12735 1.00953 0.5862 0.0
C465 C 0.10277 0.02086 0.54127 0.0
C466 C 0.1053 0.0307 0.44153 0.0
H467 H 0.50432 0.22124 0.31797 0.0
H468 H 0.51318 0.18458 0.02212 0.0
H469 H 0.52002 0.13745 0.09594 0.0
H470 H 0.55428 0.17552 0.44766 0.0
H471 H 0.53275 0.17329 0.55784 0.0
H472 H 0.53114 0.20422 0.48199 0.0
H473 H 0.47717 0.19788 0.46368 0.0
H474 H 0.47865 0.16686 0.53905 0.0
H475 H 0.4634 0.1649 0.41605 0.0
H476 H 0.52482 0.09358 0.20517 0.0
H477 H 0.52382 0.05692 0.33437 0.0
H478 H 0.51051 0.1218 0.56089 0.0
C479 C 0.50809 0.20334 0.26876 0.0
C480 C 0.50878 0.20692 0.16362 0.0
C481 C 0.51343 0.18273 0.10239 0.0
C482 C 0.51706 0.15576 0.144 0.0
C483 C 0.51586 0.15298 0.24769 0.0
C484 C 0.51144 0.1762 0.30923 0.0
C485 C 0.50955 0.16736 0.41789 0.0
C486 C 0.53335 0.1809 0.48001 0.0
C487 C 0.48047 0.17469 0.46174 0.0
C488 C 0.5135 0.13554 0.40827 0.0
C489 C 0.51727 0.1277 0.30955 0.0
C490 C 0.52132 0.09945 0.28235 0.0
C491 C 0.52091 0.07871 0.3568 0.0
C492 C 0.51708 0.08604 0.45887 0.0
C493 C 0.5135 0.11512 0.48407 0.0
H494 H 0.34451 0.54778 0.20612 0.0
H495 H 0.32095 0.46206 0.2711 0.0
H496 H 0.36548 0.45583 0.36461 0.0
H497 H 0.42252 0.5331 0.1784 0.0
H498 H 0.43205 0.56655 0.23479 0.0
H499 H 0.3995 0.56308 0.16635 0.0
H500 H 0.37328 0.58245 0.32048 0.0
H501 H 0.40522 0.58427 0.39315 0.0
H502 H 0.37557 0.56414 0.43656 0.0
H503 H 0.41132 0.46043 0.4685 0.0
H504 H 0.45584 0.47365 0.55416 0.0
H505 H 0.45304 0.55526 0.4151 0.0
C506 C 0.34924 0.52738 0.23677 0.0
C507 C 0.3291 0.50507 0.22816 0.0
C508 C 0.33602 0.47918 0.27373 0.0
C509 C 0.3613 0.47557 0.32822 0.0
C510 C 0.38032 0.49799 0.33732 0.0
C511 C 0.37492 0.52325 0.29084 0.0
C512 C 0.39891 0.54405 0.31385 0.0
C513 C 0.41415 0.55217 0.21759 0.0
C514 C 0.38759 0.5703 0.36932 0.0
C515 C 0.41828 0.5268 0.3813 0.0
C516 C 0.40697 0.50032 0.39462 0.0
C517 C 0.42034 0.48106 0.45726 0.0
C518 C 0.44571 0.48883 0.50658 0.0
C519 C 0.45821 0.51566 0.49349 0.0
C520 C 0.4442 0.53465 0.42816 0.0
H521 H 0.06715 0.32553 0.3503 0.0
H522 H 0.9908 0.33013 0.17378 0.0
H523 H 0.9788 0.37527 0.25932 0.0
H524 H 0.04307 0.3562 0.57485 0.0
H525 H 0.0736 0.37764 0.60203 0.0
H526 H 0.07717 0.34546 0.52991 0.0
H527 H 0.09978 0.37097 0.38369 0.0
H528 H 0.09833 0.4034 0.45541 0.0
H529 H 0.08276 0.4015 0.3329 0.0
H530 H 0.9756 0.42238 0.36693 0.0
H531 H 0.98237 0.4647 0.47517 0.0
H532 H 0.06267 0.43219 0.57285 0.0
C533 C 0.0481 0.33607 0.3274 0.0
C534 C 0.03005 0.32333 0.25328 0.0
C535 C 1.00493 0.33828 0.23051 0.0
C536 C 0.99806 0.36441 0.27865 0.0
C537 C 0.01654 0.37632 0.34976 0.0
C538 C 0.04131 0.36263 0.37288 0.0
C539 C 0.05836 0.38037 0.44842 0.0
C540 C 0.06334 0.36397 0.54457 0.0
C541 C 0.08648 0.3896 0.40237 0.0
C542 C 0.03909 0.40588 0.46702 0.0
C543 C 0.01503 0.40316 0.40908 0.0
C544 C 0.99436 0.42429 0.41246 0.0
C545 C 0.99825 0.44842 0.47519 0.0
C546 C 0.02257 0.45199 0.53589 0.0
C547 C 0.04344 0.43024 0.52979 0.0
H548 H 0.84917 0.96337 0.20458 0.0
H549 H 0.80902 0.04366 0.15369 0.0
H550 H 0.84907 0.05762 0.04676 0.0
H551 H 0.92296 0.9907 0.21006 0.0
H552 H 0.93752 0.96032 0.14623 0.0
H553 H 0.90656 0.95667 0.22265 0.0
H554 H 0.87919 0.93438 0.07753 0.0
H555 H 0.90966 0.93747 0.9985 0.0
H556 H 0.87656 0.95278 0.96146 0.0
H557 H 0.89102 0.06041 0.92609 0.0
H558 H 0.93406 0.05497 0.82392 0.0
H559 H 0.95061 0.97444 0.95952 0.0
C560 C 0.84941 0.98433 0.1741 0.0
C561 C 0.82601 1.0028 0.19074 0.0
C562 C 0.82685 0.02956 0.14553 0.0
C563 C 0.84946 0.03747 0.08319 0.0
C564 C 0.87171 0.01858 0.06621 0.0
C565 C 0.87221 0.99275 0.11222 0.0
C566 C 0.8986 0.97629 0.07997 0.0
C567 C 0.91759 0.97069 0.17011 0.0
C568 C 0.89051 0.94859 0.02618 0.0
C569 C 0.91269 0.99664 1.0081 0.0
C570 C 0.89649 0.02074 1.0002 0.0
C571 C 0.90396 0.04178 0.93345 0.0
C572 C 0.9285 0.03839 0.87471 0.0
C573 C 0.94613 0.01438 0.88282 0.0
C574 C 0.93797 0.99327 0.95162 0.0
H575 H 0.54702 0.81751 0.03443 0.0
H576 H 0.52624 0.85173 0.32629 0.0
H577 H 0.5196 0.89893 0.25236 0.0
H578 H 0.58884 0.87706 0.96123 0.0
H579 H 0.57868 0.87483 0.83185 0.0
H580 H 0.57917 0.84354 0.90602 0.0
H581 H 0.52648 0.83365 0.86383 0.0
H582 H 0.52728 0.86407 0.78597 0.0
H583 H 0.50099 0.86146 0.8824 0.0
H584 H 0.51606 0.94327 0.14328 0.0
H585 H 0.51583 0.97951 0.01516 0.0
H586 H 0.54413 0.91807 0.79474 0.0
C587 C 0.54093 0.83489 0.08295 0.0
C588 C 0.53687 0.83054 0.18689 0.0
C589 C 0.5288 0.85407 0.24674 0.0
C590 C 0.52531 0.88111 0.20512 0.0
C591 C 0.53027 0.8847 0.10302 0.0
C592 C 0.53798 0.86212 0.04285 0.0
C593 C 0.54346 0.8717 0.93643 0.0
C594 C 0.57437 0.86647 0.90717 0.0
C595 C 0.52331 0.85685 0.86287 0.0
C596 C 0.53716 0.90321 0.94492 0.0
C597 C 0.5296 0.91021 0.04184 0.0
C598 C 0.52239 0.93787 0.06784 0.0
C599 C 0.5228 0.9587 0.99398 0.0
C600 C 0.5309 0.95257 0.89395 0.0
C601 C 0.53808 0.92404 0.86991 0.0
H602 H 0.695 0.5031 0.15733 0.0
H603 H 0.68515 0.59254 0.21804 0.0
H604 H 0.64499 0.59405 0.10303 0.0
H605 H 0.66828 0.49406 0.91628 0.0
H606 H 0.64438 0.46522 0.9382 0.0
H607 H 0.67474 0.47036 0.01704 0.0
H608 H 0.64321 0.47259 0.17295 0.0
H609 H 0.61269 0.46668 0.09514 0.0
H610 H 0.61406 0.49696 0.17787 0.0
H611 H 0.61211 0.58716 0.94975 0.0
H612 H 0.5728 0.57096 0.84171 0.0
H613 H 0.58937 0.48486 0.92657 0.0
C614 C 0.68434 0.52301 0.14791 0.0
C615 C 0.69595 0.54852 0.19003 0.0
C616 C 0.67935 0.57332 0.17906 0.0
C617 C 0.65596 0.57437 0.11438 0.0
C618 C 0.64673 0.54971 0.06721 0.0
C619 C 0.65876 0.52409 0.09026 0.0
C620 C 0.64047 0.50038 0.04464 0.0
C621 C 0.65801 0.48138 0.97476 0.0
C622 C 0.6268 0.48312 0.12758 0.0
C623 C 0.61789 0.51687 0.98688 0.0
C624 C 0.62275 0.54536 0.99862 0.0
C625 C 0.60711 0.56495 0.94454 0.0
C626 C 0.58482 0.55551 0.88226 0.0
C627 C 0.57706 0.52672 0.87657 0.0
C628 C 0.59423 0.50713 0.92981 0.0
H629 H 0.03271 0.69568 0.20193 0.0
H630 H 0.94786 0.71606 0.10357 0.0
H631 H 0.94541 0.67239 0.0108 0.0
H632 H 0.05093 0.66849 0.94658 0.0
H633 H 0.07453 0.64162 0.99027 0.0
H634 H 0.06967 0.67367 0.06245 0.0
H635 H 0.0565 0.64414 0.2139 0.0
H636 H 0.05992 0.61174 0.1428 0.0
H637 H 0.02732 0.62001 0.20599 0.0
H638 H 0.94881 0.62317 0.93761 0.0
H639 H 0.96257 0.57812 0.85671 0.0
H640 H 0.04856 0.59093 0.95669 0.0
C641 C 1.01332 0.69119 0.16292 0.0
C642 C 0.98919 0.70972 0.17295 0.0
C643 C 0.96564 0.70223 0.11108 0.0
C644 C 0.96415 0.67713 0.05402 0.0
C645 C 0.98718 0.65913 0.05029 0.0
C646 C 1.0119 0.66626 0.09916 0.0
C647 C 0.03444 0.644 0.07045 0.0
C648 C 0.05885 0.65778 0.01413 0.0
C649 C 0.04519 0.62906 0.16378 0.0
C650 C 0.01811 0.62338 1.00085 0.0
C651 C 0.99064 0.63252 0.99278 0.0
C652 C 0.97056 0.61637 0.94064 0.0
C653 C 0.97863 0.59067 0.8938 0.0
C654 C 1.00695 0.58111 0.89425 0.0
C655 C 0.02693 0.59792 0.95016 0.0
H656 H 0.08946 0.21083 0.08079 0.0
H657 H 0.09487 0.27137 0.3247 0.0
H658 H 0.12295 0.23928 0.41869 0.0
H659 H 0.06319 0.16567 0.20064 0.0
H660 H 0.07884 0.1337 0.15509 0.0
H661 H 0.07981 0.16383 0.07917 0.0
H662 H 0.13371 0.16029 0.06885 0.0
H663 H 0.13354 0.13015 0.14903 0.0
H664 H 0.15448 0.16059 0.18143 0.0
H665 H 0.12585 0.19977 0.51847 0.0
H666 H 0.09483 0.16573 0.59743 0.0
H667 H 0.08295 0.12261 0.3159 0.0
C668 C 0.09693 0.21728 0.1533 0.0
C669 C 0.08926 0.24376 0.19397 0.0
C670 C 0.10076 0.25181 0.28803 0.0
C671 C 0.11696 0.23329 0.34344 0.0
C672 C 0.12055 0.2058 0.30801 0.0
C673 C 0.11136 0.19785 0.21326 0.0
C674 C 0.109 0.16603 0.20532 0.0
C675 C 0.08101 0.15681 0.15707 0.0
C676 C 0.13419 0.15354 0.14776 0.0
C677 C 0.1107 0.15852 0.3147 0.0
C678 C 0.12096 0.18113 0.37095 0.0
C679 C 0.11816 0.182 0.47482 0.0
C680 C 0.10039 0.16253 0.51977 0.0
C681 C 0.08595 0.14238 0.46077 0.0
C682 C 0.09404 0.13808 0.36086 0.0
H683 H 0.28046 0.08792 0.29165 0.0
H684 H 0.31937 0.09258 1.00208 0.0
H685 H 0.36311 0.10916 0.08093 0.0
H686 H 0.33581 0.14957 0.4127 0.0
H687 H 0.33205 0.13164 0.52918 0.0
H688 H 0.30162 0.13748 0.45144 0.0
H689 H 0.29063 0.08448 0.4551 0.0
H690 H 0.32073 0.07847 0.53054 0.0
H691 H 0.31699 0.05938 0.41366 0.0
H692 H 0.40196 0.09736 0.18133 0.0
H693 H 0.42789 0.06298 0.2801 0.0
H694 H 0.36823 0.07407 0.51991 0.0
C695 C 0.29734 0.09486 0.24425 0.0
C696 C 0.29686 0.08802 0.14136 0.0
C697 C 0.31963 0.09646 0.08159 0.0
C698 C 0.34443 0.10658 0.12609 0.0
C699 C 0.34559 0.10938 0.2301 0.0
C700 C 0.32181 0.10566 0.28832 0.0
C701 C 0.32952 0.10379 0.39781 0.0
C702 C 0.32447 0.13232 0.45084 0.0
C703 C 0.31359 0.08005 0.45202 0.0
C704 C 0.36081 0.09825 0.38802 0.0
C705 C 0.37009 0.10415 0.29236 0.0
C706 C 0.39572 0.09371 0.25722 0.0
C707 C 0.41033 0.07404 0.31409 0.0
C708 C 0.39938 0.06539 0.40632 0.0
C709 C 0.37641 0.08015 0.44822 0.0
H710 H 0.4924 0.3008 0.26139 0.0
H711 H 0.43531 0.304 0.0118 0.0
H712 H 0.42119 0.35261 0.06228 0.0
H713 H 0.45124 0.35128 0.44045 0.0
H714 H 0.48428 0.36577 0.48346 0.0
H715 H 0.48188 0.32896 0.44892 0.0
H716 H 0.52327 0.33514 0.32471 0.0
H717 H 0.52575 0.37153 0.35934 0.0
H718 H 0.52062 0.36159 0.23022 0.0
H719 H 0.42309 0.40378 0.11503 0.0
H720 H 0.4424 0.4509 0.15579 0.0
H721 H 0.49959 0.41277 0.36712 0.0
C722 C 0.47582 0.31143 0.22118 0.0
C723 C 0.46488 0.29928 0.13355 0.0
C724 C 0.44384 0.31341 0.07936 0.0
C725 C 0.43559 0.34081 0.1082 0.0
C726 C 0.44824 0.35317 0.19235 0.0
C727 C 0.46763 0.33857 0.24905 0.0
C728 C 0.48261 0.3576 0.32283 0.0
C729 C 0.47449 0.35046 0.43028 0.0
C730 C 0.51492 0.35642 0.30819 0.0
C731 C 0.47047 0.38563 0.29351 0.0
C732 C 0.44988 0.38277 0.22107 0.0
C733 C 0.43874 0.40619 0.17328 0.0
C734 C 0.4501 0.43289 0.19607 0.0
C735 C 0.47299 0.43573 0.26352 0.0
C736 C 0.4818 0.4119 0.31686 0.0
H737 H 0.21696 0.55415 0.193 0.0
H738 H 0.22623 0.46941 0.30079 0.0
H739 H 0.17503 0.46757 0.33718 0.0
H740 H 0.15895 0.5754 0.37116 0.0
H741 H 0.14015 0.59564 0.28005 0.0
H742 H 0.17811 0.5937 0.27668 0.0
H743 H 0.17879 0.57383 0.09481 0.0
H744 H 0.14129 0.57928 0.095 0.0
H745 H 0.15526 0.54519 0.06343 0.0
H746 H 0.12304 0.47141 0.32813 0.0
H747 H 0.07314 0.48282 0.29439 0.0
H748 H 0.09778 0.56533 0.19152 0.0
C749 C 0.20812 0.53578 0.22799 0.0
C750 C 0.22495 0.512 0.2455 0.0
C751 C 0.21328 0.48785 0.2891 0.0
C752 C 0.1844 0.48668 0.30954 0.0
C753 C 0.16792 0.51006 0.28703 0.0
C754 C 0.1794 0.53439 0.24875 0.0
C755 C 0.15683 0.55552 0.22249 0.0
C756 C 0.15858 0.5816 0.29175 0.0
C757 C 0.15822 0.56394 0.11241 0.0
C758 C 0.13086 0.53823 0.24318 0.0
C759 C 0.13767 0.5124 0.28291 0.0
C760 C 0.11737 0.49186 0.2998 0.0
C761 C 0.08927 0.49827 0.27854 0.0
C762 C 0.08192 0.52471 0.23876 0.0
C763 C 0.103 0.54477 0.22016 0.0
H764 H 0.96342 0.83793 0.27679 0.0
H765 H 0.94948 0.76628 0.07733 0.0
H766 H 0.9569 0.79586 0.93616 0.0
H767 H 0.943 0.89564 0.07019 0.0
H768 H 0.97022 0.91821 0.12043 0.0
H769 H 0.94915 0.89716 0.20269 0.0
H770 H 0.0154 0.89662 0.19395 0.0
H771 H 0.99484 0.87547 0.27488 0.0
H772 H 0.01986 0.85892 0.19082 0.0
H773 H 0.98879 0.82134 0.83355 0.0
H774 H 0.02944 0.84761 0.76915 0.0
H775 H 0.02533 0.90415 0.02559 0.0
C776 C 0.96169 0.82833 0.20427 0.0
C777 C 0.95846 0.79885 0.19144 0.0
C778 C 0.95312 0.78838 0.09286 0.0
C779 C 0.95722 0.80523 0.01026 0.0
C780 C 0.96574 0.83288 0.02615 0.0
C781 C 0.96635 0.84504 0.12064 0.0
C782 C 0.98109 0.87341 0.11888 0.0
C783 C 0.95958 0.89753 0.12859 0.0
C784 C 1.00418 0.87618 0.19935 0.0
C785 C 0.99344 0.87217 0.01492 0.0
C786 C 0.98321 0.84932 0.96097 0.0
C787 C 0.99583 0.84027 0.87214 0.0
C788 C 0.01933 0.85489 0.83721 0.0
C789 C 0.03026 0.87808 0.89179 0.0
C790 C 0.01668 0.88714 0.98037 0.0
H791 H 0.74569 0.03552 0.15299 0.0
H792 H 0.71686 0.95038 0.09591 0.0
H793 H 0.69012 0.967 0.94786 0.0
H794 H 0.68133 0.07033 0.09215 0.0
H795 H 0.69961 0.10011 0.04136 0.0
H796 H 0.71582 0.07989 0.13782 0.0
H797 H 0.75468 0.0559 0.9016 0.0
H798 H 0.75929 0.07244 0.02244 0.0
H799 H 0.74238 0.0914 0.92366 0.0
H800 H 0.66608 0.99399 0.81114 0.0
H801 H 0.63903 0.02929 0.71857 0.0
H802 H 0.68481 0.09646 0.86767 0.0
C803 C 0.73284 0.0206 0.11141 0.0
C804 C 0.73244 0.99194 0.13651 0.0
C805 C 0.71669 0.97254 0.07825 0.0
C806 C 0.70202 0.98175 0.99361 0.0
C807 C 0.70379 1.01023 0.96915 0.0
C808 C 0.71837 0.02937 0.02792 0.0
C809 C 0.71597 0.05903 0.9905 0.0
C810 C 0.70235 0.07847 0.07009 0.0
C811 C 0.7448 0.07035 0.9576 0.0
C812 C 0.69682 0.054 0.90227 0.0
C813 C 0.69065 0.0256 0.88945 0.0
C814 C 0.67125 0.01613 0.81885 0.0
C815 C 0.65629 0.03628 0.76535 0.0
C816 C 0.6604 0.0654 0.78496 0.0
C817 C 0.68214 0.07432 0.84907 0.0
H818 H 0.59966 0.71741 0.29202 0.0
H819 H 0.55585 0.75623 0.04797 0.0
H820 H 0.5668 0.71607 0.93892 0.0
H821 H 0.64917 0.66839 0.0931 0.0
H822 H 0.64899 0.6413 0.18543 0.0
H823 H 0.65248 0.67775 0.22324 0.0
H824 H 0.61017 0.67201 0.34002 0.0
H825 H 0.60726 0.63612 0.30025 0.0
H826 H 0.5769 0.65914 0.29074 0.0
H827 H 0.56326 0.66933 0.88408 0.0
H828 H 0.53986 0.62478 0.90144 0.0
H829 H 0.58733 0.60922 0.17193 0.0
C830 C 0.59376 0.71756 0.21416 0.0
C831 C 0.57731 0.73972 0.17764 0.0
C832 C 0.56899 0.73951 0.07647 0.0
C833 C 0.57549 0.71689 0.0135 0.0
C834 C 0.5903 0.69426 0.05232 0.0
C835 C 0.6002 0.6947 0.1498 0.0
C836 C 0.60973 0.66552 0.17855 0.0
C837 C 0.64199 0.6631 0.16941 0.0
C838 C 0.60023 0.65778 0.2837 0.0
C839 C 0.5955 0.64814 0.09691 0.0
C840 C 0.58774 0.66521 0.01875 0.0
C841 C 0.56975 0.65566 0.94352 0.0
C842 C 0.55627 0.62987 0.95467 0.0
C843 C 0.56092 0.61354 0.04062 0.0
C844 C 0.58271 0.62167 0.10722 0.0
H845 H 0.7951 0.56887 0.10578 0.0
H846 H 0.79532 0.60515 0.40195 0.0
H847 H 0.84604 0.61649 0.38528 0.0
H848 H 0.84562 0.53235 0.10372 0.0
H849 H 0.86185 0.53863 0.98449 0.0
H850 H 0.82551 0.54625 1.00124 0.0
H851 H 0.83367 0.59771 0.94825 0.0
H852 H 0.8706 0.59009 0.9306 0.0
H853 H 0.85993 0.61902 0.01076 0.0
H854 H 0.89559 0.60045 0.36953 0.0
H855 H 0.93622 0.56909 0.34177 0.0
H856 H 0.90507 0.54963 0.04474 0.0
C857 C 0.80575 0.58079 0.16399 0.0
C858 C 0.7922 0.5856 0.25539 0.0
C859 C 0.806 0.60076 0.33219 0.0
C860 C 0.83464 0.60738 0.32287 0.0
C861 C 0.84853 0.59946 0.23502 0.0
C862 C 0.83399 0.58811 0.15401 0.0
C863 C 0.85379 0.57715 0.07451 0.0
C864 C 0.84627 0.54682 0.03943 0.0
C865 C 0.85455 0.59721 0.98584 0.0
C866 C 0.88111 0.57857 0.132 0.0
C867 C 0.87814 0.59268 0.22257 0.0
C868 C 0.89853 0.59043 0.29734 0.0
C869 C 0.92156 0.57236 0.28121 0.0
C870 C 0.92425 0.55715 0.19009 0.0
C871 C 0.9045 0.56176 0.11354 0.0
H872 H 0.05066 0.22716 0.95602 0.0
H873 H 1.01189 0.20833 0.23874 0.0
H874 H 1.00134 0.15983 0.17669 0.0
H875 H 1.0018 0.18334 0.80176 0.0
H876 H 0.02901 0.17287 0.71557 0.0
H877 H 0.03138 0.20631 0.77988 0.0
H878 H 0.08098 0.19234 0.84775 0.0
H879 H 0.07776 0.15972 0.77791 0.0
H880 H 0.08494 0.15905 0.90908 0.0
H881 H 0.99788 0.11015 0.08343 0.0
H882 H 0.99739 0.06883 0.96769 0.0
H883 H 0.03977 0.11805 0.74487 0.0
C884 C 0.03979 0.21289 1.00487 0.0
C885 C 0.03216 0.22228 0.10359 0.0
C886 C 0.01782 0.20243 0.16335 0.0
C887 C 1.01182 0.1745 0.12827 0.0
C888 C 0.02069 0.16564 0.03268 0.0
C889 C 0.03419 0.18451 0.97146 0.0
C890 C 0.04126 0.16984 0.87141 0.0
C891 C 0.02486 0.18396 0.78719 0.0
C892 C 0.07312 0.17033 0.85053 0.0
C893 C 0.03088 0.1395 0.88668 0.0
C894 C 0.01896 0.13755 0.98038 0.0
C895 C 1.00745 0.11179 0.0106 0.0
C896 C 1.00762 0.088 0.94428 0.0
C897 C 0.01999 0.08892 0.84791 0.0
C898 C 0.03139 0.11563 0.81925 0.0
H899 H 0.3385 0.01842 0.13243 0.0
H900 H 0.28993 0.05036 0.88575 0.0
H901 H 0.33214 0.0475 0.77754 0.0
H902 H 0.40284 0.05281 0.07862 0.0
H903 H 0.42663 0.02434 0.10688 0.0
H904 H 0.39282 0.02676 0.16771 0.0
H905 H 0.3788 0.97724 0.10696 0.0
H906 H 0.41294 0.97336 0.04943 0.0
H907 H 0.38141 0.9681 0.97632 0.0
H908 H 0.38077 0.04411 0.69654 0.0
H909 H 0.42984 0.03476 0.64395 0.0
H910 H 0.44869 1.00168 0.93478 0.0
C911 C 0.33667 0.02421 0.05504 0.0
C912 C 0.31044 0.03456 0.01766 0.0
C913 C 0.30939 0.04218 0.91604 0.0
C914 C 0.33347 0.04082 0.85411 0.0
C915 C 0.35903 0.03123 0.89309 0.0
C916 C 0.36071 0.02237 0.99063 0.0
C917 C 0.39089 1.01229 0.01203 0.0
C918 C 0.40413 0.03009 0.09638 0.0
C919 C 0.39101 0.98087 0.03772 0.0
C920 C 0.40589 0.01726 0.91224 0.0
C921 C 0.38698 0.02847 0.84522 0.0
C922 C 0.39556 0.03518 0.74872 0.0
C923 C 0.4237 0.02988 0.71912 0.0
C924 C 0.4437 0.01788 0.78434 0.0
C925 C 0.43433 1.01135 0.88277 0.0
H926 H 0.47493 0.30685 0.9011 0.0
H927 H 0.5521 0.30437 0.07262 0.0
H928 H 0.56649 0.35008 1.00144 0.0
H929 H 0.50251 0.34307 0.68008 0.0
H930 H 0.4709 0.36373 0.66594 0.0
H931 H 0.46907 0.32938 0.72062 0.0
H932 H 0.44456 0.35168 0.87357 0.0
H933 H 0.44732 0.38626 0.82183 0.0
H934 H 0.46185 0.37933 0.94359 0.0
H935 H 0.57217 0.39754 0.90975 0.0
H936 H 0.56693 0.44266 0.82201 0.0
H937 H 0.4834 0.4176 0.72456 0.0
C938 C 0.4949 0.31589 0.92356 0.0
C939 C 0.51249 0.3015 0.99217 0.0
C940 C 0.53853 0.31427 0.01862 0.0
C941 C 0.54675 0.3405 0.9789 0.0
C942 C 0.52867 0.35429 0.91289 0.0
C943 C 0.50315 0.34238 0.8859 0.0
C944 C 0.48667 0.36226 0.81896 0.0
C945 C 0.48203 0.34879 0.71525 0.0
C946 C 0.45844 0.37042 0.86743 0.0
C947 C 0.50662 0.38748 0.81323 0.0
C948 C 0.53106 0.38212 0.86606 0.0
C949 C 0.55304 0.40178 0.86863 0.0
C950 C 0.54999 0.42743 0.81745 0.0
C951 C 0.52491 0.43399 0.76497 0.0
C952 C 0.50295 0.41345 0.76339 0.0
H953 H 0.2141 0.47432 0.07001 0.0
H954 H 0.2501 0.55301 0.9743 0.0
H955 H 0.20753 0.56162 0.87123 0.0
H956 H 0.17797 0.45704 0.82422 0.0
H957 H 0.148 0.44125 0.88387 0.0
H958 H 0.18227 0.43977 0.94192 0.0
H959 H 0.16276 0.46477 0.10484 0.0
H960 H 0.12893 0.46239 0.04476 0.0
H961 H 0.14147 0.49594 0.08912 0.0
H962 H 0.1572 0.5644 0.79277 0.0
H963 H 0.10771 0.55964 0.73907 0.0
H964 H 0.10319 0.47815 0.87851 0.0
C965 C 0.21343 0.49298 0.0249 0.0
C966 C 0.23632 0.51273 0.02962 0.0
C967 C 0.23377 0.53711 0.97062 0.0
C968 C 0.2093 0.54227 0.91224 0.0
C969 C 0.18702 0.52275 0.91111 0.0
C970 C 0.18909 0.49829 0.96502 0.0
C971 C 0.1618 0.48104 0.9529 0.0
C972 C 0.16788 0.45311 0.89743 0.0
C973 C 0.14799 0.4757 0.05412 0.0
C974 C 0.14332 0.50031 0.88929 0.0
C975 C 0.15848 0.52412 0.86496 0.0
C976 C 0.14562 0.54549 0.81034 0.0
C977 C 0.11712 0.54254 0.77952 0.0
C978 C 0.1007 0.51842 0.80247 0.0
C979 C 0.11451 0.497 0.85875 0.0
H980 H 0.96621 0.81207 0.44215 0.0
H981 H 0.0462 0.80887 0.28773 0.0
H982 H 0.06055 0.85316 0.37479 0.0
H983 H 0.95842 0.88705 0.40359 0.0
H984 H 0.93955 0.89379 0.51815 0.0
H985 H 0.93721 0.85979 0.45676 0.0
H986 H 0.95216 0.83681 0.61607 0.0
H987 H 0.95809 0.86955 0.68319 0.0
H988 H 0.98616 0.84409 0.66862 0.0
H989 H 0.06539 0.90109 0.47964 0.0
H990 H 0.05935 0.94569 0.5762 0.0
H991 H 0.97368 0.92188 0.64615 0.0
C992 C 0.98709 0.82026 0.42816 0.0
C993 C 1.00526 0.80569 0.35883 0.0
C994 C 0.03202 0.81824 0.34199 0.0
C995 C 0.04021 0.84397 0.39069 0.0
C996 C 0.02127 0.85821 0.45475 0.0
C997 C 0.99495 0.84685 0.47166 0.0
C998 C 0.97717 0.86756 0.53463 0.0
C999 C 0.95156 0.87766 0.47479 0.0
C1000 C 0.96779 0.85376 0.63158 0.0
C1001 C 0.99781 0.89197 0.5547 0.0
C1002 C 0.02317 0.88618 0.50752 0.0
C1003 C 0.04541 0.9056 0.51531 0.0
C1004 C 0.04174 0.93124 0.57049 0.0
C1005 C 0.01575 0.93845 0.61733 0.0
C1006 C 0.99371 0.91783 0.61011 0.0
H1007 H 0.71534 0.96327 0.39301 0.0
H1008 H 0.7363 0.04958 0.32485 0.0
H1009 H 0.69051 0.06521 0.39468 0.0
H1010 H 0.6426 0.96465 0.34752 0.0
H1011 H 0.63082 0.94503 0.45416 0.0
H1012 H 0.66556 0.93933 0.40381 0.0
H1013 H 0.68809 0.95008 0.57164 0.0
H1014 H 0.65406 0.95602 0.6281 0.0
H1015 H 0.68088 0.9829 0.63561 0.0
H1016 H 0.64092 0.07134 0.45733 0.0
H1017 H 0.59453 0.0703 0.53464 0.0
H1018 H 0.60388 0.98077 0.58917 0.0
C1019 C 0.71048 0.98555 0.39478 0.0
C1020 C 0.72994 1.00521 0.35286 0.0
C1021 C 0.72235 0.03408 0.35647 0.0
C1022 C 0.6961 0.04311 0.39573 0.0
C1023 C 0.67737 0.02328 0.43473 0.0
C1024 C 0.68453 0.99517 0.4379 0.0
C1025 C 0.66073 0.97871 0.48944 0.0
C1026 C 0.64918 0.95555 0.41956 0.0
C1027 C 0.67156 0.96616 0.58704 0.0
C1028 C 0.63846 1.00174 0.51065 0.0
C1029 C 0.64891 0.02715 0.47729 0.0
C1030 C 0.63288 0.05161 0.48486 0.0
C1031 C 0.60613 0.05066 0.52954 0.0
C1032 C 0.59459 0.02561 0.57005 0.0
C1033 C 0.6113 1.00043 0.55914 0.0
H1034 H 0.56588 0.73147 0.45106 0.0
H1035 H 0.49757 0.72674 0.23782 0.0
H1036 H 0.48177 0.68176 0.31161 0.0
H1037 H 0.58295 0.65652 0.47488 0.0
H1038 H 0.58856 0.6604 0.6062 0.0
H1039 H 0.59361 0.69019 0.52654 0.0
H1040 H 0.55784 0.71629 0.64625 0.0
H1041 H 0.55162 0.68445 0.71409 0.0
H1042 H 0.52256 0.70261 0.65736 0.0
H1043 H 0.47339 0.63588 0.41054 0.0
H1044 H 0.47497 0.59359 0.51603 0.0
H1045 H 0.54944 0.62626 0.6643 0.0
C1046 C 0.54758 0.72091 0.42007 0.0
C1047 C 0.5329 0.73298 0.33806 0.0
C1048 C 0.50899 0.71836 0.30057 0.0
C1049 C 0.49994 0.69263 0.34226 0.0
C1050 C 0.51468 0.6814 0.42315 0.0
C1051 C 0.538 0.6952 0.46207 0.0
C1052 C 0.54938 0.67911 0.55194 0.0
C1053 C 0.58052 0.67118 0.53901 0.0
C1054 C 0.5451 0.69667 0.64809 0.0
C1055 C 0.53053 0.65291 0.55186 0.0
C1056 C 0.50996 0.6552 0.47928 0.0
C1057 C 0.48952 0.6341 0.46717 0.0
C1058 C 0.49042 0.61005 0.52829 0.0
C1059 C 0.51204 0.60632 0.59999 0.0
C1060 C 0.53235 0.62836 0.61142 0.0
H1061 H 0.79251 0.56323 0.49763 0.0
H1062 H 0.79904 0.50257 0.25465 0.0
H1063 H 0.846 0.4879 0.31744 0.0
H1064 H 0.86609 0.58568 0.49969 0.0
H1065 H 0.86698 0.58988 0.63285 0.0
H1066 H 0.83404 0.59347 0.56715 0.0
H1067 H 0.81401 0.55491 0.68478 0.0
H1068 H 0.84805 0.55085 0.74267 0.0
H1069 H 0.8307 0.52079 0.68638 0.0
H1070 H 0.89439 0.4803 0.40776 0.0
H1071 H 0.93821 0.48212 0.50748 0.0
H1072 H 0.90406 0.5511 0.68446 0.0
C1073 C 0.80363 0.54654 0.45835 0.0
C1074 C 0.79123 0.53376 0.37091 0.0
C1075 C 0.80713 0.51222 0.32252 0.0
C1076 C 0.83421 0.50398 0.35753 0.0
C1077 C 0.84598 0.5174 0.44201 0.0
C1078 C 0.83108 0.53831 0.49198 0.0
C1079 C 0.84896 0.54997 0.57938 0.0
C1080 C 0.85426 0.58167 0.56913 0.0
C1081 C 0.83457 0.54376 0.67923 0.0
C1082 C 0.87659 0.53326 0.56871 0.0
C1083 C 0.87407 0.51405 0.4904 0.0
C1084 C 0.89631 0.4955 0.46843 0.0
C1085 C 0.92144 0.49667 0.52607 0.0
C1086 C 0.92543 0.5168 0.60436 0.0
C1087 C 0.90228 0.53544 0.62518 0.0
loop_
_geom_bond_atom_site_label_1
_geom_bond_atom_site_label_2
_geom_bond_distance
_geom_bond_site_symmetry_2
_ccdc_geom_bond_type
C0 N1 1.317 . S
C0 N2 1.348 . S
C0 C3 1.485 . S
N1 C0 1.317 . S
N1 N5 1.370 . S
N2 C0 1.348 . S
N2 C4 1.346 . S
C3 C0 1.485 . S
C3 H7 0.960 . S
C3 H8 0.961 . S
C3 H9 0.960 . S
C4 N2 1.346 . S
C4 N5 1.307 . S
C4 C6 1.486 . S
N5 N1 1.370 . S
N5 C4 1.307 . S
C6 C4 1.486 . S
C6 H10 0.960 . S
C6 H11 0.960 . S
C6 H12 0.959 . S
H7 C3 0.960 . S
H8 C3 0.961 . S
H9 C3 0.960 . S
H10 C6 0.960 . S
H11 C6 0.960 . S
H12 C6 0.959 . S
C13 N14 1.317 . S
C13 N15 1.348 . S
C13 C16 1.485 . S
N14 C13 1.317 . S
N14 N18 1.370 . S
N15 C13 1.348 . S
N15 C17 1.346 . S
C16 C13 1.485 . S
C16 H20 0.960 . S
C16 H21 0.961 . S
C16 H22 0.960 . S
C17 N15 1.346 . S
C17 N18 1.307 . S
C17 C19 1.486 . S
N18 N14 1.370 . S
N18 C17 1.307 . S
C19 C17 1.486 . S
C19 H23 0.960 . S
C19 H24 0.960 . S
C19 H25 0.959 . S
H20 C16 0.960 . S
H21 C16 0.961 . S
H22 C16 0.960 . S
H23 C19 0.960 . S
H24 C19 0.960 . S
H25 C19 0.959 . S
C26 N27 1.317 . S
C26 N28 1.348 . S
C26 C29 1.485 . S
N27 C26 1.317 . S
N27 N31 1.370 . S
N28 C26 1.348 . S
N28 C30 1.346 . S
C29 C26 1.485 . S
C29 H33 0.960 . S
C29 H34 0.961 . S
C29 H35 0.960 . S
C30 N28 1.346 . S
C30 N31 1.307 . S
C30 C32 1.486 . S
N31 N27 1.370 . S
N31 C30 1.307 . S
C32 C30 1.486 . S
C32 H36 0.960 . S
C32 H37 0.960 . S
C32 H38 0.959 . S
H33 C29 0.960 . S
H34 C29 0.961 . S
H35 C29 0.960 . S
H36 C32 0.960 . S
H37 C32 0.960 . S
H38 C32 0.959 . S
C39 N40 1.317 . S
C39 N41 1.348 . S
C39 C42 1.485 . S
N40 C39 1.317 . S
N40 N44 1.370 . S
N41 C39 1.348 . S
N41 C43 1.346 . S
C42 C39 1.485 . S
C42 H46 0.960 . S
C42 H47 0.961 . S
C42 H48 0.960 . S
C43 N41 1.346 . S
C43 N44 1.307 . S
C43 C45 1.486 . S
N44 N40 1.370 . S
N44 C43 1.307 . S
C45 C43 1.486 . S
C45 H49 0.960 . S
C45 H50 0.960 . S
C45 H51 0.959 . S
H46 C42 0.960 . S
H47 C42 0.961 . S
H48 C42 0.960 . S
H49 C45 0.960 . S
H50 C45 0.960 . S
H51 C45 0.959 . S
C52 N53 1.317 . S
C52 N54 1.348 1_556 S
C52 C55 1.485 . S
N53 C52 1.317 . S
N53 N57 1.370 1_556 S
N54 C52 1.348 1_554 S
N54 C56 1.346 . S
C55 C52 1.485 . S
C55 H59 0.960 . S
C55 H60 0.961 . S
C55 H61 0.960 . S
C56 N54 1.346 . S
C56 N57 1.307 . S
C56 C58 1.486 . S
N57 N53 1.370 1_554 S
N57 C56 1.307 . S
C58 C56 1.486 . S
C58 H62 0.960 . S
C58 H63 0.960 . S
C58 H64 0.959 . S
H59 C55 0.960 . S
H60 C55 0.961 . S
H61 C55 0.960 . S
H62 C58 0.960 . S
H63 C58 0.960 . S
H64 C58 0.959 . S
C65 N66 1.317 . S
C65 N67 1.348 1_556 S
C65 C68 1.485 . S
N66 C65 1.317 . S
N66 N70 1.370 1_556 S
N67 C65 1.348 1_554 S
N67 C69 1.346 . S
C68 C65 1.485 . S
C68 H72 0.960 . S
C68 H73 0.961 . S
C68 H74 0.960 . S
C69 N67 1.346 . S
C69 N70 1.307 . S
C69 C71 1.486 . S
N70 N66 1.370 1_554 S
N70 C69 1.307 . S
C71 C69 1.486 . S
C71 H75 0.960 . S
C71 H76 0.960 . S
C71 H77 0.959 . S
H72 C68 0.960 . S
H73 C68 0.961 . S
H74 C68 0.960 . S
H75 C71 0.960 . S
H76 C71 0.960 . S
H77 C71 0.959 . S
C78 N79 1.317 . S
C78 N80 1.348 1_556 S
C78 C81 1.485 . S
N79 C78 1.317 . S
N79 N83 1.370 1_556 S
N80 C78 1.348 1_554 S
N80 C82 1.346 . S
C81 C78 1.485 . S
C81 H85 0.960 . S
C81 H86 0.961 . S
C81 H87 0.960 . S
C82 N80 1.346 . S
C82 N83 1.307 . S
C82 C84 1.486 . S
N83 N79 1.370 1_554 S
N83 C82 1.307 . S
C84 C82 1.486 . S
C84 H88 0.960 . S
C84 H89 0.960 . S
C84 H90 0.959 . S
H85 C81 0.960 . S
H86 C81 0.961 . S
H87 C81 0.960 . S
H88 C84 0.960 . S
H89 C84 0.960 . S
H90 C84 0.959 . S
C91 N92 1.317 . S
C91 N93 1.348 1_556 S
C91 C94 1.485 . S
N92 C91 1.317 . S
N92 N96 1.370 1_556 S
N93 C91 1.348 1_554 S
N93 C95 1.346 . S
C94 C91 1.485 . S
C94 H98 0.960 . S
C94 H99 0.961 . S
C94 H100 0.960 . S
C95 N93 1.346 . S
C95 N96 1.307 . S
C95 C97 1.486 . S
N96 N92 1.370 1_554 S
N96 C95 1.307 . S
C97 C95 1.486 . S
C97 H101 0.960 . S
C97 H102 0.960 . S
C97 H103 0.959 . S
H98 C94 0.960 . S
H99 C94 0.961 . S
H100 C94 0.960 . S
H101 C97 0.960 . S
H102 C97 0.960 . S
H103 C97 0.959 . S
Eu104 N135 2.657 1_565 S
Eu104 N142 2.609 1_565 S
Eu104 O148 2.558 . S
Eu104 O149 2.612 1_455 S
Eu104 O151 2.339 1_455 S
Eu104 O152 2.563 . S
Eu104 O153 2.419 . S
Eu104 O155 2.380 1_565 S
Eu104 O156 2.432 . S
Eu104 C168 2.848 . S
C105 C108 1.429 1_545 S
C105 C109 1.411 1_545 S
C105 N112 1.377 . S
C106 C108 1.420 . S
C106 C110 1.423 . S
C106 C118 1.392 . S
C107 C109 1.420 . S
C107 C110 1.351 . S
C107 H130 0.931 . S
C108 C105 1.429 1_565 S
C108 C106 1.420 . S
C108 N116 1.362 . S
C109 C105 1.411 1_565 S
C109 C107 1.420 . S
C109 C114 1.395 1_565 S
C110 C106 1.423 . S
C110 C107 1.351 . S
C110 H122 0.930 . S
C111 C113 1.400 . S
C111 C114 1.386 . S
C111 H123 0.930 . S
N112 C105 1.377 . S
N112 C113 1.321 . S
N112 Eu115 2.609 . S
C113 C111 1.400 . S
C113 N112 1.321 . S
C113 H120 0.930 . S
C114 C109 1.395 1_545 S
C114 C111 1.386 . S
C114 H133 0.930 . S
Eu115 N112 2.609 . S
Eu115 N116 2.657 1_545 S
Eu115 O149 2.380 1_545 S
Eu115 O150 2.432 . S
Eu115 O154 2.558 . S
Eu115 O155 2.612 1_655 S
Eu115 O157 2.339 1_655 S
Eu115 O158 2.563 1_655 S
Eu115 O159 2.419 . S
Eu115 C179 2.848 . S
N116 C108 1.362 . S
N116 Eu115 2.657 1_565 S
N116 C117 1.334 1_655 S
C117 N116 1.334 1_455 S
C117 C119 1.413 . S
C117 H124 0.929 . S
C118 C106 1.392 . S
C118 C119 1.367 1_655 S
C118 H126 0.930 . S
C119 C117 1.413 . S
C119 C118 1.367 1_455 S
C119 H121 0.930 . S
H120 C113 0.930 . S
H121 C119 0.930 . S
H122 C110 0.930 . S
H123 C111 0.930 . S
H124 C117 0.929 . S
H125 C139 0.930 1_655 S
H126 C118 0.930 . S
H127 C145 0.930 . S
H128 C136 0.929 1_655 S
H129 C143 0.930 . S
H130 C107 0.931 . S
H131 C137 0.930 . S
H132 C170 0.930 . S
H133 C114 0.930 . S
H134 C169 0.931 . S
N135 Eu104 2.657 1_545 S
N135 C136 1.334 . S
N135 C140 1.362 . S
C136 H128 0.929 1_455 S
C136 N135 1.334 . S
C136 C139 1.413 1_556 S
C137 H131 0.930 . S
C137 C138 1.392 . S
C137 C139 1.367 . S
C138 C137 1.392 . S
C138 C140 1.420 1_554 S
C138 C170 1.423 . S
C139 H125 0.930 1_455 S
C139 C136 1.413 1_554 S
C139 C137 1.367 . S
C140 N135 1.362 . S
C140 C138 1.420 1_556 S
C140 C144 1.429 . S
H141 C146 0.930 . S
N142 Eu104 2.609 1_545 S
N142 C144 1.377 . S
N142 C145 1.321 1_545 S
C143 H129 0.930 . S
C143 C145 1.400 . S
C143 C146 1.386 1_565 S
C144 C140 1.429 . S
C144 N142 1.377 . S
C144 C147 1.411 . S
C145 H127 0.930 . S
C145 N142 1.321 1_565 S
C145 C143 1.400 . S
C146 H141 0.930 . S
C146 C143 1.386 1_545 S
C146 C147 1.395 . S
C147 C144 1.411 . S
C147 C146 1.395 . S
C147 C169 1.420 1_556 S
O148 Eu104 2.558 . S
O148 C168 1.257 . S
O149 Eu104 2.612 1_655 S
O149 Eu115 2.380 1_565 S
O149 C160 1.276 . S
O150 Eu115 2.432 . S
O150 C167 1.264 . S
O151 Eu104 2.339 1_655 S
O151 C167 1.254 1_565 S
O152 Eu104 2.563 . S
O152 C160 1.235 1_455 S
O153 Eu104 2.419 . S
O153 C168 1.249 . S
O154 Eu115 2.558 . S
O154 C179 1.257 . S
O155 Eu104 2.380 1_545 S
O155 Eu115 2.612 1_455 S
O155 C171 1.276 . S
O156 Eu104 2.432 . S
O156 C178 1.264 1_565 S
O157 Eu115 2.339 1_455 S
O157 C178 1.254 . S
O158 Eu115 2.563 1_455 S
O158 C171 1.235 . S
O159 Eu115 2.419 . S
O159 C179 1.249 . S
C160 O149 1.276 . S
C160 O152 1.235 1_655 S
C161 C163 1.393 1_556 S
C161 C165 1.395 . S
C161 C168 1.492 . S
C162 C163 1.392 . S
C162 C164 1.386 . S
C163 C161 1.393 1_554 S
C163 C162 1.392 . S
C163 H180 0.930 1_554 S
C164 C162 1.386 . S
C164 C166 1.395 . S
C164 H181 0.930 . S
C165 C161 1.395 . S
C165 C166 1.379 1_556 S
C165 H182 0.930 . S
C166 C164 1.395 . S
C166 C165 1.379 1_554 S
C166 H183 0.930 . S
C167 O150 1.264 . S
C167 O151 1.254 1_545 S
C168 Eu104 2.848 . S
C168 O148 1.257 . S
C168 O153 1.249 . S
C168 C161 1.492 . S
C169 H134 0.931 . S
C169 C147 1.420 1_554 S
C169 C170 1.351 . S
C170 H132 0.930 . S
C170 C138 1.423 . S
C170 C169 1.351 . S
C171 O155 1.276 . S
C171 O158 1.235 . S
C172 C173 1.393 . S
C172 C176 1.395 . S
C172 C179 1.492 . S
C173 C172 1.393 . S
C173 C174 1.392 . S
C173 H184 0.930 1_655 S
C174 C173 1.392 . S
C174 C175 1.386 . S
C175 C174 1.386 . S
C175 C177 1.395 . S
C175 H185 0.930 . S
C176 C172 1.395 . S
C176 C177 1.379 . S
C176 H186 0.930 . S
C177 C175 1.395 . S
C177 C176 1.379 . S
C177 H187 0.930 . S
C178 O156 1.264 1_545 S
C178 O157 1.254 . S
C179 Eu115 2.848 . S
C179 O154 1.257 . S
C179 O159 1.249 . S
C179 C172 1.492 . S
H180 C163 0.930 1_556 S
H181 C164 0.930 . S
H182 C165 0.930 . S
H183 C166 0.930 . S
H184 C173 0.930 1_455 S
H185 C175 0.930 . S
H186 C176 0.930 . S
H187 C177 0.930 . S
Eu188 N219 2.657 . S
Eu188 N226 2.609 . S
Eu188 O232 2.558 . S
Eu188 O233 2.612 1_545 S
Eu188 O235 2.339 1_545 S
Eu188 O236 2.563 . S
Eu188 O237 2.419 . S
Eu188 O239 2.380 . S
Eu188 O240 2.432 . S
Eu188 C252 2.848 . S
C189 C192 1.429 . S
C189 C193 1.411 . S
C189 N196 1.377 . S
C190 C192 1.420 . S
C190 C194 1.423 . S
C190 C202 1.392 . S
C191 C193 1.420 . S
C191 C194 1.351 . S
C191 H214 0.931 . S
C192 C189 1.429 . S
C192 C190 1.420 . S
C192 N200 1.362 . S
C193 C189 1.411 . S
C193 C191 1.420 . S
C193 C198 1.395 . S
C194 C190 1.423 . S
C194 C191 1.351 . S
C194 H206 0.930 . S
C195 C197 1.400 . S
C195 C198 1.386 . S
C195 H207 0.930 . S
N196 C189 1.377 . S
N196 C197 1.321 . S
N196 Eu199 2.609 . S
C197 C195 1.400 . S
C197 N196 1.321 . S
C197 H204 0.930 . S
C198 C193 1.395 . S
C198 C195 1.386 . S
C198 H217 0.930 . S
Eu199 N196 2.609 . S
Eu199 N200 2.657 . S
Eu199 O233 2.380 . S
Eu199 O234 2.432 . S
Eu199 O238 2.558 . S
Eu199 O239 2.612 1_565 S
Eu199 O241 2.339 1_565 S
Eu199 O242 2.563 1_565 S
Eu199 O243 2.419 . S
Eu199 C263 2.848 . S
N200 C192 1.362 . S
N200 Eu199 2.657 . S
N200 C201 1.334 1_565 S
C201 N200 1.334 1_545 S
C201 C203 1.413 . S
C201 H208 0.929 . S
C202 C190 1.392 . S
C202 C203 1.367 1_565 S
C202 H210 0.930 . S
C203 C201 1.413 . S
C203 C202 1.367 1_545 S
C203 H205 0.930 . S
H204 C197 0.930 . S
H205 C203 0.930 . S
H206 C194 0.930 . S
H207 C195 0.930 . S
H208 C201 0.929 . S
H209 C223 0.930 1_565 S
H210 C202 0.930 . S
H211 C229 0.930 . S
H212 C220 0.929 1_565 S
H213 C227 0.930 . S
H214 C191 0.931 . S
H215 C221 0.930 . S
H216 C254 0.930 . S
H217 C198 0.930 . S
H218 C253 0.931 . S
N219 Eu188 2.657 . S
N219 C220 1.334 . S
N219 C224 1.362 . S
C220 H212 0.929 1_545 S
C220 N219 1.334 . S
C220 C223 1.413 1_556 S
C221 H215 0.930 . S
C221 C222 1.392 . S
C221 C223 1.367 . S
C222 C221 1.392 . S
C222 C224 1.420 1_554 S
C222 C254 1.423 . S
C223 H209 0.930 1_545 S
C223 C220 1.413 1_554 S
C223 C221 1.367 . S
C224 N219 1.362 . S
C224 C222 1.420 1_556 S
C224 C228 1.429 . S
H225 C230 0.930 . S
N226 Eu188 2.609 . S
N226 C228 1.377 . S
N226 C229 1.321 . S
C227 H213 0.930 . S
C227 C229 1.400 . S
C227 C230 1.386 . S
C228 C224 1.429 . S
C228 N226 1.377 . S
C228 C231 1.411 . S
C229 H211 0.930 . S
C229 N226 1.321 . S
C229 C227 1.400 . S
C230 H225 0.930 . S
C230 C227 1.386 . S
C230 C231 1.395 . S
C231 C228 1.411 . S
C231 C230 1.395 . S
C231 C253 1.420 1_556 S
O232 Eu188 2.558 . S
O232 C252 1.257 . S
O233 Eu188 2.612 1_565 S
O233 Eu199 2.380 . S
O233 C244 1.278 . S
O234 Eu199 2.432 . S
O234 C251 1.264 . S
O235 Eu188 2.339 1_565 S
O235 C251 1.254 . S
O236 Eu188 2.563 . S
O236 C244 1.216 1_545 S
O237 Eu188 2.419 . S
O237 C252 1.249 . S
O238 Eu199 2.558 . S
O238 C263 1.257 . S
O239 Eu188 2.380 . S
O239 Eu199 2.612 1_545 S
O239 C255 1.276 . S
O240 Eu188 2.432 . S
O240 C262 1.264 . S
O241 Eu199 2.339 1_545 S
O241 C262 1.254 . S
O242 Eu199 2.563 1_545 S
O242 C255 1.235 . S
O243 Eu199 2.419 . S
O243 C263 1.249 . S
C244 O233 1.278 . S
C244 O236 1.216 1_565 S
C245 C247 1.393 1_556 S
C245 C249 1.395 . S
C245 C252 1.492 . S
C246 C247 1.392 . S
C246 C248 1.386 . S
C247 C245 1.393 1_554 S
C247 C246 1.392 . S
C247 H264 0.930 1_554 S
C248 C246 1.386 . S
C248 C250 1.395 . S
C248 H265 0.930 . S
C249 C245 1.395 . S
C249 C250 1.379 1_556 S
C249 H266 0.930 . S
C250 C248 1.395 . S
C250 C249 1.379 1_554 S
C250 H267 0.930 . S
C251 O234 1.264 . S
C251 O235 1.254 . S
C252 Eu188 2.848 . S
C252 O232 1.257 . S
C252 O237 1.249 . S
C252 C245 1.492 . S
C253 H218 0.931 . S
C253 C231 1.420 1_554 S
C253 C254 1.351 . S
C254 H216 0.930 . S
C254 C222 1.423 . S
C254 C253 1.351 . S
C255 O239 1.276 . S
C255 O242 1.235 . S
C256 C257 1.393 . S
C256 C260 1.395 . S
C256 C263 1.492 . S
C257 C256 1.393 . S
C257 C258 1.392 . S
C257 H268 0.930 1_565 S
C258 C257 1.392 . S
C258 C259 1.386 . S
C259 C258 1.386 . S
C259 C261 1.395 . S
C259 H269 0.930 . S
C260 C256 1.395 . S
C260 C261 1.379 . S
C260 H270 0.930 . S
C261 C259 1.395 . S
C261 C260 1.379 . S
C261 H271 0.930 . S
C262 O240 1.264 . S
C262 O241 1.254 . S
C263 Eu199 2.848 . S
C263 O238 1.257 . S
C263 O243 1.249 . S
C263 C256 1.492 . S
H264 C247 0.930 1_556 S
H265 C248 0.930 . S
H266 C249 0.930 . S
H267 C250 0.930 . S
H268 C257 0.930 1_545 S
H269 C259 0.930 . S
H270 C260 0.930 . S
H271 C261 0.930 . S
Eu272 N303 2.657 . S
Eu272 N310 2.609 . S
Eu272 O316 2.558 . S
Eu272 O317 2.612 . S
Eu272 O319 2.339 . S
Eu272 O320 2.563 . S
Eu272 O321 2.419 . S
Eu272 O323 2.380 . S
Eu272 O324 2.432 . S
Eu272 C336 2.848 . S
C273 C276 1.429 . S
C273 C277 1.411 . S
C273 N280 1.377 . S
C274 C276 1.420 . S
C274 C278 1.423 . S
C274 C286 1.392 . S
C275 C277 1.420 . S
C275 C278 1.351 . S
C275 H298 0.931 . S
C276 C273 1.429 . S
C276 C274 1.420 . S
C276 N284 1.362 . S
C277 C273 1.411 . S
C277 C275 1.420 . S
C277 C282 1.395 . S
C278 C274 1.423 . S
C278 C275 1.351 . S
C278 H290 0.930 . S
C279 C281 1.400 . S
C279 C282 1.386 . S
C279 H291 0.930 1_556 S
N280 C273 1.377 . S
N280 C281 1.321 . S
N280 Eu283 2.609 . S
C281 C279 1.400 . S
C281 N280 1.321 . S
C281 H288 0.930 . S
C282 C277 1.395 . S
C282 C279 1.386 . S
C282 H301 0.930 . S
Eu283 N280 2.609 . S
Eu283 N284 2.657 . S
Eu283 O317 2.380 . S
Eu283 O318 2.432 . S
Eu283 O322 2.558 . S
Eu283 O323 2.612 . S
Eu283 O325 2.339 . S
Eu283 O326 2.563 . S
Eu283 O327 2.419 . S
Eu283 C347 2.848 . S
N284 C276 1.362 . S
N284 Eu283 2.657 . S
N284 C285 1.334 . S
C285 N284 1.334 . S
C285 C287 1.413 . S
C285 H292 0.929 . S
C286 C274 1.392 . S
C286 C287 1.367 . S
C286 H294 0.930 . S
C287 C285 1.413 . S
C287 C286 1.367 . S
C287 H289 0.930 . S
H288 C281 0.930 . S
H289 C287 0.930 . S
H290 C278 0.930 . S
H291 C279 0.930 1_554 S
H292 C285 0.929 . S
H293 C307 0.930 . S
H294 C286 0.930 . S
H295 C313 0.930 . S
H296 C304 0.929 . S
H297 C311 0.930 . S
H298 C275 0.931 . S
H299 C305 0.930 . S
H300 C338 0.930 . S
H301 C282 0.930 . S
H302 C337 0.931 . S
N303 Eu272 2.657 . S
N303 C304 1.334 . S
N303 C308 1.362 . S
C304 H296 0.929 . S
C304 N303 1.334 . S
C304 C307 1.413 . S
C305 H299 0.930 . S
C305 C306 1.392 . S
C305 C307 1.367 . S
C306 C305 1.392 . S
C306 C308 1.420 . S
C306 C338 1.423 . S
C307 H293 0.930 . S
C307 C304 1.413 . S
C307 C305 1.367 . S
C308 N303 1.362 . S
C308 C306 1.420 . S
C308 C312 1.429 . S
H309 C314 0.930 . S
N310 Eu272 2.609 . S
N310 C312 1.377 . S
N310 C313 1.321 . S
C311 H297 0.930 . S
C311 C313 1.400 . S
C311 C314 1.386 . S
C312 C308 1.429 . S
C312 N310 1.377 . S
C312 C315 1.411 . S
C313 H295 0.930 . S
C313 N310 1.321 . S
C313 C311 1.400 . S
C314 H309 0.930 . S
C314 C311 1.386 . S
C314 C315 1.395 . S
C315 C312 1.411 . S
C315 C314 1.395 . S
C315 C337 1.420 . S
O316 Eu272 2.558 . S
O316 C336 1.257 . S
O317 Eu272 2.612 . S
O317 Eu283 2.380 . S
O317 C328 1.276 . S
O318 Eu283 2.432 . S
O318 C335 1.264 . S
O319 Eu272 2.339 . S
O319 C335 1.254 . S
O320 Eu272 2.563 . S
O320 C328 1.235 . S
O321 Eu272 2.419 . S
O321 C336 1.249 . S
O322 Eu283 2.558 . S
O322 C347 1.257 . S
O323 Eu272 2.380 . S
O323 Eu283 2.612 . S
O323 C339 1.276 . S
O324 Eu272 2.432 . S
O324 C346 1.264 . S
O325 Eu283 2.339 . S
O325 C346 1.254 . S
O326 Eu283 2.563 . S
O326 C339 1.235 . S
O327 Eu283 2.419 . S
O327 C347 1.249 . S
C328 O317 1.276 . S
C328 O320 1.235 . S
C329 C331 1.393 . S
C329 C333 1.395 . S
C329 C336 1.492 . S
C330 C331 1.392 . S
C330 C332 1.386 . S
C331 C329 1.393 . S
C331 C330 1.392 . S
C331 H348 0.930 . S
C332 C330 1.386 . S
C332 C334 1.395 . S
C332 H349 0.930 . S
C333 C329 1.395 . S
C333 C334 1.379 . S
C333 H350 0.930 . S
C334 C332 1.395 . S
C334 C333 1.379 . S
C334 H351 0.930 . S
C335 O318 1.264 . S
C335 O319 1.254 . S
C336 Eu272 2.848 . S
C336 O316 1.257 . S
C336 O321 1.249 . S
C336 C329 1.492 . S
C337 H302 0.931 . S
C337 C315 1.420 . S
C337 C338 1.351 . S
C338 H300 0.930 . S
C338 C306 1.423 . S
C338 C337 1.351 . S
C339 O323 1.276 . S
C339 O326 1.235 . S
C340 C341 1.393 . S
C340 C344 1.395 . S
C340 C347 1.492 1_554 S
C341 C340 1.393 . S
C341 C342 1.392 . S
C341 H352 0.930 1_554 S
C342 C341 1.392 . S
C342 C343 1.386 . S
C343 C342 1.386 . S
C343 C345 1.395 . S
C343 H353 0.930 . S
C344 C340 1.395 . S
C344 C345 1.379 . S
C344 H354 0.930 . S
C345 C343 1.395 . S
C345 C344 1.379 . S
C345 H355 0.930 . S
C346 O324 1.264 . S
C346 O325 1.254 . S
C347 Eu283 2.848 . S
C347 O322 1.257 . S
C347 O327 1.249 . S
C347 C340 1.492 1_556 S
H348 C331 0.930 . S
H349 C332 0.930 . S
H350 C333 0.930 . S
H351 C334 0.930 . S
H352 C341 0.930 1_556 S
H353 C343 0.930 . S
H354 C344 0.930 . S
H355 C345 0.930 . S
Eu356 N387 2.657 . S
Eu356 N394 2.609 . S
Eu356 O400 2.558 . S
Eu356 O401 2.612 . S
Eu356 O403 2.339 . S
Eu356 O404 2.563 . S
Eu356 O405 2.419 . S
Eu356 O407 2.380 . S
Eu356 O408 2.432 1_455 S
Eu356 C420 2.848 . S
C357 C360 1.429 . S
C357 C361 1.411 . S
C357 N364 1.377 . S
C358 C360 1.420 . S
C358 C362 1.423 . S
C358 C370 1.392 . S
C359 C361 1.420 . S
C359 C362 1.351 . S
C359 H382 0.931 . S
C360 C357 1.429 . S
C360 C358 1.420 . S
C360 N368 1.362 . S
C361 C357 1.411 . S
C361 C359 1.420 . S
C361 C366 1.395 1_655 S
C362 C358 1.423 . S
C362 C359 1.351 . S
C362 H374 0.930 . S
C363 C365 1.400 . S
C363 C366 1.386 . S
C363 H375 0.930 1_556 S
N364 C357 1.377 . S
N364 C365 1.321 1_655 S
N364 Eu367 2.609 . S
C365 C363 1.400 . S
C365 N364 1.321 1_455 S
C365 H372 0.930 . S
C366 C361 1.395 1_455 S
C366 C363 1.386 . S
C366 H385 0.930 . S
Eu367 N364 2.609 . S
Eu367 N368 2.657 . S
Eu367 O401 2.380 1_655 S
Eu367 O402 2.432 1_655 S
Eu367 O406 2.558 . S
Eu367 O407 2.612 1_655 S
Eu367 O409 2.339 . S
Eu367 O410 2.563 . S
Eu367 O411 2.419 . S
Eu367 C431 2.848 . S
N368 C360 1.362 . S
N368 Eu367 2.657 . S
N368 C369 1.334 . S
C369 N368 1.334 . S
C369 C371 1.413 . S
C369 H376 0.929 . S
C370 C358 1.392 . S
C370 C371 1.367 . S
C370 H378 0.930 . S
C371 C369 1.413 . S
C371 C370 1.367 . S
C371 H373 0.930 . S
H372 C365 0.930 . S
H373 C371 0.930 . S
H374 C362 0.930 . S
H375 C363 0.930 1_554 S
H376 C369 0.929 . S
H377 C391 0.930 . S
H378 C370 0.930 . S
H379 C397 0.930 . S
H380 C388 0.929 . S
H381 C395 0.930 . S
H382 C359 0.931 . S
H383 C389 0.930 . S
H384 C422 0.930 . S
H385 C366 0.930 . S
H386 C421 0.931 . S
N387 Eu356 2.657 . S
N387 C388 1.334 . S
N387 C392 1.362 . S
C388 H380 0.929 . S
C388 N387 1.334 . S
C388 C391 1.413 . S
C389 H383 0.930 . S
C389 C390 1.392 . S
C389 C391 1.367 . S
C390 C389 1.392 . S
C390 C392 1.420 . S
C390 C422 1.423 . S
C391 H377 0.930 . S
C391 C388 1.413 . S
C391 C389 1.367 . S
C392 N387 1.362 . S
C392 C390 1.420 . S
C392 C396 1.429 . S
H393 C398 0.930 . S
N394 Eu356 2.609 . S
N394 C396 1.377 . S
N394 C397 1.321 1_455 S
C395 H381 0.930 . S
C395 C397 1.400 . S
C395 C398 1.386 1_655 S
C396 C392 1.429 . S
C396 N394 1.377 . S
C396 C399 1.411 . S
C397 H379 0.930 . S
C397 N394 1.321 1_655 S
C397 C395 1.400 . S
C398 H393 0.930 . S
C398 C395 1.386 1_455 S
C398 C399 1.395 . S
C399 C396 1.411 . S
C399 C398 1.395 . S
C399 C421 1.420 . S
O400 Eu356 2.558 . S
O400 C420 1.257 . S
O401 Eu356 2.612 . S
O401 Eu367 2.380 1_455 S
O401 C412 1.276 . S
O402 Eu367 2.432 1_455 S
O402 C419 1.264 . S
O403 Eu356 2.339 . S
O403 C419 1.254 . S
O404 Eu356 2.563 . S
O404 C412 1.235 . S
O405 Eu356 2.419 . S
O405 C420 1.249 . S
O406 Eu367 2.558 . S
O406 C431 1.257 . S
O407 Eu356 2.380 . S
O407 Eu367 2.612 1_455 S
O407 C423 1.276 1_455 S
O408 Eu356 2.432 1_655 S
O408 C430 1.264 . S
O409 Eu367 2.339 . S
O409 C430 1.254 . S
O410 Eu367 2.563 . S
O410 C423 1.235 . S
O411 Eu367 2.419 . S
O411 C431 1.249 . S
C412 O401 1.276 . S
C412 O404 1.235 . S
C413 C415 1.393 . S
C413 C417 1.395 . S
C413 C420 1.492 . S
C414 C415 1.392 . S
C414 C416 1.386 . S
C415 C413 1.393 . S
C415 C414 1.392 . S
C415 H432 0.930 . S
C416 C414 1.386 . S
C416 C418 1.395 . S
C416 H433 0.930 . S
C417 C413 1.395 . S
C417 C418 1.379 . S
C417 H434 0.930 . S
C418 C416 1.395 . S
C418 C417 1.379 . S
C418 H435 0.930 . S
C419 O402 1.264 . S
C419 O403 1.254 . S
C420 Eu356 2.848 . S
C420 O400 1.257 . S
C420 O405 1.249 . S
C420 C413 1.492 . S
C421 H386 0.931 . S
C421 C399 1.420 . S
C421 C422 1.351 . S
C422 H384 0.930 . S
C422 C390 1.423 . S
C422 C421 1.351 . S
C423 O407 1.276 1_655 S
C423 O410 1.235 . S
C424 C425 1.393 . S
C424 C428 1.395 . S
C424 C431 1.492 1_554 S
C425 C424 1.393 . S
C425 C426 1.392 . S
C425 H436 0.930 1_554 S
C426 C425 1.392 . S
C426 C427 1.386 . S
C427 C426 1.386 . S
C427 C429 1.395 . S
C427 H437 0.930 . S
C428 C424 1.395 . S
C428 C429 1.379 . S
C428 H438 0.930 . S
C429 C427 1.395 . S
C429 C428 1.379 . S
C429 H439 0.930 . S
C430 O408 1.264 . S
C430 O409 1.254 . S
C431 Eu367 2.848 . S
C431 O406 1.257 . S
C431 O411 1.249 . S
C431 C424 1.492 1_556 S
H432 C415 0.930 . S
H433 C416 0.930 . S
H434 C417 0.930 . S
H435 C418 0.930 . S
H436 C425 0.930 1_556 S
H437 C427 0.930 . S
H438 C428 0.930 . S
H439 C429 0.930 . S
H440 C452 0.930 . S
H441 C454 0.930 . S
H442 C455 0.930 1_565 S
H443 C459 0.959 . S
H444 C459 0.959 . S
H445 C459 0.961 . S
H446 C460 0.960 . S
H447 C460 0.961 . S
H448 C460 0.959 . S
H449 C463 0.929 . S
H450 C464 0.925 1_565 S
H451 C466 0.930 . S
C452 H440 0.930 . S
C452 C453 1.399 . S
C452 C457 1.399 . S
C453 C452 1.399 . S
C453 C454 1.376 . S
C454 H441 0.930 . S
C454 C453 1.376 . S
C454 C455 1.388 . S
C455 H442 0.930 1_545 S
C455 C454 1.388 . S
C455 C456 1.390 . S
C456 C455 1.390 . S
C456 C457 1.394 . S
C456 C462 1.465 . S
C457 C452 1.399 . S
C457 C456 1.394 . S
C457 C458 1.516 . S
C458 C457 1.516 . S
C458 C459 1.502 . S
C458 C460 1.561 . S
C458 C461 1.526 . S
C459 H443 0.959 . S
C459 H444 0.959 . S
C459 H445 0.961 . S
C459 C458 1.502 . S
C460 H446 0.960 . S
C460 H447 0.961 . S
C460 H448 0.959 . S
C460 C458 1.561 . S
C461 C458 1.526 . S
C461 C462 1.396 . S
C461 C466 1.390 . S
C462 C456 1.465 . S
C462 C461 1.396 . S
C462 C463 1.399 1_545 S
C463 H449 0.929 . S
C463 C462 1.399 1_565 S
C463 C464 1.385 1_565 S
C464 H450 0.925 1_545 S
C464 C463 1.385 1_545 S
C464 C465 1.396 . S
C465 C464 1.396 . S
C465 C466 1.387 . S
C466 H451 0.930 . S
C466 C461 1.390 . S
C466 C465 1.387 . S
H467 C479 0.930 . S
H468 C481 0.930 . S
H469 C482 0.930 . S
H470 C486 0.959 . S
H471 C486 0.959 . S
H472 C486 0.961 . S
H473 C487 0.960 . S
H474 C487 0.961 . S
H475 C487 0.959 . S
H476 C490 0.929 . S
H477 C491 0.931 . S
H478 C493 0.930 . S
C479 H467 0.930 . S
C479 C480 1.399 . S
C479 C484 1.399 . S
C480 C479 1.399 . S
C480 C481 1.376 . S
C481 H468 0.930 . S
C481 C480 1.376 . S
C481 C482 1.388 . S
C482 H469 0.930 . S
C482 C481 1.388 . S
C482 C483 1.390 . S
C483 C482 1.390 . S
C483 C484 1.394 . S
C483 C489 1.465 . S
C484 C479 1.399 . S
C484 C483 1.394 . S
C484 C485 1.516 . S
C485 C484 1.516 . S
C485 C486 1.502 . S
C485 C487 1.561 . S
C485 C488 1.526 . S
C486 H470 0.959 . S
C486 H471 0.959 . S
C486 H472 0.961 . S
C486 C485 1.502 . S
C487 H473 0.960 . S
C487 H474 0.961 . S
C487 H475 0.959 . S
C487 C485 1.561 . S
C488 C485 1.526 . S
C488 C489 1.396 . S
C488 C493 1.390 . S
C489 C483 1.465 . S
C489 C488 1.396 . S
C489 C490 1.399 . S
C490 H476 0.929 . S
C490 C489 1.399 . S
C490 C491 1.385 . S
C491 H477 0.931 . S
C491 C490 1.385 . S
C491 C492 1.389 . S
C492 C491 1.389 . S
C492 C493 1.387 . S
C493 H478 0.930 . S
C493 C488 1.390 . S
C493 C492 1.387 . S
H494 C506 0.930 . S
H495 C508 0.930 . S
H496 C509 0.930 . S
H497 C513 0.959 . S
H498 C513 0.959 . S
H499 C513 0.961 . S
H500 C514 0.960 . S
H501 C514 0.961 . S
H502 C514 0.959 . S
H503 C517 0.929 . S
H504 C518 0.931 . S
H505 C520 0.930 . S
C506 H494 0.930 . S
C506 C507 1.399 . S
C506 C511 1.399 . S
C507 C506 1.399 . S
C507 C508 1.376 . S
C508 H495 0.930 . S
C508 C507 1.376 . S
C508 C509 1.388 . S
C509 H496 0.930 . S
C509 C508 1.388 . S
C509 C510 1.390 . S
C510 C509 1.390 . S
C510 C511 1.394 . S
C510 C516 1.465 . S
C511 C506 1.399 . S
C511 C510 1.394 . S
C511 C512 1.516 . S
C512 C511 1.516 . S
C512 C513 1.502 . S
C512 C514 1.561 . S
C512 C515 1.526 . S
C513 H497 0.959 . S
C513 H498 0.959 . S
C513 H499 0.961 . S
C513 C512 1.502 . S
C514 H500 0.960 . S
C514 H501 0.961 . S
C514 H502 0.959 . S
C514 C512 1.561 . S
C515 C512 1.526 . S
C515 C516 1.396 . S
C515 C520 1.390 . S
C516 C510 1.465 . S
C516 C515 1.396 . S
C516 C517 1.399 . S
C517 H503 0.929 . S
C517 C516 1.399 . S
C517 C518 1.385 . S
C518 H504 0.931 . S
C518 C517 1.385 . S
C518 C519 1.389 . S
C519 C518 1.389 . S
C519 C520 1.387 . S
C520 H505 0.930 . S
C520 C515 1.390 . S
C520 C519 1.387 . S
H521 C533 0.930 . S
H522 C535 0.930 . S
H523 C536 0.930 . S
H524 C540 0.959 . S
H525 C540 0.959 . S
H526 C540 0.961 . S
H527 C541 0.960 . S
H528 C541 0.961 . S
H529 C541 0.959 . S
H530 C544 0.929 . S
H531 C545 0.931 . S
H532 C547 0.930 . S
C533 H521 0.930 . S
C533 C534 1.399 . S
C533 C538 1.399 . S
C534 C533 1.399 . S
C534 C535 1.376 . S
C535 H522 0.930 . S
C535 C534 1.376 . S
C535 C536 1.388 . S
C536 H523 0.930 . S
C536 C535 1.388 . S
C536 C537 1.390 . S
C537 C536 1.390 . S
C537 C538 1.394 . S
C537 C543 1.465 . S
C538 C533 1.399 . S
C538 C537 1.394 . S
C538 C539 1.516 . S
C539 C538 1.516 . S
C539 C540 1.502 . S
C539 C541 1.561 . S
C539 C542 1.526 . S
C540 H524 0.959 . S
C540 H525 0.959 . S
C540 H526 0.961 . S
C540 C539 1.502 . S
C541 H527 0.960 . S
C541 H528 0.961 . S
C541 H529 0.959 . S
C541 C539 1.561 . S
C542 C539 1.526 . S
C542 C543 1.396 . S
C542 C547 1.390 . S
C543 C537 1.465 . S
C543 C542 1.396 . S
C543 C544 1.399 . S
C544 H530 0.929 . S
C544 C543 1.399 . S
C544 C545 1.385 . S
C545 H531 0.931 . S
C545 C544 1.385 . S
C545 C546 1.389 . S
C546 C545 1.389 . S
C546 C547 1.387 . S
C547 H532 0.930 . S
C547 C542 1.390 . S
C547 C546 1.387 . S
H548 C560 0.930 . S
H549 C562 0.930 1_545 S
H550 C563 0.930 . S
H551 C567 0.959 . S
H552 C567 0.959 . S
H553 C567 0.961 . S
H554 C568 0.960 . S
H555 C568 0.961 1_556 S
H556 C568 0.959 1_556 S
H557 C571 0.929 . S
H558 C572 0.931 . S
H559 C574 0.930 . S
C560 H548 0.930 . S
C560 C561 1.399 . S
C560 C565 1.399 . S
C561 C560 1.399 . S
C561 C562 1.376 . S
C562 H549 0.930 1_565 S
C562 C561 1.376 . S
C562 C563 1.388 1_565 S
C563 H550 0.930 . S
C563 C562 1.388 1_545 S
C563 C564 1.390 1_545 S
C564 C563 1.390 1_565 S
C564 C565 1.394 . S
C564 C570 1.465 . S
C565 C560 1.399 . S
C565 C564 1.394 . S
C565 C566 1.516 . S
C566 C565 1.516 . S
C566 C567 1.502 . S
C566 C568 1.561 . S
C566 C569 1.529 . S
C567 H551 0.959 . S
C567 H552 0.959 . S
C567 H553 0.961 . S
C567 C566 1.502 . S
C568 H554 0.960 . S
C568 H555 0.961 1_554 S
C568 H556 0.959 1_554 S
C568 C566 1.561 . S
C569 C566 1.529 . S
C569 C570 1.397 . S
C569 C574 1.386 1_554 S
C570 C564 1.465 . S
C570 C569 1.397 . S
C570 C571 1.399 1_564 S
C571 H557 0.929 . S
C571 C570 1.399 1_546 S
C571 C572 1.385 . S
C572 H558 0.931 . S
C572 C571 1.385 . S
C572 C573 1.389 1_545 S
C573 C572 1.389 1_565 S
C573 C574 1.387 . S
C574 H559 0.930 . S
C574 C569 1.386 1_556 S
C574 C573 1.387 . S
H575 C587 0.930 . S
H576 C589 0.930 . S
H577 C590 0.930 . S
H578 C594 0.959 . S
H579 C594 0.959 . S
H580 C594 0.961 . S
H581 C595 0.960 . S
H582 C595 0.961 . S
H583 C595 0.959 . S
H584 C598 0.929 . S
H585 C599 0.931 . S
H586 C601 0.930 . S
C587 H575 0.930 . S
C587 C588 1.399 . S
C587 C592 1.399 . S
C588 C587 1.399 . S
C588 C589 1.376 . S
C589 H576 0.930 . S
C589 C588 1.376 . S
C589 C590 1.388 . S
C590 H577 0.930 . S
C590 C589 1.388 . S
C590 C591 1.390 . S
C591 C590 1.390 . S
C591 C592 1.394 . S
C591 C597 1.465 . S
C592 C587 1.399 . S
C592 C591 1.394 . S
C592 C593 1.516 1_554 S
C593 C592 1.516 1_556 S
C593 C594 1.502 . S
C593 C595 1.561 . S
C593 C596 1.526 . S
C594 H578 0.959 . S
C594 H579 0.959 . S
C594 H580 0.961 . S
C594 C593 1.502 . S
C595 H581 0.960 . S
C595 H582 0.961 . S
C595 H583 0.959 . S
C595 C593 1.561 . S
C596 C593 1.526 . S
C596 C597 1.396 1_556 S
C596 C601 1.390 . S
C597 C591 1.465 . S
C597 C596 1.396 1_554 S
C597 C598 1.399 . S
C598 H584 0.929 . S
C598 C597 1.399 . S
C598 C599 1.385 1_554 S
C599 H585 0.931 . S
C599 C598 1.385 1_556 S
C599 C600 1.389 . S
C600 C599 1.389 . S
C600 C601 1.387 . S
C601 H586 0.930 . S
C601 C596 1.390 . S
C601 C600 1.387 . S
H602 C614 0.930 . S
H603 C616 0.930 . S
H604 C617 0.930 . S
H605 C621 0.959 1_556 S
H606 C621 0.959 1_556 S
H607 C621 0.961 . S
H608 C622 0.960 . S
H609 C622 0.961 . S
H610 C622 0.959 . S
H611 C625 0.929 . S
H612 C626 0.931 . S
H613 C628 0.930 . S
C614 H602 0.930 . S
C614 C615 1.399 . S
C614 C619 1.399 . S
C615 C614 1.399 . S
C615 C616 1.376 . S
C616 H603 0.930 . S
C616 C615 1.376 . S
C616 C617 1.388 . S
C617 H604 0.930 . S
C617 C616 1.388 . S
C617 C618 1.390 . S
C618 C617 1.390 . S
C618 C619 1.394 . S
C618 C624 1.465 . S
C619 C614 1.399 . S
C619 C618 1.394 . S
C619 C620 1.516 . S
C620 C619 1.516 . S
C620 C621 1.502 . S
C620 C622 1.561 . S
C620 C623 1.533 . S
C621 H605 0.959 1_554 S
C621 H606 0.959 1_554 S
C621 H607 0.961 . S
C621 C620 1.502 . S
C622 H608 0.960 . S
C622 H609 0.961 . S
C622 H610 0.959 . S
C622 C620 1.561 . S
C623 C620 1.533 . S
C623 C624 1.399 . S
C623 C628 1.381 1_554 S
C624 C618 1.465 . S
C624 C623 1.399 . S
C624 C625 1.399 1_554 S
C625 H611 0.929 . S
C625 C624 1.399 1_556 S
C625 C626 1.385 . S
C626 H612 0.931 . S
C626 C625 1.385 . S
C626 C627 1.389 . S
C627 C626 1.389 . S
C627 C628 1.387 . S
C628 H613 0.930 . S
C628 C623 1.381 1_556 S
C628 C627 1.387 . S
H629 C641 0.930 . S
H630 C643 0.930 . S
H631 C644 0.930 . S
H632 C648 0.959 . S
H633 C648 0.959 . S
H634 C648 0.961 . S
H635 C649 0.960 . S
H636 C649 0.961 . S
H637 C649 0.959 . S
H638 C652 0.929 . S
H639 C653 0.931 . S
H640 C655 0.930 1_455 S
C641 H629 0.930 . S
C641 C642 1.399 . S
C641 C646 1.399 . S
C642 C641 1.399 . S
C642 C643 1.376 . S
C643 H630 0.930 . S
C643 C642 1.376 . S
C643 C644 1.388 . S
C644 H631 0.930 . S
C644 C643 1.388 . S
C644 C645 1.390 . S
C645 C644 1.390 . S
C645 C646 1.394 . S
C645 C651 1.465 1_554 S
C646 C641 1.399 . S
C646 C645 1.394 . S
C646 C647 1.516 . S
C647 C646 1.516 . S
C647 C648 1.502 1_655 S
C647 C649 1.561 . S
C647 C650 1.526 . S
C648 H632 0.959 . S
C648 H633 0.959 . S
C648 H634 0.961 . S
C648 C647 1.502 1_455 S
C649 H635 0.960 . S
C649 H636 0.961 . S
C649 H637 0.959 . S
C649 C647 1.561 . S
C650 C647 1.526 . S
C650 C651 1.396 1_554 S
C650 C655 1.390 1_554 S
C651 C645 1.465 1_556 S
C651 C650 1.396 1_556 S
C651 C652 1.399 . S
C652 H638 0.929 . S
C652 C651 1.399 . S
C652 C653 1.385 . S
C653 H639 0.931 . S
C653 C652 1.385 . S
C653 C654 1.389 . S
C654 C653 1.389 . S
C654 C655 1.387 . S
C655 H640 0.930 1_655 S
C655 C650 1.390 1_556 S
C655 C654 1.387 . S
H656 C668 0.930 1_556 S
H657 C670 0.930 . S
H658 C671 0.930 . S
H659 C675 0.959 . S
H660 C675 0.959 . S
H661 C675 0.961 1_556 S
H662 C676 0.960 . S
H663 C676 0.961 . S
H664 C676 0.959 . S
H665 C679 0.929 . S
H666 C680 0.931 . S
H667 C682 0.930 . S
C668 H656 0.930 1_554 S
C668 C669 1.399 . S
C668 C673 1.399 . S
C669 C668 1.399 . S
C669 C670 1.376 . S
C670 H657 0.930 . S
C670 C669 1.376 . S
C670 C671 1.388 . S
C671 H658 0.930 . S
C671 C670 1.388 . S
C671 C672 1.390 . S
C672 C671 1.390 . S
C672 C673 1.394 . S
C672 C678 1.465 . S
C673 C668 1.399 . S
C673 C672 1.394 . S
C673 C674 1.516 . S
C674 C673 1.516 . S
C674 C675 1.502 . S
C674 C676 1.561 . S
C674 C677 1.526 . S
C675 H659 0.959 . S
C675 H660 0.959 . S
C675 H661 0.961 1_554 S
C675 C674 1.502 . S
C676 H662 0.960 . S
C676 H663 0.961 . S
C676 H664 0.959 . S
C676 C674 1.561 . S
C677 C674 1.526 . S
C677 C678 1.396 . S
C677 C682 1.390 . S
C678 C672 1.465 . S
C678 C677 1.396 . S
C678 C679 1.399 . S
C679 H665 0.929 . S
C679 C678 1.399 . S
C679 C680 1.385 1_455 S
C680 H666 0.931 . S
C680 C679 1.385 1_655 S
C680 C681 1.390 . S
C681 C680 1.390 . S
C681 C682 1.385 1_655 S
C682 H667 0.930 . S
C682 C677 1.390 . S
C682 C681 1.385 1_455 S
H683 C695 0.930 . S
H684 C697 0.930 . S
H685 C698 0.930 . S
H686 C702 0.959 . S
H687 C702 0.959 . S
H688 C702 0.961 . S
H689 C703 0.960 . S
H690 C703 0.961 . S
H691 C703 0.959 . S
H692 C706 0.929 . S
H693 C707 0.931 . S
H694 C709 0.930 . S
C695 H683 0.930 . S
C695 C696 1.399 . S
C695 C700 1.399 . S
C696 C695 1.399 . S
C696 C697 1.376 . S
C697 H684 0.930 . S
C697 C696 1.376 . S
C697 C698 1.388 . S
C698 H685 0.930 . S
C698 C697 1.388 . S
C698 C699 1.390 . S
C699 C698 1.390 . S
C699 C700 1.394 . S
C699 C705 1.465 . S
C700 C695 1.399 . S
C700 C699 1.394 . S
C700 C701 1.516 1_545 S
C701 C700 1.516 1_565 S
C701 C702 1.502 . S
C701 C703 1.561 . S
C701 C704 1.526 1_565 S
C702 H686 0.959 . S
C702 H687 0.959 . S
C702 H688 0.961 . S
C702 C701 1.502 . S
C703 H689 0.960 . S
C703 H690 0.961 . S
C703 H691 0.959 . S
C703 C701 1.561 . S
C704 C701 1.526 1_545 S
C704 C705 1.396 . S
C704 C709 1.390 1_545 S
C705 C699 1.465 . S
C705 C704 1.396 . S
C705 C706 1.399 . S
C706 H692 0.929 . S
C706 C705 1.399 . S
C706 C707 1.385 . S
C707 H693 0.931 . S
C707 C706 1.385 . S
C707 C708 1.389 . S
C708 C707 1.389 . S
C708 C709 1.387 1_545 S
C709 H694 0.930 . S
C709 C704 1.390 1_565 S
C709 C708 1.387 1_565 S
H710 C722 0.930 1_556 S
H711 C724 0.930 . S
H712 C725 0.930 . S
H713 C729 0.959 . S
H714 C729 0.959 . S
H715 C729 0.961 . S
H716 C730 0.960 . S
H717 C730 0.961 . S
H718 C730 0.959 . S
H719 C733 0.929 . S
H720 C734 0.931 . S
H721 C736 0.930 . S
C722 H710 0.930 1_554 S
C722 C723 1.399 . S
C722 C727 1.399 . S
C723 C722 1.399 . S
C723 C724 1.376 . S
C724 H711 0.930 . S
C724 C723 1.376 . S
C724 C725 1.388 . S
C725 H712 0.930 . S
C725 C724 1.388 . S
C725 C726 1.390 . S
C726 C725 1.390 . S
C726 C727 1.394 . S
C726 C732 1.465 . S
C727 C722 1.399 . S
C727 C726 1.394 . S
C727 C728 1.516 . S
C728 C727 1.516 . S
C728 C729 1.502 . S
C728 C730 1.561 1_554 S
C728 C731 1.526 . S
C729 H713 0.959 . S
C729 H714 0.959 . S
C729 H715 0.961 . S
C729 C728 1.502 . S
C730 H716 0.960 . S
C730 H717 0.961 . S
C730 H718 0.959 . S
C730 C728 1.561 1_556 S
C731 C728 1.526 . S
C731 C732 1.396 . S
C731 C736 1.390 . S
C732 C726 1.465 . S
C732 C731 1.396 . S
C732 C733 1.399 . S
C733 H719 0.929 . S
C733 C732 1.399 . S
C733 C734 1.385 . S
C734 H720 0.931 . S
C734 C733 1.385 . S
C734 C735 1.389 . S
C735 C734 1.389 . S
C735 C736 1.387 . S
C736 H721 0.930 . S
C736 C731 1.390 . S
C736 C735 1.387 . S
H737 C749 0.930 . S
H738 C751 0.930 . S
H739 C752 0.930 . S
H740 C756 0.959 . S
H741 C756 0.959 . S
H742 C756 0.961 . S
H743 C757 0.960 1_556 S
H744 C757 0.961 . S
H745 C757 0.959 . S
H746 C760 0.929 . S
H747 C761 0.931 . S
H748 C763 0.930 . S
C749 H737 0.930 . S
C749 C750 1.399 . S
C749 C754 1.399 . S
C750 C749 1.399 . S
C750 C751 1.376 . S
C751 H738 0.930 . S
C751 C750 1.376 . S
C751 C752 1.388 . S
C752 H739 0.930 . S
C752 C751 1.388 . S
C752 C753 1.390 . S
C753 C752 1.390 . S
C753 C754 1.394 . S
C753 C759 1.465 . S
C754 C749 1.399 . S
C754 C753 1.394 . S
C754 C755 1.516 . S
C755 C754 1.516 . S
C755 C756 1.502 . S
C755 C757 1.561 . S
C755 C758 1.526 . S
C756 H740 0.959 . S
C756 H741 0.959 . S
C756 H742 0.961 . S
C756 C755 1.502 . S
C757 H743 0.960 1_554 S
C757 H744 0.961 . S
C757 H745 0.959 . S
C757 C755 1.561 . S
C758 C755 1.526 . S
C758 C759 1.396 . S
C758 C763 1.390 . S
C759 C753 1.465 . S
C759 C758 1.396 . S
C759 C760 1.399 . S
C760 H746 0.929 . S
C760 C759 1.399 . S
C760 C761 1.385 . S
C761 H747 0.931 . S
C761 C760 1.385 . S
C761 C762 1.389 . S
C762 C761 1.389 . S
C762 C763 1.387 . S
C763 H748 0.930 . S
C763 C758 1.390 . S
C763 C762 1.387 . S
H764 C776 0.930 . S
H765 C778 0.930 . S
H766 C779 0.930 . S
H767 C783 0.959 . S
H768 C783 0.959 . S
H769 C783 0.961 . S
H770 C784 0.960 . S
H771 C784 0.961 . S
H772 C784 0.959 1_455 S
H773 C787 0.929 . S
H774 C788 0.931 1_556 S
H775 C790 0.941 . S
C776 H764 0.930 . S
C776 C777 1.399 . S
C776 C781 1.399 . S
C777 C776 1.399 . S
C777 C778 1.376 . S
C778 H765 0.930 . S
C778 C777 1.376 . S
C778 C779 1.388 . S
C779 H766 0.930 . S
C779 C778 1.388 . S
C779 C780 1.390 . S
C780 C779 1.390 . S
C780 C781 1.394 . S
C780 C786 1.465 . S
C781 C776 1.399 . S
C781 C780 1.394 . S
C781 C782 1.516 . S
C782 C781 1.516 . S
C782 C783 1.502 . S
C782 C784 1.561 . S
C782 C785 1.526 . S
C783 H767 0.959 . S
C783 H768 0.959 . S
C783 H769 0.961 . S
C783 C782 1.502 . S
C784 H770 0.960 . S
C784 H771 0.961 . S
C784 H772 0.959 1_655 S
C784 C782 1.561 . S
C785 C782 1.526 . S
C785 C786 1.396 . S
C785 C790 1.403 . S
C786 C780 1.465 . S
C786 C785 1.396 . S
C786 C787 1.399 1_655 S
C787 H773 0.929 . S
C787 C786 1.399 1_455 S
C787 C788 1.385 . S
C788 H774 0.931 1_554 S
C788 C787 1.385 . S
C788 C789 1.389 . S
C789 C788 1.389 . S
C789 C790 1.364 1_455 S
C790 H775 0.941 . S
C790 C785 1.403 . S
C790 C789 1.364 1_655 S
H791 C803 0.930 . S
H792 C805 0.930 . S
H793 C806 0.930 . S
H794 C810 0.959 . S
H795 C810 0.959 . S
H796 C810 0.961 . S
H797 C811 0.960 . S
H798 C811 0.961 . S
H799 C811 0.959 . S
H800 C814 0.929 1_566 S
H801 C815 0.931 . S
H802 C817 0.930 . S
C803 H791 0.930 . S
C803 C804 1.399 . S
C803 C808 1.399 . S
C804 C803 1.399 . S
C804 C805 1.376 . S
C805 H792 0.930 . S
C805 C804 1.376 . S
C805 C806 1.388 . S
C806 H793 0.930 . S
C806 C805 1.388 . S
C806 C807 1.390 . S
C807 C806 1.390 . S
C807 C808 1.394 . S
C807 C813 1.465 . S
C808 C803 1.399 . S
C808 C807 1.394 . S
C808 C809 1.516 . S
C809 C808 1.516 . S
C809 C810 1.502 . S
C809 C811 1.561 1_565 S
C809 C812 1.526 1_565 S
C810 H794 0.959 . S
C810 H795 0.959 . S
C810 H796 0.961 . S
C810 C809 1.502 . S
C811 H797 0.960 . S
C811 H798 0.961 . S
C811 H799 0.959 . S
C811 C809 1.561 1_545 S
C812 C809 1.526 1_545 S
C812 C813 1.396 1_545 S
C812 C817 1.390 . S
C813 C807 1.465 . S
C813 C812 1.396 1_565 S
C813 C814 1.399 1_565 S
C814 H800 0.929 1_544 S
C814 C813 1.399 1_545 S
C814 C815 1.385 1_554 S
C815 H801 0.931 . S
C815 C814 1.385 1_556 S
C815 C816 1.389 1_556 S
C816 C815 1.389 1_554 S
C816 C817 1.387 . S
C817 H802 0.930 . S
C817 C812 1.390 . S
C817 C816 1.387 . S
H818 C830 0.930 . S
H819 C832 0.930 . S
H820 C833 0.930 . S
H821 C837 0.959 . S
H822 C837 0.959 . S
H823 C837 0.961 . S
H824 C838 0.960 . S
H825 C838 0.961 . S
H826 C838 0.959 . S
H827 C841 0.929 . S
H828 C842 0.931 . S
H829 C844 0.930 . S
C830 H818 0.930 . S
C830 C831 1.399 . S
C830 C835 1.399 . S
C831 C830 1.399 . S
C831 C832 1.376 . S
C832 H819 0.930 . S
C832 C831 1.376 . S
C832 C833 1.388 . S
C833 H820 0.930 . S
C833 C832 1.388 . S
C833 C834 1.390 . S
C834 C833 1.390 . S
C834 C835 1.394 . S
C834 C840 1.465 . S
C835 C830 1.399 . S
C835 C834 1.394 . S
C835 C836 1.516 . S
C836 C835 1.516 . S
C836 C837 1.502 . S
C836 C838 1.561 . S
C836 C839 1.526 . S
C837 H821 0.959 . S
C837 H822 0.959 . S
C837 H823 0.961 . S
C837 C836 1.502 . S
C838 H824 0.960 . S
C838 H825 0.961 . S
C838 H826 0.959 . S
C838 C836 1.561 . S
C839 C836 1.526 . S
C839 C840 1.396 . S
C839 C844 1.390 . S
C840 C834 1.465 . S
C840 C839 1.396 . S
C840 C841 1.399 . S
C841 H827 0.929 . S
C841 C840 1.399 . S
C841 C842 1.385 . S
C842 H828 0.931 . S
C842 C841 1.385 . S
C842 C843 1.389 . S
C843 C842 1.389 . S
C843 C844 1.387 . S
C844 H829 0.930 . S
C844 C839 1.390 . S
C844 C843 1.387 . S
H845 C857 0.930 . S
H846 C859 0.930 . S
H847 C860 0.930 . S
H848 C864 0.959 . S
H849 C864 0.959 1_556 S
H850 C864 0.961 . S
H851 C865 0.960 1_556 S
H852 C865 0.961 1_556 S
H853 C865 0.959 . S
H854 C868 0.929 . S
H855 C869 0.931 . S
H856 C871 0.930 1_556 S
C857 H845 0.930 . S
C857 C858 1.399 . S
C857 C862 1.399 . S
C858 C857 1.399 . S
C858 C859 1.376 . S
C859 H846 0.930 . S
C859 C858 1.376 . S
C859 C860 1.388 . S
C860 H847 0.930 . S
C860 C859 1.388 . S
C860 C861 1.390 . S
C861 C860 1.390 . S
C861 C862 1.394 . S
C861 C867 1.465 . S
C862 C857 1.399 . S
C862 C861 1.394 . S
C862 C863 1.516 . S
C863 C862 1.516 . S
C863 C864 1.502 . S
C863 C865 1.561 . S
C863 C866 1.526 . S
C864 H848 0.959 . S
C864 H849 0.959 1_554 S
C864 H850 0.961 . S
C864 C863 1.502 . S
C865 H851 0.960 1_554 S
C865 H852 0.961 1_554 S
C865 H853 0.959 . S
C865 C863 1.561 . S
C866 C863 1.526 . S
C866 C867 1.396 . S
C866 C871 1.390 . S
C867 C861 1.465 . S
C867 C866 1.396 . S
C867 C868 1.399 . S
C868 H854 0.929 . S
C868 C867 1.399 . S
C868 C869 1.385 . S
C869 H855 0.931 . S
C869 C868 1.385 . S
C869 C870 1.389 . S
C870 C869 1.389 . S
C870 C871 1.387 . S
C871 H856 0.930 1_554 S
C871 C866 1.390 . S
C871 C870 1.387 . S
H872 C884 0.930 . S
H873 C886 0.930 . S
H874 C887 0.930 . S
H875 C891 0.959 . S
H876 C891 0.959 . S
H877 C891 0.961 1_554 S
H878 C892 0.960 . S
H879 C892 0.961 . S
H880 C892 0.959 . S
H881 C895 0.929 . S
H882 C896 0.931 . S
H883 C898 0.930 . S
C884 H872 0.930 . S
C884 C885 1.399 . S
C884 C889 1.399 . S
C885 C884 1.399 . S
C885 C886 1.376 . S
C886 H873 0.930 . S
C886 C885 1.376 . S
C886 C887 1.388 . S
C887 H874 0.930 . S
C887 C886 1.388 . S
C887 C888 1.390 . S
C888 C887 1.390 . S
C888 C889 1.394 . S
C888 C894 1.465 . S
C889 C884 1.399 . S
C889 C888 1.394 . S
C889 C890 1.516 . S
C890 C889 1.516 . S
C890 C891 1.502 . S
C890 C892 1.561 1_556 S
C890 C893 1.526 . S
C891 H875 0.959 . S
C891 H876 0.959 . S
C891 H877 0.961 1_556 S
C891 C890 1.502 . S
C892 H878 0.960 . S
C892 H879 0.961 . S
C892 H880 0.959 . S
C892 C890 1.561 1_554 S
C893 C890 1.526 . S
C893 C894 1.396 . S
C893 C898 1.390 . S
C894 C888 1.465 . S
C894 C893 1.396 . S
C894 C895 1.399 . S
C895 H881 0.929 . S
C895 C894 1.399 . S
C895 C896 1.385 . S
C896 H882 0.931 . S
C896 C895 1.385 . S
C896 C897 1.389 . S
C897 C896 1.389 . S
C897 C898 1.387 . S
C898 H883 0.930 . S
C898 C893 1.390 . S
C898 C897 1.387 . S
H899 C911 0.925 1_554 S
H900 C913 0.930 . S
H901 C914 0.930 . S
H902 C918 0.959 . S
H903 C918 0.959 . S
H904 C918 0.961 . S
H905 C919 0.960 . S
H906 C919 0.961 . S
H907 C919 0.959 . S
H908 C922 0.929 . S
H909 C923 0.931 . S
H910 C925 0.930 . S
C911 H899 0.925 1_556 S
C911 C912 1.399 . S
C911 C916 1.399 . S
C912 C911 1.399 . S
C912 C913 1.376 . S
C913 H900 0.930 . S
C913 C912 1.376 . S
C913 C914 1.388 . S
C914 H901 0.930 . S
C914 C913 1.388 . S
C914 C915 1.390 . S
C915 C914 1.390 . S
C915 C916 1.394 . S
C915 C921 1.465 . S
C916 C911 1.399 . S
C916 C915 1.394 . S
C916 C917 1.516 . S
C917 C916 1.516 . S
C917 C918 1.502 1_556 S
C917 C919 1.561 1_545 S
C917 C920 1.526 . S
C918 H902 0.959 . S
C918 H903 0.959 . S
C918 H904 0.961 . S
C918 C917 1.502 1_554 S
C919 H905 0.960 . S
C919 H906 0.961 . S
C919 H907 0.959 . S
C919 C917 1.561 1_565 S
C920 C917 1.526 . S
C920 C921 1.396 . S
C920 C925 1.390 . S
C921 C915 1.465 . S
C921 C920 1.396 . S
C921 C922 1.399 . S
C922 H908 0.929 . S
C922 C921 1.399 . S
C922 C923 1.385 . S
C923 H909 0.931 . S
C923 C922 1.385 . S
C923 C924 1.389 . S
C924 C923 1.389 . S
C924 C925 1.387 . S
C925 H910 0.930 . S
C925 C920 1.390 . S
C925 C924 1.387 . S
H926 C938 0.930 . S
H927 C940 0.930 1_554 S
H928 C941 0.930 1_554 S
H929 C945 0.959 . S
H930 C945 0.959 . S
H931 C945 0.961 . S
H932 C946 0.960 . S
H933 C946 0.961 . S
H934 C946 0.959 . S
H935 C949 0.929 1_554 S
H936 C950 0.931 . S
H937 C952 0.930 . S
C938 H926 0.930 . S
C938 C939 1.399 . S
C938 C943 1.399 . S
C939 C938 1.399 . S
C939 C940 1.376 . S
C940 H927 0.930 1_556 S
C940 C939 1.376 . S
C940 C941 1.388 . S
C941 H928 0.930 1_556 S
C941 C940 1.388 . S
C941 C942 1.390 . S
C942 C941 1.390 . S
C942 C943 1.394 . S
C942 C948 1.465 . S
C943 C938 1.399 . S
C943 C942 1.394 . S
C943 C944 1.516 . S
C944 C943 1.516 . S
C944 C945 1.502 . S
C944 C946 1.561 . S
C944 C947 1.526 . S
C945 H929 0.959 . S
C945 H930 0.959 . S
C945 H931 0.961 . S
C945 C944 1.502 . S
C946 H932 0.960 . S
C946 H933 0.961 . S
C946 H934 0.959 . S
C946 C944 1.561 . S
C947 C944 1.526 . S
C947 C948 1.396 . S
C947 C952 1.390 . S
C948 C942 1.465 . S
C948 C947 1.396 . S
C948 C949 1.399 . S
C949 H935 0.929 1_556 S
C949 C948 1.399 . S
C949 C950 1.385 . S
C950 H936 0.931 . S
C950 C949 1.385 . S
C950 C951 1.389 . S
C951 C950 1.389 . S
C951 C952 1.387 . S
C952 H937 0.930 . S
C952 C947 1.390 . S
C952 C951 1.387 . S
H953 C965 0.930 . S
H954 C967 0.930 . S
H955 C968 0.930 . S
H956 C972 0.959 . S
H957 C972 0.959 . S
H958 C972 0.961 . S
H959 C973 0.960 . S
H960 C973 0.961 . S
H961 C973 0.957 1_554 S
H962 C976 0.929 . S
H963 C977 0.931 . S
H964 C979 0.930 . S
C965 H953 0.930 . S
C965 C966 1.399 . S
C965 C970 1.399 . S
C966 C965 1.399 . S
C966 C967 1.376 . S
C967 H954 0.930 . S
C967 C966 1.376 . S
C967 C968 1.388 . S
C968 H955 0.930 . S
C968 C967 1.388 . S
C968 C969 1.390 . S
C969 C968 1.390 . S
C969 C970 1.394 . S
C969 C975 1.465 . S
C970 C965 1.399 . S
C970 C969 1.394 . S
C970 C971 1.516 . S
C971 C970 1.516 . S
C971 C972 1.502 . S
C971 C973 1.561 . S
C971 C974 1.526 . S
C972 H956 0.959 . S
C972 H957 0.959 . S
C972 H958 0.961 . S
C972 C971 1.502 . S
C973 H959 0.960 . S
C973 H960 0.961 . S
C973 H961 0.957 1_556 S
C973 C971 1.561 . S
C974 C971 1.526 . S
C974 C975 1.396 . S
C974 C979 1.390 . S
C975 C969 1.465 . S
C975 C974 1.396 . S
C975 C976 1.399 . S
C976 H962 0.929 . S
C976 C975 1.399 . S
C976 C977 1.385 . S
C977 H963 0.931 . S
C977 C976 1.385 . S
C977 C978 1.389 . S
C978 C977 1.389 . S
C978 C979 1.387 . S
C979 H964 0.930 . S
C979 C974 1.390 . S
C979 C978 1.387 . S
H980 C992 0.930 . S
H981 C994 0.930 . S
H982 C995 0.930 . S
H983 C999 0.959 . S
H984 C999 0.959 . S
H985 C999 0.961 . S
H986 C1000 0.960 . S
H987 C1000 0.961 . S
H988 C1000 0.959 1_455 S
H989 C1003 0.929 . S
H990 C1004 0.931 . S
H991 C1006 0.930 . S
C992 H980 0.930 . S
C992 C993 1.399 . S
C992 C997 1.399 . S
C993 C992 1.399 . S
C993 C994 1.376 . S
C994 H981 0.930 . S
C994 C993 1.376 . S
C994 C995 1.388 . S
C995 H982 0.930 . S
C995 C994 1.388 . S
C995 C996 1.390 . S
C996 C995 1.390 . S
C996 C997 1.394 . S
C996 C1002 1.465 . S
C997 C992 1.399 . S
C997 C996 1.394 . S
C997 C998 1.516 . S
C998 C997 1.516 . S
C998 C999 1.502 . S
C998 C1000 1.561 . S
C998 C1001 1.526 . S
C999 H983 0.959 . S
C999 H984 0.959 . S
C999 H985 0.961 . S
C999 C998 1.502 . S
C1000 H986 0.960 . S
C1000 H987 0.961 . S
C1000 H988 0.959 1_655 S
C1000 C998 1.561 . S
C1001 C998 1.526 . S
C1001 C1002 1.396 . S
C1001 C1006 1.390 . S
C1002 C996 1.465 . S
C1002 C1001 1.396 . S
C1002 C1003 1.399 . S
C1003 H989 0.929 . S
C1003 C1002 1.399 . S
C1003 C1004 1.385 . S
C1004 H990 0.931 . S
C1004 C1003 1.385 . S
C1004 C1005 1.389 . S
C1005 C1004 1.389 . S
C1005 C1006 1.387 . S
C1006 H991 0.930 . S
C1006 C1001 1.390 . S
C1006 C1005 1.387 . S
H1007 C1019 0.930 . S
H1008 C1021 0.930 . S
H1009 C1022 0.930 1_545 S
H1010 C1026 0.959 . S
H1011 C1026 0.959 . S
H1012 C1026 0.961 . S
H1013 C1027 0.960 . S
H1014 C1027 0.961 . S
H1015 C1027 0.959 1_545 S
H1016 C1030 0.925 1_545 S
H1017 C1031 0.916 1_545 S
H1018 C1033 0.930 . S
C1019 H1007 0.930 . S
C1019 C1020 1.399 . S
C1019 C1024 1.399 . S
C1020 C1019 1.399 . S
C1020 C1021 1.376 . S
C1021 H1008 0.930 . S
C1021 C1020 1.376 . S
C1021 C1022 1.388 . S
C1022 H1009 0.930 1_565 S
C1022 C1021 1.388 . S
C1022 C1023 1.390 . S
C1023 C1022 1.390 . S
C1023 C1024 1.394 . S
C1023 C1029 1.465 . S
C1024 C1019 1.399 . S
C1024 C1023 1.394 . S
C1024 C1025 1.516 . S
C1025 C1024 1.516 . S
C1025 C1026 1.502 . S
C1025 C1027 1.561 . S
C1025 C1028 1.526 . S
C1026 H1010 0.959 . S
C1026 H1011 0.959 . S
C1026 H1012 0.961 . S
C1026 C1025 1.502 . S
C1027 H1013 0.960 . S
C1027 H1014 0.961 . S
C1027 H1015 0.959 1_565 S
C1027 C1025 1.561 . S
C1028 C1025 1.526 . S
C1028 C1029 1.396 . S
C1028 C1033 1.390 . S
C1029 C1023 1.465 . S
C1029 C1028 1.396 . S
C1029 C1030 1.403 . S
C1030 H1016 0.925 1_565 S
C1030 C1029 1.403 . S
C1030 C1031 1.385 . S
C1031 H1017 0.916 1_565 S
C1031 C1030 1.385 . S
C1031 C1032 1.406 . S
C1032 C1031 1.406 . S
C1032 C1033 1.387 . S
C1033 H1018 0.930 . S
C1033 C1028 1.390 . S
C1033 C1032 1.387 . S
H1034 C1046 0.930 . S
H1035 C1048 0.930 . S
H1036 C1049 0.930 . S
H1037 C1053 0.959 . S
H1038 C1053 0.959 . S
H1039 C1053 0.961 . S
H1040 C1054 0.960 . S
H1041 C1054 0.961 . S
H1042 C1054 0.959 . S
H1043 C1057 0.929 . S
H1044 C1058 0.931 . S
H1045 C1060 0.930 . S
C1046 H1034 0.930 . S
C1046 C1047 1.399 . S
C1046 C1051 1.399 . S
C1047 C1046 1.399 . S
C1047 C1048 1.376 . S
C1048 H1035 0.930 . S
C1048 C1047 1.376 . S
C1048 C1049 1.388 . S
C1049 H1036 0.930 . S
C1049 C1048 1.388 . S
C1049 C1050 1.390 . S
C1050 C1049 1.390 . S
C1050 C1051 1.394 . S
C1050 C1056 1.465 . S
C1051 C1046 1.399 . S
C1051 C1050 1.394 . S
C1051 C1052 1.516 . S
C1052 C1051 1.516 . S
C1052 C1053 1.502 . S
C1052 C1054 1.561 . S
C1052 C1055 1.526 . S
C1053 H1037 0.959 . S
C1053 H1038 0.959 . S
C1053 H1039 0.961 . S
C1053 C1052 1.502 . S
C1054 H1040 0.960 . S
C1054 H1041 0.961 . S
C1054 H1042 0.959 . S
C1054 C1052 1.561 . S
C1055 C1052 1.526 . S
C1055 C1056 1.396 . S
C1055 C1060 1.390 . S
C1056 C1050 1.465 . S
C1056 C1055 1.396 . S
C1056 C1057 1.399 . S
C1057 H1043 0.929 . S
C1057 C1056 1.399 . S
C1057 C1058 1.385 . S
C1058 H1044 0.931 . S
C1058 C1057 1.385 . S
C1058 C1059 1.389 . S
C1059 C1058 1.389 . S
C1059 C1060 1.387 . S
C1060 H1045 0.930 . S
C1060 C1055 1.390 . S
C1060 C1059 1.387 . S
H1061 C1073 0.930 . S
H1062 C1075 0.930 . S
H1063 C1076 0.930 . S
H1064 C1080 0.959 . S
H1065 C1080 0.959 . S
H1066 C1080 0.961 . S
H1067 C1081 0.960 . S
H1068 C1081 0.961 . S
H1069 C1081 0.959 . S
H1070 C1084 0.929 . S
H1071 C1085 0.931 . S
H1072 C1087 0.930 . S
C1073 H1061 0.930 . S
C1073 C1074 1.399 . S
C1073 C1078 1.399 . S
C1074 C1073 1.399 . S
C1074 C1075 1.376 . S
C1075 H1062 0.930 . S
C1075 C1074 1.376 . S
C1075 C1076 1.388 . S
C1076 H1063 0.930 . S
C1076 C1075 1.388 . S
C1076 C1077 1.390 . S
C1077 C1076 1.390 . S
C1077 C1078 1.394 . S
C1077 C1083 1.465 . S
C1078 C1073 1.399 . S
C1078 C1077 1.394 . S
C1078 C1079 1.516 . S
C1079 C1078 1.516 . S
C1079 C1080 1.502 . S
C1079 C1081 1.561 . S
C1079 C1082 1.526 . S
C1080 H1064 0.959 . S
C1080 H1065 0.959 . S
C1080 H1066 0.961 . S
C1080 C1079 1.502 . S
C1081 H1067 0.960 . S
C1081 H1068 0.961 . S
C1081 H1069 0.959 . S
C1081 C1079 1.561 . S
C1082 C1079 1.526 . S
C1082 C1083 1.396 . S
C1082 C1087 1.390 . S
C1083 C1077 1.465 . S
C1083 C1082 1.396 . S
C1083 C1084 1.399 . S
C1084 H1070 0.929 . S
C1084 C1083 1.399 . S
C1084 C1085 1.385 . S
C1085 H1071 0.931 . S
C1085 C1084 1.385 . S
C1085 C1086 1.389 . S
C1086 C1085 1.389 . S
C1086 C1087 1.387 . S
C1087 H1072 0.930 . S
C1087 C1082 1.390 . S
C1087 C1086 1.387 . S
C453 N80 1.893 . S
C465 C178 1.904 . S
C492 C262 1.928 . S
C480 N93 1.947 . S
C519 C328 1.960 . S
C507 N54 1.981 . S
C546 C412 1.879 . S
C534 N67 2.023 . S
C573 C167 1.913 1_565 S
C561 N28 1.880 . S
C588 N41 1.948 . S
C600 C251 1.912 . S
C615 N2 2.038 . S
C627 C339 1.915 . S
C642 N15 1.987 . S
C654 C423 1.948 . S
C681 C174 0.592 . S
C669 N70 0.586 . S
C708 C258 0.672 1_545 S
C696 N83 0.641 . S
C735 C330 0.647 . S
C723 N96 0.614 . S
C750 N57 0.641 . S
C762 C414 0.628 . S
C777 N18 0.523 . S
C789 C162 0.558 . S
C816 C246 0.589 . S
C804 N31 0.524 . S
C843 C342 0.472 . S
C831 N44 0.489 . S
C858 N5 0.617 . S
C870 C426 0.528 . S
C885 N66 2.096 . S
C897 C171 2.001 . S
C912 N79 2.092 . S
C924 C255 1.997 . S
C951 C335 2.009 . S
C939 N92 1.935 . S
C978 C419 2.024 . S
C966 N53 1.966 . S
C993 N14 2.078 . S
C1005 C160 2.048 . S
C1032 C244 2.026 . S
C1020 N27 2.055 . S
C1059 C346 1.999 . S
C1047 N40 1.976 . S
C1074 N1 1.979 . S
C1086 C430 2.034 . S
