# Generated by pormake.
# Topology apo, (3,6)-cn, num edge types: 1
# Building blocks:
#     Node 0, Type 0, BuildingBlock: BELTOD_clean_linker_0, # of connection points: 3
#     Node 1, Type 0, BuildingBlock: BELTOD_clean_linker_0, # of connection points: 3
#     Node 2, Type 0, BuildingBlock: BELTOD_clean_linker_0, # of connection points: 3
#     Node 3, Type 0, BuildingBlock: BELTOD_clean_linker_0, # of connection points: 3
#     Node 4, Type 0, BuildingBlock: BELTOD_clean_linker_0, # of connection points: 3
#     Node 5, Type 0, BuildingBlock: BELTOD_clean_linker_0, # of connection points: 3
#     Node 6, Type 0, BuildingBlock: BELTOD_clean_linker_0, # of connection points: 3
#     Node 7, Type 0, BuildingBlock: BELTOD_clean_linker_0, # of connection points: 3
#     Node 8, Type 1, BuildingBlock: KUMJIN_clean_sbu_1, # of connection points: 6
#     Node 9, Type 1, BuildingBlock: KUMJIN_clean_sbu_1, # of connection points: 6
#     Node 10, Type 1, BuildingBlock: KUMJIN_clean_sbu_1, # of connection points: 6
#     Node 11, Type 1, BuildingBlock: KUMJIN_clean_sbu_1, # of connection points: 6
#     Edge 12, Type (0, 1), None
#     Edge 13, Type (0, 1), None
#     Edge 14, Type (0, 1), None
#     Edge 15, Type (0, 1), None
#     Edge 16, Type (0, 1), None
#     Edge 17, Type (0, 1), None
#     Edge 18, Type (0, 1), None
#     Edge 19, Type (0, 1), None
#     Edge 20, Type (0, 1), None
#     Edge 21, Type (0, 1), None
#     Edge 22, Type (0, 1), None
#     Edge 23, Type (0, 1), None
#     Edge 24, Type (0, 1), None
#     Edge 25, Type (0, 1), None
#     Edge 26, Type (0, 1), None
#     Edge 27, Type (0, 1), None
#     Edge 28, Type (0, 1), None
#     Edge 29, Type (0, 1), None
#     Edge 30, Type (0, 1), None
#     Edge 31, Type (0, 1), None
#     Edge 32, Type (0, 1), None
#     Edge 33, Type (0, 1), None
#     Edge 34, Type (0, 1), None
#     Edge 35, Type (0, 1), None
# Relax obj value: 0.005
# Max RMSD: 0.164
# Mean RMSD: 0.117
data_MOF--net-apo--node1-KUMJIN_clean_sbu_1--node2-BELTOD_clean_linker_0--edge1-none
_symmetry_space_group_name_H-M    P1
_symmetry_Int_Tables_number       1
_symmetry_cell_setting            triclinic
loop_
_symmetry_equiv_pos_as_xyz
'x, y, z'
_cell_length_a     14.360449
_cell_length_b     24.497754
_cell_length_c     34.428742
_cell_angle_alpha  89.566481
_cell_angle_beta   89.8499
_cell_angle_gamma 90.41083
loop_
_atom_site_label
_atom_site_type_symbol
_atom_site_fract_x
_atom_site_fract_y
_atom_site_fract_z
_atom_type_partial_charge
P0 P 0.3309 0.35623 0.40137 0.0
H1 H 0.35001 0.29835 0.47508 0.0
H2 H 0.29819 0.31775 0.54109 0.0
H3 H 0.16426 0.46445 0.49917 0.0
H4 H 0.21103 0.44239 0.43311 0.0
H5 H 0.34665 0.23838 0.3926 0.0
H6 H 0.25579 0.17096 0.35701 0.0
H7 H 0.062 0.29613 0.32248 0.0
H8 H 0.15266 0.36375 0.35929 0.0
H9 H 0.38634 0.46865 0.42016 0.0
H10 H 0.32119 0.37645 0.3175 0.0
O11 O 0.43668 0.32941 0.40657 0.0
H12 H 0.43041 0.54714 0.37965 0.0
H13 H 0.36717 0.45382 0.277 0.0
C14 C 0.28668 0.36979 0.44939 0.0
C15 C 0.30899 0.33454 0.48019 0.0
C16 C 0.27994 0.34602 0.51808 0.0
C17 C 0.22811 0.39326 0.52598 0.0
C18 C 0.20332 0.42744 0.49453 0.0
C19 C 0.23106 0.41531 0.45659 0.0
C20 C 0.25767 0.30634 0.37781 0.0
C21 C 0.28434 0.25146 0.37767 0.0
C22 C 0.23236 0.2129 0.35723 0.0
C23 C 0.15267 0.22845 0.33645 0.0
C24 C 0.12323 0.283 0.33819 0.0
C25 C 0.17518 0.32166 0.35899 0.0
C26 C 0.34738 0.41704 0.37202 0.0
C27 C 0.37912 0.46564 0.38897 0.0
C28 C 0.40525 0.51038 0.36574 0.0
C29 C 0.40173 0.50695 0.32505 0.0
C30 C 0.36905 0.45836 0.3082 0.0
C31 C 0.34262 0.41386 0.33144 0.0
P32 P 0.32897 0.09484 0.89619 0.0
H33 H 0.3446 0.97859 0.88136 0.0
H34 H 0.24971 0.91434 0.84523 0.0
H35 H 0.04719 0.04037 0.82325 0.0
H36 H 0.1444 0.10563 0.85958 0.0
H37 H 0.43102 0.1097 0.82522 0.0
H38 H 0.48053 0.19006 0.7887 0.0
H39 H 0.31145 0.29186 0.86207 0.0
H40 H 0.26284 0.21007 0.8997 0.0
H41 H 0.20622 0.03837 0.95203 0.0
H42 H 0.39586 0.1756 0.95111 0.0
O43 O 0.43339 0.06546 0.89849 0.0
H44 H 0.2134 0.03506 0.02306 0.0
H45 H 0.40462 0.17146 0.022 0.0
C46 C 0.25203 0.04707 0.87278 0.0
C47 C 0.27965 0.99264 0.86908 0.0
C48 C 0.22515 0.95579 0.84839 0.0
C49 C 0.1412 0.97239 0.8313 0.0
C50 C 0.11135 0.02644 0.83636 0.0
C51 C 0.16682 0.06371 0.85692 0.0
C52 C 0.34592 0.15424 0.86588 0.0
C53 C 0.40372 0.14912 0.8334 0.0
C54 C 0.43202 0.19512 0.81256 0.0
C55 C 0.4013 0.24721 0.82318 0.0
C56 C 0.33657 0.25208 0.85362 0.0
C57 C 0.30917 0.20557 0.8751 0.0
C58 C 0.29967 0.10775 0.94615 0.0
C59 C 0.24564 0.06954 0.96704 0.0
C60 C 0.24986 0.06753 1.00766 0.0
C61 C 0.30917 0.10318 0.02775 0.0
C62 C 0.35739 0.14409 1.00707 0.0
C63 C 0.35222 0.1465 0.96655 0.0
P64 P 0.88903 0.17032 0.6419 0.0
H65 H 0.04352 0.19227 0.58892 0.0
H66 H 0.05154 0.20586 0.51866 0.0
H67 H 0.76125 0.16108 0.50904 0.0
H68 H 0.75322 0.148 0.57993 0.0
H69 H 0.81352 0.27844 0.62755 0.0
H70 H 0.68574 0.32878 0.65794 0.0
H71 H 0.60471 0.18381 0.72166 0.0
H72 H 0.72787 0.13264 0.68955 0.0
H73 H 0.92752 0.05946 0.61156 0.0
H74 H 0.89114 0.13658 0.72261 0.0
O75 O 0.97488 0.21016 0.65829 0.0
H76 H 0.95873 0.97228 0.64476 0.0
H77 H 0.92039 0.05075 0.75561 0.0
C78 C 0.8973 0.17018 0.58966 0.0
C79 C 0.98169 0.1848 0.57177 0.0
C80 C 0.98623 0.19266 0.53161 0.0
C81 C 0.90668 0.18527 0.50852 0.0
C82 C 0.82355 0.16707 0.5262 0.0
C83 C 0.81885 0.15971 0.56661 0.0
C84 C 0.78196 0.20214 0.65696 0.0
C85 C 0.76631 0.25698 0.64704 0.0
C86 C 0.6933 0.28567 0.66427 0.0
C87 C 0.63645 0.26004 0.69223 0.0
C88 C 0.6482 0.20429 0.70021 0.0
C89 C 0.71948 0.17526 0.68217 0.0
C90 C 0.90557 0.1045 0.66462 0.0
C91 C 0.92514 0.05765 0.64296 0.0
C92 C 0.94322 0.00793 0.66196 0.0
C93 C 0.94114 0.00454 0.70281 0.0
C94 C 0.92132 0.05164 0.72414 0.0
C95 C 0.90483 0.10102 0.70525 0.0
P96 P 0.81696 0.38071 0.12429 0.0
H97 H 0.74453 0.48843 0.10681 0.0
H98 H 0.6456 0.55111 0.14328 0.0
H99 H 0.60399 0.42746 0.23174 0.0
H100 H 0.69906 0.36401 0.19433 0.0
H101 H 0.84601 0.26357 0.10891 0.0
H102 H 0.90829 0.18937 0.14894 0.0
H103 H 0.93987 0.30054 0.2448 0.0
H104 H 0.88089 0.37503 0.20436 0.0
H105 H 0.90428 0.36965 0.04839 0.0
H106 H 0.63527 0.33736 0.09982 0.0
O107 O 0.90963 0.42058 0.11583 0.0
H108 H 0.84832 0.33609 0.98614 0.0
H109 H 0.5778 0.30416 0.03709 0.0
C110 C 0.73151 0.42219 0.14839 0.0
C111 C 0.71254 0.47443 0.13365 0.0
C112 C 0.65574 0.51008 0.15438 0.0
C113 C 0.6182 0.49414 0.19044 0.0
C114 C 0.63312 0.44079 0.20416 0.0
C115 C 0.68812 0.40471 0.18292 0.0
C116 C 0.85615 0.32461 0.15404 0.0
C117 C 0.86543 0.27202 0.13861 0.0
C118 C 0.90141 0.22963 0.1614 0.0
C119 C 0.9275 0.23917 0.20001 0.0
C120 C 0.91851 0.29188 0.2153 0.0
C121 C 0.88467 0.33441 0.19227 0.0
C122 C 0.77318 0.3572 0.0784 0.0
C123 C 0.83267 0.35592 0.04614 0.0
C124 C 0.80051 0.33675 1.01052 0.0
C125 C 0.70825 0.31804 1.00651 0.0
C126 C 0.64928 0.31818 0.03925 0.0
C127 C 0.68168 0.33755 0.07498 0.0
P128 P 0.82286 0.60191 0.62 0.0
H129 H 0.91203 0.61305 0.54379 0.0
H130 H 0.85523 0.58975 0.47916 0.0
H131 H 0.57451 0.58056 0.52406 0.0
H132 H 0.63168 0.60352 0.58863 0.0
H133 H 0.90537 0.61397 0.69475 0.0
H134 H 0.95239 0.69238 0.73301 0.0
H135 H 0.82148 0.80036 0.65033 0.0
H136 H 0.77655 0.72045 0.61064 0.0
H137 H 0.8481 0.48619 0.63757 0.0
H138 H 0.64498 0.61037 0.66195 0.0
O139 O 0.92915 0.57549 0.61531 0.0
H140 H 0.75729 0.42017 0.67519 0.0
H141 H 0.55131 0.54329 0.69883 0.0
C142 C 0.77655 0.60857 0.57142 0.0
C143 C 0.83782 0.60781 0.53956 0.0
C144 C 0.80523 0.59447 0.50247 0.0
C145 C 0.71068 0.58177 0.49668 0.0
C146 C 0.64816 0.58875 0.52781 0.0
C147 C 0.6808 0.60225 0.56482 0.0
C148 C 0.83855 0.66147 0.64968 0.0
C149 C 0.88533 0.65435 0.68495 0.0
C150 C 0.91195 0.69919 0.7069 0.0
C151 C 0.89048 0.75229 0.69458 0.0
C152 C 0.83802 0.75964 0.6605 0.0
C153 C 0.81283 0.71423 0.63782 0.0
C154 C 0.75344 0.55323 0.64706 0.0
C155 C 0.78354 0.49922 0.65076 0.0
C156 C 0.73123 0.46137 0.67213 0.0
C157 C 0.64669 0.4765 0.68952 0.0
C158 C 0.61546 0.53039 0.68518 0.0
C159 C 0.66908 0.56869 0.66436 0.0
P160 P 0.85413 0.84504 0.12528 0.0
H161 H 0.00653 0.86551 0.17838 0.0
H162 H 0.05234 0.94342 0.21723 0.0
H163 H 0.80381 0.02869 0.18208 0.0
H164 H 0.7589 0.94982 0.14171 0.0
H165 H 0.86075 0.72659 0.13579 0.0
H166 H 0.76257 0.66149 0.17115 0.0
H167 H 0.58052 0.79231 0.20526 0.0
H168 H 0.67971 0.85783 0.16961 0.0
H169 H 0.94803 0.89186 0.05772 0.0
H170 H 0.6684 0.8423 0.08809 0.0
O171 O 0.95437 0.81288 0.11713 0.0
H172 H 0.89706 0.91379 0.99164 0.0
H173 H 0.61699 0.86384 0.02207 0.0
C174 C 0.88088 0.90246 0.15609 0.0
C175 C 0.96185 0.90093 0.17861 0.0
C176 C 0.98795 0.94564 0.20098 0.0
C177 C 0.93268 0.99274 0.2021 0.0
C178 C 0.84823 0.99315 0.18145 0.0
C179 C 0.82276 0.9483 0.15832 0.0
C180 C 0.77804 0.79727 0.15026 0.0
C181 C 0.79979 0.74153 0.15078 0.0
C182 C 0.74371 0.70423 0.17114 0.0
C183 C 0.66424 0.72185 0.19117 0.0
C184 C 0.64122 0.77756 0.18994 0.0
C185 C 0.69798 0.81504 0.16974 0.0
C186 C 0.81217 0.86532 0.07788 0.0
C187 C 0.87552 0.88582 0.05018 0.0
C188 C 0.84653 0.89782 0.01226 0.0
C189 C 0.7531 0.89016 1.00134 0.0
C190 C 0.68941 0.87048 0.02949 0.0
C191 C 0.71869 0.85815 0.06736 0.0
P192 P 0.33684 0.88431 0.39827 0.0
H193 H 0.41922 0.8658 0.4744 0.0
H194 H 0.35622 0.83195 0.53601 0.0
H195 H 0.08516 0.81396 0.48313 0.0
H196 H 0.14962 0.84708 0.42119 0.0
H197 H 0.41694 0.88105 0.32048 0.0
H198 H 0.46872 0.80585 0.27914 0.0
H199 H 0.40291 0.69096 0.371 0.0
H200 H 0.34769 0.7655 0.41157 0.0
H201 H 0.25774 0.99022 0.41529 0.0
H202 H 0.22985 0.86906 0.32558 0.0
O203 O 0.42901 0.9238 0.40779 0.0
H204 H 0.1598 0.05259 0.37755 0.0
H205 H 0.13694 0.93247 0.28695 0.0
C206 C 0.2885 0.86021 0.44359 0.0
C207 C 0.34609 0.85496 0.47614 0.0
C208 C 0.3099 0.83564 0.51136 0.0
C209 C 0.21536 0.8208 0.51464 0.0
C210 C 0.1583 0.82485 0.48157 0.0
C211 C 0.19476 0.84425 0.44627 0.0
C212 C 0.37666 0.82879 0.36876 0.0
C213 C 0.41274 0.83958 0.33153 0.0
C214 C 0.44207 0.79681 0.30797 0.0
C215 C 0.4389 0.74293 0.32197 0.0
C216 C 0.40573 0.73234 0.35968 0.0
C217 C 0.374 0.77494 0.38281 0.0
C218 C 0.25355 0.92573 0.37277 0.0
C219 C 0.23013 0.97692 0.38766 0.0
C220 C 0.17402 0.01234 0.36621 0.0
C221 C 0.14208 -0.00276 0.3293 0.0
C222 C 0.16195 0.94505 0.31519 0.0
C223 C 0.2158 0.90906 0.33716 0.0
P224 P 0.37523 0.66306 0.88307 0.0
H225 H 0.40593 0.63882 0.80159 0.0
H226 H 0.44371 0.55555 0.76676 0.0
H227 H 0.45109 0.46654 0.87547 0.0
H228 H 0.41054 0.55022 0.91026 0.0
H229 H 0.30021 0.77175 0.8939 0.0
H230 H 0.17404 0.82218 0.86222 0.0
H231 H 0.10774 0.68052 0.79369 0.0
H232 H 0.23003 0.6292 0.82684 0.0
H233 H 0.47591 0.69068 0.95454 0.0
H234 H 0.21429 0.61603 0.92298 0.0
O235 O 0.46756 0.70442 0.87868 0.0
H236 H 0.42591 0.69338 0.02253 0.0
H237 H 0.16399 0.61836 0.99093 0.0
C238 C 0.40273 0.60051 0.85838 0.0
C239 C 0.4145 0.60135 0.81795 0.0
C240 C 0.43612 0.55368 0.79806 0.0
C241 C 0.44928 0.50444 0.81837 0.0
C242 C 0.44086 0.50393 0.85908 0.0
C243 C 0.41724 0.55165 0.87895 0.0
C244 C 0.27693 0.69741 0.86171 0.0
C245 C 0.25757 0.75127 0.8725 0.0
C246 C 0.18506 0.77985 0.85474 0.0
C247 C 0.13206 0.75512 0.82547 0.0
C248 C 0.14827 0.70034 0.81611 0.0
C249 C 0.21919 0.67135 0.83462 0.0
C250 C 0.34815 0.65378 0.93375 0.0
C251 C 0.4085 0.6738 0.96236 0.0
C252 C 0.38003 0.67516 1.00124 0.0
C253 C 0.29054 0.65682 0.01192 0.0
C254 C 0.23277 0.6336 0.98343 0.0
C255 C 0.26153 0.63196 0.94467 0.0
Eu256 Eu 0.1521 0.11963 0.23396 0.0
C257 C 0.71361 0.10002 0.26313 0.0
N258 N 0.77157 0.14328 0.26913 0.0
C259 C 0.65875 0.20416 0.24199 0.0
C260 C 0.62589 0.10728 0.24565 0.0
C261 C 0.74482 0.19503 0.25973 0.0
C262 C 0.59935 0.16005 0.23461 0.0
C263 C 0.68284 0.00266 0.26951 0.0
C264 C 0.74189 0.04821 0.27472 0.0
C265 C 0.59541 0.00979 0.25208 0.0
C266 C 0.56722 0.06192 0.24011 0.0
Eu267 Eu 0.9166 0.12285 0.29759 0.0
N268 N 0.82806 0.04228 0.29048 0.0
C269 C 0.71327 0.95139 0.2823 0.0
C270 C 0.85707 0.99288 0.30405 0.0
C271 C 0.80027 0.94672 0.30009 0.0
H272 H 0.78934 0.22941 0.26632 0.0
H273 H 0.82336 0.90774 0.31114 0.0
H274 H 0.29877 0.04041 0.28425 0.0
H275 H 0.17448 0.33805 0.19963 0.0
H276 H 0.92365 0.98907 0.31818 0.0
H277 H 0.66972 0.9154 0.2791 0.0
H278 H 0.11376 0.24457 0.194 0.0
H279 H 0.63796 0.24522 0.23431 0.0
H280 H 0.54887 0.97533 0.24792 0.0
H281 H 0.49914 0.06695 0.22726 0.0
H282 H 0.44141 0.05061 0.32361 0.0
H283 H 0.53253 0.16727 0.22101 0.0
H284 H 0.31304 0.35636 0.24038 0.0
N285 N 0.29062 0.12488 0.27039 0.0
C286 C 0.3309 0.1751 0.2732 0.0
C287 C 0.41071 0.08598 0.3098 0.0
C288 C 0.41278 0.1827 0.29509 0.0
C289 C 0.32974 0.08035 0.28769 0.0
C290 C 0.45236 0.13737 0.31358 0.0
N291 N 0.20702 0.21108 0.23541 0.0
C292 C 0.16946 0.25239 0.21399 0.0
C293 C 0.32757 0.27202 0.25823 0.0
C294 C 0.28764 0.2194 0.25545 0.0
C295 C 0.2845 0.31539 0.23889 0.0
C296 C 0.20595 0.30533 0.21617 0.0
H297 H 0.51535 0.14154 0.33059 0.0
H298 H 0.51492 0.24175 0.31481 0.0
H299 H 0.44138 0.31972 0.28203 0.0
O300 O 0.18075 0.13221 0.17157 0.0
O301 O 0.15409 0.14846 0.29672 0.0
O302 O 0.01755 0.19437 0.30172 0.0
O303 O 0.26523 0.07575 0.20586 0.0
O304 O 0.02203 0.15907 0.2082 0.0
O305 O 0.95445 0.19699 0.26188 0.0
O306 O 0.91789 0.10486 0.35985 0.0
O307 O 0.90882 0.07407 0.2407 0.0
O308 O 0.05873 0.04637 0.22589 0.0
O309 O 0.8174 0.16159 0.33674 0.0
O310 O 0.03614 0.07121 0.32052 0.0
O311 O 0.12447 0.04182 0.26807 0.0
C312 C 0.1051 0.18824 0.31134 0.0
C313 C 0.30748 0.08557 0.13774 0.0
C314 C 0.33708 0.0899 0.06794 0.0
C315 C 0.42286 0.06405 0.07382 0.0
C316 C 0.39284 0.05874 0.14277 0.0
C317 C 0.45028 0.04838 0.11103 0.0
C318 C 0.27925 0.10076 0.09997 0.0
C319 C 0.96646 0.19502 0.22421 0.0
C320 C 0.25019 0.09827 0.17216 0.0
C321 C 0.45188 0.23516 0.29821 0.0
C322 C 0.40968 0.27962 0.27969 0.0
C323 C 0.96781 0.04118 0.22332 0.0
C324 C 0.88145 0.18044 0.39842 0.0
C325 C 0.90944 0.20077 0.46677 0.0
C326 C 0.94634 0.25193 0.45571 0.0
C327 C 0.91775 0.23197 0.38813 0.0
C328 C 0.87645 0.16517 0.43787 0.0
C329 C 0.94992 0.26743 0.41667 0.0
C330 C 0.09576 0.03757 0.30436 0.0
C331 C 0.85519 0.14127 0.36799 0.0
H332 H 0.46805 0.05525 0.04943 0.0
H333 H 0.41558 0.04599 0.17132 0.0
H334 H 0.51616 0.028 0.11527 0.0
H335 H 0.21313 0.12088 0.09547 0.0
H336 H 0.97165 0.28022 0.47737 0.0
H337 H 0.9221 0.24463 0.35799 0.0
H338 H 0.84939 0.12523 0.44594 0.0
H339 H 0.97826 0.30696 0.4085 0.0
Eu340 Eu 0.3967 0.37312 0.73056 0.0
C341 C 0.84028 0.37476 0.75695 0.0
N342 N 0.77902 0.33384 0.76547 0.0
C343 C 0.88636 0.26791 0.74125 0.0
C344 C 0.92678 0.36373 0.7394 0.0
C345 C 0.80128 0.28078 0.75864 0.0
C346 C 0.94877 0.30955 0.73102 0.0
C347 C 0.87922 0.47128 0.75861 0.0
C348 C 0.81654 0.4279 0.76612 0.0
C349 C 0.96531 0.46051 0.74087 0.0
C350 C 0.98888 0.40684 0.73124 0.0
Eu351 Eu 0.63493 0.36005 0.79229 0.0
N352 N 0.73144 0.43717 0.78211 0.0
C353 C 0.85378 0.52398 0.76969 0.0
C354 C 0.7079 0.48788 0.79442 0.0
C355 C 0.76844 0.53196 0.78832 0.0
H356 H 0.75343 0.2484 0.76681 0.0
H357 H 0.74948 0.57175 0.7986 0.0
H358 H 0.27144 0.46478 0.78026 0.0
H359 H 0.33786 0.15437 0.70994 0.0
H360 H 0.6433 0.49428 0.80955 0.0
H361 H 0.90019 0.55845 0.76485 0.0
H362 H 0.41765 0.24257 0.69991 0.0
H363 H 0.90418 0.22598 0.73594 0.0
H364 H 0.01451 0.49326 0.73487 0.0
H365 H 0.05612 0.39878 0.71831 0.0
H366 H 0.12999 0.46628 0.82123 0.0
H367 H 0.01461 0.29934 0.71755 0.0
H368 H 0.19636 0.14899 0.75153 0.0
N369 N 0.26235 0.37958 0.76961 0.0
C370 C 0.21252 0.33255 0.77462 0.0
C371 C 0.15301 0.42834 0.80862 0.0
C372 C 0.13213 0.33148 0.79824 0.0
C373 C 0.23335 0.42731 0.78561 0.0
C374 C 0.10252 0.38018 0.81518 0.0
N375 N 0.32555 0.28623 0.73656 0.0
C376 C 0.35741 0.24064 0.71857 0.0
C377 C 0.19676 0.23507 0.76393 0.0
C378 C 0.24492 0.2847 0.75766 0.0
C379 C 0.2314 0.18773 0.74693 0.0
C380 C 0.31141 0.19061 0.72378 0.0
H381 H 0.04053 0.3811 0.83318 0.0
H382 H 0.02257 0.28036 0.82258 0.0
H383 H 0.07894 0.19605 0.79253 0.0
O384 O 0.35714 0.35822 0.66964 0.0
O385 O 0.39707 0.33717 0.79278 0.0
O386 O 0.53347 0.29047 0.79482 0.0
O387 O 0.28878 0.42232 0.70294 0.0
O388 O 0.51774 0.32794 0.70222 0.0
O389 O 0.58929 0.28885 0.75517 0.0
O390 O 0.63731 0.38174 0.85359 0.0
O391 O 0.64776 0.40206 0.73376 0.0
O392 O 0.50485 0.43944 0.71741 0.0
O393 O 0.72474 0.31635 0.83291 0.0
O394 O 0.51815 0.41508 0.81426 0.0
O395 O 0.44022 0.45015 0.76104 0.0
C396 C 0.44603 0.29516 0.80466 0.0
C397 C 0.23514 0.41058 0.63651 0.0
C398 C 0.20089 0.40732 0.56669 0.0
C399 C 0.11643 0.43435 0.57398 0.0
C400 C 0.15217 0.43928 0.64248 0.0
C401 C 0.09285 0.45044 0.6115 0.0
C402 C 0.25954 0.39501 0.59851 0.0
C403 C 0.57676 0.29298 0.71749 0.0
C404 C 0.29472 0.3966 0.67013 0.0
C405 C 0.0845 0.28194 0.80455 0.0
C406 C 0.11655 0.23394 0.78738 0.0
C407 C 0.59628 0.43678 0.71433 0.0
C408 C 0.66912 0.31053 0.89758 0.0
C409 C 0.67419 0.29924 0.96808 0.0
C410 C 0.61845 0.25202 0.96483 0.0
C411 C 0.61402 0.26323 0.89478 0.0
C412 C 0.69873 0.32834 0.93413 0.0
C413 C 0.58905 0.23412 0.92832 0.0
C414 C 0.47148 0.45426 0.79676 0.0
C415 C 0.69472 0.34289 0.86306 0.0
H416 H 0.06801 0.44306 0.55074 0.0
H417 H 0.13261 0.45276 0.6712 0.0
H418 H 0.02816 0.47167 0.61659 0.0
H419 H 0.32517 0.37456 0.59377 0.0
H420 H 0.5991 0.22841 0.99036 0.0
H421 H 0.5905 0.24885 0.86679 0.0
H422 H 0.74017 0.3654 0.93609 0.0
H423 H 0.54736 0.19735 0.92594 0.0
Eu424 Eu 0.1278 0.86036 0.72782 0.0
C425 C 0.70302 0.83333 0.75069 0.0
N426 N 0.7534 0.88 0.75566 0.0
C427 C 0.64178 0.93078 0.71887 0.0
C428 C 0.62087 0.83351 0.72836 0.0
C429 C 0.72369 0.92852 0.74069 0.0
C430 C 0.59048 0.88304 0.71244 0.0
C431 C 0.68649 0.73561 0.76102 0.0
C432 C 0.73632 0.78469 0.76652 0.0
C433 C 0.60452 0.73568 0.73884 0.0
C434 C 0.57218 0.7844 0.72235 0.0
Eu435 Eu 0.89161 0.87137 0.79184 0.0
N436 N 0.81855 0.78515 0.78631 0.0
C437 C 0.72076 0.68773 0.77783 0.0
C438 C 0.85031 0.73902 0.80403 0.0
C439 C 0.80245 0.68956 0.7998 0.0
H440 H 0.76267 0.9656 0.74586 0.0
H441 H 0.82873 0.65307 0.81366 0.0
H442 H 0.25387 0.75234 0.75591 0.0
H443 H 0.23158 0.07393 0.71523 0.0
H444 H 0.91154 0.74012 0.82199 0.0
H445 H 0.68375 0.64948 0.77428 0.0
H446 H 0.13173 -0.00628 0.70508 0.0
H447 H 0.61819 0.96934 0.70707 0.0
H448 H 0.56565 0.69822 0.73422 0.0
H449 H 0.5089 0.78376 0.70527 0.0
H450 H 0.40119 0.73429 0.79086 0.0
H451 H 0.5272 0.88492 0.69542 0.0
H452 H 0.3777 0.06551 0.7531 0.0
N453 N 0.27205 0.83833 0.75652 0.0
C454 C 0.32924 0.88096 0.76516 0.0
C455 C 0.38124 0.77571 0.78412 0.0
C456 C 0.41403 0.87259 0.78476 0.0
C457 C 0.29788 0.78605 0.76455 0.0
C458 C 0.43884 0.8192 0.79486 0.0
N459 N 0.21877 0.93996 0.73669 0.0
C460 C 0.19406 0.98949 0.72202 0.0
C461 C 0.36133 0.97829 0.76178 0.0
C462 C 0.30263 0.93323 0.75433 0.0
C463 C 0.33412 0.02988 0.74844 0.0
C464 C 0.25119 0.03511 0.72762 0.0
H465 H 0.50338 0.81101 0.81 0.0
H466 H 0.53708 0.91176 0.80815 0.0
H467 H 0.49131 0.00439 0.78789 0.0
O468 O 0.13914 0.88309 0.66667 0.0
O469 O 0.13938 0.89722 0.78796 0.0
O470 O 0.9992 0.93847 0.80218 0.0
O471 O 0.21739 0.81434 0.68863 0.0
O472 O 0.01019 0.91503 0.70593 0.0
O473 O 0.93391 0.94836 0.76001 0.0
O474 O 0.86212 0.85575 0.85398 0.0
O475 O 0.88556 0.83811 0.72927 0.0
O476 O 0.02282 0.79238 0.72429 0.0
O477 O 0.78648 0.91906 0.82232 0.0
O478 O 0.01349 0.82354 0.81744 0.0
O479 O 0.08226 0.78665 0.7633 0.0
C480 C 0.08994 0.9339 0.80624 0.0
C481 C 0.16737 0.81179 0.62315 0.0
C482 C 0.17667 0.80223 0.55268 0.0
C483 C 0.11315 0.75829 0.55501 0.0
C484 C 0.10446 0.76777 0.62499 0.0
C485 C 0.07751 0.74121 0.591 0.0
C486 C 0.20308 0.8288 0.58708 0.0
C487 C 0.96205 0.95308 0.72372 0.0
C488 C 0.19329 0.84246 0.65804 0.0
C489 C 0.47147 0.91754 0.79332 0.0
C490 C 0.44548 0.97024 0.78168 0.0
C491 C 0.93544 0.79835 0.71477 0.0
C492 C 0.74433 0.90695 0.89051 0.0
C493 C 0.7213 0.90468 0.96131 0.0
C494 C 0.63739 0.93313 0.9563 0.0
C495 C 0.66074 0.93588 0.88668 0.0
C496 C 0.77449 0.89145 0.92802 0.0
C497 C 0.60757 0.94851 0.91931 0.0
C498 C 0.07026 0.78842 0.80111 0.0
C499 C 0.79886 0.89361 0.85518 0.0
H500 H 0.09193 0.73673 0.52911 0.0
H501 H 0.07593 0.75419 0.65256 0.0
H502 H 0.02878 0.70732 0.59254 0.0
H503 H 0.25016 0.86358 0.58582 0.0
H504 H 0.59548 0.94451 0.98112 0.0
H505 H 0.63617 0.94871 0.85838 0.0
H506 H 0.83893 0.86916 0.93129 0.0
H507 H 0.54312 0.97066 0.91592 0.0
Eu508 Eu 0.4051 0.62611 0.22295 0.0
C509 C 0.83117 0.64343 0.25308 0.0
N510 N 0.7769 0.59789 0.25579 0.0
C511 C 0.8904 0.54647 0.22079 0.0
C512 C 0.91641 0.64255 0.23261 0.0
C513 C 0.80632 0.54938 0.24123 0.0
C514 C 0.9453 0.59338 0.21612 0.0
C515 C 0.85485 0.73936 0.26722 0.0
C516 C 0.80058 0.69129 0.27036 0.0
C517 C 0.93904 0.73883 0.24632 0.0
C518 C 0.96989 0.69053 0.2292 0.0
Eu519 Eu 0.63594 0.60651 0.29015 0.0
N520 N 0.7183 0.69083 0.29027 0.0
C521 C 0.82344 0.78654 0.28548 0.0
C522 C 0.69058 0.7359 0.31014 0.0
C523 C 0.7416 0.78463 0.30745 0.0
H524 H 0.76546 0.51273 0.24569 0.0
H525 H 0.71837 0.82049 0.32276 0.0
H526 H 0.29479 0.73197 0.26669 0.0
H527 H 0.26114 0.42669 0.18813 0.0
H528 H 0.63062 0.73443 0.32888 0.0
H529 H 0.86323 0.82414 0.2835 0.0
H530 H 0.37278 0.50409 0.18379 0.0
H531 H 0.91315 0.50798 0.20892 0.0
H532 H 0.98131 0.77549 0.24355 0.0
H533 H 0.03546 0.69064 0.21355 0.0
H534 H 0.16067 0.74626 0.30986 0.0
H535 H 0.01055 0.591 0.20036 0.0
H536 H 0.12823 0.43059 0.23409 0.0
N537 N 0.2752 0.64584 0.26339 0.0
C538 C 0.21446 0.60375 0.26979 0.0
C539 C 0.17608 0.70569 0.2995 0.0
C540 C 0.13441 0.61056 0.29311 0.0
C541 C 0.25374 0.69711 0.27579 0.0
C542 C 0.1171 0.66199 0.30884 0.0
N543 N 0.30391 0.55021 0.22702 0.0
C544 C 0.3147 0.50582 0.20378 0.0
C545 C 0.16362 0.5116 0.25437 0.0
C546 C 0.22833 0.55486 0.25056 0.0
C547 C 0.17677 0.46458 0.23216 0.0
C548 C 0.25174 0.46213 0.20623 0.0
H549 H 0.05607 0.66897 0.32666 0.0
H550 H 0.01057 0.5711 0.31651 0.0
H551 H 0.03651 0.48436 0.28277 0.0
O552 O 0.39965 0.62246 0.15852 0.0
O553 O 0.4175 0.5523 0.26293 0.0
O554 O 0.49185 0.58937 0.31469 0.0
O555 O 0.29523 0.66715 0.19153 0.0
O556 O 0.52065 0.5727 0.19854 0.0
O557 O 0.59357 0.53431 0.25263 0.0
O558 O 0.71365 0.61402 0.34443 0.0
O559 O 0.64703 0.63818 0.22782 0.0
O560 O 0.51812 0.69135 0.21901 0.0
O561 O 0.68644 0.53415 0.32065 0.0
O562 O 0.52166 0.65968 0.31461 0.0
O563 O 0.45098 0.69778 0.26046 0.0
C564 C 0.43551 0.55264 0.3002 0.0
C565 C 0.27157 0.66595 0.12221 0.0
C566 C 0.25389 0.66669 0.05159 0.0
C567 C 0.16487 0.68944 0.05604 0.0
C568 C 0.18238 0.68881 0.12575 0.0
C569 C 0.12965 0.70046 0.09286 0.0
C570 C 0.30737 0.65522 0.08494 0.0
C571 C 0.57236 0.5347 0.21527 0.0
C572 C 0.32331 0.65091 0.1577 0.0
C573 C 0.0721 0.56664 0.29855 0.0
C574 C 0.0867 0.51727 0.27923 0.0
C575 C 0.6074 0.6823 0.21391 0.0
C576 C 0.68502 0.54243 0.38969 0.0
C577 C 0.67972 0.55412 0.46043 0.0
C578 C 0.62308 0.50716 0.46329 0.0
C579 C 0.62947 0.4952 0.39369 0.0
C580 C 0.71094 0.57139 0.42338 0.0
C581 C 0.5989 0.47786 0.43023 0.0
C582 C 0.47128 0.6977 0.29776 0.0
C583 C 0.71589 0.56155 0.35067 0.0
H584 H 0.12288 0.69952 0.03092 0.0
H585 H 0.15262 0.69713 0.15402 0.0
H586 H 0.06104 0.71796 0.09594 0.0
H587 H 0.3757 0.63722 0.08188 0.0
H588 H 0.59965 0.49198 0.49131 0.0
H589 H 0.60909 0.47158 0.3686 0.0
H590 H 0.75484 0.60741 0.42074 0.0
H591 H 0.55665 0.44125 0.43299 0.0
loop_
_geom_bond_atom_site_label_1
_geom_bond_atom_site_label_2
_geom_bond_distance
_geom_bond_site_symmetry_2
_ccdc_geom_bond_type
P0 O11 1.490 . S
P0 C14 1.812 . S
P0 C20 1.803 . S
P0 C26 1.819 . S
H1 C15 0.941 . S
H2 C16 0.939 . S
H3 C18 0.940 . S
H4 C19 0.940 . S
H5 C21 0.939 . S
H6 C22 0.942 . S
H7 C24 0.940 . S
H8 C25 0.939 . S
H9 C27 0.941 . S
H10 C31 0.939 . S
O11 P0 1.490 . S
H12 C28 0.939 . S
H13 C30 0.940 . S
C14 P0 1.812 . S
C14 C15 1.389 . S
C14 C19 1.391 . S
C15 H1 0.941 . S
C15 C14 1.389 . S
C15 C16 1.397 . S
C16 H2 0.939 . S
C16 C15 1.397 . S
C16 C17 1.378 . S
C17 C16 1.378 . S
C17 C18 1.378 . S
C18 H3 0.940 . S
C18 C17 1.378 . S
C18 C19 1.396 . S
C19 H4 0.940 . S
C19 C14 1.391 . S
C19 C18 1.396 . S
C20 P0 1.803 . S
C20 C21 1.378 . S
C20 C25 1.400 . S
C21 H5 0.939 . S
C21 C20 1.378 . S
C21 C22 1.361 . S
C22 H6 0.942 . S
C22 C21 1.361 . S
C22 C23 1.369 . S
C23 C22 1.369 . S
C23 C24 1.404 . S
C24 H7 0.940 . S
C24 C23 1.404 . S
C24 C25 1.389 . S
C25 H8 0.939 . S
C25 C20 1.400 . S
C25 C24 1.389 . S
C26 P0 1.819 . S
C26 C27 1.391 . S
C26 C31 1.391 . S
C27 H9 0.941 . S
C27 C26 1.391 . S
C27 C28 1.396 . S
C28 H12 0.939 . S
C28 C27 1.396 . S
C28 C29 1.397 . S
C29 C28 1.397 . S
C29 C30 1.385 . S
C30 H13 0.940 . S
C30 C29 1.385 . S
C30 C31 1.388 . S
C31 H10 0.939 . S
C31 C26 1.391 . S
C31 C30 1.388 . S
P32 O43 1.490 . S
P32 C46 1.812 . S
P32 C52 1.803 . S
P32 C58 1.819 . S
H33 C47 0.941 . S
H34 C48 0.939 . S
H35 C50 0.940 . S
H36 C51 0.940 . S
H37 C53 0.939 . S
H38 C54 0.942 . S
H39 C56 0.940 . S
H40 C57 0.939 . S
H41 C59 0.941 . S
H42 C63 0.939 . S
O43 P32 1.490 . S
H44 C60 0.939 1_554 S
H45 C62 0.940 . S
C46 P32 1.812 . S
C46 C47 1.389 1_545 S
C46 C51 1.391 . S
C47 H33 0.941 . S
C47 C46 1.389 1_565 S
C47 C48 1.397 . S
C48 H34 0.939 . S
C48 C47 1.397 . S
C48 C49 1.378 . S
C49 C48 1.378 . S
C49 C50 1.378 1_565 S
C50 H35 0.940 . S
C50 C49 1.378 1_545 S
C50 C51 1.396 . S
C51 H36 0.940 . S
C51 C46 1.391 . S
C51 C50 1.396 . S
C52 P32 1.803 . S
C52 C53 1.378 . S
C52 C57 1.400 . S
C53 H37 0.939 . S
C53 C52 1.378 . S
C53 C54 1.361 . S
C54 H38 0.942 . S
C54 C53 1.361 . S
C54 C55 1.369 . S
C55 C54 1.369 . S
C55 C56 1.404 . S
C56 H39 0.940 . S
C56 C55 1.404 . S
C56 C57 1.389 . S
C57 H40 0.939 . S
C57 C52 1.400 . S
C57 C56 1.389 . S
C58 P32 1.819 . S
C58 C59 1.391 . S
C58 C63 1.391 . S
C59 H41 0.941 . S
C59 C58 1.391 . S
C59 C60 1.396 . S
C60 H44 0.939 1_556 S
C60 C59 1.396 . S
C60 C61 1.398 . S
C61 C60 1.398 . S
C61 C62 1.389 . S
C62 H45 0.940 . S
C62 C61 1.389 . S
C62 C63 1.388 . S
C63 H42 0.939 . S
C63 C58 1.391 . S
C63 C62 1.388 . S
P64 O75 1.490 . S
P64 C78 1.812 . S
P64 C84 1.803 . S
P64 C90 1.819 . S
H65 C79 0.941 . S
H66 C80 0.939 . S
H67 C82 0.940 . S
H68 C83 0.940 . S
H69 C85 0.939 . S
H70 C86 0.942 . S
H71 C88 0.940 . S
H72 C89 0.939 . S
H73 C91 0.941 1_455 S
H74 C95 0.939 . S
O75 P64 1.490 . S
H76 C92 0.939 1_465 S
H77 C94 0.940 . S
C78 P64 1.812 . S
C78 C79 1.389 . S
C78 C83 1.391 . S
C79 H65 0.941 . S
C79 C78 1.389 . S
C79 C80 1.397 . S
C80 H66 0.939 . S
C80 C79 1.397 . S
C80 C81 1.378 . S
C81 C80 1.378 . S
C81 C82 1.378 . S
C82 H67 0.940 . S
C82 C81 1.378 . S
C82 C83 1.396 . S
C83 H68 0.940 . S
C83 C78 1.391 . S
C83 C82 1.396 . S
C84 P64 1.803 . S
C84 C85 1.378 . S
C84 C89 1.400 . S
C85 H69 0.939 . S
C85 C84 1.378 . S
C85 C86 1.361 . S
C86 H70 0.942 . S
C86 C85 1.361 . S
C86 C87 1.369 . S
C87 C86 1.369 . S
C87 C88 1.404 . S
C88 H71 0.940 . S
C88 C87 1.404 . S
C88 C89 1.389 . S
C89 H72 0.939 . S
C89 C84 1.400 . S
C89 C88 1.389 . S
C90 P64 1.819 . S
C90 C91 1.391 . S
C90 C95 1.391 . S
C91 H73 0.941 1_655 S
C91 C90 1.391 . S
C91 C92 1.396 . S
C92 H76 0.939 1_645 S
C92 C91 1.396 . S
C92 C93 1.397 1_545 S
C93 C92 1.397 1_565 S
C93 C94 1.385 1_565 S
C94 H77 0.940 . S
C94 C93 1.385 1_545 S
C94 C95 1.388 . S
C95 H74 0.939 . S
C95 C90 1.391 . S
C95 C94 1.388 . S
P96 O107 1.490 . S
P96 C110 1.812 . S
P96 C116 1.803 . S
P96 C122 1.819 . S
H97 C111 0.941 . S
H98 C112 0.939 . S
H99 C114 0.940 . S
H100 C115 0.940 . S
H101 C117 0.939 1_455 S
H102 C118 0.942 1_455 S
H103 C120 0.940 . S
H104 C121 0.939 . S
H105 C123 0.941 . S
H106 C127 0.939 . S
O107 P96 1.490 . S
H108 C124 0.939 1_556 S
H109 C126 0.940 . S
C110 P96 1.812 . S
C110 C111 1.389 . S
C110 C115 1.391 . S
C111 H97 0.941 . S
C111 C110 1.389 . S
C111 C112 1.397 . S
C112 H98 0.939 . S
C112 C111 1.397 . S
C112 C113 1.378 . S
C113 C112 1.378 . S
C113 C114 1.378 . S
C114 H99 0.940 . S
C114 C113 1.378 . S
C114 C115 1.396 . S
C115 H100 0.940 . S
C115 C110 1.391 . S
C115 C114 1.396 . S
C116 P96 1.803 . S
C116 C117 1.378 . S
C116 C121 1.400 . S
C117 H101 0.939 1_655 S
C117 C116 1.378 . S
C117 C118 1.361 . S
C118 H102 0.942 1_655 S
C118 C117 1.361 . S
C118 C119 1.369 . S
C119 C118 1.369 . S
C119 C120 1.404 . S
C120 H103 0.940 . S
C120 C119 1.404 . S
C120 C121 1.389 . S
C121 H104 0.939 . S
C121 C116 1.400 . S
C121 C120 1.389 . S
C122 P96 1.819 . S
C122 C123 1.391 . S
C122 C127 1.391 . S
C123 H105 0.941 . S
C123 C122 1.391 . S
C123 C124 1.396 . S
C124 H108 0.939 1_554 S
C124 C123 1.396 . S
C124 C125 1.397 . S
C125 C124 1.397 . S
C125 C126 1.385 . S
C126 H109 0.940 . S
C126 C125 1.385 . S
C126 C127 1.388 . S
C127 H106 0.939 . S
C127 C122 1.391 . S
C127 C126 1.388 . S
P128 O139 1.490 . S
P128 C142 1.812 . S
P128 C148 1.803 . S
P128 C154 1.819 . S
H129 C143 0.941 . S
H130 C144 0.939 . S
H131 C146 0.940 . S
H132 C147 0.940 . S
H133 C149 0.939 . S
H134 C150 0.942 1_455 S
H135 C152 0.940 . S
H136 C153 0.939 . S
H137 C155 0.941 . S
H138 C159 0.939 . S
O139 P128 1.490 . S
H140 C156 0.939 . S
H141 C158 0.940 . S
C142 P128 1.812 . S
C142 C143 1.389 . S
C142 C147 1.391 . S
C143 H129 0.941 . S
C143 C142 1.389 . S
C143 C144 1.397 . S
C144 H130 0.939 . S
C144 C143 1.397 . S
C144 C145 1.378 . S
C145 C144 1.378 . S
C145 C146 1.378 . S
C146 H131 0.940 . S
C146 C145 1.378 . S
C146 C147 1.396 . S
C147 H132 0.940 . S
C147 C142 1.391 . S
C147 C146 1.396 . S
C148 P128 1.803 . S
C148 C149 1.378 . S
C148 C153 1.400 . S
C149 H133 0.939 . S
C149 C148 1.378 . S
C149 C150 1.361 . S
C150 H134 0.942 1_655 S
C150 C149 1.361 . S
C150 C151 1.369 . S
C151 C150 1.369 . S
C151 C152 1.404 . S
C152 H135 0.940 . S
C152 C151 1.404 . S
C152 C153 1.389 . S
C153 H136 0.939 . S
C153 C148 1.400 . S
C153 C152 1.389 . S
C154 P128 1.819 . S
C154 C155 1.391 . S
C154 C159 1.391 . S
C155 H137 0.941 . S
C155 C154 1.391 . S
C155 C156 1.396 . S
C156 H140 0.939 . S
C156 C155 1.396 . S
C156 C157 1.397 . S
C157 C156 1.397 . S
C157 C158 1.385 . S
C158 H141 0.940 . S
C158 C157 1.385 . S
C158 C159 1.388 . S
C159 H138 0.939 . S
C159 C154 1.391 . S
C159 C158 1.388 . S
P160 O171 1.490 . S
P160 C174 1.812 . S
P160 C180 1.803 . S
P160 C186 1.819 . S
H161 C175 0.941 . S
H162 C176 0.939 . S
H163 C178 0.940 . S
H164 C179 0.940 . S
H165 C181 0.939 . S
H166 C182 0.942 . S
H167 C184 0.940 . S
H168 C185 0.939 . S
H169 C187 0.941 . S
H170 C191 0.939 . S
O171 P160 1.490 . S
H172 C188 0.939 . S
H173 C190 0.940 . S
C174 P160 1.812 . S
C174 C175 1.389 . S
C174 C179 1.391 . S
C175 H161 0.941 . S
C175 C174 1.389 . S
C175 C176 1.397 . S
C176 H162 0.939 . S
C176 C175 1.397 . S
C176 C177 1.378 1_565 S
C177 C176 1.378 1_545 S
C177 C178 1.378 . S
C178 H163 0.940 . S
C178 C177 1.378 . S
C178 C179 1.396 1_545 S
C179 H164 0.940 . S
C179 C174 1.391 . S
C179 C178 1.396 1_565 S
C180 P160 1.803 . S
C180 C181 1.378 . S
C180 C185 1.400 . S
C181 H165 0.939 . S
C181 C180 1.378 . S
C181 C182 1.361 . S
C182 H166 0.942 . S
C182 C181 1.361 . S
C182 C183 1.369 . S
C183 C182 1.369 . S
C183 C184 1.404 . S
C184 H167 0.940 . S
C184 C183 1.404 . S
C184 C185 1.389 . S
C185 H168 0.939 . S
C185 C180 1.400 . S
C185 C184 1.389 . S
C186 P160 1.819 . S
C186 C187 1.391 . S
C186 C191 1.391 . S
C187 H169 0.941 . S
C187 C186 1.391 . S
C187 C188 1.396 . S
C188 H172 0.939 . S
C188 C187 1.396 . S
C188 C189 1.397 . S
C189 C188 1.397 . S
C189 C190 1.385 . S
C190 H173 0.940 . S
C190 C189 1.385 . S
C190 C191 1.388 . S
C191 H170 0.939 . S
C191 C186 1.391 . S
C191 C190 1.388 . S
P192 O203 1.490 . S
P192 C206 1.812 . S
P192 C212 1.803 . S
P192 C218 1.819 . S
H193 C207 0.941 . S
H194 C208 0.939 . S
H195 C210 0.940 . S
H196 C211 0.940 . S
H197 C213 0.939 . S
H198 C214 0.942 . S
H199 C216 0.940 . S
H200 C217 0.939 . S
H201 C219 0.941 . S
H202 C223 0.939 . S
O203 P192 1.490 . S
H204 C220 0.939 . S
H205 C222 0.940 . S
C206 P192 1.812 . S
C206 C207 1.389 . S
C206 C211 1.391 . S
C207 H193 0.941 . S
C207 C206 1.389 . S
C207 C208 1.397 . S
C208 H194 0.939 . S
C208 C207 1.397 . S
C208 C209 1.378 . S
C209 C208 1.378 . S
C209 C210 1.378 . S
C210 H195 0.940 . S
C210 C209 1.378 . S
C210 C211 1.396 . S
C211 H196 0.940 . S
C211 C206 1.391 . S
C211 C210 1.396 . S
C212 P192 1.803 . S
C212 C213 1.378 . S
C212 C217 1.400 . S
C213 H197 0.939 . S
C213 C212 1.378 . S
C213 C214 1.361 . S
C214 H198 0.942 . S
C214 C213 1.361 . S
C214 C215 1.369 . S
C215 C214 1.369 . S
C215 C216 1.404 . S
C216 H199 0.940 . S
C216 C215 1.404 . S
C216 C217 1.389 . S
C217 H200 0.939 . S
C217 C212 1.400 . S
C217 C216 1.389 . S
C218 P192 1.819 . S
C218 C219 1.391 1_565 S
C218 C223 1.391 . S
C219 H201 0.941 . S
C219 C218 1.391 1_545 S
C219 C220 1.396 . S
C220 H204 0.939 . S
C220 C219 1.396 . S
C220 C221 1.397 . S
C221 C220 1.397 . S
C221 C222 1.385 1_545 S
C222 H205 0.940 . S
C222 C221 1.385 1_565 S
C222 C223 1.388 . S
C223 H202 0.939 . S
C223 C218 1.391 . S
C223 C222 1.388 . S
P224 O235 1.490 . S
P224 C238 1.812 . S
P224 C244 1.803 . S
P224 C250 1.819 . S
H225 C239 0.941 . S
H226 C240 0.939 . S
H227 C242 0.940 . S
H228 C243 0.940 . S
H229 C245 0.939 . S
H230 C246 0.942 . S
H231 C248 0.940 . S
H232 C249 0.939 . S
H233 C251 0.941 . S
H234 C255 0.939 . S
O235 P224 1.490 . S
H236 C252 0.939 . S
H237 C254 0.940 . S
C238 P224 1.812 . S
C238 C239 1.389 . S
C238 C243 1.391 . S
C239 H225 0.941 . S
C239 C238 1.389 . S
C239 C240 1.397 . S
C240 H226 0.939 . S
C240 C239 1.397 . S
C240 C241 1.378 . S
C241 C240 1.378 . S
C241 C242 1.378 . S
C242 H227 0.940 . S
C242 C241 1.378 . S
C242 C243 1.396 . S
C243 H228 0.940 . S
C243 C238 1.391 . S
C243 C242 1.396 . S
C244 P224 1.803 . S
C244 C245 1.378 . S
C244 C249 1.400 . S
C245 H229 0.939 . S
C245 C244 1.378 . S
C245 C246 1.361 . S
C246 H230 0.942 . S
C246 C245 1.361 . S
C246 C247 1.369 . S
C247 C246 1.369 . S
C247 C248 1.404 . S
C248 H231 0.940 . S
C248 C247 1.404 . S
C248 C249 1.389 . S
C249 H232 0.939 . S
C249 C244 1.400 . S
C249 C248 1.389 . S
C250 P224 1.819 . S
C250 C251 1.391 . S
C250 C255 1.391 . S
C251 H233 0.941 . S
C251 C250 1.391 . S
C251 C252 1.396 . S
C252 H236 0.939 . S
C252 C251 1.396 . S
C252 C253 1.397 . S
C253 C252 1.397 . S
C253 C254 1.385 . S
C254 H237 0.940 . S
C254 C253 1.385 . S
C254 C255 1.388 . S
C255 H234 0.939 . S
C255 C250 1.391 . S
C255 C254 1.388 . S
Eu256 N285 2.600 . S
Eu256 N291 2.562 . S
Eu256 O300 2.462 . S
Eu256 O301 2.373 . S
Eu256 O303 2.432 . S
Eu256 O304 2.291 . S
Eu256 O308 2.335 . S
Eu256 O311 2.372 . S
Eu256 C320 2.787 . S
C257 N258 1.365 . S
C257 C260 1.405 . S
C257 C264 1.448 . S
N258 C257 1.365 . S
N258 C261 1.319 . S
N258 Eu267 2.600 . S
C259 C261 1.397 . S
C259 C262 1.367 . S
C259 H279 0.931 . S
C260 C257 1.405 . S
C260 C262 1.403 . S
C260 C266 1.439 . S
C261 N258 1.319 . S
C261 C259 1.397 . S
C261 H272 0.930 . S
C262 C259 1.367 . S
C262 C260 1.403 . S
C262 H283 0.929 . S
C263 C264 1.430 1_565 S
C263 C265 1.387 . S
C263 C269 1.404 . S
C264 C257 1.448 . S
C264 C263 1.430 1_545 S
C264 N268 1.351 . S
C265 C263 1.387 . S
C265 C266 1.374 1_565 S
C265 H280 0.931 . S
C266 C260 1.439 . S
C266 C265 1.374 1_545 S
C266 H281 0.931 . S
Eu267 N258 2.600 . S
Eu267 N268 2.562 . S
Eu267 O302 2.335 1_655 S
Eu267 O305 2.372 . S
Eu267 O306 2.462 . S
Eu267 O307 2.373 . S
Eu267 O309 2.432 . S
Eu267 O310 2.291 1_655 S
Eu267 C331 2.787 . S
N268 C264 1.351 . S
N268 Eu267 2.562 . S
N268 C270 1.325 . S
C269 C263 1.404 . S
C269 C271 1.366 . S
C269 H277 0.930 . S
C270 N268 1.325 . S
C270 C271 1.416 1_545 S
C270 H276 0.929 . S
C271 C269 1.366 . S
C271 C270 1.416 1_565 S
C271 H273 0.930 . S
H272 C261 0.930 . S
H273 C271 0.930 . S
H274 C289 0.930 . S
H275 C296 0.930 . S
H276 C270 0.929 . S
H277 C269 0.930 . S
H278 C292 0.929 . S
H279 C259 0.931 . S
H280 C265 0.931 . S
H281 C266 0.931 . S
H282 C287 0.931 . S
H283 C262 0.929 . S
H284 C295 0.930 . S
N285 Eu256 2.600 . S
N285 C286 1.365 . S
N285 C289 1.319 . S
C286 N285 1.365 . S
C286 C288 1.405 . S
C286 C294 1.448 . S
C287 H282 0.931 . S
C287 C289 1.397 . S
C287 C290 1.367 . S
C288 C286 1.405 . S
C288 C290 1.403 . S
C288 C321 1.439 . S
C289 H274 0.930 . S
C289 N285 1.319 . S
C289 C287 1.397 . S
C290 C287 1.367 . S
C290 C288 1.403 . S
C290 H297 0.929 . S
N291 Eu256 2.562 . S
N291 C292 1.325 . S
N291 C294 1.351 . S
C292 H278 0.929 . S
C292 N291 1.325 . S
C292 C296 1.416 . S
C293 C294 1.430 . S
C293 C295 1.404 . S
C293 C322 1.387 . S
C294 C286 1.448 . S
C294 N291 1.351 . S
C294 C293 1.430 . S
C295 H284 0.930 . S
C295 C293 1.404 . S
C295 C296 1.366 . S
C296 H275 0.930 . S
C296 C292 1.416 . S
C296 C295 1.366 . S
H297 C290 0.929 . S
H298 C321 0.931 . S
H299 C322 0.931 . S
O300 Eu256 2.462 . S
O300 C320 1.252 . S
O301 Eu256 2.373 . S
O301 C312 1.249 . S
O302 Eu267 2.335 1_455 S
O302 C312 1.264 . S
O303 Eu256 2.432 . S
O303 C320 1.268 . S
O304 Eu256 2.291 . S
O304 C319 1.255 1_455 S
O305 Eu267 2.372 . S
O305 C319 1.257 . S
O306 Eu267 2.462 . S
O306 C331 1.252 . S
O307 Eu267 2.373 . S
O307 C323 1.249 . S
O308 Eu256 2.335 . S
O308 C323 1.264 1_455 S
O309 Eu267 2.432 . S
O309 C331 1.268 . S
O310 Eu267 2.291 1_455 S
O310 C330 1.255 . S
O311 Eu256 2.372 . S
O311 C330 1.257 . S
C312 O301 1.249 . S
C312 O302 1.264 . S
C313 C316 1.382 . S
C313 C318 1.390 . S
C313 C320 1.506 . S
C314 C315 1.398 . S
C314 C318 1.392 . S
C315 C314 1.398 . S
C315 C317 1.372 . S
C315 H332 0.931 1_554 S
C316 C313 1.382 . S
C316 C317 1.390 . S
C316 H333 0.931 . S
C317 C315 1.372 . S
C317 C316 1.390 . S
C317 H334 0.929 . S
C318 C313 1.390 . S
C318 C314 1.392 . S
C318 H335 0.930 . S
C319 O304 1.255 1_655 S
C319 O305 1.257 . S
C320 Eu256 2.787 . S
C320 O300 1.252 . S
C320 O303 1.268 . S
C320 C313 1.506 . S
C321 C288 1.439 . S
C321 H298 0.931 . S
C321 C322 1.374 . S
C322 C293 1.387 . S
C322 H299 0.931 . S
C322 C321 1.374 . S
C323 O307 1.249 . S
C323 O308 1.264 1_655 S
C324 C327 1.382 . S
C324 C328 1.390 . S
C324 C331 1.506 . S
C325 C326 1.398 . S
C325 C328 1.392 . S
C326 C325 1.398 . S
C326 C329 1.372 . S
C326 H336 0.931 . S
C327 C324 1.382 . S
C327 C329 1.390 . S
C327 H337 0.931 . S
C328 C324 1.390 . S
C328 C325 1.392 . S
C328 H338 0.930 . S
C329 C326 1.372 . S
C329 C327 1.390 . S
C329 H339 0.929 . S
C330 O310 1.255 . S
C330 O311 1.257 . S
C331 Eu267 2.787 . S
C331 O306 1.252 . S
C331 O309 1.268 . S
C331 C324 1.506 . S
H332 C315 0.931 1_556 S
H333 C316 0.931 . S
H334 C317 0.929 . S
H335 C318 0.930 . S
H336 C326 0.931 . S
H337 C327 0.931 . S
H338 C328 0.930 . S
H339 C329 0.929 . S
Eu340 N369 2.600 . S
Eu340 N375 2.562 . S
Eu340 O384 2.462 . S
Eu340 O385 2.373 . S
Eu340 O387 2.432 . S
Eu340 O388 2.291 . S
Eu340 O392 2.335 . S
Eu340 O395 2.372 . S
Eu340 C404 2.787 . S
C341 N342 1.365 . S
C341 C344 1.405 . S
C341 C348 1.448 . S
N342 C341 1.365 . S
N342 C345 1.319 . S
N342 Eu351 2.600 . S
C343 C345 1.397 . S
C343 C346 1.367 . S
C343 H363 0.931 . S
C344 C341 1.405 . S
C344 C346 1.403 . S
C344 C350 1.439 1_655 S
C345 N342 1.319 . S
C345 C343 1.397 . S
C345 H356 0.930 . S
C346 C343 1.367 . S
C346 C344 1.403 . S
C346 H367 0.929 1_655 S
C347 C348 1.430 . S
C347 C349 1.387 . S
C347 C353 1.404 . S
C348 C341 1.448 . S
C348 C347 1.430 . S
C348 N352 1.351 . S
C349 C347 1.387 . S
C349 C350 1.374 1_655 S
C349 H364 0.931 . S
C350 C344 1.439 1_455 S
C350 C349 1.374 1_455 S
C350 H365 0.931 . S
Eu351 N342 2.600 . S
Eu351 N352 2.562 . S
Eu351 O386 2.335 . S
Eu351 O389 2.372 . S
Eu351 O390 2.462 . S
Eu351 O391 2.373 . S
Eu351 O393 2.432 . S
Eu351 O394 2.291 . S
Eu351 C415 2.787 . S
N352 C348 1.351 . S
N352 Eu351 2.562 . S
N352 C354 1.325 . S
C353 C347 1.404 . S
C353 C355 1.366 . S
C353 H361 0.930 . S
C354 N352 1.325 . S
C354 C355 1.416 . S
C354 H360 0.929 . S
C355 C353 1.366 . S
C355 C354 1.416 . S
C355 H357 0.930 . S
H356 C345 0.930 . S
H357 C355 0.930 . S
H358 C373 0.930 . S
H359 C380 0.930 . S
H360 C354 0.929 . S
H361 C353 0.930 . S
H362 C376 0.929 . S
H363 C343 0.931 . S
H364 C349 0.931 . S
H365 C350 0.931 . S
H366 C371 0.931 . S
H367 C346 0.929 1_455 S
H368 C379 0.930 . S
N369 Eu340 2.600 . S
N369 C370 1.365 . S
N369 C373 1.319 . S
C370 N369 1.365 . S
C370 C372 1.405 . S
C370 C378 1.448 . S
C371 H366 0.931 . S
C371 C373 1.397 . S
C371 C374 1.367 . S
C372 C370 1.405 . S
C372 C374 1.403 . S
C372 C405 1.439 . S
C373 H358 0.930 . S
C373 N369 1.319 . S
C373 C371 1.397 . S
C374 C371 1.367 . S
C374 C372 1.403 . S
C374 H381 0.929 1_455 S
N375 Eu340 2.562 . S
N375 C376 1.325 . S
N375 C378 1.351 . S
C376 H362 0.929 . S
C376 N375 1.325 . S
C376 C380 1.416 . S
C377 C378 1.430 . S
C377 C379 1.404 . S
C377 C406 1.387 . S
C378 C370 1.448 . S
C378 N375 1.351 . S
C378 C377 1.430 . S
C379 H368 0.930 . S
C379 C377 1.404 . S
C379 C380 1.366 . S
C380 H359 0.930 . S
C380 C376 1.416 . S
C380 C379 1.366 . S
H381 C374 0.929 1_655 S
H382 C405 0.931 1_655 S
H383 C406 0.931 . S
O384 Eu340 2.462 . S
O384 C404 1.252 . S
O385 Eu340 2.373 . S
O385 C396 1.249 . S
O386 Eu351 2.335 . S
O386 C396 1.264 . S
O387 Eu340 2.432 . S
O387 C404 1.268 . S
O388 Eu340 2.291 . S
O388 C403 1.255 . S
O389 Eu351 2.372 . S
O389 C403 1.257 . S
O390 Eu351 2.462 . S
O390 C415 1.252 . S
O391 Eu351 2.373 . S
O391 C407 1.249 . S
O392 Eu340 2.335 . S
O392 C407 1.264 . S
O393 Eu351 2.432 . S
O393 C415 1.268 . S
O394 Eu351 2.291 . S
O394 C414 1.255 . S
O395 Eu340 2.372 . S
O395 C414 1.257 . S
C396 O385 1.249 . S
C396 O386 1.264 . S
C397 C400 1.382 . S
C397 C402 1.390 . S
C397 C404 1.506 . S
C398 C399 1.398 . S
C398 C402 1.392 . S
C399 C398 1.398 . S
C399 C401 1.372 . S
C399 H416 0.931 . S
C400 C397 1.382 . S
C400 C401 1.390 . S
C400 H417 0.931 . S
C401 C399 1.372 . S
C401 C400 1.390 . S
C401 H418 0.929 . S
C402 C397 1.390 . S
C402 C398 1.392 . S
C402 H419 0.930 . S
C403 O388 1.255 . S
C403 O389 1.257 . S
C404 Eu340 2.787 . S
C404 O384 1.252 . S
C404 O387 1.268 . S
C404 C397 1.506 . S
C405 C372 1.439 . S
C405 H382 0.931 1_455 S
C405 C406 1.374 . S
C406 C377 1.387 . S
C406 H383 0.931 . S
C406 C405 1.374 . S
C407 O391 1.249 . S
C407 O392 1.264 . S
C408 C411 1.382 . S
C408 C412 1.390 . S
C408 C415 1.506 . S
C409 C410 1.398 . S
C409 C412 1.392 . S
C410 C409 1.398 . S
C410 C413 1.372 . S
C410 H420 0.931 1_556 S
C411 C408 1.382 . S
C411 C413 1.390 . S
C411 H421 0.931 . S
C412 C408 1.390 . S
C412 C409 1.392 . S
C412 H422 0.930 . S
C413 C410 1.372 . S
C413 C411 1.390 . S
C413 H423 0.929 . S
C414 O394 1.255 . S
C414 O395 1.257 . S
C415 Eu351 2.787 . S
C415 O390 1.252 . S
C415 O393 1.268 . S
C415 C408 1.506 . S
H416 C399 0.931 . S
H417 C400 0.931 . S
H418 C401 0.929 . S
H419 C402 0.930 . S
H420 C410 0.931 1_554 S
H421 C411 0.931 . S
H422 C412 0.930 . S
H423 C413 0.929 . S
Eu424 N453 2.600 . S
Eu424 N459 2.562 . S
Eu424 O468 2.462 . S
Eu424 O469 2.373 . S
Eu424 O471 2.432 . S
Eu424 O472 2.291 1_455 S
Eu424 O476 2.335 1_455 S
Eu424 O479 2.372 . S
Eu424 C488 2.787 . S
C425 N426 1.365 . S
C425 C428 1.405 . S
C425 C432 1.448 . S
N426 C425 1.365 . S
N426 C429 1.319 . S
N426 Eu435 2.600 . S
C427 C429 1.397 . S
C427 C430 1.367 . S
C427 H447 0.931 . S
C428 C425 1.405 . S
C428 C430 1.403 . S
C428 C434 1.439 . S
C429 N426 1.319 . S
C429 C427 1.397 . S
C429 H440 0.930 . S
C430 C427 1.367 . S
C430 C428 1.403 . S
C430 H451 0.929 . S
C431 C432 1.430 . S
C431 C433 1.387 . S
C431 C437 1.404 . S
C432 C425 1.448 . S
C432 C431 1.430 . S
C432 N436 1.351 . S
C433 C431 1.387 . S
C433 C434 1.374 . S
C433 H448 0.931 . S
C434 C428 1.439 . S
C434 C433 1.374 . S
C434 H449 0.931 . S
Eu435 N426 2.600 . S
Eu435 N436 2.562 . S
Eu435 O470 2.335 1_655 S
Eu435 O473 2.372 . S
Eu435 O474 2.462 . S
Eu435 O475 2.373 . S
Eu435 O477 2.432 . S
Eu435 O478 2.291 1_655 S
Eu435 C499 2.787 . S
N436 C432 1.351 . S
N436 Eu435 2.562 . S
N436 C438 1.325 . S
C437 C431 1.404 . S
C437 C439 1.366 . S
C437 H445 0.930 . S
C438 N436 1.325 . S
C438 C439 1.416 . S
C438 H444 0.929 . S
C439 C437 1.366 . S
C439 C438 1.416 . S
C439 H441 0.930 . S
H440 C429 0.930 . S
H441 C439 0.930 . S
H442 C457 0.930 . S
H443 C464 0.930 . S
H444 C438 0.929 . S
H445 C437 0.930 . S
H446 C460 0.929 . S
H447 C427 0.931 . S
H448 C433 0.931 . S
H449 C434 0.931 . S
H450 C455 0.931 . S
H451 C430 0.929 . S
H452 C463 0.930 . S
N453 Eu424 2.600 . S
N453 C454 1.365 . S
N453 C457 1.319 . S
C454 N453 1.365 . S
C454 C456 1.405 . S
C454 C462 1.448 . S
C455 H450 0.931 . S
C455 C457 1.397 . S
C455 C458 1.367 . S
C456 C454 1.405 . S
C456 C458 1.403 . S
C456 C489 1.439 . S
C457 H442 0.930 . S
C457 N453 1.319 . S
C457 C455 1.397 . S
C458 C455 1.367 . S
C458 C456 1.403 . S
C458 H465 0.929 . S
N459 Eu424 2.562 . S
N459 C460 1.325 . S
N459 C462 1.351 . S
C460 H446 0.929 . S
C460 N459 1.325 . S
C460 C464 1.416 1_565 S
C461 C462 1.430 1_545 S
C461 C463 1.404 . S
C461 C490 1.387 . S
C462 C454 1.448 . S
C462 N459 1.351 . S
C462 C461 1.430 1_565 S
C463 H452 0.930 . S
C463 C461 1.404 . S
C463 C464 1.366 . S
C464 H443 0.930 . S
C464 C460 1.416 1_545 S
C464 C463 1.366 . S
H465 C458 0.929 . S
H466 C489 0.931 . S
H467 C490 0.931 . S
O468 Eu424 2.462 . S
O468 C488 1.252 . S
O469 Eu424 2.373 . S
O469 C480 1.249 . S
O470 Eu435 2.335 1_455 S
O470 C480 1.264 . S
O471 Eu424 2.432 . S
O471 C488 1.268 . S
O472 Eu424 2.291 1_655 S
O472 C487 1.255 . S
O473 Eu435 2.372 . S
O473 C487 1.257 . S
O474 Eu435 2.462 . S
O474 C499 1.252 . S
O475 Eu435 2.373 . S
O475 C491 1.249 . S
O476 Eu424 2.335 1_655 S
O476 C491 1.264 . S
O477 Eu435 2.432 . S
O477 C499 1.268 . S
O478 Eu435 2.291 1_455 S
O478 C498 1.255 . S
O479 Eu424 2.372 . S
O479 C498 1.257 . S
C480 O469 1.249 . S
C480 O470 1.264 . S
C481 C484 1.382 . S
C481 C486 1.390 . S
C481 C488 1.506 . S
C482 C483 1.398 . S
C482 C486 1.392 . S
C483 C482 1.398 . S
C483 C485 1.372 . S
C483 H500 0.931 . S
C484 C481 1.382 . S
C484 C485 1.390 . S
C484 H501 0.931 . S
C485 C483 1.372 . S
C485 C484 1.390 . S
C485 H502 0.929 . S
C486 C481 1.390 . S
C486 C482 1.392 . S
C486 H503 0.930 . S
C487 O472 1.255 . S
C487 O473 1.257 . S
C488 Eu424 2.787 . S
C488 O468 1.252 . S
C488 O471 1.268 . S
C488 C481 1.506 . S
C489 C456 1.439 . S
C489 H466 0.931 . S
C489 C490 1.374 1_565 S
C490 C461 1.387 . S
C490 H467 0.931 . S
C490 C489 1.374 1_545 S
C491 O475 1.249 . S
C491 O476 1.264 . S
C492 C495 1.382 . S
C492 C496 1.390 . S
C492 C499 1.506 . S
C493 C494 1.398 . S
C493 C496 1.392 . S
C494 C493 1.398 . S
C494 C497 1.372 . S
C494 H504 0.931 1_556 S
C495 C492 1.382 . S
C495 C497 1.390 . S
C495 H505 0.931 . S
C496 C492 1.390 . S
C496 C493 1.392 . S
C496 H506 0.930 . S
C497 C494 1.372 . S
C497 C495 1.390 . S
C497 H507 0.929 . S
C498 O478 1.255 . S
C498 O479 1.257 . S
C499 Eu435 2.787 . S
C499 O474 1.252 . S
C499 O477 1.268 . S
C499 C492 1.506 . S
H500 C483 0.931 . S
H501 C484 0.931 . S
H502 C485 0.929 . S
H503 C486 0.930 . S
H504 C494 0.931 1_554 S
H505 C495 0.931 . S
H506 C496 0.930 . S
H507 C497 0.929 . S
Eu508 N537 2.600 . S
Eu508 N543 2.562 . S
Eu508 O552 2.462 . S
Eu508 O553 2.373 . S
Eu508 O555 2.432 . S
Eu508 O556 2.291 . S
Eu508 O560 2.335 . S
Eu508 O563 2.372 . S
Eu508 C572 2.787 . S
C509 N510 1.365 . S
C509 C512 1.405 . S
C509 C516 1.448 . S
N510 C509 1.365 . S
N510 C513 1.319 . S
N510 Eu519 2.600 . S
C511 C513 1.397 . S
C511 C514 1.367 . S
C511 H531 0.931 . S
C512 C509 1.405 . S
C512 C514 1.403 . S
C512 C518 1.439 . S
C513 N510 1.319 . S
C513 C511 1.397 . S
C513 H524 0.930 . S
C514 C511 1.367 . S
C514 C512 1.403 . S
C514 H535 0.929 1_655 S
C515 C516 1.430 . S
C515 C517 1.387 . S
C515 C521 1.404 . S
C516 C509 1.448 . S
C516 C515 1.430 . S
C516 N520 1.351 . S
C517 C515 1.387 . S
C517 C518 1.374 . S
C517 H532 0.931 . S
C518 C512 1.439 . S
C518 C517 1.374 . S
C518 H533 0.931 1_655 S
Eu519 N510 2.600 . S
Eu519 N520 2.562 . S
Eu519 O554 2.335 . S
Eu519 O557 2.372 . S
Eu519 O558 2.462 . S
Eu519 O559 2.373 . S
Eu519 O561 2.432 . S
Eu519 O562 2.291 . S
Eu519 C583 2.787 . S
N520 C516 1.351 . S
N520 Eu519 2.562 . S
N520 C522 1.325 . S
C521 C515 1.404 . S
C521 C523 1.366 . S
C521 H529 0.930 . S
C522 N520 1.325 . S
C522 C523 1.416 . S
C522 H528 0.929 . S
C523 C521 1.366 . S
C523 C522 1.416 . S
C523 H525 0.930 . S
H524 C513 0.930 . S
H525 C523 0.930 . S
H526 C541 0.930 . S
H527 C548 0.930 . S
H528 C522 0.929 . S
H529 C521 0.930 . S
H530 C544 0.929 . S
H531 C511 0.931 . S
H532 C517 0.931 . S
H533 C518 0.931 1_455 S
H534 C539 0.931 . S
H535 C514 0.929 1_455 S
H536 C547 0.930 . S
N537 Eu508 2.600 . S
N537 C538 1.365 . S
N537 C541 1.319 . S
C538 N537 1.365 . S
C538 C540 1.405 . S
C538 C546 1.448 . S
C539 H534 0.931 . S
C539 C541 1.397 . S
C539 C542 1.367 . S
C540 C538 1.405 . S
C540 C542 1.403 . S
C540 C573 1.439 . S
C541 H526 0.930 . S
C541 N537 1.319 . S
C541 C539 1.397 . S
C542 C539 1.367 . S
C542 C540 1.403 . S
C542 H549 0.929 1_455 S
N543 Eu508 2.562 . S
N543 C544 1.325 . S
N543 C546 1.351 . S
C544 H530 0.929 . S
C544 N543 1.325 . S
C544 C548 1.416 . S
C545 C546 1.430 . S
C545 C547 1.404 . S
C545 C574 1.387 . S
C546 C538 1.448 . S
C546 N543 1.351 . S
C546 C545 1.430 . S
C547 H536 0.930 . S
C547 C545 1.404 . S
C547 C548 1.366 . S
C548 H527 0.930 . S
C548 C544 1.416 . S
C548 C547 1.366 . S
H549 C542 0.929 1_655 S
H550 C573 0.931 1_655 S
H551 C574 0.931 . S
O552 Eu508 2.462 . S
O552 C572 1.252 . S
O553 Eu508 2.373 . S
O553 C564 1.249 . S
O554 Eu519 2.335 . S
O554 C564 1.264 . S
O555 Eu508 2.432 . S
O555 C572 1.268 . S
O556 Eu508 2.291 . S
O556 C571 1.255 . S
O557 Eu519 2.372 . S
O557 C571 1.257 . S
O558 Eu519 2.462 . S
O558 C583 1.252 . S
O559 Eu519 2.373 . S
O559 C575 1.249 . S
O560 Eu508 2.335 . S
O560 C575 1.264 . S
O561 Eu519 2.432 . S
O561 C583 1.268 . S
O562 Eu519 2.291 . S
O562 C582 1.255 . S
O563 Eu508 2.372 . S
O563 C582 1.257 . S
C564 O553 1.249 . S
C564 O554 1.264 . S
C565 C568 1.382 . S
C565 C570 1.390 . S
C565 C572 1.506 . S
C566 C567 1.398 . S
C566 C570 1.392 . S
C567 C566 1.398 . S
C567 C569 1.372 . S
C567 H584 0.931 1_554 S
C568 C565 1.382 . S
C568 C569 1.390 . S
C568 H585 0.931 . S
C569 C567 1.372 . S
C569 C568 1.390 . S
C569 H586 0.929 . S
C570 C565 1.390 . S
C570 C566 1.392 . S
C570 H587 0.930 . S
C571 O556 1.255 . S
C571 O557 1.257 . S
C572 Eu508 2.787 . S
C572 O552 1.252 . S
C572 O555 1.268 . S
C572 C565 1.506 . S
C573 C540 1.439 . S
C573 H550 0.931 1_455 S
C573 C574 1.374 . S
C574 C545 1.387 . S
C574 H551 0.931 . S
C574 C573 1.374 . S
C575 O559 1.249 . S
C575 O560 1.264 . S
C576 C579 1.382 . S
C576 C580 1.390 . S
C576 C583 1.506 . S
C577 C578 1.398 . S
C577 C580 1.392 . S
C578 C577 1.398 . S
C578 C581 1.372 . S
C578 H588 0.931 . S
C579 C576 1.382 . S
C579 C581 1.390 . S
C579 H589 0.931 . S
C580 C576 1.390 . S
C580 C577 1.392 . S
C580 H590 0.930 . S
C581 C578 1.372 . S
C581 C579 1.390 . S
C581 H591 0.929 . S
C582 O562 1.255 . S
C582 O563 1.257 . S
C583 Eu519 2.787 . S
C583 O558 1.252 . S
C583 O561 1.268 . S
C583 C576 1.506 . S
H584 C567 0.931 1_556 S
H585 C568 0.931 . S
H586 C569 0.929 . S
H587 C570 0.930 . S
H588 C578 0.931 . S
H589 C579 0.931 . S
H590 C580 0.930 . S
H591 C581 0.929 . S
C221 C330 1.505 . S
C414 C241 1.406 . S
C407 C157 1.492 . S
C177 C323 1.403 . S
C487 C93 1.394 . S
C571 C113 1.556 . S
C29 C564 1.401 . S
C49 C480 1.539 . S
C314 C61 1.187 1_554 S
C398 C17 1.252 . S
C409 C125 1.464 1_556 S
C325 C81 1.395 . S
C493 C189 1.209 1_556 S
C145 C577 1.186 . S
C566 C253 1.360 1_554 S
C209 C482 1.439 . S
C312 C23 1.484 . S
C396 C55 1.706 . S
C87 C403 1.524 . S
C319 C119 1.675 . S
C491 C151 1.680 . S
C183 C575 1.489 . S
C215 C582 1.662 . S
C247 C498 1.517 . S
