# Generated by pormake.
# Topology zzz, (3,6)-cn, num edge types: 1
# Building blocks:
#     Node 0, Type 0, BuildingBlock: BETDIP_clean_linker_0, # of connection points: 3
#     Node 1, Type 0, BuildingBlock: BETDIP_clean_linker_0, # of connection points: 3
#     Node 2, Type 0, BuildingBlock: BETDIP_clean_linker_0, # of connection points: 3
#     Node 3, Type 0, BuildingBlock: BETDIP_clean_linker_0, # of connection points: 3
#     Node 4, Type 0, BuildingBlock: BETDIP_clean_linker_0, # of connection points: 3
#     Node 5, Type 0, BuildingBlock: BETDIP_clean_linker_0, # of connection points: 3
#     Node 6, Type 0, BuildingBlock: BETDIP_clean_linker_0, # of connection points: 3
#     Node 7, Type 0, BuildingBlock: BETDIP_clean_linker_0, # of connection points: 3
#     Node 8, Type 1, BuildingBlock: HISSIN_clean_sbu_0, # of connection points: 6
#     Node 9, Type 1, BuildingBlock: HISSIN_clean_sbu_0, # of connection points: 6
#     Node 10, Type 1, BuildingBlock: HISSIN_clean_sbu_0, # of connection points: 6
#     Node 11, Type 1, BuildingBlock: HISSIN_clean_sbu_0, # of connection points: 6
#     Edge 12, Type (0, 1), BuildingBlock: UVAHIK_clean_linker_0, # of connection points: 2
#     Edge 13, Type (0, 1), BuildingBlock: UVAHIK_clean_linker_0, # of connection points: 2
#     Edge 14, Type (0, 1), BuildingBlock: UVAHIK_clean_linker_0, # of connection points: 2
#     Edge 15, Type (0, 1), BuildingBlock: UVAHIK_clean_linker_0, # of connection points: 2
#     Edge 16, Type (0, 1), BuildingBlock: UVAHIK_clean_linker_0, # of connection points: 2
#     Edge 17, Type (0, 1), BuildingBlock: UVAHIK_clean_linker_0, # of connection points: 2
#     Edge 18, Type (0, 1), BuildingBlock: UVAHIK_clean_linker_0, # of connection points: 2
#     Edge 19, Type (0, 1), BuildingBlock: UVAHIK_clean_linker_0, # of connection points: 2
#     Edge 20, Type (0, 1), BuildingBlock: UVAHIK_clean_linker_0, # of connection points: 2
#     Edge 21, Type (0, 1), BuildingBlock: UVAHIK_clean_linker_0, # of connection points: 2
#     Edge 22, Type (0, 1), BuildingBlock: UVAHIK_clean_linker_0, # of connection points: 2
#     Edge 23, Type (0, 1), BuildingBlock: UVAHIK_clean_linker_0, # of connection points: 2
#     Edge 24, Type (0, 1), BuildingBlock: UVAHIK_clean_linker_0, # of connection points: 2
#     Edge 25, Type (0, 1), BuildingBlock: UVAHIK_clean_linker_0, # of connection points: 2
#     Edge 26, Type (0, 1), BuildingBlock: UVAHIK_clean_linker_0, # of connection points: 2
#     Edge 27, Type (0, 1), BuildingBlock: UVAHIK_clean_linker_0, # of connection points: 2
#     Edge 28, Type (0, 1), BuildingBlock: UVAHIK_clean_linker_0, # of connection points: 2
#     Edge 29, Type (0, 1), BuildingBlock: UVAHIK_clean_linker_0, # of connection points: 2
#     Edge 30, Type (0, 1), BuildingBlock: UVAHIK_clean_linker_0, # of connection points: 2
#     Edge 31, Type (0, 1), BuildingBlock: UVAHIK_clean_linker_0, # of connection points: 2
#     Edge 32, Type (0, 1), BuildingBlock: UVAHIK_clean_linker_0, # of connection points: 2
#     Edge 33, Type (0, 1), BuildingBlock: UVAHIK_clean_linker_0, # of connection points: 2
#     Edge 34, Type (0, 1), BuildingBlock: UVAHIK_clean_linker_0, # of connection points: 2
#     Edge 35, Type (0, 1), BuildingBlock: UVAHIK_clean_linker_0, # of connection points: 2
# Relax obj value: 0.221
# Max RMSD: 0.171
# Mean RMSD: 0.092
data_MOF--net-zzz--node1-HISSIN_clean_sbu_0--node2-BETDIP_clean_linker_0--edge1-UVAHIK_clean_linker_0
_symmetry_space_group_name_H-M    P1
_symmetry_Int_Tables_number       1
_symmetry_cell_setting            triclinic
loop_
_symmetry_equiv_pos_as_xyz
'x, y, z'
_cell_length_a     64.438221
_cell_length_b     64.61507
_cell_length_c     20.738662
_cell_angle_alpha  90.235629
_cell_angle_beta   91.524141
_cell_angle_gamma 90.862489
loop_
_atom_site_label
_atom_site_type_symbol
_atom_site_fract_x
_atom_site_fract_y
_atom_site_fract_z
_atom_type_partial_charge
H0 H 0.76042 0.55694 0.36608 0.0
H1 H 0.75421 0.53985 0.1652 0.0
H2 H 0.81277 0.53321 0.26597 0.0
H3 H 0.73863 0.58023 0.19301 0.0
C4 C 0.72729 0.56936 0.21193 0.0
C5 C 0.76705 0.55077 0.3227 0.0
C6 C 0.78814 0.54523 0.32259 0.0
C7 C 0.75484 0.54916 0.2653 0.0
C8 C 0.7636 0.54123 0.20921 0.0
C9 C 0.78443 0.53548 0.20921 0.0
C10 C 0.79658 0.53761 0.26585 0.0
N11 N 0.73397 0.55602 0.26258 0.0
H12 H 0.99991 0.7596 0.36098 0.0
H13 H 0.99854 0.74977 0.15507 0.0
H14 H 0.99941 0.81159 0.23166 0.0
H15 H 0.96815 0.72448 0.22131 0.0
C16 C 0.98341 0.71791 0.23005 0.0
C17 C 0.9997 0.76574 0.31246 0.0
C18 C 0.99936 0.78743 0.30257 0.0
C19 C 0.9989 0.75205 0.25874 0.0
C20 C 0.99872 0.76019 0.19619 0.0
C21 C 0.99897 0.78155 0.18615 0.0
C22 C 0.99905 0.79499 0.23935 0.0
N23 N 0.99829 0.73012 0.26624 0.0
H24 H 0.7858 0.02015 0.302 0.0
H25 H 0.78883 0.97633 0.14479 0.0
H26 H 0.73557 0.97676 0.26391 0.0
H27 H 0.82399 0.97606 0.19182 0.0
C28 C 0.82582 0.9925 0.18195 0.0
C29 C 0.77917 1.00727 0.27453 0.0
C30 C 0.75945 0.99893 0.29051 0.0
C31 C 0.79043 0.99845 0.22343 0.0
C32 C 0.7811 0.98231 0.18658 0.0
C33 C 0.76144 0.97442 0.20105 0.0
C34 C 0.75109 0.98243 0.25386 0.0
N35 N 0.81061 1.00614 0.20686 0.0
H36 H 0.53502 0.77992 0.284 0.0
H37 H 0.49523 0.78889 0.11664 0.0
H38 H 0.48354 0.73812 0.24366 0.0
H39 H 0.53452 0.7918 0.08241 0.0
C40 C 0.5345 0.80566 0.11241 0.0
C41 C 0.52154 0.77532 0.25476 0.0
C42 C 0.50943 0.75789 0.27221 0.0
C43 C 0.51654 0.78642 0.1981 0.0
C44 C 0.49919 0.78028 0.15985 0.0
C45 C 0.48701 0.76309 0.17659 0.0
C46 C 0.49225 0.75209 0.23267 0.0
N47 N 0.52912 0.80347 0.1783 0.0
H48 H 0.29651 0.50558 0.95172 0.0
H49 H 0.30858 0.52718 0.14659 0.0
H50 H 0.2461 0.51433 0.08092 0.0
H51 H 0.33368 0.54885 0.05911 0.0
C52 C 0.33969 0.53325 0.06283 0.0
C53 C 0.29093 0.50987 0.99867 0.0
C54 C 0.26946 0.50912 0.0105 0.0
C55 C 0.30516 0.51646 0.04785 0.0
C56 C 0.29777 0.52229 0.10836 0.0
C57 C 0.27659 0.52115 0.12063 0.0
C58 C 0.26261 0.51457 0.07175 0.0
N59 N 0.3269 0.51683 0.03751 0.0
H60 H 0.03388 0.29364 0.96487 0.0
H61 H 0.05965 0.29771 0.15871 0.0
H62 H 0.0699 0.24374 0.04387 0.0
H63 H 0.01627 0.30841 0.1479 0.0
C64 C 0.02487 0.32145 0.12826 0.0
C65 C 0.04327 0.28716 1.00366 0.0
C66 C 0.05219 0.2674 0.99622 0.0
C67 C 0.04608 0.29822 0.06256 0.0
C68 C 0.05778 0.28945 0.11327 0.0
C69 C 0.06673 0.27003 0.10629 0.0
C70 C 0.06398 0.25931 0.04778 0.0
N71 N 0.03684 0.31786 0.07248 0.0
H72 H 0.26683 0.04917 0.98459 0.0
H73 H 0.25149 0.04961 0.18514 0.0
H74 H 0.31526 0.04614 0.13176 0.0
H75 H 0.22901 0.01661 0.09433 0.0
C76 C 0.22261 0.03208 0.09575 0.0
C77 C 0.27176 0.04929 0.03492 0.0
C78 C 0.29319 0.04797 0.05211 0.0
C79 C 0.25667 0.04934 0.08359 0.0
C80 C 0.26312 0.04915 0.14838 0.0
C81 C 0.28411 0.04803 0.16626 0.0
C82 C 0.29899 0.04752 0.11802 0.0
N83 N 0.23491 0.04838 0.06916 0.0
H84 H 0.51263 0.26885 1.0069 0.0
H85 H 0.54937 0.25711 0.1791 0.0
H86 H 0.55216 0.31683 0.08946 0.0
H87 H 0.55252 0.22503 0.10133 0.0
C88 C 0.53622 0.22324 0.11284 0.0
C89 C 0.52371 0.27412 0.04383 0.0
C90 C 0.53219 0.29438 0.04145 0.0
C91 C 0.53035 0.26041 0.09277 0.0
C92 C 0.54461 0.26746 0.14068 0.0
C93 C 0.55247 0.28778 0.14027 0.0
C94 C 0.54639 0.30098 0.08994 0.0
N95 N 0.52268 0.23961 0.09496 0.0
Eu96 Eu 1.00484 0.03687 0.57734 0.0
Eu97 Eu 0.039 0.02395 0.68872 0.0
C98 C 0.02785 0.07248 0.67119 0.0
C99 C 0.98994 0.0631 0.428 0.0
C100 C 1.00953 0.05993 0.40182 0.0
C101 C 0.99064 0.09824 0.38733 0.0
C102 C 0.02019 0.07615 0.37285 0.0
C103 C 0.98011 0.08204 0.41755 0.0
C104 C 1.0113 0.09583 0.36822 0.0
C105 C 0.9826 0.04912 0.47875 0.0
O106 O 1.00774 0.0196 0.73639 0.0
O107 O 0.98419 0.03282 0.6625 0.0
C108 C 0.98873 0.02515 0.71968 0.0
O109 O 0.99966 1.0024 0.58865 0.0
O110 O 0.05064 0.02239 0.78838 0.0
O111 O 0.0666 1.00616 0.71341 0.0
O112 O 0.03229 0.99542 0.62669 0.0
C113 C 1.01457 0.98919 0.59994 0.0
O114 O 0.03588 0.0339 0.52807 0.0
O115 O 0.05883 0.03869 0.61283 0.0
O116 O 0.03809 0.05844 0.70424 0.0
O117 O 0.99115 0.03095 0.48141 0.0
O118 O 0.98178 0.0577 0.53563 0.0
O119 O 0.01563 0.06767 0.62122 0.0
C120 C 0.06059 0.9881 0.80802 0.0
C121 C 0.04023 0.98118 0.81846 0.0
C122 C 0.07325 0.95418 0.83797 0.0
C123 C 0.03634 0.96092 0.83723 0.0
C124 C 0.07714 0.97459 0.81873 0.0
C125 C 0.05273 0.94706 0.84627 0.0
C126 C 0.0638 1.00791 0.77517 0.0
C127 C 0.05484 0.03781 0.55049 0.0
H128 H 0.01743 0.04543 0.40863 0.0
H129 H 0.98302 0.11299 0.38246 0.0
H130 H 0.03602 0.07355 0.35899 0.0
H131 H 0.96499 0.08484 0.4372 0.0
H132 H 0.02712 0.99112 0.80907 0.0
H133 H 0.08621 0.94389 0.84513 0.0
H134 H 0.02033 0.95591 0.84175 0.0
H135 H 0.09293 0.97957 0.80975 0.0
Eu136 Eu 0.53736 0.04391 0.72537 0.0
Eu137 Eu 0.51788 0.01446 0.61318 0.0
C138 C 0.53594 0.99463 0.74128 0.0
C139 C 0.57372 0.05281 0.85912 0.0
C140 C 0.57033 0.04573 0.92203 0.0
C141 C 0.60464 0.03179 0.85545 0.0
C142 C 0.58352 0.03114 0.9503 0.0
C143 C 0.59159 0.04641 0.82745 0.0
C144 C 0.60023 0.02339 0.91591 0.0
C145 C 0.55652 0.06222 0.82156 0.0
O146 O 0.4924 0.01949 0.68501 0.0
O147 O 0.50288 0.05053 0.72847 0.0
C148 C 0.48827 0.03641 0.71743 0.0
O149 O 0.53436 0.06522 0.64003 0.0
O150 O 0.50313 0.98467 0.59021 0.0
O151 O 0.50718 1.00727 0.51464 0.0
O152 O 0.50964 0.04688 0.58133 0.0
C153 C 0.52076 0.06385 0.59183 0.0
O154 O 0.565 0.02902 0.67786 0.0
O155 O 0.5504 0.02081 0.57903 0.0
O156 O 0.53642 0.99334 0.67832 0.0
O157 O 0.56023 0.06672 0.7616 0.0
O158 O 0.5386 0.05284 0.82709 0.0
O159 O 0.5319 1.01234 0.76876 0.0
C160 C 0.47454 0.9909 0.52359 0.0
C161 C 0.46406 1.00934 0.53567 0.0
C162 C 0.44149 0.97238 0.51859 0.0
C163 C 0.44257 1.00932 0.53958 0.0
C164 C 0.46315 0.97241 0.51476 0.0
C165 C 0.43105 0.99082 0.53206 0.0
C166 C 0.49715 0.99066 0.5329 0.0
C167 C 0.56692 0.02431 0.61639 0.0
H168 H 0.55662 0.0503 0.94734 0.0
H169 H 0.61777 0.02647 0.82869 0.0
H170 H 0.5799 0.025 0.99729 0.0
H171 H 0.5948 0.05155 0.77904 0.0
H172 H 0.47254 0.02374 0.54431 0.0
H173 H 0.43296 0.9579 0.51253 0.0
H174 H 0.43499 0.02387 0.54851 0.0
H175 H 0.47103 0.95794 0.50716 0.0
Eu176 Eu 0.50727 0.53576 0.71916 0.0
Eu177 Eu 0.54305 0.5219 0.62068 0.0
C178 C 0.55447 0.5362 0.76366 0.0
C179 C 0.46619 0.56726 0.80071 0.0
C180 C 0.47546 0.58674 0.79104 0.0
C181 C 0.43398 0.58407 0.82679 0.0
C182 C 0.46435 0.60472 0.80143 0.0
C183 C 0.44526 0.56602 0.81724 0.0
C184 C 0.44354 0.60369 0.82063 0.0
C185 C 0.47841 0.54831 0.79541 0.0
O186 O 0.53848 0.49421 0.68519 0.0
O187 O 0.50561 0.50072 0.71894 0.0
C188 C 0.52121 0.48805 0.71205 0.0
O189 O 0.49333 0.53762 0.61868 0.0
O190 O 0.576 0.51796 0.60425 0.0
O191 O 0.55362 0.51065 0.5277 0.0
O192 O 0.51229 0.51218 0.57337 0.0
C193 C 0.49582 0.52392 0.57282 0.0
O194 O 0.5208 0.56597 0.68156 0.0
O195 O 0.53473 0.55399 0.58789 0.0
O196 O 0.55823 0.54 0.70303 0.0
O197 O 0.47455 0.53673 0.74471 0.0
O198 O 0.49827 0.55027 0.80866 0.0
O199 O 0.5361 0.5293 0.77961 0.0
C200 C 0.58287 0.48938 0.53733 0.0
C201 C 0.58796 0.47636 0.58933 0.0
C202 C 0.59383 0.46289 0.46304 0.0
C203 C 0.5958 0.45667 0.57817 0.0
C204 C 0.58622 0.48265 0.47429 0.0
C205 C 0.59841 0.44951 0.5148 0.0
C206 C 0.5729 0.5094 0.54778 0.0
C207 C 0.5283 0.56929 0.62389 0.0
H208 H 0.49154 0.58811 0.77744 0.0
H209 H 0.41791 0.58262 0.84033 0.0
H210 H 0.47249 0.61941 0.79724 0.0
H211 H 0.43776 0.5511 0.82405 0.0
H212 H 0.58543 0.48117 0.63857 0.0
H213 H 0.59521 0.45782 0.41354 0.0
H214 H 0.59937 0.44691 0.61917 0.0
H215 H 0.58228 0.49243 0.43357 0.0
Eu216 Eu 0.03321 0.54002 0.63061 0.0
Eu217 Eu 0.01823 0.50348 0.72796 0.0
C218 C 0.06654 0.51542 0.72052 0.0
C219 C 0.06937 0.5665 0.52212 0.0
C220 C 0.08078 0.54825 0.52628 0.0
C221 C 0.09867 0.58369 0.47289 0.0
C222 C 0.10103 0.54775 0.50504 0.0
C223 C 0.07833 0.58423 0.49515 0.0
C224 C 0.11029 0.56544 0.47807 0.0
C225 C 0.04911 0.56713 0.55237 0.0
O226 O 1.01008 0.53304 0.78046 0.0
O227 O 0.03083 0.55607 0.72707 0.0
C228 C 0.01909 0.55137 0.77591 0.0
O229 O 0.99857 0.54428 0.63393 0.0
O230 O 1.01015 0.4909 0.82199 0.0
O231 O 1.00826 0.47132 0.73723 0.0
O232 O 0.99011 0.51132 0.66573 0.0
C233 C 0.98479 0.52934 0.64168 0.0
O234 O 0.02647 0.51151 0.5689 0.0
O235 O 0.03438 0.48779 0.6459 0.0
O236 O 0.05159 0.50949 0.75849 0.0
O237 O 0.03578 0.55281 0.53369 0.0
O238 O 0.05016 0.56894 0.61489 0.0
O239 O 0.06246 0.52373 0.66391 0.0
C240 C 0.98163 0.46765 0.81263 0.0
C241 C 0.97536 0.46823 0.87679 0.0
C242 C 0.94583 0.46082 0.7777 0.0
C243 C 0.95441 0.46584 0.89116 0.0
C244 C 0.96673 0.46338 0.7633 0.0
C245 C 0.93933 0.46266 0.84156 0.0
C246 C 1.00315 0.47348 0.79722 0.0
C247 C 0.03143 0.49256 0.58497 0.0
H248 H 0.07417 0.53445 0.54755 0.0
H249 H 0.10527 0.59752 0.45181 0.0
H250 H 0.10959 0.53357 0.51129 0.0
H251 H 0.06977 0.59851 0.49227 0.0
H252 H 0.98654 0.47152 0.91557 0.0
H253 H 0.93467 0.45807 0.73851 0.0
H254 H 0.94996 0.46762 0.94083 0.0
H255 H 0.97104 0.46277 0.71321 0.0
C256 C 0.19609 0.05481 0.15072 0.0
C257 C 0.20502 0.03538 0.14023 0.0
C258 C 0.17996 0.05699 0.19497 0.0
C259 C 0.1574 0.0313 0.33844 0.0
H260 H 0.10803 0.06278 0.29847 0.0
C261 C 0.093 0.04259 0.52651 0.0
C262 C 0.07225 0.04021 0.50421 0.0
C263 C 0.10937 0.0438 0.48307 0.0
C264 C 0.1217 0.05388 0.31046 0.0
H265 H 0.20388 1.0031 0.16772 0.0
H266 H 0.17621 1.00686 0.2443 0.0
H267 H 0.13608 0.06158 0.22103 0.0
H268 H 0.05279 0.03746 0.41762 0.0
H269 H 0.08112 0.03984 0.34237 0.0
H270 H 0.14305 0.02332 0.42723 0.0
C271 C 0.18157 0.02049 0.21906 0.0
C272 C 0.1379 0.05337 0.2662 0.0
C273 C 0.1974 0.0183 0.17465 0.0
C274 C 0.06842 0.03947 0.437 0.0
C275 C 0.08477 0.04089 0.39357 0.0
C276 C 0.14135 0.03199 0.38286 0.0
C277 C 0.17264 0.03985 0.23035 0.0
C278 C 0.15588 0.04181 0.27912 0.0
C279 C 0.10554 0.04285 0.41585 0.0
C280 C 0.12312 0.04309 0.36938 0.0
H281 H 0.2016 0.0683 0.12512 0.0
H282 H 0.17351 0.07216 0.20248 0.0
H283 H 0.17106 0.0224 0.3506 0.0
H284 H 0.09668 0.04324 0.57773 0.0
H285 H 0.12509 0.04552 0.50229 0.0
C286 C 0.51031 0.2017 0.175 0.0
C287 C 0.5309 0.2074 0.16167 0.0
C288 C 0.50618 0.18674 0.22233 0.0
C289 C 0.52667 0.16607 0.37245 0.0
H290 H 0.50074 0.11308 0.32989 0.0
C291 C 0.53437 0.09695 0.5451 0.0
C292 C 0.51876 0.08155 0.54644 0.0
C293 C 0.53342 0.11296 0.49998 0.0
C294 C 0.50761 0.12792 0.34331 0.0
H295 H 0.56318 0.20208 0.18732 0.0
H296 H 0.55595 0.1767 0.27095 0.0
H297 H 0.50266 0.14006 0.24774 0.0
H298 H 0.48957 0.07125 0.5019 0.0
H299 H 0.48743 0.09967 0.4248 0.0
H300 H 0.5314 0.15447 0.46786 0.0
C301 C 0.54305 0.18351 0.24451 0.0
C302 C 0.50875 0.14334 0.29594 0.0
C303 C 0.54716 0.19798 0.1965 0.0
C304 C 0.50191 0.08283 0.50213 0.0
C305 C 0.50079 0.09909 0.45747 0.0
C306 C 0.52519 0.15088 0.42006 0.0
C307 C 0.52256 0.17771 0.25799 0.0
C308 C 0.51872 0.16237 0.30973 0.0
C309 C 0.51664 0.11435 0.4553 0.0
C310 C 0.51616 0.13131 0.40593 0.0
H311 H 0.49748 0.20868 0.14875 0.0
H312 H 0.49023 0.1825 0.23192 0.0
H313 H 0.5343 0.18069 0.38443 0.0
H314 H 0.54772 0.09636 0.57785 0.0
H315 H 0.54626 0.12395 0.4993 0.0
C316 C 0.36568 0.51019 0.12029 0.0
C317 C 0.3568 0.52973 0.11074 0.0
C318 C 0.38112 0.50741 0.1686 0.0
C319 C 0.39855 0.5286 0.32473 0.0
H320 H 0.4525 0.50549 0.29283 0.0
C321 C 0.46543 0.53823 0.51102 0.0
C322 C 0.48012 0.52252 0.519 0.0
C323 C 0.45053 0.53731 0.46088 0.0
C324 C 0.4374 0.51165 0.30302 0.0
H325 H 0.35725 0.56162 0.14336 0.0
H326 H 0.38368 0.55668 0.22805 0.0
H327 H 0.42619 0.50661 0.20546 0.0
H328 H 0.49063 0.49346 0.47997 0.0
H329 H 0.46415 0.49149 0.39317 0.0
H330 H 0.40926 0.53339 0.42199 0.0
C331 C 0.37885 0.54355 0.19835 0.0
C332 C 0.42236 0.51233 0.25279 0.0
C333 C 0.36379 0.54639 0.14965 0.0
C334 C 0.47955 0.50583 0.47517 0.0
C335 C 0.46441 0.50478 0.42515 0.0
C336 C 0.41339 0.52766 0.37498 0.0
C337 C 0.38758 0.52402 0.20881 0.0
C338 C 0.40295 0.52125 0.26285 0.0
C339 C 0.4496 0.52049 0.41746 0.0
C340 C 0.43325 0.51965 0.36465 0.0
H341 H 0.36061 0.49708 0.09093 0.0
H342 H 0.38758 0.49218 0.1757 0.0
H343 H 0.38359 0.53525 0.3342 0.0
H344 H 0.46553 0.55148 0.54321 0.0
H345 H 0.43988 0.55003 0.45584 0.0
C346 C 1.01163 0.34333 0.21676 0.0
C347 C 0.02555 0.34111 0.16634 0.0
C348 C 1.01284 0.36049 0.25814 0.0
C349 C 0.03568 0.41371 0.28012 0.0
H350 H 0.0238 0.4029 0.45921 0.0
C351 C 0.02665 0.47987 0.46988 0.0
C352 C 0.03288 0.47613 0.53433 0.0
C353 C 0.0269 0.46401 0.42328 0.0
C354 C 0.02743 0.40629 0.40966 0.0
H355 H 0.05158 0.3555 0.11907 0.0
H356 H 0.054 0.38551 0.19215 0.0
H357 H 0.02243 0.3747 0.38178 0.0
H358 H 0.04496 0.45276 0.59933 0.0
H359 H 0.04588 0.42543 0.51845 0.0
H360 H 0.04123 0.44531 0.30885 0.0
C361 C 0.04186 0.37405 0.19917 0.0
C362 C 0.02631 0.39005 0.36468 0.0
C363 C 0.04051 0.35682 0.1572 0.0
C364 C 0.03987 0.45624 0.55043 0.0
C365 C 0.04025 0.44045 0.50386 0.0
C366 C 0.03688 0.43002 0.32536 0.0
C367 C 0.02824 0.37595 0.25107 0.0
C368 C 0.03021 0.39347 0.299 0.0
C369 C 0.03349 0.44395 0.43965 0.0
C370 C 0.0327 0.42659 0.39093 0.0
H371 H 0.99986 0.33154 0.22493 0.0
H372 H 1.00169 0.36152 0.29611 0.0
H373 H 0.0387 0.41708 0.23011 0.0
H374 H 0.02112 0.49496 0.45557 0.0
H375 H 0.02135 0.46738 0.37479 0.0
C376 C 0.8483 0.0191 0.1235 0.0
C377 C 0.84211 0.9985 0.13514 0.0
C378 C 0.86396 0.02355 0.07893 0.0
C379 C 0.88872 1.00176 0.93491 0.0
H380 H 0.93626 0.03703 0.97868 0.0
C381 C 0.95074 0.02428 0.74741 0.0
C382 C 0.97174 0.02282 0.76729 0.0
C383 C 0.93477 0.02239 0.79194 0.0
C384 C 0.92308 0.02712 0.96569 0.0
H385 H 0.84746 0.96657 0.10897 0.0
H386 H 0.87405 0.97428 0.03106 0.0
H387 H 0.90841 0.03246 0.05624 0.0
H388 H 0.9922 0.01838 0.85067 0.0
H389 H 0.96434 0.01539 0.92834 0.0
H390 H 0.90325 0.99635 0.84463 0.0
C391 C 0.86703 0.98703 0.05612 0.0
C392 C 0.90702 0.02467 1.00995 0.0
C393 C 0.8518 0.98261 0.10112 0.0
C394 C 0.97626 0.01954 0.83331 0.0
C395 C 0.96026 0.01798 0.87805 0.0
C396 C 0.90455 1.00449 0.89036 0.0
C397 C 0.87339 1.00752 0.04421 0.0
C398 C 0.88974 1.01172 0.99549 0.0
C399 C 0.93926 0.01929 0.85799 0.0
C400 C 0.9221 0.01701 0.90526 0.0
H401 H 0.84119 0.03169 0.14901 0.0
H402 H 0.86847 0.03952 0.07084 0.0
H403 H 0.87563 0.99175 0.92194 0.0
H404 H 0.94656 0.0268 0.69715 0.0
H405 H 0.91882 0.02362 0.77466 0.0
C406 C 0.5348 0.84495 0.11225 0.0
C407 C 0.53731 0.82598 0.08017 0.0
C408 C 0.53602 0.8637 0.07818 0.0
C409 C 0.53006 0.884 0.91175 0.0
H410 H 0.55795 0.93325 0.98003 0.0
C411 C 0.54144 0.9563 0.75315 0.0
C412 C 0.53853 0.97578 0.78166 0.0
C413 C 0.54249 0.93841 0.79104 0.0
C414 C 0.5499 0.91971 0.96044 0.0
H415 H 0.54362 0.81178 0.98815 0.0
H416 H 0.54592 0.8442 0.92925 0.0
H417 H 0.55723 0.90164 0.04451 0.0
H418 H 0.53509 0.9917 0.87303 0.0
H419 H 0.53661 0.96056 0.93875 0.0
H420 H 0.52247 0.90192 0.82819 0.0
C421 C 0.5427 0.84476 0.98022 0.0
C422 C 0.5495 0.90157 0.99751 0.0
C423 C 0.54154 0.82616 0.01411 0.0
C424 C 0.53727 0.97696 0.84925 0.0
C425 C 0.53828 0.95907 0.88714 0.0
C426 C 0.53039 0.90208 0.87491 0.0
C427 C 0.53965 0.86379 0.0114 0.0
C428 C 0.5397 0.88342 0.97341 0.0
C429 C 0.54061 0.93948 0.85852 0.0
C430 C 0.54041 0.9202 0.89842 0.0
H431 H 0.53146 0.84531 0.16314 0.0
H432 H 0.53351 0.87806 0.10369 0.0
H433 H 0.52199 0.87048 0.89208 0.0
H434 H 0.54261 0.95478 0.70136 0.0
H435 H 0.54472 0.92369 0.76725 0.0
C436 C 0.69257 0.55121 0.191 0.0
C437 C 0.70784 0.56573 0.17326 0.0
C438 C 0.67506 0.54741 0.1505 0.0
C439 C 0.65865 0.55004 0.97984 0.0
H440 H 0.60216 0.55003 0.03948 0.0
C441 C 0.58941 0.55041 0.79891 0.0
C442 C 0.57116 0.53947 0.81371 0.0
C443 C 0.60545 0.55307 0.84513 0.0
C444 C 0.61783 0.54964 0.02202 0.0
H445 H 0.7166 0.58786 0.10032 0.0
H446 H 0.68639 0.58108 0.02977 0.0
H447 H 0.63116 0.55508 0.11686 0.0
H448 H 0.55546 0.52276 0.88912 0.0
H449 H 0.58367 0.52688 0.9693 0.0
H450 H 0.64569 0.54425 0.88556 0.0
C451 C 0.68787 0.57259 0.07456 0.0
C452 C 0.63444 0.5526 0.06649 0.0
C453 C 0.70511 0.57655 0.11517 0.0
C454 C 0.56928 0.53137 0.87617 0.0
C455 C 0.58546 0.53382 0.92233 0.0
C456 C 0.64214 0.54685 0.93565 0.0
C457 C 0.67274 0.55783 0.09127 0.0
C458 C 0.65502 0.55317 0.04564 0.0
C459 C 0.60386 0.54461 0.90736 0.0
C460 C 0.62144 0.54696 0.95574 0.0
H461 H 0.69427 0.54264 0.23553 0.0
H462 H 0.66365 0.53593 0.16457 0.0
H463 H 0.67435 0.55003 0.96244 0.0
H464 H 0.59133 0.55703 0.75151 0.0
H465 H 0.61908 0.56192 0.83196 0.0
C466 C 0.97275 0.68928 0.15493 0.0
C467 C 0.98856 0.69896 0.19263 0.0
C468 C 0.97692 0.67234 0.11533 0.0
C469 C 0.01988 0.64588 0.03295 0.0
H470 H 0.97751 0.60343 1.003 0.0
C471 C 0.02386 0.58769 0.81965 0.0
C472 C 0.01612 0.56736 0.82717 0.0
C473 C 0.02129 0.60278 0.86748 0.0
C474 C 0.98969 0.61495 0.01109 0.0
H475 H 0.02129 0.69818 0.21874 0.0
H476 H 0.02864 0.66821 0.15016 0.0
H477 H 0.97214 0.63045 0.08241 0.0
H478 H 0.99969 0.54713 0.89216 0.0
H479 H 0.99551 0.57325 0.97599 0.0
H480 H 0.03762 0.63009 0.96251 0.0
C481 C 1.01295 0.67394 0.15065 0.0
C482 C 0.98647 0.63072 0.05631 0.0
C483 C 1.00873 0.69103 0.19048 0.0
C484 C 1.00576 0.56259 0.88428 0.0
C485 C 1.00328 0.57769 0.93239 0.0
C486 C 0.02315 0.63004 0.98784 0.0
C487 C 0.99708 0.66439 0.11214 0.0
C488 C 1.00136 0.64664 0.06737 0.0
C489 C 1.01098 0.59807 0.92479 0.0
C490 C 1.00799 0.61444 0.9755 0.0
H491 H 0.95707 0.69511 0.15506 0.0
H492 H 0.96431 0.66584 0.08581 0.0
H493 H 0.03171 0.65784 0.03948 0.0
H494 H 0.03184 0.59208 0.77631 0.0
H495 H 0.02711 0.61829 0.85882 0.0
C496 C 0.06463 0.25712 0.21882 0.0
C497 C 0.07598 0.25901 0.16223 0.0
C498 C 0.06842 0.24074 0.26091 0.0
C499 C 0.0786 0.18841 0.22728 0.0
H500 H 0.06466 0.18016 0.40595 0.0
C501 C 0.04052 0.1122 0.30706 0.0
C502 C 0.02435 0.11405 0.3509 0.0
C503 C 0.05389 0.12891 0.2956 0.0
C504 C 0.06849 0.1822 0.35583 0.0
H505 H 0.10256 0.24787 0.11133 0.0
H506 H 0.10902 0.21905 0.18458 0.0
H507 H 0.07858 0.21364 0.37193 0.0
H508 H 1.00992 0.1351 0.41771 0.0
H509 H 0.03195 0.1645 0.39368 0.0
H510 H 0.06675 0.158 0.20906 0.0
C511 C 0.09703 0.22997 0.19589 0.0
C512 C 0.07672 0.20128 0.33671 0.0
C513 C 0.0933 0.2464 0.15396 0.0
C514 C 0.02181 0.13313 0.38239 0.0
C515 C 0.0349 0.14993 0.36992 0.0
C516 C 0.07006 0.16954 0.24605 0.0
C517 C 0.08353 0.22606 0.24661 0.0
C518 C 0.08106 0.2048 0.2717 0.0
C519 C 0.05117 0.14805 0.32655 0.0
C520 C 0.06404 0.16648 0.30997 0.0
H521 H 0.05124 0.26667 0.22661 0.0
H522 H 0.05778 0.23815 0.29975 0.0
H523 H 0.08146 0.19073 0.17655 0.0
H524 H 0.04291 0.09784 0.28146 0.0
H525 H 0.06635 0.12676 0.26233 0.0
C526 C 0.30856 0.05519 0.26004 0.0
C527 C 0.29033 0.04566 0.23518 0.0
C528 C 0.3159 0.05059 0.32211 0.0
C529 C 0.31529 1.00624 0.42874 0.0
H530 H 0.35562 0.04105 0.52099 0.0
C531 C 0.39595 0.98134 0.48663 0.0
C532 C 0.40814 0.99137 0.53458 0.0
C533 C 0.3749 0.98569 0.47959 0.0
C534 C 0.34402 0.03109 0.49758 0.0
H535 H 0.26465 0.02498 0.25794 0.0
H536 H 0.27716 0.01751 0.36679 0.0
H537 H 0.32916 0.05688 0.45274 0.0
H538 H 0.40746 1.01166 0.61807 0.0
H539 H 0.37061 0.01943 0.60535 0.0
H540 H 0.33075 0.98042 0.4713 0.0
C541 C 0.28599 0.02824 0.33788 0.0
C542 C 0.329 0.04019 0.45769 0.0
C543 C 0.27875 0.03267 0.27555 0.0
C544 C 0.39847 1.00412 0.57962 0.0
C545 C 0.37739 1.0085 0.57255 0.0
C546 C 0.33016 0.99715 0.46913 0.0
C547 C 0.30508 0.03646 0.36089 0.0
C548 C 0.31553 0.02778 0.41912 0.0
C549 C 0.36566 1.00016 0.52039 0.0
C550 C 0.34565 1.00941 0.4999 0.0
H551 H 0.31759 0.0656 0.23065 0.0
H552 H 0.33078 0.05709 0.3378 0.0
H553 H 0.30507 0.99614 0.40021 0.0
H554 H 0.40296 0.97149 0.45115 0.0
H555 H 0.36643 0.97913 0.4384 0.0
C556 C 0.58216 0.30983 0.18339 0.0
C557 C 0.5658 0.29579 0.19462 0.0
C558 C 0.59224 0.32017 0.23478 0.0
C559 C 0.57846 0.33899 0.39272 0.0
H560 H 0.63398 0.36295 0.39241 0.0
C561 C 0.59516 0.41159 0.53899 0.0
C562 C 0.60377 0.4276 0.50198 0.0
C563 C 0.59668 0.39099 0.51944 0.0
C564 C 0.61847 0.3563 0.39344 0.0
H565 H 0.54845 0.28025 0.26908 0.0
H566 H 0.56643 0.29786 0.35865 0.0
H567 H 0.62526 0.3334 0.32225 0.0
H568 H 0.62285 0.43424 0.41974 0.0
H569 H 0.62455 0.39852 0.38374 0.0
H570 H 0.5711 0.36247 0.46019 0.0
C571 C 0.57117 0.3012 0.31001 0.0
C572 C 0.61349 0.33938 0.35333 0.0
C573 C 0.56098 0.29097 0.25861 0.0
C574 C 0.61553 0.42235 0.44833 0.0
C575 C 0.61681 0.40176 0.42829 0.0
C576 C 0.5834 0.35586 0.43249 0.0
C577 C 0.58625 0.31658 0.29852 0.0
C578 C 0.59318 0.33109 0.35071 0.0
C579 C 0.60655 0.38595 0.46195 0.0
C580 C 0.6032 0.36527 0.43144 0.0
H581 H 0.58655 0.31353 0.13467 0.0
H582 H 0.60373 0.33199 0.22407 0.0
H583 H 0.56258 0.33324 0.39139 0.0
H584 H 0.58599 0.41497 0.58064 0.0
H585 H 0.58901 0.37912 0.54731 0.0
C586 C 0.25487 0.51379 0.21523 0.0
C587 C 0.26856 0.52718 0.18382 0.0
C588 C 0.24416 0.52063 0.26846 0.0
C589 C 0.22184 0.56805 0.32469 0.0
H590 H 0.20086 0.53102 0.45524 0.0
C591 C 0.14597 0.58138 0.4664 0.0
C592 C 0.13205 0.56458 0.45645 0.0
C593 C 0.16673 0.57983 0.4489 0.0
C594 C 0.20681 0.54168 0.41977 0.0
H595 H 0.28303 0.55764 0.18544 0.0
H596 H 0.26406 0.5698 0.27907 0.0
H597 H 0.23262 0.52246 0.40005 0.0
H598 H 0.12892 0.53337 0.41764 0.0
H599 H 0.16505 0.53055 0.38923 0.0
H600 H 0.19531 0.58669 0.34232 0.0
C601 C 0.26162 0.55402 0.26233 0.0
C602 C 0.22493 0.53679 0.38815 0.0
C603 C 0.27252 0.54707 0.20914 0.0
C604 C 0.13928 0.5464 0.42776 0.0
C605 C 0.15998 0.54476 0.41144 0.0
C606 C 0.20378 0.57304 0.35681 0.0
C607 C 0.24683 0.54106 0.29117 0.0
C608 C 0.23193 0.5493 0.33768 0.0
C609 C 0.17392 0.56136 0.42228 0.0
C610 C 0.19556 0.55929 0.402 0.0
H611 H 0.2517 0.49834 0.19661 0.0
H612 H 0.2327 0.5103 0.28886 0.0
H613 H 0.22677 0.57797 0.28583 0.0
H614 H 0.14096 0.59554 0.48889 0.0
H615 H 0.17724 0.59288 0.45707 0.0
C616 C 0.9882 0.80703 0.10222 0.0
C617 C 1.00031 0.79007 0.12037 0.0
C618 C 0.99217 0.81766 0.04551 0.0
C619 C 0.03734 0.83076 0.95398 0.0
H620 H 0.99743 0.86626 0.86796 0.0
C621 C 0.05861 0.90895 0.83132 0.0
C622 C 0.04799 0.92512 0.86121 0.0
C623 C 0.05274 0.88832 0.84167 0.0
C624 C 1.00875 0.85619 0.89056 0.0
H625 H 0.02477 0.76968 0.09093 0.0
H626 H 0.03166 0.78823 0.99109 0.0
H627 H 0.98541 0.83465 0.92028 0.0
H628 H 0.02352 0.93224 0.92743 0.0
H629 H 1.01307 0.89643 0.94404 0.0
H630 H 0.0605 0.853 0.92718 0.0
C631 C 0.01926 0.79344 0.02114 0.0
C632 C 1.00191 0.83817 0.92061 0.0
C633 C 0.01525 0.78278 0.07804 0.0
C634 C 0.0317 0.92021 0.90244 0.0
C635 C 0.02565 0.89973 0.91181 0.0
C636 C 0.0442 0.84868 0.92328 0.0
C637 C 1.00836 0.81152 1.00576 0.0
C638 C 0.01597 0.82602 0.95624 0.0
C639 C 0.03596 0.88364 0.8811 0.0
C640 C 0.02979 0.86211 0.89487 0.0
H641 H 0.97636 0.81274 0.13359 0.0
H642 H 0.98358 0.83162 0.03563 0.0
H643 H 0.0486 0.82181 0.98116 0.0
H644 H 0.07108 0.91224 0.79873 0.0
H645 H 0.06103 0.87606 0.8182 0.0
C646 C 0.7474 0.96684 0.09079 0.0
C647 C 0.74977 0.96069 0.15528 0.0
C648 C 0.73063 0.95944 0.05319 0.0
C649 C 0.6776 0.94699 0.09314 0.0
H650 H 0.67049 0.95969 0.91167 0.0
C651 C 0.6205 1.00635 1.00486 0.0
C652 C 0.61263 1.00601 0.94125 0.0
C653 C 0.63375 0.99084 0.02662 0.0
C654 C 0.6719 0.95559 0.96214 0.0
H655 H 0.73896 0.93924 0.22741 0.0
H656 H 0.70989 0.92579 0.16107 0.0
H657 H 0.70319 0.94585 0.95143 0.0
H658 H 0.61093 0.98838 0.85201 0.0
H659 H 0.63399 0.96113 0.89018 0.0
H660 H 0.64652 0.95724 0.10412 0.0
C661 C 0.72044 0.93695 0.14021 0.0
C662 C 0.6908 0.94781 0.98508 0.0
C663 C 0.73713 0.94455 0.17813 0.0
C664 C 0.61723 0.98923 0.90093 0.0
C665 C 0.63035 0.97361 0.92282 0.0
C666 C 0.65863 0.95445 0.07005 0.0
C667 C 0.71597 0.94567 0.07944 0.0
C668 C 0.69443 0.94508 0.05164 0.0
C669 C 0.63923 0.97452 0.98539 0.0
C670 C 0.65616 0.96035 1.00528 0.0
H671 H 0.75695 0.97922 0.07178 0.0
H672 H 0.72791 0.96655 1.00661 0.0
H673 H 0.67957 0.94493 0.14469 0.0
H674 H 0.61721 0.01913 0.03682 0.0
H675 H 0.64058 0.99231 0.07473 0.0
C676 C 0.47345 0.75332 0.0661 0.0
C677 C 0.47015 0.75508 0.1326 0.0
C678 C 0.45968 0.74176 0.02666 0.0
C679 C 0.42928 0.69535 0.04488 0.0
H680 H 0.41866 0.70145 0.86119 0.0
C681 C 0.4201 0.62287 0.89452 0.0
C682 C 0.43295 0.62294 0.84071 0.0
C683 C 0.41425 0.64146 0.92293 0.0
C684 C 0.42146 0.69946 0.91247 0.0
H685 H 0.44862 0.74819 0.20845 0.0
H686 H 0.4247 0.72773 0.13961 0.0
H687 H 0.42818 0.73182 0.92673 0.0
H688 H 0.447 0.64271 0.76907 0.0
H689 H 0.4383 0.67486 0.82103 0.0
H690 H 0.42461 0.66303 0.03096 0.0
C691 C 0.43806 0.73509 0.11823 0.0
C692 C 0.42678 0.7169 0.94999 0.0
C693 C 0.4518 0.7467 0.15762 0.0
C694 C 0.43783 0.64203 0.81202 0.0
C695 C 0.43243 0.6606 0.84133 0.0
C696 C 0.42429 0.67795 1.00744 0.0
C697 C 0.44239 0.73169 0.05303 0.0
C698 C 0.4316 0.71484 0.01609 0.0
C699 C 0.42155 0.66054 0.8993 0.0
C700 C 0.42126 0.67959 0.94017 0.0
H701 H 0.48748 0.75949 0.04533 0.0
H702 H 0.46356 0.73928 0.97675 0.0
H703 H 0.43311 0.69317 0.09555 0.0
H704 H 0.41581 0.60856 0.91794 0.0
H705 H 0.40519 0.64078 0.96611 0.0
C706 C 0.81275 0.53592 0.12993 0.0
C707 C 0.79382 0.52752 0.15006 0.0
C708 C 0.82279 0.5273 0.07787 0.0
C709 C 0.82939 0.47797 0.99881 0.0
H710 H 0.86225 0.51169 0.88448 0.0
C711 C 0.90332 0.47473 0.81529 0.0
C712 C 0.91691 0.46357 0.85588 0.0
C713 C 0.88319 0.47891 0.83425 0.0
C714 C 0.85286 0.50188 0.91469 0.0
H715 H 0.77007 0.50408 0.13058 0.0
H716 H 0.78786 0.48872 0.03917 0.0
H717 H 0.83553 0.52768 0.94734 0.0
H718 H 0.91931 0.44636 0.94523 0.0
H719 H 0.88454 0.45432 0.97953 0.0
H720 H 0.84725 0.45226 0.96776 0.0
C721 C 0.79485 0.502 0.06379 0.0
C722 C 0.83768 0.51113 0.95126 0.0
C723 C 0.78466 0.51081 0.1157 0.0
C724 C 0.90937 0.45535 0.91349 0.0
C725 C 0.88929 0.45967 0.93268 0.0
C726 C 0.84458 0.46867 0.96208 0.0
C727 C 0.81416 0.51001 0.04503 0.0
C728 C 0.82646 0.49945 0.99577 0.0
C729 C 0.87626 0.4722 0.89444 0.0
C730 C 0.85709 0.4807 0.92171 0.0
H731 H 0.82001 0.54891 0.15542 0.0
H732 H 0.83779 0.53363 0.06519 0.0
H733 H 0.82097 0.46858 0.0328 0.0
H734 H 0.90859 0.4814 0.77067 0.0
H735 H 0.87341 0.48831 0.80322 0.0
C736 C 0.0652 0.24275 0.91339 0.0
C737 C 0.04845 0.25361 0.93865 0.0
C738 C 0.06189 0.22544 0.87343 0.0
C739 C 0.02066 0.18551 0.83116 0.0
H740 H 0.06367 0.165 0.72147 0.0
C741 C 1.01364 0.10859 0.67992 0.0
C742 C 0.02981 0.0946 0.69222 0.0
C743 C 1.01496 0.12905 0.70327 0.0
C744 C 0.05151 0.17052 0.75194 0.0
H745 H 1.01497 0.25561 0.93697 0.0
H746 H 1.00906 0.22612 0.86383 0.0
H747 H 0.06697 0.19966 0.76752 0.0
H748 H 0.06031 0.09148 0.73739 0.0
H749 H 0.06294 0.12735 0.77581 0.0
H750 H 1.00501 0.15633 0.81323 0.0
C751 C 0.02489 0.23045 0.87713 0.0
C752 C 0.05342 0.19044 0.779 0.0
C753 C 0.02824 0.24772 0.91809 0.0
C754 C 0.04755 0.10178 0.72708 0.0
C755 C 0.04909 0.12236 0.74894 0.0
C756 C 0.01853 0.16576 0.80277 0.0
C757 C 0.04165 0.21848 0.85609 0.0
C758 C 0.0383 0.19817 0.82054 0.0
C759 C 0.03273 0.1362 0.73801 0.0
C760 C 0.03414 0.15785 0.76393 0.0
H761 H 0.08099 0.24683 0.92827 0.0
H762 H 0.07536 0.21685 0.85962 0.0
H763 H 1.00874 0.19046 0.86335 0.0
H764 H 0.9997 0.10359 0.65359 0.0
H765 H 1.00213 0.13934 0.69387 0.0
C766 C 0.3246 0.02982 0.01171 0.0
C767 C 0.31001 0.04569 1.00376 0.0
C768 C 0.34234 0.02905 0.97416 0.0
C769 C 0.37706 0.06217 0.87507 0.0
H770 H 0.40082 1.00935 0.83157 0.0
C771 C 0.46242 0.05475 0.78767 0.0
C772 C 0.46693 0.03884 0.7438 0.0
C773 C 0.44257 0.05621 0.81427 0.0
C774 C 0.39443 0.02432 0.84246 0.0
H775 H 0.30255 0.07291 0.94798 0.0
H776 H 0.33352 0.07147 0.88118 0.0
H777 H 0.36731 1.01033 0.88227 0.0
H778 H 0.4535 1.01239 0.69221 0.0
H779 H 0.4192 0.01508 0.7373 0.0
H780 H 0.40416 0.07614 0.83429 0.0
C781 C 0.33129 0.05969 0.91742 0.0
C782 C 0.37516 0.02487 0.87257 0.0
C783 C 0.31335 0.06039 0.95509 0.0
C784 C 0.45083 0.02475 0.72629 0.0
C785 C 0.43103 0.02623 0.75263 0.0
C786 C 0.39639 0.06162 0.84484 0.0
C787 C 0.34626 0.04414 0.927 0.0
C788 C 0.36619 0.04378 0.89016 0.0
C789 C 0.42655 0.04183 0.79773 0.0
C790 C 0.40553 0.04266 0.8284 0.0
H791 H 0.32258 0.01823 0.0487 0.0
H792 H 0.35342 0.01696 0.98406 0.0
H793 H 0.3709 0.07707 0.8881 0.0
H794 H 0.47434 0.06589 0.80253 0.0
H795 H 0.43999 0.06833 0.84918 0.0
C796 C 0.5426 0.31728 0.95104 0.0
C797 C 0.52678 0.30931 0.98956 0.0
C798 C 0.53923 0.33464 0.91224 0.0
C799 C 0.52663 0.3681 0.81667 0.0
H800 H 0.49964 0.41355 0.90158 0.0
C801 C 0.5364 0.45287 0.732 0.0
C802 C 0.51963 0.46644 0.73688 0.0
C803 C 0.53529 0.43281 0.75728 0.0
C804 C 0.50692 0.40098 0.87648 0.0
H805 H 0.49484 0.31286 0.01639 0.0
H806 H 0.48875 0.34324 0.9479 0.0
H807 H 0.50046 0.37963 0.95246 0.0
H808 H 0.48832 0.46919 0.77151 0.0
H809 H 0.48629 0.43418 0.81479 0.0
H810 H 0.53335 0.38948 0.74109 0.0
C811 C 0.50383 0.33606 0.94782 0.0
C812 C 0.50737 0.38145 0.90575 0.0
C813 C 0.50718 0.3185 0.98634 0.0
C814 C 0.50159 0.45926 0.767 0.0
C815 C 0.50047 0.43916 0.79225 0.0
C816 C 0.52613 0.38761 0.7873 0.0
C817 C 0.51999 0.34467 0.91145 0.0
C818 C 0.51752 0.36481 0.87679 0.0
C819 C 0.51736 0.42566 0.78813 0.0
C820 C 0.51658 0.40445 0.81725 0.0
H821 H 0.55795 0.31067 0.95347 0.0
H822 H 0.55213 0.34088 0.88567 0.0
H823 H 0.53432 0.35561 0.7924 0.0
H824 H 0.55059 0.4578 0.70931 0.0
H825 H 0.54876 0.42308 0.75389 0.0
C826 C 0.24983 0.51683 0.90738 0.0
C827 C 0.25335 0.50373 0.96035 0.0
C828 C 0.23093 0.51568 0.87191 0.0
C829 C 0.17671 0.5023 0.90228 0.0
H830 H 0.16705 0.50806 0.71809 0.0
C831 C 0.09346 0.49961 0.79425 0.0
C832 C 0.08855 0.51247 0.74173 0.0
C833 C 0.11409 0.49719 0.81543 0.0
C834 C 0.16944 0.5067 0.76974 0.0
H835 H 0.24073 0.47811 0.01443 0.0
H836 H 0.20808 0.47585 0.95225 0.0
H837 H 0.20264 0.50567 0.76168 0.0
H838 H 0.10167 0.53275 0.66981 0.0
H839 H 0.13755 0.52912 0.70807 0.0
H840 H 0.1439 0.50409 0.91148 0.0
C841 C 0.21964 0.48723 0.93855 0.0
C842 C 0.18987 0.50523 0.79461 0.0
C843 C 0.23844 0.48836 0.97369 0.0
C844 C 0.10487 0.52267 0.71039 0.0
C845 C 0.12553 0.52047 0.73215 0.0
C846 C 0.15641 0.50402 0.87769 0.0
C847 C 0.21526 0.50148 0.88915 0.0
C848 C 0.19372 0.50283 0.8612 0.0
C849 C 0.13045 0.50782 0.78543 0.0
C850 C 0.15237 0.5061 0.811 0.0
H851 H 0.26092 0.52903 0.89672 0.0
H852 H 0.22804 0.52688 0.83414 0.0
H853 H 0.17912 0.501 0.95399 0.0
H854 H 0.08135 0.4913 0.81906 0.0
H855 H 0.11715 0.48688 0.85547 0.0
C856 C 0.01744 0.80956 0.38775 0.0
C857 C 0.99898 0.80308 0.3556 0.0
C858 C 0.01832 0.82827 0.42294 0.0
C859 C 0.99198 0.87908 0.42567 0.0
H860 H 0.02504 0.88918 0.58165 0.0
C861 C 0.99309 0.95967 0.55086 0.0
C862 C 1.01191 0.96703 0.57905 0.0
C863 C 0.99096 0.93912 0.5289 0.0
C864 C 0.0159 0.88676 0.53765 0.0
H865 H 0.96684 0.81076 0.33693 0.0
H866 H 0.9681 0.84288 0.39949 0.0
H867 H 0.02235 0.85421 0.53652 0.0
H868 H 0.04319 0.95807 0.60688 0.0
H869 H 0.03964 0.92258 0.5677 0.0
H870 H 0.98586 0.91153 0.42551 0.0
C871 C 0.98204 0.83378 0.39717 0.0
C872 C 1.01431 0.86659 0.51181 0.0
C873 C 0.98119 0.81515 0.36219 0.0
C874 C 0.02842 0.95307 0.58552 0.0
C875 C 0.02633 0.93254 0.56331 0.0
C876 C 0.99365 0.8992 0.4512 0.0
C877 C 1.00079 0.84104 0.42623 0.0
C878 C 1.00228 0.86241 0.45542 0.0
C879 C 1.00761 0.92522 0.53407 0.0
C880 C 1.00562 0.90345 0.50767 0.0
H881 H 0.03154 0.80089 0.38204 0.0
H882 H 0.03308 0.83332 0.4442 0.0
H883 H 0.98295 0.8767 0.3814 0.0
H884 H 0.97996 0.96984 0.54533 0.0
H885 H 0.97614 0.93412 0.508 0.0
C886 C 0.73986 0.99414 0.39203 0.0
C887 C 0.74601 1.0073 0.3419 0.0
C888 C 0.72229 0.9984 0.42815 0.0
C889 C 0.67231 0.02652 0.4126 0.0
H890 H 0.66551 1.0083 0.58867 0.0
C891 C 0.59057 0.01811 0.52289 0.0
C892 C 0.58814 0.02294 0.58853 0.0
C893 C 0.61036 0.01746 0.49607 0.0
C894 C 0.66708 0.0137 0.53967 0.0
H895 H 0.73882 0.03573 0.29215 0.0
H896 H 0.70854 0.04368 0.35651 0.0
H897 H 0.69951 1.00665 0.5403 0.0
H898 H 0.60508 0.03078 0.67723 0.0
H899 H 0.63944 0.02988 0.63057 0.0
H900 H 0.63997 0.03381 0.41214 0.0
C901 C 0.71716 0.02983 0.36755 0.0
C902 C 0.68666 1.01253 0.5115 0.0
C903 C 0.73482 0.02554 0.33141 0.0
C904 C 0.60621 0.02695 0.62658 0.0
C905 C 0.62603 0.02632 0.59972 0.0
C906 C 0.65274 0.02769 0.44075 0.0
C907 C 0.71016 0.01594 0.41505 0.0
C908 C 0.68961 0.01874 0.4472 0.0
C909 C 0.62848 0.02165 0.53384 0.0
C910 C 0.64969 0.0211 0.50459 0.0
H911 H 0.74781 0.97969 0.40018 0.0
H912 H 0.71749 0.98715 0.4635 0.0
H913 H 0.67368 0.03123 0.36284 0.0
H914 H 0.57713 0.01485 0.49183 0.0
H915 H 0.61142 0.01341 0.44557 0.0
C916 C 0.49931 0.73591 0.36621 0.0
C917 C 0.51505 0.74426 0.32791 0.0
C918 C 0.50332 0.71957 0.40851 0.0
C919 C 0.54061 0.67666 0.43166 0.0
H920 H 0.50628 0.66488 0.57806 0.0
C921 C 0.53262 0.59385 0.53154 0.0
C922 C 0.52904 0.5907 0.59741 0.0
C923 C 0.53286 0.61378 0.50543 0.0
C924 C 0.51628 0.66793 0.538 0.0
H925 H 0.54783 0.74297 0.30828 0.0
H926 H 0.55515 0.71504 0.38439 0.0
H927 H 0.50439 0.69846 0.52627 0.0
H928 H 0.52312 0.6063 0.68765 0.0
H929 H 0.5242 0.64117 0.64264 0.0
H930 H 0.55299 0.6464 0.44459 0.0
C931 C 0.53943 0.72064 0.38 0.0
C932 C 0.51497 0.68722 0.50744 0.0
C933 C 0.53534 0.73695 0.33704 0.0
C934 C 0.52587 0.60812 0.63665 0.0
C935 C 0.52637 0.62816 0.61062 0.0
C936 C 0.54214 0.6575 0.46273 0.0
C937 C 0.52331 0.71119 0.41467 0.0
C938 C 0.52672 0.69172 0.45272 0.0
C939 C 0.52979 0.63131 0.54443 0.0
C940 C 0.52961 0.65259 0.51539 0.0
H941 H 0.48352 0.74133 0.36097 0.0
H942 H 0.49036 0.71281 0.43353 0.0
H943 H 0.54984 0.67927 0.38953 0.0
H944 H 0.5349 0.58085 0.49954 0.0
H945 H 0.53502 0.61532 0.45408 0.0
C946 C 0.81698 0.56405 0.38057 0.0
C947 C 0.80236 0.54772 0.37943 0.0
C948 C 0.83455 0.56342 0.42168 0.0
C949 C 0.86817 0.52454 0.49894 0.0
H950 H 0.89691 0.57256 0.57263 0.0
C951 C 0.9475 0.51727 0.63346 0.0
C952 C 0.96273 0.5325 0.62114 0.0
C953 C 0.92687 0.51979 0.61235 0.0
C954 C 0.88917 0.559 0.55194 0.0
H955 H 0.79414 0.5183 0.4217 0.0
H956 H 0.82454 0.51736 0.49515 0.0
H957 H 0.8621 0.57618 0.52484 0.0
H958 H 0.96792 0.56255 0.57774 0.0
H959 H 0.93205 0.56679 0.54009 0.0
H960 H 0.89532 0.50744 0.52455 0.0
C961 C 0.82258 0.53063 0.46394 0.0
C962 C 0.86915 0.56107 0.52465 0.0
C963 C 0.80498 0.53129 0.42276 0.0
C964 C 0.95665 0.55049 0.58816 0.0
C965 C 0.936 0.55299 0.56689 0.0
C966 C 0.88815 0.52248 0.52615 0.0
C967 C 0.83801 0.54631 0.46219 0.0
C968 C 0.85846 0.54391 0.4971 0.0
C969 C 0.92084 0.53759 0.57815 0.0
C970 C 0.89906 0.53971 0.5524 0.0
H971 H 0.81555 0.5766 0.34635 0.0
H972 H 0.84612 0.57567 0.41829 0.0
H973 H 0.86068 0.51104 0.47708 0.0
H974 H 0.95149 0.50328 0.65926 0.0
H975 H 0.91562 0.50775 0.623 0.0
loop_
_geom_bond_atom_site_label_1
_geom_bond_atom_site_label_2
_geom_bond_distance
_geom_bond_site_symmetry_2
_ccdc_geom_bond_type
H0 C5 0.930 . S
H1 C8 0.930 . S
H2 C10 0.930 . S
H3 C4 1.016 . S
C4 H3 1.016 . S
C4 N11 1.286 . S
C5 H0 0.930 . S
C5 C6 1.397 . S
C5 C7 1.361 . S
C6 C5 1.397 . S
C6 C10 1.390 . S
C7 C5 1.361 . S
C7 C8 1.393 . S
C7 N11 1.413 . S
C8 H1 0.930 . S
C8 C7 1.393 . S
C8 C9 1.399 . S
C9 C8 1.399 . S
C9 C10 1.381 . S
C10 H2 0.930 . S
C10 C6 1.390 . S
C10 C9 1.381 . S
N11 C4 1.286 . S
N11 C7 1.413 . S
H12 C17 0.930 . S
H13 C20 0.930 . S
H14 C22 0.930 . S
H15 C16 1.016 . S
C16 H15 1.016 . S
C16 N23 1.286 . S
C17 H12 0.930 . S
C17 C18 1.397 . S
C17 C19 1.361 . S
C18 C17 1.397 . S
C18 C22 1.390 . S
C19 C17 1.361 . S
C19 C20 1.393 . S
C19 N23 1.413 . S
C20 H13 0.930 . S
C20 C19 1.393 . S
C20 C21 1.399 . S
C21 C20 1.399 . S
C21 C22 1.381 . S
C22 H14 0.930 . S
C22 C18 1.390 . S
C22 C21 1.381 . S
N23 C16 1.286 . S
N23 C19 1.413 . S
H24 C29 0.930 . S
H25 C32 0.930 . S
H26 C34 0.930 . S
H27 C28 1.016 . S
C28 H27 1.016 . S
C28 N35 1.286 . S
C29 H24 0.930 . S
C29 C30 1.397 . S
C29 C31 1.361 . S
C30 C29 1.397 . S
C30 C34 1.390 . S
C31 C29 1.361 . S
C31 C32 1.393 . S
C31 N35 1.413 . S
C32 H25 0.930 . S
C32 C31 1.393 . S
C32 C33 1.399 . S
C33 C32 1.399 . S
C33 C34 1.381 . S
C34 H26 0.930 . S
C34 C30 1.390 . S
C34 C33 1.381 . S
N35 C28 1.286 . S
N35 C31 1.413 . S
H36 C41 0.930 . S
H37 C44 0.930 . S
H38 C46 0.930 . S
H39 C40 1.016 . S
C40 H39 1.016 . S
C40 N47 1.286 . S
C41 H36 0.930 . S
C41 C42 1.397 . S
C41 C43 1.361 . S
C42 C41 1.397 . S
C42 C46 1.390 . S
C43 C41 1.361 . S
C43 C44 1.393 . S
C43 N47 1.413 . S
C44 H37 0.930 . S
C44 C43 1.393 . S
C44 C45 1.399 . S
C45 C44 1.399 . S
C45 C46 1.381 . S
C46 H38 0.930 . S
C46 C42 1.390 . S
C46 C45 1.381 . S
N47 C40 1.286 . S
N47 C43 1.413 . S
H48 C53 0.930 1_556 S
H49 C56 0.930 . S
H50 C58 0.930 . S
H51 C52 1.016 . S
C52 H51 1.016 . S
C52 N59 1.286 . S
C53 H48 0.930 1_554 S
C53 C54 1.397 . S
C53 C55 1.361 . S
C54 C53 1.397 . S
C54 C58 1.390 . S
C55 C53 1.361 . S
C55 C56 1.393 . S
C55 N59 1.413 . S
C56 H49 0.930 . S
C56 C55 1.393 . S
C56 C57 1.399 . S
C57 C56 1.399 . S
C57 C58 1.381 . S
C58 H50 0.930 . S
C58 C54 1.390 . S
C58 C57 1.381 . S
N59 C52 1.286 . S
N59 C55 1.413 . S
H60 C65 0.930 . S
H61 C68 0.930 . S
H62 C70 0.930 . S
H63 C64 1.016 . S
C64 H63 1.016 . S
C64 N71 1.286 . S
C65 H60 0.930 . S
C65 C66 1.397 . S
C65 C67 1.361 1_556 S
C66 C65 1.397 . S
C66 C70 1.390 1_556 S
C67 C65 1.361 1_554 S
C67 C68 1.393 . S
C67 N71 1.413 . S
C68 H61 0.930 . S
C68 C67 1.393 . S
C68 C69 1.399 . S
C69 C68 1.399 . S
C69 C70 1.381 . S
C70 H62 0.930 . S
C70 C66 1.390 1_554 S
C70 C69 1.381 . S
N71 C64 1.286 . S
N71 C67 1.413 . S
H72 C77 0.930 . S
H73 C80 0.930 . S
H74 C82 0.930 . S
H75 C76 1.016 . S
C76 H75 1.016 . S
C76 N83 1.286 . S
C77 H72 0.930 . S
C77 C78 1.397 . S
C77 C79 1.361 1_556 S
C78 C77 1.397 . S
C78 C82 1.390 . S
C79 C77 1.361 1_554 S
C79 C80 1.393 . S
C79 N83 1.413 . S
C80 H73 0.930 . S
C80 C79 1.393 . S
C80 C81 1.399 . S
C81 C80 1.399 . S
C81 C82 1.381 1_554 S
C82 H74 0.930 . S
C82 C78 1.390 . S
C82 C81 1.381 1_556 S
N83 C76 1.286 . S
N83 C79 1.413 . S
H84 C89 0.930 1_556 S
H85 C92 0.930 . S
H86 C94 0.930 . S
H87 C88 1.016 . S
C88 H87 1.016 . S
C88 N95 1.286 . S
C89 H84 0.930 1_554 S
C89 C90 1.397 1_554 S
C89 C91 1.361 . S
C90 C89 1.397 1_556 S
C90 C94 1.390 1_556 S
C91 C89 1.361 . S
C91 C92 1.393 . S
C91 N95 1.413 . S
C92 H85 0.930 . S
C92 C91 1.393 . S
C92 C93 1.399 . S
C93 C92 1.399 . S
C93 C94 1.381 . S
C94 H86 0.930 . S
C94 C90 1.390 1_554 S
C94 C93 1.381 . S
N95 C88 1.286 . S
N95 C91 1.413 . S
Eu96 C105 2.828 . S
Eu96 O107 2.392 . S
Eu96 O109 2.418 1_545 S
Eu96 O114 2.373 1_655 S
Eu96 O117 2.488 . S
Eu96 O118 2.471 1_655 S
Eu96 O119 2.349 1_655 S
Eu97 O106 2.371 1_465 S
Eu97 O110 2.488 . S
Eu97 O111 2.471 . S
Eu97 O112 2.349 . S
Eu97 O115 2.392 1_565 S
Eu97 O116 2.418 1_565 S
Eu97 C126 2.828 . S
C98 O116 1.244 . S
C98 O119 1.265 . S
C99 C100 1.379 . S
C99 C103 1.373 1_455 S
C99 C105 1.505 1_455 S
C100 C99 1.379 . S
C100 C102 1.369 . S
C100 H128 0.930 . S
C101 C103 1.383 . S
C101 C104 1.382 1_655 S
C101 H129 0.930 . S
C102 C100 1.369 . S
C102 C104 1.392 . S
C102 H130 0.930 . S
C103 C99 1.373 1_655 S
C103 C101 1.383 . S
C103 H131 0.931 . S
C104 C101 1.382 1_455 S
C104 C102 1.392 . S
C105 Eu96 2.828 . S
C105 C99 1.505 1_655 S
C105 O117 1.249 . S
C105 O118 1.244 1_655 S
O106 Eu97 2.371 1_645 S
O106 C108 1.260 . S
O107 Eu96 2.392 . S
O107 C108 1.242 . S
C108 O106 1.260 . S
C108 O107 1.242 . S
O109 Eu96 2.418 1_565 S
O109 C113 1.244 . S
O110 Eu97 2.488 . S
O110 C126 1.249 . S
O111 Eu97 2.471 . S
O111 C126 1.244 . S
O112 Eu97 2.349 . S
O112 C113 1.265 1_455 S
C113 O109 1.244 . S
C113 O112 1.265 1_655 S
O114 Eu96 2.373 1_455 S
O114 C127 1.258 . S
O115 Eu97 2.392 1_545 S
O115 C127 1.242 . S
O116 Eu97 2.418 1_545 S
O116 C98 1.244 . S
O117 Eu96 2.488 . S
O117 C105 1.249 . S
O118 Eu96 2.471 1_455 S
O118 C105 1.244 1_455 S
O119 Eu96 2.349 1_455 S
O119 C98 1.265 . S
C120 C121 1.379 . S
C120 C124 1.373 . S
C120 C126 1.505 . S
C121 C120 1.379 . S
C121 C123 1.357 1_455 S
C121 H132 0.930 1_455 S
C122 C124 1.383 . S
C122 C125 1.382 . S
C122 H133 0.930 1_556 S
C123 C121 1.357 1_655 S
C123 C125 1.373 1_655 S
C123 H134 0.964 . S
C124 C120 1.373 . S
C124 C122 1.383 . S
C124 H135 0.931 . S
C125 C122 1.382 . S
C125 C123 1.373 1_455 S
C126 Eu97 2.828 . S
C126 O110 1.249 . S
C126 O111 1.244 . S
C126 C120 1.505 . S
C127 O114 1.258 . S
C127 O115 1.242 . S
H128 C100 0.930 . S
H129 C101 0.930 . S
H130 C102 0.930 . S
H131 C103 0.931 . S
H132 C121 0.930 1_655 S
H133 C122 0.930 1_554 S
H134 C123 0.964 . S
H135 C124 0.931 . S
Eu136 C145 2.828 . S
Eu136 O147 2.392 . S
Eu136 O149 2.418 . S
Eu136 O154 2.373 . S
Eu136 O157 2.488 . S
Eu136 O158 2.471 . S
Eu136 O159 2.349 1_545 S
Eu137 O146 2.373 1_565 S
Eu137 O150 2.488 . S
Eu137 O151 2.471 1_565 S
Eu137 O152 2.349 1_565 S
Eu137 O155 2.392 . S
Eu137 O156 2.418 . S
Eu137 C166 2.828 . S
C138 O156 1.244 . S
C138 O159 1.265 . S
C139 C140 1.379 . S
C139 C143 1.373 . S
C139 C145 1.505 . S
C140 C139 1.379 . S
C140 C142 1.369 . S
C140 H168 0.930 1_545 S
C141 C143 1.383 . S
C141 C144 1.382 . S
C141 H169 0.930 . S
C142 C140 1.369 . S
C142 C144 1.392 . S
C142 H170 0.930 1_545 S
C143 C139 1.373 . S
C143 C141 1.383 . S
C143 H171 0.931 . S
C144 C141 1.382 . S
C144 C142 1.392 . S
C145 Eu136 2.828 . S
C145 C139 1.505 . S
C145 O157 1.249 . S
C145 O158 1.244 . S
O146 Eu137 2.373 1_545 S
O146 C148 1.258 . S
O147 Eu136 2.392 . S
O147 C148 1.242 . S
C148 O146 1.258 . S
C148 O147 1.242 . S
O149 Eu136 2.418 . S
O149 C153 1.244 . S
O150 Eu137 2.488 . S
O150 C166 1.249 . S
O151 Eu137 2.471 1_545 S
O151 C166 1.244 1_545 S
O152 Eu137 2.349 1_545 S
O152 C153 1.265 . S
C153 O149 1.244 . S
C153 O152 1.265 . S
O154 Eu136 2.373 . S
O154 C167 1.230 1_545 S
O155 Eu137 2.392 . S
O155 C167 1.260 . S
O156 Eu137 2.418 . S
O156 C138 1.244 . S
O157 Eu136 2.488 . S
O157 C145 1.249 . S
O158 Eu136 2.471 . S
O158 C145 1.244 . S
O159 Eu136 2.349 1_565 S
O159 C138 1.265 . S
C160 C161 1.367 1_565 S
C160 C164 1.384 . S
C160 C166 1.506 . S
C161 C160 1.367 1_545 S
C161 C163 1.369 . S
C161 H172 0.930 . S
C162 C164 1.383 . S
C162 C165 1.382 1_565 S
C162 H173 0.930 . S
C163 C161 1.369 . S
C163 C165 1.392 . S
C163 H174 0.930 . S
C164 C160 1.384 . S
C164 C162 1.383 . S
C164 H175 0.931 . S
C165 C162 1.382 1_545 S
C165 C163 1.392 . S
C166 Eu137 2.828 . S
C166 O150 1.249 . S
C166 O151 1.244 1_565 S
C166 C160 1.506 . S
C167 O154 1.230 1_565 S
C167 O155 1.260 . S
H168 C140 0.930 1_565 S
H169 C141 0.930 . S
H170 C142 0.930 1_565 S
H171 C143 0.931 . S
H172 C161 0.930 . S
H173 C162 0.930 . S
H174 C163 0.930 . S
H175 C164 0.931 . S
Eu176 C185 2.828 . S
Eu176 O187 2.392 . S
Eu176 O189 2.418 . S
Eu176 O194 2.373 . S
Eu176 O197 2.488 . S
Eu176 O198 2.471 . S
Eu176 O199 2.349 . S
Eu177 O186 2.373 . S
Eu177 O190 2.488 . S
Eu177 O191 2.471 . S
Eu177 O192 2.349 . S
Eu177 O195 2.392 . S
Eu177 O196 2.418 . S
Eu177 C206 2.828 . S
C178 O196 1.244 . S
C178 O199 1.265 . S
C179 C180 1.379 . S
C179 C183 1.373 . S
C179 C185 1.505 . S
C180 C179 1.379 . S
C180 C182 1.369 . S
C180 H208 0.930 . S
C181 C183 1.383 . S
C181 C184 1.382 . S
C181 H209 0.930 . S
C182 C180 1.369 . S
C182 C184 1.392 . S
C182 H210 0.930 . S
C183 C179 1.373 . S
C183 C181 1.383 . S
C183 H211 0.931 . S
C184 C181 1.382 . S
C184 C182 1.392 . S
C185 Eu176 2.828 . S
C185 C179 1.505 . S
C185 O197 1.249 . S
C185 O198 1.244 . S
O186 Eu177 2.373 . S
O186 C188 1.258 . S
O187 Eu176 2.392 . S
O187 C188 1.242 . S
C188 O186 1.258 . S
C188 O187 1.242 . S
O189 Eu176 2.418 . S
O189 C193 1.244 . S
O190 Eu177 2.488 . S
O190 C206 1.249 . S
O191 Eu177 2.471 . S
O191 C206 1.244 . S
O192 Eu177 2.349 . S
O192 C193 1.265 . S
C193 O189 1.244 . S
C193 O192 1.265 . S
O194 Eu176 2.373 . S
O194 C207 1.258 . S
O195 Eu177 2.392 . S
O195 C207 1.242 . S
O196 Eu177 2.418 . S
O196 C178 1.244 . S
O197 Eu176 2.488 . S
O197 C185 1.249 . S
O198 Eu176 2.471 . S
O198 C185 1.244 . S
O199 Eu176 2.349 . S
O199 C178 1.265 . S
C200 C201 1.379 . S
C200 C204 1.373 . S
C200 C206 1.505 . S
C201 C200 1.379 . S
C201 C203 1.369 . S
C201 H212 0.930 . S
C202 C204 1.383 . S
C202 C205 1.382 . S
C202 H213 0.930 . S
C203 C201 1.369 . S
C203 C205 1.392 . S
C203 H214 0.930 . S
C204 C200 1.373 . S
C204 C202 1.383 . S
C204 H215 0.931 . S
C205 C202 1.382 . S
C205 C203 1.392 . S
C206 Eu177 2.828 . S
C206 O190 1.249 . S
C206 O191 1.244 . S
C206 C200 1.505 . S
C207 O194 1.258 . S
C207 O195 1.242 . S
H208 C180 0.930 . S
H209 C181 0.930 . S
H210 C182 0.930 . S
H211 C183 0.931 . S
H212 C201 0.930 . S
H213 C202 0.930 . S
H214 C203 0.930 . S
H215 C204 0.931 . S
Eu216 C225 2.828 . S
Eu216 O227 2.392 . S
Eu216 O229 2.418 1_455 S
Eu216 O234 2.373 . S
Eu216 O237 2.488 . S
Eu216 O238 2.471 . S
Eu216 O239 2.349 . S
Eu217 O226 2.373 . S
Eu217 O230 2.488 . S
Eu217 O231 2.471 . S
Eu217 O232 2.349 . S
Eu217 O235 2.392 1_655 S
Eu217 O236 2.418 1_655 S
Eu217 C246 2.828 . S
C218 O236 1.244 . S
C218 O239 1.265 . S
C219 C220 1.379 . S
C219 C223 1.373 . S
C219 C225 1.505 . S
C220 C219 1.379 . S
C220 C222 1.369 . S
C220 H248 0.930 . S
C221 C223 1.383 . S
C221 C224 1.382 . S
C221 H249 0.930 . S
C222 C220 1.369 . S
C222 C224 1.392 . S
C222 H250 0.930 . S
C223 C219 1.373 . S
C223 C221 1.383 . S
C223 H251 0.931 . S
C224 C221 1.382 . S
C224 C222 1.392 . S
C225 Eu216 2.828 . S
C225 C219 1.505 . S
C225 O237 1.249 . S
C225 O238 1.244 . S
O226 Eu217 2.373 . S
O226 C228 1.258 1_655 S
O227 Eu216 2.392 . S
O227 C228 1.242 . S
C228 O226 1.258 1_455 S
C228 O227 1.242 . S
O229 Eu216 2.418 1_655 S
O229 C233 1.244 . S
O230 Eu217 2.488 . S
O230 C246 1.249 . S
O231 Eu217 2.471 . S
O231 C246 1.244 . S
O232 Eu217 2.349 . S
O232 C233 1.265 . S
C233 O229 1.244 . S
C233 O232 1.265 . S
O234 Eu216 2.373 . S
O234 C247 1.258 . S
O235 Eu217 2.392 1_455 S
O235 C247 1.242 . S
O236 Eu217 2.418 1_455 S
O236 C218 1.244 . S
O237 Eu216 2.488 . S
O237 C225 1.249 . S
O238 Eu216 2.471 . S
O238 C225 1.244 . S
O239 Eu216 2.349 . S
O239 C218 1.265 . S
C240 C241 1.379 . S
C240 C244 1.373 . S
C240 C246 1.505 . S
C241 C240 1.379 . S
C241 C243 1.369 . S
C241 H252 0.930 . S
C242 C244 1.383 . S
C242 C245 1.382 . S
C242 H253 0.930 . S
C243 C241 1.369 . S
C243 C245 1.392 . S
C243 H254 0.930 . S
C244 C240 1.373 . S
C244 C242 1.383 . S
C244 H255 0.931 . S
C245 C242 1.382 . S
C245 C243 1.392 . S
C246 Eu217 2.828 . S
C246 O230 1.249 . S
C246 O231 1.244 . S
C246 C240 1.505 . S
C247 O234 1.258 . S
C247 O235 1.242 . S
H248 C220 0.930 . S
H249 C221 0.930 . S
H250 C222 0.930 . S
H251 C223 0.931 . S
H252 C241 0.930 . S
H253 C242 0.930 . S
H254 C243 0.930 . S
H255 C244 0.931 . S
C256 C257 1.349 . S
C256 C258 1.327 . S
C256 H281 0.950 . S
C257 C256 1.349 . S
C257 C273 1.349 . S
C258 C256 1.327 . S
C258 C277 1.429 . S
C258 H282 0.950 . S
C259 C276 1.574 . S
C259 C278 1.368 . S
C259 H283 0.949 . S
H260 C264 0.949 . S
C261 C262 1.349 . S
C261 C263 1.327 . S
C261 H284 0.950 1_545 S
C262 C261 1.349 . S
C262 C274 1.349 . S
C263 C261 1.327 . S
C263 C279 1.429 . S
C263 H285 0.971 . S
C264 H260 0.949 . S
C264 C272 1.574 . S
C264 C280 1.368 . S
H265 C273 0.950 . S
H266 C271 0.950 . S
H267 C272 0.949 . S
H268 C274 0.950 . S
H269 C275 0.950 . S
H270 C276 0.949 . S
C271 H266 0.950 . S
C271 C273 1.327 . S
C271 C277 1.429 . S
C272 C264 1.574 . S
C272 H267 0.949 . S
C272 C278 1.368 . S
C273 C257 1.349 . S
C273 H265 0.950 . S
C273 C271 1.327 . S
C274 C262 1.349 . S
C274 H268 0.950 . S
C274 C275 1.327 . S
C275 H269 0.950 . S
C275 C274 1.327 . S
C275 C279 1.429 . S
C276 C259 1.574 . S
C276 H270 0.949 . S
C276 C280 1.368 . S
C277 C258 1.429 . S
C277 C271 1.429 . S
C277 C278 1.523 . S
C278 C259 1.368 . S
C278 C272 1.368 . S
C278 C277 1.523 . S
C279 C263 1.429 . S
C279 C275 1.429 . S
C279 C280 1.523 . S
C280 C264 1.368 . S
C280 C276 1.368 . S
C280 C279 1.523 . S
H281 C256 0.950 . S
H282 C258 0.950 . S
H283 C259 0.949 . S
H284 C261 0.950 1_565 S
H285 C263 0.971 . S
C286 C287 1.349 . S
C286 C288 1.327 . S
C286 H311 0.950 . S
C287 C286 1.349 . S
C287 C303 1.349 . S
C288 C286 1.327 . S
C288 C307 1.429 . S
C288 H312 0.950 . S
C289 C306 1.574 . S
C289 C308 1.368 . S
C289 H313 0.949 . S
H290 C294 0.949 . S
C291 C292 1.349 . S
C291 C293 1.327 . S
C291 H314 0.950 . S
C292 C291 1.349 . S
C292 C304 1.349 . S
C293 C291 1.327 . S
C293 C309 1.429 . S
C293 H315 0.950 . S
C294 H290 0.949 . S
C294 C302 1.574 . S
C294 C310 1.368 . S
H295 C303 0.950 . S
H296 C301 0.950 . S
H297 C302 0.949 . S
H298 C304 0.950 . S
H299 C305 0.950 . S
H300 C306 0.949 . S
C301 H296 0.950 . S
C301 C303 1.327 . S
C301 C307 1.429 . S
C302 C294 1.574 . S
C302 H297 0.949 . S
C302 C308 1.368 . S
C303 C287 1.349 . S
C303 H295 0.950 . S
C303 C301 1.327 . S
C304 C292 1.349 . S
C304 H298 0.950 . S
C304 C305 1.327 . S
C305 H299 0.950 . S
C305 C304 1.327 . S
C305 C309 1.429 . S
C306 C289 1.574 . S
C306 H300 0.949 . S
C306 C310 1.368 . S
C307 C288 1.429 . S
C307 C301 1.429 . S
C307 C308 1.523 . S
C308 C289 1.368 . S
C308 C302 1.368 . S
C308 C307 1.523 . S
C309 C293 1.429 . S
C309 C305 1.429 . S
C309 C310 1.523 . S
C310 C294 1.368 . S
C310 C306 1.368 . S
C310 C309 1.523 . S
H311 C286 0.950 . S
H312 C288 0.950 . S
H313 C289 0.949 . S
H314 C291 0.950 . S
H315 C293 0.950 . S
C316 C317 1.349 . S
C316 C318 1.327 . S
C316 H341 0.950 . S
C317 C316 1.349 . S
C317 C333 1.349 . S
C318 C316 1.327 . S
C318 C337 1.429 . S
C318 H342 0.950 . S
C319 C336 1.574 . S
C319 C338 1.368 . S
C319 H343 0.949 . S
H320 C324 0.949 . S
C321 C322 1.349 . S
C321 C323 1.327 . S
C321 H344 0.950 . S
C322 C321 1.349 . S
C322 C334 1.349 . S
C323 C321 1.327 . S
C323 C339 1.429 . S
C323 H345 0.950 . S
C324 H320 0.949 . S
C324 C332 1.574 . S
C324 C340 1.368 . S
H325 C333 0.950 . S
H326 C331 0.950 . S
H327 C332 0.949 . S
H328 C334 0.950 . S
H329 C335 0.950 . S
H330 C336 0.949 . S
C331 H326 0.950 . S
C331 C333 1.327 . S
C331 C337 1.429 . S
C332 C324 1.574 . S
C332 H327 0.949 . S
C332 C338 1.368 . S
C333 C317 1.349 . S
C333 H325 0.950 . S
C333 C331 1.327 . S
C334 C322 1.349 . S
C334 H328 0.950 . S
C334 C335 1.327 . S
C335 H329 0.950 . S
C335 C334 1.327 . S
C335 C339 1.429 . S
C336 C319 1.574 . S
C336 H330 0.949 . S
C336 C340 1.368 . S
C337 C318 1.429 . S
C337 C331 1.429 . S
C337 C338 1.523 . S
C338 C319 1.368 . S
C338 C332 1.368 . S
C338 C337 1.523 . S
C339 C323 1.429 . S
C339 C335 1.429 . S
C339 C340 1.523 . S
C340 C324 1.368 . S
C340 C336 1.368 . S
C340 C339 1.523 . S
H341 C316 0.950 . S
H342 C318 0.950 . S
H343 C319 0.949 . S
H344 C321 0.950 . S
H345 C323 0.950 . S
C346 C347 1.349 . S
C346 C348 1.327 . S
C346 H371 0.950 . S
C347 C346 1.349 . S
C347 C363 1.349 . S
C348 C346 1.327 . S
C348 C367 1.429 . S
C348 H372 0.950 . S
C349 C366 1.574 . S
C349 C368 1.368 . S
C349 H373 0.949 . S
H350 C354 0.949 . S
C351 C352 1.349 . S
C351 C353 1.327 . S
C351 H374 0.950 . S
C352 C351 1.349 . S
C352 C364 1.349 . S
C353 C351 1.327 . S
C353 C369 1.429 . S
C353 H375 0.950 . S
C354 H350 0.949 . S
C354 C362 1.574 . S
C354 C370 1.368 . S
H355 C363 0.950 . S
H356 C361 0.950 . S
H357 C362 0.949 . S
H358 C364 0.950 1_655 S
H359 C365 0.912 1_655 S
H360 C366 0.949 . S
C361 H356 0.950 . S
C361 C363 1.327 . S
C361 C367 1.429 . S
C362 C354 1.574 . S
C362 H357 0.949 . S
C362 C368 1.368 . S
C363 C347 1.349 . S
C363 H355 0.950 . S
C363 C361 1.327 . S
C364 C352 1.349 . S
C364 H358 0.950 1_455 S
C364 C365 1.327 . S
C365 H359 0.912 1_455 S
C365 C364 1.327 . S
C365 C369 1.429 . S
C366 C349 1.574 . S
C366 H360 0.949 . S
C366 C370 1.368 . S
C367 C348 1.429 . S
C367 C361 1.429 . S
C367 C368 1.523 . S
C368 C349 1.368 . S
C368 C362 1.368 . S
C368 C367 1.523 . S
C369 C353 1.429 . S
C369 C365 1.429 . S
C369 C370 1.523 . S
C370 C354 1.368 . S
C370 C366 1.368 . S
C370 C369 1.523 . S
H371 C346 0.950 . S
H372 C348 0.950 . S
H373 C349 0.949 . S
H374 C351 0.950 . S
H375 C353 0.950 . S
C376 C377 1.349 . S
C376 C378 1.327 . S
C376 H401 0.936 1_565 S
C377 C376 1.349 . S
C377 C393 1.349 . S
C378 C376 1.327 . S
C378 C397 1.429 . S
C378 H402 0.950 1_565 S
C379 C396 1.574 . S
C379 C398 1.368 1_556 S
C379 H403 0.949 . S
H380 C384 0.949 . S
C381 C382 1.383 . S
C381 C383 1.327 . S
C381 H404 0.950 . S
C382 C381 1.383 . S
C382 C394 1.321 1_565 S
C383 C381 1.327 . S
C383 C399 1.429 . S
C383 H405 0.950 . S
C384 H380 0.949 . S
C384 C392 1.574 1_556 S
C384 C400 1.368 1_545 S
H385 C393 0.950 . S
H386 C391 0.950 . S
H387 C392 0.949 . S
H388 C394 0.950 . S
H389 C395 0.950 . S
H390 C396 0.949 . S
C391 H386 0.950 . S
C391 C393 1.327 . S
C391 C397 1.429 . S
C392 C384 1.574 1_554 S
C392 H387 0.949 . S
C392 C398 1.368 1_545 S
C393 C377 1.349 . S
C393 H385 0.950 . S
C393 C391 1.327 . S
C394 C382 1.321 1_545 S
C394 H388 0.950 . S
C394 C395 1.327 . S
C395 H389 0.950 . S
C395 C394 1.327 . S
C395 C399 1.429 1_545 S
C396 C379 1.574 . S
C396 H390 0.949 . S
C396 C400 1.368 . S
C397 C378 1.429 . S
C397 C391 1.429 . S
C397 C398 1.523 . S
C398 C379 1.368 1_554 S
C398 C392 1.368 1_565 S
C398 C397 1.523 . S
C399 C383 1.429 . S
C399 C395 1.429 1_565 S
C399 C400 1.523 . S
C400 C384 1.368 1_565 S
C400 C396 1.368 . S
C400 C399 1.523 . S
H401 C376 0.936 1_545 S
H402 C378 0.950 1_545 S
H403 C379 0.949 . S
H404 C381 0.950 . S
H405 C383 0.950 . S
C406 C407 1.349 . S
C406 C408 1.327 . S
C406 H431 0.950 . S
C407 C406 1.349 . S
C407 C423 1.349 . S
C408 C406 1.327 . S
C408 C427 1.429 . S
C408 H432 0.950 . S
C409 C426 1.574 . S
C409 C428 1.368 1_556 S
C409 H433 0.949 . S
H410 C414 0.949 . S
C411 C412 1.349 . S
C411 C413 1.327 . S
C411 H434 0.950 . S
C412 C411 1.349 . S
C412 C424 1.349 . S
C413 C411 1.327 . S
C413 C429 1.429 . S
C413 H435 0.950 . S
C414 H410 0.949 . S
C414 C422 1.574 1_556 S
C414 C430 1.368 . S
H415 C423 0.950 . S
H416 C421 0.950 . S
H417 C422 0.949 . S
H418 C424 0.950 . S
H419 C425 0.950 . S
H420 C426 0.949 . S
C421 H416 0.950 . S
C421 C423 1.327 . S
C421 C427 1.429 . S
C422 C414 1.574 1_554 S
C422 H417 0.949 . S
C422 C428 1.368 . S
C423 C407 1.349 . S
C423 H415 0.950 . S
C423 C421 1.327 . S
C424 C412 1.349 . S
C424 H418 0.950 . S
C424 C425 1.327 . S
C425 H419 0.950 . S
C425 C424 1.327 . S
C425 C429 1.429 . S
C426 C409 1.574 . S
C426 H420 0.949 . S
C426 C430 1.368 . S
C427 C408 1.429 . S
C427 C421 1.429 . S
C427 C428 1.523 . S
C428 C409 1.368 1_554 S
C428 C422 1.368 . S
C428 C427 1.523 . S
C429 C413 1.429 . S
C429 C425 1.429 . S
C429 C430 1.523 . S
C430 C414 1.368 . S
C430 C426 1.368 . S
C430 C429 1.523 . S
H431 C406 0.950 . S
H432 C408 0.950 . S
H433 C409 0.949 . S
H434 C411 0.950 . S
H435 C413 0.950 . S
C436 C437 1.349 . S
C436 C438 1.327 . S
C436 H461 0.950 . S
C437 C436 1.349 . S
C437 C453 1.349 . S
C438 C436 1.327 . S
C438 C457 1.429 . S
C438 H462 0.950 . S
C439 C456 1.574 . S
C439 C458 1.368 . S
C439 H463 0.949 . S
H440 C444 0.949 . S
C441 C442 1.349 . S
C441 C443 1.327 . S
C441 H464 0.950 . S
C442 C441 1.349 . S
C442 C454 1.349 . S
C443 C441 1.327 . S
C443 C459 1.429 . S
C443 H465 0.950 . S
C444 H440 0.949 . S
C444 C452 1.574 1_556 S
C444 C460 1.368 . S
H445 C453 0.950 . S
H446 C451 0.950 1_556 S
H447 C452 0.949 . S
H448 C454 0.950 . S
H449 C455 0.950 . S
H450 C456 0.949 . S
C451 H446 0.950 1_554 S
C451 C453 1.327 . S
C451 C457 1.429 . S
C452 C444 1.574 1_554 S
C452 H447 0.949 . S
C452 C458 1.368 1_554 S
C453 C437 1.349 . S
C453 H445 0.950 . S
C453 C451 1.327 . S
C454 C442 1.349 . S
C454 H448 0.950 . S
C454 C455 1.327 . S
C455 H449 0.950 . S
C455 C454 1.327 . S
C455 C459 1.429 . S
C456 C439 1.574 . S
C456 H450 0.949 . S
C456 C460 1.368 . S
C457 C438 1.429 . S
C457 C451 1.429 . S
C457 C458 1.523 1_554 S
C458 C439 1.368 . S
C458 C452 1.368 1_556 S
C458 C457 1.523 1_556 S
C459 C443 1.429 . S
C459 C455 1.429 . S
C459 C460 1.523 . S
C460 C444 1.368 . S
C460 C456 1.368 . S
C460 C459 1.523 . S
H461 C436 0.950 . S
H462 C438 0.950 . S
H463 C439 0.949 . S
H464 C441 0.950 . S
H465 C443 0.950 . S
C466 C467 1.349 . S
C466 C468 1.327 . S
C466 H491 0.950 . S
C467 C466 1.349 . S
C467 C483 1.349 . S
C468 C466 1.327 . S
C468 C487 1.429 . S
C468 H492 0.950 . S
C469 C486 1.574 . S
C469 C488 1.368 1_556 S
C469 H493 0.949 . S
H470 C474 0.949 . S
C471 C472 1.349 1_455 S
C471 C473 1.327 . S
C471 H494 0.950 . S
C472 C471 1.349 1_655 S
C472 C484 1.349 . S
C473 C471 1.327 . S
C473 C489 1.429 1_455 S
C473 H495 0.950 . S
C474 H470 0.949 . S
C474 C482 1.574 1_556 S
C474 C490 1.368 . S
H475 C483 0.950 . S
H476 C481 0.950 . S
H477 C482 0.949 . S
H478 C484 0.950 . S
H479 C485 0.950 . S
H480 C486 0.949 1_455 S
C481 H476 0.950 . S
C481 C483 1.327 . S
C481 C487 1.429 . S
C482 C474 1.574 1_554 S
C482 H477 0.949 . S
C482 C488 1.368 . S
C483 C467 1.349 . S
C483 H475 0.950 . S
C483 C481 1.327 . S
C484 C472 1.349 . S
C484 H478 0.950 . S
C484 C485 1.327 . S
C485 H479 0.950 . S
C485 C484 1.327 . S
C485 C489 1.429 . S
C486 C469 1.574 . S
C486 H480 0.949 1_655 S
C486 C490 1.368 . S
C487 C468 1.429 . S
C487 C481 1.429 . S
C487 C488 1.523 . S
C488 C469 1.368 1_554 S
C488 C482 1.368 . S
C488 C487 1.523 . S
C489 C473 1.429 1_655 S
C489 C485 1.429 . S
C489 C490 1.523 . S
C490 C474 1.368 . S
C490 C486 1.368 . S
C490 C489 1.523 . S
H491 C466 0.950 . S
H492 C468 0.950 . S
H493 C469 0.949 . S
H494 C471 0.950 . S
H495 C473 0.950 . S
C496 C497 1.349 . S
C496 C498 1.327 . S
C496 H521 0.950 . S
C497 C496 1.349 . S
C497 C513 1.349 . S
C498 C496 1.327 . S
C498 C517 1.429 . S
C498 H522 0.950 . S
C499 C516 1.574 . S
C499 C518 1.368 . S
C499 H523 0.949 . S
H500 C504 0.949 . S
C501 C502 1.349 . S
C501 C503 1.327 . S
C501 H524 0.950 . S
C502 C501 1.349 . S
C502 C514 1.349 . S
C503 C501 1.327 . S
C503 C519 1.429 . S
C503 H525 0.950 . S
C504 H500 0.949 . S
C504 C512 1.574 . S
C504 C520 1.368 . S
H505 C513 0.950 . S
H506 C511 0.950 . S
H507 C512 0.949 . S
H508 C514 0.950 1_655 S
H509 C515 0.950 . S
H510 C516 0.949 . S
C511 H506 0.950 . S
C511 C513 1.327 . S
C511 C517 1.429 . S
C512 C504 1.574 . S
C512 H507 0.949 . S
C512 C518 1.368 . S
C513 C497 1.349 . S
C513 H505 0.950 . S
C513 C511 1.327 . S
C514 C502 1.349 . S
C514 H508 0.950 1_455 S
C514 C515 1.327 . S
C515 H509 0.950 . S
C515 C514 1.327 . S
C515 C519 1.429 . S
C516 C499 1.574 . S
C516 H510 0.949 . S
C516 C520 1.368 . S
C517 C498 1.429 . S
C517 C511 1.429 . S
C517 C518 1.523 . S
C518 C499 1.368 . S
C518 C512 1.368 . S
C518 C517 1.523 . S
C519 C503 1.429 . S
C519 C515 1.429 . S
C519 C520 1.523 . S
C520 C504 1.368 . S
C520 C516 1.368 . S
C520 C519 1.523 . S
H521 C496 0.950 . S
H522 C498 0.950 . S
H523 C499 0.949 . S
H524 C501 0.950 . S
H525 C503 0.950 . S
C526 C527 1.349 . S
C526 C528 1.327 . S
C526 H551 0.950 . S
C527 C526 1.349 . S
C527 C543 1.349 . S
C528 C526 1.327 . S
C528 C547 1.429 . S
C528 H552 0.950 . S
C529 C546 1.574 . S
C529 C548 1.368 . S
C529 H553 0.949 . S
H530 C534 0.949 . S
C531 C532 1.349 1_565 S
C531 C533 1.327 . S
C531 H554 0.950 . S
C532 C531 1.349 1_545 S
C532 C544 1.349 . S
C533 C531 1.327 . S
C533 C549 1.429 1_565 S
C533 H555 0.950 . S
C534 H530 0.949 . S
C534 C542 1.574 . S
C534 C550 1.368 . S
H535 C543 0.950 . S
H536 C541 0.950 . S
H537 C542 0.949 . S
H538 C544 0.950 . S
H539 C545 0.950 . S
H540 C546 0.949 1_565 S
C541 H536 0.950 . S
C541 C543 1.327 . S
C541 C547 1.429 . S
C542 C534 1.574 . S
C542 H537 0.949 . S
C542 C548 1.368 . S
C543 C527 1.349 . S
C543 H535 0.950 . S
C543 C541 1.327 . S
C544 C532 1.349 . S
C544 H538 0.950 . S
C544 C545 1.327 . S
C545 H539 0.950 . S
C545 C544 1.327 . S
C545 C549 1.429 . S
C546 C529 1.574 . S
C546 H540 0.949 1_545 S
C546 C550 1.368 . S
C547 C528 1.429 . S
C547 C541 1.429 . S
C547 C548 1.523 . S
C548 C529 1.368 . S
C548 C542 1.368 . S
C548 C547 1.523 . S
C549 C533 1.429 1_545 S
C549 C545 1.429 . S
C549 C550 1.523 . S
C550 C534 1.368 . S
C550 C546 1.368 . S
C550 C549 1.523 . S
H551 C526 0.950 . S
H552 C528 0.950 . S
H553 C529 0.949 . S
H554 C531 0.950 . S
H555 C533 0.950 . S
C556 C557 1.349 . S
C556 C558 1.327 . S
C556 H581 0.950 . S
C557 C556 1.349 . S
C557 C573 1.349 . S
C558 C556 1.327 . S
C558 C577 1.429 . S
C558 H582 0.950 . S
C559 C576 1.574 . S
C559 C578 1.368 . S
C559 H583 0.949 . S
H560 C564 0.949 . S
C561 C562 1.349 . S
C561 C563 1.327 . S
C561 H584 0.950 . S
C562 C561 1.349 . S
C562 C574 1.349 . S
C563 C561 1.327 . S
C563 C579 1.429 . S
C563 H585 0.950 . S
C564 H560 0.949 . S
C564 C572 1.574 . S
C564 C580 1.368 . S
H565 C573 0.950 . S
H566 C571 0.950 . S
H567 C572 0.949 . S
H568 C574 0.950 . S
H569 C575 0.950 . S
H570 C576 0.949 . S
C571 H566 0.950 . S
C571 C573 1.327 . S
C571 C577 1.429 . S
C572 C564 1.574 . S
C572 H567 0.949 . S
C572 C578 1.368 . S
C573 C557 1.349 . S
C573 H565 0.950 . S
C573 C571 1.327 . S
C574 C562 1.349 . S
C574 H568 0.950 . S
C574 C575 1.327 . S
C575 H569 0.950 . S
C575 C574 1.327 . S
C575 C579 1.429 . S
C576 C559 1.574 . S
C576 H570 0.949 . S
C576 C580 1.368 . S
C577 C558 1.429 . S
C577 C571 1.429 . S
C577 C578 1.523 . S
C578 C559 1.368 . S
C578 C572 1.368 . S
C578 C577 1.523 . S
C579 C563 1.429 . S
C579 C575 1.429 . S
C579 C580 1.523 . S
C580 C564 1.368 . S
C580 C576 1.368 . S
C580 C579 1.523 . S
H581 C556 0.950 . S
H582 C558 0.950 . S
H583 C559 0.949 . S
H584 C561 0.950 . S
H585 C563 0.950 . S
C586 C587 1.349 . S
C586 C588 1.327 . S
C586 H611 0.950 . S
C587 C586 1.349 . S
C587 C603 1.349 . S
C588 C586 1.327 . S
C588 C607 1.429 . S
C588 H612 0.950 . S
C589 C606 1.574 . S
C589 C608 1.368 . S
C589 H613 0.949 . S
H590 C594 0.949 . S
C591 C592 1.349 . S
C591 C593 1.327 . S
C591 H614 0.950 . S
C592 C591 1.349 . S
C592 C604 1.349 . S
C593 C591 1.327 . S
C593 C609 1.429 . S
C593 H615 0.950 . S
C594 H590 0.949 . S
C594 C602 1.574 . S
C594 C610 1.368 . S
H595 C603 0.950 . S
H596 C601 0.950 . S
H597 C602 0.949 . S
H598 C604 0.950 . S
H599 C605 0.950 . S
H600 C606 0.949 . S
C601 H596 0.950 . S
C601 C603 1.327 . S
C601 C607 1.429 . S
C602 C594 1.574 . S
C602 H597 0.949 . S
C602 C608 1.368 . S
C603 C587 1.349 . S
C603 H595 0.950 . S
C603 C601 1.327 . S
C604 C592 1.349 . S
C604 H598 0.950 . S
C604 C605 1.327 . S
C605 H599 0.950 . S
C605 C604 1.327 . S
C605 C609 1.429 . S
C606 C589 1.574 . S
C606 H600 0.949 . S
C606 C610 1.368 . S
C607 C588 1.429 . S
C607 C601 1.429 . S
C607 C608 1.523 . S
C608 C589 1.368 . S
C608 C602 1.368 . S
C608 C607 1.523 . S
C609 C593 1.429 . S
C609 C605 1.429 . S
C609 C610 1.523 . S
C610 C594 1.368 . S
C610 C606 1.368 . S
C610 C609 1.523 . S
H611 C586 0.950 . S
H612 C588 0.950 . S
H613 C589 0.949 . S
H614 C591 0.950 . S
H615 C593 0.950 . S
C616 C617 1.349 . S
C616 C618 1.327 . S
C616 H641 0.950 . S
C617 C616 1.349 . S
C617 C633 1.349 . S
C618 C616 1.327 . S
C618 C637 1.429 . S
C618 H642 0.950 . S
C619 C636 1.575 1_655 S
C619 C638 1.362 . S
C619 H643 0.953 1_655 S
H620 C624 0.949 . S
C621 C622 1.349 . S
C621 C623 1.327 1_556 S
C621 H644 0.950 . S
C622 C621 1.349 . S
C622 C634 1.349 1_455 S
C623 C621 1.327 1_554 S
C623 C639 1.429 1_455 S
C623 H645 0.950 . S
C624 H620 0.949 . S
C624 C632 1.574 . S
C624 C640 1.368 . S
H625 C633 0.950 . S
H626 C631 0.950 1_455 S
H627 C632 0.949 . S
H628 C634 0.950 . S
H629 C635 0.950 . S
H630 C636 0.949 . S
C631 H626 0.950 1_655 S
C631 C633 1.327 . S
C631 C637 1.429 . S
C632 C624 1.574 . S
C632 H627 0.949 . S
C632 C638 1.368 . S
C633 C617 1.349 . S
C633 H625 0.950 . S
C633 C631 1.327 . S
C634 C622 1.349 1_655 S
C634 H628 0.950 . S
C634 C635 1.327 1_556 S
C635 H629 0.950 . S
C635 C634 1.327 1_554 S
C635 C639 1.429 . S
C636 C619 1.575 1_455 S
C636 H630 0.949 . S
C636 C640 1.368 1_455 S
C637 C618 1.429 . S
C637 C631 1.429 . S
C637 C638 1.523 . S
C638 C619 1.362 . S
C638 C632 1.368 . S
C638 C637 1.523 . S
C639 C623 1.429 1_655 S
C639 C635 1.429 . S
C639 C640 1.523 . S
C640 C624 1.368 . S
C640 C636 1.368 1_655 S
C640 C639 1.523 . S
H641 C616 0.950 . S
H642 C618 0.950 . S
H643 C619 0.953 1_455 S
H644 C621 0.950 . S
H645 C623 0.950 . S
C646 C647 1.349 . S
C646 C648 1.327 . S
C646 H671 0.950 1_565 S
C647 C646 1.349 . S
C647 C663 1.349 . S
C648 C646 1.327 . S
C648 C667 1.429 . S
C648 H672 0.950 1_565 S
C649 C666 1.574 . S
C649 C668 1.368 . S
C649 H673 0.949 . S
H650 C654 0.949 . S
C651 C652 1.318 1_565 S
C651 C653 1.337 . S
C651 H674 0.972 . S
C652 C651 1.318 1_545 S
C652 C664 1.349 . S
C653 C651 1.337 . S
C653 C669 1.429 1_565 S
C653 H675 0.950 . S
C654 H650 0.949 . S
C654 C662 1.574 . S
C654 C670 1.368 . S
H655 C663 0.950 . S
H656 C661 0.950 . S
H657 C662 0.949 . S
H658 C664 0.950 . S
H659 C665 0.950 . S
H660 C666 0.949 . S
C661 H656 0.950 . S
C661 C663 1.327 . S
C661 C667 1.429 . S
C662 C654 1.574 . S
C662 H657 0.949 . S
C662 C668 1.368 1_545 S
C663 C647 1.349 . S
C663 H655 0.950 . S
C663 C661 1.327 . S
C664 C652 1.349 . S
C664 H658 0.950 . S
C664 C665 1.327 . S
C665 H659 0.950 . S
C665 C664 1.327 . S
C665 C669 1.429 . S
C666 C649 1.574 . S
C666 H660 0.949 . S
C666 C670 1.368 1_565 S
C667 C648 1.429 . S
C667 C661 1.429 . S
C667 C668 1.523 . S
C668 C649 1.368 . S
C668 C662 1.368 1_565 S
C668 C667 1.523 . S
C669 C653 1.429 1_545 S
C669 C665 1.429 . S
C669 C670 1.523 1_556 S
C670 C654 1.368 . S
C670 C666 1.368 1_545 S
C670 C669 1.523 1_554 S
H671 C646 0.950 1_545 S
H672 C648 0.950 1_545 S
H673 C649 0.949 . S
H674 C651 0.972 . S
H675 C653 0.950 . S
C676 C677 1.349 . S
C676 C678 1.327 . S
C676 H701 0.950 . S
C677 C676 1.349 . S
C677 C693 1.349 . S
C678 C676 1.327 . S
C678 C697 1.429 . S
C678 H702 0.950 . S
C679 C696 1.574 . S
C679 C698 1.368 . S
C679 H703 0.949 . S
H680 C684 0.949 . S
C681 C682 1.349 . S
C681 C683 1.327 . S
C681 H704 0.950 . S
C682 C681 1.349 . S
C682 C694 1.349 . S
C683 C681 1.327 . S
C683 C699 1.429 . S
C683 H705 0.950 . S
C684 H680 0.949 . S
C684 C692 1.574 1_556 S
C684 C700 1.368 . S
H685 C693 0.950 . S
H686 C691 0.950 . S
H687 C692 0.949 . S
H688 C694 0.950 . S
H689 C695 0.950 . S
H690 C696 0.949 . S
C691 H686 0.950 . S
C691 C693 1.327 . S
C691 C697 1.429 . S
C692 C684 1.574 1_554 S
C692 H687 0.949 . S
C692 C698 1.368 . S
C693 C677 1.349 . S
C693 H685 0.950 . S
C693 C691 1.327 . S
C694 C682 1.349 . S
C694 H688 0.950 . S
C694 C695 1.327 . S
C695 H689 0.950 . S
C695 C694 1.327 . S
C695 C699 1.429 . S
C696 C679 1.574 . S
C696 H690 0.949 . S
C696 C700 1.368 1_554 S
C697 C678 1.429 . S
C697 C691 1.429 . S
C697 C698 1.523 . S
C698 C679 1.368 . S
C698 C692 1.368 . S
C698 C697 1.523 . S
C699 C683 1.429 . S
C699 C695 1.429 . S
C699 C700 1.523 . S
C700 C684 1.368 . S
C700 C696 1.368 1_556 S
C700 C699 1.523 . S
H701 C676 0.950 . S
H702 C678 0.950 . S
H703 C679 0.949 . S
H704 C681 0.950 . S
H705 C683 0.950 . S
C706 C707 1.349 . S
C706 C708 1.327 . S
C706 H731 0.950 . S
C707 C706 1.349 . S
C707 C723 1.349 . S
C708 C706 1.327 . S
C708 C727 1.429 . S
C708 H732 0.950 . S
C709 C726 1.574 . S
C709 C728 1.368 . S
C709 H733 0.949 . S
H710 C714 0.949 1_556 S
C711 C712 1.349 . S
C711 C713 1.327 1_556 S
C711 H734 0.950 . S
C712 C711 1.349 . S
C712 C724 1.349 . S
C713 C711 1.327 1_554 S
C713 C729 1.429 . S
C713 H735 0.950 . S
C714 H710 0.949 1_554 S
C714 C722 1.574 . S
C714 C730 1.368 . S
H715 C723 0.950 . S
H716 C721 0.950 . S
H717 C722 0.949 . S
H718 C724 0.950 . S
H719 C725 0.950 . S
H720 C726 0.949 . S
C721 H716 0.950 . S
C721 C723 1.327 . S
C721 C727 1.429 . S
C722 C714 1.574 . S
C722 H717 0.949 . S
C722 C728 1.368 . S
C723 C707 1.349 . S
C723 H715 0.950 . S
C723 C721 1.327 . S
C724 C712 1.349 . S
C724 H718 0.950 . S
C724 C725 1.327 . S
C725 H719 0.950 . S
C725 C724 1.327 . S
C725 C729 1.429 1_556 S
C726 C709 1.574 . S
C726 H720 0.949 . S
C726 C730 1.368 . S
C727 C708 1.429 . S
C727 C721 1.429 . S
C727 C728 1.523 . S
C728 C709 1.368 . S
C728 C722 1.368 . S
C728 C727 1.523 . S
C729 C713 1.429 . S
C729 C725 1.429 1_554 S
C729 C730 1.523 . S
C730 C714 1.368 . S
C730 C726 1.368 . S
C730 C729 1.523 . S
H731 C706 0.950 . S
H732 C708 0.950 . S
H733 C709 0.949 . S
H734 C711 0.950 . S
H735 C713 0.950 . S
C736 C737 1.349 . S
C736 C738 1.327 . S
C736 H761 0.950 . S
C737 C736 1.349 . S
C737 C753 1.349 . S
C738 C736 1.327 . S
C738 C757 1.429 . S
C738 H762 0.950 . S
C739 C756 1.574 . S
C739 C758 1.368 . S
C739 H763 0.949 . S
H740 C744 0.949 . S
C741 C742 1.349 . S
C741 C743 1.327 . S
C741 H764 0.950 . S
C742 C741 1.349 . S
C742 C754 1.349 . S
C743 C741 1.327 . S
C743 C759 1.429 . S
C743 H765 0.950 . S
C744 H740 0.949 . S
C744 C752 1.574 . S
C744 C760 1.368 . S
H745 C753 0.950 . S
H746 C751 0.950 . S
H747 C752 0.949 . S
H748 C754 0.950 . S
H749 C755 0.950 . S
H750 C756 0.949 . S
C751 H746 0.950 . S
C751 C753 1.327 . S
C751 C757 1.429 . S
C752 C744 1.574 . S
C752 H747 0.949 . S
C752 C758 1.368 . S
C753 C737 1.349 . S
C753 H745 0.950 . S
C753 C751 1.327 . S
C754 C742 1.349 . S
C754 H748 0.950 . S
C754 C755 1.327 . S
C755 H749 0.950 . S
C755 C754 1.327 . S
C755 C759 1.429 . S
C756 C739 1.574 . S
C756 H750 0.949 . S
C756 C760 1.368 . S
C757 C738 1.429 . S
C757 C751 1.429 . S
C757 C758 1.523 . S
C758 C739 1.368 . S
C758 C752 1.368 . S
C758 C757 1.523 . S
C759 C743 1.429 . S
C759 C755 1.429 . S
C759 C760 1.523 . S
C760 C744 1.368 . S
C760 C756 1.368 . S
C760 C759 1.523 . S
H761 C736 0.950 . S
H762 C738 0.950 . S
H763 C739 0.949 . S
H764 C741 0.950 . S
H765 C743 0.950 . S
C766 C767 1.349 . S
C766 C768 1.327 . S
C766 H791 0.950 . S
C767 C766 1.349 . S
C767 C783 1.349 . S
C768 C766 1.327 . S
C768 C787 1.429 . S
C768 H792 0.950 . S
C769 C786 1.574 . S
C769 C788 1.368 . S
C769 H793 0.949 . S
H770 C774 0.949 . S
C771 C772 1.349 . S
C771 C773 1.327 . S
C771 H794 0.950 . S
C772 C771 1.349 . S
C772 C784 1.349 . S
C773 C771 1.327 . S
C773 C789 1.429 . S
C773 H795 0.950 . S
C774 H770 0.949 . S
C774 C782 1.574 . S
C774 C790 1.368 . S
H775 C783 0.950 . S
H776 C781 0.950 . S
H777 C782 0.949 . S
H778 C784 0.950 . S
H779 C785 0.950 . S
H780 C786 0.949 . S
C781 H776 0.950 . S
C781 C783 1.327 . S
C781 C787 1.429 . S
C782 C774 1.574 . S
C782 H777 0.949 . S
C782 C788 1.368 . S
C783 C767 1.349 . S
C783 H775 0.950 . S
C783 C781 1.327 . S
C784 C772 1.349 . S
C784 H778 0.950 . S
C784 C785 1.327 . S
C785 H779 0.950 . S
C785 C784 1.327 . S
C785 C789 1.429 . S
C786 C769 1.574 . S
C786 H780 0.949 . S
C786 C790 1.368 . S
C787 C768 1.429 . S
C787 C781 1.429 . S
C787 C788 1.523 . S
C788 C769 1.368 . S
C788 C782 1.368 . S
C788 C787 1.523 . S
C789 C773 1.429 . S
C789 C785 1.429 . S
C789 C790 1.523 . S
C790 C774 1.368 . S
C790 C786 1.368 . S
C790 C789 1.523 . S
H791 C766 0.950 . S
H792 C768 0.950 . S
H793 C769 0.949 . S
H794 C771 0.950 . S
H795 C773 0.950 . S
C796 C797 1.349 . S
C796 C798 1.327 . S
C796 H821 0.950 1_556 S
C797 C796 1.349 . S
C797 C813 1.349 . S
C798 C796 1.327 . S
C798 C817 1.429 . S
C798 H822 0.950 . S
C799 C816 1.574 . S
C799 C818 1.368 . S
C799 H823 0.949 . S
H800 C804 0.949 . S
C801 C802 1.349 . S
C801 C803 1.327 . S
C801 H824 0.950 . S
C802 C801 1.349 . S
C802 C814 1.349 . S
C803 C801 1.327 . S
C803 C819 1.429 . S
C803 H825 0.950 . S
C804 H800 0.949 . S
C804 C812 1.574 . S
C804 C820 1.368 . S
H805 C813 0.950 . S
H806 C811 0.950 . S
H807 C812 0.949 . S
H808 C814 0.950 . S
H809 C815 0.950 . S
H810 C816 0.949 . S
C811 H806 0.950 . S
C811 C813 1.327 . S
C811 C817 1.429 . S
C812 C804 1.574 . S
C812 H807 0.949 . S
C812 C818 1.368 . S
C813 C797 1.349 . S
C813 H805 0.950 . S
C813 C811 1.327 . S
C814 C802 1.349 . S
C814 H808 0.950 . S
C814 C815 1.327 . S
C815 H809 0.950 . S
C815 C814 1.327 . S
C815 C819 1.429 . S
C816 C799 1.574 . S
C816 H810 0.949 . S
C816 C820 1.368 . S
C817 C798 1.429 . S
C817 C811 1.429 . S
C817 C818 1.523 . S
C818 C799 1.368 . S
C818 C812 1.368 . S
C818 C817 1.523 . S
C819 C803 1.429 . S
C819 C815 1.429 . S
C819 C820 1.523 . S
C820 C804 1.368 . S
C820 C816 1.368 . S
C820 C819 1.523 . S
H821 C796 0.950 1_554 S
H822 C798 0.950 . S
H823 C799 0.949 . S
H824 C801 0.950 . S
H825 C803 0.950 . S
C826 C827 1.349 . S
C826 C828 1.327 . S
C826 H851 0.950 . S
C827 C826 1.349 . S
C827 C843 1.349 . S
C828 C826 1.327 . S
C828 C847 1.429 . S
C828 H852 0.950 . S
C829 C846 1.574 . S
C829 C848 1.368 . S
C829 H853 0.949 . S
H830 C834 0.949 . S
C831 C832 1.349 . S
C831 C833 1.327 . S
C831 H854 0.950 . S
C832 C831 1.349 . S
C832 C844 1.349 . S
C833 C831 1.327 . S
C833 C849 1.429 . S
C833 H855 0.950 . S
C834 H830 0.949 . S
C834 C842 1.574 . S
C834 C850 1.368 . S
H835 C843 0.950 1_554 S
H836 C841 0.940 1_554 S
H837 C842 0.949 . S
H838 C844 0.950 . S
H839 C845 0.950 . S
H840 C846 0.949 . S
C841 H836 0.940 1_556 S
C841 C843 1.327 . S
C841 C847 1.429 . S
C842 C834 1.574 . S
C842 H837 0.949 . S
C842 C848 1.368 . S
C843 C827 1.349 . S
C843 H835 0.950 1_556 S
C843 C841 1.327 . S
C844 C832 1.349 . S
C844 H838 0.950 . S
C844 C845 1.327 . S
C845 H839 0.950 . S
C845 C844 1.327 . S
C845 C849 1.429 . S
C846 C829 1.574 . S
C846 H840 0.949 . S
C846 C850 1.368 . S
C847 C828 1.429 . S
C847 C841 1.429 . S
C847 C848 1.523 . S
C848 C829 1.368 . S
C848 C842 1.368 . S
C848 C847 1.523 . S
C849 C833 1.429 . S
C849 C845 1.429 . S
C849 C850 1.523 . S
C850 C834 1.368 . S
C850 C846 1.368 . S
C850 C849 1.523 . S
H851 C826 0.950 . S
H852 C828 0.950 . S
H853 C829 0.949 . S
H854 C831 0.950 . S
H855 C833 0.950 . S
C856 C857 1.349 . S
C856 C858 1.327 . S
C856 H881 0.950 . S
C857 C856 1.349 . S
C857 C873 1.349 . S
C858 C856 1.327 . S
C858 C877 1.429 . S
C858 H882 0.950 . S
C859 C876 1.574 . S
C859 C878 1.368 . S
C859 H883 0.949 . S
H860 C864 0.949 . S
C861 C862 1.349 . S
C861 C863 1.327 . S
C861 H884 0.950 . S
C862 C861 1.349 . S
C862 C874 1.346 1_655 S
C863 C861 1.327 . S
C863 C879 1.429 . S
C863 H885 0.950 . S
C864 H860 0.949 . S
C864 C872 1.574 . S
C864 C880 1.368 . S
H865 C873 0.950 . S
H866 C871 0.950 . S
H867 C872 0.949 . S
H868 C874 0.954 . S
H869 C875 0.950 1_455 S
H870 C876 0.949 . S
C871 H866 0.950 . S
C871 C873 1.327 . S
C871 C877 1.429 . S
C872 C864 1.574 . S
C872 H867 0.949 . S
C872 C878 1.368 . S
C873 C857 1.349 . S
C873 H865 0.950 . S
C873 C871 1.327 . S
C874 C862 1.346 1_455 S
C874 H868 0.954 . S
C874 C875 1.326 1_455 S
C875 H869 0.950 1_655 S
C875 C874 1.326 1_655 S
C875 C879 1.429 . S
C876 C859 1.574 . S
C876 H870 0.949 . S
C876 C880 1.368 . S
C877 C858 1.429 . S
C877 C871 1.429 . S
C877 C878 1.523 . S
C878 C859 1.368 . S
C878 C872 1.368 . S
C878 C877 1.523 . S
C879 C863 1.429 . S
C879 C875 1.429 . S
C879 C880 1.523 . S
C880 C864 1.368 . S
C880 C876 1.368 . S
C880 C879 1.523 . S
H881 C856 0.950 . S
H882 C858 0.950 . S
H883 C859 0.949 . S
H884 C861 0.950 . S
H885 C863 0.950 . S
C886 C887 1.349 . S
C886 C888 1.327 . S
C886 H911 0.950 . S
C887 C886 1.349 . S
C887 C903 1.349 . S
C888 C886 1.327 . S
C888 C907 1.429 . S
C888 H912 0.950 . S
C889 C906 1.574 . S
C889 C908 1.368 . S
C889 H913 0.949 1_565 S
H890 C894 0.949 . S
C891 C892 1.349 1_545 S
C891 C893 1.327 . S
C891 H914 0.950 . S
C892 C891 1.349 1_565 S
C892 C904 1.349 . S
C893 C891 1.327 . S
C893 C909 1.429 1_545 S
C893 H915 0.950 . S
C894 H890 0.949 . S
C894 C902 1.574 . S
C894 C910 1.368 . S
H895 C903 0.950 . S
H896 C901 0.956 . S
H897 C902 0.949 . S
H898 C904 0.950 . S
H899 C905 0.950 . S
H900 C906 0.949 1_545 S
C901 H896 0.956 . S
C901 C903 1.327 . S
C901 C907 1.429 . S
C902 C894 1.574 . S
C902 H897 0.949 . S
C902 C908 1.368 . S
C903 C887 1.349 . S
C903 H895 0.950 . S
C903 C901 1.327 . S
C904 C892 1.349 . S
C904 H898 0.950 . S
C904 C905 1.327 . S
C905 H899 0.950 . S
C905 C904 1.327 . S
C905 C909 1.429 . S
C906 C889 1.574 . S
C906 H900 0.949 1_565 S
C906 C910 1.368 . S
C907 C888 1.429 . S
C907 C901 1.429 . S
C907 C908 1.523 . S
C908 C889 1.368 . S
C908 C902 1.368 . S
C908 C907 1.523 . S
C909 C893 1.429 1_565 S
C909 C905 1.429 . S
C909 C910 1.523 . S
C910 C894 1.368 . S
C910 C906 1.368 . S
C910 C909 1.523 . S
H911 C886 0.950 . S
H912 C888 0.950 . S
H913 C889 0.949 1_545 S
H914 C891 0.950 . S
H915 C893 0.950 . S
C916 C917 1.349 . S
C916 C918 1.327 . S
C916 H941 0.950 . S
C917 C916 1.349 . S
C917 C933 1.349 . S
C918 C916 1.327 . S
C918 C937 1.429 . S
C918 H942 0.950 . S
C919 C936 1.574 . S
C919 C938 1.368 . S
C919 H943 0.949 . S
H920 C924 0.949 . S
C921 C922 1.349 . S
C921 C923 1.327 . S
C921 H944 0.950 . S
C922 C921 1.349 . S
C922 C934 1.349 . S
C923 C921 1.327 . S
C923 C939 1.429 . S
C923 H945 0.950 . S
C924 H920 0.949 . S
C924 C932 1.574 . S
C924 C940 1.368 . S
H925 C933 0.950 . S
H926 C931 0.950 . S
H927 C932 0.949 . S
H928 C934 0.950 . S
H929 C935 0.950 . S
H930 C936 0.949 . S
C931 H926 0.950 . S
C931 C933 1.327 . S
C931 C937 1.429 . S
C932 C924 1.574 . S
C932 H927 0.949 . S
C932 C938 1.368 . S
C933 C917 1.349 . S
C933 H925 0.950 . S
C933 C931 1.327 . S
C934 C922 1.349 . S
C934 H928 0.950 . S
C934 C935 1.327 . S
C935 H929 0.950 . S
C935 C934 1.327 . S
C935 C939 1.429 . S
C936 C919 1.574 . S
C936 H930 0.949 . S
C936 C940 1.368 . S
C937 C918 1.429 . S
C937 C931 1.429 . S
C937 C938 1.523 . S
C938 C919 1.368 . S
C938 C932 1.368 . S
C938 C937 1.523 . S
C939 C923 1.429 . S
C939 C935 1.429 . S
C939 C940 1.523 . S
C940 C924 1.368 . S
C940 C936 1.368 . S
C940 C939 1.523 . S
H941 C916 0.950 . S
H942 C918 0.950 . S
H943 C919 0.949 . S
H944 C921 0.950 . S
H945 C923 0.950 . S
C946 C947 1.349 . S
C946 C948 1.327 . S
C946 H971 0.950 . S
C947 C946 1.349 . S
C947 C963 1.349 . S
C948 C946 1.327 . S
C948 C967 1.429 . S
C948 H972 0.950 . S
C949 C966 1.574 . S
C949 C968 1.368 . S
C949 H973 0.949 . S
H950 C954 0.949 . S
C951 C952 1.349 . S
C951 C953 1.327 . S
C951 H974 0.950 . S
C952 C951 1.349 . S
C952 C964 1.349 . S
C953 C951 1.327 . S
C953 C969 1.429 . S
C953 H975 0.950 . S
C954 H950 0.949 . S
C954 C962 1.574 . S
C954 C970 1.368 . S
H955 C963 0.950 . S
H956 C961 0.950 . S
H957 C962 0.949 . S
H958 C964 0.950 . S
H959 C965 0.950 . S
H960 C966 0.949 . S
C961 H956 0.950 . S
C961 C963 1.327 . S
C961 C967 1.429 . S
C962 C954 1.574 . S
C962 H957 0.949 . S
C962 C968 1.368 . S
C963 C947 1.349 . S
C963 H955 0.950 . S
C963 C961 1.327 . S
C964 C952 1.349 . S
C964 H958 0.950 . S
C964 C965 1.327 . S
C965 H959 0.950 . S
C965 C964 1.327 . S
C965 C969 1.429 . S
C966 C949 1.574 . S
C966 H960 0.949 . S
C966 C970 1.368 . S
C967 C948 1.429 . S
C967 C961 1.429 . S
C967 C968 1.523 . S
C968 C949 1.368 . S
C968 C962 1.368 . S
C968 C967 1.523 . S
C969 C953 1.429 . S
C969 C965 1.429 . S
C969 C970 1.523 . S
C970 C954 1.368 . S
C970 C966 1.368 . S
C970 C969 1.523 . S
H971 C946 0.950 . S
H972 C948 0.950 . S
H973 C949 0.949 . S
H974 C951 0.950 . S
H975 C953 0.950 . S
C257 C76 2.122 . S
C262 C127 2.284 . S
C292 C153 1.691 . S
C287 C88 1.573 . S
C322 C193 1.837 . S
C317 C52 1.729 . S
C352 C247 2.374 . S
C347 C64 2.230 . S
C382 C108 2.278 1_565 S
C377 C28 2.130 . S
C407 C40 1.568 . S
C412 C138 1.691 . S
C437 C4 1.735 . S
C442 C178 1.836 . S
C467 C16 2.239 . S
C472 C228 2.375 1_655 S
C502 C104 0.295 . S
C497 C69 0.361 . S
C532 C165 0.532 . S
C527 C81 0.530 . S
C562 C205 0.419 . S
C557 C93 0.417 . S
C587 C57 0.343 . S
C592 C224 0.229 . S
C617 C21 0.385 . S
C622 C125 0.295 . S
C652 C144 0.532 . S
C647 C33 0.538 . S
C682 C184 0.419 . S
C677 C45 0.419 . S
C707 C9 0.367 . S
C712 C245 0.230 . S
C737 C66 1.783 . S
C742 C98 1.942 . S
C767 C78 2.388 . S
C772 C148 2.566 . S
C802 C188 2.310 . S
C797 C90 2.146 . S
C832 C218 1.684 . S
C827 C54 1.559 1_556 S
C857 C18 1.770 . S
C862 C113 1.942 . S
C892 C167 2.573 . S
C887 C30 2.379 . S
C922 C207 2.310 . S
C917 C42 2.158 . S
C947 C6 1.550 . S
C952 C233 1.685 . S
