# Generated by pormake.
# Topology zzz, (3,6)-cn, num edge types: 1
# Building blocks:
#     Node 0, Type 0, BuildingBlock: BETDAH_clean_linker_0, # of connection points: 3
#     Node 1, Type 0, BuildingBlock: BETDAH_clean_linker_0, # of connection points: 3
#     Node 2, Type 0, BuildingBlock: BETDAH_clean_linker_0, # of connection points: 3
#     Node 3, Type 0, BuildingBlock: BETDAH_clean_linker_0, # of connection points: 3
#     Node 4, Type 0, BuildingBlock: BETDAH_clean_linker_0, # of connection points: 3
#     Node 5, Type 0, BuildingBlock: BETDAH_clean_linker_0, # of connection points: 3
#     Node 6, Type 0, BuildingBlock: BETDAH_clean_linker_0, # of connection points: 3
#     Node 7, Type 0, BuildingBlock: BETDAH_clean_linker_0, # of connection points: 3
#     Node 8, Type 1, BuildingBlock: BETGAK_clean_sbu_0, # of connection points: 6
#     Node 9, Type 1, BuildingBlock: BETGAK_clean_sbu_0, # of connection points: 6
#     Node 10, Type 1, BuildingBlock: BETGAK_clean_sbu_0, # of connection points: 6
#     Node 11, Type 1, BuildingBlock: BETGAK_clean_sbu_0, # of connection points: 6
#     Edge 12, Type (0, 1), BuildingBlock: XUDNAN_clean_linker_2, # of connection points: 2
#     Edge 13, Type (0, 1), BuildingBlock: XUDNAN_clean_linker_2, # of connection points: 2
#     Edge 14, Type (0, 1), BuildingBlock: XUDNAN_clean_linker_2, # of connection points: 2
#     Edge 15, Type (0, 1), BuildingBlock: XUDNAN_clean_linker_2, # of connection points: 2
#     Edge 16, Type (0, 1), BuildingBlock: XUDNAN_clean_linker_2, # of connection points: 2
#     Edge 17, Type (0, 1), BuildingBlock: XUDNAN_clean_linker_2, # of connection points: 2
#     Edge 18, Type (0, 1), BuildingBlock: XUDNAN_clean_linker_2, # of connection points: 2
#     Edge 19, Type (0, 1), BuildingBlock: XUDNAN_clean_linker_2, # of connection points: 2
#     Edge 20, Type (0, 1), BuildingBlock: XUDNAN_clean_linker_2, # of connection points: 2
#     Edge 21, Type (0, 1), BuildingBlock: XUDNAN_clean_linker_2, # of connection points: 2
#     Edge 22, Type (0, 1), BuildingBlock: XUDNAN_clean_linker_2, # of connection points: 2
#     Edge 23, Type (0, 1), BuildingBlock: XUDNAN_clean_linker_2, # of connection points: 2
#     Edge 24, Type (0, 1), BuildingBlock: XUDNAN_clean_linker_2, # of connection points: 2
#     Edge 25, Type (0, 1), BuildingBlock: XUDNAN_clean_linker_2, # of connection points: 2
#     Edge 26, Type (0, 1), BuildingBlock: XUDNAN_clean_linker_2, # of connection points: 2
#     Edge 27, Type (0, 1), BuildingBlock: XUDNAN_clean_linker_2, # of connection points: 2
#     Edge 28, Type (0, 1), BuildingBlock: XUDNAN_clean_linker_2, # of connection points: 2
#     Edge 29, Type (0, 1), BuildingBlock: XUDNAN_clean_linker_2, # of connection points: 2
#     Edge 30, Type (0, 1), BuildingBlock: XUDNAN_clean_linker_2, # of connection points: 2
#     Edge 31, Type (0, 1), BuildingBlock: XUDNAN_clean_linker_2, # of connection points: 2
#     Edge 32, Type (0, 1), BuildingBlock: XUDNAN_clean_linker_2, # of connection points: 2
#     Edge 33, Type (0, 1), BuildingBlock: XUDNAN_clean_linker_2, # of connection points: 2
#     Edge 34, Type (0, 1), BuildingBlock: XUDNAN_clean_linker_2, # of connection points: 2
#     Edge 35, Type (0, 1), BuildingBlock: XUDNAN_clean_linker_2, # of connection points: 2
# Relax obj value: 0.282
# Max RMSD: 0.194
# Mean RMSD: 0.162
data_MOF--net-zzz--node1-BETGAK_clean_sbu_0--node2-BETDAH_clean_linker_0--edge1-XUDNAN_clean_linker_2
_symmetry_space_group_name_H-M    P1
_symmetry_Int_Tables_number       1
_symmetry_cell_setting            triclinic
loop_
_symmetry_equiv_pos_as_xyz
'x, y, z'
_cell_length_a     52.214727
_cell_length_b     52.508605
_cell_length_c     13.530565
_cell_angle_alpha  89.870236
_cell_angle_beta   89.694033
_cell_angle_gamma 89.932619
loop_
_atom_site_label
_atom_site_type_symbol
_atom_site_fract_x
_atom_site_fract_y
_atom_site_fract_z
_atom_type_partial_charge
H0 H 0.80831 0.48722 0.44298 0.0
H1 H 0.73619 0.49657 0.29645 0.0
H2 H 0.76628 0.5569 0.47796 0.0
C3 C 0.79079 0.49809 0.43312 0.0
C4 C 0.78952 0.52267 0.47169 0.0
C5 C 0.7721 0.48896 0.36814 0.0
C6 C 0.75013 0.50351 0.3489 0.0
C7 C 0.74723 0.52773 0.39139 0.0
C8 C 0.76749 0.53758 0.45043 0.0
N9 N 0.7252 0.54319 0.37111 0.0
C10 C 0.70353 0.5366 0.31473 0.0
H11 H 1.00105 0.81435 0.35325 0.0
H12 H 1.00991 0.73807 0.2495 0.0
H13 H 0.03548 0.7582 0.5433 0.0
C14 C 1.00716 0.79494 0.36807 0.0
C15 C 1.01912 0.78926 0.45757 0.0
C16 C 1.00398 0.77664 0.29413 0.0
C17 C 1.0119 0.75165 0.30908 0.0
C18 C 0.02279 0.74445 0.39952 0.0
C19 C 0.02644 0.76342 0.47431 0.0
N20 N 0.03075 0.7186 0.41497 0.0
C21 C 0.02856 0.69861 0.34577 0.0
H22 H 0.731 0.99088 0.32946 0.0
H23 H 0.80894 1.00574 0.25648 0.0
H24 H 0.77947 0.0272 0.54294 0.0
C25 C 0.7499 0.99667 0.35372 0.0
C26 C 0.75188 1.00921 0.44473 0.0
C27 C 0.76933 0.99906 0.28255 0.0
C28 C 0.79403 1.00487 0.31237 0.0
C29 C 0.79857 1.01377 0.40815 0.0
C30 C 0.77696 1.01728 0.47363 0.0
N31 N 0.82401 0.02178 0.43377 0.0
C32 C 0.84524 0.0218 0.36789 0.0
H33 H 0.53666 0.72021 0.39838 0.0
H34 H 0.53731 0.79588 0.28236 0.0
H35 H 0.51139 0.78181 0.58194 0.0
C36 C 0.53447 0.7405 0.41002 0.0
C37 C 0.52526 0.74854 0.50155 0.0
C38 C 0.53779 0.75736 0.33037 0.0
C39 C 0.53393 0.78332 0.34416 0.0
C40 C 0.52432 0.79278 0.43376 0.0
C41 C 0.51958 0.77507 0.51312 0.0
N42 N 0.51834 0.81953 0.44197 0.0
C43 C 0.5199 0.8372 0.3626 0.0
H44 H 0.23417 0.54788 0.05309 0.0
H45 H 0.30703 0.53469 0.18601 0.0
H46 H 0.27525 0.47885 0.98875 0.0
C47 C 0.25179 0.53688 0.05504 0.0
C48 C 0.25255 0.51319 0.00802 0.0
C49 C 0.27083 0.54391 0.1222 0.0
C50 C 0.29297 0.52921 0.13146 0.0
C51 C 0.29526 0.50593 0.08175 0.0
C52 C 0.27456 0.4976 0.02176 0.0
N53 N 0.31698 0.4898 0.09865 0.0
C54 C 0.33752 0.49585 0.16145 0.0
H55 H 1.00844 0.22118 0.14619 0.0
H56 H 1.0137 0.29692 0.25506 0.0
H57 H 0.04511 0.27859 0.96704 0.0
C58 C 1.01454 0.24072 0.13437 0.0
C59 C 0.02784 0.24694 0.04809 0.0
C60 C 1.00889 0.25896 0.20629 0.0
C61 C 1.01727 0.28384 0.19549 0.0
C62 C 0.03002 0.2917 0.10938 0.0
C63 C 0.03521 0.273 0.03416 0.0
N64 N 0.0375 0.31801 0.099 0.0
C65 C 0.03206 0.33727 0.16953 0.0
H66 H 0.31423 0.02511 0.16684 0.0
H67 H 0.23529 0.02455 0.24876 0.0
H68 H 0.2572 1.01482 0.94135 0.0
C69 C 0.29442 0.02309 0.1441 0.0
C70 C 0.2888 0.01919 0.04447 0.0
C71 C 0.27516 0.02502 0.216 0.0
C72 C 0.24959 0.02311 0.19077 0.0
C73 C 0.24258 0.01934 0.092 0.0
C74 C 0.26236 0.01763 0.01793 0.0
N75 N 0.21595 1.01712 0.06755 0.0
C76 C 0.19574 0.01992 0.13664 0.0
H77 H 0.54745 0.30716 0.10274 0.0
H78 H 0.5397 0.23251 0.22837 0.0
H79 H 0.49068 0.25619 0.98883 0.0
C80 C 0.5393 0.28816 0.09926 0.0
C81 C 0.51919 0.28399 0.03386 0.0
C82 C 0.54594 0.27011 0.17146 0.0
C83 C 0.53447 0.24606 0.17145 0.0
C84 C 0.51499 0.24027 0.10428 0.0
C85 C 0.50684 0.25972 0.03669 0.0
N86 N 0.50261 0.21577 0.10795 0.0
C87 C 0.50588 0.1972 0.18309 0.0
La88 La 0.04493 1.01348 0.85076 0.0
La89 La 1.00391 0.01965 0.67948 0.0
C90 C 0.06119 1.00215 0.01716 0.0
C91 C 0.04967 0.98167 0.0758 0.0
C92 C 0.06503 0.9618 0.11112 0.0
C93 C 0.05418 0.93799 0.13079 0.0
C94 C 0.02799 0.93366 0.11217 0.0
C95 C 1.01245 0.95431 0.08497 0.0
C96 C 0.02312 0.97809 0.06856 0.0
C97 C 0.06747 0.02128 0.67463 0.0
C98 C 0.02283 0.96418 0.73456 0.0
C99 C 0.98509 0.02873 0.51379 0.0
C100 C 0.98533 0.05294 0.4605 0.0
C101 C 0.96191 0.06521 0.44353 0.0
C102 C 0.96119 0.09153 0.43207 0.0
C103 C 0.98397 0.10568 0.43569 0.0
C104 C 1.00758 0.09295 0.43955 0.0
C105 C 1.00828 0.06675 0.4527 0.0
C106 C 0.98103 1.01185 0.85623 0.0
C107 C 0.02563 0.06943 0.79599 0.0
O108 O 0.07204 0.99392 0.93554 0.0
O109 O 0.04651 0.02216 1.00199 0.0
O110 O 0.07976 0.01841 0.75701 0.0
O111 O 0.04405 0.02038 0.69756 0.0
O112 O 0.03346 0.97363 0.8162 0.0
O113 O 1.0118 0.97888 0.66733 0.0
O114 O 0.97187 0.02961 0.59622 0.0
O115 O 1.00728 1.01736 0.5251 0.0
O116 O 0.96919 1.01461 0.77304 0.0
O117 O 1.0046 1.01253 0.83373 0.0
O118 O 1.01298 0.05982 0.71855 0.0
O119 O 0.03844 0.05477 0.8592 0.0
H120 H 0.08562 0.96402 0.11532 0.0
H121 H 0.06662 0.92271 0.15486 0.0
H122 H 0.99236 0.95189 0.06818 0.0
H123 H 1.01084 0.99292 0.0399 0.0
H124 H 0.94401 0.05487 0.44983 0.0
H125 H 0.94271 0.10088 0.42854 0.0
H126 H 0.02547 0.10338 0.43872 0.0
H127 H 0.02666 0.05777 0.46546 0.0
La128 La 0.52575 0.02768 0.84766 0.0
La129 La 0.51442 0.99702 0.65683 0.0
C130 C 0.53802 0.03761 0.02236 0.0
C131 C 0.56237 0.04617 0.06376 0.0
C132 C 0.57579 0.06671 0.02128 0.0
C133 C 0.60201 0.06929 0.03729 0.0
C134 C 0.61495 0.05123 0.09485 0.0
C135 C 0.60094 0.03259 0.14644 0.0
C136 C 0.57478 0.0301 0.13098 0.0
C137 C 0.51759 0.0604 0.69665 0.0
C138 C 0.57218 1.01434 0.69796 0.0
C139 C 0.5027 0.98451 0.48492 0.0
C140 C 0.48286 0.99558 0.42343 0.0
C141 C 0.46578 0.97945 0.37485 0.0
C142 C 0.44167 0.98836 0.34829 0.0
C143 C 0.43402 1.01313 0.37502 0.0
C144 C 0.45219 0.02988 0.41484 0.0
C145 C 0.47647 0.0212 0.43805 0.0
C146 C 0.52188 0.96462 0.81027 0.0
C147 C 0.46793 1.01654 0.79044 0.0
O148 O 0.52569 0.05366 0.9657 0.0
O149 O 0.53911 1.01479 0.98391 0.0
O150 O 0.52282 0.06645 0.78714 0.0
O151 O 0.51728 0.03617 0.69525 0.0
O152 O 0.5653 0.02385 0.78577 0.0
O153 O 0.55546 1.00356 0.6376 0.0
O154 O 0.49336 0.97342 0.56397 0.0
O155 O 0.52227 0.99928 0.50479 0.0
O156 O 0.51816 0.95852 0.71917 0.0
O157 O 0.52241 0.98875 0.80889 0.0
O158 O 0.47606 1.01117 0.69955 0.0
O159 O 0.48426 0.02048 0.86379 0.0
H160 H 0.56662 0.07942 0.96915 0.0
H161 H 0.61248 0.0839 0.99742 0.0
H162 H 0.61054 0.01873 0.19277 0.0
H163 H 0.56475 1.01413 0.1642 0.0
H164 H 0.46991 0.95939 0.36693 0.0
H165 H 0.4284 0.97516 0.31479 0.0
H166 H 0.44711 0.04894 0.43802 0.0
H167 H 0.48904 0.03377 0.47833 0.0
La168 La 0.49128 0.52031 0.83987 0.0
La169 La 0.53183 0.51308 0.69264 0.0
C170 C 0.46322 0.5357 0.97722 0.0
C171 C 0.46798 0.55949 0.02884 0.0
C172 C 0.44834 0.57739 0.04201 0.0
C173 C 0.45446 0.60279 0.06193 0.0
C174 C 0.48025 0.61034 0.06674 0.0
C175 C 0.49965 0.59201 0.05626 0.0
C176 C 0.49356 0.56689 0.03959 0.0
C177 C 0.47431 0.50684 0.66271 0.0
C178 C 0.51582 0.57009 0.73741 0.0
C179 C 0.55083 0.50287 0.52629 0.0
C180 C 0.55467 0.47817 0.47772 0.0
C181 C 0.57831 0.46556 0.48606 0.0
C182 C 0.58027 0.43987 0.46204 0.0
C183 C 0.55863 0.42663 0.42948 0.0
C184 C 0.53571 0.43972 0.41227 0.0
C185 C 0.53375 0.46538 0.43571 0.0
C186 C 0.5566 0.51984 0.86139 0.0
C187 C 0.51073 0.46466 0.81704 0.0
O188 O 0.45761 0.53898 0.88412 0.0
O189 O 0.48075 0.51812 0.98954 0.0
O190 O 0.46581 0.49779 0.74551 0.0
O191 O 0.49198 0.5224 0.68266 0.0
O192 O 0.50083 0.56043 0.80737 0.0
O193 O 0.53016 0.55506 0.68118 0.0
O194 O 0.56455 0.50682 0.60521 0.0
O195 O 0.52701 0.50969 0.53985 0.0
O196 O 0.56712 0.51579 0.7764 0.0
O197 O 0.53226 0.51993 0.85119 0.0
O198 O 0.52238 0.47254 0.73432 0.0
O199 O 0.5 0.48129 0.87695 0.0
H200 H 0.42852 0.57207 0.03114 0.0
H201 H 0.43914 0.61654 0.07033 0.0
H202 H 0.51974 0.59713 0.05562 0.0
H203 H 0.50908 0.55365 0.02647 0.0
H204 H 0.59479 0.47507 0.51729 0.0
H205 H 0.59816 0.42997 0.47533 0.0
H206 H 0.51896 0.42979 0.3853 0.0
H207 H 0.51537 0.47468 0.42679 0.0
La208 La 1.01163 0.5032 0.83709 0.0
La209 La 0.02757 0.53573 0.67655 0.0
C210 C 0.99473 0.49204 1.00493 0.0
C211 C 0.97044 0.48091 0.03896 0.0
C212 C 0.96544 0.45469 0.03001 0.0
C213 C 0.94115 0.44514 0.05246 0.0
C214 C 0.92163 0.46174 0.08297 0.0
C215 C 0.92694 0.48771 0.09554 0.0
C216 C 0.95115 0.49717 0.07434 0.0
C217 C 1.01156 0.4725 0.68095 0.0
C218 C 0.96897 0.52609 0.69369 0.0
C219 C 0.04714 0.55654 0.52729 0.0
C220 C 0.07325 0.56424 0.50251 0.0
C221 C 0.08584 0.58345 0.55591 0.0
C222 C 0.11159 0.58851 0.53776 0.0
C223 C 0.12493 0.57422 0.4672 0.0
C224 C 0.11221 0.55559 0.41198 0.0
C225 C 0.08647 0.55074 0.42916 0.0
C226 C 1.01823 0.5604 0.84532 0.0
C227 C 0.07127 0.50891 0.80532 0.0
O228 O 1.01028 0.47718 0.95488 0.0
O229 O 0.99265 0.51474 0.96516 0.0
O230 O 1.00551 0.46635 0.77055 0.0
O231 O 1.01754 0.49608 0.67917 0.0
O232 O 0.97385 0.51639 0.78212 0.0
O233 O 0.98784 0.53224 0.63355 0.0
O234 O 0.03581 0.56915 0.5981 0.0
O235 O 0.04364 0.53198 0.53545 0.0
O236 O 1.01092 0.56804 0.75902 0.0
O237 O 0.02989 0.5395 0.83377 0.0
O238 O 0.06595 0.52419 0.72984 0.0
O239 O 0.05273 0.49877 0.85928 0.0
H240 H 0.98002 0.44167 1.00343 0.0
H241 H 0.93739 0.42501 0.0432 0.0
H242 H 0.91226 0.50076 0.12123 0.0
H243 H 0.95456 0.5174 0.08299 0.0
H244 H 0.07607 0.59412 0.61324 0.0
H245 H 0.12129 0.60294 0.58072 0.0
H246 H 0.12227 0.5446 0.35623 0.0
H247 H 0.07708 0.5359 0.38722 0.0
H248 H 0.16886 0.98469 0.24824 0.0
H249 H 0.17545 0.06543 0.18765 0.0
H250 H 0.14018 0.07414 0.30629 0.0
H251 H 0.09816 0.98474 0.27937 0.0
H252 H 0.09874 0.96112 0.3761 0.0
H253 H 0.12329 0.96118 0.2818 0.0
H254 H 0.15822 0.96387 0.4173 0.0
H255 H 0.13368 0.96372 0.51124 0.0
H256 H 0.15676 0.98922 0.50687 0.0
H257 H 0.10406 0.07417 0.43516 0.0
H258 H 0.07414 0.06591 0.5746 0.0
H259 H 0.0917 0.98546 0.55834 0.0
C260 C 0.16272 1.00417 0.25971 0.0
C261 C 0.17481 0.02444 0.20788 0.0
C262 C 0.16638 0.04964 0.22574 0.0
C263 C 0.14627 0.05474 0.29295 0.0
C264 C 0.13454 0.03442 0.3424 0.0
C265 C 0.14258 1.00961 0.32706 0.0
C266 C 0.12729 0.99135 0.39237 0.0
C267 C 0.11091 0.97352 0.32863 0.0
C268 C 0.14505 0.97615 0.46103 0.0
C269 C 0.11035 1.0098 0.45019 0.0
C270 C 0.11427 0.0345 0.41802 0.0
C271 C 0.10082 0.05485 0.46026 0.0
C272 C 0.08362 0.04999 0.539 0.0
C273 C 0.08006 0.02503 0.57611 0.0
C274 C 0.09351 1.00468 0.53008 0.0
H275 H 0.51991 0.1456 0.18476 0.0
H276 H 0.49284 0.20723 0.37085 0.0
H277 H 0.49068 0.17777 0.51309 0.0
H278 H 0.481 0.09524 0.30065 0.0
H279 H 0.50538 0.07099 0.29333 0.0
H280 H 0.50468 0.09636 0.20331 0.0
H281 H 0.55134 0.10814 0.24483 0.0
H282 H 0.55236 0.08265 0.33409 0.0
H283 H 0.5599 0.11474 0.37114 0.0
H284 H 0.49005 0.14268 0.63392 0.0
H285 H 0.49555 0.10481 0.73676 0.0
H286 H 0.52566 0.06317 0.48452 0.0
C287 C 0.51363 0.1528 0.25577 0.0
C288 C 0.50641 0.17893 0.26647 0.0
C289 C 0.49836 0.18751 0.3605 0.0
C290 C 0.497 0.1708 0.44181 0.0
C291 C 0.50382 0.14526 0.42913 0.0
C292 C 0.5123 0.13616 0.33909 0.0
C293 C 0.519 0.1077 0.34863 0.0
C294 C 0.50148 0.09162 0.28253 0.0
C295 C 0.54734 0.10304 0.32319 0.0
C296 C 0.51345 0.1025 0.45861 0.0
C297 C 0.50423 0.12459 0.50172 0.0
C298 C 0.49736 0.12535 0.60101 0.0
C299 C 0.50056 0.10348 0.65913 0.0
C300 C 0.51089 0.08054 0.62032 0.0
C301 C 0.51718 0.08 0.51716 0.0
H302 H 0.35528 0.4682 0.31856 0.0
H303 H 0.3693 0.53664 0.14774 0.0
H304 H 0.40724 0.54613 0.2513 0.0
H305 H 0.37247 0.49336 0.55582 0.0
H306 H 0.38757 0.46442 0.59766 0.0
H307 H 0.36214 0.463 0.50852 0.0
H308 H 0.3919 0.43804 0.38903 0.0
H309 H 0.4175 0.4396 0.47766 0.0
H310 H 0.42238 0.45149 0.35396 0.0
H311 H 0.44452 0.54768 0.37576 0.0
H312 H 0.47498 0.54293 0.51459 0.0
H313 H 0.43588 0.47408 0.6073 0.0
C314 C 0.36636 0.48519 0.30324 0.0
C315 C 0.35942 0.50169 0.22492 0.0
C316 C 0.37433 0.52374 0.20717 0.0
C317 C 0.39595 0.52923 0.26562 0.0
C318 C 0.40248 0.51248 0.34204 0.0
C319 C 0.38798 0.49097 0.36118 0.0
C320 C 0.39884 0.4762 0.44828 0.0
C321 C 0.37908 0.47414 0.53255 0.0
C322 C 0.4082 0.44976 0.41526 0.0
C323 C 0.42126 0.49302 0.47714 0.0
C324 C 0.42338 0.51364 0.41392 0.0
C325 C 0.44289 0.5316 0.42556 0.0
C326 C 0.46024 0.52868 0.50453 0.0
C327 C 0.4579 0.50814 0.57225 0.0
C328 C 0.43823 0.49 0.55707 0.0
H329 H 0.0511 0.38642 0.19768 0.0
H330 H 0.99664 0.33169 0.3154 0.0
H331 H 0.98558 0.36119 0.44889 0.0
H332 H 0.07326 0.41201 0.42806 0.0
H333 H 0.07425 0.4448 0.38832 0.0
H334 H 0.0782 0.4196 0.29933 0.0
H335 H 0.04066 0.4378 0.19725 0.0
H336 H 0.03651 0.46306 0.28604 0.0
H337 H 1.00997 0.44265 0.25576 0.0
H338 H 0.98049 0.39498 0.57178 0.0
H339 H 0.9817 0.43147 0.68296 0.0
H340 H 0.03821 0.46827 0.49405 0.0
C341 C 0.03681 0.38075 0.25164 0.0
C342 C 0.0252 0.35619 0.24632 0.0
C343 C 1.00641 0.34977 0.31792 0.0
C344 C 0.99974 0.36667 0.39419 0.0
C345 C 1.01153 0.39047 0.39797 0.0
C346 C 0.02952 0.3978 0.32857 0.0
C347 C 0.03877 0.42492 0.3513 0.0
C348 C 0.06785 0.42535 0.36775 0.0
C349 C 0.03103 0.4432 0.26762 0.0
C350 C 0.02401 0.43107 0.44688 0.0
C351 C 1.00818 0.41079 0.4702 0.0
C352 C 0.99272 0.41099 0.55404 0.0
C353 C 0.99361 0.43203 0.61717 0.0
C354 C 1.00992 0.45312 0.59861 0.0
C355 C 0.0252 0.45278 0.51053 0.0
H356 H 0.86836 0.98447 0.25216 0.0
H357 H 0.87308 0.06416 0.33171 0.0
H358 H 0.91107 0.06915 0.2229 0.0
H359 H 0.93863 0.97416 0.2362 0.0
H360 H 0.93654 0.95264 0.13308 0.0
H361 H 0.91055 0.95465 0.22111 0.0
H362 H 0.87879 0.96487 0.07991 0.0
H363 H 0.90459 0.96248 0.99167 0.0
H364 H 0.88549 0.99107 0.99733 0.0
H365 H 0.94894 0.06566 0.10166 0.0
H366 H 0.97967 0.05509 0.96742 0.0
H367 H 0.94999 0.97823 0.95893 0.0
C368 C 0.8775 1.00293 0.24684 0.0
C369 C 0.86774 0.02397 0.30141 0.0
C370 C 0.8802 0.04777 0.2915 0.0
C371 C 0.90191 0.05075 0.22982 0.0
C372 C 0.91125 0.02972 0.17757 0.0
C373 C 0.89933 1.00624 0.18497 0.0
C374 C 0.91289 0.98692 0.11845 0.0
C375 C 0.92537 0.96583 0.18092 0.0
C376 C 0.89433 0.97569 0.04231 0.0
C377 C 0.93337 1.00341 0.069 0.0
C378 C 0.9326 0.02786 0.10651 0.0
C379 C 0.94971 0.04649 0.0726 0.0
C380 C 0.96741 0.04024 0.9969 0.0
C381 C 0.96789 1.01564 0.95412 0.0
C382 C 0.95065 0.997 0.99175 0.0
H383 H 0.52342 0.89039 0.34958 0.0
H384 H 0.51815 0.8218 0.17265 0.0
H385 H 0.52098 0.84749 0.02134 0.0
H386 H 0.4837 0.92919 0.18808 0.0
H387 H 0.50189 0.95804 0.20486 0.0
H388 H 0.5015 0.93398 0.30035 0.0
H389 H 0.5506 0.93266 0.29725 0.0
H390 H 0.55131 0.95618 0.19996 0.0
H391 H 0.56705 0.92591 0.18279 0.0
H392 H 0.52475 0.87892 0.88959 0.0
H393 H 0.52491 0.91495 0.77721 0.0
H394 H 0.52408 0.96725 0.02627 0.0
C395 C 0.52304 0.88086 0.27874 0.0
C396 C 0.52118 0.85373 0.27385 0.0
C397 C 0.52027 0.84219 0.17962 0.0
C398 C 0.52175 0.85676 0.09259 0.0
C399 C 0.52378 0.8832 0.0995 0.0
C400 C 0.52417 0.89538 0.18959 0.0
C401 C 0.52521 0.92437 0.17309 0.0
C402 C 0.50163 0.9372 0.21919 0.0
C403 C 0.55002 0.93544 0.21581 0.0
C404 C 0.52497 0.92645 0.05967 0.0
C405 C 0.52461 0.90213 0.02052 0.0
C406 C 0.52482 0.89802 0.91938 0.0
C407 C 0.52491 0.91898 0.85566 0.0
C408 C 0.52439 0.94449 0.89062 0.0
C409 C 0.52463 0.94827 0.99553 0.0
H410 H 0.68586 0.50167 0.17585 0.0
H411 H 0.66511 0.57003 0.33598 0.0
H412 H 0.62356 0.57144 0.24907 0.0
H413 H 0.65887 0.51912 0.94446 0.0
H414 H 0.64706 0.48783 0.91474 0.0
H415 H 0.67439 0.49122 0.99411 0.0
H416 H 0.65129 0.46466 0.12922 0.0
H417 H 0.62377 0.46138 0.05032 0.0
H418 H 0.62011 0.47451 0.17251 0.0
H419 H 0.5842 0.56652 0.13745 0.0
H420 H 0.55276 0.5569 0.00593 0.0
H421 H 0.59838 0.49197 0.91688 0.0
C422 C 0.67242 0.51676 0.19306 0.0
C423 C 0.67873 0.53575 0.26338 0.0
C424 C 0.66068 0.55525 0.28303 0.0
C425 C 0.63694 0.55617 0.23396 0.0
C426 C 0.63117 0.53733 0.16492 0.0
C427 C 0.64841 0.51794 0.14444 0.0
C428 C 0.6377 0.50051 0.06479 0.0
C429 C 0.65557 0.49964 0.97416 0.0
C430 C 0.63294 0.47367 0.1067 0.0
C431 C 0.61241 0.51369 0.04084 0.0
C432 C 0.60867 0.53458 0.10097 0.0
C433 C 0.58684 0.54993 0.09116 0.0
C434 C 0.56871 0.54411 0.01712 0.0
C435 C 0.57241 0.52316 0.95294 0.0
C436 C 0.59461 0.5078 0.96607 0.0
H437 H 1.01199 0.69284 0.15201 0.0
H438 H 0.04401 0.65186 0.4007 0.0
H439 H 0.04426 0.61212 0.30259 0.0
H440 H 0.97067 0.64148 0.06572 0.0
H441 H 0.97584 0.64819 0.93647 0.0
H442 H 0.97791 0.67348 0.02588 0.0
H443 H 0.02366 0.68419 0.96378 0.0
H444 H 0.02168 0.65893 0.87427 0.0
H445 H 0.04769 0.65951 0.96124 0.0
H446 H 0.04179 0.5764 0.17481 0.0
H447 H 0.03651 0.54817 0.02976 0.0
H448 H 1.00544 0.6115 0.86271 0.0
C449 C 1.01898 0.67546 0.18562 0.0
C450 C 0.02802 0.67546 0.2845 0.0
C451 C 0.03702 0.65233 0.32545 0.0
C452 C 0.03722 0.62962 0.27007 0.0
C453 C 0.02828 0.6301 0.17292 0.0
C454 C 1.01927 0.65243 0.13092 0.0
C455 C 1.01086 0.64762 0.0247 0.0
C456 C 0.98211 0.65302 0.01251 0.0
C457 C 0.02693 0.66351 0.9517 0.0
C458 C 1.01658 0.61927 0.01357 0.0
C459 C 0.02666 0.60953 0.09998 0.0
C460 C 0.03381 0.5839 0.10706 0.0
C461 C 0.03071 0.56793 0.02409 0.0
C462 C 1.02041 0.57739 0.93441 0.0
C463 C 1.01318 0.60349 0.93003 0.0
H464 H 0.96264 0.23769 0.21397 0.0
H465 H 0.02688 0.25965 0.39371 0.0
H466 H 1.01617 0.22617 0.5137 0.0
H467 H 0.92165 0.20114 0.42063 0.0
H468 H 0.91486 0.17713 0.32942 0.0
H469 H 0.9167 0.21019 0.29352 0.0
H470 H 0.95039 0.198 0.16028 0.0
H471 H 0.94945 0.16543 0.19767 0.0
H472 H 0.97951 0.18224 0.19784 0.0
H473 H 1.01359 0.18248 0.56078 0.0
H474 H 1.0138 0.13588 0.55172 0.0
H475 H 0.95307 0.13824 0.33518 0.0
C476 C 0.97299 0.23643 0.28298 0.0
C477 C 0.99545 0.25068 0.29569 0.0
C478 C 1.00941 0.24884 0.38414 0.0
C479 C 1.00349 0.22969 0.45217 0.0
C480 C 0.98377 0.21278 0.42924 0.0
C481 C 0.96814 0.21637 0.34761 0.0
C482 C 0.95377 0.19232 0.32138 0.0
C483 C 0.92503 0.19538 0.34259 0.0
C484 C 0.95863 0.18406 0.21309 0.0
C485 C 0.96587 0.17405 0.3932 0.0
C486 C 0.98246 0.1863 0.45683 0.0
C487 C 0.99971 0.17283 0.5151 0.0
C488 C 0.99997 0.14633 0.50837 0.0
C489 C 0.98303 0.13356 0.44414 0.0
C490 C 0.9655 0.1476 0.38754 0.0
H491 H 0.28874 0.98916 0.34495 0.0
H492 H 0.28213 0.07029 0.30443 0.0
H493 H 0.32277 0.07669 0.38966 0.0
H494 H 0.33761 0.99164 0.57986 0.0
H495 H 0.35346 0.96439 0.52641 0.0
H496 H 0.31905 0.96707 0.52106 0.0
H497 H 0.32247 0.96062 0.33229 0.0
H498 H 0.35669 0.96027 0.33417 0.0
H499 H 0.34023 0.9833 0.25871 0.0
H500 H 0.36813 0.07284 0.37919 0.0
H501 H 0.41266 0.0605 0.34808 0.0
H502 H 0.39294 0.98153 0.40844 0.0
C503 C 0.29484 1.00825 0.36373 0.0
C504 C 0.28311 0.02921 0.31776 0.0
C505 C 0.29113 0.05411 0.34003 0.0
C506 C 0.31449 0.05782 0.38711 0.0
C507 C 0.32866 0.03636 0.41342 0.0
C508 C 0.31861 1.01191 0.40811 0.0
C509 C 0.33949 0.99196 0.41782 0.0
C510 C 0.33728 0.97795 0.51726 0.0
C511 C 0.33971 0.97299 0.33055 0.0
C512 C 0.36275 1.00893 0.41528 0.0
C513 C 0.35614 0.03439 0.41364 0.0
C514 C 0.37382 0.05317 0.38827 0.0
C515 C 0.39909 0.04592 0.36963 0.0
C516 C 0.40665 0.02014 0.37872 0.0
C517 C 0.38807 1.00148 0.40144 0.0
H518 H 0.59017 0.29715 0.18454 0.0
H519 H 0.52704 0.26707 0.35692 0.0
H520 H 0.5304 0.30274 0.4715 0.0
H521 H 0.62305 0.33526 0.40699 0.0
H522 H 0.63075 0.36031 0.32053 0.0
H523 H 0.63193 0.32748 0.28169 0.0
H524 H 0.60125 0.33887 0.13822 0.0
H525 H 0.59871 0.37118 0.17899 0.0
H526 H 0.5702 0.3522 0.1664 0.0
H527 H 0.52593 0.34721 0.50973 0.0
H528 H 0.5253 0.3941 0.51679 0.0
H529 H 0.59226 0.39711 0.32673 0.0
C530 C 0.57865 0.29711 0.25133 0.0
C531 C 0.55822 0.27977 0.26154 0.0
C532 C 0.54293 0.28014 0.34808 0.0
C533 C 0.54449 0.30062 0.41316 0.0
C534 C 0.56204 0.31982 0.39196 0.0
C535 C 0.57985 0.31774 0.31606 0.0
C536 C 0.59323 0.34291 0.29736 0.0
C537 C 0.62142 0.3414 0.32853 0.0
C538 C 0.59065 0.35177 0.18892 0.0
C539 C 0.5782 0.35985 0.36636 0.0
C540 C 0.56042 0.34614 0.42062 0.0
C541 C 0.54087 0.35806 0.47344 0.0
C542 C 0.54033 0.38462 0.47527 0.0
C543 C 0.55915 0.39883 0.42417 0.0
C544 C 0.57833 0.38638 0.36934 0.0
H545 H 0.2545 0.5225 0.2851 0.0
H546 H 0.26333 0.59557 0.14193 0.0
H547 H 0.23256 0.61453 0.26073 0.0
H548 H 0.19265 0.5276 0.25973 0.0
H549 H 0.18328 0.50883 0.36547 0.0
H550 H 0.21369 0.50335 0.30764 0.0
H551 H 0.23802 0.51194 0.47267 0.0
H552 H 0.20701 0.51484 0.52986 0.0
H553 H 0.23024 0.54003 0.54337 0.0
H554 H 0.19394 0.62258 0.36114 0.0
H555 H 0.14914 0.61847 0.41959 0.0
H556 H 0.16132 0.53811 0.47392 0.0
C557 C 0.25138 0.54293 0.28429 0.0
C558 C 0.26195 0.55802 0.20864 0.0
C559 C 0.2561 0.58418 0.20277 0.0
C560 C 0.23858 0.59493 0.26961 0.0
C561 C 0.22664 0.57893 0.33848 0.0
C562 C 0.23263 0.55327 0.3449 0.0
C563 C 0.21206 0.53827 0.39781 0.0
C564 C 0.19972 0.51839 0.32854 0.0
C565 C 0.22247 0.52558 0.49166 0.0
C566 C 0.19365 0.55947 0.42148 0.0
C567 C 0.20253 0.58287 0.38871 0.0
C568 C 0.18709 0.60457 0.38977 0.0
C569 C 0.16177 0.60211 0.42274 0.0
C570 C 0.15231 0.57805 0.45165 0.0
C571 C 0.16857 0.55676 0.45394 0.0
H572 H 0.03559 0.78694 0.14514 0.0
H573 H 0.95637 0.79028 0.23564 0.0
H574 H 0.95149 0.83134 0.15169 0.0
H575 H 0.0504 0.83869 0.22191 0.0
H576 H 0.07236 0.85103 0.13049 0.0
H577 H 0.06784 0.81739 0.14139 0.0
H578 H 0.05439 0.81351 0.9584 0.0
H579 H 0.06051 0.84715 0.94391 0.0
H580 H 0.02986 0.83419 0.91045 0.0
H581 H 0.96054 0.87603 0.14546 0.0
H582 H 0.97899 0.91863 0.16031 0.0
H583 H 0.05272 0.88913 0.06294 0.0
C584 C 1.01672 0.79532 0.13819 0.0
C585 C 0.99643 0.786 0.19671 0.0
C586 C 0.97198 0.79725 0.18997 0.0
C587 C 0.96923 0.82087 0.14369 0.0
C588 C 0.99097 0.83221 0.10268 0.0
C589 C 1.01413 0.81934 0.09482 0.0
C590 C 0.03583 0.83748 0.0697 0.0
C591 C 0.05784 0.83604 0.14545 0.0
C592 C 0.04575 0.8328 0.9643 0.0
C593 C 0.02182 0.86257 0.0765 0.0
C594 C 0.99599 0.85913 0.09437 0.0
C595 C 0.98033 0.87915 0.12466 0.0
C596 C 0.99109 0.90335 0.13354 0.0
C597 C 1.01724 0.90756 0.11042 0.0
C598 C 0.03264 0.88679 0.08082 0.0
H599 H 0.73988 0.97429 0.14975 0.0
H600 H 0.77712 0.04612 0.20835 0.0
H601 H 0.74226 0.06897 0.12736 0.0
H602 H 0.70397 0.99446 0.91724 0.0
H603 H 0.67495 0.97838 0.95553 0.0
H604 H 0.70592 0.96504 0.98389 0.0
H605 H 0.69673 0.96338 0.16812 0.0
H606 H 0.66502 0.97504 0.14722 0.0
H607 H 0.68576 0.99156 0.23163 0.0
H608 H 0.69796 0.08381 0.1098 0.0
H609 H 0.65083 0.08905 0.1149 0.0
H610 H 0.64184 1.00824 0.06096 0.0
C611 C 0.74167 0.99458 0.13711 0.0
C612 C 0.76083 1.00839 0.18555 0.0
C613 C 0.76262 0.03509 0.1707 0.0
C614 C 0.74259 0.04837 0.12605 0.0
C615 C 0.72165 0.03448 0.09323 0.0
C616 C 0.72146 1.00805 0.0948 0.0
C617 C 0.69507 0.99774 0.07461 0.0
C618 C 0.6949 0.98307 0.97686 0.0
C619 C 0.68511 0.98099 0.16054 0.0
C620 C 0.68022 0.02235 0.06794 0.0
C621 C 0.69578 0.0434 0.07886 0.0
C622 C 0.68565 0.06767 0.09567 0.0
C623 C 0.65896 0.07048 0.09963 0.0
C624 C 0.64296 0.04904 0.08819 0.0
C625 C 0.65377 0.02493 0.06982 0.0
H626 H 0.56752 0.71851 0.26832 0.0
H627 H 0.50868 0.77071 0.17113 0.0
H628 H 0.49217 0.73845 0.05759 0.0
H629 H 0.56866 0.66979 0.05616 0.0
H630 H 0.56851 0.64457 0.1468 0.0
H631 H 0.58482 0.67404 0.17247 0.0
H632 H 0.55804 0.67807 0.33467 0.0
H633 H 0.5412 0.64934 0.30698 0.0
H634 H 0.52354 0.67833 0.32711 0.0
H635 H 0.4734 0.69749 0.99807 0.0
H636 H 0.4572 0.65324 0.98812 0.0
H637 H 0.52026 0.62808 0.17206 0.0
C638 C 0.5523 0.72357 0.21776 0.0
C639 C 0.53903 0.74661 0.22981 0.0
C640 C 0.51917 0.75302 0.16325 0.0
C641 C 0.50938 0.73458 0.09927 0.0
C642 C 0.51959 0.71009 0.10437 0.0
C643 C 0.54079 0.70459 0.16228 0.0
C644 C 0.54311 0.67643 0.18266 0.0
C645 C 0.56774 0.66557 0.13669 0.0
C646 C 0.54135 0.67025 0.29433 0.0
C647 C 0.51978 0.66713 0.12953 0.0
C648 C 0.50683 0.68645 0.08199 0.0
C649 C 0.48374 0.68211 0.03328 0.0
C650 C 0.47439 0.65708 0.0299 0.0
C651 C 0.48774 0.63718 0.07818 0.0
C652 C 0.51016 0.64266 0.13105 0.0
H653 H 0.7814 0.49494 0.17653 0.0
H654 H 0.78509 0.43996 0.41376 0.0
H655 H 0.82054 0.41798 0.32899 0.0
H656 H 0.81089 0.45255 0.96588 0.0
H657 H 0.82927 0.47925 0.92209 0.0
H658 H 0.79741 0.48418 0.97082 0.0
H659 H 0.81436 0.51678 0.09627 0.0
H660 H 0.84617 0.51284 0.04943 0.0
H661 H 0.83978 0.50773 0.17904 0.0
H662 H 0.8633 0.41254 0.25868 0.0
H663 H 0.90725 0.42203 0.20111 0.0
H664 H 0.87779 0.48173 0.01206 0.0
C665 C 0.78825 0.47696 0.20567 0.0
C666 C 0.78039 0.46875 0.30013 0.0
C667 C 0.79049 0.44598 0.33991 0.0
C668 C 0.81086 0.43359 0.29252 0.0
C669 C 0.82056 0.44413 0.20531 0.0
C670 C 0.80918 0.46508 0.1608 0.0
C671 C 0.82652 0.47671 0.08285 0.0
C672 C 0.81533 0.47295 0.97926 0.0
C673 C 0.83203 0.50515 0.10332 0.0
C674 C 0.85014 0.46056 0.09678 0.0
C675 C 0.84616 0.44134 0.16526 0.0
C676 C 0.86639 0.42675 0.20185 0.0
C677 C 0.89128 0.43227 0.16914 0.0
C678 C 0.89557 0.45243 0.10196 0.0
C679 C 0.87472 0.466 0.06265 0.0
H680 H 0.05378 0.20206 0.08145 0.0
H681 H 1.00829 0.24068 0.86049 0.0
H682 H 1.00364 0.19989 0.76967 0.0
H683 H 0.08639 0.15643 0.91003 0.0
H684 H 0.08561 0.13111 1.0002 0.0
H685 H 0.08758 0.16379 0.04 0.0
H686 H 0.04714 0.15723 0.14848 0.0
H687 H 0.04473 0.12471 0.10776 0.0
H688 H 1.01802 0.14611 0.09224 0.0
H689 H 0.99855 0.15286 0.71787 0.0
H690 H 0.99997 0.10632 0.68993 0.0
H691 H 0.04966 0.09794 0.94389 0.0
C692 C 0.04378 0.2022 0.01154 0.0
C693 C 0.03206 0.22508 0.97688 0.0
C694 C 1.01822 0.22392 0.88717 0.0
C695 C 1.01513 0.2006 0.83595 0.0
C696 C 0.02605 0.17832 0.87464 0.0
C697 C 0.04061 0.17909 0.95946 0.0
C698 C 0.04967 0.15239 0.98772 0.0
C699 C 0.07906 0.15084 0.98427 0.0
C700 C 0.03927 0.14466 0.0901 0.0
C701 C 0.03776 0.13629 0.90632 0.0
C702 C 0.02403 0.1516 0.84235 0.0
C703 C 1.0101 0.1409 0.76506 0.0
C704 C 1.0109 0.11425 0.75026 0.0
C705 C 0.02532 0.09801 0.81295 0.0
C706 C 0.03876 0.1095 0.8928 0.0
H707 H 0.33284 0.99078 0.06557 0.0
H708 H 0.29765 0.04569 0.86913 0.0
H709 H 0.33909 0.05018 0.77918 0.0
H710 H 0.39104 0.02154 0.09612 0.0
H711 H 0.41056 0.9932 0.09712 0.0
H712 H 0.37761 0.99161 0.13593 0.0
H713 H 0.36843 0.95656 0.00612 0.0
H714 H 0.40165 0.95751 0.96921 0.0
H715 H 0.37689 0.96207 0.87855 0.0
H716 H 0.38655 0.04979 0.71525 0.0
H717 H 0.4333 0.04504 0.68646 0.0
H718 H 0.43804 0.99342 0.93568 0.0
C719 C 0.3336 1.00338 1.00217 0.0
C720 C 0.31154 0.01768 0.97423 0.0
C721 C 0.31378 0.03405 0.89113 0.0
C722 C 0.33747 0.03692 0.84026 0.0
C723 C 0.359 0.0233 0.87282 0.0
C724 C 0.35708 1.00667 0.9517 0.0
C725 C 0.38304 0.99489 0.97549 0.0
C726 C 0.39102 1.00067 0.08246 0.0
C727 C 0.38247 0.96604 0.95624 0.0
C728 C 0.40033 1.0083 0.90086 0.0
C729 C 0.38602 0.0241 0.8403 0.0
C730 C 0.39773 0.03754 0.7629 0.0
C731 C 0.42439 0.03473 0.74694 0.0
C732 C 0.43956 0.01913 0.80929 0.0
C733 C 0.42717 1.00585 0.8876 0.0
H734 H 0.54288 0.31355 0.88843 0.0
H735 H 0.47506 0.30972 0.07326 0.0
H736 H 0.46528 0.35463 0.03274 0.0
H737 H 0.56225 0.3746 0.94583 0.0
H738 H 0.57188 0.3846 0.82358 0.0
H739 H 0.57238 0.35132 0.85587 0.0
H740 H 0.54247 0.34059 0.70926 0.0
H741 H 0.54335 0.37385 0.67631 0.0
H742 H 0.51299 0.35815 0.69515 0.0
H743 H 0.46604 0.40146 0.99098 0.0
H744 H 0.47338 0.44521 0.93491 0.0
H745 H 0.53957 0.42037 0.76471 0.0
C746 C 0.52527 0.3218 0.91635 0.0
C747 C 0.5092 0.30748 0.98169 0.0
C748 C 0.48706 0.31961 0.02017 0.0
C749 C 0.48159 0.34537 0.99857 0.0
C750 C 0.49814 0.35903 0.93643 0.0
C751 C 0.51917 0.3475 0.89349 0.0
C752 C 0.534 0.36685 0.83058 0.0
C753 C 0.56177 0.36949 0.86617 0.0
C754 C 0.53312 0.35936 0.72126 0.0
C755 C 0.51877 0.39132 0.84823 0.0
C756 C 0.49815 0.38615 0.90972 0.0
C757 C 0.48183 0.4055 0.94126 0.0
C758 C 0.48635 0.43055 0.90881 0.0
C759 C 0.50703 0.43679 0.84413 0.0
C760 C 0.52339 0.41656 0.81285 0.0
H761 H 0.2226 0.5359 0.86419 0.0
H762 H 0.22523 0.47111 0.06265 0.0
H763 H 0.17976 0.46195 0.02656 0.0
H764 H 0.1618 0.55751 0.9251 0.0
H765 H 0.152 0.56623 0.80197 0.0
H766 H 0.18545 0.56614 0.83338 0.0
H767 H 0.19484 0.53558 0.68921 0.0
H768 H 0.16137 0.53538 0.65712 0.0
H769 H 0.17777 0.50579 0.68086 0.0
H770 H 0.13247 0.4633 0.98617 0.0
H771 H 0.08845 0.47176 0.93049 0.0
H772 H 0.11593 0.53469 0.75058 0.0
C773 C 0.21387 0.51917 0.89689 0.0
C774 C 0.22785 0.50381 0.96461 0.0
C775 C 0.21536 0.48263 0.00831 0.0
C776 C 0.18937 0.47749 0.98906 0.0
C777 C 0.176 0.49343 0.92447 0.0
C778 C 0.18797 0.51352 0.87711 0.0
C779 C 0.16893 0.52816 0.81328 0.0
C780 C 0.16693 0.55616 0.84544 0.0
C781 C 0.17618 0.52608 0.70353 0.0
C782 C 0.14424 0.51379 0.83492 0.0
C783 C 0.1488 0.49381 0.89923 0.0
C784 C 0.12886 0.47858 0.93427 0.0
C785 C 0.10378 0.48364 0.9022 0.0
C786 C 0.09848 0.50373 0.83487 0.0
C787 C 0.11921 0.51893 0.80068 0.0
H788 H 0.03794 0.83676 0.41121 0.0
H789 H 1.009 0.79307 0.65968 0.0
H790 H 1.00811 0.83256 0.76062 0.0
H791 H 0.07677 0.88278 0.55085 0.0
H792 H 0.06853 0.90857 0.46876 0.0
H793 H 0.06989 0.87639 0.42286 0.0
H794 H 0.02344 0.88073 0.35957 0.0
H795 H 0.02176 0.91274 0.40622 0.0
H796 H 0.9983 0.88954 0.44474 0.0
H797 H 1.01086 0.87893 0.83544 0.0
H798 H 1.0122 0.92552 0.86701 0.0
H799 H 0.03429 0.9386 0.56215 0.0
C800 C 0.03193 0.83524 0.48772 0.0
C801 C 0.02373 0.8114 0.5272 0.0
C802 C 1.01595 0.8107 0.62771 0.0
C803 C 1.01532 0.83321 0.68566 0.0
C804 C 0.02274 0.85647 0.64292 0.0
C805 C 0.03085 0.85746 0.54567 0.0
C806 C 0.036 0.88478 0.51333 0.0
C807 C 0.06449 0.88834 0.48742 0.0
C808 C 1.01884 0.89239 0.42585 0.0
C809 C 0.02893 0.89932 0.6067 0.0
C810 C 0.02202 0.8827 0.68185 0.0
C811 C 1.01601 0.89191 0.77634 0.0
C812 C 1.01689 0.91848 0.79391 0.0
C813 C 0.02305 0.93588 0.71704 0.0
C814 C 0.02912 0.92593 0.62227 0.0
H815 H 0.72775 1.0016 0.63452 0.0
H816 H 0.71684 0.03731 0.34797 0.0
H817 H 0.67103 0.042 0.38256 0.0
H818 H 0.67105 0.96876 0.65901 0.0
H819 H 0.66249 0.9767 0.78413 0.0
H820 H 0.69566 0.97709 0.746 0.0
H821 H 0.70108 0.02533 0.79549 0.0
H822 H 0.66879 0.02333 0.84435 0.0
H823 H 0.67713 0.04761 0.75594 0.0
H824 H 0.62547 0.03693 0.43412 0.0
H825 H 0.58357 0.03133 0.51522 0.0
H826 H 0.62123 1.00558 0.78255 0.0
C827 C 0.71593 1.01128 0.58073 0.0
C828 C 0.72641 0.01863 0.48708 0.0
C829 C 0.70973 0.0312 0.4196 0.0
C830 C 0.68341 0.03387 0.43828 0.0
C831 C 0.67352 0.02536 0.52806 0.0
C832 C 0.68928 1.01548 0.60046 0.0
C833 C 0.6731 1.00946 0.69263 0.0
C834 C 0.67577 0.98134 0.72232 0.0
C835 C 0.68047 0.02742 0.77734 0.0
C836 C 0.64588 1.01548 0.6575 0.0
C837 C 0.64686 0.0247 0.5619 0.0
C838 C 0.62457 0.03041 0.51 0.0
C839 C 0.60072 0.02707 0.55693 0.0
C840 C 0.59876 0.01844 0.65613 0.0
C841 C 0.62189 1.01271 0.70745 0.0
H842 H 0.55835 0.71408 0.58854 0.0
H843 H 0.47781 0.73205 0.56189 0.0
H844 H 0.46689 0.68909 0.62555 0.0
H845 H 0.55708 0.6526 0.50748 0.0
H846 H 0.5795 0.6393 0.59435 0.0
H847 H 0.58104 0.6726 0.56321 0.0
H848 H 0.57665 0.68452 0.74867 0.0
H849 H 0.57551 0.65112 0.77997 0.0
H850 H 0.55014 0.67208 0.81958 0.0
H851 H 0.46484 0.64196 0.67734 0.0
H852 H 0.47156 0.59652 0.71759 0.0
H853 H 0.55372 0.60755 0.70394 0.0
C854 C 0.5384 0.70946 0.60112 0.0
C855 C 0.51893 0.7272 0.5734 0.0
C856 C 0.49308 0.71961 0.58636 0.0
C857 C 0.48673 0.69493 0.62117 0.0
C858 C 0.50637 0.67773 0.64412 0.0
C859 C 0.53174 0.68488 0.63652 0.0
C860 C 0.54923 0.66242 0.66195 0.0
C861 C 0.56781 0.65639 0.57661 0.0
C862 C 0.56376 0.66786 0.7582 0.0
C863 C 0.52991 0.64097 0.67778 0.0
C864 C 0.50525 0.65047 0.67011 0.0
C865 C 0.48411 0.63456 0.68396 0.0
C866 C 0.48814 0.60864 0.70694 0.0
C867 C 0.51313 0.59815 0.71395 0.0
C868 C 0.53434 0.61473 0.69843 0.0
H869 H 0.81685 0.50375 0.63084 0.0
H870 H 0.81843 0.5626 0.4061 0.0
H871 H 0.86385 0.57123 0.44495 0.0
H872 H 0.86291 0.53844 0.80717 0.0
H873 H 0.87565 0.50824 0.84723 0.0
H874 H 0.84265 0.51078 0.80921 0.0
H875 H 0.85194 0.47381 0.685 0.0
H876 H 0.88521 0.47322 0.71883 0.0
H877 H 0.87634 0.4782 0.59165 0.0
H878 H 0.91073 0.56878 0.48986 0.0
H879 H 0.95403 0.55982 0.55202 0.0
H880 H 0.92277 0.5041 0.75687 0.0
C881 C 0.82646 0.51923 0.59294 0.0
C882 C 0.81371 0.53294 0.51663 0.0
C883 C 0.82733 0.55242 0.46658 0.0
C884 C 0.85332 0.55721 0.48748 0.0
C885 C 0.86551 0.54274 0.5603 0.0
C886 C 0.85234 0.52464 0.61447 0.0
C887 C 0.87025 0.51135 0.68719 0.0
C888 C 0.86242 0.51754 0.79412 0.0
C889 C 0.87097 0.48243 0.66954 0.0
C890 C 0.89581 0.5237 0.66146 0.0
C891 C 0.89252 0.54187 0.5884 0.0
C892 C 0.91335 0.55495 0.54836 0.0
C893 C 0.93802 0.54957 0.58409 0.0
C894 C 0.94207 0.53133 0.66015 0.0
C895 C 0.92045 0.51837 0.69972 0.0
loop_
_geom_bond_atom_site_label_1
_geom_bond_atom_site_label_2
_geom_bond_distance
_geom_bond_site_symmetry_2
_ccdc_geom_bond_type
H0 C3 0.929 . S
H1 C6 0.929 . S
H2 C8 0.930 . S
C3 H0 0.929 . S
C3 C4 1.398 . S
C3 C5 1.396 . S
C4 C3 1.398 . S
C4 C8 1.407 . S
C5 C3 1.396 . S
C5 C6 1.394 . S
C6 H1 0.929 . S
C6 C5 1.394 . S
C6 C7 1.382 . S
C7 C6 1.382 . S
C7 C8 1.392 . S
C7 N9 1.420 . S
C8 H2 0.930 . S
C8 C4 1.407 . S
C8 C7 1.392 . S
N9 C7 1.420 . S
N9 C10 1.244 . S
C10 N9 1.244 . S
H11 C14 0.929 . S
H12 C17 0.929 . S
H13 C19 0.930 . S
C14 H11 0.929 . S
C14 C15 1.395 1_655 S
C14 C16 1.395 1_655 S
C15 C14 1.395 1_455 S
C15 C19 1.413 . S
C16 C14 1.395 1_455 S
C16 C17 1.397 . S
C17 H12 0.929 . S
C17 C16 1.397 . S
C17 C18 1.382 . S
C18 C17 1.382 . S
C18 C19 1.392 . S
C18 N20 1.420 . S
C19 H13 0.930 . S
C19 C15 1.413 . S
C19 C18 1.392 . S
N20 C18 1.420 . S
N20 C21 1.232 1_455 S
C21 N20 1.232 1_655 S
H22 C25 0.929 . S
H23 C28 0.929 . S
H24 C30 0.930 . S
C25 H22 0.929 . S
C25 C26 1.395 1_565 S
C25 C27 1.395 1_565 S
C26 C25 1.395 1_545 S
C26 C30 1.413 . S
C27 C25 1.395 1_545 S
C27 C28 1.397 . S
C28 H23 0.929 . S
C28 C27 1.397 . S
C28 C29 1.382 . S
C29 C28 1.382 . S
C29 C30 1.392 . S
C29 N31 1.420 . S
C30 H24 0.930 . S
C30 C26 1.413 . S
C30 C29 1.392 . S
N31 C29 1.420 . S
N31 C32 1.232 1_545 S
C32 N31 1.232 1_565 S
H33 C36 0.929 . S
H34 C39 0.929 . S
H35 C41 0.930 . S
C36 H33 0.929 . S
C36 C37 1.398 . S
C36 C38 1.396 . S
C37 C36 1.398 . S
C37 C41 1.407 . S
C38 C36 1.396 . S
C38 C39 1.394 . S
C39 H34 0.929 . S
C39 C38 1.394 . S
C39 C40 1.382 . S
C40 C39 1.382 . S
C40 C41 1.392 . S
C40 N42 1.420 . S
C41 H35 0.930 . S
C41 C37 1.407 . S
C41 C40 1.392 . S
N42 C40 1.420 . S
N42 C43 1.244 . S
C43 N42 1.244 . S
H44 C47 0.929 . S
H45 C50 0.929 . S
H46 C52 0.930 . S
C47 H44 0.929 . S
C47 C48 1.398 1_554 S
C47 C49 1.396 . S
C48 C47 1.398 1_556 S
C48 C52 1.407 . S
C49 C47 1.396 . S
C49 C50 1.394 . S
C50 H45 0.929 . S
C50 C49 1.394 . S
C50 C51 1.382 . S
C51 C50 1.382 . S
C51 C52 1.392 1_554 S
C51 N53 1.420 . S
C52 H46 0.930 . S
C52 C48 1.407 . S
C52 C51 1.392 1_556 S
N53 C51 1.420 . S
N53 C54 1.244 . S
C54 N53 1.244 . S
H55 C58 0.929 . S
H56 C61 0.929 . S
H57 C63 0.930 . S
C58 H55 0.929 . S
C58 C59 1.395 1_654 S
C58 C60 1.394 1_655 S
C59 C58 1.395 1_456 S
C59 C63 1.416 . S
C60 C58 1.394 1_455 S
C60 C61 1.398 . S
C61 H56 0.929 . S
C61 C60 1.398 . S
C61 C62 1.382 . S
C62 C61 1.382 . S
C62 C63 1.392 1_554 S
C62 N64 1.420 . S
C63 H57 0.930 . S
C63 C59 1.416 . S
C63 C62 1.392 1_556 S
N64 C62 1.420 . S
N64 C65 1.237 1_455 S
C65 N64 1.237 1_655 S
H66 C69 0.929 . S
H67 C72 0.929 . S
H68 C74 0.930 . S
C69 H66 0.929 . S
C69 C70 1.395 1_564 S
C69 C71 1.394 1_565 S
C70 C69 1.395 1_546 S
C70 C74 1.416 . S
C71 C69 1.394 1_545 S
C71 C72 1.398 . S
C72 H67 0.929 . S
C72 C71 1.398 . S
C72 C73 1.382 . S
C73 C72 1.382 . S
C73 C74 1.392 1_554 S
C73 N75 1.420 . S
C74 H68 0.930 . S
C74 C70 1.416 . S
C74 C73 1.392 1_556 S
N75 C73 1.420 . S
N75 C76 1.237 1_545 S
C76 N75 1.237 1_565 S
H77 C80 0.929 . S
H78 C83 0.929 . S
H79 C85 0.930 . S
C80 H77 0.929 . S
C80 C81 1.398 1_554 S
C80 C82 1.396 . S
C81 C80 1.398 1_556 S
C81 C85 1.407 . S
C82 C80 1.396 . S
C82 C83 1.394 . S
C83 H78 0.929 . S
C83 C82 1.394 . S
C83 C84 1.382 . S
C84 C83 1.382 . S
C84 C85 1.392 1_554 S
C84 N86 1.420 . S
C85 H79 0.930 . S
C85 C81 1.407 . S
C85 C84 1.392 1_556 S
N86 C84 1.420 . S
N86 C87 1.244 . S
C87 N86 1.244 . S
La88 C90 2.928 . S
La88 O108 2.521 . S
La88 O109 2.628 . S
La88 O110 2.554 . S
La88 O111 2.757 1_565 S
La88 O112 2.470 . S
La88 O117 2.482 1_455 S
La88 O119 2.503 1_565 S
La89 C99 2.928 . S
La89 O111 2.482 1_655 S
La89 O113 2.503 1_545 S
La89 O114 2.521 . S
La89 O115 2.628 . S
La89 O116 2.554 . S
La89 O117 2.757 1_545 S
La89 O118 2.470 . S
C90 La88 2.928 . S
C90 C91 1.503 1_556 S
C90 O108 1.261 . S
C90 O109 1.243 . S
C91 C90 1.503 1_554 S
C91 C92 1.394 . S
C91 C96 1.373 . S
C92 C91 1.394 . S
C92 C93 1.380 . S
C92 H120 0.930 . S
C93 C92 1.380 . S
C93 C94 1.376 . S
C93 H121 0.930 . S
C94 C93 1.376 . S
C94 C95 1.370 . S
C95 C94 1.370 . S
C95 C96 1.396 . S
C95 H122 0.929 1_455 S
C96 C91 1.373 . S
C96 C95 1.396 . S
C96 H123 0.929 1_455 S
C97 O110 1.240 . S
C97 O111 1.289 1_565 S
C98 O112 1.258 1_655 S
C98 O113 1.256 . S
C99 La89 2.928 . S
C99 C100 1.503 . S
C99 O114 1.261 . S
C99 O115 1.243 . S
C100 C99 1.503 . S
C100 C101 1.394 . S
C100 C105 1.373 . S
C101 C100 1.394 . S
C101 C102 1.380 . S
C101 H124 0.930 . S
C102 C101 1.380 . S
C102 C103 1.376 . S
C102 H125 0.930 . S
C103 C102 1.376 . S
C103 C104 1.370 . S
C104 C103 1.370 . S
C104 C105 1.396 . S
C104 H126 0.929 1_655 S
C105 C100 1.373 . S
C105 C104 1.396 . S
C105 H127 0.929 1_655 S
C106 O116 1.240 . S
C106 O117 1.289 1_545 S
C107 O118 1.258 1_455 S
C107 O119 1.256 . S
O108 La88 2.521 . S
O108 C90 1.261 . S
O109 La88 2.628 . S
O109 C90 1.243 . S
O110 La88 2.554 . S
O110 C97 1.240 . S
O111 La88 2.757 1_545 S
O111 La89 2.482 1_455 S
O111 C97 1.289 1_545 S
O112 La88 2.470 . S
O112 C98 1.258 1_455 S
O113 La89 2.503 1_565 S
O113 C98 1.256 . S
O114 La89 2.521 . S
O114 C99 1.261 . S
O115 La89 2.628 . S
O115 C99 1.243 . S
O116 La89 2.554 . S
O116 C106 1.240 . S
O117 La88 2.482 1_655 S
O117 La89 2.757 1_565 S
O117 C106 1.289 1_565 S
O118 La89 2.470 . S
O118 C107 1.258 1_655 S
O119 La88 2.503 1_545 S
O119 C107 1.256 . S
H120 C92 0.930 . S
H121 C93 0.930 . S
H122 C95 0.929 1_655 S
H123 C96 0.929 1_655 S
H124 C101 0.930 . S
H125 C102 0.930 . S
H126 C104 0.929 1_455 S
H127 C105 0.929 1_455 S
La128 C130 2.928 . S
La128 O148 2.521 . S
La128 O149 2.628 . S
La128 O150 2.554 . S
La128 O151 2.757 . S
La128 O152 2.470 . S
La128 O157 2.482 1_545 S
La128 O159 2.503 . S
La129 C139 2.928 . S
La129 O151 2.482 1_565 S
La129 O153 2.503 . S
La129 O154 2.521 . S
La129 O155 2.628 . S
La129 O156 2.554 . S
La129 O157 2.757 . S
La129 O158 2.470 . S
C130 La128 2.928 . S
C130 C131 1.503 1_556 S
C130 O148 1.261 . S
C130 O149 1.243 . S
C131 C130 1.503 1_554 S
C131 C132 1.394 . S
C131 C136 1.373 . S
C132 C131 1.394 . S
C132 C133 1.380 . S
C132 H160 0.930 . S
C133 C132 1.380 . S
C133 C134 1.376 . S
C133 H161 0.930 . S
C134 C133 1.376 . S
C134 C135 1.370 . S
C135 C134 1.370 . S
C135 C136 1.396 . S
C135 H162 0.929 1_545 S
C136 C131 1.373 . S
C136 C135 1.396 . S
C136 H163 0.929 1_545 S
C137 O150 1.240 . S
C137 O151 1.289 . S
C138 O152 1.258 1_565 S
C138 O153 1.256 . S
C139 La129 2.928 . S
C139 C140 1.503 . S
C139 O154 1.261 . S
C139 O155 1.243 . S
C140 C139 1.503 . S
C140 C141 1.394 . S
C140 C145 1.373 . S
C141 C140 1.394 . S
C141 C142 1.380 . S
C141 H164 0.930 . S
C142 C141 1.380 . S
C142 C143 1.376 . S
C142 H165 0.930 . S
C143 C142 1.376 . S
C143 C144 1.370 . S
C144 C143 1.370 . S
C144 C145 1.396 . S
C144 H166 0.929 1_565 S
C145 C140 1.373 . S
C145 C144 1.396 . S
C145 H167 0.929 1_565 S
C146 O156 1.240 . S
C146 O157 1.289 . S
C147 O158 1.258 1_545 S
C147 O159 1.256 . S
O148 La128 2.521 . S
O148 C130 1.261 . S
O149 La128 2.628 . S
O149 C130 1.243 . S
O150 La128 2.554 . S
O150 C137 1.240 . S
O151 La128 2.757 . S
O151 La129 2.482 1_545 S
O151 C137 1.289 . S
O152 La128 2.470 . S
O152 C138 1.258 1_545 S
O153 La129 2.503 . S
O153 C138 1.256 . S
O154 La129 2.521 . S
O154 C139 1.261 . S
O155 La129 2.628 . S
O155 C139 1.243 . S
O156 La129 2.554 . S
O156 C146 1.240 . S
O157 La128 2.482 1_565 S
O157 La129 2.757 . S
O157 C146 1.289 . S
O158 La129 2.470 . S
O158 C147 1.258 1_565 S
O159 La128 2.503 . S
O159 C147 1.256 . S
H160 C132 0.930 . S
H161 C133 0.930 . S
H162 C135 0.929 1_565 S
H163 C136 0.929 1_565 S
H164 C141 0.930 . S
H165 C142 0.930 . S
H166 C144 0.929 1_545 S
H167 C145 0.929 1_545 S
La168 C170 2.928 . S
La168 O188 2.521 . S
La168 O189 2.628 . S
La168 O190 2.554 . S
La168 O191 2.757 . S
La168 O192 2.470 . S
La168 O197 2.482 . S
La168 O199 2.503 . S
La169 C179 2.928 . S
La169 O191 2.482 . S
La169 O193 2.503 . S
La169 O194 2.521 . S
La169 O195 2.628 . S
La169 O196 2.554 . S
La169 O197 2.757 . S
La169 O198 2.470 . S
C170 La168 2.928 . S
C170 C171 1.503 1_556 S
C170 O188 1.261 . S
C170 O189 1.243 . S
C171 C170 1.503 1_554 S
C171 C172 1.394 . S
C171 C176 1.373 . S
C172 C171 1.394 . S
C172 C173 1.380 . S
C172 H200 0.930 . S
C173 C172 1.380 . S
C173 C174 1.376 . S
C173 H201 0.930 . S
C174 C173 1.376 . S
C174 C175 1.370 . S
C175 C174 1.370 . S
C175 C176 1.396 . S
C175 H202 0.929 . S
C176 C171 1.373 . S
C176 C175 1.396 . S
C176 H203 0.929 . S
C177 O190 1.240 . S
C177 O191 1.289 . S
C178 O192 1.258 . S
C178 O193 1.256 . S
C179 La169 2.928 . S
C179 C180 1.503 . S
C179 O194 1.261 . S
C179 O195 1.243 . S
C180 C179 1.503 . S
C180 C181 1.394 . S
C180 C185 1.373 . S
C181 C180 1.394 . S
C181 C182 1.380 . S
C181 H204 0.930 . S
C182 C181 1.380 . S
C182 C183 1.376 . S
C182 H205 0.930 . S
C183 C182 1.376 . S
C183 C184 1.370 . S
C184 C183 1.370 . S
C184 C185 1.396 . S
C184 H206 0.929 . S
C185 C180 1.373 . S
C185 C184 1.396 . S
C185 H207 0.929 . S
C186 O196 1.240 . S
C186 O197 1.289 . S
C187 O198 1.258 . S
C187 O199 1.256 . S
O188 La168 2.521 . S
O188 C170 1.261 . S
O189 La168 2.628 . S
O189 C170 1.243 . S
O190 La168 2.554 . S
O190 C177 1.240 . S
O191 La168 2.757 . S
O191 La169 2.482 . S
O191 C177 1.289 . S
O192 La168 2.470 . S
O192 C178 1.258 . S
O193 La169 2.503 . S
O193 C178 1.256 . S
O194 La169 2.521 . S
O194 C179 1.261 . S
O195 La169 2.628 . S
O195 C179 1.243 . S
O196 La169 2.554 . S
O196 C186 1.240 . S
O197 La168 2.482 . S
O197 La169 2.757 . S
O197 C186 1.289 . S
O198 La169 2.470 . S
O198 C187 1.258 . S
O199 La168 2.503 . S
O199 C187 1.256 . S
H200 C172 0.930 . S
H201 C173 0.930 . S
H202 C175 0.929 . S
H203 C176 0.929 . S
H204 C181 0.930 . S
H205 C182 0.930 . S
H206 C184 0.929 . S
H207 C185 0.929 . S
La208 C210 2.928 . S
La208 O228 2.521 . S
La208 O229 2.628 . S
La208 O230 2.554 . S
La208 O231 2.757 1_655 S
La208 O232 2.470 . S
La208 O237 2.482 . S
La208 O239 2.503 1_655 S
La209 C219 2.928 . S
La209 O231 2.482 . S
La209 O233 2.503 1_455 S
La209 O234 2.521 . S
La209 O235 2.628 . S
La209 O236 2.554 . S
La209 O237 2.757 1_455 S
La209 O238 2.470 . S
C210 La208 2.928 . S
C210 C211 1.503 1_556 S
C210 O228 1.261 . S
C210 O229 1.243 . S
C211 C210 1.503 1_554 S
C211 C212 1.394 . S
C211 C216 1.373 . S
C212 C211 1.394 . S
C212 C213 1.380 . S
C212 H240 0.930 . S
C213 C212 1.380 . S
C213 C214 1.376 . S
C213 H241 0.930 . S
C214 C213 1.376 . S
C214 C215 1.370 . S
C215 C214 1.370 . S
C215 C216 1.396 . S
C215 H242 0.929 . S
C216 C211 1.373 . S
C216 C215 1.396 . S
C216 H243 0.929 . S
C217 O230 1.257 . S
C217 O231 1.279 1_655 S
C218 O232 1.258 . S
C218 O233 1.256 . S
C219 La209 2.928 . S
C219 C220 1.503 . S
C219 O234 1.261 . S
C219 O235 1.243 . S
C220 C219 1.503 . S
C220 C221 1.394 . S
C220 C225 1.373 . S
C221 C220 1.394 . S
C221 C222 1.380 . S
C221 H244 0.930 . S
C222 C221 1.380 . S
C222 C223 1.376 . S
C222 H245 0.930 . S
C223 C222 1.376 . S
C223 C224 1.370 . S
C224 C223 1.370 . S
C224 C225 1.396 . S
C224 H246 0.929 . S
C225 C220 1.373 . S
C225 C224 1.396 . S
C225 H247 0.929 . S
C226 O236 1.262 . S
C226 O237 1.276 1_455 S
C227 O238 1.258 . S
C227 O239 1.256 . S
O228 La208 2.521 . S
O228 C210 1.261 . S
O229 La208 2.628 . S
O229 C210 1.243 . S
O230 La208 2.554 . S
O230 C217 1.257 . S
O231 La208 2.757 1_455 S
O231 La209 2.482 . S
O231 C217 1.279 1_455 S
O232 La208 2.470 . S
O232 C218 1.258 . S
O233 La209 2.503 1_655 S
O233 C218 1.256 . S
O234 La209 2.521 . S
O234 C219 1.261 . S
O235 La209 2.628 . S
O235 C219 1.243 . S
O236 La209 2.554 . S
O236 C226 1.262 . S
O237 La208 2.482 . S
O237 La209 2.757 1_655 S
O237 C226 1.276 1_655 S
O238 La209 2.470 . S
O238 C227 1.258 . S
O239 La208 2.503 1_455 S
O239 C227 1.256 . S
H240 C212 0.930 . S
H241 C213 0.930 . S
H242 C215 0.929 . S
H243 C216 0.929 . S
H244 C221 0.930 . S
H245 C222 0.930 . S
H246 C224 0.929 . S
H247 C225 0.929 . S
H248 C260 0.930 . S
H249 C262 0.930 . S
H250 C263 0.930 . S
H251 C267 0.959 . S
H252 C267 0.959 . S
H253 C267 0.961 . S
H254 C268 0.960 . S
H255 C268 0.961 . S
H256 C268 0.959 . S
H257 C271 0.929 . S
H258 C272 0.931 . S
H259 C274 0.930 . S
C260 H248 0.930 . S
C260 C261 1.399 1_565 S
C260 C265 1.399 . S
C261 C260 1.399 1_545 S
C261 C262 1.376 . S
C262 H249 0.930 . S
C262 C261 1.376 . S
C262 C263 1.388 . S
C263 H250 0.930 . S
C263 C262 1.388 . S
C263 C264 1.390 . S
C264 C263 1.390 . S
C264 C265 1.394 1_545 S
C264 C270 1.465 . S
C265 C260 1.399 . S
C265 C264 1.394 1_565 S
C265 C266 1.516 . S
C266 C265 1.516 . S
C266 C267 1.502 . S
C266 C268 1.561 . S
C266 C269 1.526 . S
C267 H251 0.959 . S
C267 H252 0.959 . S
C267 H253 0.961 . S
C267 C266 1.502 . S
C268 H254 0.960 . S
C268 H255 0.961 . S
C268 H256 0.959 . S
C268 C266 1.561 . S
C269 C266 1.526 . S
C269 C270 1.396 1_565 S
C269 C274 1.390 . S
C270 C264 1.465 . S
C270 C269 1.396 1_545 S
C270 C271 1.399 . S
C271 H257 0.929 . S
C271 C270 1.399 . S
C271 C272 1.385 . S
C272 H258 0.931 . S
C272 C271 1.385 . S
C272 C273 1.389 . S
C273 C272 1.389 . S
C273 C274 1.387 1_545 S
C274 H259 0.930 . S
C274 C269 1.390 . S
C274 C273 1.387 1_565 S
H275 C287 0.930 . S
H276 C289 0.930 . S
H277 C290 0.930 . S
H278 C294 0.959 . S
H279 C294 0.959 . S
H280 C294 0.961 . S
H281 C295 0.960 . S
H282 C295 0.961 . S
H283 C295 0.959 . S
H284 C298 0.929 . S
H285 C299 0.931 . S
H286 C301 0.930 . S
C287 H275 0.930 . S
C287 C288 1.399 . S
C287 C292 1.399 . S
C288 C287 1.399 . S
C288 C289 1.376 . S
C289 H276 0.930 . S
C289 C288 1.376 . S
C289 C290 1.388 . S
C290 H277 0.930 . S
C290 C289 1.388 . S
C290 C291 1.390 . S
C291 C290 1.390 . S
C291 C292 1.394 . S
C291 C297 1.465 . S
C292 C287 1.399 . S
C292 C291 1.394 . S
C292 C293 1.516 . S
C293 C292 1.516 . S
C293 C294 1.502 . S
C293 C295 1.561 . S
C293 C296 1.526 . S
C294 H278 0.959 . S
C294 H279 0.959 . S
C294 H280 0.961 . S
C294 C293 1.502 . S
C295 H281 0.960 . S
C295 H282 0.961 . S
C295 H283 0.959 . S
C295 C293 1.561 . S
C296 C293 1.526 . S
C296 C297 1.396 . S
C296 C301 1.390 . S
C297 C291 1.465 . S
C297 C296 1.396 . S
C297 C298 1.399 . S
C298 H284 0.929 . S
C298 C297 1.399 . S
C298 C299 1.385 . S
C299 H285 0.931 . S
C299 C298 1.385 . S
C299 C300 1.389 . S
C300 C299 1.389 . S
C300 C301 1.387 . S
C301 H286 0.930 . S
C301 C296 1.390 . S
C301 C300 1.387 . S
H302 C314 0.930 . S
H303 C316 0.930 . S
H304 C317 0.930 . S
H305 C321 0.959 . S
H306 C321 0.959 . S
H307 C321 0.961 . S
H308 C322 0.960 . S
H309 C322 0.961 . S
H310 C322 0.959 . S
H311 C325 0.929 . S
H312 C326 0.931 . S
H313 C328 0.930 . S
C314 H302 0.930 . S
C314 C315 1.399 . S
C314 C319 1.399 . S
C315 C314 1.399 . S
C315 C316 1.376 . S
C316 H303 0.930 . S
C316 C315 1.376 . S
C316 C317 1.388 . S
C317 H304 0.930 . S
C317 C316 1.388 . S
C317 C318 1.390 . S
C318 C317 1.390 . S
C318 C319 1.394 . S
C318 C324 1.465 . S
C319 C314 1.399 . S
C319 C318 1.394 . S
C319 C320 1.516 . S
C320 C319 1.516 . S
C320 C321 1.502 . S
C320 C322 1.561 . S
C320 C323 1.526 . S
C321 H305 0.959 . S
C321 H306 0.959 . S
C321 H307 0.961 . S
C321 C320 1.502 . S
C322 H308 0.960 . S
C322 H309 0.961 . S
C322 H310 0.959 . S
C322 C320 1.561 . S
C323 C320 1.526 . S
C323 C324 1.396 . S
C323 C328 1.390 . S
C324 C318 1.465 . S
C324 C323 1.396 . S
C324 C325 1.399 . S
C325 H311 0.929 . S
C325 C324 1.399 . S
C325 C326 1.385 . S
C326 H312 0.931 . S
C326 C325 1.385 . S
C326 C327 1.389 . S
C327 C326 1.389 . S
C327 C328 1.387 . S
C328 H313 0.930 . S
C328 C323 1.390 . S
C328 C327 1.387 . S
H329 C341 0.930 . S
H330 C343 0.930 . S
H331 C344 0.930 . S
H332 C348 0.959 . S
H333 C348 0.959 . S
H334 C348 0.961 . S
H335 C349 0.964 . S
H336 C349 0.961 1_455 S
H337 C349 0.959 . S
H338 C352 0.929 . S
H339 C353 0.931 . S
H340 C355 0.930 . S
C341 H329 0.930 . S
C341 C342 1.399 1_455 S
C341 C346 1.399 . S
C342 C341 1.399 1_655 S
C342 C343 1.376 . S
C343 H330 0.930 . S
C343 C342 1.376 . S
C343 C344 1.388 . S
C344 H331 0.930 . S
C344 C343 1.388 . S
C344 C345 1.390 . S
C345 C344 1.390 . S
C345 C346 1.394 1_655 S
C345 C351 1.465 . S
C346 C341 1.399 . S
C346 C345 1.394 1_455 S
C346 C347 1.516 . S
C347 C346 1.516 . S
C347 C348 1.502 . S
C347 C349 1.561 1_455 S
C347 C350 1.526 . S
C348 H332 0.959 . S
C348 H333 0.959 . S
C348 H334 0.961 . S
C348 C347 1.502 . S
C349 H335 0.964 . S
C349 H336 0.961 1_655 S
C349 H337 0.959 . S
C349 C347 1.561 1_655 S
C350 C347 1.526 . S
C350 C351 1.396 1_455 S
C350 C355 1.390 . S
C351 C345 1.465 . S
C351 C350 1.396 1_655 S
C351 C352 1.399 . S
C352 H338 0.929 . S
C352 C351 1.399 . S
C352 C353 1.385 . S
C353 H339 0.931 . S
C353 C352 1.385 . S
C353 C354 1.391 1_655 S
C354 C353 1.391 1_455 S
C354 C355 1.385 . S
C355 H340 0.930 . S
C355 C350 1.390 . S
C355 C354 1.385 . S
H356 C368 0.930 . S
H357 C370 0.930 . S
H358 C371 0.930 . S
H359 C375 0.959 . S
H360 C375 0.959 . S
H361 C375 0.961 . S
H362 C376 0.960 . S
H363 C376 0.961 . S
H364 C376 0.959 . S
H365 C379 0.929 . S
H366 C380 0.931 . S
H367 C382 0.930 . S
C368 H356 0.930 . S
C368 C369 1.399 1_565 S
C368 C373 1.399 . S
C369 C368 1.399 1_545 S
C369 C370 1.376 . S
C370 H357 0.930 . S
C370 C369 1.376 . S
C370 C371 1.388 . S
C371 H358 0.930 . S
C371 C370 1.388 . S
C371 C372 1.390 . S
C372 C371 1.390 . S
C372 C373 1.394 1_545 S
C372 C378 1.465 . S
C373 C368 1.399 . S
C373 C372 1.394 1_565 S
C373 C374 1.516 . S
C374 C373 1.516 . S
C374 C375 1.502 . S
C374 C376 1.561 . S
C374 C377 1.526 . S
C375 H359 0.959 . S
C375 H360 0.959 . S
C375 H361 0.961 . S
C375 C374 1.502 . S
C376 H362 0.960 . S
C376 H363 0.961 . S
C376 H364 0.959 . S
C376 C374 1.561 . S
C377 C374 1.526 . S
C377 C378 1.396 1_565 S
C377 C382 1.390 1_554 S
C378 C372 1.465 . S
C378 C377 1.396 1_545 S
C378 C379 1.399 . S
C379 H365 0.929 . S
C379 C378 1.399 . S
C379 C380 1.385 1_554 S
C380 H366 0.931 . S
C380 C379 1.385 1_556 S
C380 C381 1.389 . S
C381 C380 1.389 . S
C381 C382 1.387 1_545 S
C382 H367 0.930 . S
C382 C377 1.390 1_556 S
C382 C381 1.387 1_565 S
H383 C395 0.930 . S
H384 C397 0.930 . S
H385 C398 0.930 . S
H386 C402 0.959 . S
H387 C402 0.959 . S
H388 C402 0.961 . S
H389 C403 0.960 . S
H390 C403 0.961 . S
H391 C403 0.959 . S
H392 C406 0.929 . S
H393 C407 0.931 . S
H394 C409 0.930 . S
C395 H383 0.930 . S
C395 C396 1.399 . S
C395 C400 1.399 . S
C396 C395 1.399 . S
C396 C397 1.376 . S
C397 H384 0.930 . S
C397 C396 1.376 . S
C397 C398 1.388 . S
C398 H385 0.930 . S
C398 C397 1.388 . S
C398 C399 1.390 . S
C399 C398 1.390 . S
C399 C400 1.394 . S
C399 C405 1.465 . S
C400 C395 1.399 . S
C400 C399 1.394 . S
C400 C401 1.516 . S
C401 C400 1.516 . S
C401 C402 1.502 . S
C401 C403 1.561 . S
C401 C404 1.526 . S
C402 H386 0.959 . S
C402 H387 0.959 . S
C402 H388 0.961 . S
C402 C401 1.502 . S
C403 H389 0.960 . S
C403 H390 0.961 . S
C403 H391 0.959 . S
C403 C401 1.561 . S
C404 C401 1.526 . S
C404 C405 1.396 . S
C404 C409 1.390 . S
C405 C399 1.465 . S
C405 C404 1.396 . S
C405 C406 1.399 1_554 S
C406 H392 0.929 . S
C406 C405 1.399 1_556 S
C406 C407 1.385 . S
C407 H393 0.931 . S
C407 C406 1.385 . S
C407 C408 1.389 . S
C408 C407 1.389 . S
C408 C409 1.387 1_556 S
C409 H394 0.930 . S
C409 C404 1.390 . S
C409 C408 1.387 1_554 S
H410 C422 0.930 . S
H411 C424 0.930 . S
H412 C425 0.930 . S
H413 C429 0.959 . S
H414 C429 0.964 . S
H415 C429 0.961 . S
H416 C430 0.960 . S
H417 C430 0.961 . S
H418 C430 0.959 . S
H419 C433 0.929 . S
H420 C434 0.931 . S
H421 C436 0.930 . S
C422 H410 0.930 . S
C422 C423 1.399 . S
C422 C427 1.399 . S
C423 C422 1.399 . S
C423 C424 1.376 . S
C424 H411 0.930 . S
C424 C423 1.376 . S
C424 C425 1.388 . S
C425 H412 0.930 . S
C425 C424 1.388 . S
C425 C426 1.390 . S
C426 C425 1.390 . S
C426 C427 1.394 . S
C426 C432 1.465 . S
C427 C422 1.399 . S
C427 C426 1.394 . S
C427 C428 1.516 . S
C428 C427 1.516 . S
C428 C429 1.502 . S
C428 C430 1.561 . S
C428 C431 1.526 . S
C429 H413 0.959 . S
C429 H414 0.964 . S
C429 H415 0.961 . S
C429 C428 1.502 . S
C430 H416 0.960 . S
C430 H417 0.961 . S
C430 H418 0.959 . S
C430 C428 1.561 . S
C431 C428 1.526 . S
C431 C432 1.396 . S
C431 C436 1.390 1_554 S
C432 C426 1.465 . S
C432 C431 1.396 . S
C432 C433 1.399 . S
C433 H419 0.929 . S
C433 C432 1.399 . S
C433 C434 1.385 1_554 S
C434 H420 0.931 . S
C434 C433 1.385 1_556 S
C434 C435 1.389 . S
C435 C434 1.389 . S
C435 C436 1.387 . S
C436 H421 0.930 . S
C436 C431 1.390 1_556 S
C436 C435 1.387 . S
H437 C449 0.930 . S
H438 C451 0.930 . S
H439 C452 0.930 . S
H440 C456 0.959 . S
H441 C456 0.959 1_556 S
H442 C456 0.961 . S
H443 C457 0.960 . S
H444 C457 0.961 1_556 S
H445 C457 0.959 . S
H446 C460 0.929 . S
H447 C461 0.931 . S
H448 C463 0.930 . S
C449 H437 0.930 . S
C449 C450 1.399 1_655 S
C449 C454 1.399 . S
C450 C449 1.399 1_455 S
C450 C451 1.376 . S
C451 H438 0.930 . S
C451 C450 1.376 . S
C451 C452 1.388 . S
C452 H439 0.930 . S
C452 C451 1.388 . S
C452 C453 1.390 . S
C453 C452 1.390 . S
C453 C454 1.394 1_455 S
C453 C459 1.465 . S
C454 C449 1.399 . S
C454 C453 1.394 1_655 S
C454 C455 1.516 . S
C455 C454 1.516 . S
C455 C456 1.502 . S
C455 C457 1.561 1_655 S
C455 C458 1.526 . S
C456 H440 0.959 . S
C456 H441 0.959 1_554 S
C456 H442 0.961 . S
C456 C455 1.502 . S
C457 H443 0.960 . S
C457 H444 0.961 1_554 S
C457 H445 0.959 . S
C457 C455 1.561 1_455 S
C458 C455 1.526 . S
C458 C459 1.396 1_655 S
C458 C463 1.390 1_554 S
C459 C453 1.465 . S
C459 C458 1.396 1_455 S
C459 C460 1.399 . S
C460 H446 0.929 . S
C460 C459 1.399 . S
C460 C461 1.385 . S
C461 H447 0.931 . S
C461 C460 1.385 . S
C461 C462 1.383 1_454 S
C462 C461 1.383 1_656 S
C462 C463 1.391 . S
C463 H448 0.930 . S
C463 C458 1.390 1_556 S
C463 C462 1.391 . S
H464 C476 0.930 . S
H465 C478 0.930 . S
H466 C479 0.930 . S
H467 C483 0.959 . S
H468 C483 0.959 . S
H469 C483 0.961 . S
H470 C484 0.960 . S
H471 C484 0.961 . S
H472 C484 0.959 1_455 S
H473 C487 0.929 . S
H474 C488 0.931 . S
H475 C490 0.930 . S
C476 H464 0.930 . S
C476 C477 1.399 1_655 S
C476 C481 1.399 . S
C477 C476 1.399 1_455 S
C477 C478 1.376 . S
C478 H465 0.930 . S
C478 C477 1.376 . S
C478 C479 1.388 . S
C479 H466 0.930 . S
C479 C478 1.388 . S
C479 C480 1.390 1_455 S
C480 C479 1.390 1_655 S
C480 C481 1.394 . S
C480 C486 1.465 . S
C481 C476 1.399 . S
C481 C480 1.394 . S
C481 C482 1.516 . S
C482 C481 1.516 . S
C482 C483 1.502 . S
C482 C484 1.561 . S
C482 C485 1.526 . S
C483 H467 0.959 . S
C483 H468 0.959 . S
C483 H469 0.961 . S
C483 C482 1.502 . S
C484 H470 0.960 . S
C484 H471 0.961 . S
C484 H472 0.959 1_655 S
C484 C482 1.561 . S
C485 C482 1.526 . S
C485 C486 1.396 . S
C485 C490 1.390 . S
C486 C480 1.465 . S
C486 C485 1.396 . S
C486 C487 1.399 . S
C487 H473 0.929 . S
C487 C486 1.399 . S
C487 C488 1.385 . S
C488 H474 0.931 . S
C488 C487 1.385 . S
C488 C489 1.389 . S
C489 C488 1.389 . S
C489 C490 1.387 . S
C490 H475 0.930 . S
C490 C485 1.390 . S
C490 C489 1.387 . S
H491 C503 0.930 . S
H492 C505 0.930 . S
H493 C506 0.930 . S
H494 C510 0.959 . S
H495 C510 0.959 . S
H496 C510 0.961 . S
H497 C511 0.960 . S
H498 C511 0.961 . S
H499 C511 0.959 . S
H500 C514 0.929 1_545 S
H501 C515 0.931 . S
H502 C517 0.930 . S
C503 H491 0.930 . S
C503 C504 1.399 1_565 S
C503 C508 1.399 . S
C504 C503 1.399 1_545 S
C504 C505 1.376 . S
C505 H492 0.930 . S
C505 C504 1.376 . S
C505 C506 1.388 . S
C506 H493 0.930 . S
C506 C505 1.388 . S
C506 C507 1.390 1_545 S
C507 C506 1.390 1_565 S
C507 C508 1.394 . S
C507 C513 1.465 . S
C508 C503 1.399 . S
C508 C507 1.394 . S
C508 C509 1.516 . S
C509 C508 1.516 . S
C509 C510 1.502 . S
C509 C511 1.561 . S
C509 C512 1.526 . S
C510 H494 0.959 . S
C510 H495 0.959 . S
C510 H496 0.961 . S
C510 C509 1.502 . S
C511 H497 0.960 . S
C511 H498 0.961 . S
C511 H499 0.959 . S
C511 C509 1.561 . S
C512 C509 1.526 . S
C512 C513 1.396 . S
C512 C517 1.390 . S
C513 C507 1.465 . S
C513 C512 1.396 . S
C513 C514 1.399 . S
C514 H500 0.929 1_565 S
C514 C513 1.399 . S
C514 C515 1.385 . S
C515 H501 0.931 . S
C515 C514 1.385 . S
C515 C516 1.389 . S
C516 C515 1.389 . S
C516 C517 1.387 . S
C517 H502 0.930 . S
C517 C512 1.390 . S
C517 C516 1.387 . S
H518 C530 0.930 . S
H519 C532 0.930 . S
H520 C533 0.930 . S
H521 C537 0.959 . S
H522 C537 0.959 . S
H523 C537 0.961 . S
H524 C538 0.960 . S
H525 C538 0.961 . S
H526 C538 0.959 . S
H527 C541 0.929 . S
H528 C542 0.931 . S
H529 C544 0.930 . S
C530 H518 0.930 . S
C530 C531 1.399 . S
C530 C535 1.399 . S
C531 C530 1.399 . S
C531 C532 1.376 . S
C532 H519 0.930 . S
C532 C531 1.376 . S
C532 C533 1.388 . S
C533 H520 0.930 . S
C533 C532 1.388 . S
C533 C534 1.390 . S
C534 C533 1.390 . S
C534 C535 1.394 . S
C534 C540 1.465 . S
C535 C530 1.399 . S
C535 C534 1.394 . S
C535 C536 1.516 . S
C536 C535 1.516 . S
C536 C537 1.502 . S
C536 C538 1.561 . S
C536 C539 1.526 . S
C537 H521 0.959 . S
C537 H522 0.959 . S
C537 H523 0.961 . S
C537 C536 1.502 . S
C538 H524 0.960 . S
C538 H525 0.961 . S
C538 H526 0.959 . S
C538 C536 1.561 . S
C539 C536 1.526 . S
C539 C540 1.396 . S
C539 C544 1.390 . S
C540 C534 1.465 . S
C540 C539 1.396 . S
C540 C541 1.399 . S
C541 H527 0.929 . S
C541 C540 1.399 . S
C541 C542 1.385 . S
C542 H528 0.931 . S
C542 C541 1.385 . S
C542 C543 1.389 . S
C543 C542 1.389 . S
C543 C544 1.387 . S
C544 H529 0.930 . S
C544 C539 1.390 . S
C544 C543 1.387 . S
H545 C557 0.930 . S
H546 C559 0.930 . S
H547 C560 0.930 . S
H548 C564 0.959 . S
H549 C564 0.959 . S
H550 C564 0.961 . S
H551 C565 0.960 . S
H552 C565 0.961 . S
H553 C565 0.959 . S
H554 C568 0.929 . S
H555 C569 0.931 . S
H556 C571 0.930 . S
C557 H545 0.930 . S
C557 C558 1.399 . S
C557 C562 1.399 . S
C558 C557 1.399 . S
C558 C559 1.376 . S
C559 H546 0.930 . S
C559 C558 1.376 . S
C559 C560 1.388 . S
C560 H547 0.930 . S
C560 C559 1.388 . S
C560 C561 1.390 . S
C561 C560 1.390 . S
C561 C562 1.394 . S
C561 C567 1.465 . S
C562 C557 1.399 . S
C562 C561 1.394 . S
C562 C563 1.516 . S
C563 C562 1.516 . S
C563 C564 1.502 . S
C563 C565 1.561 . S
C563 C566 1.526 . S
C564 H548 0.959 . S
C564 H549 0.959 . S
C564 H550 0.961 . S
C564 C563 1.502 . S
C565 H551 0.960 . S
C565 H552 0.961 . S
C565 H553 0.959 . S
C565 C563 1.561 . S
C566 C563 1.526 . S
C566 C567 1.396 . S
C566 C571 1.390 . S
C567 C561 1.465 . S
C567 C566 1.396 . S
C567 C568 1.399 . S
C568 H554 0.929 . S
C568 C567 1.399 . S
C568 C569 1.385 . S
C569 H555 0.931 . S
C569 C568 1.385 . S
C569 C570 1.389 . S
C570 C569 1.389 . S
C570 C571 1.387 . S
C571 H556 0.930 . S
C571 C566 1.390 . S
C571 C570 1.387 . S
H572 C584 0.930 . S
H573 C586 0.930 . S
H574 C587 0.930 . S
H575 C591 0.959 . S
H576 C591 0.959 . S
H577 C591 0.961 . S
H578 C592 0.960 . S
H579 C592 0.961 . S
H580 C592 0.959 1_655 S
H581 C595 0.929 . S
H582 C596 0.931 . S
H583 C598 0.930 . S
C584 H572 0.930 . S
C584 C585 1.399 1_455 S
C584 C589 1.399 . S
C585 C584 1.399 1_655 S
C585 C586 1.376 . S
C586 H573 0.930 . S
C586 C585 1.376 . S
C586 C587 1.388 . S
C587 H574 0.930 . S
C587 C586 1.388 . S
C587 C588 1.390 1_655 S
C588 C587 1.390 1_455 S
C588 C589 1.394 . S
C588 C594 1.465 . S
C589 C584 1.399 . S
C589 C588 1.394 . S
C589 C590 1.516 . S
C590 C589 1.516 . S
C590 C591 1.502 . S
C590 C592 1.561 . S
C590 C593 1.526 . S
C591 H575 0.959 . S
C591 H576 0.959 . S
C591 H577 0.961 . S
C591 C590 1.502 . S
C592 H578 0.960 . S
C592 H579 0.961 . S
C592 H580 0.959 1_455 S
C592 C590 1.561 . S
C593 C590 1.526 . S
C593 C594 1.396 . S
C593 C598 1.390 . S
C594 C588 1.465 . S
C594 C593 1.396 . S
C594 C595 1.399 . S
C595 H581 0.929 . S
C595 C594 1.399 . S
C595 C596 1.385 . S
C596 H582 0.931 . S
C596 C595 1.385 . S
C596 C597 1.389 . S
C597 C596 1.389 . S
C597 C598 1.387 . S
C598 H583 0.930 . S
C598 C593 1.390 . S
C598 C597 1.387 . S
H599 C611 0.930 . S
H600 C613 0.930 . S
H601 C614 0.930 . S
H602 C618 0.959 . S
H603 C618 0.959 . S
H604 C618 0.961 . S
H605 C619 0.960 . S
H606 C619 0.961 . S
H607 C619 0.959 . S
H608 C622 0.929 . S
H609 C623 0.931 . S
H610 C625 0.930 . S
C611 H599 0.930 . S
C611 C612 1.399 . S
C611 C616 1.399 1_565 S
C612 C611 1.399 . S
C612 C613 1.376 1_565 S
C613 H600 0.930 . S
C613 C612 1.376 1_545 S
C613 C614 1.388 . S
C614 H601 0.930 . S
C614 C613 1.388 . S
C614 C615 1.390 . S
C615 C614 1.390 . S
C615 C616 1.394 . S
C615 C621 1.465 . S
C616 C611 1.399 1_545 S
C616 C615 1.394 . S
C616 C617 1.516 . S
C617 C616 1.516 . S
C617 C618 1.502 . S
C617 C619 1.561 1_545 S
C617 C620 1.526 . S
C618 H602 0.959 . S
C618 H603 0.959 . S
C618 H604 0.961 . S
C618 C617 1.502 . S
C619 H605 0.960 . S
C619 H606 0.961 . S
C619 H607 0.959 . S
C619 C617 1.561 1_565 S
C620 C617 1.526 . S
C620 C621 1.396 . S
C620 C625 1.390 . S
C621 C615 1.465 . S
C621 C620 1.396 . S
C621 C622 1.399 . S
C622 H608 0.929 . S
C622 C621 1.399 . S
C622 C623 1.385 . S
C623 H609 0.931 . S
C623 C622 1.385 . S
C623 C624 1.389 . S
C624 C623 1.389 . S
C624 C625 1.387 . S
C625 H610 0.930 . S
C625 C620 1.390 . S
C625 C624 1.387 . S
H626 C638 0.930 . S
H627 C640 0.930 . S
H628 C641 0.930 . S
H629 C645 0.959 . S
H630 C645 0.959 . S
H631 C645 0.961 . S
H632 C646 0.960 . S
H633 C646 0.961 . S
H634 C646 0.959 . S
H635 C649 0.929 . S
H636 C650 0.931 . S
H637 C652 0.930 . S
C638 H626 0.930 . S
C638 C639 1.399 . S
C638 C643 1.399 . S
C639 C638 1.399 . S
C639 C640 1.376 . S
C640 H627 0.930 . S
C640 C639 1.376 . S
C640 C641 1.388 . S
C641 H628 0.930 . S
C641 C640 1.388 . S
C641 C642 1.390 . S
C642 C641 1.390 . S
C642 C643 1.394 . S
C642 C648 1.465 . S
C643 C638 1.399 . S
C643 C642 1.394 . S
C643 C644 1.516 . S
C644 C643 1.516 . S
C644 C645 1.502 . S
C644 C646 1.561 . S
C644 C647 1.526 . S
C645 H629 0.959 . S
C645 H630 0.959 . S
C645 H631 0.961 . S
C645 C644 1.502 . S
C646 H632 0.960 . S
C646 H633 0.961 . S
C646 H634 0.959 . S
C646 C644 1.561 . S
C647 C644 1.526 . S
C647 C648 1.396 . S
C647 C652 1.390 . S
C648 C642 1.465 . S
C648 C647 1.396 . S
C648 C649 1.399 . S
C649 H635 0.929 . S
C649 C648 1.399 . S
C649 C650 1.385 . S
C650 H636 0.931 . S
C650 C649 1.385 . S
C650 C651 1.389 . S
C651 C650 1.389 . S
C651 C652 1.387 . S
C652 H637 0.930 . S
C652 C647 1.390 . S
C652 C651 1.387 . S
H653 C665 0.930 . S
H654 C667 0.930 . S
H655 C668 0.930 . S
H656 C672 0.959 . S
H657 C672 0.959 . S
H658 C672 0.961 . S
H659 C673 0.960 . S
H660 C673 0.961 . S
H661 C673 0.959 . S
H662 C676 0.929 . S
H663 C677 0.931 . S
H664 C679 0.930 . S
C665 H653 0.930 . S
C665 C666 1.399 . S
C665 C670 1.399 . S
C666 C665 1.399 . S
C666 C667 1.376 . S
C667 H654 0.930 . S
C667 C666 1.376 . S
C667 C668 1.388 . S
C668 H655 0.930 . S
C668 C667 1.388 . S
C668 C669 1.390 . S
C669 C668 1.390 . S
C669 C670 1.394 . S
C669 C675 1.465 . S
C670 C665 1.399 . S
C670 C669 1.394 . S
C670 C671 1.516 . S
C671 C670 1.516 . S
C671 C672 1.502 . S
C671 C673 1.561 . S
C671 C674 1.526 . S
C672 H656 0.959 . S
C672 H657 0.959 . S
C672 H658 0.961 . S
C672 C671 1.502 . S
C673 H659 0.960 . S
C673 H660 0.961 . S
C673 H661 0.959 . S
C673 C671 1.561 . S
C674 C671 1.526 . S
C674 C675 1.396 . S
C674 C679 1.390 . S
C675 C669 1.465 . S
C675 C674 1.396 . S
C675 C676 1.399 . S
C676 H662 0.929 . S
C676 C675 1.399 . S
C676 C677 1.385 . S
C677 H663 0.931 . S
C677 C676 1.385 . S
C677 C678 1.389 . S
C678 C677 1.389 . S
C678 C679 1.387 . S
C679 H664 0.930 . S
C679 C674 1.390 . S
C679 C678 1.387 . S
H680 C692 0.930 . S
H681 C694 0.930 . S
H682 C695 0.930 . S
H683 C699 0.959 1_556 S
H684 C699 0.959 . S
H685 C699 0.961 . S
H686 C700 0.960 . S
H687 C700 0.961 . S
H688 C700 0.959 . S
H689 C703 0.929 . S
H690 C704 0.931 1_655 S
H691 C706 0.930 . S
C692 H680 0.930 . S
C692 C693 1.402 . S
C692 C697 1.399 . S
C693 C692 1.402 . S
C693 C694 1.374 1_455 S
C694 H681 0.930 . S
C694 C693 1.374 1_655 S
C694 C695 1.388 . S
C695 H682 0.930 . S
C695 C694 1.388 . S
C695 C696 1.404 . S
C696 C695 1.404 . S
C696 C697 1.380 1_655 S
C696 C702 1.462 1_655 S
C697 C692 1.399 . S
C697 C696 1.380 1_455 S
C697 C698 1.516 . S
C698 C697 1.516 . S
C698 C699 1.502 1_556 S
C698 C700 1.561 1_456 S
C698 C701 1.526 . S
C699 H683 0.959 1_554 S
C699 H684 0.959 . S
C699 H685 0.961 . S
C699 C698 1.502 1_554 S
C700 H686 0.960 . S
C700 H687 0.961 . S
C700 H688 0.959 . S
C700 C698 1.561 1_654 S
C701 C698 1.526 . S
C701 C702 1.396 . S
C701 C706 1.390 . S
C702 C696 1.462 1_455 S
C702 C701 1.396 . S
C702 C703 1.399 1_455 S
C703 H689 0.929 . S
C703 C702 1.399 1_655 S
C703 C704 1.385 1_655 S
C704 H690 0.931 1_455 S
C704 C703 1.385 1_455 S
C704 C705 1.389 . S
C705 C704 1.389 . S
C705 C706 1.387 . S
C706 H691 0.930 . S
C706 C701 1.390 . S
C706 C705 1.387 . S
H707 C719 0.930 . S
H708 C721 0.930 . S
H709 C722 0.930 . S
H710 C726 0.959 . S
H711 C726 0.959 . S
H712 C726 0.961 . S
H713 C727 0.960 . S
H714 C727 0.961 . S
H715 C727 0.959 . S
H716 C730 0.929 . S
H717 C731 0.931 . S
H718 C733 0.930 . S
C719 H707 0.930 . S
C719 C720 1.399 1_565 S
C719 C724 1.399 . S
C720 C719 1.399 1_545 S
C720 C721 1.376 . S
C721 H708 0.930 . S
C721 C720 1.376 . S
C721 C722 1.388 . S
C722 H709 0.930 . S
C722 C721 1.388 . S
C722 C723 1.390 . S
C723 C722 1.390 . S
C723 C724 1.394 1_545 S
C723 C729 1.465 . S
C724 C719 1.399 . S
C724 C723 1.394 1_565 S
C724 C725 1.516 . S
C725 C724 1.516 . S
C725 C726 1.502 1_556 S
C725 C727 1.561 . S
C725 C728 1.526 . S
C726 H710 0.959 . S
C726 H711 0.959 . S
C726 H712 0.961 . S
C726 C725 1.502 1_554 S
C727 H713 0.960 . S
C727 H714 0.961 . S
C727 H715 0.959 . S
C727 C725 1.561 . S
C728 C725 1.526 . S
C728 C729 1.396 1_565 S
C728 C733 1.390 . S
C729 C723 1.465 . S
C729 C728 1.396 1_545 S
C729 C730 1.399 . S
C730 H716 0.929 . S
C730 C729 1.399 . S
C730 C731 1.385 . S
C731 H717 0.931 . S
C731 C730 1.385 . S
C731 C732 1.389 . S
C732 C731 1.389 . S
C732 C733 1.387 1_545 S
C733 H718 0.930 . S
C733 C728 1.390 . S
C733 C732 1.387 1_565 S
H734 C746 0.930 . S
H735 C748 0.930 1_554 S
H736 C749 0.930 1_554 S
H737 C753 0.959 . S
H738 C753 0.959 . S
H739 C753 0.961 . S
H740 C754 0.960 . S
H741 C754 0.961 . S
H742 C754 0.959 . S
H743 C757 0.929 1_554 S
H744 C758 0.931 . S
H745 C760 0.930 . S
C746 H734 0.930 . S
C746 C747 1.399 . S
C746 C751 1.399 . S
C747 C746 1.399 . S
C747 C748 1.376 . S
C748 H735 0.930 1_556 S
C748 C747 1.376 . S
C748 C749 1.388 . S
C749 H736 0.930 1_556 S
C749 C748 1.388 . S
C749 C750 1.390 . S
C750 C749 1.390 . S
C750 C751 1.394 . S
C750 C756 1.465 . S
C751 C746 1.399 . S
C751 C750 1.394 . S
C751 C752 1.516 . S
C752 C751 1.516 . S
C752 C753 1.502 . S
C752 C754 1.561 . S
C752 C755 1.526 . S
C753 H737 0.959 . S
C753 H738 0.959 . S
C753 H739 0.961 . S
C753 C752 1.502 . S
C754 H740 0.960 . S
C754 H741 0.961 . S
C754 H742 0.959 . S
C754 C752 1.561 . S
C755 C752 1.526 . S
C755 C756 1.396 . S
C755 C760 1.390 . S
C756 C750 1.465 . S
C756 C755 1.396 . S
C756 C757 1.399 . S
C757 H743 0.929 1_556 S
C757 C756 1.399 . S
C757 C758 1.385 . S
C758 H744 0.931 . S
C758 C757 1.385 . S
C758 C759 1.389 . S
C759 C758 1.389 . S
C759 C760 1.387 . S
C760 H745 0.930 . S
C760 C755 1.390 . S
C760 C759 1.387 . S
H761 C773 0.930 . S
H762 C775 0.930 1_554 S
H763 C776 0.930 1_554 S
H764 C780 0.959 . S
H765 C780 0.959 . S
H766 C780 0.961 . S
H767 C781 0.960 . S
H768 C781 0.961 . S
H769 C781 0.959 . S
H770 C784 0.929 1_554 S
H771 C785 0.931 . S
H772 C787 0.930 . S
C773 H761 0.930 . S
C773 C774 1.399 . S
C773 C778 1.399 . S
C774 C773 1.399 . S
C774 C775 1.376 . S
C775 H762 0.930 1_556 S
C775 C774 1.376 . S
C775 C776 1.388 . S
C776 H763 0.930 1_556 S
C776 C775 1.388 . S
C776 C777 1.390 . S
C777 C776 1.390 . S
C777 C778 1.394 . S
C777 C783 1.465 . S
C778 C773 1.399 . S
C778 C777 1.394 . S
C778 C779 1.516 . S
C779 C778 1.516 . S
C779 C780 1.502 . S
C779 C781 1.561 . S
C779 C782 1.526 . S
C780 H764 0.959 . S
C780 H765 0.959 . S
C780 H766 0.961 . S
C780 C779 1.502 . S
C781 H767 0.960 . S
C781 H768 0.961 . S
C781 H769 0.959 . S
C781 C779 1.561 . S
C782 C779 1.526 . S
C782 C783 1.396 . S
C782 C787 1.390 . S
C783 C777 1.465 . S
C783 C782 1.396 . S
C783 C784 1.399 . S
C784 H770 0.929 1_556 S
C784 C783 1.399 . S
C784 C785 1.385 . S
C785 H771 0.931 . S
C785 C784 1.385 . S
C785 C786 1.389 . S
C786 C785 1.389 . S
C786 C787 1.387 . S
C787 H772 0.930 . S
C787 C782 1.390 . S
C787 C786 1.387 . S
H788 C800 0.930 . S
H789 C802 0.930 . S
H790 C803 0.930 . S
H791 C807 0.959 . S
H792 C807 0.959 . S
H793 C807 0.961 . S
H794 C808 0.960 . S
H795 C808 0.961 . S
H796 C808 0.959 . S
H797 C811 0.929 . S
H798 C812 0.931 . S
H799 C814 0.930 1_455 S
C800 H788 0.930 . S
C800 C801 1.399 1_455 S
C800 C805 1.397 1_455 S
C801 C800 1.399 1_655 S
C801 C802 1.376 . S
C802 H789 0.930 . S
C802 C801 1.376 . S
C802 C803 1.388 . S
C803 H790 0.930 . S
C803 C802 1.388 . S
C803 C804 1.390 . S
C804 C803 1.390 . S
C804 C805 1.399 . S
C804 C810 1.465 . S
C805 C800 1.397 1_655 S
C805 C804 1.399 . S
C805 C806 1.514 1_655 S
C806 C805 1.514 1_455 S
C806 C807 1.502 . S
C806 C808 1.561 1_455 S
C806 C809 1.526 1_455 S
C807 H791 0.959 . S
C807 H792 0.959 . S
C807 H793 0.961 . S
C807 C806 1.502 . S
C808 H794 0.960 . S
C808 H795 0.961 . S
C808 H796 0.959 . S
C808 C806 1.561 1_655 S
C809 C806 1.526 1_655 S
C809 C810 1.396 . S
C809 C814 1.390 . S
C810 C804 1.465 . S
C810 C809 1.396 . S
C810 C811 1.399 . S
C811 H797 0.929 . S
C811 C810 1.399 . S
C811 C812 1.385 . S
C812 H798 0.931 . S
C812 C811 1.385 . S
C812 C813 1.389 . S
C813 C812 1.389 . S
C813 C814 1.387 . S
C814 H799 0.930 1_655 S
C814 C809 1.390 . S
C814 C813 1.387 . S
H815 C827 0.932 . S
H816 C829 0.933 . S
H817 C830 0.930 . S
H818 C834 0.959 . S
H819 C834 0.959 . S
H820 C834 0.961 . S
H821 C835 0.960 . S
H822 C835 0.961 . S
H823 C835 0.959 . S
H824 C838 0.929 . S
H825 C839 0.931 . S
H826 C841 0.930 . S
C827 H815 0.932 . S
C827 C828 1.400 . S
C827 C832 1.399 . S
C828 C827 1.400 . S
C828 C829 1.378 . S
C829 H816 0.933 . S
C829 C828 1.378 . S
C829 C830 1.388 . S
C830 H817 0.930 . S
C830 C829 1.388 . S
C830 C831 1.390 . S
C831 C830 1.390 . S
C831 C832 1.394 . S
C831 C837 1.465 . S
C832 C827 1.399 . S
C832 C831 1.394 . S
C832 C833 1.516 . S
C833 C832 1.516 . S
C833 C834 1.502 . S
C833 C835 1.561 1_565 S
C833 C836 1.526 . S
C834 H818 0.959 . S
C834 H819 0.959 . S
C834 H820 0.961 . S
C834 C833 1.502 . S
C835 H821 0.960 . S
C835 H822 0.961 . S
C835 H823 0.959 . S
C835 C833 1.561 1_545 S
C836 C833 1.526 . S
C836 C837 1.396 . S
C836 C841 1.390 . S
C837 C831 1.465 . S
C837 C836 1.396 . S
C837 C838 1.399 . S
C838 H824 0.929 . S
C838 C837 1.399 . S
C838 C839 1.385 . S
C839 H825 0.931 . S
C839 C838 1.385 . S
C839 C840 1.389 . S
C840 C839 1.389 . S
C840 C841 1.387 . S
C841 H826 0.930 . S
C841 C836 1.390 . S
C841 C840 1.387 . S
H842 C854 0.930 . S
H843 C856 0.930 . S
H844 C857 0.930 . S
H845 C861 0.959 . S
H846 C861 0.959 . S
H847 C861 0.961 . S
H848 C862 0.960 . S
H849 C862 0.961 . S
H850 C862 0.959 . S
H851 C865 0.929 . S
H852 C866 0.931 . S
H853 C868 0.930 . S
C854 H842 0.930 . S
C854 C855 1.399 . S
C854 C859 1.399 . S
C855 C854 1.399 . S
C855 C856 1.376 . S
C856 H843 0.930 . S
C856 C855 1.376 . S
C856 C857 1.388 . S
C857 H844 0.930 . S
C857 C856 1.388 . S
C857 C858 1.390 . S
C858 C857 1.390 . S
C858 C859 1.394 . S
C858 C864 1.465 . S
C859 C854 1.399 . S
C859 C858 1.394 . S
C859 C860 1.516 . S
C860 C859 1.516 . S
C860 C861 1.502 . S
C860 C862 1.561 . S
C860 C863 1.526 . S
C861 H845 0.959 . S
C861 H846 0.959 . S
C861 H847 0.961 . S
C861 C860 1.502 . S
C862 H848 0.960 . S
C862 H849 0.961 . S
C862 H850 0.959 . S
C862 C860 1.561 . S
C863 C860 1.526 . S
C863 C864 1.396 . S
C863 C868 1.390 . S
C864 C858 1.465 . S
C864 C863 1.396 . S
C864 C865 1.399 . S
C865 H851 0.929 . S
C865 C864 1.399 . S
C865 C866 1.385 . S
C866 H852 0.931 . S
C866 C865 1.385 . S
C866 C867 1.389 . S
C867 C866 1.389 . S
C867 C868 1.387 . S
C868 H853 0.930 . S
C868 C863 1.390 . S
C868 C867 1.387 . S
H869 C881 0.930 . S
H870 C883 0.930 . S
H871 C884 0.930 . S
H872 C888 0.959 . S
H873 C888 0.959 . S
H874 C888 0.961 . S
H875 C889 0.960 . S
H876 C889 0.961 . S
H877 C889 0.959 . S
H878 C892 0.929 . S
H879 C893 0.931 . S
H880 C895 0.930 . S
C881 H869 0.930 . S
C881 C882 1.399 . S
C881 C886 1.399 . S
C882 C881 1.399 . S
C882 C883 1.376 . S
C883 H870 0.930 . S
C883 C882 1.376 . S
C883 C884 1.388 . S
C884 H871 0.930 . S
C884 C883 1.388 . S
C884 C885 1.390 . S
C885 C884 1.390 . S
C885 C886 1.394 . S
C885 C891 1.465 . S
C886 C881 1.399 . S
C886 C885 1.394 . S
C886 C887 1.516 . S
C887 C886 1.516 . S
C887 C888 1.502 . S
C887 C889 1.561 . S
C887 C890 1.526 . S
C888 H872 0.959 . S
C888 H873 0.959 . S
C888 H874 0.961 . S
C888 C887 1.502 . S
C889 H875 0.960 . S
C889 H876 0.961 . S
C889 H877 0.959 . S
C889 C887 1.561 . S
C890 C887 1.526 . S
C890 C891 1.396 . S
C890 C895 1.390 . S
C891 C885 1.465 . S
C891 C890 1.396 . S
C891 C892 1.399 . S
C892 H878 0.929 . S
C892 C891 1.399 . S
C892 C893 1.385 . S
C893 H879 0.931 . S
C893 C892 1.385 . S
C893 C894 1.389 . S
C894 C893 1.389 . S
C894 C895 1.387 . S
C895 H880 0.930 . S
C895 C890 1.390 . S
C895 C894 1.387 . S
C261 C76 1.796 1_545 S
C273 C97 1.963 1_545 S
C300 C137 1.961 . S
C288 C87 1.788 . S
C327 C177 1.965 . S
C315 C54 1.869 . S
C354 C217 1.952 1_455 S
C342 C65 1.804 . S
C381 C106 1.948 . S
C369 C32 1.805 1_545 S
C396 C43 1.792 . S
C408 C146 1.966 . S
C423 C10 1.864 . S
C435 C186 1.985 . S
C450 C21 1.862 1_455 S
C462 C226 1.965 1_655 S
C489 C103 0.458 . S
C477 C60 0.625 . S
C516 C143 0.452 . S
C504 C71 0.488 . S
C543 C183 0.423 . S
C531 C82 0.553 . S
C558 C49 0.525 . S
C570 C223 0.604 . S
C585 C16 0.523 1_655 S
C597 C94 0.471 . S
C624 C134 0.562 . S
C612 C27 0.437 1_565 S
C651 C174 0.561 . S
C639 C38 0.562 . S
C666 C5 0.434 . S
C678 C214 0.565 . S
C693 C59 2.080 . S
C705 C107 2.267 . S
C720 C70 2.066 . S
C732 C147 2.274 . S
C759 C187 2.255 . S
C747 C81 1.973 . S
C786 C227 2.275 . S
C774 C48 1.988 . S
C801 C15 2.070 1_655 S
C813 C98 2.302 . S
C840 C138 2.254 . S
C828 C26 1.980 1_565 S
C867 C178 2.228 . S
C855 C37 2.005 . S
C882 C4 1.991 . S
C894 C218 2.278 . S
