# Generated by pormake.
# Topology wbl, (4,4)-cn, num edge types: 1
# Building blocks:
#     Node 0, Type 0, BuildingBlock: MUDLON_clean_linker_0, # of connection points: 4
#     Node 1, Type 0, BuildingBlock: MUDLON_clean_linker_0, # of connection points: 4
#     Node 2, Type 0, BuildingBlock: MUDLON_clean_linker_0, # of connection points: 4
#     Node 3, Type 0, BuildingBlock: MUDLON_clean_linker_0, # of connection points: 4
#     Node 4, Type 0, BuildingBlock: MUDLON_clean_linker_0, # of connection points: 4
#     Node 5, Type 0, BuildingBlock: MUDLON_clean_linker_0, # of connection points: 4
#     Node 6, Type 0, BuildingBlock: MUDLON_clean_linker_0, # of connection points: 4
#     Node 7, Type 0, BuildingBlock: MUDLON_clean_linker_0, # of connection points: 4
#     Node 8, Type 1, BuildingBlock: QUQFOY_clean_sbu_1, # of connection points: 4
#     Node 9, Type 1, BuildingBlock: QUQFOY_clean_sbu_1, # of connection points: 4
#     Node 10, Type 1, BuildingBlock: QUQFOY_clean_sbu_1, # of connection points: 4
#     Node 11, Type 1, BuildingBlock: QUQFOY_clean_sbu_1, # of connection points: 4
#     Node 12, Type 1, BuildingBlock: QUQFOY_clean_sbu_1, # of connection points: 4
#     Node 13, Type 1, BuildingBlock: QUQFOY_clean_sbu_1, # of connection points: 4
#     Node 14, Type 1, BuildingBlock: QUQFOY_clean_sbu_1, # of connection points: 4
#     Node 15, Type 1, BuildingBlock: QUQFOY_clean_sbu_1, # of connection points: 4
#     Edge 16, Type (0, 1), BuildingBlock: TEMPAE_clean_linker_10, # of connection points: 2
#     Edge 17, Type (0, 1), BuildingBlock: TEMPAE_clean_linker_10, # of connection points: 2
#     Edge 18, Type (0, 1), BuildingBlock: TEMPAE_clean_linker_10, # of connection points: 2
#     Edge 19, Type (0, 1), BuildingBlock: TEMPAE_clean_linker_10, # of connection points: 2
#     Edge 20, Type (0, 1), BuildingBlock: TEMPAE_clean_linker_10, # of connection points: 2
#     Edge 21, Type (0, 1), BuildingBlock: TEMPAE_clean_linker_10, # of connection points: 2
#     Edge 22, Type (0, 1), BuildingBlock: TEMPAE_clean_linker_10, # of connection points: 2
#     Edge 23, Type (0, 1), BuildingBlock: TEMPAE_clean_linker_10, # of connection points: 2
#     Edge 24, Type (0, 1), BuildingBlock: TEMPAE_clean_linker_10, # of connection points: 2
#     Edge 25, Type (0, 1), BuildingBlock: TEMPAE_clean_linker_10, # of connection points: 2
#     Edge 26, Type (0, 1), BuildingBlock: TEMPAE_clean_linker_10, # of connection points: 2
#     Edge 27, Type (0, 1), BuildingBlock: TEMPAE_clean_linker_10, # of connection points: 2
#     Edge 28, Type (0, 1), BuildingBlock: TEMPAE_clean_linker_10, # of connection points: 2
#     Edge 29, Type (0, 1), BuildingBlock: TEMPAE_clean_linker_10, # of connection points: 2
#     Edge 30, Type (0, 1), BuildingBlock: TEMPAE_clean_linker_10, # of connection points: 2
#     Edge 31, Type (0, 1), BuildingBlock: TEMPAE_clean_linker_10, # of connection points: 2
#     Edge 32, Type (0, 1), BuildingBlock: TEMPAE_clean_linker_10, # of connection points: 2
#     Edge 33, Type (0, 1), BuildingBlock: TEMPAE_clean_linker_10, # of connection points: 2
#     Edge 34, Type (0, 1), BuildingBlock: TEMPAE_clean_linker_10, # of connection points: 2
#     Edge 35, Type (0, 1), BuildingBlock: TEMPAE_clean_linker_10, # of connection points: 2
#     Edge 36, Type (0, 1), BuildingBlock: TEMPAE_clean_linker_10, # of connection points: 2
#     Edge 37, Type (0, 1), BuildingBlock: TEMPAE_clean_linker_10, # of connection points: 2
#     Edge 38, Type (0, 1), BuildingBlock: TEMPAE_clean_linker_10, # of connection points: 2
#     Edge 39, Type (0, 1), BuildingBlock: TEMPAE_clean_linker_10, # of connection points: 2
#     Edge 40, Type (0, 1), BuildingBlock: TEMPAE_clean_linker_10, # of connection points: 2
#     Edge 41, Type (0, 1), BuildingBlock: TEMPAE_clean_linker_10, # of connection points: 2
#     Edge 42, Type (0, 1), BuildingBlock: TEMPAE_clean_linker_10, # of connection points: 2
#     Edge 43, Type (0, 1), BuildingBlock: TEMPAE_clean_linker_10, # of connection points: 2
#     Edge 44, Type (0, 1), BuildingBlock: TEMPAE_clean_linker_10, # of connection points: 2
#     Edge 45, Type (0, 1), BuildingBlock: TEMPAE_clean_linker_10, # of connection points: 2
#     Edge 46, Type (0, 1), BuildingBlock: TEMPAE_clean_linker_10, # of connection points: 2
#     Edge 47, Type (0, 1), BuildingBlock: TEMPAE_clean_linker_10, # of connection points: 2
# Relax obj value: 0.142
# Max RMSD: 0.210
# Mean RMSD: 0.162
data_MOF--net-wbl--node1-QUQFOY_clean_sbu_1--node2-MUDLON_clean_linker_0--edge1-TEMPAE_clean_linker_10
_symmetry_space_group_name_H-M    P1
_symmetry_Int_Tables_number       1
_symmetry_cell_setting            triclinic
loop_
_symmetry_equiv_pos_as_xyz
'x, y, z'
_cell_length_a     54.051711
_cell_length_b     54.057021
_cell_length_c     79.465164
_cell_angle_alpha  93.55155
_cell_angle_beta   93.551362
_cell_angle_gamma 90.175559
loop_
_atom_site_label
_atom_site_type_symbol
_atom_site_fract_x
_atom_site_fract_y
_atom_site_fract_z
_atom_type_partial_charge
H0 H 0.19032 0.0299 0.35553 0.0
N1 N 0.173 0.9981 0.32918 0.0
H2 H 0.19774 0.01999 0.38493 0.0
H3 H 0.16499 0.95511 0.3424 0.0
H4 H 0.17324 0.94467 0.37173 0.0
H5 H 0.17494 0.96378 0.304 0.0
H6 H 0.21199 0.94751 0.29125 0.0
H7 H 0.21937 0.0193 0.33319 0.0
H8 H 0.25618 0.00431 0.3198 0.0
H9 H 0.18847 0.04608 0.32535 0.0
H10 H 0.12403 0.99904 0.32599 0.0
H11 H 0.16199 0.08224 0.32354 0.0
H12 H 0.0973 0.0353 0.3246 0.0
H13 H 0.06554 0.19295 0.34464 0.0
H14 H 0.05466 0.20805 0.37303 0.0
H15 H 0.04264 0.13265 0.38573 0.0
H16 H 0.05405 0.11766 0.35763 0.0
H17 H 0.02374 0.11516 0.33506 0.0
H18 H 0.9814 0.1198 0.32329 0.0
H19 H 0.00479 0.18102 0.29555 0.0
H20 H 0.04735 0.17661 0.30771 0.0
H21 H 0.10917 0.14148 0.34489 0.0
H22 H 0.13655 0.10599 0.34216 0.0
H23 H 0.08192 0.06815 0.30777 0.0
N24 N 0.06294 0.14639 0.33137 0.0
H25 H 0.05444 0.1031 0.31065 0.0
C26 C 0.17684 0.9932 0.34677 0.0
C27 C 0.18627 0.01134 0.35897 0.0
C28 C 0.19071 0.00558 0.37579 0.0
C29 C 0.18608 0.98153 0.38072 0.0
C30 C 0.1766 0.96349 0.36846 0.0
C31 C 0.17201 0.96933 0.35169 0.0
C32 C 0.19418 0.99285 0.3194 0.0
C33 C 0.19255 0.97307 0.30714 0.0
C34 C 0.21381 0.96385 0.29984 0.0
C35 C 0.23724 0.97442 0.30458 0.0
C36 C 0.23856 0.99538 0.31606 0.0
C37 C 0.21735 0.00431 0.32354 0.0
C38 C 0.15822 0.01962 0.32575 0.0
C39 C 0.16865 0.04335 0.32486 0.0
C40 C 0.15341 0.06418 0.32399 0.0
C41 C 0.12748 0.06176 0.32406 0.0
C42 C 0.11714 0.03789 0.32431 0.0
C43 C 0.13237 0.01712 0.32513 0.0
C44 C 0.06043 0.15428 0.34892 0.0
C45 C 0.06114 0.17971 0.35371 0.0
C46 C 0.05491 0.18827 0.36987 0.0
C47 C 0.04755 0.17149 0.38143 0.0
C48 C 0.04796 0.14596 0.37694 0.0
C49 C 0.05449 0.1374 0.36089 0.0
C50 C 0.03881 0.14575 0.32236 0.0
C51 C 0.01991 0.12951 0.32639 0.0
C52 C 0.99568 0.13216 0.31966 0.0
C53 C 0.98981 0.15094 0.30867 0.0
C54 C 0.00886 0.16633 0.30395 0.0
C55 C 0.03313 0.16381 0.31083 0.0
C56 C 0.07892 0.12497 0.32883 0.0
C57 C 0.10288 0.12546 0.33688 0.0
C58 C 0.11872 0.10522 0.33513 0.0
C59 C 0.11131 0.08402 0.32492 0.0
C60 C 0.08794 0.0839 0.31611 0.0
C61 C 0.07202 0.10412 0.3179 0.0
H62 H 0.96676 0.55018 0.59857 0.0
N63 N 0.93715 0.55577 0.56977 0.0
H64 H 0.95353 0.53678 0.62548 0.0
H65 H 0.89117 0.5453 0.5777 0.0
H66 H 0.878 0.53101 0.60458 0.0
H67 H 0.90837 0.53419 0.54477 0.0
H68 H 0.91264 0.49262 0.53147 0.0
H69 H 0.97821 0.52643 0.57305 0.0
H70 H 0.98332 0.48529 0.55928 0.0
H71 H 0.97684 0.56229 0.54968 0.0
H72 H 0.93626 0.59813 0.58954 0.0
H73 H 0.00596 0.59666 0.55183 0.0
H74 H 0.96591 0.63194 0.59204 0.0
H75 H 0.08161 0.65662 0.60546 0.0
H76 H 0.09796 0.65855 0.63475 0.0
H77 H 0.07525 0.73503 0.64067 0.0
H78 H 0.05812 0.73263 0.61138 0.0
H79 H 0.05533 0.73253 0.56911 0.0
H80 H 0.08808 0.75236 0.55474 0.0
H81 H 0.13898 0.695 0.56948 0.0
H82 H 0.106 0.67516 0.5837 0.0
H83 H 0.06979 0.64742 0.57642 0.0
H84 H 0.03923 0.61422 0.57002 0.0
H85 H 0.9804 0.66646 0.57928 0.0
N86 N 0.06005 0.69471 0.58866 0.0
H87 H 0.01128 0.69903 0.58665 0.0
C88 C 0.92981 0.54914 0.58615 0.0
C89 C 0.9473 0.54643 0.59981 0.0
C90 C 0.93975 0.53882 0.61518 0.0
C91 C 0.91477 0.53306 0.61704 0.0
C92 C 0.89735 0.53547 0.60341 0.0
C93 C 0.90481 0.54366 0.58814 0.0
C94 C 0.94288 0.53345 0.55983 0.0
C95 C 0.92502 0.52378 0.54766 0.0
C96 C 0.92759 0.50002 0.54004 0.0
C97 C 0.94826 0.48542 0.54438 0.0
C98 C 0.96692 0.49577 0.55587 0.0
C99 C 0.96415 0.5194 0.56367 0.0
C100 C 0.95495 0.57625 0.57038 0.0
C101 C 0.97436 0.57699 0.55927 0.0
C102 C 0.99114 0.5969 0.5604 0.0
C103 C 0.98869 0.61693 0.57233 0.0
C104 C 0.96851 0.61692 0.58267 0.0
C105 C 0.95167 0.59721 0.58144 0.0
C106 C 0.06841 0.69454 0.60623 0.0
C107 C 0.07972 0.67369 0.61307 0.0
C108 C 0.08931 0.67488 0.62984 0.0
C109 C 0.08799 0.69696 0.64007 0.0
C110 C 0.07625 0.71762 0.63325 0.0
C111 C 0.06657 0.71635 0.61651 0.0
C112 C 0.07821 0.70259 0.57757 0.0
C113 C 0.07335 0.72385 0.56878 0.0
C114 C 0.09208 0.73511 0.56057 0.0
C115 C 0.11618 0.72533 0.5611 0.0
C116 C 0.12065 0.70307 0.56901 0.0
C117 C 0.10177 0.69166 0.57708 0.0
C118 C 0.04272 0.67559 0.58233 0.0
C119 C 0.05033 0.65169 0.57702 0.0
C120 C 0.03275 0.63276 0.57321 0.0
C121 C 0.00727 0.6375 0.5744 0.0
C122 C 0.99982 0.66188 0.57869 0.0
C123 C 0.01739 0.68062 0.58273 0.0
H124 H 0.61452 0.46089 0.83661 0.0
N125 N 0.57193 0.45112 0.81661 0.0
H126 H 0.62517 0.44528 0.86406 0.0
H127 H 0.54597 0.41935 0.83306 0.0
H128 H 0.55698 0.40277 0.86058 0.0
H129 H 0.58503 0.41171 0.79761 0.0
H130 H 0.62174 0.40707 0.7812 0.0
H131 H 0.60372 0.48877 0.80945 0.0
H132 H 0.63949 0.48453 0.79262 0.0
H133 H 0.58265 0.49285 0.83754 0.0
H134 H 0.53046 0.46164 0.79862 0.0
H135 H 0.55849 0.53035 0.83969 0.0
H136 H 0.50627 0.5 0.80035 0.0
H137 H 0.48568 0.6469 0.85509 0.0
H138 H 0.47801 0.65471 0.88488 0.0
H139 H 0.45269 0.57897 0.88661 0.0
H140 H 0.45904 0.5719 0.85666 0.0
H141 H 0.42772 0.588 0.83433 0.0
H142 H 0.39099 0.60777 0.82191 0.0
H143 H 0.43702 0.66511 0.80455 0.0
H144 H 0.47406 0.64456 0.8164 0.0
H145 H 0.52332 0.6033 0.83145 0.0
H146 H 0.54739 0.56619 0.82463 0.0
H147 H 0.47991 0.52254 0.81973 0.0
N148 N 0.47526 0.60619 0.83562 0.0
H149 H 0.45607 0.5597 0.82597 0.0
C150 C 0.57931 0.44127 0.83268 0.0
C151 C 0.60184 0.44812 0.84162 0.0
C152 C 0.60803 0.43899 0.85735 0.0
C153 C 0.59204 0.42258 0.86454 0.0
C154 C 0.56963 0.41553 0.85551 0.0
C155 C 0.56336 0.42485 0.83976 0.0
C156 C 0.59141 0.45042 0.80487 0.0
C157 C 0.59662 0.42776 0.79629 0.0
C158 C 0.61755 0.4252 0.78685 0.0
C159 C 0.63371 0.44539 0.78571 0.0
C160 C 0.62768 0.46848 0.79348 0.0
C161 C 0.60693 0.47097 0.80305 0.0
C162 C 0.55824 0.47406 0.81798 0.0
C163 C 0.56599 0.49395 0.82941 0.0
C164 C 0.55225 0.5157 0.83048 0.0
C165 C 0.53049 0.5183 0.82012 0.0
C166 C 0.52283 0.49852 0.80861 0.0
C167 C 0.53664 0.47666 0.80755 0.0
C168 C 0.47318 0.60889 0.85363 0.0
C169 C 0.47877 0.63195 0.862 0.0
C170 C 0.47451 0.63628 0.87907 0.0
C171 C 0.46475 0.61744 0.88823 0.0
C172 C 0.45988 0.59402 0.87993 0.0
C173 C 0.4638 0.58984 0.86276 0.0
C174 C 0.45383 0.6145 0.82591 0.0
C175 C 0.43016 0.60408 0.82716 0.0
C176 C 0.4091 0.61554 0.8202 0.0
C177 C 0.41129 0.63789 0.8123 0.0
C178 C 0.43494 0.64783 0.81056 0.0
C179 C 0.45603 0.63607 0.8172 0.0
C180 C 0.48797 0.58443 0.82934 0.0
C181 C 0.51374 0.58578 0.82857 0.0
C182 C 0.52744 0.56452 0.82483 0.0
C183 C 0.51561 0.5413 0.82189 0.0
C184 C 0.4896 0.54013 0.82183 0.0
C185 C 0.47589 0.56149 0.8255 0.0
H186 H 0.53141 0.93906 0.11049 0.0
N187 N 0.50561 0.97942 0.10013 0.0
H188 H 0.5343 0.9247 0.13906 0.0
H189 H 0.49302 0.00446 0.12816 0.0
H190 H 0.49511 0.98986 0.15677 0.0
H191 H 0.46512 0.95622 0.10908 0.0
H192 H 0.44455 0.91995 0.09535 0.0
H193 H 0.51254 0.95938 0.06736 0.0
H194 H 0.49115 0.92383 0.05329 0.0
H195 H 0.54922 0.95977 0.08947 0.0
H196 H 0.50746 0.02721 0.09471 0.0
H197 H 0.58263 0.98214 0.07783 0.0
H198 H 0.54153 0.05035 0.08435 0.0
H199 H 0.69627 0.0837 0.07608 0.0
H200 H 0.71511 0.09895 0.10367 0.0
H201 H 0.64205 0.10806 0.12237 0.0
H202 H 0.62355 0.09394 0.0948 0.0
H203 H 0.62427 0.12361 0.07209 0.0
H204 H 0.628 0.15992 0.05612 0.0
H205 H 0.66928 0.11738 0.01953 0.0
H206 H 0.66681 0.08122 0.03651 0.0
H207 H 0.64954 0.03409 0.07782 0.0
H208 H 0.61497 0.00855 0.08459 0.0
H209 H 0.56395 0.06067 0.06235 0.0
N210 N 0.64809 0.07936 0.0667 0.0
H211 H 0.59838 0.08697 0.0569 0.0
C212 C 0.51202 0.97296 0.11722 0.0
C213 C 0.52432 0.95074 0.12062 0.0
C214 C 0.5256 0.94235 0.13693 0.0
C215 C 0.5146 0.95595 0.15014 0.0
C216 C 0.5039 0.97901 0.14692 0.0
C217 C 0.50266 0.9874 0.1306 0.0
C218 C 0.49174 0.95995 0.09008 0.0
C219 C 0.47114 0.94925 0.09695 0.0
C220 C 0.45906 0.92857 0.08891 0.0
C221 C 0.46649 0.91847 0.07332 0.0
C222 C 0.48556 0.93047 0.06562 0.0
C223 C 0.498 0.951 0.07383 0.0
C224 C 0.52559 0.99183 0.09272 0.0
C225 C 0.54731 0.97949 0.08822 0.0
C226 C 0.56657 0.99245 0.08164 0.0
C227 C 0.56504 0.01824 0.08004 0.0
C228 C 0.54333 0.03047 0.08483 0.0
C229 C 0.52384 0.01735 0.09095 0.0
C230 C 0.65861 0.08746 0.08334 0.0
C231 C 0.68443 0.08897 0.08619 0.0
C232 C 0.69511 0.09756 0.10196 0.0
C233 C 0.68008 0.10478 0.11524 0.0
C234 C 0.65419 0.10308 0.11238 0.0
C235 C 0.64356 0.09472 0.09661 0.0
C236 C 0.64568 0.09965 0.05566 0.0
C237 C 0.63397 0.12193 0.06059 0.0
C238 C 0.63587 0.14275 0.05122 0.0
C239 C 0.64915 0.14183 0.03649 0.0
C240 C 0.65936 0.11902 0.03097 0.0
C241 C 0.65775 0.09822 0.04053 0.0
C242 C 0.62697 0.06279 0.06716 0.0
C243 C 0.63087 0.03986 0.07423 0.0
C244 C 0.61094 0.02515 0.07802 0.0
C245 C 0.58636 0.03259 0.07433 0.0
C246 C 0.58248 0.05466 0.066 0.0
C247 C 0.60245 0.06974 0.06265 0.0
H248 H 0.0979 0.66538 0.9618 0.0
N249 N 0.0941 0.61483 0.9614 0.0
H250 H 0.10347 0.68983 0.9373 0.0
H251 H 0.09059 0.59884 0.92903 0.0
H252 H 0.09537 0.6233 0.90442 0.0
H253 H 0.09355 0.64357 0.99093 0.0
H254 H 0.12964 0.65451 0.01028 0.0
H255 H 0.1394 0.59706 0.96003 0.0
H256 H 0.17562 0.60862 0.97851 0.0
H257 H 0.0839 0.57187 0.97403 0.0
H258 H 0.0507 0.64112 0.96112 0.0
H259 H 0.04315 0.55527 0.97895 0.0
H260 H 0.00977 0.62411 0.96452 0.0
H261 H 0.93808 0.50196 0.94235 0.0
H262 H 0.93201 0.49052 0.91259 0.0
H263 H 0.89498 0.56016 0.9049 0.0
H264 H 0.90343 0.5725 0.93489 0.0
H265 H 0.88148 0.55578 0.97016 0.0
H266 H 0.85519 0.52792 0.98453 0.0
H267 H 0.91397 0.47406 0.98579 0.0
H268 H 0.9404 0.50226 0.97188 0.0
H269 H 0.96999 0.52171 0.95645 0.0
H270 H 0.01062 0.53993 0.96137 0.0
H271 H 0.97807 0.60882 0.97948 0.0
N272 N 0.92548 0.54609 0.95863 0.0
H273 H 0.93675 0.59053 0.97329 0.0
C274 C 0.09433 0.63016 0.94719 0.0
C275 C 0.09721 0.65608 0.94932 0.0
C276 C 0.10029 0.67004 0.93535 0.0
C277 C 0.09989 0.65841 0.91903 0.0
C278 C 0.09555 0.63274 0.91686 0.0
C279 C 0.09293 0.61875 0.93085 0.0
C280 C 0.11396 0.61937 0.97414 0.0
C281 C 0.11136 0.63544 0.9885 0.0
C282 C 0.13205 0.64182 0.99943 0.0
C283 C 0.15568 0.63248 0.99603 0.0
C284 C 0.15779 0.61577 0.98188 0.0
C285 C 0.13714 0.60924 0.97117 0.0
C286 C 0.07036 0.60742 0.96682 0.0
C287 C 0.06778 0.58354 0.97239 0.0
C288 C 0.0444 0.57401 0.97499 0.0
C289 C 0.02292 0.58799 0.97162 0.0
C290 C 0.02574 0.61268 0.96727 0.0
C291 C 0.04925 0.62243 0.96511 0.0
C292 C 0.92168 0.53847 0.94092 0.0
C293 C 0.92921 0.51514 0.93434 0.0
C294 C 0.92522 0.50835 0.91719 0.0
C295 C 0.91278 0.52427 0.90619 0.0
C296 C 0.90501 0.54752 0.91284 0.0
C297 C 0.90961 0.55457 0.93 0.0
C298 C 0.91273 0.53111 0.96976 0.0
C299 C 0.88891 0.53826 0.97399 0.0
C300 C 0.87396 0.52235 0.98218 0.0
C301 C 0.88252 0.49877 0.98614 0.0
C302 C 0.90689 0.49206 0.98273 0.0
C303 C 0.92199 0.50821 0.97475 0.0
C304 C 0.95004 0.55492 0.96416 0.0
C305 C 0.9713 0.54063 0.96156 0.0
C306 C 0.99487 0.55114 0.96464 0.0
C307 C 0.99788 0.57605 0.97074 0.0
C308 C 0.97657 0.58978 0.97442 0.0
C309 C 0.95293 0.57931 0.97106 0.0
H310 H 0.59727 0.40696 0.19433 0.0
N311 N 0.60836 0.44864 0.21501 0.0
H312 H 0.60518 0.40064 0.16461 0.0
H313 H 0.62876 0.48049 0.19566 0.0
H314 H 0.63611 0.47458 0.16554 0.0
H315 H 0.65339 0.4476 0.23009 0.0
H316 H 0.67293 0.4133 0.24448 0.0
H317 H 0.58454 0.40665 0.22382 0.0
H318 H 0.60391 0.37233 0.23817 0.0
H319 H 0.56202 0.43105 0.20409 0.0
H320 H 0.60111 0.49081 0.23288 0.0
H321 H 0.52323 0.45358 0.20614 0.0
H322 H 0.56223 0.5137 0.23487 0.0
H323 H 0.41176 0.5441 0.1968 0.0
H324 H 0.3996 0.56095 0.16945 0.0
H325 H 0.47309 0.59175 0.16766 0.0
H326 H 0.48529 0.57442 0.19457 0.0
H327 H 0.49401 0.5823 0.22397 0.0
H328 H 0.49118 0.62305 0.23874 0.0
H329 H 0.41361 0.61009 0.24512 0.0
H330 H 0.41659 0.56891 0.23056 0.0
H331 H 0.47234 0.51761 0.1905 0.0
H332 H 0.50786 0.49079 0.19301 0.0
H333 H 0.51973 0.51454 0.24574 0.0
N334 N 0.45502 0.55041 0.21474 0.0
H335 H 0.484 0.5417 0.24337 0.0
C336 C 0.61272 0.44422 0.19734 0.0
C337 C 0.60586 0.42182 0.18826 0.0
C338 C 0.61016 0.41831 0.17114 0.0
C339 C 0.62123 0.43712 0.16265 0.0
C340 C 0.62783 0.45959 0.17173 0.0
C341 C 0.6236 0.46305 0.18889 0.0
C342 C 0.61762 0.42977 0.22579 0.0
C343 C 0.64235 0.43145 0.23219 0.0
C344 C 0.65344 0.41186 0.24044 0.0
C345 C 0.63999 0.39004 0.24237 0.0
C346 C 0.61481 0.38883 0.23671 0.0
C347 C 0.60367 0.40854 0.22855 0.0
C348 C 0.58461 0.45935 0.21831 0.0
C349 C 0.56225 0.4488 0.21115 0.0
C350 C 0.54004 0.46181 0.21222 0.0
C351 C 0.5397 0.48556 0.22049 0.0
C352 C 0.56182 0.49539 0.2285 0.0
C353 C 0.58404 0.48239 0.22737 0.0
C354 C 0.44927 0.55815 0.19782 0.0
C355 C 0.4253 0.55414 0.19034 0.0
C356 C 0.4184 0.56376 0.17479 0.0
C357 C 0.43536 0.57786 0.16662 0.0
C358 C 0.45959 0.58124 0.17386 0.0
C359 C 0.46656 0.57137 0.18923 0.0
C360 C 0.45545 0.57229 0.22626 0.0
C361 C 0.47654 0.58781 0.22895 0.0
C362 C 0.47494 0.61113 0.2374 0.0
C363 C 0.45216 0.61967 0.24298 0.0
C364 C 0.43137 0.6039 0.24089 0.0
C365 C 0.43308 0.58037 0.23272 0.0
C366 C 0.47632 0.53389 0.21634 0.0
C367 C 0.48271 0.5178 0.2026 0.0
C368 C 0.50291 0.50191 0.20409 0.0
C369 C 0.51697 0.50093 0.21949 0.0
C370 C 0.5097 0.51547 0.23357 0.0
C371 C 0.48931 0.53128 0.23212 0.0
H372 H 0.50186 0.98636 0.45971 0.0
N373 N 0.53932 0.97328 0.48219 0.0
H374 H 0.4923 0.96752 0.43146 0.0
H375 H 0.56285 0.93608 0.46675 0.0
H376 H 0.55385 0.91745 0.43809 0.0
H377 H 0.5277 0.93758 0.5016 0.0
H378 H 0.48954 0.93322 0.51609 0.0
H379 H 0.50528 0.01028 0.48759 0.0
H380 H 0.4671 0.00623 0.50219 0.0
H381 H 0.53426 0.01744 0.46699 0.0
H382 H 0.58375 0.97478 0.49824 0.0
H383 H 0.56795 0.04612 0.46281 0.0
H384 H 0.61756 0.00372 0.49439 0.0
H385 H 0.64837 0.11166 0.43758 0.0
H386 H 0.65278 0.12427 0.40879 0.0
H387 H 0.71069 0.0702 0.40245 0.0
H388 H 0.70634 0.05804 0.4313 0.0
H389 H 0.71936 0.06444 0.4701 0.0
H390 H 0.75162 0.0911 0.48475 0.0
H391 H 0.70538 0.15502 0.47727 0.0
H392 H 0.67308 0.12806 0.46282 0.0
H393 H 0.63488 0.09958 0.46433 0.0
H394 H 0.59967 0.07727 0.47469 0.0
H395 H 0.63991 0.00859 0.46892 0.0
N396 N 0.67789 0.07891 0.45409 0.0
H397 H 0.67468 0.03103 0.45865 0.0
C398 C 0.53302 0.96243 0.46544 0.0
C399 C 0.51325 0.97127 0.45519 0.0
C400 C 0.50793 0.9606 0.43892 0.0
C401 C 0.52236 0.94102 0.43247 0.0
C402 C 0.54219 0.93229 0.44274 0.0
C403 C 0.54742 0.94293 0.45906 0.0
C404 C 0.51936 0.97409 0.49344 0.0
C405 C 0.51486 0.95292 0.50212 0.0
C406 C 0.49304 0.9505 0.51042 0.0
C407 C 0.47513 0.9693 0.51018 0.0
C408 C 0.48038 0.99127 0.50241 0.0
C409 C 0.50232 0.99368 0.49413 0.0
C410 C 0.55655 0.99378 0.48291 0.0
C411 C 0.55213 0.01469 0.47346 0.0
C412 C 0.57148 0.03114 0.47106 0.0
C413 C 0.59554 0.02695 0.47803 0.0
C414 C 0.59934 0.00719 0.48859 0.0
C415 C 0.58002 0.99079 0.49096 0.0
C416 C 0.67711 0.0839 0.43651 0.0
C417 C 0.66166 0.10224 0.42987 0.0
C418 C 0.66419 0.1094 0.41342 0.0
C419 C 0.6823 0.09843 0.40345 0.0
C420 C 0.69686 0.07928 0.40992 0.0
C421 C 0.69427 0.07213 0.4263 0.0
C422 C 0.69403 0.09429 0.46534 0.0
C423 C 0.71596 0.0841 0.47209 0.0
C424 C 0.73431 0.09936 0.48043 0.0
C425 C 0.73107 0.12517 0.48201 0.0
C426 C 0.70844 0.13522 0.47606 0.0
C427 C 0.68995 0.11985 0.46789 0.0
C428 C 0.65722 0.06677 0.46063 0.0
C429 C 0.636 0.07974 0.46532 0.0
C430 C 0.61596 0.06699 0.47125 0.0
C431 C 0.61706 0.04118 0.47276 0.0
C432 C 0.63859 0.0285 0.46825 0.0
C433 C 0.65839 0.04119 0.46224 0.0
H434 H 0.09305 0.01587 0.68208 0.0
N435 N 0.11222 0.01609 0.71373 0.0
H436 H 0.1151 0.0109 0.65597 0.0
H437 H 0.16271 0.01261 0.71142 0.0
H438 H 0.18452 0.00667 0.68548 0.0
H439 H 0.14823 0.01962 0.7395 0.0
H440 H 0.16167 0.98608 0.75728 0.0
H441 H 0.0893 0.97325 0.71612 0.0
H442 H 0.1014 0.94018 0.73449 0.0
H443 H 0.06806 0.02943 0.72379 0.0
H444 H 0.14109 0.058 0.71728 0.0
H445 H 0.05322 0.07149 0.72982 0.0
H446 H 0.12618 0.10021 0.72205 0.0
H447 H 0.00797 0.18326 0.70205 0.0
H448 H 0.9964 0.18933 0.67274 0.0
H449 H 0.07268 0.20588 0.66409 0.0
H450 H 0.08419 0.20045 0.69403 0.0
H451 H 0.06227 0.2354 0.72933 0.0
H452 H 0.03271 0.26309 0.74286 0.0
H453 H 0.98238 0.20149 0.74552 0.0
H454 H 0.01215 0.17383 0.73227 0.0
H455 H 0.02795 0.14571 0.71009 0.0
H456 H 0.04285 0.10404 0.71307 0.0
H457 H 0.11062 0.1332 0.73879 0.0
N458 N 0.05451 0.18879 0.71799 0.0
H459 H 0.09586 0.17538 0.73482 0.0
C460 C 0.12601 0.01408 0.69871 0.0
C461 C 0.11304 0.01409 0.68288 0.0
C462 C 0.12562 0.01139 0.66804 0.0
C463 C 0.15144 0.0083 0.6688 0.0
C464 C 0.16457 0.00884 0.68462 0.0
C465 C 0.15203 0.01207 0.69946 0.0
C466 C 0.11813 0.99854 0.72624 0.0
C467 C 0.13792 0.00234 0.73846 0.0
C468 C 0.1454 0.98321 0.74871 0.0
C469 C 0.13292 0.96019 0.74709 0.0
C470 C 0.11192 0.95735 0.73574 0.0
C471 C 0.1048 0.97625 0.72533 0.0
C472 C 0.10542 0.04065 0.71972 0.0
C473 C 0.08092 0.04485 0.72382 0.0
C474 C 0.07245 0.06893 0.72707 0.0
C475 C 0.08828 0.08943 0.72598 0.0
C476 C 0.11339 0.08501 0.72306 0.0
C477 C 0.12196 0.06081 0.72014 0.0
C478 C 0.04711 0.19157 0.7004 0.0
C479 C 0.02235 0.18824 0.69402 0.0
C480 C 0.01573 0.19148 0.67709 0.0
C481 C 0.03363 0.19794 0.66602 0.0
C482 C 0.05841 0.2011 0.67233 0.0
C483 C 0.06504 0.1979 0.68937 0.0
C484 C 0.03946 0.20265 0.72959 0.0
C485 C 0.04526 0.22772 0.7334 0.0
C486 C 0.02835 0.24349 0.74112 0.0
C487 C 0.00514 0.23445 0.74506 0.0
C488 C 6e-05 0.20895 0.74245 0.0
C489 C 0.01717 0.1931 0.73493 0.0
C490 C 0.06101 0.16386 0.72201 0.0
C491 C 0.04591 0.14333 0.71651 0.0
C492 C 0.05444 0.11928 0.71842 0.0
C493 C 0.07811 0.11506 0.7261 0.0
C494 C 0.09253 0.13566 0.73251 0.0
C495 C 0.08405 0.15978 0.73041 0.0
O496 O 0.38434 0.69271 0.99892 0.0
Cd497 Cd 0.36694 0.7101 0.01853 0.0
Cd498 Cd 0.40513 0.6922 0.03731 0.0
O499 O 0.4145 0.67607 0.01426 0.0
O500 O 0.3323 0.71419 0.00943 0.0
O501 O 0.34238 0.69171 0.03119 0.0
C502 C 0.32555 0.69974 0.02065 0.0
C503 C 0.40629 0.66694 0.06009 0.0
C504 C 0.40357 0.67935 -4e-05 0.0
C505 C 0.39971 0.74792 0.03718 0.0
O506 O 0.41197 0.72973 0.0427 0.0
O507 O 0.38052 0.74429 0.02727 0.0
O508 O 0.4263 0.67485 0.05415 0.0
O509 O 0.38532 0.67344 0.05306 0.0
O510 O 0.44311 0.86039 0.31467 0.0
Cd511 Cd 0.42381 0.84851 0.2925 0.0
Cd512 Cd 0.46947 0.85292 0.28001 0.0
O513 O 0.47961 0.86592 0.30449 0.0
O514 O 0.38831 0.85251 0.29738 0.0
O515 O 0.40645 0.87446 0.27899 0.0
C516 C 0.38694 0.86978 0.28689 0.0
C517 C 0.47931 0.87653 0.25774 0.0
C518 C 0.4657 0.86704 0.31684 0.0
C519 C 0.44602 0.80213 0.27722 0.0
O520 O 0.46483 0.81526 0.2747 0.0
O521 O 0.42733 0.81192 0.28389 0.0
O522 O 0.49587 0.86361 0.26557 0.0
O523 O 0.45702 0.87629 0.26277 0.0
O524 O 0.24713 0.90896 0.49895 0.0
Cd525 Cd 0.26293 0.89606 0.52093 0.0
Cd526 Cd 0.2241 0.92147 0.53446 0.0
O527 O 0.22089 0.93498 0.51063 0.0
O528 O 0.29804 0.889 0.51634 0.0
O529 O 0.28702 0.91879 0.53471 0.0
C530 C 0.30434 0.90748 0.52681 0.0
C531 C 0.21395 0.9472 0.55777 0.0
C532 C 0.23107 0.92597 0.49763 0.0
C533 C 0.22583 0.86492 0.53537 0.0
O534 O 0.21409 0.88514 0.53721 0.0
O535 O 0.24733 0.86478 0.52974 0.0
O536 O 0.19735 0.93869 0.54658 0.0
O537 O 0.23685 0.94223 0.5553 0.0
O538 O 0.1939 0.74612 0.75555 0.0
Cd539 Cd 0.21308 0.76067 0.77704 0.0
Cd540 Cd 0.1926 0.72044 0.79071 0.0
O541 O 0.17481 0.71576 0.7669 0.0
O542 O 0.22077 0.79533 0.77211 0.0
O543 O 0.19512 0.78582 0.79142 0.0
C544 C 0.2053 0.80251 0.78309 0.0
C545 C 0.16974 0.71365 0.81401 0.0
C546 C 0.17859 0.72813 0.75419 0.0
C547 C 0.24871 0.72392 0.7906 0.0
O548 O 0.2297 0.71168 0.79392 0.0
O549 O 0.24641 0.74472 0.78407 0.0
O550 O 0.17692 0.69563 0.80417 0.0
O551 O 0.17495 0.73597 0.81038 0.0
O552 O 0.94171 0.24946 0.55039 0.0
Cd553 Cd 0.92246 0.26043 0.52899 0.0
Cd554 Cd 0.94615 0.22148 0.51391 0.0
O555 O 0.96408 0.22085 0.53761 0.0
O556 O 0.91091 0.29447 0.53507 0.0
O557 O 0.93814 0.28633 0.51582 0.0
C558 C 0.92556 0.30244 0.52437 0.0
C559 C 0.97045 0.21781 0.49063 0.0
C560 C 0.95872 0.23333 0.55096 0.0
C561 C 0.8903 0.21896 0.51339 0.0
O562 O 0.91029 0.20779 0.51012 0.0
O563 O 0.89102 0.24074 0.5204 0.0
O564 O 0.96637 0.19919 0.49947 0.0
O565 O 0.96082 0.23887 0.49509 0.0
O566 O 0.86242 0.43855 0.78556 0.0
Cd567 Cd 0.85137 0.4137 0.7658 0.0
Cd568 Cd 0.89045 0.43575 0.75177 0.0
O569 O 0.8946 0.45563 0.77482 0.0
O570 O 0.81911 0.40123 0.77261 0.0
O571 O 0.82239 0.42332 0.75035 0.0
C572 C 0.80847 0.41218 0.7602 0.0
C573 C 0.89099 0.45662 0.72699 0.0
C574 C 0.88043 0.45383 0.78687 0.0
C575 C 0.89294 0.38058 0.75539 0.0
O576 O 0.90301 0.39986 0.75042 0.0
O577 O 0.87206 0.38191 0.7619 0.0
O578 O 0.91106 0.45266 0.73603 0.0
O579 O 0.87024 0.44918 0.73225 0.0
O580 O 0.68676 0.37365 0.04395 0.0
Cd581 Cd 0.70365 0.35831 0.0233 0.0
Cd582 Cd 0.67935 0.39598 0.00843 0.0
O583 O 0.66452 0.40233 0.03168 0.0
O584 O 0.71315 0.32496 0.03054 0.0
O585 O 0.68626 0.3306 0.00898 0.0
C586 C 0.6976 0.31563 0.01887 0.0
C587 C 0.65413 0.39644 0.98351 0.0
C588 C 0.67108 0.39105 0.04478 0.0
C589 C 0.73561 0.39616 0.00973 0.0
O590 O 0.71542 0.40713 0.00603 0.0
O591 O 0.73541 0.37544 0.01647 0.0
O592 O 0.65993 0.41651 0.9925 0.0
O593 O 0.66185 0.37568 0.98908 0.0
O594 O 0.7579 0.18596 0.23441 0.0
Cd595 Cd 0.76733 0.20466 0.25735 0.0
Cd596 Cd 0.75674 0.16057 0.26893 0.0
O597 O 0.74192 0.15295 0.24464 0.0
O598 O 0.76516 0.24028 0.25252 0.0
O599 O 0.74026 0.22258 0.26936 0.0
C600 C 0.74647 0.24199 0.26185 0.0
C601 C 0.73394 0.15114 0.29174 0.0
C602 C 0.74627 0.16546 0.23212 0.0
C603 C 0.80987 0.17795 0.27304 0.0
O604 O 0.79485 0.1598 0.27308 0.0
O605 O 0.80221 0.19886 0.26846 0.0
O606 O 0.74406 0.13405 0.28248 0.0
O607 O 0.73628 0.17382 0.28778 0.0
C608 C 0.28094 0.96039 0.31052 0.0
C609 C 0.26028 0.96204 0.29903 0.0
C610 C 0.30181 0.94655 0.30629 0.0
C611 C 0.30201 0.93365 0.29025 0.0
C612 C 0.2817 0.93593 0.27833 0.0
C613 C 0.26112 0.95018 0.28283 0.0
C614 C 0.32317 0.94478 0.31935 0.0
C615 C 0.28121 0.92242 0.26111 0.0
C616 C 0.36497 0.90856 0.27898 0.0
C617 C 0.36419 0.88482 0.28513 0.0
C618 C 0.3444 0.92439 0.27978 0.0
C619 C 0.32254 0.91612 0.28671 0.0
C620 C 0.3212 0.8916 0.29192 0.0
C621 C 0.34207 0.87633 0.29116 0.0
C622 C 0.34661 0.95043 0.27417 0.0
C623 C 0.29814 0.88189 0.29915 0.0
H624 H 0.28045 0.96901 0.32317 0.0
H625 H 0.24547 0.95162 0.27376 0.0
H626 H 0.32428 0.92562 0.32358 0.0
H627 H 0.34095 0.94889 0.3138 0.0
H628 H 0.32117 0.95773 0.33059 0.0
H629 H 0.26528 0.92805 0.25271 0.0
H630 H 0.29863 0.92586 0.25493 0.0
H631 H 0.27986 0.90216 0.26248 0.0
H632 H 0.38203 0.91525 0.27433 0.0
H633 H 0.34127 0.85791 0.29579 0.0
H634 H 0.3475 0.96372 0.28541 0.0
H635 H 0.33009 0.95518 0.26605 0.0
H636 H 0.36347 0.95298 0.26713 0.0
H637 H 0.29546 0.8918 0.31155 0.0
H638 H 0.29919 0.8617 0.30099 0.0
H639 H 0.28155 0.88538 0.29072 0.0
C640 C 0.1584 0.74454 0.56573 0.0
C641 C 0.13686 0.74001 0.55519 0.0
C642 C 0.17603 0.76217 0.56196 0.0
C643 C 0.17205 0.7755 0.54726 0.0
C644 C 0.15132 0.7696 0.53591 0.0
C645 C 0.13392 0.752 0.54005 0.0
C646 C 0.19783 0.7679 0.5744 0.0
C647 C 0.14654 0.78316 0.51999 0.0
C648 C 0.19256 0.84271 0.54887 0.0
C649 C 0.21361 0.84159 0.53937 0.0
C650 C 0.17936 0.82125 0.55183 0.0
C651 C 0.18722 0.79797 0.54504 0.0
C652 C 0.20882 0.79654 0.5358 0.0
C653 C 0.22186 0.8184 0.53313 0.0
C654 C 0.15661 0.82362 0.56195 0.0
C655 C 0.21771 0.77204 0.52835 0.0
H656 H 0.1607 0.7355 0.57753 0.0
H657 H 0.11746 0.74831 0.53176 0.0
H658 H 0.21515 0.7696 0.56776 0.0
H659 H 0.1948 0.78594 0.5814 0.0
H660 H 0.20041 0.75347 0.58371 0.0
H661 H 0.1317 0.77412 0.51143 0.0
H662 H 0.14083 0.80245 0.52336 0.0
H663 H 0.16368 0.78418 0.51307 0.0
H664 H 0.18617 0.86051 0.55388 0.0
H665 H 0.23806 0.81739 0.52574 0.0
H666 H 0.1583 0.81152 0.57273 0.0
H667 H 0.13996 0.8174 0.55391 0.0
H668 H 0.1536 0.84295 0.56694 0.0
H669 H 0.2197 0.75843 0.53823 0.0
H670 H 0.23574 0.77382 0.52252 0.0
H671 H 0.20377 0.76439 0.51855 0.0
C672 C 0.36998 0.64113 0.79665 0.0
C673 C 0.38885 0.65202 0.80754 0.0
C674 C 0.34785 0.65386 0.79309 0.0
C675 C 0.34433 0.6777 0.80101 0.0
C676 C 0.36351 0.68885 0.81187 0.0
C677 C 0.38568 0.67596 0.81485 0.0
C678 C 0.32805 0.6416 0.78113 0.0
C679 C 0.36025 0.71395 0.82088 0.0
C680 C 0.29301 0.71882 0.78374 0.0
C681 C 0.27357 0.71325 0.7938 0.0
C682 C 0.31616 0.70731 0.78588 0.0
C683 C 0.32009 0.69037 0.79866 0.0
C684 C 0.30071 0.68527 0.80917 0.0
C685 C 0.27758 0.69651 0.80645 0.0
C686 C 0.33621 0.71279 0.7742 0.0
C687 C 0.30436 0.66782 0.82323 0.0
H688 H 0.37254 0.62261 0.791 0.0
H689 H 0.40022 0.6842 0.82345 0.0
H690 H 0.31152 0.63755 0.78812 0.0
H691 H 0.32212 0.65428 0.77121 0.0
H692 H 0.3345 0.62399 0.77495 0.0
H693 H 0.37729 0.7204 0.82843 0.0
H694 H 0.35514 0.72791 0.81164 0.0
H695 H 0.34487 0.71307 0.82945 0.0
H696 H 0.28988 0.73158 0.77384 0.0
H697 H 0.26261 0.6923 0.81432 0.0
H698 H 0.34155 0.69543 0.76719 0.0
H699 H 0.35302 0.72007 0.78161 0.0
H700 H 0.33022 0.72648 0.76493 0.0
H701 H 0.30836 0.64892 0.81789 0.0
H702 H 0.28782 0.66683 0.8308 0.0
H703 H 0.32054 0.67388 0.83179 0.0
C704 C 0.43035 0.88903 0.06773 0.0
C705 C 0.45533 0.89476 0.06575 0.0
C706 C 0.42046 0.86555 0.06258 0.0
C707 C 0.43568 0.84756 0.05478 0.0
C708 C 0.46049 0.85359 0.05189 0.0
C709 C 0.4701 0.87698 0.05759 0.0
C710 C 0.39398 0.85971 0.06608 0.0
C711 C 0.47714 0.83507 0.04325 0.0
C712 C 0.42112 0.77923 0.05749 0.0
C713 C 0.40833 0.7735 0.04187 0.0
C714 C 0.42967 0.80342 0.06199 0.0
C715 C 0.42601 0.82207 0.05034 0.0
C716 C 0.4133 0.8163 0.03446 0.0
C717 C 0.40427 0.79213 0.03052 0.0
C718 C 0.44258 0.80902 0.07921 0.0
C719 C 0.40968 0.8355 0.02153 0.0
H720 H 0.41855 0.90276 0.07363 0.0
H721 H 0.48949 0.88095 0.05615 0.0
H722 H 0.38336 0.85335 0.0542 0.0
H723 H 0.39366 0.84437 0.07472 0.0
H724 H 0.38442 0.87595 0.07191 0.0
H725 H 0.49513 0.84343 0.04048 0.0
H726 H 0.48092 0.81943 0.05141 0.0
H727 H 0.46785 0.82726 0.03123 0.0
H728 H 0.42413 0.76485 0.06631 0.0
H729 H 0.3946 0.78764 0.01834 0.0
H730 H 0.43309 0.82445 0.08601 0.0
H731 H 0.46193 0.81511 0.07786 0.0
H732 H 0.44296 0.7927 0.08706 0.0
H733 H 0.39924 0.8515 0.02681 0.0
H734 H 0.39953 0.82796 0.00973 0.0
H735 H 0.42797 0.84264 0.01833 0.0
C736 C 0.19909 0.62614 0.00807 0.0
C737 C 0.17854 0.64173 0.00596 0.0
C738 C 0.22253 0.63577 0.01356 0.0
C739 C 0.22533 0.66151 0.01765 0.0
C740 C 0.20416 0.67686 0.0175 0.0
C741 C 0.18106 0.66688 0.01142 0.0
C742 C 0.24462 0.61873 0.01335 0.0
C743 C 0.20621 0.70424 0.02241 0.0
C744 C 0.28944 0.68345 0.03512 0.0
C745 C 0.29952 0.69137 0.02052 0.0
C746 C 0.26487 0.67461 0.03464 0.0
C747 C 0.25055 0.67282 0.01906 0.0
C748 C 0.26072 0.68092 0.00433 0.0
C749 C 0.2849 0.69044 0.00531 0.0
C750 C 0.25434 0.667 0.05071 0.0
C751 C 0.24633 0.67885 0.98736 0.0
H752 H 0.1972 0.60652 0.00448 0.0
H753 H 0.16542 0.67921 0.00993 0.0
H754 H 0.25587 0.62283 0.00262 0.0
H755 H 0.25667 0.6218 0.0251 0.0
H756 H 0.23902 0.59888 0.01191 0.0
H757 H 0.18791 0.71236 0.02512 0.0
H758 H 0.21918 0.70776 0.03369 0.0
H759 H 0.21363 0.71399 0.0119 0.0
H760 H 0.30069 0.68432 0.04692 0.0
H761 H 0.29271 0.69637 0.99396 0.0
H762 H 0.25158 0.64662 0.05006 0.0
H763 H 0.23594 0.6756 0.05226 0.0
H764 H 0.26672 0.67235 0.06204 0.0
H765 H 0.2409 0.65925 0.98406 0.0
H766 H 0.25716 0.68553 0.97708 0.0
H767 H 0.22905 0.68979 0.98792 0.0
C768 C 0.43174 0.66086 0.2419 0.0
C769 C 0.44968 0.64575 0.24947 0.0
C770 C 0.43046 0.6862 0.24674 0.0
C771 C 0.44726 0.69655 0.25969 0.0
C772 C 0.46491 0.68116 0.26775 0.0
C773 C 0.46611 0.65597 0.2624 0.0
C774 C 0.41171 0.70206 0.2376 0.0
C775 C 0.48279 0.69141 0.28184 0.0
C776 C 0.46187 0.76541 0.26056 0.0
C777 C 0.44611 0.77517 0.27264 0.0
C778 C 0.46229 0.73988 0.25616 0.0
C779 C 0.44697 0.72364 0.26429 0.0
C780 C 0.4312 0.73335 0.27662 0.0
C781 C 0.43075 0.75904 0.28051 0.0
C782 C 0.47897 0.73029 0.24269 0.0
C783 C 0.41497 0.71658 0.2858 0.0
H784 H 0.41926 0.65301 0.23173 0.0
H785 H 0.47994 0.64422 0.26827 0.0
H786 H 0.39985 0.71181 0.24676 0.0
H787 H 0.42144 0.71645 0.23109 0.0
H788 H 0.3996 0.69103 0.2281 0.0
H789 H 0.4942 0.67669 0.28756 0.0
H790 H 0.49538 0.70513 0.27693 0.0
H791 H 0.4725 0.70124 0.29187 0.0
H792 H 0.47369 0.7778 0.25437 0.0
H793 H 0.41869 0.76646 0.28996 0.0
H794 H 0.4678 0.72014 0.23226 0.0
H795 H 0.49248 0.717 0.248 0.0
H796 H 0.48938 0.74542 0.23734 0.0
H797 H 0.40176 0.70631 0.27664 0.0
H798 H 0.40425 0.72699 0.29537 0.0
H799 H 0.42653 0.70261 0.29221 0.0
C800 C 0.42882 0.97056 0.50639 0.0
C801 C 0.45012 0.96461 0.51628 0.0
C802 C 0.40521 0.9628 0.5104 0.0
C803 C 0.40277 0.94872 0.52466 0.0
C804 C 0.424 0.9439 0.53527 0.0
C805 C 0.44743 0.95185 0.53094 0.0
C806 C 0.38306 0.96837 0.49875 0.0
C807 C 0.42216 0.92919 0.55069 0.0
C808 C 0.33666 0.93929 0.5372 0.0
C809 C 0.33036 0.91658 0.52843 0.0
C810 C 0.36055 0.94958 0.53674 0.0
C811 C 0.37848 0.93686 0.52728 0.0
C812 C 0.37255 0.91337 0.51913 0.0
C813 C 0.34862 0.90354 0.51981 0.0
C814 C 0.36622 0.97456 0.54572 0.0
C815 C 0.39113 0.8991 0.50898 0.0
H816 H 0.43068 0.98012 0.49494 0.0
H817 H 0.46377 0.94747 0.53877 0.0
H818 H 0.37594 0.9509 0.49207 0.0
H819 H 0.36788 0.97637 0.50608 0.0
H820 H 0.38768 0.98147 0.48916 0.0
H821 H 0.43969 0.92982 0.55879 0.0
H822 H 0.4069 0.93625 0.55833 0.0
H823 H 0.41781 0.90955 0.54668 0.0
H824 H 0.32269 0.94949 0.5439 0.0
H825 H 0.344 0.88591 0.51308 0.0
H826 H 0.36813 0.9886 0.53626 0.0
H827 H 0.38409 0.97409 0.55335 0.0
H828 H 0.35143 0.98065 0.55412 0.0
H829 H 0.39552 0.90953 0.49793 0.0
H830 H 0.38417 0.8804 0.50433 0.0
H831 H 0.40869 0.89696 0.51673 0.0
C832 C 0.15364 0.94116 0.77255 0.0
C833 C 0.14291 0.9385 0.75597 0.0
C834 C 0.16437 0.9208 0.78041 0.0
C835 C 0.16428 0.89729 0.7715 0.0
C836 C 0.15297 0.89442 0.75494 0.0
C837 C 0.14264 0.91502 0.74737 0.0
C838 C 0.17633 0.92456 0.79806 0.0
C839 C 0.1524 0.86967 0.74495 0.0
C840 C 0.21145 0.84681 0.77734 0.0
C841 C 0.19733 0.82867 0.7843 0.0
C842 C 0.20171 0.87034 0.77462 0.0
C843 C 0.17713 0.87572 0.77878 0.0
C844 C 0.16364 0.85829 0.78724 0.0
C845 C 0.17398 0.83494 0.78999 0.0
C846 C 0.21693 0.88854 0.76586 0.0
C847 C 0.13741 0.86331 0.79192 0.0
H848 H 0.15376 0.95916 0.77935 0.0
H849 H 0.13499 0.91279 0.73443 0.0
H850 H 0.16915 0.91072 0.80631 0.0
H851 H 0.19662 0.9217 0.79773 0.0
H852 H 0.17306 0.94344 0.80379 0.0
H853 H 0.14164 0.87028 0.73261 0.0
H854 H 0.17158 0.86382 0.74254 0.0
H855 H 0.14409 0.85529 0.75227 0.0
H856 H 0.22967 0.84218 0.77313 0.0
H857 H 0.16298 0.82102 0.79542 0.0
H858 H 0.21543 0.9075 0.77188 0.0
H859 H 0.20975 0.88911 0.7525 0.0
H860 H 0.2368 0.88333 0.76603 0.0
H861 H 0.1356 0.88253 0.79744 0.0
H862 H 0.13123 0.85019 0.80106 0.0
H863 H 0.12476 0.86132 0.78036 0.0
C864 C 0.67943 0.4527 0.78614 0.0
C865 C 0.65795 0.4418 0.77801 0.0
C866 C 0.70288 0.44766 0.78024 0.0
C867 C 0.70504 0.43115 0.76588 0.0
C868 C 0.68341 0.42085 0.75716 0.0
C869 C 0.66009 0.42627 0.76335 0.0
C870 C 0.72546 0.45906 0.78994 0.0
C871 C 0.68497 0.40331 0.74173 0.0
C872 C 0.76937 0.43221 0.74934 0.0
C873 C 0.78111 0.41382 0.75859 0.0
C874 C 0.74397 0.437 0.75058 0.0
C875 C 0.73012 0.42299 0.76125 0.0
C876 C 0.74149 0.40309 0.76947 0.0
C877 C 0.76684 0.39879 0.76806 0.0
C878 C 0.73245 0.45823 0.74149 0.0
C879 C 0.72737 0.38751 0.78083 0.0
H880 H 0.67808 0.46438 0.79763 0.0
H881 H 0.64356 0.41801 0.75687 0.0
H882 H 0.73657 0.44432 0.79587 0.0
H883 H 0.73743 0.46815 0.78126 0.0
H884 H 0.7205 0.473 0.80002 0.0
H885 H 0.6665 0.39951 0.73514 0.0
H886 H 0.69742 0.41097 0.73273 0.0
H887 H 0.69299 0.38548 0.74553 0.0
H888 H 0.78029 0.44384 0.74195 0.0
H889 H 0.77574 0.38432 0.77507 0.0
H890 H 0.72992 0.47414 0.75072 0.0
H891 H 0.71389 0.45294 0.73561 0.0
H892 H 0.74423 0.46442 0.73156 0.0
H893 H 0.72317 0.39886 0.79241 0.0
H894 H 0.73802 0.37101 0.78465 0.0
H895 H 0.70944 0.38118 0.77443 0.0
C896 C 0.67761 0.1693 0.02187 0.0
C897 C 0.65429 0.16517 0.02814 0.0
C898 C 0.68436 0.19275 0.01691 0.0
C899 C 0.66771 0.21276 0.01871 0.0
C900 C 0.64354 0.20833 0.02381 0.0
C901 C 0.63701 0.18453 0.02818 0.0
C902 C 0.71003 0.1965 0.01098 0.0
C903 C 0.62526 0.22916 0.02608 0.0
C904 C 0.69582 0.2756 0.03251 0.0
C905 C 0.69154 0.28886 0.01802 0.0
C906 C 0.68829 0.25083 0.03278 0.0
C907 C 0.67678 0.2387 0.01801 0.0
C908 C 0.67327 0.25167 0.0031 0.0
C909 C 0.68032 0.2768 0.00336 0.0
C910 C 0.69196 0.23791 0.04907 0.0
C911 C 0.66184 0.2391 0.98697 0.0
H912 H 0.69126 0.15467 0.02177 0.0
H913 H 0.61865 0.18142 0.03243 0.0
H914 H 0.70948 0.2087 0.00024 0.0
H915 H 0.722 0.20566 0.0214 0.0
H916 H 0.7187 0.17863 0.00703 0.0
H917 H 0.60642 0.22225 0.02825 0.0
H918 H 0.63173 0.24163 0.03711 0.0
H919 H 0.62404 0.24041 0.01486 0.0
H920 H 0.70429 0.28488 0.04393 0.0
H921 H 0.67708 0.28698 0.99211 0.0
H922 H 0.70367 0.22128 0.04716 0.0
H923 H 0.67381 0.23152 0.05305 0.0
H924 H 0.70088 0.25012 0.05949 0.0
H925 H 0.67142 0.22138 0.984 0.0
H926 H 0.66273 0.25093 0.97608 0.0
H927 H 0.64213 0.23456 0.98856 0.0
C928 C 0.95678 0.15818 0.28596 0.0
C929 C 0.96362 0.15531 0.30302 0.0
C930 C 0.93193 0.16216 0.28059 0.0
C931 C 0.91364 0.16369 0.29264 0.0
C932 C 0.92056 0.16117 0.30991 0.0
C933 C 0.94544 0.15686 0.31487 0.0
C934 C 0.92518 0.16441 0.26203 0.0
C935 C 0.90169 0.16303 0.32317 0.0
C936 C 0.85233 0.19492 0.28159 0.0
C937 C 0.83646 0.17444 0.27798 0.0
C938 C 0.87754 0.19171 0.28631 0.0
C939 C 0.88716 0.16745 0.2872 0.0
C940 C 0.8713 0.14672 0.28335 0.0
C941 C 0.84612 0.15046 0.27891 0.0
C942 C 0.89382 0.21426 0.29057 0.0
C943 C 0.88092 0.12057 0.28397 0.0
H944 H 0.97083 0.15689 0.27678 0.0
H945 H 0.95078 0.15502 0.32811 0.0
H946 H 0.91168 0.14966 0.25739 0.0
H947 H 0.91611 0.18246 0.26004 0.0
H948 H 0.94161 0.1629 0.2543 0.0
H949 H 0.91024 0.16136 0.33613 0.0
H950 H 0.89196 0.18105 0.32276 0.0
H951 H 0.88748 0.14822 0.32054 0.0
H952 H 0.845 0.2135 0.28093 0.0
H953 H 0.83404 0.13453 0.27601 0.0
H954 H 0.90961 0.21397 0.28229 0.0
H955 H 0.9017 0.21402 0.30379 0.0
H956 H 0.88354 0.23185 0.28913 0.0
H957 H 0.89654 0.11793 0.27562 0.0
H958 H 0.86637 0.10647 0.28 0.0
H959 H 0.88816 0.11721 0.29699 0.0
C960 C 0.95726 0.44096 0.54947 0.0
C961 C 0.94897 0.45878 0.53834 0.0
C962 C 0.95513 0.41556 0.54487 0.0
C963 C 0.94411 0.40765 0.52881 0.0
C964 C 0.93679 0.42545 0.51718 0.0
C965 C 0.93941 0.45081 0.52205 0.0
C966 C 0.96338 0.39718 0.55761 0.0
C967 C 0.92498 0.41774 0.49993 0.0
C968 C 0.9504 0.33888 0.51674 0.0
C969 C 0.92884 0.32939 0.52299 0.0
C970 C 0.95522 0.36453 0.5178 0.0
C971 C 0.93791 0.38095 0.52508 0.0
C972 C 0.91542 0.3715 0.53041 0.0
C973 C 0.91125 0.34585 0.5294 0.0
C974 C 0.97944 0.3739 0.51205 0.0
C975 C 0.89629 0.38839 0.53801 0.0
H976 H 0.96431 0.44677 0.56217 0.0
H977 H 0.93336 0.4644 0.51324 0.0
H978 H 0.94692 0.38778 0.56203 0.0
H979 H 0.97514 0.38269 0.55173 0.0
H980 H 0.97397 0.4062 0.56878 0.0
H981 H 0.92313 0.43355 0.49166 0.0
H982 H 0.93597 0.403 0.49362 0.0
H983 H 0.90624 0.40997 0.5013 0.0
H984 H 0.96409 0.32622 0.5118 0.0
H985 H 0.89443 0.33862 0.53408 0.0
H986 H 0.99158 0.38034 0.52325 0.0
H987 H 0.9763 0.38997 0.50418 0.0
H988 H 0.98936 0.35931 0.50471 0.0
H989 H 0.90382 0.39678 0.55037 0.0
H990 H 0.87883 0.37838 0.54001 0.0
H991 H 0.89188 0.40376 0.52972 0.0
C992 C 0.76688 0.13605 0.50275 0.0
C993 C 0.7522 0.1415 0.4883 0.0
C994 C 0.78855 0.14971 0.50766 0.0
C995 C 0.79585 0.16905 0.49774 0.0
C996 C 0.78068 0.17511 0.48344 0.0
C997 C 0.75897 0.16133 0.47894 0.0
C998 C 0.80404 0.14295 0.52315 0.0
C999 C 0.78793 0.19542 0.47245 0.0
C1000 C 0.8444 0.21604 0.51591 0.0
C1001 C 0.86607 0.20638 0.50925 0.0
C1002 C 0.82142 0.20402 0.51237 0.0
C1003 C 0.82003 0.18198 0.50177 0.0
C1004 C 0.84178 0.17226 0.49489 0.0
C1005 C 0.86455 0.18449 0.49879 0.0
C1006 C 0.79867 0.2148 0.52008 0.0
C1007 C 0.84101 0.14895 0.48335 0.0
H1008 H 0.76159 0.12083 0.51007 0.0
H1009 H 0.74786 0.16537 0.46762 0.0
H1010 H 0.82216 0.1356 0.51938 0.0
H1011 H 0.80789 0.15965 0.53175 0.0
H1012 H 0.79484 0.12876 0.53019 0.0
H1013 H 0.7734 0.19878 0.46235 0.0
H1014 H 0.79153 0.21297 0.48023 0.0
H1015 H 0.80536 0.19035 0.46645 0.0
H1016 H 0.84541 0.23288 0.52407 0.0
H1017 H 0.88117 0.17694 0.49353 0.0
H1018 H 0.79023 0.20099 0.5278 0.0
H1019 H 0.78458 0.21917 0.50996 0.0
H1020 H 0.80291 0.23195 0.52819 0.0
H1021 H 0.83398 0.13322 0.49006 0.0
H1022 H 0.85952 0.14401 0.47886 0.0
H1023 H 0.82802 0.15135 0.47221 0.0
C1024 C 0.99045 0.27194 0.76161 0.0
C1025 C 0.9854 0.25216 0.74964 0.0
C1026 C 0.97332 0.29114 0.76388 0.0
C1027 C 0.9508 0.29068 0.75373 0.0
C1028 C 0.94503 0.27005 0.74231 0.0
C1029 C 0.96236 0.25096 0.74046 0.0
C1030 C 0.97997 0.31261 0.77641 0.0
C1031 C 0.92136 0.26895 0.73114 0.0
C1032 C 0.90084 0.33753 0.76448 0.0
C1033 C 0.90637 0.35676 0.75421 0.0
C1034 C 0.91499 0.31574 0.76441 0.0
C1035 C 0.93482 0.31304 0.75362 0.0
C1036 C 0.93993 0.33207 0.74285 0.0
C1037 C 0.92577 0.35374 0.74336 0.0
C1038 C 0.90917 0.29594 0.77618 0.0
C1039 C 0.96065 0.32974 0.73094 0.0
H1040 H 0.00818 0.2728 0.7688 0.0
H1041 H 0.95851 0.23584 0.73104 0.0
H1042 H 0.98388 0.3293 0.76953 0.0
H1043 H 0.96423 0.3171 0.78436 0.0
H1044 H 0.99655 0.3087 0.78477 0.0
H1045 H 0.91825 0.25042 0.72448 0.0
H1046 H 0.90517 0.27351 0.73865 0.0
H1047 H 0.92223 0.28294 0.72155 0.0
H1048 H 0.88595 0.33982 0.77297 0.0
H1049 H 0.93003 0.36844 0.7353 0.0
H1050 H 0.92516 0.29377 0.78541 0.0
H1051 H 0.90617 0.27783 0.76899 0.0
H1052 H 0.89247 0.30038 0.78324 0.0
H1053 H 0.9787 0.32845 0.73827 0.0
H1054 H 0.96148 0.34573 0.72285 0.0
H1055 H 0.95824 0.3125 0.72265 0.0
C1056 C 0.84967 0.48735 0.00518 0.0
C1057 C 0.86509 0.48053 0.99216 0.0
C1058 C 0.83055 0.47157 0.00923 0.0
C1059 C 0.82653 0.44863 -0.00018 0.0
C1060 C 0.84284 0.44114 0.98722 0.0
C1061 C 0.86204 0.45714 0.98361 0.0
C1062 C 0.81382 0.48005 0.02295 0.0
C1063 C 0.83902 0.41698 0.97677 0.0
C1064 C 0.78151 0.40213 0.01543 0.0
C1065 C 0.75935 0.40822 0.00653 0.0
C1066 C 0.80367 0.41495 0.01331 0.0
C1067 C 0.80368 0.43396 0.00182 0.0
C1068 C 0.78152 0.43959 0.99243 0.0
C1069 C 0.75963 0.4268 0.99499 0.0
C1070 C 0.82689 0.40865 0.02367 0.0
C1071 C 0.78082 0.45944 0.97983 0.0
H1072 H 0.85215 0.50537 0.01188 0.0
H1073 H 0.87378 0.45194 0.97341 0.0
H1074 H 0.79524 0.48444 0.0172 0.0
H1075 H 0.81133 0.46508 0.03164 0.0
H1076 H 0.82121 0.49681 0.03041 0.0
H1077 H 0.85487 0.41258 0.96887 0.0
H1078 H 0.83635 0.40149 0.98501 0.0
H1079 H 0.82198 0.41813 0.96832 0.0
H1080 H 0.78138 0.38787 0.02443 0.0
H1081 H 0.74262 0.43145 0.98796 0.0
H1082 H 0.83295 0.42494 0.03213 0.0
H1083 H 0.84216 0.40421 0.01531 0.0
H1084 H 0.82406 0.39269 0.03152 0.0
H1085 H 0.78539 0.47772 0.98642 0.0
H1086 H 0.76237 0.4607 0.97295 0.0
H1087 H 0.79494 0.45565 0.97046 0.0
C1088 C 0.67028 0.37011 0.26259 0.0
C1089 C 0.65294 0.36789 0.24868 0.0
C1090 C 0.68485 0.34986 0.26725 0.0
C1091 C 0.68223 0.32695 0.25763 0.0
C1092 C 0.66399 0.32433 0.24404 0.0
C1093 C 0.64952 0.34479 0.23978 0.0
C1094 C 0.70382 0.35329 0.28197 0.0
C1095 C 0.66071 0.3003 0.23337 0.0
C1096 C 0.73756 0.28471 0.25296 0.0
C1097 C 0.73155 0.26497 0.26265 0.0
C1098 C 0.72208 0.30537 0.25173 0.0
C1099 C 0.7001 0.3065 0.26055 0.0
C1100 C 0.69453 0.28725 0.27104 0.0
C1101 C 0.71027 0.26662 0.27192 0.0
C1102 C 0.72871 0.32545 0.24036 0.0
C1103 C 0.67145 0.28797 0.28082 0.0
H1104 H 0.6728 0.38787 0.26962 0.0
H1105 H 0.63639 0.343 0.22889 0.0
H1106 H 0.7026 0.33787 0.29048 0.0
H1107 H 0.72272 0.35297 0.27725 0.0
H1108 H 0.70144 0.37112 0.28941 0.0
H1109 H 0.64446 0.30069 0.22412 0.0
H1110 H 0.67756 0.29663 0.22634 0.0
H1111 H 0.65837 0.28461 0.2415 0.0
H1112 H 0.75398 0.28367 0.24579 0.0
H1113 H 0.70553 0.2515 0.27949 0.0
H1114 H 0.72888 0.34383 0.2474 0.0
H1115 H 0.7145 0.32607 0.2297 0.0
H1116 H 0.74711 0.32244 0.2351 0.0
H1117 H 0.66991 0.30617 0.28793 0.0
H1118 H 0.6712 0.27307 0.28983 0.0
H1119 H 0.65485 0.28574 0.27191 0.0
C1120 C 0.17586 0.95923 0.40623 0.0
C1121 C 0.19171 0.97503 0.39847 0.0
C1122 C 0.18161 0.95193 0.42265 0.0
C1123 C 0.20363 0.96082 0.4316 0.0
C1124 C 0.2194 0.97726 0.42404 0.0
C1125 C 0.21332 0.98406 0.40754 0.0
C1126 C 0.16437 0.9343 0.43028 0.0
C1127 C 0.24299 0.98722 0.43323 0.0
C1128 C 0.20936 0.95627 0.47923 0.0
C1129 C 0.2241 0.9351 0.48079 0.0
C1130 C 0.20267 0.96498 0.4633 0.0
C1131 C 0.2107 0.95207 0.4486 0.0
C1132 C 0.22551 0.93068 0.45009 0.0
C1133 C 0.23212 0.92253 0.46615 0.0
C1134 C 0.18706 0.98801 0.4622 0.0
C1135 C 0.23426 0.91629 0.43469 0.0
H1136 H 0.15892 0.9525 0.39944 0.0
H1137 H 0.22587 0.996 0.40159 0.0
H1138 H 0.17427 0.91689 0.43297 0.0
H1139 H 0.15835 0.94253 0.44249 0.0
H1140 H 0.14764 0.92962 0.42183 0.0
H1141 H 0.25245 0.00098 0.42598 0.0
H1142 H 0.23892 0.9961 0.44571 0.0
H1143 H 0.25593 0.97175 0.43559 0.0
H1144 H 0.20316 0.96615 0.49047 0.0
H1145 H 0.24342 0.9061 0.46721 0.0
H1146 H 0.1695 0.98364 0.45462 0.0
H1147 H 0.19699 0.00223 0.45566 0.0
H1148 H 0.18253 0.99604 0.47484 0.0
H1149 H 0.21808 0.90981 0.42627 0.0
H1150 H 0.24554 0.89995 0.43801 0.0
H1151 H 0.24555 0.92846 0.42739 0.0
C1152 C 0.08842 0.71208 0.6706 0.0
C1153 C 0.09987 0.69889 0.65749 0.0
C1154 C 0.10033 0.7156 0.68678 0.0
C1155 C 0.12421 0.70558 0.68993 0.0
C1156 C 0.13553 0.69155 0.67692 0.0
C1157 C 0.12327 0.68845 0.66084 0.0
C1158 C 0.08768 0.7307 0.70034 0.0
C1159 C 0.16096 0.68053 0.67981 0.0
C1160 C 0.16676 0.73754 0.72437 0.0
C1161 C 0.16477 0.72203 0.73776 0.0
C1162 C 0.15356 0.73242 0.7088 0.0
C1163 C 0.13807 0.71117 0.70648 0.0
C1164 C 0.13602 0.69535 0.71988 0.0
C1165 C 0.14934 0.70101 0.73539 0.0
C1166 C 0.15614 0.74982 0.69484 0.0
C1167 C 0.11979 0.67245 0.7178 0.0
H1168 H 0.07018 0.71986 0.66818 0.0
H1169 H 0.13242 0.67852 0.65074 0.0
H1170 H 0.08685 0.72011 0.71182 0.0
H1171 H 0.09858 0.74783 0.704 0.0
H1172 H 0.06856 0.73602 0.69614 0.0
H1173 H 0.16634 0.66851 0.6688 0.0
H1174 H 0.17493 0.69561 0.68228 0.0
H1175 H 0.16162 0.66941 0.69111 0.0
H1176 H 0.17853 0.75388 0.72608 0.0
H1177 H 0.14771 0.68891 0.74565 0.0
H1178 H 0.13771 0.75723 0.69086 0.0
H1179 H 0.16335 0.73964 0.68364 0.0
H1180 H 0.16879 0.76566 0.69874 0.0
H1181 H 0.10035 0.67765 0.71446 0.0
H1182 H 0.12022 0.66205 0.72944 0.0
H1183 H 0.12592 0.65996 0.70727 0.0
C1184 C 0.43642 0.61296 0.91176 0.0
C1185 C 0.45821 0.62282 0.90602 0.0
C1186 C 0.42867 0.61985 0.9279 0.0
C1187 C 0.44275 0.63742 0.93844 0.0
C1188 C 0.46523 0.64672 0.93303 0.0
C1189 C 0.47282 0.63912 0.91697 0.0
C1190 C 0.40477 0.60921 0.93333 0.0
C1191 C 0.48065 0.66567 0.94386 0.0
C1192 C 0.40712 0.67826 0.96882 0.0
C1193 C 0.41356 0.66825 0.98434 0.0
C1194 C 0.4167 0.66849 0.95385 0.0
C1195 C 0.43274 0.64787 0.95435 0.0
C1196 C 0.4391 0.63744 0.96994 0.0
C1197 C 0.42962 0.64794 0.98481 0.0
C1198 C 0.4098 0.68041 0.93752 0.0
C1199 C 0.45573 0.61513 0.97086 0.0
H1200 H 0.42478 0.60061 0.9034 0.0
H1201 H 0.48997 0.64641 0.91284 0.0
H1202 H 0.40741 0.60268 0.94628 0.0
H1203 H 0.39042 0.62384 0.93362 0.0
H1204 H 0.3977 0.59353 0.92464 0.0
H1205 H 0.49851 0.66972 0.93836 0.0
H1206 H 0.47013 0.6832 0.94527 0.0
H1207 H 0.4846 0.65914 0.9567 0.0
H1208 H 0.39488 0.69409 0.96839 0.0
H1209 H 0.43453 0.64006 0.99677 0.0
H1210 H 0.40015 0.66674 0.92838 0.0
H1211 H 0.42679 0.6865 0.93175 0.0
H1212 H 0.39756 0.69669 0.93938 0.0
H1213 H 0.44758 0.5995 0.96261 0.0
H1214 H 0.4586 0.60902 0.98393 0.0
H1215 H 0.47405 0.61942 0.96615 0.0
C1216 C 0.50486 0.92013 0.16714 0.0
C1217 C 0.51203 0.94504 0.16668 0.0
C1218 C 0.5004 0.90983 0.18244 0.0
C1219 C 0.50311 0.9248 0.1977 0.0
C1220 C 0.51079 0.94983 0.1974 0.0
C1221 C 0.51512 0.95967 0.18188 0.0
C1222 C 0.49223 0.88306 0.18221 0.0
C1223 C 0.51404 0.96629 0.21345 0.0
C1224 C 0.46737 0.90318 0.23387 0.0
C1225 C 0.48567 0.89044 0.24308 0.0
C1226 C 0.47296 0.91507 0.21933 0.0
C1227 C 0.49743 0.91421 0.21389 0.0
C1228 C 0.51613 0.90198 0.22341 0.0
C1229 C 0.51003 0.89023 0.23788 0.0
C1230 C 0.45251 0.92794 0.2095 0.0
C1231 C 0.54244 0.90068 0.21804 0.0
H1232 H 0.50196 0.90881 0.15543 0.0
H1233 H 0.52083 0.97888 0.18163 0.0
H1234 H 0.50497 0.87268 0.19065 0.0
H1235 H 0.47347 0.88194 0.18706 0.0
H1236 H 0.49169 0.87375 0.16933 0.0
H1237 H 0.52086 0.98511 0.21112 0.0
H1238 H 0.49611 0.96811 0.21947 0.0
H1239 H 0.52734 0.95784 0.22258 0.0
H1240 H 0.44853 0.90347 0.23782 0.0
H1241 H 0.52432 0.88051 0.24495 0.0
H1242 H 0.44929 0.91844 0.19677 0.0
H1243 H 0.45801 0.94734 0.20769 0.0
H1244 H 0.43481 0.92812 0.2159 0.0
H1245 H 0.54291 0.88985 0.20574 0.0
H1246 H 0.55513 0.89186 0.22741 0.0
H1247 H 0.54953 0.91954 0.21622 0.0
C1248 C 0.12866 0.68576 0.9052 0.0
C1249 C 0.10635 0.67235 0.90443 0.0
C1250 C 0.1373 0.69558 0.8907 0.0
C1251 C 0.12304 0.69224 0.87515 0.0
C1252 C 0.09962 0.68028 0.87461 0.0
C1253 C 0.09169 0.67019 0.88924 0.0
C1254 C 0.16254 0.70783 0.89178 0.0
C1255 C 0.08362 0.67684 0.85838 0.0
C1256 C 0.14369 0.72694 0.83806 0.0
C1257 C 0.15694 0.70848 0.82936 0.0
C1258 C 0.132 0.72187 0.85282 0.0
C1259 C 0.13416 0.698 0.85916 0.0
C1260 C 0.14757 0.67937 0.8504 0.0
C1261 C 0.15855 0.68478 0.83554 0.0
C1262 C 0.1174 0.742 0.86165 0.0
C1263 C 0.15072 0.65379 0.85687 0.0
H1264 H 0.14011 0.68725 0.91692 0.0
H1265 H 0.07433 0.65997 0.8887 0.0
H1266 H 0.17568 0.69562 0.88505 0.0
H1267 H 0.16178 0.7256 0.88552 0.0
H1268 H 0.16999 0.71145 0.90505 0.0
H1269 H 0.06451 0.67076 0.86061 0.0
H1270 H 0.08261 0.69433 0.85177 0.0
H1271 H 0.09195 0.66262 0.84983 0.0
H1272 H 0.14231 0.74526 0.83327 0.0
H1273 H 0.16892 0.67047 0.82895 0.0
H1274 H 0.1259 0.74649 0.87454 0.0
H1275 H 0.09821 0.73543 0.86306 0.0
H1276 H 0.11657 0.75922 0.8547 0.0
H1277 H 0.15981 0.65516 0.86981 0.0
H1278 H 0.16203 0.64154 0.84868 0.0
H1279 H 0.13234 0.64491 0.85765 0.0
C1280 C 0.43225 0.61528 0.14985 0.0
C1281 C 0.42772 0.58991 0.15092 0.0
C1282 C 0.42629 0.62697 0.1349 0.0
C1283 C 0.41592 0.61285 0.12056 0.0
C1284 C 0.41076 0.58731 0.12169 0.0
C1285 C 0.41655 0.57616 0.13695 0.0
C1286 C 0.43173 0.65432 0.13431 0.0
C1287 C 0.40003 0.57159 0.10661 0.0
C1288 C 0.3875 0.64931 0.08484 0.0
C1289 C 0.4077 0.65134 0.07475 0.0
C1290 C 0.3896 0.6362 0.09961 0.0
C1291 C 0.41229 0.62457 0.10415 0.0
C1292 C 0.43233 0.62567 0.09357 0.0
C1293 C 0.42986 0.63921 0.07909 0.0
C1294 C 0.36794 0.63569 0.11069 0.0
C1295 C 0.4567 0.61318 0.09781 0.0
H1296 H 0.44057 0.62597 0.16076 0.0
H1297 H 0.41312 0.55652 0.13779 0.0
H1298 H 0.44643 0.6571 0.12545 0.0
H1299 H 0.41497 0.66412 0.12953 0.0
H1300 H 0.43798 0.66299 0.1469 0.0
H1301 H 0.39549 0.55248 0.10988 0.0
H1302 H 0.38298 0.5802 0.10118 0.0
H1303 H 0.41353 0.57045 0.09663 0.0
H1304 H 0.37035 0.65869 0.08154 0.0
H1305 H 0.44544 0.64049 0.07122 0.0
H1306 H 0.37283 0.64615 0.12291 0.0
H1307 H 0.36365 0.61638 0.11355 0.0
H1308 H 0.35103 0.64399 0.10475 0.0
H1309 H 0.46569 0.62228 0.10953 0.0
H1310 H 0.46968 0.61403 0.08756 0.0
H1311 H 0.45352 0.59346 0.10022 0.0
C1312 C 0.51723 0.90386 0.41198 0.0
C1313 C 0.51651 0.92967 0.41516 0.0
C1314 C 0.51056 0.89287 0.39586 0.0
C1315 C 0.50284 0.90805 0.38265 0.0
C1316 C 0.50261 0.93412 0.38568 0.0
C1317 C 0.50953 0.94461 0.40187 0.0
C1318 C 0.51112 0.865 0.39309 0.0
C1319 C 0.49447 0.95092 0.37191 0.0
C1320 C 0.50083 0.88251 0.33692 0.0
C1321 C 0.47556 0.87673 0.3338 0.0
C1322 C 0.51009 0.89235 0.35286 0.0
C1323 C 0.49367 0.89666 0.36591 0.0
C1324 C 0.46822 0.89065 0.36289 0.0
C1325 C 0.4595 0.88069 0.34691 0.0
C1326 C 0.53739 0.89838 0.35568 0.0
C1327 C 0.4501 0.8951 0.37648 0.0
H1328 H 0.52236 0.89216 0.42221 0.0
H1329 H 0.50938 0.96459 0.40415 0.0
H1330 H 0.49201 0.85776 0.39015 0.0
H1331 H 0.52207 0.85958 0.38211 0.0
H1332 H 0.51922 0.85596 0.40433 0.0
H1333 H 0.49627 0.97085 0.37615 0.0
H1334 H 0.50564 0.94733 0.36078 0.0
H1335 H 0.47482 0.94697 0.3677 0.0
H1336 H 0.51339 0.87943 0.3269 0.0
H1337 H 0.43994 0.87634 0.34464 0.0
H1338 H 0.54549 0.88855 0.36655 0.0
H1339 H 0.53998 0.91853 0.35886 0.0
H1340 H 0.54783 0.89315 0.3444 0.0
H1341 H 0.45609 0.88506 0.38777 0.0
H1342 H 0.43098 0.889 0.37217 0.0
H1343 H 0.44974 0.91513 0.38046 0.0
C1344 C 0.17797 0.98108 0.65112 0.0
C1345 C 0.16435 0.00294 0.65312 0.0
C1346 C 0.18805 0.97417 0.63568 0.0
C1347 C 0.18487 0.98982 0.62206 0.0
C1348 C 0.17231 0.01262 0.62436 0.0
C1349 C 0.16185 0.01875 0.63981 0.0
C1350 C 0.20079 0.94943 0.63367 0.0
C1351 C 0.16909 0.03009 0.6103 0.0
C1352 C 0.2236 0.97381 0.58448 0.0
C1353 C 0.20645 0.96025 0.57356 0.0
C1354 C 0.21663 0.98451 0.60007 0.0
C1355 C 0.19218 0.98093 0.60498 0.0
C1356 C 0.17475 0.96758 0.59386 0.0
C1357 C 0.18202 0.9577 0.57823 0.0
C1358 C 0.23551 0.99921 0.61141 0.0
C1359 C 0.14863 0.96288 0.59872 0.0
H1360 H 0.17973 0.9688 0.66141 0.0
H1361 H 0.15145 0.03576 0.64145 0.0
H1362 H 0.18971 0.93702 0.62441 0.0
H1363 H 0.21928 0.95175 0.62864 0.0
H1364 H 0.20315 0.94022 0.64577 0.0
H1365 H 0.16197 0.04843 0.6148 0.0
H1366 H 0.18698 0.03287 0.60451 0.0
H1367 H 0.15583 0.02195 0.60024 0.0
H1368 H 0.24248 0.97591 0.58089 0.0
H1369 H 0.16869 0.94709 0.56993 0.0
H1370 H 0.24008 0.98923 0.62296 0.0
H1371 H 0.22776 0.01744 0.61549 0.0
H1372 H 0.2529 0.00234 0.60508 0.0
H1373 H 0.14914 0.95226 0.61025 0.0
H1374 H 0.13729 0.95232 0.58855 0.0
H1375 H 0.13927 0.98069 0.60173 0.0
C1376 C 0.58051 0.4122 0.8935 0.0
C1377 C 0.59856 0.4137 0.88162 0.0
C1378 C 0.58704 0.40646 0.9102 0.0
C1379 C 0.61224 0.40246 0.9152 0.0
C1380 C 0.63034 0.40278 0.90307 0.0
C1381 C 0.62325 0.40817 0.88643 0.0
C1382 C 0.56715 0.40589 0.92269 0.0
C1383 C 0.65744 0.39871 0.90787 0.0
C1384 C 0.63644 0.42075 0.96002 0.0
C1385 C 0.64072 0.39764 0.96674 0.0
C1386 C 0.62643 0.42252 0.94345 0.0
C1387 C 0.6202 0.40063 0.93335 0.0
C1388 C 0.62332 0.37725 0.9403 0.0
C1389 C 0.63373 0.37601 0.9569 0.0
C1390 C 0.62361 0.44782 0.9365 0.0
C1391 C 0.61643 0.35354 0.93002 0.0
H1392 H 0.56141 0.41654 0.88997 0.0
H1393 H 0.63723 0.40865 0.87725 0.0
H1394 H 0.56918 0.3893 0.93019 0.0
H1395 H 0.56907 0.42244 0.93167 0.0
H1396 H 0.54823 0.40581 0.91636 0.0
H1397 H 0.66893 0.39788 0.89673 0.0
H1398 H 0.66449 0.41406 0.91683 0.0
H1399 H 0.6599 0.38124 0.91438 0.0
H1400 H 0.64175 0.43759 0.96751 0.0
H1401 H 0.63687 0.35809 0.96203 0.0
H1402 H 0.60432 0.4504 0.93134 0.0
H1403 H 0.63594 0.44941 0.92596 0.0
H1404 H 0.62827 0.46305 0.94623 0.0
H1405 H 0.59743 0.35482 0.92401 0.0
H1406 H 0.61733 0.33716 0.93781 0.0
H1407 H 0.62927 0.35056 0.91973 0.0
C1408 C 0.71245 0.10306 0.13923 0.0
C1409 C 0.69121 0.11413 0.13202 0.0
C1410 C 0.72256 0.11128 0.15531 0.0
C1411 C 0.71099 0.13084 0.16447 0.0
C1412 C 0.68974 0.14228 0.1572 0.0
C1413 C 0.68022 0.13391 0.14104 0.0
C1414 C 0.7454 0.0988 0.16261 0.0
C1415 C 0.67685 0.16316 0.1666 0.0
C1416 C 0.72076 0.13641 0.21227 0.0
C1417 C 0.73771 0.15619 0.2148 0.0
C1418 C 0.71208 0.12784 0.19594 0.0
C1419 C 0.72077 0.13912 0.1818 0.0
C1420 C 0.73821 0.1588 0.18424 0.0
C1421 C 0.74635 0.1672 0.20072 0.0
C1422 C 0.69327 0.10698 0.19382 0.0
C1423 C 0.74811 0.17109 0.16946 0.0
H1424 H 0.72091 0.08762 0.13244 0.0
H1425 H 0.66411 0.14292 0.13544 0.0
H1426 H 0.76012 0.1128 0.1663 0.0
H1427 H 0.74099 0.08971 0.17421 0.0
H1428 H 0.75281 0.08462 0.15356 0.0
H1429 H 0.66054 0.17011 0.15914 0.0
H1430 H 0.67056 0.15679 0.17865 0.0
H1431 H 0.68995 0.17881 0.16984 0.0
H1432 H 0.71395 0.12784 0.22307 0.0
H1433 H 0.75959 0.18238 0.20256 0.0
H1434 H 0.70039 0.0914 0.18579 0.0
H1435 H 0.67595 0.11346 0.1873 0.0
H1436 H 0.68869 0.09992 0.2061 0.0
H1437 H 0.75644 0.15702 0.16079 0.0
H1438 H 0.76231 0.1855 0.17349 0.0
H1439 H 0.73271 0.17985 0.16215 0.0
C1440 C 0.05107 0.19768 0.40868 0.0
C1441 C 0.03772 0.18054 0.39766 0.0
C1442 C 0.04181 0.20592 0.42418 0.0
C1443 C 0.01846 0.19715 0.42853 0.0
C1444 C 0.00468 0.1803 0.4172 0.0
C1445 C 0.01458 0.17205 0.40198 0.0
C1446 C 0.0572 0.22356 0.43606 0.0
C1447 C 0.97954 0.17079 0.42122 0.0
C1448 C 0.00096 0.19427 0.47379 0.0
C1449 C 0.98495 0.21451 0.47549 0.0
C1450 C 0.01309 0.18925 0.45887 0.0
C1451 C 0.0087 0.20455 0.44519 0.0
C1452 C 0.99325 0.22555 0.44705 0.0
C1453 C 0.98172 0.23043 0.46228 0.0
C1454 C 0.02979 0.16696 0.45753 0.0
C1455 C 0.98786 0.2421 0.43266 0.0
H1456 H 0.06899 0.2042 0.40531 0.0
H1457 H 0.00407 0.15909 0.39332 0.0
H1458 H 0.04638 0.24039 0.43933 0.0
H1459 H 0.06207 0.21462 0.44801 0.0
H1460 H 0.07458 0.22926 0.43057 0.0
H1461 H 0.97066 0.15883 0.41066 0.0
H1462 H 0.9814 0.1599 0.43261 0.0
H1463 H 0.96708 0.18656 0.4241 0.0
H1464 H 0.00372 0.18206 0.48405 0.0
H1465 H 0.9693 0.24605 0.46354 0.0
H1466 H 0.04782 0.1722 0.45277 0.0
H1467 H 0.02113 0.15271 0.44835 0.0
H1468 H 0.03331 0.15854 0.46985 0.0
H1469 H 0.00536 0.24807 0.42749 0.0
H1470 H 0.97726 0.25883 0.43659 0.0
H1471 H 0.97693 0.2316 0.42228 0.0
C1472 C 0.91255 0.53718 0.64837 0.0
C1473 C 0.90725 0.52352 0.63301 0.0
C1474 C 0.90734 0.52745 0.66375 0.0
C1475 C 0.89724 0.50323 0.66373 0.0
C1476 C 0.89127 0.48965 0.64818 0.0
C1477 C 0.8961 0.5001 0.63297 0.0
C1478 C 0.91346 0.54274 0.68003 0.0
C1479 C 0.88101 0.46358 0.64762 0.0
C1480 C 0.91428 0.46794 0.70251 0.0
C1481 C 0.89216 0.46863 0.71085 0.0
C1482 C 0.91598 0.47881 0.68707 0.0
C1483 C 0.89522 0.49125 0.67996 0.0
C1484 C 0.87286 0.49224 0.68838 0.0
C1485 C 0.87149 0.4806 0.70365 0.0
C1486 C 0.94 0.47685 0.67832 0.0
C1487 C 0.85054 0.50582 0.68136 0.0
H1488 H 0.92103 0.55538 0.64834 0.0
H1489 H 0.89219 0.48952 0.62105 0.0
H1490 H 0.89746 0.54295 0.68814 0.0
H1491 H 0.92927 0.53432 0.68714 0.0
H1492 H 0.91849 0.56215 0.67779 0.0
H1493 H 0.87574 0.45621 0.63452 0.0
H1494 H 0.89513 0.45117 0.65327 0.0
H1495 H 0.86451 0.46292 0.65521 0.0
H1496 H 0.93024 0.45849 0.70795 0.0
H1497 H 0.85439 0.48125 0.71011 0.0
H1498 H 0.9478 0.49561 0.67712 0.0
H1499 H 0.93654 0.46818 0.66536 0.0
H1500 H 0.95408 0.46574 0.68524 0.0
H1501 H 0.85546 0.52551 0.68 0.0
H1502 H 0.83465 0.50512 0.68954 0.0
H1503 H 0.84461 0.49769 0.66859 0.0
C1504 C 0.71169 0.11199 0.38273 0.0
C1505 C 0.6872 0.10782 0.38678 0.0
C1506 C 0.71701 0.12034 0.367 0.0
C1507 C 0.69735 0.1246 0.35493 0.0
C1508 C 0.67252 0.12091 0.35903 0.0
C1509 C 0.66773 0.11263 0.37495 0.0
C1510 C 0.74374 0.12422 0.3632 0.0
C1511 C 0.65111 0.12517 0.34646 0.0
C1512 C 0.7153 0.16326 0.31917 0.0
C1513 C 0.72142 0.14477 0.30698 0.0
C1514 C 0.70626 0.15704 0.33459 0.0
C1515 C 0.70315 0.13177 0.33781 0.0
C1516 C 0.70801 0.11313 0.32517 0.0
C1517 C 0.71715 0.11985 0.30994 0.0
C1518 C 0.70128 0.17745 0.34775 0.0
C1519 C 0.70476 0.08598 0.32804 0.0
H1520 H 0.72679 0.1088 0.39195 0.0
H1521 H 0.64877 0.10938 0.37802 0.0
H1522 H 0.74852 0.1114 0.35245 0.0
H1523 H 0.74655 0.14338 0.35941 0.0
H1524 H 0.75678 0.121 0.3742 0.0
H1525 H 0.63288 0.12281 0.35191 0.0
H1526 H 0.6522 0.14412 0.34192 0.0
H1527 H 0.65213 0.11194 0.33529 0.0
H1528 H 0.7185 0.18256 0.31696 0.0
H1529 H 0.72161 0.10545 0.30053 0.0
H1530 H 0.71535 0.17684 0.35849 0.0
H1531 H 0.68286 0.17477 0.35282 0.0
H1532 H 0.70195 0.1961 0.34265 0.0
H1533 H 0.71872 0.08047 0.33792 0.0
H1534 H 0.70697 0.07396 0.31638 0.0
H1535 H 0.68618 0.08251 0.33264 0.0
C1536 C 0.00839 0.18615 0.63922 0.0
C1537 C 0.02605 0.2019 0.64809 0.0
C1538 C 0.99904 0.19102 0.62292 0.0
C1539 C 0.00775 0.21199 0.6152 0.0
C1540 C 0.02639 0.22734 0.62375 0.0
C1541 C 0.03526 0.22216 0.64014 0.0
C1542 C 0.97917 0.1742 0.61422 0.0
C1543 C 0.0363 0.24973 0.61584 0.0
C1544 C 0.99314 0.21367 0.56791 0.0
C1545 C 0.97203 0.22872 0.56732 0.0
C1546 C 0.00542 0.2086 0.5834 0.0
C1547 C 0.9962 0.2186 0.59864 0.0
C1548 C 0.97513 0.23409 0.59811 0.0
C1549 C 0.96338 0.23906 0.58247 0.0
C1550 C 0.02802 0.19224 0.58347 0.0
C1551 C 0.96461 0.24493 0.61411 0.0
H1552 H 0.00156 0.17017 0.64515 0.0
H1553 H 0.04876 0.23451 0.64695 0.0
H1554 H 0.96177 0.18478 0.61223 0.0
H1555 H 0.98479 0.16729 0.6016 0.0
H1556 H 0.97523 0.15804 0.62164 0.0
H1557 H 0.05231 0.25842 0.62347 0.0
H1558 H 0.04213 0.2445 0.60296 0.0
H1559 H 0.02145 0.26373 0.61455 0.0
H1560 H 6e-05 0.20575 0.55626 0.0
H1561 H 0.94708 0.25069 0.58214 0.0
H1562 H 0.02418 0.175 0.58976 0.0
H1563 H 0.04379 0.20178 0.5908 0.0
H1564 H 0.03367 0.18711 0.57052 0.0
H1565 H 0.95854 0.22978 0.62175 0.0
H1566 H 0.94855 0.2572 0.61151 0.0
H1567 H 0.97909 0.25577 0.6219 0.0
C1568 C 0.90273 0.49125 0.88311 0.0
C1569 C 0.90769 0.51629 0.88798 0.0
C1570 C 0.8989 0.48311 0.86607 0.0
C1571 C 0.89907 0.50051 0.8535 0.0
C1572 C 0.90336 0.5259 0.85824 0.0
C1573 C 0.90797 0.53345 0.8754 0.0
C1574 C 0.89472 0.45578 0.86154 0.0
C1575 C 0.903 0.54507 0.8452 0.0
C1576 C 0.90971 0.47347 0.80933 0.0
C1577 C 0.88533 0.4687 0.80291 0.0
C1578 C 0.91453 0.48467 0.82564 0.0
C1579 C 0.89445 0.49189 0.83545 0.0
C1580 C 0.86981 0.48855 0.82853 0.0
C1581 C 0.86555 0.47659 0.81245 0.0
C1582 C 0.94103 0.48733 0.83273 0.0
C1583 C 0.84793 0.49669 0.83838 0.0
H1584 H 0.9017 0.47786 0.89264 0.0
H1585 H 0.91206 0.55278 0.8789 0.0
H1586 H 0.87593 0.45268 0.85534 0.0
H1587 H 0.90826 0.44898 0.8524 0.0
H1588 H 0.89655 0.4445 0.87276 0.0
H1589 H 0.90569 0.56419 0.851 0.0
H1590 H 0.91781 0.54117 0.83637 0.0
H1591 H 0.88507 0.54415 0.83758 0.0
H1592 H 0.925 0.46722 0.80198 0.0
H1593 H 0.84667 0.47312 0.80739 0.0
H1594 H 0.94418 0.47487 0.84323 0.0
H1595 H 0.94478 0.50653 0.83801 0.0
H1596 H 0.95453 0.4826 0.82306 0.0
H1597 H 0.84611 0.48459 0.84902 0.0
H1598 H 0.83028 0.49577 0.83041 0.0
H1599 H 0.85075 0.51594 0.84387 0.0
C1600 C 0.60923 0.42027 0.13311 0.0
C1601 C 0.6264 0.43296 0.14453 0.0
C1602 C 0.61468 0.41457 0.11627 0.0
C1603 C 0.63781 0.42185 0.11068 0.0
C1604 C 0.65484 0.43547 0.12196 0.0
C1605 C 0.64897 0.4408 0.13875 0.0
C1606 C 0.59603 0.40001 0.10463 0.0
C1607 C 0.67969 0.44361 0.11646 0.0
C1608 C 0.66568 0.38367 0.07506 0.0
C1609 C 0.66116 0.39849 0.06132 0.0
C1610 C 0.65773 0.39088 0.09107 0.0
C1611 C 0.64505 0.41355 0.09349 0.0
C1612 C 0.63999 0.42842 0.07964 0.0
C1613 C 0.64803 0.42066 0.06368 0.0
C1614 C 0.6633 0.37437 0.10548 0.0
C1615 C 0.62659 0.45276 0.08178 0.0
H1616 H 0.59156 0.41456 0.13738 0.0
H1617 H 0.66246 0.45038 0.14751 0.0
H1618 H 0.59224 0.40962 0.09281 0.0
H1619 H 0.60373 0.38156 0.10104 0.0
H1620 H 0.57823 0.39726 0.11056 0.0
H1621 H 0.68996 0.45578 0.12632 0.0
H1622 H 0.69119 0.4271 0.11358 0.0
H1623 H 0.67724 0.4537 0.10474 0.0
H1624 H 0.67566 0.36642 0.07335 0.0
H1625 H 0.6445 0.43224 0.05314 0.0
H1626 H 0.6459 0.36961 0.1113 0.0
H1627 H 0.67549 0.38435 0.11544 0.0
H1628 H 0.67256 0.35691 0.10136 0.0
H1629 H 0.60855 0.44991 0.08734 0.0
H1630 H 0.62317 0.46165 0.06962 0.0
H1631 H 0.63769 0.46569 0.09067 0.0
loop_
_geom_bond_atom_site_label_1
_geom_bond_atom_site_label_2
_geom_bond_distance
_geom_bond_site_symmetry_2
_ccdc_geom_bond_type
H0 C27 0.929 . S
N1 C26 1.433 . S
N1 C32 1.435 . S
N1 C38 1.423 . S
H2 C28 0.930 . S
H3 C31 0.931 . S
H4 C30 0.929 . S
H5 C33 0.930 . S
H6 C34 0.932 . S
H7 C37 0.929 . S
H8 C36 0.931 . S
H9 C39 0.929 . S
H10 C43 0.932 . S
H11 C40 0.931 . S
H12 C42 0.929 . S
H13 C45 0.929 . S
H14 C46 0.930 . S
H15 C48 0.929 . S
H16 C49 0.931 . S
H17 C51 0.930 . S
H18 C52 0.932 . S
H19 C54 0.931 1_455 S
H20 C55 0.929 . S
H21 C57 0.929 . S
H22 C58 0.931 . S
H23 C60 0.929 . S
N24 C44 1.433 . S
N24 C50 1.435 . S
N24 C56 1.423 . S
H25 C61 0.932 . S
C26 N1 1.433 . S
C26 C27 1.363 . S
C26 C31 1.370 . S
C27 H0 0.929 . S
C27 C26 1.363 . S
C27 C28 1.385 . S
C28 H2 0.930 . S
C28 C27 1.385 . S
C28 C29 1.357 . S
C29 C28 1.357 . S
C29 C30 1.406 . S
C30 H4 0.929 . S
C30 C29 1.406 . S
C30 C31 1.391 . S
C31 H3 0.931 . S
C31 C26 1.370 . S
C31 C30 1.391 . S
C32 N1 1.435 . S
C32 C33 1.358 . S
C32 C37 1.371 . S
C33 H5 0.930 . S
C33 C32 1.358 . S
C33 C34 1.405 . S
C34 H6 0.932 . S
C34 C33 1.405 . S
C34 C35 1.383 . S
C35 C34 1.383 . S
C35 C36 1.393 . S
C36 H8 0.931 . S
C36 C35 1.393 . S
C36 C37 1.382 . S
C37 H7 0.929 . S
C37 C32 1.371 . S
C37 C36 1.382 . S
C38 N1 1.423 . S
C38 C39 1.362 1_565 S
C38 C43 1.388 . S
C39 H9 0.929 . S
C39 C38 1.362 1_545 S
C39 C40 1.376 . S
C40 H11 0.931 . S
C40 C39 1.376 . S
C40 C41 1.396 . S
C41 C40 1.396 . S
C41 C42 1.348 . S
C41 C59 1.472 . S
C42 H12 0.929 . S
C42 C41 1.348 . S
C42 C43 1.443 1_545 S
C43 H10 0.932 . S
C43 C38 1.388 . S
C43 C42 1.443 1_565 S
C44 N24 1.433 . S
C44 C45 1.363 1_455 S
C44 C49 1.370 . S
C45 H13 0.929 . S
C45 C44 1.363 1_655 S
C45 C46 1.385 . S
C46 H14 0.930 . S
C46 C45 1.385 . S
C46 C47 1.357 . S
C47 C46 1.357 . S
C47 C48 1.406 1_655 S
C48 H15 0.929 . S
C48 C47 1.406 1_455 S
C48 C49 1.392 . S
C49 H16 0.931 . S
C49 C44 1.370 . S
C49 C48 1.392 . S
C50 N24 1.435 . S
C50 C51 1.357 1_455 S
C50 C55 1.372 . S
C51 H17 0.930 . S
C51 C50 1.357 1_655 S
C51 C52 1.405 . S
C52 H18 0.932 . S
C52 C51 1.405 . S
C52 C53 1.383 . S
C53 C52 1.383 . S
C53 C54 1.393 . S
C54 H19 0.931 1_655 S
C54 C53 1.393 . S
C54 C55 1.382 1_655 S
C55 H20 0.929 . S
C55 C50 1.372 . S
C55 C54 1.382 1_455 S
C56 N24 1.423 . S
C56 C57 1.362 . S
C56 C61 1.388 . S
C57 H21 0.929 . S
C57 C56 1.362 . S
C57 C58 1.376 . S
C58 H22 0.931 . S
C58 C57 1.376 . S
C58 C59 1.396 . S
C59 C41 1.472 . S
C59 C58 1.396 . S
C59 C60 1.348 . S
C60 H23 0.929 . S
C60 C59 1.348 . S
C60 C61 1.443 . S
C61 H25 0.932 . S
C61 C56 1.388 . S
C61 C60 1.443 . S
H62 C89 0.929 . S
N63 C88 1.433 . S
N63 C94 1.435 . S
N63 C100 1.423 1_655 S
H64 C90 0.930 . S
H65 C93 0.931 . S
H66 C92 0.929 . S
H67 C95 0.930 . S
H68 C96 0.932 . S
H69 C99 0.927 1_455 S
H70 C98 0.931 1_455 S
H71 C101 0.929 . S
H72 C105 0.922 1_655 S
H73 C102 0.931 . S
H74 C104 0.929 . S
H75 C107 0.929 . S
H76 C108 0.930 . S
H77 C110 0.929 . S
H78 C111 0.931 . S
H79 C113 0.930 . S
H80 C114 0.932 . S
H81 C116 0.931 . S
H82 C117 0.929 . S
H83 C119 0.929 . S
H84 C120 0.931 . S
H85 C122 0.929 . S
N86 C106 1.433 . S
N86 C112 1.435 . S
N86 C118 1.423 . S
H87 C123 0.932 . S
C88 N63 1.433 . S
C88 C89 1.363 . S
C88 C93 1.370 . S
C89 H62 0.929 . S
C89 C88 1.363 . S
C89 C90 1.385 . S
C90 H64 0.930 . S
C90 C89 1.385 . S
C90 C91 1.357 . S
C91 C90 1.357 . S
C91 C92 1.406 . S
C92 H66 0.929 . S
C92 C91 1.406 . S
C92 C93 1.391 . S
C93 H65 0.931 . S
C93 C88 1.370 . S
C93 C92 1.391 . S
C94 N63 1.435 . S
C94 C95 1.358 . S
C94 C99 1.372 . S
C95 H67 0.930 . S
C95 C94 1.358 . S
C95 C96 1.405 . S
C96 H68 0.932 . S
C96 C95 1.405 . S
C96 C97 1.383 . S
C97 C96 1.383 . S
C97 C98 1.393 . S
C98 H70 0.931 1_655 S
C98 C97 1.393 . S
C98 C99 1.383 . S
C99 H69 0.927 1_655 S
C99 C94 1.372 . S
C99 C98 1.383 . S
C100 N63 1.423 1_455 S
C100 C101 1.362 . S
C100 C105 1.388 . S
C101 H71 0.929 . S
C101 C100 1.362 . S
C101 C102 1.376 . S
C102 H73 0.931 . S
C102 C101 1.376 . S
C102 C103 1.396 . S
C103 C102 1.396 . S
C103 C104 1.348 . S
C103 C121 1.472 . S
C104 H74 0.929 . S
C104 C103 1.348 . S
C104 C105 1.443 . S
C105 H72 0.922 1_455 S
C105 C100 1.388 . S
C105 C104 1.443 . S
C106 N86 1.433 . S
C106 C107 1.363 . S
C106 C111 1.370 . S
C107 H75 0.929 . S
C107 C106 1.363 . S
C107 C108 1.385 . S
C108 H76 0.930 . S
C108 C107 1.385 . S
C108 C109 1.357 . S
C109 C108 1.357 . S
C109 C110 1.406 . S
C110 H77 0.929 . S
C110 C109 1.406 . S
C110 C111 1.391 . S
C111 H78 0.931 . S
C111 C106 1.370 . S
C111 C110 1.391 . S
C112 N86 1.435 . S
C112 C113 1.358 . S
C112 C117 1.371 . S
C113 H79 0.930 . S
C113 C112 1.358 . S
C113 C114 1.405 . S
C114 H80 0.932 . S
C114 C113 1.405 . S
C114 C115 1.383 . S
C115 C114 1.383 . S
C115 C116 1.393 . S
C116 H81 0.931 . S
C116 C115 1.393 . S
C116 C117 1.382 . S
C117 H82 0.929 . S
C117 C112 1.371 . S
C117 C116 1.382 . S
C118 N86 1.423 . S
C118 C119 1.362 . S
C118 C123 1.388 . S
C119 H83 0.929 . S
C119 C118 1.362 . S
C119 C120 1.376 . S
C120 H84 0.931 . S
C120 C119 1.376 . S
C120 C121 1.396 . S
C121 C103 1.472 . S
C121 C120 1.396 . S
C121 C122 1.348 . S
C122 H85 0.929 . S
C122 C121 1.348 . S
C122 C123 1.443 . S
C123 H87 0.932 . S
C123 C118 1.388 . S
C123 C122 1.443 . S
H124 C151 0.929 . S
N125 C150 1.433 . S
N125 C156 1.435 . S
N125 C162 1.423 . S
H126 C152 0.930 . S
H127 C155 0.931 . S
H128 C154 0.929 . S
H129 C157 0.930 . S
H130 C158 0.932 . S
H131 C161 0.929 . S
H132 C160 0.931 . S
H133 C163 0.929 . S
H134 C167 0.932 . S
H135 C164 0.931 . S
H136 C166 0.929 . S
H137 C169 0.929 . S
H138 C170 0.930 . S
H139 C172 0.929 . S
H140 C173 0.931 . S
H141 C175 0.930 . S
H142 C176 0.932 . S
H143 C178 0.931 . S
H144 C179 0.929 . S
H145 C181 0.929 . S
H146 C182 0.931 . S
H147 C184 0.929 . S
N148 C168 1.433 . S
N148 C174 1.435 . S
N148 C180 1.423 . S
H149 C185 0.932 . S
C150 N125 1.433 . S
C150 C151 1.363 . S
C150 C155 1.370 . S
C151 H124 0.929 . S
C151 C150 1.363 . S
C151 C152 1.385 . S
C152 H126 0.930 . S
C152 C151 1.385 . S
C152 C153 1.357 . S
C153 C152 1.357 . S
C153 C154 1.406 . S
C154 H128 0.929 . S
C154 C153 1.406 . S
C154 C155 1.391 . S
C155 H127 0.931 . S
C155 C150 1.370 . S
C155 C154 1.391 . S
C156 N125 1.435 . S
C156 C157 1.358 . S
C156 C161 1.371 . S
C157 H129 0.930 . S
C157 C156 1.358 . S
C157 C158 1.405 . S
C158 H130 0.932 . S
C158 C157 1.405 . S
C158 C159 1.383 . S
C159 C158 1.383 . S
C159 C160 1.393 . S
C160 H132 0.931 . S
C160 C159 1.393 . S
C160 C161 1.382 . S
C161 H131 0.929 . S
C161 C156 1.371 . S
C161 C160 1.382 . S
C162 N125 1.423 . S
C162 C163 1.362 . S
C162 C167 1.388 . S
C163 H133 0.929 . S
C163 C162 1.362 . S
C163 C164 1.376 . S
C164 H135 0.931 . S
C164 C163 1.376 . S
C164 C165 1.396 . S
C165 C164 1.396 . S
C165 C166 1.348 . S
C165 C183 1.472 . S
C166 H136 0.929 . S
C166 C165 1.348 . S
C166 C167 1.443 . S
C167 H134 0.932 . S
C167 C162 1.388 . S
C167 C166 1.443 . S
C168 N148 1.433 . S
C168 C169 1.363 . S
C168 C173 1.370 . S
C169 H137 0.929 . S
C169 C168 1.363 . S
C169 C170 1.385 . S
C170 H138 0.930 . S
C170 C169 1.385 . S
C170 C171 1.357 . S
C171 C170 1.357 . S
C171 C172 1.406 . S
C172 H139 0.929 . S
C172 C171 1.406 . S
C172 C173 1.391 . S
C173 H140 0.931 . S
C173 C168 1.370 . S
C173 C172 1.391 . S
C174 N148 1.435 . S
C174 C175 1.358 . S
C174 C179 1.371 . S
C175 H141 0.930 . S
C175 C174 1.358 . S
C175 C176 1.405 . S
C176 H142 0.932 . S
C176 C175 1.405 . S
C176 C177 1.383 . S
C177 C176 1.383 . S
C177 C178 1.393 . S
C178 H143 0.931 . S
C178 C177 1.393 . S
C178 C179 1.382 . S
C179 H144 0.929 . S
C179 C174 1.371 . S
C179 C178 1.382 . S
C180 N148 1.423 . S
C180 C181 1.362 . S
C180 C185 1.388 . S
C181 H145 0.929 . S
C181 C180 1.362 . S
C181 C182 1.376 . S
C182 H146 0.931 . S
C182 C181 1.376 . S
C182 C183 1.396 . S
C183 C165 1.472 . S
C183 C182 1.396 . S
C183 C184 1.348 . S
C184 H147 0.929 . S
C184 C183 1.348 . S
C184 C185 1.443 . S
C185 H149 0.932 . S
C185 C180 1.388 . S
C185 C184 1.443 . S
H186 C213 0.929 . S
N187 C212 1.433 . S
N187 C218 1.435 . S
N187 C224 1.423 . S
H188 C214 0.930 . S
H189 C217 0.931 . S
H190 C216 0.929 . S
H191 C219 0.930 . S
H192 C220 0.932 . S
H193 C223 0.929 . S
H194 C222 0.931 . S
H195 C225 0.929 . S
H196 C229 0.932 . S
H197 C226 0.931 . S
H198 C228 0.929 . S
H199 C231 0.929 . S
H200 C232 0.930 . S
H201 C234 0.929 . S
H202 C235 0.931 . S
H203 C237 0.930 . S
H204 C238 0.932 . S
H205 C240 0.931 . S
H206 C241 0.929 . S
H207 C243 0.929 . S
H208 C244 0.931 1_565 S
H209 C246 0.929 . S
N210 C230 1.433 . S
N210 C236 1.435 . S
N210 C242 1.423 . S
H211 C247 0.932 . S
C212 N187 1.433 . S
C212 C213 1.363 . S
C212 C217 1.370 . S
C213 H186 0.929 . S
C213 C212 1.363 . S
C213 C214 1.385 . S
C214 H188 0.930 . S
C214 C213 1.385 . S
C214 C215 1.357 . S
C215 C214 1.357 . S
C215 C216 1.406 . S
C216 H190 0.929 . S
C216 C215 1.406 . S
C216 C217 1.391 . S
C217 H189 0.931 . S
C217 C212 1.370 . S
C217 C216 1.391 . S
C218 N187 1.435 . S
C218 C219 1.358 . S
C218 C223 1.371 . S
C219 H191 0.930 . S
C219 C218 1.358 . S
C219 C220 1.405 . S
C220 H192 0.932 . S
C220 C219 1.405 . S
C220 C221 1.383 . S
C221 C220 1.383 . S
C221 C222 1.393 . S
C222 H194 0.931 . S
C222 C221 1.393 . S
C222 C223 1.382 . S
C223 H193 0.929 . S
C223 C218 1.371 . S
C223 C222 1.382 . S
C224 N187 1.423 . S
C224 C225 1.362 . S
C224 C229 1.388 . S
C225 H195 0.929 . S
C225 C224 1.362 . S
C225 C226 1.376 . S
C226 H197 0.931 . S
C226 C225 1.376 . S
C226 C227 1.396 . S
C227 C226 1.396 . S
C227 C228 1.348 . S
C227 C245 1.470 . S
C228 H198 0.929 . S
C228 C227 1.348 . S
C228 C229 1.443 . S
C229 H196 0.932 . S
C229 C224 1.388 . S
C229 C228 1.443 . S
C230 N210 1.433 . S
C230 C231 1.363 . S
C230 C235 1.370 . S
C231 H199 0.929 . S
C231 C230 1.363 . S
C231 C232 1.385 . S
C232 H200 0.930 . S
C232 C231 1.385 . S
C232 C233 1.357 . S
C233 C232 1.357 . S
C233 C234 1.406 . S
C234 H201 0.929 . S
C234 C233 1.406 . S
C234 C235 1.391 . S
C235 H202 0.931 . S
C235 C230 1.370 . S
C235 C234 1.391 . S
C236 N210 1.435 . S
C236 C237 1.358 . S
C236 C241 1.371 . S
C237 H203 0.930 . S
C237 C236 1.358 . S
C237 C238 1.405 . S
C238 H204 0.932 . S
C238 C237 1.405 . S
C238 C239 1.383 . S
C239 C238 1.383 . S
C239 C240 1.393 . S
C240 H205 0.931 . S
C240 C239 1.393 . S
C240 C241 1.382 . S
C241 H206 0.929 . S
C241 C236 1.371 . S
C241 C240 1.382 . S
C242 N210 1.423 . S
C242 C243 1.362 . S
C242 C247 1.388 . S
C243 H207 0.929 . S
C243 C242 1.362 . S
C243 C244 1.376 . S
C244 H208 0.931 1_545 S
C244 C243 1.376 . S
C244 C245 1.396 1_545 S
C245 C227 1.470 . S
C245 C244 1.396 1_565 S
C245 C246 1.350 1_565 S
C246 H209 0.929 . S
C246 C245 1.350 1_545 S
C246 C247 1.443 . S
C247 H211 0.932 . S
C247 C242 1.388 . S
C247 C246 1.443 . S
H248 C275 0.929 . S
N249 C274 1.433 . S
N249 C280 1.435 . S
N249 C286 1.423 . S
H250 C276 0.930 . S
H251 C279 0.931 . S
H252 C278 0.929 . S
H253 C281 0.930 . S
H254 C282 0.932 . S
H255 C285 0.929 . S
H256 C284 0.931 . S
H257 C287 0.929 . S
H258 C291 0.932 . S
H259 C288 0.931 . S
H260 C290 0.929 . S
H261 C293 0.929 . S
H262 C294 0.930 . S
H263 C296 0.929 . S
H264 C297 0.931 . S
H265 C299 0.930 . S
H266 C300 0.932 . S
H267 C302 0.956 . S
H268 C303 0.929 . S
H269 C305 0.929 . S
H270 C306 0.921 1_455 S
H271 C308 0.929 . S
N272 C292 1.433 . S
N272 C298 1.435 . S
N272 C304 1.423 . S
H273 C309 0.932 . S
C274 N249 1.433 . S
C274 C275 1.363 . S
C274 C279 1.370 . S
C275 H248 0.929 . S
C275 C274 1.363 . S
C275 C276 1.385 . S
C276 H250 0.930 . S
C276 C275 1.385 . S
C276 C277 1.357 . S
C277 C276 1.357 . S
C277 C278 1.406 . S
C278 H252 0.929 . S
C278 C277 1.406 . S
C278 C279 1.391 . S
C279 H251 0.931 . S
C279 C274 1.370 . S
C279 C278 1.391 . S
C280 N249 1.435 . S
C280 C281 1.358 . S
C280 C285 1.371 . S
C281 H253 0.930 . S
C281 C280 1.358 . S
C281 C282 1.405 1_556 S
C282 H254 0.932 . S
C282 C281 1.405 1_554 S
C282 C283 1.383 . S
C283 C282 1.383 . S
C283 C284 1.393 . S
C284 H256 0.931 . S
C284 C283 1.393 . S
C284 C285 1.382 1_554 S
C285 H255 0.929 . S
C285 C280 1.371 . S
C285 C284 1.382 1_556 S
C286 N249 1.423 . S
C286 C287 1.362 . S
C286 C291 1.388 . S
C287 H257 0.929 . S
C287 C286 1.362 . S
C287 C288 1.376 . S
C288 H259 0.931 . S
C288 C287 1.376 . S
C288 C289 1.396 . S
C289 C288 1.396 . S
C289 C290 1.348 . S
C289 C307 1.472 . S
C290 H260 0.929 . S
C290 C289 1.348 . S
C290 C291 1.443 . S
C291 H258 0.932 . S
C291 C286 1.388 . S
C291 C290 1.443 . S
C292 N272 1.433 . S
C292 C293 1.363 . S
C292 C297 1.370 . S
C293 H261 0.929 . S
C293 C292 1.363 . S
C293 C294 1.385 . S
C294 H262 0.930 . S
C294 C293 1.385 . S
C294 C295 1.357 . S
C295 C294 1.357 . S
C295 C296 1.406 . S
C296 H263 0.929 . S
C296 C295 1.406 . S
C296 C297 1.391 . S
C297 H264 0.931 . S
C297 C292 1.370 . S
C297 C296 1.391 . S
C298 N272 1.435 . S
C298 C299 1.358 . S
C298 C303 1.371 . S
C299 H265 0.930 . S
C299 C298 1.358 . S
C299 C300 1.405 . S
C300 H266 0.932 . S
C300 C299 1.405 . S
C300 C301 1.383 . S
C301 C300 1.383 . S
C301 C302 1.393 . S
C302 H267 0.956 . S
C302 C301 1.393 . S
C302 C303 1.382 . S
C303 H268 0.929 . S
C303 C298 1.371 . S
C303 C302 1.382 . S
C304 N272 1.423 . S
C304 C305 1.362 . S
C304 C309 1.388 . S
C305 H269 0.929 . S
C305 C304 1.362 . S
C305 C306 1.387 . S
C306 H270 0.921 1_655 S
C306 C305 1.387 . S
C306 C307 1.395 1_655 S
C307 C289 1.472 . S
C307 C306 1.395 1_455 S
C307 C308 1.348 1_455 S
C308 H271 0.929 . S
C308 C307 1.348 1_655 S
C308 C309 1.443 . S
C309 H273 0.932 . S
C309 C304 1.388 . S
C309 C308 1.443 . S
H310 C337 0.929 . S
N311 C336 1.433 . S
N311 C342 1.435 . S
N311 C348 1.423 . S
H312 C338 0.930 . S
H313 C341 0.931 . S
H314 C340 0.929 . S
H315 C343 0.930 . S
H316 C344 0.932 . S
H317 C347 0.929 . S
H318 C346 0.931 . S
H319 C349 0.929 . S
H320 C353 0.932 . S
H321 C350 0.931 . S
H322 C352 0.929 . S
H323 C355 0.929 . S
H324 C356 0.930 . S
H325 C358 0.929 . S
H326 C359 0.931 . S
H327 C361 0.930 . S
H328 C362 0.932 . S
H329 C364 0.931 . S
H330 C365 0.929 . S
H331 C367 0.929 . S
H332 C368 0.931 . S
H333 C370 0.929 . S
N334 C354 1.433 . S
N334 C360 1.435 . S
N334 C366 1.423 . S
H335 C371 0.932 . S
C336 N311 1.433 . S
C336 C337 1.363 . S
C336 C341 1.370 . S
C337 H310 0.929 . S
C337 C336 1.363 . S
C337 C338 1.385 . S
C338 H312 0.930 . S
C338 C337 1.385 . S
C338 C339 1.357 . S
C339 C338 1.357 . S
C339 C340 1.406 . S
C340 H314 0.929 . S
C340 C339 1.406 . S
C340 C341 1.391 . S
C341 H313 0.931 . S
C341 C336 1.370 . S
C341 C340 1.391 . S
C342 N311 1.435 . S
C342 C343 1.358 . S
C342 C347 1.371 . S
C343 H315 0.930 . S
C343 C342 1.358 . S
C343 C344 1.405 . S
C344 H316 0.932 . S
C344 C343 1.405 . S
C344 C345 1.383 . S
C345 C344 1.383 . S
C345 C346 1.393 . S
C346 H318 0.931 . S
C346 C345 1.393 . S
C346 C347 1.382 . S
C347 H317 0.929 . S
C347 C342 1.371 . S
C347 C346 1.382 . S
C348 N311 1.423 . S
C348 C349 1.362 . S
C348 C353 1.388 . S
C349 H319 0.929 . S
C349 C348 1.362 . S
C349 C350 1.376 . S
C350 H321 0.931 . S
C350 C349 1.376 . S
C350 C351 1.396 . S
C351 C350 1.396 . S
C351 C352 1.348 . S
C351 C369 1.472 . S
C352 H322 0.929 . S
C352 C351 1.348 . S
C352 C353 1.443 . S
C353 H320 0.932 . S
C353 C348 1.388 . S
C353 C352 1.443 . S
C354 N334 1.433 . S
C354 C355 1.363 . S
C354 C359 1.370 . S
C355 H323 0.929 . S
C355 C354 1.363 . S
C355 C356 1.385 . S
C356 H324 0.930 . S
C356 C355 1.385 . S
C356 C357 1.357 . S
C357 C356 1.357 . S
C357 C358 1.406 . S
C358 H325 0.929 . S
C358 C357 1.406 . S
C358 C359 1.391 . S
C359 H326 0.931 . S
C359 C354 1.370 . S
C359 C358 1.391 . S
C360 N334 1.435 . S
C360 C361 1.358 . S
C360 C365 1.371 . S
C361 H327 0.930 . S
C361 C360 1.358 . S
C361 C362 1.405 . S
C362 H328 0.932 . S
C362 C361 1.405 . S
C362 C363 1.383 . S
C363 C362 1.383 . S
C363 C364 1.393 . S
C364 H329 0.931 . S
C364 C363 1.393 . S
C364 C365 1.382 . S
C365 H330 0.929 . S
C365 C360 1.371 . S
C365 C364 1.382 . S
C366 N334 1.423 . S
C366 C367 1.362 . S
C366 C371 1.388 . S
C367 H331 0.929 . S
C367 C366 1.362 . S
C367 C368 1.376 . S
C368 H332 0.931 . S
C368 C367 1.376 . S
C368 C369 1.396 . S
C369 C351 1.472 . S
C369 C368 1.396 . S
C369 C370 1.348 . S
C370 H333 0.929 . S
C370 C369 1.348 . S
C370 C371 1.443 . S
C371 H335 0.932 . S
C371 C366 1.388 . S
C371 C370 1.443 . S
H372 C399 0.929 . S
N373 C398 1.433 . S
N373 C404 1.435 . S
N373 C410 1.423 . S
H374 C400 0.930 . S
H375 C403 0.931 . S
H376 C402 0.929 . S
H377 C405 0.930 . S
H378 C406 0.932 . S
H379 C409 0.929 1_545 S
H380 C408 0.931 . S
H381 C411 0.929 . S
H382 C415 0.932 . S
H383 C412 0.931 . S
H384 C414 0.929 . S
H385 C417 0.929 . S
H386 C418 0.930 . S
H387 C420 0.929 . S
H388 C421 0.931 . S
H389 C423 0.930 . S
H390 C424 0.932 . S
H391 C426 0.931 . S
H392 C427 0.929 . S
H393 C429 0.929 . S
H394 C430 0.931 . S
H395 C432 0.929 . S
N396 C416 1.433 . S
N396 C422 1.435 . S
N396 C428 1.423 . S
H397 C433 0.932 . S
C398 N373 1.433 . S
C398 C399 1.363 . S
C398 C403 1.370 . S
C399 H372 0.929 . S
C399 C398 1.363 . S
C399 C400 1.385 . S
C400 H374 0.930 . S
C400 C399 1.385 . S
C400 C401 1.357 . S
C401 C400 1.357 . S
C401 C402 1.406 . S
C402 H376 0.929 . S
C402 C401 1.406 . S
C402 C403 1.391 . S
C403 H375 0.931 . S
C403 C398 1.370 . S
C403 C402 1.391 . S
C404 N373 1.435 . S
C404 C405 1.358 . S
C404 C409 1.371 . S
C405 H377 0.930 . S
C405 C404 1.358 . S
C405 C406 1.405 . S
C406 H378 0.932 . S
C406 C405 1.405 . S
C406 C407 1.383 . S
C407 C406 1.383 . S
C407 C408 1.393 . S
C408 H380 0.931 . S
C408 C407 1.393 . S
C408 C409 1.382 . S
C409 H379 0.929 1_565 S
C409 C404 1.371 . S
C409 C408 1.382 . S
C410 N373 1.423 . S
C410 C411 1.362 1_565 S
C410 C415 1.388 . S
C411 H381 0.929 . S
C411 C410 1.362 1_545 S
C411 C412 1.376 . S
C412 H383 0.931 . S
C412 C411 1.376 . S
C412 C413 1.396 . S
C413 C412 1.396 . S
C413 C414 1.348 . S
C413 C431 1.472 . S
C414 H384 0.929 . S
C414 C413 1.348 . S
C414 C415 1.443 1_545 S
C415 H382 0.932 . S
C415 C410 1.388 . S
C415 C414 1.443 1_565 S
C416 N396 1.433 . S
C416 C417 1.363 . S
C416 C421 1.370 . S
C417 H385 0.929 . S
C417 C416 1.363 . S
C417 C418 1.385 . S
C418 H386 0.930 . S
C418 C417 1.385 . S
C418 C419 1.357 . S
C419 C418 1.357 . S
C419 C420 1.406 . S
C420 H387 0.929 . S
C420 C419 1.406 . S
C420 C421 1.391 . S
C421 H388 0.931 . S
C421 C416 1.370 . S
C421 C420 1.391 . S
C422 N396 1.435 . S
C422 C423 1.358 . S
C422 C427 1.371 . S
C423 H389 0.930 . S
C423 C422 1.358 . S
C423 C424 1.405 . S
C424 H390 0.932 . S
C424 C423 1.405 . S
C424 C425 1.383 . S
C425 C424 1.383 . S
C425 C426 1.393 . S
C426 H391 0.931 . S
C426 C425 1.393 . S
C426 C427 1.382 . S
C427 H392 0.929 . S
C427 C422 1.371 . S
C427 C426 1.382 . S
C428 N396 1.423 . S
C428 C429 1.362 . S
C428 C433 1.388 . S
C429 H393 0.929 . S
C429 C428 1.362 . S
C429 C430 1.376 . S
C430 H394 0.931 . S
C430 C429 1.376 . S
C430 C431 1.396 . S
C431 C413 1.472 . S
C431 C430 1.396 . S
C431 C432 1.348 . S
C432 H395 0.929 . S
C432 C431 1.348 . S
C432 C433 1.443 . S
C433 H397 0.932 . S
C433 C428 1.388 . S
C433 C432 1.443 . S
H434 C461 0.929 . S
N435 C460 1.433 . S
N435 C466 1.435 . S
N435 C472 1.423 . S
H436 C462 0.930 1_565 S
H437 C465 0.931 . S
H438 C464 0.929 . S
H439 C467 0.930 . S
H440 C468 0.932 . S
H441 C471 0.929 . S
H442 C470 0.931 . S
H443 C473 0.929 . S
H444 C477 0.932 . S
H445 C474 0.931 . S
H446 C476 0.929 . S
H447 C479 0.929 . S
H448 C480 0.930 . S
H449 C482 0.929 . S
H450 C483 0.931 . S
H451 C485 0.956 . S
H452 C486 0.932 . S
H453 C488 0.931 . S
H454 C489 0.929 . S
H455 C491 0.929 . S
H456 C492 0.931 . S
H457 C494 0.929 . S
N458 C478 1.433 . S
N458 C484 1.435 1_455 S
N458 C490 1.423 . S
H459 C495 0.932 . S
C460 N435 1.433 . S
C460 C461 1.363 . S
C460 C465 1.370 . S
C461 H434 0.929 . S
C461 C460 1.363 . S
C461 C462 1.385 . S
C462 H436 0.930 1_545 S
C462 C461 1.385 . S
C462 C463 1.357 . S
C463 C462 1.357 . S
C463 C464 1.406 . S
C464 H438 0.929 . S
C464 C463 1.406 . S
C464 C465 1.391 . S
C465 H437 0.931 . S
C465 C460 1.370 . S
C465 C464 1.391 . S
C466 N435 1.435 . S
C466 C467 1.358 . S
C466 C471 1.371 . S
C467 H439 0.930 . S
C467 C466 1.358 . S
C467 C468 1.405 . S
C468 H440 0.932 . S
C468 C467 1.405 . S
C468 C469 1.383 . S
C469 C468 1.383 . S
C469 C470 1.393 . S
C470 H442 0.931 . S
C470 C469 1.393 . S
C470 C471 1.382 . S
C471 H441 0.929 . S
C471 C466 1.371 . S
C471 C470 1.382 . S
C472 N435 1.423 . S
C472 C473 1.362 . S
C472 C477 1.388 . S
C473 H443 0.929 . S
C473 C472 1.362 . S
C473 C474 1.376 . S
C474 H445 0.931 . S
C474 C473 1.376 . S
C474 C475 1.396 . S
C475 C474 1.396 . S
C475 C476 1.348 . S
C475 C493 1.472 . S
C476 H446 0.929 . S
C476 C475 1.348 . S
C476 C477 1.443 . S
C477 H444 0.932 . S
C477 C472 1.388 . S
C477 C476 1.443 . S
C478 N458 1.433 . S
C478 C479 1.363 1_455 S
C478 C483 1.370 . S
C479 H447 0.929 . S
C479 C478 1.363 1_655 S
C479 C480 1.385 . S
C480 H448 0.930 . S
C480 C479 1.385 . S
C480 C481 1.357 1_655 S
C481 C480 1.357 1_455 S
C481 C482 1.406 . S
C482 H449 0.929 . S
C482 C481 1.406 . S
C482 C483 1.391 . S
C483 H450 0.931 . S
C483 C478 1.370 . S
C483 C482 1.391 . S
C484 N458 1.435 1_655 S
C484 C485 1.352 1_655 S
C484 C489 1.371 . S
C485 H451 0.956 . S
C485 C484 1.352 1_455 S
C485 C486 1.386 1_455 S
C486 H452 0.932 . S
C486 C485 1.386 1_655 S
C486 C487 1.383 . S
C487 C486 1.383 . S
C487 C488 1.393 . S
C488 H453 0.931 . S
C488 C487 1.393 . S
C488 C489 1.382 . S
C489 H454 0.929 . S
C489 C484 1.371 . S
C489 C488 1.382 . S
C490 N458 1.423 . S
C490 C491 1.362 . S
C490 C495 1.388 . S
C491 H455 0.929 . S
C491 C490 1.362 . S
C491 C492 1.376 . S
C492 H456 0.931 . S
C492 C491 1.376 . S
C492 C493 1.396 . S
C493 C475 1.472 . S
C493 C492 1.396 . S
C493 C494 1.348 . S
C494 H457 0.929 . S
C494 C493 1.348 . S
C494 C495 1.443 . S
C495 H459 0.932 . S
C495 C490 1.388 . S
C495 C494 1.443 . S
O496 Cd497 2.223 . S
O496 C504 1.315 . S
Cd497 O496 2.223 . S
Cd497 O500 2.297 . S
Cd497 O501 2.439 . S
Cd497 O507 2.240 . S
Cd498 O499 2.240 . S
Cd498 O506 2.223 . S
Cd498 O508 2.297 . S
Cd498 O509 2.439 . S
O499 Cd498 2.240 . S
O499 C504 1.279 . S
O500 Cd497 2.297 . S
O500 C502 1.247 . S
O501 Cd497 2.439 . S
O501 C502 1.208 . S
C502 O500 1.247 . S
C502 O501 1.208 . S
C503 O508 1.247 . S
C503 O509 1.208 . S
C504 O496 1.315 . S
C504 O499 1.279 . S
C505 O506 1.315 . S
C505 O507 1.279 . S
O506 Cd498 2.223 . S
O506 C505 1.315 . S
O507 Cd497 2.240 . S
O507 C505 1.279 . S
O508 Cd498 2.297 . S
O508 C503 1.247 . S
O509 Cd498 2.439 . S
O509 C503 1.208 . S
O510 Cd511 2.223 . S
O510 C518 1.315 . S
Cd511 O510 2.223 . S
Cd511 O514 2.297 . S
Cd511 O515 2.439 . S
Cd511 O521 2.240 . S
Cd512 O513 2.240 . S
Cd512 O520 2.223 . S
Cd512 O522 2.297 . S
Cd512 O523 2.439 . S
O513 Cd512 2.240 . S
O513 C518 1.279 . S
O514 Cd511 2.297 . S
O514 C516 1.247 . S
O515 Cd511 2.439 . S
O515 C516 1.208 . S
C516 O514 1.247 . S
C516 O515 1.208 . S
C517 O522 1.247 . S
C517 O523 1.208 . S
C518 O510 1.315 . S
C518 O513 1.279 . S
C519 O520 1.315 . S
C519 O521 1.279 . S
O520 Cd512 2.223 . S
O520 C519 1.315 . S
O521 Cd511 2.240 . S
O521 C519 1.279 . S
O522 Cd512 2.297 . S
O522 C517 1.247 . S
O523 Cd512 2.439 . S
O523 C517 1.208 . S
O524 Cd525 2.223 . S
O524 C532 1.315 . S
Cd525 O524 2.223 . S
Cd525 O528 2.297 . S
Cd525 O529 2.439 . S
Cd525 O535 2.240 . S
Cd526 O527 2.240 . S
Cd526 O534 2.223 . S
Cd526 O536 2.297 . S
Cd526 O537 2.439 . S
O527 Cd526 2.240 . S
O527 C532 1.279 . S
O528 Cd525 2.297 . S
O528 C530 1.247 . S
O529 Cd525 2.439 . S
O529 C530 1.208 . S
C530 O528 1.247 . S
C530 O529 1.208 . S
C531 O536 1.247 . S
C531 O537 1.208 . S
C532 O524 1.315 . S
C532 O527 1.279 . S
C533 O534 1.315 . S
C533 O535 1.279 . S
O534 Cd526 2.223 . S
O534 C533 1.315 . S
O535 Cd525 2.240 . S
O535 C533 1.279 . S
O536 Cd526 2.297 . S
O536 C531 1.247 . S
O537 Cd526 2.439 . S
O537 C531 1.208 . S
O538 Cd539 2.223 . S
O538 C546 1.315 . S
Cd539 O538 2.223 . S
Cd539 O542 2.297 . S
Cd539 O543 2.439 . S
Cd539 O549 2.240 . S
Cd540 O541 2.240 . S
Cd540 O548 2.223 . S
Cd540 O550 2.297 . S
Cd540 O551 2.439 . S
O541 Cd540 2.240 . S
O541 C546 1.279 . S
O542 Cd539 2.297 . S
O542 C544 1.247 . S
O543 Cd539 2.439 . S
O543 C544 1.208 . S
C544 O542 1.247 . S
C544 O543 1.208 . S
C545 O550 1.247 . S
C545 O551 1.208 . S
C546 O538 1.315 . S
C546 O541 1.279 . S
C547 O548 1.315 . S
C547 O549 1.279 . S
O548 Cd540 2.223 . S
O548 C547 1.315 . S
O549 Cd539 2.240 . S
O549 C547 1.279 . S
O550 Cd540 2.297 . S
O550 C545 1.247 . S
O551 Cd540 2.439 . S
O551 C545 1.208 . S
O552 Cd553 2.223 . S
O552 C560 1.315 . S
Cd553 O552 2.223 . S
Cd553 O556 2.297 . S
Cd553 O557 2.439 . S
Cd553 O563 2.240 . S
Cd554 O555 2.240 . S
Cd554 O562 2.223 . S
Cd554 O564 2.297 . S
Cd554 O565 2.439 . S
O555 Cd554 2.240 . S
O555 C560 1.279 . S
O556 Cd553 2.297 . S
O556 C558 1.247 . S
O557 Cd553 2.439 . S
O557 C558 1.208 . S
C558 O556 1.247 . S
C558 O557 1.208 . S
C559 O564 1.247 . S
C559 O565 1.208 . S
C560 O552 1.315 . S
C560 O555 1.279 . S
C561 O562 1.315 . S
C561 O563 1.279 . S
O562 Cd554 2.223 . S
O562 C561 1.315 . S
O563 Cd553 2.240 . S
O563 C561 1.279 . S
O564 Cd554 2.297 . S
O564 C559 1.247 . S
O565 Cd554 2.439 . S
O565 C559 1.208 . S
O566 Cd567 2.223 . S
O566 C574 1.315 . S
Cd567 O566 2.223 . S
Cd567 O570 2.297 . S
Cd567 O571 2.439 . S
Cd567 O577 2.240 . S
Cd568 O569 2.240 . S
Cd568 O576 2.223 . S
Cd568 O578 2.297 . S
Cd568 O579 2.439 . S
O569 Cd568 2.240 . S
O569 C574 1.279 . S
O570 Cd567 2.297 . S
O570 C572 1.247 . S
O571 Cd567 2.439 . S
O571 C572 1.208 . S
C572 O570 1.247 . S
C572 O571 1.208 . S
C573 O578 1.247 . S
C573 O579 1.208 . S
C574 O566 1.315 . S
C574 O569 1.279 . S
C575 O576 1.315 . S
C575 O577 1.279 . S
O576 Cd568 2.223 . S
O576 C575 1.315 . S
O577 Cd567 2.240 . S
O577 C575 1.279 . S
O578 Cd568 2.297 . S
O578 C573 1.247 . S
O579 Cd568 2.439 . S
O579 C573 1.208 . S
O580 Cd581 2.223 . S
O580 C588 1.315 . S
Cd581 O580 2.223 . S
Cd581 O584 2.297 . S
Cd581 O585 2.448 . S
Cd581 O591 2.240 1_554 S
Cd582 O583 2.240 1_556 S
Cd582 O590 2.225 . S
Cd582 O592 2.297 . S
Cd582 O593 2.439 . S
O583 Cd582 2.240 1_554 S
O583 C588 1.279 . S
O584 Cd581 2.297 . S
O584 C586 1.247 . S
O585 Cd581 2.448 . S
O585 C586 1.242 . S
C586 O584 1.247 . S
C586 O585 1.242 . S
C587 O592 1.247 . S
C587 O593 1.208 . S
C588 O580 1.315 . S
C588 O583 1.279 . S
C589 O590 1.322 . S
C589 O591 1.279 . S
O590 Cd582 2.225 . S
O590 C589 1.322 . S
O591 Cd581 2.240 1_556 S
O591 C589 1.279 . S
O592 Cd582 2.297 . S
O592 C587 1.247 . S
O593 Cd582 2.439 . S
O593 C587 1.208 . S
O594 Cd595 2.223 . S
O594 C602 1.315 . S
Cd595 O594 2.223 . S
Cd595 O598 2.297 . S
Cd595 O599 2.439 . S
Cd595 O605 2.240 . S
Cd596 O597 2.240 . S
Cd596 O604 2.223 . S
Cd596 O606 2.297 . S
Cd596 O607 2.439 . S
O597 Cd596 2.240 . S
O597 C602 1.279 . S
O598 Cd595 2.297 . S
O598 C600 1.247 . S
O599 Cd595 2.439 . S
O599 C600 1.208 . S
C600 O598 1.247 . S
C600 O599 1.208 . S
C601 O606 1.247 . S
C601 O607 1.208 . S
C602 O594 1.315 . S
C602 O597 1.279 . S
C603 O604 1.315 . S
C603 O605 1.279 . S
O604 Cd596 2.223 . S
O604 C603 1.315 . S
O605 Cd595 2.240 . S
O605 C603 1.279 . S
O606 Cd596 2.297 . S
O606 C601 1.247 . S
O607 Cd596 2.439 . S
O607 C601 1.208 . S
C608 C609 1.391 . S
C608 C610 1.394 . S
C608 H624 0.931 . S
C609 C608 1.391 . S
C609 C613 1.376 . S
C610 C608 1.394 . S
C610 C611 1.369 . S
C610 C614 1.531 . S
C611 C610 1.369 . S
C611 C612 1.410 . S
C611 C619 1.503 . S
C612 C611 1.410 . S
C612 C613 1.392 . S
C612 C615 1.511 . S
C613 C609 1.376 . S
C613 C612 1.392 . S
C613 H625 0.929 . S
C614 C610 1.531 . S
C614 H626 0.960 . S
C614 H627 0.962 . S
C614 H628 0.960 . S
C615 C612 1.511 . S
C615 H629 0.961 . S
C615 H630 0.961 . S
C615 H631 0.961 . S
C616 C617 1.370 . S
C616 C618 1.363 . S
C616 H632 0.931 . S
C617 C616 1.370 . S
C617 C621 1.408 . S
C618 C616 1.363 . S
C618 C619 1.370 . S
C618 C622 1.524 . S
C619 C611 1.503 . S
C619 C618 1.370 . S
C619 C620 1.403 . S
C620 C619 1.403 . S
C620 C621 1.404 . S
C620 C623 1.539 . S
C621 C617 1.408 . S
C621 C620 1.404 . S
C621 H633 0.930 . S
C622 C618 1.524 . S
C622 H634 0.956 . S
C622 H635 0.961 . S
C622 H636 0.961 . S
C623 C620 1.539 . S
C623 H637 0.958 . S
C623 H638 0.961 . S
C623 H639 0.960 . S
H624 C608 0.931 . S
H625 C613 0.929 . S
H626 C614 0.960 . S
H627 C614 0.962 . S
H628 C614 0.960 . S
H629 C615 0.961 . S
H630 C615 0.961 . S
H631 C615 0.961 . S
H632 C616 0.931 . S
H633 C621 0.930 . S
H634 C622 0.956 . S
H635 C622 0.961 . S
H636 C622 0.961 . S
H637 C623 0.958 . S
H638 C623 0.961 . S
H639 C623 0.960 . S
C640 C641 1.391 . S
C640 C642 1.394 . S
C640 H656 0.931 . S
C641 C640 1.391 . S
C641 C645 1.376 . S
C642 C640 1.394 . S
C642 C643 1.369 . S
C642 C646 1.531 . S
C643 C642 1.369 . S
C643 C644 1.410 . S
C643 C651 1.503 . S
C644 C643 1.410 . S
C644 C645 1.392 . S
C644 C647 1.511 . S
C645 C641 1.376 . S
C645 C644 1.392 . S
C645 H657 0.929 . S
C646 C642 1.531 . S
C646 H658 0.960 . S
C646 H659 0.962 . S
C646 H660 0.960 . S
C647 C644 1.511 . S
C647 H661 0.961 . S
C647 H662 0.961 . S
C647 H663 0.961 . S
C648 C649 1.370 . S
C648 C650 1.363 . S
C648 H664 0.931 . S
C649 C648 1.370 . S
C649 C653 1.408 . S
C650 C648 1.363 . S
C650 C651 1.370 . S
C650 C654 1.524 . S
C651 C643 1.503 . S
C651 C650 1.370 . S
C651 C652 1.403 . S
C652 C651 1.403 . S
C652 C653 1.404 . S
C652 C655 1.539 . S
C653 C649 1.408 . S
C653 C652 1.404 . S
C653 H665 0.930 . S
C654 C650 1.524 . S
C654 H666 0.956 . S
C654 H667 0.961 . S
C654 H668 0.961 . S
C655 C652 1.539 . S
C655 H669 0.958 . S
C655 H670 0.961 . S
C655 H671 0.960 . S
H656 C640 0.931 . S
H657 C645 0.929 . S
H658 C646 0.960 . S
H659 C646 0.962 . S
H660 C646 0.960 . S
H661 C647 0.961 . S
H662 C647 0.961 . S
H663 C647 0.961 . S
H664 C648 0.931 . S
H665 C653 0.930 . S
H666 C654 0.956 . S
H667 C654 0.961 . S
H668 C654 0.961 . S
H669 C655 0.958 . S
H670 C655 0.961 . S
H671 C655 0.960 . S
C672 C673 1.391 . S
C672 C674 1.394 . S
C672 H688 0.931 . S
C673 C672 1.391 . S
C673 C677 1.376 . S
C674 C672 1.394 . S
C674 C675 1.369 . S
C674 C678 1.531 . S
C675 C674 1.369 . S
C675 C676 1.410 . S
C675 C683 1.503 . S
C676 C675 1.410 . S
C676 C677 1.392 . S
C676 C679 1.511 . S
C677 C673 1.376 . S
C677 C676 1.392 . S
C677 H689 0.929 . S
C678 C674 1.531 . S
C678 H690 0.960 . S
C678 H691 0.962 . S
C678 H692 0.960 . S
C679 C676 1.511 . S
C679 H693 0.961 . S
C679 H694 0.961 . S
C679 H695 0.961 . S
C680 C681 1.370 . S
C680 C682 1.363 . S
C680 H696 0.931 . S
C681 C680 1.370 . S
C681 C685 1.408 . S
C682 C680 1.363 . S
C682 C683 1.370 . S
C682 C686 1.524 . S
C683 C675 1.503 . S
C683 C682 1.370 . S
C683 C684 1.403 . S
C684 C683 1.403 . S
C684 C685 1.404 . S
C684 C687 1.539 . S
C685 C681 1.408 . S
C685 C684 1.404 . S
C685 H697 0.930 . S
C686 C682 1.524 . S
C686 H698 0.956 . S
C686 H699 0.961 . S
C686 H700 0.961 . S
C687 C684 1.539 . S
C687 H701 0.958 . S
C687 H702 0.961 . S
C687 H703 0.960 . S
H688 C672 0.931 . S
H689 C677 0.929 . S
H690 C678 0.960 . S
H691 C678 0.962 . S
H692 C678 0.960 . S
H693 C679 0.961 . S
H694 C679 0.961 . S
H695 C679 0.961 . S
H696 C680 0.931 . S
H697 C685 0.930 . S
H698 C686 0.956 . S
H699 C686 0.961 . S
H700 C686 0.961 . S
H701 C687 0.958 . S
H702 C687 0.961 . S
H703 C687 0.960 . S
C704 C705 1.391 . S
C704 C706 1.394 . S
C704 H720 0.931 . S
C705 C704 1.391 . S
C705 C709 1.376 . S
C706 C704 1.394 . S
C706 C707 1.369 . S
C706 C710 1.531 . S
C707 C706 1.369 . S
C707 C708 1.410 . S
C707 C715 1.503 . S
C708 C707 1.410 . S
C708 C709 1.392 . S
C708 C711 1.511 . S
C709 C705 1.376 . S
C709 C708 1.392 . S
C709 H721 0.929 . S
C710 C706 1.531 . S
C710 H722 0.960 . S
C710 H723 0.962 . S
C710 H724 0.960 . S
C711 C708 1.511 . S
C711 H725 0.961 . S
C711 H726 0.961 . S
C711 H727 0.961 . S
C712 C713 1.370 . S
C712 C714 1.363 . S
C712 H728 0.931 . S
C713 C712 1.370 . S
C713 C717 1.408 . S
C714 C712 1.363 . S
C714 C715 1.370 . S
C714 C718 1.524 . S
C715 C707 1.503 . S
C715 C714 1.370 . S
C715 C716 1.403 . S
C716 C715 1.403 . S
C716 C717 1.404 . S
C716 C719 1.539 . S
C717 C713 1.408 . S
C717 C716 1.404 . S
C717 H729 0.930 . S
C718 C714 1.524 . S
C718 H730 0.956 . S
C718 H731 0.961 . S
C718 H732 0.961 . S
C719 C716 1.539 . S
C719 H733 0.958 . S
C719 H734 0.961 . S
C719 H735 0.960 . S
H720 C704 0.931 . S
H721 C709 0.929 . S
H722 C710 0.960 . S
H723 C710 0.962 . S
H724 C710 0.960 . S
H725 C711 0.961 . S
H726 C711 0.961 . S
H727 C711 0.961 . S
H728 C712 0.931 . S
H729 C717 0.930 . S
H730 C718 0.956 . S
H731 C718 0.961 . S
H732 C718 0.961 . S
H733 C719 0.958 . S
H734 C719 0.961 . S
H735 C719 0.960 . S
C736 C737 1.391 . S
C736 C738 1.394 . S
C736 H752 0.931 . S
C737 C736 1.391 . S
C737 C741 1.376 . S
C738 C736 1.394 . S
C738 C739 1.369 . S
C738 C742 1.531 . S
C739 C738 1.369 . S
C739 C740 1.410 . S
C739 C747 1.503 . S
C740 C739 1.410 . S
C740 C741 1.392 . S
C740 C743 1.511 . S
C741 C737 1.376 . S
C741 C740 1.392 . S
C741 H753 0.929 . S
C742 C738 1.531 . S
C742 H754 0.960 . S
C742 H755 0.962 . S
C742 H756 0.960 . S
C743 C740 1.511 . S
C743 H757 0.961 . S
C743 H758 0.961 . S
C743 H759 0.961 . S
C744 C745 1.370 . S
C744 C746 1.363 . S
C744 H760 0.931 . S
C745 C744 1.370 . S
C745 C749 1.408 . S
C746 C744 1.363 . S
C746 C747 1.370 . S
C746 C750 1.524 . S
C747 C739 1.503 . S
C747 C746 1.370 . S
C747 C748 1.403 . S
C748 C747 1.403 . S
C748 C749 1.404 . S
C748 C751 1.539 1_554 S
C749 C745 1.408 . S
C749 C748 1.404 . S
C749 H761 0.930 . S
C750 C746 1.524 . S
C750 H762 0.956 . S
C750 H763 0.961 . S
C750 H764 0.961 . S
C751 C748 1.539 1_556 S
C751 H765 0.958 . S
C751 H766 0.961 . S
C751 H767 0.960 . S
H752 C736 0.931 . S
H753 C741 0.929 . S
H754 C742 0.960 . S
H755 C742 0.962 . S
H756 C742 0.960 . S
H757 C743 0.961 . S
H758 C743 0.961 . S
H759 C743 0.961 . S
H760 C744 0.931 . S
H761 C749 0.930 . S
H762 C750 0.956 . S
H763 C750 0.961 . S
H764 C750 0.961 . S
H765 C751 0.958 . S
H766 C751 0.961 . S
H767 C751 0.960 . S
C768 C769 1.391 . S
C768 C770 1.394 . S
C768 H784 0.931 . S
C769 C768 1.391 . S
C769 C773 1.376 . S
C770 C768 1.394 . S
C770 C771 1.369 . S
C770 C774 1.531 . S
C771 C770 1.369 . S
C771 C772 1.410 . S
C771 C779 1.503 . S
C772 C771 1.410 . S
C772 C773 1.392 . S
C772 C775 1.511 . S
C773 C769 1.376 . S
C773 C772 1.392 . S
C773 H785 0.929 . S
C774 C770 1.531 . S
C774 H786 0.960 . S
C774 H787 0.962 . S
C774 H788 0.960 . S
C775 C772 1.511 . S
C775 H789 0.961 . S
C775 H790 0.961 . S
C775 H791 0.961 . S
C776 C777 1.370 . S
C776 C778 1.363 . S
C776 H792 0.931 . S
C777 C776 1.370 . S
C777 C781 1.408 . S
C778 C776 1.363 . S
C778 C779 1.370 . S
C778 C782 1.524 . S
C779 C771 1.503 . S
C779 C778 1.370 . S
C779 C780 1.403 . S
C780 C779 1.403 . S
C780 C781 1.404 . S
C780 C783 1.539 . S
C781 C777 1.408 . S
C781 C780 1.404 . S
C781 H793 0.930 . S
C782 C778 1.524 . S
C782 H794 0.956 . S
C782 H795 0.961 . S
C782 H796 0.961 . S
C783 C780 1.539 . S
C783 H797 0.958 . S
C783 H798 0.961 . S
C783 H799 0.960 . S
H784 C768 0.931 . S
H785 C773 0.929 . S
H786 C774 0.960 . S
H787 C774 0.962 . S
H788 C774 0.960 . S
H789 C775 0.961 . S
H790 C775 0.961 . S
H791 C775 0.961 . S
H792 C776 0.931 . S
H793 C781 0.930 . S
H794 C782 0.956 . S
H795 C782 0.961 . S
H796 C782 0.961 . S
H797 C783 0.958 . S
H798 C783 0.961 . S
H799 C783 0.960 . S
C800 C801 1.391 . S
C800 C802 1.394 . S
C800 H816 0.931 . S
C801 C800 1.391 . S
C801 C805 1.376 . S
C802 C800 1.394 . S
C802 C803 1.369 . S
C802 C806 1.531 . S
C803 C802 1.369 . S
C803 C804 1.410 . S
C803 C811 1.503 . S
C804 C803 1.410 . S
C804 C805 1.392 . S
C804 C807 1.511 . S
C805 C801 1.376 . S
C805 C804 1.392 . S
C805 H817 0.929 . S
C806 C802 1.531 . S
C806 H818 0.960 . S
C806 H819 0.962 . S
C806 H820 0.960 . S
C807 C804 1.511 . S
C807 H821 0.961 . S
C807 H822 0.961 . S
C807 H823 0.961 . S
C808 C809 1.370 . S
C808 C810 1.363 . S
C808 H824 0.931 . S
C809 C808 1.370 . S
C809 C813 1.408 . S
C810 C808 1.363 . S
C810 C811 1.370 . S
C810 C814 1.524 . S
C811 C803 1.503 . S
C811 C810 1.370 . S
C811 C812 1.403 . S
C812 C811 1.403 . S
C812 C813 1.404 . S
C812 C815 1.539 . S
C813 C809 1.408 . S
C813 C812 1.404 . S
C813 H825 0.930 . S
C814 C810 1.524 . S
C814 H826 0.956 . S
C814 H827 0.961 . S
C814 H828 0.961 . S
C815 C812 1.539 . S
C815 H829 0.958 . S
C815 H830 0.961 . S
C815 H831 0.960 . S
H816 C800 0.931 . S
H817 C805 0.929 . S
H818 C806 0.960 . S
H819 C806 0.962 . S
H820 C806 0.960 . S
H821 C807 0.961 . S
H822 C807 0.961 . S
H823 C807 0.961 . S
H824 C808 0.931 . S
H825 C813 0.930 . S
H826 C814 0.956 . S
H827 C814 0.961 . S
H828 C814 0.961 . S
H829 C815 0.958 . S
H830 C815 0.961 . S
H831 C815 0.960 . S
C832 C833 1.406 . S
C832 C834 1.394 . S
C832 H848 0.931 . S
C833 C832 1.406 . S
C833 C837 1.392 . S
C834 C832 1.394 . S
C834 C835 1.369 . S
C834 C838 1.531 . S
C835 C834 1.369 . S
C835 C836 1.410 . S
C835 C843 1.503 . S
C836 C835 1.410 . S
C836 C837 1.392 . S
C836 C839 1.511 . S
C837 C833 1.392 . S
C837 C836 1.392 . S
C837 H849 0.929 . S
C838 C834 1.531 . S
C838 H850 0.960 . S
C838 H851 0.962 . S
C838 H852 0.960 . S
C839 C836 1.511 . S
C839 H853 0.961 . S
C839 H854 0.961 . S
C839 H855 0.961 . S
C840 C841 1.370 . S
C840 C842 1.363 . S
C840 H856 0.931 . S
C841 C840 1.370 . S
C841 C845 1.408 . S
C842 C840 1.363 . S
C842 C843 1.370 . S
C842 C846 1.524 . S
C843 C835 1.503 . S
C843 C842 1.370 . S
C843 C844 1.403 . S
C844 C843 1.403 . S
C844 C845 1.404 . S
C844 C847 1.539 . S
C845 C841 1.408 . S
C845 C844 1.404 . S
C845 H857 0.930 . S
C846 C842 1.524 . S
C846 H858 0.956 . S
C846 H859 0.961 . S
C846 H860 0.961 . S
C847 C844 1.539 . S
C847 H861 0.958 . S
C847 H862 0.961 . S
C847 H863 0.960 . S
H848 C832 0.931 . S
H849 C837 0.929 . S
H850 C838 0.960 . S
H851 C838 0.962 . S
H852 C838 0.960 . S
H853 C839 0.961 . S
H854 C839 0.961 . S
H855 C839 0.961 . S
H856 C840 0.931 . S
H857 C845 0.930 . S
H858 C846 0.956 . S
H859 C846 0.961 . S
H860 C846 0.961 . S
H861 C847 0.958 . S
H862 C847 0.961 . S
H863 C847 0.960 . S
C864 C865 1.391 . S
C864 C866 1.394 . S
C864 H880 0.931 . S
C865 C864 1.391 . S
C865 C869 1.376 . S
C866 C864 1.394 . S
C866 C867 1.369 . S
C866 C870 1.531 . S
C867 C866 1.369 . S
C867 C868 1.410 . S
C867 C875 1.503 . S
C868 C867 1.410 . S
C868 C869 1.392 . S
C868 C871 1.511 . S
C869 C865 1.376 . S
C869 C868 1.392 . S
C869 H881 0.929 . S
C870 C866 1.531 . S
C870 H882 0.960 . S
C870 H883 0.962 . S
C870 H884 0.960 . S
C871 C868 1.511 . S
C871 H885 0.961 . S
C871 H886 0.961 . S
C871 H887 0.961 . S
C872 C873 1.370 . S
C872 C874 1.363 . S
C872 H888 0.931 . S
C873 C872 1.370 . S
C873 C877 1.408 . S
C874 C872 1.363 . S
C874 C875 1.370 . S
C874 C878 1.524 . S
C875 C867 1.503 . S
C875 C874 1.370 . S
C875 C876 1.403 . S
C876 C875 1.403 . S
C876 C877 1.404 . S
C876 C879 1.539 . S
C877 C873 1.408 . S
C877 C876 1.404 . S
C877 H889 0.930 . S
C878 C874 1.524 . S
C878 H890 0.956 . S
C878 H891 0.961 . S
C878 H892 0.961 . S
C879 C876 1.539 . S
C879 H893 0.958 . S
C879 H894 0.961 . S
C879 H895 0.960 . S
H880 C864 0.931 . S
H881 C869 0.929 . S
H882 C870 0.960 . S
H883 C870 0.962 . S
H884 C870 0.960 . S
H885 C871 0.961 . S
H886 C871 0.961 . S
H887 C871 0.961 . S
H888 C872 0.931 . S
H889 C877 0.930 . S
H890 C878 0.956 . S
H891 C878 0.961 . S
H892 C878 0.961 . S
H893 C879 0.958 . S
H894 C879 0.961 . S
H895 C879 0.960 . S
C896 C897 1.391 . S
C896 C898 1.394 . S
C896 H912 0.931 . S
C897 C896 1.391 . S
C897 C901 1.376 . S
C898 C896 1.394 . S
C898 C899 1.369 . S
C898 C902 1.531 . S
C899 C898 1.369 . S
C899 C900 1.410 . S
C899 C907 1.503 . S
C900 C899 1.410 . S
C900 C901 1.392 . S
C900 C903 1.511 . S
C901 C897 1.376 . S
C901 C900 1.392 . S
C901 H913 0.929 . S
C902 C898 1.531 . S
C902 H914 0.960 1_554 S
C902 H915 0.962 . S
C902 H916 0.960 1_554 S
C903 C900 1.511 . S
C903 H917 0.961 . S
C903 H918 0.961 . S
C903 H919 0.961 . S
C904 C905 1.370 . S
C904 C906 1.363 . S
C904 H920 0.931 . S
C905 C904 1.370 . S
C905 C909 1.430 . S
C906 C904 1.363 . S
C906 C907 1.370 . S
C906 C910 1.524 . S
C907 C899 1.503 . S
C907 C906 1.370 . S
C907 C908 1.403 . S
C908 C907 1.403 . S
C908 C909 1.410 . S
C908 C911 1.539 1_554 S
C909 C905 1.430 . S
C909 C908 1.410 . S
C909 H921 0.903 1_554 S
C910 C906 1.524 . S
C910 H922 0.956 . S
C910 H923 0.961 . S
C910 H924 0.961 . S
C911 C908 1.539 1_556 S
C911 H925 0.958 . S
C911 H926 0.961 . S
C911 H927 0.960 . S
H912 C896 0.931 . S
H913 C901 0.929 . S
H914 C902 0.960 1_556 S
H915 C902 0.962 . S
H916 C902 0.960 1_556 S
H917 C903 0.961 . S
H918 C903 0.961 . S
H919 C903 0.961 . S
H920 C904 0.931 . S
H921 C909 0.903 1_556 S
H922 C910 0.956 . S
H923 C910 0.961 . S
H924 C910 0.961 . S
H925 C911 0.958 . S
H926 C911 0.961 . S
H927 C911 0.960 . S
C928 C929 1.391 . S
C928 C930 1.394 . S
C928 H944 0.931 . S
C929 C928 1.391 . S
C929 C933 1.376 . S
C930 C928 1.394 . S
C930 C931 1.369 . S
C930 C934 1.531 . S
C931 C930 1.369 . S
C931 C932 1.410 . S
C931 C939 1.503 . S
C932 C931 1.410 . S
C932 C933 1.392 . S
C932 C935 1.511 . S
C933 C929 1.376 . S
C933 C932 1.392 . S
C933 H945 0.929 . S
C934 C930 1.531 . S
C934 H946 0.960 . S
C934 H947 0.962 . S
C934 H948 0.960 . S
C935 C932 1.511 . S
C935 H949 0.961 . S
C935 H950 0.961 . S
C935 H951 0.961 . S
C936 C937 1.370 . S
C936 C938 1.363 . S
C936 H952 0.931 . S
C937 C936 1.370 . S
C937 C941 1.408 . S
C938 C936 1.363 . S
C938 C939 1.370 . S
C938 C942 1.524 . S
C939 C931 1.503 . S
C939 C938 1.370 . S
C939 C940 1.403 . S
C940 C939 1.403 . S
C940 C941 1.404 . S
C940 C943 1.539 . S
C941 C937 1.408 . S
C941 C940 1.404 . S
C941 H953 0.930 . S
C942 C938 1.524 . S
C942 H954 0.956 . S
C942 H955 0.961 . S
C942 H956 0.961 . S
C943 C940 1.539 . S
C943 H957 0.958 . S
C943 H958 0.961 . S
C943 H959 0.960 . S
H944 C928 0.931 . S
H945 C933 0.929 . S
H946 C934 0.960 . S
H947 C934 0.962 . S
H948 C934 0.960 . S
H949 C935 0.961 . S
H950 C935 0.961 . S
H951 C935 0.961 . S
H952 C936 0.931 . S
H953 C941 0.930 . S
H954 C942 0.956 . S
H955 C942 0.961 . S
H956 C942 0.961 . S
H957 C943 0.958 . S
H958 C943 0.961 . S
H959 C943 0.960 . S
C960 C961 1.391 . S
C960 C962 1.394 . S
C960 H976 0.931 . S
C961 C960 1.391 . S
C961 C965 1.376 . S
C962 C960 1.394 . S
C962 C963 1.369 . S
C962 C966 1.531 . S
C963 C962 1.369 . S
C963 C964 1.410 . S
C963 C971 1.503 . S
C964 C963 1.410 . S
C964 C965 1.392 . S
C964 C967 1.511 . S
C965 C961 1.376 . S
C965 C964 1.392 . S
C965 H977 0.929 . S
C966 C962 1.531 . S
C966 H978 0.960 . S
C966 H979 0.962 . S
C966 H980 0.960 . S
C967 C964 1.511 . S
C967 H981 0.961 . S
C967 H982 0.961 . S
C967 H983 0.961 . S
C968 C969 1.370 . S
C968 C970 1.363 . S
C968 H984 0.931 . S
C969 C968 1.370 . S
C969 C973 1.408 . S
C970 C968 1.363 . S
C970 C971 1.370 . S
C970 C974 1.524 . S
C971 C963 1.503 . S
C971 C970 1.370 . S
C971 C972 1.403 . S
C972 C971 1.403 . S
C972 C973 1.404 . S
C972 C975 1.539 . S
C973 C969 1.408 . S
C973 C972 1.404 . S
C973 H985 0.930 . S
C974 C970 1.524 . S
C974 H986 0.956 . S
C974 H987 0.961 . S
C974 H988 0.961 . S
C975 C972 1.539 . S
C975 H989 0.958 . S
C975 H990 0.961 . S
C975 H991 0.960 . S
H976 C960 0.931 . S
H977 C965 0.929 . S
H978 C966 0.960 . S
H979 C966 0.962 . S
H980 C966 0.960 . S
H981 C967 0.961 . S
H982 C967 0.961 . S
H983 C967 0.961 . S
H984 C968 0.931 . S
H985 C973 0.930 . S
H986 C974 0.956 . S
H987 C974 0.961 . S
H988 C974 0.961 . S
H989 C975 0.958 . S
H990 C975 0.961 . S
H991 C975 0.960 . S
C992 C993 1.391 . S
C992 C994 1.394 . S
C992 H1008 0.931 . S
C993 C992 1.391 . S
C993 C997 1.376 . S
C994 C992 1.394 . S
C994 C995 1.369 . S
C994 C998 1.531 . S
C995 C994 1.369 . S
C995 C996 1.410 . S
C995 C1003 1.503 . S
C996 C995 1.410 . S
C996 C997 1.392 . S
C996 C999 1.511 . S
C997 C993 1.376 . S
C997 C996 1.392 . S
C997 H1009 0.929 . S
C998 C994 1.531 . S
C998 H1010 0.960 . S
C998 H1011 0.962 . S
C998 H1012 0.960 . S
C999 C996 1.511 . S
C999 H1013 0.961 . S
C999 H1014 0.961 . S
C999 H1015 0.961 . S
C1000 C1001 1.370 . S
C1000 C1002 1.363 . S
C1000 H1016 0.931 . S
C1001 C1000 1.370 . S
C1001 C1005 1.408 . S
C1002 C1000 1.363 . S
C1002 C1003 1.370 . S
C1002 C1006 1.524 . S
C1003 C995 1.503 . S
C1003 C1002 1.370 . S
C1003 C1004 1.403 . S
C1004 C1003 1.403 . S
C1004 C1005 1.404 . S
C1004 C1007 1.539 . S
C1005 C1001 1.408 . S
C1005 C1004 1.404 . S
C1005 H1017 0.930 . S
C1006 C1002 1.524 . S
C1006 H1018 0.956 . S
C1006 H1019 0.961 . S
C1006 H1020 0.961 . S
C1007 C1004 1.539 . S
C1007 H1021 0.958 . S
C1007 H1022 0.961 . S
C1007 H1023 0.960 . S
H1008 C992 0.931 . S
H1009 C997 0.929 . S
H1010 C998 0.960 . S
H1011 C998 0.962 . S
H1012 C998 0.960 . S
H1013 C999 0.961 . S
H1014 C999 0.961 . S
H1015 C999 0.961 . S
H1016 C1000 0.931 . S
H1017 C1005 0.930 . S
H1018 C1006 0.956 . S
H1019 C1006 0.961 . S
H1020 C1006 0.961 . S
H1021 C1007 0.958 . S
H1022 C1007 0.961 . S
H1023 C1007 0.960 . S
C1024 C1025 1.391 . S
C1024 C1026 1.394 . S
C1024 H1040 0.931 . S
C1025 C1024 1.391 . S
C1025 C1029 1.376 . S
C1026 C1024 1.394 . S
C1026 C1027 1.369 . S
C1026 C1030 1.531 . S
C1027 C1026 1.369 . S
C1027 C1028 1.410 . S
C1027 C1035 1.503 . S
C1028 C1027 1.410 . S
C1028 C1029 1.392 . S
C1028 C1031 1.511 . S
C1029 C1025 1.376 . S
C1029 C1028 1.392 . S
C1029 H1041 0.929 . S
C1030 C1026 1.531 . S
C1030 H1042 0.960 . S
C1030 H1043 0.962 . S
C1030 H1044 0.960 . S
C1031 C1028 1.511 . S
C1031 H1045 0.961 . S
C1031 H1046 0.961 . S
C1031 H1047 0.961 . S
C1032 C1033 1.370 . S
C1032 C1034 1.363 . S
C1032 H1048 0.931 . S
C1033 C1032 1.370 . S
C1033 C1037 1.408 . S
C1034 C1032 1.363 . S
C1034 C1035 1.370 . S
C1034 C1038 1.524 . S
C1035 C1027 1.503 . S
C1035 C1034 1.370 . S
C1035 C1036 1.403 . S
C1036 C1035 1.403 . S
C1036 C1037 1.404 . S
C1036 C1039 1.539 . S
C1037 C1033 1.408 . S
C1037 C1036 1.404 . S
C1037 H1049 0.930 . S
C1038 C1034 1.524 . S
C1038 H1050 0.956 . S
C1038 H1051 0.961 . S
C1038 H1052 0.961 . S
C1039 C1036 1.539 . S
C1039 H1053 0.958 . S
C1039 H1054 0.961 . S
C1039 H1055 0.960 . S
H1040 C1024 0.931 . S
H1041 C1029 0.929 . S
H1042 C1030 0.960 . S
H1043 C1030 0.962 . S
H1044 C1030 0.960 . S
H1045 C1031 0.961 . S
H1046 C1031 0.961 . S
H1047 C1031 0.961 . S
H1048 C1032 0.931 . S
H1049 C1037 0.930 . S
H1050 C1038 0.956 . S
H1051 C1038 0.961 . S
H1052 C1038 0.961 . S
H1053 C1039 0.958 . S
H1054 C1039 0.961 . S
H1055 C1039 0.960 . S
C1056 C1057 1.385 1_554 S
C1056 C1058 1.398 1_554 S
C1056 H1072 0.937 . S
C1057 C1056 1.385 1_556 S
C1057 C1061 1.376 . S
C1058 C1056 1.398 1_556 S
C1058 C1059 1.384 . S
C1058 C1062 1.516 1_556 S
C1059 C1058 1.384 . S
C1059 C1060 1.410 . S
C1059 C1067 1.503 . S
C1060 C1059 1.410 . S
C1060 C1061 1.392 . S
C1060 C1063 1.511 . S
C1061 C1057 1.376 . S
C1061 C1060 1.392 . S
C1061 H1073 0.929 . S
C1062 C1058 1.516 1_554 S
C1062 H1074 0.960 1_554 S
C1062 H1075 0.962 . S
C1062 H1076 0.960 . S
C1063 C1060 1.511 . S
C1063 H1077 0.961 . S
C1063 H1078 0.961 . S
C1063 H1079 0.961 . S
C1064 C1065 1.370 1_554 S
C1064 C1066 1.363 . S
C1064 H1080 0.931 . S
C1065 C1064 1.370 1_556 S
C1065 C1069 1.408 . S
C1066 C1064 1.363 . S
C1066 C1067 1.370 1_554 S
C1066 C1070 1.524 . S
C1067 C1059 1.503 . S
C1067 C1066 1.370 1_556 S
C1067 C1068 1.403 . S
C1068 C1067 1.403 . S
C1068 C1069 1.404 . S
C1068 C1071 1.539 . S
C1069 C1065 1.408 . S
C1069 C1068 1.404 . S
C1069 H1081 0.930 . S
C1070 C1066 1.524 . S
C1070 H1082 0.956 . S
C1070 H1083 0.961 . S
C1070 H1084 0.961 . S
C1071 C1068 1.539 . S
C1071 H1085 0.958 . S
C1071 H1086 0.961 . S
C1071 H1087 0.960 . S
H1072 C1056 0.937 . S
H1073 C1061 0.929 . S
H1074 C1062 0.960 1_556 S
H1075 C1062 0.962 . S
H1076 C1062 0.960 . S
H1077 C1063 0.961 . S
H1078 C1063 0.961 . S
H1079 C1063 0.961 . S
H1080 C1064 0.931 . S
H1081 C1069 0.930 . S
H1082 C1070 0.956 . S
H1083 C1070 0.961 . S
H1084 C1070 0.961 . S
H1085 C1071 0.958 . S
H1086 C1071 0.961 . S
H1087 C1071 0.960 . S
C1088 C1089 1.391 . S
C1088 C1090 1.394 . S
C1088 H1104 0.931 . S
C1089 C1088 1.391 . S
C1089 C1093 1.376 . S
C1090 C1088 1.394 . S
C1090 C1091 1.369 . S
C1090 C1094 1.531 . S
C1091 C1090 1.369 . S
C1091 C1092 1.410 . S
C1091 C1099 1.503 . S
C1092 C1091 1.410 . S
C1092 C1093 1.392 . S
C1092 C1095 1.511 . S
C1093 C1089 1.376 . S
C1093 C1092 1.392 . S
C1093 H1105 0.929 . S
C1094 C1090 1.531 . S
C1094 H1106 0.960 . S
C1094 H1107 0.962 . S
C1094 H1108 0.960 . S
C1095 C1092 1.511 . S
C1095 H1109 0.961 . S
C1095 H1110 0.961 . S
C1095 H1111 0.961 . S
C1096 C1097 1.370 . S
C1096 C1098 1.363 . S
C1096 H1112 0.931 . S
C1097 C1096 1.370 . S
C1097 C1101 1.408 . S
C1098 C1096 1.363 . S
C1098 C1099 1.370 . S
C1098 C1102 1.524 . S
C1099 C1091 1.503 . S
C1099 C1098 1.370 . S
C1099 C1100 1.403 . S
C1100 C1099 1.403 . S
C1100 C1101 1.404 . S
C1100 C1103 1.539 . S
C1101 C1097 1.408 . S
C1101 C1100 1.404 . S
C1101 H1113 0.930 . S
C1102 C1098 1.524 . S
C1102 H1114 0.956 . S
C1102 H1115 0.961 . S
C1102 H1116 0.961 . S
C1103 C1100 1.539 . S
C1103 H1117 0.958 . S
C1103 H1118 0.961 . S
C1103 H1119 0.960 . S
H1104 C1088 0.931 . S
H1105 C1093 0.929 . S
H1106 C1094 0.960 . S
H1107 C1094 0.962 . S
H1108 C1094 0.960 . S
H1109 C1095 0.961 . S
H1110 C1095 0.961 . S
H1111 C1095 0.961 . S
H1112 C1096 0.931 . S
H1113 C1101 0.930 . S
H1114 C1102 0.956 . S
H1115 C1102 0.961 . S
H1116 C1102 0.961 . S
H1117 C1103 0.958 . S
H1118 C1103 0.961 . S
H1119 C1103 0.960 . S
C1120 C1121 1.391 . S
C1120 C1122 1.394 . S
C1120 H1136 0.931 . S
C1121 C1120 1.391 . S
C1121 C1125 1.376 . S
C1122 C1120 1.394 . S
C1122 C1123 1.369 . S
C1122 C1126 1.531 . S
C1123 C1122 1.369 . S
C1123 C1124 1.410 . S
C1123 C1131 1.503 . S
C1124 C1123 1.410 . S
C1124 C1125 1.392 . S
C1124 C1127 1.511 . S
C1125 C1121 1.376 . S
C1125 C1124 1.392 . S
C1125 H1137 0.929 . S
C1126 C1122 1.531 . S
C1126 H1138 0.960 . S
C1126 H1139 0.962 . S
C1126 H1140 0.960 . S
C1127 C1124 1.511 . S
C1127 H1141 0.961 . S
C1127 H1142 0.961 . S
C1127 H1143 0.961 . S
C1128 C1129 1.370 . S
C1128 C1130 1.363 . S
C1128 H1144 0.931 . S
C1129 C1128 1.370 . S
C1129 C1133 1.408 . S
C1130 C1128 1.363 . S
C1130 C1131 1.370 . S
C1130 C1134 1.524 . S
C1131 C1123 1.503 . S
C1131 C1130 1.370 . S
C1131 C1132 1.403 . S
C1132 C1131 1.403 . S
C1132 C1133 1.404 . S
C1132 C1135 1.539 . S
C1133 C1129 1.408 . S
C1133 C1132 1.404 . S
C1133 H1145 0.930 . S
C1134 C1130 1.524 . S
C1134 H1146 0.956 . S
C1134 H1147 0.961 . S
C1134 H1148 0.961 . S
C1135 C1132 1.539 . S
C1135 H1149 0.958 . S
C1135 H1150 0.961 . S
C1135 H1151 0.960 . S
H1136 C1120 0.931 . S
H1137 C1125 0.929 . S
H1138 C1126 0.960 . S
H1139 C1126 0.962 . S
H1140 C1126 0.960 . S
H1141 C1127 0.961 . S
H1142 C1127 0.961 . S
H1143 C1127 0.961 . S
H1144 C1128 0.931 . S
H1145 C1133 0.930 . S
H1146 C1134 0.956 . S
H1147 C1134 0.961 . S
H1148 C1134 0.961 . S
H1149 C1135 0.958 . S
H1150 C1135 0.961 . S
H1151 C1135 0.960 . S
C1152 C1153 1.391 . S
C1152 C1154 1.394 . S
C1152 H1168 0.931 . S
C1153 C1152 1.391 . S
C1153 C1157 1.376 . S
C1154 C1152 1.394 . S
C1154 C1155 1.369 . S
C1154 C1158 1.531 . S
C1155 C1154 1.369 . S
C1155 C1156 1.410 . S
C1155 C1163 1.503 . S
C1156 C1155 1.410 . S
C1156 C1157 1.392 . S
C1156 C1159 1.511 . S
C1157 C1153 1.376 . S
C1157 C1156 1.392 . S
C1157 H1169 0.929 . S
C1158 C1154 1.531 . S
C1158 H1170 0.960 . S
C1158 H1171 0.962 . S
C1158 H1172 0.960 . S
C1159 C1156 1.511 . S
C1159 H1173 0.961 . S
C1159 H1174 0.961 . S
C1159 H1175 0.961 . S
C1160 C1161 1.370 . S
C1160 C1162 1.363 . S
C1160 H1176 0.931 . S
C1161 C1160 1.370 . S
C1161 C1165 1.408 . S
C1162 C1160 1.363 . S
C1162 C1163 1.370 . S
C1162 C1166 1.524 . S
C1163 C1155 1.503 . S
C1163 C1162 1.370 . S
C1163 C1164 1.403 . S
C1164 C1163 1.403 . S
C1164 C1165 1.404 . S
C1164 C1167 1.539 . S
C1165 C1161 1.408 . S
C1165 C1164 1.404 . S
C1165 H1177 0.930 . S
C1166 C1162 1.524 . S
C1166 H1178 0.956 . S
C1166 H1179 0.961 . S
C1166 H1180 0.961 . S
C1167 C1164 1.539 . S
C1167 H1181 0.958 . S
C1167 H1182 0.961 . S
C1167 H1183 0.960 . S
H1168 C1152 0.931 . S
H1169 C1157 0.929 . S
H1170 C1158 0.960 . S
H1171 C1158 0.962 . S
H1172 C1158 0.960 . S
H1173 C1159 0.961 . S
H1174 C1159 0.961 . S
H1175 C1159 0.961 . S
H1176 C1160 0.931 . S
H1177 C1165 0.930 . S
H1178 C1166 0.956 . S
H1179 C1166 0.961 . S
H1180 C1166 0.961 . S
H1181 C1167 0.958 . S
H1182 C1167 0.961 . S
H1183 C1167 0.960 . S
C1184 C1185 1.391 . S
C1184 C1186 1.394 . S
C1184 H1200 0.931 . S
C1185 C1184 1.391 . S
C1185 C1189 1.376 . S
C1186 C1184 1.394 . S
C1186 C1187 1.369 . S
C1186 C1190 1.531 . S
C1187 C1186 1.369 . S
C1187 C1188 1.410 . S
C1187 C1195 1.503 . S
C1188 C1187 1.410 . S
C1188 C1189 1.392 . S
C1188 C1191 1.511 . S
C1189 C1185 1.376 . S
C1189 C1188 1.392 . S
C1189 H1201 0.929 . S
C1190 C1186 1.531 . S
C1190 H1202 0.960 . S
C1190 H1203 0.962 . S
C1190 H1204 0.960 . S
C1191 C1188 1.511 . S
C1191 H1205 0.961 . S
C1191 H1206 0.961 . S
C1191 H1207 0.961 . S
C1192 C1193 1.370 . S
C1192 C1194 1.363 . S
C1192 H1208 0.931 . S
C1193 C1192 1.370 . S
C1193 C1197 1.408 . S
C1194 C1192 1.363 . S
C1194 C1195 1.370 . S
C1194 C1198 1.524 . S
C1195 C1187 1.503 . S
C1195 C1194 1.370 . S
C1195 C1196 1.403 . S
C1196 C1195 1.403 . S
C1196 C1197 1.404 . S
C1196 C1199 1.539 . S
C1197 C1193 1.408 . S
C1197 C1196 1.404 . S
C1197 H1209 0.930 1_556 S
C1198 C1194 1.524 . S
C1198 H1210 0.956 . S
C1198 H1211 0.961 . S
C1198 H1212 0.961 . S
C1199 C1196 1.539 . S
C1199 H1213 0.958 . S
C1199 H1214 0.961 . S
C1199 H1215 0.960 . S
H1200 C1184 0.931 . S
H1201 C1189 0.929 . S
H1202 C1190 0.960 . S
H1203 C1190 0.962 . S
H1204 C1190 0.960 . S
H1205 C1191 0.961 . S
H1206 C1191 0.961 . S
H1207 C1191 0.961 . S
H1208 C1192 0.931 . S
H1209 C1197 0.930 1_554 S
H1210 C1198 0.956 . S
H1211 C1198 0.961 . S
H1212 C1198 0.961 . S
H1213 C1199 0.958 . S
H1214 C1199 0.961 . S
H1215 C1199 0.960 . S
C1216 C1217 1.391 . S
C1216 C1218 1.394 . S
C1216 H1232 0.931 . S
C1217 C1216 1.391 . S
C1217 C1221 1.376 . S
C1218 C1216 1.394 . S
C1218 C1219 1.369 . S
C1218 C1222 1.531 . S
C1219 C1218 1.369 . S
C1219 C1220 1.410 . S
C1219 C1227 1.503 . S
C1220 C1219 1.410 . S
C1220 C1221 1.392 . S
C1220 C1223 1.511 . S
C1221 C1217 1.376 . S
C1221 C1220 1.392 . S
C1221 H1233 0.929 . S
C1222 C1218 1.531 . S
C1222 H1234 0.960 . S
C1222 H1235 0.962 . S
C1222 H1236 0.960 . S
C1223 C1220 1.511 . S
C1223 H1237 0.961 . S
C1223 H1238 0.961 . S
C1223 H1239 0.961 . S
C1224 C1225 1.370 . S
C1224 C1226 1.363 . S
C1224 H1240 0.931 . S
C1225 C1224 1.370 . S
C1225 C1229 1.408 . S
C1226 C1224 1.363 . S
C1226 C1227 1.370 . S
C1226 C1230 1.524 . S
C1227 C1219 1.503 . S
C1227 C1226 1.370 . S
C1227 C1228 1.403 . S
C1228 C1227 1.403 . S
C1228 C1229 1.404 . S
C1228 C1231 1.539 . S
C1229 C1225 1.408 . S
C1229 C1228 1.404 . S
C1229 H1241 0.930 . S
C1230 C1226 1.524 . S
C1230 H1242 0.956 . S
C1230 H1243 0.961 . S
C1230 H1244 0.961 . S
C1231 C1228 1.539 . S
C1231 H1245 0.958 . S
C1231 H1246 0.961 . S
C1231 H1247 0.960 . S
H1232 C1216 0.931 . S
H1233 C1221 0.929 . S
H1234 C1222 0.960 . S
H1235 C1222 0.962 . S
H1236 C1222 0.960 . S
H1237 C1223 0.961 . S
H1238 C1223 0.961 . S
H1239 C1223 0.961 . S
H1240 C1224 0.931 . S
H1241 C1229 0.930 . S
H1242 C1230 0.956 . S
H1243 C1230 0.961 . S
H1244 C1230 0.961 . S
H1245 C1231 0.958 . S
H1246 C1231 0.961 . S
H1247 C1231 0.960 . S
C1248 C1249 1.391 . S
C1248 C1250 1.394 . S
C1248 H1264 0.931 . S
C1249 C1248 1.391 . S
C1249 C1253 1.376 . S
C1250 C1248 1.394 . S
C1250 C1251 1.369 . S
C1250 C1254 1.531 . S
C1251 C1250 1.369 . S
C1251 C1252 1.410 . S
C1251 C1259 1.503 . S
C1252 C1251 1.410 . S
C1252 C1253 1.392 . S
C1252 C1255 1.511 . S
C1253 C1249 1.376 . S
C1253 C1252 1.392 . S
C1253 H1265 0.929 . S
C1254 C1250 1.531 . S
C1254 H1266 0.960 . S
C1254 H1267 0.962 . S
C1254 H1268 0.960 . S
C1255 C1252 1.511 . S
C1255 H1269 0.961 . S
C1255 H1270 0.961 . S
C1255 H1271 0.961 . S
C1256 C1257 1.370 . S
C1256 C1258 1.363 . S
C1256 H1272 0.931 . S
C1257 C1256 1.370 . S
C1257 C1261 1.408 . S
C1258 C1256 1.363 . S
C1258 C1259 1.370 . S
C1258 C1262 1.524 . S
C1259 C1251 1.503 . S
C1259 C1258 1.370 . S
C1259 C1260 1.403 . S
C1260 C1259 1.403 . S
C1260 C1261 1.404 . S
C1260 C1263 1.539 . S
C1261 C1257 1.408 . S
C1261 C1260 1.404 . S
C1261 H1273 0.930 . S
C1262 C1258 1.524 . S
C1262 H1274 0.956 . S
C1262 H1275 0.961 . S
C1262 H1276 0.961 . S
C1263 C1260 1.539 . S
C1263 H1277 0.958 . S
C1263 H1278 0.961 . S
C1263 H1279 0.960 . S
H1264 C1248 0.931 . S
H1265 C1253 0.929 . S
H1266 C1254 0.960 . S
H1267 C1254 0.962 . S
H1268 C1254 0.960 . S
H1269 C1255 0.961 . S
H1270 C1255 0.961 . S
H1271 C1255 0.961 . S
H1272 C1256 0.931 . S
H1273 C1261 0.930 . S
H1274 C1262 0.956 . S
H1275 C1262 0.961 . S
H1276 C1262 0.961 . S
H1277 C1263 0.958 . S
H1278 C1263 0.961 . S
H1279 C1263 0.960 . S
C1280 C1281 1.391 . S
C1280 C1282 1.394 . S
C1280 H1296 0.931 . S
C1281 C1280 1.391 . S
C1281 C1285 1.376 . S
C1282 C1280 1.394 . S
C1282 C1283 1.369 . S
C1282 C1286 1.531 . S
C1283 C1282 1.369 . S
C1283 C1284 1.410 . S
C1283 C1291 1.503 . S
C1284 C1283 1.410 . S
C1284 C1285 1.392 . S
C1284 C1287 1.511 . S
C1285 C1281 1.376 . S
C1285 C1284 1.392 . S
C1285 H1297 0.929 . S
C1286 C1282 1.531 . S
C1286 H1298 0.960 . S
C1286 H1299 0.962 . S
C1286 H1300 0.960 . S
C1287 C1284 1.511 . S
C1287 H1301 0.961 . S
C1287 H1302 0.961 . S
C1287 H1303 0.961 . S
C1288 C1289 1.370 . S
C1288 C1290 1.363 . S
C1288 H1304 0.931 . S
C1289 C1288 1.370 . S
C1289 C1293 1.408 . S
C1290 C1288 1.363 . S
C1290 C1291 1.370 . S
C1290 C1294 1.524 . S
C1291 C1283 1.503 . S
C1291 C1290 1.370 . S
C1291 C1292 1.403 . S
C1292 C1291 1.403 . S
C1292 C1293 1.404 . S
C1292 C1295 1.539 . S
C1293 C1289 1.408 . S
C1293 C1292 1.404 . S
C1293 H1305 0.930 . S
C1294 C1290 1.524 . S
C1294 H1306 0.956 . S
C1294 H1307 0.961 . S
C1294 H1308 0.961 . S
C1295 C1292 1.539 . S
C1295 H1309 0.958 . S
C1295 H1310 0.961 . S
C1295 H1311 0.960 . S
H1296 C1280 0.931 . S
H1297 C1285 0.929 . S
H1298 C1286 0.960 . S
H1299 C1286 0.962 . S
H1300 C1286 0.960 . S
H1301 C1287 0.961 . S
H1302 C1287 0.961 . S
H1303 C1287 0.961 . S
H1304 C1288 0.931 . S
H1305 C1293 0.930 . S
H1306 C1294 0.956 . S
H1307 C1294 0.961 . S
H1308 C1294 0.961 . S
H1309 C1295 0.958 . S
H1310 C1295 0.961 . S
H1311 C1295 0.960 . S
C1312 C1313 1.391 . S
C1312 C1314 1.394 . S
C1312 H1328 0.931 . S
C1313 C1312 1.391 . S
C1313 C1317 1.376 . S
C1314 C1312 1.394 . S
C1314 C1315 1.369 . S
C1314 C1318 1.531 . S
C1315 C1314 1.369 . S
C1315 C1316 1.410 . S
C1315 C1323 1.503 . S
C1316 C1315 1.410 . S
C1316 C1317 1.392 . S
C1316 C1319 1.511 . S
C1317 C1313 1.376 . S
C1317 C1316 1.392 . S
C1317 H1329 0.929 . S
C1318 C1314 1.531 . S
C1318 H1330 0.960 . S
C1318 H1331 0.962 . S
C1318 H1332 0.960 . S
C1319 C1316 1.511 . S
C1319 H1333 0.961 . S
C1319 H1334 0.961 . S
C1319 H1335 0.961 . S
C1320 C1321 1.370 . S
C1320 C1322 1.363 . S
C1320 H1336 0.931 . S
C1321 C1320 1.370 . S
C1321 C1325 1.408 . S
C1322 C1320 1.363 . S
C1322 C1323 1.370 . S
C1322 C1326 1.524 . S
C1323 C1315 1.503 . S
C1323 C1322 1.370 . S
C1323 C1324 1.403 . S
C1324 C1323 1.403 . S
C1324 C1325 1.404 . S
C1324 C1327 1.539 . S
C1325 C1321 1.408 . S
C1325 C1324 1.404 . S
C1325 H1337 0.930 . S
C1326 C1322 1.524 . S
C1326 H1338 0.956 . S
C1326 H1339 0.961 . S
C1326 H1340 0.961 . S
C1327 C1324 1.539 . S
C1327 H1341 0.958 . S
C1327 H1342 0.961 . S
C1327 H1343 0.960 . S
H1328 C1312 0.931 . S
H1329 C1317 0.929 . S
H1330 C1318 0.960 . S
H1331 C1318 0.962 . S
H1332 C1318 0.960 . S
H1333 C1319 0.961 . S
H1334 C1319 0.961 . S
H1335 C1319 0.961 . S
H1336 C1320 0.931 . S
H1337 C1325 0.930 . S
H1338 C1326 0.956 . S
H1339 C1326 0.961 . S
H1340 C1326 0.961 . S
H1341 C1327 0.958 . S
H1342 C1327 0.961 . S
H1343 C1327 0.960 . S
C1344 C1345 1.391 . S
C1344 C1346 1.394 1_545 S
C1344 H1360 0.931 . S
C1345 C1344 1.391 . S
C1345 C1349 1.376 . S
C1346 C1344 1.394 1_565 S
C1346 C1347 1.369 . S
C1346 C1350 1.531 . S
C1347 C1346 1.369 . S
C1347 C1348 1.410 . S
C1347 C1355 1.503 . S
C1348 C1347 1.410 . S
C1348 C1349 1.392 1_565 S
C1348 C1351 1.511 . S
C1349 C1345 1.376 . S
C1349 C1348 1.392 1_545 S
C1349 H1361 0.929 . S
C1350 C1346 1.531 . S
C1350 H1362 0.960 . S
C1350 H1363 0.962 . S
C1350 H1364 0.960 . S
C1351 C1348 1.511 . S
C1351 H1365 0.961 . S
C1351 H1366 0.961 . S
C1351 H1367 0.961 . S
C1352 C1353 1.370 . S
C1352 C1354 1.363 . S
C1352 H1368 0.931 . S
C1353 C1352 1.370 . S
C1353 C1357 1.408 . S
C1354 C1352 1.363 . S
C1354 C1355 1.370 . S
C1354 C1358 1.524 1_565 S
C1355 C1347 1.503 . S
C1355 C1354 1.370 . S
C1355 C1356 1.403 . S
C1356 C1355 1.403 . S
C1356 C1357 1.404 . S
C1356 C1359 1.539 . S
C1357 C1353 1.408 . S
C1357 C1356 1.404 . S
C1357 H1369 0.930 . S
C1358 C1354 1.524 1_545 S
C1358 H1370 0.956 . S
C1358 H1371 0.961 . S
C1358 H1372 0.961 . S
C1359 C1356 1.539 . S
C1359 H1373 0.958 . S
C1359 H1374 0.961 . S
C1359 H1375 0.960 . S
H1360 C1344 0.931 . S
H1361 C1349 0.929 . S
H1362 C1350 0.960 . S
H1363 C1350 0.962 . S
H1364 C1350 0.960 . S
H1365 C1351 0.961 . S
H1366 C1351 0.961 . S
H1367 C1351 0.961 . S
H1368 C1352 0.931 . S
H1369 C1357 0.930 . S
H1370 C1358 0.956 . S
H1371 C1358 0.961 . S
H1372 C1358 0.961 . S
H1373 C1359 0.958 . S
H1374 C1359 0.961 . S
H1375 C1359 0.960 . S
C1376 C1377 1.391 . S
C1376 C1378 1.394 . S
C1376 H1392 0.931 . S
C1377 C1376 1.391 . S
C1377 C1381 1.376 . S
C1378 C1376 1.394 . S
C1378 C1379 1.369 . S
C1378 C1382 1.531 . S
C1379 C1378 1.369 . S
C1379 C1380 1.410 . S
C1379 C1387 1.503 . S
C1380 C1379 1.410 . S
C1380 C1381 1.392 . S
C1380 C1383 1.511 . S
C1381 C1377 1.376 . S
C1381 C1380 1.392 . S
C1381 H1393 0.929 . S
C1382 C1378 1.531 . S
C1382 H1394 0.960 . S
C1382 H1395 0.962 . S
C1382 H1396 0.960 . S
C1383 C1380 1.511 . S
C1383 H1397 0.961 . S
C1383 H1398 0.961 . S
C1383 H1399 0.961 . S
C1384 C1385 1.370 . S
C1384 C1386 1.363 . S
C1384 H1400 0.931 . S
C1385 C1384 1.370 . S
C1385 C1389 1.408 . S
C1386 C1384 1.363 . S
C1386 C1387 1.370 . S
C1386 C1390 1.524 . S
C1387 C1379 1.503 . S
C1387 C1386 1.370 . S
C1387 C1388 1.403 . S
C1388 C1387 1.403 . S
C1388 C1389 1.404 . S
C1388 C1391 1.539 . S
C1389 C1385 1.408 . S
C1389 C1388 1.404 . S
C1389 H1401 0.930 . S
C1390 C1386 1.524 . S
C1390 H1402 0.956 . S
C1390 H1403 0.961 . S
C1390 H1404 0.961 . S
C1391 C1388 1.539 . S
C1391 H1405 0.958 . S
C1391 H1406 0.961 . S
C1391 H1407 0.960 . S
H1392 C1376 0.931 . S
H1393 C1381 0.929 . S
H1394 C1382 0.960 . S
H1395 C1382 0.962 . S
H1396 C1382 0.960 . S
H1397 C1383 0.961 . S
H1398 C1383 0.961 . S
H1399 C1383 0.961 . S
H1400 C1384 0.931 . S
H1401 C1389 0.930 . S
H1402 C1390 0.956 . S
H1403 C1390 0.961 . S
H1404 C1390 0.961 . S
H1405 C1391 0.958 . S
H1406 C1391 0.961 . S
H1407 C1391 0.960 . S
C1408 C1409 1.391 . S
C1408 C1410 1.394 . S
C1408 H1424 0.931 . S
C1409 C1408 1.391 . S
C1409 C1413 1.376 . S
C1410 C1408 1.394 . S
C1410 C1411 1.369 . S
C1410 C1414 1.531 . S
C1411 C1410 1.369 . S
C1411 C1412 1.410 . S
C1411 C1419 1.503 . S
C1412 C1411 1.410 . S
C1412 C1413 1.392 . S
C1412 C1415 1.511 . S
C1413 C1409 1.376 . S
C1413 C1412 1.392 . S
C1413 H1425 0.929 . S
C1414 C1410 1.531 . S
C1414 H1426 0.960 . S
C1414 H1427 0.962 . S
C1414 H1428 0.960 . S
C1415 C1412 1.511 . S
C1415 H1429 0.961 . S
C1415 H1430 0.961 . S
C1415 H1431 0.961 . S
C1416 C1417 1.370 . S
C1416 C1418 1.363 . S
C1416 H1432 0.931 . S
C1417 C1416 1.370 . S
C1417 C1421 1.408 . S
C1418 C1416 1.363 . S
C1418 C1419 1.370 . S
C1418 C1422 1.524 . S
C1419 C1411 1.503 . S
C1419 C1418 1.370 . S
C1419 C1420 1.403 . S
C1420 C1419 1.403 . S
C1420 C1421 1.404 . S
C1420 C1423 1.539 . S
C1421 C1417 1.408 . S
C1421 C1420 1.404 . S
C1421 H1433 0.930 . S
C1422 C1418 1.524 . S
C1422 H1434 0.956 . S
C1422 H1435 0.961 . S
C1422 H1436 0.961 . S
C1423 C1420 1.539 . S
C1423 H1437 0.958 . S
C1423 H1438 0.961 . S
C1423 H1439 0.960 . S
H1424 C1408 0.931 . S
H1425 C1413 0.929 . S
H1426 C1414 0.960 . S
H1427 C1414 0.962 . S
H1428 C1414 0.960 . S
H1429 C1415 0.961 . S
H1430 C1415 0.961 . S
H1431 C1415 0.961 . S
H1432 C1416 0.931 . S
H1433 C1421 0.930 . S
H1434 C1422 0.956 . S
H1435 C1422 0.961 . S
H1436 C1422 0.961 . S
H1437 C1423 0.958 . S
H1438 C1423 0.961 . S
H1439 C1423 0.960 . S
C1440 C1441 1.391 . S
C1440 C1442 1.394 . S
C1440 H1456 0.931 1_655 S
C1441 C1440 1.391 . S
C1441 C1445 1.376 . S
C1442 C1440 1.394 . S
C1442 C1443 1.369 . S
C1442 C1446 1.531 . S
C1443 C1442 1.369 . S
C1443 C1444 1.410 . S
C1443 C1451 1.503 . S
C1444 C1443 1.410 . S
C1444 C1445 1.392 . S
C1444 C1447 1.511 . S
C1445 C1441 1.376 . S
C1445 C1444 1.392 . S
C1445 H1457 0.929 . S
C1446 C1442 1.531 . S
C1446 H1458 0.960 . S
C1446 H1459 0.962 1_655 S
C1446 H1460 0.960 . S
C1447 C1444 1.511 . S
C1447 H1461 0.961 . S
C1447 H1462 0.961 . S
C1447 H1463 0.961 . S
C1448 C1449 1.370 . S
C1448 C1450 1.363 . S
C1448 H1464 0.931 . S
C1449 C1448 1.370 . S
C1449 C1453 1.408 . S
C1450 C1448 1.363 . S
C1450 C1451 1.370 . S
C1450 C1454 1.524 . S
C1451 C1443 1.503 . S
C1451 C1450 1.370 . S
C1451 C1452 1.403 . S
C1452 C1451 1.403 . S
C1452 C1453 1.404 . S
C1452 C1455 1.539 . S
C1453 C1449 1.408 . S
C1453 C1452 1.404 . S
C1453 H1465 0.930 . S
C1454 C1450 1.524 . S
C1454 H1466 0.956 . S
C1454 H1467 0.961 . S
C1454 H1468 0.961 . S
C1455 C1452 1.539 . S
C1455 H1469 0.958 . S
C1455 H1470 0.961 . S
C1455 H1471 0.960 . S
H1456 C1440 0.931 1_455 S
H1457 C1445 0.929 . S
H1458 C1446 0.960 . S
H1459 C1446 0.962 1_455 S
H1460 C1446 0.960 . S
H1461 C1447 0.961 . S
H1462 C1447 0.961 . S
H1463 C1447 0.961 . S
H1464 C1448 0.931 . S
H1465 C1453 0.930 . S
H1466 C1454 0.956 . S
H1467 C1454 0.961 . S
H1468 C1454 0.961 . S
H1469 C1455 0.958 . S
H1470 C1455 0.961 . S
H1471 C1455 0.960 . S
C1472 C1473 1.391 . S
C1472 C1474 1.394 . S
C1472 H1488 0.931 . S
C1473 C1472 1.391 . S
C1473 C1477 1.376 . S
C1474 C1472 1.394 . S
C1474 C1475 1.369 . S
C1474 C1478 1.531 . S
C1475 C1474 1.369 . S
C1475 C1476 1.410 . S
C1475 C1483 1.503 . S
C1476 C1475 1.410 . S
C1476 C1477 1.392 . S
C1476 C1479 1.511 . S
C1477 C1473 1.376 . S
C1477 C1476 1.392 . S
C1477 H1489 0.929 . S
C1478 C1474 1.531 . S
C1478 H1490 0.960 . S
C1478 H1491 0.962 . S
C1478 H1492 0.960 . S
C1479 C1476 1.511 . S
C1479 H1493 0.961 . S
C1479 H1494 0.961 . S
C1479 H1495 0.961 . S
C1480 C1481 1.370 . S
C1480 C1482 1.363 . S
C1480 H1496 0.931 . S
C1481 C1480 1.370 . S
C1481 C1485 1.408 . S
C1482 C1480 1.363 . S
C1482 C1483 1.370 . S
C1482 C1486 1.524 . S
C1483 C1475 1.503 . S
C1483 C1482 1.370 . S
C1483 C1484 1.403 . S
C1484 C1483 1.403 . S
C1484 C1485 1.404 . S
C1484 C1487 1.539 . S
C1485 C1481 1.408 . S
C1485 C1484 1.404 . S
C1485 H1497 0.930 . S
C1486 C1482 1.524 . S
C1486 H1498 0.956 . S
C1486 H1499 0.961 . S
C1486 H1500 0.961 . S
C1487 C1484 1.539 . S
C1487 H1501 0.958 . S
C1487 H1502 0.961 . S
C1487 H1503 0.960 . S
H1488 C1472 0.931 . S
H1489 C1477 0.929 . S
H1490 C1478 0.960 . S
H1491 C1478 0.962 . S
H1492 C1478 0.960 . S
H1493 C1479 0.961 . S
H1494 C1479 0.961 . S
H1495 C1479 0.961 . S
H1496 C1480 0.931 . S
H1497 C1485 0.930 . S
H1498 C1486 0.956 . S
H1499 C1486 0.961 . S
H1500 C1486 0.961 . S
H1501 C1487 0.958 . S
H1502 C1487 0.961 . S
H1503 C1487 0.960 . S
C1504 C1505 1.391 . S
C1504 C1506 1.394 . S
C1504 H1520 0.931 . S
C1505 C1504 1.391 . S
C1505 C1509 1.376 . S
C1506 C1504 1.394 . S
C1506 C1507 1.369 . S
C1506 C1510 1.531 . S
C1507 C1506 1.369 . S
C1507 C1508 1.410 . S
C1507 C1515 1.503 . S
C1508 C1507 1.410 . S
C1508 C1509 1.392 . S
C1508 C1511 1.511 . S
C1509 C1505 1.376 . S
C1509 C1508 1.392 . S
C1509 H1521 0.929 . S
C1510 C1506 1.531 . S
C1510 H1522 0.960 . S
C1510 H1523 0.962 . S
C1510 H1524 0.960 . S
C1511 C1508 1.511 . S
C1511 H1525 0.961 . S
C1511 H1526 0.961 . S
C1511 H1527 0.961 . S
C1512 C1513 1.370 . S
C1512 C1514 1.363 . S
C1512 H1528 0.931 . S
C1513 C1512 1.370 . S
C1513 C1517 1.408 . S
C1514 C1512 1.363 . S
C1514 C1515 1.370 . S
C1514 C1518 1.524 . S
C1515 C1507 1.503 . S
C1515 C1514 1.370 . S
C1515 C1516 1.403 . S
C1516 C1515 1.403 . S
C1516 C1517 1.404 . S
C1516 C1519 1.539 . S
C1517 C1513 1.408 . S
C1517 C1516 1.404 . S
C1517 H1529 0.930 . S
C1518 C1514 1.524 . S
C1518 H1530 0.956 . S
C1518 H1531 0.961 . S
C1518 H1532 0.961 . S
C1519 C1516 1.539 . S
C1519 H1533 0.958 . S
C1519 H1534 0.961 . S
C1519 H1535 0.960 . S
H1520 C1504 0.931 . S
H1521 C1509 0.929 . S
H1522 C1510 0.960 . S
H1523 C1510 0.962 . S
H1524 C1510 0.960 . S
H1525 C1511 0.961 . S
H1526 C1511 0.961 . S
H1527 C1511 0.961 . S
H1528 C1512 0.931 . S
H1529 C1517 0.930 . S
H1530 C1518 0.956 . S
H1531 C1518 0.961 . S
H1532 C1518 0.961 . S
H1533 C1519 0.958 . S
H1534 C1519 0.961 . S
H1535 C1519 0.960 . S
C1536 C1537 1.391 . S
C1536 C1538 1.394 . S
C1536 H1552 0.931 . S
C1537 C1536 1.391 . S
C1537 C1541 1.376 1_655 S
C1538 C1536 1.394 . S
C1538 C1539 1.369 . S
C1538 C1542 1.531 . S
C1539 C1538 1.369 . S
C1539 C1540 1.410 . S
C1539 C1547 1.503 . S
C1540 C1539 1.410 . S
C1540 C1541 1.392 1_655 S
C1540 C1543 1.511 1_655 S
C1541 C1537 1.376 1_455 S
C1541 C1540 1.392 1_455 S
C1541 H1553 0.929 . S
C1542 C1538 1.531 . S
C1542 H1554 0.960 . S
C1542 H1555 0.962 . S
C1542 H1556 0.960 . S
C1543 C1540 1.511 1_455 S
C1543 H1557 0.961 . S
C1543 H1558 0.961 1_455 S
C1543 H1559 0.961 . S
C1544 C1545 1.370 . S
C1544 C1546 1.363 . S
C1544 H1560 0.931 . S
C1545 C1544 1.370 . S
C1545 C1549 1.408 . S
C1546 C1544 1.363 . S
C1546 C1547 1.370 . S
C1546 C1550 1.524 . S
C1547 C1539 1.503 . S
C1547 C1546 1.370 . S
C1547 C1548 1.403 . S
C1548 C1547 1.403 . S
C1548 C1549 1.404 . S
C1548 C1551 1.539 . S
C1549 C1545 1.408 . S
C1549 C1548 1.404 . S
C1549 H1561 0.930 . S
C1550 C1546 1.524 . S
C1550 H1562 0.956 . S
C1550 H1563 0.961 . S
C1550 H1564 0.961 . S
C1551 C1548 1.539 . S
C1551 H1565 0.958 . S
C1551 H1566 0.961 . S
C1551 H1567 0.960 . S
H1552 C1536 0.931 . S
H1553 C1541 0.929 . S
H1554 C1542 0.960 . S
H1555 C1542 0.962 . S
H1556 C1542 0.960 . S
H1557 C1543 0.961 . S
H1558 C1543 0.961 1_655 S
H1559 C1543 0.961 . S
H1560 C1544 0.931 . S
H1561 C1549 0.930 . S
H1562 C1550 0.956 . S
H1563 C1550 0.961 . S
H1564 C1550 0.961 . S
H1565 C1551 0.958 . S
H1566 C1551 0.961 . S
H1567 C1551 0.960 . S
C1568 C1569 1.391 . S
C1568 C1570 1.394 . S
C1568 H1584 0.931 . S
C1569 C1568 1.391 . S
C1569 C1573 1.376 . S
C1570 C1568 1.394 . S
C1570 C1571 1.369 . S
C1570 C1574 1.531 . S
C1571 C1570 1.369 . S
C1571 C1572 1.410 . S
C1571 C1579 1.503 . S
C1572 C1571 1.410 . S
C1572 C1573 1.392 . S
C1572 C1575 1.511 . S
C1573 C1569 1.376 . S
C1573 C1572 1.392 . S
C1573 H1585 0.929 . S
C1574 C1570 1.531 . S
C1574 H1586 0.960 . S
C1574 H1587 0.962 . S
C1574 H1588 0.960 . S
C1575 C1572 1.511 . S
C1575 H1589 0.961 . S
C1575 H1590 0.961 . S
C1575 H1591 0.961 . S
C1576 C1577 1.370 . S
C1576 C1578 1.363 . S
C1576 H1592 0.931 . S
C1577 C1576 1.370 . S
C1577 C1581 1.408 . S
C1578 C1576 1.363 . S
C1578 C1579 1.370 . S
C1578 C1582 1.524 . S
C1579 C1571 1.503 . S
C1579 C1578 1.370 . S
C1579 C1580 1.403 . S
C1580 C1579 1.403 . S
C1580 C1581 1.404 . S
C1580 C1583 1.539 . S
C1581 C1577 1.408 . S
C1581 C1580 1.404 . S
C1581 H1593 0.930 . S
C1582 C1578 1.524 . S
C1582 H1594 0.956 . S
C1582 H1595 0.961 . S
C1582 H1596 0.961 . S
C1583 C1580 1.539 . S
C1583 H1597 0.958 . S
C1583 H1598 0.961 . S
C1583 H1599 0.960 . S
H1584 C1568 0.931 . S
H1585 C1573 0.929 . S
H1586 C1574 0.960 . S
H1587 C1574 0.962 . S
H1588 C1574 0.960 . S
H1589 C1575 0.961 . S
H1590 C1575 0.961 . S
H1591 C1575 0.961 . S
H1592 C1576 0.931 . S
H1593 C1581 0.930 . S
H1594 C1582 0.956 . S
H1595 C1582 0.961 . S
H1596 C1582 0.961 . S
H1597 C1583 0.958 . S
H1598 C1583 0.961 . S
H1599 C1583 0.960 . S
C1600 C1601 1.391 . S
C1600 C1602 1.394 . S
C1600 H1616 0.931 . S
C1601 C1600 1.391 . S
C1601 C1605 1.376 . S
C1602 C1600 1.394 . S
C1602 C1603 1.369 . S
C1602 C1606 1.531 . S
C1603 C1602 1.369 . S
C1603 C1604 1.410 . S
C1603 C1611 1.503 . S
C1604 C1603 1.410 . S
C1604 C1605 1.392 . S
C1604 C1607 1.511 . S
C1605 C1601 1.376 . S
C1605 C1604 1.392 . S
C1605 H1617 0.929 . S
C1606 C1602 1.531 . S
C1606 H1618 0.960 . S
C1606 H1619 0.962 . S
C1606 H1620 0.960 . S
C1607 C1604 1.511 . S
C1607 H1621 0.961 . S
C1607 H1622 0.961 . S
C1607 H1623 0.961 . S
C1608 C1609 1.370 . S
C1608 C1610 1.363 . S
C1608 H1624 0.931 . S
C1609 C1608 1.370 . S
C1609 C1613 1.408 . S
C1610 C1608 1.363 . S
C1610 C1611 1.370 . S
C1610 C1614 1.524 . S
C1611 C1603 1.503 . S
C1611 C1610 1.370 . S
C1611 C1612 1.403 . S
C1612 C1611 1.403 . S
C1612 C1613 1.404 . S
C1612 C1615 1.539 . S
C1613 C1609 1.408 . S
C1613 C1612 1.404 . S
C1613 H1625 0.930 . S
C1614 C1610 1.524 . S
C1614 H1626 0.956 . S
C1614 H1627 0.961 . S
C1614 H1628 0.961 . S
C1615 C1612 1.539 . S
C1615 H1629 0.958 . S
C1615 H1630 0.961 . S
C1615 H1631 0.960 . S
H1616 C1600 0.931 . S
H1617 C1605 0.929 . S
H1618 C1606 0.960 . S
H1619 C1606 0.962 . S
H1620 C1606 0.960 . S
H1621 C1607 0.961 . S
H1622 C1607 0.961 . S
H1623 C1607 0.961 . S
H1624 C1608 0.931 . S
H1625 C1613 0.930 . S
H1626 C1614 0.956 . S
H1627 C1614 0.961 . S
H1628 C1614 0.961 . S
H1629 C1615 0.958 . S
H1630 C1615 0.961 . S
H1631 C1615 0.960 . S
C617 C516 1.433 . S
C609 C35 1.268 . S
C649 C533 1.436 . S
C641 C115 1.385 . S
C681 C547 1.559 . S
C673 C177 1.398 . S
C705 C221 1.346 . S
C713 C505 1.440 . S
C737 C283 1.297 . S
C745 C502 1.525 . S
C769 C363 1.274 . S
C777 C519 1.347 . S
C809 C530 1.655 . S
C801 C407 1.495 . S
C841 C544 1.576 . S
C833 C469 1.357 1_565 S
C865 C159 1.365 . S
C873 C572 1.567 . S
C905 C586 1.669 . S
C897 C239 1.593 . S
C929 C53 1.226 . S
C937 C603 1.341 . S
C969 C558 1.519 . S
C961 C97 1.320 . S
C993 C425 1.245 . S
C1001 C561 1.429 . S
C1025 C487 1.404 . S
C1033 C575 1.556 . S
C1065 C589 1.429 . S
C1057 C301 1.293 . S
C1089 C345 1.287 . S
C1097 C600 1.443 . S
C1129 C532 2.178 . S
C1121 C29 2.171 . S
C1161 C546 2.266 . S
C1153 C109 2.164 . S
C1185 C171 2.110 . S
C1193 C504 2.173 1_556 S
C1217 C215 1.990 . S
C1225 C517 1.915 . S
C1249 C277 1.806 . S
C1257 C545 1.690 . S
C1289 C503 1.680 . S
C1281 C357 1.761 . S
C1321 C518 2.049 . S
C1313 C401 2.034 . S
C1353 C531 1.821 . S
C1345 C463 1.884 . S
C1385 C587 1.835 . S
C1377 C153 1.901 . S
C1417 C602 2.043 . S
C1409 C233 2.033 . S
C1441 C47 1.719 . S
C1449 C559 1.701 . S
C1481 C573 1.705 . S
C1473 C91 1.813 . S
C1513 C601 1.913 . S
C1505 C419 1.929 . S
C1537 C481 2.092 1_655 S
C1545 C560 2.166 . S
C1577 C574 2.253 . S
C1569 C295 2.205 . S
C1609 C588 2.181 . S
C1601 C339 2.185 . S
