# Generated by pormake.
# Topology ftw, (4,12)-cn, num edge types: 1
# Building blocks:
#     Node 0, Type 0, BuildingBlock: AZAVOO_clean_linker_0, # of connection points: 4
#     Node 1, Type 0, BuildingBlock: AZAVOO_clean_linker_0, # of connection points: 4
#     Node 2, Type 0, BuildingBlock: AZAVOO_clean_linker_0, # of connection points: 4
#     Node 3, Type 1, BuildingBlock: QEWDON_clean_sbu_0, # of connection points: 12
#     Edge 4, Type (0, 1), BuildingBlock: UVAHIK_clean_linker_0, # of connection points: 2
#     Edge 5, Type (0, 1), BuildingBlock: UVAHIK_clean_linker_0, # of connection points: 2
#     Edge 6, Type (0, 1), BuildingBlock: UVAHIK_clean_linker_0, # of connection points: 2
#     Edge 7, Type (0, 1), BuildingBlock: UVAHIK_clean_linker_0, # of connection points: 2
#     Edge 8, Type (0, 1), BuildingBlock: UVAHIK_clean_linker_0, # of connection points: 2
#     Edge 9, Type (0, 1), BuildingBlock: UVAHIK_clean_linker_0, # of connection points: 2
#     Edge 10, Type (0, 1), BuildingBlock: UVAHIK_clean_linker_0, # of connection points: 2
#     Edge 11, Type (0, 1), BuildingBlock: UVAHIK_clean_linker_0, # of connection points: 2
#     Edge 12, Type (0, 1), BuildingBlock: UVAHIK_clean_linker_0, # of connection points: 2
#     Edge 13, Type (0, 1), BuildingBlock: UVAHIK_clean_linker_0, # of connection points: 2
#     Edge 14, Type (0, 1), BuildingBlock: UVAHIK_clean_linker_0, # of connection points: 2
#     Edge 15, Type (0, 1), BuildingBlock: UVAHIK_clean_linker_0, # of connection points: 2
# Relax obj value: 0.071
# Max RMSD: 0.223
# Mean RMSD: 0.192
data_MOF--net-ftw--node1-QEWDON_clean_sbu_0--node2-AZAVOO_clean_linker_0--edge1-UVAHIK_clean_linker_0
_symmetry_space_group_name_H-M    P1
_symmetry_Int_Tables_number       1
_symmetry_cell_setting            triclinic
loop_
_symmetry_equiv_pos_as_xyz
'x, y, z'
_cell_length_a     33.57482
_cell_length_b     33.332285
_cell_length_c     35.425393
_cell_angle_alpha  91.460437
_cell_angle_beta   88.690855
_cell_angle_gamma 91.407945
loop_
_atom_site_label
_atom_site_type_symbol
_atom_site_fract_x
_atom_site_fract_y
_atom_site_fract_z
_atom_type_partial_charge
H0 H 0.06875 0.25392 0.43954 0.0
H1 H 0.95122 0.56642 0.74616 0.0
H2 H 0.07518 0.47422 0.42652 0.0
H3 H 0.08027 0.43565 0.36717 0.0
H4 H 0.95235 0.43981 0.35648 0.0
H5 H 0.9481 0.48021 0.41488 0.0
H6 H 0.07329 0.41927 0.49908 0.0
H7 H 0.08275 0.34954 0.47805 0.0
H8 H 0.9612 0.3429 0.44004 0.0
H9 H 0.95206 0.41247 0.46162 0.0
H10 H 0.05849 0.46162 0.58522 0.0
H11 H 0.05541 0.41068 0.63408 0.0
H12 H 0.94304 0.3659 0.59108 0.0
H13 H 0.94571 0.41757 0.54307 0.0
H14 H 0.05754 0.5534 0.58498 0.0
H15 H 0.05216 0.57541 0.65127 0.0
H16 H 0.93226 0.52516 0.65754 0.0
H17 H 0.9378 0.50397 0.591 0.0
H18 H 0.06092 0.60138 0.51166 0.0
H19 H 0.06563 0.66346 0.54983 0.0
H20 H 0.94315 0.64579 0.58728 0.0
H21 H 0.93842 0.58477 0.54795 0.0
H22 H 0.06144 0.55365 0.4232 0.0
H23 H 0.05775 0.60201 0.37249 0.0
H24 H 0.94081 0.6355 0.41319 0.0
H25 H 0.9436 0.58547 0.46269 0.0
O26 O 0.06422 0.28126 0.44809 0.0
O27 O 0.00161 0.27951 0.42882 0.0
O28 O 0.01575 0.58377 0.71504 0.0
O29 O 0.95422 0.55787 0.71995 0.0
C30 C 0.00736 0.49339 0.46512 0.0
C31 C 0.00716 0.46373 0.49301 0.0
C32 C 0.0035 0.47477 0.53157 0.0
C33 C 0.00074 0.51564 0.54242 0.0
C34 C 0.00066 0.54553 0.51461 0.0
C35 C 0.00375 0.53444 0.47578 0.0
C36 C 0.01131 0.48015 0.42488 0.0
C37 C 0.04851 0.46813 0.4105 0.0
C38 C 0.05121 0.44547 0.37688 0.0
C39 C 0.01663 0.4337 0.35732 0.0
C40 C 0.97969 0.44843 0.37047 0.0
C41 C 0.97713 0.47165 0.40387 0.0
C42 C 0.01209 0.42087 0.4817 0.0
C43 C 0.04871 0.40257 0.48642 0.0
C44 C 0.05404 0.36281 0.47428 0.0
C45 C 0.02278 0.34069 0.45721 0.0
C46 C 0.98593 0.3591 0.45297 0.0
C47 C 0.98063 0.39881 0.46522 0.0
C48 C 0.0023 0.44332 0.56063 0.0
C49 C 0.03314 0.44093 0.58651 0.0
C50 C 0.03135 0.4119 0.61431 0.0
C51 C -0.00097 0.38436 0.61622 0.0
C52 C 0.96848 0.3865 0.58995 0.0
C53 C 0.96996 0.41594 0.56258 0.0
C54 C 0.998 0.52728 0.58318 0.0
C55 C 0.03013 0.54724 0.60073 0.0
C56 C 0.02699 0.55971 0.6386 0.0
C57 C 0.99173 0.55209 0.6597 0.0
C58 C 0.9598 0.53155 0.64211 0.0
C59 C 0.96291 0.51929 0.60416 0.0
C60 C -0.00054 0.58837 0.52731 0.0
C61 C 0.03464 0.61189 0.52682 0.0
C62 C 0.03742 0.64703 0.54914 0.0
C63 C 0.00507 0.65912 0.5724 0.0
C64 C 0.96864 0.63756 0.56974 0.0
C65 C 0.96583 0.60261 0.54722 0.0
C66 C 0.00258 0.56551 0.44642 0.0
C67 C 0.03478 0.57097 0.42094 0.0
C68 C 0.03276 0.59868 0.39214 0.0
C69 C -0.00107 0.62221 0.38899 0.0
C70 C 0.96722 0.6177 0.41517 0.0
C71 C 0.96886 0.58927 0.44343 0.0
C72 C 0.02872 0.29866 0.44383 0.0
C73 C 0.98812 0.56558 0.69987 0.0
H74 H 0.58991 0.92491 0.27016 0.0
H75 H 0.25395 0.05194 0.56065 0.0
H76 H 0.59051 0.92669 0.47398 0.0
H77 H 0.65028 0.92598 0.43348 0.0
H78 H 0.65564 0.05576 0.43819 0.0
H79 H 0.5969 0.05589 0.48021 0.0
H80 H 0.5173 0.92129 0.42179 0.0
H81 H 0.54372 0.91099 0.35735 0.0
H82 H 0.57348 0.03774 0.35212 0.0
H83 H 0.54665 0.04759 0.41642 0.0
H84 H 0.42226 0.93386 0.45695 0.0
H85 H 0.37185 0.9342 0.40791 0.0
H86 H 0.41511 0.05169 0.37477 0.0
H87 H 0.46414 0.05158 0.4246 0.0
H88 H 0.41629 0.94056 0.54406 0.0
H89 H 0.34644 0.94743 0.56399 0.0
H90 H 0.34913 0.06904 0.52405 0.0
H91 H 0.41909 0.06183 0.50461 0.0
H92 H 0.48304 0.94155 0.59388 0.0
H93 H 0.44595 0.94912 0.65396 0.0
H94 H 0.43861 0.07658 0.63622 0.0
H95 H 0.47427 0.06831 0.57579 0.0
H96 H 0.58471 0.9357 0.54761 0.0
H97 H 0.63577 0.93617 0.59599 0.0
H98 H 0.60459 0.05679 0.63011 0.0
H99 H 0.55493 0.05706 0.58029 0.0
O100 O 0.57852 0.92983 0.29514 0.0
O101 O 0.59305 0.99524 0.29385 0.0
O102 O 0.28166 0.98565 0.57291 0.0
O103 O 0.28147 0.04831 0.55281 0.0
C104 C 0.54695 0.9921 0.49219 0.0
C105 C 0.51776 0.9904 0.46397 0.0
C106 C 0.47709 0.9929 0.47404 0.0
C107 C 0.46545 0.99702 0.51238 0.0
C108 C 0.49456 0.99861 0.54072 0.0
C109 C 0.53546 0.99589 0.53071 0.0
C110 C 0.58945 0.99132 0.48001 0.0
C111 C 0.60581 0.95484 0.4678 0.0
C112 C 0.63952 0.95459 0.44405 0.0
C113 C 0.65705 0.99087 0.43162 0.0
C114 C 0.64298 0.02728 0.44715 0.0
C115 C 0.60949 0.02745 0.47137 0.0
C116 C 0.53015 0.98513 0.42366 0.0
C117 C 0.52906 0.94683 0.40644 0.0
C118 C 0.54437 0.94103 0.36974 0.0
C119 C 0.56094 0.97351 0.34966 0.0
C120 C 0.56105 0.01206 0.36681 0.0
C121 C 0.54567 0.0178 0.40346 0.0
C122 C 0.4468 0.99268 0.44421 0.0
C123 C 0.42061 0.95966 0.43911 0.0
C124 C 0.39209 0.95981 0.41095 0.0
C125 C 0.38939 0.99301 0.38746 0.0
C126 C 0.41592 0.02591 0.39271 0.0
C127 C 0.44422 0.02579 0.42091 0.0
C128 C 0.42264 0.00072 0.52298 0.0
C129 C 0.40168 0.96862 0.53964 0.0
C130 C 0.36182 0.97264 0.55097 0.0
C131 C 0.34221 0.00884 0.54567 0.0
C132 C 0.36332 0.04079 0.52858 0.0
C133 C 0.40321 0.03674 0.51734 0.0
C134 C 0.48126 0.00439 0.58061 0.0
C135 C 0.47432 0.97121 0.6036 0.0
C136 C 0.4531 0.97563 0.63786 0.0
C137 C 0.4387 0.01337 0.64958 0.0
C138 C 0.44844 0.04695 0.62762 0.0
C139 C 0.46926 0.04243 0.59334 0.0
C140 C 0.56608 0.99635 0.56033 0.0
C141 C 0.58924 0.96245 0.56513 0.0
C142 C 0.61825 0.96269 0.59277 0.0
C143 C 0.62394 0.99652 0.61663 0.0
C144 C 0.60051 0.03031 0.61212 0.0
C145 C 0.57212 0.03041 0.58385 0.0
C146 C 0.57843 0.96703 0.31119 0.0
C147 C 0.29997 0.0134 0.55798 0.0
H148 H 0.25357 0.30655 0.03626 0.0
H149 H 0.72813 0.39442 0.06569 0.0
H150 H 0.38759 0.50754 0.00269 0.0
H151 H 0.31474 0.50962 0.00422 0.0
H152 H 0.31328 0.4688 0.11925 0.0
H153 H 0.38561 0.46905 0.11789 0.0
H154 H 0.38709 0.4159 1.00048 0.0
H155 H 0.32822 0.37141 0.00439 0.0
H156 H 0.36081 0.33876 0.11675 0.0
H157 H 0.41921 0.38405 0.11276 0.0
H158 H 0.46518 0.36062 0.9999 0.0
H159 H 0.48488 0.29035 1.00084 0.0
H160 H 0.53646 0.31219 0.11047 0.0
H161 H 0.5152 0.38158 0.10982 0.0
H162 H 0.54797 0.40632 0.99143 0.0
H163 H 0.6167 0.38361 0.98649 0.0
H164 H 0.63939 0.43545 0.09732 0.0
H165 H 0.57044 0.45746 0.1021 0.0
H166 H 0.55571 0.49928 0.98909 0.0
H167 H 0.6188 0.53706 0.98783 0.0
H168 H 0.5935 0.58312 0.10092 0.0
H169 H 0.53135 0.54324 0.10253 0.0
H170 H 0.48011 0.55495 0.99556 0.0
H171 H 0.46438 0.62611 0.99443 0.0
H172 H 0.41432 0.6188 0.10775 0.0
H173 H 0.43244 0.54846 0.10931 0.0
O174 O 0.27747 0.3233 0.03503 0.0
O175 O 0.29681 0.30551 0.09173 0.0
O176 O 0.68736 0.37613 0.01038 0.0
O177 O 0.70071 0.40275 0.06703 0.0
C178 C 0.43358 0.47451 0.05573 0.0
C179 C 0.44117 0.43286 0.05492 0.0
C180 C 0.48067 0.41957 0.05279 0.0
C181 C 0.51261 0.44774 0.04974 0.0
C182 C 0.50503 0.48932 0.04914 0.0
C183 C 0.46546 0.50284 0.05255 0.0
C184 C 0.39172 0.4875 0.05998 0.0
C185 C 0.37145 0.50081 0.02869 0.0
C186 C 0.3298 0.50147 0.02951 0.0
C187 C 0.30793 0.48836 0.06152 0.0
C188 C 0.32879 0.47931 0.09413 0.0
C189 C 0.37031 0.4792 0.09341 0.0
C190 C 0.40737 0.4032 0.05634 0.0
C191 C 0.38154 0.39897 0.02585 0.0
C192 C 0.34792 0.37356 0.02817 0.0
C193 C 0.33973 0.3516 0.06093 0.0
C194 C 0.36622 0.35527 0.09113 0.0
C195 C 0.39971 0.38092 0.08886 0.0
C196 C 0.489 0.37615 0.0547 0.0
C197 C 0.48002 0.34987 0.02439 0.0
C198 C 0.49155 0.30987 0.02489 0.0
C199 C 0.51243 0.29561 0.05566 0.0
C200 C 0.51992 0.32184 0.08657 0.0
C201 C 0.50817 0.36166 0.08613 0.0
C202 C 0.55427 0.43355 0.04709 0.0
C203 C 0.56779 0.41252 0.01468 0.0
C204 C 0.60707 0.3997 0.0119 0.0
C205 C 0.63358 0.40778 0.0415 0.0
C206 C 0.61981 0.42876 0.074 0.0
C207 C 0.58047 0.44143 0.07679 0.0
C208 C 0.53914 0.5183 0.04599 0.0
C209 C 0.56361 0.51797 0.01338 0.0
C210 C 0.59961 0.53977 0.0127 0.0
C211 C 0.61154 0.56286 0.04446 0.0
C212 C 0.5857 0.56495 0.07629 0.0
C213 C 0.54988 0.5427 0.07709 0.0
C214 C 0.45725 0.54644 0.05245 0.0
C215 C 0.4663 0.56896 0.02032 0.0
C216 C 0.45692 0.60956 0.01963 0.0
C217 C 0.43782 0.62833 0.05092 0.0
C218 C 0.42953 0.6057 0.08332 0.0
C219 C 0.4394 0.56528 0.08414 0.0
C220 C 0.30349 0.32534 0.06361 0.0
C221 C 0.67544 0.39453 0.03856 0.0
Zn222 Zn 0.06893 0.10195 0.97657 0.0
Zn223 Zn 0.04497 0.09281 0.06442 0.0
O224 O 0.05484 0.06158 0.01643 0.0
H225 H 0.04686 0.03393 0.01154 0.0
C226 C 0.93683 0.08993 0.90294 0.0
O227 O 0.9428 0.05163 0.89595 0.0
Zn228 Zn 0.96037 0.90767 0.0573 0.0
Zn229 Zn 0.94606 0.90044 0.96814 0.0
O230 O 0.94922 0.94037 0.01227 0.0
H231 H 0.95604 0.96853 0.00991 0.0
Zn232 Zn 0.90531 0.05989 0.9756 0.0
O233 O 0.94385 0.05242 0.01744 0.0
Zn234 Zn 0.91207 0.04258 0.0649 0.0
H235 H 0.97146 0.04575 0.01325 0.0
Zn236 Zn 0.10656 0.94748 0.96703 0.0
O237 O 0.06585 0.95103 0.01021 0.0
H238 H 0.03809 0.95679 0.00701 0.0
Zn239 Zn 0.09653 0.95919 0.05803 0.0
C240 C 0.05802 0.9172 0.90139 0.0
O241 O 0.02993 0.93988 0.91615 0.0
O242 O 0.06664 0.16064 0.99612 0.0
O243 O 0.05097 0.15312 0.05695 0.0
O244 O 0.93648 0.84251 0.98549 0.0
O245 O 0.94611 0.8488 0.04725 0.0
O246 O 0.84683 0.05777 0.9943 0.0
O247 O 0.85249 0.04616 0.0556 0.0
C248 C 0.09916 0.04124 0.10132 0.0
O249 O 0.16324 0.93873 0.98589 0.0
O250 O 0.15534 0.94733 0.0481 0.0
O251 O 0.9137 0.91569 0.92157 0.0
C252 C 0.05926 0.17552 0.02898 0.0
O253 O 0.11248 0.08736 0.93642 0.0
C254 C 0.91421 0.96207 0.10401 0.0
O255 O 0.92155 0.1009 0.93457 0.0
C256 C 0.93714 0.8274 0.01814 0.0
O257 O 0.09143 0.91606 0.91752 0.0
C258 C 0.96442 0.09763 0.10237 0.0
O259 O 0.0846 0.0761 0.10237 0.0
O260 O 0.08732 0.0165 0.07573 0.0
C261 C 0.83116 0.05223 0.02695 0.0
O262 O 0.92616 0.92624 0.10142 0.0
O263 O 0.9261 0.98669 0.07916 0.0
C264 C 0.03916 0.90748 0.09569 0.0
O265 O 0.92818 0.08577 0.10301 0.0
O266 O 0.98877 0.07904 0.08072 0.0
C267 C 0.1773 0.93949 0.01904 0.0
O268 O 0.07465 0.92123 0.09769 0.0
O269 O 0.01804 0.91788 0.06853 0.0
C270 C 0.89936 0.95024 0.91767 0.0
O271 O 0.90619 0.97844 0.94345 0.0
C272 C 0.1379 0.06055 0.94186 0.0
O273 O 0.13631 0.04101 0.97364 0.0
C274 C 0.99264 0.40405 0.29526 0.0
C275 C 0.01859 0.40311 0.32584 0.0
C276 C 0.99212 0.37305 0.26782 0.0
C277 C 0.01993 0.26627 0.2549 0.0
H278 H 0.99369 0.28353 0.15062 0.0
C279 C 0.01229 0.13676 0.14315 0.0
C280 C 0.97642 0.13445 0.1236 0.0
C281 C 0.02219 0.17106 0.16492 0.0
C282 C 0.00108 0.27835 0.17968 0.0
H283 H 0.06485 0.36864 0.35087 0.0
H284 H 0.06538 0.31615 0.30232 0.0
H285 H 0.00291 0.34118 0.19386 0.0
H286 H 0.92313 0.16623 0.11059 0.0
H287 H 0.94066 0.22644 0.14807 0.0
H288 H 0.01818 0.20345 0.24055 0.0
C289 C 0.04468 0.34031 0.29989 0.0
C290 C 0.00616 0.31132 0.20454 0.0
C291 C 0.04488 0.37097 0.32751 0.0
C292 C 0.951 0.1673 0.12546 0.0
C293 C 0.96117 0.20183 0.14663 0.0
C294 C 0.01534 0.23343 0.22995 0.0
C295 C 0.01776 0.34043 0.27007 0.0
C296 C 0.01506 0.3057 0.24267 0.0
C297 C 0.99658 0.20386 0.16702 0.0
C298 C 0.00526 0.23906 0.19226 0.0
H299 H 0.97226 0.42847 0.29275 0.0
H300 H 0.97067 0.37412 0.24554 0.0
H301 H 0.02599 0.26052 0.28412 0.0
H302 H 0.0319 0.11152 0.14276 0.0
H303 H 0.04967 0.17184 0.18039 0.0
C304 C 0.71812 0.01878 0.39739 0.0
C305 C 0.68617 0.99069 0.39932 0.0
C306 C 0.74395 0.01934 0.36575 0.0
C307 C 0.78098 0.95437 0.28874 0.0
H308 H 0.805 0.05185 0.23427 0.0
C309 C 0.85422 0.94507 0.14267 0.0
C310 C 0.88501 0.97268 0.13399 0.0
C311 C 0.82972 0.95109 0.17446 0.0
C312 C 0.79898 0.02448 0.24944 0.0
H313 H 0.6555 0.94236 0.36857 0.0
H314 H 0.70109 0.94258 0.3144 0.0
H315 H 0.76432 0.05484 0.29265 0.0
H316 H 0.91414 0.02857 0.15107 0.0
H317 H 0.87143 0.03915 0.20741 0.0
H318 H 0.81566 0.92385 0.24637 0.0
C319 C 0.70648 0.96378 0.33752 0.0
C320 C 0.77573 0.02623 0.28281 0.0
C321 C 0.68055 0.96347 0.36879 0.0
C322 C 0.88999 0.00737 0.15682 0.0
C323 C 0.86568 0.01322 0.18914 0.0
C324 C 0.80438 0.95267 0.25578 0.0
C325 C 0.73846 0.99162 0.33567 0.0
C326 C 0.76591 0.991 0.30231 0.0
C327 C 0.83599 0.98446 0.19887 0.0
C328 C 0.81296 0.9875 0.2352 0.0
H329 H 0.72331 0.04015 0.42039 0.0
H330 H 0.76851 0.04101 0.36502 0.0
H331 H 0.77447 0.92688 0.30361 0.0
H332 H 0.84968 0.91819 0.12529 0.0
H333 H 0.80642 0.92895 0.1804 0.0
C334 C 0.99019 0.69178 0.36603 0.0
C335 C 0.99666 0.65101 0.35807 0.0
C336 C 0.9896 0.71917 0.33677 0.0
C337 C 0.02009 0.72936 0.23523 0.0
H338 H 0.95796 0.82583 0.2444 0.0
C339 C 0.01036 0.84111 0.11419 0.0
C340 C 0.02361 0.87998 0.12457 0.0
C341 C 0.00131 0.81291 0.14188 0.0
C342 C 0.97531 0.7989 0.24151 0.0
H343 H 0.00604 0.60636 0.3136 0.0
H344 H 0.00304 0.65347 0.26232 0.0
H345 H 0.95287 0.77618 0.29393 0.0
H346 H 0.03703 0.9205 0.1715 0.0
H347 H 0.01999 0.87149 0.22015 0.0
H348 H 0.04173 0.75197 0.18233 0.0
C349 C 4e-05 0.66498 0.29107 0.0
C350 C 0.97275 0.77055 0.27 0.0
C351 C 0.00149 0.63782 0.32039 0.0
C352 C 0.02638 0.89076 0.16298 0.0
C353 C 0.01658 0.86283 0.19069 0.0
C354 C 0.02196 0.75727 0.20646 0.0
C355 C 0.99466 0.70621 0.29879 0.0
C356 C 0.99554 0.73557 0.26754 0.0
C357 C 0.00491 0.82339 0.18036 0.0
C358 C -1e-05 0.7925 0.20953 0.0
H359 H 0.98662 0.70262 0.39497 0.0
H360 H 0.98614 0.75062 0.34412 0.0
H361 H 0.03885 0.70346 0.23245 0.0
H362 H 0.00923 0.83188 0.08471 0.0
H363 H 0.99251 0.78263 0.13324 0.0
C364 C 0.35032 0.95926 0.33519 0.0
C365 C 0.35904 0.99369 0.35761 0.0
C366 C 0.32297 0.96076 0.30604 0.0
C367 C 0.2789 0.03265 0.24324 0.0
H368 H 0.19511 0.9519 0.22881 0.0
C369 C 0.14447 0.06219 0.15332 0.0
C370 C 0.12955 0.03148 0.1292 0.0
C371 C 0.17361 0.05446 0.17933 0.0
C372 C 0.21873 0.97434 0.23212 0.0
H373 H 0.34442 0.0561 0.36806 0.0
H374 H 0.29728 0.05878 0.3171 0.0
H375 H 0.24388 0.9439 0.27828 0.0
H376 H 0.13303 0.96817 0.1148 0.0
H377 H 0.18471 0.95466 0.15984 0.0
H378 H 0.25398 0.06326 0.19746 0.0
C379 C 0.31208 0.03084 0.32161 0.0
C380 C 0.24657 0.96979 0.26046 0.0
C381 C 0.33915 0.0293 0.35078 0.0
C382 C 0.14419 0.99259 0.13231 0.0
C383 C 0.17357 0.98479 0.15845 0.0
C384 C 0.25131 0.03709 0.21494 0.0
C385 C 0.30403 0.99676 0.29865 0.0
C386 C 0.27638 0.9994 0.2668 0.0
C387 C 0.18883 0.01581 0.182 0.0
C388 C 0.22035 0.00851 0.20959 0.0
H389 H 0.36538 0.93144 0.33951 0.0
H390 H 0.31745 0.93408 0.28866 0.0
H391 H 0.3021 0.05549 0.24691 0.0
H392 H 0.13379 0.09252 0.15209 0.0
H393 H 0.184 0.07887 0.19763 0.0
C394 C 0.04561 0.69179 0.62375 0.0
C395 C 0.01063 0.69058 0.6026 0.0
C396 C 0.04957 0.71808 0.65482 0.0
C397 C 0.00837 0.80918 0.70195 0.0
H398 H 0.05745 0.7662 0.78985 0.0
C399 C 0.01453 0.89384 0.84778 0.0
C400 C 0.05097 0.89267 0.86653 0.0
C401 C 0.0081 0.87018 0.8151 0.0
C402 C 0.04399 0.77881 0.76545 0.0
H403 H 0.95285 0.71724 0.59705 0.0
H404 H 0.95951 0.7628 0.65183 0.0
H405 H 0.04937 0.72396 0.73343 0.0
H406 H 0.1093 0.86594 0.86534 0.0
H407 H 0.09811 0.82499 0.80863 0.0
H408 H 0.00289 0.8641 0.7344 0.0
C409 C 0.98404 0.74354 0.64406 0.0
C410 C 0.03944 0.75461 0.73302 0.0
C411 C 0.98009 0.7172 0.61283 0.0
C412 C 0.08081 0.8675 0.85177 0.0
C413 C 0.07433 0.84381 0.81932 0.0
C414 C 0.01284 0.83344 0.73456 0.0
C415 C 0.01858 0.74378 0.66584 0.0
C416 C 0.02204 0.76958 0.70066 0.0
C417 C 0.03787 0.84467 0.80067 0.0
C418 C 0.03116 0.81865 0.76652 0.0
H419 H 0.0695 0.67132 0.61722 0.0
H420 H 0.07687 0.7179 0.67051 0.0
H421 H 0.99507 0.82176 0.67747 0.0
H422 H 0.99088 0.91287 0.8584 0.0
H423 H 0.97957 0.8713 0.80154 0.0
C424 C 0.41606 0.99592 0.71575 0.0
C425 C 0.4108 0.01736 0.6826 0.0
C426 C 0.38884 0.99941 0.74617 0.0
C427 C 0.31253 0.0668 0.78641 0.0
H428 H 0.26959 0.97231 0.83608 0.0
C429 C 0.1711 0.07373 0.87936 0.0
C430 C 0.1699 0.05286 0.91334 0.0
C431 C 0.20211 0.06807 0.85304 0.0
C432 C 0.2817 0.99902 0.82285 0.0
H433 H 0.37187 0.05803 0.655 0.0
H434 H 0.32512 0.06453 0.70795 0.0
H435 H 0.32193 0.96522 0.7873 0.0
H436 H 0.19999 0.00893 0.94594 0.0
H437 H 0.25448 0.9993 0.89992 0.0
H438 H 0.27241 0.10066 0.82154 0.0
C439 C 0.35063 0.04565 0.7108 0.0
C440 C 0.31166 0.99496 0.79494 0.0
C441 C 0.37758 0.04202 0.68047 0.0
C442 C 0.20006 0.02552 0.92005 0.0
C443 C 0.2312 0.01987 0.89362 0.0
C444 C 0.28278 0.07087 0.81426 0.0
C445 C 0.35596 0.02452 0.74403 0.0
C446 C 0.32683 0.02877 0.77596 0.0
C447 C 0.23281 0.04149 0.86002 0.0
C448 C 0.26644 0.03699 0.83232 0.0
H449 H 0.4414 0.97677 0.71834 0.0
H450 H 0.39378 0.9829 0.77152 0.0
H451 H 0.3242 0.09351 0.77282 0.0
H452 H 0.1482 0.09475 0.87312 0.0
H453 H 0.20195 0.08454 0.82708 0.0
C454 C 0.98763 0.3135 0.63653 0.0
C455 C 0.99674 0.35384 0.64589 0.0
C456 C 0.98424 0.28491 0.66468 0.0
C457 C 0.95945 0.27478 0.76458 0.0
H458 H 0.01099 0.17213 0.75426 0.0
C459 C 0.95045 0.16089 0.8842 0.0
C460 C 0.9469 0.11998 0.87405 0.0
C461 C 0.95905 0.18945 0.85682 0.0
C462 C 0.99592 0.2004 0.7574 0.0
H463 H 0.00945 0.39601 0.69185 0.0
H464 H 0.00297 0.34603 0.74123 0.0
H465 H 0.02111 0.22177 0.70527 0.0
H466 H 0.94955 0.07684 0.82729 0.0
H467 H 0.96315 0.12671 0.77929 0.0
H468 H 0.93309 0.25331 0.81588 0.0
C469 C -0.00132 0.33657 0.71209 0.0
C470 C 0.00192 0.22888 0.7294 0.0
C471 C 0.00265 0.36505 0.68388 0.0
C472 C 0.95237 0.10816 0.836 0.0
C473 C 0.96041 0.13679 0.8085 0.0
C474 C 0.953 0.24616 0.79232 0.0
C475 C 0.98932 0.29626 0.70276 0.0
C476 C 0.98374 0.26632 0.73274 0.0
C477 C 0.96371 0.17787 0.81853 0.0
C478 C 0.97115 0.20855 0.78914 0.0
H479 H 0.98317 0.30408 0.60741 0.0
H480 H 0.97674 0.25409 0.65676 0.0
H481 H 0.94464 0.30324 0.76759 0.0
H482 H 0.94679 0.17088 0.91339 0.0
H483 H 0.96221 0.22064 0.8658 0.0
C484 C 0.69375 0.98739 0.63715 0.0
C485 C 0.65404 0.99621 0.6464 0.0
C486 C 0.72202 0.98584 0.66539 0.0
C487 C 0.73838 0.0118 0.76749 0.0
H488 H 0.82145 0.93367 0.75456 0.0
C489 C 0.85982 0.99648 0.87902 0.0
C490 C 0.8737 0.95784 0.88529 0.0
C491 C 0.83506 0.00329 0.84872 0.0
C492 C 0.79821 0.95534 0.75898 0.0
H493 H 0.61241 0.0102 0.69205 0.0
H494 H 0.66108 0.00562 0.74172 0.0
H495 H 0.77367 0.94075 0.70522 0.0
H496 H 0.8718 0.89587 0.86504 0.0
H497 H 0.82728 0.90718 0.81366 0.0
H498 H 0.76137 0.02445 0.82235 0.0
C499 C 0.67107 0.0013 0.71267 0.0
C500 C 0.77109 0.95998 0.73019 0.0
C501 C 0.64302 0.00367 0.68429 0.0
C502 C 0.86199 0.92611 0.86082 0.0
C503 C 0.83664 0.93273 0.83103 0.0
C504 C 0.76506 0.0066 0.79661 0.0
C505 C 0.711 0.99218 0.70366 0.0
C506 C 0.74066 0.98819 0.73403 0.0
C507 C 0.82285 0.97142 0.82443 0.0
C508 C 0.79526 0.97814 0.79286 0.0
H509 H 0.70296 0.98192 0.608 0.0
H510 H 0.75254 0.97972 0.65708 0.0
H511 H 0.7159 0.03436 0.77137 0.0
H512 H 0.86796 0.02153 0.89754 0.0
H513 H 0.82567 0.03362 0.84434 0.0
C514 C 0.25041 0.45811 0.02609 0.0
C515 C 0.26479 0.47727 0.05909 0.0
C516 C 0.21299 0.439 0.02611 0.0
C517 C 0.15287 0.38146 0.09046 0.0
H518 H 0.0834 0.3684 0.00488 0.0
C519 C 0.05893 0.23714 0.07153 0.0
C520 C 0.06378 0.21952 0.03524 0.0
C521 C 0.06913 0.27765 0.07809 0.0
C522 C 0.10237 0.37175 0.02913 0.0
H523 H 0.24907 0.49477 0.11687 0.0
H524 H 0.18409 0.45999 0.11716 0.0
H525 H 0.12882 0.42664 0.00909 0.0
H526 H 0.08015 0.23154 0.97691 0.0
H527 H 0.09879 0.30119 0.9884 0.0
H528 H 0.12921 0.32515 0.10903 0.0
C529 C 0.20205 0.45988 0.09136 0.0
C530 C 0.12818 0.40521 0.0316 0.0
C531 C 0.23934 0.47958 0.0912 0.0
C532 C 0.07634 0.24394 0.00528 0.0
C533 C 0.08666 0.28423 0.01185 0.0
C534 C 0.12741 0.3478 0.0878 0.0
C535 C 0.1892 0.43817 0.05922 0.0
C536 C 0.15489 0.40944 0.06144 0.0
C537 C 0.08446 0.30132 0.04853 0.0
C538 C 0.10324 0.34155 0.05616 0.0
H539 H 0.26917 0.45497 1.00098 0.0
H540 H 0.20414 0.42207 1.00104 0.0
H541 H 0.17337 0.38373 0.11363 0.0
H542 H 0.04882 0.21931 0.09517 0.0
H543 H 0.06641 0.29001 0.10658 0.0
C544 C 0.42487 0.69605 0.08151 0.0
C545 C 0.4246 0.6706 0.04917 0.0
C546 C 0.4086 0.73424 0.08073 0.0
C547 C 0.3754 0.81288 0.01769 0.0
H548 H 0.29256 0.83002 0.09397 0.0
C549 C 0.23976 0.90864 0.99332 0.0
C550 C 0.21822 0.92514 0.02422 0.0
C551 C 0.27415 0.88708 0.99893 0.0
C552 C 0.31625 0.82658 0.07298 0.0
H553 H 0.40801 0.66628 0.99027 0.0
H554 H 0.38061 0.73305 0.98881 0.0
H555 H 0.33662 0.77383 0.09897 0.0
H556 H 0.21848 0.93571 0.08492 0.0
H557 H 0.27924 0.89913 0.09458 0.0
H558 H 0.35463 0.86521 0.99126 0.0
C559 C 0.39357 0.72344 0.01471 0.0
C560 C 0.34145 0.79413 0.07582 0.0
C561 C 0.40937 0.68511 0.01558 0.0
C562 C 0.23398 0.92284 0.06052 0.0
C563 C 0.2687 0.90157 0.06609 0.0
C564 C 0.35052 0.84569 0.01508 0.0
C565 C 0.39222 0.74804 0.04747 0.0
C566 C 0.37039 0.78619 0.04757 0.0
C567 C 0.2882 0.88188 0.03555 0.0
C568 C 0.31966 0.85214 0.04198 0.0
H569 H 0.43711 0.68628 0.10765 0.0
H570 H 0.40825 0.75276 0.1063 0.0
H571 H 0.39787 0.80774 0.99579 0.0
H572 H 0.22872 0.91006 0.9649 0.0
H573 H 0.28802 0.87225 0.97466 0.0
C574 C 0.54761 0.23997 0.02074 0.0
C575 C 0.52962 0.2549 0.0543 0.0
C576 C 0.56931 0.20478 0.02067 0.0
C577 C 0.63146 0.15218 0.084 0.0
H578 H 0.64131 0.07656 0.99952 0.0
C579 C 0.76944 0.05547 0.06832 0.0
C580 C 0.78762 0.05717 0.03222 0.0
C581 C 0.72988 0.06688 0.07398 0.0
C582 C 0.6389 0.09737 0.0234 0.0
H583 H 0.51763 0.24264 0.1134 0.0
H584 H 0.55633 0.18152 0.11336 0.0
H585 H 0.58465 0.12118 0.00363 0.0
H586 H 0.77738 0.06897 0.97326 0.0
H587 H 0.70931 0.08968 0.98323 0.0
H588 H 0.68682 0.13063 0.10257 0.0
C589 C 0.5538 0.19735 0.08723 0.0
C590 C 0.60639 0.1228 0.02578 0.0
C591 C 0.53182 0.23242 0.08725 0.0
C592 C 0.76451 0.06762 1.00153 0.0
C593 C 0.72515 0.07918 0.00722 0.0
C594 C 0.66409 0.12703 0.08148 0.0
C595 C 0.57373 0.18384 0.05418 0.0
C596 C 0.60312 0.15142 0.05542 0.0
C597 C 0.70775 0.08032 0.0437 0.0
C598 C 0.66901 0.10037 0.0504 0.0
H599 H 0.54702 0.2567 0.99496 0.0
H600 H 0.58476 0.19545 0.99486 0.0
H601 H 0.63001 0.17419 0.10699 0.0
H602 H 0.78623 0.04706 0.09252 0.0
H603 H 0.71714 0.06664 0.10234 0.0
C604 C 0.67409 0.58443 0.07792 0.0
C605 C 0.65151 0.58314 0.04489 0.0
C606 C 0.71203 0.60265 0.0781 0.0
C607 C 0.79596 0.63314 0.01612 0.0
H608 H 0.81604 0.7166 0.09195 0.0
C609 C 0.90441 0.76486 0.99212 0.0
C610 C 0.92071 0.78617 0.02308 0.0
C611 C 0.88005 0.73095 0.99767 0.0
C612 C 0.81162 0.69266 0.07112 0.0
H613 H 0.65125 0.60047 0.98622 0.0
H614 H 0.71773 0.63146 0.98645 0.0
H615 H 0.75543 0.67537 0.09632 0.0
H616 H 0.92812 0.78569 0.08377 0.0
H617 H 0.88639 0.72575 0.09335 0.0
H618 H 0.8518 0.65068 0.99052 0.0
C619 C 0.70607 0.61803 0.01208 0.0
C620 C 0.77667 0.66921 0.07355 0.0
C621 C 0.66797 0.60029 0.012 0.0
C622 C 0.91552 0.77035 0.05934 0.0
C623 C 0.89132 0.73615 0.06487 0.0
C624 C 0.83118 0.65624 0.01392 0.0
C625 C 0.72841 0.61945 0.04513 0.0
C626 C 0.76792 0.64016 0.04541 0.0
C627 C 0.87171 0.71724 0.0343 0.0
C628 C 0.8388 0.68727 0.04065 0.0
H629 H 0.66277 0.57081 0.10356 0.0
H630 H 0.72875 0.60322 0.10391 0.0
H631 H 0.79017 0.6104 0.9944 0.0
H632 H 0.90805 0.77593 0.96373 0.0
H633 H 0.86543 0.71744 0.97339 0.0
loop_
_geom_bond_atom_site_label_1
_geom_bond_atom_site_label_2
_geom_bond_distance
_geom_bond_site_symmetry_2
_ccdc_geom_bond_type
H0 O26 0.856 . S
H1 O29 0.854 . S
H2 C37 0.930 . S
H3 C38 0.930 . S
H4 C40 0.930 . S
H5 C41 0.930 . S
H6 C43 0.931 . S
H7 C44 0.930 . S
H8 C46 0.930 . S
H9 C47 0.929 . S
H10 C49 0.930 . S
H11 C50 0.931 . S
H12 C52 0.930 . S
H13 C53 0.929 . S
H14 C55 0.931 . S
H15 C56 0.930 . S
H16 C58 0.930 . S
H17 C59 0.932 . S
H18 C61 0.930 . S
H19 C62 0.929 . S
H20 C64 0.931 . S
H21 C65 0.930 . S
H22 C67 0.929 . S
H23 C68 0.931 . S
H24 C70 0.930 . S
H25 C71 0.929 . S
O26 H0 0.856 . S
O26 C72 1.300 1_455 S
O27 C72 1.209 . S
O28 C73 1.199 1_455 S
O29 H1 0.854 . S
O29 C73 1.297 . S
C30 C31 1.404 1_455 S
C30 C35 1.397 . S
C30 C36 1.493 . S
C31 C30 1.404 1_655 S
C31 C32 1.396 . S
C31 C42 1.492 . S
C32 C31 1.396 . S
C32 C33 1.397 . S
C32 C48 1.509 . S
C33 C32 1.397 . S
C33 C34 1.412 1_655 S
C33 C54 1.485 . S
C34 C33 1.412 1_455 S
C34 C35 1.388 . S
C34 C60 1.490 . S
C35 C30 1.397 . S
C35 C34 1.388 . S
C35 C66 1.519 . S
C36 C30 1.493 . S
C36 C37 1.363 . S
C36 C41 1.390 1_455 S
C37 H2 0.930 . S
C37 C36 1.363 . S
C37 C38 1.372 . S
C38 H3 0.930 . S
C38 C37 1.372 . S
C38 C39 1.383 . S
C39 C38 1.383 . S
C39 C40 1.395 1_455 S
C40 H4 0.930 . S
C40 C39 1.395 1_655 S
C40 C41 1.362 . S
C41 H5 0.930 . S
C41 C36 1.390 1_655 S
C41 C40 1.362 . S
C42 C31 1.492 . S
C42 C43 1.377 1_655 S
C42 C47 1.397 . S
C43 H6 0.931 . S
C43 C42 1.377 1_455 S
C43 C44 1.376 . S
C44 H7 0.930 . S
C44 C43 1.376 . S
C44 C45 1.376 1_455 S
C45 C44 1.376 1_655 S
C45 C46 1.378 . S
C45 C72 1.486 . S
C46 H8 0.930 . S
C46 C45 1.378 . S
C46 C47 1.376 . S
C47 H9 0.929 . S
C47 C42 1.397 . S
C47 C46 1.376 . S
C48 C32 1.509 . S
C48 C49 1.391 1_655 S
C48 C53 1.386 . S
C49 H10 0.930 . S
C49 C48 1.391 1_455 S
C49 C50 1.375 . S
C50 H11 0.931 . S
C50 C49 1.375 . S
C50 C51 1.375 1_455 S
C51 C50 1.375 1_655 S
C51 C52 1.361 . S
C52 H12 0.930 . S
C52 C51 1.361 . S
C52 C53 1.399 . S
C53 H13 0.929 . S
C53 C48 1.386 . S
C53 C52 1.399 . S
C54 C33 1.485 . S
C54 C55 1.394 1_655 S
C54 C59 1.360 . S
C55 H14 0.931 . S
C55 C54 1.394 1_455 S
C55 C56 1.372 . S
C56 H15 0.930 . S
C56 C55 1.372 . S
C56 C57 1.397 1_455 S
C57 C56 1.397 1_655 S
C57 C58 1.390 . S
C57 C73 1.476 . S
C58 H16 0.930 . S
C58 C57 1.390 . S
C58 C59 1.366 . S
C59 H17 0.932 . S
C59 C54 1.360 . S
C59 C58 1.366 . S
C60 C34 1.490 . S
C60 C61 1.380 . S
C60 C65 1.386 1_455 S
C61 H18 0.930 . S
C61 C60 1.380 . S
C61 C62 1.381 . S
C62 H19 0.929 . S
C62 C61 1.381 . S
C62 C63 1.371 . S
C63 C62 1.371 . S
C63 C64 1.380 1_455 S
C64 H20 0.931 . S
C64 C63 1.380 1_655 S
C64 C65 1.387 . S
C65 H21 0.930 . S
C65 C60 1.386 1_655 S
C65 C64 1.387 . S
C66 C35 1.519 . S
C66 C67 1.377 . S
C66 C71 1.360 1_455 S
C67 H22 0.929 . S
C67 C66 1.377 . S
C67 C68 1.386 . S
C68 H23 0.931 . S
C68 C67 1.386 . S
C68 C69 1.363 1_455 S
C69 C68 1.363 1_655 S
C69 C70 1.385 . S
C70 H24 0.930 . S
C70 C69 1.385 . S
C70 C71 1.396 . S
C71 H25 0.929 . S
C71 C66 1.360 1_655 S
C71 C70 1.396 . S
C72 O26 1.300 1_655 S
C72 O27 1.209 . S
C72 C45 1.486 . S
C73 O28 1.199 1_655 S
C73 O29 1.297 . S
C73 C57 1.476 . S
H74 O100 0.856 . S
H75 O103 0.854 . S
H76 C111 0.930 . S
H77 C112 0.930 . S
H78 C114 0.930 . S
H79 C115 0.930 . S
H80 C117 0.931 . S
H81 C118 0.930 . S
H82 C120 0.930 . S
H83 C121 0.929 . S
H84 C123 0.930 . S
H85 C124 0.931 . S
H86 C126 0.930 . S
H87 C127 0.929 . S
H88 C129 0.931 . S
H89 C130 0.930 . S
H90 C132 0.930 . S
H91 C133 0.932 . S
H92 C135 0.930 . S
H93 C136 0.929 . S
H94 C138 0.931 . S
H95 C139 0.930 . S
H96 C141 0.929 . S
H97 C142 0.931 . S
H98 C144 0.930 . S
H99 C145 0.929 . S
O100 H74 0.856 . S
O100 C146 1.300 1_565 S
O101 C146 1.209 . S
O102 C147 1.199 1_565 S
O103 H75 0.854 . S
O103 C147 1.297 . S
C104 C105 1.404 . S
C104 C109 1.397 . S
C104 C110 1.492 1_545 S
C105 C104 1.404 . S
C105 C106 1.396 . S
C105 C116 1.492 . S
C106 C105 1.396 . S
C106 C107 1.397 . S
C106 C122 1.509 . S
C107 C106 1.397 . S
C107 C108 1.412 . S
C107 C128 1.485 . S
C108 C107 1.412 . S
C108 C109 1.388 . S
C108 C134 1.489 1_545 S
C109 C104 1.397 . S
C109 C108 1.388 . S
C109 C140 1.519 . S
C110 C104 1.492 1_565 S
C110 C111 1.364 . S
C110 C115 1.389 1_565 S
C111 H76 0.930 . S
C111 C110 1.364 . S
C111 C112 1.372 . S
C112 H77 0.930 . S
C112 C111 1.372 . S
C112 C113 1.383 . S
C113 C112 1.383 . S
C113 C114 1.395 1_565 S
C114 H78 0.930 . S
C114 C113 1.395 1_545 S
C114 C115 1.362 . S
C115 H79 0.930 . S
C115 C110 1.389 1_545 S
C115 C114 1.362 . S
C116 C105 1.492 . S
C116 C117 1.377 1_545 S
C116 C121 1.397 . S
C117 H80 0.931 . S
C117 C116 1.377 1_565 S
C117 C118 1.376 . S
C118 H81 0.930 . S
C118 C117 1.376 . S
C118 C119 1.376 1_565 S
C119 C118 1.376 1_545 S
C119 C120 1.378 . S
C119 C146 1.486 . S
C120 H82 0.930 . S
C120 C119 1.378 . S
C120 C121 1.376 . S
C121 H83 0.929 . S
C121 C116 1.397 . S
C121 C120 1.376 . S
C122 C106 1.509 . S
C122 C123 1.391 1_545 S
C122 C127 1.386 . S
C123 H84 0.930 . S
C123 C122 1.391 1_565 S
C123 C124 1.375 . S
C124 H85 0.931 . S
C124 C123 1.375 . S
C124 C125 1.375 1_565 S
C125 C124 1.375 1_545 S
C125 C126 1.361 . S
C126 H86 0.930 . S
C126 C125 1.361 . S
C126 C127 1.399 . S
C127 H87 0.929 . S
C127 C122 1.386 . S
C127 C126 1.399 . S
C128 C107 1.485 . S
C128 C129 1.394 1_545 S
C128 C133 1.360 . S
C129 H88 0.931 . S
C129 C128 1.394 1_565 S
C129 C130 1.372 . S
C130 H89 0.930 . S
C130 C129 1.372 . S
C130 C131 1.397 1_565 S
C131 C130 1.397 1_545 S
C131 C132 1.390 . S
C131 C147 1.476 . S
C132 H90 0.930 . S
C132 C131 1.390 . S
C132 C133 1.366 . S
C133 H91 0.932 . S
C133 C128 1.360 . S
C133 C132 1.366 . S
C134 C108 1.489 1_565 S
C134 C135 1.395 . S
C134 C139 1.373 1_565 S
C135 H92 0.930 . S
C135 C134 1.395 . S
C135 C136 1.381 . S
C136 H93 0.929 . S
C136 C135 1.381 . S
C136 C137 1.371 . S
C137 C136 1.371 . S
C137 C138 1.380 1_565 S
C138 H94 0.931 . S
C138 C137 1.380 1_545 S
C138 C139 1.387 . S
C139 H95 0.930 . S
C139 C134 1.373 1_545 S
C139 C138 1.387 . S
C140 C109 1.519 . S
C140 C141 1.377 1_545 S
C140 C145 1.361 . S
C141 H96 0.929 . S
C141 C140 1.377 1_565 S
C141 C142 1.386 . S
C142 H97 0.931 . S
C142 C141 1.386 . S
C142 C143 1.363 1_565 S
C143 C142 1.363 1_545 S
C143 C144 1.385 . S
C144 H98 0.930 . S
C144 C143 1.385 . S
C144 C145 1.396 . S
C145 H99 0.929 . S
C145 C140 1.361 . S
C145 C144 1.396 . S
C146 O100 1.300 1_545 S
C146 O101 1.209 . S
C146 C119 1.486 . S
C147 O102 1.199 1_545 S
C147 O103 1.297 . S
C147 C131 1.476 . S
H148 O174 0.856 . S
H149 O177 0.854 . S
H150 C185 0.930 . S
H151 C186 0.930 . S
H152 C188 0.930 . S
H153 C189 0.930 . S
H154 C191 0.931 . S
H155 C192 0.942 . S
H156 C194 0.930 . S
H157 C195 0.929 . S
H158 C197 0.951 . S
H159 C198 0.931 1_556 S
H160 C200 0.930 . S
H161 C201 0.929 . S
H162 C203 0.931 . S
H163 C204 0.930 . S
H164 C206 0.930 . S
H165 C207 0.932 . S
H166 C209 0.930 . S
H167 C210 0.929 . S
H168 C212 0.931 . S
H169 C213 0.930 . S
H170 C215 0.929 . S
H171 C216 0.931 . S
H172 C218 0.930 . S
H173 C219 0.929 . S
O174 H148 0.856 . S
O174 C220 1.300 . S
O175 C220 1.209 . S
O176 C221 1.199 . S
O177 H149 0.854 . S
O177 C221 1.297 . S
C178 C179 1.404 . S
C178 C183 1.397 . S
C178 C184 1.492 . S
C179 C178 1.404 . S
C179 C180 1.396 . S
C179 C190 1.492 . S
C180 C179 1.396 . S
C180 C181 1.397 . S
C180 C196 1.509 . S
C181 C180 1.397 . S
C181 C182 1.412 . S
C181 C202 1.485 . S
C182 C181 1.412 . S
C182 C183 1.388 . S
C182 C208 1.490 . S
C183 C178 1.397 . S
C183 C182 1.388 . S
C183 C214 1.519 . S
C184 C178 1.492 . S
C184 C185 1.363 1_554 S
C184 C189 1.390 . S
C185 H150 0.930 . S
C185 C184 1.363 1_556 S
C185 C186 1.372 . S
C186 H151 0.930 . S
C186 C185 1.372 . S
C186 C187 1.383 1_556 S
C187 C186 1.383 1_554 S
C187 C188 1.395 . S
C188 H152 0.930 . S
C188 C187 1.395 . S
C188 C189 1.362 . S
C189 H153 0.930 . S
C189 C184 1.390 . S
C189 C188 1.362 . S
C190 C179 1.492 . S
C190 C191 1.377 1_554 S
C190 C195 1.397 . S
C191 H154 0.931 . S
C191 C190 1.377 1_556 S
C191 C192 1.377 . S
C192 H155 0.942 . S
C192 C191 1.377 . S
C192 C193 1.363 1_556 S
C193 C192 1.363 1_554 S
C193 C194 1.378 . S
C193 C220 1.486 . S
C194 H156 0.930 . S
C194 C193 1.378 . S
C194 C195 1.376 . S
C195 H157 0.929 . S
C195 C190 1.397 . S
C195 C194 1.376 . S
C196 C180 1.509 . S
C196 C197 1.374 1_554 S
C196 C201 1.386 . S
C197 H158 0.951 . S
C197 C196 1.374 1_556 S
C197 C198 1.371 1_556 S
C198 H159 0.931 1_554 S
C198 C197 1.371 1_554 S
C198 C199 1.375 . S
C199 C198 1.375 . S
C199 C200 1.361 . S
C200 H160 0.930 . S
C200 C199 1.361 . S
C200 C201 1.399 . S
C201 H161 0.929 . S
C201 C196 1.386 . S
C201 C200 1.399 . S
C202 C181 1.485 . S
C202 C203 1.394 1_554 S
C202 C207 1.360 . S
C203 H162 0.931 . S
C203 C202 1.394 1_556 S
C203 C204 1.372 . S
C204 H163 0.930 . S
C204 C203 1.372 . S
C204 C205 1.397 1_556 S
C205 C204 1.397 1_554 S
C205 C206 1.390 . S
C205 C221 1.476 . S
C206 H164 0.930 . S
C206 C205 1.390 . S
C206 C207 1.366 . S
C207 H165 0.932 . S
C207 C202 1.360 . S
C207 C206 1.366 . S
C208 C182 1.490 . S
C208 C209 1.380 1_554 S
C208 C213 1.386 . S
C209 H166 0.930 . S
C209 C208 1.380 1_556 S
C209 C210 1.381 . S
C210 H167 0.929 . S
C210 C209 1.381 . S
C210 C211 1.371 1_556 S
C211 C210 1.371 1_554 S
C211 C212 1.380 . S
C212 H168 0.931 . S
C212 C211 1.380 . S
C212 C213 1.387 . S
C213 H169 0.930 . S
C213 C208 1.386 . S
C213 C212 1.387 . S
C214 C183 1.519 . S
C214 C215 1.377 1_554 S
C214 C219 1.361 . S
C215 H170 0.929 . S
C215 C214 1.377 1_556 S
C215 C216 1.386 . S
C216 H171 0.931 . S
C216 C215 1.386 . S
C216 C217 1.363 1_556 S
C217 C216 1.363 1_554 S
C217 C218 1.385 . S
C218 H172 0.930 . S
C218 C217 1.385 . S
C218 C219 1.396 . S
C219 H173 0.929 . S
C219 C214 1.361 . S
C219 C218 1.396 . S
C220 O174 1.300 . S
C220 O175 1.209 . S
C220 C193 1.486 . S
C221 O176 1.199 . S
C221 O177 1.297 . S
C221 C205 1.476 . S
Zn222 O224 1.933 1_556 S
Zn222 O242 1.985 . S
Zn222 O253 1.955 . S
Zn223 O224 1.911 . S
Zn223 O243 1.970 . S
Zn223 O259 1.945 . S
Zn223 O266 1.981 . S
O224 Zn222 1.933 1_554 S
O224 Zn223 1.911 . S
O224 H225 0.841 . S
H225 O224 0.841 . S
C226 O227 1.246 . S
C226 O255 1.276 1_455 S
O227 C226 1.246 . S
Zn228 O230 1.911 . S
Zn228 O245 1.970 . S
Zn228 O262 1.945 . S
Zn228 O269 1.981 . S
Zn229 O230 1.933 1_556 S
Zn229 O244 1.985 . S
Zn229 O251 1.955 . S
O230 Zn228 1.911 . S
O230 Zn229 1.933 1_554 S
O230 H231 0.841 . S
H231 O230 0.841 . S
Zn232 O233 1.933 1_556 S
Zn232 O246 1.985 . S
Zn232 O255 1.955 . S
O233 Zn232 1.933 1_554 S
O233 Zn234 1.911 . S
O233 H235 0.841 . S
Zn234 O233 1.911 . S
Zn234 O247 1.970 . S
Zn234 O263 1.981 . S
Zn234 O265 1.945 . S
H235 O233 0.841 . S
Zn236 O237 1.933 1_556 S
Zn236 O249 1.985 . S
Zn236 O257 1.955 . S
O237 Zn236 1.933 1_554 S
O237 H238 0.841 . S
O237 Zn239 1.911 . S
H238 O237 0.841 . S
Zn239 O237 1.911 . S
Zn239 O250 1.970 . S
Zn239 O260 1.981 . S
Zn239 O268 1.945 . S
C240 O241 1.246 . S
C240 O257 1.276 1_655 S
O241 C240 1.246 . S
O242 Zn222 1.985 . S
O242 C252 1.245 1_556 S
O243 Zn223 1.970 . S
O243 C252 1.263 . S
O244 Zn229 1.985 . S
O244 C256 1.245 1_556 S
O245 Zn228 1.970 . S
O245 C256 1.263 . S
O246 Zn232 1.985 . S
O246 C261 1.245 1_556 S
O247 Zn234 1.970 . S
O247 C261 1.263 . S
C248 O259 1.262 . S
C248 O260 1.245 1_545 S
O249 Zn236 1.985 . S
O249 C267 1.245 1_556 S
O250 Zn239 1.970 . S
O250 C267 1.263 . S
O251 Zn229 1.955 . S
O251 C270 1.276 1_565 S
C252 O242 1.245 1_554 S
C252 O243 1.263 . S
O253 Zn222 1.955 . S
O253 C272 1.288 . S
C254 O262 1.262 1_545 S
C254 O263 1.245 . S
O255 C226 1.276 1_655 S
O255 Zn232 1.955 . S
C256 O244 1.245 1_554 S
C256 O245 1.263 . S
O257 Zn236 1.955 . S
O257 C240 1.276 1_455 S
C258 O265 1.237 1_455 S
C258 O266 1.258 . S
O259 Zn223 1.945 . S
O259 C248 1.262 . S
O260 Zn239 1.981 . S
O260 C248 1.245 1_565 S
C261 O246 1.245 1_554 S
C261 O247 1.263 . S
O262 Zn228 1.945 . S
O262 C254 1.262 1_565 S
O263 Zn234 1.981 . S
O263 C254 1.245 . S
C264 O268 1.262 1_655 S
C264 O269 1.245 . S
O265 Zn234 1.945 . S
O265 C258 1.237 1_655 S
O266 Zn223 1.981 . S
O266 C258 1.258 . S
C267 O249 1.245 1_554 S
C267 O250 1.263 . S
O268 Zn239 1.945 . S
O268 C264 1.262 1_455 S
O269 Zn228 1.981 . S
O269 C264 1.245 . S
C270 O251 1.276 1_545 S
C270 O271 1.246 . S
O271 C270 1.246 . S
C272 O253 1.288 . S
C272 O273 1.239 1_545 S
O273 C272 1.239 1_565 S
C274 C275 1.349 . S
C274 C276 1.327 . S
C274 H299 0.950 . S
C275 C274 1.349 . S
C275 C291 1.349 . S
C276 C274 1.327 . S
C276 C295 1.429 . S
C276 H300 0.950 . S
C277 C294 1.574 . S
C277 C296 1.368 . S
C277 H301 0.949 . S
H278 C282 0.949 . S
C279 C280 1.349 . S
C279 C281 1.327 . S
C279 H302 0.950 . S
C280 C279 1.349 . S
C280 C292 1.349 . S
C281 C279 1.327 . S
C281 C297 1.429 . S
C281 H303 0.950 . S
C282 H278 0.949 . S
C282 C290 1.574 . S
C282 C298 1.368 . S
H283 C291 0.950 . S
H284 C289 0.950 . S
H285 C290 0.949 . S
H286 C292 0.950 . S
H287 C293 0.950 . S
H288 C294 0.949 . S
C289 H284 0.950 . S
C289 C291 1.327 . S
C289 C295 1.429 . S
C290 C282 1.574 . S
C290 H285 0.949 . S
C290 C296 1.368 . S
C291 C275 1.349 . S
C291 H283 0.950 . S
C291 C289 1.327 . S
C292 C280 1.349 . S
C292 H286 0.950 . S
C292 C293 1.327 . S
C293 H287 0.950 . S
C293 C292 1.327 . S
C293 C297 1.429 . S
C294 C277 1.574 . S
C294 H288 0.949 . S
C294 C298 1.368 . S
C295 C276 1.429 . S
C295 C289 1.429 . S
C295 C296 1.523 . S
C296 C277 1.368 . S
C296 C290 1.368 . S
C296 C295 1.523 . S
C297 C281 1.429 . S
C297 C293 1.429 . S
C297 C298 1.523 . S
C298 C282 1.368 . S
C298 C294 1.368 . S
C298 C297 1.523 . S
H299 C274 0.950 . S
H300 C276 0.950 . S
H301 C277 0.949 . S
H302 C279 0.950 . S
H303 C281 0.950 . S
C304 C305 1.349 1_545 S
C304 C306 1.327 . S
C304 H329 0.950 . S
C305 C304 1.349 1_565 S
C305 C321 1.349 . S
C306 C304 1.327 . S
C306 C325 1.429 1_545 S
C306 H330 0.950 . S
C307 C324 1.574 . S
C307 C326 1.368 . S
C307 H331 0.949 . S
H308 C312 0.949 . S
C309 C310 1.349 1_565 S
C309 C311 1.327 . S
C309 H332 0.950 . S
C310 C309 1.349 1_545 S
C310 C322 1.349 . S
C311 C309 1.327 . S
C311 C327 1.429 1_565 S
C311 H333 0.950 . S
C312 H308 0.949 . S
C312 C320 1.574 . S
C312 C328 1.368 . S
H313 C321 0.950 . S
H314 C319 0.950 . S
H315 C320 0.949 . S
H316 C322 0.950 . S
H317 C323 0.950 . S
H318 C324 0.949 . S
C319 H314 0.950 . S
C319 C321 1.327 . S
C319 C325 1.429 . S
C320 C312 1.574 . S
C320 H315 0.949 . S
C320 C326 1.368 1_545 S
C321 C305 1.349 . S
C321 H313 0.950 . S
C321 C319 1.327 . S
C322 C310 1.349 . S
C322 H316 0.950 . S
C322 C323 1.327 . S
C323 H317 0.950 . S
C323 C322 1.327 . S
C323 C327 1.429 . S
C324 C307 1.574 . S
C324 H318 0.949 . S
C324 C328 1.368 1_565 S
C325 C306 1.429 1_565 S
C325 C319 1.429 . S
C325 C326 1.523 . S
C326 C307 1.368 . S
C326 C320 1.368 1_565 S
C326 C325 1.523 . S
C327 C311 1.429 1_545 S
C327 C323 1.429 . S
C327 C328 1.523 . S
C328 C312 1.368 . S
C328 C324 1.368 1_545 S
C328 C327 1.523 . S
H329 C304 0.950 . S
H330 C306 0.950 . S
H331 C307 0.949 . S
H332 C309 0.950 . S
H333 C311 0.950 . S
C334 C335 1.349 . S
C334 C336 1.327 . S
C334 H359 0.950 . S
C335 C334 1.349 . S
C335 C351 1.349 1_655 S
C336 C334 1.327 . S
C336 C355 1.429 . S
C336 H360 0.950 . S
C337 C354 1.574 . S
C337 C356 1.368 1_455 S
C337 H361 0.949 . S
H338 C342 0.949 . S
C339 C340 1.349 1_455 S
C339 C341 1.327 . S
C339 H362 0.950 . S
C340 C339 1.349 1_655 S
C340 C352 1.349 . S
C341 C339 1.327 . S
C341 C357 1.429 1_455 S
C341 H363 0.950 . S
C342 H338 0.949 . S
C342 C350 1.574 . S
C342 C358 1.368 . S
H343 C351 0.950 . S
H344 C349 0.950 . S
H345 C350 0.949 . S
H346 C352 0.950 . S
H347 C353 0.950 . S
H348 C354 0.949 . S
C349 H344 0.950 . S
C349 C351 1.327 . S
C349 C355 1.429 1_455 S
C350 C342 1.574 . S
C350 H345 0.949 . S
C350 C356 1.368 . S
C351 C335 1.349 1_455 S
C351 H343 0.950 . S
C351 C349 1.327 . S
C352 C340 1.349 . S
C352 H346 0.950 . S
C352 C353 1.327 . S
C353 H347 0.950 . S
C353 C352 1.327 . S
C353 C357 1.429 . S
C354 C337 1.574 . S
C354 H348 0.949 . S
C354 C358 1.368 1_455 S
C355 C336 1.429 . S
C355 C349 1.429 1_655 S
C355 C356 1.523 . S
C356 C337 1.368 1_655 S
C356 C350 1.368 . S
C356 C355 1.523 . S
C357 C341 1.429 1_655 S
C357 C353 1.429 . S
C357 C358 1.523 . S
C358 C342 1.368 . S
C358 C354 1.368 1_655 S
C358 C357 1.523 . S
H359 C334 0.950 . S
H360 C336 0.950 . S
H361 C337 0.949 . S
H362 C339 0.950 . S
H363 C341 0.950 . S
C364 C365 1.349 1_565 S
C364 C366 1.327 . S
C364 H389 0.950 . S
C365 C364 1.349 1_545 S
C365 C381 1.349 . S
C366 C364 1.327 . S
C366 C385 1.429 1_565 S
C366 H390 0.950 . S
C367 C384 1.574 . S
C367 C386 1.368 . S
C367 H391 0.949 . S
H368 C372 0.949 . S
C369 C370 1.349 1_545 S
C369 C371 1.327 . S
C369 H392 0.950 . S
C370 C369 1.349 1_565 S
C370 C382 1.349 . S
C371 C369 1.327 . S
C371 C387 1.429 . S
C371 H393 0.950 . S
C372 H368 0.949 . S
C372 C380 1.574 . S
C372 C388 1.368 1_565 S
H373 C381 0.950 . S
H374 C379 0.950 . S
H375 C380 0.949 . S
H376 C382 0.950 . S
H377 C383 0.950 . S
H378 C384 0.949 . S
C379 H374 0.950 . S
C379 C381 1.327 . S
C379 C385 1.429 . S
C380 C372 1.574 . S
C380 H375 0.949 . S
C380 C386 1.368 1_565 S
C381 C365 1.349 . S
C381 H373 0.950 . S
C381 C379 1.327 . S
C382 C370 1.349 . S
C382 H376 0.950 . S
C382 C383 1.327 . S
C383 H377 0.950 . S
C383 C382 1.327 . S
C383 C387 1.429 1_565 S
C384 C367 1.574 . S
C384 H378 0.949 . S
C384 C388 1.368 . S
C385 C366 1.429 1_545 S
C385 C379 1.429 . S
C385 C386 1.523 . S
C386 C367 1.368 . S
C386 C380 1.368 1_545 S
C386 C385 1.523 . S
C387 C371 1.429 . S
C387 C383 1.429 1_545 S
C387 C388 1.523 . S
C388 C372 1.368 1_545 S
C388 C384 1.368 . S
C388 C387 1.523 . S
H389 C364 0.950 . S
H390 C366 0.950 . S
H391 C367 0.949 . S
H392 C369 0.950 . S
H393 C371 0.950 . S
C394 C395 1.349 . S
C394 C396 1.327 . S
C394 H419 0.950 . S
C395 C394 1.349 . S
C395 C411 1.349 1_455 S
C396 C394 1.327 . S
C396 C415 1.429 . S
C396 H420 0.950 . S
C397 C414 1.574 . S
C397 C416 1.368 1_655 S
C397 H421 0.949 . S
H398 C402 0.949 . S
C399 C400 1.349 . S
C399 C401 1.327 . S
C399 H422 0.950 . S
C400 C399 1.349 . S
C400 C412 1.349 1_655 S
C401 C399 1.327 . S
C401 C417 1.429 . S
C401 H423 0.950 . S
C402 H398 0.949 . S
C402 C410 1.574 . S
C402 C418 1.376 . S
H403 C411 0.950 . S
H404 C409 0.950 . S
H405 C410 0.949 . S
H406 C412 0.950 . S
H407 C413 0.950 . S
H408 C414 0.949 . S
C409 H404 0.950 . S
C409 C411 1.327 . S
C409 C415 1.429 1_655 S
C410 C402 1.574 . S
C410 H405 0.949 . S
C410 C416 1.368 . S
C411 C395 1.349 1_655 S
C411 H403 0.950 . S
C411 C409 1.327 . S
C412 C400 1.349 1_455 S
C412 H406 0.950 . S
C412 C413 1.327 . S
C413 H407 0.950 . S
C413 C412 1.327 . S
C413 C417 1.429 1_455 S
C414 C397 1.574 . S
C414 H408 0.949 . S
C414 C418 1.362 1_655 S
C415 C396 1.429 . S
C415 C409 1.429 1_455 S
C415 C416 1.523 . S
C416 C397 1.368 1_455 S
C416 C410 1.368 . S
C416 C415 1.523 . S
C417 C401 1.429 . S
C417 C413 1.429 1_655 S
C417 C418 1.522 1_655 S
C418 C402 1.376 . S
C418 C414 1.362 1_455 S
C418 C417 1.522 1_455 S
H419 C394 0.950 . S
H420 C396 0.950 . S
H421 C397 0.949 . S
H422 C399 0.950 . S
H423 C401 0.950 . S
C424 C425 1.349 . S
C424 C426 1.327 . S
C424 H449 0.950 . S
C425 C424 1.349 . S
C425 C441 1.349 1_565 S
C426 C424 1.327 . S
C426 C445 1.429 . S
C426 H450 0.950 . S
C427 C444 1.574 . S
C427 C446 1.368 1_545 S
C427 H451 0.949 . S
H428 C432 0.949 . S
C429 C430 1.349 1_545 S
C429 C431 1.327 . S
C429 H452 0.950 . S
C430 C429 1.349 1_565 S
C430 C442 1.349 . S
C431 C429 1.327 . S
C431 C447 1.429 1_545 S
C431 H453 0.950 . S
C432 H428 0.949 . S
C432 C440 1.574 . S
C432 C448 1.368 . S
H433 C441 0.950 . S
H434 C439 0.950 . S
H435 C440 0.949 . S
H436 C442 0.950 . S
H437 C443 0.950 . S
H438 C444 0.949 . S
C439 H434 0.950 . S
C439 C441 1.327 . S
C439 C445 1.429 1_545 S
C440 C432 1.574 . S
C440 H435 0.949 . S
C440 C446 1.368 . S
C441 C425 1.349 1_545 S
C441 H433 0.950 . S
C441 C439 1.327 . S
C442 C430 1.349 . S
C442 H436 0.950 . S
C442 C443 1.327 . S
C443 H437 0.950 . S
C443 C442 1.327 . S
C443 C447 1.429 . S
C444 C427 1.574 . S
C444 H438 0.949 . S
C444 C448 1.368 1_545 S
C445 C426 1.429 . S
C445 C439 1.429 1_565 S
C445 C446 1.523 . S
C446 C427 1.368 1_565 S
C446 C440 1.368 . S
C446 C445 1.523 . S
C447 C431 1.429 1_565 S
C447 C443 1.429 . S
C447 C448 1.523 . S
C448 C432 1.368 . S
C448 C444 1.368 1_565 S
C448 C447 1.523 . S
H449 C424 0.950 . S
H450 C426 0.950 . S
H451 C427 0.949 . S
H452 C429 0.950 . S
H453 C431 0.950 . S
C454 C455 1.349 . S
C454 C456 1.327 . S
C454 H479 0.950 . S
C455 C454 1.349 . S
C455 C471 1.349 . S
C456 C454 1.327 . S
C456 C475 1.429 . S
C456 H480 0.950 . S
C457 C474 1.574 1_655 S
C457 C476 1.368 . S
C457 H481 0.949 . S
H458 C462 0.950 . S
C459 C460 1.349 . S
C459 C461 1.327 . S
C459 H482 0.950 . S
C460 C459 1.349 . S
C460 C472 1.349 . S
C461 C459 1.327 . S
C461 C477 1.429 . S
C461 H483 0.950 . S
C462 H458 0.950 . S
C462 C470 1.574 . S
C462 C478 1.368 1_655 S
H463 C471 0.950 . S
H464 C469 0.950 . S
H465 C470 0.949 . S
H466 C472 0.950 . S
H467 C473 0.950 . S
H468 C474 0.949 . S
C469 H464 0.950 . S
C469 C471 1.327 . S
C469 C475 1.429 . S
C470 C462 1.574 . S
C470 H465 0.949 . S
C470 C476 1.368 . S
C471 C455 1.349 . S
C471 H463 0.950 . S
C471 C469 1.327 . S
C472 C460 1.349 . S
C472 H466 0.950 . S
C472 C473 1.327 . S
C473 H467 0.950 . S
C473 C472 1.327 . S
C473 C477 1.429 . S
C474 C457 1.574 1_455 S
C474 H468 0.949 . S
C474 C478 1.368 . S
C475 C456 1.429 . S
C475 C469 1.429 . S
C475 C476 1.523 . S
C476 C457 1.368 . S
C476 C470 1.368 . S
C476 C475 1.523 . S
C477 C461 1.429 . S
C477 C473 1.429 . S
C477 C478 1.523 . S
C478 C462 1.368 1_455 S
C478 C474 1.368 . S
C478 C477 1.523 . S
H479 C454 0.950 . S
H480 C456 0.950 . S
H481 C457 0.949 . S
H482 C459 0.950 . S
H483 C461 0.950 . S
C484 C485 1.349 1_565 S
C484 C486 1.327 . S
C484 H509 0.950 . S
C485 C484 1.349 1_545 S
C485 C501 1.349 . S
C486 C484 1.327 . S
C486 C505 1.429 1_565 S
C486 H510 0.950 . S
C487 C504 1.574 . S
C487 C506 1.368 . S
C487 H511 0.949 . S
H488 C492 0.949 . S
C489 C490 1.349 . S
C489 C491 1.327 . S
C489 H512 0.950 . S
C490 C489 1.349 . S
C490 C502 1.349 1_545 S
C491 C489 1.327 . S
C491 C507 1.429 . S
C491 H513 0.950 . S
C492 H488 0.949 . S
C492 C500 1.574 . S
C492 C508 1.368 1_565 S
H493 C501 0.950 . S
H494 C499 0.950 . S
H495 C500 0.949 . S
H496 C502 0.950 . S
H497 C503 0.950 . S
H498 C504 0.949 . S
C499 H494 0.950 . S
C499 C501 1.327 . S
C499 C505 1.429 . S
C500 C492 1.574 . S
C500 H495 0.949 . S
C500 C506 1.368 1_565 S
C501 C485 1.349 . S
C501 H493 0.950 . S
C501 C499 1.327 . S
C502 C490 1.349 1_565 S
C502 H496 0.950 . S
C502 C503 1.327 . S
C503 H497 0.950 . S
C503 C502 1.327 . S
C503 C507 1.429 1_565 S
C504 C487 1.574 . S
C504 H498 0.949 . S
C504 C508 1.368 . S
C505 C486 1.429 1_545 S
C505 C499 1.429 . S
C505 C506 1.523 . S
C506 C487 1.368 . S
C506 C500 1.368 1_545 S
C506 C505 1.523 . S
C507 C491 1.429 . S
C507 C503 1.429 1_545 S
C507 C508 1.523 . S
C508 C492 1.368 1_545 S
C508 C504 1.368 . S
C508 C507 1.523 . S
H509 C484 0.950 . S
H510 C486 0.950 . S
H511 C487 0.949 . S
H512 C489 0.950 . S
H513 C491 0.950 . S
C514 C515 1.349 1_556 S
C514 C516 1.327 . S
C514 H539 0.950 . S
C515 C514 1.349 1_554 S
C515 C531 1.349 . S
C516 C514 1.327 . S
C516 C535 1.429 1_556 S
C516 H540 0.950 . S
C517 C534 1.574 . S
C517 C536 1.368 . S
C517 H541 0.949 . S
H518 C522 0.949 . S
C519 C520 1.349 . S
C519 C521 1.327 . S
C519 H542 0.950 . S
C520 C519 1.349 . S
C520 C532 1.349 1_554 S
C521 C519 1.327 . S
C521 C537 1.429 . S
C521 H543 0.950 . S
C522 H518 0.949 . S
C522 C530 1.574 . S
C522 C538 1.368 1_556 S
H523 C531 0.950 . S
H524 C529 0.950 . S
H525 C530 0.949 . S
H526 C532 0.950 . S
H527 C533 0.950 . S
H528 C534 0.949 . S
C529 H524 0.950 . S
C529 C531 1.327 . S
C529 C535 1.429 . S
C530 C522 1.574 . S
C530 H525 0.949 . S
C530 C536 1.368 1_556 S
C531 C515 1.349 . S
C531 H523 0.950 . S
C531 C529 1.327 . S
C532 C520 1.349 1_556 S
C532 H526 0.950 . S
C532 C533 1.327 . S
C533 H527 0.950 . S
C533 C532 1.327 . S
C533 C537 1.429 1_556 S
C534 C517 1.574 . S
C534 H528 0.949 . S
C534 C538 1.368 . S
C535 C516 1.429 1_554 S
C535 C529 1.429 . S
C535 C536 1.523 . S
C536 C517 1.368 . S
C536 C530 1.368 1_554 S
C536 C535 1.523 . S
C537 C521 1.429 . S
C537 C533 1.429 1_554 S
C537 C538 1.523 . S
C538 C522 1.368 1_554 S
C538 C534 1.368 . S
C538 C537 1.523 . S
H539 C514 0.950 . S
H540 C516 0.950 . S
H541 C517 0.949 . S
H542 C519 0.950 . S
H543 C521 0.950 . S
C544 C545 1.349 . S
C544 C546 1.327 . S
C544 H569 0.950 . S
C545 C544 1.349 . S
C545 C561 1.349 . S
C546 C544 1.327 . S
C546 C565 1.429 . S
C546 H570 0.950 . S
C547 C564 1.574 . S
C547 C566 1.368 1_556 S
C547 H571 0.949 . S
H548 C552 0.949 . S
C549 C550 1.349 1_556 S
C549 C551 1.327 . S
C549 H572 0.950 . S
C550 C549 1.349 1_554 S
C550 C562 1.349 . S
C551 C549 1.327 . S
C551 C567 1.429 1_556 S
C551 H573 0.950 . S
C552 H548 0.949 . S
C552 C560 1.574 . S
C552 C568 1.368 . S
H553 C561 0.950 1_556 S
H554 C559 0.960 . S
H555 C560 0.949 . S
H556 C562 0.950 . S
H557 C563 0.950 . S
H558 C564 0.949 . S
C559 H554 0.960 . S
C559 C561 1.326 1_556 S
C559 C565 1.420 1_556 S
C560 C552 1.574 . S
C560 H555 0.949 . S
C560 C566 1.368 . S
C561 C545 1.349 . S
C561 H553 0.950 1_554 S
C561 C559 1.326 1_554 S
C562 C550 1.349 . S
C562 H556 0.950 . S
C562 C563 1.327 . S
C563 H557 0.950 . S
C563 C562 1.327 . S
C563 C567 1.429 . S
C564 C547 1.574 . S
C564 H558 0.949 . S
C564 C568 1.368 1_556 S
C565 C546 1.429 . S
C565 C559 1.420 1_554 S
C565 C566 1.523 . S
C566 C547 1.368 1_554 S
C566 C560 1.368 . S
C566 C565 1.523 . S
C567 C551 1.429 1_554 S
C567 C563 1.429 . S
C567 C568 1.523 . S
C568 C552 1.368 . S
C568 C564 1.368 1_554 S
C568 C567 1.523 . S
H569 C544 0.950 . S
H570 C546 0.950 . S
H571 C547 0.949 . S
H572 C549 0.950 . S
H573 C551 0.950 . S
C574 C575 1.349 . S
C574 C576 1.327 . S
C574 H599 0.950 1_554 S
C575 C574 1.349 . S
C575 C591 1.349 . S
C576 C574 1.327 . S
C576 C595 1.429 . S
C576 H600 0.950 1_554 S
C577 C594 1.574 . S
C577 C596 1.368 . S
C577 H601 0.949 . S
H578 C582 0.950 1_556 S
C579 C580 1.349 . S
C579 C581 1.327 . S
C579 H602 0.950 . S
C580 C579 1.349 . S
C580 C592 1.349 1_554 S
C581 C579 1.327 . S
C581 C597 1.429 . S
C581 H603 0.950 . S
C582 H578 0.950 1_554 S
C582 C590 1.574 . S
C582 C598 1.368 . S
H583 C591 0.950 . S
H584 C589 0.950 . S
H585 C590 0.949 1_556 S
H586 C592 0.950 . S
H587 C593 0.950 . S
H588 C594 0.949 . S
C589 H584 0.950 . S
C589 C591 1.327 . S
C589 C595 1.429 . S
C590 C582 1.574 . S
C590 H585 0.949 1_554 S
C590 C596 1.368 . S
C591 C575 1.349 . S
C591 H583 0.950 . S
C591 C589 1.327 . S
C592 C580 1.349 1_556 S
C592 H586 0.950 . S
C592 C593 1.327 . S
C593 H587 0.950 . S
C593 C592 1.327 . S
C593 C597 1.429 1_556 S
C594 C577 1.574 . S
C594 H588 0.949 . S
C594 C598 1.368 . S
C595 C576 1.429 . S
C595 C589 1.429 . S
C595 C596 1.523 . S
C596 C577 1.368 . S
C596 C590 1.368 . S
C596 C595 1.523 . S
C597 C581 1.429 . S
C597 C593 1.429 1_554 S
C597 C598 1.523 . S
C598 C582 1.368 . S
C598 C594 1.368 . S
C598 C597 1.523 . S
H599 C574 0.950 1_556 S
H600 C576 0.950 1_556 S
H601 C577 0.949 . S
H602 C579 0.950 . S
H603 C581 0.950 . S
C604 C605 1.349 . S
C604 C606 1.327 . S
C604 H629 0.950 . S
C605 C604 1.349 . S
C605 C621 1.349 1_554 S
C606 C604 1.327 . S
C606 C625 1.429 . S
C606 H630 0.950 . S
C607 C624 1.574 . S
C607 C626 1.368 1_556 S
C607 H631 0.949 . S
H608 C612 0.949 . S
C609 C610 1.349 1_556 S
C609 C611 1.327 . S
C609 H632 0.950 . S
C610 C609 1.349 1_554 S
C610 C622 1.349 . S
C611 C609 1.327 . S
C611 C627 1.429 1_556 S
C611 H633 0.950 . S
C612 H608 0.949 . S
C612 C620 1.574 . S
C612 C628 1.368 . S
H613 C621 0.950 . S
H614 C619 0.950 . S
H615 C620 0.949 . S
H616 C622 0.950 . S
H617 C623 0.950 . S
H618 C624 0.949 . S
C619 H614 0.950 . S
C619 C621 1.327 . S
C619 C625 1.429 1_556 S
C620 C612 1.574 . S
C620 H615 0.949 . S
C620 C626 1.368 . S
C621 C605 1.349 1_556 S
C621 H613 0.950 . S
C621 C619 1.327 . S
C622 C610 1.349 . S
C622 H616 0.950 . S
C622 C623 1.327 . S
C623 H617 0.950 . S
C623 C622 1.327 . S
C623 C627 1.429 . S
C624 C607 1.574 . S
C624 H618 0.949 . S
C624 C628 1.368 1_556 S
C625 C606 1.429 . S
C625 C619 1.429 1_554 S
C625 C626 1.523 . S
C626 C607 1.368 1_554 S
C626 C620 1.368 . S
C626 C625 1.523 . S
C627 C611 1.429 1_554 S
C627 C623 1.429 . S
C627 C628 1.523 . S
C628 C612 1.368 . S
C628 C624 1.368 1_554 S
C628 C627 1.523 . S
H629 C604 0.950 . S
H630 C606 0.950 . S
H631 C607 0.949 . S
H632 C609 0.950 . S
H633 C611 0.950 . S
C280 C258 1.699 . S
C275 C39 1.709 . S
C310 C254 1.864 . S
C305 C113 1.829 . S
C340 C264 2.232 . S
C335 C69 2.331 . S
C370 C248 0.914 1_565 S
C365 C125 0.945 . S
C395 C63 1.898 . S
C400 C240 1.905 . S
C430 C272 1.792 1_565 S
C425 C137 1.836 . S
C455 C51 1.077 . S
C460 C226 1.019 . S
C485 C143 2.481 . S
C490 C270 2.375 . S
C515 C187 0.976 . S
C520 C252 1.008 . S
C545 C217 1.594 . S
C550 C267 1.563 . S
C580 C261 0.321 . S
C575 C199 0.174 . S
C610 C256 1.062 . S
C605 C211 1.044 . S
