# Generated by pormake.
# Topology bwt, (3,3)-cn, num edge types: 1
# Building blocks:
#     Node 0, Type 0, BuildingBlock: WUSLED_clean_sbu_0, # of connection points: 3
#     Node 1, Type 0, BuildingBlock: WUSLED_clean_sbu_0, # of connection points: 3
#     Node 2, Type 0, BuildingBlock: WUSLED_clean_sbu_0, # of connection points: 3
#     Node 3, Type 0, BuildingBlock: WUSLED_clean_sbu_0, # of connection points: 3
#     Node 4, Type 0, BuildingBlock: WUSLED_clean_sbu_0, # of connection points: 3
#     Node 5, Type 0, BuildingBlock: WUSLED_clean_sbu_0, # of connection points: 3
#     Node 6, Type 0, BuildingBlock: WUSLED_clean_sbu_0, # of connection points: 3
#     Node 7, Type 0, BuildingBlock: WUSLED_clean_sbu_0, # of connection points: 3
#     Node 8, Type 0, BuildingBlock: WUSLED_clean_sbu_0, # of connection points: 3
#     Node 9, Type 0, BuildingBlock: WUSLED_clean_sbu_0, # of connection points: 3
#     Node 10, Type 0, BuildingBlock: WUSLED_clean_sbu_0, # of connection points: 3
#     Node 11, Type 0, BuildingBlock: WUSLED_clean_sbu_0, # of connection points: 3
#     Node 12, Type 0, BuildingBlock: WUSLED_clean_sbu_0, # of connection points: 3
#     Node 13, Type 0, BuildingBlock: WUSLED_clean_sbu_0, # of connection points: 3
#     Node 14, Type 0, BuildingBlock: WUSLED_clean_sbu_0, # of connection points: 3
#     Node 15, Type 0, BuildingBlock: WUSLED_clean_sbu_0, # of connection points: 3
#     Node 16, Type 0, BuildingBlock: WUSLED_clean_sbu_0, # of connection points: 3
#     Node 17, Type 0, BuildingBlock: WUSLED_clean_sbu_0, # of connection points: 3
#     Node 18, Type 0, BuildingBlock: WUSLED_clean_sbu_0, # of connection points: 3
#     Node 19, Type 0, BuildingBlock: WUSLED_clean_sbu_0, # of connection points: 3
#     Node 20, Type 0, BuildingBlock: WUSLED_clean_sbu_0, # of connection points: 3
#     Node 21, Type 0, BuildingBlock: WUSLED_clean_sbu_0, # of connection points: 3
#     Node 22, Type 0, BuildingBlock: WUSLED_clean_sbu_0, # of connection points: 3
#     Node 23, Type 0, BuildingBlock: WUSLED_clean_sbu_0, # of connection points: 3
#     Node 24, Type 1, BuildingBlock: BELTOD_clean_linker_0, # of connection points: 3
#     Node 25, Type 1, BuildingBlock: BELTOD_clean_linker_0, # of connection points: 3
#     Node 26, Type 1, BuildingBlock: BELTOD_clean_linker_0, # of connection points: 3
#     Node 27, Type 1, BuildingBlock: BELTOD_clean_linker_0, # of connection points: 3
#     Node 28, Type 1, BuildingBlock: BELTOD_clean_linker_0, # of connection points: 3
#     Node 29, Type 1, BuildingBlock: BELTOD_clean_linker_0, # of connection points: 3
#     Node 30, Type 1, BuildingBlock: BELTOD_clean_linker_0, # of connection points: 3
#     Node 31, Type 1, BuildingBlock: BELTOD_clean_linker_0, # of connection points: 3
#     Node 32, Type 1, BuildingBlock: BELTOD_clean_linker_0, # of connection points: 3
#     Node 33, Type 1, BuildingBlock: BELTOD_clean_linker_0, # of connection points: 3
#     Node 34, Type 1, BuildingBlock: BELTOD_clean_linker_0, # of connection points: 3
#     Node 35, Type 1, BuildingBlock: BELTOD_clean_linker_0, # of connection points: 3
#     Node 36, Type 1, BuildingBlock: BELTOD_clean_linker_0, # of connection points: 3
#     Node 37, Type 1, BuildingBlock: BELTOD_clean_linker_0, # of connection points: 3
#     Node 38, Type 1, BuildingBlock: BELTOD_clean_linker_0, # of connection points: 3
#     Node 39, Type 1, BuildingBlock: BELTOD_clean_linker_0, # of connection points: 3
#     Node 40, Type 1, BuildingBlock: BELTOD_clean_linker_0, # of connection points: 3
#     Node 41, Type 1, BuildingBlock: BELTOD_clean_linker_0, # of connection points: 3
#     Node 42, Type 1, BuildingBlock: BELTOD_clean_linker_0, # of connection points: 3
#     Node 43, Type 1, BuildingBlock: BELTOD_clean_linker_0, # of connection points: 3
#     Node 44, Type 1, BuildingBlock: BELTOD_clean_linker_0, # of connection points: 3
#     Node 45, Type 1, BuildingBlock: BELTOD_clean_linker_0, # of connection points: 3
#     Node 46, Type 1, BuildingBlock: BELTOD_clean_linker_0, # of connection points: 3
#     Node 47, Type 1, BuildingBlock: BELTOD_clean_linker_0, # of connection points: 3
#     Edge 48, Type (0, 1), BuildingBlock: UVAHIK_clean_linker_0, # of connection points: 2
#     Edge 49, Type (0, 1), BuildingBlock: UVAHIK_clean_linker_0, # of connection points: 2
#     Edge 50, Type (0, 1), BuildingBlock: UVAHIK_clean_linker_0, # of connection points: 2
#     Edge 51, Type (0, 1), BuildingBlock: UVAHIK_clean_linker_0, # of connection points: 2
#     Edge 52, Type (0, 1), BuildingBlock: UVAHIK_clean_linker_0, # of connection points: 2
#     Edge 53, Type (0, 1), BuildingBlock: UVAHIK_clean_linker_0, # of connection points: 2
#     Edge 54, Type (0, 1), BuildingBlock: UVAHIK_clean_linker_0, # of connection points: 2
#     Edge 55, Type (0, 1), BuildingBlock: UVAHIK_clean_linker_0, # of connection points: 2
#     Edge 56, Type (0, 1), BuildingBlock: UVAHIK_clean_linker_0, # of connection points: 2
#     Edge 57, Type (0, 1), BuildingBlock: UVAHIK_clean_linker_0, # of connection points: 2
#     Edge 58, Type (0, 1), BuildingBlock: UVAHIK_clean_linker_0, # of connection points: 2
#     Edge 59, Type (0, 1), BuildingBlock: UVAHIK_clean_linker_0, # of connection points: 2
#     Edge 60, Type (0, 1), BuildingBlock: UVAHIK_clean_linker_0, # of connection points: 2
#     Edge 61, Type (0, 1), BuildingBlock: UVAHIK_clean_linker_0, # of connection points: 2
#     Edge 62, Type (0, 1), BuildingBlock: UVAHIK_clean_linker_0, # of connection points: 2
#     Edge 63, Type (0, 1), BuildingBlock: UVAHIK_clean_linker_0, # of connection points: 2
#     Edge 64, Type (0, 1), BuildingBlock: UVAHIK_clean_linker_0, # of connection points: 2
#     Edge 65, Type (0, 1), BuildingBlock: UVAHIK_clean_linker_0, # of connection points: 2
#     Edge 66, Type (0, 1), BuildingBlock: UVAHIK_clean_linker_0, # of connection points: 2
#     Edge 67, Type (0, 1), BuildingBlock: UVAHIK_clean_linker_0, # of connection points: 2
#     Edge 68, Type (0, 1), BuildingBlock: UVAHIK_clean_linker_0, # of connection points: 2
#     Edge 69, Type (0, 1), BuildingBlock: UVAHIK_clean_linker_0, # of connection points: 2
#     Edge 70, Type (0, 1), BuildingBlock: UVAHIK_clean_linker_0, # of connection points: 2
#     Edge 71, Type (0, 1), BuildingBlock: UVAHIK_clean_linker_0, # of connection points: 2
#     Edge 72, Type (0, 1), BuildingBlock: UVAHIK_clean_linker_0, # of connection points: 2
#     Edge 73, Type (0, 1), BuildingBlock: UVAHIK_clean_linker_0, # of connection points: 2
#     Edge 74, Type (0, 1), BuildingBlock: UVAHIK_clean_linker_0, # of connection points: 2
#     Edge 75, Type (0, 1), BuildingBlock: UVAHIK_clean_linker_0, # of connection points: 2
#     Edge 76, Type (0, 1), BuildingBlock: UVAHIK_clean_linker_0, # of connection points: 2
#     Edge 77, Type (0, 1), BuildingBlock: UVAHIK_clean_linker_0, # of connection points: 2
#     Edge 78, Type (0, 1), BuildingBlock: UVAHIK_clean_linker_0, # of connection points: 2
#     Edge 79, Type (0, 1), BuildingBlock: UVAHIK_clean_linker_0, # of connection points: 2
#     Edge 80, Type (0, 1), BuildingBlock: UVAHIK_clean_linker_0, # of connection points: 2
#     Edge 81, Type (0, 1), BuildingBlock: UVAHIK_clean_linker_0, # of connection points: 2
#     Edge 82, Type (0, 1), BuildingBlock: UVAHIK_clean_linker_0, # of connection points: 2
#     Edge 83, Type (0, 1), BuildingBlock: UVAHIK_clean_linker_0, # of connection points: 2
#     Edge 84, Type (0, 1), BuildingBlock: UVAHIK_clean_linker_0, # of connection points: 2
#     Edge 85, Type (0, 1), BuildingBlock: UVAHIK_clean_linker_0, # of connection points: 2
#     Edge 86, Type (0, 1), BuildingBlock: UVAHIK_clean_linker_0, # of connection points: 2
#     Edge 87, Type (0, 1), BuildingBlock: UVAHIK_clean_linker_0, # of connection points: 2
#     Edge 88, Type (0, 1), BuildingBlock: UVAHIK_clean_linker_0, # of connection points: 2
#     Edge 89, Type (0, 1), BuildingBlock: UVAHIK_clean_linker_0, # of connection points: 2
#     Edge 90, Type (0, 1), BuildingBlock: UVAHIK_clean_linker_0, # of connection points: 2
#     Edge 91, Type (0, 1), BuildingBlock: UVAHIK_clean_linker_0, # of connection points: 2
#     Edge 92, Type (0, 1), BuildingBlock: UVAHIK_clean_linker_0, # of connection points: 2
#     Edge 93, Type (0, 1), BuildingBlock: UVAHIK_clean_linker_0, # of connection points: 2
#     Edge 94, Type (0, 1), BuildingBlock: UVAHIK_clean_linker_0, # of connection points: 2
#     Edge 95, Type (0, 1), BuildingBlock: UVAHIK_clean_linker_0, # of connection points: 2
#     Edge 96, Type (0, 1), BuildingBlock: UVAHIK_clean_linker_0, # of connection points: 2
#     Edge 97, Type (0, 1), BuildingBlock: UVAHIK_clean_linker_0, # of connection points: 2
#     Edge 98, Type (0, 1), BuildingBlock: UVAHIK_clean_linker_0, # of connection points: 2
#     Edge 99, Type (0, 1), BuildingBlock: UVAHIK_clean_linker_0, # of connection points: 2
#     Edge 100, Type (0, 1), BuildingBlock: UVAHIK_clean_linker_0, # of connection points: 2
#     Edge 101, Type (0, 1), BuildingBlock: UVAHIK_clean_linker_0, # of connection points: 2
#     Edge 102, Type (0, 1), BuildingBlock: UVAHIK_clean_linker_0, # of connection points: 2
#     Edge 103, Type (0, 1), BuildingBlock: UVAHIK_clean_linker_0, # of connection points: 2
#     Edge 104, Type (0, 1), BuildingBlock: UVAHIK_clean_linker_0, # of connection points: 2
#     Edge 105, Type (0, 1), BuildingBlock: UVAHIK_clean_linker_0, # of connection points: 2
#     Edge 106, Type (0, 1), BuildingBlock: UVAHIK_clean_linker_0, # of connection points: 2
#     Edge 107, Type (0, 1), BuildingBlock: UVAHIK_clean_linker_0, # of connection points: 2
#     Edge 108, Type (0, 1), BuildingBlock: UVAHIK_clean_linker_0, # of connection points: 2
#     Edge 109, Type (0, 1), BuildingBlock: UVAHIK_clean_linker_0, # of connection points: 2
#     Edge 110, Type (0, 1), BuildingBlock: UVAHIK_clean_linker_0, # of connection points: 2
#     Edge 111, Type (0, 1), BuildingBlock: UVAHIK_clean_linker_0, # of connection points: 2
#     Edge 112, Type (0, 1), BuildingBlock: UVAHIK_clean_linker_0, # of connection points: 2
#     Edge 113, Type (0, 1), BuildingBlock: UVAHIK_clean_linker_0, # of connection points: 2
#     Edge 114, Type (0, 1), BuildingBlock: UVAHIK_clean_linker_0, # of connection points: 2
#     Edge 115, Type (0, 1), BuildingBlock: UVAHIK_clean_linker_0, # of connection points: 2
#     Edge 116, Type (0, 1), BuildingBlock: UVAHIK_clean_linker_0, # of connection points: 2
#     Edge 117, Type (0, 1), BuildingBlock: UVAHIK_clean_linker_0, # of connection points: 2
#     Edge 118, Type (0, 1), BuildingBlock: UVAHIK_clean_linker_0, # of connection points: 2
#     Edge 119, Type (0, 1), BuildingBlock: UVAHIK_clean_linker_0, # of connection points: 2
# Relax obj value: 0.217
# Max RMSD: 0.251
# Mean RMSD: 0.134
data_MOF--net-bwt--node1-WUSLED_clean_sbu_0--node2-BELTOD_clean_linker_0--edge1-UVAHIK_clean_linker_0
_symmetry_space_group_name_H-M    P1
_symmetry_Int_Tables_number       1
_symmetry_cell_setting            triclinic
loop_
_symmetry_equiv_pos_as_xyz
'x, y, z'
_cell_length_a     91.146768
_cell_length_b     91.171078
_cell_length_c     91.153445
_cell_angle_alpha  91.747581
_cell_angle_beta   91.756981
_cell_angle_gamma 91.763569
loop_
_atom_site_label
_atom_site_type_symbol
_atom_site_fract_x
_atom_site_fract_y
_atom_site_fract_z
_atom_type_partial_charge
C0 C 0.29998 0.66172 0.35339 0.0
C1 C 0.30996 0.65628 0.36378 0.0
C2 C 0.33004 0.659 0.34678 0.0
C3 C 0.3248 0.65494 0.36052 0.0
C4 C 0.32 0.66464 0.33649 0.0
C5 C 0.30514 0.66596 0.33977 0.0
U6 U 0.26878 0.65495 0.3792 0.0
O7 O 0.24985 0.66801 0.38549 0.0
O8 O 0.24619 0.64602 0.37525 0.0
C9 C 0.24018 0.65779 0.38082 0.0
C10 C 0.2842 0.66262 0.35658 0.0
C11 C 0.22631 0.6626 0.37389 0.0
C12 C 0.21119 0.67047 0.35318 0.0
C13 C 0.22484 0.66615 0.35903 0.0
C14 C 0.20049 0.66764 0.37693 0.0
C15 C 0.19884 0.67138 0.36213 0.0
C16 C 0.21401 0.66335 0.3827 0.0
C17 C 0.28186 0.63745 0.41586 0.0
C18 C 0.26733 0.62901 0.43613 0.0
C19 C 0.29364 0.62596 0.43661 0.0
C20 C 0.29453 0.6327 0.42312 0.0
C21 C 0.28004 0.62382 0.4432 0.0
C22 C 0.26822 0.63572 0.42248 0.0
C23 C 0.28345 0.64368 0.40125 0.0
O24 O 0.27705 0.64993 0.35721 0.0
O25 O 0.28101 0.67185 0.3673 0.0
O26 O 0.28139 0.65781 0.40018 0.0
O27 O 0.27785 0.63581 0.39001 0.0
H28 H 0.30623 0.65297 0.3744 0.0
H29 H 0.3322 0.65077 0.36882 0.0
H30 H 0.32354 0.66772 0.32575 0.0
H31 H 0.29763 0.67014 0.33157 0.0
H32 H 0.21035 0.67331 0.34174 0.0
H33 H 0.23419 0.6656 0.352 0.0
H34 H 0.19124 0.66785 0.38411 0.0
H35 H 0.21484 0.66052 0.39415 0.0
H36 H 0.25669 0.62749 0.44094 0.0
H37 H 0.30365 0.62233 0.44187 0.0
H38 H 0.30516 0.63402 0.41822 0.0
H39 H 0.25831 0.63935 0.41702 0.0
C40 C 0.20837 0.26227 0.77399 0.0
C41 C 0.19825 0.26667 0.78442 0.0
C42 C 0.17821 0.26319 0.76619 0.0
C43 C 0.18329 0.26709 0.78057 0.0
C44 C 0.18836 0.25814 0.756 0.0
C45 C 0.20331 0.25771 0.75987 0.0
U46 U 0.23992 0.27465 0.79994 0.0
O47 O 0.25922 0.28877 0.79601 0.0
O48 O 0.26218 0.26639 0.80369 0.0
C49 C 0.26854 0.27865 0.79952 0.0
C50 C 0.22425 0.26394 0.77724 0.0
C51 C 0.28127 0.27738 0.79014 0.0
C52 C 0.29234 0.27542 0.76625 0.0
C53 C 0.27985 0.2749 0.77489 0.0
C54 C 0.30761 0.28056 0.78814 0.0
C55 C 0.30637 0.27844 0.77279 0.0
C56 C 0.29522 0.27999 0.79669 0.0
C57 C 0.23279 0.29152 0.83716 0.0
C58 C 0.25085 0.30848 0.84899 0.0
C59 C 0.229 0.30124 0.86181 0.0
C60 C 0.22433 0.29224 0.84973 0.0
C61 C 0.24209 0.30975 0.86132 0.0
C62 C 0.24631 0.29933 0.83705 0.0
C63 C 0.22707 0.28362 0.82377 0.0
O64 O 0.22911 0.27765 0.77846 0.0
O65 O 0.22963 0.25566 0.78755 0.0
O66 O 0.23143 0.27011 0.82183 0.0
O67 O 0.2277 0.29131 0.81184 0.0
H68 H 0.202 0.27034 0.79536 0.0
H69 H 0.17582 0.27118 0.78864 0.0
H70 H 0.18478 0.25485 0.74491 0.0
H71 H 0.21098 0.25431 0.75168 0.0
H72 H 0.291 0.27366 0.75447 0.0
H73 H 0.26911 0.27292 0.76966 0.0
H74 H 0.31812 0.28327 0.79357 0.0
H75 H 0.29649 0.2821 0.80844 0.0
H76 H 0.26101 0.3149 0.84844 0.0
H77 H 0.22206 0.30213 0.87121 0.0
H78 H 0.21388 0.28627 0.85 0.0
H79 H 0.25306 0.29881 0.82748 0.0
C80 C 0.78802 0.0025 0.6091 0.0
C81 C 0.79825 0.00025 0.59814 0.0
C82 C 0.81801 0.00731 0.61547 0.0
C83 C 0.81316 0.00263 0.6013 0.0
C84 C 0.80768 0.00982 0.62636 0.0
C85 C 0.79272 0.00742 0.62317 0.0
U86 U 0.76035 0.99193 0.58012 0.0
O87 O 0.74054 0.97764 0.57916 0.0
O88 O 0.73891 0.00108 0.57453 0.0
C89 C 0.73187 0.98876 0.57743 0.0
C90 C 0.77249 0.99983 0.6055 0.0
C91 C 0.72076 0.99015 0.58857 0.0
C92 C 0.71406 0.98943 0.6141 0.0
C93 C 0.72471 0.98882 0.60347 0.0
C94 C 0.69555 0.99349 0.59507 0.0
C95 C 0.69935 0.99157 0.60996 0.0
C96 C 0.7062 0.99276 0.58444 0.0
C97 C 0.77329 0.98402 0.54228 0.0
C98 C 0.75429 0.97781 0.52383 0.0
C99 C 0.77793 0.98769 0.51664 0.0
C100 C 0.78283 0.98821 0.53131 0.0
C101 C 0.76339 0.98308 0.51286 0.0
C102 C 0.75919 0.97833 0.53844 0.0
C103 C 0.77704 0.98774 0.55765 0.0
O104 O 0.767 0.00927 0.59639 0.0
O105 O 0.76893 0.98608 0.60187 0.0
O106 O 0.77399 0.97742 0.56696 0.0
O107 O 0.77275 0.00078 0.56194 0.0
H108 H 0.79468 0.99656 0.58715 0.0
H109 H 0.82088 0.00077 0.59268 0.0
H110 H 0.8112 0.01326 0.63743 0.0
H111 H 0.78488 0.00925 0.63168 0.0
H112 H 0.71728 0.98805 0.6255 0.0
H113 H 0.736 0.98704 0.60685 0.0
H114 H 0.68424 0.995 0.59158 0.0
H115 H 0.70304 0.99395 0.57299 0.0
H116 H 0.74297 0.97442 0.52134 0.0
H117 H 0.78519 0.99171 0.50837 0.0
H118 H 0.79373 0.99269 0.53417 0.0
H119 H 0.75162 0.97523 0.54683 0.0
C120 C 0.68246 0.97944 0.30785 0.0
C121 C 0.67144 0.97355 0.29809 0.0
C122 C 0.65304 0.98695 0.31134 0.0
C123 C 0.6568 0.97726 0.29985 0.0
C124 C 0.66398 0.99249 0.32128 0.0
C125 C 0.67849 0.98868 0.31962 0.0
U126 U 0.71923 0.98689 0.29002 0.0
O127 O 0.73981 0.99226 0.30201 0.0
O128 O 0.73886 0.97347 0.28582 0.0
C129 C 0.74675 0.98158 0.29556 0.0
C130 C 0.69814 0.97643 0.30601 0.0
C131 C 0.76226 0.97917 0.2997 0.0
C132 C 0.78325 0.9849 0.31623 0.0
C133 C 0.76826 0.98553 0.31286 0.0
C134 C 0.78647 0.97076 0.2937 0.0
C135 C 0.79257 0.97774 0.30657 0.0
C136 C 0.77142 0.97151 0.29027 0.0
C137 C 0.72175 0.01359 0.25943 0.0
C138 C 0.7426 0.01177 0.24374 0.0
C139 C 0.72125 0.02507 0.23588 0.0
C140 C 0.71472 0.02235 0.24921 0.0
C141 C 0.73475 0.01884 0.23267 0.0
C142 C 0.73613 0.00919 0.25713 0.0
C143 C 0.71301 0.00625 0.27035 0.0
O144 O 0.70701 0.98745 0.31003 0.0
O145 O 0.70209 0.96971 0.29384 0.0
O146 O 0.71616 0.0099 0.28415 0.0
O147 O 0.71148 0.992 0.26788 0.0
H148 H 0.67412 0.96629 0.289 0.0
H149 H 0.64847 0.97287 0.29205 0.0
H150 H 0.66131 0.99979 0.33035 0.0
H151 H 0.68663 0.99321 0.32749 0.0
H152 H 0.78758 0.99013 0.32636 0.0
H153 H 0.76141 0.99119 0.3205 0.0
H154 H 0.79342 0.96519 0.28603 0.0
H155 H 0.76706 0.96652 0.28005 0.0
H156 H 0.75304 0.00694 0.2415 0.0
H157 H 0.71497 0.03051 0.22748 0.0
H158 H 0.70361 0.02581 0.25088 0.0
H159 H 0.7417 0.00244 0.265 0.0
C160 C 0.35276 0.30007 0.65998 0.0
C161 C 0.36389 0.31111 0.66029 0.0
C162 C 0.34562 0.33005 0.65758 0.0
C163 C 0.36036 0.32593 0.65916 0.0
C164 C 0.33454 0.31891 0.65733 0.0
C165 C 0.33808 0.30412 0.65852 0.0
U166 U 0.37919 0.26885 0.65429 0.0
O167 O 0.38416 0.24965 0.66753 0.0
O168 O 0.37576 0.2464 0.64477 0.0
C169 C 0.38018 0.24017 0.65687 0.0
C170 C 0.35625 0.28432 0.6608 0.0
C171 C 0.37257 0.22627 0.66075 0.0
C172 C 0.35564 0.21171 0.67516 0.0
C173 C 0.36168 0.22545 0.67133 0.0
C174 C 0.37125 0.1996 0.65789 0.0
C175 C 0.36039 0.19856 0.6685 0.0
C176 C 0.37718 0.21323 0.65407 0.0
C177 C 0.41675 0.28139 0.63836 0.0
C178 C 0.43629 0.26639 0.62906 0.0
C179 C 0.43899 0.2929 0.62939 0.0
C180 C 0.42518 0.29401 0.63548 0.0
C181 C 0.44477 0.2791 0.62606 0.0
C182 C 0.42238 0.26753 0.63518 0.0
C183 C 0.40194 0.2833 0.64404 0.0
O184 O 0.35753 0.27732 0.64811 0.0
O185 O 0.36649 0.28106 0.67054 0.0
O186 O 0.40025 0.28117 0.65809 0.0
O187 O 0.3909 0.27796 0.63572 0.0
H188 H 0.37532 0.30827 0.66129 0.0
H189 H 0.36921 0.33413 0.65922 0.0
H190 H 0.32308 0.32161 0.65633 0.0
H191 H 0.32931 0.29581 0.65824 0.0
H192 H 0.34723 0.2114 0.68329 0.0
H193 H 0.35797 0.23536 0.6767 0.0
H194 H 0.37551 0.18984 0.65273 0.0
H195 H 0.38568 0.21355 0.64601 0.0
H196 H 0.44043 0.25558 0.62675 0.0
H197 H 0.44499 0.30293 0.62698 0.0
H198 H 0.42097 0.30481 0.63774 0.0
H199 H 0.41599 0.25764 0.6373 0.0
C200 C 0.30926 0.68219 0.98056 0.0
C201 C 0.29971 0.67096 0.97474 0.0
C202 C 0.31324 0.65299 0.9884 0.0
C203 C 0.30174 0.65642 0.97861 0.0
C204 C 0.32298 0.66412 0.99389 0.0
C205 C 0.32111 0.67855 0.98988 0.0
U206 U 0.29051 0.7185 0.98769 0.0
O207 O 0.30195 0.73947 0.99267 0.0
O208 O 0.28564 0.73775 0.97398 0.0
C209 C 0.2952 0.74603 0.98191 0.0
C210 C 0.30704 0.69776 0.97745 0.0
C211 C 0.29887 0.76155 0.97916 0.0
C212 C 0.31535 0.78285 0.98353 0.0
C213 C 0.31232 0.76783 0.98453 0.0
C214 C 0.29182 0.78552 0.97098 0.0
C215 C 0.30506 0.79189 0.97691 0.0
C216 C 0.28873 0.77046 0.97213 0.0
C217 C 0.25999 0.72086 0.01427 0.0
C218 C 0.24378 0.74123 0.01179 0.0
C219 C 0.23679 0.72051 0.02642 0.0
C220 C 0.25016 0.71408 0.02362 0.0
C221 C 0.23316 0.73361 0.01967 0.0
C222 C 0.25722 0.73492 0.00919 0.0
C223 C 0.27105 0.71211 0.00718 0.0
O224 O 0.31081 0.70677 0.98843 0.0
O225 O 0.29477 0.70137 0.97067 0.0
O226 O 0.28479 0.71561 0.01077 0.0
O227 O 0.2686 0.7102 0.99295 0.0
H228 H 0.29058 0.6734 0.96743 0.0
H229 H 0.2941 0.64791 0.97427 0.0
H230 H 0.33202 0.66165 0.00132 0.0
H231 H 0.32883 0.6869 0.99433 0.0
H232 H 0.32575 0.7874 0.98794 0.0
H233 H 0.32047 0.76113 0.98965 0.0
H234 H 0.28366 0.79226 0.96586 0.0
H235 H 0.27827 0.76589 0.96793 0.0
H236 H 0.24113 0.75134 0.00649 0.0
H237 H 0.22868 0.71442 0.03245 0.0
H238 H 0.25219 0.70322 0.0276 0.0
H239 H 0.26478 0.74029 0.00196 0.0
C240 C 0.77473 0.20854 0.26358 0.0
C241 C 0.78493 0.19829 0.26821 0.0
C242 C 0.7664 0.17853 0.26466 0.0
C243 C 0.78081 0.1834 0.26871 0.0
C244 C 0.75644 0.18881 0.25944 0.0
C245 C 0.76058 0.20368 0.25893 0.0
U246 U 0.80117 0.24053 0.27431 0.0
O247 O 0.80379 0.26251 0.2649 0.0
O248 O 0.79775 0.26025 0.28789 0.0
C249 C 0.79961 0.26917 0.277 0.0
C250 C 0.77827 0.22439 0.26484 0.0
C251 C 0.78851 0.2805 0.27547 0.0
C252 C 0.76486 0.29007 0.28187 0.0
C253 C 0.77422 0.27827 0.28052 0.0
C254 C 0.7834 0.30617 0.27187 0.0
C255 C 0.76956 0.30425 0.27806 0.0
C256 C 0.79282 0.2944 0.27065 0.0
C257 C 0.83904 0.23293 0.29069 0.0
C258 C 0.85416 0.25227 0.30302 0.0
C259 C 0.86093 0.22688 0.30475 0.0
C260 C 0.84875 0.22251 0.29582 0.0
C261 C 0.86365 0.24179 0.30872 0.0
C262 C 0.84192 0.24787 0.29411 0.0
C263 C 0.82519 0.22789 0.28322 0.0
O264 O 0.77997 0.2296 0.27839 0.0
O265 O 0.78832 0.22942 0.25607 0.0
O266 O 0.82302 0.23206 0.26965 0.0
O267 O 0.81358 0.22918 0.29127 0.0
H268 H 0.79591 0.20189 0.27192 0.0
H269 H 0.78872 0.17582 0.27292 0.0
H270 H 0.74534 0.1854 0.25603 0.0
H271 H 0.75257 0.21145 0.25533 0.0
H272 H 0.75419 0.28824 0.28652 0.0
H273 H 0.77058 0.26761 0.28417 0.0
H274 H 0.78737 0.31698 0.26893 0.0
H275 H 0.80379 0.29635 0.26673 0.0
H276 H 0.85602 0.26385 0.30567 0.0
H277 H 0.86781 0.21846 0.30908 0.0
H278 H 0.84659 0.21092 0.2934 0.0
H279 H 0.83446 0.25606 0.29029 0.0
C280 C 0.60954 0.78782 0.00315 0.0
C281 C 0.59908 0.79799 0.99897 0.0
C282 C 0.61564 0.81793 0.00741 0.0
C283 C 0.60212 0.81295 0.00106 0.0
C284 C 0.62602 0.80768 0.01178 0.0
C285 C 0.62296 0.79266 0.00966 0.0
U286 U 0.58062 0.75967 0.99373 0.0
O287 O 0.57954 0.73928 0.98035 0.0
O288 O 0.57525 0.73866 0.00394 0.0
C289 C 0.57804 0.73111 0.99188 0.0
C290 C 0.60591 0.77221 0.00125 0.0
C291 C 0.58932 0.72017 0.99352 0.0
C292 C 0.61471 0.71353 0.99121 0.0
C293 C 0.60408 0.72415 0.99129 0.0
C294 C 0.59618 0.69504 0.99688 0.0
C295 C 0.61077 0.69887 0.99369 0.0
C296 C 0.58546 0.70566 0.99671 0.0
C297 C 0.54295 0.77183 0.9842 0.0
C298 C 0.52499 0.75229 0.97834 0.0
C299 C 0.51708 0.7763 0.98646 0.0
C300 C 0.53169 0.78142 0.98732 0.0
C301 C 0.51368 0.7615 0.98256 0.0
C302 C 0.53952 0.75741 0.97921 0.0
C303 C 0.55816 0.776 0.98822 0.0
O304 O 0.59671 0.76728 0.01089 0.0
O305 O 0.60242 0.76789 0.98765 0.0
O306 O 0.56777 0.77261 0.9783 0.0
O307 O 0.56217 0.77236 0.00157 0.0
H308 H 0.58854 0.79432 0.99411 0.0
H309 H 0.59389 0.82062 0.99773 0.0
H310 H 0.63661 0.81128 0.01654 0.0
H311 H 0.63105 0.78488 0.01305 0.0
H312 H 0.62592 0.71665 0.98877 0.0
H313 H 0.60727 0.73539 0.98905 0.0
H314 H 0.59296 0.68372 0.99871 0.0
H315 H 0.57414 0.70248 0.99858 0.0
H316 H 0.52278 0.74079 0.97553 0.0
H317 H 0.50854 0.78364 0.98967 0.0
H318 H 0.53423 0.79258 0.99125 0.0
H319 H 0.54814 0.74981 0.97692 0.0
C320 C 0.66071 0.35287 0.30002 0.0
C321 C 0.65927 0.36412 0.3107 0.0
C322 C 0.65843 0.34619 0.33013 0.0
C323 C 0.65819 0.36083 0.32558 0.0
C324 C 0.65996 0.33498 0.31934 0.0
C325 C 0.66108 0.33829 0.30447 0.0
U326 U 0.65347 0.37868 0.26878 0.0
O327 O 0.66649 0.38507 0.24985 0.0
O328 O 0.64459 0.3746 0.24618 0.0
C329 C 0.65629 0.38034 0.24019 0.0
C330 C 0.6614 0.35617 0.28422 0.0
C331 C 0.66112 0.37361 0.22623 0.0
C332 C 0.67087 0.35372 0.21125 0.0
C333 C 0.66635 0.35929 0.22494 0.0
C334 C 0.66485 0.37664 0.20015 0.0
C335 C 0.67032 0.36243 0.1987 0.0
C336 C 0.66035 0.38212 0.2137 0.0
C337 C 0.63558 0.41519 0.28155 0.0
C338 C 0.63109 0.43721 0.26782 0.0
C339 C 0.62233 0.43525 0.29252 0.0
C340 C 0.62816 0.42131 0.29336 0.0
C341 C 0.62381 0.44347 0.27981 0.0
C342 C 0.63698 0.42317 0.2687 0.0
C343 C 0.64189 0.40063 0.28332 0.0
O344 O 0.64864 0.35666 0.27716 0.0
O345 O 0.67052 0.36695 0.28093 0.0
O346 O 0.65605 0.39964 0.28137 0.0
O347 O 0.63414 0.38929 0.27777 0.0
H348 H 0.65892 0.37547 0.30754 0.0
H349 H 0.65725 0.3698 0.33352 0.0
H350 H 0.65997 0.32357 0.32233 0.0
H351 H 0.66207 0.32942 0.29642 0.0
H352 H 0.67505 0.34274 0.21054 0.0
H353 H 0.66701 0.35251 0.23447 0.0
H354 H 0.66394 0.38356 0.19075 0.0
H355 H 0.65624 0.39314 0.2144 0.0
H356 H 0.63248 0.44327 0.25789 0.0
H357 H 0.61655 0.43953 0.30184 0.0
H358 H 0.62692 0.4153 0.30335 0.0
H359 H 0.64269 0.41862 0.25945 0.0
C360 C 0.97886 0.30632 0.68195 0.0
C361 C 0.97145 0.29762 0.67092 0.0
C362 C 0.98507 0.31022 0.65228 0.0
C363 C 0.97451 0.29961 0.65616 0.0
C364 C 0.99236 0.31898 0.66321 0.0
C365 C 0.98915 0.31717 0.67787 0.0
U366 U 0.98628 0.28873 0.7189 0.0
O367 O 0.99132 0.3008 0.73948 0.0
O368 O 0.97271 0.2844 0.73841 0.0
C369 C 0.98064 0.29425 0.74633 0.0
C370 C 0.97589 0.30455 0.69766 0.0
C371 C 0.97801 0.29848 0.76175 0.0
C372 C 0.98292 0.3156 0.78243 0.0
C373 C 0.98346 0.31213 0.76745 0.0
C374 C 0.9705 0.29221 0.7862 0.0
C375 C 0.97669 0.30557 0.792 0.0
C376 C 0.97121 0.28866 0.77117 0.0
C377 C 0.01362 0.25858 0.72147 0.0
C378 C 0.01311 0.24296 0.74248 0.0
C379 C 0.02629 0.23571 0.72084 0.0
C380 C 0.02272 0.2488 0.71431 0.0
C381 C 0.02066 0.23225 0.73457 0.0
C382 C 0.0096 0.2561 0.73594 0.0
C383 C 0.00593 0.26933 0.71284 0.0
O384 O 0.98683 0.30869 0.70658 0.0
O385 O 0.96919 0.29237 0.70164 0.0
O386 O 0.00939 0.28318 0.71594 0.0
O387 O 0.99171 0.2666 0.7114 0.0
H388 H 0.96334 0.2893 0.67368 0.0
H389 H 0.96878 0.29274 0.64778 0.0
H390 H 0.00041 0.32734 0.66039 0.0
H391 H 0.99478 0.32435 0.68597 0.0
H392 H 0.98751 0.32608 0.78655 0.0
H393 H 0.98837 0.32006 0.76037 0.0
H394 H 0.96565 0.28427 0.79336 0.0
H395 H 0.96693 0.27807 0.76703 0.0
H396 H 0.00882 0.24063 0.75314 0.0
H397 H 0.03209 0.22768 0.71443 0.0
H398 H 0.0259 0.25063 0.70313 0.0
H399 H 0.00261 0.26366 0.74162 0.0
C400 C 0.2648 0.77296 0.20932 0.0
C401 C 0.26544 0.78435 0.19933 0.0
C402 C 0.26557 0.7665 0.17884 0.0
C403 C 0.26575 0.78116 0.18424 0.0
C404 C 0.26437 0.75515 0.1889 0.0
C405 C 0.26401 0.75836 0.204 0.0
U406 U 0.2761 0.79931 0.24086 0.0
O407 O 0.26716 0.80285 0.2629 0.0
O408 O 0.28995 0.79616 0.26051 0.0
C409 C 0.27932 0.7988 0.26955 0.0
C410 C 0.26635 0.77618 0.22522 0.0
C411 C 0.27778 0.78848 0.28155 0.0
C412 C 0.28108 0.76432 0.29152 0.0
C413 C 0.28027 0.77345 0.27946 0.0
C414 C 0.27602 0.78497 0.30774 0.0
C415 C 0.27932 0.77007 0.30584 0.0
C416 C 0.27529 0.79408 0.29571 0.0
C417 C 0.29182 0.83711 0.23194 0.0
C418 C 0.30169 0.85418 0.25103 0.0
C419 C 0.30722 0.85798 0.22557 0.0
C420 C 0.29868 0.84549 0.22137 0.0
C421 C 0.30904 0.86238 0.24047 0.0
C422 C 0.29319 0.84161 0.2468 0.0
C423 C 0.28455 0.82301 0.2274 0.0
O424 O 0.28 0.77791 0.23016 0.0
O425 O 0.25765 0.78614 0.23058 0.0
O426 O 0.27106 0.82077 0.23175 0.0
O427 O 0.29281 0.81159 0.22898 0.0
H428 H 0.26613 0.79571 0.20322 0.0
H429 H 0.26644 0.79018 0.17681 0.0
H430 H 0.26437 0.74375 0.18518 0.0
H431 H 0.26362 0.74943 0.21157 0.0
H432 H 0.28346 0.75286 0.28968 0.0
H433 H 0.28216 0.76889 0.26858 0.0
H434 H 0.27477 0.7898 0.31862 0.0
H435 H 0.27341 0.80566 0.29755 0.0
H436 H 0.30268 0.85734 0.26257 0.0
H437 H 0.31289 0.86381 0.21714 0.0
H438 H 0.29786 0.84208 0.20987 0.0
H439 H 0.28803 0.83519 0.25514 0.0
C440 C 0.99861 0.61268 0.78686 0.0
C441 C 0.99081 0.60437 0.79692 0.0
C442 C 0.00219 0.61895 0.81703 0.0
C443 C 0.99252 0.60754 0.81191 0.0
C444 C 0.01002 0.62724 0.80694 0.0
C445 C 0.00823 0.62411 0.7919 0.0
U446 U 0.99117 0.58237 0.75969 0.0
O447 O 0.97983 0.58013 0.73819 0.0
O448 O 0.00332 0.57554 0.74026 0.0
C449 C 0.99202 0.57757 0.73134 0.0
C450 C 0.99794 0.60821 0.77136 0.0
C451 C 0.99475 0.58738 0.7193 0.0
C452 C 0.99415 0.61188 0.7098 0.0
C453 C 0.99416 0.60262 0.72167 0.0
C454 C 0.99669 0.59083 0.69324 0.0
C455 C 0.99484 0.60601 0.69541 0.0
C456 C 0.99655 0.58155 0.70513 0.0
C457 C 0.9806 0.54543 0.77187 0.0
C458 C 0.97744 0.52816 0.75125 0.0
C459 C 0.98632 0.51991 0.77487 0.0
C460 C 0.98504 0.53409 0.78088 0.0
C461 C 0.98325 0.51714 0.75985 0.0
C462 C 0.97611 0.54224 0.75722 0.0
C463 C 0.98394 0.56071 0.77639 0.0
O464 O 0.00788 0.59869 0.76785 0.0
O465 O 0.9847 0.60465 0.76596 0.0
O466 O 0.97441 0.57023 0.77176 0.0
O467 O 0.99765 0.56479 0.77425 0.0
H468 H 0.98363 0.59523 0.7932 0.0
H469 H 0.98652 0.60089 0.8195 0.0
H470 H 0.01746 0.63617 0.81068 0.0
H471 H 0.01452 0.63041 0.78425 0.0
H472 H 0.99264 0.6235 0.71183 0.0
H473 H 0.99286 0.60726 0.73263 0.0
H474 H 0.99756 0.58605 0.68229 0.0
H475 H 0.99717 0.56981 0.70319 0.0
H476 H 0.97513 0.52617 0.73961 0.0
H477 H 0.99096 0.5115 0.78159 0.0
H478 H 0.98872 0.53645 0.79214 0.0
H479 H 0.97284 0.55088 0.75002 0.0
C480 C 0.69903 0.34348 0.64752 0.0
C481 C 0.68941 0.35052 0.63789 0.0
C482 C 0.66886 0.34544 0.65377 0.0
C483 C 0.6745 0.35151 0.64099 0.0
C484 C 0.67855 0.33826 0.66329 0.0
C485 C 0.69348 0.33731 0.6602 0.0
U486 U 0.73018 0.34949 0.62154 0.0
O487 O 0.75259 0.35899 0.62496 0.0
O488 O 0.74938 0.33634 0.61628 0.0
C489 C 0.75885 0.34696 0.62039 0.0
C490 C 0.71483 0.34264 0.64444 0.0
C491 C 0.77253 0.34294 0.62826 0.0
C492 C 0.78631 0.33423 0.6495 0.0
C493 C 0.7728 0.33717 0.64239 0.0
C494 C 0.79922 0.34259 0.62835 0.0
C495 C 0.79972 0.33716 0.64263 0.0
C496 C 0.78583 0.34543 0.62129 0.0
C497 C 0.71732 0.36547 0.58418 0.0
C498 C 0.73237 0.37388 0.5643 0.0
C499 C 0.70587 0.37493 0.56214 0.0
C500 C 0.70473 0.36896 0.576 0.0
C501 C 0.7197 0.37752 0.55608 0.0
C502 C 0.73119 0.36789 0.57826 0.0
C503 C 0.71548 0.35977 0.59897 0.0
O504 O 0.71812 0.33301 0.63412 0.0
O505 O 0.72184 0.35535 0.64328 0.0
O506 O 0.72088 0.36808 0.60999 0.0
O507 O 0.71768 0.34573 0.60059 0.0
H508 H 0.69345 0.35528 0.62798 0.0
H509 H 0.66735 0.35694 0.6333 0.0
H510 H 0.67467 0.33361 0.6733 0.0
H511 H 0.70072 0.33185 0.66777 0.0
H512 H 0.78629 0.3301 0.66051 0.0
H513 H 0.76265 0.33515 0.64797 0.0
H514 H 0.80924 0.34472 0.62259 0.0
H515 H 0.78588 0.34979 0.61037 0.0
H516 H 0.74318 0.37559 0.55995 0.0
H517 H 0.69589 0.37783 0.55632 0.0
H518 H 0.69393 0.36724 0.58043 0.0
H519 H 0.74105 0.36526 0.58444 0.0
C520 C 0.78947 0.7342 0.2244 0.0
C521 C 0.79936 0.72708 0.21529 0.0
C522 C 0.8197 0.73446 0.23215 0.0
C523 C 0.81434 0.72719 0.21914 0.0
C524 C 0.80979 0.74216 0.24084 0.0
C525 C 0.7948 0.74197 0.23703 0.0
U526 U 0.75793 0.72256 0.19838 0.0
O527 O 0.7383 0.70873 0.2018 0.0
O528 O 0.73589 0.73133 0.19455 0.0
C529 C 0.72923 0.71922 0.19871 0.0
C530 C 0.77356 0.73268 0.22131 0.0
C531 C 0.71697 0.7209 0.20867 0.0
C532 C 0.70699 0.72121 0.23311 0.0
C533 C 0.71911 0.72148 0.22399 0.0
C534 C 0.69061 0.72029 0.21165 0.0
C535 C 0.69256 0.7203 0.22703 0.0
C536 C 0.70268 0.72063 0.2026 0.0
C537 C 0.7667 0.70672 0.16078 0.0
C538 C 0.74839 0.69213 0.14645 0.0
C539 C 0.77305 0.69525 0.13754 0.0
C540 C 0.77695 0.7041 0.14993 0.0
C541 C 0.75885 0.68879 0.13591 0.0
C542 C 0.75229 0.70103 0.15878 0.0
C543 C 0.77147 0.71408 0.17474 0.0
O544 O 0.76822 0.74124 0.21123 0.0
O545 O 0.76851 0.71904 0.21986 0.0
O546 O 0.77001 0.70592 0.18627 0.0
O547 O 0.76702 0.72753 0.17688 0.0
H548 H 0.79541 0.72104 0.20546 0.0
H549 H 0.82159 0.72105 0.21225 0.0
H550 H 0.81356 0.74813 0.25077 0.0
H551 H 0.78733 0.74759 0.24414 0.0
H552 H 0.70894 0.72142 0.2449 0.0
H553 H 0.7301 0.7217 0.22887 0.0
H554 H 0.67975 0.71931 0.20649 0.0
H555 H 0.70082 0.72008 0.19079 0.0
H556 H 0.73732 0.68747 0.14538 0.0
H557 H 0.78136 0.6928 0.12966 0.0
H558 H 0.78814 0.7084 0.15134 0.0
H559 H 0.74422 0.70299 0.16706 0.0
C560 C 0.20833 0.99098 0.39872 0.0
C561 C 0.19784 0.98734 0.40908 0.0
C562 C 0.17823 0.98952 0.39059 0.0
C563 C 0.18289 0.98654 0.40503 0.0
C564 C 0.18885 0.99301 0.38026 0.0
C565 C 0.20375 0.99373 0.3843 0.0
U566 U 0.23944 0.99434 0.42759 0.0
O567 O 0.26118 0.98446 0.42788 0.0
O568 O 0.2594 0.00845 0.4287 0.0
C569 C 0.26814 0.9973 0.42774 0.0
C570 C 0.22402 0.99231 0.40282 0.0
C571 C 0.27968 0.99888 0.41703 0.0
C572 C 0.28791 0.99843 0.39194 0.0
C573 C 0.27699 0.99556 0.40203 0.0
C574 C 0.30421 0.00777 0.41183 0.0
C575 C 0.3015 0.00484 0.39676 0.0
C576 C 0.29338 0.00479 0.42188 0.0
C577 C 0.23317 0.99536 0.46798 0.0
C578 C 0.25422 0.99366 0.48474 0.0
C579 C 0.23045 0.99954 0.49416 0.0
C580 C 0.22438 0.99883 0.47986 0.0
C581 C 0.24538 0.99672 0.49676 0.0
C582 C 0.24817 0.99304 0.47048 0.0
C583 C 0.22681 0.99426 0.45299 0.0
O584 O 0.22833 0.00492 0.40916 0.0
O585 O 0.22956 0.9809 0.40923 0.0
O586 O 0.22978 0.98217 0.44556 0.0
O587 O 0.2285 0.00616 0.44537 0.0
H588 H 0.20121 0.98524 0.42031 0.0
H589 H 0.17497 0.98391 0.41324 0.0
H590 H 0.18562 0.99513 0.369 0.0
H591 H 0.21172 0.99652 0.37617 0.0
H592 H 0.28558 0.99612 0.38036 0.0
H593 H 0.26638 0.99108 0.39812 0.0
H594 H 0.31468 0.01252 0.41584 0.0
H595 H 0.2956 0.00743 0.43342 0.0
H596 H 0.2658 0.99168 0.48637 0.0
H597 H 0.22336 0.00186 0.50322 0.0
H598 H 0.21281 0.00079 0.47809 0.0
H599 H 0.25518 0.99059 0.46139 0.0
C600 C 0.31288 0.03359 0.6553 0.0
C601 C 0.32277 0.04436 0.66136 0.0
C602 C 0.34325 0.0286 0.65636 0.0
C603 C 0.33786 0.04184 0.66203 0.0
C604 C 0.33349 0.01885 0.64848 0.0
C605 C 0.31849 0.02137 0.64793 0.0
U606 U 0.27509 0.03108 0.67435 0.0
O607 O 0.25484 0.04273 0.66933 0.0
O608 O 0.25645 0.01931 0.6632 0.0
C609 C 0.24816 0.03081 0.66355 0.0
C610 C 0.29677 0.03479 0.65616 0.0
C611 C 0.23306 0.0277 0.66764 0.0
C612 C 0.20881 0.01809 0.66027 0.0
C613 C 0.22328 0.02148 0.65688 0.0
C614 C 0.21379 0.02711 0.68531 0.0
C615 C 0.20393 0.02097 0.67448 0.0
C616 C 0.22835 0.03038 0.68194 0.0
C617 C 0.27923 0.02142 0.71731 0.0
C618 C 0.26464 0.01654 0.73866 0.0
C619 C 0.29114 0.01546 0.74051 0.0
C620 C 0.29198 0.01924 0.72585 0.0
C621 C 0.2775 0.0141 0.74712 0.0
C622 C 0.26549 0.02005 0.72376 0.0
C623 C 0.28105 0.02503 0.7018 0.0
O624 O 0.29149 0.04564 0.66403 0.0
O625 O 0.28961 0.02231 0.65786 0.0
O626 O 0.27914 0.03849 0.69748 0.0
O627 O 0.27881 0.01481 0.69142 0.0
H628 H 0.31882 0.05444 0.66604 0.0
H629 H 0.34511 0.04985 0.66779 0.0
H630 H 0.33737 0.00897 0.64319 0.0
H631 H 0.31121 0.01353 0.64203 0.0
H632 H 0.20137 0.0135 0.65171 0.0
H633 H 0.22684 0.01927 0.64581 0.0
H634 H 0.21024 0.02931 0.69638 0.0
H635 H 0.23587 0.03499 0.69042 0.0
H636 H 0.25397 0.01558 0.74353 0.0
H637 H 0.30123 0.01386 0.74678 0.0
H638 H 0.30271 0.0204 0.72115 0.0
H639 H 0.25551 0.02172 0.71735 0.0
C640 C 0.64814 0.69976 0.34363 0.0
C641 C 0.63799 0.69004 0.34983 0.0
C642 C 0.65413 0.66952 0.34557 0.0
C643 C 0.64095 0.6751 0.3508 0.0
C644 C 0.66415 0.67931 0.33917 0.0
C645 C 0.66119 0.69427 0.33823 0.0
U646 U 0.6226 0.73109 0.35039 0.0
O647 O 0.62639 0.75328 0.36035 0.0
O648 O 0.61739 0.75064 0.33777 0.0
C649 C 0.62179 0.75985 0.34851 0.0
C650 C 0.64526 0.71562 0.34303 0.0
C651 C 0.62994 0.7734 0.34456 0.0
C652 C 0.65072 0.78661 0.33425 0.0
C653 C 0.64355 0.7733 0.33772 0.0
C654 C 0.63077 0.80012 0.34443 0.0
C655 C 0.64438 0.80023 0.33752 0.0
C656 C 0.62368 0.7869 0.34785 0.0
C657 C 0.58534 0.71774 0.36654 0.0
C658 C 0.56488 0.73214 0.37464 0.0
C659 C 0.56425 0.70577 0.37729 0.0
C660 C 0.57795 0.705 0.37094 0.0
C661 C 0.55759 0.71935 0.37937 0.0
C662 C 0.57871 0.73135 0.36831 0.0
C663 C 0.60006 0.71626 0.36055 0.0
O664 O 0.63491 0.7192 0.33356 0.0
O665 O 0.64432 0.72244 0.35587 0.0
O666 O 0.61117 0.72144 0.36888 0.0
O667 O 0.6015 0.7189 0.34657 0.0
H668 H 0.62781 0.69405 0.35402 0.0
H669 H 0.63286 0.6679 0.3556 0.0
H670 H 0.67448 0.67549 0.33518 0.0
H671 H 0.66917 0.70158 0.33342 0.0
H672 H 0.66113 0.78622 0.32886 0.0
H673 H 0.64859 0.76299 0.33506 0.0
H674 H 0.62564 0.81028 0.34744 0.0
H675 H 0.61322 0.78725 0.35319 0.0
H676 H 0.56005 0.74277 0.37615 0.0
H677 H 0.55885 0.6957 0.38057 0.0
H678 H 0.58288 0.69439 0.3696 0.0
H679 H 0.58429 0.74131 0.36498 0.0
C680 C 0.65578 0.31285 0.03427 0.0
C681 C 0.6623 0.32255 0.04495 0.0
C682 C 0.65699 0.34328 0.02964 0.0
C683 C 0.66303 0.33766 0.04262 0.0
C684 C 0.6486 0.33372 0.02009 0.0
C685 C 0.64801 0.31869 0.02241 0.0
U686 U 0.67484 0.27519 0.03086 0.0
O687 O 0.66998 0.25486 0.04248 0.0
O688 O 0.66379 0.25656 0.01905 0.0
C689 C 0.66393 0.24833 0.03061 0.0
C690 C 0.65664 0.29673 0.03517 0.0
C691 C 0.66735 0.23304 0.02774 0.0
C692 C 0.65858 0.20776 0.0263 0.0
C693 C 0.6562 0.22245 0.02958 0.0
C694 C 0.68332 0.21412 0.01904 0.0
C695 C 0.67219 0.20343 0.02114 0.0
C696 C 0.68091 0.22892 0.02236 0.0
C697 C 0.71766 0.27946 0.02094 0.0
C698 C 0.73852 0.26484 0.01439 0.0
C699 C 0.74112 0.29136 0.01594 0.0
C700 C 0.72653 0.2922 0.01993 0.0
C701 C 0.74732 0.27771 0.01313 0.0
C702 C 0.7237 0.26571 0.01814 0.0
C703 C 0.70221 0.28134 0.0247 0.0
O704 O 0.66466 0.29129 0.04583 0.0
O705 O 0.6582 0.28979 0.02255 0.0
O706 O 0.698 0.27931 0.03818 0.0
O707 O 0.69177 0.27918 0.01454 0.0
H708 H 0.6673 0.31842 0.0548 0.0
H709 H 0.66914 0.34472 0.05054 0.0
H710 H 0.64296 0.33775 0.01047 0.0
H711 H 0.6418 0.31155 0.01467 0.0
H712 H 0.64975 0.19976 0.02777 0.0
H713 H 0.64558 0.22557 0.03346 0.0
H714 H 0.69391 0.211 0.01511 0.0
H715 H 0.68953 0.2371 0.0207 0.0
H716 H 0.74306 0.25417 0.01228 0.0
H717 H 0.74765 0.30144 0.01528 0.0
H718 H 0.72213 0.30291 0.02213 0.0
H719 H 0.71701 0.25575 0.01886 0.0
C720 C 0.22684 0.78961 0.73054 0.0
C721 C 0.21635 0.79953 0.7258 0.0
C722 C 0.23349 0.82008 0.73161 0.0
C723 C 0.21965 0.81464 0.72631 0.0
C724 C 0.24388 0.81005 0.73651 0.0
C725 C 0.24058 0.79495 0.73596 0.0
U726 U 0.20037 0.75784 0.72075 0.0
O727 O 0.20307 0.73764 0.70758 0.0
O728 O 0.19695 0.73625 0.73064 0.0
C729 C 0.2007 0.72907 0.71866 0.0
C730 C 0.22373 0.77369 0.72934 0.0
C731 C 0.2111 0.71719 0.72056 0.0
C732 C 0.23537 0.70731 0.71782 0.0
C733 C 0.22613 0.71931 0.71808 0.0
C734 C 0.21483 0.69116 0.72341 0.0
C735 C 0.22973 0.69304 0.7201 0.0
C736 C 0.20561 0.70312 0.7236 0.0
C737 C 0.16195 0.76705 0.7064 0.0
C738 C 0.14664 0.75136 0.68979 0.0
C739 C 0.13714 0.77393 0.69987 0.0
C740 C 0.15039 0.77672 0.70773 0.0
C741 C 0.13527 0.76145 0.69044 0.0
C742 C 0.15986 0.75413 0.69773 0.0
C743 C 0.17646 0.77129 0.71292 0.0
O744 O 0.21415 0.76852 0.73852 0.0
O745 O 0.22154 0.76844 0.71584 0.0
O746 O 0.18752 0.76933 0.70424 0.0
O747 O 0.17916 0.76724 0.72644 0.0
H748 H 0.20566 0.79557 0.72158 0.0
H749 H 0.21136 0.82206 0.72258 0.0
H750 H 0.25471 0.81383 0.74044 0.0
H751 H 0.24883 0.78744 0.73958 0.0
H752 H 0.24683 0.70914 0.71541 0.0
H753 H 0.23061 0.73012 0.7158 0.0
H754 H 0.21008 0.68032 0.72506 0.0
H755 H 0.19403 0.70128 0.72552 0.0
H756 H 0.14566 0.74171 0.68256 0.0
H757 H 0.12851 0.78178 0.70084 0.0
H758 H 0.15179 0.78671 0.71444 0.0
H759 H 0.16867 0.7465 0.69659 0.0
C760 C 0.39974 0.20797 0.9932 0.0
C761 C 0.40892 0.19826 0.98587 0.0
C762 C 0.39231 0.17776 0.9909 0.0
C763 C 0.40516 0.18328 0.98462 0.0
C764 C 0.38327 0.18749 0.9984 0.0
C765 C 0.38694 0.20249 0.99949 0.0
U766 U 0.428 0.2395 0.99588 0.0
O767 O 0.42799 0.26111 0.98578 0.0
O768 O 0.42921 0.2596 0.0098 0.0
C769 C 0.42797 0.2682 0.99856 0.0
C770 C 0.40343 0.22377 0.99454 0.0
C771 C 0.41714 0.27962 1.00014 0.0
C772 C 0.39206 0.28786 0.99873 0.0
C773 C 0.40228 0.27701 0.99608 0.0
C774 C 0.41153 0.3039 0.00941 0.0
C775 C 0.3966 0.30128 0.00567 0.0
C776 C 0.42171 0.29316 0.00664 0.0
C777 C 0.46843 0.23327 0.99596 0.0
C778 C 0.48517 0.2543 0.99403 0.0
C779 C 0.49465 0.23051 0.99973 0.0
C780 C 0.48034 0.22446 0.99921 0.0
C781 C 0.49721 0.24545 0.99694 0.0
C782 C 0.4709 0.24827 0.9936 0.0
C783 C 0.45342 0.22695 0.99524 0.0
O784 O 0.41 0.22819 0.00701 0.0
O785 O 0.4093 0.22959 0.98297 0.0
O786 O 0.4457 0.22986 0.98331 0.0
O787 O 0.44612 0.22873 0.00734 0.0
H788 H 0.41895 0.20227 0.98107 0.0
H789 H 0.41235 0.17599 0.97886 0.0
H790 H 0.37322 0.18353 0.00319 0.0
H791 H 0.37975 0.20982 0.00521 0.0
H792 H 0.38059 0.2856 0.9958 0.0
H793 H 0.39857 0.26654 0.99113 0.0
H794 H 0.41531 0.31424 0.0146 0.0
H795 H 0.43314 0.29532 0.00984 0.0
H796 H 0.48678 0.26589 0.99207 0.0
H797 H 0.50373 0.22341 0.00191 0.0
H798 H 0.47859 0.21289 0.0012 0.0
H799 H 0.46178 0.25529 0.99131 0.0
C800 C 0.34284 0.64832 0.69921 0.0
C801 C 0.3433 0.63709 0.68832 0.0
C802 C 0.34524 0.65523 0.66924 0.0
C803 C 0.3444 0.64051 0.67347 0.0
C804 C 0.34468 0.6664 0.6802 0.0
C805 C 0.34347 0.66298 0.695 0.0
U806 U 0.34966 0.62229 0.73037 0.0
O807 O 0.35899 0.62619 0.75277 0.0
O808 O 0.3367 0.61654 0.7496 0.0
C809 C 0.34707 0.62133 0.75906 0.0
C810 C 0.34221 0.64496 0.71497 0.0
C811 C 0.34248 0.62938 0.77245 0.0
C812 C 0.34063 0.65169 0.78772 0.0
C813 C 0.34364 0.64476 0.77417 0.0
C814 C 0.33487 0.62803 0.79778 0.0
C815 C 0.33648 0.64337 0.79983 0.0
C816 C 0.33786 0.62116 0.78431 0.0
C817 C 0.36637 0.58528 0.71727 0.0
C818 C 0.37512 0.56524 0.7319 0.0
C819 C 0.37649 0.56381 0.7054 0.0
C820 C 0.37013 0.57749 0.70452 0.0
C821 C 0.37922 0.55756 0.71908 0.0
C822 C 0.36878 0.57906 0.731 0.0
C823 C 0.36038 0.59998 0.71567 0.0
O824 O 0.33284 0.63442 0.71834 0.0
O825 O 0.35501 0.64413 0.7219 0.0
O826 O 0.3685 0.61111 0.72113 0.0
O827 O 0.3463 0.60129 0.71791 0.0
H828 H 0.34297 0.62567 0.69132 0.0
H829 H 0.34496 0.63164 0.66535 0.0
H830 H 0.34513 0.67784 0.67733 0.0
H831 H 0.34315 0.67181 0.7032 0.0
H832 H 0.34205 0.6635 0.78884 0.0
H833 H 0.34722 0.65136 0.76519 0.0
H834 H 0.3314 0.62123 0.80665 0.0
H835 H 0.33688 0.6093 0.78327 0.0
H836 H 0.37714 0.56074 0.7426 0.0
H837 H 0.37926 0.55809 0.69531 0.0
H838 H 0.36829 0.5821 0.69382 0.0
H839 H 0.36594 0.58494 0.74097 0.0
C840 C 0.03242 0.65495 0.31377 0.0
C841 C 0.04381 0.66179 0.32415 0.0
C842 C 0.02776 0.6568 0.34469 0.0
C843 C 0.04091 0.66266 0.33911 0.0
C844 C 0.01792 0.648 0.3357 0.0
C845 C 0.01901 0.64659 0.32058 0.0
U846 U 0.03304 0.67388 0.27376 0.0
O847 O 0.04661 0.66821 0.25493 0.0
O848 O 0.02337 0.66108 0.25503 0.0
C849 C 0.03541 0.66178 0.24756 0.0
C850 C 0.03569 0.65688 0.29649 0.0
C851 C 0.03295 0.66595 0.23238 0.0
C852 C 0.02552 0.65843 0.20751 0.0
C853 C 0.02973 0.65485 0.22174 0.0
C854 C 0.02802 0.68433 0.21438 0.0
C855 C 0.02453 0.67319 0.20373 0.0
C856 C 0.03211 0.68073 0.22869 0.0
C857 C 0.02181 0.71696 0.2771 0.0
C858 C 0.01738 0.74037 0.26586 0.0
C859 C 0.01558 0.73825 0.29213 0.0
C860 C 0.01935 0.72354 0.29085 0.0
C861 C 0.01474 0.74702 0.27969 0.0
C862 C 0.02077 0.72548 0.26459 0.0
C863 C 0.02586 0.70141 0.27588 0.0
O864 O 0.0465 0.66557 0.29237 0.0
O865 O 0.0238 0.65761 0.28817 0.0
O866 O 0.03961 0.69745 0.27603 0.0
O867 O 0.01595 0.6906 0.27477 0.0
H868 H 0.05383 0.6666 0.32022 0.0
H869 H 0.04867 0.66884 0.3463 0.0
H870 H 0.00858 0.64254 0.34047 0.0
H871 H 0.02508 0.65043 0.31508 0.0
H872 H 0.02305 0.64965 0.19945 0.0
H873 H 0.03013 0.64339 0.22453 0.0
H874 H 0.02723 0.69579 0.21173 0.0
H875 H 0.03427 0.68941 0.23693 0.0
H876 H 0.01715 0.7467 0.25601 0.0
H877 H 0.01333 0.74267 0.30295 0.0
H878 H 0.02027 0.71738 0.30071 0.0
H879 H 0.0228 0.72068 0.25385 0.0
C880 C 0.73409 0.22527 0.79045 0.0
C881 C 0.7309 0.2142 0.80037 0.0
C882 C 0.73361 0.23199 0.82074 0.0
C883 C 0.73072 0.21754 0.81547 0.0
C884 C 0.73721 0.24293 0.81083 0.0
C885 C 0.7375 0.23958 0.79578 0.0
U886 U 0.72276 0.19946 0.75858 0.0
O887 O 0.70876 0.20278 0.73909 0.0
O888 O 0.73164 0.19654 0.7364 0.0
C889 C 0.71946 0.2008 0.72995 0.0
C890 C 0.73253 0.22233 0.77453 0.0
C891 C 0.72092 0.21174 0.71841 0.0
C892 C 0.71365 0.23464 0.70769 0.0
C893 C 0.71459 0.22557 0.71977 0.0
C894 C 0.72647 0.2168 0.69308 0.0
C895 C 0.71914 0.23012 0.69409 0.0
C896 C 0.72727 0.20766 0.70513 0.0
C897 C 0.70734 0.16143 0.76822 0.0
C898 C 0.69289 0.14551 0.75108 0.0
C899 C 0.69627 0.1387 0.77643 0.0
C900 C 0.70493 0.15143 0.77931 0.0
C901 C 0.68988 0.13576 0.76238 0.0
C902 C 0.70152 0.15829 0.754 0.0
C903 C 0.71461 0.17567 0.77209 0.0
O904 O 0.74123 0.21246 0.76902 0.0
O905 O 0.71887 0.22068 0.76958 0.0
O906 O 0.70625 0.18702 0.7705 0.0
O907 O 0.72795 0.17786 0.76732 0.0
H908 H 0.72808 0.20312 0.7964 0.0
H909 H 0.72774 0.209 0.82294 0.0
H910 H 0.73939 0.25415 0.81473 0.0
H911 H 0.7399 0.24825 0.78827 0.0
H912 H 0.70809 0.24493 0.70881 0.0
H913 H 0.70973 0.22909 0.72993 0.0
H914 H 0.73071 0.21298 0.68272 0.0
H915 H 0.7322 0.19705 0.70383 0.0
H916 H 0.68802 0.1436 0.74018 0.0
H917 H 0.69429 0.13131 0.78529 0.0
H918 H 0.70933 0.15371 0.79035 0.0
H919 H 0.70321 0.16598 0.74533 0.0
C920 C 0.99184 0.39774 0.2083 0.0
C921 C 0.99261 0.40851 0.19765 0.0
C922 C 0.98811 0.38978 0.17831 0.0
C923 C 0.99081 0.40456 0.18274 0.0
C924 C 0.98737 0.37907 0.18908 0.0
C925 C 0.98921 0.38303 0.20395 0.0
U926 U 0.99615 0.42677 0.23884 0.0
O927 O 0.98618 0.42798 0.2605 0.0
O928 O 0.01017 0.42792 0.25888 0.0
C929 C 0.99893 0.42742 0.26755 0.0
C930 C 0.99358 0.40174 0.22397 0.0
C931 C 0.99981 0.41659 0.27905 0.0
C932 C 0.00173 0.39144 0.28672 0.0
C933 C 1.00002 0.4015 0.27556 0.0
C934 C 0.00271 0.41151 0.30485 0.0
C935 C 0.00321 0.39637 0.30149 0.0
C936 C 0.00102 0.42151 0.29372 0.0
C937 C 0.99713 0.46699 0.23043 0.0
C938 C 0.99844 0.4851 0.25054 0.0
C939 C 0.99798 0.49296 0.22536 0.0
C940 C 0.99733 0.47829 0.22037 0.0
C941 C 0.99843 0.49653 0.24051 0.0
C942 C 0.99781 0.47045 0.24553 0.0
C943 C 0.99602 0.45163 0.22517 0.0
O944 O 0.00633 0.40795 0.22803 0.0
O945 O 0.98235 0.40833 0.22964 0.0
O946 O 0.98396 0.44448 0.22874 0.0
O947 O 0.00794 0.44413 0.22729 0.0
H948 H 0.99457 0.41996 0.20089 0.0
H949 H 0.99133 0.41305 0.17471 0.0
H950 H 0.98553 0.36758 0.18601 0.0
H951 H 0.9886 0.37459 0.21205 0.0
H952 H 0.00196 0.37984 0.28381 0.0
H953 H 0.99908 0.39756 0.26422 0.0
H954 H 0.00409 0.41569 0.31607 0.0
H955 H 0.00095 0.43314 0.29655 0.0
H956 H 0.99857 0.48744 0.26226 0.0
H957 H 0.99815 0.5015 0.21736 0.0
H958 H 0.99688 0.47577 0.20867 0.0
H959 H 0.99766 0.46182 0.25344 0.0
P960 P 0.30865 0.53227 0.62581 0.0
H961 H 0.3128 0.53842 0.6573 0.0
H962 H 0.30092 0.55578 0.67383 0.0
H963 H 0.26769 0.56266 0.64022 0.0
H964 H 0.27931 0.54505 0.6239 0.0
H965 H 0.33353 0.51299 0.62664 0.0
H966 H 0.33607 0.48717 0.63178 0.0
H967 H 0.28899 0.48191 0.63428 0.0
H968 H 0.28649 0.50816 0.62924 0.0
H969 H 0.30865 0.56133 0.61442 0.0
H970 H 0.29688 0.5176 0.59794 0.0
O971 O 0.32549 0.53948 0.62932 0.0
H972 H 0.30141 0.57133 0.59091 0.0
H973 H 0.28958 0.52762 0.57407 0.0
C974 C 0.29718 0.54072 0.63925 0.0
C975 C 0.30268 0.54327 0.65367 0.0
C976 C 0.29589 0.5532 0.6631 0.0
C977 C 0.28357 0.56077 0.65817 0.0
C978 C 0.27732 0.55715 0.64419 0.0
C979 C 0.28397 0.54706 0.63487 0.0
C980 C 0.30982 0.51261 0.62771 0.0
C981 C 0.32369 0.50637 0.62824 0.0
C982 C 0.32516 0.49155 0.63127 0.0
C983 C 0.31277 0.48249 0.63368 0.0
C984 C 0.29876 0.4886 0.63251 0.0
C985 C 0.29731 0.50358 0.62963 0.0
C986 C 0.30338 0.53872 0.60791 0.0
C987 C 0.30451 0.55386 0.60568 0.0
C988 C 0.30023 0.5596 0.59226 0.0
C989 C 0.29481 0.55031 0.58063 0.0
C990 C 0.29377 0.53506 0.58282 0.0
C991 C 0.29793 0.52931 0.59642 0.0
P992 P 0.27069 0.45524 0.0123 0.0
H993 H 0.27787 0.44193 0.04053 0.0
H994 H 0.29636 0.42413 0.04743 0.0
H995 H 0.31501 0.42737 0.00464 0.0
H996 H 0.29636 0.44437 0.99759 0.0
H997 H 0.2584 0.48308 0.02163 0.0
H998 H 0.26772 0.50846 0.02126 0.0
H999 H 0.30559 0.4942 0.99799 0.0
H1000 H 0.29616 0.46902 0.99812 0.0
H1001 H 0.25124 0.42986 0.00814 0.0
H1002 H 0.27613 0.45843 0.98067 0.0
O1003 O 0.2576 0.45478 0.02471 0.0
H1004 H 0.24711 0.4124 0.98758 0.0
H1005 H 0.27234 0.44076 0.96003 0.0
C1006 C 0.28582 0.44465 0.0186 0.0
C1007 C 0.28612 0.43903 0.03275 0.0
C1008 C 0.29666 0.4289 0.03669 0.0
C1009 C 0.30714 0.42454 0.02659 0.0
C1010 C 0.30725 0.43079 0.01273 0.0
C1011 C 0.29658 0.44061 0.00872 0.0
C1012 C 0.27664 0.47404 0.01007 0.0
C1013 C 0.26865 0.4854 0.01632 0.0
C1014 C 0.27403 0.4999 0.01622 0.0
C1015 C 0.28749 0.50327 0.00978 0.0
C1016 C 0.29518 0.49194 0.00301 0.0
C1017 C 0.28979 0.47746 0.00315 0.0
C1018 C 0.26383 0.44554 0.99592 0.0
C1019 C 0.25542 0.43261 0.99754 0.0
C1020 C 0.25326 0.42252 0.98583 0.0
C1021 C 0.25963 0.42507 0.97226 0.0
C1022 C 0.26726 0.4385 0.97034 0.0
C1023 C 0.2694 0.44865 0.98213 0.0
P1024 P 0.72734 0.99362 0.34369 0.0
H1025 H 0.7385 0.96909 0.32597 0.0
H1026 H 0.72863 0.94423 0.31987 0.0
H1027 H 0.68841 0.95475 0.34118 0.0
H1028 H 0.69803 0.97941 0.34672 0.0
H1029 H 0.7527 0.01102 0.33436 0.0
H1030 H 0.75531 0.03242 0.31932 0.0
H1031 H 0.70839 0.03149 0.3109 0.0
H1032 H 0.70588 0.0102 0.32632 0.0
H1033 H 0.72116 0.97914 0.37039 0.0
H1034 H 0.71136 0.02086 0.35178 0.0
O1035 O 0.74414 0.98995 0.35007 0.0
H1036 H 0.70758 0.98569 0.39189 0.0
H1037 H 0.69738 0.02734 0.37321 0.0
C1038 C 0.71911 0.97622 0.33687 0.0
C1039 C 0.72745 0.96611 0.32907 0.0
C1040 C 0.72183 0.95182 0.32573 0.0
C1041 C 0.70772 0.94734 0.33013 0.0
C1042 C 0.69924 0.95772 0.33747 0.0
C1043 C 0.70484 0.97194 0.34077 0.0
C1044 C 0.72913 0.0084 0.33091 0.0
C1045 C 0.74299 0.01504 0.3289 0.0
C1046 C 0.74448 0.02739 0.32028 0.0
C1047 C 0.73209 0.03362 0.3137 0.0
C1048 C 0.71819 0.02697 0.31574 0.0
C1049 C 0.71676 0.01455 0.3243 0.0
C1050 C 0.71721 0.99935 0.35937 0.0
C1051 C 0.71587 0.98962 0.37082 0.0
C1052 C 0.7078 0.99328 0.38299 0.0
C1053 C 0.70102 0.00692 0.3841 0.0
C1054 C 0.70225 0.01666 0.37254 0.0
C1055 C 0.71033 0.01292 0.36025 0.0
P1056 P 0.66368 0.01085 0.04529 0.0
H1057 H 0.6528 0.02752 0.02098 0.0
H1058 H 0.66217 0.04979 0.00977 0.0
H1059 H 0.70234 0.0478 0.03599 0.0
H1060 H 0.69299 0.02546 0.04703 0.0
H1061 H 0.64157 0.98739 0.04372 0.0
H1062 H 0.64111 0.96297 0.03188 0.0
H1063 H 0.68209 0.97325 0.01146 0.0
H1064 H 0.68252 0.99791 0.02328 0.0
H1065 H 0.6692 0.02861 0.0718 0.0
H1066 H 0.68212 0.98645 0.05464 0.0
O1067 O 0.64705 0.01602 0.05009 0.0
H1068 H 0.68497 0.02568 0.09359 0.0
H1069 H 0.69799 0.98353 0.07632 0.0
C1070 C 0.67198 0.02522 0.03516 0.0
C1071 C 0.66374 0.03172 0.02406 0.0
C1072 C 0.66918 0.04432 0.01757 0.0
C1073 C 0.68291 0.05055 0.02217 0.0
C1074 C 0.69165 0.04326 0.0324 0.0
C1075 C 0.68625 0.03058 0.03879 0.0
C1076 C 0.66193 0.99445 0.03414 0.0
C1077 C 0.65022 0.9846 0.03635 0.0
C1078 C 0.64998 0.9707 0.02965 0.0
C1079 C 0.66152 0.9665 0.0208 0.0
C1080 C 0.67303 0.97649 0.01813 0.0
C1081 C 0.67324 0.99048 0.02482 0.0
C1082 C 0.6744 0.00775 0.06168 0.0
C1083 C 0.67535 0.01869 0.07278 0.0
C1084 C 0.68447 0.01706 0.08513 0.0
C1085 C 0.69281 0.00443 0.08655 0.0
C1086 C 0.69165 0.99335 0.07551 0.0
C1087 C 0.68256 0.99503 0.0631 0.0
P1088 P 0.62612 0.30956 0.53237 0.0
H1089 H 0.65549 0.31759 0.54442 0.0
H1090 H 0.6719 0.30503 0.56115 0.0
H1091 H 0.64462 0.26553 0.55546 0.0
H1092 H 0.62805 0.27832 0.53892 0.0
H1093 H 0.62356 0.33383 0.51261 0.0
H1094 H 0.62777 0.33652 0.48673 0.0
H1095 H 0.63522 0.29001 0.48213 0.0
H1096 H 0.63161 0.28757 0.5086 0.0
H1097 H 0.61662 0.30634 0.56189 0.0
H1098 H 0.59748 0.29896 0.51837 0.0
O1099 O 0.62859 0.32668 0.53921 0.0
H1100 H 0.59334 0.29956 0.57256 0.0
H1101 H 0.57376 0.29226 0.52909 0.0
C1102 C 0.64038 0.29898 0.54069 0.0
C1103 C 0.65321 0.30612 0.54649 0.0
C1104 C 0.66265 0.29889 0.55604 0.0
C1105 C 0.65942 0.28435 0.55991 0.0
C1106 C 0.64724 0.27684 0.55298 0.0
C1107 C 0.63781 0.28409 0.54342 0.0
C1108 C 0.62738 0.31052 0.51263 0.0
C1109 C 0.62603 0.32414 0.5061 0.0
C1110 C 0.62834 0.32565 0.49114 0.0
C1111 C 0.63181 0.31349 0.48215 0.0
C1112 C 0.63277 0.29969 0.48868 0.0
C1113 C 0.63057 0.29822 0.5038 0.0
C1114 C 0.60879 0.3032 0.53935 0.0
C1115 C 0.60737 0.30318 0.55461 0.0
C1116 C 0.59399 0.29939 0.56072 0.0
C1117 C 0.58159 0.29557 0.5517 0.0
C1118 C 0.58311 0.29514 0.53634 0.0
C1119 C 0.59663 0.299 0.53019 0.0
P1120 P 0.04722 0.66239 0.0125 0.0
H1121 H 0.02874 0.64698 0.03266 0.0
H1122 H 0.01609 0.65509 0.0545 0.0
H1123 H 0.02827 0.70016 0.04592 0.0
H1124 H 0.04097 0.6919 0.02403 0.0
H1125 H 0.04499 0.63894 0.99031 0.0
H1126 H 0.03473 0.63823 0.96528 0.0
H1127 H 0.01572 0.68044 0.97294 0.0
H1128 H 0.02607 0.68118 0.99821 0.0
H1129 H 0.06872 0.6769 0.0325 0.0
H1130 H 0.05903 0.67545 0.98581 0.0
O1131 O 0.05424 0.6464 0.01703 0.0
H1132 H 0.08925 0.69405 0.02894 0.0
H1133 H 0.07939 0.69283 0.98222 0.0
C1134 C 0.0362 0.6688 0.02713 0.0
C1135 C 0.02854 0.65861 0.0354 0.0
C1136 C 0.02117 0.66329 0.04777 0.0
C1137 C 0.02133 0.67827 0.05198 0.0
C1138 C 0.02818 0.68855 0.04303 0.0
C1139 C 0.03547 0.68383 0.03059 0.0
C1140 C 0.03614 0.66004 0.99607 0.0
C1141 C 0.03822 0.64782 0.98683 0.0
C1142 C 0.03244 0.64745 0.97255 0.0
C1143 C 0.02461 0.65933 0.96736 0.0
C1144 C 0.02169 0.67117 0.97687 0.0
C1145 C 0.02752 0.67154 0.99123 0.0
C1146 C 0.06216 0.67513 0.00952 0.0
C1147 C 0.0709 0.68042 0.02152 0.0
C1148 C 0.08255 0.69031 0.01946 0.0
C1149 C 0.08574 0.69499 0.00531 0.0
C1150 C 0.07712 0.68947 0.99324 0.0
C1151 C 0.06542 0.67958 0.99533 0.0
P1152 P 0.01482 0.27041 0.4532 0.0
H1153 H 0.04343 0.2818 0.4436 0.0
H1154 H 0.05003 0.30218 0.42779 0.0
H1155 H 0.00443 0.31382 0.42498 0.0
H1156 H 0.998 0.29372 0.44055 0.0
H1157 H 0.02165 0.25634 0.48081 0.0
H1158 H 0.02016 0.26458 0.50649 0.0
H1159 H 0.00115 0.30494 0.49267 0.0
H1160 H 0.00272 0.29672 0.46713 0.0
H1161 H 0.01061 0.25364 0.42604 0.0
H1162 H 0.98315 0.27201 0.45911 0.0
O1163 O 0.02788 0.258 0.45231 0.0
H1164 H 0.98923 0.24866 0.40994 0.0
H1165 H 0.96141 0.26658 0.44319 0.0
C1166 C 0.02021 0.28614 0.44305 0.0
C1167 C 0.03492 0.28887 0.43968 0.0
C1168 C 0.03868 0.30049 0.43069 0.0
C1169 C 0.02775 0.3096 0.4252 0.0
C1170 C 0.01314 0.30717 0.42922 0.0
C1171 C 0.00942 0.29555 0.43803 0.0
C1172 C 0.01249 0.27598 0.47204 0.0
C1173 C 0.01714 0.26694 0.48331 0.0
C1174 C 0.01628 0.27166 0.49797 0.0
C1175 C 0.01072 0.28548 0.50155 0.0
C1176 C 0.00579 0.29437 0.49022 0.0
C1177 C 0.0066 0.28962 0.47559 0.0
C1178 C 0.99846 0.26294 0.44386 0.0
C1179 C 0.99986 0.25606 0.43007 0.0
C1180 C 0.98755 0.25323 0.42084 0.0
C1181 C 0.97351 0.25722 0.4252 0.0
C1182 C 0.97206 0.26351 0.43938 0.0
C1183 C 0.98446 0.26643 0.44861 0.0
P1184 P 0.34396 0.72764 0.99328 0.0
H1185 H 0.32412 0.73661 0.96928 0.0
H1186 H 0.31754 0.72568 0.94504 0.0
H1187 H 0.34394 0.68838 0.95511 0.0
H1188 H 0.34901 0.69856 0.97941 0.0
H1189 H 0.33494 0.75381 0.00945 0.0
H1190 H 0.32019 0.75773 0.03077 0.0
H1191 H 0.31228 0.71091 0.03317 0.0
H1192 H 0.32661 0.70714 0.01126 0.0
H1193 H 0.37153 0.72328 0.97977 0.0
H1194 H 0.35169 0.71089 0.02019 0.0
O1195 O 0.35004 0.74426 0.98859 0.0
H1196 H 0.39303 0.70958 0.98629 0.0
H1197 H 0.37314 0.69694 0.02663 0.0
C1198 C 0.33713 0.71854 0.97628 0.0
C1199 C 0.32815 0.7259 0.96633 0.0
C1200 C 0.32461 0.71969 0.9523 0.0
C1201 C 0.33029 0.70609 0.94773 0.0
C1202 C 0.33903 0.69868 0.95798 0.0
C1203 C 0.3422 0.7047 0.97204 0.0
C1204 C 0.33141 0.7302 0.00818 0.0
C1205 C 0.32963 0.74437 0.01414 0.0
C1206 C 0.32137 0.74659 0.02661 0.0
C1207 C 0.31506 0.73464 0.03382 0.0
C1208 C 0.31671 0.72042 0.02778 0.0
C1209 C 0.32482 0.71824 0.01512 0.0
C1210 C 0.3599 0.71811 0.99936 0.0
C1211 C 0.37173 0.71751 0.98999 0.0
C1212 C 0.38388 0.70938 0.9936 0.0
C1213 C 0.38455 0.70178 0.00679 0.0
C1214 C 0.37273 0.70242 0.01626 0.0
C1215 C 0.36045 0.71051 0.01255 0.0
P1216 P 0.53139 0.62587 0.3088 0.0
H1217 H 0.54372 0.655 0.31703 0.0
H1218 H 0.56113 0.67107 0.30518 0.0
H1219 H 0.55666 0.64371 0.26557 0.0
H1220 H 0.5397 0.62721 0.27792 0.0
H1221 H 0.50954 0.61414 0.32794 0.0
H1222 H 0.48356 0.61826 0.33058 0.0
H1223 H 0.48326 0.64336 0.29106 0.0
H1224 H 0.50969 0.63973 0.28899 0.0
H1225 H 0.55948 0.61351 0.31516 0.0
H1226 H 0.51989 0.59997 0.29076 0.0
O1227 O 0.53655 0.62903 0.32638 0.0
H1228 H 0.57049 0.59029 0.30882 0.0
H1229 H 0.53085 0.5763 0.28442 0.0
C1230 C 0.54066 0.63974 0.29847 0.0
C1231 C 0.54629 0.65257 0.30571 0.0
C1232 C 0.55623 0.66186 0.29883 0.0
C1233 C 0.56062 0.65862 0.28444 0.0
C1234 C 0.55391 0.64637 0.27679 0.0
C1235 C 0.54406 0.63699 0.28377 0.0
C1236 C 0.51159 0.62666 0.30832 0.0
C1237 C 0.50385 0.62036 0.31971 0.0
C1238 C 0.48887 0.62269 0.32116 0.0
C1239 C 0.48111 0.63121 0.31107 0.0
C1240 C 0.48883 0.63698 0.29922 0.0
C1241 C 0.50394 0.63476 0.2979 0.0
C1242 C 0.53874 0.60831 0.30377 0.0
C1243 C 0.55308 0.60542 0.30855 0.0
C1244 C 0.55936 0.59208 0.30493 0.0
C1245 C 0.55148 0.58127 0.29632 0.0
C1246 C 0.53721 0.58437 0.2911 0.0
C1247 C 0.53088 0.59782 0.2948 0.0
P1248 P 0.01009 0.04537 0.6624 0.0
H1249 H 0.02844 0.02347 0.64924 0.0
H1250 H 0.05099 0.01229 0.65793 0.0
H1251 H 0.04655 0.03346 0.70058 0.0
H1252 H 0.02408 0.04465 0.69179 0.0
H1253 H 0.98428 0.04695 0.64363 0.0
H1254 H 0.96008 0.03473 0.64406 0.0
H1255 H 0.97496 0.00809 0.67956 0.0
H1256 H 0.99937 0.02041 0.67915 0.0
H1257 H 0.02665 0.07283 0.66613 0.0
H1258 H 0.98789 0.05286 0.68416 0.0
O1259 O 0.01431 0.05068 0.64565 0.0
H1260 H 0.0243 0.09426 0.68253 0.0
H1261 H 0.98548 0.07435 0.70056 0.0
C1262 C 0.02498 0.03525 0.66972 0.0
C1263 C 0.03223 0.02551 0.66052 0.0
C1264 C 0.04501 0.01902 0.66555 0.0
C1265 C 0.05061 0.0222 0.67987 0.0
C1266 C 0.04259 0.03104 0.68942 0.0
C1267 C 0.02979 0.03748 0.68438 0.0
C1268 C 0.9936 0.03432 0.66112 0.0
C1269 C 0.98249 0.03822 0.65123 0.0
C1270 C 0.96872 0.03132 0.65153 0.0
C1271 C 0.96592 0.02054 0.66179 0.0
C1272 C 0.9771 0.01633 0.6715 0.0
C1273 C 0.99095 0.02328 0.6712 0.0
C1274 C 0.00736 0.06139 0.67377 0.0
C1275 C 0.01756 0.07313 0.67351 0.0
C1276 C 0.01627 0.08528 0.68296 0.0
C1277 C 0.00476 0.08585 0.69285 0.0
C1278 C 0.9944 0.07416 0.69298 0.0
C1279 C 0.99578 0.06191 0.68358 0.0
P1280 P 0.4552 0.01197 0.27076 0.0
H1281 H 0.44202 0.04023 0.2781 0.0
H1282 H 0.42443 0.04717 0.29676 0.0
H1283 H 0.42734 0.00417 0.31504 0.0
H1284 H 0.44422 0.99714 0.29625 0.0
H1285 H 0.48297 0.02385 0.26029 0.0
H1286 H 0.50819 0.02356 0.27008 0.0
H1287 H 0.49397 0.99607 0.30505 0.0
H1288 H 0.46892 0.99621 0.29516 0.0
H1289 H 0.42893 0.0077 0.25268 0.0
H1290 H 0.45965 0.98014 0.27471 0.0
O1291 O 0.45464 0.02433 0.25762 0.0
H1292 H 0.41221 0.98673 0.24805 0.0
H1293 H 0.44298 0.95887 0.2699 0.0
C1294 C 0.44455 0.0182 0.28585 0.0
C1295 C 0.43907 0.03241 0.28629 0.0
C1296 C 0.42906 0.03637 0.29693 0.0
C1297 C 0.42465 0.02623 0.30736 0.0
C1298 C 0.43078 0.0123 0.30732 0.0
C1299 C 0.44051 0.00828 0.29657 0.0
C1300 C 0.47397 0.01006 0.27696 0.0
C1301 C 0.48526 0.01764 0.26998 0.0
C1302 C 0.49967 0.01759 0.27566 0.0
C1303 C 0.50301 0.00991 0.28841 0.0
C1304 C 0.49173 0.00203 0.29516 0.0
C1305 C 0.47734 0.00213 0.2895 0.0
C1306 C 0.44564 0.9955 0.26385 0.0
C1307 C 0.43233 0.997 0.25605 0.0
C1308 C 0.42273 0.98495 0.25343 0.0
C1309 C 0.4262 0.97107 0.25863 0.0
C1310 C 0.43989 0.96944 0.2659 0.0
C1311 C 0.44952 0.98158 0.26852 0.0
P1312 P 0.99316 0.3423 0.72704 0.0
H1313 H 0.96723 0.3258 0.73692 0.0
H1314 H 0.9426 0.32108 0.72588 0.0
H1315 H 0.95679 0.34022 0.68571 0.0
H1316 H 0.98114 0.34501 0.6968 0.0
H1317 H 0.00955 0.33236 0.75281 0.0
H1318 H 0.031 0.31746 0.7558 0.0
H1319 H 0.0314 0.30974 0.70882 0.0
H1320 H 0.01009 0.32508 0.70598 0.0
H1321 H 0.97948 0.36879 0.71781 0.0
H1322 H 0.02274 0.35083 0.71634 0.0
O1323 O 0.98882 0.34843 0.74374 0.0
H1324 H 0.98881 0.39112 0.7071 0.0
H1325 H 0.032 0.37298 0.70525 0.0
C1326 C 0.97604 0.33601 0.71784 0.0
C1327 C 0.96508 0.32879 0.72567 0.0
C1328 C 0.95098 0.32606 0.7193 0.0
C1329 C 0.94754 0.33054 0.70496 0.0
C1330 C 0.95884 0.337 0.69691 0.0
C1331 C 0.97288 0.33969 0.70326 0.0
C1332 C 0.00752 0.32915 0.72919 0.0
C1333 C 0.01382 0.32701 0.74316 0.0
C1334 C 0.02622 0.31849 0.74487 0.0
C1335 C 0.03286 0.31219 0.73257 0.0
C1336 C 0.02655 0.31434 0.71856 0.0
C1337 C 0.01409 0.32281 0.71691 0.0
C1338 C 1.00026 0.35797 0.71769 0.0
C1339 C 0.99088 0.36945 0.71478 0.0
C1340 C 0.9962 0.38215 0.70843 0.0
C1341 C 0.01113 0.38372 0.70509 0.0
C1342 C 0.02043 0.372 0.70756 0.0
C1343 C 0.01507 0.35927 0.71393 0.0
P1344 P 0.72534 0.47883 0.376 0.0
H1345 H 0.73764 0.47376 0.34707 0.0
H1346 H 0.73804 0.45188 0.33085 0.0
H1347 H 0.70787 0.42946 0.35884 0.0
H1348 H 0.70749 0.45132 0.37495 0.0
H1349 H 0.71858 0.50392 0.39474 0.0
H1350 H 0.70617 0.52672 0.39002 0.0
H1351 H 0.69402 0.51044 0.34617 0.0
H1352 H 0.70676 0.48772 0.35093 0.0
H1353 H 0.74713 0.46567 0.39499 0.0
H1354 H 0.70086 0.47394 0.39598 0.0
O1355 O 0.7424 0.48573 0.37462 0.0
H1356 H 0.74572 0.45307 0.41814 0.0
H1357 H 0.69934 0.46131 0.41934 0.0
C1358 C 0.72283 0.46406 0.36242 0.0
C1359 C 0.73089 0.46423 0.34956 0.0
C1360 C 0.73106 0.45173 0.34025 0.0
C1361 C 0.72317 0.43886 0.34371 0.0
C1362 C 0.71427 0.43913 0.35604 0.0
C1363 C 0.71403 0.45165 0.36526 0.0
C1364 C 0.71334 0.49397 0.37332 0.0
C1365 C 0.71291 0.50509 0.38424 0.0
C1366 C 0.70581 0.51817 0.3815 0.0
C1367 C 0.69905 0.52047 0.3677 0.0
C1368 C 0.69921 0.50912 0.35687 0.0
C1369 C 0.70635 0.49602 0.35964 0.0
C1370 C 0.72419 0.47108 0.39395 0.0
C1371 C 0.7367 0.46503 0.40036 0.0
C1372 C 0.73588 0.4578 0.41361 0.0
C1373 C 0.72244 0.45627 0.42068 0.0
C1374 C 0.70985 0.46228 0.41417 0.0
C1375 C 0.71073 0.46963 0.40091 0.0
P1376 P 0.69963 0.5345 0.00739 0.0
H1377 H 0.677 0.53289 0.98399 0.0
H1378 H 0.66826 0.55118 0.96714 0.0
H1379 H 0.70435 0.58052 0.98207 0.0
H1380 H 0.71358 0.56187 0.99743 0.0
H1381 H 0.71472 0.51258 0.0239 0.0
H1382 H 0.71667 0.48631 0.01895 0.0
H1383 H 0.70165 0.49185 0.97412 0.0
H1384 H 0.69984 0.51814 0.97909 0.0
H1385 H 0.69218 0.55067 0.03389 0.0
H1386 H 0.73137 0.54151 0.01034 0.0
O1387 O 0.68359 0.5303 0.01483 0.0
H1388 H 0.70606 0.56814 0.05001 0.0
H1389 H 0.74536 0.55959 0.02636 0.0
C1390 C 0.69571 0.54614 0.99229 0.0
C1391 C 0.68328 0.5431 0.98316 0.0
C1392 C 0.67821 0.55368 0.97364 0.0
C1393 C 0.68519 0.56768 0.97354 0.0
C1394 C 0.69852 0.56999 0.98165 0.0
C1395 C 0.70378 0.55927 0.99079 0.0
C1396 C 0.70712 0.51732 0.0019 0.0
C1397 C 0.71255 0.50827 0.01282 0.0
C1398 C 0.71365 0.49323 0.00996 0.0
C1399 C 0.70913 0.48704 0.99619 0.0
C1400 C 0.70507 0.49635 0.98487 0.0
C1401 C 0.70407 0.51141 0.98772 0.0
C1402 C 0.7108 0.54462 0.02107 0.0
C1403 C 0.70388 0.55211 0.03243 0.0
C1404 C 0.71181 0.56215 0.04162 0.0
C1405 C 0.72676 0.56515 0.03941 0.0
C1406 C 0.73384 0.5574 0.02826 0.0
C1407 C 0.72592 0.54702 0.01924 0.0
P1408 P 0.32771 0.99434 0.6893 0.0
H1409 H 0.35271 0.01521 0.69603 0.0
H1410 H 0.35466 0.04172 0.69881 0.0
H1411 H 0.30726 0.0434 0.69578 0.0
H1412 H 0.30602 0.01726 0.69073 0.0
H1413 H 0.33406 0.96592 0.70128 0.0
H1414 H 0.31854 0.94775 0.71302 0.0
H1415 H 0.28427 0.97912 0.71646 0.0
H1416 H 0.30012 0.99754 0.70527 0.0
H1417 H 0.33655 0.98142 0.66091 0.0
H1418 H 0.29662 0.99611 0.67984 0.0
O1419 O 0.34477 0.98837 0.68812 0.0
H1420 H 0.32371 0.97783 0.63715 0.0
H1421 H 0.28352 0.99151 0.65659 0.0
C1422 C 0.32904 0.01405 0.69339 0.0
C1423 C 0.34272 0.02132 0.69598 0.0
C1424 C 0.34378 0.0367 0.69784 0.0
C1425 C 0.3311 0.0453 0.69756 0.0
C1426 C 0.31742 0.03768 0.69575 0.0
C1427 C 0.31652 0.02245 0.69321 0.0
C1428 C 0.31837 0.98325 0.70246 0.0
C1429 C 0.3235 0.96919 0.70512 0.0
C1430 C 0.31458 0.95874 0.71175 0.0
C1431 C 0.30022 0.96206 0.71553 0.0
C1432 C 0.29532 0.97633 0.71361 0.0
C1433 C 0.30442 0.9869 0.70729 0.0
C1434 C 0.31788 0.99009 0.67204 0.0
C1435 C 0.32507 0.98402 0.66001 0.0
C1436 C 0.31759 0.98156 0.64647 0.0
C1437 C 0.30262 0.98476 0.64484 0.0
C1438 C 0.29516 0.98945 0.6573 0.0
C1439 C 0.30273 0.99221 0.67067 0.0
P1440 P 0.29672 0.99391 0.95425 0.0
H1441 H 0.29081 0.97538 0.97913 0.0
H1442 H 0.29837 0.9507 0.98513 0.0
H1443 H 0.32692 0.9505 0.94813 0.0
H1444 H 0.31912 0.97509 0.94211 0.0
H1445 H 0.28946 0.02442 0.95843 0.0
H1446 H 0.30422 0.04649 0.96575 0.0
H1447 H 0.34162 0.01988 0.97448 0.0
H1448 H 0.32694 0.99775 0.96679 0.0
H1449 H 0.28339 0.97404 0.9316 0.0
H1450 H 0.30828 0.01512 0.93315 0.0
O1451 O 0.27953 0.99476 0.95995 0.0
H1452 H 0.28099 0.97519 0.90478 0.0
H1453 H 0.30574 0.01639 0.90653 0.0
C1454 C 0.30407 0.97681 0.95992 0.0
C1455 C 0.29881 0.97006 0.97241 0.0
C1456 C 0.30325 0.95601 0.97591 0.0
C1457 C 0.31309 0.94855 0.96697 0.0
C1458 C 0.31911 0.95584 0.95506 0.0
C1459 C 0.31467 0.96989 0.95159 0.0
C1460 C 0.30707 0.00946 0.96217 0.0
C1461 C 0.30074 0.02328 0.96221 0.0
C1462 C 0.30915 0.03585 0.96635 0.0
C1463 C 0.32395 0.03476 0.9707 0.0
C1464 C 0.33015 0.02089 0.97128 0.0
C1465 C 0.32178 0.00829 0.96688 0.0
C1466 C 0.29595 0.9945 0.93444 0.0
C1467 C 0.2884 0.98326 0.92619 0.0
C1468 C 0.28707 0.9839 0.91088 0.0
C1469 C 0.29312 0.99592 0.90357 0.0
C1470 C 0.30082 0.00708 0.91187 0.0
C1471 C 0.30229 0.00634 0.92715 0.0
P1472 P 0.37644 0.72722 0.47835 0.0
H1473 H 0.34974 0.74296 0.47178 0.0
H1474 H 0.33281 0.74211 0.45062 0.0
H1475 H 0.35383 0.70359 0.43351 0.0
H1476 H 0.37114 0.70486 0.45465 0.0
H1477 H 0.38514 0.73387 0.50868 0.0
H1478 H 0.38069 0.72189 0.53152 0.0
H1479 H 0.35935 0.68515 0.50741 0.0
H1480 H 0.36324 0.69784 0.48437 0.0
H1481 H 0.39386 0.74682 0.46103 0.0
H1482 H 0.39646 0.70235 0.47537 0.0
O1483 O 0.37611 0.7449 0.48367 0.0
H1484 H 0.41634 0.74415 0.44767 0.0
H1485 H 0.41897 0.69935 0.46154 0.0
C1486 C 0.36185 0.72412 0.46469 0.0
C1487 C 0.35058 0.73417 0.46362 0.0
C1488 C 0.34081 0.73362 0.45149 0.0
C1489 C 0.34202 0.72287 0.4402 0.0
C1490 C 0.35276 0.7122 0.44183 0.0
C1491 C 0.36259 0.71282 0.45398 0.0
C1492 C 0.37438 0.71686 0.49481 0.0
C1493 C 0.37953 0.72322 0.50825 0.0
C1494 C 0.37708 0.71621 0.52139 0.0
C1495 C 0.36968 0.70242 0.52148 0.0
C1496 C 0.36489 0.69583 0.50787 0.0
C1497 C 0.36722 0.70301 0.49465 0.0
C1498 C 0.39368 0.7249 0.46948 0.0
C1499 C 0.39937 0.73647 0.46139 0.0
C1500 C 0.41216 0.73485 0.45356 0.0
C1501 C 0.4195 0.7215 0.45342 0.0
C1502 C 0.41372 0.70985 0.46154 0.0
C1503 C 0.40086 0.71152 0.46945 0.0
P1504 P 0.95421 0.29645 0.99286 0.0
H1505 H 0.98096 0.29123 0.97722 0.0
H1506 H 0.98912 0.29806 0.95301 0.0
H1507 H 0.95013 0.32332 0.94693 0.0
H1508 H 0.94234 0.31681 0.97138 0.0
H1509 H 0.96351 0.28807 0.02208 0.0
H1510 H 0.97106 0.30228 0.04427 0.0
H1511 H 0.96932 0.34227 0.02016 0.0
H1512 H 0.96177 0.32788 0.99781 0.0
H1513 H 0.93122 0.28609 0.97168 0.0
H1514 H 0.93357 0.30572 0.01541 0.0
O1515 O 0.95927 0.27908 0.99413 0.0
H1516 H 0.9044 0.28389 0.97291 0.0
H1517 H 0.90691 0.3034 0.0167 0.0
C1518 C 0.96084 0.30315 0.97586 0.0
C1519 C 0.97425 0.29835 0.97072 0.0
C1520 C 0.97887 0.30223 0.95685 0.0
C1521 C 0.97015 0.31102 0.9479 0.0
C1522 C 0.95714 0.31656 0.95353 0.0
C1523 C 0.95257 0.31272 0.96745 0.0
C1524 C 0.96225 0.30691 0.00828 0.0
C1525 C 0.96506 0.29986 0.02145 0.0
C1526 C 0.96927 0.308 0.03415 0.0
C1527 C 0.97066 0.32339 0.03396 0.0
C1528 C 0.96843 0.33042 0.02059 0.0
C1529 C 0.96411 0.32223 0.00784 0.0
C1530 C 0.93442 0.29628 0.99333 0.0
C1531 C 0.92597 0.29012 0.98145 0.0
C1532 C 0.91066 0.28886 0.98216 0.0
C1533 C 0.90358 0.29347 0.99491 0.0
C1534 C 0.91208 0.29967 0.00678 0.0
C1535 C 0.92735 0.30108 0.00599 0.0
P1536 P 0.0099 0.69912 0.53539 0.0
H1537 H 0.99763 0.67089 0.54409 0.0
H1538 H 0.98158 0.66435 0.56381 0.0
H1539 H 0.97384 0.71025 0.57268 0.0
H1540 H 0.98974 0.71675 0.55258 0.0
H1541 H 0.02424 0.71547 0.51279 0.0
H1542 H 0.01779 0.71675 0.48672 0.0
H1543 H 0.9743 0.69922 0.49474 0.0
H1544 H 0.98089 0.69775 0.52074 0.0
H1545 H 0.03754 0.69317 0.55041 0.0
H1546 H 0.01022 0.73046 0.54435 0.0
O1547 O 0.01838 0.68384 0.53047 0.0
H1548 H 0.05254 0.70718 0.56882 0.0
H1549 H 0.0249 0.74435 0.56349 0.0
C1550 C 0.99529 0.69433 0.54725 0.0
C1551 C 0.99222 0.67956 0.54999 0.0
C1552 C 0.98288 0.67582 0.56118 0.0
C1553 C 0.97658 0.68683 0.56985 0.0
C1554 C 0.97867 0.70158 0.56622 0.0
C1555 C 0.98787 0.70529 0.55485 0.0
C1556 C 0.00306 0.70657 0.51868 0.0
C1557 C 0.01308 0.71262 0.50905 0.0
C1558 C 0.00937 0.71334 0.49413 0.0
C1559 C 0.9956 0.70786 0.48868 0.0
C1560 C 0.98504 0.70335 0.49864 0.0
C1561 C 0.98878 0.70262 0.51354 0.0
C1562 C 0.0228 0.71079 0.54595 0.0
C1563 C 0.03496 0.70449 0.55277 0.0
C1564 C 0.0435 0.71248 0.56335 0.0
C1565 C 0.0398 0.72678 0.56756 0.0
C1566 C 0.02791 0.7333 0.56041 0.0
C1567 C 0.01957 0.7254 0.5495 0.0
P1568 P 0.68941 0.32869 0.99511 0.0
H1569 H 0.69631 0.35348 0.01602 0.0
H1570 H 0.69946 0.35525 0.04246 0.0
H1571 H 0.69718 0.30782 0.04391 0.0
H1572 H 0.69196 0.30668 0.01769 0.0
H1573 H 0.69823 0.33475 0.9657 0.0
H1574 H 0.70771 0.31894 0.94655 0.0
H1575 H 0.71662 0.28592 0.97826 0.0
H1576 H 0.70715 0.30201 0.99762 0.0
H1577 H 0.66096 0.33728 0.98216 0.0
H1578 H 0.68031 0.29761 0.99684 0.0
O1579 O 0.68789 0.34586 0.98949 0.0
H1580 H 0.63728 0.3243 0.97867 0.0
H1581 H 0.65709 0.28425 0.99222 0.0
C1582 C 0.69406 0.32978 0.01469 0.0
C1583 C 0.69655 0.34343 0.02203 0.0
C1584 C 0.69862 0.34439 0.03737 0.0
C1585 C 0.69863 0.33166 0.04588 0.0
C1586 C 0.69693 0.31799 0.0382 0.0
C1587 C 0.69426 0.31718 0.02297 0.0
C1588 C 0.70205 0.31968 0.98322 0.0
C1589 C 0.70279 0.32442 0.96877 0.0
C1590 C 0.70806 0.31527 0.95775 0.0
C1591 C 0.71261 0.3011 0.96088 0.0
C1592 C 0.71315 0.2968 0.97555 0.0
C1593 C 0.70782 0.30604 0.98665 0.0
C1594 C 0.67218 0.31878 0.99107 0.0
C1595 C 0.66012 0.32585 0.98491 0.0
C1596 C 0.64664 0.31826 0.98245 0.0
C1597 C 0.64514 0.30329 0.98561 0.0
C1598 C 0.65768 0.29592 0.99028 0.0
C1599 C 0.67099 0.30361 0.99309 0.0
P1600 P 0.4785 0.37642 0.72543 0.0
H1601 H 0.47585 0.34675 0.73637 0.0
H1602 H 0.45518 0.32912 0.73708 0.0
H1603 H 0.42877 0.35774 0.71092 0.0
H1604 H 0.44966 0.37492 0.70975 0.0
H1605 H 0.50455 0.39448 0.72041 0.0
H1606 H 0.52737 0.3896 0.70807 0.0
H1607 H 0.50921 0.34745 0.6924 0.0
H1608 H 0.48653 0.35231 0.70511 0.0
H1609 H 0.46363 0.3946 0.74658 0.0
H1610 H 0.47421 0.39649 0.70091 0.0
O1611 O 0.48544 0.3756 0.74253 0.0
H1612 H 0.45043 0.41732 0.74479 0.0
H1613 H 0.46059 0.41919 0.69886 0.0
C1614 C 0.46421 0.36229 0.7233 0.0
C1615 C 0.46569 0.34908 0.73056 0.0
C1616 C 0.45379 0.33906 0.73105 0.0
C1617 C 0.44014 0.34212 0.72434 0.0
C1618 C 0.43907 0.35495 0.7162 0.0
C1619 C 0.45103 0.36489 0.71562 0.0
C1620 C 0.49374 0.37388 0.71352 0.0
C1621 C 0.50535 0.38433 0.71403 0.0
C1622 C 0.51843 0.38151 0.70695 0.0
C1623 C 0.52021 0.3681 0.69922 0.0
C1624 C 0.50833 0.35781 0.69839 0.0
C1625 C 0.49525 0.36065 0.70552 0.0
C1626 C 0.4702 0.39406 0.72398 0.0
C1627 C 0.46325 0.40003 0.73618 0.0
C1628 C 0.4555 0.41295 0.73508 0.0
C1629 C 0.45434 0.42011 0.72166 0.0
C1630 C 0.4614 0.4141 0.70941 0.0
C1631 C 0.46921 0.40113 0.71056 0.0
P1632 P 0.99419 0.95459 0.29614 0.0
H1633 H 0.97803 0.981 0.29048 0.0
H1634 H 0.95356 0.98872 0.29698 0.0
H1635 H 0.94766 0.94947 0.32186 0.0
H1636 H 0.97228 0.94202 0.31556 0.0
H1637 H 0.02276 0.96774 0.28968 0.0
H1638 H 0.04383 0.97606 0.30522 0.0
H1639 H 0.0195 0.96626 0.34385 0.0
H1640 H 0.99833 0.95793 0.32813 0.0
H1641 H 0.97659 0.93248 0.27925 0.0
H1642 H 0.01245 0.93309 0.31127 0.0
O1643 O 0.99633 0.96029 0.27909 0.0
H1644 H 0.97702 0.90565 0.27748 0.0
H1645 H 0.01318 0.90648 0.30936 0.0
C1646 C 0.97678 0.96077 0.30223 0.0
C1647 C 0.97149 0.97411 0.29741 0.0
C1648 C 0.95749 0.97849 0.30111 0.0
C1649 C 0.94855 0.96962 0.30977 0.0
C1650 C 0.95425 0.9566 0.31522 0.0
C1651 C 0.96828 0.95225 0.31151 0.0
C1652 C 0.00893 0.96239 0.30776 0.0
C1653 C 0.02183 0.96763 0.30149 0.0
C1654 C 0.03387 0.97242 0.31039 0.0
C1655 C 0.03331 0.97186 0.32576 0.0
C1656 C 0.02027 0.96677 0.33204 0.0
C1657 C 0.00815 0.96211 0.32309 0.0
C1658 C 0.99445 0.93481 0.29539 0.0
C1659 C 0.98455 0.92683 0.2859 0.0
C1660 C 0.98488 0.9115 0.28484 0.0
C1661 C 0.99514 0.90384 0.29327 0.0
C1662 C 0.00497 0.91194 0.30286 0.0
C1663 C 0.00462 0.92725 0.30391 0.0
P1664 P 0.5327 0.00808 0.70129 0.0
H1665 H 0.53162 0.98969 0.67455 0.0
H1666 H 0.55075 0.97538 0.66331 0.0
H1667 H 0.57655 0.97904 0.70388 0.0
H1668 H 0.5572 0.99287 0.71519 0.0
H1669 H 0.51164 0.02448 0.71771 0.0
H1670 H 0.4854 0.01949 0.71972 0.0
H1671 H 0.49113 0.97443 0.70554 0.0
H1672 H 0.51733 0.97958 0.70334 0.0
H1673 H 0.55231 0.03051 0.69097 0.0
H1674 H 0.54123 0.01296 0.73274 0.0
O1675 O 0.5268 0.01632 0.6862 0.0
H1676 H 0.57293 0.0444 0.70251 0.0
H1677 H 0.56225 0.02692 0.74452 0.0
C1678 C 0.54338 0.99291 0.69543 0.0
C1679 C 0.54114 0.98693 0.68119 0.0
C1680 C 0.55204 0.97873 0.6748 0.0
C1681 C 0.56531 0.97657 0.68259 0.0
C1682 C 0.56649 0.98065 0.69758 0.0
C1683 C 0.5555 0.98874 0.704 0.0
C1684 C 0.51642 0.00245 0.71035 0.0
C1685 C 0.50739 0.01333 0.71583 0.0
C1686 C 0.49234 0.01045 0.71693 0.0
C1687 C 0.48616 0.99663 0.71248 0.0
C1688 C 0.49556 0.98525 0.70881 0.0
C1689 C 0.5106 0.98817 0.70768 0.0
C1690 C 0.54508 0.02093 0.71105 0.0
C1691 C 0.55407 0.02997 0.70274 0.0
C1692 C 0.56601 0.03775 0.70932 0.0
C1693 C 0.56934 0.03655 0.72437 0.0
C1694 C 0.55991 0.02805 0.73289 0.0
C1695 C 0.54787 0.02016 0.72622 0.0
P1696 P 0.99547 0.68839 0.32509 0.0
H1697 H 0.01621 0.69697 0.34946 0.0
H1698 H 0.04262 0.70038 0.35129 0.0
H1699 H 0.04454 0.69474 0.3041 0.0
H1700 H 0.01834 0.68947 0.30285 0.0
H1701 H 0.9667 0.69862 0.33207 0.0
H1702 H 0.9477 0.70965 0.31751 0.0
H1703 H 0.97812 0.71596 0.28258 0.0
H1704 H 0.99699 0.70404 0.29719 0.0
H1705 H 0.98278 0.66049 0.3351 0.0
H1706 H 0.99736 0.67779 0.29435 0.0
O1707 O 0.99008 0.68751 0.34239 0.0
H1708 H 0.97962 0.63612 0.32333 0.0
H1709 H 0.99371 0.65363 0.28245 0.0
C1710 C 0.01507 0.69301 0.32591 0.0
C1711 C 0.02229 0.6965 0.33946 0.0
C1712 C 0.03761 0.69871 0.34045 0.0
C1713 C 0.04622 0.69782 0.32783 0.0
C1714 C 0.0387 0.69512 0.3142 0.0
C1715 C 0.02348 0.69228 0.31337 0.0
C1716 C 0.98352 0.70087 0.31595 0.0
C1717 C 0.96953 0.70282 0.32151 0.0
C1718 C 0.95857 0.7092 0.31309 0.0
C1719 C 0.96129 0.71382 0.2988 0.0
C1720 C 0.97555 0.71246 0.29348 0.0
C1721 C 0.98651 0.70592 0.30195 0.0
C1722 C 0.9914 0.67082 0.31594 0.0
C1723 C 0.98547 0.6591 0.3237 0.0
C1724 C 0.98342 0.6452 0.3169 0.0
C1725 C 0.98684 0.64294 0.3021 0.0
C1726 C 0.99126 0.65502 0.29396 0.0
C1727 C 0.9936 0.66882 0.30085 0.0
C1728 C 0.17558 0.68527 0.36512 0.0
C1729 C 0.18424 0.6762 0.35635 0.0
C1730 C 0.16144 0.68896 0.36043 0.0
C1731 C 0.13066 0.67639 0.33508 0.0
H1732 H 0.11524 0.71435 0.34551 0.0
C1733 C 0.07127 0.69113 0.31829 0.0
C1734 C 0.06285 0.69818 0.32904 0.0
C1735 C 0.08646 0.68972 0.3203 0.0
C1736 C 0.1193 0.70364 0.3426 0.0
H1737 H 0.18476 0.66427 0.33546 0.0
H1738 H 0.16011 0.67092 0.32712 0.0
H1739 H 0.14094 0.70952 0.35108 0.0
H1740 H 0.06484 0.71068 0.34977 0.0
H1741 H 0.09105 0.70785 0.35336 0.0
H1742 H 0.10899 0.67045 0.32677 0.0
C1743 C 0.16424 0.67499 0.33778 0.0
C1744 C 0.13409 0.70086 0.3458 0.0
C1745 C 0.17846 0.67131 0.34249 0.0
C1746 C 0.07053 0.70463 0.34141 0.0
C1747 C 0.08575 0.70322 0.34341 0.0
C1748 C 0.11587 0.67918 0.33187 0.0
C1749 C 0.15545 0.68376 0.34676 0.0
C1750 C 0.13996 0.68712 0.34227 0.0
C1751 C 0.09389 0.69542 0.33305 0.0
C1752 C 0.10991 0.69279 0.33574 0.0
H1753 H 0.17969 0.68945 0.37576 0.0
H1754 H 0.15504 0.69559 0.36775 0.0
H1755 H 0.13466 0.66561 0.33235 0.0
H1756 H 0.06622 0.68602 0.30847 0.0
H1757 H 0.09235 0.68395 0.31188 0.0
C1758 C 0.33339 0.2761 0.76923 0.0
C1759 C 0.31964 0.28052 0.76384 0.0
C1760 C 0.34628 0.28069 0.76263 0.0
C1761 C 0.36443 0.29449 0.73119 0.0
H1762 H 0.3863 0.3203 0.75916 0.0
C1763 C 0.4156 0.33041 0.71606 0.0
C1764 C 0.42681 0.33274 0.72694 0.0
C1765 C 0.40251 0.32282 0.71918 0.0
C1766 C 0.38053 0.31294 0.75126 0.0
H1767 H 0.30867 0.29213 0.74642 0.0
H1768 H 0.33135 0.29978 0.73463 0.0
H1769 H 0.3636 0.30825 0.76632 0.0
H1770 H 0.43301 0.32851 0.74958 0.0
H1771 H 0.41071 0.31481 0.75474 0.0
H1772 H 0.38161 0.29888 0.7162 0.0
C1773 C 0.33201 0.29291 0.7441 0.0
C1774 C 0.36746 0.30613 0.75536 0.0
C1775 C 0.31905 0.28848 0.75084 0.0
C1776 C 0.42478 0.32681 0.74083 0.0
C1777 C 0.41181 0.31915 0.74389 0.0
C1778 C 0.37772 0.30116 0.72711 0.0
C1779 C 0.34572 0.28953 0.75033 0.0
C1780 C 0.35936 0.29678 0.74543 0.0
C1781 C 0.40033 0.31734 0.73325 0.0
C1782 C 0.38601 0.31037 0.73717 0.0
H1783 H 0.33426 0.26964 0.77898 0.0
H1784 H 0.35676 0.27786 0.76753 0.0
H1785 H 0.3583 0.28732 0.72336 0.0
H1786 H 0.41684 0.33463 0.70518 0.0
H1787 H 0.39392 0.32167 0.71071 0.0
C1788 C 0.68734 0.97893 0.63059 0.0
C1789 C 0.68774 0.99061 0.62086 0.0
C1790 C 0.67501 0.97641 0.63897 0.0
C1791 C 0.63627 0.98001 0.63461 0.0
H1792 H 0.63318 0.97366 0.67628 0.0
C1793 C 0.58165 0.98232 0.66227 0.0
C1794 C 0.57877 0.9738 0.67447 0.0
C1795 C 0.59529 0.98218 0.65594 0.0
C1796 C 0.63393 0.97508 0.66457 0.0
H1797 H 0.67636 0.00963 0.61332 0.0
H1798 H 0.65471 0.00511 0.62787 0.0
H1799 H 0.65729 0.97906 0.66613 0.0
H1800 H 0.58774 0.95809 0.68939 0.0
H1801 H 0.61172 0.95741 0.67787 0.0
H1802 H 0.61317 0.97579 0.63277 0.0
C1803 C 0.66384 0.99783 0.62883 0.0
C1804 C 0.64767 0.97831 0.65884 0.0
C1805 C 0.67616 0.00038 0.62051 0.0
C1806 C 0.58968 0.96467 0.67991 0.0
C1807 C 0.6034 0.9644 0.67341 0.0
C1808 C 0.62266 0.97654 0.64024 0.0
C1809 C 0.66295 0.9855 0.63766 0.0
C1810 C 0.64882 0.98123 0.64389 0.0
C1811 C 0.6064 0.97338 0.66151 0.0
C1812 C 0.62123 0.97451 0.65535 0.0
H1813 H 0.69612 0.97119 0.63101 0.0
H1814 H 0.67449 0.96682 0.6457 0.0
H1815 H 0.637 0.98183 0.62295 0.0
H1816 H 0.57366 0.98985 0.65813 0.0
H1817 H 0.59731 0.98957 0.64708 0.0
C1818 C 0.81607 0.99128 0.31418 0.0
C1819 C 0.80865 0.97806 0.3097 0.0
C1820 C 0.83129 0.99177 0.31665 0.0
C1821 C 0.86312 0.9685 0.32364 0.0
H1822 H 0.88528 0.99963 0.30541 0.0
C1823 C 0.92658 0.97101 0.32582 0.0
C1824 C 0.93304 0.97337 0.31224 0.0
C1825 C 0.91163 0.97339 0.32762 0.0
C1826 C 0.87925 0.99089 0.3106 0.0
H1827 H 0.81129 0.95494 0.30471 0.0
H1828 H 0.83791 0.95578 0.30897 0.0
H1829 H 0.85851 0.99978 0.30468 0.0
H1830 H 0.92885 0.98027 0.28997 0.0
H1831 H 0.90292 0.98441 0.29309 0.0
H1832 H 0.88384 0.9593 0.32907 0.0
C1833 C 0.83195 0.96575 0.31063 0.0
C1834 C 0.86392 0.99105 0.3103 0.0
C1835 C 0.81674 0.96529 0.30803 0.0
C1836 C 0.92431 0.97858 0.30065 0.0
C1837 C 0.90941 0.98096 0.30244 0.0
C1838 C 0.87846 0.96837 0.32399 0.0
C1839 C 0.83941 0.97903 0.31481 0.0
C1840 C 0.85568 0.97967 0.31652 0.0
C1841 C 0.90284 0.97819 0.31587 0.0
C1842 C 0.88669 0.97938 0.31717 0.0
H1843 H 0.81013 0.00133 0.31546 0.0
H1844 H 0.83671 0.00214 0.31995 0.0
H1845 H 0.85707 0.95969 0.32871 0.0
H1846 H 0.93305 0.9672 0.33503 0.0
H1847 H 0.90693 0.97134 0.33815 0.0
C1848 C 0.35272 0.17222 0.662 0.0
C1849 C 0.3545 0.18372 0.67265 0.0
C1850 C 0.34861 0.15798 0.66591 0.0
C1851 C 0.34795 0.13355 0.69798 0.0
H1852 H 0.32538 0.10783 0.67056 0.0
C1853 C 0.345 0.06985 0.70277 0.0
C1854 C 0.33214 0.06197 0.69771 0.0
C1855 C 0.34656 0.0851 0.70117 0.0
C1856 C 0.33154 0.11484 0.67849 0.0
H1857 H 0.35272 0.18907 0.69586 0.0
H1858 H 0.34508 0.16432 0.70263 0.0
H1859 H 0.32927 0.1335 0.66503 0.0
H1860 H 0.31032 0.06516 0.68791 0.0
H1861 H 0.31299 0.0912 0.68562 0.0
H1862 H 0.34997 0.11485 0.71156 0.0
C1863 C 0.34724 0.16629 0.69123 0.0
C1864 C 0.33397 0.12962 0.67519 0.0
C1865 C 0.35144 0.18059 0.6873 0.0
C1866 C 0.32056 0.07026 0.69192 0.0
C1867 C 0.32212 0.08545 0.69036 0.0
C1868 C 0.34547 0.11874 0.70131 0.0
C1869 C 0.34597 0.1547 0.68061 0.0
C1870 C 0.3424 0.13918 0.68477 0.0
C1871 C 0.33527 0.09309 0.69459 0.0
C1872 C 0.33736 0.10911 0.69153 0.0
H1873 H 0.35467 0.17416 0.65055 0.0
H1874 H 0.34793 0.14944 0.65738 0.0
H1875 H 0.35459 0.14046 0.70562 0.0
H1876 H 0.35406 0.06433 0.70786 0.0
H1877 H 0.35686 0.09054 0.70467 0.0
C1878 C 0.31323 0.81598 0.98908 0.0
C1879 C 0.30799 0.80796 0.97646 0.0
C1880 C 0.31525 0.83126 0.98883 0.0
C1881 C 0.30281 0.86281 0.96763 0.0
H1882 H 0.33467 0.88444 0.98859 0.0
C1883 C 0.31499 0.923 0.95673 0.0
C1884 C 0.31567 0.93272 0.96901 0.0
C1885 C 0.31551 0.90789 0.95849 0.0
C1886 C 0.32568 0.8785 0.98279 0.0
H1887 H 0.30151 0.80949 0.95353 0.0
H1888 H 0.30535 0.83601 0.95293 0.0
H1889 H 0.33291 0.8576 0.9898 0.0
H1890 H 0.3182 0.93423 0.99275 0.0
H1891 H 0.31916 0.9076 0.9958 0.0
H1892 H 0.29574 0.88359 0.9604 0.0
C1893 C 0.30745 0.83064 0.96318 0.0
C1894 C 0.32463 0.86316 0.98349 0.0
C1895 C 0.30528 0.81543 0.96348 0.0
C1896 C 0.31754 0.92699 0.98309 0.0
C1897 C 0.31819 0.9118 0.98484 0.0
C1898 C 0.30395 0.87803 0.96682 0.0
C1899 C 0.31216 0.8388 0.97592 0.0
C1900 C 0.31327 0.85512 0.97573 0.0
C1901 C 0.31677 0.90212 0.97255 0.0
C1902 C 0.31548 0.88602 0.97421 0.0
H1903 H 0.31533 0.8105 0.99928 0.0
H1904 H 0.31878 0.83717 0.99887 0.0
H1905 H 0.29365 0.85708 0.9619 0.0
H1906 H 0.31336 0.927 0.94575 0.0
H1907 H 0.31454 0.90067 0.94882 0.0
C1908 C 0.75629 0.31851 0.29698 0.0
C1909 C 0.76114 0.31723 0.28253 0.0
C1910 C 0.75048 0.33157 0.3022 0.0
C1911 C 0.7337 0.36601 0.29306 0.0
H1912 H 0.75449 0.38095 0.32845 0.0
C1913 C 0.72576 0.4242 0.32002 0.0
C1914 C 0.72543 0.42483 0.33545 0.0
C1915 C 0.72901 0.41109 0.31252 0.0
C1916 C 0.74844 0.37688 0.31867 0.0
H1917 H 0.76288 0.32833 0.26194 0.0
H1918 H 0.75238 0.35125 0.27108 0.0
H1919 H 0.76146 0.35781 0.31707 0.0
H1920 H 0.72819 0.4122 0.35506 0.0
H1921 H 0.73368 0.38945 0.34207 0.0
H1922 H 0.72051 0.38508 0.29486 0.0
C1923 C 0.75323 0.3421 0.27833 0.0
C1924 C 0.75246 0.36364 0.31214 0.0
C1925 C 0.75928 0.32905 0.27314 0.0
C1926 C 0.72816 0.41205 0.34318 0.0
C1927 C 0.7315 0.39904 0.33573 0.0
C1928 C 0.72957 0.37929 0.29969 0.0
C1929 C 0.74922 0.34361 0.29306 0.0
C1930 C 0.74504 0.35798 0.29939 0.0
C1931 C 0.73218 0.39844 0.32034 0.0
C1932 C 0.73679 0.38475 0.3127 0.0
H1933 H 0.75773 0.30968 0.30454 0.0
H1934 H 0.74737 0.33243 0.31357 0.0
H1935 H 0.72781 0.36184 0.28322 0.0
H1936 H 0.72364 0.43387 0.31378 0.0
H1937 H 0.72949 0.41098 0.30066 0.0
C1938 C 0.62444 0.67716 0.00187 0.0
C1939 C 0.62134 0.68732 0.99109 0.0
C1940 C 0.63299 0.66514 0.99856 0.0
C1941 C 0.65586 0.6484 0.96931 0.0
H1942 H 0.6423 0.61262 0.98707 0.0
C1943 C 0.68526 0.59343 0.96425 0.0
C1944 C 0.67739 0.58053 0.96773 0.0
C1945 C 0.67835 0.60689 0.96418 0.0
C1946 C 0.64602 0.62241 0.98168 0.0
H1947 H 0.62494 0.69342 0.9687 0.0
H1948 H 0.63918 0.67211 0.96261 0.0
H1949 H 0.63165 0.63549 0.99406 0.0
H1950 H 0.65536 0.57148 0.97099 0.0
H1951 H 0.64328 0.59444 0.96922 0.0
H1952 H 0.66963 0.63504 0.95626 0.0
C1953 C 0.63557 0.67351 0.97375 0.0
C1954 C 0.64017 0.63568 0.98605 0.0
C1955 C 0.62733 0.68569 0.97719 0.0
C1956 C 0.66201 0.58106 0.96852 0.0
C1957 C 0.65504 0.5944 0.96787 0.0
C1958 C 0.6615 0.63501 0.96467 0.0
C1959 C 0.63817 0.66286 0.98428 0.0
C1960 C 0.64505 0.64888 0.98 0.0
C1961 C 0.6633 0.6076 0.96695 0.0
C1962 C 0.65665 0.62183 0.97082 0.0
H1963 H 0.61999 0.67836 0.01271 0.0
H1964 H 0.63517 0.65742 0.0071 0.0
H1965 H 0.66003 0.65836 0.96452 0.0
H1966 H 0.69699 0.5934 0.96277 0.0
H1967 H 0.6851 0.61675 0.96311 0.0
C1968 C 0.672 0.34278 0.17851 0.0
C1969 C 0.6755 0.35707 0.18408 0.0
C1970 C 0.67596 0.33839 0.16427 0.0
C1971 C 0.70061 0.34879 0.13385 0.0
H1972 H 0.67185 0.32704 0.10892 0.0
C1973 C 0.70413 0.34551 0.07032 0.0
C1974 C 0.69891 0.33267 0.06253 0.0
C1975 C 0.70261 0.34715 0.08556 0.0
C1976 C 0.68013 0.33293 0.11575 0.0
H1977 H 0.68656 0.37766 0.17918 0.0
H1978 H 0.6932 0.37018 0.15454 0.0
H1979 H 0.66675 0.33198 0.13467 0.0
H1980 H 0.689 0.31093 0.0658 0.0
H1981 H 0.68666 0.31383 0.09192 0.0
H1982 H 0.7139 0.34992 0.11491 0.0
C1983 C 0.68745 0.36227 0.16109 0.0
C1984 C 0.67719 0.33576 0.13059 0.0
C1985 C 0.68347 0.36664 0.17522 0.0
C1986 C 0.69304 0.32118 0.07088 0.0
C1987 C 0.6915 0.32285 0.08609 0.0
C1988 C 0.70354 0.34596 0.11904 0.0
C1989 C 0.68364 0.34814 0.15529 0.0
C1990 C 0.68729 0.34394 0.13981 0.0
C1991 C 0.69596 0.33597 0.09363 0.0
C1992 C 0.69326 0.33817 0.10969 0.0
H1993 H 0.66583 0.33512 0.18498 0.0
H1994 H 0.67295 0.32736 0.16027 0.0
H1995 H 0.7088 0.35485 0.14064 0.0
H1996 H 0.7093 0.35449 0.06474 0.0
H1997 H 0.70627 0.35742 0.09094 0.0
C1998 C 0.99042 0.31385 0.81515 0.0
C1999 C 0.97722 0.30885 0.80804 0.0
C2000 C 0.99112 0.31652 0.83034 0.0
C2001 C 0.96826 0.32351 0.86238 0.0
H2002 H 1.0 0.30618 0.88448 0.0
C2003 C 0.97156 0.32687 0.92577 0.0
C2004 C 0.97396 0.31337 0.93238 0.0
C2005 C 0.97384 0.32848 0.91078 0.0
C2006 C 0.9911 0.31114 0.87846 0.0
H2007 H 0.95433 0.30306 0.81113 0.0
H2008 H 0.95551 0.30776 0.83771 0.0
H2009 H 0.99979 0.30496 0.85769 0.0
H2010 H 0.98089 0.29107 0.9284 0.0
H2011 H 0.98493 0.2939 0.90243 0.0
H2012 H 0.95928 0.32922 0.88313 0.0
C2013 C 0.96531 0.30964 0.83153 0.0
C2014 C 0.99104 0.31054 0.86313 0.0
C2015 C 0.96466 0.30681 0.81636 0.0
C2016 C 0.97918 0.3017 0.92377 0.0
C2017 C 0.98149 0.30332 0.90884 0.0
C2018 C 0.96836 0.32418 0.87772 0.0
C2019 C 0.97858 0.31439 0.8387 0.0
C2020 C 0.97944 0.31642 0.85492 0.0
C2021 C 0.97861 0.31664 0.90211 0.0
C2022 C 0.97959 0.31768 0.88593 0.0
H2023 H 1.0003 0.31542 0.80899 0.0
H2024 H 0.00148 0.32023 0.83554 0.0
H2025 H 0.95928 0.32831 0.85634 0.0
H2026 H 0.96774 0.33613 0.93214 0.0
H2027 H 0.9717 0.33893 0.90594 0.0
C2028 C 0.29467 0.75223 0.31943 0.0
C2029 C 0.28231 0.76107 0.31888 0.0
C2030 C 0.29877 0.74541 0.33239 0.0
C2031 C 0.29512 0.75017 0.37239 0.0
H2032 H 0.31505 0.71323 0.37339 0.0
C2033 C 0.31828 0.72818 0.42669 0.0
C2034 C 0.33288 0.72361 0.42638 0.0
C2035 C 0.31033 0.73057 0.41365 0.0
C2036 C 0.30952 0.72358 0.37328 0.0
H2037 H 0.26398 0.76883 0.33123 0.0
H2038 H 0.27101 0.75677 0.35381 0.0
H2039 H 0.30389 0.72108 0.35033 0.0
H2040 H 0.35035 0.71755 0.41192 0.0
H2041 H 0.33642 0.72151 0.38925 0.0
H2042 H 0.30094 0.75281 0.39525 0.0
C2043 C 0.27776 0.7554 0.34432 0.0
C2044 C 0.30314 0.72809 0.36006 0.0
C2045 C 0.2737 0.76228 0.33137 0.0
C2046 C 0.33908 0.72085 0.41264 0.0
C2047 C 0.33109 0.72316 0.3996 0.0
C2048 C 0.30142 0.74563 0.3856 0.0
C2049 C 0.29058 0.74721 0.34512 0.0
C2050 C 0.29606 0.74157 0.3594 0.0
C2051 C 0.31674 0.72835 0.39996 0.0
C2052 C 0.3089 0.7324 0.38616 0.0
H2053 H 0.30165 0.75121 0.31007 0.0
H2054 H 0.3088 0.73934 0.33261 0.0
H2055 H 0.29001 0.76074 0.37229 0.0
H2056 H 0.31304 0.73015 0.43704 0.0
H2057 H 0.29921 0.73434 0.4143 0.0
C2058 C 0.98212 0.60994 0.67138 0.0
C2059 C 0.99172 0.61532 0.68277 0.0
C2060 C 0.97798 0.61891 0.66001 0.0
C2061 C 0.97504 0.65744 0.65006 0.0
H2062 H 0.97447 0.64074 0.61042 0.0
C2063 C 0.97656 0.68982 0.59699 0.0
C2064 C 0.97055 0.68291 0.58409 0.0
C2065 C 0.9752 0.68311 0.61044 0.0
C2066 C 0.9742 0.64549 0.62144 0.0
H2067 H 0.00467 0.63431 0.6911 0.0
H2068 H 0.99748 0.65007 0.67101 0.0
H2069 H 0.98162 0.62577 0.63077 0.0
H2070 H 0.95661 0.66487 0.57532 0.0
H2071 H 0.95394 0.65327 0.59892 0.0
H2072 H 0.96801 0.67736 0.64052 0.0
C2073 C 0.99304 0.63891 0.67106 0.0
C2074 C 0.97841 0.63692 0.6331 0.0
C2075 C 0.99721 0.62989 0.68249 0.0
C2076 C 0.96152 0.67027 0.58511 0.0
C2077 C 0.96007 0.66362 0.59858 0.0
C2078 C 0.97082 0.66607 0.63833 0.0
C2079 C 0.98335 0.63348 0.65975 0.0
C2080 C 0.97892 0.6428 0.64751 0.0
C2081 C 0.96776 0.66946 0.61115 0.0
C2082 C 0.97039 0.66015 0.6239 0.0
H2083 H 0.97737 0.5989 0.67147 0.0
H2084 H 0.97031 0.6145 0.65157 0.0
H2085 H 0.97519 0.66218 0.66111 0.0
H2086 H 0.98364 0.69955 0.5965 0.0
H2087 H 0.98124 0.68788 0.61993 0.0
C2088 C 0.82552 0.34608 0.6492 0.0
C2089 C 0.81427 0.3353 0.65033 0.0
C2090 C 0.83934 0.34445 0.65593 0.0
C2091 C 0.86474 0.31726 0.6708 0.0
H2092 H 0.88404 0.35205 0.68888 0.0
C2093 C 0.9226 0.31743 0.70122 0.0
C2094 C 0.93208 0.32956 0.69878 0.0
C2095 C 0.90795 0.31706 0.69584 0.0
C2096 C 0.87891 0.34223 0.68376 0.0
H2097 H 0.80889 0.31424 0.65953 0.0
H2098 H 0.83317 0.31139 0.67142 0.0
H2099 H 0.85909 0.35333 0.67895 0.0
H2100 H 0.93336 0.35081 0.68872 0.0
H2101 H 0.90819 0.35004 0.67923 0.0
H2102 H 0.88478 0.30623 0.67557 0.0
C2103 C 0.83121 0.32111 0.6652 0.0
C2104 C 0.86454 0.34296 0.67806 0.0
C2105 C 0.81726 0.32281 0.65851 0.0
C2106 C 0.92653 0.34118 0.6907 0.0
C2107 C 0.91196 0.34084 0.6854 0.0
C2108 C 0.87921 0.31652 0.67653 0.0
C2109 C 0.84243 0.33198 0.66405 0.0
C2110 C 0.85732 0.33059 0.67124 0.0
C2111 C 0.90237 0.32888 0.68802 0.0
C2112 C 0.8866 0.3291 0.68283 0.0
H2113 H 0.82363 0.35592 0.64314 0.0
H2114 H 0.8477 0.35296 0.6546 0.0
H2115 H 0.85956 0.30752 0.66558 0.0
H2116 H 0.9265 0.30821 0.70729 0.0
H2117 H 0.9009 0.30767 0.69811 0.0
C2118 C 0.6659 0.72372 0.23241 0.0
C2119 C 0.67958 0.71802 0.2364 0.0
C2120 C 0.65317 0.71938 0.2395 0.0
C2121 C 0.63931 0.68809 0.26074 0.0
H2122 H 0.60415 0.71089 0.26197 0.0
C2123 C 0.58338 0.65983 0.26951 0.0
C2124 C 0.57313 0.66707 0.27814 0.0
C2125 C 0.59604 0.66721 0.26501 0.0
C2126 C 0.61389 0.70439 0.26189 0.0
H2127 H 0.69066 0.70422 0.25197 0.0
H2128 H 0.66868 0.69737 0.26484 0.0
H2129 H 0.62723 0.72255 0.25515 0.0
H2130 H 0.56797 0.68816 0.28808 0.0
H2131 H 0.59035 0.70083 0.28083 0.0
H2132 H 0.6262 0.6701 0.26799 0.0
C2133 C 0.66765 0.7047 0.25577 0.0
C2134 C 0.62714 0.71105 0.25778 0.0
C2135 C 0.68036 0.70886 0.24852 0.0
C2136 C 0.57571 0.6821 0.28169 0.0
C2137 C 0.58851 0.68945 0.27736 0.0
C2138 C 0.62616 0.68151 0.26503 0.0
C2139 C 0.65378 0.7094 0.25096 0.0
C2140 C 0.63999 0.70292 0.25689 0.0
C2141 C 0.59901 0.68202 0.2692 0.0
C2142 C 0.61317 0.68945 0.26536 0.0
H2143 H 0.66491 0.73112 0.22339 0.0
H2144 H 0.64277 0.72328 0.23541 0.0
H2145 H 0.64883 0.68133 0.26002 0.0
H2146 H 0.58198 0.64825 0.26664 0.0
H2147 H 0.60362 0.66119 0.25839 0.0
C2148 C 0.31951 0.02308 0.38736 0.0
C2149 C 0.31276 0.00903 0.38622 0.0
C2150 C 0.33087 0.02689 0.3782 0.0
C2151 C 0.34898 0.01618 0.34397 0.0
H2152 H 0.38269 0.03692 0.36275 0.0
C2153 C 0.39896 0.03368 0.31116 0.0
C2154 C 0.41242 0.02922 0.31713 0.0
C2155 C 0.38645 0.0335 0.3196 0.0
C2156 C 0.37335 0.03116 0.35737 0.0
H2157 H 0.31222 0.98806 0.37437 0.0
H2158 H 0.33236 0.99462 0.3584 0.0
H2159 H 0.36116 0.03129 0.37701 0.0
H2160 H 0.42368 0.02207 0.33679 0.0
H2161 H 0.40184 0.02185 0.35164 0.0
H2162 H 0.36143 0.0156 0.32445 0.0
C2163 C 0.32872 0.00277 0.36627 0.0
C2164 C 0.36097 0.02804 0.36548 0.0
C2165 C 0.31724 0.99898 0.3754 0.0
C2166 C 0.4134 0.02553 0.33196 0.0
C2167 C 0.40092 0.02545 0.34044 0.0
C2168 C 0.36137 0.01933 0.33585 0.0
C2169 C 0.3358 0.0167 0.36775 0.0
C2170 C 0.34869 0.02043 0.3589 0.0
C2171 C 0.38723 0.02896 0.33419 0.0
C2172 C 0.37371 0.02674 0.34251 0.0
H2173 H 0.31606 0.03111 0.39544 0.0
H2174 H 0.33587 0.03781 0.37937 0.0
H2175 H 0.33966 0.01041 0.33857 0.0
H2176 H 0.3979 0.03643 0.2997 0.0
H2177 H 0.37606 0.03643 0.31459 0.0
C2178 C 0.1804 0.02901 0.68472 0.0
C2179 C 0.1884 0.01808 0.67776 0.0
C2180 C 0.16551 0.02668 0.68711 0.0
C2181 C 0.13331 0.00492 0.67334 0.0
H2182 H 0.11628 0.02056 0.70879 0.0
C2183 C 0.07091 0.00426 0.68001 0.0
C2184 C 0.06568 0.0181 0.68402 0.0
C2185 C 0.08583 0.00145 0.68172 0.0
C2186 C 0.12089 0.01608 0.69886 0.0
H2187 H 0.18735 0.99607 0.66802 0.0
H2188 H 0.16124 0.99186 0.67241 0.0
H2189 H 0.14287 0.02108 0.70667 0.0
H2190 H 0.07182 0.03968 0.69337 0.0
H2191 H 0.09771 0.03481 0.69632 0.0
H2192 H 0.11131 0.00038 0.66533 0.0
C2193 C 0.16644 0.0023 0.67583 0.0
C2194 C 0.13609 0.01643 0.69763 0.0
C2195 C 0.18134 0.00468 0.67336 0.0
C2196 C 0.07547 0.02881 0.69045 0.0
C2197 C 0.09033 0.02602 0.69213 0.0
C2198 C 0.11809 0.00456 0.67458 0.0
C2199 C 0.15837 0.01332 0.68268 0.0
C2200 C 0.14242 0.01123 0.6847 0.0
C2201 C 0.09572 0.01245 0.68744 0.0
C2202 C 0.11174 0.01051 0.6872 0.0
H2203 H 0.18556 0.03953 0.68794 0.0
H2204 H 0.1595 0.03551 0.69209 0.0
H2205 H 0.13788 0.00095 0.66319 0.0
H2206 H 0.06355 0.9958 0.67512 0.0
H2207 H 0.0897 0.99084 0.67816 0.0
C2208 C 0.66715 0.81676 0.33595 0.0
C2209 C 0.65184 0.81459 0.33408 0.0
C2210 C 0.67388 0.83058 0.33382 0.0
C2211 C 0.6674 0.86735 0.31773 0.0
H2212 H 0.69865 0.88047 0.34527 0.0
C2213 C 0.68712 0.92852 0.32465 0.0
C2214 C 0.7021 0.93177 0.32792 0.0
C2215 C 0.68161 0.91397 0.32398 0.0
C2216 C 0.69009 0.87695 0.33733 0.0
H2217 H 0.63179 0.82529 0.32769 0.0
H2218 H 0.64336 0.84927 0.32442 0.0
H2219 H 0.68812 0.85573 0.34661 0.0
H2220 H 0.72303 0.92197 0.33267 0.0
H2221 H 0.71352 0.89667 0.33115 0.0
H2222 H 0.66924 0.88872 0.30863 0.0
C2223 C 0.65026 0.84032 0.32744 0.0
C2224 C 0.68403 0.86268 0.33809 0.0
C2225 C 0.64356 0.82653 0.32953 0.0
C2226 C 0.71147 0.91997 0.33001 0.0
C2227 C 0.70596 0.90541 0.32934 0.0
C2228 C 0.67345 0.88165 0.317 0.0
C2229 C 0.66551 0.84264 0.32974 0.0
C2230 C 0.6725 0.85767 0.32838 0.0
C2231 C 0.6909 0.90219 0.32655 0.0
C2232 C 0.68483 0.88671 0.32685 0.0
H2233 H 0.67393 0.80791 0.3395 0.0
H2234 H 0.68568 0.83181 0.33547 0.0
H2235 H 0.65874 0.86388 0.30988 0.0
H2236 H 0.67957 0.93726 0.32277 0.0
H2237 H 0.66994 0.912 0.32188 0.0
C2238 C 0.67049 0.17766 0.02909 0.0
C2239 C 0.67472 0.1877 0.01853 0.0
C2240 C 0.67223 0.16272 0.02664 0.0
C2241 C 0.69304 0.136 0.00586 0.0
H2242 H 0.6627 0.10926 0.01927 0.0
C2243 C 0.68454 0.07049 0.00393 0.0
C2244 C 0.68673 0.06576 0.01834 0.0
C2245 C 0.68492 0.08547 0.00112 0.0
C2246 C 0.67115 0.11664 0.01533 0.0
H2247 H 0.68418 0.19011 0.99718 0.0
H2248 H 0.68722 0.1637 0.99282 0.0
H2249 H 0.65849 0.13555 0.01941 0.0
H2250 H 0.69174 0.07281 0.04095 0.0
H2251 H 0.69232 0.09894 0.03597 0.0
H2252 H 0.70574 0.11683 0.0021 0.0
C2253 C 0.68265 0.16749 0.00303 0.0
C2254 C 0.66882 0.13164 0.0155 0.0
C2255 C 0.68094 0.18254 0.00552 0.0
C2256 C 0.69028 0.07614 0.0297 0.0
C2257 C 0.69055 0.09105 0.0269 0.0
C2258 C 0.69534 0.1209 0.00563 0.0
C2259 C 0.67818 0.15745 0.01354 0.0
C2260 C 0.67992 0.1415 0.01121 0.0
C2261 C 0.68744 0.09576 0.0127 0.0
C2262 C 0.68452 0.11126 0.0107 0.0
H2263 H 0.6659 0.1814 0.03932 0.0
H2264 H 0.66905 0.15529 0.03511 0.0
H2265 H 0.7018 0.14337 0.00257 0.0
H2266 H 0.68178 0.06265 0.99502 0.0
H2267 H 0.68238 0.08903 0.99012 0.0
C2268 C 0.24747 0.67912 0.70502 0.0
C2269 C 0.23879 0.67998 0.71748 0.0
C2270 C 0.25426 0.66609 0.70117 0.0
C2271 C 0.25012 0.62608 0.70613 0.0
H2272 H 0.28574 0.62555 0.68397 0.0
C2273 C 0.27571 0.57291 0.68174 0.0
C2274 C 0.2785 0.57367 0.6667 0.0
C2275 C 0.2718 0.58549 0.68977 0.0
C2276 C 0.27579 0.62554 0.69018 0.0
H2277 H 0.23128 0.66813 0.73623 0.0
H2278 H 0.24339 0.64542 0.72968 0.0
H2279 H 0.27831 0.64848 0.6956 0.0
H2280 H 0.27964 0.58816 0.64832 0.0
H2281 H 0.27306 0.61009 0.66234 0.0
H2282 H 0.24771 0.60305 0.70063 0.0
C2283 C 0.24462 0.65471 0.72265 0.0
C2284 C 0.27148 0.63868 0.6968 0.0
C2285 C 0.23773 0.66774 0.72644 0.0
C2286 C 0.27735 0.58721 0.65986 0.0
C2287 C 0.27375 0.59978 0.66791 0.0
C2288 C 0.25456 0.61288 0.69967 0.0
C2289 C 0.25265 0.65358 0.70973 0.0
C2290 C 0.25836 0.63923 0.70451 0.0
C2291 C 0.271 0.59908 0.68294 0.0
C2292 C 0.26722 0.61259 0.6913 0.0
H2293 H 0.24836 0.68827 0.69776 0.0
H2294 H 0.26015 0.66566 0.69104 0.0
H2295 H 0.23986 0.62606 0.71181 0.0
H2296 H 0.27656 0.56261 0.68727 0.0
H2297 H 0.26972 0.58467 0.70135 0.0
C2298 C 0.37578 0.31739 0.99902 0.0
C2299 C 0.38588 0.31246 0.00955 0.0
C2300 C 0.36656 0.32887 0.00256 0.0
C2301 C 0.36468 0.36036 0.02861 0.0
H2302 H 0.32436 0.36171 0.01403 0.0
C2303 C 0.33168 0.41319 0.02627 0.0
C2304 C 0.31673 0.41216 0.02947 0.0
C2305 C 0.34008 0.40066 0.02603 0.0
C2306 C 0.33555 0.36139 0.01834 0.0
H2307 H 0.39374 0.31492 0.03219 0.0
H2308 H 0.3775 0.33473 0.03847 0.0
H2309 H 0.33852 0.33994 0.00888 0.0
H2310 H 0.29894 0.39749 0.03557 0.0
H2311 H 0.31368 0.37553 0.03523 0.0
H2312 H 0.36172 0.38183 0.03801 0.0
C2313 C 0.37695 0.33009 0.02738 0.0
C2314 C 0.3437 0.34902 0.01523 0.0
C2315 C 0.38621 0.31874 0.02381 0.0
C2316 C 0.3105 0.39857 0.03323 0.0
C2317 C 0.31886 0.38601 0.03285 0.0
C2318 C 0.35655 0.37273 0.03168 0.0
C2319 C 0.36725 0.3355 0.01673 0.0
C2320 C 0.35837 0.3484 0.02029 0.0
C2321 C 0.33362 0.38688 0.02885 0.0
C2322 C 0.34194 0.37339 0.02651 0.0
H2323 H 0.37539 0.31274 0.98793 0.0
H2324 H 0.35927 0.33288 0.99409 0.0
H2325 H 0.37602 0.36031 0.0325 0.0
H2326 H 0.33669 0.42358 0.02331 0.0
H2327 H 0.35142 0.40163 0.02285 0.0
C2328 C 0.33885 0.64338 0.82752 0.0
C2329 C 0.33431 0.65044 0.81468 0.0
C2330 C 0.33672 0.64971 0.84146 0.0
C2331 C 0.33208 0.68484 0.86126 0.0
H2332 H 0.31701 0.66051 0.89185 0.0
C2333 C 0.32565 0.70911 0.9203 0.0
C2334 C 0.32781 0.69989 0.93227 0.0
C2335 C 0.32456 0.70338 0.90582 0.0
C2336 C 0.32149 0.6675 0.8836 0.0
H2337 H 0.32397 0.66989 0.8067 0.0
H2338 H 0.32054 0.68108 0.83109 0.0
H2339 H 0.31926 0.65015 0.86718 0.0
H2340 H 0.32955 0.67698 0.93791 0.0
H2341 H 0.32901 0.66732 0.91302 0.0
H2342 H 0.33507 0.702 0.87765 0.0
C2343 C 0.32574 0.67058 0.83026 0.0
C2344 C 0.32266 0.66152 0.86935 0.0
C2345 C 0.32776 0.66417 0.81626 0.0
C2346 C 0.32839 0.68467 0.92917 0.0
C2347 C 0.32772 0.679 0.9147 0.0
C2348 C 0.3312 0.69077 0.87559 0.0
C2349 C 0.33013 0.66338 0.84304 0.0
C2350 C 0.32809 0.67006 0.85801 0.0
C2351 C 0.32593 0.68824 0.90269 0.0
C2352 C 0.32603 0.68217 0.8871 0.0
H2353 H 0.34427 0.63299 0.82684 0.0
H2354 H 0.34049 0.64398 0.85104 0.0
H2355 H 0.33641 0.69171 0.85281 0.0
H2356 H 0.3252 0.72088 0.92198 0.0
H2357 H 0.32277 0.71095 0.89707 0.0
C2358 C 0.00779 0.66943 0.18164 0.0
C2359 C 0.01992 0.67684 0.18866 0.0
C2360 C 0.00409 0.67206 0.16703 0.0
C2361 C 0.01139 0.69738 0.13671 0.0
H2362 H 0.00373 0.66231 0.11221 0.0
C2363 C 0.02489 0.69206 0.07591 0.0
C2364 C 0.01602 0.68274 0.06656 0.0
C2365 C 0.02164 0.6939 0.09067 0.0
C2366 C 0.0055 0.67226 0.1189 0.0
H2367 H 0.03749 0.69301 0.18612 0.0
H2368 H 0.03126 0.69742 0.16048 0.0
H2369 H 0.00528 0.66037 0.13869 0.0
H2370 H 0.99608 0.66914 0.06493 0.0
H2371 H 0.99039 0.67233 0.09084 0.0
H2372 H 0.01235 0.70911 0.11674 0.0
C2373 C 0.02438 0.68982 0.16632 0.0
C2374 C 0.00641 0.67116 0.13411 0.0
C2375 C 0.02801 0.68726 0.18097 0.0
C2376 C 0.00322 0.6762 0.07198 0.0
C2377 C 0.99997 0.67803 0.08676 0.0
C2378 C 0.01055 0.69847 0.12147 0.0
C2379 C 0.01252 0.68208 0.15912 0.0
C2380 C 0.0097 0.68365 0.14316 0.0
C2381 C 0.00946 0.68644 0.09635 0.0
C2382 C 0.00793 0.68587 0.11242 0.0
H2383 H 0.00125 0.66149 0.18743 0.0
H2384 H 0.99475 0.6661 0.16186 0.0
H2385 H 0.0137 0.70724 0.14342 0.0
H2386 H 0.03494 0.6971 0.0721 0.0
H2387 H 0.02926 0.70031 0.09783 0.0
C2388 C 0.70087 0.24196 0.67772 0.0
C2389 C 0.71547 0.23815 0.6806 0.0
C2390 C 0.69667 0.24749 0.66418 0.0
C2391 C 0.70722 0.26645 0.63199 0.0
H2392 H 0.6771 0.24177 0.61178 0.0
C2393 C 0.68296 0.27996 0.5743 0.0
C2394 C 0.66767 0.27771 0.57228 0.0
C2395 C 0.69032 0.27475 0.58674 0.0
C2396 C 0.68539 0.24889 0.61729 0.0
H2397 H 0.73731 0.23792 0.67184 0.0
H2398 H 0.72993 0.24802 0.64808 0.0
H2399 H 0.68711 0.23469 0.6355 0.0
H2400 H 0.64817 0.26836 0.58191 0.0
H2401 H 0.66084 0.25943 0.60343 0.0
H2402 H 0.70504 0.28104 0.61409 0.0
C2403 C 0.72179 0.24653 0.65636 0.0
C2404 C 0.69118 0.24477 0.63084 0.0
C2405 C 0.72597 0.24073 0.66988 0.0
C2406 C 0.65999 0.26998 0.58288 0.0
C2407 C 0.66729 0.26486 0.59529 0.0
C2408 C 0.70125 0.27073 0.61847 0.0
C2409 C 0.70701 0.24954 0.65328 0.0
C2410 C 0.70195 0.2536 0.63842 0.0
C2411 C 0.68255 0.26721 0.59746 0.0
C2412 C 0.69004 0.26212 0.61108 0.0
H2413 H 0.69249 0.23996 0.68567 0.0
H2414 H 0.68522 0.24979 0.66205 0.0
H2415 H 0.71553 0.27343 0.63768 0.0
H2416 H 0.68922 0.28582 0.5663 0.0
H2417 H 0.70209 0.27662 0.58795 0.0
C2418 C 0.99955 0.38803 0.32705 0.0
C2419 C 0.00607 0.38602 0.3134 0.0
C2420 C 0.00377 0.37968 0.33893 0.0
C2421 C 0.02133 0.34603 0.34981 0.0
H2422 H 0.03021 0.36827 0.38615 0.0
C2423 C 0.03905 0.31673 0.40174 0.0
C2424 C 0.03097 0.32061 0.41407 0.0
C2425 C 0.03909 0.32565 0.38956 0.0
C2426 C 0.02774 0.3619 0.37611 0.0
H2427 H 0.02153 0.3731 0.30128 0.0
H2428 H 0.0287 0.3583 0.32207 0.0
H2429 H 0.02267 0.38104 0.36419 0.0
H2430 H 0.01792 0.33748 0.424 0.0
H2431 H 0.0177 0.35287 0.40271 0.0
H2432 H 0.02585 0.32682 0.36182 0.0
C2433 C 0.0204 0.36643 0.32354 0.0
C2434 C 0.02339 0.3692 0.36356 0.0
C2435 C 0.01625 0.37486 0.31164 0.0
C2436 C 0.02406 0.33415 0.41453 0.0
C2437 C 0.02405 0.34302 0.40236 0.0
C2438 C 0.02556 0.33869 0.36241 0.0
C2439 C 0.01451 0.36909 0.33739 0.0
C2440 C 0.01989 0.36131 0.35038 0.0
C2441 C 0.03106 0.33857 0.38951 0.0
C2442 C 0.02857 0.34653 0.37576 0.0
H2443 H 0.99142 0.3963 0.32865 0.0
H2444 H 0.99878 0.38168 0.34942 0.0
H2445 H 0.01865 0.3397 0.33979 0.0
H2446 H 0.04446 0.30633 0.40108 0.0
H2447 H 0.04485 0.32209 0.37993 0.0
C2448 C 0.28707 0.60271 0.45855 0.0
C2449 C 0.27933 0.6157 0.4571 0.0
C2450 C 0.28742 0.59541 0.47179 0.0
C2451 C 0.26953 0.59243 0.50786 0.0
H2452 H 0.30647 0.57512 0.51886 0.0
C2453 C 0.28293 0.56976 0.5657 0.0
C2454 C 0.29074 0.55668 0.56624 0.0
C2455 C 0.28036 0.57659 0.55235 0.0
C2456 C 0.29601 0.57973 0.51589 0.0
H2457 H 0.26552 0.63102 0.46836 0.0
H2458 H 0.26633 0.6184 0.49173 0.0
H2459 H 0.30432 0.58809 0.49605 0.0
H2460 H 0.3016 0.54035 0.55307 0.0
H2461 H 0.29708 0.55224 0.52975 0.0
H2462 H 0.26142 0.58426 0.52802 0.0
C2463 C 0.272 0.61374 0.48251 0.0
C2464 C 0.29475 0.58717 0.50276 0.0
C2465 C 0.27155 0.621 0.46914 0.0
C2466 C 0.2955 0.55036 0.55304 0.0
C2467 C 0.29303 0.55726 0.5397 0.0
C2468 C 0.27085 0.58506 0.52111 0.0
C2469 C 0.28015 0.60095 0.48408 0.0
C2470 C 0.28145 0.59349 0.49843 0.0
C2471 C 0.28564 0.57058 0.53922 0.0
C2472 C 0.28407 0.57849 0.5252 0.0
H2473 H 0.29293 0.59817 0.44939 0.0
H2474 H 0.29345 0.58538 0.47237 0.0
H2475 H 0.25909 0.59703 0.50488 0.0
H2476 H 0.27899 0.57484 0.57566 0.0
H2477 H 0.27468 0.58685 0.55239 0.0
C2478 C 0.24794 0.31727 0.88761 0.0
C2479 C 0.24584 0.32104 0.87291 0.0
C2480 C 0.25101 0.32822 0.89848 0.0
C2481 C 0.26203 0.36801 0.90361 0.0
H2482 H 0.24425 0.36359 0.94136 0.0
C2483 C 0.25651 0.41624 0.94585 0.0
C2484 C 0.25927 0.41322 0.96069 0.0
C2485 C 0.25599 0.40486 0.93515 0.0
C2486 C 0.24942 0.36493 0.93093 0.0
H2487 H 0.24509 0.33899 0.85795 0.0
H2488 H 0.24977 0.35812 0.87687 0.0
H2489 H 0.24148 0.34382 0.92288 0.0
H2490 H 0.2644 0.39605 0.97583 0.0
H2491 H 0.2634 0.37629 0.95722 0.0
H2492 H 0.26958 0.38935 0.91163 0.0
C2493 C 0.24965 0.34678 0.88008 0.0
C2494 C 0.24789 0.35355 0.92032 0.0
C2495 C 0.24686 0.33584 0.86922 0.0
C2496 C 0.26185 0.39868 0.96454 0.0
C2497 C 0.26132 0.38736 0.95388 0.0
C2498 C 0.26342 0.37945 0.91417 0.0
C2499 C 0.25173 0.34315 0.89487 0.0
C2500 C 0.25409 0.35496 0.90647 0.0
C2501 C 0.25825 0.39028 0.93909 0.0
C2502 C 0.25707 0.37806 0.92792 0.0
H2503 H 0.24727 0.30588 0.89065 0.0
H2504 H 0.25281 0.32495 0.90969 0.0
H2505 H 0.26723 0.36941 0.8932 0.0
H2506 H 0.25446 0.42732 0.94257 0.0
H2507 H 0.25348 0.40744 0.92385 0.0
C2508 C 0.75931 1.0001 0.49242 0.0
C2509 C 0.75678 0.98623 0.49834 0.0
C2510 C 0.75057 0.00466 0.48074 0.0
C2511 C 0.71364 0.99835 0.46447 0.0
H2512 H 0.72929 0.01993 0.43221 0.0
C2513 C 0.68885 0.00129 0.40742 0.0
C2514 C 0.69548 0.01172 0.39849 0.0
C2515 C 0.69129 0.00232 0.42258 0.0
C2516 C 0.72462 0.01435 0.44138 0.0
H2517 H 0.74404 0.96577 0.49586 0.0
H2518 H 0.7288 0.97375 0.47525 0.0
H2519 H 0.7459 0.01133 0.45102 0.0
H2520 H 0.70594 0.03342 0.39842 0.0
H2521 H 0.7094 0.0356 0.42487 0.0
H2522 H 0.69234 0.00093 0.45441 0.0
C2523 C 0.73729 0.9812 0.47995 0.0
C2524 C 0.73422 0.00925 0.45207 0.0
C2525 C 0.74607 0.9766 0.49163 0.0
C2526 C 0.7011 0.02496 0.405 0.0
C2527 C 0.70323 0.02615 0.42019 0.0
C2528 C 0.70398 0.00348 0.45373 0.0
C2529 C 0.73915 0.99546 0.47476 0.0
C2530 C 0.72886 0.00101 0.46358 0.0
C2531 C 0.70003 0.014 0.42881 0.0
C2532 C 0.7094 0.01135 0.44194 0.0
H2533 H 0.76732 0.00786 0.49746 0.0
H2534 H 0.75224 0.01572 0.47696 0.0
H2535 H 0.70921 0.99224 0.47342 0.0
H2536 H 0.68388 0.99124 0.40261 0.0
H2537 H 0.68826 0.99293 0.42896 0.0
C2538 C 0.73807 0.02757 0.20715 0.0
C2539 C 0.73831 0.01619 0.21717 0.0
C2540 C 0.73786 0.0243 0.19206 0.0
C2541 C 0.72143 0.99726 0.16755 0.0
H2542 H 0.7443 0.0148 0.13711 0.0
C2543 C 0.70263 0.98981 0.1073 0.0
C2544 C 0.70257 0.00294 0.09964 0.0
C2545 C 0.71053 0.98909 0.12062 0.0
C2546 C 0.7378 0.00984 0.14549 0.0
H2547 H 0.73904 0.9926 0.21942 0.0
H2548 H 0.73838 0.98694 0.1931 0.0
H2549 H 0.75208 0.0188 0.16291 0.0
H2550 H 0.7116 0.02518 0.09919 0.0
H2551 H 0.72495 0.02414 0.12257 0.0
H2552 H 0.70656 0.98916 0.15048 0.0
C2553 C 0.73866 0.99833 0.1969 0.0
C2554 C 0.7423 0.01209 0.16019 0.0
C2555 C 0.73916 0.0016 0.21192 0.0
C2556 C 0.71124 0.01502 0.10504 0.0
C2557 C 0.71907 0.01433 0.11834 0.0
C2558 C 0.7168 0.9952 0.15291 0.0
C2559 C 0.73756 0.00962 0.18688 0.0
C2560 C 0.734 0.00601 0.17131 0.0
C2561 C 0.71848 0.0015 0.1265 0.0
C2562 C 0.72475 0.00174 0.14172 0.0
H2563 H 0.73725 0.03888 0.21098 0.0
H2564 H 0.73687 0.03316 0.18447 0.0
H2565 H 0.71477 0.99262 0.17601 0.0
H2566 H 0.69605 0.98032 0.10335 0.0
H2567 H 0.71004 0.97897 0.12653 0.0
C2568 C 0.47087 0.28828 0.62352 0.0
C2569 C 0.45942 0.2782 0.61921 0.0
C2570 C 0.4842 0.28839 0.61635 0.0
C2571 C 0.5007 0.27703 0.58125 0.0
H2572 H 0.53703 0.28756 0.60276 0.0
C2573 C 0.55778 0.28078 0.55371 0.0
C2574 C 0.56716 0.29262 0.55855 0.0
C2575 C 0.54466 0.27773 0.5609 0.0
C2576 C 0.52697 0.28471 0.59654 0.0
H2577 H 0.45335 0.26 0.60415 0.0
H2578 H 0.47682 0.25992 0.59188 0.0
H2579 H 0.5145 0.28406 0.61602 0.0
H2580 H 0.56966 0.31094 0.57426 0.0
H2581 H 0.54696 0.3057 0.58663 0.0
H2582 H 0.51327 0.27778 0.56174 0.0
C2583 C 0.47532 0.26796 0.60066 0.0
C2584 C 0.51402 0.28271 0.60417 0.0
C2585 C 0.46191 0.26788 0.60783 0.0
C2586 C 0.56289 0.30153 0.57044 0.0
C2587 C 0.54986 0.2985 0.57758 0.0
C2588 C 0.51371 0.279 0.5736 0.0
C2589 C 0.4866 0.27834 0.6047 0.0
C2590 C 0.50063 0.27912 0.59662 0.0
C2591 C 0.54064 0.28645 0.57306 0.0
C2592 C 0.52697 0.28316 0.58114 0.0
H2593 H 0.46948 0.29626 0.63238 0.0
H2594 H 0.4925 0.29667 0.61971 0.0
H2595 H 0.4906 0.2744 0.57502 0.0
H2596 H 0.56077 0.27366 0.54463 0.0
H2597 H 0.53785 0.26833 0.55715 0.0
C2598 C 0.21135 0.73565 0.00326 0.0
C2599 C 0.21758 0.73693 0.01752 0.0
C2600 C 0.19617 0.73535 0.00102 0.0
C2601 C 0.16295 0.72635 0.02154 0.0
H2602 H 0.14315 0.73572 0.98486 0.0
C2603 C 0.10163 0.71667 0.01346 0.0
C2604 C 0.09856 0.705 0.00332 0.0
C2605 C 0.11511 0.72427 0.01355 0.0
C2606 C 0.14859 0.73317 0.99516 0.0
H2607 H 0.21316 0.73985 0.04055 0.0
H2608 H 0.18652 0.74045 0.03668 0.0
H2609 H 0.16896 0.74327 0.98926 0.0
H2610 H 0.10658 0.69305 0.98438 0.0
H2611 H 0.13022 0.70657 0.98446 0.0
H2612 H 0.14251 0.71648 0.02747 0.0
C2613 C 0.19328 0.73903 0.02721 0.0
C2614 C 0.16336 0.73738 0.99769 0.0
C2615 C 0.20851 0.73891 0.02947 0.0
C2616 C 0.10865 0.70201 0.99233 0.0
C2617 C 0.12214 0.70973 0.99234 0.0
C2618 C 0.14818 0.72249 0.01915 0.0
C2619 C 0.1869 0.73661 0.01301 0.0
C2620 C 0.1708 0.73381 0.01085 0.0
C2621 C 0.12566 0.72044 0.00337 0.0
C2622 C 0.14095 0.72572 0.00591 0.0
H2623 H 0.21819 0.73379 0.9939 0.0
H2624 H 0.19178 0.7332 0.98997 0.0
H2625 H 0.1683 0.72294 0.03159 0.0
H2626 H 0.0939 0.71943 0.02183 0.0
H2627 H 0.11764 0.73258 0.02208 0.0
C2628 C 0.87362 0.25691 0.33061 0.0
C2629 C 0.87572 0.24612 0.31956 0.0
C2630 C 0.8843 0.2598 0.34176 0.0
C2631 C 0.92325 0.25261 0.35272 0.0
H2632 H 0.90934 0.25866 0.39218 0.0
C2633 C 0.95973 0.24411 0.40408 0.0
C2634 C 0.96081 0.25586 0.41448 0.0
C2635 C 0.94905 0.24383 0.39275 0.0
C2636 C 0.91337 0.25709 0.3812 0.0
H2637 H 0.89117 0.23054 0.31119 0.0
H2638 H 0.90944 0.2351 0.33085 0.0
H2639 H 0.89176 0.25714 0.3714 0.0
H2640 H 0.95094 0.27624 0.42136 0.0
H2641 H 0.93191 0.27538 0.40185 0.0
H2642 H 0.94481 0.25198 0.36269 0.0
C2643 C 0.89965 0.24152 0.33086 0.0
C2644 C 0.90332 0.25631 0.36925 0.0
C2645 C 0.88904 0.23874 0.31965 0.0
C2646 C 0.95037 0.26692 0.41369 0.0
C2647 C 0.93952 0.26651 0.40245 0.0
C2648 C 0.93324 0.25317 0.36467 0.0
C2649 C 0.89732 0.2519 0.34223 0.0
C2650 C 0.90811 0.25388 0.35485 0.0
C2651 C 0.93901 0.25515 0.39168 0.0
C2652 C 0.92838 0.25524 0.37904 0.0
H2653 H 0.86347 0.26276 0.33099 0.0
H2654 H 0.88223 0.26807 0.35015 0.0
H2655 H 0.92743 0.25108 0.3418 0.0
H2656 H 0.96732 0.23522 0.40452 0.0
H2657 H 0.9487 0.2348 0.38474 0.0
C2658 C 0.49268 0.75803 0.99899 0.0
C2659 C 0.49912 0.75487 0.98551 0.0
C2660 C 0.48098 0.74938 0.00362 0.0
C2661 C 0.46508 0.71204 0.99846 0.0
H2662 H 0.43243 0.72846 0.01884 0.0
C2663 C 0.40739 0.68894 0.00094 0.0
C2664 C 0.3987 0.6957 0.01149 0.0
C2665 C 0.42262 0.69076 0.00206 0.0
C2666 C 0.44171 0.72361 0.0136 0.0
H2667 H 0.49757 0.74104 0.96571 0.0
H2668 H 0.47685 0.72599 0.97374 0.0
H2669 H 0.45136 0.74472 0.00992 0.0
H2670 H 0.39889 0.70589 0.03331 0.0
H2671 H 0.42545 0.70852 0.03551 0.0
H2672 H 0.45487 0.69089 0.00154 0.0
C2673 C 0.48118 0.7349 0.98089 0.0
C2674 C 0.45247 0.73299 0.00832 0.0
C2675 C 0.49292 0.74358 0.97624 0.0
C2676 C 0.40534 0.70093 0.02481 0.0
C2677 C 0.42058 0.70252 0.02604 0.0
C2678 C 0.45421 0.7026 0.0037 0.0
C2679 C 0.47546 0.73742 0.99484 0.0
C2680 C 0.46416 0.72734 0.00053 0.0
C2681 C 0.42909 0.69915 0.01386 0.0
C2682 C 0.44232 0.70832 0.01117 0.0
H2683 H 0.49734 0.7665 0.00649 0.0
H2684 H 0.47681 0.75157 0.01444 0.0
H2685 H 0.47415 0.70738 0.9927 0.0
H2686 H 0.40243 0.68436 0.99079 0.0
H2687 H 0.42893 0.68767 0.99264 0.0
C2688 C 0.61899 0.46796 0.29182 0.0
C2689 C 0.61776 0.4585 0.27933 0.0
C2690 C 0.61245 0.48161 0.29196 0.0
C2691 C 0.5828 0.50203 0.2738 0.0
H2692 H 0.60124 0.53493 0.296 0.0
C2693 C 0.55712 0.55999 0.27908 0.0
C2694 C 0.55829 0.56686 0.29313 0.0
C2695 C 0.56446 0.54696 0.27607 0.0
C2696 C 0.59588 0.52583 0.28983 0.0
H2697 H 0.60897 0.45631 0.25698 0.0
H2698 H 0.59774 0.48037 0.2571 0.0
H2699 H 0.61446 0.51235 0.29275 0.0
H2700 H 0.56745 0.5649 0.3152 0.0
H2701 H 0.58016 0.54238 0.30998 0.0
H2702 H 0.56416 0.51563 0.27098 0.0
C2703 C 0.6036 0.47705 0.26691 0.0
C2704 C 0.60347 0.51284 0.28797 0.0
C2705 C 0.61018 0.46332 0.26677 0.0
C2706 C 0.56658 0.56014 0.30416 0.0
C2707 C 0.57391 0.54721 0.30116 0.0
C2708 C 0.57521 0.51509 0.27562 0.0
C2709 C 0.60452 0.48632 0.27957 0.0
C2710 C 0.59694 0.50064 0.28021 0.0
C2711 C 0.57314 0.54054 0.28704 0.0
C2712 C 0.58154 0.52704 0.28394 0.0
H2713 H 0.62494 0.46474 0.30162 0.0
H2714 H 0.61329 0.48831 0.30198 0.0
H2715 H 0.57736 0.49285 0.26785 0.0
H2716 H 0.55089 0.56491 0.2703 0.0
H2717 H 0.56367 0.54213 0.26506 0.0
C2718 C 0.03135 0.2074 0.73609 0.0
C2719 C 0.01964 0.21668 0.73862 0.0
C2720 C 0.02893 0.19222 0.73527 0.0
C2721 C 0.00229 0.16143 0.74044 0.0
H2722 H 0.0187 0.14679 0.70425 0.0
C2723 C 0.9908 0.10654 0.70384 0.0
C2724 C 0.00382 0.09871 0.70295 0.0
C2725 C 0.99088 0.12016 0.71137 0.0
C2726 C 0.01405 0.15078 0.71437 0.0
H2727 H 0.99655 0.21731 0.74379 0.0
H2728 H 0.9924 0.19084 0.74243 0.0
H2729 H 0.02362 0.1722 0.71229 0.0
H2730 H 0.02661 0.09809 0.71036 0.0
H2731 H 0.02674 0.1219 0.72333 0.0
H2732 H 0.99261 0.13973 0.74223 0.0
C2733 C 0.00343 0.19526 0.74109 0.0
C2734 C 0.01699 0.16523 0.71907 0.0
C2735 C 0.00585 0.21045 0.74194 0.0
C2736 C 0.01652 0.10405 0.71069 0.0
C2737 C 0.01657 0.11756 0.71818 0.0
C2738 C 0.9993 0.14685 0.73567 0.0
C2739 C 0.01475 0.18609 0.73694 0.0
C2740 C 0.01142 0.17064 0.7323 0.0
C2741 C 0.00393 0.12592 0.71812 0.0
C2742 C 0.00541 0.14146 0.72273 0.0
H2743 H 0.04212 0.21191 0.73367 0.0
H2744 H 0.03794 0.18532 0.7324 0.0
H2745 H 0.99773 0.1654 0.7506 0.0
H2746 H 0.98089 0.1026 0.69793 0.0
H2747 H 0.98107 0.12658 0.71111 0.0
C2748 C 0.32871 0.87403 0.25745 0.0
C2749 C 0.31939 0.87483 0.24492 0.0
C2750 C 0.33959 0.88492 0.26066 0.0
C2751 C 0.35253 0.92247 0.25046 0.0
H2752 H 0.39058 0.90892 0.26344 0.0
C2753 C 0.40567 0.95709 0.24484 0.0
C2754 C 0.41502 0.95879 0.25738 0.0
C2755 C 0.39398 0.94681 0.24437 0.0
C2756 C 0.37998 0.91287 0.25995 0.0
H2757 H 0.31367 0.88828 0.22649 0.0
H2758 H 0.33292 0.90685 0.23171 0.0
H2759 H 0.3696 0.89163 0.26126 0.0
H2760 H 0.41962 0.95057 0.2791 0.0
H2761 H 0.3994 0.93229 0.27804 0.0
H2762 H 0.36313 0.9436 0.24865 0.0
C2763 C 0.33177 0.89793 0.2392 0.0
C2764 C 0.36791 0.903 0.25877 0.0
C2765 C 0.32082 0.88713 0.23607 0.0
C2766 C 0.41277 0.94945 0.26918 0.0
C2767 C 0.40114 0.93904 0.26864 0.0
C2768 C 0.36463 0.93228 0.25147 0.0
C2769 C 0.34151 0.89683 0.25137 0.0
C2770 C 0.35405 0.90762 0.25382 0.0
C2771 C 0.39144 0.93785 0.25635 0.0
C2772 C 0.37851 0.92754 0.25604 0.0
H2773 H 0.32803 0.8647 0.26449 0.0
H2774 H 0.34668 0.88384 0.27029 0.0
H2775 H 0.342 0.92653 0.24694 0.0
H2776 H 0.40725 0.96387 0.23543 0.0
H2777 H 0.38685 0.94592 0.23463 0.0
C2778 C 0.98311 0.49011 0.75455 0.0
C2779 C 0.98906 0.50419 0.75247 0.0
C2780 C 0.9889 0.47804 0.7472 0.0
C2781 C 0.01014 0.46783 0.71513 0.0
H2782 H 0.0166 0.43239 0.7365 0.0
C2783 C 0.00897 0.40823 0.69389 0.0
C2784 C 0.01723 0.39852 0.70222 0.0
C2785 C 0.01071 0.42333 0.69658 0.0
C2786 C 0.01518 0.44233 0.73045 0.0
H2787 H 0.00574 0.51697 0.74167 0.0
H2788 H 0.01603 0.49586 0.729 0.0
H2789 H 0.00762 0.4539 0.74935 0.0
H2790 H 0.03579 0.39695 0.71755 0.0
H2791 H 0.03891 0.42324 0.72201 0.0
H2792 H 0.01717 0.45589 0.69607 0.0
C2793 C 0.00674 0.49412 0.73595 0.0
C2794 C 0.00979 0.45453 0.73776 0.0
C2795 C 0.00091 0.50612 0.7432 0.0
C2796 C 0.02911 0.40414 0.71108 0.0
C2797 C 0.03088 0.41921 0.71372 0.0
C2798 C 0.01539 0.45551 0.70775 0.0
C2799 C 0.00077 0.47999 0.73784 0.0
C2800 C 0.00703 0.4673 0.73014 0.0
C2801 C 0.02079 0.42874 0.70753 0.0
C2802 C 0.01783 0.44264 0.71535 0.0
H2803 H 0.97394 0.4885 0.76168 0.0
H2804 H 0.98403 0.46722 0.74871 0.0
H2805 H 0.00802 0.47759 0.70902 0.0
H2806 H 0.99998 0.40414 0.68669 0.0
H2807 H 0.00289 0.43051 0.69154 0.0
C2808 C 0.71026 0.38075 0.53012 0.0
C2809 C 0.72073 0.38436 0.54144 0.0
C2810 C 0.71054 0.38791 0.51676 0.0
C2811 C 0.73443 0.4102 0.49332 0.0
H2812 H 0.69756 0.42327 0.47675 0.0
C2813 C 0.73279 0.45026 0.44557 0.0
C2814 C 0.72167 0.44818 0.43461 0.0
C2815 C 0.73253 0.44221 0.45838 0.0
C2816 C 0.70794 0.41954 0.48109 0.0
H2817 H 0.73987 0.39826 0.54736 0.0
H2818 H 0.74046 0.4106 0.524 0.0
H2819 H 0.69767 0.40939 0.49919 0.0
H2820 H 0.7015 0.43597 0.42858 0.0
H2821 H 0.70107 0.4218 0.45088 0.0
H2822 H 0.74472 0.42024 0.47522 0.0
C2823 C 0.73207 0.40215 0.52546 0.0
C2824 C 0.70801 0.41157 0.49399 0.0
C2825 C 0.73175 0.39504 0.53886 0.0
C2826 C 0.71014 0.43797 0.43688 0.0
C2827 C 0.70991 0.42984 0.44968 0.0
C2828 C 0.73437 0.41809 0.48039 0.0
C2829 C 0.72135 0.39881 0.51431 0.0
C2830 C 0.72126 0.40689 0.50033 0.0
C2831 C 0.72116 0.43178 0.46058 0.0
C2832 C 0.72114 0.42298 0.47415 0.0
H2833 H 0.70179 0.37238 0.53157 0.0
H2834 H 0.70229 0.38486 0.50832 0.0
H2835 H 0.74481 0.40656 0.49777 0.0
H2836 H 0.74171 0.4582 0.44429 0.0
H2837 H 0.7412 0.44427 0.46663 0.0
C2838 C 0.74833 0.6642 0.12779 0.0
C2839 C 0.75543 0.67743 0.1242 0.0
C2840 C 0.74585 0.65296 0.11722 0.0
C2841 C 0.75867 0.63862 0.0817 0.0
H2842 H 0.72316 0.6143 0.0836 0.0
C2843 C 0.74031 0.58948 0.04131 0.0
C2844 C 0.73432 0.57717 0.0482 0.0
C2845 C 0.74439 0.60224 0.0496 0.0
C2846 C 0.73318 0.62095 0.08299 0.0
H2847 H 0.76534 0.68936 0.10663 0.0
H2848 H 0.76073 0.66969 0.08794 0.0
H2849 H 0.72615 0.63632 0.09921 0.0
H2850 H 0.72902 0.56801 0.06907 0.0
H2851 H 0.73635 0.59013 0.08356 0.0
H2852 H 0.76552 0.62309 0.06525 0.0
C2853 C 0.75729 0.66797 0.09904 0.0
C2854 C 0.7349 0.63357 0.09194 0.0
C2855 C 0.75988 0.67924 0.10971 0.0
C2856 C 0.73351 0.57741 0.06353 0.0
C2857 C 0.7376 0.59008 0.07178 0.0
C2858 C 0.75686 0.62599 0.07258 0.0
C2859 C 0.75029 0.65467 0.10271 0.0
C2860 C 0.74784 0.64234 0.09175 0.0
C2861 C 0.74251 0.6028 0.06485 0.0
C2862 C 0.74426 0.61682 0.07348 0.0
H2863 H 0.74509 0.66232 0.13893 0.0
H2864 H 0.74077 0.64276 0.12057 0.0
H2865 H 0.76878 0.64512 0.08129 0.0
H2866 H 0.7409 0.58957 0.02946 0.0
H2867 H 0.74813 0.6119 0.044 0.0
C2868 C 0.24826 0.0069 0.52268 0.0
C2869 C 0.2516 0.99621 0.51196 0.0
C2870 C 0.25378 0.00598 0.53711 0.0
C2871 C 0.28244 0.98824 0.55954 0.0
H2872 H 0.25642 0.99587 0.59157 0.0
C2873 C 0.29826 0.97427 0.6191 0.0
C2874 C 0.29529 0.98488 0.63003 0.0
C2875 C 0.29242 0.97539 0.60481 0.0
C2876 C 0.26387 0.99382 0.58276 0.0
H2877 H 0.26322 0.97616 0.50797 0.0
H2878 H 0.27272 0.97449 0.53306 0.0
H2879 H 0.24779 0.99918 0.56634 0.0
H2880 H 0.28364 0.00489 0.63444 0.0
H2881 H 0.27358 0.00683 0.6097 0.0
H2882 H 0.29852 0.98288 0.57593 0.0
C2883 C 0.26611 0.98374 0.53032 0.0
C2884 C 0.25893 0.99577 0.5683 0.0
C2885 C 0.26065 0.98469 0.51592 0.0
C2886 C 0.286 0.99637 0.62642 0.0
C2887 C 0.28022 0.99751 0.61217 0.0
C2888 C 0.28737 0.98629 0.57398 0.0
C2889 C 0.26269 0.99433 0.54111 0.0
C2890 C 0.26814 0.99292 0.55652 0.0
C2891 C 0.28352 0.98716 0.60114 0.0
C2892 C 0.27813 0.98899 0.58577 0.0
H2893 H 0.24145 0.016 0.51989 0.0
H2894 H 0.25112 0.01444 0.54511 0.0
H2895 H 0.28989 0.98619 0.55074 0.0
H2896 H 0.30519 0.96517 0.62155 0.0
H2897 H 0.29495 0.96707 0.59662 0.0
C2898 C 0.28478 0.99867 0.7683 0.0
C2899 C 0.27702 0.01056 0.76292 0.0
C2900 C 0.28567 0.99616 0.78337 0.0
C2901 C 0.26984 0.00756 0.81943 0.0
H2902 H 0.30595 0.99198 0.83519 0.0
C2903 C 0.28656 0.01022 0.88134 0.0
C2904 C 0.2911 0.99704 0.8874 0.0
C2905 C 0.28442 0.01128 0.86615 0.0
C2906 C 0.29577 0.99624 0.83092 0.0
H2907 H 0.26401 0.02907 0.76906 0.0
H2908 H 0.26596 0.02512 0.79538 0.0
H2909 H 0.30287 0.99498 0.80883 0.0
H2910 H 0.29715 0.97471 0.88227 0.0
H2911 H 0.29367 0.97667 0.85562 0.0
H2912 H 0.26311 0.00937 0.84175 0.0
C2913 C 0.27102 0.01738 0.78802 0.0
C2914 C 0.29391 0.99789 0.81576 0.0
C2915 C 0.26991 0.01972 0.7729 0.0
C2916 C 0.29357 0.98498 0.87791 0.0
C2917 C 0.29167 0.98612 0.86268 0.0
C2918 C 0.27182 0.00616 0.83461 0.0
C2919 C 0.27906 0.00565 0.79352 0.0
C2920 C 0.28091 0.00359 0.80974 0.0
C2921 C 0.28698 0.99926 0.85666 0.0
C2922 C 0.2848 0.0005 0.84051 0.0
H2923 H 0.2903 0.99137 0.76082 0.0
H2924 H 0.29164 0.98678 0.78701 0.0
H2925 H 0.25954 0.01168 0.81532 0.0
H2926 H 0.28446 0.01966 0.88837 0.0
H2927 H 0.28091 0.02157 0.8618 0.0
C2928 C 0.54076 0.71166 0.39922 0.0
C2929 C 0.54324 0.71998 0.38674 0.0
C2930 C 0.52716 0.71164 0.40589 0.0
C2931 C 0.49267 0.73223 0.4084 0.0
H2932 H 0.47792 0.69605 0.42472 0.0
C2933 C 0.43434 0.72663 0.43118 0.0
C2934 C 0.43309 0.71995 0.44484 0.0
C2935 C 0.44741 0.72615 0.42356 0.0
C2936 C 0.48193 0.70627 0.42031 0.0
H2937 H 0.53334 0.73488 0.37155 0.0
H2938 H 0.50946 0.73471 0.38307 0.0
H2939 H 0.50125 0.6964 0.41235 0.0
H2940 H 0.44466 0.7072 0.46095 0.0
H2941 H 0.46741 0.7062 0.44753 0.0
H2942 H 0.47323 0.74203 0.41627 0.0
C2943 C 0.51813 0.72836 0.38785 0.0
C2944 C 0.49535 0.7065 0.41324 0.0
C2945 C 0.53182 0.72846 0.38122 0.0
C2946 C 0.44514 0.71235 0.45041 0.0
C2947 C 0.45821 0.7118 0.44273 0.0
C2948 C 0.47919 0.73197 0.41538 0.0
C2949 C 0.51559 0.71986 0.40024 0.0
C2950 C 0.50099 0.71952 0.4073 0.0
C2951 C 0.45957 0.71888 0.42931 0.0
C2952 C 0.47371 0.71901 0.42151 0.0
H2953 H 0.54941 0.70521 0.40391 0.0
H2954 H 0.5258 0.70525 0.4156 0.0
H2955 H 0.49671 0.74251 0.40417 0.0
H2956 H 0.42519 0.73228 0.42634 0.0
H2957 H 0.44798 0.73147 0.41312 0.0
C2958 C 0.77286 0.26866 0.0172 0.0
C2959 C 0.76304 0.27722 0.00927 0.0
C2960 C 0.78797 0.26973 0.01482 0.0
C2961 C 0.81604 0.29484 0.99869 0.0
H2962 H 0.84147 0.26213 0.00479 0.0
C2963 C 0.87785 0.2957 0.98469 0.0
C2964 C 0.88743 0.2914 0.99603 0.0
C2965 C 0.86263 0.29375 0.98583 0.0
C2966 C 0.83448 0.27137 0.0031 0.0
H2967 H 0.76119 0.29297 0.99206 0.0
H2968 H 0.78735 0.29437 0.98739 0.0
H2969 H 0.815 0.25859 0.00696 0.0
H2970 H 0.88864 0.28147 0.01731 0.0
H2971 H 0.86205 0.27781 0.01917 0.0
H2972 H 0.83563 0.30745 0.99444 0.0
C2973 C 0.78359 0.28725 0.99589 0.0
C2974 C 0.81929 0.26939 0.00442 0.0
C2975 C 0.76855 0.28635 0.99845 0.0
C2976 C 0.8815 0.28498 0.00846 0.0
C2977 C 0.86631 0.28279 0.00948 0.0
C2978 C 0.8312 0.29673 0.99712 0.0
C2979 C 0.79361 0.27922 0.00427 0.0
C2980 C 0.80982 0.28113 0.00234 0.0
C2981 C 0.85672 0.2872 0.9982 0.0
C2982 C 0.84059 0.28505 0.99942 0.0
H2983 H 0.76893 0.26165 0.02572 0.0
H2984 H 0.79525 0.26349 0.02165 0.0
H2985 H 0.80926 0.30428 0.99732 0.0
H2986 H 0.88212 0.30073 0.97502 0.0
H2987 H 0.85548 0.2972 0.97696 0.0
C2988 C 0.11582 0.74573 0.67674 0.0
C2989 C 0.1222 0.75968 0.68027 0.0
C2990 C 0.10474 0.74398 0.6658 0.0
C2991 C 0.09231 0.7615 0.63223 0.0
H2992 H 0.0595 0.73348 0.63316 0.0
C2993 C 0.06306 0.73584 0.58038 0.0
C2994 C 0.04771 0.73421 0.58022 0.0
C2995 C 0.07075 0.74103 0.59306 0.0
C2996 C 0.06851 0.74149 0.63281 0.0
H2997 H 0.12151 0.78281 0.67535 0.0
H2998 H 0.10205 0.77978 0.65656 0.0
H2999 H 0.07496 0.7384 0.65531 0.0
H3000 H 0.02827 0.73685 0.59298 0.0
H3001 H 0.04178 0.74578 0.61536 0.0
H3002 H 0.08608 0.76435 0.60968 0.0
C3003 C 0.10573 0.77017 0.66214 0.0
C3004 C 0.07743 0.74419 0.64544 0.0
C3005 C 0.11677 0.77192 0.67305 0.0
C3006 C 0.04011 0.7382 0.59283 0.0
C3007 C 0.04783 0.74316 0.60563 0.0
C3008 C 0.08348 0.75871 0.61961 0.0
C3009 C 0.09984 0.75614 0.65812 0.0
C3010 C 0.08954 0.75409 0.64522 0.0
C3011 C 0.06324 0.74445 0.60591 0.0
C3012 C 0.07163 0.74852 0.6197 0.0
H3013 H 0.11962 0.7361 0.6822 0.0
H3014 H 0.10049 0.73301 0.66292 0.0
H3015 H 0.10165 0.76908 0.63164 0.0
H3016 H 0.06913 0.73274 0.57079 0.0
H3017 H 0.08263 0.74178 0.59301 0.0
C3018 C 0.51631 0.26088 0.98497 0.0
C3019 C 0.51241 0.25168 0.9964 0.0
C3020 C 0.53069 0.26638 0.98403 0.0
C3021 C 0.56872 0.2591 0.99582 0.0
H3022 H 0.57629 0.29892 0.98358 0.0
C3023 C 0.62678 0.28634 0.99692 0.0
C3024 C 0.63038 0.29581 0.98557 0.0
C3025 C 0.61255 0.28049 0.99795 0.0
C3026 C 0.57436 0.28771 0.98681 0.0
H3027 H 0.52043 0.24131 0.01603 0.0
H3028 H 0.54563 0.25104 0.01448 0.0
H3029 H 0.5511 0.29018 0.98676 0.0
H3030 H 0.6219 0.30592 0.96595 0.0
H3031 H 0.597 0.29557 0.96769 0.0
H3032 H 0.59199 0.25664 0.99589 0.0
C3033 C 0.53759 0.25378 0.00609 0.0
C3034 C 0.55992 0.28271 0.98868 0.0
C3035 C 0.52317 0.24823 0.007 0.0
C3036 C 0.61946 0.29886 0.97497 0.0
C3037 C 0.60519 0.29296 0.97598 0.0
C3038 C 0.58317 0.2641 0.99395 0.0
C3039 C 0.54152 0.26284 0.99453 0.0
C3040 C 0.55692 0.26833 0.99314 0.0
C3041 C 0.60152 0.2839 0.98763 0.0
C3042 C 0.58615 0.27845 0.98937 0.0
H3043 H 0.50831 0.26355 0.97651 0.0
H3044 H 0.53339 0.27311 0.97485 0.0
H3045 H 0.56678 0.24789 0.99906 0.0
H3046 H 0.63479 0.28389 0.00541 0.0
H3047 H 0.61007 0.27371 0.00717 0.0
C3048 C 0.3816 0.53214 0.72895 0.0
C3049 C 0.38662 0.54323 0.71979 0.0
C3050 C 0.38828 0.51848 0.729 0.0
C3051 C 0.41258 0.49496 0.70669 0.0
H3052 H 0.41789 0.47441 0.74297 0.0
C3053 C 0.45062 0.44552 0.71222 0.0
C3054 C 0.44569 0.4337 0.72055 0.0
C3055 C 0.44278 0.45848 0.71175 0.0
C3056 C 0.41635 0.47993 0.73271 0.0
H3057 H 0.40297 0.54886 0.70395 0.0
H3058 H 0.41473 0.5253 0.70421 0.0
H3059 H 0.40554 0.49775 0.74317 0.0
H3060 H 0.42822 0.42613 0.7344 0.0
H3061 H 0.41471 0.44876 0.7337 0.0
H3062 H 0.42364 0.47723 0.6963 0.0
C3063 C 0.40537 0.52689 0.71104 0.0
C3064 C 0.40923 0.49333 0.73282 0.0
C3065 C 0.39865 0.54046 0.71093 0.0
C3066 C 0.43256 0.4351 0.72814 0.0
C3067 C 0.42477 0.44808 0.72773 0.0
C3068 C 0.41978 0.48163 0.70661 0.0
C3069 C 0.40021 0.51564 0.71997 0.0
C3070 C 0.40733 0.50109 0.71982 0.0
C3071 C 0.42984 0.45997 0.71963 0.0
C3072 C 0.42183 0.47398 0.71963 0.0
H3073 H 0.37228 0.53389 0.73581 0.0
H3074 H 0.38389 0.51006 0.73591 0.0
H3075 H 0.41105 0.50043 0.6964 0.0
H3076 H 0.46075 0.44491 0.70636 0.0
H3077 H 0.44707 0.46749 0.70552 0.0
C3078 C 0.01603 0.77123 0.29405 0.0
C3079 C 0.01155 0.76303 0.28125 0.0
C3080 C 0.0133 0.7862 0.2955 0.0
C3081 C 0.99187 0.81626 0.27866 0.0
H3082 H 0.02049 0.84096 0.30093 0.0
C3083 C 0.99375 0.88012 0.27824 0.0
C3084 C 0.99579 0.88753 0.29196 0.0
C3085 C 0.99488 0.86485 0.27698 0.0
C3086 C 0.01234 0.83419 0.29477 0.0
H3087 H 1.0003 0.76452 0.26002 0.0
H3088 H 0.99648 0.79071 0.26212 0.0
H3089 H 0.02415 0.81474 0.29844 0.0
H3090 H 1.00013 0.88449 0.3152 0.0
H3091 H 0.00243 0.85794 0.31291 0.0
H3092 H 0.98042 0.83604 0.2746 0.0
C3093 C 0.00175 0.78546 0.27128 0.0
C3094 C 0.01437 0.81908 0.29339 0.0
C3095 C 0.00421 0.77038 0.26995 0.0
C3096 C 0.9988 0.87923 0.30441 0.0
C3097 C 1.00006 0.864 0.30312 0.0
C3098 C 0.98998 0.83144 0.27984 0.0
C3099 C 0.00632 0.79363 0.28406 0.0
C3100 C 0.00412 0.80983 0.28539 0.0
C3101 C 0.99821 0.85666 0.28938 0.0
C3102 C 1.00016 0.84055 0.28799 0.0
H3103 H 0.02192 0.7662 0.30297 0.0
H3104 H 0.01671 0.79191 0.30568 0.0
H3105 H 0.98357 0.80958 0.27262 0.0
H3106 H 0.99163 0.88615 0.26838 0.0
H3107 H 0.99355 0.85951 0.26622 0.0
C3108 C 0.66818 0.12057 0.76988 0.0
C3109 C 0.67925 0.1232 0.75981 0.0
C3110 C 0.65746 0.10947 0.76707 0.0
C3111 C 0.64004 0.08748 0.73611 0.0
H3112 H 0.62209 0.06579 0.76721 0.0
C3113 C 0.59617 0.04246 0.72303 0.0
C3114 C 0.58308 0.04366 0.73067 0.0
C3115 C 0.6088 0.05048 0.72772 0.0
C3116 C 0.62698 0.07181 0.75844 0.0
H3117 H 0.68814 0.11589 0.73917 0.0
H3118 H 0.66964 0.09625 0.73437 0.0
H3119 H 0.64295 0.0827 0.77304 0.0
H3120 H 0.57319 0.05346 0.74975 0.0
H3121 H 0.59543 0.0676 0.75805 0.0
H3122 H 0.62414 0.07658 0.72153 0.0
C3123 C 0.66899 0.10301 0.74429 0.0
C3124 C 0.63891 0.08153 0.76175 0.0
C3125 C 0.67963 0.11422 0.74704 0.0
C3126 C 0.58313 0.05236 0.74366 0.0
C3127 C 0.59584 0.06042 0.74839 0.0
C3128 C 0.62826 0.07769 0.73279 0.0
C3129 C 0.65761 0.10064 0.75415 0.0
C3130 C 0.64552 0.08959 0.75063 0.0
C3131 C 0.60867 0.05987 0.74021 0.0
C3132 C 0.62154 0.06981 0.74392 0.0
H3133 H 0.66747 0.12745 0.77972 0.0
H3134 H 0.64877 0.10818 0.7748 0.0
H3135 H 0.64458 0.0937 0.72729 0.0
H3136 H 0.59655 0.03555 0.71318 0.0
H3137 H 0.61861 0.04958 0.72138 0.0
C3138 C 0.98939 0.5222 0.23888 0.0
C3139 C 0.9984 0.51209 0.24587 0.0
C3140 C 0.98869 0.53661 0.24442 0.0
C3141 C 0.99382 0.55824 0.27876 0.0
H3142 H 0.99379 0.59183 0.25367 0.0
C3143 C 0.99515 0.61719 0.30304 0.0
C3144 C 0.98734 0.62788 0.29561 0.0
C3145 C 0.99671 0.60326 0.29664 0.0
C3146 C 0.99356 0.58256 0.26082 0.0
H3147 H 0.01418 0.50941 0.26381 0.0
H3148 H 0.01282 0.53454 0.27356 0.0
H3149 H 0.99653 0.56725 0.24291 0.0
H3150 H 0.9749 0.63241 0.27574 0.0
H3151 H 0.97702 0.60778 0.26475 0.0
H3152 H 0.99049 0.57333 0.29662 0.0
C3153 C 0.00618 0.53123 0.2639 0.0
C3154 C 0.99521 0.56849 0.25464 0.0
C3155 C 0.00693 0.51683 0.25833 0.0
C3156 C 0.98097 0.62433 0.28169 0.0
C3157 C 0.98232 0.61027 0.27536 0.0
C3158 C 0.99202 0.57225 0.28491 0.0
C3159 C 0.99692 0.54121 0.2571 0.0
C3160 C 0.9954 0.5562 0.26357 0.0
C3161 C 0.99028 0.59957 0.28274 0.0
C3162 C 0.99193 0.58462 0.27604 0.0
H3163 H 0.98252 0.51885 0.22939 0.0
H3164 H 0.98133 0.54402 0.23905 0.0
H3165 H 0.99366 0.54895 0.28588 0.0
H3166 H 0.00043 0.61973 0.31366 0.0
H3167 H 0.00322 0.59548 0.30252 0.0
C3168 C 0.35322 0.64454 0.34758 0.0
C3169 C 0.34579 0.65702 0.34309 0.0
C3170 C 0.36787 0.6425 0.34399 0.0
C3171 C 0.3966 0.65465 0.31825 0.0
H3172 H 0.42253 0.63584 0.3459 0.0
C3173 C 0.4595 0.64811 0.30987 0.0
C3174 C 0.46527 0.63442 0.31338 0.0
C3175 C 0.44497 0.65141 0.31309 0.0
C3176 C 0.4154 0.641 0.33799 0.0
H3177 H 0.34823 0.67728 0.33143 0.0
H3178 H 0.37378 0.67379 0.32526 0.0
H3179 H 0.39748 0.64087 0.3526 0.0
H3180 H 0.45969 0.61326 0.32239 0.0
H3181 H 0.43469 0.61917 0.32829 0.0
H3182 H 0.41472 0.65489 0.30373 0.0
C3183 C 0.36819 0.66541 0.33136 0.0
C3184 C 0.40098 0.64387 0.34182 0.0
C3185 C 0.35349 0.66743 0.33492 0.0
C3186 C 0.4559 0.62405 0.31986 0.0
C3187 C 0.44149 0.62743 0.32322 0.0
C3188 C 0.4111 0.65188 0.31446 0.0
C3189 C 0.37561 0.6529 0.33583 0.0
C3190 C 0.39127 0.65055 0.33194 0.0
C3191 C 0.43586 0.64119 0.32004 0.0
C3192 C 0.42063 0.64483 0.32421 0.0
H3193 H 0.34763 0.63612 0.35364 0.0
H3194 H 0.37303 0.63256 0.34739 0.0
H3195 H 0.38946 0.65966 0.31026 0.0
H3196 H 0.46633 0.65649 0.30506 0.0
H3197 H 0.44102 0.66215 0.31054 0.0
C3198 C 0.15104 0.26235 0.77082 0.0
C3199 C 0.16268 0.26556 0.76152 0.0
C3200 C 0.13661 0.26573 0.76679 0.0
C3201 C 0.11635 0.29112 0.74369 0.0
H3202 H 0.08258 0.26557 0.75036 0.0
C3203 C 0.05838 0.30683 0.7246 0.0
C3204 C 0.04695 0.30445 0.73437 0.0
C3205 C 0.0721 0.30073 0.72705 0.0
C3206 C 0.09189 0.2729 0.74854 0.0
H3207 H 0.16817 0.2747 0.74061 0.0
H3208 H 0.14307 0.28039 0.73354 0.0
H3209 H 0.10728 0.25739 0.75644 0.0
H3210 H 0.04085 0.29317 0.75398 0.0
H3211 H 0.06489 0.28285 0.75846 0.0
H3212 H 0.10111 0.30676 0.73611 0.0
C3213 C 0.1451 0.27534 0.74399 0.0
C3214 C 0.10603 0.26819 0.75202 0.0
C3215 C 0.15948 0.27191 0.74797 0.0
C3216 C 0.04946 0.29539 0.74635 0.0
C3217 C 0.06321 0.28933 0.74883 0.0
C3218 C 0.10226 0.29585 0.7403 0.0
C3219 C 0.13352 0.2725 0.75343 0.0
C3220 C 0.11843 0.27726 0.74961 0.0
C3221 C 0.0748 0.29215 0.73936 0.0
C3222 C 0.08982 0.28681 0.74266 0.0
H3223 H 0.15311 0.25735 0.78128 0.0
H3224 H 0.12794 0.26347 0.77435 0.0
H3225 H 0.12564 0.2985 0.74197 0.0
H3226 H 0.05692 0.31384 0.71533 0.0
H3227 H 0.08066 0.30293 0.71936 0.0
C3228 C 0.84331 0.9978 0.61459 0.0
C3229 C 0.83384 0.00881 0.61912 0.0
C3230 C 0.85798 0.99836 0.61935 0.0
C3231 C 0.88706 0.02268 0.63646 0.0
H3232 H 0.90172 0.98649 0.65187 0.0
C3233 C 0.94052 0.02376 0.66912 0.0
C3234 C 0.95089 0.01477 0.66271 0.0
C3235 C 0.92565 0.02128 0.66574 0.0
C3236 C 0.89771 0.99663 0.6476 0.0
H3237 H 0.83235 0.02947 0.6313 0.0
H3238 H 0.85795 0.03032 0.63988 0.0
H3239 H 0.87729 0.98653 0.64 0.0
H3240 H 0.95425 0.99552 0.64894 0.0
H3241 H 0.92807 0.99098 0.64308 0.0
H3242 H 0.9074 0.03279 0.64413 0.0
C3243 C 0.85407 0.0213 0.63263 0.0
C3244 C 0.88385 0.99665 0.6407 0.0
C3245 C 0.83941 0.02074 0.62787 0.0
C3246 C 0.94629 0.00241 0.6541 0.0
C3247 C 0.93138 0.99987 0.65074 0.0
C3248 C 0.90084 0.02267 0.64343 0.0
C3249 C 0.86338 0.00992 0.62871 0.0
C3250 C 0.87839 0.0097 0.63515 0.0
C3251 C 0.92108 0.00981 0.65586 0.0
C3252 C 0.90621 0.00968 0.64915 0.0
H3253 H 0.83926 0.98845 0.60787 0.0
H3254 H 0.86502 0.98959 0.61598 0.0
H3255 H 0.8832 0.03282 0.63206 0.0
H3256 H 0.94399 0.03344 0.67568 0.0
H3257 H 0.91784 0.02895 0.66995 0.0
C3258 C 0.63477 0.00655 0.31452 0.0
C3259 C 0.63779 0.99157 0.31287 0.0
C3260 C 0.62031 0.01099 0.31554 0.0
C3261 C 0.5829 0.99805 0.32338 0.0
H3262 H 0.57047 0.02481 0.29351 0.0
C3263 C 0.52434 0.99712 0.29947 0.0
C3264 C 0.5182 0.01012 0.29465 0.0
C3265 C 0.5388 0.99717 0.3049 0.0
C3266 C 0.57375 0.01762 0.30217 0.0
H3267 H 0.62832 0.96949 0.31153 0.0
H3268 H 0.60299 0.97723 0.31336 0.0
H3269 H 0.59652 0.02077 0.29768 0.0
H3270 H 0.52214 0.0335 0.29231 0.0
H3271 H 0.54747 0.0336 0.30187 0.0
H3272 H 0.56014 0.99461 0.32766 0.0
C3273 C 0.61178 0.98552 0.31388 0.0
C3274 C 0.58868 0.01529 0.30453 0.0
C3275 C 0.62621 0.98109 0.31266 0.0
C3276 C 0.52669 0.02326 0.29572 0.0
C3277 C 0.54116 0.02333 0.30123 0.0
C3278 C 0.56798 0.00049 0.32113 0.0
C3279 C 0.6087 0.0005 0.31514 0.0
C3280 C 0.59331 0.00506 0.31475 0.0
C3281 C 0.54743 0.01024 0.30571 0.0
C3282 C 0.56321 0.00983 0.31008 0.0
H3283 H 0.64356 0.01483 0.31467 0.0
H3284 H 0.61818 0.0226 0.31649 0.0
H3285 H 0.58627 0.99029 0.3315 0.0
H3286 H 0.51811 0.9868 0.29863 0.0
H3287 H 0.54337 0.98682 0.30795 0.0
C3288 C 0.34945 0.35712 0.66415 0.0
C3289 C 0.3418 0.34582 0.65596 0.0
C3290 C 0.34585 0.37187 0.66256 0.0
C3291 C 0.31611 0.39561 0.64863 0.0
H3292 H 0.34739 0.42534 0.64846 0.0
C3293 C 0.30616 0.45538 0.63075 0.0
C3294 C 0.31473 0.46686 0.63762 0.0
C3295 C 0.30891 0.44067 0.63374 0.0
C3296 C 0.33845 0.41726 0.64869 0.0
H3297 H 0.32446 0.34138 0.63945 0.0
H3298 H 0.31825 0.36695 0.63666 0.0
H3299 H 0.35331 0.39989 0.65229 0.0
H3300 H 0.33236 0.47185 0.65365 0.0
H3301 H 0.33696 0.44639 0.65908 0.0
H3302 H 0.30124 0.41299 0.64501 0.0
C3303 C 0.32686 0.36443 0.64455 0.0
C3304 C 0.34188 0.40259 0.65088 0.0
C3305 C 0.33045 0.34971 0.64615 0.0
C3306 C 0.32574 0.46328 0.64794 0.0
C3307 C 0.32842 0.44862 0.651 0.0
C3308 C 0.31267 0.4103 0.64647 0.0
C3309 C 0.3345 0.37575 0.65272 0.0
C3310 C 0.33078 0.39151 0.65081 0.0
C3311 C 0.32023 0.43706 0.64377 0.0
C3312 C 0.32379 0.42137 0.64641 0.0
H3313 H 0.35812 0.35458 0.67198 0.0
H3314 H 0.35186 0.38021 0.66922 0.0
H3315 H 0.30721 0.38746 0.64874 0.0
H3316 H 0.29765 0.45775 0.62269 0.0
H3317 H 0.30245 0.43213 0.62782 0.0
C3318 C 0.31605 0.62634 0.98293 0.0
C3319 C 0.31484 0.63788 0.99327 0.0
C3320 C 0.3169 0.61194 0.98754 0.0
C3321 C 0.30351 0.58899 0.01577 0.0
H3322 H 0.32874 0.56014 0.99843 0.0
C3323 C 0.29318 0.52718 0.02334 0.0
C3324 C 0.29362 0.51851 0.01035 0.0
C3325 C 0.29873 0.54163 0.02381 0.0
C3326 C 0.32162 0.56807 0.00336 0.0
H3327 H 0.31388 0.64374 0.01643 0.0
H3328 H 0.31493 0.61837 0.0245 0.0
H3329 H 0.33357 0.58624 0.99459 0.0
H3330 H 0.30033 0.5181 0.98774 0.0
H3331 H 0.30978 0.54336 0.98845 0.0
H3332 H 0.29101 0.57092 0.0238 0.0
C3333 C 0.31542 0.62049 0.01289 0.0
C3334 C 0.32443 0.58297 0.00122 0.0
C3335 C 0.31482 0.63493 0.0083 0.0
C3336 C 0.29997 0.52448 0.99794 0.0
C3337 C 0.30546 0.53893 0.99838 0.0
C3338 C 0.30062 0.57409 0.01781 0.0
C3339 C 0.31631 0.60888 0.00253 0.0
C3340 C 0.31512 0.5935 0.00702 0.0
C3341 C 0.30479 0.54772 0.01128 0.0
C3342 C 0.30935 0.56346 0.0112 0.0
H3343 H 0.31619 0.62845 0.97131 0.0
H3344 H 0.31741 0.60314 0.97932 0.0
H3345 H 0.2961 0.59691 0.02026 0.0
H3346 H 0.2886 0.52277 0.03317 0.0
H3347 H 0.29822 0.54807 0.03395 0.0
C3348 C 0.74776 0.16004 0.27306 0.0
C3349 C 0.76146 0.16306 0.26694 0.0
C3350 C 0.74348 0.14569 0.27633 0.0
C3351 C 0.75116 0.1065 0.26915 0.0
H3352 H 0.73456 0.10161 0.30742 0.0
C3353 C 0.7457 0.05017 0.29673 0.0
C3354 C 0.73365 0.04758 0.3057 0.0
C3355 C 0.74799 0.06385 0.29049 0.0
C3356 C 0.73893 0.10275 0.29659 0.0
H3357 H 0.78118 0.15323 0.25896 0.0
H3358 H 0.77374 0.12813 0.26481 0.0
H3359 H 0.74062 0.12612 0.29926 0.0
H3360 H 0.71428 0.05728 0.31466 0.0
H3361 H 0.71804 0.08093 0.30345 0.0
H3362 H 0.74955 0.08305 0.26655 0.0
C3363 C 0.76629 0.1369 0.26701 0.0
C3364 C 0.74244 0.11684 0.29191 0.0
C3365 C 0.77061 0.15129 0.26379 0.0
C3366 C 0.72362 0.05882 0.30774 0.0
C3367 C 0.72589 0.07248 0.30147 0.0
C3368 C 0.74759 0.09236 0.27381 0.0
C3369 C 0.75277 0.13397 0.27356 0.0
C3370 C 0.74865 0.1189 0.27818 0.0
C3371 C 0.73828 0.07529 0.29303 0.0
C3372 C 0.74149 0.0903 0.28763 0.0
H3373 H 0.7405 0.16883 0.27579 0.0
H3374 H 0.73292 0.1438 0.2812 0.0
H3375 H 0.75579 0.10773 0.25844 0.0
H3376 H 0.75352 0.04168 0.29475 0.0
H3377 H 0.75769 0.06561 0.28412 0.0
C3378 C 0.62642 0.83977 0.0215 0.0
C3379 C 0.61926 0.83377 0.00875 0.0
C3380 C 0.63133 0.85439 0.02205 0.0
C3381 C 0.62797 0.8898 0.00443 0.0
H3382 H 0.66859 0.8959 0.01784 0.0
C3383 C 0.65557 0.94647 0.00243 0.0
C3384 C 0.66204 0.95114 0.01595 0.0
C3385 C 0.65237 0.93157 0.99963 0.0
C3386 C 0.65724 0.89435 0.01407 0.0
H3387 H 0.61095 0.83842 0.98686 0.0
H3388 H 0.61952 0.86401 0.98786 0.0
H3389 H 0.65711 0.87141 0.01825 0.0
H3390 H 0.67118 0.9444 0.03676 0.0
H3391 H 0.66552 0.91839 0.03203 0.0
H3392 H 0.62796 0.91278 0.00058 0.0
C3393 C 0.62128 0.85743 0.99742 0.0
C3394 C 0.65065 0.8804 0.01441 0.0
C3395 C 0.61638 0.84281 0.99686 0.0
C3396 C 0.66633 0.94085 0.02619 0.0
C3397 C 0.66309 0.926 0.02345 0.0
C3398 C 0.63454 0.90378 0.00416 0.0
C3399 C 0.62915 0.8632 0.00986 0.0
C3400 C 0.63594 0.87805 0.0097 0.0
C3401 C 0.6555 0.9213 0.01042 0.0
C3402 C 0.6492 0.9062 0.00908 0.0
H3403 H 0.62848 0.83307 0.03091 0.0
H3404 H 0.63712 0.85873 0.03188 0.0
H3405 H 0.61658 0.88825 0.00082 0.0
H3406 H 0.65212 0.95438 0.9945 0.0
H3407 H 0.64672 0.92817 0.98941 0.0
C3408 C 0.66454 0.3312 0.35236 0.0
C3409 C 0.65675 0.34263 0.34597 0.0
C3410 C 0.66271 0.32774 0.36711 0.0
C3411 C 0.64873 0.34298 0.40235 0.0
H3412 H 0.64719 0.30228 0.41353 0.0
C3413 C 0.6269 0.3259 0.45818 0.0
C3414 C 0.63467 0.31551 0.4662 0.0
C3415 C 0.63027 0.32877 0.44365 0.0
C3416 C 0.64775 0.31371 0.41063 0.0
H3417 H 0.64073 0.3592 0.35029 0.0
H3418 H 0.63757 0.35322 0.37583 0.0
H3419 H 0.65195 0.30828 0.38812 0.0
H3420 H 0.65194 0.29971 0.46477 0.0
H3421 H 0.65756 0.3045 0.43925 0.0
H3422 H 0.64432 0.3484 0.42478 0.0
C3423 C 0.64532 0.34707 0.36954 0.0
C3424 C 0.65051 0.31717 0.39604 0.0
C3425 C 0.64714 0.35052 0.35482 0.0
C3426 C 0.64559 0.30768 0.45898 0.0
C3427 C 0.64888 0.31048 0.44434 0.0
C3428 C 0.64591 0.33952 0.41688 0.0
C3429 C 0.65305 0.33561 0.37593 0.0
C3430 C 0.65087 0.33187 0.39164 0.0
C3431 C 0.64141 0.32125 0.43657 0.0
C3432 C 0.6452 0.32483 0.4212 0.0
H3433 H 0.67221 0.325 0.34601 0.0
H3434 H 0.66904 0.319 0.37164 0.0
H3435 H 0.64927 0.35444 0.39954 0.0
H3436 H 0.61814 0.33189 0.46312 0.0
H3437 H 0.62404 0.33689 0.43793 0.0
C3438 C 0.00285 0.31013 0.63208 0.0
C3439 C 0.98854 0.31217 0.63682 0.0
C3440 C 0.00588 0.31086 0.6172 0.0
C3441 C 0.9863 0.30486 0.58184 0.0
H3442 H 0.02383 0.31604 0.56584 0.0
C3443 C 0.00407 0.28073 0.52735 0.0
C3444 C 0.00959 0.29043 0.51707 0.0
C3445 C 0.00215 0.28551 0.54179 0.0
C3446 C 0.01325 0.31304 0.57017 0.0
H3447 H 0.96647 0.31777 0.63026 0.0
H3448 H 0.97178 0.31956 0.60426 0.0
H3449 H 0.01904 0.32217 0.5916 0.0
H3450 H 0.01801 0.31259 0.51392 0.0
H3451 H 0.01457 0.32101 0.53936 0.0
H3452 H 0.98053 0.29565 0.56057 0.0
C3453 C 0.98057 0.31686 0.61188 0.0
C3454 C 0.01054 0.31644 0.58489 0.0
C3455 C 0.9775 0.31585 0.6267 0.0
C3456 C 0.01356 0.30494 0.52162 0.0
C3457 C 0.01172 0.30972 0.53615 0.0
C3458 C 0.989 0.30149 0.56722 0.0
C3459 C 0.99465 0.31386 0.60689 0.0
C3460 C 0.99712 0.31211 0.59094 0.0
C3461 C 0.00574 0.3001 0.54627 0.0
C3462 C 0.00261 0.30519 0.56135 0.0
H3463 H 0.01153 0.30735 0.63981 0.0
H3464 H 0.0168 0.30836 0.61372 0.0
H3465 H 0.97592 0.30117 0.58614 0.0
H3466 H 0.00083 0.26953 0.52415 0.0
H3467 H 0.99771 0.27782 0.54946 0.0
C3468 C 0.27794 0.77149 0.15521 0.0
C3469 C 0.26774 0.76312 0.16296 0.0
C3470 C 0.28066 0.76803 0.14055 0.0
C3471 C 0.27827 0.73755 0.11289 0.0
H3472 H 0.28693 0.76901 0.08649 0.0
C3473 C 0.29515 0.72868 0.05173 0.0
C3474 C 0.30769 0.73706 0.04806 0.0
C3475 C 0.28837 0.73123 0.06515 0.0
C3476 C 0.28453 0.7601 0.09373 0.0
H3477 H 0.25219 0.7446 0.16116 0.0
H3478 H 0.25696 0.73853 0.13544 0.0
H3479 H 0.27809 0.77484 0.11086 0.0
H3480 H 0.32322 0.75424 0.05606 0.0
H3481 H 0.31124 0.75887 0.07906 0.0
H3482 H 0.2849 0.72284 0.09563 0.0
C3483 C 0.26296 0.74772 0.14083 0.0
C3484 C 0.27952 0.76344 0.10772 0.0
C3485 C 0.26022 0.75121 0.15557 0.0
C3486 C 0.31335 0.74786 0.05823 0.0
C3487 C 0.30651 0.7505 0.07149 0.0
C3488 C 0.28322 0.7342 0.09879 0.0
C3489 C 0.27326 0.75608 0.13315 0.0
C3490 C 0.27674 0.75226 0.11765 0.0
C3491 C 0.2939 0.74231 0.07508 0.0
C3492 C 0.28679 0.74549 0.08924 0.0
H3493 H 0.2842 0.78052 0.1606 0.0
H3494 H 0.28891 0.77451 0.13513 0.0
H3495 H 0.2763 0.72867 0.12027 0.0
H3496 H 0.29044 0.72032 0.04414 0.0
H3497 H 0.27865 0.72476 0.06765 0.0
C3498 C 0.9915 0.62364 0.84148 0.0
C3499 C 0.00393 0.62234 0.83287 0.0
C3500 C 0.99308 0.62784 0.85627 0.0
C3501 C 0.01955 0.63069 0.88737 0.0
H3502 H 0.9954 0.66238 0.90103 0.0
C3503 C 0.03277 0.65979 0.94191 0.0
C3504 C 0.02115 0.65981 0.95162 0.0
C3505 C 0.03001 0.65697 0.92701 0.0
C3506 C 0.00212 0.65348 0.89734 0.0
H3507 H 0.02772 0.62355 0.83298 0.0
H3508 H 0.0305 0.63103 0.85888 0.0
H3509 H 0.99173 0.65226 0.87596 0.0
H3510 H 0.99758 0.65825 0.95362 0.0
H3511 H 0.99263 0.6532 0.92727 0.0
H3512 H 0.03001 0.63193 0.90866 0.0
C3513 C 0.01956 0.62884 0.85419 0.0
C3514 C 0.99999 0.64765 0.88309 0.0
C3515 C 0.01798 0.62472 0.83938 0.0
C3516 C 0.00663 0.65825 0.94619 0.0
C3517 C 0.00384 0.65538 0.9312 0.0
C3518 C 0.02169 0.63653 0.90157 0.0
C3519 C 0.00711 0.63071 0.86267 0.0
C3520 C 0.00878 0.63628 0.87798 0.0
C3521 C 0.01559 0.65407 0.92166 0.0
C3522 C 0.01311 0.64807 0.90661 0.0
H3523 H 0.98055 0.62185 0.83667 0.0
H3524 H 0.98333 0.62901 0.86266 0.0
H3525 H 0.0263 0.62178 0.88375 0.0
H3526 H 0.04404 0.66114 0.94598 0.0
H3527 H 0.0392 0.65632 0.91978 0.0
C3528 C 0.64574 0.35993 0.65478 0.0
C3529 C 0.65301 0.3468 0.65727 0.0
C3530 C 0.63099 0.36135 0.65834 0.0
C3531 C 0.60207 0.34513 0.68142 0.0
H3532 H 0.5762 0.36809 0.65734 0.0
C3533 C 0.54036 0.35053 0.6937 0.0
C3534 C 0.53463 0.36465 0.69274 0.0
C3535 C 0.5543 0.34756 0.68848 0.0
C3536 C 0.5833 0.36173 0.66425 0.0
H3537 H 0.65021 0.32472 0.66514 0.0
H3538 H 0.62451 0.32714 0.67125 0.0
H3539 H 0.60131 0.36432 0.64992 0.0
H3540 H 0.53904 0.38657 0.68503 0.0
H3541 H 0.56337 0.38148 0.67618 0.0
H3542 H 0.58404 0.34258 0.69577 0.0
C3543 C 0.63029 0.33648 0.6668 0.0
C3544 C 0.59774 0.35958 0.66001 0.0
C3545 C 0.64506 0.33508 0.66329 0.0
C3546 C 0.54312 0.37562 0.68612 0.0
C3547 C 0.55704 0.37264 0.68088 0.0
C3548 C 0.5876 0.34724 0.68564 0.0
C3549 C 0.62305 0.34967 0.66445 0.0
C3550 C 0.6074 0.35138 0.66861 0.0
C3551 C 0.5629 0.35861 0.68212 0.0
C3552 C 0.57806 0.3557 0.67719 0.0
H3553 H 0.65154 0.36928 0.65038 0.0
H3554 H 0.62593 0.37178 0.6566 0.0
H3555 H 0.60918 0.33892 0.68846 0.0
H3556 H 0.53424 0.34183 0.69885 0.0
H3557 H 0.55837 0.33658 0.68948 0.0
C3558 C 0.83874 0.73125 0.25213 0.0
C3559 C 0.8353 0.73315 0.23719 0.0
C3560 C 0.8532 0.72937 0.25697 0.0
C3561 C 0.89203 0.73477 0.24695 0.0
H3562 H 0.89823 0.70819 0.27883 0.0
C3563 C 0.94763 0.71425 0.27429 0.0
C3564 C 0.94885 0.71864 0.28926 0.0
C3565 C 0.93477 0.71672 0.266 0.0
C3566 C 0.89664 0.7156 0.26989 0.0
H3567 H 0.84456 0.73478 0.21563 0.0
H3568 H 0.86988 0.73115 0.22408 0.0
H3569 H 0.87369 0.71023 0.26785 0.0
H3570 H 0.93789 0.73017 0.30679 0.0
H3571 H 0.91533 0.73382 0.29248 0.0
H3572 H 0.91523 0.7399 0.24908 0.0
C3573 C 0.86133 0.73128 0.23206 0.0
C3574 C 0.88259 0.71687 0.26366 0.0
C3575 C 0.84679 0.73322 0.2272 0.0
C3576 C 0.93724 0.7263 0.29544 0.0
C3577 C 0.92436 0.72851 0.28724 0.0
C3578 C 0.90619 0.73333 0.2531 0.0
C3579 C 0.86468 0.72919 0.24701 0.0
C3580 C 0.88 0.72678 0.2524 0.0
C3581 C 0.92291 0.72345 0.27259 0.0
C3582 C 0.90848 0.72398 0.26484 0.0
H3583 H 0.8302 0.73089 0.26012 0.0
H3584 H 0.85537 0.72809 0.2686 0.0
H3585 H 0.89043 0.74254 0.23834 0.0
H3586 H 0.95624 0.7082 0.26916 0.0
H3587 H 0.93381 0.71268 0.2547 0.0
C3588 C 0.15291 0.97768 0.39047 0.0
C3589 C 0.16239 0.98914 0.38623 0.0
C3590 C 0.13821 0.97695 0.3855 0.0
C3591 C 0.11475 0.9893 0.35503 0.0
H3592 H 0.08251 0.97714 0.37913 0.0
C3593 C 0.05542 0.98816 0.33206 0.0
C3594 C 0.04663 0.97574 0.33503 0.0
C3595 C 0.06879 0.99094 0.3397 0.0
C3596 C 0.09141 0.98045 0.37223 0.0
H3597 H 0.16367 0.00926 0.37419 0.0
H3598 H 0.1381 0.00801 0.36558 0.0
H3599 H 0.10738 0.97968 0.38996 0.0
H3600 H 0.04475 0.95673 0.34864 0.0
H3601 H 0.06818 0.96146 0.36186 0.0
H3602 H 0.099 0.98981 0.33725 0.0
C3603 C 0.14207 0.9994 0.37245 0.0
C3604 C 0.10565 0.98191 0.37844 0.0
C3605 C 0.15673 1.00012 0.37737 0.0
C3606 C 0.05122 0.96647 0.34621 0.0
C3607 C 0.06465 0.9692 0.3538 0.0
C3608 C 0.10057 0.98782 0.34884 0.0
C3609 C 0.1327 0.98768 0.37623 0.0
C3610 C 0.11747 0.98635 0.36989 0.0
C3611 C 0.07375 0.98129 0.35041 0.0
C3612 C 0.08871 0.98336 0.35733 0.0
H3613 H 0.15698 0.96902 0.39722 0.0
H3614 H 0.1313 0.96771 0.38851 0.0
H3615 H 0.12365 0.99245 0.34806 0.0
H3616 H 0.05206 0.99562 0.32367 0.0
H3617 H 0.07535 0.00054 0.33705 0.0
C3618 C 0.3703 0.03432 0.66114 0.0
C3619 C 0.35843 0.02411 0.66007 0.0
C3620 C 0.38413 0.03006 0.66624 0.0
C3621 C 0.40596 0.99713 0.67451 0.0
H3622 H 0.42748 0.02461 0.70105 0.0
C3623 C 0.46563 0.98913 0.69486 0.0
C3624 C 0.47024 0.99519 0.70867 0.0
C3625 C 0.4513 0.99083 0.68951 0.0
C3626 C 0.4215 0.0167 0.69386 0.0
H3627 H 0.35196 0.00146 0.66336 0.0
H3628 H 0.37567 0.99411 0.67243 0.0
H3629 H 0.4045 0.03174 0.6896 0.0
H3630 H 0.4631 0.00659 0.72826 0.0
H3631 H 0.43789 0.00924 0.71909 0.0
H3632 H 0.42277 0.98191 0.67918 0.0
C3633 C 0.37453 0.0053 0.66901 0.0
C3634 C 0.40846 0.02091 0.68704 0.0
C3635 C 0.36085 0.00952 0.66379 0.0
C3636 C 0.45989 0.00196 0.71751 0.0
C3637 C 0.44551 0.00357 0.71219 0.0
C3638 C 0.41896 0.99286 0.68145 0.0
C3639 C 0.38632 0.01554 0.67051 0.0
C3640 C 0.40053 0.01121 0.67725 0.0
C3641 C 0.44123 0.99857 0.69789 0.0
C3642 C 0.4269 0.00261 0.6912 0.0
H3643 H 0.36889 0.04561 0.65818 0.0
H3644 H 0.39307 0.03818 0.66698 0.0
H3645 H 0.40022 0.98941 0.66693 0.0
H3646 H 0.47337 0.98405 0.68766 0.0
H3647 H 0.44846 0.98693 0.67842 0.0
C3648 C 0.66461 0.64584 0.33595 0.0
C3649 C 0.65755 0.65367 0.34712 0.0
C3650 C 0.66818 0.63111 0.33764 0.0
C3651 C 0.67468 0.60396 0.36643 0.0
H3652 H 0.67078 0.57537 0.33407 0.0
C3653 C 0.68488 0.54265 0.37525 0.0
C3654 C 0.69257 0.53495 0.36449 0.0
C3655 C 0.67977 0.5567 0.37268 0.0
C3656 C 0.67208 0.58323 0.3432 0.0
H3657 H 0.6487 0.65194 0.36884 0.0
H3658 H 0.65467 0.62631 0.37167 0.0
H3659 H 0.66358 0.60062 0.33042 0.0
H3660 H 0.70068 0.53604 0.34241 0.0
H3661 H 0.69181 0.56052 0.33794 0.0
H3662 H 0.68334 0.58672 0.37917 0.0
C3663 C 0.6576 0.63159 0.36164 0.0
C3664 C 0.66794 0.59774 0.3411 0.0
C3665 C 0.65401 0.64628 0.35994 0.0
C3666 C 0.69465 0.54154 0.3509 0.0
C3667 C 0.68956 0.55562 0.34834 0.0
C3668 C 0.67885 0.5895 0.36851 0.0
C3669 C 0.66483 0.62382 0.35057 0.0
C3670 C 0.66916 0.6083 0.3527 0.0
C3671 C 0.68223 0.5635 0.35928 0.0
C3672 C 0.67759 0.5789 0.35695 0.0
H3673 H 0.66737 0.65108 0.32585 0.0
H3674 H 0.67383 0.62554 0.32892 0.0
H3675 H 0.67607 0.61182 0.37555 0.0
H3676 H 0.68282 0.53784 0.38574 0.0
H3677 H 0.67388 0.56225 0.38126 0.0
C3678 C 0.66322 0.37011 0.03543 0.0
C3679 C 0.66087 0.35843 0.02512 0.0
C3680 C 0.66847 0.38382 0.03099 0.0
C3681 C 0.67408 0.40591 0.99774 0.0
H3682 H 0.70273 0.4271 0.02328 0.0
C3683 C 0.69192 0.46603 0.98952 0.0
C3684 C 0.7059 0.47106 0.99471 0.0
C3685 C 0.68733 0.45148 0.99124 0.0
C3686 C 0.69495 0.42121 0.01586 0.0
H3687 H 0.66213 0.35226 0.00211 0.0
H3688 H 0.67139 0.37571 0.99443 0.0
H3689 H 0.69224 0.40385 0.03086 0.0
H3690 H 0.72652 0.46459 0.00458 0.0
H3691 H 0.71872 0.43893 0.00711 0.0
H3692 H 0.67717 0.42303 0.98252 0.0
C3693 C 0.66888 0.37452 0.00588 0.0
C3694 C 0.68869 0.408 0.02038 0.0
C3695 C 0.66353 0.36096 0.0103 0.0
C3696 C 0.71564 0.461 0.00061 0.0
C3697 C 0.71111 0.44636 0.00217 0.0
C3698 C 0.68048 0.41903 0.99315 0.0
C3699 C 0.67158 0.38609 0.01617 0.0
C3700 C 0.67809 0.40025 0.01143 0.0
C3701 C 0.69668 0.44159 0.99808 0.0
C3702 C 0.69089 0.42693 0.00222 0.0
H3703 H 0.66111 0.36867 0.04693 0.0
H3704 H 0.67016 0.39261 0.03918 0.0
H3705 H 0.66586 0.40031 0.9906 0.0
H3706 H 0.68409 0.47359 0.98513 0.0
H3707 H 0.6761 0.44829 0.98808 0.0
C3708 C 0.24552 0.84275 0.74356 0.0
C3709 C 0.23733 0.83608 0.73171 0.0
C3710 C 0.25026 0.85744 0.74315 0.0
C3711 C 0.24515 0.89249 0.72437 0.0
H3712 H 0.2862 0.89935 0.73559 0.0
C3713 C 0.27828 0.94543 0.71044 0.0
C3714 C 0.29009 0.9501 0.71986 0.0
C3715 C 0.27021 0.93252 0.71311 0.0
C3716 C 0.27464 0.8978 0.7327 0.0
H3717 H 0.22725 0.83985 0.71034 0.0
H3718 H 0.23555 0.86556 0.70964 0.0
H3719 H 0.27499 0.87514 0.73797 0.0
H3720 H 0.30227 0.94557 0.73984 0.0
H3721 H 0.28775 0.92347 0.74502 0.0
H3722 H 0.24484 0.91523 0.71906 0.0
C3723 C 0.23821 0.85941 0.7193 0.0
C3724 C 0.26821 0.88383 0.73402 0.0
C3725 C 0.23346 0.84467 0.7197 0.0
C3726 C 0.29321 0.94213 0.73242 0.0
C3727 C 0.28498 0.92939 0.73525 0.0
C3728 C 0.25156 0.90657 0.72316 0.0
C3729 C 0.24695 0.86586 0.73088 0.0
C3730 C 0.25342 0.88097 0.72984 0.0
C3731 C 0.2737 0.92411 0.72537 0.0
C3732 C 0.26644 0.9094 0.72727 0.0
H3733 H 0.24841 0.83655 0.75312 0.0
H3734 H 0.25672 0.86217 0.75239 0.0
H3735 H 0.23369 0.89066 0.72114 0.0
H3736 H 0.27582 0.95133 0.70056 0.0
H3737 H 0.26174 0.92879 0.70515 0.0
C3738 C 0.38353 0.15412 0.00144 0.0
C3739 C 0.38803 0.16199 0.98926 0.0
C3740 C 0.37847 0.13952 0.99969 0.0
C3741 C 0.35927 0.11542 0.97297 0.0
H3742 H 0.37195 0.08335 0.9968 0.0
C3743 C 0.336 0.05711 0.96119 0.0
C3744 C 0.33315 0.04824 0.97311 0.0
C3745 C 0.34403 0.07031 0.96326 0.0
C3746 C 0.36814 0.09222 0.99018 0.0
H3747 H 0.39108 0.16074 0.96578 0.0
H3748 H 0.38195 0.13527 0.96267 0.0
H3749 H 0.38381 0.10772 0.00041 0.0
H3750 H 0.3365 0.04587 0.99648 0.0
H3751 H 0.35011 0.06936 0.00035 0.0
H3752 H 0.34322 0.10039 0.96316 0.0
C3753 C 0.38246 0.14039 0.97357 0.0
C3754 C 0.375 0.10612 0.9922 0.0
C3755 C 0.38773 0.1549 0.97535 0.0
C3756 C 0.33865 0.0526 0.98715 0.0
C3757 C 0.3465 0.06599 0.9893 0.0
C3758 C 0.35227 0.10165 0.97112 0.0
C3759 C 0.3776 0.13264 0.98568 0.0
C3760 C 0.37067 0.1178 0.98354 0.0
C3761 C 0.34913 0.07512 0.97738 0.0
C3762 C 0.35666 0.0898 0.9796 0.0
H3763 H 0.38377 0.15932 0.01229 0.0
H3764 H 0.37472 0.13379 0.00918 0.0
H3765 H 0.35554 0.12433 0.96635 0.0
H3766 H 0.33195 0.05382 0.95024 0.0
H3767 H 0.34616 0.07678 0.95374 0.0
C3768 C 0.33887 0.65157 0.64212 0.0
C3769 C 0.34708 0.659 0.65354 0.0
C3770 C 0.34045 0.65549 0.62745 0.0
C3771 C 0.3554 0.68608 0.60506 0.0
H3772 H 0.35215 0.65707 0.57303 0.0
C3773 C 0.37688 0.69747 0.5478 0.0
C3774 C 0.36682 0.69533 0.53582 0.0
C3775 C 0.37368 0.69227 0.56164 0.0
C3776 C 0.35297 0.66529 0.58187 0.0
H3777 H 0.36385 0.67597 0.65835 0.0
H3778 H 0.36693 0.68249 0.63299 0.0
H3779 H 0.34828 0.64954 0.59822 0.0
H3780 H 0.34566 0.68524 0.52914 0.0
H3781 H 0.34041 0.67561 0.55331 0.0
H3782 H 0.36066 0.70168 0.58875 0.0
C3783 C 0.35883 0.674 0.63526 0.0
C3784 C 0.3507 0.66101 0.59634 0.0
C3785 C 0.35712 0.67021 0.64988 0.0
C3786 C 0.35376 0.68706 0.53799 0.0
C3787 C 0.35069 0.6816 0.55186 0.0
C3788 C 0.35791 0.69027 0.5907 0.0
C3789 C 0.35041 0.66684 0.62379 0.0
C3790 C 0.35207 0.67133 0.6082 0.0
C3791 C 0.36047 0.68447 0.5639 0.0
C3792 C 0.35688 0.67992 0.57896 0.0
H3793 H 0.33097 0.64294 0.64455 0.0
H3794 H 0.33364 0.64978 0.61903 0.0
H3795 H 0.35611 0.69449 0.61372 0.0
H3796 H 0.38726 0.70332 0.54657 0.0
H3797 H 0.38155 0.69442 0.57066 0.0
C3798 C 0.00863 0.66456 0.36205 0.0
C3799 C 0.0233 0.66098 0.35977 0.0
C3800 C 0.00418 0.66949 0.37573 0.0
C3801 C 0.01285 0.66925 0.41484 0.0
H3802 H 0.99051 0.70482 0.41667 0.0
C3803 C 0.98866 0.68968 0.46852 0.0
C3804 C 0.99358 0.70399 0.47284 0.0
C3805 C 0.99002 0.68457 0.45408 0.0
C3806 C 0.99668 0.69486 0.41628 0.0
H3807 H 0.04479 0.65944 0.37039 0.0
H3808 H 0.03692 0.66801 0.39461 0.0
H3809 H 0.99849 0.69524 0.39293 0.0
H3810 H 0.00259 0.72454 0.46519 0.0
H3811 H 0.0048 0.71562 0.43977 0.0
H3812 H 0.01108 0.66888 0.43819 0.0
C3813 C 0.02891 0.667 0.38557 0.0
C3814 C 0.00121 0.68937 0.40275 0.0
C3815 C 0.03343 0.6622 0.37172 0.0
C3816 C 0.99878 0.71346 0.46215 0.0
C3817 C 1.0 0.70837 0.44764 0.0
C3818 C 0.00814 0.67462 0.42834 0.0
C3819 C 0.01427 0.67087 0.3876 0.0
C3820 C 0.00945 0.67659 0.40194 0.0
C3821 C 0.9962 0.69371 0.44366 0.0
C3822 C 1.00013 0.68754 0.42919 0.0
H3823 H 0.00057 0.66387 0.35314 0.0
H3824 H 0.9928 0.67225 0.37702 0.0
H3825 H 0.01906 0.6593 0.41447 0.0
H3826 H 0.98476 0.68205 0.47652 0.0
H3827 H 0.98687 0.67327 0.45121 0.0
C3828 C 0.71927 0.24441 0.83986 0.0
C3829 C 0.73139 0.2361 0.83627 0.0
C3830 C 0.71746 0.24939 0.85428 0.0
C3831 C 0.72998 0.2456 0.89318 0.0
H3832 H 0.71606 0.2853 0.89634 0.0
C3833 C 0.72781 0.28266 0.94732 0.0
C3834 C 0.71486 0.29054 0.94852 0.0
C3835 C 0.73022 0.27413 0.93456 0.0
C3836 C 0.71987 0.27417 0.89566 0.0
H3837 H 0.75092 0.22602 0.84477 0.0
H3838 H 0.74805 0.23516 0.87016 0.0
H3839 H 0.71958 0.27415 0.87228 0.0
H3840 H 0.69374 0.29458 0.93809 0.0
H3841 H 0.6979 0.2798 0.91604 0.0
H3842 H 0.73044 0.24595 0.91683 0.0
C3843 C 0.73979 0.23761 0.86188 0.0
C3844 C 0.72183 0.26772 0.88185 0.0
C3845 C 0.74149 0.23244 0.84739 0.0
C3846 C 0.70399 0.28894 0.93728 0.0
C3847 C 0.70636 0.28046 0.92467 0.0
C3848 C 0.72811 0.25216 0.90713 0.0
C3849 C 0.7279 0.24643 0.86542 0.0
C3850 C 0.72662 0.25326 0.88037 0.0
C3851 C 0.71968 0.27337 0.92292 0.0
C3852 C 0.72276 0.26642 0.90845 0.0
H3853 H 0.71127 0.24718 0.83143 0.0
H3854 H 0.70795 0.25579 0.85665 0.0
H3855 H 0.73369 0.23444 0.89244 0.0
H3856 H 0.73629 0.28364 0.95591 0.0
H3857 H 0.74057 0.26872 0.9335 0.0
C3858 C 0.99555 0.39113 0.152 0.0
C3859 C 0.98616 0.3854 0.16254 0.0
C3860 C 0.99446 0.38588 0.13739 0.0
C3861 C 0.98241 0.35263 0.11639 0.0
H3862 H 0.98292 0.37663 0.08199 0.0
C3863 C 0.96495 0.32833 0.06015 0.0
C3864 C 0.97318 0.33195 0.04795 0.0
C3865 C 0.96737 0.33585 0.07356 0.0
C3866 C 0.98297 0.36979 0.0915 0.0
H3867 H 0.96763 0.37051 0.16581 0.0
H3868 H 0.96579 0.36135 0.14044 0.0
H3869 H 0.98533 0.38836 0.10659 0.0
H3870 H 0.99015 0.34662 0.04007 0.0
H3871 H 0.99457 0.35981 0.0638 0.0
H3872 H 0.98007 0.3341 0.10155 0.0
C3873 C 0.97419 0.36963 0.1435 0.0
C3874 C 0.98432 0.3765 0.10555 0.0
C3875 C 0.97525 0.37486 0.15803 0.0
C3876 C 0.98366 0.3436 0.04933 0.0
C3877 C 0.98616 0.35114 0.06287 0.0
C3878 C 0.98114 0.34596 0.10245 0.0
C3879 C 0.98401 0.3748 0.13311 0.0
C3880 C 0.98369 0.36797 0.11812 0.0
C3881 C 0.97816 0.34717 0.07518 0.0
C3882 C 0.98103 0.35445 0.08984 0.0
H3883 H 0.00409 0.39923 0.15515 0.0
H3884 H 0.00218 0.39005 0.1296 0.0
H3885 H 0.98229 0.34574 0.12586 0.0
H3886 H 0.95653 0.31966 0.05932 0.0
H3887 H 0.96072 0.33279 0.08271 0.0
loop_
_geom_bond_atom_site_label_1
_geom_bond_atom_site_label_2
_geom_bond_distance
_geom_bond_site_symmetry_2
_ccdc_geom_bond_type
C0 C1 1.264 . S
C0 C5 1.479 . S
C0 C10 1.465 . S
C1 C0 1.264 . S
C1 C3 1.339 . S
C1 H28 0.931 . S
C2 C3 1.395 . S
C2 C4 1.320 . S
C3 C1 1.339 . S
C3 C2 1.395 . S
C3 H29 0.929 . S
C4 C2 1.320 . S
C4 C5 1.405 . S
C4 H30 0.930 . S
C5 C0 1.479 . S
C5 C4 1.405 . S
C5 H31 0.931 . S
U6 O7 2.454 . S
U6 O8 2.458 . S
U6 C9 2.984 . S
U6 C10 2.847 . S
U6 C23 2.882 . S
U6 O24 2.441 . S
U6 O25 2.420 . S
U6 O26 2.455 . S
U6 O27 2.449 . S
O7 U6 2.454 . S
O7 C9 1.353 . S
O8 U6 2.458 . S
O8 C9 1.286 . S
C9 U6 2.984 . S
C9 O7 1.353 . S
C9 O8 1.286 . S
C9 C11 1.363 . S
C10 C0 1.465 . S
C10 U6 2.847 . S
C10 O24 1.249 . S
C10 O25 1.202 . S
C11 C9 1.363 . S
C11 C13 1.408 . S
C11 C16 1.342 . S
C12 C13 1.310 . S
C12 C15 1.461 . S
C12 H32 0.932 . S
C13 C11 1.408 . S
C13 C12 1.310 . S
C13 H33 0.930 . S
C14 C15 1.474 . S
C14 C16 1.285 . S
C14 H34 0.929 . S
C15 C12 1.461 . S
C15 C14 1.474 . S
C16 C11 1.342 . S
C16 C14 1.285 . S
C16 H35 0.930 . S
C17 C20 1.424 . S
C17 C22 1.245 . S
C17 C23 1.428 . S
C18 C21 1.260 . S
C18 C22 1.477 . S
C18 H36 0.932 . S
C19 C20 1.384 . S
C19 C21 1.479 . S
C19 H37 0.929 . S
C20 C17 1.424 . S
C20 C19 1.384 . S
C20 H38 0.928 . S
C21 C18 1.260 . S
C21 C19 1.479 . S
C22 C17 1.245 . S
C22 C18 1.477 . S
C22 H39 0.932 . S
C23 U6 2.882 . S
C23 C17 1.428 . S
C23 O26 1.301 . S
C23 O27 1.282 . S
O24 U6 2.441 . S
O24 C10 1.249 . S
O25 U6 2.420 . S
O25 C10 1.202 . S
O26 U6 2.455 . S
O26 C23 1.301 . S
O27 U6 2.449 . S
O27 C23 1.282 . S
H28 C1 0.931 . S
H29 C3 0.929 . S
H30 C4 0.930 . S
H31 C5 0.931 . S
H32 C12 0.932 . S
H33 C13 0.930 . S
H34 C14 0.929 . S
H35 C16 0.930 . S
H36 C18 0.932 . S
H37 C19 0.929 . S
H38 C20 0.928 . S
H39 C22 0.932 . S
C40 C41 1.264 . S
C40 C45 1.479 . S
C40 C50 1.465 . S
C41 C40 1.264 . S
C41 C43 1.339 . S
C41 H68 0.931 . S
C42 C43 1.395 . S
C42 C44 1.320 . S
C43 C41 1.339 . S
C43 C42 1.395 . S
C43 H69 0.929 . S
C44 C42 1.320 . S
C44 C45 1.405 . S
C44 H70 0.930 . S
C45 C40 1.479 . S
C45 C44 1.405 . S
C45 H71 0.931 . S
U46 O47 2.454 . S
U46 O48 2.458 . S
U46 C49 2.984 . S
U46 C50 2.847 . S
U46 C63 2.882 . S
U46 O64 2.441 . S
U46 O65 2.420 . S
U46 O66 2.455 . S
U46 O67 2.449 . S
O47 U46 2.454 . S
O47 C49 1.353 . S
O48 U46 2.458 . S
O48 C49 1.286 . S
C49 U46 2.984 . S
C49 O47 1.353 . S
C49 O48 1.286 . S
C49 C51 1.363 . S
C50 C40 1.465 . S
C50 U46 2.847 . S
C50 O64 1.249 . S
C50 O65 1.202 . S
C51 C49 1.363 . S
C51 C53 1.408 . S
C51 C56 1.342 . S
C52 C53 1.310 . S
C52 C55 1.461 . S
C52 H72 0.932 . S
C53 C51 1.408 . S
C53 C52 1.310 . S
C53 H73 0.930 . S
C54 C55 1.474 . S
C54 C56 1.285 . S
C54 H74 0.929 . S
C55 C52 1.461 . S
C55 C54 1.474 . S
C56 C51 1.342 . S
C56 C54 1.285 . S
C56 H75 0.930 . S
C57 C60 1.424 . S
C57 C62 1.245 . S
C57 C63 1.428 . S
C58 C61 1.260 . S
C58 C62 1.477 . S
C58 H76 0.932 . S
C59 C60 1.384 . S
C59 C61 1.479 . S
C59 H77 0.929 . S
C60 C57 1.424 . S
C60 C59 1.384 . S
C60 H78 0.928 . S
C61 C58 1.260 . S
C61 C59 1.479 . S
C62 C57 1.245 . S
C62 C58 1.477 . S
C62 H79 0.932 . S
C63 U46 2.882 . S
C63 C57 1.428 . S
C63 O66 1.301 . S
C63 O67 1.282 . S
O64 U46 2.441 . S
O64 C50 1.249 . S
O65 U46 2.420 . S
O65 C50 1.202 . S
O66 U46 2.455 . S
O66 C63 1.301 . S
O67 U46 2.449 . S
O67 C63 1.282 . S
H68 C41 0.931 . S
H69 C43 0.929 . S
H70 C44 0.930 . S
H71 C45 0.931 . S
H72 C52 0.932 . S
H73 C53 0.930 . S
H74 C54 0.929 . S
H75 C56 0.930 . S
H76 C58 0.932 . S
H77 C59 0.929 . S
H78 C60 0.928 . S
H79 C62 0.932 . S
C80 C81 1.264 . S
C80 C85 1.472 1_565 S
C80 C90 1.478 . S
C81 C80 1.264 . S
C81 C83 1.332 1_565 S
C81 H108 0.938 . S
C82 C83 1.395 . S
C82 C84 1.320 . S
C83 C81 1.332 1_545 S
C83 C82 1.395 . S
C83 H109 0.929 . S
C84 C82 1.320 . S
C84 C85 1.405 . S
C84 H110 0.930 . S
C85 C80 1.472 1_545 S
C85 C84 1.405 . S
C85 H111 0.941 . S
U86 O87 2.454 . S
U86 O88 2.458 . S
U86 C89 2.984 . S
U86 C90 2.847 . S
U86 C103 2.882 . S
U86 O104 2.441 . S
U86 O105 2.420 . S
U86 O106 2.455 . S
U86 O107 2.449 . S
O87 U86 2.454 . S
O87 C89 1.353 . S
O88 U86 2.458 . S
O88 C89 1.286 . S
C89 U86 2.984 . S
C89 O87 1.353 . S
C89 O88 1.286 . S
C89 C91 1.363 . S
C90 C80 1.478 . S
C90 U86 2.847 . S
C90 O104 1.249 . S
C90 O105 1.202 . S
C91 C89 1.363 . S
C91 C93 1.408 . S
C91 C96 1.342 . S
C92 C93 1.310 . S
C92 C95 1.461 . S
C92 H112 0.932 . S
C93 C91 1.408 . S
C93 C92 1.310 . S
C93 H113 0.930 . S
C94 C95 1.474 . S
C94 C96 1.285 . S
C94 H114 0.929 . S
C95 C92 1.461 . S
C95 C94 1.474 . S
C96 C91 1.342 . S
C96 C94 1.285 . S
C96 H115 0.930 . S
C97 C100 1.424 . S
C97 C102 1.245 . S
C97 C103 1.428 . S
C98 C101 1.260 . S
C98 C102 1.477 . S
C98 H116 0.932 . S
C99 C100 1.384 . S
C99 C101 1.479 . S
C99 H117 0.929 . S
C100 C97 1.424 . S
C100 C99 1.384 . S
C100 H118 0.928 . S
C101 C98 1.260 . S
C101 C99 1.479 . S
C102 C97 1.245 . S
C102 C98 1.477 . S
C102 H119 0.932 . S
C103 U86 2.882 . S
C103 C97 1.428 . S
C103 O106 1.301 . S
C103 O107 1.282 . S
O104 U86 2.441 . S
O104 C90 1.249 . S
O105 U86 2.420 . S
O105 C90 1.202 . S
O106 U86 2.455 . S
O106 C103 1.301 . S
O107 U86 2.449 . S
O107 C103 1.282 . S
H108 C81 0.938 . S
H109 C83 0.929 . S
H110 C84 0.930 . S
H111 C85 0.941 . S
H112 C92 0.932 . S
H113 C93 0.930 . S
H114 C94 0.929 . S
H115 C96 0.930 . S
H116 C98 0.932 . S
H117 C99 0.929 . S
H118 C100 0.928 . S
H119 C102 0.932 . S
C120 C121 1.264 . S
C120 C125 1.479 . S
C120 C130 1.465 . S
C121 C120 1.264 . S
C121 C123 1.339 . S
C121 H148 0.931 . S
C122 C123 1.395 . S
C122 C124 1.320 . S
C123 C121 1.339 . S
C123 C122 1.395 . S
C123 H149 0.929 . S
C124 C122 1.320 . S
C124 C125 1.405 . S
C124 H150 0.907 1_545 S
C125 C120 1.479 . S
C125 C124 1.405 . S
C125 H151 0.931 . S
U126 O127 2.471 . S
U126 O128 2.458 . S
U126 C129 2.983 . S
U126 C130 2.847 . S
U126 C143 2.882 . S
U126 O144 2.441 . S
U126 O145 2.420 . S
U126 O146 2.455 . S
U126 O147 2.449 . S
O127 U126 2.471 . S
O127 C129 1.351 . S
O128 U126 2.458 . S
O128 C129 1.285 . S
C129 U126 2.983 . S
C129 O127 1.351 . S
C129 O128 1.285 . S
C129 C131 1.364 1_545 S
C130 C120 1.465 . S
C130 U126 2.847 . S
C130 O144 1.249 . S
C130 O145 1.202 . S
C131 C129 1.364 1_565 S
C131 C133 1.408 . S
C131 C136 1.342 . S
C132 C133 1.310 . S
C132 C135 1.461 . S
C132 H152 0.932 . S
C133 C131 1.408 . S
C133 C132 1.310 . S
C133 H153 0.930 . S
C134 C135 1.474 . S
C134 C136 1.285 . S
C134 H154 0.929 . S
C135 C132 1.461 . S
C135 C134 1.474 . S
C136 C131 1.342 . S
C136 C134 1.285 . S
C136 H155 0.930 . S
C137 C140 1.424 . S
C137 C142 1.245 . S
C137 C143 1.428 . S
C138 C141 1.260 . S
C138 C142 1.477 . S
C138 H156 0.932 . S
C139 C140 1.384 . S
C139 C141 1.479 . S
C139 H157 0.929 . S
C140 C137 1.424 . S
C140 C139 1.384 . S
C140 H158 0.928 . S
C141 C138 1.260 . S
C141 C139 1.479 . S
C142 C137 1.245 . S
C142 C138 1.477 . S
C142 H159 0.932 . S
C143 U126 2.882 . S
C143 C137 1.428 . S
C143 O146 1.301 . S
C143 O147 1.282 . S
O144 U126 2.441 . S
O144 C130 1.249 . S
O145 U126 2.420 . S
O145 C130 1.202 . S
O146 U126 2.455 . S
O146 C143 1.301 . S
O147 U126 2.449 . S
O147 C143 1.282 . S
H148 C121 0.931 . S
H149 C123 0.929 . S
H150 C124 0.907 1_565 S
H151 C125 0.931 . S
H152 C132 0.932 . S
H153 C133 0.930 . S
H154 C134 0.929 . S
H155 C136 0.930 . S
H156 C138 0.932 . S
H157 C139 0.929 . S
H158 C140 0.928 . S
H159 C142 0.932 . S
C160 C161 1.264 . S
C160 C165 1.479 . S
C160 C170 1.465 . S
C161 C160 1.264 . S
C161 C163 1.339 . S
C161 H188 0.931 . S
C162 C163 1.395 . S
C162 C164 1.320 . S
C163 C161 1.339 . S
C163 C162 1.395 . S
C163 H189 0.929 . S
C164 C162 1.320 . S
C164 C165 1.405 . S
C164 H190 0.930 . S
C165 C160 1.479 . S
C165 C164 1.405 . S
C165 H191 0.931 . S
U166 O167 2.454 . S
U166 O168 2.458 . S
U166 C169 2.984 . S
U166 C170 2.847 . S
U166 C183 2.882 . S
U166 O184 2.441 . S
U166 O185 2.420 . S
U166 O186 2.455 . S
U166 O187 2.449 . S
O167 U166 2.454 . S
O167 C169 1.353 . S
O168 U166 2.458 . S
O168 C169 1.286 . S
C169 U166 2.984 . S
C169 O167 1.353 . S
C169 O168 1.286 . S
C169 C171 1.363 . S
C170 C160 1.465 . S
C170 U166 2.847 . S
C170 O184 1.249 . S
C170 O185 1.202 . S
C171 C169 1.363 . S
C171 C173 1.408 . S
C171 C176 1.342 . S
C172 C173 1.310 . S
C172 C175 1.461 . S
C172 H192 0.932 . S
C173 C171 1.408 . S
C173 C172 1.310 . S
C173 H193 0.930 . S
C174 C175 1.474 . S
C174 C176 1.285 . S
C174 H194 0.929 . S
C175 C172 1.461 . S
C175 C174 1.474 . S
C176 C171 1.342 . S
C176 C174 1.285 . S
C176 H195 0.930 . S
C177 C180 1.424 . S
C177 C182 1.245 . S
C177 C183 1.428 . S
C178 C181 1.260 . S
C178 C182 1.477 . S
C178 H196 0.932 . S
C179 C180 1.384 . S
C179 C181 1.479 . S
C179 H197 0.929 . S
C180 C177 1.424 . S
C180 C179 1.384 . S
C180 H198 0.928 . S
C181 C178 1.260 . S
C181 C179 1.479 . S
C182 C177 1.245 . S
C182 C178 1.477 . S
C182 H199 0.932 . S
C183 U166 2.882 . S
C183 C177 1.428 . S
C183 O186 1.301 . S
C183 O187 1.282 . S
O184 U166 2.441 . S
O184 C170 1.249 . S
O185 U166 2.420 . S
O185 C170 1.202 . S
O186 U166 2.455 . S
O186 C183 1.301 . S
O187 U166 2.449 . S
O187 C183 1.282 . S
H188 C161 0.931 . S
H189 C163 0.929 . S
H190 C164 0.930 . S
H191 C165 0.931 . S
H192 C172 0.932 . S
H193 C173 0.930 . S
H194 C174 0.929 . S
H195 C176 0.930 . S
H196 C178 0.932 . S
H197 C179 0.929 . S
H198 C180 0.928 . S
H199 C182 0.932 . S
C200 C201 1.264 . S
C200 C205 1.479 . S
C200 C210 1.465 . S
C201 C200 1.264 . S
C201 C203 1.339 . S
C201 H228 0.931 . S
C202 C203 1.395 . S
C202 C204 1.320 . S
C203 C201 1.339 . S
C203 C202 1.395 . S
C203 H229 0.929 . S
C204 C202 1.320 . S
C204 C205 1.405 . S
C204 H230 0.907 1_554 S
C205 C200 1.479 . S
C205 C204 1.405 . S
C205 H231 0.931 . S
U206 O207 2.471 . S
U206 O208 2.458 . S
U206 C209 2.983 . S
U206 C210 2.847 . S
U206 C223 2.882 . S
U206 O224 2.441 . S
U206 O225 2.420 . S
U206 O226 2.455 . S
U206 O227 2.449 . S
O207 U206 2.471 . S
O207 C209 1.351 . S
O208 U206 2.458 . S
O208 C209 1.285 . S
C209 U206 2.983 . S
C209 O207 1.351 . S
C209 O208 1.285 . S
C209 C211 1.364 1_554 S
C210 C200 1.465 . S
C210 U206 2.847 . S
C210 O224 1.249 . S
C210 O225 1.202 . S
C211 C209 1.364 1_556 S
C211 C213 1.408 . S
C211 C216 1.342 . S
C212 C213 1.310 . S
C212 C215 1.461 . S
C212 H232 0.932 . S
C213 C211 1.408 . S
C213 C212 1.310 . S
C213 H233 0.930 . S
C214 C215 1.474 . S
C214 C216 1.285 . S
C214 H234 0.929 . S
C215 C212 1.461 . S
C215 C214 1.474 . S
C216 C211 1.342 . S
C216 C214 1.285 . S
C216 H235 0.930 . S
C217 C220 1.424 . S
C217 C222 1.245 . S
C217 C223 1.428 . S
C218 C221 1.260 . S
C218 C222 1.477 . S
C218 H236 0.932 . S
C219 C220 1.384 . S
C219 C221 1.479 . S
C219 H237 0.929 . S
C220 C217 1.424 . S
C220 C219 1.384 . S
C220 H238 0.928 . S
C221 C218 1.260 . S
C221 C219 1.479 . S
C222 C217 1.245 . S
C222 C218 1.477 . S
C222 H239 0.932 . S
C223 U206 2.882 . S
C223 C217 1.428 . S
C223 O226 1.301 . S
C223 O227 1.282 . S
O224 U206 2.441 . S
O224 C210 1.249 . S
O225 U206 2.420 . S
O225 C210 1.202 . S
O226 U206 2.455 . S
O226 C223 1.301 . S
O227 U206 2.449 . S
O227 C223 1.282 . S
H228 C201 0.931 . S
H229 C203 0.929 . S
H230 C204 0.907 1_556 S
H231 C205 0.931 . S
H232 C212 0.932 . S
H233 C213 0.930 . S
H234 C214 0.929 . S
H235 C216 0.930 . S
H236 C218 0.932 . S
H237 C219 0.929 . S
H238 C220 0.928 . S
H239 C222 0.932 . S
C240 C241 1.264 . S
C240 C245 1.479 . S
C240 C250 1.465 . S
C241 C240 1.264 . S
C241 C243 1.339 . S
C241 H268 0.931 . S
C242 C243 1.395 . S
C242 C244 1.320 . S
C243 C241 1.339 . S
C243 C242 1.395 . S
C243 H269 0.929 . S
C244 C242 1.320 . S
C244 C245 1.405 . S
C244 H270 0.930 . S
C245 C240 1.479 . S
C245 C244 1.405 . S
C245 H271 0.931 . S
U246 O247 2.454 . S
U246 O248 2.458 . S
U246 C249 2.984 . S
U246 C250 2.847 . S
U246 C263 2.882 . S
U246 O264 2.441 . S
U246 O265 2.420 . S
U246 O266 2.455 . S
U246 O267 2.449 . S
O247 U246 2.454 . S
O247 C249 1.353 . S
O248 U246 2.458 . S
O248 C249 1.286 . S
C249 U246 2.984 . S
C249 O247 1.353 . S
C249 O248 1.286 . S
C249 C251 1.363 . S
C250 C240 1.465 . S
C250 U246 2.847 . S
C250 O264 1.249 . S
C250 O265 1.202 . S
C251 C249 1.363 . S
C251 C253 1.408 . S
C251 C256 1.342 . S
C252 C253 1.310 . S
C252 C255 1.461 . S
C252 H272 0.932 . S
C253 C251 1.408 . S
C253 C252 1.310 . S
C253 H273 0.930 . S
C254 C255 1.474 . S
C254 C256 1.285 . S
C254 H274 0.929 . S
C255 C252 1.461 . S
C255 C254 1.474 . S
C256 C251 1.342 . S
C256 C254 1.285 . S
C256 H275 0.930 . S
C257 C260 1.424 . S
C257 C262 1.245 . S
C257 C263 1.428 . S
C258 C261 1.260 . S
C258 C262 1.477 . S
C258 H276 0.932 . S
C259 C260 1.384 . S
C259 C261 1.479 . S
C259 H277 0.929 . S
C260 C257 1.424 . S
C260 C259 1.384 . S
C260 H278 0.928 . S
C261 C258 1.260 . S
C261 C259 1.479 . S
C262 C257 1.245 . S
C262 C258 1.477 . S
C262 H279 0.932 . S
C263 U246 2.882 . S
C263 C257 1.428 . S
C263 O266 1.301 . S
C263 O267 1.282 . S
O264 U246 2.441 . S
O264 C250 1.249 . S
O265 U246 2.420 . S
O265 C250 1.202 . S
O266 U246 2.455 . S
O266 C263 1.301 . S
O267 U246 2.449 . S
O267 C263 1.282 . S
H268 C241 0.931 . S
H269 C243 0.929 . S
H270 C244 0.930 . S
H271 C245 0.931 . S
H272 C252 0.932 . S
H273 C253 0.930 . S
H274 C254 0.929 . S
H275 C256 0.930 . S
H276 C258 0.932 . S
H277 C259 0.929 . S
H278 C260 0.928 . S
H279 C262 0.932 . S
C280 C281 1.264 . S
C280 C285 1.472 1_556 S
C280 C290 1.478 . S
C281 C280 1.264 . S
C281 C283 1.332 1_556 S
C281 H308 0.938 . S
C282 C283 1.395 . S
C282 C284 1.320 . S
C283 C281 1.332 1_554 S
C283 C282 1.395 . S
C283 H309 0.929 . S
C284 C282 1.320 . S
C284 C285 1.405 . S
C284 H310 0.930 . S
C285 C280 1.472 1_554 S
C285 C284 1.405 . S
C285 H311 0.941 . S
U286 O287 2.454 . S
U286 O288 2.458 . S
U286 C289 2.984 . S
U286 C290 2.847 . S
U286 C303 2.882 . S
U286 O304 2.441 . S
U286 O305 2.420 . S
U286 O306 2.455 . S
U286 O307 2.449 . S
O287 U286 2.454 . S
O287 C289 1.353 . S
O288 U286 2.458 . S
O288 C289 1.286 . S
C289 U286 2.984 . S
C289 O287 1.353 . S
C289 O288 1.286 . S
C289 C291 1.363 . S
C290 C280 1.478 . S
C290 U286 2.847 . S
C290 O304 1.249 . S
C290 O305 1.202 . S
C291 C289 1.363 . S
C291 C293 1.408 . S
C291 C296 1.342 . S
C292 C293 1.310 . S
C292 C295 1.461 . S
C292 H312 0.932 . S
C293 C291 1.408 . S
C293 C292 1.310 . S
C293 H313 0.930 . S
C294 C295 1.474 . S
C294 C296 1.285 . S
C294 H314 0.929 . S
C295 C292 1.461 . S
C295 C294 1.474 . S
C296 C291 1.342 . S
C296 C294 1.285 . S
C296 H315 0.930 . S
C297 C300 1.424 . S
C297 C302 1.245 . S
C297 C303 1.428 . S
C298 C301 1.260 . S
C298 C302 1.477 . S
C298 H316 0.932 . S
C299 C300 1.384 . S
C299 C301 1.479 . S
C299 H317 0.929 . S
C300 C297 1.424 . S
C300 C299 1.384 . S
C300 H318 0.928 . S
C301 C298 1.260 . S
C301 C299 1.479 . S
C302 C297 1.245 . S
C302 C298 1.477 . S
C302 H319 0.932 . S
C303 U286 2.882 . S
C303 C297 1.428 . S
C303 O306 1.301 . S
C303 O307 1.282 . S
O304 U286 2.441 . S
O304 C290 1.249 . S
O305 U286 2.420 . S
O305 C290 1.202 . S
O306 U286 2.455 . S
O306 C303 1.301 . S
O307 U286 2.449 . S
O307 C303 1.282 . S
H308 C281 0.938 . S
H309 C283 0.929 . S
H310 C284 0.930 . S
H311 C285 0.941 . S
H312 C292 0.932 . S
H313 C293 0.930 . S
H314 C294 0.929 . S
H315 C296 0.930 . S
H316 C298 0.932 . S
H317 C299 0.929 . S
H318 C300 0.928 . S
H319 C302 0.932 . S
C320 C321 1.264 . S
C320 C325 1.479 . S
C320 C330 1.465 . S
C321 C320 1.264 . S
C321 C323 1.339 . S
C321 H348 0.931 . S
C322 C323 1.395 . S
C322 C324 1.320 . S
C323 C321 1.339 . S
C323 C322 1.395 . S
C323 H349 0.929 . S
C324 C322 1.320 . S
C324 C325 1.405 . S
C324 H350 0.930 . S
C325 C320 1.479 . S
C325 C324 1.405 . S
C325 H351 0.931 . S
U326 O327 2.454 . S
U326 O328 2.458 . S
U326 C329 2.984 . S
U326 C330 2.847 . S
U326 C343 2.882 . S
U326 O344 2.441 . S
U326 O345 2.420 . S
U326 O346 2.455 . S
U326 O347 2.449 . S
O327 U326 2.454 . S
O327 C329 1.353 . S
O328 U326 2.458 . S
O328 C329 1.286 . S
C329 U326 2.984 . S
C329 O327 1.353 . S
C329 O328 1.286 . S
C329 C331 1.363 . S
C330 C320 1.465 . S
C330 U326 2.847 . S
C330 O344 1.249 . S
C330 O345 1.202 . S
C331 C329 1.363 . S
C331 C333 1.408 . S
C331 C336 1.342 . S
C332 C333 1.310 . S
C332 C335 1.461 . S
C332 H352 0.932 . S
C333 C331 1.408 . S
C333 C332 1.310 . S
C333 H353 0.930 . S
C334 C335 1.474 . S
C334 C336 1.285 . S
C334 H354 0.929 . S
C335 C332 1.461 . S
C335 C334 1.474 . S
C336 C331 1.342 . S
C336 C334 1.285 . S
C336 H355 0.930 . S
C337 C340 1.424 . S
C337 C342 1.245 . S
C337 C343 1.428 . S
C338 C341 1.260 . S
C338 C342 1.477 . S
C338 H356 0.932 . S
C339 C340 1.384 . S
C339 C341 1.479 . S
C339 H357 0.929 . S
C340 C337 1.424 . S
C340 C339 1.384 . S
C340 H358 0.928 . S
C341 C338 1.260 . S
C341 C339 1.479 . S
C342 C337 1.245 . S
C342 C338 1.477 . S
C342 H359 0.932 . S
C343 U326 2.882 . S
C343 C337 1.428 . S
C343 O346 1.301 . S
C343 O347 1.282 . S
O344 U326 2.441 . S
O344 C330 1.249 . S
O345 U326 2.420 . S
O345 C330 1.202 . S
O346 U326 2.455 . S
O346 C343 1.301 . S
O347 U326 2.449 . S
O347 C343 1.282 . S
H348 C321 0.931 . S
H349 C323 0.929 . S
H350 C324 0.930 . S
H351 C325 0.931 . S
H352 C332 0.932 . S
H353 C333 0.930 . S
H354 C334 0.929 . S
H355 C336 0.930 . S
H356 C338 0.932 . S
H357 C339 0.929 . S
H358 C340 0.928 . S
H359 C342 0.932 . S
C360 C361 1.264 . S
C360 C365 1.479 . S
C360 C370 1.465 . S
C361 C360 1.264 . S
C361 C363 1.339 . S
C361 H388 0.931 . S
C362 C363 1.395 . S
C362 C364 1.320 . S
C363 C361 1.339 . S
C363 C362 1.395 . S
C363 H389 0.929 . S
C364 C362 1.320 . S
C364 C365 1.405 . S
C364 H390 0.907 1_455 S
C365 C360 1.479 . S
C365 C364 1.405 . S
C365 H391 0.931 . S
U366 O367 2.471 . S
U366 O368 2.458 . S
U366 C369 2.983 . S
U366 C370 2.847 . S
U366 C383 2.882 . S
U366 O384 2.441 . S
U366 O385 2.420 . S
U366 O386 2.455 . S
U366 O387 2.449 . S
O367 U366 2.471 . S
O367 C369 1.351 . S
O368 U366 2.458 . S
O368 C369 1.285 . S
C369 U366 2.983 . S
C369 O367 1.351 . S
C369 O368 1.285 . S
C369 C371 1.364 1_455 S
C370 C360 1.465 . S
C370 U366 2.847 . S
C370 O384 1.249 . S
C370 O385 1.202 . S
C371 C369 1.364 1_655 S
C371 C373 1.408 . S
C371 C376 1.342 . S
C372 C373 1.310 . S
C372 C375 1.461 . S
C372 H392 0.932 . S
C373 C371 1.408 . S
C373 C372 1.310 . S
C373 H393 0.930 . S
C374 C375 1.474 . S
C374 C376 1.285 . S
C374 H394 0.929 . S
C375 C372 1.461 . S
C375 C374 1.474 . S
C376 C371 1.342 . S
C376 C374 1.285 . S
C376 H395 0.930 . S
C377 C380 1.424 . S
C377 C382 1.245 . S
C377 C383 1.428 . S
C378 C381 1.260 . S
C378 C382 1.477 . S
C378 H396 0.932 . S
C379 C380 1.384 . S
C379 C381 1.479 . S
C379 H397 0.929 . S
C380 C377 1.424 . S
C380 C379 1.384 . S
C380 H398 0.928 . S
C381 C378 1.260 . S
C381 C379 1.479 . S
C382 C377 1.245 . S
C382 C378 1.477 . S
C382 H399 0.932 . S
C383 U366 2.882 . S
C383 C377 1.428 . S
C383 O386 1.301 . S
C383 O387 1.282 . S
O384 U366 2.441 . S
O384 C370 1.249 . S
O385 U366 2.420 . S
O385 C370 1.202 . S
O386 U366 2.455 . S
O386 C383 1.301 . S
O387 U366 2.449 . S
O387 C383 1.282 . S
H388 C361 0.931 . S
H389 C363 0.929 . S
H390 C364 0.907 1_655 S
H391 C365 0.931 . S
H392 C372 0.932 . S
H393 C373 0.930 . S
H394 C374 0.929 . S
H395 C376 0.930 . S
H396 C378 0.932 . S
H397 C379 0.929 . S
H398 C380 0.928 . S
H399 C382 0.932 . S
C400 C401 1.264 . S
C400 C405 1.479 . S
C400 C410 1.465 . S
C401 C400 1.264 . S
C401 C403 1.339 . S
C401 H428 0.931 . S
C402 C403 1.395 . S
C402 C404 1.320 . S
C403 C401 1.339 . S
C403 C402 1.395 . S
C403 H429 0.929 . S
C404 C402 1.320 . S
C404 C405 1.405 . S
C404 H430 0.930 . S
C405 C400 1.479 . S
C405 C404 1.405 . S
C405 H431 0.931 . S
U406 O407 2.454 . S
U406 O408 2.458 . S
U406 C409 2.984 . S
U406 C410 2.847 . S
U406 C423 2.882 . S
U406 O424 2.441 . S
U406 O425 2.420 . S
U406 O426 2.455 . S
U406 O427 2.449 . S
O407 U406 2.454 . S
O407 C409 1.353 . S
O408 U406 2.458 . S
O408 C409 1.286 . S
C409 U406 2.984 . S
C409 O407 1.353 . S
C409 O408 1.286 . S
C409 C411 1.363 . S
C410 C400 1.465 . S
C410 U406 2.847 . S
C410 O424 1.249 . S
C410 O425 1.202 . S
C411 C409 1.363 . S
C411 C413 1.408 . S
C411 C416 1.342 . S
C412 C413 1.310 . S
C412 C415 1.461 . S
C412 H432 0.932 . S
C413 C411 1.408 . S
C413 C412 1.310 . S
C413 H433 0.930 . S
C414 C415 1.474 . S
C414 C416 1.285 . S
C414 H434 0.929 . S
C415 C412 1.461 . S
C415 C414 1.474 . S
C416 C411 1.342 . S
C416 C414 1.285 . S
C416 H435 0.930 . S
C417 C420 1.424 . S
C417 C422 1.245 . S
C417 C423 1.428 . S
C418 C421 1.260 . S
C418 C422 1.477 . S
C418 H436 0.932 . S
C419 C420 1.384 . S
C419 C421 1.479 . S
C419 H437 0.929 . S
C420 C417 1.424 . S
C420 C419 1.384 . S
C420 H438 0.928 . S
C421 C418 1.260 . S
C421 C419 1.479 . S
C422 C417 1.245 . S
C422 C418 1.477 . S
C422 H439 0.932 . S
C423 U406 2.882 . S
C423 C417 1.428 . S
C423 O426 1.301 . S
C423 O427 1.282 . S
O424 U406 2.441 . S
O424 C410 1.249 . S
O425 U406 2.420 . S
O425 C410 1.202 . S
O426 U406 2.455 . S
O426 C423 1.301 . S
O427 U406 2.449 . S
O427 C423 1.282 . S
H428 C401 0.931 . S
H429 C403 0.929 . S
H430 C404 0.930 . S
H431 C405 0.931 . S
H432 C412 0.932 . S
H433 C413 0.930 . S
H434 C414 0.929 . S
H435 C416 0.930 . S
H436 C418 0.932 . S
H437 C419 0.929 . S
H438 C420 0.928 . S
H439 C422 0.932 . S
C440 C441 1.264 . S
C440 C445 1.472 1_655 S
C440 C450 1.478 . S
C441 C440 1.264 . S
C441 C443 1.332 1_655 S
C441 H468 0.938 . S
C442 C443 1.395 . S
C442 C444 1.320 . S
C443 C441 1.332 1_455 S
C443 C442 1.395 . S
C443 H469 0.929 . S
C444 C442 1.320 . S
C444 C445 1.405 . S
C444 H470 0.930 . S
C445 C440 1.472 1_455 S
C445 C444 1.405 . S
C445 H471 0.941 . S
U446 O447 2.454 . S
U446 O448 2.458 . S
U446 C449 2.984 . S
U446 C450 2.847 . S
U446 C463 2.882 . S
U446 O464 2.441 . S
U446 O465 2.420 . S
U446 O466 2.455 . S
U446 O467 2.449 . S
O447 U446 2.454 . S
O447 C449 1.353 . S
O448 U446 2.458 . S
O448 C449 1.286 . S
C449 U446 2.984 . S
C449 O447 1.353 . S
C449 O448 1.286 . S
C449 C451 1.363 . S
C450 C440 1.478 . S
C450 U446 2.847 . S
C450 O464 1.249 . S
C450 O465 1.202 . S
C451 C449 1.363 . S
C451 C453 1.408 . S
C451 C456 1.342 . S
C452 C453 1.310 . S
C452 C455 1.461 . S
C452 H472 0.932 . S
C453 C451 1.408 . S
C453 C452 1.310 . S
C453 H473 0.930 . S
C454 C455 1.474 . S
C454 C456 1.285 . S
C454 H474 0.929 . S
C455 C452 1.461 . S
C455 C454 1.474 . S
C456 C451 1.342 . S
C456 C454 1.285 . S
C456 H475 0.930 . S
C457 C460 1.424 . S
C457 C462 1.245 . S
C457 C463 1.428 . S
C458 C461 1.260 . S
C458 C462 1.477 . S
C458 H476 0.932 . S
C459 C460 1.384 . S
C459 C461 1.479 . S
C459 H477 0.929 . S
C460 C457 1.424 . S
C460 C459 1.384 . S
C460 H478 0.928 . S
C461 C458 1.260 . S
C461 C459 1.479 . S
C462 C457 1.245 . S
C462 C458 1.477 . S
C462 H479 0.932 . S
C463 U446 2.882 . S
C463 C457 1.428 . S
C463 O466 1.301 . S
C463 O467 1.282 . S
O464 U446 2.441 . S
O464 C450 1.249 . S
O465 U446 2.420 . S
O465 C450 1.202 . S
O466 U446 2.455 . S
O466 C463 1.301 . S
O467 U446 2.449 . S
O467 C463 1.282 . S
H468 C441 0.938 . S
H469 C443 0.929 . S
H470 C444 0.930 . S
H471 C445 0.941 . S
H472 C452 0.932 . S
H473 C453 0.930 . S
H474 C454 0.929 . S
H475 C456 0.930 . S
H476 C458 0.932 . S
H477 C459 0.929 . S
H478 C460 0.928 . S
H479 C462 0.932 . S
C480 C481 1.264 . S
C480 C485 1.479 . S
C480 C490 1.465 . S
C481 C480 1.264 . S
C481 C483 1.339 . S
C481 H508 0.931 . S
C482 C483 1.395 . S
C482 C484 1.320 . S
C483 C481 1.339 . S
C483 C482 1.395 . S
C483 H509 0.929 . S
C484 C482 1.320 . S
C484 C485 1.405 . S
C484 H510 0.930 . S
C485 C480 1.479 . S
C485 C484 1.405 . S
C485 H511 0.931 . S
U486 O487 2.454 . S
U486 O488 2.458 . S
U486 C489 2.984 . S
U486 C490 2.847 . S
U486 C503 2.882 . S
U486 O504 2.441 . S
U486 O505 2.420 . S
U486 O506 2.455 . S
U486 O507 2.449 . S
O487 U486 2.454 . S
O487 C489 1.353 . S
O488 U486 2.458 . S
O488 C489 1.286 . S
C489 U486 2.984 . S
C489 O487 1.353 . S
C489 O488 1.286 . S
C489 C491 1.363 . S
C490 C480 1.465 . S
C490 U486 2.847 . S
C490 O504 1.249 . S
C490 O505 1.202 . S
C491 C489 1.363 . S
C491 C493 1.408 . S
C491 C496 1.342 . S
C492 C493 1.310 . S
C492 C495 1.461 . S
C492 H512 0.932 . S
C493 C491 1.408 . S
C493 C492 1.310 . S
C493 H513 0.930 . S
C494 C495 1.474 . S
C494 C496 1.285 . S
C494 H514 0.929 . S
C495 C492 1.461 . S
C495 C494 1.474 . S
C496 C491 1.342 . S
C496 C494 1.285 . S
C496 H515 0.930 . S
C497 C500 1.424 . S
C497 C502 1.245 . S
C497 C503 1.428 . S
C498 C501 1.260 . S
C498 C502 1.477 . S
C498 H516 0.932 . S
C499 C500 1.384 . S
C499 C501 1.479 . S
C499 H517 0.929 . S
C500 C497 1.424 . S
C500 C499 1.384 . S
C500 H518 0.928 . S
C501 C498 1.260 . S
C501 C499 1.479 . S
C502 C497 1.245 . S
C502 C498 1.477 . S
C502 H519 0.932 . S
C503 U486 2.882 . S
C503 C497 1.428 . S
C503 O506 1.301 . S
C503 O507 1.282 . S
O504 U486 2.441 . S
O504 C490 1.249 . S
O505 U486 2.420 . S
O505 C490 1.202 . S
O506 U486 2.455 . S
O506 C503 1.301 . S
O507 U486 2.449 . S
O507 C503 1.282 . S
H508 C481 0.931 . S
H509 C483 0.929 . S
H510 C484 0.930 . S
H511 C485 0.931 . S
H512 C492 0.932 . S
H513 C493 0.930 . S
H514 C494 0.929 . S
H515 C496 0.930 . S
H516 C498 0.932 . S
H517 C499 0.929 . S
H518 C500 0.928 . S
H519 C502 0.932 . S
C520 C521 1.264 . S
C520 C525 1.479 . S
C520 C530 1.465 . S
C521 C520 1.264 . S
C521 C523 1.339 . S
C521 H548 0.931 . S
C522 C523 1.395 . S
C522 C524 1.320 . S
C523 C521 1.339 . S
C523 C522 1.395 . S
C523 H549 0.929 . S
C524 C522 1.320 . S
C524 C525 1.405 . S
C524 H550 0.930 . S
C525 C520 1.479 . S
C525 C524 1.405 . S
C525 H551 0.931 . S
U526 O527 2.454 . S
U526 O528 2.458 . S
U526 C529 2.984 . S
U526 C530 2.847 . S
U526 C543 2.882 . S
U526 O544 2.441 . S
U526 O545 2.420 . S
U526 O546 2.455 . S
U526 O547 2.449 . S
O527 U526 2.454 . S
O527 C529 1.353 . S
O528 U526 2.458 . S
O528 C529 1.286 . S
C529 U526 2.984 . S
C529 O527 1.353 . S
C529 O528 1.286 . S
C529 C531 1.363 . S
C530 C520 1.465 . S
C530 U526 2.847 . S
C530 O544 1.249 . S
C530 O545 1.202 . S
C531 C529 1.363 . S
C531 C533 1.408 . S
C531 C536 1.342 . S
C532 C533 1.310 . S
C532 C535 1.461 . S
C532 H552 0.932 . S
C533 C531 1.408 . S
C533 C532 1.310 . S
C533 H553 0.930 . S
C534 C535 1.474 . S
C534 C536 1.285 . S
C534 H554 0.929 . S
C535 C532 1.461 . S
C535 C534 1.474 . S
C536 C531 1.342 . S
C536 C534 1.285 . S
C536 H555 0.930 . S
C537 C540 1.424 . S
C537 C542 1.245 . S
C537 C543 1.428 . S
C538 C541 1.260 . S
C538 C542 1.477 . S
C538 H556 0.932 . S
C539 C540 1.384 . S
C539 C541 1.479 . S
C539 H557 0.929 . S
C540 C537 1.424 . S
C540 C539 1.384 . S
C540 H558 0.928 . S
C541 C538 1.260 . S
C541 C539 1.479 . S
C542 C537 1.245 . S
C542 C538 1.477 . S
C542 H559 0.932 . S
C543 U526 2.882 . S
C543 C537 1.428 . S
C543 O546 1.301 . S
C543 O547 1.282 . S
O544 U526 2.441 . S
O544 C530 1.249 . S
O545 U526 2.420 . S
O545 C530 1.202 . S
O546 U526 2.455 . S
O546 C543 1.301 . S
O547 U526 2.449 . S
O547 C543 1.282 . S
H548 C521 0.931 . S
H549 C523 0.929 . S
H550 C524 0.930 . S
H551 C525 0.931 . S
H552 C532 0.932 . S
H553 C533 0.930 . S
H554 C534 0.929 . S
H555 C536 0.930 . S
H556 C538 0.932 . S
H557 C539 0.929 . S
H558 C540 0.928 . S
H559 C542 0.932 . S
C560 C561 1.264 . S
C560 C565 1.479 . S
C560 C570 1.465 . S
C561 C560 1.264 . S
C561 C563 1.339 . S
C561 H588 0.931 . S
C562 C563 1.395 . S
C562 C564 1.320 . S
C563 C561 1.339 . S
C563 C562 1.395 . S
C563 H589 0.929 . S
C564 C562 1.320 . S
C564 C565 1.405 . S
C564 H590 0.930 . S
C565 C560 1.479 . S
C565 C564 1.405 . S
C565 H591 0.931 . S
U566 O567 2.454 . S
U566 O568 2.458 . S
U566 C569 2.984 . S
U566 C570 2.847 . S
U566 C583 2.882 . S
U566 O584 2.441 . S
U566 O585 2.420 . S
U566 O586 2.455 . S
U566 O587 2.449 . S
O567 U566 2.454 . S
O567 C569 1.353 . S
O568 U566 2.458 . S
O568 C569 1.286 . S
C569 U566 2.984 . S
C569 O567 1.353 . S
C569 O568 1.286 . S
C569 C571 1.361 1_565 S
C570 C560 1.465 . S
C570 U566 2.847 . S
C570 O584 1.249 . S
C570 O585 1.202 . S
C571 C569 1.361 1_545 S
C571 C573 1.408 1_545 S
C571 C576 1.345 . S
C572 C573 1.307 1_545 S
C572 C575 1.461 . S
C572 H592 0.932 . S
C573 C571 1.408 1_565 S
C573 C572 1.307 1_565 S
C573 H593 0.935 . S
C574 C575 1.474 . S
C574 C576 1.285 . S
C574 H594 0.929 . S
C575 C572 1.461 . S
C575 C574 1.474 . S
C576 C571 1.345 . S
C576 C574 1.285 . S
C576 H595 0.930 . S
C577 C580 1.424 . S
C577 C582 1.245 . S
C577 C583 1.428 . S
C578 C581 1.269 . S
C578 C582 1.471 1_545 S
C578 H596 0.933 . S
C579 C580 1.384 . S
C579 C581 1.479 1_565 S
C579 H597 0.929 . S
C580 C577 1.424 . S
C580 C579 1.384 . S
C580 H598 0.928 . S
C581 C578 1.269 . S
C581 C579 1.479 1_545 S
C582 C577 1.245 . S
C582 C578 1.471 1_565 S
C582 H599 0.939 . S
C583 U566 2.882 . S
C583 C577 1.428 . S
C583 O586 1.301 . S
C583 O587 1.282 . S
O584 U566 2.441 . S
O584 C570 1.249 . S
O585 U566 2.420 . S
O585 C570 1.202 . S
O586 U566 2.455 . S
O586 C583 1.301 . S
O587 U566 2.449 . S
O587 C583 1.282 . S
H588 C561 0.931 . S
H589 C563 0.929 . S
H590 C564 0.930 . S
H591 C565 0.931 . S
H592 C572 0.932 . S
H593 C573 0.935 . S
H594 C574 0.929 . S
H595 C576 0.930 . S
H596 C578 0.933 . S
H597 C579 0.929 . S
H598 C580 0.928 . S
H599 C582 0.939 . S
C600 C601 1.264 . S
C600 C605 1.479 . S
C600 C610 1.465 . S
C601 C600 1.264 . S
C601 C603 1.339 . S
C601 H628 0.931 . S
C602 C603 1.393 1_565 S
C602 C604 1.317 1_565 S
C603 C601 1.339 . S
C603 C602 1.393 1_545 S
C603 H629 0.929 . S
C604 C602 1.317 1_545 S
C604 C605 1.405 . S
C604 H630 0.930 1_545 S
C605 C600 1.479 . S
C605 C604 1.405 . S
C605 H631 0.931 . S
U606 O607 2.454 . S
U606 O608 2.458 . S
U606 C609 2.984 . S
U606 C610 2.847 . S
U606 C623 2.882 . S
U606 O624 2.441 . S
U606 O625 2.420 . S
U606 O626 2.455 . S
U606 O627 2.449 . S
O607 U606 2.454 . S
O607 C609 1.353 . S
O608 U606 2.458 . S
O608 C609 1.286 . S
C609 U606 2.984 . S
C609 O607 1.353 . S
C609 O608 1.286 . S
C609 C611 1.363 . S
C610 C600 1.465 . S
C610 U606 2.847 . S
C610 O624 1.249 . S
C610 O625 1.202 . S
C611 C609 1.363 . S
C611 C613 1.408 . S
C611 C616 1.342 . S
C612 C613 1.310 . S
C612 C615 1.461 . S
C612 H632 0.932 . S
C613 C611 1.408 . S
C613 C612 1.310 . S
C613 H633 0.930 . S
C614 C615 1.474 . S
C614 C616 1.285 . S
C614 H634 0.929 . S
C615 C612 1.461 . S
C615 C614 1.474 . S
C616 C611 1.342 . S
C616 C614 1.285 . S
C616 H635 0.930 . S
C617 C620 1.411 1_545 S
C617 C622 1.245 . S
C617 C623 1.428 . S
C618 C621 1.281 . S
C618 C622 1.464 1_565 S
C618 H636 0.926 1_565 S
C619 C620 1.393 . S
C619 C621 1.479 . S
C619 H637 0.929 . S
C620 C617 1.411 1_565 S
C620 C619 1.393 . S
C620 H638 0.934 . S
C621 C618 1.281 . S
C621 C619 1.479 . S
C622 C617 1.245 . S
C622 C618 1.464 1_545 S
C622 H639 0.932 . S
C623 U606 2.882 . S
C623 C617 1.428 . S
C623 O626 1.301 . S
C623 O627 1.282 . S
O624 U606 2.441 . S
O624 C610 1.249 . S
O625 U606 2.420 . S
O625 C610 1.202 . S
O626 U606 2.455 . S
O626 C623 1.301 . S
O627 U606 2.449 . S
O627 C623 1.282 . S
H628 C601 0.931 . S
H629 C603 0.929 . S
H630 C604 0.930 1_565 S
H631 C605 0.931 . S
H632 C612 0.932 . S
H633 C613 0.930 . S
H634 C614 0.929 . S
H635 C616 0.930 . S
H636 C618 0.926 1_545 S
H637 C619 0.929 . S
H638 C620 0.934 . S
H639 C622 0.932 . S
C640 C641 1.264 . S
C640 C645 1.479 . S
C640 C650 1.465 . S
C641 C640 1.264 . S
C641 C643 1.339 . S
C641 H668 0.931 . S
C642 C643 1.395 . S
C642 C644 1.320 . S
C643 C641 1.339 . S
C643 C642 1.395 . S
C643 H669 0.929 . S
C644 C642 1.320 . S
C644 C645 1.405 . S
C644 H670 0.930 . S
C645 C640 1.479 . S
C645 C644 1.405 . S
C645 H671 0.931 . S
U646 O647 2.454 . S
U646 O648 2.458 . S
U646 C649 2.984 . S
U646 C650 2.847 . S
U646 C663 2.882 . S
U646 O664 2.441 . S
U646 O665 2.420 . S
U646 O666 2.455 . S
U646 O667 2.449 . S
O647 U646 2.454 . S
O647 C649 1.353 . S
O648 U646 2.458 . S
O648 C649 1.286 . S
C649 U646 2.984 . S
C649 O647 1.353 . S
C649 O648 1.286 . S
C649 C651 1.363 . S
C650 C640 1.465 . S
C650 U646 2.847 . S
C650 O664 1.249 . S
C650 O665 1.202 . S
C651 C649 1.363 . S
C651 C653 1.408 . S
C651 C656 1.342 . S
C652 C653 1.310 . S
C652 C655 1.461 . S
C652 H672 0.932 . S
C653 C651 1.408 . S
C653 C652 1.310 . S
C653 H673 0.930 . S
C654 C655 1.474 . S
C654 C656 1.285 . S
C654 H674 0.929 . S
C655 C652 1.461 . S
C655 C654 1.474 . S
C656 C651 1.342 . S
C656 C654 1.285 . S
C656 H675 0.930 . S
C657 C660 1.424 . S
C657 C662 1.245 . S
C657 C663 1.428 . S
C658 C661 1.260 . S
C658 C662 1.477 . S
C658 H676 0.932 . S
C659 C660 1.384 . S
C659 C661 1.479 . S
C659 H677 0.929 . S
C660 C657 1.424 . S
C660 C659 1.384 . S
C660 H678 0.928 . S
C661 C658 1.260 . S
C661 C659 1.479 . S
C662 C657 1.245 . S
C662 C658 1.477 . S
C662 H679 0.932 . S
C663 U646 2.882 . S
C663 C657 1.428 . S
C663 O666 1.301 . S
C663 O667 1.282 . S
O664 U646 2.441 . S
O664 C650 1.249 . S
O665 U646 2.420 . S
O665 C650 1.202 . S
O666 U646 2.455 . S
O666 C663 1.301 . S
O667 U646 2.449 . S
O667 C663 1.282 . S
H668 C641 0.931 . S
H669 C643 0.929 . S
H670 C644 0.930 . S
H671 C645 0.931 . S
H672 C652 0.932 . S
H673 C653 0.930 . S
H674 C654 0.929 . S
H675 C656 0.930 . S
H676 C658 0.932 . S
H677 C659 0.929 . S
H678 C660 0.928 . S
H679 C662 0.932 . S
C680 C681 1.264 . S
C680 C685 1.479 . S
C680 C690 1.465 . S
C681 C680 1.264 . S
C681 C683 1.339 . S
C681 H708 0.931 . S
C682 C683 1.393 1_556 S
C682 C684 1.317 1_556 S
C683 C681 1.339 . S
C683 C682 1.393 1_554 S
C683 H709 0.929 . S
C684 C682 1.317 1_554 S
C684 C685 1.405 . S
C684 H710 0.930 1_554 S
C685 C680 1.479 . S
C685 C684 1.405 . S
C685 H711 0.931 . S
U686 O687 2.454 . S
U686 O688 2.458 . S
U686 C689 2.984 . S
U686 C690 2.847 . S
U686 C703 2.882 . S
U686 O704 2.441 . S
U686 O705 2.420 . S
U686 O706 2.455 . S
U686 O707 2.449 . S
O687 U686 2.454 . S
O687 C689 1.353 . S
O688 U686 2.458 . S
O688 C689 1.286 . S
C689 U686 2.984 . S
C689 O687 1.353 . S
C689 O688 1.286 . S
C689 C691 1.363 . S
C690 C680 1.465 . S
C690 U686 2.847 . S
C690 O704 1.249 . S
C690 O705 1.202 . S
C691 C689 1.363 . S
C691 C693 1.408 . S
C691 C696 1.342 . S
C692 C693 1.310 . S
C692 C695 1.461 . S
C692 H712 0.932 . S
C693 C691 1.408 . S
C693 C692 1.310 . S
C693 H713 0.930 . S
C694 C695 1.474 . S
C694 C696 1.285 . S
C694 H714 0.929 . S
C695 C692 1.461 . S
C695 C694 1.474 . S
C696 C691 1.342 . S
C696 C694 1.285 . S
C696 H715 0.930 . S
C697 C700 1.411 1_554 S
C697 C702 1.245 . S
C697 C703 1.428 . S
C698 C701 1.281 . S
C698 C702 1.464 1_556 S
C698 H716 0.926 1_556 S
C699 C700 1.393 . S
C699 C701 1.479 . S
C699 H717 0.929 . S
C700 C697 1.411 1_556 S
C700 C699 1.393 . S
C700 H718 0.934 . S
C701 C698 1.281 . S
C701 C699 1.479 . S
C702 C697 1.245 . S
C702 C698 1.464 1_554 S
C702 H719 0.932 . S
C703 U686 2.882 . S
C703 C697 1.428 . S
C703 O706 1.301 . S
C703 O707 1.282 . S
O704 U686 2.441 . S
O704 C690 1.249 . S
O705 U686 2.420 . S
O705 C690 1.202 . S
O706 U686 2.455 . S
O706 C703 1.301 . S
O707 U686 2.449 . S
O707 C703 1.282 . S
H708 C681 0.931 . S
H709 C683 0.929 . S
H710 C684 0.930 1_556 S
H711 C685 0.931 . S
H712 C692 0.932 . S
H713 C693 0.930 . S
H714 C694 0.929 . S
H715 C696 0.930 . S
H716 C698 0.926 1_554 S
H717 C699 0.929 . S
H718 C700 0.934 . S
H719 C702 0.932 . S
C720 C721 1.264 . S
C720 C725 1.479 . S
C720 C730 1.465 . S
C721 C720 1.264 . S
C721 C723 1.339 . S
C721 H748 0.931 . S
C722 C723 1.395 . S
C722 C724 1.320 . S
C723 C721 1.339 . S
C723 C722 1.395 . S
C723 H749 0.929 . S
C724 C722 1.320 . S
C724 C725 1.405 . S
C724 H750 0.930 . S
C725 C720 1.479 . S
C725 C724 1.405 . S
C725 H751 0.931 . S
U726 O727 2.454 . S
U726 O728 2.458 . S
U726 C729 2.984 . S
U726 C730 2.847 . S
U726 C743 2.882 . S
U726 O744 2.441 . S
U726 O745 2.420 . S
U726 O746 2.455 . S
U726 O747 2.449 . S
O727 U726 2.454 . S
O727 C729 1.353 . S
O728 U726 2.458 . S
O728 C729 1.286 . S
C729 U726 2.984 . S
C729 O727 1.353 . S
C729 O728 1.286 . S
C729 C731 1.363 . S
C730 C720 1.465 . S
C730 U726 2.847 . S
C730 O744 1.249 . S
C730 O745 1.202 . S
C731 C729 1.363 . S
C731 C733 1.408 . S
C731 C736 1.342 . S
C732 C733 1.310 . S
C732 C735 1.461 . S
C732 H752 0.932 . S
C733 C731 1.408 . S
C733 C732 1.310 . S
C733 H753 0.930 . S
C734 C735 1.474 . S
C734 C736 1.285 . S
C734 H754 0.929 . S
C735 C732 1.461 . S
C735 C734 1.474 . S
C736 C731 1.342 . S
C736 C734 1.285 . S
C736 H755 0.930 . S
C737 C740 1.424 . S
C737 C742 1.245 . S
C737 C743 1.428 . S
C738 C741 1.260 . S
C738 C742 1.477 . S
C738 H756 0.932 . S
C739 C740 1.384 . S
C739 C741 1.479 . S
C739 H757 0.929 . S
C740 C737 1.424 . S
C740 C739 1.384 . S
C740 H758 0.928 . S
C741 C738 1.260 . S
C741 C739 1.479 . S
C742 C737 1.245 . S
C742 C738 1.477 . S
C742 H759 0.932 . S
C743 U726 2.882 . S
C743 C737 1.428 . S
C743 O746 1.301 . S
C743 O747 1.282 . S
O744 U726 2.441 . S
O744 C730 1.249 . S
O745 U726 2.420 . S
O745 C730 1.202 . S
O746 U726 2.455 . S
O746 C743 1.301 . S
O747 U726 2.449 . S
O747 C743 1.282 . S
H748 C721 0.931 . S
H749 C723 0.929 . S
H750 C724 0.930 . S
H751 C725 0.931 . S
H752 C732 0.932 . S
H753 C733 0.930 . S
H754 C734 0.929 . S
H755 C736 0.930 . S
H756 C738 0.932 . S
H757 C739 0.929 . S
H758 C740 0.928 . S
H759 C742 0.932 . S
C760 C761 1.264 . S
C760 C765 1.479 . S
C760 C770 1.465 . S
C761 C760 1.264 . S
C761 C763 1.339 . S
C761 H788 0.931 . S
C762 C763 1.395 . S
C762 C764 1.320 . S
C763 C761 1.339 . S
C763 C762 1.395 . S
C763 H789 0.929 . S
C764 C762 1.320 . S
C764 C765 1.405 . S
C764 H790 0.930 . S
C765 C760 1.479 . S
C765 C764 1.405 . S
C765 H791 0.931 . S
U766 O767 2.454 . S
U766 O768 2.458 . S
U766 C769 2.984 . S
U766 C770 2.847 . S
U766 C783 2.882 . S
U766 O784 2.441 . S
U766 O785 2.420 . S
U766 O786 2.455 . S
U766 O787 2.449 . S
O767 U766 2.454 . S
O767 C769 1.353 . S
O768 U766 2.458 . S
O768 C769 1.286 . S
C769 U766 2.984 . S
C769 O767 1.353 . S
C769 O768 1.286 . S
C769 C771 1.361 1_556 S
C770 C760 1.465 . S
C770 U766 2.847 . S
C770 O784 1.249 . S
C770 O785 1.202 . S
C771 C769 1.361 1_554 S
C771 C773 1.408 1_554 S
C771 C776 1.345 . S
C772 C773 1.307 1_554 S
C772 C775 1.461 . S
C772 H792 0.932 . S
C773 C771 1.408 1_556 S
C773 C772 1.307 1_556 S
C773 H793 0.935 . S
C774 C775 1.474 . S
C774 C776 1.285 . S
C774 H794 0.929 . S
C775 C772 1.461 . S
C775 C774 1.474 . S
C776 C771 1.345 . S
C776 C774 1.285 . S
C776 H795 0.930 . S
C777 C780 1.424 . S
C777 C782 1.245 . S
C777 C783 1.428 . S
C778 C781 1.269 . S
C778 C782 1.471 1_554 S
C778 H796 0.933 . S
C779 C780 1.384 . S
C779 C781 1.479 1_556 S
C779 H797 0.929 . S
C780 C777 1.424 . S
C780 C779 1.384 . S
C780 H798 0.928 . S
C781 C778 1.269 . S
C781 C779 1.479 1_554 S
C782 C777 1.245 . S
C782 C778 1.471 1_556 S
C782 H799 0.939 . S
C783 U766 2.882 . S
C783 C777 1.428 . S
C783 O786 1.301 . S
C783 O787 1.282 . S
O784 U766 2.441 . S
O784 C770 1.249 . S
O785 U766 2.420 . S
O785 C770 1.202 . S
O786 U766 2.455 . S
O786 C783 1.301 . S
O787 U766 2.449 . S
O787 C783 1.282 . S
H788 C761 0.931 . S
H789 C763 0.929 . S
H790 C764 0.930 . S
H791 C765 0.931 . S
H792 C772 0.932 . S
H793 C773 0.935 . S
H794 C774 0.929 . S
H795 C776 0.930 . S
H796 C778 0.933 . S
H797 C779 0.929 . S
H798 C780 0.928 . S
H799 C782 0.939 . S
C800 C801 1.264 . S
C800 C805 1.479 . S
C800 C810 1.465 . S
C801 C800 1.264 . S
C801 C803 1.339 . S
C801 H828 0.931 . S
C802 C803 1.395 . S
C802 C804 1.320 . S
C803 C801 1.339 . S
C803 C802 1.395 . S
C803 H829 0.929 . S
C804 C802 1.320 . S
C804 C805 1.405 . S
C804 H830 0.930 . S
C805 C800 1.479 . S
C805 C804 1.405 . S
C805 H831 0.931 . S
U806 O807 2.454 . S
U806 O808 2.458 . S
U806 C809 2.984 . S
U806 C810 2.847 . S
U806 C823 2.882 . S
U806 O824 2.441 . S
U806 O825 2.420 . S
U806 O826 2.455 . S
U806 O827 2.449 . S
O807 U806 2.454 . S
O807 C809 1.353 . S
O808 U806 2.458 . S
O808 C809 1.286 . S
C809 U806 2.984 . S
C809 O807 1.353 . S
C809 O808 1.286 . S
C809 C811 1.363 . S
C810 C800 1.465 . S
C810 U806 2.847 . S
C810 O824 1.249 . S
C810 O825 1.202 . S
C811 C809 1.363 . S
C811 C813 1.408 . S
C811 C816 1.342 . S
C812 C813 1.310 . S
C812 C815 1.461 . S
C812 H832 0.932 . S
C813 C811 1.408 . S
C813 C812 1.310 . S
C813 H833 0.930 . S
C814 C815 1.474 . S
C814 C816 1.285 . S
C814 H834 0.929 . S
C815 C812 1.461 . S
C815 C814 1.474 . S
C816 C811 1.342 . S
C816 C814 1.285 . S
C816 H835 0.930 . S
C817 C820 1.424 . S
C817 C822 1.245 . S
C817 C823 1.428 . S
C818 C821 1.260 . S
C818 C822 1.477 . S
C818 H836 0.932 . S
C819 C820 1.384 . S
C819 C821 1.479 . S
C819 H837 0.929 . S
C820 C817 1.424 . S
C820 C819 1.384 . S
C820 H838 0.928 . S
C821 C818 1.260 . S
C821 C819 1.479 . S
C822 C817 1.245 . S
C822 C818 1.477 . S
C822 H839 0.932 . S
C823 U806 2.882 . S
C823 C817 1.428 . S
C823 O826 1.301 . S
C823 O827 1.282 . S
O824 U806 2.441 . S
O824 C810 1.249 . S
O825 U806 2.420 . S
O825 C810 1.202 . S
O826 U806 2.455 . S
O826 C823 1.301 . S
O827 U806 2.449 . S
O827 C823 1.282 . S
H828 C801 0.931 . S
H829 C803 0.929 . S
H830 C804 0.930 . S
H831 C805 0.931 . S
H832 C812 0.932 . S
H833 C813 0.930 . S
H834 C814 0.929 . S
H835 C816 0.930 . S
H836 C818 0.932 . S
H837 C819 0.929 . S
H838 C820 0.928 . S
H839 C822 0.932 . S
C840 C841 1.264 . S
C840 C845 1.479 . S
C840 C850 1.465 . S
C841 C840 1.264 . S
C841 C843 1.339 . S
C841 H868 0.931 . S
C842 C843 1.393 1_655 S
C842 C844 1.317 1_655 S
C843 C841 1.339 . S
C843 C842 1.393 1_455 S
C843 H869 0.929 . S
C844 C842 1.317 1_455 S
C844 C845 1.405 . S
C844 H870 0.930 1_455 S
C845 C840 1.479 . S
C845 C844 1.405 . S
C845 H871 0.931 . S
U846 O847 2.454 . S
U846 O848 2.458 . S
U846 C849 2.984 . S
U846 C850 2.847 . S
U846 C863 2.882 . S
U846 O864 2.441 . S
U846 O865 2.420 . S
U846 O866 2.455 . S
U846 O867 2.449 . S
O847 U846 2.454 . S
O847 C849 1.353 . S
O848 U846 2.458 . S
O848 C849 1.286 . S
C849 U846 2.984 . S
C849 O847 1.353 . S
C849 O848 1.286 . S
C849 C851 1.363 . S
C850 C840 1.465 . S
C850 U846 2.847 . S
C850 O864 1.249 . S
C850 O865 1.202 . S
C851 C849 1.363 . S
C851 C853 1.408 . S
C851 C856 1.342 . S
C852 C853 1.310 . S
C852 C855 1.461 . S
C852 H872 0.932 . S
C853 C851 1.408 . S
C853 C852 1.310 . S
C853 H873 0.930 . S
C854 C855 1.474 . S
C854 C856 1.285 . S
C854 H874 0.929 . S
C855 C852 1.461 . S
C855 C854 1.474 . S
C856 C851 1.342 . S
C856 C854 1.285 . S
C856 H875 0.930 . S
C857 C860 1.411 1_455 S
C857 C862 1.245 . S
C857 C863 1.428 . S
C858 C861 1.281 . S
C858 C862 1.464 1_655 S
C858 H876 0.926 1_655 S
C859 C860 1.393 . S
C859 C861 1.479 . S
C859 H877 0.929 . S
C860 C857 1.411 1_655 S
C860 C859 1.393 . S
C860 H878 0.934 . S
C861 C858 1.281 . S
C861 C859 1.479 . S
C862 C857 1.245 . S
C862 C858 1.464 1_455 S
C862 H879 0.932 . S
C863 U846 2.882 . S
C863 C857 1.428 . S
C863 O866 1.301 . S
C863 O867 1.282 . S
O864 U846 2.441 . S
O864 C850 1.249 . S
O865 U846 2.420 . S
O865 C850 1.202 . S
O866 U846 2.455 . S
O866 C863 1.301 . S
O867 U846 2.449 . S
O867 C863 1.282 . S
H868 C841 0.931 . S
H869 C843 0.929 . S
H870 C844 0.930 1_655 S
H871 C845 0.931 . S
H872 C852 0.932 . S
H873 C853 0.930 . S
H874 C854 0.929 . S
H875 C856 0.930 . S
H876 C858 0.926 1_455 S
H877 C859 0.929 . S
H878 C860 0.934 . S
H879 C862 0.932 . S
C880 C881 1.264 . S
C880 C885 1.479 . S
C880 C890 1.465 . S
C881 C880 1.264 . S
C881 C883 1.339 . S
C881 H908 0.931 . S
C882 C883 1.395 . S
C882 C884 1.320 . S
C883 C881 1.339 . S
C883 C882 1.395 . S
C883 H909 0.929 . S
C884 C882 1.320 . S
C884 C885 1.405 . S
C884 H910 0.930 . S
C885 C880 1.479 . S
C885 C884 1.405 . S
C885 H911 0.931 . S
U886 O887 2.454 . S
U886 O888 2.458 . S
U886 C889 2.984 . S
U886 C890 2.847 . S
U886 C903 2.882 . S
U886 O904 2.441 . S
U886 O905 2.420 . S
U886 O906 2.455 . S
U886 O907 2.449 . S
O887 U886 2.454 . S
O887 C889 1.353 . S
O888 U886 2.458 . S
O888 C889 1.286 . S
C889 U886 2.984 . S
C889 O887 1.353 . S
C889 O888 1.286 . S
C889 C891 1.363 . S
C890 C880 1.465 . S
C890 U886 2.847 . S
C890 O904 1.249 . S
C890 O905 1.202 . S
C891 C889 1.363 . S
C891 C893 1.408 . S
C891 C896 1.342 . S
C892 C893 1.310 . S
C892 C895 1.461 . S
C892 H912 0.932 . S
C893 C891 1.408 . S
C893 C892 1.310 . S
C893 H913 0.930 . S
C894 C895 1.474 . S
C894 C896 1.285 . S
C894 H914 0.929 . S
C895 C892 1.461 . S
C895 C894 1.474 . S
C896 C891 1.342 . S
C896 C894 1.285 . S
C896 H915 0.930 . S
C897 C900 1.424 . S
C897 C902 1.245 . S
C897 C903 1.428 . S
C898 C901 1.260 . S
C898 C902 1.477 . S
C898 H916 0.932 . S
C899 C900 1.384 . S
C899 C901 1.479 . S
C899 H917 0.929 . S
C900 C897 1.424 . S
C900 C899 1.384 . S
C900 H918 0.928 . S
C901 C898 1.260 . S
C901 C899 1.479 . S
C902 C897 1.245 . S
C902 C898 1.477 . S
C902 H919 0.932 . S
C903 U886 2.882 . S
C903 C897 1.428 . S
C903 O906 1.301 . S
C903 O907 1.282 . S
O904 U886 2.441 . S
O904 C890 1.249 . S
O905 U886 2.420 . S
O905 C890 1.202 . S
O906 U886 2.455 . S
O906 C903 1.301 . S
O907 U886 2.449 . S
O907 C903 1.282 . S
H908 C881 0.931 . S
H909 C883 0.929 . S
H910 C884 0.930 . S
H911 C885 0.931 . S
H912 C892 0.932 . S
H913 C893 0.930 . S
H914 C894 0.929 . S
H915 C896 0.930 . S
H916 C898 0.932 . S
H917 C899 0.929 . S
H918 C900 0.928 . S
H919 C902 0.932 . S
C920 C921 1.264 . S
C920 C925 1.479 . S
C920 C930 1.465 . S
C921 C920 1.264 . S
C921 C923 1.339 . S
C921 H948 0.931 . S
C922 C923 1.395 . S
C922 C924 1.320 . S
C923 C921 1.339 . S
C923 C922 1.395 . S
C923 H949 0.929 . S
C924 C922 1.320 . S
C924 C925 1.405 . S
C924 H950 0.930 . S
C925 C920 1.479 . S
C925 C924 1.405 . S
C925 H951 0.931 . S
U926 O927 2.454 . S
U926 O928 2.458 . S
U926 C929 2.984 . S
U926 C930 2.847 . S
U926 C943 2.882 . S
U926 O944 2.441 . S
U926 O945 2.420 . S
U926 O946 2.455 . S
U926 O947 2.449 . S
O927 U926 2.454 . S
O927 C929 1.353 . S
O928 U926 2.458 . S
O928 C929 1.286 . S
C929 U926 2.984 . S
C929 O927 1.353 . S
C929 O928 1.286 . S
C929 C931 1.361 1_655 S
C930 C920 1.465 . S
C930 U926 2.847 . S
C930 O944 1.249 . S
C930 O945 1.202 . S
C931 C929 1.361 1_455 S
C931 C933 1.408 1_455 S
C931 C936 1.345 . S
C932 C933 1.307 1_455 S
C932 C935 1.461 . S
C932 H952 0.932 . S
C933 C931 1.408 1_655 S
C933 C932 1.307 1_655 S
C933 H953 0.935 . S
C934 C935 1.474 . S
C934 C936 1.285 . S
C934 H954 0.929 . S
C935 C932 1.461 . S
C935 C934 1.474 . S
C936 C931 1.345 . S
C936 C934 1.285 . S
C936 H955 0.930 . S
C937 C940 1.424 . S
C937 C942 1.245 . S
C937 C943 1.428 . S
C938 C941 1.269 . S
C938 C942 1.471 1_455 S
C938 H956 0.933 . S
C939 C940 1.384 . S
C939 C941 1.479 1_655 S
C939 H957 0.929 . S
C940 C937 1.424 . S
C940 C939 1.384 . S
C940 H958 0.928 . S
C941 C938 1.269 . S
C941 C939 1.479 1_455 S
C942 C937 1.245 . S
C942 C938 1.471 1_655 S
C942 H959 0.939 . S
C943 U926 2.882 . S
C943 C937 1.428 . S
C943 O946 1.301 . S
C943 O947 1.282 . S
O944 U926 2.441 . S
O944 C930 1.249 . S
O945 U926 2.420 . S
O945 C930 1.202 . S
O946 U926 2.455 . S
O946 C943 1.301 . S
O947 U926 2.449 . S
O947 C943 1.282 . S
H948 C921 0.931 . S
H949 C923 0.929 . S
H950 C924 0.930 . S
H951 C925 0.931 . S
H952 C932 0.932 . S
H953 C933 0.935 . S
H954 C934 0.929 . S
H955 C936 0.930 . S
H956 C938 0.933 . S
H957 C939 0.929 . S
H958 C940 0.928 . S
H959 C942 0.939 . S
P960 O971 1.490 . S
P960 C974 1.812 . S
P960 C980 1.803 . S
P960 C986 1.819 . S
H961 C975 0.941 . S
H962 C976 0.939 . S
H963 C978 0.940 . S
H964 C979 0.940 . S
H965 C981 0.939 . S
H966 C982 0.942 . S
H967 C984 0.940 . S
H968 C985 0.939 . S
H969 C987 0.941 . S
H970 C991 0.939 . S
O971 P960 1.490 . S
H972 C988 0.939 . S
H973 C990 0.940 . S
C974 P960 1.812 . S
C974 C975 1.389 . S
C974 C979 1.391 . S
C975 H961 0.941 . S
C975 C974 1.389 . S
C975 C976 1.397 . S
C976 H962 0.939 . S
C976 C975 1.397 . S
C976 C977 1.378 . S
C977 C976 1.378 . S
C977 C978 1.378 . S
C978 H963 0.940 . S
C978 C977 1.378 . S
C978 C979 1.396 . S
C979 H964 0.940 . S
C979 C974 1.391 . S
C979 C978 1.396 . S
C980 P960 1.803 . S
C980 C981 1.378 . S
C980 C985 1.400 . S
C981 H965 0.939 . S
C981 C980 1.378 . S
C981 C982 1.361 . S
C982 H966 0.942 . S
C982 C981 1.361 . S
C982 C983 1.369 . S
C983 C982 1.369 . S
C983 C984 1.404 . S
C984 H967 0.940 . S
C984 C983 1.404 . S
C984 C985 1.389 . S
C985 H968 0.939 . S
C985 C980 1.400 . S
C985 C984 1.389 . S
C986 P960 1.819 . S
C986 C987 1.391 . S
C986 C991 1.391 . S
C987 H969 0.941 . S
C987 C986 1.391 . S
C987 C988 1.396 . S
C988 H972 0.939 . S
C988 C987 1.396 . S
C988 C989 1.397 . S
C989 C988 1.397 . S
C989 C990 1.385 . S
C990 H973 0.940 . S
C990 C989 1.385 . S
C990 C991 1.388 . S
C991 H970 0.939 . S
C991 C986 1.391 . S
C991 C990 1.388 . S
P992 O1003 1.490 . S
P992 C1006 1.812 . S
P992 C1012 1.803 . S
P992 C1018 1.819 1_554 S
H993 C1007 0.941 . S
H994 C1008 0.939 . S
H995 C1010 0.940 . S
H996 C1011 0.940 1_556 S
H997 C1013 0.939 . S
H998 C1014 0.942 . S
H999 C1016 0.940 . S
H1000 C1017 0.939 . S
H1001 C1019 0.941 1_554 S
H1002 C1023 0.939 . S
O1003 P992 1.490 . S
H1004 C1020 0.939 . S
H1005 C1022 0.940 . S
C1006 P992 1.812 . S
C1006 C1007 1.389 . S
C1006 C1011 1.391 . S
C1007 H993 0.941 . S
C1007 C1006 1.389 . S
C1007 C1008 1.397 . S
C1008 H994 0.939 . S
C1008 C1007 1.397 . S
C1008 C1009 1.378 . S
C1009 C1008 1.378 . S
C1009 C1010 1.378 . S
C1010 H995 0.940 . S
C1010 C1009 1.378 . S
C1010 C1011 1.396 . S
C1011 H996 0.940 1_554 S
C1011 C1006 1.391 . S
C1011 C1010 1.396 . S
C1012 P992 1.803 . S
C1012 C1013 1.378 . S
C1012 C1017 1.400 . S
C1013 H997 0.939 . S
C1013 C1012 1.378 . S
C1013 C1014 1.361 . S
C1014 H998 0.942 . S
C1014 C1013 1.361 . S
C1014 C1015 1.369 . S
C1015 C1014 1.369 . S
C1015 C1016 1.404 . S
C1016 H999 0.940 . S
C1016 C1015 1.404 . S
C1016 C1017 1.389 . S
C1017 H1000 0.939 . S
C1017 C1012 1.400 . S
C1017 C1016 1.389 . S
C1018 P992 1.819 1_556 S
C1018 C1019 1.391 . S
C1018 C1023 1.391 . S
C1019 H1001 0.941 1_556 S
C1019 C1018 1.391 . S
C1019 C1020 1.396 . S
C1020 H1004 0.939 . S
C1020 C1019 1.396 . S
C1020 C1021 1.397 . S
C1021 C1020 1.397 . S
C1021 C1022 1.385 . S
C1022 H1005 0.940 . S
C1022 C1021 1.385 . S
C1022 C1023 1.388 . S
C1023 H1002 0.939 . S
C1023 C1018 1.391 . S
C1023 C1022 1.388 . S
P1024 O1035 1.490 . S
P1024 C1038 1.812 . S
P1024 C1044 1.803 1_565 S
P1024 C1050 1.819 . S
H1025 C1039 0.941 . S
H1026 C1040 0.939 . S
H1027 C1042 0.940 . S
H1028 C1043 0.940 . S
H1029 C1045 0.939 . S
H1030 C1046 0.942 . S
H1031 C1048 0.940 . S
H1032 C1049 0.939 . S
H1033 C1051 0.941 . S
H1034 C1055 0.939 . S
O1035 P1024 1.490 . S
H1036 C1052 0.939 . S
H1037 C1054 0.940 . S
C1038 P1024 1.812 . S
C1038 C1039 1.389 . S
C1038 C1043 1.391 . S
C1039 H1025 0.941 . S
C1039 C1038 1.389 . S
C1039 C1040 1.397 . S
C1040 H1026 0.939 . S
C1040 C1039 1.397 . S
C1040 C1041 1.378 . S
C1041 C1040 1.378 . S
C1041 C1042 1.378 . S
C1042 H1027 0.940 . S
C1042 C1041 1.378 . S
C1042 C1043 1.396 . S
C1043 H1028 0.940 . S
C1043 C1038 1.391 . S
C1043 C1042 1.396 . S
C1044 P1024 1.803 1_545 S
C1044 C1045 1.378 . S
C1044 C1049 1.400 . S
C1045 H1029 0.939 . S
C1045 C1044 1.378 . S
C1045 C1046 1.361 . S
C1046 H1030 0.942 . S
C1046 C1045 1.361 . S
C1046 C1047 1.369 . S
C1047 C1046 1.369 . S
C1047 C1048 1.404 . S
C1048 H1031 0.940 . S
C1048 C1047 1.404 . S
C1048 C1049 1.389 . S
C1049 H1032 0.939 . S
C1049 C1044 1.400 . S
C1049 C1048 1.389 . S
C1050 P1024 1.819 . S
C1050 C1051 1.391 . S
C1050 C1055 1.391 1_565 S
C1051 H1033 0.941 . S
C1051 C1050 1.391 . S
C1051 C1052 1.396 . S
C1052 H1036 0.939 . S
C1052 C1051 1.396 . S
C1052 C1053 1.397 1_565 S
C1053 C1052 1.397 1_545 S
C1053 C1054 1.385 . S
C1054 H1037 0.940 . S
C1054 C1053 1.385 . S
C1054 C1055 1.388 . S
C1055 H1034 0.939 . S
C1055 C1050 1.391 1_545 S
C1055 C1054 1.388 . S
P1056 O1067 1.490 . S
P1056 C1070 1.812 . S
P1056 C1076 1.803 1_545 S
P1056 C1082 1.819 . S
H1057 C1071 0.941 . S
H1058 C1072 0.939 . S
H1059 C1074 0.940 . S
H1060 C1075 0.940 . S
H1061 C1077 0.939 . S
H1062 C1078 0.942 . S
H1063 C1080 0.940 . S
H1064 C1081 0.939 . S
H1065 C1083 0.941 . S
H1066 C1087 0.939 . S
O1067 P1056 1.490 . S
H1068 C1084 0.939 . S
H1069 C1086 0.940 . S
C1070 P1056 1.812 . S
C1070 C1071 1.389 . S
C1070 C1075 1.391 . S
C1071 H1057 0.941 . S
C1071 C1070 1.389 . S
C1071 C1072 1.397 . S
C1072 H1058 0.939 . S
C1072 C1071 1.397 . S
C1072 C1073 1.378 . S
C1073 C1072 1.378 . S
C1073 C1074 1.378 . S
C1074 H1059 0.940 . S
C1074 C1073 1.378 . S
C1074 C1075 1.396 . S
C1075 H1060 0.940 . S
C1075 C1070 1.391 . S
C1075 C1074 1.396 . S
C1076 P1056 1.803 1_565 S
C1076 C1077 1.378 . S
C1076 C1081 1.400 . S
C1077 H1061 0.939 . S
C1077 C1076 1.378 . S
C1077 C1078 1.361 . S
C1078 H1062 0.942 . S
C1078 C1077 1.361 . S
C1078 C1079 1.369 . S
C1079 C1078 1.369 . S
C1079 C1080 1.404 . S
C1080 H1063 0.940 . S
C1080 C1079 1.404 . S
C1080 C1081 1.389 . S
C1081 H1064 0.939 . S
C1081 C1076 1.400 . S
C1081 C1080 1.389 . S
C1082 P1056 1.819 . S
C1082 C1083 1.391 . S
C1082 C1087 1.391 1_545 S
C1083 H1065 0.941 . S
C1083 C1082 1.391 . S
C1083 C1084 1.396 . S
C1084 H1068 0.939 . S
C1084 C1083 1.396 . S
C1084 C1085 1.343 1_545 S
C1085 C1084 1.343 1_565 S
C1085 C1086 1.433 . S
C1086 H1069 0.940 . S
C1086 C1085 1.433 . S
C1086 C1087 1.388 . S
C1087 H1066 0.939 . S
C1087 C1082 1.391 1_565 S
C1087 C1086 1.388 . S
P1088 O1099 1.490 . S
P1088 C1102 1.812 . S
P1088 C1108 1.803 . S
P1088 C1114 1.819 . S
H1089 C1103 0.941 . S
H1090 C1104 0.939 . S
H1091 C1106 0.940 . S
H1092 C1107 0.940 . S
H1093 C1109 0.939 . S
H1094 C1110 0.942 . S
H1095 C1112 0.940 . S
H1096 C1113 0.939 . S
H1097 C1115 0.941 . S
H1098 C1119 0.939 . S
O1099 P1088 1.490 . S
H1100 C1116 0.939 . S
H1101 C1118 0.940 . S
C1102 P1088 1.812 . S
C1102 C1103 1.389 . S
C1102 C1107 1.391 . S
C1103 H1089 0.941 . S
C1103 C1102 1.389 . S
C1103 C1104 1.397 . S
C1104 H1090 0.939 . S
C1104 C1103 1.397 . S
C1104 C1105 1.378 . S
C1105 C1104 1.378 . S
C1105 C1106 1.378 . S
C1106 H1091 0.940 . S
C1106 C1105 1.378 . S
C1106 C1107 1.396 . S
C1107 H1092 0.940 . S
C1107 C1102 1.391 . S
C1107 C1106 1.396 . S
C1108 P1088 1.803 . S
C1108 C1109 1.378 . S
C1108 C1113 1.400 . S
C1109 H1093 0.939 . S
C1109 C1108 1.378 . S
C1109 C1110 1.361 . S
C1110 H1094 0.942 . S
C1110 C1109 1.361 . S
C1110 C1111 1.369 . S
C1111 C1110 1.369 . S
C1111 C1112 1.404 . S
C1112 H1095 0.940 . S
C1112 C1111 1.404 . S
C1112 C1113 1.389 . S
C1113 H1096 0.939 . S
C1113 C1108 1.400 . S
C1113 C1112 1.389 . S
C1114 P1088 1.819 . S
C1114 C1115 1.391 . S
C1114 C1119 1.391 . S
C1115 H1097 0.941 . S
C1115 C1114 1.391 . S
C1115 C1116 1.396 . S
C1116 H1100 0.939 . S
C1116 C1115 1.396 . S
C1116 C1117 1.397 . S
C1117 C1116 1.397 . S
C1117 C1118 1.385 . S
C1118 H1101 0.940 . S
C1118 C1117 1.385 . S
C1118 C1119 1.388 . S
C1119 H1098 0.939 . S
C1119 C1114 1.391 . S
C1119 C1118 1.388 . S
P1120 O1131 1.490 . S
P1120 C1134 1.812 . S
P1120 C1140 1.803 1_554 S
P1120 C1146 1.819 . S
H1121 C1135 0.941 . S
H1122 C1136 0.939 . S
H1123 C1138 0.940 . S
H1124 C1139 0.940 . S
H1125 C1141 0.939 . S
H1126 C1142 0.942 . S
H1127 C1144 0.940 . S
H1128 C1145 0.939 . S
H1129 C1147 0.941 . S
H1130 C1151 0.939 . S
O1131 P1120 1.490 . S
H1132 C1148 0.939 . S
H1133 C1150 0.940 . S
C1134 P1120 1.812 . S
C1134 C1135 1.389 . S
C1134 C1139 1.391 . S
C1135 H1121 0.941 . S
C1135 C1134 1.389 . S
C1135 C1136 1.397 . S
C1136 H1122 0.939 . S
C1136 C1135 1.397 . S
C1136 C1137 1.378 . S
C1137 C1136 1.378 . S
C1137 C1138 1.378 . S
C1138 H1123 0.940 . S
C1138 C1137 1.378 . S
C1138 C1139 1.396 . S
C1139 H1124 0.940 . S
C1139 C1134 1.391 . S
C1139 C1138 1.396 . S
C1140 P1120 1.803 1_556 S
C1140 C1141 1.378 . S
C1140 C1145 1.400 . S
C1141 H1125 0.939 . S
C1141 C1140 1.378 . S
C1141 C1142 1.361 . S
C1142 H1126 0.942 . S
C1142 C1141 1.361 . S
C1142 C1143 1.369 . S
C1143 C1142 1.369 . S
C1143 C1144 1.404 . S
C1144 H1127 0.940 . S
C1144 C1143 1.404 . S
C1144 C1145 1.389 . S
C1145 H1128 0.939 . S
C1145 C1140 1.400 . S
C1145 C1144 1.389 . S
C1146 P1120 1.819 . S
C1146 C1147 1.391 . S
C1146 C1151 1.391 1_554 S
C1147 H1129 0.941 . S
C1147 C1146 1.391 . S
C1147 C1148 1.396 . S
C1148 H1132 0.939 . S
C1148 C1147 1.396 . S
C1148 C1149 1.343 1_554 S
C1149 C1148 1.343 1_556 S
C1149 C1150 1.433 . S
C1150 H1133 0.940 . S
C1150 C1149 1.433 . S
C1150 C1151 1.388 . S
C1151 H1130 0.939 . S
C1151 C1146 1.391 1_556 S
C1151 C1150 1.388 . S
P1152 O1163 1.490 . S
P1152 C1166 1.812 . S
P1152 C1172 1.803 . S
P1152 C1178 1.819 1_455 S
H1153 C1167 0.941 . S
H1154 C1168 0.939 . S
H1155 C1170 0.940 . S
H1156 C1171 0.940 1_655 S
H1157 C1173 0.939 . S
H1158 C1174 0.942 . S
H1159 C1176 0.940 . S
H1160 C1177 0.939 . S
H1161 C1179 0.941 1_455 S
H1162 C1183 0.939 . S
O1163 P1152 1.490 . S
H1164 C1180 0.939 . S
H1165 C1182 0.940 . S
C1166 P1152 1.812 . S
C1166 C1167 1.389 . S
C1166 C1171 1.391 . S
C1167 H1153 0.941 . S
C1167 C1166 1.389 . S
C1167 C1168 1.397 . S
C1168 H1154 0.939 . S
C1168 C1167 1.397 . S
C1168 C1169 1.378 . S
C1169 C1168 1.378 . S
C1169 C1170 1.378 . S
C1170 H1155 0.940 . S
C1170 C1169 1.378 . S
C1170 C1171 1.396 . S
C1171 H1156 0.940 1_455 S
C1171 C1166 1.391 . S
C1171 C1170 1.396 . S
C1172 P1152 1.803 . S
C1172 C1173 1.378 . S
C1172 C1177 1.400 . S
C1173 H1157 0.939 . S
C1173 C1172 1.378 . S
C1173 C1174 1.361 . S
C1174 H1158 0.942 . S
C1174 C1173 1.361 . S
C1174 C1175 1.369 . S
C1175 C1174 1.369 . S
C1175 C1176 1.404 . S
C1176 H1159 0.940 . S
C1176 C1175 1.404 . S
C1176 C1177 1.389 . S
C1177 H1160 0.939 . S
C1177 C1172 1.400 . S
C1177 C1176 1.389 . S
C1178 P1152 1.819 1_655 S
C1178 C1179 1.391 . S
C1178 C1183 1.391 . S
C1179 H1161 0.941 1_655 S
C1179 C1178 1.391 . S
C1179 C1180 1.396 . S
C1180 H1164 0.939 . S
C1180 C1179 1.396 . S
C1180 C1181 1.397 . S
C1181 C1180 1.397 . S
C1181 C1182 1.385 . S
C1182 H1165 0.940 . S
C1182 C1181 1.385 . S
C1182 C1183 1.388 . S
C1183 H1162 0.939 . S
C1183 C1178 1.391 . S
C1183 C1182 1.388 . S
P1184 O1195 1.490 . S
P1184 C1198 1.812 . S
P1184 C1204 1.803 1_556 S
P1184 C1210 1.819 . S
H1185 C1199 0.941 . S
H1186 C1200 0.939 . S
H1187 C1202 0.940 . S
H1188 C1203 0.940 . S
H1189 C1205 0.939 . S
H1190 C1206 0.942 . S
H1191 C1208 0.940 . S
H1192 C1209 0.939 . S
H1193 C1211 0.941 . S
H1194 C1215 0.939 . S
O1195 P1184 1.490 . S
H1196 C1212 0.939 . S
H1197 C1214 0.940 . S
C1198 P1184 1.812 . S
C1198 C1199 1.389 . S
C1198 C1203 1.391 . S
C1199 H1185 0.941 . S
C1199 C1198 1.389 . S
C1199 C1200 1.397 . S
C1200 H1186 0.939 . S
C1200 C1199 1.397 . S
C1200 C1201 1.378 . S
C1201 C1200 1.378 . S
C1201 C1202 1.378 . S
C1202 H1187 0.940 . S
C1202 C1201 1.378 . S
C1202 C1203 1.396 . S
C1203 H1188 0.940 . S
C1203 C1198 1.391 . S
C1203 C1202 1.396 . S
C1204 P1184 1.803 1_554 S
C1204 C1205 1.378 . S
C1204 C1209 1.400 . S
C1205 H1189 0.939 . S
C1205 C1204 1.378 . S
C1205 C1206 1.361 . S
C1206 H1190 0.942 . S
C1206 C1205 1.361 . S
C1206 C1207 1.369 . S
C1207 C1206 1.369 . S
C1207 C1208 1.404 . S
C1208 H1191 0.940 . S
C1208 C1207 1.404 . S
C1208 C1209 1.389 . S
C1209 H1192 0.939 . S
C1209 C1204 1.400 . S
C1209 C1208 1.389 . S
C1210 P1184 1.819 . S
C1210 C1211 1.391 . S
C1210 C1215 1.391 1_556 S
C1211 H1193 0.941 . S
C1211 C1210 1.391 . S
C1211 C1212 1.396 . S
C1212 H1196 0.939 . S
C1212 C1211 1.396 . S
C1212 C1213 1.397 1_556 S
C1213 C1212 1.397 1_554 S
C1213 C1214 1.385 . S
C1214 H1197 0.940 . S
C1214 C1213 1.385 . S
C1214 C1215 1.388 . S
C1215 H1194 0.939 . S
C1215 C1210 1.391 1_554 S
C1215 C1214 1.388 . S
P1216 O1227 1.490 . S
P1216 C1230 1.812 . S
P1216 C1236 1.803 . S
P1216 C1242 1.819 . S
H1217 C1231 0.941 . S
H1218 C1232 0.939 . S
H1219 C1234 0.940 . S
H1220 C1235 0.940 . S
H1221 C1237 0.939 . S
H1222 C1238 0.942 . S
H1223 C1240 0.940 . S
H1224 C1241 0.939 . S
H1225 C1243 0.941 . S
H1226 C1247 0.939 . S
O1227 P1216 1.490 . S
H1228 C1244 0.939 . S
H1229 C1246 0.940 . S
C1230 P1216 1.812 . S
C1230 C1231 1.389 . S
C1230 C1235 1.391 . S
C1231 H1217 0.941 . S
C1231 C1230 1.389 . S
C1231 C1232 1.397 . S
C1232 H1218 0.939 . S
C1232 C1231 1.397 . S
C1232 C1233 1.378 . S
C1233 C1232 1.378 . S
C1233 C1234 1.378 . S
C1234 H1219 0.940 . S
C1234 C1233 1.378 . S
C1234 C1235 1.396 . S
C1235 H1220 0.940 . S
C1235 C1230 1.391 . S
C1235 C1234 1.396 . S
C1236 P1216 1.803 . S
C1236 C1237 1.378 . S
C1236 C1241 1.400 . S
C1237 H1221 0.939 . S
C1237 C1236 1.378 . S
C1237 C1238 1.361 . S
C1238 H1222 0.942 . S
C1238 C1237 1.361 . S
C1238 C1239 1.369 . S
C1239 C1238 1.369 . S
C1239 C1240 1.404 . S
C1240 H1223 0.940 . S
C1240 C1239 1.404 . S
C1240 C1241 1.389 . S
C1241 H1224 0.939 . S
C1241 C1236 1.400 . S
C1241 C1240 1.389 . S
C1242 P1216 1.819 . S
C1242 C1243 1.391 . S
C1242 C1247 1.391 . S
C1243 H1225 0.941 . S
C1243 C1242 1.391 . S
C1243 C1244 1.396 . S
C1244 H1228 0.939 . S
C1244 C1243 1.396 . S
C1244 C1245 1.397 . S
C1245 C1244 1.397 . S
C1245 C1246 1.385 . S
C1246 H1229 0.940 . S
C1246 C1245 1.385 . S
C1246 C1247 1.388 . S
C1247 H1226 0.939 . S
C1247 C1242 1.391 . S
C1247 C1246 1.388 . S
P1248 O1259 1.490 . S
P1248 C1262 1.812 . S
P1248 C1268 1.803 1_455 S
P1248 C1274 1.819 . S
H1249 C1263 0.941 . S
H1250 C1264 0.939 . S
H1251 C1266 0.940 . S
H1252 C1267 0.940 . S
H1253 C1269 0.939 . S
H1254 C1270 0.942 . S
H1255 C1272 0.940 . S
H1256 C1273 0.939 . S
H1257 C1275 0.941 . S
H1258 C1279 0.939 . S
O1259 P1248 1.490 . S
H1260 C1276 0.939 . S
H1261 C1278 0.940 . S
C1262 P1248 1.812 . S
C1262 C1263 1.389 . S
C1262 C1267 1.391 . S
C1263 H1249 0.941 . S
C1263 C1262 1.389 . S
C1263 C1264 1.397 . S
C1264 H1250 0.939 . S
C1264 C1263 1.397 . S
C1264 C1265 1.378 . S
C1265 C1264 1.378 . S
C1265 C1266 1.378 . S
C1266 H1251 0.940 . S
C1266 C1265 1.378 . S
C1266 C1267 1.396 . S
C1267 H1252 0.940 . S
C1267 C1262 1.391 . S
C1267 C1266 1.396 . S
C1268 P1248 1.803 1_655 S
C1268 C1269 1.378 . S
C1268 C1273 1.400 . S
C1269 H1253 0.939 . S
C1269 C1268 1.378 . S
C1269 C1270 1.361 . S
C1270 H1254 0.942 . S
C1270 C1269 1.361 . S
C1270 C1271 1.369 . S
C1271 C1270 1.369 . S
C1271 C1272 1.404 . S
C1272 H1255 0.940 . S
C1272 C1271 1.404 . S
C1272 C1273 1.389 . S
C1273 H1256 0.939 . S
C1273 C1268 1.400 . S
C1273 C1272 1.389 . S
C1274 P1248 1.819 . S
C1274 C1275 1.391 . S
C1274 C1279 1.391 1_455 S
C1275 H1257 0.941 . S
C1275 C1274 1.391 . S
C1275 C1276 1.396 . S
C1276 H1260 0.939 . S
C1276 C1275 1.396 . S
C1276 C1277 1.342 1_455 S
C1277 C1276 1.342 1_655 S
C1277 C1278 1.433 . S
C1278 H1261 0.940 . S
C1278 C1277 1.433 . S
C1278 C1279 1.388 . S
C1279 H1258 0.939 . S
C1279 C1274 1.391 1_655 S
C1279 C1278 1.388 . S
P1280 O1291 1.490 . S
P1280 C1294 1.812 . S
P1280 C1300 1.803 . S
P1280 C1306 1.819 1_545 S
H1281 C1295 0.941 . S
H1282 C1296 0.939 . S
H1283 C1298 0.940 . S
H1284 C1299 0.940 1_565 S
H1285 C1301 0.939 . S
H1286 C1302 0.942 . S
H1287 C1304 0.940 . S
H1288 C1305 0.939 . S
H1289 C1307 0.941 1_545 S
H1290 C1311 0.939 . S
O1291 P1280 1.490 . S
H1292 C1308 0.939 . S
H1293 C1310 0.940 . S
C1294 P1280 1.812 . S
C1294 C1295 1.389 . S
C1294 C1299 1.391 . S
C1295 H1281 0.941 . S
C1295 C1294 1.389 . S
C1295 C1296 1.397 . S
C1296 H1282 0.939 . S
C1296 C1295 1.397 . S
C1296 C1297 1.378 . S
C1297 C1296 1.378 . S
C1297 C1298 1.378 . S
C1298 H1283 0.940 . S
C1298 C1297 1.378 . S
C1298 C1299 1.396 . S
C1299 H1284 0.940 1_545 S
C1299 C1294 1.391 . S
C1299 C1298 1.396 . S
C1300 P1280 1.803 . S
C1300 C1301 1.378 . S
C1300 C1305 1.400 . S
C1301 H1285 0.939 . S
C1301 C1300 1.378 . S
C1301 C1302 1.361 . S
C1302 H1286 0.942 . S
C1302 C1301 1.361 . S
C1302 C1303 1.369 . S
C1303 C1302 1.369 . S
C1303 C1304 1.404 . S
C1304 H1287 0.940 . S
C1304 C1303 1.404 . S
C1304 C1305 1.389 . S
C1305 H1288 0.939 . S
C1305 C1300 1.400 . S
C1305 C1304 1.389 . S
C1306 P1280 1.819 1_565 S
C1306 C1307 1.391 . S
C1306 C1311 1.391 . S
C1307 H1289 0.941 1_565 S
C1307 C1306 1.391 . S
C1307 C1308 1.396 . S
C1308 H1292 0.939 . S
C1308 C1307 1.396 . S
C1308 C1309 1.397 . S
C1309 C1308 1.397 . S
C1309 C1310 1.385 . S
C1310 H1293 0.940 . S
C1310 C1309 1.385 . S
C1310 C1311 1.388 . S
C1311 H1290 0.939 . S
C1311 C1306 1.391 . S
C1311 C1310 1.388 . S
P1312 O1323 1.490 . S
P1312 C1326 1.812 . S
P1312 C1332 1.803 1_655 S
P1312 C1338 1.819 . S
H1313 C1327 0.941 . S
H1314 C1328 0.939 . S
H1315 C1330 0.940 . S
H1316 C1331 0.940 . S
H1317 C1333 0.939 . S
H1318 C1334 0.942 . S
H1319 C1336 0.940 . S
H1320 C1337 0.939 . S
H1321 C1339 0.941 . S
H1322 C1343 0.939 . S
O1323 P1312 1.490 . S
H1324 C1340 0.939 . S
H1325 C1342 0.940 . S
C1326 P1312 1.812 . S
C1326 C1327 1.389 . S
C1326 C1331 1.391 . S
C1327 H1313 0.941 . S
C1327 C1326 1.389 . S
C1327 C1328 1.397 . S
C1328 H1314 0.939 . S
C1328 C1327 1.397 . S
C1328 C1329 1.378 . S
C1329 C1328 1.378 . S
C1329 C1330 1.378 . S
C1330 H1315 0.940 . S
C1330 C1329 1.378 . S
C1330 C1331 1.396 . S
C1331 H1316 0.940 . S
C1331 C1326 1.391 . S
C1331 C1330 1.396 . S
C1332 P1312 1.803 1_455 S
C1332 C1333 1.378 . S
C1332 C1337 1.400 . S
C1333 H1317 0.939 . S
C1333 C1332 1.378 . S
C1333 C1334 1.361 . S
C1334 H1318 0.942 . S
C1334 C1333 1.361 . S
C1334 C1335 1.369 . S
C1335 C1334 1.369 . S
C1335 C1336 1.404 . S
C1336 H1319 0.940 . S
C1336 C1335 1.404 . S
C1336 C1337 1.389 . S
C1337 H1320 0.939 . S
C1337 C1332 1.400 . S
C1337 C1336 1.389 . S
C1338 P1312 1.819 . S
C1338 C1339 1.391 . S
C1338 C1343 1.391 1_655 S
C1339 H1321 0.941 . S
C1339 C1338 1.391 . S
C1339 C1340 1.396 . S
C1340 H1324 0.939 . S
C1340 C1339 1.396 . S
C1340 C1341 1.397 1_655 S
C1341 C1340 1.397 1_455 S
C1341 C1342 1.385 . S
C1342 H1325 0.940 . S
C1342 C1341 1.385 . S
C1342 C1343 1.388 . S
C1343 H1322 0.939 . S
C1343 C1338 1.391 1_455 S
C1343 C1342 1.388 . S
P1344 O1355 1.490 . S
P1344 C1358 1.812 . S
P1344 C1364 1.803 . S
P1344 C1370 1.819 . S
H1345 C1359 0.941 . S
H1346 C1360 0.939 . S
H1347 C1362 0.940 . S
H1348 C1363 0.940 . S
H1349 C1365 0.939 . S
H1350 C1366 0.942 . S
H1351 C1368 0.940 . S
H1352 C1369 0.939 . S
H1353 C1371 0.941 . S
H1354 C1375 0.939 . S
O1355 P1344 1.490 . S
H1356 C1372 0.939 . S
H1357 C1374 0.940 . S
C1358 P1344 1.812 . S
C1358 C1359 1.389 . S
C1358 C1363 1.391 . S
C1359 H1345 0.941 . S
C1359 C1358 1.389 . S
C1359 C1360 1.397 . S
C1360 H1346 0.939 . S
C1360 C1359 1.397 . S
C1360 C1361 1.378 . S
C1361 C1360 1.378 . S
C1361 C1362 1.378 . S
C1362 H1347 0.940 . S
C1362 C1361 1.378 . S
C1362 C1363 1.396 . S
C1363 H1348 0.940 . S
C1363 C1358 1.391 . S
C1363 C1362 1.396 . S
C1364 P1344 1.803 . S
C1364 C1365 1.378 . S
C1364 C1369 1.400 . S
C1365 H1349 0.939 . S
C1365 C1364 1.378 . S
C1365 C1366 1.361 . S
C1366 H1350 0.942 . S
C1366 C1365 1.361 . S
C1366 C1367 1.369 . S
C1367 C1366 1.369 . S
C1367 C1368 1.404 . S
C1368 H1351 0.940 . S
C1368 C1367 1.404 . S
C1368 C1369 1.389 . S
C1369 H1352 0.939 . S
C1369 C1364 1.400 . S
C1369 C1368 1.389 . S
C1370 P1344 1.819 . S
C1370 C1371 1.391 . S
C1370 C1375 1.391 . S
C1371 H1353 0.941 . S
C1371 C1370 1.391 . S
C1371 C1372 1.396 . S
C1372 H1356 0.939 . S
C1372 C1371 1.396 . S
C1372 C1373 1.397 . S
C1373 C1372 1.397 . S
C1373 C1374 1.385 . S
C1374 H1357 0.940 . S
C1374 C1373 1.385 . S
C1374 C1375 1.388 . S
C1375 H1354 0.939 . S
C1375 C1370 1.391 . S
C1375 C1374 1.388 . S
P1376 O1387 1.490 . S
P1376 C1390 1.812 1_554 S
P1376 C1396 1.803 . S
P1376 C1402 1.819 . S
H1377 C1391 0.941 . S
H1378 C1392 0.939 . S
H1379 C1394 0.940 . S
H1380 C1395 0.940 . S
H1381 C1397 0.939 . S
H1382 C1398 0.942 . S
H1383 C1400 0.940 . S
H1384 C1401 0.939 . S
H1385 C1403 0.941 . S
H1386 C1407 0.939 . S
O1387 P1376 1.490 . S
H1388 C1404 0.939 . S
H1389 C1406 0.940 . S
C1390 P1376 1.812 1_556 S
C1390 C1391 1.389 . S
C1390 C1395 1.391 . S
C1391 H1377 0.941 . S
C1391 C1390 1.389 . S
C1391 C1392 1.397 . S
C1392 H1378 0.939 . S
C1392 C1391 1.397 . S
C1392 C1393 1.378 . S
C1393 C1392 1.378 . S
C1393 C1394 1.378 . S
C1394 H1379 0.940 . S
C1394 C1393 1.378 . S
C1394 C1395 1.396 . S
C1395 H1380 0.940 . S
C1395 C1390 1.391 . S
C1395 C1394 1.396 . S
C1396 P1376 1.803 . S
C1396 C1397 1.378 . S
C1396 C1401 1.400 1_554 S
C1397 H1381 0.939 . S
C1397 C1396 1.378 . S
C1397 C1398 1.361 . S
C1398 H1382 0.942 . S
C1398 C1397 1.361 . S
C1398 C1399 1.369 1_554 S
C1399 C1398 1.369 1_556 S
C1399 C1400 1.404 . S
C1400 H1383 0.940 . S
C1400 C1399 1.404 . S
C1400 C1401 1.389 . S
C1401 H1384 0.939 . S
C1401 C1396 1.400 1_556 S
C1401 C1400 1.389 . S
C1402 P1376 1.819 . S
C1402 C1403 1.391 . S
C1402 C1407 1.391 . S
C1403 H1385 0.941 . S
C1403 C1402 1.391 . S
C1403 C1404 1.396 . S
C1404 H1388 0.939 . S
C1404 C1403 1.396 . S
C1404 C1405 1.397 . S
C1405 C1404 1.397 . S
C1405 C1406 1.385 . S
C1406 H1389 0.940 . S
C1406 C1405 1.385 . S
C1406 C1407 1.388 . S
C1407 H1386 0.939 . S
C1407 C1402 1.391 . S
C1407 C1406 1.388 . S
P1408 O1419 1.490 . S
P1408 C1422 1.812 1_565 S
P1408 C1428 1.803 . S
P1408 C1434 1.819 . S
H1409 C1423 0.941 . S
H1410 C1424 0.939 . S
H1411 C1426 0.940 . S
H1412 C1427 0.940 . S
H1413 C1429 0.939 . S
H1414 C1430 0.942 . S
H1415 C1432 0.940 . S
H1416 C1433 0.939 . S
H1417 C1435 0.932 1_545 S
H1418 C1439 0.939 . S
O1419 P1408 1.490 . S
H1420 C1436 0.969 . S
H1421 C1438 0.940 . S
C1422 P1408 1.812 1_545 S
C1422 C1423 1.389 . S
C1422 C1427 1.391 . S
C1423 H1409 0.941 . S
C1423 C1422 1.389 . S
C1423 C1424 1.397 . S
C1424 H1410 0.939 . S
C1424 C1423 1.397 . S
C1424 C1425 1.378 . S
C1425 C1424 1.378 . S
C1425 C1426 1.378 . S
C1426 H1411 0.940 . S
C1426 C1425 1.378 . S
C1426 C1427 1.396 . S
C1427 H1412 0.940 . S
C1427 C1422 1.391 . S
C1427 C1426 1.396 . S
C1428 P1408 1.803 . S
C1428 C1429 1.378 . S
C1428 C1433 1.400 . S
C1429 H1413 0.939 . S
C1429 C1428 1.378 . S
C1429 C1430 1.361 . S
C1430 H1414 0.942 . S
C1430 C1429 1.361 . S
C1430 C1431 1.369 . S
C1431 C1430 1.369 . S
C1431 C1432 1.404 . S
C1432 H1415 0.940 . S
C1432 C1431 1.404 . S
C1432 C1433 1.389 . S
C1433 H1416 0.939 . S
C1433 C1428 1.400 . S
C1433 C1432 1.389 . S
C1434 P1408 1.819 . S
C1434 C1435 1.405 . S
C1434 C1439 1.391 . S
C1435 H1417 0.932 1_565 S
C1435 C1434 1.405 . S
C1435 C1436 1.388 1_565 S
C1436 H1420 0.969 . S
C1436 C1435 1.388 1_545 S
C1436 C1437 1.377 1_545 S
C1437 C1436 1.377 1_565 S
C1437 C1438 1.385 . S
C1438 H1421 0.940 . S
C1438 C1437 1.385 . S
C1438 C1439 1.388 . S
C1439 H1418 0.939 . S
C1439 C1434 1.391 . S
C1439 C1438 1.388 . S
P1440 O1451 1.490 . S
P1440 C1454 1.812 1_545 S
P1440 C1460 1.803 . S
P1440 C1466 1.819 . S
H1441 C1455 0.941 . S
H1442 C1456 0.939 . S
H1443 C1458 0.940 . S
H1444 C1459 0.940 . S
H1445 C1461 0.939 . S
H1446 C1462 0.942 . S
H1447 C1464 0.940 . S
H1448 C1465 0.939 . S
H1449 C1467 0.941 . S
H1450 C1471 0.939 . S
O1451 P1440 1.490 . S
H1452 C1468 0.939 . S
H1453 C1470 0.940 . S
C1454 P1440 1.812 1_565 S
C1454 C1455 1.389 . S
C1454 C1459 1.391 . S
C1455 H1441 0.941 . S
C1455 C1454 1.389 . S
C1455 C1456 1.397 . S
C1456 H1442 0.939 . S
C1456 C1455 1.397 . S
C1456 C1457 1.378 . S
C1457 C1456 1.378 . S
C1457 C1458 1.378 . S
C1458 H1443 0.940 . S
C1458 C1457 1.378 . S
C1458 C1459 1.396 . S
C1459 H1444 0.940 . S
C1459 C1454 1.391 . S
C1459 C1458 1.396 . S
C1460 P1440 1.803 . S
C1460 C1461 1.378 . S
C1460 C1465 1.400 . S
C1461 H1445 0.939 . S
C1461 C1460 1.378 . S
C1461 C1462 1.361 . S
C1462 H1446 0.942 . S
C1462 C1461 1.361 . S
C1462 C1463 1.369 . S
C1463 C1462 1.369 . S
C1463 C1464 1.404 . S
C1464 H1447 0.940 . S
C1464 C1463 1.404 . S
C1464 C1465 1.389 . S
C1465 H1448 0.939 . S
C1465 C1460 1.400 . S
C1465 C1464 1.389 . S
C1466 P1440 1.819 . S
C1466 C1467 1.391 1_545 S
C1466 C1471 1.391 . S
C1467 H1449 0.941 . S
C1467 C1466 1.391 1_565 S
C1467 C1468 1.396 . S
C1468 H1452 0.939 . S
C1468 C1467 1.396 . S
C1468 C1469 1.397 1_565 S
C1469 C1468 1.397 1_545 S
C1469 C1470 1.385 . S
C1470 H1453 0.940 . S
C1470 C1469 1.385 . S
C1470 C1471 1.388 . S
C1471 H1450 0.939 . S
C1471 C1466 1.391 . S
C1471 C1470 1.388 . S
P1472 O1483 1.490 . S
P1472 C1486 1.812 . S
P1472 C1492 1.803 . S
P1472 C1498 1.819 . S
H1473 C1487 0.941 . S
H1474 C1488 0.939 . S
H1475 C1490 0.940 . S
H1476 C1491 0.940 . S
H1477 C1493 0.939 . S
H1478 C1494 0.942 . S
H1479 C1496 0.940 . S
H1480 C1497 0.939 . S
H1481 C1499 0.941 . S
H1482 C1503 0.939 . S
O1483 P1472 1.490 . S
H1484 C1500 0.939 . S
H1485 C1502 0.940 . S
C1486 P1472 1.812 . S
C1486 C1487 1.389 . S
C1486 C1491 1.391 . S
C1487 H1473 0.941 . S
C1487 C1486 1.389 . S
C1487 C1488 1.397 . S
C1488 H1474 0.939 . S
C1488 C1487 1.397 . S
C1488 C1489 1.378 . S
C1489 C1488 1.378 . S
C1489 C1490 1.378 . S
C1490 H1475 0.940 . S
C1490 C1489 1.378 . S
C1490 C1491 1.396 . S
C1491 H1476 0.940 . S
C1491 C1486 1.391 . S
C1491 C1490 1.396 . S
C1492 P1472 1.803 . S
C1492 C1493 1.378 . S
C1492 C1497 1.400 . S
C1493 H1477 0.939 . S
C1493 C1492 1.378 . S
C1493 C1494 1.361 . S
C1494 H1478 0.942 . S
C1494 C1493 1.361 . S
C1494 C1495 1.369 . S
C1495 C1494 1.369 . S
C1495 C1496 1.404 . S
C1496 H1479 0.940 . S
C1496 C1495 1.404 . S
C1496 C1497 1.389 . S
C1497 H1480 0.939 . S
C1497 C1492 1.400 . S
C1497 C1496 1.389 . S
C1498 P1472 1.819 . S
C1498 C1499 1.391 . S
C1498 C1503 1.391 . S
C1499 H1481 0.941 . S
C1499 C1498 1.391 . S
C1499 C1500 1.396 . S
C1500 H1484 0.939 . S
C1500 C1499 1.396 . S
C1500 C1501 1.397 . S
C1501 C1500 1.397 . S
C1501 C1502 1.385 . S
C1502 H1485 0.940 . S
C1502 C1501 1.385 . S
C1502 C1503 1.388 . S
C1503 H1482 0.939 . S
C1503 C1498 1.391 . S
C1503 C1502 1.388 . S
P1504 O1515 1.490 . S
P1504 C1518 1.812 1_554 S
P1504 C1524 1.803 . S
P1504 C1530 1.819 . S
H1505 C1519 0.941 . S
H1506 C1520 0.939 . S
H1507 C1522 0.940 . S
H1508 C1523 0.940 . S
H1509 C1525 0.939 . S
H1510 C1526 0.942 . S
H1511 C1528 0.940 . S
H1512 C1529 0.939 . S
H1513 C1531 0.941 . S
H1514 C1535 0.939 . S
O1515 P1504 1.490 . S
H1516 C1532 0.939 . S
H1517 C1534 0.940 . S
C1518 P1504 1.812 1_556 S
C1518 C1519 1.389 . S
C1518 C1523 1.391 . S
C1519 H1505 0.941 . S
C1519 C1518 1.389 . S
C1519 C1520 1.397 . S
C1520 H1506 0.939 . S
C1520 C1519 1.397 . S
C1520 C1521 1.378 . S
C1521 C1520 1.378 . S
C1521 C1522 1.378 . S
C1522 H1507 0.940 . S
C1522 C1521 1.378 . S
C1522 C1523 1.396 . S
C1523 H1508 0.940 . S
C1523 C1518 1.391 . S
C1523 C1522 1.396 . S
C1524 P1504 1.803 . S
C1524 C1525 1.378 . S
C1524 C1529 1.400 . S
C1525 H1509 0.939 . S
C1525 C1524 1.378 . S
C1525 C1526 1.361 . S
C1526 H1510 0.942 . S
C1526 C1525 1.361 . S
C1526 C1527 1.369 . S
C1527 C1526 1.369 . S
C1527 C1528 1.404 . S
C1528 H1511 0.940 . S
C1528 C1527 1.404 . S
C1528 C1529 1.389 . S
C1529 H1512 0.939 . S
C1529 C1524 1.400 . S
C1529 C1528 1.389 . S
C1530 P1504 1.819 . S
C1530 C1531 1.391 1_554 S
C1530 C1535 1.391 . S
C1531 H1513 0.941 . S
C1531 C1530 1.391 1_556 S
C1531 C1532 1.396 . S
C1532 H1516 0.939 . S
C1532 C1531 1.396 . S
C1532 C1533 1.397 1_556 S
C1533 C1532 1.397 1_554 S
C1533 C1534 1.385 . S
C1534 H1517 0.940 . S
C1534 C1533 1.385 . S
C1534 C1535 1.388 . S
C1535 H1514 0.939 . S
C1535 C1530 1.391 . S
C1535 C1534 1.388 . S
P1536 O1547 1.490 . S
P1536 C1550 1.812 1_455 S
P1536 C1556 1.803 . S
P1536 C1562 1.819 . S
H1537 C1551 0.941 . S
H1538 C1552 0.939 . S
H1539 C1554 0.940 . S
H1540 C1555 0.940 . S
H1541 C1557 0.939 . S
H1542 C1558 0.942 . S
H1543 C1560 0.940 . S
H1544 C1561 0.939 . S
H1545 C1563 0.941 . S
H1546 C1567 0.939 . S
O1547 P1536 1.490 . S
H1548 C1564 0.939 . S
H1549 C1566 0.940 . S
C1550 P1536 1.812 1_655 S
C1550 C1551 1.389 . S
C1550 C1555 1.391 . S
C1551 H1537 0.941 . S
C1551 C1550 1.389 . S
C1551 C1552 1.397 . S
C1552 H1538 0.939 . S
C1552 C1551 1.397 . S
C1552 C1553 1.378 . S
C1553 C1552 1.378 . S
C1553 C1554 1.378 . S
C1554 H1539 0.940 . S
C1554 C1553 1.378 . S
C1554 C1555 1.396 . S
C1555 H1540 0.940 . S
C1555 C1550 1.391 . S
C1555 C1554 1.396 . S
C1556 P1536 1.803 . S
C1556 C1557 1.378 . S
C1556 C1561 1.400 1_455 S
C1557 H1541 0.939 . S
C1557 C1556 1.378 . S
C1557 C1558 1.361 . S
C1558 H1542 0.942 . S
C1558 C1557 1.361 . S
C1558 C1559 1.369 1_455 S
C1559 C1558 1.369 1_655 S
C1559 C1560 1.404 . S
C1560 H1543 0.940 . S
C1560 C1559 1.404 . S
C1560 C1561 1.389 . S
C1561 H1544 0.939 . S
C1561 C1556 1.400 1_655 S
C1561 C1560 1.389 . S
C1562 P1536 1.819 . S
C1562 C1563 1.391 . S
C1562 C1567 1.391 . S
C1563 H1545 0.941 . S
C1563 C1562 1.391 . S
C1563 C1564 1.396 . S
C1564 H1548 0.939 . S
C1564 C1563 1.396 . S
C1564 C1565 1.397 . S
C1565 C1564 1.397 . S
C1565 C1566 1.385 . S
C1566 H1549 0.940 . S
C1566 C1565 1.385 . S
C1566 C1567 1.388 . S
C1567 H1546 0.939 . S
C1567 C1562 1.391 . S
C1567 C1566 1.388 . S
P1568 O1579 1.490 . S
P1568 C1582 1.812 1_556 S
P1568 C1588 1.803 . S
P1568 C1594 1.819 . S
H1569 C1583 0.941 . S
H1570 C1584 0.939 . S
H1571 C1586 0.940 . S
H1572 C1587 0.940 . S
H1573 C1589 0.939 . S
H1574 C1590 0.942 . S
H1575 C1592 0.940 . S
H1576 C1593 0.939 . S
H1577 C1595 0.931 1_554 S
H1578 C1599 0.939 . S
O1579 P1568 1.490 . S
H1580 C1596 0.968 . S
H1581 C1598 0.940 . S
C1582 P1568 1.812 1_554 S
C1582 C1583 1.389 . S
C1582 C1587 1.391 . S
C1583 H1569 0.941 . S
C1583 C1582 1.389 . S
C1583 C1584 1.397 . S
C1584 H1570 0.939 . S
C1584 C1583 1.397 . S
C1584 C1585 1.378 . S
C1585 C1584 1.378 . S
C1585 C1586 1.378 . S
C1586 H1571 0.940 . S
C1586 C1585 1.378 . S
C1586 C1587 1.396 . S
C1587 H1572 0.940 . S
C1587 C1582 1.391 . S
C1587 C1586 1.396 . S
C1588 P1568 1.803 . S
C1588 C1589 1.378 . S
C1588 C1593 1.400 . S
C1589 H1573 0.939 . S
C1589 C1588 1.378 . S
C1589 C1590 1.361 . S
C1590 H1574 0.942 . S
C1590 C1589 1.361 . S
C1590 C1591 1.369 . S
C1591 C1590 1.369 . S
C1591 C1592 1.404 . S
C1592 H1575 0.940 . S
C1592 C1591 1.404 . S
C1592 C1593 1.389 . S
C1593 H1576 0.939 . S
C1593 C1588 1.400 . S
C1593 C1592 1.389 . S
C1594 P1568 1.819 . S
C1594 C1595 1.406 . S
C1594 C1599 1.391 . S
C1595 H1577 0.931 1_556 S
C1595 C1594 1.406 . S
C1595 C1596 1.388 1_556 S
C1596 H1580 0.968 . S
C1596 C1595 1.388 1_554 S
C1596 C1597 1.378 1_554 S
C1597 C1596 1.378 1_556 S
C1597 C1598 1.385 . S
C1598 H1581 0.940 . S
C1598 C1597 1.385 . S
C1598 C1599 1.388 . S
C1599 H1578 0.939 . S
C1599 C1594 1.391 . S
C1599 C1598 1.388 . S
P1600 O1611 1.490 . S
P1600 C1614 1.812 . S
P1600 C1620 1.803 . S
P1600 C1626 1.819 . S
H1601 C1615 0.941 . S
H1602 C1616 0.939 . S
H1603 C1618 0.940 . S
H1604 C1619 0.940 . S
H1605 C1621 0.939 . S
H1606 C1622 0.942 . S
H1607 C1624 0.940 . S
H1608 C1625 0.939 . S
H1609 C1627 0.941 . S
H1610 C1631 0.939 . S
O1611 P1600 1.490 . S
H1612 C1628 0.939 . S
H1613 C1630 0.940 . S
C1614 P1600 1.812 . S
C1614 C1615 1.389 . S
C1614 C1619 1.391 . S
C1615 H1601 0.941 . S
C1615 C1614 1.389 . S
C1615 C1616 1.397 . S
C1616 H1602 0.939 . S
C1616 C1615 1.397 . S
C1616 C1617 1.378 . S
C1617 C1616 1.378 . S
C1617 C1618 1.378 . S
C1618 H1603 0.940 . S
C1618 C1617 1.378 . S
C1618 C1619 1.396 . S
C1619 H1604 0.940 . S
C1619 C1614 1.391 . S
C1619 C1618 1.396 . S
C1620 P1600 1.803 . S
C1620 C1621 1.378 . S
C1620 C1625 1.400 . S
C1621 H1605 0.939 . S
C1621 C1620 1.378 . S
C1621 C1622 1.361 . S
C1622 H1606 0.942 . S
C1622 C1621 1.361 . S
C1622 C1623 1.369 . S
C1623 C1622 1.369 . S
C1623 C1624 1.404 . S
C1624 H1607 0.940 . S
C1624 C1623 1.404 . S
C1624 C1625 1.389 . S
C1625 H1608 0.939 . S
C1625 C1620 1.400 . S
C1625 C1624 1.389 . S
C1626 P1600 1.819 . S
C1626 C1627 1.391 . S
C1626 C1631 1.391 . S
C1627 H1609 0.941 . S
C1627 C1626 1.391 . S
C1627 C1628 1.396 . S
C1628 H1612 0.939 . S
C1628 C1627 1.396 . S
C1628 C1629 1.397 . S
C1629 C1628 1.397 . S
C1629 C1630 1.385 . S
C1630 H1613 0.940 . S
C1630 C1629 1.385 . S
C1630 C1631 1.388 . S
C1631 H1610 0.939 . S
C1631 C1626 1.391 . S
C1631 C1630 1.388 . S
P1632 O1643 1.490 . S
P1632 C1646 1.812 1_455 S
P1632 C1652 1.803 . S
P1632 C1658 1.819 . S
H1633 C1647 0.941 . S
H1634 C1648 0.939 . S
H1635 C1650 0.940 . S
H1636 C1651 0.940 . S
H1637 C1653 0.939 . S
H1638 C1654 0.942 . S
H1639 C1656 0.940 . S
H1640 C1657 0.939 . S
H1641 C1659 0.941 . S
H1642 C1663 0.939 . S
O1643 P1632 1.490 . S
H1644 C1660 0.939 . S
H1645 C1662 0.940 . S
C1646 P1632 1.812 1_655 S
C1646 C1647 1.389 . S
C1646 C1651 1.391 . S
C1647 H1633 0.941 . S
C1647 C1646 1.389 . S
C1647 C1648 1.397 . S
C1648 H1634 0.939 . S
C1648 C1647 1.397 . S
C1648 C1649 1.378 . S
C1649 C1648 1.378 . S
C1649 C1650 1.378 . S
C1650 H1635 0.940 . S
C1650 C1649 1.378 . S
C1650 C1651 1.396 . S
C1651 H1636 0.940 . S
C1651 C1646 1.391 . S
C1651 C1650 1.396 . S
C1652 P1632 1.803 . S
C1652 C1653 1.378 . S
C1652 C1657 1.400 . S
C1653 H1637 0.939 . S
C1653 C1652 1.378 . S
C1653 C1654 1.361 . S
C1654 H1638 0.942 . S
C1654 C1653 1.361 . S
C1654 C1655 1.369 . S
C1655 C1654 1.369 . S
C1655 C1656 1.404 . S
C1656 H1639 0.940 . S
C1656 C1655 1.404 . S
C1656 C1657 1.389 . S
C1657 H1640 0.939 . S
C1657 C1652 1.400 . S
C1657 C1656 1.389 . S
C1658 P1632 1.819 . S
C1658 C1659 1.391 1_455 S
C1658 C1663 1.391 . S
C1659 H1641 0.941 . S
C1659 C1658 1.391 1_655 S
C1659 C1660 1.396 . S
C1660 H1644 0.939 . S
C1660 C1659 1.396 . S
C1660 C1661 1.397 1_655 S
C1661 C1660 1.397 1_455 S
C1661 C1662 1.385 . S
C1662 H1645 0.940 . S
C1662 C1661 1.385 . S
C1662 C1663 1.388 . S
C1663 H1642 0.939 . S
C1663 C1658 1.391 . S
C1663 C1662 1.388 . S
P1664 O1675 1.490 . S
P1664 C1678 1.812 1_545 S
P1664 C1684 1.803 . S
P1664 C1690 1.819 . S
H1665 C1679 0.941 . S
H1666 C1680 0.939 . S
H1667 C1682 0.940 . S
H1668 C1683 0.940 . S
H1669 C1685 0.939 . S
H1670 C1686 0.942 . S
H1671 C1688 0.940 . S
H1672 C1689 0.939 . S
H1673 C1691 0.941 . S
H1674 C1695 0.939 . S
O1675 P1664 1.490 . S
H1676 C1692 0.939 . S
H1677 C1694 0.940 . S
C1678 P1664 1.812 1_565 S
C1678 C1679 1.389 . S
C1678 C1683 1.391 . S
C1679 H1665 0.941 . S
C1679 C1678 1.389 . S
C1679 C1680 1.397 . S
C1680 H1666 0.939 . S
C1680 C1679 1.397 . S
C1680 C1681 1.378 . S
C1681 C1680 1.378 . S
C1681 C1682 1.378 . S
C1682 H1667 0.940 . S
C1682 C1681 1.378 . S
C1682 C1683 1.396 . S
C1683 H1668 0.940 . S
C1683 C1678 1.391 . S
C1683 C1682 1.396 . S
C1684 P1664 1.803 . S
C1684 C1685 1.378 . S
C1684 C1689 1.400 1_545 S
C1685 H1669 0.939 . S
C1685 C1684 1.378 . S
C1685 C1686 1.361 . S
C1686 H1670 0.942 . S
C1686 C1685 1.361 . S
C1686 C1687 1.369 1_545 S
C1687 C1686 1.369 1_565 S
C1687 C1688 1.404 . S
C1688 H1671 0.940 . S
C1688 C1687 1.404 . S
C1688 C1689 1.389 . S
C1689 H1672 0.939 . S
C1689 C1684 1.400 1_565 S
C1689 C1688 1.389 . S
C1690 P1664 1.819 . S
C1690 C1691 1.391 . S
C1690 C1695 1.391 . S
C1691 H1673 0.941 . S
C1691 C1690 1.391 . S
C1691 C1692 1.396 . S
C1692 H1676 0.939 . S
C1692 C1691 1.396 . S
C1692 C1693 1.397 . S
C1693 C1692 1.397 . S
C1693 C1694 1.385 . S
C1694 H1677 0.940 . S
C1694 C1693 1.385 . S
C1694 C1695 1.388 . S
C1695 H1674 0.939 . S
C1695 C1690 1.391 . S
C1695 C1694 1.388 . S
P1696 O1707 1.490 . S
P1696 C1710 1.812 1_655 S
P1696 C1716 1.803 . S
P1696 C1722 1.819 . S
H1697 C1711 0.941 . S
H1698 C1712 0.939 . S
H1699 C1714 0.940 . S
H1700 C1715 0.940 . S
H1701 C1717 0.939 . S
H1702 C1718 0.942 . S
H1703 C1720 0.940 . S
H1704 C1721 0.939 . S
H1705 C1723 0.931 1_455 S
H1706 C1727 0.939 . S
O1707 P1696 1.490 . S
H1708 C1724 0.969 . S
H1709 C1726 0.940 . S
C1710 P1696 1.812 1_455 S
C1710 C1711 1.389 . S
C1710 C1715 1.391 . S
C1711 H1697 0.941 . S
C1711 C1710 1.389 . S
C1711 C1712 1.397 . S
C1712 H1698 0.939 . S
C1712 C1711 1.397 . S
C1712 C1713 1.378 . S
C1713 C1712 1.378 . S
C1713 C1714 1.378 . S
C1714 H1699 0.940 . S
C1714 C1713 1.378 . S
C1714 C1715 1.396 . S
C1715 H1700 0.940 . S
C1715 C1710 1.391 . S
C1715 C1714 1.396 . S
C1716 P1696 1.803 . S
C1716 C1717 1.378 . S
C1716 C1721 1.400 . S
C1717 H1701 0.939 . S
C1717 C1716 1.378 . S
C1717 C1718 1.361 . S
C1718 H1702 0.942 . S
C1718 C1717 1.361 . S
C1718 C1719 1.369 . S
C1719 C1718 1.369 . S
C1719 C1720 1.404 . S
C1720 H1703 0.940 . S
C1720 C1719 1.404 . S
C1720 C1721 1.389 . S
C1721 H1704 0.939 . S
C1721 C1716 1.400 . S
C1721 C1720 1.389 . S
C1722 P1696 1.819 . S
C1722 C1723 1.406 . S
C1722 C1727 1.391 . S
C1723 H1705 0.931 1_655 S
C1723 C1722 1.406 . S
C1723 C1724 1.388 1_655 S
C1724 H1708 0.969 . S
C1724 C1723 1.388 1_455 S
C1724 C1725 1.378 1_455 S
C1725 C1724 1.378 1_655 S
C1725 C1726 1.385 . S
C1726 H1709 0.940 . S
C1726 C1725 1.385 . S
C1726 C1727 1.388 . S
C1727 H1706 0.939 . S
C1727 C1722 1.391 . S
C1727 C1726 1.388 . S
C1728 C1729 1.349 . S
C1728 C1730 1.327 . S
C1728 H1753 0.950 . S
C1729 C1728 1.349 . S
C1729 C1745 1.349 . S
C1730 C1728 1.327 . S
C1730 C1749 1.429 . S
C1730 H1754 0.950 . S
C1731 C1748 1.574 . S
C1731 C1750 1.368 . S
C1731 H1755 0.949 . S
H1732 C1736 0.949 . S
C1733 C1734 1.349 . S
C1733 C1735 1.327 . S
C1733 H1756 0.950 . S
C1734 C1733 1.349 . S
C1734 C1746 1.349 . S
C1735 C1733 1.327 . S
C1735 C1751 1.429 . S
C1735 H1757 0.950 . S
C1736 H1732 0.949 . S
C1736 C1744 1.574 . S
C1736 C1752 1.368 . S
H1737 C1745 0.950 . S
H1738 C1743 0.950 . S
H1739 C1744 0.949 . S
H1740 C1746 0.950 . S
H1741 C1747 0.950 . S
H1742 C1748 0.949 . S
C1743 H1738 0.950 . S
C1743 C1745 1.327 . S
C1743 C1749 1.429 . S
C1744 C1736 1.574 . S
C1744 H1739 0.949 . S
C1744 C1750 1.368 . S
C1745 C1729 1.349 . S
C1745 H1737 0.950 . S
C1745 C1743 1.327 . S
C1746 C1734 1.349 . S
C1746 H1740 0.950 . S
C1746 C1747 1.327 . S
C1747 H1741 0.950 . S
C1747 C1746 1.327 . S
C1747 C1751 1.429 . S
C1748 C1731 1.574 . S
C1748 H1742 0.949 . S
C1748 C1752 1.368 . S
C1749 C1730 1.429 . S
C1749 C1743 1.429 . S
C1749 C1750 1.523 . S
C1750 C1731 1.368 . S
C1750 C1744 1.368 . S
C1750 C1749 1.523 . S
C1751 C1735 1.429 . S
C1751 C1747 1.429 . S
C1751 C1752 1.523 . S
C1752 C1736 1.368 . S
C1752 C1748 1.368 . S
C1752 C1751 1.523 . S
H1753 C1728 0.950 . S
H1754 C1730 0.950 . S
H1755 C1731 0.949 . S
H1756 C1733 0.950 . S
H1757 C1735 0.950 . S
C1758 C1759 1.349 . S
C1758 C1760 1.327 . S
C1758 H1783 0.950 . S
C1759 C1758 1.349 . S
C1759 C1775 1.349 . S
C1760 C1758 1.327 . S
C1760 C1779 1.429 . S
C1760 H1784 0.950 . S
C1761 C1778 1.574 . S
C1761 C1780 1.368 . S
C1761 H1785 0.949 . S
H1762 C1766 0.949 . S
C1763 C1764 1.349 . S
C1763 C1765 1.327 . S
C1763 H1786 0.950 . S
C1764 C1763 1.349 . S
C1764 C1776 1.349 . S
C1765 C1763 1.327 . S
C1765 C1781 1.429 . S
C1765 H1787 0.950 . S
C1766 H1762 0.949 . S
C1766 C1774 1.574 . S
C1766 C1782 1.368 . S
H1767 C1775 0.950 . S
H1768 C1773 0.950 . S
H1769 C1774 0.949 . S
H1770 C1776 0.950 . S
H1771 C1777 0.950 . S
H1772 C1778 0.949 . S
C1773 H1768 0.950 . S
C1773 C1775 1.327 . S
C1773 C1779 1.429 . S
C1774 C1766 1.574 . S
C1774 H1769 0.949 . S
C1774 C1780 1.368 . S
C1775 C1759 1.349 . S
C1775 H1767 0.950 . S
C1775 C1773 1.327 . S
C1776 C1764 1.349 . S
C1776 H1770 0.950 . S
C1776 C1777 1.327 . S
C1777 H1771 0.950 . S
C1777 C1776 1.327 . S
C1777 C1781 1.429 . S
C1778 C1761 1.574 . S
C1778 H1772 0.949 . S
C1778 C1782 1.368 . S
C1779 C1760 1.429 . S
C1779 C1773 1.429 . S
C1779 C1780 1.523 . S
C1780 C1761 1.368 . S
C1780 C1774 1.368 . S
C1780 C1779 1.523 . S
C1781 C1765 1.429 . S
C1781 C1777 1.429 . S
C1781 C1782 1.523 . S
C1782 C1766 1.368 . S
C1782 C1778 1.368 . S
C1782 C1781 1.523 . S
H1783 C1758 0.950 . S
H1784 C1760 0.950 . S
H1785 C1761 0.949 . S
H1786 C1763 0.950 . S
H1787 C1765 0.950 . S
C1788 C1789 1.349 . S
C1788 C1790 1.327 . S
C1788 H1813 0.950 . S
C1789 C1788 1.349 . S
C1789 C1805 1.349 1_565 S
C1790 C1788 1.327 . S
C1790 C1809 1.429 . S
C1790 H1814 0.950 . S
C1791 C1808 1.574 . S
C1791 C1810 1.368 . S
C1791 H1815 0.949 1_565 S
H1792 C1796 0.949 . S
C1793 C1794 1.349 . S
C1793 C1795 1.327 . S
C1793 H1816 0.950 . S
C1794 C1793 1.349 . S
C1794 C1806 1.349 . S
C1795 C1793 1.327 . S
C1795 C1811 1.429 . S
C1795 H1817 0.950 . S
C1796 H1792 0.949 . S
C1796 C1804 1.574 . S
C1796 C1812 1.368 . S
H1797 C1805 0.950 . S
H1798 C1803 0.950 . S
H1799 C1804 0.949 . S
H1800 C1806 0.950 . S
H1801 C1807 0.950 . S
H1802 C1808 0.978 . S
C1803 H1798 0.950 . S
C1803 C1805 1.327 . S
C1803 C1809 1.429 1_545 S
C1804 C1796 1.574 . S
C1804 H1799 0.949 . S
C1804 C1810 1.368 . S
C1805 C1789 1.349 1_545 S
C1805 H1797 0.950 . S
C1805 C1803 1.327 . S
C1806 C1794 1.349 . S
C1806 H1800 0.950 . S
C1806 C1807 1.327 . S
C1807 H1801 0.950 . S
C1807 C1806 1.327 . S
C1807 C1811 1.429 . S
C1808 C1791 1.574 . S
C1808 H1802 0.978 . S
C1808 C1812 1.368 . S
C1809 C1790 1.429 . S
C1809 C1803 1.429 1_565 S
C1809 C1810 1.523 . S
C1810 C1791 1.368 . S
C1810 C1804 1.368 . S
C1810 C1809 1.523 . S
C1811 C1795 1.429 . S
C1811 C1807 1.429 . S
C1811 C1812 1.523 . S
C1812 C1796 1.368 . S
C1812 C1808 1.368 . S
C1812 C1811 1.523 . S
H1813 C1788 0.950 . S
H1814 C1790 0.950 . S
H1815 C1791 0.949 1_545 S
H1816 C1793 0.950 . S
H1817 C1795 0.950 . S
C1818 C1819 1.349 . S
C1818 C1820 1.327 . S
C1818 H1843 0.950 1_565 S
C1819 C1818 1.349 . S
C1819 C1835 1.349 . S
C1820 C1818 1.327 . S
C1820 C1839 1.429 . S
C1820 H1844 0.950 . S
C1821 C1838 1.574 . S
C1821 C1840 1.368 . S
C1821 H1845 0.949 . S
H1822 C1826 0.949 . S
C1823 C1824 1.349 . S
C1823 C1825 1.327 . S
C1823 H1846 0.950 . S
C1824 C1823 1.349 . S
C1824 C1836 1.349 . S
C1825 C1823 1.327 . S
C1825 C1841 1.429 . S
C1825 H1847 0.950 . S
C1826 H1822 0.949 . S
C1826 C1834 1.574 . S
C1826 C1842 1.368 . S
H1827 C1835 0.950 . S
H1828 C1833 0.950 . S
H1829 C1834 0.949 . S
H1830 C1836 0.950 . S
H1831 C1837 0.950 . S
H1832 C1838 0.949 . S
C1833 H1828 0.950 . S
C1833 C1835 1.327 . S
C1833 C1839 1.429 . S
C1834 C1826 1.574 . S
C1834 H1829 0.949 . S
C1834 C1840 1.368 . S
C1835 C1819 1.349 . S
C1835 H1827 0.950 . S
C1835 C1833 1.327 . S
C1836 C1824 1.349 . S
C1836 H1830 0.950 . S
C1836 C1837 1.327 . S
C1837 H1831 0.950 . S
C1837 C1836 1.327 . S
C1837 C1841 1.429 . S
C1838 C1821 1.574 . S
C1838 H1832 0.949 . S
C1838 C1842 1.368 . S
C1839 C1820 1.429 . S
C1839 C1833 1.429 . S
C1839 C1840 1.523 . S
C1840 C1821 1.368 . S
C1840 C1834 1.368 . S
C1840 C1839 1.523 . S
C1841 C1825 1.429 . S
C1841 C1837 1.429 . S
C1841 C1842 1.523 . S
C1842 C1826 1.368 . S
C1842 C1838 1.368 . S
C1842 C1841 1.523 . S
H1843 C1818 0.950 1_545 S
H1844 C1820 0.950 . S
H1845 C1821 0.949 . S
H1846 C1823 0.950 . S
H1847 C1825 0.950 . S
C1848 C1849 1.349 . S
C1848 C1850 1.327 . S
C1848 H1873 0.950 . S
C1849 C1848 1.349 . S
C1849 C1865 1.349 . S
C1850 C1848 1.327 . S
C1850 C1869 1.429 . S
C1850 H1874 0.950 . S
C1851 C1868 1.574 . S
C1851 C1870 1.368 . S
C1851 H1875 0.949 . S
H1852 C1856 0.949 . S
C1853 C1854 1.349 . S
C1853 C1855 1.327 . S
C1853 H1876 0.950 . S
C1854 C1853 1.349 . S
C1854 C1866 1.349 . S
C1855 C1853 1.327 . S
C1855 C1871 1.429 . S
C1855 H1877 0.950 . S
C1856 H1852 0.949 . S
C1856 C1864 1.574 . S
C1856 C1872 1.368 . S
H1857 C1865 0.950 . S
H1858 C1863 0.950 . S
H1859 C1864 0.949 . S
H1860 C1866 0.950 . S
H1861 C1867 0.950 . S
H1862 C1868 0.949 . S
C1863 H1858 0.950 . S
C1863 C1865 1.327 . S
C1863 C1869 1.429 . S
C1864 C1856 1.574 . S
C1864 H1859 0.949 . S
C1864 C1870 1.368 . S
C1865 C1849 1.349 . S
C1865 H1857 0.950 . S
C1865 C1863 1.327 . S
C1866 C1854 1.349 . S
C1866 H1860 0.950 . S
C1866 C1867 1.327 . S
C1867 H1861 0.950 . S
C1867 C1866 1.327 . S
C1867 C1871 1.429 . S
C1868 C1851 1.574 . S
C1868 H1862 0.949 . S
C1868 C1872 1.368 . S
C1869 C1850 1.429 . S
C1869 C1863 1.429 . S
C1869 C1870 1.523 . S
C1870 C1851 1.368 . S
C1870 C1864 1.368 . S
C1870 C1869 1.523 . S
C1871 C1855 1.429 . S
C1871 C1867 1.429 . S
C1871 C1872 1.523 . S
C1872 C1856 1.368 . S
C1872 C1868 1.368 . S
C1872 C1871 1.523 . S
H1873 C1848 0.950 . S
H1874 C1850 0.950 . S
H1875 C1851 0.949 . S
H1876 C1853 0.950 . S
H1877 C1855 0.950 . S
C1878 C1879 1.349 . S
C1878 C1880 1.327 . S
C1878 H1903 0.950 1_556 S
C1879 C1878 1.349 . S
C1879 C1895 1.349 . S
C1880 C1878 1.327 . S
C1880 C1899 1.429 . S
C1880 H1904 0.950 1_556 S
C1881 C1898 1.574 . S
C1881 C1900 1.368 . S
C1881 H1905 0.949 . S
H1882 C1886 0.949 . S
C1883 C1884 1.349 . S
C1883 C1885 1.327 . S
C1883 H1906 0.950 . S
C1884 C1883 1.349 . S
C1884 C1896 1.349 . S
C1885 C1883 1.327 . S
C1885 C1901 1.429 . S
C1885 H1907 0.950 . S
C1886 H1882 0.949 . S
C1886 C1894 1.574 . S
C1886 C1902 1.368 . S
H1887 C1895 0.950 . S
H1888 C1893 0.950 . S
H1889 C1894 0.902 1_554 S
H1890 C1896 0.950 . S
H1891 C1897 0.950 . S
H1892 C1898 0.949 . S
C1893 H1888 0.950 . S
C1893 C1895 1.327 . S
C1893 C1899 1.429 . S
C1894 C1886 1.574 . S
C1894 H1889 0.902 1_556 S
C1894 C1900 1.368 . S
C1895 C1879 1.349 . S
C1895 H1887 0.950 . S
C1895 C1893 1.327 . S
C1896 C1884 1.349 . S
C1896 H1890 0.950 . S
C1896 C1897 1.327 . S
C1897 H1891 0.950 . S
C1897 C1896 1.327 . S
C1897 C1901 1.429 . S
C1898 C1881 1.574 . S
C1898 H1892 0.949 . S
C1898 C1902 1.368 . S
C1899 C1880 1.429 . S
C1899 C1893 1.429 . S
C1899 C1900 1.523 . S
C1900 C1881 1.368 . S
C1900 C1894 1.368 . S
C1900 C1899 1.523 . S
C1901 C1885 1.429 . S
C1901 C1897 1.429 . S
C1901 C1902 1.523 . S
C1902 C1886 1.368 . S
C1902 C1898 1.368 . S
C1902 C1901 1.523 . S
H1903 C1878 0.950 1_554 S
H1904 C1880 0.950 1_554 S
H1905 C1881 0.949 . S
H1906 C1883 0.950 . S
H1907 C1885 0.950 . S
C1908 C1909 1.349 . S
C1908 C1910 1.327 . S
C1908 H1933 0.950 . S
C1909 C1908 1.349 . S
C1909 C1925 1.349 . S
C1910 C1908 1.327 . S
C1910 C1929 1.429 . S
C1910 H1934 0.950 . S
C1911 C1928 1.574 . S
C1911 C1930 1.368 . S
C1911 H1935 0.949 . S
H1912 C1916 0.949 . S
C1913 C1914 1.349 . S
C1913 C1915 1.327 . S
C1913 H1936 0.950 . S
C1914 C1913 1.349 . S
C1914 C1926 1.349 . S
C1915 C1913 1.327 . S
C1915 C1931 1.429 . S
C1915 H1937 0.950 . S
C1916 H1912 0.949 . S
C1916 C1924 1.574 . S
C1916 C1932 1.368 . S
H1917 C1925 0.950 . S
H1918 C1923 0.950 . S
H1919 C1924 0.949 . S
H1920 C1926 0.950 . S
H1921 C1927 0.950 . S
H1922 C1928 0.949 . S
C1923 H1918 0.950 . S
C1923 C1925 1.327 . S
C1923 C1929 1.429 . S
C1924 C1916 1.574 . S
C1924 H1919 0.949 . S
C1924 C1930 1.368 . S
C1925 C1909 1.349 . S
C1925 H1917 0.950 . S
C1925 C1923 1.327 . S
C1926 C1914 1.349 . S
C1926 H1920 0.950 . S
C1926 C1927 1.327 . S
C1927 H1921 0.950 . S
C1927 C1926 1.327 . S
C1927 C1931 1.429 . S
C1928 C1911 1.574 . S
C1928 H1922 0.949 . S
C1928 C1932 1.368 . S
C1929 C1910 1.429 . S
C1929 C1923 1.429 . S
C1929 C1930 1.523 . S
C1930 C1911 1.368 . S
C1930 C1924 1.368 . S
C1930 C1929 1.523 . S
C1931 C1915 1.429 . S
C1931 C1927 1.429 . S
C1931 C1932 1.523 . S
C1932 C1916 1.368 . S
C1932 C1928 1.368 . S
C1932 C1931 1.523 . S
H1933 C1908 0.950 . S
H1934 C1910 0.950 . S
H1935 C1911 0.949 . S
H1936 C1913 0.950 . S
H1937 C1915 0.950 . S
C1938 C1939 1.322 1_554 S
C1938 C1940 1.318 1_554 S
C1938 H1963 0.991 . S
C1939 C1938 1.322 1_556 S
C1939 C1955 1.349 . S
C1940 C1938 1.318 1_556 S
C1940 C1959 1.429 . S
C1940 H1964 0.950 1_556 S
C1941 C1958 1.574 . S
C1941 C1960 1.368 . S
C1941 H1965 0.949 . S
H1942 C1946 0.949 . S
C1943 C1944 1.349 . S
C1943 C1945 1.327 . S
C1943 H1966 0.950 . S
C1944 C1943 1.349 . S
C1944 C1956 1.349 . S
C1945 C1943 1.327 . S
C1945 C1961 1.429 . S
C1945 H1967 0.950 . S
C1946 H1942 0.949 . S
C1946 C1954 1.574 . S
C1946 C1962 1.368 . S
H1947 C1955 0.950 . S
H1948 C1953 0.950 . S
H1949 C1954 0.949 . S
H1950 C1956 0.950 . S
H1951 C1957 0.950 . S
H1952 C1958 0.949 . S
C1953 H1948 0.950 . S
C1953 C1955 1.327 . S
C1953 C1959 1.429 . S
C1954 C1946 1.574 . S
C1954 H1949 0.949 . S
C1954 C1960 1.368 . S
C1955 C1939 1.349 . S
C1955 H1947 0.950 . S
C1955 C1953 1.327 . S
C1956 C1944 1.349 . S
C1956 H1950 0.950 . S
C1956 C1957 1.327 . S
C1957 H1951 0.950 . S
C1957 C1956 1.327 . S
C1957 C1961 1.429 . S
C1958 C1941 1.574 . S
C1958 H1952 0.949 . S
C1958 C1962 1.368 . S
C1959 C1940 1.429 . S
C1959 C1953 1.429 . S
C1959 C1960 1.523 . S
C1960 C1941 1.368 . S
C1960 C1954 1.368 . S
C1960 C1959 1.523 . S
C1961 C1945 1.429 . S
C1961 C1957 1.429 . S
C1961 C1962 1.523 . S
C1962 C1946 1.368 . S
C1962 C1958 1.368 . S
C1962 C1961 1.523 . S
H1963 C1938 0.991 . S
H1964 C1940 0.950 1_554 S
H1965 C1941 0.949 . S
H1966 C1943 0.950 . S
H1967 C1945 0.950 . S
C1968 C1969 1.349 . S
C1968 C1970 1.327 . S
C1968 H1993 0.950 . S
C1969 C1968 1.349 . S
C1969 C1985 1.349 . S
C1970 C1968 1.327 . S
C1970 C1989 1.429 . S
C1970 H1994 0.950 . S
C1971 C1988 1.574 . S
C1971 C1990 1.368 . S
C1971 H1995 0.949 . S
H1972 C1976 0.949 . S
C1973 C1974 1.349 . S
C1973 C1975 1.327 . S
C1973 H1996 0.950 . S
C1974 C1973 1.349 . S
C1974 C1986 1.349 . S
C1975 C1973 1.327 . S
C1975 C1991 1.429 . S
C1975 H1997 0.950 . S
C1976 H1972 0.949 . S
C1976 C1984 1.574 . S
C1976 C1992 1.368 . S
H1977 C1985 0.950 . S
H1978 C1983 0.950 . S
H1979 C1984 0.949 . S
H1980 C1986 0.950 . S
H1981 C1987 0.950 . S
H1982 C1988 0.949 . S
C1983 H1978 0.950 . S
C1983 C1985 1.327 . S
C1983 C1989 1.429 . S
C1984 C1976 1.574 . S
C1984 H1979 0.949 . S
C1984 C1990 1.368 . S
C1985 C1969 1.349 . S
C1985 H1977 0.950 . S
C1985 C1983 1.327 . S
C1986 C1974 1.349 . S
C1986 H1980 0.950 . S
C1986 C1987 1.327 . S
C1987 H1981 0.950 . S
C1987 C1986 1.327 . S
C1987 C1991 1.429 . S
C1988 C1971 1.574 . S
C1988 H1982 0.949 . S
C1988 C1992 1.368 . S
C1989 C1970 1.429 . S
C1989 C1983 1.429 . S
C1989 C1990 1.523 . S
C1990 C1971 1.368 . S
C1990 C1984 1.368 . S
C1990 C1989 1.523 . S
C1991 C1975 1.429 . S
C1991 C1987 1.429 . S
C1991 C1992 1.523 . S
C1992 C1976 1.368 . S
C1992 C1988 1.368 . S
C1992 C1991 1.523 . S
H1993 C1968 0.950 . S
H1994 C1970 0.950 . S
H1995 C1971 0.949 . S
H1996 C1973 0.950 . S
H1997 C1975 0.950 . S
C1998 C1999 1.349 . S
C1998 C2000 1.327 . S
C1998 H2023 0.950 1_655 S
C1999 C1998 1.349 . S
C1999 C2015 1.349 . S
C2000 C1998 1.327 . S
C2000 C2019 1.429 . S
C2000 H2024 0.981 . S
C2001 C2018 1.574 . S
C2001 C2020 1.368 . S
C2001 H2025 0.949 . S
H2002 C2006 0.949 . S
C2003 C2004 1.349 . S
C2003 C2005 1.327 . S
C2003 H2026 0.950 . S
C2004 C2003 1.349 . S
C2004 C2016 1.349 . S
C2005 C2003 1.327 . S
C2005 C2021 1.429 . S
C2005 H2027 0.950 . S
C2006 H2002 0.949 . S
C2006 C2014 1.574 . S
C2006 C2022 1.368 . S
H2007 C2015 0.950 . S
H2008 C2013 0.950 . S
H2009 C2014 0.949 . S
H2010 C2016 0.950 . S
H2011 C2017 0.950 . S
H2012 C2018 0.949 . S
C2013 H2008 0.950 . S
C2013 C2015 1.327 . S
C2013 C2019 1.429 . S
C2014 C2006 1.574 . S
C2014 H2009 0.949 . S
C2014 C2020 1.368 . S
C2015 C1999 1.349 . S
C2015 H2007 0.950 . S
C2015 C2013 1.327 . S
C2016 C2004 1.349 . S
C2016 H2010 0.950 . S
C2016 C2017 1.327 . S
C2017 H2011 0.950 . S
C2017 C2016 1.327 . S
C2017 C2021 1.429 . S
C2018 C2001 1.574 . S
C2018 H2012 0.949 . S
C2018 C2022 1.368 . S
C2019 C2000 1.429 . S
C2019 C2013 1.429 . S
C2019 C2020 1.523 . S
C2020 C2001 1.368 . S
C2020 C2014 1.368 . S
C2020 C2019 1.523 . S
C2021 C2005 1.429 . S
C2021 C2017 1.429 . S
C2021 C2022 1.523 . S
C2022 C2006 1.368 . S
C2022 C2018 1.368 . S
C2022 C2021 1.523 . S
H2023 C1998 0.950 1_455 S
H2024 C2000 0.981 . S
H2025 C2001 0.949 . S
H2026 C2003 0.950 . S
H2027 C2005 0.950 . S
C2028 C2029 1.349 . S
C2028 C2030 1.327 . S
C2028 H2053 0.950 . S
C2029 C2028 1.349 . S
C2029 C2045 1.349 . S
C2030 C2028 1.327 . S
C2030 C2049 1.429 . S
C2030 H2054 0.950 . S
C2031 C2048 1.574 . S
C2031 C2050 1.368 . S
C2031 H2055 0.949 . S
H2032 C2036 0.949 . S
C2033 C2034 1.349 . S
C2033 C2035 1.327 . S
C2033 H2056 0.950 . S
C2034 C2033 1.349 . S
C2034 C2046 1.349 . S
C2035 C2033 1.327 . S
C2035 C2051 1.429 . S
C2035 H2057 0.950 . S
C2036 H2032 0.949 . S
C2036 C2044 1.574 . S
C2036 C2052 1.368 . S
H2037 C2045 0.950 . S
H2038 C2043 0.950 . S
H2039 C2044 0.949 . S
H2040 C2046 0.950 . S
H2041 C2047 0.950 . S
H2042 C2048 0.949 . S
C2043 H2038 0.950 . S
C2043 C2045 1.327 . S
C2043 C2049 1.429 . S
C2044 C2036 1.574 . S
C2044 H2039 0.949 . S
C2044 C2050 1.368 . S
C2045 C2029 1.349 . S
C2045 H2037 0.950 . S
C2045 C2043 1.327 . S
C2046 C2034 1.349 . S
C2046 H2040 0.950 . S
C2046 C2047 1.327 . S
C2047 H2041 0.950 . S
C2047 C2046 1.327 . S
C2047 C2051 1.429 . S
C2048 C2031 1.574 . S
C2048 H2042 0.949 . S
C2048 C2052 1.368 . S
C2049 C2030 1.429 . S
C2049 C2043 1.429 . S
C2049 C2050 1.523 . S
C2050 C2031 1.368 . S
C2050 C2044 1.368 . S
C2050 C2049 1.523 . S
C2051 C2035 1.429 . S
C2051 C2047 1.429 . S
C2051 C2052 1.523 . S
C2052 C2036 1.368 . S
C2052 C2048 1.368 . S
C2052 C2051 1.523 . S
H2053 C2028 0.950 . S
H2054 C2030 0.950 . S
H2055 C2031 0.949 . S
H2056 C2033 0.950 . S
H2057 C2035 0.950 . S
C2058 C2059 1.349 . S
C2058 C2060 1.327 . S
C2058 H2083 0.950 . S
C2059 C2058 1.349 . S
C2059 C2075 1.349 . S
C2060 C2058 1.327 . S
C2060 C2079 1.429 . S
C2060 H2084 0.950 . S
C2061 C2078 1.574 . S
C2061 C2080 1.368 . S
C2061 H2085 0.949 . S
H2062 C2066 0.949 . S
C2063 C2064 1.349 . S
C2063 C2065 1.327 . S
C2063 H2086 0.950 . S
C2064 C2063 1.349 . S
C2064 C2076 1.349 . S
C2065 C2063 1.327 . S
C2065 C2081 1.429 . S
C2065 H2087 0.950 . S
C2066 H2062 0.949 . S
C2066 C2074 1.574 . S
C2066 C2082 1.368 . S
H2067 C2075 0.950 1_455 S
H2068 C2073 0.950 . S
H2069 C2074 0.949 . S
H2070 C2076 0.950 . S
H2071 C2077 0.950 . S
H2072 C2078 0.949 . S
C2073 H2068 0.950 . S
C2073 C2075 1.327 . S
C2073 C2079 1.429 . S
C2074 C2066 1.574 . S
C2074 H2069 0.949 . S
C2074 C2080 1.368 . S
C2075 C2059 1.349 . S
C2075 H2067 0.950 1_655 S
C2075 C2073 1.327 . S
C2076 C2064 1.349 . S
C2076 H2070 0.950 . S
C2076 C2077 1.327 . S
C2077 H2071 0.950 . S
C2077 C2076 1.327 . S
C2077 C2081 1.429 . S
C2078 C2061 1.574 . S
C2078 H2072 0.949 . S
C2078 C2082 1.368 . S
C2079 C2060 1.429 . S
C2079 C2073 1.429 . S
C2079 C2080 1.523 . S
C2080 C2061 1.368 . S
C2080 C2074 1.368 . S
C2080 C2079 1.523 . S
C2081 C2065 1.429 . S
C2081 C2077 1.429 . S
C2081 C2082 1.523 . S
C2082 C2066 1.368 . S
C2082 C2078 1.368 . S
C2082 C2081 1.523 . S
H2083 C2058 0.950 . S
H2084 C2060 0.950 . S
H2085 C2061 0.949 . S
H2086 C2063 0.950 . S
H2087 C2065 0.950 . S
C2088 C2089 1.349 . S
C2088 C2090 1.327 . S
C2088 H2113 0.950 . S
C2089 C2088 1.349 . S
C2089 C2105 1.349 . S
C2090 C2088 1.327 . S
C2090 C2109 1.429 . S
C2090 H2114 0.950 . S
C2091 C2108 1.574 . S
C2091 C2110 1.368 . S
C2091 H2115 0.949 . S
H2092 C2096 0.949 . S
C2093 C2094 1.349 . S
C2093 C2095 1.327 . S
C2093 H2116 0.950 . S
C2094 C2093 1.349 . S
C2094 C2106 1.349 . S
C2095 C2093 1.327 . S
C2095 C2111 1.429 . S
C2095 H2117 0.950 . S
C2096 H2092 0.949 . S
C2096 C2104 1.574 . S
C2096 C2112 1.368 . S
H2097 C2105 0.950 . S
H2098 C2103 0.950 . S
H2099 C2104 0.949 . S
H2100 C2106 0.950 . S
H2101 C2107 0.950 . S
H2102 C2108 0.949 . S
C2103 H2098 0.950 . S
C2103 C2105 1.327 . S
C2103 C2109 1.429 . S
C2104 C2096 1.574 . S
C2104 H2099 0.949 . S
C2104 C2110 1.368 . S
C2105 C2089 1.349 . S
C2105 H2097 0.950 . S
C2105 C2103 1.327 . S
C2106 C2094 1.349 . S
C2106 H2100 0.950 . S
C2106 C2107 1.327 . S
C2107 H2101 0.950 . S
C2107 C2106 1.327 . S
C2107 C2111 1.429 . S
C2108 C2091 1.574 . S
C2108 H2102 0.949 . S
C2108 C2112 1.368 . S
C2109 C2090 1.429 . S
C2109 C2103 1.429 . S
C2109 C2110 1.523 . S
C2110 C2091 1.368 . S
C2110 C2104 1.368 . S
C2110 C2109 1.523 . S
C2111 C2095 1.429 . S
C2111 C2107 1.429 . S
C2111 C2112 1.523 . S
C2112 C2096 1.368 . S
C2112 C2108 1.368 . S
C2112 C2111 1.523 . S
H2113 C2088 0.950 . S
H2114 C2090 0.950 . S
H2115 C2091 0.949 . S
H2116 C2093 0.950 . S
H2117 C2095 0.950 . S
C2118 C2119 1.349 . S
C2118 C2120 1.327 . S
C2118 H2143 0.950 . S
C2119 C2118 1.349 . S
C2119 C2135 1.349 . S
C2120 C2118 1.327 . S
C2120 C2139 1.429 . S
C2120 H2144 0.950 . S
C2121 C2138 1.574 . S
C2121 C2140 1.368 . S
C2121 H2145 0.949 . S
H2122 C2126 0.949 . S
C2123 C2124 1.349 . S
C2123 C2125 1.327 . S
C2123 H2146 0.950 . S
C2124 C2123 1.349 . S
C2124 C2136 1.349 . S
C2125 C2123 1.327 . S
C2125 C2141 1.429 . S
C2125 H2147 0.950 . S
C2126 H2122 0.949 . S
C2126 C2134 1.574 . S
C2126 C2142 1.368 . S
H2127 C2135 0.950 . S
H2128 C2133 0.950 . S
H2129 C2134 0.949 . S
H2130 C2136 0.950 . S
H2131 C2137 0.950 . S
H2132 C2138 0.949 . S
C2133 H2128 0.950 . S
C2133 C2135 1.327 . S
C2133 C2139 1.429 . S
C2134 C2126 1.574 . S
C2134 H2129 0.949 . S
C2134 C2140 1.368 . S
C2135 C2119 1.349 . S
C2135 H2127 0.950 . S
C2135 C2133 1.327 . S
C2136 C2124 1.349 . S
C2136 H2130 0.950 . S
C2136 C2137 1.327 . S
C2137 H2131 0.950 . S
C2137 C2136 1.327 . S
C2137 C2141 1.429 . S
C2138 C2121 1.574 . S
C2138 H2132 0.949 . S
C2138 C2142 1.368 . S
C2139 C2120 1.429 . S
C2139 C2133 1.429 . S
C2139 C2140 1.523 . S
C2140 C2121 1.368 . S
C2140 C2134 1.368 . S
C2140 C2139 1.523 . S
C2141 C2125 1.429 . S
C2141 C2137 1.429 . S
C2141 C2142 1.523 . S
C2142 C2126 1.368 . S
C2142 C2138 1.368 . S
C2142 C2141 1.523 . S
H2143 C2118 0.950 . S
H2144 C2120 0.950 . S
H2145 C2121 0.949 . S
H2146 C2123 0.950 . S
H2147 C2125 0.950 . S
C2148 C2149 1.349 . S
C2148 C2150 1.327 . S
C2148 H2173 0.950 . S
C2149 C2148 1.349 . S
C2149 C2165 1.349 1_545 S
C2150 C2148 1.327 . S
C2150 C2169 1.429 . S
C2150 H2174 0.950 . S
C2151 C2168 1.574 . S
C2151 C2170 1.368 . S
C2151 H2175 0.949 1_545 S
H2152 C2156 0.949 . S
C2153 C2154 1.349 . S
C2153 C2155 1.327 . S
C2153 H2176 0.950 . S
C2154 C2153 1.349 . S
C2154 C2166 1.349 . S
C2155 C2153 1.327 . S
C2155 C2171 1.429 . S
C2155 H2177 0.950 . S
C2156 H2152 0.949 . S
C2156 C2164 1.574 . S
C2156 C2172 1.368 . S
H2157 C2165 0.950 . S
H2158 C2163 0.954 1_565 S
H2159 C2164 0.949 . S
H2160 C2166 0.950 . S
H2161 C2167 0.950 . S
H2162 C2168 0.949 . S
C2163 H2158 0.954 1_545 S
C2163 C2165 1.328 1_545 S
C2163 C2169 1.423 . S
C2164 C2156 1.574 . S
C2164 H2159 0.949 . S
C2164 C2170 1.368 . S
C2165 C2149 1.349 1_565 S
C2165 H2157 0.950 . S
C2165 C2163 1.328 1_565 S
C2166 C2154 1.349 . S
C2166 H2160 0.950 . S
C2166 C2167 1.327 . S
C2167 H2161 0.950 . S
C2167 C2166 1.327 . S
C2167 C2171 1.429 . S
C2168 C2151 1.574 . S
C2168 H2162 0.949 . S
C2168 C2172 1.368 . S
C2169 C2150 1.429 . S
C2169 C2163 1.423 . S
C2169 C2170 1.523 . S
C2170 C2151 1.368 . S
C2170 C2164 1.368 . S
C2170 C2169 1.523 . S
C2171 C2155 1.429 . S
C2171 C2167 1.429 . S
C2171 C2172 1.523 . S
C2172 C2156 1.368 . S
C2172 C2168 1.368 . S
C2172 C2171 1.523 . S
H2173 C2148 0.950 . S
H2174 C2150 0.950 . S
H2175 C2151 0.949 1_565 S
H2176 C2153 0.950 . S
H2177 C2155 0.950 . S
C2178 C2179 1.349 . S
C2178 C2180 1.327 . S
C2178 H2203 0.950 . S
C2179 C2178 1.349 . S
C2179 C2195 1.392 . S
C2180 C2178 1.327 . S
C2180 C2199 1.429 . S
C2180 H2204 0.950 . S
C2181 C2198 1.574 . S
C2181 C2200 1.368 . S
C2181 H2205 0.949 1_545 S
H2182 C2186 0.949 . S
C2183 C2184 1.349 . S
C2183 C2185 1.327 . S
C2183 H2206 0.950 . S
C2184 C2183 1.349 . S
C2184 C2196 1.349 . S
C2185 C2183 1.327 . S
C2185 C2201 1.429 . S
C2185 H2207 1.010 . S
C2186 H2182 0.949 . S
C2186 C2194 1.574 . S
C2186 C2202 1.368 . S
H2187 C2195 0.901 1_565 S
H2188 C2193 0.950 1_565 S
H2189 C2194 0.949 . S
H2190 C2196 0.950 . S
H2191 C2197 0.950 . S
H2192 C2198 0.949 1_565 S
C2193 H2188 0.950 1_545 S
C2193 C2195 1.334 . S
C2193 C2199 1.429 . S
C2194 C2186 1.574 . S
C2194 H2189 0.949 . S
C2194 C2200 1.368 . S
C2195 C2179 1.392 . S
C2195 H2187 0.901 1_545 S
C2195 C2193 1.334 . S
C2196 C2184 1.349 . S
C2196 H2190 0.950 . S
C2196 C2197 1.327 . S
C2197 H2191 0.950 . S
C2197 C2196 1.327 . S
C2197 C2201 1.429 . S
C2198 C2181 1.574 . S
C2198 H2192 0.949 1_545 S
C2198 C2202 1.368 . S
C2199 C2180 1.429 . S
C2199 C2193 1.429 . S
C2199 C2200 1.523 . S
C2200 C2181 1.368 . S
C2200 C2194 1.368 . S
C2200 C2199 1.523 . S
C2201 C2185 1.429 . S
C2201 C2197 1.429 . S
C2201 C2202 1.523 . S
C2202 C2186 1.368 . S
C2202 C2198 1.368 . S
C2202 C2201 1.523 . S
H2203 C2178 0.950 . S
H2204 C2180 0.950 . S
H2205 C2181 0.949 1_565 S
H2206 C2183 0.950 . S
H2207 C2185 1.010 . S
C2208 C2209 1.349 . S
C2208 C2210 1.327 . S
C2208 H2233 0.950 . S
C2209 C2208 1.349 . S
C2209 C2225 1.349 . S
C2210 C2208 1.327 . S
C2210 C2229 1.429 . S
C2210 H2234 0.950 . S
C2211 C2228 1.574 . S
C2211 C2230 1.368 . S
C2211 H2235 0.949 . S
H2212 C2216 0.949 . S
C2213 C2214 1.349 . S
C2213 C2215 1.327 . S
C2213 H2236 0.950 . S
C2214 C2213 1.349 . S
C2214 C2226 1.349 . S
C2215 C2213 1.327 . S
C2215 C2231 1.429 . S
C2215 H2237 0.950 . S
C2216 H2212 0.949 . S
C2216 C2224 1.574 . S
C2216 C2232 1.368 . S
H2217 C2225 0.950 . S
H2218 C2223 0.950 . S
H2219 C2224 0.949 . S
H2220 C2226 0.950 . S
H2221 C2227 0.950 . S
H2222 C2228 0.949 . S
C2223 H2218 0.950 . S
C2223 C2225 1.327 . S
C2223 C2229 1.429 . S
C2224 C2216 1.574 . S
C2224 H2219 0.949 . S
C2224 C2230 1.368 . S
C2225 C2209 1.349 . S
C2225 H2217 0.950 . S
C2225 C2223 1.327 . S
C2226 C2214 1.349 . S
C2226 H2220 0.950 . S
C2226 C2227 1.327 . S
C2227 H2221 0.950 . S
C2227 C2226 1.327 . S
C2227 C2231 1.429 . S
C2228 C2211 1.574 . S
C2228 H2222 0.949 . S
C2228 C2232 1.368 . S
C2229 C2210 1.429 . S
C2229 C2223 1.429 . S
C2229 C2230 1.523 . S
C2230 C2211 1.368 . S
C2230 C2224 1.368 . S
C2230 C2229 1.523 . S
C2231 C2215 1.429 . S
C2231 C2227 1.429 . S
C2231 C2232 1.523 . S
C2232 C2216 1.368 . S
C2232 C2228 1.368 . S
C2232 C2231 1.523 . S
H2233 C2208 0.950 . S
H2234 C2210 0.950 . S
H2235 C2211 0.949 . S
H2236 C2213 0.950 . S
H2237 C2215 0.950 . S
C2238 C2239 1.349 . S
C2238 C2240 1.327 . S
C2238 H2263 0.950 . S
C2239 C2238 1.349 . S
C2239 C2255 1.349 . S
C2240 C2238 1.327 . S
C2240 C2259 1.429 . S
C2240 H2264 0.950 . S
C2241 C2258 1.574 . S
C2241 C2260 1.368 . S
C2241 H2265 0.949 1_554 S
H2242 C2246 0.949 . S
C2243 C2244 1.349 . S
C2243 C2245 1.327 . S
C2243 H2266 0.950 . S
C2244 C2243 1.349 . S
C2244 C2256 1.349 . S
C2245 C2243 1.327 . S
C2245 C2261 1.429 . S
C2245 H2267 0.950 . S
C2246 H2242 0.949 . S
C2246 C2254 1.574 . S
C2246 C2262 1.368 . S
H2247 C2255 0.950 1_556 S
H2248 C2253 0.950 1_556 S
H2249 C2254 0.949 . S
H2250 C2256 0.950 . S
H2251 C2257 0.950 . S
H2252 C2258 0.949 . S
C2253 H2248 0.950 1_554 S
C2253 C2255 1.327 . S
C2253 C2259 1.429 . S
C2254 C2246 1.574 . S
C2254 H2249 0.949 . S
C2254 C2260 1.368 . S
C2255 C2239 1.349 . S
C2255 H2247 0.950 1_554 S
C2255 C2253 1.327 . S
C2256 C2244 1.349 . S
C2256 H2250 0.950 . S
C2256 C2257 1.327 . S
C2257 H2251 0.950 . S
C2257 C2256 1.327 . S
C2257 C2261 1.429 . S
C2258 C2241 1.574 . S
C2258 H2252 0.949 . S
C2258 C2262 1.368 . S
C2259 C2240 1.429 . S
C2259 C2253 1.429 . S
C2259 C2260 1.523 . S
C2260 C2241 1.368 . S
C2260 C2254 1.368 . S
C2260 C2259 1.523 . S
C2261 C2245 1.429 . S
C2261 C2257 1.429 . S
C2261 C2262 1.523 . S
C2262 C2246 1.368 . S
C2262 C2258 1.368 . S
C2262 C2261 1.523 . S
H2263 C2238 0.950 . S
H2264 C2240 0.950 . S
H2265 C2241 0.949 1_556 S
H2266 C2243 0.950 . S
H2267 C2245 0.950 . S
C2268 C2269 1.349 . S
C2268 C2270 1.327 . S
C2268 H2293 0.950 . S
C2269 C2268 1.349 . S
C2269 C2285 1.349 . S
C2270 C2268 1.327 . S
C2270 C2289 1.429 . S
C2270 H2294 0.950 . S
C2271 C2288 1.574 . S
C2271 C2290 1.368 . S
C2271 H2295 0.949 . S
H2272 C2276 0.949 . S
C2273 C2274 1.349 . S
C2273 C2275 1.327 . S
C2273 H2296 0.950 . S
C2274 C2273 1.349 . S
C2274 C2286 1.349 . S
C2275 C2273 1.327 . S
C2275 C2291 1.429 . S
C2275 H2297 0.950 . S
C2276 H2272 0.949 . S
C2276 C2284 1.574 . S
C2276 C2292 1.368 . S
H2277 C2285 0.950 . S
H2278 C2283 0.950 . S
H2279 C2284 0.949 . S
H2280 C2286 0.950 . S
H2281 C2287 0.950 . S
H2282 C2288 0.949 . S
C2283 H2278 0.950 . S
C2283 C2285 1.327 . S
C2283 C2289 1.429 . S
C2284 C2276 1.574 . S
C2284 H2279 0.949 . S
C2284 C2290 1.368 . S
C2285 C2269 1.349 . S
C2285 H2277 0.950 . S
C2285 C2283 1.327 . S
C2286 C2274 1.349 . S
C2286 H2280 0.950 . S
C2286 C2287 1.327 . S
C2287 H2281 0.950 . S
C2287 C2286 1.327 . S
C2287 C2291 1.429 . S
C2288 C2271 1.574 . S
C2288 H2282 0.949 . S
C2288 C2292 1.368 . S
C2289 C2270 1.429 . S
C2289 C2283 1.429 . S
C2289 C2290 1.523 . S
C2290 C2271 1.368 . S
C2290 C2284 1.368 . S
C2290 C2289 1.523 . S
C2291 C2275 1.429 . S
C2291 C2287 1.429 . S
C2291 C2292 1.523 . S
C2292 C2276 1.368 . S
C2292 C2288 1.368 . S
C2292 C2291 1.523 . S
H2293 C2268 0.950 . S
H2294 C2270 0.950 . S
H2295 C2271 0.949 . S
H2296 C2273 0.950 . S
H2297 C2275 0.950 . S
C2298 C2299 1.349 1_556 S
C2298 C2300 1.327 . S
C2298 H2323 0.950 . S
C2299 C2298 1.349 1_554 S
C2299 C2315 1.349 . S
C2300 C2298 1.327 . S
C2300 C2319 1.429 1_556 S
C2300 H2324 0.950 . S
C2301 C2318 1.574 . S
C2301 C2320 1.368 . S
C2301 H2325 0.949 . S
H2302 C2306 0.949 . S
C2303 C2304 1.349 . S
C2303 C2305 1.327 . S
C2303 H2326 0.950 . S
C2304 C2303 1.349 . S
C2304 C2316 1.349 . S
C2305 C2303 1.327 . S
C2305 C2321 1.429 . S
C2305 H2327 0.950 . S
C2306 H2302 0.949 . S
C2306 C2314 1.574 . S
C2306 C2322 1.368 . S
H2307 C2315 0.950 . S
H2308 C2313 0.950 . S
H2309 C2314 0.949 1_556 S
H2310 C2316 0.950 . S
H2311 C2317 0.950 . S
H2312 C2318 0.949 . S
C2313 H2308 0.950 . S
C2313 C2315 1.327 . S
C2313 C2319 1.429 . S
C2314 C2306 1.574 . S
C2314 H2309 0.949 1_554 S
C2314 C2320 1.368 . S
C2315 C2299 1.349 . S
C2315 H2307 0.950 . S
C2315 C2313 1.327 . S
C2316 C2304 1.349 . S
C2316 H2310 0.950 . S
C2316 C2317 1.327 . S
C2317 H2311 0.950 . S
C2317 C2316 1.327 . S
C2317 C2321 1.429 . S
C2318 C2301 1.574 . S
C2318 H2312 0.949 . S
C2318 C2322 1.368 . S
C2319 C2300 1.429 1_554 S
C2319 C2313 1.429 . S
C2319 C2320 1.523 . S
C2320 C2301 1.368 . S
C2320 C2314 1.368 . S
C2320 C2319 1.523 . S
C2321 C2305 1.429 . S
C2321 C2317 1.429 . S
C2321 C2322 1.523 . S
C2322 C2306 1.368 . S
C2322 C2318 1.368 . S
C2322 C2321 1.523 . S
H2323 C2298 0.950 . S
H2324 C2300 0.950 . S
H2325 C2301 0.949 . S
H2326 C2303 0.950 . S
H2327 C2305 0.950 . S
C2328 C2329 1.349 . S
C2328 C2330 1.327 . S
C2328 H2353 0.950 . S
C2329 C2328 1.349 . S
C2329 C2345 1.349 . S
C2330 C2328 1.327 . S
C2330 C2349 1.429 . S
C2330 H2354 0.950 . S
C2331 C2348 1.574 . S
C2331 C2350 1.368 . S
C2331 H2355 0.949 . S
H2332 C2336 0.949 . S
C2333 C2334 1.349 . S
C2333 C2335 1.327 . S
C2333 H2356 0.950 . S
C2334 C2333 1.349 . S
C2334 C2346 1.349 . S
C2335 C2333 1.327 . S
C2335 C2351 1.429 . S
C2335 H2357 0.950 . S
C2336 H2332 0.949 . S
C2336 C2344 1.574 . S
C2336 C2352 1.368 . S
H2337 C2345 0.950 . S
H2338 C2343 0.950 . S
H2339 C2344 0.949 . S
H2340 C2346 0.950 . S
H2341 C2347 0.950 . S
H2342 C2348 0.949 . S
C2343 H2338 0.950 . S
C2343 C2345 1.327 . S
C2343 C2349 1.429 . S
C2344 C2336 1.574 . S
C2344 H2339 0.949 . S
C2344 C2350 1.368 . S
C2345 C2329 1.349 . S
C2345 H2337 0.950 . S
C2345 C2343 1.327 . S
C2346 C2334 1.349 . S
C2346 H2340 0.950 . S
C2346 C2347 1.327 . S
C2347 H2341 0.950 . S
C2347 C2346 1.327 . S
C2347 C2351 1.429 . S
C2348 C2331 1.574 . S
C2348 H2342 0.949 . S
C2348 C2352 1.368 . S
C2349 C2330 1.429 . S
C2349 C2343 1.429 . S
C2349 C2350 1.523 . S
C2350 C2331 1.368 . S
C2350 C2344 1.368 . S
C2350 C2349 1.523 . S
C2351 C2335 1.429 . S
C2351 C2347 1.429 . S
C2351 C2352 1.523 . S
C2352 C2336 1.368 . S
C2352 C2348 1.368 . S
C2352 C2351 1.523 . S
H2353 C2328 0.950 . S
H2354 C2330 0.950 . S
H2355 C2331 0.949 . S
H2356 C2333 0.950 . S
H2357 C2335 0.950 . S
C2358 C2359 1.349 . S
C2358 C2360 1.327 . S
C2358 H2383 0.952 . S
C2359 C2358 1.349 . S
C2359 C2375 1.349 . S
C2360 C2358 1.327 . S
C2360 C2379 1.429 . S
C2360 H2384 0.950 . S
C2361 C2378 1.574 . S
C2361 C2380 1.368 . S
C2361 H2385 0.949 . S
H2362 C2366 0.949 . S
C2363 C2364 1.349 . S
C2363 C2365 1.327 . S
C2363 H2386 0.950 . S
C2364 C2363 1.349 . S
C2364 C2376 1.349 . S
C2365 C2363 1.327 . S
C2365 C2381 1.429 . S
C2365 H2387 0.950 . S
C2366 H2362 0.949 . S
C2366 C2374 1.574 . S
C2366 C2382 1.368 . S
H2367 C2375 0.950 . S
H2368 C2373 0.950 . S
H2369 C2374 0.949 . S
H2370 C2376 0.950 . S
H2371 C2377 0.950 . S
H2372 C2378 0.949 . S
C2373 H2368 0.950 . S
C2373 C2375 1.327 . S
C2373 C2379 1.429 . S
C2374 C2366 1.574 . S
C2374 H2369 0.949 . S
C2374 C2380 1.368 . S
C2375 C2359 1.349 . S
C2375 H2367 0.950 . S
C2375 C2373 1.327 . S
C2376 C2364 1.349 . S
C2376 H2370 0.950 . S
C2376 C2377 1.327 . S
C2377 H2371 0.950 . S
C2377 C2376 1.327 . S
C2377 C2381 1.429 . S
C2378 C2361 1.574 . S
C2378 H2372 0.949 . S
C2378 C2382 1.368 . S
C2379 C2360 1.429 . S
C2379 C2373 1.429 . S
C2379 C2380 1.523 . S
C2380 C2361 1.368 . S
C2380 C2374 1.368 . S
C2380 C2379 1.523 . S
C2381 C2365 1.429 . S
C2381 C2377 1.429 . S
C2381 C2382 1.523 . S
C2382 C2366 1.368 . S
C2382 C2378 1.368 . S
C2382 C2381 1.523 . S
H2383 C2358 0.952 . S
H2384 C2360 0.950 . S
H2385 C2361 0.949 . S
H2386 C2363 0.950 . S
H2387 C2365 0.950 . S
C2388 C2389 1.349 . S
C2388 C2390 1.327 . S
C2388 H2413 0.950 . S
C2389 C2388 1.349 . S
C2389 C2405 1.349 . S
C2390 C2388 1.327 . S
C2390 C2409 1.429 . S
C2390 H2414 0.950 . S
C2391 C2408 1.574 . S
C2391 C2410 1.368 . S
C2391 H2415 0.949 . S
H2392 C2396 0.949 . S
C2393 C2394 1.349 . S
C2393 C2395 1.327 . S
C2393 H2416 0.950 . S
C2394 C2393 1.349 . S
C2394 C2406 1.349 . S
C2395 C2393 1.327 . S
C2395 C2411 1.429 . S
C2395 H2417 0.950 . S
C2396 H2392 0.949 . S
C2396 C2404 1.574 . S
C2396 C2412 1.368 . S
H2397 C2405 0.950 . S
H2398 C2403 0.950 . S
H2399 C2404 0.949 . S
H2400 C2406 0.950 . S
H2401 C2407 0.950 . S
H2402 C2408 0.949 . S
C2403 H2398 0.950 . S
C2403 C2405 1.327 . S
C2403 C2409 1.429 . S
C2404 C2396 1.574 . S
C2404 H2399 0.949 . S
C2404 C2410 1.368 . S
C2405 C2389 1.349 . S
C2405 H2397 0.950 . S
C2405 C2403 1.327 . S
C2406 C2394 1.349 . S
C2406 H2400 0.950 . S
C2406 C2407 1.327 . S
C2407 H2401 0.950 . S
C2407 C2406 1.327 . S
C2407 C2411 1.429 . S
C2408 C2391 1.574 . S
C2408 H2402 0.949 . S
C2408 C2412 1.368 . S
C2409 C2390 1.429 . S
C2409 C2403 1.429 . S
C2409 C2410 1.523 . S
C2410 C2391 1.368 . S
C2410 C2404 1.368 . S
C2410 C2409 1.523 . S
C2411 C2395 1.429 . S
C2411 C2407 1.429 . S
C2411 C2412 1.523 . S
C2412 C2396 1.368 . S
C2412 C2408 1.368 . S
C2412 C2411 1.523 . S
H2413 C2388 0.950 . S
H2414 C2390 0.950 . S
H2415 C2391 0.949 . S
H2416 C2393 0.950 . S
H2417 C2395 0.950 . S
C2418 C2419 1.349 . S
C2418 C2420 1.327 . S
C2418 H2443 0.949 1_455 S
C2419 C2418 1.349 . S
C2419 C2435 1.349 . S
C2420 C2418 1.327 . S
C2420 C2439 1.429 . S
C2420 H2444 0.921 1_455 S
C2421 C2438 1.574 . S
C2421 C2440 1.368 . S
C2421 H2445 0.949 . S
H2422 C2426 0.949 . S
C2423 C2424 1.349 . S
C2423 C2425 1.327 . S
C2423 H2446 0.950 . S
C2424 C2423 1.349 . S
C2424 C2436 1.349 . S
C2425 C2423 1.327 . S
C2425 C2441 1.429 . S
C2425 H2447 0.950 . S
C2426 H2422 0.949 . S
C2426 C2434 1.574 . S
C2426 C2442 1.368 . S
H2427 C2435 0.950 . S
H2428 C2433 0.950 . S
H2429 C2434 0.949 . S
H2430 C2436 0.950 . S
H2431 C2437 0.950 . S
H2432 C2438 0.949 . S
C2433 H2428 0.950 . S
C2433 C2435 1.327 . S
C2433 C2439 1.429 . S
C2434 C2426 1.574 . S
C2434 H2429 0.949 . S
C2434 C2440 1.368 . S
C2435 C2419 1.349 . S
C2435 H2427 0.950 . S
C2435 C2433 1.327 . S
C2436 C2424 1.349 . S
C2436 H2430 0.950 . S
C2436 C2437 1.327 . S
C2437 H2431 0.950 . S
C2437 C2436 1.327 . S
C2437 C2441 1.429 . S
C2438 C2421 1.574 . S
C2438 H2432 0.949 . S
C2438 C2442 1.368 . S
C2439 C2420 1.429 . S
C2439 C2433 1.429 . S
C2439 C2440 1.523 . S
C2440 C2421 1.368 . S
C2440 C2434 1.368 . S
C2440 C2439 1.523 . S
C2441 C2425 1.429 . S
C2441 C2437 1.429 . S
C2441 C2442 1.523 . S
C2442 C2426 1.368 . S
C2442 C2438 1.368 . S
C2442 C2441 1.523 . S
H2443 C2418 0.949 1_655 S
H2444 C2420 0.921 1_655 S
H2445 C2421 0.949 . S
H2446 C2423 0.950 . S
H2447 C2425 0.950 . S
C2448 C2449 1.349 . S
C2448 C2450 1.327 . S
C2448 H2473 0.950 . S
C2449 C2448 1.349 . S
C2449 C2465 1.349 . S
C2450 C2448 1.327 . S
C2450 C2469 1.429 . S
C2450 H2474 0.950 . S
C2451 C2468 1.574 . S
C2451 C2470 1.368 . S
C2451 H2475 0.949 . S
H2452 C2456 0.949 . S
C2453 C2454 1.349 . S
C2453 C2455 1.327 . S
C2453 H2476 0.950 . S
C2454 C2453 1.349 . S
C2454 C2466 1.349 . S
C2455 C2453 1.327 . S
C2455 C2471 1.429 . S
C2455 H2477 0.950 . S
C2456 H2452 0.949 . S
C2456 C2464 1.574 . S
C2456 C2472 1.368 . S
H2457 C2465 0.950 . S
H2458 C2463 0.950 . S
H2459 C2464 0.949 . S
H2460 C2466 0.950 . S
H2461 C2467 0.950 . S
H2462 C2468 0.949 . S
C2463 H2458 0.950 . S
C2463 C2465 1.327 . S
C2463 C2469 1.429 . S
C2464 C2456 1.574 . S
C2464 H2459 0.949 . S
C2464 C2470 1.368 . S
C2465 C2449 1.349 . S
C2465 H2457 0.950 . S
C2465 C2463 1.327 . S
C2466 C2454 1.349 . S
C2466 H2460 0.950 . S
C2466 C2467 1.327 . S
C2467 H2461 0.950 . S
C2467 C2466 1.327 . S
C2467 C2471 1.429 . S
C2468 C2451 1.574 . S
C2468 H2462 0.949 . S
C2468 C2472 1.368 . S
C2469 C2450 1.429 . S
C2469 C2463 1.429 . S
C2469 C2470 1.523 . S
C2470 C2451 1.368 . S
C2470 C2464 1.368 . S
C2470 C2469 1.523 . S
C2471 C2455 1.429 . S
C2471 C2467 1.429 . S
C2471 C2472 1.523 . S
C2472 C2456 1.368 . S
C2472 C2468 1.368 . S
C2472 C2471 1.523 . S
H2473 C2448 0.950 . S
H2474 C2450 0.950 . S
H2475 C2451 0.949 . S
H2476 C2453 0.950 . S
H2477 C2455 0.950 . S
C2478 C2479 1.349 . S
C2478 C2480 1.327 . S
C2478 H2503 0.950 . S
C2479 C2478 1.349 . S
C2479 C2495 1.349 . S
C2480 C2478 1.327 . S
C2480 C2499 1.429 . S
C2480 H2504 0.950 . S
C2481 C2498 1.574 . S
C2481 C2500 1.368 . S
C2481 H2505 0.949 . S
H2482 C2486 0.949 . S
C2483 C2484 1.349 . S
C2483 C2485 1.327 . S
C2483 H2506 0.950 . S
C2484 C2483 1.349 . S
C2484 C2496 1.349 . S
C2485 C2483 1.327 . S
C2485 C2501 1.429 . S
C2485 H2507 0.950 . S
C2486 H2482 0.949 . S
C2486 C2494 1.574 . S
C2486 C2502 1.368 . S
H2487 C2495 0.950 . S
H2488 C2493 0.950 . S
H2489 C2494 0.949 . S
H2490 C2496 0.950 . S
H2491 C2497 0.950 . S
H2492 C2498 0.949 . S
C2493 H2488 0.950 . S
C2493 C2495 1.327 . S
C2493 C2499 1.429 . S
C2494 C2486 1.574 . S
C2494 H2489 0.949 . S
C2494 C2500 1.368 . S
C2495 C2479 1.349 . S
C2495 H2487 0.950 . S
C2495 C2493 1.327 . S
C2496 C2484 1.349 . S
C2496 H2490 0.950 . S
C2496 C2497 1.327 . S
C2497 H2491 0.950 . S
C2497 C2496 1.327 . S
C2497 C2501 1.429 . S
C2498 C2481 1.574 . S
C2498 H2492 0.949 . S
C2498 C2502 1.368 . S
C2499 C2480 1.429 . S
C2499 C2493 1.429 . S
C2499 C2500 1.523 . S
C2500 C2481 1.368 . S
C2500 C2494 1.368 . S
C2500 C2499 1.523 . S
C2501 C2485 1.429 . S
C2501 C2497 1.429 . S
C2501 C2502 1.523 . S
C2502 C2486 1.368 . S
C2502 C2498 1.368 . S
C2502 C2501 1.523 . S
H2503 C2478 0.950 . S
H2504 C2480 0.950 . S
H2505 C2481 0.949 . S
H2506 C2483 0.950 . S
H2507 C2485 0.950 . S
C2508 C2509 1.349 1_545 S
C2508 C2510 1.327 . S
C2508 H2533 0.950 . S
C2509 C2508 1.349 1_565 S
C2509 C2525 1.349 . S
C2510 C2508 1.327 . S
C2510 C2529 1.429 1_545 S
C2510 H2534 0.950 . S
C2511 C2528 1.574 . S
C2511 C2530 1.368 . S
C2511 H2535 0.949 . S
H2512 C2516 0.949 . S
C2513 C2514 1.349 1_565 S
C2513 C2515 1.327 . S
C2513 H2536 0.950 . S
C2514 C2513 1.349 1_545 S
C2514 C2526 1.349 . S
C2515 C2513 1.327 . S
C2515 C2531 1.429 1_565 S
C2515 H2537 0.950 . S
C2516 H2512 0.949 . S
C2516 C2524 1.574 . S
C2516 C2532 1.406 . S
H2517 C2525 0.950 . S
H2518 C2523 0.950 . S
H2519 C2524 0.949 . S
H2520 C2526 0.950 . S
H2521 C2527 0.950 . S
H2522 C2528 0.949 . S
C2523 H2518 0.950 . S
C2523 C2525 1.327 . S
C2523 C2529 1.429 . S
C2524 C2516 1.574 . S
C2524 H2519 0.949 . S
C2524 C2530 1.368 1_545 S
C2525 C2509 1.349 . S
C2525 H2517 0.950 . S
C2525 C2523 1.327 . S
C2526 C2514 1.349 . S
C2526 H2520 0.950 . S
C2526 C2527 1.327 . S
C2527 H2521 0.950 . S
C2527 C2526 1.327 . S
C2527 C2531 1.429 . S
C2528 C2511 1.574 . S
C2528 H2522 0.949 . S
C2528 C2532 1.327 1_565 S
C2529 C2510 1.429 1_565 S
C2529 C2523 1.429 . S
C2529 C2530 1.523 . S
C2530 C2511 1.368 . S
C2530 C2524 1.368 1_565 S
C2530 C2529 1.523 . S
C2531 C2515 1.429 1_545 S
C2531 C2527 1.429 . S
C2531 C2532 1.530 . S
C2532 C2516 1.406 . S
C2532 C2528 1.327 1_545 S
C2532 C2531 1.530 . S
H2533 C2508 0.950 . S
H2534 C2510 0.950 . S
H2535 C2511 0.949 . S
H2536 C2513 0.950 . S
H2537 C2515 0.950 . S
C2538 C2539 1.349 . S
C2538 C2540 1.327 . S
C2538 H2563 0.950 . S
C2539 C2538 1.349 . S
C2539 C2555 1.349 1_545 S
C2540 C2538 1.327 . S
C2540 C2559 1.429 . S
C2540 H2564 0.950 . S
C2541 C2558 1.574 . S
C2541 C2560 1.368 1_565 S
C2541 H2565 0.949 . S
H2542 C2546 0.949 . S
C2543 C2544 1.349 . S
C2543 C2545 1.327 . S
C2543 H2566 0.950 . S
C2544 C2543 1.349 . S
C2544 C2556 1.349 1_565 S
C2545 C2543 1.327 . S
C2545 C2561 1.429 1_565 S
C2545 H2567 0.950 . S
C2546 H2542 0.949 . S
C2546 C2554 1.574 . S
C2546 C2562 1.368 . S
H2547 C2555 0.950 . S
H2548 C2553 0.950 . S
H2549 C2554 0.949 . S
H2550 C2556 0.950 . S
H2551 C2557 0.950 . S
H2552 C2558 0.949 . S
C2553 H2548 0.950 . S
C2553 C2555 1.327 . S
C2553 C2559 1.429 1_565 S
C2554 C2546 1.574 . S
C2554 H2549 0.949 . S
C2554 C2560 1.368 . S
C2555 C2539 1.349 1_565 S
C2555 H2547 0.950 . S
C2555 C2553 1.327 . S
C2556 C2544 1.349 1_545 S
C2556 H2550 0.950 . S
C2556 C2557 1.327 . S
C2557 H2551 0.950 . S
C2557 C2556 1.327 . S
C2557 C2561 1.429 . S
C2558 C2541 1.574 . S
C2558 H2552 0.949 . S
C2558 C2562 1.368 1_565 S
C2559 C2540 1.429 . S
C2559 C2553 1.429 1_545 S
C2559 C2560 1.523 . S
C2560 C2541 1.368 1_545 S
C2560 C2554 1.368 . S
C2560 C2559 1.523 . S
C2561 C2545 1.429 1_545 S
C2561 C2557 1.429 . S
C2561 C2562 1.523 . S
C2562 C2546 1.368 . S
C2562 C2558 1.368 1_545 S
C2562 C2561 1.523 . S
H2563 C2538 0.950 . S
H2564 C2540 0.950 . S
H2565 C2541 0.949 . S
H2566 C2543 0.950 . S
H2567 C2545 0.950 . S
C2568 C2569 1.349 . S
C2568 C2570 1.327 . S
C2568 H2593 0.950 . S
C2569 C2568 1.349 . S
C2569 C2585 1.349 . S
C2570 C2568 1.327 . S
C2570 C2589 1.429 . S
C2570 H2594 0.950 . S
C2571 C2588 1.574 . S
C2571 C2590 1.368 . S
C2571 H2595 0.949 . S
H2572 C2576 0.949 . S
C2573 C2574 1.349 . S
C2573 C2575 1.327 . S
C2573 H2596 0.950 . S
C2574 C2573 1.349 . S
C2574 C2586 1.349 . S
C2575 C2573 1.327 . S
C2575 C2591 1.429 . S
C2575 H2597 0.950 . S
C2576 H2572 0.949 . S
C2576 C2584 1.574 . S
C2576 C2592 1.368 . S
H2577 C2585 0.950 . S
H2578 C2583 0.950 . S
H2579 C2584 0.949 . S
H2580 C2586 0.950 . S
H2581 C2587 0.950 . S
H2582 C2588 0.949 . S
C2583 H2578 0.950 . S
C2583 C2585 1.327 . S
C2583 C2589 1.429 . S
C2584 C2576 1.574 . S
C2584 H2579 0.949 . S
C2584 C2590 1.368 . S
C2585 C2569 1.349 . S
C2585 H2577 0.950 . S
C2585 C2583 1.327 . S
C2586 C2574 1.349 . S
C2586 H2580 0.950 . S
C2586 C2587 1.327 . S
C2587 H2581 0.950 . S
C2587 C2586 1.327 . S
C2587 C2591 1.429 . S
C2588 C2571 1.574 . S
C2588 H2582 0.949 . S
C2588 C2592 1.368 . S
C2589 C2570 1.429 . S
C2589 C2583 1.429 . S
C2589 C2590 1.523 . S
C2590 C2571 1.368 . S
C2590 C2584 1.368 . S
C2590 C2589 1.523 . S
C2591 C2575 1.429 . S
C2591 C2587 1.429 . S
C2591 C2592 1.523 . S
C2592 C2576 1.368 . S
C2592 C2588 1.368 . S
C2592 C2591 1.523 . S
H2593 C2568 0.950 . S
H2594 C2570 0.950 . S
H2595 C2571 0.949 . S
H2596 C2573 0.950 . S
H2597 C2575 0.950 . S
C2598 C2599 1.349 1_556 S
C2598 C2600 1.327 . S
C2598 H2623 0.950 . S
C2599 C2598 1.349 1_554 S
C2599 C2615 1.349 . S
C2600 C2598 1.327 . S
C2600 C2619 1.429 1_556 S
C2600 H2624 0.950 . S
C2601 C2618 1.574 . S
C2601 C2620 1.368 . S
C2601 H2625 0.949 . S
H2602 C2606 0.949 . S
C2603 C2604 1.349 1_554 S
C2603 C2605 1.327 . S
C2603 H2626 0.950 . S
C2604 C2603 1.349 1_556 S
C2604 C2616 1.349 . S
C2605 C2603 1.327 . S
C2605 C2621 1.429 . S
C2605 H2627 0.950 . S
C2606 H2602 0.949 . S
C2606 C2614 1.574 . S
C2606 C2622 1.368 1_556 S
H2607 C2615 0.950 . S
H2608 C2613 0.950 . S
H2609 C2614 0.949 . S
H2610 C2616 0.950 . S
H2611 C2617 0.950 . S
H2612 C2618 0.949 . S
C2613 H2608 0.950 . S
C2613 C2615 1.327 . S
C2613 C2619 1.429 . S
C2614 C2606 1.574 . S
C2614 H2609 0.949 . S
C2614 C2620 1.368 1_556 S
C2615 C2599 1.349 . S
C2615 H2607 0.950 . S
C2615 C2613 1.327 . S
C2616 C2604 1.349 . S
C2616 H2610 0.950 . S
C2616 C2617 1.327 . S
C2617 H2611 0.950 . S
C2617 C2616 1.327 . S
C2617 C2621 1.429 1_556 S
C2618 C2601 1.574 . S
C2618 H2612 0.949 . S
C2618 C2622 1.368 . S
C2619 C2600 1.429 1_554 S
C2619 C2613 1.429 . S
C2619 C2620 1.523 . S
C2620 C2601 1.368 . S
C2620 C2614 1.368 1_554 S
C2620 C2619 1.523 . S
C2621 C2605 1.429 . S
C2621 C2617 1.429 1_554 S
C2621 C2622 1.523 . S
C2622 C2606 1.368 1_554 S
C2622 C2618 1.368 . S
C2622 C2621 1.523 . S
H2623 C2598 0.950 . S
H2624 C2600 0.950 . S
H2625 C2601 0.949 . S
H2626 C2603 0.950 . S
H2627 C2605 0.950 . S
C2628 C2629 1.349 . S
C2628 C2630 1.327 . S
C2628 H2653 0.950 . S
C2629 C2628 1.349 . S
C2629 C2645 1.349 . S
C2630 C2628 1.327 . S
C2630 C2649 1.429 . S
C2630 H2654 0.950 . S
C2631 C2648 1.574 . S
C2631 C2650 1.368 . S
C2631 H2655 0.949 . S
H2632 C2636 0.949 . S
C2633 C2634 1.349 . S
C2633 C2635 1.327 . S
C2633 H2656 0.950 . S
C2634 C2633 1.349 . S
C2634 C2646 1.349 . S
C2635 C2633 1.327 . S
C2635 C2651 1.429 . S
C2635 H2657 0.950 . S
C2636 H2632 0.949 . S
C2636 C2644 1.574 . S
C2636 C2652 1.368 . S
H2637 C2645 0.950 . S
H2638 C2643 0.950 . S
H2639 C2644 0.949 . S
H2640 C2646 0.950 . S
H2641 C2647 0.950 . S
H2642 C2648 0.949 . S
C2643 H2638 0.950 . S
C2643 C2645 1.327 . S
C2643 C2649 1.429 . S
C2644 C2636 1.574 . S
C2644 H2639 0.949 . S
C2644 C2650 1.368 . S
C2645 C2629 1.349 . S
C2645 H2637 0.950 . S
C2645 C2643 1.327 . S
C2646 C2634 1.349 . S
C2646 H2640 0.950 . S
C2646 C2647 1.327 . S
C2647 H2641 0.950 . S
C2647 C2646 1.327 . S
C2647 C2651 1.429 . S
C2648 C2631 1.574 . S
C2648 H2642 0.949 . S
C2648 C2652 1.368 . S
C2649 C2630 1.429 . S
C2649 C2643 1.429 . S
C2649 C2650 1.523 . S
C2650 C2631 1.368 . S
C2650 C2644 1.368 . S
C2650 C2649 1.523 . S
C2651 C2635 1.429 . S
C2651 C2647 1.429 . S
C2651 C2652 1.523 . S
C2652 C2636 1.368 . S
C2652 C2648 1.368 . S
C2652 C2651 1.523 . S
H2653 C2628 0.950 . S
H2654 C2630 0.950 . S
H2655 C2631 0.949 . S
H2656 C2633 0.950 . S
H2657 C2635 0.950 . S
C2658 C2659 1.349 1_554 S
C2658 C2660 1.327 . S
C2658 H2683 0.950 . S
C2659 C2658 1.349 1_556 S
C2659 C2675 1.349 . S
C2660 C2658 1.327 . S
C2660 C2679 1.429 1_554 S
C2660 H2684 0.950 . S
C2661 C2678 1.574 . S
C2661 C2680 1.368 . S
C2661 H2685 0.949 . S
H2662 C2666 0.949 . S
C2663 C2664 1.349 1_556 S
C2663 C2665 1.327 . S
C2663 H2686 0.950 . S
C2664 C2663 1.349 1_554 S
C2664 C2676 1.349 . S
C2665 C2663 1.327 . S
C2665 C2681 1.429 1_556 S
C2665 H2687 0.950 . S
C2666 H2662 0.949 . S
C2666 C2674 1.574 . S
C2666 C2682 1.400 . S
H2667 C2675 0.950 . S
H2668 C2673 0.950 . S
H2669 C2674 0.949 . S
H2670 C2676 0.950 . S
H2671 C2677 0.950 . S
H2672 C2678 0.949 . S
C2673 H2668 0.950 . S
C2673 C2675 1.327 . S
C2673 C2679 1.429 . S
C2674 C2666 1.574 . S
C2674 H2669 0.949 . S
C2674 C2680 1.368 1_554 S
C2675 C2659 1.349 . S
C2675 H2667 0.950 . S
C2675 C2673 1.327 . S
C2676 C2664 1.349 . S
C2676 H2670 0.950 . S
C2676 C2677 1.327 . S
C2677 H2671 0.950 . S
C2677 C2676 1.327 . S
C2677 C2681 1.429 . S
C2678 C2661 1.574 . S
C2678 H2672 0.949 . S
C2678 C2682 1.333 1_556 S
C2679 C2660 1.429 1_556 S
C2679 C2673 1.429 . S
C2679 C2680 1.523 . S
C2680 C2661 1.368 . S
C2680 C2674 1.368 1_556 S
C2680 C2679 1.523 . S
C2681 C2665 1.429 1_554 S
C2681 C2677 1.429 . S
C2681 C2682 1.530 . S
C2682 C2666 1.400 . S
C2682 C2678 1.333 1_554 S
C2682 C2681 1.530 . S
H2683 C2658 0.950 . S
H2684 C2660 0.950 . S
H2685 C2661 0.949 . S
H2686 C2663 0.950 . S
H2687 C2665 0.950 . S
C2688 C2689 1.349 . S
C2688 C2690 1.327 . S
C2688 H2713 0.950 . S
C2689 C2688 1.349 . S
C2689 C2705 1.349 . S
C2690 C2688 1.327 . S
C2690 C2709 1.429 . S
C2690 H2714 0.950 . S
C2691 C2708 1.574 . S
C2691 C2710 1.368 . S
C2691 H2715 0.949 . S
H2692 C2696 0.949 . S
C2693 C2694 1.349 . S
C2693 C2695 1.327 . S
C2693 H2716 0.950 . S
C2694 C2693 1.349 . S
C2694 C2706 1.349 . S
C2695 C2693 1.327 . S
C2695 C2711 1.429 . S
C2695 H2717 0.950 . S
C2696 H2692 0.949 . S
C2696 C2704 1.574 . S
C2696 C2712 1.368 . S
H2697 C2705 0.950 . S
H2698 C2703 0.950 . S
H2699 C2704 0.949 . S
H2700 C2706 0.950 . S
H2701 C2707 0.950 . S
H2702 C2708 0.949 . S
C2703 H2698 0.950 . S
C2703 C2705 1.327 . S
C2703 C2709 1.429 . S
C2704 C2696 1.574 . S
C2704 H2699 0.949 . S
C2704 C2710 1.368 . S
C2705 C2689 1.349 . S
C2705 H2697 0.950 . S
C2705 C2703 1.327 . S
C2706 C2694 1.349 . S
C2706 H2700 0.950 . S
C2706 C2707 1.327 . S
C2707 H2701 0.950 . S
C2707 C2706 1.327 . S
C2707 C2711 1.429 . S
C2708 C2691 1.574 . S
C2708 H2702 0.949 . S
C2708 C2712 1.368 . S
C2709 C2690 1.429 . S
C2709 C2703 1.429 . S
C2709 C2710 1.523 . S
C2710 C2691 1.368 . S
C2710 C2704 1.368 . S
C2710 C2709 1.523 . S
C2711 C2695 1.429 . S
C2711 C2707 1.429 . S
C2711 C2712 1.523 . S
C2712 C2696 1.368 . S
C2712 C2708 1.368 . S
C2712 C2711 1.523 . S
H2713 C2688 0.950 . S
H2714 C2690 0.950 . S
H2715 C2691 0.949 . S
H2716 C2693 0.950 . S
H2717 C2695 0.950 . S
C2718 C2719 1.349 . S
C2718 C2720 1.327 . S
C2718 H2743 0.950 . S
C2719 C2718 1.349 . S
C2719 C2735 1.349 1_455 S
C2720 C2718 1.327 . S
C2720 C2739 1.429 . S
C2720 H2744 0.950 . S
C2721 C2738 1.574 . S
C2721 C2740 1.368 1_655 S
C2721 H2745 0.949 . S
H2722 C2726 0.949 . S
C2723 C2724 1.349 . S
C2723 C2725 1.327 . S
C2723 H2746 0.950 . S
C2724 C2723 1.349 . S
C2724 C2736 1.349 1_655 S
C2725 C2723 1.327 . S
C2725 C2741 1.429 1_655 S
C2725 H2747 0.950 . S
C2726 H2722 0.949 . S
C2726 C2734 1.574 . S
C2726 C2742 1.368 . S
H2727 C2735 0.950 . S
H2728 C2733 0.950 . S
H2729 C2734 0.949 . S
H2730 C2736 0.950 . S
H2731 C2737 0.950 . S
H2732 C2738 0.949 . S
C2733 H2728 0.950 . S
C2733 C2735 1.327 . S
C2733 C2739 1.429 1_655 S
C2734 C2726 1.574 . S
C2734 H2729 0.949 . S
C2734 C2740 1.368 . S
C2735 C2719 1.349 1_655 S
C2735 H2727 0.950 . S
C2735 C2733 1.327 . S
C2736 C2724 1.349 1_455 S
C2736 H2730 0.950 . S
C2736 C2737 1.327 . S
C2737 H2731 0.950 . S
C2737 C2736 1.327 . S
C2737 C2741 1.429 . S
C2738 C2721 1.574 . S
C2738 H2732 0.949 . S
C2738 C2742 1.368 1_655 S
C2739 C2720 1.429 . S
C2739 C2733 1.429 1_455 S
C2739 C2740 1.523 . S
C2740 C2721 1.368 1_455 S
C2740 C2734 1.368 . S
C2740 C2739 1.523 . S
C2741 C2725 1.429 1_455 S
C2741 C2737 1.429 . S
C2741 C2742 1.523 . S
C2742 C2726 1.368 . S
C2742 C2738 1.368 1_455 S
C2742 C2741 1.523 . S
H2743 C2718 0.950 . S
H2744 C2720 0.950 . S
H2745 C2721 0.949 . S
H2746 C2723 0.950 . S
H2747 C2725 0.950 . S
C2748 C2749 1.349 . S
C2748 C2750 1.327 . S
C2748 H2773 0.950 . S
C2749 C2748 1.349 . S
C2749 C2765 1.349 . S
C2750 C2748 1.327 . S
C2750 C2769 1.429 . S
C2750 H2774 0.950 . S
C2751 C2768 1.574 . S
C2751 C2770 1.368 . S
C2751 H2775 0.949 . S
H2752 C2756 0.949 . S
C2753 C2754 1.349 . S
C2753 C2755 1.327 . S
C2753 H2776 0.950 . S
C2754 C2753 1.349 . S
C2754 C2766 1.349 . S
C2755 C2753 1.327 . S
C2755 C2771 1.429 . S
C2755 H2777 0.950 . S
C2756 H2752 0.949 . S
C2756 C2764 1.574 . S
C2756 C2772 1.368 . S
H2757 C2765 0.950 . S
H2758 C2763 0.950 . S
H2759 C2764 0.949 . S
H2760 C2766 0.950 . S
H2761 C2767 0.950 . S
H2762 C2768 0.949 . S
C2763 H2758 0.950 . S
C2763 C2765 1.327 . S
C2763 C2769 1.429 . S
C2764 C2756 1.574 . S
C2764 H2759 0.949 . S
C2764 C2770 1.368 . S
C2765 C2749 1.349 . S
C2765 H2757 0.950 . S
C2765 C2763 1.327 . S
C2766 C2754 1.349 . S
C2766 H2760 0.950 . S
C2766 C2767 1.327 . S
C2767 H2761 0.950 . S
C2767 C2766 1.327 . S
C2767 C2771 1.429 . S
C2768 C2751 1.574 . S
C2768 H2762 0.949 . S
C2768 C2772 1.368 . S
C2769 C2750 1.429 . S
C2769 C2763 1.429 . S
C2769 C2770 1.523 . S
C2770 C2751 1.368 . S
C2770 C2764 1.368 . S
C2770 C2769 1.523 . S
C2771 C2755 1.429 . S
C2771 C2767 1.429 . S
C2771 C2772 1.523 . S
C2772 C2756 1.368 . S
C2772 C2768 1.368 . S
C2772 C2771 1.523 . S
H2773 C2748 0.950 . S
H2774 C2750 0.950 . S
H2775 C2751 0.949 . S
H2776 C2753 0.950 . S
H2777 C2755 0.950 . S
C2778 C2779 1.349 . S
C2778 C2780 1.327 . S
C2778 H2803 0.950 . S
C2779 C2778 1.349 . S
C2779 C2795 1.349 1_655 S
C2780 C2778 1.327 . S
C2780 C2799 1.429 . S
C2780 H2804 0.950 . S
C2781 C2798 1.574 . S
C2781 C2800 1.368 1_455 S
C2781 H2805 0.949 . S
H2782 C2786 0.949 . S
C2783 C2784 1.349 . S
C2783 C2785 1.327 . S
C2783 H2806 0.950 . S
C2784 C2783 1.349 . S
C2784 C2796 1.349 1_455 S
C2785 C2783 1.327 . S
C2785 C2801 1.429 . S
C2785 H2807 0.950 . S
C2786 H2782 0.949 . S
C2786 C2794 1.574 . S
C2786 C2802 1.334 1_655 S
H2787 C2795 0.950 . S
H2788 C2793 0.950 . S
H2789 C2794 0.949 . S
H2790 C2796 0.950 . S
H2791 C2797 0.950 . S
H2792 C2798 0.949 . S
C2793 H2788 0.950 . S
C2793 C2795 1.327 . S
C2793 C2799 1.429 1_455 S
C2794 C2786 1.574 . S
C2794 H2789 0.949 . S
C2794 C2800 1.368 . S
C2795 C2779 1.349 1_455 S
C2795 H2787 0.950 . S
C2795 C2793 1.327 . S
C2796 C2784 1.349 1_655 S
C2796 H2790 0.950 . S
C2796 C2797 1.327 . S
C2797 H2791 0.950 . S
C2797 C2796 1.327 . S
C2797 C2801 1.429 1_655 S
C2798 C2781 1.574 . S
C2798 H2792 0.949 . S
C2798 C2802 1.399 . S
C2799 C2780 1.429 . S
C2799 C2793 1.429 1_655 S
C2799 C2800 1.523 . S
C2800 C2781 1.368 1_655 S
C2800 C2794 1.368 . S
C2800 C2799 1.523 . S
C2801 C2785 1.429 . S
C2801 C2797 1.429 1_455 S
C2801 C2802 1.530 . S
C2802 C2786 1.334 1_455 S
C2802 C2798 1.399 . S
C2802 C2801 1.530 . S
H2803 C2778 0.950 . S
H2804 C2780 0.950 . S
H2805 C2781 0.949 . S
H2806 C2783 0.950 . S
H2807 C2785 0.950 . S
C2808 C2809 1.349 . S
C2808 C2810 1.327 . S
C2808 H2833 0.950 . S
C2809 C2808 1.349 . S
C2809 C2825 1.349 . S
C2810 C2808 1.327 . S
C2810 C2829 1.429 . S
C2810 H2834 0.950 . S
C2811 C2828 1.574 . S
C2811 C2830 1.368 . S
C2811 H2835 0.949 . S
H2812 C2816 0.949 . S
C2813 C2814 1.349 . S
C2813 C2815 1.327 . S
C2813 H2836 0.950 . S
C2814 C2813 1.349 . S
C2814 C2826 1.349 . S
C2815 C2813 1.327 . S
C2815 C2831 1.429 . S
C2815 H2837 0.950 . S
C2816 H2812 0.949 . S
C2816 C2824 1.574 . S
C2816 C2832 1.368 . S
H2817 C2825 0.950 . S
H2818 C2823 0.950 . S
H2819 C2824 0.949 . S
H2820 C2826 0.950 . S
H2821 C2827 0.950 . S
H2822 C2828 0.949 . S
C2823 H2818 0.950 . S
C2823 C2825 1.327 . S
C2823 C2829 1.429 . S
C2824 C2816 1.574 . S
C2824 H2819 0.949 . S
C2824 C2830 1.368 . S
C2825 C2809 1.349 . S
C2825 H2817 0.950 . S
C2825 C2823 1.327 . S
C2826 C2814 1.349 . S
C2826 H2820 0.950 . S
C2826 C2827 1.327 . S
C2827 H2821 0.950 . S
C2827 C2826 1.327 . S
C2827 C2831 1.429 . S
C2828 C2811 1.574 . S
C2828 H2822 0.949 . S
C2828 C2832 1.368 . S
C2829 C2810 1.429 . S
C2829 C2823 1.429 . S
C2829 C2830 1.523 . S
C2830 C2811 1.368 . S
C2830 C2824 1.368 . S
C2830 C2829 1.523 . S
C2831 C2815 1.429 . S
C2831 C2827 1.429 . S
C2831 C2832 1.523 . S
C2832 C2816 1.368 . S
C2832 C2828 1.368 . S
C2832 C2831 1.523 . S
H2833 C2808 0.950 . S
H2834 C2810 0.950 . S
H2835 C2811 0.949 . S
H2836 C2813 0.950 . S
H2837 C2815 0.950 . S
C2838 C2839 1.349 . S
C2838 C2840 1.327 . S
C2838 H2863 0.950 . S
C2839 C2838 1.349 . S
C2839 C2855 1.349 . S
C2840 C2838 1.327 . S
C2840 C2859 1.429 . S
C2840 H2864 0.950 . S
C2841 C2858 1.574 . S
C2841 C2860 1.368 . S
C2841 H2865 0.949 . S
H2842 C2846 0.949 . S
C2843 C2844 1.349 . S
C2843 C2845 1.327 . S
C2843 H2866 0.950 . S
C2844 C2843 1.349 . S
C2844 C2856 1.349 . S
C2845 C2843 1.327 . S
C2845 C2861 1.429 . S
C2845 H2867 0.950 . S
C2846 H2842 0.949 . S
C2846 C2854 1.574 . S
C2846 C2862 1.368 . S
H2847 C2855 0.950 . S
H2848 C2853 0.950 . S
H2849 C2854 0.949 . S
H2850 C2856 0.950 . S
H2851 C2857 0.950 . S
H2852 C2858 0.949 . S
C2853 H2848 0.950 . S
C2853 C2855 1.327 . S
C2853 C2859 1.429 . S
C2854 C2846 1.574 . S
C2854 H2849 0.949 . S
C2854 C2860 1.368 . S
C2855 C2839 1.349 . S
C2855 H2847 0.950 . S
C2855 C2853 1.327 . S
C2856 C2844 1.349 . S
C2856 H2850 0.950 . S
C2856 C2857 1.327 . S
C2857 H2851 0.950 . S
C2857 C2856 1.327 . S
C2857 C2861 1.429 . S
C2858 C2841 1.574 . S
C2858 H2852 0.949 . S
C2858 C2862 1.368 . S
C2859 C2840 1.429 . S
C2859 C2853 1.429 . S
C2859 C2860 1.523 . S
C2860 C2841 1.368 . S
C2860 C2854 1.368 . S
C2860 C2859 1.523 . S
C2861 C2845 1.429 . S
C2861 C2857 1.429 . S
C2861 C2862 1.523 . S
C2862 C2846 1.368 . S
C2862 C2858 1.368 . S
C2862 C2861 1.523 . S
H2863 C2838 0.950 . S
H2864 C2840 0.950 . S
H2865 C2841 0.949 . S
H2866 C2843 0.950 . S
H2867 C2845 0.950 . S
C2868 C2869 1.349 . S
C2868 C2870 1.327 . S
C2868 H2893 0.950 . S
C2869 C2868 1.349 . S
C2869 C2885 1.349 1_545 S
C2870 C2868 1.327 . S
C2870 C2889 1.429 . S
C2870 H2894 0.950 . S
C2871 C2888 1.574 . S
C2871 C2890 1.368 1_565 S
C2871 H2895 0.949 . S
H2872 C2876 0.949 . S
C2873 C2874 1.349 . S
C2873 C2875 1.327 . S
C2873 H2896 0.950 . S
C2874 C2873 1.349 . S
C2874 C2886 1.349 1_565 S
C2875 C2873 1.327 . S
C2875 C2891 1.429 . S
C2875 H2897 0.950 . S
C2876 H2872 0.949 . S
C2876 C2884 1.574 . S
C2876 C2892 1.320 1_545 S
H2877 C2885 0.950 . S
H2878 C2883 0.950 . S
H2879 C2884 0.949 . S
H2880 C2886 0.950 . S
H2881 C2887 0.950 . S
H2882 C2888 0.949 . S
C2883 H2878 0.950 . S
C2883 C2885 1.327 . S
C2883 C2889 1.429 1_565 S
C2884 C2876 1.574 . S
C2884 H2879 0.949 . S
C2884 C2890 1.368 . S
C2885 C2869 1.349 1_565 S
C2885 H2877 0.950 . S
C2885 C2883 1.327 . S
C2886 C2874 1.349 1_545 S
C2886 H2880 0.950 . S
C2886 C2887 1.327 . S
C2887 H2881 0.950 . S
C2887 C2886 1.327 . S
C2887 C2891 1.429 1_545 S
C2888 C2871 1.574 . S
C2888 H2882 0.949 . S
C2888 C2892 1.413 . S
C2889 C2870 1.429 . S
C2889 C2883 1.429 1_545 S
C2889 C2890 1.523 . S
C2890 C2871 1.368 1_545 S
C2890 C2884 1.368 . S
C2890 C2889 1.523 . S
C2891 C2875 1.429 . S
C2891 C2887 1.429 1_565 S
C2891 C2892 1.530 . S
C2892 C2876 1.320 1_565 S
C2892 C2888 1.413 . S
C2892 C2891 1.530 . S
H2893 C2868 0.950 . S
H2894 C2870 0.950 . S
H2895 C2871 0.949 . S
H2896 C2873 0.950 . S
H2897 C2875 0.950 . S
C2898 C2899 1.349 . S
C2898 C2900 1.327 . S
C2898 H2923 0.950 . S
C2899 C2898 1.349 . S
C2899 C2915 1.349 1_565 S
C2900 C2898 1.327 . S
C2900 C2919 1.429 . S
C2900 H2924 0.950 . S
C2901 C2918 1.574 . S
C2901 C2920 1.368 1_545 S
C2901 H2925 0.949 . S
H2902 C2906 0.949 . S
C2903 C2904 1.349 . S
C2903 C2905 1.327 . S
C2903 H2926 0.950 . S
C2904 C2903 1.349 . S
C2904 C2916 1.349 1_545 S
C2905 C2903 1.327 . S
C2905 C2921 1.429 1_545 S
C2905 H2927 0.950 . S
C2906 H2902 0.949 . S
C2906 C2914 1.574 . S
C2906 C2922 1.368 . S
H2907 C2915 0.950 . S
H2908 C2913 0.950 . S
H2909 C2914 0.949 . S
H2910 C2916 0.950 . S
H2911 C2917 0.950 . S
H2912 C2918 0.949 . S
C2913 H2908 0.950 . S
C2913 C2915 1.327 . S
C2913 C2919 1.429 1_545 S
C2914 C2906 1.574 . S
C2914 H2909 0.949 . S
C2914 C2920 1.368 . S
C2915 C2899 1.349 1_545 S
C2915 H2907 0.950 . S
C2915 C2913 1.327 . S
C2916 C2904 1.349 1_565 S
C2916 H2910 0.950 . S
C2916 C2917 1.327 . S
C2917 H2911 0.950 . S
C2917 C2916 1.327 . S
C2917 C2921 1.429 . S
C2918 C2901 1.574 . S
C2918 H2912 0.949 . S
C2918 C2922 1.368 1_545 S
C2919 C2900 1.429 . S
C2919 C2913 1.429 1_565 S
C2919 C2920 1.523 . S
C2920 C2901 1.368 1_565 S
C2920 C2914 1.368 . S
C2920 C2919 1.523 . S
C2921 C2905 1.429 1_565 S
C2921 C2917 1.429 . S
C2921 C2922 1.523 . S
C2922 C2906 1.368 . S
C2922 C2918 1.368 1_565 S
C2922 C2921 1.523 . S
H2923 C2898 0.950 . S
H2924 C2900 0.950 . S
H2925 C2901 0.949 . S
H2926 C2903 0.950 . S
H2927 C2905 0.950 . S
C2928 C2929 1.349 . S
C2928 C2930 1.327 . S
C2928 H2953 0.950 . S
C2929 C2928 1.349 . S
C2929 C2945 1.349 . S
C2930 C2928 1.327 . S
C2930 C2949 1.429 . S
C2930 H2954 0.950 . S
C2931 C2948 1.574 . S
C2931 C2950 1.368 . S
C2931 H2955 0.949 . S
H2932 C2936 0.949 . S
C2933 C2934 1.349 . S
C2933 C2935 1.327 . S
C2933 H2956 0.950 . S
C2934 C2933 1.349 . S
C2934 C2946 1.349 . S
C2935 C2933 1.327 . S
C2935 C2951 1.429 . S
C2935 H2957 0.950 . S
C2936 H2932 0.949 . S
C2936 C2944 1.574 . S
C2936 C2952 1.368 . S
H2937 C2945 0.950 . S
H2938 C2943 0.950 . S
H2939 C2944 0.949 . S
H2940 C2946 0.950 . S
H2941 C2947 0.950 . S
H2942 C2948 0.949 . S
C2943 H2938 0.950 . S
C2943 C2945 1.327 . S
C2943 C2949 1.429 . S
C2944 C2936 1.574 . S
C2944 H2939 0.949 . S
C2944 C2950 1.368 . S
C2945 C2929 1.349 . S
C2945 H2937 0.950 . S
C2945 C2943 1.327 . S
C2946 C2934 1.349 . S
C2946 H2940 0.950 . S
C2946 C2947 1.327 . S
C2947 H2941 0.950 . S
C2947 C2946 1.327 . S
C2947 C2951 1.429 . S
C2948 C2931 1.574 . S
C2948 H2942 0.949 . S
C2948 C2952 1.368 . S
C2949 C2930 1.429 . S
C2949 C2943 1.429 . S
C2949 C2950 1.523 . S
C2950 C2931 1.368 . S
C2950 C2944 1.368 . S
C2950 C2949 1.523 . S
C2951 C2935 1.429 . S
C2951 C2947 1.429 . S
C2951 C2952 1.523 . S
C2952 C2936 1.368 . S
C2952 C2948 1.368 . S
C2952 C2951 1.523 . S
H2953 C2928 0.950 . S
H2954 C2930 0.950 . S
H2955 C2931 0.949 . S
H2956 C2933 0.950 . S
H2957 C2935 0.950 . S
C2958 C2959 1.349 1_554 S
C2958 C2960 1.327 . S
C2958 H2983 0.950 . S
C2959 C2958 1.349 1_556 S
C2959 C2975 1.349 . S
C2960 C2958 1.327 . S
C2960 C2979 1.429 1_554 S
C2960 H2984 0.950 . S
C2961 C2978 1.574 . S
C2961 C2980 1.368 . S
C2961 H2985 0.949 . S
H2962 C2966 0.949 . S
C2963 C2964 1.349 1_556 S
C2963 C2965 1.327 . S
C2963 H2986 0.950 . S
C2964 C2963 1.349 1_554 S
C2964 C2976 1.349 . S
C2965 C2963 1.327 . S
C2965 C2981 1.429 . S
C2965 H2987 0.950 . S
C2966 H2962 0.949 . S
C2966 C2974 1.574 . S
C2966 C2982 1.368 1_554 S
H2967 C2975 0.950 . S
H2968 C2973 0.950 . S
H2969 C2974 0.949 . S
H2970 C2976 0.950 . S
H2971 C2977 0.950 . S
H2972 C2978 0.949 . S
C2973 H2968 0.950 . S
C2973 C2975 1.327 . S
C2973 C2979 1.429 . S
C2974 C2966 1.574 . S
C2974 H2969 0.949 . S
C2974 C2980 1.368 1_554 S
C2975 C2959 1.349 . S
C2975 H2967 0.950 . S
C2975 C2973 1.327 . S
C2976 C2964 1.349 . S
C2976 H2970 0.950 . S
C2976 C2977 1.327 . S
C2977 H2971 0.950 . S
C2977 C2976 1.327 . S
C2977 C2981 1.429 1_554 S
C2978 C2961 1.574 . S
C2978 H2972 0.949 . S
C2978 C2982 1.368 . S
C2979 C2960 1.429 1_556 S
C2979 C2973 1.429 . S
C2979 C2980 1.523 . S
C2980 C2961 1.368 . S
C2980 C2974 1.368 1_556 S
C2980 C2979 1.523 . S
C2981 C2965 1.429 . S
C2981 C2977 1.429 1_556 S
C2981 C2982 1.523 . S
C2982 C2966 1.368 1_556 S
C2982 C2978 1.368 . S
C2982 C2981 1.523 . S
H2983 C2958 0.950 . S
H2984 C2960 0.950 . S
H2985 C2961 0.949 . S
H2986 C2963 0.950 . S
H2987 C2965 0.950 . S
C2988 C2989 1.349 . S
C2988 C2990 1.327 . S
C2988 H3013 0.950 . S
C2989 C2988 1.349 . S
C2989 C3005 1.349 . S
C2990 C2988 1.327 . S
C2990 C3009 1.429 . S
C2990 H3014 0.950 . S
C2991 C3008 1.574 . S
C2991 C3010 1.368 . S
C2991 H3015 0.949 . S
H2992 C2996 0.949 . S
C2993 C2994 1.349 . S
C2993 C2995 1.327 . S
C2993 H3016 0.950 . S
C2994 C2993 1.349 . S
C2994 C3006 1.349 . S
C2995 C2993 1.327 . S
C2995 C3011 1.429 . S
C2995 H3017 0.950 . S
C2996 H2992 0.949 . S
C2996 C3004 1.574 . S
C2996 C3012 1.368 . S
H2997 C3005 0.950 . S
H2998 C3003 0.950 . S
H2999 C3004 0.949 . S
H3000 C3006 0.950 . S
H3001 C3007 0.950 . S
H3002 C3008 0.949 . S
C3003 H2998 0.950 . S
C3003 C3005 1.327 . S
C3003 C3009 1.429 . S
C3004 C2996 1.574 . S
C3004 H2999 0.949 . S
C3004 C3010 1.368 . S
C3005 C2989 1.349 . S
C3005 H2997 0.950 . S
C3005 C3003 1.327 . S
C3006 C2994 1.349 . S
C3006 H3000 0.950 . S
C3006 C3007 1.327 . S
C3007 H3001 0.950 . S
C3007 C3006 1.327 . S
C3007 C3011 1.429 . S
C3008 C2991 1.574 . S
C3008 H3002 0.949 . S
C3008 C3012 1.368 . S
C3009 C2990 1.429 . S
C3009 C3003 1.429 . S
C3009 C3010 1.523 . S
C3010 C2991 1.368 . S
C3010 C3004 1.368 . S
C3010 C3009 1.523 . S
C3011 C2995 1.429 . S
C3011 C3007 1.429 . S
C3011 C3012 1.523 . S
C3012 C2996 1.368 . S
C3012 C3008 1.368 . S
C3012 C3011 1.523 . S
H3013 C2988 0.950 . S
H3014 C2990 0.950 . S
H3015 C2991 0.949 . S
H3016 C2993 0.950 . S
H3017 C2995 0.950 . S
C3018 C3019 1.349 1_556 S
C3018 C3020 1.327 . S
C3018 H3043 0.950 . S
C3019 C3018 1.349 1_554 S
C3019 C3035 1.349 . S
C3020 C3018 1.327 . S
C3020 C3039 1.429 1_556 S
C3020 H3044 0.950 . S
C3021 C3038 1.574 . S
C3021 C3040 1.368 . S
C3021 H3045 0.949 . S
H3022 C3026 0.949 . S
C3023 C3024 1.349 1_554 S
C3023 C3025 1.327 . S
C3023 H3046 0.950 . S
C3024 C3023 1.349 1_556 S
C3024 C3036 1.349 . S
C3025 C3023 1.327 . S
C3025 C3041 1.429 1_554 S
C3025 H3047 0.950 . S
C3026 H3022 0.949 . S
C3026 C3034 1.574 . S
C3026 C3042 1.412 . S
H3027 C3035 0.950 . S
H3028 C3033 0.950 . S
H3029 C3034 0.949 . S
H3030 C3036 0.950 . S
H3031 C3037 0.950 . S
H3032 C3038 0.949 . S
C3033 H3028 0.950 . S
C3033 C3035 1.327 . S
C3033 C3039 1.429 . S
C3034 C3026 1.574 . S
C3034 H3029 0.949 . S
C3034 C3040 1.368 1_556 S
C3035 C3019 1.349 . S
C3035 H3027 0.950 . S
C3035 C3033 1.327 . S
C3036 C3024 1.349 . S
C3036 H3030 0.950 . S
C3036 C3037 1.327 . S
C3037 H3031 0.950 . S
C3037 C3036 1.327 . S
C3037 C3041 1.429 . S
C3038 C3021 1.574 . S
C3038 H3032 0.949 . S
C3038 C3042 1.320 1_554 S
C3039 C3020 1.429 1_554 S
C3039 C3033 1.429 . S
C3039 C3040 1.523 . S
C3040 C3021 1.368 . S
C3040 C3034 1.368 1_554 S
C3040 C3039 1.523 . S
C3041 C3025 1.429 1_556 S
C3041 C3037 1.429 . S
C3041 C3042 1.530 . S
C3042 C3026 1.412 . S
C3042 C3038 1.320 1_556 S
C3042 C3041 1.530 . S
H3043 C3018 0.950 . S
H3044 C3020 0.950 . S
H3045 C3021 0.949 . S
H3046 C3023 0.950 . S
H3047 C3025 0.950 . S
C3048 C3049 1.349 . S
C3048 C3050 1.327 . S
C3048 H3073 0.950 . S
C3049 C3048 1.349 . S
C3049 C3065 1.349 . S
C3050 C3048 1.327 . S
C3050 C3069 1.429 . S
C3050 H3074 0.950 . S
C3051 C3068 1.574 . S
C3051 C3070 1.368 . S
C3051 H3075 0.949 . S
H3052 C3056 0.949 . S
C3053 C3054 1.349 . S
C3053 C3055 1.327 . S
C3053 H3076 0.950 . S
C3054 C3053 1.349 . S
C3054 C3066 1.349 . S
C3055 C3053 1.327 . S
C3055 C3071 1.429 . S
C3055 H3077 0.950 . S
C3056 H3052 0.949 . S
C3056 C3064 1.574 . S
C3056 C3072 1.368 . S
H3057 C3065 0.950 . S
H3058 C3063 0.950 . S
H3059 C3064 0.949 . S
H3060 C3066 0.950 . S
H3061 C3067 0.950 . S
H3062 C3068 0.949 . S
C3063 H3058 0.950 . S
C3063 C3065 1.327 . S
C3063 C3069 1.429 . S
C3064 C3056 1.574 . S
C3064 H3059 0.949 . S
C3064 C3070 1.368 . S
C3065 C3049 1.349 . S
C3065 H3057 0.950 . S
C3065 C3063 1.327 . S
C3066 C3054 1.349 . S
C3066 H3060 0.950 . S
C3066 C3067 1.327 . S
C3067 H3061 0.950 . S
C3067 C3066 1.327 . S
C3067 C3071 1.429 . S
C3068 C3051 1.574 . S
C3068 H3062 0.949 . S
C3068 C3072 1.368 . S
C3069 C3050 1.429 . S
C3069 C3063 1.429 . S
C3069 C3070 1.523 . S
C3070 C3051 1.368 . S
C3070 C3064 1.368 . S
C3070 C3069 1.523 . S
C3071 C3055 1.429 . S
C3071 C3067 1.429 . S
C3071 C3072 1.523 . S
C3072 C3056 1.368 . S
C3072 C3068 1.368 . S
C3072 C3071 1.523 . S
H3073 C3048 0.950 . S
H3074 C3050 0.950 . S
H3075 C3051 0.949 . S
H3076 C3053 0.950 . S
H3077 C3055 0.950 . S
C3078 C3079 1.349 . S
C3078 C3080 1.327 . S
C3078 H3103 0.965 . S
C3079 C3078 1.349 . S
C3079 C3095 1.349 . S
C3080 C3078 1.327 . S
C3080 C3099 1.429 . S
C3080 H3104 0.950 1_655 S
C3081 C3098 1.574 . S
C3081 C3100 1.368 . S
C3081 H3105 0.949 . S
H3082 C3086 0.949 . S
C3083 C3084 1.349 1_655 S
C3083 C3085 1.327 . S
C3083 H3106 0.950 . S
C3084 C3083 1.349 1_455 S
C3084 C3096 1.349 . S
C3085 C3083 1.327 . S
C3085 C3101 1.429 . S
C3085 H3107 0.950 . S
C3086 H3082 0.949 . S
C3086 C3094 1.575 . S
C3086 C3102 1.368 1_455 S
H3087 C3095 0.950 . S
H3088 C3093 0.950 . S
H3089 C3094 0.957 . S
H3090 C3096 0.950 . S
H3091 C3097 0.950 . S
H3092 C3098 0.949 . S
C3093 H3088 0.950 . S
C3093 C3095 1.327 . S
C3093 C3099 1.429 . S
C3094 C3086 1.575 . S
C3094 H3089 0.957 . S
C3094 C3100 1.359 1_455 S
C3095 C3079 1.349 . S
C3095 H3087 0.950 . S
C3095 C3093 1.327 . S
C3096 C3084 1.349 . S
C3096 H3090 0.950 . S
C3096 C3097 1.327 . S
C3097 H3091 0.950 . S
C3097 C3096 1.327 . S
C3097 C3101 1.429 1_455 S
C3098 C3081 1.574 . S
C3098 H3092 0.949 . S
C3098 C3102 1.368 . S
C3099 C3080 1.429 . S
C3099 C3093 1.429 . S
C3099 C3100 1.523 . S
C3100 C3081 1.368 . S
C3100 C3094 1.359 1_655 S
C3100 C3099 1.523 . S
C3101 C3085 1.429 . S
C3101 C3097 1.429 1_655 S
C3101 C3102 1.523 . S
C3102 C3086 1.368 1_655 S
C3102 C3098 1.368 . S
C3102 C3101 1.523 . S
H3103 C3078 0.965 . S
H3104 C3080 0.950 1_455 S
H3105 C3081 0.949 . S
H3106 C3083 0.950 . S
H3107 C3085 0.950 . S
C3108 C3109 1.349 . S
C3108 C3110 1.327 . S
C3108 H3133 0.950 . S
C3109 C3108 1.349 . S
C3109 C3125 1.349 . S
C3110 C3108 1.327 . S
C3110 C3129 1.429 . S
C3110 H3134 0.950 . S
C3111 C3128 1.574 . S
C3111 C3130 1.368 . S
C3111 H3135 0.949 . S
H3112 C3116 0.949 . S
C3113 C3114 1.349 . S
C3113 C3115 1.327 . S
C3113 H3136 0.950 . S
C3114 C3113 1.349 . S
C3114 C3126 1.349 . S
C3115 C3113 1.327 . S
C3115 C3131 1.429 . S
C3115 H3137 0.950 . S
C3116 H3112 0.949 . S
C3116 C3124 1.574 . S
C3116 C3132 1.368 . S
H3117 C3125 0.950 . S
H3118 C3123 0.950 . S
H3119 C3124 0.949 . S
H3120 C3126 0.950 . S
H3121 C3127 0.950 . S
H3122 C3128 0.949 . S
C3123 H3118 0.950 . S
C3123 C3125 1.327 . S
C3123 C3129 1.429 . S
C3124 C3116 1.574 . S
C3124 H3119 0.949 . S
C3124 C3130 1.368 . S
C3125 C3109 1.349 . S
C3125 H3117 0.950 . S
C3125 C3123 1.327 . S
C3126 C3114 1.349 . S
C3126 H3120 0.950 . S
C3126 C3127 1.327 . S
C3127 H3121 0.950 . S
C3127 C3126 1.327 . S
C3127 C3131 1.429 . S
C3128 C3111 1.574 . S
C3128 H3122 0.949 . S
C3128 C3132 1.368 . S
C3129 C3110 1.429 . S
C3129 C3123 1.429 . S
C3129 C3130 1.523 . S
C3130 C3111 1.368 . S
C3130 C3124 1.368 . S
C3130 C3129 1.523 . S
C3131 C3115 1.429 . S
C3131 C3127 1.429 . S
C3131 C3132 1.523 . S
C3132 C3116 1.368 . S
C3132 C3128 1.368 . S
C3132 C3131 1.523 . S
H3133 C3108 0.950 . S
H3134 C3110 0.950 . S
H3135 C3111 0.949 . S
H3136 C3113 0.950 . S
H3137 C3115 0.950 . S
C3138 C3139 1.349 1_655 S
C3138 C3140 1.327 . S
C3138 H3163 0.950 . S
C3139 C3138 1.349 1_455 S
C3139 C3155 1.349 . S
C3140 C3138 1.327 . S
C3140 C3159 1.429 1_655 S
C3140 H3164 0.950 . S
C3141 C3158 1.574 . S
C3141 C3160 1.368 . S
C3141 H3165 0.949 . S
H3142 C3146 0.949 . S
C3143 C3144 1.349 1_455 S
C3143 C3145 1.327 . S
C3143 H3166 0.950 . S
C3144 C3143 1.349 1_655 S
C3144 C3156 1.349 . S
C3145 C3143 1.327 . S
C3145 C3161 1.429 1_455 S
C3145 H3167 0.950 . S
C3146 H3142 0.949 . S
C3146 C3154 1.574 . S
C3146 C3162 1.397 . S
H3147 C3155 0.950 . S
H3148 C3153 0.950 . S
H3149 C3154 0.949 . S
H3150 C3156 0.950 . S
H3151 C3157 0.950 . S
H3152 C3158 0.949 . S
C3153 H3148 0.950 . S
C3153 C3155 1.327 . S
C3153 C3159 1.429 . S
C3154 C3146 1.574 . S
C3154 H3149 0.949 . S
C3154 C3160 1.368 1_655 S
C3155 C3139 1.349 . S
C3155 H3147 0.950 . S
C3155 C3153 1.327 . S
C3156 C3144 1.349 . S
C3156 H3150 0.950 . S
C3156 C3157 1.327 . S
C3157 H3151 0.950 . S
C3157 C3156 1.327 . S
C3157 C3161 1.429 . S
C3158 C3141 1.574 . S
C3158 H3152 0.949 . S
C3158 C3162 1.336 1_455 S
C3159 C3140 1.429 1_455 S
C3159 C3153 1.429 . S
C3159 C3160 1.523 . S
C3160 C3141 1.368 . S
C3160 C3154 1.368 1_455 S
C3160 C3159 1.523 . S
C3161 C3145 1.429 1_655 S
C3161 C3157 1.429 . S
C3161 C3162 1.530 . S
C3162 C3146 1.397 . S
C3162 C3158 1.336 1_655 S
C3162 C3161 1.530 . S
H3163 C3138 0.950 . S
H3164 C3140 0.950 . S
H3165 C3141 0.949 . S
H3166 C3143 0.950 . S
H3167 C3145 0.950 . S
C3168 C3169 1.349 . S
C3168 C3170 1.327 . S
C3168 H3193 0.950 . S
C3169 C3168 1.349 . S
C3169 C3185 1.349 . S
C3170 C3168 1.327 . S
C3170 C3189 1.429 . S
C3170 H3194 0.950 . S
C3171 C3188 1.574 . S
C3171 C3190 1.368 . S
C3171 H3195 0.949 . S
H3172 C3176 0.949 . S
C3173 C3174 1.349 . S
C3173 C3175 1.327 . S
C3173 H3196 0.950 . S
C3174 C3173 1.349 . S
C3174 C3186 1.349 . S
C3175 C3173 1.327 . S
C3175 C3191 1.429 . S
C3175 H3197 0.950 . S
C3176 H3172 0.949 . S
C3176 C3184 1.574 . S
C3176 C3192 1.368 . S
H3177 C3185 0.950 . S
H3178 C3183 0.950 . S
H3179 C3184 0.949 . S
H3180 C3186 0.950 . S
H3181 C3187 0.950 . S
H3182 C3188 0.949 . S
C3183 H3178 0.950 . S
C3183 C3185 1.327 . S
C3183 C3189 1.429 . S
C3184 C3176 1.574 . S
C3184 H3179 0.949 . S
C3184 C3190 1.368 . S
C3185 C3169 1.349 . S
C3185 H3177 0.950 . S
C3185 C3183 1.327 . S
C3186 C3174 1.349 . S
C3186 H3180 0.950 . S
C3186 C3187 1.327 . S
C3187 H3181 0.950 . S
C3187 C3186 1.327 . S
C3187 C3191 1.429 . S
C3188 C3171 1.574 . S
C3188 H3182 0.949 . S
C3188 C3192 1.368 . S
C3189 C3170 1.429 . S
C3189 C3183 1.429 . S
C3189 C3190 1.523 . S
C3190 C3171 1.368 . S
C3190 C3184 1.368 . S
C3190 C3189 1.523 . S
C3191 C3175 1.429 . S
C3191 C3187 1.429 . S
C3191 C3192 1.523 . S
C3192 C3176 1.368 . S
C3192 C3188 1.368 . S
C3192 C3191 1.523 . S
H3193 C3168 0.950 . S
H3194 C3170 0.950 . S
H3195 C3171 0.949 . S
H3196 C3173 0.950 . S
H3197 C3175 0.950 . S
C3198 C3199 1.349 . S
C3198 C3200 1.327 . S
C3198 H3223 0.950 . S
C3199 C3198 1.349 . S
C3199 C3215 1.349 . S
C3200 C3198 1.327 . S
C3200 C3219 1.429 . S
C3200 H3224 0.950 . S
C3201 C3218 1.574 . S
C3201 C3220 1.368 . S
C3201 H3225 0.949 . S
H3202 C3206 0.949 . S
C3203 C3204 1.349 . S
C3203 C3205 1.327 . S
C3203 H3226 0.950 . S
C3204 C3203 1.349 . S
C3204 C3216 1.349 . S
C3205 C3203 1.327 . S
C3205 C3221 1.429 . S
C3205 H3227 0.950 . S
C3206 H3202 0.949 . S
C3206 C3214 1.574 . S
C3206 C3222 1.368 . S
H3207 C3215 0.950 . S
H3208 C3213 0.950 . S
H3209 C3214 0.949 . S
H3210 C3216 0.950 . S
H3211 C3217 0.950 . S
H3212 C3218 0.949 . S
C3213 H3208 0.950 . S
C3213 C3215 1.327 . S
C3213 C3219 1.429 . S
C3214 C3206 1.574 . S
C3214 H3209 0.949 . S
C3214 C3220 1.368 . S
C3215 C3199 1.349 . S
C3215 H3207 0.950 . S
C3215 C3213 1.327 . S
C3216 C3204 1.349 . S
C3216 H3210 0.950 . S
C3216 C3217 1.327 . S
C3217 H3211 0.950 . S
C3217 C3216 1.327 . S
C3217 C3221 1.429 . S
C3218 C3201 1.574 . S
C3218 H3212 0.949 . S
C3218 C3222 1.368 . S
C3219 C3200 1.429 . S
C3219 C3213 1.429 . S
C3219 C3220 1.523 . S
C3220 C3201 1.368 . S
C3220 C3214 1.368 . S
C3220 C3219 1.523 . S
C3221 C3205 1.429 . S
C3221 C3217 1.429 . S
C3221 C3222 1.523 . S
C3222 C3206 1.368 . S
C3222 C3218 1.368 . S
C3222 C3221 1.523 . S
H3223 C3198 0.950 . S
H3224 C3200 0.950 . S
H3225 C3201 0.949 . S
H3226 C3203 0.950 . S
H3227 C3205 0.950 . S
C3228 C3229 1.347 1_565 S
C3228 C3230 1.327 1_565 S
C3228 H3253 0.952 . S
C3229 C3228 1.347 1_545 S
C3229 C3245 1.349 . S
C3230 C3228 1.327 1_545 S
C3230 C3249 1.429 . S
C3230 H3254 0.950 1_545 S
C3231 C3248 1.574 . S
C3231 C3250 1.368 . S
C3231 H3255 0.949 . S
H3232 C3236 0.949 1_565 S
C3233 C3234 1.349 . S
C3233 C3235 1.327 . S
C3233 H3256 0.950 . S
C3234 C3233 1.349 . S
C3234 C3246 1.349 . S
C3235 C3233 1.327 . S
C3235 C3251 1.429 . S
C3235 H3257 0.950 . S
C3236 H3232 0.949 1_545 S
C3236 C3244 1.574 . S
C3236 C3252 1.368 . S
H3237 C3245 0.950 . S
H3238 C3243 0.950 . S
H3239 C3244 0.949 1_565 S
H3240 C3246 0.950 . S
H3241 C3247 0.943 1_565 S
H3242 C3248 0.949 . S
C3243 H3238 0.950 . S
C3243 C3245 1.327 . S
C3243 C3249 1.429 . S
C3244 C3236 1.574 . S
C3244 H3239 0.949 1_545 S
C3244 C3250 1.368 . S
C3245 C3229 1.349 . S
C3245 H3237 0.950 . S
C3245 C3243 1.327 . S
C3246 C3234 1.349 . S
C3246 H3240 0.950 . S
C3246 C3247 1.327 . S
C3247 H3241 0.943 1_545 S
C3247 C3246 1.327 . S
C3247 C3251 1.429 . S
C3248 C3231 1.574 . S
C3248 H3242 0.949 . S
C3248 C3252 1.368 . S
C3249 C3230 1.429 . S
C3249 C3243 1.429 . S
C3249 C3250 1.523 . S
C3250 C3231 1.368 . S
C3250 C3244 1.368 . S
C3250 C3249 1.523 . S
C3251 C3235 1.429 . S
C3251 C3247 1.429 . S
C3251 C3252 1.523 . S
C3252 C3236 1.368 . S
C3252 C3248 1.368 . S
C3252 C3251 1.523 . S
H3253 C3228 0.952 . S
H3254 C3230 0.950 1_565 S
H3255 C3231 0.949 . S
H3256 C3233 0.950 . S
H3257 C3235 0.950 . S
C3258 C3259 1.349 . S
C3258 C3260 1.327 . S
C3258 H3283 0.950 . S
C3259 C3258 1.349 . S
C3259 C3275 1.349 1_545 S
C3260 C3258 1.327 . S
C3260 C3279 1.429 . S
C3260 H3284 0.950 . S
C3261 C3278 1.574 . S
C3261 C3280 1.368 1_565 S
C3261 H3285 0.949 . S
H3262 C3266 0.949 . S
C3263 C3264 1.307 1_565 S
C3263 C3265 1.334 . S
C3263 H3286 0.987 . S
C3264 C3263 1.307 1_545 S
C3264 C3276 1.349 . S
C3265 C3263 1.334 . S
C3265 C3281 1.429 1_565 S
C3265 H3287 0.950 . S
C3266 H3262 0.949 . S
C3266 C3274 1.574 . S
C3266 C3282 1.368 . S
H3267 C3275 0.950 . S
H3268 C3273 0.950 . S
H3269 C3274 0.949 . S
H3270 C3276 0.950 . S
H3271 C3277 0.950 . S
H3272 C3278 0.949 . S
C3273 H3268 0.950 . S
C3273 C3275 1.327 . S
C3273 C3279 1.429 1_565 S
C3274 C3266 1.574 . S
C3274 H3269 0.949 . S
C3274 C3280 1.368 . S
C3275 C3259 1.349 1_565 S
C3275 H3267 0.950 . S
C3275 C3273 1.327 . S
C3276 C3264 1.349 . S
C3276 H3270 0.950 . S
C3276 C3277 1.327 . S
C3277 H3271 0.950 . S
C3277 C3276 1.327 . S
C3277 C3281 1.429 . S
C3278 C3261 1.574 . S
C3278 H3272 0.949 . S
C3278 C3282 1.368 1_565 S
C3279 C3260 1.429 . S
C3279 C3273 1.429 1_545 S
C3279 C3280 1.523 . S
C3280 C3261 1.368 1_545 S
C3280 C3274 1.368 . S
C3280 C3279 1.523 . S
C3281 C3265 1.429 1_545 S
C3281 C3277 1.429 . S
C3281 C3282 1.523 . S
C3282 C3266 1.368 . S
C3282 C3278 1.368 1_545 S
C3282 C3281 1.523 . S
H3283 C3258 0.950 . S
H3284 C3260 0.950 . S
H3285 C3261 0.949 . S
H3286 C3263 0.987 . S
H3287 C3265 0.950 . S
C3288 C3289 1.349 . S
C3288 C3290 1.327 . S
C3288 H3313 0.950 . S
C3289 C3288 1.349 . S
C3289 C3305 1.349 . S
C3290 C3288 1.327 . S
C3290 C3309 1.429 . S
C3290 H3314 0.950 . S
C3291 C3308 1.574 . S
C3291 C3310 1.368 . S
C3291 H3315 0.949 . S
H3292 C3296 0.949 . S
C3293 C3294 1.349 . S
C3293 C3295 1.327 . S
C3293 H3316 0.950 . S
C3294 C3293 1.349 . S
C3294 C3306 1.349 . S
C3295 C3293 1.327 . S
C3295 C3311 1.429 . S
C3295 H3317 0.950 . S
C3296 H3292 0.949 . S
C3296 C3304 1.574 . S
C3296 C3312 1.368 . S
H3297 C3305 0.950 . S
H3298 C3303 0.950 . S
H3299 C3304 0.949 . S
H3300 C3306 0.950 . S
H3301 C3307 0.950 . S
H3302 C3308 0.949 . S
C3303 H3298 0.950 . S
C3303 C3305 1.327 . S
C3303 C3309 1.429 . S
C3304 C3296 1.574 . S
C3304 H3299 0.949 . S
C3304 C3310 1.368 . S
C3305 C3289 1.349 . S
C3305 H3297 0.950 . S
C3305 C3303 1.327 . S
C3306 C3294 1.349 . S
C3306 H3300 0.950 . S
C3306 C3307 1.327 . S
C3307 H3301 0.950 . S
C3307 C3306 1.327 . S
C3307 C3311 1.429 . S
C3308 C3291 1.574 . S
C3308 H3302 0.949 . S
C3308 C3312 1.368 . S
C3309 C3290 1.429 . S
C3309 C3303 1.429 . S
C3309 C3310 1.523 . S
C3310 C3291 1.368 . S
C3310 C3304 1.368 . S
C3310 C3309 1.523 . S
C3311 C3295 1.429 . S
C3311 C3307 1.429 . S
C3311 C3312 1.523 . S
C3312 C3296 1.368 . S
C3312 C3308 1.368 . S
C3312 C3311 1.523 . S
H3313 C3288 0.950 . S
H3314 C3290 0.950 . S
H3315 C3291 0.949 . S
H3316 C3293 0.950 . S
H3317 C3295 0.950 . S
C3318 C3319 1.349 1_556 S
C3318 C3320 1.327 . S
C3318 H3343 0.950 . S
C3319 C3318 1.349 1_554 S
C3319 C3335 1.349 . S
C3320 C3318 1.327 . S
C3320 C3339 1.429 1_556 S
C3320 H3344 0.950 . S
C3321 C3338 1.574 . S
C3321 C3340 1.368 . S
C3321 H3345 0.949 . S
H3322 C3326 0.949 . S
C3323 C3324 1.349 . S
C3323 C3325 1.327 . S
C3323 H3346 0.950 . S
C3324 C3323 1.349 . S
C3324 C3336 1.403 . S
C3325 C3323 1.327 . S
C3325 C3341 1.429 . S
C3325 H3347 0.950 . S
C3326 H3322 0.949 . S
C3326 C3334 1.574 . S
C3326 C3342 1.368 1_556 S
H3327 C3335 0.950 . S
H3328 C3333 0.950 . S
H3329 C3334 0.949 . S
H3330 C3336 0.907 1_556 S
H3331 C3337 0.954 . S
H3332 C3338 0.949 . S
C3333 H3328 0.950 . S
C3333 C3335 1.327 . S
C3333 C3339 1.429 . S
C3334 C3326 1.574 . S
C3334 H3329 0.949 . S
C3334 C3340 1.368 1_556 S
C3335 C3319 1.349 . S
C3335 H3327 0.950 . S
C3335 C3333 1.327 . S
C3336 C3324 1.403 . S
C3336 H3330 0.907 1_554 S
C3336 C3337 1.320 1_554 S
C3337 H3331 0.954 . S
C3337 C3336 1.320 1_556 S
C3337 C3341 1.425 1_556 S
C3338 C3321 1.574 . S
C3338 H3332 0.949 . S
C3338 C3342 1.368 . S
C3339 C3320 1.429 1_554 S
C3339 C3333 1.429 . S
C3339 C3340 1.523 . S
C3340 C3321 1.368 . S
C3340 C3334 1.368 1_554 S
C3340 C3339 1.523 . S
C3341 C3325 1.429 . S
C3341 C3337 1.425 1_554 S
C3341 C3342 1.523 . S
C3342 C3326 1.368 1_554 S
C3342 C3338 1.368 . S
C3342 C3341 1.523 . S
H3343 C3318 0.950 . S
H3344 C3320 0.950 . S
H3345 C3321 0.949 . S
H3346 C3323 0.950 . S
H3347 C3325 0.950 . S
C3348 C3349 1.349 . S
C3348 C3350 1.327 . S
C3348 H3373 0.950 . S
C3349 C3348 1.349 . S
C3349 C3365 1.349 . S
C3350 C3348 1.327 . S
C3350 C3369 1.429 . S
C3350 H3374 0.950 . S
C3351 C3368 1.574 . S
C3351 C3370 1.368 . S
C3351 H3375 0.949 . S
H3352 C3356 0.949 . S
C3353 C3354 1.349 . S
C3353 C3355 1.327 . S
C3353 H3376 0.950 . S
C3354 C3353 1.349 . S
C3354 C3366 1.349 . S
C3355 C3353 1.327 . S
C3355 C3371 1.429 . S
C3355 H3377 0.950 . S
C3356 H3352 0.949 . S
C3356 C3364 1.574 . S
C3356 C3372 1.368 . S
H3357 C3365 0.950 . S
H3358 C3363 0.950 . S
H3359 C3364 0.949 . S
H3360 C3366 0.950 . S
H3361 C3367 0.950 . S
H3362 C3368 0.949 . S
C3363 H3358 0.950 . S
C3363 C3365 1.327 . S
C3363 C3369 1.429 . S
C3364 C3356 1.574 . S
C3364 H3359 0.949 . S
C3364 C3370 1.368 . S
C3365 C3349 1.349 . S
C3365 H3357 0.950 . S
C3365 C3363 1.327 . S
C3366 C3354 1.349 . S
C3366 H3360 0.950 . S
C3366 C3367 1.327 . S
C3367 H3361 0.950 . S
C3367 C3366 1.327 . S
C3367 C3371 1.429 . S
C3368 C3351 1.574 . S
C3368 H3362 0.949 . S
C3368 C3372 1.368 . S
C3369 C3350 1.429 . S
C3369 C3363 1.429 . S
C3369 C3370 1.523 . S
C3370 C3351 1.368 . S
C3370 C3364 1.368 . S
C3370 C3369 1.523 . S
C3371 C3355 1.429 . S
C3371 C3367 1.429 . S
C3371 C3372 1.523 . S
C3372 C3356 1.368 . S
C3372 C3368 1.368 . S
C3372 C3371 1.523 . S
H3373 C3348 0.950 . S
H3374 C3350 0.950 . S
H3375 C3351 0.949 . S
H3376 C3353 0.950 . S
H3377 C3355 0.950 . S
C3378 C3379 1.349 . S
C3378 C3380 1.327 . S
C3378 H3403 0.950 . S
C3379 C3378 1.349 . S
C3379 C3395 1.349 . S
C3380 C3378 1.327 . S
C3380 C3399 1.429 . S
C3380 H3404 0.950 . S
C3381 C3398 1.574 . S
C3381 C3400 1.368 . S
C3381 H3405 0.949 1_554 S
H3382 C3386 0.949 . S
C3383 C3384 1.349 . S
C3383 C3385 1.327 . S
C3383 H3406 0.950 . S
C3384 C3383 1.349 . S
C3384 C3396 1.349 . S
C3385 C3383 1.327 . S
C3385 C3401 1.429 . S
C3385 H3407 0.950 . S
C3386 H3382 0.949 . S
C3386 C3394 1.574 . S
C3386 C3402 1.368 . S
H3387 C3395 0.950 1_556 S
H3388 C3393 0.950 1_556 S
H3389 C3394 0.949 . S
H3390 C3396 0.950 . S
H3391 C3397 0.950 . S
H3392 C3398 0.948 1_556 S
C3393 H3388 0.950 1_554 S
C3393 C3395 1.327 . S
C3393 C3399 1.429 . S
C3394 C3386 1.574 . S
C3394 H3389 0.949 . S
C3394 C3400 1.368 . S
C3395 C3379 1.349 . S
C3395 H3387 0.950 1_554 S
C3395 C3393 1.327 . S
C3396 C3384 1.349 . S
C3396 H3390 0.950 . S
C3396 C3397 1.327 . S
C3397 H3391 0.950 . S
C3397 C3396 1.327 . S
C3397 C3401 1.429 . S
C3398 C3381 1.574 . S
C3398 H3392 0.948 1_554 S
C3398 C3402 1.368 . S
C3399 C3380 1.429 . S
C3399 C3393 1.429 . S
C3399 C3400 1.523 . S
C3400 C3381 1.368 . S
C3400 C3394 1.368 . S
C3400 C3399 1.523 . S
C3401 C3385 1.429 . S
C3401 C3397 1.429 . S
C3401 C3402 1.523 . S
C3402 C3386 1.368 . S
C3402 C3398 1.368 . S
C3402 C3401 1.523 . S
H3403 C3378 0.950 . S
H3404 C3380 0.950 . S
H3405 C3381 0.949 1_556 S
H3406 C3383 0.950 . S
H3407 C3385 0.950 . S
C3408 C3409 1.349 . S
C3408 C3410 1.327 . S
C3408 H3433 0.950 . S
C3409 C3408 1.349 . S
C3409 C3425 1.349 . S
C3410 C3408 1.327 . S
C3410 C3429 1.429 . S
C3410 H3434 0.950 . S
C3411 C3428 1.574 . S
C3411 C3430 1.368 . S
C3411 H3435 0.949 . S
H3412 C3416 0.949 . S
C3413 C3414 1.349 . S
C3413 C3415 1.327 . S
C3413 H3436 0.950 . S
C3414 C3413 1.349 . S
C3414 C3426 1.349 . S
C3415 C3413 1.327 . S
C3415 C3431 1.429 . S
C3415 H3437 0.950 . S
C3416 H3412 0.949 . S
C3416 C3424 1.574 . S
C3416 C3432 1.368 . S
H3417 C3425 0.950 . S
H3418 C3423 0.950 . S
H3419 C3424 0.949 . S
H3420 C3426 0.950 . S
H3421 C3427 0.950 . S
H3422 C3428 0.949 . S
C3423 H3418 0.950 . S
C3423 C3425 1.327 . S
C3423 C3429 1.429 . S
C3424 C3416 1.574 . S
C3424 H3419 0.949 . S
C3424 C3430 1.368 . S
C3425 C3409 1.349 . S
C3425 H3417 0.950 . S
C3425 C3423 1.327 . S
C3426 C3414 1.349 . S
C3426 H3420 0.950 . S
C3426 C3427 1.327 . S
C3427 H3421 0.950 . S
C3427 C3426 1.327 . S
C3427 C3431 1.429 . S
C3428 C3411 1.574 . S
C3428 H3422 0.949 . S
C3428 C3432 1.368 . S
C3429 C3410 1.429 . S
C3429 C3423 1.429 . S
C3429 C3430 1.523 . S
C3430 C3411 1.368 . S
C3430 C3424 1.368 . S
C3430 C3429 1.523 . S
C3431 C3415 1.429 . S
C3431 C3427 1.429 . S
C3431 C3432 1.523 . S
C3432 C3416 1.368 . S
C3432 C3428 1.368 . S
C3432 C3431 1.523 . S
H3433 C3408 0.950 . S
H3434 C3410 0.950 . S
H3435 C3411 0.949 . S
H3436 C3413 0.950 . S
H3437 C3415 0.950 . S
C3438 C3439 1.349 . S
C3438 C3440 1.327 . S
C3438 H3463 0.950 . S
C3439 C3438 1.349 . S
C3439 C3455 1.349 1_455 S
C3440 C3438 1.327 . S
C3440 C3459 1.429 . S
C3440 H3464 0.950 . S
C3441 C3458 1.574 . S
C3441 C3460 1.368 1_655 S
C3441 H3465 0.949 . S
H3442 C3446 0.949 . S
C3443 C3444 1.349 . S
C3443 C3445 1.327 1_455 S
C3443 H3466 0.950 1_455 S
C3444 C3443 1.349 . S
C3444 C3456 1.349 . S
C3445 C3443 1.327 1_655 S
C3445 C3461 1.429 1_655 S
C3445 H3467 0.950 . S
C3446 H3442 0.949 . S
C3446 C3454 1.574 . S
C3446 C3462 1.368 . S
H3447 C3455 0.950 . S
H3448 C3453 0.950 . S
H3449 C3454 0.949 . S
H3450 C3456 0.950 . S
H3451 C3457 0.950 . S
H3452 C3458 0.949 . S
C3453 H3448 0.950 . S
C3453 C3455 1.327 . S
C3453 C3459 1.429 1_655 S
C3454 C3446 1.574 . S
C3454 H3449 0.949 . S
C3454 C3460 1.368 . S
C3455 C3439 1.349 1_655 S
C3455 H3447 0.950 . S
C3455 C3453 1.327 . S
C3456 C3444 1.349 . S
C3456 H3450 0.950 . S
C3456 C3457 1.327 . S
C3457 H3451 0.950 . S
C3457 C3456 1.327 . S
C3457 C3461 1.429 . S
C3458 C3441 1.574 . S
C3458 H3452 0.949 . S
C3458 C3462 1.368 1_655 S
C3459 C3440 1.429 . S
C3459 C3453 1.429 1_455 S
C3459 C3460 1.523 . S
C3460 C3441 1.368 1_455 S
C3460 C3454 1.368 . S
C3460 C3459 1.523 . S
C3461 C3445 1.429 1_455 S
C3461 C3457 1.429 . S
C3461 C3462 1.523 . S
C3462 C3446 1.368 . S
C3462 C3458 1.368 1_455 S
C3462 C3461 1.523 . S
H3463 C3438 0.950 . S
H3464 C3440 0.950 . S
H3465 C3441 0.949 . S
H3466 C3443 0.950 1_655 S
H3467 C3445 0.950 . S
C3468 C3469 1.349 . S
C3468 C3470 1.327 . S
C3468 H3493 0.950 . S
C3469 C3468 1.349 . S
C3469 C3485 1.349 . S
C3470 C3468 1.327 . S
C3470 C3489 1.429 . S
C3470 H3494 0.950 . S
C3471 C3488 1.574 . S
C3471 C3490 1.368 . S
C3471 H3495 0.949 . S
H3472 C3476 0.949 . S
C3473 C3474 1.349 . S
C3473 C3475 1.327 . S
C3473 H3496 0.950 . S
C3474 C3473 1.349 . S
C3474 C3486 1.349 . S
C3475 C3473 1.327 . S
C3475 C3491 1.429 . S
C3475 H3497 0.950 . S
C3476 H3472 0.949 . S
C3476 C3484 1.574 . S
C3476 C3492 1.368 . S
H3477 C3485 0.950 . S
H3478 C3483 0.950 . S
H3479 C3484 0.949 . S
H3480 C3486 0.950 . S
H3481 C3487 0.950 . S
H3482 C3488 0.949 . S
C3483 H3478 0.950 . S
C3483 C3485 1.327 . S
C3483 C3489 1.429 . S
C3484 C3476 1.574 . S
C3484 H3479 0.949 . S
C3484 C3490 1.368 . S
C3485 C3469 1.349 . S
C3485 H3477 0.950 . S
C3485 C3483 1.327 . S
C3486 C3474 1.349 . S
C3486 H3480 0.950 . S
C3486 C3487 1.327 . S
C3487 H3481 0.950 . S
C3487 C3486 1.327 . S
C3487 C3491 1.429 . S
C3488 C3471 1.574 . S
C3488 H3482 0.949 . S
C3488 C3492 1.368 . S
C3489 C3470 1.429 . S
C3489 C3483 1.429 . S
C3489 C3490 1.523 . S
C3490 C3471 1.368 . S
C3490 C3484 1.368 . S
C3490 C3489 1.523 . S
C3491 C3475 1.429 . S
C3491 C3487 1.429 . S
C3491 C3492 1.523 . S
C3492 C3476 1.368 . S
C3492 C3488 1.368 . S
C3492 C3491 1.523 . S
H3493 C3468 0.950 . S
H3494 C3470 0.950 . S
H3495 C3471 0.949 . S
H3496 C3473 0.950 . S
H3497 C3475 0.950 . S
C3498 C3499 1.349 . S
C3498 C3500 1.327 . S
C3498 H3523 0.950 1_455 S
C3499 C3498 1.349 . S
C3499 C3515 1.349 . S
C3500 C3498 1.327 . S
C3500 C3519 1.429 . S
C3500 H3524 0.950 1_455 S
C3501 C3518 1.574 . S
C3501 C3520 1.368 . S
C3501 H3525 0.949 . S
H3502 C3506 0.949 . S
C3503 C3504 1.349 . S
C3503 C3505 1.327 . S
C3503 H3526 0.950 . S
C3504 C3503 1.349 . S
C3504 C3516 1.349 . S
C3505 C3503 1.327 . S
C3505 C3521 1.429 . S
C3505 H3527 0.950 . S
C3506 H3502 0.949 . S
C3506 C3514 1.574 . S
C3506 C3522 1.368 . S
H3507 C3515 0.950 . S
H3508 C3513 0.950 . S
H3509 C3514 0.950 . S
H3510 C3516 0.950 . S
H3511 C3517 0.950 . S
H3512 C3518 0.949 . S
C3513 H3508 0.950 . S
C3513 C3515 1.327 . S
C3513 C3519 1.429 . S
C3514 C3506 1.574 . S
C3514 H3509 0.950 . S
C3514 C3520 1.368 . S
C3515 C3499 1.349 . S
C3515 H3507 0.950 . S
C3515 C3513 1.327 . S
C3516 C3504 1.349 . S
C3516 H3510 0.950 . S
C3516 C3517 1.327 . S
C3517 H3511 0.950 . S
C3517 C3516 1.327 . S
C3517 C3521 1.429 . S
C3518 C3501 1.574 . S
C3518 H3512 0.949 . S
C3518 C3522 1.368 . S
C3519 C3500 1.429 . S
C3519 C3513 1.429 . S
C3519 C3520 1.523 . S
C3520 C3501 1.368 . S
C3520 C3514 1.368 . S
C3520 C3519 1.523 . S
C3521 C3505 1.429 . S
C3521 C3517 1.429 . S
C3521 C3522 1.523 . S
C3522 C3506 1.368 . S
C3522 C3518 1.368 . S
C3522 C3521 1.523 . S
H3523 C3498 0.950 1_655 S
H3524 C3500 0.950 1_655 S
H3525 C3501 0.949 . S
H3526 C3503 0.950 . S
H3527 C3505 0.950 . S
C3528 C3529 1.349 . S
C3528 C3530 1.327 . S
C3528 H3553 0.950 . S
C3529 C3528 1.349 . S
C3529 C3545 1.349 . S
C3530 C3528 1.327 . S
C3530 C3549 1.429 . S
C3530 H3554 0.950 . S
C3531 C3548 1.574 . S
C3531 C3550 1.368 . S
C3531 H3555 0.949 . S
H3532 C3536 0.949 . S
C3533 C3534 1.349 . S
C3533 C3535 1.327 . S
C3533 H3556 0.950 . S
C3534 C3533 1.349 . S
C3534 C3546 1.349 . S
C3535 C3533 1.327 . S
C3535 C3551 1.429 . S
C3535 H3557 0.950 . S
C3536 H3532 0.949 . S
C3536 C3544 1.574 . S
C3536 C3552 1.368 . S
H3537 C3545 0.950 . S
H3538 C3543 0.950 . S
H3539 C3544 0.949 . S
H3540 C3546 0.950 . S
H3541 C3547 0.950 . S
H3542 C3548 0.949 . S
C3543 H3538 0.950 . S
C3543 C3545 1.327 . S
C3543 C3549 1.429 . S
C3544 C3536 1.574 . S
C3544 H3539 0.949 . S
C3544 C3550 1.368 . S
C3545 C3529 1.349 . S
C3545 H3537 0.950 . S
C3545 C3543 1.327 . S
C3546 C3534 1.349 . S
C3546 H3540 0.950 . S
C3546 C3547 1.327 . S
C3547 H3541 0.950 . S
C3547 C3546 1.327 . S
C3547 C3551 1.429 . S
C3548 C3531 1.574 . S
C3548 H3542 0.949 . S
C3548 C3552 1.368 . S
C3549 C3530 1.429 . S
C3549 C3543 1.429 . S
C3549 C3550 1.523 . S
C3550 C3531 1.368 . S
C3550 C3544 1.368 . S
C3550 C3549 1.523 . S
C3551 C3535 1.429 . S
C3551 C3547 1.429 . S
C3551 C3552 1.523 . S
C3552 C3536 1.368 . S
C3552 C3548 1.368 . S
C3552 C3551 1.523 . S
H3553 C3528 0.950 . S
H3554 C3530 0.950 . S
H3555 C3531 0.949 . S
H3556 C3533 0.950 . S
H3557 C3535 0.950 . S
C3558 C3559 1.349 . S
C3558 C3560 1.327 . S
C3558 H3583 0.950 . S
C3559 C3558 1.349 . S
C3559 C3575 1.349 . S
C3560 C3558 1.327 . S
C3560 C3579 1.429 . S
C3560 H3584 0.950 . S
C3561 C3578 1.574 . S
C3561 C3580 1.368 . S
C3561 H3585 0.949 . S
H3562 C3566 0.949 . S
C3563 C3564 1.349 . S
C3563 C3565 1.327 . S
C3563 H3586 0.950 . S
C3564 C3563 1.349 . S
C3564 C3576 1.349 . S
C3565 C3563 1.327 . S
C3565 C3581 1.429 . S
C3565 H3587 0.950 . S
C3566 H3562 0.949 . S
C3566 C3574 1.574 . S
C3566 C3582 1.368 . S
H3567 C3575 0.950 . S
H3568 C3573 0.950 . S
H3569 C3574 0.949 . S
H3570 C3576 0.950 . S
H3571 C3577 0.950 . S
H3572 C3578 0.949 . S
C3573 H3568 0.950 . S
C3573 C3575 1.327 . S
C3573 C3579 1.429 . S
C3574 C3566 1.574 . S
C3574 H3569 0.949 . S
C3574 C3580 1.368 . S
C3575 C3559 1.349 . S
C3575 H3567 0.950 . S
C3575 C3573 1.327 . S
C3576 C3564 1.349 . S
C3576 H3570 0.950 . S
C3576 C3577 1.327 . S
C3577 H3571 0.950 . S
C3577 C3576 1.327 . S
C3577 C3581 1.429 . S
C3578 C3561 1.574 . S
C3578 H3572 0.949 . S
C3578 C3582 1.368 . S
C3579 C3560 1.429 . S
C3579 C3573 1.429 . S
C3579 C3580 1.523 . S
C3580 C3561 1.368 . S
C3580 C3574 1.368 . S
C3580 C3579 1.523 . S
C3581 C3565 1.429 . S
C3581 C3577 1.429 . S
C3581 C3582 1.523 . S
C3582 C3566 1.368 . S
C3582 C3578 1.368 . S
C3582 C3581 1.523 . S
H3583 C3558 0.950 . S
H3584 C3560 0.950 . S
H3585 C3561 0.949 . S
H3586 C3563 0.950 . S
H3587 C3565 0.950 . S
C3588 C3589 1.349 . S
C3588 C3590 1.327 . S
C3588 H3613 0.950 . S
C3589 C3588 1.349 . S
C3589 C3605 1.349 . S
C3590 C3588 1.327 . S
C3590 C3609 1.429 . S
C3590 H3614 0.950 . S
C3591 C3608 1.574 . S
C3591 C3610 1.368 . S
C3591 H3615 0.949 1_565 S
H3592 C3596 0.949 . S
C3593 C3594 1.349 . S
C3593 C3595 1.327 . S
C3593 H3616 0.950 . S
C3594 C3593 1.349 . S
C3594 C3606 1.349 . S
C3595 C3593 1.327 . S
C3595 C3611 1.429 . S
C3595 H3617 0.950 . S
C3596 H3592 0.949 . S
C3596 C3604 1.574 . S
C3596 C3612 1.368 . S
H3597 C3605 0.950 1_545 S
H3598 C3603 0.950 1_545 S
H3599 C3604 0.949 . S
H3600 C3606 0.950 . S
H3601 C3607 0.950 . S
H3602 C3608 0.949 . S
C3603 H3598 0.950 1_565 S
C3603 C3605 1.327 . S
C3603 C3609 1.429 . S
C3604 C3596 1.574 . S
C3604 H3599 0.949 . S
C3604 C3610 1.368 . S
C3605 C3589 1.349 . S
C3605 H3597 0.950 1_565 S
C3605 C3603 1.327 . S
C3606 C3594 1.349 . S
C3606 H3600 0.950 . S
C3606 C3607 1.327 . S
C3607 H3601 0.950 . S
C3607 C3606 1.327 . S
C3607 C3611 1.429 . S
C3608 C3591 1.574 . S
C3608 H3602 0.949 . S
C3608 C3612 1.368 . S
C3609 C3590 1.429 . S
C3609 C3603 1.429 . S
C3609 C3610 1.523 . S
C3610 C3591 1.368 . S
C3610 C3604 1.368 . S
C3610 C3609 1.523 . S
C3611 C3595 1.429 . S
C3611 C3607 1.429 . S
C3611 C3612 1.523 . S
C3612 C3596 1.368 . S
C3612 C3608 1.368 . S
C3612 C3611 1.523 . S
H3613 C3588 0.950 . S
H3614 C3590 0.950 . S
H3615 C3591 0.949 1_545 S
H3616 C3593 0.950 . S
H3617 C3595 0.950 . S
C3618 C3619 1.349 1_545 S
C3618 C3620 1.327 . S
C3618 H3643 0.950 . S
C3619 C3618 1.349 1_565 S
C3619 C3635 1.349 . S
C3620 C3618 1.327 . S
C3620 C3639 1.429 1_545 S
C3620 H3644 0.950 . S
C3621 C3638 1.574 . S
C3621 C3640 1.368 . S
C3621 H3645 0.949 . S
H3622 C3626 0.949 . S
C3623 C3624 1.349 . S
C3623 C3625 1.327 . S
C3623 H3646 0.950 . S
C3624 C3623 1.349 . S
C3624 C3636 1.349 1_565 S
C3625 C3623 1.327 . S
C3625 C3641 1.429 . S
C3625 H3647 0.950 . S
C3626 H3622 0.949 . S
C3626 C3634 1.574 . S
C3626 C3642 1.368 1_545 S
H3627 C3635 0.950 . S
H3628 C3633 0.950 . S
H3629 C3634 0.949 . S
H3630 C3636 0.950 . S
H3631 C3637 0.950 . S
H3632 C3638 0.949 . S
C3633 H3628 0.950 . S
C3633 C3635 1.327 . S
C3633 C3639 1.429 . S
C3634 C3626 1.574 . S
C3634 H3629 0.949 . S
C3634 C3640 1.368 1_545 S
C3635 C3619 1.349 . S
C3635 H3627 0.950 . S
C3635 C3633 1.327 . S
C3636 C3624 1.349 1_545 S
C3636 H3630 0.950 . S
C3636 C3637 1.327 . S
C3637 H3631 0.950 . S
C3637 C3636 1.327 . S
C3637 C3641 1.429 1_545 S
C3638 C3621 1.574 . S
C3638 H3632 0.949 . S
C3638 C3642 1.368 . S
C3639 C3620 1.429 1_565 S
C3639 C3633 1.429 . S
C3639 C3640 1.523 . S
C3640 C3621 1.368 . S
C3640 C3634 1.368 1_565 S
C3640 C3639 1.523 . S
C3641 C3625 1.429 . S
C3641 C3637 1.429 1_565 S
C3641 C3642 1.523 . S
C3642 C3626 1.368 1_565 S
C3642 C3638 1.368 . S
C3642 C3641 1.523 . S
H3643 C3618 0.950 . S
H3644 C3620 0.950 . S
H3645 C3621 0.949 . S
H3646 C3623 0.950 . S
H3647 C3625 0.950 . S
C3648 C3649 1.349 . S
C3648 C3650 1.327 . S
C3648 H3673 0.950 . S
C3649 C3648 1.349 . S
C3649 C3665 1.349 . S
C3650 C3648 1.327 . S
C3650 C3669 1.429 . S
C3650 H3674 0.950 . S
C3651 C3668 1.574 . S
C3651 C3670 1.368 . S
C3651 H3675 0.949 . S
H3652 C3656 0.949 . S
C3653 C3654 1.349 . S
C3653 C3655 1.327 . S
C3653 H3676 0.950 . S
C3654 C3653 1.349 . S
C3654 C3666 1.349 . S
C3655 C3653 1.327 . S
C3655 C3671 1.429 . S
C3655 H3677 0.950 . S
C3656 H3652 0.949 . S
C3656 C3664 1.574 . S
C3656 C3672 1.368 . S
H3657 C3665 0.950 . S
H3658 C3663 0.950 . S
H3659 C3664 0.949 . S
H3660 C3666 0.950 . S
H3661 C3667 0.950 . S
H3662 C3668 0.949 . S
C3663 H3658 0.950 . S
C3663 C3665 1.327 . S
C3663 C3669 1.429 . S
C3664 C3656 1.574 . S
C3664 H3659 0.949 . S
C3664 C3670 1.368 . S
C3665 C3649 1.349 . S
C3665 H3657 0.950 . S
C3665 C3663 1.327 . S
C3666 C3654 1.349 . S
C3666 H3660 0.950 . S
C3666 C3667 1.327 . S
C3667 H3661 0.950 . S
C3667 C3666 1.327 . S
C3667 C3671 1.429 . S
C3668 C3651 1.574 . S
C3668 H3662 0.949 . S
C3668 C3672 1.368 . S
C3669 C3650 1.429 . S
C3669 C3663 1.429 . S
C3669 C3670 1.523 . S
C3670 C3651 1.368 . S
C3670 C3664 1.368 . S
C3670 C3669 1.523 . S
C3671 C3655 1.429 . S
C3671 C3667 1.429 . S
C3671 C3672 1.523 . S
C3672 C3656 1.368 . S
C3672 C3668 1.368 . S
C3672 C3671 1.523 . S
H3673 C3648 0.950 . S
H3674 C3650 0.950 . S
H3675 C3651 0.949 . S
H3676 C3653 0.950 . S
H3677 C3655 0.950 . S
C3678 C3679 1.349 1_554 S
C3678 C3680 1.327 . S
C3678 H3703 0.950 . S
C3679 C3678 1.349 1_556 S
C3679 C3695 1.349 . S
C3680 C3678 1.327 . S
C3680 C3699 1.429 1_554 S
C3680 H3704 0.950 . S
C3681 C3698 1.574 . S
C3681 C3700 1.368 . S
C3681 H3705 0.949 . S
H3682 C3686 0.949 . S
C3683 C3684 1.349 . S
C3683 C3685 1.327 . S
C3683 H3706 0.950 . S
C3684 C3683 1.349 . S
C3684 C3696 1.320 1_556 S
C3685 C3683 1.327 . S
C3685 C3701 1.429 . S
C3685 H3707 0.950 . S
C3686 H3682 0.949 . S
C3686 C3694 1.574 . S
C3686 C3702 1.368 1_554 S
H3687 C3695 0.950 . S
H3688 C3693 0.950 . S
H3689 C3694 0.949 . S
H3690 C3696 0.975 . S
H3691 C3697 0.950 . S
H3692 C3698 0.949 . S
C3693 H3688 0.950 . S
C3693 C3695 1.327 . S
C3693 C3699 1.429 . S
C3694 C3686 1.574 . S
C3694 H3689 0.949 . S
C3694 C3700 1.368 1_554 S
C3695 C3679 1.349 . S
C3695 H3687 0.950 . S
C3695 C3693 1.327 . S
C3696 C3684 1.320 1_554 S
C3696 H3690 0.975 . S
C3696 C3697 1.332 . S
C3697 H3691 0.950 . S
C3697 C3696 1.332 . S
C3697 C3701 1.429 1_554 S
C3698 C3681 1.574 . S
C3698 H3692 0.949 . S
C3698 C3702 1.368 . S
C3699 C3680 1.429 1_556 S
C3699 C3693 1.429 . S
C3699 C3700 1.523 . S
C3700 C3681 1.368 . S
C3700 C3694 1.368 1_556 S
C3700 C3699 1.523 . S
C3701 C3685 1.429 . S
C3701 C3697 1.429 1_556 S
C3701 C3702 1.523 . S
C3702 C3686 1.368 1_556 S
C3702 C3698 1.368 . S
C3702 C3701 1.523 . S
H3703 C3678 0.950 . S
H3704 C3680 0.950 . S
H3705 C3681 0.949 . S
H3706 C3683 0.950 . S
H3707 C3685 0.950 . S
C3708 C3709 1.349 . S
C3708 C3710 1.327 . S
C3708 H3733 0.950 . S
C3709 C3708 1.349 . S
C3709 C3725 1.349 . S
C3710 C3708 1.327 . S
C3710 C3729 1.429 . S
C3710 H3734 0.950 . S
C3711 C3728 1.574 . S
C3711 C3730 1.368 . S
C3711 H3735 0.949 . S
H3712 C3716 0.949 . S
C3713 C3714 1.349 . S
C3713 C3715 1.327 . S
C3713 H3736 0.950 . S
C3714 C3713 1.349 . S
C3714 C3726 1.349 . S
C3715 C3713 1.327 . S
C3715 C3731 1.429 . S
C3715 H3737 0.950 . S
C3716 H3712 0.949 . S
C3716 C3724 1.574 . S
C3716 C3732 1.368 . S
H3717 C3725 0.950 . S
H3718 C3723 0.950 . S
H3719 C3724 0.949 . S
H3720 C3726 0.950 . S
H3721 C3727 0.950 . S
H3722 C3728 0.949 . S
C3723 H3718 0.950 . S
C3723 C3725 1.327 . S
C3723 C3729 1.429 . S
C3724 C3716 1.574 . S
C3724 H3719 0.949 . S
C3724 C3730 1.368 . S
C3725 C3709 1.349 . S
C3725 H3717 0.950 . S
C3725 C3723 1.327 . S
C3726 C3714 1.349 . S
C3726 H3720 0.950 . S
C3726 C3727 1.327 . S
C3727 H3721 0.950 . S
C3727 C3726 1.327 . S
C3727 C3731 1.429 . S
C3728 C3711 1.574 . S
C3728 H3722 0.949 . S
C3728 C3732 1.368 . S
C3729 C3710 1.429 . S
C3729 C3723 1.429 . S
C3729 C3730 1.523 . S
C3730 C3711 1.368 . S
C3730 C3724 1.368 . S
C3730 C3729 1.523 . S
C3731 C3715 1.429 . S
C3731 C3727 1.429 . S
C3731 C3732 1.523 . S
C3732 C3716 1.368 . S
C3732 C3728 1.368 . S
C3732 C3731 1.523 . S
H3733 C3708 0.950 . S
H3734 C3710 0.950 . S
H3735 C3711 0.949 . S
H3736 C3713 0.950 . S
H3737 C3715 0.950 . S
C3738 C3739 1.345 1_554 S
C3738 C3740 1.327 1_554 S
C3738 H3763 0.954 . S
C3739 C3738 1.345 1_556 S
C3739 C3755 1.349 . S
C3740 C3738 1.327 1_556 S
C3740 C3759 1.496 . S
C3740 H3764 0.886 1_556 S
C3741 C3758 1.574 . S
C3741 C3760 1.368 . S
C3741 H3765 0.949 . S
H3742 C3746 0.949 1_554 S
C3743 C3744 1.349 . S
C3743 C3745 1.327 . S
C3743 H3766 0.950 . S
C3744 C3743 1.349 . S
C3744 C3756 1.349 . S
C3745 C3743 1.327 . S
C3745 C3761 1.429 . S
C3745 H3767 0.950 . S
C3746 H3742 0.949 1_556 S
C3746 C3754 1.574 . S
C3746 C3762 1.368 . S
H3747 C3755 0.950 . S
H3748 C3753 0.950 . S
H3749 C3754 0.949 1_554 S
H3750 C3756 0.950 . S
H3751 C3757 0.945 1_554 S
H3752 C3758 0.949 . S
C3753 H3748 0.950 . S
C3753 C3755 1.327 . S
C3753 C3759 1.429 . S
C3754 C3746 1.574 . S
C3754 H3749 0.949 1_556 S
C3754 C3760 1.368 . S
C3755 C3739 1.349 . S
C3755 H3747 0.950 . S
C3755 C3753 1.327 . S
C3756 C3744 1.349 . S
C3756 H3750 0.950 . S
C3756 C3757 1.327 . S
C3757 H3751 0.945 1_556 S
C3757 C3756 1.327 . S
C3757 C3761 1.429 . S
C3758 C3741 1.574 . S
C3758 H3752 0.949 . S
C3758 C3762 1.368 . S
C3759 C3740 1.496 . S
C3759 C3753 1.429 . S
C3759 C3760 1.523 . S
C3760 C3741 1.368 . S
C3760 C3754 1.368 . S
C3760 C3759 1.523 . S
C3761 C3745 1.429 . S
C3761 C3757 1.429 . S
C3761 C3762 1.523 . S
C3762 C3746 1.368 . S
C3762 C3758 1.368 . S
C3762 C3761 1.523 . S
H3763 C3738 0.954 . S
H3764 C3740 0.886 1_554 S
H3765 C3741 0.949 . S
H3766 C3743 0.950 . S
H3767 C3745 0.950 . S
C3768 C3769 1.349 . S
C3768 C3770 1.327 . S
C3768 H3793 0.950 . S
C3769 C3768 1.349 . S
C3769 C3785 1.349 . S
C3770 C3768 1.327 . S
C3770 C3789 1.429 . S
C3770 H3794 0.950 . S
C3771 C3788 1.574 . S
C3771 C3790 1.368 . S
C3771 H3795 0.949 . S
H3772 C3776 0.949 . S
C3773 C3774 1.349 . S
C3773 C3775 1.327 . S
C3773 H3796 0.950 . S
C3774 C3773 1.349 . S
C3774 C3786 1.349 . S
C3775 C3773 1.327 . S
C3775 C3791 1.429 . S
C3775 H3797 0.950 . S
C3776 H3772 0.949 . S
C3776 C3784 1.574 . S
C3776 C3792 1.368 . S
H3777 C3785 0.950 . S
H3778 C3783 0.950 . S
H3779 C3784 0.949 . S
H3780 C3786 0.950 . S
H3781 C3787 0.950 . S
H3782 C3788 0.949 . S
C3783 H3778 0.950 . S
C3783 C3785 1.327 . S
C3783 C3789 1.429 . S
C3784 C3776 1.574 . S
C3784 H3779 0.949 . S
C3784 C3790 1.368 . S
C3785 C3769 1.349 . S
C3785 H3777 0.950 . S
C3785 C3783 1.327 . S
C3786 C3774 1.349 . S
C3786 H3780 0.950 . S
C3786 C3787 1.327 . S
C3787 H3781 0.950 . S
C3787 C3786 1.327 . S
C3787 C3791 1.429 . S
C3788 C3771 1.574 . S
C3788 H3782 0.949 . S
C3788 C3792 1.368 . S
C3789 C3770 1.429 . S
C3789 C3783 1.429 . S
C3789 C3790 1.523 . S
C3790 C3771 1.368 . S
C3790 C3784 1.368 . S
C3790 C3789 1.523 . S
C3791 C3775 1.429 . S
C3791 C3787 1.429 . S
C3791 C3792 1.523 . S
C3792 C3776 1.368 . S
C3792 C3788 1.368 . S
C3792 C3791 1.523 . S
H3793 C3768 0.950 . S
H3794 C3770 0.950 . S
H3795 C3771 0.949 . S
H3796 C3773 0.950 . S
H3797 C3775 0.950 . S
C3798 C3799 1.349 . S
C3798 C3800 1.327 . S
C3798 H3823 0.950 . S
C3799 C3798 1.349 . S
C3799 C3815 1.349 1_655 S
C3800 C3798 1.327 . S
C3800 C3819 1.429 . S
C3800 H3824 0.950 . S
C3801 C3818 1.568 1_455 S
C3801 C3820 1.362 1_455 S
C3801 H3825 0.956 . S
H3802 C3806 0.949 . S
C3803 C3804 1.349 . S
C3803 C3805 1.327 . S
C3803 H3826 0.943 1_655 S
C3804 C3803 1.349 . S
C3804 C3816 1.349 . S
C3805 C3803 1.327 . S
C3805 C3821 1.429 . S
C3805 H3827 0.950 1_655 S
C3806 H3802 0.949 . S
C3806 C3814 1.574 . S
C3806 C3822 1.368 . S
H3807 C3815 0.950 . S
H3808 C3813 0.950 . S
H3809 C3814 0.949 . S
H3810 C3816 0.950 . S
H3811 C3817 0.950 . S
H3812 C3818 0.928 1_455 S
C3813 H3808 0.950 . S
C3813 C3815 1.327 . S
C3813 C3819 1.429 1_455 S
C3814 C3806 1.574 . S
C3814 H3809 0.949 . S
C3814 C3820 1.368 . S
C3815 C3799 1.349 1_455 S
C3815 H3807 0.950 . S
C3815 C3813 1.327 . S
C3816 C3804 1.349 . S
C3816 H3810 0.950 . S
C3816 C3817 1.327 . S
C3817 H3811 0.950 . S
C3817 C3816 1.327 . S
C3817 C3821 1.429 . S
C3818 C3801 1.568 1_655 S
C3818 H3812 0.928 1_655 S
C3818 C3822 1.401 . S
C3819 C3800 1.429 . S
C3819 C3813 1.429 1_655 S
C3819 C3820 1.523 . S
C3820 C3801 1.362 1_655 S
C3820 C3814 1.368 . S
C3820 C3819 1.523 . S
C3821 C3805 1.429 . S
C3821 C3817 1.429 . S
C3821 C3822 1.523 . S
C3822 C3806 1.368 . S
C3822 C3818 1.401 . S
C3822 C3821 1.523 . S
H3823 C3798 0.950 . S
H3824 C3800 0.950 . S
H3825 C3801 0.956 . S
H3826 C3803 0.943 1_455 S
H3827 C3805 0.950 1_455 S
C3828 C3829 1.349 . S
C3828 C3830 1.327 . S
C3828 H3853 0.950 . S
C3829 C3828 1.349 . S
C3829 C3845 1.349 . S
C3830 C3828 1.327 . S
C3830 C3849 1.429 . S
C3830 H3854 0.950 . S
C3831 C3848 1.574 . S
C3831 C3850 1.368 . S
C3831 H3855 0.949 . S
H3832 C3836 0.949 . S
C3833 C3834 1.349 . S
C3833 C3835 1.327 . S
C3833 H3856 0.950 . S
C3834 C3833 1.349 . S
C3834 C3846 1.349 . S
C3835 C3833 1.327 . S
C3835 C3851 1.429 . S
C3835 H3857 0.950 . S
C3836 H3832 0.949 . S
C3836 C3844 1.574 . S
C3836 C3852 1.368 . S
H3837 C3845 0.950 . S
H3838 C3843 0.950 . S
H3839 C3844 0.949 . S
H3840 C3846 0.950 . S
H3841 C3847 0.950 . S
H3842 C3848 0.949 . S
C3843 H3838 0.950 . S
C3843 C3845 1.327 . S
C3843 C3849 1.429 . S
C3844 C3836 1.574 . S
C3844 H3839 0.949 . S
C3844 C3850 1.368 . S
C3845 C3829 1.349 . S
C3845 H3837 0.950 . S
C3845 C3843 1.327 . S
C3846 C3834 1.349 . S
C3846 H3840 0.950 . S
C3846 C3847 1.327 . S
C3847 H3841 0.950 . S
C3847 C3846 1.327 . S
C3847 C3851 1.429 . S
C3848 C3831 1.574 . S
C3848 H3842 0.949 . S
C3848 C3852 1.368 . S
C3849 C3830 1.429 . S
C3849 C3843 1.429 . S
C3849 C3850 1.523 . S
C3850 C3831 1.368 . S
C3850 C3844 1.368 . S
C3850 C3849 1.523 . S
C3851 C3835 1.429 . S
C3851 C3847 1.429 . S
C3851 C3852 1.523 . S
C3852 C3836 1.368 . S
C3852 C3848 1.368 . S
C3852 C3851 1.523 . S
H3853 C3828 0.950 . S
H3854 C3830 0.950 . S
H3855 C3831 0.949 . S
H3856 C3833 0.950 . S
H3857 C3835 0.950 . S
C3858 C3859 1.349 . S
C3858 C3860 1.327 . S
C3858 H3883 0.950 1_655 S
C3859 C3858 1.349 . S
C3859 C3875 1.349 . S
C3860 C3858 1.327 . S
C3860 C3879 1.429 . S
C3860 H3884 0.952 . S
C3861 C3878 1.574 . S
C3861 C3880 1.368 . S
C3861 H3885 0.949 . S
H3862 C3866 0.949 . S
C3863 C3864 1.349 . S
C3863 C3865 1.327 . S
C3863 H3886 0.950 . S
C3864 C3863 1.349 . S
C3864 C3876 1.349 . S
C3865 C3863 1.327 . S
C3865 C3881 1.429 . S
C3865 H3887 0.950 . S
C3866 H3862 0.949 . S
C3866 C3874 1.574 . S
C3866 C3882 1.368 . S
H3867 C3875 0.950 . S
H3868 C3873 0.950 . S
H3869 C3874 0.949 . S
H3870 C3876 0.950 . S
H3871 C3877 0.950 . S
H3872 C3878 0.949 . S
C3873 H3868 0.950 . S
C3873 C3875 1.327 . S
C3873 C3879 1.429 . S
C3874 C3866 1.574 . S
C3874 H3869 0.949 . S
C3874 C3880 1.368 . S
C3875 C3859 1.349 . S
C3875 H3867 0.950 . S
C3875 C3873 1.327 . S
C3876 C3864 1.349 . S
C3876 H3870 0.950 . S
C3876 C3877 1.327 . S
C3877 H3871 0.950 . S
C3877 C3876 1.327 . S
C3877 C3881 1.429 . S
C3878 C3861 1.574 . S
C3878 H3872 0.949 . S
C3878 C3882 1.368 . S
C3879 C3860 1.429 . S
C3879 C3873 1.429 . S
C3879 C3880 1.523 . S
C3880 C3861 1.368 . S
C3880 C3874 1.368 . S
C3880 C3879 1.523 . S
C3881 C3865 1.429 . S
C3881 C3877 1.429 . S
C3881 C3882 1.523 . S
C3882 C3866 1.368 . S
C3882 C3878 1.368 . S
C3882 C3881 1.523 . S
H3883 C3858 0.950 1_455 S
H3884 C3860 0.952 . S
H3885 C3861 0.949 . S
H3886 C3863 0.950 . S
H3887 C3865 0.950 . S
C1734 C1713 2.103 . S
C1729 C15 2.154 . S
C1764 C1617 1.203 . S
C1759 C55 1.157 . S
C1794 C1681 0.651 . S
C1789 C95 0.570 . S
C1824 C1649 2.207 . S
C1819 C135 2.101 . S
C1854 C1425 2.100 . S
C1849 C175 2.151 . S
C1879 C215 2.093 . S
C1884 C1457 2.213 . S
C1914 C1361 1.202 . S
C1909 C255 1.156 . S
C1939 C295 0.569 . S
C1944 C1393 0.643 . S
C1974 C1585 2.106 . S
C1969 C335 2.157 . S
C1999 C375 2.092 . S
C2004 C1521 2.213 . S
C2029 C415 1.163 . S
C2034 C1489 1.210 . S
C2064 C1553 0.650 . S
C2059 C455 0.568 . S
C2094 C1329 2.056 . S
C2089 C495 2.154 . S
C2119 C535 1.151 . S
C2124 C1233 1.171 . S
C2154 C1297 0.608 . S
C2149 C575 0.570 . S
C2179 C615 2.093 . S
C2184 C1265 2.076 . S
C2214 C1041 2.052 . S
C2209 C655 2.151 . S
C2244 C1073 2.068 . S
C2239 C695 2.100 . S
C2269 C735 1.150 . S
C2274 C977 1.170 . S
C2299 C775 0.568 . S
C2304 C1009 0.604 . S
C2329 C815 2.148 . S
C2334 C1201 2.067 . S
C2359 C855 2.091 . S
C2364 C1137 2.074 . S
C2394 C1105 1.178 . S
C2389 C895 1.158 . S
C2419 C935 0.567 . S
C2424 C1169 0.604 . S
C2454 C989 1.508 . S
C2449 C21 1.552 . S
C2484 C1021 1.447 . S
C2479 C61 1.482 . S
C2509 C101 0.270 . S
C2514 C1053 0.415 . S
C2539 C141 0.529 . S
C2544 C1085 0.587 . S
C2574 C1117 1.516 . S
C2569 C181 1.560 . S
C2599 C221 0.530 . S
C2604 C1149 0.587 . S
C2634 C1181 1.447 . S
C2629 C261 1.481 . S
C2664 C1213 0.416 . S
C2659 C301 0.271 . S
C2694 C1245 1.510 . S
C2689 C341 1.554 . S
C2719 C381 0.530 . S
C2724 C1277 0.587 . S
C2749 C421 1.483 . S
C2754 C1309 1.449 . S
C2779 C461 0.270 . S
C2784 C1341 0.415 . S
C2809 C501 1.506 . S
C2814 C1373 1.516 . S
C2839 C541 1.359 . S
C2844 C1405 1.404 . S
C2869 C581 0.359 . S
C2874 C1437 0.307 . S
C2899 C621 0.555 . S
C2904 C1469 0.536 . S
C2929 C661 1.514 . S
C2934 C1501 1.524 . S
C2964 C1533 0.537 . S
C2959 C701 0.556 . S
C2994 C1565 1.403 . S
C2989 C741 1.359 . S
C3024 C1597 0.307 . S
C3019 C781 0.359 . S
C3054 C1629 1.519 . S
C3049 C821 1.508 . S
C3079 C861 0.556 . S
C3084 C1661 0.537 . S
C3109 C901 1.360 . S
C3114 C1693 1.405 . S
C3139 C941 0.359 . S
C3144 C1725 0.307 . S
C3169 C2 1.659 . S
C3174 C1239 1.648 . S
C3204 C1335 1.162 . S
C3199 C42 1.187 . S
C3229 C82 1.108 . S
C3234 C1271 1.059 . S
C3264 C1303 2.379 . S
C3259 C122 2.240 . S
C3289 C162 1.662 . S
C3294 C983 1.652 . S
C3319 C202 2.242 . S
C3324 C1015 2.383 . S
C3349 C242 1.196 . S
C3354 C1047 1.154 . S
C3379 C282 1.109 . S
C3384 C1079 1.060 . S
C3414 C1111 1.639 . S
C3409 C322 1.649 . S
C3444 C1175 2.382 . S
C3439 C362 2.243 . S
C3469 C402 1.193 . S
C3474 C1207 1.152 . S
C3499 C442 1.109 . S
C3504 C1143 1.059 . S
C3534 C1623 1.626 . S
C3529 C482 1.637 . S
C3564 C1719 1.175 . S
C3559 C522 1.132 . S
C3589 C562 1.111 . S
C3594 C1655 1.101 . S
C3624 C1687 2.187 . S
C3619 C602 2.231 . S
C3649 C642 1.640 . S
C3654 C1367 1.630 . S
C3679 C682 2.232 . S
C3684 C1399 2.189 . S
C3709 C722 1.140 . S
C3714 C1431 1.169 . S
C3744 C1463 1.110 . S
C3739 C762 1.104 . S
C3774 C1495 1.617 . S
C3769 C802 1.628 . S
C3804 C1559 2.190 . S
C3799 C842 2.234 . S
C3829 C882 1.138 . S
C3834 C1591 1.167 . S
C3864 C1527 1.110 . S
C3859 C922 1.104 . S
