# Generated by pormake.
# Topology anh, (6,3)-cn, num edge types: 1
# Building blocks:
#     Node 0, Type 0, BuildingBlock: BETFEN_clean_sbu_0, # of connection points: 6
#     Node 1, Type 0, BuildingBlock: BETFEN_clean_sbu_0, # of connection points: 6
#     Node 2, Type 0, BuildingBlock: BETFEN_clean_sbu_0, # of connection points: 6
#     Node 3, Type 1, BuildingBlock: VETTIZ_charged_linker_0, # of connection points: 3
#     Node 4, Type 1, BuildingBlock: VETTIZ_charged_linker_0, # of connection points: 3
#     Node 5, Type 1, BuildingBlock: VETTIZ_charged_linker_0, # of connection points: 3
#     Node 6, Type 1, BuildingBlock: VETTIZ_charged_linker_0, # of connection points: 3
#     Node 7, Type 1, BuildingBlock: VETTIZ_charged_linker_0, # of connection points: 3
#     Node 8, Type 1, BuildingBlock: VETTIZ_charged_linker_0, # of connection points: 3
#     Edge 9, Type (0, 1), BuildingBlock: KIFKEQ_clean_linker_1, # of connection points: 2
#     Edge 10, Type (0, 1), BuildingBlock: KIFKEQ_clean_linker_1, # of connection points: 2
#     Edge 11, Type (0, 1), BuildingBlock: KIFKEQ_clean_linker_1, # of connection points: 2
#     Edge 12, Type (0, 1), BuildingBlock: KIFKEQ_clean_linker_1, # of connection points: 2
#     Edge 13, Type (0, 1), BuildingBlock: KIFKEQ_clean_linker_1, # of connection points: 2
#     Edge 14, Type (0, 1), BuildingBlock: KIFKEQ_clean_linker_1, # of connection points: 2
#     Edge 15, Type (0, 1), BuildingBlock: KIFKEQ_clean_linker_1, # of connection points: 2
#     Edge 16, Type (0, 1), BuildingBlock: KIFKEQ_clean_linker_1, # of connection points: 2
#     Edge 17, Type (0, 1), BuildingBlock: KIFKEQ_clean_linker_1, # of connection points: 2
#     Edge 18, Type (0, 1), BuildingBlock: KIFKEQ_clean_linker_1, # of connection points: 2
#     Edge 19, Type (0, 1), BuildingBlock: KIFKEQ_clean_linker_1, # of connection points: 2
#     Edge 20, Type (0, 1), BuildingBlock: KIFKEQ_clean_linker_1, # of connection points: 2
#     Edge 21, Type (0, 1), BuildingBlock: KIFKEQ_clean_linker_1, # of connection points: 2
#     Edge 22, Type (0, 1), BuildingBlock: KIFKEQ_clean_linker_1, # of connection points: 2
#     Edge 23, Type (0, 1), BuildingBlock: KIFKEQ_clean_linker_1, # of connection points: 2
#     Edge 24, Type (0, 1), BuildingBlock: KIFKEQ_clean_linker_1, # of connection points: 2
#     Edge 25, Type (0, 1), BuildingBlock: KIFKEQ_clean_linker_1, # of connection points: 2
#     Edge 26, Type (0, 1), BuildingBlock: KIFKEQ_clean_linker_1, # of connection points: 2
# Relax obj value: 0.185
# Max RMSD: 0.209
# Mean RMSD: 0.158
data_MOF--net-anh--node1-BETFEN_clean_sbu_0--node2-VETTIZ_charged_linker_0--edge1-KIFKEQ_clean_linker_1
_symmetry_space_group_name_H-M    P1
_symmetry_Int_Tables_number       1
_symmetry_cell_setting            triclinic
loop_
_symmetry_equiv_pos_as_xyz
'x, y, z'
_cell_length_a     36.087454
_cell_length_b     38.731119
_cell_length_c     68.022631
_cell_angle_alpha  90.47746
_cell_angle_beta   92.131538
_cell_angle_gamma 107.5379
loop_
_atom_site_label
_atom_site_type_symbol
_atom_site_fract_x
_atom_site_fract_y
_atom_site_fract_z
_atom_type_partial_charge
Pr0 Pr 1.02226 0.5221 0.15541 0.0
Pr1 Pr 0.04628 0.60093 0.15252 0.0
C2 C 0.98723 0.4514 0.16149 0.0
C3 C 0.9471 0.4271 0.16228 0.0
C4 C 0.93495 0.39639 0.14979 0.0
C5 C 0.89758 0.37213 0.15085 0.0
C6 C 0.87186 0.37805 0.16455 0.0
C7 C 0.88352 0.40958 0.1765 0.0
C8 C 0.92075 0.43398 0.17533 0.0
C9 C 0.03834 0.54629 0.11737 0.0
C10 C 0.95304 0.56376 0.15129 0.0
C11 C 0.08038 0.67084 0.14411 0.0
C12 C 0.1192 0.69782 0.14663 0.0
C13 C 0.1246 0.72714 0.15981 0.0
C14 C 0.1609 0.75312 0.16236 0.0
C15 C 0.19258 0.75055 0.15165 0.0
C16 C 0.1873 0.72104 0.13856 0.0
C17 C 0.15094 0.69491 0.13605 0.0
C18 C 0.03107 0.57759 0.19084 0.0
C19 C 0.11609 0.55922 0.15743 0.0
O20 O 1.00004 0.47525 0.17583 0.0
O21 O 0.99812 0.46416 0.14424 0.0
O22 O 1.01796 0.55782 0.12891 0.0
O23 O 0.05183 0.52211 0.12545 0.0
O24 O 0.98026 0.59152 0.14453 0.0
O25 O 0.96258 0.53591 0.15867 0.0
O26 O 0.07641 0.64422 0.13145 0.0
O27 O 0.06136 0.66068 0.16009 0.0
O28 O 0.05051 0.56517 0.17914 0.0
O29 O 1.01937 0.6031 0.18299 0.0
O30 O 0.08846 0.52967 0.162 0.0
O31 O 0.1071 0.58856 0.15198 0.0
H32 H 0.95469 0.39075 0.1395 0.0
H33 H 0.88948 0.34789 0.1416 0.0
H34 H 0.86409 0.41492 0.18707 0.0
H35 H 0.92908 0.45781 0.18489 0.0
H36 H 0.10067 0.72998 0.16817 0.0
H37 H 0.16421 0.77516 0.17284 0.0
H38 H 0.21107 0.71847 0.12999 0.0
H39 H 0.14775 0.6726 0.12577 0.0
Pr40 Pr 0.5914 0.05403 0.50486 0.0
Pr41 Pr 0.50779 0.03131 0.50642 0.0
C42 C 0.66614 0.08821 0.49719 0.0
C43 C 0.69021 0.12638 0.49574 0.0
C44 C 0.72671 0.1384 0.50571 0.0
C45 C 0.75 0.17441 0.50435 0.0
C46 C 0.73729 0.19897 0.49284 0.0
C47 C 0.70031 0.18708 0.48326 0.0
C48 C 0.67692 0.15122 0.48477 0.0
C49 C 0.56542 0.04299 0.54268 0.0
C50 C 0.547 0.1228 0.50858 0.0
C51 C 0.43246 0.99751 0.51331 0.0
C52 C 0.40429 0.96092 0.5097 0.0
C53 C 0.381 0.953 0.49223 0.0
C54 C 0.3546 0.91856 0.48872 0.0
C55 C 0.35058 0.89115 0.50264 0.0
C56 C 0.3736 0.89914 0.52021 0.0
C57 C 0.40009 0.93362 0.52371 0.0
C58 C 0.53254 0.04419 0.46817 0.0
C59 C 0.55314 0.96249 0.50677 0.0
O60 O 0.63899 0.07552 0.48341 0.0
O61 O 0.6549 0.07743 0.51473 0.0
O62 O 0.55293 0.06033 0.52984 0.0
O63 O 0.59221 0.03021 0.53627 0.0
O64 O 0.5155 0.09551 0.51269 0.0
O65 O 0.57838 0.1135 0.50347 0.0
O66 O 0.46075 1.00051 0.52645 0.0
O67 O 0.44368 1.01743 0.49793 0.0
O68 O 0.54615 1.02647 0.48053 0.0
O69 O 0.50551 0.05555 0.47542 0.0
O70 O 0.58557 0.98939 0.50353 0.0
O71 O 0.52065 0.97196 0.509 0.0
H72 H 0.73739 0.1198 0.51439 0.0
H73 H 0.77848 0.18271 0.51176 0.0
H74 H 0.68957 0.20551 0.47447 0.0
H75 H 0.64858 0.14292 0.4772 0.0
H76 H 0.38308 0.97346 0.48121 0.0
H77 H 0.33688 0.9136 0.47519 0.0
H78 H 0.3715 0.87861 0.53119 0.0
H79 H 0.41736 0.93881 0.53739 0.0
Pr80 Pr 0.52563 0.52273 0.82513 0.0
Pr81 Pr 0.55166 0.60335 0.82756 0.0
C82 C 0.51599 0.45499 0.81292 0.0
C83 C 0.53359 0.42935 0.82203 0.0
C84 C 0.54407 0.43265 0.84222 0.0
C85 C 0.56032 0.40811 0.85114 0.0
C86 C 0.56683 0.38026 0.83988 0.0
C87 C 0.55917 0.37877 0.81938 0.0
C88 C 0.54256 0.40319 0.81051 0.0
C89 C 0.52671 0.53979 0.86533 0.0
C90 C 0.62064 0.56218 0.82944 0.0
C91 C 0.57871 0.67198 0.84053 0.0
C92 C 0.56073 0.68959 0.85479 0.0
C93 C 0.56864 0.72712 0.8549 0.0
C94 C 0.54527 0.74301 0.86527 0.0
C95 C 0.51332 0.72144 0.87542 0.0
C96 C 0.50721 0.68405 0.87641 0.0
C97 C 0.531 0.66822 0.86624 0.0
C98 C 0.53419 0.57666 0.78898 0.0
C99 C 0.45736 0.56242 0.827 0.0
O100 O 0.54087 0.48272 0.80514 0.0
O101 O 0.49 0.46374 0.82316 0.0
O102 O 0.53565 0.5626 0.85187 0.0
O103 O 0.51709 0.50705 0.85834 0.0
O104 O 0.61297 0.59295 0.82602 0.0
O105 O 0.59219 0.53201 0.83181 0.0
O106 O 0.59173 0.64639 0.84761 0.0
O107 O 0.55882 0.6629 0.82382 0.0
O108 O 0.5531 0.56491 0.80193 0.0
O109 O 0.52431 0.60395 0.79574 0.0
O110 O 0.46586 0.53476 0.81881 0.0
O111 O 0.48545 0.59018 0.83465 0.0
H112 H 0.53869 0.4535 0.85127 0.0
H113 H 0.56584 0.40965 0.86694 0.0
H114 H 0.56338 0.35713 0.8104 0.0
H115 H 0.53573 0.40102 0.79482 0.0
H116 H 0.59103 0.7438 0.84589 0.0
H117 H 0.54986 0.77181 0.86371 0.0
H118 H 0.48235 0.66691 0.88374 0.0
H119 H 0.52438 0.639 0.86615 0.0
C120 C 0.62044 0.1443 0.19567 0.0
C121 C 0.65069 0.17172 0.20514 0.0
C122 C 0.65394 0.17353 0.22583 0.0
C123 C 0.59884 0.11978 0.22751 0.0
C124 C 0.595 0.11841 0.20718 0.0
C125 C 0.56267 0.08581 0.19977 0.0
H126 H 0.42123 0.93177 0.22008 0.0
C127 C 0.56935 0.08816 0.23516 0.0
C128 C 0.54801 0.06804 0.21901 0.0
H129 H 0.45609 0.97506 0.16294 0.0
H130 H 0.50441 1.02635 0.17842 0.0
H131 H 0.50839 0.94852 0.23919 0.0
H132 H 0.42354 1.00634 0.24037 0.0
H133 H 0.44637 1.01116 0.26392 0.0
H134 H 0.41912 0.9666 0.25461 0.0
H135 H 0.46449 0.93304 0.25243 0.0
H136 H 0.50794 0.96445 0.26341 0.0
C137 C 0.58053 0.06189 0.1871 0.0
C138 C 0.53164 0.09934 0.18866 0.0
C139 C 0.56432 0.06837 0.30891 0.0
C140 C 0.54004 0.04176 0.32058 0.0
C141 C 0.50988 1.01374 0.31122 0.0
C142 C 0.50422 1.01209 0.29068 0.0
C143 C 0.52898 0.03868 0.27925 0.0
C144 C 0.55818 0.06637 0.28842 0.0
C145 C 0.58118 0.09267 0.27397 0.0
C146 C 0.56101 0.07614 0.25462 0.0
C147 C 0.53076 0.04436 0.25778 0.0
C148 C 0.62384 0.09172 0.27561 0.0
C149 C 0.576 0.13032 0.27827 0.0
C150 C 0.43964 0.95199 0.21087 0.0
C151 C 0.43505 0.94919 0.19025 0.0
C152 C 0.45895 0.97667 0.17885 0.0
C153 C 0.48705 1.00637 0.18788 0.0
C154 C 0.49132 1.00866 0.20852 0.0
C155 C 0.46778 0.98174 0.21964 0.0
C156 C 0.47626 0.98856 0.24136 0.0
C157 C 0.50911 1.02386 0.24149 0.0
C158 C 0.51774 0.03558 0.22222 0.0
C159 C 0.48976 0.95703 0.24972 0.0
C160 C 0.43949 0.99319 0.25072 0.0
H161 H 0.63251 0.15059 0.25273 0.0
H162 H 0.6176 0.14229 0.17976 0.0
H163 H 0.52745 0.12317 0.19647 0.0
H164 H 0.50262 0.07901 0.18778 0.0
H165 H 0.54059 0.10773 0.17355 0.0
H166 H 0.61046 0.06372 0.19267 0.0
H167 H 0.5824 0.07049 0.17154 0.0
H168 H 0.56432 0.03277 0.18758 0.0
H169 H 0.5879 0.09019 0.31553 0.0
H170 H 0.49017 0.99332 0.31981 0.0
H171 H 0.48068 0.99018 0.28451 0.0
H172 H 0.62492 0.06377 0.27841 0.0
H173 H 0.64031 0.10945 0.28792 0.0
H174 H 0.63955 0.09951 0.26194 0.0
H175 H 0.547 0.1276 0.28426 0.0
H176 H 0.57681 0.14649 0.26489 0.0
H177 H 0.59839 0.14612 0.28924 0.0
H178 H 0.67693 0.19475 0.23334 0.0
C179 C 0.62814 0.14786 0.23705 0.0
C180 C 0.55099 0.65117 0.51526 0.0
C181 C 0.55278 0.68488 0.52608 0.0
C182 C 0.5546 0.68213 0.54664 0.0
C183 C 0.55163 0.61733 0.54585 0.0
C184 C 0.55082 0.6175 0.52558 0.0
C185 C 0.55018 0.57823 0.51829 0.0
H186 H 0.53926 0.39766 0.5533 0.0
C187 C 0.54986 0.57996 0.55325 0.0
C188 C 0.54937 0.55524 0.53741 0.0
H189 H 0.55741 0.42394 0.49245 0.0
H190 H 0.55713 0.48728 0.49995 0.0
H191 H 0.6011 0.46481 0.56887 0.0
H192 H 0.47747 0.43767 0.56016 0.0
H193 H 0.48771 0.46196 0.58254 0.0
H194 H 0.50011 0.42033 0.58005 0.0
H195 H 0.56805 0.43544 0.58495 0.0
H196 H 0.58624 0.48369 0.58942 0.0
C197 C 0.58705 0.58084 0.5071 0.0
C198 C 0.51366 0.56116 0.50512 0.0
C199 C 0.54361 0.56635 0.62787 0.0
C200 C 0.53827 0.53679 0.64062 0.0
C201 C 0.53385 0.50236 0.63205 0.0
C202 C 0.53538 0.49765 0.61163 0.0
C203 C 0.541 0.52751 0.59911 0.0
C204 C 0.54444 0.56095 0.6074 0.0
C205 C 0.54825 0.58931 0.59205 0.0
C206 C 0.54744 0.56775 0.57303 0.0
C207 C 0.54367 0.53159 0.57724 0.0
C208 C 0.58826 0.61851 0.596 0.0
C209 C 0.51211 0.60314 0.59323 0.0
C210 C 0.54257 0.4159 0.54109 0.0
C211 C 0.54759 0.40314 0.5221 0.0
C212 C 0.55318 0.43094 0.50746 0.0
C213 C 0.5529 0.46813 0.51175 0.0
C214 C 0.54758 0.47973 0.53116 0.0
C215 C 0.54311 0.45257 0.5451 0.0
C216 C 0.54032 0.46665 0.56522 0.0
C217 C 0.5438 0.50628 0.56191 0.0
C218 C 0.54735 0.51641 0.54173 0.0
C219 C 0.57539 0.46232 0.57793 0.0
C220 C 0.49954 0.44555 0.57257 0.0
H221 H 0.55544 0.65203 0.57188 0.0
H222 H 0.55015 0.6511 0.49935 0.0
H223 H 0.48706 0.55952 0.51327 0.0
H224 H 0.51246 0.53332 0.50033 0.0
H225 H 0.51357 0.57763 0.49183 0.0
H226 H 0.61341 0.59334 0.51669 0.0
H227 H 0.58833 0.59775 0.49387 0.0
H228 H 0.5876 0.55353 0.50231 0.0
H229 H 0.54744 0.59341 0.63359 0.0
H230 H 0.52862 0.47863 0.64108 0.0
H231 H 0.53205 0.47064 0.60648 0.0
H232 H 0.61005 0.60651 0.60269 0.0
H233 H 0.58584 0.64013 0.60624 0.0
H234 H 0.60157 0.63093 0.58235 0.0
H235 H 0.48668 0.58211 0.59896 0.0
H236 H 0.50144 0.60949 0.57867 0.0
H237 H 0.51819 0.62731 0.60314 0.0
H238 H 0.55631 0.70573 0.55574 0.0
C239 C 0.55401 0.64988 0.55621 0.0
C240 C 0.14633 0.55929 0.8453 0.0
C241 C 0.18214 0.56105 0.85543 0.0
C242 C 0.18324 0.56095 0.87611 0.0
C243 C 0.11573 0.55958 0.87667 0.0
C244 C 0.11329 0.55875 0.85633 0.0
C245 C 0.0726 0.55823 0.84887 0.0
H246 H 0.88914 0.55903 0.87549 0.0
C247 C 0.07806 0.56029 0.88422 0.0
C248 C 0.05194 0.55956 0.8681 0.0
H249 H 0.92389 0.55428 0.81584 0.0
H250 H 0.98975 0.55677 0.82806 0.0
H251 H 0.92755 0.50388 0.89272 0.0
H252 H 0.9617 0.61951 0.88969 0.0
H253 H 0.98149 0.61127 0.91243 0.0
H254 H 0.92942 0.59539 0.90777 0.0
H255 H 0.90783 0.53163 0.90785 0.0
H256 H 0.95051 0.51953 0.91563 0.0
C257 C 0.05365 0.52265 0.8372 0.0
C258 C 0.07592 0.59205 0.83649 0.0
C259 C 0.06448 0.56464 0.95856 0.0
C260 C 0.03363 0.56641 0.97025 0.0
C261 C 0.99895 0.56858 0.96085 0.0
C262 C 0.9945 0.56779 0.94036 0.0
C263 C 0.02515 0.56524 0.92887 0.0
C264 C 0.05959 0.56427 0.93797 0.0
C265 C 0.08926 0.56268 0.92329 0.0
C266 C 0.06653 0.56212 0.90387 0.0
C267 C 0.02912 0.56342 0.90734 0.0
C268 C 0.09948 0.52688 0.9264 0.0
C269 C 0.12414 0.59774 0.92607 0.0
C270 C 0.91057 0.55817 0.86489 0.0
C271 C 0.90085 0.55579 0.84474 0.0
C272 C 0.93043 0.5559 0.83155 0.0
C273 C 0.96853 0.55721 0.83865 0.0
C274 C 0.9773 0.55892 0.85913 0.0
C275 C 0.94807 0.55968 0.87163 0.0
C276 C 0.96076 0.56221 0.89279 0.0
C277 C 1.00236 0.56217 0.89142 0.0
C278 C 1.01298 0.56026 0.87174 0.0
C279 C 0.93538 0.52781 0.90295 0.0
C280 C 0.95805 0.59875 0.90128 0.0
H281 H 0.1543 0.5605 0.90234 0.0
H282 H 0.14446 0.5593 0.82938 0.0
H283 H 0.09354 0.61686 0.84471 0.0
H284 H 0.04725 0.59564 0.83293 0.0
H285 H 0.09023 0.59032 0.82249 0.0
H286 H 0.05527 0.49906 0.84601 0.0
H287 H 0.06881 0.52221 0.82332 0.0
H288 H 1.02261 0.5187 0.83347 0.0
H289 H 0.09157 0.56288 0.9652 0.0
H290 H 0.97503 0.571 0.96934 0.0
H291 H 0.96705 0.56895 0.93435 0.0
H292 H 0.07386 0.50498 0.93126 0.0
H293 H 0.1232 0.53041 0.93782 0.0
H294 H 0.10771 0.51595 0.91273 0.0
H295 H 0.11458 0.62077 0.93148 0.0
H296 H 0.13826 0.60738 0.91216 0.0
H297 H 0.14626 0.59397 0.93694 0.0
H298 H 0.20988 0.56179 0.88427 0.0
C299 C 0.15066 0.56021 0.88665 0.0
C300 C 0.94819 0.46533 0.4633 0.0
C301 C 0.92001 0.43616 0.45366 0.0
C302 C 0.91334 0.43726 0.4332 0.0
C303 C 0.96535 0.49347 0.43171 0.0
C304 C 0.9707 0.49376 0.45196 0.0
C305 C 1.00359 0.52634 0.4592 0.0
H306 H 0.15638 0.67099 0.4361 0.0
C307 C 0.99542 0.52446 0.42387 0.0
C308 C 1.01808 0.54412 0.43986 0.0
H309 H 0.11785 0.63775 0.49425 0.0
H310 H 0.06429 0.5886 0.48 0.0
H311 H 0.14416 0.59248 0.41797 0.0
H312 H 0.07266 0.66337 0.41767 0.0
H313 H 0.0668 0.6431 0.39413 0.0
H314 H 0.11434 0.67097 0.40283 0.0
H315 H 0.15369 0.63178 0.40293 0.0
H316 H 0.12171 0.58841 0.39439 0.0
C317 C 0.03462 0.51283 0.47026 0.0
C318 C 0.98635 0.55055 0.47191 0.0
C319 C 1.00697 0.53609 0.3497 0.0
C320 C 0.03406 0.55995 0.33791 0.0
C321 C 0.06436 0.58801 0.34709 0.0
C322 C 0.06785 0.59211 0.36761 0.0
C323 C 0.04088 0.56781 0.37922 0.0
C324 C 1.01105 0.54044 0.37023 0.0
C325 C 0.98576 0.51664 0.38495 0.0
C326 C 1.00515 0.53447 0.40424 0.0
C327 C 0.03735 0.56435 0.40076 0.0
C328 C 0.989 0.47783 0.38222 0.0
C329 C 0.944 0.51956 0.38196 0.0
C330 C 0.13673 0.65288 0.44581 0.0
C331 C 0.14167 0.65787 0.4663 0.0
C332 C 0.11469 0.63434 0.47839 0.0
C333 C 0.0837 0.60585 0.4701 0.0
C334 C 0.07946 0.60107 0.4495 0.0
C335 C 0.1056 0.62478 0.4378 0.0
C336 C 0.0962 0.61698 0.41625 0.0
C337 C 0.06013 0.58458 0.4168 0.0
C338 C 0.05046 0.57491 0.43629 0.0
C339 C 0.13066 0.60711 0.40723 0.0
C340 C 0.08725 0.65027 0.40706 0.0
H341 H 0.92947 0.46436 0.40666 0.0
H342 H 0.95363 0.46523 0.47906 0.0
H343 H 0.95724 0.55038 0.46583 0.0
H344 H 1.00408 0.57929 0.47215 0.0
H345 H 0.98279 0.54083 0.48725 0.0
H346 H 0.04017 0.49023 0.46187 0.0
H347 H 0.02478 0.5027 0.485 0.0
H348 H 0.063 0.53384 0.47216 0.0
H349 H 0.98356 0.51406 0.34312 0.0
H350 H 0.08524 0.60711 0.33834 0.0
H351 H 0.09158 0.61401 0.37361 0.0
H352 H 1.01855 0.47865 0.37765 0.0
H353 H 0.96774 0.46225 0.37072 0.0
H354 H 0.98512 0.46231 0.39592 0.0
H355 H 0.94464 0.54707 0.37707 0.0
H356 H 0.92795 0.51579 0.3957 0.0
H357 H 0.92691 0.49978 0.37061 0.0
H358 H 0.89126 0.41543 0.42556 0.0
C359 C 0.93564 0.46569 0.42222 0.0
C360 C 0.47601 0.92313 0.80922 0.0
C361 C 0.47619 0.89018 0.801 0.0
C362 C 0.4808 0.88695 0.7807 0.0
C363 C 0.48221 0.94962 0.77697 0.0
C364 C 0.47853 0.95214 0.79702 0.0
C365 C 0.47522 0.98781 0.80365 0.0
H366 H 0.49071 0.15993 0.78524 0.0
C367 C 0.48115 0.98441 0.76865 0.0
C368 C 0.47633 1.0064 0.78419 0.0
H369 H 0.47551 0.10425 0.84053 0.0
H370 H 0.46421 0.04749 0.82366 0.0
H371 H 0.54298 0.11917 0.76515 0.0
H372 H 0.41821 0.09505 0.76131 0.0
H373 H 0.43251 0.08287 0.73853 0.0
H374 H 0.44915 0.12968 0.74683 0.0
H375 H 0.51831 0.1483 0.7538 0.0
H376 H 0.52618 0.11137 0.7403 0.0
C377 C 0.51156 1.00615 0.81722 0.0
C378 C 0.43541 0.98121 0.81342 0.0
C379 C 0.49725 1.00641 0.69586 0.0
C380 C 0.49577 0.03533 0.68393 0.0
C381 C 0.48843 0.06583 0.69235 0.0
C382 C 0.48358 0.06784 0.71262 0.0
C383 C 0.48602 0.039 0.72446 0.0
C384 C 0.49202 1.00866 0.71598 0.0
C385 C 0.49105 0.97957 0.73056 0.0
C386 C 0.48398 0.99766 0.74926 0.0
C387 C 0.48177 0.03273 0.74568 0.0
C388 C 0.53131 0.97301 0.73138 0.0
C389 C 0.45668 0.94557 0.72463 0.0
C390 C 0.48401 0.13515 0.79347 0.0
C391 C 0.48482 0.13612 0.81418 0.0
C392 C 0.47568 0.1038 0.8246 0.0
C393 C 0.46931 0.07089 0.81472 0.0
C394 C 0.47251 0.07039 0.79424 0.0
C395 C 0.47777 0.10172 0.78373 0.0
C396 C 0.47952 0.09503 0.76192 0.0
C397 C 0.4777 0.05523 0.76154 0.0
C398 C 0.474 0.0415 0.78056 0.0
C399 C 0.51867 0.11979 0.75475 0.0
C400 C 0.44321 0.10115 0.75146 0.0
H401 H 0.48726 0.91318 0.7531 0.0
H402 H 0.4725 0.92591 0.82487 0.0
H403 H 0.4141 0.95502 0.80847 0.0
H404 H 0.4209 1.00174 0.80933 0.0
H405 H 0.43872 0.98062 0.8297 0.0
H406 H 0.53795 1.00082 0.8116 0.0
H407 H 0.50764 0.99556 0.83237 0.0
H408 H 0.5191 0.03592 0.81798 0.0
H409 H 0.50206 0.98237 0.6896 0.0
H410 H 0.48725 0.08839 0.68329 0.0
H411 H 0.47851 0.09184 0.71833 0.0
H412 H 0.55503 0.99923 0.732 0.0
H413 H 0.53504 0.95768 0.7181 0.0
H414 H 0.53616 0.95824 0.74454 0.0
H415 H 0.43294 0.95305 0.71652 0.0
H416 H 0.44265 0.93062 0.73749 0.0
H417 H 0.4662 0.9269 0.71494 0.0
H418 H 0.48131 0.8614 0.77431 0.0
C419 C 0.48406 0.91684 0.76854 0.0
C420 C 0.63983 0.56487 0.14045 0.0
C421 C 0.67413 0.56457 0.13091 0.0
C422 C 0.67343 0.56354 0.11028 0.0
C423 C 0.60607 0.56324 0.10854 0.0
C424 C 0.60589 0.56418 0.12887 0.0
C425 C 0.56615 0.56451 0.13572 0.0
H426 H 0.37712 0.55618 0.10778 0.0
C427 C 0.56727 0.56275 0.10041 0.0
C428 C 0.54303 0.56331 0.11615 0.0
H429 H 0.42398 0.56441 0.16746 0.0
H430 H 0.48773 0.56627 0.1554 0.0
H431 H 0.44772 0.61669 0.09194 0.0
H432 H 0.41749 0.50057 0.09136 0.0
H433 H 0.43473 0.51458 0.06804 0.0
H434 H 0.39226 0.52482 0.07631 0.0
H435 H 0.41117 0.58891 0.07514 0.0
H436 H 0.4618 0.60451 0.06917 0.0
C437 C 0.57125 0.60003 0.14739 0.0
C438 C 0.54889 0.53047 0.1479 0.0
C439 C 0.54591 0.55985 0.02581 0.0
C440 C 0.51373 0.55928 0.01327 0.0
C441 C 0.47874 0.55934 0.02188 0.0
C442 C 0.4758 0.55981 0.0424 0.0
C443 C 0.5082 0.56031 0.0547 0.0
C444 C 0.54247 0.5604 0.04631 0.0
C445 C 0.57392 0.56112 0.06159 0.0
C446 C 0.55301 0.56175 0.08057 0.0
C447 C 0.51456 0.56109 0.07645 0.0
C448 C 0.60773 0.59656 0.05909 0.0
C449 C 0.58507 0.52564 0.05912 0.0
C450 C 0.40088 0.55805 0.11836 0.0
C451 C 0.3951 0.55951 0.13858 0.0
C452 C 0.42745 0.56303 0.15175 0.0
C453 C 0.46439 0.56399 0.14474 0.0
C454 C 0.46935 0.56201 0.1243 0.0
C455 C 0.43761 0.55961 0.11165 0.0
C456 C 0.44719 0.5594 0.09046 0.0
C457 C 0.48961 0.56112 0.09211 0.0
C458 C 0.50327 0.56249 0.11196 0.0
C459 C 0.4415 0.59391 0.08101 0.0
C460 C 0.42155 0.52318 0.08086 0.0
H461 H 0.64203 0.5621 0.08351 0.0
H462 H 0.63955 0.56571 0.15635 0.0
H463 H 0.55013 0.50584 0.13977 0.0
H464 H 0.51809 0.52639 0.15097 0.0
H465 H 0.56548 0.53222 0.16215 0.0
H466 H 0.58877 0.62359 0.13911 0.0
H467 H 0.58652 0.59978 0.16185 0.0
H468 H 0.54323 0.60489 0.14996 0.0
H469 H 0.57316 0.55938 0.01984 0.0
H470 H 0.45357 0.55948 0.01273 0.0
H471 H 0.44829 0.55976 0.04787 0.0
H472 H 0.59665 0.61876 0.05362 0.0
H473 H 0.62865 0.59262 0.04837 0.0
H474 H 0.6236 0.60741 0.07311 0.0
H475 H 0.55969 0.50293 0.05356 0.0
H476 H 0.59415 0.51588 0.07318 0.0
H477 H 0.60847 0.52896 0.0485 0.0
H478 H 0.69921 0.56328 0.10266 0.0
C479 C 0.63996 0.56286 0.09915 0.0
H480 H 0.1448 0.50124 0.16138 0.0
H481 H 0.18235 0.61697 0.15377 0.0
H482 H 0.21202 0.50043 0.15964 0.0
H483 H 0.24969 0.61613 0.15206 0.0
H484 H 0.37288 0.60535 0.16386 0.0
H485 H 0.30633 0.60534 0.17058 0.0
H486 H 0.26037 0.50882 0.13429 0.0
H487 H 0.32637 0.509 0.12765 0.0
C488 C 0.16735 0.52661 0.15949 0.0
C489 C 0.15776 0.55914 0.15763 0.0
C490 C 0.20606 0.52612 0.15839 0.0
C491 C 0.23664 0.55819 0.15562 0.0
C492 C 0.22719 0.5909 0.15437 0.0
C493 C 0.18838 0.59134 0.15523 0.0
C494 C 0.34852 0.58381 0.15763 0.0
C495 C 0.35511 0.55718 0.1452 0.0
C496 C 0.3103 0.58398 0.1613 0.0
C497 C 0.27763 0.55716 0.15292 0.0
C498 C 0.28448 0.52978 0.14117 0.0
C499 C 0.32248 0.52994 0.13728 0.0
H500 H 0.78198 0.24835 0.52023 0.0
H501 H 0.75242 0.23297 0.45799 0.0
H502 H 0.82884 0.30772 0.51387 0.0
H503 H 0.79882 0.29169 0.45176 0.0
H504 H 0.91853 0.36788 0.44474 0.0
H505 H 0.8747 0.31179 0.45665 0.0
H506 H 0.82909 0.37274 0.49763 0.0
H507 H 0.87338 0.42958 0.48548 0.0
C508 C 0.78535 0.25774 0.50525 0.0
C509 C 0.76362 0.236 0.48959 0.0
C510 C 0.8119 0.29169 0.50166 0.0
C511 C 0.81761 0.30403 0.48232 0.0
C512 C 0.79521 0.28264 0.46679 0.0
C513 C 0.76844 0.24915 0.47038 0.0
C514 C 0.8996 0.36931 0.45652 0.0
C515 C 0.89889 0.40297 0.46402 0.0
C516 C 0.87448 0.33726 0.46328 0.0
C517 C 0.84807 0.33804 0.47777 0.0
C518 C 0.84918 0.37151 0.4864 0.0
C519 C 0.87448 0.4039 0.47952 0.0
H520 H 0.43975 0.69879 0.85998 0.0
H521 H 0.51616 0.78028 0.89871 0.0
H522 H 0.4142 0.74402 0.84535 0.0
H523 H 0.48962 0.82562 0.88446 0.0
H524 H 0.53111 0.87274 0.82284 0.0
H525 H 0.52039 0.83212 0.85062 0.0
H526 H 0.39619 0.8021 0.83833 0.0
H527 H 0.40744 0.84312 0.81025 0.0
C528 C 0.44879 0.72579 0.86654 0.0
C529 C 0.48173 0.7369 0.87944 0.0
C530 C 0.43416 0.75187 0.85804 0.0
C531 C 0.45209 0.78852 0.86292 0.0
C532 C 0.47663 0.79753 0.87994 0.0
C533 C 0.4916 0.77151 0.88826 0.0
C534 C 0.50169 0.85678 0.82588 0.0
C535 C 0.47014 0.85979 0.81426 0.0
C536 C 0.49533 0.83445 0.84208 0.0
C537 C 0.45724 0.81498 0.84703 0.0
C538 C 0.42567 0.81735 0.83503 0.0
C539 C 0.43211 0.83997 0.81881 0.0
H540 H 0.92102 0.61086 0.13221 0.0
H541 H 0.89042 0.51775 0.16947 0.0
H542 H 0.85382 0.61159 0.13106 0.0
H543 H 0.82312 0.51917 0.16896 0.0
H544 H 0.69797 0.50729 0.14287 0.0
H545 H 0.76499 0.50731 0.14965 0.0
H546 H 0.80341 0.62415 0.14731 0.0
H547 H 0.7364 0.62354 0.13994 0.0
C548 C 0.90003 0.59067 0.14035 0.0
C549 C 0.91148 0.56417 0.15087 0.0
C550 C 0.86123 0.59127 0.13985 0.0
C551 C 0.83236 0.56559 0.15002 0.0
C552 C 0.84398 0.53921 0.1607 0.0
C553 C 0.88282 0.53845 0.16106 0.0
C554 C 0.72063 0.533 0.14457 0.0
C555 C 0.71166 0.56545 0.14132 0.0
C556 C 0.75933 0.5331 0.14832 0.0
C557 C 0.79038 0.56572 0.14876 0.0
C558 C 0.78083 0.59833 0.14667 0.0
C559 C 0.74217 0.59815 0.14287 0.0
H560 H 0.33497 0.85183 0.46806 0.0
H561 H 0.30188 0.8475 0.52858 0.0
H562 H 0.28612 0.79381 0.4612 0.0
H563 H 0.25399 0.78847 0.52192 0.0
H564 H 0.13971 0.70808 0.49454 0.0
H565 H 0.19197 0.76266 0.50469 0.0
H566 H 0.27011 0.73046 0.46701 0.0
H567 H 0.21766 0.67652 0.45662 0.0
C568 C 0.31735 0.83843 0.47994 0.0
C569 C 0.32221 0.85455 0.49884 0.0
C570 C 0.28963 0.80483 0.47608 0.0
C571 C 0.26602 0.7863 0.49101 0.0
C572 C 0.27134 0.8021 0.51002 0.0
C573 C 0.29912 0.83579 0.51388 0.0
C574 C 0.16826 0.71243 0.48872 0.0
C575 C 0.1745 0.68826 0.47465 0.0
C576 C 0.19827 0.7437 0.49453 0.0
C577 C 0.23522 0.7513 0.48647 0.0
C578 C 0.24183 0.72602 0.47316 0.0
C579 C 0.21184 0.69499 0.46727 0.0
H580 H 0.61939 0.34436 0.83205 0.0
H581 H 0.52327 0.34257 0.86843 0.0
H582 H 0.60345 0.27871 0.83449 0.0
H583 H 0.50706 0.27715 0.87045 0.0
H584 H 0.45897 0.19512 0.81231 0.0
H585 H 0.48789 0.25338 0.82957 0.0
H586 H 0.57533 0.2125 0.85728 0.0
H587 H 0.54586 0.15388 0.84038 0.0
C588 C 0.59648 0.33022 0.84156 0.0
C589 C 0.57175 0.34805 0.84951 0.0
C590 C 0.58741 0.29276 0.84299 0.0
C591 C 0.55351 0.27336 0.85222 0.0
C592 C 0.53322 0.29189 0.8632 0.0
C593 C 0.54263 0.32934 0.86205 0.0
C594 C 0.48387 0.19852 0.82236 0.0
C595 C 0.50025 0.17043 0.82517 0.0
C596 C 0.50009 0.23142 0.83236 0.0
C597 C 0.53319 0.23667 0.84497 0.0
C598 C 0.54937 0.2085 0.84793 0.0
C599 C 0.53266 0.17534 0.83823 0.0
H600 H 0.49094 0.89688 0.51022 0.0
H601 H 0.61521 0.93105 0.50677 0.0
H602 H 0.49086 0.83364 0.51275 0.0
H603 H 0.61541 0.868 0.5093 0.0
H604 H 0.61389 0.75038 0.52754 0.0
H605 H 0.614 0.81299 0.52286 0.0
H606 H 0.49268 0.77498 0.50499 0.0
H607 H 0.49301 0.71212 0.50979 0.0
C608 C 0.51863 0.89143 0.50993 0.0
C609 C 0.55308 0.92126 0.50819 0.0
C610 C 0.51862 0.85406 0.51135 0.0
C611 C 0.55314 0.84307 0.51137 0.0
C612 C 0.58758 0.87309 0.50965 0.0
C613 C 0.58753 0.91039 0.50804 0.0
C614 C 0.58726 0.7548 0.52192 0.0
C615 C 0.55397 0.72394 0.51826 0.0
C616 C 0.58715 0.79183 0.51934 0.0
C617 C 0.55338 0.80171 0.51333 0.0
C618 C 0.51993 0.77073 0.50965 0.0
C619 C 0.52019 0.73355 0.51208 0.0
H620 H 0.68907 0.61842 0.82698 0.0
H621 H 0.64606 0.50245 0.83303 0.0
H622 H 0.75585 0.61526 0.82822 0.0
H623 H 0.71222 0.49912 0.83365 0.0
H624 H 0.83462 0.50972 0.85857 0.0
H625 H 0.76826 0.51153 0.85398 0.0
H626 H 0.80599 0.59748 0.81237 0.0
H627 H 0.87339 0.5963 0.81763 0.0
C628 C 0.69374 0.59221 0.82848 0.0
C629 C 0.66184 0.56077 0.83007 0.0
C630 C 0.73219 0.59033 0.82901 0.0
C631 C 0.74 0.55692 0.83111 0.0
C632 C 0.70791 0.5255 0.8324 0.0
C633 C 0.66963 0.5274 0.83195 0.0
C634 C 0.82879 0.52874 0.84821 0.0
C635 C 0.85958 0.5529 0.8385 0.0
C636 C 0.79043 0.52969 0.84548 0.0
C637 C 0.78116 0.55478 0.83283 0.0
C638 C 0.81178 0.5781 0.82246 0.0
C639 C 0.85045 0.57709 0.82522 0.0
H640 H 0.2652 0.74165 0.15439 0.0
H641 H 0.20624 0.82359 0.15434 0.0
H642 H 0.32756 0.78861 0.16012 0.0
H643 H 0.26802 0.87011 0.16078 0.0
H644 H 0.38504 0.95094 0.15935 0.0
H645 H 0.32962 0.90158 0.14658 0.0
H646 H 0.35919 0.82883 0.18783 0.0
H647 H 0.41544 0.87781 0.20005 0.0
C648 C 0.26559 0.76968 0.15543 0.0
C649 C 0.23077 0.7789 0.15409 0.0
C650 C 0.30123 0.79651 0.15885 0.0
C651 C 0.30272 0.83307 0.16091 0.0
C652 C 0.26799 0.84228 0.15901 0.0
C653 C 0.23248 0.81555 0.15561 0.0
C654 C 0.38026 0.92421 0.16535 0.0
C655 C 0.40431 0.91836 0.18087 0.0
C656 C 0.3483 0.89602 0.15818 0.0
C657 C 0.33973 0.86143 0.16638 0.0
C658 C 0.36506 0.85511 0.18114 0.0
C659 C 0.39701 0.88328 0.1883 0.0
H660 H 0.6027 0.18824 0.49677 0.0
H661 H 0.4919 0.15448 0.5235 0.0
H662 H 0.60277 0.25175 0.49893 0.0
H663 H 0.49192 0.21767 0.52584 0.0
H664 H 0.50796 0.33914 0.54199 0.0
H665 H 0.50853 0.27668 0.53875 0.0
H666 H 0.58611 0.30609 0.49105 0.0
H667 H 0.58565 0.36942 0.49442 0.0
C668 C 0.57804 0.19383 0.50319 0.0
C669 C 0.54728 0.1641 0.50991 0.0
C670 C 0.57797 0.23125 0.50439 0.0
C671 C 0.54741 0.24236 0.51272 0.0
C672 C 0.51678 0.21246 0.51948 0.0
C673 C 0.51661 0.17509 0.51802 0.0
C674 C 0.5256 0.33313 0.53072 0.0
C675 C 0.54697 0.36186 0.51868 0.0
C676 C 0.52561 0.29597 0.52868 0.0
C677 C 0.54738 0.28377 0.51454 0.0
C678 C 0.5688 0.31242 0.50239 0.0
C679 C 0.56832 0.34974 0.50425 0.0
H680 H 0.3903 0.50429 0.82655 0.0
H681 H 0.43013 0.62095 0.82954 0.0
H682 H 0.32342 0.50507 0.83036 0.0
H683 H 0.36358 0.62216 0.832 0.0
H684 H 0.25011 0.61468 0.86113 0.0
H685 H 0.31469 0.61475 0.85278 0.0
H686 H 0.2654 0.51463 0.81957 0.0
H687 H 0.20017 0.51405 0.82905 0.0
C688 C 0.38472 0.53017 0.82769 0.0
C689 C 0.41587 0.56254 0.82791 0.0
C690 C 0.3461 0.5307 0.82974 0.0
C691 C 0.33722 0.56369 0.83172 0.0
C692 C 0.36856 0.59602 0.83116 0.0
C693 C 0.40709 0.59542 0.82957 0.0
C694 C 0.25294 0.59305 0.85166 0.0
C695 C 0.21974 0.56455 0.84566 0.0
C696 C 0.29033 0.59305 0.84675 0.0
C697 C 0.29625 0.56463 0.83542 0.0
C698 C 0.26267 0.53682 0.82857 0.0
C699 C 0.22497 0.53675 0.83366 0.0
H700 H 0.81637 0.33922 0.13728 0.0
H701 H 0.84504 0.35168 0.1997 0.0
H702 H 0.7597 0.28681 0.1436 0.0
H703 H 0.78902 0.29996 0.20587 0.0
H704 H 0.72778 0.18166 0.20769 0.0
H705 H 0.77902 0.23193 0.19491 0.0
H706 H 0.69256 0.27134 0.16507 0.0
H707 H 0.64078 0.2204 0.17795 0.0
C708 C 0.81028 0.33101 0.1523 0.0
C709 C 0.83505 0.34942 0.16802 0.0
C710 C 0.77793 0.30127 0.15588 0.0
C711 C 0.77052 0.28928 0.17517 0.0
C712 C 0.79446 0.30853 0.19084 0.0
C713 C 0.82628 0.33832 0.18732 0.0
C714 C 0.71978 0.20066 0.19808 0.0
C715 C 0.68058 0.19767 0.19398 0.0
C716 C 0.74898 0.22936 0.19082 0.0
C717 C 0.73953 0.2557 0.17935 0.0
C718 C 0.7004 0.25129 0.17392 0.0
C719 C 0.67094 0.2223 0.18123 0.0
H720 H 0.99185 0.57526 0.09468 0.0
H721 H 0.0914 0.53557 0.09267 0.0
H722 H 0.99295 0.58286 0.05897 0.0
H723 H 0.09296 0.5439 0.05703 0.0
H724 H 0.09749 0.59778 0.99491 0.0
H725 H 0.10136 0.59644 0.03092 0.0
H726 H 0.98063 0.53257 0.03096 0.0
H727 H 0.97694 0.53229 -0.0048 0.0
C728 C 1.01429 0.56872 0.08663 0.0
C729 C 0.04132 0.55453 0.09631 0.0
C730 C 1.01485 0.57296 0.06626 0.0
C731 C 0.04295 0.5638 0.05533 0.0
C732 C 0.07113 0.55127 0.06516 0.0
C733 C 0.07009 0.54635 0.08548 0.0
C734 C 0.0719 0.58307 0.00257 0.0
C735 C 0.0368 0.56543 0.9921 0.0
C736 C 0.0741 0.58255 0.02315 0.0
C737 C 0.04113 0.56485 0.03361 0.0
C738 C 1.00623 0.54706 0.02321 0.0
C739 C 1.00416 0.54705 0.00272 0.0
H740 H 0.50987 0.08595 0.44153 0.0
H741 H 0.57303 1.0077 0.44705 0.0
H742 H 0.5172 0.08686 0.40616 0.0
H743 H 0.58084 1.00883 0.41134 0.0
H744 H 0.53398 0.98572 0.34587 0.0
H745 H 0.53784 0.9883 0.38175 0.0
H746 H 0.56391 0.10465 0.3806 0.0
H747 H 0.55843 0.10197 0.34479 0.0
C748 C 0.52571 0.06918 0.43516 0.0
C749 C 0.54058 0.04652 0.447 0.0
C750 C 0.53019 0.06992 0.41488 0.0
C751 C 0.54956 0.04788 0.40588 0.0
C752 C 0.56543 1.02586 0.41781 0.0
C753 C 0.56116 1.02534 0.43823 0.0
C754 C 0.54042 1.01185 0.35327 0.0
C755 C 0.54544 0.04358 0.34241 0.0
C756 C 0.54319 1.01337 0.37385 0.0
C757 C 0.55102 0.04666 0.38406 0.0
C758 C 0.55738 0.07851 0.37319 0.0
C759 C 0.55459 0.077 0.35263 0.0
H760 H 0.5813 0.54577 0.76918 0.0
H761 H 0.48369 0.58709 0.76055 0.0
H762 H 0.58249 0.53617 0.7338 0.0
H763 H 0.48268 0.57519 0.7253 0.0
H764 H 0.51206 0.58605 0.66132 0.0
H765 H 0.51151 0.59462 0.69656 0.0
H766 H 0.55727 0.50457 0.7055 0.0
H767 H 0.56159 0.49845 0.6703 0.0
C768 C 0.5596 0.55218 0.75969 0.0
C769 C 0.53262 0.56749 0.76763 0.0
C770 C 0.56003 0.54646 0.73929 0.0
C771 C 0.53287 0.55509 0.72627 0.0
C772 C 0.50493 0.56913 0.7345 0.0
C773 C 0.50515 0.57564 0.75483 0.0
C774 C 0.52281 0.56845 0.67071 0.0
C775 C 0.53699 0.54156 0.66258 0.0
C776 C 0.52172 0.57291 0.69115 0.0
C777 C 0.53407 0.5502 0.70429 0.0
C778 C 0.54796 0.52311 0.69615 0.0
C779 C 0.54976 0.51911 0.67571 0.0
H780 H 0.57369 0.99379 0.56932 0.0
H781 H 0.526 0.08259 0.56091 0.0
H782 H 0.55209 0.98787 0.60303 0.0
H783 H 0.50629 0.07822 0.59484 0.0
H784 H 0.45111 0.04664 0.65293 0.0
H785 H 0.46382 0.04418 0.61798 0.0
H786 H 0.57073 1.01991 0.6331 0.0
H787 H 0.5569 1.0208 0.66777 0.0
C788 C 0.55882 1.01217 0.5748 0.0
C789 C 0.55183 0.03887 0.56276 0.0
C790 C 0.54657 1.00893 0.59408 0.0
C791 C 0.52782 0.03283 0.60171 0.0
C792 C 0.52015 0.05904 0.58939 0.0
C793 C 0.53176 0.06181 0.57002 0.0
C794 C 0.47719 0.0407 0.64863 0.0
C795 C 0.5031 0.03395 0.66287 0.0
C796 C 0.48456 0.03936 0.62869 0.0
C797 C 0.51831 0.03184 0.62273 0.0
C798 C 0.54405 1.02498 0.63711 0.0
C799 C 0.53636 1.02577 0.65697 0.0
H800 H 0.58529 0.54612 0.89262 0.0
H801 H 0.46793 0.55114 0.88559 0.0
H802 H 0.58285 0.55265 0.92839 0.0
H803 H 0.46521 0.55801 0.92134 0.0
H804 H 0.45837 0.52156 0.98575 0.0
H805 H 0.46243 0.52044 0.95011 0.0
H806 H 0.57938 0.5937 0.95526 0.0
H807 H 0.57523 0.59513 0.99098 0.0
C808 C 0.55926 0.54936 0.8988 0.0
C809 C 0.52695 0.54855 0.88648 0.0
C810 C 0.55779 0.55311 0.91925 0.0
C811 C 0.52375 0.5557 0.92783 0.0
C812 C 0.49171 0.55563 0.91531 0.0
C813 C 0.49332 0.55208 0.89485 0.0
C814 C 0.48482 0.53784 0.97933 0.0
C815 C 0.51642 0.55851 0.99137 0.0
C816 C 0.48715 0.53719 0.95882 0.0
C817 C 0.52119 0.5571 0.94972 0.0
C818 C 0.55286 0.5777 0.96174 0.0
C819 C 0.55049 0.57845 0.98227 0.0
H820 H 0.06496 0.53439 0.21191 0.0
H821 H 0.98902 0.6011 0.21724 0.0
H822 H 0.0626 0.52413 0.24739 0.0
H823 H 0.98687 0.59115 0.25256 0.0
H824 H 0.96861 0.54698 0.31384 0.0
H825 H 0.9645 0.54504 0.27786 0.0
H826 H 0.08849 0.56287 0.27693 0.0
H827 H 0.09242 0.564 0.3128 0.0
C828 C 0.04756 0.54661 0.22064 0.0
C829 C 0.02752 0.56885 0.2119 0.0
C830 C 0.0463 0.54085 0.24093 0.0
C831 C 0.02468 0.55696 0.25279 0.0
C832 C 1.00347 0.57806 0.24383 0.0
C833 C 1.00496 0.584 0.22362 0.0
C834 C 0.99485 0.54989 0.30593 0.0
C835 C 0.0309 0.55601 0.31613 0.0
C836 C 0.99255 0.54904 0.28534 0.0
C837 C 0.02621 0.554 0.27455 0.0
C838 C 0.06198 0.55869 0.28479 0.0
C839 C 0.06431 0.55976 0.30534 0.0
loop_
_geom_bond_atom_site_label_1
_geom_bond_atom_site_label_2
_geom_bond_distance
_geom_bond_site_symmetry_2
_ccdc_geom_bond_type
Pr0 C2 2.880 . S
Pr0 O20 2.562 . S
Pr0 O21 2.490 . S
Pr0 O22 2.695 1_655 S
Pr0 O23 2.512 . S
Pr0 O25 2.437 . S
Pr0 O28 2.436 . S
Pr0 O30 2.438 1_655 S
Pr1 C11 2.880 . S
Pr1 O22 2.436 . S
Pr1 O24 2.438 1_455 S
Pr1 O26 2.562 . S
Pr1 O27 2.490 . S
Pr1 O28 2.695 1_455 S
Pr1 O29 2.512 . S
Pr1 O31 2.437 . S
C2 Pr0 2.880 . S
C2 C3 1.491 . S
C2 O20 1.254 . S
C2 O21 1.225 . S
C3 C2 1.491 . S
C3 C4 1.392 . S
C3 C8 1.356 . S
C4 C3 1.392 . S
C4 C5 1.368 . S
C4 H32 0.929 . S
C5 C4 1.368 . S
C5 C6 1.386 . S
C5 H33 0.929 . S
C6 C5 1.386 . S
C6 C7 1.373 . S
C7 C6 1.373 . S
C7 C8 1.409 . S
C7 H34 0.931 . S
C8 C3 1.356 . S
C8 C7 1.409 . S
C8 H35 0.930 . S
C9 O22 1.270 . S
C9 O23 1.248 1_455 S
C10 O24 1.267 . S
C10 O25 1.278 . S
C11 Pr1 2.880 . S
C11 C12 1.491 . S
C11 O26 1.254 . S
C11 O27 1.225 . S
C12 C11 1.491 . S
C12 C13 1.392 . S
C12 C17 1.356 . S
C13 C12 1.392 . S
C13 C14 1.368 . S
C13 H36 0.929 . S
C14 C13 1.368 . S
C14 C15 1.386 . S
C14 H37 0.929 . S
C15 C14 1.386 . S
C15 C16 1.373 . S
C16 C15 1.373 . S
C16 C17 1.409 . S
C16 H38 0.931 . S
C17 C12 1.356 . S
C17 C16 1.409 . S
C17 H39 0.930 . S
C18 O28 1.270 1_455 S
C18 O29 1.248 . S
C19 O30 1.267 . S
C19 O31 1.278 . S
O20 Pr0 2.562 . S
O20 C2 1.254 . S
O21 Pr0 2.490 . S
O21 C2 1.225 . S
O22 Pr0 2.695 1_455 S
O22 Pr1 2.436 . S
O22 C9 1.270 . S
O23 Pr0 2.512 . S
O23 C9 1.248 1_655 S
O24 Pr1 2.438 1_655 S
O24 C10 1.267 . S
O25 Pr0 2.437 . S
O25 C10 1.278 . S
O26 Pr1 2.562 . S
O26 C11 1.254 . S
O27 Pr1 2.490 . S
O27 C11 1.225 . S
O28 Pr0 2.436 . S
O28 Pr1 2.695 1_655 S
O28 C18 1.270 1_655 S
O29 Pr1 2.512 . S
O29 C18 1.248 . S
O30 Pr0 2.438 1_455 S
O30 C19 1.267 . S
O31 Pr1 2.437 . S
O31 C19 1.278 . S
H32 C4 0.929 . S
H33 C5 0.929 . S
H34 C7 0.931 . S
H35 C8 0.930 . S
H36 C13 0.929 . S
H37 C14 0.929 . S
H38 C16 0.931 . S
H39 C17 0.930 . S
Pr40 C42 2.880 . S
Pr40 O60 2.562 . S
Pr40 O61 2.490 . S
Pr40 O62 2.695 . S
Pr40 O63 2.512 . S
Pr40 O65 2.437 . S
Pr40 O68 2.436 . S
Pr40 O70 2.438 1_545 S
Pr41 C51 2.880 . S
Pr41 O62 2.436 1_565 S
Pr41 O64 2.438 1_565 S
Pr41 O66 2.562 . S
Pr41 O67 2.490 . S
Pr41 O68 2.695 1_565 S
Pr41 O69 2.512 . S
Pr41 O71 2.437 . S
C42 Pr40 2.880 . S
C42 C43 1.491 . S
C42 O60 1.254 . S
C42 O61 1.225 . S
C43 C42 1.491 . S
C43 C44 1.392 . S
C43 C48 1.356 . S
C44 C43 1.392 . S
C44 C45 1.368 . S
C44 H72 0.929 . S
C45 C44 1.368 . S
C45 C46 1.386 . S
C45 H73 0.929 . S
C46 C45 1.386 . S
C46 C47 1.373 . S
C47 C46 1.373 . S
C47 C48 1.409 . S
C47 H74 0.931 . S
C48 C43 1.356 . S
C48 C47 1.409 . S
C48 H75 0.930 . S
C49 O62 1.270 . S
C49 O63 1.248 . S
C50 O64 1.267 . S
C50 O65 1.278 . S
C51 Pr41 2.880 . S
C51 C52 1.491 . S
C51 O66 1.254 . S
C51 O67 1.225 . S
C52 C51 1.491 . S
C52 C53 1.392 . S
C52 C57 1.356 . S
C53 C52 1.392 . S
C53 C54 1.368 . S
C53 H76 0.929 . S
C54 C53 1.368 . S
C54 C55 1.386 . S
C54 H77 0.929 . S
C55 C54 1.386 . S
C55 C56 1.373 . S
C56 C55 1.373 . S
C56 C57 1.409 . S
C56 H78 0.931 . S
C57 C52 1.356 . S
C57 C56 1.409 . S
C57 H79 0.930 . S
C58 O68 1.270 . S
C58 O69 1.248 1_545 S
C59 O70 1.267 . S
C59 O71 1.278 . S
O60 Pr40 2.562 . S
O60 C42 1.254 . S
O61 Pr40 2.490 . S
O61 C42 1.225 . S
O62 Pr40 2.695 . S
O62 Pr41 2.436 1_545 S
O62 C49 1.270 . S
O63 Pr40 2.512 . S
O63 C49 1.248 . S
O64 Pr41 2.438 1_545 S
O64 C50 1.267 . S
O65 Pr40 2.437 . S
O65 C50 1.278 . S
O66 Pr41 2.562 . S
O66 C51 1.254 . S
O67 Pr41 2.490 . S
O67 C51 1.225 . S
O68 Pr40 2.436 . S
O68 Pr41 2.695 1_545 S
O68 C58 1.270 . S
O69 Pr41 2.512 . S
O69 C58 1.248 1_565 S
O70 Pr40 2.438 1_565 S
O70 C59 1.267 . S
O71 Pr41 2.437 . S
O71 C59 1.278 . S
H72 C44 0.929 . S
H73 C45 0.929 . S
H74 C47 0.931 . S
H75 C48 0.930 . S
H76 C53 0.929 . S
H77 C54 0.929 . S
H78 C56 0.931 . S
H79 C57 0.930 . S
Pr80 C82 2.880 . S
Pr80 O100 2.562 . S
Pr80 O101 2.490 . S
Pr80 O102 2.695 . S
Pr80 O103 2.512 . S
Pr80 O105 2.437 . S
Pr80 O108 2.436 . S
Pr80 O110 2.438 . S
Pr81 C91 2.880 . S
Pr81 O102 2.436 . S
Pr81 O104 2.438 . S
Pr81 O106 2.562 . S
Pr81 O107 2.490 . S
Pr81 O108 2.695 . S
Pr81 O109 2.512 . S
Pr81 O111 2.437 . S
C82 Pr80 2.880 . S
C82 C83 1.491 . S
C82 O100 1.254 . S
C82 O101 1.225 . S
C83 C82 1.491 . S
C83 C84 1.392 . S
C83 C88 1.356 . S
C84 C83 1.392 . S
C84 C85 1.368 . S
C84 H112 0.929 . S
C85 C84 1.368 . S
C85 C86 1.386 . S
C85 H113 0.929 . S
C86 C85 1.386 . S
C86 C87 1.373 . S
C87 C86 1.373 . S
C87 C88 1.409 . S
C87 H114 0.931 . S
C88 C83 1.356 . S
C88 C87 1.409 . S
C88 H115 0.930 . S
C89 O102 1.270 . S
C89 O103 1.248 . S
C90 O104 1.267 . S
C90 O105 1.278 . S
C91 Pr81 2.880 . S
C91 C92 1.491 . S
C91 O106 1.254 . S
C91 O107 1.225 . S
C92 C91 1.491 . S
C92 C93 1.392 . S
C92 C97 1.356 . S
C93 C92 1.392 . S
C93 C94 1.368 . S
C93 H116 0.929 . S
C94 C93 1.368 . S
C94 C95 1.386 . S
C94 H117 0.929 . S
C95 C94 1.386 . S
C95 C96 1.373 . S
C96 C95 1.373 . S
C96 C97 1.409 . S
C96 H118 0.931 . S
C97 C92 1.356 . S
C97 C96 1.409 . S
C97 H119 0.930 . S
C98 O108 1.270 . S
C98 O109 1.248 . S
C99 O110 1.267 . S
C99 O111 1.278 . S
O100 Pr80 2.562 . S
O100 C82 1.254 . S
O101 Pr80 2.490 . S
O101 C82 1.225 . S
O102 Pr80 2.695 . S
O102 Pr81 2.436 . S
O102 C89 1.270 . S
O103 Pr80 2.512 . S
O103 C89 1.248 . S
O104 Pr81 2.438 . S
O104 C90 1.267 . S
O105 Pr80 2.437 . S
O105 C90 1.278 . S
O106 Pr81 2.562 . S
O106 C91 1.254 . S
O107 Pr81 2.490 . S
O107 C91 1.225 . S
O108 Pr80 2.436 . S
O108 Pr81 2.695 . S
O108 C98 1.270 . S
O109 Pr81 2.512 . S
O109 C98 1.248 . S
O110 Pr80 2.438 . S
O110 C99 1.267 . S
O111 Pr81 2.437 . S
O111 C99 1.278 . S
H112 C84 0.929 . S
H113 C85 0.929 . S
H114 C87 0.931 . S
H115 C88 0.930 . S
H116 C93 0.929 . S
H117 C94 0.929 . S
H118 C96 0.931 . S
H119 C97 0.930 . S
C120 C121 1.391 . S
C120 C124 1.391 . S
C120 H162 0.948 . S
C121 C120 1.391 . S
C121 C122 1.391 . S
C122 C121 1.391 . S
C122 H178 0.947 . S
C122 C179 1.392 . S
C123 C124 1.391 . S
C123 C127 1.397 . S
C123 C179 1.419 . S
C124 C120 1.391 . S
C124 C123 1.391 . S
C124 C125 1.399 . S
C125 C124 1.399 . S
C125 C128 1.396 . S
C125 C137 1.453 . S
C125 C138 1.684 . S
H126 C150 0.948 . S
C127 C123 1.397 . S
C127 C128 1.394 . S
C127 C146 1.723 . S
C128 C125 1.396 . S
C128 C127 1.394 . S
C128 C158 1.723 . S
H129 C152 0.947 . S
H130 C153 0.948 . S
H131 C159 0.982 . S
H132 C160 0.979 . S
H133 C160 0.980 . S
H134 C160 0.983 . S
H135 C159 0.979 . S
H136 C159 0.977 . S
C137 C125 1.453 . S
C137 H166 0.982 . S
C137 H167 0.979 . S
C137 H168 0.977 . S
C138 C125 1.684 . S
C138 H163 0.979 . S
C138 H164 0.980 . S
C138 H165 0.983 . S
C139 C140 1.391 . S
C139 C144 1.391 . S
C139 H169 0.948 . S
C140 C139 1.391 . S
C140 C141 1.391 1_545 S
C141 C140 1.391 1_565 S
C141 C142 1.392 . S
C141 H170 0.947 . S
C142 C141 1.392 . S
C142 C143 1.419 1_565 S
C142 H171 0.948 . S
C143 C142 1.419 1_545 S
C143 C144 1.391 . S
C143 C147 1.397 . S
C144 C139 1.391 . S
C144 C143 1.391 . S
C144 C145 1.399 . S
C145 C144 1.399 . S
C145 C146 1.396 . S
C145 C148 1.453 . S
C145 C149 1.684 . S
C146 C127 1.723 . S
C146 C145 1.396 . S
C146 C147 1.394 . S
C147 C143 1.397 . S
C147 C146 1.394 . S
C147 C157 1.723 1_545 S
C148 C145 1.453 . S
C148 H172 0.982 . S
C148 H173 0.979 . S
C148 H174 0.977 . S
C149 C145 1.684 . S
C149 H175 0.979 . S
C149 H176 0.980 . S
C149 H177 0.983 . S
C150 H126 0.948 . S
C150 C151 1.391 . S
C150 C155 1.391 . S
C151 C150 1.391 . S
C151 C152 1.391 . S
C152 H129 0.947 . S
C152 C151 1.391 . S
C152 C153 1.392 . S
C153 H130 0.948 . S
C153 C152 1.392 . S
C153 C154 1.419 . S
C154 C153 1.419 . S
C154 C155 1.391 . S
C154 C158 1.397 1_565 S
C155 C150 1.391 . S
C155 C154 1.391 . S
C155 C156 1.399 . S
C156 C155 1.399 . S
C156 C157 1.396 . S
C156 C159 1.453 . S
C156 C160 1.684 . S
C157 C147 1.723 1_565 S
C157 C156 1.396 . S
C157 C158 1.394 1_565 S
C158 C128 1.723 . S
C158 C154 1.397 1_545 S
C158 C157 1.394 1_545 S
C159 H131 0.982 . S
C159 H135 0.979 . S
C159 H136 0.977 . S
C159 C156 1.453 . S
C160 H132 0.979 . S
C160 H133 0.980 . S
C160 H134 0.983 . S
C160 C156 1.684 . S
H161 C179 0.948 . S
H162 C120 0.948 . S
H163 C138 0.979 . S
H164 C138 0.980 . S
H165 C138 0.983 . S
H166 C137 0.982 . S
H167 C137 0.979 . S
H168 C137 0.977 . S
H169 C139 0.948 . S
H170 C141 0.947 . S
H171 C142 0.948 . S
H172 C148 0.982 . S
H173 C148 0.979 . S
H174 C148 0.977 . S
H175 C149 0.979 . S
H176 C149 0.980 . S
H177 C149 0.983 . S
H178 C122 0.947 . S
C179 C122 1.392 . S
C179 C123 1.419 . S
C179 H161 0.948 . S
C180 C181 1.391 . S
C180 C184 1.391 . S
C180 H222 0.948 . S
C181 C180 1.391 . S
C181 C182 1.391 . S
C182 C181 1.391 . S
C182 H238 0.947 . S
C182 C239 1.392 . S
C183 C184 1.391 . S
C183 C187 1.397 . S
C183 C239 1.419 . S
C184 C180 1.391 . S
C184 C183 1.391 . S
C184 C185 1.399 . S
C185 C184 1.399 . S
C185 C188 1.396 . S
C185 C197 1.453 . S
C185 C198 1.684 . S
H186 C210 0.948 . S
C187 C183 1.397 . S
C187 C188 1.394 . S
C187 C206 1.723 . S
C188 C185 1.396 . S
C188 C187 1.394 . S
C188 C218 1.723 . S
H189 C212 0.947 . S
H190 C213 0.948 . S
H191 C219 0.982 . S
H192 C220 0.979 . S
H193 C220 0.980 . S
H194 C220 0.983 . S
H195 C219 0.979 . S
H196 C219 0.977 . S
C197 C185 1.453 . S
C197 H226 0.982 . S
C197 H227 0.979 . S
C197 H228 0.977 . S
C198 C185 1.684 . S
C198 H223 0.979 . S
C198 H224 0.980 . S
C198 H225 0.983 . S
C199 C200 1.391 . S
C199 C204 1.391 . S
C199 H229 0.948 . S
C200 C199 1.391 . S
C200 C201 1.391 . S
C201 C200 1.391 . S
C201 C202 1.392 . S
C201 H230 0.947 . S
C202 C201 1.392 . S
C202 C203 1.419 . S
C202 H231 0.948 . S
C203 C202 1.419 . S
C203 C204 1.391 . S
C203 C207 1.397 . S
C204 C199 1.391 . S
C204 C203 1.391 . S
C204 C205 1.399 . S
C205 C204 1.399 . S
C205 C206 1.396 . S
C205 C208 1.453 . S
C205 C209 1.684 . S
C206 C187 1.723 . S
C206 C205 1.396 . S
C206 C207 1.394 . S
C207 C203 1.397 . S
C207 C206 1.394 . S
C207 C217 1.723 . S
C208 C205 1.453 . S
C208 H232 0.982 . S
C208 H233 0.979 . S
C208 H234 0.977 . S
C209 C205 1.684 . S
C209 H235 0.979 . S
C209 H236 0.980 . S
C209 H237 0.983 . S
C210 H186 0.948 . S
C210 C211 1.391 . S
C210 C215 1.391 . S
C211 C210 1.391 . S
C211 C212 1.391 . S
C212 H189 0.947 . S
C212 C211 1.391 . S
C212 C213 1.392 . S
C213 H190 0.948 . S
C213 C212 1.392 . S
C213 C214 1.419 . S
C214 C213 1.419 . S
C214 C215 1.391 . S
C214 C218 1.397 . S
C215 C210 1.391 . S
C215 C214 1.391 . S
C215 C216 1.399 . S
C216 C215 1.399 . S
C216 C217 1.396 . S
C216 C219 1.453 . S
C216 C220 1.684 . S
C217 C207 1.723 . S
C217 C216 1.396 . S
C217 C218 1.394 . S
C218 C188 1.723 . S
C218 C214 1.397 . S
C218 C217 1.394 . S
C219 H191 0.982 . S
C219 H195 0.979 . S
C219 H196 0.977 . S
C219 C216 1.453 . S
C220 H192 0.979 . S
C220 H193 0.980 . S
C220 H194 0.983 . S
C220 C216 1.684 . S
H221 C239 0.948 . S
H222 C180 0.948 . S
H223 C198 0.979 . S
H224 C198 0.980 . S
H225 C198 0.983 . S
H226 C197 0.982 . S
H227 C197 0.979 . S
H228 C197 0.977 . S
H229 C199 0.948 . S
H230 C201 0.947 . S
H231 C202 0.948 . S
H232 C208 0.982 . S
H233 C208 0.979 . S
H234 C208 0.977 . S
H235 C209 0.979 . S
H236 C209 0.980 . S
H237 C209 0.983 . S
H238 C182 0.947 . S
C239 C182 1.392 . S
C239 C183 1.419 . S
C239 H221 0.948 . S
C240 C241 1.391 . S
C240 C244 1.391 . S
C240 H282 0.948 . S
C241 C240 1.391 . S
C241 C242 1.391 . S
C242 C241 1.391 . S
C242 H298 0.947 . S
C242 C299 1.392 . S
C243 C244 1.391 . S
C243 C247 1.397 . S
C243 C299 1.419 . S
C244 C240 1.391 . S
C244 C243 1.391 . S
C244 C245 1.399 . S
C245 C244 1.399 . S
C245 C248 1.396 . S
C245 C257 1.453 . S
C245 C258 1.684 . S
H246 C270 0.948 . S
C247 C243 1.397 . S
C247 C248 1.394 . S
C247 C266 1.723 . S
C248 C245 1.396 . S
C248 C247 1.394 . S
C248 C278 1.723 1_455 S
H249 C272 0.947 . S
H250 C273 0.948 . S
H251 C279 0.982 . S
H252 C280 0.979 . S
H253 C280 0.980 . S
H254 C280 0.983 . S
H255 C279 0.979 . S
H256 C279 0.977 . S
C257 C245 1.453 . S
C257 H286 0.982 . S
C257 H287 0.979 . S
C257 H288 0.977 1_455 S
C258 C245 1.684 . S
C258 H283 0.979 . S
C258 H284 0.980 . S
C258 H285 0.983 . S
C259 C260 1.391 . S
C259 C264 1.391 . S
C259 H289 0.948 . S
C260 C259 1.391 . S
C260 C261 1.391 1_455 S
C261 C260 1.391 1_655 S
C261 C262 1.392 . S
C261 H290 0.947 . S
C262 C261 1.392 . S
C262 C263 1.419 1_655 S
C262 H291 0.948 . S
C263 C262 1.419 1_455 S
C263 C264 1.391 . S
C263 C267 1.397 . S
C264 C259 1.391 . S
C264 C263 1.391 . S
C264 C265 1.399 . S
C265 C264 1.399 . S
C265 C266 1.396 . S
C265 C268 1.453 . S
C265 C269 1.684 . S
C266 C247 1.723 . S
C266 C265 1.396 . S
C266 C267 1.394 . S
C267 C263 1.397 . S
C267 C266 1.394 . S
C267 C277 1.723 1_455 S
C268 C265 1.453 . S
C268 H292 0.982 . S
C268 H293 0.979 . S
C268 H294 0.977 . S
C269 C265 1.684 . S
C269 H295 0.979 . S
C269 H296 0.980 . S
C269 H297 0.983 . S
C270 H246 0.948 . S
C270 C271 1.391 . S
C270 C275 1.391 . S
C271 C270 1.391 . S
C271 C272 1.391 . S
C272 H249 0.947 . S
C272 C271 1.391 . S
C272 C273 1.392 . S
C273 H250 0.948 . S
C273 C272 1.392 . S
C273 C274 1.419 . S
C274 C273 1.419 . S
C274 C275 1.391 . S
C274 C278 1.397 . S
C275 C270 1.391 . S
C275 C274 1.391 . S
C275 C276 1.399 . S
C276 C275 1.399 . S
C276 C277 1.396 . S
C276 C279 1.453 . S
C276 C280 1.684 . S
C277 C267 1.723 1_655 S
C277 C276 1.396 . S
C277 C278 1.394 . S
C278 C248 1.723 1_655 S
C278 C274 1.397 . S
C278 C277 1.394 . S
C279 H251 0.982 . S
C279 H255 0.979 . S
C279 H256 0.977 . S
C279 C276 1.453 . S
C280 H252 0.979 . S
C280 H253 0.980 . S
C280 H254 0.983 . S
C280 C276 1.684 . S
H281 C299 0.948 . S
H282 C240 0.948 . S
H283 C258 0.979 . S
H284 C258 0.980 . S
H285 C258 0.983 . S
H286 C257 0.982 . S
H287 C257 0.979 . S
H288 C257 0.977 1_655 S
H289 C259 0.948 . S
H290 C261 0.947 . S
H291 C262 0.948 . S
H292 C268 0.982 . S
H293 C268 0.979 . S
H294 C268 0.977 . S
H295 C269 0.979 . S
H296 C269 0.980 . S
H297 C269 0.983 . S
H298 C242 0.947 . S
C299 C242 1.392 . S
C299 C243 1.419 . S
C299 H281 0.948 . S
C300 C301 1.391 . S
C300 C304 1.391 . S
C300 H342 0.948 . S
C301 C300 1.391 . S
C301 C302 1.391 . S
C302 C301 1.391 . S
C302 H358 0.947 . S
C302 C359 1.392 . S
C303 C304 1.391 . S
C303 C307 1.397 . S
C303 C359 1.419 . S
C304 C300 1.391 . S
C304 C303 1.391 . S
C304 C305 1.399 . S
C305 C304 1.399 . S
C305 C308 1.396 . S
C305 C317 1.453 1_655 S
C305 C318 1.684 . S
H306 C330 0.948 . S
C307 C303 1.397 . S
C307 C308 1.394 . S
C307 C326 1.723 . S
C308 C305 1.396 . S
C308 C307 1.394 . S
C308 C338 1.723 1_655 S
H309 C332 0.947 . S
H310 C333 0.948 . S
H311 C339 0.982 . S
H312 C340 0.979 . S
H313 C340 0.980 . S
H314 C340 0.983 . S
H315 C339 0.979 . S
H316 C339 0.977 . S
C317 C305 1.453 1_455 S
C317 H346 0.982 . S
C317 H347 0.979 1_455 S
C317 H348 0.977 . S
C318 C305 1.684 . S
C318 H343 0.979 . S
C318 H344 0.980 . S
C318 H345 0.983 . S
C319 C320 1.391 . S
C319 C324 1.391 . S
C319 H349 0.948 . S
C320 C319 1.391 . S
C320 C321 1.391 1_655 S
C321 C320 1.391 1_455 S
C321 C322 1.392 . S
C321 H350 0.947 . S
C322 C321 1.392 . S
C322 C323 1.419 . S
C322 H351 0.948 . S
C323 C322 1.419 . S
C323 C324 1.391 1_455 S
C323 C327 1.397 . S
C324 C319 1.391 . S
C324 C323 1.391 1_655 S
C324 C325 1.399 . S
C325 C324 1.399 . S
C325 C326 1.396 . S
C325 C328 1.453 . S
C325 C329 1.684 . S
C326 C307 1.723 . S
C326 C325 1.396 . S
C326 C327 1.394 1_655 S
C327 C323 1.397 . S
C327 C326 1.394 1_455 S
C327 C337 1.723 . S
C328 C325 1.453 . S
C328 H352 0.982 . S
C328 H353 0.979 . S
C328 H354 0.977 . S
C329 C325 1.684 . S
C329 H355 0.979 . S
C329 H356 0.980 . S
C329 H357 0.983 . S
C330 H306 0.948 . S
C330 C331 1.391 . S
C330 C335 1.391 . S
C331 C330 1.391 . S
C331 C332 1.391 . S
C332 H309 0.947 . S
C332 C331 1.391 . S
C332 C333 1.392 . S
C333 H310 0.948 . S
C333 C332 1.392 . S
C333 C334 1.419 . S
C334 C333 1.419 . S
C334 C335 1.391 . S
C334 C338 1.397 . S
C335 C330 1.391 . S
C335 C334 1.391 . S
C335 C336 1.399 . S
C336 C335 1.399 . S
C336 C337 1.396 . S
C336 C339 1.453 . S
C336 C340 1.684 . S
C337 C327 1.723 . S
C337 C336 1.396 . S
C337 C338 1.394 . S
C338 C308 1.723 1_455 S
C338 C334 1.397 . S
C338 C337 1.394 . S
C339 H311 0.982 . S
C339 H315 0.979 . S
C339 H316 0.977 . S
C339 C336 1.453 . S
C340 H312 0.979 . S
C340 H313 0.980 . S
C340 H314 0.983 . S
C340 C336 1.684 . S
H341 C359 0.948 . S
H342 C300 0.948 . S
H343 C318 0.979 . S
H344 C318 0.980 . S
H345 C318 0.983 . S
H346 C317 0.982 . S
H347 C317 0.979 1_655 S
H348 C317 0.977 . S
H349 C319 0.948 . S
H350 C321 0.947 . S
H351 C322 0.948 . S
H352 C328 0.982 . S
H353 C328 0.979 . S
H354 C328 0.977 . S
H355 C329 0.979 . S
H356 C329 0.980 . S
H357 C329 0.983 . S
H358 C302 0.947 . S
C359 C302 1.392 . S
C359 C303 1.419 . S
C359 H341 0.948 . S
C360 C361 1.391 . S
C360 C364 1.391 . S
C360 H402 0.948 . S
C361 C360 1.391 . S
C361 C362 1.391 . S
C362 C361 1.391 . S
C362 H418 0.947 . S
C362 C419 1.392 . S
C363 C364 1.391 . S
C363 C367 1.397 . S
C363 C419 1.419 . S
C364 C360 1.391 . S
C364 C363 1.391 . S
C364 C365 1.399 . S
C365 C364 1.399 . S
C365 C368 1.396 . S
C365 C377 1.453 . S
C365 C378 1.684 . S
H366 C390 0.948 . S
C367 C363 1.397 . S
C367 C368 1.394 . S
C367 C386 1.723 . S
C368 C365 1.396 . S
C368 C367 1.394 . S
C368 C398 1.723 1_565 S
H369 C392 0.947 . S
H370 C393 0.948 . S
H371 C399 0.982 . S
H372 C400 0.979 . S
H373 C400 0.980 . S
H374 C400 0.983 . S
H375 C399 0.979 . S
H376 C399 0.977 . S
C377 C365 1.453 . S
C377 H406 0.982 . S
C377 H407 0.979 . S
C377 H408 0.977 1_565 S
C378 C365 1.684 . S
C378 H403 0.979 . S
C378 H404 0.980 1_565 S
C378 H405 0.983 . S
C379 C380 1.391 1_565 S
C379 C384 1.391 . S
C379 H409 0.948 . S
C380 C379 1.391 1_545 S
C380 C381 1.391 . S
C381 C380 1.391 . S
C381 C382 1.392 . S
C381 H410 0.947 . S
C382 C381 1.392 . S
C382 C383 1.419 . S
C382 H411 0.948 . S
C383 C382 1.419 . S
C383 C384 1.391 1_545 S
C383 C387 1.397 . S
C384 C379 1.391 . S
C384 C383 1.391 1_565 S
C384 C385 1.399 . S
C385 C384 1.399 . S
C385 C386 1.396 . S
C385 C388 1.453 . S
C385 C389 1.684 . S
C386 C367 1.723 . S
C386 C385 1.396 . S
C386 C387 1.394 1_565 S
C387 C383 1.397 . S
C387 C386 1.394 1_545 S
C387 C397 1.723 . S
C388 C385 1.453 . S
C388 H412 0.982 . S
C388 H413 0.979 . S
C388 H414 0.977 . S
C389 C385 1.684 . S
C389 H415 0.979 . S
C389 H416 0.980 . S
C389 H417 0.983 . S
C390 H366 0.948 . S
C390 C391 1.391 . S
C390 C395 1.391 . S
C391 C390 1.391 . S
C391 C392 1.391 . S
C392 H369 0.947 . S
C392 C391 1.391 . S
C392 C393 1.392 . S
C393 H370 0.948 . S
C393 C392 1.392 . S
C393 C394 1.419 . S
C394 C393 1.419 . S
C394 C395 1.391 . S
C394 C398 1.397 . S
C395 C390 1.391 . S
C395 C394 1.391 . S
C395 C396 1.399 . S
C396 C395 1.399 . S
C396 C397 1.396 . S
C396 C399 1.453 . S
C396 C400 1.684 . S
C397 C387 1.723 . S
C397 C396 1.396 . S
C397 C398 1.394 . S
C398 C368 1.723 1_545 S
C398 C394 1.397 . S
C398 C397 1.394 . S
C399 H371 0.982 . S
C399 H375 0.979 . S
C399 H376 0.977 . S
C399 C396 1.453 . S
C400 H372 0.979 . S
C400 H373 0.980 . S
C400 H374 0.983 . S
C400 C396 1.684 . S
H401 C419 0.948 . S
H402 C360 0.948 . S
H403 C378 0.979 . S
H404 C378 0.980 1_545 S
H405 C378 0.983 . S
H406 C377 0.982 . S
H407 C377 0.979 . S
H408 C377 0.977 1_545 S
H409 C379 0.948 . S
H410 C381 0.947 . S
H411 C382 0.948 . S
H412 C388 0.982 . S
H413 C388 0.979 . S
H414 C388 0.977 . S
H415 C389 0.979 . S
H416 C389 0.980 . S
H417 C389 0.983 . S
H418 C362 0.947 . S
C419 C362 1.392 . S
C419 C363 1.419 . S
C419 H401 0.948 . S
C420 C421 1.391 . S
C420 C424 1.391 . S
C420 H462 0.948 . S
C421 C420 1.391 . S
C421 C422 1.391 . S
C422 C421 1.391 . S
C422 H478 0.947 . S
C422 C479 1.392 . S
C423 C424 1.391 . S
C423 C427 1.397 . S
C423 C479 1.419 . S
C424 C420 1.391 . S
C424 C423 1.391 . S
C424 C425 1.399 . S
C425 C424 1.399 . S
C425 C428 1.396 . S
C425 C437 1.453 . S
C425 C438 1.684 . S
H426 C450 0.948 . S
C427 C423 1.397 . S
C427 C428 1.394 . S
C427 C446 1.723 . S
C428 C425 1.396 . S
C428 C427 1.394 . S
C428 C458 1.723 . S
H429 C452 0.947 . S
H430 C453 0.948 . S
H431 C459 0.982 . S
H432 C460 0.979 . S
H433 C460 0.980 . S
H434 C460 0.983 . S
H435 C459 0.979 . S
H436 C459 0.977 . S
C437 C425 1.453 . S
C437 H466 0.982 . S
C437 H467 0.979 . S
C437 H468 0.977 . S
C438 C425 1.684 . S
C438 H463 0.979 . S
C438 H464 0.980 . S
C438 H465 0.983 . S
C439 C440 1.391 . S
C439 C444 1.391 . S
C439 H469 0.948 . S
C440 C439 1.391 . S
C440 C441 1.391 . S
C441 C440 1.391 . S
C441 C442 1.392 . S
C441 H470 0.947 . S
C442 C441 1.392 . S
C442 C443 1.419 . S
C442 H471 0.948 . S
C443 C442 1.419 . S
C443 C444 1.391 . S
C443 C447 1.397 . S
C444 C439 1.391 . S
C444 C443 1.391 . S
C444 C445 1.399 . S
C445 C444 1.399 . S
C445 C446 1.396 . S
C445 C448 1.453 . S
C445 C449 1.684 . S
C446 C427 1.723 . S
C446 C445 1.396 . S
C446 C447 1.394 . S
C447 C443 1.397 . S
C447 C446 1.394 . S
C447 C457 1.723 . S
C448 C445 1.453 . S
C448 H472 0.982 . S
C448 H473 0.979 . S
C448 H474 0.977 . S
C449 C445 1.684 . S
C449 H475 0.979 . S
C449 H476 0.980 . S
C449 H477 0.983 . S
C450 H426 0.948 . S
C450 C451 1.391 . S
C450 C455 1.391 . S
C451 C450 1.391 . S
C451 C452 1.391 . S
C452 H429 0.947 . S
C452 C451 1.391 . S
C452 C453 1.392 . S
C453 H430 0.948 . S
C453 C452 1.392 . S
C453 C454 1.419 . S
C454 C453 1.419 . S
C454 C455 1.391 . S
C454 C458 1.397 . S
C455 C450 1.391 . S
C455 C454 1.391 . S
C455 C456 1.399 . S
C456 C455 1.399 . S
C456 C457 1.396 . S
C456 C459 1.453 . S
C456 C460 1.684 . S
C457 C447 1.723 . S
C457 C456 1.396 . S
C457 C458 1.394 . S
C458 C428 1.723 . S
C458 C454 1.397 . S
C458 C457 1.394 . S
C459 H431 0.982 . S
C459 H435 0.979 . S
C459 H436 0.977 . S
C459 C456 1.453 . S
C460 H432 0.979 . S
C460 H433 0.980 . S
C460 H434 0.983 . S
C460 C456 1.684 . S
H461 C479 0.948 . S
H462 C420 0.948 . S
H463 C438 0.979 . S
H464 C438 0.980 . S
H465 C438 0.983 . S
H466 C437 0.982 . S
H467 C437 0.979 . S
H468 C437 0.977 . S
H469 C439 0.948 . S
H470 C441 0.947 . S
H471 C442 0.948 . S
H472 C448 0.982 . S
H473 C448 0.979 . S
H474 C448 0.977 . S
H475 C449 0.979 . S
H476 C449 0.980 . S
H477 C449 0.983 . S
H478 C422 0.947 . S
C479 C422 1.392 . S
C479 C423 1.419 . S
C479 H461 0.948 . S
H480 C488 0.950 . S
H481 C493 0.950 . S
H482 C490 0.950 . S
H483 C492 0.950 . S
H484 C494 0.950 . S
H485 C496 0.950 . S
H486 C498 0.950 . S
H487 C499 0.950 . S
C488 H480 0.950 . S
C488 C489 1.386 . S
C488 C490 1.391 . S
C489 C488 1.386 . S
C489 C493 1.393 . S
C490 H482 0.950 . S
C490 C488 1.391 . S
C490 C491 1.400 . S
C491 C490 1.400 . S
C491 C492 1.398 . S
C491 C497 1.491 . S
C492 H483 0.950 . S
C492 C491 1.398 . S
C492 C493 1.391 . S
C493 H481 0.950 . S
C493 C489 1.393 . S
C493 C492 1.391 . S
C494 H484 0.950 . S
C494 C495 1.386 . S
C494 C496 1.391 . S
C495 C494 1.386 . S
C495 C499 1.393 . S
C496 H485 0.950 . S
C496 C494 1.391 . S
C496 C497 1.400 . S
C497 C491 1.491 . S
C497 C496 1.400 . S
C497 C498 1.398 . S
C498 H486 0.950 . S
C498 C497 1.398 . S
C498 C499 1.391 . S
C499 H487 0.950 . S
C499 C495 1.393 . S
C499 C498 1.391 . S
H500 C508 0.950 . S
H501 C513 0.950 . S
H502 C510 0.950 . S
H503 C512 0.950 . S
H504 C514 0.950 . S
H505 C516 0.950 . S
H506 C518 0.950 . S
H507 C519 0.950 . S
C508 H500 0.950 . S
C508 C509 1.386 . S
C508 C510 1.391 . S
C509 C508 1.386 . S
C509 C513 1.393 . S
C510 H502 0.950 . S
C510 C508 1.391 . S
C510 C511 1.400 . S
C511 C510 1.400 . S
C511 C512 1.398 . S
C511 C517 1.491 . S
C512 H503 0.950 . S
C512 C511 1.398 . S
C512 C513 1.391 . S
C513 H501 0.950 . S
C513 C509 1.393 . S
C513 C512 1.391 . S
C514 H504 0.950 . S
C514 C515 1.386 . S
C514 C516 1.391 . S
C515 C514 1.386 . S
C515 C519 1.393 . S
C516 H505 0.950 . S
C516 C514 1.391 . S
C516 C517 1.400 . S
C517 C511 1.491 . S
C517 C516 1.400 . S
C517 C518 1.398 . S
C518 H506 0.950 . S
C518 C517 1.398 . S
C518 C519 1.391 . S
C519 H507 0.950 . S
C519 C515 1.393 . S
C519 C518 1.391 . S
H520 C528 0.950 . S
H521 C533 0.950 . S
H522 C530 0.950 . S
H523 C532 0.950 . S
H524 C534 0.950 . S
H525 C536 0.950 . S
H526 C538 0.950 . S
H527 C539 0.950 . S
C528 H520 0.950 . S
C528 C529 1.386 . S
C528 C530 1.391 . S
C529 C528 1.386 . S
C529 C533 1.393 . S
C530 H522 0.950 . S
C530 C528 1.391 . S
C530 C531 1.400 . S
C531 C530 1.400 . S
C531 C532 1.398 . S
C531 C537 1.491 . S
C532 H523 0.950 . S
C532 C531 1.398 . S
C532 C533 1.391 . S
C533 H521 0.950 . S
C533 C529 1.393 . S
C533 C532 1.391 . S
C534 H524 0.950 . S
C534 C535 1.386 . S
C534 C536 1.391 . S
C535 C534 1.386 . S
C535 C539 1.393 . S
C536 H525 0.950 . S
C536 C534 1.391 . S
C536 C537 1.400 . S
C537 C531 1.491 . S
C537 C536 1.400 . S
C537 C538 1.398 . S
C538 H526 0.950 . S
C538 C537 1.398 . S
C538 C539 1.391 . S
C539 H527 0.950 . S
C539 C535 1.393 . S
C539 C538 1.391 . S
H540 C548 0.950 . S
H541 C553 0.950 . S
H542 C550 0.950 . S
H543 C552 0.950 . S
H544 C554 0.950 . S
H545 C556 0.950 . S
H546 C558 0.950 . S
H547 C559 0.950 . S
C548 H540 0.950 . S
C548 C549 1.386 . S
C548 C550 1.391 . S
C549 C548 1.386 . S
C549 C553 1.393 . S
C550 H542 0.950 . S
C550 C548 1.391 . S
C550 C551 1.400 . S
C551 C550 1.400 . S
C551 C552 1.398 . S
C551 C557 1.491 . S
C552 H543 0.950 . S
C552 C551 1.398 . S
C552 C553 1.391 . S
C553 H541 0.950 . S
C553 C549 1.393 . S
C553 C552 1.391 . S
C554 H544 0.950 . S
C554 C555 1.386 . S
C554 C556 1.391 . S
C555 C554 1.386 . S
C555 C559 1.393 . S
C556 H545 0.950 . S
C556 C554 1.391 . S
C556 C557 1.400 . S
C557 C551 1.491 . S
C557 C556 1.400 . S
C557 C558 1.398 . S
C558 H546 0.950 . S
C558 C557 1.398 . S
C558 C559 1.391 . S
C559 H547 0.950 . S
C559 C555 1.393 . S
C559 C558 1.391 . S
H560 C568 0.950 . S
H561 C573 0.950 . S
H562 C570 0.950 . S
H563 C572 0.950 . S
H564 C574 0.950 . S
H565 C576 0.950 . S
H566 C578 0.950 . S
H567 C579 0.950 . S
C568 H560 0.950 . S
C568 C569 1.386 . S
C568 C570 1.391 . S
C569 C568 1.386 . S
C569 C573 1.393 . S
C570 H562 0.950 . S
C570 C568 1.391 . S
C570 C571 1.400 . S
C571 C570 1.400 . S
C571 C572 1.398 . S
C571 C577 1.491 . S
C572 H563 0.950 . S
C572 C571 1.398 . S
C572 C573 1.391 . S
C573 H561 0.950 . S
C573 C569 1.393 . S
C573 C572 1.391 . S
C574 H564 0.950 . S
C574 C575 1.386 . S
C574 C576 1.391 . S
C575 C574 1.386 . S
C575 C579 1.393 . S
C576 H565 0.950 . S
C576 C574 1.391 . S
C576 C577 1.400 . S
C577 C571 1.491 . S
C577 C576 1.400 . S
C577 C578 1.398 . S
C578 H566 0.950 . S
C578 C577 1.398 . S
C578 C579 1.391 . S
C579 H567 0.950 . S
C579 C575 1.393 . S
C579 C578 1.391 . S
H580 C588 0.950 . S
H581 C593 0.950 . S
H582 C590 0.950 . S
H583 C592 0.950 . S
H584 C594 0.950 . S
H585 C596 0.950 . S
H586 C598 0.950 . S
H587 C599 0.950 . S
C588 H580 0.950 . S
C588 C589 1.386 . S
C588 C590 1.391 . S
C589 C588 1.386 . S
C589 C593 1.393 . S
C590 H582 0.950 . S
C590 C588 1.391 . S
C590 C591 1.400 . S
C591 C590 1.400 . S
C591 C592 1.398 . S
C591 C597 1.491 . S
C592 H583 0.950 . S
C592 C591 1.398 . S
C592 C593 1.391 . S
C593 H581 0.950 . S
C593 C589 1.393 . S
C593 C592 1.391 . S
C594 H584 0.950 . S
C594 C595 1.386 . S
C594 C596 1.391 . S
C595 C594 1.386 . S
C595 C599 1.393 . S
C596 H585 0.950 . S
C596 C594 1.391 . S
C596 C597 1.400 . S
C597 C591 1.491 . S
C597 C596 1.400 . S
C597 C598 1.398 . S
C598 H586 0.950 . S
C598 C597 1.398 . S
C598 C599 1.391 . S
C599 H587 0.950 . S
C599 C595 1.393 . S
C599 C598 1.391 . S
H600 C608 0.950 . S
H601 C613 0.950 . S
H602 C610 0.950 . S
H603 C612 0.950 . S
H604 C614 0.950 . S
H605 C616 0.950 . S
H606 C618 0.950 . S
H607 C619 0.950 . S
C608 H600 0.950 . S
C608 C609 1.386 . S
C608 C610 1.391 . S
C609 C608 1.386 . S
C609 C613 1.393 . S
C610 H602 0.950 . S
C610 C608 1.391 . S
C610 C611 1.400 . S
C611 C610 1.400 . S
C611 C612 1.398 . S
C611 C617 1.491 . S
C612 H603 0.950 . S
C612 C611 1.398 . S
C612 C613 1.391 . S
C613 H601 0.950 . S
C613 C609 1.393 . S
C613 C612 1.391 . S
C614 H604 0.950 . S
C614 C615 1.386 . S
C614 C616 1.391 . S
C615 C614 1.386 . S
C615 C619 1.393 . S
C616 H605 0.950 . S
C616 C614 1.391 . S
C616 C617 1.400 . S
C617 C611 1.491 . S
C617 C616 1.400 . S
C617 C618 1.398 . S
C618 H606 0.950 . S
C618 C617 1.398 . S
C618 C619 1.391 . S
C619 H607 0.950 . S
C619 C615 1.393 . S
C619 C618 1.391 . S
H620 C628 0.950 . S
H621 C633 0.950 . S
H622 C630 0.950 . S
H623 C632 0.950 . S
H624 C634 0.950 . S
H625 C636 0.950 . S
H626 C638 0.950 . S
H627 C639 0.950 . S
C628 H620 0.950 . S
C628 C629 1.386 . S
C628 C630 1.391 . S
C629 C628 1.386 . S
C629 C633 1.393 . S
C630 H622 0.950 . S
C630 C628 1.391 . S
C630 C631 1.400 . S
C631 C630 1.400 . S
C631 C632 1.398 . S
C631 C637 1.491 . S
C632 H623 0.950 . S
C632 C631 1.398 . S
C632 C633 1.391 . S
C633 H621 0.950 . S
C633 C629 1.393 . S
C633 C632 1.391 . S
C634 H624 0.950 . S
C634 C635 1.386 . S
C634 C636 1.391 . S
C635 C634 1.386 . S
C635 C639 1.393 . S
C636 H625 0.950 . S
C636 C634 1.391 . S
C636 C637 1.400 . S
C637 C631 1.491 . S
C637 C636 1.400 . S
C637 C638 1.398 . S
C638 H626 0.950 . S
C638 C637 1.398 . S
C638 C639 1.391 . S
C639 H627 0.950 . S
C639 C635 1.393 . S
C639 C638 1.391 . S
H640 C648 0.950 . S
H641 C653 0.950 . S
H642 C650 0.950 . S
H643 C652 0.950 . S
H644 C654 0.950 . S
H645 C656 0.950 . S
H646 C658 0.950 . S
H647 C659 0.950 . S
C648 H640 0.950 . S
C648 C649 1.386 . S
C648 C650 1.391 . S
C649 C648 1.386 . S
C649 C653 1.393 . S
C650 H642 0.950 . S
C650 C648 1.391 . S
C650 C651 1.400 . S
C651 C650 1.400 . S
C651 C652 1.398 . S
C651 C657 1.491 . S
C652 H643 0.950 . S
C652 C651 1.398 . S
C652 C653 1.391 . S
C653 H641 0.950 . S
C653 C649 1.393 . S
C653 C652 1.391 . S
C654 H644 0.950 . S
C654 C655 1.386 . S
C654 C656 1.391 . S
C655 C654 1.386 . S
C655 C659 1.393 . S
C656 H645 0.950 . S
C656 C654 1.391 . S
C656 C657 1.400 . S
C657 C651 1.491 . S
C657 C656 1.400 . S
C657 C658 1.398 . S
C658 H646 0.950 . S
C658 C657 1.398 . S
C658 C659 1.391 . S
C659 H647 0.950 . S
C659 C655 1.393 . S
C659 C658 1.391 . S
H660 C668 0.950 . S
H661 C673 0.950 . S
H662 C670 0.950 . S
H663 C672 0.950 . S
H664 C674 0.950 . S
H665 C676 0.950 . S
H666 C678 0.950 . S
H667 C679 0.950 . S
C668 H660 0.950 . S
C668 C669 1.386 . S
C668 C670 1.391 . S
C669 C668 1.386 . S
C669 C673 1.393 . S
C670 H662 0.950 . S
C670 C668 1.391 . S
C670 C671 1.400 . S
C671 C670 1.400 . S
C671 C672 1.398 . S
C671 C677 1.491 . S
C672 H663 0.950 . S
C672 C671 1.398 . S
C672 C673 1.391 . S
C673 H661 0.950 . S
C673 C669 1.393 . S
C673 C672 1.391 . S
C674 H664 0.950 . S
C674 C675 1.386 . S
C674 C676 1.391 . S
C675 C674 1.386 . S
C675 C679 1.393 . S
C676 H665 0.950 . S
C676 C674 1.391 . S
C676 C677 1.400 . S
C677 C671 1.491 . S
C677 C676 1.400 . S
C677 C678 1.398 . S
C678 H666 0.950 . S
C678 C677 1.398 . S
C678 C679 1.391 . S
C679 H667 0.950 . S
C679 C675 1.393 . S
C679 C678 1.391 . S
H680 C688 0.950 . S
H681 C693 0.950 . S
H682 C690 0.950 . S
H683 C692 0.950 . S
H684 C694 0.950 . S
H685 C696 0.950 . S
H686 C698 0.950 . S
H687 C699 0.950 . S
C688 H680 0.950 . S
C688 C689 1.386 . S
C688 C690 1.391 . S
C689 C688 1.386 . S
C689 C693 1.393 . S
C690 H682 0.950 . S
C690 C688 1.391 . S
C690 C691 1.400 . S
C691 C690 1.400 . S
C691 C692 1.398 . S
C691 C697 1.491 . S
C692 H683 0.950 . S
C692 C691 1.398 . S
C692 C693 1.391 . S
C693 H681 0.950 . S
C693 C689 1.393 . S
C693 C692 1.391 . S
C694 H684 0.950 . S
C694 C695 1.386 . S
C694 C696 1.391 . S
C695 C694 1.386 . S
C695 C699 1.393 . S
C696 H685 0.950 . S
C696 C694 1.391 . S
C696 C697 1.400 . S
C697 C691 1.491 . S
C697 C696 1.400 . S
C697 C698 1.398 . S
C698 H686 0.950 . S
C698 C697 1.398 . S
C698 C699 1.391 . S
C699 H687 0.950 . S
C699 C695 1.393 . S
C699 C698 1.391 . S
H700 C708 0.950 . S
H701 C713 0.950 . S
H702 C710 0.950 . S
H703 C712 0.950 . S
H704 C714 0.950 . S
H705 C716 0.950 . S
H706 C718 0.950 . S
H707 C719 0.950 . S
C708 H700 0.950 . S
C708 C709 1.386 . S
C708 C710 1.391 . S
C709 C708 1.386 . S
C709 C713 1.393 . S
C710 H702 0.950 . S
C710 C708 1.391 . S
C710 C711 1.400 . S
C711 C710 1.400 . S
C711 C712 1.398 . S
C711 C717 1.491 . S
C712 H703 0.950 . S
C712 C711 1.398 . S
C712 C713 1.391 . S
C713 H701 0.950 . S
C713 C709 1.393 . S
C713 C712 1.391 . S
C714 H704 0.950 . S
C714 C715 1.386 . S
C714 C716 1.391 . S
C715 C714 1.386 . S
C715 C719 1.393 . S
C716 H705 0.950 . S
C716 C714 1.391 . S
C716 C717 1.400 . S
C717 C711 1.491 . S
C717 C716 1.400 . S
C717 C718 1.398 . S
C718 H706 0.950 . S
C718 C717 1.398 . S
C718 C719 1.391 . S
C719 H707 0.950 . S
C719 C715 1.393 . S
C719 C718 1.391 . S
H720 C728 0.950 . S
H721 C733 0.950 . S
H722 C730 0.950 . S
H723 C732 0.950 . S
H724 C734 0.948 . S
H725 C736 0.950 . S
H726 C738 0.950 . S
H727 C739 0.950 1_556 S
C728 H720 0.950 . S
C728 C729 1.386 1_655 S
C728 C730 1.391 . S
C729 C728 1.386 1_455 S
C729 C733 1.393 . S
C730 H722 0.950 . S
C730 C728 1.391 . S
C730 C731 1.400 1_655 S
C731 C730 1.400 1_455 S
C731 C732 1.398 . S
C731 C737 1.491 . S
C732 H723 0.950 . S
C732 C731 1.398 . S
C732 C733 1.391 . S
C733 H721 0.950 . S
C733 C729 1.393 . S
C733 C732 1.391 . S
C734 H724 0.948 . S
C734 C735 1.386 1_554 S
C734 C736 1.391 . S
C735 C734 1.386 1_556 S
C735 C739 1.393 1_456 S
C736 H725 0.950 . S
C736 C734 1.391 . S
C736 C737 1.400 . S
C737 C731 1.491 . S
C737 C736 1.400 . S
C737 C738 1.398 1_455 S
C738 H726 0.950 . S
C738 C737 1.398 1_655 S
C738 C739 1.391 . S
C739 H727 0.950 1_554 S
C739 C735 1.393 1_654 S
C739 C738 1.391 . S
H740 C748 0.950 . S
H741 C753 0.950 . S
H742 C750 0.950 . S
H743 C752 0.950 . S
H744 C754 0.933 1_565 S
H745 C756 0.970 . S
H746 C758 0.950 . S
H747 C759 0.950 . S
C748 H740 0.950 . S
C748 C749 1.386 . S
C748 C750 1.391 . S
C749 C748 1.386 . S
C749 C753 1.393 1_545 S
C750 H742 0.950 . S
C750 C748 1.391 . S
C750 C751 1.400 . S
C751 C750 1.400 . S
C751 C752 1.398 1_545 S
C751 C757 1.491 . S
C752 H743 0.950 . S
C752 C751 1.398 1_565 S
C752 C753 1.391 . S
C753 H741 0.950 . S
C753 C749 1.393 1_565 S
C753 C752 1.391 . S
C754 H744 0.933 1_545 S
C754 C755 1.404 . S
C754 C756 1.389 1_545 S
C755 C754 1.404 . S
C755 C759 1.393 . S
C756 H745 0.970 . S
C756 C754 1.389 1_565 S
C756 C757 1.383 1_565 S
C757 C751 1.491 . S
C757 C756 1.383 1_545 S
C757 C758 1.398 . S
C758 H746 0.950 . S
C758 C757 1.398 . S
C758 C759 1.391 . S
C759 H747 0.950 . S
C759 C755 1.393 . S
C759 C758 1.391 . S
H760 C768 0.950 . S
H761 C773 0.950 . S
H762 C770 0.950 . S
H763 C772 0.950 . S
H764 C774 0.950 . S
H765 C776 0.950 . S
H766 C778 0.950 . S
H767 C779 0.950 . S
C768 H760 0.950 . S
C768 C769 1.386 . S
C768 C770 1.391 . S
C769 C768 1.386 . S
C769 C773 1.393 . S
C770 H762 0.950 . S
C770 C768 1.391 . S
C770 C771 1.400 . S
C771 C770 1.400 . S
C771 C772 1.398 . S
C771 C777 1.491 . S
C772 H763 0.950 . S
C772 C771 1.398 . S
C772 C773 1.391 . S
C773 H761 0.950 . S
C773 C769 1.393 . S
C773 C772 1.391 . S
C774 H764 0.950 . S
C774 C775 1.386 . S
C774 C776 1.391 . S
C775 C774 1.386 . S
C775 C779 1.393 . S
C776 H765 0.950 . S
C776 C774 1.391 . S
C776 C777 1.400 . S
C777 C771 1.491 . S
C777 C776 1.400 . S
C777 C778 1.398 . S
C778 H766 0.950 . S
C778 C777 1.398 . S
C778 C779 1.391 . S
C779 H767 0.950 . S
C779 C775 1.393 . S
C779 C778 1.391 . S
H780 C788 0.950 . S
H781 C793 0.950 . S
H782 C790 0.950 . S
H783 C792 0.950 . S
H784 C794 0.950 . S
H785 C796 0.950 . S
H786 C798 0.950 . S
H787 C799 0.950 . S
C788 H780 0.950 . S
C788 C789 1.386 1_565 S
C788 C790 1.391 . S
C789 C788 1.386 1_545 S
C789 C793 1.393 . S
C790 H782 0.950 . S
C790 C788 1.391 . S
C790 C791 1.400 1_565 S
C791 C790 1.400 1_545 S
C791 C792 1.398 . S
C791 C797 1.491 . S
C792 H783 0.950 . S
C792 C791 1.398 . S
C792 C793 1.391 . S
C793 H781 0.950 . S
C793 C789 1.393 . S
C793 C792 1.391 . S
C794 H784 0.950 . S
C794 C795 1.386 . S
C794 C796 1.391 . S
C795 C794 1.386 . S
C795 C799 1.393 1_545 S
C796 H785 0.950 . S
C796 C794 1.391 . S
C796 C797 1.400 . S
C797 C791 1.491 . S
C797 C796 1.400 . S
C797 C798 1.398 1_545 S
C798 H786 0.950 . S
C798 C797 1.398 1_565 S
C798 C799 1.391 . S
C799 H787 0.950 . S
C799 C795 1.393 1_565 S
C799 C798 1.391 . S
H800 C808 0.950 . S
H801 C813 0.950 . S
H802 C810 0.950 . S
H803 C812 0.950 . S
H804 C814 0.950 1_554 S
H805 C816 0.950 . S
H806 C818 0.950 . S
H807 C819 0.950 1_554 S
C808 H800 0.950 . S
C808 C809 1.386 . S
C808 C810 1.391 . S
C809 C808 1.386 . S
C809 C813 1.393 . S
C810 H802 0.950 . S
C810 C808 1.391 . S
C810 C811 1.400 . S
C811 C810 1.400 . S
C811 C812 1.398 . S
C811 C817 1.491 . S
C812 H803 0.950 . S
C812 C811 1.398 . S
C812 C813 1.391 . S
C813 H801 0.950 . S
C813 C809 1.393 . S
C813 C812 1.391 . S
C814 H804 0.950 1_556 S
C814 C815 1.386 1_556 S
C814 C816 1.391 . S
C815 C814 1.386 1_554 S
C815 C819 1.393 1_554 S
C816 H805 0.950 . S
C816 C814 1.391 . S
C816 C817 1.400 . S
C817 C811 1.491 . S
C817 C816 1.400 . S
C817 C818 1.398 . S
C818 H806 0.950 . S
C818 C817 1.398 . S
C818 C819 1.391 . S
C819 H807 0.950 1_556 S
C819 C815 1.393 1_556 S
C819 C818 1.391 . S
H820 C828 0.950 . S
H821 C833 0.950 . S
H822 C830 0.950 . S
H823 C832 0.950 . S
H824 C834 0.950 . S
H825 C836 0.950 . S
H826 C838 0.950 . S
H827 C839 0.950 . S
C828 H820 0.950 . S
C828 C829 1.386 . S
C828 C830 1.391 . S
C829 C828 1.386 . S
C829 C833 1.393 1_455 S
C830 H822 0.950 . S
C830 C828 1.391 . S
C830 C831 1.400 . S
C831 C830 1.400 . S
C831 C832 1.398 1_455 S
C831 C837 1.491 1_455 S
C832 H823 0.950 . S
C832 C831 1.398 1_655 S
C832 C833 1.391 . S
C833 H821 0.950 . S
C833 C829 1.393 1_655 S
C833 C832 1.391 . S
C834 H824 0.950 . S
C834 C835 1.386 . S
C834 C836 1.391 . S
C835 C834 1.386 . S
C835 C839 1.393 1_655 S
C836 H825 0.950 . S
C836 C834 1.391 . S
C836 C837 1.400 . S
C837 C831 1.491 1_655 S
C837 C836 1.400 . S
C837 C838 1.398 1_655 S
C838 H826 0.950 . S
C838 C837 1.398 1_455 S
C838 C839 1.391 . S
C839 H827 0.950 . S
C839 C835 1.393 1_455 S
C839 C838 1.391 . S
C489 C19 1.926 . S
C495 C451 1.917 . S
C509 C46 1.229 . S
C515 C301 1.198 . S
C529 C95 0.464 . S
C535 C361 0.386 . S
C549 C10 2.027 . S
C555 C421 1.864 . S
C575 C331 1.314 . S
C569 C55 1.310 . S
C595 C391 0.528 . S
C589 C86 0.566 . S
C609 C59 3.099 . S
C615 C181 2.920 . S
C629 C90 2.043 . S
C635 C271 2.072 . S
C649 C15 1.297 . S
C655 C151 1.306 . S
C675 C211 3.012 . S
C669 C50 3.008 . S
C695 C241 1.802 . S
C689 C99 1.921 . S
C709 C6 1.210 . S
C715 C121 1.158 . S
C735 C260 1.358 . S
C729 C9 1.339 . S
C749 C58 1.457 . S
C755 C140 1.473 . S
C769 C98 1.713 . S
C775 C200 1.752 . S
C795 C380 1.079 . S
C789 C49 1.056 . S
C815 C440 1.343 . S
C809 C89 1.333 . S
C829 C18 1.427 . S
C835 C320 1.470 . S
