# Generated by pormake.
# Topology hwx, (6,3)-cn, num edge types: 1
# Building blocks:
#     Node 0, Type 0, BuildingBlock: OJICUG_clean_sbu_0, # of connection points: 6
#     Node 1, Type 0, BuildingBlock: OJICUG_clean_sbu_0, # of connection points: 6
#     Node 2, Type 0, BuildingBlock: OJICUG_clean_sbu_0, # of connection points: 6
#     Node 3, Type 0, BuildingBlock: OJICUG_clean_sbu_0, # of connection points: 6
#     Node 4, Type 1, BuildingBlock: BETDAH_clean_linker_0, # of connection points: 3
#     Node 5, Type 1, BuildingBlock: BETDAH_clean_linker_0, # of connection points: 3
#     Node 6, Type 1, BuildingBlock: BETDAH_clean_linker_0, # of connection points: 3
#     Node 7, Type 1, BuildingBlock: BETDAH_clean_linker_0, # of connection points: 3
#     Node 8, Type 1, BuildingBlock: BETDAH_clean_linker_0, # of connection points: 3
#     Node 9, Type 1, BuildingBlock: BETDAH_clean_linker_0, # of connection points: 3
#     Node 10, Type 1, BuildingBlock: BETDAH_clean_linker_0, # of connection points: 3
#     Node 11, Type 1, BuildingBlock: BETDAH_clean_linker_0, # of connection points: 3
#     Edge 12, Type (0, 1), BuildingBlock: XIVTED_clean_linker_0, # of connection points: 2
#     Edge 13, Type (0, 1), BuildingBlock: XIVTED_clean_linker_0, # of connection points: 2
#     Edge 14, Type (0, 1), BuildingBlock: XIVTED_clean_linker_0, # of connection points: 2
#     Edge 15, Type (0, 1), BuildingBlock: XIVTED_clean_linker_0, # of connection points: 2
#     Edge 16, Type (0, 1), BuildingBlock: XIVTED_clean_linker_0, # of connection points: 2
#     Edge 17, Type (0, 1), BuildingBlock: XIVTED_clean_linker_0, # of connection points: 2
#     Edge 18, Type (0, 1), BuildingBlock: XIVTED_clean_linker_0, # of connection points: 2
#     Edge 19, Type (0, 1), BuildingBlock: XIVTED_clean_linker_0, # of connection points: 2
#     Edge 20, Type (0, 1), BuildingBlock: XIVTED_clean_linker_0, # of connection points: 2
#     Edge 21, Type (0, 1), BuildingBlock: XIVTED_clean_linker_0, # of connection points: 2
#     Edge 22, Type (0, 1), BuildingBlock: XIVTED_clean_linker_0, # of connection points: 2
#     Edge 23, Type (0, 1), BuildingBlock: XIVTED_clean_linker_0, # of connection points: 2
#     Edge 24, Type (0, 1), BuildingBlock: XIVTED_clean_linker_0, # of connection points: 2
#     Edge 25, Type (0, 1), BuildingBlock: XIVTED_clean_linker_0, # of connection points: 2
#     Edge 26, Type (0, 1), BuildingBlock: XIVTED_clean_linker_0, # of connection points: 2
#     Edge 27, Type (0, 1), BuildingBlock: XIVTED_clean_linker_0, # of connection points: 2
#     Edge 28, Type (0, 1), BuildingBlock: XIVTED_clean_linker_0, # of connection points: 2
#     Edge 29, Type (0, 1), BuildingBlock: XIVTED_clean_linker_0, # of connection points: 2
#     Edge 30, Type (0, 1), BuildingBlock: XIVTED_clean_linker_0, # of connection points: 2
#     Edge 31, Type (0, 1), BuildingBlock: XIVTED_clean_linker_0, # of connection points: 2
#     Edge 32, Type (0, 1), BuildingBlock: XIVTED_clean_linker_0, # of connection points: 2
#     Edge 33, Type (0, 1), BuildingBlock: XIVTED_clean_linker_0, # of connection points: 2
#     Edge 34, Type (0, 1), BuildingBlock: XIVTED_clean_linker_0, # of connection points: 2
#     Edge 35, Type (0, 1), BuildingBlock: XIVTED_clean_linker_0, # of connection points: 2
# Relax obj value: 0.008
# Max RMSD: 0.044
# Mean RMSD: 0.041
data_MOF--net-hwx--node1-OJICUG_clean_sbu_0--node2-BETDAH_clean_linker_0--edge1-XIVTED_clean_linker_0
_symmetry_space_group_name_H-M    P1
_symmetry_Int_Tables_number       1
_symmetry_cell_setting            triclinic
loop_
_symmetry_equiv_pos_as_xyz
'x, y, z'
_cell_length_a     52.959618
_cell_length_b     52.931259
_cell_length_c     20.43151
_cell_angle_alpha  92.072802
_cell_angle_beta   91.929477
_cell_angle_gamma 89.941216
loop_
_atom_site_label
_atom_site_type_symbol
_atom_site_fract_x
_atom_site_fract_y
_atom_site_fract_z
_atom_type_partial_charge
Sc0 Sc 0.22047 0.22415 0.08703 0.0
Sc1 Sc 0.18277 0.17913 -0.00298 0.0
Sc2 Sc 0.22404 0.21896 0.91576 0.0
O3 O 0.2091 0.20739 -7e-05 0.0
C4 C 0.21788 0.27166 0.99558 0.0
C5 C 0.16143 0.21725 0.10654 0.0
C6 C 0.16546 0.21202 0.8757 0.0
C7 C 0.21711 0.1658 0.122 0.0
C8 C 0.27251 0.21956 0.01292 0.0
C9 C 0.22052 0.1591 0.88833 0.0
O10 O 0.2176 0.26171 0.05117 0.0
O11 O 0.15895 0.19872 0.06556 0.0
O12 O 0.18726 0.22136 0.86828 0.0
O13 O 0.22465 0.18841 0.13271 0.0
O14 O 0.26214 0.21805 0.95586 0.0
O15 O 0.2031 0.15582 0.92837 0.0
O16 O 0.25997 0.22199 0.06478 0.0
O17 O 0.20212 0.15929 0.0744 0.0
O18 O 0.22997 0.18069 0.87888 0.0
O19 O 0.18232 0.22854 0.11856 0.0
O20 O 0.22018 0.25869 0.94247 0.0
O21 O 0.16087 0.19624 0.91932 0.0
Sc22 Sc 0.27562 0.71619 0.43548 0.0
Sc23 Sc 0.32111 0.67791 0.51238 0.0
Sc24 Sc 0.28624 0.72166 0.6065 0.0
O25 O 0.29426 0.70527 0.51815 0.0
C26 C 0.28407 0.76897 0.51299 0.0
C27 C 0.33262 0.71004 0.38961 0.0
C28 C 0.34575 0.71643 0.62068 0.0
C29 C 0.2792 0.65711 0.40708 0.0
C30 C 0.23148 0.71653 0.5392 0.0
C31 C 0.29259 0.66306 0.63863 0.0
O32 O 0.28172 0.75576 0.45984 0.0
O33 O 0.34019 0.69718 0.43779 0.0
O34 O 0.32542 0.72836 0.63151 0.0
O35 O 0.26733 0.67789 0.40312 0.0
O36 O 0.24605 0.71724 0.58999 0.0
O37 O 0.30386 0.6568 0.58659 0.0
O38 O 0.23956 0.71684 0.48131 0.0
O39 O 0.29962 0.65494 0.44091 0.0
O40 O 0.2867 0.68578 0.65429 0.0
O41 O 0.30971 0.71664 0.37996 0.0
O42 O 0.28501 0.75926 0.56907 0.0
O43 O 0.34659 0.69686 0.58291 0.0
Sc44 Sc 0.77525 0.77804 0.90514 0.0
Sc45 Sc 0.81669 0.81951 0.99542 0.0
Sc46 Sc 0.77539 0.78062 0.07756 0.0
O47 O 0.78913 0.79268 0.99266 0.0
C48 C 0.72542 0.78584 0.98788 0.0
C49 C 0.78173 0.83625 0.87448 0.0
C50 C 0.78249 0.83991 0.10952 0.0
C51 C 0.83496 0.7808 0.88393 0.0
C52 C 0.77595 0.72906 0.99033 0.0
C53 C 0.83372 0.78478 0.11441 0.0
O54 O 0.73628 0.78196 0.93371 0.0
O55 O 0.79903 0.84049 0.91802 0.0
O56 O 0.77447 0.8181 0.12252 0.0
O57 O 0.81294 0.77237 0.86834 0.0
O58 O 0.77479 0.74142 0.04466 0.0
O59 O 0.8378 0.80191 0.07396 0.0
O60 O 0.77687 0.73971 0.93581 0.0
O61 O 0.83901 0.79778 0.92857 0.0
O62 O 0.81231 0.77437 0.1194 0.0
O63 O 0.77141 0.81476 0.86456 0.0
O64 O 0.73723 0.78633 0.04312 0.0
O65 O 0.79692 0.84392 0.06268 0.0
Sc66 Sc 0.73406 0.27015 0.5877 0.0
Sc67 Sc 0.68869 0.30744 0.50631 0.0
Sc68 Sc 0.7284 0.26714 0.41507 0.0
O69 O 0.71707 0.28158 0.503 0.0
C70 C 0.78107 0.27347 0.494 0.0
C71 C 0.7281 0.32946 0.61597 0.0
C72 C 0.71931 0.32523 0.38463 0.0
C73 C 0.67638 0.27427 0.62763 0.0
C74 C 0.72875 0.21845 0.50341 0.0
C75 C 0.66828 0.26877 0.3935 0.0
O76 O 0.77129 0.27202 0.54965 0.0
O77 O 0.70917 0.3315 0.57656 0.0
O78 O 0.72915 0.30374 0.37223 0.0
O79 O 0.699 0.2669 0.63698 0.0
O80 O 0.7289 0.22909 0.4486 0.0
O81 O 0.66515 0.28623 0.43675 0.0
O82 O 0.73007 0.23075 0.55812 0.0
O83 O 0.66967 0.2885 0.58151 0.0
O84 O 0.68995 0.25998 0.37999 0.0
O85 O 0.73946 0.30858 0.62483 0.0
O86 O 0.76801 0.27257 0.44059 0.0
O87 O 0.70437 0.32926 0.4312 0.0
H88 H 0.25149 0.55951 0.02657 0.0
H89 H 0.2023 0.50166 0.09009 0.0
H90 H 0.21339 0.50937 0.88446 0.0
C91 C 0.23966 0.5432 0.01441 0.0
C92 C 0.23451 0.53584 0.94856 0.0
C93 C 0.2284 0.53089 0.06546 0.0
C94 C 0.21164 0.51084 0.05097 0.0
C95 C 0.20647 0.50308 0.98547 0.0
C96 C 0.2178 0.51555 0.93465 0.0
N97 N 0.18836 0.48403 0.96993 0.0
C98 C 0.19415 0.45864 0.9758 0.0
H99 H 0.93497 0.73673 0.52957 0.0
H100 H 0.9947 0.76995 0.42449 0.0
H101 H 0.00744 0.75089 0.62519 0.0
C102 C 0.95443 0.74281 0.52757 0.0
C103 C 0.96994 0.74269 0.58466 0.0
C104 C 0.96286 0.75298 0.46972 0.0
C105 C 0.98791 0.76135 0.46791 0.0
C106 C 0.00424 0.75962 0.52287 0.0
C107 C 0.99524 0.75049 0.5815 0.0
N108 N 0.02879 0.76985 0.52009 0.0
C109 C 0.05028 0.75676 0.53954 0.0
H110 H 0.7621 0.43007 0.00125 0.0
H111 H 0.74492 0.50116 0.91397 0.0
H112 H 0.73554 0.49264 0.11966 0.0
C113 C 0.7572 0.44991 0.00641 0.0
C114 C 0.75015 0.45975 0.06777 0.0
C115 C 0.75534 0.46453 0.95037 0.0
C116 C 0.74716 0.48977 0.95681 0.0
C117 C 0.74018 0.49979 0.01816 0.0
C118 C 0.74157 0.48477 0.07302 0.0
N119 N 0.72872 0.52381 0.02428 0.0
C120 C 0.74096 0.54588 0.00943 0.0
H121 H 0.06028 0.24682 0.4844 0.0
H122 H 0.0133 0.29685 0.59781 0.0
H123 H 0.01046 0.29895 0.38762 0.0
C124 C 0.04542 0.26092 0.48667 0.0
C125 C 0.03605 0.27142 0.42866 0.0
C126 C 0.03757 0.27012 0.5479 0.0
C127 C 0.01937 0.28939 0.55081 0.0
C128 C 0.00915 0.29925 0.49291 0.0
C129 C 0.01775 0.29056 0.43203 0.0
N130 N 0.99087 0.31864 0.49604 0.0
C131 C 0.96539 0.31265 0.49185 0.0
H132 H 0.74644 0.93923 0.5044 0.0
H133 H 0.70154 0.9921 0.39474 0.0
H134 H 0.69253 0.98639 0.60205 0.0
C135 C 0.73275 0.95445 0.50239 0.0
C136 C 0.72102 0.96218 0.56008 0.0
C137 C 0.72583 0.96479 0.44202 0.0
C138 C 0.70712 0.98365 0.44052 0.0
C139 C 0.69528 0.99149 0.49831 0.0
C140 C 0.70195 0.98048 0.55777 0.0
N141 N 0.67652 0.01041 0.49681 0.0
C142 C 0.6835 0.03563 0.49725 0.0
H143 H 0.57114 0.22521 0.02275 0.0
H144 H 0.49745 0.24222 0.09512 0.0
H145 H 0.51417 0.25732 0.89629 0.0
C146 C 0.5519 0.23156 0.01425 0.0
C147 C 0.54475 0.24071 0.95281 0.0
C148 C 0.53534 0.23263 0.06653 0.0
C149 C 0.51036 0.24087 0.05511 0.0
C150 C 0.50266 0.24908 0.99283 0.0
C151 C 0.51998 0.24947 0.94269 0.0
N152 N 0.47839 0.25946 0.98085 0.0
C153 C 0.45637 0.24891 0.00253 0.0
H154 H 0.25296 0.06123 0.52034 0.0
H155 H 0.29289 0.99683 0.59377 0.0
H156 H 0.29307 0.01194 0.38816 0.0
C157 C 0.26406 0.04429 0.51131 0.0
C158 C 0.27175 0.0382 0.44778 0.0
C159 C 0.27163 0.02961 0.56408 0.0
C160 C 0.28635 0.0079 0.55295 0.0
C161 C 0.29364 0.00128 0.48895 0.0
C162 C 0.28652 0.01658 0.43683 0.0
N163 N 0.31017 0.98078 0.47686 0.0
C164 C 0.30417 0.95613 0.49125 0.0
H165 H 0.43712 0.74945 0.99079 0.0
H166 H 0.50286 0.79004 0.93715 0.0
H167 H 0.48551 0.78536 0.14028 0.0
C168 C 0.45412 0.75979 0.00576 0.0
C169 C 0.4594 0.76566 0.07236 0.0
C170 C 0.46978 0.76824 0.95714 0.0
C171 C 0.49109 0.78296 0.97477 0.0
C172 C 0.49655 0.78915 0.04126 0.0
C173 C 0.48073 0.78058 0.08939 0.0
N174 N 0.51711 0.80496 0.06144 0.0
C175 C 0.54025 0.80463 0.03156 0.0
H176 H 0.11878 0.19035 0.13069 0.0
H177 H 0.057 0.30271 0.34264 0.0
H178 H 0.15325 0.26376 0.16441 0.0
H179 H 0.04302 0.22398 0.37507 0.0
H180 H 0.08428 0.29027 0.25238 0.0
H181 H 0.08337 0.20429 0.19728 0.0
C182 C 0.11878 0.20947 0.1515 0.0
C183 C 0.13913 0.22584 0.14275 0.0
C184 C 0.07486 0.27576 0.27855 0.0
C185 C 0.09864 0.24189 0.21786 0.0
C186 C 0.05914 0.28283 0.32949 0.0
C187 C 0.04793 0.26429 0.36627 0.0
C188 C 0.07912 0.25001 0.26409 0.0
C189 C 0.05152 0.23879 0.34796 0.0
C190 C 0.09861 0.21736 0.18947 0.0
C191 C 0.13813 0.25041 0.17073 0.0
N192 N 0.06698 0.23235 0.29832 0.0
N193 N 0.11823 0.25769 0.20715 0.0
H194 H 0.29543 0.66416 0.77208 0.0
H195 H 0.21276 0.54668 0.82797 0.0
H196 H 0.27377 0.61643 0.60396 0.0
H197 H 0.28085 0.55938 0.94745 0.0
H198 H 0.22878 0.57565 0.74847 0.0
H199 H 0.28335 0.63024 0.84388 0.0
C200 C 0.28809 0.64655 0.75047 0.0
C201 C 0.28561 0.64292 0.68232 0.0
C202 C 0.24017 0.5718 0.79202 0.0
C203 C 0.27142 0.60462 0.76347 0.0
C204 C 0.23118 0.55513 0.83731 0.0
C205 C 0.24523 0.55074 0.89548 0.0
C206 C 0.26297 0.58461 0.8058 0.0
C207 C 0.26886 0.56274 0.90471 0.0
C208 C 0.28138 0.62726 0.79122 0.0
C209 C 0.27609 0.61978 0.65642 0.0
N210 N 0.27675 0.57951 0.86106 0.0
N211 N 0.26895 0.60154 0.69715 0.0
H212 H 0.88499 0.79149 0.10469 0.0
H213 H 0.91344 0.7676 0.47637 0.0
H214 H 0.82894 0.76232 0.23098 0.0
H215 H 0.97065 0.74894 0.33653 0.0
H216 H 0.88307 0.77298 0.38652 0.0
H217 H 0.91787 0.78239 0.18857 0.0
C218 C 0.87963 0.78307 0.14972 0.0
C219 C 0.85419 0.77777 0.16108 0.0
C220 C 0.90224 0.76753 0.37556 0.0
C221 C 0.89138 0.76782 0.25656 0.0
C222 C 0.91962 0.76423 0.42684 0.0
C223 C 0.9446 0.75709 0.41427 0.0
C224 C 0.90988 0.76436 0.31088 0.0
C225 C 0.95161 0.75437 0.34858 0.0
C226 C 0.89836 0.77781 0.19717 0.0
C227 C 0.84828 0.76672 0.22003 0.0
N228 N 0.9343 0.7581 0.29905 0.0
N229 N 0.86669 0.76243 0.26588 0.0
H230 H 0.76919 0.33468 0.70137 0.0
H231 H 0.72407 0.46813 0.84172 0.0
H232 H 0.70698 0.37676 0.617 0.0
H233 H 0.79163 0.43067 0.91157 0.0
H234 H 0.72163 0.43834 0.74786 0.0
H235 H 0.78106 0.37199 0.76927 0.0
C236 C 0.7581 0.35177 0.69676 0.0
C237 C 0.73678 0.35237 0.6541 0.0
C238 C 0.7373 0.4369 0.78298 0.0
C239 C 0.75033 0.39523 0.73173 0.0
C240 C 0.73886 0.45414 0.83629 0.0
C241 C 0.75784 0.45161 0.8852 0.0
C242 C 0.75468 0.41686 0.77897 0.0
C243 C 0.77635 0.43293 0.87569 0.0
C244 C 0.76498 0.37313 0.73536 0.0
C245 C 0.72337 0.37522 0.64972 0.0
N246 N 0.77403 0.41595 0.82441 0.0
N247 N 0.73019 0.3956 0.68858 0.0
H248 H 0.66486 0.22742 0.30821 0.0
H249 H 0.52926 0.26433 0.17322 0.0
H250 H 0.6197 0.28652 0.39697 0.0
H251 H 0.56754 0.19597 0.11179 0.0
H252 H 0.55871 0.26872 0.26724 0.0
H253 H 0.62749 0.21256 0.24481 0.0
C254 C 0.6471 0.23722 0.31463 0.0
C255 C 0.64559 0.25854 0.35724 0.0
C256 C 0.56034 0.25239 0.23415 0.0
C257 C 0.60265 0.24153 0.28492 0.0
C258 C 0.54325 0.24969 0.18082 0.0
C259 C 0.5463 0.23005 0.13377 0.0
C260 C 0.58074 0.23551 0.23987 0.0
C261 C 0.56492 0.21174 0.14613 0.0
C262 C 0.6257 0.22859 0.27877 0.0
C263 C 0.62191 0.2702 0.3642 0.0
N264 N 0.58186 0.21526 0.19703 0.0
N265 N 0.6015 0.26175 0.32781 0.0
H266 H 0.2655 0.15398 0.82658 0.0
H267 H 0.22685 0.02986 0.62555 0.0
H268 H 0.19737 0.1132 0.86538 0.0
H269 H 0.30415 0.05463 0.64819 0.0
H270 H 0.2157 0.05865 0.71683 0.0
H271 H 0.28011 0.11736 0.76196 0.0
C272 C 0.25363 0.13732 0.82162 0.0
C273 C 0.23006 0.13677 0.85094 0.0
C274 C 0.23525 0.05727 0.7032 0.0
C275 C 0.24668 0.09478 0.77699 0.0
C276 C 0.24161 0.04067 0.65166 0.0
C277 C 0.26647 0.03972 0.63039 0.0
C278 C 0.25378 0.07351 0.73204 0.0
C279 C 0.28486 0.05461 0.66416 0.0
C280 C 0.26209 0.11633 0.78522 0.0
C281 C 0.21563 0.11451 0.84348 0.0
N282 N 0.27807 0.07129 0.71257 0.0
N283 N 0.22401 0.09454 0.80653 0.0
H284 H 0.32787 0.71006 0.25639 0.0
H285 H 0.44776 0.78923 0.19068 0.0
H286 H 0.37994 0.72811 0.41817 0.0
H287 H 0.43122 0.72183 0.07072 0.0
H288 H 0.41784 0.77497 0.27006 0.0
H289 H 0.36004 0.72294 0.18011 0.0
C290 C 0.34602 0.71686 0.27567 0.0
C291 C 0.35145 0.71797 0.34329 0.0
C292 C 0.42094 0.76344 0.22618 0.0
C293 C 0.38768 0.73314 0.25726 0.0
C294 C 0.43816 0.77139 0.18094 0.0
C295 C 0.4421 0.75688 0.12309 0.0
C296 C 0.40706 0.74126 0.21268 0.0
C297 C 0.42843 0.73416 0.11323 0.0
C298 C 0.36429 0.72405 0.23238 0.0
C299 C 0.37522 0.72683 0.36617 0.0
N300 N 0.41126 0.72726 0.15707 0.0
N301 N 0.39246 0.73441 0.32316 0.0
H302 H 0.80553 0.88107 0.85331 0.0
H303 H 0.69052 0.93516 0.6364 0.0
H304 H 0.73629 0.84005 0.80833 0.0
H305 H 0.76759 0.95949 0.61944 0.0
H306 H 0.70443 0.9067 0.72283 0.0
H307 H 0.7893 0.91591 0.78822 0.0
C308 C 0.78692 0.87942 0.82993 0.0
C309 C 0.77238 0.85749 0.83547 0.0
C310 C 0.71821 0.91861 0.70092 0.0
C311 C 0.7536 0.89736 0.76231 0.0
C312 C 0.71025 0.93498 0.65229 0.0
C313 C 0.72802 0.94949 0.62107 0.0
C314 C 0.74403 0.91704 0.71847 0.0
C315 C 0.75341 0.94844 0.64251 0.0
C316 C 0.77768 0.89929 0.79297 0.0
C317 C 0.74832 0.85643 0.80448 0.0
N318 N 0.76073 0.93232 0.6897 0.0
N319 N 0.73968 0.87609 0.76922 0.0
H320 H 0.83666 0.74118 0.79284 0.0
H321 H 0.97596 0.7723 0.69634 0.0
H322 H 0.8842 0.79625 0.89822 0.0
H323 H 0.93477 0.70731 0.61661 0.0
H324 H 0.94534 0.77702 0.78213 0.0
H325 H 0.8737 0.72546 0.73565 0.0
C326 C 0.85483 0.74994 0.80411 0.0
C327 C 0.85715 0.77036 0.84971 0.0
C328 C 0.94325 0.76136 0.74679 0.0
C329 C 0.89969 0.75232 0.78481 0.0
C330 C 0.96101 0.75842 0.69818 0.0
C331 C 0.95761 0.73974 0.6482 0.0
C332 C 0.92179 0.74571 0.74483 0.0
C333 C 0.93771 0.72242 0.65322 0.0
C334 C 0.87604 0.74081 0.77183 0.0
C335 C 0.88133 0.78068 0.86293 0.0
N336 N 0.92016 0.72622 0.69954 0.0
N337 N 0.90153 0.77174 0.83018 0.0
H338 H 0.69713 0.37194 0.38315 0.0
H339 H 0.78394 0.42304 0.10417 0.0
H340 H 0.75587 0.32747 0.29292 0.0
H341 H 0.71329 0.4574 0.15835 0.0
H342 H 0.77831 0.3914 0.18677 0.0
H343 H 0.70719 0.40683 0.31385 0.0
C344 C 0.71219 0.3695 0.3489 0.0
C345 C 0.72552 0.34661 0.34346 0.0
C346 C 0.76419 0.40603 0.18089 0.0
C347 C 0.73719 0.38662 0.26428 0.0
C348 C 0.76736 0.42407 0.13378 0.0
C349 C 0.74895 0.44279 0.12384 0.0
C350 C 0.74252 0.4068 0.21857 0.0
C351 C 0.7281 0.44351 0.16453 0.0
C352 C 0.71791 0.38945 0.30936 0.0
C353 C 0.74491 0.34465 0.29833 0.0
N354 N 0.72537 0.42565 0.20978 0.0
N355 N 0.75014 0.3644 0.26036 0.0
H356 H 0.16126 0.25735 0.81739 0.0
H357 H 0.04419 0.22158 0.5864 0.0
H358 H 0.12156 0.18707 0.8383 0.0
H359 H 0.06211 0.29892 0.64287 0.0
H360 H 0.07306 0.2074 0.67422 0.0
H361 H 0.12647 0.27201 0.74703 0.0
C362 C 0.14524 0.24496 0.80697 0.0
C363 C 0.14436 0.22087 0.83326 0.0
C364 C 0.07028 0.22746 0.66814 0.0
C365 C 0.10454 0.23755 0.75271 0.0
C366 C 0.05385 0.23553 0.61826 0.0
C367 C 0.05083 0.26142 0.60774 0.0
C368 C 0.08421 0.24544 0.70642 0.0
C369 C 0.06381 0.2788 0.64986 0.0
C370 C 0.1253 0.25345 0.76736 0.0
C371 C 0.12297 0.20576 0.81888 0.0
N372 N 0.0803 0.27049 0.6967 0.0
N373 N 0.104 0.21423 0.77878 0.0
H374 H 0.23233 0.6508 0.34741 0.0
H375 H 0.27231 0.5301 0.13774 0.0
H376 H 0.3032 0.61211 0.38052 0.0
H377 H 0.19552 0.55675 0.14224 0.0
H378 H 0.28297 0.55731 0.23411 0.0
H379 H 0.21746 0.61489 0.27825 0.0
C380 C 0.24473 0.63471 0.34048 0.0
C381 C 0.26921 0.63467 0.36916 0.0
C382 C 0.26362 0.55678 0.21522 0.0
C383 C 0.25226 0.59345 0.28986 0.0
C384 C 0.25754 0.54112 0.16062 0.0
C385 C 0.23301 0.54116 0.13278 0.0
C386 C 0.24516 0.57306 0.24094 0.0
C387 C 0.21458 0.55607 0.16303 0.0
C388 C 0.23615 0.61412 0.30128 0.0
C389 C 0.28427 0.61311 0.35907 0.0
N390 N 0.22113 0.57182 0.21488 0.0
N391 N 0.27568 0.59353 0.31956 0.0
H392 H 0.38968 0.69012 0.64308 0.0
H393 H 0.45072 0.80153 0.87042 0.0
H394 H 0.35558 0.76345 0.67544 0.0
H395 H 0.46873 0.7228 0.89105 0.0
H396 H 0.42484 0.79036 0.7717 0.0
H397 H 0.42687 0.70454 0.70857 0.0
C398 C 0.39013 0.70933 0.66323 0.0
C399 C 0.3693 0.72546 0.65482 0.0
C400 C 0.43504 0.77562 0.79677 0.0
C401 C 0.41184 0.7421 0.72883 0.0
C402 C 0.45002 0.78203 0.85244 0.0
C403 C 0.46178 0.76301 0.88829 0.0
C404 C 0.43193 0.75004 0.77727 0.0
C405 C 0.45995 0.73793 0.86419 0.0
C406 C 0.41135 0.71753 0.70051 0.0
C407 C 0.371 0.75021 0.68173 0.0
N408 N 0.44498 0.73209 0.81051 0.0
N409 N 0.39182 0.75772 0.71787 0.0
H410 H 0.78738 0.84259 0.24163 0.0
H411 H 0.70197 0.95467 0.32201 0.0
H412 H 0.76253 0.88554 0.07608 0.0
H413 H 0.7746 0.94945 0.42334 0.0
H414 H 0.71808 0.92765 0.23259 0.0
H415 H 0.77632 0.87832 0.31497 0.0
C416 C 0.77952 0.85957 0.22095 0.0
C417 C 0.7758 0.86132 0.15316 0.0
C418 C 0.73051 0.93294 0.27399 0.0
C419 C 0.76282 0.90174 0.23613 0.0
C420 C 0.72144 0.94845 0.32486 0.0
C421 C 0.73675 0.95385 0.38118 0.0
C422 C 0.75475 0.92248 0.28048 0.0
C423 C 0.76182 0.94507 0.38204 0.0
C424 C 0.77343 0.87991 0.26252 0.0
C425 C 0.7657 0.88369 0.12833 0.0
N426 N 0.76982 0.92923 0.33336 0.0
N427 N 0.75909 0.90304 0.17006 0.0
H428 H 0.68398 0.2572 0.75132 0.0
H429 H 0.53869 0.23408 0.8186 0.0
H430 H 0.62497 0.27354 0.60795 0.0
H431 H 0.59453 0.25412 0.97077 0.0
H432 H 0.5707 0.24023 0.7366 0.0
H433 H 0.65173 0.24665 0.82857 0.0
C434 C 0.66426 0.25839 0.73591 0.0
C435 C 0.65712 0.2665 0.67337 0.0
C436 C 0.57582 0.24306 0.78811 0.0
C437 C 0.62025 0.25431 0.76126 0.0
C438 C 0.55759 0.23967 0.83489 0.0
C439 C 0.56389 0.24334 0.90193 0.0
C440 C 0.60052 0.24983 0.80866 0.0
C441 C 0.58883 0.25034 0.92002 0.0
C442 C 0.64589 0.25246 0.78007 0.0
C443 C 0.63126 0.26766 0.65601 0.0
N444 N 0.60621 0.25325 0.87372 0.0
N445 N 0.6137 0.26162 0.69981 0.0
H446 H 0.24755 0.17282 0.23173 0.0
H447 H 0.25146 0.02719 0.32444 0.0
H448 H 0.2083 0.1144 0.11542 0.0
H449 H 0.27862 0.08902 0.45086 0.0
H450 H 0.23924 0.05768 0.24091 0.0
H451 H 0.26264 0.14114 0.30649 0.0
C452 C 0.24207 0.15331 0.22176 0.0
C453 C 0.22645 0.14636 0.16722 0.0
C454 C 0.24794 0.06449 0.28691 0.0
C455 C 0.24384 0.10977 0.25326 0.0
C456 C 0.25501 0.04714 0.33425 0.0
C457 C 0.26577 0.05571 0.39467 0.0
C458 C 0.25197 0.09045 0.30019 0.0
C459 C 0.26999 0.0817 0.40527 0.0
C460 C 0.25073 0.13518 0.26466 0.0
C461 C 0.22017 0.12068 0.15702 0.0
N462 N 0.26304 0.09811 0.35863 0.0
N463 N 0.22886 0.10329 0.19977 0.0
H464 H 0.21325 0.30589 0.09841 0.0
H465 H 0.20159 0.42646 0.87322 0.0
H466 H 0.21658 0.30121 0.88733 0.0
H467 H 0.19768 0.43055 0.08352 0.0
H468 H 0.20833 0.38064 0.87722 0.0
H469 H 0.20861 0.35157 0.09385 0.0
C470 C 0.21304 0.31442 0.051 0.0
C471 C 0.2153 0.29954 0.9931 0.0
C472 C 0.2061 0.39151 0.92256 0.0
C473 C 0.20995 0.35212 0.9877 0.0
C474 C 0.2023 0.41758 0.92022 0.0
C475 C 0.19916 0.43195 0.97815 0.0
C476 C 0.20667 0.37988 0.98339 0.0
C477 C 0.2001 0.41989 0.03791 0.0
C478 C 0.21039 0.34058 0.04851 0.0
C479 C 0.2149 0.31183 0.93325 0.0
N480 N 0.20373 0.39447 0.03904 0.0
N481 N 0.21225 0.33737 0.93212 0.0
H482 H 0.20547 0.72944 0.64959 0.0
H483 H 0.07108 0.72226 0.45868 0.0
H484 H 0.19438 0.70419 0.44731 0.0
H485 H 0.08404 0.76455 0.64076 0.0
H486 H 0.11475 0.70696 0.46514 0.0
H487 H 0.15965 0.73415 0.65762 0.0
C488 C 0.19342 0.72456 0.60713 0.0
C489 C 0.20382 0.71673 0.54739 0.0
C490 C 0.10799 0.71928 0.50424 0.0
C491 C 0.15148 0.72202 0.55643 0.0
C492 C 0.0831 0.72785 0.5007 0.0
C493 C 0.07429 0.74455 0.54931 0.0
C494 C 0.12408 0.72766 0.55667 0.0
C495 C 0.09038 0.75157 0.60254 0.0
C496 C 0.16729 0.72734 0.61175 0.0
C497 C 0.18726 0.71064 0.49407 0.0
N498 N 0.11469 0.74322 0.60463 0.0
N499 N 0.16195 0.71355 0.49977 0.0
H500 H 0.77124 0.69571 0.8846 0.0
H501 H 0.76359 0.57429 0.10533 0.0
H502 H 0.77907 0.69849 0.09591 0.0
H503 H 0.74159 0.57346 0.9004 0.0
H504 H 0.77648 0.61857 0.09919 0.0
H505 H 0.76714 0.64979 0.88635 0.0
C506 C 0.7723 0.6867 0.93137 0.0
C507 C 0.77525 0.70108 0.9903 0.0
C508 C 0.76911 0.60868 0.05531 0.0
C509 C 0.7706 0.64847 0.99243 0.0
C510 C 0.76192 0.58345 0.05879 0.0
C511 C 0.75167 0.57056 0.00324 0.0
C512 C 0.76587 0.62098 0.9958 0.0
C513 C 0.74956 0.583 0.94411 0.0
C514 C 0.76991 0.66046 0.93225 0.0
C515 C 0.77656 0.68827 0.0493 0.0
N516 N 0.75648 0.60768 0.94194 0.0
N517 N 0.77412 0.66272 0.04884 0.0
H518 H 0.8156 0.27262 0.59655 0.0
H519 H 0.9335 0.311 0.38562 0.0
H520 H 0.80987 0.28312 0.38785 0.0
H521 H 0.93792 0.29919 0.59313 0.0
H522 H 0.88841 0.29986 0.38387 0.0
H523 H 0.86067 0.28106 0.59477 0.0
C524 C 0.82379 0.27661 0.55017 0.0
C525 C 0.80878 0.27723 0.49225 0.0
C526 C 0.89922 0.29965 0.42977 0.0
C527 C 0.86068 0.28706 0.49004 0.0
C528 C 0.92485 0.30602 0.4307 0.0
C529 C 0.93905 0.30601 0.48964 0.0
C530 C 0.88796 0.2933 0.48834 0.0
C531 C 0.92735 0.29942 0.54685 0.0
C532 C 0.84962 0.28145 0.54925 0.0
C533 C 0.82064 0.28243 0.43372 0.0
N534 N 0.90241 0.29336 0.54485 0.0
N535 N 0.84588 0.28725 0.43417 0.0
H536 H 0.72679 0.18527 0.39724 0.0
H537 H 0.69055 0.06594 0.60498 0.0
H538 H 0.72239 0.18816 0.60817 0.0
H539 H 0.6946 0.06376 0.39468 0.0
H540 H 0.70406 0.11033 0.60806 0.0
H541 H 0.71734 0.14026 0.39617 0.0
C542 C 0.72402 0.17645 0.44348 0.0
C543 C 0.72527 0.19066 0.50292 0.0
C544 C 0.70205 0.10018 0.56121 0.0
C545 C 0.71424 0.13894 0.50183 0.0
C546 C 0.69432 0.07496 0.55953 0.0
C547 C 0.69143 0.0616 0.4995 0.0
C548 C 0.70687 0.11193 0.50226 0.0
C549 C 0.69657 0.07372 0.44182 0.0
C550 C 0.71857 0.15069 0.44275 0.0
C551 C 0.72158 0.17804 0.56115 0.0
N552 N 0.70401 0.09831 0.44456 0.0
N553 N 0.71609 0.15294 0.55909 0.0
H554 H 0.30281 0.23397 0.11951 0.0
H555 H 0.43064 0.21535 0.9252 0.0
H556 H 0.30599 0.20491 0.91969 0.0
H557 H 0.42596 0.26114 0.10295 0.0
H558 H 0.38611 0.20377 0.93363 0.0
H559 H 0.34897 0.23683 0.12448 0.0
C560 C 0.31318 0.22795 0.07691 0.0
C561 C 0.30046 0.21945 0.0188 0.0
C562 C 0.39486 0.21608 0.97132 0.0
C563 C 0.35323 0.2226 0.02441 0.0
C564 C 0.42023 0.22253 0.9667 0.0
C565 C 0.43165 0.23908 0.01357 0.0
C566 C 0.38091 0.22642 0.02312 0.0
C567 C 0.41759 0.2482 0.06612 0.0
C568 C 0.33952 0.22966 0.07979 0.0
C569 C 0.31494 0.21188 0.96523 0.0
N570 N 0.39278 0.24187 0.06935 0.0
N571 N 0.34051 0.21373 0.96928 0.0
H572 H 0.28168 0.7977 0.40369 0.0
H573 H 0.30441 0.92964 0.60253 0.0
H574 H 0.29055 0.80406 0.61461 0.0
H575 H 0.29311 0.92269 0.39293 0.0
H576 H 0.29833 0.88373 0.60901 0.0
H577 H 0.28505 0.84355 0.39937 0.0
C578 C 0.28431 0.80869 0.44916 0.0
C579 C 0.28586 0.79688 0.50961 0.0
C580 C 0.29704 0.89224 0.56162 0.0
C581 C 0.28974 0.84959 0.50494 0.0
C582 C 0.30045 0.91836 0.55807 0.0
C583 C 0.29915 0.92961 0.49719 0.0
C584 C 0.29245 0.87749 0.50371 0.0
C585 C 0.29415 0.91448 0.44075 0.0
C586 C 0.28621 0.83493 0.44664 0.0
C587 C 0.28925 0.81225 0.56683 0.0
N588 N 0.29105 0.88914 0.4453 0.0
N589 N 0.29112 0.83777 0.56306 0.0
H590 H 0.69927 0.81117 0.08167 0.0
H591 H 0.56236 0.77547 0.93713 0.0
H592 H 0.68895 0.77185 0.89386 0.0
H593 H 0.57688 0.8336 0.08658 0.0
H594 H 0.60812 0.77278 0.9189 0.0
H595 H 0.65398 0.81818 0.08443 0.0
C596 C 0.68744 0.80397 0.0409 0.0
C597 C 0.69791 0.79071 0.98766 0.0
C598 C 0.60122 0.78639 0.95491 0.0
C599 C 0.64575 0.7987 0.9906 0.0
C600 C 0.57523 0.78792 0.96514 0.0
C601 C 0.56621 0.80482 0.01318 0.0
C602 C 0.61798 0.8016 0.99391 0.0
C603 C 0.58332 0.82041 0.04894 0.0
C604 C 0.66154 0.80813 0.04232 0.0
C605 C 0.68163 0.78214 0.93586 0.0
N606 N 0.60843 0.81828 0.03902 0.0
N607 N 0.65624 0.78603 0.93891 0.0
loop_
_geom_bond_atom_site_label_1
_geom_bond_atom_site_label_2
_geom_bond_distance
_geom_bond_site_symmetry_2
_ccdc_geom_bond_type
Sc0 O3 2.025 . S
Sc0 O10 2.105 . S
Sc0 O13 2.105 . S
Sc0 O16 2.105 . S
Sc0 O19 2.105 . S
Sc1 O3 2.025 . S
Sc1 O11 2.105 . S
Sc1 O15 2.105 1_554 S
Sc1 O17 2.105 . S
Sc1 O21 2.105 1_554 S
Sc2 O3 2.025 1_556 S
Sc2 O12 2.105 . S
Sc2 O14 2.105 . S
Sc2 O18 2.105 . S
Sc2 O20 2.105 . S
O3 Sc0 2.025 . S
O3 Sc1 2.025 . S
O3 Sc2 2.025 1_554 S
C4 O10 1.268 . S
C4 O20 1.268 1_554 S
C5 O11 1.268 . S
C5 O19 1.268 . S
C6 O12 1.268 . S
C6 O21 1.268 . S
C7 O13 1.268 . S
C7 O17 1.268 . S
C8 O14 1.268 1_554 S
C8 O16 1.268 . S
C9 O15 1.268 . S
C9 O18 1.268 . S
O10 Sc0 2.105 . S
O10 C4 1.268 . S
O11 Sc1 2.105 . S
O11 C5 1.268 . S
O12 Sc2 2.105 . S
O12 C6 1.268 . S
O13 Sc0 2.105 . S
O13 C7 1.268 . S
O14 Sc2 2.105 . S
O14 C8 1.268 1_556 S
O15 Sc1 2.105 1_556 S
O15 C9 1.268 . S
O16 Sc0 2.105 . S
O16 C8 1.268 . S
O17 Sc1 2.105 . S
O17 C7 1.268 . S
O18 Sc2 2.105 . S
O18 C9 1.268 . S
O19 Sc0 2.105 . S
O19 C5 1.268 . S
O20 Sc2 2.105 . S
O20 C4 1.268 1_556 S
O21 Sc1 2.105 1_556 S
O21 C6 1.268 . S
Sc22 O25 2.025 . S
Sc22 O32 2.105 . S
Sc22 O35 2.105 . S
Sc22 O38 2.105 . S
Sc22 O41 2.105 . S
Sc23 O25 2.025 . S
Sc23 O33 2.105 . S
Sc23 O37 2.105 . S
Sc23 O39 2.105 . S
Sc23 O43 2.105 . S
Sc24 O25 2.025 . S
Sc24 O34 2.105 . S
Sc24 O36 2.105 . S
Sc24 O40 2.105 . S
Sc24 O42 2.105 . S
O25 Sc22 2.025 . S
O25 Sc23 2.025 . S
O25 Sc24 2.025 . S
C26 O32 1.268 . S
C26 O42 1.268 . S
C27 O33 1.268 . S
C27 O41 1.268 . S
C28 O34 1.268 . S
C28 O43 1.268 . S
C29 O35 1.268 . S
C29 O39 1.268 . S
C30 O36 1.268 . S
C30 O38 1.268 . S
C31 O37 1.268 . S
C31 O40 1.268 . S
O32 Sc22 2.105 . S
O32 C26 1.268 . S
O33 Sc23 2.105 . S
O33 C27 1.268 . S
O34 Sc24 2.105 . S
O34 C28 1.268 . S
O35 Sc22 2.105 . S
O35 C29 1.268 . S
O36 Sc24 2.105 . S
O36 C30 1.268 . S
O37 Sc23 2.105 . S
O37 C31 1.268 . S
O38 Sc22 2.105 . S
O38 C30 1.268 . S
O39 Sc23 2.105 . S
O39 C29 1.268 . S
O40 Sc24 2.105 . S
O40 C31 1.268 . S
O41 Sc22 2.105 . S
O41 C27 1.268 . S
O42 Sc24 2.105 . S
O42 C26 1.268 . S
O43 Sc23 2.105 . S
O43 C28 1.268 . S
Sc44 O47 2.025 1_556 S
Sc44 O54 2.105 . S
Sc44 O57 2.105 . S
Sc44 O60 2.105 . S
Sc44 O63 2.105 . S
Sc45 O47 2.025 . S
Sc45 O55 2.105 1_554 S
Sc45 O59 2.105 . S
Sc45 O61 2.105 1_554 S
Sc45 O65 2.105 . S
Sc46 O47 2.025 . S
Sc46 O56 2.105 . S
Sc46 O58 2.105 . S
Sc46 O62 2.105 . S
Sc46 O64 2.105 . S
O47 Sc44 2.025 1_554 S
O47 Sc45 2.025 . S
O47 Sc46 2.025 . S
C48 O54 1.268 1_554 S
C48 O64 1.268 . S
C49 O55 1.268 . S
C49 O63 1.268 . S
C50 O56 1.268 . S
C50 O65 1.268 . S
C51 O57 1.268 . S
C51 O61 1.268 . S
C52 O58 1.268 . S
C52 O60 1.268 1_554 S
C53 O59 1.268 . S
C53 O62 1.268 . S
O54 Sc44 2.105 . S
O54 C48 1.268 1_556 S
O55 Sc45 2.105 1_556 S
O55 C49 1.268 . S
O56 Sc46 2.105 . S
O56 C50 1.268 . S
O57 Sc44 2.105 . S
O57 C51 1.268 . S
O58 Sc46 2.105 . S
O58 C52 1.268 . S
O59 Sc45 2.105 . S
O59 C53 1.268 . S
O60 Sc44 2.105 . S
O60 C52 1.268 1_556 S
O61 Sc45 2.105 1_556 S
O61 C51 1.268 . S
O62 Sc46 2.105 . S
O62 C53 1.268 . S
O63 Sc44 2.105 . S
O63 C49 1.268 . S
O64 Sc46 2.105 . S
O64 C48 1.268 . S
O65 Sc45 2.105 . S
O65 C50 1.268 . S
Sc66 O69 2.025 . S
Sc66 O76 2.105 . S
Sc66 O79 2.105 . S
Sc66 O82 2.105 . S
Sc66 O85 2.105 . S
Sc67 O69 2.025 . S
Sc67 O77 2.105 . S
Sc67 O81 2.105 . S
Sc67 O83 2.105 . S
Sc67 O87 2.105 . S
Sc68 O69 2.025 . S
Sc68 O78 2.105 . S
Sc68 O80 2.105 . S
Sc68 O84 2.105 . S
Sc68 O86 2.105 . S
O69 Sc66 2.025 . S
O69 Sc67 2.025 . S
O69 Sc68 2.025 . S
C70 O76 1.268 . S
C70 O86 1.268 . S
C71 O77 1.268 . S
C71 O85 1.268 . S
C72 O78 1.268 . S
C72 O87 1.268 . S
C73 O79 1.268 . S
C73 O83 1.268 . S
C74 O80 1.268 . S
C74 O82 1.268 . S
C75 O81 1.268 . S
C75 O84 1.268 . S
O76 Sc66 2.105 . S
O76 C70 1.268 . S
O77 Sc67 2.105 . S
O77 C71 1.268 . S
O78 Sc68 2.105 . S
O78 C72 1.268 . S
O79 Sc66 2.105 . S
O79 C73 1.268 . S
O80 Sc68 2.105 . S
O80 C74 1.268 . S
O81 Sc67 2.105 . S
O81 C75 1.268 . S
O82 Sc66 2.105 . S
O82 C74 1.268 . S
O83 Sc67 2.105 . S
O83 C73 1.268 . S
O84 Sc68 2.105 . S
O84 C75 1.268 . S
O85 Sc66 2.105 . S
O85 C71 1.268 . S
O86 Sc68 2.105 . S
O86 C70 1.268 . S
O87 Sc67 2.105 . S
O87 C72 1.268 . S
H88 C91 0.929 . S
H89 C94 0.929 . S
H90 C96 0.930 . S
C91 H88 0.929 . S
C91 C92 1.398 1_554 S
C91 C93 1.396 . S
C92 C91 1.398 1_556 S
C92 C96 1.407 . S
C93 C91 1.396 . S
C93 C94 1.394 . S
C94 H89 0.929 . S
C94 C93 1.394 . S
C94 C95 1.382 1_554 S
C95 C94 1.382 1_556 S
C95 C96 1.392 . S
C95 N97 1.420 . S
C96 H90 0.930 . S
C96 C92 1.407 . S
C96 C95 1.392 . S
N97 C95 1.420 . S
N97 C98 1.244 1_556 S
C98 N97 1.244 1_554 S
H99 C102 0.929 . S
H100 C105 0.929 . S
H101 C107 0.930 . S
C102 H99 0.929 . S
C102 C103 1.398 . S
C102 C104 1.396 . S
C103 C102 1.398 . S
C103 C107 1.407 . S
C104 C102 1.396 . S
C104 C105 1.394 . S
C105 H100 0.929 . S
C105 C104 1.394 . S
C105 C106 1.394 . S
C106 C105 1.394 . S
C106 C107 1.410 . S
C106 N108 1.390 1_655 S
C107 H101 0.930 . S
C107 C103 1.407 . S
C107 C106 1.410 . S
N108 C106 1.390 1_455 S
N108 C109 1.244 . S
C109 N108 1.244 . S
H110 C113 0.929 . S
H111 C116 0.929 . S
H112 C118 0.930 . S
C113 H110 0.929 . S
C113 C114 1.398 . S
C113 C115 1.396 1_554 S
C114 C113 1.398 . S
C114 C118 1.407 . S
C115 C113 1.396 1_556 S
C115 C116 1.394 . S
C116 H111 0.929 . S
C116 C115 1.394 . S
C116 C117 1.382 1_556 S
C117 C116 1.382 1_554 S
C117 C118 1.392 . S
C117 N119 1.420 . S
C118 H112 0.930 . S
C118 C114 1.407 . S
C118 C117 1.392 . S
N119 C117 1.420 . S
N119 C120 1.244 . S
C120 N119 1.244 . S
H121 C124 0.929 . S
H122 C127 0.929 . S
H123 C129 0.930 . S
C124 H121 0.929 . S
C124 C125 1.398 . S
C124 C126 1.396 . S
C125 C124 1.398 . S
C125 C129 1.407 . S
C126 C124 1.396 . S
C126 C127 1.394 . S
C127 H122 0.929 . S
C127 C126 1.394 . S
C127 C128 1.382 . S
C128 C127 1.382 . S
C128 C129 1.392 . S
C128 N130 1.420 1_455 S
C129 H123 0.930 . S
C129 C125 1.407 . S
C129 C128 1.392 . S
N130 C128 1.420 1_655 S
N130 C131 1.244 . S
C131 N130 1.244 . S
H132 C135 0.929 . S
H133 C138 0.929 . S
H134 C140 0.930 . S
C135 H132 0.929 . S
C135 C136 1.398 . S
C135 C137 1.396 . S
C136 C135 1.398 . S
C136 C140 1.407 . S
C137 C135 1.396 . S
C137 C138 1.394 . S
C138 H133 0.929 . S
C138 C137 1.394 . S
C138 C139 1.382 . S
C139 C138 1.382 . S
C139 C140 1.392 . S
C139 N141 1.420 1_565 S
C140 H134 0.930 . S
C140 C136 1.407 . S
C140 C139 1.392 . S
N141 C139 1.420 1_545 S
N141 C142 1.244 . S
C142 N141 1.244 . S
H143 C146 0.929 . S
H144 C149 0.929 . S
H145 C151 0.930 . S
C146 H143 0.929 . S
C146 C147 1.398 1_554 S
C146 C148 1.396 . S
C147 C146 1.398 1_556 S
C147 C151 1.407 . S
C148 C146 1.396 . S
C148 C149 1.394 . S
C149 H144 0.929 . S
C149 C148 1.394 . S
C149 C150 1.382 1_554 S
C150 C149 1.382 1_556 S
C150 C151 1.392 . S
C150 N152 1.420 . S
C151 H145 0.930 . S
C151 C147 1.407 . S
C151 C150 1.392 . S
N152 C150 1.420 . S
N152 C153 1.244 1_556 S
C153 N152 1.244 1_554 S
H154 C157 0.929 . S
H155 C160 0.929 . S
H156 C162 0.930 . S
C157 H154 0.929 . S
C157 C158 1.398 . S
C157 C159 1.396 . S
C158 C157 1.398 . S
C158 C162 1.407 . S
C159 C157 1.396 . S
C159 C160 1.394 . S
C160 H155 0.929 . S
C160 C159 1.394 . S
C160 C161 1.397 . S
C161 C160 1.397 . S
C161 C162 1.414 . S
C161 N163 1.383 1_545 S
C162 H156 0.930 . S
C162 C158 1.407 . S
C162 C161 1.414 . S
N163 C161 1.383 1_565 S
N163 C164 1.244 . S
C164 N163 1.244 . S
H165 C168 0.929 . S
H166 C171 0.929 . S
H167 C173 0.930 . S
C168 H165 0.929 . S
C168 C169 1.398 . S
C168 C170 1.396 1_554 S
C169 C168 1.398 . S
C169 C173 1.407 . S
C170 C168 1.396 1_556 S
C170 C171 1.394 . S
C171 H166 0.929 . S
C171 C170 1.394 . S
C171 C172 1.382 1_556 S
C172 C171 1.382 1_554 S
C172 C173 1.392 . S
C172 N174 1.420 . S
C173 H167 0.930 . S
C173 C169 1.407 . S
C173 C172 1.392 . S
N174 C172 1.420 . S
N174 C175 1.244 . S
C175 N174 1.244 . S
H176 C182 0.930 . S
H177 C186 0.930 . S
H178 C191 0.929 . S
H179 C189 0.929 . S
H180 C184 0.929 . S
H181 C190 0.929 . S
C182 H176 0.930 . S
C182 C183 1.367 . S
C182 C190 1.378 . S
C183 C182 1.367 . S
C183 C191 1.433 . S
C184 H180 0.929 . S
C184 C186 1.378 . S
C184 C188 1.350 . S
C185 C188 1.463 . S
C185 C190 1.350 . S
C185 N193 1.427 . S
C186 H177 0.930 . S
C186 C184 1.378 . S
C186 C187 1.367 . S
C187 C186 1.367 . S
C187 C189 1.433 . S
C188 C184 1.350 . S
C188 C185 1.463 . S
C188 N192 1.427 . S
C189 H179 0.929 . S
C189 C187 1.433 . S
C189 N192 1.384 . S
C190 H181 0.929 . S
C190 C182 1.378 . S
C190 C185 1.350 . S
C191 H178 0.929 . S
C191 C183 1.433 . S
C191 N193 1.384 . S
N192 C188 1.427 . S
N192 C189 1.384 . S
N193 C185 1.427 . S
N193 C191 1.384 . S
H194 C200 0.930 . S
H195 C204 0.930 . S
H196 C209 0.929 . S
H197 C207 0.929 . S
H198 C202 0.929 . S
H199 C208 0.929 . S
C200 H194 0.930 . S
C200 C201 1.367 . S
C200 C208 1.378 . S
C201 C200 1.367 . S
C201 C209 1.433 . S
C202 H198 0.929 . S
C202 C204 1.378 . S
C202 C206 1.350 . S
C203 C206 1.463 . S
C203 C208 1.350 . S
C203 N211 1.427 . S
C204 H195 0.930 . S
C204 C202 1.378 . S
C204 C205 1.367 . S
C205 C204 1.367 . S
C205 C207 1.433 . S
C206 C202 1.350 . S
C206 C203 1.463 . S
C206 N210 1.427 . S
C207 H197 0.929 . S
C207 C205 1.433 . S
C207 N210 1.384 . S
C208 H199 0.929 . S
C208 C200 1.378 . S
C208 C203 1.350 . S
C209 H196 0.929 . S
C209 C201 1.433 . S
C209 N211 1.384 . S
N210 C206 1.427 . S
N210 C207 1.384 . S
N211 C203 1.427 . S
N211 C209 1.384 . S
H212 C218 0.930 . S
H213 C222 0.930 . S
H214 C227 0.929 . S
H215 C225 0.929 . S
H216 C220 0.929 . S
H217 C226 0.929 . S
C218 H212 0.930 . S
C218 C219 1.367 . S
C218 C226 1.378 . S
C219 C218 1.367 . S
C219 C227 1.433 . S
C220 H216 0.929 . S
C220 C222 1.378 . S
C220 C224 1.350 . S
C221 C224 1.463 . S
C221 C226 1.350 . S
C221 N229 1.427 . S
C222 H213 0.930 . S
C222 C220 1.378 . S
C222 C223 1.367 . S
C223 C222 1.367 . S
C223 C225 1.433 . S
C224 C220 1.350 . S
C224 C221 1.463 . S
C224 N228 1.427 . S
C225 H215 0.929 . S
C225 C223 1.433 . S
C225 N228 1.384 . S
C226 H217 0.929 . S
C226 C218 1.378 . S
C226 C221 1.350 . S
C227 H214 0.929 . S
C227 C219 1.433 . S
C227 N229 1.384 . S
N228 C224 1.427 . S
N228 C225 1.384 . S
N229 C221 1.427 . S
N229 C227 1.384 . S
H230 C236 0.930 . S
H231 C240 0.930 . S
H232 C245 0.929 . S
H233 C243 0.929 . S
H234 C238 0.929 . S
H235 C244 0.929 . S
C236 H230 0.930 . S
C236 C237 1.367 . S
C236 C244 1.378 . S
C237 C236 1.367 . S
C237 C245 1.433 . S
C238 H234 0.929 . S
C238 C240 1.378 . S
C238 C242 1.350 . S
C239 C242 1.463 . S
C239 C244 1.350 . S
C239 N247 1.427 . S
C240 H231 0.930 . S
C240 C238 1.378 . S
C240 C241 1.367 . S
C241 C240 1.367 . S
C241 C243 1.433 . S
C242 C238 1.350 . S
C242 C239 1.463 . S
C242 N246 1.427 . S
C243 H233 0.929 . S
C243 C241 1.433 . S
C243 N246 1.384 . S
C244 H235 0.929 . S
C244 C236 1.378 . S
C244 C239 1.350 . S
C245 H232 0.929 . S
C245 C237 1.433 . S
C245 N247 1.384 . S
N246 C242 1.427 . S
N246 C243 1.384 . S
N247 C239 1.427 . S
N247 C245 1.384 . S
H248 C254 0.930 . S
H249 C258 0.930 . S
H250 C263 0.929 . S
H251 C261 0.929 . S
H252 C256 0.929 . S
H253 C262 0.929 . S
C254 H248 0.930 . S
C254 C255 1.367 . S
C254 C262 1.378 . S
C255 C254 1.367 . S
C255 C263 1.433 . S
C256 H252 0.929 . S
C256 C258 1.378 . S
C256 C260 1.350 . S
C257 C260 1.463 . S
C257 C262 1.350 . S
C257 N265 1.427 . S
C258 H249 0.930 . S
C258 C256 1.378 . S
C258 C259 1.367 . S
C259 C258 1.367 . S
C259 C261 1.433 . S
C260 C256 1.350 . S
C260 C257 1.463 . S
C260 N264 1.427 . S
C261 H251 0.929 . S
C261 C259 1.433 . S
C261 N264 1.384 . S
C262 H253 0.929 . S
C262 C254 1.378 . S
C262 C257 1.350 . S
C263 H250 0.929 . S
C263 C255 1.433 . S
C263 N265 1.384 . S
N264 C260 1.427 . S
N264 C261 1.384 . S
N265 C257 1.427 . S
N265 C263 1.384 . S
H266 C272 0.930 . S
H267 C276 0.930 . S
H268 C281 0.929 . S
H269 C279 0.929 . S
H270 C274 0.929 . S
H271 C280 0.929 . S
C272 H266 0.930 . S
C272 C273 1.367 . S
C272 C280 1.378 . S
C273 C272 1.367 . S
C273 C281 1.433 . S
C274 H270 0.929 . S
C274 C276 1.378 . S
C274 C278 1.350 . S
C275 C278 1.463 . S
C275 C280 1.350 . S
C275 N283 1.427 . S
C276 H267 0.930 . S
C276 C274 1.378 . S
C276 C277 1.367 . S
C277 C276 1.367 . S
C277 C279 1.433 . S
C278 C274 1.350 . S
C278 C275 1.463 . S
C278 N282 1.427 . S
C279 H269 0.929 . S
C279 C277 1.433 . S
C279 N282 1.384 . S
C280 H271 0.929 . S
C280 C272 1.378 . S
C280 C275 1.350 . S
C281 H268 0.929 . S
C281 C273 1.433 . S
C281 N283 1.384 . S
N282 C278 1.427 . S
N282 C279 1.384 . S
N283 C275 1.427 . S
N283 C281 1.384 . S
H284 C290 0.930 . S
H285 C294 0.930 . S
H286 C299 0.929 . S
H287 C297 0.929 . S
H288 C292 0.929 . S
H289 C298 0.929 . S
C290 H284 0.930 . S
C290 C291 1.367 . S
C290 C298 1.378 . S
C291 C290 1.367 . S
C291 C299 1.433 . S
C292 H288 0.929 . S
C292 C294 1.378 . S
C292 C296 1.350 . S
C293 C296 1.463 . S
C293 C298 1.350 . S
C293 N301 1.427 . S
C294 H285 0.930 . S
C294 C292 1.378 . S
C294 C295 1.367 . S
C295 C294 1.367 . S
C295 C297 1.433 . S
C296 C292 1.350 . S
C296 C293 1.463 . S
C296 N300 1.427 . S
C297 H287 0.929 . S
C297 C295 1.433 . S
C297 N300 1.384 . S
C298 H289 0.929 . S
C298 C290 1.378 . S
C298 C293 1.350 . S
C299 H286 0.929 . S
C299 C291 1.433 . S
C299 N301 1.384 . S
N300 C296 1.427 . S
N300 C297 1.384 . S
N301 C293 1.427 . S
N301 C299 1.384 . S
H302 C308 0.930 . S
H303 C312 0.930 . S
H304 C317 0.929 . S
H305 C315 0.929 . S
H306 C310 0.929 . S
H307 C316 0.929 . S
C308 H302 0.930 . S
C308 C309 1.367 . S
C308 C316 1.378 . S
C309 C308 1.367 . S
C309 C317 1.433 . S
C310 H306 0.929 . S
C310 C312 1.378 . S
C310 C314 1.350 . S
C311 C314 1.463 . S
C311 C316 1.350 . S
C311 N319 1.427 . S
C312 H303 0.930 . S
C312 C310 1.378 . S
C312 C313 1.367 . S
C313 C312 1.367 . S
C313 C315 1.433 . S
C314 C310 1.350 . S
C314 C311 1.463 . S
C314 N318 1.427 . S
C315 H305 0.929 . S
C315 C313 1.433 . S
C315 N318 1.384 . S
C316 H307 0.929 . S
C316 C308 1.378 . S
C316 C311 1.350 . S
C317 H304 0.929 . S
C317 C309 1.433 . S
C317 N319 1.384 . S
N318 C314 1.427 . S
N318 C315 1.384 . S
N319 C311 1.427 . S
N319 C317 1.384 . S
H320 C326 0.930 . S
H321 C330 0.930 . S
H322 C335 0.929 . S
H323 C333 0.929 . S
H324 C328 0.929 . S
H325 C334 0.929 . S
C326 H320 0.930 . S
C326 C327 1.367 . S
C326 C334 1.378 . S
C327 C326 1.367 . S
C327 C335 1.433 . S
C328 H324 0.929 . S
C328 C330 1.378 . S
C328 C332 1.350 . S
C329 C332 1.463 . S
C329 C334 1.350 . S
C329 N337 1.427 . S
C330 H321 0.930 . S
C330 C328 1.378 . S
C330 C331 1.367 . S
C331 C330 1.367 . S
C331 C333 1.433 . S
C332 C328 1.350 . S
C332 C329 1.463 . S
C332 N336 1.427 . S
C333 H323 0.929 . S
C333 C331 1.433 . S
C333 N336 1.384 . S
C334 H325 0.929 . S
C334 C326 1.378 . S
C334 C329 1.350 . S
C335 H322 0.929 . S
C335 C327 1.433 . S
C335 N337 1.384 . S
N336 C332 1.427 . S
N336 C333 1.384 . S
N337 C329 1.427 . S
N337 C335 1.384 . S
H338 C344 0.930 . S
H339 C348 0.930 . S
H340 C353 0.929 . S
H341 C351 0.929 . S
H342 C346 0.929 . S
H343 C352 0.929 . S
C344 H338 0.930 . S
C344 C345 1.367 . S
C344 C352 1.378 . S
C345 C344 1.367 . S
C345 C353 1.433 . S
C346 H342 0.929 . S
C346 C348 1.378 . S
C346 C350 1.350 . S
C347 C350 1.463 . S
C347 C352 1.350 . S
C347 N355 1.427 . S
C348 H339 0.930 . S
C348 C346 1.378 . S
C348 C349 1.367 . S
C349 C348 1.367 . S
C349 C351 1.433 . S
C350 C346 1.350 . S
C350 C347 1.463 . S
C350 N354 1.427 . S
C351 H341 0.929 . S
C351 C349 1.433 . S
C351 N354 1.384 . S
C352 H343 0.929 . S
C352 C344 1.378 . S
C352 C347 1.350 . S
C353 H340 0.929 . S
C353 C345 1.433 . S
C353 N355 1.384 . S
N354 C350 1.427 . S
N354 C351 1.384 . S
N355 C347 1.427 . S
N355 C353 1.384 . S
H356 C362 0.930 . S
H357 C366 0.930 . S
H358 C371 0.929 . S
H359 C369 0.929 . S
H360 C364 0.929 . S
H361 C370 0.929 . S
C362 H356 0.930 . S
C362 C363 1.367 . S
C362 C370 1.378 . S
C363 C362 1.367 . S
C363 C371 1.433 . S
C364 H360 0.929 . S
C364 C366 1.378 . S
C364 C368 1.350 . S
C365 C368 1.463 . S
C365 C370 1.350 . S
C365 N373 1.427 . S
C366 H357 0.930 . S
C366 C364 1.378 . S
C366 C367 1.367 . S
C367 C366 1.367 . S
C367 C369 1.433 . S
C368 C364 1.350 . S
C368 C365 1.463 . S
C368 N372 1.427 . S
C369 H359 0.929 . S
C369 C367 1.433 . S
C369 N372 1.384 . S
C370 H361 0.929 . S
C370 C362 1.378 . S
C370 C365 1.350 . S
C371 H358 0.929 . S
C371 C363 1.433 . S
C371 N373 1.384 . S
N372 C368 1.427 . S
N372 C369 1.384 . S
N373 C365 1.427 . S
N373 C371 1.384 . S
H374 C380 0.930 . S
H375 C384 0.930 . S
H376 C389 0.929 . S
H377 C387 0.929 . S
H378 C382 0.929 . S
H379 C388 0.929 . S
C380 H374 0.930 . S
C380 C381 1.367 . S
C380 C388 1.378 . S
C381 C380 1.367 . S
C381 C389 1.433 . S
C382 H378 0.929 . S
C382 C384 1.378 . S
C382 C386 1.350 . S
C383 C386 1.463 . S
C383 C388 1.350 . S
C383 N391 1.427 . S
C384 H375 0.930 . S
C384 C382 1.378 . S
C384 C385 1.367 . S
C385 C384 1.367 . S
C385 C387 1.433 . S
C386 C382 1.350 . S
C386 C383 1.463 . S
C386 N390 1.427 . S
C387 H377 0.929 . S
C387 C385 1.433 . S
C387 N390 1.384 . S
C388 H379 0.929 . S
C388 C380 1.378 . S
C388 C383 1.350 . S
C389 H376 0.929 . S
C389 C381 1.433 . S
C389 N391 1.384 . S
N390 C386 1.427 . S
N390 C387 1.384 . S
N391 C383 1.427 . S
N391 C389 1.384 . S
H392 C398 0.930 . S
H393 C402 0.930 . S
H394 C407 0.929 . S
H395 C405 0.929 . S
H396 C400 0.929 . S
H397 C406 0.929 . S
C398 H392 0.930 . S
C398 C399 1.367 . S
C398 C406 1.378 . S
C399 C398 1.367 . S
C399 C407 1.433 . S
C400 H396 0.929 . S
C400 C402 1.378 . S
C400 C404 1.350 . S
C401 C404 1.463 . S
C401 C406 1.350 . S
C401 N409 1.427 . S
C402 H393 0.930 . S
C402 C400 1.378 . S
C402 C403 1.367 . S
C403 C402 1.367 . S
C403 C405 1.433 . S
C404 C400 1.350 . S
C404 C401 1.463 . S
C404 N408 1.427 . S
C405 H395 0.929 . S
C405 C403 1.433 . S
C405 N408 1.384 . S
C406 H397 0.929 . S
C406 C398 1.378 . S
C406 C401 1.350 . S
C407 H394 0.929 . S
C407 C399 1.433 . S
C407 N409 1.384 . S
N408 C404 1.427 . S
N408 C405 1.384 . S
N409 C401 1.427 . S
N409 C407 1.384 . S
H410 C416 0.930 . S
H411 C420 0.930 . S
H412 C425 0.929 . S
H413 C423 0.929 . S
H414 C418 0.929 . S
H415 C424 0.929 . S
C416 H410 0.930 . S
C416 C417 1.367 . S
C416 C424 1.378 . S
C417 C416 1.367 . S
C417 C425 1.433 . S
C418 H414 0.929 . S
C418 C420 1.378 . S
C418 C422 1.350 . S
C419 C422 1.463 . S
C419 C424 1.350 . S
C419 N427 1.427 . S
C420 H411 0.930 . S
C420 C418 1.378 . S
C420 C421 1.367 . S
C421 C420 1.367 . S
C421 C423 1.433 . S
C422 C418 1.350 . S
C422 C419 1.463 . S
C422 N426 1.427 . S
C423 H413 0.929 . S
C423 C421 1.433 . S
C423 N426 1.384 . S
C424 H415 0.929 . S
C424 C416 1.378 . S
C424 C419 1.350 . S
C425 H412 0.929 . S
C425 C417 1.433 . S
C425 N427 1.384 . S
N426 C422 1.427 . S
N426 C423 1.384 . S
N427 C419 1.427 . S
N427 C425 1.384 . S
H428 C434 0.930 . S
H429 C438 0.930 . S
H430 C443 0.929 . S
H431 C441 0.929 . S
H432 C436 0.929 . S
H433 C442 0.929 . S
C434 H428 0.930 . S
C434 C435 1.367 . S
C434 C442 1.378 . S
C435 C434 1.367 . S
C435 C443 1.433 . S
C436 H432 0.929 . S
C436 C438 1.378 . S
C436 C440 1.350 . S
C437 C440 1.463 . S
C437 C442 1.350 . S
C437 N445 1.427 . S
C438 H429 0.930 . S
C438 C436 1.378 . S
C438 C439 1.367 . S
C439 C438 1.367 . S
C439 C441 1.433 . S
C440 C436 1.350 . S
C440 C437 1.463 . S
C440 N444 1.427 . S
C441 H431 0.929 . S
C441 C439 1.433 . S
C441 N444 1.384 . S
C442 H433 0.929 . S
C442 C434 1.378 . S
C442 C437 1.350 . S
C443 H430 0.929 . S
C443 C435 1.433 . S
C443 N445 1.384 . S
N444 C440 1.427 . S
N444 C441 1.384 . S
N445 C437 1.427 . S
N445 C443 1.384 . S
H446 C452 0.930 . S
H447 C456 0.930 . S
H448 C461 0.929 . S
H449 C459 0.929 . S
H450 C454 0.929 . S
H451 C460 0.929 . S
C452 H446 0.930 . S
C452 C453 1.367 . S
C452 C460 1.378 . S
C453 C452 1.367 . S
C453 C461 1.433 . S
C454 H450 0.929 . S
C454 C456 1.378 . S
C454 C458 1.350 . S
C455 C458 1.463 . S
C455 C460 1.350 . S
C455 N463 1.427 . S
C456 H447 0.930 . S
C456 C454 1.378 . S
C456 C457 1.367 . S
C457 C456 1.367 . S
C457 C459 1.433 . S
C458 C454 1.350 . S
C458 C455 1.463 . S
C458 N462 1.427 . S
C459 H449 0.929 . S
C459 C457 1.433 . S
C459 N462 1.384 . S
C460 H451 0.929 . S
C460 C452 1.378 . S
C460 C455 1.350 . S
C461 H448 0.929 . S
C461 C453 1.433 . S
C461 N463 1.384 . S
N462 C458 1.427 . S
N462 C459 1.384 . S
N463 C455 1.427 . S
N463 C461 1.384 . S
H464 C470 0.930 . S
H465 C474 0.930 . S
H466 C479 0.929 . S
H467 C477 0.929 . S
H468 C472 0.929 . S
H469 C478 0.929 . S
C470 H464 0.930 . S
C470 C471 1.367 . S
C470 C478 1.378 . S
C471 C470 1.367 . S
C471 C479 1.433 1_554 S
C472 H468 0.929 . S
C472 C474 1.378 . S
C472 C476 1.350 1_556 S
C473 C476 1.463 . S
C473 C478 1.350 . S
C473 N481 1.427 1_554 S
C474 H465 0.930 . S
C474 C472 1.378 . S
C474 C475 1.367 1_556 S
C475 C474 1.367 1_554 S
C475 C477 1.433 . S
C476 C472 1.350 1_554 S
C476 C473 1.463 . S
C476 N480 1.427 . S
C477 H467 0.929 . S
C477 C475 1.433 . S
C477 N480 1.384 . S
C478 H469 0.929 . S
C478 C470 1.378 . S
C478 C473 1.350 . S
C479 H466 0.929 . S
C479 C471 1.433 1_556 S
C479 N481 1.384 . S
N480 C476 1.427 . S
N480 C477 1.384 . S
N481 C473 1.427 1_556 S
N481 C479 1.384 . S
H482 C488 0.930 . S
H483 C492 0.930 . S
H484 C497 0.929 . S
H485 C495 0.929 . S
H486 C490 0.929 . S
H487 C496 0.929 . S
C488 H482 0.930 . S
C488 C489 1.367 . S
C488 C496 1.378 . S
C489 C488 1.367 . S
C489 C497 1.433 . S
C490 H486 0.929 . S
C490 C492 1.378 . S
C490 C494 1.350 . S
C491 C494 1.463 . S
C491 C496 1.350 . S
C491 N499 1.427 . S
C492 H483 0.930 . S
C492 C490 1.378 . S
C492 C493 1.367 . S
C493 C492 1.367 . S
C493 C495 1.433 . S
C494 C490 1.350 . S
C494 C491 1.463 . S
C494 N498 1.427 . S
C495 H485 0.929 . S
C495 C493 1.433 . S
C495 N498 1.384 . S
C496 H487 0.929 . S
C496 C488 1.378 . S
C496 C491 1.350 . S
C497 H484 0.929 . S
C497 C489 1.433 . S
C497 N499 1.384 . S
N498 C494 1.427 . S
N498 C495 1.384 . S
N499 C491 1.427 . S
N499 C497 1.384 . S
H500 C506 0.930 . S
H501 C510 0.930 . S
H502 C515 0.929 . S
H503 C513 0.929 . S
H504 C508 0.929 . S
H505 C514 0.929 . S
C506 H500 0.930 . S
C506 C507 1.367 1_556 S
C506 C514 1.378 . S
C507 C506 1.367 1_554 S
C507 C515 1.433 . S
C508 H504 0.929 . S
C508 C510 1.378 . S
C508 C512 1.350 . S
C509 C512 1.463 . S
C509 C514 1.350 1_554 S
C509 N517 1.427 . S
C510 H501 0.930 . S
C510 C508 1.378 . S
C510 C511 1.367 . S
C511 C510 1.367 . S
C511 C513 1.433 1_554 S
C512 C508 1.350 . S
C512 C509 1.463 . S
C512 N516 1.427 1_554 S
C513 H503 0.929 . S
C513 C511 1.433 1_556 S
C513 N516 1.384 . S
C514 H505 0.929 . S
C514 C506 1.378 . S
C514 C509 1.350 1_556 S
C515 H502 0.929 . S
C515 C507 1.433 . S
C515 N517 1.384 . S
N516 C512 1.427 1_556 S
N516 C513 1.384 . S
N517 C509 1.427 . S
N517 C515 1.384 . S
H518 C524 0.930 . S
H519 C528 0.930 . S
H520 C533 0.929 . S
H521 C531 0.929 . S
H522 C526 0.929 . S
H523 C532 0.929 . S
C524 H518 0.930 . S
C524 C525 1.367 . S
C524 C532 1.378 . S
C525 C524 1.367 . S
C525 C533 1.433 . S
C526 H522 0.929 . S
C526 C528 1.378 . S
C526 C530 1.350 . S
C527 C530 1.463 . S
C527 C532 1.350 . S
C527 N535 1.427 . S
C528 H519 0.930 . S
C528 C526 1.378 . S
C528 C529 1.367 . S
C529 C528 1.367 . S
C529 C531 1.433 . S
C530 C526 1.350 . S
C530 C527 1.463 . S
C530 N534 1.427 . S
C531 H521 0.929 . S
C531 C529 1.433 . S
C531 N534 1.384 . S
C532 H523 0.929 . S
C532 C524 1.378 . S
C532 C527 1.350 . S
C533 H520 0.929 . S
C533 C525 1.433 . S
C533 N535 1.384 . S
N534 C530 1.427 . S
N534 C531 1.384 . S
N535 C527 1.427 . S
N535 C533 1.384 . S
H536 C542 0.930 . S
H537 C546 0.930 . S
H538 C551 0.929 . S
H539 C549 0.929 . S
H540 C544 0.929 . S
H541 C550 0.929 . S
C542 H536 0.930 . S
C542 C543 1.367 . S
C542 C550 1.378 . S
C543 C542 1.367 . S
C543 C551 1.433 . S
C544 H540 0.929 . S
C544 C546 1.378 . S
C544 C548 1.350 . S
C545 C548 1.463 . S
C545 C550 1.350 . S
C545 N553 1.427 . S
C546 H537 0.930 . S
C546 C544 1.378 . S
C546 C547 1.367 . S
C547 C546 1.367 . S
C547 C549 1.433 . S
C548 C544 1.350 . S
C548 C545 1.463 . S
C548 N552 1.427 . S
C549 H539 0.929 . S
C549 C547 1.433 . S
C549 N552 1.384 . S
C550 H541 0.929 . S
C550 C542 1.378 . S
C550 C545 1.350 . S
C551 H538 0.929 . S
C551 C543 1.433 . S
C551 N553 1.384 . S
N552 C548 1.427 . S
N552 C549 1.384 . S
N553 C545 1.427 . S
N553 C551 1.384 . S
H554 C560 0.930 . S
H555 C564 0.930 . S
H556 C569 0.929 . S
H557 C567 0.929 . S
H558 C562 0.929 . S
H559 C568 0.929 . S
C560 H554 0.930 . S
C560 C561 1.367 . S
C560 C568 1.378 . S
C561 C560 1.367 . S
C561 C569 1.433 1_554 S
C562 H558 0.929 . S
C562 C564 1.378 . S
C562 C566 1.350 1_556 S
C563 C566 1.463 . S
C563 C568 1.350 . S
C563 N571 1.427 1_554 S
C564 H555 0.930 . S
C564 C562 1.378 . S
C564 C565 1.367 1_556 S
C565 C564 1.367 1_554 S
C565 C567 1.433 . S
C566 C562 1.350 1_554 S
C566 C563 1.463 . S
C566 N570 1.427 . S
C567 H557 0.929 . S
C567 C565 1.433 . S
C567 N570 1.384 . S
C568 H559 0.929 . S
C568 C560 1.378 . S
C568 C563 1.350 . S
C569 H556 0.929 . S
C569 C561 1.433 1_556 S
C569 N571 1.384 . S
N570 C566 1.427 . S
N570 C567 1.384 . S
N571 C563 1.427 1_556 S
N571 C569 1.384 . S
H572 C578 0.930 . S
H573 C582 0.930 . S
H574 C587 0.929 . S
H575 C585 0.929 . S
H576 C580 0.929 . S
H577 C586 0.929 . S
C578 H572 0.930 . S
C578 C579 1.367 . S
C578 C586 1.378 . S
C579 C578 1.367 . S
C579 C587 1.433 . S
C580 H576 0.929 . S
C580 C582 1.378 . S
C580 C584 1.350 . S
C581 C584 1.463 . S
C581 C586 1.350 . S
C581 N589 1.427 . S
C582 H573 0.930 . S
C582 C580 1.378 . S
C582 C583 1.367 . S
C583 C582 1.367 . S
C583 C585 1.433 . S
C584 C580 1.350 . S
C584 C581 1.463 . S
C584 N588 1.427 . S
C585 H575 0.929 . S
C585 C583 1.433 . S
C585 N588 1.384 . S
C586 H577 0.929 . S
C586 C578 1.378 . S
C586 C581 1.350 . S
C587 H574 0.929 . S
C587 C579 1.433 . S
C587 N589 1.384 . S
N588 C584 1.427 . S
N588 C585 1.384 . S
N589 C581 1.427 . S
N589 C587 1.384 . S
H590 C596 0.930 . S
H591 C600 0.930 . S
H592 C605 0.929 . S
H593 C603 0.929 . S
H594 C598 0.929 . S
H595 C604 0.929 . S
C596 H590 0.930 . S
C596 C597 1.367 . S
C596 C604 1.378 . S
C597 C596 1.367 . S
C597 C605 1.433 1_554 S
C598 H594 0.929 . S
C598 C600 1.378 . S
C598 C602 1.350 1_556 S
C599 C602 1.463 . S
C599 C604 1.350 . S
C599 N607 1.427 1_554 S
C600 H591 0.930 . S
C600 C598 1.378 . S
C600 C601 1.367 1_556 S
C601 C600 1.367 1_554 S
C601 C603 1.433 . S
C602 C598 1.350 1_554 S
C602 C599 1.463 . S
C602 N606 1.427 . S
C603 H593 0.929 . S
C603 C601 1.433 . S
C603 N606 1.384 . S
C604 H595 0.929 . S
C604 C596 1.378 . S
C604 C599 1.350 . S
C605 H592 0.929 . S
C605 C597 1.433 1_556 S
C605 N607 1.384 . S
N606 C602 1.427 . S
N606 C603 1.384 . S
N607 C599 1.427 1_556 S
N607 C605 1.384 . S
C183 C5 1.441 . S
C187 C125 1.460 . S
C201 C31 1.456 . S
C205 C92 1.473 . S
C223 C104 1.463 . S
C219 C53 1.489 . S
C237 C71 1.467 . S
C241 C115 1.461 . S
C259 C148 1.456 . S
C255 C75 1.472 . S
C277 C159 1.463 . S
C273 C9 1.489 . S
C295 C169 1.473 . S
C291 C27 1.456 . S
C313 C136 1.458 . S
C309 C49 1.443 . S
C327 C51 1.448 . S
C331 C103 1.450 . S
C345 C72 1.464 . S
C349 C114 1.461 . S
C363 C6 1.485 . S
C367 C126 1.474 . S
C385 C93 1.457 . S
C381 C29 1.473 . S
C399 C28 1.467 . S
C403 C170 1.461 . S
C421 C137 1.478 . S
C417 C50 1.480 . S
C439 C147 1.468 . S
C435 C73 1.456 . S
C453 C7 1.442 . S
C457 C158 1.455 . S
C475 C98 1.511 . S
C471 C4 1.502 . S
C493 C109 1.510 . S
C489 C30 1.502 . S
C507 C52 1.504 . S
C511 C120 1.513 . S
C525 C70 1.503 . S
C529 C131 1.510 . S
C547 C142 1.510 . S
C543 C74 1.502 . S
C561 C8 1.502 . S
C565 C153 1.514 . S
C579 C26 1.505 . S
C583 C164 1.510 . S
C597 C48 1.506 . S
C601 C175 1.506 . S
