# Generated by pormake.
# Topology eea, (3,6)-cn, num edge types: 1
# Building blocks:
#     Node 0, Type 0, BuildingBlock: KAKCAD_clean_linker_0, # of connection points: 3
#     Node 1, Type 0, BuildingBlock: KAKCAD_clean_linker_0, # of connection points: 3
#     Node 2, Type 0, BuildingBlock: KAKCAD_clean_linker_0, # of connection points: 3
#     Node 3, Type 0, BuildingBlock: KAKCAD_clean_linker_0, # of connection points: 3
#     Node 4, Type 0, BuildingBlock: KAKCAD_clean_linker_0, # of connection points: 3
#     Node 5, Type 0, BuildingBlock: KAKCAD_clean_linker_0, # of connection points: 3
#     Node 6, Type 0, BuildingBlock: KAKCAD_clean_linker_0, # of connection points: 3
#     Node 7, Type 0, BuildingBlock: KAKCAD_clean_linker_0, # of connection points: 3
#     Node 8, Type 0, BuildingBlock: KAKCAD_clean_linker_0, # of connection points: 3
#     Node 9, Type 0, BuildingBlock: KAKCAD_clean_linker_0, # of connection points: 3
#     Node 10, Type 0, BuildingBlock: KAKCAD_clean_linker_0, # of connection points: 3
#     Node 11, Type 0, BuildingBlock: KAKCAD_clean_linker_0, # of connection points: 3
#     Node 12, Type 0, BuildingBlock: KAKCAD_clean_linker_0, # of connection points: 3
#     Node 13, Type 0, BuildingBlock: KAKCAD_clean_linker_0, # of connection points: 3
#     Node 14, Type 0, BuildingBlock: KAKCAD_clean_linker_0, # of connection points: 3
#     Node 15, Type 0, BuildingBlock: KAKCAD_clean_linker_0, # of connection points: 3
#     Node 16, Type 0, BuildingBlock: KAKCAD_clean_linker_0, # of connection points: 3
#     Node 17, Type 0, BuildingBlock: KAKCAD_clean_linker_0, # of connection points: 3
#     Node 18, Type 1, BuildingBlock: KUMJIN_clean_sbu_0, # of connection points: 6
#     Node 19, Type 1, BuildingBlock: KUMJIN_clean_sbu_0, # of connection points: 6
#     Node 20, Type 1, BuildingBlock: KUMJIN_clean_sbu_0, # of connection points: 6
#     Node 21, Type 1, BuildingBlock: KUMJIN_clean_sbu_0, # of connection points: 6
#     Node 22, Type 1, BuildingBlock: KUMJIN_clean_sbu_0, # of connection points: 6
#     Node 23, Type 1, BuildingBlock: KUMJIN_clean_sbu_0, # of connection points: 6
#     Node 24, Type 1, BuildingBlock: KUMJIN_clean_sbu_0, # of connection points: 6
#     Node 25, Type 1, BuildingBlock: KUMJIN_clean_sbu_0, # of connection points: 6
#     Node 26, Type 1, BuildingBlock: KUMJIN_clean_sbu_0, # of connection points: 6
#     Edge 27, Type (0, 1), BuildingBlock: EZIPEK_clean_linker_0, # of connection points: 2
#     Edge 28, Type (0, 1), BuildingBlock: EZIPEK_clean_linker_0, # of connection points: 2
#     Edge 29, Type (0, 1), BuildingBlock: EZIPEK_clean_linker_0, # of connection points: 2
#     Edge 30, Type (0, 1), BuildingBlock: EZIPEK_clean_linker_0, # of connection points: 2
#     Edge 31, Type (0, 1), BuildingBlock: EZIPEK_clean_linker_0, # of connection points: 2
#     Edge 32, Type (0, 1), BuildingBlock: EZIPEK_clean_linker_0, # of connection points: 2
#     Edge 33, Type (0, 1), BuildingBlock: EZIPEK_clean_linker_0, # of connection points: 2
#     Edge 34, Type (0, 1), BuildingBlock: EZIPEK_clean_linker_0, # of connection points: 2
#     Edge 35, Type (0, 1), BuildingBlock: EZIPEK_clean_linker_0, # of connection points: 2
#     Edge 36, Type (0, 1), BuildingBlock: EZIPEK_clean_linker_0, # of connection points: 2
#     Edge 37, Type (0, 1), BuildingBlock: EZIPEK_clean_linker_0, # of connection points: 2
#     Edge 38, Type (0, 1), BuildingBlock: EZIPEK_clean_linker_0, # of connection points: 2
#     Edge 39, Type (0, 1), BuildingBlock: EZIPEK_clean_linker_0, # of connection points: 2
#     Edge 40, Type (0, 1), BuildingBlock: EZIPEK_clean_linker_0, # of connection points: 2
#     Edge 41, Type (0, 1), BuildingBlock: EZIPEK_clean_linker_0, # of connection points: 2
#     Edge 42, Type (0, 1), BuildingBlock: EZIPEK_clean_linker_0, # of connection points: 2
#     Edge 43, Type (0, 1), BuildingBlock: EZIPEK_clean_linker_0, # of connection points: 2
#     Edge 44, Type (0, 1), BuildingBlock: EZIPEK_clean_linker_0, # of connection points: 2
#     Edge 45, Type (0, 1), BuildingBlock: EZIPEK_clean_linker_0, # of connection points: 2
#     Edge 46, Type (0, 1), BuildingBlock: EZIPEK_clean_linker_0, # of connection points: 2
#     Edge 47, Type (0, 1), BuildingBlock: EZIPEK_clean_linker_0, # of connection points: 2
#     Edge 48, Type (0, 1), BuildingBlock: EZIPEK_clean_linker_0, # of connection points: 2
#     Edge 49, Type (0, 1), BuildingBlock: EZIPEK_clean_linker_0, # of connection points: 2
#     Edge 50, Type (0, 1), BuildingBlock: EZIPEK_clean_linker_0, # of connection points: 2
#     Edge 51, Type (0, 1), BuildingBlock: EZIPEK_clean_linker_0, # of connection points: 2
#     Edge 52, Type (0, 1), BuildingBlock: EZIPEK_clean_linker_0, # of connection points: 2
#     Edge 53, Type (0, 1), BuildingBlock: EZIPEK_clean_linker_0, # of connection points: 2
#     Edge 54, Type (0, 1), BuildingBlock: EZIPEK_clean_linker_0, # of connection points: 2
#     Edge 55, Type (0, 1), BuildingBlock: EZIPEK_clean_linker_0, # of connection points: 2
#     Edge 56, Type (0, 1), BuildingBlock: EZIPEK_clean_linker_0, # of connection points: 2
#     Edge 57, Type (0, 1), BuildingBlock: EZIPEK_clean_linker_0, # of connection points: 2
#     Edge 58, Type (0, 1), BuildingBlock: EZIPEK_clean_linker_0, # of connection points: 2
#     Edge 59, Type (0, 1), BuildingBlock: EZIPEK_clean_linker_0, # of connection points: 2
#     Edge 60, Type (0, 1), BuildingBlock: EZIPEK_clean_linker_0, # of connection points: 2
#     Edge 61, Type (0, 1), BuildingBlock: EZIPEK_clean_linker_0, # of connection points: 2
#     Edge 62, Type (0, 1), BuildingBlock: EZIPEK_clean_linker_0, # of connection points: 2
#     Edge 63, Type (0, 1), BuildingBlock: EZIPEK_clean_linker_0, # of connection points: 2
#     Edge 64, Type (0, 1), BuildingBlock: EZIPEK_clean_linker_0, # of connection points: 2
#     Edge 65, Type (0, 1), BuildingBlock: EZIPEK_clean_linker_0, # of connection points: 2
#     Edge 66, Type (0, 1), BuildingBlock: EZIPEK_clean_linker_0, # of connection points: 2
#     Edge 67, Type (0, 1), BuildingBlock: EZIPEK_clean_linker_0, # of connection points: 2
#     Edge 68, Type (0, 1), BuildingBlock: EZIPEK_clean_linker_0, # of connection points: 2
#     Edge 69, Type (0, 1), BuildingBlock: EZIPEK_clean_linker_0, # of connection points: 2
#     Edge 70, Type (0, 1), BuildingBlock: EZIPEK_clean_linker_0, # of connection points: 2
#     Edge 71, Type (0, 1), BuildingBlock: EZIPEK_clean_linker_0, # of connection points: 2
#     Edge 72, Type (0, 1), BuildingBlock: EZIPEK_clean_linker_0, # of connection points: 2
#     Edge 73, Type (0, 1), BuildingBlock: EZIPEK_clean_linker_0, # of connection points: 2
#     Edge 74, Type (0, 1), BuildingBlock: EZIPEK_clean_linker_0, # of connection points: 2
#     Edge 75, Type (0, 1), BuildingBlock: EZIPEK_clean_linker_0, # of connection points: 2
#     Edge 76, Type (0, 1), BuildingBlock: EZIPEK_clean_linker_0, # of connection points: 2
#     Edge 77, Type (0, 1), BuildingBlock: EZIPEK_clean_linker_0, # of connection points: 2
#     Edge 78, Type (0, 1), BuildingBlock: EZIPEK_clean_linker_0, # of connection points: 2
#     Edge 79, Type (0, 1), BuildingBlock: EZIPEK_clean_linker_0, # of connection points: 2
#     Edge 80, Type (0, 1), BuildingBlock: EZIPEK_clean_linker_0, # of connection points: 2
# Relax obj value: 0.008
# Max RMSD: 0.089
# Mean RMSD: 0.072
data_MOF--net-eea--node1-KUMJIN_clean_sbu_0--node2-KAKCAD_clean_linker_0--edge1-EZIPEK_clean_linker_0
_symmetry_space_group_name_H-M    P1
_symmetry_Int_Tables_number       1
_symmetry_cell_setting            triclinic
loop_
_symmetry_equiv_pos_as_xyz
'x, y, z'
_cell_length_a     48.612223
_cell_length_b     49.826025
_cell_length_c     72.127578
_cell_angle_alpha  90.308121
_cell_angle_beta   90.147997
_cell_angle_gamma 119.95461
loop_
_atom_site_label
_atom_site_type_symbol
_atom_site_fract_x
_atom_site_fract_y
_atom_site_fract_z
_atom_type_partial_charge
C0 C 0.30792 0.17286 0.48838 0.0
C1 C 0.33127 0.16586 0.4939 0.0
C2 C 0.29632 0.1668 0.47022 0.0
C3 C 0.30781 0.15352 0.45732 0.0
C4 C 0.33125 0.14657 0.46294 0.0
C5 C 0.34294 0.15277 0.4811 0.0
C6 C 0.29466 0.14624 0.43821 0.0
C7 C 0.28857 0.16723 0.42863 0.0
C8 C 0.2735 0.15952 0.4112 0.0
C9 C 0.26487 0.13049 0.40333 0.0
C10 C 0.27155 0.10964 0.41249 0.0
C11 C 0.28663 0.11767 0.42986 0.0
C12 C 0.2607 0.07862 0.40436 0.0
C13 C 0.22877 0.06 0.39909 0.0
C14 C 0.28192 0.06752 0.40172 0.0
C15 C 0.27133 0.03826 0.39374 0.0
C16 C 0.23923 0.01952 0.38879 0.0
C17 C 0.26525 0.18092 0.40158 0.0
C18 C 0.25489 0.19841 0.41174 0.0
C19 C 0.26609 0.18287 0.3821 0.0
C20 C 0.25545 0.20067 0.37298 0.0
C21 C 0.24444 0.21737 0.38319 0.0
C22 C 0.24481 0.21663 0.40262 0.0
C23 C 0.21811 0.03064 0.39149 0.0
H24 H 0.29861 0.18285 0.49818 0.0
H25 H 0.27791 0.17196 0.46639 0.0
H26 H 0.34068 0.13653 0.45328 0.0
H27 H 0.361 0.14726 0.48521 0.0
H28 H 0.29567 0.18965 0.4348 0.0
H29 H 0.29063 0.10101 0.43725 0.0
H30 H 0.25233 0.12369 0.39018 0.0
H31 H 0.21196 0.068 0.40111 0.0
H32 H 0.30668 0.08162 0.40562 0.0
H33 H 0.28793 0.03001 0.39169 0.0
H34 H 0.25343 0.19719 0.42672 0.0
H35 H 0.27453 0.17027 0.37384 0.0
H36 H 0.19327 0.01647 0.38775 0.0
H37 H 0.23621 0.22932 0.41069 0.0
H38 H 0.25528 0.201 0.35796 0.0
C39 C 0.86784 0.17704 0.48518 0.0
C40 C 0.85701 0.15324 0.49831 0.0
C41 C 0.87508 0.1721 0.46717 0.0
C42 C 0.87114 0.14314 0.462 0.0
C43 C 0.86079 0.11958 0.47531 0.0
C44 C 0.85397 0.12465 0.49333 0.0
C45 C 0.87748 0.13709 0.44278 0.0
C46 C 0.90568 0.15793 0.43384 0.0
C47 C 0.91269 0.15095 0.4162 0.0
C48 C 0.89126 0.12249 0.40774 0.0
C49 C 0.86201 0.10177 0.41604 0.0
C50 C 0.85541 0.1098 0.43357 0.0
C51 C 0.83876 0.07185 0.40657 0.0
C52 C 0.83955 0.06798 0.38719 0.0
C53 C 0.81551 0.0466 0.41677 0.0
C54 C 0.79369 0.01903 0.40793 0.0
C55 C 0.79549 0.01505 0.38879 0.0
C56 C 0.94253 0.17302 0.40657 0.0
C57 C 0.97129 0.18954 0.41646 0.0
C58 C 0.94253 0.17731 0.38727 0.0
C59 C 0.97069 0.19705 0.37804 0.0
C60 C 0.99926 0.21302 0.38796 0.0
C61 C 0.99939 0.20941 0.40722 0.0
C62 C 0.81885 0.03973 0.37854 0.0
H63 H 0.87029 0.19925 0.48883 0.0
H64 H 0.88298 0.19062 0.45718 0.0
H65 H 0.858 0.09719 0.47175 0.0
H66 H 0.84576 0.10609 0.50333 0.0
H67 H 0.92227 0.17943 0.44073 0.0
H68 H 0.83295 0.09518 0.44026 0.0
H69 H 0.89807 0.11644 0.39482 0.0
H70 H 0.85597 0.08664 0.37844 0.0
H71 H 0.81413 0.04752 0.43169 0.0
H72 H 0.77595 0.0003 0.41619 0.0
H73 H 0.97228 0.18656 0.43126 0.0
H74 H 0.92072 0.16539 0.37929 0.0
H75 H 0.8208 0.03727 0.36375 0.0
H76 H 0.0214 0.22153 0.41503 0.0
H77 H 0.97029 0.19966 0.36315 0.0
C78 C 0.88972 0.73214 0.48811 0.0
C79 C 0.85939 0.72004 0.49584 0.0
C80 C 0.89585 0.74424 0.47014 0.0
C81 C 0.87137 0.7431 0.45891 0.0
C82 C 0.84087 0.73054 0.46688 0.0
C83 C 0.83531 0.7202 0.48519 0.0
C84 C 0.87745 0.75474 0.43917 0.0
C85 C 0.90434 0.7587 0.42931 0.0
C86 C 0.91045 0.77018 0.41109 0.0
C87 C 0.88845 0.77626 0.40218 0.0
C88 C 0.86104 0.77181 0.41133 0.0
C89 C 0.85627 0.76186 0.42987 0.0
C90 C 0.8373 0.77752 0.40158 0.0
C91 C 0.82186 0.79103 0.41103 0.0
C92 C 0.82941 0.76899 0.38281 0.0
C93 C 0.80669 0.77381 0.37378 0.0
C94 C 0.79111 0.78686 0.38341 0.0
C95 C 0.94032 0.77667 0.40154 0.0
C96 C 0.96948 0.79118 0.41118 0.0
C97 C 0.94015 0.76934 0.38263 0.0
C98 C 0.96846 0.77654 0.37358 0.0
C99 C 0.99743 0.79131 0.38325 0.0
C100 C 0.99774 0.79846 0.40211 0.0
C101 C 0.79895 0.7955 0.40207 0.0
H102 H 0.9088 0.73239 0.49604 0.0
H103 H 0.92 0.75447 0.46532 0.0
H104 H 0.82063 0.72783 0.45912 0.0
H105 H 0.81167 0.71101 0.49081 0.0
H106 H 0.92059 0.75243 0.43549 0.0
H107 H 0.83567 0.7596 0.43687 0.0
H108 H 0.89316 0.78542 0.38823 0.0
H109 H 0.82769 0.79852 0.42533 0.0
H110 H 0.84049 0.75821 0.37513 0.0
H111 H 0.80114 0.76726 0.35933 0.0
H112 H 0.97056 0.7975 0.42567 0.0
H113 H 0.9181 0.7579 0.37484 0.0
H114 H 0.78748 0.806 0.40966 0.0
H115 H 0.01993 0.80984 0.40979 0.0
H116 H 0.96783 0.77075 0.35903 0.0
C117 C 0.16522 0.29774 0.53656 0.0
C118 C 0.13963 0.28802 0.52417 0.0
C119 C 0.16032 0.28613 0.55466 0.0
C120 C 0.12966 0.26436 0.56079 0.0
C121 C 0.10408 0.25461 0.54822 0.0
C122 C 0.10901 0.26632 0.53013 0.0
C123 C 0.1244 0.25188 0.58016 0.0
C124 C 0.1467 0.2457 0.58883 0.0
C125 C 0.14193 0.23371 0.60696 0.0
C126 C 0.11416 0.22792 0.61642 0.0
C127 C 0.09161 0.23414 0.60821 0.0
C128 C 0.09707 0.24614 0.59009 0.0
C129 C 0.06229 0.22794 0.61852 0.0
C130 C 0.0328 0.21567 0.6093 0.0
C131 C 0.06344 0.23407 0.63771 0.0
C132 C 0.03595 0.22805 0.64737 0.0
C133 C 0.0067 0.21592 0.63806 0.0
C134 C 0.16562 0.22673 0.61592 0.0
C135 C 0.18195 0.21528 0.60534 0.0
C136 C 0.17189 0.23105 0.63516 0.0
C137 C 0.19342 0.22377 0.64355 0.0
C138 C 0.20952 0.21238 0.63288 0.0
C139 C 0.20368 0.20833 0.61371 0.0
C140 C 0.00536 0.20972 0.61896 0.0
H141 H 0.18902 0.31454 0.53226 0.0
H142 H 0.18058 0.29463 0.56391 0.0
H143 H 0.08021 0.23759 0.55226 0.0
H144 H 0.08894 0.25845 0.52077 0.0
H145 H 0.16784 0.25017 0.58137 0.0
H146 H 0.08031 0.25179 0.58385 0.0
H147 H 0.10957 0.21764 0.63006 0.0
H148 H 0.03077 0.21018 0.59464 0.0
H149 H 0.08569 0.24385 0.64527 0.0
H150 H 0.03746 0.23288 0.66211 0.0
H151 H 0.1775 0.21099 0.59061 0.0
H152 H 0.16027 0.24023 0.64379 0.0
H153 H 0.98298 0.20013 0.61154 0.0
H154 H 0.21559 0.19923 0.60525 0.0
H155 H 0.19748 0.22693 0.65838 0.0
C156 C 0.69564 0.82574 0.53811 0.0
C157 C 0.70965 0.84996 0.52528 0.0
C158 C 0.70725 0.8301 0.55629 0.0
C159 C 0.7328 0.85887 0.56194 0.0
C160 C 0.74717 0.88281 0.5489 0.0
C161 C 0.73581 0.87833 0.5307 0.0
C162 C 0.7442 0.86444 0.58144 0.0
C163 C 0.7499 0.84307 0.59077 0.0
C164 C 0.76216 0.84922 0.60892 0.0
C165 C 0.76941 0.87747 0.61749 0.0
C166 C 0.76298 0.89897 0.60863 0.0
C167 C 0.74976 0.89163 0.59063 0.0
C168 C 0.7702 0.92894 0.61798 0.0
C169 C 0.77307 0.93244 0.63746 0.0
C170 C 0.77445 0.95463 0.60751 0.0
C171 C 0.7804 0.98218 0.61617 0.0
C172 C 0.78415 0.98571 0.63548 0.0
C173 C 0.76767 0.82633 0.61899 0.0
C174 C 0.75922 0.81991 0.63777 0.0
C175 C 0.78168 0.811 0.61004 0.0
C176 C 0.78768 0.79023 0.61977 0.0
C177 C 0.77959 0.78428 0.63855 0.0
C178 C 0.76511 0.79904 0.64746 0.0
C179 C 0.78079 0.96065 0.64601 0.0
H180 H 0.67541 0.80369 0.53411 0.0
H181 H 0.69569 0.81131 0.56607 0.0
H182 H 0.76717 0.90507 0.55281 0.0
H183 H 0.74694 0.89721 0.52094 0.0
H184 H 0.74488 0.8217 0.58388 0.0
H185 H 0.74316 0.90669 0.58358 0.0
H186 H 0.78076 0.88269 0.63097 0.0
H187 H 0.7692 0.9135 0.64635 0.0
H188 H 0.77374 0.95405 0.59254 0.0
H189 H 0.78299 0.00118 0.60769 0.0
H190 H 0.748 0.83101 0.64498 0.0
H191 H 0.78869 0.81561 0.59565 0.0
H192 H 0.78366 0.96276 0.66094 0.0
H193 H 0.75878 0.7947 0.66197 0.0
H194 H 0.79902 0.7791 0.61273 0.0
C195 C 0.10474 0.82383 0.53031 0.0
C196 C 0.13524 0.83505 0.52302 0.0
C197 C 0.10069 0.83296 0.54797 0.0
C198 C 0.12711 0.85263 0.55918 0.0
C199 C 0.15771 0.86365 0.55177 0.0
C200 C 0.16167 0.85546 0.53379 0.0
C201 C 0.12264 0.86155 0.57839 0.0
C202 C 0.09535 0.84172 0.5887 0.0
C203 C 0.08991 0.8504 0.6063 0.0
C204 C 0.11266 0.87898 0.61393 0.0
C205 C 0.14046 0.89867 0.60425 0.0
C206 C 0.14522 0.89004 0.5865 0.0
C207 C 0.16414 0.92868 0.61264 0.0
C208 C 0.15492 0.95002 0.61828 0.0
C209 C 0.19571 0.93584 0.61553 0.0
C210 C 0.21762 0.9638 0.62414 0.0
C211 C 0.20847 0.98538 0.62944 0.0
C212 C 0.0603 0.82973 0.61662 0.0
C213 C 0.0479 0.79746 0.61664 0.0
C214 C 0.044 0.84207 0.62638 0.0
C215 C 0.01594 0.82259 0.63585 0.0
C216 C 0.00362 0.79046 0.63563 0.0
C217 C 0.01982 0.77805 0.62604 0.0
C218 C 0.17693 0.9782 0.62644 0.0
H219 H 0.08396 0.80822 0.52222 0.0
H220 H 0.07666 0.82466 0.55262 0.0
H221 H 0.1788 0.87829 0.55986 0.0
H222 H 0.18545 0.86448 0.52841 0.0
H223 H 0.07797 0.81946 0.58303 0.0
H224 H 0.16612 0.90619 0.57889 0.0
H225 H 0.10913 0.88572 0.62765 0.0
H226 H 0.13071 0.94497 0.61621 0.0
H227 H 0.20322 0.91955 0.61142 0.0
H228 H 0.24174 0.96879 0.62648 0.0
H229 H 0.06002 0.78719 0.60952 0.0
H230 H 0.05264 0.86674 0.62646 0.0
H231 H 0.16934 0.99444 0.63051 0.0
H232 H 0.01064 0.75326 0.6258 0.0
H233 H 0.00365 0.8325 0.64318 0.0
C234 C 0.95562 0.49919 0.82737 0.0
C235 C 0.97454 0.48769 0.83447 0.0
C236 C 0.94377 0.49194 0.8093 0.0
C237 C 0.9512 0.47359 0.79774 0.0
C238 C 0.96956 0.46145 0.8051 0.0
C239 C 0.9808 0.46815 0.82339 0.0
C240 C 0.9406 0.46809 0.77796 0.0
C241 C 0.93885 0.49139 0.76799 0.0
C242 C 0.92797 0.48649 0.7496 0.0
C243 C 0.91996 0.45828 0.74082 0.0
C244 C 0.92194 0.43473 0.75032 0.0
C245 C 0.93204 0.43978 0.76897 0.0
C246 C 0.9128 0.40476 0.74077 0.0
C247 C 0.88707 0.39162 0.72818 0.0
C248 C 0.92975 0.38911 0.744 0.0
C249 C 0.92098 0.36095 0.73503 0.0
C250 C 0.89533 0.3481 0.72254 0.0
C251 C 0.92359 0.51026 0.73978 0.0
C252 C 0.91056 0.52626 0.74906 0.0
C253 C 0.93059 0.5158 0.7208 0.0
C254 C 0.92318 0.53556 0.71112 0.0
C255 C 0.90899 0.55037 0.72028 0.0
C256 C 0.90344 0.54628 0.73938 0.0
C257 C 0.87859 0.36371 0.71908 0.0
H258 H 0.95026 0.51406 0.83579 0.0
H259 H 0.92891 0.50094 0.80441 0.0
H260 H 0.97604 0.44749 0.79663 0.0
H261 H 0.99525 0.45894 0.82871 0.0
H262 H 0.94634 0.51368 0.77445 0.0
H263 H 0.93234 0.4213 0.77664 0.0
H264 H 0.9118 0.45452 0.72656 0.0
H265 H 0.87299 0.40255 0.72561 0.0
H266 H 0.94991 0.39868 0.75339 0.0
H267 H 0.93398 0.34902 0.73795 0.0
H268 H 0.90457 0.52232 0.76362 0.0
H269 H 0.9412 0.50437 0.71333 0.0
H270 H 0.8584 0.35382 0.7097 0.0
H271 H 0.89233 0.5575 0.74658 0.0
H272 H 0.92763 0.53858 0.69636 0.0
C273 C 0.53797 0.50691 0.81774 0.0
C274 C 0.52683 0.483 0.83081 0.0
C275 C 0.5451 0.50199 0.79969 0.0
C276 C 0.54079 0.47293 0.79438 0.0
C277 C 0.53013 0.44924 0.80762 0.0
C278 C 0.52341 0.45429 0.8257 0.0
C279 C 0.54704 0.46696 0.77508 0.0
C280 C 0.57508 0.48803 0.76603 0.0
C281 C 0.58192 0.48137 0.74823 0.0
C282 C 0.5604 0.453 0.73969 0.0
C283 C 0.53139 0.43199 0.74812 0.0
C284 C 0.52502 0.43966 0.76583 0.0
C285 C 0.50806 0.40215 0.73859 0.0
C286 C 0.50778 0.39894 0.7191 0.0
C287 C 0.48572 0.3764 0.74884 0.0
C288 C 0.46364 0.34895 0.73995 0.0
C289 C 0.46415 0.34571 0.72064 0.0
C290 C 0.61173 0.50368 0.73858 0.0
C291 C 0.64054 0.52029 0.74844 0.0
C292 C 0.61169 0.50813 0.7193 0.0
C293 C 0.63983 0.52801 0.71006 0.0
C294 C 0.66846 0.54402 0.71994 0.0
C295 C 0.66861 0.5403 0.73919 0.0
C296 C 0.4867 0.3709 0.71033 0.0
H297 H 0.54074 0.52923 0.82147 0.0
H298 H 0.55321 0.52063 0.78977 0.0
H299 H 0.52704 0.42677 0.804 0.0
H300 H 0.51496 0.43562 0.83563 0.0
H301 H 0.59167 0.50948 0.77296 0.0
H302 H 0.50268 0.42474 0.77258 0.0
H303 H 0.56689 0.44716 0.72658 0.0
H304 H 0.52358 0.41803 0.7104 0.0
H305 H 0.48527 0.37692 0.76381 0.0
H306 H 0.44655 0.32984 0.74826 0.0
H307 H 0.64161 0.51722 0.76322 0.0
H308 H 0.58988 0.49618 0.71132 0.0
H309 H 0.48765 0.36902 0.6954 0.0
H310 H 0.69063 0.55238 0.74699 0.0
H311 H 0.63939 0.53065 0.69518 0.0
C312 C 0.55452 0.05871 0.82125 0.0
C313 C 0.52371 0.04258 0.82849 0.0
C314 C 0.55996 0.07199 0.80364 0.0
C315 C 0.53456 0.06834 0.79227 0.0
C316 C 0.50364 0.05209 0.7997 0.0
C317 C 0.49842 0.04005 0.81769 0.0
C318 C 0.54046 0.08125 0.77288 0.0
C319 C 0.56753 0.08602 0.763 0.0
C320 C 0.57469 0.09971 0.74535 0.0
C321 C 0.55286 0.10662 0.73684 0.0
C322 C 0.52479 0.10082 0.74592 0.0
C323 C 0.51931 0.0889 0.76408 0.0
C324 C 0.50113 0.10715 0.73645 0.0
C325 C 0.48537 0.11999 0.74628 0.0
C326 C 0.49361 0.09982 0.71752 0.0
C327 C 0.47087 0.10497 0.70875 0.0
C328 C 0.45511 0.11755 0.7187 0.0
C329 C 0.60544 0.10739 0.7362 0.0
C330 C 0.63323 0.11746 0.74695 0.0
C331 C 0.60758 0.10504 0.71682 0.0
C332 C 0.63663 0.11258 0.70849 0.0
C333 C 0.66401 0.12226 0.71939 0.0
C334 C 0.66204 0.12459 0.73865 0.0
C335 C 0.46267 0.12514 0.7375 0.0
H336 H 0.57452 0.06124 0.82932 0.0
H337 H 0.58433 0.08522 0.7991 0.0
H338 H 0.48311 0.04796 0.79162 0.0
H339 H 0.47441 0.02783 0.82297 0.0
H340 H 0.58313 0.07865 0.76889 0.0
H341 H 0.49831 0.08548 0.77123 0.0
H342 H 0.55808 0.11735 0.72332 0.0
H343 H 0.49079 0.12637 0.76076 0.0
H344 H 0.50493 0.0896 0.70954 0.0
H345 H 0.46545 0.09905 0.69421 0.0
H346 H 0.63294 0.12036 0.76182 0.0
H347 H 0.58679 0.0971 0.70807 0.0
H348 H 0.45095 0.13507 0.74539 0.0
H349 H 0.683 0.13239 0.74727 0.0
H350 H 0.63776 0.11079 0.69357 0.0
C351 C 0.81199 0.59101 0.86115 0.0
C352 C 0.80782 0.61607 0.85636 0.0
C353 C 0.80697 0.57997 0.87939 0.0
C354 C 0.79707 0.59336 0.89319 0.0
C355 C 0.79221 0.61799 0.88824 0.0
C356 C 0.79772 0.62933 0.87008 0.0
C357 C 0.79201 0.58182 0.91269 0.0
C358 C 0.81434 0.57591 0.92151 0.0
C359 C 0.8101 0.56552 0.93999 0.0
C360 C 0.78274 0.56065 0.94953 0.0
C361 C 0.75992 0.56615 0.94099 0.0
C362 C 0.76497 0.57693 0.92259 0.0
C363 C 0.73068 0.56026 0.95123 0.0
C364 C 0.70096 0.54665 0.94218 0.0
C365 C 0.73216 0.56796 0.97018 0.0
C366 C 0.70473 0.56229 0.97978 0.0
C367 C 0.67525 0.54884 0.97063 0.0
C368 C 0.83403 0.55945 0.94931 0.0
C369 C 0.84819 0.54488 0.93964 0.0
C370 C 0.84264 0.56782 0.96803 0.0
C371 C 0.86461 0.56161 0.97685 0.0
C372 C 0.87834 0.54678 0.96716 0.0
C373 C 0.87002 0.53855 0.94849 0.0
C374 C 0.67357 0.54098 0.95179 0.0
H375 H 0.81964 0.58032 0.85081 0.0
H376 H 0.8106 0.56078 0.88268 0.0
H377 H 0.78481 0.62897 0.89853 0.0
H378 H 0.79437 0.64868 0.86674 0.0
H379 H 0.83553 0.58027 0.91411 0.0
H380 H 0.74775 0.58149 0.9159 0.0
H381 H 0.77873 0.55164 0.9635 0.0
H382 H 0.69874 0.53998 0.9277 0.0
H383 H 0.75461 0.57878 0.97758 0.0
H384 H 0.70651 0.56855 0.99431 0.0
H385 H 0.84193 0.53776 0.92532 0.0
H386 H 0.83255 0.5794 0.97586 0.0
H387 H 0.65101 0.53049 0.9445 0.0
H388 H 0.88028 0.52699 0.94079 0.0
H389 H 0.87073 0.56813 0.99126 0.0
C390 C 0.35614 0.16331 0.86879 0.0
C391 C 0.3692 0.18754 0.85595 0.0
C392 C 0.36799 0.16814 0.88691 0.0
C393 C 0.39281 0.19738 0.89246 0.0
C394 C 0.40608 0.22146 0.87947 0.0
C395 C 0.39449 0.21652 0.86131 0.0
C396 C 0.40495 0.20297 0.91176 0.0
C397 C 0.41222 0.18216 0.92041 0.0
C398 C 0.42492 0.18814 0.93839 0.0
C399 C 0.43117 0.21554 0.94755 0.0
C400 C 0.42376 0.23673 0.93924 0.0
C401 C 0.40995 0.22962 0.92138 0.0
C402 C 0.43121 0.26641 0.9489 0.0
C403 C 0.43444 0.26936 0.96838 0.0
C404 C 0.43587 0.29248 0.93873 0.0
C405 C 0.44298 0.32013 0.94769 0.0
C406 C 0.44732 0.32315 0.96698 0.0
C407 C 0.4328 0.16632 0.94745 0.0
C408 C 0.45287 0.15762 0.93863 0.0
C409 C 0.42096 0.15472 0.96515 0.0
C410 C 0.42925 0.13482 0.97397 0.0
C411 C 0.45009 0.12691 0.96536 0.0
C412 C 0.46171 0.13831 0.9476 0.0
C413 C 0.44324 0.29757 0.97721 0.0
H414 H 0.33658 0.14081 0.86483 0.0
H415 H 0.35732 0.14924 0.89667 0.0
H416 H 0.42552 0.24409 0.88334 0.0
H417 H 0.40487 0.2354 0.85152 0.0
H418 H 0.40828 0.16144 0.91311 0.0
H419 H 0.40263 0.24452 0.9148 0.0
H420 H 0.44283 0.22047 0.96094 0.0
H421 H 0.43016 0.25001 0.97702 0.0
H422 H 0.43473 0.29212 0.92376 0.0
H423 H 0.44605 0.33958 0.93948 0.0
H424 H 0.46238 0.16642 0.92502 0.0
H425 H 0.40529 0.16106 0.97213 0.0
H426 H 0.44642 0.29931 0.99213 0.0
H427 H 0.47788 0.13248 0.94076 0.0
H428 H 0.42003 0.12616 0.98764 0.0
C429 C 0.78244 0.16594 0.8648 0.0
C430 C 0.81325 0.1769 0.85808 0.0
C431 C 0.77766 0.17361 0.8827 0.0
C432 C 0.80361 0.19182 0.89457 0.0
C433 C 0.83453 0.20305 0.88764 0.0
C434 C 0.83927 0.19602 0.86952 0.0
C435 C 0.79829 0.19875 0.91404 0.0
C436 C 0.77124 0.17722 0.92388 0.0
C437 C 0.76509 0.18383 0.94185 0.0
C438 C 0.78686 0.21202 0.95032 0.0
C439 C 0.8143 0.23368 0.94098 0.0
C440 C 0.81978 0.22696 0.92285 0.0
C441 C 0.83649 0.26385 0.94999 0.0
C442 C 0.8246 0.28102 0.95899 0.0
C443 C 0.86952 0.27571 0.94971 0.0
C444 C 0.8902 0.30419 0.95825 0.0
C445 C 0.87818 0.32145 0.96696 0.0
C446 C 0.73532 0.1618 0.95152 0.0
C447 C 0.70619 0.14759 0.94187 0.0
C448 C 0.73557 0.15545 0.9705 0.0
C449 C 0.70729 0.13548 0.97964 0.0
C450 C 0.67835 0.12175 0.96994 0.0
C451 C 0.67798 0.1278 0.95102 0.0
C452 C 0.84523 0.30955 0.96731 0.0
H453 H 0.76201 0.15137 0.85616 0.0
H454 H 0.75349 0.16524 0.88715 0.0
H455 H 0.85518 0.21675 0.89629 0.0
H456 H 0.86327 0.2048 0.86457 0.0
H457 H 0.75495 0.15496 0.91769 0.0
H458 H 0.84027 0.24428 0.91543 0.0
H459 H 0.78223 0.21734 0.96415 0.0
H460 H 0.79932 0.27266 0.95928 0.0
H461 H 0.87931 0.26287 0.94298 0.0
H462 H 0.91557 0.31305 0.95778 0.0
H463 H 0.70511 0.15228 0.92731 0.0
H464 H 0.75765 0.16581 0.97826 0.0
H465 H 0.8355 0.32263 0.97381 0.0
H466 H 0.65577 0.11731 0.94336 0.0
H467 H 0.7079 0.13089 0.99425 0.0
C468 C 0.61636 0.83482 0.16024 0.0
C469 C 0.63662 0.82472 0.16713 0.0
C470 C 0.60367 0.82657 0.14237 0.0
C471 C 0.61155 0.80859 0.13076 0.0
C472 C 0.63169 0.79827 0.13785 0.0
C473 C 0.64373 0.8059 0.15594 0.0
C474 C 0.59911 0.801 0.11133 0.0
C475 C 0.59404 0.82211 0.10101 0.0
C476 C 0.58172 0.81501 0.08286 0.0
C477 C 0.5752 0.78669 0.07486 0.0
C478 C 0.58 0.76528 0.08483 0.0
C479 C 0.5919 0.77253 0.10304 0.0
C480 C 0.57203 0.73518 0.07615 0.0
C481 C 0.54322 0.71787 0.06643 0.0
C482 C 0.59336 0.7239 0.0771 0.0
C483 C 0.58618 0.69607 0.06825 0.0
C484 C 0.55746 0.67902 0.05852 0.0
C485 C 0.57477 0.83666 0.07238 0.0
C486 C 0.59475 0.86898 0.0739 0.0
C487 C 0.54761 0.82502 0.06094 0.0
C488 C 0.54061 0.8451 0.0513 0.0
C489 C 0.56032 0.8772 0.05313 0.0
C490 C 0.58745 0.88907 0.06443 0.0
C491 C 0.53595 0.68995 0.05775 0.0
H492 H 0.61037 0.84916 0.16874 0.0
H493 H 0.58756 0.83426 0.13774 0.0
H494 H 0.63875 0.78479 0.12935 0.0
H495 H 0.65927 0.79781 0.16105 0.0
H496 H 0.59942 0.84407 0.10715 0.0
H497 H 0.5946 0.75551 0.11088 0.0
H498 H 0.56673 0.78135 0.06066 0.0
H499 H 0.52621 0.72585 0.06564 0.0
H500 H 0.6158 0.73687 0.08439 0.0
H501 H 0.60295 0.68779 0.06901 0.0
H502 H 0.61608 0.8788 0.08234 0.0
H503 H 0.5313 0.80035 0.05971 0.0
H504 H 0.5136 0.67691 0.05038 0.0
H505 H 0.60285 0.91387 0.06598 0.0
H506 H 0.5194 0.83565 0.04275 0.0
C507 C 0.21645 0.84634 0.15138 0.0
C508 C 0.20539 0.82223 0.16428 0.0
C509 C 0.22262 0.84142 0.13313 0.0
C510 C 0.21756 0.81222 0.12748 0.0
C511 C 0.2074 0.78844 0.14063 0.0
C512 C 0.20149 0.79344 0.1589 0.0
C513 C 0.2213 0.8061 0.10774 0.0
C514 C 0.24769 0.82749 0.09754 0.0
C515 C 0.25085 0.82231 0.07862 0.0
C516 C 0.22691 0.79494 0.07012 0.0
C517 C 0.20077 0.77286 0.08029 0.0
C518 C 0.19809 0.77886 0.09903 0.0
C519 C 0.1765 0.74318 0.07154 0.0
C520 C 0.16515 0.7425 0.05347 0.0
C521 C 0.16472 0.71514 0.08123 0.0
C522 C 0.14236 0.68711 0.07302 0.0
C523 C 0.1313 0.68654 0.05498 0.0
C524 C 0.27944 0.84504 0.06796 0.0
C525 C 0.29527 0.8769 0.07245 0.0
C526 C 0.29167 0.83506 0.05344 0.0
C527 C 0.31883 0.85618 0.04383 0.0
C528 C 0.33512 0.88761 0.04891 0.0
C529 C 0.32299 0.89781 0.06322 0.0
C530 C 0.14273 0.71441 0.04527 0.0
H531 H 0.21951 0.86868 0.15533 0.0
H532 H 0.23023 0.86011 0.12328 0.0
H533 H 0.20369 0.76583 0.13674 0.0
H534 H 0.19302 0.77462 0.16872 0.0
H535 H 0.26614 0.84777 0.1046 0.0
H536 H 0.17744 0.76252 0.10678 0.0
H537 H 0.22864 0.79049 0.05559 0.0
H538 H 0.17345 0.76368 0.04571 0.0
H539 H 0.17326 0.71475 0.09506 0.0
H540 H 0.13397 0.66578 0.08066 0.0
H541 H 0.28639 0.88586 0.08314 0.0
H542 H 0.28086 0.81082 0.04971 0.0
H543 H 0.1345 0.71434 0.03128 0.0
H544 H 0.33512 0.92201 0.06731 0.0
H545 H 0.32782 0.84783 0.03282 0.0
C546 C 0.22264 0.39793 0.15685 0.0
C547 C 0.19271 0.3876 0.16479 0.0
C548 C 0.22933 0.4104 0.13895 0.0
C549 C 0.20574 0.4115 0.12793 0.0
C550 C 0.17557 0.40059 0.13612 0.0
C551 C 0.16958 0.38984 0.15436 0.0
C552 C 0.21248 0.42391 0.10826 0.0
C553 C 0.23934 0.4277 0.09843 0.0
C554 C 0.24617 0.44004 0.08039 0.0
C555 C 0.22498 0.44751 0.07167 0.0
C556 C 0.19747 0.44317 0.0807 0.0
C557 C 0.19194 0.43201 0.09902 0.0
C558 C 0.17423 0.44997 0.07102 0.0
C559 C 0.15713 0.46123 0.08099 0.0
C560 C 0.16814 0.44438 0.05182 0.0
C561 C 0.14548 0.44958 0.04298 0.0
C562 C 0.12782 0.45979 0.05319 0.0
C563 C 0.27568 0.44542 0.07071 0.0
C564 C 0.30474 0.45773 0.0804 0.0
C565 C 0.27519 0.43874 0.05165 0.0
C566 C 0.30297 0.4442 0.04257 0.0
C567 C 0.3318 0.45646 0.05233 0.0
C568 C 0.33249 0.46323 0.07129 0.0
C569 C 0.13402 0.46569 0.07224 0.0
H570 H 0.24103 0.39656 0.16459 0.0
H571 H 0.25325 0.41918 0.13405 0.0
H572 H 0.15584 0.39955 0.12864 0.0
H573 H 0.14625 0.38206 0.16012 0.0
H574 H 0.25498 0.42052 0.10443 0.0
H575 H 0.1712 0.42954 0.10589 0.0
H576 H 0.23039 0.45748 0.05794 0.0
H577 H 0.16154 0.46674 0.09561 0.0
H578 H 0.18037 0.43534 0.04363 0.0
H579 H 0.14121 0.445 0.02825 0.0
H580 H 0.30615 0.46356 0.09499 0.0
H581 H 0.25324 0.42895 0.04379 0.0
H582 H 0.12093 0.47386 0.08039 0.0
H583 H 0.35454 0.47277 0.07905 0.0
H584 H 0.30197 0.43878 0.02793 0.0
C585 C 0.50267 0.9601 0.20344 0.0
C586 C 0.47884 0.94847 0.18977 0.0
C587 C 0.49603 0.94822 0.22141 0.0
C588 C 0.46538 0.92444 0.22608 0.0
C589 C 0.44153 0.91287 0.21231 0.0
C590 C 0.44824 0.92473 0.1943 0.0
C591 C 0.45846 0.91159 0.24521 0.0
C592 C 0.48043 0.90602 0.2547 0.0
C593 C 0.47422 0.89374 0.2727 0.0
C594 C 0.4455 0.887 0.28122 0.0
C595 C 0.42306 0.89223 0.27197 0.0
C596 C 0.42985 0.90464 0.25399 0.0
C597 C 0.39232 0.88416 0.28097 0.0
C598 C 0.37535 0.85633 0.29083 0.0
C599 C 0.37959 0.90405 0.27975 0.0
C600 C 0.35076 0.89637 0.28833 0.0
C601 C 0.33405 0.8686 0.29815 0.0
C602 C 0.49751 0.88743 0.28242 0.0
C603 C 0.51272 0.87386 0.27281 0.0
C604 C 0.50463 0.89475 0.30136 0.0
C605 C 0.52641 0.8886 0.31044 0.0
C606 C 0.54128 0.87489 0.30076 0.0
C607 C 0.53432 0.86761 0.28191 0.0
C608 C 0.34651 0.84861 0.29929 0.0
H609 H 0.52641 0.97849 0.20018 0.0
H610 H 0.51484 0.95793 0.2317 0.0
H611 H 0.4178 0.89432 0.21536 0.0
H612 H 0.42958 0.91544 0.1839 0.0
H613 H 0.50243 0.91115 0.248 0.0
H614 H 0.41274 0.90874 0.24678 0.0
H615 H 0.44047 0.87742 0.29506 0.0
H616 H 0.38419 0.84027 0.29181 0.0
H617 H 0.39215 0.92577 0.2724 0.0
H618 H 0.3415 0.91209 0.28733 0.0
H619 H 0.50752 0.86757 0.2583 0.0
H620 H 0.49361 0.9055 0.30913 0.0
H621 H 0.33389 0.82703 0.30678 0.0
H622 H 0.54554 0.85692 0.27425 0.0
H623 H 0.53153 0.89435 0.32502 0.0
C624 C 0.03071 0.49731 0.2057 0.0
C625 C 0.04522 0.52129 0.19278 0.0
C626 C 0.04215 0.50167 0.22391 0.0
C627 C 0.06821 0.53017 0.22951 0.0
C628 C 0.08303 0.55392 0.21638 0.0
C629 C 0.07167 0.54949 0.19816 0.0
C630 C 0.07946 0.53549 0.24909 0.0
C631 C 0.08219 0.51261 0.25889 0.0
C632 C 0.09287 0.51766 0.27741 0.0
C633 C 0.10064 0.54593 0.28612 0.0
C634 C 0.0981 0.56908 0.27653 0.0
C635 C 0.08743 0.5636 0.25804 0.0
C636 C 0.10674 0.59908 0.28574 0.0
C637 C 0.09704 0.59985 0.30401 0.0
C638 C 0.12445 0.62718 0.27623 0.0
C639 C 0.13204 0.65535 0.28473 0.0
C640 C 0.12194 0.65592 0.30284 0.0
C641 C 0.09712 0.49399 0.28749 0.0
C642 C 0.11117 0.47861 0.27865 0.0
C643 C 0.08839 0.48752 0.30624 0.0
C644 C 0.09434 0.46677 0.31604 0.0
C645 C 0.10911 0.45218 0.30725 0.0
C646 C 0.11717 0.45795 0.28847 0.0
C647 C 0.10449 0.62804 0.31246 0.0
H648 H 0.01021 0.47542 0.20174 0.0
H649 H 0.03007 0.48303 0.23372 0.0
H650 H 0.10341 0.57597 0.22019 0.0
H651 H 0.08317 0.56819 0.18832 0.0
H652 H 0.0762 0.49093 0.25206 0.0
H653 H 0.08463 0.58103 0.25072 0.0
H654 H 0.10972 0.55037 0.30021 0.0
H655 H 0.08312 0.5786 0.31162 0.0
H656 H 0.13258 0.6274 0.26224 0.0
H657 H 0.14548 0.6767 0.27712 0.0
H658 H 0.11849 0.4833 0.26431 0.0
H659 H 0.07716 0.49868 0.31336 0.0
H660 H 0.09639 0.62812 0.32643 0.0
H661 H 0.12873 0.44694 0.28153 0.0
H662 H 0.088 0.46255 0.33054 0.0
C663 C 0.446 0.50884 0.19799 0.0
C664 C 0.47647 0.51481 0.19318 0.0
C665 C 0.43957 0.5137 0.21622 0.0
C666 C 0.46358 0.52471 0.22988 0.0
C667 C 0.49398 0.53031 0.22494 0.0
C668 C 0.50036 0.52546 0.20676 0.0
C669 C 0.45738 0.5311 0.24913 0.0
C670 C 0.42874 0.51088 0.25809 0.0
C671 C 0.42295 0.51695 0.27634 0.0
C672 C 0.44632 0.54372 0.28549 0.0
C673 C 0.47469 0.56446 0.27663 0.0
C674 C 0.48013 0.55789 0.25853 0.0
C675 C 0.49787 0.59381 0.28597 0.0
C676 C 0.48721 0.61199 0.29495 0.0
C677 C 0.53066 0.60437 0.28551 0.0
C678 C 0.55235 0.63278 0.29371 0.0
C679 C 0.54154 0.65118 0.30223 0.0
C680 C 0.39265 0.49561 0.28593 0.0
C681 C 0.37765 0.46335 0.28309 0.0
C682 C 0.37869 0.50734 0.29828 0.0
C683 C 0.35087 0.48737 0.30774 0.0
C684 C 0.33593 0.45534 0.30465 0.0
C685 C 0.34949 0.44346 0.2923 0.0
C686 C 0.50883 0.64043 0.30293 0.0
H687 H 0.42734 0.50066 0.18761 0.0
H688 H 0.41602 0.50948 0.21951 0.0
H689 H 0.51287 0.53836 0.23516 0.0
H690 H 0.52398 0.53009 0.20325 0.0
H691 H 0.41097 0.49045 0.2508 0.0
H692 H 0.5017 0.57428 0.2515 0.0
H693 H 0.4427 0.5484 0.29969 0.0
H694 H 0.46215 0.60466 0.29533 0.0
H695 H 0.53949 0.5907 0.27878 0.0
H696 H 0.57753 0.64079 0.29301 0.0
H697 H 0.38786 0.45333 0.27399 0.0
H698 H 0.38907 0.53202 0.30058 0.0
H699 H 0.50009 0.65443 0.30934 0.0
H700 H 0.33835 0.41871 0.28988 0.0
H701 H 0.34069 0.49689 0.31726 0.0
Eu702 Eu 0.49331 0.9838 0.98649 0.0
C703 C 0.55821 0.09467 0.04429 0.0
C704 C 0.61429 0.1141 0.03969 0.0
C705 C 0.59634 0.14842 0.05163 0.0
C706 C 0.58248 0.08984 0.03868 0.0
C707 C 0.56489 0.12373 0.05141 0.0
C708 C 0.62101 0.14365 0.04567 0.0
C709 C 0.50923 0.10111 0.05878 0.0
N710 N 0.52812 0.07038 0.04375 0.0
C711 C 0.50377 0.07289 0.05131 0.0
C712 C 0.53987 0.12679 0.0586 0.0
Eu713 Eu 0.5206 0.02252 0.03253 0.0
N714 N 0.57513 0.06085 0.03346 0.0
C715 C 0.59866 0.05392 0.03061 0.0
C716 C 0.63841 0.10761 0.03536 0.0
C717 C 0.63057 0.07724 0.03111 0.0
H718 H 0.48006 0.05314 0.05153 0.0
H719 H 0.64905 0.07176 0.02821 0.0
H720 H 0.64526 0.16266 0.04636 0.0
H721 H 0.48979 0.1031 0.06457 0.0
H722 H 0.59301 0.03057 0.02738 0.0
H723 H 0.37381 0.9689 0.97571 0.0
H724 H 0.66314 0.12562 0.03585 0.0
H725 H 0.51189 0.92816 0.97475 0.0
H726 H 0.43155 0.99721 0.97497 0.0
H727 H 0.48627 0.87127 0.97488 0.0
H728 H 0.60192 0.17105 0.05681 0.0
H729 H 0.34473 0.91295 0.98254 0.0
H730 H 0.34629 0.86416 0.98769 0.0
H731 H 0.54402 0.14867 0.06431 0.0
H732 H 0.37708 0.83729 0.98744 0.0
N733 N 0.43673 0.95865 0.98309 0.0
C734 C 0.41996 0.97317 0.97868 0.0
C735 C 0.37046 0.92541 0.98249 0.0
C736 C 0.3875 0.90997 0.9851 0.0
C737 C 0.38677 0.95696 0.97867 0.0
C738 C 0.42104 0.92729 0.98488 0.0
H739 H 0.4291 0.83961 0.98202 0.0
N740 N 0.47034 0.92905 0.98302 0.0
C741 C 0.47255 0.88239 0.97802 0.0
C742 C 0.43836 0.91208 0.98484 0.0
C743 C 0.487 0.91466 0.97799 0.0
C744 C 0.44033 0.86464 0.98208 0.0
C745 C 0.42258 0.87936 0.98493 0.0
O746 O 0.52401 0.98359 0.96463 0.0
O747 O 0.5356 0.01695 1.00412 0.0
O748 O 0.51065 0.05434 0.01435 0.0
O749 O 0.47816 0.01984 0.99145 0.0
O750 O 0.53303 0.03069 0.97764 0.0
O751 O 0.48242 0.98733 0.95737 0.0
O752 O 0.49452 0.00449 0.05849 0.0
O753 O 0.48228 0.98272 0.01642 0.0
O754 O 0.51162 0.95722 1.00348 0.0
O755 O 0.53871 0.98887 0.02883 0.0
O756 O 0.46777 0.00391 0.03553 0.0
O757 O 0.5422 0.01267 0.05621 0.0
C758 C 0.54989 0.03854 0.99245 0.0
C759 C 0.50724 0.97441 0.93283 0.0
C760 C 0.5111 0.98181 0.89919 0.0
C761 C 0.5064 0.99053 0.91701 0.0
C762 C 0.5155 0.95609 0.8974 0.0
C763 C 0.51125 0.94859 0.93061 0.0
C764 C 0.5151 0.9394 0.91296 0.0
C765 C 0.49242 0.04777 0.99929 0.0
C766 C 0.50771 0.9872 0.95139 0.0
C767 C 0.38948 0.86236 0.9869 0.0
C768 C 0.37196 0.87766 0.98702 0.0
C769 C 0.45807 0.98163 0.02363 0.0
C770 C 0.5251 0.01787 0.08593 0.0
C771 C 0.51161 0.9984 0.10129 0.0
C772 C 0.5187 0.01081 0.11938 0.0
C773 C 0.53894 0.04278 0.12194 0.0
C774 C 0.54538 0.04975 0.08876 0.0
C775 C 0.55214 0.06211 0.10669 0.0
C776 C 0.52904 0.96349 0.01874 0.0
C777 C 0.51808 0.00465 0.0671 0.0
H778 H 0.50336 0.01056 0.91861 0.0
H779 H 0.51921 0.9489 0.88388 0.0
H780 H 0.51222 0.93597 0.94247 0.0
H781 H 0.51844 0.9196 0.91138 0.0
H782 H 0.49589 0.97374 0.09923 0.0
H783 H 0.54453 0.05272 0.13577 0.0
H784 H 0.55617 0.06503 0.07715 0.0
H785 H 0.56778 0.08673 0.10877 0.0
Eu786 Eu 0.0254 0.51172 0.99029 0.0
C787 C 0.90691 0.45723 0.04319 0.0
C788 C 0.88442 0.49003 0.03711 0.0
C789 C 0.85071 0.43778 0.04846 0.0
C790 C 0.9105 0.48498 0.03723 0.0
C791 C 0.87721 0.43364 0.04951 0.0
C792 C 0.85429 0.46592 0.04218 0.0
C793 C 0.90281 0.405 0.05905 0.0
N794 N 0.93305 0.45414 0.04408 0.0
C795 C 0.93165 0.42891 0.0524 0.0
C796 C 0.87534 0.40713 0.05733 0.0
Eu797 Eu 0.98173 0.49637 0.03405 0.0
N798 N 0.94004 0.50789 0.03291 0.0
C799 C 0.94568 0.5372 0.03003 0.0
C800 C 0.88971 0.51955 0.03269 0.0
C801 C 0.92064 0.54341 0.02945 0.0
H802 H 0.95272 0.4271 0.05399 0.0
H803 H 0.92522 0.56657 0.02652 0.0
H804 H 0.83389 0.46922 0.04197 0.0
H805 H 0.90177 0.38489 0.06541 0.0
H806 H 0.9694 0.55559 0.02767 0.0
H807 H 0.03089 0.40684 0.97079 0.0
H808 H 0.87032 0.52438 0.03235 0.0
H809 H 0.09076 0.58362 0.98493 0.0
H810 H 0.00829 0.44089 0.97067 0.0
H811 H 0.14829 0.609 0.99039 0.0
H812 H 0.82759 0.41976 0.05299 0.0
H813 H 0.08438 0.42511 0.98396 0.0
H814 H 0.13487 0.46924 0.99663 0.0
H815 H 0.85301 0.38855 0.06245 0.0
H816 H 0.16734 0.52525 1.0024 0.0
N817 N 0.0466 0.47761 0.98586 0.0
C818 C 0.03089 0.44909 0.97738 0.0
C819 C 0.07421 0.44012 0.98434 0.0
C820 C 0.0918 0.47058 0.99087 0.0
C821 C 0.04403 0.42973 0.97695 0.0
C822 C 0.07742 0.48922 0.99105 0.0
H823 H 0.17294 0.57785 0.99924 0.0
N824 N 0.08208 0.53836 0.99186 0.0
C825 C 0.13375 0.58415 0.99185 0.0
C826 C 0.09569 0.52065 0.99434 0.0
C827 C 0.10098 0.56953 0.98882 0.0
C828 C 0.14752 0.56653 0.99695 0.0
C829 C 0.12871 0.53426 0.99745 0.0
O830 O 0.03522 0.5503 0.97221 0.0
O831 O 0.98853 0.51793 1.00601 0.0
O832 O 0.95185 0.45408 0.01518 0.0
O833 O 0.98632 0.4609 0.99089 0.0
O834 O 0.97788 0.50202 0.97906 0.0
O835 O 0.02778 0.50652 0.96017 0.0
O836 O 0.99978 0.48975 0.0605 0.0
O837 O 0.02536 0.50111 0.02021 0.0
O838 O 0.0495 0.55566 1.00794 0.0
O839 O 0.01664 0.54848 0.03305 0.0
O840 O 0.99941 0.46241 0.03639 0.0
O841 O 0.98662 0.52488 0.05833 0.0
C842 C 0.96749 0.50962 0.99329 0.0
C843 C 0.03782 0.54815 0.93872 0.0
C844 C 0.02695 0.54229 0.90552 0.0
C845 C 0.02547 0.52908 0.92292 0.0
C846 C 0.04179 0.57464 0.90396 0.0
C847 C 0.05258 0.58045 0.93688 0.0
C848 C 0.05471 0.59358 0.91955 0.0
C849 C 0.95873 0.44455 0.99942 0.0
C850 C 0.03312 0.53457 0.95727 0.0
C851 C 0.14223 0.51529 0.99947 0.0
C852 C 0.12376 0.48342 0.99615 0.0
C853 C 0.02456 0.47701 0.02654 0.0
C854 C 0.98059 0.50131 0.08745 0.0
C855 C 0.99914 0.50792 0.1036 0.0
C856 C 0.98444 0.4988 0.12098 0.0
C857 C 0.95119 0.48281 0.12208 0.0
C858 C 0.94739 0.4858 0.08882 0.0
C859 C 0.93279 0.47638 0.10604 0.0
C860 C 0.04249 0.56566 0.02322 0.0
C861 C 0.99613 0.51051 0.06932 0.0
H862 H 0.01378 0.50409 0.92417 0.0
H863 H 0.04327 0.5852 0.89063 0.0
H864 H 0.0622 0.59557 0.94888 0.0
H865 H 0.06606 0.61848 0.91824 0.0
H866 H 0.02483 0.52026 0.10271 0.0
H867 H 0.93955 0.4757 0.13539 0.0
H868 H 0.93274 0.48119 0.07666 0.0
H869 H 0.90716 0.46432 0.10697 0.0
Eu870 Eu 0.5154 0.49284 0.03464 0.0
C871 C 0.45406 0.54805 0.98396 0.0
C872 C 0.39803 0.51149 0.98705 0.0
C873 C 0.41601 0.56613 0.98278 0.0
C874 C 0.42987 0.51825 0.98689 0.0
C875 C 0.44739 0.57218 0.98111 0.0
C876 C 0.39133 0.53577 0.98576 0.0
C877 C 0.50214 0.60488 0.97221 0.0
N878 N 0.48382 0.55274 0.98198 0.0
C879 C 0.50732 0.57998 0.97495 0.0
C880 C 0.47218 0.60118 0.97573 0.0
Eu881 Eu 0.4921 0.51101 0.98946 0.0
N882 N 0.43731 0.49547 0.98773 0.0
C883 C 0.41391 0.46517 0.98643 0.0
C884 C 0.37394 0.48045 0.98754 0.0
C885 C 0.38192 0.45717 0.98668 0.0
H886 H 0.53032 0.58266 0.97197 0.0
H887 H 0.36349 0.43306 0.98632 0.0
H888 H 0.36706 0.53112 0.98621 0.0
H889 H 0.52117 0.62681 0.96731 0.0
H890 H 0.41967 0.44695 0.98557 0.0
H891 H 0.64413 0.57022 0.03734 0.0
H892 H 0.34916 0.47422 0.98774 0.0
H893 H 0.47641 0.42109 0.05195 0.0
H894 H 0.58808 0.55672 0.03782 0.0
H895 H 0.48526 0.37687 0.0571 0.0
H896 H 0.41043 0.58445 0.98095 0.0
H897 H 0.6581 0.52878 0.03677 0.0
H898 H 0.63987 0.4719 0.039 0.0
H899 H 0.46809 0.62037 0.97341 0.0
H900 H 0.59625 0.41878 0.04445 0.0
N901 N 0.57011 0.50808 0.03639 0.0
C902 C 0.59366 0.53836 0.03737 0.0
C903 C 0.63337 0.52271 0.03686 0.0
C904 C 0.60913 0.49176 0.03763 0.0
C905 C 0.62559 0.54615 0.03724 0.0
C906 C 0.57735 0.48518 0.03764 0.0
H907 H 0.53843 0.38312 0.05166 0.0
N908 N 0.52324 0.45093 0.04236 0.0
C909 C 0.50447 0.39876 0.05227 0.0
C910 C 0.553 0.45549 0.04069 0.0
C911 C 0.49946 0.42371 0.04925 0.0
C912 C 0.53449 0.40236 0.04914 0.0
C913 C 0.55947 0.43128 0.04381 0.0
O914 O 0.49043 0.48005 0.0611 0.0
O915 O 0.47867 0.49888 0.01917 0.0
O916 O 0.50719 0.55329 1.00775 0.0
O917 O 0.53439 0.54478 0.03179 0.0
O918 O 0.46214 0.46314 0.03795 0.0
O919 O 0.53451 0.52336 0.05878 0.0
O920 O 0.51734 0.52397 0.9631 0.0
O921 O 0.52889 0.50509 1.0049 0.0
O922 O 0.50035 0.45058 0.01652 0.0
O923 O 0.47334 0.459 0.99232 0.0
O924 O 0.54524 0.54112 0.98631 0.0
O925 O 0.47326 0.48071 0.96513 0.0
C926 C 0.45356 0.47738 0.02649 0.0
C927 C 0.52214 0.49898 0.08785 0.0
C928 C 0.51822 0.49828 0.12145 0.0
C929 C 0.50886 0.50337 0.10402 0.0
C930 C 0.54072 0.48853 0.12259 0.0
C931 C 0.54461 0.48922 0.08913 0.0
C932 C 0.55382 0.48401 0.10647 0.0
C933 C 0.52518 0.56217 0.02288 0.0
C934 C 0.5121 0.50442 0.06981 0.0
C935 C 0.59082 0.43716 0.04239 0.0
C936 C 0.61565 0.4674 0.03929 0.0
C937 C 0.55395 0.52687 0.99768 0.0
C938 C 0.48599 0.50572 0.93621 0.0
C939 C 0.49685 0.49877 0.91986 0.0
C940 C 0.48859 0.50549 0.90252 0.0
C941 C 0.46925 0.51899 0.90169 0.0
C942 C 0.46657 0.51907 0.93518 0.0
C943 C 0.45826 0.52567 0.91796 0.0
C944 C 0.48223 0.44157 1.00149 0.0
C945 C 0.49581 0.49975 0.95421 0.0
H946 H 0.49136 0.51077 0.10308 0.0
H947 H 0.54808 0.48441 0.13596 0.0
H948 H 0.55499 0.48568 0.07677 0.0
H949 H 0.57114 0.47647 0.10743 0.0
H950 H 0.5118 0.48836 0.92058 0.0
H951 H 0.46258 0.52422 0.88842 0.0
H952 H 0.4579 0.52443 0.94765 0.0
H953 H 0.44331 0.53601 0.91722 0.0
Eu954 Eu 0.15782 0.31295 0.32358 0.0
C955 C 0.25628 0.38812 0.38082 0.0
C956 C 0.27175 0.3575 0.39945 0.0
C957 C 0.31116 0.41001 0.39095 0.0
C958 C 0.24859 0.3606 0.38941 0.0
C959 C 0.28754 0.41345 0.38185 0.0
C960 C 0.30327 0.38208 0.39976 0.0
C961 C 0.26899 0.44443 0.36651 0.0
N962 N 0.23287 0.39063 0.37221 0.0
C963 C 0.23835 0.41871 0.36613 0.0
C964 C 0.29388 0.44163 0.37408 0.0
Eu965 Eu 0.18198 0.34568 0.37063 0.0
N966 N 0.21799 0.33729 0.3887 0.0
C967 C 0.20812 0.31187 0.39976 0.0
C968 C 0.26231 0.33019 0.40935 0.0
C969 C 0.23022 0.30752 0.40979 0.0
H970 H 0.21899 0.42154 0.36157 0.0
H971 H 0.22249 0.28676 0.41789 0.0
H972 H 0.32151 0.38003 0.4072 0.0
H973 H 0.27326 0.46648 0.36125 0.0
H974 H 0.18331 0.29436 0.40019 0.0
H975 H 0.02874 0.25755 0.32492 0.0
H976 H 0.27939 0.32687 0.4172 0.0
H977 H 0.20343 0.28494 0.30735 0.0
H978 H 0.08391 0.30053 0.32751 0.0
H979 H 0.1977 0.23517 0.29684 0.0
H980 H 0.33539 0.42906 0.39167 0.0
H981 H 0.01811 0.2051 0.31617 0.0
H982 H 0.03954 0.17043 0.30674 0.0
H983 H 0.31759 0.46161 0.37449 0.0
H984 H 0.0855 0.16421 0.29947 0.0
N985 N 0.10437 0.27273 0.32114 0.0
C986 C 0.07959 0.27782 0.32386 0.0
C987 C 0.04239 0.22395 0.31736 0.0
C988 C 0.06791 0.2192 0.31371 0.0
C989 C 0.04828 0.25348 0.32231 0.0
C990 C 0.09906 0.24447 0.31563 0.0
H991 H 0.14453 0.18817 0.29576 0.0
N992 N 0.15442 0.26586 0.31356 0.0
C993 C 0.17705 0.23633 0.30125 0.0
C994 C 0.12488 0.24084 0.31185 0.0
C995 C 0.18027 0.26443 0.30737 0.0
C996 C 0.147 0.20988 0.30063 0.0
C997 C 0.12036 0.21204 0.30562 0.0
O998 O 0.18449 0.33368 0.29827 0.0
O999 O 0.19393 0.35376 0.34051 0.0
O1000 O 0.16611 0.37569 0.35475 0.0
O1001 O 0.13835 0.34547 0.32895 0.0
O1002 O 0.2108 0.33456 0.3213 0.0
O1003 O 0.13487 0.31873 0.29873 0.0
O1004 O 0.17993 0.37948 0.38931 0.0
O1005 O 0.14043 0.31472 0.35203 0.0
O1006 O 0.17009 0.2817 0.34067 0.0
O1007 O 0.20371 0.31578 0.3635 0.0
O1008 O 0.14358 0.29755 0.37743 0.0
O1009 O 0.15355 0.33112 0.396 0.0
C1010 C 0.21902 0.35649 0.3333 0.0
C1011 C 0.15777 0.31784 0.26976 0.0
C1012 C 0.16577 0.3261 0.2363 0.0
C1013 C 0.1641 0.337 0.25416 0.0
C1014 C 0.16098 0.29594 0.23438 0.0
C1015 C 0.15175 0.28746 0.26724 0.0
C1016 C 0.15354 0.27668 0.24969 0.0
C1017 C 0.14765 0.37003 0.33988 0.0
C1018 C 0.16039 0.33039 0.28868 0.0
C1019 C 0.08945 0.1866 0.30409 0.0
C1020 C 0.06327 0.19016 0.30817 0.0
C1021 C 0.12666 0.2915 0.36266 0.0
C1022 C 0.17903 0.36539 0.42107 0.0
C1023 C 0.16306 0.34511 0.43596 0.0
C1024 C 0.17764 0.35047 0.45362 0.0
C1025 C 0.20811 0.37604 0.45624 0.0
C1026 C 0.20969 0.3907 0.42416 0.0
C1027 C 0.22399 0.39593 0.44161 0.0
C1028 C 0.19167 0.28956 0.35398 0.0
C1029 C 0.16463 0.35916 0.40219 0.0
H1030 H 0.16824 0.36035 0.25592 0.0
H1031 H 0.16237 0.28708 0.22087 0.0
H1032 H 0.14612 0.27216 0.27883 0.0
H1033 H 0.14933 0.25332 0.24797 0.0
H1034 H 0.1396 0.32524 0.43383 0.0
H1035 H 0.21968 0.38054 0.46967 0.0
H1036 H 0.22287 0.40642 0.41307 0.0
H1037 H 0.2476 0.41548 0.44378 0.0
Eu1038 Eu 0.68974 0.84243 0.32225 0.0
C1039 C 0.57268 0.78944 0.37622 0.0
C1040 C 0.55082 0.82283 0.37026 0.0
C1041 C 0.51674 0.77079 0.38182 0.0
C1042 C 0.57664 0.81739 0.37027 0.0
C1043 C 0.543 0.76626 0.3828 0.0
C1044 C 0.52062 0.799 0.37545 0.0
C1045 C 0.56828 0.7374 0.39258 0.0
N1046 N 0.59855 0.7859 0.37701 0.0
C1047 C 0.59709 0.76085 0.38558 0.0
C1048 C 0.54096 0.73984 0.39088 0.0
Eu1049 Eu 0.64726 0.82746 0.36686 0.0
N1050 N 0.60632 0.84012 0.36597 0.0
C1051 C 0.61233 0.86967 0.36319 0.0
C1052 C 0.55645 0.85248 0.3659 0.0
C1053 C 0.58747 0.87615 0.36269 0.0
H1054 H 0.61814 0.7589 0.38696 0.0
H1055 H 0.59227 0.89939 0.35981 0.0
H1056 H 0.50041 0.8026 0.37532 0.0
H1057 H 0.56712 0.71738 0.39914 0.0
H1058 H 0.63616 0.88822 0.36074 0.0
H1059 H 0.68979 0.73486 0.30213 0.0
H1060 H 0.53725 0.85758 0.36562 0.0
H1061 H 0.75568 0.91424 0.31892 0.0
H1062 H 0.66895 0.77021 0.30259 0.0
H1063 H 0.81325 0.93826 0.32336 0.0
H1064 H 0.49361 0.75306 0.38653 0.0
H1065 H 0.74452 0.75255 0.31287 0.0
H1066 H 0.79714 0.79656 0.32284 0.0
H1067 H 0.51865 0.72159 0.39624 0.0
H1068 H 0.83125 0.85249 0.3282 0.0
N1069 N 0.70926 0.80714 0.31641 0.0
C1070 C 0.69204 0.77822 0.30854 0.0
C1071 C 0.73506 0.76814 0.31368 0.0
C1072 C 0.75413 0.79895 0.31925 0.0
C1073 C 0.70417 0.75806 0.30769 0.0
C1074 C 0.74057 0.8183 0.32015 0.0
H1075 H 0.83762 0.90553 0.32809 0.0
N1076 N 0.74647 0.86796 0.32289 0.0
C1077 C 0.79849 0.9133 0.32373 0.0
C1078 C 0.75975 0.84967 0.3234 0.0
C1079 C 0.76565 0.89944 0.3214 0.0
C1080 C 0.81212 0.89478 0.32637 0.0
C1081 C 0.79291 0.86257 0.32556 0.0
O1082 O 0.69886 0.88222 0.30539 0.0
O1083 O 0.65299 0.84778 0.33856 0.0
O1084 O 0.61733 0.78442 0.34871 0.0
O1085 O 0.65003 0.79186 0.32326 0.0
O1086 O 0.6419 0.83265 0.31149 0.0
O1087 O 0.69182 0.83945 0.292 0.0
O1088 O 0.6656 0.82119 0.39331 0.0
O1089 O 0.69036 0.83279 0.35211 0.0
O1090 O 0.71478 0.88521 0.34095 0.0
O1091 O 0.68018 0.87927 0.36479 0.0
O1092 O 0.66815 0.79601 0.37007 0.0
O1093 O 0.65311 0.85678 0.39086 0.0
C1094 C 0.63161 0.83956 0.32607 0.0
C1095 C 0.70095 0.88213 0.27174 0.0
C1096 C 0.68978 0.87798 0.23856 0.0
C1097 C 0.6886 0.8639 0.25561 0.0
C1098 C 0.7043 0.91038 0.23768 0.0
C1099 C 0.71537 0.91449 0.27057 0.0
C1100 C 0.7172 0.92849 0.25359 0.0
C1101 C 0.62336 0.77509 0.33261 0.0
C1102 C 0.69679 0.86755 0.28997 0.0
C1103 C 0.80598 0.84306 0.32609 0.0
C1104 C 0.78657 0.81124 0.32305 0.0
C1105 C 0.69192 0.81036 0.3591 0.0
C1106 C 0.64615 0.8332 0.42002 0.0
C1107 C 0.66425 0.83867 0.43624 0.0
C1108 C 0.64916 0.82997 0.45353 0.0
C1109 C 0.61595 0.81554 0.45446 0.0
C1110 C 0.61301 0.8193 0.42122 0.0
C1111 C 0.598 0.81027 0.43835 0.0
C1112 C 0.70673 0.89576 0.35557 0.0
C1113 C 0.66207 0.84214 0.402 0.0
H1114 H 0.67719 0.83887 0.25634 0.0
H1115 H 0.70555 0.92162 0.22464 0.0
H1116 H 0.72499 0.92897 0.28282 0.0
H1117 H 0.72831 0.95345 0.25279 0.0
H1118 H 0.68991 0.84987 0.43548 0.0
H1119 H 0.60404 0.80879 0.46771 0.0
H1120 H 0.59875 0.8157 0.409 0.0
H1121 H 0.57242 0.79945 0.43915 0.0
Eu1122 Eu 0.17794 0.82654 0.36871 0.0
C1123 C 0.13438 0.88829 0.31085 0.0
C1124 C 0.07704 0.85743 0.31196 0.0
C1125 C 0.10216 0.91091 0.30181 0.0
C1126 C 0.10728 0.86061 0.31467 0.0
C1127 C 0.13212 0.91342 0.30371 0.0
C1128 C 0.07466 0.88301 0.30606 0.0
C1129 C 0.18907 0.9408 0.29966 0.0
N1130 N 0.16296 0.88999 0.31295 0.0
C1131 C 0.19011 0.91539 0.307 0.0
C1132 C 0.15997 0.93994 0.29816 0.0
Eu1133 Eu 0.16271 0.84459 0.32264 0.0
N1134 N 0.11046 0.83609 0.31963 0.0
C1135 C 0.08446 0.80722 0.3206 0.0
C1136 C 0.05015 0.82828 0.31447 0.0
C1137 C 0.05391 0.80293 0.31852 0.0
H1138 H 0.2126 0.91602 0.30798 0.0
H1139 H 0.03335 0.78009 0.31996 0.0
H1140 H 0.05165 0.8811 0.30407 0.0
H1141 H 0.21068 0.96102 0.2952 0.0
H1142 H 0.08728 0.78763 0.32348 0.0
H1143 H 0.29548 0.93469 0.37172 0.0
H1144 H 0.02649 0.8249 0.31266 0.0
H1145 H 0.16729 0.75472 0.3755 0.0
H1146 H 0.24363 0.89998 0.35808 0.0
H1147 H 0.19113 0.73056 0.3941 0.0
H1148 H 0.09995 0.93011 0.29662 0.0
H1149 H 0.31691 0.91645 0.39662 0.0
H1150 H 0.31228 0.87211 0.4151 0.0
H1151 H 0.15923 0.95967 0.29251 0.0
H1152 H 0.2845 0.81602 0.42057 0.0
N1153 N 0.23291 0.86208 0.3763 0.0
C1154 C 0.25151 0.89139 0.3694 0.0
C1155 C 0.29344 0.90103 0.39102 0.0
C1156 C 0.27604 0.87022 0.39668 0.0
C1157 C 0.28148 0.91137 0.37693 0.0
C1158 C 0.24559 0.851 0.3889 0.0
H1159 H 0.24025 0.76306 0.41208 0.0
N1160 N 0.20342 0.80109 0.38186 0.0
C1161 C 0.20256 0.75556 0.39344 0.0
C1162 C 0.23033 0.81931 0.39169 0.0
C1163 C 0.18945 0.76952 0.38258 0.0
C1164 C 0.23007 0.77397 0.40373 0.0
C1165 C 0.24457 0.80623 0.40274 0.0
O1166 O 0.14097 0.78723 0.38391 0.0
O1167 O 0.13934 0.82149 0.34905 0.0
O1168 O 0.17465 0.88714 0.34134 0.0
O1169 O 0.1915 0.87684 0.36934 0.0
O1170 O 0.14129 0.84025 0.37489 0.0
O1171 O 0.17132 0.83085 0.39818 0.0
O1172 O 0.18887 0.85534 0.29657 0.0
O1173 O 0.19459 0.83245 0.33915 0.0
O1174 O 0.16515 0.78443 0.35025 0.0
O1175 O 0.14184 0.79198 0.32397 0.0
O1176 O 0.21652 0.87107 0.32326 0.0
O1177 O 0.14122 0.81671 0.29759 0.0
C1178 C 0.12515 0.83083 0.35984 0.0
C1179 C 0.14512 0.7862 0.41709 0.0
C1180 C 0.14074 0.78582 0.45084 0.0
C1181 C 0.14842 0.80188 0.43398 0.0
C1182 C 0.13116 0.75415 0.45075 0.0
C1183 C 0.13537 0.75451 0.4173 0.0
C1184 C 0.12891 0.73875 0.43409 0.0
C1185 C 0.18593 0.89505 0.35861 0.0
C1186 C 0.14788 0.80249 0.3996 0.0
C1187 C 0.27344 0.82564 0.41183 0.0
C1188 C 0.28918 0.85759 0.40878 0.0
C1189 C 0.2216 0.85247 0.33314 0.0
C1190 C 0.15916 0.84225 0.26888 0.0
C1191 C 0.17155 0.83596 0.25295 0.0
C1192 C 0.16636 0.84492 0.23544 0.0
C1193 C 0.14906 0.86047 0.23401 0.0
C1194 C 0.14127 0.85713 0.26715 0.0
C1195 C 0.13653 0.86647 0.24982 0.0
C1196 C 0.14912 0.77449 0.33441 0.0
C1197 C 0.16552 0.83356 0.28714 0.0
H1198 H 0.15545 0.82625 0.43397 0.0
H1199 H 0.12516 0.74129 0.46358 0.0
H1200 H 0.13198 0.7417 0.40453 0.0
H1201 H 0.12133 0.7143 0.43416 0.0
H1202 H 0.18498 0.82401 0.25411 0.0
H1203 H 0.14484 0.86747 0.22059 0.0
H1204 H 0.13076 0.86132 0.2791 0.0
H1205 H 0.12286 0.87812 0.24863 0.0
Eu1206 Eu 0.82772 0.6452 0.65435 0.0
C1207 C 0.92223 0.7262 0.71291 0.0
C1208 C 0.94516 0.6999 0.72945 0.0
C1209 C 0.97752 0.7548 0.72283 0.0
C1210 C 0.91932 0.6994 0.72021 0.0
C1211 C 0.95117 0.75444 0.71455 0.0
C1212 C 0.97452 0.72756 0.73028 0.0
C1213 C 0.92478 0.78035 0.7019 0.0
N1214 N 0.8963 0.72497 0.70502 0.0
C1215 C 0.89663 0.75184 0.7009 0.0
C1216 C 0.95245 0.78157 0.70833 0.0
Eu1217 Eu 0.85004 0.67536 0.70177 0.0
N1218 N 0.89082 0.67304 0.71885 0.0
C1219 C 0.8853 0.64741 0.72872 0.0
C1220 C 0.94046 0.67279 0.738 0.0
C1221 C 0.9102 0.6466 0.73796 0.0
H1222 H 0.87506 0.75176 0.6976 0.0
H1223 H 0.90605 0.62578 0.74499 0.0
H1224 H 0.99479 0.72831 0.73708 0.0
H1225 H 0.92491 0.80141 0.69813 0.0
H1226 H 0.86192 0.62705 0.72861 0.0
H1227 H 0.69849 0.58606 0.65629 0.0
H1228 H 0.95974 0.67215 0.74516 0.0
H1229 H 0.87566 0.61976 0.63823 0.0
H1230 H 0.75307 0.63014 0.65926 0.0
H1231 H 0.87143 0.57136 0.62614 0.0
H1232 H 1.00005 0.77617 0.72398 0.0
H1233 H 0.68964 0.53474 0.64628 0.0
H1234 H 0.71271 0.50209 0.63552 0.0
H1235 H 0.97422 0.8037 0.70928 0.0
H1236 H 0.75969 0.4981 0.62738 0.0
N1237 N 0.77487 0.60394 0.65183 0.0
C1238 C 0.74948 0.60788 0.65504 0.0
C1239 C 0.71364 0.55403 0.64764 0.0
C1240 C 0.73979 0.55052 0.64351 0.0
C1241 C 0.71853 0.58295 0.65329 0.0
C1242 C 0.77054 0.57632 0.64568 0.0
H1243 H 0.81888 0.52379 0.62377 0.0
N1244 N 0.82615 0.59937 0.64352 0.0
C1245 C 0.85033 0.5717 0.63051 0.0
C1246 C 0.79694 0.57396 0.64134 0.0
C1247 C 0.85266 0.59904 0.63741 0.0
C1248 C 0.82061 0.54492 0.62917 0.0
C1249 C 0.7934 0.5459 0.63437 0.0
O1250 O 0.85422 0.66697 0.62918 0.0
O1251 O 0.86278 0.68582 0.67185 0.0
O1252 O 0.83248 0.70455 0.68643 0.0
O1253 O 0.80711 0.67661 0.65957 0.0
O1254 O 0.88108 0.66838 0.65252 0.0
O1255 O 0.80419 0.65027 0.62955 0.0
O1256 O 0.83813 0.70273 0.72054 0.0
O1257 O 0.80893 0.64499 0.68282 0.0
O1258 O 0.83981 0.61342 0.6707 0.0
O1259 O 0.87372 0.64736 0.69322 0.0
O1260 O 0.81396 0.62543 0.70691 0.0
O1261 O 0.82465 0.65602 0.72779 0.0
C1262 C 0.88843 0.69002 0.66464 0.0
C1263 C 0.82779 0.65057 0.60062 0.0
C1264 C 0.83579 0.65929 0.56724 0.0
C1265 C 0.83321 0.6696 0.58509 0.0
C1266 C 0.83293 0.62991 0.56524 0.0
C1267 C 0.82338 0.62078 0.59798 0.0
C1268 C 0.82622 0.61063 0.58046 0.0
C1269 C 0.81522 0.70006 0.67117 0.0
C1270 C 0.8298 0.6628 0.61956 0.0
C1271 C 0.76288 0.51993 0.63255 0.0
C1272 C 0.73613 0.52222 0.63716 0.0
C1273 C 0.79574 0.62102 0.69291 0.0
C1274 C 0.83945 0.69184 0.75275 0.0
C1275 C 0.82854 0.67036 0.76752 0.0
C1276 C 0.83948 0.68025 0.78585 0.0
C1277 C 0.86155 0.71163 0.78915 0.0
C1278 C 0.86182 0.723 0.75656 0.0
C1279 C 0.8727 0.73272 0.77461 0.0
C1280 C 0.86196 0.62115 0.68356 0.0
C1281 C 0.82725 0.6819 0.73353 0.0
H1282 H 0.83595 0.69243 0.58689 0.0
H1283 H 0.83512 0.62157 0.55172 0.0
H1284 H 0.81818 0.60541 0.60944 0.0
H1285 H 0.82333 0.58777 0.57869 0.0
H1286 H 0.81153 0.64617 0.76484 0.0
H1287 H 0.87031 0.71978 0.80306 0.0
H1288 H 0.87091 0.74003 0.74562 0.0
H1289 H 0.88986 0.75679 0.77737 0.0
Eu1290 Eu 0.35599 0.17344 0.65376 0.0
C1291 C 0.23653 0.12337 0.70489 0.0
C1292 C 0.21759 0.15916 0.69895 0.0
C1293 C 0.18078 0.10693 0.70928 0.0
C1294 C 0.24235 0.15218 0.69936 0.0
C1295 C 0.20593 0.10076 0.71059 0.0
C1296 C 0.18659 0.13606 0.70338 0.0
C1297 C 0.22807 0.06901 0.72019 0.0
N1298 N 0.26139 0.11828 0.70608 0.0
C1299 C 0.2579 0.09204 0.71414 0.0
C1300 C 0.20184 0.07316 0.71813 0.0
Eu1301 Eu 0.31166 0.15901 0.69734 0.0
N1302 N 0.27267 0.17408 0.69564 0.0
C1303 C 0.28035 0.20411 0.69286 0.0
C1304 C 0.22499 0.18945 0.69484 0.0
C1305 C 0.25661 0.21216 0.69211 0.0
H1306 H 0.27811 0.08876 0.71579 0.0
H1307 H 0.26272 0.23582 0.68934 0.0
H1308 H 0.16717 0.14086 0.70295 0.0
H1309 H 0.22529 0.04802 0.72632 0.0
H1310 H 0.30467 0.22182 0.6906 0.0
H1311 H 0.38696 0.08122 0.65158 0.0
H1312 H 0.20665 0.19574 0.69428 0.0
H1313 H 0.40563 0.24928 0.64214 0.0
H1314 H 0.35158 0.10239 0.64898 0.0
H1315 H 0.46301 0.28657 0.64199 0.0
H1316 H 0.15699 0.0897 0.71334 0.0
H1317 H 0.44443 0.11592 0.65661 0.0
H1318 H 0.49034 0.16973 0.65881 0.0
H1319 H 0.17874 0.05527 0.72277 0.0
H1320 H 0.51107 0.22572 0.65655 0.0
N1321 N 0.38785 0.14947 0.65391 0.0
C1322 C 0.3763 0.11831 0.65165 0.0
C1323 C 0.42888 0.12561 0.65565 0.0
C1324 C 0.44104 0.15761 0.65631 0.0
C1325 C 0.39648 0.10596 0.65282 0.0
C1326 C 0.41976 0.16915 0.65515 0.0
H1327 H 0.50119 0.26934 0.64997 0.0
N1328 N 0.41091 0.21152 0.65158 0.0
C1329 C 0.45453 0.26268 0.64569 0.0
C1330 C 0.43155 0.20093 0.65412 0.0
C1331 C 0.42202 0.24143 0.6458 0.0
C1332 C 0.47595 0.25287 0.65024 0.0
C1333 C 0.46469 0.22155 0.6539 0.0
O1334 O 0.35915 0.19965 0.62887 0.0
O1335 O 0.31916 0.18036 0.66911 0.0
O1336 O 0.28217 0.11713 0.67839 0.0
O1337 O 0.31941 0.12195 0.65645 0.0
O1338 O 0.30996 0.16704 0.64188 0.0
O1339 O 0.35411 0.15369 0.62662 0.0
O1340 O 0.32637 0.15082 0.72444 0.0
O1341 O 0.35448 0.16213 0.6836 0.0
O1342 O 0.37981 0.21811 0.67111 0.0
O1343 O 0.34735 0.2103 0.69659 0.0
O1344 O 0.33132 0.12678 0.7022 0.0
O1345 O 0.31757 0.18882 0.72109 0.0
C1346 C 0.29855 0.17294 0.65623 0.0
C1347 C 0.3781 0.18738 0.60165 0.0
C1348 C 0.38306 0.18923 0.56815 0.0
C1349 C 0.36433 0.18287 0.58402 0.0
C1350 C 0.41585 0.2009 0.56998 0.0
C1351 C 0.41081 0.19857 0.60337 0.0
C1352 C 0.42964 0.20563 0.58757 0.0
C1353 C 0.29043 0.10677 0.66356 0.0
C1354 C 0.35729 0.17791 0.61779 0.0
C1355 C 0.48562 0.21014 0.65633 0.0
C1356 C 0.47382 0.17826 0.65755 0.0
C1357 C 0.35555 0.13994 0.69144 0.0
C1358 C 0.30752 0.16523 0.75036 0.0
C1359 C 0.3249 0.17172 0.76692 0.0
C1360 C 0.30909 0.1638 0.78398 0.0
C1361 C 0.27583 0.14926 0.78438 0.0
C1362 C 0.27433 0.15119 0.75095 0.0
C1363 C 0.25857 0.14306 0.76789 0.0
C1364 C 0.37286 0.22757 0.68668 0.0
C1365 C 0.32434 0.17302 0.73266 0.0
H1366 H 0.33894 0.17367 0.5826 0.0
H1367 H 0.4306 0.206 0.55781 0.0
H1368 H 0.42173 0.20135 0.61679 0.0
H1369 H 0.45488 0.21431 0.58896 0.0
H1370 H 0.3506 0.18296 0.76658 0.0
H1371 H 0.26335 0.1431 0.79747 0.0
H1372 H 0.26062 0.14669 0.7384 0.0
H1373 H 0.23295 0.13212 0.76825 0.0
Eu1374 Eu 0.84848 0.15726 0.70247 0.0
C1375 C 0.77879 0.20454 0.65211 0.0
C1376 C 0.72398 0.16463 0.65613 0.0
C1377 C 0.73689 0.21756 0.65006 0.0
C1378 C 0.7566 0.17412 0.6557 0.0
C1379 C 0.76913 0.22643 0.64861 0.0
C1380 C 0.71434 0.18669 0.65384 0.0
C1381 C 0.82314 0.26282 0.63996 0.0
N1382 N 0.80962 0.21216 0.6506 0.0
C1383 C 0.83136 0.2401 0.64336 0.0
C1384 C 0.79199 0.25616 0.64297 0.0
Eu1385 Eu 0.82245 0.17316 0.65738 0.0
N1386 N 0.76679 0.15348 0.65785 0.0
C1387 C 0.74534 0.12253 0.65907 0.0
C1388 C 0.70202 0.13316 0.65835 0.0
C1389 C 0.71274 0.11195 0.65945 0.0
H1390 H 0.85521 0.24493 0.64056 0.0
H1391 H 0.69596 0.08748 0.66089 0.0
H1392 H 0.68943 0.17993 0.65439 0.0
H1393 H 0.84072 0.2853 0.63485 0.0
H1394 H 0.75307 0.10578 0.66031 0.0
H1395 H 0.95526 0.26534 0.72567 0.0
H1396 H 0.67677 0.12493 0.65881 0.0
H1397 H 0.84416 0.08653 0.70471 0.0
H1398 H 0.8984 0.22814 0.72436 0.0
H1399 H 0.87909 0.06495 0.69937 0.0
H1400 H 0.72904 0.23414 0.64768 0.0
H1401 H 0.99382 0.25085 0.71392 0.0
H1402 H 0.00392 0.20916 0.70225 0.0
H1403 H 0.78555 0.27366 0.64015 0.0
H1404 H 0.98306 0.15392 0.69544 0.0
N1405 N 0.90343 0.19369 0.70915 0.0
C1406 C 0.9144 0.22165 0.71808 0.0
C1407 C 0.9686 0.23452 0.71279 0.0
C1408 C 0.9575 0.2044 0.70622 0.0
C1409 C 0.94694 0.2428 0.71937 0.0
C1410 C 0.92437 0.18404 0.70495 0.0
H1411 H 0.93665 0.09985 0.69483 0.0
N1412 N 0.88087 0.13367 0.70137 0.0
C1413 C 0.88886 0.08981 0.69944 0.0
C1414 C 0.9127 0.15304 0.70102 0.0
C1415 C 0.86907 0.1023 0.70223 0.0
C1416 C 0.92129 0.10955 0.69692 0.0
C1417 C 0.93377 0.14156 0.69836 0.0
O1418 O 0.81909 0.11717 0.71982 0.0
O1419 O 0.80683 0.15214 0.68544 0.0
O1420 O 0.83739 0.21616 0.67533 0.0
O1421 O 0.85994 0.20766 0.7018 0.0
O1422 O 0.80891 0.16436 0.7129 0.0
O1423 O 0.85306 0.16169 0.73272 0.0
O1424 O 0.84761 0.18709 0.63095 0.0
O1425 O 0.86003 0.16777 0.67259 0.0
O1426 O 0.82855 0.11368 0.68433 0.0
O1427 O 0.80787 0.12241 0.65734 0.0
O1428 O 0.87554 0.20484 0.65482 0.0
O1429 O 0.80246 0.14509 0.63233 0.0
C1430 C 0.79286 0.15921 0.69785 0.0
C1431 C 0.8208 0.11919 0.7536 0.0
C1432 C 0.81408 0.12441 0.78674 0.0
C1433 C 0.82667 0.138 0.76947 0.0
C1434 C 0.79647 0.09199 0.78807 0.0
C1435 C 0.80317 0.08684 0.7553 0.0
C1436 C 0.79126 0.07338 0.77247 0.0
C1437 C 0.85299 0.22528 0.69134 0.0
C1438 C 0.83084 0.13301 0.7351 0.0
C1439 C 0.9666 0.16222 0.69796 0.0
C1440 C 0.97846 0.19365 0.70182 0.0
C1441 C 0.88468 0.19043 0.66579 0.0
C1442 C 0.81597 0.17181 0.60403 0.0
C1443 C 0.82708 0.16621 0.58735 0.0
C1444 C 0.81863 0.17383 0.57037 0.0
C1445 C 0.79905 0.18709 0.57019 0.0
C1446 C 0.79613 0.18475 0.60366 0.0
C1447 C 0.78784 0.19246 0.58679 0.0
C1448 C 0.81394 0.10467 0.66809 0.0
C1449 C 0.82533 0.16409 0.62165 0.0
H1450 H 0.8401 0.16302 0.76837 0.0
H1451 H 0.78672 0.0811 0.80125 0.0
H1452 H 0.7983 0.07192 0.7433 0.0
H1453 H 0.77764 0.04842 0.77364 0.0
H1454 H 0.84216 0.15591 0.58754 0.0
H1455 H 0.79227 0.19299 0.55719 0.0
H1456 H 0.78694 0.18875 0.61633 0.0
H1457 H 0.77257 0.20249 0.58658 0.0
C1458 C 0.39216 0.90527 0.04119 0.0
C1459 C 0.36563 0.90973 0.03981 0.0
C1460 C 0.39915 0.95983 0.02492 0.0
C1461 C 0.42526 0.95443 0.02519 0.0
N1462 N 0.44245 0.91669 0.02851 0.0
N1463 N 0.34197 0.9373 0.02586 0.0
C1464 C 0.42042 0.92542 0.03159 0.0
C1465 C 0.36852 0.93581 0.03026 0.0
N1466 N 0.39129 0.88307 0.05263 0.0
N1467 N 0.40362 0.98811 0.01984 0.0
H1468 H 0.31912 0.91975 0.02916 0.0
H1469 H 0.34238 0.95429 0.01732 0.0
H1470 H 0.42501 0.00561 0.01454 0.0
H1471 H 0.38646 0.99459 0.02162 0.0
H1472 H 0.41128 0.88126 0.05568 0.0
H1473 H 0.37169 0.86863 0.06069 0.0
H1474 H 0.43848 0.89453 0.0313 0.0
H1475 H 0.46284 0.93 0.02101 0.0
C1476 C 0.10569 0.49422 0.04487 0.0
C1477 C 0.10273 0.46448 0.04421 0.0
C1478 C 0.05036 0.44413 0.0292 0.0
C1479 C 0.05253 0.47355 0.0314 0.0
N1480 N 0.07682 0.52116 0.04924 0.0
N1481 N 0.0694 0.40954 0.03878 0.0
C1482 C 0.07875 0.49728 0.04129 0.0
C1483 C 0.07433 0.43894 0.03707 0.0
N1484 N 0.13427 0.51976 0.04894 0.0
N1485 N 0.02521 0.42103 0.01973 0.0
H1486 H 0.08591 0.40467 0.04481 0.0
H1487 H 0.04789 0.38971 0.03573 0.0
H1488 H 0.00684 0.42367 0.01422 0.0
H1489 H 0.0238 0.40019 0.01594 0.0
H1490 H 0.13792 0.5422 0.04807 0.0
H1491 H 0.15487 0.51864 0.05125 0.0
H1492 H 0.09396 0.53674 0.0585 0.0
H1493 H 0.05702 0.52388 0.04801 0.0
C1494 C 0.55675 0.64888 0.03031 0.0
C1495 C 0.54951 0.64929 0.04931 0.0
C1496 C 0.52332 0.5927 0.0502 0.0
C1497 C 0.53327 0.59235 0.03169 0.0
N1498 N 0.56362 0.62063 1.00506 0.0
N1499 N 0.5299 0.62246 0.0782 0.0
C1500 C 0.55096 0.62059 0.02193 0.0
C1501 C 0.53405 0.62144 0.05951 0.0
N1502 N 0.56884 0.67551 0.02021 0.0
N1503 N 0.50226 0.56562 0.05862 0.0
H1504 H 0.53628 0.64295 0.08543 0.0
H1505 H 0.52242 0.60334 0.08679 0.0
H1506 H 0.49321 0.54399 0.05231 0.0
H1507 H 0.49134 0.56467 0.07119 0.0
H1508 H 0.571 0.67603 1.00584 0.0
H1509 H 0.57463 0.69692 0.02604 0.0
H1510 H 0.57968 0.64069 0.99818 0.0
H1511 H 0.56013 0.60047 0.9986 0.0
C1512 C 0.89865 0.35818 0.99404 0.0
C1513 C 0.89975 0.35289 0.97487 0.0
C1514 C 0.93602 0.4087 0.97067 0.0
C1515 C 0.93462 0.41401 0.99015 0.0
N1516 N 0.89742 0.39432 0.01538 0.0
N1517 N 0.91352 0.37401 0.94413 0.0
C1518 C 0.9114 0.38894 1.00068 0.0
C1519 C 0.91702 0.37838 0.96293 0.0
N1520 N 0.88458 0.33386 1.00597 0.0
N1521 N 0.95378 0.43282 0.95916 0.0
H1522 H 0.89964 0.35238 0.93789 0.0
H1523 H 0.92223 0.39195 0.93458 0.0
H1524 H 0.96069 0.45553 0.96257 0.0
H1525 H 0.96109 0.43016 0.94605 0.0
H1526 H 0.88536 0.337 0.02032 0.0
H1527 H 0.87494 0.31087 1.00163 0.0
H1528 H 0.87886 0.37653 0.02271 0.0
H1529 H 0.89915 0.41575 0.01722 0.0
C1530 C 0.62339 0.5127 0.98612 0.0
C1531 C 0.646 0.54313 0.98068 0.0
C1532 C 0.6123 0.56202 0.9938 0.0
C1533 C 0.58689 0.5311 0.99589 0.0
N1534 N 0.56899 0.47633 0.99353 0.0
N1535 N 0.66125 0.597 0.97816 0.0
C1536 C 0.59274 0.50622 0.99214 0.0
C1537 C 0.64038 0.56792 0.98434 0.0
N1538 N 0.6314 0.49002 0.9858 0.0
N1539 N 0.60988 0.58584 1.00149 0.0
H1540 H 0.68227 0.60239 0.97134 0.0
H1541 H 0.6565 0.6152 0.9785 0.0
H1542 H 0.59055 0.58191 0.0096 0.0
H1543 H 0.62848 0.60867 1.00189 0.0
H1544 H 0.61745 0.46824 0.99162 0.0
H1545 H 0.65348 0.49394 0.98129 0.0
H1546 H 0.57044 0.45746 0.98846 0.0
H1547 H 0.54736 0.47046 0.99926 0.0
C1548 C 0.45445 0.07918 0.96661 0.0
C1549 C 0.4608 0.10737 0.97493 0.0
C1550 C 0.4929 0.10045 0.99882 0.0
C1551 C 0.48652 0.07198 0.99018 0.0
N1552 N 0.47848 0.04864 0.9597 0.0
N1553 N 0.49241 0.14888 0.99638 0.0
C1554 C 0.47209 0.06524 0.97229 0.0
C1555 C 0.48155 0.11907 0.99048 0.0
N1556 N 0.43195 0.06577 0.95299 0.0
N1557 N 0.51152 0.11112 0.0142 0.0
H1558 H 0.48539 0.16352 0.99039 0.0
H1559 H 0.51037 0.1602 1.0062 0.0
H1560 H 0.52948 0.10617 0.01665 0.0
H1561 H 0.51129 0.12739 0.02323 0.0
H1562 H 0.42518 0.04386 0.94756 0.0
H1563 H 0.41803 0.07509 0.94858 0.0
H1564 H 0.47002 0.04489 0.94608 0.0
H1565 H 0.49639 0.0434 0.96196 0.0
C1566 C 0.62939 0.11319 0.98628 0.0
C1567 C 0.64803 0.10089 0.97941 0.0
C1568 C 0.60535 0.04843 0.98653 0.0
C1569 C 0.58485 0.06033 0.99087 0.0
N1570 N 0.57665 0.10432 0.9917 0.0
N1571 N 0.65408 0.057 0.97201 0.0
C1572 C 0.59677 0.09284 0.99005 0.0
C1573 C 0.63624 0.06856 0.97947 0.0
N1574 N 0.64282 0.14441 0.98904 0.0
N1575 N 0.59525 0.01782 0.98905 0.0
H1576 H 0.67728 0.07111 0.96742 0.0
H1577 H 0.64539 0.03357 0.96933 0.0
H1578 H 0.57254 0.00234 0.99349 0.0
H1579 H 0.61002 0.0083 0.98828 0.0
H1580 H 0.63139 0.15445 0.99597 0.0
H1581 H 0.66652 0.16002 0.986 0.0
H1582 H 0.58328 0.12737 0.98932 0.0
H1583 H 0.55253 0.0902 0.9937 0.0
C1584 C 0.88935 0.50933 0.98426 0.0
C1585 C 0.90096 0.53907 0.97654 0.0
C1586 C 0.95558 0.55193 0.9844 0.0
C1587 C 0.94425 0.5208 0.99015 0.0
N1588 N 0.90004 0.46855 0.99231 0.0
N1589 N 0.94498 0.58853 0.9681 0.0
C1590 C 0.91102 0.49921 0.98926 0.0
C1591 C 0.93406 0.56046 0.97646 0.0
N1592 N 0.85745 0.49068 0.98694 0.0
N1593 N 0.98703 0.57332 0.98633 0.0
H1594 H 0.92988 0.59589 0.96278 0.0
H1595 H 0.9688 0.60385 0.9654 0.0
H1596 H 0.00359 0.56789 0.99153 0.0
H1597 H 0.99646 0.59696 0.98426 0.0
H1598 H 0.84779 0.47029 0.99455 0.0
H1599 H 0.8408 0.49703 0.98306 0.0
H1600 H 0.87675 0.4512 0.98969 0.0
H1601 H 0.9148 0.46016 0.99614 0.0
C1602 C 0.48417 0.38071 0.9704 0.0
C1603 C 0.45674 0.35333 0.97634 0.0
C1604 C 0.44969 0.38321 1.00108 0.0
C1605 C 0.47374 0.41108 0.99318 0.0
N1606 N 0.51007 0.43634 0.96786 0.0
N1607 N 0.4091 0.33027 0.99491 0.0
C1608 C 0.48974 0.40986 0.97704 0.0
C1609 C 0.43828 0.35498 0.99106 0.0
N1610 N 0.50578 0.37893 0.95913 0.0
N1611 N 0.43779 0.38344 0.01813 0.0
H1612 H 0.39891 0.30974 0.9872 0.0
H1613 H 0.3936 0.33146 1.0044 0.0
H1614 H 0.44553 0.40367 0.02583 0.0
H1615 H 0.42247 0.36328 0.02523 0.0
H1616 H 0.52759 0.39814 0.95586 0.0
H1617 H 0.5036 0.35794 0.95483 0.0
H1618 H 0.51968 0.43617 0.95499 0.0
H1619 H 0.51531 0.45833 0.97229 0.0
C1620 C 0.12016 0.63688 0.03952 0.0
C1621 C 0.10883 0.65643 0.04598 0.0
C1622 C 0.05568 0.61936 0.03423 0.0
C1623 C 0.06581 0.5977 0.03013 0.0
N1624 N 0.10784 0.58507 0.03161 0.0
N1625 N 0.06488 0.66476 0.0518 0.0
C1626 C 0.09816 0.60634 0.03341 0.0
C1627 C 0.07629 0.64722 0.04403 0.0
N1628 N 0.15212 0.64773 0.03879 0.0
N1629 N 0.02715 0.61431 0.02773 0.0
H1630 H 0.07933 0.68552 0.05885 0.0
H1631 H 0.04075 0.65744 0.05258 0.0
H1632 H 0.0131 0.5957 0.01908 0.0
H1633 H 0.01952 0.63043 0.02883 0.0
H1634 H 0.16192 0.63584 0.03217 0.0
H1635 H 0.16904 0.6699 0.04326 0.0
H1636 H 0.1298 0.58884 0.03627 0.0
H1637 H 0.09323 0.56284 0.02655 0.0
C1638 C 0.36666 0.43705 0.03906 0.0
C1639 C 0.36141 0.46205 0.04279 0.0
C1640 C 0.41539 0.49869 0.03224 0.0
C1641 C 0.42078 0.47359 0.02822 0.0
N1642 N 0.39707 0.41897 0.02202 0.0
N1643 N 0.37725 0.51562 0.0383 0.0
C1644 C 0.39493 0.44279 0.02991 0.0
C1645 C 0.38467 0.49254 0.03787 0.0
N1646 N 0.34515 0.40789 0.04481 0.0
N1647 N 0.43963 0.52845 0.03153 0.0
H1648 H 0.35514 0.51197 0.04256 0.0
H1649 H 0.3918 0.53755 0.03282 0.0
H1650 H 0.46148 0.53419 0.02621 0.0
H1651 H 0.43838 0.54727 0.03689 0.0
H1652 H 0.34951 0.38944 0.04441 0.0
H1653 H 0.32394 0.40262 0.05134 0.0
H1654 H 0.37825 0.39627 0.02132 0.0
H1655 H 0.41645 0.42297 0.01396 0.0
C1656 C 0.56462 0.91108 0.02637 0.0
C1657 C 0.55155 0.89839 0.04388 0.0
C1658 C 0.52268 0.927 0.04436 0.0
C1659 C 0.53521 0.93937 0.02657 0.0
N1660 N 0.56328 0.93866 0.99917 0.0
N1661 N 0.5149 0.89021 0.06854 0.0
C1662 C 0.55466 0.92997 0.01709 0.0
C1663 C 0.52962 0.90518 0.05257 0.0
N1664 N 0.58719 0.90563 0.01884 0.0
N1665 N 0.50429 0.93634 0.05355 0.0
H1666 H 0.52055 0.87532 0.07554 0.0
H1667 H 0.49566 0.89084 0.07434 0.0
H1668 H 0.49577 0.94967 0.04748 0.0
H1669 H 0.49841 0.93207 0.0675 0.0
H1670 H 0.60062 0.91714 1.00729 0.0
H1671 H 0.59415 0.89096 0.02488 0.0
H1672 H 0.57433 0.92981 0.9908 0.0
H1673 H 0.55705 0.95287 0.99202 0.0
C1674 C 0.0416 0.26487 0.37707 0.0
C1675 C 0.02957 0.2326 0.3782 0.0
C1676 C 0.07812 0.23874 0.36402 0.0
C1677 C 0.09176 0.27149 0.36488 0.0
N1678 N 0.08824 0.31553 0.37616 0.0
N1679 N 0.03613 0.1882 0.37383 0.0
C1680 C 0.07384 0.28457 0.37223 0.0
C1681 C 0.04764 0.2193 0.37177 0.0
N1682 N 0.02223 0.27678 0.38077 0.0
N1683 N 0.09446 0.22621 0.35586 0.0
H1684 H 0.01344 0.17309 0.3788 0.0
H1685 H 0.04951 0.17744 0.37166 0.0
H1686 H 0.1169 0.23981 0.35028 0.0
H1687 H 0.08495 0.20272 0.35302 0.0
H1688 H 0.02872 0.29976 0.37823 0.0
H1689 H 0.99862 0.26304 0.38478 0.0
H1690 H 0.07752 0.32548 0.3839 0.0
H1691 H 0.11162 0.33124 0.37272 0.0
C1692 C 0.77526 0.82389 0.37075 0.0
C1693 C 0.76748 0.79291 0.37394 0.0
C1694 C 0.7142 0.77484 0.36108 0.0
C1695 C 0.72012 0.80583 0.36084 0.0
N1696 N 0.75689 0.86022 0.36703 0.0
N1697 N 0.7287 0.73846 0.37356 0.0
C1698 C 0.75089 0.83049 0.36597 0.0
C1699 C 0.73683 0.7682 0.36927 0.0
N1700 N 0.80626 0.84707 0.37194 0.0
N1701 N 0.68693 0.7517 0.35325 0.0
H1702 H 0.74453 0.73263 0.37957 0.0
H1703 H 0.70562 0.71985 0.37253 0.0
H1704 H 0.67004 0.75578 0.34693 0.0
H1705 H 0.68263 0.72921 0.35125 0.0
H1706 H 0.81405 0.86975 0.36783 0.0
H1707 H 0.82479 0.84302 0.3752 0.0
H1708 H 0.777 0.87814 0.37339 0.0
H1709 H 0.74137 0.86696 0.36209 0.0
C1710 C 0.21592 0.9819 0.3624 0.0
C1711 C 0.22681 0.98787 0.38099 0.0
C1712 C 0.20198 0.93205 0.38631 0.0
C1713 C 0.1942 0.92622 0.36706 0.0
N1714 N 0.17542 0.94488 0.34226 0.0
N1715 N 0.23237 0.96883 0.41063 0.0
C1716 C 0.19635 0.9509 0.35631 0.0
C1717 C 0.22065 0.963 0.39292 0.0
N1718 N 0.22433 0.00589 0.35043 0.0
N1719 N 0.18761 0.90841 0.3987 0.0
H1720 H 0.24433 0.99096 0.41648 0.0
H1721 H 0.23234 0.95192 0.41908 0.0
H1722 H 0.16869 0.88687 0.39494 0.0
H1723 H 0.19033 0.91132 0.41302 0.0
H1724 H 0.21937 0.00248 0.33625 0.0
H1725 H 0.2388 0.02902 0.35435 0.0
H1726 H 0.17363 0.9622 0.33526 0.0
H1727 H 0.15593 0.92296 0.34044 0.0
C1728 C 0.56408 0.68861 0.32868 0.0
C1729 C 0.56407 0.68268 0.30953 0.0
C1730 C 0.59898 0.73844 0.30435 0.0
C1731 C 0.59898 0.74424 0.32386 0.0
N1732 N 0.56283 0.72518 0.34954 0.0
N1733 N 0.57597 0.70241 0.2784 0.0
C1734 C 0.57668 0.71949 0.3349 0.0
C1735 C 0.58027 0.70771 0.29712 0.0
N1736 N 0.55087 0.66474 0.34096 0.0
N1737 N 0.6148 0.76245 0.29244 0.0
H1738 H 0.56244 0.6804 0.27257 0.0
H1739 H 0.58394 0.71979 0.26851 0.0
H1740 H 0.62089 0.78496 0.29589 0.0
H1741 H 0.62121 0.75997 0.27905 0.0
H1742 H 0.55234 0.66846 0.35527 0.0
H1743 H 0.54125 0.64162 0.33689 0.0
H1744 H 0.54469 0.70752 0.35718 0.0
H1745 H 0.56411 0.74649 0.35099 0.0
C1746 C 0.30264 0.86222 0.32707 0.0
C1747 C 0.30353 0.86023 0.30748 0.0
C1748 C 0.24566 0.83799 0.30647 0.0
C1749 C 0.24597 0.84494 0.32553 0.0
N1750 N 0.26874 0.83991 0.35331 0.0
N1751 N 0.2754 0.84505 0.2782 0.0
C1752 C 0.27298 0.8511 0.33591 0.0
C1753 C 0.27481 0.8475 0.29705 0.0
N1754 N 0.32998 0.87494 0.33732 0.0
N1755 N 0.21726 0.81892 0.29813 0.0
H1756 H 0.29603 0.8505 0.27091 0.0
H1757 H 0.25582 0.83938 0.26974 0.0
H1758 H 0.19633 0.80884 0.30577 0.0
H1759 H 0.21487 0.81024 0.2847 0.0
H1760 H 0.33033 0.87915 0.35153 0.0
H1761 H 0.35237 0.88342 0.33143 0.0
H1762 H 0.28692 0.84088 0.3615 0.0
H1763 H 0.24573 0.82419 0.35733 0.0
C1764 C 0.14983 0.4444 0.32381 0.0
C1765 C 0.11798 0.43218 0.31791 0.0
C1766 C 0.10457 0.3819 0.33108 0.0
C1767 C 0.13734 0.39265 0.33435 0.0
N1768 N 0.19176 0.43368 0.33091 0.0
N1769 N 0.06509 0.38869 0.3144 0.0
C1770 C 0.16014 0.42394 0.33019 0.0
C1771 C 0.09528 0.40078 0.32121 0.0
N1772 N 0.17031 0.47565 0.3233 0.0
N1773 N 0.08222 0.35398 0.33791 0.0
H1774 H 0.05725 0.40199 0.30748 0.0
H1775 H 0.04852 0.3651 0.31442 0.0
H1776 H 0.08828 0.3401 0.34557 0.0
H1777 H 0.05794 0.3461 0.33762 0.0
H1778 H 0.19288 0.48626 0.32929 0.0
H1779 H 0.16371 0.49133 0.31843 0.0
H1780 H 0.20931 0.455 0.32595 0.0
H1781 H 0.20029 0.41915 0.33463 0.0
C1782 C 0.30703 0.41527 0.3289 0.0
C1783 C 0.3061 0.43382 0.3144 0.0
C1784 C 0.24792 0.40637 0.31567 0.0
C1785 C 0.24861 0.3863 0.3295 0.0
N1786 N 0.27896 0.36833 0.3466 0.0
N1787 N 0.27671 0.45141 0.29613 0.0
C1788 C 0.27825 0.3901 0.33552 0.0
C1789 C 0.27685 0.4308 0.30854 0.0
N1790 N 0.33556 0.42233 0.3367 0.0
N1791 N 0.21963 0.40011 0.3079 0.0
H1792 H 0.29705 0.46811 0.28947 0.0
H1793 H 0.25684 0.45345 0.29328 0.0
H1794 H 0.19775 0.38379 0.31317 0.0
H1795 H 0.21753 0.41016 0.29577 0.0
H1796 H 0.33769 0.41205 0.34874 0.0
H1797 H 0.35714 0.44066 0.33217 0.0
H1798 H 0.29938 0.36718 0.34934 0.0
H1799 H 0.25861 0.35032 0.35239 0.0
C1800 C 0.55261 0.83744 0.31742 0.0
C1801 C 0.56387 0.8675 0.3103 0.0
C1802 C 0.61829 0.88143 0.31902 0.0
C1803 C 0.60768 0.85002 0.32372 0.0
N1804 N 0.56436 0.79724 0.32511 0.0
N1805 N 0.60741 0.91804 0.30312 0.0
C1806 C 0.57469 0.82784 0.32239 0.0
C1807 C 0.5967 0.88958 0.31091 0.0
N1808 N 0.52071 0.81803 0.31956 0.0
N1809 N 0.64899 0.90358 0.32248 0.0
H1810 H 0.5922 0.92518 0.29769 0.0
H1811 H 0.63131 0.93385 0.30094 0.0
H1812 H 0.66512 0.89838 0.32853 0.0
H1813 H 0.65759 0.92724 0.32117 0.0
H1814 H 0.51116 0.7972 0.32671 0.0
H1815 H 0.50382 0.82407 0.31569 0.0
H1816 H 0.54142 0.77955 0.32204 0.0
H1817 H 0.57938 0.7894 0.32936 0.0
C1818 C 0.15842 0.70524 0.32001 0.0
C1819 C 0.12863 0.68576 0.31146 0.0
C1820 C 0.11077 0.7221 0.32027 0.0
C1821 C 0.14176 0.74343 0.32702 0.0
N1822 N 0.19705 0.75727 0.32959 0.0
N1823 N 0.07802 0.67759 0.30072 0.0
C1824 C 0.16613 0.73549 0.326 0.0
C1825 C 0.10528 0.6948 0.31077 0.0
N1826 N 0.17929 0.69473 0.32259 0.0
N1827 N 0.08607 0.727 0.32376 0.0
H1828 H 0.07274 0.65701 0.29392 0.0
H1829 H 0.06188 0.68501 0.29786 0.0
H1830 H 0.08882 0.74586 0.33137 0.0
H1831 H 0.06244 0.71075 0.32094 0.0
H1832 H 0.19982 0.70646 0.33064 0.0
H1833 H 0.17472 0.67297 0.31802 0.0
H1834 H 0.21603 0.75362 0.32711 0.0
H1835 H 0.20436 0.78011 0.33319 0.0
C1836 C 0.75485 0.98297 0.36406 0.0
C1837 C 0.77354 0.98465 0.37969 0.0
C1838 C 0.74623 0.928 0.38037 0.0
C1839 C 0.7304 0.92646 0.36345 0.0
N1840 N 0.72738 0.95371 0.33662 0.0
N1841 N 0.79346 0.95834 0.39883 0.0
C1842 C 0.73718 0.95431 0.35442 0.0
C1843 C 0.77111 0.95703 0.38674 0.0
N1844 N 0.75266 0.00816 0.35887 0.0
N1845 N 0.73768 0.90196 0.3905 0.0
H1846 H 0.81331 0.9791 0.40294 0.0
H1847 H 0.79426 0.93873 0.403 0.0
H1848 H 0.72029 0.87996 0.38624 0.0
H1849 H 0.74629 0.90265 0.40385 0.0
H1850 H 0.73707 0.00712 0.34857 0.0
H1851 H 0.76365 0.02908 0.36619 0.0
H1852 H 0.73394 0.97374 0.32903 0.0
H1853 H 0.71616 0.93345 0.32876 0.0
C1854 C 0.04672 0.82963 0.36668 0.0
C1855 C 0.02778 0.79945 0.3738 0.0
C1856 C 0.06935 0.78706 0.36597 0.0
C1857 C 0.09015 0.81864 0.36124 0.0
N1858 N 0.09934 0.87075 0.35904 0.0
N1859 N 0.0208 0.74943 0.38121 0.0
C1860 C 0.07887 0.84005 0.36199 0.0
C1861 C 0.03886 0.77802 0.37349 0.0
N1862 N 0.0339 0.84837 0.3644 0.0
N1863 N 0.07876 0.76568 0.36351 0.0
H1864 H 0.99792 0.74162 0.38619 0.0
H1865 H 0.02899 0.73408 0.38376 0.0
H1866 H 0.10105 0.77135 0.35865 0.0
H1867 H 0.06369 0.7419 0.36472 0.0
H1868 H 0.04531 0.86934 0.35737 0.0
H1869 H 0.01061 0.84167 0.36808 0.0
H1870 H 0.09385 0.88813 0.3616 0.0
H1871 H 0.12265 0.87901 0.35502 0.0
C1872 C 0.19737 0.22304 0.37593 0.0
C1873 C 0.23014 0.23378 0.37365 0.0
C1874 C 0.2344 0.27532 0.3538 0.0
C1875 C 0.2033 0.26803 0.35894 0.0
N1876 N 0.15718 0.23752 0.37791 0.0
N1877 N 0.28122 0.27269 0.36221 0.0
C1878 C 0.18515 0.24239 0.37069 0.0
C1879 C 0.24908 0.26054 0.36296 0.0
N1880 N 0.17782 0.19424 0.38298 0.0
N1881 N 0.24967 0.29584 0.3399 0.0
H1882 H 0.29293 0.26274 0.36893 0.0
H1883 H 0.29647 0.29407 0.35628 0.0
H1884 H 0.23916 0.30638 0.33263 0.0
H1885 H 0.27124 0.29995 0.33443 0.0
H1886 H 0.15319 0.18419 0.38324 0.0
H1887 H 0.18587 0.17914 0.38674 0.0
H1888 H 0.14475 0.22116 0.38809 0.0
H1889 H 0.14823 0.25206 0.3752 0.0
C1890 C 0.71117 0.59568 0.70874 0.0
C1891 C 0.69884 0.56336 0.71011 0.0
C1892 C 0.74683 0.56877 0.69559 0.0
C1893 C 0.76085 0.60154 0.69614 0.0
N1894 N 0.75804 0.64613 0.70705 0.0
N1895 N 0.70491 0.51863 0.70593 0.0
C1896 C 0.74335 0.61505 0.70351 0.0
C1897 C 0.71655 0.5497 0.70365 0.0
N1898 N 0.69212 0.60792 0.71252 0.0
N1899 N 0.76271 0.55593 0.68731 0.0
H1900 H 0.68236 0.50375 0.71117 0.0
H1901 H 0.71811 0.5077 0.70366 0.0
H1902 H 0.78495 0.56965 0.68162 0.0
H1903 H 0.753 0.5324 0.68452 0.0
H1904 H 0.6987 0.63087 0.7098 0.0
H1905 H 0.66863 0.59444 0.71681 0.0
H1906 H 0.74766 0.65653 0.71468 0.0
H1907 H 0.78144 0.66146 0.70353 0.0
C1908 C 0.43904 0.15375 0.70445 0.0
C1909 C 0.43092 0.12323 0.70944 0.0
C1910 C 0.37697 0.10416 0.69722 0.0
C1911 C 0.38355 0.13516 0.69465 0.0
N1912 N 0.42158 0.19006 0.69735 0.0
N1913 N 0.39136 0.06938 0.71225 0.0
C1914 C 0.41483 0.16012 0.6986 0.0
C1915 C 0.39971 0.09839 0.70615 0.0
N1916 N 0.47021 0.17665 0.70486 0.0
N1917 N 0.34911 0.08006 0.69059 0.0
H1918 H 0.40739 0.06414 0.7186 0.0
H1919 H 0.36805 0.05106 0.71234 0.0
H1920 H 0.33225 0.08328 0.68351 0.0
H1921 H 0.34422 0.0572 0.69025 0.0
H1922 H 0.47835 0.19861 0.69936 0.0
H1923 H 0.48852 0.17288 0.70914 0.0
H1924 H 0.44219 0.20881 0.70269 0.0
H1925 H 0.40632 0.19635 0.69137 0.0
C1926 C 0.89745 0.31387 0.6974 0.0
C1927 C 0.88422 0.31697 0.71421 0.0
C1928 C 0.85044 0.26061 0.71599 0.0
C1929 C 0.86255 0.25711 0.69867 0.0
N1930 N 0.89521 0.28105 0.67185 0.0
N1931 N 0.84517 0.29432 0.73829 0.0
C1932 C 0.88525 0.28398 0.68903 0.0
C1933 C 0.85994 0.29062 0.72315 0.0
N1934 N 0.92239 0.33951 0.68974 0.0
N1935 N 0.8299 0.2352 0.72583 0.0
H1936 H 0.8524 0.31571 0.74462 0.0
H1937 H 0.82432 0.2766 0.74392 0.0
H1938 H 0.81865 0.21322 0.72017 0.0
H1939 H 0.82463 0.23577 0.73975 0.0
H1940 H 0.93581 0.33872 0.67876 0.0
H1941 H 0.93118 0.36178 0.69518 0.0
H1942 H 0.90839 0.29957 0.66306 0.0
H1943 H 0.88887 0.25975 0.66583 0.0
C1944 C 0.25479 0.04003 0.62764 0.0
C1945 C 0.23123 0.01564 0.63834 0.0
C1946 C 0.24027 0.05229 0.66353 0.0
C1947 C 0.26682 0.07625 0.65413 0.0
N1948 N 0.28734 0.09523 0.62363 0.0
N1949 N 0.20648 0.99726 0.66799 0.0
C1950 C 0.27127 0.07068 0.63519 0.0
C1951 C 0.22579 0.02139 0.65679 0.0
N1952 N 0.26125 0.03406 0.61015 0.0
N1953 N 0.2251 0.0593 0.67684 0.0
H1954 H 0.19552 0.9742 0.66356 0.0
H1955 H 0.20416 0.0001 0.68213 0.0
H1956 H 0.22896 0.08158 0.67845 0.0
H1957 H 0.20419 0.04269 0.68308 0.0
H1958 H 0.28107 0.04961 0.60265 0.0
H1959 H 0.24808 0.0127 0.60351 0.0
H1960 H 0.28982 0.09338 0.60944 0.0
H1961 H 0.29365 0.1176 0.62765 0.0
C1962 C 0.95395 0.17778 0.6518 0.0
C1963 C 0.97716 0.20895 0.64828 0.0
C1964 C 0.94326 0.22597 0.66344 0.0
C1965 C 0.9176 0.19496 0.66373 0.0
N1966 N 0.89913 0.14069 0.65783 0.0
N1967 N 0.99334 0.26319 0.64968 0.0
C1968 C 0.92318 0.17063 0.65797 0.0
C1969 C 0.97181 0.23323 0.65399 0.0
N1970 N 0.96158 0.155 0.64963 0.0
N1971 N 0.94046 0.24846 0.67267 0.0
H1972 H 0.01458 0.26949 0.64285 0.0
H1973 H 0.98903 0.2815 0.65157 0.0
H1974 H 0.92049 0.24332 0.68054 0.0
H1975 H 0.95911 0.27106 0.67443 0.0
H1976 H 0.94712 0.13229 0.65401 0.0
H1977 H 0.98384 0.15944 0.64513 0.0
H1978 H 0.90054 0.12267 0.65138 0.0
H1979 H 0.87743 0.13384 0.66391 0.0
C1980 C 0.76461 0.7322 0.65192 0.0
C1981 C 0.78776 0.76364 0.64907 0.0
C1982 C 0.82884 0.75452 0.66219 0.0
C1983 C 0.80554 0.72317 0.66582 0.0
N1984 N 0.75018 0.68469 0.66826 0.0
N1985 N 0.84001 0.80661 0.65543 0.0
C1986 C 0.77306 0.71279 0.66192 0.0
C1987 C 0.81923 0.7754 0.65558 0.0
N1988 N 0.73483 0.72062 0.64457 0.0
N1989 N 0.86036 0.76399 0.66367 0.0
H1990 H 0.83398 0.82258 0.65033 0.0
H1991 H 0.86219 0.81689 0.66188 0.0
H1992 H 0.86857 0.74929 0.6677 0.0
H1993 H 0.87836 0.7854 0.65912 0.0
H1994 H 0.71805 0.69709 0.64427 0.0
H1995 H 0.72761 0.73431 0.63752 0.0
H1996 H 0.72595 0.67692 0.66743 0.0
H1997 H 0.75563 0.67053 0.67613 0.0
C1998 C 0.97481 0.7548 0.66179 0.0
C1999 C 0.97355 0.76934 0.6453 0.0
C2000 C 0.91537 0.73846 0.64551 0.0
C2001 C 0.91684 0.72083 0.66062 0.0
N2002 N 0.94925 0.70894 0.68043 0.0
N2003 N 0.9432 0.77346 0.62017 0.0
C2004 C 0.94692 0.72834 0.66813 0.0
C2005 C 0.94394 0.76108 0.63693 0.0
N2006 N 1.0028 0.76619 0.67134 0.0
N2007 N 0.88665 0.73294 0.63891 0.0
H2008 H 0.96354 0.7904 0.61361 0.0
H2009 H 0.92283 0.76549 0.61205 0.0
H2010 H 0.86521 0.71627 0.6445 0.0
H2011 H 0.88389 0.74684 0.62923 0.0
H2012 H 0.0045 0.75828 0.6844 0.0
H2013 H 0.02374 0.78554 0.66698 0.0
H2014 H 0.97072 0.71084 0.68454 0.0
H2015 H 0.92933 0.68991 0.68575 0.0
C2016 C 0.26382 0.2253 0.64447 0.0
C2017 C 0.23137 0.20304 0.64169 0.0
C2018 C 0.24191 0.16184 0.65172 0.0
C2019 C 0.27497 0.18381 0.65331 0.0
N2020 N 0.31776 0.23526 0.64692 0.0
N2021 N 0.18889 0.15016 0.64229 0.0
C2022 C 0.28597 0.2153 0.64868 0.0
C2023 C 0.2202 0.17135 0.64545 0.0
N2024 N 0.27356 0.2561 0.643 0.0
N2025 N 0.23126 0.13162 0.65596 0.0
H2026 H 0.1721 0.15646 0.63869 0.0
H2027 H 0.17942 0.12629 0.6425 0.0
H2028 H 0.24661 0.12328 0.65828 0.0
H2029 H 0.20754 0.11504 0.65785 0.0
H2030 H 0.29609 0.27364 0.64695 0.0
H2031 H 0.25824 0.26421 0.63932 0.0
H2032 H 0.32735 0.25752 0.6416 0.0
H2033 H 0.33454 0.22845 0.64906 0.0
C2034 C 0.77374 0.0174 0.65919 0.0
C2035 C 0.79237 0.01596 0.64449 0.0
C2036 C 0.82262 0.07265 0.64401 0.0
C2037 C 0.80696 0.07401 0.66036 0.0
N2038 N 0.77311 0.04603 0.68612 0.0
N2039 N 0.84115 0.04277 0.62717 0.0
C2040 C 0.78435 0.04589 0.66884 0.0
C2041 C 0.81878 0.04375 0.63813 0.0
N2042 N 0.74517 0.99215 0.6634 0.0
N2043 N 0.84103 0.09857 0.63384 0.0
H2044 H 0.84037 0.02213 0.62349 0.0
H2045 H 0.86234 0.06255 0.62364 0.0
H2046 H 0.84554 0.12063 0.6375 0.0
H2047 H 0.84994 0.09766 0.62086 0.0
H2048 H 0.72949 0.99305 0.67288 0.0
H2049 H 0.73553 0.97138 0.65597 0.0
H2050 H 0.75849 0.02579 0.69336 0.0
H2051 H 0.78142 0.06606 0.69405 0.0
C2052 C 0.43948 0.28773 0.71733 0.0
C2053 C 0.4414 0.31569 0.71135 0.0
C2054 C 0.40218 0.28639 0.68698 0.0
C2055 C 0.39676 0.25811 0.69484 0.0
N2056 N 0.40592 0.23259 0.72071 0.0
N2057 N 0.41848 0.34014 0.69298 0.0
C2058 C 0.41398 0.25896 0.71103 0.0
C2059 C 0.4211 0.31468 0.69681 0.0
N2060 N 0.46274 0.28848 0.72838 0.0
N2061 N 0.38945 0.28648 0.67016 0.0
H2062 H 0.43045 0.36077 0.70053 0.0
H2063 H 0.40177 0.33964 0.68369 0.0
H2064 H 0.37597 0.26632 0.66256 0.0
H2065 H 0.39508 0.30671 0.66304 0.0
H2066 H 0.46384 0.26868 0.73165 0.0
H2067 H 0.48284 0.30906 0.73246 0.0
H2068 H 0.41583 0.23285 0.7336 0.0
H2069 H 0.38757 0.2108 0.71679 0.0
C2070 C 0.7036 0.10825 0.7069 0.0
C2071 C 0.69533 0.13122 0.7108 0.0
C2072 C 0.74859 0.17171 0.70136 0.0
C2073 C 0.75813 0.14908 0.69924 0.0
N2074 N 0.74535 0.09594 0.70227 0.0
N2075 N 0.70966 0.18487 0.71259 0.0
C2076 C 0.73567 0.11734 0.70252 0.0
C2077 C 0.71771 0.16296 0.70812 0.0
N2078 N 0.68073 0.07766 0.70734 0.0
N2079 N 0.76887 0.20162 0.69648 0.0
H2080 H 0.68678 0.17934 0.71646 0.0
H2081 H 0.72586 0.20849 0.71346 0.0
H2082 H 0.79135 0.20867 0.69146 0.0
H2083 H 0.76262 0.21873 0.69561 0.0
H2084 H 0.68425 0.05986 0.70254 0.0
H2085 H 0.65731 0.07013 0.71112 0.0
H2086 H 0.73158 0.07328 0.70688 0.0
H2087 H 0.76812 0.1015 0.69841 0.0
C2088 C 0.86479 0.5527 0.70399 0.0
C2089 C 0.89724 0.56768 0.70935 0.0
C2090 C 0.90752 0.613 0.69117 0.0
C2091 C 0.87459 0.5999 0.68798 0.0
N2092 N 0.82634 0.55162 0.68249 0.0
N2093 N 0.94955 0.61278 0.70914 0.0
C2094 C 0.85417 0.56811 0.69194 0.0
C2095 C 0.91875 0.59796 0.7031 0.0
N2096 N 0.84402 0.5238 0.7105 0.0
N2097 N 0.92802 0.63818 0.68116 0.0
H2098 H 0.95861 0.60237 0.71786 0.0
H2099 H 0.96534 0.63614 0.70672 0.0
H2100 H 0.91976 0.64656 0.67054 0.0
H2101 H 0.95259 0.64785 0.68157 0.0
H2102 H 0.81947 0.51359 0.70916 0.0
H2103 H 0.85104 0.51075 0.71838 0.0
H2104 H 0.81118 0.52787 0.68382 0.0
H2105 H 0.82135 0.56054 0.67088 0.0
C2106 C 0.47467 0.9812 0.16467 0.0
C2107 C 0.48612 0.96149 0.17073 0.0
C2108 C 0.51724 0.97194 0.14222 0.0
C2109 C 0.50491 0.99082 0.13593 0.0
N2110 N 0.46613 0.00719 0.13883 0.0
N2111 N 0.5125 0.93259 0.16376 0.0
C2112 C 0.48172 0.99341 0.14643 0.0
C2113 C 0.5056 0.95511 0.15899 0.0
N2114 N 0.45841 0.98955 0.17662 0.0
N2115 N 0.54107 0.97117 0.13264 0.0
H2116 H 0.50433 0.91983 0.17593 0.0
H2117 H 0.52387 0.92464 0.15495 0.0
H2118 H 0.54992 0.98279 0.12018 0.0
H2119 H 0.55361 0.96081 0.13765 0.0
H2120 H 0.45267 0.00662 0.17368 0.0
H2121 H 0.45288 0.9813 0.19014 0.0
H2122 H 0.44676 0.00707 0.14505 0.0
H2123 H 0.4706 0.01614 0.12543 0.0
C2124 C 0.03539 0.49745 0.16091 0.0
C2125 C 0.03192 0.51724 0.17375 0.0
C2126 C 0.00395 0.52997 0.15021 0.0
C2127 C 0.00351 0.50701 0.13833 0.0
N2128 N 0.01631 0.46673 0.13269 0.0
N2129 N 0.00914 0.54916 0.18164 0.0
C2130 C 0.01876 0.49027 0.14369 0.0
C2131 C 0.01534 0.53282 0.16865 0.0
N2132 N 0.05508 0.48607 0.16505 0.0
N2133 N 0.99397 0.54945 0.14371 0.0
H2134 H 0.01674 0.55158 0.1954 0.0
H2135 H 0.99409 0.55804 0.17922 0.0
H2136 H 0.98573 0.54817 0.13018 0.0
H2137 H 0.99675 0.56867 0.15109 0.0
H2138 H 0.06116 0.47413 0.15554 0.0
H2139 H 0.06758 0.49086 0.17754 0.0
H2140 H 0.02377 0.45138 0.13681 0.0
H2141 H 0.00473 0.46111 0.11987 0.0
C2142 C 0.50214 0.53666 0.16264 0.0
C2143 C 0.48384 0.51036 0.17385 0.0
C2144 C 0.4822 0.47629 0.14873 0.0
C2145 C 0.50427 0.50268 0.13868 0.0
N2146 N 0.53725 0.55816 0.13631 0.0
N2147 N 0.45869 0.45519 0.17853 0.0
C2148 C 0.51458 0.53298 0.14561 0.0
C2149 C 0.47421 0.48012 0.1671 0.0
N2150 N 0.50719 0.56506 0.16821 0.0
N2151 N 0.46848 0.44765 0.14054 0.0
H2152 H 0.45216 0.45698 0.19204 0.0
H2153 H 0.45438 0.43307 0.17513 0.0
H2154 H 0.47371 0.44409 0.12704 0.0
H2155 H 0.44984 0.42792 0.14642 0.0
H2156 H 0.51756 0.5846 0.15985 0.0
H2157 H 0.49848 0.56854 0.18066 0.0
H2158 H 0.54841 0.5806 0.1417 0.0
H2159 H 0.54665 0.55645 0.12367 0.0
C2160 C 0.96777 0.489 0.86889 0.0
C2161 C 0.98832 0.4971 0.85342 0.0
C2162 C 0.03408 0.52585 0.87402 0.0
C2163 C 0.01333 0.52283 0.88862 0.0
N2164 N 0.95982 0.50349 0.89965 0.0
N2165 N 0.04124 0.52703 0.84087 0.0
C2166 C 0.97994 0.50459 0.8861 0.0
C2167 C 0.02162 0.51624 0.85587 0.0
N2168 N 0.93671 0.46628 0.86714 0.0
N2169 N 0.06574 0.5379 0.87755 0.0
H2170 H 0.03316 0.52156 0.82723 0.0
H2171 H 0.06518 0.54378 0.84191 0.0
H2172 H 0.07548 0.54475 0.89082 0.0
H2173 H 0.08155 0.53804 0.86778 0.0
H2174 H 0.92131 0.4574 0.87834 0.0
H2175 H 0.92722 0.45415 0.85475 0.0
H2176 H 0.93539 0.49345 0.89769 0.0
H2177 H 0.96767 0.5147 0.91242 0.0
C2178 C 0.54111 0.50838 0.86237 0.0
C2179 C 0.51759 0.48762 0.8497 0.0
C2180 C 0.47675 0.47403 0.87338 0.0
C2181 C 0.49941 0.49788 0.88502 0.0
N2182 N 0.55269 0.54035 0.88995 0.0
N2183 N 0.46214 0.45431 0.84205 0.0
C2184 C 0.53156 0.5157 0.87941 0.0
C2185 C 0.48515 0.47129 0.85492 0.0
N2186 N 0.57255 0.52046 0.85833 0.0
N2187 N 0.44738 0.45356 0.8801 0.0
H2188 H 0.46713 0.45226 0.82823 0.0
H2189 H 0.43797 0.44468 0.84464 0.0
H2190 H 0.44056 0.45463 0.89366 0.0
H2191 H 0.43102 0.43379 0.87286 0.0
H2192 H 0.59075 0.53317 0.86782 0.0
H2193 H 0.58039 0.51543 0.84605 0.0
H2194 H 0.57548 0.55626 0.88555 0.0
H2195 H 0.54668 0.5464 0.90255 0.0
C2196 C 0.53476 0.04595 0.86303 0.0
C2197 C 0.51809 0.02787 0.84722 0.0
C2198 C 0.49055 0.98255 0.86729 0.0
C2199 C 0.51157 -0.00092 0.88213 0.0
N2200 N 0.55772 0.04624 0.89287 0.0
N2201 N 0.48464 0.97674 0.83407 0.0
C2202 C 0.5347 0.03083 0.87975 0.0
C2203 C 0.49702 0.99555 0.84928 0.0
N2204 N 0.5501 0.07754 0.86224 0.0
N2205 N 0.46415 0.95449 0.87042 0.0
H2206 H 0.4903 0.98474 0.82051 0.0
H2207 H 0.47159 0.95267 0.83495 0.0
H2208 H 0.45809 0.94474 0.8836 0.0
H2209 H 0.44666 0.94275 0.86037 0.0
H2210 H 0.56023 0.09172 0.87384 0.0
H2211 H 0.54965 0.08941 0.85048 0.0
H2212 H 0.57692 0.06842 0.89083 0.0
H2213 H 0.55949 0.03591 0.90499 0.0
C2214 C 0.15797 0.28983 0.49125 0.0
C2215 C 0.14509 0.30091 0.50497 0.0
C2216 C 0.14494 0.33792 0.48257 0.0
C2217 C 0.16183 0.32985 0.46981 0.0
N2218 N 0.1853 0.29876 0.46178 0.0
N2219 N 0.12805 0.33681 0.51435 0.0
C2220 C 0.16828 0.3057 0.47402 0.0
C2221 C 0.13867 0.32508 0.50073 0.0
N2222 N 0.1599 0.26385 0.49465 0.0
N2223 N 0.13488 0.3579 0.47723 0.0
H2224 H 0.12286 0.32785 0.52773 0.0
H2225 H 0.12644 0.35674 0.51284 0.0
H2226 H 0.13939 0.36785 0.4641 0.0
H2227 H 0.11979 0.36253 0.4851 0.0
H2228 H 0.16613 0.25268 0.48469 0.0
H2229 H 0.1528 0.25189 0.50715 0.0
H2230 H 0.19431 0.28422 0.46484 0.0
H2231 H 0.19178 0.30882 0.4487 0.0
C2232 C 0.69865 0.82594 0.4934 0.0
C2233 C 0.69604 0.8461 0.50635 0.0
C2234 C 0.66926 0.86046 0.48293 0.0
C2235 C 0.66788 0.83718 0.47095 0.0
N2236 N 0.67844 0.79544 0.46518 0.0
N2237 N 0.67448 0.879 0.51449 0.0
C2238 C 0.68199 0.81936 0.47623 0.0
C2239 C 0.68029 0.86255 0.50138 0.0
N2240 N 0.71765 0.81371 0.49735 0.0
N2241 N 0.66056 0.88095 0.47652 0.0
H2242 H 0.68154 0.88065 0.52831 0.0
H2243 H 0.66009 0.88863 0.51208 0.0
H2244 H 0.65266 0.88028 0.46297 0.0
H2245 H 0.66414 0.90036 0.48403 0.0
H2246 H 0.72309 0.80142 0.48772 0.0
H2247 H 0.7303 0.81814 0.50977 0.0
H2248 H 0.68505 0.77943 0.46927 0.0
H2249 H 0.66673 0.79016 0.45241 0.0
C2250 C 0.12445 0.83034 0.4886 0.0
C2251 C 0.1392 0.82514 0.50411 0.0
C2252 C 0.16134 0.80168 0.48339 0.0
C2253 C 0.14191 0.80168 0.46869 0.0
N2254 N 0.10039 0.81166 0.45845 0.0
N2255 N 0.16683 0.80004 0.51656 0.0
C2256 C 0.1223 0.815 0.47153 0.0
C2257 C 0.15651 0.80936 0.5016 0.0
N2258 N 0.11309 0.85042 0.49002 0.0
N2259 N 0.18483 0.7949 0.47992 0.0
H2260 H 0.16241 0.80363 0.53022 0.0
H2261 H 0.17682 0.78584 0.51536 0.0
H2262 H 0.18974 0.79016 0.46661 0.0
H2263 H 0.20149 0.79733 0.48989 0.0
H2264 H 0.10473 0.85713 0.47865 0.0
H2265 H 0.11522 0.8629 0.50211 0.0
H2266 H 0.08347 0.81831 0.46075 0.0
H2267 H 0.0969 0.79947 0.44607 0.0
C2268 C 0.63039 0.82555 0.20168 0.0
C2269 C 0.65065 0.83448 0.18602 0.0
C2270 C 0.69669 0.8634 0.20644 0.0
C2271 C 0.67609 0.85937 0.22135 0.0
N2272 N 0.62265 0.83879 0.23282 0.0
N2273 N 0.70313 0.86581 0.1732 0.0
C2274 C 0.6427 0.84072 0.21898 0.0
C2275 C 0.6839 0.8542 0.18831 0.0
N2276 N 0.59954 0.8023 0.20004 0.0
N2277 N 0.72849 0.87591 0.20966 0.0
H2278 H 0.69475 0.86068 0.15959 0.0
H2279 H 0.72697 0.88289 0.17416 0.0
H2280 H 0.73849 0.88243 0.22289 0.0
H2281 H 0.74425 0.87675 0.1996 0.0
H2282 H 0.58449 0.79284 0.21134 0.0
H2283 H 0.58995 0.79036 0.18762 0.0
H2284 H 0.59816 0.82839 0.23103 0.0
H2285 H 0.63058 0.8497 0.24566 0.0
C2286 C 0.16329 0.81149 0.1878 0.0
C2287 C 0.19596 0.82653 0.18314 0.0
C2288 C 0.20992 0.85312 0.21332 0.0
C2289 C 0.17737 0.83672 0.21827 0.0
N2290 N 0.12431 0.79476 0.21228 0.0
N2291 N 0.25084 0.85683 0.19252 0.0
C2292 C 0.15444 0.81412 0.20614 0.0
C2293 C 0.21947 0.8459 0.19625 0.0
N2294 N 0.14061 0.79593 0.1745 0.0
N2295 N 0.23147 0.87638 0.22454 0.0
H2296 H 0.25862 0.85199 0.18015 0.0
H2297 H 0.26892 0.86843 0.20225 0.0
H2298 H 0.22543 0.88207 0.23724 0.0
H2299 H 0.25485 0.89148 0.22071 0.0
H2300 H 0.11649 0.78752 0.17666 0.0
H2301 H 0.14597 0.79385 0.16077 0.0
H2302 H 0.10748 0.77578 0.20466 0.0
H2303 H 0.11709 0.79579 0.22575 0.0
C2304 C 0.20432 0.38949 0.19934 0.0
C2305 C 0.18507 0.37335 0.18371 0.0
C2306 C 0.14894 0.33191 0.2044 0.0
C2307 C 0.17123 0.34493 0.21915 0.0
N2308 N 0.22325 0.3847 0.22954 0.0
N2309 N 0.14266 0.32498 0.17128 0.0
C2310 C 0.19977 0.37349 0.2164 0.0
C2311 C 0.15824 0.34342 0.18621 0.0
N2312 N 0.2263 0.42025 0.19812 0.0
N2313 N 0.11873 0.30862 0.20777 0.0
H2314 H 0.15005 0.3313 0.15765 0.0
H2315 H 0.12473 0.30197 0.1726 0.0
H2316 H 0.11072 0.30039 0.22109 0.0
H2317 H 0.1009 0.30012 0.19768 0.0
H2318 H 0.23893 0.43365 0.20957 0.0
H2319 H 0.22937 0.43309 0.18616 0.0
H2320 H 0.24569 0.40377 0.22731 0.0
H2321 H 0.22142 0.37338 0.24197 0.0
C2322 C 0.8463 0.64342 0.8302 0.0
C2323 C 0.8148 0.62908 0.83713 0.0
C2324 C 0.79792 0.64544 0.80921 0.0
C2325 C 0.82913 0.65848 0.80196 0.0
N2326 N 0.88023 0.66175 0.80322 0.0
N2327 N 0.7592 0.6098 0.8311 0.0
C2328 C 0.85236 0.65471 0.81172 0.0
C2329 C 0.79013 0.62799 0.82593 0.0
N2330 N 0.87084 0.64803 0.84157 0.0
N2331 N 0.77612 0.65099 0.80071 0.0
H2332 H 0.75264 0.59642 0.84308 0.0
H2333 H 0.74004 0.60564 0.82265 0.0
H2334 H 0.78074 0.66351 0.78847 0.0
H2335 H 0.75426 0.64516 0.80652 0.0
H2336 H 0.8946 0.66133 0.83781 0.0
H2337 H 0.86778 0.6412 0.8554 0.0
H2338 H 0.89685 0.65679 0.80898 0.0
H2339 H 0.88511 0.66952 0.78956 0.0
C2340 C 0.35923 0.16284 0.82438 0.0
C2341 C 0.35564 0.18282 0.837 0.0
C2342 C 0.32766 0.19497 0.81322 0.0
C2343 C 0.32721 0.17171 0.80162 0.0
N2344 N 0.3395 0.13089 0.7967 0.0
N2345 N 0.33207 0.21421 0.84454 0.0
C2346 C 0.34232 0.155 0.80728 0.0
C2347 C 0.33878 0.19803 0.83171 0.0
N2348 N 0.37937 0.152 0.82855 0.0
N2349 N 0.31809 0.21458 0.80642 0.0
H2350 H 0.33917 0.21652 0.85839 0.0
H2351 H 0.31692 0.2229 0.84187 0.0
H2352 H 0.31018 0.21327 0.7928 0.0
H2353 H 0.32097 0.23396 0.81367 0.0
H2354 H 0.38543 0.13994 0.81912 0.0
H2355 H 0.39232 0.15748 0.84091 0.0
H2356 H 0.34701 0.11571 0.80112 0.0
H2357 H 0.32738 0.12448 0.78405 0.0
C2358 C 0.8062 0.17589 0.82342 0.0
C2359 C 0.8179 0.16762 0.83916 0.0
C2360 C 0.8362 0.14026 0.8188 0.0
C2361 C 0.81918 0.14341 0.8038 0.0
N2362 N 0.78534 0.16225 0.79213 0.0
N2363 N 0.84012 0.13779 0.85206 0.0
C2364 C 0.80373 0.16102 0.80609 0.0
C2365 C 0.83221 0.14897 0.83692 0.0
N2366 N 0.79786 0.19824 0.825 0.0
N2367 N 0.85626 0.12896 0.81568 0.0
H2368 H 0.83647 0.14242 0.86565 0.0
H2369 H 0.84744 0.12142 0.8511 0.0
H2370 H 0.86003 0.12284 0.80246 0.0
H2371 H 0.87152 0.12881 0.8258 0.0
H2372 H 0.79196 0.20728 0.81366 0.0
H2373 H 0.79992 0.20996 0.83742 0.0
H2374 H 0.77067 0.17177 0.79382 0.0
H2375 H 0.78276 0.15166 0.77925 0.0
C2376 C 0.33448 0.14666 0.5254 0.0
C2377 C 0.34331 0.17191 0.51323 0.0
C2378 C 0.37369 0.2084 0.53815 0.0
C2379 C 0.36824 0.18313 0.54951 0.0
N2380 N 0.34671 0.12812 0.55345 0.0
N2381 N 0.37472 0.22662 0.50698 0.0
C2382 C 0.34939 0.15217 0.54305 0.0
C2383 C 0.36377 0.20278 0.51933 0.0
N2384 N 0.31126 0.11757 0.52025 0.0
N2385 N 0.38758 0.23767 0.5455 0.0
H2386 H 0.3681 0.22346 0.49303 0.0
H2387 H 0.39241 0.24914 0.5102 0.0
H2388 H 0.39496 0.24261 0.55931 0.0
H2389 H 0.38913 0.25653 0.53842 0.0
H2390 H 0.30143 0.09885 0.52927 0.0
H2391 H 0.29974 0.11267 0.50742 0.0
H2392 H 0.3362 0.10539 0.54857 0.0
H2393 H 0.35727 0.13115 0.56648 0.0
C2394 C 0.8711 0.17865 0.52982 0.0
C2395 C 0.84767 0.15781 0.51714 0.0
C2396 C 0.8068 0.14341 0.54084 0.0
C2397 C 0.82935 0.16715 0.55259 0.0
N2398 N 0.88233 0.21009 0.55761 0.0
N2399 N 0.79232 0.12415 0.50943 0.0
C2400 C 0.86142 0.18548 0.54695 0.0
C2401 C 0.81524 0.14112 0.52235 0.0
N2402 N 0.90257 0.19121 0.52572 0.0
N2403 N 0.77751 0.12258 0.54752 0.0
H2404 H 0.79737 0.1224 0.49558 0.0
H2405 H 0.76811 0.11422 0.51203 0.0
H2406 H 0.77061 0.12332 0.56112 0.0
H2407 H 0.76129 0.10287 0.54018 0.0
H2408 H 0.92074 0.204 0.53521 0.0
H2409 H 0.91054 0.18655 0.51336 0.0
H2410 H 0.90502 0.22633 0.55322 0.0
H2411 H 0.8762 0.21576 0.57029 0.0
C2412 C 0.82694 0.67524 0.51721 0.0
C2413 C 0.85237 0.70596 0.51475 0.0
C2414 C 0.86737 0.70735 0.54746 0.0
C2415 C 0.84003 0.67781 0.55016 0.0
N2416 N 0.78848 0.63911 0.53871 0.0
N2417 N 0.8912 0.75416 0.52916 0.0
C2418 C 0.81802 0.66364 0.53539 0.0
C2419 C 0.8709 0.72299 0.53039 0.0
N2420 N 0.81249 0.65625 0.5023 0.0
N2421 N 0.89075 0.71988 0.56064 0.0
H2422 H 0.8934 0.76666 0.51717 0.0
H2423 H 0.90314 0.76799 0.54062 0.0
H2424 H 0.88972 0.70887 0.57307 0.0
H2425 H 0.91249 0.73988 0.55844 0.0
H2426 H 0.79572 0.63284 0.50366 0.0
H2427 H 0.81987 0.66274 0.48869 0.0
H2428 H 0.77078 0.62959 0.52856 0.0
H2429 H 0.78069 0.63072 0.55204 0.0
loop_
_geom_bond_atom_site_label_1
_geom_bond_atom_site_label_2
_geom_bond_distance
_geom_bond_site_symmetry_2
_ccdc_geom_bond_type
C0 C1 1.386 . S
C0 C2 1.397 . S
C0 H24 0.931 . S
C1 C0 1.386 . S
C1 C5 1.397 . S
C2 C0 1.397 . S
C2 C3 1.384 . S
C2 H25 0.930 . S
C3 C2 1.384 . S
C3 C4 1.377 . S
C3 C6 1.481 . S
C4 C3 1.377 . S
C4 C5 1.389 . S
C4 H26 0.929 . S
C5 C1 1.397 . S
C5 C4 1.389 . S
C5 H27 0.931 . S
C6 C3 1.481 . S
C6 C7 1.387 . S
C6 C11 1.390 . S
C7 C6 1.387 . S
C7 C8 1.401 . S
C7 H28 0.930 . S
C8 C7 1.401 . S
C8 C9 1.376 . S
C8 C17 1.511 . S
C9 C8 1.376 . S
C9 C10 1.392 . S
C9 H30 0.931 . S
C10 C9 1.392 . S
C10 C11 1.361 . S
C10 C12 1.500 . S
C11 C6 1.390 . S
C11 C10 1.361 . S
C11 H29 0.931 . S
C12 C10 1.500 . S
C12 C13 1.371 . S
C12 C14 1.365 . S
C13 C12 1.371 . S
C13 C23 1.386 . S
C13 H31 0.931 . S
C14 C12 1.365 . S
C14 C15 1.409 . S
C14 H32 0.929 . S
C15 C14 1.409 . S
C15 C16 1.380 . S
C15 H33 0.930 . S
C16 C15 1.380 . S
C16 C23 1.357 . S
C17 C8 1.511 . S
C17 C18 1.341 . S
C17 C19 1.371 . S
C18 C17 1.341 . S
C18 C22 1.394 . S
C18 H34 0.930 . S
C19 C17 1.371 . S
C19 C20 1.392 . S
C19 H35 0.931 . S
C20 C19 1.392 . S
C20 C21 1.331 . S
C20 H38 0.932 . S
C21 C20 1.331 . S
C21 C22 1.336 . S
C22 C18 1.394 . S
C22 C21 1.336 . S
C22 H37 0.929 . S
C23 C13 1.386 . S
C23 C16 1.357 . S
C23 H36 0.928 . S
H24 C0 0.931 . S
H25 C2 0.930 . S
H26 C4 0.929 . S
H27 C5 0.931 . S
H28 C7 0.930 . S
H29 C11 0.931 . S
H30 C9 0.931 . S
H31 C13 0.931 . S
H32 C14 0.929 . S
H33 C15 0.930 . S
H34 C18 0.930 . S
H35 C19 0.931 . S
H36 C23 0.928 . S
H37 C22 0.929 . S
H38 C20 0.932 . S
C39 C40 1.386 . S
C39 C41 1.397 . S
C39 H63 0.931 . S
C40 C39 1.386 . S
C40 C44 1.397 . S
C41 C39 1.397 . S
C41 C42 1.384 . S
C41 H64 0.930 . S
C42 C41 1.384 . S
C42 C43 1.377 . S
C42 C45 1.481 . S
C43 C42 1.377 . S
C43 C44 1.389 . S
C43 H65 0.929 . S
C44 C40 1.397 . S
C44 C43 1.389 . S
C44 H66 0.931 . S
C45 C42 1.481 . S
C45 C46 1.387 . S
C45 C50 1.390 . S
C46 C45 1.387 . S
C46 C47 1.401 . S
C46 H67 0.930 . S
C47 C46 1.401 . S
C47 C48 1.376 . S
C47 C56 1.511 . S
C48 C47 1.376 . S
C48 C49 1.392 . S
C48 H69 0.931 . S
C49 C48 1.392 . S
C49 C50 1.361 . S
C49 C51 1.500 . S
C50 C45 1.390 . S
C50 C49 1.361 . S
C50 H68 0.931 . S
C51 C49 1.500 . S
C51 C52 1.371 . S
C51 C53 1.365 . S
C52 C51 1.371 . S
C52 C62 1.386 . S
C52 H70 0.931 . S
C53 C51 1.365 . S
C53 C54 1.409 . S
C53 H71 0.929 . S
C54 C53 1.409 . S
C54 C55 1.380 . S
C54 H72 0.930 1_545 S
C55 C54 1.380 . S
C55 C62 1.357 . S
C56 C47 1.511 . S
C56 C57 1.341 . S
C56 C58 1.371 . S
C57 C56 1.341 . S
C57 C61 1.394 . S
C57 H73 0.930 . S
C58 C56 1.371 . S
C58 C59 1.392 . S
C58 H74 0.931 . S
C59 C58 1.392 . S
C59 C60 1.331 . S
C59 H77 0.932 . S
C60 C59 1.331 . S
C60 C61 1.336 . S
C61 C57 1.394 . S
C61 C60 1.336 . S
C61 H76 0.929 . S
C62 C52 1.386 . S
C62 C55 1.357 . S
C62 H75 0.928 . S
H63 C39 0.931 . S
H64 C41 0.930 . S
H65 C43 0.929 . S
H66 C44 0.931 . S
H67 C46 0.930 . S
H68 C50 0.931 . S
H69 C48 0.931 . S
H70 C52 0.931 . S
H71 C53 0.929 . S
H72 C54 0.930 1_565 S
H73 C57 0.930 . S
H74 C58 0.931 . S
H75 C62 0.928 . S
H76 C61 0.929 . S
H77 C59 0.932 . S
C78 C79 1.386 . S
C78 C80 1.397 . S
C78 H102 0.931 . S
C79 C78 1.386 . S
C79 C83 1.397 . S
C80 C78 1.397 . S
C80 C81 1.384 . S
C80 H103 0.930 . S
C81 C80 1.384 . S
C81 C82 1.377 . S
C81 C84 1.481 . S
C82 C81 1.377 . S
C82 C83 1.389 . S
C82 H104 0.929 . S
C83 C79 1.397 . S
C83 C82 1.389 . S
C83 H105 0.931 . S
C84 C81 1.481 . S
C84 C85 1.387 . S
C84 C89 1.390 . S
C85 C84 1.387 . S
C85 C86 1.401 . S
C85 H106 0.930 . S
C86 C85 1.401 . S
C86 C87 1.376 . S
C86 C95 1.511 . S
C87 C86 1.376 . S
C87 C88 1.392 . S
C87 H108 0.931 . S
C88 C87 1.392 . S
C88 C89 1.361 . S
C88 C90 1.500 . S
C89 C84 1.390 . S
C89 C88 1.361 . S
C89 H107 0.931 . S
C90 C88 1.500 . S
C90 C91 1.371 . S
C90 C92 1.365 . S
C91 C90 1.371 . S
C91 C101 1.386 . S
C91 H109 0.931 . S
C92 C90 1.365 . S
C92 C93 1.409 . S
C92 H110 0.929 . S
C93 C92 1.409 . S
C93 C94 1.380 . S
C93 H111 0.930 . S
C94 C93 1.380 . S
C94 C101 1.357 . S
C95 C86 1.511 . S
C95 C96 1.341 . S
C95 C97 1.371 . S
C96 C95 1.341 . S
C96 C100 1.394 . S
C96 H112 0.930 . S
C97 C95 1.371 . S
C97 C98 1.392 . S
C97 H113 0.931 . S
C98 C97 1.392 . S
C98 C99 1.331 . S
C98 H116 0.932 . S
C99 C98 1.331 . S
C99 C100 1.336 . S
C100 C96 1.394 . S
C100 C99 1.336 . S
C100 H115 0.929 1_655 S
C101 C91 1.386 . S
C101 C94 1.357 . S
C101 H114 0.928 . S
H102 C78 0.931 . S
H103 C80 0.930 . S
H104 C82 0.929 . S
H105 C83 0.931 . S
H106 C85 0.930 . S
H107 C89 0.931 . S
H108 C87 0.931 . S
H109 C91 0.931 . S
H110 C92 0.929 . S
H111 C93 0.930 . S
H112 C96 0.930 . S
H113 C97 0.931 . S
H114 C101 0.928 . S
H115 C100 0.929 1_455 S
H116 C98 0.932 . S
C117 C118 1.386 . S
C117 C119 1.397 . S
C117 H141 0.931 . S
C118 C117 1.386 . S
C118 C122 1.397 . S
C119 C117 1.397 . S
C119 C120 1.384 . S
C119 H142 0.930 . S
C120 C119 1.384 . S
C120 C121 1.377 . S
C120 C123 1.481 . S
C121 C120 1.377 . S
C121 C122 1.389 . S
C121 H143 0.929 . S
C122 C118 1.397 . S
C122 C121 1.389 . S
C122 H144 0.931 . S
C123 C120 1.481 . S
C123 C124 1.387 . S
C123 C128 1.390 . S
C124 C123 1.387 . S
C124 C125 1.401 . S
C124 H145 0.930 . S
C125 C124 1.401 . S
C125 C126 1.376 . S
C125 C134 1.511 . S
C126 C125 1.376 . S
C126 C127 1.392 . S
C126 H147 0.931 . S
C127 C126 1.392 . S
C127 C128 1.361 . S
C127 C129 1.500 . S
C128 C123 1.390 . S
C128 C127 1.361 . S
C128 H146 0.931 . S
C129 C127 1.500 . S
C129 C130 1.371 . S
C129 C131 1.365 . S
C130 C129 1.371 . S
C130 C140 1.386 . S
C130 H148 0.931 . S
C131 C129 1.365 . S
C131 C132 1.409 . S
C131 H149 0.929 . S
C132 C131 1.409 . S
C132 C133 1.380 . S
C132 H150 0.930 . S
C133 C132 1.380 . S
C133 C140 1.357 . S
C134 C125 1.511 . S
C134 C135 1.341 . S
C134 C136 1.371 . S
C135 C134 1.341 . S
C135 C139 1.394 . S
C135 H151 0.930 . S
C136 C134 1.371 . S
C136 C137 1.392 . S
C136 H152 0.931 . S
C137 C136 1.392 . S
C137 C138 1.331 . S
C137 H155 0.932 . S
C138 C137 1.331 . S
C138 C139 1.336 . S
C139 C135 1.394 . S
C139 C138 1.336 . S
C139 H154 0.929 . S
C140 C130 1.386 . S
C140 C133 1.357 . S
C140 H153 0.928 . S
H141 C117 0.931 . S
H142 C119 0.930 . S
H143 C121 0.929 . S
H144 C122 0.931 . S
H145 C124 0.930 . S
H146 C128 0.931 . S
H147 C126 0.931 . S
H148 C130 0.931 . S
H149 C131 0.929 . S
H150 C132 0.930 . S
H151 C135 0.930 . S
H152 C136 0.931 . S
H153 C140 0.928 . S
H154 C139 0.929 . S
H155 C137 0.932 . S
C156 C157 1.386 . S
C156 C158 1.397 . S
C156 H180 0.931 . S
C157 C156 1.386 . S
C157 C161 1.397 . S
C158 C156 1.397 . S
C158 C159 1.384 . S
C158 H181 0.930 . S
C159 C158 1.384 . S
C159 C160 1.377 . S
C159 C162 1.481 . S
C160 C159 1.377 . S
C160 C161 1.389 . S
C160 H182 0.929 . S
C161 C157 1.397 . S
C161 C160 1.389 . S
C161 H183 0.931 . S
C162 C159 1.481 . S
C162 C163 1.387 . S
C162 C167 1.390 . S
C163 C162 1.387 . S
C163 C164 1.401 . S
C163 H184 0.930 . S
C164 C163 1.401 . S
C164 C165 1.376 . S
C164 C173 1.511 . S
C165 C164 1.376 . S
C165 C166 1.392 . S
C165 H186 0.931 . S
C166 C165 1.392 . S
C166 C167 1.361 . S
C166 C168 1.500 . S
C167 C162 1.390 . S
C167 C166 1.361 . S
C167 H185 0.931 . S
C168 C166 1.500 . S
C168 C169 1.371 . S
C168 C170 1.365 . S
C169 C168 1.371 . S
C169 C179 1.386 . S
C169 H187 0.931 . S
C170 C168 1.365 . S
C170 C171 1.409 . S
C170 H188 0.929 . S
C171 C170 1.409 . S
C171 C172 1.380 . S
C171 H189 0.930 1_565 S
C172 C171 1.380 . S
C172 C179 1.357 . S
C173 C164 1.511 . S
C173 C174 1.341 . S
C173 C175 1.371 . S
C174 C173 1.341 . S
C174 C178 1.394 . S
C174 H190 0.930 . S
C175 C173 1.371 . S
C175 C176 1.392 . S
C175 H191 0.931 . S
C176 C175 1.392 . S
C176 C177 1.331 . S
C176 H194 0.932 . S
C177 C176 1.331 . S
C177 C178 1.336 . S
C178 C174 1.394 . S
C178 C177 1.336 . S
C178 H193 0.929 . S
C179 C169 1.386 . S
C179 C172 1.357 . S
C179 H192 0.928 . S
H180 C156 0.931 . S
H181 C158 0.930 . S
H182 C160 0.929 . S
H183 C161 0.931 . S
H184 C163 0.930 . S
H185 C167 0.931 . S
H186 C165 0.931 . S
H187 C169 0.931 . S
H188 C170 0.929 . S
H189 C171 0.930 1_545 S
H190 C174 0.930 . S
H191 C175 0.931 . S
H192 C179 0.928 . S
H193 C178 0.929 . S
H194 C176 0.932 . S
C195 C196 1.386 . S
C195 C197 1.397 . S
C195 H219 0.931 . S
C196 C195 1.386 . S
C196 C200 1.397 . S
C197 C195 1.397 . S
C197 C198 1.384 . S
C197 H220 0.930 . S
C198 C197 1.384 . S
C198 C199 1.377 . S
C198 C201 1.481 . S
C199 C198 1.377 . S
C199 C200 1.389 . S
C199 H221 0.929 . S
C200 C196 1.397 . S
C200 C199 1.389 . S
C200 H222 0.931 . S
C201 C198 1.481 . S
C201 C202 1.387 . S
C201 C206 1.390 . S
C202 C201 1.387 . S
C202 C203 1.401 . S
C202 H223 0.930 . S
C203 C202 1.401 . S
C203 C204 1.376 . S
C203 C212 1.511 . S
C204 C203 1.376 . S
C204 C205 1.392 . S
C204 H225 0.931 . S
C205 C204 1.392 . S
C205 C206 1.361 . S
C205 C207 1.500 . S
C206 C201 1.390 . S
C206 C205 1.361 . S
C206 H224 0.931 . S
C207 C205 1.500 . S
C207 C208 1.371 . S
C207 C209 1.365 . S
C208 C207 1.371 . S
C208 C218 1.386 . S
C208 H226 0.931 . S
C209 C207 1.365 . S
C209 C210 1.409 . S
C209 H227 0.929 . S
C210 C209 1.409 . S
C210 C211 1.380 . S
C210 H228 0.930 . S
C211 C210 1.380 . S
C211 C218 1.357 . S
C212 C203 1.511 . S
C212 C213 1.341 . S
C212 C214 1.371 . S
C213 C212 1.341 . S
C213 C217 1.394 . S
C213 H229 0.930 . S
C214 C212 1.371 . S
C214 C215 1.392 . S
C214 H230 0.931 . S
C215 C214 1.392 . S
C215 C216 1.331 . S
C215 H233 0.932 . S
C216 C215 1.331 . S
C216 C217 1.336 . S
C217 C213 1.394 . S
C217 C216 1.336 . S
C217 H232 0.929 1_455 S
C218 C208 1.386 . S
C218 C211 1.357 . S
C218 H231 0.928 . S
H219 C195 0.931 . S
H220 C197 0.930 . S
H221 C199 0.929 . S
H222 C200 0.931 . S
H223 C202 0.930 . S
H224 C206 0.931 . S
H225 C204 0.931 . S
H226 C208 0.931 . S
H227 C209 0.929 . S
H228 C210 0.930 . S
H229 C213 0.930 . S
H230 C214 0.931 . S
H231 C218 0.928 . S
H232 C217 0.929 1_655 S
H233 C215 0.932 . S
C234 C235 1.386 . S
C234 C236 1.397 . S
C234 H258 0.931 . S
C235 C234 1.386 . S
C235 C239 1.397 . S
C236 C234 1.397 . S
C236 C237 1.384 . S
C236 H259 0.930 . S
C237 C236 1.384 . S
C237 C238 1.377 . S
C237 C240 1.481 . S
C238 C237 1.377 . S
C238 C239 1.389 . S
C238 H260 0.929 . S
C239 C235 1.397 . S
C239 C238 1.389 . S
C239 H261 0.931 . S
C240 C237 1.481 . S
C240 C241 1.387 . S
C240 C245 1.390 . S
C241 C240 1.387 . S
C241 C242 1.401 . S
C241 H262 0.930 . S
C242 C241 1.401 . S
C242 C243 1.376 . S
C242 C251 1.511 . S
C243 C242 1.376 . S
C243 C244 1.392 . S
C243 H264 0.931 . S
C244 C243 1.392 . S
C244 C245 1.361 . S
C244 C246 1.500 . S
C245 C240 1.390 . S
C245 C244 1.361 . S
C245 H263 0.931 . S
C246 C244 1.500 . S
C246 C247 1.371 . S
C246 C248 1.365 . S
C247 C246 1.371 . S
C247 C257 1.386 . S
C247 H265 0.931 . S
C248 C246 1.365 . S
C248 C249 1.409 . S
C248 H266 0.929 . S
C249 C248 1.409 . S
C249 C250 1.380 . S
C249 H267 0.930 . S
C250 C249 1.380 . S
C250 C257 1.357 . S
C251 C242 1.511 . S
C251 C252 1.341 . S
C251 C253 1.371 . S
C252 C251 1.341 . S
C252 C256 1.394 . S
C252 H268 0.930 . S
C253 C251 1.371 . S
C253 C254 1.392 . S
C253 H269 0.931 . S
C254 C253 1.392 . S
C254 C255 1.331 . S
C254 H272 0.932 . S
C255 C254 1.331 . S
C255 C256 1.336 . S
C256 C252 1.394 . S
C256 C255 1.336 . S
C256 H271 0.929 . S
C257 C247 1.386 . S
C257 C250 1.357 . S
C257 H270 0.928 . S
H258 C234 0.931 . S
H259 C236 0.930 . S
H260 C238 0.929 . S
H261 C239 0.931 . S
H262 C241 0.930 . S
H263 C245 0.931 . S
H264 C243 0.931 . S
H265 C247 0.931 . S
H266 C248 0.929 . S
H267 C249 0.930 . S
H268 C252 0.930 . S
H269 C253 0.931 . S
H270 C257 0.928 . S
H271 C256 0.929 . S
H272 C254 0.932 . S
C273 C274 1.386 . S
C273 C275 1.397 . S
C273 H297 0.931 . S
C274 C273 1.386 . S
C274 C278 1.397 . S
C275 C273 1.397 . S
C275 C276 1.384 . S
C275 H298 0.930 . S
C276 C275 1.384 . S
C276 C277 1.377 . S
C276 C279 1.481 . S
C277 C276 1.377 . S
C277 C278 1.389 . S
C277 H299 0.929 . S
C278 C274 1.397 . S
C278 C277 1.389 . S
C278 H300 0.931 . S
C279 C276 1.481 . S
C279 C280 1.387 . S
C279 C284 1.390 . S
C280 C279 1.387 . S
C280 C281 1.401 . S
C280 H301 0.930 . S
C281 C280 1.401 . S
C281 C282 1.376 . S
C281 C290 1.511 . S
C282 C281 1.376 . S
C282 C283 1.392 . S
C282 H303 0.931 . S
C283 C282 1.392 . S
C283 C284 1.361 . S
C283 C285 1.500 . S
C284 C279 1.390 . S
C284 C283 1.361 . S
C284 H302 0.931 . S
C285 C283 1.500 . S
C285 C286 1.371 . S
C285 C287 1.365 . S
C286 C285 1.371 . S
C286 C296 1.386 . S
C286 H304 0.931 . S
C287 C285 1.365 . S
C287 C288 1.409 . S
C287 H305 0.929 . S
C288 C287 1.409 . S
C288 C289 1.380 . S
C288 H306 0.930 . S
C289 C288 1.380 . S
C289 C296 1.357 . S
C290 C281 1.511 . S
C290 C291 1.341 . S
C290 C292 1.371 . S
C291 C290 1.341 . S
C291 C295 1.394 . S
C291 H307 0.930 . S
C292 C290 1.371 . S
C292 C293 1.392 . S
C292 H308 0.931 . S
C293 C292 1.392 . S
C293 C294 1.331 . S
C293 H311 0.932 . S
C294 C293 1.331 . S
C294 C295 1.336 . S
C295 C291 1.394 . S
C295 C294 1.336 . S
C295 H310 0.929 . S
C296 C286 1.386 . S
C296 C289 1.357 . S
C296 H309 0.928 . S
H297 C273 0.931 . S
H298 C275 0.930 . S
H299 C277 0.929 . S
H300 C278 0.931 . S
H301 C280 0.930 . S
H302 C284 0.931 . S
H303 C282 0.931 . S
H304 C286 0.931 . S
H305 C287 0.929 . S
H306 C288 0.930 . S
H307 C291 0.930 . S
H308 C292 0.931 . S
H309 C296 0.928 . S
H310 C295 0.929 . S
H311 C293 0.932 . S
C312 C313 1.386 . S
C312 C314 1.397 . S
C312 H336 0.931 . S
C313 C312 1.386 . S
C313 C317 1.397 . S
C314 C312 1.397 . S
C314 C315 1.384 . S
C314 H337 0.930 . S
C315 C314 1.384 . S
C315 C316 1.377 . S
C315 C318 1.481 . S
C316 C315 1.377 . S
C316 C317 1.389 . S
C316 H338 0.929 . S
C317 C313 1.397 . S
C317 C316 1.389 . S
C317 H339 0.931 . S
C318 C315 1.481 . S
C318 C319 1.387 . S
C318 C323 1.390 . S
C319 C318 1.387 . S
C319 C320 1.401 . S
C319 H340 0.930 . S
C320 C319 1.401 . S
C320 C321 1.376 . S
C320 C329 1.511 . S
C321 C320 1.376 . S
C321 C322 1.392 . S
C321 H342 0.931 . S
C322 C321 1.392 . S
C322 C323 1.361 . S
C322 C324 1.500 . S
C323 C318 1.390 . S
C323 C322 1.361 . S
C323 H341 0.931 . S
C324 C322 1.500 . S
C324 C325 1.371 . S
C324 C326 1.365 . S
C325 C324 1.371 . S
C325 C335 1.386 . S
C325 H343 0.931 . S
C326 C324 1.365 . S
C326 C327 1.409 . S
C326 H344 0.929 . S
C327 C326 1.409 . S
C327 C328 1.380 . S
C327 H345 0.930 . S
C328 C327 1.380 . S
C328 C335 1.357 . S
C329 C320 1.511 . S
C329 C330 1.341 . S
C329 C331 1.371 . S
C330 C329 1.341 . S
C330 C334 1.394 . S
C330 H346 0.930 . S
C331 C329 1.371 . S
C331 C332 1.392 . S
C331 H347 0.931 . S
C332 C331 1.392 . S
C332 C333 1.331 . S
C332 H350 0.932 . S
C333 C332 1.331 . S
C333 C334 1.336 . S
C334 C330 1.394 . S
C334 C333 1.336 . S
C334 H349 0.929 . S
C335 C325 1.386 . S
C335 C328 1.357 . S
C335 H348 0.928 . S
H336 C312 0.931 . S
H337 C314 0.930 . S
H338 C316 0.929 . S
H339 C317 0.931 . S
H340 C319 0.930 . S
H341 C323 0.931 . S
H342 C321 0.931 . S
H343 C325 0.931 . S
H344 C326 0.929 . S
H345 C327 0.930 . S
H346 C330 0.930 . S
H347 C331 0.931 . S
H348 C335 0.928 . S
H349 C334 0.929 . S
H350 C332 0.932 . S
C351 C352 1.386 . S
C351 C353 1.397 . S
C351 H375 0.931 . S
C352 C351 1.386 . S
C352 C356 1.397 . S
C353 C351 1.397 . S
C353 C354 1.384 . S
C353 H376 0.930 . S
C354 C353 1.384 . S
C354 C355 1.377 . S
C354 C357 1.481 . S
C355 C354 1.377 . S
C355 C356 1.389 . S
C355 H377 0.929 . S
C356 C352 1.397 . S
C356 C355 1.389 . S
C356 H378 0.931 . S
C357 C354 1.481 . S
C357 C358 1.387 . S
C357 C362 1.390 . S
C358 C357 1.387 . S
C358 C359 1.401 . S
C358 H379 0.930 . S
C359 C358 1.401 . S
C359 C360 1.376 . S
C359 C368 1.511 . S
C360 C359 1.376 . S
C360 C361 1.392 . S
C360 H381 0.931 . S
C361 C360 1.392 . S
C361 C362 1.361 . S
C361 C363 1.500 . S
C362 C357 1.390 . S
C362 C361 1.361 . S
C362 H380 0.931 . S
C363 C361 1.500 . S
C363 C364 1.371 . S
C363 C365 1.365 . S
C364 C363 1.371 . S
C364 C374 1.386 . S
C364 H382 0.931 . S
C365 C363 1.365 . S
C365 C366 1.409 . S
C365 H383 0.929 . S
C366 C365 1.409 . S
C366 C367 1.380 . S
C366 H384 0.930 . S
C367 C366 1.380 . S
C367 C374 1.357 . S
C368 C359 1.511 . S
C368 C369 1.341 . S
C368 C370 1.371 . S
C369 C368 1.341 . S
C369 C373 1.394 . S
C369 H385 0.930 . S
C370 C368 1.371 . S
C370 C371 1.392 . S
C370 H386 0.931 . S
C371 C370 1.392 . S
C371 C372 1.331 . S
C371 H389 0.932 . S
C372 C371 1.331 . S
C372 C373 1.336 . S
C373 C369 1.394 . S
C373 C372 1.336 . S
C373 H388 0.929 . S
C374 C364 1.386 . S
C374 C367 1.357 . S
C374 H387 0.928 . S
H375 C351 0.931 . S
H376 C353 0.930 . S
H377 C355 0.929 . S
H378 C356 0.931 . S
H379 C358 0.930 . S
H380 C362 0.931 . S
H381 C360 0.931 . S
H382 C364 0.931 . S
H383 C365 0.929 . S
H384 C366 0.930 . S
H385 C369 0.930 . S
H386 C370 0.931 . S
H387 C374 0.928 . S
H388 C373 0.929 . S
H389 C371 0.932 . S
C390 C391 1.386 . S
C390 C392 1.397 . S
C390 H414 0.931 . S
C391 C390 1.386 . S
C391 C395 1.397 . S
C392 C390 1.397 . S
C392 C393 1.384 . S
C392 H415 0.930 . S
C393 C392 1.384 . S
C393 C394 1.377 . S
C393 C396 1.481 . S
C394 C393 1.377 . S
C394 C395 1.389 . S
C394 H416 0.929 . S
C395 C391 1.397 . S
C395 C394 1.389 . S
C395 H417 0.931 . S
C396 C393 1.481 . S
C396 C397 1.387 . S
C396 C401 1.390 . S
C397 C396 1.387 . S
C397 C398 1.401 . S
C397 H418 0.930 . S
C398 C397 1.401 . S
C398 C399 1.376 . S
C398 C407 1.511 . S
C399 C398 1.376 . S
C399 C400 1.392 . S
C399 H420 0.931 . S
C400 C399 1.392 . S
C400 C401 1.361 . S
C400 C402 1.500 . S
C401 C396 1.390 . S
C401 C400 1.361 . S
C401 H419 0.931 . S
C402 C400 1.500 . S
C402 C403 1.371 . S
C402 C404 1.365 . S
C403 C402 1.371 . S
C403 C413 1.386 . S
C403 H421 0.931 . S
C404 C402 1.365 . S
C404 C405 1.409 . S
C404 H422 0.929 . S
C405 C404 1.409 . S
C405 C406 1.380 . S
C405 H423 0.930 . S
C406 C405 1.380 . S
C406 C413 1.357 . S
C407 C398 1.511 . S
C407 C408 1.341 . S
C407 C409 1.371 . S
C408 C407 1.341 . S
C408 C412 1.394 . S
C408 H424 0.930 . S
C409 C407 1.371 . S
C409 C410 1.392 . S
C409 H425 0.931 . S
C410 C409 1.392 . S
C410 C411 1.331 . S
C410 H428 0.932 . S
C411 C410 1.331 . S
C411 C412 1.336 . S
C412 C408 1.394 . S
C412 C411 1.336 . S
C412 H427 0.929 . S
C413 C403 1.386 . S
C413 C406 1.357 . S
C413 H426 0.928 . S
H414 C390 0.931 . S
H415 C392 0.930 . S
H416 C394 0.929 . S
H417 C395 0.931 . S
H418 C397 0.930 . S
H419 C401 0.931 . S
H420 C399 0.931 . S
H421 C403 0.931 . S
H422 C404 0.929 . S
H423 C405 0.930 . S
H424 C408 0.930 . S
H425 C409 0.931 . S
H426 C413 0.928 . S
H427 C412 0.929 . S
H428 C410 0.932 . S
C429 C430 1.386 . S
C429 C431 1.397 . S
C429 H453 0.931 . S
C430 C429 1.386 . S
C430 C434 1.397 . S
C431 C429 1.397 . S
C431 C432 1.384 . S
C431 H454 0.930 . S
C432 C431 1.384 . S
C432 C433 1.377 . S
C432 C435 1.481 . S
C433 C432 1.377 . S
C433 C434 1.389 . S
C433 H455 0.929 . S
C434 C430 1.397 . S
C434 C433 1.389 . S
C434 H456 0.931 . S
C435 C432 1.481 . S
C435 C436 1.387 . S
C435 C440 1.390 . S
C436 C435 1.387 . S
C436 C437 1.401 . S
C436 H457 0.930 . S
C437 C436 1.401 . S
C437 C438 1.376 . S
C437 C446 1.511 . S
C438 C437 1.376 . S
C438 C439 1.392 . S
C438 H459 0.931 . S
C439 C438 1.392 . S
C439 C440 1.361 . S
C439 C441 1.500 . S
C440 C435 1.390 . S
C440 C439 1.361 . S
C440 H458 0.931 . S
C441 C439 1.500 . S
C441 C442 1.371 . S
C441 C443 1.365 . S
C442 C441 1.371 . S
C442 C452 1.386 . S
C442 H460 0.931 . S
C443 C441 1.365 . S
C443 C444 1.409 . S
C443 H461 0.929 . S
C444 C443 1.409 . S
C444 C445 1.380 . S
C444 H462 0.930 . S
C445 C444 1.380 . S
C445 C452 1.357 . S
C446 C437 1.511 . S
C446 C447 1.341 . S
C446 C448 1.371 . S
C447 C446 1.341 . S
C447 C451 1.394 . S
C447 H463 0.930 . S
C448 C446 1.371 . S
C448 C449 1.392 . S
C448 H464 0.931 . S
C449 C448 1.392 . S
C449 C450 1.331 . S
C449 H467 0.932 . S
C450 C449 1.331 . S
C450 C451 1.336 . S
C451 C447 1.394 . S
C451 C450 1.336 . S
C451 H466 0.929 . S
C452 C442 1.386 . S
C452 C445 1.357 . S
C452 H465 0.928 . S
H453 C429 0.931 . S
H454 C431 0.930 . S
H455 C433 0.929 . S
H456 C434 0.931 . S
H457 C436 0.930 . S
H458 C440 0.931 . S
H459 C438 0.931 . S
H460 C442 0.931 . S
H461 C443 0.929 . S
H462 C444 0.930 . S
H463 C447 0.930 . S
H464 C448 0.931 . S
H465 C452 0.928 . S
H466 C451 0.929 . S
H467 C449 0.932 . S
C468 C469 1.386 . S
C468 C470 1.397 . S
C468 H492 0.931 . S
C469 C468 1.386 . S
C469 C473 1.397 . S
C470 C468 1.397 . S
C470 C471 1.384 . S
C470 H493 0.930 . S
C471 C470 1.384 . S
C471 C472 1.377 . S
C471 C474 1.481 . S
C472 C471 1.377 . S
C472 C473 1.389 . S
C472 H494 0.929 . S
C473 C469 1.397 . S
C473 C472 1.389 . S
C473 H495 0.931 . S
C474 C471 1.481 . S
C474 C475 1.387 . S
C474 C479 1.390 . S
C475 C474 1.387 . S
C475 C476 1.401 . S
C475 H496 0.930 . S
C476 C475 1.401 . S
C476 C477 1.376 . S
C476 C485 1.511 . S
C477 C476 1.376 . S
C477 C478 1.392 . S
C477 H498 0.931 . S
C478 C477 1.392 . S
C478 C479 1.361 . S
C478 C480 1.500 . S
C479 C474 1.390 . S
C479 C478 1.361 . S
C479 H497 0.931 . S
C480 C478 1.500 . S
C480 C481 1.371 . S
C480 C482 1.365 . S
C481 C480 1.371 . S
C481 C491 1.386 . S
C481 H499 0.931 . S
C482 C480 1.365 . S
C482 C483 1.409 . S
C482 H500 0.929 . S
C483 C482 1.409 . S
C483 C484 1.380 . S
C483 H501 0.930 . S
C484 C483 1.380 . S
C484 C491 1.357 . S
C485 C476 1.511 . S
C485 C486 1.341 . S
C485 C487 1.371 . S
C486 C485 1.341 . S
C486 C490 1.394 . S
C486 H502 0.930 . S
C487 C485 1.371 . S
C487 C488 1.392 . S
C487 H503 0.931 . S
C488 C487 1.392 . S
C488 C489 1.331 . S
C488 H506 0.932 . S
C489 C488 1.331 . S
C489 C490 1.336 . S
C490 C486 1.394 . S
C490 C489 1.336 . S
C490 H505 0.929 . S
C491 C481 1.386 . S
C491 C484 1.357 . S
C491 H504 0.928 . S
H492 C468 0.931 . S
H493 C470 0.930 . S
H494 C472 0.929 . S
H495 C473 0.931 . S
H496 C475 0.930 . S
H497 C479 0.931 . S
H498 C477 0.931 . S
H499 C481 0.931 . S
H500 C482 0.929 . S
H501 C483 0.930 . S
H502 C486 0.930 . S
H503 C487 0.931 . S
H504 C491 0.928 . S
H505 C490 0.929 . S
H506 C488 0.932 . S
C507 C508 1.386 . S
C507 C509 1.397 . S
C507 H531 0.931 . S
C508 C507 1.386 . S
C508 C512 1.397 . S
C509 C507 1.397 . S
C509 C510 1.384 . S
C509 H532 0.930 . S
C510 C509 1.384 . S
C510 C511 1.377 . S
C510 C513 1.481 . S
C511 C510 1.377 . S
C511 C512 1.389 . S
C511 H533 0.929 . S
C512 C508 1.397 . S
C512 C511 1.389 . S
C512 H534 0.931 . S
C513 C510 1.481 . S
C513 C514 1.387 . S
C513 C518 1.390 . S
C514 C513 1.387 . S
C514 C515 1.401 . S
C514 H535 0.930 . S
C515 C514 1.401 . S
C515 C516 1.376 . S
C515 C524 1.511 . S
C516 C515 1.376 . S
C516 C517 1.392 . S
C516 H537 0.931 . S
C517 C516 1.392 . S
C517 C518 1.361 . S
C517 C519 1.500 . S
C518 C513 1.390 . S
C518 C517 1.361 . S
C518 H536 0.931 . S
C519 C517 1.500 . S
C519 C520 1.371 . S
C519 C521 1.365 . S
C520 C519 1.371 . S
C520 C530 1.386 . S
C520 H538 0.931 . S
C521 C519 1.365 . S
C521 C522 1.409 . S
C521 H539 0.929 . S
C522 C521 1.409 . S
C522 C523 1.380 . S
C522 H540 0.930 . S
C523 C522 1.380 . S
C523 C530 1.357 . S
C524 C515 1.511 . S
C524 C525 1.341 . S
C524 C526 1.371 . S
C525 C524 1.341 . S
C525 C529 1.394 . S
C525 H541 0.930 . S
C526 C524 1.371 . S
C526 C527 1.392 . S
C526 H542 0.931 . S
C527 C526 1.392 . S
C527 C528 1.331 . S
C527 H545 0.932 . S
C528 C527 1.331 . S
C528 C529 1.336 . S
C529 C525 1.394 . S
C529 C528 1.336 . S
C529 H544 0.929 . S
C530 C520 1.386 . S
C530 C523 1.357 . S
C530 H543 0.928 . S
H531 C507 0.931 . S
H532 C509 0.930 . S
H533 C511 0.929 . S
H534 C512 0.931 . S
H535 C514 0.930 . S
H536 C518 0.931 . S
H537 C516 0.931 . S
H538 C520 0.931 . S
H539 C521 0.929 . S
H540 C522 0.930 . S
H541 C525 0.930 . S
H542 C526 0.931 . S
H543 C530 0.928 . S
H544 C529 0.929 . S
H545 C527 0.932 . S
C546 C547 1.386 . S
C546 C548 1.397 . S
C546 H570 0.931 . S
C547 C546 1.386 . S
C547 C551 1.397 . S
C548 C546 1.397 . S
C548 C549 1.384 . S
C548 H571 0.930 . S
C549 C548 1.384 . S
C549 C550 1.377 . S
C549 C552 1.481 . S
C550 C549 1.377 . S
C550 C551 1.389 . S
C550 H572 0.929 . S
C551 C547 1.397 . S
C551 C550 1.389 . S
C551 H573 0.931 . S
C552 C549 1.481 . S
C552 C553 1.387 . S
C552 C557 1.390 . S
C553 C552 1.387 . S
C553 C554 1.401 . S
C553 H574 0.930 . S
C554 C553 1.401 . S
C554 C555 1.376 . S
C554 C563 1.511 . S
C555 C554 1.376 . S
C555 C556 1.392 . S
C555 H576 0.931 . S
C556 C555 1.392 . S
C556 C557 1.361 . S
C556 C558 1.500 . S
C557 C552 1.390 . S
C557 C556 1.361 . S
C557 H575 0.931 . S
C558 C556 1.500 . S
C558 C559 1.371 . S
C558 C560 1.365 . S
C559 C558 1.371 . S
C559 C569 1.386 . S
C559 H577 0.931 . S
C560 C558 1.365 . S
C560 C561 1.409 . S
C560 H578 0.929 . S
C561 C560 1.409 . S
C561 C562 1.380 . S
C561 H579 0.930 . S
C562 C561 1.380 . S
C562 C569 1.357 . S
C563 C554 1.511 . S
C563 C564 1.341 . S
C563 C565 1.371 . S
C564 C563 1.341 . S
C564 C568 1.394 . S
C564 H580 0.930 . S
C565 C563 1.371 . S
C565 C566 1.392 . S
C565 H581 0.931 . S
C566 C565 1.392 . S
C566 C567 1.331 . S
C566 H584 0.932 . S
C567 C566 1.331 . S
C567 C568 1.336 . S
C568 C564 1.394 . S
C568 C567 1.336 . S
C568 H583 0.929 . S
C569 C559 1.386 . S
C569 C562 1.357 . S
C569 H582 0.928 . S
H570 C546 0.931 . S
H571 C548 0.930 . S
H572 C550 0.929 . S
H573 C551 0.931 . S
H574 C553 0.930 . S
H575 C557 0.931 . S
H576 C555 0.931 . S
H577 C559 0.931 . S
H578 C560 0.929 . S
H579 C561 0.930 . S
H580 C564 0.930 . S
H581 C565 0.931 . S
H582 C569 0.928 . S
H583 C568 0.929 . S
H584 C566 0.932 . S
C585 C586 1.386 . S
C585 C587 1.397 . S
C585 H609 0.931 . S
C586 C585 1.386 . S
C586 C590 1.397 . S
C587 C585 1.397 . S
C587 C588 1.384 . S
C587 H610 0.930 . S
C588 C587 1.384 . S
C588 C589 1.377 . S
C588 C591 1.481 . S
C589 C588 1.377 . S
C589 C590 1.389 . S
C589 H611 0.929 . S
C590 C586 1.397 . S
C590 C589 1.389 . S
C590 H612 0.931 . S
C591 C588 1.481 . S
C591 C592 1.387 . S
C591 C596 1.390 . S
C592 C591 1.387 . S
C592 C593 1.401 . S
C592 H613 0.930 . S
C593 C592 1.401 . S
C593 C594 1.376 . S
C593 C602 1.511 . S
C594 C593 1.376 . S
C594 C595 1.392 . S
C594 H615 0.931 . S
C595 C594 1.392 . S
C595 C596 1.361 . S
C595 C597 1.500 . S
C596 C591 1.390 . S
C596 C595 1.361 . S
C596 H614 0.931 . S
C597 C595 1.500 . S
C597 C598 1.371 . S
C597 C599 1.365 . S
C598 C597 1.371 . S
C598 C608 1.386 . S
C598 H616 0.931 . S
C599 C597 1.365 . S
C599 C600 1.409 . S
C599 H617 0.929 . S
C600 C599 1.409 . S
C600 C601 1.380 . S
C600 H618 0.930 . S
C601 C600 1.380 . S
C601 C608 1.357 . S
C602 C593 1.511 . S
C602 C603 1.341 . S
C602 C604 1.371 . S
C603 C602 1.341 . S
C603 C607 1.394 . S
C603 H619 0.930 . S
C604 C602 1.371 . S
C604 C605 1.392 . S
C604 H620 0.931 . S
C605 C604 1.392 . S
C605 C606 1.331 . S
C605 H623 0.932 . S
C606 C605 1.331 . S
C606 C607 1.336 . S
C607 C603 1.394 . S
C607 C606 1.336 . S
C607 H622 0.929 . S
C608 C598 1.386 . S
C608 C601 1.357 . S
C608 H621 0.928 . S
H609 C585 0.931 . S
H610 C587 0.930 . S
H611 C589 0.929 . S
H612 C590 0.931 . S
H613 C592 0.930 . S
H614 C596 0.931 . S
H615 C594 0.931 . S
H616 C598 0.931 . S
H617 C599 0.929 . S
H618 C600 0.930 . S
H619 C603 0.930 . S
H620 C604 0.931 . S
H621 C608 0.928 . S
H622 C607 0.929 . S
H623 C605 0.932 . S
C624 C625 1.386 . S
C624 C626 1.397 . S
C624 H648 0.931 . S
C625 C624 1.386 . S
C625 C629 1.397 . S
C626 C624 1.397 . S
C626 C627 1.384 . S
C626 H649 0.930 . S
C627 C626 1.384 . S
C627 C628 1.377 . S
C627 C630 1.481 . S
C628 C627 1.377 . S
C628 C629 1.389 . S
C628 H650 0.929 . S
C629 C625 1.397 . S
C629 C628 1.389 . S
C629 H651 0.931 . S
C630 C627 1.481 . S
C630 C631 1.387 . S
C630 C635 1.390 . S
C631 C630 1.387 . S
C631 C632 1.401 . S
C631 H652 0.930 . S
C632 C631 1.401 . S
C632 C633 1.376 . S
C632 C641 1.511 . S
C633 C632 1.376 . S
C633 C634 1.392 . S
C633 H654 0.931 . S
C634 C633 1.392 . S
C634 C635 1.361 . S
C634 C636 1.500 . S
C635 C630 1.390 . S
C635 C634 1.361 . S
C635 H653 0.931 . S
C636 C634 1.500 . S
C636 C637 1.371 . S
C636 C638 1.365 . S
C637 C636 1.371 . S
C637 C647 1.386 . S
C637 H655 0.931 . S
C638 C636 1.365 . S
C638 C639 1.409 . S
C638 H656 0.929 . S
C639 C638 1.409 . S
C639 C640 1.380 . S
C639 H657 0.930 . S
C640 C639 1.380 . S
C640 C647 1.357 . S
C641 C632 1.511 . S
C641 C642 1.341 . S
C641 C643 1.371 . S
C642 C641 1.341 . S
C642 C646 1.394 . S
C642 H658 0.930 . S
C643 C641 1.371 . S
C643 C644 1.392 . S
C643 H659 0.931 . S
C644 C643 1.392 . S
C644 C645 1.331 . S
C644 H662 0.932 . S
C645 C644 1.331 . S
C645 C646 1.336 . S
C646 C642 1.394 . S
C646 C645 1.336 . S
C646 H661 0.929 . S
C647 C637 1.386 . S
C647 C640 1.357 . S
C647 H660 0.928 . S
H648 C624 0.931 . S
H649 C626 0.930 . S
H650 C628 0.929 . S
H651 C629 0.931 . S
H652 C631 0.930 . S
H653 C635 0.931 . S
H654 C633 0.931 . S
H655 C637 0.931 . S
H656 C638 0.929 . S
H657 C639 0.930 . S
H658 C642 0.930 . S
H659 C643 0.931 . S
H660 C647 0.928 . S
H661 C646 0.929 . S
H662 C644 0.932 . S
C663 C664 1.386 . S
C663 C665 1.397 . S
C663 H687 0.931 . S
C664 C663 1.386 . S
C664 C668 1.397 . S
C665 C663 1.397 . S
C665 C666 1.384 . S
C665 H688 0.930 . S
C666 C665 1.384 . S
C666 C667 1.377 . S
C666 C669 1.481 . S
C667 C666 1.377 . S
C667 C668 1.389 . S
C667 H689 0.929 . S
C668 C664 1.397 . S
C668 C667 1.389 . S
C668 H690 0.931 . S
C669 C666 1.481 . S
C669 C670 1.387 . S
C669 C674 1.390 . S
C670 C669 1.387 . S
C670 C671 1.401 . S
C670 H691 0.930 . S
C671 C670 1.401 . S
C671 C672 1.376 . S
C671 C680 1.511 . S
C672 C671 1.376 . S
C672 C673 1.392 . S
C672 H693 0.931 . S
C673 C672 1.392 . S
C673 C674 1.361 . S
C673 C675 1.500 . S
C674 C669 1.390 . S
C674 C673 1.361 . S
C674 H692 0.931 . S
C675 C673 1.500 . S
C675 C676 1.371 . S
C675 C677 1.365 . S
C676 C675 1.371 . S
C676 C686 1.386 . S
C676 H694 0.931 . S
C677 C675 1.365 . S
C677 C678 1.409 . S
C677 H695 0.929 . S
C678 C677 1.409 . S
C678 C679 1.380 . S
C678 H696 0.930 . S
C679 C678 1.380 . S
C679 C686 1.357 . S
C680 C671 1.511 . S
C680 C681 1.341 . S
C680 C682 1.371 . S
C681 C680 1.341 . S
C681 C685 1.394 . S
C681 H697 0.930 . S
C682 C680 1.371 . S
C682 C683 1.392 . S
C682 H698 0.931 . S
C683 C682 1.392 . S
C683 C684 1.331 . S
C683 H701 0.932 . S
C684 C683 1.331 . S
C684 C685 1.336 . S
C685 C681 1.394 . S
C685 C684 1.336 . S
C685 H700 0.929 . S
C686 C676 1.386 . S
C686 C679 1.357 . S
C686 H699 0.928 . S
H687 C663 0.931 . S
H688 C665 0.930 . S
H689 C667 0.929 . S
H690 C668 0.931 . S
H691 C670 0.930 . S
H692 C674 0.931 . S
H693 C672 0.931 . S
H694 C676 0.931 . S
H695 C677 0.929 . S
H696 C678 0.930 . S
H697 C681 0.930 . S
H698 C682 0.931 . S
H699 C686 0.928 . S
H700 C685 0.929 . S
H701 C683 0.932 . S
Eu702 N733 2.657 . S
Eu702 N740 2.609 . S
Eu702 O746 2.558 . S
Eu702 O747 2.612 1_565 S
Eu702 O749 2.339 1_565 S
Eu702 O750 2.563 1_565 S
Eu702 O751 2.419 . S
Eu702 O753 2.380 1_556 S
Eu702 O754 2.432 . S
Eu702 C766 2.848 . S
C703 C706 1.429 . S
C703 C707 1.411 . S
C703 N710 1.377 . S
C704 C706 1.420 . S
C704 C708 1.423 . S
C704 C716 1.392 . S
C705 C707 1.420 . S
C705 C708 1.351 . S
C705 H728 0.931 . S
C706 C703 1.429 . S
C706 C704 1.420 . S
C706 N714 1.362 . S
C707 C703 1.411 . S
C707 C705 1.420 . S
C707 C712 1.395 . S
C708 C704 1.423 . S
C708 C705 1.351 . S
C708 H720 0.930 . S
C709 C711 1.400 . S
C709 C712 1.386 . S
C709 H721 0.930 . S
N710 C703 1.377 . S
N710 C711 1.321 . S
N710 Eu713 2.609 . S
C711 C709 1.400 . S
C711 N710 1.321 . S
C711 H718 0.930 . S
C712 C707 1.395 . S
C712 C709 1.386 . S
C712 H731 0.930 . S
Eu713 N710 2.609 . S
Eu713 N714 2.657 . S
Eu713 O747 2.380 1_554 S
Eu713 O748 2.432 . S
Eu713 O752 2.558 . S
Eu713 O753 2.612 1_545 S
Eu713 O755 2.339 1_545 S
Eu713 O756 2.563 1_545 S
Eu713 O757 2.419 . S
Eu713 C777 2.848 . S
N714 C706 1.362 . S
N714 Eu713 2.657 . S
N714 C715 1.334 . S
C715 N714 1.334 . S
C715 C717 1.413 . S
C715 H722 0.929 . S
C716 C704 1.392 . S
C716 C717 1.367 . S
C716 H724 0.930 . S
C717 C715 1.413 . S
C717 C716 1.367 . S
C717 H719 0.930 . S
H718 C711 0.930 . S
H719 C717 0.930 . S
H720 C708 0.930 . S
H721 C709 0.930 . S
H722 C715 0.929 . S
H723 C737 0.930 . S
H724 C716 0.930 . S
H725 C743 0.930 . S
H726 C734 0.929 . S
H727 C741 0.930 . S
H728 C705 0.931 . S
H729 C735 0.930 . S
H730 C768 0.930 . S
H731 C712 0.930 . S
H732 C767 0.931 . S
N733 Eu702 2.657 . S
N733 C734 1.334 . S
N733 C738 1.362 . S
C734 H726 0.929 . S
C734 N733 1.334 . S
C734 C737 1.413 . S
C735 H729 0.930 . S
C735 C736 1.392 . S
C735 C737 1.367 . S
C736 C735 1.392 . S
C736 C738 1.420 . S
C736 C768 1.423 . S
C737 H723 0.930 . S
C737 C734 1.413 . S
C737 C735 1.367 . S
C738 N733 1.362 . S
C738 C736 1.420 . S
C738 C742 1.429 . S
H739 C744 0.930 . S
N740 Eu702 2.609 . S
N740 C742 1.377 . S
N740 C743 1.321 . S
C741 H727 0.930 . S
C741 C743 1.400 . S
C741 C744 1.386 . S
C742 C738 1.429 . S
C742 N740 1.377 . S
C742 C745 1.411 . S
C743 H725 0.930 . S
C743 N740 1.321 . S
C743 C741 1.400 . S
C744 H739 0.930 . S
C744 C741 1.386 . S
C744 C745 1.395 . S
C745 C742 1.411 . S
C745 C744 1.395 . S
C745 C767 1.420 . S
O746 Eu702 2.558 . S
O746 C766 1.257 . S
O747 Eu702 2.612 1_545 S
O747 Eu713 2.380 1_556 S
O747 C758 1.276 . S
O748 Eu713 2.432 . S
O748 C765 1.264 1_554 S
O749 Eu702 2.339 1_545 S
O749 C765 1.254 . S
O750 Eu702 2.563 1_545 S
O750 C758 1.235 . S
O751 Eu702 2.419 . S
O751 C766 1.249 . S
O752 Eu713 2.558 . S
O752 C777 1.257 . S
O753 Eu702 2.380 1_554 S
O753 Eu713 2.612 1_565 S
O753 C769 1.276 . S
O754 Eu702 2.432 . S
O754 C776 1.264 1_556 S
O755 Eu713 2.339 1_565 S
O755 C776 1.254 . S
O756 Eu713 2.563 1_565 S
O756 C769 1.235 . S
O757 Eu713 2.419 . S
O757 C777 1.249 . S
C758 O747 1.276 . S
C758 O750 1.235 . S
C759 C761 1.393 1_565 S
C759 C763 1.395 . S
C759 C766 1.492 . S
C760 C761 1.392 . S
C760 C762 1.386 1_545 S
C761 C759 1.393 1_545 S
C761 C760 1.392 . S
C761 H778 0.930 . S
C762 C760 1.386 1_565 S
C762 C764 1.395 . S
C762 H779 0.930 . S
C763 C759 1.395 . S
C763 C764 1.379 . S
C763 H780 0.930 . S
C764 C762 1.395 . S
C764 C763 1.379 . S
C764 H781 0.930 . S
C765 O748 1.264 1_556 S
C765 O749 1.254 . S
C766 Eu702 2.848 . S
C766 O746 1.257 . S
C766 O751 1.249 . S
C766 C759 1.492 . S
C767 H732 0.931 . S
C767 C745 1.420 . S
C767 C768 1.351 . S
C768 H730 0.930 . S
C768 C736 1.423 . S
C768 C767 1.351 . S
C769 O753 1.276 . S
C769 O756 1.235 . S
C770 C771 1.393 1_545 S
C770 C774 1.395 . S
C770 C777 1.492 . S
C771 C770 1.393 1_565 S
C771 C772 1.392 . S
C771 H782 0.930 . S
C772 C771 1.392 . S
C772 C773 1.386 1_565 S
C773 C772 1.386 1_545 S
C773 C775 1.395 . S
C773 H783 0.930 . S
C774 C770 1.395 . S
C774 C775 1.379 . S
C774 H784 0.930 . S
C775 C773 1.395 . S
C775 C774 1.379 . S
C775 H785 0.930 . S
C776 O754 1.264 1_554 S
C776 O755 1.254 . S
C777 Eu713 2.848 . S
C777 O752 1.257 . S
C777 O757 1.249 . S
C777 C770 1.492 . S
H778 C761 0.930 . S
H779 C762 0.930 . S
H780 C763 0.930 . S
H781 C764 0.930 . S
H782 C771 0.930 . S
H783 C773 0.930 . S
H784 C774 0.930 . S
H785 C775 0.930 . S
Eu786 N817 2.657 . S
Eu786 N824 2.609 . S
Eu786 O830 2.558 . S
Eu786 O831 2.612 1_455 S
Eu786 O833 2.339 1_455 S
Eu786 O834 2.563 1_455 S
Eu786 O835 2.419 . S
Eu786 O837 2.380 1_556 S
Eu786 O838 2.432 . S
Eu786 C850 2.848 . S
C787 C790 1.429 . S
C787 C791 1.411 . S
C787 N794 1.377 . S
C788 C790 1.420 . S
C788 C792 1.423 . S
C788 C800 1.392 . S
C789 C791 1.420 . S
C789 C792 1.351 . S
C789 H812 0.931 . S
C790 C787 1.429 . S
C790 C788 1.420 . S
C790 N798 1.362 . S
C791 C787 1.411 . S
C791 C789 1.420 . S
C791 C796 1.395 . S
C792 C788 1.423 . S
C792 C789 1.351 . S
C792 H804 0.930 . S
C793 C795 1.400 . S
C793 C796 1.386 . S
C793 H805 0.930 . S
N794 C787 1.377 . S
N794 C795 1.321 . S
N794 Eu797 2.609 . S
C795 C793 1.400 . S
C795 N794 1.321 . S
C795 H802 0.930 . S
C796 C791 1.395 . S
C796 C793 1.386 . S
C796 H815 0.930 . S
Eu797 N794 2.609 . S
Eu797 N798 2.657 . S
Eu797 O831 2.380 1_554 S
Eu797 O832 2.432 . S
Eu797 O836 2.558 . S
Eu797 O837 2.612 1_655 S
Eu797 O839 2.339 1_655 S
Eu797 O840 2.563 1_655 S
Eu797 O841 2.419 . S
Eu797 C861 2.848 . S
N798 C790 1.362 . S
N798 Eu797 2.657 . S
N798 C799 1.334 . S
C799 N798 1.334 . S
C799 C801 1.413 . S
C799 H806 0.929 . S
C800 C788 1.392 . S
C800 C801 1.367 . S
C800 H808 0.930 . S
C801 C799 1.413 . S
C801 C800 1.367 . S
C801 H803 0.930 . S
H802 C795 0.930 . S
H803 C801 0.930 . S
H804 C792 0.930 . S
H805 C793 0.930 . S
H806 C799 0.929 . S
H807 C821 0.930 . S
H808 C800 0.930 . S
H809 C827 0.930 . S
H810 C818 0.929 . S
H811 C825 0.930 . S
H812 C789 0.931 . S
H813 C819 0.930 . S
H814 C852 0.930 . S
H815 C796 0.930 . S
H816 C851 0.931 . S
N817 Eu786 2.657 . S
N817 C818 1.334 . S
N817 C822 1.362 . S
C818 H810 0.929 . S
C818 N817 1.334 . S
C818 C821 1.413 . S
C819 H813 0.930 . S
C819 C820 1.392 . S
C819 C821 1.367 . S
C820 C819 1.392 . S
C820 C822 1.420 . S
C820 C852 1.423 . S
C821 H807 0.930 . S
C821 C818 1.413 . S
C821 C819 1.367 . S
C822 N817 1.362 . S
C822 C820 1.420 . S
C822 C826 1.429 . S
H823 C828 0.930 . S
N824 Eu786 2.609 . S
N824 C826 1.377 . S
N824 C827 1.321 . S
C825 H811 0.930 . S
C825 C827 1.400 . S
C825 C828 1.386 . S
C826 C822 1.429 . S
C826 N824 1.377 . S
C826 C829 1.411 . S
C827 H809 0.930 . S
C827 N824 1.321 . S
C827 C825 1.400 . S
C828 H823 0.930 . S
C828 C825 1.386 . S
C828 C829 1.395 . S
C829 C826 1.411 . S
C829 C828 1.395 . S
C829 C851 1.420 . S
O830 Eu786 2.558 . S
O830 C850 1.257 . S
O831 Eu786 2.612 1_655 S
O831 Eu797 2.380 1_556 S
O831 C842 1.276 . S
O832 Eu797 2.432 . S
O832 C849 1.264 1_554 S
O833 Eu786 2.339 1_655 S
O833 C849 1.254 . S
O834 Eu786 2.563 1_655 S
O834 C842 1.235 . S
O835 Eu786 2.419 . S
O835 C850 1.249 . S
O836 Eu797 2.558 . S
O836 C861 1.257 . S
O837 Eu786 2.380 1_554 S
O837 Eu797 2.612 1_455 S
O837 C853 1.276 . S
O838 Eu786 2.432 . S
O838 C860 1.264 1_556 S
O839 Eu797 2.339 1_455 S
O839 C860 1.254 . S
O840 Eu797 2.563 1_455 S
O840 C853 1.235 . S
O841 Eu797 2.419 . S
O841 C861 1.249 . S
C842 O831 1.276 . S
C842 O834 1.235 . S
C843 C845 1.393 1_455 S
C843 C847 1.395 . S
C843 C850 1.492 . S
C844 C845 1.392 . S
C844 C846 1.386 1_655 S
C845 C843 1.393 1_655 S
C845 C844 1.392 . S
C845 H862 0.930 . S
C846 C844 1.386 1_455 S
C846 C848 1.395 . S
C846 H863 0.930 . S
C847 C843 1.395 . S
C847 C848 1.379 . S
C847 H864 0.930 . S
C848 C846 1.395 . S
C848 C847 1.379 . S
C848 H865 0.930 . S
C849 O832 1.264 1_556 S
C849 O833 1.254 . S
C850 Eu786 2.848 . S
C850 O830 1.257 . S
C850 O835 1.249 . S
C850 C843 1.492 . S
C851 H816 0.931 . S
C851 C829 1.420 . S
C851 C852 1.351 . S
C852 H814 0.930 . S
C852 C820 1.423 . S
C852 C851 1.351 . S
C853 O837 1.276 . S
C853 O840 1.235 . S
C854 C855 1.393 1_655 S
C854 C858 1.395 . S
C854 C861 1.492 . S
C855 C854 1.393 1_455 S
C855 C856 1.392 . S
C855 H866 0.930 . S
C856 C855 1.392 . S
C856 C857 1.386 1_455 S
C857 C856 1.386 1_655 S
C857 C859 1.395 . S
C857 H867 0.930 . S
C858 C854 1.395 . S
C858 C859 1.379 . S
C858 H868 0.930 . S
C859 C857 1.395 . S
C859 C858 1.379 . S
C859 H869 0.930 . S
C860 O838 1.264 1_554 S
C860 O839 1.254 . S
C861 Eu797 2.848 . S
C861 O836 1.257 . S
C861 O841 1.249 . S
C861 C854 1.492 . S
H862 C845 0.930 . S
H863 C846 0.930 . S
H864 C847 0.930 . S
H865 C848 0.930 . S
H866 C855 0.930 . S
H867 C857 0.930 . S
H868 C858 0.930 . S
H869 C859 0.930 . S
Eu870 N901 2.657 . S
Eu870 N908 2.609 . S
Eu870 O914 2.558 . S
Eu870 O915 2.612 . S
Eu870 O917 2.339 . S
Eu870 O918 2.563 . S
Eu870 O919 2.419 . S
Eu870 O921 2.380 1_554 S
Eu870 O922 2.432 . S
Eu870 C934 2.848 . S
C871 C874 1.429 . S
C871 C875 1.411 . S
C871 N878 1.377 . S
C872 C874 1.420 . S
C872 C876 1.423 . S
C872 C884 1.392 . S
C873 C875 1.420 . S
C873 C876 1.351 . S
C873 H896 0.931 . S
C874 C871 1.429 . S
C874 C872 1.420 . S
C874 N882 1.362 . S
C875 C871 1.411 . S
C875 C873 1.420 . S
C875 C880 1.395 . S
C876 C872 1.423 . S
C876 C873 1.351 . S
C876 H888 0.930 . S
C877 C879 1.400 . S
C877 C880 1.386 . S
C877 H889 0.930 . S
N878 C871 1.377 . S
N878 C879 1.321 . S
N878 Eu881 2.609 . S
C879 C877 1.400 . S
C879 N878 1.321 . S
C879 H886 0.930 . S
C880 C875 1.395 . S
C880 C877 1.386 . S
C880 H899 0.930 . S
Eu881 N878 2.609 . S
Eu881 N882 2.657 . S
Eu881 O915 2.380 1_556 S
Eu881 O916 2.432 . S
Eu881 O920 2.558 . S
Eu881 O921 2.612 . S
Eu881 O923 2.339 . S
Eu881 O924 2.563 . S
Eu881 O925 2.419 . S
Eu881 C945 2.848 . S
N882 C874 1.362 . S
N882 Eu881 2.657 . S
N882 C883 1.334 . S
C883 N882 1.334 . S
C883 C885 1.413 . S
C883 H890 0.929 . S
C884 C872 1.392 . S
C884 C885 1.367 . S
C884 H892 0.930 . S
C885 C883 1.413 . S
C885 C884 1.367 . S
C885 H887 0.930 . S
H886 C879 0.930 . S
H887 C885 0.930 . S
H888 C876 0.930 . S
H889 C877 0.930 . S
H890 C883 0.929 . S
H891 C905 0.930 . S
H892 C884 0.930 . S
H893 C911 0.930 . S
H894 C902 0.929 . S
H895 C909 0.930 . S
H896 C873 0.931 . S
H897 C903 0.930 . S
H898 C936 0.930 . S
H899 C880 0.930 . S
H900 C935 0.931 . S
N901 Eu870 2.657 . S
N901 C902 1.334 . S
N901 C906 1.362 . S
C902 H894 0.929 . S
C902 N901 1.334 . S
C902 C905 1.413 . S
C903 H897 0.930 . S
C903 C904 1.392 . S
C903 C905 1.367 . S
C904 C903 1.392 . S
C904 C906 1.420 . S
C904 C936 1.423 . S
C905 H891 0.930 . S
C905 C902 1.413 . S
C905 C903 1.367 . S
C906 N901 1.362 . S
C906 C904 1.420 . S
C906 C910 1.429 . S
H907 C912 0.930 . S
N908 Eu870 2.609 . S
N908 C910 1.377 . S
N908 C911 1.321 . S
C909 H895 0.930 . S
C909 C911 1.400 . S
C909 C912 1.386 . S
C910 C906 1.429 . S
C910 N908 1.377 . S
C910 C913 1.411 . S
C911 H893 0.930 . S
C911 N908 1.321 . S
C911 C909 1.400 . S
C912 H907 0.930 . S
C912 C909 1.386 . S
C912 C913 1.395 . S
C913 C910 1.411 . S
C913 C912 1.395 . S
C913 C935 1.420 . S
O914 Eu870 2.558 . S
O914 C934 1.257 . S
O915 Eu870 2.612 . S
O915 Eu881 2.380 1_554 S
O915 C926 1.276 . S
O916 Eu881 2.432 . S
O916 C933 1.264 1_556 S
O917 Eu870 2.339 . S
O917 C933 1.254 . S
O918 Eu870 2.563 . S
O918 C926 1.235 . S
O919 Eu870 2.419 . S
O919 C934 1.249 . S
O920 Eu881 2.558 . S
O920 C945 1.257 . S
O921 Eu870 2.380 1_556 S
O921 Eu881 2.612 . S
O921 C937 1.276 . S
O922 Eu870 2.432 . S
O922 C944 1.264 1_554 S
O923 Eu881 2.339 . S
O923 C944 1.254 . S
O924 Eu881 2.563 . S
O924 C937 1.235 . S
O925 Eu881 2.419 . S
O925 C945 1.249 . S
C926 O915 1.276 . S
C926 O918 1.235 . S
C927 C929 1.393 . S
C927 C931 1.395 . S
C927 C934 1.492 . S
C928 C929 1.392 . S
C928 C930 1.386 . S
C929 C927 1.393 . S
C929 C928 1.392 . S
C929 H946 0.930 . S
C930 C928 1.386 . S
C930 C932 1.395 . S
C930 H947 0.930 . S
C931 C927 1.395 . S
C931 C932 1.379 . S
C931 H948 0.930 . S
C932 C930 1.395 . S
C932 C931 1.379 . S
C932 H949 0.930 . S
C933 O916 1.264 1_554 S
C933 O917 1.254 . S
C934 Eu870 2.848 . S
C934 O914 1.257 . S
C934 O919 1.249 . S
C934 C927 1.492 . S
C935 H900 0.931 . S
C935 C913 1.420 . S
C935 C936 1.351 . S
C936 H898 0.930 . S
C936 C904 1.423 . S
C936 C935 1.351 . S
C937 O921 1.276 . S
C937 O924 1.235 . S
C938 C939 1.393 . S
C938 C942 1.395 . S
C938 C945 1.492 . S
C939 C938 1.393 . S
C939 C940 1.392 . S
C939 H950 0.930 . S
C940 C939 1.392 . S
C940 C941 1.386 . S
C941 C940 1.386 . S
C941 C943 1.395 . S
C941 H951 0.930 . S
C942 C938 1.395 . S
C942 C943 1.379 . S
C942 H952 0.930 . S
C943 C941 1.395 . S
C943 C942 1.379 . S
C943 H953 0.930 . S
C944 O922 1.264 1_556 S
C944 O923 1.254 . S
C945 Eu881 2.848 . S
C945 O920 1.257 . S
C945 O925 1.249 . S
C945 C938 1.492 . S
H946 C929 0.930 . S
H947 C930 0.930 . S
H948 C931 0.930 . S
H949 C932 0.930 . S
H950 C939 0.930 . S
H951 C941 0.930 . S
H952 C942 0.930 . S
H953 C943 0.930 . S
Eu954 N985 2.657 . S
Eu954 N992 2.609 . S
Eu954 O998 2.558 . S
Eu954 O999 2.612 . S
Eu954 O1001 2.339 . S
Eu954 O1002 2.563 . S
Eu954 O1003 2.419 . S
Eu954 O1005 2.380 . S
Eu954 O1006 2.432 . S
Eu954 C1018 2.848 . S
C955 C958 1.429 . S
C955 C959 1.411 . S
C955 N962 1.377 . S
C956 C958 1.420 . S
C956 C960 1.423 . S
C956 C968 1.392 . S
C957 C959 1.420 . S
C957 C960 1.351 . S
C957 H980 0.931 . S
C958 C955 1.429 . S
C958 C956 1.420 . S
C958 N966 1.362 . S
C959 C955 1.411 . S
C959 C957 1.420 . S
C959 C964 1.395 . S
C960 C956 1.423 . S
C960 C957 1.351 . S
C960 H972 0.930 . S
C961 C963 1.400 . S
C961 C964 1.386 . S
C961 H973 0.930 . S
N962 C955 1.377 . S
N962 C963 1.321 . S
N962 Eu965 2.609 . S
C963 C961 1.400 . S
C963 N962 1.321 . S
C963 H970 0.930 . S
C964 C959 1.395 . S
C964 C961 1.386 . S
C964 H983 0.930 . S
Eu965 N962 2.609 . S
Eu965 N966 2.657 . S
Eu965 O999 2.380 . S
Eu965 O1000 2.432 . S
Eu965 O1004 2.558 . S
Eu965 O1005 2.612 . S
Eu965 O1007 2.339 . S
Eu965 O1008 2.563 . S
Eu965 O1009 2.419 . S
Eu965 C1029 2.848 . S
N966 C958 1.362 . S
N966 Eu965 2.657 . S
N966 C967 1.334 . S
C967 N966 1.334 . S
C967 C969 1.413 . S
C967 H974 0.929 . S
C968 C956 1.392 . S
C968 C969 1.367 . S
C968 H976 0.930 . S
C969 C967 1.413 . S
C969 C968 1.367 . S
C969 H971 0.930 . S
H970 C963 0.930 . S
H971 C969 0.930 . S
H972 C960 0.930 . S
H973 C961 0.930 . S
H974 C967 0.929 . S
H975 C989 0.930 . S
H976 C968 0.930 . S
H977 C995 0.930 . S
H978 C986 0.929 . S
H979 C993 0.930 . S
H980 C957 0.931 . S
H981 C987 0.930 . S
H982 C1020 0.930 . S
H983 C964 0.930 . S
H984 C1019 0.931 . S
N985 Eu954 2.657 . S
N985 C986 1.334 . S
N985 C990 1.362 . S
C986 H978 0.929 . S
C986 N985 1.334 . S
C986 C989 1.413 . S
C987 H981 0.930 . S
C987 C988 1.392 . S
C987 C989 1.367 . S
C988 C987 1.392 . S
C988 C990 1.420 . S
C988 C1020 1.423 . S
C989 H975 0.930 . S
C989 C986 1.413 . S
C989 C987 1.367 . S
C990 N985 1.362 . S
C990 C988 1.420 . S
C990 C994 1.429 . S
H991 C996 0.930 . S
N992 Eu954 2.609 . S
N992 C994 1.377 . S
N992 C995 1.321 . S
C993 H979 0.930 . S
C993 C995 1.400 . S
C993 C996 1.386 . S
C994 C990 1.429 . S
C994 N992 1.377 . S
C994 C997 1.411 . S
C995 H977 0.930 . S
C995 N992 1.321 . S
C995 C993 1.400 . S
C996 H991 0.930 . S
C996 C993 1.386 . S
C996 C997 1.395 . S
C997 C994 1.411 . S
C997 C996 1.395 . S
C997 C1019 1.420 . S
O998 Eu954 2.558 . S
O998 C1018 1.257 . S
O999 Eu954 2.612 . S
O999 Eu965 2.380 . S
O999 C1010 1.276 . S
O1000 Eu965 2.432 . S
O1000 C1017 1.264 . S
O1001 Eu954 2.339 . S
O1001 C1017 1.254 . S
O1002 Eu954 2.563 . S
O1002 C1010 1.235 . S
O1003 Eu954 2.419 . S
O1003 C1018 1.249 . S
O1004 Eu965 2.558 . S
O1004 C1029 1.257 . S
O1005 Eu954 2.380 . S
O1005 Eu965 2.612 . S
O1005 C1021 1.276 . S
O1006 Eu954 2.432 . S
O1006 C1028 1.264 . S
O1007 Eu965 2.339 . S
O1007 C1028 1.254 . S
O1008 Eu965 2.563 . S
O1008 C1021 1.235 . S
O1009 Eu965 2.419 . S
O1009 C1029 1.249 . S
C1010 O999 1.276 . S
C1010 O1002 1.235 . S
C1011 C1013 1.393 . S
C1011 C1015 1.395 . S
C1011 C1018 1.492 . S
C1012 C1013 1.392 . S
C1012 C1014 1.386 . S
C1013 C1011 1.393 . S
C1013 C1012 1.392 . S
C1013 H1030 0.930 . S
C1014 C1012 1.386 . S
C1014 C1016 1.395 . S
C1014 H1031 0.930 . S
C1015 C1011 1.395 . S
C1015 C1016 1.379 . S
C1015 H1032 0.930 . S
C1016 C1014 1.395 . S
C1016 C1015 1.379 . S
C1016 H1033 0.930 . S
C1017 O1000 1.264 . S
C1017 O1001 1.254 . S
C1018 Eu954 2.848 . S
C1018 O998 1.257 . S
C1018 O1003 1.249 . S
C1018 C1011 1.492 . S
C1019 H984 0.931 . S
C1019 C997 1.420 . S
C1019 C1020 1.351 . S
C1020 H982 0.930 . S
C1020 C988 1.423 . S
C1020 C1019 1.351 . S
C1021 O1005 1.276 . S
C1021 O1008 1.235 . S
C1022 C1023 1.393 . S
C1022 C1026 1.395 . S
C1022 C1029 1.492 . S
C1023 C1022 1.393 . S
C1023 C1024 1.392 . S
C1023 H1034 0.930 . S
C1024 C1023 1.392 . S
C1024 C1025 1.386 . S
C1025 C1024 1.386 . S
C1025 C1027 1.395 . S
C1025 H1035 0.930 . S
C1026 C1022 1.395 . S
C1026 C1027 1.379 . S
C1026 H1036 0.930 . S
C1027 C1025 1.395 . S
C1027 C1026 1.379 . S
C1027 H1037 0.930 . S
C1028 O1006 1.264 . S
C1028 O1007 1.254 . S
C1029 Eu965 2.848 . S
C1029 O1004 1.257 . S
C1029 O1009 1.249 . S
C1029 C1022 1.492 . S
H1030 C1013 0.930 . S
H1031 C1014 0.930 . S
H1032 C1015 0.930 . S
H1033 C1016 0.930 . S
H1034 C1023 0.930 . S
H1035 C1025 0.930 . S
H1036 C1026 0.930 . S
H1037 C1027 0.930 . S
Eu1038 N1069 2.657 . S
Eu1038 N1076 2.609 . S
Eu1038 O1082 2.558 . S
Eu1038 O1083 2.612 . S
Eu1038 O1085 2.339 . S
Eu1038 O1086 2.563 . S
Eu1038 O1087 2.419 . S
Eu1038 O1089 2.380 . S
Eu1038 O1090 2.432 . S
Eu1038 C1102 2.848 . S
C1039 C1042 1.429 . S
C1039 C1043 1.411 . S
C1039 N1046 1.377 . S
C1040 C1042 1.420 . S
C1040 C1044 1.423 . S
C1040 C1052 1.392 . S
C1041 C1043 1.420 . S
C1041 C1044 1.351 . S
C1041 H1064 0.931 . S
C1042 C1039 1.429 . S
C1042 C1040 1.420 . S
C1042 N1050 1.362 . S
C1043 C1039 1.411 . S
C1043 C1041 1.420 . S
C1043 C1048 1.395 . S
C1044 C1040 1.423 . S
C1044 C1041 1.351 . S
C1044 H1056 0.930 . S
C1045 C1047 1.400 . S
C1045 C1048 1.386 . S
C1045 H1057 0.930 . S
N1046 C1039 1.377 . S
N1046 C1047 1.321 . S
N1046 Eu1049 2.609 . S
C1047 C1045 1.400 . S
C1047 N1046 1.321 . S
C1047 H1054 0.930 . S
C1048 C1043 1.395 . S
C1048 C1045 1.386 . S
C1048 H1067 0.930 . S
Eu1049 N1046 2.609 . S
Eu1049 N1050 2.657 . S
Eu1049 O1083 2.380 . S
Eu1049 O1084 2.432 . S
Eu1049 O1088 2.558 . S
Eu1049 O1089 2.612 . S
Eu1049 O1091 2.339 . S
Eu1049 O1092 2.563 . S
Eu1049 O1093 2.419 . S
Eu1049 C1113 2.848 . S
N1050 C1042 1.362 . S
N1050 Eu1049 2.657 . S
N1050 C1051 1.334 . S
C1051 N1050 1.334 . S
C1051 C1053 1.413 . S
C1051 H1058 0.929 . S
C1052 C1040 1.392 . S
C1052 C1053 1.367 . S
C1052 H1060 0.930 . S
C1053 C1051 1.413 . S
C1053 C1052 1.367 . S
C1053 H1055 0.930 . S
H1054 C1047 0.930 . S
H1055 C1053 0.930 . S
H1056 C1044 0.930 . S
H1057 C1045 0.930 . S
H1058 C1051 0.929 . S
H1059 C1073 0.930 . S
H1060 C1052 0.930 . S
H1061 C1079 0.930 . S
H1062 C1070 0.929 . S
H1063 C1077 0.930 . S
H1064 C1041 0.931 . S
H1065 C1071 0.930 . S
H1066 C1104 0.930 . S
H1067 C1048 0.930 . S
H1068 C1103 0.931 . S
N1069 Eu1038 2.657 . S
N1069 C1070 1.334 . S
N1069 C1074 1.362 . S
C1070 H1062 0.929 . S
C1070 N1069 1.334 . S
C1070 C1073 1.413 . S
C1071 H1065 0.930 . S
C1071 C1072 1.392 . S
C1071 C1073 1.367 . S
C1072 C1071 1.392 . S
C1072 C1074 1.420 . S
C1072 C1104 1.423 . S
C1073 H1059 0.930 . S
C1073 C1070 1.413 . S
C1073 C1071 1.367 . S
C1074 N1069 1.362 . S
C1074 C1072 1.420 . S
C1074 C1078 1.429 . S
H1075 C1080 0.930 . S
N1076 Eu1038 2.609 . S
N1076 C1078 1.377 . S
N1076 C1079 1.321 . S
C1077 H1063 0.930 . S
C1077 C1079 1.400 . S
C1077 C1080 1.386 . S
C1078 C1074 1.429 . S
C1078 N1076 1.377 . S
C1078 C1081 1.411 . S
C1079 H1061 0.930 . S
C1079 N1076 1.321 . S
C1079 C1077 1.400 . S
C1080 H1075 0.930 . S
C1080 C1077 1.386 . S
C1080 C1081 1.395 . S
C1081 C1078 1.411 . S
C1081 C1080 1.395 . S
C1081 C1103 1.420 . S
O1082 Eu1038 2.558 . S
O1082 C1102 1.257 . S
O1083 Eu1038 2.612 . S
O1083 Eu1049 2.380 . S
O1083 C1094 1.276 . S
O1084 Eu1049 2.432 . S
O1084 C1101 1.264 . S
O1085 Eu1038 2.339 . S
O1085 C1101 1.254 . S
O1086 Eu1038 2.563 . S
O1086 C1094 1.235 . S
O1087 Eu1038 2.419 . S
O1087 C1102 1.249 . S
O1088 Eu1049 2.558 . S
O1088 C1113 1.257 . S
O1089 Eu1038 2.380 . S
O1089 Eu1049 2.612 . S
O1089 C1105 1.276 . S
O1090 Eu1038 2.432 . S
O1090 C1112 1.264 . S
O1091 Eu1049 2.339 . S
O1091 C1112 1.254 . S
O1092 Eu1049 2.563 . S
O1092 C1105 1.235 . S
O1093 Eu1049 2.419 . S
O1093 C1113 1.249 . S
C1094 O1083 1.276 . S
C1094 O1086 1.235 . S
C1095 C1097 1.393 . S
C1095 C1099 1.395 . S
C1095 C1102 1.492 . S
C1096 C1097 1.392 . S
C1096 C1098 1.386 . S
C1097 C1095 1.393 . S
C1097 C1096 1.392 . S
C1097 H1114 0.930 . S
C1098 C1096 1.386 . S
C1098 C1100 1.395 . S
C1098 H1115 0.930 . S
C1099 C1095 1.395 . S
C1099 C1100 1.379 . S
C1099 H1116 0.930 . S
C1100 C1098 1.395 . S
C1100 C1099 1.379 . S
C1100 H1117 0.930 . S
C1101 O1084 1.264 . S
C1101 O1085 1.254 . S
C1102 Eu1038 2.848 . S
C1102 O1082 1.257 . S
C1102 O1087 1.249 . S
C1102 C1095 1.492 . S
C1103 H1068 0.931 . S
C1103 C1081 1.420 . S
C1103 C1104 1.351 . S
C1104 H1066 0.930 . S
C1104 C1072 1.423 . S
C1104 C1103 1.351 . S
C1105 O1089 1.276 . S
C1105 O1092 1.235 . S
C1106 C1107 1.393 . S
C1106 C1110 1.395 . S
C1106 C1113 1.492 . S
C1107 C1106 1.393 . S
C1107 C1108 1.392 . S
C1107 H1118 0.930 . S
C1108 C1107 1.392 . S
C1108 C1109 1.386 . S
C1109 C1108 1.386 . S
C1109 C1111 1.395 . S
C1109 H1119 0.930 . S
C1110 C1106 1.395 . S
C1110 C1111 1.379 . S
C1110 H1120 0.930 . S
C1111 C1109 1.395 . S
C1111 C1110 1.379 . S
C1111 H1121 0.930 . S
C1112 O1090 1.264 . S
C1112 O1091 1.254 . S
C1113 Eu1049 2.848 . S
C1113 O1088 1.257 . S
C1113 O1093 1.249 . S
C1113 C1106 1.492 . S
H1114 C1097 0.930 . S
H1115 C1098 0.930 . S
H1116 C1099 0.930 . S
H1117 C1100 0.930 . S
H1118 C1107 0.930 . S
H1119 C1109 0.930 . S
H1120 C1110 0.930 . S
H1121 C1111 0.930 . S
Eu1122 N1153 2.657 . S
Eu1122 N1160 2.609 . S
Eu1122 O1166 2.558 . S
Eu1122 O1167 2.612 . S
Eu1122 O1169 2.339 . S
Eu1122 O1170 2.563 . S
Eu1122 O1171 2.419 . S
Eu1122 O1173 2.380 . S
Eu1122 O1174 2.432 . S
Eu1122 C1186 2.848 . S
C1123 C1126 1.429 . S
C1123 C1127 1.411 . S
C1123 N1130 1.377 . S
C1124 C1126 1.420 . S
C1124 C1128 1.423 . S
C1124 C1136 1.392 . S
C1125 C1127 1.420 . S
C1125 C1128 1.351 . S
C1125 H1148 0.931 . S
C1126 C1123 1.429 . S
C1126 C1124 1.420 . S
C1126 N1134 1.362 . S
C1127 C1123 1.411 . S
C1127 C1125 1.420 . S
C1127 C1132 1.395 . S
C1128 C1124 1.423 . S
C1128 C1125 1.351 . S
C1128 H1140 0.930 . S
C1129 C1131 1.400 . S
C1129 C1132 1.386 . S
C1129 H1141 0.930 . S
N1130 C1123 1.377 . S
N1130 C1131 1.321 . S
N1130 Eu1133 2.609 . S
C1131 C1129 1.400 . S
C1131 N1130 1.321 . S
C1131 H1138 0.930 . S
C1132 C1127 1.395 . S
C1132 C1129 1.386 . S
C1132 H1151 0.930 . S
Eu1133 N1130 2.609 . S
Eu1133 N1134 2.657 . S
Eu1133 O1167 2.380 . S
Eu1133 O1168 2.432 . S
Eu1133 O1172 2.558 . S
Eu1133 O1173 2.612 . S
Eu1133 O1175 2.339 . S
Eu1133 O1176 2.563 . S
Eu1133 O1177 2.419 . S
Eu1133 C1197 2.848 . S
N1134 C1126 1.362 . S
N1134 Eu1133 2.657 . S
N1134 C1135 1.334 . S
C1135 N1134 1.334 . S
C1135 C1137 1.413 . S
C1135 H1142 0.929 . S
C1136 C1124 1.392 . S
C1136 C1137 1.367 . S
C1136 H1144 0.930 . S
C1137 C1135 1.413 . S
C1137 C1136 1.367 . S
C1137 H1139 0.930 . S
H1138 C1131 0.930 . S
H1139 C1137 0.930 . S
H1140 C1128 0.930 . S
H1141 C1129 0.930 . S
H1142 C1135 0.929 . S
H1143 C1157 0.930 . S
H1144 C1136 0.930 . S
H1145 C1163 0.930 . S
H1146 C1154 0.929 . S
H1147 C1161 0.930 . S
H1148 C1125 0.931 . S
H1149 C1155 0.930 . S
H1150 C1188 0.930 . S
H1151 C1132 0.930 . S
H1152 C1187 0.931 . S
N1153 Eu1122 2.657 . S
N1153 C1154 1.334 . S
N1153 C1158 1.362 . S
C1154 H1146 0.929 . S
C1154 N1153 1.334 . S
C1154 C1157 1.413 . S
C1155 H1149 0.930 . S
C1155 C1156 1.392 . S
C1155 C1157 1.367 . S
C1156 C1155 1.392 . S
C1156 C1158 1.420 . S
C1156 C1188 1.423 . S
C1157 H1143 0.930 . S
C1157 C1154 1.413 . S
C1157 C1155 1.367 . S
C1158 N1153 1.362 . S
C1158 C1156 1.420 . S
C1158 C1162 1.429 . S
H1159 C1164 0.930 . S
N1160 Eu1122 2.609 . S
N1160 C1162 1.377 . S
N1160 C1163 1.321 . S
C1161 H1147 0.930 . S
C1161 C1163 1.400 . S
C1161 C1164 1.386 . S
C1162 C1158 1.429 . S
C1162 N1160 1.377 . S
C1162 C1165 1.411 . S
C1163 H1145 0.930 . S
C1163 N1160 1.321 . S
C1163 C1161 1.400 . S
C1164 H1159 0.930 . S
C1164 C1161 1.386 . S
C1164 C1165 1.395 . S
C1165 C1162 1.411 . S
C1165 C1164 1.395 . S
C1165 C1187 1.420 . S
O1166 Eu1122 2.558 . S
O1166 C1186 1.257 . S
O1167 Eu1122 2.612 . S
O1167 Eu1133 2.380 . S
O1167 C1178 1.276 . S
O1168 Eu1133 2.432 . S
O1168 C1185 1.264 . S
O1169 Eu1122 2.339 . S
O1169 C1185 1.254 . S
O1170 Eu1122 2.563 . S
O1170 C1178 1.235 . S
O1171 Eu1122 2.419 . S
O1171 C1186 1.249 . S
O1172 Eu1133 2.558 . S
O1172 C1197 1.257 . S
O1173 Eu1122 2.380 . S
O1173 Eu1133 2.612 . S
O1173 C1189 1.276 . S
O1174 Eu1122 2.432 . S
O1174 C1196 1.264 . S
O1175 Eu1133 2.339 . S
O1175 C1196 1.254 . S
O1176 Eu1133 2.563 . S
O1176 C1189 1.235 . S
O1177 Eu1133 2.419 . S
O1177 C1197 1.249 . S
C1178 O1167 1.276 . S
C1178 O1170 1.235 . S
C1179 C1181 1.393 . S
C1179 C1183 1.395 . S
C1179 C1186 1.492 . S
C1180 C1181 1.392 . S
C1180 C1182 1.386 . S
C1181 C1179 1.393 . S
C1181 C1180 1.392 . S
C1181 H1198 0.930 . S
C1182 C1180 1.386 . S
C1182 C1184 1.395 . S
C1182 H1199 0.930 . S
C1183 C1179 1.395 . S
C1183 C1184 1.379 . S
C1183 H1200 0.930 . S
C1184 C1182 1.395 . S
C1184 C1183 1.379 . S
C1184 H1201 0.930 . S
C1185 O1168 1.264 . S
C1185 O1169 1.254 . S
C1186 Eu1122 2.848 . S
C1186 O1166 1.257 . S
C1186 O1171 1.249 . S
C1186 C1179 1.492 . S
C1187 H1152 0.931 . S
C1187 C1165 1.420 . S
C1187 C1188 1.351 . S
C1188 H1150 0.930 . S
C1188 C1156 1.423 . S
C1188 C1187 1.351 . S
C1189 O1173 1.276 . S
C1189 O1176 1.235 . S
C1190 C1191 1.393 . S
C1190 C1194 1.395 . S
C1190 C1197 1.492 . S
C1191 C1190 1.393 . S
C1191 C1192 1.392 . S
C1191 H1202 0.930 . S
C1192 C1191 1.392 . S
C1192 C1193 1.386 . S
C1193 C1192 1.386 . S
C1193 C1195 1.395 . S
C1193 H1203 0.930 . S
C1194 C1190 1.395 . S
C1194 C1195 1.379 . S
C1194 H1204 0.930 . S
C1195 C1193 1.395 . S
C1195 C1194 1.379 . S
C1195 H1205 0.930 . S
C1196 O1174 1.264 . S
C1196 O1175 1.254 . S
C1197 Eu1133 2.848 . S
C1197 O1172 1.257 . S
C1197 O1177 1.249 . S
C1197 C1190 1.492 . S
H1198 C1181 0.930 . S
H1199 C1182 0.930 . S
H1200 C1183 0.930 . S
H1201 C1184 0.930 . S
H1202 C1191 0.930 . S
H1203 C1193 0.930 . S
H1204 C1194 0.930 . S
H1205 C1195 0.930 . S
Eu1206 N1237 2.657 . S
Eu1206 N1244 2.609 . S
Eu1206 O1250 2.558 . S
Eu1206 O1251 2.612 . S
Eu1206 O1253 2.339 . S
Eu1206 O1254 2.563 . S
Eu1206 O1255 2.419 . S
Eu1206 O1257 2.380 . S
Eu1206 O1258 2.432 . S
Eu1206 C1270 2.848 . S
C1207 C1210 1.429 . S
C1207 C1211 1.411 . S
C1207 N1214 1.377 . S
C1208 C1210 1.420 . S
C1208 C1212 1.423 . S
C1208 C1220 1.392 . S
C1209 C1211 1.420 . S
C1209 C1212 1.351 . S
C1209 H1232 0.931 . S
C1210 C1207 1.429 . S
C1210 C1208 1.420 . S
C1210 N1218 1.362 . S
C1211 C1207 1.411 . S
C1211 C1209 1.420 . S
C1211 C1216 1.395 . S
C1212 C1208 1.423 . S
C1212 C1209 1.351 . S
C1212 H1224 0.930 . S
C1213 C1215 1.400 . S
C1213 C1216 1.386 . S
C1213 H1225 0.930 . S
N1214 C1207 1.377 . S
N1214 C1215 1.321 . S
N1214 Eu1217 2.609 . S
C1215 C1213 1.400 . S
C1215 N1214 1.321 . S
C1215 H1222 0.930 . S
C1216 C1211 1.395 . S
C1216 C1213 1.386 . S
C1216 H1235 0.930 . S
Eu1217 N1214 2.609 . S
Eu1217 N1218 2.657 . S
Eu1217 O1251 2.380 . S
Eu1217 O1252 2.432 . S
Eu1217 O1256 2.558 . S
Eu1217 O1257 2.612 . S
Eu1217 O1259 2.339 . S
Eu1217 O1260 2.563 . S
Eu1217 O1261 2.419 . S
Eu1217 C1281 2.848 . S
N1218 C1210 1.362 . S
N1218 Eu1217 2.657 . S
N1218 C1219 1.334 . S
C1219 N1218 1.334 . S
C1219 C1221 1.413 . S
C1219 H1226 0.929 . S
C1220 C1208 1.392 . S
C1220 C1221 1.367 . S
C1220 H1228 0.930 . S
C1221 C1219 1.413 . S
C1221 C1220 1.367 . S
C1221 H1223 0.930 . S
H1222 C1215 0.930 . S
H1223 C1221 0.930 . S
H1224 C1212 0.930 . S
H1225 C1213 0.930 . S
H1226 C1219 0.929 . S
H1227 C1241 0.930 . S
H1228 C1220 0.930 . S
H1229 C1247 0.930 . S
H1230 C1238 0.929 . S
H1231 C1245 0.930 . S
H1232 C1209 0.931 . S
H1233 C1239 0.930 . S
H1234 C1272 0.930 . S
H1235 C1216 0.930 . S
H1236 C1271 0.931 . S
N1237 Eu1206 2.657 . S
N1237 C1238 1.334 . S
N1237 C1242 1.362 . S
C1238 H1230 0.929 . S
C1238 N1237 1.334 . S
C1238 C1241 1.413 . S
C1239 H1233 0.930 . S
C1239 C1240 1.392 . S
C1239 C1241 1.367 . S
C1240 C1239 1.392 . S
C1240 C1242 1.420 . S
C1240 C1272 1.423 . S
C1241 H1227 0.930 . S
C1241 C1238 1.413 . S
C1241 C1239 1.367 . S
C1242 N1237 1.362 . S
C1242 C1240 1.420 . S
C1242 C1246 1.429 . S
H1243 C1248 0.930 . S
N1244 Eu1206 2.609 . S
N1244 C1246 1.377 . S
N1244 C1247 1.321 . S
C1245 H1231 0.930 . S
C1245 C1247 1.400 . S
C1245 C1248 1.386 . S
C1246 C1242 1.429 . S
C1246 N1244 1.377 . S
C1246 C1249 1.411 . S
C1247 H1229 0.930 . S
C1247 N1244 1.321 . S
C1247 C1245 1.400 . S
C1248 H1243 0.930 . S
C1248 C1245 1.386 . S
C1248 C1249 1.395 . S
C1249 C1246 1.411 . S
C1249 C1248 1.395 . S
C1249 C1271 1.420 . S
O1250 Eu1206 2.558 . S
O1250 C1270 1.257 . S
O1251 Eu1206 2.612 . S
O1251 Eu1217 2.380 . S
O1251 C1262 1.276 . S
O1252 Eu1217 2.432 . S
O1252 C1269 1.264 . S
O1253 Eu1206 2.339 . S
O1253 C1269 1.254 . S
O1254 Eu1206 2.563 . S
O1254 C1262 1.235 . S
O1255 Eu1206 2.419 . S
O1255 C1270 1.249 . S
O1256 Eu1217 2.558 . S
O1256 C1281 1.257 . S
O1257 Eu1206 2.380 . S
O1257 Eu1217 2.612 . S
O1257 C1273 1.276 . S
O1258 Eu1206 2.432 . S
O1258 C1280 1.264 . S
O1259 Eu1217 2.339 . S
O1259 C1280 1.254 . S
O1260 Eu1217 2.563 . S
O1260 C1273 1.235 . S
O1261 Eu1217 2.419 . S
O1261 C1281 1.249 . S
C1262 O1251 1.276 . S
C1262 O1254 1.235 . S
C1263 C1265 1.393 . S
C1263 C1267 1.395 . S
C1263 C1270 1.492 . S
C1264 C1265 1.392 . S
C1264 C1266 1.386 . S
C1265 C1263 1.393 . S
C1265 C1264 1.392 . S
C1265 H1282 0.930 . S
C1266 C1264 1.386 . S
C1266 C1268 1.395 . S
C1266 H1283 0.930 . S
C1267 C1263 1.395 . S
C1267 C1268 1.379 . S
C1267 H1284 0.930 . S
C1268 C1266 1.395 . S
C1268 C1267 1.379 . S
C1268 H1285 0.930 . S
C1269 O1252 1.264 . S
C1269 O1253 1.254 . S
C1270 Eu1206 2.848 . S
C1270 O1250 1.257 . S
C1270 O1255 1.249 . S
C1270 C1263 1.492 . S
C1271 H1236 0.931 . S
C1271 C1249 1.420 . S
C1271 C1272 1.351 . S
C1272 H1234 0.930 . S
C1272 C1240 1.423 . S
C1272 C1271 1.351 . S
C1273 O1257 1.276 . S
C1273 O1260 1.235 . S
C1274 C1275 1.393 . S
C1274 C1278 1.395 . S
C1274 C1281 1.492 . S
C1275 C1274 1.393 . S
C1275 C1276 1.392 . S
C1275 H1286 0.930 . S
C1276 C1275 1.392 . S
C1276 C1277 1.386 . S
C1277 C1276 1.386 . S
C1277 C1279 1.395 . S
C1277 H1287 0.930 . S
C1278 C1274 1.395 . S
C1278 C1279 1.379 . S
C1278 H1288 0.930 . S
C1279 C1277 1.395 . S
C1279 C1278 1.379 . S
C1279 H1289 0.930 . S
C1280 O1258 1.264 . S
C1280 O1259 1.254 . S
C1281 Eu1217 2.848 . S
C1281 O1256 1.257 . S
C1281 O1261 1.249 . S
C1281 C1274 1.492 . S
H1282 C1265 0.930 . S
H1283 C1266 0.930 . S
H1284 C1267 0.930 . S
H1285 C1268 0.930 . S
H1286 C1275 0.930 . S
H1287 C1277 0.930 . S
H1288 C1278 0.930 . S
H1289 C1279 0.930 . S
Eu1290 N1321 2.657 . S
Eu1290 N1328 2.609 . S
Eu1290 O1334 2.558 . S
Eu1290 O1335 2.612 . S
Eu1290 O1337 2.339 . S
Eu1290 O1338 2.563 . S
Eu1290 O1339 2.419 . S
Eu1290 O1341 2.380 . S
Eu1290 O1342 2.432 . S
Eu1290 C1354 2.848 . S
C1291 C1294 1.429 . S
C1291 C1295 1.411 . S
C1291 N1298 1.377 . S
C1292 C1294 1.420 . S
C1292 C1296 1.423 . S
C1292 C1304 1.392 . S
C1293 C1295 1.420 . S
C1293 C1296 1.351 . S
C1293 H1316 0.931 . S
C1294 C1291 1.429 . S
C1294 C1292 1.420 . S
C1294 N1302 1.362 . S
C1295 C1291 1.411 . S
C1295 C1293 1.420 . S
C1295 C1300 1.395 . S
C1296 C1292 1.423 . S
C1296 C1293 1.351 . S
C1296 H1308 0.930 . S
C1297 C1299 1.400 . S
C1297 C1300 1.386 . S
C1297 H1309 0.930 . S
N1298 C1291 1.377 . S
N1298 C1299 1.321 . S
N1298 Eu1301 2.609 . S
C1299 C1297 1.400 . S
C1299 N1298 1.321 . S
C1299 H1306 0.930 . S
C1300 C1295 1.395 . S
C1300 C1297 1.386 . S
C1300 H1319 0.930 . S
Eu1301 N1298 2.609 . S
Eu1301 N1302 2.657 . S
Eu1301 O1335 2.380 . S
Eu1301 O1336 2.432 . S
Eu1301 O1340 2.558 . S
Eu1301 O1341 2.612 . S
Eu1301 O1343 2.339 . S
Eu1301 O1344 2.563 . S
Eu1301 O1345 2.419 . S
Eu1301 C1365 2.848 . S
N1302 C1294 1.362 . S
N1302 Eu1301 2.657 . S
N1302 C1303 1.334 . S
C1303 N1302 1.334 . S
C1303 C1305 1.413 . S
C1303 H1310 0.929 . S
C1304 C1292 1.392 . S
C1304 C1305 1.367 . S
C1304 H1312 0.930 . S
C1305 C1303 1.413 . S
C1305 C1304 1.367 . S
C1305 H1307 0.930 . S
H1306 C1299 0.930 . S
H1307 C1305 0.930 . S
H1308 C1296 0.930 . S
H1309 C1297 0.930 . S
H1310 C1303 0.929 . S
H1311 C1325 0.930 . S
H1312 C1304 0.930 . S
H1313 C1331 0.930 . S
H1314 C1322 0.929 . S
H1315 C1329 0.930 . S
H1316 C1293 0.931 . S
H1317 C1323 0.930 . S
H1318 C1356 0.930 . S
H1319 C1300 0.930 . S
H1320 C1355 0.931 . S
N1321 Eu1290 2.657 . S
N1321 C1322 1.334 . S
N1321 C1326 1.362 . S
C1322 H1314 0.929 . S
C1322 N1321 1.334 . S
C1322 C1325 1.413 . S
C1323 H1317 0.930 . S
C1323 C1324 1.392 . S
C1323 C1325 1.367 . S
C1324 C1323 1.392 . S
C1324 C1326 1.420 . S
C1324 C1356 1.423 . S
C1325 H1311 0.930 . S
C1325 C1322 1.413 . S
C1325 C1323 1.367 . S
C1326 N1321 1.362 . S
C1326 C1324 1.420 . S
C1326 C1330 1.429 . S
H1327 C1332 0.930 . S
N1328 Eu1290 2.609 . S
N1328 C1330 1.377 . S
N1328 C1331 1.321 . S
C1329 H1315 0.930 . S
C1329 C1331 1.400 . S
C1329 C1332 1.386 . S
C1330 C1326 1.429 . S
C1330 N1328 1.377 . S
C1330 C1333 1.411 . S
C1331 H1313 0.930 . S
C1331 N1328 1.321 . S
C1331 C1329 1.400 . S
C1332 H1327 0.930 . S
C1332 C1329 1.386 . S
C1332 C1333 1.395 . S
C1333 C1330 1.411 . S
C1333 C1332 1.395 . S
C1333 C1355 1.420 . S
O1334 Eu1290 2.558 . S
O1334 C1354 1.257 . S
O1335 Eu1290 2.612 . S
O1335 Eu1301 2.380 . S
O1335 C1346 1.276 . S
O1336 Eu1301 2.432 . S
O1336 C1353 1.264 . S
O1337 Eu1290 2.339 . S
O1337 C1353 1.254 . S
O1338 Eu1290 2.563 . S
O1338 C1346 1.235 . S
O1339 Eu1290 2.419 . S
O1339 C1354 1.249 . S
O1340 Eu1301 2.558 . S
O1340 C1365 1.257 . S
O1341 Eu1290 2.380 . S
O1341 Eu1301 2.612 . S
O1341 C1357 1.276 . S
O1342 Eu1290 2.432 . S
O1342 C1364 1.264 . S
O1343 Eu1301 2.339 . S
O1343 C1364 1.254 . S
O1344 Eu1301 2.563 . S
O1344 C1357 1.235 . S
O1345 Eu1301 2.419 . S
O1345 C1365 1.249 . S
C1346 O1335 1.276 . S
C1346 O1338 1.235 . S
C1347 C1349 1.393 . S
C1347 C1351 1.395 . S
C1347 C1354 1.492 . S
C1348 C1349 1.392 . S
C1348 C1350 1.386 . S
C1349 C1347 1.393 . S
C1349 C1348 1.392 . S
C1349 H1366 0.930 . S
C1350 C1348 1.386 . S
C1350 C1352 1.395 . S
C1350 H1367 0.930 . S
C1351 C1347 1.395 . S
C1351 C1352 1.379 . S
C1351 H1368 0.930 . S
C1352 C1350 1.395 . S
C1352 C1351 1.379 . S
C1352 H1369 0.930 . S
C1353 O1336 1.264 . S
C1353 O1337 1.254 . S
C1354 Eu1290 2.848 . S
C1354 O1334 1.257 . S
C1354 O1339 1.249 . S
C1354 C1347 1.492 . S
C1355 H1320 0.931 . S
C1355 C1333 1.420 . S
C1355 C1356 1.351 . S
C1356 H1318 0.930 . S
C1356 C1324 1.423 . S
C1356 C1355 1.351 . S
C1357 O1341 1.276 . S
C1357 O1344 1.235 . S
C1358 C1359 1.393 . S
C1358 C1362 1.395 . S
C1358 C1365 1.492 . S
C1359 C1358 1.393 . S
C1359 C1360 1.392 . S
C1359 H1370 0.930 . S
C1360 C1359 1.392 . S
C1360 C1361 1.386 . S
C1361 C1360 1.386 . S
C1361 C1363 1.395 . S
C1361 H1371 0.930 . S
C1362 C1358 1.395 . S
C1362 C1363 1.379 . S
C1362 H1372 0.930 . S
C1363 C1361 1.395 . S
C1363 C1362 1.379 . S
C1363 H1373 0.930 . S
C1364 O1342 1.264 . S
C1364 O1343 1.254 . S
C1365 Eu1301 2.848 . S
C1365 O1340 1.257 . S
C1365 O1345 1.249 . S
C1365 C1358 1.492 . S
H1366 C1349 0.930 . S
H1367 C1350 0.930 . S
H1368 C1351 0.930 . S
H1369 C1352 0.930 . S
H1370 C1359 0.930 . S
H1371 C1361 0.930 . S
H1372 C1362 0.930 . S
H1373 C1363 0.930 . S
Eu1374 N1405 2.657 . S
Eu1374 N1412 2.609 . S
Eu1374 O1418 2.558 . S
Eu1374 O1419 2.612 . S
Eu1374 O1421 2.339 . S
Eu1374 O1422 2.563 . S
Eu1374 O1423 2.419 . S
Eu1374 O1425 2.380 . S
Eu1374 O1426 2.432 . S
Eu1374 C1438 2.848 . S
C1375 C1378 1.429 . S
C1375 C1379 1.411 . S
C1375 N1382 1.377 . S
C1376 C1378 1.420 . S
C1376 C1380 1.423 . S
C1376 C1388 1.392 . S
C1377 C1379 1.420 . S
C1377 C1380 1.351 . S
C1377 H1400 0.931 . S
C1378 C1375 1.429 . S
C1378 C1376 1.420 . S
C1378 N1386 1.362 . S
C1379 C1375 1.411 . S
C1379 C1377 1.420 . S
C1379 C1384 1.395 . S
C1380 C1376 1.423 . S
C1380 C1377 1.351 . S
C1380 H1392 0.930 . S
C1381 C1383 1.400 . S
C1381 C1384 1.386 . S
C1381 H1393 0.930 . S
N1382 C1375 1.377 . S
N1382 C1383 1.321 . S
N1382 Eu1385 2.609 . S
C1383 C1381 1.400 . S
C1383 N1382 1.321 . S
C1383 H1390 0.930 . S
C1384 C1379 1.395 . S
C1384 C1381 1.386 . S
C1384 H1403 0.930 . S
Eu1385 N1382 2.609 . S
Eu1385 N1386 2.657 . S
Eu1385 O1419 2.380 . S
Eu1385 O1420 2.432 . S
Eu1385 O1424 2.558 . S
Eu1385 O1425 2.612 . S
Eu1385 O1427 2.339 . S
Eu1385 O1428 2.563 . S
Eu1385 O1429 2.419 . S
Eu1385 C1449 2.848 . S
N1386 C1378 1.362 . S
N1386 Eu1385 2.657 . S
N1386 C1387 1.334 . S
C1387 N1386 1.334 . S
C1387 C1389 1.413 . S
C1387 H1394 0.929 . S
C1388 C1376 1.392 . S
C1388 C1389 1.367 . S
C1388 H1396 0.930 . S
C1389 C1387 1.413 . S
C1389 C1388 1.367 . S
C1389 H1391 0.930 . S
H1390 C1383 0.930 . S
H1391 C1389 0.930 . S
H1392 C1380 0.930 . S
H1393 C1381 0.930 . S
H1394 C1387 0.929 . S
H1395 C1409 0.930 . S
H1396 C1388 0.930 . S
H1397 C1415 0.930 . S
H1398 C1406 0.929 . S
H1399 C1413 0.930 . S
H1400 C1377 0.931 . S
H1401 C1407 0.930 . S
H1402 C1440 0.930 . S
H1403 C1384 0.930 . S
H1404 C1439 0.931 . S
N1405 Eu1374 2.657 . S
N1405 C1406 1.334 . S
N1405 C1410 1.362 . S
C1406 H1398 0.929 . S
C1406 N1405 1.334 . S
C1406 C1409 1.413 . S
C1407 H1401 0.930 . S
C1407 C1408 1.392 . S
C1407 C1409 1.367 . S
C1408 C1407 1.392 . S
C1408 C1410 1.420 . S
C1408 C1440 1.423 . S
C1409 H1395 0.930 . S
C1409 C1406 1.413 . S
C1409 C1407 1.367 . S
C1410 N1405 1.362 . S
C1410 C1408 1.420 . S
C1410 C1414 1.429 . S
H1411 C1416 0.930 . S
N1412 Eu1374 2.609 . S
N1412 C1414 1.377 . S
N1412 C1415 1.321 . S
C1413 H1399 0.930 . S
C1413 C1415 1.400 . S
C1413 C1416 1.386 . S
C1414 C1410 1.429 . S
C1414 N1412 1.377 . S
C1414 C1417 1.411 . S
C1415 H1397 0.930 . S
C1415 N1412 1.321 . S
C1415 C1413 1.400 . S
C1416 H1411 0.930 . S
C1416 C1413 1.386 . S
C1416 C1417 1.395 . S
C1417 C1414 1.411 . S
C1417 C1416 1.395 . S
C1417 C1439 1.420 . S
O1418 Eu1374 2.558 . S
O1418 C1438 1.257 . S
O1419 Eu1374 2.612 . S
O1419 Eu1385 2.380 . S
O1419 C1430 1.276 . S
O1420 Eu1385 2.432 . S
O1420 C1437 1.264 . S
O1421 Eu1374 2.339 . S
O1421 C1437 1.254 . S
O1422 Eu1374 2.563 . S
O1422 C1430 1.235 . S
O1423 Eu1374 2.419 . S
O1423 C1438 1.249 . S
O1424 Eu1385 2.558 . S
O1424 C1449 1.257 . S
O1425 Eu1374 2.380 . S
O1425 Eu1385 2.612 . S
O1425 C1441 1.276 . S
O1426 Eu1374 2.432 . S
O1426 C1448 1.264 . S
O1427 Eu1385 2.339 . S
O1427 C1448 1.254 . S
O1428 Eu1385 2.563 . S
O1428 C1441 1.235 . S
O1429 Eu1385 2.419 . S
O1429 C1449 1.249 . S
C1430 O1419 1.276 . S
C1430 O1422 1.235 . S
C1431 C1433 1.393 . S
C1431 C1435 1.395 . S
C1431 C1438 1.492 . S
C1432 C1433 1.392 . S
C1432 C1434 1.386 . S
C1433 C1431 1.393 . S
C1433 C1432 1.392 . S
C1433 H1450 0.930 . S
C1434 C1432 1.386 . S
C1434 C1436 1.395 . S
C1434 H1451 0.930 . S
C1435 C1431 1.395 . S
C1435 C1436 1.379 . S
C1435 H1452 0.930 . S
C1436 C1434 1.395 . S
C1436 C1435 1.379 . S
C1436 H1453 0.930 . S
C1437 O1420 1.264 . S
C1437 O1421 1.254 . S
C1438 Eu1374 2.848 . S
C1438 O1418 1.257 . S
C1438 O1423 1.249 . S
C1438 C1431 1.492 . S
C1439 H1404 0.931 . S
C1439 C1417 1.420 . S
C1439 C1440 1.351 . S
C1440 H1402 0.930 . S
C1440 C1408 1.423 . S
C1440 C1439 1.351 . S
C1441 O1425 1.276 . S
C1441 O1428 1.235 . S
C1442 C1443 1.393 . S
C1442 C1446 1.395 . S
C1442 C1449 1.492 . S
C1443 C1442 1.393 . S
C1443 C1444 1.392 . S
C1443 H1454 0.930 . S
C1444 C1443 1.392 . S
C1444 C1445 1.386 . S
C1445 C1444 1.386 . S
C1445 C1447 1.395 . S
C1445 H1455 0.930 . S
C1446 C1442 1.395 . S
C1446 C1447 1.379 . S
C1446 H1456 0.930 . S
C1447 C1445 1.395 . S
C1447 C1446 1.379 . S
C1447 H1457 0.930 . S
C1448 O1426 1.264 . S
C1448 O1427 1.254 . S
C1449 Eu1385 2.848 . S
C1449 O1424 1.257 . S
C1449 O1429 1.249 . S
C1449 C1442 1.492 . S
H1450 C1433 0.930 . S
H1451 C1434 0.930 . S
H1452 C1435 0.930 . S
H1453 C1436 0.930 . S
H1454 C1443 0.930 . S
H1455 C1445 0.930 . S
H1456 C1446 0.930 . S
H1457 C1447 0.930 . S
C1458 C1459 1.363 . S
C1458 C1464 1.379 . S
C1458 N1466 1.356 . S
C1459 C1458 1.363 . S
C1459 C1465 1.363 . S
C1460 C1461 1.363 . S
C1460 C1465 1.379 . S
C1460 N1467 1.356 . S
C1461 C1460 1.363 . S
C1461 C1464 1.363 . S
N1462 C1464 1.356 . S
N1462 H1474 0.984 . S
N1462 H1475 0.985 . S
N1463 C1465 1.356 . S
N1463 H1468 0.984 . S
N1463 H1469 0.985 . S
C1464 C1458 1.379 . S
C1464 C1461 1.363 . S
C1464 N1462 1.356 . S
C1465 C1459 1.363 . S
C1465 C1460 1.379 . S
C1465 N1463 1.356 . S
N1466 C1458 1.356 . S
N1466 H1472 0.984 . S
N1466 H1473 0.984 . S
N1467 C1460 1.356 . S
N1467 H1470 0.984 . S
N1467 H1471 0.985 . S
H1468 N1463 0.984 . S
H1469 N1463 0.985 . S
H1470 N1467 0.984 . S
H1471 N1467 0.985 . S
H1472 N1466 0.984 . S
H1473 N1466 0.984 . S
H1474 N1462 0.984 . S
H1475 N1462 0.985 . S
C1476 C1477 1.363 . S
C1476 C1482 1.379 . S
C1476 N1484 1.356 . S
C1477 C1476 1.363 . S
C1477 C1483 1.363 . S
C1478 C1479 1.363 . S
C1478 C1483 1.379 . S
C1478 N1485 1.356 . S
C1479 C1478 1.363 . S
C1479 C1482 1.363 . S
N1480 C1482 1.356 . S
N1480 H1492 0.984 1_554 S
N1480 H1493 0.985 . S
N1481 C1483 1.356 . S
N1481 H1486 0.984 . S
N1481 H1487 0.985 . S
C1482 C1476 1.379 . S
C1482 C1479 1.363 . S
C1482 N1480 1.356 . S
C1483 C1477 1.363 . S
C1483 C1478 1.379 . S
C1483 N1481 1.356 . S
N1484 C1476 1.356 . S
N1484 H1490 0.984 . S
N1484 H1491 0.984 . S
N1485 C1478 1.356 . S
N1485 H1488 0.984 . S
N1485 H1489 0.985 . S
H1486 N1481 0.984 . S
H1487 N1481 0.985 . S
H1488 N1485 0.984 . S
H1489 N1485 0.985 . S
H1490 N1484 0.984 . S
H1491 N1484 0.984 . S
H1492 N1480 0.984 1_556 S
H1493 N1480 0.985 . S
C1494 C1495 1.363 . S
C1494 C1500 1.379 . S
C1494 N1502 1.356 . S
C1495 C1494 1.363 . S
C1495 C1501 1.363 . S
C1496 C1497 1.363 . S
C1496 C1501 1.379 . S
C1496 N1503 1.356 . S
C1497 C1496 1.363 . S
C1497 C1500 1.363 . S
N1498 C1500 1.356 1_556 S
N1498 H1510 0.984 . S
N1498 H1511 0.985 . S
N1499 C1501 1.356 . S
N1499 H1504 0.984 . S
N1499 H1505 0.985 . S
C1500 C1494 1.379 . S
C1500 C1497 1.363 . S
C1500 N1498 1.356 1_554 S
C1501 C1495 1.363 . S
C1501 C1496 1.379 . S
C1501 N1499 1.356 . S
N1502 C1494 1.356 . S
N1502 H1508 0.984 1_554 S
N1502 H1509 0.984 . S
N1503 C1496 1.356 . S
N1503 H1506 0.984 . S
N1503 H1507 0.985 . S
H1504 N1499 0.984 . S
H1505 N1499 0.985 . S
H1506 N1503 0.984 . S
H1507 N1503 0.985 . S
H1508 N1502 0.984 1_556 S
H1509 N1502 0.984 . S
H1510 N1498 0.984 . S
H1511 N1498 0.985 . S
C1512 C1513 1.363 . S
C1512 C1518 1.379 . S
C1512 N1520 1.356 . S
C1513 C1512 1.363 . S
C1513 C1519 1.363 . S
C1514 C1515 1.363 . S
C1514 C1519 1.379 . S
C1514 N1521 1.356 . S
C1515 C1514 1.363 . S
C1515 C1518 1.363 . S
N1516 C1518 1.356 1_554 S
N1516 H1528 0.984 . S
N1516 H1529 0.985 . S
N1517 C1519 1.356 . S
N1517 H1522 0.984 . S
N1517 H1523 0.985 . S
C1518 C1512 1.379 . S
C1518 C1515 1.363 . S
C1518 N1516 1.356 1_556 S
C1519 C1513 1.363 . S
C1519 C1514 1.379 . S
C1519 N1517 1.356 . S
N1520 C1512 1.356 . S
N1520 H1526 1.012 . S
N1520 H1527 0.984 . S
N1521 C1514 1.356 . S
N1521 H1524 0.984 . S
N1521 H1525 0.985 . S
H1522 N1517 0.984 . S
H1523 N1517 0.985 . S
H1524 N1521 0.984 . S
H1525 N1521 0.985 . S
H1526 N1520 1.012 . S
H1527 N1520 0.984 . S
H1528 N1516 0.984 . S
H1529 N1516 0.985 . S
C1530 C1531 1.363 . S
C1530 C1536 1.379 . S
C1530 N1538 1.356 . S
C1531 C1530 1.363 . S
C1531 C1537 1.363 . S
C1532 C1533 1.363 . S
C1532 C1537 1.379 . S
C1532 N1539 1.356 . S
C1533 C1532 1.363 . S
C1533 C1536 1.363 . S
N1534 C1536 1.356 1_554 S
N1534 H1546 0.984 . S
N1534 H1547 0.985 . S
N1535 C1537 1.356 . S
N1535 H1540 0.984 . S
N1535 H1541 0.985 . S
C1536 C1530 1.379 . S
C1536 C1533 1.363 . S
C1536 N1534 1.356 1_556 S
C1537 C1531 1.363 . S
C1537 C1532 1.379 . S
C1537 N1535 1.356 . S
N1538 C1530 1.356 . S
N1538 H1544 0.984 1_556 S
N1538 H1545 0.984 . S
N1539 C1532 1.356 . S
N1539 H1542 0.984 . S
N1539 H1543 0.985 . S
H1540 N1535 0.984 . S
H1541 N1535 0.985 . S
H1542 N1539 0.984 . S
H1543 N1539 0.985 . S
H1544 N1538 0.984 1_554 S
H1545 N1538 0.984 . S
H1546 N1534 0.984 . S
H1547 N1534 0.985 . S
C1548 C1549 1.363 . S
C1548 C1554 1.379 . S
C1548 N1556 1.356 . S
C1549 C1548 1.363 . S
C1549 C1555 1.363 . S
C1550 C1551 1.363 . S
C1550 C1555 1.379 . S
C1550 N1557 1.336 1_556 S
C1551 C1550 1.363 . S
C1551 C1554 1.363 . S
N1552 C1554 1.356 . S
N1552 H1564 0.984 . S
N1552 H1565 0.985 . S
N1553 C1555 1.356 . S
N1553 H1558 0.984 . S
N1553 H1559 0.985 . S
C1554 C1548 1.379 . S
C1554 C1551 1.363 . S
C1554 N1552 1.356 . S
C1555 C1549 1.363 . S
C1555 C1550 1.379 . S
C1555 N1553 1.356 . S
N1556 C1548 1.356 . S
N1556 H1562 0.984 . S
N1556 H1563 0.984 . S
N1557 C1550 1.336 1_554 S
N1557 H1560 0.989 . S
N1557 H1561 1.001 . S
H1558 N1553 0.984 . S
H1559 N1553 0.985 . S
H1560 N1557 0.989 . S
H1561 N1557 1.001 . S
H1562 N1556 0.984 . S
H1563 N1556 0.984 . S
H1564 N1552 0.984 . S
H1565 N1552 0.985 . S
C1566 C1567 1.363 . S
C1566 C1572 1.379 . S
C1566 N1574 1.356 . S
C1567 C1566 1.363 . S
C1567 C1573 1.363 . S
C1568 C1569 1.363 . S
C1568 C1573 1.379 . S
C1568 N1575 1.356 . S
C1569 C1568 1.363 . S
C1569 C1572 1.363 . S
N1570 C1572 1.356 . S
N1570 H1582 0.984 1_556 S
N1570 H1583 0.979 1_556 S
N1571 C1573 1.356 . S
N1571 H1576 0.984 . S
N1571 H1577 0.985 . S
C1572 C1566 1.379 . S
C1572 C1569 1.363 . S
C1572 N1570 1.356 . S
C1573 C1567 1.363 . S
C1573 C1568 1.379 . S
C1573 N1571 1.356 . S
N1574 C1566 1.356 . S
N1574 H1580 0.984 . S
N1574 H1581 0.984 . S
N1575 C1568 1.356 . S
N1575 H1578 0.984 . S
N1575 H1579 0.985 . S
H1576 N1571 0.984 . S
H1577 N1571 0.985 . S
H1578 N1575 0.984 . S
H1579 N1575 0.985 . S
H1580 N1574 0.984 . S
H1581 N1574 0.984 . S
H1582 N1570 0.984 1_554 S
H1583 N1570 0.979 1_554 S
C1584 C1585 1.363 . S
C1584 C1590 1.379 . S
C1584 N1592 1.356 . S
C1585 C1584 1.363 . S
C1585 C1591 1.363 . S
C1586 C1587 1.363 . S
C1586 C1591 1.379 . S
C1586 N1593 1.356 . S
C1587 C1586 1.363 . S
C1587 C1590 1.363 . S
N1588 C1590 1.356 . S
N1588 H1600 0.984 . S
N1588 H1601 0.985 . S
N1589 C1591 1.356 . S
N1589 H1594 0.984 . S
N1589 H1595 0.985 . S
C1590 C1584 1.379 . S
C1590 C1587 1.363 . S
C1590 N1588 1.356 . S
C1591 C1585 1.363 . S
C1591 C1586 1.379 . S
C1591 N1589 1.356 . S
N1592 C1584 1.356 . S
N1592 H1598 0.984 . S
N1592 H1599 0.984 . S
N1593 C1586 1.356 . S
N1593 H1596 0.984 . S
N1593 H1597 0.985 . S
H1594 N1589 0.984 . S
H1595 N1589 0.985 . S
H1596 N1593 0.984 . S
H1597 N1593 0.985 . S
H1598 N1592 0.984 . S
H1599 N1592 0.984 . S
H1600 N1588 0.984 . S
H1601 N1588 0.985 . S
C1602 C1603 1.363 . S
C1602 C1608 1.379 . S
C1602 N1610 1.356 . S
C1603 C1602 1.363 . S
C1603 C1609 1.363 . S
C1604 C1605 1.363 . S
C1604 C1609 1.379 . S
C1604 N1611 1.356 1_556 S
C1605 C1604 1.363 . S
C1605 C1608 1.363 . S
N1606 C1608 1.356 . S
N1606 H1618 0.984 . S
N1606 H1619 0.985 . S
N1607 C1609 1.356 . S
N1607 H1612 0.984 . S
N1607 H1613 0.985 1_556 S
C1608 C1602 1.379 . S
C1608 C1605 1.363 . S
C1608 N1606 1.356 . S
C1609 C1603 1.363 . S
C1609 C1604 1.379 . S
C1609 N1607 1.356 . S
N1610 C1602 1.356 . S
N1610 H1616 0.984 . S
N1610 H1617 0.984 . S
N1611 C1604 1.356 1_554 S
N1611 H1614 0.984 . S
N1611 H1615 0.985 . S
H1612 N1607 0.984 . S
H1613 N1607 0.985 1_554 S
H1614 N1611 0.984 . S
H1615 N1611 0.985 . S
H1616 N1610 0.984 . S
H1617 N1610 0.984 . S
H1618 N1606 0.984 . S
H1619 N1606 0.985 . S
C1620 C1621 1.363 . S
C1620 C1626 1.379 . S
C1620 N1628 1.356 . S
C1621 C1620 1.363 . S
C1621 C1627 1.363 . S
C1622 C1623 1.363 . S
C1622 C1627 1.379 . S
C1622 N1629 1.356 . S
C1623 C1622 1.363 . S
C1623 C1626 1.363 . S
N1624 C1626 1.356 1_556 S
N1624 H1636 0.984 . S
N1624 H1637 0.985 . S
N1625 C1627 1.356 . S
N1625 H1630 0.984 . S
N1625 H1631 0.985 . S
C1626 C1620 1.379 . S
C1626 C1623 1.363 . S
C1626 N1624 1.356 1_554 S
C1627 C1621 1.363 . S
C1627 C1622 1.379 . S
C1627 N1625 1.356 . S
N1628 C1620 1.356 . S
N1628 H1634 0.979 . S
N1628 H1635 0.984 . S
N1629 C1622 1.356 . S
N1629 H1632 0.984 . S
N1629 H1633 0.985 . S
H1630 N1625 0.984 . S
H1631 N1625 0.985 . S
H1632 N1629 0.984 . S
H1633 N1629 0.985 . S
H1634 N1628 0.979 . S
H1635 N1628 0.984 . S
H1636 N1624 0.984 . S
H1637 N1624 0.985 . S
C1638 C1639 1.363 . S
C1638 C1644 1.379 . S
C1638 N1646 1.356 . S
C1639 C1638 1.363 . S
C1639 C1645 1.363 . S
C1640 C1641 1.363 . S
C1640 C1645 1.379 . S
C1640 N1647 1.356 . S
C1641 C1640 1.363 . S
C1641 C1644 1.363 . S
N1642 C1644 1.356 . S
N1642 H1654 0.984 . S
N1642 H1655 0.985 . S
N1643 C1645 1.356 . S
N1643 H1648 0.984 . S
N1643 H1649 0.985 . S
C1644 C1638 1.379 . S
C1644 C1641 1.363 . S
C1644 N1642 1.356 . S
C1645 C1639 1.363 . S
C1645 C1640 1.379 . S
C1645 N1643 1.356 . S
N1646 C1638 1.356 . S
N1646 H1652 0.984 . S
N1646 H1653 0.984 . S
N1647 C1640 1.356 . S
N1647 H1650 0.984 . S
N1647 H1651 0.985 . S
H1648 N1643 0.984 . S
H1649 N1643 0.985 . S
H1650 N1647 0.984 . S
H1651 N1647 0.985 . S
H1652 N1646 0.984 . S
H1653 N1646 0.984 . S
H1654 N1642 0.984 . S
H1655 N1642 0.985 . S
C1656 C1657 1.363 . S
C1656 C1662 1.379 . S
C1656 N1664 1.356 . S
C1657 C1656 1.363 . S
C1657 C1663 1.363 . S
C1658 C1659 1.363 . S
C1658 C1663 1.379 . S
C1658 N1665 1.356 . S
C1659 C1658 1.363 . S
C1659 C1662 1.363 . S
N1660 C1662 1.356 1_556 S
N1660 H1672 0.984 . S
N1660 H1673 0.985 . S
N1661 C1663 1.356 . S
N1661 H1666 0.984 . S
N1661 H1667 0.985 . S
C1662 C1656 1.379 . S
C1662 C1659 1.363 . S
C1662 N1660 1.356 1_554 S
C1663 C1657 1.363 . S
C1663 C1658 1.379 . S
C1663 N1661 1.356 . S
N1664 C1656 1.356 . S
N1664 H1670 0.984 1_554 S
N1664 H1671 0.984 . S
N1665 C1658 1.356 . S
N1665 H1668 0.984 . S
N1665 H1669 0.985 . S
H1666 N1661 0.984 . S
H1667 N1661 0.985 . S
H1668 N1665 0.984 . S
H1669 N1665 0.985 . S
H1670 N1664 0.984 1_556 S
H1671 N1664 0.984 . S
H1672 N1660 0.984 . S
H1673 N1660 0.985 . S
C1674 C1675 1.363 . S
C1674 C1680 1.379 . S
C1674 N1682 1.356 . S
C1675 C1674 1.363 . S
C1675 C1681 1.363 . S
C1676 C1677 1.363 . S
C1676 C1681 1.379 . S
C1676 N1683 1.356 . S
C1677 C1676 1.363 . S
C1677 C1680 1.363 . S
N1678 C1680 1.356 . S
N1678 H1690 0.984 . S
N1678 H1691 0.985 . S
N1679 C1681 1.356 . S
N1679 H1684 0.984 1_455 S
N1679 H1685 0.985 . S
C1680 C1674 1.379 . S
C1680 C1677 1.363 . S
C1680 N1678 1.356 . S
C1681 C1675 1.363 . S
C1681 C1676 1.379 . S
C1681 N1679 1.356 . S
N1682 C1674 1.356 . S
N1682 H1688 0.984 . S
N1682 H1689 0.984 1_455 S
N1683 C1676 1.356 . S
N1683 H1686 0.984 . S
N1683 H1687 0.985 . S
H1684 N1679 0.984 1_655 S
H1685 N1679 0.985 . S
H1686 N1683 0.984 . S
H1687 N1683 0.985 . S
H1688 N1682 0.984 . S
H1689 N1682 0.984 1_655 S
H1690 N1678 0.984 . S
H1691 N1678 0.985 . S
C1692 C1693 1.363 . S
C1692 C1698 1.379 . S
C1692 N1700 1.356 . S
C1693 C1692 1.363 . S
C1693 C1699 1.363 . S
C1694 C1695 1.363 . S
C1694 C1699 1.379 . S
C1694 N1701 1.356 . S
C1695 C1694 1.363 . S
C1695 C1698 1.363 . S
N1696 C1698 1.356 . S
N1696 H1708 0.984 . S
N1696 H1709 0.985 . S
N1697 C1699 1.356 . S
N1697 H1702 0.984 . S
N1697 H1703 0.985 . S
C1698 C1692 1.379 . S
C1698 C1695 1.363 . S
C1698 N1696 1.356 . S
C1699 C1693 1.363 . S
C1699 C1694 1.379 . S
C1699 N1697 1.356 . S
N1700 C1692 1.356 . S
N1700 H1706 0.984 . S
N1700 H1707 0.984 . S
N1701 C1694 1.356 . S
N1701 H1704 0.984 . S
N1701 H1705 0.985 . S
H1702 N1697 0.984 . S
H1703 N1697 0.985 . S
H1704 N1701 0.984 . S
H1705 N1701 0.985 . S
H1706 N1700 0.984 . S
H1707 N1700 0.984 . S
H1708 N1696 0.984 . S
H1709 N1696 0.985 . S
C1710 C1711 1.363 . S
C1710 C1716 1.379 . S
C1710 N1718 1.356 1_565 S
C1711 C1710 1.363 . S
C1711 C1717 1.363 . S
C1712 C1713 1.363 . S
C1712 C1717 1.379 . S
C1712 N1719 1.356 . S
C1713 C1712 1.363 . S
C1713 C1716 1.363 . S
N1714 C1716 1.356 . S
N1714 H1726 0.984 . S
N1714 H1727 0.985 . S
N1715 C1717 1.356 . S
N1715 H1720 0.984 1_565 S
N1715 H1721 0.985 . S
C1716 C1710 1.379 . S
C1716 C1713 1.363 . S
C1716 N1714 1.356 . S
C1717 C1711 1.363 . S
C1717 C1712 1.379 . S
C1717 N1715 1.356 . S
N1718 C1710 1.356 1_545 S
N1718 H1724 0.978 . S
N1718 H1725 0.984 . S
N1719 C1712 1.356 . S
N1719 H1722 0.984 . S
N1719 H1723 0.985 . S
H1720 N1715 0.984 1_545 S
H1721 N1715 0.985 . S
H1722 N1719 0.984 . S
H1723 N1719 0.985 . S
H1724 N1718 0.978 . S
H1725 N1718 0.984 . S
H1726 N1714 0.984 . S
H1727 N1714 0.985 . S
C1728 C1729 1.363 . S
C1728 C1734 1.379 . S
C1728 N1736 1.356 . S
C1729 C1728 1.363 . S
C1729 C1735 1.363 . S
C1730 C1731 1.363 . S
C1730 C1735 1.379 . S
C1730 N1737 1.356 . S
C1731 C1730 1.363 . S
C1731 C1734 1.363 . S
N1732 C1734 1.356 . S
N1732 H1744 0.984 . S
N1732 H1745 0.985 . S
N1733 C1735 1.356 . S
N1733 H1738 0.984 . S
N1733 H1739 0.985 . S
C1734 C1728 1.379 . S
C1734 C1731 1.363 . S
C1734 N1732 1.356 . S
C1735 C1729 1.363 . S
C1735 C1730 1.379 . S
C1735 N1733 1.356 . S
N1736 C1728 1.356 . S
N1736 H1742 0.984 . S
N1736 H1743 0.984 . S
N1737 C1730 1.356 . S
N1737 H1740 0.984 . S
N1737 H1741 0.985 . S
H1738 N1733 0.984 . S
H1739 N1733 0.985 . S
H1740 N1737 0.984 . S
H1741 N1737 0.985 . S
H1742 N1736 0.984 . S
H1743 N1736 0.984 . S
H1744 N1732 0.984 . S
H1745 N1732 0.985 . S
C1746 C1747 1.363 . S
C1746 C1752 1.379 . S
C1746 N1754 1.356 . S
C1747 C1746 1.363 . S
C1747 C1753 1.363 . S
C1748 C1749 1.363 . S
C1748 C1753 1.379 . S
C1748 N1755 1.356 . S
C1749 C1748 1.363 . S
C1749 C1752 1.363 . S
N1750 C1752 1.356 . S
N1750 H1762 0.984 . S
N1750 H1763 0.985 . S
N1751 C1753 1.356 . S
N1751 H1756 0.984 . S
N1751 H1757 0.985 . S
C1752 C1746 1.379 . S
C1752 C1749 1.363 . S
C1752 N1750 1.356 . S
C1753 C1747 1.363 . S
C1753 C1748 1.379 . S
C1753 N1751 1.356 . S
N1754 C1746 1.356 . S
N1754 H1760 0.984 . S
N1754 H1761 0.984 . S
N1755 C1748 1.356 . S
N1755 H1758 0.984 . S
N1755 H1759 0.985 . S
H1756 N1751 0.984 . S
H1757 N1751 0.985 . S
H1758 N1755 0.984 . S
H1759 N1755 0.985 . S
H1760 N1754 0.984 . S
H1761 N1754 0.984 . S
H1762 N1750 0.984 . S
H1763 N1750 0.985 . S
C1764 C1765 1.363 . S
C1764 C1770 1.379 . S
C1764 N1772 1.356 . S
C1765 C1764 1.363 . S
C1765 C1771 1.363 . S
C1766 C1767 1.363 . S
C1766 C1771 1.379 . S
C1766 N1773 1.356 . S
C1767 C1766 1.363 . S
C1767 C1770 1.363 . S
N1768 C1770 1.356 . S
N1768 H1780 0.984 . S
N1768 H1781 0.985 . S
N1769 C1771 1.356 . S
N1769 H1774 0.984 . S
N1769 H1775 0.985 . S
C1770 C1764 1.379 . S
C1770 C1767 1.363 . S
C1770 N1768 1.356 . S
C1771 C1765 1.363 . S
C1771 C1766 1.379 . S
C1771 N1769 1.356 . S
N1772 C1764 1.356 . S
N1772 H1778 0.984 . S
N1772 H1779 0.984 . S
N1773 C1766 1.356 . S
N1773 H1776 0.984 . S
N1773 H1777 0.985 . S
H1774 N1769 0.984 . S
H1775 N1769 0.985 . S
H1776 N1773 0.984 . S
H1777 N1773 0.985 . S
H1778 N1772 0.984 . S
H1779 N1772 0.984 . S
H1780 N1768 0.984 . S
H1781 N1768 0.985 . S
C1782 C1783 1.363 . S
C1782 C1788 1.379 . S
C1782 N1790 1.356 . S
C1783 C1782 1.363 . S
C1783 C1789 1.363 . S
C1784 C1785 1.363 . S
C1784 C1789 1.379 . S
C1784 N1791 1.356 . S
C1785 C1784 1.363 . S
C1785 C1788 1.363 . S
N1786 C1788 1.356 . S
N1786 H1798 0.984 . S
N1786 H1799 0.985 . S
N1787 C1789 1.356 . S
N1787 H1792 0.984 . S
N1787 H1793 0.985 . S
C1788 C1782 1.379 . S
C1788 C1785 1.363 . S
C1788 N1786 1.356 . S
C1789 C1783 1.363 . S
C1789 C1784 1.379 . S
C1789 N1787 1.356 . S
N1790 C1782 1.356 . S
N1790 H1796 0.984 . S
N1790 H1797 0.984 . S
N1791 C1784 1.356 . S
N1791 H1794 0.984 . S
N1791 H1795 0.985 . S
H1792 N1787 0.984 . S
H1793 N1787 0.985 . S
H1794 N1791 0.984 . S
H1795 N1791 0.985 . S
H1796 N1790 0.984 . S
H1797 N1790 0.984 . S
H1798 N1786 0.984 . S
H1799 N1786 0.985 . S
C1800 C1801 1.363 . S
C1800 C1806 1.379 . S
C1800 N1808 1.356 . S
C1801 C1800 1.363 . S
C1801 C1807 1.363 . S
C1802 C1803 1.363 . S
C1802 C1807 1.379 . S
C1802 N1809 1.356 . S
C1803 C1802 1.363 . S
C1803 C1806 1.363 . S
N1804 C1806 1.356 . S
N1804 H1816 0.984 . S
N1804 H1817 0.985 . S
N1805 C1807 1.356 . S
N1805 H1810 0.984 . S
N1805 H1811 0.985 . S
C1806 C1800 1.379 . S
C1806 C1803 1.363 . S
C1806 N1804 1.356 . S
C1807 C1801 1.363 . S
C1807 C1802 1.379 . S
C1807 N1805 1.356 . S
N1808 C1800 1.356 . S
N1808 H1814 0.984 . S
N1808 H1815 0.984 . S
N1809 C1802 1.356 . S
N1809 H1812 0.984 . S
N1809 H1813 0.985 . S
H1810 N1805 0.984 . S
H1811 N1805 0.985 . S
H1812 N1809 0.984 . S
H1813 N1809 0.985 . S
H1814 N1808 0.984 . S
H1815 N1808 0.984 . S
H1816 N1804 0.984 . S
H1817 N1804 0.985 . S
C1818 C1819 1.363 . S
C1818 C1824 1.379 . S
C1818 N1826 1.356 . S
C1819 C1818 1.363 . S
C1819 C1825 1.363 . S
C1820 C1821 1.363 . S
C1820 C1825 1.379 . S
C1820 N1827 1.356 . S
C1821 C1820 1.363 . S
C1821 C1824 1.363 . S
N1822 C1824 1.356 . S
N1822 H1834 0.984 . S
N1822 H1835 0.985 . S
N1823 C1825 1.356 . S
N1823 H1828 0.984 . S
N1823 H1829 0.985 . S
C1824 C1818 1.379 . S
C1824 C1821 1.363 . S
C1824 N1822 1.356 . S
C1825 C1819 1.363 . S
C1825 C1820 1.379 . S
C1825 N1823 1.356 . S
N1826 C1818 1.356 . S
N1826 H1832 0.984 . S
N1826 H1833 0.984 . S
N1827 C1820 1.356 . S
N1827 H1830 0.984 . S
N1827 H1831 0.985 . S
H1828 N1823 0.984 . S
H1829 N1823 0.985 . S
H1830 N1827 0.984 . S
H1831 N1827 0.985 . S
H1832 N1826 0.984 . S
H1833 N1826 0.984 . S
H1834 N1822 0.984 . S
H1835 N1822 0.985 . S
C1836 C1837 1.363 . S
C1836 C1842 1.379 . S
C1836 N1844 1.318 1_565 S
C1837 C1836 1.363 . S
C1837 C1843 1.363 . S
C1838 C1839 1.363 . S
C1838 C1843 1.379 . S
C1838 N1845 1.356 . S
C1839 C1838 1.363 . S
C1839 C1842 1.363 . S
N1840 C1842 1.356 . S
N1840 H1852 0.984 . S
N1840 H1853 0.985 . S
N1841 C1843 1.356 . S
N1841 H1846 0.984 . S
N1841 H1847 0.985 . S
C1842 C1836 1.379 . S
C1842 C1839 1.363 . S
C1842 N1840 1.356 . S
C1843 C1837 1.363 . S
C1843 C1838 1.379 . S
C1843 N1841 1.356 . S
N1844 C1836 1.318 1_545 S
N1844 H1850 1.002 . S
N1844 H1851 1.006 . S
N1845 C1838 1.356 . S
N1845 H1848 0.984 . S
N1845 H1849 0.985 . S
H1846 N1841 0.984 . S
H1847 N1841 0.985 . S
H1848 N1845 0.984 . S
H1849 N1845 0.985 . S
H1850 N1844 1.002 . S
H1851 N1844 1.006 . S
H1852 N1840 0.984 . S
H1853 N1840 0.985 . S
C1854 C1855 1.363 . S
C1854 C1860 1.379 . S
C1854 N1862 1.356 . S
C1855 C1854 1.363 . S
C1855 C1861 1.363 . S
C1856 C1857 1.363 . S
C1856 C1861 1.379 . S
C1856 N1863 1.356 . S
C1857 C1856 1.363 . S
C1857 C1860 1.363 . S
N1858 C1860 1.356 . S
N1858 H1870 0.984 . S
N1858 H1871 0.985 . S
N1859 C1861 1.356 . S
N1859 H1864 0.984 1_455 S
N1859 H1865 0.985 . S
C1860 C1854 1.379 . S
C1860 C1857 1.363 . S
C1860 N1858 1.356 . S
C1861 C1855 1.363 . S
C1861 C1856 1.379 . S
C1861 N1859 1.356 . S
N1862 C1854 1.356 . S
N1862 H1868 0.984 . S
N1862 H1869 0.984 . S
N1863 C1856 1.356 . S
N1863 H1866 0.984 . S
N1863 H1867 0.985 . S
H1864 N1859 0.984 1_655 S
H1865 N1859 0.985 . S
H1866 N1863 0.984 . S
H1867 N1863 0.985 . S
H1868 N1862 0.984 . S
H1869 N1862 0.984 . S
H1870 N1858 0.984 . S
H1871 N1858 0.985 . S
C1872 C1873 1.363 . S
C1872 C1878 1.379 . S
C1872 N1880 1.356 . S
C1873 C1872 1.363 . S
C1873 C1879 1.363 . S
C1874 C1875 1.363 . S
C1874 C1879 1.379 . S
C1874 N1881 1.356 . S
C1875 C1874 1.363 . S
C1875 C1878 1.363 . S
N1876 C1878 1.356 . S
N1876 H1888 0.984 . S
N1876 H1889 0.985 . S
N1877 C1879 1.356 . S
N1877 H1882 0.984 . S
N1877 H1883 0.985 . S
C1878 C1872 1.379 . S
C1878 C1875 1.363 . S
C1878 N1876 1.356 . S
C1879 C1873 1.363 . S
C1879 C1874 1.379 . S
C1879 N1877 1.356 . S
N1880 C1872 1.356 . S
N1880 H1886 0.984 . S
N1880 H1887 0.984 . S
N1881 C1874 1.356 . S
N1881 H1884 0.984 . S
N1881 H1885 0.985 . S
H1882 N1877 0.984 . S
H1883 N1877 0.985 . S
H1884 N1881 0.984 . S
H1885 N1881 0.985 . S
H1886 N1880 0.984 . S
H1887 N1880 0.984 . S
H1888 N1876 0.984 . S
H1889 N1876 0.985 . S
C1890 C1891 1.363 . S
C1890 C1896 1.379 . S
C1890 N1898 1.356 . S
C1891 C1890 1.363 . S
C1891 C1897 1.363 . S
C1892 C1893 1.363 . S
C1892 C1897 1.379 . S
C1892 N1899 1.356 . S
C1893 C1892 1.363 . S
C1893 C1896 1.363 . S
N1894 C1896 1.356 . S
N1894 H1906 0.984 . S
N1894 H1907 0.985 . S
N1895 C1897 1.356 . S
N1895 H1900 0.984 . S
N1895 H1901 0.985 . S
C1896 C1890 1.379 . S
C1896 C1893 1.363 . S
C1896 N1894 1.356 . S
C1897 C1891 1.363 . S
C1897 C1892 1.379 . S
C1897 N1895 1.356 . S
N1898 C1890 1.356 . S
N1898 H1904 0.984 . S
N1898 H1905 0.984 . S
N1899 C1892 1.356 . S
N1899 H1902 0.984 . S
N1899 H1903 0.985 . S
H1900 N1895 0.984 . S
H1901 N1895 0.985 . S
H1902 N1899 0.984 . S
H1903 N1899 0.985 . S
H1904 N1898 0.984 . S
H1905 N1898 0.984 . S
H1906 N1894 0.984 . S
H1907 N1894 0.985 . S
C1908 C1909 1.363 . S
C1908 C1914 1.379 . S
C1908 N1916 1.356 . S
C1909 C1908 1.363 . S
C1909 C1915 1.363 . S
C1910 C1911 1.363 . S
C1910 C1915 1.379 . S
C1910 N1917 1.356 . S
C1911 C1910 1.363 . S
C1911 C1914 1.363 . S
N1912 C1914 1.356 . S
N1912 H1924 0.984 . S
N1912 H1925 0.985 . S
N1913 C1915 1.356 . S
N1913 H1918 0.984 . S
N1913 H1919 0.985 . S
C1914 C1908 1.379 . S
C1914 C1911 1.363 . S
C1914 N1912 1.356 . S
C1915 C1909 1.363 . S
C1915 C1910 1.379 . S
C1915 N1913 1.356 . S
N1916 C1908 1.356 . S
N1916 H1922 0.984 . S
N1916 H1923 0.984 . S
N1917 C1910 1.356 . S
N1917 H1920 0.984 . S
N1917 H1921 0.985 . S
H1918 N1913 0.984 . S
H1919 N1913 0.985 . S
H1920 N1917 0.984 . S
H1921 N1917 0.985 . S
H1922 N1916 0.984 . S
H1923 N1916 0.984 . S
H1924 N1912 0.984 . S
H1925 N1912 0.985 . S
C1926 C1927 1.363 . S
C1926 C1932 1.379 . S
C1926 N1934 1.356 . S
C1927 C1926 1.363 . S
C1927 C1933 1.363 . S
C1928 C1929 1.363 . S
C1928 C1933 1.379 . S
C1928 N1935 1.356 . S
C1929 C1928 1.363 . S
C1929 C1932 1.363 . S
N1930 C1932 1.356 . S
N1930 H1942 0.984 . S
N1930 H1943 0.985 . S
N1931 C1933 1.356 . S
N1931 H1936 0.984 . S
N1931 H1937 0.985 . S
C1932 C1926 1.379 . S
C1932 C1929 1.363 . S
C1932 N1930 1.356 . S
C1933 C1927 1.363 . S
C1933 C1928 1.379 . S
C1933 N1931 1.356 . S
N1934 C1926 1.356 . S
N1934 H1940 0.984 . S
N1934 H1941 0.984 . S
N1935 C1928 1.356 . S
N1935 H1938 0.984 . S
N1935 H1939 0.985 . S
H1936 N1931 0.984 . S
H1937 N1931 0.985 . S
H1938 N1935 0.984 . S
H1939 N1935 0.985 . S
H1940 N1934 0.984 . S
H1941 N1934 0.984 . S
H1942 N1930 0.984 . S
H1943 N1930 0.985 . S
C1944 C1945 1.363 . S
C1944 C1950 1.379 . S
C1944 N1952 1.356 . S
C1945 C1944 1.363 . S
C1945 C1951 1.363 . S
C1946 C1947 1.363 . S
C1946 C1951 1.379 . S
C1946 N1953 1.356 . S
C1947 C1946 1.363 . S
C1947 C1950 1.363 . S
N1948 C1950 1.356 . S
N1948 H1960 0.984 . S
N1948 H1961 0.985 . S
N1949 C1951 1.363 . S
N1949 H1954 0.978 1_545 S
N1949 H1955 0.985 1_545 S
C1950 C1944 1.379 . S
C1950 C1947 1.363 . S
C1950 N1948 1.356 . S
C1951 C1945 1.363 . S
C1951 C1946 1.379 . S
C1951 N1949 1.363 . S
N1952 C1944 1.356 . S
N1952 H1958 0.984 . S
N1952 H1959 0.984 . S
N1953 C1946 1.356 . S
N1953 H1956 0.984 . S
N1953 H1957 0.985 . S
H1954 N1949 0.978 1_565 S
H1955 N1949 0.985 1_565 S
H1956 N1953 0.984 . S
H1957 N1953 0.985 . S
H1958 N1952 0.984 . S
H1959 N1952 0.984 . S
H1960 N1948 0.984 . S
H1961 N1948 0.985 . S
C1962 C1963 1.363 . S
C1962 C1968 1.379 . S
C1962 N1970 1.356 . S
C1963 C1962 1.363 . S
C1963 C1969 1.363 . S
C1964 C1965 1.363 . S
C1964 C1969 1.379 . S
C1964 N1971 1.356 . S
C1965 C1964 1.363 . S
C1965 C1968 1.363 . S
N1966 C1968 1.356 . S
N1966 H1978 0.984 . S
N1966 H1979 0.985 . S
N1967 C1969 1.356 . S
N1967 H1972 0.984 . S
N1967 H1973 0.985 . S
C1968 C1962 1.379 . S
C1968 C1965 1.363 . S
C1968 N1966 1.356 . S
C1969 C1963 1.363 . S
C1969 C1964 1.379 . S
C1969 N1967 1.356 . S
N1970 C1962 1.356 . S
N1970 H1976 0.984 . S
N1970 H1977 0.984 1_655 S
N1971 C1964 1.356 . S
N1971 H1974 0.984 . S
N1971 H1975 0.985 . S
H1972 N1967 0.984 . S
H1973 N1967 0.985 . S
H1974 N1971 0.984 . S
H1975 N1971 0.985 . S
H1976 N1970 0.984 . S
H1977 N1970 0.984 1_455 S
H1978 N1966 0.984 . S
H1979 N1966 0.985 . S
C1980 C1981 1.363 . S
C1980 C1986 1.379 . S
C1980 N1988 1.356 . S
C1981 C1980 1.363 . S
C1981 C1987 1.363 . S
C1982 C1983 1.363 . S
C1982 C1987 1.379 . S
C1982 N1989 1.356 . S
C1983 C1982 1.363 . S
C1983 C1986 1.363 . S
N1984 C1986 1.356 . S
N1984 H1996 0.984 . S
N1984 H1997 0.985 . S
N1985 C1987 1.356 . S
N1985 H1990 0.984 . S
N1985 H1991 0.985 . S
C1986 C1980 1.379 . S
C1986 C1983 1.363 . S
C1986 N1984 1.356 . S
C1987 C1981 1.363 . S
C1987 C1982 1.379 . S
C1987 N1985 1.356 . S
N1988 C1980 1.356 . S
N1988 H1994 0.984 . S
N1988 H1995 0.984 . S
N1989 C1982 1.356 . S
N1989 H1992 0.984 . S
N1989 H1993 0.985 . S
H1990 N1985 0.984 . S
H1991 N1985 0.985 . S
H1992 N1989 0.984 . S
H1993 N1989 0.985 . S
H1994 N1988 0.984 . S
H1995 N1988 0.984 . S
H1996 N1984 0.984 . S
H1997 N1984 0.985 . S
C1998 C1999 1.363 . S
C1998 C2004 1.379 . S
C1998 N2006 1.364 . S
C1999 C1998 1.363 . S
C1999 C2005 1.363 . S
C2000 C2001 1.363 . S
C2000 C2005 1.379 . S
C2000 N2007 1.356 . S
C2001 C2000 1.363 . S
C2001 C2004 1.363 . S
N2002 C2004 1.356 . S
N2002 H2014 0.984 . S
N2002 H2015 0.985 . S
N2003 C2005 1.356 . S
N2003 H2008 0.984 . S
N2003 H2009 0.985 . S
C2004 C1998 1.379 . S
C2004 C2001 1.363 . S
C2004 N2002 1.356 . S
C2005 C1999 1.363 . S
C2005 C2000 1.379 . S
C2005 N2003 1.356 . S
N2006 C1998 1.364 . S
N2006 H2012 0.982 1_655 S
N2006 H2013 0.980 1_655 S
N2007 C2000 1.356 . S
N2007 H2010 0.984 . S
N2007 H2011 0.985 . S
H2008 N2003 0.984 . S
H2009 N2003 0.985 . S
H2010 N2007 0.984 . S
H2011 N2007 0.985 . S
H2012 N2006 0.982 1_455 S
H2013 N2006 0.980 1_455 S
H2014 N2002 0.984 . S
H2015 N2002 0.985 . S
C2016 C2017 1.363 . S
C2016 C2022 1.379 . S
C2016 N2024 1.356 . S
C2017 C2016 1.363 . S
C2017 C2023 1.363 . S
C2018 C2019 1.363 . S
C2018 C2023 1.379 . S
C2018 N2025 1.356 . S
C2019 C2018 1.363 . S
C2019 C2022 1.363 . S
N2020 C2022 1.356 . S
N2020 H2032 0.984 . S
N2020 H2033 0.985 . S
N2021 C2023 1.356 . S
N2021 H2026 0.984 . S
N2021 H2027 0.985 . S
C2022 C2016 1.379 . S
C2022 C2019 1.363 . S
C2022 N2020 1.356 . S
C2023 C2017 1.363 . S
C2023 C2018 1.379 . S
C2023 N2021 1.356 . S
N2024 C2016 1.356 . S
N2024 H2030 0.984 . S
N2024 H2031 0.984 . S
N2025 C2018 1.356 . S
N2025 H2028 0.984 . S
N2025 H2029 0.985 . S
H2026 N2021 0.984 . S
H2027 N2021 0.985 . S
H2028 N2025 0.984 . S
H2029 N2025 0.985 . S
H2030 N2024 0.984 . S
H2031 N2024 0.984 . S
H2032 N2020 0.984 . S
H2033 N2020 0.985 . S
C2034 C2035 1.363 . S
C2034 C2040 1.379 . S
C2034 N2042 1.356 1_545 S
C2035 C2034 1.363 . S
C2035 C2041 1.363 . S
C2036 C2037 1.363 . S
C2036 C2041 1.379 . S
C2036 N2043 1.356 . S
C2037 C2036 1.363 . S
C2037 C2040 1.363 . S
N2038 C2040 1.356 . S
N2038 H2050 0.984 . S
N2038 H2051 0.985 . S
N2039 C2041 1.356 . S
N2039 H2044 1.021 . S
N2039 H2045 0.985 . S
C2040 C2034 1.379 . S
C2040 C2037 1.363 . S
C2040 N2038 1.356 . S
C2041 C2035 1.363 . S
C2041 C2036 1.379 . S
C2041 N2039 1.356 . S
N2042 C2034 1.356 1_565 S
N2042 H2048 0.984 . S
N2042 H2049 0.984 . S
N2043 C2036 1.356 . S
N2043 H2046 0.984 . S
N2043 H2047 0.985 . S
H2044 N2039 1.021 . S
H2045 N2039 0.985 . S
H2046 N2043 0.984 . S
H2047 N2043 0.985 . S
H2048 N2042 0.984 . S
H2049 N2042 0.984 . S
H2050 N2038 0.984 . S
H2051 N2038 0.985 . S
C2052 C2053 1.363 . S
C2052 C2058 1.379 . S
C2052 N2060 1.356 . S
C2053 C2052 1.363 . S
C2053 C2059 1.363 . S
C2054 C2055 1.363 . S
C2054 C2059 1.379 . S
C2054 N2061 1.356 . S
C2055 C2054 1.363 . S
C2055 C2058 1.363 . S
N2056 C2058 1.356 . S
N2056 H2068 0.984 . S
N2056 H2069 0.985 . S
N2057 C2059 1.356 . S
N2057 H2062 0.984 . S
N2057 H2063 0.985 . S
C2058 C2052 1.379 . S
C2058 C2055 1.363 . S
C2058 N2056 1.356 . S
C2059 C2053 1.363 . S
C2059 C2054 1.379 . S
C2059 N2057 1.356 . S
N2060 C2052 1.356 . S
N2060 H2066 0.984 . S
N2060 H2067 0.984 . S
N2061 C2054 1.356 . S
N2061 H2064 0.984 . S
N2061 H2065 0.985 . S
H2062 N2057 0.984 . S
H2063 N2057 0.985 . S
H2064 N2061 0.984 . S
H2065 N2061 0.985 . S
H2066 N2060 0.984 . S
H2067 N2060 0.984 . S
H2068 N2056 0.984 . S
H2069 N2056 0.985 . S
C2070 C2071 1.363 . S
C2070 C2076 1.379 . S
C2070 N2078 1.356 . S
C2071 C2070 1.363 . S
C2071 C2077 1.363 . S
C2072 C2073 1.363 . S
C2072 C2077 1.379 . S
C2072 N2079 1.356 . S
C2073 C2072 1.363 . S
C2073 C2076 1.363 . S
N2074 C2076 1.356 . S
N2074 H2086 0.984 . S
N2074 H2087 0.985 . S
N2075 C2077 1.356 . S
N2075 H2080 0.984 . S
N2075 H2081 0.985 . S
C2076 C2070 1.379 . S
C2076 C2073 1.363 . S
C2076 N2074 1.356 . S
C2077 C2071 1.363 . S
C2077 C2072 1.379 . S
C2077 N2075 1.356 . S
N2078 C2070 1.356 . S
N2078 H2084 0.984 . S
N2078 H2085 0.984 . S
N2079 C2072 1.356 . S
N2079 H2082 0.984 . S
N2079 H2083 0.985 . S
H2080 N2075 0.984 . S
H2081 N2075 0.985 . S
H2082 N2079 0.984 . S
H2083 N2079 0.985 . S
H2084 N2078 0.984 . S
H2085 N2078 0.984 . S
H2086 N2074 0.984 . S
H2087 N2074 0.985 . S
C2088 C2089 1.363 . S
C2088 C2094 1.379 . S
C2088 N2096 1.356 . S
C2089 C2088 1.363 . S
C2089 C2095 1.363 . S
C2090 C2091 1.363 . S
C2090 C2095 1.379 . S
C2090 N2097 1.356 . S
C2091 C2090 1.363 . S
C2091 C2094 1.363 . S
N2092 C2094 1.356 . S
N2092 H2104 0.984 . S
N2092 H2105 0.985 . S
N2093 C2095 1.356 . S
N2093 H2098 0.984 . S
N2093 H2099 0.985 . S
C2094 C2088 1.379 . S
C2094 C2091 1.363 . S
C2094 N2092 1.356 . S
C2095 C2089 1.363 . S
C2095 C2090 1.379 . S
C2095 N2093 1.356 . S
N2096 C2088 1.356 . S
N2096 H2102 0.984 . S
N2096 H2103 0.984 . S
N2097 C2090 1.356 . S
N2097 H2100 0.984 . S
N2097 H2101 0.985 . S
H2098 N2093 0.984 . S
H2099 N2093 0.985 . S
H2100 N2097 0.984 . S
H2101 N2097 0.985 . S
H2102 N2096 0.984 . S
H2103 N2096 0.984 . S
H2104 N2092 0.984 . S
H2105 N2092 0.985 . S
C2106 C2107 1.363 . S
C2106 C2112 1.379 . S
C2106 N2114 1.356 . S
C2107 C2106 1.363 . S
C2107 C2113 1.363 . S
C2108 C2109 1.363 . S
C2108 C2113 1.379 . S
C2108 N2115 1.356 . S
C2109 C2108 1.363 . S
C2109 C2112 1.363 . S
N2110 C2112 1.356 1_545 S
N2110 H2122 0.984 . S
N2110 H2123 0.985 . S
N2111 C2113 1.356 . S
N2111 H2116 0.984 . S
N2111 H2117 0.985 . S
C2112 C2106 1.379 . S
C2112 C2109 1.363 . S
C2112 N2110 1.356 1_565 S
C2113 C2107 1.363 . S
C2113 C2108 1.379 . S
C2113 N2111 1.356 . S
N2114 C2106 1.356 . S
N2114 H2120 0.984 . S
N2114 H2121 0.984 . S
N2115 C2108 1.356 . S
N2115 H2118 0.984 . S
N2115 H2119 0.985 . S
H2116 N2111 0.984 . S
H2117 N2111 0.985 . S
H2118 N2115 0.984 . S
H2119 N2115 0.985 . S
H2120 N2114 0.984 . S
H2121 N2114 0.984 . S
H2122 N2110 0.984 . S
H2123 N2110 0.985 . S
C2124 C2125 1.363 . S
C2124 C2130 1.379 . S
C2124 N2132 1.356 . S
C2125 C2124 1.363 . S
C2125 C2131 1.363 . S
C2126 C2127 1.363 . S
C2126 C2131 1.379 . S
C2126 N2133 1.356 1_455 S
C2127 C2126 1.363 . S
C2127 C2130 1.363 . S
N2128 C2130 1.356 . S
N2128 H2140 0.984 . S
N2128 H2141 0.985 . S
N2129 C2131 1.356 . S
N2129 H2134 0.984 . S
N2129 H2135 0.985 1_455 S
C2130 C2124 1.379 . S
C2130 C2127 1.363 . S
C2130 N2128 1.356 . S
C2131 C2125 1.363 . S
C2131 C2126 1.379 . S
C2131 N2129 1.356 . S
N2132 C2124 1.356 . S
N2132 H2138 0.984 . S
N2132 H2139 0.984 . S
N2133 C2126 1.356 1_655 S
N2133 H2136 0.984 . S
N2133 H2137 0.985 . S
H2134 N2129 0.984 . S
H2135 N2129 0.985 1_655 S
H2136 N2133 0.984 . S
H2137 N2133 0.985 . S
H2138 N2132 0.984 . S
H2139 N2132 0.984 . S
H2140 N2128 0.984 . S
H2141 N2128 0.985 . S
C2142 C2143 1.363 . S
C2142 C2148 1.379 . S
C2142 N2150 1.356 . S
C2143 C2142 1.363 . S
C2143 C2149 1.363 . S
C2144 C2145 1.363 . S
C2144 C2149 1.379 . S
C2144 N2151 1.356 . S
C2145 C2144 1.363 . S
C2145 C2148 1.363 . S
N2146 C2148 1.356 . S
N2146 H2158 0.984 . S
N2146 H2159 0.985 . S
N2147 C2149 1.356 . S
N2147 H2152 0.984 . S
N2147 H2153 0.985 . S
C2148 C2142 1.379 . S
C2148 C2145 1.363 . S
C2148 N2146 1.356 . S
C2149 C2143 1.363 . S
C2149 C2144 1.379 . S
C2149 N2147 1.356 . S
N2150 C2142 1.356 . S
N2150 H2156 0.984 . S
N2150 H2157 0.984 . S
N2151 C2144 1.356 . S
N2151 H2154 0.984 . S
N2151 H2155 0.985 . S
H2152 N2147 0.984 . S
H2153 N2147 0.985 . S
H2154 N2151 0.984 . S
H2155 N2151 0.985 . S
H2156 N2150 0.984 . S
H2157 N2150 0.984 . S
H2158 N2146 0.984 . S
H2159 N2146 0.985 . S
C2160 C2161 1.363 . S
C2160 C2166 1.379 . S
C2160 N2168 1.356 . S
C2161 C2160 1.363 . S
C2161 C2167 1.363 . S
C2162 C2163 1.363 . S
C2162 C2167 1.379 . S
C2162 N2169 1.356 1_655 S
C2163 C2162 1.363 . S
C2163 C2166 1.363 . S
N2164 C2166 1.356 . S
N2164 H2176 0.984 . S
N2164 H2177 0.985 . S
N2165 C2167 1.356 1_455 S
N2165 H2170 0.984 1_455 S
N2165 H2171 0.985 . S
C2166 C2160 1.379 . S
C2166 C2163 1.363 . S
C2166 N2164 1.356 . S
C2167 C2161 1.363 . S
C2167 C2162 1.379 . S
C2167 N2165 1.356 1_655 S
N2168 C2160 1.356 . S
N2168 H2174 0.984 . S
N2168 H2175 0.984 . S
N2169 C2162 1.356 1_455 S
N2169 H2172 0.984 . S
N2169 H2173 0.985 . S
H2170 N2165 0.984 1_655 S
H2171 N2165 0.985 . S
H2172 N2169 0.984 . S
H2173 N2169 0.985 . S
H2174 N2168 0.984 . S
H2175 N2168 0.984 . S
H2176 N2164 0.984 . S
H2177 N2164 0.985 . S
C2178 C2179 1.363 . S
C2178 C2184 1.379 . S
C2178 N2186 1.356 . S
C2179 C2178 1.363 . S
C2179 C2185 1.363 . S
C2180 C2181 1.363 . S
C2180 C2185 1.379 . S
C2180 N2187 1.356 . S
C2181 C2180 1.363 . S
C2181 C2184 1.363 . S
N2182 C2184 1.356 . S
N2182 H2194 0.984 . S
N2182 H2195 0.985 . S
N2183 C2185 1.356 . S
N2183 H2188 0.984 . S
N2183 H2189 0.985 . S
C2184 C2178 1.379 . S
C2184 C2181 1.363 . S
C2184 N2182 1.356 . S
C2185 C2179 1.363 . S
C2185 C2180 1.379 . S
C2185 N2183 1.356 . S
N2186 C2178 1.356 . S
N2186 H2192 0.984 . S
N2186 H2193 0.984 . S
N2187 C2180 1.356 . S
N2187 H2190 0.984 . S
N2187 H2191 0.985 . S
H2188 N2183 0.984 . S
H2189 N2183 0.985 . S
H2190 N2187 0.984 . S
H2191 N2187 0.985 . S
H2192 N2186 0.984 . S
H2193 N2186 0.984 . S
H2194 N2182 0.984 . S
H2195 N2182 0.985 . S
C2196 C2197 1.363 . S
C2196 C2202 1.379 . S
C2196 N2204 1.356 . S
C2197 C2196 1.363 . S
C2197 C2203 1.363 . S
C2198 C2199 1.363 . S
C2198 C2203 1.379 . S
C2198 N2205 1.356 1_545 S
C2199 C2198 1.363 . S
C2199 C2202 1.363 . S
N2200 C2202 1.356 . S
N2200 H2212 0.984 . S
N2200 H2213 0.985 . S
N2201 C2203 1.356 . S
N2201 H2206 0.984 . S
N2201 H2207 0.985 . S
C2202 C2196 1.379 . S
C2202 C2199 1.363 . S
C2202 N2200 1.356 . S
C2203 C2197 1.363 . S
C2203 C2198 1.379 . S
C2203 N2201 1.356 . S
N2204 C2196 1.356 . S
N2204 H2210 0.984 . S
N2204 H2211 0.984 . S
N2205 C2198 1.356 1_565 S
N2205 H2208 0.984 . S
N2205 H2209 0.985 . S
H2206 N2201 0.984 . S
H2207 N2201 0.985 . S
H2208 N2205 0.984 . S
H2209 N2205 0.985 . S
H2210 N2204 0.984 . S
H2211 N2204 0.984 . S
H2212 N2200 0.984 . S
H2213 N2200 0.985 . S
C2214 C2215 1.363 . S
C2214 C2220 1.379 . S
C2214 N2222 1.356 . S
C2215 C2214 1.363 . S
C2215 C2221 1.363 . S
C2216 C2217 1.363 . S
C2216 C2221 1.379 . S
C2216 N2223 1.356 . S
C2217 C2216 1.363 . S
C2217 C2220 1.363 . S
N2218 C2220 1.356 . S
N2218 H2230 0.984 . S
N2218 H2231 0.985 . S
N2219 C2221 1.356 . S
N2219 H2224 0.984 . S
N2219 H2225 0.985 . S
C2220 C2214 1.379 . S
C2220 C2217 1.363 . S
C2220 N2218 1.356 . S
C2221 C2215 1.363 . S
C2221 C2216 1.379 . S
C2221 N2219 1.356 . S
N2222 C2214 1.356 . S
N2222 H2228 0.984 . S
N2222 H2229 0.984 . S
N2223 C2216 1.356 . S
N2223 H2226 0.984 . S
N2223 H2227 0.985 . S
H2224 N2219 0.984 . S
H2225 N2219 0.985 . S
H2226 N2223 0.984 . S
H2227 N2223 0.985 . S
H2228 N2222 0.984 . S
H2229 N2222 0.984 . S
H2230 N2218 0.984 . S
H2231 N2218 0.985 . S
C2232 C2233 1.363 . S
C2232 C2238 1.379 . S
C2232 N2240 1.356 . S
C2233 C2232 1.363 . S
C2233 C2239 1.363 . S
C2234 C2235 1.363 . S
C2234 C2239 1.379 . S
C2234 N2241 1.356 . S
C2235 C2234 1.363 . S
C2235 C2238 1.363 . S
N2236 C2238 1.356 . S
N2236 H2248 0.984 . S
N2236 H2249 0.985 . S
N2237 C2239 1.356 . S
N2237 H2242 0.984 . S
N2237 H2243 0.985 . S
C2238 C2232 1.379 . S
C2238 C2235 1.363 . S
C2238 N2236 1.356 . S
C2239 C2233 1.363 . S
C2239 C2234 1.379 . S
C2239 N2237 1.356 . S
N2240 C2232 1.356 . S
N2240 H2246 0.984 . S
N2240 H2247 0.984 . S
N2241 C2234 1.356 . S
N2241 H2244 0.984 . S
N2241 H2245 0.985 . S
H2242 N2237 0.984 . S
H2243 N2237 0.985 . S
H2244 N2241 0.984 . S
H2245 N2241 0.985 . S
H2246 N2240 0.984 . S
H2247 N2240 0.984 . S
H2248 N2236 0.984 . S
H2249 N2236 0.985 . S
C2250 C2251 1.363 . S
C2250 C2256 1.379 . S
C2250 N2258 1.356 . S
C2251 C2250 1.363 . S
C2251 C2257 1.363 . S
C2252 C2253 1.363 . S
C2252 C2257 1.379 . S
C2252 N2259 1.356 . S
C2253 C2252 1.363 . S
C2253 C2256 1.363 . S
N2254 C2256 1.356 . S
N2254 H2266 0.984 . S
N2254 H2267 0.985 . S
N2255 C2257 1.356 . S
N2255 H2260 0.984 . S
N2255 H2261 0.985 . S
C2256 C2250 1.379 . S
C2256 C2253 1.363 . S
C2256 N2254 1.356 . S
C2257 C2251 1.363 . S
C2257 C2252 1.379 . S
C2257 N2255 1.356 . S
N2258 C2250 1.356 . S
N2258 H2264 0.984 . S
N2258 H2265 0.984 . S
N2259 C2252 1.356 . S
N2259 H2262 0.984 . S
N2259 H2263 0.985 . S
H2260 N2255 0.984 . S
H2261 N2255 0.985 . S
H2262 N2259 0.984 . S
H2263 N2259 0.985 . S
H2264 N2258 0.984 . S
H2265 N2258 0.984 . S
H2266 N2254 0.984 . S
H2267 N2254 0.985 . S
C2268 C2269 1.363 . S
C2268 C2274 1.379 . S
C2268 N2276 1.356 . S
C2269 C2268 1.363 . S
C2269 C2275 1.363 . S
C2270 C2271 1.363 . S
C2270 C2275 1.379 . S
C2270 N2277 1.356 . S
C2271 C2270 1.363 . S
C2271 C2274 1.363 . S
N2272 C2274 1.356 . S
N2272 H2284 0.984 . S
N2272 H2285 0.985 . S
N2273 C2275 1.356 . S
N2273 H2278 0.984 . S
N2273 H2279 0.985 . S
C2274 C2268 1.379 . S
C2274 C2271 1.363 . S
C2274 N2272 1.356 . S
C2275 C2269 1.363 . S
C2275 C2270 1.379 . S
C2275 N2273 1.356 . S
N2276 C2268 1.356 . S
N2276 H2282 0.984 . S
N2276 H2283 0.984 . S
N2277 C2270 1.356 . S
N2277 H2280 0.984 . S
N2277 H2281 0.985 . S
H2278 N2273 0.984 . S
H2279 N2273 0.985 . S
H2280 N2277 0.984 . S
H2281 N2277 0.985 . S
H2282 N2276 0.984 . S
H2283 N2276 0.984 . S
H2284 N2272 0.984 . S
H2285 N2272 0.985 . S
C2286 C2287 1.363 . S
C2286 C2292 1.379 . S
C2286 N2294 1.356 . S
C2287 C2286 1.363 . S
C2287 C2293 1.363 . S
C2288 C2289 1.363 . S
C2288 C2293 1.379 . S
C2288 N2295 1.356 . S
C2289 C2288 1.363 . S
C2289 C2292 1.363 . S
N2290 C2292 1.356 . S
N2290 H2302 0.984 . S
N2290 H2303 0.985 . S
N2291 C2293 1.356 . S
N2291 H2296 0.984 . S
N2291 H2297 0.985 . S
C2292 C2286 1.379 . S
C2292 C2289 1.363 . S
C2292 N2290 1.356 . S
C2293 C2287 1.363 . S
C2293 C2288 1.379 . S
C2293 N2291 1.356 . S
N2294 C2286 1.356 . S
N2294 H2300 0.984 . S
N2294 H2301 0.984 . S
N2295 C2288 1.356 . S
N2295 H2298 0.984 . S
N2295 H2299 0.985 . S
H2296 N2291 0.984 . S
H2297 N2291 0.985 . S
H2298 N2295 0.984 . S
H2299 N2295 0.985 . S
H2300 N2294 0.984 . S
H2301 N2294 0.984 . S
H2302 N2290 0.984 . S
H2303 N2290 0.985 . S
C2304 C2305 1.363 . S
C2304 C2310 1.379 . S
C2304 N2312 1.356 . S
C2305 C2304 1.363 . S
C2305 C2311 1.363 . S
C2306 C2307 1.363 . S
C2306 C2311 1.379 . S
C2306 N2313 1.356 . S
C2307 C2306 1.363 . S
C2307 C2310 1.363 . S
N2308 C2310 1.356 . S
N2308 H2320 0.984 . S
N2308 H2321 0.985 . S
N2309 C2311 1.356 . S
N2309 H2314 0.984 . S
N2309 H2315 0.985 . S
C2310 C2304 1.379 . S
C2310 C2307 1.363 . S
C2310 N2308 1.356 . S
C2311 C2305 1.363 . S
C2311 C2306 1.379 . S
C2311 N2309 1.356 . S
N2312 C2304 1.356 . S
N2312 H2318 0.984 . S
N2312 H2319 0.984 . S
N2313 C2306 1.356 . S
N2313 H2316 0.984 . S
N2313 H2317 0.985 . S
H2314 N2309 0.984 . S
H2315 N2309 0.985 . S
H2316 N2313 0.984 . S
H2317 N2313 0.985 . S
H2318 N2312 0.984 . S
H2319 N2312 0.984 . S
H2320 N2308 0.984 . S
H2321 N2308 0.985 . S
C2322 C2323 1.363 . S
C2322 C2328 1.379 . S
C2322 N2330 1.356 . S
C2323 C2322 1.363 . S
C2323 C2329 1.363 . S
C2324 C2325 1.363 . S
C2324 C2329 1.379 . S
C2324 N2331 1.356 . S
C2325 C2324 1.363 . S
C2325 C2328 1.363 . S
N2326 C2328 1.356 . S
N2326 H2338 0.984 . S
N2326 H2339 0.985 . S
N2327 C2329 1.356 . S
N2327 H2332 0.984 . S
N2327 H2333 0.985 . S
C2328 C2322 1.379 . S
C2328 C2325 1.363 . S
C2328 N2326 1.356 . S
C2329 C2323 1.363 . S
C2329 C2324 1.379 . S
C2329 N2327 1.356 . S
N2330 C2322 1.356 . S
N2330 H2336 0.984 . S
N2330 H2337 0.984 . S
N2331 C2324 1.356 . S
N2331 H2334 0.984 . S
N2331 H2335 0.985 . S
H2332 N2327 0.984 . S
H2333 N2327 0.985 . S
H2334 N2331 0.984 . S
H2335 N2331 0.985 . S
H2336 N2330 0.984 . S
H2337 N2330 0.984 . S
H2338 N2326 0.984 . S
H2339 N2326 0.985 . S
C2340 C2341 1.363 . S
C2340 C2346 1.379 . S
C2340 N2348 1.356 . S
C2341 C2340 1.363 . S
C2341 C2347 1.363 . S
C2342 C2343 1.363 . S
C2342 C2347 1.379 . S
C2342 N2349 1.356 . S
C2343 C2342 1.363 . S
C2343 C2346 1.363 . S
N2344 C2346 1.356 . S
N2344 H2356 0.984 . S
N2344 H2357 0.985 . S
N2345 C2347 1.356 . S
N2345 H2350 0.984 . S
N2345 H2351 0.985 . S
C2346 C2340 1.379 . S
C2346 C2343 1.363 . S
C2346 N2344 1.356 . S
C2347 C2341 1.363 . S
C2347 C2342 1.379 . S
C2347 N2345 1.356 . S
N2348 C2340 1.356 . S
N2348 H2354 0.984 . S
N2348 H2355 0.984 . S
N2349 C2342 1.356 . S
N2349 H2352 0.984 . S
N2349 H2353 0.985 . S
H2350 N2345 0.984 . S
H2351 N2345 0.985 . S
H2352 N2349 0.984 . S
H2353 N2349 0.985 . S
H2354 N2348 0.984 . S
H2355 N2348 0.984 . S
H2356 N2344 0.984 . S
H2357 N2344 0.985 . S
C2358 C2359 1.363 . S
C2358 C2364 1.379 . S
C2358 N2366 1.356 . S
C2359 C2358 1.363 . S
C2359 C2365 1.363 . S
C2360 C2361 1.363 . S
C2360 C2365 1.379 . S
C2360 N2367 1.356 . S
C2361 C2360 1.363 . S
C2361 C2364 1.363 . S
N2362 C2364 1.356 . S
N2362 H2374 0.984 . S
N2362 H2375 0.985 . S
N2363 C2365 1.356 . S
N2363 H2368 0.984 . S
N2363 H2369 0.985 . S
C2364 C2358 1.379 . S
C2364 C2361 1.363 . S
C2364 N2362 1.356 . S
C2365 C2359 1.363 . S
C2365 C2360 1.379 . S
C2365 N2363 1.356 . S
N2366 C2358 1.356 . S
N2366 H2372 0.984 . S
N2366 H2373 0.984 . S
N2367 C2360 1.356 . S
N2367 H2370 0.984 . S
N2367 H2371 0.985 . S
H2368 N2363 0.984 . S
H2369 N2363 0.985 . S
H2370 N2367 0.984 . S
H2371 N2367 0.985 . S
H2372 N2366 0.984 . S
H2373 N2366 0.984 . S
H2374 N2362 0.984 . S
H2375 N2362 0.985 . S
C2376 C2377 1.363 . S
C2376 C2382 1.379 . S
C2376 N2384 1.356 . S
C2377 C2376 1.363 . S
C2377 C2383 1.363 . S
C2378 C2379 1.363 . S
C2378 C2383 1.379 . S
C2378 N2385 1.356 . S
C2379 C2378 1.363 . S
C2379 C2382 1.363 . S
N2380 C2382 1.356 . S
N2380 H2392 0.984 . S
N2380 H2393 0.985 . S
N2381 C2383 1.356 . S
N2381 H2386 0.984 . S
N2381 H2387 0.985 . S
C2382 C2376 1.379 . S
C2382 C2379 1.363 . S
C2382 N2380 1.356 . S
C2383 C2377 1.363 . S
C2383 C2378 1.379 . S
C2383 N2381 1.356 . S
N2384 C2376 1.356 . S
N2384 H2390 0.984 . S
N2384 H2391 0.984 . S
N2385 C2378 1.356 . S
N2385 H2388 0.984 . S
N2385 H2389 0.985 . S
H2386 N2381 0.984 . S
H2387 N2381 0.985 . S
H2388 N2385 0.984 . S
H2389 N2385 0.985 . S
H2390 N2384 0.984 . S
H2391 N2384 0.984 . S
H2392 N2380 0.984 . S
H2393 N2380 0.985 . S
C2394 C2395 1.363 . S
C2394 C2400 1.379 . S
C2394 N2402 1.356 . S
C2395 C2394 1.363 . S
C2395 C2401 1.363 . S
C2396 C2397 1.363 . S
C2396 C2401 1.379 . S
C2396 N2403 1.356 . S
C2397 C2396 1.363 . S
C2397 C2400 1.363 . S
N2398 C2400 1.356 . S
N2398 H2410 0.984 . S
N2398 H2411 0.985 . S
N2399 C2401 1.356 . S
N2399 H2404 0.984 . S
N2399 H2405 0.985 . S
C2400 C2394 1.379 . S
C2400 C2397 1.363 . S
C2400 N2398 1.356 . S
C2401 C2395 1.363 . S
C2401 C2396 1.379 . S
C2401 N2399 1.356 . S
N2402 C2394 1.356 . S
N2402 H2408 0.984 . S
N2402 H2409 0.984 . S
N2403 C2396 1.356 . S
N2403 H2406 0.984 . S
N2403 H2407 0.985 . S
H2404 N2399 0.984 . S
H2405 N2399 0.985 . S
H2406 N2403 0.984 . S
H2407 N2403 0.985 . S
H2408 N2402 0.984 . S
H2409 N2402 0.984 . S
H2410 N2398 0.984 . S
H2411 N2398 0.985 . S
C2412 C2413 1.363 . S
C2412 C2418 1.379 . S
C2412 N2420 1.356 . S
C2413 C2412 1.363 . S
C2413 C2419 1.363 . S
C2414 C2415 1.363 . S
C2414 C2419 1.379 . S
C2414 N2421 1.356 . S
C2415 C2414 1.363 . S
C2415 C2418 1.363 . S
N2416 C2418 1.356 . S
N2416 H2428 0.984 . S
N2416 H2429 0.985 . S
N2417 C2419 1.356 . S
N2417 H2422 0.984 . S
N2417 H2423 0.985 . S
C2418 C2412 1.379 . S
C2418 C2415 1.363 . S
C2418 N2416 1.356 . S
C2419 C2413 1.363 . S
C2419 C2414 1.379 . S
C2419 N2417 1.356 . S
N2420 C2412 1.356 . S
N2420 H2426 0.984 . S
N2420 H2427 0.984 . S
N2421 C2414 1.356 . S
N2421 H2424 0.984 . S
N2421 H2425 0.985 . S
H2422 N2417 0.984 . S
H2423 N2417 0.985 . S
H2424 N2421 0.984 . S
H2425 N2421 0.985 . S
H2426 N2420 0.984 . S
H2427 N2420 0.984 . S
H2428 N2416 0.984 . S
H2429 N2416 0.985 . S
C1459 C528 1.462 . S
C1461 C769 1.388 . S
C1477 C562 1.512 . S
C1479 C853 1.442 . S
C1495 C484 1.513 . S
C1497 C933 1.456 . S
C1513 C445 1.467 . S
C1515 C849 1.415 . S
C1533 C937 1.382 . S
C1531 C367 1.459 . S
C1549 C411 1.448 . S
C1551 C765 1.389 . S
C1569 C758 1.404 . S
C1567 C450 1.472 . S
C1587 C842 1.430 . S
C1585 C372 1.494 . S
C1603 C406 1.510 . S
C1605 C944 1.455 . S
C1621 C523 1.464 . S
C1623 C860 1.414 . S
C1639 C567 1.440 . S
C1641 C926 1.370 . S
C1659 C776 1.405 . S
C1657 C489 1.456 . S
C1677 C1021 1.388 . S
C1675 C60 1.462 1_455 S
C1693 C94 1.512 . S
C1695 C1105 1.442 . S
C1711 C16 1.513 1_565 S
C1713 C1185 1.456 . S
C1729 C679 1.467 . S
C1731 C1101 1.415 . S
C1747 C601 1.459 . S
C1749 C1189 1.382 . S
C1765 C645 1.448 . S
C1767 C1017 1.389 . S
C1783 C684 1.473 . S
C1785 C1010 1.404 . S
C1801 C606 1.494 . S
C1803 C1094 1.430 . S
C1821 C1196 1.455 . S
C1819 C640 1.510 . S
C1837 C55 1.464 1_565 S
C1839 C1112 1.414 . S
C1857 C1178 1.370 . S
C1855 C99 1.440 1_455 S
C1873 C21 1.456 . S
C1875 C1028 1.405 . S
C1893 C1273 1.388 . S
C1891 C294 1.463 . S
C1909 C328 1.512 . S
C1911 C1357 1.442 . S
C1929 C1437 1.456 . S
C1927 C250 1.513 . S
C1947 C1353 1.415 . S
C1945 C211 1.467 1_545 S
C1965 C1441 1.382 . S
C1963 C133 1.458 1_655 S
C1981 C177 1.448 . S
C1983 C1269 1.389 . S
C1999 C216 1.472 1_655 S
C2001 C1262 1.404 . S
C2017 C138 1.494 . S
C2019 C1346 1.430 . S
C2037 C1448 1.455 . S
C2035 C172 1.510 1_545 S
C2053 C289 1.464 . S
C2055 C1364 1.414 . S
C2071 C333 1.440 . S
C2073 C1430 1.370 . S
C2089 C255 1.456 . S
C2091 C1280 1.405 . S
C2107 C586 1.490 . S
C2109 C772 1.385 . S
C2127 C856 1.362 . S
C2125 C625 1.509 . S
C2143 C664 1.496 . S
C2145 C928 1.365 . S
C2161 C235 1.519 . S
C2163 C844 1.370 . S
C2179 C274 1.484 . S
C2181 C940 1.357 . S
C2199 C760 1.386 . S
C2197 C313 1.490 . S
C2215 C118 1.490 . S
C2217 C1024 1.384 . S
C2233 C157 1.509 . S
C2235 C1108 1.362 . S
C2251 C196 1.496 . S
C2253 C1180 1.365 . S
C2269 C469 1.519 . S
C2271 C1096 1.370 . S
C2289 C1192 1.357 . S
C2287 C508 1.484 . S
C2305 C547 1.490 . S
C2307 C1012 1.386 . S
C2323 C352 1.490 . S
C2325 C1276 1.384 . S
C2341 C391 1.509 . S
C2343 C1360 1.362 . S
C2361 C1432 1.365 . S
C2359 C430 1.496 . S
C2377 C1 1.519 . S
C2379 C1348 1.370 . S
C2395 C40 1.484 . S
C2397 C1444 1.357 . S
C2413 C79 1.490 . S
C2415 C1264 1.386 . S
