# Generated by pormake.
# Topology pyr, (3,6)-cn, num edge types: 1
# Building blocks:
#     Node 0, Type 0, BuildingBlock: BETDAH_clean_linker_0, # of connection points: 3
#     Node 1, Type 0, BuildingBlock: BETDAH_clean_linker_0, # of connection points: 3
#     Node 2, Type 0, BuildingBlock: BETDAH_clean_linker_0, # of connection points: 3
#     Node 3, Type 0, BuildingBlock: BETDAH_clean_linker_0, # of connection points: 3
#     Node 4, Type 0, BuildingBlock: BETDAH_clean_linker_0, # of connection points: 3
#     Node 5, Type 0, BuildingBlock: BETDAH_clean_linker_0, # of connection points: 3
#     Node 6, Type 0, BuildingBlock: BETDAH_clean_linker_0, # of connection points: 3
#     Node 7, Type 0, BuildingBlock: BETDAH_clean_linker_0, # of connection points: 3
#     Node 8, Type 1, BuildingBlock: BETDAH_clean_sbu_0, # of connection points: 6
#     Node 9, Type 1, BuildingBlock: BETDAH_clean_sbu_0, # of connection points: 6
#     Node 10, Type 1, BuildingBlock: BETDAH_clean_sbu_0, # of connection points: 6
#     Node 11, Type 1, BuildingBlock: BETDAH_clean_sbu_0, # of connection points: 6
#     Edge 12, Type (0, 1), BuildingBlock: UVAHIK_clean_linker_0, # of connection points: 2
#     Edge 13, Type (0, 1), BuildingBlock: UVAHIK_clean_linker_0, # of connection points: 2
#     Edge 14, Type (0, 1), BuildingBlock: UVAHIK_clean_linker_0, # of connection points: 2
#     Edge 15, Type (0, 1), BuildingBlock: UVAHIK_clean_linker_0, # of connection points: 2
#     Edge 16, Type (0, 1), BuildingBlock: UVAHIK_clean_linker_0, # of connection points: 2
#     Edge 17, Type (0, 1), BuildingBlock: UVAHIK_clean_linker_0, # of connection points: 2
#     Edge 18, Type (0, 1), BuildingBlock: UVAHIK_clean_linker_0, # of connection points: 2
#     Edge 19, Type (0, 1), BuildingBlock: UVAHIK_clean_linker_0, # of connection points: 2
#     Edge 20, Type (0, 1), BuildingBlock: UVAHIK_clean_linker_0, # of connection points: 2
#     Edge 21, Type (0, 1), BuildingBlock: UVAHIK_clean_linker_0, # of connection points: 2
#     Edge 22, Type (0, 1), BuildingBlock: UVAHIK_clean_linker_0, # of connection points: 2
#     Edge 23, Type (0, 1), BuildingBlock: UVAHIK_clean_linker_0, # of connection points: 2
#     Edge 24, Type (0, 1), BuildingBlock: UVAHIK_clean_linker_0, # of connection points: 2
#     Edge 25, Type (0, 1), BuildingBlock: UVAHIK_clean_linker_0, # of connection points: 2
#     Edge 26, Type (0, 1), BuildingBlock: UVAHIK_clean_linker_0, # of connection points: 2
#     Edge 27, Type (0, 1), BuildingBlock: UVAHIK_clean_linker_0, # of connection points: 2
#     Edge 28, Type (0, 1), BuildingBlock: UVAHIK_clean_linker_0, # of connection points: 2
#     Edge 29, Type (0, 1), BuildingBlock: UVAHIK_clean_linker_0, # of connection points: 2
#     Edge 30, Type (0, 1), BuildingBlock: UVAHIK_clean_linker_0, # of connection points: 2
#     Edge 31, Type (0, 1), BuildingBlock: UVAHIK_clean_linker_0, # of connection points: 2
#     Edge 32, Type (0, 1), BuildingBlock: UVAHIK_clean_linker_0, # of connection points: 2
#     Edge 33, Type (0, 1), BuildingBlock: UVAHIK_clean_linker_0, # of connection points: 2
#     Edge 34, Type (0, 1), BuildingBlock: UVAHIK_clean_linker_0, # of connection points: 2
#     Edge 35, Type (0, 1), BuildingBlock: UVAHIK_clean_linker_0, # of connection points: 2
# Relax obj value: 0.113
# Max RMSD: 0.191
# Mean RMSD: 0.140
data_MOF--net-pyr--node1-BETDAH_clean_sbu_0--node2-BETDAH_clean_linker_0--edge1-UVAHIK_clean_linker_0
_symmetry_space_group_name_H-M    P1
_symmetry_Int_Tables_number       1
_symmetry_cell_setting            triclinic
loop_
_symmetry_equiv_pos_as_xyz
'x, y, z'
_cell_length_a     48.017016
_cell_length_b     52.28758
_cell_length_c     48.391193
_cell_angle_alpha  91.985696
_cell_angle_beta   89.9446
_cell_angle_gamma 105.18178
loop_
_atom_site_label
_atom_site_type_symbol
_atom_site_fract_x
_atom_site_fract_y
_atom_site_fract_z
_atom_type_partial_charge
H0 H 0.32665 0.23587 0.24658 0.0
H1 H 0.38088 0.29748 0.19932 0.0
H2 H 0.30484 0.30993 0.23836 0.0
C3 C 0.33122 0.25555 0.23838 0.0
C4 C 0.31267 0.27176 0.24443 0.0
C5 C 0.35574 0.26446 0.22196 0.0
C6 C 0.36226 0.29038 0.21233 0.0
C7 C 0.34393 0.30678 0.21793 0.0
C8 C 0.31918 0.29742 0.23409 0.0
N9 N 0.35044 0.33224 0.20635 0.0
C10 C 0.32978 0.34609 0.20241 0.0
H11 H 0.35531 0.90511 0.66826 0.0
H12 H 0.34469 0.9805 0.64415 0.0
H13 H 0.37127 0.9292 0.58435 0.0
C14 C 0.35544 0.91935 0.65246 0.0
C15 C 0.36349 0.91405 0.62542 0.0
C16 C 0.34916 0.94348 0.6596 0.0
C17 C 0.34987 0.96194 0.63903 0.0
C18 C 0.35776 0.95669 0.61189 0.0
C19 C 0.36523 0.93311 0.60535 0.0
N20 N 0.35766 0.97467 0.59075 0.0
C21 C 0.33404 0.98479 0.58707 0.0
H22 H 0.7015 0.35333 0.92105 0.0
H23 H 0.68997 0.41481 0.86809 0.0
H24 H 0.6249 0.34103 0.87133 0.0
C25 C 0.68856 0.36069 0.90657 0.0
C26 C 0.6618 0.34391 0.89789 0.0
C27 C 0.69899 0.38664 0.8967 0.0
C28 C 0.68273 0.39505 0.87595 0.0
C29 C 0.65617 0.37819 0.86646 0.0
C30 C 0.64591 0.35317 0.87793 0.0
N31 N 0.63768 0.38562 0.8469 0.0
C32 C 0.64379 0.40601 0.82805 0.0
H33 H 0.83351 0.72963 0.42544 0.0
H34 H 0.88166 0.73719 0.34951 0.0
H35 H 0.80608 0.67265 0.35817 0.0
C36 C 0.83697 0.72206 0.40496 0.0
C37 C 0.81731 0.69895 0.39421 0.0
C38 C 0.86031 0.73616 0.38915 0.0
C39 C 0.86437 0.72628 0.3623 0.0
C40 C 0.8451 0.70301 0.35136 0.0
C41 C 0.82165 0.68971 0.36732 0.0
N42 N 0.84552 0.6955 0.32287 0.0
C43 C 0.8676 0.68721 0.30955 0.0
H44 H 0.77364 0.7985 0.85537 0.0
H45 H 0.70442 0.77347 0.91303 0.0
H46 H 0.70331 0.83523 0.85707 0.0
C47 C 0.75299 0.79969 0.86357 0.0
C48 C 0.73957 0.81818 0.85296 0.0
C49 C 0.74069 0.78348 0.88529 0.0
C50 C 0.7145 0.78599 0.89647 0.0
C51 C 0.70129 0.80492 0.88685 0.0
C52 C 0.71386 0.82104 0.86505 0.0
N53 N 0.67529 0.80709 0.89945 0.0
C54 C 0.66558 0.82988 0.89936 0.0
H55 H 0.77782 0.19695 0.41634 0.0
H56 H 0.8296 0.25499 0.47345 0.0
H57 H 0.75632 0.27078 0.43357 0.0
C58 C 0.78207 0.21603 0.42732 0.0
C59 C 0.76427 0.23295 0.42266 0.0
C60 C 0.80574 0.22378 0.44552 0.0
C61 C 0.81177 0.24887 0.45887 0.0
C62 C 0.79381 0.26559 0.45509 0.0
C63 C 0.77012 0.25772 0.43678 0.0
N64 N 0.79956 0.28983 0.47068 0.0
C65 C 0.7775 0.29997 0.48079 0.0
H66 H 0.3468 0.75626 0.18537 0.0
H67 H 0.3525 0.70006 0.24716 0.0
H68 H 0.42068 0.7715 0.23925 0.0
C69 C 0.35802 0.75057 0.20256 0.0
C70 C 0.38498 0.76713 0.21085 0.0
C71 C 0.34589 0.72629 0.21534 0.0
C72 C 0.36142 0.71856 0.23707 0.0
C73 C 0.38853 0.73502 0.24571 0.0
C74 C 0.39995 0.75895 0.23237 0.0
N75 N 0.40571 0.72864 0.26721 0.0
C76 C 0.39872 0.70815 0.28593 0.0
H77 H 0.19686 0.36741 0.67258 0.0
H78 H 0.19126 0.4222 0.74001 0.0
H79 H 0.12957 0.34598 0.73245 0.0
C80 C 0.18604 0.37242 0.69086 0.0
C81 C 0.16195 0.35361 0.70074 0.0
C82 C 0.19697 0.39724 0.70475 0.0
C83 C 0.18326 0.4032 0.72919 0.0
C84 C 0.15871 0.38458 0.73905 0.0
C85 C 0.14853 0.36006 0.72479 0.0
N86 N 0.14282 0.3891 0.76279 0.0
C87 C 0.14788 0.41088 0.78136 0.0
Ho88 Ho 0.02031 0.05735 0.51051 0.0
Ho89 Ho 0.01267 0.03497 0.568 0.0
C90 C 0.04445 0.09591 0.56436 0.0
C91 C 0.02103 0.08436 0.46663 0.0
C92 C 0.04328 0.10349 0.4515 0.0
C93 C 0.03648 0.12511 0.43938 0.0
C94 C 0.05696 0.14249 0.42354 0.0
C95 C 0.0844 0.13827 0.41937 0.0
C96 C 0.0914 0.11705 0.4322 0.0
C97 C 0.07111 0.09992 0.44828 0.0
C98 C 0.0638 0.03739 0.52724 0.0
C99 C 0.99038 0.99607 0.51413 0.0
C100 C 0.00936 1.00873 0.61277 0.0
C101 C 0.98504 0.99239 0.62796 0.0
C102 C 0.99007 0.9765 0.64908 0.0
C103 C 0.96714 0.96243 0.66493 0.0
C104 C 0.93879 0.96419 0.66001 0.0
C105 C 0.93385 0.97971 0.63828 0.0
C106 C 0.95676 0.9936 0.62235 0.0
C107 C 0.96941 0.05484 0.55018 0.0
O108 O 0.03353 0.09411 0.53899 0.0
O109 O 0.04395 0.07432 0.57804 0.0
O110 O 0.02345 0.06003 0.46624 0.0
O111 O 0.01414 0.09228 0.491 0.0
O112 O 0.05603 0.03773 0.50171 0.0
O113 O 0.0505 0.05028 0.54216 0.0
O114 O 1.00148 0.99818 0.53945 0.0
O115 O 0.99004 0.01748 0.5005 0.0
O116 O 0.01022 0.03387 0.61244 0.0
O117 O 0.01467 0.99925 0.58855 0.0
O118 O 0.97725 0.05569 0.57578 0.0
O119 O 0.98298 0.04164 0.53623 0.0
H120 H 0.01516 0.12824 0.44175 0.0
H121 H 0.05103 0.15867 0.41379 0.0
H122 H 0.11255 0.11359 0.42959 0.0
H123 H 0.07702 0.08359 0.45775 0.0
H124 H 0.01178 0.97528 0.65358 0.0
H125 H 0.97166 0.95027 0.68113 0.0
H126 H 0.91243 0.98179 0.63407 0.0
H127 H 0.95251 1.00581 0.60605 0.0
Ho128 Ho 0.5533 0.06518 0.06959 0.0
Ho129 Ho 0.49199 0.04556 0.04094 0.0
C130 C 0.49897 0.08417 0.09528 0.0
C131 C 0.60068 0.09089 0.094 0.0
C132 C 0.60794 0.10512 0.12099 0.0
C133 C 0.59736 0.12699 0.12877 0.0
C134 C 0.60325 0.13899 0.15518 0.0
C135 C 0.61948 0.12911 0.17427 0.0
C136 C 0.63037 0.10755 0.16628 0.0
C137 C 0.62479 0.09578 0.13987 0.0
C138 C 0.521 0.01625 0.08278 0.0
C139 C 0.54778 0.03013 1.01436 0.0
C140 C 0.44203 0.01701 0.02482 0.0
C141 C 0.42678 1.00981 0.99808 0.0
C142 C 0.41561 0.98297 0.99031 0.0
C143 C 0.40194 0.97571 0.96466 0.0
C144 C 0.39896 0.9952 0.94644 0.0
C145 C 0.40972 0.02207 0.95444 0.0
C146 C 0.42362 0.02933 0.97996 0.0
C147 C 0.52437 0.09003 1.01629 0.0
O148 O 0.52721 0.08716 0.09507 0.0
O149 O 0.48097 0.06738 0.07824 0.0
O150 O 0.59018 0.06524 0.09511 0.0
O151 O 0.58729 0.10141 0.0758 0.0
O152 O 0.54883 0.02281 0.08034 0.0
O153 O 0.51162 0.03641 0.07938 0.0
O154 O 0.51952 0.02281 0.01844 0.0
O155 O 0.5652 0.04988 0.0288 0.0
O156 O 0.44682 0.04181 0.03358 0.0
O157 O 0.46411 1.00715 0.02881 0.0
O158 O 0.49845 0.0774 1.00845 0.0
O159 O 0.53083 0.07759 0.03598 0.0
H160 H 0.58422 0.13459 0.11466 0.0
H161 H 0.5946 0.15558 0.16089 0.0
H162 H 0.64333 0.09982 0.18047 0.0
H163 H 0.63329 0.07905 0.13431 0.0
H164 H 0.41773 0.9676 1.00399 0.0
H165 H 0.39368 0.95484 0.95907 0.0
H166 H 0.40808 0.03751 0.94065 0.0
H167 H 0.43217 0.05021 0.98528 0.0
Ho168 Ho 0.51176 0.5307 0.54025 0.0
Ho169 Ho 0.51063 0.57514 0.57872 0.0
C170 C 0.53667 0.53086 0.60325 0.0
C171 C 0.52601 0.49423 0.51059 0.0
C172 C 0.54048 0.47341 0.5163 0.0
C173 C 0.56503 0.47241 0.50109 0.0
C174 C 0.5805 0.4542 0.50732 0.0
C175 C 0.57149 0.43648 0.52869 0.0
C176 C 0.54652 0.43697 0.54354 0.0
C177 C 0.53122 0.4555 0.53756 0.0
C178 C 0.46113 0.52475 0.56715 0.0
C179 C 0.48667 0.5755 0.51521 0.0
C180 C 0.49677 0.61119 0.60946 0.0
C181 C 0.48617 0.63481 0.60579 0.0
C182 C 0.46234 0.63407 0.58867 0.0
C183 C 0.45175 0.65644 0.58689 0.0
C184 C 0.46492 0.67994 0.60204 0.0
C185 C 0.4894 0.68078 0.61836 0.0
C186 C 0.4998 0.65839 0.62031 0.0
C187 C 0.56118 0.58119 0.55145 0.0
O188 O 0.53731 0.52237 0.57717 0.0
O189 O 0.52376 0.54961 0.60979 0.0
O190 O 0.50022 0.49149 0.52079 0.0
O191 O 0.54224 0.51851 0.5134 0.0
O192 O 0.46327 0.51852 0.54121 0.0
O193 O 0.48601 0.53335 0.57774 0.0
O194 O 0.48666 0.58464 0.54116 0.0
O195 O 0.49829 0.5558 0.50894 0.0
O196 O 0.52312 0.61286 0.60138 0.0
O197 O 0.47894 0.5882 0.60304 0.0
O198 O 0.55924 0.58774 0.57732 0.0
O199 O 0.5362 0.57252 0.54121 0.0
H200 H 0.57253 0.48606 0.48467 0.0
H201 H 0.59954 0.45393 0.49539 0.0
H202 H 0.53929 0.4235 0.56015 0.0
H203 H 0.51248 0.45604 0.54981 0.0
H204 H 0.45156 0.61613 0.57706 0.0
H205 H 0.43274 0.65504 0.57429 0.0
H206 H 0.50045 0.69873 0.62982 0.0
H207 H 0.51836 0.65939 0.63344 0.0
Ho208 Ho 0.0258 0.53191 0.06242 0.0
Ho209 Ho 0.02549 0.58332 0.03799 0.0
C210 C 0.0798 0.58386 0.07562 0.0
C211 C 0.0381 0.48935 0.07832 0.0
C212 C 0.06243 0.48173 0.09123 0.0
C213 C 0.09052 0.48955 0.0806 0.0
C214 C 0.11275 0.48063 0.09231 0.0
C215 C 0.10736 0.46384 0.11493 0.0
C216 C 0.07938 0.4568 0.12599 0.0
C217 C 0.05716 0.46557 0.11418 0.0
C218 C 0.99587 0.56054 0.09218 0.0
C219 C 0.97106 0.53145 0.02543 0.0
C220 C 0.01307 0.62592 0.02244 0.0
C221 C 0.98786 0.633 1.01088 0.0
C222 C 0.95982 0.6216 0.02035 0.0
C223 C 0.93639 0.62959 1.00996 0.0
C224 C 0.94057 0.64887 0.98972 0.0
C225 C 0.96856 0.65972 0.97983 0.0
C226 C 0.992 0.65191 0.9904 0.0
C227 C 0.0557 0.55484 1.00837 0.0
O228 O 0.07064 0.55762 0.07398 0.0
O229 O 0.06427 0.59877 0.06533 0.0
O230 O 0.02481 0.50322 0.0939 0.0
O231 O 0.04155 0.49754 0.053 0.0
O232 O 0.98792 0.53496 0.08855 0.0
O233 O 0.0198 0.56959 0.0805 0.0
O234 O 0.9807 0.55766 0.02635 0.0
O235 O 0.98626 0.51637 0.03599 0.0
O236 O 0.02536 0.61162 1.00632 0.0
O237 O 0.01095 0.61821 0.04795 0.0
O238 O 0.06359 0.58043 1.0121 0.0
O239 O 0.03165 0.54572 0.01988 0.0
H240 H 0.09523 0.50215 0.06298 0.0
H241 H 0.13395 0.48626 0.08309 0.0
H242 H 0.07456 0.44436 0.14372 0.0
H243 H 0.0357 0.45943 0.1228 0.0
H244 H 0.95605 0.60674 0.03596 0.0
H245 H 0.915 0.6207 0.01773 0.0
H246 H 0.97246 0.67478 0.96444 0.0
H247 H 0.01346 0.6609 0.98284 0.0
C248 C 0.26981 0.23504 0.25675 0.0
C249 C 0.28618 0.26143 0.2609 0.0
C250 C 0.24567 0.22476 0.2729 0.0
C251 C 0.21289 0.23546 0.33995 0.0
H252 H 0.14777 0.18181 0.30875 0.0
C253 C 0.11202 0.18287 0.40316 0.0
C254 C 0.1053 0.15506 0.40063 0.0
C255 C 0.13222 0.19843 0.38556 0.0
C256 C 0.16581 0.1968 0.31772 0.0
H257 H 0.28954 0.29789 0.28498 0.0
H258 H 0.24676 0.28012 0.31271 0.0
H259 H 0.18603 0.205 0.2785 0.0
H260 H 0.11373 0.12172 0.37743 0.0
H261 H 0.14866 0.14885 0.34655 0.0
H262 H 0.19239 0.22705 0.37923 0.0
C263 C 0.25299 0.26724 0.29726 0.0
C264 C 0.1878 0.21001 0.30044 0.0
C265 C 0.27733 0.27752 0.28116 0.0
C266 C 0.11872 0.14312 0.37996 0.0
C267 C 0.13849 0.15862 0.36216 0.0
C268 C 0.19066 0.22242 0.3572 0.0
C269 C 0.237 0.24064 0.29347 0.0
C270 C 0.21202 0.22899 0.31142 0.0
C271 C 0.14555 0.18641 0.36485 0.0
C272 C 0.16729 0.20251 0.34632 0.0
H273 H 0.27569 0.22221 0.24102 0.0
H274 H 0.2342 0.20409 0.26961 0.0
H275 H 0.2313 0.24976 0.34918 0.0
H276 H 0.102 0.19252 0.419 0.0
H277 H 0.13728 0.21983 0.38799 0.0
C278 C 0.32615 0.93103 0.70547 0.0
C279 C 0.34414 0.94997 0.68892 0.0
C280 C 0.32473 0.93579 0.73397 0.0
C281 C 0.34688 0.98822 0.79006 0.0
H282 H 0.35081 0.92865 0.83402 0.0
C283 C 0.36603 1.0004 0.90802 0.0
C284 C 0.38586 0.98763 0.91864 0.0
C285 C 0.35519 0.99443 0.88109 0.0
C286 C 0.34982 0.94553 0.82207 0.0
H287 H 0.3739 0.98907 0.68896 0.0
H288 H 0.37197 0.99722 0.73861 0.0
H289 H 0.34216 0.922 0.78454 0.0
H290 H 0.40972 0.9585 0.90956 0.0
H291 H 0.39141 0.94846 0.86249 0.0
H292 H 0.35644 1.01207 0.82734 0.0
C293 C 0.35841 0.97891 0.72968 0.0
C294 C 0.34439 0.94164 0.79368 0.0
C295 C 0.3596 0.97425 0.70118 0.0
C296 C 0.39417 0.96839 0.90204 0.0
C297 C 0.38355 0.96259 0.87507 0.0
C298 C 0.35258 0.99216 0.81843 0.0
C299 C 0.34152 0.95948 0.74655 0.0
C300 C 0.34349 0.96305 0.7772 0.0
C301 C 0.36416 0.97573 0.86412 0.0
C302 C 0.35478 0.97097 0.83467 0.0
H303 H 0.31372 0.91227 0.69645 0.0
H304 H 0.31102 0.92063 0.74622 0.0
H305 H 0.34585 1.00508 0.7781 0.0
H306 H 0.35899 0.01509 0.92051 0.0
H307 H 0.33994 1.00461 0.87351 0.0
C308 C 0.63046 0.4453 0.81035 0.0
C309 C 0.64087 0.42288 0.80538 0.0
C310 C 0.62185 0.45841 0.78829 0.0
C311 C 0.62418 0.46404 0.71088 0.0
H312 H 0.55501 0.48784 0.72259 0.0
C313 C 0.56279 0.49787 0.62027 0.0
C314 C 0.55012 0.51894 0.62577 0.0
C315 C 0.57504 0.48671 0.64172 0.0
C316 C 0.57457 0.48169 0.71891 0.0
H317 H 0.65065 0.39666 0.77348 0.0
H318 H 0.63585 0.41941 0.73498 0.0
H319 H 0.57511 0.46872 0.76036 0.0
H320 H 0.54095 0.54486 0.65852 0.0
H321 H 0.56237 0.52585 0.69548 0.0
H322 H 0.62342 0.47689 0.66927 0.0
C323 C 0.63471 0.42735 0.75579 0.0
C324 C 0.58623 0.47068 0.74075 0.0
C325 C 0.64331 0.41427 0.77789 0.0
C326 C 0.55027 0.52859 0.65333 0.0
C327 C 0.56248 0.51749 0.6747 0.0
C328 C 0.6125 0.47508 0.68898 0.0
C329 C 0.62317 0.44928 0.76063 0.0
C330 C 0.61126 0.46168 0.7372 0.0
C331 C 0.57497 0.49627 0.66937 0.0
C332 C 0.5875 0.48416 0.69262 0.0
H333 H 0.62788 0.4521 0.83137 0.0
H334 H 0.61361 0.47543 0.79302 0.0
H335 H 0.64361 0.45767 0.70723 0.0
H336 H 0.56308 0.4898 0.59937 0.0
H337 H 0.5841 0.47026 0.63666 0.0
C338 C 0.87696 0.64792 0.2857 0.0
C339 C 0.88502 0.67541 0.29102 0.0
C340 C 0.89041 0.63642 0.26477 0.0
C341 C 0.95454 0.64749 0.21911 0.0
H342 H 0.90342 0.59398 0.17198 0.0
C343 C 0.9953 0.60233 0.11976 0.0
C344 C 0.98324 0.57519 0.11362 0.0
C345 C 0.9839 0.61554 0.14098 0.0
C346 C 0.91819 0.6086 0.18508 0.0
H347 H 0.91368 0.71254 0.27908 0.0
H348 H 0.93764 0.69247 0.24257 0.0
H349 H 0.88371 0.61453 0.21045 0.0
H350 H 0.94968 0.54072 0.12494 0.0
H351 H 0.93027 0.56333 0.162 0.0
H352 H 0.98912 0.64128 0.19388 0.0
C353 C 0.92105 0.67969 0.25469 0.0
C354 C 0.9068 0.62046 0.20723 0.0
C355 C 0.9074 0.69121 0.27561 0.0
C356 C 0.95942 0.56167 0.129 0.0
C357 C 0.94814 0.57476 0.15024 0.0
C358 C 0.96602 0.63545 0.197 0.0
C359 C 0.91227 0.65217 0.24857 0.0
C360 C 0.92479 0.63994 0.22472 0.0
C361 C 0.96018 0.60192 0.15667 0.0
C362 C 0.94803 0.61565 0.17972 0.0
H363 H 0.85954 0.63535 0.29715 0.0
H364 H 0.88336 0.61516 0.261 0.0
H365 H 0.9691 0.6623 0.2322 0.0
H366 H 0.01369 0.61333 0.1083 0.0
H367 H 0.9936 0.63649 0.14495 0.0
C368 C 0.40361 0.25435 0.21338 0.0
C369 C 0.3733 0.24599 0.21353 0.0
C370 C 0.41977 0.23678 0.20489 0.0
C371 C 0.41378 0.16487 0.19215 0.0
H372 H 0.47856 0.18985 0.14334 0.0
C373 C 0.45705 0.09584 0.11845 0.0
C374 C 0.48702 0.10099 0.11471 0.0
C375 C 0.44551 0.11308 0.13468 0.0
C376 C 0.46082 0.18265 0.15732 0.0
H377 H 0.33621 0.21285 0.20429 0.0
H378 H 0.3642 0.18246 0.18932 0.0
H379 H 0.45412 0.22131 0.1637 0.0
H380 H 0.52843 0.12795 0.12589 0.0
H381 H 0.50814 0.15817 0.15411 0.0
H382 H 0.41988 0.12607 0.18491 0.0
C383 C 0.37563 0.20229 0.19644 0.0
C384 C 0.44681 0.20069 0.16903 0.0
C385 C 0.35954 0.21976 0.20498 0.0
C386 C 0.50524 0.12337 0.12831 0.0
C387 C 0.49364 0.14079 0.14435 0.0
C388 C 0.42765 0.14685 0.18031 0.0
C389 C 0.40594 0.21053 0.19627 0.0
C390 C 0.42274 0.19192 0.18613 0.0
C391 C 0.46363 0.13599 0.1474 0.0
C392 C 0.45097 0.15547 0.16236 0.0
H393 H 0.41481 0.27438 0.22005 0.0
H394 H 0.44309 0.2437 0.20524 0.0
H395 H 0.39572 0.15752 0.20573 0.0
H396 H 0.44239 0.07875 0.10836 0.0
H397 H 0.42227 0.10898 0.13643 0.0
C398 C 0.29456 0.98766 0.55644 0.0
C399 C 0.30751 0.9919 0.58265 0.0
C400 C 0.26743 0.99201 0.55243 0.0
C401 C 0.21607 0.02658 0.58163 0.0
H402 H 0.16064 0.9744 0.53671 0.0
C403 C 0.09941 0.03394 0.5636 0.0
C404 C 0.0896 0.02957 0.53608 0.0
C405 C 0.1249 0.02788 0.57143 0.0
C406 C 0.17593 0.98922 0.54916 0.0
H407 H 0.30317 1.00397 0.62528 0.0
H408 H 0.25547 1.01183 0.61835 0.0
H409 H 0.20797 0.96758 0.54608 0.0
H410 H 0.09803 0.01489 0.49536 0.0
H411 H 0.14258 1.00453 0.5089 0.0
H412 H 0.18413 0.04845 0.58433 0.0
C413 C 0.26629 1.00539 0.60083 0.0
C414 C 0.20303 0.98533 0.5545 0.0
C415 C 0.29346 1.00092 0.60482 0.0
C416 C 0.10518 0.01846 0.51671 0.0
C417 C 0.13059 1.01238 0.52452 0.0
C418 C 0.18892 0.03051 0.57624 0.0
C419 C 0.25285 1.00062 0.57465 0.0
C420 C 0.22355 1.00417 0.57042 0.0
C421 C 0.14089 0.01725 0.5519 0.0
C422 C 0.16874 1.01206 0.55959 0.0
H423 H 0.30517 0.98051 0.53917 0.0
H424 H 0.25781 0.98856 0.53194 0.0
H425 H 0.23151 0.0415 0.59383 0.0
H426 H 0.08763 0.04236 0.57896 0.0
H427 H 0.13213 0.03156 0.59275 0.0
C428 C 0.74567 0.42376 0.89366 0.0
C429 C 0.72627 0.40468 0.90915 0.0
C430 C 0.77153 0.43958 0.9056 0.0
C431 C 0.80944 0.45846 0.97511 0.0
H432 H 0.87745 0.48219 0.93003 0.0
C433 C 0.92683 0.49309 0.01897 0.0
C434 C 0.9427 0.51862 1.0118 0.0
C435 C 0.90022 0.48091 1.00615 0.0
C436 C 0.85857 0.47579 0.94284 0.0
H437 H 0.719 0.38873 0.95022 0.0
H438 H 0.76404 0.41424 0.96992 0.0
H439 H 0.83182 0.4579 0.90828 0.0
H440 H 0.94301 0.55113 0.98509 0.0
H441 H 0.89698 0.52933 0.96194 0.0
H442 H 0.83686 0.47523 1.00979 0.0
C443 C 0.75937 0.41778 0.94875 0.0
C444 C 0.8322 0.46196 0.93036 0.0
C445 C 0.73345 0.40246 0.93706 0.0
C446 C 0.93134 0.53152 0.99121 0.0
C447 C 0.90506 0.519 0.97784 0.0
C448 C 0.83591 0.47166 0.98758 0.0
C449 C 0.77902 0.4367 0.93335 0.0
C450 C 0.80711 0.4528 0.9463 0.0
C451 C 0.8891 0.49362 0.98529 0.0
C452 C 0.86082 0.48038 0.97165 0.0
H453 H 0.74119 0.42622 0.87214 0.0
H454 H 0.78555 0.45413 0.89294 0.0
H455 H 0.7908 0.45278 0.98831 0.0
H456 H 0.93484 0.4826 0.03477 0.0
H457 H 0.88845 0.46133 1.01229 0.0
C458 C 0.78177 0.65767 0.41081 0.0
C459 C 0.7913 0.6855 0.41039 0.0
C460 C 0.75728 0.64521 0.42593 0.0
C461 C 0.70968 0.65829 0.48283 0.0
H462 H 0.65691 0.59332 0.45443 0.0
C463 C 0.58722 0.58855 0.50604 0.0
C464 C 0.58798 0.59002 0.5351 0.0
C465 C 0.61233 0.59876 0.49078 0.0
C466 C 0.67127 0.61156 0.46263 0.0
H467 H 0.78178 0.72195 0.42499 0.0
H468 H 0.73925 0.70039 0.45102 0.0
H469 H 0.69941 0.61433 0.42779 0.0
H470 H 0.61586 0.60239 0.57092 0.0
H471 H 0.65963 0.61961 0.5445 0.0
H472 H 0.68121 0.65607 0.51719 0.0
C473 C 0.75103 0.68807 0.44029 0.0
C474 C 0.69593 0.62347 0.44746 0.0
C475 C 0.77552 0.7005 0.42529 0.0
C476 C 0.61452 0.60117 0.54854 0.0
C477 C 0.6396 0.61124 0.53334 0.0
C478 C 0.68504 0.64645 0.49792 0.0
C479 C 0.74156 0.66023 0.44095 0.0
C480 C 0.71547 0.64709 0.45729 0.0
C481 C 0.63885 0.61059 0.50421 0.0
C482 C 0.66541 0.6229 0.48808 0.0
H483 H 0.7935 0.64548 0.39977 0.0
H484 H 0.75098 0.62376 0.42617 0.0
H485 H 0.72431 0.67623 0.49136 0.0
H486 H 0.56708 0.58009 0.49507 0.0
H487 H 0.61071 0.59806 0.46844 0.0
C488 C 0.31483 0.38582 0.18978 0.0
C489 C 0.30755 0.35915 0.19682 0.0
C490 C 0.29321 0.39795 0.18267 0.0
C491 C 0.21861 0.38143 0.15588 0.0
H492 H 0.22075 0.45342 0.18003 0.0
C493 C 0.12393 0.42638 0.13443 0.0
C494 C 0.13045 0.45283 0.12626 0.0
C495 C 0.14557 0.41561 0.14427 0.0
C496 C 0.22001 0.4334 0.17287 0.0
H497 H 0.27259 0.3241 0.20253 0.0
H498 H 0.23464 0.34525 0.19046 0.0
H499 H 0.25848 0.43344 0.19533 0.0
H500 H 0.16493 0.48884 0.12264 0.0
H501 H 0.20287 0.4698 0.13913 0.0
H502 H 0.18043 0.38136 0.13321 0.0
C503 C 0.25692 0.35683 0.19007 0.0
C504 C 0.24161 0.42194 0.18167 0.0
C505 C 0.27854 0.34477 0.19717 0.0
C506 C 0.15918 0.46832 0.12845 0.0
C507 C 0.18088 0.45749 0.13823 0.0
C508 C 0.19711 0.39287 0.14705 0.0
C509 C 0.26401 0.38348 0.18242 0.0
C510 C 0.24109 0.39579 0.17333 0.0
C511 C 0.17436 0.43093 0.14606 0.0
C512 C 0.19746 0.41896 0.15548 0.0
H513 H 0.33722 0.39713 0.18928 0.0
H514 H 0.29941 0.4184 0.17662 0.0
H515 H 0.21789 0.36144 0.14862 0.0
H516 H 0.10215 0.41373 0.13272 0.0
H517 H 0.13968 0.3952 0.15048 0.0
C518 C 0.63297 0.29558 0.89429 0.0
C519 C 0.65005 0.3171 0.91017 0.0
C520 C 0.62117 0.27091 0.90598 0.0
C521 C 0.60486 0.23851 0.97454 0.0
H522 H 0.59227 0.17398 0.92903 0.0
C523 C 0.56414 0.1328 0.01931 0.0
C524 C 0.54179 0.11501 1.00432 0.0
C525 C 0.57889 0.15713 1.00823 0.0
C526 C 0.59551 0.19181 0.94204 0.0
H527 H 0.66785 0.32882 0.95131 0.0
H528 H 0.64861 0.28578 0.97117 0.0
H529 H 0.61519 0.21647 0.90922 0.0
H530 H 0.51759 0.10875 0.96584 0.0
H531 H 0.54355 0.1507 0.94632 0.0
H532 H 0.58553 0.21353 1.00748 0.0
C533 C 0.64367 0.28808 0.94973 0.0
C534 C 0.60857 0.21635 0.9306 0.0
C535 C 0.65522 0.31286 0.93811 0.0
C536 C 0.53483 0.12194 0.97787 0.0
C537 C 0.54981 0.14598 0.96662 0.0
C538 C 0.59212 0.21391 0.98605 0.0
C539 C 0.62625 0.26666 0.93394 0.0
C540 C 0.61322 0.24022 0.94654 0.0
C541 C 0.5719 0.16407 0.9817 0.0
C542 C 0.58697 0.19022 0.96989 0.0
H543 H 0.62869 0.29768 0.87265 0.0
H544 H 0.60761 0.25527 0.89303 0.0
H545 H 0.60748 0.25625 0.98755 0.0
H546 H 0.56965 0.12831 0.03989 0.0
H547 H 0.59583 0.17051 0.02042 0.0
C548 C 0.88463 0.78474 0.38376 0.0
C549 C 0.87853 0.76228 0.40017 0.0
C550 C 0.89849 0.8099 0.39516 0.0
C551 C 0.94253 0.84463 0.45537 0.0
H552 H 0.91081 0.9029 0.4369 0.0
C553 C 0.9754 0.94614 0.51573 0.0
C554 C 0.97786 0.96931 0.50092 0.0
C555 C 0.96407 0.921 0.50307 0.0
C556 C 0.92029 0.88702 0.44206 0.0
H557 H 0.88352 0.74865 0.44121 0.0
H558 H 0.90765 0.79238 0.46105 0.0
H559 H 0.89113 0.85926 0.41496 0.0
H560 H 0.97037 0.98397 0.46097 0.0
H561 H 0.95118 0.94036 0.43885 0.0
H562 H 0.97177 0.87236 0.48239 0.0
C563 C 0.90172 0.79062 0.43934 0.0
C564 C 0.90895 0.86189 0.42942 0.0
C565 C 0.88769 0.76552 0.428 0.0
C566 C 0.96865 0.96663 0.47312 0.0
C567 C 0.95746 0.94151 0.46043 0.0
C568 C 0.95399 0.8698 0.46792 0.0
C569 C 0.90685 0.81326 0.42324 0.0
C570 C 0.91981 0.8403 0.43597 0.0
C571 C 0.95499 0.91827 0.47518 0.0
C572 C 0.94297 0.89139 0.46156 0.0
H573 H 0.87766 0.78305 0.36234 0.0
H574 H 0.90241 0.8268 0.38202 0.0
H575 H 0.95171 0.82859 0.46069 0.0
H576 H 0.98216 0.94738 0.53719 0.0
H577 H 0.96213 0.90369 0.51532 0.0
C578 C 0.35194 0.86467 0.62643 0.0
C579 C 0.37048 0.88871 0.61843 0.0
C580 C 0.35929 0.84084 0.62139 0.0
C581 C 0.41008 0.81027 0.58249 0.0
H582 H 0.39484 0.76129 0.6424 0.0
C583 C 0.44116 0.71034 0.5774 0.0
C584 C 0.45257 0.70315 0.60182 0.0
C585 C 0.42911 0.73196 0.57759 0.0
C586 C 0.39943 0.77482 0.62553 0.0
H587 H 0.41088 0.90681 0.5985 0.0
H588 H 0.42425 0.86528 0.59037 0.0
H589 H 0.37781 0.80104 0.64554 0.0
H590 H 0.4599 0.71289 0.64564 0.0
H591 H 0.44007 0.75102 0.64573 0.0
H592 H 0.43303 0.78457 0.56318 0.0
C593 C 0.40369 0.86466 0.59993 0.0
C594 C 0.38926 0.79745 0.62713 0.0
C595 C 0.39615 0.88847 0.60468 0.0
C596 C 0.45172 0.71809 0.62636 0.0
C597 C 0.43989 0.73974 0.62651 0.0
C598 C 0.42049 0.78768 0.58099 0.0
C599 C 0.38553 0.84059 0.60859 0.0
C600 C 0.39471 0.81562 0.60578 0.0
C601 C 0.42829 0.74686 0.60219 0.0
C602 C 0.41563 0.7699 0.60271 0.0
H603 H 0.3318 0.86434 0.6367 0.0
H604 H 0.3445 0.82263 0.62779 0.0
H605 H 0.41432 0.82366 0.56549 0.0
H606 H 0.4417 0.69939 0.55809 0.0
H607 H 0.42016 0.73682 0.55855 0.0
C608 C 0.75505 0.86185 0.82951 0.0
C609 C 0.75299 0.83454 0.82954 0.0
C610 C 0.77038 0.8775 0.80875 0.0
C611 C 0.80472 0.87371 0.7399 0.0
H612 H 0.8567 0.94029 0.76535 0.0
C613 C 0.88698 0.93901 0.66691 0.0
C614 C 0.91465 0.95064 0.67801 0.0
C615 C 0.86427 0.92671 0.68402 0.0
C616 C 0.84242 0.92168 0.75791 0.0
H617 H 0.76375 0.80196 0.80685 0.0
H618 H 0.79114 0.82917 0.77139 0.0
H619 H 0.82153 0.91504 0.797 0.0
H620 H 0.93989 0.95877 0.71601 0.0
H621 H 0.90078 0.93644 0.74554 0.0
H622 H 0.82676 0.8796 0.7013 0.0
C623 C 0.78077 0.83863 0.7871 0.0
C624 C 0.82189 0.90739 0.77596 0.0
C625 C 0.76538 0.82304 0.8077 0.0
C626 C 0.91901 0.94968 0.70664 0.0
C627 C 0.89639 0.93725 0.72369 0.0
C628 C 0.82541 0.88791 0.72191 0.0
C629 C 0.78397 0.86614 0.78763 0.0
C630 C 0.80319 0.88293 0.76738 0.0
C631 C 0.86871 0.92563 0.71263 0.0
C632 C 0.84494 0.9118 0.73088 0.0
H633 H 0.74576 0.87132 0.84606 0.0
H634 H 0.77205 0.89857 0.80956 0.0
H635 H 0.79034 0.85518 0.73243 0.0
H636 H 0.88288 0.93916 0.64492 0.0
H637 H 0.84319 0.91818 0.67481 0.0
C638 C 0.73716 0.24153 0.38128 0.0
C639 C 0.74023 0.22468 0.40239 0.0
C640 C 0.71751 0.23211 0.35959 0.0
C641 C 0.68434 0.16901 0.3232 0.0
H642 H 0.64213 0.20988 0.28293 0.0
C643 C 0.62122 0.12466 0.22539 0.0
C644 C 0.62526 0.14103 0.20256 0.0
C645 C 0.62954 0.13535 0.25183 0.0
C646 C 0.65389 0.19828 0.29394 0.0
H647 H 0.72349 0.18566 0.41883 0.0
H648 H 0.6889 0.16931 0.38126 0.0
H649 H 0.66668 0.22809 0.3264 0.0
H650 H 0.63984 0.18154 0.18952 0.0
H651 H 0.65511 0.2003 0.23577 0.0
H652 H 0.67259 0.13963 0.29063 0.0
C653 C 0.70217 0.18955 0.38098 0.0
C654 C 0.6679 0.20868 0.31881 0.0
C655 C 0.72191 0.19889 0.4025 0.0
C656 C 0.63646 0.16851 0.20684 0.0
C657 C 0.64508 0.17923 0.23333 0.0
C658 C 0.67046 0.15868 0.29844 0.0
C659 C 0.7005 0.20571 0.35875 0.0
C660 C 0.68348 0.19422 0.33359 0.0
C661 C 0.64242 0.16264 0.25601 0.0
C662 C 0.65526 0.17323 0.28335 0.0
H663 H 0.75112 0.26148 0.38067 0.0
H664 H 0.71687 0.24502 0.34271 0.0
H665 H 0.6967 0.15759 0.33367 0.0
H666 H 0.6121 0.10345 0.22269 0.0
H667 H 0.62653 0.1221 0.26894 0.0
C668 C 0.39487 0.69894 0.33592 0.0
C669 C 0.39987 0.69094 0.30879 0.0
C670 C 0.40126 0.68533 0.35864 0.0
C671 C 0.41875 0.62256 0.37884 0.0
H672 H 0.45495 0.6654 0.44252 0.0
C673 C 0.47572 0.57922 0.46469 0.0
C674 C 0.47453 0.58815 0.49237 0.0
C675 C 0.46496 0.59117 0.44302 0.0
C676 C 0.44449 0.65297 0.42516 0.0
H677 H 0.41537 0.66239 0.28406 0.0
H678 H 0.42633 0.63842 0.32349 0.0
H679 H 0.4385 0.68644 0.40385 0.0
H680 H 0.46068 0.61684 0.51866 0.0
H681 H 0.44162 0.63744 0.48095 0.0
H682 H 0.42484 0.5891 0.40007 0.0
C683 C 0.41704 0.65494 0.32744 0.0
C684 C 0.435 0.66512 0.40283 0.0
C685 C 0.41069 0.66863 0.30474 0.0
C686 C 0.46208 0.60938 0.49767 0.0
C687 C 0.45127 0.62136 0.47592 0.0
C688 C 0.42819 0.6104 0.40119 0.0
C689 C 0.413 0.66339 0.35483 0.0
C690 C 0.42211 0.65016 0.37919 0.0
C691 C 0.45255 0.61246 0.44818 0.0
C692 C 0.44144 0.62541 0.42468 0.0
H693 H 0.38699 0.71635 0.33966 0.0
H694 H 0.39739 0.6923 0.37925 0.0
H695 H 0.40855 0.6102 0.36133 0.0
H696 H 0.48523 0.56305 0.45961 0.0
H697 H 0.46693 0.58392 0.42206 0.0
C698 C 0.15409 0.45479 0.80655 0.0
C699 C 0.14395 0.42706 0.80537 0.0
C700 C 0.14744 0.46959 0.82936 0.0
C701 C 0.11805 0.46183 0.90186 0.0
H702 H 0.10171 0.52935 0.88992 0.0
C703 C 0.05754 0.51282 0.98201 0.0
C704 C 0.06826 0.54034 0.98672 0.0
C705 C 0.06874 0.49959 0.9607 0.0
C706 C 0.10643 0.51062 0.89368 0.0
H707 H 0.1189 0.39301 0.82657 0.0
H708 H 0.1068 0.41839 0.86565 0.0
H709 H 0.11824 0.5058 0.85147 0.0
H710 H 0.09933 0.57545 0.97281 0.0
H711 H 0.1185 0.55248 0.93552 0.0
H712 H 0.10538 0.46637 0.9439 0.0
C713 C 0.12053 0.42904 0.84978 0.0
C714 C 0.11609 0.49711 0.87159 0.0
C715 C 0.12733 0.4144 0.82722 0.0
C716 C 0.09055 0.55424 0.96975 0.0
C717 C 0.10144 0.5411 0.94824 0.0
C718 C 0.10808 0.47518 0.92382 0.0
C719 C 0.13033 0.45691 0.85128 0.0
C720 C 0.12181 0.47234 0.87523 0.0
C721 C 0.09065 0.5136 0.94333 0.0
C722 C 0.10194 0.49968 0.92002 0.0
H723 H 0.16677 0.46501 0.78979 0.0
H724 H 0.15569 0.49095 0.82976 0.0
H725 H 0.12284 0.44319 0.90589 0.0
H726 H 0.0403 0.50155 0.99461 0.0
H727 H 0.05974 0.47844 0.95741 0.0
C728 C 0.6263 0.85174 0.89529 0.0
C729 C 0.65491 0.85311 0.90238 0.0
C730 C 0.61479 0.87319 0.90153 0.0
C731 C 0.63382 0.94457 0.92372 0.0
H732 H 0.55895 0.9252 0.95877 0.0
C733 C 0.5903 0.01669 0.99433 0.0
C734 C 0.5604 1.01402 0.99466 0.0
C735 C 0.60172 0.99913 0.97832 0.0
C736 C 0.57961 0.93106 0.94856 0.0
H737 H 0.69443 0.87762 0.9206 0.0
H738 H 0.67439 0.91519 0.93182 0.0
H739 H 0.5791 0.89076 0.93895 0.0
H740 H 0.51926 0.99186 0.97698 0.0
H741 H 0.53921 0.96162 0.94878 0.0
H742 H 0.6345 0.98494 0.93398 0.0
C743 C 0.66083 0.89786 0.92111 0.0
C744 C 0.59119 0.91125 0.93717 0.0
C745 C 0.67229 0.87638 0.91483 0.0
C746 C 0.54237 0.9943 0.9775 0.0
C747 C 0.55379 0.97686 0.96141 0.0
C748 C 0.62218 0.96445 0.9351 0.0
C749 C 0.63174 0.89628 0.9151 0.0
C750 C 0.61859 0.91771 0.92492 0.0
C751 C 0.5835 0.97859 0.96219 0.0
C752 C 0.59507 0.95789 0.94797 0.0
H753 H 0.61259 0.83381 0.8857 0.0
H754 H 0.59244 0.87147 0.89628 0.0
H755 H 0.65483 0.95022 0.91414 0.0
H756 H 0.60483 0.03164 1.00731 0.0
H757 H 0.62467 1.00092 0.97961 0.0
C758 C 0.85339 0.21429 0.45442 0.0
C759 C 0.82324 0.2052 0.45182 0.0
C760 C 0.86956 0.19727 0.46278 0.0
C761 C 0.89375 0.16318 0.50046 0.0
H762 H 0.87727 0.08956 0.47499 0.0
C763 C 0.93994 0.08742 0.55546 0.0
C764 C 0.95107 0.07028 0.53846 0.0
C765 C 0.92403 0.1033 0.54397 0.0
C766 C 0.88223 0.11012 0.48216 0.0
H767 H 0.78644 0.17107 0.4554 0.0
H768 H 0.81469 0.14136 0.46998 0.0
H769 H 0.85116 0.11872 0.45476 0.0
H770 H 0.95405 0.05578 0.49633 0.0
H771 H 0.92641 0.08367 0.47619 0.0
H772 H 0.92499 0.15471 0.52765 0.0
C773 C 0.82586 0.16153 0.46523 0.0
C774 C 0.86714 0.12674 0.47074 0.0
C775 C 0.80969 0.17855 0.45687 0.0
C776 C 0.94561 0.06883 0.50988 0.0
C777 C 0.92971 0.0847 0.49838 0.0
C778 C 0.90878 0.14657 0.5119 0.0
C779 C 0.8559 0.17085 0.46872 0.0
C780 C 0.87269 0.15341 0.47986 0.0
C781 C 0.91899 0.10227 0.51528 0.0
C782 C 0.90308 0.11985 0.50297 0.0
H783 H 0.86444 0.23464 0.45025 0.0
H784 H 0.89275 0.20486 0.46485 0.0
H785 H 0.89825 0.18357 0.50814 0.0
H786 H 0.94386 0.08882 0.57758 0.0
H787 H 0.91568 0.1164 0.55754 0.0
C788 C 0.31225 0.68172 0.20056 0.0
C789 C 0.31725 0.70932 0.20508 0.0
C790 C 0.28657 0.66668 0.18769 0.0
C791 C 0.2289 0.67501 0.14047 0.0
H792 H 0.18626 0.60532 0.16293 0.0
C793 C 0.11595 0.62465 0.09475 0.0
C794 C 0.10763 0.59696 0.09015 0.0
C795 C 0.14164 0.63716 0.10888 0.0
C796 C 0.19807 0.62461 0.15608 0.0
H797 H 0.29798 0.74222 0.20129 0.0
H798 H 0.25373 0.71627 0.17899 0.0
H799 H 0.23032 0.62882 0.18794 0.0
H800 H 0.12028 0.56077 0.09697 0.0
H801 H 0.1654 0.58263 0.12111 0.0
H802 H 0.19719 0.67092 0.10848 0.0
C803 C 0.26985 0.70624 0.18469 0.0
C804 C 0.22337 0.63813 0.17052 0.0
C805 C 0.2953 0.72116 0.19758 0.0
C806 C 0.12589 0.58214 0.1001 0.0
C807 C 0.15176 0.5947 0.11416 0.0
C808 C 0.20382 0.6615 0.12597 0.0
C809 C 0.26532 0.67889 0.17897 0.0
C810 C 0.23894 0.6637 0.16314 0.0
C811 C 0.16008 0.62246 0.11876 0.0
C812 C 0.18772 0.63621 0.1337 0.0
H813 H 0.32866 0.6719 0.2059 0.0
H814 H 0.28388 0.64568 0.18362 0.0
H815 H 0.24061 0.69438 0.1337 0.0
H816 H 0.10243 0.6368 0.08769 0.0
H817 H 0.14677 0.65845 0.1124 0.0
C818 C 0.24705 0.42844 0.70969 0.0
C819 C 0.22281 0.41626 0.69314 0.0
C820 C 0.27278 0.44293 0.6976 0.0
C821 C 0.31052 0.44709 0.63033 0.0
H822 H 0.36159 0.51166 0.6616 0.0
C823 C 0.40775 0.50526 0.56888 0.0
C824 C 0.43396 0.51601 0.583 0.0
C825 C 0.38225 0.49508 0.58339 0.0
C826 C 0.34772 0.49348 0.65272 0.0
H827 H 0.20595 0.41153 0.65122 0.0
H828 H 0.25029 0.43684 0.63033 0.0
H829 H 0.31662 0.49081 0.68522 0.0
H830 H 0.45382 0.52527 0.62355 0.0
H831 H 0.40925 0.50714 0.64905 0.0
H832 H 0.34141 0.44936 0.5981 0.0
C833 C 0.24991 0.43464 0.65251 0.0
C834 C 0.32189 0.48154 0.66628 0.0
C835 C 0.22438 0.42022 0.66452 0.0
C836 C 0.43394 0.51708 0.61208 0.0
C837 C 0.40834 0.50677 0.62668 0.0
C838 C 0.33622 0.45892 0.61689 0.0
C839 C 0.27477 0.44556 0.66871 0.0
C840 C 0.30276 0.45831 0.65507 0.0
C841 C 0.38219 0.4952 0.6125 0.0
C842 C 0.35511 0.48246 0.62765 0.0
H843 H 0.24659 0.42568 0.73178 0.0
H844 H 0.29147 0.45104 0.71074 0.0
H845 H 0.2968 0.42885 0.6214 0.0
H846 H 0.40697 0.50437 0.54648 0.0
H847 H 0.36252 0.48696 0.57167 0.0
C848 C 0.75737 0.762 0.92555 0.0
C849 C 0.75598 0.76483 0.89684 0.0
C850 C 0.77385 0.74627 0.9365 0.0
C851 C 0.81232 0.69487 0.91744 0.0
H852 H 0.85842 0.72372 0.98256 0.0
C853 C 0.91259 0.66175 0.95124 0.0
C854 C 0.91603 0.65837 0.9796 0.0
C855 C 0.89039 0.67209 0.94188 0.0
C856 C 0.84541 0.71522 0.96458 0.0
H857 H 0.76971 0.75225 0.85708 0.0
H858 H 0.79921 0.72568 0.87613 0.0
H859 H 0.82422 0.74642 0.96496 0.0
H860 H 0.89882 0.66292 0.02037 0.0
H861 H 0.86005 0.68109 1.004 0.0
H862 H 0.83441 0.66415 0.91667 0.0
C863 C 0.78731 0.7353 0.89026 0.0
C864 C 0.82571 0.72818 0.95451 0.0
C865 C 0.77068 0.75085 0.87932 0.0
C866 C 0.89655 0.66513 0.99837 0.0
C867 C 0.87453 0.67572 0.98904 0.0
C868 C 0.83223 0.68204 0.9274 0.0
C869 C 0.78947 0.73312 0.91902 0.0
C870 C 0.80907 0.7183 0.93067 0.0
C871 C 0.87137 0.67951 0.96072 0.0
C872 C 0.84913 0.6922 0.95094 0.0
H873 H 0.74651 0.77261 0.93968 0.0
H874 H 0.77463 0.74471 0.95873 0.0
H875 H 0.79954 0.68644 0.89933 0.0
H876 H 0.92718 0.65652 0.9363 0.0
H877 H 0.88862 0.67498 0.91996 0.0
C878 C 0.38017 0.8095 0.18968 0.0
C879 C 0.39757 0.79278 0.19685 0.0
C880 C 0.39195 0.83343 0.17651 0.0
C881 C 0.45493 0.86792 0.13471 0.0
H882 H 0.4323 0.93166 0.15626 0.0
C883 C 0.5189 0.97085 0.09889 0.0
C884 C 0.50443 0.99033 0.09355 0.0
C885 C 0.50443 0.94675 0.11021 0.0
C886 C 0.4386 0.91401 0.14962 0.0
H887 H 0.44122 0.78841 0.19533 0.0
H888 H 0.46172 0.83003 0.17263 0.0
H889 H 0.41018 0.89008 0.17856 0.0
H890 H 0.46302 0.99946 0.0956 0.0
H891 H 0.43739 0.95703 0.11508 0.0
H892 H 0.48319 0.8916 0.10571 0.0
C893 C 0.43886 0.82459 0.17707 0.0
C894 C 0.42591 0.89008 0.16251 0.0
C895 C 0.42713 0.80077 0.1904 0.0
C896 C 0.47482 0.98489 0.09951 0.0
C897 C 0.46021 0.9606 0.11087 0.0
C898 C 0.46748 0.89175 0.12174 0.0
C899 C 0.42147 0.84131 0.16988 0.0
C900 C 0.43414 0.86673 0.15548 0.0
C901 C 0.47485 0.94115 0.11649 0.0
C902 C 0.45985 0.91531 0.12921 0.0
H903 H 0.35739 0.8042 0.1945 0.0
H904 H 0.37779 0.8456 0.17117 0.0
H905 H 0.46143 0.85032 0.12824 0.0
H906 H 0.54173 0.97436 0.09466 0.0
H907 H 0.51674 0.93271 0.11461 0.0
C908 C 0.14796 0.3251 0.65711 0.0
C909 C 0.15075 0.32722 0.68609 0.0
C910 C 0.13682 0.30037 0.64352 0.0
C911 C 0.09439 0.23085 0.65655 0.0
H912 H 0.12314 0.21558 0.58463 0.0
C913 C 0.06515 0.12505 0.60585 0.0
C914 C 0.05772 0.12251 0.57757 0.0
C915 C 0.07667 0.15007 0.61861 0.0
C916 C 0.11469 0.2196 0.60461 0.0
H917 H 0.14474 0.3047 0.72338 0.0
H918 H 0.126 0.2617 0.69985 0.0
H919 H 0.14307 0.25875 0.60773 0.0
H920 H 0.05705 0.14454 0.54052 0.0
H921 H 0.07744 0.18816 0.56276 0.0
H922 H 0.06639 0.19149 0.65357 0.0
C923 C 0.13158 0.27916 0.68751 0.0
C924 C 0.12607 0.24445 0.61788 0.0
C925 C 0.14246 0.30389 0.70108 0.0
C926 C 0.06251 0.14569 0.56232 0.0
C927 C 0.07434 0.17073 0.57505 0.0
C928 C 0.08323 0.20596 0.6434 0.0
C929 C 0.12836 0.27698 0.65851 0.0
C930 C 0.11614 0.25048 0.64411 0.0
C931 C 0.08136 0.17327 0.60343 0.0
C932 C 0.09324 0.19995 0.61727 0.0
H933 H 0.15382 0.34268 0.64492 0.0
H934 H 0.13433 0.29972 0.62125 0.0
H935 H 0.08561 0.23476 0.67639 0.0
H936 H 0.06176 0.1077 0.61829 0.0
H937 H 0.08212 0.15123 0.64041 0.0
C938 C 0.75918 0.33486 0.50347 0.0
C939 C 0.75413 0.30902 0.49234 0.0
C940 C 0.73644 0.34366 0.51473 0.0
C941 C 0.65809 0.33134 0.5096 0.0
H942 H 0.67018 0.38215 0.57162 0.0
C943 C 0.57555 0.39036 0.53536 0.0
C944 C 0.58852 0.41774 0.5353 0.0
C945 C 0.59259 0.37255 0.53768 0.0
C946 C 0.6664 0.36778 0.55445 0.0
H947 H 0.72232 0.27169 0.48443 0.0
H948 H 0.68223 0.28702 0.50421 0.0
H949 H 0.70684 0.35873 0.56064 0.0
H950 H 0.62879 0.44822 0.53966 0.0
H951 H 0.65854 0.41729 0.54377 0.0
H952 H 0.61824 0.34121 0.5027 0.0
C953 C 0.70357 0.30059 0.50411 0.0
C954 C 0.6874 0.35449 0.54808 0.0
C955 C 0.72638 0.29183 0.49284 0.0
C956 C 0.61841 0.42714 0.53941 0.0
C957 C 0.63535 0.40944 0.54204 0.0
C958 C 0.63705 0.34457 0.51604 0.0
C959 C 0.70834 0.32668 0.51503 0.0
C960 C 0.68397 0.33694 0.52491 0.0
C961 C 0.62274 0.38196 0.54036 0.0
C962 C 0.64155 0.36369 0.53784 0.0
H963 H 0.78061 0.34829 0.50323 0.0
H964 H 0.74073 0.36401 0.52248 0.0
H965 H 0.65486 0.31807 0.49153 0.0
H966 H 0.55249 0.38273 0.5322 0.0
H967 H 0.58236 0.35146 0.53643 0.0
loop_
_geom_bond_atom_site_label_1
_geom_bond_atom_site_label_2
_geom_bond_distance
_geom_bond_site_symmetry_2
_ccdc_geom_bond_type
H0 C3 0.929 . S
H1 C6 0.929 . S
H2 C8 0.930 . S
C3 H0 0.929 . S
C3 C4 1.398 . S
C3 C5 1.396 . S
C4 C3 1.398 . S
C4 C8 1.407 . S
C5 C3 1.396 . S
C5 C6 1.394 . S
C6 H1 0.929 . S
C6 C5 1.394 . S
C6 C7 1.382 . S
C7 C6 1.382 . S
C7 C8 1.392 . S
C7 N9 1.420 . S
C8 H2 0.930 . S
C8 C4 1.407 . S
C8 C7 1.392 . S
N9 C7 1.420 . S
N9 C10 1.244 . S
C10 N9 1.244 . S
H11 C14 0.929 . S
H12 C17 0.929 . S
H13 C19 0.930 . S
C14 H11 0.929 . S
C14 C15 1.398 . S
C14 C16 1.396 . S
C15 C14 1.398 . S
C15 C19 1.407 . S
C16 C14 1.396 . S
C16 C17 1.394 . S
C17 H12 0.929 . S
C17 C16 1.394 . S
C17 C18 1.382 . S
C18 C17 1.382 . S
C18 C19 1.392 . S
C18 N20 1.420 . S
C19 H13 0.930 . S
C19 C15 1.407 . S
C19 C18 1.392 . S
N20 C18 1.420 . S
N20 C21 1.244 . S
C21 N20 1.244 . S
H22 C25 0.929 . S
H23 C28 0.929 . S
H24 C30 0.930 . S
C25 H22 0.929 . S
C25 C26 1.398 . S
C25 C27 1.396 . S
C26 C25 1.398 . S
C26 C30 1.407 . S
C27 C25 1.396 . S
C27 C28 1.394 . S
C28 H23 0.929 . S
C28 C27 1.394 . S
C28 C29 1.382 . S
C29 C28 1.382 . S
C29 C30 1.392 . S
C29 N31 1.420 . S
C30 H24 0.930 . S
C30 C26 1.407 . S
C30 C29 1.392 . S
N31 C29 1.420 . S
N31 C32 1.244 . S
C32 N31 1.244 . S
H33 C36 0.929 . S
H34 C39 0.929 . S
H35 C41 0.930 . S
C36 H33 0.929 . S
C36 C37 1.398 . S
C36 C38 1.396 . S
C37 C36 1.398 . S
C37 C41 1.407 . S
C38 C36 1.396 . S
C38 C39 1.394 . S
C39 H34 0.929 . S
C39 C38 1.394 . S
C39 C40 1.382 . S
C40 C39 1.382 . S
C40 C41 1.392 . S
C40 N42 1.420 . S
C41 H35 0.930 . S
C41 C37 1.407 . S
C41 C40 1.392 . S
N42 C40 1.420 . S
N42 C43 1.244 . S
C43 N42 1.244 . S
H44 C47 0.929 . S
H45 C50 0.929 . S
H46 C52 0.930 . S
C47 H44 0.929 . S
C47 C48 1.398 . S
C47 C49 1.396 . S
C48 C47 1.398 . S
C48 C52 1.407 . S
C49 C47 1.396 . S
C49 C50 1.394 . S
C50 H45 0.929 . S
C50 C49 1.394 . S
C50 C51 1.382 . S
C51 C50 1.382 . S
C51 C52 1.392 . S
C51 N53 1.420 . S
C52 H46 0.930 . S
C52 C48 1.407 . S
C52 C51 1.392 . S
N53 C51 1.420 . S
N53 C54 1.244 . S
C54 N53 1.244 . S
H55 C58 0.929 . S
H56 C61 0.929 . S
H57 C63 0.930 . S
C58 H55 0.929 . S
C58 C59 1.398 . S
C58 C60 1.396 . S
C59 C58 1.398 . S
C59 C63 1.407 . S
C60 C58 1.396 . S
C60 C61 1.394 . S
C61 H56 0.929 . S
C61 C60 1.394 . S
C61 C62 1.382 . S
C62 C61 1.382 . S
C62 C63 1.392 . S
C62 N64 1.420 . S
C63 H57 0.930 . S
C63 C59 1.407 . S
C63 C62 1.392 . S
N64 C62 1.420 . S
N64 C65 1.244 . S
C65 N64 1.244 . S
H66 C69 0.929 . S
H67 C72 0.929 . S
H68 C74 0.930 . S
C69 H66 0.929 . S
C69 C70 1.398 . S
C69 C71 1.396 . S
C70 C69 1.398 . S
C70 C74 1.407 . S
C71 C69 1.396 . S
C71 C72 1.394 . S
C72 H67 0.929 . S
C72 C71 1.394 . S
C72 C73 1.382 . S
C73 C72 1.382 . S
C73 C74 1.392 . S
C73 N75 1.420 . S
C74 H68 0.930 . S
C74 C70 1.407 . S
C74 C73 1.392 . S
N75 C73 1.420 . S
N75 C76 1.244 . S
C76 N75 1.244 . S
H77 C80 0.929 . S
H78 C83 0.929 . S
H79 C85 0.930 . S
C80 H77 0.929 . S
C80 C81 1.398 . S
C80 C82 1.396 . S
C81 C80 1.398 . S
C81 C85 1.407 . S
C82 C80 1.396 . S
C82 C83 1.394 . S
C83 H78 0.929 . S
C83 C82 1.394 . S
C83 C84 1.382 . S
C84 C83 1.382 . S
C84 C85 1.392 . S
C84 N86 1.420 . S
C85 H79 0.930 . S
C85 C81 1.407 . S
C85 C84 1.392 . S
N86 C84 1.420 . S
N86 C87 1.244 . S
C87 N86 1.244 . S
Ho88 C91 2.811 . S
Ho88 O108 2.322 . S
Ho88 O110 2.378 . S
Ho88 O111 2.524 . S
Ho88 O112 2.381 . S
Ho88 O113 2.669 . S
Ho88 O115 2.346 1_545 S
Ho88 O119 2.305 1_455 S
Ho89 C100 2.811 1_545 S
Ho89 O109 2.346 1_655 S
Ho89 O113 2.305 1_655 S
Ho89 O114 2.322 1_545 S
Ho89 O116 2.368 1_545 S
Ho89 O117 2.524 1_545 S
Ho89 O118 2.381 . S
Ho89 O119 2.669 . S
C90 O108 1.259 . S
C90 O109 1.268 . S
C91 Ho88 2.811 . S
C91 C92 1.488 . S
C91 O110 1.215 . S
C91 O111 1.289 . S
C92 C91 1.488 . S
C92 C93 1.348 . S
C92 C97 1.413 . S
C93 C92 1.348 . S
C93 C94 1.442 . S
C93 H120 0.930 . S
C94 C93 1.442 . S
C94 C95 1.381 . S
C94 H121 0.931 . S
C95 C94 1.381 . S
C95 C96 1.321 . S
C96 C95 1.321 . S
C96 C97 1.403 . S
C96 H122 0.934 . S
C97 C92 1.413 . S
C97 C96 1.403 . S
C97 H123 0.930 . S
C98 O112 1.275 . S
C98 O113 1.256 . S
C99 O114 1.259 . S
C99 O115 1.268 1_655 S
C100 Ho89 2.811 1_565 S
C100 C101 1.488 . S
C100 O116 1.244 . S
C100 O117 1.289 . S
C101 C100 1.488 . S
C101 C102 1.348 . S
C101 C106 1.413 . S
C102 C101 1.348 . S
C102 C103 1.442 . S
C102 H124 0.930 . S
C103 C102 1.442 . S
C103 C104 1.381 . S
C103 H125 0.931 . S
C104 C103 1.381 . S
C104 C105 1.321 . S
C105 C104 1.321 . S
C105 C106 1.403 . S
C105 H126 0.934 . S
C106 C101 1.413 . S
C106 C105 1.403 . S
C106 H127 0.930 . S
C107 O118 1.275 . S
C107 O119 1.256 . S
O108 Ho88 2.322 . S
O108 C90 1.259 . S
O109 Ho89 2.346 1_455 S
O109 C90 1.268 . S
O110 Ho88 2.378 . S
O110 C91 1.215 . S
O111 Ho88 2.524 . S
O111 C91 1.289 . S
O112 Ho88 2.381 . S
O112 C98 1.275 . S
O113 Ho88 2.669 . S
O113 Ho89 2.305 1_455 S
O113 C98 1.256 . S
O114 Ho89 2.322 1_565 S
O114 C99 1.259 . S
O115 Ho88 2.346 1_565 S
O115 C99 1.268 1_455 S
O116 Ho89 2.368 1_565 S
O116 C100 1.244 . S
O117 Ho89 2.524 1_565 S
O117 C100 1.289 . S
O118 Ho89 2.381 . S
O118 C107 1.275 . S
O119 Ho88 2.305 1_655 S
O119 Ho89 2.669 . S
O119 C107 1.256 . S
H120 C93 0.930 . S
H121 C94 0.931 . S
H122 C96 0.934 . S
H123 C97 0.930 . S
H124 C102 0.930 . S
H125 C103 0.931 . S
H126 C105 0.934 . S
H127 C106 0.930 . S
Ho128 C131 2.811 . S
Ho128 O148 2.322 . S
Ho128 O150 2.378 . S
Ho128 O151 2.524 . S
Ho128 O152 2.381 1_545 S
Ho128 O153 2.669 . S
Ho128 O155 2.346 . S
Ho128 O159 2.305 . S
Ho129 C140 2.811 1_544 S
Ho129 O149 2.346 . S
Ho129 O153 2.305 . S
Ho129 O154 2.322 . S
Ho129 O156 2.378 1_554 S
Ho129 O157 2.524 1_544 S
Ho129 O158 2.392 . S
Ho129 O159 2.669 . S
C130 O148 1.259 . S
C130 O149 1.268 . S
C131 Ho128 2.811 . S
C131 C132 1.488 . S
C131 O150 1.215 . S
C131 O151 1.289 . S
C132 C131 1.488 . S
C132 C133 1.348 . S
C132 C137 1.413 . S
C133 C132 1.348 . S
C133 C134 1.442 . S
C133 H160 0.930 . S
C134 C133 1.442 . S
C134 C135 1.381 . S
C134 H161 0.931 . S
C135 C134 1.381 . S
C135 C136 1.321 . S
C136 C135 1.321 . S
C136 C137 1.403 . S
C136 H162 0.934 . S
C137 C132 1.413 . S
C137 C136 1.403 . S
C137 H163 0.930 . S
C138 O152 1.275 . S
C138 O153 1.256 1_565 S
C139 O154 1.258 1_565 S
C139 O155 1.268 1_565 S
C140 Ho129 2.811 1_566 S
C140 C141 1.488 . S
C140 O156 1.215 1_565 S
C140 O157 1.289 . S
C141 C140 1.488 . S
C141 C142 1.348 . S
C141 C146 1.413 . S
C142 C141 1.348 . S
C142 C143 1.442 . S
C142 H164 0.930 . S
C143 C142 1.442 . S
C143 C144 1.381 . S
C143 H165 0.931 . S
C144 C143 1.381 . S
C144 C145 1.321 . S
C145 C144 1.321 . S
C145 C146 1.403 . S
C145 H166 0.934 . S
C146 C141 1.413 . S
C146 C145 1.403 . S
C146 H167 0.930 1_565 S
C147 O158 1.293 . S
C147 O159 1.256 . S
O148 Ho128 2.322 . S
O148 C130 1.259 . S
O149 Ho129 2.346 . S
O149 C130 1.268 . S
O150 Ho128 2.378 . S
O150 C131 1.215 . S
O151 Ho128 2.524 . S
O151 C131 1.289 . S
O152 Ho128 2.381 1_565 S
O152 C138 1.275 . S
O153 Ho128 2.669 . S
O153 Ho129 2.305 . S
O153 C138 1.256 1_545 S
O154 Ho129 2.322 . S
O154 C139 1.258 1_545 S
O155 Ho128 2.346 . S
O155 C139 1.268 1_545 S
O156 Ho129 2.378 1_556 S
O156 C140 1.215 1_545 S
O157 Ho129 2.524 1_566 S
O157 C140 1.289 . S
O158 Ho129 2.392 . S
O158 C147 1.293 . S
O159 Ho128 2.305 . S
O159 Ho129 2.669 . S
O159 C147 1.256 . S
H160 C133 0.930 . S
H161 C134 0.931 . S
H162 C136 0.934 . S
H163 C137 0.930 . S
H164 C142 0.930 . S
H165 C143 0.931 . S
H166 C145 0.934 . S
H167 C146 0.930 1_545 S
Ho168 C171 2.811 . S
Ho168 O188 2.322 . S
Ho168 O190 2.378 . S
Ho168 O191 2.524 . S
Ho168 O192 2.381 . S
Ho168 O193 2.669 . S
Ho168 O195 2.346 . S
Ho168 O199 2.305 . S
Ho169 C180 2.811 . S
Ho169 O189 2.346 . S
Ho169 O193 2.305 . S
Ho169 O194 2.322 . S
Ho169 O196 2.378 . S
Ho169 O197 2.524 . S
Ho169 O198 2.381 . S
Ho169 O199 2.669 . S
C170 O188 1.259 . S
C170 O189 1.268 . S
C171 Ho168 2.811 . S
C171 C172 1.488 . S
C171 O190 1.215 . S
C171 O191 1.289 . S
C172 C171 1.488 . S
C172 C173 1.348 . S
C172 C177 1.413 . S
C173 C172 1.348 . S
C173 C174 1.442 . S
C173 H200 0.930 . S
C174 C173 1.442 . S
C174 C175 1.381 . S
C174 H201 0.931 . S
C175 C174 1.381 . S
C175 C176 1.321 . S
C176 C175 1.321 . S
C176 C177 1.403 . S
C176 H202 0.934 . S
C177 C172 1.413 . S
C177 C176 1.403 . S
C177 H203 0.930 . S
C178 O192 1.275 . S
C178 O193 1.256 . S
C179 O194 1.259 . S
C179 O195 1.268 . S
C180 Ho169 2.811 . S
C180 C181 1.488 . S
C180 O196 1.215 . S
C180 O197 1.289 . S
C181 C180 1.488 . S
C181 C182 1.348 . S
C181 C186 1.413 . S
C182 C181 1.348 . S
C182 C183 1.442 . S
C182 H204 0.930 . S
C183 C182 1.442 . S
C183 C184 1.381 . S
C183 H205 0.931 . S
C184 C183 1.381 . S
C184 C185 1.321 . S
C185 C184 1.321 . S
C185 C186 1.403 . S
C185 H206 0.934 . S
C186 C181 1.413 . S
C186 C185 1.403 . S
C186 H207 0.930 . S
C187 O198 1.275 . S
C187 O199 1.256 . S
O188 Ho168 2.322 . S
O188 C170 1.259 . S
O189 Ho169 2.346 . S
O189 C170 1.268 . S
O190 Ho168 2.378 . S
O190 C171 1.215 . S
O191 Ho168 2.524 . S
O191 C171 1.289 . S
O192 Ho168 2.381 . S
O192 C178 1.275 . S
O193 Ho168 2.669 . S
O193 Ho169 2.305 . S
O193 C178 1.256 . S
O194 Ho169 2.322 . S
O194 C179 1.259 . S
O195 Ho168 2.346 . S
O195 C179 1.268 . S
O196 Ho169 2.378 . S
O196 C180 1.215 . S
O197 Ho169 2.524 . S
O197 C180 1.289 . S
O198 Ho169 2.381 . S
O198 C187 1.275 . S
O199 Ho168 2.305 . S
O199 Ho169 2.669 . S
O199 C187 1.256 . S
H200 C173 0.930 . S
H201 C174 0.931 . S
H202 C176 0.934 . S
H203 C177 0.930 . S
H204 C182 0.930 . S
H205 C183 0.931 . S
H206 C185 0.934 . S
H207 C186 0.930 . S
Ho208 C211 2.811 . S
Ho208 O228 2.322 . S
Ho208 O230 2.378 . S
Ho208 O231 2.524 . S
Ho208 O232 2.381 . S
Ho208 O233 2.669 . S
Ho208 O235 2.346 1_455 S
Ho208 O239 2.305 1_554 S
Ho209 C220 2.811 1_455 S
Ho209 O229 2.346 1_556 S
Ho209 O233 2.305 1_556 S
Ho209 O234 2.322 1_455 S
Ho209 O236 2.378 . S
Ho209 O237 2.524 1_455 S
Ho209 O238 2.381 . S
Ho209 O239 2.669 . S
C210 O228 1.259 . S
C210 O229 1.268 . S
C211 Ho208 2.811 . S
C211 C212 1.488 . S
C211 O230 1.215 . S
C211 O231 1.289 . S
C212 C211 1.488 . S
C212 C213 1.348 . S
C212 C217 1.413 . S
C213 C212 1.348 . S
C213 C214 1.442 . S
C213 H240 0.930 . S
C214 C213 1.442 . S
C214 C215 1.381 . S
C214 H241 0.931 . S
C215 C214 1.381 . S
C215 C216 1.321 . S
C216 C215 1.321 . S
C216 C217 1.403 . S
C216 H242 0.934 . S
C217 C212 1.413 . S
C217 C216 1.403 . S
C217 H243 0.930 . S
C218 O232 1.275 . S
C218 O233 1.256 . S
C219 O234 1.259 . S
C219 O235 1.268 1_556 S
C220 Ho209 2.811 1_655 S
C220 C221 1.488 . S
C220 O236 1.215 1_655 S
C220 O237 1.289 . S
C221 C220 1.488 . S
C221 C222 1.348 . S
C221 C226 1.413 . S
C222 C221 1.348 . S
C222 C223 1.442 . S
C222 H244 0.930 . S
C223 C222 1.442 . S
C223 C224 1.381 . S
C223 H245 0.931 . S
C224 C223 1.381 . S
C224 C225 1.321 . S
C225 C224 1.321 . S
C225 C226 1.403 . S
C225 H246 0.934 . S
C226 C221 1.413 . S
C226 C225 1.403 . S
C226 H247 0.930 . S
C227 O238 1.275 . S
C227 O239 1.256 . S
O228 Ho208 2.322 . S
O228 C210 1.259 . S
O229 Ho209 2.346 1_554 S
O229 C210 1.268 . S
O230 Ho208 2.378 . S
O230 C211 1.215 . S
O231 Ho208 2.524 . S
O231 C211 1.289 . S
O232 Ho208 2.381 . S
O232 C218 1.275 . S
O233 Ho208 2.669 . S
O233 Ho209 2.305 1_554 S
O233 C218 1.256 . S
O234 Ho209 2.322 1_655 S
O234 C219 1.259 . S
O235 Ho208 2.346 1_655 S
O235 C219 1.268 1_554 S
O236 Ho209 2.378 . S
O236 C220 1.215 1_455 S
O237 Ho209 2.524 1_655 S
O237 C220 1.289 . S
O238 Ho209 2.381 . S
O238 C227 1.275 . S
O239 Ho208 2.305 1_556 S
O239 Ho209 2.669 . S
O239 C227 1.256 . S
H240 C213 0.930 . S
H241 C214 0.931 . S
H242 C216 0.934 . S
H243 C217 0.930 . S
H244 C222 0.930 . S
H245 C223 0.931 . S
H246 C225 0.934 . S
H247 C226 0.930 . S
C248 C249 1.349 . S
C248 C250 1.327 . S
C248 H273 0.950 . S
C249 C248 1.349 . S
C249 C265 1.349 . S
C250 C248 1.327 . S
C250 C269 1.429 . S
C250 H274 0.950 . S
C251 C268 1.574 . S
C251 C270 1.368 . S
C251 H275 0.949 . S
H252 C256 0.949 . S
C253 C254 1.349 . S
C253 C255 1.327 . S
C253 H276 0.950 . S
C254 C253 1.349 . S
C254 C266 1.349 . S
C255 C253 1.327 . S
C255 C271 1.429 . S
C255 H277 0.950 . S
C256 H252 0.949 . S
C256 C264 1.574 . S
C256 C272 1.368 . S
H257 C265 0.950 . S
H258 C263 0.950 . S
H259 C264 0.949 . S
H260 C266 0.950 . S
H261 C267 0.950 . S
H262 C268 0.949 . S
C263 H258 0.950 . S
C263 C265 1.327 . S
C263 C269 1.429 . S
C264 C256 1.574 . S
C264 H259 0.949 . S
C264 C270 1.368 . S
C265 C249 1.349 . S
C265 H257 0.950 . S
C265 C263 1.327 . S
C266 C254 1.349 . S
C266 H260 0.950 . S
C266 C267 1.327 . S
C267 H261 0.950 . S
C267 C266 1.327 . S
C267 C271 1.429 . S
C268 C251 1.574 . S
C268 H262 0.949 . S
C268 C272 1.368 . S
C269 C250 1.429 . S
C269 C263 1.429 . S
C269 C270 1.523 . S
C270 C251 1.368 . S
C270 C264 1.368 . S
C270 C269 1.523 . S
C271 C255 1.429 . S
C271 C267 1.429 . S
C271 C272 1.523 . S
C272 C256 1.368 . S
C272 C268 1.368 . S
C272 C271 1.523 . S
H273 C248 0.950 . S
H274 C250 0.950 . S
H275 C251 0.949 . S
H276 C253 0.950 . S
H277 C255 0.950 . S
C278 C279 1.349 . S
C278 C280 1.327 . S
C278 H303 0.950 . S
C279 C278 1.349 . S
C279 C295 1.349 . S
C280 C278 1.327 . S
C280 C299 1.429 . S
C280 H304 0.950 . S
C281 C298 1.574 . S
C281 C300 1.368 . S
C281 H305 0.949 . S
H282 C286 0.949 . S
C283 C284 1.349 . S
C283 C285 1.327 . S
C283 H306 0.950 . S
C284 C283 1.349 . S
C284 C296 1.349 . S
C285 C283 1.327 . S
C285 C301 1.429 . S
C285 H307 0.950 . S
C286 H282 0.949 . S
C286 C294 1.574 . S
C286 C302 1.368 . S
H287 C295 0.950 . S
H288 C293 0.950 . S
H289 C294 0.949 . S
H290 C296 0.950 . S
H291 C297 0.950 . S
H292 C298 0.949 . S
C293 H288 0.950 . S
C293 C295 1.327 . S
C293 C299 1.429 . S
C294 C286 1.574 . S
C294 H289 0.949 . S
C294 C300 1.368 . S
C295 C279 1.349 . S
C295 H287 0.950 . S
C295 C293 1.327 . S
C296 C284 1.349 . S
C296 H290 0.950 . S
C296 C297 1.327 . S
C297 H291 0.950 . S
C297 C296 1.327 . S
C297 C301 1.429 . S
C298 C281 1.574 . S
C298 H292 0.949 . S
C298 C302 1.368 . S
C299 C280 1.429 . S
C299 C293 1.429 . S
C299 C300 1.523 . S
C300 C281 1.368 . S
C300 C294 1.368 . S
C300 C299 1.523 . S
C301 C285 1.429 . S
C301 C297 1.429 . S
C301 C302 1.523 . S
C302 C286 1.368 . S
C302 C298 1.368 . S
C302 C301 1.523 . S
H303 C278 0.950 . S
H304 C280 0.950 . S
H305 C281 0.949 . S
H306 C283 0.950 . S
H307 C285 0.950 . S
C308 C309 1.349 . S
C308 C310 1.327 . S
C308 H333 0.950 . S
C309 C308 1.349 . S
C309 C325 1.349 . S
C310 C308 1.327 . S
C310 C329 1.429 . S
C310 H334 0.950 . S
C311 C328 1.574 . S
C311 C330 1.368 . S
C311 H335 0.949 . S
H312 C316 0.949 . S
C313 C314 1.349 . S
C313 C315 1.327 . S
C313 H336 0.950 . S
C314 C313 1.349 . S
C314 C326 1.349 . S
C315 C313 1.327 . S
C315 C331 1.429 . S
C315 H337 0.950 . S
C316 H312 0.949 . S
C316 C324 1.574 . S
C316 C332 1.368 . S
H317 C325 0.950 . S
H318 C323 0.950 . S
H319 C324 0.949 . S
H320 C326 0.950 . S
H321 C327 0.950 . S
H322 C328 0.949 . S
C323 H318 0.950 . S
C323 C325 1.327 . S
C323 C329 1.429 . S
C324 C316 1.574 . S
C324 H319 0.949 . S
C324 C330 1.368 . S
C325 C309 1.349 . S
C325 H317 0.950 . S
C325 C323 1.327 . S
C326 C314 1.349 . S
C326 H320 0.950 . S
C326 C327 1.327 . S
C327 H321 0.950 . S
C327 C326 1.327 . S
C327 C331 1.429 . S
C328 C311 1.574 . S
C328 H322 0.949 . S
C328 C332 1.368 . S
C329 C310 1.429 . S
C329 C323 1.429 . S
C329 C330 1.523 . S
C330 C311 1.368 . S
C330 C324 1.368 . S
C330 C329 1.523 . S
C331 C315 1.429 . S
C331 C327 1.429 . S
C331 C332 1.523 . S
C332 C316 1.368 . S
C332 C328 1.368 . S
C332 C331 1.523 . S
H333 C308 0.950 . S
H334 C310 0.950 . S
H335 C311 0.949 . S
H336 C313 0.950 . S
H337 C315 0.950 . S
C338 C339 1.349 . S
C338 C340 1.327 . S
C338 H363 0.950 . S
C339 C338 1.349 . S
C339 C355 1.349 . S
C340 C338 1.327 . S
C340 C359 1.429 . S
C340 H364 0.950 . S
C341 C358 1.574 . S
C341 C360 1.368 . S
C341 H365 0.949 . S
H342 C346 0.949 . S
C343 C344 1.349 . S
C343 C345 1.327 . S
C343 H366 0.950 . S
C344 C343 1.349 . S
C344 C356 1.349 . S
C345 C343 1.327 . S
C345 C361 1.429 . S
C345 H367 0.950 . S
C346 H342 0.949 . S
C346 C354 1.574 . S
C346 C362 1.368 . S
H347 C355 0.950 . S
H348 C353 0.950 . S
H349 C354 0.949 . S
H350 C356 0.950 . S
H351 C357 0.950 . S
H352 C358 0.949 . S
C353 H348 0.950 . S
C353 C355 1.327 . S
C353 C359 1.429 . S
C354 C346 1.574 . S
C354 H349 0.949 . S
C354 C360 1.368 . S
C355 C339 1.349 . S
C355 H347 0.950 . S
C355 C353 1.327 . S
C356 C344 1.349 . S
C356 H350 0.950 . S
C356 C357 1.327 . S
C357 H351 0.950 . S
C357 C356 1.327 . S
C357 C361 1.429 . S
C358 C341 1.574 . S
C358 H352 0.949 . S
C358 C362 1.368 . S
C359 C340 1.429 . S
C359 C353 1.429 . S
C359 C360 1.523 . S
C360 C341 1.368 . S
C360 C354 1.368 . S
C360 C359 1.523 . S
C361 C345 1.429 . S
C361 C357 1.429 . S
C361 C362 1.523 . S
C362 C346 1.368 . S
C362 C358 1.368 . S
C362 C361 1.523 . S
H363 C338 0.950 . S
H364 C340 0.950 . S
H365 C341 0.949 . S
H366 C343 0.950 . S
H367 C345 0.950 . S
C368 C369 1.349 . S
C368 C370 1.327 . S
C368 H393 0.950 . S
C369 C368 1.349 . S
C369 C385 1.349 . S
C370 C368 1.327 . S
C370 C389 1.429 . S
C370 H394 0.950 . S
C371 C388 1.574 . S
C371 C390 1.368 . S
C371 H395 0.949 . S
H372 C376 0.949 . S
C373 C374 1.349 . S
C373 C375 1.327 . S
C373 H396 0.950 . S
C374 C373 1.349 . S
C374 C386 1.349 . S
C375 C373 1.327 . S
C375 C391 1.429 . S
C375 H397 0.950 . S
C376 H372 0.949 . S
C376 C384 1.574 . S
C376 C392 1.368 . S
H377 C385 0.950 . S
H378 C383 0.950 . S
H379 C384 0.949 . S
H380 C386 0.950 . S
H381 C387 0.950 . S
H382 C388 0.949 . S
C383 H378 0.950 . S
C383 C385 1.327 . S
C383 C389 1.429 . S
C384 C376 1.574 . S
C384 H379 0.949 . S
C384 C390 1.368 . S
C385 C369 1.349 . S
C385 H377 0.950 . S
C385 C383 1.327 . S
C386 C374 1.349 . S
C386 H380 0.950 . S
C386 C387 1.327 . S
C387 H381 0.950 . S
C387 C386 1.327 . S
C387 C391 1.429 . S
C388 C371 1.574 . S
C388 H382 0.949 . S
C388 C392 1.368 . S
C389 C370 1.429 . S
C389 C383 1.429 . S
C389 C390 1.523 . S
C390 C371 1.368 . S
C390 C384 1.368 . S
C390 C389 1.523 . S
C391 C375 1.429 . S
C391 C387 1.429 . S
C391 C392 1.523 . S
C392 C376 1.368 . S
C392 C388 1.368 . S
C392 C391 1.523 . S
H393 C368 0.950 . S
H394 C370 0.950 . S
H395 C371 0.949 . S
H396 C373 0.950 . S
H397 C375 0.950 . S
C398 C399 1.349 . S
C398 C400 1.327 . S
C398 H423 0.950 . S
C399 C398 1.349 . S
C399 C415 1.349 . S
C400 C398 1.327 . S
C400 C419 1.429 . S
C400 H424 0.950 . S
C401 C418 1.574 . S
C401 C420 1.368 . S
C401 H425 0.949 . S
H402 C406 0.949 . S
C403 C404 1.349 . S
C403 C405 1.327 . S
C403 H426 0.950 . S
C404 C403 1.349 . S
C404 C416 1.349 1_545 S
C405 C403 1.327 . S
C405 C421 1.429 1_545 S
C405 H427 0.950 . S
C406 H402 0.949 . S
C406 C414 1.574 . S
C406 C422 1.368 . S
H407 C415 0.950 . S
H408 C413 0.950 . S
H409 C414 0.949 . S
H410 C416 0.950 . S
H411 C417 0.950 . S
H412 C418 0.949 . S
C413 H408 0.950 . S
C413 C415 1.327 . S
C413 C419 1.429 . S
C414 C406 1.574 . S
C414 H409 0.949 . S
C414 C420 1.368 . S
C415 C399 1.349 . S
C415 H407 0.950 . S
C415 C413 1.327 . S
C416 C404 1.349 1_565 S
C416 H410 0.950 . S
C416 C417 1.327 . S
C417 H411 0.950 . S
C417 C416 1.327 . S
C417 C421 1.429 . S
C418 C401 1.574 . S
C418 H412 0.949 . S
C418 C422 1.368 . S
C419 C400 1.429 . S
C419 C413 1.429 . S
C419 C420 1.523 . S
C420 C401 1.368 . S
C420 C414 1.368 . S
C420 C419 1.523 . S
C421 C405 1.429 1_565 S
C421 C417 1.429 . S
C421 C422 1.523 . S
C422 C406 1.368 . S
C422 C418 1.368 . S
C422 C421 1.523 . S
H423 C398 0.950 . S
H424 C400 0.950 . S
H425 C401 0.949 . S
H426 C403 0.950 . S
H427 C405 0.950 . S
C428 C429 1.349 . S
C428 C430 1.327 . S
C428 H453 0.950 . S
C429 C428 1.349 . S
C429 C445 1.349 . S
C430 C428 1.327 . S
C430 C449 1.429 . S
C430 H454 0.950 . S
C431 C448 1.574 . S
C431 C450 1.368 . S
C431 H455 0.949 . S
H432 C436 0.949 . S
C433 C434 1.349 . S
C433 C435 1.327 . S
C433 H456 0.950 1_556 S
C434 C433 1.349 . S
C434 C446 1.349 . S
C435 C433 1.327 . S
C435 C451 1.429 . S
C435 H457 0.950 . S
C436 H432 0.949 . S
C436 C444 1.574 . S
C436 C452 1.368 . S
H437 C445 0.950 . S
H438 C443 0.950 . S
H439 C444 0.949 . S
H440 C446 0.950 . S
H441 C447 0.950 . S
H442 C448 0.949 . S
C443 H438 0.950 . S
C443 C445 1.327 . S
C443 C449 1.429 . S
C444 C436 1.574 . S
C444 H439 0.949 . S
C444 C450 1.368 . S
C445 C429 1.349 . S
C445 H437 0.950 . S
C445 C443 1.327 . S
C446 C434 1.349 . S
C446 H440 0.950 . S
C446 C447 1.327 . S
C447 H441 0.950 . S
C447 C446 1.327 . S
C447 C451 1.429 . S
C448 C431 1.574 . S
C448 H442 0.949 . S
C448 C452 1.368 . S
C449 C430 1.429 . S
C449 C443 1.429 . S
C449 C450 1.523 . S
C450 C431 1.368 . S
C450 C444 1.368 . S
C450 C449 1.523 . S
C451 C435 1.429 . S
C451 C447 1.429 . S
C451 C452 1.523 . S
C452 C436 1.368 . S
C452 C448 1.368 . S
C452 C451 1.523 . S
H453 C428 0.950 . S
H454 C430 0.950 . S
H455 C431 0.949 . S
H456 C433 0.950 1_554 S
H457 C435 0.950 . S
C458 C459 1.349 . S
C458 C460 1.327 . S
C458 H483 0.950 . S
C459 C458 1.349 . S
C459 C475 1.349 . S
C460 C458 1.327 . S
C460 C479 1.429 . S
C460 H484 0.950 . S
C461 C478 1.574 . S
C461 C480 1.368 . S
C461 H485 0.949 . S
H462 C466 0.949 . S
C463 C464 1.349 . S
C463 C465 1.327 . S
C463 H486 0.950 . S
C464 C463 1.349 . S
C464 C476 1.349 . S
C465 C463 1.327 . S
C465 C481 1.429 . S
C465 H487 0.950 . S
C466 H462 0.949 . S
C466 C474 1.574 . S
C466 C482 1.368 . S
H467 C475 0.950 . S
H468 C473 0.950 . S
H469 C474 0.949 . S
H470 C476 0.950 . S
H471 C477 0.950 . S
H472 C478 0.949 . S
C473 H468 0.950 . S
C473 C475 1.327 . S
C473 C479 1.429 . S
C474 C466 1.574 . S
C474 H469 0.949 . S
C474 C480 1.368 . S
C475 C459 1.349 . S
C475 H467 0.950 . S
C475 C473 1.327 . S
C476 C464 1.349 . S
C476 H470 0.950 . S
C476 C477 1.327 . S
C477 H471 0.950 . S
C477 C476 1.327 . S
C477 C481 1.429 . S
C478 C461 1.574 . S
C478 H472 0.949 . S
C478 C482 1.368 . S
C479 C460 1.429 . S
C479 C473 1.429 . S
C479 C480 1.523 . S
C480 C461 1.368 . S
C480 C474 1.368 . S
C480 C479 1.523 . S
C481 C465 1.429 . S
C481 C477 1.429 . S
C481 C482 1.523 . S
C482 C466 1.368 . S
C482 C478 1.368 . S
C482 C481 1.523 . S
H483 C458 0.950 . S
H484 C460 0.950 . S
H485 C461 0.949 . S
H486 C463 0.950 . S
H487 C465 0.950 . S
C488 C489 1.349 . S
C488 C490 1.327 . S
C488 H513 0.950 . S
C489 C488 1.349 . S
C489 C505 1.349 . S
C490 C488 1.327 . S
C490 C509 1.429 . S
C490 H514 0.950 . S
C491 C508 1.574 . S
C491 C510 1.368 . S
C491 H515 0.949 . S
H492 C496 0.949 . S
C493 C494 1.349 . S
C493 C495 1.327 . S
C493 H516 0.950 . S
C494 C493 1.349 . S
C494 C506 1.349 . S
C495 C493 1.327 . S
C495 C511 1.429 . S
C495 H517 0.950 . S
C496 H492 0.949 . S
C496 C504 1.574 . S
C496 C512 1.368 . S
H497 C505 0.950 . S
H498 C503 0.950 . S
H499 C504 0.949 . S
H500 C506 0.950 . S
H501 C507 0.950 . S
H502 C508 0.949 . S
C503 H498 0.950 . S
C503 C505 1.327 . S
C503 C509 1.429 . S
C504 C496 1.574 . S
C504 H499 0.949 . S
C504 C510 1.368 . S
C505 C489 1.349 . S
C505 H497 0.950 . S
C505 C503 1.327 . S
C506 C494 1.349 . S
C506 H500 0.950 . S
C506 C507 1.327 . S
C507 H501 0.950 . S
C507 C506 1.327 . S
C507 C511 1.429 . S
C508 C491 1.574 . S
C508 H502 0.949 . S
C508 C512 1.368 . S
C509 C490 1.429 . S
C509 C503 1.429 . S
C509 C510 1.523 . S
C510 C491 1.368 . S
C510 C504 1.368 . S
C510 C509 1.523 . S
C511 C495 1.429 . S
C511 C507 1.429 . S
C511 C512 1.523 . S
C512 C496 1.368 . S
C512 C508 1.368 . S
C512 C511 1.523 . S
H513 C488 0.950 . S
H514 C490 0.950 . S
H515 C491 0.949 . S
H516 C493 0.950 . S
H517 C495 0.950 . S
C518 C519 1.349 . S
C518 C520 1.327 . S
C518 H543 0.950 . S
C519 C518 1.349 . S
C519 C535 1.349 . S
C520 C518 1.327 . S
C520 C539 1.429 . S
C520 H544 0.950 . S
C521 C538 1.574 . S
C521 C540 1.368 . S
C521 H545 0.949 . S
H522 C526 0.949 . S
C523 C524 1.353 . S
C523 C525 1.327 . S
C523 H546 0.950 . S
C524 C523 1.353 . S
C524 C536 1.340 1_554 S
C525 C523 1.327 . S
C525 C541 1.429 1_554 S
C525 H547 0.950 . S
C526 H522 0.949 . S
C526 C534 1.574 . S
C526 C542 1.368 . S
H527 C535 0.950 . S
H528 C533 0.950 . S
H529 C534 0.949 . S
H530 C536 0.950 . S
H531 C537 0.950 . S
H532 C538 0.949 . S
C533 H528 0.950 . S
C533 C535 1.327 . S
C533 C539 1.429 . S
C534 C526 1.574 . S
C534 H529 0.949 . S
C534 C540 1.368 . S
C535 C519 1.349 . S
C535 H527 0.950 . S
C535 C533 1.327 . S
C536 C524 1.340 1_556 S
C536 H530 0.950 . S
C536 C537 1.327 . S
C537 H531 0.950 . S
C537 C536 1.327 . S
C537 C541 1.429 . S
C538 C521 1.574 . S
C538 H532 0.949 . S
C538 C542 1.368 . S
C539 C520 1.429 . S
C539 C533 1.429 . S
C539 C540 1.523 . S
C540 C521 1.368 . S
C540 C534 1.368 . S
C540 C539 1.523 . S
C541 C525 1.429 1_556 S
C541 C537 1.429 . S
C541 C542 1.523 . S
C542 C526 1.368 . S
C542 C538 1.368 . S
C542 C541 1.523 . S
H543 C518 0.950 . S
H544 C520 0.950 . S
H545 C521 0.949 . S
H546 C523 0.950 . S
H547 C525 0.950 . S
C548 C549 1.349 . S
C548 C550 1.327 . S
C548 H573 0.950 . S
C549 C548 1.349 . S
C549 C565 1.349 . S
C550 C548 1.327 . S
C550 C569 1.429 . S
C550 H574 0.950 . S
C551 C568 1.574 . S
C551 C570 1.368 . S
C551 H575 0.949 . S
H552 C556 0.949 . S
C553 C554 1.349 . S
C553 C555 1.327 . S
C553 H576 0.950 . S
C554 C553 1.349 . S
C554 C566 1.349 . S
C555 C553 1.327 . S
C555 C571 1.429 . S
C555 H577 0.950 . S
C556 H552 0.949 . S
C556 C564 1.574 . S
C556 C572 1.368 . S
H557 C565 0.950 . S
H558 C563 0.950 . S
H559 C564 0.949 . S
H560 C566 0.950 . S
H561 C567 0.950 . S
H562 C568 0.949 . S
C563 H558 0.950 . S
C563 C565 1.327 . S
C563 C569 1.429 . S
C564 C556 1.574 . S
C564 H559 0.949 . S
C564 C570 1.368 . S
C565 C549 1.349 . S
C565 H557 0.950 . S
C565 C563 1.327 . S
C566 C554 1.349 . S
C566 H560 0.950 . S
C566 C567 1.327 . S
C567 H561 0.950 . S
C567 C566 1.327 . S
C567 C571 1.429 . S
C568 C551 1.574 . S
C568 H562 0.949 . S
C568 C572 1.368 . S
C569 C550 1.429 . S
C569 C563 1.429 . S
C569 C570 1.523 . S
C570 C551 1.368 . S
C570 C564 1.368 . S
C570 C569 1.523 . S
C571 C555 1.429 . S
C571 C567 1.429 . S
C571 C572 1.523 . S
C572 C556 1.368 . S
C572 C568 1.368 . S
C572 C571 1.523 . S
H573 C548 0.950 . S
H574 C550 0.950 . S
H575 C551 0.949 . S
H576 C553 0.950 . S
H577 C555 0.950 . S
C578 C579 1.349 . S
C578 C580 1.327 . S
C578 H603 0.950 . S
C579 C578 1.349 . S
C579 C595 1.349 . S
C580 C578 1.327 . S
C580 C599 1.429 . S
C580 H604 0.950 . S
C581 C598 1.574 . S
C581 C600 1.368 . S
C581 H605 0.949 . S
H582 C586 0.949 . S
C583 C584 1.349 . S
C583 C585 1.327 . S
C583 H606 0.950 . S
C584 C583 1.349 . S
C584 C596 1.349 . S
C585 C583 1.327 . S
C585 C601 1.429 . S
C585 H607 0.950 . S
C586 H582 0.949 . S
C586 C594 1.574 . S
C586 C602 1.368 . S
H587 C595 0.950 . S
H588 C593 0.950 . S
H589 C594 0.949 . S
H590 C596 0.950 . S
H591 C597 0.950 . S
H592 C598 0.949 . S
C593 H588 0.950 . S
C593 C595 1.327 . S
C593 C599 1.429 . S
C594 C586 1.574 . S
C594 H589 0.949 . S
C594 C600 1.368 . S
C595 C579 1.349 . S
C595 H587 0.950 . S
C595 C593 1.327 . S
C596 C584 1.349 . S
C596 H590 0.950 . S
C596 C597 1.327 . S
C597 H591 0.950 . S
C597 C596 1.327 . S
C597 C601 1.429 . S
C598 C581 1.574 . S
C598 H592 0.949 . S
C598 C602 1.368 . S
C599 C580 1.429 . S
C599 C593 1.429 . S
C599 C600 1.523 . S
C600 C581 1.368 . S
C600 C594 1.368 . S
C600 C599 1.523 . S
C601 C585 1.429 . S
C601 C597 1.429 . S
C601 C602 1.523 . S
C602 C586 1.368 . S
C602 C598 1.368 . S
C602 C601 1.523 . S
H603 C578 0.950 . S
H604 C580 0.950 . S
H605 C581 0.949 . S
H606 C583 0.950 . S
H607 C585 0.950 . S
C608 C609 1.349 . S
C608 C610 1.327 . S
C608 H633 0.950 . S
C609 C608 1.349 . S
C609 C625 1.349 . S
C610 C608 1.327 . S
C610 C629 1.429 . S
C610 H634 0.950 . S
C611 C628 1.574 . S
C611 C630 1.368 . S
C611 H635 0.949 . S
H612 C616 0.949 . S
C613 C614 1.349 . S
C613 C615 1.327 . S
C613 H636 0.950 . S
C614 C613 1.349 . S
C614 C626 1.349 . S
C615 C613 1.327 . S
C615 C631 1.429 . S
C615 H637 0.950 . S
C616 H612 0.949 . S
C616 C624 1.574 . S
C616 C632 1.368 . S
H617 C625 0.950 . S
H618 C623 0.950 . S
H619 C624 0.949 . S
H620 C626 0.950 . S
H621 C627 0.950 . S
H622 C628 0.949 . S
C623 H618 0.950 . S
C623 C625 1.327 . S
C623 C629 1.429 . S
C624 C616 1.574 . S
C624 H619 0.949 . S
C624 C630 1.368 . S
C625 C609 1.349 . S
C625 H617 0.950 . S
C625 C623 1.327 . S
C626 C614 1.349 . S
C626 H620 0.950 . S
C626 C627 1.327 . S
C627 H621 0.950 . S
C627 C626 1.327 . S
C627 C631 1.429 . S
C628 C611 1.574 . S
C628 H622 0.949 . S
C628 C632 1.368 . S
C629 C610 1.429 . S
C629 C623 1.429 . S
C629 C630 1.523 . S
C630 C611 1.368 . S
C630 C624 1.368 . S
C630 C629 1.523 . S
C631 C615 1.429 . S
C631 C627 1.429 . S
C631 C632 1.523 . S
C632 C616 1.368 . S
C632 C628 1.368 . S
C632 C631 1.523 . S
H633 C608 0.950 . S
H634 C610 0.950 . S
H635 C611 0.949 . S
H636 C613 0.950 . S
H637 C615 0.950 . S
C638 C639 1.349 . S
C638 C640 1.327 . S
C638 H663 0.950 . S
C639 C638 1.349 . S
C639 C655 1.349 . S
C640 C638 1.327 . S
C640 C659 1.429 . S
C640 H664 0.950 . S
C641 C658 1.574 . S
C641 C660 1.368 . S
C641 H665 0.949 . S
H642 C646 0.949 . S
C643 C644 1.349 . S
C643 C645 1.327 . S
C643 H666 0.950 . S
C644 C643 1.349 . S
C644 C656 1.349 . S
C645 C643 1.327 . S
C645 C661 1.429 . S
C645 H667 0.950 . S
C646 H642 0.949 . S
C646 C654 1.574 . S
C646 C662 1.368 . S
H647 C655 0.950 . S
H648 C653 0.950 . S
H649 C654 0.949 . S
H650 C656 0.950 . S
H651 C657 0.950 . S
H652 C658 0.949 . S
C653 H648 0.950 . S
C653 C655 1.327 . S
C653 C659 1.429 . S
C654 C646 1.574 . S
C654 H649 0.949 . S
C654 C660 1.368 . S
C655 C639 1.349 . S
C655 H647 0.950 . S
C655 C653 1.327 . S
C656 C644 1.349 . S
C656 H650 0.950 . S
C656 C657 1.327 . S
C657 H651 0.950 . S
C657 C656 1.327 . S
C657 C661 1.429 . S
C658 C641 1.574 . S
C658 H652 0.949 . S
C658 C662 1.368 . S
C659 C640 1.429 . S
C659 C653 1.429 . S
C659 C660 1.523 . S
C660 C641 1.368 . S
C660 C654 1.368 . S
C660 C659 1.523 . S
C661 C645 1.429 . S
C661 C657 1.429 . S
C661 C662 1.523 . S
C662 C646 1.368 . S
C662 C658 1.368 . S
C662 C661 1.523 . S
H663 C638 0.950 . S
H664 C640 0.950 . S
H665 C641 0.949 . S
H666 C643 0.950 . S
H667 C645 0.950 . S
C668 C669 1.349 . S
C668 C670 1.327 . S
C668 H693 0.950 . S
C669 C668 1.349 . S
C669 C685 1.349 . S
C670 C668 1.327 . S
C670 C689 1.429 . S
C670 H694 0.950 . S
C671 C688 1.574 . S
C671 C690 1.368 . S
C671 H695 0.949 . S
H672 C676 0.949 . S
C673 C674 1.349 . S
C673 C675 1.327 . S
C673 H696 0.950 . S
C674 C673 1.349 . S
C674 C686 1.349 . S
C675 C673 1.327 . S
C675 C691 1.429 . S
C675 H697 0.950 . S
C676 H672 0.949 . S
C676 C684 1.574 . S
C676 C692 1.368 . S
H677 C685 0.950 . S
H678 C683 0.950 . S
H679 C684 0.949 . S
H680 C686 0.950 . S
H681 C687 0.950 . S
H682 C688 0.949 . S
C683 H678 0.950 . S
C683 C685 1.327 . S
C683 C689 1.429 . S
C684 C676 1.574 . S
C684 H679 0.949 . S
C684 C690 1.368 . S
C685 C669 1.349 . S
C685 H677 0.950 . S
C685 C683 1.327 . S
C686 C674 1.349 . S
C686 H680 0.950 . S
C686 C687 1.327 . S
C687 H681 0.950 . S
C687 C686 1.327 . S
C687 C691 1.429 . S
C688 C671 1.574 . S
C688 H682 0.949 . S
C688 C692 1.368 . S
C689 C670 1.429 . S
C689 C683 1.429 . S
C689 C690 1.523 . S
C690 C671 1.368 . S
C690 C684 1.368 . S
C690 C689 1.523 . S
C691 C675 1.429 . S
C691 C687 1.429 . S
C691 C692 1.523 . S
C692 C676 1.368 . S
C692 C688 1.368 . S
C692 C691 1.523 . S
H693 C668 0.950 . S
H694 C670 0.950 . S
H695 C671 0.949 . S
H696 C673 0.950 . S
H697 C675 0.950 . S
C698 C699 1.349 . S
C698 C700 1.327 . S
C698 H723 0.950 . S
C699 C698 1.349 . S
C699 C715 1.349 . S
C700 C698 1.327 . S
C700 C719 1.429 . S
C700 H724 0.950 . S
C701 C718 1.574 . S
C701 C720 1.368 . S
C701 H725 0.949 . S
H702 C706 0.949 . S
C703 C704 1.349 . S
C703 C705 1.327 . S
C703 H726 0.950 . S
C704 C703 1.349 . S
C704 C716 1.349 . S
C705 C703 1.327 . S
C705 C721 1.429 . S
C705 H727 0.950 . S
C706 H702 0.949 . S
C706 C714 1.574 . S
C706 C722 1.368 . S
H707 C715 0.950 . S
H708 C713 0.950 . S
H709 C714 0.949 . S
H710 C716 0.950 . S
H711 C717 0.950 . S
H712 C718 0.949 . S
C713 H708 0.950 . S
C713 C715 1.327 . S
C713 C719 1.429 . S
C714 C706 1.574 . S
C714 H709 0.949 . S
C714 C720 1.368 . S
C715 C699 1.349 . S
C715 H707 0.950 . S
C715 C713 1.327 . S
C716 C704 1.349 . S
C716 H710 0.950 . S
C716 C717 1.327 . S
C717 H711 0.950 . S
C717 C716 1.327 . S
C717 C721 1.429 . S
C718 C701 1.574 . S
C718 H712 0.949 . S
C718 C722 1.368 . S
C719 C700 1.429 . S
C719 C713 1.429 . S
C719 C720 1.523 . S
C720 C701 1.368 . S
C720 C714 1.368 . S
C720 C719 1.523 . S
C721 C705 1.429 . S
C721 C717 1.429 . S
C721 C722 1.523 . S
C722 C706 1.368 . S
C722 C718 1.368 . S
C722 C721 1.523 . S
H723 C698 0.950 . S
H724 C700 0.950 . S
H725 C701 0.949 . S
H726 C703 0.950 . S
H727 C705 0.950 . S
C728 C729 1.349 . S
C728 C730 1.327 . S
C728 H753 0.950 . S
C729 C728 1.349 . S
C729 C745 1.349 . S
C730 C728 1.327 . S
C730 C749 1.429 . S
C730 H754 0.950 . S
C731 C748 1.574 . S
C731 C750 1.368 . S
C731 H755 0.949 . S
H732 C736 0.949 . S
C733 C734 1.349 . S
C733 C735 1.327 . S
C733 H756 0.950 . S
C734 C733 1.349 . S
C734 C746 1.349 . S
C735 C733 1.327 . S
C735 C751 1.429 . S
C735 H757 0.950 . S
C736 H732 0.949 . S
C736 C744 1.574 . S
C736 C752 1.368 . S
H737 C745 0.950 . S
H738 C743 0.950 . S
H739 C744 0.949 . S
H740 C746 0.950 . S
H741 C747 0.950 . S
H742 C748 0.949 . S
C743 H738 0.950 . S
C743 C745 1.327 . S
C743 C749 1.429 . S
C744 C736 1.574 . S
C744 H739 0.949 . S
C744 C750 1.368 . S
C745 C729 1.349 . S
C745 H737 0.950 . S
C745 C743 1.327 . S
C746 C734 1.349 . S
C746 H740 0.950 . S
C746 C747 1.327 . S
C747 H741 0.950 . S
C747 C746 1.327 . S
C747 C751 1.429 . S
C748 C731 1.574 . S
C748 H742 0.949 . S
C748 C752 1.368 . S
C749 C730 1.429 . S
C749 C743 1.429 . S
C749 C750 1.523 . S
C750 C731 1.368 . S
C750 C744 1.368 . S
C750 C749 1.523 . S
C751 C735 1.429 . S
C751 C747 1.429 . S
C751 C752 1.523 . S
C752 C736 1.368 . S
C752 C748 1.368 . S
C752 C751 1.523 . S
H753 C728 0.950 . S
H754 C730 0.950 . S
H755 C731 0.949 . S
H756 C733 0.950 . S
H757 C735 0.950 . S
C758 C759 1.349 . S
C758 C760 1.327 . S
C758 H783 0.950 . S
C759 C758 1.349 . S
C759 C775 1.349 . S
C760 C758 1.327 . S
C760 C779 1.429 . S
C760 H784 0.950 . S
C761 C778 1.574 . S
C761 C780 1.368 . S
C761 H785 0.949 . S
H762 C766 0.949 . S
C763 C764 1.349 . S
C763 C765 1.327 . S
C763 H786 0.950 . S
C764 C763 1.349 . S
C764 C776 1.349 . S
C765 C763 1.327 . S
C765 C781 1.429 . S
C765 H787 0.950 . S
C766 H762 0.949 . S
C766 C774 1.574 . S
C766 C782 1.368 . S
H767 C775 0.950 . S
H768 C773 0.950 . S
H769 C774 0.949 . S
H770 C776 0.950 . S
H771 C777 0.950 . S
H772 C778 0.949 . S
C773 H768 0.950 . S
C773 C775 1.327 . S
C773 C779 1.429 . S
C774 C766 1.574 . S
C774 H769 0.949 . S
C774 C780 1.368 . S
C775 C759 1.349 . S
C775 H767 0.950 . S
C775 C773 1.327 . S
C776 C764 1.349 . S
C776 H770 0.950 . S
C776 C777 1.327 . S
C777 H771 0.950 . S
C777 C776 1.327 . S
C777 C781 1.429 . S
C778 C761 1.574 . S
C778 H772 0.949 . S
C778 C782 1.368 . S
C779 C760 1.429 . S
C779 C773 1.429 . S
C779 C780 1.523 . S
C780 C761 1.368 . S
C780 C774 1.368 . S
C780 C779 1.523 . S
C781 C765 1.429 . S
C781 C777 1.429 . S
C781 C782 1.523 . S
C782 C766 1.368 . S
C782 C778 1.368 . S
C782 C781 1.523 . S
H783 C758 0.950 . S
H784 C760 0.950 . S
H785 C761 0.949 . S
H786 C763 0.950 . S
H787 C765 0.950 . S
C788 C789 1.349 . S
C788 C790 1.327 . S
C788 H813 0.950 . S
C789 C788 1.349 . S
C789 C805 1.349 . S
C790 C788 1.327 . S
C790 C809 1.429 . S
C790 H814 0.950 . S
C791 C808 1.574 . S
C791 C810 1.368 . S
C791 H815 0.949 . S
H792 C796 0.949 . S
C793 C794 1.349 . S
C793 C795 1.327 . S
C793 H816 0.950 . S
C794 C793 1.349 . S
C794 C806 1.349 . S
C795 C793 1.327 . S
C795 C811 1.429 . S
C795 H817 0.950 . S
C796 H792 0.949 . S
C796 C804 1.574 . S
C796 C812 1.368 . S
H797 C805 0.950 . S
H798 C803 0.950 . S
H799 C804 0.949 . S
H800 C806 0.950 . S
H801 C807 0.950 . S
H802 C808 0.949 . S
C803 H798 0.950 . S
C803 C805 1.327 . S
C803 C809 1.429 . S
C804 C796 1.574 . S
C804 H799 0.949 . S
C804 C810 1.368 . S
C805 C789 1.349 . S
C805 H797 0.950 . S
C805 C803 1.327 . S
C806 C794 1.349 . S
C806 H800 0.950 . S
C806 C807 1.327 . S
C807 H801 0.950 . S
C807 C806 1.327 . S
C807 C811 1.429 . S
C808 C791 1.574 . S
C808 H802 0.949 . S
C808 C812 1.368 . S
C809 C790 1.429 . S
C809 C803 1.429 . S
C809 C810 1.523 . S
C810 C791 1.368 . S
C810 C804 1.368 . S
C810 C809 1.523 . S
C811 C795 1.429 . S
C811 C807 1.429 . S
C811 C812 1.523 . S
C812 C796 1.368 . S
C812 C808 1.368 . S
C812 C811 1.523 . S
H813 C788 0.950 . S
H814 C790 0.950 . S
H815 C791 0.949 . S
H816 C793 0.950 . S
H817 C795 0.950 . S
C818 C819 1.349 . S
C818 C820 1.327 . S
C818 H843 0.950 . S
C819 C818 1.349 . S
C819 C835 1.349 . S
C820 C818 1.327 . S
C820 C839 1.429 . S
C820 H844 0.950 . S
C821 C838 1.574 . S
C821 C840 1.368 . S
C821 H845 0.949 . S
H822 C826 0.949 . S
C823 C824 1.349 . S
C823 C825 1.327 . S
C823 H846 0.950 . S
C824 C823 1.349 . S
C824 C836 1.349 . S
C825 C823 1.327 . S
C825 C841 1.429 . S
C825 H847 0.950 . S
C826 H822 0.949 . S
C826 C834 1.574 . S
C826 C842 1.368 . S
H827 C835 0.950 . S
H828 C833 0.950 . S
H829 C834 0.949 . S
H830 C836 0.950 . S
H831 C837 0.950 . S
H832 C838 0.949 . S
C833 H828 0.950 . S
C833 C835 1.327 . S
C833 C839 1.429 . S
C834 C826 1.574 . S
C834 H829 0.949 . S
C834 C840 1.368 . S
C835 C819 1.349 . S
C835 H827 0.950 . S
C835 C833 1.327 . S
C836 C824 1.349 . S
C836 H830 0.950 . S
C836 C837 1.327 . S
C837 H831 0.950 . S
C837 C836 1.327 . S
C837 C841 1.429 . S
C838 C821 1.574 . S
C838 H832 0.949 . S
C838 C842 1.368 . S
C839 C820 1.429 . S
C839 C833 1.429 . S
C839 C840 1.523 . S
C840 C821 1.368 . S
C840 C834 1.368 . S
C840 C839 1.523 . S
C841 C825 1.429 . S
C841 C837 1.429 . S
C841 C842 1.523 . S
C842 C826 1.368 . S
C842 C838 1.368 . S
C842 C841 1.523 . S
H843 C818 0.950 . S
H844 C820 0.950 . S
H845 C821 0.949 . S
H846 C823 0.950 . S
H847 C825 0.950 . S
C848 C849 1.349 . S
C848 C850 1.327 . S
C848 H873 0.950 . S
C849 C848 1.349 . S
C849 C865 1.349 . S
C850 C848 1.327 . S
C850 C869 1.429 . S
C850 H874 0.950 . S
C851 C868 1.574 . S
C851 C870 1.368 . S
C851 H875 0.949 . S
H852 C856 0.949 . S
C853 C854 1.349 . S
C853 C855 1.327 . S
C853 H876 0.950 . S
C854 C853 1.349 . S
C854 C866 1.349 . S
C855 C853 1.327 . S
C855 C871 1.429 . S
C855 H877 0.950 . S
C856 H852 0.949 . S
C856 C864 1.574 . S
C856 C872 1.368 . S
H857 C865 0.950 . S
H858 C863 0.950 . S
H859 C864 0.949 . S
H860 C866 0.950 . S
H861 C867 0.950 . S
H862 C868 0.949 . S
C863 H858 0.950 . S
C863 C865 1.327 . S
C863 C869 1.429 . S
C864 C856 1.574 . S
C864 H859 0.949 . S
C864 C870 1.368 . S
C865 C849 1.349 . S
C865 H857 0.950 . S
C865 C863 1.327 . S
C866 C854 1.349 . S
C866 H860 0.950 . S
C866 C867 1.327 . S
C867 H861 0.950 . S
C867 C866 1.327 . S
C867 C871 1.429 . S
C868 C851 1.574 . S
C868 H862 0.949 . S
C868 C872 1.368 . S
C869 C850 1.429 . S
C869 C863 1.429 . S
C869 C870 1.523 . S
C870 C851 1.368 . S
C870 C864 1.368 . S
C870 C869 1.523 . S
C871 C855 1.429 . S
C871 C867 1.429 . S
C871 C872 1.523 . S
C872 C856 1.368 . S
C872 C868 1.368 . S
C872 C871 1.523 . S
H873 C848 0.950 . S
H874 C850 0.950 . S
H875 C851 0.949 . S
H876 C853 0.950 . S
H877 C855 0.950 . S
C878 C879 1.349 . S
C878 C880 1.327 . S
C878 H903 0.950 . S
C879 C878 1.349 . S
C879 C895 1.349 . S
C880 C878 1.327 . S
C880 C899 1.429 . S
C880 H904 0.950 . S
C881 C898 1.574 . S
C881 C900 1.368 . S
C881 H905 0.949 . S
H882 C886 0.949 . S
C883 C884 1.349 . S
C883 C885 1.327 . S
C883 H906 0.950 . S
C884 C883 1.349 . S
C884 C896 1.349 . S
C885 C883 1.327 . S
C885 C901 1.429 . S
C885 H907 0.950 . S
C886 H882 0.949 . S
C886 C894 1.574 . S
C886 C902 1.368 . S
H887 C895 0.950 . S
H888 C893 0.950 . S
H889 C894 0.949 . S
H890 C896 0.950 . S
H891 C897 0.950 . S
H892 C898 0.949 . S
C893 H888 0.950 . S
C893 C895 1.327 . S
C893 C899 1.429 . S
C894 C886 1.574 . S
C894 H889 0.949 . S
C894 C900 1.368 . S
C895 C879 1.349 . S
C895 H887 0.950 . S
C895 C893 1.327 . S
C896 C884 1.349 . S
C896 H890 0.950 . S
C896 C897 1.327 . S
C897 H891 0.950 . S
C897 C896 1.327 . S
C897 C901 1.429 . S
C898 C881 1.574 . S
C898 H892 0.949 . S
C898 C902 1.368 . S
C899 C880 1.429 . S
C899 C893 1.429 . S
C899 C900 1.523 . S
C900 C881 1.368 . S
C900 C894 1.368 . S
C900 C899 1.523 . S
C901 C885 1.429 . S
C901 C897 1.429 . S
C901 C902 1.523 . S
C902 C886 1.368 . S
C902 C898 1.368 . S
C902 C901 1.523 . S
H903 C878 0.950 . S
H904 C880 0.950 . S
H905 C881 0.949 . S
H906 C883 0.950 . S
H907 C885 0.950 . S
C908 C909 1.349 . S
C908 C910 1.327 . S
C908 H933 0.950 . S
C909 C908 1.349 . S
C909 C925 1.349 . S
C910 C908 1.327 . S
C910 C929 1.429 . S
C910 H934 0.950 . S
C911 C928 1.574 . S
C911 C930 1.368 . S
C911 H935 0.949 . S
H912 C916 0.949 . S
C913 C914 1.349 . S
C913 C915 1.327 . S
C913 H936 0.950 . S
C914 C913 1.349 . S
C914 C926 1.349 . S
C915 C913 1.327 . S
C915 C931 1.429 . S
C915 H937 0.950 . S
C916 H912 0.949 . S
C916 C924 1.574 . S
C916 C932 1.368 . S
H917 C925 0.950 . S
H918 C923 0.950 . S
H919 C924 0.949 . S
H920 C926 0.950 . S
H921 C927 0.950 . S
H922 C928 0.949 . S
C923 H918 0.950 . S
C923 C925 1.327 . S
C923 C929 1.429 . S
C924 C916 1.574 . S
C924 H919 0.949 . S
C924 C930 1.368 . S
C925 C909 1.349 . S
C925 H917 0.950 . S
C925 C923 1.327 . S
C926 C914 1.349 . S
C926 H920 0.950 . S
C926 C927 1.327 . S
C927 H921 0.950 . S
C927 C926 1.327 . S
C927 C931 1.429 . S
C928 C911 1.574 . S
C928 H922 0.949 . S
C928 C932 1.368 . S
C929 C910 1.429 . S
C929 C923 1.429 . S
C929 C930 1.523 . S
C930 C911 1.368 . S
C930 C924 1.368 . S
C930 C929 1.523 . S
C931 C915 1.429 . S
C931 C927 1.429 . S
C931 C932 1.523 . S
C932 C916 1.368 . S
C932 C928 1.368 . S
C932 C931 1.523 . S
H933 C908 0.950 . S
H934 C910 0.950 . S
H935 C911 0.949 . S
H936 C913 0.950 . S
H937 C915 0.950 . S
C938 C939 1.349 . S
C938 C940 1.327 . S
C938 H963 0.950 . S
C939 C938 1.349 . S
C939 C955 1.349 . S
C940 C938 1.327 . S
C940 C959 1.429 . S
C940 H964 0.950 . S
C941 C958 1.574 . S
C941 C960 1.368 . S
C941 H965 0.949 . S
H942 C946 0.949 . S
C943 C944 1.349 . S
C943 C945 1.327 . S
C943 H966 0.950 . S
C944 C943 1.349 . S
C944 C956 1.349 . S
C945 C943 1.327 . S
C945 C961 1.429 . S
C945 H967 0.950 . S
C946 H942 0.949 . S
C946 C954 1.574 . S
C946 C962 1.368 . S
H947 C955 0.950 . S
H948 C953 0.950 . S
H949 C954 0.949 . S
H950 C956 0.950 . S
H951 C957 0.950 . S
H952 C958 0.949 . S
C953 H948 0.950 . S
C953 C955 1.327 . S
C953 C959 1.429 . S
C954 C946 1.574 . S
C954 H949 0.949 . S
C954 C960 1.368 . S
C955 C939 1.349 . S
C955 H947 0.950 . S
C955 C953 1.327 . S
C956 C944 1.349 . S
C956 H950 0.950 . S
C956 C957 1.327 . S
C957 H951 0.950 . S
C957 C956 1.327 . S
C957 C961 1.429 . S
C958 C941 1.574 . S
C958 H952 0.949 . S
C958 C962 1.368 . S
C959 C940 1.429 . S
C959 C953 1.429 . S
C959 C960 1.523 . S
C960 C941 1.368 . S
C960 C954 1.368 . S
C960 C959 1.523 . S
C961 C945 1.429 . S
C961 C957 1.429 . S
C961 C962 1.523 . S
C962 C946 1.368 . S
C962 C958 1.368 . S
C962 C961 1.523 . S
H963 C938 0.950 . S
H964 C940 0.950 . S
H965 C941 0.949 . S
H966 C943 0.950 . S
H967 C945 0.950 . S
C249 C4 1.118 . S
C254 C95 1.138 . S
C279 C16 1.280 . S
C284 C144 1.285 . S
C314 C170 1.939 . S
C309 C32 1.962 . S
C339 C43 2.173 . S
C344 C218 2.129 1_655 S
C374 C130 2.823 . S
C369 C5 2.740 . S
C404 C98 0.513 . S
C399 C21 0.492 . S
C434 C219 1.806 . S
C429 C27 1.841 . S
C464 C187 1.428 . S
C459 C37 1.437 . S
C489 C10 1.528 . S
C494 C215 1.547 . S
C524 C147 2.528 . S
C519 C26 2.597 . S
C549 C38 2.041 . S
C554 C99 2.037 . S
C579 C15 0.908 . S
C584 C184 0.910 . S
C614 C104 1.352 . S
C609 C48 1.336 . S
C639 C59 1.022 . S
C644 C135 1.021 . S
C669 C76 2.418 . S
C674 C179 2.382 . S
C699 C87 1.979 . S
C704 C227 1.959 . S
C729 C54 1.988 . S
C734 C139 2.046 1_556 S
C764 C107 1.553 . S
C759 C60 1.594 . S
C794 C210 1.674 . S
C789 C71 1.700 . S
C824 C178 1.393 . S
C819 C82 1.433 . S
C849 C49 1.814 . S
C854 C224 1.885 . S
C884 C138 1.921 . S
C879 C70 1.984 . S
C914 C90 2.548 . S
C909 C81 2.561 . S
C939 C65 0.767 . S
C944 C175 0.767 . S
