# Generated by pormake.
# Topology zzz, (3,6)-cn, num edge types: 1
# Building blocks:
#     Node 0, Type 0, BuildingBlock: QEWDON_clean_linker_0, # of connection points: 3
#     Node 1, Type 0, BuildingBlock: QEWDON_clean_linker_0, # of connection points: 3
#     Node 2, Type 0, BuildingBlock: QEWDON_clean_linker_0, # of connection points: 3
#     Node 3, Type 0, BuildingBlock: QEWDON_clean_linker_0, # of connection points: 3
#     Node 4, Type 0, BuildingBlock: QEWDON_clean_linker_0, # of connection points: 3
#     Node 5, Type 0, BuildingBlock: QEWDON_clean_linker_0, # of connection points: 3
#     Node 6, Type 0, BuildingBlock: QEWDON_clean_linker_0, # of connection points: 3
#     Node 7, Type 0, BuildingBlock: QEWDON_clean_linker_0, # of connection points: 3
#     Node 8, Type 1, BuildingBlock: PAMTUU_clean_sbu_0, # of connection points: 6
#     Node 9, Type 1, BuildingBlock: PAMTUU_clean_sbu_0, # of connection points: 6
#     Node 10, Type 1, BuildingBlock: PAMTUU_clean_sbu_0, # of connection points: 6
#     Node 11, Type 1, BuildingBlock: PAMTUU_clean_sbu_0, # of connection points: 6
#     Edge 12, Type (0, 1), BuildingBlock: TEMPAE_clean_linker_10, # of connection points: 2
#     Edge 13, Type (0, 1), BuildingBlock: TEMPAE_clean_linker_10, # of connection points: 2
#     Edge 14, Type (0, 1), BuildingBlock: TEMPAE_clean_linker_10, # of connection points: 2
#     Edge 15, Type (0, 1), BuildingBlock: TEMPAE_clean_linker_10, # of connection points: 2
#     Edge 16, Type (0, 1), BuildingBlock: TEMPAE_clean_linker_10, # of connection points: 2
#     Edge 17, Type (0, 1), BuildingBlock: TEMPAE_clean_linker_10, # of connection points: 2
#     Edge 18, Type (0, 1), BuildingBlock: TEMPAE_clean_linker_10, # of connection points: 2
#     Edge 19, Type (0, 1), BuildingBlock: TEMPAE_clean_linker_10, # of connection points: 2
#     Edge 20, Type (0, 1), BuildingBlock: TEMPAE_clean_linker_10, # of connection points: 2
#     Edge 21, Type (0, 1), BuildingBlock: TEMPAE_clean_linker_10, # of connection points: 2
#     Edge 22, Type (0, 1), BuildingBlock: TEMPAE_clean_linker_10, # of connection points: 2
#     Edge 23, Type (0, 1), BuildingBlock: TEMPAE_clean_linker_10, # of connection points: 2
#     Edge 24, Type (0, 1), BuildingBlock: TEMPAE_clean_linker_10, # of connection points: 2
#     Edge 25, Type (0, 1), BuildingBlock: TEMPAE_clean_linker_10, # of connection points: 2
#     Edge 26, Type (0, 1), BuildingBlock: TEMPAE_clean_linker_10, # of connection points: 2
#     Edge 27, Type (0, 1), BuildingBlock: TEMPAE_clean_linker_10, # of connection points: 2
#     Edge 28, Type (0, 1), BuildingBlock: TEMPAE_clean_linker_10, # of connection points: 2
#     Edge 29, Type (0, 1), BuildingBlock: TEMPAE_clean_linker_10, # of connection points: 2
#     Edge 30, Type (0, 1), BuildingBlock: TEMPAE_clean_linker_10, # of connection points: 2
#     Edge 31, Type (0, 1), BuildingBlock: TEMPAE_clean_linker_10, # of connection points: 2
#     Edge 32, Type (0, 1), BuildingBlock: TEMPAE_clean_linker_10, # of connection points: 2
#     Edge 33, Type (0, 1), BuildingBlock: TEMPAE_clean_linker_10, # of connection points: 2
#     Edge 34, Type (0, 1), BuildingBlock: TEMPAE_clean_linker_10, # of connection points: 2
#     Edge 35, Type (0, 1), BuildingBlock: TEMPAE_clean_linker_10, # of connection points: 2
# Relax obj value: 0.134
# Max RMSD: 0.205
# Mean RMSD: 0.080
data_MOF--net-zzz--node1-PAMTUU_clean_sbu_0--node2-QEWDON_clean_linker_0--edge1-TEMPAE_clean_linker_10
_symmetry_space_group_name_H-M    P1
_symmetry_Int_Tables_number       1
_symmetry_cell_setting            triclinic
loop_
_symmetry_equiv_pos_as_xyz
'x, y, z'
_cell_length_a     55.04815
_cell_length_b     58.436988
_cell_length_c     15.277495
_cell_angle_alpha  101.04771
_cell_angle_beta   90.11046
_cell_angle_gamma 91.423356
loop_
_atom_site_label
_atom_site_type_symbol
_atom_site_fract_x
_atom_site_fract_y
_atom_site_fract_z
_atom_type_partial_charge
H0 H 0.76784 0.54038 0.3854 0.0
C1 C 0.78013 0.53522 0.43291 0.0
C2 C 0.80338 0.54582 0.44273 0.0
C3 C 0.77324 0.51791 0.48185 0.0
H4 H 0.8373 0.54846 0.5148 0.0
C5 C 0.8193 0.5404 0.50705 0.0
C6 C 0.81402 0.52254 0.55326 0.0
C7 C 0.79105 0.51095 0.53947 0.0
C8 C 0.74765 0.50744 0.473 0.0
H9 H 0.7873 0.49665 0.57349 0.0
C10 C 0.7325 0.50741 0.39671 0.0
C11 C 0.7082 0.49848 0.3927 0.0
C12 C 0.73761 0.49829 0.54419 0.0
H13 H 0.74774 0.4986 0.60511 0.0
C14 C 0.71391 0.48916 0.53977 0.0
H15 H 0.73942 0.51387 0.33964 0.0
C16 C 0.69936 0.48926 0.4652 0.0
H17 H 0.68084 0.48254 0.46525 0.0
H18 H 0.70659 0.4823 0.59549 0.0
H19 H 0.98973 0.74952 0.25458 0.0
C20 C 0.99307 0.76151 0.31712 0.0
C21 C 1.00672 0.7821 0.31732 0.0
C22 C 0.98329 0.75682 0.3976 0.0
H23 H 1.0198 0.81449 0.39549 0.0
C24 C 1.01028 0.79808 0.39704 0.0
C25 C 1.0003 0.79414 0.477 0.0
C26 C 0.98692 0.77343 0.47726 0.0
C27 C 0.96906 0.73487 0.39899 0.0
H28 H 0.97947 0.77029 0.53961 0.0
C29 C 0.97631 0.71346 0.34793 0.0
C30 C 0.96357 0.69245 0.35249 0.0
C31 C 0.94842 0.73512 0.45329 0.0
H32 H 0.942 0.75131 0.49197 0.0
C33 C 0.93572 0.71447 0.45812 0.0
H34 H 0.992 0.71315 0.30515 0.0
C35 C 0.94328 0.69328 0.40881 0.0
H36 H 0.93335 0.67751 0.41575 0.0
H37 H 0.91999 0.71487 0.50077 0.0
H38 H 0.79428 0.03896 0.38008 0.0
C39 C 0.78087 0.03324 0.42321 0.0
C40 C 0.75988 0.04631 0.43962 0.0
C41 C 0.78417 0.01325 0.46088 0.0
H42 H 0.72567 0.05017 0.50637 0.0
C43 C 0.74216 0.04026 0.49702 0.0
C44 C 0.74417 0.02061 0.53607 0.0
C45 C 0.76505 1.00678 0.51609 0.0
C46 C 0.80743 0.99956 0.44242 0.0
H47 H 0.76605 0.99112 0.54358 0.0
C48 C 0.82344 1.00184 0.37044 0.0
C49 C 0.84537 0.98944 0.35673 0.0
C50 C 0.81443 0.98447 0.49929 0.0
H51 H 0.80389 0.98253 0.55707 0.0
C52 C 0.83571 0.97183 0.48443 0.0
H53 H 0.81909 0.01279 0.32345 0.0
C54 C 0.85098 0.97421 0.41398 0.0
H55 H 0.86761 0.9645 0.40544 0.0
H56 H 0.84061 0.96033 0.52902 0.0
H57 H 0.53946 0.73801 0.02924 0.0
C58 C 0.53791 0.73295 0.09365 0.0
C59 C 0.52755 0.71094 0.09942 0.0
C60 C 0.54784 0.7476 0.17076 0.0
H61 H 0.52031 0.68633 0.18417 0.0
C62 C 0.52698 0.70385 0.18171 0.0
C63 C 0.5377 0.71734 0.25779 0.0
C64 C 0.54776 0.73938 0.25248 0.0
C65 C 0.56185 0.76962 0.16502 0.0
H66 H 0.55634 0.74975 0.31136 0.0
C67 C 0.55279 0.78742 0.12277 0.0
C68 C 0.56688 0.80819 0.12215 0.0
C69 C 0.5851 0.77279 0.20444 0.0
H70 H 0.59286 0.75942 0.23538 0.0
C71 C 0.59876 0.79312 0.20482 0.0
H72 H 0.53502 0.78518 0.09128 0.0
C73 C 0.58974 0.81067 0.16506 0.0
H74 H 0.60076 0.82644 0.16879 0.0
H75 H 0.61649 0.79533 0.23659 0.0
H76 H 0.29062 0.51779 0.40201 0.0
C77 C 0.27696 0.51327 0.35019 0.0
C78 C 0.25289 0.51814 0.37307 0.0
C79 C 0.28329 0.5031 0.26214 0.0
H80 H 0.21623 0.51858 0.32644 0.0
C81 C 0.23478 0.51425 0.30736 0.0
C82 C 0.24009 0.50577 0.21767 0.0
C83 C 0.26438 0.49934 0.19551 0.0
C84 C 0.30976 0.49797 0.24135 0.0
H85 H 0.26839 0.49194 0.12684 0.0
C86 C 0.32672 0.49465 0.30864 0.0
C87 C 0.35187 0.49207 0.29067 0.0
C88 C 0.31875 0.49776 0.15504 0.0
H89 H 0.30703 0.50079 0.10177 0.0
C90 C 0.34336 0.4945 0.13626 0.0
H91 H 0.32058 0.49384 0.37517 0.0
C92 C 0.35977 0.49186 0.20311 0.0
H93 H 0.37884 0.49026 0.18644 0.0
H94 H 0.3499 0.49459 0.06954 0.0
H95 H 0.0268 0.25991 0.36087 0.0
C96 C 0.03391 0.24775 0.30477 0.0
C97 C 0.04102 0.2257 0.31732 0.0
C98 C 0.03478 0.25356 0.21917 0.0
H99 H 0.05301 0.19191 0.2528 0.0
C100 C 0.04896 0.20944 0.24424 0.0
C101 C 0.04875 0.21438 0.15841 0.0
C102 C 0.04201 0.2365 0.14597 0.0
C103 C 0.0267 0.27679 0.20529 0.0
H104 H 0.04201 0.24011 0.07903 0.0
C105 C 0.03171 0.29713 0.26962 0.0
C106 C 1.0237 0.31902 0.25721 0.0
C107 C 1.01357 0.27873 0.12798 0.0
H108 H 1.00879 0.26348 0.07809 0.0
C109 C 1.00597 0.3004 0.11468 0.0
H110 H 0.04163 0.29593 0.32979 0.0
C111 C 1.01099 0.32041 0.17858 0.0
H112 H 1.00493 0.33702 0.16633 0.0
H113 H 0.99597 0.30166 0.05477 0.0
H114 H 0.26579 0.0269 0.38651 0.0
C115 C 0.2788 0.02287 0.33317 0.0
C116 C 0.30337 0.02439 0.35625 0.0
C117 C 0.27115 0.01607 0.24373 0.0
H118 H 0.34001 0.02115 0.30773 0.0
C119 C 0.32093 0.02027 0.28932 0.0
C120 C 0.31457 0.0134 0.19944 0.0
C121 C 0.28946 0.01139 0.17624 0.0
C122 C 0.24414 0.01447 0.22366 0.0
H123 H 0.28439 1.00556 0.10695 0.0
C124 C 0.2266 0.01031 0.28828 0.0
C125 C 0.20136 0.01229 0.2739 0.0
C126 C 0.23549 0.01903 0.14223 0.0
H127 H 0.24789 0.02266 0.09149 0.0
C128 C 0.21058 0.01996 0.12616 0.0
H129 H 0.23236 1.00614 0.35096 0.0
C130 C 0.19372 0.01693 0.19143 0.0
H131 H 0.17456 0.01823 0.17726 0.0
H132 H 0.20429 0.02363 0.06322 0.0
H133 H 0.54129 0.25682 0.63094 0.0
C134 C 0.53144 0.26255 0.57793 0.0
C135 C 0.52471 0.28607 0.58831 0.0
C136 C 0.52661 0.24689 0.49642 0.0
H137 H 0.50911 0.31208 0.52531 0.0
C138 C 0.51311 0.2937 0.51816 0.0
C139 C 0.5089 0.27896 0.43616 0.0
C140 C 0.51548 0.25551 0.42553 0.0
C141 C 0.536 0.22254 0.47929 0.0
H142 H 0.51245 0.24413 0.36138 0.0
C143 C 0.53268 0.2068 0.53917 0.0
C144 C 0.54158 0.18372 0.51756 0.0
C145 C 0.54858 0.21492 0.39939 0.0
H146 H 0.55198 0.22653 0.3531 0.0
C147 C 0.55706 0.19235 0.3777 0.0
H148 H 0.52323 0.21242 0.6014 0.0
C149 C 0.55345 0.17688 0.43543 0.0
H150 H 0.55987 0.15931 0.4149 0.0
H151 H 0.56644 0.18676 0.31534 0.0
Tb152 Tb 1.00831 0.00919 0.75017 0.0
Tb153 Tb 0.04392 0.99738 0.90636 0.0
C154 C 0.98741 1.00142 0.93761 0.0
C155 C 0.98673 0.04715 0.60606 0.0
C156 C 0.99777 0.09187 0.57056 0.0
C157 C 0.97762 0.08833 0.62283 0.0
C158 C 0.97202 0.06614 0.63974 0.0
C159 C 1.00648 0.0506 0.55136 0.0
C160 C 1.01187 0.07274 0.5335 0.0
C161 C 0.98323 0.025 0.6384 0.0
O162 O 0.0307 0.04007 0.79837 0.0
O163 O 0.03839 0.03478 0.94009 0.0
O164 O 0.06773 0.00777 0.80481 0.0
O165 O 0.0423 0.99697 0.68487 0.0
O166 O 0.05367 0.99921 0.0408 0.0
O167 O 0.07564 0.98088 0.93452 0.0
O168 O 0.03282 0.96405 0.82551 0.0
O169 O 0.99973 0.97263 0.74546 0.0
O170 O 0.98599 0.01254 0.87062 0.0
O171 O 1.00742 0.99108 0.95374 0.0
C172 C 0.0366 0.04843 0.88151 0.0
O173 O 0.9994 0.00902 0.61578 0.0
O174 O 0.97787 0.02749 0.72252 0.0
C175 C 0.06428 1.00214 0.71793 0.0
C176 C 0.06797 0.96196 0.05433 0.0
C177 C 0.05887 0.917 0.09134 0.0
C178 C 0.08015 0.92186 0.04697 0.0
C179 C 0.08473 0.94416 0.02915 0.0
C180 C 0.04714 0.9573 0.10184 0.0
C181 C 0.0427 0.93509 0.12036 0.0
C182 C 0.0705 0.9838 0.01913 0.0
C183 C 1.01349 0.95773 0.7754 0.0
H184 H 0.96627 0.10275 0.65101 0.0
H185 H 0.95668 0.06401 0.68206 0.0
H186 H 1.01829 0.03643 0.52474 0.0
H187 H 0.02754 0.07505 0.49299 0.0
H188 H 0.09307 0.9083 0.02487 0.0
H189 H 0.10087 0.94724 0.99219 0.0
H190 H 0.03369 0.97049 0.12158 0.0
H191 H 0.02606 0.93181 0.1542 0.0
Tb192 Tb 0.52224 0.9864 0.76798 0.0
Tb193 Tb 0.53902 0.01513 0.96148 0.0
C194 C 0.53537 0.96087 0.9221 0.0
C195 C 0.48102 0.95678 0.59764 0.0
C196 C 0.43075 0.95987 0.57511 0.0
C197 C 0.43982 0.95035 0.64569 0.0
C198 C 0.46478 0.94887 0.65713 0.0
C199 C 0.47188 0.96388 0.52179 0.0
C200 C 0.44688 0.96546 0.51059 0.0
C201 C 0.50648 0.96229 0.62393 0.0
O202 O 0.48895 0.98713 0.84774 0.0
O203 O 0.49924 0.01667 0.96476 0.0
O204 O 0.54221 0.03963 0.87076 0.0
O205 O 0.51367 0.02284 0.7682 0.0
O206 O 0.55813 0.01693 0.08142 0.0
O207 O 0.53722 0.04595 0.05771 0.0
O208 O 0.57334 1.00498 0.89184 0.0
O209 O 0.55982 0.99666 0.74635 0.0
O210 O 0.5397 0.96221 0.83892 0.0
O211 O 0.52993 0.97969 0.97981 0.0
C212 C 0.48289 1.00226 0.9194 0.0
O213 O 0.51283 0.98425 0.63312 0.0
O214 O 0.51432 0.95339 0.69019 0.0
C215 C 0.52718 0.04102 0.80531 0.0
C216 C 0.57364 0.05445 0.13837 0.0
C217 C 0.61691 0.07852 0.20061 0.0
C218 C 0.59718 0.07781 0.25852 0.0
C219 C 0.57569 0.06575 0.22756 0.0
C220 C 0.59244 0.05682 0.07862 0.0
C221 C 0.61398 0.06881 0.10957 0.0
C222 C 0.55284 0.03872 0.1098 0.0
C223 C 0.57765 1.00104 0.80522 0.0
H224 H 0.4277 0.94551 0.69521 0.0
H225 H 0.47126 0.94322 0.71631 0.0
H226 H 0.48408 0.9701 0.47537 0.0
H227 H 0.44037 0.97296 0.45561 0.0
H228 H 0.59895 0.0853 0.32889 0.0
H229 H 0.5612 0.06425 0.27418 0.0
H230 H 0.59098 0.04829 0.00921 0.0
H231 H 0.62895 0.06888 0.0637 0.0
Tb232 Tb 0.51373 0.49271 0.92259 0.0
Tb233 Tb 0.54811 0.50433 0.75989 0.0
C234 C 0.49197 0.49706 0.73463 0.0
C235 C 0.49072 0.45536 0.07374 0.0
C236 C 0.49396 0.41153 0.12555 0.0
C237 C 0.4712 0.42106 0.11447 0.0
C238 C 0.46961 0.44279 0.08912 0.0
C239 C 0.51351 0.44586 0.08458 0.0
C240 C 0.51511 0.42426 0.11094 0.0
C241 C 0.48864 0.47699 0.03754 0.0
O242 O 0.53661 0.46315 0.88052 0.0
O243 O 0.54271 0.46622 0.7352 0.0
O244 O 0.57331 0.49704 0.86186 0.0
O245 O 0.54862 0.50601 0.98389 0.0
O246 O 0.55415 0.50262 0.62266 0.0
O247 O 0.57956 0.52072 0.72068 0.0
O248 O 0.53922 0.53773 0.84185 0.0
O249 O 0.50569 0.52907 0.92166 0.0
O250 O 0.49219 0.48484 0.79851 0.0
O251 O 0.51088 0.51012 0.72232 0.0
C252 C 0.54156 0.45363 0.79815 0.0
O253 O 0.50584 0.49289 0.05779 0.0
O254 O 0.48307 0.47367 0.95329 0.0
C255 C 0.57041 0.50239 0.94899 0.0
C256 C 0.57003 0.53909 0.6021 0.0
C257 C 0.56655 0.5824 0.54662 0.0
C258 C 0.5848 0.56669 0.5124 0.0
C259 C 0.58661 0.54525 0.54042 0.0
C260 C 0.55151 0.55447 0.63439 0.0
C261 C 0.54984 0.5759 0.60737 0.0
C262 C 0.57248 0.51747 0.63769 0.0
C263 C 0.51997 0.54403 0.89044 0.0
H264 H 0.45461 0.41175 0.12603 0.0
H265 H 0.45185 0.4496 0.07998 0.0
H266 H 0.53008 0.45495 0.07122 0.0
H267 H 0.53288 0.41726 0.11821 0.0
H268 H 0.59795 0.57119 0.46543 0.0
H269 H 0.60109 0.53365 0.51483 0.0
H270 H 0.53843 0.54994 0.68135 0.0
H271 H 0.5353 0.58731 0.63347 0.0
Tb272 Tb 0.03732 0.51865 0.78416 0.0
Tb273 Tb 1.02031 0.488 0.93014 0.0
C274 C 1.01621 0.54182 0.96547 0.0
C275 C 0.079 0.55452 0.6832 0.0
C276 C 0.12703 0.57222 0.69643 0.0
C277 C 0.10813 0.58588 0.67443 0.0
C278 C 0.08415 0.57714 0.6688 0.0
C279 C 0.09791 0.54087 0.70416 0.0
C280 C 0.12167 0.54964 0.71081 0.0
C281 C 0.05387 0.54632 0.68982 0.0
O282 O 0.06891 0.5173 0.87173 0.0
O283 O 0.05957 0.48391 0.92356 0.0
O284 O 1.02472 0.46208 0.80979 0.0
O285 O 0.04603 0.48326 0.72088 0.0
O286 O 0.02482 0.48015 0.05774 0.0
O287 O 0.99577 0.46404 0.97093 0.0
O288 O 0.98672 0.49928 0.87443 0.0
O289 O 1.00036 0.50708 0.74084 0.0
O290 O 1.01436 0.54014 0.87938 0.0
O291 O 1.02397 0.52424 0.99835 0.0
C292 C 0.07548 0.49999 0.91003 0.0
O293 O 0.04927 0.52423 0.6589 0.0
O294 O 0.04469 0.55297 0.76857 0.0
C295 C 0.03695 0.46345 0.73709 0.0
C296 C 0.98535 0.48003 0.11743 0.0
C297 C 0.94559 0.50582 0.19162 0.0
C298 C 0.94263 0.48191 0.15598 0.0
C299 C 0.9624 0.4691 0.11851 0.0
C300 C 0.9886 0.50339 0.16132 0.0
C301 C 0.9688 0.5163 0.19696 0.0
C302 C 1.00366 0.46943 0.05299 0.0
C303 C 0.98243 0.50269 0.79287 0.0
H304 H 0.11195 0.60319 0.66139 0.0
H305 H 0.06963 0.58806 0.65427 0.0
H306 H 0.09425 0.52345 0.71624 0.0
H307 H 0.13601 0.53843 0.72444 0.0
H308 H 0.92477 0.47355 0.15195 0.0
H309 H 0.95941 0.4512 0.08457 0.0
H310 H 1.00615 0.51218 0.1627 0.0
H311 H 0.97141 0.53464 0.22566 0.0
C312 C 0.1646 0.02734 0.36342 0.0
C313 C 0.18278 0.01062 0.34492 0.0
C314 C 0.14617 0.02575 0.42619 0.0
C315 C 0.1454 1.00674 0.47168 0.0
C316 C 0.16386 0.9899 0.45415 0.0
C317 C 0.18238 0.99215 0.39184 0.0
C318 C 0.12735 0.04441 0.44332 0.0
C319 C 0.16372 0.96919 0.4998 0.0
C320 C 0.10778 0.01321 0.68659 0.0
C321 C 0.0854 1.00248 0.65576 0.0
C322 C 0.12744 0.01446 0.62808 0.0
C323 C 0.12504 1.00444 0.53608 0.0
C324 C 0.10267 0.99313 0.50497 0.0
C325 C 0.08318 0.99246 0.56465 0.0
C326 C 0.15066 0.02704 0.66452 0.0
C327 C 0.09919 0.98191 0.40807 0.0
H328 H 0.16484 0.04186 0.32864 0.0
H329 H 0.19617 0.97905 0.37787 0.0
H330 H 0.10907 0.03662 0.42415 0.0
H331 H 0.12683 0.05216 0.5155 0.0
H332 H 0.13099 0.05858 0.40554 0.0
H333 H 0.17947 0.95784 0.48049 0.0
H334 H 0.16399 0.97515 0.57324 0.0
H335 H 0.14673 0.95865 0.48255 0.0
H336 H 0.10982 0.02112 0.75648 0.0
H337 H 0.06613 0.98401 0.53966 0.0
H338 H 0.15413 0.04222 0.63199 0.0
H339 H 0.16628 0.01534 0.64905 0.0
H340 H 0.15 0.03334 0.73783 0.0
H341 H 0.10048 0.99541 0.36607 0.0
H342 H 0.08133 0.97258 0.39515 0.0
H343 H 0.11381 0.96935 0.38662 0.0
C344 C 0.51656 0.16236 0.61842 0.0
C345 C 0.53869 0.166 0.57686 0.0
C346 C 0.513 0.14324 0.6621 0.0
C347 C 0.53188 0.12714 0.66351 0.0
C348 C 0.55451 0.13133 0.62481 0.0
C349 C 0.55771 0.15073 0.58353 0.0
C350 C 0.48877 0.13984 0.70434 0.0
C351 C 0.57521 0.11477 0.62384 0.0
C352 C 0.53454 0.08446 0.82463 0.0
C353 C 0.52634 0.06336 0.77111 0.0
C354 C 0.53522 0.1055 0.79215 0.0
C355 C 0.5281 0.10556 0.70294 0.0
C356 C 0.51935 0.08439 0.6491 0.0
C357 C 0.51833 0.06368 0.68403 0.0
C358 C 0.54418 0.1276 0.85283 0.0
C359 C 0.51202 0.08338 0.55318 0.0
H360 H 0.50169 0.17389 0.61377 0.0
H361 H 0.57511 0.15357 0.55377 0.0
H362 H 0.47937 0.12396 0.66666 0.0
H363 H 0.4914 0.13717 0.77368 0.0
H364 H 0.47683 0.15494 0.70545 0.0
H365 H 0.59174 0.12055 0.59166 0.0
H366 H 0.57997 0.11312 0.69288 0.0
H367 H 0.56955 0.09715 0.58731 0.0
H368 H 0.54058 0.08453 0.89226 0.0
H369 H 0.51206 0.04752 0.64187 0.0
H370 H 0.53128 0.14184 0.85186 0.0
H371 H 0.56191 0.13328 0.82874 0.0
H372 H 0.54653 0.12525 0.92278 0.0
H373 H 0.4983 0.0967 0.54882 0.0
H374 H 0.50442 0.06598 0.52143 0.0
H375 H 0.52808 0.08744 0.51451 0.0
C376 C 0.39018 0.47581 0.34478 0.0
C377 C 0.3703 0.49066 0.36261 0.0
C378 C 0.40909 0.47609 0.40754 0.0
C379 C 0.40837 0.49159 0.49114 0.0
C380 C 0.38799 0.50607 0.51087 0.0
C381 C 0.36926 0.50541 0.44678 0.0
C382 C 0.43021 0.46015 0.38319 0.0
C383 C 0.38634 0.52291 0.59872 0.0
C384 C 0.45039 0.48063 0.6796 0.0
C385 C 0.47024 0.4959 0.674 0.0
C386 C 0.43014 0.47917 0.62144 0.0
C387 C 0.42946 0.49336 0.55578 0.0
C388 C 0.44933 0.50897 0.5505 0.0
C389 C 0.46935 0.51001 0.60915 0.0
C390 C 0.40953 0.46221 0.62969 0.0
C391 C 0.44955 0.52452 0.48216 0.0
H392 H 0.39113 0.46406 0.28081 0.0
H393 H 0.35424 0.51714 0.46143 0.0
H394 H 0.44715 0.4707 0.38075 0.0
H395 H 0.43288 0.44943 0.43487 0.0
H396 H 0.42757 0.44832 0.31753 0.0
H397 H 0.36873 0.53194 0.60645 0.0
H398 H 0.38864 0.5136 0.6549 0.0
H399 H 0.40125 0.53624 0.60385 0.0
H400 H 0.45073 0.4696 0.72909 0.0
H401 H 0.48442 0.52196 0.60387 0.0
H402 H 0.40746 0.44926 0.56658 0.0
H403 H 0.3922 0.47159 0.641 0.0
H404 H 0.41246 0.45274 0.68517 0.0
H405 H 0.44885 0.5137 0.41402 0.0
H406 H 0.46599 0.53614 0.48791 0.0
H407 H 0.43322 0.53546 0.48988 0.0
C408 C 0.05034 0.34457 0.37206 0.0
C409 C 0.02795 0.34031 0.327 0.0
C410 C 0.05426 0.3645 0.43885 0.0
C411 C 0.03536 0.38055 0.46095 0.0
C412 C 1.01281 0.37645 0.41518 0.0
C413 C 1.00937 0.35638 0.34908 0.0
C414 C 0.07853 0.3683 0.48626 0.0
C415 C 0.99216 0.39311 0.43688 0.0
C416 C 0.0321 0.42018 0.68809 0.0
C417 C 0.03936 0.44186 0.66875 0.0
C418 C 0.03171 0.39991 0.62185 0.0
C419 C 0.03866 0.40131 0.53387 0.0
C420 C 0.04698 0.42292 0.5146 0.0
C421 C 0.04729 0.44294 0.58234 0.0
C422 C 1.02289 0.37716 0.64528 0.0
C423 C 0.05453 0.42511 0.42153 0.0
H424 H 0.06488 0.33239 0.35462 0.0
H425 H 0.99189 0.35305 0.31567 0.0
H426 H 0.08666 0.38542 0.47931 0.0
H427 H 0.07602 0.36872 0.55858 0.0
H428 H 0.09151 0.35444 0.45996 0.0
H429 H 0.97606 0.38777 0.39313 0.0
H430 H 0.98658 0.39408 0.50722 0.0
H431 H 0.99819 0.41091 0.42974 0.0
H432 H 0.02613 0.41908 0.75476 0.0
H433 H 0.05294 0.45958 0.5666 0.0
H434 H 0.03613 0.36329 0.62275 0.0
H435 H 1.00545 0.37153 0.61021 0.0
H436 H 1.02002 0.37861 0.71807 0.0
H437 H 0.06793 0.41168 0.39515 0.0
H438 H 0.06258 0.4426 0.41918 0.0
H439 H 0.03846 0.42205 0.37646 0.0
C440 C 0.87451 0.01427 0.2846 0.0
C441 C 0.86322 0.99249 0.28533 0.0
C442 C 0.89415 0.01656 0.22694 0.0
C443 C 0.90251 0.9967 0.16689 0.0
C444 C 0.89041 0.97488 0.16491 0.0
C445 C 0.87124 0.973 0.22463 0.0
C446 C 0.90662 0.0401 0.233 0.0
C447 C 0.89811 0.9533 0.10108 0.0
C448 C 0.94236 1.0053 0.96857 0.0
C449 C 0.96574 1.00054 0.99671 0.0
C450 C 0.92175 1.00411 0.02277 0.0
C451 C 0.92439 0.99848 0.10858 0.0
C452 C 0.948 0.99401 0.13787 0.0
C453 C 0.96822 0.99483 0.08154 0.0
C454 C 0.89703 0.00851 0.98746 0.0
C455 C 0.95195 0.98835 0.22909 0.0
H456 H 0.86872 0.02934 0.33219 0.0
H457 H 0.8627 0.9561 0.22493 0.0
H458 H 0.92571 0.03926 0.25546 0.0
H459 H 0.90718 0.045 0.1664 0.0
H460 H 0.89743 0.05401 0.28021 0.0
H461 H 0.88572 0.93808 0.10267 0.0
H462 H 0.89862 0.95662 0.03197 0.0
H463 H 0.91674 0.94873 0.11825 0.0
H464 H 0.94007 0.00958 0.90315 0.0
H465 H 0.98611 0.99123 0.10459 0.0
H466 H 0.88848 0.02318 0.03284 0.0
H467 H 0.88499 0.99288 0.98515 0.0
H468 H 0.89792 0.01268 0.91957 0.0
H469 H 0.94467 1.00239 0.28102 0.0
H470 H 0.97147 0.98625 0.24365 0.0
H471 H 0.94192 0.97197 0.23426 0.0
C472 C 0.57563 0.8399 0.03503 0.0
C473 C 0.55862 0.82789 0.07951 0.0
C474 C 0.57012 0.86094 0.00849 0.0
C475 C 0.54664 0.87018 0.02365 0.0
C476 C 0.52879 0.85742 0.06304 0.0
C477 C 0.53502 0.83656 0.09111 0.0
C478 C 0.58988 0.87378 0.9674 0.0
C479 C 0.50331 0.86618 0.07804 0.0
C480 C 0.54259 0.93625 0.03832 0.0
C481 C 0.5368 0.93778 0.95015 0.0
C482 C 0.54524 0.91442 0.06368 0.0
C483 C 0.54132 0.89347 1.00014 0.0
C484 C 0.53441 0.89498 0.91199 0.0
C485 C 0.53261 0.91701 0.88785 0.0
C486 C 0.55317 0.91381 0.15778 0.0
C487 C 0.52934 0.87328 0.84248 0.0
H488 H 0.59375 0.83316 0.02336 0.0
H489 H 0.52169 0.82757 0.1253 0.0
H490 H 0.58405 0.8765 0.90072 0.0
H491 H 0.59331 0.89127 0.00953 0.0
H492 H 0.60722 0.86428 0.96002 0.0
H493 H 0.49087 0.85312 0.09987 0.0
H494 H 0.50355 0.88232 0.1299 0.0
H495 H 0.49593 0.87068 0.01601 0.0
H496 H 0.54589 0.95216 0.08693 0.0
H497 H 0.52777 0.91795 0.81984 0.0
H498 H 0.57115 0.90556 0.15667 0.0
H499 H 0.54016 0.90303 0.1889 0.0
H500 H 0.55461 0.9315 0.2002 0.0
H501 H 0.54643 0.86381 0.82563 0.0
H502 H 0.52154 0.87734 0.78026 0.0
H503 H 0.51655 0.86134 0.86896 0.0
C504 C 0.67633 0.47959 0.28123 0.0
C505 C 0.69131 0.49911 0.31561 0.0
C506 C 0.65786 0.4806 0.2181 0.0
C507 C 0.65395 0.50171 0.18793 0.0
C508 C 0.6696 0.52126 0.21977 0.0
C509 C 0.68809 0.51971 0.28276 0.0
C510 C 0.642 0.45919 0.18578 0.0
C511 C 0.6662 0.54412 0.18986 0.0
C512 C 0.61534 0.49772 0.97548 0.0
C513 C 0.59209 0.50339 0.00981 0.0
C514 C 0.63565 0.49763 0.03218 0.0
C515 C 0.6329 0.50339 0.12612 0.0
C516 C 0.60959 0.50961 0.16115 0.0
C517 C 0.58959 0.50947 0.10295 0.0
C518 C 0.66001 0.49086 0.99144 0.0
C519 C 0.60565 0.516 0.26055 0.0
H520 H 0.67875 0.46351 0.30531 0.0
H521 H 0.69934 0.53495 0.30928 0.0
H522 H 0.62299 0.4627 0.20737 0.0
H523 H 0.64188 0.45485 0.11183 0.0
H524 H 0.64816 0.44378 0.21169 0.0
H525 H 0.68082 0.55716 0.21538 0.0
H526 H 0.66582 0.54138 0.11598 0.0
H527 H 0.64847 0.55141 0.21394 0.0
H528 H 0.61767 0.49299 0.90393 0.0
H529 H 0.57186 0.51396 0.13085 0.0
H530 H 0.66588 0.47456 0.01143 0.0
H531 H 0.67394 0.5046 0.01663 0.0
H532 H 0.65953 0.48806 0.91744 0.0
H533 H 0.60946 0.50081 0.29183 0.0
H534 H 0.58679 0.52155 0.27737 0.0
H535 H 0.61843 0.53035 0.29059 0.0
C536 C 0.95417 0.65244 0.26222 0.0
C537 C 0.97144 0.66974 0.29916 0.0
C538 C 0.96129 0.63101 0.21182 0.0
C539 C 0.98627 0.62695 0.19588 0.0
C540 C 1.00382 0.64422 0.23301 0.0
C541 C 0.99622 0.66527 0.28495 0.0
C542 C 0.94205 0.61284 0.17463 0.0
C543 C 0.03063 0.64058 0.21686 0.0
C544 C 1.00764 0.56505 0.11771 0.0
C545 C 1.00887 0.5636 0.02516 0.0
C546 C 0.99997 0.58542 0.17415 0.0
C547 C 0.99401 0.60504 0.13728 0.0
C548 C 0.99562 0.60384 0.04408 0.0
C549 C 1.00282 0.58309 0.98915 0.0
C550 C 0.99801 0.58588 0.27303 0.0
C551 C 0.9898 0.62451 0.00234 0.0
H552 H 0.93498 0.65573 0.2714 0.0
H553 H 1.00978 0.67819 0.31472 0.0
H554 H 0.94225 0.60969 0.10069 0.0
H555 H 0.94593 0.59603 0.19478 0.0
H556 H 0.92353 0.61815 0.19759 0.0
H557 H 0.04197 0.65567 0.25094 0.0
H558 H 0.03631 0.62474 0.24069 0.0
H559 H 0.03434 0.63775 0.14426 0.0
H560 H 1.01255 0.55024 0.14624 0.0
H561 H 1.00387 0.58225 0.91777 0.0
H562 H 0.9789 0.58879 0.29434 0.0
H563 H 1.0092 0.60054 0.31088 0.0
H564 H 1.00396 0.56938 0.2914 0.0
H565 H 0.97069 0.62951 0.01645 0.0
H566 H 0.9924 0.62086 0.92894 0.0
H567 H 1.00155 0.63973 0.032 0.0
C568 C 0.05422 0.20569 0.43811 0.0
C569 C 0.03598 0.21715 0.40058 0.0
C570 C 0.04824 0.1889 0.48947 0.0
C571 C 1.02346 0.18344 0.50242 0.0
C572 C 1.00524 0.19739 0.47557 0.0
C573 C 1.01176 0.21422 0.42493 0.0
C574 C 0.06831 0.17489 0.51884 0.0
C575 C 0.97863 0.19234 0.48876 0.0
C576 C 1.00848 0.11872 0.46744 0.0
C577 C 1.00412 0.11546 0.55441 0.0
C578 C 1.01455 0.14082 0.45022 0.0
C579 C 1.01666 0.16016 0.52206 0.0
C580 C 1.01245 0.15697 0.61038 0.0
C581 C 1.00602 0.13462 0.62546 0.0
C582 C 1.01878 0.1434 0.35478 0.0
C583 C 1.01487 0.17704 0.68864 0.0
H584 H 0.07298 0.20805 0.41939 0.0
H585 H 0.99764 0.22302 0.3956 0.0
H586 H 0.06426 0.17032 0.58458 0.0
H587 H 0.06998 0.15837 0.46964 0.0
H588 H 0.08607 0.1845 0.52306 0.0
H589 H 0.96734 0.20744 0.48227 0.0
H590 H 0.97252 0.17718 0.43733 0.0
H591 H 0.97539 0.18779 0.55505 0.0
H592 H 1.00683 0.10393 0.41256 0.0
H593 H 1.00289 0.13201 0.69295 0.0
H594 H 0.03791 0.149 0.34659 0.0
H595 H 1.00697 0.15698 0.3373 0.0
H596 H 1.01504 0.12686 0.30672 0.0
H597 H 0.03329 0.18524 0.68997 0.0
H598 H 1.01168 0.17148 0.75335 0.0
H599 H 1.00167 0.19063 0.68164 0.0
C600 C 0.30265 0.00778 0.49318 0.0
C601 C 0.31124 0.02536 0.44932 0.0
C602 C 0.31806 0.99884 0.55073 0.0
C603 C 0.34225 0.00752 0.56151 0.0
C604 C 0.34866 0.02876 0.53485 0.0
C605 C 0.33269 0.03776 0.47958 0.0
C606 C 0.30995 0.97764 0.58666 0.0
C607 C 0.37391 0.03946 0.5501 0.0
C608 C 0.39591 0.98078 0.65453 0.0
C609 C 0.40541 0.96758 0.57618 0.0
C610 C 0.37415 0.99263 0.65292 0.0
C611 C 0.36189 0.99133 0.57086 0.0
C612 C 0.37056 0.97663 0.49272 0.0
C613 C 0.39216 0.96481 0.4967 0.0
C614 C 0.36501 1.00714 0.73837 0.0
C615 C 0.35823 0.97482 0.40301 0.0
H616 H 0.28557 0.99866 0.47263 0.0
H617 H 0.33877 0.05206 0.4484 0.0
H618 H 0.31542 0.96168 0.53981 0.0
H619 H 0.31864 0.97761 0.65229 0.0
H620 H 0.28988 0.97691 0.59388 0.0
H621 H 0.37465 0.05771 0.53905 0.0
H622 H 0.38031 0.0393 0.61884 0.0
H623 H 0.38665 0.02908 0.503 0.0
H624 H 0.40631 0.98319 0.71598 0.0
H625 H 0.39942 0.95438 0.43648 0.0
H626 H 0.35176 0.99647 0.76905 0.0
H627 H 0.35565 0.02294 0.7274 0.0
H628 H 0.38015 0.0126 0.78644 0.0
H629 H 0.36677 0.96182 0.35015 0.0
H630 H 0.35926 0.99202 0.38244 0.0
H631 H 0.33877 0.96981 0.40703 0.0
C632 C 0.51424 0.31826 0.71125 0.0
C633 C 0.53238 0.30473 0.66393 0.0
C634 C 0.51839 0.34209 0.74613 0.0
C635 C 0.54139 0.35252 0.73459 0.0
C636 C 0.56067 0.33817 0.69803 0.0
C637 C 0.55591 0.3144 0.66273 0.0
C638 C 0.49732 0.35655 0.78559 0.0
C639 C 0.58572 0.34835 0.68784 0.0
C640 C 0.53983 0.41482 0.69301 0.0
C641 C 0.54468 0.42795 0.7782 0.0
C642 C 0.53925 0.39025 0.67774 0.0
C643 C 0.54414 0.37852 0.74895 0.0
C644 C 0.55023 0.39174 0.83405 0.0
C645 C 0.55019 0.41622 0.84779 0.0
C646 C 0.53237 0.37686 0.58609 0.0
C647 C 0.55587 0.38015 0.91174 0.0
H648 H 0.49595 0.3109 0.71112 0.0
H649 H 0.56991 0.30411 0.62519 0.0
H650 H 0.50289 0.36863 0.84791 0.0
H651 H 0.49117 0.36732 0.73768 0.0
H652 H 0.4817 0.34554 0.80039 0.0
H653 H 0.59953 0.3346 0.67386 0.0
H654 H 0.58561 0.3579 0.63167 0.0
H655 H 0.59117 0.36099 0.74897 0.0
H656 H 0.53536 0.42371 0.63923 0.0
H657 H 0.55405 0.42621 0.914 0.0
H658 H 0.51565 0.3661 0.59005 0.0
H659 H 0.547 0.3648 0.55955 0.0
H660 H 0.52907 0.38857 0.53824 0.0
H661 H 0.53872 0.37371 0.93764 0.0
H662 H 0.56502 0.39244 0.96721 0.0
H663 H 0.5676 0.36493 0.89074 0.0
C664 C 0.22648 0.51871 0.5036 0.0
C665 C 0.24598 0.52871 0.46478 0.0
C666 C 0.21335 0.53195 0.57246 0.0
C667 C 0.22038 0.55565 0.60395 0.0
C668 C 0.24263 0.56439 0.57572 0.0
C669 C 0.25513 0.55084 0.50486 0.0
C670 C 0.19012 0.52141 0.60209 0.0
C671 C 0.25206 0.58873 0.61329 0.0
C672 C 0.1612 0.58413 0.60969 0.0
C673 C 0.15276 0.57937 0.69068 0.0
C674 C 0.18543 0.58026 0.58522 0.0
C675 C 0.20131 0.57177 0.64426 0.0
C676 C 0.19405 0.57197 0.73305 0.0
C677 C 0.16952 0.57536 0.75508 0.0
C678 C 0.19271 0.58141 0.49082 0.0
C679 C 0.21116 0.56542 0.80082 0.0
H680 H 0.21997 0.50129 0.47359 0.0
H681 H 0.27064 0.55839 0.47595 0.0
H682 H 0.18975 0.52359 0.67568 0.0
H683 H 0.1742 0.53039 0.5811 0.0
H684 H 0.18799 0.5025 0.57343 0.0
H685 H 0.27208 0.5887 0.62256 0.0
H686 H 0.24839 0.60028 0.56526 0.0
H687 H 0.24358 0.59611 0.6781 0.0
H688 H 0.14828 0.58771 0.56062 0.0
H689 H 0.16306 0.57248 0.81919 0.0
H690 H 0.19474 0.56348 0.45172 0.0
H691 H 0.21041 0.59082 0.49049 0.0
H692 H 0.17904 0.59036 0.45668 0.0
H693 H 0.20889 0.54655 0.80164 0.0
H694 H 0.20693 0.57512 0.86875 0.0
H695 H 0.2304 0.56906 0.78521 0.0
C696 C 0.99915 0.79988 0.18614 0.0
C697 C 1.01552 0.78938 0.2355 0.0
C698 C 1.00721 0.81725 0.14016 0.0
C699 C 0.03211 0.82413 0.14451 0.0
C700 C 0.04904 0.81102 0.18282 0.0
C701 C 0.0405 0.79371 0.228 0.0
C702 C 0.98863 0.83035 0.09786 0.0
C703 C 0.0758 0.81742 0.18744 0.0
C704 C 0.05494 0.87383 0.03461 0.0
C705 C 0.05301 0.89302 0.10504 0.0
C706 C 0.04811 0.85121 0.04563 0.0
C707 C 0.03944 0.84775 0.1294 0.0
C708 C 0.03786 0.86708 0.20111 0.0
C709 C 0.04456 0.88944 0.18784 0.0
C710 C 0.04962 0.83122 0.96717 0.0
C711 C 0.02902 0.86418 0.29215 0.0
H712 H 0.97981 0.79664 0.19256 0.0
H713 H 0.05311 0.78564 0.26676 0.0
H714 H 0.98454 0.84681 0.14451 0.0
H715 H 0.99569 0.83502 0.03545 0.0
H716 H 0.97141 0.82001 0.08275 0.0
H717 H 0.08688 0.80301 0.20262 0.0
H718 H 0.08214 0.82194 0.12385 0.0
H719 H 0.07902 0.83296 0.241 0.0
H720 H 0.06121 0.8766 0.97015 0.0
H721 H 0.04329 0.90421 0.2426 0.0
H722 H 0.03101 0.82556 0.94304 0.0
H723 H 0.05829 0.81603 0.98696 0.0
H724 H 0.05997 0.83618 0.91098 0.0
H725 H 1.01025 0.85666 0.28693 0.0
H726 H 0.02907 0.88097 0.34078 0.0
H727 H 0.04071 0.8519 0.31893 0.0
C728 C 0.74693 0.05472 0.29546 0.0
C729 C 0.75335 0.0634 0.3845 0.0
C730 C 0.72871 0.06532 0.25432 0.0
C731 C 0.71729 0.08512 0.30369 0.0
C732 C 0.72783 0.09679 0.385 0.0
C733 C 0.74554 0.08547 0.42594 0.0
C734 C 0.71884 0.05294 0.16512 0.0
C735 C 0.71766 0.11919 0.43529 0.0
C736 C 0.65807 0.09805 0.19663 0.0
C737 C 0.6416 0.08473 0.23736 0.0
C738 C 0.6827 0.10014 0.22231 0.0
C739 C 0.691 0.08789 0.28767 0.0
C740 C 0.67404 0.07545 0.33204 0.0
C741 C 0.64959 0.07431 0.30695 0.0
C742 C 0.69969 0.11455 0.17606 0.0
C743 C 0.68178 0.06185 0.40189 0.0
H744 H 0.75333 0.03781 0.26294 0.0
H745 H 0.75096 0.09245 0.49433 0.0
H746 H 0.70144 0.04376 0.17502 0.0
H747 H 0.71511 0.06563 0.12173 0.0
H748 H 0.73164 0.03988 0.13029 0.0
H749 H 0.73156 0.12932 0.48063 0.0
H750 H 0.71099 0.13008 0.38857 0.0
H751 H 0.70212 0.11515 0.47642 0.0
H752 H 0.65186 0.10629 0.1431 0.0
H753 H 0.63698 0.06375 0.33776 0.0
H754 H 0.70402 0.10451 0.10889 0.0
H755 H 0.7169 0.11945 0.21364 0.0
H756 H 0.69072 0.1307 0.16629 0.0
H757 H 0.69521 0.04866 0.37339 0.0
H758 H 0.66628 0.05266 0.42785 0.0
H759 H 0.69053 0.07376 0.4591 0.0
C760 C 0.54089 0.67959 0.97854 0.0
C761 C 0.52161 0.69235 0.02123 0.0
C762 C 0.53788 0.65568 0.94204 0.0
C763 C 0.51498 0.64442 0.94778 0.0
C764 C 0.49473 0.65803 0.97925 0.0
C765 C 0.4983 0.68187 0.01573 0.0
C766 C 0.55989 0.64201 0.90715 0.0
C767 C 0.46982 0.64699 0.98402 0.0
C768 C 0.50965 0.58021 0.83656 0.0
C769 C 0.51466 0.56915 0.90814 0.0
C770 C 0.50858 0.60465 0.84878 0.0
C771 C 0.51318 0.61837 0.93436 0.0
C772 C 0.51734 0.60713 0.00752 0.0
C773 C 0.51791 0.58262 0.99353 0.0
C774 C 0.50336 0.61577 0.76957 0.0
C775 C 0.52236 0.62102 0.1 0.0
H776 H 0.55899 0.68753 0.98371 0.0
H777 H 0.4834 0.69161 0.04962 0.0
H778 H 0.56569 0.6315 0.95643 0.0
H779 H 0.55551 0.62975 0.84393 0.0
H780 H 0.57536 0.6536 0.89541 0.0
H781 H 0.4554 0.66019 0.9923 0.0
H782 H 0.46583 0.63368 0.92317 0.0
H783 H 0.46914 0.63808 0.04194 0.0
H784 H 0.50698 0.56972 0.7705 0.0
H785 H 0.52209 0.57404 0.04851 0.0
H786 H 0.48997 0.62978 0.78708 0.0
H787 H 0.49625 0.60285 0.71166 0.0
H788 H 0.52029 0.62393 0.74913 0.0
H789 H 0.53967 0.63118 0.10014 0.0
H790 H 0.52372 0.60968 0.15035 0.0
H791 H 0.50778 0.63367 0.12046 0.0
C792 C 0.81459 0.5439 0.28605 0.0
C793 C 0.81411 0.55729 0.37257 0.0
C794 C 0.83615 0.54261 0.23684 0.0
C795 C 0.85701 0.55529 0.27571 0.0
C796 C 0.85427 0.57334 0.35096 0.0
C797 C 0.83224 0.57467 0.39744 0.0
C798 C 0.83784 0.52407 0.15368 0.0
C799 C 0.87566 0.58809 0.39276 0.0
C800 C 0.90905 0.51473 0.28452 0.0
C801 C 0.92422 0.52004 0.21798 0.0
C802 C 0.88763 0.52681 0.30604 0.0
C803 C 0.88105 0.54442 0.25836 0.0
C804 C 0.89679 0.55029 0.19248 0.0
C805 C 0.9184 0.53808 0.17347 0.0
C806 C 0.87218 0.52061 0.38018 0.0
C807 C 0.89052 0.56887 0.14046 0.0
H808 H 0.8001 0.53119 0.26393 0.0
H809 H 0.83129 0.586 0.46241 0.0
H810 H 0.85117 0.52916 0.10616 0.0
H811 H 0.84393 0.50766 0.17228 0.0
H812 H 0.81988 0.5205 0.11985 0.0
H813 H 0.86966 0.60527 0.42967 0.0
H814 H 0.88466 0.57905 0.44115 0.0
H815 H 0.88926 0.59095 0.34228 0.0
H816 H 0.91395 0.50097 0.31939 0.0
H817 H 0.93036 0.54205 0.12176 0.0
H818 H 0.85306 0.51696 0.35801 0.0
H819 H 0.87256 0.53554 0.43716 0.0
H820 H 0.8788 0.5051 0.40435 0.0
H821 H 0.87413 0.5633 0.09879 0.0
H822 H 0.90555 0.57245 0.09615 0.0
H823 H 0.88614 0.58533 0.18644 0.0
C824 C 0.07219 0.18165 0.07343 0.0
C825 C 0.05098 0.19461 0.08297 0.0
C826 C 0.07197 0.15876 0.02414 0.0
C827 C 0.04982 0.1485 0.98648 0.0
C828 C 0.02896 0.16233 0.98902 0.0
C829 C 0.02988 0.18537 0.03676 0.0
C830 C 0.09485 0.14491 0.01966 0.0
C831 C 1.00495 0.15209 0.95003 0.0
C832 C 0.04653 0.08747 0.84426 0.0
C833 C 0.04122 0.07385 0.90863 0.0
C834 C 0.04982 0.11178 0.86834 0.0
C835 C 0.04739 0.12272 0.95875 0.0
C836 C 0.04208 0.10902 0.02394 0.0
C837 C 0.03933 0.08474 0.99818 0.0
C838 C 0.05614 0.12565 0.79726 0.0
C839 C 0.0387 0.12007 0.12085 0.0
H840 H 0.08845 0.18883 0.10982 0.0
H841 H 1.01341 0.19535 0.04537 0.0
H842 H 0.09363 0.1329 0.06771 0.0
H843 H 0.09707 0.13413 0.95212 0.0
H844 H 0.11125 0.15639 0.03649 0.0
H845 H 0.99161 0.16581 0.94594 0.0
H846 H 1.00738 0.14149 0.88238 0.0
H847 H 0.99725 0.14037 0.99272 0.0
H848 H 0.0482 0.07911 0.77485 0.0
H849 H 0.03501 0.07433 0.04794 0.0
H850 H 0.07511 0.13251 0.80766 0.0
H851 H 0.04428 0.14089 0.80179 0.0
H852 H 0.05449 0.11494 0.72897 0.0
H853 H 0.05544 0.1299 0.14769 0.0
H854 H 0.03436 0.10695 0.16272 0.0
H855 H 1.02377 0.13269 0.12717 0.0
C856 C 0.34138 0.02142 0.07321 0.0
C857 C 0.33525 1.00742 0.1353 0.0
C858 C 0.36444 0.02013 0.03141 0.0
C859 C 0.38207 1.00442 0.05192 0.0
C860 C 0.37552 0.98972 0.1125 0.0
C861 C 0.35233 0.99122 0.15217 0.0
C862 C 0.37004 0.03704 0.97062 0.0
C863 C 0.39372 0.97376 0.14194 0.0
C864 C 0.43877 0.9874 0.90788 0.0
C865 C 0.45686 1.00304 0.95132 0.0
C866 C 0.4145 0.98778 0.93904 0.0
C867 C 0.40775 1.00425 0.01556 0.0
C868 C 0.42586 0.02014 0.05922 0.0
C869 C 0.44995 0.01938 0.02682 0.0
C870 C 0.39603 0.97035 0.89063 0.0
C871 C 0.41981 0.03791 0.14115 0.0
H872 H 0.32878 0.03449 0.06146 0.0
H873 H 0.34805 0.98069 0.2016 0.0
H874 H 0.37119 0.05499 0.01095 0.0
H875 H 0.38729 0.03358 0.93382 0.0
H876 H 0.35493 0.03665 0.92202 0.0
H877 H 0.38532 0.96208 0.18346 0.0
H878 H 0.40246 0.96289 0.08366 0.0
H879 H 0.40832 0.98445 0.18169 0.0
H880 H 0.4436 0.97465 0.84968 0.0
H881 H 0.46348 0.03163 0.06144 0.0
H882 H 0.3801 0.97956 0.87131 0.0
H883 H 0.38928 0.95878 0.93539 0.0
H884 H 0.40362 0.95927 0.83026 0.0
H885 H 0.40618 0.05 0.12374 0.0
H886 H 0.43604 0.04831 0.17035 0.0
H887 H 0.41163 0.02908 0.19259 0.0
C888 C 0.51623 0.29025 0.28819 0.0
C889 C 0.50088 0.28999 0.36117 0.0
C890 C 0.51378 0.30714 0.23432 0.0
C891 C 0.49578 0.32427 0.25476 0.0
C892 C 0.47876 0.32253 0.32276 0.0
C893 C 0.48139 0.30529 0.37445 0.0
C894 C 0.53187 0.30791 0.16083 0.0
C895 C 0.45932 0.34036 0.34751 0.0
C896 C 0.51055 0.38639 0.22609 0.0
C897 C 0.4956 0.38862 0.15404 0.0
C898 C 0.51119 0.36536 0.25776 0.0
C899 C 0.49684 0.34585 0.21541 0.0
C900 C 0.48245 0.34772 0.14024 0.0
C901 C 0.48178 0.36916 0.11108 0.0
C902 C 0.52664 0.36427 0.33858 0.0
C903 C 0.46739 0.32724 0.09177 0.0
H904 H 0.53143 0.27861 0.27795 0.0
H905 H 0.4695 0.30514 0.43086 0.0
H906 H 0.52283 0.31212 0.1011 0.0
H907 H 0.5458 0.3218 0.184 0.0
H908 H 0.54124 0.29109 0.14138 0.0
H909 H 0.44575 0.33493 0.39377 0.0
H910 H 0.46791 0.3572 0.38055 0.0
H911 H 0.4497 0.34344 0.28716 0.0
H912 H 0.52117 0.4014 0.25971 0.0
H913 H 0.47044 0.37072 0.05452 0.0
H914 H 0.53997 0.35021 0.32208 0.0
H915 H 0.51499 0.36001 0.39276 0.0
H916 H 0.53668 0.38096 0.36395 0.0
H917 H 0.47858 0.31145 0.07647 0.0
H918 H 0.45955 0.33064 0.02858 0.0
H919 H 0.45229 0.32334 0.13503 0.0
C920 C 0.20362 0.52374 0.16082 0.0
C921 C 0.21957 0.50493 0.15115 0.0
C922 C 0.18137 0.5222 0.11422 0.0
C923 C 0.1748 0.50156 0.05303 0.0
C924 C 0.19167 0.48316 0.0371 0.0
C925 C 0.2137 0.48493 0.08685 0.0
C926 C 0.16438 0.54241 0.13369 0.0
C927 C 0.18615 0.46137 0.96886 0.0
C928 C 0.10631 0.48893 0.01649 0.0
C929 C 0.10118 0.49916 0.94268 0.0
C930 C 0.13014 0.48914 0.05147 0.0
C931 C 0.1498 0.49908 0.01014 0.0
C932 C 0.14486 0.50855 0.93313 0.0
C933 C 0.12069 0.50891 0.90175 0.0
C934 C 0.13407 0.4796 0.13534 0.0
C935 C 0.16486 0.51898 0.88447 0.0
H936 H 0.20812 0.53956 0.20847 0.0
H937 H 0.22578 0.47032 0.07805 0.0
H938 H 0.16077 0.54907 0.07179 0.0
H939 H 0.14669 0.53651 0.15755 0.0
H940 H 0.17184 0.55702 0.18485 0.0
H941 H 0.20197 0.44977 0.95717 0.0
H942 H 0.17066 0.45156 0.99162 0.0
H943 H 0.18068 0.46606 0.90467 0.0
H944 H 0.09147 0.48148 0.04926 0.0
H945 H 0.11714 0.51673 0.8445 0.0
H946 H 0.14098 0.49377 0.18932 0.0
H947 H 0.148 0.46597 0.12401 0.0
H948 H 0.11712 0.47198 0.15849 0.0
H949 H 0.16066 0.51649 0.8121 0.0
H950 H 0.18273 0.51125 0.89269 0.0
H951 H 0.16639 0.53802 0.91081 0.0
C952 C 0.98093 0.82222 0.59938 0.0
C953 C 1.00206 0.8133 0.55602 0.0
C954 C 0.98121 0.84458 0.65341 0.0
C955 C 1.00299 0.85826 0.66255 0.0
C956 C 0.02486 0.84825 0.62689 0.0
C957 C 1.02416 0.82574 0.57502 0.0
C958 C 0.95773 0.85432 0.69352 0.0
C959 C 0.04852 0.86217 0.63483 0.0
C960 C 1.00004 0.92299 0.66313 0.0
C961 C 1.00787 0.93256 0.7498 0.0
C962 C 0.99766 0.89875 0.6348 0.0
C963 C 1.00242 0.88386 0.69577 0.0
C964 C 1.00881 0.89357 0.78512 0.0
C965 C 1.01193 0.91785 0.81066 0.0
C966 C 0.99133 0.88906 0.53829 0.0
C967 C 1.01319 0.87835 0.85277 0.0
H968 H 0.96382 0.81262 0.58513 0.0
H969 H 0.04059 0.81864 0.54263 0.0
H970 H 0.96085 0.86481 0.7614 0.0
H971 H 0.95011 0.86598 0.65162 0.0
H972 H 0.94403 0.84026 0.6973 0.0
H973 H 0.06427 0.85106 0.61232 0.0
H974 H 0.04752 0.87575 0.59323 0.0
H975 H 0.05185 0.8712 0.70464 0.0
H976 H 0.99705 0.93441 0.61614 0.0
H977 H 1.01775 0.92534 0.87816 0.0
H978 H 0.97506 0.87731 0.53385 0.0
H979 H 1.00654 0.87855 0.50596 0.0
H980 H 0.98769 0.903 0.50009 0.0
H981 H 1.01446 0.88866 0.92181 0.0
H982 H 0.03038 0.86896 0.83738 0.0
H983 H 0.99838 0.86498 0.84981 0.0
C984 C 0.71175 0.03302 0.65078 0.0
C985 C 0.72321 0.01486 0.59268 0.0
C986 C 0.68912 0.02965 0.69008 0.0
C987 C 0.67753 1.00731 0.6737 0.0
C988 C 0.68978 0.98845 0.62047 0.0
C989 C 0.71232 0.99245 0.58021 0.0
C990 C 0.67696 0.05045 0.74498 0.0
C991 C 0.67855 0.9642 0.60272 0.0
C992 C 0.6234 0.99928 0.82574 0.0
C993 C 0.60331 1.00196 0.77188 0.0
C994 C 0.64751 1.0001 0.7939 0.0
C995 C 0.65192 1.00432 0.70667 0.0
C996 C 0.63169 1.00714 0.65234 0.0
C997 C 0.60782 1.00565 0.68497 0.0
C998 C 0.66831 0.99656 0.85394 0.0
C999 C 0.63524 0.01234 0.56005 0.0
H1000 H 0.72005 0.05037 0.66244 0.0
H1001 H 0.72075 0.97826 0.53544 0.0
H1002 H 0.6601 0.05408 0.71065 0.0
H1003 H 0.67162 0.04674 0.8109 0.0
H1004 H 0.68886 0.06639 0.75571 0.0
H1005 H 0.69151 0.95095 0.57044 0.0
H1006 H 0.67214 0.95944 0.66587 0.0
H1007 H 0.66249 0.96363 0.55833 0.0
H1008 H 0.62028 0.99631 0.89273 0.0
H1009 H 0.5926 0.00794 0.64264 0.0
H1010 H 0.67955 0.01283 0.87092 0.0
H1011 H 0.68024 0.98275 0.81884 0.0
H1012 H 0.66193 0.99161 0.91688 0.0
H1013 H 0.64589 0.0289 0.5643 0.0
H1014 H 0.61773 0.01389 0.52566 0.0
H1015 H 0.64577 0.99837 0.51864 0.0
C1016 C 0.56541 0.70315 0.36513 0.0
C1017 C 0.5417 0.70578 0.33539 0.0
C1018 C 0.57061 0.68581 0.41455 0.0
C1019 C 0.5517 0.67062 0.43368 0.0
C1020 C 0.52743 0.67479 0.41147 0.0
C1021 C 0.52272 0.69246 0.36351 0.0
C1022 C 0.59665 0.68246 0.43921 0.0
C1023 C 0.50665 0.65905 0.42975 0.0
C1024 C 0.56589 0.6069 0.42834 0.0
C1025 C 0.56454 0.60538 0.51865 0.0
C1026 C 0.56223 0.62813 0.4004 0.0
C1027 C 0.55746 0.64852 0.46437 0.0
C1028 C 0.55688 0.64726 0.55601 0.0
C1029 C 0.56027 0.6257 0.58196 0.0
C1030 C 0.56286 0.6286 0.30194 0.0
C1031 C 0.55229 0.66858 0.62651 0.0
H1032 H 0.58021 0.71325 0.34331 0.0
H1033 H 0.50434 0.69449 0.34101 0.0
H1034 H 0.59788 0.67855 0.50732 0.0
H1035 H 0.60402 0.66741 0.39216 0.0
H1036 H 0.60825 0.6981 0.43605 0.0
H1037 H 0.48869 0.66643 0.41952 0.0
H1038 H 0.50788 0.6419 0.38402 0.0
H1039 H 0.50766 0.65589 0.49894 0.0
H1040 H 0.56901 0.59127 0.37905 0.0
H1041 H 0.55956 0.62473 0.65206 0.0
H1042 H 0.57796 0.64028 0.28805 0.0
H1043 H 0.54575 0.63574 0.28131 0.0
H1044 H 0.56534 0.61102 0.26036 0.0
H1045 H 0.56531 0.68287 0.61917 0.0
H1046 H 0.55395 0.66501 0.69513 0.0
H1047 H 0.53376 0.6749 0.61792 0.0
C1048 C 0.84629 0.53285 0.67141 0.0
C1049 C 0.8343 0.51562 0.60802 0.0
C1050 C 0.86943 0.52933 0.70547 0.0
C1051 C 0.88117 0.5079 0.67627 0.0
C1052 C 0.86852 0.48987 0.61647 0.0
C1053 C 0.84535 0.49397 0.58281 0.0
C1054 C 0.88201 0.5492 0.76826 0.0
C1055 C 0.88001 0.46666 0.58398 0.0
C1056 C 0.95101 0.51019 0.68067 0.0
C1057 C 0.95654 0.50307 0.76116 0.0
C1058 C 0.92674 0.51146 0.65185 0.0
C1059 C 0.9072 0.50517 0.70379 0.0
C1060 C 0.91266 0.49748 0.78411 0.0
C1061 C 0.93709 0.49666 0.81192 0.0
C1062 C 0.92203 0.51984 0.56594 0.0
C1063 C 0.89262 0.49034 0.8414 0.0
H1064 H 0.8381 0.54976 0.69024 0.0
H1065 H 0.83659 0.48074 0.53238 0.0
H1066 H 0.88863 0.54325 0.82856 0.0
H1067 H 0.89811 0.55539 0.73489 0.0
H1068 H 0.86989 0.56415 0.78945 0.0
H1069 H 0.86668 0.4534 0.5491 0.0
H1070 H 0.89483 0.4688 0.53691 0.0
H1071 H 0.88818 0.46005 0.64049 0.0
H1072 H 0.9657 0.51518 0.64047 0.0
H1073 H 0.94093 0.491 0.87395 0.0
H1074 H 0.9096 0.53478 0.57789 0.0
H1075 H 0.91296 0.50569 0.51723 0.0
H1076 H 0.93901 0.52531 0.53559 0.0
H1077 H 0.88127 0.50555 0.86729 0.0
H1078 H 0.89978 0.48341 0.89892 0.0
H1079 H 0.88059 0.47682 0.80088 0.0
loop_
_geom_bond_atom_site_label_1
_geom_bond_atom_site_label_2
_geom_bond_distance
_geom_bond_site_symmetry_2
_ccdc_geom_bond_type
H0 C1 0.949 . S
C1 H0 0.949 . S
C1 C2 1.395 . S
C1 C3 1.391 . S
C2 C1 1.395 . S
C2 C5 1.390 . S
C3 C1 1.391 . S
C3 C7 1.387 . S
C3 C8 1.491 . S
H4 C5 0.950 . S
C5 C2 1.390 . S
C5 H4 0.950 . S
C5 C6 1.378 . S
C6 C5 1.378 . S
C6 C7 1.409 . S
C7 C3 1.387 . S
C7 C6 1.409 . S
C7 H9 0.951 . S
C8 C3 1.491 . S
C8 C10 1.382 . S
C8 C12 1.404 . S
H9 C7 0.951 . S
C10 C8 1.382 . S
C10 C11 1.390 . S
C10 H15 0.949 . S
C11 C10 1.390 . S
C11 C16 1.399 . S
C12 C8 1.404 . S
C12 H13 0.950 . S
C12 C14 1.375 . S
H13 C12 0.950 . S
C14 C12 1.375 . S
C14 C16 1.382 . S
C14 H18 0.950 . S
H15 C10 0.949 . S
C16 C11 1.399 . S
C16 C14 1.382 . S
C16 H17 0.952 . S
H17 C16 0.952 . S
H18 C14 0.950 . S
H19 C20 0.949 . S
C20 H19 0.949 . S
C20 C21 1.395 . S
C20 C22 1.391 . S
C21 C20 1.395 . S
C21 C24 1.390 . S
C22 C20 1.391 . S
C22 C26 1.387 . S
C22 C27 1.491 . S
H23 C24 0.946 1_455 S
C24 C21 1.390 . S
C24 H23 0.946 1_655 S
C24 C25 1.378 . S
C25 C24 1.378 . S
C25 C26 1.409 . S
C26 C22 1.387 . S
C26 C25 1.409 . S
C26 H28 0.951 . S
C27 C22 1.491 . S
C27 C29 1.382 . S
C27 C31 1.404 . S
H28 C26 0.951 . S
C29 C27 1.382 . S
C29 C30 1.390 . S
C29 H34 0.949 1_655 S
C30 C29 1.390 . S
C30 C35 1.399 . S
C31 C27 1.404 . S
C31 H32 0.950 . S
C31 C33 1.375 . S
H32 C31 0.950 . S
C33 C31 1.375 . S
C33 C35 1.382 . S
C33 H37 0.950 . S
H34 C29 0.949 1_455 S
C35 C30 1.399 . S
C35 C33 1.382 . S
C35 H36 0.952 . S
H36 C35 0.952 . S
H37 C33 0.950 . S
H38 C39 0.949 . S
C39 H38 0.949 . S
C39 C40 1.395 . S
C39 C41 1.391 . S
C40 C39 1.395 . S
C40 C43 1.391 1_565 S
C41 C39 1.391 . S
C41 C45 1.387 . S
C41 C46 1.491 . S
H42 C43 0.950 . S
C43 C40 1.391 1_545 S
C43 H42 0.950 . S
C43 C44 1.373 1_545 S
C44 C43 1.373 1_565 S
C44 C45 1.413 . S
C45 C41 1.387 . S
C45 C44 1.413 . S
C45 H47 0.951 . S
C46 C41 1.491 . S
C46 C48 1.382 . S
C46 C50 1.404 . S
H47 C45 0.951 . S
C48 C46 1.382 . S
C48 C49 1.390 . S
C48 H53 0.949 1_565 S
C49 C48 1.390 . S
C49 C54 1.399 . S
C50 C46 1.404 . S
C50 H51 0.950 . S
C50 C52 1.375 . S
H51 C50 0.950 . S
C52 C50 1.375 . S
C52 C54 1.382 . S
C52 H56 0.950 . S
H53 C48 0.949 1_545 S
C54 C49 1.399 . S
C54 C52 1.382 . S
C54 H55 0.952 . S
H55 C54 0.952 . S
H56 C52 0.950 . S
H57 C58 0.949 . S
C58 H57 0.949 . S
C58 C59 1.395 . S
C58 C60 1.391 1_556 S
C59 C58 1.395 . S
C59 C62 1.390 1_556 S
C60 C58 1.391 1_554 S
C60 C64 1.387 . S
C60 C65 1.491 . S
H61 C62 0.950 . S
C62 C59 1.390 1_554 S
C62 H61 0.950 . S
C62 C63 1.378 . S
C63 C62 1.378 . S
C63 C64 1.409 . S
C64 C60 1.387 . S
C64 C63 1.409 . S
C64 H66 0.951 . S
C65 C60 1.491 . S
C65 C67 1.382 1_554 S
C65 C69 1.404 . S
H66 C64 0.951 . S
C67 C65 1.382 1_556 S
C67 C68 1.390 . S
C67 H72 0.949 . S
C68 C67 1.390 . S
C68 C73 1.399 1_556 S
C69 C65 1.404 . S
C69 H70 0.950 . S
C69 C71 1.375 . S
H70 C69 0.950 . S
C71 C69 1.375 . S
C71 C73 1.382 . S
C71 H75 0.950 . S
H72 C67 0.949 . S
C73 C68 1.399 1_554 S
C73 C71 1.382 . S
C73 H74 0.952 . S
H74 C73 0.952 . S
H75 C71 0.950 . S
H76 C77 0.949 . S
C77 H76 0.949 . S
C77 C78 1.395 . S
C77 C79 1.391 . S
C78 C77 1.395 . S
C78 C81 1.390 . S
C79 C77 1.391 . S
C79 C83 1.387 . S
C79 C84 1.491 . S
H80 C81 0.950 . S
C81 C78 1.390 . S
C81 H80 0.950 . S
C81 C82 1.378 . S
C82 C81 1.378 . S
C82 C83 1.409 . S
C83 C79 1.387 . S
C83 C82 1.409 . S
C83 H85 0.951 . S
C84 C79 1.491 . S
C84 C86 1.382 . S
C84 C88 1.404 . S
H85 C83 0.951 . S
C86 C84 1.382 . S
C86 C87 1.390 . S
C86 H91 0.949 . S
C87 C86 1.390 . S
C87 C92 1.399 . S
C88 C84 1.404 . S
C88 H89 0.950 . S
C88 C90 1.375 . S
H89 C88 0.950 . S
C90 C88 1.375 . S
C90 C92 1.382 . S
C90 H94 0.950 . S
H91 C86 0.949 . S
C92 C87 1.399 . S
C92 C90 1.382 . S
C92 H93 0.952 . S
H93 C92 0.952 . S
H94 C90 0.950 . S
H95 C96 0.949 . S
C96 H95 0.949 . S
C96 C97 1.395 . S
C96 C98 1.391 . S
C97 C96 1.395 . S
C97 C100 1.390 . S
C98 C96 1.391 . S
C98 C102 1.387 . S
C98 C103 1.492 1_455 S
H99 C100 0.950 . S
C100 C97 1.390 . S
C100 H99 0.950 . S
C100 C101 1.378 . S
C101 C100 1.378 . S
C101 C102 1.409 . S
C102 C98 1.387 . S
C102 C101 1.409 . S
C102 H104 0.951 . S
C103 C98 1.492 1_655 S
C103 C105 1.383 1_655 S
C103 C107 1.401 . S
H104 C102 0.951 . S
C105 C103 1.383 1_455 S
C105 C106 1.390 . S
C105 H110 0.949 . S
C106 C105 1.390 . S
C106 C111 1.399 1_455 S
C107 C103 1.401 . S
C107 H108 0.950 . S
C107 C109 1.375 . S
H108 C107 0.950 . S
C109 C107 1.375 . S
C109 C111 1.382 . S
C109 H113 0.950 . S
H110 C105 0.949 . S
C111 C106 1.399 1_655 S
C111 C109 1.382 . S
C111 H112 0.952 . S
H112 C111 0.952 . S
H113 C109 0.950 . S
H114 C115 0.949 . S
C115 H114 0.949 . S
C115 C116 1.395 1_565 S
C115 C117 1.391 . S
C116 C115 1.395 1_545 S
C116 C119 1.389 . S
C117 C115 1.391 . S
C117 C121 1.387 . S
C117 C122 1.491 . S
H118 C119 0.950 . S
C119 C116 1.389 . S
C119 H118 0.950 . S
C119 C120 1.379 1_545 S
C120 C119 1.379 1_565 S
C120 C121 1.410 . S
C121 C117 1.387 . S
C121 C120 1.410 . S
C121 H123 0.951 . S
C122 C117 1.491 . S
C122 C124 1.396 . S
C122 C126 1.404 . S
H123 C121 0.951 . S
C124 C122 1.396 . S
C124 C125 1.399 . S
C124 H129 0.927 1_565 S
C125 C124 1.399 . S
C125 C130 1.399 . S
C126 C122 1.404 . S
C126 H127 0.950 . S
C126 C128 1.375 . S
H127 C126 0.950 . S
C128 C126 1.375 . S
C128 C130 1.382 . S
C128 H132 0.950 . S
H129 C124 0.927 1_545 S
C130 C125 1.399 . S
C130 C128 1.382 . S
C130 H131 0.952 . S
H131 C130 0.952 . S
H132 C128 0.950 . S
H133 C134 0.949 . S
C134 H133 0.949 . S
C134 C135 1.395 . S
C134 C136 1.391 . S
C135 C134 1.395 . S
C135 C138 1.390 . S
C136 C134 1.391 . S
C136 C140 1.387 . S
C136 C141 1.491 . S
H137 C138 0.950 . S
C138 C135 1.390 . S
C138 H137 0.950 . S
C138 C139 1.378 . S
C139 C138 1.378 . S
C139 C140 1.409 . S
C140 C136 1.387 . S
C140 C139 1.409 . S
C140 H142 0.951 . S
C141 C136 1.491 . S
C141 C143 1.382 . S
C141 C145 1.404 . S
H142 C140 0.951 . S
C143 C141 1.382 . S
C143 C144 1.390 . S
C143 H148 0.949 . S
C144 C143 1.390 . S
C144 C149 1.399 . S
C145 C141 1.404 . S
C145 H146 0.950 . S
C145 C147 1.375 . S
H146 C145 0.950 . S
C147 C145 1.375 . S
C147 C149 1.382 . S
C147 H151 0.950 . S
H148 C143 0.949 . S
C149 C144 1.399 . S
C149 C147 1.382 . S
C149 H150 0.952 . S
H150 C149 0.952 . S
H151 C147 0.950 . S
Tb152 C161 2.764 . S
Tb152 O162 2.325 . S
Tb152 O165 2.303 1_655 S
Tb152 O169 2.322 1_545 S
Tb152 O170 2.349 . S
Tb152 O173 2.415 1_655 S
Tb152 O174 2.399 . S
Tb153 O163 2.322 1_565 S
Tb153 O164 2.349 . S
Tb153 O166 2.415 1_556 S
Tb153 O167 2.399 . S
Tb153 O168 2.325 . S
Tb153 O171 2.303 1_455 S
Tb153 C182 2.764 1_556 S
C154 O170 1.274 . S
C154 O171 1.252 1_545 S
C155 C158 1.358 . S
C155 C159 1.308 1_655 S
C155 C161 1.504 . S
C156 C157 1.373 . S
C156 C160 1.308 . S
C157 C156 1.373 . S
C157 C158 1.429 . S
C157 H184 0.932 . S
C158 C155 1.358 . S
C158 C157 1.429 . S
C158 H185 0.930 . S
C159 C155 1.308 1_455 S
C159 C160 1.392 1_455 S
C159 H186 0.960 . S
C160 C156 1.308 . S
C160 C159 1.392 1_655 S
C160 H187 0.929 1_655 S
C161 Tb152 2.764 . S
C161 C155 1.504 . S
C161 O173 1.239 1_655 S
C161 O174 1.263 . S
O162 Tb152 2.325 . S
O162 C172 1.236 1_655 S
O163 Tb153 2.322 1_545 S
O163 C172 1.257 . S
O164 Tb153 2.349 . S
O164 C175 1.267 . S
O165 Tb152 2.303 1_455 S
O165 C175 1.255 1_545 S
O166 Tb153 2.415 1_554 S
O166 C182 1.239 . S
O167 Tb153 2.399 . S
O167 C182 1.263 1_556 S
O168 Tb153 2.325 . S
O168 C183 1.236 1_455 S
O169 Tb152 2.322 1_565 S
O169 C183 1.257 . S
O170 Tb152 2.349 . S
O170 C154 1.274 . S
O171 Tb153 2.303 1_655 S
O171 C154 1.252 1_565 S
C172 O162 1.236 1_455 S
C172 O163 1.257 . S
O173 Tb152 2.415 1_455 S
O173 C161 1.239 1_455 S
O174 Tb152 2.399 . S
O174 C161 1.263 . S
C175 O164 1.267 . S
C175 O165 1.255 1_565 S
C176 C179 1.358 . S
C176 C180 1.332 . S
C176 C182 1.504 . S
C177 C178 1.373 . S
C177 C181 1.308 . S
C178 C177 1.373 . S
C178 C179 1.429 . S
C178 H188 0.932 . S
C179 C176 1.358 . S
C179 C178 1.429 . S
C179 H189 0.930 . S
C180 C176 1.332 . S
C180 C181 1.394 . S
C180 H190 0.932 1_455 S
C181 C177 1.308 . S
C181 C180 1.394 . S
C181 H191 0.929 1_455 S
C182 Tb153 2.764 1_554 S
C182 O166 1.239 . S
C182 O167 1.263 1_554 S
C182 C176 1.504 . S
C183 O168 1.236 1_655 S
C183 O169 1.257 . S
H184 C157 0.932 . S
H185 C158 0.930 . S
H186 C159 0.960 . S
H187 C160 0.929 1_455 S
H188 C178 0.932 . S
H189 C179 0.930 . S
H190 C180 0.932 1_655 S
H191 C181 0.929 1_655 S
Tb192 C201 2.764 . S
Tb192 O202 2.325 . S
Tb192 O205 2.303 1_565 S
Tb192 O209 2.322 . S
Tb192 O210 2.349 . S
Tb192 O213 2.415 1_565 S
Tb192 O214 2.399 . S
Tb193 O203 2.322 . S
Tb193 O204 2.349 . S
Tb193 O206 2.415 1_546 S
Tb193 O207 2.399 1_556 S
Tb193 O208 2.325 . S
Tb193 O211 2.303 1_545 S
Tb193 C222 2.764 1_556 S
C194 O210 1.261 . S
C194 O211 1.257 . S
C195 C198 1.358 . S
C195 C199 1.332 1_565 S
C195 C201 1.504 . S
C196 C197 1.373 . S
C196 C200 1.308 1_565 S
C197 C196 1.373 . S
C197 C198 1.429 . S
C197 H224 0.932 . S
C198 C195 1.358 . S
C198 C197 1.429 . S
C198 H225 0.930 . S
C199 C195 1.332 1_545 S
C199 C200 1.394 . S
C199 H226 0.932 . S
C200 C196 1.308 1_545 S
C200 C199 1.394 . S
C200 H227 0.929 . S
C201 Tb192 2.764 . S
C201 C195 1.504 . S
C201 O213 1.239 1_565 S
C201 O214 1.263 . S
O202 Tb192 2.325 . S
O202 C212 1.236 1_565 S
O203 Tb193 2.322 . S
O203 C212 1.257 . S
O204 Tb193 2.349 . S
O204 C215 1.261 . S
O205 Tb192 2.303 1_545 S
O205 C215 1.257 . S
O206 Tb193 2.415 1_564 S
O206 C222 1.239 1_565 S
O207 Tb193 2.399 1_554 S
O207 C222 1.263 . S
O208 Tb193 2.325 . S
O208 C223 1.236 1_545 S
O209 Tb192 2.322 . S
O209 C223 1.257 . S
O210 Tb192 2.349 . S
O210 C194 1.261 . S
O211 Tb193 2.303 1_565 S
O211 C194 1.257 . S
C212 O202 1.236 1_545 S
C212 O203 1.257 . S
O213 Tb192 2.415 1_545 S
O213 C201 1.239 1_545 S
O214 Tb192 2.399 . S
O214 C201 1.263 . S
C215 O204 1.261 . S
C215 O205 1.257 . S
C216 C219 1.358 . S
C216 C220 1.332 1_545 S
C216 C222 1.504 . S
C217 C218 1.373 . S
C217 C221 1.308 1_545 S
C218 C217 1.373 . S
C218 C219 1.429 . S
C218 H228 0.932 . S
C219 C216 1.358 . S
C219 C218 1.429 . S
C219 H229 0.930 . S
C220 C216 1.332 1_565 S
C220 C221 1.394 . S
C220 H230 0.932 . S
C221 C217 1.308 1_565 S
C221 C220 1.394 . S
C221 H231 0.929 . S
C222 Tb193 2.764 1_554 S
C222 O206 1.239 1_545 S
C222 O207 1.263 . S
C222 C216 1.504 . S
C223 O208 1.236 1_565 S
C223 O209 1.257 . S
H224 C197 0.932 . S
H225 C198 0.930 . S
H226 C199 0.932 . S
H227 C200 0.929 . S
H228 C218 0.932 . S
H229 C219 0.930 . S
H230 C220 0.932 . S
H231 C221 0.929 . S
Tb232 C241 2.764 1_556 S
Tb232 O242 2.325 . S
Tb232 O245 2.303 . S
Tb232 O249 2.322 . S
Tb232 O250 2.349 . S
Tb232 O253 2.415 1_556 S
Tb232 O254 2.399 1_556 S
Tb233 O243 2.322 . S
Tb233 O244 2.349 . S
Tb233 O246 2.415 . S
Tb233 O247 2.399 . S
Tb233 O248 2.325 . S
Tb233 O251 2.303 . S
Tb233 C262 2.764 . S
C234 O250 1.261 . S
C234 O251 1.257 . S
C235 C238 1.358 . S
C235 C239 1.332 . S
C235 C241 1.504 . S
C236 C237 1.373 . S
C236 C240 1.308 . S
C237 C236 1.373 . S
C237 C238 1.429 . S
C237 H264 0.932 . S
C238 C235 1.358 . S
C238 C237 1.429 . S
C238 H265 0.930 . S
C239 C235 1.332 . S
C239 C240 1.394 . S
C239 H266 0.932 . S
C240 C236 1.308 . S
C240 C239 1.394 . S
C240 H267 0.929 . S
C241 Tb232 2.764 1_554 S
C241 C235 1.504 . S
C241 O253 1.239 . S
C241 O254 1.263 . S
O242 Tb232 2.325 . S
O242 C252 1.236 . S
O243 Tb233 2.322 . S
O243 C252 1.257 . S
O244 Tb233 2.349 . S
O244 C255 1.261 . S
O245 Tb232 2.303 . S
O245 C255 1.257 . S
O246 Tb233 2.415 . S
O246 C262 1.239 . S
O247 Tb233 2.399 . S
O247 C262 1.263 . S
O248 Tb233 2.325 . S
O248 C263 1.236 . S
O249 Tb232 2.322 . S
O249 C263 1.257 . S
O250 Tb232 2.349 . S
O250 C234 1.261 . S
O251 Tb233 2.303 . S
O251 C234 1.257 . S
C252 O242 1.236 . S
C252 O243 1.257 . S
O253 Tb232 2.415 1_554 S
O253 C241 1.239 . S
O254 Tb232 2.399 1_554 S
O254 C241 1.263 . S
C255 O244 1.261 . S
C255 O245 1.257 . S
C256 C259 1.358 . S
C256 C260 1.332 . S
C256 C262 1.504 . S
C257 C258 1.373 . S
C257 C261 1.308 . S
C258 C257 1.373 . S
C258 C259 1.429 . S
C258 H268 0.932 . S
C259 C256 1.358 . S
C259 C258 1.429 . S
C259 H269 0.930 . S
C260 C256 1.332 . S
C260 C261 1.394 . S
C260 H270 0.932 . S
C261 C257 1.308 . S
C261 C260 1.394 . S
C261 H271 0.929 . S
C262 Tb233 2.764 . S
C262 O246 1.239 . S
C262 O247 1.263 . S
C262 C256 1.504 . S
C263 O248 1.236 . S
C263 O249 1.257 . S
H264 C237 0.932 . S
H265 C238 0.930 . S
H266 C239 0.932 . S
H267 C240 0.929 . S
H268 C258 0.932 . S
H269 C259 0.930 . S
H270 C260 0.932 . S
H271 C261 0.929 . S
Tb272 C281 2.764 . S
Tb272 O282 2.325 . S
Tb272 O285 2.303 . S
Tb272 O289 2.322 1_455 S
Tb272 O290 2.349 . S
Tb272 O293 2.415 . S
Tb272 O294 2.399 . S
Tb273 O283 2.322 1_655 S
Tb273 O284 2.349 . S
Tb273 O286 2.415 1_556 S
Tb273 O287 2.399 . S
Tb273 O288 2.325 . S
Tb273 O291 2.294 1_655 S
Tb273 C302 2.764 1_556 S
C274 O290 1.261 . S
C274 O291 1.264 . S
C275 C278 1.358 . S
C275 C279 1.332 . S
C275 C281 1.504 . S
C276 C277 1.373 . S
C276 C280 1.308 . S
C277 C276 1.373 . S
C277 C278 1.429 . S
C277 H304 0.932 . S
C278 C275 1.358 . S
C278 C277 1.429 . S
C278 H305 0.930 . S
C279 C275 1.332 . S
C279 C280 1.394 . S
C279 H306 0.932 . S
C280 C276 1.308 . S
C280 C279 1.394 . S
C280 H307 0.929 . S
C281 Tb272 2.764 . S
C281 C275 1.504 . S
C281 O293 1.239 . S
C281 O294 1.263 . S
O282 Tb272 2.325 . S
O282 C292 1.236 . S
O283 Tb273 2.322 1_455 S
O283 C292 1.257 . S
O284 Tb273 2.349 . S
O284 C295 1.261 1_655 S
O285 Tb272 2.303 . S
O285 C295 1.257 . S
O286 Tb273 2.415 1_554 S
O286 C302 1.239 . S
O287 Tb273 2.399 . S
O287 C302 1.263 1_556 S
O288 Tb273 2.325 . S
O288 C303 1.236 . S
O289 Tb272 2.322 1_655 S
O289 C303 1.257 . S
O290 Tb272 2.349 . S
O290 C274 1.261 . S
O291 Tb273 2.294 1_455 S
O291 C274 1.264 . S
C292 O282 1.236 . S
C292 O283 1.257 . S
O293 Tb272 2.415 . S
O293 C281 1.239 . S
O294 Tb272 2.399 . S
O294 C281 1.263 . S
C295 O284 1.261 1_455 S
C295 O285 1.257 . S
C296 C299 1.358 . S
C296 C300 1.332 . S
C296 C302 1.504 . S
C297 C298 1.373 . S
C297 C301 1.308 . S
C298 C297 1.373 . S
C298 C299 1.429 . S
C298 H308 0.932 . S
C299 C296 1.358 . S
C299 C298 1.429 . S
C299 H309 0.930 . S
C300 C296 1.332 . S
C300 C301 1.394 . S
C300 H310 0.932 . S
C301 C297 1.308 . S
C301 C300 1.394 . S
C301 H311 0.929 . S
C302 Tb273 2.764 1_554 S
C302 O286 1.239 . S
C302 O287 1.263 1_554 S
C302 C296 1.504 . S
C303 O288 1.236 . S
C303 O289 1.257 . S
H304 C277 0.932 . S
H305 C278 0.930 . S
H306 C279 0.932 . S
H307 C280 0.929 . S
H308 C298 0.932 . S
H309 C299 0.930 . S
H310 C300 0.932 . S
H311 C301 0.929 . S
C312 C313 1.391 1_545 S
C312 C314 1.394 . S
C312 H328 0.931 . S
C313 C312 1.391 1_565 S
C313 C317 1.376 . S
C314 C312 1.394 . S
C314 C315 1.369 1_545 S
C314 C318 1.531 . S
C315 C314 1.369 1_565 S
C315 C316 1.410 . S
C315 C323 1.503 . S
C316 C315 1.410 . S
C316 C317 1.392 . S
C316 C319 1.511 . S
C317 C313 1.376 . S
C317 C316 1.392 . S
C317 H329 0.929 . S
C318 C314 1.531 . S
C318 H330 0.960 . S
C318 H331 0.962 . S
C318 H332 0.960 . S
C319 C316 1.511 . S
C319 H333 0.961 . S
C319 H334 0.961 . S
C319 H335 0.961 . S
C320 C321 1.370 . S
C320 C322 1.363 . S
C320 H336 0.931 . S
C321 C320 1.370 . S
C321 C325 1.408 1_545 S
C322 C320 1.363 . S
C322 C323 1.370 1_545 S
C322 C326 1.524 . S
C323 C315 1.503 . S
C323 C322 1.370 1_565 S
C323 C324 1.403 . S
C324 C323 1.403 . S
C324 C325 1.404 . S
C324 C327 1.539 . S
C325 C321 1.408 1_565 S
C325 C324 1.404 . S
C325 H337 0.930 . S
C326 C322 1.524 . S
C326 H338 0.956 . S
C326 H339 0.961 . S
C326 H340 0.961 . S
C327 C324 1.539 . S
C327 H341 0.958 . S
C327 H342 0.961 . S
C327 H343 0.960 . S
H328 C312 0.931 . S
H329 C317 0.929 . S
H330 C318 0.960 . S
H331 C318 0.962 . S
H332 C318 0.960 . S
H333 C319 0.961 . S
H334 C319 0.961 . S
H335 C319 0.961 . S
H336 C320 0.931 . S
H337 C325 0.930 . S
H338 C326 0.956 . S
H339 C326 0.961 . S
H340 C326 0.961 . S
H341 C327 0.958 . S
H342 C327 0.961 . S
H343 C327 0.960 . S
C344 C345 1.391 . S
C344 C346 1.394 . S
C344 H360 0.931 . S
C345 C344 1.391 . S
C345 C349 1.376 . S
C346 C344 1.394 . S
C346 C347 1.369 . S
C346 C350 1.531 . S
C347 C346 1.369 . S
C347 C348 1.410 . S
C347 C355 1.503 . S
C348 C347 1.410 . S
C348 C349 1.392 . S
C348 C351 1.511 . S
C349 C345 1.376 . S
C349 C348 1.392 . S
C349 H361 0.929 . S
C350 C346 1.531 . S
C350 H362 0.960 . S
C350 H363 0.962 . S
C350 H364 0.960 . S
C351 C348 1.511 . S
C351 H365 0.961 . S
C351 H366 0.961 . S
C351 H367 0.961 . S
C352 C353 1.370 . S
C352 C354 1.363 . S
C352 H368 0.931 . S
C353 C352 1.370 . S
C353 C357 1.408 . S
C354 C352 1.363 . S
C354 C355 1.370 . S
C354 C358 1.524 . S
C355 C347 1.503 . S
C355 C354 1.370 . S
C355 C356 1.403 . S
C356 C355 1.403 . S
C356 C357 1.404 . S
C356 C359 1.539 . S
C357 C353 1.408 . S
C357 C356 1.404 . S
C357 H369 0.930 . S
C358 C354 1.524 . S
C358 H370 0.956 . S
C358 H371 0.961 . S
C358 H372 0.961 . S
C359 C356 1.539 . S
C359 H373 0.958 . S
C359 H374 0.961 . S
C359 H375 0.960 . S
H360 C344 0.931 . S
H361 C349 0.929 . S
H362 C350 0.960 . S
H363 C350 0.962 . S
H364 C350 0.960 . S
H365 C351 0.961 . S
H366 C351 0.961 . S
H367 C351 0.961 . S
H368 C352 0.931 . S
H369 C357 0.930 . S
H370 C358 0.956 . S
H371 C358 0.961 . S
H372 C358 0.961 . S
H373 C359 0.958 . S
H374 C359 0.961 . S
H375 C359 0.960 . S
C376 C377 1.391 . S
C376 C378 1.394 . S
C376 H392 0.931 . S
C377 C376 1.391 . S
C377 C381 1.376 . S
C378 C376 1.394 . S
C378 C379 1.369 . S
C378 C382 1.531 . S
C379 C378 1.369 . S
C379 C380 1.410 . S
C379 C387 1.503 . S
C380 C379 1.410 . S
C380 C381 1.392 . S
C380 C383 1.511 . S
C381 C377 1.376 . S
C381 C380 1.392 . S
C381 H393 0.929 . S
C382 C378 1.531 . S
C382 H394 0.960 . S
C382 H395 0.962 . S
C382 H396 0.960 . S
C383 C380 1.511 . S
C383 H397 0.961 . S
C383 H398 0.961 . S
C383 H399 0.961 . S
C384 C385 1.370 . S
C384 C386 1.363 . S
C384 H400 0.931 . S
C385 C384 1.370 . S
C385 C389 1.408 . S
C386 C384 1.363 . S
C386 C387 1.370 . S
C386 C390 1.524 . S
C387 C379 1.503 . S
C387 C386 1.370 . S
C387 C388 1.403 . S
C388 C387 1.403 . S
C388 C389 1.404 . S
C388 C391 1.539 . S
C389 C385 1.408 . S
C389 C388 1.404 . S
C389 H401 0.930 . S
C390 C386 1.524 . S
C390 H402 0.956 . S
C390 H403 0.961 . S
C390 H404 0.961 . S
C391 C388 1.539 . S
C391 H405 0.958 . S
C391 H406 0.961 . S
C391 H407 0.960 . S
H392 C376 0.931 . S
H393 C381 0.929 . S
H394 C382 0.960 . S
H395 C382 0.962 . S
H396 C382 0.960 . S
H397 C383 0.961 . S
H398 C383 0.961 . S
H399 C383 0.961 . S
H400 C384 0.931 . S
H401 C389 0.930 . S
H402 C390 0.956 . S
H403 C390 0.961 . S
H404 C390 0.961 . S
H405 C391 0.958 . S
H406 C391 0.961 . S
H407 C391 0.960 . S
C408 C409 1.391 . S
C408 C410 1.394 . S
C408 H424 0.931 . S
C409 C408 1.391 . S
C409 C413 1.376 1_455 S
C410 C408 1.394 . S
C410 C411 1.369 . S
C410 C414 1.531 . S
C411 C410 1.369 . S
C411 C412 1.410 1_455 S
C411 C419 1.503 . S
C412 C411 1.410 1_655 S
C412 C413 1.392 . S
C412 C415 1.511 . S
C413 C409 1.376 1_655 S
C413 C412 1.392 . S
C413 H425 0.929 . S
C414 C410 1.531 . S
C414 H426 0.960 . S
C414 H427 0.962 . S
C414 H428 0.960 . S
C415 C412 1.511 . S
C415 H429 0.961 . S
C415 H430 0.961 . S
C415 H431 0.961 . S
C416 C417 1.370 . S
C416 C418 1.363 . S
C416 H432 0.931 . S
C417 C416 1.370 . S
C417 C421 1.408 1_455 S
C418 C416 1.363 . S
C418 C419 1.370 . S
C418 C422 1.524 . S
C419 C411 1.503 . S
C419 C418 1.370 . S
C419 C420 1.403 1_455 S
C420 C419 1.403 1_655 S
C420 C421 1.404 . S
C420 C423 1.539 . S
C421 C417 1.408 1_655 S
C421 C420 1.404 . S
C421 H433 0.930 . S
C422 C418 1.524 . S
C422 H434 0.956 . S
C422 H435 0.961 . S
C422 H436 0.961 . S
C423 C420 1.539 . S
C423 H437 0.958 . S
C423 H438 0.961 . S
C423 H439 0.960 . S
H424 C408 0.931 . S
H425 C413 0.929 . S
H426 C414 0.960 . S
H427 C414 0.962 . S
H428 C414 0.960 . S
H429 C415 0.961 . S
H430 C415 0.961 . S
H431 C415 0.961 . S
H432 C416 0.931 . S
H433 C421 0.930 . S
H434 C422 0.956 . S
H435 C422 0.961 . S
H436 C422 0.961 . S
H437 C423 0.958 . S
H438 C423 0.961 . S
H439 C423 0.960 . S
C440 C441 1.391 . S
C440 C442 1.394 . S
C440 H456 0.931 . S
C441 C440 1.391 . S
C441 C445 1.376 1_545 S
C442 C440 1.394 . S
C442 C443 1.369 . S
C442 C446 1.531 . S
C443 C442 1.369 . S
C443 C444 1.410 1_545 S
C443 C451 1.503 . S
C444 C443 1.410 1_565 S
C444 C445 1.392 . S
C444 C447 1.511 . S
C445 C441 1.376 1_565 S
C445 C444 1.392 . S
C445 H457 0.929 . S
C446 C442 1.531 . S
C446 H458 0.960 . S
C446 H459 0.962 . S
C446 H460 0.960 . S
C447 C444 1.511 . S
C447 H461 0.961 . S
C447 H462 0.961 . S
C447 H463 0.961 . S
C448 C449 1.370 1_556 S
C448 C450 1.363 1_556 S
C448 H464 0.931 . S
C449 C448 1.370 1_554 S
C449 C453 1.408 1_565 S
C450 C448 1.363 1_554 S
C450 C451 1.370 1_565 S
C450 C454 1.524 . S
C451 C443 1.503 . S
C451 C450 1.370 1_545 S
C451 C452 1.403 . S
C452 C451 1.403 . S
C452 C453 1.404 . S
C452 C455 1.539 . S
C453 C449 1.408 1_545 S
C453 C452 1.404 . S
C453 H465 0.930 . S
C454 C450 1.524 . S
C454 H466 0.956 . S
C454 H467 0.961 . S
C454 H468 0.961 1_554 S
C455 C452 1.539 . S
C455 H469 0.958 . S
C455 H470 0.961 . S
C455 H471 0.960 . S
H456 C440 0.931 . S
H457 C445 0.929 . S
H458 C446 0.960 . S
H459 C446 0.962 . S
H460 C446 0.960 . S
H461 C447 0.961 . S
H462 C447 0.961 . S
H463 C447 0.961 . S
H464 C448 0.931 . S
H465 C453 0.930 . S
H466 C454 0.956 . S
H467 C454 0.961 . S
H468 C454 0.961 1_556 S
H469 C455 0.958 . S
H470 C455 0.961 . S
H471 C455 0.960 . S
C472 C473 1.391 . S
C472 C474 1.394 . S
C472 H488 0.931 . S
C473 C472 1.391 . S
C473 C477 1.376 . S
C474 C472 1.394 . S
C474 C475 1.369 . S
C474 C478 1.531 . S
C475 C474 1.369 . S
C475 C476 1.410 . S
C475 C483 1.503 . S
C476 C475 1.410 . S
C476 C477 1.392 . S
C476 C479 1.511 . S
C477 C473 1.376 . S
C477 C476 1.392 . S
C477 H489 0.929 . S
C478 C474 1.531 . S
C478 H490 0.960 . S
C478 H491 0.962 . S
C478 H492 0.960 . S
C479 C476 1.511 . S
C479 H493 0.961 . S
C479 H494 0.961 . S
C479 H495 0.961 . S
C480 C481 1.370 . S
C480 C482 1.363 . S
C480 H496 0.931 . S
C481 C480 1.370 . S
C481 C485 1.408 . S
C482 C480 1.363 . S
C482 C483 1.370 . S
C482 C486 1.524 1_556 S
C483 C475 1.503 . S
C483 C482 1.370 . S
C483 C484 1.403 . S
C484 C483 1.403 . S
C484 C485 1.404 . S
C484 C487 1.539 . S
C485 C481 1.408 . S
C485 C484 1.404 . S
C485 H497 0.930 . S
C486 C482 1.524 1_554 S
C486 H498 0.956 . S
C486 H499 0.961 . S
C486 H500 0.961 . S
C487 C484 1.539 . S
C487 H501 0.958 . S
C487 H502 0.961 . S
C487 H503 0.960 . S
H488 C472 0.931 . S
H489 C477 0.929 . S
H490 C478 0.960 . S
H491 C478 0.962 . S
H492 C478 0.960 . S
H493 C479 0.961 . S
H494 C479 0.961 . S
H495 C479 0.961 . S
H496 C480 0.931 . S
H497 C485 0.930 . S
H498 C486 0.956 . S
H499 C486 0.961 . S
H500 C486 0.961 . S
H501 C487 0.958 . S
H502 C487 0.961 . S
H503 C487 0.960 . S
C504 C505 1.391 . S
C504 C506 1.394 . S
C504 H520 0.931 . S
C505 C504 1.391 . S
C505 C509 1.376 . S
C506 C504 1.394 . S
C506 C507 1.369 . S
C506 C510 1.531 . S
C507 C506 1.369 . S
C507 C508 1.410 . S
C507 C515 1.503 . S
C508 C507 1.410 . S
C508 C509 1.392 . S
C508 C511 1.511 . S
C509 C505 1.376 . S
C509 C508 1.392 . S
C509 H521 0.929 . S
C510 C506 1.531 . S
C510 H522 0.960 . S
C510 H523 0.962 . S
C510 H524 0.960 . S
C511 C508 1.511 . S
C511 H525 0.961 . S
C511 H526 0.961 . S
C511 H527 0.961 . S
C512 C513 1.370 . S
C512 C514 1.363 . S
C512 H528 0.931 1_554 S
C513 C512 1.370 . S
C513 C517 1.408 . S
C514 C512 1.363 . S
C514 C515 1.370 . S
C514 C518 1.524 . S
C515 C507 1.503 . S
C515 C514 1.370 . S
C515 C516 1.403 . S
C516 C515 1.403 . S
C516 C517 1.404 . S
C516 C519 1.539 . S
C517 C513 1.408 . S
C517 C516 1.404 . S
C517 H529 0.930 . S
C518 C514 1.524 . S
C518 H530 0.956 . S
C518 H531 0.961 . S
C518 H532 0.961 . S
C519 C516 1.539 . S
C519 H533 0.958 . S
C519 H534 0.961 . S
C519 H535 0.960 . S
H520 C504 0.931 . S
H521 C509 0.929 . S
H522 C510 0.960 . S
H523 C510 0.962 . S
H524 C510 0.960 . S
H525 C511 0.961 . S
H526 C511 0.961 . S
H527 C511 0.961 . S
H528 C512 0.931 1_556 S
H529 C517 0.930 . S
H530 C518 0.956 . S
H531 C518 0.961 . S
H532 C518 0.961 . S
H533 C519 0.958 . S
H534 C519 0.961 . S
H535 C519 0.960 . S
C536 C537 1.391 . S
C536 C538 1.394 . S
C536 H552 0.931 . S
C537 C536 1.391 . S
C537 C541 1.376 1_655 S
C538 C536 1.394 . S
C538 C539 1.369 . S
C538 C542 1.531 . S
C539 C538 1.369 . S
C539 C540 1.410 1_655 S
C539 C547 1.503 . S
C540 C539 1.410 1_455 S
C540 C541 1.392 . S
C540 C543 1.511 . S
C541 C537 1.376 1_455 S
C541 C540 1.392 . S
C541 H553 0.929 . S
C542 C538 1.531 . S
C542 H554 0.960 . S
C542 H555 0.962 . S
C542 H556 0.960 . S
C543 C540 1.511 . S
C543 H557 0.961 . S
C543 H558 0.961 . S
C543 H559 0.961 . S
C544 C545 1.370 1_554 S
C544 C546 1.363 . S
C544 H560 0.931 . S
C545 C544 1.370 1_556 S
C545 C549 1.408 1_455 S
C546 C544 1.363 . S
C546 C547 1.370 1_455 S
C546 C550 1.524 . S
C547 C539 1.503 . S
C547 C546 1.370 1_655 S
C547 C548 1.403 . S
C548 C547 1.403 . S
C548 C549 1.404 1_554 S
C548 C551 1.539 1_554 S
C549 C545 1.408 1_655 S
C549 C548 1.404 1_556 S
C549 H561 0.930 . S
C550 C546 1.524 . S
C550 H562 0.956 1_455 S
C550 H563 0.961 . S
C550 H564 0.961 . S
C551 C548 1.539 1_556 S
C551 H565 0.958 . S
C551 H566 0.961 . S
C551 H567 0.960 1_556 S
H552 C536 0.931 . S
H553 C541 0.929 . S
H554 C542 0.960 . S
H555 C542 0.962 . S
H556 C542 0.960 . S
H557 C543 0.961 . S
H558 C543 0.961 . S
H559 C543 0.961 . S
H560 C544 0.931 . S
H561 C549 0.930 . S
H562 C550 0.956 1_655 S
H563 C550 0.961 . S
H564 C550 0.961 . S
H565 C551 0.958 . S
H566 C551 0.961 . S
H567 C551 0.960 1_554 S
C568 C569 1.391 . S
C568 C570 1.394 . S
C568 H584 0.931 . S
C569 C568 1.391 . S
C569 C573 1.376 1_455 S
C570 C568 1.394 . S
C570 C571 1.369 1_455 S
C570 C574 1.531 . S
C571 C570 1.369 1_655 S
C571 C572 1.410 . S
C571 C579 1.503 . S
C572 C571 1.410 . S
C572 C573 1.392 . S
C572 C575 1.511 . S
C573 C569 1.376 1_655 S
C573 C572 1.392 . S
C573 H585 0.929 . S
C574 C570 1.531 . S
C574 H586 0.960 . S
C574 H587 0.962 . S
C574 H588 0.960 . S
C575 C572 1.511 . S
C575 H589 0.961 . S
C575 H590 0.961 . S
C575 H591 0.961 . S
C576 C577 1.370 . S
C576 C578 1.360 1_655 S
C576 H592 0.931 1_655 S
C577 C576 1.370 . S
C577 C581 1.408 . S
C578 C576 1.360 1_455 S
C578 C579 1.361 1_455 S
C578 C582 1.537 . S
C579 C571 1.503 . S
C579 C578 1.361 1_655 S
C579 C580 1.403 . S
C580 C579 1.403 . S
C580 C581 1.404 . S
C580 C583 1.539 . S
C581 C577 1.408 . S
C581 C580 1.404 . S
C581 H593 0.930 . S
C582 C578 1.537 . S
C582 H594 0.956 . S
C582 H595 0.961 . S
C582 H596 0.961 . S
C583 C580 1.539 . S
C583 H597 0.958 . S
C583 H598 0.961 . S
C583 H599 0.960 . S
H584 C568 0.931 . S
H585 C573 0.929 . S
H586 C574 0.960 . S
H587 C574 0.962 . S
H588 C574 0.960 . S
H589 C575 0.961 . S
H590 C575 0.961 . S
H591 C575 0.961 . S
H592 C576 0.931 1_455 S
H593 C581 0.930 . S
H594 C582 0.956 . S
H595 C582 0.961 . S
H596 C582 0.961 . S
H597 C583 0.958 . S
H598 C583 0.961 . S
H599 C583 0.960 . S
C600 C601 1.391 1_565 S
C600 C602 1.394 . S
C600 H616 0.931 . S
C601 C600 1.391 1_545 S
C601 C605 1.376 . S
C602 C600 1.394 . S
C602 C603 1.369 . S
C602 C606 1.531 . S
C603 C602 1.369 . S
C603 C604 1.410 1_565 S
C603 C611 1.503 . S
C604 C603 1.410 1_545 S
C604 C605 1.392 . S
C604 C607 1.511 . S
C605 C601 1.376 . S
C605 C604 1.392 . S
C605 H617 0.929 . S
C606 C602 1.531 . S
C606 H618 0.960 . S
C606 H619 0.962 . S
C606 H620 0.960 . S
C607 C604 1.511 . S
C607 H621 0.961 . S
C607 H622 0.961 . S
C607 H623 0.961 . S
C608 C609 1.370 . S
C608 C610 1.363 . S
C608 H624 0.931 . S
C609 C608 1.370 . S
C609 C613 1.408 1_565 S
C610 C608 1.363 . S
C610 C611 1.370 . S
C610 C614 1.524 . S
C611 C603 1.503 . S
C611 C610 1.370 . S
C611 C612 1.403 1_565 S
C612 C611 1.403 1_545 S
C612 C613 1.404 . S
C612 C615 1.539 . S
C613 C609 1.408 1_545 S
C613 C612 1.404 . S
C613 H625 0.930 . S
C614 C610 1.524 . S
C614 H626 0.956 . S
C614 H627 0.961 . S
C614 H628 0.961 . S
C615 C612 1.539 . S
C615 H629 0.958 . S
C615 H630 0.961 . S
C615 H631 0.960 . S
H616 C600 0.931 . S
H617 C605 0.929 . S
H618 C606 0.960 . S
H619 C606 0.962 . S
H620 C606 0.960 . S
H621 C607 0.961 . S
H622 C607 0.961 . S
H623 C607 0.961 . S
H624 C608 0.931 . S
H625 C613 0.930 . S
H626 C614 0.956 . S
H627 C614 0.961 . S
H628 C614 0.961 . S
H629 C615 0.958 . S
H630 C615 0.961 . S
H631 C615 0.960 . S
C632 C633 1.391 . S
C632 C634 1.394 . S
C632 H648 0.931 . S
C633 C632 1.391 . S
C633 C637 1.376 . S
C634 C632 1.394 . S
C634 C635 1.369 . S
C634 C638 1.531 . S
C635 C634 1.369 . S
C635 C636 1.410 . S
C635 C643 1.503 . S
C636 C635 1.410 . S
C636 C637 1.392 . S
C636 C639 1.511 . S
C637 C633 1.376 . S
C637 C636 1.392 . S
C637 H649 0.929 . S
C638 C634 1.531 . S
C638 H650 0.960 . S
C638 H651 0.962 . S
C638 H652 0.960 . S
C639 C636 1.511 . S
C639 H653 0.968 . S
C639 H654 0.961 . S
C639 H655 0.961 . S
C640 C641 1.370 . S
C640 C642 1.363 . S
C640 H656 0.931 . S
C641 C640 1.370 . S
C641 C645 1.408 . S
C642 C640 1.363 . S
C642 C643 1.370 . S
C642 C646 1.524 . S
C643 C635 1.503 . S
C643 C642 1.370 . S
C643 C644 1.403 . S
C644 C643 1.403 . S
C644 C645 1.404 . S
C644 C647 1.539 . S
C645 C641 1.408 . S
C645 C644 1.404 . S
C645 H657 0.930 . S
C646 C642 1.524 . S
C646 H658 0.956 . S
C646 H659 0.961 . S
C646 H660 0.961 . S
C647 C644 1.539 . S
C647 H661 0.958 . S
C647 H662 0.961 . S
C647 H663 0.960 . S
H648 C632 0.931 . S
H649 C637 0.929 . S
H650 C638 0.960 . S
H651 C638 0.962 . S
H652 C638 0.960 . S
H653 C639 0.968 . S
H654 C639 0.961 . S
H655 C639 0.961 . S
H656 C640 0.931 . S
H657 C645 0.930 . S
H658 C646 0.956 . S
H659 C646 0.961 . S
H660 C646 0.961 . S
H661 C647 0.958 . S
H662 C647 0.961 . S
H663 C647 0.960 . S
C664 C665 1.391 . S
C664 C666 1.394 . S
C664 H680 0.931 . S
C665 C664 1.391 . S
C665 C669 1.376 . S
C666 C664 1.394 . S
C666 C667 1.369 . S
C666 C670 1.531 . S
C667 C666 1.369 . S
C667 C668 1.410 . S
C667 C675 1.503 . S
C668 C667 1.410 . S
C668 C669 1.392 . S
C668 C671 1.511 . S
C669 C665 1.376 . S
C669 C668 1.392 . S
C669 H681 0.929 . S
C670 C666 1.531 . S
C670 H682 0.960 . S
C670 H683 0.962 . S
C670 H684 0.960 . S
C671 C668 1.511 . S
C671 H685 0.961 . S
C671 H686 0.961 . S
C671 H687 0.961 . S
C672 C673 1.370 . S
C672 C674 1.363 . S
C672 H688 0.931 . S
C673 C672 1.370 . S
C673 C677 1.408 . S
C674 C672 1.363 . S
C674 C675 1.370 . S
C674 C678 1.524 . S
C675 C667 1.503 . S
C675 C674 1.370 . S
C675 C676 1.403 . S
C676 C675 1.403 . S
C676 C677 1.404 . S
C676 C679 1.539 . S
C677 C673 1.408 . S
C677 C676 1.404 . S
C677 H689 0.930 . S
C678 C674 1.524 . S
C678 H690 0.956 . S
C678 H691 0.961 . S
C678 H692 0.961 . S
C679 C676 1.539 . S
C679 H693 0.958 . S
C679 H694 0.961 . S
C679 H695 0.960 . S
H680 C664 0.931 . S
H681 C669 0.929 . S
H682 C670 0.960 . S
H683 C670 0.962 . S
H684 C670 0.960 . S
H685 C671 0.961 . S
H686 C671 0.961 . S
H687 C671 0.961 . S
H688 C672 0.931 . S
H689 C677 0.930 . S
H690 C678 0.956 . S
H691 C678 0.961 . S
H692 C678 0.961 . S
H693 C679 0.958 . S
H694 C679 0.961 . S
H695 C679 0.960 . S
C696 C697 1.391 . S
C696 C698 1.394 . S
C696 H712 0.931 . S
C697 C696 1.391 . S
C697 C701 1.376 1_655 S
C698 C696 1.394 . S
C698 C699 1.369 1_655 S
C698 C702 1.531 . S
C699 C698 1.369 1_455 S
C699 C700 1.410 . S
C699 C707 1.503 . S
C700 C699 1.410 . S
C700 C701 1.392 . S
C700 C703 1.511 . S
C701 C697 1.376 1_455 S
C701 C700 1.392 . S
C701 H713 0.929 . S
C702 C698 1.531 . S
C702 H714 0.960 . S
C702 H715 0.962 1_655 S
C702 H716 0.960 . S
C703 C700 1.511 . S
C703 H717 0.961 . S
C703 H718 0.961 . S
C703 H719 0.961 . S
C704 C705 1.370 . S
C704 C706 1.363 . S
C704 H720 0.931 . S
C705 C704 1.370 . S
C705 C709 1.408 . S
C706 C704 1.363 . S
C706 C707 1.370 . S
C706 C710 1.524 . S
C707 C699 1.503 . S
C707 C706 1.370 . S
C707 C708 1.424 . S
C708 C707 1.424 . S
C708 C709 1.415 . S
C708 C711 1.508 1_455 S
C709 C705 1.408 . S
C709 C708 1.415 . S
C709 H721 0.922 1_455 S
C710 C706 1.524 . S
C710 H722 0.956 . S
C710 H723 0.961 . S
C710 H724 0.961 . S
C711 C708 1.508 1_655 S
C711 H725 0.958 . S
C711 H726 0.961 . S
C711 H727 0.960 . S
H712 C696 0.931 . S
H713 C701 0.929 . S
H714 C702 0.960 . S
H715 C702 0.962 1_455 S
H716 C702 0.960 . S
H717 C703 0.961 . S
H718 C703 0.961 . S
H719 C703 0.961 . S
H720 C704 0.931 . S
H721 C709 0.922 1_655 S
H722 C710 0.956 . S
H723 C710 0.961 . S
H724 C710 0.961 . S
H725 C711 0.958 . S
H726 C711 0.961 . S
H727 C711 0.960 . S
C728 C729 1.391 . S
C728 C730 1.394 . S
C728 H744 0.931 . S
C729 C728 1.391 . S
C729 C733 1.376 1_565 S
C730 C728 1.394 . S
C730 C731 1.369 1_565 S
C730 C734 1.531 . S
C731 C730 1.369 1_545 S
C731 C732 1.410 . S
C731 C739 1.503 . S
C732 C731 1.410 . S
C732 C733 1.392 . S
C732 C735 1.511 . S
C733 C729 1.376 1_545 S
C733 C732 1.392 . S
C733 H745 0.929 . S
C734 C730 1.531 . S
C734 H746 0.960 . S
C734 H747 0.962 . S
C734 H748 0.960 . S
C735 C732 1.511 . S
C735 H749 0.961 . S
C735 H750 0.961 . S
C735 H751 0.961 . S
C736 C737 1.370 . S
C736 C738 1.363 . S
C736 H752 0.931 . S
C737 C736 1.370 . S
C737 C741 1.408 . S
C738 C736 1.363 . S
C738 C739 1.370 . S
C738 C742 1.524 . S
C739 C731 1.503 . S
C739 C738 1.370 . S
C739 C740 1.404 1_545 S
C740 C739 1.404 1_565 S
C740 C741 1.405 1_565 S
C740 C743 1.536 . S
C741 C737 1.408 . S
C741 C740 1.405 1_545 S
C741 H753 0.919 1_545 S
C742 C738 1.524 . S
C742 H754 0.956 . S
C742 H755 0.961 . S
C742 H756 0.961 . S
C743 C740 1.536 . S
C743 H757 0.958 . S
C743 H758 0.961 . S
C743 H759 0.960 . S
H744 C728 0.931 . S
H745 C733 0.929 . S
H746 C734 0.960 . S
H747 C734 0.962 . S
H748 C734 0.960 . S
H749 C735 0.961 . S
H750 C735 0.961 . S
H751 C735 0.961 . S
H752 C736 0.931 . S
H753 C741 0.919 1_565 S
H754 C742 0.956 . S
H755 C742 0.961 . S
H756 C742 0.961 . S
H757 C743 0.958 . S
H758 C743 0.961 . S
H759 C743 0.960 . S
C760 C761 1.391 . S
C760 C762 1.394 . S
C760 H776 0.931 . S
C761 C760 1.391 . S
C761 C765 1.376 . S
C762 C760 1.394 . S
C762 C763 1.369 . S
C762 C766 1.531 1_556 S
C763 C762 1.369 . S
C763 C764 1.410 . S
C763 C771 1.503 . S
C764 C763 1.410 . S
C764 C765 1.392 . S
C764 C767 1.511 . S
C765 C761 1.376 . S
C765 C764 1.392 . S
C765 H777 0.929 . S
C766 C762 1.531 1_554 S
C766 H778 0.960 . S
C766 H779 0.962 1_554 S
C766 H780 0.960 . S
C767 C764 1.511 . S
C767 H781 0.961 . S
C767 H782 0.961 . S
C767 H783 0.961 . S
C768 C769 1.370 . S
C768 C770 1.363 . S
C768 H784 0.931 . S
C769 C768 1.370 . S
C769 C773 1.408 . S
C770 C768 1.363 . S
C770 C771 1.370 . S
C770 C774 1.524 . S
C771 C763 1.503 . S
C771 C770 1.370 . S
C771 C772 1.403 . S
C772 C771 1.403 . S
C772 C773 1.404 . S
C772 C775 1.539 1_556 S
C773 C769 1.408 . S
C773 C772 1.404 . S
C773 H785 0.930 1_556 S
C774 C770 1.524 . S
C774 H786 0.956 . S
C774 H787 0.961 . S
C774 H788 0.961 . S
C775 C772 1.539 1_554 S
C775 H789 0.958 . S
C775 H790 0.961 . S
C775 H791 0.960 . S
H776 C760 0.931 . S
H777 C765 0.929 . S
H778 C766 0.960 . S
H779 C766 0.962 1_556 S
H780 C766 0.960 . S
H781 C767 0.961 . S
H782 C767 0.961 . S
H783 C767 0.961 . S
H784 C768 0.931 . S
H785 C773 0.930 1_554 S
H786 C774 0.956 . S
H787 C774 0.961 . S
H788 C774 0.961 . S
H789 C775 0.958 . S
H790 C775 0.961 . S
H791 C775 0.960 . S
C792 C793 1.391 . S
C792 C794 1.394 . S
C792 H808 0.931 . S
C793 C792 1.391 . S
C793 C797 1.376 . S
C794 C792 1.394 . S
C794 C795 1.369 . S
C794 C798 1.531 . S
C795 C794 1.369 . S
C795 C796 1.410 . S
C795 C803 1.503 . S
C796 C795 1.410 . S
C796 C797 1.392 . S
C796 C799 1.511 . S
C797 C793 1.376 . S
C797 C796 1.392 . S
C797 H809 0.929 . S
C798 C794 1.531 . S
C798 H810 0.960 . S
C798 H811 0.962 . S
C798 H812 0.960 . S
C799 C796 1.511 . S
C799 H813 0.961 . S
C799 H814 0.961 . S
C799 H815 0.961 . S
C800 C801 1.370 . S
C800 C802 1.363 . S
C800 H816 0.931 . S
C801 C800 1.370 . S
C801 C805 1.408 . S
C802 C800 1.363 . S
C802 C803 1.370 . S
C802 C806 1.524 . S
C803 C795 1.503 . S
C803 C802 1.370 . S
C803 C804 1.403 . S
C804 C803 1.403 . S
C804 C805 1.404 . S
C804 C807 1.539 . S
C805 C801 1.408 . S
C805 C804 1.404 . S
C805 H817 0.930 . S
C806 C802 1.524 . S
C806 H818 0.956 . S
C806 H819 0.961 . S
C806 H820 0.961 . S
C807 C804 1.539 . S
C807 H821 0.958 . S
C807 H822 0.961 . S
C807 H823 0.960 . S
H808 C792 0.931 . S
H809 C797 0.929 . S
H810 C798 0.960 . S
H811 C798 0.962 . S
H812 C798 0.960 . S
H813 C799 0.961 . S
H814 C799 0.961 . S
H815 C799 0.961 . S
H816 C800 0.931 . S
H817 C805 0.930 . S
H818 C806 0.956 . S
H819 C806 0.961 . S
H820 C806 0.961 . S
H821 C807 0.958 . S
H822 C807 0.961 . S
H823 C807 0.960 . S
C824 C825 1.391 . S
C824 C826 1.394 . S
C824 H840 0.931 . S
C825 C824 1.391 . S
C825 C829 1.376 1_455 S
C826 C824 1.394 . S
C826 C827 1.369 . S
C826 C830 1.531 . S
C827 C826 1.369 . S
C827 C828 1.410 1_454 S
C827 C835 1.503 . S
C828 C827 1.410 1_656 S
C828 C829 1.392 1_556 S
C828 C831 1.511 . S
C829 C825 1.376 1_655 S
C829 C828 1.392 1_554 S
C829 H841 0.929 1_554 S
C830 C826 1.531 . S
C830 H842 0.960 . S
C830 H843 0.962 . S
C830 H844 0.960 . S
C831 C828 1.511 . S
C831 H845 0.961 . S
C831 H846 0.961 . S
C831 H847 0.961 . S
C832 C833 1.370 . S
C832 C834 1.363 . S
C832 H848 0.931 . S
C833 C832 1.370 . S
C833 C837 1.408 1_456 S
C834 C832 1.363 . S
C834 C835 1.370 1_556 S
C834 C838 1.524 . S
C835 C827 1.503 . S
C835 C834 1.370 1_554 S
C835 C836 1.403 1_455 S
C836 C835 1.403 1_655 S
C836 C837 1.404 . S
C836 C839 1.539 . S
C837 C833 1.408 1_654 S
C837 C836 1.404 . S
C837 H849 0.930 . S
C838 C834 1.524 . S
C838 H850 0.956 . S
C838 H851 0.961 . S
C838 H852 0.961 . S
C839 C836 1.539 . S
C839 H853 0.958 . S
C839 H854 0.961 . S
C839 H855 0.960 . S
H840 C824 0.931 . S
H841 C829 0.929 1_556 S
H842 C830 0.960 . S
H843 C830 0.962 . S
H844 C830 0.960 . S
H845 C831 0.961 . S
H846 C831 0.961 . S
H847 C831 0.961 . S
H848 C832 0.931 . S
H849 C837 0.930 . S
H850 C838 0.956 . S
H851 C838 0.961 . S
H852 C838 0.961 . S
H853 C839 0.958 . S
H854 C839 0.961 . S
H855 C839 0.960 . S
C856 C857 1.391 1_556 S
C856 C858 1.394 . S
C856 H872 0.931 . S
C857 C856 1.391 1_554 S
C857 C861 1.376 . S
C858 C856 1.394 . S
C858 C859 1.369 1_556 S
C858 C862 1.531 . S
C859 C858 1.369 1_554 S
C859 C860 1.410 . S
C859 C867 1.503 1_554 S
C860 C859 1.410 . S
C860 C861 1.392 . S
C860 C863 1.511 . S
C861 C857 1.376 . S
C861 C860 1.392 . S
C861 H873 0.929 . S
C862 C858 1.531 . S
C862 H874 0.960 . S
C862 H875 0.962 1_545 S
C862 H876 0.960 . S
C863 C860 1.511 . S
C863 H877 0.970 . S
C863 H878 0.961 . S
C863 H879 0.961 . S
C864 C865 1.370 1_565 S
C864 C866 1.363 . S
C864 H880 0.931 . S
C865 C864 1.370 1_545 S
C865 C869 1.408 . S
C866 C864 1.363 . S
C866 C867 1.370 1_565 S
C866 C870 1.524 . S
C867 C859 1.503 1_556 S
C867 C866 1.370 1_545 S
C867 C868 1.403 1_556 S
C868 C867 1.403 1_554 S
C868 C869 1.404 1_554 S
C868 C871 1.539 . S
C869 C865 1.408 . S
C869 C868 1.404 1_556 S
C869 H881 0.930 . S
C870 C866 1.524 . S
C870 H882 0.956 . S
C870 H883 0.961 1_556 S
C870 H884 0.961 . S
C871 C868 1.539 . S
C871 H885 0.958 1_554 S
C871 H886 0.961 . S
C871 H887 0.960 . S
H872 C856 0.931 . S
H873 C861 0.929 . S
H874 C862 0.960 . S
H875 C862 0.962 1_565 S
H876 C862 0.960 . S
H877 C863 0.970 . S
H878 C863 0.961 . S
H879 C863 0.961 . S
H880 C864 0.931 . S
H881 C869 0.930 . S
H882 C870 0.956 . S
H883 C870 0.961 1_554 S
H884 C870 0.961 . S
H885 C871 0.958 1_556 S
H886 C871 0.961 . S
H887 C871 0.960 . S
C888 C889 1.391 . S
C888 C890 1.394 . S
C888 H904 0.931 . S
C889 C888 1.391 . S
C889 C893 1.376 . S
C890 C888 1.394 . S
C890 C891 1.369 . S
C890 C894 1.531 . S
C891 C890 1.369 . S
C891 C892 1.410 . S
C891 C899 1.503 . S
C892 C891 1.410 . S
C892 C893 1.392 . S
C892 C895 1.511 . S
C893 C889 1.376 . S
C893 C892 1.392 . S
C893 H905 0.929 . S
C894 C890 1.531 . S
C894 H906 0.960 . S
C894 H907 0.962 . S
C894 H908 0.960 . S
C895 C892 1.511 . S
C895 H909 0.961 . S
C895 H910 0.961 . S
C895 H911 0.961 . S
C896 C897 1.370 . S
C896 C898 1.363 . S
C896 H912 0.931 . S
C897 C896 1.370 . S
C897 C901 1.408 . S
C898 C896 1.363 . S
C898 C899 1.370 . S
C898 C902 1.524 . S
C899 C891 1.503 . S
C899 C898 1.370 . S
C899 C900 1.403 . S
C900 C899 1.403 . S
C900 C901 1.404 . S
C900 C903 1.539 . S
C901 C897 1.408 . S
C901 C900 1.404 . S
C901 H913 0.930 . S
C902 C898 1.524 . S
C902 H914 0.956 . S
C902 H915 0.961 . S
C902 H916 0.961 . S
C903 C900 1.539 . S
C903 H917 0.958 . S
C903 H918 0.961 . S
C903 H919 0.960 . S
H904 C888 0.931 . S
H905 C893 0.929 . S
H906 C894 0.960 . S
H907 C894 0.962 . S
H908 C894 0.960 . S
H909 C895 0.961 . S
H910 C895 0.961 . S
H911 C895 0.961 . S
H912 C896 0.931 . S
H913 C901 0.930 . S
H914 C902 0.956 . S
H915 C902 0.961 . S
H916 C902 0.961 . S
H917 C903 0.958 . S
H918 C903 0.961 . S
H919 C903 0.960 . S
C920 C921 1.391 1_556 S
C920 C922 1.394 . S
C920 H936 0.931 . S
C921 C920 1.391 1_554 S
C921 C925 1.376 . S
C922 C920 1.394 . S
C922 C923 1.369 . S
C922 C926 1.531 . S
C923 C922 1.369 . S
C923 C924 1.410 1_556 S
C923 C931 1.503 . S
C924 C923 1.410 1_554 S
C924 C925 1.392 . S
C924 C927 1.511 . S
C925 C921 1.376 . S
C925 C924 1.392 . S
C925 H937 0.929 . S
C926 C922 1.531 . S
C926 H938 0.960 . S
C926 H939 0.962 . S
C926 H940 0.960 . S
C927 C924 1.511 . S
C927 H941 0.961 . S
C927 H942 0.961 . S
C927 H943 0.961 . S
C928 C929 1.370 . S
C928 C930 1.363 1_556 S
C928 H944 0.931 1_556 S
C929 C928 1.370 . S
C929 C933 1.408 . S
C930 C928 1.363 1_554 S
C930 C931 1.370 1_554 S
C930 C934 1.524 . S
C931 C923 1.503 . S
C931 C930 1.370 1_556 S
C931 C932 1.403 . S
C932 C931 1.403 . S
C932 C933 1.404 . S
C932 C935 1.539 . S
C933 C929 1.408 . S
C933 C932 1.404 . S
C933 H945 0.930 . S
C934 C930 1.524 . S
C934 H946 0.956 . S
C934 H947 0.961 . S
C934 H948 0.961 . S
C935 C932 1.539 . S
C935 H949 0.958 . S
C935 H950 0.961 . S
C935 H951 0.960 . S
H936 C920 0.931 . S
H937 C925 0.929 . S
H938 C926 0.960 . S
H939 C926 0.962 . S
H940 C926 0.960 . S
H941 C927 0.961 . S
H942 C927 0.961 . S
H943 C927 0.961 . S
H944 C928 0.931 1_554 S
H945 C933 0.930 . S
H946 C934 0.956 . S
H947 C934 0.961 . S
H948 C934 0.961 . S
H949 C935 0.958 . S
H950 C935 0.961 . S
H951 C935 0.960 . S
C952 C953 1.391 . S
C952 C954 1.394 . S
C952 H968 0.931 . S
C953 C952 1.391 . S
C953 C957 1.376 1_655 S
C954 C952 1.394 . S
C954 C955 1.369 . S
C954 C958 1.531 . S
C955 C954 1.369 . S
C955 C956 1.410 1_655 S
C955 C963 1.503 . S
C956 C955 1.410 1_455 S
C956 C957 1.392 . S
C956 C959 1.511 . S
C957 C953 1.376 1_455 S
C957 C956 1.392 . S
C957 H969 0.929 . S
C958 C954 1.531 . S
C958 H970 0.960 . S
C958 H971 0.962 . S
C958 H972 0.960 . S
C959 C956 1.511 . S
C959 H973 0.961 . S
C959 H974 0.961 . S
C959 H975 0.961 . S
C960 C961 1.370 . S
C960 C962 1.363 . S
C960 H976 0.931 . S
C961 C960 1.370 . S
C961 C965 1.408 1_655 S
C962 C960 1.363 . S
C962 C963 1.370 . S
C962 C966 1.524 . S
C963 C955 1.503 . S
C963 C962 1.370 . S
C963 C964 1.403 1_655 S
C964 C963 1.403 1_455 S
C964 C965 1.404 . S
C964 C967 1.539 . S
C965 C961 1.408 1_455 S
C965 C964 1.404 . S
C965 H977 0.930 . S
C966 C962 1.524 . S
C966 H978 0.956 . S
C966 H979 0.961 . S
C966 H980 0.961 . S
C967 C964 1.539 . S
C967 H981 0.958 . S
C967 H982 0.961 . S
C967 H983 0.960 . S
H968 C952 0.931 . S
H969 C957 0.929 . S
H970 C958 0.960 . S
H971 C958 0.962 . S
H972 C958 0.960 . S
H973 C959 0.961 . S
H974 C959 0.961 . S
H975 C959 0.961 . S
H976 C960 0.931 . S
H977 C965 0.930 . S
H978 C966 0.956 . S
H979 C966 0.961 . S
H980 C966 0.961 . S
H981 C967 0.958 . S
H982 C967 0.961 . S
H983 C967 0.960 . S
C984 C985 1.406 . S
C984 C986 1.394 . S
C984 H1000 0.931 . S
C985 C984 1.406 . S
C985 C989 1.364 1_545 S
C986 C984 1.394 . S
C986 C987 1.369 . S
C986 C990 1.531 . S
C987 C986 1.369 . S
C987 C988 1.410 1_545 S
C987 C995 1.503 1_545 S
C988 C987 1.410 1_565 S
C988 C989 1.392 . S
C988 C991 1.511 . S
C989 C985 1.364 1_565 S
C989 C988 1.392 . S
C989 H1001 0.929 . S
C990 C986 1.531 . S
C990 H1002 0.960 . S
C990 H1003 0.962 . S
C990 H1004 0.960 . S
C991 C988 1.511 . S
C991 H1005 0.961 . S
C991 H1006 0.961 . S
C991 H1007 0.961 . S
C992 C993 1.370 . S
C992 C994 1.363 . S
C992 H1008 0.931 . S
C993 C992 1.370 . S
C993 C997 1.408 1_565 S
C994 C992 1.363 . S
C994 C995 1.376 . S
C994 C998 1.524 . S
C995 C987 1.503 1_565 S
C995 C994 1.376 . S
C995 C996 1.397 1_565 S
C996 C995 1.397 1_545 S
C996 C997 1.404 . S
C996 C999 1.539 . S
C997 C993 1.408 1_545 S
C997 C996 1.404 . S
C997 H1009 0.930 . S
C998 C994 1.524 . S
C998 H1010 0.956 . S
C998 H1011 0.961 . S
C998 H1012 0.961 . S
C999 C996 1.539 . S
C999 H1013 0.958 . S
C999 H1014 0.961 . S
C999 H1015 0.960 . S
H1000 C984 0.931 . S
H1001 C989 0.929 . S
H1002 C990 0.960 . S
H1003 C990 0.962 . S
H1004 C990 0.960 . S
H1005 C991 0.961 . S
H1006 C991 0.961 . S
H1007 C991 0.961 . S
H1008 C992 0.931 . S
H1009 C997 0.930 . S
H1010 C998 0.956 . S
H1011 C998 0.961 . S
H1012 C998 0.961 . S
H1013 C999 0.958 . S
H1014 C999 0.961 . S
H1015 C999 0.960 . S
C1016 C1017 1.391 . S
C1016 C1018 1.394 . S
C1016 H1032 0.931 . S
C1017 C1016 1.391 . S
C1017 C1021 1.376 . S
C1018 C1016 1.394 . S
C1018 C1019 1.369 . S
C1018 C1022 1.531 . S
C1019 C1018 1.369 . S
C1019 C1020 1.410 . S
C1019 C1027 1.503 . S
C1020 C1019 1.410 . S
C1020 C1021 1.392 . S
C1020 C1023 1.511 . S
C1021 C1017 1.376 . S
C1021 C1020 1.392 . S
C1021 H1033 0.929 . S
C1022 C1018 1.531 . S
C1022 H1034 0.960 . S
C1022 H1035 0.962 . S
C1022 H1036 0.960 . S
C1023 C1020 1.511 . S
C1023 H1037 0.961 . S
C1023 H1038 0.961 . S
C1023 H1039 0.961 . S
C1024 C1025 1.370 . S
C1024 C1026 1.363 . S
C1024 H1040 0.931 . S
C1025 C1024 1.370 . S
C1025 C1029 1.408 . S
C1026 C1024 1.363 . S
C1026 C1027 1.370 . S
C1026 C1030 1.524 . S
C1027 C1019 1.503 . S
C1027 C1026 1.370 . S
C1027 C1028 1.403 . S
C1028 C1027 1.403 . S
C1028 C1029 1.404 . S
C1028 C1031 1.539 . S
C1029 C1025 1.408 . S
C1029 C1028 1.404 . S
C1029 H1041 0.930 . S
C1030 C1026 1.524 . S
C1030 H1042 0.956 . S
C1030 H1043 0.961 . S
C1030 H1044 0.961 . S
C1031 C1028 1.539 . S
C1031 H1045 0.958 . S
C1031 H1046 0.961 . S
C1031 H1047 0.960 . S
H1032 C1016 0.931 . S
H1033 C1021 0.929 . S
H1034 C1022 0.960 . S
H1035 C1022 0.962 . S
H1036 C1022 0.960 . S
H1037 C1023 0.961 . S
H1038 C1023 0.961 . S
H1039 C1023 0.961 . S
H1040 C1024 0.931 . S
H1041 C1029 0.930 . S
H1042 C1030 0.956 . S
H1043 C1030 0.961 . S
H1044 C1030 0.961 . S
H1045 C1031 0.958 . S
H1046 C1031 0.961 . S
H1047 C1031 0.960 . S
C1048 C1049 1.391 . S
C1048 C1050 1.394 . S
C1048 H1064 0.931 . S
C1049 C1048 1.391 . S
C1049 C1053 1.376 . S
C1050 C1048 1.394 . S
C1050 C1051 1.369 . S
C1050 C1054 1.531 . S
C1051 C1050 1.369 . S
C1051 C1052 1.410 . S
C1051 C1059 1.503 . S
C1052 C1051 1.410 . S
C1052 C1053 1.392 . S
C1052 C1055 1.511 . S
C1053 C1049 1.376 . S
C1053 C1052 1.392 . S
C1053 H1065 0.929 . S
C1054 C1050 1.531 . S
C1054 H1066 0.960 . S
C1054 H1067 0.962 . S
C1054 H1068 0.960 . S
C1055 C1052 1.511 . S
C1055 H1069 0.961 . S
C1055 H1070 0.961 . S
C1055 H1071 0.961 . S
C1056 C1057 1.370 . S
C1056 C1058 1.363 . S
C1056 H1072 0.931 . S
C1057 C1056 1.370 . S
C1057 C1061 1.408 . S
C1058 C1056 1.363 . S
C1058 C1059 1.370 . S
C1058 C1062 1.524 . S
C1059 C1051 1.503 . S
C1059 C1058 1.370 . S
C1059 C1060 1.403 . S
C1060 C1059 1.403 . S
C1060 C1061 1.404 . S
C1060 C1063 1.539 . S
C1061 C1057 1.408 . S
C1061 C1060 1.404 . S
C1061 H1073 0.930 . S
C1062 C1058 1.524 . S
C1062 H1074 0.956 . S
C1062 H1075 0.961 . S
C1062 H1076 0.961 . S
C1063 C1060 1.539 . S
C1063 H1077 0.958 . S
C1063 H1078 0.961 . S
C1063 H1079 0.960 . S
H1064 C1048 0.931 . S
H1065 C1053 0.929 . S
H1066 C1054 0.960 . S
H1067 C1054 0.962 . S
H1068 C1054 0.960 . S
H1069 C1055 0.961 . S
H1070 C1055 0.961 . S
H1071 C1055 0.961 . S
H1072 C1056 0.931 . S
H1073 C1061 0.930 . S
H1074 C1062 0.956 . S
H1075 C1062 0.961 . S
H1076 C1062 0.961 . S
H1077 C1063 0.958 . S
H1078 C1063 0.961 . S
H1079 C1063 0.960 . S
C313 C125 1.947 . S
C321 C175 1.995 1_545 S
C353 C215 1.818 . S
C345 C144 1.633 . S
C385 C234 2.004 . S
C377 C87 1.906 . S
C417 C295 1.404 . S
C409 C106 1.348 . S
C449 C154 1.995 1_564 S
C441 C49 1.976 1_545 S
C473 C68 1.751 . S
C481 C194 1.812 . S
C505 C11 1.972 . S
C513 C255 1.996 1_554 S
C537 C30 1.379 . S
C545 C274 1.406 . S
C577 C156 0.919 . S
C569 C97 0.902 . S
C609 C196 0.395 . S
C601 C116 0.478 . S
C641 C252 1.097 . S
C633 C135 1.027 . S
C665 C78 0.556 . S
C673 C276 0.431 . S
C697 C21 0.899 . S
C705 C177 0.895 . S
C737 C217 0.425 . S
C729 C40 0.406 . S
C769 C263 1.124 . S
C761 C59 0.926 . S
C793 C2 0.548 . S
C801 C297 0.436 . S
C825 C101 1.420 . S
C833 C172 1.569 . S
C857 C120 2.164 1_545 S
C865 C212 2.355 . S
C897 C236 1.467 . S
C889 C139 1.481 . S
C929 C292 2.349 . S
C921 C82 2.173 . S
C953 C25 1.493 . S
C961 C183 1.578 . S
C993 C223 2.351 . S
C985 C44 2.151 1_545 S
C1025 C257 1.453 . S
C1017 C63 1.484 . S
C1049 C6 2.193 . S
C1057 C303 2.343 . S
