# Generated by pormake.
# Topology pth, (4,4)-cn, num edge types: 1
# Building blocks:
#     Node 0, Type 0, BuildingBlock: QUQFOY_clean_sbu_3, # of connection points: 4
#     Node 1, Type 0, BuildingBlock: QUQFOY_clean_sbu_3, # of connection points: 4
#     Node 2, Type 0, BuildingBlock: QUQFOY_clean_sbu_3, # of connection points: 4
#     Node 3, Type 1, BuildingBlock: NAWXER_clean_linker_0, # of connection points: 4
#     Node 4, Type 1, BuildingBlock: NAWXER_clean_linker_0, # of connection points: 4
#     Node 5, Type 1, BuildingBlock: NAWXER_clean_linker_0, # of connection points: 4
#     Edge 6, Type (0, 1), BuildingBlock: TEMPAE_clean_linker_10, # of connection points: 2
#     Edge 7, Type (0, 1), BuildingBlock: TEMPAE_clean_linker_10, # of connection points: 2
#     Edge 8, Type (0, 1), BuildingBlock: TEMPAE_clean_linker_10, # of connection points: 2
#     Edge 9, Type (0, 1), BuildingBlock: TEMPAE_clean_linker_10, # of connection points: 2
#     Edge 10, Type (0, 1), BuildingBlock: TEMPAE_clean_linker_10, # of connection points: 2
#     Edge 11, Type (0, 1), BuildingBlock: TEMPAE_clean_linker_10, # of connection points: 2
#     Edge 12, Type (0, 1), BuildingBlock: TEMPAE_clean_linker_10, # of connection points: 2
#     Edge 13, Type (0, 1), BuildingBlock: TEMPAE_clean_linker_10, # of connection points: 2
#     Edge 14, Type (0, 1), BuildingBlock: TEMPAE_clean_linker_10, # of connection points: 2
#     Edge 15, Type (0, 1), BuildingBlock: TEMPAE_clean_linker_10, # of connection points: 2
#     Edge 16, Type (0, 1), BuildingBlock: TEMPAE_clean_linker_10, # of connection points: 2
#     Edge 17, Type (0, 1), BuildingBlock: TEMPAE_clean_linker_10, # of connection points: 2
# Relax obj value: 0.008
# Max RMSD: 0.059
# Mean RMSD: 0.041
data_MOF--net-pth--node1-QUQFOY_clean_sbu_3--node2-NAWXER_clean_linker_0--edge1-TEMPAE_clean_linker_10
_symmetry_space_group_name_H-M    P1
_symmetry_Int_Tables_number       1
_symmetry_cell_setting            triclinic
loop_
_symmetry_equiv_pos_as_xyz
'x, y, z'
_cell_length_a     29.66159
_cell_length_b     29.466122
_cell_length_c     68.699016
_cell_angle_alpha  90.018398
_cell_angle_beta   90.800692
_cell_angle_gamma 120.65799
loop_
_atom_site_label
_atom_site_type_symbol
_atom_site_fract_x
_atom_site_fract_y
_atom_site_fract_z
_atom_type_partial_charge
C0 C 0.98123 0.14026 0.068 0.0
O1 O 0.95139 0.13196 0.05333 0.0
Cd2 Cd 0.94744 0.07962 0.02569 0.0
O3 O 0.00799 0.11763 0.06935 0.0
Cd4 Cd 0.02058 0.05199 0.05168 0.0
C5 C 0.07895 0.13781 0.01512 0.0
O6 O 0.93288 -0.00272 0.03749 0.0
O7 O -0.00653 0.98489 0.02627 0.0
O8 O 0.00668 0.0042 0.08173 0.0
C9 C 0.94546 0.97136 0.02631 0.0
O10 O 0.03295 0.12716 0.01021 0.0
C11 C 0.04993 0.00514 0.08185 0.0
O12 O 0.08689 0.1187 0.03055 0.0
O13 O 0.08089 0.02932 0.06797 0.0
C14 C 0.12742 0.10158 0.40571 0.0
O15 O 0.15286 0.13473 0.39253 0.0
Cd16 Cd 0.11042 0.14091 0.36334 0.0
O17 O 0.07762 0.07409 0.40474 0.0
Cd18 Cd 0.0043 0.06422 0.38411 0.0
C19 C 0.04185 0.00929 0.35004 0.0
O20 O 0.03874 0.1526 0.37095 0.0
O21 O 0.97358 0.0888 0.35518 0.0
O22 O 0.96367 0.07961 0.41154 0.0
C23 C 0.00461 0.13807 0.35734 0.0
O24 O 0.07747 0.05653 0.34639 0.0
C25 C 0.92118 0.03548 0.41073 0.0
O26 O 0.01083 -0.00099 0.3642 0.0
O27 O 0.91724 0.00313 0.3976 0.0
C28 C 0.93866 0.0877 0.68783 0.0
O29 O 0.94633 0.12248 0.70045 0.0
Cd30 Cd -0.00835 0.12957 0.73055 0.0
O31 O 0.96044 0.06026 0.68979 0.0
Cd32 Cd 0.02511 0.05491 0.7113 0.0
C33 C 0.9304 -0.00154 0.74434 0.0
O34 O 0.07731 0.14468 0.72436 0.0
O35 O 0.08055 0.0832 0.74039 0.0
O36 O 0.08105 0.07067 0.68387 0.0
C37 C 0.09743 0.13201 0.73821 0.0
O38 O 0.93846 0.04493 0.74682 0.0
C39 C 0.08117 0.02775 0.68487 0.0
O40 O 0.95524 0.98912 0.73147 0.0
O41 O 0.05421 -0.00394 0.69828 0.0
C42 C 0.98742 0.40014 0.24874 0.0
C43 C 0.0278 0.40762 0.26168 0.0
C44 C -0.00643 0.44142 0.23688 0.0
C45 C 0.03995 0.49078 0.23798 0.0
C46 C 0.0743 0.45693 0.2626 0.0
C47 C 0.08005 0.49837 0.25101 0.0
C48 C 0.04602 0.53557 0.22642 0.0
C49 C 0.0545 0.42229 0.18432 0.0
C50 C 0.02188 0.4096 0.16777 0.0
C51 C 0.06167 0.46289 0.1969 0.0
C52 C 0.03487 0.49018 0.19345 0.0
C53 C -0.00432 0.43718 0.16417 0.0
C54 C 0.00193 0.47688 0.17693 0.0
C55 C 0.04327 0.53513 0.20588 0.0
C56 C 0.11194 0.76015 0.18674 0.0
C57 C 0.0769 0.75138 0.1712 0.0
C58 C 0.10492 0.71829 0.19848 0.0
C59 C 0.06264 0.66703 0.19491 0.0
C60 C 0.03456 0.69993 0.1678 0.0
C61 C 0.02785 0.6582 0.17941 0.0
C62 C 0.05546 0.62176 0.20658 0.0
C63 C 0.02196 0.72023 0.24696 0.0
C64 C 0.04993 0.73503 0.26479 0.0
C65 C 0.02418 0.6838 0.23463 0.0
C66 C 0.05597 0.66268 0.23943 0.0
C67 C 0.08104 0.71312 0.26972 0.0
C68 C 0.08409 0.67749 0.25717 0.0
C69 C 0.05596 0.62125 0.22714 0.0
H70 H 0.95123 0.3624 0.24781 0.0
H71 H 0.96191 0.43514 0.22708 0.0
H72 H 0.1057 0.46374 0.27263 0.0
H73 H 0.11589 0.53638 0.25216 0.0
H74 H 0.07571 0.40196 0.18716 0.0
H75 H 0.08922 0.47369 0.20895 0.0
H76 H 0.97035 0.42796 0.15146 0.0
H77 H 0.98117 0.49753 0.17378 0.0
H78 H 0.14529 0.79914 0.18961 0.0
H79 H 0.13289 0.72578 0.21014 0.0
H80 H 0.00616 0.69185 0.15625 0.0
H81 H -0.005 0.61896 0.17639 0.0
H82 H -0.00198 0.73655 0.24251 0.0
H83 H -4e-05 0.6714 0.22155 0.0
H84 H 0.10226 0.72256 0.28349 0.0
H85 H 0.10801 0.66096 0.26145 0.0
N86 N 0.05209 0.57845 0.23622 0.0
N87 N 0.0484 0.57846 0.19682 0.0
C88 C 0.64794 0.023 0.51455 0.0
C89 C 0.63264 0.98545 0.4995 0.0
C90 C 0.6104 0.0236 0.52643 0.0
C91 C 0.55704 0.98547 0.52391 0.0
C92 C 0.57922 0.9484 0.49658 0.0
C93 C 0.54177 0.94836 0.50871 0.0
C94 C 0.51648 0.9855 0.53623 0.0
C95 C 0.62822 0.96881 0.57706 0.0
C96 C 0.64838 0.00648 0.59215 0.0
C97 C 0.58587 0.96226 0.56559 0.0
C98 C 0.56454 -0.00526 0.56864 0.0
C99 C 0.62615 0.03776 0.59554 0.0
C100 C 0.58481 0.03209 0.58386 0.0
C101 C 0.52002 0.98969 0.55681 0.0
C102 C 0.30765 0.95028 0.57895 0.0
C103 C 0.32251 0.9867 0.59443 0.0
C104 C 0.34537 0.95166 0.56658 0.0
C105 C 0.39864 0.98944 0.56946 0.0
C106 C 0.37592 0.02482 0.59708 0.0
C107 C 0.41356 0.02581 0.58484 0.0
C108 C 0.43936 0.98927 0.55734 0.0
C109 C 0.36194 0.04935 0.51688 0.0
C110 C 0.33235 0.01446 0.50162 0.0
C111 C 0.39451 0.0394 0.52871 0.0
C112 C 0.39847 -0.00547 0.52551 0.0
C113 C 0.33574 0.96895 0.4987 0.0
C114 C 0.369 0.95946 0.51039 0.0
C115 C 0.43678 0.98702 0.53685 0.0
H116 H 0.68886 0.05266 0.51681 0.0
H117 H 0.6231 0.05407 0.5375 0.0
H118 H 0.56651 0.91923 0.48501 0.0
H119 H 0.50079 0.91913 0.50627 0.0
H120 H 0.64457 0.94388 0.57441 0.0
H121 H 0.56981 0.93183 0.55443 0.0
H122 H 0.64122 0.06706 0.60712 0.0
H123 H 0.56886 0.05732 0.58665 0.0
H124 H 0.26704 0.91991 0.57665 0.0
H125 H 0.33304 0.92237 0.55507 0.0
H126 H 0.38875 0.05419 0.60857 0.0
H127 H 0.45445 0.05525 0.58735 0.0
H128 H 0.36138 0.08535 0.51933 0.0
H129 H 0.41801 0.06778 0.53998 0.0
H130 H 0.31296 0.94075 0.48731 0.0
H131 H 0.37183 0.92481 0.50762 0.0
N132 N 0.47495 0.98442 0.52708 0.0
N133 N 0.4811 0.99112 0.56648 0.0
C134 C 0.38564 0.38461 0.84681 0.0
C135 C 0.3566 0.3985 0.83444 0.0
C136 C 0.42416 0.42214 0.85931 0.0
C137 C 0.43453 0.47425 0.85948 0.0
C138 C 0.36617 0.45033 0.83494 0.0
C139 C 0.40534 0.48811 0.8472 0.0
C140 C 0.47852 0.51515 0.87125 0.0
C141 C 0.35477 0.42067 0.91505 0.0
C142 C 0.36766 0.39166 0.92784 0.0
C143 C 0.39247 0.45798 0.90274 0.0
C144 C 0.44377 0.46706 0.90307 0.0
C145 C 0.41875 0.40013 0.92794 0.0
C146 C 0.45669 0.43802 0.91579 0.0
C147 C 0.48482 0.50969 0.89132 0.0
C148 C 0.66219 0.72099 0.91562 0.0
C149 C 0.68827 0.70567 0.92897 0.0
C150 C 0.62376 0.68402 0.90293 0.0
C151 C 0.61086 0.63109 0.90328 0.0
C152 C 0.67581 0.65278 0.92902 0.0
C153 C 0.6372 0.61581 0.91641 0.0
C154 C 0.56675 0.5906 0.89137 0.0
C155 C 0.68927 0.6907 0.84757 0.0
C156 C 0.6739 0.71706 0.8344 0.0
C157 C 0.65278 0.65226 0.85995 0.0
C158 C 0.60029 0.63965 0.85946 0.0
C159 C 0.62138 0.70464 0.83412 0.0
C160 C 0.58491 0.66604 0.84642 0.0
C161 C 0.56034 0.59615 0.87127 0.0
H162 H 0.37882 0.34481 0.84667 0.0
H163 H 0.44691 0.41087 0.86841 0.0
H164 H 0.34449 0.46196 0.8254 0.0
H165 H 0.41314 0.52826 0.84702 0.0
H166 H 0.31557 0.41468 0.91467 0.0
H167 H 0.38191 0.48075 0.89336 0.0
H168 H 0.42967 0.3785 0.93779 0.0
H169 H 0.49622 0.44489 0.9164 0.0
H170 H 0.67017 0.76118 0.91542 0.0
H171 H 0.60291 0.69646 0.89331 0.0
H172 H 0.69566 0.63982 0.93892 0.0
H173 H 0.62759 0.57509 0.917 0.0
H174 H 0.72918 0.69868 0.84794 0.0
H175 H 0.66529 0.63137 0.86949 0.0
H176 H 0.60838 0.72474 0.82439 0.0
H177 H 0.54454 0.6567 0.84573 0.0
N178 N 0.51637 0.55823 0.86199 0.0
N179 N 0.52877 0.54749 0.90062 0.0
C180 C 0.03154 0.20298 0.09515 0.0
C181 C 0.98601 0.1774 0.08347 0.0
C182 C 0.03778 0.24004 0.10936 0.0
C183 C -0.00304 0.25078 0.11226 0.0
C184 C 0.95031 0.22401 0.10087 0.0
C185 C 0.94566 0.18809 0.08642 0.0
C186 C 0.08858 0.26868 0.1209 0.0
C187 C 0.90549 0.23362 0.10384 0.0
C188 C -0.00246 0.31707 0.15981 0.0
C189 C 0.01648 0.36901 0.15379 0.0
C190 C -0.00955 0.27789 0.1464 0.0
C191 C 0.00391 0.29154 0.12668 0.0
C192 C 0.02406 0.34431 0.12068 0.0
C193 C 0.0295 0.38231 0.13428 0.0
C194 C 0.96786 0.22183 0.15324 0.0
C195 C 0.04 0.36068 0.09989 0.0
H196 H 0.06299 0.19509 0.09282 0.0
H197 H 0.91023 0.16806 0.07753 0.0
H198 H 0.10789 0.31172 0.11825 0.0
H199 H 0.08076 0.26262 0.13671 0.0
H200 H 0.1162 0.25527 0.11704 0.0
H201 H 0.87069 0.20724 0.09462 0.0
H202 H 0.8938 0.22745 0.11933 0.0
H203 H 0.91812 0.27512 0.10032 0.0
H204 H 0.98722 0.30697 0.17492 0.0
H205 H 0.0445 0.42271 0.12974 0.0
H206 H -0.00415 0.2082 0.15052 0.0
H207 H 0.93139 0.19534 0.14487 0.0
H208 H 0.95875 0.21764 0.169 0.0
H209 H 0.0696 0.35036 0.09555 0.0
H210 H 0.05667 0.40367 0.09777 0.0
H211 H 0.0056 0.33897 0.08997 0.0
C212 C 0.87736 0.06537 0.43376 0.0
C213 C 0.87793 0.0238 0.42406 0.0
C214 C 0.83616 0.05599 0.44601 0.0
C215 C 0.79497 0.00357 0.44898 0.0
C216 C 0.79572 0.96124 0.43952 0.0
C217 C 0.83698 0.97192 0.42696 0.0
C218 C 0.83635 0.10232 0.45554 0.0
C219 C 0.75301 0.90478 0.44268 0.0
C220 C 0.71618 0.98609 0.49432 0.0
C221 C 0.67233 0.98613 0.48651 0.0
C222 C 0.7553 0.98918 0.48218 0.0
C223 C 0.75091 -0.00633 0.4618 0.0
C224 C 0.70616 -0.00722 0.45384 0.0
C225 C 0.66711 0.9885 0.4663 0.0
C226 C 0.80191 0.98896 0.49118 0.0
C227 C 0.70055 -0.00142 0.43224 0.0
H228 H 0.90873 0.10561 0.43147 0.0
H229 H 0.83744 0.93967 0.41955 0.0
H230 H 0.8003 0.10266 0.45127 0.0
H231 H 0.8363 0.09862 0.4716 0.0
H232 H 0.87094 0.14069 0.45147 0.0
H233 H 0.76033 0.87628 0.43481 0.0
H234 H 0.74971 0.89563 0.45844 0.0
H235 H 0.71471 0.89903 0.43767 0.0
H236 H 0.71985 0.98373 0.50996 0.0
H237 H 0.63331 0.98889 0.4603 0.0
H238 H 0.83777 0.02804 0.48921 0.0
H239 H 0.80828 0.95925 0.48379 0.0
H240 H 0.79699 0.98019 0.50699 0.0
H241 H 0.73228 0.03789 0.42748 0.0
H242 H 0.6622 -0.00547 0.42829 0.0
H243 H 0.70466 0.96853 0.42402 0.0
C244 C 0.88911 0.90626 0.75718 0.0
C245 C 0.89214 0.95535 0.75684 0.0
C246 C 0.85408 0.86594 0.7695 0.0
C247 C 0.82104 0.87482 0.7816 0.0
C248 C 0.82339 0.92398 0.78112 0.0
C249 C 0.85902 0.96368 0.76881 0.0
C250 C 0.85282 0.81406 0.76973 0.0
C251 C 0.78838 0.93475 0.79366 0.0
C252 C 0.69724 0.75839 0.8014 0.0
C253 C 0.71216 0.75667 0.82074 0.0
C254 C 0.73248 0.7962 0.78843 0.0
C255 C 0.78406 0.83292 0.79489 0.0
C256 C 0.79973 0.83088 0.81428 0.0
C257 C 0.76353 0.7929 0.82699 0.0
C258 C 0.71429 0.79728 0.76788 0.0
C259 C 0.85448 0.86935 0.82168 0.0
H260 H 0.91465 0.89954 0.74803 0.0
H261 H 0.86083 0.00135 0.76858 0.0
H262 H 0.86261 0.80652 0.78457 0.0
H263 H 0.81278 0.78127 0.766 0.0
H264 H 0.88076 0.81328 0.75933 0.0
H265 H 0.79447 0.97479 0.79132 0.0
H266 H 0.74665 0.9052 0.79049 0.0
H267 H 0.79596 0.93092 0.80926 0.0
H268 H 0.65794 0.72992 0.79634 0.0
H269 H 0.77521 0.79224 0.84196 0.0
H270 H 0.74001 0.79331 0.7573 0.0
H271 H 0.71714 0.83577 0.76514 0.0
H272 H 0.67319 0.76529 0.76503 0.0
H273 H 0.88379 0.8681 0.81218 0.0
H274 H 0.8612 0.86091 0.83686 0.0
H275 H 0.86153 0.9101 0.82117 0.0
C276 C 0.11112 0.98099 0.09802 0.0
C277 C 0.06168 0.97633 0.09679 0.0
C278 C 0.12071 0.95009 0.11111 0.0
C279 C 0.07961 0.91316 0.12293 0.0
C280 C 0.03022 0.90965 0.12219 0.0
C281 C 0.02201 0.94155 0.10924 0.0
C282 C 0.1742 0.95568 0.11182 0.0
C283 C 0.98517 0.87039 0.1344 0.0
C284 C 0.07304 0.78679 0.13849 0.0
C285 C 0.08374 0.79534 0.15855 0.0
C286 C 0.07365 0.82569 0.1266 0.0
C287 C 0.08625 0.87485 0.13487 0.0
C288 C 0.10021 0.88501 0.15486 0.0
C289 C 0.09842 0.84496 0.16651 0.0
C290 C 0.05828 0.81315 0.10536 0.0
C291 C 0.11474 0.9373 0.16411 0.0
H292 H 0.14205 0.00811 0.08852 0.0
H293 H 0.98371 0.93775 0.1084 0.0
H294 H 0.18835 0.95965 0.12711 0.0
H295 H 0.17173 0.91969 0.10562 0.0
H296 H 0.20348 0.99033 0.10348 0.0
H297 H 0.95006 0.87443 0.13281 0.0
H298 H 0.97412 0.82968 0.13006 0.0
H299 H -0.00296 0.87545 0.15 0.0
H300 H 0.06307 0.74909 0.13211 0.0
H301 H 0.10659 0.85193 0.182 0.0
H302 H 0.08877 0.84392 0.09604 0.0
H303 H 0.02128 0.81296 0.10245 0.0
H304 H 0.05242 0.77419 0.10096 0.0
H305 H 0.14356 0.97038 0.15508 0.0
H306 H 0.13153 0.94156 0.17902 0.0
H307 H 0.07937 0.94087 0.16503 0.0
C308 C 0.20889 0.12789 0.42546 0.0
C309 C 0.15577 0.09178 0.42152 0.0
C310 C 0.23698 0.11688 0.43941 0.0
C311 C 0.21155 0.06819 0.44936 0.0
C312 C 0.15769 0.03208 0.44573 0.0
C313 C 0.13034 0.04452 0.43198 0.0
C314 C 0.29415 0.15682 0.44319 0.0
C315 C 0.12942 0.97941 0.45581 0.0
C316 C 0.29688 0.0157 0.46834 0.0
C317 C 0.29989 0.02677 0.48835 0.0
C318 C 0.26778 0.02845 0.45556 0.0
C319 C 0.24185 0.05388 0.46286 0.0
C320 C 0.24472 0.06532 0.483 0.0
C321 C 0.27323 0.05114 0.49552 0.0
C322 C 0.26506 0.01496 0.43419 0.0
C323 C 0.218 0.09289 0.49128 0.0
H324 H 0.22868 0.16461 0.41751 0.0
H325 H 0.08936 0.01625 0.42894 0.0
H326 H 0.30155 0.16567 0.459 0.0
H327 H 0.31862 0.14033 0.43855 0.0
H328 H 0.30707 0.19429 0.4353 0.0
H329 H 0.08699 0.95665 0.45193 0.0
H330 H 0.14722 0.95558 0.45176 0.0
H331 H 0.13366 0.98509 0.47184 0.0
H332 H 0.31807 -0.00213 0.46254 0.0
H333 H 0.27452 0.05913 0.51098 0.0
H334 H 0.28257 0.05156 0.42546 0.0
H335 H 0.22355 0.99014 0.42935 0.0
H336 H 0.28595 -0.00645 0.43096 0.0
H337 H 0.23236 0.13134 0.48398 0.0
H338 H 0.22498 0.09999 0.50721 0.0
H339 H 0.17514 0.06892 0.48845 0.0
C340 C 0.14295 0.15573 0.77061 0.0
C341 C 0.13511 0.17157 0.75225 0.0
C342 C 0.178 0.19276 0.78425 0.0
C343 C 0.2067 0.24676 0.77924 0.0
C344 C 0.19923 0.26297 0.76067 0.0
C345 C 0.16305 0.22517 0.74745 0.0
C346 C 0.18422 0.17411 0.80404 0.0
C347 C 0.22991 0.32012 0.75469 0.0
C348 C 0.26654 0.34967 0.81966 0.0
C349 C 0.318 0.35958 0.82043 0.0
C350 C 0.22969 0.31273 0.80638 0.0
C351 C 0.24519 0.28613 0.79335 0.0
C352 C 0.29738 0.2966 0.79394 0.0
C353 C 0.33305 0.33288 0.80763 0.0
C354 C 0.1741 0.30177 0.80643 0.0
C355 C 0.31559 0.26971 0.78005 0.0
H356 H 0.1211 0.11434 0.77443 0.0
H357 H 0.1572 0.23748 0.73323 0.0
H358 H 0.2252 0.18346 0.80627 0.0
H359 H 0.17606 0.19512 0.81561 0.0
H360 H 0.15761 0.13097 0.80588 0.0
H361 H 0.2198 0.32615 0.73965 0.0
H362 H 0.22231 0.34465 0.76484 0.0
H363 H 0.27253 0.33461 0.75555 0.0
H364 H 0.255 0.37025 0.82966 0.0
H365 H 0.3731 0.34111 0.80812 0.0
H366 H 0.14658 0.2593 0.8092 0.0
H367 H 0.16358 0.31072 0.79196 0.0
H368 H 0.16829 0.3254 0.81765 0.0
H369 H 0.29273 0.2264 0.78218 0.0
H370 H 0.3579 0.28345 0.78204 0.0
H371 H 0.30861 0.27727 0.76479 0.0
C372 C 0.87672 0.02701 0.66218 0.0
C373 C 0.90159 0.07659 0.67142 0.0
C374 C 0.83739 0.01378 0.64799 0.0
C375 C 0.82343 0.05143 0.64264 0.0
C376 C 0.85028 0.10245 0.65121 0.0
C377 C 0.88865 0.11423 0.66567 0.0
C378 C 0.80902 0.95869 0.63944 0.0
C379 C 0.83724 0.14404 0.64557 0.0
C380 C 0.74149 0.03019 0.59679 0.0
C381 C 0.69222 0.01336 0.60468 0.0
C382 C 0.78474 0.04227 0.60894 0.0
C383 C 0.77792 0.03624 0.62934 0.0
C384 C 0.72761 0.01728 0.63723 0.0
C385 C 0.68546 0.00664 0.6248 0.0
C386 C 0.83796 0.06326 0.60006 0.0
C387 C 0.7185 0.00929 0.65886 0.0
H388 H 0.88641 -0.00234 0.66664 0.0
H389 H 0.90812 0.15277 0.67264 0.0
H390 H 0.76759 0.93776 0.6441 0.0
H391 H 0.80871 0.96016 0.62331 0.0
H392 H 0.82709 0.93532 0.64408 0.0
H393 H 0.8652 0.18318 0.65212 0.0
H394 H 0.83751 0.14802 0.6295 0.0
H395 H 0.79721 0.13204 0.65045 0.0
H396 H 0.74652 0.03578 0.5812 0.0
H397 H 0.64712 -0.00654 0.6308 0.0
H398 H 0.85522 0.03925 0.6047 0.0
H399 H 0.86483 0.1042 0.6053 0.0
H400 H 0.83618 0.06338 0.58389 0.0
H401 H 0.73309 0.98376 0.6645 0.0
H402 H 0.67639 0.99104 0.66248 0.0
H403 H 0.7407 0.04779 0.66659 0.0
C404 C 0.92127 0.9002 0.00153 0.0
C405 C 0.90722 0.93099 0.01257 0.0
C406 C 0.88603 0.86287 0.98799 0.0
C407 C 0.83572 0.85652 0.98534 0.0
C408 C 0.82119 0.88728 -0.00349 0.0
C409 C 0.85706 0.92402 0.01007 0.0
C410 C 0.90269 0.83037 0.97647 0.0
C411 C 0.76796 0.88179 -0.00601 0.0
C412 C 0.76255 0.79617 0.93776 0.0
C413 C 0.72682 0.74421 0.94329 0.0
C414 C 0.79818 0.83318 0.95131 0.0
C415 C 0.79831 0.81775 0.97081 0.0
C416 C 0.76266 0.76533 0.97647 0.0
C417 C 0.7272 0.72927 0.96266 0.0
C418 C 0.83559 0.88883 0.94477 0.0
C419 C 0.76176 0.7474 -0.00287 0.0
H420 H 0.95993 0.9053 0.00344 0.0
H421 H 0.84605 0.94784 0.01852 0.0
H422 H 0.87504 0.78774 0.97888 0.0
H423 H 0.90145 0.83762 0.96068 0.0
H424 H 0.9429 0.83952 0.9805 0.0
H425 H 0.76269 0.90855 0.00386 0.0
H426 H 0.7625 0.89067 0.97874 0.0
H427 H 0.73671 0.84057 -0.00313 0.0
H428 H 0.76293 0.80784 0.92278 0.0
H429 H 0.69912 0.68949 0.96715 0.0
H430 H 0.87664 0.89861 0.94725 0.0
H431 H 0.82994 0.91717 0.95351 0.0
H432 H 0.83015 0.8946 0.92912 0.0
H433 H 0.80094 0.75412 0.00139 0.0
H434 H 0.73229 0.70496 -0.00094 0.0
H435 H 0.75271 0.77093 0.00725 0.0
C436 C 0.05347 0.9758 0.31836 0.0
C437 C 0.03787 0.96615 0.33782 0.0
C438 C 0.05267 0.93636 0.30671 0.0
C439 C 0.0372 0.8865 0.31486 0.0
C440 C 0.02099 0.87635 0.33447 0.0
C441 C 0.02085 0.91618 0.34566 0.0
C442 C 0.06895 0.94827 0.28572 0.0
C443 C 0.00536 0.82404 0.34377 0.0
C444 C -0.00129 0.77215 0.27995 0.0
C445 C 0.04609 0.77259 0.27824 0.0
C446 C -0.00493 0.80865 0.29195 0.0
C447 C 0.03948 0.84567 0.30292 0.0
C448 C 0.08693 0.84536 0.30179 0.0
C449 C 0.08986 0.80932 0.28929 0.0
C450 C 0.94403 0.80832 0.29255 0.0
C451 C 0.13494 0.88376 0.31351 0.0
H452 H 0.06622 0.01431 0.31222 0.0
H453 H 0.00919 0.90883 0.36076 0.0
H454 H 0.10485 0.94631 0.28341 0.0
H455 H 0.03779 0.91826 0.27599 0.0
H456 H 0.0769 0.98794 0.28132 0.0
H457 H -0.0074 0.82202 0.35903 0.0
H458 H 0.97302 0.79136 0.33528 0.0
H459 H 0.039 0.81744 0.34368 0.0
H460 H 0.96425 0.74324 0.27188 0.0
H461 H 0.12687 0.81068 0.28793 0.0
H462 H 0.95022 0.8468 0.28745 0.0
H463 H 0.92999 0.80315 0.30771 0.0
H464 H 0.91291 0.77647 0.28332 0.0
H465 H 0.14897 0.92458 0.30853 0.0
H466 H 0.16745 0.87562 0.31217 0.0
H467 H 0.12508 0.88208 0.32912 0.0
C468 C 0.1496 0.05707 0.65956 0.0
C469 C 0.11262 0.01655 0.67128 0.0
C470 C 0.18124 0.04836 0.64698 0.0
C471 C 0.17532 -0.00236 0.64586 0.0
C472 C 0.13735 0.95619 0.65736 0.0
C473 C 0.10665 0.96626 0.67008 0.0
C474 C 0.22175 0.09381 0.63515 0.0
C475 C 0.12944 0.90143 0.65631 0.0
C476 C 0.23375 0.97467 0.60075 0.0
C477 C 0.28278 0.98515 0.60786 0.0
C478 C 0.19724 0.97607 0.61316 0.0
C479 C 0.21036 0.98901 0.63308 0.0
C480 C 0.25906 -0.00193 0.64046 0.0
C481 C 0.29444 -0.00441 0.62781 0.0
C482 C 0.14541 0.96558 0.60479 0.0
C483 C 0.27469 0.01237 0.6616 0.0
H484 H 0.15458 0.0961 0.66045 0.0
H485 H 0.07793 0.93475 0.67904 0.0
H486 H 0.26149 0.10138 0.63899 0.0
H487 H 0.21504 0.08374 0.61942 0.0
H488 H 0.22104 0.13071 0.63759 0.0
H489 H 0.09665 0.87298 0.66551 0.0
H490 H 0.12129 0.88681 0.64103 0.0
H491 H 0.16578 0.90243 0.66113 0.0
H492 H 0.22444 0.96695 0.58535 0.0
H493 H 0.33164 0.00244 0.63355 0.0
H494 H 0.14414 0.00255 0.60498 0.0
H495 H 0.11266 0.93645 0.61381 0.0
H496 H 0.13888 0.95052 0.58957 0.0
H497 H 0.27794 0.05079 0.66494 0.0
H498 H 0.31276 0.01544 0.66526 0.0
H499 H 0.24421 0.98249 0.67117 0.0
C500 C 0.11412 0.18084 0.98319 0.0
C501 C 0.12342 0.17294 0.00262 0.0
C502 C 0.15539 0.21489 0.97117 0.0
C503 C 0.20716 0.24246 0.97885 0.0
C504 C 0.21697 0.23434 -0.0016 0.0
C505 C 0.17497 0.19926 0.01002 0.0
C506 C 0.14346 0.22188 0.9503 0.0
C507 C 0.27161 0.26368 0.00716 0.0
C508 C 0.3183 0.3021 0.94274 0.0
C509 C 0.32813 0.35381 0.94144 0.0
C510 C 0.27946 0.26545 0.95508 0.0
C511 C 0.25055 0.28135 0.96657 0.0
C512 C 0.2614 0.33398 0.96567 0.0
C513 C 0.29981 0.36947 0.95299 0.0
C514 C 0.26841 0.20946 0.95544 0.0
C515 C 0.23194 0.35262 0.97791 0.0
H516 H 0.07443 0.16019 0.97731 0.0
H517 H 0.18235 0.19342 0.02505 0.0
H518 H 0.15355 0.26325 0.94798 0.0
H519 H 0.16775 0.21398 0.94029 0.0
H520 H 0.10151 0.19532 0.94628 0.0
H521 H 0.27288 0.25175 0.0224 0.0
H522 H 0.29854 0.25662 -0.00165 0.0
H523 H 0.28668 0.30673 0.00697 0.0
H524 H 0.34009 0.28999 0.93371 0.0
H525 H 0.30794 0.40971 0.95215 0.0
H526 H 0.22765 0.18212 0.95027 0.0
H527 H 0.27165 0.19807 0.97055 0.0
H528 H 0.29563 0.20394 0.94615 0.0
H529 H 0.18983 0.33086 0.97362 0.0
H530 H 0.24722 0.39555 0.97632 0.0
H531 H 0.23455 0.3442 -0.00651 0.0
C532 C 0.03175 0.23017 0.34777 0.0
C533 C 0.00497 0.17616 0.34328 0.0
C534 C 0.03339 0.26687 0.33436 0.0
C535 C 0.00849 0.24912 0.3159 0.0
C536 C 0.98129 0.19459 0.31131 0.0
C537 C 0.97943 0.15868 0.32514 0.0
C538 C 0.06202 0.32466 0.33989 0.0
C539 C 0.95504 0.17431 0.29167 0.0
C540 C 0.97765 0.33981 0.28681 0.0
C541 C 0.02116 0.36478 0.2747 0.0
C542 C 0.97278 0.30176 0.30024 0.0
C543 C 0.01194 0.28784 0.30127 0.0
C544 C 0.05518 0.31191 0.28864 0.0
C545 C 0.05953 0.35053 0.27562 0.0
C546 C 0.92655 0.27753 0.31368 0.0
C547 C 0.09716 0.29732 0.28904 0.0
H548 H 0.05127 0.24378 0.36182 0.0
H549 H 0.9589 0.11695 0.32157 0.0
H550 H 0.09537 0.34719 0.33 0.0
H551 H 0.03543 0.3406 0.33821 0.0
H552 H 0.07735 0.33171 0.35512 0.0
H553 H 0.93514 0.13066 0.29045 0.0
H554 H 0.92566 0.18634 0.28894 0.0
H555 H 0.98457 0.19195 0.28004 0.0
H556 H 0.94827 0.3513 0.28619 0.0
H557 H 0.09298 0.36968 0.26612 0.0
H558 H 0.94058 0.28703 0.32903 0.0
H559 H 0.90481 0.23394 0.31214 0.0
H560 H 0.89902 0.29189 0.31075 0.0
H561 H 0.11754 0.30774 0.30343 0.0
H562 H 0.12675 0.31773 0.27757 0.0
H563 H 0.0792 0.25409 0.28702 0.0
loop_
_geom_bond_atom_site_label_1
_geom_bond_atom_site_label_2
_geom_bond_distance
_geom_bond_site_symmetry_2
_ccdc_geom_bond_type
C0 O1 1.306 1_455 S
C0 O3 1.160 . S
O1 C0 1.306 1_655 S
O1 Cd2 2.228 . S
Cd2 O1 2.228 . S
Cd2 O6 2.273 . S
Cd2 O10 2.277 1_655 S
O3 C0 1.160 . S
O3 Cd4 2.203 . S
Cd4 O3 2.203 . S
Cd4 O6 2.411 1_455 S
Cd4 O7 2.333 1_545 S
Cd4 O8 2.352 1_545 S
Cd4 O12 2.277 . S
Cd4 O13 2.346 1_545 S
C5 O10 1.209 . S
C5 O12 1.226 . S
O6 Cd2 2.273 . S
O6 Cd4 2.411 1_655 S
O6 C9 1.320 1_545 S
O7 Cd4 2.333 1_565 S
O7 C9 1.214 1_455 S
O8 Cd4 2.352 1_565 S
O8 C11 1.258 . S
C9 O6 1.320 1_565 S
C9 O7 1.214 1_655 S
O10 Cd2 2.277 1_455 S
O10 C5 1.209 . S
C11 O8 1.258 . S
C11 O13 1.283 . S
O12 Cd4 2.277 . S
O12 C5 1.226 . S
O13 Cd4 2.346 1_565 S
O13 C11 1.283 . S
C14 O15 1.306 . S
C14 O17 1.160 . S
O15 C14 1.306 . S
O15 Cd16 2.228 . S
Cd16 O15 2.228 . S
Cd16 O20 2.273 . S
Cd16 O24 2.277 . S
O17 C14 1.160 . S
O17 Cd18 2.203 . S
Cd18 O17 2.203 . S
Cd18 O20 2.411 . S
Cd18 O21 2.333 1_455 S
Cd18 O22 2.352 1_455 S
Cd18 O26 2.277 1_445 S
Cd18 O27 2.354 1_455 S
C19 O24 1.209 1_565 S
C19 O26 1.226 1_455 S
O20 Cd16 2.273 . S
O20 Cd18 2.411 . S
O20 C23 1.320 . S
O21 Cd18 2.333 1_655 S
O21 C23 1.214 1_655 S
O22 Cd18 2.352 1_655 S
O22 C25 1.258 . S
C23 O20 1.320 . S
C23 O21 1.214 1_455 S
O24 Cd16 2.277 . S
O24 C19 1.209 1_545 S
C25 O22 1.258 . S
C25 O27 1.299 . S
O26 Cd18 2.277 1_665 S
O26 C19 1.226 1_655 S
O27 Cd18 2.354 1_655 S
O27 C25 1.299 . S
C28 O29 1.306 . S
C28 O31 1.160 . S
O29 C28 1.306 . S
O29 Cd30 2.228 . S
Cd30 O29 2.228 . S
Cd30 O34 2.273 1_655 S
Cd30 O38 2.277 . S
O31 C28 1.160 . S
O31 Cd32 2.203 1_655 S
Cd32 O31 2.203 1_455 S
Cd32 O34 2.411 . S
Cd32 O35 2.333 . S
Cd32 O36 2.352 . S
Cd32 O40 2.277 1_445 S
Cd32 O41 2.356 . S
C33 O38 1.209 1_565 S
C33 O40 1.226 . S
O34 Cd30 2.273 1_455 S
O34 Cd32 2.411 . S
O34 C37 1.320 . S
O35 Cd32 2.333 . S
O35 C37 1.214 . S
O36 Cd32 2.352 . S
O36 C39 1.258 . S
C37 O34 1.320 . S
C37 O35 1.214 . S
O38 Cd30 2.277 . S
O38 C33 1.209 1_545 S
C39 O36 1.258 . S
C39 O41 1.282 . S
O40 Cd32 2.277 1_665 S
O40 C33 1.226 . S
O41 Cd32 2.356 . S
O41 C39 1.282 . S
C42 C43 1.384 . S
C42 C44 1.384 . S
C42 H70 0.931 1_455 S
C43 C42 1.384 . S
C43 C46 1.382 . S
C44 C42 1.384 . S
C44 C45 1.381 . S
C44 H71 0.930 1_455 S
C45 C44 1.381 . S
C45 C47 1.381 . S
C45 C48 1.487 . S
C46 C43 1.382 . S
C46 C47 1.387 . S
C46 H72 0.930 . S
C47 C45 1.381 . S
C47 C46 1.387 . S
C47 H73 0.931 . S
C48 C45 1.487 . S
C48 C55 1.399 . S
C48 N86 1.343 . S
C49 C50 1.384 . S
C49 C51 1.384 . S
C49 H74 0.931 . S
C50 C49 1.384 . S
C50 C53 1.382 . S
C51 C49 1.384 . S
C51 C52 1.381 . S
C51 H75 0.930 . S
C52 C51 1.381 . S
C52 C54 1.381 . S
C52 C55 1.487 . S
C53 C50 1.382 . S
C53 C54 1.387 . S
C53 H76 0.930 1_455 S
C54 C52 1.381 . S
C54 C53 1.387 . S
C54 H77 0.931 1_455 S
C55 C48 1.399 . S
C55 C52 1.487 . S
C55 N87 1.343 . S
C56 C57 1.384 . S
C56 C58 1.384 . S
C56 H78 0.931 . S
C57 C56 1.384 . S
C57 C60 1.382 . S
C58 C56 1.384 . S
C58 C59 1.381 . S
C58 H79 0.930 . S
C59 C58 1.381 . S
C59 C61 1.381 . S
C59 C62 1.487 . S
C60 C57 1.382 . S
C60 C61 1.387 . S
C60 H80 0.930 1_455 S
C61 C59 1.381 . S
C61 C60 1.387 . S
C61 H81 0.931 1_455 S
C62 C59 1.487 . S
C62 C69 1.399 . S
C62 N87 1.343 . S
C63 C64 1.384 . S
C63 C65 1.384 . S
C63 H82 0.931 1_455 S
C64 C63 1.384 . S
C64 C67 1.382 . S
C65 C63 1.384 . S
C65 C66 1.381 . S
C65 H83 0.930 1_455 S
C66 C65 1.381 . S
C66 C68 1.381 . S
C66 C69 1.487 . S
C67 C64 1.382 . S
C67 C68 1.387 . S
C67 H84 0.930 . S
C68 C66 1.381 . S
C68 C67 1.387 . S
C68 H85 0.931 . S
C69 C62 1.399 . S
C69 C66 1.487 . S
C69 N86 1.343 . S
H70 C42 0.931 1_655 S
H71 C44 0.930 1_655 S
H72 C46 0.930 . S
H73 C47 0.931 . S
H74 C49 0.931 . S
H75 C51 0.930 . S
H76 C53 0.930 1_655 S
H77 C54 0.931 1_655 S
H78 C56 0.931 . S
H79 C58 0.930 . S
H80 C60 0.930 1_655 S
H81 C61 0.931 1_655 S
H82 C63 0.931 1_655 S
H83 C65 0.930 1_655 S
H84 C67 0.930 . S
H85 C68 0.931 . S
N86 C48 1.343 . S
N86 C69 1.343 . S
N87 C55 1.343 . S
N87 C62 1.343 . S
C88 C89 1.384 . S
C88 C90 1.384 . S
C88 H116 0.931 . S
C89 C88 1.384 . S
C89 C92 1.382 . S
C90 C88 1.384 . S
C90 C91 1.381 . S
C90 H117 0.930 . S
C91 C90 1.381 . S
C91 C93 1.381 . S
C91 C94 1.487 . S
C92 C89 1.382 . S
C92 C93 1.387 . S
C92 H118 0.930 1_545 S
C93 C91 1.381 . S
C93 C92 1.387 . S
C93 H119 0.931 1_545 S
C94 C91 1.487 . S
C94 C101 1.399 . S
C94 N132 1.343 . S
C95 C96 1.384 . S
C95 C97 1.384 . S
C95 H120 0.931 1_545 S
C96 C95 1.384 . S
C96 C99 1.382 . S
C97 C95 1.384 . S
C97 C98 1.381 . S
C97 H121 0.930 1_545 S
C98 C97 1.381 . S
C98 C100 1.381 . S
C98 C101 1.487 . S
C99 C96 1.382 . S
C99 C100 1.387 . S
C99 H122 0.930 . S
C100 C98 1.381 . S
C100 C99 1.387 . S
C100 H123 0.931 . S
C101 C94 1.399 . S
C101 C98 1.487 . S
C101 N133 1.343 . S
C102 C103 1.384 . S
C102 C104 1.384 . S
C102 H124 0.931 1_545 S
C103 C102 1.384 . S
C103 C106 1.382 . S
C104 C102 1.384 . S
C104 C105 1.381 . S
C104 H125 0.930 1_545 S
C105 C104 1.381 . S
C105 C107 1.381 . S
C105 C108 1.487 . S
C106 C103 1.382 . S
C106 C107 1.387 . S
C106 H126 0.930 . S
C107 C105 1.381 . S
C107 C106 1.387 . S
C107 H127 0.931 . S
C108 C105 1.487 . S
C108 C115 1.399 . S
C108 N133 1.343 . S
C109 C110 1.384 . S
C109 C111 1.384 . S
C109 H128 0.931 . S
C110 C109 1.384 . S
C110 C113 1.382 . S
C111 C109 1.384 . S
C111 C112 1.381 . S
C111 H129 0.930 . S
C112 C111 1.381 . S
C112 C114 1.381 . S
C112 C115 1.487 . S
C113 C110 1.382 . S
C113 C114 1.387 . S
C113 H130 0.930 1_545 S
C114 C112 1.381 . S
C114 C113 1.387 . S
C114 H131 0.931 1_545 S
C115 C108 1.399 . S
C115 C112 1.487 . S
C115 N132 1.343 . S
H116 C88 0.931 . S
H117 C90 0.930 . S
H118 C92 0.930 1_565 S
H119 C93 0.931 1_565 S
H120 C95 0.931 1_565 S
H121 C97 0.930 1_565 S
H122 C99 0.930 . S
H123 C100 0.931 . S
H124 C102 0.931 1_565 S
H125 C104 0.930 1_565 S
H126 C106 0.930 . S
H127 C107 0.931 . S
H128 C109 0.931 . S
H129 C111 0.930 . S
H130 C113 0.930 1_565 S
H131 C114 0.931 1_565 S
N132 C94 1.343 . S
N132 C115 1.343 . S
N133 C101 1.343 . S
N133 C108 1.343 . S
C134 C135 1.384 . S
C134 C136 1.384 . S
C134 H162 0.931 . S
C135 C134 1.384 . S
C135 C138 1.382 . S
C136 C134 1.384 . S
C136 C137 1.381 . S
C136 H163 0.930 . S
C137 C136 1.381 . S
C137 C139 1.381 . S
C137 C140 1.487 . S
C138 C135 1.382 . S
C138 C139 1.387 . S
C138 H164 0.930 . S
C139 C137 1.381 . S
C139 C138 1.387 . S
C139 H165 0.931 . S
C140 C137 1.487 . S
C140 C147 1.399 . S
C140 N178 1.343 . S
C141 C142 1.384 . S
C141 C143 1.384 . S
C141 H166 0.931 . S
C142 C141 1.384 . S
C142 C145 1.382 . S
C143 C141 1.384 . S
C143 C144 1.381 . S
C143 H167 0.930 . S
C144 C143 1.381 . S
C144 C146 1.381 . S
C144 C147 1.487 . S
C145 C142 1.382 . S
C145 C146 1.387 . S
C145 H168 0.930 . S
C146 C144 1.381 . S
C146 C145 1.387 . S
C146 H169 0.931 . S
C147 C140 1.399 . S
C147 C144 1.487 . S
C147 N179 1.343 . S
C148 C149 1.384 . S
C148 C150 1.384 . S
C148 H170 0.931 . S
C149 C148 1.384 . S
C149 C152 1.382 . S
C150 C148 1.384 . S
C150 C151 1.381 . S
C150 H171 0.930 . S
C151 C150 1.381 . S
C151 C153 1.381 . S
C151 C154 1.487 . S
C152 C149 1.382 . S
C152 C153 1.387 . S
C152 H172 0.930 . S
C153 C151 1.381 . S
C153 C152 1.387 . S
C153 H173 0.931 . S
C154 C151 1.487 . S
C154 C161 1.399 . S
C154 N179 1.343 . S
C155 C156 1.384 . S
C155 C157 1.384 . S
C155 H174 0.931 . S
C156 C155 1.384 . S
C156 C159 1.382 . S
C157 C155 1.384 . S
C157 C158 1.381 . S
C157 H175 0.930 . S
C158 C157 1.381 . S
C158 C160 1.381 . S
C158 C161 1.487 . S
C159 C156 1.382 . S
C159 C160 1.387 . S
C159 H176 0.930 . S
C160 C158 1.381 . S
C160 C159 1.387 . S
C160 H177 0.931 . S
C161 C154 1.399 . S
C161 C158 1.487 . S
C161 N178 1.343 . S
H162 C134 0.931 . S
H163 C136 0.930 . S
H164 C138 0.930 . S
H165 C139 0.931 . S
H166 C141 0.931 . S
H167 C143 0.930 . S
H168 C145 0.930 . S
H169 C146 0.931 . S
H170 C148 0.931 . S
H171 C150 0.930 . S
H172 C152 0.930 . S
H173 C153 0.931 . S
H174 C155 0.931 . S
H175 C157 0.930 . S
H176 C159 0.930 . S
H177 C160 0.931 . S
N178 C140 1.343 . S
N178 C161 1.343 . S
N179 C147 1.343 . S
N179 C154 1.343 . S
C180 C181 1.391 . S
C180 C182 1.394 . S
C180 H196 0.931 . S
C181 C180 1.391 . S
C181 C185 1.376 1_455 S
C182 C180 1.394 . S
C182 C183 1.369 . S
C182 C186 1.531 . S
C183 C182 1.369 . S
C183 C184 1.410 1_455 S
C183 C191 1.503 . S
C184 C183 1.410 1_655 S
C184 C185 1.392 . S
C184 C187 1.511 . S
C185 C181 1.376 1_655 S
C185 C184 1.392 . S
C185 H197 0.929 . S
C186 C182 1.531 . S
C186 H198 0.960 . S
C186 H199 0.962 . S
C186 H200 0.960 . S
C187 C184 1.511 . S
C187 H201 0.961 . S
C187 H202 0.961 . S
C187 H203 0.961 . S
C188 C189 1.370 . S
C188 C190 1.363 . S
C188 H204 0.931 . S
C189 C188 1.370 . S
C189 C193 1.408 . S
C190 C188 1.363 . S
C190 C191 1.370 . S
C190 C194 1.524 . S
C191 C183 1.503 . S
C191 C190 1.370 . S
C191 C192 1.403 . S
C192 C191 1.403 . S
C192 C193 1.404 . S
C192 C195 1.539 . S
C193 C189 1.408 . S
C193 C192 1.404 . S
C193 H205 0.930 . S
C194 C190 1.524 . S
C194 H206 0.956 . S
C194 H207 0.961 1_455 S
C194 H208 0.961 . S
C195 C192 1.539 . S
C195 H209 0.958 . S
C195 H210 0.961 . S
C195 H211 0.960 . S
H196 C180 0.931 . S
H197 C185 0.929 . S
H198 C186 0.960 . S
H199 C186 0.962 . S
H200 C186 0.960 . S
H201 C187 0.961 . S
H202 C187 0.961 . S
H203 C187 0.961 . S
H204 C188 0.931 . S
H205 C193 0.930 . S
H206 C194 0.956 . S
H207 C194 0.961 1_655 S
H208 C194 0.961 . S
H209 C195 0.958 . S
H210 C195 0.961 . S
H211 C195 0.960 . S
C212 C213 1.391 . S
C212 C214 1.394 . S
C212 H228 0.931 . S
C213 C212 1.391 . S
C213 C217 1.376 1_545 S
C214 C212 1.394 . S
C214 C215 1.369 . S
C214 C218 1.531 . S
C215 C214 1.369 . S
C215 C216 1.410 1_545 S
C215 C223 1.503 . S
C216 C215 1.410 1_565 S
C216 C217 1.392 . S
C216 C219 1.511 . S
C217 C213 1.376 1_565 S
C217 C216 1.392 . S
C217 H229 0.929 . S
C218 C214 1.531 . S
C218 H230 0.960 . S
C218 H231 0.962 . S
C218 H232 0.960 . S
C219 C216 1.511 . S
C219 H233 0.961 . S
C219 H234 0.961 . S
C219 H235 0.961 . S
C220 C221 1.370 . S
C220 C222 1.363 . S
C220 H236 0.931 . S
C221 C220 1.370 . S
C221 C225 1.408 . S
C222 C220 1.363 . S
C222 C223 1.370 . S
C222 C226 1.524 . S
C223 C215 1.503 . S
C223 C222 1.370 . S
C223 C224 1.403 . S
C224 C223 1.403 . S
C224 C225 1.404 . S
C224 C227 1.539 . S
C225 C221 1.408 . S
C225 C224 1.404 . S
C225 H237 0.930 . S
C226 C222 1.524 . S
C226 H238 0.956 . S
C226 H239 0.961 . S
C226 H240 0.961 . S
C227 C224 1.539 . S
C227 H241 0.958 . S
C227 H242 0.961 . S
C227 H243 0.960 . S
H228 C212 0.931 . S
H229 C217 0.929 . S
H230 C218 0.960 . S
H231 C218 0.962 . S
H232 C218 0.960 . S
H233 C219 0.961 . S
H234 C219 0.961 . S
H235 C219 0.961 . S
H236 C220 0.931 . S
H237 C225 0.930 . S
H238 C226 0.956 . S
H239 C226 0.961 . S
H240 C226 0.961 . S
H241 C227 0.958 . S
H242 C227 0.961 . S
H243 C227 0.960 . S
C244 C245 1.391 . S
C244 C246 1.394 . S
C244 H260 0.931 . S
C245 C244 1.391 . S
C245 C249 1.376 . S
C246 C244 1.394 . S
C246 C247 1.369 . S
C246 C250 1.531 . S
C247 C246 1.369 . S
C247 C248 1.410 . S
C247 C255 1.503 . S
C248 C247 1.410 . S
C248 C249 1.392 . S
C248 C251 1.511 . S
C249 C245 1.376 . S
C249 C248 1.392 . S
C249 H261 0.929 . S
C250 C246 1.531 . S
C250 H262 0.960 . S
C250 H263 0.962 . S
C250 H264 0.960 . S
C251 C248 1.511 . S
C251 H265 0.961 . S
C251 H266 0.961 . S
C251 H267 0.961 . S
C252 C253 1.370 . S
C252 C254 1.363 . S
C252 H268 0.931 . S
C253 C252 1.370 . S
C253 C257 1.408 . S
C254 C252 1.363 . S
C254 C255 1.370 . S
C254 C258 1.524 . S
C255 C247 1.503 . S
C255 C254 1.370 . S
C255 C256 1.403 . S
C256 C255 1.403 . S
C256 C257 1.404 . S
C256 C259 1.539 . S
C257 C253 1.408 . S
C257 C256 1.404 . S
C257 H269 0.930 . S
C258 C254 1.524 . S
C258 H270 0.956 . S
C258 H271 0.961 . S
C258 H272 0.961 . S
C259 C256 1.539 . S
C259 H273 0.958 . S
C259 H274 0.961 . S
C259 H275 0.960 . S
H260 C244 0.931 . S
H261 C249 0.929 . S
H262 C250 0.960 . S
H263 C250 0.962 . S
H264 C250 0.960 . S
H265 C251 0.961 . S
H266 C251 0.961 . S
H267 C251 0.961 . S
H268 C252 0.931 . S
H269 C257 0.930 . S
H270 C258 0.956 . S
H271 C258 0.961 . S
H272 C258 0.961 . S
H273 C259 0.958 . S
H274 C259 0.961 . S
H275 C259 0.960 . S
C276 C277 1.391 . S
C276 C278 1.394 . S
C276 H292 0.931 . S
C277 C276 1.391 . S
C277 C281 1.376 1_455 S
C278 C276 1.394 . S
C278 C279 1.369 . S
C278 C282 1.531 . S
C279 C278 1.369 . S
C279 C280 1.410 1_455 S
C279 C287 1.503 . S
C280 C279 1.410 1_655 S
C280 C281 1.392 . S
C280 C283 1.511 . S
C281 C277 1.376 1_655 S
C281 C280 1.392 . S
C281 H293 0.929 . S
C282 C278 1.531 . S
C282 H294 0.960 . S
C282 H295 0.962 . S
C282 H296 0.960 . S
C283 C280 1.511 . S
C283 H297 0.961 . S
C283 H298 0.961 . S
C283 H299 0.961 . S
C284 C285 1.370 . S
C284 C286 1.363 . S
C284 H300 0.931 . S
C285 C284 1.370 . S
C285 C289 1.408 . S
C286 C284 1.363 . S
C286 C287 1.370 . S
C286 C290 1.524 . S
C287 C279 1.503 . S
C287 C286 1.370 . S
C287 C288 1.403 . S
C288 C287 1.403 . S
C288 C289 1.404 . S
C288 C291 1.539 . S
C289 C285 1.408 . S
C289 C288 1.404 . S
C289 H301 0.930 . S
C290 C286 1.524 . S
C290 H302 0.956 . S
C290 H303 0.961 . S
C290 H304 0.961 . S
C291 C288 1.539 . S
C291 H305 0.958 . S
C291 H306 0.961 . S
C291 H307 0.960 . S
H292 C276 0.931 . S
H293 C281 0.929 . S
H294 C282 0.960 . S
H295 C282 0.962 . S
H296 C282 0.960 . S
H297 C283 0.961 . S
H298 C283 0.961 . S
H299 C283 0.961 . S
H300 C284 0.931 . S
H301 C289 0.930 . S
H302 C290 0.956 . S
H303 C290 0.961 . S
H304 C290 0.961 . S
H305 C291 0.958 . S
H306 C291 0.961 . S
H307 C291 0.960 . S
C308 C309 1.391 . S
C308 C310 1.394 . S
C308 H324 0.931 . S
C309 C308 1.391 . S
C309 C313 1.376 . S
C310 C308 1.394 . S
C310 C311 1.369 . S
C310 C314 1.531 . S
C311 C310 1.369 . S
C311 C312 1.410 . S
C311 C319 1.503 . S
C312 C311 1.410 . S
C312 C313 1.392 . S
C312 C315 1.511 1_545 S
C313 C309 1.376 . S
C313 C312 1.392 . S
C313 H325 0.929 1_545 S
C314 C310 1.531 . S
C314 H326 0.960 . S
C314 H327 0.962 . S
C314 H328 0.960 . S
C315 C312 1.511 1_565 S
C315 H329 0.961 . S
C315 H330 0.961 . S
C315 H331 0.961 . S
C316 C317 1.370 . S
C316 C318 1.363 . S
C316 H332 0.931 . S
C317 C316 1.370 . S
C317 C321 1.408 . S
C318 C316 1.363 . S
C318 C319 1.370 . S
C318 C322 1.533 . S
C319 C311 1.503 . S
C319 C318 1.370 . S
C319 C320 1.403 . S
C320 C319 1.403 . S
C320 C321 1.404 . S
C320 C323 1.539 . S
C321 C317 1.408 . S
C321 C320 1.404 . S
C321 H333 0.930 . S
C322 C318 1.533 . S
C322 H334 0.970 . S
C322 H335 0.958 1_545 S
C322 H336 0.941 1_545 S
C323 C320 1.539 . S
C323 H337 0.958 . S
C323 H338 0.961 . S
C323 H339 0.960 . S
H324 C308 0.931 . S
H325 C313 0.929 1_565 S
H326 C314 0.960 . S
H327 C314 0.962 . S
H328 C314 0.960 . S
H329 C315 0.961 . S
H330 C315 0.961 . S
H331 C315 0.961 . S
H332 C316 0.931 . S
H333 C321 0.930 . S
H334 C322 0.970 . S
H335 C322 0.958 1_565 S
H336 C322 0.941 1_565 S
H337 C323 0.958 . S
H338 C323 0.961 . S
H339 C323 0.960 . S
C340 C341 1.391 . S
C340 C342 1.394 . S
C340 H356 0.931 . S
C341 C340 1.391 . S
C341 C345 1.376 . S
C342 C340 1.394 . S
C342 C343 1.369 . S
C342 C346 1.531 . S
C343 C342 1.369 . S
C343 C344 1.410 . S
C343 C351 1.503 . S
C344 C343 1.410 . S
C344 C345 1.392 . S
C344 C347 1.511 . S
C345 C341 1.376 . S
C345 C344 1.392 . S
C345 H357 0.929 . S
C346 C342 1.531 . S
C346 H358 0.960 . S
C346 H359 0.962 . S
C346 H360 0.960 . S
C347 C344 1.511 . S
C347 H361 0.961 . S
C347 H362 0.961 . S
C347 H363 0.961 . S
C348 C349 1.370 . S
C348 C350 1.363 . S
C348 H364 0.931 . S
C349 C348 1.370 . S
C349 C353 1.408 . S
C350 C348 1.363 . S
C350 C351 1.370 . S
C350 C354 1.524 . S
C351 C343 1.503 . S
C351 C350 1.370 . S
C351 C352 1.403 . S
C352 C351 1.403 . S
C352 C353 1.404 . S
C352 C355 1.539 . S
C353 C349 1.408 . S
C353 C352 1.404 . S
C353 H365 0.930 . S
C354 C350 1.524 . S
C354 H366 0.956 . S
C354 H367 0.961 . S
C354 H368 0.961 . S
C355 C352 1.539 . S
C355 H369 0.958 . S
C355 H370 0.961 . S
C355 H371 0.960 . S
H356 C340 0.931 . S
H357 C345 0.929 . S
H358 C346 0.960 . S
H359 C346 0.962 . S
H360 C346 0.960 . S
H361 C347 0.961 . S
H362 C347 0.961 . S
H363 C347 0.961 . S
H364 C348 0.931 . S
H365 C353 0.930 . S
H366 C354 0.956 . S
H367 C354 0.961 . S
H368 C354 0.961 . S
H369 C355 0.958 . S
H370 C355 0.961 . S
H371 C355 0.960 . S
C372 C373 1.391 . S
C372 C374 1.394 . S
C372 H388 0.931 . S
C373 C372 1.391 . S
C373 C377 1.376 . S
C374 C372 1.394 . S
C374 C375 1.369 . S
C374 C378 1.531 1_545 S
C375 C374 1.369 . S
C375 C376 1.410 . S
C375 C383 1.503 . S
C376 C375 1.410 . S
C376 C377 1.392 . S
C376 C379 1.511 . S
C377 C373 1.376 . S
C377 C376 1.392 . S
C377 H389 0.929 . S
C378 C374 1.531 1_565 S
C378 H390 0.960 1_565 S
C378 H391 0.962 . S
C378 H392 0.960 . S
C379 C376 1.511 . S
C379 H393 0.961 . S
C379 H394 0.961 . S
C379 H395 0.961 . S
C380 C381 1.370 . S
C380 C382 1.363 . S
C380 H396 0.931 . S
C381 C380 1.370 . S
C381 C385 1.408 . S
C382 C380 1.363 . S
C382 C383 1.370 . S
C382 C386 1.524 1_545 S
C383 C375 1.503 . S
C383 C382 1.370 . S
C383 C384 1.403 . S
C384 C383 1.403 . S
C384 C385 1.404 . S
C384 C387 1.539 . S
C385 C381 1.408 . S
C385 C384 1.404 . S
C385 H397 0.930 . S
C386 C382 1.524 1_565 S
C386 H398 0.956 . S
C386 H399 0.961 1_565 S
C386 H400 0.961 . S
C387 C384 1.539 . S
C387 H401 0.958 . S
C387 H402 0.961 . S
C387 H403 0.960 . S
H388 C372 0.931 . S
H389 C377 0.929 . S
H390 C378 0.960 1_545 S
H391 C378 0.962 . S
H392 C378 0.960 . S
H393 C379 0.961 . S
H394 C379 0.961 . S
H395 C379 0.961 . S
H396 C380 0.931 . S
H397 C385 0.930 . S
H398 C386 0.956 . S
H399 C386 0.961 1_545 S
H400 C386 0.961 . S
H401 C387 0.958 . S
H402 C387 0.961 . S
H403 C387 0.960 . S
C404 C405 1.391 . S
C404 C406 1.394 . S
C404 H420 0.931 . S
C405 C404 1.391 . S
C405 C409 1.376 . S
C406 C404 1.394 . S
C406 C407 1.369 1_554 S
C406 C410 1.531 . S
C407 C406 1.369 1_556 S
C407 C408 1.410 . S
C407 C415 1.503 . S
C408 C407 1.410 . S
C408 C409 1.392 1_556 S
C408 C411 1.511 . S
C409 C405 1.376 . S
C409 C408 1.392 1_554 S
C409 H421 0.929 1_565 S
C410 C406 1.531 . S
C410 H422 0.960 . S
C410 H423 0.962 . S
C410 H424 0.960 . S
C411 C408 1.511 . S
C411 H425 0.961 . S
C411 H426 0.961 . S
C411 H427 0.961 . S
C412 C413 1.370 . S
C412 C414 1.363 . S
C412 H428 0.931 . S
C413 C412 1.370 . S
C413 C417 1.408 . S
C414 C412 1.363 . S
C414 C415 1.370 . S
C414 C418 1.524 . S
C415 C407 1.503 . S
C415 C414 1.370 . S
C415 C416 1.403 . S
C416 C415 1.403 . S
C416 C417 1.404 . S
C416 C419 1.539 1_556 S
C417 C413 1.408 . S
C417 C416 1.404 . S
C417 H429 0.930 . S
C418 C414 1.524 . S
C418 H430 0.956 . S
C418 H431 0.961 . S
C418 H432 0.961 . S
C419 C416 1.539 1_554 S
C419 H433 0.958 . S
C419 H434 0.953 1_554 S
C419 H435 0.960 . S
H420 C404 0.931 . S
H421 C409 0.929 1_545 S
H422 C410 0.960 . S
H423 C410 0.962 . S
H424 C410 0.960 . S
H425 C411 0.961 . S
H426 C411 0.961 . S
H427 C411 0.961 . S
H428 C412 0.931 . S
H429 C417 0.930 . S
H430 C418 0.956 . S
H431 C418 0.961 . S
H432 C418 0.961 . S
H433 C419 0.958 . S
H434 C419 0.953 1_556 S
H435 C419 0.960 . S
C436 C437 1.395 . S
C436 C438 1.398 . S
C436 H452 0.923 1_455 S
C437 C436 1.395 . S
C437 C441 1.376 . S
C438 C436 1.398 . S
C438 C439 1.369 . S
C438 C442 1.531 1_455 S
C439 C438 1.369 . S
C439 C440 1.410 . S
C439 C447 1.503 . S
C440 C439 1.410 . S
C440 C441 1.392 . S
C440 C443 1.511 . S
C441 C437 1.376 . S
C441 C440 1.392 . S
C441 H453 0.929 . S
C442 C438 1.531 1_655 S
C442 H454 0.960 . S
C442 H455 0.962 . S
C442 H456 0.960 . S
C443 C440 1.511 . S
C443 H457 0.961 . S
C443 H458 0.961 . S
C443 H459 0.961 . S
C444 C445 1.370 . S
C444 C446 1.363 . S
C444 H460 0.931 1_455 S
C445 C444 1.370 . S
C445 C449 1.408 . S
C446 C444 1.363 . S
C446 C447 1.370 . S
C446 C450 1.524 1_455 S
C447 C439 1.503 . S
C447 C446 1.370 . S
C447 C448 1.403 . S
C448 C447 1.403 . S
C448 C449 1.404 . S
C448 C451 1.539 . S
C449 C445 1.408 . S
C449 C448 1.404 . S
C449 H461 0.930 . S
C450 C446 1.524 1_655 S
C450 H462 0.956 . S
C450 H463 0.961 . S
C450 H464 0.961 . S
C451 C448 1.539 . S
C451 H465 0.958 . S
C451 H466 0.961 . S
C451 H467 0.960 . S
H452 C436 0.923 1_655 S
H453 C441 0.929 . S
H454 C442 0.960 . S
H455 C442 0.962 . S
H456 C442 0.960 . S
H457 C443 0.961 . S
H458 C443 0.961 . S
H459 C443 0.961 . S
H460 C444 0.931 1_655 S
H461 C449 0.930 . S
H462 C450 0.956 . S
H463 C450 0.961 . S
H464 C450 0.961 . S
H465 C451 0.958 . S
H466 C451 0.961 . S
H467 C451 0.960 . S
C468 C469 1.391 . S
C468 C470 1.394 . S
C468 H484 0.931 . S
C469 C468 1.391 . S
C469 C473 1.376 . S
C470 C468 1.394 . S
C470 C471 1.369 . S
C470 C474 1.531 . S
C471 C470 1.369 . S
C471 C472 1.410 . S
C471 C479 1.503 . S
C472 C471 1.410 . S
C472 C473 1.392 . S
C472 C475 1.511 1_545 S
C473 C469 1.376 . S
C473 C472 1.392 . S
C473 H485 0.929 1_545 S
C474 C470 1.531 . S
C474 H486 0.960 . S
C474 H487 0.962 . S
C474 H488 0.960 . S
C475 C472 1.511 1_565 S
C475 H489 0.961 . S
C475 H490 0.961 . S
C475 H491 0.961 . S
C476 C477 1.370 . S
C476 C478 1.363 . S
C476 H492 0.931 . S
C477 C476 1.370 . S
C477 C481 1.408 . S
C478 C476 1.363 . S
C478 C479 1.370 . S
C478 C482 1.524 . S
C479 C471 1.503 . S
C479 C478 1.370 . S
C479 C480 1.403 . S
C480 C479 1.403 . S
C480 C481 1.404 . S
C480 C483 1.539 . S
C481 C477 1.408 . S
C481 C480 1.404 . S
C481 H493 0.930 . S
C482 C478 1.524 . S
C482 H494 0.956 . S
C482 H495 0.961 1_545 S
C482 H496 0.961 1_545 S
C483 C480 1.539 . S
C483 H497 0.958 . S
C483 H498 0.961 . S
C483 H499 0.960 . S
H484 C468 0.931 . S
H485 C473 0.929 1_565 S
H486 C474 0.960 . S
H487 C474 0.962 . S
H488 C474 0.960 . S
H489 C475 0.961 . S
H490 C475 0.961 . S
H491 C475 0.961 . S
H492 C476 0.931 . S
H493 C481 0.930 . S
H494 C482 0.956 . S
H495 C482 0.961 1_565 S
H496 C482 0.961 1_565 S
H497 C483 0.958 . S
H498 C483 0.961 . S
H499 C483 0.960 . S
C500 C501 1.391 1_556 S
C500 C502 1.394 . S
C500 H516 0.931 . S
C501 C500 1.391 1_554 S
C501 C505 1.376 . S
C502 C500 1.394 . S
C502 C503 1.369 . S
C502 C506 1.531 . S
C503 C502 1.369 . S
C503 C504 1.410 1_556 S
C503 C511 1.503 . S
C504 C503 1.410 1_554 S
C504 C505 1.392 . S
C504 C507 1.511 . S
C505 C501 1.376 . S
C505 C504 1.392 . S
C505 H517 0.929 . S
C506 C502 1.531 . S
C506 H518 0.960 . S
C506 H519 0.962 . S
C506 H520 0.960 . S
C507 C504 1.511 . S
C507 H521 0.961 . S
C507 H522 0.961 . S
C507 H523 0.961 . S
C508 C509 1.370 . S
C508 C510 1.363 . S
C508 H524 0.931 . S
C509 C508 1.370 . S
C509 C513 1.408 . S
C510 C508 1.363 . S
C510 C511 1.370 . S
C510 C514 1.524 . S
C511 C503 1.503 . S
C511 C510 1.370 . S
C511 C512 1.403 . S
C512 C511 1.403 . S
C512 C513 1.404 . S
C512 C515 1.539 . S
C513 C509 1.408 . S
C513 C512 1.404 . S
C513 H525 0.930 . S
C514 C510 1.524 . S
C514 H526 0.956 . S
C514 H527 0.961 1_556 S
C514 H528 0.961 . S
C515 C512 1.539 . S
C515 H529 0.958 . S
C515 H530 0.961 . S
C515 H531 0.960 . S
H516 C500 0.931 . S
H517 C505 0.929 . S
H518 C506 0.960 . S
H519 C506 0.962 . S
H520 C506 0.960 . S
H521 C507 0.961 . S
H522 C507 0.961 . S
H523 C507 0.961 . S
H524 C508 0.931 . S
H525 C513 0.930 . S
H526 C514 0.956 . S
H527 C514 0.961 1_554 S
H528 C514 0.961 . S
H529 C515 0.958 . S
H530 C515 0.961 . S
H531 C515 0.960 . S
C532 C533 1.391 . S
C532 C534 1.394 . S
C532 H548 0.931 . S
C533 C532 1.391 . S
C533 C537 1.376 . S
C534 C532 1.394 . S
C534 C535 1.369 . S
C534 C538 1.531 . S
C535 C534 1.369 . S
C535 C536 1.410 . S
C535 C543 1.503 . S
C536 C535 1.410 . S
C536 C537 1.392 . S
C536 C539 1.511 1_455 S
C537 C533 1.376 . S
C537 C536 1.392 . S
C537 H549 0.929 1_455 S
C538 C534 1.531 . S
C538 H550 0.960 . S
C538 H551 0.962 . S
C538 H552 0.960 . S
C539 C536 1.511 1_655 S
C539 H553 0.961 . S
C539 H554 0.961 . S
C539 H555 0.961 1_655 S
C540 C541 1.370 . S
C540 C542 1.363 . S
C540 H556 0.931 1_455 S
C541 C540 1.370 . S
C541 C545 1.408 . S
C542 C540 1.363 . S
C542 C543 1.370 . S
C542 C546 1.524 1_455 S
C543 C535 1.503 . S
C543 C542 1.370 . S
C543 C544 1.403 . S
C544 C543 1.403 . S
C544 C545 1.404 . S
C544 C547 1.539 . S
C545 C541 1.408 . S
C545 C544 1.404 . S
C545 H557 0.930 . S
C546 C542 1.524 1_655 S
C546 H558 0.956 . S
C546 H559 0.961 . S
C546 H560 0.961 . S
C547 C544 1.539 . S
C547 H561 0.958 . S
C547 H562 0.961 . S
C547 H563 0.960 . S
H548 C532 0.931 . S
H549 C537 0.929 1_655 S
H550 C538 0.960 . S
H551 C538 0.962 . S
H552 C538 0.960 . S
H553 C539 0.961 . S
H554 C539 0.961 . S
H555 C539 0.961 1_455 S
H556 C540 0.931 1_655 S
H557 C545 0.930 . S
H558 C546 0.956 . S
H559 C546 0.961 . S
H560 C546 0.961 . S
H561 C547 0.958 . S
H562 C547 0.961 . S
H563 C547 0.960 . S
C189 C50 1.453 . S
C181 C0 1.434 . S
C213 C25 1.479 . S
C221 C89 1.490 . S
C245 C33 1.503 . S
C253 C156 1.515 . S
C277 C11 1.444 . S
C285 C57 1.442 . S
C317 C110 1.485 . S
C309 C14 1.485 . S
C341 C37 1.498 . S
C349 C135 1.514 . S
C381 C96 1.482 . S
C373 C28 1.466 . S
C405 C9 1.507 . S
C413 C149 1.514 . S
C445 C64 1.542 . S
C437 C19 1.531 . S
C477 C103 1.489 . S
C469 C39 1.479 . S
C509 C142 1.512 . S
C501 C5 1.501 . S
C533 C23 1.554 . S
C541 C43 1.554 . S
