# Generated by pormake.
# Topology tsx, (6,3)-cn, num edge types: 1
# Building blocks:
#     Node 0, Type 0, BuildingBlock: MIDCAF_clean_sbu_0, # of connection points: 6
#     Node 1, Type 0, BuildingBlock: MIDCAF_clean_sbu_0, # of connection points: 6
#     Node 2, Type 1, BuildingBlock: BELTOD_clean_linker_0, # of connection points: 3
#     Node 3, Type 1, BuildingBlock: BELTOD_clean_linker_0, # of connection points: 3
#     Node 4, Type 1, BuildingBlock: BELTOD_clean_linker_0, # of connection points: 3
#     Node 5, Type 1, BuildingBlock: BELTOD_clean_linker_0, # of connection points: 3
#     Edge 6, Type (0, 1), BuildingBlock: FUNLAD_clean_linker_1, # of connection points: 2
#     Edge 7, Type (0, 1), BuildingBlock: FUNLAD_clean_linker_1, # of connection points: 2
#     Edge 8, Type (0, 1), BuildingBlock: FUNLAD_clean_linker_1, # of connection points: 2
#     Edge 9, Type (0, 1), BuildingBlock: FUNLAD_clean_linker_1, # of connection points: 2
#     Edge 10, Type (0, 1), BuildingBlock: FUNLAD_clean_linker_1, # of connection points: 2
#     Edge 11, Type (0, 1), BuildingBlock: FUNLAD_clean_linker_1, # of connection points: 2
#     Edge 12, Type (0, 1), BuildingBlock: FUNLAD_clean_linker_1, # of connection points: 2
#     Edge 13, Type (0, 1), BuildingBlock: FUNLAD_clean_linker_1, # of connection points: 2
#     Edge 14, Type (0, 1), BuildingBlock: FUNLAD_clean_linker_1, # of connection points: 2
#     Edge 15, Type (0, 1), BuildingBlock: FUNLAD_clean_linker_1, # of connection points: 2
#     Edge 16, Type (0, 1), BuildingBlock: FUNLAD_clean_linker_1, # of connection points: 2
#     Edge 17, Type (0, 1), BuildingBlock: FUNLAD_clean_linker_1, # of connection points: 2
# Relax obj value: 0.110
# Max RMSD: 0.178
# Mean RMSD: 0.105
data_MOF--net-tsx--node1-MIDCAF_clean_sbu_0--node2-BELTOD_clean_linker_0--edge1-FUNLAD_clean_linker_1
_symmetry_space_group_name_H-M    P1
_symmetry_Int_Tables_number       1
_symmetry_cell_setting            triclinic
loop_
_symmetry_equiv_pos_as_xyz
'x, y, z'
_cell_length_a     22.671882
_cell_length_b     23.771345
_cell_length_c     44.475774
_cell_angle_alpha  91.544129
_cell_angle_beta   95.181854
_cell_angle_gamma 89.791262
loop_
_atom_site_label
_atom_site_type_symbol
_atom_site_fract_x
_atom_site_fract_y
_atom_site_fract_z
_atom_type_partial_charge
Zn0 Zn 0.91947 0.01193 0.97828 0.0
Zn1 Zn 0.12935 0.02491 0.03867 0.0
Zn2 Zn 0.02769 0.02199 0.00644 0.0
C3 C 0.09352 0.13674 0.03116 0.0
C4 C 0.15082 0.97091 0.98492 0.0
O5 O 0.9708 0.96432 0.03018 0.0
O6 O 0.8842 0.9564 0.00319 0.0
C7 C 0.93795 0.12613 0.99311 0.0
O8 O 0.04797 0.11289 0.01676 0.0
O9 O 0.13555 0.10703 0.0426 0.0
O10 O 0.17765 0.98689 0.00971 0.0
O11 O 0.09495 0.98075 0.97923 0.0
O12 O 0.89757 0.09181 0.98397 0.0
O13 O 0.99076 0.10861 0.00133 0.0
O14 O 0.04034 0.98621 0.96133 0.0
O15 O 0.94848 0.98497 0.93946 0.0
C16 C 1.00321 0.97661 0.93808 0.0
O17 O 0.02072 0.97835 0.04958 0.0
O18 O 0.10908 0.9851 0.07476 0.0
C19 C 0.91853 0.94263 0.0257 0.0
C20 C 0.05574 0.96949 0.07347 0.0
Zn21 Zn 0.63162 0.52998 0.53998 0.0
Zn22 Zn 0.42715 0.49392 0.47857 0.0
Zn23 Zn 0.52924 0.51409 0.50867 0.0
C24 C 0.51239 0.45447 0.44233 0.0
C25 C 0.43632 0.61062 0.48705 0.0
O26 O 0.52225 0.48224 0.55465 0.0
O27 O 0.61014 0.50043 0.57858 0.0
C28 C 0.65547 0.45995 0.49213 0.0
O29 O 0.54648 0.4687 0.46611 0.0
O30 O 0.45723 0.46208 0.44151 0.0
O31 O 0.39853 0.57293 0.47929 0.0
O32 O 0.48946 0.59717 0.49718 0.0
O33 O 0.68165 0.48409 0.5151 0.0
O34 O 0.59925 0.46695 0.48564 0.0
O35 O 0.54609 0.60654 0.51187 0.0
O36 O 0.63528 0.61213 0.53661 0.0
C37 C 0.59066 0.63577 0.52347 0.0
O38 O 0.47165 0.46456 0.53678 0.0
O39 O 0.394 0.4409 0.5054 0.0
C40 C 0.55804 0.482 0.57888 0.0
C41 C 0.42247 0.43755 0.53098 0.0
P42 P 0.11672 0.10794 0.39039 0.0
H43 H 0.08511 0.17119 0.44354 0.0
H44 H 0.98991 0.20261 0.45953 0.0
H45 H 0.89931 0.10154 0.38755 0.0
H46 H 0.99451 0.06932 0.37214 0.0
H47 H 0.24436 0.11548 0.40422 0.0
H48 H 0.31747 0.05288 0.42947 0.0
H49 H 0.17705 0.94131 0.44952 0.0
H50 H 0.10384 0.00472 0.42439 0.0
H51 H 0.10399 0.16005 0.33167 0.0
H52 H 0.09877 0.99226 0.36587 0.0
O53 O 0.14722 0.17141 0.38842 0.0
H54 H 0.08192 0.12254 0.28031 0.0
H55 H 0.07681 0.9543 0.31455 0.0
C56 C 0.04713 0.11881 0.40633 0.0
C57 C 0.04472 0.15503 0.43155 0.0
C58 C 0.9901 0.17362 0.44037 0.0
C59 C 0.9369 0.1564 0.42389 0.0
C60 C 0.93953 0.11632 0.40029 0.0
C61 C 0.99417 0.09783 0.39148 0.0
C62 C 0.16863 0.06486 0.41258 0.0
C63 C 0.22911 0.07801 0.41444 0.0
C64 C 0.27095 0.04215 0.42881 0.0
C65 C 0.25331 0.99167 0.4409 0.0
C66 C 0.19236 0.97921 0.43976 0.0
C67 C 0.15035 0.01564 0.42567 0.0
C68 C 0.10421 0.07888 0.35255 0.0
C69 C 0.09865 0.11505 0.32813 0.0
C70 C 0.08568 0.09358 0.2988 0.0
C71 C 0.07681 0.03565 0.29331 0.0
C72 C 0.08217 0.99929 0.31788 0.0
C73 C 0.09564 0.02088 0.3473 0.0
P74 P 0.07116 0.95334 0.61576 0.0
H75 H 1.00867 0.90276 0.56159 0.0
H76 H 0.9048 0.88775 0.5458 0.0
H77 H 0.85765 0.97918 0.62567 0.0
H78 H 0.96296 0.99607 0.64057 0.0
H79 H 0.13223 0.984 0.56347 0.0
H80 H 0.18116 0.07065 0.55059 0.0
H81 H 0.12271 0.15393 0.63018 0.0
H82 H 0.07284 0.06749 0.64259 0.0
H83 H 1.00801 0.89561 0.66105 0.0
H84 H 0.16895 0.99095 0.65897 0.0
O85 O 0.10701 0.90058 0.59982 0.0
H86 H 0.02625 0.88886 0.7156 0.0
H87 H 0.18699 0.98552 0.71377 0.0
C88 C 0.99356 0.94843 0.60289 0.0
C89 C 0.97596 0.91974 0.57567 0.0
C90 C 0.91592 0.91089 0.56675 0.0
C91 C 0.8721 0.93034 0.58512 0.0
C92 C 0.89011 0.96278 0.61127 0.0
C93 C 0.95029 0.97218 0.61993 0.0
C94 C 0.10056 0.01894 0.60446 0.0
C95 C 0.12975 0.02096 0.57807 0.0
C96 C 0.15772 0.07039 0.57076 0.0
C97 C 0.15754 0.1183 0.58993 0.0
C98 C 0.1255 0.11706 0.61556 0.0
C99 C 0.09661 0.06784 0.62254 0.0
C100 C 0.08519 0.94671 0.6561 0.0
C101 C 0.0466 0.91625 0.67242 0.0
C102 C 0.05715 0.91253 0.70378 0.0
C103 C 0.10705 0.93882 0.71931 0.0
C104 C 0.14757 0.96595 0.70255 0.0
C105 C 0.13696 0.96953 0.67124 0.0
P106 P 0.63704 0.63698 0.89879 0.0
H107 H 0.59832 0.71657 0.94402 0.0
H108 H 0.50029 0.74646 0.95652 0.0
H109 H 0.4208 0.61528 0.89718 0.0
H110 H 0.5192 0.58464 0.88542 0.0
H111 H 0.7647 0.63677 0.91253 0.0
H112 H 0.83344 0.57019 0.93776 0.0
H113 H 0.68578 0.46784 0.95809 0.0
H114 H 0.61699 0.53528 0.93296 0.0
H115 H 0.62955 0.69105 0.84051 0.0
H116 H 0.61703 0.52257 0.87302 0.0
O117 O 0.67063 0.69927 0.89802 0.0
H118 H 0.60883 0.65532 0.78863 0.0
H119 H 0.59581 0.4866 0.8212 0.0
C120 C 0.56613 0.64947 0.91312 0.0
C121 C 0.55984 0.6938 0.93398 0.0
C122 C 0.50349 0.71138 0.94075 0.0
C123 C 0.45237 0.68486 0.92662 0.0
C124 C 0.45925 0.63732 0.90783 0.0
C125 C 0.51565 0.61976 0.9011 0.0
C126 C 0.68572 0.59115 0.92109 0.0
C127 C 0.74696 0.60046 0.9228 0.0
C128 C 0.78629 0.56235 0.93719 0.0
C129 C 0.76529 0.51325 0.94935 0.0
C130 C 0.70362 0.5046 0.94832 0.0
C131 C 0.66414 0.54336 0.93424 0.0
C132 C 0.62574 0.6094 0.8606 0.0
C133 C 0.62281 0.64631 0.83651 0.0
C134 C 0.61066 0.62591 0.80688 0.0
C135 C 0.59973 0.56843 0.80085 0.0
C136 C 0.60271 0.53133 0.82507 0.0
C137 C 0.61569 0.55176 0.85472 0.0
P138 P 0.60627 0.43222 0.12073 0.0
H139 H 0.55913 0.36835 0.06726 0.0
H140 H 0.45862 0.34584 0.0461 0.0
H141 H 0.38837 0.44793 0.11649 0.0
H142 H 0.48934 0.47027 0.13747 0.0
H143 H 0.72069 0.46056 0.09987 0.0
H144 H 0.76321 0.54863 0.08553 0.0
H145 H 0.59868 0.63424 0.09896 0.0
H146 H 0.5561 0.5452 0.1131 0.0
H147 H 0.54892 0.36795 0.16508 0.0
H148 H 0.67842 0.50061 0.166 0.0
O149 O 0.64841 0.37841 0.11068 0.0
H150 H 0.55988 0.36819 0.22011 0.0
H151 H 0.68891 0.50188 0.22099 0.0
C152 C 0.53163 0.41997 0.10429 0.0
C153 C 0.52213 0.3862 0.07804 0.0
C154 C 0.46463 0.37358 0.06588 0.0
C155 C 0.41539 0.39526 0.07938 0.0
C156 C 0.42503 0.43114 0.10509 0.0
C157 C 0.48284 0.44352 0.11736 0.0
C158 C 0.63493 0.49619 0.10706 0.0
C159 C 0.69354 0.49814 0.09949 0.0
C160 C 0.71819 0.54895 0.09179 0.0
C161 C 0.68468 0.59893 0.09189 0.0
C162 C 0.62562 0.5965 0.09897 0.0
C163 C 0.60111 0.54563 0.10681 0.0
C164 C 0.61122 0.43551 0.16139 0.0
C165 C 0.57878 0.39795 0.17717 0.0
C166 C 0.58505 0.39834 0.20876 0.0
C167 C 0.62437 0.43627 0.22509 0.0
C168 C 0.65785 0.47269 0.20907 0.0
C169 C 0.65147 0.47227 0.17756 0.0
H170 H 0.0669 0.22577 0.02202 0.0
C171 C 0.09962 0.19886 0.03369 0.0
H172 H 0.17952 0.1944 0.06182 0.0
H173 H 0.29217 0.40797 0.01309 0.0
H174 H 0.27282 0.36897 0.96188 0.0
H175 H 0.20355 0.28956 0.95112 0.0
H176 H 0.1525 0.24932 0.9912 0.0
C177 C 0.14797 0.22146 0.04925 0.0
C178 C 0.16405 0.28203 0.0509 0.0
C179 C 0.19235 0.30549 0.02706 0.0
C180 C 0.2334 0.35029 0.03337 0.0
C181 C 0.26176 0.37293 0.00939 0.0
C182 C 0.2508 0.35115 0.98002 0.0
C183 C 0.21174 0.30645 0.97395 0.0
C184 C 0.18288 0.28357 0.99715 0.0
H185 H 0.35401 0.33496 0.05483 0.0
C186 C 0.35562 0.3747 0.06763 0.0
H187 H 0.30343 0.43993 0.08497 0.0
H188 H 0.10277 0.25804 0.09856 0.0
H189 H 0.11573 0.30222 0.14891 0.0
H190 H 0.18867 0.37842 0.1604 0.0
H191 H 0.24881 0.41115 0.12186 0.0
C192 C 0.30396 0.40017 0.07246 0.0
C193 C 0.24691 0.37025 0.06354 0.0
C194 C 0.21092 0.35349 0.08613 0.0
C195 C 0.16926 0.30928 0.07967 0.0
C196 C 0.13537 0.2912 0.10274 0.0
C197 C 0.14226 0.31628 0.13152 0.0
C198 C 0.18333 0.35923 0.13797 0.0
C199 C 0.21764 0.37759 0.11567 0.0
H200 H 0.232 0.9502 0.96417 0.0
C201 C 0.18558 0.93867 0.96406 0.0
H202 H 0.12348 0.87359 0.95459 0.0
H203 H 0.37361 0.81404 0.88713 0.0
H204 H 0.34174 0.88702 0.85202 0.0
H205 H 0.25173 0.943 0.85887 0.0
H206 H 0.19342 0.92607 0.90088 0.0
C207 C 0.16816 0.88823 0.9523 0.0
C208 C 0.21433 0.84719 0.94385 0.0
C209 C 0.24874 0.85799 0.91958 0.0
C210 C 0.30104 0.82631 0.91596 0.0
C211 C 0.33406 0.83758 0.89124 0.0
C212 C 0.31613 0.87916 0.87086 0.0
C213 C 0.26548 0.91063 0.8747 0.0
C214 C 0.23228 0.90051 0.89884 0.0
H215 H 0.35431 0.67848 0.9249 0.0
C216 C 0.39164 0.70679 0.93005 0.0
H217 H 0.41686 0.79134 0.93928 0.0
H218 H 0.15331 0.80927 0.98975 0.0
H219 H 0.18369 0.73515 0.02414 0.0
H220 H 0.27731 0.68375 0.01971 0.0
H221 H 0.34069 0.70571 0.98071 0.0
C222 C 0.38082 0.76118 0.93679 0.0
C223 C 0.3198 0.78474 0.93705 0.0
C224 C 0.28321 0.77112 0.96008 0.0
C225 C 0.22976 0.80169 0.96306 0.0
C226 C 0.19441 0.78775 0.98647 0.0
C227 C 0.21134 0.74526 0.00642 0.0
C228 C 0.264 0.71627 0.0039 0.0
C229 C 0.29987 0.72912 0.9812 0.0
H230 H 0.93524 0.87346 0.05759 0.0
C231 C 0.9008 0.89709 0.04484 0.0
H232 H 0.80996 0.90411 0.03075 0.0
H233 H 0.74605 0.64937 0.02827 0.0
H234 H 0.73294 0.67165 0.9754 0.0
H235 H 0.76406 0.76356 0.95792 0.0
H236 H 0.80785 0.83391 0.99337 0.0
C237 C 0.84399 0.88059 0.04389 0.0
C238 C 0.82679 0.82507 0.05502 0.0
C239 C 0.801 0.78436 0.03387 0.0
C240 C 0.78268 0.73148 0.04389 0.0
C241 C 0.75892 0.69098 0.02214 0.0
C242 C 0.75179 0.70291 0.99157 0.0
C243 C 0.76924 0.75467 0.98176 0.0
C244 C 0.79399 0.79487 0.00248 0.0
H245 H 0.67794 0.68573 0.07517 0.0
C246 C 0.7091 0.65364 0.08356 0.0
H247 H 0.79968 0.63629 0.09605 0.0
H248 H 0.87206 0.89444 0.10177 0.0
H249 H 0.88685 0.8712 0.15461 0.0
H250 H 0.85701 0.77853 0.17179 0.0
H251 H 0.81213 0.70858 0.13613 0.0
C252 C 0.76738 0.66542 0.08577 0.0
C253 C 0.78933 0.71965 0.0751 0.0
C254 C 0.81664 0.7596 0.09614 0.0
C255 C 0.83479 0.81271 0.08616 0.0
C256 C 0.85932 0.85279 0.10787 0.0
C257 C 0.86756 0.84018 0.13837 0.0
C258 C 0.85071 0.78803 0.14804 0.0
C259 C 0.82514 0.7482 0.12732 0.0
H260 H 0.87569 0.19497 0.999 0.0
C261 C 0.92133 0.18587 0.99476 0.0
H262 H 0.99824 0.21864 0.97847 0.0
H263 H 0.82565 0.39257 0.90706 0.0
H264 H 0.86642 0.33963 0.86632 0.0
H265 H 0.93541 0.26071 0.87711 0.0
H266 H 0.96424 0.23439 0.92868 0.0
C267 C 0.95481 0.22765 0.98595 0.0
C268 C 0.92648 0.28346 0.97998 0.0
C269 C 0.91127 0.2991 0.94974 0.0
C270 C 0.87113 0.3443 0.94351 0.0
C271 C 0.85558 0.35827 0.91305 0.0
C272 C 0.87875 0.32832 0.88946 0.0
C273 C 0.91761 0.28391 0.89554 0.0
C274 C 0.93372 0.26918 0.92526 0.0
H275 H 0.85362 0.48582 0.96927 0.0
C276 C 0.80915 0.47128 0.96173 0.0
H277 H 0.75628 0.39944 0.95057 0.0
H278 H 0.95671 0.27173 0.04021 0.0
H279 H 0.91822 0.32635 0.08123 0.0
H280 H 0.84607 0.40289 0.07054 0.0
H281 H 0.81246 0.42576 0.01889 0.0
C282 C 0.79853 0.41566 0.96051 0.0
C283 C 0.84671 0.37405 0.96752 0.0
C284 C 0.86572 0.3614 0.99783 0.0
C285 C 0.90619 0.31639 0.00403 0.0
C286 C 0.9249 0.30467 0.03443 0.0
C287 C 0.90342 0.33584 0.05809 0.0
C288 C 0.8629 0.37903 0.05207 0.0
C289 C 0.84402 0.39179 0.02233 0.0
H290 H 0.62412 0.7106 0.50435 0.0
C291 C 0.59393 0.69684 0.52032 0.0
H292 H 0.55622 0.71576 0.56056 0.0
H293 H 0.79872 0.82516 0.61178 0.0
H294 H 0.77942 0.75758 0.64925 0.0
H295 H 0.68925 0.69923 0.64337 0.0
H296 H 0.61823 0.70801 0.60001 0.0
C297 C 0.5839 0.73102 0.54385 0.0
C298 C 0.62583 0.77842 0.55228 0.0
C299 C 0.66547 0.77465 0.57879 0.0
C300 C 0.71718 0.80889 0.58242 0.0
C301 C 0.75813 0.80137 0.60804 0.0
C302 C 0.74776 0.76242 0.62976 0.0
C303 C 0.69706 0.72954 0.62643 0.0
C304 C 0.65651 0.73509 0.60125 0.0
H305 H 0.77741 0.93231 0.59432 0.0
C306 C 0.80828 0.91427 0.57936 0.0
H307 H 0.81691 0.85295 0.54439 0.0
H308 H 0.55064 0.80636 0.50373 0.0
H309 H 0.56689 0.87813 0.4673 0.0
H310 H 0.65724 0.93663 0.47306 0.0
H311 H 0.73161 0.92412 0.51541 0.0
C312 C 0.78833 0.873 0.5597 0.0
C313 C 0.7283 0.84773 0.5599 0.0
C314 C 0.6853 0.85576 0.53524 0.0
C315 C 0.63368 0.8215 0.53162 0.0
C316 C 0.5912 0.83054 0.50693 0.0
C317 C 0.59986 0.87172 0.48606 0.0
C318 C 0.65073 0.90469 0.48933 0.0
C319 C 0.69313 0.89699 0.51361 0.0
H320 H 0.73914 0.43089 0.47632 0.0
C321 C 0.69167 0.42297 0.47409 0.0
H322 H 0.62519 0.36402 0.4597 0.0
H323 H 0.87729 0.2978 0.39576 0.0
H324 H 0.85663 0.37996 0.36525 0.0
H325 H 0.77165 0.4418 0.37369 0.0
H326 H 0.70713 0.42164 0.41263 0.0
C327 C 0.67163 0.37529 0.46001 0.0
C328 C 0.71539 0.33276 0.45044 0.0
C329 C 0.75352 0.34556 0.42798 0.0
C330 C 0.80291 0.31036 0.42342 0.0
C331 C 0.83971 0.3237 0.40051 0.0
C332 C 0.82823 0.37057 0.38276 0.0
C333 C 0.78042 0.40536 0.38749 0.0
C334 C 0.74364 0.39335 0.40991 0.0
H335 H 0.83856 0.1587 0.42135 0.0
C336 C 0.87855 0.18162 0.42946 0.0
H337 H 0.91236 0.25986 0.4466 0.0
H338 H 0.64589 0.29112 0.49194 0.0
H339 H 0.66478 0.20746 0.52128 0.0
H340 H 0.75311 0.14889 0.5151 0.0
H341 H 0.82275 0.1733 0.47935 0.0
C342 C 0.87327 0.23413 0.44098 0.0
C343 C 0.81503 0.26312 0.44177 0.0
C344 C 0.77461 0.24795 0.46272 0.0
C345 C 0.72414 0.28236 0.46667 0.0
C346 C 0.68496 0.26673 0.48805 0.0
C347 C 0.69529 0.21879 0.50508 0.0
C348 C 0.74499 0.18578 0.50157 0.0
C349 C 0.78452 0.20016 0.48083 0.0
H350 H 0.41384 0.40806 0.57749 0.0
C351 C 0.39831 0.40221 0.55382 0.0
H352 H 0.3411 0.35844 0.52134 0.0
H353 H 0.32045 0.17349 0.62569 0.0
H354 H 0.42769 0.16525 0.6297 0.0
H355 H 0.48844 0.23177 0.60413 0.0
H356 H 0.44266 0.30706 0.57469 0.0
C357 C 0.35652 0.36352 0.54513 0.0
C358 C 0.32364 0.33067 0.56617 0.0
C359 C 0.3516 0.28697 0.58334 0.0
C360 C 0.31651 0.24785 0.59761 0.0
C361 C 0.34509 0.20408 0.6143 0.0
C362 C 0.40654 0.19887 0.61676 0.0
C363 C 0.44074 0.23638 0.60239 0.0
C364 C 0.41383 0.2797 0.58566 0.0
H365 H 0.19744 0.17478 0.55874 0.0
C366 C 0.19086 0.16876 0.58238 0.0
H367 H 0.2156 0.1976 0.62726 0.0
H368 H 0.25706 0.41495 0.53937 0.0
H369 H 0.15006 0.42427 0.53674 0.0
H370 H 0.08952 0.35532 0.56079 0.0
H371 H 0.13573 0.27663 0.58764 0.0
C372 C 0.21717 0.20462 0.60333 0.0
C373 C 0.25388 0.25165 0.59393 0.0
C374 C 0.22637 0.29785 0.57888 0.0
C375 C 0.26128 0.33745 0.56505 0.0
C376 C 0.23256 0.38307 0.54991 0.0
C377 C 0.17122 0.38912 0.54838 0.0
C378 C 0.13714 0.35031 0.56192 0.0
C379 C 0.16416 0.3052 0.57709 0.0
H380 H 0.36898 0.67681 0.48508 0.0
C381 C 0.41643 0.66949 0.48525 0.0
H382 H 0.49837 0.70664 0.47815 0.0
H383 H 0.33195 0.8801 0.40032 0.0
H384 H 0.38259 0.8321 0.3611 0.0
H385 H 0.45331 0.75523 0.37361 0.0
H386 H 0.4739 0.72589 0.42545 0.0
C387 C 0.45178 0.71306 0.48091 0.0
C388 C 0.42407 0.76893 0.4748 0.0
C389 C 0.41398 0.7866 0.44464 0.0
C390 C 0.37312 0.83079 0.43746 0.0
C391 C 0.36236 0.84653 0.40698 0.0
C392 C 0.3912 0.81943 0.38429 0.0
C393 C 0.43104 0.77614 0.39133 0.0
C394 C 0.44235 0.75962 0.42112 0.0
H395 H 0.34283 0.96975 0.4617 0.0
C396 C 0.29978 0.95248 0.45356 0.0
H397 H 0.25232 0.87758 0.44182 0.0
H398 H 0.44472 0.75354 0.5353 0.0
H399 H 0.39814 0.80451 0.57512 0.0
H400 H 0.3256 0.88001 0.56278 0.0
H401 H 0.2995 0.90541 0.51068 0.0
C402 C 0.29301 0.89634 0.45222 0.0
C403 C 0.34317 0.8576 0.46056 0.0
C404 C 0.35792 0.84374 0.49111 0.0
C405 C 0.39887 0.79955 0.49823 0.0
C406 C 0.41295 0.78613 0.52882 0.0
C407 C 0.38679 0.81518 0.5518 0.0
C408 C 0.34601 0.85777 0.54484 0.0
C409 C 0.33143 0.87197 0.51487 0.0
H410 H 0.98582 0.93482 0.09956 0.0
C411 C 0.03195 0.94755 0.10072 0.0
H412 H 0.11042 0.96375 0.12874 0.0
H413 H 0.94654 0.02813 0.23513 0.0
H414 H 0.89348 0.09372 0.20133 0.0
H415 H 0.90843 0.09239 0.14705 0.0
H416 H 0.97479 0.02532 0.12616 0.0
C417 C 0.06409 0.95158 0.12761 0.0
C418 C 0.03997 0.9433 0.15717 0.0
C419 C 1.00088 0.98365 0.16874 0.0
C420 C 0.99412 0.98626 0.20021 0.0
C421 C 0.95442 0.02597 0.21147 0.0
C422 C 0.9236 0.06352 0.19234 0.0
C423 C 0.93191 0.06265 0.16178 0.0
C424 C 0.97023 0.02354 0.15002 0.0
H425 H 0.07563 0.0435 0.24407 0.0
C426 C 0.06408 0.01537 0.26154 0.0
H427 H 0.02495 0.93654 0.26921 0.0
H428 H 0.10563 0.85299 0.14107 0.0
H429 H 0.15484 0.78521 0.17501 0.0
H430 H 0.1463 0.79262 0.22992 0.0
H431 H 0.08827 0.86749 0.25124 0.0
C432 C 0.03784 0.9661 0.25285 0.0
C433 C 0.0285 0.95081 0.22005 0.0
C434 C 0.06119 0.90607 0.20806 0.0
C435 C 0.06671 0.90223 0.1765 0.0
C436 C 0.10088 0.85805 0.165 0.0
C437 C 0.12904 0.81889 0.18419 0.0
C438 C 0.12418 0.82304 0.21511 0.0
C439 C 0.09088 0.8662 0.22706 0.0
H440 H 0.989 0.93913 0.89244 0.0
C441 C 0.02258 0.95726 0.90887 0.0
H442 H 0.10913 0.99022 0.9154 0.0
H443 H 0.08598 0.8314 0.78697 0.0
H444 H 0.08774 0.75132 0.81993 0.0
H445 H 0.08996 0.7654 0.87521 0.0
H446 H 0.09011 0.85955 0.89783 0.0
C447 C 0.07645 0.96788 0.90024 0.0
C448 C 0.08749 0.95863 0.86799 0.0
C449 C 0.08762 0.90341 0.85515 0.0
C450 C 0.0867 0.89533 0.82334 0.0
C451 C 0.08642 0.83978 0.81103 0.0
C452 C 0.08759 0.79353 0.82968 0.0
C453 C 0.08879 0.80144 0.86081 0.0
C454 C 0.08861 0.85565 0.8735 0.0
H455 H 0.16217 0.95063 0.76282 0.0
C456 C 0.11794 0.93991 0.75281 0.0
H457 H 0.02944 0.92517 0.76238 0.0
H458 H 0.09619 0.06972 0.88583 0.0
H459 H 0.09887 0.14953 0.85317 0.0
H460 H 0.09489 0.13571 0.79785 0.0
H461 H 0.08854 0.04209 0.7749 0.0
C462 C 0.07465 0.9341 0.77123 0.0
C463 C 0.08572 0.94244 0.80449 0.0
C464 C 0.08995 0.99761 0.81749 0.0
C465 C 0.09157 0.00564 0.84935 0.0
C466 C 0.09478 0.06116 0.86177 0.0
C467 C 0.09632 0.10739 0.84328 0.0
C468 C 0.09412 0.09961 0.81214 0.0
C469 C 0.09068 0.04552 0.79926 0.0
H470 H 0.48978 0.45844 0.60902 0.0
C471 C 0.53657 0.46692 0.60801 0.0
H472 H 0.61958 0.47964 0.63279 0.0
H473 H 0.47844 0.58032 0.74104 0.0
H474 H 0.43864 0.65076 0.70607 0.0
H475 H 0.45176 0.6412 0.6517 0.0
H476 H 0.503 0.56097 0.63189 0.0
C477 C 0.57254 0.47201 0.63368 0.0
C478 C 0.55142 0.47221 0.66433 0.0
C479 C 0.52179 0.52017 0.67536 0.0
C480 C 0.51669 0.52722 0.70686 0.0
C481 C 0.48549 0.57438 0.71742 0.0
C482 C 0.46215 0.61482 0.6976 0.0
C483 C 0.46938 0.60934 0.66698 0.0
C484 C 0.49891 0.56278 0.65587 0.0
H485 H 0.6037 0.57495 0.75179 0.0
C486 C 0.5872 0.54899 0.76898 0.0
H487 H 0.53625 0.47681 0.77637 0.0
H488 H 0.59904 0.37077 0.64969 0.0
H489 H 0.63599 0.2992 0.68477 0.0
H490 H 0.63106 0.31352 0.73967 0.0
H491 H 0.58892 0.39914 0.75985 0.0
C492 C 0.55437 0.50344 0.76004 0.0
C493 C 0.54399 0.48812 0.72727 0.0
C494 C 0.56768 0.43742 0.71598 0.0
C495 C 0.57122 0.42944 0.6844 0.0
C496 C 0.59617 0.37902 0.67358 0.0
C497 C 0.61726 0.33766 0.69343 0.0
C498 C 0.61442 0.3457 0.72434 0.0
C499 C 0.59019 0.39504 0.73564 0.0
H500 H 0.50525 0.4101 0.39837 0.0
C501 C 0.53589 0.43286 0.41454 0.0
H502 H 0.61655 0.47701 0.42063 0.0
H503 H 0.6152 0.32079 0.29152 0.0
H504 H 0.62768 0.24005 0.32385 0.0
H505 H 0.62664 0.25148 0.37913 0.0
H506 H 0.61306 0.34363 0.40231 0.0
C507 C 0.58774 0.44991 0.40577 0.0
C508 C 0.59888 0.44334 0.37337 0.0
C509 C 0.60601 0.38914 0.36009 0.0
C510 C 0.6063 0.38257 0.32824 0.0
C511 C 0.6141 0.32804 0.31559 0.0
C512 C 0.62145 0.28139 0.33388 0.0
C513 C 0.62085 0.28781 0.36499 0.0
C514 C 0.61293 0.3409 0.37803 0.0
H515 H 0.67147 0.46019 0.26939 0.0
C516 C 0.63216 0.43923 0.25865 0.0
H517 H 0.55069 0.40149 0.26673 0.0
H518 H 0.59139 0.55392 0.3919 0.0
H519 H 0.58043 0.63464 0.35981 0.0
H520 H 0.576 0.6229 0.3044 0.0
H521 H 0.58306 0.53055 0.28081 0.0
C522 C 0.59109 0.42182 0.2763 0.0
C523 C 0.59866 0.43006 0.3097 0.0
C524 C 0.5942 0.48465 0.32308 0.0
C525 C 0.59547 0.49133 0.35501 0.0
C526 C 0.59053 0.54623 0.3678 0.0
C527 C 0.58413 0.59304 0.34963 0.0
C528 C 0.58173 0.58644 0.31844 0.0
C529 C 0.58629 0.53303 0.30519 0.0
loop_
_geom_bond_atom_site_label_1
_geom_bond_atom_site_label_2
_geom_bond_distance
_geom_bond_site_symmetry_2
_ccdc_geom_bond_type
Zn0 O6 1.920 1_545 S
Zn0 O12 1.898 . S
Zn0 O15 1.905 1_545 S
Zn1 O9 1.905 . S
Zn1 O10 1.898 1_545 S
Zn1 O18 1.920 1_545 S
Zn2 O5 2.080 1_445 S
Zn2 O8 2.114 . S
Zn2 O11 2.120 1_545 S
Zn2 O13 2.120 1_455 S
Zn2 O14 2.114 1_554 S
Zn2 O17 2.080 . S
C3 O8 1.166 . S
C3 O9 1.182 . S
C4 O10 1.167 . S
C4 O11 1.299 . S
O5 Zn2 2.080 1_665 S
O5 C19 1.305 . S
O6 Zn0 1.920 1_565 S
O6 C19 1.234 1_556 S
C7 O12 1.167 . S
C7 O13 1.299 1_556 S
O8 Zn2 2.114 . S
O8 C3 1.166 . S
O9 Zn1 1.905 . S
O9 C3 1.182 . S
O10 Zn1 1.898 1_565 S
O10 C4 1.167 . S
O11 Zn2 2.120 1_565 S
O11 C4 1.299 . S
O12 Zn0 1.898 . S
O12 C7 1.167 . S
O13 Zn2 2.120 1_655 S
O13 C7 1.299 1_554 S
O14 Zn2 2.114 1_556 S
O14 C16 1.166 1_545 S
O15 Zn0 1.905 1_565 S
O15 C16 1.182 1_655 S
C16 O14 1.166 1_565 S
C16 O15 1.182 1_455 S
O17 Zn2 2.080 . S
O17 C20 1.305 1_545 S
O18 Zn1 1.920 1_565 S
O18 C20 1.234 . S
C19 O5 1.305 . S
C19 O6 1.234 1_554 S
C20 O17 1.305 1_565 S
C20 O18 1.234 . S
Zn21 O27 1.920 . S
Zn21 O33 1.898 . S
Zn21 O36 1.905 . S
Zn22 O30 1.905 . S
Zn22 O31 1.898 . S
Zn22 O39 1.920 . S
Zn23 O26 2.080 . S
Zn23 O29 2.114 . S
Zn23 O32 2.120 . S
Zn23 O34 2.120 . S
Zn23 O35 2.114 . S
Zn23 O38 2.080 . S
C24 O29 1.166 . S
C24 O30 1.182 . S
C25 O31 1.167 . S
C25 O32 1.299 . S
O26 Zn23 2.080 . S
O26 C40 1.305 . S
O27 Zn21 1.920 . S
O27 C40 1.234 . S
C28 O33 1.167 . S
C28 O34 1.299 . S
O29 Zn23 2.114 . S
O29 C24 1.166 . S
O30 Zn22 1.905 . S
O30 C24 1.182 . S
O31 Zn22 1.898 . S
O31 C25 1.167 . S
O32 Zn23 2.120 . S
O32 C25 1.299 . S
O33 Zn21 1.898 . S
O33 C28 1.167 . S
O34 Zn23 2.120 . S
O34 C28 1.299 . S
O35 Zn23 2.114 . S
O35 C37 1.166 . S
O36 Zn21 1.905 . S
O36 C37 1.182 . S
C37 O35 1.166 . S
C37 O36 1.182 . S
O38 Zn23 2.080 . S
O38 C41 1.305 . S
O39 Zn22 1.920 . S
O39 C41 1.234 . S
C40 O26 1.305 . S
C40 O27 1.234 . S
C41 O38 1.305 . S
C41 O39 1.234 . S
P42 O53 1.490 . S
P42 C56 1.812 . S
P42 C62 1.803 . S
P42 C68 1.819 . S
H43 C57 0.941 . S
H44 C58 0.939 . S
H45 C60 0.940 . S
H46 C61 0.940 . S
H47 C63 0.939 . S
H48 C64 0.942 . S
H49 C66 0.940 . S
H50 C67 0.939 . S
H51 C69 0.941 . S
H52 C73 0.939 1_565 S
O53 P42 1.490 . S
H54 C70 0.939 . S
H55 C72 0.940 1_565 S
C56 P42 1.812 . S
C56 C57 1.389 . S
C56 C61 1.391 . S
C57 H43 0.941 . S
C57 C56 1.389 . S
C57 C58 1.397 . S
C58 H44 0.939 . S
C58 C57 1.397 . S
C58 C59 1.378 1_455 S
C59 C58 1.378 1_655 S
C59 C60 1.378 . S
C60 H45 0.940 . S
C60 C59 1.378 . S
C60 C61 1.396 1_655 S
C61 H46 0.940 . S
C61 C56 1.391 . S
C61 C60 1.396 1_455 S
C62 P42 1.803 . S
C62 C63 1.378 . S
C62 C67 1.400 1_545 S
C63 H47 0.939 . S
C63 C62 1.378 . S
C63 C64 1.361 1_545 S
C64 H48 0.942 . S
C64 C63 1.361 1_565 S
C64 C65 1.369 . S
C65 C64 1.369 . S
C65 C66 1.404 . S
C66 H49 0.940 . S
C66 C65 1.404 . S
C66 C67 1.389 . S
C67 H50 0.939 . S
C67 C62 1.400 1_565 S
C67 C66 1.389 . S
C68 P42 1.819 . S
C68 C69 1.391 . S
C68 C73 1.391 . S
C69 H51 0.941 . S
C69 C68 1.391 . S
C69 C70 1.396 . S
C70 H54 0.939 . S
C70 C69 1.396 . S
C70 C71 1.397 . S
C71 C70 1.397 . S
C71 C72 1.385 . S
C72 H55 0.940 1_545 S
C72 C71 1.385 . S
C72 C73 1.388 . S
C73 H52 0.939 1_545 S
C73 C68 1.391 . S
C73 C72 1.388 . S
P74 O85 1.490 . S
P74 C88 1.812 1_455 S
P74 C94 1.803 1_565 S
P74 C100 1.819 . S
H75 C89 0.941 1_455 S
H76 C90 0.939 . S
H77 C92 0.940 . S
H78 C93 0.927 1_545 S
H79 C95 0.939 . S
H80 C96 0.942 . S
H81 C98 0.940 . S
H82 C99 0.939 . S
H83 C101 0.941 . S
H84 C105 0.939 . S
O85 P74 1.490 . S
H86 C102 0.939 . S
H87 C104 0.940 . S
C88 P74 1.812 1_655 S
C88 C89 1.389 . S
C88 C93 1.391 . S
C89 H75 0.941 1_655 S
C89 C88 1.389 . S
C89 C90 1.397 . S
C90 H76 0.939 . S
C90 C89 1.397 . S
C90 C91 1.378 . S
C91 C90 1.378 . S
C91 C92 1.378 . S
C92 H77 0.940 . S
C92 C91 1.378 . S
C92 C93 1.396 . S
C93 H78 0.927 1_565 S
C93 C88 1.391 . S
C93 C92 1.396 . S
C94 P74 1.803 1_545 S
C94 C95 1.378 . S
C94 C99 1.400 . S
C95 H79 0.939 . S
C95 C94 1.378 . S
C95 C96 1.361 . S
C96 H80 0.942 . S
C96 C95 1.361 . S
C96 C97 1.369 . S
C97 C96 1.369 . S
C97 C98 1.404 . S
C98 H81 0.940 . S
C98 C97 1.404 . S
C98 C99 1.389 . S
C99 H82 0.939 . S
C99 C94 1.400 . S
C99 C98 1.389 . S
C100 P74 1.819 . S
C100 C101 1.391 . S
C100 C105 1.391 1_565 S
C101 H83 0.941 . S
C101 C100 1.391 . S
C101 C102 1.396 . S
C102 H86 0.939 . S
C102 C101 1.396 . S
C102 C103 1.397 1_565 S
C103 C102 1.397 1_545 S
C103 C104 1.385 . S
C104 H87 0.940 . S
C104 C103 1.385 . S
C104 C105 1.388 . S
C105 H84 0.939 . S
C105 C100 1.391 1_545 S
C105 C104 1.388 . S
P106 O117 1.490 . S
P106 C120 1.812 . S
P106 C126 1.803 . S
P106 C132 1.819 . S
H107 C121 0.941 . S
H108 C122 0.939 . S
H109 C124 0.940 . S
H110 C125 0.940 . S
H111 C127 0.939 . S
H112 C128 0.942 . S
H113 C130 0.940 . S
H114 C131 0.939 . S
H115 C133 0.941 . S
H116 C137 0.939 . S
O117 P106 1.490 . S
H118 C134 0.939 . S
H119 C136 0.940 . S
C120 P106 1.812 . S
C120 C121 1.389 . S
C120 C125 1.391 . S
C121 H107 0.941 . S
C121 C120 1.389 . S
C121 C122 1.397 . S
C122 H108 0.939 . S
C122 C121 1.397 . S
C122 C123 1.378 . S
C123 C122 1.378 . S
C123 C124 1.378 . S
C124 H109 0.940 . S
C124 C123 1.378 . S
C124 C125 1.396 . S
C125 H110 0.940 . S
C125 C120 1.391 . S
C125 C124 1.396 . S
C126 P106 1.803 . S
C126 C127 1.378 . S
C126 C131 1.400 . S
C127 H111 0.939 . S
C127 C126 1.378 . S
C127 C128 1.361 . S
C128 H112 0.942 . S
C128 C127 1.361 . S
C128 C129 1.369 . S
C129 C128 1.369 . S
C129 C130 1.404 . S
C130 H113 0.940 . S
C130 C129 1.404 . S
C130 C131 1.389 . S
C131 H114 0.939 . S
C131 C126 1.400 . S
C131 C130 1.389 . S
C132 P106 1.819 . S
C132 C133 1.391 . S
C132 C137 1.391 . S
C133 H115 0.941 . S
C133 C132 1.391 . S
C133 C134 1.396 . S
C134 H118 0.939 . S
C134 C133 1.396 . S
C134 C135 1.397 . S
C135 C134 1.397 . S
C135 C136 1.385 . S
C136 H119 0.940 . S
C136 C135 1.385 . S
C136 C137 1.388 . S
C137 H116 0.939 . S
C137 C132 1.391 . S
C137 C136 1.388 . S
P138 O149 1.490 . S
P138 C152 1.812 . S
P138 C158 1.803 . S
P138 C164 1.819 . S
H139 C153 0.941 . S
H140 C154 0.939 . S
H141 C156 0.940 . S
H142 C157 0.940 . S
H143 C159 0.939 . S
H144 C160 0.942 . S
H145 C162 0.940 . S
H146 C163 0.939 . S
H147 C165 0.941 . S
H148 C169 0.939 . S
O149 P138 1.490 . S
H150 C166 0.939 . S
H151 C168 0.940 . S
C152 P138 1.812 . S
C152 C153 1.389 . S
C152 C157 1.391 . S
C153 H139 0.941 . S
C153 C152 1.389 . S
C153 C154 1.397 . S
C154 H140 0.939 . S
C154 C153 1.397 . S
C154 C155 1.378 . S
C155 C154 1.378 . S
C155 C156 1.378 . S
C156 H141 0.940 . S
C156 C155 1.378 . S
C156 C157 1.396 . S
C157 H142 0.940 . S
C157 C152 1.391 . S
C157 C156 1.396 . S
C158 P138 1.803 . S
C158 C159 1.378 . S
C158 C163 1.400 . S
C159 H143 0.939 . S
C159 C158 1.378 . S
C159 C160 1.361 . S
C160 H144 0.942 . S
C160 C159 1.361 . S
C160 C161 1.369 . S
C161 C160 1.369 . S
C161 C162 1.404 . S
C162 H145 0.940 . S
C162 C161 1.404 . S
C162 C163 1.389 . S
C163 H146 0.939 . S
C163 C158 1.400 . S
C163 C162 1.389 . S
C164 P138 1.819 . S
C164 C165 1.391 . S
C164 C169 1.391 . S
C165 H147 0.941 . S
C165 C164 1.391 . S
C165 C166 1.396 . S
C166 H150 0.939 . S
C166 C165 1.396 . S
C166 C167 1.397 . S
C167 C166 1.397 . S
C167 C168 1.385 . S
C168 H151 0.940 . S
C168 C167 1.385 . S
C168 C169 1.388 . S
C169 H148 0.939 . S
C169 C164 1.391 . S
C169 C168 1.388 . S
H170 C171 0.951 . S
C171 H170 0.951 . S
C171 C177 1.265 . S
H172 C177 0.950 . S
H173 C181 0.949 . S
H174 C182 0.950 . S
H175 C183 0.951 . S
H176 C184 0.950 1_556 S
C177 C171 1.265 . S
C177 H172 0.950 . S
C177 C178 1.478 . S
C178 C177 1.478 . S
C178 C179 1.397 . S
C178 C195 1.394 . S
C179 C178 1.397 . S
C179 C180 1.438 . S
C179 C184 1.433 . S
C180 C179 1.438 . S
C180 C181 1.428 . S
C180 C193 1.394 . S
C181 H173 0.949 . S
C181 C180 1.428 . S
C181 C182 1.345 1_554 S
C182 H174 0.950 . S
C182 C181 1.345 1_556 S
C182 C183 1.424 . S
C183 H175 0.951 . S
C183 C182 1.424 . S
C183 C184 1.344 1_556 S
C184 H176 0.950 1_554 S
C184 C179 1.433 . S
C184 C183 1.344 1_554 S
H185 C186 0.951 . S
C186 H185 0.951 . S
C186 C192 1.265 . S
H187 C192 0.950 . S
H188 C196 0.949 . S
H189 C197 0.950 . S
H190 C198 0.951 . S
H191 C199 0.951 . S
C192 C186 1.265 . S
C192 H187 0.950 . S
C192 C193 1.478 . S
C193 C180 1.394 . S
C193 C192 1.478 . S
C193 C194 1.397 . S
C194 C193 1.397 . S
C194 C195 1.438 . S
C194 C199 1.429 . S
C195 C178 1.394 . S
C195 C194 1.438 . S
C195 C196 1.428 . S
C196 H188 0.949 . S
C196 C195 1.428 . S
C196 C197 1.345 . S
C197 H189 0.950 . S
C197 C196 1.345 . S
C197 C198 1.424 . S
C198 H190 0.951 . S
C198 C197 1.424 . S
C198 C199 1.347 . S
C199 H191 0.951 . S
C199 C194 1.429 . S
C199 C198 1.347 . S
H200 C201 0.951 1_554 S
C201 H200 0.951 1_556 S
C201 C207 1.265 . S
H202 C207 0.950 . S
H203 C211 0.949 . S
H204 C212 0.950 . S
H205 C213 0.951 . S
H206 C214 0.951 . S
C207 C201 1.265 . S
C207 H202 0.950 . S
C207 C208 1.478 . S
C208 C207 1.478 . S
C208 C209 1.397 . S
C208 C225 1.394 . S
C209 C208 1.397 . S
C209 C210 1.438 . S
C209 C214 1.429 . S
C210 C209 1.438 . S
C210 C211 1.428 . S
C210 C223 1.394 . S
C211 H203 0.949 . S
C211 C210 1.428 . S
C211 C212 1.345 . S
C212 H204 0.950 . S
C212 C211 1.345 . S
C212 C213 1.424 . S
C213 H205 0.951 . S
C213 C212 1.424 . S
C213 C214 1.347 . S
C214 H206 0.951 . S
C214 C209 1.429 . S
C214 C213 1.347 . S
H215 C216 0.951 . S
C216 H215 0.951 . S
C216 C222 1.265 . S
H217 C222 0.950 . S
H218 C226 0.949 . S
H219 C227 0.950 . S
H220 C228 0.951 . S
H221 C229 0.951 . S
C222 C216 1.265 . S
C222 H217 0.950 . S
C222 C223 1.478 . S
C223 C210 1.394 . S
C223 C222 1.478 . S
C223 C224 1.397 . S
C224 C223 1.397 . S
C224 C225 1.438 . S
C224 C229 1.429 1_556 S
C225 C208 1.394 . S
C225 C224 1.438 . S
C225 C226 1.428 1_556 S
C226 H218 0.949 . S
C226 C225 1.428 1_554 S
C226 C227 1.345 . S
C227 H219 0.950 . S
C227 C226 1.345 . S
C227 C228 1.424 . S
C228 H220 0.951 . S
C228 C227 1.424 . S
C228 C229 1.347 . S
C229 H221 0.951 . S
C229 C224 1.429 1_554 S
C229 C228 1.347 . S
H230 C231 0.951 . S
C231 H230 0.951 . S
C231 C237 1.265 . S
H232 C237 0.950 . S
H233 C241 0.949 . S
H234 C242 0.950 . S
H235 C243 0.951 . S
H236 C244 0.951 . S
C237 C231 1.265 . S
C237 H232 0.950 . S
C237 C238 1.478 . S
C238 C237 1.478 . S
C238 C239 1.397 . S
C238 C255 1.394 . S
C239 C238 1.397 . S
C239 C240 1.438 . S
C239 C244 1.429 . S
C240 C239 1.438 . S
C240 C241 1.428 . S
C240 C253 1.394 . S
C241 H233 0.949 . S
C241 C240 1.428 . S
C241 C242 1.345 . S
C242 H234 0.950 . S
C242 C241 1.345 . S
C242 C243 1.424 . S
C243 H235 0.951 . S
C243 C242 1.424 . S
C243 C244 1.347 . S
C244 H236 0.951 . S
C244 C239 1.429 . S
C244 C243 1.347 . S
H245 C246 0.951 . S
C246 H245 0.951 . S
C246 C252 1.265 . S
H247 C252 0.950 . S
H248 C256 0.949 . S
H249 C257 0.950 . S
H250 C258 0.951 . S
H251 C259 0.951 . S
C252 C246 1.265 . S
C252 H247 0.950 . S
C252 C253 1.478 . S
C253 C240 1.394 . S
C253 C252 1.478 . S
C253 C254 1.397 . S
C254 C253 1.397 . S
C254 C255 1.438 . S
C254 C259 1.429 . S
C255 C238 1.394 . S
C255 C254 1.438 . S
C255 C256 1.428 . S
C256 H248 0.949 . S
C256 C255 1.428 . S
C256 C257 1.345 . S
C257 H249 0.950 . S
C257 C256 1.345 . S
C257 C258 1.424 . S
C258 H250 0.951 . S
C258 C257 1.424 . S
C258 C259 1.347 . S
C259 H251 0.951 . S
C259 C254 1.429 . S
C259 C258 1.347 . S
H260 C261 0.951 1_554 S
C261 H260 0.951 1_556 S
C261 C267 1.265 . S
H262 C267 0.950 . S
H263 C271 0.949 . S
H264 C272 0.950 . S
H265 C273 0.951 . S
H266 C274 0.951 . S
C267 C261 1.265 . S
C267 H262 0.950 . S
C267 C268 1.478 . S
C268 C267 1.478 . S
C268 C269 1.397 . S
C268 C285 1.394 1_556 S
C269 C268 1.397 . S
C269 C270 1.438 . S
C269 C274 1.429 . S
C270 C269 1.438 . S
C270 C271 1.428 . S
C270 C283 1.394 . S
C271 H263 0.949 . S
C271 C270 1.428 . S
C271 C272 1.345 . S
C272 H264 0.950 . S
C272 C271 1.345 . S
C272 C273 1.424 . S
C273 H265 0.951 . S
C273 C272 1.424 . S
C273 C274 1.347 . S
C274 H266 0.951 . S
C274 C269 1.429 . S
C274 C273 1.347 . S
H275 C276 0.951 . S
C276 H275 0.951 . S
C276 C282 1.265 . S
H277 C282 0.950 . S
H278 C286 0.949 . S
H279 C287 0.950 . S
H280 C288 0.951 . S
H281 C289 0.951 . S
C282 C276 1.265 . S
C282 H277 0.950 . S
C282 C283 1.478 . S
C283 C270 1.394 . S
C283 C282 1.478 . S
C283 C284 1.397 1_556 S
C284 C283 1.397 1_554 S
C284 C285 1.438 . S
C284 C289 1.429 . S
C285 C268 1.394 1_554 S
C285 C284 1.438 . S
C285 C286 1.428 . S
C286 H278 0.949 . S
C286 C285 1.428 . S
C286 C287 1.345 . S
C287 H279 0.950 . S
C287 C286 1.345 . S
C287 C288 1.424 . S
C288 H280 0.951 . S
C288 C287 1.424 . S
C288 C289 1.347 . S
C289 H281 0.951 . S
C289 C284 1.429 . S
C289 C288 1.347 . S
H290 C291 0.951 . S
C291 H290 0.951 . S
C291 C297 1.265 . S
H292 C297 0.950 . S
H293 C301 0.949 . S
H294 C302 0.950 . S
H295 C303 0.951 . S
H296 C304 0.951 . S
C297 C291 1.265 . S
C297 H292 0.950 . S
C297 C298 1.478 . S
C298 C297 1.478 . S
C298 C299 1.397 . S
C298 C315 1.394 . S
C299 C298 1.397 . S
C299 C300 1.438 . S
C299 C304 1.429 . S
C300 C299 1.438 . S
C300 C301 1.428 . S
C300 C313 1.394 . S
C301 H293 0.949 . S
C301 C300 1.428 . S
C301 C302 1.345 . S
C302 H294 0.950 . S
C302 C301 1.345 . S
C302 C303 1.424 . S
C303 H295 0.951 . S
C303 C302 1.424 . S
C303 C304 1.347 . S
C304 H296 0.951 . S
C304 C299 1.429 . S
C304 C303 1.347 . S
H305 C306 0.951 . S
C306 H305 0.951 . S
C306 C312 1.265 . S
H307 C312 0.950 . S
H308 C316 0.949 . S
H309 C317 0.950 . S
H310 C318 0.951 . S
H311 C319 0.951 . S
C312 C306 1.265 . S
C312 H307 0.950 . S
C312 C313 1.478 . S
C313 C300 1.394 . S
C313 C312 1.478 . S
C313 C314 1.397 . S
C314 C313 1.397 . S
C314 C315 1.438 . S
C314 C319 1.429 . S
C315 C298 1.394 . S
C315 C314 1.438 . S
C315 C316 1.428 . S
C316 H308 0.949 . S
C316 C315 1.428 . S
C316 C317 1.345 . S
C317 H309 0.950 . S
C317 C316 1.345 . S
C317 C318 1.424 . S
C318 H310 0.951 . S
C318 C317 1.424 . S
C318 C319 1.347 . S
C319 H311 0.951 . S
C319 C314 1.429 . S
C319 C318 1.347 . S
H320 C321 0.951 . S
C321 H320 0.951 . S
C321 C327 1.265 . S
H322 C327 0.950 . S
H323 C331 0.949 . S
H324 C332 0.950 . S
H325 C333 0.951 . S
H326 C334 0.951 . S
C327 C321 1.265 . S
C327 H322 0.950 . S
C327 C328 1.478 . S
C328 C327 1.478 . S
C328 C329 1.397 . S
C328 C345 1.394 . S
C329 C328 1.397 . S
C329 C330 1.438 . S
C329 C334 1.429 . S
C330 C329 1.438 . S
C330 C331 1.428 . S
C330 C343 1.394 . S
C331 H323 0.949 . S
C331 C330 1.428 . S
C331 C332 1.345 . S
C332 H324 0.950 . S
C332 C331 1.345 . S
C332 C333 1.424 . S
C333 H325 0.951 . S
C333 C332 1.424 . S
C333 C334 1.347 . S
C334 H326 0.951 . S
C334 C329 1.429 . S
C334 C333 1.347 . S
H335 C336 0.951 . S
C336 H335 0.951 . S
C336 C342 1.265 . S
H337 C342 0.950 . S
H338 C346 0.949 . S
H339 C347 0.950 . S
H340 C348 0.951 . S
H341 C349 0.951 . S
C342 C336 1.265 . S
C342 H337 0.950 . S
C342 C343 1.478 . S
C343 C330 1.394 . S
C343 C342 1.478 . S
C343 C344 1.397 . S
C344 C343 1.397 . S
C344 C345 1.438 . S
C344 C349 1.429 . S
C345 C328 1.394 . S
C345 C344 1.438 . S
C345 C346 1.428 . S
C346 H338 0.949 . S
C346 C345 1.428 . S
C346 C347 1.345 . S
C347 H339 0.950 . S
C347 C346 1.345 . S
C347 C348 1.424 . S
C348 H340 0.951 . S
C348 C347 1.424 . S
C348 C349 1.347 . S
C349 H341 0.951 . S
C349 C344 1.429 . S
C349 C348 1.347 . S
H350 C351 0.951 . S
C351 H350 0.951 . S
C351 C357 1.265 . S
H352 C357 0.950 . S
H353 C361 0.949 . S
H354 C362 0.950 . S
H355 C363 0.951 . S
H356 C364 0.951 . S
C357 C351 1.265 . S
C357 H352 0.950 . S
C357 C358 1.478 . S
C358 C357 1.478 . S
C358 C359 1.397 . S
C358 C375 1.394 . S
C359 C358 1.397 . S
C359 C360 1.438 . S
C359 C364 1.429 . S
C360 C359 1.438 . S
C360 C361 1.428 . S
C360 C373 1.394 . S
C361 H353 0.949 . S
C361 C360 1.428 . S
C361 C362 1.345 . S
C362 H354 0.950 . S
C362 C361 1.345 . S
C362 C363 1.424 . S
C363 H355 0.951 . S
C363 C362 1.424 . S
C363 C364 1.347 . S
C364 H356 0.951 . S
C364 C359 1.429 . S
C364 C363 1.347 . S
H365 C366 0.951 . S
C366 H365 0.951 . S
C366 C372 1.265 . S
H367 C372 0.950 . S
H368 C376 0.949 . S
H369 C377 0.950 . S
H370 C378 0.951 . S
H371 C379 0.951 . S
C372 C366 1.265 . S
C372 H367 0.950 . S
C372 C373 1.478 . S
C373 C360 1.394 . S
C373 C372 1.478 . S
C373 C374 1.397 . S
C374 C373 1.397 . S
C374 C375 1.438 . S
C374 C379 1.429 . S
C375 C358 1.394 . S
C375 C374 1.438 . S
C375 C376 1.428 . S
C376 H368 0.949 . S
C376 C375 1.428 . S
C376 C377 1.345 . S
C377 H369 0.950 . S
C377 C376 1.345 . S
C377 C378 1.424 . S
C378 H370 0.951 . S
C378 C377 1.424 . S
C378 C379 1.347 . S
C379 H371 0.951 . S
C379 C374 1.429 . S
C379 C378 1.347 . S
H380 C381 0.951 . S
C381 H380 0.951 . S
C381 C387 1.265 . S
H382 C387 0.950 . S
H383 C391 0.949 . S
H384 C392 0.950 . S
H385 C393 0.951 . S
H386 C394 0.951 . S
C387 C381 1.265 . S
C387 H382 0.950 . S
C387 C388 1.478 . S
C388 C387 1.478 . S
C388 C389 1.397 . S
C388 C405 1.394 . S
C389 C388 1.397 . S
C389 C390 1.438 . S
C389 C394 1.429 . S
C390 C389 1.438 . S
C390 C391 1.428 . S
C390 C403 1.394 . S
C391 H383 0.949 . S
C391 C390 1.428 . S
C391 C392 1.345 . S
C392 H384 0.950 . S
C392 C391 1.345 . S
C392 C393 1.424 . S
C393 H385 0.951 . S
C393 C392 1.424 . S
C393 C394 1.347 . S
C394 H386 0.951 . S
C394 C389 1.429 . S
C394 C393 1.347 . S
H395 C396 0.951 . S
C396 H395 0.951 . S
C396 C402 1.265 . S
H397 C402 0.950 . S
H398 C406 0.949 . S
H399 C407 0.950 . S
H400 C408 0.951 . S
H401 C409 0.951 . S
C402 C396 1.265 . S
C402 H397 0.950 . S
C402 C403 1.478 . S
C403 C390 1.394 . S
C403 C402 1.478 . S
C403 C404 1.397 . S
C404 C403 1.397 . S
C404 C405 1.438 . S
C404 C409 1.429 . S
C405 C388 1.394 . S
C405 C404 1.438 . S
C405 C406 1.428 . S
C406 H398 0.949 . S
C406 C405 1.428 . S
C406 C407 1.345 . S
C407 H399 0.950 . S
C407 C406 1.345 . S
C407 C408 1.424 . S
C408 H400 0.951 . S
C408 C407 1.424 . S
C408 C409 1.347 . S
C409 H401 0.951 . S
C409 C404 1.429 . S
C409 C408 1.347 . S
H410 C411 0.951 . S
C411 H410 0.951 . S
C411 C417 1.265 1_565 S
H412 C417 0.950 . S
H413 C421 0.947 1_655 S
H414 C422 0.950 . S
H415 C423 0.951 . S
H416 C424 0.951 . S
C417 C411 1.265 1_545 S
C417 H412 0.950 . S
C417 C418 1.478 . S
C418 C417 1.478 . S
C418 C419 1.397 . S
C418 C435 1.394 1_545 S
C419 C418 1.397 . S
C419 C420 1.438 . S
C419 C424 1.429 . S
C420 C419 1.438 . S
C420 C421 1.428 . S
C420 C433 1.394 . S
C421 H413 0.947 1_455 S
C421 C420 1.428 . S
C421 C422 1.345 1_455 S
C422 H414 0.950 . S
C422 C421 1.345 1_655 S
C422 C423 1.424 . S
C423 H415 0.951 . S
C423 C422 1.424 . S
C423 C424 1.347 1_655 S
C424 H416 0.951 . S
C424 C419 1.429 . S
C424 C423 1.347 1_455 S
H425 C426 0.951 . S
C426 H425 0.951 . S
C426 C432 1.265 . S
H427 C432 0.950 1_565 S
H428 C436 0.949 . S
H429 C437 0.950 . S
H430 C438 0.951 . S
H431 C439 0.951 . S
C432 C426 1.265 . S
C432 H427 0.950 1_545 S
C432 C433 1.478 . S
C433 C420 1.394 . S
C433 C432 1.478 . S
C433 C434 1.397 1_545 S
C434 C433 1.397 1_565 S
C434 C435 1.438 . S
C434 C439 1.429 . S
C435 C418 1.394 1_565 S
C435 C434 1.438 . S
C435 C436 1.428 . S
C436 H428 0.949 . S
C436 C435 1.428 . S
C436 C437 1.345 . S
C437 H429 0.950 . S
C437 C436 1.345 . S
C437 C438 1.424 . S
C438 H430 0.951 . S
C438 C437 1.424 . S
C438 C439 1.347 . S
C439 H431 0.951 . S
C439 C434 1.429 . S
C439 C438 1.347 . S
H440 C441 0.951 1_655 S
C441 H440 0.951 1_455 S
C441 C447 1.265 . S
H442 C447 0.950 . S
H443 C451 0.949 . S
H444 C452 0.950 . S
H445 C453 0.951 . S
H446 C454 0.951 . S
C447 C441 1.265 . S
C447 H442 0.950 . S
C447 C448 1.478 . S
C448 C447 1.478 . S
C448 C449 1.397 . S
C448 C465 1.390 1_465 S
C449 C448 1.397 . S
C449 C450 1.438 . S
C449 C454 1.429 . S
C450 C449 1.438 . S
C450 C451 1.428 . S
C450 C463 1.385 1_465 S
C451 H443 0.949 . S
C451 C450 1.428 . S
C451 C452 1.345 . S
C452 H444 0.950 . S
C452 C451 1.345 . S
C452 C453 1.424 . S
C453 H445 0.951 . S
C453 C452 1.424 . S
C453 C454 1.347 . S
C454 H446 0.951 . S
C454 C449 1.429 . S
C454 C453 1.347 . S
H455 C456 0.951 . S
C456 H455 0.951 . S
C456 C462 1.265 1_455 S
H457 C462 0.950 . S
H458 C466 0.949 . S
H459 C467 0.950 . S
H460 C468 0.951 . S
H461 C469 0.951 . S
C462 C456 1.265 1_655 S
C462 H457 0.950 . S
C462 C463 1.482 . S
C463 C450 1.385 1_645 S
C463 C462 1.482 . S
C463 C464 1.402 . S
C464 C463 1.402 . S
C464 C465 1.439 . S
C464 C469 1.429 . S
C465 C448 1.390 1_645 S
C465 C464 1.439 . S
C465 C466 1.430 . S
C466 H458 0.949 . S
C466 C465 1.430 . S
C466 C467 1.345 . S
C467 H459 0.950 . S
C467 C466 1.345 . S
C467 C468 1.424 . S
C468 H460 0.951 . S
C468 C467 1.424 . S
C468 C469 1.347 . S
C469 H461 0.951 . S
C469 C464 1.429 . S
C469 C468 1.347 . S
H470 C471 0.951 . S
C471 H470 0.951 . S
C471 C477 1.265 . S
H472 C477 0.950 . S
H473 C481 0.949 . S
H474 C482 0.950 . S
H475 C483 0.951 . S
H476 C484 0.951 . S
C477 C471 1.265 . S
C477 H472 0.950 . S
C477 C478 1.478 . S
C478 C477 1.478 . S
C478 C479 1.397 . S
C478 C495 1.394 . S
C479 C478 1.397 . S
C479 C480 1.438 . S
C479 C484 1.429 . S
C480 C479 1.438 . S
C480 C481 1.428 . S
C480 C493 1.394 . S
C481 H473 0.949 . S
C481 C480 1.428 . S
C481 C482 1.345 . S
C482 H474 0.950 . S
C482 C481 1.345 . S
C482 C483 1.424 . S
C483 H475 0.951 . S
C483 C482 1.424 . S
C483 C484 1.347 . S
C484 H476 0.951 . S
C484 C479 1.429 . S
C484 C483 1.347 . S
H485 C486 0.951 . S
C486 H485 0.951 . S
C486 C492 1.265 . S
H487 C492 0.950 . S
H488 C496 0.949 . S
H489 C497 0.950 . S
H490 C498 0.951 . S
H491 C499 0.951 . S
C492 C486 1.265 . S
C492 H487 0.950 . S
C492 C493 1.478 . S
C493 C480 1.394 . S
C493 C492 1.478 . S
C493 C494 1.397 . S
C494 C493 1.397 . S
C494 C495 1.438 . S
C494 C499 1.429 . S
C495 C478 1.394 . S
C495 C494 1.438 . S
C495 C496 1.428 . S
C496 H488 0.949 . S
C496 C495 1.428 . S
C496 C497 1.345 . S
C497 H489 0.950 . S
C497 C496 1.345 . S
C497 C498 1.424 . S
C498 H490 0.951 . S
C498 C497 1.424 . S
C498 C499 1.347 . S
C499 H491 0.951 . S
C499 C494 1.429 . S
C499 C498 1.347 . S
H500 C501 0.951 . S
C501 H500 0.951 . S
C501 C507 1.265 . S
H502 C507 0.950 . S
H503 C511 0.949 . S
H504 C512 0.950 . S
H505 C513 0.951 . S
H506 C514 0.951 . S
C507 C501 1.265 . S
C507 H502 0.950 . S
C507 C508 1.478 . S
C508 C507 1.478 . S
C508 C509 1.397 . S
C508 C525 1.394 . S
C509 C508 1.397 . S
C509 C510 1.438 . S
C509 C514 1.429 . S
C510 C509 1.438 . S
C510 C511 1.428 . S
C510 C523 1.394 . S
C511 H503 0.949 . S
C511 C510 1.428 . S
C511 C512 1.345 . S
C512 H504 0.950 . S
C512 C511 1.345 . S
C512 C513 1.424 . S
C513 H505 0.951 . S
C513 C512 1.424 . S
C513 C514 1.347 . S
C514 H506 0.951 . S
C514 C509 1.429 . S
C514 C513 1.347 . S
H515 C516 0.951 . S
C516 H515 0.951 . S
C516 C522 1.265 . S
H517 C522 0.950 . S
H518 C526 0.949 . S
H519 C527 0.950 . S
H520 C528 0.951 . S
H521 C529 0.951 . S
C522 C516 1.265 . S
C522 H517 0.950 . S
C522 C523 1.478 . S
C523 C510 1.394 . S
C523 C522 1.478 . S
C523 C524 1.397 . S
C524 C523 1.397 . S
C524 C525 1.438 . S
C524 C529 1.429 . S
C525 C508 1.394 . S
C525 C524 1.438 . S
C525 C526 1.428 . S
C526 H518 0.949 . S
C526 C525 1.428 . S
C526 C527 1.345 . S
C527 H519 0.950 . S
C527 C526 1.345 . S
C527 C528 1.424 . S
C528 H520 0.951 . S
C528 C527 1.424 . S
C528 C529 1.347 . S
C529 H521 0.951 . S
C529 C524 1.429 . S
C529 C528 1.347 . S
C186 C155 1.156 . S
C171 C3 1.197 . S
C201 C4 1.414 1_556 S
C216 C123 1.572 . S
C231 C19 1.492 . S
C246 C161 1.579 . S
C261 C7 1.049 . S
C276 C129 1.173 . S
C291 C37 1.039 . S
C306 C91 1.238 . S
C321 C28 1.413 . S
C336 C59 1.576 . S
C366 C97 1.534 . S
C351 C41 1.472 . S
C396 C65 1.172 . S
C381 C25 1.063 . S
C411 C20 1.368 . S
C426 C71 1.418 . S
C441 C16 1.270 . S
C456 C103 1.415 . S
C486 C135 1.411 . S
C471 C40 1.374 . S
C501 C24 1.262 . S
C516 C167 1.407 . S
