# Generated by pormake.
# Topology ssa, (4,4)-cn, num edge types: 1
# Building blocks:
#     Node 0, Type 0, BuildingBlock: NAWXER_clean_sbu_0, # of connection points: 4
#     Node 1, Type 0, BuildingBlock: NAWXER_clean_sbu_0, # of connection points: 4
#     Node 2, Type 0, BuildingBlock: NAWXER_clean_sbu_0, # of connection points: 4
#     Node 3, Type 0, BuildingBlock: NAWXER_clean_sbu_0, # of connection points: 4
#     Node 4, Type 0, BuildingBlock: NAWXER_clean_sbu_0, # of connection points: 4
#     Node 5, Type 0, BuildingBlock: NAWXER_clean_sbu_0, # of connection points: 4
#     Node 6, Type 1, BuildingBlock: GIZVER_clean_linker_0, # of connection points: 4
#     Node 7, Type 1, BuildingBlock: GIZVER_clean_linker_0, # of connection points: 4
#     Node 8, Type 1, BuildingBlock: GIZVER_clean_linker_0, # of connection points: 4
#     Node 9, Type 1, BuildingBlock: GIZVER_clean_linker_0, # of connection points: 4
#     Node 10, Type 1, BuildingBlock: GIZVER_clean_linker_0, # of connection points: 4
#     Node 11, Type 1, BuildingBlock: GIZVER_clean_linker_0, # of connection points: 4
#     Edge 12, Type (0, 1), BuildingBlock: XIVTED_clean_linker_0, # of connection points: 2
#     Edge 13, Type (0, 1), BuildingBlock: XIVTED_clean_linker_0, # of connection points: 2
#     Edge 14, Type (0, 1), BuildingBlock: XIVTED_clean_linker_0, # of connection points: 2
#     Edge 15, Type (0, 1), BuildingBlock: XIVTED_clean_linker_0, # of connection points: 2
#     Edge 16, Type (0, 1), BuildingBlock: XIVTED_clean_linker_0, # of connection points: 2
#     Edge 17, Type (0, 1), BuildingBlock: XIVTED_clean_linker_0, # of connection points: 2
#     Edge 18, Type (0, 1), BuildingBlock: XIVTED_clean_linker_0, # of connection points: 2
#     Edge 19, Type (0, 1), BuildingBlock: XIVTED_clean_linker_0, # of connection points: 2
#     Edge 20, Type (0, 1), BuildingBlock: XIVTED_clean_linker_0, # of connection points: 2
#     Edge 21, Type (0, 1), BuildingBlock: XIVTED_clean_linker_0, # of connection points: 2
#     Edge 22, Type (0, 1), BuildingBlock: XIVTED_clean_linker_0, # of connection points: 2
#     Edge 23, Type (0, 1), BuildingBlock: XIVTED_clean_linker_0, # of connection points: 2
#     Edge 24, Type (0, 1), BuildingBlock: XIVTED_clean_linker_0, # of connection points: 2
#     Edge 25, Type (0, 1), BuildingBlock: XIVTED_clean_linker_0, # of connection points: 2
#     Edge 26, Type (0, 1), BuildingBlock: XIVTED_clean_linker_0, # of connection points: 2
#     Edge 27, Type (0, 1), BuildingBlock: XIVTED_clean_linker_0, # of connection points: 2
#     Edge 28, Type (0, 1), BuildingBlock: XIVTED_clean_linker_0, # of connection points: 2
#     Edge 29, Type (0, 1), BuildingBlock: XIVTED_clean_linker_0, # of connection points: 2
#     Edge 30, Type (0, 1), BuildingBlock: XIVTED_clean_linker_0, # of connection points: 2
#     Edge 31, Type (0, 1), BuildingBlock: XIVTED_clean_linker_0, # of connection points: 2
#     Edge 32, Type (0, 1), BuildingBlock: XIVTED_clean_linker_0, # of connection points: 2
#     Edge 33, Type (0, 1), BuildingBlock: XIVTED_clean_linker_0, # of connection points: 2
#     Edge 34, Type (0, 1), BuildingBlock: XIVTED_clean_linker_0, # of connection points: 2
#     Edge 35, Type (0, 1), BuildingBlock: XIVTED_clean_linker_0, # of connection points: 2
# Relax obj value: 0.007
# Max RMSD: 0.038
# Mean RMSD: 0.029
data_MOF--net-ssa--node1-NAWXER_clean_sbu_0--node2-GIZVER_clean_linker_0--edge1-XIVTED_clean_linker_0
_symmetry_space_group_name_H-M    P1
_symmetry_Int_Tables_number       1
_symmetry_cell_setting            triclinic
loop_
_symmetry_equiv_pos_as_xyz
'x, y, z'
_cell_length_a     52.712476
_cell_length_b     52.739165
_cell_length_c     28.699734
_cell_angle_alpha  90.604761
_cell_angle_beta   89.327617
_cell_angle_gamma 119.96545
loop_
_atom_site_label
_atom_site_type_symbol
_atom_site_fract_x
_atom_site_fract_y
_atom_site_fract_z
_atom_type_partial_charge
C0 C 0.03662 0.57719 0.05021 0.0
C1 C 0.97133 0.4812 0.97919 0.0
O2 O 0.01436 0.55608 0.06971 0.0
Zn3 Zn 1.00345 0.52831 0.01772 0.0
O4 O 0.04388 0.57388 0.00887 0.0
Zn5 Zn 0.0298 0.54198 0.95497 0.0
O6 O 0.02016 0.5615 0.90645 0.0
O7 O 0.9908 0.54913 0.9677 0.0
O8 O 0.99304 0.49843 0.95325 0.0
O9 O 0.96848 0.48962 0.01967 0.0
O10 O 0.03865 0.51905 0.0153 0.0
O11 O 0.06338 0.53608 0.94946 0.0
C12 C 0.99844 0.56089 0.92745 0.0
C13 C 0.05993 0.52322 0.98825 0.0
C14 C 0.49501 0.03515 0.58169 0.0
C15 C 0.52238 0.9681 0.50658 0.0
O16 O 0.49983 0.01686 0.60283 0.0
Zn17 Zn 0.50837 1.0006 0.54711 0.0
O18 O 0.49747 0.03722 0.53736 0.0
Zn19 Zn 0.50874 0.01923 0.48007 0.0
O20 O 0.47234 1.002 0.44496 0.0
O21 O 0.46744 0.98019 0.51234 0.0
O22 O 0.52032 0.98574 0.47853 0.0
O23 O 0.51689 0.96865 0.54977 0.0
O24 O 0.54914 0.03712 0.52673 0.0
O25 O 0.54453 0.05416 0.45923 0.0
C26 C 0.45624 0.98246 0.47438 0.0
C27 C 0.56022 0.05586 0.49383 0.0
C28 C 0.52155 0.4656 0.98568 0.0
C29 C 0.55437 0.56705 0.02805 0.0
O30 O 0.51745 0.4796 0.95297 0.0
Zn31 Zn 0.52753 0.52418 0.93991 0.0
O32 O 0.53493 0.47903 0.02244 0.0
Zn33 Zn 0.54034 0.51672 0.00533 0.0
O34 O 0.4953 0.50757 -7e-05 0.0
O35 O 0.48921 0.51872 0.92828 0.0
O36 O 0.55703 0.54803 0.05095 0.0
O37 O 0.54392 0.56084 0.98677 0.0
O38 O 0.55541 0.53746 0.889 0.0
O39 O 0.57368 0.53022 0.95271 0.0
C40 C 0.47899 0.50948 0.96882 0.0
C41 C 0.57657 0.53754 0.90973 0.0
C42 C 0.0435 0.52099 0.42906 0.0
C43 C 0.97112 0.41909 0.46365 0.0
O44 O 0.0438 0.51347 0.47118 0.0
Zn45 Zn 0.02322 0.47569 0.51361 0.0
O46 O 0.02607 0.50223 0.39978 0.0
Zn47 Zn 1.00718 0.46939 0.4427 0.0
O48 O 0.98633 0.48401 0.4909 0.0
O49 O 1.00437 0.48753 0.56131 0.0
O50 O 0.97395 0.43167 0.42476 0.0
O51 O 0.98827 0.43316 0.49738 0.0
O52 O 0.05618 0.46961 0.52672 0.0
O53 O 0.04137 0.46005 0.45362 0.0
C54 C 0.98654 0.48977 0.53436 0.0
C55 C 0.05847 0.46122 0.48591 0.0
C56 C 0.54653 0.96912 -0.00105 0.0
C57 C 0.50579 0.03268 0.96594 0.0
O58 O 0.552 0.98889 0.02981 0.0
Zn59 Zn 0.54333 0.02348 0.04408 0.0
O60 O 0.53202 0.96756 0.96281 0.0
Zn61 Zn 0.52665 1.00073 0.97826 0.0
O62 O 0.56985 0.03763 0.97561 0.0
O63 O 0.58199 0.05829 0.04538 0.0
O64 O 0.50431 0.0126 0.9391 0.0
O65 O 0.51973 0.03822 0.00429 0.0
O66 O 0.51822 0.00882 0.09944 0.0
O67 O 0.49762 0.9835 0.03557 0.0
C68 C 0.58834 0.05776 0.00259 0.0
C69 C 0.49623 0.9879 0.07915 0.0
C70 C 0.55667 0.49494 0.46767 0.0
C71 C 0.45494 0.46261 0.43009 0.0
O72 O 0.54364 0.50117 0.49995 0.0
Zn73 Zn 0.50044 0.49374 0.51429 0.0
O74 O 0.54251 0.4805 0.43214 0.0
Zn75 Zn 0.50514 0.47672 0.45004 0.0
O76 O 0.51273 0.52133 0.4494 0.0
O77 O 0.50815 0.53314 0.52209 0.0
O78 O 0.47297 0.45787 0.40721 0.0
O79 O 0.46233 0.4754 0.46996 0.0
O80 O 0.48751 0.46909 0.56821 0.0
O81 O 0.49104 0.44605 0.50623 0.0
C82 C 0.51305 0.53985 0.47925 0.0
C83 C 0.48507 0.44605 0.54963 0.0
H84 H 0.24048 0.51541 0.14056 0.0
H85 H 0.24406 0.49846 0.28611 0.0
H86 H 0.16129 0.47241 0.22248 0.0
H87 H 0.2866 0.54092 0.18187 0.0
H88 H 0.28778 0.53701 0.2433 0.0
H89 H 0.29566 0.51035 0.12834 0.0
H90 H 0.33038 0.45917 0.18563 0.0
H91 H 0.29131 0.49549 0.27636 0.0
C92 C 0.22933 0.50609 0.17323 0.0
C93 C 0.19867 0.49313 0.17621 0.0
C94 C 0.24582 0.50791 0.21266 0.0
C95 C 0.23142 0.49644 0.25536 0.0
C96 C 0.20084 0.48302 0.25874 0.0
C97 C 0.18473 0.48134 0.21906 0.0
C98 C 0.27885 0.5245 0.21034 0.0
C99 C 0.29105 0.50422 0.20297 0.0
C100 C 0.29912 0.49985 0.15792 0.0
C101 C 0.31303 0.48326 0.15134 0.0
C102 C 0.31802 0.47042 0.19014 0.0
C103 C 0.3104 0.47468 0.23531 0.0
C104 C 0.29664 0.49144 0.24151 0.0
H105 H 0.72604 0.24679 0.65947 0.0
H106 H 0.73526 0.24516 0.80812 0.0
H107 H 0.69156 0.1646 0.73022 0.0
H108 H 0.73937 0.29048 0.70628 0.0
H109 H 0.73965 0.28897 0.76844 0.0
H110 H 0.78112 0.28863 0.66087 0.0
H111 H 0.86467 0.33942 0.72651 0.0
H112 H 0.78546 0.30905 0.80715 0.0
C113 C 0.72286 0.23457 0.69122 0.0
C114 C 0.70845 0.20386 0.68952 0.0
C115 C 0.7328 0.24957 0.73392 0.0
C116 C 0.72802 0.2336 0.77517 0.0
C117 C 0.71336 0.20287 0.77415 0.0
C118 C 0.70401 0.18831 0.73109 0.0
C119 C 0.74675 0.28245 0.736 0.0
C120 C 0.77973 0.29702 0.73432 0.0
C121 C 0.79396 0.29857 0.69187 0.0
C122 C 0.82463 0.31333 0.68908 0.0
C123 C 0.84102 0.32667 0.72933 0.0
C124 C 0.82728 0.32554 0.77221 0.0
C125 C 0.79647 0.31025 0.77444 0.0
H126 H 0.5305 0.73832 0.18837 0.0
H127 H 0.50662 0.72631 0.33383 0.0
H128 H 0.55747 0.69063 0.27638 0.0
H129 H 0.48705 0.74103 0.22053 0.0
H130 H 0.48227 0.74237 0.28191 0.0
H131 H 0.52146 0.78428 0.17782 0.0
H132 H 0.55749 0.86702 0.24842 0.0
H133 H 0.51549 0.78712 0.32738 0.0
C134 C 0.53216 0.73077 0.22256 0.0
C135 C 0.54674 0.71473 0.22777 0.0
C136 C 0.51811 0.73557 0.26093 0.0
C137 C 0.51879 0.72424 0.30475 0.0
C138 C 0.53354 0.70856 0.3104 0.0
C139 C 0.54797 0.70457 0.27224 0.0
C140 C 0.49915 0.74916 0.25387 0.0
C141 C 0.5171 0.78211 0.25286 0.0
C142 C 0.5265 0.79674 0.21003 0.0
C143 C 0.54152 0.82737 0.20851 0.0
C144 C 0.54728 0.8434 0.25019 0.0
C145 C 0.53779 0.82926 0.29344 0.0
C146 C 0.52306 0.79847 0.29446 0.0
H147 H 0.77986 0.56914 0.5856 0.0
H148 H 0.78278 0.59255 0.73086 0.0
H149 H 0.70015 0.53943 0.66373 0.0
H150 H 0.82511 0.60634 0.61823 0.0
H151 H 0.8246 0.62178 0.67356 0.0
H152 H 0.82786 0.55905 0.61533 0.0
H153 H 0.88089 0.55475 0.7241 0.0
H154 H 0.8469 0.61309 0.73874 0.0
C155 C 0.76884 0.56713 0.61863 0.0
C156 C 0.73813 0.55155 0.62064 0.0
C157 C 0.78524 0.58134 0.65873 0.0
C158 C 0.77046 0.58028 0.70062 0.0
C159 C 0.73974 0.56509 0.70232 0.0
C160 C 0.7239 0.55019 0.66274 0.0
C161 C 0.81808 0.60074 0.6552 0.0
C162 C 0.83407 0.58647 0.6758 0.0
C163 C 0.83735 0.56539 0.64974 0.0
C164 C 0.85396 0.55353 0.66737 0.0
C165 C 0.86686 0.56267 0.71112 0.0
C166 C 0.86475 0.58423 0.73651 0.0
C167 C 0.84804 0.59595 0.71933 0.0
H168 H 0.29695 0.81487 0.20832 0.0
H169 H 0.25691 0.80208 0.3441 0.0
H170 H 0.31727 0.88871 0.29541 0.0
H171 H 0.2624 0.76693 0.23003 0.0
H172 H 0.26918 0.76442 0.28973 0.0
H173 H 0.21494 0.76702 0.20847 0.0
H174 H 0.14189 0.70309 0.28884 0.0
H175 H 0.22885 0.7363 0.33888 0.0
C176 C 0.29245 0.82388 0.23936 0.0
C177 C 0.30933 0.85398 0.24839 0.0
C178 C 0.27211 0.805 0.2728 0.0
C179 C 0.26972 0.81666 0.3161 0.0
C180 C 0.28596 0.84701 0.32449 0.0
C181 C 0.30383 0.8654 0.28883 0.0
C182 C 0.25815 0.7723 0.26585 0.0
C183 C 0.2255 0.7558 0.27486 0.0
C184 C 0.20614 0.75473 0.24036 0.0
C185 C 0.17574 0.73561 0.24496 0.0
C186 C 0.16498 0.71923 0.2859 0.0
C187 C 0.18391 0.71901 0.31929 0.0
C188 C 0.21416 0.73754 0.31409 0.0
H189 H 0.43129 0.23525 0.87351 0.0
H190 H 0.41863 0.24067 0.72623 0.0
H191 H 0.46724 0.31895 0.80743 0.0
H192 H 0.3887 0.194 0.82532 0.0
H193 H 0.39264 0.1943 0.76345 0.0
H194 H 0.41141 0.17413 0.87315 0.0
H195 H 0.46551 0.14401 0.80964 0.0
H196 H 0.43611 0.19198 0.7278 0.0
C197 C 0.43566 0.24809 0.84213 0.0
C198 C 0.45166 0.27874 0.84486 0.0
C199 C 0.42434 0.23408 0.79896 0.0
C200 C 0.42851 0.25115 0.75901 0.0
C201 C 0.44358 0.28178 0.76229 0.0
C202 C 0.45589 0.29523 0.80478 0.0
C203 C 0.40515 0.20123 0.79657 0.0
C204 C 0.42295 0.18615 0.8006 0.0
C205 C 0.42361 0.17327 0.84311 0.0
C206 C 0.43907 0.15816 0.84595 0.0
C207 C 0.45448 0.15669 0.80723 0.0
C208 C 0.45344 0.16848 0.76446 0.0
C209 C 0.43764 0.18334 0.76109 0.0
H210 H 0.04839 0.47745 0.04416 0.0
H211 H 0.2129 0.53817 0.11472 0.0
H212 H 0.1191 0.54923 0.97044 0.0
H213 H 0.14406 0.4507 0.14769 0.0
H214 H 0.18029 0.54231 0.05913 0.0
H215 H 0.08364 0.46684 0.08049 0.0
C216 C 0.07138 0.49075 0.03517 0.0
C217 C 0.08087 0.51432 0.00441 0.0
C218 C 0.17252 0.52205 0.078 0.0
C219 C 0.12156 0.50268 0.04669 0.0
C220 C 0.19119 0.51958 0.10961 0.0
C221 C 0.18112 0.49418 0.1366 0.0
C222 C 0.14348 0.49911 0.0737 0.0
C223 C 0.15259 0.47098 0.12863 0.0
C224 C 0.09152 0.48465 0.05586 0.0
C225 C 0.11089 0.53079 -0.00613 0.0
N226 N 0.13469 0.47418 0.09853 0.0
N227 N 0.13029 0.525 0.01564 0.0
H228 H 0.57984 0.11398 0.4783 0.0
H229 H 0.71132 0.15695 0.65451 0.0
H230 H 0.6071 0.05473 0.52887 0.0
H231 H 0.67566 0.21292 0.62511 0.0
H232 H 0.68218 0.12437 0.59131 0.0
H233 H 0.62349 0.15499 0.51382 0.0
C234 C 0.59561 0.10978 0.49528 0.0
C235 C 0.58989 0.08101 0.50095 0.0
C236 C 0.68103 0.14401 0.59811 0.0
C237 C 0.63933 0.12745 0.54223 0.0
C238 C 0.69766 0.1626 0.63422 0.0
C239 C 0.69553 0.18741 0.6456 0.0
C240 C 0.66183 0.15003 0.57332 0.0
C241 C 0.67788 0.19396 0.61762 0.0
C242 C 0.62031 0.13311 0.51601 0.0
C243 C 0.61069 0.07663 0.52397 0.0
N244 N 0.66129 0.1751 0.58328 0.0
N245 N 0.63426 0.09951 0.54422 0.0
H246 H 0.58599 0.59288 0.10708 0.0
H247 H 0.51857 0.69434 0.1442 0.0
H248 H 0.5366 0.60491 -0.0007 0.0
H249 H 0.59532 0.70844 0.21855 0.0
H250 H 0.5266 0.66409 0.08776 0.0
H251 H 0.59097 0.63633 0.14718 0.0
C252 C 0.5765 0.60485 0.09158 0.0
C253 C 0.56067 0.59511 0.05 0.0
C254 C 0.54205 0.67432 0.11588 0.0
C255 C 0.56596 0.6446 0.09592 0.0
C256 C 0.53764 0.69188 0.14797 0.0
C257 C 0.55598 0.70358 0.18683 0.0
C258 C 0.56464 0.66801 0.1231 0.0
C259 C 0.58016 0.69924 0.18986 0.0
C260 C 0.57946 0.62973 0.11435 0.0
C261 C 0.54894 0.61158 0.03136 0.0
N262 N 0.58339 0.68126 0.15912 0.0
N263 N 0.55139 0.63521 0.05484 0.0
H264 H 0.96053 0.51414 0.48509 0.0
H265 H 0.8534 0.5034 0.69222 0.0
H266 H 0.96293 0.48301 0.62251 0.0
H267 H 0.87665 0.56433 0.57894 0.0
H268 H 0.88399 0.48532 0.65733 0.0
H269 H 0.92215 0.52414 0.51149 0.0
C270 C 0.95302 0.50947 0.52093 0.0
C271 C 0.96505 0.49788 0.55181 0.0
C272 C 0.88192 0.50224 0.63966 0.0
C273 C 0.92066 0.50869 0.58179 0.0
C274 C 0.8642 0.51229 0.65916 0.0
C275 C 0.86281 0.53565 0.6387 0.0
C276 C 0.89806 0.51538 0.59909 0.0
C277 C 0.87707 0.54628 0.59581 0.0
C278 C 0.93106 0.51512 0.53584 0.0
C279 C 0.95448 0.49225 0.59777 0.0
N280 N 0.89449 0.53634 0.5777 0.0
N281 N 0.93272 0.49758 0.61135 0.0
H282 H 0.44457 0.9472 0.04102 0.0
H283 H 0.36317 0.88892 0.28488 0.0
H284 H 0.48462 0.98408 0.17364 0.0
H285 H 0.31851 0.86133 0.15313 0.0
H286 H 0.40831 0.92187 0.24423 0.0
H287 H 0.39908 0.91421 0.08102 0.0
C288 C 0.44385 0.9484 0.07868 0.0
C289 C 0.4686 0.96845 0.10409 0.0
C290 C 0.3887 0.90879 0.22406 0.0
C291 C 0.41625 0.93046 0.15008 0.0
C292 C 0.36282 0.89001 0.24722 0.0
C293 C 0.33683 0.87284 0.22232 0.0
C294 C 0.38892 0.9103 0.1754 0.0
C295 C 0.33799 0.87437 0.17359 0.0
C296 C 0.41775 0.92952 0.10142 0.0
C297 C 0.46615 0.96901 0.15269 0.0
N298 N 0.36366 0.89294 0.15163 0.0
N299 N 0.44043 0.95018 0.17414 0.0
H300 H 0.4609 0.4349 0.63685 0.0
H301 H 0.46573 0.28771 0.67305 0.0
H302 H 0.48745 0.3966 0.5266 0.0
H303 H 0.42208 0.31863 0.76597 0.0
H304 H 0.47278 0.32578 0.61679 0.0
H305 H 0.44636 0.39157 0.68388 0.0
C306 C 0.46364 0.41733 0.62249 0.0
C307 C 0.47552 0.41944 0.57782 0.0
C308 C 0.46128 0.3239 0.64923 0.0
C309 C 0.45894 0.36958 0.63164 0.0
C310 C 0.45715 0.30214 0.68106 0.0
C311 C 0.44364 0.30042 0.72417 0.0
C312 C 0.45189 0.3439 0.66106 0.0
C313 C 0.43296 0.31958 0.73324 0.0
C314 C 0.45519 0.39247 0.64929 0.0
C315 C 0.47838 0.39586 0.56092 0.0
N316 N 0.4376 0.34068 0.70226 0.0
N317 N 0.47037 0.37196 0.58803 0.0
H318 H 0.49936 0.91012 0.52907 0.0
H319 H 0.58426 0.88242 0.31924 0.0
H320 H 0.56218 0.97758 0.43865 0.0
H321 H 0.49789 0.81676 0.36488 0.0
H322 H 0.58465 0.91528 0.38022 0.0
H323 H 0.50692 0.8738 0.48557 0.0
C324 C 0.51525 0.91734 0.50087 0.0
C325 C 0.53009 0.94677 0.48714 0.0
C326 C 0.56581 0.8935 0.37727 0.0
C327 C 0.53894 0.90573 0.43786 0.0
C328 C 0.5655 0.87473 0.34239 0.0
C329 C 0.54073 0.84693 0.33611 0.0
C330 C 0.5413 0.88443 0.40654 0.0
C331 C 0.51746 0.83796 0.36821 0.0
C332 C 0.51939 0.89666 0.47594 0.0
C333 C 0.55018 0.95504 0.45007 0.0
N334 N 0.51815 0.85679 0.4017 0.0
N335 N 0.55397 0.93465 0.42669 0.0
H336 H 0.6203 0.52683 0.93528 0.0
H337 H 0.71599 0.5999 0.70584 0.0
H338 H 0.59569 0.5661 0.82654 0.0
H339 H 0.72459 0.53599 0.78578 0.0
H340 H 0.67901 0.59696 0.76128 0.0
H341 H 0.66477 0.53818 0.89092 0.0
C342 C 0.62434 0.53804 0.90228 0.0
C343 C 0.60414 0.54538 0.88441 0.0
C344 C 0.68931 0.58393 0.76726 0.0
C345 C 0.65506 0.55867 0.83397 0.0
C346 C 0.71058 0.58585 0.73598 0.0
C347 C 0.72334 0.56831 0.74171 0.0
C348 C 0.68061 0.56421 0.80449 0.0
C349 C 0.71537 0.55006 0.78068 0.0
C350 C 0.64969 0.54444 0.87702 0.0
C351 C 0.6105 0.55983 0.84147 0.0
N352 N 0.69426 0.54827 0.81057 0.0
N353 N 0.63539 0.56601 0.81777 0.0
H354 H 0.06027 0.56994 0.48107 0.0
H355 H 0.19241 0.67274 0.31346 0.0
H356 H 0.07513 0.54066 0.34799 0.0
H357 H 0.14517 0.70642 0.3914 0.0
H358 H 0.15858 0.62366 0.34327 0.0
H359 H 0.09899 0.61991 0.46272 0.0
C360 C 0.0716 0.57414 0.44784 0.0
C361 C 0.06441 0.55135 0.41568 0.0
C362 C 0.15615 0.64197 0.35479 0.0
C363 C 0.10922 0.60791 0.39553 0.0
C364 C 0.17574 0.66998 0.33863 0.0
C365 C 0.17167 0.69356 0.35059 0.0
C366 C 0.13268 0.63771 0.38357 0.0
C367 C 0.14918 0.68877 0.38206 0.0
C368 C 0.09368 0.60253 0.4376 0.0
C369 C 0.07979 0.55778 0.37332 0.0
N370 N 0.13032 0.66125 0.39734 0.0
N371 N 0.10176 0.58551 0.3646 0.0
H372 H 0.46266 0.02026 0.90148 0.0
H373 H 0.47554 0.17441 0.92007 0.0
H374 H 0.51518 0.08336 0.00674 0.0
H375 H 0.40103 0.10068 0.85761 0.0
H376 H 0.4877 0.14081 0.95885 0.0
H377 H 0.43852 0.04893 0.88678 0.0
C378 C 0.46912 0.0401 0.92138 0.0
C379 C 0.49113 0.04956 0.95502 0.0
C380 C 0.46805 0.13184 0.93803 0.0
C381 C 0.46355 0.08221 0.93886 0.0
C382 C 0.46083 0.15104 0.9167 0.0
C383 C 0.43721 0.14017 0.88601 0.0
C384 C 0.45192 0.10178 0.92739 0.0
C385 C 0.41927 0.10975 0.88152 0.0
C386 C 0.45512 0.05626 0.91345 0.0
C387 C 0.49841 0.07527 0.98029 0.0
N388 N 0.42749 0.09157 0.90079 0.0
N389 N 0.48489 0.09082 0.97136 0.0
H390 H 0.42788 0.42903 0.35309 0.0
H391 H 0.30773 0.42193 0.24772 0.0
H392 H 0.41872 0.48313 0.45817 0.0
H393 H 0.33888 0.50629 0.3131 0.0
H394 H 0.33709 0.4119 0.30185 0.0
H395 H 0.38553 0.42516 0.31291 0.0
C396 C 0.41658 0.43958 0.36823 0.0
C397 C 0.42692 0.45647 0.40899 0.0
C398 C 0.33741 0.43254 0.30452 0.0
C399 C 0.37817 0.45199 0.36337 0.0
C400 C 0.3204 0.43815 0.27401 0.0
C401 C 0.32133 0.46524 0.27529 0.0
C402 C 0.35559 0.45425 0.33644 0.0
C403 C 0.33759 0.48518 0.31069 0.0
C404 C 0.39217 0.43715 0.34549 0.0
C405 C 0.41147 0.46981 0.4269 0.0
N406 N 0.35442 0.47945 0.33947 0.0
N407 N 0.38822 0.46773 0.40351 0.0
H408 H 0.98045 0.44689 0.91808 0.0
H409 H 0.81606 0.35748 0.8376 0.0
H410 H 0.9118 0.45121 -0.00548 0.0
H411 H 0.88015 0.3325 0.80006 0.0
H412 H 0.84945 0.39048 0.89707 0.0
H413 H 0.94353 0.40407 0.87597 0.0
C414 C 0.95754 0.4385 0.92646 0.0
C415 C 0.94914 0.45263 0.95971 0.0
C416 C 0.85599 0.37744 0.87625 0.0
C417 C 0.9066 0.40393 0.91077 0.0
C418 C 0.83686 0.35843 0.84236 0.0
C419 C 0.84538 0.34239 0.81308 0.0
C420 C 0.88399 0.38072 0.88059 0.0
C421 C 0.87285 0.34493 0.82082 0.0
C422 C 0.93644 0.41403 0.90243 0.0
C423 C 0.91916 0.44084 0.96927 0.0
N424 N 0.89127 0.36402 0.85325 0.0
N425 N 0.8989 0.41745 0.94427 0.0
H426 H 0.9486 0.55771 0.96207 0.0
H427 H 0.92123 0.6273 0.73677 0.0
H428 H 1.0086 0.5915 0.84531 0.0
H429 H 0.85246 0.56521 0.82602 0.0
H430 H 0.95765 0.62934 0.79128 0.0
H431 H 0.91786 0.57407 0.9256 0.0
C432 C 0.95552 0.56881 0.92888 0.0
C433 C 0.98108 0.57281 0.90633 0.0
C434 C 0.93459 0.6161 0.7998 0.0
C435 C 0.94589 0.59191 0.86475 0.0
C436 C 0.91384 0.61539 0.76924 0.0
C437 C 0.88391 0.5962 0.77729 0.0
C438 C 0.92519 0.59759 0.83861 0.0
C439 C 0.87535 0.58051 0.81903 0.0
C440 C 0.93791 0.57821 0.90823 0.0
C441 C 0.98892 0.58761 0.86362 0.0
N442 N 0.89594 0.58115 0.84785 0.0
N443 N 0.97124 0.59645 0.84399 0.0
H444 H 0.41944 0.93327 0.52341 0.0
H445 H 0.30374 0.82778 0.39785 0.0
H446 H 0.42098 0.98501 0.40667 0.0
H447 H 0.28671 0.89637 0.35797 0.0
H448 H 0.34152 0.86171 0.45046 0.0
H449 H 0.36817 0.89809 0.50724 0.0
C450 C 0.409 0.93735 0.49444 0.0
C451 C 0.42477 0.96191 0.46572 0.0
C452 C 0.32867 0.86913 0.43194 0.0
C453 C 0.36597 0.92165 0.44732 0.0
C454 C 0.30664 0.8495 0.40225 0.0
C455 C 0.29276 0.85956 0.37226 0.0
C456 C 0.33671 0.89887 0.4313 0.0
C457 C 0.29751 0.888 0.3797 0.0
C458 C 0.37971 0.91719 0.48532 0.0
C459 C 0.40988 0.96615 0.42916 0.0
N460 N 0.32016 0.90716 0.4067 0.0
N461 N 0.38132 0.94612 0.42088 0.0
H462 H 0.54779 0.4339 0.00919 0.0
H463 H 0.41623 0.28618 0.90511 0.0
H464 H 0.46904 0.42546 0.95035 0.0
H465 H 0.50639 0.31062 0.88136 0.0
H466 H 0.43229 0.32934 0.95532 0.0
H467 H 0.52939 0.3816 -0.00777 0.0
C468 C 0.52644 0.42088 -0.00646 0.0
C469 C 0.50999 0.43388 0.98051 0.0
C470 C 0.44849 0.32458 0.94063 0.0
C471 C 0.48864 0.37448 0.96268 0.0
C472 C 0.43933 0.29976 0.91264 0.0
C473 C 0.46006 0.29491 0.88942 0.0
C474 C 0.47853 0.34443 0.94552 0.0
C475 C 0.48981 0.31359 0.89913 0.0
C476 C 0.51602 0.39121 0.98397 0.0
C477 C 0.48251 0.41625 0.96028 0.0
N478 N 0.49826 0.33791 0.92593 0.0
N479 N 0.47269 0.38744 0.95199 0.0
H480 H 0.11679 0.49496 0.50576 0.0
H481 H 0.15252 0.43056 0.27891 0.0
H482 H 0.05482 0.41719 0.43209 0.0
H483 H 0.21355 0.51341 0.34133 0.0
H484 H 0.12133 0.41867 0.34814 0.0
H485 H 0.15669 0.4951 0.46032 0.0
C486 C 0.11175 0.47723 0.48145 0.0
C487 C 0.08258 0.45611 0.47231 0.0
C488 C 0.14178 0.43926 0.34722 0.0
C489 C 0.12771 0.45646 0.41969 0.0
C490 C 0.15958 0.44601 0.30769 0.0
C491 C 0.18538 0.47316 0.30419 0.0
C492 C 0.14954 0.46002 0.38329 0.0
C493 C 0.19374 0.49226 0.34264 0.0
C494 C 0.13444 0.47749 0.45512 0.0
C495 C 0.07708 0.43393 0.4399 0.0
N496 N 0.17557 0.4856 0.38027 0.0
N497 N 0.09935 0.43492 0.41431 0.0
H498 H 0.61769 0.11646 0.02367 0.0
H499 H 0.71535 0.15295 0.79198 0.0
H500 H 0.62033 0.05214 0.93293 0.0
H501 H 0.6919 0.21295 0.85572 0.0
H502 H 0.6925 0.11966 0.85746 0.0
H503 H 0.65651 0.15541 0.97617 0.0
C504 C 0.62704 0.11057 -0.0054 0.0
C505 C 0.61571 0.08114 0.9818 0.0
C506 C 0.69276 0.14033 0.85749 0.0
C507 C 0.65975 0.12525 0.92764 0.0
C508 C 0.70574 0.15931 0.82008 0.0
C509 C 0.70502 0.18552 0.81786 0.0
C510 C 0.67888 0.14752 0.89304 0.0
C511 C 0.6929 0.19295 0.85587 0.0
C512 C 0.64898 0.13274 0.96736 0.0
C513 C 0.62831 0.07461 0.94361 0.0
N514 N 0.67989 0.17383 0.89159 0.0
N515 N 0.64948 0.09646 0.9177 0.0
H516 H 0.54468 0.59472 0.51787 0.0
H517 H 0.48183 0.66522 0.34327 0.0
H518 H 0.48724 0.54725 0.40403 0.0
H519 H 0.57468 0.7094 0.36881 0.0
H520 H 0.47541 0.62533 0.39409 0.0
H521 H 0.5485 0.64032 0.48797 0.0
C522 C 0.5328 0.59395 0.48684 0.0
C523 C 0.51594 0.56748 0.46284 0.0
C524 C 0.49702 0.64426 0.38971 0.0
C525 C 0.51914 0.6186 0.43027 0.0
C526 C 0.50066 0.66711 0.36128 0.0
C527 C 0.5288 0.69052 0.35208 0.0
C528 C 0.52164 0.64515 0.40952 0.0
C529 C 0.55264 0.69167 0.37535 0.0
C530 C 0.53493 0.61978 0.47003 0.0
C531 C 0.50081 0.56737 0.423 0.0
N532 N 0.54859 0.66905 0.4028 0.0
N533 N 0.50258 0.59253 0.40812 0.0
H534 H 0.45942 0.055 0.55246 0.0
H535 H 0.50804 0.17583 0.75244 0.0
H536 H 0.51575 0.06249 0.66589 0.0
H537 H 0.42398 0.13956 0.68604 0.0
H538 H 0.51925 0.14413 0.70408 0.0
H539 H 0.45258 0.09357 0.58819 0.0
C540 C 0.47013 0.06463 0.58518 0.0
C541 C 0.48794 0.05542 0.60664 0.0
C542 C 0.49865 0.14364 0.69935 0.0
C543 C 0.48105 0.10014 0.64652 0.0
C544 C 0.49246 0.16205 0.72624 0.0
C545 C 0.46491 0.16002 0.7235 0.0
C546 C 0.47735 0.12345 0.66898 0.0
C547 C 0.44546 0.1418 0.68914 0.0
C548 C 0.46634 0.08669 0.60527 0.0
C549 C 0.50149 0.06869 0.6487 0.0
N550 N 0.45186 0.12379 0.66361 0.0
N551 N 0.49797 0.09063 0.66714 0.0
H552 H 0.44882 0.53672 0.94238 0.0
H553 H 0.31323 0.43669 0.10866 0.0
H554 H 0.44087 0.46491 0.02404 0.0
H555 H 0.34568 0.52914 0.09239 0.0
H556 H 0.34903 0.43979 0.05065 0.0
H557 H 0.4009 0.52707 0.97288 0.0
C558 C 0.43667 0.51856 0.96588 0.0
C559 C 0.44877 0.50173 0.98123 0.0
C560 C 0.34775 0.45921 0.05895 0.0
C561 C 0.39419 0.4903 0.01505 0.0
C562 C 0.3273 0.45747 0.09187 0.0
C563 C 0.32698 0.48285 0.10624 0.0
C564 C 0.36777 0.48644 0.03985 0.0
C565 C 0.34531 0.50907 0.08263 0.0
C566 C 0.4095 0.51315 0.98325 0.0
C567 C 0.43237 0.47857 0.01185 0.0
N568 N 0.36541 0.51034 0.05114 0.0
N569 N 0.40592 0.47355 0.02782 0.0
H570 H 0.97069 0.37467 0.51065 0.0
H571 H 0.81239 0.32903 0.60504 0.0
H572 H 0.91369 0.40008 0.44532 0.0
H573 H 0.87198 0.30676 0.67004 0.0
H574 H 0.84328 0.34377 0.53492 0.0
H575 H 0.92914 0.33769 0.55509 0.0
C576 C 0.9491 0.3716 0.50436 0.0
C577 C 0.94554 0.39047 0.47461 0.0
C578 C 0.84929 0.3351 0.56415 0.0
C579 C 0.89813 0.34928 0.52704 0.0
C580 C 0.8316 0.32658 0.60414 0.0
C581 C 0.83995 0.31717 0.64371 0.0
C582 C 0.87551 0.33423 0.56383 0.0
C583 C 0.8651 0.31452 0.64067 0.0
C584 C 0.9254 0.35072 0.53013 0.0
C585 C 0.91724 0.38583 0.46787 0.0
N586 N 0.88217 0.32338 0.60174 0.0
N587 N 0.89468 0.36619 0.49492 0.0
H588 H 0.5948 0.97693 0.04361 0.0
H589 H 0.59445 0.87124 0.17792 0.0
H590 H 0.51458 0.90998 0.98247 0.0
H591 H 0.50405 0.8195 0.13778 0.0
H592 H 0.60339 0.90314 0.1115 0.0
H593 H 0.60015 0.93974 0.08344 0.0
C594 C 0.57882 0.95414 0.0373 0.0
C595 C 0.55414 0.9465 0.01001 0.0
C596 C 0.58149 0.88502 0.11701 0.0
C597 C 0.55977 0.90314 0.05619 0.0
C598 C 0.57655 0.86656 0.15468 0.0
C599 C 0.54841 0.84309 0.1636 0.0
C600 C 0.55782 0.88057 0.08901 0.0
C601 C 0.52604 0.83755 0.13216 0.0
C602 C 0.58186 0.93265 0.06012 0.0
C603 C 0.534 0.91673 0.00313 0.0
N604 N 0.53109 0.8565 0.09678 0.0
N605 N 0.53688 0.89613 0.02704 0.0
H606 H 0.60023 0.54859 0.49321 0.0
H607 H 0.69804 0.49544 0.59654 0.0
H608 H 0.58344 0.46218 0.45626 0.0
H609 H 0.73531 0.58485 0.55205 0.0
H610 H 0.65706 0.48135 0.54303 0.0
H611 H 0.65041 0.56227 0.51382 0.0
C612 C 0.60737 0.53268 0.48874 0.0
C613 C 0.58787 0.50428 0.47313 0.0
C614 C 0.67474 0.50386 0.54371 0.0
C615 C 0.64482 0.51943 0.49776 0.0
C616 C 0.69816 0.51183 0.57396 0.0
C617 C 0.72004 0.54127 0.57828 0.0
C618 C 0.67283 0.5257 0.51904 0.0
C619 C 0.71896 0.56189 0.54923 0.0
C620 C 0.63599 0.5405 0.50025 0.0
C621 C 0.59802 0.48436 0.46801 0.0
N622 N 0.69529 0.55387 0.52172 0.0
N623 N 0.62568 0.49208 0.48142 0.0
H624 H 0.02633 0.59693 0.134 0.0
H625 H 0.18748 0.72519 0.15593 0.0
H626 H 0.08842 0.6227 0.02005 0.0
H627 H 0.11808 0.72212 0.24135 0.0
H628 H 0.15106 0.69119 0.10151 0.0
H629 H 0.05875 0.64386 0.17262 0.0
C630 C 0.04663 0.61245 0.11702 0.0
C631 C 0.05479 0.60567 0.07402 0.0
C632 C 0.14377 0.69848 0.13157 0.0
C633 C 0.09182 0.65928 0.11773 0.0
C634 C 0.16468 0.71835 0.16243 0.0
C635 C 0.15585 0.72598 0.20408 0.0
C636 C 0.11387 0.68578 0.14285 0.0
C637 C 0.12582 0.71613 0.21034 0.0
C638 C 0.06498 0.63932 0.13883 0.0
C639 C 0.08125 0.62678 0.05337 0.0
N640 N 0.10581 0.69575 0.18095 0.0
N641 N 0.09893 0.65238 0.07565 0.0
loop_
_geom_bond_atom_site_label_1
_geom_bond_atom_site_label_2
_geom_bond_distance
_geom_bond_site_symmetry_2
_ccdc_geom_bond_type
C0 O2 1.247 . S
C0 O4 1.258 . S
C1 O8 1.247 . S
C1 O9 1.258 1_556 S
O2 C0 1.247 . S
O2 Zn3 2.028 1_455 S
Zn3 O2 2.028 1_655 S
Zn3 O7 2.035 . S
Zn3 O9 2.035 . S
Zn3 O10 2.028 1_655 S
O4 C0 1.258 . S
O4 Zn5 2.035 1_554 S
Zn5 O4 2.035 1_556 S
Zn5 O6 2.028 1_455 S
Zn5 O8 2.028 1_455 S
Zn5 O11 2.035 1_556 S
O6 Zn5 2.028 1_655 S
O6 C12 1.247 . S
O7 Zn3 2.035 . S
O7 C12 1.258 1_554 S
O8 C1 1.247 . S
O8 Zn5 2.028 1_655 S
O9 C1 1.258 1_554 S
O9 Zn3 2.035 . S
O10 Zn3 2.028 1_455 S
O10 C13 1.247 . S
O11 Zn5 2.035 1_554 S
O11 C13 1.258 . S
C12 O6 1.247 . S
C12 O7 1.258 1_556 S
C13 O10 1.247 . S
C13 O11 1.258 . S
C14 O16 1.247 . S
C14 O18 1.258 . S
C15 O22 1.247 . S
C15 O23 1.258 . S
O16 C14 1.247 . S
O16 Zn17 2.028 1_545 S
Zn17 O16 2.028 1_565 S
Zn17 O21 2.035 . S
Zn17 O23 2.035 . S
Zn17 O24 2.028 1_565 S
O18 C14 1.258 . S
O18 Zn19 2.035 . S
Zn19 O18 2.035 . S
Zn19 O20 2.028 1_545 S
Zn19 O22 2.028 1_545 S
Zn19 O25 2.035 . S
O20 Zn19 2.028 1_565 S
O20 C26 1.247 . S
O21 Zn17 2.035 . S
O21 C26 1.258 . S
O22 C15 1.247 . S
O22 Zn19 2.028 1_565 S
O23 C15 1.258 . S
O23 Zn17 2.035 . S
O24 Zn17 2.028 1_545 S
O24 C27 1.247 . S
O25 Zn19 2.035 . S
O25 C27 1.258 . S
C26 O20 1.247 . S
C26 O21 1.258 . S
C27 O24 1.247 . S
C27 O25 1.258 . S
C28 O30 1.247 . S
C28 O32 1.258 1_556 S
C29 O36 1.247 . S
C29 O37 1.258 . S
O30 C28 1.247 . S
O30 Zn31 2.028 . S
Zn31 O30 2.028 . S
Zn31 O35 2.035 1_556 S
Zn31 O37 2.035 1_556 S
Zn31 O38 2.028 . S
O32 C28 1.258 1_554 S
O32 Zn33 2.035 . S
Zn33 O32 2.035 . S
Zn33 O34 2.028 . S
Zn33 O36 2.028 . S
Zn33 O39 2.035 . S
O34 Zn33 2.028 . S
O34 C40 1.247 . S
O35 Zn31 2.035 1_554 S
O35 C40 1.258 . S
O36 C29 1.247 . S
O36 Zn33 2.028 . S
O37 C29 1.258 . S
O37 Zn31 2.035 1_554 S
O38 Zn31 2.028 . S
O38 C41 1.247 . S
O39 Zn33 2.035 . S
O39 C41 1.258 1_554 S
C40 O34 1.247 . S
C40 O35 1.258 . S
C41 O38 1.247 . S
C41 O39 1.258 1_556 S
C42 O44 1.247 . S
C42 O46 1.258 . S
C43 O50 1.247 . S
C43 O51 1.258 . S
O44 C42 1.247 . S
O44 Zn45 2.028 . S
Zn45 O44 2.028 . S
Zn45 O49 2.035 1_455 S
Zn45 O51 2.035 1_455 S
Zn45 O52 2.028 . S
O46 C42 1.258 . S
O46 Zn47 2.035 1_455 S
Zn47 O46 2.035 1_655 S
Zn47 O48 2.028 . S
Zn47 O50 2.028 . S
Zn47 O53 2.035 1_655 S
O48 Zn47 2.028 . S
O48 C54 1.247 . S
O49 Zn45 2.035 1_655 S
O49 C54 1.258 . S
O50 C43 1.247 . S
O50 Zn47 2.028 . S
O51 C43 1.258 . S
O51 Zn45 2.035 1_655 S
O52 Zn45 2.028 . S
O52 C55 1.247 . S
O53 Zn47 2.035 1_455 S
O53 C55 1.258 . S
C54 O48 1.247 . S
C54 O49 1.258 . S
C55 O52 1.247 . S
C55 O53 1.258 . S
C56 O58 1.247 . S
C56 O60 1.267 . S
C57 O64 1.247 . S
C57 O65 1.258 1_556 S
O58 C56 1.247 . S
O58 Zn59 2.028 1_565 S
Zn59 O58 2.028 1_545 S
Zn59 O63 2.035 . S
Zn59 O65 2.035 . S
Zn59 O66 2.028 1_545 S
O60 C56 1.267 . S
O60 Zn61 2.030 1_554 S
Zn61 O60 2.030 1_556 S
Zn61 O62 2.028 1_565 S
Zn61 O64 2.028 1_565 S
Zn61 O67 2.027 1_556 S
O62 Zn61 2.028 1_545 S
O62 C68 1.247 . S
O63 Zn59 2.035 . S
O63 C68 1.258 1_554 S
O64 C57 1.247 . S
O64 Zn61 2.028 1_545 S
O65 C57 1.258 1_554 S
O65 Zn59 2.035 . S
O66 Zn59 2.028 1_565 S
O66 C69 1.247 . S
O67 Zn61 2.027 1_554 S
O67 C69 1.271 . S
C68 O62 1.247 . S
C68 O63 1.258 1_556 S
C69 O66 1.247 . S
C69 O67 1.271 . S
C70 O72 1.247 . S
C70 O74 1.258 . S
C71 O78 1.247 . S
C71 O79 1.258 . S
O72 C70 1.247 . S
O72 Zn73 2.028 . S
Zn73 O72 2.028 . S
Zn73 O77 2.035 . S
Zn73 O79 2.035 . S
Zn73 O80 2.028 . S
O74 C70 1.258 . S
O74 Zn75 2.035 . S
Zn75 O74 2.035 . S
Zn75 O76 2.028 . S
Zn75 O78 2.028 . S
Zn75 O81 2.035 . S
O76 Zn75 2.028 . S
O76 C82 1.247 . S
O77 Zn73 2.035 . S
O77 C82 1.258 . S
O78 C71 1.247 . S
O78 Zn75 2.028 . S
O79 C71 1.258 . S
O79 Zn73 2.035 . S
O80 Zn73 2.028 . S
O80 C83 1.247 . S
O81 Zn75 2.035 . S
O81 C83 1.258 . S
C82 O76 1.247 . S
C82 O77 1.258 . S
C83 O80 1.247 . S
C83 O81 1.258 . S
H84 C92 0.930 . S
H85 C95 0.930 . S
H86 C97 0.930 . S
H87 C98 0.970 . S
H88 C98 0.970 . S
H89 C100 0.930 . S
H90 C102 0.930 . S
H91 C104 0.930 . S
C92 H84 0.930 . S
C92 C93 1.382 . S
C92 C94 1.426 . S
C93 C92 1.382 . S
C93 C97 1.389 . S
C94 C92 1.426 . S
C94 C95 1.375 . S
C94 C98 1.532 . S
C95 H85 0.930 . S
C95 C94 1.375 . S
C95 C96 1.416 . S
C96 C95 1.416 . S
C96 C97 1.371 . S
C97 H86 0.930 . S
C97 C93 1.389 . S
C97 C96 1.371 . S
C98 H87 0.970 . S
C98 H88 0.970 . S
C98 C94 1.532 . S
C98 C99 1.499 . S
C99 C98 1.499 . S
C99 C100 1.370 . S
C99 C104 1.415 . S
C100 H89 0.930 . S
C100 C99 1.370 . S
C100 C101 1.407 . S
C101 C100 1.407 . S
C101 C102 1.365 . S
C102 H90 0.930 . S
C102 C101 1.365 . S
C102 C103 1.393 . S
C103 C102 1.393 . S
C103 C104 1.387 . S
C104 H91 0.930 . S
C104 C99 1.415 . S
C104 C103 1.387 . S
H105 C113 0.930 . S
H106 C116 0.930 . S
H107 C118 0.930 . S
H108 C119 0.970 . S
H109 C119 0.970 . S
H110 C121 0.930 . S
H111 C123 0.930 . S
H112 C125 0.930 . S
C113 H105 0.930 . S
C113 C114 1.382 . S
C113 C115 1.426 . S
C114 C113 1.382 . S
C114 C118 1.389 . S
C115 C113 1.426 . S
C115 C116 1.375 . S
C115 C119 1.532 . S
C116 H106 0.930 . S
C116 C115 1.375 . S
C116 C117 1.416 . S
C117 C116 1.416 . S
C117 C118 1.371 . S
C118 H107 0.930 . S
C118 C114 1.389 . S
C118 C117 1.371 . S
C119 H108 0.970 . S
C119 H109 0.970 . S
C119 C115 1.532 . S
C119 C120 1.499 . S
C120 C119 1.499 . S
C120 C121 1.370 . S
C120 C125 1.415 . S
C121 H110 0.930 . S
C121 C120 1.370 . S
C121 C122 1.407 . S
C122 C121 1.407 . S
C122 C123 1.365 . S
C123 H111 0.930 . S
C123 C122 1.365 . S
C123 C124 1.393 . S
C124 C123 1.393 . S
C124 C125 1.387 . S
C125 H112 0.930 . S
C125 C120 1.415 . S
C125 C124 1.387 . S
H126 C134 0.930 . S
H127 C137 0.930 . S
H128 C139 0.930 . S
H129 C140 0.970 . S
H130 C140 0.970 . S
H131 C142 0.930 . S
H132 C144 0.930 . S
H133 C146 0.930 . S
C134 H126 0.930 . S
C134 C135 1.382 . S
C134 C136 1.426 . S
C135 C134 1.382 . S
C135 C139 1.389 . S
C136 C134 1.426 . S
C136 C137 1.375 . S
C136 C140 1.532 . S
C137 H127 0.930 . S
C137 C136 1.375 . S
C137 C138 1.416 . S
C138 C137 1.416 . S
C138 C139 1.371 . S
C139 H128 0.930 . S
C139 C135 1.389 . S
C139 C138 1.371 . S
C140 H129 0.970 . S
C140 H130 0.970 . S
C140 C136 1.532 . S
C140 C141 1.499 . S
C141 C140 1.499 . S
C141 C142 1.370 . S
C141 C146 1.415 . S
C142 H131 0.930 . S
C142 C141 1.370 . S
C142 C143 1.407 . S
C143 C142 1.407 . S
C143 C144 1.365 . S
C144 H132 0.930 . S
C144 C143 1.365 . S
C144 C145 1.393 . S
C145 C144 1.393 . S
C145 C146 1.387 . S
C146 H133 0.930 . S
C146 C141 1.415 . S
C146 C145 1.387 . S
H147 C155 0.930 . S
H148 C158 0.930 . S
H149 C160 0.930 . S
H150 C161 0.970 . S
H151 C161 0.970 . S
H152 C163 0.930 . S
H153 C165 0.930 . S
H154 C167 0.930 . S
C155 H147 0.930 . S
C155 C156 1.382 . S
C155 C157 1.426 . S
C156 C155 1.382 . S
C156 C160 1.389 . S
C157 C155 1.426 . S
C157 C158 1.375 . S
C157 C161 1.532 . S
C158 H148 0.930 . S
C158 C157 1.375 . S
C158 C159 1.416 . S
C159 C158 1.416 . S
C159 C160 1.371 . S
C160 H149 0.930 . S
C160 C156 1.389 . S
C160 C159 1.371 . S
C161 H150 0.970 . S
C161 H151 0.970 . S
C161 C157 1.532 . S
C161 C162 1.499 . S
C162 C161 1.499 . S
C162 C163 1.370 . S
C162 C167 1.415 . S
C163 H152 0.930 . S
C163 C162 1.370 . S
C163 C164 1.407 . S
C164 C163 1.407 . S
C164 C165 1.365 . S
C165 H153 0.930 . S
C165 C164 1.365 . S
C165 C166 1.393 . S
C166 C165 1.393 . S
C166 C167 1.387 . S
C167 H154 0.930 . S
C167 C162 1.415 . S
C167 C166 1.387 . S
H168 C176 0.930 . S
H169 C179 0.930 . S
H170 C181 0.930 . S
H171 C182 0.970 . S
H172 C182 0.970 . S
H173 C184 0.930 . S
H174 C186 0.930 . S
H175 C188 0.930 . S
C176 H168 0.930 . S
C176 C177 1.382 . S
C176 C178 1.426 . S
C177 C176 1.382 . S
C177 C181 1.389 . S
C178 C176 1.426 . S
C178 C179 1.375 . S
C178 C182 1.532 . S
C179 H169 0.930 . S
C179 C178 1.375 . S
C179 C180 1.416 . S
C180 C179 1.416 . S
C180 C181 1.371 . S
C181 H170 0.930 . S
C181 C177 1.389 . S
C181 C180 1.371 . S
C182 H171 0.970 . S
C182 H172 0.970 . S
C182 C178 1.532 . S
C182 C183 1.499 . S
C183 C182 1.499 . S
C183 C184 1.370 . S
C183 C188 1.415 . S
C184 H173 0.930 . S
C184 C183 1.370 . S
C184 C185 1.407 . S
C185 C184 1.407 . S
C185 C186 1.365 . S
C186 H174 0.930 . S
C186 C185 1.365 . S
C186 C187 1.393 . S
C187 C186 1.393 . S
C187 C188 1.387 . S
C188 H175 0.930 . S
C188 C183 1.415 . S
C188 C187 1.387 . S
H189 C197 0.930 . S
H190 C200 0.930 . S
H191 C202 0.930 . S
H192 C203 0.970 . S
H193 C203 0.970 . S
H194 C205 0.930 . S
H195 C207 0.930 . S
H196 C209 0.930 . S
C197 H189 0.930 . S
C197 C198 1.382 . S
C197 C199 1.426 . S
C198 C197 1.382 . S
C198 C202 1.389 . S
C199 C197 1.426 . S
C199 C200 1.375 . S
C199 C203 1.532 . S
C200 H190 0.930 . S
C200 C199 1.375 . S
C200 C201 1.416 . S
C201 C200 1.416 . S
C201 C202 1.371 . S
C202 H191 0.930 . S
C202 C198 1.389 . S
C202 C201 1.371 . S
C203 H192 0.970 . S
C203 H193 0.970 . S
C203 C199 1.532 . S
C203 C204 1.499 . S
C204 C203 1.499 . S
C204 C205 1.370 . S
C204 C209 1.415 . S
C205 H194 0.930 . S
C205 C204 1.370 . S
C205 C206 1.407 . S
C206 C205 1.407 . S
C206 C207 1.365 . S
C207 H195 0.930 . S
C207 C206 1.365 . S
C207 C208 1.393 . S
C208 C207 1.393 . S
C208 C209 1.387 . S
C209 H196 0.930 . S
C209 C204 1.415 . S
C209 C208 1.387 . S
H210 C216 0.930 . S
H211 C220 0.930 . S
H212 C225 0.929 . S
H213 C223 0.929 . S
H214 C218 0.929 . S
H215 C224 0.929 . S
C216 H210 0.930 . S
C216 C217 1.367 . S
C216 C224 1.378 . S
C217 C216 1.367 . S
C217 C225 1.433 . S
C218 H214 0.929 . S
C218 C220 1.378 . S
C218 C222 1.350 . S
C219 C222 1.463 . S
C219 C224 1.350 . S
C219 N227 1.427 . S
C220 H211 0.930 . S
C220 C218 1.378 . S
C220 C221 1.367 . S
C221 C220 1.367 . S
C221 C223 1.433 . S
C222 C218 1.350 . S
C222 C219 1.463 . S
C222 N226 1.427 . S
C223 H213 0.929 . S
C223 C221 1.433 . S
C223 N226 1.384 . S
C224 H215 0.929 . S
C224 C216 1.378 . S
C224 C219 1.350 . S
C225 H212 0.929 . S
C225 C217 1.433 . S
C225 N227 1.384 . S
N226 C222 1.427 . S
N226 C223 1.384 . S
N227 C219 1.427 . S
N227 C225 1.384 . S
H228 C234 0.930 . S
H229 C238 0.930 . S
H230 C243 0.929 . S
H231 C241 0.929 . S
H232 C236 0.929 . S
H233 C242 0.929 . S
C234 H228 0.930 . S
C234 C235 1.367 . S
C234 C242 1.378 . S
C235 C234 1.367 . S
C235 C243 1.433 . S
C236 H232 0.929 . S
C236 C238 1.378 . S
C236 C240 1.350 . S
C237 C240 1.463 . S
C237 C242 1.350 . S
C237 N245 1.427 . S
C238 H229 0.930 . S
C238 C236 1.378 . S
C238 C239 1.367 . S
C239 C238 1.367 . S
C239 C241 1.433 . S
C240 C236 1.350 . S
C240 C237 1.463 . S
C240 N244 1.427 . S
C241 H231 0.929 . S
C241 C239 1.433 . S
C241 N244 1.384 . S
C242 H233 0.929 . S
C242 C234 1.378 . S
C242 C237 1.350 . S
C243 H230 0.929 . S
C243 C235 1.433 . S
C243 N245 1.384 . S
N244 C240 1.427 . S
N244 C241 1.384 . S
N245 C237 1.427 . S
N245 C243 1.384 . S
H246 C252 0.930 . S
H247 C256 0.930 . S
H248 C261 0.929 . S
H249 C259 0.929 . S
H250 C254 0.929 . S
H251 C260 0.929 . S
C252 H246 0.930 . S
C252 C253 1.367 . S
C252 C260 1.378 . S
C253 C252 1.367 . S
C253 C261 1.433 . S
C254 H250 0.929 . S
C254 C256 1.378 . S
C254 C258 1.350 . S
C255 C258 1.463 . S
C255 C260 1.350 . S
C255 N263 1.427 . S
C256 H247 0.930 . S
C256 C254 1.378 . S
C256 C257 1.367 . S
C257 C256 1.367 . S
C257 C259 1.433 . S
C258 C254 1.350 . S
C258 C255 1.463 . S
C258 N262 1.427 . S
C259 H249 0.929 . S
C259 C257 1.433 . S
C259 N262 1.384 . S
C260 H251 0.929 . S
C260 C252 1.378 . S
C260 C255 1.350 . S
C261 H248 0.929 . S
C261 C253 1.433 . S
C261 N263 1.384 . S
N262 C258 1.427 . S
N262 C259 1.384 . S
N263 C255 1.427 . S
N263 C261 1.384 . S
H264 C270 0.930 . S
H265 C274 0.930 . S
H266 C279 0.929 . S
H267 C277 0.929 . S
H268 C272 0.929 . S
H269 C278 0.929 . S
C270 H264 0.930 . S
C270 C271 1.367 . S
C270 C278 1.378 . S
C271 C270 1.367 . S
C271 C279 1.433 . S
C272 H268 0.929 . S
C272 C274 1.378 . S
C272 C276 1.350 . S
C273 C276 1.463 . S
C273 C278 1.350 . S
C273 N281 1.427 . S
C274 H265 0.930 . S
C274 C272 1.378 . S
C274 C275 1.367 . S
C275 C274 1.367 . S
C275 C277 1.433 . S
C276 C272 1.350 . S
C276 C273 1.463 . S
C276 N280 1.427 . S
C277 H267 0.929 . S
C277 C275 1.433 . S
C277 N280 1.384 . S
C278 H269 0.929 . S
C278 C270 1.378 . S
C278 C273 1.350 . S
C279 H266 0.929 . S
C279 C271 1.433 . S
C279 N281 1.384 . S
N280 C276 1.427 . S
N280 C277 1.384 . S
N281 C273 1.427 . S
N281 C279 1.384 . S
H282 C288 0.930 . S
H283 C292 0.930 . S
H284 C297 0.929 . S
H285 C295 0.929 . S
H286 C290 0.929 . S
H287 C296 0.929 . S
C288 H282 0.930 . S
C288 C289 1.367 . S
C288 C296 1.378 . S
C289 C288 1.367 . S
C289 C297 1.433 . S
C290 H286 0.929 . S
C290 C292 1.378 . S
C290 C294 1.350 . S
C291 C294 1.463 . S
C291 C296 1.350 . S
C291 N299 1.427 . S
C292 H283 0.930 . S
C292 C290 1.378 . S
C292 C293 1.367 . S
C293 C292 1.367 . S
C293 C295 1.433 . S
C294 C290 1.350 . S
C294 C291 1.463 . S
C294 N298 1.427 . S
C295 H285 0.929 . S
C295 C293 1.433 . S
C295 N298 1.384 . S
C296 H287 0.929 . S
C296 C288 1.378 . S
C296 C291 1.350 . S
C297 H284 0.929 . S
C297 C289 1.433 . S
C297 N299 1.384 . S
N298 C294 1.427 . S
N298 C295 1.384 . S
N299 C291 1.427 . S
N299 C297 1.384 . S
H300 C306 0.930 . S
H301 C310 0.930 . S
H302 C315 0.929 . S
H303 C313 0.929 . S
H304 C308 0.929 . S
H305 C314 0.929 . S
C306 H300 0.930 . S
C306 C307 1.367 . S
C306 C314 1.378 . S
C307 C306 1.367 . S
C307 C315 1.433 . S
C308 H304 0.929 . S
C308 C310 1.378 . S
C308 C312 1.350 . S
C309 C312 1.463 . S
C309 C314 1.350 . S
C309 N317 1.427 . S
C310 H301 0.930 . S
C310 C308 1.378 . S
C310 C311 1.367 . S
C311 C310 1.367 . S
C311 C313 1.433 . S
C312 C308 1.350 . S
C312 C309 1.463 . S
C312 N316 1.427 . S
C313 H303 0.929 . S
C313 C311 1.433 . S
C313 N316 1.384 . S
C314 H305 0.929 . S
C314 C306 1.378 . S
C314 C309 1.350 . S
C315 H302 0.929 . S
C315 C307 1.433 . S
C315 N317 1.384 . S
N316 C312 1.427 . S
N316 C313 1.384 . S
N317 C309 1.427 . S
N317 C315 1.384 . S
H318 C324 0.930 . S
H319 C328 0.930 . S
H320 C333 0.929 . S
H321 C331 0.929 . S
H322 C326 0.929 . S
H323 C332 0.929 . S
C324 H318 0.930 . S
C324 C325 1.367 . S
C324 C332 1.378 . S
C325 C324 1.367 . S
C325 C333 1.433 . S
C326 H322 0.929 . S
C326 C328 1.378 . S
C326 C330 1.350 . S
C327 C330 1.463 . S
C327 C332 1.350 . S
C327 N335 1.427 . S
C328 H319 0.930 . S
C328 C326 1.378 . S
C328 C329 1.367 . S
C329 C328 1.367 . S
C329 C331 1.433 . S
C330 C326 1.350 . S
C330 C327 1.463 . S
C330 N334 1.427 . S
C331 H321 0.929 . S
C331 C329 1.433 . S
C331 N334 1.384 . S
C332 H323 0.929 . S
C332 C324 1.378 . S
C332 C327 1.350 . S
C333 H320 0.929 . S
C333 C325 1.433 . S
C333 N335 1.384 . S
N334 C330 1.427 . S
N334 C331 1.384 . S
N335 C327 1.427 . S
N335 C333 1.384 . S
H336 C342 0.930 . S
H337 C346 0.930 . S
H338 C351 0.929 . S
H339 C349 0.929 . S
H340 C344 0.929 . S
H341 C350 0.929 . S
C342 H336 0.930 . S
C342 C343 1.367 . S
C342 C350 1.378 . S
C343 C342 1.367 . S
C343 C351 1.433 . S
C344 H340 0.929 . S
C344 C346 1.378 . S
C344 C348 1.350 . S
C345 C348 1.463 . S
C345 C350 1.350 . S
C345 N353 1.427 . S
C346 H337 0.930 . S
C346 C344 1.378 . S
C346 C347 1.367 . S
C347 C346 1.367 . S
C347 C349 1.433 . S
C348 C344 1.350 . S
C348 C345 1.463 . S
C348 N352 1.427 . S
C349 H339 0.929 . S
C349 C347 1.433 . S
C349 N352 1.384 . S
C350 H341 0.929 . S
C350 C342 1.378 . S
C350 C345 1.350 . S
C351 H338 0.929 . S
C351 C343 1.433 . S
C351 N353 1.384 . S
N352 C348 1.427 . S
N352 C349 1.384 . S
N353 C345 1.427 . S
N353 C351 1.384 . S
H354 C360 0.930 . S
H355 C364 0.930 . S
H356 C369 0.929 . S
H357 C367 0.929 . S
H358 C362 0.929 . S
H359 C368 0.929 . S
C360 H354 0.930 . S
C360 C361 1.367 . S
C360 C368 1.378 . S
C361 C360 1.367 . S
C361 C369 1.433 . S
C362 H358 0.929 . S
C362 C364 1.378 . S
C362 C366 1.350 . S
C363 C366 1.463 . S
C363 C368 1.350 . S
C363 N371 1.427 . S
C364 H355 0.930 . S
C364 C362 1.378 . S
C364 C365 1.367 . S
C365 C364 1.367 . S
C365 C367 1.433 . S
C366 C362 1.350 . S
C366 C363 1.463 . S
C366 N370 1.427 . S
C367 H357 0.929 . S
C367 C365 1.433 . S
C367 N370 1.384 . S
C368 H359 0.929 . S
C368 C360 1.378 . S
C368 C363 1.350 . S
C369 H356 0.929 . S
C369 C361 1.433 . S
C369 N371 1.384 . S
N370 C366 1.427 . S
N370 C367 1.384 . S
N371 C363 1.427 . S
N371 C369 1.384 . S
H372 C378 0.930 . S
H373 C382 0.930 . S
H374 C387 0.929 . S
H375 C385 0.929 . S
H376 C380 0.929 . S
H377 C386 0.929 . S
C378 H372 0.930 . S
C378 C379 1.367 . S
C378 C386 1.378 . S
C379 C378 1.367 . S
C379 C387 1.433 . S
C380 H376 0.929 . S
C380 C382 1.378 . S
C380 C384 1.350 . S
C381 C384 1.463 . S
C381 C386 1.350 . S
C381 N389 1.427 . S
C382 H373 0.930 . S
C382 C380 1.378 . S
C382 C383 1.367 . S
C383 C382 1.367 . S
C383 C385 1.433 . S
C384 C380 1.350 . S
C384 C381 1.463 . S
C384 N388 1.427 . S
C385 H375 0.929 . S
C385 C383 1.433 . S
C385 N388 1.384 . S
C386 H377 0.929 . S
C386 C378 1.378 . S
C386 C381 1.350 . S
C387 H374 0.929 . S
C387 C379 1.433 . S
C387 N389 1.384 . S
N388 C384 1.427 . S
N388 C385 1.384 . S
N389 C381 1.427 . S
N389 C387 1.384 . S
H390 C396 0.930 . S
H391 C400 0.930 . S
H392 C405 0.929 . S
H393 C403 0.929 . S
H394 C398 0.929 . S
H395 C404 0.929 . S
C396 H390 0.930 . S
C396 C397 1.367 . S
C396 C404 1.378 . S
C397 C396 1.367 . S
C397 C405 1.433 . S
C398 H394 0.929 . S
C398 C400 1.378 . S
C398 C402 1.350 . S
C399 C402 1.463 . S
C399 C404 1.350 . S
C399 N407 1.427 . S
C400 H391 0.930 . S
C400 C398 1.378 . S
C400 C401 1.367 . S
C401 C400 1.367 . S
C401 C403 1.433 . S
C402 C398 1.350 . S
C402 C399 1.463 . S
C402 N406 1.427 . S
C403 H393 0.929 . S
C403 C401 1.433 . S
C403 N406 1.384 . S
C404 H395 0.929 . S
C404 C396 1.378 . S
C404 C399 1.350 . S
C405 H392 0.929 . S
C405 C397 1.433 . S
C405 N407 1.384 . S
N406 C402 1.427 . S
N406 C403 1.384 . S
N407 C399 1.427 . S
N407 C405 1.384 . S
H408 C414 0.930 . S
H409 C418 0.930 . S
H410 C423 0.929 . S
H411 C421 0.929 . S
H412 C416 0.929 . S
H413 C422 0.929 . S
C414 H408 0.930 . S
C414 C415 1.367 . S
C414 C422 1.378 . S
C415 C414 1.367 . S
C415 C423 1.433 . S
C416 H412 0.929 . S
C416 C418 1.378 . S
C416 C420 1.350 . S
C417 C420 1.463 . S
C417 C422 1.350 . S
C417 N425 1.427 . S
C418 H409 0.930 . S
C418 C416 1.378 . S
C418 C419 1.367 . S
C419 C418 1.367 . S
C419 C421 1.433 . S
C420 C416 1.350 . S
C420 C417 1.463 . S
C420 N424 1.427 . S
C421 H411 0.929 . S
C421 C419 1.433 . S
C421 N424 1.384 . S
C422 H413 0.929 . S
C422 C414 1.378 . S
C422 C417 1.350 . S
C423 H410 0.929 . S
C423 C415 1.433 . S
C423 N425 1.384 . S
N424 C420 1.427 . S
N424 C421 1.384 . S
N425 C417 1.427 . S
N425 C423 1.384 . S
H426 C432 0.930 . S
H427 C436 0.930 . S
H428 C441 0.929 . S
H429 C439 0.929 . S
H430 C434 0.929 . S
H431 C440 0.929 . S
C432 H426 0.930 . S
C432 C433 1.367 . S
C432 C440 1.378 . S
C433 C432 1.367 . S
C433 C441 1.433 . S
C434 H430 0.929 . S
C434 C436 1.378 . S
C434 C438 1.350 . S
C435 C438 1.463 . S
C435 C440 1.350 . S
C435 N443 1.427 . S
C436 H427 0.930 . S
C436 C434 1.378 . S
C436 C437 1.367 . S
C437 C436 1.367 . S
C437 C439 1.433 . S
C438 C434 1.350 . S
C438 C435 1.463 . S
C438 N442 1.427 . S
C439 H429 0.929 . S
C439 C437 1.433 . S
C439 N442 1.384 . S
C440 H431 0.929 . S
C440 C432 1.378 . S
C440 C435 1.350 . S
C441 H428 0.929 . S
C441 C433 1.433 . S
C441 N443 1.384 . S
N442 C438 1.427 . S
N442 C439 1.384 . S
N443 C435 1.427 . S
N443 C441 1.384 . S
H444 C450 0.930 . S
H445 C454 0.930 . S
H446 C459 0.929 . S
H447 C457 0.929 . S
H448 C452 0.929 . S
H449 C458 0.929 . S
C450 H444 0.930 . S
C450 C451 1.367 . S
C450 C458 1.378 . S
C451 C450 1.367 . S
C451 C459 1.433 . S
C452 H448 0.929 . S
C452 C454 1.378 . S
C452 C456 1.350 . S
C453 C456 1.463 . S
C453 C458 1.350 . S
C453 N461 1.427 . S
C454 H445 0.930 . S
C454 C452 1.378 . S
C454 C455 1.367 . S
C455 C454 1.367 . S
C455 C457 1.433 . S
C456 C452 1.350 . S
C456 C453 1.463 . S
C456 N460 1.427 . S
C457 H447 0.929 . S
C457 C455 1.433 . S
C457 N460 1.384 . S
C458 H449 0.929 . S
C458 C450 1.378 . S
C458 C453 1.350 . S
C459 H446 0.929 . S
C459 C451 1.433 . S
C459 N461 1.384 . S
N460 C456 1.427 . S
N460 C457 1.384 . S
N461 C453 1.427 . S
N461 C459 1.384 . S
H462 C468 0.930 . S
H463 C472 0.930 . S
H464 C477 0.929 . S
H465 C475 0.929 . S
H466 C470 0.929 . S
H467 C476 0.929 . S
C468 H462 0.930 . S
C468 C469 1.367 . S
C468 C476 1.378 . S
C469 C468 1.367 . S
C469 C477 1.433 . S
C470 H466 0.929 . S
C470 C472 1.378 . S
C470 C474 1.350 . S
C471 C474 1.463 . S
C471 C476 1.350 . S
C471 N479 1.427 . S
C472 H463 0.930 . S
C472 C470 1.378 . S
C472 C473 1.367 . S
C473 C472 1.367 . S
C473 C475 1.433 . S
C474 C470 1.350 . S
C474 C471 1.463 . S
C474 N478 1.427 . S
C475 H465 0.929 . S
C475 C473 1.433 . S
C475 N478 1.384 . S
C476 H467 0.929 . S
C476 C468 1.378 . S
C476 C471 1.350 . S
C477 H464 0.929 . S
C477 C469 1.433 . S
C477 N479 1.384 . S
N478 C474 1.427 . S
N478 C475 1.384 . S
N479 C471 1.427 . S
N479 C477 1.384 . S
H480 C486 0.930 . S
H481 C490 0.930 . S
H482 C495 0.929 . S
H483 C493 0.929 . S
H484 C488 0.929 . S
H485 C494 0.929 . S
C486 H480 0.930 . S
C486 C487 1.367 . S
C486 C494 1.378 . S
C487 C486 1.367 . S
C487 C495 1.433 . S
C488 H484 0.929 . S
C488 C490 1.378 . S
C488 C492 1.350 . S
C489 C492 1.463 . S
C489 C494 1.350 . S
C489 N497 1.427 . S
C490 H481 0.930 . S
C490 C488 1.378 . S
C490 C491 1.367 . S
C491 C490 1.367 . S
C491 C493 1.433 . S
C492 C488 1.350 . S
C492 C489 1.463 . S
C492 N496 1.427 . S
C493 H483 0.929 . S
C493 C491 1.433 . S
C493 N496 1.384 . S
C494 H485 0.929 . S
C494 C486 1.378 . S
C494 C489 1.350 . S
C495 H482 0.929 . S
C495 C487 1.433 . S
C495 N497 1.384 . S
N496 C492 1.427 . S
N496 C493 1.384 . S
N497 C489 1.427 . S
N497 C495 1.384 . S
H498 C504 0.930 . S
H499 C508 0.930 . S
H500 C513 0.929 . S
H501 C511 0.929 . S
H502 C506 0.929 . S
H503 C512 0.929 . S
C504 H498 0.930 . S
C504 C505 1.367 . S
C504 C512 1.378 . S
C505 C504 1.367 . S
C505 C513 1.433 . S
C506 H502 0.929 . S
C506 C508 1.378 . S
C506 C510 1.350 . S
C507 C510 1.463 . S
C507 C512 1.350 . S
C507 N515 1.427 . S
C508 H499 0.930 . S
C508 C506 1.378 . S
C508 C509 1.367 . S
C509 C508 1.367 . S
C509 C511 1.433 . S
C510 C506 1.350 . S
C510 C507 1.463 . S
C510 N514 1.427 . S
C511 H501 0.929 . S
C511 C509 1.433 . S
C511 N514 1.384 . S
C512 H503 0.929 . S
C512 C504 1.378 . S
C512 C507 1.350 . S
C513 H500 0.929 . S
C513 C505 1.433 . S
C513 N515 1.384 . S
N514 C510 1.427 . S
N514 C511 1.384 . S
N515 C507 1.427 . S
N515 C513 1.384 . S
H516 C522 0.930 . S
H517 C526 0.930 . S
H518 C531 0.929 . S
H519 C529 0.929 . S
H520 C524 0.929 . S
H521 C530 0.929 . S
C522 H516 0.930 . S
C522 C523 1.367 . S
C522 C530 1.378 . S
C523 C522 1.367 . S
C523 C531 1.433 . S
C524 H520 0.929 . S
C524 C526 1.378 . S
C524 C528 1.350 . S
C525 C528 1.463 . S
C525 C530 1.350 . S
C525 N533 1.427 . S
C526 H517 0.930 . S
C526 C524 1.378 . S
C526 C527 1.367 . S
C527 C526 1.367 . S
C527 C529 1.433 . S
C528 C524 1.350 . S
C528 C525 1.463 . S
C528 N532 1.427 . S
C529 H519 0.929 . S
C529 C527 1.433 . S
C529 N532 1.384 . S
C530 H521 0.929 . S
C530 C522 1.378 . S
C530 C525 1.350 . S
C531 H518 0.929 . S
C531 C523 1.433 . S
C531 N533 1.384 . S
N532 C528 1.427 . S
N532 C529 1.384 . S
N533 C525 1.427 . S
N533 C531 1.384 . S
H534 C540 0.930 . S
H535 C544 0.930 . S
H536 C549 0.929 . S
H537 C547 0.929 . S
H538 C542 0.929 . S
H539 C548 0.929 . S
C540 H534 0.930 . S
C540 C541 1.367 . S
C540 C548 1.378 . S
C541 C540 1.367 . S
C541 C549 1.433 . S
C542 H538 0.929 . S
C542 C544 1.378 . S
C542 C546 1.350 . S
C543 C546 1.463 . S
C543 C548 1.350 . S
C543 N551 1.427 . S
C544 H535 0.930 . S
C544 C542 1.378 . S
C544 C545 1.367 . S
C545 C544 1.367 . S
C545 C547 1.433 . S
C546 C542 1.350 . S
C546 C543 1.463 . S
C546 N550 1.427 . S
C547 H537 0.929 . S
C547 C545 1.433 . S
C547 N550 1.384 . S
C548 H539 0.929 . S
C548 C540 1.378 . S
C548 C543 1.350 . S
C549 H536 0.929 . S
C549 C541 1.433 . S
C549 N551 1.384 . S
N550 C546 1.427 . S
N550 C547 1.384 . S
N551 C543 1.427 . S
N551 C549 1.384 . S
H552 C558 0.930 . S
H553 C562 0.930 . S
H554 C567 0.929 . S
H555 C565 0.929 . S
H556 C560 0.929 . S
H557 C566 0.929 . S
C558 H552 0.930 . S
C558 C559 1.367 . S
C558 C566 1.378 . S
C559 C558 1.367 . S
C559 C567 1.433 . S
C560 H556 0.929 . S
C560 C562 1.378 . S
C560 C564 1.350 . S
C561 C564 1.463 . S
C561 C566 1.350 . S
C561 N569 1.427 . S
C562 H553 0.930 . S
C562 C560 1.378 . S
C562 C563 1.367 . S
C563 C562 1.367 . S
C563 C565 1.433 . S
C564 C560 1.350 . S
C564 C561 1.463 . S
C564 N568 1.427 . S
C565 H555 0.929 . S
C565 C563 1.433 . S
C565 N568 1.384 . S
C566 H557 0.929 . S
C566 C558 1.378 . S
C566 C561 1.350 . S
C567 H554 0.929 . S
C567 C559 1.433 . S
C567 N569 1.384 . S
N568 C564 1.427 . S
N568 C565 1.384 . S
N569 C561 1.427 . S
N569 C567 1.384 . S
H570 C576 0.930 . S
H571 C580 0.930 . S
H572 C585 0.929 . S
H573 C583 0.929 . S
H574 C578 0.929 . S
H575 C584 0.929 . S
C576 H570 0.930 . S
C576 C577 1.367 . S
C576 C584 1.378 . S
C577 C576 1.367 . S
C577 C585 1.433 . S
C578 H574 0.929 . S
C578 C580 1.378 . S
C578 C582 1.350 . S
C579 C582 1.463 . S
C579 C584 1.350 . S
C579 N587 1.427 . S
C580 H571 0.930 . S
C580 C578 1.378 . S
C580 C581 1.367 . S
C581 C580 1.367 . S
C581 C583 1.433 . S
C582 C578 1.350 . S
C582 C579 1.463 . S
C582 N586 1.427 . S
C583 H573 0.929 . S
C583 C581 1.433 . S
C583 N586 1.384 . S
C584 H575 0.929 . S
C584 C576 1.378 . S
C584 C579 1.350 . S
C585 H572 0.929 . S
C585 C577 1.433 . S
C585 N587 1.384 . S
N586 C582 1.427 . S
N586 C583 1.384 . S
N587 C579 1.427 . S
N587 C585 1.384 . S
H588 C594 0.930 . S
H589 C598 0.930 . S
H590 C603 0.929 . S
H591 C601 0.929 . S
H592 C596 0.929 . S
H593 C602 0.929 . S
C594 H588 0.930 . S
C594 C595 1.367 . S
C594 C602 1.378 . S
C595 C594 1.367 . S
C595 C603 1.433 . S
C596 H592 0.929 . S
C596 C598 1.378 . S
C596 C600 1.350 . S
C597 C600 1.463 . S
C597 C602 1.350 . S
C597 N605 1.427 . S
C598 H589 0.930 . S
C598 C596 1.378 . S
C598 C599 1.367 . S
C599 C598 1.367 . S
C599 C601 1.433 . S
C600 C596 1.350 . S
C600 C597 1.463 . S
C600 N604 1.427 . S
C601 H591 0.929 . S
C601 C599 1.433 . S
C601 N604 1.384 . S
C602 H593 0.929 . S
C602 C594 1.378 . S
C602 C597 1.350 . S
C603 H590 0.929 . S
C603 C595 1.433 . S
C603 N605 1.384 . S
N604 C600 1.427 . S
N604 C601 1.384 . S
N605 C597 1.427 . S
N605 C603 1.384 . S
H606 C612 0.930 . S
H607 C616 0.930 . S
H608 C621 0.929 . S
H609 C619 0.929 . S
H610 C614 0.929 . S
H611 C620 0.929 . S
C612 H606 0.930 . S
C612 C613 1.367 . S
C612 C620 1.378 . S
C613 C612 1.367 . S
C613 C621 1.433 . S
C614 H610 0.929 . S
C614 C616 1.378 . S
C614 C618 1.350 . S
C615 C618 1.463 . S
C615 C620 1.350 . S
C615 N623 1.427 . S
C616 H607 0.930 . S
C616 C614 1.378 . S
C616 C617 1.367 . S
C617 C616 1.367 . S
C617 C619 1.433 . S
C618 C614 1.350 . S
C618 C615 1.463 . S
C618 N622 1.427 . S
C619 H609 0.929 . S
C619 C617 1.433 . S
C619 N622 1.384 . S
C620 H611 0.929 . S
C620 C612 1.378 . S
C620 C615 1.350 . S
C621 H608 0.929 . S
C621 C613 1.433 . S
C621 N623 1.384 . S
N622 C618 1.427 . S
N622 C619 1.384 . S
N623 C615 1.427 . S
N623 C621 1.384 . S
H624 C630 0.930 . S
H625 C634 0.930 . S
H626 C639 0.929 . S
H627 C637 0.929 . S
H628 C632 0.929 . S
H629 C638 0.929 . S
C630 H624 0.930 . S
C630 C631 1.367 . S
C630 C638 1.378 . S
C631 C630 1.367 . S
C631 C639 1.433 . S
C632 H628 0.929 . S
C632 C634 1.378 . S
C632 C636 1.350 . S
C633 C636 1.463 . S
C633 C638 1.350 . S
C633 N641 1.427 . S
C634 H625 0.930 . S
C634 C632 1.378 . S
C634 C635 1.367 . S
C635 C634 1.367 . S
C635 C637 1.433 . S
C636 C632 1.350 . S
C636 C633 1.463 . S
C636 N640 1.427 . S
C637 H627 0.929 . S
C637 C635 1.433 . S
C637 N640 1.384 . S
C638 H629 0.929 . S
C638 C630 1.378 . S
C638 C633 1.350 . S
C639 H626 0.929 . S
C639 C631 1.433 . S
C639 N641 1.384 . S
N640 C636 1.427 . S
N640 C637 1.384 . S
N641 C633 1.427 . S
N641 C639 1.384 . S
C217 C13 1.582 . S
C221 C93 1.416 . S
C235 C27 1.621 . S
C239 C114 1.466 . S
C257 C135 1.431 . S
C253 C29 1.586 . S
C275 C164 1.545 . S
C271 C54 1.630 . S
C293 C177 1.419 . S
C289 C69 1.583 . S
C311 C201 1.548 . S
C307 C83 1.619 . S
C325 C15 1.577 . S
C329 C145 1.445 . S
C343 C41 1.627 . S
C347 C159 1.542 . S
C365 C187 1.432 . S
C361 C42 1.579 . S
C383 C206 1.549 . S
C379 C57 1.631 . S
C397 C71 1.583 . S
C401 C103 1.456 . S
C419 C124 1.476 . S
C415 C1 1.615 . S
C437 C166 1.541 . S
C433 C12 1.612 . S
C451 C26 1.659 . S
C455 C180 1.446 . S
C473 C198 1.542 . S
C469 C28 1.622 . S
C487 C55 1.663 . S
C491 C96 1.467 . S
C505 C68 1.626 . S
C509 C117 1.424 . S
C523 C82 1.658 . S
C527 C138 1.451 . S
C541 C14 1.606 . S
C545 C208 1.535 . S
C563 C101 1.488 . S
C559 C40 1.660 . S
C577 C43 1.624 . S
C581 C122 1.434 . S
C595 C56 1.666 . S
C599 C143 1.491 . S
C613 C70 1.616 . S
C617 C156 1.549 . S
C631 C0 1.658 . S
C635 C185 1.465 . S
