# Generated by pormake.
# Topology eea, (3,6)-cn, num edge types: 1
# Building blocks:
#     Node 0, Type 0, BuildingBlock: BELTOD_clean_linker_0, # of connection points: 3
#     Node 1, Type 0, BuildingBlock: BELTOD_clean_linker_0, # of connection points: 3
#     Node 2, Type 0, BuildingBlock: BELTOD_clean_linker_0, # of connection points: 3
#     Node 3, Type 0, BuildingBlock: BELTOD_clean_linker_0, # of connection points: 3
#     Node 4, Type 0, BuildingBlock: BELTOD_clean_linker_0, # of connection points: 3
#     Node 5, Type 0, BuildingBlock: BELTOD_clean_linker_0, # of connection points: 3
#     Node 6, Type 0, BuildingBlock: BELTOD_clean_linker_0, # of connection points: 3
#     Node 7, Type 0, BuildingBlock: BELTOD_clean_linker_0, # of connection points: 3
#     Node 8, Type 0, BuildingBlock: BELTOD_clean_linker_0, # of connection points: 3
#     Node 9, Type 0, BuildingBlock: BELTOD_clean_linker_0, # of connection points: 3
#     Node 10, Type 0, BuildingBlock: BELTOD_clean_linker_0, # of connection points: 3
#     Node 11, Type 0, BuildingBlock: BELTOD_clean_linker_0, # of connection points: 3
#     Node 12, Type 0, BuildingBlock: BELTOD_clean_linker_0, # of connection points: 3
#     Node 13, Type 0, BuildingBlock: BELTOD_clean_linker_0, # of connection points: 3
#     Node 14, Type 0, BuildingBlock: BELTOD_clean_linker_0, # of connection points: 3
#     Node 15, Type 0, BuildingBlock: BELTOD_clean_linker_0, # of connection points: 3
#     Node 16, Type 0, BuildingBlock: BELTOD_clean_linker_0, # of connection points: 3
#     Node 17, Type 0, BuildingBlock: BELTOD_clean_linker_0, # of connection points: 3
#     Node 18, Type 1, BuildingBlock: NUHQIS_clean_sbu_0, # of connection points: 6
#     Node 19, Type 1, BuildingBlock: NUHQIS_clean_sbu_0, # of connection points: 6
#     Node 20, Type 1, BuildingBlock: NUHQIS_clean_sbu_0, # of connection points: 6
#     Node 21, Type 1, BuildingBlock: NUHQIS_clean_sbu_0, # of connection points: 6
#     Node 22, Type 1, BuildingBlock: NUHQIS_clean_sbu_0, # of connection points: 6
#     Node 23, Type 1, BuildingBlock: NUHQIS_clean_sbu_0, # of connection points: 6
#     Node 24, Type 1, BuildingBlock: NUHQIS_clean_sbu_0, # of connection points: 6
#     Node 25, Type 1, BuildingBlock: NUHQIS_clean_sbu_0, # of connection points: 6
#     Node 26, Type 1, BuildingBlock: NUHQIS_clean_sbu_0, # of connection points: 6
#     Edge 27, Type (0, 1), BuildingBlock: TEMPAE_clean_linker_10, # of connection points: 2
#     Edge 28, Type (0, 1), BuildingBlock: TEMPAE_clean_linker_10, # of connection points: 2
#     Edge 29, Type (0, 1), BuildingBlock: TEMPAE_clean_linker_10, # of connection points: 2
#     Edge 30, Type (0, 1), BuildingBlock: TEMPAE_clean_linker_10, # of connection points: 2
#     Edge 31, Type (0, 1), BuildingBlock: TEMPAE_clean_linker_10, # of connection points: 2
#     Edge 32, Type (0, 1), BuildingBlock: TEMPAE_clean_linker_10, # of connection points: 2
#     Edge 33, Type (0, 1), BuildingBlock: TEMPAE_clean_linker_10, # of connection points: 2
#     Edge 34, Type (0, 1), BuildingBlock: TEMPAE_clean_linker_10, # of connection points: 2
#     Edge 35, Type (0, 1), BuildingBlock: TEMPAE_clean_linker_10, # of connection points: 2
#     Edge 36, Type (0, 1), BuildingBlock: TEMPAE_clean_linker_10, # of connection points: 2
#     Edge 37, Type (0, 1), BuildingBlock: TEMPAE_clean_linker_10, # of connection points: 2
#     Edge 38, Type (0, 1), BuildingBlock: TEMPAE_clean_linker_10, # of connection points: 2
#     Edge 39, Type (0, 1), BuildingBlock: TEMPAE_clean_linker_10, # of connection points: 2
#     Edge 40, Type (0, 1), BuildingBlock: TEMPAE_clean_linker_10, # of connection points: 2
#     Edge 41, Type (0, 1), BuildingBlock: TEMPAE_clean_linker_10, # of connection points: 2
#     Edge 42, Type (0, 1), BuildingBlock: TEMPAE_clean_linker_10, # of connection points: 2
#     Edge 43, Type (0, 1), BuildingBlock: TEMPAE_clean_linker_10, # of connection points: 2
#     Edge 44, Type (0, 1), BuildingBlock: TEMPAE_clean_linker_10, # of connection points: 2
#     Edge 45, Type (0, 1), BuildingBlock: TEMPAE_clean_linker_10, # of connection points: 2
#     Edge 46, Type (0, 1), BuildingBlock: TEMPAE_clean_linker_10, # of connection points: 2
#     Edge 47, Type (0, 1), BuildingBlock: TEMPAE_clean_linker_10, # of connection points: 2
#     Edge 48, Type (0, 1), BuildingBlock: TEMPAE_clean_linker_10, # of connection points: 2
#     Edge 49, Type (0, 1), BuildingBlock: TEMPAE_clean_linker_10, # of connection points: 2
#     Edge 50, Type (0, 1), BuildingBlock: TEMPAE_clean_linker_10, # of connection points: 2
#     Edge 51, Type (0, 1), BuildingBlock: TEMPAE_clean_linker_10, # of connection points: 2
#     Edge 52, Type (0, 1), BuildingBlock: TEMPAE_clean_linker_10, # of connection points: 2
#     Edge 53, Type (0, 1), BuildingBlock: TEMPAE_clean_linker_10, # of connection points: 2
#     Edge 54, Type (0, 1), BuildingBlock: TEMPAE_clean_linker_10, # of connection points: 2
#     Edge 55, Type (0, 1), BuildingBlock: TEMPAE_clean_linker_10, # of connection points: 2
#     Edge 56, Type (0, 1), BuildingBlock: TEMPAE_clean_linker_10, # of connection points: 2
#     Edge 57, Type (0, 1), BuildingBlock: TEMPAE_clean_linker_10, # of connection points: 2
#     Edge 58, Type (0, 1), BuildingBlock: TEMPAE_clean_linker_10, # of connection points: 2
#     Edge 59, Type (0, 1), BuildingBlock: TEMPAE_clean_linker_10, # of connection points: 2
#     Edge 60, Type (0, 1), BuildingBlock: TEMPAE_clean_linker_10, # of connection points: 2
#     Edge 61, Type (0, 1), BuildingBlock: TEMPAE_clean_linker_10, # of connection points: 2
#     Edge 62, Type (0, 1), BuildingBlock: TEMPAE_clean_linker_10, # of connection points: 2
#     Edge 63, Type (0, 1), BuildingBlock: TEMPAE_clean_linker_10, # of connection points: 2
#     Edge 64, Type (0, 1), BuildingBlock: TEMPAE_clean_linker_10, # of connection points: 2
#     Edge 65, Type (0, 1), BuildingBlock: TEMPAE_clean_linker_10, # of connection points: 2
#     Edge 66, Type (0, 1), BuildingBlock: TEMPAE_clean_linker_10, # of connection points: 2
#     Edge 67, Type (0, 1), BuildingBlock: TEMPAE_clean_linker_10, # of connection points: 2
#     Edge 68, Type (0, 1), BuildingBlock: TEMPAE_clean_linker_10, # of connection points: 2
#     Edge 69, Type (0, 1), BuildingBlock: TEMPAE_clean_linker_10, # of connection points: 2
#     Edge 70, Type (0, 1), BuildingBlock: TEMPAE_clean_linker_10, # of connection points: 2
#     Edge 71, Type (0, 1), BuildingBlock: TEMPAE_clean_linker_10, # of connection points: 2
#     Edge 72, Type (0, 1), BuildingBlock: TEMPAE_clean_linker_10, # of connection points: 2
#     Edge 73, Type (0, 1), BuildingBlock: TEMPAE_clean_linker_10, # of connection points: 2
#     Edge 74, Type (0, 1), BuildingBlock: TEMPAE_clean_linker_10, # of connection points: 2
#     Edge 75, Type (0, 1), BuildingBlock: TEMPAE_clean_linker_10, # of connection points: 2
#     Edge 76, Type (0, 1), BuildingBlock: TEMPAE_clean_linker_10, # of connection points: 2
#     Edge 77, Type (0, 1), BuildingBlock: TEMPAE_clean_linker_10, # of connection points: 2
#     Edge 78, Type (0, 1), BuildingBlock: TEMPAE_clean_linker_10, # of connection points: 2
#     Edge 79, Type (0, 1), BuildingBlock: TEMPAE_clean_linker_10, # of connection points: 2
#     Edge 80, Type (0, 1), BuildingBlock: TEMPAE_clean_linker_10, # of connection points: 2
# Relax obj value: 0.032
# Max RMSD: 0.128
# Mean RMSD: 0.081
data_MOF--net-eea--node1-NUHQIS_clean_sbu_0--node2-BELTOD_clean_linker_0--edge1-TEMPAE_clean_linker_10
_symmetry_space_group_name_H-M    P1
_symmetry_Int_Tables_number       1
_symmetry_cell_setting            triclinic
loop_
_symmetry_equiv_pos_as_xyz
'x, y, z'
_cell_length_a     59.082054
_cell_length_b     59.007307
_cell_length_c     85.119261
_cell_angle_alpha  93.89068
_cell_angle_beta   93.493559
_cell_angle_gamma 119.87764
loop_
_atom_site_label
_atom_site_type_symbol
_atom_site_fract_x
_atom_site_fract_y
_atom_site_fract_z
_atom_type_partial_charge
P0 P 0.32745 0.17553 0.40832 0.0
H1 H 0.33418 0.14668 0.38137 0.0
H2 H 0.3103 0.10027 0.37067 0.0
H3 H 0.25825 0.08327 0.40732 0.0
H4 H 0.28311 0.12926 0.41838 0.0
H5 H 0.34235 0.22246 0.39208 0.0
H6 H 0.31707 0.24134 0.38111 0.0
H7 H 0.24647 0.17808 0.39594 0.0
H8 H 0.27201 0.16002 0.40739 0.0
H9 H 0.3441 0.15087 0.43108 0.0
H10 H 0.31739 0.20691 0.43239 0.0
O11 O 0.35764 0.19049 0.40267 0.0
H12 H 0.3465 0.15284 0.45992 0.0
H13 H 0.32026 0.20942 0.46129 0.0
C14 C 0.31062 0.14129 0.40078 0.0
C15 C 0.31783 0.13285 0.38719 0.0
C16 C 0.30395 0.10635 0.38099 0.0
C17 C 0.28232 0.08795 0.38813 0.0
C18 C 0.27508 0.09671 0.40168 0.0
C19 C 0.28918 0.12308 0.40797 0.0
C20 C 0.309 0.18964 0.40036 0.0
C21 C 0.32144 0.21267 0.39296 0.0
C22 C 0.30691 0.22334 0.3866 0.0
C23 C 0.27968 0.2111 0.38753 0.0
C24 C 0.26741 0.18813 0.39512 0.0
C25 C 0.28198 0.17761 0.40155 0.0
C26 C 0.33018 0.17839 0.42961 0.0
C27 C 0.33887 0.16369 0.4376 0.0
C28 C 0.34038 0.16497 0.45409 0.0
C29 C 0.33349 0.18123 0.4629 0.0
C30 C 0.3253 0.19639 0.45483 0.0
C31 C 0.32375 0.19504 0.4383 0.0
P32 P 0.91813 0.11908 0.44073 0.0
H33 H 0.90795 0.06717 0.42817 0.0
H34 H 0.86928 0.02875 0.41398 0.0
H35 H 0.82633 0.07029 0.41632 0.0
H36 H 0.86545 0.10898 0.43032 0.0
H37 H 0.95875 0.17466 0.44593 0.0
H38 H 0.98713 0.20493 0.42811 0.0
H39 H 0.94426 0.14565 0.3883 0.0
H40 H 0.9161 0.11556 0.4061 0.0
H41 H 0.9063 0.10087 0.47144 0.0
H42 H 0.90703 0.16247 0.44658 0.0
O43 O 0.93894 0.1098 0.44766 0.0
H44 H 0.89092 0.11459 0.49415 0.0
H45 H 0.89166 0.17649 0.46945 0.0
C46 C 0.88936 0.0907 0.43053 0.0
C47 C 0.89017 0.06797 0.42574 0.0
C48 C 0.868 0.04597 0.41767 0.0
C49 C 0.84463 0.04636 0.41417 0.0
C50 C 0.84405 0.0694 0.41879 0.0
C51 C 0.8663 0.09144 0.42688 0.0
C52 C 0.93495 0.14304 0.42735 0.0
C53 C 0.95497 0.16848 0.43332 0.0
C54 C 0.97118 0.18574 0.42312 0.0
C55 C 0.96792 0.17762 0.40681 0.0
C56 C 0.94732 0.15239 0.40082 0.0
C57 C 0.93105 0.13524 0.411 0.0
C58 C 0.90839 0.13103 0.45751 0.0
C59 C 0.90341 0.11756 0.47095 0.0
C60 C 0.89441 0.12528 0.48387 0.0
C61 C 0.89008 0.14661 0.48357 0.0
C62 C 0.89511 0.16017 0.47006 0.0
C63 C 0.90393 0.15222 0.45702 0.0
P64 P 0.86404 0.72343 0.42066 0.0
H65 H 0.83082 0.71139 0.39104 0.0
H66 H 0.80469 0.72949 0.38035 0.0
H67 H 0.83214 0.78664 0.42175 0.0
H68 H 0.85856 0.76843 0.43236 0.0
H69 H 0.88966 0.70444 0.39956 0.0
H70 H 0.93258 0.72526 0.38995 0.0
H71 H 0.95366 0.79801 0.41825 0.0
H72 H 0.90988 0.77695 0.42754 0.0
H73 H 0.8212 0.7072 0.44012 0.0
H74 H 0.90447 0.73677 0.44755 0.0
O75 O 0.84823 0.69189 0.41305 0.0
H76 H 0.81738 0.6992 0.46777 0.0
H77 H 0.90114 0.73004 0.47553 0.0
C78 C 0.84615 0.73819 0.41265 0.0
C79 C 0.83121 0.72778 0.39785 0.0
C80 C 0.81619 0.7381 0.39176 0.0
C81 C 0.81601 0.75926 0.4003 0.0
C82 C 0.83185 0.77034 0.41489 0.0
C83 C 0.84684 0.75989 0.421 0.0
C84 C 0.89662 0.73906 0.41442 0.0
C85 C 0.90348 0.72482 0.40383 0.0
C86 C 0.92823 0.73677 0.39838 0.0
C87 C 0.94681 0.7633 0.40341 0.0
C88 C 0.93982 0.7776 0.41403 0.0
C89 C 0.91489 0.76557 0.41945 0.0
C90 C 0.86315 0.72298 0.4418 0.0
C91 C 0.83883 0.71272 0.44785 0.0
C92 C 0.83671 0.70823 0.46375 0.0
C93 C 0.85895 0.71396 0.47403 0.0
C94 C 0.88351 0.72502 0.46798 0.0
C95 C 0.88553 0.72925 0.45198 0.0
P96 P 0.12295 0.27547 0.59232 0.0
H97 H 0.10134 0.29759 0.61454 0.0
H98 H 0.05881 0.28007 0.62457 0.0
H99 H 0.03063 0.20678 0.59491 0.0
H100 H 0.07393 0.22448 0.58512 0.0
H101 H 0.1473 0.27799 0.62356 0.0
H102 H 0.17173 0.25779 0.63372 0.0
H103 H 0.15724 0.21447 0.58764 0.0
H104 H 0.13163 0.23377 0.57786 0.0
H105 H 0.08395 0.26959 0.56648 0.0
H106 H 0.16371 0.28541 0.57184 0.0
O107 O 0.14139 0.30675 0.60023 0.0
H108 H 0.0872 0.27609 0.53839 0.0
H109 H 0.16717 0.29208 0.54395 0.0
C110 C 0.09074 0.26244 0.59893 0.0
C111 C 0.08604 0.27781 0.61006 0.0
C112 C 0.06155 0.26777 0.61576 0.0
C113 C 0.04112 0.24206 0.61047 0.0
C114 C 0.04594 0.2266 0.59932 0.0
C115 C 0.07059 0.23672 0.59363 0.0
C116 C 0.13832 0.25798 0.59985 0.0
C117 C 0.14923 0.26398 0.61569 0.0
C118 C 0.1634 0.25255 0.62144 0.0
C119 C 0.16707 0.23492 0.61142 0.0
C120 C 0.1549 0.22795 0.59572 0.0
C121 C 0.14043 0.23919 0.59004 0.0
C122 C 0.12333 0.27621 0.57117 0.0
C123 C 0.10195 0.27388 0.56156 0.0
C124 C 0.10393 0.27786 0.54553 0.0
C125 C 0.1274 0.28444 0.53887 0.0
C126 C 0.14863 0.28649 0.54856 0.0
C127 C 0.14667 0.28265 0.56454 0.0
P128 P 0.81413 0.89907 0.57686 0.0
H129 H 0.85209 0.95355 0.58934 0.0
H130 H 0.84782 0.98701 0.60517 0.0
H131 H 0.76581 0.93098 0.60755 0.0
H132 H 0.77052 0.89733 0.59206 0.0
H133 H 0.85281 0.89622 0.59791 0.0
H134 H 0.85046 0.86326 0.61454 0.0
H135 H 0.76747 0.81437 0.59888 0.0
H136 H 0.76976 0.84845 0.58324 0.0
H137 H 0.78705 0.92217 0.56047 0.0
H138 H 0.78814 0.84947 0.55574 0.0
O139 O 0.84329 0.91294 0.56983 0.0
H140 H 0.75479 0.90649 0.53733 0.0
H141 H 0.75495 0.83314 0.5328 0.0
C142 C 0.81152 0.92316 0.5894 0.0
C143 C 0.83324 0.94843 0.59334 0.0
C144 C 0.83071 0.96758 0.6023 0.0
C145 C 0.80637 0.96175 0.60742 0.0
C146 C 0.78483 0.93606 0.60385 0.0
C147 C 0.78745 0.91688 0.59496 0.0
C148 C 0.81172 0.87423 0.58884 0.0
C149 C 0.83414 0.87835 0.59805 0.0
C150 C 0.83276 0.85939 0.6075 0.0
C151 C 0.80888 0.8358 0.60783 0.0
C152 C 0.78619 0.83225 0.59899 0.0
C153 C 0.78754 0.85154 0.58978 0.0
C154 C 0.78924 0.88657 0.56022 0.0
C155 C 0.77986 0.90253 0.5547 0.0
C156 C 0.7613 0.89349 0.54145 0.0
C157 C 0.75192 0.86836 0.53336 0.0
C158 C 0.76173 0.85257 0.53878 0.0
C159 C 0.7805 0.86176 0.55199 0.0
P160 P 0.12563 0.82903 0.59372 0.0
H161 H 0.12289 0.86257 0.61984 0.0
H162 H 0.14875 0.90974 0.62823 0.0
H163 H 0.19609 0.91952 0.58973 0.0
H164 H 0.17014 0.8722 0.58139 0.0
H165 H 0.09784 0.78245 0.61019 0.0
H166 H 0.05608 0.76296 0.62142 0.0
H167 H 0.04213 0.8231 0.60488 0.0
H168 H 0.08368 0.84189 0.59309 0.0
H169 H 0.12459 0.78724 0.57273 0.0
H170 H 0.11608 0.85498 0.56807 0.0
O171 O 0.14317 0.81651 0.60132 0.0
H172 H 0.1226 0.77978 0.54396 0.0
H173 H 0.11521 0.84842 0.53934 0.0
C174 C 0.14394 0.86398 0.59961 0.0
C175 C 0.13846 0.87486 0.61299 0.0
C176 C 0.15329 0.90186 0.6178 0.0
C177 C 0.17424 0.91837 0.60952 0.0
C178 C 0.18005 0.9073 0.59633 0.0
C179 C 0.1651 0.8803 0.59148 0.0
C180 C 0.09404 0.8139 0.6011 0.0
C181 C 0.08578 0.79142 0.60894 0.0
C182 C 0.06195 0.7804 0.61547 0.0
C183 C 0.04593 0.79174 0.61434 0.0
C184 C 0.05392 0.81382 0.60596 0.0
C185 C 0.07771 0.82467 0.59929 0.0
C186 C 0.12129 0.82211 0.5725 0.0
C187 C 0.12232 0.80053 0.56549 0.0
C188 C 0.12129 0.79637 0.54904 0.0
C189 C 0.11923 0.81377 0.53932 0.0
C190 C 0.1167 0.83455 0.54642 0.0
C191 C 0.11747 0.83851 0.56286 0.0
P192 P 0.98844 0.49989 0.74092 0.0
H193 H 0.99428 0.47197 0.71312 0.0
H194 H 0.97016 0.42561 0.70194 0.0
H195 H 0.92122 0.40682 0.74025 0.0
H196 H 0.94532 0.45297 0.75132 0.0
H197 H 0.00154 0.54501 0.72321 0.0
H198 H 0.97526 0.56273 0.71215 0.0
H199 H 0.90678 0.50192 0.73034 0.0
H200 H 0.93344 0.48499 0.74186 0.0
H201 H 0.00552 0.47481 0.76313 0.0
H202 H 0.97917 0.53113 0.76555 0.0
O203 O 0.01846 0.51528 0.73505 0.0
H204 H 0.00907 0.47676 0.792 0.0
H205 H 0.98238 0.53294 0.79446 0.0
C206 C 0.97183 0.46577 0.73315 0.0
C207 C 0.97853 0.4578 0.71917 0.0
C208 C 0.96476 0.43136 0.71281 0.0
C209 C 0.94383 0.41267 0.72024 0.0
C210 C 0.9371 0.42085 0.7342 0.0
C211 C 0.95098 0.44717 0.74059 0.0
C212 C 0.96939 0.51358 0.73325 0.0
C213 C 0.9809 0.53556 0.72486 0.0
C214 C 0.96578 0.54552 0.71842 0.0
C215 C 0.93883 0.53359 0.72023 0.0
C216 C 0.92748 0.5117 0.72882 0.0
C217 C 0.94267 0.50187 0.73532 0.0
C218 C 0.99163 0.50243 0.76221 0.0
C219 C 1.00038 0.48751 0.76989 0.0
C220 C 0.00227 0.48853 0.78637 0.0
C221 C 0.9957 0.50477 0.79548 0.0
C222 C 0.9876 0.52027 0.78775 0.0
C223 C 0.98562 0.51913 0.77122 0.0
P224 P 0.57461 0.44515 0.76859 0.0
H225 H 0.5663 0.40769 0.74172 0.0
H226 H 0.52675 0.37023 0.72716 0.0
H227 H 0.47865 0.38519 0.75751 0.0
H228 H 0.51802 0.42315 0.77169 0.0
H229 H 0.62147 0.49646 0.77648 0.0
H230 H 0.65133 0.52876 0.76011 0.0
H231 H 0.59857 0.48322 0.71825 0.0
H232 H 0.56852 0.45144 0.73461 0.0
H233 H 0.57228 0.43076 0.8007 0.0
H234 H 0.55863 0.48436 0.77529 0.0
O235 O 0.594 0.43328 0.77387 0.0
H236 H 0.55837 0.44357 0.82442 0.0
H237 H 0.54394 0.4969 0.799 0.0
C238 C 0.54517 0.41834 0.75771 0.0
C239 C 0.54723 0.40312 0.74511 0.0
C240 C 0.5247 0.38181 0.7368 0.0
C241 C 0.4998 0.37502 0.74124 0.0
C242 C 0.49771 0.39015 0.75391 0.0
C243 C 0.52024 0.41184 0.76199 0.0
C244 C 0.59286 0.4714 0.75681 0.0
C245 C 0.61598 0.4938 0.76383 0.0
C246 C 0.63301 0.51223 0.75448 0.0
C247 C 0.62732 0.5083 0.73791 0.0
C248 C 0.60352 0.48653 0.73098 0.0
C249 C 0.58634 0.4683 0.74037 0.0
C250 C 0.56693 0.45698 0.78636 0.0
C251 C 0.56656 0.44554 0.80029 0.0
C252 C 0.5583 0.45268 0.8138 0.0
C253 C 0.54988 0.47115 0.81358 0.0
C254 C 0.55058 0.48284 0.79961 0.0
C255 C 0.55895 0.47571 0.78607 0.0
P256 P 0.5282 0.05606 0.7509 0.0
H257 H 0.48084 0.03233 0.72831 0.0
H258 H 0.45237 0.04818 0.71836 0.0
H259 H 0.49987 0.12168 0.7483 0.0
H260 H 0.52887 0.10577 0.75794 0.0
H261 H 0.58021 0.07062 0.7667 0.0
H262 H 0.62394 0.09172 0.75748 0.0
H263 H 0.59213 0.1056 0.71459 0.0
H264 H 0.54867 0.0849 0.72393 0.0
H265 H 0.49563 0.01041 0.76677 0.0
H266 H 0.55273 0.09222 0.78052 0.0
O267 O 0.51801 0.02659 0.74105 0.0
H268 H 0.48982 0.00348 0.79442 0.0
H269 H 0.54666 0.08551 0.80851 0.0
C270 C 0.50701 0.0679 0.74386 0.0
C271 C 0.4852 0.05187 0.73276 0.0
C272 C 0.46877 0.06091 0.72715 0.0
C273 C 0.4737 0.08618 0.73257 0.0
C274 C 0.49563 0.10222 0.74375 0.0
C275 C 0.51213 0.09312 0.74935 0.0
C276 C 0.56126 0.07682 0.74621 0.0
C277 C 0.58281 0.07903 0.75558 0.0
C278 C 0.60777 0.09097 0.75026 0.0
C279 C 0.6114 0.10023 0.7353 0.0
C280 C 0.5899 0.09855 0.72615 0.0
C281 C 0.56509 0.08695 0.73155 0.0
C282 C 0.52505 0.05169 0.77159 0.0
C283 C 0.50706 0.02692 0.77577 0.0
C284 C 0.50353 0.02303 0.79163 0.0
C285 C 0.51771 0.04394 0.80372 0.0
C286 C 0.53564 0.06892 0.7995 0.0
C287 C 0.53911 0.0728 0.78353 0.0
P288 P 0.78988 0.61191 0.92739 0.0
H289 H 0.77191 0.62266 0.95645 0.0
H290 H 0.72891 0.60402 0.96619 0.0
H291 H 0.69463 0.54763 0.92437 0.0
H292 H 0.73807 0.56665 0.91455 0.0
H293 H 0.8441 0.63512 0.94135 0.0
H294 H 0.87059 0.61664 0.95031 0.0
H295 H 0.80505 0.53825 0.93578 0.0
H296 H 0.77808 0.55716 0.92762 0.0
H297 H 0.78407 0.64701 0.90733 0.0
H298 H 0.79124 0.57786 0.90068 0.0
O299 O 0.80567 0.6433 0.93533 0.0
H300 H 0.78726 0.65203 0.87925 0.0
H301 H 0.79358 0.5822 0.87238 0.0
C302 C 0.75807 0.59642 0.93462 0.0
C303 C 0.75518 0.60634 0.94932 0.0
C304 C 0.73056 0.5957 0.95487 0.0
C305 C 0.70832 0.57461 0.94594 0.0
C306 C 0.71142 0.56392 0.93148 0.0
C307 C 0.73616 0.57481 0.92584 0.0
C308 C 0.80901 0.59753 0.93396 0.0
C309 C 0.83529 0.61394 0.94019 0.0
C310 C 0.85059 0.60328 0.94515 0.0
C311 C 0.84015 0.57586 0.94369 0.0
C312 C 0.81373 0.55942 0.9373 0.0
C313 C 0.79828 0.57018 0.93255 0.0
C314 C 0.78797 0.61241 0.90619 0.0
C315 C 0.78594 0.63265 0.89977 0.0
C316 C 0.78758 0.63538 0.88363 0.0
C317 C 0.79095 0.61767 0.87349 0.0
C318 C 0.79157 0.59653 0.87987 0.0
C319 C 0.79006 0.59392 0.89607 0.0
P320 P 0.48395 0.23432 0.90629 0.0
H321 H 0.48023 0.24576 0.94002 0.0
H322 H 0.47409 0.27949 0.95405 0.0
H323 H 0.46878 0.30889 0.90965 0.0
H324 H 0.47538 0.27538 0.89573 0.0
H325 H 0.52491 0.22648 0.92136 0.0
H326 H 0.52349 0.19337 0.93762 0.0
H327 H 0.43893 0.15608 0.93454 0.0
H328 H 0.44057 0.18965 0.91849 0.0
H329 H 0.48646 0.21355 0.87478 0.0
H330 H 0.42826 0.21821 0.90082 0.0
O331 O 0.51361 0.2506 0.90002 0.0
H332 H 0.45438 0.19296 0.85128 0.0
H333 H 0.3962 0.19809 0.8773 0.0
C334 C 0.47805 0.25798 0.91681 0.0
C335 C 0.47752 0.25929 0.93328 0.0
C336 C 0.47387 0.27851 0.94129 0.0
C337 C 0.47091 0.29682 0.93295 0.0
C338 C 0.47125 0.29523 0.91642 0.0
C339 C 0.47489 0.27604 0.90845 0.0
C340 C 0.4828 0.21019 0.9185 0.0
C341 C 0.50606 0.21117 0.92415 0.0
C342 C 0.50522 0.19218 0.93341 0.0
C343 C 0.48107 0.17197 0.93723 0.0
C344 C 0.45783 0.17147 0.93185 0.0
C345 C 0.45872 0.1905 0.92258 0.0
C346 C 0.45987 0.21797 0.88936 0.0
C347 C 0.46679 0.2102 0.87541 0.0
C348 C 0.44846 0.19849 0.862 0.0
C349 C 0.42286 0.19419 0.8624 0.0
C350 C 0.41573 0.20104 0.87664 0.0
C351 C 0.43409 0.21276 0.89004 0.0
P352 P 0.79875 0.16888 0.93376 0.0
H353 H 0.85163 0.20319 0.94989 0.0
H354 H 0.87752 0.2506 0.95746 0.0
H355 H 0.81249 0.25858 0.93868 0.0
H356 H 0.78692 0.21103 0.93077 0.0
H357 H 0.7497 0.12102 0.92124 0.0
H358 H 0.70619 0.09865 0.93055 0.0
H359 H 0.73301 0.16061 0.96923 0.0
H360 H 0.77619 0.18297 0.95972 0.0
H361 H 0.83675 0.16571 0.91512 0.0
H362 H 0.76452 0.1665 0.90629 0.0
O363 O 0.81333 0.15421 0.9424 0.0
H364 H 0.84133 0.16514 0.88678 0.0
H365 H 0.76889 0.1657 0.87778 0.0
C366 C 0.81718 0.20361 0.9401 0.0
C367 C 0.84285 0.2151 0.94753 0.0
C368 C 0.85762 0.24223 0.95188 0.0
C369 C 0.84701 0.25838 0.9488 0.0
C370 C 0.82132 0.24674 0.94114 0.0
C371 C 0.80659 0.21958 0.93675 0.0
C372 C 0.76592 0.1541 0.93946 0.0
C373 C 0.74601 0.13006 0.93151 0.0
C374 C 0.72124 0.11715 0.93696 0.0
C375 C 0.71608 0.12791 0.95061 0.0
C376 C 0.73614 0.15205 0.95851 0.0
C377 C 0.76088 0.16489 0.95306 0.0
C378 C 0.79991 0.16536 0.91273 0.0
C379 C 0.82162 0.16528 0.90703 0.0
C380 C 0.82435 0.16521 0.89087 0.0
C381 C 0.80544 0.16534 0.88009 0.0
C382 C 0.78357 0.16527 0.88581 0.0
C383 C 0.78102 0.16563 0.90206 0.0
P384 P 0.65126 0.83317 0.07461 0.0
H385 H 0.61782 0.802 0.04569 0.0
H386 H 0.59244 0.75468 0.03737 0.0
H387 H 0.61982 0.74015 0.08167 0.0
H388 H 0.64491 0.78742 0.09005 0.0
H389 H 0.66741 0.88161 0.05982 0.0
H390 H 0.64285 0.90111 0.04869 0.0
H391 H 0.57121 0.83761 0.06237 0.0
H392 H 0.59579 0.81777 0.07287 0.0
H393 H 0.69331 0.83785 0.09679 0.0
H394 H 0.62254 0.84158 0.09933 0.0
O395 O 0.67979 0.84536 0.06687 0.0
H396 H 0.70012 0.84233 0.12568 0.0
H397 H 0.62968 0.84706 0.12812 0.0
C398 C 0.63271 0.79826 0.06866 0.0
C399 C 0.61812 0.78865 0.05371 0.0
C400 C 0.60362 0.76163 0.04896 0.0
C401 C 0.60398 0.7438 0.05896 0.0
C402 C 0.61919 0.7535 0.07376 0.0
C403 C 0.63344 0.78054 0.07857 0.0
C404 C 0.63336 0.84814 0.06701 0.0
C405 C 0.64641 0.87187 0.06036 0.0
C406 C 0.63234 0.88308 0.05411 0.0
C407 C 0.605 0.87087 0.05456 0.0
C408 C 0.59213 0.84728 0.06152 0.0
C409 C 0.60619 0.83601 0.06765 0.0
C410 C 0.65763 0.83973 0.09587 0.0
C411 C 0.67954 0.8402 0.10357 0.0
C412 C 0.68343 0.84283 0.1201 0.0
C413 C 0.66544 0.84507 0.12925 0.0
C414 C 0.64373 0.84502 0.12145 0.0
C415 C 0.63975 0.84215 0.10493 0.0
P416 P 0.25237 0.7786 0.10995 0.0
H417 H 0.23342 0.72205 0.10644 0.0
H418 H 0.19594 0.68478 0.09055 0.0
H419 H 0.1757 0.73793 0.0696 0.0
H420 H 0.2131 0.77521 0.08583 0.0
H421 H 0.2998 0.78425 0.09807 0.0
H422 H 0.33015 0.81402 0.08096 0.0
H423 H 0.28456 0.8527 0.07743 0.0
H424 H 0.25396 0.82245 0.09451 0.0
H425 H 0.2012 0.75738 0.12203 0.0
H426 H 0.2752 0.83041 0.12836 0.0
O427 O 0.26834 0.76764 0.12107 0.0
H428 H 0.18513 0.77412 0.1428 0.0
H429 H 0.25899 0.84759 0.14916 0.0
C430 C 0.22609 0.75139 0.09723 0.0
C431 C 0.22109 0.72575 0.09833 0.0
C432 C 0.19968 0.70443 0.08918 0.0
C433 C 0.18284 0.70838 0.07879 0.0
C434 C 0.18815 0.73421 0.0776 0.0
C435 C 0.20962 0.75554 0.08676 0.0
C436 C 0.27501 0.80157 0.09785 0.0
C437 C 0.29646 0.7993 0.09376 0.0
C438 C 0.31383 0.81637 0.08398 0.0
C439 C 0.30992 0.8359 0.07795 0.0
C440 C 0.28805 0.8378 0.08184 0.0
C441 C 0.27068 0.82069 0.09169 0.0
C442 C 0.2392 0.79289 0.12334 0.0
C443 C 0.21377 0.77735 0.12756 0.0
C444 C 0.20454 0.78698 0.13948 0.0
C445 C 0.2207 0.81227 0.1476 0.0
C446 C 0.24609 0.82799 0.14318 0.0
C447 C 0.25529 0.8183 0.13119 0.0
P448 P 0.19486 0.39299 0.08691 0.0
H449 H 0.15351 0.37363 0.06052 0.0
H450 H 0.12706 0.39078 0.04936 0.0
H451 H 0.16961 0.46087 0.08282 0.0
H452 H 0.19513 0.44265 0.09456 0.0
H453 H 0.22837 0.37148 0.07943 0.0
H454 H 0.27068 0.38958 0.06883 0.0
H455 H 0.27531 0.46505 0.0693 0.0
H456 H 0.23308 0.44687 0.08021 0.0
H457 H 0.15897 0.39409 0.10882 0.0
H458 H 0.23097 0.39194 0.11166 0.0
O459 O 0.17918 0.36106 0.08018 0.0
H460 H 0.15544 0.38742 0.13673 0.0
H461 H 0.22711 0.3843 0.13946 0.0
C462 C 0.1762 0.40676 0.07846 0.0
C463 C 0.15714 0.39265 0.06554 0.0
C464 C 0.14214 0.40267 0.05902 0.0
C465 C 0.14617 0.42736 0.06508 0.0
C466 C 0.16564 0.44166 0.07795 0.0
C467 C 0.18044 0.43139 0.0846 0.0
C468 C 0.22722 0.40763 0.08032 0.0
C469 C 0.23847 0.39195 0.07729 0.0
C470 C 0.26265 0.4023 0.07114 0.0
C471 C 0.27623 0.42867 0.06795 0.0
C472 C 0.2654 0.44467 0.07162 0.0
C473 C 0.24113 0.43423 0.07779 0.0
C474 C 0.19562 0.39424 0.1082 0.0
C475 C 0.17442 0.39287 0.11554 0.0
C476 C 0.1722 0.38862 0.13148 0.0
C477 C 0.19087 0.3851 0.14038 0.0
C478 C 0.21254 0.38729 0.13309 0.0
C479 C 0.2148 0.39169 0.11714 0.0
P480 P 0.45483 0.93639 0.26016 0.0
H481 H 0.43853 0.92302 0.29127 0.0
H482 H 0.3959 0.90446 0.30168 0.0
H483 H 0.35802 0.89281 0.25443 0.0
H484 H 0.40076 0.91129 0.24407 0.0
H485 H 0.51138 0.96091 0.26722 0.0
H486 H 0.54007 0.94443 0.27602 0.0
H487 H 0.4726 0.86635 0.27417 0.0
H488 H 0.44396 0.88304 0.26517 0.0
H489 H 0.45404 0.97554 0.24142 0.0
H490 H 0.45256 0.90198 0.23263 0.0
O491 O 0.46878 0.9669 0.26937 0.0
H492 H 0.45621 0.98111 0.21337 0.0
H493 H 0.45393 0.90697 0.20427 0.0
C494 C 0.42282 0.91842 0.26691 0.0
C495 C 0.42099 0.91603 0.28311 0.0
C496 C 0.39665 0.90561 0.28906 0.0
C497 C 0.37362 0.89737 0.2789 0.0
C498 C 0.37539 0.89882 0.26254 0.0
C499 C 0.39984 0.90942 0.2566 0.0
C500 C 0.47552 0.92332 0.26591 0.0
C501 C 0.50274 0.94025 0.26873 0.0
C502 C 0.51912 0.93081 0.2738 0.0
C503 C 0.50859 0.90415 0.276 0.0
C504 C 0.48132 0.88699 0.27257 0.0
C505 C 0.46491 0.89652 0.26753 0.0
C506 C 0.4537 0.93863 0.23914 0.0
C507 C 0.45394 0.96043 0.2334 0.0
C508 C 0.45493 0.96346 0.21728 0.0
C509 C 0.45538 0.94455 0.2065 0.0
C510 C 0.45408 0.92214 0.21226 0.0
C511 C 0.45317 0.91918 0.22845 0.0
P512 P 0.12385 0.56298 0.24821 0.0
H513 H 0.15053 0.58984 0.27916 0.0
H514 H 0.14786 0.62228 0.29717 0.0
H515 H 0.08514 0.61655 0.26511 0.0
H516 H 0.0873 0.58353 0.24748 0.0
H517 H 0.15394 0.53621 0.24601 0.0
H518 H 0.15476 0.50219 0.26045 0.0
H519 H 0.09284 0.49817 0.28681 0.0
H520 H 0.09196 0.53212 0.27214 0.0
H521 H 0.11823 0.58727 0.22093 0.0
H522 H 0.07689 0.51106 0.23781 0.0
O523 O 0.15351 0.58066 0.24217 0.0
H524 H 0.08724 0.57064 0.19693 0.0
H525 H 0.04579 0.49428 0.21378 0.0
C526 C 0.11928 0.58444 0.26196 0.0
C527 C 0.13594 0.5953 0.27615 0.0
C528 C 0.13446 0.6139 0.28639 0.0
C529 C 0.11642 0.62214 0.28251 0.0
C530 C 0.09906 0.61042 0.26853 0.0
C531 C 0.10047 0.59169 0.25834 0.0
C532 C 0.12329 0.53699 0.25828 0.0
C533 C 0.14057 0.52803 0.2549 0.0
C534 C 0.14108 0.50868 0.2632 0.0
C535 C 0.12412 0.49783 0.27491 0.0
C536 C 0.10613 0.50621 0.27785 0.0
C537 C 0.10572 0.52566 0.26956 0.0
C538 C 0.10005 0.55034 0.23102 0.0
C539 C 0.10241 0.56698 0.21948 0.0
C540 C 0.08458 0.55751 0.20585 0.0
C541 C 0.06411 0.53116 0.20351 0.0
C542 C 0.06152 0.51461 0.21524 0.0
C543 C 0.07928 0.5242 0.22897 0.0
P544 P 0.46377 0.5043 0.26311 0.0
H545 H 0.50287 0.5345 0.29032 0.0
H546 H 0.53028 0.58174 0.29852 0.0
H547 H 0.49352 0.59748 0.25857 0.0
H548 H 0.46592 0.55015 0.25057 0.0
H549 H 0.42481 0.45012 0.26605 0.0
H550 H 0.38227 0.42986 0.2766 0.0
H551 H 0.38935 0.50628 0.28518 0.0
H552 H 0.43155 0.52627 0.27431 0.0
H553 H 0.50592 0.52361 0.24323 0.0
H554 H 0.42135 0.47681 0.2365 0.0
O555 O 0.47907 0.48962 0.27082 0.0
H556 H 0.50721 0.52058 0.21459 0.0
H557 H 0.42255 0.47356 0.20768 0.0
C558 C 0.4827 0.53893 0.26972 0.0
C559 C 0.50069 0.54812 0.28335 0.0
C560 C 0.51644 0.57511 0.28796 0.0
C561 C 0.51427 0.59332 0.27907 0.0
C562 C 0.4956 0.58394 0.26568 0.0
C563 C 0.47993 0.55694 0.26105 0.0
C564 C 0.43151 0.4897 0.26961 0.0
C565 C 0.41711 0.46247 0.27013 0.0
C566 C 0.39289 0.45096 0.27625 0.0
C567 C 0.3826 0.46652 0.28194 0.0
C568 C 0.39668 0.49374 0.28085 0.0
C569 C 0.42093 0.50522 0.2747 0.0
C570 C 0.46358 0.50056 0.24196 0.0
C571 C 0.48762 0.51265 0.23556 0.0
C572 C 0.48833 0.51104 0.21921 0.0
C573 C 0.46496 0.49704 0.20893 0.0
C574 C 0.44084 0.48444 0.21536 0.0
C575 C 0.44014 0.48631 0.23181 0.0
Tb576 Tb 0.48475 0.97864 0.9871 0.0
Eu577 Eu 0.50545 0.01016 0.02326 0.0
C578 C 0.50896 0.95958 0.01344 0.0
C579 C 0.44794 0.96099 0.01398 0.0
C580 C 0.47466 0.96821 0.94337 0.0
C581 C 0.4695 0.96114 0.91463 0.0
C582 C 0.46435 0.95118 0.92927 0.0
C583 C 0.4899 0.99543 0.94268 0.0
C584 C 0.49515 0.00543 0.92805 0.0
C585 C 0.4852 0.98838 0.91381 0.0
C586 C 0.47048 0.95744 0.95873 0.0
O587 O 0.47161 0.00722 0.98921 0.0
O588 O 0.50326 0.03855 0.00794 0.0
O589 O 0.54135 0.02361 0.01015 0.0
O590 O 0.52083 0.01481 0.98488 0.0
C591 C 0.48527 0.03165 0.99594 0.0
O592 O 0.50028 0.03124 0.04356 0.0
O593 O 0.53231 0.02316 0.04493 0.0
O594 O 0.50156 0.97057 0.02427 0.0
O595 O 0.50858 0.96446 0.99862 0.0
O596 O 0.45645 0.9528 0.0022 0.0
O597 O 0.46144 0.98535 0.02068 0.0
C598 C 0.54221 0.02631 0.99494 0.0
O599 O 0.49158 0.96122 0.96701 0.0
O600 O 0.45576 0.96236 0.9675 0.0
C601 C 0.51136 0.02078 0.06802 0.0
C602 C 0.49673 0.00108 0.09736 0.0
C603 C 0.50529 0.02762 0.09555 0.0
C604 C 0.51258 0.03736 0.08103 0.0
C605 C 0.5025 0.9942 0.06966 0.0
C606 C 0.49536 0.98448 0.0842 0.0
C607 C 0.51877 0.03118 0.05274 0.0
H608 H 0.46113 0.94748 0.90393 0.0
H609 H 0.45252 0.93012 0.92957 0.0
H610 H 0.49809 0.0089 0.95348 0.0
H611 H 0.5075 0.02645 0.9279 0.0
H612 H 0.50612 0.04087 0.10531 0.0
H613 H 0.51908 0.05784 0.07993 0.0
H614 H 0.5012 0.98098 0.05971 0.0
H615 H 0.48914 0.96403 0.08517 0.0
Tb616 Tb 0.0084 0.50766 0.98856 0.0
Eu617 Eu 0.97395 0.49078 0.01889 0.0
C618 C 0.02663 0.54555 0.02032 0.0
C619 C 0.02439 0.48431 0.01634 0.0
C620 C 0.02911 0.51769 0.94775 0.0
C621 C 0.04457 0.5303 0.92228 0.0
C622 C 0.04932 0.53291 0.93874 0.0
C623 C 0.00399 0.49971 0.94016 0.0
C624 C 0.9992 0.49702 0.92364 0.0
C625 C 0.01946 0.51233 0.91452 0.0
C626 C 0.03447 0.52155 0.96505 0.0
O627 O 0.98234 0.46511 0.98427 0.0
O628 O 0.94888 0.46105 0.99829 0.0
O629 O 0.96256 0.5158 0.00543 0.0
O630 O 0.97153 0.50579 0.98101 0.0
C631 C 0.95791 0.45157 0.98757 0.0
O632 O 0.94906 0.46107 0.03357 0.0
O633 O 0.95822 0.5014 0.03881 0.0
O634 O 0.01314 0.52556 0.02822 0.0
O635 O 0.02241 0.54334 0.00481 0.0
O636 O 0.03279 0.5024 0.00652 0.0
O637 O 1.00025 0.47328 0.02019 0.0
C638 C 0.95948 0.51451 0.98993 0.0
O639 O 0.02581 0.53526 0.97245 0.0
O640 O 0.0299 0.50087 0.97198 0.0
C641 C 0.95625 0.4781 0.06036 0.0
C642 C 0.9745 0.48292 0.09244 0.0
C643 C 0.95161 0.48388 0.08824 0.0
C644 C 0.94257 0.48151 0.07231 0.0
C645 C 0.97874 0.47652 0.06447 0.0
C646 C 0.98769 0.47874 0.08036 0.0
C647 C 0.94825 0.4782 0.04372 0.0
H648 H 0.06047 0.54271 0.91564 0.0
H649 H 0.06876 0.54705 0.94447 0.0
H650 H 0.98813 0.48788 0.947 0.0
H651 H 0.97972 0.48284 0.91802 0.0
H652 H 0.9412 0.4874 0.09726 0.0
H653 H 0.92532 0.48302 0.06931 0.0
H654 H 0.98969 0.47408 0.05539 0.0
H655 H 0.00515 0.47752 0.08318 0.0
Tb656 Tb 0.50239 0.49762 0.02094 0.0
Eu657 Eu 0.47786 0.50656 0.98769 0.0
C658 C 0.47734 0.45316 0.99252 0.0
C659 C 0.53561 0.51433 0.99159 0.0
C660 C 0.51205 0.49082 0.06338 0.0
C661 C 0.50666 0.4734 0.08876 0.0
C662 C 0.51377 0.47374 0.07339 0.0
C663 C 0.50298 0.50752 0.06888 0.0
C664 C 0.49607 0.50735 0.0843 0.0
C665 C 0.49783 0.49028 0.09445 0.0
C666 C 0.51864 0.49008 0.04706 0.0
O667 O 0.50115 0.53354 0.02597 0.0
O668 O 0.50593 0.54611 0.00106 0.0
O669 O 0.45069 0.50446 0.00566 0.0
O670 O 0.4603 0.48058 0.02221 0.0
C671 C 0.50841 0.55192 0.01643 0.0
O672 O 0.48128 0.53216 0.96956 0.0
O673 O 0.44803 0.49261 0.96734 0.0
O674 O 0.46336 0.46323 0.98719 0.0
O675 O 0.49713 0.46632 0.00358 0.0
O676 O 0.53579 0.51696 0.00712 0.0
O677 O 0.51395 0.50552 0.98203 0.0
C678 C 0.44509 0.48966 0.01731 0.0
O679 O 0.50013 0.47136 0.03706 0.0
O680 O 0.53003 0.51247 0.0411 0.0
C681 C 0.46787 0.50881 0.94433 0.0
C682 C 0.48523 0.50394 0.91484 0.0
C683 C 0.47282 0.51883 0.91712 0.0
C684 C 0.46428 0.52131 0.9318 0.0
C685 C 0.47979 0.49356 0.94202 0.0
C686 C 0.48832 0.49109 0.92742 0.0
C687 C 0.46155 0.51347 0.96021 0.0
H688 H 0.5078 0.45966 0.09613 0.0
H689 H 0.52038 0.46046 0.06926 0.0
H690 H 0.50123 0.52066 0.06125 0.0
H691 H 0.48964 0.52082 0.08833 0.0
H692 H 0.47036 0.52914 0.90771 0.0
H693 H 0.45542 0.53343 0.93346 0.0
H694 H 0.48293 0.48393 0.95162 0.0
H695 H 0.49741 0.47915 0.92599 0.0
Tb696 Tb 0.1551 0.31415 0.32156 0.0
Eu697 Eu 0.1752 0.35055 0.35647 0.0
C698 C 0.18631 0.30332 0.34797 0.0
C699 C 0.12139 0.29646 0.35014 0.0
C700 C 0.14765 0.30081 0.27837 0.0
C701 C 0.14338 0.29359 0.24963 0.0
C702 C 0.13761 0.2837 0.26427 0.0
C703 C 0.16366 0.32794 0.27766 0.0
C704 C 0.16937 0.33785 0.26304 0.0
C705 C 0.15925 0.32081 0.24882 0.0
C706 C 0.14125 0.29057 0.29379 0.0
O707 O 0.15644 0.35068 0.31798 0.0
O708 O 0.14896 0.36141 0.34262 0.0
O709 O 0.20419 0.37606 0.34043 0.0
O710 O 0.19666 0.34255 0.32144 0.0
C711 C 0.14852 0.3632 0.32735 0.0
O712 O 0.16556 0.36884 0.37605 0.0
O713 O 0.20305 0.37055 0.37772 0.0
O714 O 0.19596 0.32748 0.35469 0.0
O715 O 0.16606 0.29245 0.33701 0.0
O716 O 0.12092 0.29917 0.33493 0.0
O717 O 0.14297 0.31036 0.35976 0.0
C718 C 0.21088 0.36707 0.32805 0.0
O719 O 0.16087 0.2928 0.30301 0.0
O720 O 0.12711 0.29781 0.30154 0.0
C721 C 0.18155 0.36465 0.4009 0.0
C722 C 0.16872 0.3454 0.43052 0.0
C723 C 0.18013 0.37249 0.42911 0.0
C724 C 0.18644 0.382 0.41442 0.0
C725 C 0.17042 0.33767 0.40222 0.0
C726 C 0.16407 0.32813 0.41689 0.0
C727 C 0.1865 0.37443 0.38529 0.0
H728 H 0.13504 0.27996 0.23891 0.0
H729 H 0.12517 0.26273 0.26459 0.0
H730 H 0.17171 0.34148 0.28843 0.0
H731 H 0.18192 0.35885 0.26288 0.0
H732 H 0.18365 0.3863 0.4393 0.0
H733 H 0.19476 0.40284 0.41358 0.0
H734 H 0.16639 0.32395 0.39188 0.0
H735 H 0.15562 0.30723 0.41755 0.0
Tb736 Tb 0.67951 0.83906 0.32226 0.0
Eu737 Eu 0.64589 0.82519 0.35321 0.0
C738 C 0.69778 0.8807 0.35218 0.0
C739 C 0.69688 0.81976 0.35224 0.0
C740 C 0.69853 0.8492 0.28102 0.0
C741 C 0.70747 0.87213 0.25748 0.0
C742 C 0.71206 0.87235 0.2738 0.0
C743 C 0.68015 0.82576 0.27164 0.0
C744 C 0.67574 0.82549 0.25529 0.0
C745 C 0.68942 0.84865 0.24805 0.0
C746 C 0.70441 0.84993 0.2982 0.0
O747 O 0.64299 0.80264 0.31434 0.0
O748 O 0.63426 0.78732 0.33849 0.0
O749 O 0.62032 0.82775 0.33368 0.0
O750 O 0.65304 0.85467 0.3193 0.0
C751 C 0.63103 0.78325 0.32299 0.0
O752 O 0.62568 0.7979 0.37024 0.0
O753 O 0.62544 0.8345 0.37078 0.0
O754 O 0.67384 0.86891 0.3563 0.0
O755 O 0.70492 0.86945 0.34128 0.0
O756 O 0.69396 0.81866 0.33669 0.0
O757 O 0.68367 0.82685 0.36123 0.0
C758 C 0.62878 0.84423 0.32296 0.0
O759 O 0.70199 0.86709 0.30732 0.0
O760 O 0.69512 0.82744 0.30399 0.0
C761 C 0.62748 0.81844 0.39544 0.0
C762 C 0.64571 0.82775 0.42795 0.0
C763 C 0.63647 0.80294 0.41947 0.0
C764 C 0.62731 0.7983 0.40343 0.0
C765 C 0.63564 0.84292 0.40405 0.0
C766 C 0.64464 0.84751 0.42015 0.0
C767 C 0.6202 0.81397 0.37812 0.0
H768 H 0.71846 0.89021 0.25219 0.0
H769 H 0.72638 0.89062 0.28079 0.0
H770 H 0.6693 0.8076 0.27688 0.0
H771 H 0.66153 0.80718 0.2483 0.0
H772 H 0.63725 0.78735 0.42506 0.0
H773 H 0.62085 0.77912 0.39715 0.0
H774 H 0.63564 0.85875 0.39831 0.0
H775 H 0.65117 0.86669 0.42643 0.0
Tb776 Tb 0.17232 0.84068 0.35448 0.0
Eu777 Eu 0.14718 0.84859 0.32117 0.0
C778 C 0.14017 0.79369 0.32844 0.0
C779 C 0.20383 0.85195 0.32462 0.0
C780 C 0.18029 0.83002 0.39644 0.0
C781 C 0.1439 0.81367 0.41256 0.0
C782 C 0.1532 0.81771 0.39768 0.0
C783 C 0.1979 0.8379 0.41016 0.0
C784 C 0.18866 0.83405 0.42501 0.0
C785 C 0.16161 0.82219 0.42639 0.0
C786 C 0.19065 0.83695 0.38117 0.0
O787 O 0.19389 0.88166 0.35009 0.0
O788 O 0.15949 0.88398 0.33864 0.0
O789 O 0.11367 0.83083 0.3362 0.0
O790 O 0.13794 0.84256 0.36056 0.0
C791 C 0.18259 0.89534 0.34688 0.0
O792 O 0.14953 0.87399 0.30312 0.0
O793 O 0.11802 0.83337 0.30044 0.0
O794 O 0.14673 0.81043 0.31788 0.0
O795 O 0.1427 0.80159 0.34357 0.0
O796 O 0.19812 0.83986 0.33749 0.0
O797 O 0.18925 0.86066 0.31815 0.0
C798 C 0.11546 0.8337 0.35177 0.0
O799 O 0.18074 0.81821 0.36941 0.0
O800 O 0.19269 0.8586 0.37691 0.0
C801 C 0.1382 0.85077 0.27781 0.0
C802 C 0.15437 0.84458 0.24811 0.0
C803 C 0.13847 0.85596 0.24974 0.0
C804 C 0.13042 0.859 0.2645 0.0
C805 C 0.15413 0.83954 0.27624 0.0
C806 C 0.16211 0.83644 0.26155 0.0
C807 C 0.13078 0.85465 0.2935 0.0
H808 H 0.12298 0.80468 0.41331 0.0
H809 H 0.13934 0.81181 0.38718 0.0
H810 H 0.21886 0.8476 0.4094 0.0
H811 H 0.2027 0.84055 0.43547 0.0
H812 H 0.13207 0.86227 0.23958 0.0
H813 H 0.11825 0.86786 0.26554 0.0
H814 H 0.16059 0.83335 0.28644 0.0
H815 H 0.1747 0.82804 0.26076 0.0
Tb816 Tb 0.81838 0.64121 0.65479 0.0
Eu817 Eu 0.83968 0.67703 0.68993 0.0
C818 C 0.84803 0.62822 0.68101 0.0
C819 C 0.78432 0.6245 0.68321 0.0
C820 C 0.81113 0.62745 0.61137 0.0
C821 C 0.79766 0.6287 0.58401 0.0
C822 C 0.79152 0.61876 0.5986 0.0
C823 C 0.83707 0.64626 0.60929 0.0
C824 C 0.84327 0.65604 0.59466 0.0
C825 C 0.82363 0.64751 0.58182 0.0
C826 C 0.80404 0.6179 0.62697 0.0
O827 O 0.82087 0.67837 0.65138 0.0
O828 O 0.81556 0.69054 0.6764 0.0
O829 O 0.86865 0.70196 0.67368 0.0
O830 O 0.86037 0.66797 0.65491 0.0
C831 C 0.81464 0.69207 0.66111 0.0
O832 O 0.83114 0.69548 0.70998 0.0
O833 O 0.86842 0.69668 0.71081 0.0
O834 O 0.8588 0.6525 0.68774 0.0
O835 O 0.82762 0.61816 0.67018 0.0
O836 O 0.78425 0.6276 0.66807 0.0
O837 O 0.80586 0.63748 0.69298 0.0
C838 C 0.87517 0.69243 0.66146 0.0
O839 O 0.82254 0.61837 0.63642 0.0
O840 O 0.79085 0.62661 0.6345 0.0
C841 C 0.84837 0.69178 0.73458 0.0
C842 C 0.83642 0.67315 0.76445 0.0
C843 C 0.84237 0.69887 0.7621 0.0
C844 C 0.8483 0.70807 0.74731 0.0
C845 C 0.8426 0.66617 0.73683 0.0
C846 C 0.8368 0.65698 0.75164 0.0
C847 C 0.85245 0.70095 0.71878 0.0
H848 H 0.78189 0.62198 0.57453 0.0
H849 H 0.77134 0.60454 0.6 0.0
H850 H 0.85258 0.65356 0.61899 0.0
H851 H 0.86352 0.6702 0.59342 0.0
H852 H 0.84182 0.71174 0.77157 0.0
H853 H 0.85232 0.72776 0.74574 0.0
H854 H 0.84227 0.65316 0.72708 0.0
H855 H 0.83263 0.6372 0.75303 0.0
Tb856 Tb 0.33439 0.16299 0.65463 0.0
Eu857 Eu 0.30212 0.15069 0.68604 0.0
C858 C 0.35329 0.20521 0.68379 0.0
C859 C 0.35182 0.14323 0.68421 0.0
C860 C 0.35398 0.17493 0.61371 0.0
C861 C 0.37012 0.19379 0.58952 0.0
C862 C 0.37455 0.19231 0.60561 0.0
C863 C 0.32875 0.15915 0.60558 0.0
C864 C 0.32433 0.16049 0.58943 0.0
C865 C 0.34501 0.1778 0.58124 0.0
C866 C 0.35934 0.17379 0.63061 0.0
O867 O 0.29718 0.12719 0.64729 0.0
O868 O 0.29028 0.11235 0.67161 0.0
O869 O 0.27623 0.15444 0.66734 0.0
O870 O 0.30812 0.17891 0.6516 0.0
C871 C 0.28608 0.10791 0.65611 0.0
O872 O 0.27695 0.12251 0.70139 0.0
O873 O 0.28978 0.16369 0.70681 0.0
O874 O 0.32901 0.19453 0.68722 0.0
O875 O 0.36034 0.19258 0.67382 0.0
O876 O 0.34807 0.14152 0.66865 0.0
O877 O 0.33968 0.15148 0.69337 0.0
C878 C 0.28443 0.16991 0.65608 0.0
O879 O 0.35842 0.19127 0.64033 0.0
O880 O 0.3479 0.15055 0.63553 0.0
C881 C 0.28797 0.13995 0.72813 0.0
C882 C 0.30826 0.14235 0.75937 0.0
C883 C 0.2852 0.14356 0.75642 0.0
C884 C 0.27514 0.14239 0.74088 0.0
C885 C 0.31066 0.13824 0.73101 0.0
C886 C 0.32071 0.13942 0.74648 0.0
C887 C 0.2787 0.1406 0.71188 0.0
H888 H 0.38648 0.20707 0.58348 0.0
H889 H 0.39411 0.20466 0.61173 0.0
H890 H 0.31255 0.14579 0.61171 0.0
H891 H 0.30475 0.14811 0.58335 0.0
H892 H 0.27509 0.14566 0.76612 0.0
H893 H 0.25763 0.1438 0.73883 0.0
H894 H 0.32091 0.1365 0.72131 0.0
H895 H 0.33876 0.13891 0.74833 0.0
Tb896 Tb 0.83962 0.1664 0.6904 0.0
Eu897 Eu 0.81204 0.16969 0.65648 0.0
C898 C 0.8118 0.11838 0.66483 0.0
C899 C 0.87129 0.18047 0.66019 0.0
C900 C 0.85144 0.16368 0.73365 0.0
C901 C 0.83367 0.14066 0.75651 0.0
C902 C 0.83993 0.14042 0.74096 0.0
C903 C 0.85679 0.18732 0.74228 0.0
C904 C 0.85068 0.18759 0.75789 0.0
C905 C 0.83906 0.16426 0.7652 0.0
C906 C 0.85779 0.16279 0.71714 0.0
O907 O 0.83807 0.2024 0.69274 0.0
O908 O 0.84227 0.21066 0.66701 0.0
O909 O 0.78561 0.16908 0.67456 0.0
O910 O 0.79774 0.14912 0.69285 0.0
C911 C 0.84547 0.21902 0.68208 0.0
O912 O 0.80327 0.19152 0.63977 0.0
O913 O 0.78912 0.15014 0.63367 0.0
O914 O 0.79637 0.12719 0.66013 0.0
O915 O 0.83361 0.13372 0.67404 0.0
O916 O 0.87217 0.18383 0.67575 0.0
O917 O 0.84925 0.17095 0.65086 0.0
C918 C 0.78144 0.15643 0.68715 0.0
O919 O 0.84032 0.14265 0.70745 0.0
O920 O 0.86739 0.18456 0.71048 0.0
C921 C 0.80424 0.17711 0.61337 0.0
C922 C 0.82595 0.18072 0.58439 0.0
C923 C 0.79855 0.16817 0.58471 0.0
C924 C 0.78781 0.16637 0.59909 0.0
C925 C 0.83159 0.19034 0.61311 0.0
C926 C 0.84235 0.19224 0.59875 0.0
C927 C 0.79289 0.17192 0.62852 0.0
H928 H 0.8244 0.12226 0.76166 0.0
H929 H 0.83565 0.12194 0.73462 0.0
H930 H 0.86579 0.20564 0.73703 0.0
H931 H 0.85546 0.20618 0.76431 0.0
H932 H 0.78532 0.15872 0.57393 0.0
H933 H 0.76666 0.15578 0.5991 0.0
H934 H 0.84463 0.19854 0.62404 0.0
H935 H 0.86352 0.2023 0.59894 0.0
C936 C 0.3197 0.8604 0.05392 0.0
C937 C 0.32873 0.85417 0.06769 0.0
C938 C 0.33738 0.87727 0.04403 0.0
C939 C 0.36472 0.8882 0.04802 0.0
C940 C 0.37394 0.88207 0.06193 0.0
C941 C 0.35585 0.86515 0.07158 0.0
C942 C 0.32684 0.88341 0.02932 0.0
C943 C 0.40295 0.89352 0.0667 0.0
C944 C 0.4132 0.91493 0.01735 0.0
C945 C 0.42439 0.94215 0.02116 0.0
C946 C 0.39308 0.89704 0.02563 0.0
C947 C 0.38388 0.90663 0.03794 0.0
C948 C 0.39428 0.93403 0.04133 0.0
C949 C 0.4144 0.95144 0.03293 0.0
C950 C 0.38248 0.86794 0.02169 0.0
C951 C 0.38494 0.94507 0.0543 0.0
H952 H 0.29877 0.85177 0.05076 0.0
H953 H 0.36298 0.86074 0.08231 0.0
H954 H 0.33465 0.90491 0.02985 0.0
H955 H 0.33352 0.87755 0.01869 0.0
H956 H 0.30504 0.87317 0.02782 0.0
H957 H 0.40687 0.8864 0.07772 0.0
H958 H 0.41196 0.88834 0.05706 0.0
H959 H 0.41288 0.91531 0.0686 0.0
H960 H 0.42082 0.90757 0.00831 0.0
H961 H 0.42278 0.97243 0.0359 0.0
H962 H 0.36072 0.85725 0.01969 0.0
H963 H 0.38801 0.86016 0.03183 0.0
H964 H 0.39015 0.86357 0.01101 0.0
H965 H 0.36322 0.93553 0.0527 0.0
H966 H 0.39351 0.96668 0.05461 0.0
H967 H 0.39047 0.94081 0.06596 0.0
C968 C 0.12187 0.43293 0.04169 0.0
C969 C 0.12982 0.43776 0.05805 0.0
C970 C 0.10514 0.44106 0.03499 0.0
C971 C 0.0965 0.45492 0.0448 0.0
C972 C 0.10505 0.46063 0.06124 0.0
C973 C 0.1214 0.45181 0.06768 0.0
C974 C 0.09635 0.43438 0.01743 0.0
C975 C 0.09658 0.47571 0.07207 0.0
C976 C 0.07007 0.49375 0.02431 0.0
C977 C 0.04284 0.47695 0.02376 0.0
C978 C 0.08777 0.48711 0.03142 0.0
C979 C 0.07802 0.46285 0.03787 0.0
C980 C 0.05054 0.44581 0.03734 0.0
C981 C 0.0333 0.45317 0.03043 0.0
C982 C 0.1169 0.50607 0.03204 0.0
C983 C 0.03933 0.41958 0.04384 0.0
H984 H 0.12868 0.42267 0.03403 0.0
H985 H 0.12708 0.45544 0.08035 0.0
H986 H 0.07461 0.42223 0.01542 0.0
H987 H 0.10218 0.45263 0.01178 0.0
H988 H 0.1048 0.42344 0.01143 0.0
H989 H 0.10619 0.47994 0.08438 0.0
H990 H 0.10132 0.49461 0.06753 0.0
H991 H 0.07499 0.46427 0.07232 0.0
H992 H 0.07761 0.51229 0.01934 0.0
H993 H 0.01229 0.44006 0.03001 0.0
H994 H 0.12619 0.49677 0.02526 0.0
H995 H 0.12614 0.51097 0.04447 0.0
H996 H 0.1213 0.52461 0.02709 0.0
H997 H 0.04612 0.40731 0.0376 0.0
H998 H 0.01751 0.40862 0.04254 0.0
H999 H 0.04649 0.42249 0.05658 0.0
C1000 C 0.56251 0.70321 0.04741 0.0
C1001 C 0.58883 0.71517 0.0538 0.0
C1002 C 0.54816 0.67627 0.04199 0.0
C1003 C 0.5606 0.6611 0.04279 0.0
C1004 C 0.58709 0.67304 0.04943 0.0
C1005 C 0.60085 0.69993 0.05496 0.0
C1006 C 0.51984 0.66415 0.03518 0.0
C1007 C 0.60112 0.65757 0.05029 0.0
C1008 C 0.51986 0.58648 0.03911 0.0
C1009 C 0.52067 0.57978 0.02311 0.0
C1010 C 0.53238 0.61292 0.04565 0.0
C1011 C 0.54632 0.63304 0.03599 0.0
C1012 C 0.54705 0.62639 0.01981 0.0
C1013 C 0.53408 0.59986 0.01355 0.0
C1014 C 0.5309 0.61931 0.0629 0.0
C1015 C 0.56196 0.64729 0.00918 0.0
H1016 H 0.55312 0.71495 0.04668 0.0
H1017 H 0.62128 0.70924 0.05978 0.0
H1018 H 0.5176 0.65701 0.02247 0.0
H1019 H 0.50716 0.64688 0.04131 0.0
H1020 H 0.51266 0.67831 0.03625 0.0
H1021 H 0.62148 0.66959 0.05625 0.0
H1022 H 0.59015 0.64026 0.05679 0.0
H1023 H 0.60194 0.65004 0.03816 0.0
H1024 H 0.50946 0.57107 0.04656 0.0
H1025 H 0.53495 0.59486 0.00119 0.0
H1026 H 0.5228 0.63267 0.06407 0.0
H1027 H 0.55089 0.62978 0.0694 0.0
H1028 H 0.51847 0.60142 0.06864 0.0
H1029 H 0.55436 0.66109 0.00892 0.0
H1030 H 0.56049 0.63883 0.99684 0.0
H1031 H 0.58301 0.65896 0.01392 0.0
C1032 C 0.87817 0.29704 0.9683 0.0
C1033 C 0.86275 0.28723 0.9536 0.0
C1034 C 0.89339 0.32417 0.97297 0.0
C1035 C 0.89311 0.342 0.96274 0.0
C1036 C 0.87753 0.33228 0.94791 0.0
C1037 C 0.86256 0.305 0.9435 0.0
C1038 C 0.90973 0.33377 0.9889 0.0
C1039 C 0.87672 0.3507 0.93671 0.0
C1040 C 0.91424 0.41005 0.9827 0.0
C1041 C 0.94069 0.4243 0.97989 0.0
C1042 C 0.89827 0.38348 0.97671 0.0
C1043 C 0.90901 0.37079 0.96773 0.0
C1044 C 0.9354 0.38526 0.96436 0.0
C1045 C 0.95091 0.41187 0.97044 0.0
C1046 C 0.87014 0.36876 0.98044 0.0
C1047 C 0.94755 0.37239 0.95484 0.0
H1048 H 0.87811 0.28345 0.97627 0.0
H1049 H 0.85096 0.29759 0.93204 0.0
H1050 H 0.93069 0.34697 0.98735 0.0
H1051 H 0.90345 0.34538 0.99634 0.0
H1052 H 0.90807 0.31735 0.99535 0.0
H1053 H 0.86348 0.33999 0.92565 0.0
H1054 H 0.86995 0.36327 0.9426 0.0
H1055 H 0.89674 0.36398 0.93353 0.0
H1056 H 0.90607 0.4195 0.98988 0.0
H1057 H 0.9713 0.4227 0.96817 0.0
H1058 H 0.86749 0.35331 0.9881 0.0
H1059 H 0.85668 0.35873 0.9694 0.0
H1060 H 0.86425 0.3819 0.98661 0.0
H1061 H 0.94843 0.35719 0.96142 0.0
H1062 H 0.96774 0.38676 0.95234 0.0
H1063 H 0.93527 0.3623 0.94342 0.0
C1064 C 0.67421 0.58208 0.95736 0.0
C1065 C 0.68203 0.56444 0.95169 0.0
C1066 C 0.64998 0.57314 0.96343 0.0
C1067 C 0.63316 0.54585 0.96401 0.0
C1068 C 0.64079 0.52788 0.95814 0.0
C1069 C 0.66507 0.53738 0.95194 0.0
C1070 C 0.64245 0.59295 0.96933 0.0
C1071 C 0.62351 0.49867 0.95867 0.0
C1072 C 0.58335 0.52758 0.99409 0.0
C1073 C 0.56041 0.52149 0.98454 0.0
C1074 C 0.60697 0.53484 0.9875 0.0
C1075 C 0.60779 0.53633 0.97098 0.0
C1076 C 0.58463 0.52991 0.96125 0.0
C1077 C 0.56124 0.52247 0.96812 0.0
C1078 C 0.63117 0.54128 0.99827 0.0
C1079 C 0.58466 0.53145 0.94361 0.0
H1080 H 0.68709 0.60299 0.95699 0.0
H1081 H 0.67111 0.52369 0.94767 0.0
H1082 H 0.62336 0.58822 0.96302 0.0
H1083 H 0.63995 0.592 0.98212 0.0
H1084 H 0.65739 0.6134 0.96763 0.0
H1085 H 0.63204 0.48726 0.9534 0.0
H1086 H 0.62051 0.49452 0.97113 0.0
H1087 H 0.60388 0.49161 0.95222 0.0
H1088 H 0.5829 0.52672 0.00676 0.0
H1089 H 0.54367 0.51783 0.9606 0.0
H1090 H 0.64638 0.56221 0.99811 0.0
H1091 H 0.63958 0.52919 0.99395 0.0
H1092 H 0.62697 0.53782 0.0107 0.0
H1093 H 0.5982 0.55197 0.94131 0.0
H1094 H 0.56482 0.52499 0.93762 0.0
H1095 H 0.59195 0.51902 0.93817 0.0
C1096 C 0.46399 0.14262 0.95877 0.0
C1097 C 0.4802 0.15123 0.94654 0.0
C1098 C 0.46315 0.12305 0.96764 0.0
C1099 C 0.47888 0.11189 0.96416 0.0
C1100 C 0.49518 0.12042 0.95178 0.0
C1101 C 0.49562 0.13997 0.94312 0.0
C1102 C 0.44553 0.11439 0.98075 0.0
C1103 C 0.51215 0.10887 0.94767 0.0
C1104 C 0.49806 0.07871 0.9946 0.0
C1105 C 0.48157 0.05205 0.98897 0.0
C1106 C 0.49675 0.09842 0.98696 0.0
C1107 C 0.47846 0.09127 0.97342 0.0
C1108 C 0.46101 0.06438 0.96808 0.0
C1109 C 0.4628 0.04509 0.9759 0.0
C1110 C 0.51571 0.12691 0.99297 0.0
C1111 C 0.44116 0.056 0.95371 0.0
H1112 H 0.45222 0.15145 0.96156 0.0
H1113 H 0.50784 0.14624 0.93351 0.0
H1114 H 0.43143 0.09293 0.97856 0.0
H1115 H 0.45743 0.11806 0.99222 0.0
H1116 H 0.4343 0.12483 0.98184 0.0
H1117 H 0.52381 0.11778 0.93775 0.0
H1118 H 0.52585 0.11189 0.95816 0.0
H1119 H 0.4997 0.08734 0.9443 0.0
H1120 H 0.51262 0.0843 0.00468 0.0
H1121 H 0.44991 0.02454 0.97148 0.0
H1122 H 0.50497 0.1377 0.99472 0.0
H1123 H 0.52949 0.13636 0.98405 0.0
H1124 H 0.52734 0.12917 0.00433 0.0
H1125 H 0.42942 0.06585 0.95485 0.0
H1126 H 0.42757 0.03437 0.9519 0.0
H1127 H 0.45151 0.06208 0.94298 0.0
C1128 C 0.67806 0.12714 0.96277 0.0
C1129 C 0.69026 0.11356 0.95696 0.0
C1130 C 0.65403 0.11389 0.9692 0.0
C1131 C 0.64191 0.08642 0.96984 0.0
C1132 C 0.65406 0.07259 0.96395 0.0
C1133 C 0.67808 0.08632 0.95759 0.0
C1134 C 0.6416 0.12929 0.97528 0.0
C1135 C 0.64175 0.04329 0.96444 0.0
C1136 C 0.59141 0.05404 0.99877 0.0
C1137 C 0.56776 0.04275 0.9888 0.0
C1138 C 0.61569 0.06863 0.99281 0.0
C1139 C 0.61634 0.07201 0.97649 0.0
C1140 C 0.59254 0.06104 0.96642 0.0
C1141 C 0.56858 0.04656 0.97268 0.0
C1142 C 0.64068 0.08007 0.00392 0.0
C1143 C 0.59238 0.06422 0.94896 0.0
H1144 H 0.68722 0.14814 0.96217 0.0
H1145 H 0.68757 0.07576 0.95337 0.0
H1146 H 0.6219 0.12151 0.96873 0.0
H1147 H 0.63879 0.12694 0.98796 0.0
H1148 H 0.65365 0.15059 0.97404 0.0
H1149 H 0.65371 0.03545 0.95936 0.0
H1150 H 0.63929 0.03864 0.97685 0.0
H1151 H 0.62191 0.03287 0.95773 0.0
H1152 H 0.591 0.05121 0.01122 0.0
H1153 H 0.55046 0.038 0.96485 0.0
H1154 H 0.65261 0.10161 0.00349 0.0
H1155 H 0.65266 0.07142 1.0001 0.0
H1156 H 0.63681 0.07635 0.01636 0.0
H1157 H 0.60313 0.0854 0.94726 0.0
H1158 H 0.57215 0.0551 0.94283 0.0
H1159 H 0.60268 0.05506 0.9432 0.0
C1160 C 0.88375 0.57787 0.94708 0.0
C1161 C 0.85684 0.56476 0.94899 0.0
C1162 C 0.90022 0.56897 0.95311 0.0
C1163 C 0.88951 0.54599 0.96094 0.0
C1164 C 0.86221 0.53199 0.96233 0.0
C1165 C 0.84626 0.54165 0.95647 0.0
C1166 C 0.92925 0.58463 0.95149 0.0
C1167 C 0.84996 0.50715 0.97036 0.0
C1168 C 0.93089 0.51355 0.96656 0.0
C1169 C 0.94156 0.52243 0.98244 0.0
C1170 C 0.91353 0.52063 0.95947 0.0
C1171 C 0.90713 0.53744 0.96837 0.0
C1172 C 0.91802 0.54661 0.98436 0.0
C1173 C 0.93488 0.53879 0.99123 0.0
C1174 C 0.90194 0.51004 0.94249 0.0
C1175 C 0.91212 0.56498 0.99417 0.0
H1176 H 0.8921 0.59533 0.94097 0.0
H1177 H 0.82561 0.53144 0.95818 0.0
H1178 H 0.94051 0.59191 0.96342 0.0
H1179 H 0.93568 0.57192 0.9454 0.0
H1180 H 0.93441 0.60175 0.94477 0.0
H1181 H 0.82819 0.49735 0.96928 0.0
H1182 H 0.85555 0.49309 0.96518 0.0
H1183 H 0.85743 0.51184 0.98312 0.0
H1184 H 0.93581 0.50072 0.95973 0.0
H1185 H 0.94316 0.54586 0.00348 0.0
H1186 H 0.90782 0.52652 0.93514 0.0
H1187 H 0.88018 0.49926 0.94175 0.0
H1188 H 0.90831 0.49659 0.93734 0.0
H1189 H 0.91819 0.58318 0.98841 0.0
H1190 H 0.92235 0.57051 0.00639 0.0
H1191 H 0.89069 0.55559 0.9949 0.0
C1192 C 0.45254 0.31313 0.95379 0.0
C1193 C 0.46866 0.31824 0.94152 0.0
C1194 C 0.45122 0.33354 0.96237 0.0
C1195 C 0.4665 0.35962 0.95862 0.0
C1196 C 0.48242 0.3648 0.94605 0.0
C1197 C 0.4833 0.34405 0.93766 0.0
C1198 C 0.43389 0.32729 0.97563 0.0
C1199 C 0.49912 0.3924 0.94176 0.0
C1200 C 0.45297 0.41398 0.97205 0.0
C1201 C 0.47253 0.42766 0.98483 0.0
C1202 C 0.45002 0.39111 0.96376 0.0
C1203 C 0.46713 0.38184 0.96833 0.0
C1204 C 0.48623 0.39498 0.98158 0.0
C1205 C 0.48865 0.41768 0.98969 0.0
C1206 C 0.4293 0.37746 0.94975 0.0
C1207 C 0.50487 0.38572 0.98681 0.0
H1208 H 0.44095 0.29315 0.95668 0.0
H1209 H 0.49607 0.34816 0.92833 0.0
H1210 H 0.44615 0.33708 0.9871 0.0
H1211 H 0.42036 0.33506 0.9739 0.0
H1212 H 0.42208 0.30581 0.97644 0.0
H1213 H 0.50951 0.39292 0.93122 0.0
H1214 H 0.48678 0.40131 0.9393 0.0
H1215 H 0.51396 0.40486 0.95188 0.0
H1216 H 0.44035 0.42147 0.96824 0.0
H1217 H 0.50375 0.42801 0.99959 0.0
H1218 H 0.41736 0.35609 0.95076 0.0
H1219 H 0.43888 0.37964 0.9387 0.0
H1220 H 0.416 0.38564 0.94865 0.0
H1221 H 0.49375 0.36462 0.98865 0.0
H1222 H 0.51749 0.39714 0.99794 0.0
H1223 H 0.51773 0.38765 0.9774 0.0
C1224 C 0.13512 0.68429 0.06829 0.0
C1225 C 0.15951 0.68552 0.06955 0.0
C1226 C 0.1127 0.66229 0.06017 0.0
C1227 C 0.11472 0.64102 0.05315 0.0
C1228 C 0.13934 0.64228 0.05419 0.0
C1229 C 0.16143 0.66452 0.06237 0.0
C1230 C 0.08677 0.66162 0.05931 0.0
C1231 C 0.14231 0.62003 0.0468 0.0
C1232 C 0.05433 0.57277 0.04529 0.0
C1233 C 0.04798 0.57064 0.0289 0.0
C1234 C 0.07568 0.59577 0.05339 0.0
C1235 C 0.09105 0.61719 0.0449 0.0
C1236 C 0.08437 0.61544 0.02843 0.0
C1237 C 0.06293 0.59219 0.02063 0.0
C1238 C 0.08219 0.5969 0.07096 0.0
C1239 C 0.10024 0.6379 0.01899 0.0
H1240 H 0.13342 0.7003 0.07398 0.0
H1241 H 0.18028 0.6655 0.06311 0.0
H1242 H 0.07847 0.65838 0.04677 0.0
H1243 H 0.07248 0.64494 0.06527 0.0
H1244 H 0.08866 0.6801 0.06498 0.0
H1245 H 0.16289 0.62424 0.0485 0.0
H1246 H 0.1296 0.60171 0.05206 0.0
H1247 H 0.1358 0.61625 0.03391 0.0
H1248 H 0.04293 0.55626 0.0518 0.0
H1249 H 0.05818 0.59078 0.00797 0.0
H1250 H 0.08302 0.61437 0.07735 0.0
H1251 H 0.10186 0.59898 0.07329 0.0
H1252 H 0.06761 0.57903 0.07595 0.0
H1253 H 0.10143 0.6562 0.02432 0.0
H1254 H 0.09176 0.63389 0.00642 0.0
H1255 H 0.12062 0.6416 0.01932 0.0
C1256 C 0.30358 0.42369 0.04808 0.0
C1257 C 0.30121 0.43908 0.06047 0.0
C1258 C 0.32704 0.4328 0.04103 0.0
C1259 C 0.34878 0.45798 0.04646 0.0
C1260 C 0.34647 0.4738 0.05883 0.0
C1261 C 0.32271 0.46418 0.06567 0.0
C1262 C 0.3286 0.41534 0.02784 0.0
C1263 C 0.36921 0.50072 0.06498 0.0
C1264 C 0.41598 0.4689 0.0385 0.0
C1265 C 0.42078 0.48239 0.025 0.0
C1266 C 0.39294 0.46138 0.04578 0.0
C1267 C 0.37408 0.46736 0.03941 0.0
C1268 C 0.37896 0.48134 0.02595 0.0
C1269 C 0.40225 0.48873 0.01893 0.0
C1270 C 0.3886 0.44664 0.06016 0.0
C1271 C 0.35935 0.48811 0.01881 0.0
H1272 H 0.28695 0.40448 0.04378 0.0
H1273 H 0.32114 0.47612 0.07531 0.0
H1274 H 0.33396 0.42568 0.01708 0.0
H1275 H 0.34422 0.41086 0.03136 0.0
H1276 H 0.30979 0.3965 0.02478 0.0
H1277 H 0.36401 0.51091 0.0743 0.0
H1278 H 0.38599 0.49897 0.06998 0.0
H1279 H 0.37597 0.51313 0.05513 0.0
H1280 H 0.43023 0.46409 0.0434 0.0
H1281 H 0.40576 0.4992 0.00855 0.0
H1282 H 0.37101 0.42672 0.05747 0.0
H1283 H 0.38482 0.45696 0.07013 0.0
H1284 H 0.40568 0.44452 0.06407 0.0
H1285 H 0.3406 0.4698 0.01457 0.0
H1286 H 0.36649 0.49992 0.00872 0.0
H1287 H 0.355 0.49934 0.02793 0.0
C1288 C 0.56498 0.8666 0.03943 0.0
C1289 C 0.58993 0.88266 0.04784 0.0
C1290 C 0.55036 0.87743 0.03327 0.0
C1291 C 0.56107 0.90501 0.03541 0.0
C1292 C 0.58635 0.92136 0.04372 0.0
C1293 C 0.6004 0.90999 0.0499 0.0
C1294 C 0.52341 0.85937 0.02454 0.0
C1295 C 0.59847 0.95089 0.04618 0.0
C1296 C 0.53527 0.93774 0.00849 0.0
C1297 C 0.5201 0.94328 0.01839 0.0
C1298 C 0.54827 0.92473 0.01374 0.0
C1299 C 0.54577 0.91686 0.02919 0.0
C1300 C 0.52963 0.92145 0.03899 0.0
C1301 C 0.51709 0.93473 0.0335 0.0
C1302 C 0.56547 0.92034 0.003 0.0
C1303 C 0.5262 0.91301 0.05545 0.0
H1304 H 0.5569 0.84551 0.03755 0.0
H1305 H 0.61948 0.92253 0.05658 0.0
H1306 H 0.50851 0.86191 0.03051 0.0
H1307 H 0.5227 0.86453 0.0123 0.0
H1308 H 0.51788 0.83834 0.02393 0.0
H1309 H 0.61864 0.96089 0.05248 0.0
H1310 H 0.59932 0.95866 0.03458 0.0
H1311 H 0.58611 0.9561 0.05314 0.0
H1312 H 0.53777 0.94437 0.99682 0.0
H1313 H 0.50525 0.93877 0.04118 0.0
H1314 H 0.55989 0.89931 0.00172 0.0
H1315 H 0.58623 0.93184 0.00831 0.0
H1316 H 0.56415 0.9263 0.99102 0.0
H1317 H 0.51974 0.89179 0.05502 0.0
H1318 H 0.51164 0.91653 0.06117 0.0
H1319 H 0.54528 0.92401 0.063 0.0
C1320 C 0.99629 0.22146 0.39721 0.0
C1321 C 0.98738 0.19446 0.39637 0.0
C1322 C 0.01637 0.23784 0.38836 0.0
C1323 C 0.02804 0.22698 0.37864 0.0
C1324 C 0.01854 0.1996 0.37738 0.0
C1325 C 0.99827 0.18367 0.38621 0.0
C1326 C 0.02577 0.2669 0.38988 0.0
C1327 C 0.03069 0.18731 0.36734 0.0
C1328 C 0.07239 0.26692 0.34843 0.0
C1329 C 0.0973 0.27787 0.35694 0.0
C1330 C 0.04956 0.2504 0.35534 0.0
C1331 C 0.05179 0.24453 0.37103 0.0
C1332 C 0.07691 0.25526 0.37957 0.0
C1333 C 0.09928 0.27182 0.37246 0.0
C1334 C 0.02306 0.2395 0.34596 0.0
C1335 C 0.08022 0.24932 0.39628 0.0
H1336 H 0.98775 0.22982 0.40494 0.0
H1337 H 0.9917 0.16286 0.38568 0.0
H1338 H 0.046 0.27805 0.39605 0.0
H1339 H 0.0265 0.2737 0.37798 0.0
H1340 H 0.01295 0.2718 0.39662 0.0
H1341 H 0.01967 0.1655 0.36661 0.0
H1342 H 0.0315 0.1931 0.35516 0.0
H1343 H 0.05119 0.1946 0.37244 0.0
H1344 H 0.0707 0.27164 0.33649 0.0
H1345 H 0.11843 0.28006 0.37913 0.0
H1346 H 0.01103 0.24597 0.3523 0.0
H1347 H 0.01238 0.21769 0.34483 0.0
H1348 H 0.02466 0.24592 0.3339 0.0
H1349 H 0.06979 0.25589 0.40414 0.0
H1350 H 0.10117 0.25912 0.40124 0.0
H1351 H 0.07135 0.22778 0.39651 0.0
C1352 C 0.80835 0.79631 0.39441 0.0
C1353 C 0.7989 0.76922 0.39404 0.0
C1354 C 0.79247 0.80573 0.38806 0.0
C1355 C 0.76646 0.78764 0.38127 0.0
C1356 C 0.75669 0.7603 0.38112 0.0
C1357 C 0.77301 0.75145 0.38747 0.0
C1358 C 0.80365 0.83502 0.38837 0.0
C1359 C 0.72902 0.74034 0.37414 0.0
C1360 C 0.71619 0.8098 0.37608 0.0
C1361 C 0.71533 0.81244 0.35981 0.0
C1362 C 0.73301 0.80214 0.38327 0.0
C1363 C 0.74952 0.79715 0.37403 0.0
C1364 C 0.7491 0.80026 0.35768 0.0
C1365 C 0.73198 0.80776 0.35076 0.0
C1366 C 0.73274 0.79891 0.40072 0.0
C1367 C 0.76651 0.7953 0.34742 0.0
H1368 H 0.82838 0.81015 0.39936 0.0
H1369 H 0.76542 0.7305 0.38738 0.0
H1370 H 0.80374 0.84025 0.37609 0.0
H1371 H 0.79112 0.84101 0.39454 0.0
H1372 H 0.824 0.8465 0.3944 0.0
H1373 H 0.72421 0.71981 0.37528 0.0
H1374 H 0.71475 0.74396 0.38012 0.0
H1375 H 0.72636 0.74239 0.3614 0.0
H1376 H 0.70343 0.81333 0.38319 0.0
H1377 H 0.73162 0.80988 0.33822 0.0
H1378 H 0.75282 0.81129 0.40696 0.0
H1379 H 0.72639 0.77817 0.4024 0.0
H1380 H 0.71936 0.80432 0.40636 0.0
H1381 H 0.78734 0.80757 0.3525 0.0
H1382 H 0.76468 0.79966 0.33507 0.0
H1383 H 0.76135 0.77443 0.34712 0.0
C1384 C 0.26236 0.05258 0.36506 0.0
C1385 C 0.26726 0.05977 0.3815 0.0
C1386 C 0.24827 0.02604 0.35871 0.0
C1387 C 0.23848 0.00625 0.36904 0.0
C1388 C 0.24304 0.01332 0.38563 0.0
C1389 C 0.25759 0.03996 0.39165 0.0
C1390 C 0.24406 0.01918 0.34095 0.0
C1391 C 0.23272 0.99274 0.39702 0.0
C1392 C 0.18316 0.93758 0.35337 0.0
C1393 C 0.19678 0.92389 0.35189 0.0
C1394 C 0.1965 0.96451 0.35883 0.0
C1395 C 0.22412 0.97805 0.36258 0.0
C1396 C 0.23802 0.96444 0.36069 0.0
C1397 C 0.22414 0.93745 0.35551 0.0
C1398 C 0.18101 0.97833 0.36097 0.0
C1399 C 0.26753 0.97831 0.36429 0.0
H1400 H 0.26936 0.06771 0.35711 0.0
H1401 H 0.26164 0.04524 0.40437 0.0
H1402 H 0.25268 0.00682 0.33763 0.0
H1403 H 0.22275 0.00749 0.33689 0.0
H1404 H 0.25303 0.03692 0.33454 0.0
H1405 H 0.23686 0.00156 0.40955 0.0
H1406 H 0.21119 0.97965 0.39421 0.0
H1407 H 0.24179 0.98026 0.39577 0.0
H1408 H 0.16199 0.92709 0.35065 0.0
H1409 H 0.23479 0.92698 0.35422 0.0
H1410 H 0.18852 0.9955 0.35409 0.0
H1411 H 0.18351 0.98593 0.37362 0.0
H1412 H 0.15972 0.96514 0.35715 0.0
H1413 H 0.27692 0.99551 0.35748 0.0
H1414 H 0.27548 0.96517 0.36138 0.0
H1415 H 0.27322 0.98585 0.37704 0.0
C1416 C 0.52126 0.63886 0.28386 0.0
C1417 C 0.53157 0.62198 0.28375 0.0
C1418 C 0.53726 0.66581 0.28896 0.0
C1419 C 0.56418 0.67607 0.29403 0.0
C1420 C 0.57486 0.65927 0.29346 0.0
C1421 C 0.55841 0.63242 0.28835 0.0
C1422 C 0.52515 0.68311 0.28947 0.0
C1423 C 0.60351 0.66951 0.2987 0.0
C1424 C 0.61149 0.74998 0.29887 0.0
C1425 C 0.61343 0.75609 0.3153 0.0
C1426 C 0.5953 0.72403 0.2917 0.0
C1427 C 0.58071 0.70384 0.30118 0.0
C1428 C 0.58233 0.70998 0.31771 0.0
C1429 C 0.59867 0.73598 0.32456 0.0
C1430 C 0.59406 0.71814 0.27403 0.0
C1431 C 0.56701 0.68902 0.32823 0.0
H1432 H 0.50049 0.63084 0.28041 0.0
H1433 H 0.56656 0.61952 0.288 0.0
H1434 H 0.52562 0.69022 0.30196 0.0
H1435 H 0.53666 0.70068 0.28328 0.0
H1436 H 0.50447 0.67256 0.28396 0.0
H1437 H 0.60911 0.65428 0.29648 0.0
H1438 H 0.61607 0.68663 0.29243 0.0
H1439 H 0.60775 0.67639 0.31157 0.0
H1440 H 0.62283 0.76539 0.29164 0.0
H1441 H 0.59991 0.74048 0.33725 0.0
H1442 H 0.57343 0.70852 0.26854 0.0
H1443 H 0.60115 0.70417 0.27152 0.0
H1444 H 0.60608 0.73614 0.26828 0.0
H1445 H 0.54574 0.67882 0.32407 0.0
H1446 H 0.56995 0.69719 0.34081 0.0
H1447 H 0.57311 0.67401 0.32758 0.0
C1448 C 0.3471 0.90364 0.29877 0.0
C1449 C 0.34818 0.8889 0.28549 0.0
C1450 C 0.32326 0.89661 0.30494 0.0
C1451 C 0.29986 0.87413 0.29776 0.0
C1452 C 0.30082 0.85896 0.28445 0.0
C1453 C 0.32496 0.86662 0.27841 0.0
C1454 C 0.32306 0.91354 0.319 0.0
C1455 C 0.27635 0.83471 0.27657 0.0
C1456 C 0.24284 0.84585 0.32297 0.0
C1457 C 0.22778 0.85654 0.31731 0.0
C1458 C 0.26595 0.85079 0.31642 0.0
C1459 C 0.27436 0.867 0.304 0.0
C1460 C 0.25901 0.87747 0.29805 0.0
C1461 C 0.2359 0.87203 0.30472 0.0
C1462 C 0.28162 0.83903 0.32298 0.0
C1463 C 0.26734 0.89496 0.28489 0.0
H1464 H 0.3649 0.92112 0.30414 0.0
H1465 H 0.32571 0.85506 0.26822 0.0
H1466 H 0.31018 0.92156 0.31576 0.0
H1467 H 0.3149 0.90151 0.32887 0.0
H1468 H 0.343 0.93022 0.32332 0.0
H1469 H 0.28053 0.8246 0.26664 0.0
H1470 H 0.26694 0.82068 0.28536 0.0
H1471 H 0.26195 0.84013 0.2719 0.0
H1472 H 0.23668 0.8337 0.3326 0.0
H1473 H 0.22442 0.88035 0.30019 0.0
H1474 H 0.30116 0.85496 0.32851 0.0
H1475 H 0.28501 0.82792 0.31326 0.0
H1476 H 0.27165 0.82561 0.33198 0.0
H1477 H 0.28643 0.91308 0.28884 0.0
H1478 H 0.25273 0.90074 0.2812 0.0
H1479 H 0.27022 0.88481 0.27442 0.0
C1480 C 0.15013 0.48213 0.29006 0.0
C1481 C 0.1256 0.47812 0.28413 0.0
C1482 C 0.15214 0.46319 0.29811 0.0
C1483 C 0.12904 0.43964 0.30026 0.0
C1484 C 0.10415 0.43579 0.29473 0.0
C1485 C 0.10272 0.45515 0.28673 0.0
C1486 C 0.17904 0.46805 0.30391 0.0
C1487 C 0.07913 0.41087 0.29678 0.0
C1488 C 0.13899 0.38166 0.30407 0.0
C1489 C 0.14107 0.38125 0.32054 0.0
C1490 C 0.13412 0.39998 0.2973 0.0
C1491 C 0.13123 0.41837 0.30725 0.0
C1492 C 0.13231 0.41747 0.32384 0.0
C1493 C 0.1372 0.39886 0.33032 0.0
C1494 C 0.13303 0.40024 0.27953 0.0
C1495 C 0.12928 0.4368 0.33479 0.0
H1496 H 0.16783 0.50011 0.28832 0.0
H1497 H 0.08374 0.45195 0.28209 0.0
H1498 H 0.18015 0.46565 0.31669 0.0
H1499 H 0.18267 0.45335 0.2975 0.0
H1500 H 0.19494 0.48803 0.30211 0.0
H1501 H 0.06134 0.41185 0.29297 0.0
H1502 H 0.07831 0.39394 0.28969 0.0
H1503 H 0.07871 0.40694 0.30935 0.0
H1504 H 0.1417 0.36796 0.29639 0.0
H1505 H 0.1387 0.39861 0.34305 0.0
H1506 H 0.14966 0.41891 0.27658 0.0
H1507 H 0.11464 0.39931 0.27479 0.0
H1508 H 0.13406 0.38359 0.27342 0.0
H1509 H 0.14612 0.45692 0.33446 0.0
H1510 H 0.12841 0.4321 0.34723 0.0
H1511 H 0.11119 0.43705 0.33079 0.0
C1512 C 0.35269 0.4354 0.29976 0.0
C1513 C 0.35761 0.4544 0.28935 0.0
C1514 C 0.32896 0.42312 0.30653 0.0
C1515 C 0.30964 0.43002 0.30285 0.0
C1516 C 0.31471 0.44965 0.29266 0.0
C1517 C 0.33865 0.46161 0.28603 0.0
C1518 C 0.32434 0.4023 0.31736 0.0
C1519 C 0.29455 0.45748 0.28844 0.0
C1520 C 0.23985 0.3767 0.30636 0.0
C1521 C 0.2355 0.38449 0.3213 0.0
C1522 C 0.26356 0.39182 0.30003 0.0
C1523 C 0.28354 0.41534 0.30884 0.0
C1524 C 0.27903 0.42382 0.32369 0.0
C1525 C 0.25498 0.4083 0.32974 0.0
C1526 C 0.26748 0.38216 0.28409 0.0
C1527 C 0.29988 0.44884 0.33339 0.0
H1528 H 0.36747 0.43012 0.30265 0.0
H1529 H 0.34225 0.47616 0.27792 0.0
H1530 H 0.31902 0.40721 0.32886 0.0
H1531 H 0.30761 0.38306 0.31199 0.0
H1532 H 0.34184 0.40013 0.31964 0.0
H1533 H 0.30223 0.47437 0.28129 0.0
H1534 H 0.27696 0.44058 0.28158 0.0
H1535 H 0.28807 0.46281 0.29935 0.0
H1536 H 0.22478 0.35852 0.29962 0.0
H1537 H 0.25175 0.41448 0.34126 0.0
H1538 H 0.28334 0.37734 0.28556 0.0
H1539 H 0.27369 0.3978 0.27608 0.0
H1540 H 0.24938 0.36438 0.27831 0.0
H1541 H 0.31704 0.44679 0.33713 0.0
H1542 H 0.29265 0.45367 0.34414 0.0
H1543 H 0.30689 0.46555 0.32615 0.0
C1544 C 0.52339 0.87086 0.27565 0.0
C1545 C 0.52603 0.8946 0.28227 0.0
C1546 C 0.53992 0.86185 0.28153 0.0
C1547 C 0.5594 0.87685 0.2944 0.0
C1548 C 0.56209 0.90079 0.30113 0.0
C1549 C 0.54543 0.90937 0.29498 0.0
C1550 C 0.53655 0.83631 0.27397 0.0
C1551 C 0.58242 0.91724 0.31496 0.0
C1552 C 0.58596 0.84358 0.32042 0.0
C1553 C 0.61067 0.85174 0.31516 0.0
C1554 C 0.56893 0.85124 0.31358 0.0
C1555 C 0.57667 0.86734 0.3011 0.0
C1556 C 0.60133 0.87521 0.2955 0.0
C1557 C 0.61807 0.8674 0.30263 0.0
C1558 C 0.54286 0.84253 0.31995 0.0
C1559 C 0.61022 0.89224 0.28215 0.0
H1560 H 0.50861 0.85948 0.26574 0.0
H1561 H 0.54733 0.92753 0.3003 0.0
H1562 H 0.55521 0.83973 0.26963 0.0
H1563 H 0.53173 0.82215 0.28289 0.0
H1564 H 0.52078 0.8272 0.26389 0.0
H1565 H 0.58218 0.93551 0.31872 0.0
H1566 H 0.57891 0.90564 0.32519 0.0
H1567 H 0.60232 0.92275 0.31178 0.0
H1568 H 0.58 0.83149 0.33008 0.0
H1569 H 0.63703 0.87369 0.29841 0.0
H1570 H 0.52661 0.83205 0.31024 0.0
H1571 H 0.54209 0.85999 0.32491 0.0
H1572 H 0.53941 0.82936 0.32937 0.0
H1573 H 0.59533 0.88298 0.27164 0.0
H1574 H 0.62937 0.89558 0.27864 0.0
H1575 H 0.61215 0.91159 0.28577 0.0
C1576 C 0.09417 0.64442 0.2951 0.0
C1577 C 0.11734 0.64452 0.29219 0.0
C1578 C 0.09506 0.66682 0.30263 0.0
C1579 C 0.11969 0.68979 0.30727 0.0
C1580 C 0.14312 0.68955 0.30505 0.0
C1581 C 0.14165 0.66695 0.29752 0.0
C1582 C 0.06968 0.6663 0.30493 0.0
C1583 C 0.16979 0.71369 0.30981 0.0
C1584 C 0.12782 0.75743 0.30696 0.0
C1585 C 0.13167 0.76595 0.32319 0.0
C1586 C 0.12263 0.73217 0.30165 0.0
C1587 C 0.12123 0.71495 0.31283 0.0
C1588 C 0.12376 0.72289 0.32921 0.0
C1589 C 0.12897 0.74837 0.33422 0.0
C1590 C 0.11995 0.7244 0.28405 0.0
C1591 C 0.12222 0.70497 0.34146 0.0
H1592 H 0.07532 0.627 0.2912 0.0
H1593 H 0.15964 0.66733 0.29513 0.0
H1594 H 0.07026 0.6744 0.31719 0.0
H1595 H 0.06702 0.67891 0.29679 0.0
H1596 H 0.05239 0.6461 0.30252 0.0
H1597 H 0.18604 0.70954 0.30858 0.0
H1598 H 0.1725 0.72929 0.30227 0.0
H1599 H 0.17128 0.72158 0.32227 0.0
H1600 H 0.12959 0.77078 0.29834 0.0
H1601 H 0.13181 0.75477 0.34679 0.0
H1602 H 0.1017 0.70527 0.28048 0.0
H1603 H 0.13669 0.7219 0.28113 0.0
H1604 H 0.11959 0.73931 0.27691 0.0
H1605 H 0.10474 0.68509 0.33833 0.0
H1606 H 0.1213 0.71275 0.35351 0.0
H1607 H 0.13979 0.70271 0.34174 0.0
C1608 C 0.81426 0.99759 0.4095 0.0
C1609 C 0.82112 0.02279 0.40561 0.0
C1610 C 0.79305 0.97501 0.40098 0.0
C1611 C 0.77826 0.97767 0.38827 0.0
C1612 C 0.7846 0.00305 0.38454 0.0
C1613 C 0.80598 0.02533 0.39325 0.0
C1614 C 0.78686 0.94828 0.40536 0.0
C1615 C 0.76925 0.00665 0.37107 0.0
C1616 C 0.74351 0.91928 0.35656 0.0
C1617 C 0.71782 0.90642 0.36082 0.0
C1618 C 0.76319 0.9428 0.36518 0.0
C1619 C 0.75707 0.95379 0.3784 0.0
C1620 C 0.73105 0.9413 0.38256 0.0
C1621 C 0.71172 0.91776 0.37372 0.0
C1622 C 0.79071 0.95554 0.36036 0.0
C1623 C 0.72379 0.95248 0.39658 0.0
H1624 H 0.82558 0.99551 0.41922 0.0
H1625 H 0.8113 0.04473 0.39009 0.0
H1626 H 0.76604 0.93678 0.40773 0.0
H1627 H 0.78953 0.93715 0.39531 0.0
H1628 H 0.79957 0.94964 0.41597 0.0
H1629 H 0.77559 0.02768 0.37035 0.0
H1630 H 0.77183 0.99834 0.35969 0.0
H1631 H 0.74797 0.99581 0.37247 0.0
H1632 H 0.74844 0.91078 0.34658 0.0
H1633 H 0.69194 0.90801 0.37712 0.0
H1634 H 0.80432 0.95573 0.37002 0.0
H1635 H 0.79764 0.97629 0.35842 0.0
H1636 H 0.79199 0.94511 0.34938 0.0
H1637 H 0.73465 0.95231 0.40763 0.0
H1638 H 0.70242 0.94118 0.39774 0.0
H1639 H 0.72958 0.97326 0.39548 0.0
C1640 C 0.98607 0.76158 0.39506 0.0
C1641 C 0.97305 0.77582 0.39727 0.0
C1642 C 0.00975 0.77217 0.38816 0.0
C1643 C 0.021 0.79784 0.38349 0.0
C1644 C 0.00849 0.8127 0.38616 0.0
C1645 C 0.98464 0.8015 0.39296 0.0
C1646 C 0.02242 0.75563 0.38554 0.0
C1647 C 0.01999 0.84023 0.38149 0.0
C1648 C 0.09308 0.83073 0.37635 0.0
C1649 C 0.09139 0.8261 0.35979 0.0
C1650 C 0.07041 0.82226 0.38419 0.0
C1651 C 0.04536 0.80863 0.3753 0.0
C1652 C 0.04352 0.80427 0.35858 0.0
C1653 C 0.06651 0.81314 0.35103 0.0
C1654 C 0.07328 0.82746 0.40202 0.0
C1655 C 0.01718 0.78957 0.34867 0.0
H1656 H 0.97762 0.74195 0.39865 0.0
H1657 H 0.97469 0.81262 0.39447 0.0
H1658 H 0.02343 0.7522 0.37269 0.0
H1659 H 0.04285 0.76616 0.39141 0.0
H1660 H 0.01149 0.73627 0.39016 0.0
H1661 H 0.00877 0.84979 0.38524 0.0
H1662 H 0.04068 0.85256 0.38684 0.0
H1663 H 0.02011 0.83966 0.36844 0.0
H1664 H 0.11216 0.84075 0.38327 0.0
H1665 H 0.06492 0.80935 0.33826 0.0
H1666 H 0.06415 0.80855 0.40724 0.0
H1667 H 0.06282 0.8379 0.40561 0.0
H1668 H 0.09416 0.83941 0.40713 0.0
H1669 H 0.00591 0.76924 0.35193 0.0
H1670 H 0.0191 0.78851 0.33577 0.0
H1671 H 0.00555 0.79923 0.35106 0.0
C1672 C 0.24465 0.22311 0.38904 0.0
C1673 C 0.26421 0.22243 0.38081 0.0
C1674 C 0.23044 0.23447 0.38309 0.0
C1675 C 0.2361 0.24566 0.36863 0.0
C1676 C 0.25543 0.24459 0.3601 0.0
C1677 C 0.26919 0.2329 0.36626 0.0
C1678 C 0.20993 0.23522 0.39252 0.0
C1679 C 0.26206 0.25641 0.34466 0.0
C1680 C 0.18762 0.26143 0.34784 0.0
C1681 C 0.19884 0.28827 0.35304 0.0
C1682 C 0.19952 0.24721 0.35279 0.0
C1683 C 0.22322 0.26023 0.36308 0.0
C1684 C 0.2347 0.28733 0.36826 0.0
C1685 C 0.22235 0.30098 0.36323 0.0
C1686 C 0.18668 0.21826 0.34712 0.0
C1687 C 0.26005 0.30196 0.37917 0.0
H1688 H 0.24088 0.21535 0.40038 0.0
H1689 H 0.28393 0.23202 0.35969 0.0
H1690 H 0.2163 0.2559 0.39686 0.0
H1691 H 0.19108 0.22719 0.38489 0.0
H1692 H 0.20644 0.22385 0.40288 0.0
H1693 H 0.27657 0.25268 0.33906 0.0
H1694 H 0.24405 0.24827 0.33622 0.0
H1695 H 0.27027 0.27798 0.34678 0.0
H1696 H 0.16945 0.25145 0.34 0.0
H1697 H 0.23128 0.32175 0.36726 0.0
H1698 H 0.18188 0.20672 0.35742 0.0
H1699 H 0.20046 0.21432 0.34081 0.0
H1700 H 0.16838 0.2111 0.33905 0.0
H1701 H 0.25759 0.29302 0.39045 0.0
H1702 H 0.26658 0.32314 0.38193 0.0
H1703 H 0.27582 0.30035 0.37367 0.0
C1704 C 0.65489 0.51407 0.7158 0.0
C1705 C 0.64731 0.5254 0.72788 0.0
C1706 C 0.67584 0.52975 0.70733 0.0
C1707 C 0.68926 0.55745 0.71086 0.0
C1708 C 0.68088 0.56905 0.72255 0.0
C1709 C 0.66016 0.55285 0.73105 0.0
C1710 C 0.68449 0.5166 0.69519 0.0
C1711 C 0.69441 0.59852 0.72646 0.0
C1712 C 0.76103 0.59661 0.70409 0.0
C1713 C 0.75976 0.60636 0.68969 0.0
C1714 C 0.7382 0.58039 0.71095 0.0
C1715 C 0.71345 0.57411 0.70337 0.0
C1716 C 0.71198 0.58377 0.68878 0.0
C1717 C 0.73519 0.5996 0.68201 0.0
C1718 C 0.74061 0.57009 0.72637 0.0
C1719 C 0.68597 0.57783 0.68051 0.0
H1720 H 0.64518 0.49283 0.71347 0.0
H1721 H 0.65419 0.5616 0.74033 0.0
H1722 H 0.68592 0.52504 0.68379 0.0
H1723 H 0.70433 0.52028 0.69934 0.0
H1724 H 0.67084 0.49501 0.69303 0.0
H1725 H 0.68383 0.60447 0.73462 0.0
H1726 H 0.71464 0.60607 0.73214 0.0
H1727 H 0.69605 0.60809 0.71547 0.0
H1728 H 0.77996 0.60161 0.71003 0.0
H1729 H 0.73415 0.60728 0.67094 0.0
H1730 H 0.72866 0.54829 0.725 0.0
H1731 H 0.73289 0.57749 0.73574 0.0
H1732 H 0.76125 0.57607 0.73043 0.0
H1733 H 0.67263 0.55625 0.67801 0.0
H1734 H 0.68816 0.58667 0.66918 0.0
H1735 H 0.67639 0.5855 0.68835 0.0
C1736 C 0.4664 0.1215 0.7226 0.0
C1737 C 0.45605 0.09564 0.72643 0.0
C1738 C 0.44997 0.13019 0.71613 0.0
C1739 C 0.42252 0.1126 0.71337 0.0
C1740 C 0.41191 0.08663 0.71746 0.0
C1741 C 0.42875 0.07852 0.72397 0.0
C1742 C 0.46204 0.15807 0.71198 0.0
C1743 C 0.38274 0.06729 0.71476 0.0
C1744 C 0.37607 0.13938 0.70818 0.0
C1745 C 0.37024 0.13577 0.69164 0.0
C1746 C 0.39323 0.13219 0.71541 0.0
C1747 C 0.40489 0.1211 0.70589 0.0
C1748 C 0.39925 0.11757 0.68919 0.0
C1749 C 0.38204 0.12497 0.68227 0.0
C1750 C 0.39876 0.13634 0.73324 0.0
C1751 C 0.4112 0.10572 0.67863 0.0
H1752 H 0.48746 0.1348 0.72429 0.0
H1753 H 0.4205 0.05866 0.72716 0.0
H1754 H 0.45823 0.15791 0.69904 0.0
H1755 H 0.45285 0.16824 0.71797 0.0
H1756 H 0.48358 0.1696 0.71543 0.0
H1757 H 0.37756 0.04795 0.71883 0.0
H1758 H 0.37196 0.07531 0.72112 0.0
H1759 H 0.37581 0.06415 0.70197 0.0
H1760 H 0.36723 0.14786 0.71555 0.0
H1761 H 0.37771 0.1221 0.6695 0.0
H1762 H 0.42016 0.14918 0.73677 0.0
H1763 H 0.39269 0.11724 0.7379 0.0
H1764 H 0.38831 0.14542 0.73895 0.0
H1765 H 0.43294 0.11751 0.68076 0.0
H1766 H 0.40516 0.10468 0.66585 0.0
H1767 H 0.40523 0.08556 0.68149 0.0
C1768 C 0.9423 0.37168 0.70885 0.0
C1769 C 0.92899 0.38467 0.71354 0.0
C1770 C 0.92847 0.34482 0.70323 0.0
C1771 C 0.90069 0.33077 0.70217 0.0
C1772 C 0.88713 0.34395 0.70654 0.0
C1773 C 0.90147 0.37075 0.71224 0.0
C1774 C 0.94358 0.33135 0.69878 0.0
C1775 C 0.85751 0.32966 0.70541 0.0
C1776 C 0.86427 0.26553 0.67602 0.0
C1777 C 0.8586 0.24755 0.68722 0.0
C1778 C 0.87772 0.29271 0.68073 0.0
C1779 C 0.88585 0.30207 0.69699 0.0
C1780 C 0.88001 0.28402 0.70835 0.0
C1781 C 0.86635 0.25697 0.70333 0.0
C1782 C 0.88341 0.31141 0.66831 0.0
C1783 C 0.88851 0.2933 0.7258 0.0
H1784 H 0.96359 0.38238 0.70998 0.0
H1785 H 0.89114 0.38087 0.71567 0.0
H1786 H 0.93967 0.31572 0.70656 0.0
H1787 H 0.93696 0.3217 0.68643 0.0
H1788 H 0.9651 0.34526 0.69985 0.0
H1789 H 0.84996 0.34303 0.70866 0.0
H1790 H 0.84901 0.32002 0.69318 0.0
H1791 H 0.85043 0.31394 0.71339 0.0
H1792 H 0.85828 0.2584 0.66355 0.0
H1793 H 0.86217 0.24322 0.71206 0.0
H1794 H 0.90494 0.32436 0.66843 0.0
H1795 H 0.87513 0.32429 0.67101 0.0
H1796 H 0.87514 0.30093 0.6562 0.0
H1797 H 0.9102 0.30589 0.72783 0.0
H1798 H 0.88232 0.2767 0.73311 0.0
H1799 H 0.8801 0.30547 0.72996 0.0
C1800 C 0.17845 0.96141 0.61939 0.0
C1801 C 0.19043 0.94692 0.61495 0.0
C1802 C 0.19355 0.98813 0.62526 0.0
C1803 C 0.22129 0.00058 0.62681 0.0
C1804 C 0.2335 0.98619 0.62205 0.0
C1805 C 0.21791 0.95954 0.61614 0.0
C1806 C 0.17984 0.00289 0.63009 0.0
C1807 C 0.26303 0.99874 0.62364 0.0
C1808 C 0.26241 0.07526 0.63206 0.0
C1809 C 0.26906 0.08057 0.64853 0.0
C1810 C 0.24666 0.04932 0.6248 0.0
C1811 C 0.23754 0.02823 0.63424 0.0
C1812 C 0.24412 0.03348 0.65086 0.0
C1813 C 0.25971 0.05956 0.6578 0.0
C1814 C 0.23989 0.04445 0.60705 0.0
C1815 C 0.23488 0.0115 0.66132 0.0
H1816 H 0.1572 0.95179 0.61829 0.0
H1817 H 0.22725 0.94834 0.61287 0.0
H1818 H 0.18443 0.00924 0.64302 0.0
H1819 H 0.18704 0.02091 0.62401 0.0
H1820 H 0.15817 0.99076 0.6273 0.0
H1821 H 0.26944 0.98522 0.61868 0.0
H1822 H 0.27186 0.01675 0.6175 0.0
H1823 H 0.2709 0.0048 0.63633 0.0
H1824 H 0.2695 0.09137 0.6248 0.0
H1825 H 0.26479 0.06343 0.67053 0.0
H1826 H 0.21825 0.03339 0.60409 0.0
H1827 H 0.24749 0.03217 0.60181 0.0
H1828 H 0.24816 0.06302 0.60143 0.0
H1829 H 0.21311 -0.0003 0.65988 0.0
H1830 H 0.24169 0.01892 0.67405 0.0
H1831 H 0.24219 0.99809 0.65774 0.0
C1832 C 0.00156 0.20572 0.62085 0.0
C1833 C 0.01515 0.23156 0.61682 0.0
C1834 C 0.97778 0.1962 0.62764 0.0
C1835 C 0.96733 0.21292 0.63054 0.0
C1836 C 0.9807 0.23885 0.62626 0.0
C1837 C 0.00432 0.24779 0.61942 0.0
C1838 C 0.96402 0.16838 0.63194 0.0
C1839 C 0.9702 0.25729 0.62907 0.0
C1840 C 0.89503 0.18403 0.63619 0.0
C1841 C 0.89585 0.18791 0.65274 0.0
C1842 C 0.91802 0.19162 0.62884 0.0
C1843 C 0.94258 0.20351 0.63822 0.0
C1844 C 0.94356 0.20721 0.65493 0.0
C1845 C 0.92021 0.19935 0.66199 0.0
C1846 C 0.91604 0.18728 0.61099 0.0
C1847 C 0.96936 0.21991 0.66536 0.0
H1848 H 0.00984 0.1931 0.61905 0.0
H1849 H 0.01438 0.26761 0.61609 0.0
H1850 H 0.96289 0.16859 0.64491 0.0
H1851 H 0.94358 0.15741 0.62607 0.0
H1852 H 0.97423 0.15759 0.62846 0.0
H1853 H 0.98283 0.27678 0.62495 0.0
H1854 H 0.95013 0.24853 0.62284 0.0
H1855 H 0.96874 0.2603 0.6419 0.0
H1856 H 0.87637 0.1752 0.62887 0.0
H1857 H 0.92113 0.20246 0.67476 0.0
H1858 H 0.92587 0.17621 0.60739 0.0
H1859 H 0.92627 0.20652 0.60619 0.0
H1860 H 0.89535 0.17632 0.60548 0.0
H1861 H 0.97974 0.20889 0.66309 0.0
H1862 H 0.96675 0.22071 0.67816 0.0
H1863 H 0.98221 0.24025 0.66248 0.0
C1864 C 0.78588 0.7989 0.62463 0.0
C1865 C 0.80794 0.81473 0.61694 0.0
C1866 C 0.7845 0.7783 0.63265 0.0
C1867 C 0.8059 0.77378 0.63327 0.0
C1868 C 0.82844 0.79003 0.62587 0.0
C1869 C 0.82904 0.81004 0.61764 0.0
C1870 C 0.76 0.76106 0.64021 0.0
C1871 C 0.8518 0.786 0.6264 0.0
C1872 C 0.81581 0.73502 0.664 0.0
C1873 C 0.8091 0.71158 0.6547 0.0
C1874 C 0.81393 0.75521 0.65732 0.0
C1875 C 0.8046 0.75151 0.6411 0.0
C1876 C 0.7963 0.72722 0.63194 0.0
C1877 C 0.79895 0.70765 0.63881 0.0
C1878 C 0.82343 0.78102 0.66737 0.0
C1879 C 0.7857 0.72232 0.61469 0.0
H1880 H 0.76964 0.80257 0.6244 0.0
H1881 H 0.84593 0.82169 0.61147 0.0
H1882 H 0.75096 0.7404 0.63476 0.0
H1883 H 0.76502 0.7613 0.65302 0.0
H1884 H 0.74523 0.76741 0.63887 0.0
H1885 H 0.86847 0.80144 0.62095 0.0
H1886 H 0.85864 0.78606 0.63885 0.0
H1887 H 0.84605 0.76657 0.62002 0.0
H1888 H 0.82382 0.73813 0.67627 0.0
H1889 H 0.79351 0.6894 0.63166 0.0
H1890 H 0.80858 0.78724 0.66628 0.0
H1891 H 0.84157 0.79651 0.66311 0.0
H1892 H 0.82782 0.77989 0.68008 0.0
H1893 H 0.77024 0.72769 0.61314 0.0
H1894 H 0.77734 0.70145 0.60977 0.0
H1895 H 0.80169 0.73487 0.60766 0.0
C1896 C 0.99831 0.77841 0.61435 0.0
C1897 C 0.02113 0.78053 0.62198 0.0
C1898 C 0.9745 0.76645 0.62111 0.0
C1899 C 0.97344 0.75612 0.63576 0.0
C1900 C 0.99656 0.75895 0.64376 0.0
C1901 C 0.02013 0.77126 0.63683 0.0
C1902 C 0.95027 0.76399 0.6123 0.0
C1903 C 0.99621 0.74805 0.65935 0.0
C1904 C 0.91496 0.7364 0.6594 0.0
C1905 C 0.90018 0.70918 0.65487 0.0
C1906 C 0.93864 0.75213 0.65304 0.0
C1907 C 0.9478 0.74027 0.64206 0.0
C1908 C 0.93287 0.71286 0.63739 0.0
C1909 C 0.90925 0.69771 0.64379 0.0
C1910 C 0.95391 0.78137 0.65811 0.0
C1911 C 0.94205 0.6994 0.62582 0.0
H1912 H 0.99882 0.78535 0.60284 0.0
H1913 H 0.03778 0.77338 0.643 0.0
H1914 H 0.93623 0.74303 0.60801 0.0
H1915 H 0.94023 0.77083 0.62032 0.0
H1916 H 0.95491 0.77546 0.60195 0.0
H1917 H 0.01616 0.75323 0.66449 0.0
H1918 H 0.98755 0.75554 0.66803 0.0
H1919 H 0.9837 0.7263 0.65761 0.0
H1920 H 0.90799 0.74544 0.66785 0.0
H1921 H 0.89803 0.6767 0.6402 0.0
H1922 H 0.9573 0.79227 0.64757 0.0
H1923 H 0.97346 0.78703 0.66415 0.0
H1924 H 0.94361 0.7877 0.66626 0.0
H1925 H 0.94492 0.70827 0.6145 0.0
H1926 H 0.92792 0.67795 0.62325 0.0
H1927 H 0.96129 0.70227 0.63065 0.0
C1928 C 0.17785 0.19866 0.61257 0.0
C1929 C 0.18421 0.22463 0.61724 0.0
C1930 C 0.19399 0.18896 0.61802 0.0
C1931 C 0.2169 0.20549 0.62856 0.0
C1932 C 0.22352 0.23172 0.63325 0.0
C1933 C 0.20725 0.24101 0.62746 0.0
C1934 C 0.18639 0.16093 0.61264 0.0
C1935 C 0.24768 0.24996 0.64454 0.0
C1936 C 0.24466 0.17476 0.65587 0.0
C1937 C 0.26671 0.17818 0.64863 0.0
C1938 C 0.22816 0.18328 0.64935 0.0
C1939 C 0.23358 0.19522 0.63512 0.0
C1940 C 0.25547 0.19821 0.62756 0.0
C1941 C 0.27189 0.18983 0.63446 0.0
C1942 C 0.20523 0.18002 0.6579 0.0
C1943 C 0.2617 0.21052 0.61226 0.0
H1944 H 0.16001 0.18573 0.60482 0.0
H1945 H 0.21276 0.26127 0.63087 0.0
H1946 H 0.20286 0.16046 0.60733 0.0
H1947 H 0.18236 0.1495 0.62297 0.0
H1948 H 0.16871 0.15102 0.60381 0.0
H1949 H 0.25011 0.26983 0.64701 0.0
H1950 H 0.24651 0.24151 0.65593 0.0
H1951 H 0.26547 0.25206 0.63958 0.0
H1952 H 0.24053 0.16589 0.66685 0.0
H1953 H 0.28875 0.19236 0.62872 0.0
H1954 H 0.18668 0.16864 0.6499 0.0
H1955 H 0.20761 0.1996 0.66146 0.0
H1956 H 0.20335 0.16982 0.66867 0.0
H1957 H 0.24435 0.19999 0.60324 0.0
H1958 H 0.27861 0.21018 0.60744 0.0
H1959 H 0.26635 0.23124 0.61421 0.0
C1960 C 0.81548 0.00799 0.61132 0.0
C1961 C 0.80346 0.98265 0.61611 0.0
C1962 C 0.81402 0.02837 0.61971 0.0
C1963 C 0.79998 0.02325 0.63316 0.0
C1964 C 0.78704 0.99754 0.63778 0.0
C1965 C 0.78901 0.97752 0.62921 0.0
C1966 C 0.8281 0.05556 0.61442 0.0
C1967 C 0.77177 0.99137 0.652 0.0
C1968 C 0.82389 0.08351 0.66259 0.0
C1969 C 0.8064 0.09213 0.65822 0.0
C1970 C 0.82122 0.06035 0.65504 0.0
C1971 C 0.80044 0.04535 0.64287 0.0
C1972 C 0.7818 0.05307 0.63903 0.0
C1973 C 0.78504 0.07646 0.64674 0.0
C1974 C 0.84151 0.05277 0.65946 0.0
C1975 C 0.75923 0.03737 0.62623 0.0
H1976 H 0.82615 0.01193 0.60098 0.0
H1977 H 0.77979 0.958 0.63302 0.0
H1978 H 0.81418 0.06279 0.61237 0.0
H1979 H 0.84363 0.06947 0.62386 0.0
H1980 H 0.83735 0.05602 0.60337 0.0
H1981 H 0.76095 0.96997 0.65319 0.0
H1982 H 0.78539 0.00186 0.66293 0.0
H1983 H 0.75751 0.9984 0.65118 0.0
H1984 H 0.84033 0.09535 0.67156 0.0
H1985 H 0.77133 0.08289 0.64337 0.0
H1986 H 0.85328 0.05477 0.64942 0.0
H1987 H 0.83184 0.0319 0.66184 0.0
H1988 H 0.8551 0.06524 0.67007 0.0
H1989 H 0.76685 0.03931 0.6145 0.0
H1990 H 0.74471 0.04412 0.62604 0.0
H1991 H 0.74904 0.01618 0.6279 0.0
C1992 C 0.4706 0.34907 0.71656 0.0
C1993 C 0.47618 0.35153 0.73301 0.0
C1994 C 0.44916 0.32614 0.70849 0.0
C1995 C 0.43344 0.30497 0.71707 0.0
C1996 C 0.43878 0.30759 0.73375 0.0
C1997 C 0.45996 0.33102 0.74155 0.0
C1998 C 0.44373 0.3243 0.69075 0.0
C1999 C 0.42286 0.28526 0.74327 0.0
C2000 C 0.36697 0.24932 0.69809 0.0
C2001 C 0.37355 0.23084 0.6922 0.0
C2002 C 0.38632 0.27377 0.70603 0.0
C2003 C 0.41265 0.27944 0.70848 0.0
C2004 C 0.41926 0.26065 0.70273 0.0
C2005 C 0.39969 0.23672 0.69449 0.0
C2006 C 0.37868 0.29358 0.71168 0.0
C2007 C 0.44699 0.26569 0.70542 0.0
H2008 H 0.48314 0.36509 0.71002 0.0
H2009 H 0.4645 0.33295 0.75428 0.0
H2010 H 0.44746 0.30929 0.68489 0.0
H2011 H 0.42279 0.31793 0.68741 0.0
H2012 H 0.45619 0.34334 0.68608 0.0
H2013 H 0.42881 0.2909 0.75621 0.0
H2014 H 0.40167 0.27857 0.7409 0.0
H2015 H 0.42534 0.26827 0.73963 0.0
H2016 H 0.34678 0.24484 0.69625 0.0
H2017 H 0.40479 0.22233 0.69011 0.0
H2018 H 0.39035 0.31218 0.70641 0.0
H2019 H 0.38319 0.29831 0.72473 0.0
H2020 H 0.35748 0.28636 0.70853 0.0
H2021 H 0.46047 0.28317 0.69971 0.0
H2022 H 0.44868 0.24868 0.70061 0.0
H2023 H 0.45374 0.27003 0.71828 0.0
C2024 C 0.63752 0.09936 0.71348 0.0
C2025 C 0.63692 0.10971 0.72867 0.0
C2026 C 0.66135 0.1074 0.70705 0.0
C2027 C 0.68522 0.12661 0.71593 0.0
C2028 C 0.68473 0.13734 0.73123 0.0
C2029 C 0.66058 0.12855 0.73749 0.0
C2030 C 0.661 0.09506 0.69083 0.0
C2031 C 0.7097 0.15817 0.74095 0.0
C2032 C 0.74805 0.12947 0.70496 0.0
C2033 C 0.75727 0.14939 0.69489 0.0
C2034 C 0.7248 0.12204 0.71201 0.0
C2035 C 0.71063 0.13518 0.70917 0.0
C2036 C 0.72019 0.15574 0.69932 0.0
C2037 C 0.74324 0.16243 0.69219 0.0
C2038 C 0.71507 0.09972 0.72221 0.0
C2039 C 0.70593 0.17054 0.69622 0.0
H2040 H 0.61928 0.0845 0.70671 0.0
H2041 H 0.66015 0.13665 0.74922 0.0
H2042 H 0.66982 0.11046 0.68272 0.0
H2043 H 0.67305 0.08548 0.69159 0.0
H2044 H 0.64081 0.08015 0.68556 0.0
H2045 H 0.70593 0.16501 0.75246 0.0
H2046 H 0.72306 0.15038 0.74332 0.0
H2047 H 0.72012 0.17534 0.73424 0.0
H2048 H 0.75871 0.11922 0.70709 0.0
H2049 H 0.75035 0.17802 0.68455 0.0
H2050 H 0.69549 0.08349 0.71694 0.0
H2051 H 0.71268 0.10639 0.73417 0.0
H2052 H 0.72861 0.09184 0.72349 0.0
H2053 H 0.68618 0.15695 0.68985 0.0
H2054 H 0.71671 0.18701 0.68904 0.0
H2055 H 0.70303 0.17859 0.70759 0.0
C2056 C 0.92646 0.55309 0.69833 0.0
C2057 C 0.92275 0.5442 0.71336 0.0
C2058 C 0.91259 0.56464 0.69212 0.0
C2059 C 0.89444 0.56719 0.70109 0.0
C2060 C 0.88982 0.55732 0.71598 0.0
C2061 C 0.90411 0.54606 0.72197 0.0
C2062 C 0.91812 0.57501 0.67621 0.0
C2063 C 0.87056 0.55965 0.72589 0.0
C2064 C 0.88375 0.62437 0.69542 0.0
C2065 C 0.8596 0.61221 0.68588 0.0
C2066 C 0.89528 0.60992 0.70032 0.0
C2067 C 0.8823 0.58252 0.69567 0.0
C2068 C 0.85793 0.57002 0.68603 0.0
C2069 C 0.84688 0.58506 0.68117 0.0
C2070 C 0.9214 0.62403 0.7105 0.0
C2071 C 0.84348 0.54079 0.68096 0.0
H2072 H 0.94044 0.55124 0.69147 0.0
H2073 H 0.90128 0.53948 0.73364 0.0
H2074 H 0.89952 0.56727 0.66838 0.0
H2075 H 0.92756 0.59677 0.67781 0.0
H2076 H 0.93125 0.56967 0.67019 0.0
H2077 H 0.86728 0.54868 0.73641 0.0
H2078 H 0.87807 0.58065 0.73002 0.0
H2079 H 0.85141 0.55214 0.7187 0.0
H2080 H 0.89386 0.64536 0.69905 0.0
H2081 H 0.8282 0.57552 0.67383 0.0
H2082 H 0.93609 0.62104 0.70459 0.0
H2083 H 0.91942 0.61576 0.72199 0.0
H2084 H 0.92908 0.64551 0.71289 0.0
H2085 H 0.85606 0.53545 0.67433 0.0
H2086 H 0.82481 0.53409 0.67337 0.0
H2087 H 0.83901 0.52994 0.69155 0.0
C2088 C 0.44586 0.96061 0.1817 0.0
C2089 C 0.45844 0.94901 0.18952 0.0
C2090 C 0.4507 0.96746 0.16627 0.0
C2091 C 0.46835 0.96234 0.15834 0.0
C2092 C 0.48022 0.94959 0.16587 0.0
C2093 C 0.47523 0.94319 0.18138 0.0
C2094 C 0.43764 0.98103 0.15867 0.0
C2095 C 0.49898 0.94359 0.15778 0.0
C2096 C 0.46803 0.96563 0.11378 0.0
C2097 C 0.48947 0.99088 0.11295 0.0
C2098 C 0.46106 0.95592 0.12843 0.0
C2099 C 0.4757 0.97192 0.14263 0.0
C2100 C 0.49735 0.99738 0.14189 0.0
C2101 C 0.50404 0.00647 0.1271 0.0
C2102 C 0.43795 0.92861 0.12871 0.0
C2103 C 0.51343 0.01512 0.15676 0.0
H2104 H 0.43247 0.96473 0.18774 0.0
H2105 H 0.48527 0.9345 0.18733 0.0
H2106 H 0.45278 0.00126 0.15676 0.0
H2107 H 0.42728 0.97044 0.14689 0.0
H2108 H 0.42334 0.98229 0.16604 0.0
H2109 H 0.50477 0.93158 0.16465 0.0
H2110 H 0.48995 0.9329 0.14581 0.0
H2111 H 0.51697 0.96224 0.1562 0.0
H2112 H 0.45642 0.95352 0.10296 0.0
H2113 H 0.52091 0.02579 0.12662 0.0
H2114 H 0.42268 0.92966 0.13515 0.0
H2115 H 0.44421 0.9166 0.13519 0.0
H2116 H 0.42903 0.91838 0.11662 0.0
H2117 H 0.50062 0.01861 0.16436 0.0
H2118 H 0.52956 0.03444 0.15415 0.0
H2119 H 0.52209 0.00549 0.16368 0.0
C2120 C 0.03615 0.53556 0.18206 0.0
C2121 C 0.04641 0.52088 0.18849 0.0
C2122 C 0.02192 0.52763 0.167 0.0
C2123 C 0.01803 0.50455 0.15813 0.0
C2124 C 0.02728 0.48899 0.16487 0.0
C2125 C 0.04134 0.49732 0.18 0.0
C2126 C 0.01211 0.5446 0.16028 0.0
C2127 C 0.0236 0.46432 0.15575 0.0
C2128 C 0.96896 0.47674 0.12116 0.0
C2129 C 0.98545 0.48766 0.10928 0.0
C2130 C 0.97925 0.48185 0.13715 0.0
C2131 C 0.00664 0.4982 0.1413 0.0
C2132 C 0.02338 0.50907 0.12935 0.0
C2133 C 0.01258 0.50376 0.11352 0.0
C2134 C 0.96084 0.46997 0.14959 0.0
C2135 C 0.05272 0.52662 0.1333 0.0
H2136 H 0.03973 0.55358 0.18871 0.0
H2137 H 0.04942 0.48603 0.18489 0.0
H2138 H 0.02315 0.55383 0.15023 0.0
H2139 H 0.99107 0.53244 0.15561 0.0
H2140 H 0.01449 0.56043 0.16924 0.0
H2141 H 0.02955 0.45304 0.16323 0.0
H2142 H 0.0028 0.45139 0.15079 0.0
H2143 H 0.03559 0.46964 0.14563 0.0
H2144 H 0.94801 0.46409 0.11794 0.0
H2145 H 0.0254 0.51268 0.10445 0.0
H2146 H 0.96225 0.48581 0.15812 0.0
H2147 H 0.96659 0.45791 0.15641 0.0
H2148 H 0.94008 0.4574 0.14439 0.0
H2149 H 0.05703 0.54445 0.14111 0.0
H2150 H 0.06305 0.5329 0.12256 0.0
H2151 H 0.06087 0.51621 0.13987 0.0
C2152 C 0.45252 0.47145 0.18204 0.0
C2153 C 0.46614 0.49567 0.19157 0.0
C2154 C 0.45561 0.46972 0.16585 0.0
C2155 C 0.47253 0.49279 0.15907 0.0
C2156 C 0.48543 0.51742 0.16852 0.0
C2157 C 0.48216 0.51854 0.18466 0.0
C2158 C 0.44166 0.44309 0.15617 0.0
C2159 C 0.50337 0.54251 0.16169 0.0
C2160 C 0.50589 0.48784 0.12338 0.0
C2161 C 0.49079 0.49025 0.11094 0.0
C2162 C 0.49976 0.48805 0.13902 0.0
C2163 C 0.47818 0.49107 0.14238 0.0
C2164 C 0.46275 0.4934 0.12992 0.0
C2165 C 0.46916 0.49283 0.11433 0.0
C2166 C 0.51666 0.48543 0.152 0.0
C2167 C 0.43969 0.49681 0.13307 0.0
H2168 H 0.44026 0.45373 0.18739 0.0
H2169 H 0.49241 0.53733 0.19198 0.0
H2170 H 0.43067 0.44357 0.14528 0.0
H2171 H 0.45632 0.43791 0.15238 0.0
H2172 H 0.42776 0.42737 0.16291 0.0
H2173 H 0.51044 0.56023 0.17035 0.0
H2174 H 0.52068 0.5418 0.15791 0.0
H2175 H 0.49306 0.54457 0.15103 0.0
H2176 H 0.52287 0.48626 0.12094 0.0
H2177 H 0.45713 0.49429 0.10477 0.0
H2178 H 0.50428 0.46888 0.15872 0.0
H2179 H 0.52647 0.50359 0.16048 0.0
H2180 H 0.53197 0.482 0.14731 0.0
H2181 H 0.42546 0.48023 0.13912 0.0
H2182 H 0.42935 0.49782 0.12203 0.0
H2183 H 0.4465 0.51512 0.14112 0.0
C2184 C 0.98786 0.48203 0.82004 0.0
C2185 C 0.9974 0.50546 0.81299 0.0
C2186 C 0.99014 0.48236 0.83656 0.0
C2187 C 0.00235 0.50673 0.84626 0.0
C2188 C 0.01164 0.53044 0.83923 0.0
C2189 C 0.009 0.52951 0.82267 0.0
C2190 C 0.97983 0.45666 0.84363 0.0
C2191 C 0.02489 0.55681 0.8492 0.0
C2192 C 0.99149 0.50792 0.88979 0.0
C2193 C 0.01453 0.50994 0.89699 0.0
C2194 C 0.98713 0.50663 0.87327 0.0
C2195 C 0.00631 0.50748 0.86375 0.0
C2196 C 0.02945 0.50923 0.87092 0.0
C2197 C 0.03324 0.51035 0.88744 0.0
C2198 C 0.96217 0.50469 0.86602 0.0
C2199 C 0.05034 0.51012 0.86116 0.0
H2200 H 0.97852 0.46336 0.81261 0.0
H2201 H 0.01662 0.54769 0.81726 0.0
H2202 H 0.99622 0.45617 0.85038 0.0
H2203 H 0.96562 0.45487 0.8521 0.0
H2204 H 0.96999 0.43936 0.83447 0.0
H2205 H 0.03014 0.57333 0.84193 0.0
H2206 H 0.01185 0.55723 0.85791 0.0
H2207 H 0.04306 0.56001 0.85601 0.0
H2208 H 0.97709 0.50791 0.8971 0.0
H2209 H 0.05088 0.51147 0.8929 0.0
H2210 H 0.95149 0.48706 0.85715 0.0
H2211 H 0.96699 0.5221 0.85968 0.0
H2212 H 0.94889 0.50348 0.87503 0.0
H2213 H 0.04183 0.49225 0.85248 0.0
H2214 H 0.06719 0.51146 0.86857 0.0
H2215 H 0.05778 0.52734 0.85431 0.0
C2216 C 0.52332 0.45734 0.83656 0.0
C2217 C 0.53975 0.47748 0.8278 0.0
C2218 C 0.51434 0.46288 0.85036 0.0
C2219 C 0.5218 0.48921 0.85551 0.0
C2220 C 0.53788 0.50961 0.84656 0.0
C2221 C 0.5467 0.5035 0.8328 0.0
C2222 C 0.49718 0.44055 0.85955 0.0
C2223 C 0.54616 0.5379 0.85167 0.0
C2224 C 0.48031 0.49794 0.88509 0.0
C2225 C 0.49529 0.50197 0.89952 0.0
C2226 C 0.48909 0.49461 0.87061 0.0
C2227 C 0.51339 0.49529 0.87058 0.0
C2228 C 0.52894 0.50013 0.88509 0.0
C2229 C 0.51974 0.50348 0.89936 0.0
C2230 C 0.472 0.48957 0.85537 0.0
C2231 C 0.55499 0.50106 0.88558 0.0
H2232 H 0.51741 0.43713 0.83259 0.0
H2233 H 0.55952 0.51918 0.82616 0.0
H2234 H 0.5071 0.4436 0.87164 0.0
H2235 H 0.47842 0.44014 0.86088 0.0
H2236 H 0.49267 0.42111 0.85375 0.0
H2237 H 0.55762 0.55127 0.843 0.0
H2238 H 0.52864 0.53979 0.85324 0.0
H2239 H 0.55835 0.54448 0.8633 0.0
H2240 H 0.46134 0.4966 0.88512 0.0
H2241 H 0.53167 0.50713 0.91046 0.0
H2242 H 0.465 0.46938 0.84967 0.0
H2243 H 0.4835 0.50344 0.84694 0.0
H2244 H 0.45464 0.4916 0.85733 0.0
H2245 H 0.55184 0.48155 0.88093 0.0
H2246 H 0.56533 0.50641 0.89776 0.0
H2247 H 0.56792 0.51553 0.87787 0.0
C2248 C 0.48834 0.02325 0.82484 0.0
C2249 C 0.51371 0.03931 0.8206 0.0
C2250 C 0.48425 0.01671 0.84037 0.0
C2251 C 0.50604 0.02652 0.85206 0.0
C2252 C 0.53162 0.04354 0.84803 0.0
C2253 C 0.53516 0.04973 0.83235 0.0
C2254 C 0.45663 0.9986 0.84416 0.0
C2255 C 0.55535 0.0545 0.86015 0.0
C2256 C 0.49161 0.02201 0.89515 0.0
C2257 C 0.49142 0.99882 0.89819 0.0
C2258 C 0.4969 0.03162 0.88032 0.0
C2259 C 0.50205 0.01768 0.8682 0.0
C2260 C 0.5023 0.99451 0.87127 0.0
C2261 C 0.49707 0.98543 0.8862 0.0
C2262 C 0.49648 0.05641 0.87754 0.0
C2263 C 0.50774 0.97907 0.8587 0.0
H2264 H 0.4716 0.01553 0.81592 0.0
H2265 H 0.55483 0.06201 0.82918 0.0
H2266 H 0.45487 0.98002 0.84758 0.0
H2267 H 0.45211 0.00779 0.85438 0.0
H2268 H 0.44171 0.99374 0.83396 0.0
H2269 H 0.57363 0.06898 0.85547 0.0
H2270 H 0.55246 0.06416 0.87087 0.0
H2271 H 0.55796 0.03823 0.86391 0.0
H2272 H 0.48706 0.03239 0.90427 0.0
H2273 H 0.49751 0.96781 0.8885 0.0
H2274 H 0.48038 0.05182 0.86821 0.0
H2275 H 0.51514 0.07082 0.87323 0.0
H2276 H 0.4936 0.06573 0.88843 0.0
H2277 H 0.49253 0.97192 0.84839 0.0
H2278 H 0.50794 0.96186 0.8631 0.0
H2279 H 0.52698 0.99191 0.85439 0.0
C2280 C 0.12153 0.3066 0.51605 0.0
C2281 C 0.13048 0.29061 0.52217 0.0
C2282 C 0.12638 0.31451 0.50082 0.0
C2283 C 0.14049 0.30622 0.49143 0.0
C2284 C 0.14884 0.2894 0.49733 0.0
C2285 C 0.14376 0.28183 0.51261 0.0
C2286 C 0.11717 0.33247 0.49497 0.0
C2287 C 0.16374 0.27994 0.48766 0.0
C2288 C 0.13779 0.31186 0.4471 0.0
C2289 C 0.16148 0.33521 0.44611 0.0
C2290 C 0.13069 0.30216 0.46173 0.0
C2291 C 0.14763 0.31615 0.47576 0.0
C2292 C 0.17155 0.3397 0.47484 0.0
C2293 C 0.17819 0.34891 0.46006 0.0
C2294 C 0.105 0.277 0.4622 0.0
C2295 C 0.19021 0.35518 0.4895 0.0
H2296 H 0.11153 0.31373 0.52341 0.0
H2297 H 0.15041 0.26918 0.51716 0.0
H2298 H 0.1344 0.35173 0.49339 0.0
H2299 H 0.10539 0.32401 0.48325 0.0
H2300 H 0.10513 0.33588 0.5033 0.0
H2301 H 0.16769 0.2659 0.49362 0.0
H2302 H 0.15253 0.27022 0.47592 0.0
H2303 H 0.18278 0.29698 0.48554 0.0
H2304 H 0.12457 0.30131 0.43643 0.0
H2305 H 0.19668 0.36675 0.4594 0.0
H2306 H 0.09233 0.28081 0.46975 0.0
H2307 H 0.10862 0.26233 0.46758 0.0
H2308 H 0.09416 0.26831 0.45022 0.0
H2309 H 0.1801 0.36098 0.49809 0.0
H2310 H 0.20793 0.37322 0.4868 0.0
H2311 H 0.19657 0.34275 0.49539 0.0
C2312 C 0.71257 0.86514 0.51809 0.0
C2313 C 0.73294 0.85937 0.51889 0.0
C2314 C 0.69608 0.85903 0.504 0.0
C2315 C 0.69991 0.84662 0.49045 0.0
C2316 C 0.71966 0.83969 0.49136 0.0
C2317 C 0.73603 0.84627 0.50555 0.0
C2318 C 0.67523 0.86674 0.50345 0.0
C2319 C 0.72418 0.82624 0.47717 0.0
C2320 C 0.64773 0.81446 0.45517 0.0
C2321 C 0.65808 0.83343 0.44453 0.0
C2322 C 0.66078 0.8187 0.47035 0.0
C2323 C 0.68461 0.84255 0.475 0.0
C2324 C 0.69463 0.86216 0.46455 0.0
C2325 C 0.68132 0.85731 0.44942 0.0
C2326 C 0.64953 0.79736 0.4812 0.0
C2327 C 0.71993 0.88793 0.46914 0.0
H2328 H 0.70975 0.87482 0.52844 0.0
H2329 H 0.75188 0.84199 0.506 0.0
H2330 H 0.68003 0.8821 0.49534 0.0
H2331 H 0.65587 0.84962 0.4987 0.0
H2332 H 0.67352 0.8745 0.51531 0.0
H2333 H 0.73889 0.82029 0.48019 0.0
H2334 H 0.70551 0.8085 0.47207 0.0
H2335 H 0.7312 0.8397 0.46784 0.0
H2336 H 0.62958 0.79612 0.45155 0.0
H2337 H 0.68968 0.87191 0.4412 0.0
H2338 H 0.64754 0.80541 0.49286 0.0
H2339 H 0.66312 0.78976 0.48336 0.0
H2340 H 0.63002 0.78065 0.47617 0.0
H2341 H 0.71904 0.89755 0.48056 0.0
H2342 H 0.72416 0.90175 0.46003 0.0
H2343 H 0.73654 0.88424 0.47083 0.0
C2344 C 0.14 0.80516 0.5166 0.0
C2345 C 0.12158 0.8114 0.52204 0.0
C2346 C 0.14418 0.80498 0.50057 0.0
C2347 C 0.12982 0.81148 0.48968 0.0
C2348 C 0.11063 0.81701 0.49496 0.0
C2349 C 0.10668 0.81682 0.51107 0.0
C2350 C 0.16476 0.79887 0.4954 0.0
C2351 C 0.09497 0.82407 0.4837 0.0
C2352 C 0.16443 0.84114 0.45403 0.0
C2353 C 0.1522 0.81959 0.44228 0.0
C2354 C 0.15674 0.83893 0.46937 0.0
C2355 C 0.13645 0.81447 0.47309 0.0
C2356 C 0.1236 0.79276 0.46117 0.0
C2357 C 0.13155 0.79563 0.44585 0.0
C2358 C 0.17072 0.86264 0.48167 0.0
C2359 C 0.10205 0.76634 0.46474 0.0
H2360 H 0.15193 0.80135 0.52498 0.0
H2361 H 0.09213 0.82126 0.51511 0.0
H2362 H 0.15647 0.78352 0.48508 0.0
H2363 H 0.18134 0.81675 0.49163 0.0
H2364 H 0.17259 0.79201 0.50503 0.0
H2365 H 0.0795 0.82598 0.48941 0.0
H2366 H 0.1083 0.84303 0.47924 0.0
H2367 H 0.08557 0.80896 0.47327 0.0
H2368 H 0.18012 0.85981 0.45122 0.0
H2369 H 0.12214 0.77893 0.43678 0.0
H2370 H 0.1813 0.85866 0.49133 0.0
H2371 H 0.15627 0.86667 0.48707 0.0
H2372 H 0.1851 0.88056 0.47664 0.0
H2373 H 0.11015 0.75834 0.47346 0.0
H2374 H 0.09299 0.75189 0.45396 0.0
H2375 H 0.08651 0.76845 0.47016 0.0
C2376 C 0.69388 0.86129 0.1553 0.0
C2377 C 0.66883 0.84654 0.14683 0.0
C2378 C 0.69737 0.86208 0.17183 0.0
C2379 C 0.67526 0.84799 0.1801 0.0
C2380 C 0.64989 0.83339 0.17167 0.0
C2381 C 0.647 0.83272 0.15514 0.0
C2382 C 0.72475 0.87779 0.18042 0.0
C2383 C 0.62582 0.81821 0.1801 0.0
C2384 C 0.68554 0.82874 0.22043 0.0
C2385 C 0.68534 0.84827 0.23066 0.0
C2386 C 0.68239 0.82849 0.20395 0.0
C2387 C 0.6787 0.8481 0.19755 0.0
C2388 C 0.67824 0.86774 0.20783 0.0
C2389 C 0.68171 0.86766 0.22428 0.0
C2390 C 0.68326 0.80739 0.19336 0.0
C2391 C 0.67402 0.88876 0.20144 0.0
H2392 H 0.71081 0.87233 0.14901 0.0
H2393 H 0.62762 0.8209 0.14869 0.0
H2394 H 0.72587 0.89293 0.18941 0.0
H2395 H 0.72953 0.86467 0.18682 0.0
H2396 H 0.73987 0.88771 0.17225 0.0
H2397 H 0.6074 0.80868 0.17188 0.0
H2398 H 0.62726 0.80277 0.18608 0.0
H2399 H 0.62459 0.83153 0.18941 0.0
H2400 H 0.68866 0.81392 0.22535 0.0
H2401 H 0.68131 0.88264 0.23218 0.0
H2402 H 0.69933 0.81656 0.18571 0.0
H2403 H 0.66462 0.79591 0.18544 0.0
H2404 H 0.68638 0.79363 0.20022 0.0
H2405 H 0.68969 0.90029 0.19395 0.0
H2406 H 0.67397 0.90248 0.21103 0.0
H2407 H 0.65503 0.87953 0.19381 0.0
C2408 C 0.22843 0.83351 0.17545 0.0
C2409 C 0.2116 0.8212 0.16138 0.0
C2410 C 0.21929 0.83928 0.18914 0.0
C2411 C 0.19264 0.83251 0.18877 0.0
C2412 C 0.17583 0.82111 0.17444 0.0
C2413 C 0.18551 0.81562 0.16091 0.0
C2414 C 0.23786 0.8515 0.2042 0.0
C2415 C 0.14733 0.81372 0.17354 0.0
C2416 C 0.16263 0.81782 0.22763 0.0
C2417 C 0.16308 0.84124 0.23253 0.0
C2418 C 0.17191 0.81468 0.21334 0.0
C2419 C 0.18191 0.83546 0.20367 0.0
C2420 C 0.18204 0.859 0.2084 0.0
C2421 C 0.17258 0.8616 0.22278 0.0
C2422 C 0.17125 0.78918 0.20868 0.0
C2423 C 0.19263 0.88161 0.19842 0.0
H2424 H 0.24852 0.83762 0.17599 0.0
H2425 H 0.17249 0.80647 0.15002 0.0
H2426 H 0.23722 0.8689 0.20941 0.0
H2427 H 0.23166 0.83712 0.21304 0.0
H2428 H 0.25845 0.85768 0.20218 0.0
H2429 H 0.13741 0.80696 0.16124 0.0
H2430 H 0.13678 0.79769 0.18102 0.0
H2431 H 0.14558 0.83072 0.17823 0.0
H2432 H 0.15495 0.80186 0.235 0.0
H2433 H 0.17322 0.87984 0.22658 0.0
H2434 H 0.19149 0.79307 0.20766 0.0
H2435 H 0.15983 0.78015 0.19691 0.0
H2436 H 0.1624 0.77477 0.21738 0.0
H2437 H 0.21375 0.88894 0.19743 0.0
H2438 H 0.19046 0.8982 0.20347 0.0
H2439 H 0.18229 0.87486 0.18625 0.0
C2440 C 0.20807 0.38733 0.16866 0.0
C2441 C 0.18682 0.37739 0.15679 0.0
C2442 C 0.20451 0.37913 0.18391 0.0
C2443 C 0.17907 0.3606 0.18744 0.0
C2444 C 0.1575 0.35077 0.1756 0.0
C2445 C 0.16164 0.35919 0.16045 0.0
C2446 C 0.22801 0.3901 0.19621 0.0
C2447 C 0.13005 0.33099 0.17884 0.0
C2448 C 0.17117 0.31872 0.22111 0.0
C2449 C 0.16501 0.33142 0.23322 0.0
C2450 C 0.1762 0.32825 0.20626 0.0
C2451 C 0.17497 0.351 0.2034 0.0
C2452 C 0.16901 0.36406 0.21562 0.0
C2453 C 0.16414 0.35415 0.23037 0.0
C2454 C 0.18265 0.31383 0.1936 0.0
C2455 C 0.16732 0.38826 0.21303 0.0
H2456 H 0.22755 0.40159 0.16604 0.0
H2457 H 0.14513 0.35097 0.15133 0.0
H2458 H 0.22481 0.39973 0.20681 0.0
H2459 H 0.23058 0.37388 0.20012 0.0
H2460 H 0.24642 0.40465 0.19168 0.0
H2461 H 0.11525 0.32594 0.16853 0.0
H2462 H 0.12937 0.31268 0.18186 0.0
H2463 H 0.12444 0.33883 0.18918 0.0
H2464 H 0.17226 0.30138 0.22328 0.0
H2465 H 0.1591 0.36391 0.23959 0.0
H2466 H 0.20184 0.32745 0.1895 0.0
H2467 H 0.16761 0.30652 0.18319 0.0
H2468 H 0.18352 0.29686 0.19783 0.0
H2469 H 0.18594 0.40359 0.20916 0.0
H2470 H 0.16332 0.39662 0.22389 0.0
H2471 H 0.15145 0.38332 0.20345 0.0
C2472 C 0.81416 0.61836 0.84954 0.0
C2473 C 0.79531 0.62225 0.85662 0.0
C2474 C 0.82014 0.62479 0.83415 0.0
C2475 C 0.80718 0.63564 0.82563 0.0
C2476 C 0.78762 0.63891 0.8325 0.0
C2477 C 0.78182 0.63205 0.84784 0.0
C2478 C 0.84095 0.62075 0.8272 0.0
C2479 C 0.77336 0.65044 0.82383 0.0
C2480 C 0.84243 0.67976 0.79425 0.0
C2481 C 0.82939 0.66318 0.78013 0.0
C2482 C 0.83543 0.671 0.80909 0.0
C2483 C 0.81506 0.64488 0.80991 0.0
C2484 C 0.80209 0.62787 0.79575 0.0
C2485 C 0.80931 0.63724 0.78105 0.0
C2486 C 0.84973 0.68981 0.8239 0.0
C2487 C 0.78039 0.59984 0.79612 0.0
H2488 H 0.82497 0.61114 0.85624 0.0
H2489 H 0.76689 0.63469 0.85305 0.0
H2490 H 0.83333 0.60937 0.81529 0.0
H2491 H 0.85813 0.64009 0.82569 0.0
H2492 H 0.84771 0.61022 0.8348 0.0
H2493 H 0.75789 0.65068 0.83052 0.0
H2494 H 0.78757 0.67091 0.82176 0.0
H2495 H 0.76413 0.63903 0.81206 0.0
H2496 H 0.85826 0.69967 0.79372 0.0
H2497 H 0.79883 0.62434 0.77024 0.0
H2498 H 0.85911 0.68168 0.8316 0.0
H2499 H 0.83556 0.69228 0.83075 0.0
H2500 H 0.8651 0.70948 0.82124 0.0
H2501 H 0.78756 0.58935 0.80343 0.0
H2502 H 0.77289 0.58884 0.78409 0.0
H2503 H 0.76383 0.59963 0.80172 0.0
C2504 C 0.37766 0.16479 0.84824 0.0
C2505 C 0.40411 0.18382 0.8478 0.0
C2506 C 0.35968 0.15568 0.83454 0.0
C2507 C 0.36841 0.16592 0.82013 0.0
C2508 C 0.39512 0.18495 0.8196 0.0
C2509 C 0.41262 0.19367 0.83344 0.0
C2510 C 0.33135 0.13528 0.83549 0.0
C2511 C 0.40516 0.19642 0.80446 0.0
C2512 C 0.33176 0.1308 0.77996 0.0
C2513 C 0.32044 0.14584 0.77578 0.0
C2514 C 0.34641 0.13627 0.79472 0.0
C2515 C 0.34972 0.15725 0.80555 0.0
C2516 C 0.33714 0.17156 0.80176 0.0
C2517 C 0.32266 0.1657 0.78689 0.0
C2518 C 0.35944 0.1205 0.79838 0.0
C2519 C 0.34017 0.19403 0.81303 0.0
H2520 H 0.37105 0.15696 0.85929 0.0
H2521 H 0.43294 0.20869 0.83309 0.0
H2522 H 0.31849 0.14332 0.83224 0.0
H2523 H 0.3254 0.11777 0.8269 0.0
H2524 H 0.32784 0.12891 0.84753 0.0
H2525 H 0.42661 0.21071 0.806 0.0
H2526 H 0.40106 0.18047 0.79506 0.0
H2527 H 0.39479 0.20656 0.80022 0.0
H2528 H 0.32972 0.11513 0.77151 0.0
H2529 H 0.31417 0.17757 0.78369 0.0
H2530 H 0.35533 0.11353 0.81022 0.0
H2531 H 0.38104 0.13318 0.7987 0.0
H2532 H 0.35277 0.10321 0.78942 0.0
H2533 H 0.33593 0.18785 0.82503 0.0
H2534 H 0.32699 0.20137 0.80901 0.0
H2535 H 0.36076 0.21053 0.81406 0.0
C2536 C 0.83337 0.18398 0.85821 0.0
C2537 C 0.80901 0.16613 0.863 0.0
C2538 C 0.83755 0.18433 0.84216 0.0
C2539 C 0.81694 0.16621 0.83063 0.0
C2540 C 0.79215 0.14844 0.83537 0.0
C2541 C 0.78843 0.14872 0.85151 0.0
C2542 C 0.86416 0.20383 0.83758 0.0
C2543 C 0.76979 0.12866 0.82343 0.0
C2544 C 0.8227 0.18007 0.78762 0.0
C2545 C 0.83292 0.16451 0.7819 0.0
C2546 C 0.81717 0.18066 0.80342 0.0
C2547 C 0.82179 0.16518 0.81371 0.0
C2548 C 0.83181 0.14923 0.80798 0.0
C2549 C 0.83738 0.1492 0.7922 0.0
C2550 C 0.80662 0.19802 0.80913 0.0
C2551 C 0.83695 0.1324 0.81858 0.0
H2552 H 0.8492 0.19772 0.86706 0.0
H2553 H 0.76963 0.1348 0.85521 0.0
H2554 H 0.87329 0.19318 0.83211 0.0
H2555 H 0.86204 0.21564 0.82862 0.0
H2556 H 0.87768 0.21743 0.8479 0.0
H2557 H 0.75144 0.11693 0.82895 0.0
H2558 H 0.76583 0.1388 0.81406 0.0
H2559 H 0.77529 0.115 0.81754 0.0
H2560 H 0.81882 0.19167 0.77971 0.0
H2561 H 0.84566 0.13745 0.78799 0.0
H2562 H 0.8203 0.21268 0.81901 0.0
H2563 H 0.7875 0.18603 0.81379 0.0
H2564 H 0.80388 0.20866 0.79959 0.0
H2565 H 0.85209 0.14507 0.82852 0.0
H2566 H 0.84377 0.12029 0.81213 0.0
H2567 H 0.81881 0.11909 0.82383 0.0
C2568 C 0.35563 0.18241 0.48924 0.0
C2569 C 0.33459 0.18207 0.48043 0.0
C2570 C 0.35647 0.18211 0.50572 0.0
C2571 C 0.33583 0.1816 0.5136 0.0
C2572 C 0.31474 0.18167 0.50483 0.0
C2573 C 0.31434 0.18186 0.48833 0.0
C2574 C 0.37934 0.18211 0.51467 0.0
C2575 C 0.29243 0.1812 0.51285 0.0
C2576 C 0.32724 0.15545 0.55364 0.0
C2577 C 0.34079 0.17877 0.56401 0.0
C2578 C 0.32492 0.15608 0.5372 0.0
C2579 C 0.33629 0.18064 0.53101 0.0
C2580 C 0.34924 0.20425 0.54144 0.0
C2581 C 0.35141 0.20303 0.55783 0.0
C2582 C 0.31108 0.13049 0.52643 0.0
C2583 C 0.36138 0.2308 0.53529 0.0
H2584 H 0.37155 0.183 0.48324 0.0
H2585 H 0.29787 0.18128 0.48158 0.0
H2586 H 0.38948 0.19936 0.52383 0.0
H2587 H 0.37214 0.16422 0.52089 0.0
H2588 H 0.39387 0.18267 0.50677 0.0
H2589 H 0.27794 0.18221 0.50441 0.0
H2590 H 0.28211 0.16291 0.51862 0.0
H2591 H 0.30018 0.19798 0.52229 0.0
H2592 H 0.31923 0.13667 0.55837 0.0
H2593 H 0.3616 0.2211 0.56583 0.0
H2594 H 0.32526 0.12895 0.5191 0.0
H2595 H 0.29546 0.12992 0.5182 0.0
H2596 H 0.3021 0.1131 0.53314 0.0
H2597 H 0.37754 0.2334 0.52825 0.0
H2598 H 0.36939 0.24724 0.545 0.0
H2599 H 0.34658 0.23205 0.52729 0.0
C2600 C 0.892 0.18054 0.50393 0.0
C2601 C 0.88007 0.15422 0.49734 0.0
C2602 C 0.88393 0.18748 0.51776 0.0
C2603 C 0.86332 0.16763 0.52503 0.0
C2604 C 0.85062 0.14117 0.51807 0.0
C2605 C 0.85919 0.1348 0.50435 0.0
C2606 C 0.898 0.21587 0.52487 0.0
C2607 C 0.82839 0.11944 0.52535 0.0
C2608 C 0.85811 0.17514 0.56906 0.0
C2609 C 0.83723 0.18011 0.56929 0.0
C2610 C 0.86756 0.17222 0.55479 0.0
C2611 C 0.85572 0.17406 0.54033 0.0
C2612 C 0.83526 0.17997 0.5405 0.0
C2613 C 0.8263 0.18298 0.55498 0.0
C2614 C 0.88949 0.16603 0.55514 0.0
C2615 C 0.82217 0.18214 0.52534 0.0
H2616 H 0.90825 0.19558 0.49858 0.0
H2617 H 0.84965 0.11449 0.49913 0.0
H2618 H 0.88366 0.22241 0.5269 0.0
H2619 H 0.90861 0.21792 0.53657 0.0
H2620 H 0.91237 0.22915 0.51721 0.0
H2621 H 0.81976 0.10011 0.51804 0.0
H2622 H 0.83561 0.11765 0.53729 0.0
H2623 H 0.81265 0.1242 0.52688 0.0
H2624 H 0.86645 0.17249 0.57999 0.0
H2625 H 0.81045 0.18724 0.55507 0.0
H2626 H 0.90528 0.17955 0.54833 0.0
H2627 H 0.88188 0.14572 0.54944 0.0
H2628 H 0.89816 0.16762 0.56741 0.0
H2629 H 0.83711 0.19605 0.51822 0.0
H2630 H 0.808 0.18887 0.52757 0.0
H2631 H 0.8115 0.16269 0.51809 0.0
C2632 C 0.8376 0.70909 0.49933 0.0
C2633 C 0.8561 0.70698 0.49066 0.0
C2634 C 0.83304 0.70039 0.5144 0.0
C2635 C 0.84763 0.6897 0.52119 0.0
C2636 C 0.86701 0.6884 0.5128 0.0
C2637 C 0.87087 0.69684 0.49763 0.0
C2638 C 0.81209 0.702 0.52289 0.0
C2639 C 0.88324 0.67746 0.51969 0.0
C2640 C 0.84871 0.68494 0.56565 0.0
C2641 C 0.83011 0.65832 0.56626 0.0
C2642 C 0.85485 0.69535 0.5511 0.0
C2643 C 0.84186 0.67889 0.53676 0.0
C2644 C 0.82307 0.65205 0.53727 0.0
C2645 C 0.81757 0.64208 0.55196 0.0
C2646 C 0.87517 0.72401 0.55108 0.0
C2647 C 0.80865 0.63384 0.52226 0.0
H2648 H 0.82643 0.71735 0.49427 0.0
H2649 H 0.88494 0.69471 0.49104 0.0
H2650 H 0.79651 0.68193 0.52475 0.0
H2651 H 0.82056 0.71333 0.53475 0.0
H2652 H 0.80291 0.71142 0.5162 0.0
H2653 H 0.89878 0.67953 0.51221 0.0
H2654 H 0.89266 0.68765 0.53171 0.0
H2655 H 0.87036 0.6563 0.52094 0.0
H2656 H 0.85826 0.69783 0.57657 0.0
H2657 H 0.80353 0.62141 0.55222 0.0
H2658 H 0.86605 0.73444 0.54554 0.0
H2659 H 0.89096 0.72592 0.54389 0.0
H2660 H 0.88418 0.73397 0.56322 0.0
H2661 H 0.79789 0.64155 0.51539 0.0
H2662 H 0.7944 0.61356 0.52468 0.0
H2663 H 0.82287 0.63294 0.51469 0.0
loop_
_geom_bond_atom_site_label_1
_geom_bond_atom_site_label_2
_geom_bond_distance
_geom_bond_site_symmetry_2
_ccdc_geom_bond_type
P0 O11 1.490 . S
P0 C14 1.812 . S
P0 C20 1.803 . S
P0 C26 1.819 . S
H1 C15 0.941 . S
H2 C16 0.939 . S
H3 C18 0.940 . S
H4 C19 0.940 . S
H5 C21 0.939 . S
H6 C22 0.942 . S
H7 C24 0.940 . S
H8 C25 0.939 . S
H9 C27 0.941 . S
H10 C31 0.939 . S
O11 P0 1.490 . S
H12 C28 0.939 . S
H13 C30 0.940 . S
C14 P0 1.812 . S
C14 C15 1.389 . S
C14 C19 1.391 . S
C15 H1 0.941 . S
C15 C14 1.389 . S
C15 C16 1.397 . S
C16 H2 0.939 . S
C16 C15 1.397 . S
C16 C17 1.378 . S
C17 C16 1.378 . S
C17 C18 1.378 . S
C18 H3 0.940 . S
C18 C17 1.378 . S
C18 C19 1.396 . S
C19 H4 0.940 . S
C19 C14 1.391 . S
C19 C18 1.396 . S
C20 P0 1.803 . S
C20 C21 1.378 . S
C20 C25 1.400 . S
C21 H5 0.939 . S
C21 C20 1.378 . S
C21 C22 1.361 . S
C22 H6 0.942 . S
C22 C21 1.361 . S
C22 C23 1.369 . S
C23 C22 1.369 . S
C23 C24 1.404 . S
C24 H7 0.940 . S
C24 C23 1.404 . S
C24 C25 1.389 . S
C25 H8 0.939 . S
C25 C20 1.400 . S
C25 C24 1.389 . S
C26 P0 1.819 . S
C26 C27 1.391 . S
C26 C31 1.391 . S
C27 H9 0.941 . S
C27 C26 1.391 . S
C27 C28 1.396 . S
C28 H12 0.939 . S
C28 C27 1.396 . S
C28 C29 1.397 . S
C29 C28 1.397 . S
C29 C30 1.385 . S
C30 H13 0.940 . S
C30 C29 1.385 . S
C30 C31 1.388 . S
C31 H10 0.939 . S
C31 C26 1.391 . S
C31 C30 1.388 . S
P32 O43 1.490 . S
P32 C46 1.812 . S
P32 C52 1.803 . S
P32 C58 1.819 . S
H33 C47 0.941 . S
H34 C48 0.939 . S
H35 C50 0.940 . S
H36 C51 0.940 . S
H37 C53 0.939 . S
H38 C54 0.942 . S
H39 C56 0.940 . S
H40 C57 0.939 . S
H41 C59 0.941 . S
H42 C63 0.939 . S
O43 P32 1.490 . S
H44 C60 0.939 . S
H45 C62 0.940 . S
C46 P32 1.812 . S
C46 C47 1.389 . S
C46 C51 1.391 . S
C47 H33 0.941 . S
C47 C46 1.389 . S
C47 C48 1.397 . S
C48 H34 0.939 . S
C48 C47 1.397 . S
C48 C49 1.378 . S
C49 C48 1.378 . S
C49 C50 1.378 . S
C50 H35 0.940 . S
C50 C49 1.378 . S
C50 C51 1.396 . S
C51 H36 0.940 . S
C51 C46 1.391 . S
C51 C50 1.396 . S
C52 P32 1.803 . S
C52 C53 1.378 . S
C52 C57 1.400 . S
C53 H37 0.939 . S
C53 C52 1.378 . S
C53 C54 1.361 . S
C54 H38 0.942 . S
C54 C53 1.361 . S
C54 C55 1.369 . S
C55 C54 1.369 . S
C55 C56 1.404 . S
C56 H39 0.940 . S
C56 C55 1.404 . S
C56 C57 1.389 . S
C57 H40 0.939 . S
C57 C52 1.400 . S
C57 C56 1.389 . S
C58 P32 1.819 . S
C58 C59 1.391 . S
C58 C63 1.391 . S
C59 H41 0.941 . S
C59 C58 1.391 . S
C59 C60 1.396 . S
C60 H44 0.939 . S
C60 C59 1.396 . S
C60 C61 1.397 . S
C61 C60 1.397 . S
C61 C62 1.385 . S
C62 H45 0.940 . S
C62 C61 1.385 . S
C62 C63 1.388 . S
C63 H42 0.939 . S
C63 C58 1.391 . S
C63 C62 1.388 . S
P64 O75 1.490 . S
P64 C78 1.812 . S
P64 C84 1.803 . S
P64 C90 1.819 . S
H65 C79 0.941 . S
H66 C80 0.939 . S
H67 C82 0.940 . S
H68 C83 0.940 . S
H69 C85 0.939 . S
H70 C86 0.942 . S
H71 C88 0.940 . S
H72 C89 0.939 . S
H73 C91 0.941 . S
H74 C95 0.939 . S
O75 P64 1.490 . S
H76 C92 0.939 . S
H77 C94 0.940 . S
C78 P64 1.812 . S
C78 C79 1.389 . S
C78 C83 1.391 . S
C79 H65 0.941 . S
C79 C78 1.389 . S
C79 C80 1.397 . S
C80 H66 0.939 . S
C80 C79 1.397 . S
C80 C81 1.378 . S
C81 C80 1.378 . S
C81 C82 1.378 . S
C82 H67 0.940 . S
C82 C81 1.378 . S
C82 C83 1.396 . S
C83 H68 0.940 . S
C83 C78 1.391 . S
C83 C82 1.396 . S
C84 P64 1.803 . S
C84 C85 1.378 . S
C84 C89 1.400 . S
C85 H69 0.939 . S
C85 C84 1.378 . S
C85 C86 1.361 . S
C86 H70 0.942 . S
C86 C85 1.361 . S
C86 C87 1.369 . S
C87 C86 1.369 . S
C87 C88 1.404 . S
C88 H71 0.940 . S
C88 C87 1.404 . S
C88 C89 1.389 . S
C89 H72 0.939 . S
C89 C84 1.400 . S
C89 C88 1.389 . S
C90 P64 1.819 . S
C90 C91 1.391 . S
C90 C95 1.391 . S
C91 H73 0.941 . S
C91 C90 1.391 . S
C91 C92 1.396 . S
C92 H76 0.939 . S
C92 C91 1.396 . S
C92 C93 1.397 . S
C93 C92 1.397 . S
C93 C94 1.385 . S
C94 H77 0.940 . S
C94 C93 1.385 . S
C94 C95 1.388 . S
C95 H74 0.939 . S
C95 C90 1.391 . S
C95 C94 1.388 . S
P96 O107 1.490 . S
P96 C110 1.812 . S
P96 C116 1.803 . S
P96 C122 1.819 . S
H97 C111 0.941 . S
H98 C112 0.939 . S
H99 C114 0.940 . S
H100 C115 0.940 . S
H101 C117 0.939 . S
H102 C118 0.942 . S
H103 C120 0.940 . S
H104 C121 0.939 . S
H105 C123 0.941 . S
H106 C127 0.939 . S
O107 P96 1.490 . S
H108 C124 0.939 . S
H109 C126 0.940 . S
C110 P96 1.812 . S
C110 C111 1.389 . S
C110 C115 1.391 . S
C111 H97 0.941 . S
C111 C110 1.389 . S
C111 C112 1.397 . S
C112 H98 0.939 . S
C112 C111 1.397 . S
C112 C113 1.378 . S
C113 C112 1.378 . S
C113 C114 1.378 . S
C114 H99 0.940 . S
C114 C113 1.378 . S
C114 C115 1.396 . S
C115 H100 0.940 . S
C115 C110 1.391 . S
C115 C114 1.396 . S
C116 P96 1.803 . S
C116 C117 1.378 . S
C116 C121 1.400 . S
C117 H101 0.939 . S
C117 C116 1.378 . S
C117 C118 1.361 . S
C118 H102 0.942 . S
C118 C117 1.361 . S
C118 C119 1.369 . S
C119 C118 1.369 . S
C119 C120 1.404 . S
C120 H103 0.940 . S
C120 C119 1.404 . S
C120 C121 1.389 . S
C121 H104 0.939 . S
C121 C116 1.400 . S
C121 C120 1.389 . S
C122 P96 1.819 . S
C122 C123 1.391 . S
C122 C127 1.391 . S
C123 H105 0.941 . S
C123 C122 1.391 . S
C123 C124 1.396 . S
C124 H108 0.939 . S
C124 C123 1.396 . S
C124 C125 1.397 . S
C125 C124 1.397 . S
C125 C126 1.385 . S
C126 H109 0.940 . S
C126 C125 1.385 . S
C126 C127 1.388 . S
C127 H106 0.939 . S
C127 C122 1.391 . S
C127 C126 1.388 . S
P128 O139 1.490 . S
P128 C142 1.812 . S
P128 C148 1.803 . S
P128 C154 1.819 . S
H129 C143 0.941 . S
H130 C144 0.939 . S
H131 C146 0.940 . S
H132 C147 0.940 . S
H133 C149 0.939 . S
H134 C150 0.942 . S
H135 C152 0.940 . S
H136 C153 0.939 . S
H137 C155 0.941 . S
H138 C159 0.939 . S
O139 P128 1.490 . S
H140 C156 0.939 . S
H141 C158 0.940 . S
C142 P128 1.812 . S
C142 C143 1.389 . S
C142 C147 1.391 . S
C143 H129 0.941 . S
C143 C142 1.389 . S
C143 C144 1.397 . S
C144 H130 0.939 . S
C144 C143 1.397 . S
C144 C145 1.378 . S
C145 C144 1.378 . S
C145 C146 1.378 . S
C146 H131 0.940 . S
C146 C145 1.378 . S
C146 C147 1.396 . S
C147 H132 0.940 . S
C147 C142 1.391 . S
C147 C146 1.396 . S
C148 P128 1.803 . S
C148 C149 1.378 . S
C148 C153 1.400 . S
C149 H133 0.939 . S
C149 C148 1.378 . S
C149 C150 1.361 . S
C150 H134 0.942 . S
C150 C149 1.361 . S
C150 C151 1.369 . S
C151 C150 1.369 . S
C151 C152 1.404 . S
C152 H135 0.940 . S
C152 C151 1.404 . S
C152 C153 1.389 . S
C153 H136 0.939 . S
C153 C148 1.400 . S
C153 C152 1.389 . S
C154 P128 1.819 . S
C154 C155 1.391 . S
C154 C159 1.391 . S
C155 H137 0.941 . S
C155 C154 1.391 . S
C155 C156 1.396 . S
C156 H140 0.939 . S
C156 C155 1.396 . S
C156 C157 1.397 . S
C157 C156 1.397 . S
C157 C158 1.385 . S
C158 H141 0.940 . S
C158 C157 1.385 . S
C158 C159 1.388 . S
C159 H138 0.939 . S
C159 C154 1.391 . S
C159 C158 1.388 . S
P160 O171 1.490 . S
P160 C174 1.812 . S
P160 C180 1.803 . S
P160 C186 1.819 . S
H161 C175 0.941 . S
H162 C176 0.939 . S
H163 C178 0.940 . S
H164 C179 0.940 . S
H165 C181 0.939 . S
H166 C182 0.942 . S
H167 C184 0.940 . S
H168 C185 0.939 . S
H169 C187 0.941 . S
H170 C191 0.939 . S
O171 P160 1.490 . S
H172 C188 0.939 . S
H173 C190 0.940 . S
C174 P160 1.812 . S
C174 C175 1.389 . S
C174 C179 1.391 . S
C175 H161 0.941 . S
C175 C174 1.389 . S
C175 C176 1.397 . S
C176 H162 0.939 . S
C176 C175 1.397 . S
C176 C177 1.378 . S
C177 C176 1.378 . S
C177 C178 1.378 . S
C178 H163 0.940 . S
C178 C177 1.378 . S
C178 C179 1.396 . S
C179 H164 0.940 . S
C179 C174 1.391 . S
C179 C178 1.396 . S
C180 P160 1.803 . S
C180 C181 1.378 . S
C180 C185 1.400 . S
C181 H165 0.939 . S
C181 C180 1.378 . S
C181 C182 1.361 . S
C182 H166 0.942 . S
C182 C181 1.361 . S
C182 C183 1.369 . S
C183 C182 1.369 . S
C183 C184 1.404 . S
C184 H167 0.940 . S
C184 C183 1.404 . S
C184 C185 1.389 . S
C185 H168 0.939 . S
C185 C180 1.400 . S
C185 C184 1.389 . S
C186 P160 1.819 . S
C186 C187 1.391 . S
C186 C191 1.391 . S
C187 H169 0.941 . S
C187 C186 1.391 . S
C187 C188 1.396 . S
C188 H172 0.939 . S
C188 C187 1.396 . S
C188 C189 1.397 . S
C189 C188 1.397 . S
C189 C190 1.385 . S
C190 H173 0.940 . S
C190 C189 1.385 . S
C190 C191 1.388 . S
C191 H170 0.939 . S
C191 C186 1.391 . S
C191 C190 1.388 . S
P192 O203 1.490 1_655 S
P192 C206 1.812 . S
P192 C212 1.803 . S
P192 C218 1.819 . S
H193 C207 0.941 . S
H194 C208 0.939 . S
H195 C210 0.940 . S
H196 C211 0.940 . S
H197 C213 0.939 1_455 S
H198 C214 0.942 . S
H199 C216 0.940 . S
H200 C217 0.939 . S
H201 C219 0.941 . S
H202 C223 0.939 . S
O203 P192 1.490 1_455 S
H204 C220 0.939 . S
H205 C222 0.940 . S
C206 P192 1.812 . S
C206 C207 1.389 . S
C206 C211 1.391 . S
C207 H193 0.941 . S
C207 C206 1.389 . S
C207 C208 1.397 . S
C208 H194 0.939 . S
C208 C207 1.397 . S
C208 C209 1.378 . S
C209 C208 1.378 . S
C209 C210 1.378 . S
C210 H195 0.940 . S
C210 C209 1.378 . S
C210 C211 1.396 . S
C211 H196 0.940 . S
C211 C206 1.391 . S
C211 C210 1.396 . S
C212 P192 1.803 . S
C212 C213 1.378 . S
C212 C217 1.400 . S
C213 H197 0.939 1_655 S
C213 C212 1.378 . S
C213 C214 1.361 . S
C214 H198 0.942 . S
C214 C213 1.361 . S
C214 C215 1.369 . S
C215 C214 1.369 . S
C215 C216 1.404 . S
C216 H199 0.940 . S
C216 C215 1.404 . S
C216 C217 1.389 . S
C217 H200 0.939 . S
C217 C212 1.400 . S
C217 C216 1.389 . S
C218 P192 1.819 . S
C218 C219 1.391 1_655 S
C218 C223 1.391 . S
C219 H201 0.941 . S
C219 C218 1.391 1_455 S
C219 C220 1.396 . S
C220 H204 0.939 . S
C220 C219 1.396 . S
C220 C221 1.397 1_455 S
C221 C220 1.397 1_655 S
C221 C222 1.385 . S
C222 H205 0.940 . S
C222 C221 1.385 . S
C222 C223 1.388 . S
C223 H202 0.939 . S
C223 C218 1.391 . S
C223 C222 1.388 . S
P224 O235 1.490 . S
P224 C238 1.812 . S
P224 C244 1.803 . S
P224 C250 1.819 . S
H225 C239 0.941 . S
H226 C240 0.939 . S
H227 C242 0.940 . S
H228 C243 0.940 . S
H229 C245 0.939 . S
H230 C246 0.942 . S
H231 C248 0.940 . S
H232 C249 0.939 . S
H233 C251 0.941 . S
H234 C255 0.939 . S
O235 P224 1.490 . S
H236 C252 0.939 . S
H237 C254 0.940 . S
C238 P224 1.812 . S
C238 C239 1.389 . S
C238 C243 1.391 . S
C239 H225 0.941 . S
C239 C238 1.389 . S
C239 C240 1.397 . S
C240 H226 0.939 . S
C240 C239 1.397 . S
C240 C241 1.378 . S
C241 C240 1.378 . S
C241 C242 1.378 . S
C242 H227 0.940 . S
C242 C241 1.378 . S
C242 C243 1.396 . S
C243 H228 0.940 . S
C243 C238 1.391 . S
C243 C242 1.396 . S
C244 P224 1.803 . S
C244 C245 1.378 . S
C244 C249 1.400 . S
C245 H229 0.939 . S
C245 C244 1.378 . S
C245 C246 1.361 . S
C246 H230 0.942 . S
C246 C245 1.361 . S
C246 C247 1.369 . S
C247 C246 1.369 . S
C247 C248 1.404 . S
C248 H231 0.940 . S
C248 C247 1.404 . S
C248 C249 1.389 . S
C249 H232 0.939 . S
C249 C244 1.400 . S
C249 C248 1.389 . S
C250 P224 1.819 . S
C250 C251 1.391 . S
C250 C255 1.391 . S
C251 H233 0.941 . S
C251 C250 1.391 . S
C251 C252 1.396 . S
C252 H236 0.939 . S
C252 C251 1.396 . S
C252 C253 1.397 . S
C253 C252 1.397 . S
C253 C254 1.385 . S
C254 H237 0.940 . S
C254 C253 1.385 . S
C254 C255 1.388 . S
C255 H234 0.939 . S
C255 C250 1.391 . S
C255 C254 1.388 . S
P256 O267 1.490 . S
P256 C270 1.812 . S
P256 C276 1.803 . S
P256 C282 1.819 . S
H257 C271 0.941 . S
H258 C272 0.939 . S
H259 C274 0.940 . S
H260 C275 0.940 . S
H261 C277 0.939 . S
H262 C278 0.942 . S
H263 C280 0.940 . S
H264 C281 0.939 . S
H265 C283 0.941 . S
H266 C287 0.939 . S
O267 P256 1.490 . S
H268 C284 0.939 . S
H269 C286 0.940 . S
C270 P256 1.812 . S
C270 C271 1.389 . S
C270 C275 1.391 . S
C271 H257 0.941 . S
C271 C270 1.389 . S
C271 C272 1.397 . S
C272 H258 0.939 . S
C272 C271 1.397 . S
C272 C273 1.378 . S
C273 C272 1.378 . S
C273 C274 1.378 . S
C274 H259 0.940 . S
C274 C273 1.378 . S
C274 C275 1.396 . S
C275 H260 0.940 . S
C275 C270 1.391 . S
C275 C274 1.396 . S
C276 P256 1.803 . S
C276 C277 1.378 . S
C276 C281 1.400 . S
C277 H261 0.939 . S
C277 C276 1.378 . S
C277 C278 1.361 . S
C278 H262 0.942 . S
C278 C277 1.361 . S
C278 C279 1.369 . S
C279 C278 1.369 . S
C279 C280 1.404 . S
C280 H263 0.940 . S
C280 C279 1.404 . S
C280 C281 1.389 . S
C281 H264 0.939 . S
C281 C276 1.400 . S
C281 C280 1.389 . S
C282 P256 1.819 . S
C282 C283 1.391 . S
C282 C287 1.391 . S
C283 H265 0.941 . S
C283 C282 1.391 . S
C283 C284 1.396 . S
C284 H268 0.939 . S
C284 C283 1.396 . S
C284 C285 1.397 . S
C285 C284 1.397 . S
C285 C286 1.385 . S
C286 H269 0.940 . S
C286 C285 1.385 . S
C286 C287 1.388 . S
C287 H266 0.939 . S
C287 C282 1.391 . S
C287 C286 1.388 . S
P288 O299 1.490 . S
P288 C302 1.812 . S
P288 C308 1.803 . S
P288 C314 1.819 . S
H289 C303 0.941 . S
H290 C304 0.939 . S
H291 C306 0.940 . S
H292 C307 0.940 . S
H293 C309 0.939 . S
H294 C310 0.942 . S
H295 C312 0.940 . S
H296 C313 0.939 . S
H297 C315 0.941 . S
H298 C319 0.939 . S
O299 P288 1.490 . S
H300 C316 0.939 . S
H301 C318 0.940 . S
C302 P288 1.812 . S
C302 C303 1.389 . S
C302 C307 1.391 . S
C303 H289 0.941 . S
C303 C302 1.389 . S
C303 C304 1.397 . S
C304 H290 0.939 . S
C304 C303 1.397 . S
C304 C305 1.378 . S
C305 C304 1.378 . S
C305 C306 1.378 . S
C306 H291 0.940 . S
C306 C305 1.378 . S
C306 C307 1.396 . S
C307 H292 0.940 . S
C307 C302 1.391 . S
C307 C306 1.396 . S
C308 P288 1.803 . S
C308 C309 1.378 . S
C308 C313 1.400 . S
C309 H293 0.939 . S
C309 C308 1.378 . S
C309 C310 1.361 . S
C310 H294 0.942 . S
C310 C309 1.361 . S
C310 C311 1.369 . S
C311 C310 1.369 . S
C311 C312 1.404 . S
C312 H295 0.940 . S
C312 C311 1.404 . S
C312 C313 1.389 . S
C313 H296 0.939 . S
C313 C308 1.400 . S
C313 C312 1.389 . S
C314 P288 1.819 . S
C314 C315 1.391 . S
C314 C319 1.391 . S
C315 H297 0.941 . S
C315 C314 1.391 . S
C315 C316 1.396 . S
C316 H300 0.939 . S
C316 C315 1.396 . S
C316 C317 1.397 . S
C317 C316 1.397 . S
C317 C318 1.385 . S
C318 H301 0.940 . S
C318 C317 1.385 . S
C318 C319 1.388 . S
C319 H298 0.939 . S
C319 C314 1.391 . S
C319 C318 1.388 . S
P320 O331 1.490 . S
P320 C334 1.812 . S
P320 C340 1.803 . S
P320 C346 1.819 . S
H321 C335 0.941 . S
H322 C336 0.939 . S
H323 C338 0.940 . S
H324 C339 0.940 . S
H325 C341 0.939 . S
H326 C342 0.942 . S
H327 C344 0.940 . S
H328 C345 0.939 . S
H329 C347 0.941 . S
H330 C351 0.939 . S
O331 P320 1.490 . S
H332 C348 0.939 . S
H333 C350 0.940 . S
C334 P320 1.812 . S
C334 C335 1.389 . S
C334 C339 1.391 . S
C335 H321 0.941 . S
C335 C334 1.389 . S
C335 C336 1.397 . S
C336 H322 0.939 . S
C336 C335 1.397 . S
C336 C337 1.378 . S
C337 C336 1.378 . S
C337 C338 1.378 . S
C338 H323 0.940 . S
C338 C337 1.378 . S
C338 C339 1.396 . S
C339 H324 0.940 . S
C339 C334 1.391 . S
C339 C338 1.396 . S
C340 P320 1.803 . S
C340 C341 1.378 . S
C340 C345 1.400 . S
C341 H325 0.939 . S
C341 C340 1.378 . S
C341 C342 1.361 . S
C342 H326 0.942 . S
C342 C341 1.361 . S
C342 C343 1.369 . S
C343 C342 1.369 . S
C343 C344 1.404 . S
C344 H327 0.940 . S
C344 C343 1.404 . S
C344 C345 1.389 . S
C345 H328 0.939 . S
C345 C340 1.400 . S
C345 C344 1.389 . S
C346 P320 1.819 . S
C346 C347 1.391 . S
C346 C351 1.391 . S
C347 H329 0.941 . S
C347 C346 1.391 . S
C347 C348 1.396 . S
C348 H332 0.939 . S
C348 C347 1.396 . S
C348 C349 1.397 . S
C349 C348 1.397 . S
C349 C350 1.385 . S
C350 H333 0.940 . S
C350 C349 1.385 . S
C350 C351 1.388 . S
C351 H330 0.939 . S
C351 C346 1.391 . S
C351 C350 1.388 . S
P352 O363 1.490 . S
P352 C366 1.812 . S
P352 C372 1.803 . S
P352 C378 1.819 . S
H353 C367 0.941 . S
H354 C368 0.939 . S
H355 C370 0.940 . S
H356 C371 0.940 . S
H357 C373 0.939 . S
H358 C374 0.942 . S
H359 C376 0.940 . S
H360 C377 0.939 . S
H361 C379 0.941 . S
H362 C383 0.939 . S
O363 P352 1.490 . S
H364 C380 0.939 . S
H365 C382 0.940 . S
C366 P352 1.812 . S
C366 C367 1.389 . S
C366 C371 1.391 . S
C367 H353 0.941 . S
C367 C366 1.389 . S
C367 C368 1.397 . S
C368 H354 0.939 . S
C368 C367 1.397 . S
C368 C369 1.378 . S
C369 C368 1.378 . S
C369 C370 1.378 . S
C370 H355 0.940 . S
C370 C369 1.378 . S
C370 C371 1.396 . S
C371 H356 0.940 . S
C371 C366 1.391 . S
C371 C370 1.396 . S
C372 P352 1.803 . S
C372 C373 1.378 . S
C372 C377 1.400 . S
C373 H357 0.939 . S
C373 C372 1.378 . S
C373 C374 1.361 . S
C374 H358 0.942 . S
C374 C373 1.361 . S
C374 C375 1.369 . S
C375 C374 1.369 . S
C375 C376 1.404 . S
C376 H359 0.940 . S
C376 C375 1.404 . S
C376 C377 1.389 . S
C377 H360 0.939 . S
C377 C372 1.400 . S
C377 C376 1.389 . S
C378 P352 1.819 . S
C378 C379 1.391 . S
C378 C383 1.391 . S
C379 H361 0.941 . S
C379 C378 1.391 . S
C379 C380 1.396 . S
C380 H364 0.939 . S
C380 C379 1.396 . S
C380 C381 1.397 . S
C381 C380 1.397 . S
C381 C382 1.385 . S
C382 H365 0.940 . S
C382 C381 1.385 . S
C382 C383 1.388 . S
C383 H362 0.939 . S
C383 C378 1.391 . S
C383 C382 1.388 . S
P384 O395 1.490 . S
P384 C398 1.812 . S
P384 C404 1.803 . S
P384 C410 1.819 . S
H385 C399 0.941 . S
H386 C400 0.939 . S
H387 C402 0.940 . S
H388 C403 0.940 . S
H389 C405 0.939 . S
H390 C406 0.942 . S
H391 C408 0.940 . S
H392 C409 0.939 . S
H393 C411 0.941 . S
H394 C415 0.939 . S
O395 P384 1.490 . S
H396 C412 0.939 . S
H397 C414 0.940 . S
C398 P384 1.812 . S
C398 C399 1.389 . S
C398 C403 1.391 . S
C399 H385 0.941 . S
C399 C398 1.389 . S
C399 C400 1.397 . S
C400 H386 0.939 . S
C400 C399 1.397 . S
C400 C401 1.378 . S
C401 C400 1.378 . S
C401 C402 1.378 . S
C402 H387 0.940 . S
C402 C401 1.378 . S
C402 C403 1.396 . S
C403 H388 0.940 . S
C403 C398 1.391 . S
C403 C402 1.396 . S
C404 P384 1.803 . S
C404 C405 1.378 . S
C404 C409 1.400 . S
C405 H389 0.939 . S
C405 C404 1.378 . S
C405 C406 1.361 . S
C406 H390 0.942 . S
C406 C405 1.361 . S
C406 C407 1.369 . S
C407 C406 1.369 . S
C407 C408 1.404 . S
C408 H391 0.940 . S
C408 C407 1.404 . S
C408 C409 1.389 . S
C409 H392 0.939 . S
C409 C404 1.400 . S
C409 C408 1.389 . S
C410 P384 1.819 . S
C410 C411 1.391 . S
C410 C415 1.391 . S
C411 H393 0.941 . S
C411 C410 1.391 . S
C411 C412 1.396 . S
C412 H396 0.939 . S
C412 C411 1.396 . S
C412 C413 1.397 . S
C413 C412 1.397 . S
C413 C414 1.385 . S
C414 H397 0.940 . S
C414 C413 1.385 . S
C414 C415 1.388 . S
C415 H394 0.939 . S
C415 C410 1.391 . S
C415 C414 1.388 . S
P416 O427 1.490 . S
P416 C430 1.812 . S
P416 C436 1.803 . S
P416 C442 1.819 . S
H417 C431 0.941 . S
H418 C432 0.939 . S
H419 C434 0.940 . S
H420 C435 0.940 . S
H421 C437 0.939 . S
H422 C438 0.942 . S
H423 C440 0.940 . S
H424 C441 0.939 . S
H425 C443 0.941 . S
H426 C447 0.939 . S
O427 P416 1.490 . S
H428 C444 0.939 . S
H429 C446 0.940 . S
C430 P416 1.812 . S
C430 C431 1.389 . S
C430 C435 1.391 . S
C431 H417 0.941 . S
C431 C430 1.389 . S
C431 C432 1.397 . S
C432 H418 0.939 . S
C432 C431 1.397 . S
C432 C433 1.378 . S
C433 C432 1.378 . S
C433 C434 1.378 . S
C434 H419 0.940 . S
C434 C433 1.378 . S
C434 C435 1.396 . S
C435 H420 0.940 . S
C435 C430 1.391 . S
C435 C434 1.396 . S
C436 P416 1.803 . S
C436 C437 1.378 . S
C436 C441 1.400 . S
C437 H421 0.939 . S
C437 C436 1.378 . S
C437 C438 1.361 . S
C438 H422 0.942 . S
C438 C437 1.361 . S
C438 C439 1.369 . S
C439 C438 1.369 . S
C439 C440 1.404 . S
C440 H423 0.940 . S
C440 C439 1.404 . S
C440 C441 1.389 . S
C441 H424 0.939 . S
C441 C436 1.400 . S
C441 C440 1.389 . S
C442 P416 1.819 . S
C442 C443 1.391 . S
C442 C447 1.391 . S
C443 H425 0.941 . S
C443 C442 1.391 . S
C443 C444 1.396 . S
C444 H428 0.939 . S
C444 C443 1.396 . S
C444 C445 1.397 . S
C445 C444 1.397 . S
C445 C446 1.385 . S
C446 H429 0.940 . S
C446 C445 1.385 . S
C446 C447 1.388 . S
C447 H426 0.939 . S
C447 C442 1.391 . S
C447 C446 1.388 . S
P448 O459 1.490 . S
P448 C462 1.812 . S
P448 C468 1.803 . S
P448 C474 1.819 . S
H449 C463 0.941 . S
H450 C464 0.939 . S
H451 C466 0.940 . S
H452 C467 0.940 . S
H453 C469 0.939 . S
H454 C470 0.942 . S
H455 C472 0.940 . S
H456 C473 0.939 . S
H457 C475 0.941 . S
H458 C479 0.939 . S
O459 P448 1.490 . S
H460 C476 0.939 . S
H461 C478 0.940 . S
C462 P448 1.812 . S
C462 C463 1.389 . S
C462 C467 1.391 . S
C463 H449 0.941 . S
C463 C462 1.389 . S
C463 C464 1.397 . S
C464 H450 0.939 . S
C464 C463 1.397 . S
C464 C465 1.378 . S
C465 C464 1.378 . S
C465 C466 1.378 . S
C466 H451 0.940 . S
C466 C465 1.378 . S
C466 C467 1.396 . S
C467 H452 0.940 . S
C467 C462 1.391 . S
C467 C466 1.396 . S
C468 P448 1.803 . S
C468 C469 1.378 . S
C468 C473 1.400 . S
C469 H453 0.939 . S
C469 C468 1.378 . S
C469 C470 1.361 . S
C470 H454 0.942 . S
C470 C469 1.361 . S
C470 C471 1.369 . S
C471 C470 1.369 . S
C471 C472 1.404 . S
C472 H455 0.940 . S
C472 C471 1.404 . S
C472 C473 1.389 . S
C473 H456 0.939 . S
C473 C468 1.400 . S
C473 C472 1.389 . S
C474 P448 1.819 . S
C474 C475 1.391 . S
C474 C479 1.391 . S
C475 H457 0.941 . S
C475 C474 1.391 . S
C475 C476 1.396 . S
C476 H460 0.939 . S
C476 C475 1.396 . S
C476 C477 1.397 . S
C477 C476 1.397 . S
C477 C478 1.385 . S
C478 H461 0.940 . S
C478 C477 1.385 . S
C478 C479 1.388 . S
C479 H458 0.939 . S
C479 C474 1.391 . S
C479 C478 1.388 . S
P480 O491 1.490 . S
P480 C494 1.812 . S
P480 C500 1.803 . S
P480 C506 1.819 . S
H481 C495 0.941 . S
H482 C496 0.939 . S
H483 C498 0.940 . S
H484 C499 0.940 . S
H485 C501 0.939 . S
H486 C502 0.942 . S
H487 C504 0.940 . S
H488 C505 0.939 . S
H489 C507 0.941 . S
H490 C511 0.939 . S
O491 P480 1.490 . S
H492 C508 0.939 . S
H493 C510 0.940 . S
C494 P480 1.812 . S
C494 C495 1.389 . S
C494 C499 1.391 . S
C495 H481 0.941 . S
C495 C494 1.389 . S
C495 C496 1.397 . S
C496 H482 0.939 . S
C496 C495 1.397 . S
C496 C497 1.378 . S
C497 C496 1.378 . S
C497 C498 1.378 . S
C498 H483 0.940 . S
C498 C497 1.378 . S
C498 C499 1.396 . S
C499 H484 0.940 . S
C499 C494 1.391 . S
C499 C498 1.396 . S
C500 P480 1.803 . S
C500 C501 1.378 . S
C500 C505 1.400 . S
C501 H485 0.939 . S
C501 C500 1.378 . S
C501 C502 1.361 . S
C502 H486 0.942 . S
C502 C501 1.361 . S
C502 C503 1.369 . S
C503 C502 1.369 . S
C503 C504 1.404 . S
C504 H487 0.940 . S
C504 C503 1.404 . S
C504 C505 1.389 . S
C505 H488 0.939 . S
C505 C500 1.400 . S
C505 C504 1.389 . S
C506 P480 1.819 . S
C506 C507 1.391 . S
C506 C511 1.391 . S
C507 H489 0.941 . S
C507 C506 1.391 . S
C507 C508 1.396 . S
C508 H492 0.939 . S
C508 C507 1.396 . S
C508 C509 1.397 . S
C509 C508 1.397 . S
C509 C510 1.385 . S
C510 H493 0.940 . S
C510 C509 1.385 . S
C510 C511 1.388 . S
C511 H490 0.939 . S
C511 C506 1.391 . S
C511 C510 1.388 . S
P512 O523 1.490 . S
P512 C526 1.812 . S
P512 C532 1.803 . S
P512 C538 1.819 . S
H513 C527 0.941 . S
H514 C528 0.939 . S
H515 C530 0.940 . S
H516 C531 0.940 . S
H517 C533 0.939 . S
H518 C534 0.942 . S
H519 C536 0.940 . S
H520 C537 0.939 . S
H521 C539 0.941 . S
H522 C543 0.939 . S
O523 P512 1.490 . S
H524 C540 0.939 . S
H525 C542 0.940 . S
C526 P512 1.812 . S
C526 C527 1.389 . S
C526 C531 1.391 . S
C527 H513 0.941 . S
C527 C526 1.389 . S
C527 C528 1.397 . S
C528 H514 0.939 . S
C528 C527 1.397 . S
C528 C529 1.378 . S
C529 C528 1.378 . S
C529 C530 1.378 . S
C530 H515 0.940 . S
C530 C529 1.378 . S
C530 C531 1.396 . S
C531 H516 0.940 . S
C531 C526 1.391 . S
C531 C530 1.396 . S
C532 P512 1.803 . S
C532 C533 1.378 . S
C532 C537 1.400 . S
C533 H517 0.939 . S
C533 C532 1.378 . S
C533 C534 1.361 . S
C534 H518 0.942 . S
C534 C533 1.361 . S
C534 C535 1.369 . S
C535 C534 1.369 . S
C535 C536 1.404 . S
C536 H519 0.940 . S
C536 C535 1.404 . S
C536 C537 1.389 . S
C537 H520 0.939 . S
C537 C532 1.400 . S
C537 C536 1.389 . S
C538 P512 1.819 . S
C538 C539 1.391 . S
C538 C543 1.391 . S
C539 H521 0.941 . S
C539 C538 1.391 . S
C539 C540 1.396 . S
C540 H524 0.939 . S
C540 C539 1.396 . S
C540 C541 1.397 . S
C541 C540 1.397 . S
C541 C542 1.385 . S
C542 H525 0.940 . S
C542 C541 1.385 . S
C542 C543 1.388 . S
C543 H522 0.939 . S
C543 C538 1.391 . S
C543 C542 1.388 . S
P544 O555 1.490 . S
P544 C558 1.812 . S
P544 C564 1.803 . S
P544 C570 1.819 . S
H545 C559 0.941 . S
H546 C560 0.939 . S
H547 C562 0.940 . S
H548 C563 0.940 . S
H549 C565 0.939 . S
H550 C566 0.942 . S
H551 C568 0.940 . S
H552 C569 0.939 . S
H553 C571 0.941 . S
H554 C575 0.939 . S
O555 P544 1.490 . S
H556 C572 0.939 . S
H557 C574 0.940 . S
C558 P544 1.812 . S
C558 C559 1.389 . S
C558 C563 1.391 . S
C559 H545 0.941 . S
C559 C558 1.389 . S
C559 C560 1.397 . S
C560 H546 0.939 . S
C560 C559 1.397 . S
C560 C561 1.378 . S
C561 C560 1.378 . S
C561 C562 1.378 . S
C562 H547 0.940 . S
C562 C561 1.378 . S
C562 C563 1.396 . S
C563 H548 0.940 . S
C563 C558 1.391 . S
C563 C562 1.396 . S
C564 P544 1.803 . S
C564 C565 1.378 . S
C564 C569 1.400 . S
C565 H549 0.939 . S
C565 C564 1.378 . S
C565 C566 1.361 . S
C566 H550 0.942 . S
C566 C565 1.361 . S
C566 C567 1.369 . S
C567 C566 1.369 . S
C567 C568 1.404 . S
C568 H551 0.940 . S
C568 C567 1.404 . S
C568 C569 1.389 . S
C569 H552 0.939 . S
C569 C564 1.400 . S
C569 C568 1.389 . S
C570 P544 1.819 . S
C570 C571 1.391 . S
C570 C575 1.391 . S
C571 H553 0.941 . S
C571 C570 1.391 . S
C571 C572 1.396 . S
C572 H556 0.939 . S
C572 C571 1.396 . S
C572 C573 1.397 . S
C573 C572 1.397 . S
C573 C574 1.385 . S
C574 H557 0.940 . S
C574 C573 1.385 . S
C574 C575 1.388 . S
C575 H554 0.939 . S
C575 C570 1.391 . S
C575 C574 1.388 . S
Tb576 C586 2.825 . S
Tb576 O587 2.347 1_565 S
Tb576 O590 2.366 1_565 S
Tb576 O595 2.418 . S
Tb576 O596 2.384 1_556 S
Tb576 O599 2.479 . S
Tb576 O600 2.471 1_565 S
Eu577 O588 2.418 . S
Eu577 O589 2.384 . S
Eu577 O592 2.479 . S
Eu577 O593 2.471 1_545 S
Eu577 O594 2.347 1_545 S
Eu577 O597 2.366 1_545 S
Eu577 C607 2.825 . S
C578 O594 1.259 . S
C578 O595 1.265 1_554 S
C579 O596 1.255 . S
C579 O597 1.265 . S
C580 C582 1.380 . S
C580 C583 1.374 1_565 S
C580 C586 1.507 . S
C581 C582 1.384 . S
C581 C585 1.387 1_565 S
C581 H608 0.930 . S
C582 C580 1.380 . S
C582 C581 1.384 . S
C582 H609 0.931 . S
C583 C580 1.374 1_545 S
C583 C584 1.390 . S
C583 H610 0.930 . S
C584 C583 1.390 . S
C584 C585 1.391 . S
C584 H611 0.930 . S
C585 C581 1.387 1_545 S
C585 C584 1.391 . S
C586 Tb576 2.825 . S
C586 C580 1.507 . S
C586 O599 1.238 . S
C586 O600 1.247 1_565 S
O587 Tb576 2.347 1_545 S
O587 C591 1.259 1_556 S
O588 Eu577 2.418 . S
O588 C591 1.265 . S
O589 Eu577 2.384 . S
O589 C598 1.255 1_554 S
O590 Tb576 2.366 1_545 S
O590 C598 1.265 . S
C591 O587 1.259 1_554 S
C591 O588 1.265 . S
O592 Eu577 2.479 . S
O592 C607 1.238 . S
O593 Eu577 2.471 1_565 S
O593 C607 1.247 1_565 S
O594 Eu577 2.347 1_565 S
O594 C578 1.259 . S
O595 Tb576 2.418 . S
O595 C578 1.265 1_556 S
O596 Tb576 2.384 1_554 S
O596 C579 1.255 . S
O597 Eu577 2.366 1_565 S
O597 C579 1.265 . S
C598 O589 1.255 1_556 S
C598 O590 1.265 . S
O599 Tb576 2.479 . S
O599 C586 1.238 . S
O600 Tb576 2.471 1_545 S
O600 C586 1.247 1_545 S
C601 C604 1.380 . S
C601 C605 1.374 1_545 S
C601 C607 1.507 . S
C602 C603 1.387 1_565 S
C602 C606 1.391 . S
C603 C602 1.387 1_545 S
C603 C604 1.384 . S
C603 H612 0.930 . S
C604 C601 1.380 . S
C604 C603 1.384 . S
C604 H613 0.931 . S
C605 C601 1.374 1_565 S
C605 C606 1.390 . S
C605 H614 0.930 . S
C606 C602 1.391 . S
C606 C605 1.390 . S
C606 H615 0.930 . S
C607 Eu577 2.825 . S
C607 O592 1.238 . S
C607 O593 1.247 1_545 S
C607 C601 1.507 . S
H608 C581 0.930 . S
H609 C582 0.931 . S
H610 C583 0.930 . S
H611 C584 0.930 . S
H612 C603 0.930 . S
H613 C604 0.931 . S
H614 C605 0.930 . S
H615 C606 0.930 . S
Tb616 C626 2.825 . S
Tb616 O627 2.347 1_455 S
Tb616 O630 2.366 1_455 S
Tb616 O635 2.418 . S
Tb616 O636 2.384 1_556 S
Tb616 O639 2.479 . S
Tb616 O640 2.471 1_455 S
Eu617 O628 2.418 . S
Eu617 O629 2.384 . S
Eu617 O632 2.479 . S
Eu617 O633 2.471 1_655 S
Eu617 O634 2.347 1_655 S
Eu617 O637 2.366 1_655 S
Eu617 C647 2.825 . S
C618 O634 1.259 . S
C618 O635 1.265 1_554 S
C619 O636 1.255 . S
C619 O637 1.265 . S
C620 C622 1.395 . S
C620 C623 1.347 1_455 S
C620 C626 1.520 . S
C621 C622 1.384 . S
C621 C625 1.387 1_455 S
C621 H648 0.930 . S
C622 C620 1.395 . S
C622 C621 1.384 . S
C622 H649 0.931 . S
C623 C620 1.347 1_655 S
C623 C624 1.390 . S
C623 H650 0.930 . S
C624 C623 1.390 . S
C624 C625 1.391 . S
C624 H651 0.930 . S
C625 C621 1.387 1_655 S
C625 C624 1.391 . S
C626 Tb616 2.825 . S
C626 C620 1.520 . S
C626 O639 1.238 . S
C626 O640 1.247 1_455 S
O627 Tb616 2.347 1_655 S
O627 C631 1.259 . S
O628 Eu617 2.418 . S
O628 C631 1.265 1_554 S
O629 Eu617 2.384 . S
O629 C638 1.255 1_554 S
O630 Tb616 2.366 1_655 S
O630 C638 1.265 . S
C631 O627 1.259 . S
C631 O628 1.265 1_556 S
O632 Eu617 2.479 . S
O632 C647 1.238 . S
O633 Eu617 2.471 1_455 S
O633 C647 1.247 1_455 S
O634 Eu617 2.347 1_455 S
O634 C618 1.259 . S
O635 Tb616 2.418 . S
O635 C618 1.265 1_556 S
O636 Tb616 2.384 1_554 S
O636 C619 1.255 . S
O637 Eu617 2.366 1_455 S
O637 C619 1.265 . S
C638 O629 1.255 1_556 S
C638 O630 1.265 . S
O639 Tb616 2.479 . S
O639 C626 1.238 . S
O640 Tb616 2.471 1_655 S
O640 C626 1.247 1_655 S
C641 C644 1.380 1_455 S
C641 C645 1.374 . S
C641 C647 1.507 1_455 S
C642 C643 1.387 1_455 S
C642 C646 1.391 . S
C643 C642 1.387 1_655 S
C643 C644 1.384 . S
C643 H652 0.930 . S
C644 C641 1.380 1_655 S
C644 C643 1.384 . S
C644 H653 0.931 . S
C645 C641 1.374 . S
C645 C646 1.390 . S
C645 H654 0.930 . S
C646 C642 1.391 . S
C646 C645 1.390 . S
C646 H655 0.930 . S
C647 Eu617 2.825 . S
C647 O632 1.238 . S
C647 O633 1.247 1_655 S
C647 C641 1.507 1_655 S
H648 C621 0.930 . S
H649 C622 0.931 . S
H650 C623 0.930 . S
H651 C624 0.930 . S
H652 C643 0.930 . S
H653 C644 0.931 . S
H654 C645 0.930 . S
H655 C646 0.930 . S
Tb656 C666 2.825 . S
Tb656 O667 2.347 . S
Tb656 O670 2.366 . S
Tb656 O675 2.418 . S
Tb656 O676 2.384 . S
Tb656 O679 2.479 . S
Tb656 O680 2.471 . S
Eu657 O668 2.418 . S
Eu657 O669 2.384 1_556 S
Eu657 O672 2.479 . S
Eu657 O673 2.471 . S
Eu657 O674 2.347 . S
Eu657 O677 2.366 . S
Eu657 C687 2.825 . S
C658 O674 1.290 . S
C658 O675 1.200 1_556 S
C659 O676 1.255 1_556 S
C659 O677 1.265 . S
C660 C662 1.380 . S
C660 C663 1.374 . S
C660 C666 1.507 . S
C661 C662 1.384 . S
C661 C665 1.387 . S
C661 H688 0.930 . S
C662 C660 1.380 . S
C662 C661 1.384 . S
C662 H689 0.931 . S
C663 C660 1.374 . S
C663 C664 1.390 . S
C663 H690 0.930 . S
C664 C663 1.390 . S
C664 C665 1.391 . S
C664 H691 0.930 . S
C665 C661 1.387 . S
C665 C664 1.391 . S
C666 Tb656 2.825 . S
C666 C660 1.507 . S
C666 O679 1.238 . S
C666 O680 1.247 . S
O667 Tb656 2.347 . S
O667 C671 1.259 . S
O668 Eu657 2.418 . S
O668 C671 1.265 1_556 S
O669 Eu657 2.384 1_554 S
O669 C678 1.255 . S
O670 Tb656 2.366 . S
O670 C678 1.265 . S
C671 O667 1.259 . S
C671 O668 1.265 1_554 S
O672 Eu657 2.479 . S
O672 C687 1.238 . S
O673 Eu657 2.471 . S
O673 C687 1.247 . S
O674 Eu657 2.347 . S
O674 C658 1.290 . S
O675 Tb656 2.418 . S
O675 C658 1.200 1_554 S
O676 Tb656 2.384 . S
O676 C659 1.255 1_554 S
O677 Eu657 2.366 . S
O677 C659 1.265 . S
C678 O669 1.255 . S
C678 O670 1.265 . S
O679 Tb656 2.479 . S
O679 C666 1.238 . S
O680 Tb656 2.471 . S
O680 C666 1.247 . S
C681 C684 1.380 . S
C681 C685 1.374 . S
C681 C687 1.507 . S
C682 C683 1.387 . S
C682 C686 1.391 . S
C683 C682 1.387 . S
C683 C684 1.384 . S
C683 H692 0.930 . S
C684 C681 1.380 . S
C684 C683 1.384 . S
C684 H693 0.931 . S
C685 C681 1.374 . S
C685 C686 1.390 . S
C685 H694 0.930 . S
C686 C682 1.391 . S
C686 C685 1.390 . S
C686 H695 0.930 . S
C687 Eu657 2.825 . S
C687 O672 1.238 . S
C687 O673 1.247 . S
C687 C681 1.507 . S
H688 C661 0.930 . S
H689 C662 0.931 . S
H690 C663 0.930 . S
H691 C664 0.930 . S
H692 C683 0.930 . S
H693 C684 0.931 . S
H694 C685 0.930 . S
H695 C686 0.930 . S
Tb696 C706 2.825 . S
Tb696 O707 2.347 . S
Tb696 O710 2.366 . S
Tb696 O715 2.418 . S
Tb696 O716 2.384 . S
Tb696 O719 2.479 . S
Tb696 O720 2.471 . S
Eu697 O708 2.418 . S
Eu697 O709 2.384 . S
Eu697 O712 2.479 . S
Eu697 O713 2.471 . S
Eu697 O714 2.347 . S
Eu697 O717 2.366 . S
Eu697 C727 2.825 . S
C698 O714 1.259 . S
C698 O715 1.265 . S
C699 O716 1.255 . S
C699 O717 1.265 . S
C700 C702 1.380 . S
C700 C703 1.374 . S
C700 C706 1.507 . S
C701 C702 1.384 . S
C701 C705 1.387 . S
C701 H728 0.930 . S
C702 C700 1.380 . S
C702 C701 1.384 . S
C702 H729 0.931 . S
C703 C700 1.374 . S
C703 C704 1.390 . S
C703 H730 0.930 . S
C704 C703 1.390 . S
C704 C705 1.391 . S
C704 H731 0.930 . S
C705 C701 1.387 . S
C705 C704 1.391 . S
C706 Tb696 2.825 . S
C706 C700 1.507 . S
C706 O719 1.238 . S
C706 O720 1.247 . S
O707 Tb696 2.347 . S
O707 C711 1.259 . S
O708 Eu697 2.418 . S
O708 C711 1.265 . S
O709 Eu697 2.384 . S
O709 C718 1.255 . S
O710 Tb696 2.366 . S
O710 C718 1.265 . S
C711 O707 1.259 . S
C711 O708 1.265 . S
O712 Eu697 2.479 . S
O712 C727 1.238 . S
O713 Eu697 2.471 . S
O713 C727 1.247 . S
O714 Eu697 2.347 . S
O714 C698 1.259 . S
O715 Tb696 2.418 . S
O715 C698 1.265 . S
O716 Tb696 2.384 . S
O716 C699 1.255 . S
O717 Eu697 2.366 . S
O717 C699 1.265 . S
C718 O709 1.255 . S
C718 O710 1.265 . S
O719 Tb696 2.479 . S
O719 C706 1.238 . S
O720 Tb696 2.471 . S
O720 C706 1.247 . S
C721 C724 1.380 . S
C721 C725 1.374 . S
C721 C727 1.507 . S
C722 C723 1.387 . S
C722 C726 1.391 . S
C723 C722 1.387 . S
C723 C724 1.384 . S
C723 H732 0.930 . S
C724 C721 1.380 . S
C724 C723 1.384 . S
C724 H733 0.931 . S
C725 C721 1.374 . S
C725 C726 1.390 . S
C725 H734 0.930 . S
C726 C722 1.391 . S
C726 C725 1.390 . S
C726 H735 0.930 . S
C727 Eu697 2.825 . S
C727 O712 1.238 . S
C727 O713 1.247 . S
C727 C721 1.507 . S
H728 C701 0.930 . S
H729 C702 0.931 . S
H730 C703 0.930 . S
H731 C704 0.930 . S
H732 C723 0.930 . S
H733 C724 0.931 . S
H734 C725 0.930 . S
H735 C726 0.930 . S
Tb736 C746 2.825 . S
Tb736 O747 2.347 . S
Tb736 O750 2.366 . S
Tb736 O755 2.418 . S
Tb736 O756 2.384 . S
Tb736 O759 2.479 . S
Tb736 O760 2.471 . S
Eu737 O748 2.418 . S
Eu737 O749 2.384 . S
Eu737 O752 2.479 . S
Eu737 O753 2.471 . S
Eu737 O754 2.347 . S
Eu737 O757 2.366 . S
Eu737 C767 2.825 . S
C738 O754 1.259 . S
C738 O755 1.265 . S
C739 O756 1.255 . S
C739 O757 1.265 . S
C740 C742 1.380 . S
C740 C743 1.374 . S
C740 C746 1.507 . S
C741 C742 1.384 . S
C741 C745 1.387 . S
C741 H768 0.930 . S
C742 C740 1.380 . S
C742 C741 1.384 . S
C742 H769 0.931 . S
C743 C740 1.374 . S
C743 C744 1.390 . S
C743 H770 0.930 . S
C744 C743 1.390 . S
C744 C745 1.391 . S
C744 H771 0.930 . S
C745 C741 1.387 . S
C745 C744 1.391 . S
C746 Tb736 2.825 . S
C746 C740 1.507 . S
C746 O759 1.238 . S
C746 O760 1.247 . S
O747 Tb736 2.347 . S
O747 C751 1.259 . S
O748 Eu737 2.418 . S
O748 C751 1.265 . S
O749 Eu737 2.384 . S
O749 C758 1.255 . S
O750 Tb736 2.366 . S
O750 C758 1.265 . S
C751 O747 1.259 . S
C751 O748 1.265 . S
O752 Eu737 2.479 . S
O752 C767 1.238 . S
O753 Eu737 2.471 . S
O753 C767 1.247 . S
O754 Eu737 2.347 . S
O754 C738 1.259 . S
O755 Tb736 2.418 . S
O755 C738 1.265 . S
O756 Tb736 2.384 . S
O756 C739 1.255 . S
O757 Eu737 2.366 . S
O757 C739 1.265 . S
C758 O749 1.255 . S
C758 O750 1.265 . S
O759 Tb736 2.479 . S
O759 C746 1.238 . S
O760 Tb736 2.471 . S
O760 C746 1.247 . S
C761 C764 1.380 . S
C761 C765 1.374 . S
C761 C767 1.507 . S
C762 C763 1.387 . S
C762 C766 1.391 . S
C763 C762 1.387 . S
C763 C764 1.384 . S
C763 H772 0.930 . S
C764 C761 1.380 . S
C764 C763 1.384 . S
C764 H773 0.931 . S
C765 C761 1.374 . S
C765 C766 1.390 . S
C765 H774 0.930 . S
C766 C762 1.391 . S
C766 C765 1.390 . S
C766 H775 0.930 . S
C767 Eu737 2.825 . S
C767 O752 1.238 . S
C767 O753 1.247 . S
C767 C761 1.507 . S
H768 C741 0.930 . S
H769 C742 0.931 . S
H770 C743 0.930 . S
H771 C744 0.930 . S
H772 C763 0.930 . S
H773 C764 0.931 . S
H774 C765 0.930 . S
H775 C766 0.930 . S
Tb776 C786 2.825 . S
Tb776 O787 2.347 . S
Tb776 O790 2.366 . S
Tb776 O795 2.418 . S
Tb776 O796 2.384 . S
Tb776 O799 2.479 . S
Tb776 O800 2.471 . S
Eu777 O788 2.418 . S
Eu777 O789 2.384 . S
Eu777 O792 2.479 . S
Eu777 O793 2.471 . S
Eu777 O794 2.347 . S
Eu777 O797 2.366 . S
Eu777 C807 2.825 . S
C778 O794 1.259 . S
C778 O795 1.265 . S
C779 O796 1.255 . S
C779 O797 1.265 . S
C780 C782 1.380 . S
C780 C783 1.374 . S
C780 C786 1.507 . S
C781 C782 1.384 . S
C781 C785 1.387 . S
C781 H808 0.930 . S
C782 C780 1.380 . S
C782 C781 1.384 . S
C782 H809 0.931 . S
C783 C780 1.374 . S
C783 C784 1.390 . S
C783 H810 0.930 . S
C784 C783 1.390 . S
C784 C785 1.391 . S
C784 H811 0.930 . S
C785 C781 1.387 . S
C785 C784 1.391 . S
C786 Tb776 2.825 . S
C786 C780 1.507 . S
C786 O799 1.238 . S
C786 O800 1.247 . S
O787 Tb776 2.347 . S
O787 C791 1.259 . S
O788 Eu777 2.418 . S
O788 C791 1.265 . S
O789 Eu777 2.384 . S
O789 C798 1.255 . S
O790 Tb776 2.366 . S
O790 C798 1.265 . S
C791 O787 1.259 . S
C791 O788 1.265 . S
O792 Eu777 2.479 . S
O792 C807 1.238 . S
O793 Eu777 2.471 . S
O793 C807 1.247 . S
O794 Eu777 2.347 . S
O794 C778 1.259 . S
O795 Tb776 2.418 . S
O795 C778 1.265 . S
O796 Tb776 2.384 . S
O796 C779 1.255 . S
O797 Eu777 2.366 . S
O797 C779 1.265 . S
C798 O789 1.255 . S
C798 O790 1.265 . S
O799 Tb776 2.479 . S
O799 C786 1.238 . S
O800 Tb776 2.471 . S
O800 C786 1.247 . S
C801 C804 1.380 . S
C801 C805 1.374 . S
C801 C807 1.507 . S
C802 C803 1.387 . S
C802 C806 1.391 . S
C803 C802 1.387 . S
C803 C804 1.384 . S
C803 H812 0.930 . S
C804 C801 1.380 . S
C804 C803 1.384 . S
C804 H813 0.931 . S
C805 C801 1.374 . S
C805 C806 1.390 . S
C805 H814 0.930 . S
C806 C802 1.391 . S
C806 C805 1.390 . S
C806 H815 0.930 . S
C807 Eu777 2.825 . S
C807 O792 1.238 . S
C807 O793 1.247 . S
C807 C801 1.507 . S
H808 C781 0.930 . S
H809 C782 0.931 . S
H810 C783 0.930 . S
H811 C784 0.930 . S
H812 C803 0.930 . S
H813 C804 0.931 . S
H814 C805 0.930 . S
H815 C806 0.930 . S
Tb816 C826 2.825 . S
Tb816 O827 2.347 . S
Tb816 O830 2.366 . S
Tb816 O835 2.418 . S
Tb816 O836 2.384 . S
Tb816 O839 2.479 . S
Tb816 O840 2.471 . S
Eu817 O828 2.418 . S
Eu817 O829 2.384 . S
Eu817 O832 2.479 . S
Eu817 O833 2.471 . S
Eu817 O834 2.347 . S
Eu817 O837 2.366 . S
Eu817 C847 2.825 . S
C818 O834 1.259 . S
C818 O835 1.265 . S
C819 O836 1.255 . S
C819 O837 1.265 . S
C820 C822 1.380 . S
C820 C823 1.374 . S
C820 C826 1.507 . S
C821 C822 1.384 . S
C821 C825 1.387 . S
C821 H848 0.930 . S
C822 C820 1.380 . S
C822 C821 1.384 . S
C822 H849 0.931 . S
C823 C820 1.374 . S
C823 C824 1.390 . S
C823 H850 0.930 . S
C824 C823 1.390 . S
C824 C825 1.391 . S
C824 H851 0.930 . S
C825 C821 1.387 . S
C825 C824 1.391 . S
C826 Tb816 2.825 . S
C826 C820 1.507 . S
C826 O839 1.238 . S
C826 O840 1.247 . S
O827 Tb816 2.347 . S
O827 C831 1.259 . S
O828 Eu817 2.418 . S
O828 C831 1.265 . S
O829 Eu817 2.384 . S
O829 C838 1.255 . S
O830 Tb816 2.366 . S
O830 C838 1.265 . S
C831 O827 1.259 . S
C831 O828 1.265 . S
O832 Eu817 2.479 . S
O832 C847 1.238 . S
O833 Eu817 2.471 . S
O833 C847 1.247 . S
O834 Eu817 2.347 . S
O834 C818 1.259 . S
O835 Tb816 2.418 . S
O835 C818 1.265 . S
O836 Tb816 2.384 . S
O836 C819 1.255 . S
O837 Eu817 2.366 . S
O837 C819 1.265 . S
C838 O829 1.255 . S
C838 O830 1.265 . S
O839 Tb816 2.479 . S
O839 C826 1.238 . S
O840 Tb816 2.471 . S
O840 C826 1.247 . S
C841 C844 1.380 . S
C841 C845 1.374 . S
C841 C847 1.507 . S
C842 C843 1.387 . S
C842 C846 1.391 . S
C843 C842 1.387 . S
C843 C844 1.384 . S
C843 H852 0.930 . S
C844 C841 1.380 . S
C844 C843 1.384 . S
C844 H853 0.931 . S
C845 C841 1.374 . S
C845 C846 1.390 . S
C845 H854 0.930 . S
C846 C842 1.391 . S
C846 C845 1.390 . S
C846 H855 0.930 . S
C847 Eu817 2.825 . S
C847 O832 1.238 . S
C847 O833 1.247 . S
C847 C841 1.507 . S
H848 C821 0.930 . S
H849 C822 0.931 . S
H850 C823 0.930 . S
H851 C824 0.930 . S
H852 C843 0.930 . S
H853 C844 0.931 . S
H854 C845 0.930 . S
H855 C846 0.930 . S
Tb856 C866 2.825 . S
Tb856 O867 2.347 . S
Tb856 O870 2.366 . S
Tb856 O875 2.418 . S
Tb856 O876 2.384 . S
Tb856 O879 2.479 . S
Tb856 O880 2.471 . S
Eu857 O868 2.418 . S
Eu857 O869 2.384 . S
Eu857 O872 2.479 . S
Eu857 O873 2.471 . S
Eu857 O874 2.347 . S
Eu857 O877 2.366 . S
Eu857 C887 2.825 . S
C858 O874 1.259 . S
C858 O875 1.265 . S
C859 O876 1.255 . S
C859 O877 1.265 . S
C860 C862 1.380 . S
C860 C863 1.374 . S
C860 C866 1.507 . S
C861 C862 1.384 . S
C861 C865 1.387 . S
C861 H888 0.930 . S
C862 C860 1.380 . S
C862 C861 1.384 . S
C862 H889 0.931 . S
C863 C860 1.374 . S
C863 C864 1.390 . S
C863 H890 0.930 . S
C864 C863 1.390 . S
C864 C865 1.391 . S
C864 H891 0.930 . S
C865 C861 1.387 . S
C865 C864 1.391 . S
C866 Tb856 2.825 . S
C866 C860 1.507 . S
C866 O879 1.238 . S
C866 O880 1.247 . S
O867 Tb856 2.347 . S
O867 C871 1.259 . S
O868 Eu857 2.418 . S
O868 C871 1.265 . S
O869 Eu857 2.384 . S
O869 C878 1.255 . S
O870 Tb856 2.366 . S
O870 C878 1.265 . S
C871 O867 1.259 . S
C871 O868 1.265 . S
O872 Eu857 2.479 . S
O872 C887 1.238 . S
O873 Eu857 2.471 . S
O873 C887 1.247 . S
O874 Eu857 2.347 . S
O874 C858 1.259 . S
O875 Tb856 2.418 . S
O875 C858 1.265 . S
O876 Tb856 2.384 . S
O876 C859 1.255 . S
O877 Eu857 2.366 . S
O877 C859 1.265 . S
C878 O869 1.255 . S
C878 O870 1.265 . S
O879 Tb856 2.479 . S
O879 C866 1.238 . S
O880 Tb856 2.471 . S
O880 C866 1.247 . S
C881 C884 1.380 . S
C881 C885 1.374 . S
C881 C887 1.507 . S
C882 C883 1.387 . S
C882 C886 1.391 . S
C883 C882 1.387 . S
C883 C884 1.384 . S
C883 H892 0.930 . S
C884 C881 1.380 . S
C884 C883 1.384 . S
C884 H893 0.931 . S
C885 C881 1.374 . S
C885 C886 1.390 . S
C885 H894 0.930 . S
C886 C882 1.391 . S
C886 C885 1.390 . S
C886 H895 0.930 . S
C887 Eu857 2.825 . S
C887 O872 1.238 . S
C887 O873 1.247 . S
C887 C881 1.507 . S
H888 C861 0.930 . S
H889 C862 0.931 . S
H890 C863 0.930 . S
H891 C864 0.930 . S
H892 C883 0.930 . S
H893 C884 0.931 . S
H894 C885 0.930 . S
H895 C886 0.930 . S
Tb896 C906 2.825 . S
Tb896 O907 2.347 . S
Tb896 O910 2.366 . S
Tb896 O915 2.418 . S
Tb896 O916 2.384 . S
Tb896 O919 2.479 . S
Tb896 O920 2.471 . S
Eu897 O908 2.418 . S
Eu897 O909 2.384 . S
Eu897 O912 2.479 . S
Eu897 O913 2.471 . S
Eu897 O914 2.347 . S
Eu897 O917 2.366 . S
Eu897 C927 2.825 . S
C898 O914 1.259 . S
C898 O915 1.265 . S
C899 O916 1.255 . S
C899 O917 1.265 . S
C900 C902 1.380 . S
C900 C903 1.374 . S
C900 C906 1.507 . S
C901 C902 1.384 . S
C901 C905 1.387 . S
C901 H928 0.930 . S
C902 C900 1.380 . S
C902 C901 1.384 . S
C902 H929 0.931 . S
C903 C900 1.374 . S
C903 C904 1.390 . S
C903 H930 0.930 . S
C904 C903 1.390 . S
C904 C905 1.391 . S
C904 H931 0.930 . S
C905 C901 1.387 . S
C905 C904 1.391 . S
C906 Tb896 2.825 . S
C906 C900 1.507 . S
C906 O919 1.238 . S
C906 O920 1.247 . S
O907 Tb896 2.347 . S
O907 C911 1.259 . S
O908 Eu897 2.418 . S
O908 C911 1.265 . S
O909 Eu897 2.384 . S
O909 C918 1.255 . S
O910 Tb896 2.366 . S
O910 C918 1.265 . S
C911 O907 1.259 . S
C911 O908 1.265 . S
O912 Eu897 2.479 . S
O912 C927 1.238 . S
O913 Eu897 2.471 . S
O913 C927 1.247 . S
O914 Eu897 2.347 . S
O914 C898 1.259 . S
O915 Tb896 2.418 . S
O915 C898 1.265 . S
O916 Tb896 2.384 . S
O916 C899 1.255 . S
O917 Eu897 2.366 . S
O917 C899 1.265 . S
C918 O909 1.255 . S
C918 O910 1.265 . S
O919 Tb896 2.479 . S
O919 C906 1.238 . S
O920 Tb896 2.471 . S
O920 C906 1.247 . S
C921 C924 1.380 . S
C921 C925 1.374 . S
C921 C927 1.507 . S
C922 C923 1.387 . S
C922 C926 1.391 . S
C923 C922 1.387 . S
C923 C924 1.384 . S
C923 H932 0.930 . S
C924 C921 1.380 . S
C924 C923 1.384 . S
C924 H933 0.931 . S
C925 C921 1.374 . S
C925 C926 1.390 . S
C925 H934 0.930 . S
C926 C922 1.391 . S
C926 C925 1.390 . S
C926 H935 0.930 . S
C927 Eu897 2.825 . S
C927 O912 1.238 . S
C927 O913 1.247 . S
C927 C921 1.507 . S
H928 C901 0.930 . S
H929 C902 0.931 . S
H930 C903 0.930 . S
H931 C904 0.930 . S
H932 C923 0.930 . S
H933 C924 0.931 . S
H934 C925 0.930 . S
H935 C926 0.930 . S
C936 C937 1.391 . S
C936 C938 1.394 . S
C936 H952 0.931 . S
C937 C936 1.391 . S
C937 C941 1.376 . S
C938 C936 1.394 . S
C938 C939 1.369 . S
C938 C942 1.531 . S
C939 C938 1.369 . S
C939 C940 1.410 . S
C939 C947 1.503 . S
C940 C939 1.410 . S
C940 C941 1.392 . S
C940 C943 1.511 . S
C941 C937 1.376 . S
C941 C940 1.392 . S
C941 H953 0.929 . S
C942 C938 1.531 . S
C942 H954 0.960 . S
C942 H955 0.962 . S
C942 H956 0.960 . S
C943 C940 1.511 . S
C943 H957 0.961 . S
C943 H958 0.961 . S
C943 H959 0.961 . S
C944 C945 1.370 . S
C944 C946 1.363 . S
C944 H960 0.931 . S
C945 C944 1.370 . S
C945 C949 1.408 . S
C946 C944 1.363 . S
C946 C947 1.370 . S
C946 C950 1.524 . S
C947 C939 1.503 . S
C947 C946 1.370 . S
C947 C948 1.403 . S
C948 C947 1.403 . S
C948 C949 1.404 . S
C948 C951 1.539 . S
C949 C945 1.408 . S
C949 C948 1.404 . S
C949 H961 0.930 . S
C950 C946 1.524 . S
C950 H962 0.956 . S
C950 H963 0.961 . S
C950 H964 0.961 . S
C951 C948 1.539 . S
C951 H965 0.958 . S
C951 H966 0.961 . S
C951 H967 0.960 . S
H952 C936 0.931 . S
H953 C941 0.929 . S
H954 C942 0.960 . S
H955 C942 0.962 . S
H956 C942 0.960 . S
H957 C943 0.961 . S
H958 C943 0.961 . S
H959 C943 0.961 . S
H960 C944 0.931 . S
H961 C949 0.930 . S
H962 C950 0.956 . S
H963 C950 0.961 . S
H964 C950 0.961 . S
H965 C951 0.958 . S
H966 C951 0.961 . S
H967 C951 0.960 . S
C968 C969 1.391 . S
C968 C970 1.394 . S
C968 H984 0.931 . S
C969 C968 1.391 . S
C969 C973 1.376 . S
C970 C968 1.394 . S
C970 C971 1.369 . S
C970 C974 1.531 . S
C971 C970 1.369 . S
C971 C972 1.410 . S
C971 C979 1.503 . S
C972 C971 1.410 . S
C972 C973 1.392 . S
C972 C975 1.511 . S
C973 C969 1.376 . S
C973 C972 1.392 . S
C973 H985 0.929 . S
C974 C970 1.531 . S
C974 H986 0.960 . S
C974 H987 0.962 . S
C974 H988 0.960 . S
C975 C972 1.511 . S
C975 H989 0.961 . S
C975 H990 0.961 . S
C975 H991 0.961 . S
C976 C977 1.370 . S
C976 C978 1.363 . S
C976 H992 0.931 . S
C977 C976 1.370 . S
C977 C981 1.408 . S
C978 C976 1.363 . S
C978 C979 1.370 . S
C978 C982 1.524 . S
C979 C971 1.503 . S
C979 C978 1.370 . S
C979 C980 1.403 . S
C980 C979 1.403 . S
C980 C981 1.404 . S
C980 C983 1.539 . S
C981 C977 1.408 . S
C981 C980 1.404 . S
C981 H993 0.930 . S
C982 C978 1.524 . S
C982 H994 0.956 . S
C982 H995 0.961 . S
C982 H996 0.961 . S
C983 C980 1.539 . S
C983 H997 0.958 . S
C983 H998 0.961 . S
C983 H999 0.960 . S
H984 C968 0.931 . S
H985 C973 0.929 . S
H986 C974 0.960 . S
H987 C974 0.962 . S
H988 C974 0.960 . S
H989 C975 0.961 . S
H990 C975 0.961 . S
H991 C975 0.961 . S
H992 C976 0.931 . S
H993 C981 0.930 . S
H994 C982 0.956 . S
H995 C982 0.961 . S
H996 C982 0.961 . S
H997 C983 0.958 . S
H998 C983 0.961 . S
H999 C983 0.960 . S
C1000 C1001 1.391 . S
C1000 C1002 1.394 . S
C1000 H1016 0.931 . S
C1001 C1000 1.391 . S
C1001 C1005 1.376 . S
C1002 C1000 1.394 . S
C1002 C1003 1.369 . S
C1002 C1006 1.484 1_554 S
C1003 C1002 1.369 . S
C1003 C1004 1.410 . S
C1003 C1011 1.503 . S
C1004 C1003 1.410 . S
C1004 C1005 1.392 . S
C1004 C1007 1.511 . S
C1005 C1001 1.376 . S
C1005 C1004 1.392 . S
C1005 H1017 0.929 . S
C1006 C1002 1.484 1_556 S
C1006 H1018 0.979 . S
C1006 H1019 0.947 1_556 S
C1006 H1020 1.008 . S
C1007 C1004 1.511 . S
C1007 H1021 0.961 . S
C1007 H1022 0.961 . S
C1007 H1023 0.961 . S
C1008 C1009 1.370 . S
C1008 C1010 1.363 . S
C1008 H1024 0.931 . S
C1009 C1008 1.370 . S
C1009 C1013 1.408 . S
C1010 C1008 1.363 . S
C1010 C1011 1.370 . S
C1010 C1014 1.524 . S
C1011 C1003 1.503 . S
C1011 C1010 1.370 . S
C1011 C1012 1.403 . S
C1012 C1011 1.403 . S
C1012 C1013 1.404 . S
C1012 C1015 1.539 . S
C1013 C1009 1.408 . S
C1013 C1012 1.404 . S
C1013 H1025 0.930 . S
C1014 C1010 1.524 . S
C1014 H1026 0.956 . S
C1014 H1027 0.961 . S
C1014 H1028 0.961 . S
C1015 C1012 1.539 . S
C1015 H1029 0.958 1_554 S
C1015 H1030 0.961 . S
C1015 H1031 0.960 . S
H1016 C1000 0.931 . S
H1017 C1005 0.929 . S
H1018 C1006 0.979 . S
H1019 C1006 0.947 1_554 S
H1020 C1006 1.008 . S
H1021 C1007 0.961 . S
H1022 C1007 0.961 . S
H1023 C1007 0.961 . S
H1024 C1008 0.931 . S
H1025 C1013 0.930 . S
H1026 C1014 0.956 . S
H1027 C1014 0.961 . S
H1028 C1014 0.961 . S
H1029 C1015 0.958 1_556 S
H1030 C1015 0.961 . S
H1031 C1015 0.960 . S
C1032 C1033 1.391 . S
C1032 C1034 1.394 . S
C1032 H1048 0.931 . S
C1033 C1032 1.391 . S
C1033 C1037 1.376 . S
C1034 C1032 1.394 . S
C1034 C1035 1.369 . S
C1034 C1038 1.531 1_556 S
C1035 C1034 1.369 . S
C1035 C1036 1.410 . S
C1035 C1043 1.503 . S
C1036 C1035 1.410 . S
C1036 C1037 1.392 . S
C1036 C1039 1.511 . S
C1037 C1033 1.376 . S
C1037 C1036 1.392 . S
C1037 H1049 0.929 . S
C1038 C1034 1.531 1_554 S
C1038 H1050 0.960 . S
C1038 H1051 0.962 . S
C1038 H1052 0.960 . S
C1039 C1036 1.511 . S
C1039 H1053 0.961 . S
C1039 H1054 0.961 . S
C1039 H1055 0.961 . S
C1040 C1041 1.370 . S
C1040 C1042 1.363 . S
C1040 H1056 0.931 . S
C1041 C1040 1.370 . S
C1041 C1045 1.408 . S
C1042 C1040 1.363 . S
C1042 C1043 1.370 . S
C1042 C1046 1.524 . S
C1043 C1035 1.503 . S
C1043 C1042 1.370 . S
C1043 C1044 1.403 . S
C1044 C1043 1.403 . S
C1044 C1045 1.404 . S
C1044 C1047 1.539 . S
C1045 C1041 1.408 . S
C1045 C1044 1.404 . S
C1045 H1057 0.930 . S
C1046 C1042 1.524 . S
C1046 H1058 0.956 . S
C1046 H1059 0.961 . S
C1046 H1060 0.961 . S
C1047 C1044 1.539 . S
C1047 H1061 0.966 . S
C1047 H1062 0.961 . S
C1047 H1063 0.960 . S
H1048 C1032 0.931 . S
H1049 C1037 0.929 . S
H1050 C1038 0.960 . S
H1051 C1038 0.962 . S
H1052 C1038 0.960 . S
H1053 C1039 0.961 . S
H1054 C1039 0.961 . S
H1055 C1039 0.961 . S
H1056 C1040 0.931 . S
H1057 C1045 0.930 . S
H1058 C1046 0.956 . S
H1059 C1046 0.961 . S
H1060 C1046 0.961 . S
H1061 C1047 0.966 . S
H1062 C1047 0.961 . S
H1063 C1047 0.960 . S
C1064 C1065 1.391 . S
C1064 C1066 1.394 . S
C1064 H1080 0.931 . S
C1065 C1064 1.391 . S
C1065 C1069 1.376 . S
C1066 C1064 1.394 . S
C1066 C1067 1.369 . S
C1066 C1070 1.531 . S
C1067 C1066 1.369 . S
C1067 C1068 1.410 . S
C1067 C1075 1.503 . S
C1068 C1067 1.410 . S
C1068 C1069 1.392 . S
C1068 C1071 1.511 . S
C1069 C1065 1.376 . S
C1069 C1068 1.392 . S
C1069 H1081 0.929 . S
C1070 C1066 1.531 . S
C1070 H1082 0.960 . S
C1070 H1083 0.962 . S
C1070 H1084 0.960 . S
C1071 C1068 1.511 . S
C1071 H1085 0.961 . S
C1071 H1086 0.961 . S
C1071 H1087 0.961 . S
C1072 C1073 1.370 . S
C1072 C1074 1.363 . S
C1072 H1088 0.931 . S
C1073 C1072 1.370 . S
C1073 C1077 1.408 . S
C1074 C1072 1.363 . S
C1074 C1075 1.370 . S
C1074 C1078 1.524 . S
C1075 C1067 1.503 . S
C1075 C1074 1.370 . S
C1075 C1076 1.403 . S
C1076 C1075 1.403 . S
C1076 C1077 1.404 . S
C1076 C1079 1.539 . S
C1077 C1073 1.408 . S
C1077 C1076 1.404 . S
C1077 H1089 0.930 . S
C1078 C1074 1.524 . S
C1078 H1090 0.956 . S
C1078 H1091 0.961 . S
C1078 H1092 0.961 . S
C1079 C1076 1.539 . S
C1079 H1093 0.958 . S
C1079 H1094 0.961 . S
C1079 H1095 0.960 . S
H1080 C1064 0.931 . S
H1081 C1069 0.929 . S
H1082 C1070 0.960 . S
H1083 C1070 0.962 . S
H1084 C1070 0.960 . S
H1085 C1071 0.961 . S
H1086 C1071 0.961 . S
H1087 C1071 0.961 . S
H1088 C1072 0.931 . S
H1089 C1077 0.930 . S
H1090 C1078 0.956 . S
H1091 C1078 0.961 . S
H1092 C1078 0.961 . S
H1093 C1079 0.958 . S
H1094 C1079 0.961 . S
H1095 C1079 0.960 . S
C1096 C1097 1.391 . S
C1096 C1098 1.394 . S
C1096 H1112 0.931 . S
C1097 C1096 1.391 . S
C1097 C1101 1.376 . S
C1098 C1096 1.394 . S
C1098 C1099 1.369 . S
C1098 C1102 1.531 . S
C1099 C1098 1.369 . S
C1099 C1100 1.410 . S
C1099 C1107 1.503 . S
C1100 C1099 1.410 . S
C1100 C1101 1.392 . S
C1100 C1103 1.511 . S
C1101 C1097 1.376 . S
C1101 C1100 1.392 . S
C1101 H1113 0.929 . S
C1102 C1098 1.531 . S
C1102 H1114 0.960 . S
C1102 H1115 0.962 1_556 S
C1102 H1116 0.960 . S
C1103 C1100 1.511 . S
C1103 H1117 0.961 . S
C1103 H1118 0.961 . S
C1103 H1119 0.961 . S
C1104 C1105 1.370 1_554 S
C1104 C1106 1.363 1_554 S
C1104 H1120 0.931 . S
C1105 C1104 1.370 1_556 S
C1105 C1109 1.408 . S
C1106 C1104 1.363 1_556 S
C1106 C1107 1.370 . S
C1106 C1110 1.524 1_556 S
C1107 C1099 1.503 . S
C1107 C1106 1.370 . S
C1107 C1108 1.403 . S
C1108 C1107 1.403 . S
C1108 C1109 1.404 . S
C1108 C1111 1.539 . S
C1109 C1105 1.408 . S
C1109 C1108 1.404 . S
C1109 H1121 0.930 . S
C1110 C1106 1.524 1_554 S
C1110 H1122 0.956 . S
C1110 H1123 0.961 1_554 S
C1110 H1124 0.961 . S
C1111 C1108 1.539 . S
C1111 H1125 0.958 . S
C1111 H1126 0.961 . S
C1111 H1127 0.960 . S
H1112 C1096 0.931 . S
H1113 C1101 0.929 . S
H1114 C1102 0.960 . S
H1115 C1102 0.962 1_554 S
H1116 C1102 0.960 . S
H1117 C1103 0.961 . S
H1118 C1103 0.961 . S
H1119 C1103 0.961 . S
H1120 C1104 0.931 . S
H1121 C1109 0.930 . S
H1122 C1110 0.956 . S
H1123 C1110 0.961 1_556 S
H1124 C1110 0.961 . S
H1125 C1111 0.958 . S
H1126 C1111 0.961 . S
H1127 C1111 0.960 . S
C1128 C1129 1.391 . S
C1128 C1130 1.394 . S
C1128 H1144 0.931 . S
C1129 C1128 1.391 . S
C1129 C1133 1.376 . S
C1130 C1128 1.394 . S
C1130 C1131 1.369 . S
C1130 C1134 1.531 . S
C1131 C1130 1.369 . S
C1131 C1132 1.410 . S
C1131 C1139 1.503 . S
C1132 C1131 1.410 . S
C1132 C1133 1.392 . S
C1132 C1135 1.511 . S
C1133 C1129 1.376 . S
C1133 C1132 1.392 . S
C1133 H1145 0.929 . S
C1134 C1130 1.531 . S
C1134 H1146 0.960 . S
C1134 H1147 0.962 . S
C1134 H1148 0.960 . S
C1135 C1132 1.511 . S
C1135 H1149 0.961 . S
C1135 H1150 0.961 . S
C1135 H1151 0.961 . S
C1136 C1137 1.370 . S
C1136 C1138 1.363 . S
C1136 H1152 0.931 1_556 S
C1137 C1136 1.370 . S
C1137 C1141 1.408 . S
C1138 C1136 1.363 . S
C1138 C1139 1.370 . S
C1138 C1142 1.541 . S
C1139 C1131 1.503 . S
C1139 C1138 1.370 . S
C1139 C1140 1.403 . S
C1140 C1139 1.403 . S
C1140 C1141 1.404 . S
C1140 C1143 1.539 . S
C1141 C1137 1.408 . S
C1141 C1140 1.404 . S
C1141 H1153 0.930 . S
C1142 C1138 1.541 . S
C1142 H1154 0.977 . S
C1142 H1155 0.957 1_556 S
C1142 H1156 0.927 1_556 S
C1143 C1140 1.539 . S
C1143 H1157 0.958 . S
C1143 H1158 0.961 . S
C1143 H1159 0.960 . S
H1144 C1128 0.931 . S
H1145 C1133 0.929 . S
H1146 C1134 0.960 . S
H1147 C1134 0.962 . S
H1148 C1134 0.960 . S
H1149 C1135 0.961 . S
H1150 C1135 0.961 . S
H1151 C1135 0.961 . S
H1152 C1136 0.931 1_554 S
H1153 C1141 0.930 . S
H1154 C1142 0.977 . S
H1155 C1142 0.957 1_554 S
H1156 C1142 0.927 1_554 S
H1157 C1143 0.958 . S
H1158 C1143 0.961 . S
H1159 C1143 0.960 . S
C1160 C1161 1.391 . S
C1160 C1162 1.394 . S
C1160 H1176 0.931 . S
C1161 C1160 1.391 . S
C1161 C1165 1.376 . S
C1162 C1160 1.394 . S
C1162 C1163 1.369 . S
C1162 C1166 1.531 . S
C1163 C1162 1.369 . S
C1163 C1164 1.410 . S
C1163 C1171 1.503 . S
C1164 C1163 1.410 . S
C1164 C1165 1.392 . S
C1164 C1167 1.511 . S
C1165 C1161 1.376 . S
C1165 C1164 1.392 . S
C1165 H1177 0.929 . S
C1166 C1162 1.531 . S
C1166 H1178 0.960 . S
C1166 H1179 0.962 . S
C1166 H1180 0.960 . S
C1167 C1164 1.511 . S
C1167 H1181 0.961 . S
C1167 H1182 0.961 . S
C1167 H1183 0.961 . S
C1168 C1169 1.370 . S
C1168 C1170 1.363 . S
C1168 H1184 0.931 . S
C1169 C1168 1.370 . S
C1169 C1173 1.408 . S
C1170 C1168 1.363 . S
C1170 C1171 1.370 . S
C1170 C1174 1.524 . S
C1171 C1163 1.503 . S
C1171 C1170 1.370 . S
C1171 C1172 1.403 . S
C1172 C1171 1.403 . S
C1172 C1173 1.404 . S
C1172 C1175 1.539 . S
C1173 C1169 1.408 . S
C1173 C1172 1.404 . S
C1173 H1185 0.930 . S
C1174 C1170 1.524 . S
C1174 H1186 0.956 . S
C1174 H1187 0.961 . S
C1174 H1188 0.961 . S
C1175 C1172 1.539 . S
C1175 H1189 0.958 . S
C1175 H1190 0.961 . S
C1175 H1191 0.960 . S
H1176 C1160 0.931 . S
H1177 C1165 0.929 . S
H1178 C1166 0.960 . S
H1179 C1166 0.962 . S
H1180 C1166 0.960 . S
H1181 C1167 0.961 . S
H1182 C1167 0.961 . S
H1183 C1167 0.961 . S
H1184 C1168 0.931 . S
H1185 C1173 0.930 . S
H1186 C1174 0.956 . S
H1187 C1174 0.961 . S
H1188 C1174 0.961 . S
H1189 C1175 0.958 . S
H1190 C1175 0.961 . S
H1191 C1175 0.960 . S
C1192 C1193 1.391 . S
C1192 C1194 1.394 . S
C1192 H1208 0.931 . S
C1193 C1192 1.391 . S
C1193 C1197 1.376 . S
C1194 C1192 1.394 . S
C1194 C1195 1.369 . S
C1194 C1198 1.531 1_556 S
C1195 C1194 1.369 . S
C1195 C1196 1.410 . S
C1195 C1203 1.503 . S
C1196 C1195 1.410 . S
C1196 C1197 1.392 . S
C1196 C1199 1.511 . S
C1197 C1193 1.376 . S
C1197 C1196 1.392 . S
C1197 H1209 0.929 . S
C1198 C1194 1.531 1_554 S
C1198 H1210 0.960 . S
C1198 H1211 0.988 . S
C1198 H1212 0.960 . S
C1199 C1196 1.511 . S
C1199 H1213 0.961 . S
C1199 H1214 0.961 . S
C1199 H1215 0.961 . S
C1200 C1201 1.370 . S
C1200 C1202 1.363 . S
C1200 H1216 0.931 . S
C1201 C1200 1.370 . S
C1201 C1205 1.408 1_556 S
C1202 C1200 1.363 . S
C1202 C1203 1.370 . S
C1202 C1206 1.524 . S
C1203 C1195 1.503 . S
C1203 C1202 1.370 . S
C1203 C1204 1.403 . S
C1204 C1203 1.403 . S
C1204 C1205 1.404 1_556 S
C1204 C1207 1.539 1_556 S
C1205 C1201 1.408 1_554 S
C1205 C1204 1.404 1_554 S
C1205 H1217 0.930 . S
C1206 C1202 1.524 . S
C1206 H1218 0.956 . S
C1206 H1219 0.961 . S
C1206 H1220 0.961 . S
C1207 C1204 1.539 1_554 S
C1207 H1221 0.958 . S
C1207 H1222 0.961 . S
C1207 H1223 0.960 . S
H1208 C1192 0.931 . S
H1209 C1197 0.929 . S
H1210 C1198 0.960 . S
H1211 C1198 0.988 . S
H1212 C1198 0.960 . S
H1213 C1199 0.961 . S
H1214 C1199 0.961 . S
H1215 C1199 0.961 . S
H1216 C1200 0.931 . S
H1217 C1205 0.930 . S
H1218 C1206 0.956 . S
H1219 C1206 0.961 . S
H1220 C1206 0.961 . S
H1221 C1207 0.958 . S
H1222 C1207 0.961 . S
H1223 C1207 0.960 . S
C1224 C1225 1.391 . S
C1224 C1226 1.394 . S
C1224 H1240 0.931 . S
C1225 C1224 1.391 . S
C1225 C1229 1.376 . S
C1226 C1224 1.394 . S
C1226 C1227 1.369 . S
C1226 C1230 1.531 . S
C1227 C1226 1.369 . S
C1227 C1228 1.410 . S
C1227 C1235 1.503 . S
C1228 C1227 1.410 . S
C1228 C1229 1.392 . S
C1228 C1231 1.511 . S
C1229 C1225 1.376 . S
C1229 C1228 1.392 . S
C1229 H1241 0.929 . S
C1230 C1226 1.531 . S
C1230 H1242 0.960 . S
C1230 H1243 0.962 . S
C1230 H1244 0.960 . S
C1231 C1228 1.511 . S
C1231 H1245 0.961 1_554 S
C1231 H1246 0.961 . S
C1231 H1247 0.961 . S
C1232 C1233 1.370 . S
C1232 C1234 1.363 . S
C1232 H1248 0.931 . S
C1233 C1232 1.370 . S
C1233 C1237 1.408 . S
C1234 C1232 1.363 . S
C1234 C1235 1.370 . S
C1234 C1238 1.524 . S
C1235 C1227 1.503 . S
C1235 C1234 1.370 . S
C1235 C1236 1.403 . S
C1236 C1235 1.403 . S
C1236 C1237 1.404 . S
C1236 C1239 1.539 . S
C1237 C1233 1.408 . S
C1237 C1236 1.404 . S
C1237 H1249 0.930 . S
C1238 C1234 1.524 . S
C1238 H1250 0.956 . S
C1238 H1251 0.961 . S
C1238 H1252 0.961 . S
C1239 C1236 1.539 . S
C1239 H1253 0.958 . S
C1239 H1254 0.961 . S
C1239 H1255 0.960 . S
H1240 C1224 0.931 . S
H1241 C1229 0.929 . S
H1242 C1230 0.960 . S
H1243 C1230 0.962 . S
H1244 C1230 0.960 . S
H1245 C1231 0.961 1_556 S
H1246 C1231 0.961 . S
H1247 C1231 0.961 . S
H1248 C1232 0.931 . S
H1249 C1237 0.930 . S
H1250 C1238 0.956 . S
H1251 C1238 0.961 . S
H1252 C1238 0.961 . S
H1253 C1239 0.958 . S
H1254 C1239 0.961 . S
H1255 C1239 0.960 . S
C1256 C1257 1.391 . S
C1256 C1258 1.394 . S
C1256 H1272 0.931 . S
C1257 C1256 1.391 . S
C1257 C1261 1.376 . S
C1258 C1256 1.394 . S
C1258 C1259 1.369 . S
C1258 C1262 1.531 . S
C1259 C1258 1.369 . S
C1259 C1260 1.410 . S
C1259 C1267 1.503 . S
C1260 C1259 1.410 . S
C1260 C1261 1.392 . S
C1260 C1263 1.511 . S
C1261 C1257 1.376 . S
C1261 C1260 1.392 . S
C1261 H1273 0.929 . S
C1262 C1258 1.531 . S
C1262 H1274 0.960 . S
C1262 H1275 0.962 . S
C1262 H1276 0.960 . S
C1263 C1260 1.511 . S
C1263 H1277 0.961 . S
C1263 H1278 0.961 . S
C1263 H1279 0.961 . S
C1264 C1265 1.370 . S
C1264 C1266 1.363 . S
C1264 H1280 0.931 . S
C1265 C1264 1.370 . S
C1265 C1269 1.408 . S
C1266 C1264 1.363 . S
C1266 C1267 1.370 . S
C1266 C1270 1.524 . S
C1267 C1259 1.503 . S
C1267 C1266 1.370 . S
C1267 C1268 1.403 . S
C1268 C1267 1.403 . S
C1268 C1269 1.404 . S
C1268 C1271 1.539 . S
C1269 C1265 1.408 . S
C1269 C1268 1.404 . S
C1269 H1281 0.930 . S
C1270 C1266 1.524 . S
C1270 H1282 0.956 . S
C1270 H1283 0.961 . S
C1270 H1284 0.961 . S
C1271 C1268 1.539 . S
C1271 H1285 0.958 . S
C1271 H1286 0.961 . S
C1271 H1287 0.960 . S
H1272 C1256 0.931 . S
H1273 C1261 0.929 . S
H1274 C1262 0.960 . S
H1275 C1262 0.962 . S
H1276 C1262 0.960 . S
H1277 C1263 0.961 . S
H1278 C1263 0.961 . S
H1279 C1263 0.961 . S
H1280 C1264 0.931 . S
H1281 C1269 0.930 . S
H1282 C1270 0.956 . S
H1283 C1270 0.961 . S
H1284 C1270 0.961 . S
H1285 C1271 0.958 . S
H1286 C1271 0.961 . S
H1287 C1271 0.960 . S
C1288 C1289 1.391 . S
C1288 C1290 1.394 . S
C1288 H1304 0.931 . S
C1289 C1288 1.391 . S
C1289 C1293 1.376 . S
C1290 C1288 1.394 . S
C1290 C1291 1.369 . S
C1290 C1294 1.531 . S
C1291 C1290 1.369 . S
C1291 C1292 1.410 . S
C1291 C1299 1.503 . S
C1292 C1291 1.410 . S
C1292 C1293 1.392 . S
C1292 C1295 1.511 . S
C1293 C1289 1.376 . S
C1293 C1292 1.392 . S
C1293 H1305 0.929 . S
C1294 C1290 1.531 . S
C1294 H1306 0.960 . S
C1294 H1307 0.962 . S
C1294 H1308 0.960 . S
C1295 C1292 1.511 . S
C1295 H1309 0.961 . S
C1295 H1310 0.961 . S
C1295 H1311 0.961 . S
C1296 C1297 1.370 . S
C1296 C1298 1.363 . S
C1296 H1312 0.931 1_554 S
C1297 C1296 1.370 . S
C1297 C1301 1.408 . S
C1298 C1296 1.363 . S
C1298 C1299 1.370 . S
C1298 C1302 1.524 . S
C1299 C1291 1.503 . S
C1299 C1298 1.370 . S
C1299 C1300 1.403 . S
C1300 C1299 1.403 . S
C1300 C1301 1.404 . S
C1300 C1303 1.539 . S
C1301 C1297 1.408 . S
C1301 C1300 1.404 . S
C1301 H1313 0.930 . S
C1302 C1298 1.524 . S
C1302 H1314 0.956 1_554 S
C1302 H1315 0.961 . S
C1302 H1316 0.961 1_554 S
C1303 C1300 1.539 . S
C1303 H1317 0.958 . S
C1303 H1318 0.961 . S
C1303 H1319 0.960 . S
H1304 C1288 0.931 . S
H1305 C1293 0.929 . S
H1306 C1294 0.960 . S
H1307 C1294 0.962 . S
H1308 C1294 0.960 . S
H1309 C1295 0.961 . S
H1310 C1295 0.961 . S
H1311 C1295 0.961 . S
H1312 C1296 0.931 1_556 S
H1313 C1301 0.930 . S
H1314 C1302 0.956 1_556 S
H1315 C1302 0.961 . S
H1316 C1302 0.961 1_556 S
H1317 C1303 0.958 . S
H1318 C1303 0.961 . S
H1319 C1303 0.960 . S
C1320 C1321 1.391 . S
C1320 C1322 1.394 1_655 S
C1320 H1336 0.931 . S
C1321 C1320 1.391 . S
C1321 C1325 1.376 . S
C1322 C1320 1.394 1_455 S
C1322 C1323 1.369 . S
C1322 C1326 1.531 . S
C1323 C1322 1.369 . S
C1323 C1324 1.410 . S
C1323 C1331 1.503 . S
C1324 C1323 1.410 . S
C1324 C1325 1.392 1_455 S
C1324 C1327 1.511 . S
C1325 C1321 1.376 . S
C1325 C1324 1.392 1_655 S
C1325 H1337 0.929 . S
C1326 C1322 1.531 . S
C1326 H1338 0.960 . S
C1326 H1339 0.962 . S
C1326 H1340 0.960 . S
C1327 C1324 1.511 . S
C1327 H1341 0.961 1_455 S
C1327 H1342 0.961 . S
C1327 H1343 0.961 . S
C1328 C1329 1.370 . S
C1328 C1330 1.363 . S
C1328 H1344 0.931 . S
C1329 C1328 1.370 . S
C1329 C1333 1.408 . S
C1330 C1328 1.363 . S
C1330 C1331 1.370 . S
C1330 C1334 1.524 . S
C1331 C1323 1.503 . S
C1331 C1330 1.370 . S
C1331 C1332 1.403 . S
C1332 C1331 1.403 . S
C1332 C1333 1.404 . S
C1332 C1335 1.539 . S
C1333 C1329 1.408 . S
C1333 C1332 1.404 . S
C1333 H1345 0.930 . S
C1334 C1330 1.524 . S
C1334 H1346 0.956 . S
C1334 H1347 0.961 . S
C1334 H1348 0.961 . S
C1335 C1332 1.539 . S
C1335 H1349 0.958 . S
C1335 H1350 0.961 . S
C1335 H1351 0.960 . S
H1336 C1320 0.931 . S
H1337 C1325 0.929 . S
H1338 C1326 0.960 . S
H1339 C1326 0.962 . S
H1340 C1326 0.960 . S
H1341 C1327 0.961 1_655 S
H1342 C1327 0.961 . S
H1343 C1327 0.961 . S
H1344 C1328 0.931 . S
H1345 C1333 0.930 . S
H1346 C1334 0.956 . S
H1347 C1334 0.961 . S
H1348 C1334 0.961 . S
H1349 C1335 0.958 . S
H1350 C1335 0.961 . S
H1351 C1335 0.960 . S
C1352 C1353 1.391 . S
C1352 C1354 1.394 . S
C1352 H1368 0.931 . S
C1353 C1352 1.391 . S
C1353 C1357 1.376 . S
C1354 C1352 1.394 . S
C1354 C1355 1.369 . S
C1354 C1358 1.531 . S
C1355 C1354 1.369 . S
C1355 C1356 1.410 . S
C1355 C1363 1.503 . S
C1356 C1355 1.410 . S
C1356 C1357 1.392 . S
C1356 C1359 1.511 . S
C1357 C1353 1.376 . S
C1357 C1356 1.392 . S
C1357 H1369 0.929 . S
C1358 C1354 1.531 . S
C1358 H1370 0.960 . S
C1358 H1371 0.962 . S
C1358 H1372 0.960 . S
C1359 C1356 1.511 . S
C1359 H1373 0.961 . S
C1359 H1374 0.961 . S
C1359 H1375 0.961 . S
C1360 C1361 1.370 . S
C1360 C1362 1.363 . S
C1360 H1376 0.931 . S
C1361 C1360 1.370 . S
C1361 C1365 1.408 . S
C1362 C1360 1.363 . S
C1362 C1363 1.370 . S
C1362 C1366 1.524 . S
C1363 C1355 1.503 . S
C1363 C1362 1.370 . S
C1363 C1364 1.403 . S
C1364 C1363 1.403 . S
C1364 C1365 1.404 . S
C1364 C1367 1.539 . S
C1365 C1361 1.408 . S
C1365 C1364 1.404 . S
C1365 H1377 0.930 . S
C1366 C1362 1.524 . S
C1366 H1378 0.956 . S
C1366 H1379 0.961 . S
C1366 H1380 0.961 . S
C1367 C1364 1.539 . S
C1367 H1381 0.958 . S
C1367 H1382 0.961 . S
C1367 H1383 0.960 . S
H1368 C1352 0.931 . S
H1369 C1357 0.929 . S
H1370 C1358 0.960 . S
H1371 C1358 0.962 . S
H1372 C1358 0.960 . S
H1373 C1359 0.961 . S
H1374 C1359 0.961 . S
H1375 C1359 0.961 . S
H1376 C1360 0.931 . S
H1377 C1365 0.930 . S
H1378 C1366 0.956 . S
H1379 C1366 0.961 . S
H1380 C1366 0.961 . S
H1381 C1367 0.958 . S
H1382 C1367 0.961 . S
H1383 C1367 0.960 . S
C1384 C1385 1.391 . S
C1384 C1386 1.394 . S
C1384 H1400 0.931 . S
C1385 C1384 1.391 . S
C1385 C1389 1.376 . S
C1386 C1384 1.394 . S
C1386 C1387 1.399 . S
C1386 C1390 1.531 . S
C1387 C1386 1.399 . S
C1387 C1388 1.414 . S
C1387 C1395 1.471 1_545 S
C1388 C1387 1.414 . S
C1388 C1389 1.392 . S
C1388 C1391 1.511 1_545 S
C1389 C1385 1.376 . S
C1389 C1388 1.392 . S
C1389 H1401 0.929 . S
C1390 C1386 1.531 . S
C1390 H1402 0.960 1_545 S
C1390 H1403 0.962 1_545 S
C1390 H1404 0.960 . S
C1391 C1388 1.511 1_565 S
C1391 H1405 0.961 1_565 S
C1391 H1406 0.961 . S
C1391 H1407 0.961 . S
C1392 C1393 1.370 . S
C1392 C1394 1.363 . S
C1392 H1408 0.931 . S
C1393 C1392 1.370 . S
C1393 C1397 1.408 . S
C1394 C1392 1.363 . S
C1394 C1395 1.370 . S
C1394 C1398 1.524 . S
C1395 C1387 1.471 1_565 S
C1395 C1394 1.370 . S
C1395 C1396 1.403 . S
C1396 C1395 1.403 . S
C1396 C1397 1.404 . S
C1396 C1399 1.539 . S
C1397 C1393 1.408 . S
C1397 C1396 1.404 . S
C1397 H1409 0.930 . S
C1398 C1394 1.524 . S
C1398 H1410 0.956 . S
C1398 H1411 0.961 . S
C1398 H1412 0.961 . S
C1399 C1396 1.539 . S
C1399 H1413 0.958 . S
C1399 H1414 0.961 . S
C1399 H1415 0.960 . S
H1400 C1384 0.931 . S
H1401 C1389 0.929 . S
H1402 C1390 0.960 1_565 S
H1403 C1390 0.962 1_565 S
H1404 C1390 0.960 . S
H1405 C1391 0.961 1_545 S
H1406 C1391 0.961 . S
H1407 C1391 0.961 . S
H1408 C1392 0.931 . S
H1409 C1397 0.930 . S
H1410 C1398 0.956 . S
H1411 C1398 0.961 . S
H1412 C1398 0.961 . S
H1413 C1399 0.958 . S
H1414 C1399 0.961 . S
H1415 C1399 0.960 . S
C1416 C1417 1.391 . S
C1416 C1418 1.394 . S
C1416 H1432 0.931 . S
C1417 C1416 1.391 . S
C1417 C1421 1.376 . S
C1418 C1416 1.394 . S
C1418 C1419 1.369 . S
C1418 C1422 1.531 . S
C1419 C1418 1.369 . S
C1419 C1420 1.410 . S
C1419 C1427 1.503 . S
C1420 C1419 1.410 . S
C1420 C1421 1.392 . S
C1420 C1423 1.511 . S
C1421 C1417 1.376 . S
C1421 C1420 1.392 . S
C1421 H1433 0.929 . S
C1422 C1418 1.531 . S
C1422 H1434 0.960 . S
C1422 H1435 0.962 . S
C1422 H1436 0.960 . S
C1423 C1420 1.511 . S
C1423 H1437 0.961 . S
C1423 H1438 0.961 . S
C1423 H1439 0.961 . S
C1424 C1425 1.370 . S
C1424 C1426 1.363 . S
C1424 H1440 0.931 . S
C1425 C1424 1.370 . S
C1425 C1429 1.408 . S
C1426 C1424 1.363 . S
C1426 C1427 1.370 . S
C1426 C1430 1.524 . S
C1427 C1419 1.503 . S
C1427 C1426 1.370 . S
C1427 C1428 1.403 . S
C1428 C1427 1.403 . S
C1428 C1429 1.404 . S
C1428 C1431 1.539 . S
C1429 C1425 1.408 . S
C1429 C1428 1.404 . S
C1429 H1441 0.930 . S
C1430 C1426 1.524 . S
C1430 H1442 0.956 . S
C1430 H1443 0.961 . S
C1430 H1444 0.961 . S
C1431 C1428 1.539 . S
C1431 H1445 0.958 . S
C1431 H1446 0.961 . S
C1431 H1447 0.960 . S
H1432 C1416 0.931 . S
H1433 C1421 0.929 . S
H1434 C1422 0.960 . S
H1435 C1422 0.962 . S
H1436 C1422 0.960 . S
H1437 C1423 0.961 . S
H1438 C1423 0.961 . S
H1439 C1423 0.961 . S
H1440 C1424 0.931 . S
H1441 C1429 0.930 . S
H1442 C1430 0.956 . S
H1443 C1430 0.961 . S
H1444 C1430 0.961 . S
H1445 C1431 0.958 . S
H1446 C1431 0.961 . S
H1447 C1431 0.960 . S
C1448 C1449 1.391 . S
C1448 C1450 1.394 . S
C1448 H1464 0.931 . S
C1449 C1448 1.391 . S
C1449 C1453 1.376 . S
C1450 C1448 1.394 . S
C1450 C1451 1.369 . S
C1450 C1454 1.531 . S
C1451 C1450 1.369 . S
C1451 C1452 1.410 . S
C1451 C1459 1.503 . S
C1452 C1451 1.410 . S
C1452 C1453 1.392 . S
C1452 C1455 1.511 . S
C1453 C1449 1.376 . S
C1453 C1452 1.392 . S
C1453 H1465 0.929 . S
C1454 C1450 1.531 . S
C1454 H1466 0.960 . S
C1454 H1467 0.962 . S
C1454 H1468 0.960 . S
C1455 C1452 1.511 . S
C1455 H1469 0.961 . S
C1455 H1470 0.961 . S
C1455 H1471 0.961 . S
C1456 C1457 1.370 . S
C1456 C1458 1.363 . S
C1456 H1472 0.931 . S
C1457 C1456 1.370 . S
C1457 C1461 1.408 . S
C1458 C1456 1.363 . S
C1458 C1459 1.370 . S
C1458 C1462 1.524 . S
C1459 C1451 1.503 . S
C1459 C1458 1.370 . S
C1459 C1460 1.403 . S
C1460 C1459 1.403 . S
C1460 C1461 1.404 . S
C1460 C1463 1.539 . S
C1461 C1457 1.408 . S
C1461 C1460 1.404 . S
C1461 H1473 0.930 . S
C1462 C1458 1.524 . S
C1462 H1474 0.956 . S
C1462 H1475 0.961 . S
C1462 H1476 0.961 . S
C1463 C1460 1.539 . S
C1463 H1477 0.958 . S
C1463 H1478 0.961 . S
C1463 H1479 0.960 . S
H1464 C1448 0.931 . S
H1465 C1453 0.929 . S
H1466 C1454 0.960 . S
H1467 C1454 0.962 . S
H1468 C1454 0.960 . S
H1469 C1455 0.961 . S
H1470 C1455 0.961 . S
H1471 C1455 0.961 . S
H1472 C1456 0.931 . S
H1473 C1461 0.930 . S
H1474 C1462 0.956 . S
H1475 C1462 0.961 . S
H1476 C1462 0.961 . S
H1477 C1463 0.958 . S
H1478 C1463 0.961 . S
H1479 C1463 0.960 . S
C1480 C1481 1.391 . S
C1480 C1482 1.394 . S
C1480 H1496 0.931 . S
C1481 C1480 1.391 . S
C1481 C1485 1.376 . S
C1482 C1480 1.394 . S
C1482 C1483 1.369 . S
C1482 C1486 1.531 . S
C1483 C1482 1.369 . S
C1483 C1484 1.410 . S
C1483 C1491 1.503 . S
C1484 C1483 1.410 . S
C1484 C1485 1.392 . S
C1484 C1487 1.511 . S
C1485 C1481 1.376 . S
C1485 C1484 1.392 . S
C1485 H1497 0.929 . S
C1486 C1482 1.531 . S
C1486 H1498 0.960 . S
C1486 H1499 0.962 . S
C1486 H1500 0.960 . S
C1487 C1484 1.511 . S
C1487 H1501 0.961 . S
C1487 H1502 0.961 . S
C1487 H1503 0.961 . S
C1488 C1489 1.370 . S
C1488 C1490 1.363 . S
C1488 H1504 0.931 . S
C1489 C1488 1.370 . S
C1489 C1493 1.408 . S
C1490 C1488 1.363 . S
C1490 C1491 1.370 . S
C1490 C1494 1.524 . S
C1491 C1483 1.503 . S
C1491 C1490 1.370 . S
C1491 C1492 1.403 . S
C1492 C1491 1.403 . S
C1492 C1493 1.404 . S
C1492 C1495 1.539 . S
C1493 C1489 1.408 . S
C1493 C1492 1.404 . S
C1493 H1505 0.930 . S
C1494 C1490 1.524 . S
C1494 H1506 0.956 . S
C1494 H1507 0.961 . S
C1494 H1508 0.961 . S
C1495 C1492 1.539 . S
C1495 H1509 0.958 . S
C1495 H1510 0.961 . S
C1495 H1511 0.960 . S
H1496 C1480 0.931 . S
H1497 C1485 0.929 . S
H1498 C1486 0.960 . S
H1499 C1486 0.962 . S
H1500 C1486 0.960 . S
H1501 C1487 0.961 . S
H1502 C1487 0.961 . S
H1503 C1487 0.961 . S
H1504 C1488 0.931 . S
H1505 C1493 0.930 . S
H1506 C1494 0.956 . S
H1507 C1494 0.961 . S
H1508 C1494 0.961 . S
H1509 C1495 0.958 . S
H1510 C1495 0.961 . S
H1511 C1495 0.960 . S
C1512 C1513 1.391 . S
C1512 C1514 1.394 . S
C1512 H1528 0.931 . S
C1513 C1512 1.391 . S
C1513 C1517 1.376 . S
C1514 C1512 1.394 . S
C1514 C1515 1.369 . S
C1514 C1518 1.531 . S
C1515 C1514 1.369 . S
C1515 C1516 1.410 . S
C1515 C1523 1.503 . S
C1516 C1515 1.410 . S
C1516 C1517 1.392 . S
C1516 C1519 1.511 . S
C1517 C1513 1.376 . S
C1517 C1516 1.392 . S
C1517 H1529 0.929 . S
C1518 C1514 1.531 . S
C1518 H1530 0.960 . S
C1518 H1531 0.962 . S
C1518 H1532 0.960 . S
C1519 C1516 1.511 . S
C1519 H1533 0.961 . S
C1519 H1534 0.961 . S
C1519 H1535 0.961 . S
C1520 C1521 1.370 . S
C1520 C1522 1.363 . S
C1520 H1536 0.931 . S
C1521 C1520 1.370 . S
C1521 C1525 1.408 . S
C1522 C1520 1.363 . S
C1522 C1523 1.370 . S
C1522 C1526 1.524 . S
C1523 C1515 1.503 . S
C1523 C1522 1.370 . S
C1523 C1524 1.403 . S
C1524 C1523 1.403 . S
C1524 C1525 1.404 . S
C1524 C1527 1.539 . S
C1525 C1521 1.408 . S
C1525 C1524 1.404 . S
C1525 H1537 0.930 . S
C1526 C1522 1.524 . S
C1526 H1538 0.956 . S
C1526 H1539 0.961 . S
C1526 H1540 0.961 . S
C1527 C1524 1.539 . S
C1527 H1541 0.958 . S
C1527 H1542 0.961 . S
C1527 H1543 0.960 . S
H1528 C1512 0.931 . S
H1529 C1517 0.929 . S
H1530 C1518 0.960 . S
H1531 C1518 0.962 . S
H1532 C1518 0.960 . S
H1533 C1519 0.961 . S
H1534 C1519 0.961 . S
H1535 C1519 0.961 . S
H1536 C1520 0.931 . S
H1537 C1525 0.930 . S
H1538 C1526 0.956 . S
H1539 C1526 0.961 . S
H1540 C1526 0.961 . S
H1541 C1527 0.958 . S
H1542 C1527 0.961 . S
H1543 C1527 0.960 . S
C1544 C1545 1.391 . S
C1544 C1546 1.394 . S
C1544 H1560 0.931 . S
C1545 C1544 1.391 . S
C1545 C1549 1.376 . S
C1546 C1544 1.394 . S
C1546 C1547 1.369 . S
C1546 C1550 1.531 . S
C1547 C1546 1.369 . S
C1547 C1548 1.410 . S
C1547 C1555 1.503 . S
C1548 C1547 1.410 . S
C1548 C1549 1.392 . S
C1548 C1551 1.511 . S
C1549 C1545 1.376 . S
C1549 C1548 1.392 . S
C1549 H1561 0.929 . S
C1550 C1546 1.531 . S
C1550 H1562 0.960 . S
C1550 H1563 0.962 . S
C1550 H1564 0.960 . S
C1551 C1548 1.511 . S
C1551 H1565 0.961 . S
C1551 H1566 0.961 . S
C1551 H1567 0.961 . S
C1552 C1553 1.370 . S
C1552 C1554 1.363 . S
C1552 H1568 0.931 . S
C1553 C1552 1.370 . S
C1553 C1557 1.408 . S
C1554 C1552 1.363 . S
C1554 C1555 1.370 . S
C1554 C1558 1.524 . S
C1555 C1547 1.503 . S
C1555 C1554 1.370 . S
C1555 C1556 1.403 . S
C1556 C1555 1.403 . S
C1556 C1557 1.404 . S
C1556 C1559 1.539 . S
C1557 C1553 1.408 . S
C1557 C1556 1.404 . S
C1557 H1569 0.930 . S
C1558 C1554 1.524 . S
C1558 H1570 0.956 . S
C1558 H1571 0.961 . S
C1558 H1572 0.961 . S
C1559 C1556 1.539 . S
C1559 H1573 0.958 . S
C1559 H1574 0.961 . S
C1559 H1575 0.960 . S
H1560 C1544 0.931 . S
H1561 C1549 0.929 . S
H1562 C1550 0.960 . S
H1563 C1550 0.962 . S
H1564 C1550 0.960 . S
H1565 C1551 0.961 . S
H1566 C1551 0.961 . S
H1567 C1551 0.961 . S
H1568 C1552 0.931 . S
H1569 C1557 0.930 . S
H1570 C1558 0.956 . S
H1571 C1558 0.961 . S
H1572 C1558 0.961 . S
H1573 C1559 0.958 . S
H1574 C1559 0.961 . S
H1575 C1559 0.960 . S
C1576 C1577 1.391 . S
C1576 C1578 1.394 . S
C1576 H1592 0.931 . S
C1577 C1576 1.391 . S
C1577 C1581 1.376 . S
C1578 C1576 1.394 . S
C1578 C1579 1.369 . S
C1578 C1582 1.531 . S
C1579 C1578 1.369 . S
C1579 C1580 1.410 . S
C1579 C1587 1.503 . S
C1580 C1579 1.410 . S
C1580 C1581 1.392 . S
C1580 C1583 1.511 . S
C1581 C1577 1.376 . S
C1581 C1580 1.392 . S
C1581 H1593 0.929 . S
C1582 C1578 1.531 . S
C1582 H1594 0.960 . S
C1582 H1595 0.962 . S
C1582 H1596 0.960 . S
C1583 C1580 1.511 . S
C1583 H1597 0.961 . S
C1583 H1598 0.961 . S
C1583 H1599 0.961 . S
C1584 C1585 1.370 . S
C1584 C1586 1.363 . S
C1584 H1600 0.931 . S
C1585 C1584 1.370 . S
C1585 C1589 1.408 . S
C1586 C1584 1.363 . S
C1586 C1587 1.370 . S
C1586 C1590 1.524 . S
C1587 C1579 1.503 . S
C1587 C1586 1.370 . S
C1587 C1588 1.403 . S
C1588 C1587 1.403 . S
C1588 C1589 1.404 . S
C1588 C1591 1.539 . S
C1589 C1585 1.408 . S
C1589 C1588 1.404 . S
C1589 H1601 0.930 . S
C1590 C1586 1.524 . S
C1590 H1602 0.956 . S
C1590 H1603 0.961 . S
C1590 H1604 0.961 . S
C1591 C1588 1.539 . S
C1591 H1605 0.958 . S
C1591 H1606 0.961 . S
C1591 H1607 0.960 . S
H1592 C1576 0.931 . S
H1593 C1581 0.929 . S
H1594 C1582 0.960 . S
H1595 C1582 0.962 . S
H1596 C1582 0.960 . S
H1597 C1583 0.961 . S
H1598 C1583 0.961 . S
H1599 C1583 0.961 . S
H1600 C1584 0.931 . S
H1601 C1589 0.930 . S
H1602 C1590 0.956 . S
H1603 C1590 0.961 . S
H1604 C1590 0.961 . S
H1605 C1591 0.958 . S
H1606 C1591 0.961 . S
H1607 C1591 0.960 . S
C1608 C1609 1.391 . S
C1608 C1610 1.394 . S
C1608 H1624 0.931 . S
C1609 C1608 1.391 . S
C1609 C1613 1.376 . S
C1610 C1608 1.394 . S
C1610 C1611 1.369 1_545 S
C1610 C1614 1.531 1_545 S
C1611 C1610 1.369 1_565 S
C1611 C1612 1.410 1_565 S
C1611 C1619 1.503 . S
C1612 C1611 1.410 1_545 S
C1612 C1613 1.392 . S
C1612 C1615 1.510 . S
C1613 C1609 1.376 . S
C1613 C1612 1.392 . S
C1613 H1625 0.929 . S
C1614 C1610 1.531 1_565 S
C1614 H1626 0.960 . S
C1614 H1627 0.962 . S
C1614 H1628 0.960 . S
C1615 C1612 1.510 . S
C1615 H1629 0.975 . S
C1615 H1630 0.943 1_545 S
C1615 H1631 0.966 1_545 S
C1616 C1617 1.370 . S
C1616 C1618 1.363 . S
C1616 H1632 0.931 . S
C1617 C1616 1.370 . S
C1617 C1621 1.408 . S
C1618 C1616 1.363 . S
C1618 C1619 1.370 . S
C1618 C1622 1.524 . S
C1619 C1611 1.503 . S
C1619 C1618 1.370 . S
C1619 C1620 1.403 . S
C1620 C1619 1.403 . S
C1620 C1621 1.404 . S
C1620 C1623 1.539 . S
C1621 C1617 1.408 . S
C1621 C1620 1.404 . S
C1621 H1633 0.930 . S
C1622 C1618 1.524 . S
C1622 H1634 0.956 . S
C1622 H1635 0.961 . S
C1622 H1636 0.961 . S
C1623 C1620 1.539 . S
C1623 H1637 0.958 . S
C1623 H1638 0.961 . S
C1623 H1639 0.960 . S
H1624 C1608 0.931 . S
H1625 C1613 0.929 . S
H1626 C1614 0.960 . S
H1627 C1614 0.962 . S
H1628 C1614 0.960 . S
H1629 C1615 0.975 . S
H1630 C1615 0.943 1_565 S
H1631 C1615 0.966 1_565 S
H1632 C1616 0.931 . S
H1633 C1621 0.930 . S
H1634 C1622 0.956 . S
H1635 C1622 0.961 . S
H1636 C1622 0.961 . S
H1637 C1623 0.958 . S
H1638 C1623 0.961 . S
H1639 C1623 0.960 . S
C1640 C1641 1.391 . S
C1640 C1642 1.394 1_655 S
C1640 H1656 0.931 . S
C1641 C1640 1.391 . S
C1641 C1645 1.376 . S
C1642 C1640 1.394 1_455 S
C1642 C1643 1.369 . S
C1642 C1646 1.531 . S
C1643 C1642 1.369 . S
C1643 C1644 1.410 . S
C1643 C1651 1.503 . S
C1644 C1643 1.410 . S
C1644 C1645 1.392 1_455 S
C1644 C1647 1.511 . S
C1645 C1641 1.376 . S
C1645 C1644 1.392 1_655 S
C1645 H1657 0.929 . S
C1646 C1642 1.531 . S
C1646 H1658 0.960 . S
C1646 H1659 0.962 . S
C1646 H1660 0.960 . S
C1647 C1644 1.511 . S
C1647 H1661 0.961 . S
C1647 H1662 0.961 . S
C1647 H1663 0.961 . S
C1648 C1649 1.370 . S
C1648 C1650 1.363 . S
C1648 H1664 0.931 . S
C1649 C1648 1.370 . S
C1649 C1653 1.408 . S
C1650 C1648 1.363 . S
C1650 C1651 1.370 . S
C1650 C1654 1.524 . S
C1651 C1643 1.503 . S
C1651 C1650 1.370 . S
C1651 C1652 1.403 . S
C1652 C1651 1.403 . S
C1652 C1653 1.404 . S
C1652 C1655 1.539 . S
C1653 C1649 1.408 . S
C1653 C1652 1.404 . S
C1653 H1665 0.930 . S
C1654 C1650 1.524 . S
C1654 H1666 0.956 . S
C1654 H1667 0.961 . S
C1654 H1668 0.961 . S
C1655 C1652 1.539 . S
C1655 H1669 0.958 . S
C1655 H1670 0.961 . S
C1655 H1671 0.960 . S
H1656 C1640 0.931 . S
H1657 C1645 0.929 . S
H1658 C1646 0.960 . S
H1659 C1646 0.962 . S
H1660 C1646 0.960 . S
H1661 C1647 0.961 . S
H1662 C1647 0.961 . S
H1663 C1647 0.961 . S
H1664 C1648 0.931 . S
H1665 C1653 0.930 . S
H1666 C1654 0.956 . S
H1667 C1654 0.961 . S
H1668 C1654 0.961 . S
H1669 C1655 0.958 . S
H1670 C1655 0.961 . S
H1671 C1655 0.960 . S
C1672 C1673 1.391 . S
C1672 C1674 1.394 . S
C1672 H1688 0.931 . S
C1673 C1672 1.391 . S
C1673 C1677 1.376 . S
C1674 C1672 1.394 . S
C1674 C1675 1.369 . S
C1674 C1678 1.531 . S
C1675 C1674 1.369 . S
C1675 C1676 1.410 . S
C1675 C1683 1.503 . S
C1676 C1675 1.410 . S
C1676 C1677 1.392 . S
C1676 C1679 1.511 . S
C1677 C1673 1.376 . S
C1677 C1676 1.392 . S
C1677 H1689 0.929 . S
C1678 C1674 1.531 . S
C1678 H1690 0.960 . S
C1678 H1691 0.962 . S
C1678 H1692 0.960 . S
C1679 C1676 1.511 . S
C1679 H1693 0.961 . S
C1679 H1694 0.961 . S
C1679 H1695 0.961 . S
C1680 C1681 1.370 . S
C1680 C1682 1.363 . S
C1680 H1696 0.931 . S
C1681 C1680 1.370 . S
C1681 C1685 1.408 . S
C1682 C1680 1.363 . S
C1682 C1683 1.370 . S
C1682 C1686 1.524 . S
C1683 C1675 1.503 . S
C1683 C1682 1.370 . S
C1683 C1684 1.403 . S
C1684 C1683 1.403 . S
C1684 C1685 1.404 . S
C1684 C1687 1.539 . S
C1685 C1681 1.408 . S
C1685 C1684 1.404 . S
C1685 H1697 0.930 . S
C1686 C1682 1.524 . S
C1686 H1698 0.956 . S
C1686 H1699 0.961 . S
C1686 H1700 0.961 . S
C1687 C1684 1.539 . S
C1687 H1701 0.958 . S
C1687 H1702 0.961 . S
C1687 H1703 0.960 . S
H1688 C1672 0.931 . S
H1689 C1677 0.929 . S
H1690 C1678 0.960 . S
H1691 C1678 0.962 . S
H1692 C1678 0.960 . S
H1693 C1679 0.961 . S
H1694 C1679 0.961 . S
H1695 C1679 0.961 . S
H1696 C1680 0.931 . S
H1697 C1685 0.930 . S
H1698 C1686 0.956 . S
H1699 C1686 0.961 . S
H1700 C1686 0.961 . S
H1701 C1687 0.958 . S
H1702 C1687 0.961 . S
H1703 C1687 0.960 . S
C1704 C1705 1.391 . S
C1704 C1706 1.394 . S
C1704 H1720 0.931 . S
C1705 C1704 1.391 . S
C1705 C1709 1.376 . S
C1706 C1704 1.394 . S
C1706 C1707 1.369 . S
C1706 C1710 1.531 . S
C1707 C1706 1.369 . S
C1707 C1708 1.410 . S
C1707 C1715 1.503 . S
C1708 C1707 1.410 . S
C1708 C1709 1.392 . S
C1708 C1711 1.511 . S
C1709 C1705 1.376 . S
C1709 C1708 1.392 . S
C1709 H1721 0.929 . S
C1710 C1706 1.531 . S
C1710 H1722 0.960 . S
C1710 H1723 0.962 . S
C1710 H1724 0.960 . S
C1711 C1708 1.511 . S
C1711 H1725 0.961 . S
C1711 H1726 0.961 . S
C1711 H1727 0.961 . S
C1712 C1713 1.370 . S
C1712 C1714 1.363 . S
C1712 H1728 0.931 . S
C1713 C1712 1.370 . S
C1713 C1717 1.408 . S
C1714 C1712 1.363 . S
C1714 C1715 1.370 . S
C1714 C1718 1.524 . S
C1715 C1707 1.503 . S
C1715 C1714 1.370 . S
C1715 C1716 1.403 . S
C1716 C1715 1.403 . S
C1716 C1717 1.404 . S
C1716 C1719 1.539 . S
C1717 C1713 1.408 . S
C1717 C1716 1.404 . S
C1717 H1729 0.930 . S
C1718 C1714 1.524 . S
C1718 H1730 0.956 . S
C1718 H1731 0.961 . S
C1718 H1732 0.961 . S
C1719 C1716 1.539 . S
C1719 H1733 0.958 . S
C1719 H1734 0.961 . S
C1719 H1735 0.960 . S
H1720 C1704 0.931 . S
H1721 C1709 0.929 . S
H1722 C1710 0.960 . S
H1723 C1710 0.962 . S
H1724 C1710 0.960 . S
H1725 C1711 0.961 . S
H1726 C1711 0.961 . S
H1727 C1711 0.961 . S
H1728 C1712 0.931 . S
H1729 C1717 0.930 . S
H1730 C1718 0.956 . S
H1731 C1718 0.961 . S
H1732 C1718 0.961 . S
H1733 C1719 0.958 . S
H1734 C1719 0.961 . S
H1735 C1719 0.960 . S
C1736 C1737 1.391 . S
C1736 C1738 1.394 . S
C1736 H1752 0.931 . S
C1737 C1736 1.391 . S
C1737 C1741 1.376 . S
C1738 C1736 1.394 . S
C1738 C1739 1.369 . S
C1738 C1742 1.531 . S
C1739 C1738 1.369 . S
C1739 C1740 1.410 . S
C1739 C1747 1.503 . S
C1740 C1739 1.410 . S
C1740 C1741 1.392 . S
C1740 C1743 1.511 . S
C1741 C1737 1.376 . S
C1741 C1740 1.392 . S
C1741 H1753 0.929 . S
C1742 C1738 1.531 . S
C1742 H1754 0.960 . S
C1742 H1755 0.962 . S
C1742 H1756 0.960 . S
C1743 C1740 1.511 . S
C1743 H1757 0.961 . S
C1743 H1758 0.961 . S
C1743 H1759 0.961 . S
C1744 C1745 1.370 . S
C1744 C1746 1.363 . S
C1744 H1760 0.931 . S
C1745 C1744 1.370 . S
C1745 C1749 1.408 . S
C1746 C1744 1.363 . S
C1746 C1747 1.370 . S
C1746 C1750 1.524 . S
C1747 C1739 1.503 . S
C1747 C1746 1.370 . S
C1747 C1748 1.403 . S
C1748 C1747 1.403 . S
C1748 C1749 1.404 . S
C1748 C1751 1.539 . S
C1749 C1745 1.408 . S
C1749 C1748 1.404 . S
C1749 H1761 0.930 . S
C1750 C1746 1.524 . S
C1750 H1762 0.956 . S
C1750 H1763 0.961 . S
C1750 H1764 0.961 . S
C1751 C1748 1.539 . S
C1751 H1765 0.958 . S
C1751 H1766 0.961 . S
C1751 H1767 0.960 . S
H1752 C1736 0.931 . S
H1753 C1741 0.929 . S
H1754 C1742 0.960 . S
H1755 C1742 0.962 . S
H1756 C1742 0.960 . S
H1757 C1743 0.961 . S
H1758 C1743 0.961 . S
H1759 C1743 0.961 . S
H1760 C1744 0.931 . S
H1761 C1749 0.930 . S
H1762 C1750 0.956 . S
H1763 C1750 0.961 . S
H1764 C1750 0.961 . S
H1765 C1751 0.958 . S
H1766 C1751 0.961 . S
H1767 C1751 0.960 . S
C1768 C1769 1.391 . S
C1768 C1770 1.394 . S
C1768 H1784 0.931 . S
C1769 C1768 1.391 . S
C1769 C1773 1.376 . S
C1770 C1768 1.394 . S
C1770 C1771 1.369 . S
C1770 C1774 1.531 . S
C1771 C1770 1.369 . S
C1771 C1772 1.410 . S
C1771 C1779 1.503 . S
C1772 C1771 1.410 . S
C1772 C1773 1.392 . S
C1772 C1775 1.511 . S
C1773 C1769 1.376 . S
C1773 C1772 1.392 . S
C1773 H1785 0.929 . S
C1774 C1770 1.531 . S
C1774 H1786 0.960 . S
C1774 H1787 0.962 . S
C1774 H1788 0.960 . S
C1775 C1772 1.511 . S
C1775 H1789 0.961 . S
C1775 H1790 0.961 . S
C1775 H1791 0.961 . S
C1776 C1777 1.370 . S
C1776 C1778 1.363 . S
C1776 H1792 0.931 . S
C1777 C1776 1.370 . S
C1777 C1781 1.408 . S
C1778 C1776 1.363 . S
C1778 C1779 1.370 . S
C1778 C1782 1.524 . S
C1779 C1771 1.503 . S
C1779 C1778 1.370 . S
C1779 C1780 1.403 . S
C1780 C1779 1.403 . S
C1780 C1781 1.404 . S
C1780 C1783 1.539 . S
C1781 C1777 1.408 . S
C1781 C1780 1.404 . S
C1781 H1793 0.930 . S
C1782 C1778 1.524 . S
C1782 H1794 0.956 . S
C1782 H1795 0.961 . S
C1782 H1796 0.961 . S
C1783 C1780 1.539 . S
C1783 H1797 0.958 . S
C1783 H1798 0.961 . S
C1783 H1799 0.960 . S
H1784 C1768 0.931 . S
H1785 C1773 0.929 . S
H1786 C1774 0.960 . S
H1787 C1774 0.962 . S
H1788 C1774 0.960 . S
H1789 C1775 0.961 . S
H1790 C1775 0.961 . S
H1791 C1775 0.961 . S
H1792 C1776 0.931 . S
H1793 C1781 0.930 . S
H1794 C1782 0.956 . S
H1795 C1782 0.961 . S
H1796 C1782 0.961 . S
H1797 C1783 0.958 . S
H1798 C1783 0.961 . S
H1799 C1783 0.960 . S
C1800 C1801 1.391 . S
C1800 C1802 1.394 . S
C1800 H1816 0.931 . S
C1801 C1800 1.391 . S
C1801 C1805 1.376 . S
C1802 C1800 1.394 . S
C1802 C1803 1.369 1_565 S
C1802 C1806 1.531 1_565 S
C1803 C1802 1.369 1_545 S
C1803 C1804 1.410 1_545 S
C1803 C1811 1.503 . S
C1804 C1803 1.410 1_565 S
C1804 C1805 1.392 . S
C1804 C1807 1.511 1_565 S
C1805 C1801 1.376 . S
C1805 C1804 1.392 . S
C1805 H1817 0.929 . S
C1806 C1802 1.531 1_545 S
C1806 H1818 0.960 . S
C1806 H1819 0.962 . S
C1806 H1820 0.960 1_545 S
C1807 C1804 1.511 1_545 S
C1807 H1821 0.951 1_545 S
C1807 H1822 0.961 . S
C1807 H1823 0.961 . S
C1808 C1809 1.370 . S
C1808 C1810 1.363 . S
C1808 H1824 0.931 . S
C1809 C1808 1.370 . S
C1809 C1813 1.408 . S
C1810 C1808 1.363 . S
C1810 C1811 1.370 . S
C1810 C1814 1.524 . S
C1811 C1803 1.503 . S
C1811 C1810 1.370 . S
C1811 C1812 1.403 . S
C1812 C1811 1.403 . S
C1812 C1813 1.404 . S
C1812 C1815 1.539 . S
C1813 C1809 1.408 . S
C1813 C1812 1.404 . S
C1813 H1825 0.930 . S
C1814 C1810 1.524 . S
C1814 H1826 0.956 . S
C1814 H1827 0.961 . S
C1814 H1828 0.961 . S
C1815 C1812 1.539 . S
C1815 H1829 0.958 . S
C1815 H1830 0.961 . S
C1815 H1831 0.960 . S
H1816 C1800 0.931 . S
H1817 C1805 0.929 . S
H1818 C1806 0.960 . S
H1819 C1806 0.962 . S
H1820 C1806 0.960 1_565 S
H1821 C1807 0.951 1_565 S
H1822 C1807 0.961 . S
H1823 C1807 0.961 . S
H1824 C1808 0.931 . S
H1825 C1813 0.930 . S
H1826 C1814 0.956 . S
H1827 C1814 0.961 . S
H1828 C1814 0.961 . S
H1829 C1815 0.958 . S
H1830 C1815 0.961 . S
H1831 C1815 0.960 . S
C1832 C1833 1.391 . S
C1832 C1834 1.394 1_455 S
C1832 H1848 0.931 . S
C1833 C1832 1.391 . S
C1833 C1837 1.376 . S
C1834 C1832 1.394 1_655 S
C1834 C1835 1.369 . S
C1834 C1838 1.531 . S
C1835 C1834 1.369 . S
C1835 C1836 1.392 1_655 S
C1835 C1843 1.503 . S
C1836 C1835 1.392 1_455 S
C1836 C1837 1.429 . S
C1836 C1839 1.496 . S
C1837 C1833 1.376 . S
C1837 C1836 1.429 . S
C1837 H1849 0.929 . S
C1838 C1834 1.531 . S
C1838 H1850 0.960 . S
C1838 H1851 0.962 . S
C1838 H1852 0.960 . S
C1839 C1836 1.496 . S
C1839 H1853 0.961 . S
C1839 H1854 0.960 1_455 S
C1839 H1855 0.961 . S
C1840 C1841 1.370 . S
C1840 C1842 1.363 . S
C1840 H1856 0.931 . S
C1841 C1840 1.370 . S
C1841 C1845 1.408 . S
C1842 C1840 1.363 . S
C1842 C1843 1.370 . S
C1842 C1846 1.524 . S
C1843 C1835 1.503 . S
C1843 C1842 1.370 . S
C1843 C1844 1.403 . S
C1844 C1843 1.403 . S
C1844 C1845 1.404 . S
C1844 C1847 1.539 . S
C1845 C1841 1.408 . S
C1845 C1844 1.404 . S
C1845 H1857 0.930 . S
C1846 C1842 1.524 . S
C1846 H1858 0.956 . S
C1846 H1859 0.961 . S
C1846 H1860 0.961 . S
C1847 C1844 1.539 . S
C1847 H1861 0.958 . S
C1847 H1862 0.961 . S
C1847 H1863 0.960 . S
H1848 C1832 0.931 . S
H1849 C1837 0.929 . S
H1850 C1838 0.960 . S
H1851 C1838 0.962 . S
H1852 C1838 0.960 . S
H1853 C1839 0.961 . S
H1854 C1839 0.960 1_655 S
H1855 C1839 0.961 . S
H1856 C1840 0.931 . S
H1857 C1845 0.930 . S
H1858 C1846 0.956 . S
H1859 C1846 0.961 . S
H1860 C1846 0.961 . S
H1861 C1847 0.958 . S
H1862 C1847 0.961 . S
H1863 C1847 0.960 . S
C1864 C1865 1.391 . S
C1864 C1866 1.394 . S
C1864 H1880 0.931 . S
C1865 C1864 1.391 . S
C1865 C1869 1.376 . S
C1866 C1864 1.394 . S
C1866 C1867 1.369 . S
C1866 C1870 1.531 . S
C1867 C1866 1.369 . S
C1867 C1868 1.410 . S
C1867 C1875 1.503 . S
C1868 C1867 1.410 . S
C1868 C1869 1.392 . S
C1868 C1871 1.511 . S
C1869 C1865 1.376 . S
C1869 C1868 1.392 . S
C1869 H1881 0.929 . S
C1870 C1866 1.531 . S
C1870 H1882 0.960 . S
C1870 H1883 0.962 . S
C1870 H1884 0.960 . S
C1871 C1868 1.511 . S
C1871 H1885 0.961 . S
C1871 H1886 0.961 . S
C1871 H1887 0.961 . S
C1872 C1873 1.370 . S
C1872 C1874 1.363 . S
C1872 H1888 0.931 . S
C1873 C1872 1.370 . S
C1873 C1877 1.408 . S
C1874 C1872 1.363 . S
C1874 C1875 1.370 . S
C1874 C1878 1.524 . S
C1875 C1867 1.503 . S
C1875 C1874 1.370 . S
C1875 C1876 1.403 . S
C1876 C1875 1.403 . S
C1876 C1877 1.404 . S
C1876 C1879 1.539 . S
C1877 C1873 1.408 . S
C1877 C1876 1.404 . S
C1877 H1889 0.930 . S
C1878 C1874 1.524 . S
C1878 H1890 0.956 . S
C1878 H1891 0.961 . S
C1878 H1892 0.961 . S
C1879 C1876 1.539 . S
C1879 H1893 0.958 . S
C1879 H1894 0.961 . S
C1879 H1895 0.960 . S
H1880 C1864 0.931 . S
H1881 C1869 0.929 . S
H1882 C1870 0.960 . S
H1883 C1870 0.962 . S
H1884 C1870 0.960 . S
H1885 C1871 0.961 . S
H1886 C1871 0.961 . S
H1887 C1871 0.961 . S
H1888 C1872 0.931 . S
H1889 C1877 0.930 . S
H1890 C1878 0.956 . S
H1891 C1878 0.961 . S
H1892 C1878 0.961 . S
H1893 C1879 0.958 . S
H1894 C1879 0.961 . S
H1895 C1879 0.960 . S
C1896 C1897 1.391 . S
C1896 C1898 1.394 1_455 S
C1896 H1912 0.931 . S
C1897 C1896 1.391 . S
C1897 C1901 1.376 . S
C1898 C1896 1.394 1_655 S
C1898 C1899 1.369 . S
C1898 C1902 1.531 . S
C1899 C1898 1.369 . S
C1899 C1900 1.447 . S
C1899 C1907 1.503 . S
C1900 C1899 1.447 . S
C1900 C1901 1.358 1_655 S
C1900 C1903 1.509 . S
C1901 C1897 1.376 . S
C1901 C1900 1.358 1_455 S
C1901 H1913 0.929 . S
C1902 C1898 1.531 . S
C1902 H1914 0.960 . S
C1902 H1915 0.962 . S
C1902 H1916 0.960 . S
C1903 C1900 1.509 . S
C1903 H1917 0.961 1_655 S
C1903 H1918 0.961 . S
C1903 H1919 0.961 . S
C1904 C1905 1.370 . S
C1904 C1906 1.363 . S
C1904 H1920 0.931 . S
C1905 C1904 1.370 . S
C1905 C1909 1.408 . S
C1906 C1904 1.363 . S
C1906 C1907 1.370 . S
C1906 C1910 1.524 . S
C1907 C1899 1.503 . S
C1907 C1906 1.370 . S
C1907 C1908 1.403 . S
C1908 C1907 1.403 . S
C1908 C1909 1.404 . S
C1908 C1911 1.539 . S
C1909 C1905 1.408 . S
C1909 C1908 1.404 . S
C1909 H1921 0.930 . S
C1910 C1906 1.524 . S
C1910 H1922 0.956 . S
C1910 H1923 0.961 . S
C1910 H1924 0.961 . S
C1911 C1908 1.539 . S
C1911 H1925 0.958 . S
C1911 H1926 0.961 . S
C1911 H1927 0.960 . S
H1912 C1896 0.931 . S
H1913 C1901 0.929 . S
H1914 C1902 0.960 . S
H1915 C1902 0.962 . S
H1916 C1902 0.960 . S
H1917 C1903 0.961 1_455 S
H1918 C1903 0.961 . S
H1919 C1903 0.961 . S
H1920 C1904 0.931 . S
H1921 C1909 0.930 . S
H1922 C1910 0.956 . S
H1923 C1910 0.961 . S
H1924 C1910 0.961 . S
H1925 C1911 0.958 . S
H1926 C1911 0.961 . S
H1927 C1911 0.960 . S
C1928 C1929 1.391 . S
C1928 C1930 1.394 . S
C1928 H1944 0.931 . S
C1929 C1928 1.391 . S
C1929 C1933 1.376 . S
C1930 C1928 1.394 . S
C1930 C1931 1.369 . S
C1930 C1934 1.531 . S
C1931 C1930 1.369 . S
C1931 C1932 1.410 . S
C1931 C1939 1.503 . S
C1932 C1931 1.410 . S
C1932 C1933 1.392 . S
C1932 C1935 1.511 . S
C1933 C1929 1.376 . S
C1933 C1932 1.392 . S
C1933 H1945 0.929 . S
C1934 C1930 1.531 . S
C1934 H1946 0.960 . S
C1934 H1947 0.962 . S
C1934 H1948 0.960 . S
C1935 C1932 1.511 . S
C1935 H1949 0.961 . S
C1935 H1950 0.961 . S
C1935 H1951 0.961 . S
C1936 C1937 1.370 . S
C1936 C1938 1.363 . S
C1936 H1952 0.931 . S
C1937 C1936 1.370 . S
C1937 C1941 1.408 . S
C1938 C1936 1.363 . S
C1938 C1939 1.370 . S
C1938 C1942 1.524 . S
C1939 C1931 1.503 . S
C1939 C1938 1.370 . S
C1939 C1940 1.403 . S
C1940 C1939 1.403 . S
C1940 C1941 1.404 . S
C1940 C1943 1.539 . S
C1941 C1937 1.408 . S
C1941 C1940 1.404 . S
C1941 H1953 0.930 . S
C1942 C1938 1.524 . S
C1942 H1954 0.956 . S
C1942 H1955 0.961 . S
C1942 H1956 0.961 . S
C1943 C1940 1.539 . S
C1943 H1957 0.958 . S
C1943 H1958 0.961 . S
C1943 H1959 0.960 . S
H1944 C1928 0.931 . S
H1945 C1933 0.929 . S
H1946 C1934 0.960 . S
H1947 C1934 0.962 . S
H1948 C1934 0.960 . S
H1949 C1935 0.961 . S
H1950 C1935 0.961 . S
H1951 C1935 0.961 . S
H1952 C1936 0.931 . S
H1953 C1941 0.930 . S
H1954 C1942 0.956 . S
H1955 C1942 0.961 . S
H1956 C1942 0.961 . S
H1957 C1943 0.958 . S
H1958 C1943 0.961 . S
H1959 C1943 0.960 . S
C1960 C1961 1.391 . S
C1960 C1962 1.394 . S
C1960 H1976 0.931 . S
C1961 C1960 1.391 . S
C1961 C1965 1.376 . S
C1962 C1960 1.394 . S
C1962 C1963 1.369 1_565 S
C1962 C1966 1.531 1_565 S
C1963 C1962 1.369 1_545 S
C1963 C1964 1.410 1_545 S
C1963 C1971 1.503 . S
C1964 C1963 1.410 1_565 S
C1964 C1965 1.392 . S
C1964 C1967 1.473 1_565 S
C1965 C1961 1.376 . S
C1965 C1964 1.392 . S
C1965 H1977 0.929 . S
C1966 C1962 1.531 1_545 S
C1966 H1978 0.960 . S
C1966 H1979 0.962 . S
C1966 H1980 0.960 1_545 S
C1967 C1964 1.473 1_545 S
C1967 H1981 0.947 1_545 S
C1967 H1982 0.991 . S
C1967 H1983 0.986 . S
C1968 C1969 1.370 . S
C1968 C1970 1.363 . S
C1968 H1984 0.931 . S
C1969 C1968 1.370 . S
C1969 C1973 1.408 . S
C1970 C1968 1.363 . S
C1970 C1971 1.370 . S
C1970 C1974 1.524 . S
C1971 C1963 1.503 . S
C1971 C1970 1.370 . S
C1971 C1972 1.403 . S
C1972 C1971 1.403 . S
C1972 C1973 1.404 . S
C1972 C1975 1.539 . S
C1973 C1969 1.408 . S
C1973 C1972 1.404 . S
C1973 H1985 0.930 . S
C1974 C1970 1.524 . S
C1974 H1986 0.956 . S
C1974 H1987 0.961 . S
C1974 H1988 0.961 . S
C1975 C1972 1.539 . S
C1975 H1989 0.958 . S
C1975 H1990 0.961 . S
C1975 H1991 0.960 . S
H1976 C1960 0.931 . S
H1977 C1965 0.929 . S
H1978 C1966 0.960 . S
H1979 C1966 0.962 . S
H1980 C1966 0.960 1_565 S
H1981 C1967 0.947 1_565 S
H1982 C1967 0.991 . S
H1983 C1967 0.986 . S
H1984 C1968 0.931 . S
H1985 C1973 0.930 . S
H1986 C1974 0.956 . S
H1987 C1974 0.961 . S
H1988 C1974 0.961 . S
H1989 C1975 0.958 . S
H1990 C1975 0.961 . S
H1991 C1975 0.960 . S
C1992 C1993 1.391 . S
C1992 C1994 1.394 . S
C1992 H2008 0.931 . S
C1993 C1992 1.391 . S
C1993 C1997 1.376 . S
C1994 C1992 1.394 . S
C1994 C1995 1.369 . S
C1994 C1998 1.531 . S
C1995 C1994 1.369 . S
C1995 C1996 1.410 . S
C1995 C2003 1.503 . S
C1996 C1995 1.410 . S
C1996 C1997 1.392 . S
C1996 C1999 1.511 . S
C1997 C1993 1.376 . S
C1997 C1996 1.392 . S
C1997 H2009 0.929 . S
C1998 C1994 1.531 . S
C1998 H2010 0.960 . S
C1998 H2011 0.962 . S
C1998 H2012 0.960 . S
C1999 C1996 1.511 . S
C1999 H2013 0.961 . S
C1999 H2014 0.961 . S
C1999 H2015 0.961 . S
C2000 C2001 1.370 . S
C2000 C2002 1.363 . S
C2000 H2016 0.931 . S
C2001 C2000 1.370 . S
C2001 C2005 1.408 . S
C2002 C2000 1.363 . S
C2002 C2003 1.370 . S
C2002 C2006 1.524 . S
C2003 C1995 1.503 . S
C2003 C2002 1.370 . S
C2003 C2004 1.403 . S
C2004 C2003 1.403 . S
C2004 C2005 1.404 . S
C2004 C2007 1.539 . S
C2005 C2001 1.408 . S
C2005 C2004 1.404 . S
C2005 H2017 0.930 . S
C2006 C2002 1.524 . S
C2006 H2018 0.956 . S
C2006 H2019 0.961 . S
C2006 H2020 0.961 . S
C2007 C2004 1.539 . S
C2007 H2021 0.958 . S
C2007 H2022 0.961 . S
C2007 H2023 0.960 . S
H2008 C1992 0.931 . S
H2009 C1997 0.929 . S
H2010 C1998 0.960 . S
H2011 C1998 0.962 . S
H2012 C1998 0.960 . S
H2013 C1999 0.961 . S
H2014 C1999 0.961 . S
H2015 C1999 0.961 . S
H2016 C2000 0.931 . S
H2017 C2005 0.930 . S
H2018 C2006 0.956 . S
H2019 C2006 0.961 . S
H2020 C2006 0.961 . S
H2021 C2007 0.958 . S
H2022 C2007 0.961 . S
H2023 C2007 0.960 . S
C2024 C2025 1.391 . S
C2024 C2026 1.394 . S
C2024 H2040 0.931 . S
C2025 C2024 1.391 . S
C2025 C2029 1.376 . S
C2026 C2024 1.394 . S
C2026 C2027 1.369 . S
C2026 C2030 1.531 . S
C2027 C2026 1.369 . S
C2027 C2028 1.410 . S
C2027 C2035 1.503 . S
C2028 C2027 1.410 . S
C2028 C2029 1.392 . S
C2028 C2031 1.511 . S
C2029 C2025 1.376 . S
C2029 C2028 1.392 . S
C2029 H2041 0.929 . S
C2030 C2026 1.531 . S
C2030 H2042 0.960 . S
C2030 H2043 0.962 . S
C2030 H2044 0.960 . S
C2031 C2028 1.511 . S
C2031 H2045 0.961 . S
C2031 H2046 0.961 . S
C2031 H2047 0.961 . S
C2032 C2033 1.370 . S
C2032 C2034 1.363 . S
C2032 H2048 0.931 . S
C2033 C2032 1.370 . S
C2033 C2037 1.408 . S
C2034 C2032 1.363 . S
C2034 C2035 1.370 . S
C2034 C2038 1.524 . S
C2035 C2027 1.503 . S
C2035 C2034 1.370 . S
C2035 C2036 1.403 . S
C2036 C2035 1.403 . S
C2036 C2037 1.404 . S
C2036 C2039 1.539 . S
C2037 C2033 1.408 . S
C2037 C2036 1.404 . S
C2037 H2049 0.930 . S
C2038 C2034 1.524 . S
C2038 H2050 0.956 . S
C2038 H2051 0.961 . S
C2038 H2052 0.961 . S
C2039 C2036 1.539 . S
C2039 H2053 0.958 . S
C2039 H2054 0.961 . S
C2039 H2055 0.960 . S
H2040 C2024 0.931 . S
H2041 C2029 0.929 . S
H2042 C2030 0.960 . S
H2043 C2030 0.962 . S
H2044 C2030 0.960 . S
H2045 C2031 0.961 . S
H2046 C2031 0.961 . S
H2047 C2031 0.961 . S
H2048 C2032 0.931 . S
H2049 C2037 0.930 . S
H2050 C2038 0.956 . S
H2051 C2038 0.961 . S
H2052 C2038 0.961 . S
H2053 C2039 0.958 . S
H2054 C2039 0.961 . S
H2055 C2039 0.960 . S
C2056 C2057 1.391 . S
C2056 C2058 1.394 . S
C2056 H2072 0.931 . S
C2057 C2056 1.391 . S
C2057 C2061 1.376 . S
C2058 C2056 1.394 . S
C2058 C2059 1.369 . S
C2058 C2062 1.531 . S
C2059 C2058 1.369 . S
C2059 C2060 1.410 . S
C2059 C2067 1.503 . S
C2060 C2059 1.410 . S
C2060 C2061 1.392 . S
C2060 C2063 1.511 . S
C2061 C2057 1.376 . S
C2061 C2060 1.392 . S
C2061 H2073 0.929 . S
C2062 C2058 1.531 . S
C2062 H2074 0.960 . S
C2062 H2075 0.962 . S
C2062 H2076 0.960 . S
C2063 C2060 1.511 . S
C2063 H2077 0.961 . S
C2063 H2078 0.961 . S
C2063 H2079 0.961 . S
C2064 C2065 1.370 . S
C2064 C2066 1.363 . S
C2064 H2080 0.931 . S
C2065 C2064 1.370 . S
C2065 C2069 1.408 . S
C2066 C2064 1.363 . S
C2066 C2067 1.370 . S
C2066 C2070 1.524 . S
C2067 C2059 1.503 . S
C2067 C2066 1.370 . S
C2067 C2068 1.403 . S
C2068 C2067 1.403 . S
C2068 C2069 1.404 . S
C2068 C2071 1.539 . S
C2069 C2065 1.408 . S
C2069 C2068 1.404 . S
C2069 H2081 0.930 . S
C2070 C2066 1.524 . S
C2070 H2082 0.956 . S
C2070 H2083 0.961 . S
C2070 H2084 0.961 . S
C2071 C2068 1.539 . S
C2071 H2085 0.958 . S
C2071 H2086 0.961 . S
C2071 H2087 0.960 . S
H2072 C2056 0.931 . S
H2073 C2061 0.929 . S
H2074 C2062 0.960 . S
H2075 C2062 0.962 . S
H2076 C2062 0.960 . S
H2077 C2063 0.961 . S
H2078 C2063 0.961 . S
H2079 C2063 0.961 . S
H2080 C2064 0.931 . S
H2081 C2069 0.930 . S
H2082 C2070 0.956 . S
H2083 C2070 0.961 . S
H2084 C2070 0.961 . S
H2085 C2071 0.958 . S
H2086 C2071 0.961 . S
H2087 C2071 0.960 . S
C2088 C2089 1.391 . S
C2088 C2090 1.394 . S
C2088 H2104 0.931 . S
C2089 C2088 1.391 . S
C2089 C2093 1.376 . S
C2090 C2088 1.394 . S
C2090 C2091 1.369 . S
C2090 C2094 1.531 . S
C2091 C2090 1.369 . S
C2091 C2092 1.410 . S
C2091 C2099 1.503 . S
C2092 C2091 1.410 . S
C2092 C2093 1.392 . S
C2092 C2095 1.511 . S
C2093 C2089 1.376 . S
C2093 C2092 1.392 . S
C2093 H2105 0.929 . S
C2094 C2090 1.531 . S
C2094 H2106 0.960 1_565 S
C2094 H2107 0.962 . S
C2094 H2108 0.960 1_565 S
C2095 C2092 1.511 . S
C2095 H2109 0.961 . S
C2095 H2110 0.961 . S
C2095 H2111 0.961 . S
C2096 C2097 1.370 . S
C2096 C2098 1.363 . S
C2096 H2112 0.931 . S
C2097 C2096 1.370 . S
C2097 C2101 1.408 1_565 S
C2098 C2096 1.363 . S
C2098 C2099 1.370 . S
C2098 C2102 1.524 . S
C2099 C2091 1.503 . S
C2099 C2098 1.370 . S
C2099 C2100 1.403 1_565 S
C2100 C2099 1.403 1_545 S
C2100 C2101 1.404 . S
C2100 C2103 1.539 . S
C2101 C2097 1.408 1_545 S
C2101 C2100 1.404 . S
C2101 H2113 0.930 . S
C2102 C2098 1.524 . S
C2102 H2114 0.956 . S
C2102 H2115 0.961 . S
C2102 H2116 0.961 . S
C2103 C2100 1.539 . S
C2103 H2117 0.958 . S
C2103 H2118 0.961 . S
C2103 H2119 0.960 . S
H2104 C2088 0.931 . S
H2105 C2093 0.929 . S
H2106 C2094 0.960 1_545 S
H2107 C2094 0.962 . S
H2108 C2094 0.960 1_545 S
H2109 C2095 0.961 . S
H2110 C2095 0.961 . S
H2111 C2095 0.961 . S
H2112 C2096 0.931 . S
H2113 C2101 0.930 . S
H2114 C2102 0.956 . S
H2115 C2102 0.961 . S
H2116 C2102 0.961 . S
H2117 C2103 0.958 . S
H2118 C2103 0.961 . S
H2119 C2103 0.960 . S
C2120 C2121 1.397 . S
C2120 C2122 1.395 . S
C2120 H2136 0.923 1_455 S
C2121 C2120 1.397 . S
C2121 C2125 1.376 . S
C2122 C2120 1.395 . S
C2122 C2123 1.369 . S
C2122 C2126 1.531 1_455 S
C2123 C2122 1.369 . S
C2123 C2124 1.410 . S
C2123 C2131 1.503 . S
C2124 C2123 1.410 . S
C2124 C2125 1.392 . S
C2124 C2127 1.511 . S
C2125 C2121 1.376 . S
C2125 C2124 1.392 . S
C2125 H2137 0.929 . S
C2126 C2122 1.531 1_655 S
C2126 H2138 0.960 . S
C2126 H2139 0.962 . S
C2126 H2140 0.960 . S
C2127 C2124 1.511 . S
C2127 H2141 0.961 . S
C2127 H2142 0.961 . S
C2127 H2143 0.961 . S
C2128 C2129 1.370 . S
C2128 C2130 1.363 . S
C2128 H2144 0.931 1_455 S
C2129 C2128 1.370 . S
C2129 C2133 1.408 . S
C2130 C2128 1.363 . S
C2130 C2131 1.370 . S
C2130 C2134 1.524 1_455 S
C2131 C2123 1.503 . S
C2131 C2130 1.370 . S
C2131 C2132 1.403 . S
C2132 C2131 1.403 . S
C2132 C2133 1.404 . S
C2132 C2135 1.539 . S
C2133 C2129 1.408 . S
C2133 C2132 1.404 . S
C2133 H2145 0.930 . S
C2134 C2130 1.524 1_655 S
C2134 H2146 0.956 . S
C2134 H2147 0.961 1_655 S
C2134 H2148 0.961 . S
C2135 C2132 1.539 . S
C2135 H2149 0.958 . S
C2135 H2150 0.961 . S
C2135 H2151 0.960 . S
H2136 C2120 0.923 1_655 S
H2137 C2125 0.929 . S
H2138 C2126 0.960 . S
H2139 C2126 0.962 . S
H2140 C2126 0.960 . S
H2141 C2127 0.961 . S
H2142 C2127 0.961 . S
H2143 C2127 0.961 . S
H2144 C2128 0.931 1_655 S
H2145 C2133 0.930 . S
H2146 C2134 0.956 . S
H2147 C2134 0.961 1_455 S
H2148 C2134 0.961 . S
H2149 C2135 0.958 . S
H2150 C2135 0.961 . S
H2151 C2135 0.960 . S
C2152 C2153 1.391 . S
C2152 C2154 1.394 . S
C2152 H2168 0.931 . S
C2153 C2152 1.391 . S
C2153 C2157 1.376 . S
C2154 C2152 1.394 . S
C2154 C2155 1.369 . S
C2154 C2158 1.531 . S
C2155 C2154 1.369 . S
C2155 C2156 1.410 . S
C2155 C2163 1.503 . S
C2156 C2155 1.410 . S
C2156 C2157 1.392 . S
C2156 C2159 1.511 . S
C2157 C2153 1.376 . S
C2157 C2156 1.392 . S
C2157 H2169 0.929 . S
C2158 C2154 1.531 . S
C2158 H2170 0.960 . S
C2158 H2171 0.962 . S
C2158 H2172 0.960 . S
C2159 C2156 1.511 . S
C2159 H2173 0.961 . S
C2159 H2174 0.961 . S
C2159 H2175 0.961 . S
C2160 C2161 1.370 . S
C2160 C2162 1.363 . S
C2160 H2176 0.931 . S
C2161 C2160 1.370 . S
C2161 C2165 1.408 . S
C2162 C2160 1.363 . S
C2162 C2163 1.370 . S
C2162 C2166 1.524 . S
C2163 C2155 1.503 . S
C2163 C2162 1.370 . S
C2163 C2164 1.403 . S
C2164 C2163 1.403 . S
C2164 C2165 1.404 . S
C2164 C2167 1.539 . S
C2165 C2161 1.408 . S
C2165 C2164 1.404 . S
C2165 H2177 0.930 . S
C2166 C2162 1.524 . S
C2166 H2178 0.956 . S
C2166 H2179 0.961 . S
C2166 H2180 0.961 . S
C2167 C2164 1.539 . S
C2167 H2181 0.958 . S
C2167 H2182 0.961 . S
C2167 H2183 0.960 . S
H2168 C2152 0.931 . S
H2169 C2157 0.929 . S
H2170 C2158 0.960 . S
H2171 C2158 0.962 . S
H2172 C2158 0.960 . S
H2173 C2159 0.961 . S
H2174 C2159 0.961 . S
H2175 C2159 0.961 . S
H2176 C2160 0.931 . S
H2177 C2165 0.930 . S
H2178 C2166 0.956 . S
H2179 C2166 0.961 . S
H2180 C2166 0.961 . S
H2181 C2167 0.958 . S
H2182 C2167 0.961 . S
H2183 C2167 0.960 . S
C2184 C2185 1.391 . S
C2184 C2186 1.394 . S
C2184 H2200 0.931 . S
C2185 C2184 1.391 . S
C2185 C2189 1.376 . S
C2186 C2184 1.394 . S
C2186 C2187 1.369 . S
C2186 C2190 1.531 . S
C2187 C2186 1.369 . S
C2187 C2188 1.410 . S
C2187 C2195 1.503 . S
C2188 C2187 1.410 . S
C2188 C2189 1.392 . S
C2188 C2191 1.511 . S
C2189 C2185 1.376 . S
C2189 C2188 1.392 . S
C2189 H2201 0.929 . S
C2190 C2186 1.531 . S
C2190 H2202 0.960 1_655 S
C2190 H2203 0.962 . S
C2190 H2204 0.960 1_655 S
C2191 C2188 1.511 . S
C2191 H2205 0.961 . S
C2191 H2206 0.961 . S
C2191 H2207 0.961 1_655 S
C2192 C2193 1.370 . S
C2192 C2194 1.363 . S
C2192 H2208 0.931 . S
C2193 C2192 1.370 . S
C2193 C2197 1.408 1_655 S
C2194 C2192 1.363 . S
C2194 C2195 1.370 . S
C2194 C2198 1.524 . S
C2195 C2187 1.503 . S
C2195 C2194 1.370 . S
C2195 C2196 1.403 1_655 S
C2196 C2195 1.403 1_455 S
C2196 C2197 1.404 . S
C2196 C2199 1.539 . S
C2197 C2193 1.408 1_455 S
C2197 C2196 1.404 . S
C2197 H2209 0.930 . S
C2198 C2194 1.524 . S
C2198 H2210 0.956 . S
C2198 H2211 0.961 . S
C2198 H2212 0.961 . S
C2199 C2196 1.539 . S
C2199 H2213 0.958 . S
C2199 H2214 0.961 . S
C2199 H2215 0.960 . S
H2200 C2184 0.931 . S
H2201 C2189 0.929 . S
H2202 C2190 0.960 1_455 S
H2203 C2190 0.962 . S
H2204 C2190 0.960 1_455 S
H2205 C2191 0.961 . S
H2206 C2191 0.961 . S
H2207 C2191 0.961 1_455 S
H2208 C2192 0.931 . S
H2209 C2197 0.930 . S
H2210 C2198 0.956 . S
H2211 C2198 0.961 . S
H2212 C2198 0.961 . S
H2213 C2199 0.958 . S
H2214 C2199 0.961 . S
H2215 C2199 0.960 . S
C2216 C2217 1.391 . S
C2216 C2218 1.394 . S
C2216 H2232 0.931 . S
C2217 C2216 1.391 . S
C2217 C2221 1.376 . S
C2218 C2216 1.394 . S
C2218 C2219 1.369 . S
C2218 C2222 1.531 . S
C2219 C2218 1.369 . S
C2219 C2220 1.410 . S
C2219 C2227 1.503 . S
C2220 C2219 1.410 . S
C2220 C2221 1.392 . S
C2220 C2223 1.511 . S
C2221 C2217 1.376 . S
C2221 C2220 1.392 . S
C2221 H2233 0.929 . S
C2222 C2218 1.531 . S
C2222 H2234 0.960 . S
C2222 H2235 0.962 . S
C2222 H2236 0.960 . S
C2223 C2220 1.511 . S
C2223 H2237 0.961 . S
C2223 H2238 0.961 . S
C2223 H2239 0.961 . S
C2224 C2225 1.370 . S
C2224 C2226 1.363 . S
C2224 H2240 0.931 . S
C2225 C2224 1.370 . S
C2225 C2229 1.408 . S
C2226 C2224 1.363 . S
C2226 C2227 1.370 . S
C2226 C2230 1.524 . S
C2227 C2219 1.503 . S
C2227 C2226 1.370 . S
C2227 C2228 1.403 . S
C2228 C2227 1.403 . S
C2228 C2229 1.404 . S
C2228 C2231 1.539 . S
C2229 C2225 1.408 . S
C2229 C2228 1.404 . S
C2229 H2241 0.930 . S
C2230 C2226 1.524 . S
C2230 H2242 0.956 . S
C2230 H2243 0.961 . S
C2230 H2244 0.961 . S
C2231 C2228 1.539 . S
C2231 H2245 0.958 . S
C2231 H2246 0.961 . S
C2231 H2247 0.960 . S
H2232 C2216 0.931 . S
H2233 C2221 0.929 . S
H2234 C2222 0.960 . S
H2235 C2222 0.962 . S
H2236 C2222 0.960 . S
H2237 C2223 0.961 . S
H2238 C2223 0.961 . S
H2239 C2223 0.961 . S
H2240 C2224 0.931 . S
H2241 C2229 0.930 . S
H2242 C2230 0.956 . S
H2243 C2230 0.961 . S
H2244 C2230 0.961 . S
H2245 C2231 0.958 . S
H2246 C2231 0.961 . S
H2247 C2231 0.960 . S
C2248 C2249 1.391 . S
C2248 C2250 1.394 . S
C2248 H2264 0.931 . S
C2249 C2248 1.391 . S
C2249 C2253 1.376 . S
C2250 C2248 1.394 . S
C2250 C2251 1.369 . S
C2250 C2254 1.531 . S
C2251 C2250 1.369 . S
C2251 C2252 1.410 . S
C2251 C2259 1.503 . S
C2252 C2251 1.410 . S
C2252 C2253 1.392 . S
C2252 C2255 1.511 . S
C2253 C2249 1.376 . S
C2253 C2252 1.392 . S
C2253 H2265 0.929 . S
C2254 C2250 1.531 . S
C2254 H2266 0.960 1_545 S
C2254 H2267 0.962 . S
C2254 H2268 0.960 1_545 S
C2255 C2252 1.511 . S
C2255 H2269 0.961 . S
C2255 H2270 0.961 . S
C2255 H2271 0.961 . S
C2256 C2257 1.370 . S
C2256 C2258 1.363 . S
C2256 H2272 0.931 . S
C2257 C2256 1.370 . S
C2257 C2261 1.408 1_545 S
C2258 C2256 1.363 . S
C2258 C2259 1.370 . S
C2258 C2262 1.524 . S
C2259 C2251 1.503 . S
C2259 C2258 1.370 . S
C2259 C2260 1.402 1_545 S
C2260 C2259 1.402 1_565 S
C2260 C2261 1.404 . S
C2260 C2263 1.540 . S
C2261 C2257 1.408 1_565 S
C2261 C2260 1.404 . S
C2261 H2273 0.930 . S
C2262 C2258 1.524 . S
C2262 H2274 0.956 . S
C2262 H2275 0.961 . S
C2262 H2276 0.961 . S
C2263 C2260 1.540 . S
C2263 H2277 0.958 . S
C2263 H2278 0.961 . S
C2263 H2279 0.960 . S
H2264 C2248 0.931 . S
H2265 C2253 0.929 . S
H2266 C2254 0.960 1_565 S
H2267 C2254 0.962 . S
H2268 C2254 0.960 1_565 S
H2269 C2255 0.961 . S
H2270 C2255 0.961 . S
H2271 C2255 0.961 . S
H2272 C2256 0.931 . S
H2273 C2261 0.930 . S
H2274 C2262 0.956 . S
H2275 C2262 0.961 . S
H2276 C2262 0.961 . S
H2277 C2263 0.958 . S
H2278 C2263 0.961 . S
H2279 C2263 0.960 . S
C2280 C2281 1.391 . S
C2280 C2282 1.394 . S
C2280 H2296 0.931 . S
C2281 C2280 1.391 . S
C2281 C2285 1.376 . S
C2282 C2280 1.394 . S
C2282 C2283 1.369 . S
C2282 C2286 1.531 . S
C2283 C2282 1.369 . S
C2283 C2284 1.410 . S
C2283 C2291 1.503 . S
C2284 C2283 1.410 . S
C2284 C2285 1.392 . S
C2284 C2287 1.511 . S
C2285 C2281 1.376 . S
C2285 C2284 1.392 . S
C2285 H2297 0.929 . S
C2286 C2282 1.531 . S
C2286 H2298 0.960 . S
C2286 H2299 0.962 . S
C2286 H2300 0.960 . S
C2287 C2284 1.511 . S
C2287 H2301 0.961 . S
C2287 H2302 0.961 . S
C2287 H2303 0.961 . S
C2288 C2289 1.370 . S
C2288 C2290 1.363 . S
C2288 H2304 0.931 . S
C2289 C2288 1.370 . S
C2289 C2293 1.408 . S
C2290 C2288 1.363 . S
C2290 C2291 1.370 . S
C2290 C2294 1.524 . S
C2291 C2283 1.503 . S
C2291 C2290 1.370 . S
C2291 C2292 1.403 . S
C2292 C2291 1.403 . S
C2292 C2293 1.404 . S
C2292 C2295 1.539 . S
C2293 C2289 1.408 . S
C2293 C2292 1.404 . S
C2293 H2305 0.930 . S
C2294 C2290 1.524 . S
C2294 H2306 0.956 . S
C2294 H2307 0.961 . S
C2294 H2308 0.961 . S
C2295 C2292 1.539 . S
C2295 H2309 0.958 . S
C2295 H2310 0.961 . S
C2295 H2311 0.960 . S
H2296 C2280 0.931 . S
H2297 C2285 0.929 . S
H2298 C2286 0.960 . S
H2299 C2286 0.962 . S
H2300 C2286 0.960 . S
H2301 C2287 0.961 . S
H2302 C2287 0.961 . S
H2303 C2287 0.961 . S
H2304 C2288 0.931 . S
H2305 C2293 0.930 . S
H2306 C2294 0.956 . S
H2307 C2294 0.961 . S
H2308 C2294 0.961 . S
H2309 C2295 0.958 . S
H2310 C2295 0.961 . S
H2311 C2295 0.960 . S
C2312 C2313 1.391 . S
C2312 C2314 1.394 . S
C2312 H2328 0.931 . S
C2313 C2312 1.391 . S
C2313 C2317 1.376 . S
C2314 C2312 1.394 . S
C2314 C2315 1.369 . S
C2314 C2318 1.531 . S
C2315 C2314 1.369 . S
C2315 C2316 1.410 . S
C2315 C2323 1.503 . S
C2316 C2315 1.410 . S
C2316 C2317 1.392 . S
C2316 C2319 1.511 . S
C2317 C2313 1.376 . S
C2317 C2316 1.392 . S
C2317 H2329 0.929 . S
C2318 C2314 1.531 . S
C2318 H2330 0.960 . S
C2318 H2331 0.962 . S
C2318 H2332 0.960 . S
C2319 C2316 1.511 . S
C2319 H2333 0.961 . S
C2319 H2334 0.961 . S
C2319 H2335 0.961 . S
C2320 C2321 1.370 . S
C2320 C2322 1.363 . S
C2320 H2336 0.931 . S
C2321 C2320 1.370 . S
C2321 C2325 1.408 . S
C2322 C2320 1.363 . S
C2322 C2323 1.370 . S
C2322 C2326 1.524 . S
C2323 C2315 1.503 . S
C2323 C2322 1.370 . S
C2323 C2324 1.403 . S
C2324 C2323 1.403 . S
C2324 C2325 1.404 . S
C2324 C2327 1.539 . S
C2325 C2321 1.408 . S
C2325 C2324 1.404 . S
C2325 H2337 0.930 . S
C2326 C2322 1.524 . S
C2326 H2338 0.956 . S
C2326 H2339 0.961 . S
C2326 H2340 0.961 . S
C2327 C2324 1.539 . S
C2327 H2341 0.958 . S
C2327 H2342 0.961 . S
C2327 H2343 0.960 . S
H2328 C2312 0.931 . S
H2329 C2317 0.929 . S
H2330 C2318 0.960 . S
H2331 C2318 0.962 . S
H2332 C2318 0.960 . S
H2333 C2319 0.961 . S
H2334 C2319 0.961 . S
H2335 C2319 0.961 . S
H2336 C2320 0.931 . S
H2337 C2325 0.930 . S
H2338 C2326 0.956 . S
H2339 C2326 0.961 . S
H2340 C2326 0.961 . S
H2341 C2327 0.958 . S
H2342 C2327 0.961 . S
H2343 C2327 0.960 . S
C2344 C2345 1.391 . S
C2344 C2346 1.394 . S
C2344 H2360 0.931 . S
C2345 C2344 1.391 . S
C2345 C2349 1.376 . S
C2346 C2344 1.394 . S
C2346 C2347 1.369 . S
C2346 C2350 1.531 . S
C2347 C2346 1.369 . S
C2347 C2348 1.410 . S
C2347 C2355 1.503 . S
C2348 C2347 1.410 . S
C2348 C2349 1.392 . S
C2348 C2351 1.511 . S
C2349 C2345 1.376 . S
C2349 C2348 1.392 . S
C2349 H2361 0.929 . S
C2350 C2346 1.531 . S
C2350 H2362 0.960 . S
C2350 H2363 0.962 . S
C2350 H2364 0.960 . S
C2351 C2348 1.511 . S
C2351 H2365 0.961 . S
C2351 H2366 0.961 . S
C2351 H2367 0.961 . S
C2352 C2353 1.370 . S
C2352 C2354 1.363 . S
C2352 H2368 0.931 . S
C2353 C2352 1.370 . S
C2353 C2357 1.408 . S
C2354 C2352 1.363 . S
C2354 C2355 1.370 . S
C2354 C2358 1.524 . S
C2355 C2347 1.503 . S
C2355 C2354 1.370 . S
C2355 C2356 1.403 . S
C2356 C2355 1.403 . S
C2356 C2357 1.404 . S
C2356 C2359 1.539 . S
C2357 C2353 1.408 . S
C2357 C2356 1.404 . S
C2357 H2369 0.930 . S
C2358 C2354 1.524 . S
C2358 H2370 0.956 . S
C2358 H2371 0.961 . S
C2358 H2372 0.961 . S
C2359 C2356 1.539 . S
C2359 H2373 0.958 . S
C2359 H2374 0.961 . S
C2359 H2375 0.960 . S
H2360 C2344 0.931 . S
H2361 C2349 0.929 . S
H2362 C2350 0.960 . S
H2363 C2350 0.962 . S
H2364 C2350 0.960 . S
H2365 C2351 0.961 . S
H2366 C2351 0.961 . S
H2367 C2351 0.961 . S
H2368 C2352 0.931 . S
H2369 C2357 0.930 . S
H2370 C2358 0.956 . S
H2371 C2358 0.961 . S
H2372 C2358 0.961 . S
H2373 C2359 0.958 . S
H2374 C2359 0.961 . S
H2375 C2359 0.960 . S
C2376 C2377 1.391 . S
C2376 C2378 1.394 . S
C2376 H2392 0.931 . S
C2377 C2376 1.391 . S
C2377 C2381 1.376 . S
C2378 C2376 1.394 . S
C2378 C2379 1.369 . S
C2378 C2382 1.531 . S
C2379 C2378 1.369 . S
C2379 C2380 1.410 . S
C2379 C2387 1.503 . S
C2380 C2379 1.410 . S
C2380 C2381 1.392 . S
C2380 C2383 1.511 . S
C2381 C2377 1.376 . S
C2381 C2380 1.392 . S
C2381 H2393 0.929 . S
C2382 C2378 1.531 . S
C2382 H2394 0.960 . S
C2382 H2395 0.962 . S
C2382 H2396 0.960 . S
C2383 C2380 1.511 . S
C2383 H2397 0.961 . S
C2383 H2398 0.961 . S
C2383 H2399 0.961 . S
C2384 C2385 1.370 . S
C2384 C2386 1.363 . S
C2384 H2400 0.931 . S
C2385 C2384 1.370 . S
C2385 C2389 1.408 . S
C2386 C2384 1.363 . S
C2386 C2387 1.370 . S
C2386 C2390 1.524 . S
C2387 C2379 1.503 . S
C2387 C2386 1.370 . S
C2387 C2388 1.403 . S
C2388 C2387 1.403 . S
C2388 C2389 1.404 . S
C2388 C2391 1.539 . S
C2389 C2385 1.408 . S
C2389 C2388 1.404 . S
C2389 H2401 0.930 . S
C2390 C2386 1.524 . S
C2390 H2402 0.956 . S
C2390 H2403 0.961 . S
C2390 H2404 0.961 . S
C2391 C2388 1.539 . S
C2391 H2405 0.958 . S
C2391 H2406 0.961 . S
C2391 H2407 0.960 . S
H2392 C2376 0.931 . S
H2393 C2381 0.929 . S
H2394 C2382 0.960 . S
H2395 C2382 0.962 . S
H2396 C2382 0.960 . S
H2397 C2383 0.961 . S
H2398 C2383 0.961 . S
H2399 C2383 0.961 . S
H2400 C2384 0.931 . S
H2401 C2389 0.930 . S
H2402 C2390 0.956 . S
H2403 C2390 0.961 . S
H2404 C2390 0.961 . S
H2405 C2391 0.958 . S
H2406 C2391 0.961 . S
H2407 C2391 0.960 . S
C2408 C2409 1.391 . S
C2408 C2410 1.394 . S
C2408 H2424 0.931 . S
C2409 C2408 1.391 . S
C2409 C2413 1.376 . S
C2410 C2408 1.394 . S
C2410 C2411 1.369 . S
C2410 C2414 1.531 . S
C2411 C2410 1.369 . S
C2411 C2412 1.410 . S
C2411 C2419 1.503 . S
C2412 C2411 1.410 . S
C2412 C2413 1.392 . S
C2412 C2415 1.511 . S
C2413 C2409 1.376 . S
C2413 C2412 1.392 . S
C2413 H2425 0.929 . S
C2414 C2410 1.531 . S
C2414 H2426 0.960 . S
C2414 H2427 0.962 . S
C2414 H2428 0.960 . S
C2415 C2412 1.511 . S
C2415 H2429 0.961 . S
C2415 H2430 0.961 . S
C2415 H2431 0.961 . S
C2416 C2417 1.370 . S
C2416 C2418 1.363 . S
C2416 H2432 0.931 . S
C2417 C2416 1.370 . S
C2417 C2421 1.408 . S
C2418 C2416 1.363 . S
C2418 C2419 1.370 . S
C2418 C2422 1.524 . S
C2419 C2411 1.503 . S
C2419 C2418 1.370 . S
C2419 C2420 1.403 . S
C2420 C2419 1.403 . S
C2420 C2421 1.404 . S
C2420 C2423 1.539 . S
C2421 C2417 1.408 . S
C2421 C2420 1.404 . S
C2421 H2433 0.930 . S
C2422 C2418 1.524 . S
C2422 H2434 0.956 . S
C2422 H2435 0.961 . S
C2422 H2436 0.961 . S
C2423 C2420 1.539 . S
C2423 H2437 0.958 . S
C2423 H2438 0.961 . S
C2423 H2439 0.960 . S
H2424 C2408 0.931 . S
H2425 C2413 0.929 . S
H2426 C2414 0.960 . S
H2427 C2414 0.962 . S
H2428 C2414 0.960 . S
H2429 C2415 0.961 . S
H2430 C2415 0.961 . S
H2431 C2415 0.961 . S
H2432 C2416 0.931 . S
H2433 C2421 0.930 . S
H2434 C2422 0.956 . S
H2435 C2422 0.961 . S
H2436 C2422 0.961 . S
H2437 C2423 0.958 . S
H2438 C2423 0.961 . S
H2439 C2423 0.960 . S
C2440 C2441 1.391 . S
C2440 C2442 1.394 . S
C2440 H2456 0.931 . S
C2441 C2440 1.391 . S
C2441 C2445 1.376 . S
C2442 C2440 1.394 . S
C2442 C2443 1.369 . S
C2442 C2446 1.531 . S
C2443 C2442 1.369 . S
C2443 C2444 1.410 . S
C2443 C2451 1.503 . S
C2444 C2443 1.410 . S
C2444 C2445 1.392 . S
C2444 C2447 1.511 . S
C2445 C2441 1.376 . S
C2445 C2444 1.392 . S
C2445 H2457 0.929 . S
C2446 C2442 1.531 . S
C2446 H2458 0.960 . S
C2446 H2459 0.962 . S
C2446 H2460 0.960 . S
C2447 C2444 1.511 . S
C2447 H2461 0.961 . S
C2447 H2462 0.961 . S
C2447 H2463 0.961 . S
C2448 C2449 1.370 . S
C2448 C2450 1.363 . S
C2448 H2464 0.931 . S
C2449 C2448 1.370 . S
C2449 C2453 1.408 . S
C2450 C2448 1.363 . S
C2450 C2451 1.370 . S
C2450 C2454 1.524 . S
C2451 C2443 1.503 . S
C2451 C2450 1.370 . S
C2451 C2452 1.403 . S
C2452 C2451 1.403 . S
C2452 C2453 1.404 . S
C2452 C2455 1.539 . S
C2453 C2449 1.408 . S
C2453 C2452 1.404 . S
C2453 H2465 0.930 . S
C2454 C2450 1.524 . S
C2454 H2466 0.956 . S
C2454 H2467 0.961 . S
C2454 H2468 0.961 . S
C2455 C2452 1.539 . S
C2455 H2469 0.958 . S
C2455 H2470 0.961 . S
C2455 H2471 0.960 . S
H2456 C2440 0.931 . S
H2457 C2445 0.929 . S
H2458 C2446 0.960 . S
H2459 C2446 0.962 . S
H2460 C2446 0.960 . S
H2461 C2447 0.961 . S
H2462 C2447 0.961 . S
H2463 C2447 0.961 . S
H2464 C2448 0.931 . S
H2465 C2453 0.930 . S
H2466 C2454 0.956 . S
H2467 C2454 0.961 . S
H2468 C2454 0.961 . S
H2469 C2455 0.958 . S
H2470 C2455 0.961 . S
H2471 C2455 0.960 . S
C2472 C2473 1.391 . S
C2472 C2474 1.394 . S
C2472 H2488 0.931 . S
C2473 C2472 1.391 . S
C2473 C2477 1.376 . S
C2474 C2472 1.394 . S
C2474 C2475 1.369 . S
C2474 C2478 1.531 . S
C2475 C2474 1.369 . S
C2475 C2476 1.410 . S
C2475 C2483 1.503 . S
C2476 C2475 1.410 . S
C2476 C2477 1.392 . S
C2476 C2479 1.511 . S
C2477 C2473 1.376 . S
C2477 C2476 1.392 . S
C2477 H2489 0.929 . S
C2478 C2474 1.531 . S
C2478 H2490 0.960 . S
C2478 H2491 0.962 . S
C2478 H2492 0.960 . S
C2479 C2476 1.511 . S
C2479 H2493 0.961 . S
C2479 H2494 0.961 . S
C2479 H2495 0.961 . S
C2480 C2481 1.370 . S
C2480 C2482 1.363 . S
C2480 H2496 0.931 . S
C2481 C2480 1.370 . S
C2481 C2485 1.408 . S
C2482 C2480 1.363 . S
C2482 C2483 1.370 . S
C2482 C2486 1.524 . S
C2483 C2475 1.503 . S
C2483 C2482 1.370 . S
C2483 C2484 1.403 . S
C2484 C2483 1.403 . S
C2484 C2485 1.404 . S
C2484 C2487 1.539 . S
C2485 C2481 1.408 . S
C2485 C2484 1.404 . S
C2485 H2497 0.930 . S
C2486 C2482 1.524 . S
C2486 H2498 0.956 . S
C2486 H2499 0.961 . S
C2486 H2500 0.961 . S
C2487 C2484 1.539 . S
C2487 H2501 0.958 . S
C2487 H2502 0.961 . S
C2487 H2503 0.960 . S
H2488 C2472 0.931 . S
H2489 C2477 0.929 . S
H2490 C2478 0.960 . S
H2491 C2478 0.962 . S
H2492 C2478 0.960 . S
H2493 C2479 0.961 . S
H2494 C2479 0.961 . S
H2495 C2479 0.961 . S
H2496 C2480 0.931 . S
H2497 C2485 0.930 . S
H2498 C2486 0.956 . S
H2499 C2486 0.961 . S
H2500 C2486 0.961 . S
H2501 C2487 0.958 . S
H2502 C2487 0.961 . S
H2503 C2487 0.960 . S
C2504 C2505 1.391 . S
C2504 C2506 1.394 . S
C2504 H2520 0.931 . S
C2505 C2504 1.391 . S
C2505 C2509 1.376 . S
C2506 C2504 1.394 . S
C2506 C2507 1.369 . S
C2506 C2510 1.531 . S
C2507 C2506 1.369 . S
C2507 C2508 1.410 . S
C2507 C2515 1.503 . S
C2508 C2507 1.410 . S
C2508 C2509 1.392 . S
C2508 C2511 1.511 . S
C2509 C2505 1.376 . S
C2509 C2508 1.392 . S
C2509 H2521 0.929 . S
C2510 C2506 1.531 . S
C2510 H2522 0.960 . S
C2510 H2523 0.962 . S
C2510 H2524 0.960 . S
C2511 C2508 1.511 . S
C2511 H2525 0.961 . S
C2511 H2526 0.961 . S
C2511 H2527 0.961 . S
C2512 C2513 1.370 . S
C2512 C2514 1.363 . S
C2512 H2528 0.931 . S
C2513 C2512 1.370 . S
C2513 C2517 1.408 . S
C2514 C2512 1.363 . S
C2514 C2515 1.370 . S
C2514 C2518 1.524 . S
C2515 C2507 1.503 . S
C2515 C2514 1.370 . S
C2515 C2516 1.403 . S
C2516 C2515 1.403 . S
C2516 C2517 1.404 . S
C2516 C2519 1.539 . S
C2517 C2513 1.408 . S
C2517 C2516 1.404 . S
C2517 H2529 0.930 . S
C2518 C2514 1.524 . S
C2518 H2530 0.956 . S
C2518 H2531 0.961 . S
C2518 H2532 0.961 . S
C2519 C2516 1.539 . S
C2519 H2533 0.958 . S
C2519 H2534 0.961 . S
C2519 H2535 0.960 . S
H2520 C2504 0.931 . S
H2521 C2509 0.929 . S
H2522 C2510 0.960 . S
H2523 C2510 0.962 . S
H2524 C2510 0.960 . S
H2525 C2511 0.961 . S
H2526 C2511 0.961 . S
H2527 C2511 0.961 . S
H2528 C2512 0.931 . S
H2529 C2517 0.930 . S
H2530 C2518 0.956 . S
H2531 C2518 0.961 . S
H2532 C2518 0.961 . S
H2533 C2519 0.958 . S
H2534 C2519 0.961 . S
H2535 C2519 0.960 . S
C2536 C2537 1.391 . S
C2536 C2538 1.394 . S
C2536 H2552 0.931 . S
C2537 C2536 1.391 . S
C2537 C2541 1.376 . S
C2538 C2536 1.394 . S
C2538 C2539 1.369 . S
C2538 C2542 1.531 . S
C2539 C2538 1.369 . S
C2539 C2540 1.410 . S
C2539 C2547 1.503 . S
C2540 C2539 1.410 . S
C2540 C2541 1.392 . S
C2540 C2543 1.511 . S
C2541 C2537 1.376 . S
C2541 C2540 1.392 . S
C2541 H2553 0.929 . S
C2542 C2538 1.531 . S
C2542 H2554 0.960 . S
C2542 H2555 0.962 . S
C2542 H2556 0.960 . S
C2543 C2540 1.511 . S
C2543 H2557 0.961 . S
C2543 H2558 0.961 . S
C2543 H2559 0.961 . S
C2544 C2545 1.370 . S
C2544 C2546 1.363 . S
C2544 H2560 0.931 . S
C2545 C2544 1.370 . S
C2545 C2549 1.408 . S
C2546 C2544 1.363 . S
C2546 C2547 1.370 . S
C2546 C2550 1.524 . S
C2547 C2539 1.503 . S
C2547 C2546 1.370 . S
C2547 C2548 1.403 . S
C2548 C2547 1.403 . S
C2548 C2549 1.404 . S
C2548 C2551 1.539 . S
C2549 C2545 1.408 . S
C2549 C2548 1.404 . S
C2549 H2561 0.930 . S
C2550 C2546 1.524 . S
C2550 H2562 0.956 . S
C2550 H2563 0.961 . S
C2550 H2564 0.961 . S
C2551 C2548 1.539 . S
C2551 H2565 0.958 . S
C2551 H2566 0.961 . S
C2551 H2567 0.960 . S
H2552 C2536 0.931 . S
H2553 C2541 0.929 . S
H2554 C2542 0.960 . S
H2555 C2542 0.962 . S
H2556 C2542 0.960 . S
H2557 C2543 0.961 . S
H2558 C2543 0.961 . S
H2559 C2543 0.961 . S
H2560 C2544 0.931 . S
H2561 C2549 0.930 . S
H2562 C2550 0.956 . S
H2563 C2550 0.961 . S
H2564 C2550 0.961 . S
H2565 C2551 0.958 . S
H2566 C2551 0.961 . S
H2567 C2551 0.960 . S
C2568 C2569 1.391 . S
C2568 C2570 1.394 . S
C2568 H2584 0.931 . S
C2569 C2568 1.391 . S
C2569 C2573 1.376 . S
C2570 C2568 1.394 . S
C2570 C2571 1.369 . S
C2570 C2574 1.531 . S
C2571 C2570 1.369 . S
C2571 C2572 1.410 . S
C2571 C2579 1.503 . S
C2572 C2571 1.410 . S
C2572 C2573 1.392 . S
C2572 C2575 1.511 . S
C2573 C2569 1.376 . S
C2573 C2572 1.392 . S
C2573 H2585 0.929 . S
C2574 C2570 1.531 . S
C2574 H2586 0.960 . S
C2574 H2587 0.962 . S
C2574 H2588 0.960 . S
C2575 C2572 1.511 . S
C2575 H2589 0.961 . S
C2575 H2590 0.961 . S
C2575 H2591 0.961 . S
C2576 C2577 1.370 . S
C2576 C2578 1.363 . S
C2576 H2592 0.931 . S
C2577 C2576 1.370 . S
C2577 C2581 1.408 . S
C2578 C2576 1.363 . S
C2578 C2579 1.370 . S
C2578 C2582 1.524 . S
C2579 C2571 1.503 . S
C2579 C2578 1.370 . S
C2579 C2580 1.403 . S
C2580 C2579 1.403 . S
C2580 C2581 1.404 . S
C2580 C2583 1.539 . S
C2581 C2577 1.408 . S
C2581 C2580 1.404 . S
C2581 H2593 0.930 . S
C2582 C2578 1.524 . S
C2582 H2594 0.956 . S
C2582 H2595 0.961 . S
C2582 H2596 0.961 . S
C2583 C2580 1.539 . S
C2583 H2597 0.958 . S
C2583 H2598 0.961 . S
C2583 H2599 0.960 . S
H2584 C2568 0.931 . S
H2585 C2573 0.929 . S
H2586 C2574 0.960 . S
H2587 C2574 0.962 . S
H2588 C2574 0.960 . S
H2589 C2575 0.961 . S
H2590 C2575 0.961 . S
H2591 C2575 0.961 . S
H2592 C2576 0.931 . S
H2593 C2581 0.930 . S
H2594 C2582 0.956 . S
H2595 C2582 0.961 . S
H2596 C2582 0.961 . S
H2597 C2583 0.958 . S
H2598 C2583 0.961 . S
H2599 C2583 0.960 . S
C2600 C2601 1.391 . S
C2600 C2602 1.394 . S
C2600 H2616 0.931 . S
C2601 C2600 1.391 . S
C2601 C2605 1.376 . S
C2602 C2600 1.394 . S
C2602 C2603 1.369 . S
C2602 C2606 1.531 . S
C2603 C2602 1.369 . S
C2603 C2604 1.410 . S
C2603 C2611 1.503 . S
C2604 C2603 1.410 . S
C2604 C2605 1.392 . S
C2604 C2607 1.511 . S
C2605 C2601 1.376 . S
C2605 C2604 1.392 . S
C2605 H2617 0.929 . S
C2606 C2602 1.531 . S
C2606 H2618 0.960 . S
C2606 H2619 0.962 . S
C2606 H2620 0.960 . S
C2607 C2604 1.511 . S
C2607 H2621 0.961 . S
C2607 H2622 0.961 . S
C2607 H2623 0.961 . S
C2608 C2609 1.370 . S
C2608 C2610 1.363 . S
C2608 H2624 0.931 . S
C2609 C2608 1.370 . S
C2609 C2613 1.408 . S
C2610 C2608 1.363 . S
C2610 C2611 1.370 . S
C2610 C2614 1.524 . S
C2611 C2603 1.503 . S
C2611 C2610 1.370 . S
C2611 C2612 1.403 . S
C2612 C2611 1.403 . S
C2612 C2613 1.404 . S
C2612 C2615 1.539 . S
C2613 C2609 1.408 . S
C2613 C2612 1.404 . S
C2613 H2625 0.930 . S
C2614 C2610 1.524 . S
C2614 H2626 0.956 . S
C2614 H2627 0.961 . S
C2614 H2628 0.961 . S
C2615 C2612 1.539 . S
C2615 H2629 0.958 . S
C2615 H2630 0.961 . S
C2615 H2631 0.960 . S
H2616 C2600 0.931 . S
H2617 C2605 0.929 . S
H2618 C2606 0.960 . S
H2619 C2606 0.962 . S
H2620 C2606 0.960 . S
H2621 C2607 0.961 . S
H2622 C2607 0.961 . S
H2623 C2607 0.961 . S
H2624 C2608 0.931 . S
H2625 C2613 0.930 . S
H2626 C2614 0.956 . S
H2627 C2614 0.961 . S
H2628 C2614 0.961 . S
H2629 C2615 0.958 . S
H2630 C2615 0.961 . S
H2631 C2615 0.960 . S
C2632 C2633 1.391 . S
C2632 C2634 1.394 . S
C2632 H2648 0.931 . S
C2633 C2632 1.391 . S
C2633 C2637 1.376 . S
C2634 C2632 1.394 . S
C2634 C2635 1.369 . S
C2634 C2638 1.531 . S
C2635 C2634 1.369 . S
C2635 C2636 1.410 . S
C2635 C2643 1.503 . S
C2636 C2635 1.410 . S
C2636 C2637 1.392 . S
C2636 C2639 1.511 . S
C2637 C2633 1.376 . S
C2637 C2636 1.392 . S
C2637 H2649 0.929 . S
C2638 C2634 1.531 . S
C2638 H2650 0.960 . S
C2638 H2651 0.962 . S
C2638 H2652 0.960 . S
C2639 C2636 1.511 . S
C2639 H2653 0.961 . S
C2639 H2654 0.961 . S
C2639 H2655 0.961 . S
C2640 C2641 1.370 . S
C2640 C2642 1.363 . S
C2640 H2656 0.931 . S
C2641 C2640 1.370 . S
C2641 C2645 1.408 . S
C2642 C2640 1.363 . S
C2642 C2643 1.370 . S
C2642 C2646 1.524 . S
C2643 C2635 1.503 . S
C2643 C2642 1.370 . S
C2643 C2644 1.403 . S
C2644 C2643 1.403 . S
C2644 C2645 1.404 . S
C2644 C2647 1.539 . S
C2645 C2641 1.408 . S
C2645 C2644 1.404 . S
C2645 H2657 0.930 . S
C2646 C2642 1.524 . S
C2646 H2658 0.956 . S
C2646 H2659 0.961 . S
C2646 H2660 0.961 . S
C2647 C2644 1.539 . S
C2647 H2661 0.958 . S
C2647 H2662 0.961 . S
C2647 H2663 0.960 . S
H2648 C2632 0.931 . S
H2649 C2637 0.929 . S
H2650 C2638 0.960 . S
H2651 C2638 0.962 . S
H2652 C2638 0.960 . S
H2653 C2639 0.961 . S
H2654 C2639 0.961 . S
H2655 C2639 0.961 . S
H2656 C2640 0.931 . S
H2657 C2645 0.930 . S
H2658 C2646 0.956 . S
H2659 C2646 0.961 . S
H2660 C2646 0.961 . S
H2661 C2647 0.958 . S
H2662 C2647 0.961 . S
H2663 C2647 0.960 . S
C937 C439 1.554 . S
C945 C579 1.620 . S
C969 C465 1.805 . S
C977 C619 1.808 . S
C1001 C401 1.723 . S
C1009 C671 1.684 . S
C1033 C369 1.552 . S
C1041 C631 1.527 . S
C1073 C659 1.508 . S
C1065 C305 1.508 . S
C1097 C343 1.282 . S
C1105 C591 1.374 1_556 S
C1137 C598 1.658 . S
C1129 C375 1.673 . S
C1169 C638 1.770 . S
C1161 C311 1.765 . S
C1193 C337 1.579 . S
C1201 C658 1.703 . S
C1225 C433 1.487 . S
C1233 C618 1.528 . S
C1257 C471 1.466 . S
C1265 C678 1.475 . S
C1297 C578 1.415 . S
C1289 C407 1.415 . S
C1329 C699 1.629 . S
C1321 C55 1.490 . S
C1353 C81 1.804 . S
C1361 C739 1.806 . S
C1385 C17 1.722 . S
C1393 C791 1.685 . S
C1417 C561 1.554 . S
C1425 C751 1.520 . S
C1449 C497 1.511 . S
C1457 C779 1.508 . S
C1481 C535 1.258 . S
C1489 C711 1.360 . S
C1513 C567 1.664 . S
C1521 C718 1.665 . S
C1545 C503 1.767 . S
C1553 C758 1.772 . S
C1585 C778 1.684 . S
C1577 C529 1.576 . S
C1609 C49 1.469 . S
C1617 C738 1.532 . S
C1649 C798 1.469 . S
C1641 C87 1.452 . S
C1673 C23 1.421 . S
C1681 C698 1.412 . S
C1713 C819 1.619 . S
C1705 C247 1.547 . S
C1737 C273 1.804 . S
C1745 C859 1.806 . S
C1777 C911 1.694 . S
C1769 C209 1.710 . S
C1809 C871 1.521 . S
C1801 C177 1.553 . S
C1841 C899 1.511 . S
C1833 C113 1.490 . S
C1865 C151 1.281 . S
C1873 C831 1.374 . S
C1897 C183 1.672 . S
C1905 C838 1.658 . S
C1929 C119 1.776 . S
C1937 C878 1.776 . S
C1969 C898 1.697 . S
C1961 C145 1.585 . S
C1993 C241 1.429 . S
C2001 C858 1.522 . S
C2025 C279 1.468 . S
C2033 C918 1.475 . S
C2057 C215 1.415 . S
C2065 C818 1.406 . S
C2089 C509 1.314 . S
C2097 C602 1.347 . S
C2129 C642 1.796 . S
C2121 C541 1.688 . S
C2153 C573 1.565 . S
C2161 C665 1.560 . S
C2185 C221 1.836 . S
C2193 C625 1.814 . S
C2217 C253 1.431 . S
C2225 C682 1.535 . S
C2257 C585 1.351 . S
C2249 C285 1.305 . S
C2281 C125 1.316 . S
C2289 C722 1.346 . S
C2313 C157 1.669 . S
C2321 C762 1.802 . S
C2345 C189 1.544 . S
C2353 C785 1.556 . S
C2377 C413 1.837 . S
C2385 C745 1.824 . S
C2417 C802 1.530 . S
C2409 C445 1.490 . S
C2441 C477 1.350 . S
C2449 C705 1.340 . S
C2473 C317 1.360 . S
C2481 C842 1.356 . S
C2505 C349 1.737 . S
C2513 C882 1.788 . S
C2545 C905 1.555 . S
C2537 C381 1.544 . S
C2569 C29 1.835 . S
C2577 C865 1.822 . S
C2601 C61 1.489 . S
C2609 C922 1.530 . S
C2633 C93 1.306 . S
C2641 C825 1.351 . S
