# Generated by pormake.
# Topology pth, (4,4)-cn, num edge types: 1
# Building blocks:
#     Node 0, Type 0, BuildingBlock: UXUYUI_clean_sbu_0, # of connection points: 4
#     Node 1, Type 0, BuildingBlock: UXUYUI_clean_sbu_0, # of connection points: 4
#     Node 2, Type 0, BuildingBlock: UXUYUI_clean_sbu_0, # of connection points: 4
#     Node 3, Type 1, BuildingBlock: MUDLON_clean_linker_0, # of connection points: 4
#     Node 4, Type 1, BuildingBlock: MUDLON_clean_linker_0, # of connection points: 4
#     Node 5, Type 1, BuildingBlock: MUDLON_clean_linker_0, # of connection points: 4
#     Edge 6, Type (0, 1), BuildingBlock: ZUJKAS_clean_linker_0, # of connection points: 2
#     Edge 7, Type (0, 1), BuildingBlock: ZUJKAS_clean_linker_0, # of connection points: 2
#     Edge 8, Type (0, 1), BuildingBlock: ZUJKAS_clean_linker_0, # of connection points: 2
#     Edge 9, Type (0, 1), BuildingBlock: ZUJKAS_clean_linker_0, # of connection points: 2
#     Edge 10, Type (0, 1), BuildingBlock: ZUJKAS_clean_linker_0, # of connection points: 2
#     Edge 11, Type (0, 1), BuildingBlock: ZUJKAS_clean_linker_0, # of connection points: 2
#     Edge 12, Type (0, 1), BuildingBlock: ZUJKAS_clean_linker_0, # of connection points: 2
#     Edge 13, Type (0, 1), BuildingBlock: ZUJKAS_clean_linker_0, # of connection points: 2
#     Edge 14, Type (0, 1), BuildingBlock: ZUJKAS_clean_linker_0, # of connection points: 2
#     Edge 15, Type (0, 1), BuildingBlock: ZUJKAS_clean_linker_0, # of connection points: 2
#     Edge 16, Type (0, 1), BuildingBlock: ZUJKAS_clean_linker_0, # of connection points: 2
#     Edge 17, Type (0, 1), BuildingBlock: ZUJKAS_clean_linker_0, # of connection points: 2
# Relax obj value: 0.087
# Max RMSD: 0.213
# Mean RMSD: 0.143
data_MOF--net-pth--node1-UXUYUI_clean_sbu_0--node2-MUDLON_clean_linker_0--edge1-ZUJKAS_clean_linker_0
_symmetry_space_group_name_H-M    P1
_symmetry_Int_Tables_number       1
_symmetry_cell_setting            triclinic
loop_
_symmetry_equiv_pos_as_xyz
'x, y, z'
_cell_length_a     46.769681
_cell_length_b     46.770305
_cell_length_c     94.138491
_cell_angle_alpha  89.994545
_cell_angle_beta   90.022868
_cell_angle_gamma 120.00401
loop_
_atom_site_label
_atom_site_type_symbol
_atom_site_fract_x
_atom_site_fract_y
_atom_site_fract_z
_atom_type_partial_charge
Li0 Li 0.03401 0.0205 0.02524 0.0
Li1 Li 0.99756 0.01844 0.04372 0.0
Li2 Li 0.0162 0.97789 0.04215 0.0
Li3 Li 0.97624 0.97565 0.02543 0.0
C4 C 0.07548 0.04972 0.0462 0.0
N5 N 0.14115 0.0987 0.04567 0.0
C6 C 0.08501 0.08125 0.05138 0.0
C7 C 0.09949 0.04297 0.04103 0.0
C8 C 0.11829 0.10571 0.05096 0.0
C9 C 0.13251 0.06808 0.04076 0.0
C10 C 0.96806 0.02954 0.02064 0.0
C11 C 0.91237 0.01765 0.02502 0.0
N12 N 0.91683 0.04155 0.01557 0.0
C13 C 0.97212 0.05399 0.011 0.0
C14 C 0.93797 0.01121 0.02774 0.0
C15 C 0.94591 0.05969 0.00857 0.0
C16 C 0.08773 0.04473 0.00532 0.0
N17 N 0.06816 0.05189 0.01349 0.0
C18 C 0.09585 0.10767 0.00536 0.0
C19 C 0.07179 0.08257 0.01369 0.0
C20 C 0.11638 0.10112 0.99673 0.0
C21 C 0.11234 0.06925 0.99685 0.0
H22 H 0.08413 0.02004 0.00533 0.0
H23 H 0.05587 0.08745 0.02035 0.0
C24 C 0.96366 0.03549 0.06496 0.0
N25 N 0.98733 0.04644 0.05472 0.0
C26 C 0.95805 0.05786 0.07256 0.0
C27 C 0.00022 0.10216 0.05855 0.0
C28 C 0.0049 0.07893 0.0512 0.0
C29 C 0.97675 0.09178 0.06951 0.0
H30 H 0.94889 0.00948 0.06722 0.0
H31 H 0.0228 0.08682 0.0427 0.0
C32 C 0.02106 0.94664 0.01993 0.0
N33 N 0.02982 0.89246 0.01843 0.0
C34 C 0.99384 0.91492 0.01835 0.0
C35 C 0.05279 0.95079 0.02055 0.0
C36 C 0.99876 0.88785 0.01765 0.0
C37 C 0.05669 0.92309 0.01984 0.0
C38 C 0.96245 0.96164 0.06019 0.0
C39 C 0.98657 0.97673 0.07073 0.0
C40 C 0.93013 0.93846 0.06406 0.0
C41 C 0.97791 0.96831 0.08495 0.0
C42 C 0.92246 0.93075 0.0784 0.0
N43 N 0.94631 0.9457 0.08846 0.0
C44 C 0.05507 0.95945 0.05966 0.0
C45 C 0.00053 0.9176 0.05405 0.0
C46 C 0.05957 0.93744 0.06813 0.0
N47 N 0.02581 0.94919 0.0529 0.0
C48 C 0.00388 0.89492 0.06243 0.0
C49 C 0.03352 0.90484 0.06976 0.0
H50 H 0.07459 0.98483 0.05876 0.0
H51 H 0.97747 0.9102 0.04864 0.0
C52 C 0.93787 0.95431 0.00033 0.0
N53 N 0.93882 0.94757 0.0143 0.0
C54 C 0.9115 0.93224 0.99183 0.0
C55 C 0.88742 0.89721 0.01238 0.0
C56 C 0.91415 0.91998 0.02047 0.0
C57 C 0.88611 0.90295 0.99781 0.0
H58 H 0.95799 0.97644 0.99573 0.0
H59 H 0.9158 0.91518 0.03158 0.0
O60 O 0.0429 0.02558 0.04623 0.0
O61 O 0.99368 0.02397 0.02318 0.0
O62 O 0.01664 0.9734 0.02093 0.0
O63 O 0.97027 0.96904 0.04614 0.0
H64 H 0.06701 0.08678 0.05578 0.0
H65 H 0.09264 0.01871 0.03709 0.0
H66 H 0.12595 0.13025 0.05487 0.0
H67 H 0.15126 0.06324 0.03663 0.0
H68 H 0.88896 0.00367 0.03043 0.0
H69 H 0.99531 0.06845 0.00547 0.0
H70 H 0.93438 0.99228 0.03529 0.0
H71 H 0.94869 0.07854 0.00113 0.0
H72 H 0.09845 0.13201 0.00571 0.0
H73 H 0.12751 0.06317 0.99025 0.0
H74 H 0.93908 0.04864 0.08066 0.0
H75 H 0.01532 0.12801 0.05584 0.0
H76 H 0.96913 0.91112 0.01781 0.0
H77 H 0.0742 0.97506 0.02162 0.0
H78 H 0.97787 0.86317 0.01653 0.0
H79 H 0.0811 0.92597 0.0204 0.0
H80 H 0.01171 0.99471 0.06805 0.0
H81 H 0.91109 0.92661 0.05608 0.0
H82 H 0.99634 0.97976 0.0932 0.0
H83 H 0.89754 0.91289 0.08153 0.0
H84 H 0.08268 0.9461 0.07374 0.0
H85 H 0.98333 0.86992 0.06327 0.0
H86 H 0.91162 0.93744 0.98062 0.0
H87 H 0.86821 0.87513 0.01744 0.0
Li88 Li 0.99564 0.97111 0.35636 0.0
Li89 Li 0.03238 0.00722 0.37473 0.0
Li90 Li 0.97443 0.99269 0.37395 0.0
Li91 Li 0.01392 0.03003 0.35652 0.0
C92 C 0.98595 0.93149 0.3776 0.0
N93 N 0.97367 0.86723 0.37694 0.0
C94 C 0.01146 0.9248 0.3802 0.0
C95 C 0.95418 0.90548 0.37469 0.0
C96 C 0.00474 0.89215 0.37983 0.0
C97 C 0.94848 0.87318 0.37438 0.0
C98 C 0.05992 0.02579 0.34287 0.0
C99 C 0.10358 0.07591 0.33256 0.0
N100 N 0.09591 0.06143 0.31953 0.0
C101 C 0.05247 0.0114 0.32937 0.0
C102 C 0.08572 0.05829 0.3445 0.0
C103 C 0.07098 0.02982 0.31771 0.0
C104 C 0.95865 0.91669 0.33757 0.0
N105 N 0.98735 0.93438 0.34486 0.0
C106 C 0.00732 0.89939 0.3365 0.0
C107 C 0.01159 0.92644 0.3444 0.0
C108 C 0.97787 0.88044 0.3289 0.0
C109 C 0.95332 0.88938 0.3295 0.0
H110 H 0.93997 0.9238 0.33799 0.0
H111 H 0.03422 0.94112 0.35028 0.0
C112 C 0.05972 0.001 0.4003 0.0
N113 N 0.06749 0.01417 0.38704 0.0
C114 C 0.08445 0.00378 0.40946 0.0
C115 C 0.1248 0.03438 0.39126 0.0
C116 C 0.09923 0.0307 0.38241 0.0
C117 C 0.11755 0.02048 0.40495 0.0
H118 H 0.03417 0.9877 0.40363 0.0
H119 H 0.10469 0.04073 0.37179 0.0
C120 C 0.93845 0.98894 0.35213 0.0
N121 N 0.87662 0.983 0.35178 0.0
C122 C 0.93518 0.01666 0.34971 0.0
C123 C 0.91025 0.95818 0.35432 0.0
C124 C 0.90371 0.01314 0.34957 0.0
C125 C 0.87922 0.9557 0.35414 0.0
C126 C 0.03039 0.05332 0.38895 0.0
C127 C 0.01577 0.0428 0.4023 0.0
C128 C 0.06277 0.07967 0.38794 0.0
C129 C 0.03384 0.05887 0.41445 0.0
C130 C 0.08003 0.09505 0.40035 0.0
N131 N 0.06533 0.08442 0.41324 0.0
C132 C 0.91723 0.95755 0.39178 0.0
C133 C 0.93337 0.01291 0.38594 0.0
C134 C 0.89102 0.95477 0.39998 0.0
N135 N 0.93769 0.98633 0.385 0.0
C136 C 0.90765 0.01127 0.39401 0.0
C137 C 0.88621 0.98201 0.40127 0.0
H138 H 0.92148 0.93693 0.39099 0.0
H139 H 0.95016 0.03551 0.38047 0.0
C140 C 0.01615 0.06142 0.33083 0.0
N141 N 0.02396 0.06703 0.34484 0.0
C142 C 0.02033 0.08716 0.322 0.0
C143 C 0.04091 0.12413 0.34215 0.0
C144 C 0.03632 0.09761 0.3506 0.0
C145 C 0.03237 0.11894 0.32769 0.0
H146 H 0.00591 0.03671 0.3266 0.0
H147 H 0.04169 0.10122 0.36183 0.0
O148 O 0.99218 0.96336 0.37758 0.0
O149 O 0.04173 0.00836 0.3544 0.0
O150 O 0.9691 0.99199 0.35264 0.0
O151 O 0.01344 0.03734 0.37695 0.0
H152 H 0.03629 0.94459 0.38227 0.0
H153 H 0.93425 0.91021 0.37244 0.0
H154 H 0.02428 0.88663 0.38176 0.0
H155 H 0.92407 0.85285 0.37204 0.0
H156 H 0.12344 0.10115 0.33365 0.0
H157 H 0.03242 0.98642 0.32787 0.0
H158 H 0.09146 0.07003 0.35482 0.0
H159 H 0.06542 0.01904 0.3072 0.0
H160 H 0.02674 0.89319 0.33648 0.0
H161 H 0.93046 0.87574 0.32363 0.0
H162 H 0.07752 0.99219 0.4198 0.0
H163 H 0.14994 0.04792 0.38739 0.0
H164 H 0.95669 0.04073 0.34813 0.0
H165 H 0.91231 0.93654 0.35639 0.0
H166 H 0.90083 0.03441 0.34777 0.0
H167 H 0.85722 0.93209 0.35592 0.0
H168 H 0.99089 0.02221 0.4033 0.0
H169 H 0.07463 0.08781 0.37771 0.0
H170 H 0.02288 0.05092 0.42486 0.0
H171 H 0.10516 0.11533 0.39974 0.0
H172 H 0.87527 0.9319 0.40554 0.0
H173 H 0.90459 0.03271 0.39458 0.0
H174 H 0.01374 0.08214 0.31088 0.0
H175 H 0.0498 0.14811 0.347 0.0
Li176 Li 0.02014 0.98557 0.6929 0.0
Li177 Li 0.01972 0.02428 0.71026 0.0
Li178 Li 0.97967 0.96501 0.71141 0.0
Li179 Li 0.97606 0.99943 0.69292 0.0
C180 C 0.03093 0.9722 0.72531 0.0
N181 N 0.03296 0.94014 0.7496 0.0
C182 C 0.0374 0.9881 0.73847 0.0
C183 C 0.02569 0.94009 0.72449 0.0
C184 C 0.03831 0.97145 0.75063 0.0
C185 C 0.02673 0.92426 0.7369 0.0
C186 C 0.04769 0.06057 0.68708 0.0
C187 C 0.0678 0.1191 0.68842 0.0
N188 N 0.09784 0.12514 0.68376 0.0
C189 C 0.07873 0.06736 0.68226 0.0
C190 C 0.0421 0.08663 0.69013 0.0
C191 C 0.10377 0.10017 0.68066 0.0
C192 C 0.049 0.98212 0.66709 0.0
N193 N 0.04851 0.97733 0.68134 0.0
C194 C 0.09163 0.96429 0.67942 0.0
C195 C 0.06911 0.96846 0.6876 0.0
C196 C 0.09292 0.96932 0.66468 0.0
C197 C 0.07097 0.978 0.65849 0.0
H198 H 0.0328 0.98985 0.66245 0.0
H199 H 0.06849 0.96526 0.69898 0.0
C200 C 0.03409 0.07379 0.73099 0.0
N201 N 0.04738 0.06251 0.72116 0.0
C202 C 0.0546 0.10117 0.73937 0.0
C203 C 0.10191 0.10508 0.72714 0.0
C204 C 0.08059 0.07717 0.71928 0.0
C205 C 0.08888 0.11716 0.73737 0.0
H206 H 0.00763 0.06121 0.73247 0.0
H207 H 0.09051 0.06701 0.71172 0.0
C208 C 0.97078 0.93644 0.67982 0.0
N209 N 0.97143 0.90013 0.6568 0.0
C210 C 0.96259 0.94245 0.6663 0.0
C211 C 0.97918 0.91188 0.68165 0.0
C212 C 0.96306 0.92382 0.65479 0.0
C213 C 0.97943 0.89384 0.66987 0.0
C214 C 0.94511 0.00651 0.71466 0.0
C215 C 0.91394 0.97908 0.71709 0.0
C216 C 0.94823 0.03752 0.71255 0.0
C217 C 0.88629 0.98312 0.71725 0.0
C218 C 0.91998 0.04053 0.71276 0.0
N219 N 0.88985 0.01349 0.71508 0.0
C220 C 0.95103 0.93608 0.73767 0.0
C221 C 0.93622 0.89824 0.71856 0.0
C222 C 0.93009 0.91077 0.74684 0.0
N223 N 0.95358 0.92939 0.72383 0.0
C224 C 0.91495 0.87217 0.72734 0.0
C225 C 0.9114 0.87834 0.74166 0.0
H226 H 0.96482 0.96122 0.74149 0.0
H227 H 0.9382 0.89375 0.70745 0.0
C228 C 0.95526 0.03292 0.67394 0.0
N229 N 0.94555 0.00486 0.68155 0.0
C230 C 0.93254 0.03627 0.66551 0.0
C231 C 0.89032 0.9818 0.67293 0.0
C232 C 0.91387 0.97947 0.68116 0.0
C233 C 0.89958 0.01045 0.66491 0.0
H234 H 0.98066 0.05258 0.67432 0.0
H235 H 0.90701 0.95726 0.68719 0.0
O236 O 0.02927 0.98782 0.71332 0.0
O237 O 0.02295 0.0286 0.68885 0.0
O238 O 0.97098 0.95476 0.69118 0.0
O239 O 0.97238 0.00295 0.71413 0.0
H240 H 0.04142 0.0129 0.73931 0.0
H241 H 0.02042 0.92736 0.7144 0.0
H242 H 0.04316 0.98339 0.7609 0.0
H243 H 0.02249 0.89933 0.73644 0.0
H244 H 0.06388 0.1395 0.69084 0.0
H245 H 0.08357 0.04754 0.6799 0.0
H246 H 0.01831 0.08184 0.69396 0.0
H247 H 0.12794 0.10579 0.67699 0.0
H248 H 0.10802 0.95742 0.68459 0.0
H249 H 0.07155 0.98266 0.64719 0.0
H250 H 0.04389 0.10982 0.74729 0.0
H251 H 0.12832 0.1166 0.72553 0.0
H252 H 0.95626 0.96151 0.66466 0.0
H253 H 0.9859 0.90713 0.69201 0.0
H254 H 0.9569 0.92828 0.64426 0.0
H255 H 0.98609 0.87492 0.67111 0.0
H256 H 0.91104 0.95486 0.71866 0.0
H257 H 0.97217 0.05899 0.71065 0.0
H258 H 0.86198 0.96208 0.71904 0.0
H259 H 0.92199 0.06434 0.71106 0.0
H260 H 0.92835 0.91658 0.75782 0.0
H261 H 0.90061 0.84768 0.72285 0.0
H262 H 0.94065 0.05887 0.65957 0.0
H263 H 0.86533 0.96109 0.67259 0.0
H264 H 0.89915 0.58728 0.20502 0.0
N265 N 0.94678 0.5768 0.19601 0.0
H266 H 0.89999 0.61914 0.22581 0.0
H267 H 0.99514 0.60276 0.2164 0.0
H268 H 0.99603 0.63411 0.23725 0.0
H269 H 0.01122 0.62573 0.19284 0.0
H270 H 0.03277 0.66713 0.174 0.0
H271 H 0.91602 0.57684 0.17241 0.0
H272 H 0.93757 0.61772 0.15327 0.0
H273 H 0.89682 0.51563 0.19495 0.0
H274 H 0.00272 0.57213 0.19872 0.0
H275 H 0.89861 0.46447 0.19662 0.0
H276 H 0.00482 0.52128 0.20125 0.0
H277 H 0.91611 0.31181 0.21871 0.0
H278 H 0.93726 0.29351 0.23831 0.0
H279 H 0.0326 0.38183 0.23394 0.0
H280 H 0.01112 0.39963 0.21413 0.0
H281 H 0.0071 0.37624 0.19031 0.0
H282 H 0.01266 0.34955 0.16909 0.0
H283 H 0.90646 0.2954 0.16441 0.0
H284 H 0.90131 0.32318 0.18547 0.0
H285 H 0.90656 0.37946 0.21399 0.0
H286 H 0.90752 0.4321 0.21311 0.0
H287 H 0.99826 0.47423 0.18894 0.0
N288 N 0.94919 0.36465 0.2026 0.0
H289 H 0.99796 0.42211 0.19063 0.0
C290 C 0.94694 0.59264 0.20913 0.0
C291 C 0.92011 0.59708 0.21216 0.0
C292 C 0.92062 0.61514 0.22406 0.0
C293 C 0.94815 0.62924 0.23316 0.0
C294 C 0.97465 0.6239 0.23035 0.0
C295 C 0.97408 0.60577 0.21844 0.0
C296 C 0.96181 0.59835 0.18406 0.0
C297 C 0.99514 0.62342 0.18414 0.0
C298 C 0.00749 0.64706 0.1733 0.0
C299 C 0.98675 0.64596 0.16224 0.0
C300 C 0.954 0.61961 0.16178 0.0
C301 C 0.94171 0.59612 0.17262 0.0
C302 C 0.94943 0.54754 0.19686 0.0
C303 C 0.92043 0.51688 0.19627 0.0
C304 C 0.92155 0.48774 0.19738 0.0
C305 C 0.95185 0.48865 0.19927 0.0
C306 C 0.98107 0.51957 0.1997 0.0
C307 C 0.9799 0.54878 0.19841 0.0
C308 C 0.96194 0.35689 0.21501 0.0
C309 C 0.9414 0.32739 0.22216 0.0
C310 C 0.95354 0.31712 0.23339 0.0
C311 C 0.98664 0.33627 0.23773 0.0
C312 C 0.00708 0.36641 0.23077 0.0
C313 C 0.99481 0.37669 0.21951 0.0
C314 C 0.95365 0.35166 0.18944 0.0
C315 C 0.98505 0.35909 0.1846 0.0
C316 C 0.98818 0.34356 0.1725 0.0
C317 C 0.96 0.32015 0.16508 0.0
C318 C 0.92871 0.31359 0.16974 0.0
C319 C 0.92565 0.32927 0.18179 0.0
C320 C 0.95173 0.39661 0.20222 0.0
C321 C 0.92672 0.40021 0.2086 0.0
C322 C 0.92722 0.43024 0.20796 0.0
C323 C 0.95268 0.45737 0.20073 0.0
C324 C 0.97834 0.45399 0.19466 0.0
C325 C 0.97803 0.42397 0.19549 0.0
H326 H 0.69699 0.09767 0.53905 0.0
N327 N 0.63729 0.0553 0.52943 0.0
H328 H 0.72625 0.09017 0.55895 0.0
H329 H 0.61133 0.0033 0.54796 0.0
H330 H 0.64062 0.99511 0.56775 0.0
H331 H 0.62408 0.9924 0.52373 0.0
H332 H 0.64492 0.97554 0.50356 0.0
H333 H 0.66626 0.0905 0.50635 0.0
H334 H 0.68649 0.0736 0.48584 0.0
H335 H 0.62544 0.10091 0.53971 0.0
H336 H 0.5765 0.00155 0.52333 0.0
H337 H 0.57224 0.09792 0.54269 0.0
H338 H 0.5233 0.99896 0.52537 0.0
H339 H 0.4195 0.08115 0.5612 0.0
H340 H 0.37899 0.06017 0.58047 0.0
H341 H 0.33437 0.96237 0.56222 0.0
H342 H 0.37441 0.98366 0.54294 0.0
H343 H 0.39462 0.99724 0.51954 0.0
H344 H 0.36012 0.99172 0.49888 0.0
H345 H 0.37493 0.08908 0.50707 0.0
H346 H 0.40854 0.09396 0.52789 0.0
H347 H 0.47919 0.09872 0.53157 0.0
H348 H 0.53126 0.09912 0.52914 0.0
H349 H 0.48208 0.9958 0.54075 0.0
N350 N 0.42078 0.04862 0.53837 0.0
H351 H 0.42982 0.99532 0.54226 0.0
C352 C 0.65221 0.05112 0.54204 0.0
C353 C 0.68448 0.07547 0.54542 0.0
C354 C 0.70117 0.07098 0.5567 0.0
C355 C 0.68587 0.04186 0.56482 0.0
C356 C 0.65299 0.01788 0.56174 0.0
C357 C 0.63628 0.02244 0.55041 0.0
C358 C 0.644 0.04294 0.51659 0.0
C359 C 0.63717 0.01013 0.5154 0.0
C360 C 0.64895 0.00044 0.50379 0.0
C361 C 0.66772 0.02335 0.49317 0.0
C362 C 0.67263 0.05553 0.49397 0.0
C363 C 0.6609 0.06519 0.50559 0.0
C364 C 0.60511 0.05185 0.53109 0.0
C365 C 0.60314 0.07856 0.53663 0.0
C366 C 0.57269 0.07685 0.53819 0.0
C367 C 0.54334 0.0484 0.53403 0.0
C368 C 0.54528 0.02122 0.52877 0.0
C369 C 0.57585 0.02279 0.52744 0.0
C370 C 0.40003 0.03417 0.55063 0.0
C371 C 0.40139 0.05507 0.56157 0.0
C372 C 0.37829 0.04298 0.57258 0.0
C373 C 0.35329 0.00961 0.57282 0.0
C374 C 0.35303 0.98829 0.56222 0.0
C375 C 0.37613 0.00044 0.55121 0.0
C376 C 0.40367 0.04592 0.52531 0.0
C377 C 0.39044 0.01735 0.51685 0.0
C378 C 0.37086 0.01426 0.50507 0.0
C379 C 0.36487 0.03996 0.50143 0.0
C380 C 0.3794 0.06903 0.50956 0.0
C381 C 0.39846 0.07184 0.52144 0.0
C382 C 0.45079 0.04731 0.5373 0.0
C383 C 0.47977 0.07621 0.53357 0.0
C384 C 0.50954 0.07638 0.53231 0.0
C385 C 0.51114 0.0476 0.53497 0.0
C386 C 0.48184 0.01839 0.53853 0.0
C387 C 0.45186 0.01815 0.53956 0.0
H388 H 0.60983 0.6314 0.87633 0.0
N389 N 0.61563 0.57711 0.87046 0.0
H390 H 0.63925 0.67238 0.8948 0.0
H391 H 0.65234 0.57368 0.89122 0.0
H392 H 0.68098 0.61397 0.91016 0.0
H393 H 0.6692 0.57897 0.85986 0.0
H394 H 0.70319 0.61233 0.83997 0.0
H395 H 0.60057 0.61339 0.85221 0.0
H396 H 0.63395 0.64628 0.83217 0.0
H397 H 0.56862 0.56949 0.89046 0.0
H398 H 0.5802 0.53684 0.84892 0.0
H399 H 0.50962 0.53413 0.88872 0.0
H400 H 0.52062 0.50193 0.84714 0.0
H401 H 0.31661 0.41398 0.88279 0.0
H402 H 0.29217 0.37596 0.90283 0.0
H403 H 0.3745 0.3584 0.90261 0.0
H404 H 0.3982 0.39548 0.88252 0.0
H405 H 0.3592 0.36483 0.86093 0.0
H406 H 0.32708 0.33136 0.84112 0.0
H407 H 0.3158 0.41238 0.82573 0.0
H408 H 0.34614 0.44503 0.84646 0.0
H409 H 0.40173 0.48892 0.87659 0.0
H410 H 0.46133 0.52753 0.87644 0.0
H411 H 0.47697 0.45229 0.85745 0.0
N412 N 0.37005 0.42652 0.86803 0.0
H413 H 0.41761 0.4144 0.85731 0.0
C414 C 0.62919 0.59956 0.88234 0.0
C415 C 0.62524 0.62738 0.88368 0.0
C416 C 0.64184 0.65064 0.89436 0.0
C417 C 0.66269 0.6466 0.90391 0.0
C418 C 0.66556 0.61812 0.90284 0.0
C419 C 0.64903 0.59493 0.89213 0.0
C420 C 0.63249 0.59368 0.85754 0.0
C421 C 0.66118 0.59323 0.85368 0.0
C422 C 0.68046 0.61222 0.8423 0.0
C423 C 0.67136 0.63212 0.83453 0.0
C424 C 0.64191 0.63163 0.83808 0.0
C425 C 0.6227 0.6127 0.8495 0.0
C426 C 0.57973 0.55781 0.86942 0.0
C427 C 0.55887 0.55579 0.88071 0.0
C428 C 0.52469 0.53527 0.87977 0.0
C429 C 0.51027 0.51559 0.8677 0.0
C430 C 0.53088 0.51682 0.85659 0.0
C431 C 0.56508 0.53724 0.85754 0.0
C432 C 0.35918 0.4078 0.88109 0.0
C433 C 0.32963 0.40238 0.88727 0.0
C434 C 0.31579 0.38074 0.89873 0.0
C435 C 0.33132 0.364 0.90425 0.0
C436 C 0.36172 0.37057 0.89848 0.0
C437 C 0.3755 0.39215 0.88702 0.0
C438 C 0.35447 0.40738 0.85541 0.0
C439 C 0.34979 0.37551 0.85338 0.0
C440 C 0.33166 0.3564 0.84182 0.0
C441 C 0.31844 0.36889 0.83175 0.0
C442 C 0.32477 0.40149 0.83341 0.0
C443 C 0.3424 0.42038 0.84517 0.0
C444 C 0.40514 0.44891 0.86696 0.0
C445 C 0.4181 0.481 0.87227 0.0
C446 C 0.45213 0.50288 0.87226 0.0
C447 C 0.47396 0.49297 0.86698 0.0
C448 C 0.46087 0.46091 0.86141 0.0
C449 C 0.42683 0.43911 0.86137 0.0
H450 H 0.9664 0.09162 0.09811 0.0
H451 H 0.96116 0.13285 0.11202 0.0
H452 H 0.9731 0.18917 0.07401 0.0
H453 H 0.97764 0.14766 0.0599 0.0
H454 H 0.01472 0.22609 0.09744 0.0
H455 H 0.88287 0.15109 0.11284 0.0
H456 H 0.90683 0.13138 0.11606 0.0
H457 H 0.90042 0.14022 0.09814 0.0
C458 C 0.96728 0.11242 0.09264 0.0
C459 C 0.97234 0.11625 0.07787 0.0
C460 C 0.96436 0.13599 0.10062 0.0
C461 C 0.9664 0.16381 0.094 0.0
C462 C 0.97139 0.16778 0.07929 0.0
H463 H 0.92483 0.3015 0.14014 0.0
H464 H 0.92696 0.26616 0.12145 0.0
C465 C 0.97416 0.14413 0.07127 0.0
C466 C 0.96472 0.18938 0.1026 0.0
H467 H 0.91531 0.20122 0.12564 0.0
C468 C 0.99289 0.22083 0.10349 0.0
C469 C 0.93607 0.18249 0.11033 0.0
C470 C 0.90469 0.14956 0.10923 0.0
C471 C 0.99361 0.24523 0.11241 0.0
C472 C 0.96552 0.23776 0.12069 0.0
C473 C 0.93689 0.20677 0.11934 0.0
C474 C 0.96584 0.26104 0.13141 0.0
C475 C 0.02448 0.27867 0.11298 0.0
C476 C 0.98697 0.26975 0.14318 0.0
C477 C 0.98562 0.28963 0.15391 0.0
C478 C 0.96303 0.30113 0.1531 0.0
C479 C 0.94226 0.29278 0.14116 0.0
C480 C 0.94356 0.27277 0.13044 0.0
H481 H 0.03996 0.28342 0.10336 0.0
H482 H 0.01832 0.29863 0.11405 0.0
H483 H 0.03936 0.27973 0.12236 0.0
H484 H 0.00383 0.26034 0.14427 0.0
H485 H 0.00149 0.29498 0.16308 0.0
H486 H 0.89114 0.02888 0.41985 0.0
H487 H 0.84795 0.02745 0.43487 0.0
H488 H 0.77865 0.93053 0.41899 0.0
H489 H 0.82183 0.93202 0.4036 0.0
H490 H 0.75494 0.97704 0.41962 0.0
H491 H 0.80932 0.97074 0.471 0.0
H492 H 0.83829 0.0031 0.45962 0.0
H493 H 0.82112 0.96071 0.45427 0.0
C494 C 0.86668 0.00731 0.41947 0.0
C495 C 0.85986 0.98057 0.41052 0.0
C496 C 0.84213 0.0064 0.42817 0.0
C497 C 0.8103 0.97871 0.42817 0.0
C498 C 0.80319 0.95201 0.41919 0.0
H499 H 0.64392 0.96557 0.47797 0.0
H500 H 0.6749 0.95028 0.46156 0.0
C501 C 0.82787 0.95283 0.41049 0.0
C502 C 0.78457 0.97842 0.4374 0.0
H503 H 0.76936 0.98857 0.47192 0.0
C504 C 0.75763 0.97891 0.43108 0.0
C505 C 0.78816 0.98066 0.45233 0.0
C506 C 0.81561 0.97845 0.45974 0.0
C507 C 0.73528 0.98372 0.43929 0.0
C508 C 0.74004 0.98784 0.45414 0.0
C509 C 0.766 0.98566 0.4605 0.0
C510 C 0.72021 0.9972 0.46319 0.0
C511 C 0.7078 0.98609 0.43203 0.0
C512 C 0.73548 0.02857 0.46946 0.0
C513 C 0.71803 0.03729 0.47882 0.0
C514 C 0.6849 0.01473 0.48216 0.0
C515 C 0.66943 0.98343 0.47565 0.0
C516 C 0.68698 0.97473 0.46622 0.0
H517 H 0.70974 0.98605 0.42027 0.0
H518 H 0.68369 0.96479 0.43523 0.0
H519 H 0.70801 0.00897 0.43538 0.0
H520 H 0.76119 0.04615 0.4673 0.0
H521 H 0.73091 0.06133 0.48384 0.0
H522 H 0.8693 0.88123 0.76097 0.0
H523 H 0.82839 0.8366 0.77577 0.0
H524 H 0.85644 0.7695 0.75767 0.0
H525 H 0.89826 0.81432 0.74313 0.0
H526 H 0.77483 0.77661 0.76643 0.0
H527 H 0.86007 0.75632 0.80061 0.0
H528 H 0.87391 0.79296 0.78992 0.0
H529 H 0.86594 0.75489 0.78182 0.0
C530 C 0.86722 0.85714 0.76031 0.0
C531 C 0.88722 0.85139 0.75094 0.0
C532 C 0.84363 0.83161 0.76869 0.0
C533 C 0.83965 0.79988 0.76791 0.0
C534 C 0.85949 0.79396 0.75858 0.0
H535 H 0.70646 0.61995 0.81443 0.0
H536 H 0.74596 0.65897 0.7972 0.0
C537 C 0.88314 0.81951 0.75018 0.0
C538 C 0.81406 0.77288 0.77664 0.0
H539 H 0.80294 0.7196 0.80365 0.0
C540 C 0.78094 0.76409 0.77456 0.0
C541 C 0.82216 0.75653 0.78716 0.0
C542 C 0.85745 0.76574 0.79014 0.0
C543 C 0.75563 0.73941 0.78279 0.0
C544 C 0.76379 0.72353 0.7935 0.0
C545 C 0.79682 0.73183 0.79539 0.0
C546 C 0.73864 0.69941 0.80335 0.0
C547 C 0.72037 0.73044 0.77989 0.0
C548 C 0.72161 0.70933 0.81253 0.0
C549 C 0.69922 0.68723 0.82241 0.0
C550 C 0.69354 0.65478 0.82335 0.0
C551 C 0.71047 0.64483 0.81404 0.0
C552 C 0.73292 0.66702 0.80416 0.0
H553 H 0.7174 0.73784 0.76902 0.0
H554 H 0.70335 0.70349 0.78116 0.0
H555 H 0.71297 0.74353 0.78759 0.0
H556 H 0.72626 0.73446 0.8123 0.0
H557 H 0.68717 0.69593 0.82961 0.0
H558 H 0.98826 0.86426 0.08911 0.0
H559 H 0.99155 0.8246 0.10487 0.0
H560 H 0.08839 0.85314 0.08861 0.0
H561 H 0.08508 0.89289 0.07254 0.0
H562 H 0.0422 0.78247 0.08993 0.0
H563 H 0.04989 0.84546 0.14077 0.0
H564 H 0.01726 0.84167 0.12946 0.0
H565 H 0.05951 0.86652 0.12386 0.0
C566 C 0.01024 0.86207 0.08884 0.0
C567 C 0.03637 0.88157 0.07955 0.0
C568 C 0.01222 0.83964 0.09795 0.0
C569 C 0.04038 0.8363 0.09802 0.0
C570 C 0.06657 0.85562 0.08876 0.0
H571 H 0.04675 0.67966 0.1486 0.0
H572 H 0.06577 0.72759 0.13277 0.0
C573 C 0.0647 0.87833 0.07966 0.0
C574 C 0.04137 0.81156 0.10747 0.0
H575 H 0.03087 0.78727 0.14215 0.0
C576 C 0.04052 0.78376 0.10138 0.0
C577 C 0.03934 0.8135 0.12239 0.0
C578 C 0.04188 0.84356 0.12953 0.0
C579 C 0.03523 0.75671 0.10978 0.0
C580 C 0.03103 0.75783 0.1246 0.0
C581 C 0.03391 0.78646 0.13076 0.0
C582 C 0.01997 0.72841 0.13371 0.0
C583 C 0.03213 0.72632 0.10273 0.0
C584 C 0.98809 0.71328 0.13946 0.0
C585 C 0.97726 0.68617 0.14847 0.0
C586 C 0.99814 0.67365 0.15197 0.0
C587 C 0.03013 0.6888 0.14613 0.0
C588 C 0.04095 0.71599 0.13703 0.0
H589 H 0.03296 0.72827 0.09096 0.0
H590 H 0.05264 0.72257 0.1063 0.0
H591 H 0.0086 0.70418 0.1059 0.0
H592 H 0.97163 0.72266 0.13706 0.0
H593 H 0.95275 0.67556 0.153 0.0
H594 H 0.17247 0.01717 0.39731 0.0
H595 H 0.2159 0.02043 0.41275 0.0
H596 H 0.16566 0.02984 0.44931 0.0
H597 H 0.12317 0.02873 0.43388 0.0
H598 H 0.22992 0.07236 0.45067 0.0
H599 H 0.21109 0.94855 0.4377 0.0
H600 H 0.21968 0.97421 0.42231 0.0
H601 H 0.18243 0.96166 0.43229 0.0
C602 C 0.17081 0.02038 0.40861 0.0
C603 C 0.14417 0.0226 0.41433 0.0
C604 C 0.19543 0.02168 0.41745 0.0
C605 C 0.19365 0.0246 0.43222 0.0
C606 C 0.16736 0.02723 0.43795 0.0
H607 H 0.30299 0.9881 0.49699 0.0
H608 H 0.2623 0.98442 0.47962 0.0
C609 C 0.14292 0.02631 0.42912 0.0
C610 C 0.21959 0.02581 0.44169 0.0
H611 H 0.259 0.98388 0.45122 0.0
C612 C 0.23622 0.05296 0.45082 0.0
C613 C 0.22745 0.00025 0.44201 0.0
C614 C 0.209 0.96937 0.43316 0.0
C615 C 0.2606 0.05539 0.46023 0.0
C616 C 0.26938 0.03048 0.46016 0.0
C617 C 0.25259 0.00319 0.4511 0.0
C618 C 0.29498 0.03167 0.46984 0.0
C619 C 0.27595 0.08416 0.47042 0.0
C620 C 0.32717 0.05891 0.4698 0.0
C621 C 0.35029 0.0612 0.4798 0.0
C622 C 0.34182 0.03592 0.48981 0.0
C623 C 0.31019 0.00782 0.48933 0.0
C624 C 0.28693 0.00576 0.47945 0.0
H625 H 0.26011 0.09541 0.4719 0.0
H626 H 0.28036 0.07647 0.48097 0.0
H627 H 0.29999 0.10349 0.4661 0.0
H628 H 0.33423 0.07872 0.4622 0.0
H629 H 0.37467 0.08292 0.47985 0.0
H630 H 0.13108 0.18009 0.72885 0.0
H631 H 0.16977 0.22664 0.74367 0.0
H632 H 0.13692 0.16339 0.7806 0.0
H633 H 0.0969 0.11755 0.76589 0.0
H634 H 0.14455 0.2199 0.78739 0.0
H635 H 0.25631 0.2429 0.75773 0.0
H636 H 0.22757 0.24738 0.7467 0.0
H637 H 0.21628 0.20766 0.75421 0.0
C638 C 0.13214 0.17639 0.74016 0.0
C639 C 0.11126 0.14547 0.74631 0.0
C640 C 0.15443 0.20281 0.74859 0.0
C641 C 0.15696 0.19837 0.76321 0.0
C642 C 0.13559 0.16746 0.76935 0.0
H643 H 0.32283 0.32007 0.81726 0.0
H644 H 0.28321 0.28019 0.80059 0.0
C645 C 0.11276 0.14131 0.76098 0.0
C646 C 0.18157 0.22579 0.77222 0.0
H647 H 0.26366 0.28235 0.77533 0.0
C648 C 0.17062 0.23347 0.78477 0.0
C649 C 0.21571 0.24325 0.76892 0.0
C650 C 0.22972 0.23466 0.75624 0.0
C651 C 0.19274 0.25774 0.79418 0.0
C652 C 0.22669 0.27608 0.79061 0.0
C653 C 0.23761 0.26863 0.77799 0.0
C654 C 0.25157 0.30169 0.80021 0.0
C655 C 0.17951 0.26236 0.8081 0.0
C656 C 0.24764 0.32773 0.8053 0.0
C657 C 0.26968 0.34997 0.81528 0.0
C658 C 0.29677 0.34728 0.82008 0.0
C659 C 0.30178 0.32243 0.81422 0.0
C660 C 0.2793 0.29976 0.80451 0.0
H661 H 0.15575 0.24012 0.81099 0.0
H662 H 0.19731 0.26771 0.81689 0.0
H663 H 0.17487 0.28334 0.80712 0.0
H664 H 0.22711 0.33049 0.80179 0.0
H665 H 0.26472 0.36855 0.81954 0.0
H666 H 0.90883 0.03463 0.63786 0.0
H667 H 0.86839 0.03743 0.62233 0.0
H668 H 0.79455 0.99353 0.65514 0.0
H669 H 0.83512 0.99136 0.67091 0.0
H670 H 0.80683 0.98253 0.61346 0.0
H671 H 0.79056 0.07664 0.64291 0.0
H672 H 0.82551 0.07083 0.64579 0.0
H673 H 0.7859 0.04199 0.65306 0.0
C674 C 0.88414 0.02605 0.64187 0.0
C675 C 0.87522 0.01291 0.65564 0.0
C676 C 0.86102 0.02746 0.63295 0.0
C677 C 0.82863 0.01598 0.63765 0.0
C678 C 0.81957 0.00292 0.65139 0.0
H679 H 0.66533 0.01601 0.59153 0.0
H680 H 0.69732 0.0065 0.60972 0.0
C681 C 0.84269 0.00142 0.66032 0.0
C682 C 0.8042 0.01679 0.62792 0.0
H683 H 0.7581 0.05383 0.62236 0.0
C684 C 0.79606 0.998 0.61542 0.0
C685 C 0.79 0.03678 0.63061 0.0
C686 C 0.7985 0.05794 0.64376 0.0
C687 C 0.77442 0.99903 0.60539 0.0
C688 C 0.76112 0.01989 0.60783 0.0
C689 C 0.76842 0.03791 0.62054 0.0
C690 C 0.74141 0.02501 0.59688 0.0
C691 C 0.76605 0.97783 0.59226 0.0
C692 C 0.75578 0.03887 0.58375 0.0
C693 C 0.73767 0.04422 0.57338 0.0
C694 C 0.70483 0.03604 0.57597 0.0
C695 C 0.69047 0.02227 0.58918 0.0
C696 C 0.70872 0.01698 0.59959 0.0
H697 H 0.77007 0.95658 0.59393 0.0
H698 H 0.73999 0.96828 0.58902 0.0
H699 H 0.78225 0.99288 0.5834 0.0
H700 H 0.78115 0.04574 0.58153 0.0
H701 H 0.74932 0.05449 0.56327 0.0
H702 H 0.86087 0.83628 0.99853 0.0
H703 H 0.81915 0.7946 0.98292 0.0
H704 H 0.80944 0.87028 0.96099 0.0
H705 H 0.85138 0.91231 0.97659 0.0
H706 H 0.75388 0.77684 0.97769 0.0
H707 H 0.83078 0.8248 0.929 0.0
H708 H 0.84748 0.83817 0.94659 0.0
H709 H 0.82374 0.8542 0.93835 0.0
C710 C 0.84958 0.84406 0.99051 0.0
C711 C 0.85949 0.87762 0.98877 0.0
C712 C 0.82582 0.82021 0.98157 0.0
C713 C 0.81154 0.8294 0.97069 0.0
C714 C 0.82066 0.86276 0.96915 0.0
H715 H 0.64413 0.68364 0.91999 0.0
H716 H 0.6786 0.72884 0.93624 0.0
C717 C 0.84458 0.88671 0.97806 0.0
C718 C 0.78776 0.80396 0.96081 0.0
H719 H 0.77726 0.77908 0.92618 0.0
C720 C 0.75884 0.77737 0.96641 0.0
C721 C 0.79455 0.80461 0.94614 0.0
C722 C 0.82593 0.83179 0.93963 0.0
C723 C 0.73667 0.75117 0.95774 0.0
C724 C 0.74343 0.75191 0.94306 0.0
C725 C 0.77211 0.77871 0.93744 0.0
C726 C 0.72209 0.7243 0.93344 0.0
C727 C 0.70687 0.72239 0.96445 0.0
C728 C 0.73527 0.70718 0.92631 0.0
C729 C 0.71583 0.68169 0.91691 0.0
C730 C 0.68274 0.6728 0.91441 0.0
C731 C 0.66955 0.68997 0.92162 0.0
C732 C 0.6891 0.71558 0.93101 0.0
H733 H 0.70926 0.72211 0.97618 0.0
H734 H 0.68462 0.72421 0.96202 0.0
H735 H 0.70294 0.6986 0.96012 0.0
H736 H 0.76074 0.71367 0.92797 0.0
H737 H 0.72699 0.66947 0.91134 0.0
H738 H 0.92187 0.81993 0.32626 0.0
H739 H 0.91438 0.77292 0.31194 0.0
H740 H 0.01542 0.82919 0.2978 0.0
H741 H 0.02304 0.87628 0.31192 0.0
H742 H 0.92254 0.77118 0.28243 0.0
H743 H 0.00802 0.74262 0.3118 0.0
H744 H 0.99288 0.76824 0.31912 0.0
H745 H 0.02635 0.78511 0.30657 0.0
C746 C 0.94245 0.82232 0.32006 0.0
C747 C 0.97311 0.85179 0.32029 0.0
C748 C 0.93818 0.7954 0.31196 0.0
C749 C 0.96453 0.79741 0.30404 0.0
C750 C 0.99503 0.82685 0.30414 0.0
H751 H 0.00113 0.68809 0.24112 0.0
H752 H 0.00309 0.7262 0.25935 0.0
C753 C 0.99932 0.85375 0.31221 0.0
C754 C 0.95988 0.76935 0.29513 0.0
H755 H 0.99043 0.71777 0.28892 0.0
C756 C 0.93703 0.75915 0.28394 0.0
C757 C 0.97887 0.7538 0.29715 0.0
C758 C 0.00269 0.76275 0.30939 0.0
C759 C 0.93365 0.73471 0.27433 0.0
C760 C 0.95324 0.71974 0.27615 0.0
C761 C 0.9755 0.72936 0.28756 0.0
C762 C 0.95227 0.69534 0.26588 0.0
C763 C 0.91015 0.72611 0.26198 0.0
C764 C 0.92326 0.665 0.26377 0.0
C765 C 0.92207 0.64309 0.25337 0.0
C766 C 0.94998 0.65108 0.24499 0.0
C767 C 0.97933 0.68102 0.2475 0.0
C768 C 0.98045 0.7029 0.25786 0.0
H769 H 0.90229 0.74472 0.26042 0.0
H770 H 0.92166 0.72408 0.252 0.0
H771 H 0.88775 0.70188 0.26401 0.0
H772 H 0.90144 0.65845 0.27005 0.0
H773 H 0.89927 0.61999 0.25184 0.0
H774 H 0.15819 0.99406 0.67081 0.0
H775 H 0.20066 0.99432 0.65556 0.0
H776 H 0.12728 0.94029 0.62349 0.0
H777 H 0.08464 0.94011 0.63865 0.0
H778 H 0.20766 0.94392 0.64313 0.0
H779 H 0.19497 0.02279 0.60236 0.0
H780 H 0.17664 0.01645 0.61976 0.0
H781 H 0.15735 0.98529 0.60628 0.0
C782 C 0.15101 0.98185 0.66059 0.0
C783 C 0.11813 0.96727 0.65587 0.0
C784 C 0.17532 0.9821 0.65188 0.0
C785 C 0.16719 0.96782 0.63832 0.0
C786 C 0.13417 0.9521 0.6338 0.0
H787 H 0.28741 0.96922 0.56795 0.0
H788 H 0.24183 0.95494 0.58438 0.0
C789 C 0.10987 0.952 0.64246 0.0
C790 C 0.19352 0.97049 0.62874 0.0
H791 H 0.23136 0.00305 0.59707 0.0
C792 C 0.21286 0.9568 0.63305 0.0
C793 C 0.2003 0.98746 0.61563 0.0
C794 C 0.18146 0.00412 0.61075 0.0
C795 C 0.23867 0.95937 0.62451 0.0
C796 C 0.24543 0.97639 0.61143 0.0
C797 C 0.22594 0.98984 0.60708 0.0
C798 C 0.27318 0.98151 0.60217 0.0
C799 C 0.25826 0.94361 0.62945 0.0
C800 C 0.30593 0.00085 0.60681 0.0
C801 C 0.33211 0.00894 0.59746 0.0
C802 C 0.32595 0.99793 0.58329 0.0
C803 C 0.29307 0.97768 0.57884 0.0
C804 C 0.26696 0.96966 0.58818 0.0
H805 H 0.24487 0.92461 0.63774 0.0
H806 H 0.26397 0.93198 0.62043 0.0
H807 H 0.28197 0.96288 0.63407 0.0
H808 H 0.31124 0.01071 0.61751 0.0
H809 H 0.35715 0.02441 0.60123 0.0
H810 H 0.10813 0.14403 0.98003 0.0
H811 H 0.14916 0.18796 0.96496 0.0
H812 H 0.22171 0.1614 0.97717 0.0
H813 H 0.18076 0.11745 0.99248 0.0
H814 H 0.24247 0.23243 0.9784 0.0
H815 H 0.18617 0.17265 0.92693 0.0
H816 H 0.158 0.17396 0.93954 0.0
H817 H 0.17727 0.14989 0.94339 0.0
C818 C 0.13286 0.14763 0.97957 0.0
C819 C 0.14127 0.12733 0.98744 0.0
C820 C 0.15616 0.17255 0.97089 0.0
C821 C 0.18828 0.17764 0.96989 0.0
C822 C 0.19694 0.15766 0.97778 0.0
H823 H 0.3266 0.30346 0.90514 0.0
H824 H 0.29562 0.25878 0.92202 0.0
C825 C 0.17352 0.13251 0.98643 0.0
C826 C 0.21273 0.20412 0.96065 0.0
H827 H 0.22776 0.22925 0.92611 0.0
C828 C 0.23952 0.2317 0.96695 0.0
C829 C 0.20886 0.20281 0.94574 0.0
C830 C 0.1812 0.17314 0.93844 0.0
C831 C 0.26204 0.25863 0.9587 0.0
C832 C 0.25733 0.25791 0.94384 0.0
C833 C 0.23115 0.22982 0.93753 0.0
C834 C 0.27877 0.28621 0.93459 0.0
C835 C 0.29064 0.28759 0.96593 0.0
C836 C 0.27971 0.31651 0.93613 0.0
C837 C 0.29755 0.34221 0.92653 0.0
C838 C 0.31466 0.33796 0.9152 0.0
C839 C 0.31416 0.30775 0.91388 0.0
C840 C 0.2963 0.2821 0.92346 0.0
H841 H 0.2957 0.28078 0.97657 0.0
H842 H 0.31338 0.29748 0.95939 0.0
H843 H 0.28465 0.30756 0.96739 0.0
H844 H 0.26586 0.31997 0.94451 0.0
H845 H 0.29759 0.36523 0.92787 0.0
H846 H 0.08143 0.184 0.32684 0.0
H847 H 0.08292 0.22841 0.31241 0.0
H848 H 0.9886 0.15923 0.29415 0.0
H849 H 0.98689 0.11495 0.30848 0.0
H850 H 0.03517 0.19927 0.27414 0.0
H851 H 0.02723 0.27293 0.3188 0.0
H852 H 0.06027 0.26386 0.31973 0.0
H853 H 0.01825 0.2309 0.321 0.0
C854 C 0.06096 0.17835 0.3198 0.0
C855 C 0.03408 0.14594 0.31877 0.0
C856 C 0.06183 0.20373 0.31159 0.0
C857 C 0.0357 0.19714 0.30233 0.0
C858 C 0.00904 0.16481 0.30122 0.0
H859 H 0.95692 0.30468 0.26247 0.0
H860 H 0.97457 0.27545 0.27852 0.0
C861 C 0.00819 0.13949 0.30936 0.0
C862 C 0.0358 0.22357 0.29363 0.0
H863 H 0.0293 0.29301 0.29566 0.0
C864 C 0.03426 0.22 0.27881 0.0
C865 C 0.03439 0.25041 0.29981 0.0
C866 C 0.03486 0.2548 0.31571 0.0
C867 C 0.03025 0.24191 0.26999 0.0
C868 C 0.02847 0.26857 0.27617 0.0
C869 C 0.03099 0.27273 0.29097 0.0
C870 C 0.0205 0.29016 0.26753 0.0
C871 C 0.02623 0.23526 0.25421 0.0
C872 C 0.04107 0.30915 0.25634 0.0
C873 C 0.03081 0.32554 0.24701 0.0
C874 C -7e-05 0.32341 0.2488 0.0
C875 C 0.98051 0.30623 0.26062 0.0
C876 C 0.99069 0.28975 0.26988 0.0
H877 H 0.02142 0.21007 0.25158 0.0
H878 H 0.0056 0.23805 0.24997 0.0
H879 H 0.04922 0.25332 0.24869 0.0
H880 H 0.06447 0.31029 0.25451 0.0
H881 H 0.04634 0.33848 0.23801 0.0
loop_
_geom_bond_atom_site_label_1
_geom_bond_atom_site_label_2
_geom_bond_distance
_geom_bond_site_symmetry_2
_ccdc_geom_bond_type
Li0 N17 1.990 . S
Li0 O60 1.956 . S
Li0 O61 1.970 1_455 S
Li0 O62 1.961 1_545 S
Li1 N25 1.990 . S
Li1 O60 1.970 1_655 S
Li1 O61 1.956 . S
Li1 O63 1.961 1_545 S
Li2 N47 1.990 . S
Li2 O60 1.961 1_565 S
Li2 O62 1.956 . S
Li2 O63 1.970 1_455 S
Li3 N53 1.990 . S
Li3 O61 1.961 1_565 S
Li3 O62 1.970 1_655 S
Li3 O63 1.956 . S
C4 C6 1.348 . S
C4 C7 1.356 . S
C4 O60 1.325 . S
N5 C8 1.314 . S
N5 C9 1.279 . S
C6 C4 1.348 . S
C6 C8 1.353 . S
C6 H64 0.929 . S
C7 C4 1.356 . S
C7 C9 1.358 . S
C7 H65 0.930 . S
C8 N5 1.314 . S
C8 C6 1.353 . S
C8 H66 0.930 . S
C9 N5 1.279 . S
C9 C7 1.358 . S
C9 H67 0.930 . S
C10 C13 1.348 1_655 S
C10 C14 1.356 . S
C10 O61 1.325 . S
C11 N12 1.275 1_554 S
C11 C14 1.358 . S
C11 H68 0.930 . S
N12 C11 1.275 1_556 S
N12 C15 1.313 1_556 S
C13 C10 1.348 1_455 S
C13 C15 1.353 1_455 S
C13 H69 0.929 . S
C14 C10 1.356 . S
C14 C11 1.358 . S
C14 H70 0.930 . S
C15 N12 1.313 1_554 S
C15 C13 1.353 1_655 S
C15 H71 0.930 1_654 S
C16 N17 1.319 1_556 S
C16 C21 1.350 . S
C16 H22 0.928 . S
N17 Li0 1.990 . S
N17 C16 1.319 1_554 S
N17 C19 1.279 . S
C18 C19 1.358 . S
C18 C20 1.356 1_554 S
C18 H72 0.930 . S
C19 N17 1.279 . S
C19 C18 1.358 . S
C19 H23 0.930 . S
C20 C18 1.356 1_556 S
C20 C21 1.348 . S
C21 C16 1.350 . S
C21 C20 1.348 . S
C21 H73 0.929 . S
H22 C16 0.928 . S
H23 C19 0.930 . S
C24 N25 1.314 . S
C24 C26 1.353 . S
C24 H30 0.930 . S
N25 Li1 1.990 . S
N25 C24 1.314 . S
N25 C28 1.279 . S
C26 C24 1.353 . S
C26 C29 1.348 . S
C26 H74 0.929 . S
C27 C28 1.358 . S
C27 C29 1.356 . S
C27 H75 0.930 . S
C28 N25 1.279 . S
C28 C27 1.358 . S
C28 H31 0.930 . S
C29 C26 1.348 . S
C29 C27 1.356 . S
H30 C24 0.930 . S
H31 C28 0.930 . S
C32 C34 1.348 1_455 S
C32 C35 1.356 . S
C32 O62 1.325 . S
N33 C36 1.313 1_556 S
N33 C37 1.275 1_556 S
C34 C32 1.348 1_655 S
C34 C36 1.353 1_655 S
C34 H76 0.929 . S
C35 C32 1.356 . S
C35 C37 1.358 . S
C35 H77 0.930 . S
C36 N33 1.313 1_554 S
C36 C34 1.353 1_455 S
C36 H78 0.930 1_454 S
C37 N33 1.275 1_554 S
C37 C35 1.358 . S
C37 H79 0.930 . S
C38 C39 1.348 . S
C38 C40 1.356 . S
C38 O63 1.325 . S
C39 C38 1.348 . S
C39 C41 1.353 . S
C39 H80 0.929 . S
C40 C38 1.356 . S
C40 C42 1.358 . S
C40 H81 0.930 . S
C41 C39 1.353 . S
C41 N43 1.314 . S
C41 H82 0.930 . S
C42 C40 1.358 . S
C42 N43 1.279 . S
C42 H83 0.930 . S
N43 C41 1.314 . S
N43 C42 1.279 . S
C44 C46 1.353 . S
C44 N47 1.314 . S
C44 H50 0.930 . S
C45 N47 1.279 . S
C45 C48 1.358 . S
C45 H51 0.930 . S
C46 C44 1.353 . S
C46 C49 1.348 . S
C46 H84 0.929 . S
N47 Li2 1.990 . S
N47 C44 1.314 . S
N47 C45 1.279 . S
C48 C45 1.358 . S
C48 C49 1.356 . S
C48 H85 0.930 . S
C49 C46 1.348 . S
C49 C48 1.356 . S
H50 C44 0.930 . S
H51 C45 0.930 . S
C52 N53 1.319 1_556 S
C52 C54 1.350 . S
C52 H58 0.928 . S
N53 Li3 1.990 . S
N53 C52 1.319 1_554 S
N53 C56 1.279 . S
C54 C52 1.350 . S
C54 C57 1.348 . S
C54 H86 0.929 . S
C55 C56 1.358 . S
C55 C57 1.356 1_554 S
C55 H87 0.930 . S
C56 N53 1.279 . S
C56 C55 1.358 . S
C56 H59 0.930 . S
C57 C54 1.348 . S
C57 C55 1.356 1_556 S
H58 C52 0.928 . S
H59 C56 0.930 . S
O60 Li0 1.956 . S
O60 Li1 1.970 1_455 S
O60 Li2 1.961 1_545 S
O60 C4 1.325 . S
O61 Li0 1.970 1_655 S
O61 Li1 1.956 . S
O61 Li3 1.961 1_545 S
O61 C10 1.325 . S
O62 Li0 1.961 1_565 S
O62 Li2 1.956 . S
O62 Li3 1.970 1_455 S
O62 C32 1.325 . S
O63 Li1 1.961 1_565 S
O63 Li2 1.970 1_655 S
O63 Li3 1.956 . S
O63 C38 1.325 . S
H64 C6 0.929 . S
H65 C7 0.930 . S
H66 C8 0.930 . S
H67 C9 0.930 . S
H68 C11 0.930 . S
H69 C13 0.929 . S
H70 C14 0.930 . S
H71 C15 0.930 1_456 S
H72 C18 0.930 . S
H73 C21 0.929 . S
H74 C26 0.929 . S
H75 C27 0.930 . S
H76 C34 0.929 . S
H77 C35 0.930 . S
H78 C36 0.930 1_656 S
H79 C37 0.930 . S
H80 C39 0.929 . S
H81 C40 0.930 . S
H82 C41 0.930 . S
H83 C42 0.930 . S
H84 C46 0.929 . S
H85 C48 0.930 . S
H86 C54 0.929 . S
H87 C55 0.930 . S
Li88 N105 1.990 . S
Li88 O148 1.956 . S
Li88 O149 1.970 1_665 S
Li88 O150 1.961 . S
Li89 N113 1.990 . S
Li89 O148 1.970 1_445 S
Li89 O149 1.956 . S
Li89 O151 1.961 . S
Li90 N135 1.990 . S
Li90 O148 1.961 . S
Li90 O150 1.956 . S
Li90 O151 1.970 1_665 S
Li91 N141 1.990 . S
Li91 O149 1.961 . S
Li91 O150 1.970 1_445 S
Li91 O151 1.956 . S
C92 C94 1.348 1_655 S
C92 C95 1.356 . S
C92 O148 1.325 . S
N93 C96 1.314 . S
N93 C97 1.279 . S
C94 C92 1.348 1_455 S
C94 C96 1.353 1_455 S
C94 H152 0.929 . S
C95 C92 1.356 . S
C95 C97 1.358 . S
C95 H153 0.930 . S
C96 N93 1.314 . S
C96 C94 1.353 1_655 S
C96 H154 0.930 1_655 S
C97 N93 1.279 . S
C97 C95 1.358 . S
C97 H155 0.930 . S
C98 C101 1.348 1_545 S
C98 C102 1.356 . S
C98 O149 1.325 . S
C99 N100 1.279 . S
C99 C102 1.358 . S
C99 H156 0.930 . S
N100 C99 1.279 . S
N100 C103 1.314 . S
C101 C98 1.348 1_565 S
C101 C103 1.353 1_565 S
C101 H157 0.929 . S
C102 C98 1.356 . S
C102 C99 1.358 . S
C102 H158 0.930 . S
C103 N100 1.314 . S
C103 C101 1.353 1_545 S
C103 H159 0.930 1_545 S
C104 N105 1.314 . S
C104 C109 1.353 . S
C104 H110 0.930 . S
N105 Li88 1.990 . S
N105 C104 1.314 . S
N105 C107 1.279 . S
C106 C107 1.358 . S
C106 C108 1.356 . S
C106 H160 0.930 . S
C107 N105 1.279 . S
C107 C106 1.358 . S
C107 H111 0.930 . S
C108 C106 1.356 . S
C108 C109 1.348 . S
C109 C104 1.353 . S
C109 C108 1.348 . S
C109 H161 0.929 . S
H110 C104 0.930 . S
H111 C107 0.930 . S
C112 N113 1.314 . S
C112 C114 1.353 . S
C112 H118 0.930 . S
N113 Li89 1.990 . S
N113 C112 1.314 . S
N113 C116 1.279 . S
C114 C112 1.353 . S
C114 C117 1.348 . S
C114 H162 0.929 . S
C115 C116 1.358 . S
C115 C117 1.356 . S
C115 H163 0.930 . S
C116 N113 1.279 . S
C116 C115 1.358 . S
C116 H119 0.930 . S
C117 C114 1.348 . S
C117 C115 1.356 . S
H118 C112 0.930 . S
H119 C116 0.930 . S
C120 C122 1.348 1_565 S
C120 C123 1.356 . S
C120 O150 1.325 . S
N121 C124 1.314 . S
N121 C125 1.279 . S
C122 C120 1.348 1_545 S
C122 C124 1.353 1_545 S
C122 H164 0.929 . S
C123 C120 1.356 . S
C123 C125 1.358 . S
C123 H165 0.930 . S
C124 N121 1.314 . S
C124 C122 1.353 1_565 S
C124 H166 0.930 1_565 S
C125 N121 1.279 . S
C125 C123 1.358 . S
C125 H167 0.930 . S
C126 C127 1.348 1_455 S
C126 C128 1.356 . S
C126 O151 1.325 . S
C127 C126 1.348 1_655 S
C127 C129 1.353 1_655 S
C127 H168 0.929 . S
C128 C126 1.356 . S
C128 C130 1.358 . S
C128 H169 0.930 . S
C129 C127 1.353 1_455 S
C129 N131 1.314 . S
C129 H170 0.930 1_455 S
C130 C128 1.358 . S
C130 N131 1.279 . S
C130 H171 0.930 . S
N131 C129 1.314 . S
N131 C130 1.279 . S
C132 C134 1.353 . S
C132 N135 1.314 . S
C132 H138 0.930 . S
C133 N135 1.279 . S
C133 C136 1.358 . S
C133 H139 0.930 . S
C134 C132 1.353 . S
C134 C137 1.348 . S
C134 H172 0.929 . S
N135 Li90 1.990 . S
N135 C132 1.314 . S
N135 C133 1.279 . S
C136 C133 1.358 . S
C136 C137 1.356 . S
C136 H173 0.930 . S
C137 C134 1.348 . S
C137 C136 1.356 . S
H138 C132 0.930 . S
H139 C133 0.930 . S
C140 N141 1.314 . S
C140 C142 1.353 . S
C140 H146 0.930 . S
N141 Li91 1.990 . S
N141 C140 1.314 . S
N141 C144 1.279 . S
C142 C140 1.353 . S
C142 C145 1.348 . S
C142 H174 0.929 . S
C143 C144 1.358 . S
C143 C145 1.356 . S
C143 H175 0.930 . S
C144 N141 1.279 . S
C144 C143 1.358 . S
C144 H147 0.930 . S
C145 C142 1.348 . S
C145 C143 1.356 . S
H146 C140 0.930 . S
H147 C144 0.930 . S
O148 Li88 1.956 . S
O148 Li89 1.970 1_665 S
O148 Li90 1.961 . S
O148 C92 1.325 . S
O149 Li88 1.970 1_445 S
O149 Li89 1.956 . S
O149 Li91 1.961 . S
O149 C98 1.325 . S
O150 Li88 1.961 . S
O150 Li90 1.956 . S
O150 Li91 1.970 1_665 S
O150 C120 1.325 . S
O151 Li89 1.961 . S
O151 Li90 1.970 1_445 S
O151 Li91 1.956 . S
O151 C126 1.325 . S
H152 C94 0.929 . S
H153 C95 0.930 . S
H154 C96 0.930 1_455 S
H155 C97 0.930 . S
H156 C99 0.930 . S
H157 C101 0.929 . S
H158 C102 0.930 . S
H159 C103 0.930 1_565 S
H160 C106 0.930 . S
H161 C109 0.929 . S
H162 C114 0.929 . S
H163 C115 0.930 . S
H164 C122 0.929 . S
H165 C123 0.930 . S
H166 C124 0.930 1_545 S
H167 C125 0.930 . S
H168 C127 0.929 . S
H169 C128 0.930 . S
H170 C129 0.930 1_655 S
H171 C130 0.930 . S
H172 C134 0.929 . S
H173 C136 0.930 . S
H174 C142 0.929 . S
H175 C143 0.930 . S
Li176 N193 1.990 . S
Li176 O236 1.956 . S
Li176 O237 1.970 1_565 S
Li176 O238 1.961 1_455 S
Li177 N201 1.990 . S
Li177 O236 1.970 1_545 S
Li177 O237 1.956 . S
Li177 O239 1.961 1_455 S
Li178 N223 1.990 . S
Li178 O236 1.961 1_655 S
Li178 O238 1.956 . S
Li178 O239 1.970 1_565 S
Li179 N229 1.990 . S
Li179 O237 1.961 1_655 S
Li179 O238 1.970 1_545 S
Li179 O239 1.956 . S
C180 C182 1.348 1_565 S
C180 C183 1.356 . S
C180 O236 1.325 . S
N181 C184 1.314 . S
N181 C185 1.279 . S
C182 C180 1.348 1_545 S
C182 C184 1.353 1_545 S
C182 H240 0.929 . S
C183 C180 1.356 . S
C183 C185 1.358 . S
C183 H241 0.930 . S
C184 N181 1.314 . S
C184 C182 1.353 1_565 S
C184 H242 0.930 1_565 S
C185 N181 1.279 . S
C185 C183 1.358 . S
C185 H243 0.930 . S
C186 C189 1.348 . S
C186 C190 1.356 . S
C186 O237 1.325 . S
C187 N188 1.279 . S
C187 C190 1.358 . S
C187 H244 0.930 . S
N188 C187 1.279 . S
N188 C191 1.314 . S
C189 C186 1.348 . S
C189 C191 1.353 . S
C189 H245 0.929 . S
C190 C186 1.356 . S
C190 C187 1.358 . S
C190 H246 0.930 . S
C191 N188 1.314 . S
C191 C189 1.353 . S
C191 H247 0.930 . S
C192 N193 1.314 . S
C192 C197 1.353 . S
C192 H198 0.930 . S
N193 Li176 1.990 . S
N193 C192 1.314 . S
N193 C195 1.279 . S
C194 C195 1.358 . S
C194 C196 1.356 . S
C194 H248 0.930 . S
C195 N193 1.279 . S
C195 C194 1.358 . S
C195 H199 0.930 . S
C196 C194 1.356 . S
C196 C197 1.348 . S
C197 C192 1.353 . S
C197 C196 1.348 . S
C197 H249 0.929 . S
H198 C192 0.930 . S
H199 C195 0.930 . S
C200 N201 1.314 . S
C200 C202 1.353 . S
C200 H206 0.930 . S
N201 Li177 1.990 . S
N201 C200 1.314 . S
N201 C204 1.279 . S
C202 C200 1.353 . S
C202 C205 1.348 . S
C202 H250 0.929 . S
C203 C204 1.358 . S
C203 C205 1.356 . S
C203 H251 0.930 . S
C204 N201 1.279 . S
C204 C203 1.358 . S
C204 H207 0.930 . S
C205 C202 1.348 . S
C205 C203 1.356 . S
H206 C200 0.930 . S
H207 C204 0.930 . S
C208 C210 1.348 . S
C208 C211 1.356 . S
C208 O238 1.325 . S
N209 C212 1.314 . S
N209 C213 1.279 . S
C210 C208 1.348 . S
C210 C212 1.353 . S
C210 H252 0.929 . S
C211 C208 1.356 . S
C211 C213 1.358 . S
C211 H253 0.930 . S
C212 N209 1.314 . S
C212 C210 1.353 . S
C212 H254 0.930 . S
C213 N209 1.279 . S
C213 C211 1.358 . S
C213 H255 0.930 . S
C214 C215 1.348 1_545 S
C214 C216 1.356 . S
C214 O239 1.325 . S
C215 C214 1.348 1_565 S
C215 C217 1.353 1_565 S
C215 H256 0.929 . S
C216 C214 1.356 . S
C216 C218 1.358 . S
C216 H257 0.930 . S
C217 C215 1.353 1_545 S
C217 N219 1.314 . S
C217 H258 0.930 1_545 S
C218 C216 1.358 . S
C218 N219 1.279 . S
C218 H259 0.930 . S
N219 C217 1.314 . S
N219 C218 1.279 . S
C220 C222 1.353 . S
C220 N223 1.314 . S
C220 H226 0.930 . S
C221 N223 1.279 . S
C221 C224 1.358 . S
C221 H227 0.930 . S
C222 C220 1.353 . S
C222 C225 1.348 . S
C222 H260 0.929 . S
N223 Li178 1.990 . S
N223 C220 1.314 . S
N223 C221 1.279 . S
C224 C221 1.358 . S
C224 C225 1.356 . S
C224 H261 0.930 . S
C225 C222 1.348 . S
C225 C224 1.356 . S
H226 C220 0.930 . S
H227 C221 0.930 . S
C228 N229 1.314 . S
C228 C230 1.353 . S
C228 H234 0.930 . S
N229 Li179 1.990 . S
N229 C228 1.314 . S
N229 C232 1.279 . S
C230 C228 1.353 . S
C230 C233 1.348 . S
C230 H262 0.929 . S
C231 C232 1.358 . S
C231 C233 1.356 . S
C231 H263 0.930 . S
C232 N229 1.279 . S
C232 C231 1.358 . S
C232 H235 0.930 . S
C233 C230 1.348 . S
C233 C231 1.356 . S
H234 C228 0.930 . S
H235 C232 0.930 . S
O236 Li176 1.956 . S
O236 Li177 1.970 1_565 S
O236 Li178 1.961 1_455 S
O236 C180 1.325 . S
O237 Li176 1.970 1_545 S
O237 Li177 1.956 . S
O237 Li179 1.961 1_455 S
O237 C186 1.325 . S
O238 Li176 1.961 1_655 S
O238 Li178 1.956 . S
O238 Li179 1.970 1_565 S
O238 C208 1.325 . S
O239 Li177 1.961 1_655 S
O239 Li178 1.970 1_545 S
O239 Li179 1.956 . S
O239 C214 1.325 . S
H240 C182 0.929 . S
H241 C183 0.930 . S
H242 C184 0.930 1_545 S
H243 C185 0.930 . S
H244 C187 0.930 . S
H245 C189 0.929 . S
H246 C190 0.930 . S
H247 C191 0.930 . S
H248 C194 0.930 . S
H249 C197 0.929 . S
H250 C202 0.929 . S
H251 C203 0.930 . S
H252 C210 0.929 . S
H253 C211 0.930 . S
H254 C212 0.930 . S
H255 C213 0.930 . S
H256 C215 0.929 . S
H257 C216 0.930 . S
H258 C217 0.930 1_565 S
H259 C218 0.930 . S
H260 C222 0.929 . S
H261 C224 0.930 . S
H262 C230 0.929 . S
H263 C231 0.930 . S
H264 C291 0.929 . S
N265 C290 1.433 . S
N265 C296 1.435 . S
N265 C302 1.423 . S
H266 C292 0.930 . S
H267 C295 0.931 . S
H268 C294 0.929 . S
H269 C297 0.930 . S
H270 C298 0.932 . S
H271 C301 0.929 . S
H272 C300 0.931 . S
H273 C303 0.929 . S
H274 C307 0.932 1_455 S
H275 C304 0.931 . S
H276 C306 0.929 1_455 S
H277 C309 0.929 . S
H278 C310 0.930 . S
H279 C312 0.929 . S
H280 C313 0.931 . S
H281 C315 0.930 . S
H282 C316 0.932 . S
H283 C318 0.931 . S
H284 C319 0.929 . S
H285 C321 0.929 . S
H286 C322 0.931 . S
H287 C324 0.929 1_455 S
N288 C308 1.433 . S
N288 C314 1.435 . S
N288 C320 1.423 . S
H289 C325 0.932 1_455 S
C290 N265 1.433 . S
C290 C291 1.363 . S
C290 C295 1.370 1_655 S
C291 H264 0.929 . S
C291 C290 1.363 . S
C291 C292 1.385 . S
C292 H266 0.930 . S
C292 C291 1.385 . S
C292 C293 1.357 . S
C293 C292 1.357 . S
C293 C294 1.406 1_655 S
C294 H268 0.929 . S
C294 C293 1.406 1_455 S
C294 C295 1.391 . S
C295 H267 0.931 . S
C295 C290 1.370 1_455 S
C295 C294 1.391 . S
C296 N265 1.435 . S
C296 C297 1.358 1_655 S
C296 C301 1.371 . S
C297 H269 0.930 . S
C297 C296 1.358 1_455 S
C297 C298 1.405 . S
C298 H270 0.932 . S
C298 C297 1.405 . S
C298 C299 1.383 1_455 S
C299 C298 1.383 1_655 S
C299 C300 1.393 . S
C300 H272 0.931 . S
C300 C299 1.393 . S
C300 C301 1.382 . S
C301 H271 0.929 . S
C301 C296 1.371 . S
C301 C300 1.382 . S
C302 N265 1.423 . S
C302 C303 1.362 . S
C302 C307 1.388 . S
C303 H273 0.929 . S
C303 C302 1.362 . S
C303 C304 1.376 . S
C304 H275 0.931 . S
C304 C303 1.376 . S
C304 C305 1.396 . S
C305 C304 1.396 . S
C305 C306 1.348 . S
C305 C323 1.472 . S
C306 H276 0.929 1_655 S
C306 C305 1.348 . S
C306 C307 1.443 . S
C307 H274 0.932 1_655 S
C307 C302 1.388 . S
C307 C306 1.443 . S
C308 N288 1.433 . S
C308 C309 1.363 . S
C308 C313 1.370 1_655 S
C309 H277 0.929 . S
C309 C308 1.363 . S
C309 C310 1.385 . S
C310 H278 0.930 . S
C310 C309 1.385 . S
C310 C311 1.357 . S
C311 C310 1.357 . S
C311 C312 1.406 1_655 S
C312 H279 0.929 . S
C312 C311 1.406 1_455 S
C312 C313 1.391 . S
C313 H280 0.931 . S
C313 C308 1.370 1_455 S
C313 C312 1.391 . S
C314 N288 1.435 . S
C314 C315 1.358 1_655 S
C314 C319 1.371 . S
C315 H281 0.930 . S
C315 C314 1.358 1_455 S
C315 C316 1.405 . S
C316 H282 0.932 . S
C316 C315 1.405 . S
C316 C317 1.383 1_455 S
C317 C316 1.383 1_655 S
C317 C318 1.393 . S
C318 H283 0.931 . S
C318 C317 1.393 . S
C318 C319 1.382 . S
C319 H284 0.929 . S
C319 C314 1.371 . S
C319 C318 1.382 . S
C320 N288 1.423 . S
C320 C321 1.362 . S
C320 C325 1.388 . S
C321 H285 0.929 . S
C321 C320 1.362 . S
C321 C322 1.376 . S
C322 H286 0.931 . S
C322 C321 1.376 . S
C322 C323 1.396 . S
C323 C305 1.472 . S
C323 C322 1.396 . S
C323 C324 1.348 . S
C324 H287 0.929 1_655 S
C324 C323 1.348 . S
C324 C325 1.443 . S
C325 H289 0.932 1_655 S
C325 C320 1.388 . S
C325 C324 1.443 . S
H326 C353 0.929 . S
N327 C352 1.433 . S
N327 C358 1.435 . S
N327 C364 1.423 . S
H328 C354 0.930 . S
H329 C357 0.931 . S
H330 C356 0.929 . S
H331 C359 0.930 . S
H332 C360 0.932 . S
H333 C363 0.929 . S
H334 C362 0.931 . S
H335 C365 0.929 . S
H336 C369 0.932 1_565 S
H337 C366 0.931 . S
H338 C368 0.929 1_565 S
H339 C371 0.929 . S
H340 C372 0.930 . S
H341 C374 0.929 . S
H342 C375 0.931 . S
H343 C377 0.930 . S
H344 C378 0.932 . S
H345 C380 0.931 . S
H346 C381 0.929 . S
H347 C383 0.929 . S
H348 C384 0.931 . S
H349 C386 0.929 1_565 S
N350 C370 1.433 . S
N350 C376 1.435 . S
N350 C382 1.423 . S
H351 C387 0.932 1_565 S
C352 N327 1.433 . S
C352 C353 1.363 . S
C352 C357 1.370 1_545 S
C353 H326 0.929 . S
C353 C352 1.363 . S
C353 C354 1.385 . S
C354 H328 0.930 . S
C354 C353 1.385 . S
C354 C355 1.357 . S
C355 C354 1.357 . S
C355 C356 1.406 1_545 S
C356 H330 0.929 . S
C356 C355 1.406 1_565 S
C356 C357 1.391 . S
C357 H329 0.931 . S
C357 C352 1.370 1_565 S
C357 C356 1.391 . S
C358 N327 1.435 . S
C358 C359 1.358 1_545 S
C358 C363 1.371 . S
C359 H331 0.930 . S
C359 C358 1.358 1_565 S
C359 C360 1.405 . S
C360 H332 0.932 . S
C360 C359 1.405 . S
C360 C361 1.383 1_565 S
C361 C360 1.383 1_545 S
C361 C362 1.393 . S
C362 H334 0.931 . S
C362 C361 1.393 . S
C362 C363 1.382 . S
C363 H333 0.929 . S
C363 C358 1.371 . S
C363 C362 1.382 . S
C364 N327 1.423 . S
C364 C365 1.362 . S
C364 C369 1.388 . S
C365 H335 0.929 . S
C365 C364 1.362 . S
C365 C366 1.376 . S
C366 H337 0.931 . S
C366 C365 1.376 . S
C366 C367 1.396 . S
C367 C366 1.396 . S
C367 C368 1.348 . S
C367 C385 1.472 . S
C368 H338 0.929 1_545 S
C368 C367 1.348 . S
C368 C369 1.443 . S
C369 H336 0.932 1_545 S
C369 C364 1.388 . S
C369 C368 1.443 . S
C370 N350 1.433 . S
C370 C371 1.363 . S
C370 C375 1.370 1_545 S
C371 H339 0.929 . S
C371 C370 1.363 . S
C371 C372 1.385 . S
C372 H340 0.930 . S
C372 C371 1.385 . S
C372 C373 1.357 . S
C373 C372 1.357 . S
C373 C374 1.406 1_545 S
C374 H341 0.929 . S
C374 C373 1.406 1_565 S
C374 C375 1.391 . S
C375 H342 0.931 . S
C375 C370 1.370 1_565 S
C375 C374 1.391 . S
C376 N350 1.435 . S
C376 C377 1.358 1_545 S
C376 C381 1.371 . S
C377 H343 0.930 . S
C377 C376 1.358 1_565 S
C377 C378 1.405 . S
C378 H344 0.932 . S
C378 C377 1.405 . S
C378 C379 1.383 1_565 S
C379 C378 1.383 1_545 S
C379 C380 1.393 . S
C380 H345 0.931 . S
C380 C379 1.393 . S
C380 C381 1.382 . S
C381 H346 0.929 . S
C381 C376 1.371 . S
C381 C380 1.382 . S
C382 N350 1.423 . S
C382 C383 1.362 . S
C382 C387 1.388 . S
C383 H347 0.929 . S
C383 C382 1.362 . S
C383 C384 1.376 . S
C384 H348 0.931 . S
C384 C383 1.376 . S
C384 C385 1.396 . S
C385 C367 1.472 . S
C385 C384 1.396 . S
C385 C386 1.348 . S
C386 H349 0.929 1_545 S
C386 C385 1.348 . S
C386 C387 1.443 . S
C387 H351 0.932 1_545 S
C387 C382 1.388 . S
C387 C386 1.443 . S
H388 C415 0.929 . S
N389 C414 1.433 . S
N389 C420 1.435 . S
N389 C426 1.423 . S
H390 C416 0.930 . S
H391 C419 0.931 . S
H392 C418 0.929 . S
H393 C421 0.930 . S
H394 C422 0.932 . S
H395 C425 0.929 . S
H396 C424 0.931 . S
H397 C427 0.929 . S
H398 C431 0.932 . S
H399 C428 0.931 . S
H400 C430 0.929 . S
H401 C433 0.929 . S
H402 C434 0.930 . S
H403 C436 0.929 . S
H404 C437 0.931 . S
H405 C439 0.930 . S
H406 C440 0.932 . S
H407 C442 0.931 . S
H408 C443 0.929 . S
H409 C445 0.929 . S
H410 C446 0.931 . S
H411 C448 0.929 . S
N412 C432 1.433 . S
N412 C438 1.435 . S
N412 C444 1.423 . S
H413 C449 0.932 . S
C414 N389 1.433 . S
C414 C415 1.363 . S
C414 C419 1.370 . S
C415 H388 0.929 . S
C415 C414 1.363 . S
C415 C416 1.385 . S
C416 H390 0.930 . S
C416 C415 1.385 . S
C416 C417 1.357 . S
C417 C416 1.357 . S
C417 C418 1.406 . S
C418 H392 0.929 . S
C418 C417 1.406 . S
C418 C419 1.391 . S
C419 H391 0.931 . S
C419 C414 1.370 . S
C419 C418 1.391 . S
C420 N389 1.435 . S
C420 C421 1.358 . S
C420 C425 1.371 . S
C421 H393 0.930 . S
C421 C420 1.358 . S
C421 C422 1.405 . S
C422 H394 0.932 . S
C422 C421 1.405 . S
C422 C423 1.383 . S
C423 C422 1.383 . S
C423 C424 1.393 . S
C424 H396 0.931 . S
C424 C423 1.393 . S
C424 C425 1.382 . S
C425 H395 0.929 . S
C425 C420 1.371 . S
C425 C424 1.382 . S
C426 N389 1.423 . S
C426 C427 1.362 . S
C426 C431 1.388 . S
C427 H397 0.929 . S
C427 C426 1.362 . S
C427 C428 1.376 . S
C428 H399 0.931 . S
C428 C427 1.376 . S
C428 C429 1.396 . S
C429 C428 1.396 . S
C429 C430 1.348 . S
C429 C447 1.472 . S
C430 H400 0.929 . S
C430 C429 1.348 . S
C430 C431 1.443 . S
C431 H398 0.932 . S
C431 C426 1.388 . S
C431 C430 1.443 . S
C432 N412 1.433 . S
C432 C433 1.363 . S
C432 C437 1.370 . S
C433 H401 0.929 . S
C433 C432 1.363 . S
C433 C434 1.385 . S
C434 H402 0.930 . S
C434 C433 1.385 . S
C434 C435 1.357 . S
C435 C434 1.357 . S
C435 C436 1.406 . S
C436 H403 0.929 . S
C436 C435 1.406 . S
C436 C437 1.391 . S
C437 H404 0.931 . S
C437 C432 1.370 . S
C437 C436 1.391 . S
C438 N412 1.435 . S
C438 C439 1.358 . S
C438 C443 1.371 . S
C439 H405 0.930 . S
C439 C438 1.358 . S
C439 C440 1.405 . S
C440 H406 0.932 . S
C440 C439 1.405 . S
C440 C441 1.383 . S
C441 C440 1.383 . S
C441 C442 1.393 . S
C442 H407 0.931 . S
C442 C441 1.393 . S
C442 C443 1.382 . S
C443 H408 0.929 . S
C443 C438 1.371 . S
C443 C442 1.382 . S
C444 N412 1.423 . S
C444 C445 1.362 . S
C444 C449 1.388 . S
C445 H409 0.929 . S
C445 C444 1.362 . S
C445 C446 1.376 . S
C446 H410 0.931 . S
C446 C445 1.376 . S
C446 C447 1.396 . S
C447 C429 1.472 . S
C447 C446 1.396 . S
C447 C448 1.348 . S
C448 H411 0.929 . S
C448 C447 1.348 . S
C448 C449 1.443 . S
C449 H413 0.932 . S
C449 C444 1.388 . S
C449 C448 1.443 . S
H450 C458 0.929 . S
H451 C460 0.930 . S
H452 C462 0.930 . S
H453 C465 0.929 . S
H454 C468 0.930 . S
H455 C470 0.960 . S
H456 C470 0.960 . S
H457 C470 0.960 . S
C458 H450 0.929 . S
C458 C459 1.377 . S
C458 C460 1.384 . S
C459 C458 1.377 . S
C459 C465 1.390 . S
C460 H451 0.930 . S
C460 C458 1.384 . S
C460 C461 1.372 . S
C461 C460 1.372 . S
C461 C462 1.400 . S
C461 C466 1.490 . S
C462 H452 0.930 . S
C462 C461 1.400 . S
C462 C465 1.386 . S
H463 C479 0.930 . S
H464 C480 0.931 . S
C465 H453 0.929 . S
C465 C459 1.390 . S
C465 C462 1.386 . S
C466 C461 1.490 . S
C466 C468 1.395 1_655 S
C466 C469 1.403 . S
H467 C473 0.930 . S
C468 H454 0.930 . S
C468 C466 1.395 1_455 S
C468 C471 1.403 . S
C469 C466 1.403 . S
C469 C470 1.524 . S
C469 C473 1.400 . S
C470 H455 0.960 . S
C470 H456 0.960 . S
C470 H457 0.960 . S
C470 C469 1.524 . S
C471 C468 1.403 . S
C471 C472 1.392 1_455 S
C471 C475 1.495 . S
C472 C471 1.392 1_655 S
C472 C473 1.385 . S
C472 C474 1.478 . S
C473 H467 0.930 . S
C473 C469 1.400 . S
C473 C472 1.385 . S
C474 C472 1.478 . S
C474 C476 1.381 . S
C474 C480 1.383 1_655 S
C475 C471 1.495 . S
C475 H481 0.959 . S
C475 H482 0.961 . S
C475 H483 0.960 . S
C476 C474 1.381 . S
C476 C477 1.394 . S
C476 H484 0.930 . S
C477 C476 1.394 . S
C477 C478 1.394 1_655 S
C477 H485 0.929 . S
C478 C477 1.394 1_455 S
C478 C479 1.379 . S
C479 H463 0.930 . S
C479 C478 1.379 . S
C479 C480 1.379 . S
C480 H464 0.931 . S
C480 C474 1.383 1_455 S
C480 C479 1.379 . S
H481 C475 0.959 . S
H482 C475 0.961 . S
H483 C475 0.960 . S
H484 C476 0.930 . S
H485 C477 0.929 . S
H486 C494 0.929 . S
H487 C496 0.930 1_545 S
H488 C498 0.930 . S
H489 C501 0.929 . S
H490 C504 0.930 . S
H491 C506 0.960 . S
H492 C506 0.960 . S
H493 C506 0.960 1_565 S
C494 H486 0.929 . S
C494 C495 1.377 . S
C494 C496 1.384 . S
C495 C494 1.377 . S
C495 C501 1.390 . S
C496 H487 0.930 1_565 S
C496 C494 1.384 . S
C496 C497 1.372 . S
C497 C496 1.372 . S
C497 C498 1.400 . S
C497 C502 1.490 . S
C498 H488 0.930 . S
C498 C497 1.400 . S
C498 C501 1.386 . S
H499 C515 0.930 . S
H500 C516 0.931 . S
C501 H489 0.929 . S
C501 C495 1.390 . S
C501 C498 1.386 . S
C502 C497 1.490 . S
C502 C504 1.395 . S
C502 C505 1.403 . S
H503 C509 0.930 1_545 S
C504 H490 0.930 . S
C504 C502 1.395 . S
C504 C507 1.403 . S
C505 C502 1.403 . S
C505 C506 1.524 1_565 S
C505 C509 1.400 . S
C506 H491 0.960 . S
C506 H492 0.960 . S
C506 H493 0.960 1_545 S
C506 C505 1.524 1_545 S
C507 C504 1.403 . S
C507 C508 1.392 . S
C507 C511 1.495 . S
C508 C507 1.392 . S
C508 C509 1.385 . S
C508 C510 1.478 . S
C509 H503 0.930 1_565 S
C509 C505 1.400 . S
C509 C508 1.385 . S
C510 C508 1.478 . S
C510 C512 1.381 1_565 S
C510 C516 1.383 . S
C511 C507 1.495 . S
C511 H517 0.959 . S
C511 H518 0.961 . S
C511 H519 0.960 . S
C512 C510 1.381 1_545 S
C512 C513 1.394 . S
C512 H520 0.930 . S
C513 C512 1.394 . S
C513 C514 1.383 1_545 S
C513 H521 0.929 . S
C514 C513 1.383 1_565 S
C514 C515 1.377 . S
C515 H499 0.930 . S
C515 C514 1.377 . S
C515 C516 1.379 . S
C516 H500 0.931 . S
C516 C510 1.383 . S
C516 C515 1.379 . S
H517 C511 0.959 . S
H518 C511 0.961 . S
H519 C511 0.960 . S
H520 C512 0.930 . S
H521 C513 0.929 . S
H522 C530 0.929 . S
H523 C532 0.930 . S
H524 C534 0.930 . S
H525 C537 0.929 . S
H526 C540 0.930 . S
H527 C542 0.960 . S
H528 C542 0.960 . S
H529 C542 0.960 . S
C530 H522 0.929 . S
C530 C531 1.377 . S
C530 C532 1.384 . S
C531 C530 1.377 . S
C531 C537 1.390 . S
C532 H523 0.930 . S
C532 C530 1.384 . S
C532 C533 1.372 . S
C533 C532 1.372 . S
C533 C534 1.400 . S
C533 C538 1.490 . S
C534 H524 0.930 . S
C534 C533 1.400 . S
C534 C537 1.386 . S
H535 C551 0.930 . S
H536 C552 0.931 . S
C537 H525 0.929 . S
C537 C531 1.390 . S
C537 C534 1.386 . S
C538 C533 1.490 . S
C538 C540 1.395 . S
C538 C541 1.403 . S
H539 C545 0.930 . S
C540 H526 0.930 . S
C540 C538 1.395 . S
C540 C543 1.403 . S
C541 C538 1.403 . S
C541 C542 1.524 . S
C541 C545 1.400 . S
C542 H527 0.960 . S
C542 H528 0.960 . S
C542 H529 0.960 . S
C542 C541 1.524 . S
C543 C540 1.403 . S
C543 C544 1.392 . S
C543 C547 1.495 . S
C544 C543 1.392 . S
C544 C545 1.385 . S
C544 C546 1.478 . S
C545 H539 0.930 . S
C545 C541 1.400 . S
C545 C544 1.385 . S
C546 C544 1.478 . S
C546 C548 1.381 . S
C546 C552 1.383 . S
C547 C543 1.495 . S
C547 H553 0.959 . S
C547 H554 0.961 . S
C547 H555 0.960 . S
C548 C546 1.381 . S
C548 C549 1.394 . S
C548 H556 0.930 . S
C549 C548 1.394 . S
C549 C550 1.383 . S
C549 H557 0.929 . S
C550 C549 1.383 . S
C550 C551 1.377 . S
C551 H535 0.930 . S
C551 C550 1.377 . S
C551 C552 1.379 . S
C552 H536 0.931 . S
C552 C546 1.383 . S
C552 C551 1.379 . S
H553 C547 0.959 . S
H554 C547 0.961 . S
H555 C547 0.960 . S
H556 C548 0.930 . S
H557 C549 0.929 . S
H558 C566 0.929 1_655 S
H559 C568 0.930 1_655 S
H560 C570 0.930 . S
H561 C573 0.929 . S
H562 C576 0.930 . S
H563 C578 0.960 . S
H564 C578 0.964 . S
H565 C578 0.960 . S
C566 H558 0.929 1_455 S
C566 C567 1.377 . S
C566 C568 1.384 . S
C567 C566 1.377 . S
C567 C573 1.390 . S
C568 H559 0.930 1_455 S
C568 C566 1.384 . S
C568 C569 1.372 . S
C569 C568 1.372 . S
C569 C570 1.400 . S
C569 C574 1.490 . S
C570 H560 0.930 . S
C570 C569 1.400 . S
C570 C573 1.386 . S
H571 C587 0.930 . S
H572 C588 0.931 . S
C573 H561 0.929 . S
C573 C567 1.390 . S
C573 C570 1.386 . S
C574 C569 1.490 . S
C574 C576 1.395 . S
C574 C577 1.403 . S
H575 C581 0.930 . S
C576 H562 0.930 . S
C576 C574 1.395 . S
C576 C579 1.403 . S
C577 C574 1.403 . S
C577 C578 1.524 . S
C577 C581 1.400 . S
C578 H563 0.960 . S
C578 H564 0.964 . S
C578 H565 0.960 . S
C578 C577 1.524 . S
C579 C576 1.403 . S
C579 C580 1.392 . S
C579 C583 1.495 . S
C580 C579 1.392 . S
C580 C581 1.385 . S
C580 C582 1.478 . S
C581 H575 0.930 . S
C581 C577 1.400 . S
C581 C580 1.385 . S
C582 C580 1.478 . S
C582 C584 1.381 1_455 S
C582 C588 1.383 . S
C583 C579 1.495 . S
C583 H589 0.959 . S
C583 H590 0.961 . S
C583 H591 0.960 1_455 S
C584 C582 1.381 1_655 S
C584 C585 1.394 . S
C584 H592 0.930 . S
C585 C584 1.394 . S
C585 C586 1.383 1_655 S
C585 H593 0.929 . S
C586 C585 1.383 1_455 S
C586 C587 1.377 . S
C587 H571 0.930 . S
C587 C586 1.377 . S
C587 C588 1.379 . S
C588 H572 0.931 . S
C588 C582 1.383 . S
C588 C587 1.379 . S
H589 C583 0.959 . S
H590 C583 0.961 . S
H591 C583 0.960 1_655 S
H592 C584 0.930 . S
H593 C585 0.929 . S
H594 C602 0.929 . S
H595 C604 0.930 . S
H596 C606 0.930 . S
H597 C609 0.929 . S
H598 C612 0.930 . S
H599 C614 0.960 . S
H600 C614 0.960 . S
H601 C614 0.960 . S
C602 H594 0.929 . S
C602 C603 1.377 . S
C602 C604 1.384 . S
C603 C602 1.377 . S
C603 C609 1.390 . S
C604 H595 0.930 . S
C604 C602 1.384 . S
C604 C605 1.372 . S
C605 C604 1.372 . S
C605 C606 1.400 . S
C605 C610 1.490 . S
C606 H596 0.930 . S
C606 C605 1.400 . S
C606 C609 1.386 . S
H607 C623 0.930 . S
H608 C624 0.931 . S
C609 H597 0.929 . S
C609 C603 1.390 . S
C609 C606 1.386 . S
C610 C605 1.490 . S
C610 C612 1.395 . S
C610 C613 1.402 1_545 S
H611 C617 0.930 . S
C612 H598 0.930 . S
C612 C610 1.395 . S
C612 C615 1.403 . S
C613 C610 1.402 1_565 S
C613 C614 1.524 . S
C613 C617 1.400 . S
C614 H599 0.960 . S
C614 H600 0.960 . S
C614 H601 0.960 . S
C614 C613 1.524 . S
C615 C612 1.403 . S
C615 C616 1.392 . S
C615 C619 1.495 . S
C616 C615 1.392 . S
C616 C617 1.385 1_545 S
C616 C618 1.478 . S
C617 H611 0.930 . S
C617 C613 1.400 . S
C617 C616 1.385 1_565 S
C618 C616 1.478 . S
C618 C620 1.381 . S
C618 C624 1.383 . S
C619 C615 1.495 . S
C619 H625 0.959 . S
C619 H626 0.961 . S
C619 H627 0.960 . S
C620 C618 1.381 . S
C620 C621 1.394 1_545 S
C620 H628 0.930 1_545 S
C621 C620 1.394 1_565 S
C621 C622 1.383 1_565 S
C621 H629 0.929 . S
C622 C621 1.383 1_545 S
C622 C623 1.377 . S
C623 H607 0.930 . S
C623 C622 1.377 . S
C623 C624 1.379 . S
C624 H608 0.931 . S
C624 C618 1.383 . S
C624 C623 1.379 . S
H625 C619 0.959 . S
H626 C619 0.961 . S
H627 C619 0.960 . S
H628 C620 0.930 1_565 S
H629 C621 0.929 . S
H630 C638 0.929 . S
H631 C640 0.930 . S
H632 C642 0.930 . S
H633 C645 0.929 . S
H634 C648 0.930 . S
H635 C650 0.960 . S
H636 C650 0.960 . S
H637 C650 0.960 . S
C638 H630 0.929 . S
C638 C639 1.377 . S
C638 C640 1.384 . S
C639 C638 1.377 . S
C639 C645 1.390 . S
C640 H631 0.930 . S
C640 C638 1.384 . S
C640 C641 1.372 . S
C641 C640 1.372 . S
C641 C642 1.400 . S
C641 C646 1.490 . S
C642 H632 0.930 . S
C642 C641 1.400 . S
C642 C645 1.386 . S
H643 C659 0.930 . S
H644 C660 0.931 . S
C645 H633 0.929 . S
C645 C639 1.390 . S
C645 C642 1.386 . S
C646 C641 1.490 . S
C646 C648 1.395 . S
C646 C649 1.403 . S
H647 C653 0.930 . S
C648 H634 0.930 . S
C648 C646 1.395 . S
C648 C651 1.403 . S
C649 C646 1.403 . S
C649 C650 1.524 . S
C649 C653 1.400 . S
C650 H635 0.960 . S
C650 H636 0.960 . S
C650 H637 0.960 . S
C650 C649 1.524 . S
C651 C648 1.403 . S
C651 C652 1.392 . S
C651 C655 1.495 . S
C652 C651 1.392 . S
C652 C653 1.385 . S
C652 C654 1.478 . S
C653 H647 0.930 . S
C653 C649 1.400 . S
C653 C652 1.385 . S
C654 C652 1.478 . S
C654 C656 1.381 . S
C654 C660 1.383 . S
C655 C651 1.495 . S
C655 H661 0.959 . S
C655 H662 0.961 . S
C655 H663 0.960 . S
C656 C654 1.381 . S
C656 C657 1.394 . S
C656 H664 0.930 . S
C657 C656 1.394 . S
C657 C658 1.383 . S
C657 H665 0.929 . S
C658 C657 1.383 . S
C658 C659 1.377 . S
C659 H643 0.930 . S
C659 C658 1.377 . S
C659 C660 1.379 . S
C660 H644 0.931 . S
C660 C654 1.383 . S
C660 C659 1.379 . S
H661 C655 0.959 . S
H662 C655 0.961 . S
H663 C655 0.960 . S
H664 C656 0.930 . S
H665 C657 0.929 . S
H666 C674 0.929 . S
H667 C676 0.930 . S
H668 C678 0.930 . S
H669 C681 0.929 . S
H670 C684 0.930 . S
H671 C686 0.960 . S
H672 C686 0.960 . S
H673 C686 0.960 . S
C674 H666 0.929 . S
C674 C675 1.377 . S
C674 C676 1.384 . S
C675 C674 1.377 . S
C675 C681 1.390 . S
C676 H667 0.930 . S
C676 C674 1.384 . S
C676 C677 1.372 . S
C677 C676 1.372 . S
C677 C678 1.400 . S
C677 C682 1.490 . S
C678 H668 0.930 . S
C678 C677 1.400 . S
C678 C681 1.386 . S
H679 C695 0.930 . S
H680 C696 0.934 . S
C681 H669 0.929 . S
C681 C675 1.390 . S
C681 C678 1.386 . S
C682 C677 1.490 . S
C682 C684 1.395 1_545 S
C682 C685 1.403 . S
H683 C689 0.930 . S
C684 H670 0.930 . S
C684 C682 1.395 1_565 S
C684 C687 1.403 . S
C685 C682 1.403 . S
C685 C686 1.524 . S
C685 C689 1.400 . S
C686 H671 0.960 . S
C686 H672 0.960 . S
C686 H673 0.960 . S
C686 C685 1.524 . S
C687 C684 1.403 . S
C687 C688 1.392 1_565 S
C687 C691 1.495 . S
C688 C687 1.392 1_545 S
C688 C689 1.385 . S
C688 C690 1.478 . S
C689 H683 0.930 . S
C689 C685 1.400 . S
C689 C688 1.385 . S
C690 C688 1.478 . S
C690 C692 1.381 . S
C690 C696 1.391 1_545 S
C691 C687 1.495 . S
C691 H697 0.959 . S
C691 H698 0.961 . S
C691 H699 0.960 . S
C692 C690 1.381 . S
C692 C693 1.394 . S
C692 H700 0.930 . S
C693 C692 1.394 . S
C693 C694 1.380 . S
C693 H701 0.929 . S
C694 C693 1.380 . S
C694 C695 1.376 1_545 S
C695 H679 0.930 . S
C695 C694 1.376 1_565 S
C695 C696 1.369 . S
C696 H680 0.934 . S
C696 C690 1.391 1_565 S
C696 C695 1.369 . S
H697 C691 0.959 . S
H698 C691 0.961 . S
H699 C691 0.960 . S
H700 C692 0.930 . S
H701 C693 0.929 . S
H702 C710 0.938 . S
H703 C712 0.930 . S
H704 C714 0.930 . S
H705 C717 0.929 . S
H706 C720 0.930 . S
H707 C722 0.960 . S
H708 C722 0.960 . S
H709 C722 0.960 . S
C710 H702 0.938 . S
C710 C711 1.377 . S
C710 C712 1.384 . S
C711 C710 1.377 . S
C711 C717 1.390 . S
C712 H703 0.930 . S
C712 C710 1.384 . S
C712 C713 1.372 . S
C713 C712 1.372 . S
C713 C714 1.400 . S
C713 C718 1.490 . S
C714 H704 0.930 . S
C714 C713 1.400 . S
C714 C717 1.386 . S
H715 C731 0.930 . S
H716 C732 0.931 . S
C717 H705 0.929 . S
C717 C711 1.390 . S
C717 C714 1.386 . S
C718 C713 1.490 . S
C718 C720 1.395 . S
C718 C721 1.403 . S
H719 C725 0.930 . S
C720 H706 0.930 . S
C720 C718 1.395 . S
C720 C723 1.403 . S
C721 C718 1.403 . S
C721 C722 1.524 . S
C721 C725 1.400 . S
C722 H707 0.960 . S
C722 H708 0.960 . S
C722 H709 0.960 . S
C722 C721 1.524 . S
C723 C720 1.403 . S
C723 C724 1.392 . S
C723 C727 1.495 . S
C724 C723 1.392 . S
C724 C725 1.385 . S
C724 C726 1.478 . S
C725 H719 0.930 . S
C725 C721 1.400 . S
C725 C724 1.385 . S
C726 C724 1.478 . S
C726 C728 1.381 . S
C726 C732 1.383 . S
C727 C723 1.495 . S
C727 H733 0.959 . S
C727 H734 0.961 . S
C727 H735 0.960 . S
C728 C726 1.381 . S
C728 C729 1.394 . S
C728 H736 0.930 . S
C729 C728 1.394 . S
C729 C730 1.383 . S
C729 H737 0.929 . S
C730 C729 1.383 . S
C730 C731 1.377 . S
C731 H715 0.930 . S
C731 C730 1.377 . S
C731 C732 1.379 . S
C732 H716 0.931 . S
C732 C726 1.383 . S
C732 C731 1.379 . S
H733 C727 0.959 . S
H734 C727 0.961 . S
H735 C727 0.960 . S
H736 C728 0.930 . S
H737 C729 0.929 . S
H738 C746 0.929 . S
H739 C748 0.930 . S
H740 C750 0.916 1_455 S
H741 C753 0.929 1_455 S
H742 C756 0.930 . S
H743 C758 0.960 . S
H744 C758 0.960 1_655 S
H745 C758 0.960 . S
C746 H738 0.929 . S
C746 C747 1.377 . S
C746 C748 1.384 . S
C747 C746 1.377 . S
C747 C753 1.390 . S
C748 H739 0.930 . S
C748 C746 1.384 . S
C748 C749 1.372 . S
C749 C748 1.372 . S
C749 C750 1.407 . S
C749 C754 1.490 . S
C750 H740 0.916 1_655 S
C750 C749 1.407 . S
C750 C753 1.393 . S
H751 C767 0.930 . S
H752 C768 0.931 . S
C753 H741 0.929 1_655 S
C753 C747 1.390 . S
C753 C750 1.393 . S
C754 C749 1.490 . S
C754 C756 1.395 . S
C754 C757 1.403 . S
H755 C761 0.930 1_455 S
C756 H742 0.930 . S
C756 C754 1.395 . S
C756 C759 1.403 . S
C757 C754 1.403 . S
C757 C758 1.524 1_655 S
C757 C761 1.400 . S
C758 H743 0.960 . S
C758 H744 0.960 1_455 S
C758 H745 0.960 . S
C758 C757 1.524 1_455 S
C759 C756 1.403 . S
C759 C760 1.392 . S
C759 C763 1.495 . S
C760 C759 1.392 . S
C760 C761 1.385 . S
C760 C762 1.478 . S
C761 H755 0.930 1_655 S
C761 C757 1.400 . S
C761 C760 1.385 . S
C762 C760 1.478 . S
C762 C764 1.381 . S
C762 C768 1.383 1_655 S
C763 C759 1.495 . S
C763 H769 0.959 . S
C763 H770 0.961 . S
C763 H771 0.960 . S
C764 C762 1.381 . S
C764 C765 1.394 . S
C764 H772 0.930 . S
C765 C764 1.394 . S
C765 C766 1.383 . S
C765 H773 0.929 . S
C766 C765 1.383 . S
C766 C767 1.377 1_655 S
C767 H751 0.930 . S
C767 C766 1.377 1_455 S
C767 C768 1.379 . S
C768 H752 0.931 . S
C768 C762 1.383 1_455 S
C768 C767 1.379 . S
H769 C763 0.959 . S
H770 C763 0.961 . S
H771 C763 0.960 . S
H772 C764 0.930 . S
H773 C765 0.929 . S
H774 C782 0.929 . S
H775 C784 0.930 1_545 S
H776 C786 0.930 . S
H777 C789 0.929 . S
H778 C792 0.930 . S
H779 C794 0.960 . S
H780 C794 0.960 . S
H781 C794 0.960 1_565 S
C782 H774 0.929 . S
C782 C783 1.377 . S
C782 C784 1.384 . S
C783 C782 1.377 . S
C783 C789 1.390 . S
C784 H775 0.930 1_565 S
C784 C782 1.384 . S
C784 C785 1.372 . S
C785 C784 1.372 . S
C785 C786 1.400 . S
C785 C790 1.490 . S
C786 H776 0.930 . S
C786 C785 1.400 . S
C786 C789 1.386 . S
H787 C803 0.930 . S
H788 C804 0.931 . S
C789 H777 0.929 . S
C789 C783 1.390 . S
C789 C786 1.386 . S
C790 C785 1.490 . S
C790 C792 1.395 . S
C790 C793 1.403 . S
H791 C797 0.930 1_545 S
C792 H778 0.930 . S
C792 C790 1.395 . S
C792 C795 1.403 . S
C793 C790 1.403 . S
C793 C794 1.524 1_565 S
C793 C797 1.400 . S
C794 H779 0.960 . S
C794 H780 0.960 . S
C794 H781 0.960 1_545 S
C794 C793 1.524 1_545 S
C795 C792 1.403 . S
C795 C796 1.392 . S
C795 C799 1.495 . S
C796 C795 1.392 . S
C796 C797 1.385 . S
C796 C798 1.478 . S
C797 H791 0.930 1_565 S
C797 C793 1.400 . S
C797 C796 1.385 . S
C798 C796 1.478 . S
C798 C800 1.381 1_565 S
C798 C804 1.383 . S
C799 C795 1.495 . S
C799 H805 0.959 . S
C799 H806 0.961 . S
C799 H807 0.960 . S
C800 C798 1.381 1_545 S
C800 C801 1.394 . S
C800 H808 0.930 . S
C801 C800 1.394 . S
C801 C802 1.383 1_545 S
C801 H809 0.929 . S
C802 C801 1.383 1_565 S
C802 C803 1.377 . S
C803 H787 0.930 . S
C803 C802 1.377 . S
C803 C804 1.379 . S
C804 H788 0.931 . S
C804 C798 1.383 . S
C804 C803 1.379 . S
H805 C799 0.959 . S
H806 C799 0.961 . S
H807 C799 0.960 . S
H808 C800 0.930 . S
H809 C801 0.929 . S
H810 C818 0.929 . S
H811 C820 0.930 . S
H812 C822 0.930 . S
H813 C825 0.929 . S
H814 C828 0.930 . S
H815 C830 0.960 . S
H816 C830 0.960 . S
H817 C830 0.960 . S
C818 H810 0.929 . S
C818 C819 1.377 . S
C818 C820 1.384 . S
C819 C818 1.377 . S
C819 C825 1.390 . S
C820 H811 0.930 . S
C820 C818 1.384 . S
C820 C821 1.372 . S
C821 C820 1.372 . S
C821 C822 1.400 . S
C821 C826 1.490 . S
C822 H812 0.930 . S
C822 C821 1.400 . S
C822 C825 1.386 . S
H823 C839 0.930 . S
H824 C840 0.931 . S
C825 H813 0.929 . S
C825 C819 1.390 . S
C825 C822 1.386 . S
C826 C821 1.490 . S
C826 C828 1.395 . S
C826 C829 1.403 . S
H827 C833 0.930 . S
C828 H814 0.930 . S
C828 C826 1.395 . S
C828 C831 1.403 . S
C829 C826 1.403 . S
C829 C830 1.524 . S
C829 C833 1.400 . S
C830 H815 0.960 . S
C830 H816 0.960 . S
C830 H817 0.960 . S
C830 C829 1.524 . S
C831 C828 1.403 . S
C831 C832 1.392 . S
C831 C835 1.495 . S
C832 C831 1.392 . S
C832 C833 1.385 . S
C832 C834 1.478 . S
C833 H827 0.930 . S
C833 C829 1.400 . S
C833 C832 1.385 . S
C834 C832 1.478 . S
C834 C836 1.381 . S
C834 C840 1.383 . S
C835 C831 1.495 . S
C835 H841 0.959 . S
C835 H842 0.961 . S
C835 H843 0.960 . S
C836 C834 1.381 . S
C836 C837 1.394 . S
C836 H844 0.930 . S
C837 C836 1.394 . S
C837 C838 1.383 . S
C837 H845 0.929 . S
C838 C837 1.383 . S
C838 C839 1.377 . S
C839 H823 0.930 . S
C839 C838 1.377 . S
C839 C840 1.379 . S
C840 H824 0.931 . S
C840 C834 1.383 . S
C840 C839 1.379 . S
H841 C835 0.959 . S
H842 C835 0.961 . S
H843 C835 0.960 . S
H844 C836 0.930 . S
H845 C837 0.929 . S
H846 C854 0.929 . S
H847 C856 0.930 . S
H848 C858 0.930 1_655 S
H849 C861 0.929 1_655 S
H850 C864 0.930 . S
H851 C866 0.960 . S
H852 C866 0.960 . S
H853 C866 0.960 . S
C854 H846 0.929 . S
C854 C855 1.377 . S
C854 C856 1.384 . S
C855 C854 1.377 . S
C855 C861 1.390 . S
C856 H847 0.930 . S
C856 C854 1.384 . S
C856 C857 1.372 . S
C857 C856 1.372 . S
C857 C858 1.400 . S
C857 C862 1.490 . S
C858 H848 0.930 1_455 S
C858 C857 1.400 . S
C858 C861 1.386 . S
H859 C875 0.930 . S
H860 C876 0.931 . S
C861 H849 0.929 1_455 S
C861 C855 1.390 . S
C861 C858 1.386 . S
C862 C857 1.490 . S
C862 C864 1.395 . S
C862 C865 1.403 1_455 S
H863 C869 0.930 . S
C864 H850 0.930 . S
C864 C862 1.395 . S
C864 C867 1.403 . S
C865 C862 1.403 1_655 S
C865 C866 1.524 . S
C865 C869 1.400 . S
C866 H851 0.960 . S
C866 H852 0.960 . S
C866 H853 0.960 . S
C866 C865 1.524 . S
C867 C864 1.403 . S
C867 C868 1.392 . S
C867 C871 1.495 . S
C868 C867 1.392 . S
C868 C869 1.385 1_455 S
C868 C870 1.478 . S
C869 H863 0.930 . S
C869 C865 1.400 . S
C869 C868 1.385 1_655 S
C870 C868 1.478 . S
C870 C872 1.381 . S
C870 C876 1.383 1_455 S
C871 C867 1.495 . S
C871 H877 0.959 . S
C871 H878 0.961 . S
C871 H879 0.960 . S
C872 C870 1.381 . S
C872 C873 1.394 . S
C872 H880 0.930 . S
C873 C872 1.394 . S
C873 C874 1.383 . S
C873 H881 0.929 . S
C874 C873 1.383 . S
C874 C875 1.377 1_455 S
C875 H859 0.930 . S
C875 C874 1.377 1_655 S
C875 C876 1.379 . S
C876 H860 0.931 . S
C876 C870 1.383 1_655 S
C876 C875 1.379 . S
H877 C871 0.959 . S
H878 C871 0.961 . S
H879 C871 0.960 . S
H880 C872 0.930 . S
H881 C873 0.929 . S
C478 C317 1.230 1_455 S
C459 C29 1.247 . S
C495 C137 1.244 . S
C514 C361 1.264 1_565 S
C531 C225 1.248 . S
C550 C423 1.259 . S
C567 C49 1.244 . S
C586 C299 1.266 1_455 S
C622 C379 1.241 . S
C603 C117 1.240 . S
C639 C205 1.249 . S
C658 C441 1.215 . S
C694 C355 1.533 . S
C675 C233 1.636 . S
C711 C57 1.626 . S
C730 C417 1.552 . S
C766 C293 1.495 . S
C747 C108 1.634 . S
C802 C373 1.576 1_565 S
C783 C196 1.622 . S
C838 C435 1.577 . S
C819 C20 1.623 . S
C855 C145 1.628 . S
C874 C311 1.529 1_455 S
