# Generated by pormake.
# Topology llj, (12,3)-cn, num edge types: 1
# Building blocks:
#     Node 0, Type 0, BuildingBlock: QEWDON_clean_sbu_0, # of connection points: 12
#     Node 1, Type 0, BuildingBlock: QEWDON_clean_sbu_0, # of connection points: 12
#     Node 2, Type 1, BuildingBlock: BELTOD_clean_linker_0, # of connection points: 3
#     Node 3, Type 1, BuildingBlock: BELTOD_clean_linker_0, # of connection points: 3
#     Node 4, Type 1, BuildingBlock: BELTOD_clean_linker_0, # of connection points: 3
#     Node 5, Type 1, BuildingBlock: BELTOD_clean_linker_0, # of connection points: 3
#     Node 6, Type 1, BuildingBlock: BELTOD_clean_linker_0, # of connection points: 3
#     Node 7, Type 1, BuildingBlock: BELTOD_clean_linker_0, # of connection points: 3
#     Node 8, Type 1, BuildingBlock: BELTOD_clean_linker_0, # of connection points: 3
#     Node 9, Type 1, BuildingBlock: BELTOD_clean_linker_0, # of connection points: 3
#     Edge 10, Type (0, 1), BuildingBlock: XUDNAN_clean_linker_2, # of connection points: 2
#     Edge 11, Type (0, 1), BuildingBlock: XUDNAN_clean_linker_2, # of connection points: 2
#     Edge 12, Type (0, 1), BuildingBlock: XUDNAN_clean_linker_2, # of connection points: 2
#     Edge 13, Type (0, 1), BuildingBlock: XUDNAN_clean_linker_2, # of connection points: 2
#     Edge 14, Type (0, 1), BuildingBlock: XUDNAN_clean_linker_2, # of connection points: 2
#     Edge 15, Type (0, 1), BuildingBlock: XUDNAN_clean_linker_2, # of connection points: 2
#     Edge 16, Type (0, 1), BuildingBlock: XUDNAN_clean_linker_2, # of connection points: 2
#     Edge 17, Type (0, 1), BuildingBlock: XUDNAN_clean_linker_2, # of connection points: 2
#     Edge 18, Type (0, 1), BuildingBlock: XUDNAN_clean_linker_2, # of connection points: 2
#     Edge 19, Type (0, 1), BuildingBlock: XUDNAN_clean_linker_2, # of connection points: 2
#     Edge 20, Type (0, 1), BuildingBlock: XUDNAN_clean_linker_2, # of connection points: 2
#     Edge 21, Type (0, 1), BuildingBlock: XUDNAN_clean_linker_2, # of connection points: 2
#     Edge 22, Type (0, 1), BuildingBlock: XUDNAN_clean_linker_2, # of connection points: 2
#     Edge 23, Type (0, 1), BuildingBlock: XUDNAN_clean_linker_2, # of connection points: 2
#     Edge 24, Type (0, 1), BuildingBlock: XUDNAN_clean_linker_2, # of connection points: 2
#     Edge 25, Type (0, 1), BuildingBlock: XUDNAN_clean_linker_2, # of connection points: 2
#     Edge 26, Type (0, 1), BuildingBlock: XUDNAN_clean_linker_2, # of connection points: 2
#     Edge 27, Type (0, 1), BuildingBlock: XUDNAN_clean_linker_2, # of connection points: 2
#     Edge 28, Type (0, 1), BuildingBlock: XUDNAN_clean_linker_2, # of connection points: 2
#     Edge 29, Type (0, 1), BuildingBlock: XUDNAN_clean_linker_2, # of connection points: 2
#     Edge 30, Type (0, 1), BuildingBlock: XUDNAN_clean_linker_2, # of connection points: 2
#     Edge 31, Type (0, 1), BuildingBlock: XUDNAN_clean_linker_2, # of connection points: 2
#     Edge 32, Type (0, 1), BuildingBlock: XUDNAN_clean_linker_2, # of connection points: 2
#     Edge 33, Type (0, 1), BuildingBlock: XUDNAN_clean_linker_2, # of connection points: 2
# Relax obj value: 0.009
# Max RMSD: 0.045
# Mean RMSD: 0.042
data_MOF--net-llj--node1-QEWDON_clean_sbu_0--node2-BELTOD_clean_linker_0--edge1-XUDNAN_clean_linker_2
_symmetry_space_group_name_H-M    P1
_symmetry_Int_Tables_number       1
_symmetry_cell_setting            triclinic
loop_
_symmetry_equiv_pos_as_xyz
'x, y, z'
_cell_length_a     42.339981
_cell_length_b     42.320844
_cell_length_c     29.089187
_cell_angle_alpha  89.438954
_cell_angle_beta   89.994057
_cell_angle_gamma 89.769382
loop_
_atom_site_label
_atom_site_type_symbol
_atom_site_fract_x
_atom_site_fract_y
_atom_site_fract_z
_atom_type_partial_charge
Zn0 Zn 0.94002 0.05125 0.95347 0.0
Zn1 Zn 0.93803 0.05635 0.06242 0.0
O2 O 0.96756 0.04783 0.01035 0.0
H3 H 0.98758 0.03686 0.01147 0.0
C4 C 0.90166 0.99749 0.88038 0.0
O5 O 0.89397 0.01285 0.91781 0.0
Zn6 Zn 0.03641 0.95309 0.07119 0.0
Zn7 Zn 0.0342 0.95778 0.96107 0.0
O8 O 0.00988 0.96734 0.01871 0.0
H9 H 0.99187 0.98129 0.02071 0.0
Zn10 Zn 0.9013 0.94987 0.94948 0.0
O11 O 0.92257 0.97456 -0.00021 0.0
Zn12 Zn 0.91988 0.94805 0.05627 0.0
H13 H 0.9367 0.9921 0.99466 0.0
Zn14 Zn 0.03967 0.05876 0.97264 0.0
O15 O 0.05701 0.028 0.01966 0.0
H16 H 0.07348 0.01276 0.0134 0.0
Zn17 Zn 0.05402 0.05714 0.07261 0.0
C18 C 0.06541 0.04409 0.8842 0.0
O19 O 0.08658 0.06408 0.89934 0.0
O20 O 0.90103 0.07888 0.96597 0.0
O21 O 0.90369 0.08742 0.04142 0.0
O22 O 0.07117 0.92739 0.97404 0.0
O23 O 0.07198 0.92294 0.05036 0.0
O24 O 0.88221 0.90646 0.96824 0.0
O25 O 0.89819 0.90624 0.0412 0.0
C26 C 0.99277 0.0713 0.11891 0.0
O27 O 0.05977 0.10268 0.98188 0.0
O28 O 0.07525 0.09811 0.05481 0.0
O29 O 0.00632 0.94435 0.90687 0.0
C30 C 0.89088 0.09235 0.00213 0.0
O31 O 0.96449 0.06203 0.89364 0.0
C32 C 0.97845 0.92994 0.11476 0.0
O33 O 0.90541 0.9677 0.88294 0.0
C34 C 0.08269 0.91542 0.01078 0.0
O35 O 0.04099 0.03883 0.90832 0.0
C36 C 0.8993 0.00177 0.10667 0.0
O37 O 0.96279 0.07107 0.11791 0.0
O38 O 0.00784 0.06503 0.08243 0.0
C39 C 0.88434 0.89291 0.00754 0.0
O40 O 0.00837 0.93174 0.11788 0.0
O41 O 0.96498 0.9417 0.07928 0.0
C42 C 0.06897 0.00543 0.12861 0.0
O43 O 0.89475 0.97218 0.1038 0.0
O44 O 0.91851 0.01424 0.07818 0.0
C45 C 0.07406 0.1136 0.0169 0.0
O46 O 0.07359 0.03511 0.1278 0.0
O47 O 0.05308 0.99385 0.09591 0.0
C48 C 0.98212 0.92835 0.91787 0.0
O49 O 0.97617 0.92313 0.96162 0.0
C50 C 0.97987 0.08757 0.89718 0.0
O51 O 0.97767 0.10351 0.9356 0.0
Zn52 Zn 0.44899 0.56095 0.45358 0.0
Zn53 Zn 0.43781 0.56114 0.56373 0.0
O54 O 0.46861 0.54927 0.51498 0.0
H55 H 0.485 0.53355 0.51882 0.0
C56 C 0.37274 0.45809 0.40526 0.0
O57 O 0.3538 0.43892 0.42782 0.0
Zn58 Zn 0.54154 0.45145 0.58278 0.0
Zn59 Zn 0.52736 0.44615 0.47523 0.0
O60 O 0.50869 0.45873 0.53515 0.0
H61 H 0.49353 0.47572 0.53754 0.0
Zn62 Zn 0.4156 0.44265 0.48194 0.0
O63 O 0.42918 0.47316 0.53006 0.0
Zn64 Zn 0.4275 0.45098 0.59123 0.0
H65 H 0.44137 0.4916 0.52197 0.0
Zn66 Zn 0.57132 0.55627 0.4642 0.0
O67 O 0.55035 0.53356 0.51709 0.0
H68 H 0.53842 0.51431 0.51394 0.0
Zn69 Zn 0.5508 0.56305 0.57059 0.0
C70 C 0.60974 0.50633 0.42562 0.0
O71 O 0.61458 0.50101 0.46965 0.0
O72 O 0.40901 0.58851 0.45995 0.0
O73 O 0.40268 0.58858 0.53599 0.0
O74 O 0.56965 0.42318 0.48356 0.0
O75 O 0.57816 0.42308 0.55924 0.0
O76 O 0.39264 0.40468 0.51015 0.0
O77 O 0.40038 0.41068 0.5855 0.0
C78 C 0.48993 0.58418 0.61712 0.0
O79 O 0.59595 0.59517 0.48533 0.0
O80 O 0.57951 0.60043 0.55757 0.0
O81 O 0.49538 0.42968 0.42771 0.0
C82 C 0.39406 0.5973 0.49571 0.0
O83 O 0.4803 0.57079 0.4004 0.0
C84 C 0.48942 0.4369 0.64298 0.0
O85 O 0.40041 0.46269 0.42056 0.0
C86 C 0.58629 0.41527 0.51839 0.0
O87 O 0.59156 0.52887 0.41349 0.0
C88 C 0.41143 0.51095 0.62997 0.0
O89 O 0.45998 0.58381 0.61494 0.0
O90 O 0.50549 0.57559 0.58191 0.0
C91 C 0.3887 0.39548 0.55162 0.0
O92 O 0.51951 0.43653 0.64067 0.0
O93 O 0.47357 0.44151 0.60634 0.0
C94 C 0.56421 0.51055 0.62982 0.0
O95 O 0.40947 0.48146 0.63863 0.0
O96 O 0.42286 0.51951 0.59135 0.0
C97 C 0.59609 0.60978 0.52341 0.0
O98 O 0.56607 0.5404 0.6272 0.0
O99 O 0.55624 0.49551 0.59417 0.0
C100 C 0.47361 0.41153 0.4421 0.0
O101 O 0.47279 0.40362 0.48588 0.0
C102 C 0.5046 0.58682 0.41054 0.0
O103 O 0.50812 0.5964 0.45307 0.0
P104 P 0.34993 0.29224 0.02715 0.0
H105 H 0.36603 0.26057 0.11344 0.0
H106 H 0.37514 0.27997 0.19112 0.0
H107 H 0.35596 0.37532 0.14398 0.0
H108 H 0.34734 0.35569 0.06612 0.0
H109 H 0.31573 0.26483 0.95093 0.0
H110 H 0.26109 0.24722 0.94218 0.0
H111 H 0.23951 0.2813 0.07818 0.0
H112 H 0.29396 0.2988 0.08678 0.0
H113 H 0.41292 0.31306 0.00444 0.0
H114 H 0.31801 0.3343 0.95961 0.0
O115 O 0.37061 0.25895 0.02047 0.0
H116 H 0.43369 0.3506 0.94799 0.0
H117 H 0.33872 0.37196 0.90268 0.0
C118 C 0.35691 0.30683 0.08397 0.0
C119 C 0.36399 0.28566 0.11982 0.0
C120 C 0.36879 0.29674 0.16429 0.0
C121 C 0.36632 0.3292 0.17365 0.0
C122 C 0.35845 0.35025 0.13769 0.0
C123 C 0.3536 0.3391 0.09321 0.0
C124 C 0.30892 0.28301 0.01942 0.0
C125 C 0.29908 0.2689 0.97855 0.0
C126 C 0.26786 0.25905 0.97351 0.0
C127 C 0.2461 0.26291 0.00956 0.0
C128 C 0.25587 0.27786 0.05001 0.0
C129 C 0.28703 0.28791 0.05486 0.0
C130 C 0.36406 0.32054 0.98564 0.0
C131 C 0.39656 0.32587 0.98241 0.0
C132 C 0.40836 0.34752 0.95042 0.0
C133 C 0.38778 0.3643 0.92103 0.0
C134 C 0.35509 0.35918 0.92469 0.0
C135 C 0.34327 0.33762 0.95713 0.0
P136 P 0.74237 0.39315 0.00418 0.0
H137 H 0.77548 0.40747 0.08928 0.0
H138 H 0.75708 0.41997 0.16685 0.0
H139 H 0.66045 0.40992 0.1217 0.0
H140 H 0.67899 0.39752 0.04436 0.0
H141 H 0.77115 0.35687 0.9311 0.0
H142 H 0.78643 0.30127 0.92465 0.0
H143 H 0.75045 0.28318 0.06133 0.0
H144 H 0.73513 0.33869 0.06756 0.0
H145 H 0.71908 0.45475 0.97615 0.0
H146 H 0.70036 0.35763 0.94207 0.0
O147 O 0.77505 0.41392 0.99379 0.0
H148 H 0.67867 0.47216 0.92139 0.0
H149 H 0.66008 0.37496 0.8868 0.0
C150 C 0.72858 0.40241 0.06093 0.0
C151 C 0.75035 0.40814 0.09611 0.0
C152 C 0.73982 0.415 0.14044 0.0
C153 C 0.70732 0.41615 0.15022 0.0
C154 C 0.68561 0.40974 0.11497 0.0
C155 C 0.69618 0.40267 0.07076 0.0
C156 C 0.75217 0.35192 -0.00024 0.0
C157 C 0.76642 0.34087 0.95955 0.0
C158 C 0.77494 0.3091 0.95582 0.0
C159 C 0.76957 0.28792 0.9925 0.0
C160 C 0.75506 0.29906 0.0327 0.0
C161 C 0.74626 0.3308 0.0362 0.0
C162 C 0.71306 0.40501 0.96263 0.0
C163 C 0.70638 0.4372 0.95667 0.0
C164 C 0.68315 0.44707 0.92565 0.0
C165 C 0.66622 0.42486 0.89992 0.0
C166 C 0.67298 0.39255 0.90592 0.0
C167 C 0.69604 0.38267 0.93744 0.0
P168 P 0.69986 0.60664 0.00525 0.0
H169 H 0.70189 0.58522 0.91013 0.0
H170 H 0.6619 0.58343 0.84931 0.0
H171 H 0.59561 0.63081 0.9384 0.0
H172 H 0.63553 0.63231 0.99896 0.0
H173 H 0.76402 0.61408 0.03855 0.0
H174 H 0.79924 0.65946 0.04331 0.0
H175 H 0.72935 0.71758 0.97437 0.0
H176 H 0.69437 0.67175 0.96909 0.0
H177 H 0.66484 0.55717 0.05353 0.0
H178 H 0.68951 0.65454 0.07645 0.0
O179 O 0.72063 0.57323 0.00043 0.0
H180 H 0.63697 0.55564 0.1275 0.0
H181 H 0.66171 0.65324 0.14977 0.0
C182 C 0.6714 0.60821 0.95933 0.0
C183 C 0.67878 0.59535 0.9164 0.0
C184 C 0.65599 0.59451 0.88161 0.0
C185 C 0.62548 0.60662 0.88928 0.0
C186 C 0.6187 0.62072 0.93178 0.0
C187 C 0.64153 0.62165 0.96641 0.0
C188 C 0.72685 0.63941 0.0028 0.0
C189 C 0.75652 0.63643 0.02367 0.0
C190 C 0.77651 0.66249 0.02674 0.0
C191 C 0.76706 0.6922 0.00939 0.0
C192 C 0.7375 0.69495 0.98755 0.0
C193 C 0.71746 0.66878 0.98455 0.0
C194 C 0.67981 0.60572 0.05992 0.0
C195 C 0.66439 0.57814 0.07457 0.0
C196 C 0.6483 0.57736 0.11663 0.0
C197 C 0.64739 0.60424 0.14466 0.0
C198 C 0.66251 0.63196 0.12941 0.0
C199 C 0.67841 0.63274 0.08734 0.0
P200 P 0.3363 0.68652 0.04039 0.0
H201 H 0.31101 0.69663 0.94669 0.0
H202 H 0.3213 0.67082 0.874 0.0
H203 H 0.3902 0.6101 0.94065 0.0
H204 H 0.37808 0.63484 0.01412 0.0
H205 H 0.32455 0.75181 0.06892 0.0
H206 H 0.27849 0.78668 0.06198 0.0
H207 H 0.22473 0.71003 0.00481 0.0
H208 H 0.27079 0.67504 0.01252 0.0
H209 H 0.36197 0.68314 0.13369 0.0
H210 H 0.30377 0.62581 0.04634 0.0
O211 O 0.36774 0.70912 0.05031 0.0
H212 H 0.36034 0.64224 0.1935 0.0
H213 H 0.30257 0.5844 0.10554 0.0
C214 C 0.34308 0.66708 0.98625 0.0
C215 C 0.32777 0.67729 0.94606 0.0
C216 C 0.33413 0.66274 0.90411 0.0
C217 C 0.35673 0.63829 0.90109 0.0
C218 C 0.37224 0.62836 0.94156 0.0
C219 C 0.36547 0.64264 0.98365 0.0
C220 C 0.30132 0.71105 0.04006 0.0
C221 C 0.30278 0.74237 0.05533 0.0
C222 C 0.27638 0.76225 0.05169 0.0
C223 C 0.24815 0.75115 0.03243 0.0
C224 C 0.24632 0.71929 0.0193 0.0
C225 C 0.27258 0.69931 0.02366 0.0
C226 C 0.33338 0.65724 0.0854 0.0
C227 C 0.34888 0.66169 0.12736 0.0
C228 C 0.34809 0.63818 0.16143 0.0
C229 C 0.33161 0.60985 0.15418 0.0
C230 C 0.31531 0.60597 0.11244 0.0
C231 C 0.3161 0.62954 0.07844 0.0
P232 P 0.89765 0.7521 0.52008 0.0
H233 H 0.91049 0.73308 0.61405 0.0
H234 H 0.91784 0.76296 0.68465 0.0
H235 H 0.91354 0.85021 0.60638 0.0
H236 H 0.90685 0.82019 0.5359 0.0
H237 H 0.86215 0.69773 0.48779 0.0
H238 H 0.80657 0.68294 0.49455 0.0
H239 H 0.7879 0.76861 0.56984 0.0
H240 H 0.84351 0.78277 0.56388 0.0
H241 H 0.94764 0.75501 0.45095 0.0
H242 H 0.85759 0.79977 0.47553 0.0
O243 O 0.9201 0.71965 0.51766 0.0
H244 H 0.95349 0.78576 0.3799 0.0
H245 H 0.86356 0.83111 0.40537 0.0
C246 C 0.90857 0.77435 0.56976 0.0
C247 C 0.91181 0.75862 0.61203 0.0
C248 C 0.91559 0.77573 0.65236 0.0
C249 C 0.91594 0.80895 0.65106 0.0
C250 C 0.9136 0.82464 0.60839 0.0
C251 C 0.90978 0.80746 0.56804 0.0
C252 C 0.85703 0.7409 0.52623 0.0
C253 C 0.8461 0.71313 0.50608 0.0
C254 C 0.81428 0.70493 0.50955 0.0
C255 C 0.79283 0.72463 0.5328 0.0
C256 C 0.8039 0.7527 0.55238 0.0
C257 C 0.83572 0.7608 0.549 0.0
C258 C 0.90195 0.7747 0.46796 0.0
C259 C 0.92912 0.77141 0.441 0.0
C260 C 0.93253 0.78919 0.40063 0.0
C261 C 0.90889 0.81078 0.3869 0.0
C262 C 0.88189 0.81425 0.41449 0.0
C263 C 0.87848 0.79638 0.45471 0.0
P264 P 0.23636 0.89277 0.52776 0.0
H265 H 0.24828 0.91876 0.61881 0.0
H266 H 0.21277 0.93606 0.67984 0.0
H267 H 0.13312 0.90021 0.60358 0.0
H268 H 0.169 0.8818 0.54378 0.0
H269 H 0.29022 0.86619 0.48069 0.0
H270 H 0.30825 0.8119 0.46895 0.0
H271 H 0.23448 0.77773 0.55869 0.0
H272 H 0.21583 0.83229 0.56948 0.0
H273 H 0.19735 0.94643 0.50102 0.0
H274 H 0.22619 0.85794 0.44125 0.0
O275 O 0.26652 0.91798 0.52956 0.0
H276 H 0.16503 0.95799 0.43351 0.0
H277 H 0.19559 0.8701 0.37276 0.0
C278 C 0.21114 0.89971 0.5764 0.0
C279 C 0.22323 0.91416 0.61567 0.0
C280 C 0.20284 0.9243 0.65031 0.0
C281 C 0.16997 0.92023 0.64611 0.0
C282 C 0.15824 0.90375 0.60801 0.0
C283 C 0.17873 0.89337 0.57361 0.0
C284 C 0.25197 0.85325 0.52635 0.0
C285 C 0.27822 0.84711 0.49847 0.0
C286 C 0.28833 0.81615 0.49149 0.0
C287 C 0.27258 0.79085 0.51279 0.0
C288 C 0.24696 0.797 0.54207 0.0
C289 C 0.23642 0.82808 0.54834 0.0
C290 C 0.21404 0.90129 0.47644 0.0
C291 C 0.19696 0.92963 0.47317 0.0
C292 C 0.17866 0.93629 0.43434 0.0
C293 C 0.17761 0.91495 0.39756 0.0
C294 C 0.19529 0.88679 0.40073 0.0
C295 C 0.21319 0.87995 0.4399 0.0
P296 P 0.19333 0.1187 0.51289 0.0
H297 H 0.16979 0.06256 0.46956 0.0
H298 H 0.13365 0.054 0.40576 0.0
H299 H 0.13072 0.15446 0.37848 0.0
H300 H 0.16709 0.16297 0.44319 0.0
H301 H 0.25347 0.14108 0.47613 0.0
H302 H 0.28439 0.18879 0.49014 0.0
H303 H 0.20787 0.22645 0.57151 0.0
H304 H 0.1772 0.17874 0.55748 0.0
H305 H 0.12432 0.12537 0.52391 0.0
H306 H 0.20508 0.10337 0.60896 0.0
O307 O 0.22059 0.09016 0.51612 0.0
H308 H 0.09003 0.12311 0.59158 0.0
H309 H 0.17092 0.10107 0.67667 0.0
C310 C 0.1714 0.11331 0.46066 0.0
C311 C 0.16196 0.08272 0.44928 0.0
C312 C 0.14116 0.07788 0.41296 0.0
C313 C 0.12931 0.10358 0.38726 0.0
C314 C 0.13974 0.13423 0.39752 0.0
C315 C 0.16046 0.1391 0.4344 0.0
C316 C 0.21333 0.1561 0.51645 0.0
C317 C 0.24321 0.15981 0.49645 0.0
C318 C 0.26082 0.18713 0.50442 0.0
C319 C 0.24877 0.21119 0.53257 0.0
C320 C 0.21808 0.20804 0.55051 0.0
C321 C 0.20044 0.18081 0.54229 0.0
C322 C 0.16724 0.1141 0.56138 0.0
C323 C 0.13463 0.11951 0.55696 0.0
C324 C 0.115 0.11817 0.59563 0.0
C325 C 0.1278 0.11198 0.63937 0.0
C326 C 0.16042 0.10615 0.64344 0.0
C327 C 0.17994 0.10727 0.60478 0.0
P328 P 0.8551 0.20425 0.49355 0.0
H329 H 0.85481 0.21515 0.3941 0.0
H330 H 0.8515 0.17967 0.32832 0.0
H331 H 0.84622 0.09973 0.42179 0.0
H332 H 0.84776 0.1353 0.48667 0.0
H333 H 0.8383 0.25632 0.55438 0.0
H334 H 0.79219 0.29176 0.55699 0.0
H335 H 0.74629 0.23553 0.45381 0.0
H336 H 0.7919 0.20024 0.4516 0.0
H337 H 0.91497 0.17462 0.51612 0.0
H338 H 0.82315 0.18334 0.57891 0.0
O339 O 0.88312 0.23062 0.48128 0.0
H340 H 0.93182 0.13889 0.57811 0.0
H341 H 0.83996 0.14771 0.64134 0.0
C342 C 0.85209 0.17789 0.44529 0.0
C343 C 0.85282 0.18995 0.40024 0.0
C344 C 0.85111 0.16958 0.36266 0.0
C345 C 0.84871 0.13667 0.36946 0.0
C346 C 0.84753 0.12487 0.41489 0.0
C347 C 0.84883 0.14526 0.45231 0.0
C348 C 0.81878 0.2259 0.50236 0.0
C349 C 0.81799 0.25126 0.5331 0.0
C350 C 0.79164 0.27143 0.53469 0.0
C351 C 0.76587 0.26661 0.50517 0.0
C352 C 0.76602 0.24004 0.47651 0.0
C353 C 0.79217 0.21982 0.47524 0.0
C354 C 0.86799 0.18196 0.54328 0.0
C355 C 0.89864 0.16932 0.54378 0.0
C356 C 0.90818 0.14873 0.57901 0.0
C357 C 0.88722 0.1405 0.61456 0.0
C358 C 0.85675 0.15394 0.61468 0.0
C359 C 0.8471 0.1743 0.57904 0.0
H360 H 0.11454 0.13978 0.07919 0.0
H361 H 0.07477 0.15422 0.94297 0.0
H362 H 0.11006 0.19959 0.9306 0.0
H363 H 0.12983 0.22506 0.10472 0.0
H364 H 0.16639 0.21551 0.13352 0.0
H365 H 0.13409 0.18787 0.13489 0.0
H366 H 0.17076 0.14459 0.1018 0.0
H367 H 0.20304 0.17199 0.09995 0.0
H368 H 0.19121 0.15193 0.04839 0.0
H369 H 0.15472 0.2377 0.92822 0.0
H370 H 0.20509 0.26641 0.93683 0.0
H371 H 0.21594 0.22697 0.07413 0.0
C372 C 0.11256 0.15303 0.04728 0.0
C373 C 0.09179 0.14347 0.01212 0.0
C374 C 0.09038 0.16113 0.97051 0.0
C375 C 0.11028 0.18705 0.9632 0.0
C376 C 0.13124 0.19518 0.99796 0.0
C377 C 0.13233 0.17887 0.03936 0.0
C378 C 0.15922 0.19019 0.06915 0.0
C379 C 0.14662 0.20558 0.11317 0.0
C380 C 0.18242 0.16307 0.08044 0.0
C381 C 0.1739 0.21445 0.0372 0.0
C382 C 0.15714 0.21733 0.9966 0.0
C383 C 0.16771 0.23618 0.96021 0.0
C384 C 0.19639 0.2522 0.96525 0.0
C385 C 0.21415 0.24912 0.00627 0.0
C386 C 0.20239 0.23044 0.04289 0.0
H387 H 0.87268 0.13799 0.06339 0.0
H388 H 0.85174 0.10057 0.92835 0.0
H389 H 0.81365 0.14375 0.91497 0.0
H390 H 0.7914 0.16837 0.08861 0.0
H391 H 0.8065 0.20305 0.11644 0.0
H392 H 0.82861 0.16661 0.11863 0.0
H393 H 0.8773 0.19509 0.0845 0.0
H394 H 0.85551 0.23161 0.08193 0.0
H395 H 0.87357 0.21624 0.03064 0.0
H396 H 0.7831 0.19398 0.91196 0.0
H397 H 0.76143 0.24791 0.92028 0.0
H398 H 0.80226 0.25324 0.05676 0.0
C399 C 0.85938 0.13834 0.03162 0.0
C400 C 0.86508 0.11578 0.99709 0.0
C401 C 0.84775 0.11753 0.95542 0.0
C402 C 0.82594 0.14191 0.94752 0.0
C403 C 0.82155 0.16429 0.98169 0.0
C404 C 0.83757 0.16264 0.02308 0.0
C405 C 0.83063 0.19131 0.05227 0.0
C406 C 0.81324 0.18175 0.09661 0.0
C407 C 0.86106 0.20964 0.06292 0.0
C408 C 0.80918 0.2098 0.02009 0.0
C409 C 0.80391 0.19358 0.97984 0.0
C410 C 0.78662 0.20673 0.94361 0.0
C411 C 0.77462 0.23741 0.94849 0.0
C412 C 0.78006 0.25461 0.98921 0.0
C413 C 0.79718 0.24036 0.02564 0.0
H414 H 0.84934 0.85753 0.9467 0.0
H415 H 0.88678 0.85672 0.08585 0.0
H416 H 0.86191 0.80513 0.1002 0.0
H417 H 0.77469 0.82332 0.97458 0.0
H418 H 0.77228 0.80004 0.92315 0.0
H419 H 0.79407 0.8365 0.92268 0.0
H420 H 0.84395 0.80687 0.89426 0.0
H421 H 0.82225 0.77033 0.89443 0.0
H422 H 0.85852 0.77327 0.92652 0.0
H423 H 0.83212 0.75459 0.10075 0.0
H424 H 0.79893 0.70789 0.08744 0.0
H425 H 0.78043 0.74064 0.94805 0.0
C426 C 0.85247 0.84644 0.98011 0.0
C427 C 0.87007 0.86131 0.01511 0.0
C428 C 0.87345 0.84594 0.0584 0.0
C429 C 0.85942 0.81656 0.06694 0.0
C430 C 0.84206 0.80272 0.03191 0.0
C431 C 0.83852 0.81705 0.98934 0.0
C432 C 0.81804 0.79724 0.95807 0.0
C433 C 0.78799 0.81536 0.9438 0.0
C434 C 0.83681 0.78628 0.91582 0.0
C435 C 0.8104 0.76973 0.98996 0.0
C436 C 0.82469 0.77337 0.03227 0.0
C437 C 0.821 0.75132 0.06766 0.0
C438 C 0.80222 0.72477 0.05965 0.0
C439 C 0.78727 0.72041 0.01659 0.0
C440 C 0.79144 0.74334 0.98137 0.0
H441 H 0.12292 0.89088 0.07777 0.0
H442 H 0.09795 0.88317 0.9334 0.0
H443 H 0.13639 0.84009 0.92466 0.0
H444 H 0.20692 0.87654 0.06121 0.0
H445 H 0.21145 0.85412 0.11382 0.0
H446 H 0.18151 0.88438 0.10956 0.0
H447 H 0.13886 0.84353 0.1326 0.0
H448 H 0.16863 0.81309 0.13671 0.0
H449 H 0.13489 0.80783 0.09982 0.0
H450 H 0.17552 0.79673 0.93111 0.0
H451 H 0.21732 0.75824 0.95115 0.0
H452 H 0.21999 0.79454 0.09009 0.0
C453 C 0.12563 0.88016 0.04434 0.0
C454 C 0.10727 0.89049 0.00632 0.0
C455 C 0.11172 0.87591 0.96308 0.0
C456 C 0.13344 0.85124 0.95771 0.0
C457 C 0.15094 0.84148 0.99574 0.0
C458 C 0.14769 0.85563 0.03811 0.0
C459 C 0.17027 0.84088 0.07288 0.0
C460 C 0.19394 0.86545 0.09039 0.0
C461 C 0.15206 0.82541 0.11287 0.0
C462 C 0.18646 0.8162 0.04334 0.0
C463 C 0.1746 0.81684 0.99911 0.0
C464 C 0.18513 0.79603 0.96558 0.0
C465 C 0.20871 0.77412 0.97735 0.0
C466 C 0.22179 0.77335 0.02213 0.0
C467 C 0.21046 0.79471 0.05554 0.0
H468 H 0.63895 0.63232 0.46096 0.0
H469 H 0.6051 0.64539 0.60024 0.0
H470 H 0.64867 0.6825 0.61477 0.0
H471 H 0.71665 0.62736 0.48777 0.0
H472 H 0.73143 0.648 0.43778 0.0
H473 H 0.69428 0.62774 0.43501 0.0
H474 H 0.66626 0.67935 0.40875 0.0
H475 H 0.70349 0.69982 0.41072 0.0
H476 H 0.67016 0.71453 0.44269 0.0
H477 H 0.70017 0.71102 0.61782 0.0
H478 H 0.75494 0.72979 0.60876 0.0
H479 H 0.75496 0.69834 0.46717 0.0
C480 C 0.64006 0.64371 0.49409 0.0
C481 C 0.61857 0.636 0.52956 0.0
C482 C 0.62121 0.65108 0.57261 0.0
C483 C 0.64585 0.67223 0.5811 0.0
C484 C 0.66743 0.67829 0.54596 0.0
C485 C 0.66455 0.66474 0.50311 0.0
C486 C 0.6926 0.67236 0.47284 0.0
C487 C 0.70974 0.64206 0.45749 0.0
C488 C 0.68252 0.69274 0.4313 0.0
C489 C 0.71242 0.69105 0.50606 0.0
C490 C 0.69728 0.69469 0.54778 0.0
C491 C 0.71198 0.70898 0.58498 0.0
C492 C 0.74308 0.71959 0.57949 0.0
C493 C 0.75918 0.71563 0.53721 0.0
C494 C 0.74333 0.70162 0.49994 0.0
H495 H 0.3651 0.63152 0.56348 0.0
H496 H 0.36501 0.6164 0.416 0.0
H497 H 0.32751 0.66059 0.40603 0.0
H498 H 0.28046 0.65807 0.57298 0.0
H499 H 0.2903 0.68702 0.61566 0.0
H500 H 0.31268 0.65078 0.61224 0.0
H501 H 0.36424 0.683 0.60404 0.0
H502 H 0.34215 0.71928 0.607 0.0
H503 H 0.36757 0.71202 0.5585 0.0
H504 H 0.29754 0.71093 0.41029 0.0
H505 H 0.27529 0.76333 0.42911 0.0
H506 H 0.29364 0.74585 0.57368 0.0
C507 C 0.35645 0.63685 0.52923 0.0
C508 C 0.36797 0.62043 0.49053 0.0
C509 C 0.35653 0.62859 0.44619 0.0
C510 C 0.33511 0.65359 0.44017 0.0
C511 C 0.32512 0.67003 0.47884 0.0
C512 C 0.33511 0.66181 0.5226 0.0
C513 C 0.32329 0.68523 0.55782 0.0
C514 C 0.30031 0.66932 0.59167 0.0
C515 C 0.35096 0.7008 0.5833 0.0
C516 C 0.30629 0.70865 0.52675 0.0
C517 C 0.3073 0.69917 0.48138 0.0
C518 C 0.29591 0.71826 0.44574 0.0
C519 C 0.28349 0.74796 0.45667 0.0
C520 C 0.28252 0.7582 0.50278 0.0
C521 C 0.2935 0.73808 0.53831 0.0
H522 H 0.36945 0.35249 0.48809 0.0
H523 H 0.36316 0.37429 0.63336 0.0
H524 H 0.32722 0.32888 0.64472 0.0
H525 H 0.29005 0.33126 0.47185 0.0
H526 H 0.29851 0.29961 0.43263 0.0
H527 H 0.32503 0.33262 0.43652 0.0
H528 H 0.37159 0.29468 0.45453 0.0
H529 H 0.34536 0.26145 0.45019 0.0
H530 H 0.36835 0.2669 0.50164 0.0
H531 H 0.28946 0.28274 0.63879 0.0
H532 H 0.25559 0.23781 0.6174 0.0
H533 H 0.2872 0.24656 0.47596 0.0
C534 C 0.36078 0.34766 0.52246 0.0
C535 C 0.36911 0.36703 0.55988 0.0
C536 C 0.35724 0.35972 0.60424 0.0
C537 C 0.33673 0.33404 0.61096 0.0
C538 C 0.32859 0.31581 0.57305 0.0
C539 C 0.34054 0.32213 0.52977 0.0
C540 C 0.32799 0.29926 0.49454 0.0
C541 C 0.30928 0.31674 0.45667 0.0
C542 C 0.35493 0.2794 0.47403 0.0
C543 C 0.30658 0.27931 0.52456 0.0
C544 C 0.30725 0.2892 0.56973 0.0
C545 C 0.28888 0.27474 0.60358 0.0
C546 C 0.26952 0.24941 0.59101 0.0
C547 C 0.26868 0.2387 0.54498 0.0
C548 C 0.28754 0.25397 0.51148 0.0
H549 H 0.62447 0.38283 0.58125 0.0
H550 H 0.61404 0.40477 0.43567 0.0
H551 H 0.6597 0.3713 0.4183 0.0
H552 H 0.71174 0.38001 0.58068 0.0
H553 H 0.71375 0.3474 0.62091 0.0
H554 H 0.68115 0.37487 0.6232 0.0
H555 H 0.64186 0.32855 0.61561 0.0
H556 H 0.67427 0.30093 0.61303 0.0
H557 H 0.64532 0.30212 0.56761 0.0
H558 H 0.70318 0.33294 0.41461 0.0
H559 H 0.74502 0.29301 0.4256 0.0
H560 H 0.72989 0.29508 0.57312 0.0
C561 C 0.63206 0.38085 0.54584 0.0
C562 C 0.61539 0.39643 0.50988 0.0
C563 C 0.62608 0.39303 0.46394 0.0
C564 C 0.65214 0.37407 0.45358 0.0
C565 C 0.66756 0.35854 0.48945 0.0
C566 C 0.65825 0.36179 0.5347 0.0
C567 C 0.67881 0.3415 0.56622 0.0
C568 C 0.69747 0.36219 0.59974 0.0
C569 C 0.65887 0.31681 0.59214 0.0
C570 C 0.70056 0.32598 0.53134 0.0
C571 C 0.6935 0.33634 0.48733 0.0
C572 C 0.70914 0.32476 0.44891 0.0
C573 C 0.7327 0.30192 0.45546 0.0
C574 C 0.74058 0.29084 0.5001 0.0
C575 C 0.72446 0.30329 0.53863 0.0
H576 H 0.04685 0.10492 0.13851 0.0
H577 H 0.97482 0.04514 0.19945 0.0
H578 H 0.00109 0.04887 0.27478 0.0
H579 H 0.11469 0.07722 0.20379 0.0
H580 H 0.13072 0.1162 0.20898 0.0
H581 H 0.10611 0.10681 0.16055 0.0
H582 H 0.07111 0.15514 0.18284 0.0
H583 H 0.09508 0.16224 0.23285 0.0
H584 H 0.05318 0.15618 0.23905 0.0
H585 H 0.03537 0.05665 0.34179 0.0
H586 H 0.07608 0.06914 0.39915 0.0
H587 H 0.126 0.12577 0.29757 0.0
C588 C 0.03688 0.09253 0.16778 0.0
C589 C 0.00902 0.07451 0.16336 0.0
C590 C 0.99613 0.05908 0.20235 0.0
C591 C 0.0109 0.06101 0.24517 0.0
C592 C 0.03829 0.07888 0.24858 0.0
C593 C 0.05116 0.09462 0.2112 0.0
C594 C 0.08033 0.11303 0.22523 0.0
C595 C 0.10965 0.10265 0.19799 0.0
C596 C 0.07456 0.14877 0.21967 0.0
C597 C 0.08269 0.10361 0.27567 0.0
C598 C 0.05784 0.08429 0.2883 0.0
C599 C 0.05487 0.07188 0.33252 0.0
C600 C 0.0782 0.07894 0.36475 0.0
C601 C 0.10424 0.0982 0.35268 0.0
C602 C 0.10624 0.11112 0.30771 0.0
H603 H 0.90682 0.06469 0.1304 0.0
H604 H 0.85573 0.97971 0.16798 0.0
H605 H 0.83314 0.00703 0.23468 0.0
H606 H 0.93009 0.0824 0.24367 0.0
H607 H 0.92696 0.12472 0.23751 0.0
H608 H 0.93569 0.10099 0.18825 0.0
H609 H 0.88794 0.12424 0.14479 0.0
H610 H 0.87859 0.14871 0.19331 0.0
H611 H 0.84921 0.12247 0.17043 0.0
H612 H 0.81861 0.04206 0.30002 0.0
H613 H 0.81543 0.08126 0.36178 0.0
H614 H 0.8807 0.14168 0.28675 0.0
C615 C 0.89117 0.05174 0.15263 0.0
C616 C 0.88365 0.01983 0.144 0.0
C617 C 0.86206 0.00413 0.17364 0.0
C618 C 0.84901 0.01947 0.21171 0.0
C619 C 0.85787 0.05051 0.2201 0.0
C620 C 0.87861 0.06647 0.1916 0.0
C621 C 0.88633 0.09881 0.21062 0.0
C622 C 0.92187 0.10187 0.22062 0.0
C623 C 0.87482 0.12512 0.17783 0.0
C624 C 0.86717 0.09818 0.25469 0.0
C625 C 0.85049 0.07035 0.25897 0.0
C626 C 0.83165 0.06393 0.29713 0.0
C627 C 0.83027 0.08628 0.33232 0.0
C628 C 0.84811 0.11456 0.32974 0.0
C629 C 0.86641 0.12062 0.28983 0.0
H630 H 0.0024 0.90852 0.19629 0.0
H631 H 0.91475 0.9159 0.11991 0.0
H632 H 0.887 0.88764 0.18192 0.0
H633 H 0.99079 0.83131 0.23916 0.0
H634 H 0.00818 0.83884 0.29451 0.0
H635 H 0.02075 0.86118 0.24487 0.0
H636 H 0.00725 0.91341 0.28626 0.0
H637 H 0.9948 0.89132 0.33626 0.0
H638 H 0.96816 0.91921 0.30937 0.0
H639 H 0.86953 0.85609 0.25113 0.0
H640 H 0.86341 0.82478 0.32265 0.0
H641 H 0.96248 0.83939 0.35426 0.0
C642 C 0.9773 0.90445 0.19249 0.0
C643 C 0.96076 0.91447 0.15266 0.0
C644 C 0.92798 0.90859 0.14957 0.0
C645 C 0.91199 0.8925 0.18486 0.0
C646 C 0.92917 0.88264 0.22324 0.0
C647 C 0.96107 0.88857 0.22737 0.0
C648 C 0.97432 0.87498 0.27161 0.0
C649 C 2e-05 0.8501 0.26193 0.0
C650 C 0.98686 0.90131 0.30271 0.0
C651 C 0.94492 0.86 0.29147 0.0
C652 C 0.91909 0.86477 0.26316 0.0
C653 C 0.8895 0.85247 0.27382 0.0
C654 C 0.88624 0.83485 0.31458 0.0
C655 C 0.91244 0.8297 0.34409 0.0
C656 C 0.94208 0.84262 0.33224 0.0
H657 H 0.10338 0.025 0.20192 0.0
H658 H 0.06532 0.94076 0.13967 0.0
H659 H 0.08699 0.90844 0.20325 0.0
H660 H 0.17652 0.98923 0.23645 0.0
H661 H 0.17922 0.01172 0.28861 0.0
H662 H 0.15893 0.02804 0.2394 0.0
H663 H 0.10939 0.03656 0.2888 0.0
H664 H 0.1288 0.01977 0.3384 0.0
H665 H 0.09177 0.00372 0.31915 0.0
H666 H 0.11299 0.88561 0.27449 0.0
H667 H 0.14343 0.87358 0.34488 0.0
H668 H 0.16823 0.97276 0.35583 0.0
C669 C 0.09951 -0.00017 0.20158 0.0
C670 C 0.08209 0.98556 0.16612 0.0
C671 C 0.07787 0.95238 0.16688 0.0
C672 C 0.09029 0.93379 0.20279 0.0
C673 C 0.10732 0.94875 0.23723 0.0
C674 C 0.11223 0.98099 0.23656 0.0
C675 C 0.13257 0.99125 0.27634 0.0
C676 C 0.16366 0.0059 0.25915 0.0
C677 C 0.11451 0.01416 0.30756 0.0
C678 C 0.13817 0.95973 0.29985 0.0
C679 C 0.12328 0.93552 0.27697 0.0
C680 C 0.12497 0.90434 0.2925 0.0
C681 C 0.14253 0.89773 0.33234 0.0
C682 C 0.15845 0.92216 0.35594 0.0
C683 C 0.15606 0.95354 0.3392 0.0
H684 H 0.11419 0.05093 0.82353 0.0
H685 H 0.03264 0.99253 0.85402 0.0
H686 H 0.04904 0.9552 0.7937 0.0
H687 H 0.11364 0.03726 0.69826 0.0
H688 H 0.15615 0.03747 0.69504 0.0
H689 H 0.13621 0.0607 0.73783 0.0
H690 H 0.16895 0.03302 0.80169 0.0
H691 H 0.18878 0.00935 0.75946 0.0
H692 H 0.1683 0.99052 0.80659 0.0
H693 H 0.07793 0.92133 0.73592 0.0
H694 H 0.11453 0.89592 0.68118 0.0
H695 H 0.17556 0.97802 0.6868 0.0
C696 C 0.09952 0.03054 0.81712 0.0
C697 C 0.07234 0.02444 0.84377 0.0
C698 C 0.05365 0.99759 0.83411 0.0
C699 C 0.06279 0.97622 0.79996 0.0
C700 C 0.09041 0.98236 0.77542 0.0
C701 C 0.10817 0.00915 0.78305 0.0
C702 C 0.13722 0.00996 0.75289 0.0
C703 C 0.1357 0.03801 0.71897 0.0
C704 C 0.1676 0.01075 0.78191 0.0
C705 C 0.13374 0.97884 0.72838 0.0
C706 C 0.10651 0.96332 0.74151 0.0
C707 C 0.09908 0.93349 0.72483 0.0
C708 C 0.12 0.91927 0.69372 0.0
C709 C 0.14802 0.93489 0.6797 0.0
C710 C 0.15466 0.96516 0.69725 0.0
H711 H 0.98279 0.06944 0.80619 0.0
H712 H 0.02866 0.12799 0.9079 0.0
H713 H 0.07055 0.141 0.85238 0.0
H714 H 0.05037 0.03831 0.74959 0.0
H715 H 0.03387 0.04205 0.69299 0.0
H716 H 0.00818 0.0372 0.74192 0.0
H717 H 0.97896 0.08888 0.7168 0.0
H718 H 0.00568 0.09353 0.669 0.0
H719 H 0.00111 0.12488 0.70999 0.0
H720 H 0.10945 0.1442 0.78969 0.0
H721 H 0.14124 0.14232 0.71887 0.0
H722 H 0.06923 0.08514 0.65409 0.0
C723 C 0.0016 0.08512 0.81653 0.0
C724 C 0.00282 0.09734 0.86162 0.0
C725 C 0.02741 0.11821 0.87373 0.0
C726 C 0.05133 0.12573 0.84245 0.0
C727 C 0.04986 0.1129 0.79869 0.0
C728 C 0.02533 0.09365 0.78516 0.0
C729 C 0.02896 0.0844 0.73509 0.0
C730 C 0.0304 0.04834 0.72964 0.0
C731 C 0.00209 0.09879 0.70599 0.0
C732 C 0.06042 0.0998 0.72382 0.0
C733 C 0.07179 0.11627 0.76107 0.0
C734 C 0.10075 0.13165 0.76006 0.0
C735 C 0.11873 0.13025 0.71983 0.0
C736 C 0.10776 0.11353 0.6811 0.0
C737 C 0.07802 0.09837 0.68304 0.0
H738 H 0.88801 0.0596 0.8628 0.0
H739 H 0.92481 0.97486 0.79885 0.0
H740 H 0.92995 0.00399 0.72505 0.0
H741 H 0.84065 0.08462 0.7724 0.0
H742 H 0.8481 0.12623 0.77917 0.0
H743 H 0.85107 0.09998 0.82797 0.0
H744 H 0.90857 0.11831 0.84269 0.0
H745 H 0.90547 0.1451 0.7943 0.0
H746 H 0.93707 0.11649 0.79674 0.0
H747 H 0.92752 0.04152 0.65722 0.0
H748 H 0.91566 0.08342 0.59996 0.0
H749 H 0.87911 0.1431 0.70821 0.0
C750 C 0.89748 0.0472 0.83344 0.0
C751 C 0.90588 0.01489 0.83646 0.0
C752 C 0.91806 0.99955 0.79718 0.0
C753 C 0.92126 0.01597 0.75525 0.0
C754 C 0.91223 0.0477 0.75329 0.0
C755 C 0.90066 0.06315 0.79141 0.0
C756 C 0.89075 0.09669 0.77971 0.0
C757 C 0.85556 0.10218 0.79044 0.0
C758 C 0.91172 0.12056 0.80486 0.0
C759 C 0.89706 0.09727 0.72849 0.0
C760 C 0.91018 0.06906 0.71413 0.0
C761 C 0.91746 0.06377 0.66813 0.0
C762 C 0.91073 0.08773 0.6359 0.0
C763 C 0.89645 0.11648 0.64967 0.0
C764 C 0.88988 0.12131 0.6967 0.0
H765 H 0.98875 0.93319 0.82428 0.0
H766 H 0.93433 0.88641 0.93127 0.0
H767 H 0.90641 0.8556 0.87272 0.0
H768 H 0.92632 0.93281 0.73286 0.0
H769 H 0.95498 0.92457 0.68873 0.0
H770 H 0.96613 0.9473 0.7382 0.0
H771 H 0.01182 0.90784 0.75446 0.0
H772 H 0.00051 0.88476 0.70564 0.0
H773 H 0.0031 0.86641 0.7617 0.0
H774 H 0.88954 0.8252 0.80477 0.0
H775 H 0.8844 0.79714 0.73129 0.0
H776 H 0.95176 0.86145 0.66846 0.0
C777 C 0.97038 0.91706 0.83525 0.0
C778 C 0.96322 0.91262 0.88229 0.0
C779 C 0.93955 0.8908 0.89538 0.0
C780 C 0.92366 0.87309 0.86236 0.0
C781 C 0.93183 0.87741 0.81638 0.0
C782 C 0.95453 0.89894 0.80271 0.0
C783 C 0.9613 0.89655 0.75173 0.0
C784 C 0.95159 0.92713 0.72639 0.0
C785 C 0.99624 0.88839 0.74291 0.0
C786 C 0.9398 0.86942 0.73935 0.0
C787 C 0.92263 0.85914 0.777 0.0
C788 C 0.90255 0.83324 0.77487 0.0
C789 C 0.90006 0.81726 0.73315 0.0
C790 C 0.91779 0.82705 0.69428 0.0
C791 C 0.93758 0.85373 0.69741 0.0
H792 H 0.55021 0.60558 0.63632 0.0
H793 H 0.46334 0.57369 0.70063 0.0
H794 H 0.48806 0.57782 0.77678 0.0
H795 H 0.60322 0.56431 0.7085 0.0
H796 H 0.63201 0.59542 0.7118 0.0
H797 H 0.60692 0.59263 0.66207 0.0
H798 H 0.5865 0.65064 0.67461 0.0
H799 H 0.61347 0.65297 0.72235 0.0
H800 H 0.57209 0.66141 0.7304 0.0
H801 H 0.52248 0.58198 0.84541 0.0
H802 H 0.56455 0.5881 0.90323 0.0
H803 H 0.62974 0.6171 0.79574 0.0
C804 C 0.53647 0.59956 0.66644 0.0
C805 C 0.50498 0.58905 0.6624 0.0
C806 C 0.48749 0.5819 0.70275 0.0
C807 C 0.50131 0.5841 0.74626 0.0
C808 C 0.53257 0.59381 0.74904 0.0
C809 C 0.5499 0.60179 0.7104 0.0
C810 C 0.5833 0.61104 0.72334 0.0
C811 C 0.60779 0.58956 0.70003 0.0
C812 C 0.58922 0.64608 0.71199 0.0
C813 C 0.58232 0.60557 0.77492 0.0
C814 C 0.55266 0.5961 0.789 0.0
C815 C 0.54575 0.58972 0.83493 0.0
C816 C 0.56975 0.59342 0.86753 0.0
C817 C 0.60035 0.60329 0.85407 0.0
C818 C 0.60664 0.60933 0.80704 0.0
H819 H 0.40608 0.50206 0.72369 0.0
H820 H 0.39464 0.57243 0.61578 0.0
H821 H 0.38162 0.61259 0.67324 0.0
H822 H 0.3402 0.52927 0.79164 0.0
H823 H 0.35906 0.52117 0.84607 0.0
H824 H 0.36915 0.49805 0.79649 0.0
H825 H 0.4281 0.51219 0.80684 0.0
H826 H 0.41825 0.53525 0.85662 0.0
H827 H 0.43952 0.55313 0.80952 0.0
H828 H 0.37098 0.64529 0.74179 0.0
H829 H 0.35944 0.66832 0.81714 0.0
H830 H 0.37297 0.57616 0.88176 0.0
C831 C 0.40086 0.52595 0.71222 0.0
C832 C 0.40236 0.53444 0.66507 0.0
C833 C 0.39488 0.56574 0.65153 0.0
C834 C 0.38718 0.58866 0.68403 0.0
C835 C 0.38651 0.57976 0.73016 0.0
C836 C 0.39275 0.54912 0.74437 0.0
C837 C 0.38915 0.54574 0.7961 0.0
C838 C 0.36281 0.52217 0.80827 0.0
C839 C 0.42063 0.536 0.81858 0.0
C840 C 0.3799 0.57932 0.80854 0.0
C841 C 0.37881 0.59849 0.7699 0.0
C842 C 0.37136 0.63048 0.77233 0.0
C843 C 0.36453 0.64328 0.8154 0.0
C844 C 0.36472 0.62411 0.85569 0.0
C845 C 0.37273 0.59164 0.85193 0.0
H846 H 0.432 0.41103 0.6652 0.0
H847 H 0.51304 0.45845 0.72312 0.0
H848 H 0.48991 0.45359 0.80049 0.0
H849 H 0.37154 0.44098 0.7503 0.0
H850 H 0.35153 0.40345 0.75161 0.0
H851 H 0.37107 0.41664 0.69981 0.0
H852 H 0.40404 0.36477 0.69872 0.0
H853 H 0.38443 0.35158 0.75016 0.0
H854 H 0.42693 0.35381 0.74867 0.0
H855 H 0.4624 0.43758 0.87143 0.0
H856 H 0.43425 0.40808 0.93224 0.0
H857 H 0.37174 0.36852 0.82981 0.0
C858 C 0.44427 0.4212 0.69408 0.0
C859 C 0.47405 0.43549 0.68832 0.0
C860 C 0.4901 0.4476 0.72694 0.0
C861 C 0.47701 0.44518 0.77094 0.0
C862 C 0.44789 0.43038 0.77578 0.0
C863 C 0.43171 0.41844 0.73849 0.0
C864 C 0.40307 0.39978 0.75391 0.0
C865 C 0.37248 0.4162 0.73797 0.0
C866 C 0.40475 0.36546 0.73687 0.0
C867 C 0.40681 0.40152 0.80568 0.0
C868 C 0.43226 0.42013 0.81743 0.0
C869 C 0.44212 0.42332 0.8628 0.0
C870 C 0.42616 0.4063 0.89704 0.0
C871 C 0.40089 0.38603 0.88568 0.0
C872 C 0.39056 0.38436 0.83955 0.0
H873 H 0.59652 0.45583 0.65005 0.0
H874 H 0.54245 0.53177 0.71076 0.0
H875 H 0.55678 0.51275 0.78828 0.0
H876 H 0.58207 0.39512 0.74491 0.0
H877 H 0.62189 0.38017 0.7407 0.0
H878 H 0.60221 0.39567 0.69029 0.0
H879 H 0.64834 0.4345 0.6768 0.0
H880 H 0.66811 0.41949 0.72716 0.0
H881 H 0.65952 0.46113 0.72196 0.0
H882 H 0.58304 0.4913 0.85721 0.0
H883 H 0.61987 0.46854 0.91439 0.0
H884 H 0.65831 0.40642 0.81046 0.0
C885 C 0.58678 0.46753 0.67985 0.0
C886 C 0.56828 0.49511 0.67486 0.0
C887 C 0.55673 0.51066 0.71427 0.0
C888 C 0.56455 0.49986 0.75835 0.0
C889 C 0.58385 0.47329 0.76239 0.0
C890 C 0.59469 0.45711 0.72432 0.0
C891 C 0.61833 0.43175 0.73824 0.0
C892 C 0.60534 0.39871 0.72793 0.0
C893 C 0.65046 0.43707 0.71465 0.0
C894 C 0.6202 0.43734 0.78961 0.0
C895 C 0.59959 0.46098 0.80282 0.0
C896 C 0.59884 0.47232 0.84759 0.0
C897 C 0.62001 0.45947 0.8797 0.0
C898 C 0.6418 0.4357 0.86682 0.0
C899 C 0.64141 0.42409 0.82141 0.0
H900 H 0.60233 0.50903 0.33207 0.0
H901 H 0.65503 0.46091 0.44017 0.0
H902 H 0.68492 0.43136 0.38161 0.0
H903 H 0.59872 0.43995 0.25403 0.0
H904 H 0.60114 0.46571 0.20447 0.0
H905 H 0.58306 0.47934 0.25672 0.0
H906 H 0.62349 0.52744 0.25432 0.0
H907 H 0.6409 0.51138 0.20318 0.0
H908 H 0.66507 0.51863 0.25293 0.0
H909 H 0.71106 0.40919 0.31082 0.0
H910 H 0.7297 0.39445 0.23326 0.0
H911 H 0.6596 0.45704 0.17216 0.0
C912 C 0.61999 0.49212 0.34347 0.0
C913 C 0.62643 0.48737 0.39069 0.0
C914 C 0.64971 0.46499 0.40418 0.0
C915 C 0.66683 0.44809 0.37117 0.0
C916 C 0.66023 0.45372 0.32488 0.0
C917 C 0.63714 0.47495 0.31104 0.0
C918 C 0.63478 0.47684 0.25917 0.0
C919 C 0.60253 0.4648 0.2426 0.0
C920 C 0.64144 0.51055 0.24136 0.0
C921 C 0.66083 0.45415 0.24598 0.0
C922 C 0.67507 0.44082 0.2843 0.0
C923 C 0.69998 0.41937 0.28057 0.0
C924 C 0.7105 0.41127 0.23645 0.0
C925 C 0.69603 0.42454 0.19677 0.0
C926 C 0.67085 0.4462 0.20184 0.0
H927 H 0.50523 0.57001 0.31933 0.0
H928 H 0.55943 0.6194 0.42269 0.0
H929 H 0.60244 0.6276 0.36678 0.0
H930 H 0.56739 0.53108 0.26755 0.0
H931 H 0.55551 0.53556 0.20825 0.0
H932 H 0.52623 0.53439 0.25323 0.0
H933 H 0.50283 0.58827 0.23162 0.0
H934 H 0.52927 0.58983 0.18315 0.0
H935 H 0.5285 0.62176 0.2237 0.0
H936 H 0.63977 0.62983 0.30019 0.0
H937 H 0.66812 0.62826 0.2261 0.0
H938 H 0.58912 0.57894 0.1649 0.0
C939 C 0.52607 0.5827 0.33016 0.0
C940 C 0.52927 0.59349 0.37576 0.0
C941 C 0.55678 0.61026 0.38833 0.0
C942 C 0.58127 0.61521 0.3567 0.0
C943 C 0.57761 0.60379 0.3123 0.0
C944 C 0.55051 0.58836 0.29875 0.0
C945 C 0.55241 0.57886 0.24874 0.0
C946 C 0.55026 0.54281 0.24407 0.0
C947 C 0.52673 0.59569 0.22012 0.0
C948 C 0.58506 0.59091 0.23651 0.0
C949 C 0.59908 0.60532 0.27368 0.0
C950 C 0.62899 0.61875 0.27075 0.0
C951 C 0.64484 0.61785 0.22849 0.0
C952 C 0.6308 0.60362 0.18967 0.0
C953 C 0.60061 0.58971 0.19405 0.0
H954 H 0.40545 0.5014 0.35338 0.0
H955 H 0.31385 0.45637 0.36627 0.0
H956 H 0.29366 0.48944 0.30224 0.0
H957 H 0.37762 0.57863 0.33029 0.0
H958 H 0.40801 0.58814 0.28907 0.0
H959 H 0.41581 0.55981 0.33424 0.0
H960 H 0.43178 0.51809 0.27393 0.0
H961 H 0.42423 0.54628 0.22842 0.0
H962 H 0.40469 0.50851 0.22839 0.0
H963 H 0.28268 0.52943 0.23959 0.0
H964 H 0.28222 0.57207 0.18104 0.0
H965 H 0.3814 0.58991 0.20798 0.0
C966 C 0.3812 0.49827 0.34256 0.0
C967 C 0.3612 0.47631 0.36493 0.0
C968 C 0.32963 0.473 0.34965 0.0
C969 C 0.31794 0.49168 0.31331 0.0
C970 C 0.33817 0.51341 0.29246 0.0
C971 C 0.3692 0.5166 0.30628 0.0
C972 C 0.38592 0.54203 0.27868 0.0
C973 C 0.3975 0.56873 0.30994 0.0
C974 C 0.41326 0.52787 0.25069 0.0
C975 C 0.35923 0.55309 0.24774 0.0
C976 C 0.33193 0.53621 0.2561 0.0
C977 C 0.304 0.54259 0.23238 0.0
C978 C 0.30401 0.56677 0.19905 0.0
C979 C 0.33177 0.58433 0.18972 0.0
C980 C 0.35969 0.57721 0.21454 0.0
H981 H 0.46423 0.42901 0.35236 0.0
H982 H 0.43022 0.36497 0.45862 0.0
H983 H 0.39332 0.34143 0.40304 0.0
H984 H 0.38701 0.43816 0.28908 0.0
H985 H 0.40749 0.4396 0.2349 0.0
H986 H 0.42624 0.4545 0.28589 0.0
H987 H 0.47384 0.41684 0.26987 0.0
H988 H 0.45415 0.40136 0.22028 0.0
H989 H 0.46692 0.37495 0.26565 0.0
H990 H 0.36527 0.32048 0.33402 0.0
H991 H 0.34822 0.30379 0.25673 0.0
H992 H 0.40151 0.38087 0.19568 0.0
C993 C 0.44864 0.4104 0.36417 0.0
C994 C 0.45001 0.39888 0.40983 0.0
C995 C 0.42937 0.37437 0.42389 0.0
C996 C 0.40828 0.3609 0.3926 0.0
C997 C 0.408 0.37237 0.34755 0.0
C998 C 0.42747 0.39675 0.33344 0.0
C999 C 0.4247 0.40286 0.28226 0.0
C1000 C 0.41053 0.43574 0.27249 0.0
C1001 C 0.4568 0.39873 0.25812 0.0
C1002 C 0.40182 0.37707 0.2694 0.0
C1003 C 0.39197 0.36013 0.30762 0.0
C1004 C 0.37244 0.33385 0.3039 0.0
C1005 C 0.36309 0.32441 0.2599 0.0
C1006 C 0.37348 0.34109 0.22025 0.0
C1007 C 0.39263 0.36806 0.22536 0.0
loop_
_geom_bond_atom_site_label_1
_geom_bond_atom_site_label_2
_geom_bond_distance
_geom_bond_site_symmetry_2
_ccdc_geom_bond_type
Zn0 O2 1.933 1_556 S
Zn0 O20 1.985 . S
Zn0 O31 1.955 . S
Zn1 O2 1.911 . S
Zn1 O21 1.970 . S
Zn1 O37 1.945 . S
Zn1 O44 1.981 . S
O2 Zn0 1.933 1_554 S
O2 Zn1 1.911 . S
O2 H3 0.841 1_655 S
H3 O2 0.841 1_455 S
C4 O5 1.246 . S
C4 O33 1.276 1_545 S
O5 C4 1.246 . S
Zn6 O8 1.911 . S
Zn6 O23 1.970 . S
Zn6 O40 1.945 . S
Zn6 O47 1.981 . S
Zn7 O8 1.933 1_556 S
Zn7 O22 1.985 . S
Zn7 O29 1.955 . S
O8 Zn6 1.911 . S
O8 Zn7 1.933 1_554 S
O8 H9 0.841 1_455 S
H9 O8 0.841 1_655 S
Zn10 O11 1.933 1_556 S
Zn10 O24 1.985 . S
Zn10 O33 1.955 . S
O11 Zn10 1.933 1_554 S
O11 Zn12 1.911 . S
O11 H13 0.841 1_565 S
Zn12 O11 1.911 . S
Zn12 O25 1.970 . S
Zn12 O41 1.981 . S
Zn12 O43 1.945 . S
H13 O11 0.841 1_545 S
Zn14 O15 1.933 1_556 S
Zn14 O27 1.985 . S
Zn14 O35 1.955 . S
O15 Zn14 1.933 1_554 S
O15 H16 0.841 1_545 S
O15 Zn17 1.911 . S
H16 O15 0.841 1_565 S
Zn17 O15 1.911 . S
Zn17 O28 1.970 . S
Zn17 O38 1.981 . S
Zn17 O46 1.945 . S
C18 O19 1.246 . S
C18 O35 1.276 1_565 S
O19 C18 1.246 . S
O20 Zn0 1.985 . S
O20 C30 1.245 1_556 S
O21 Zn1 1.970 . S
O21 C30 1.263 . S
O22 Zn7 1.985 . S
O22 C34 1.245 1_556 S
O23 Zn6 1.970 . S
O23 C34 1.263 . S
O24 Zn10 1.985 . S
O24 C39 1.245 1_556 S
O25 Zn12 1.970 . S
O25 C39 1.263 . S
C26 O37 1.262 1_455 S
C26 O38 1.245 . S
O27 Zn14 1.985 . S
O27 C45 1.245 1_556 S
O28 Zn17 1.970 . S
O28 C45 1.263 . S
O29 Zn7 1.955 . S
O29 C48 1.276 1_455 S
C30 O20 1.245 1_554 S
C30 O21 1.263 . S
O31 Zn0 1.955 . S
O31 C50 1.276 1_655 S
C32 O40 1.262 1_655 S
C32 O41 1.245 . S
O33 C4 1.276 1_565 S
O33 Zn10 1.955 . S
C34 O22 1.245 1_554 S
C34 O23 1.263 . S
O35 Zn14 1.955 . S
O35 C18 1.276 1_545 S
C36 O43 1.262 1_545 S
C36 O44 1.245 . S
O37 Zn1 1.945 . S
O37 C26 1.262 1_655 S
O38 Zn17 1.981 . S
O38 C26 1.245 . S
C39 O24 1.245 1_554 S
C39 O25 1.263 . S
O40 Zn6 1.945 . S
O40 C32 1.262 1_455 S
O41 Zn12 1.981 . S
O41 C32 1.245 . S
C42 O46 1.262 1_565 S
C42 O47 1.245 . S
O43 Zn12 1.945 . S
O43 C36 1.262 1_565 S
O44 Zn1 1.981 . S
O44 C36 1.245 . S
C45 O27 1.245 1_554 S
C45 O28 1.263 . S
O46 Zn17 1.945 . S
O46 C42 1.262 1_545 S
O47 Zn6 1.981 . S
O47 C42 1.245 . S
C48 O29 1.276 1_655 S
C48 O49 1.246 . S
O49 C48 1.246 . S
C50 O31 1.276 1_455 S
C50 O51 1.246 . S
O51 C50 1.246 . S
Zn52 O54 1.933 . S
Zn52 O72 1.985 . S
Zn52 O83 1.955 . S
Zn53 O54 1.911 . S
Zn53 O73 1.970 . S
Zn53 O89 1.945 . S
Zn53 O96 1.981 . S
O54 Zn52 1.933 . S
O54 Zn53 1.911 . S
O54 H55 0.841 . S
H55 O54 0.841 . S
C56 O57 1.246 . S
C56 O85 1.276 . S
O57 C56 1.246 . S
Zn58 O60 1.911 . S
Zn58 O75 1.970 . S
Zn58 O92 1.945 . S
Zn58 O99 1.981 . S
Zn59 O60 1.933 . S
Zn59 O74 1.985 . S
Zn59 O81 1.955 . S
O60 Zn58 1.911 . S
O60 Zn59 1.933 . S
O60 H61 0.841 . S
H61 O60 0.841 . S
Zn62 O63 1.933 . S
Zn62 O76 1.985 . S
Zn62 O85 1.955 . S
O63 Zn62 1.933 . S
O63 Zn64 1.911 . S
O63 H65 0.841 . S
Zn64 O63 1.911 . S
Zn64 O77 1.970 . S
Zn64 O93 1.981 . S
Zn64 O95 1.945 . S
H65 O63 0.841 . S
Zn66 O67 1.933 . S
Zn66 O79 1.985 . S
Zn66 O87 1.955 . S
O67 Zn66 1.933 . S
O67 H68 0.841 . S
O67 Zn69 1.911 . S
H68 O67 0.841 . S
Zn69 O67 1.911 . S
Zn69 O80 1.970 . S
Zn69 O90 1.981 . S
Zn69 O98 1.945 . S
C70 O71 1.246 . S
C70 O87 1.276 . S
O71 C70 1.246 . S
O72 Zn52 1.985 . S
O72 C82 1.245 . S
O73 Zn53 1.970 . S
O73 C82 1.263 . S
O74 Zn59 1.985 . S
O74 C86 1.245 . S
O75 Zn58 1.970 . S
O75 C86 1.263 . S
O76 Zn62 1.985 . S
O76 C91 1.245 . S
O77 Zn64 1.970 . S
O77 C91 1.263 . S
C78 O89 1.262 . S
C78 O90 1.245 . S
O79 Zn66 1.985 . S
O79 C97 1.245 . S
O80 Zn69 1.970 . S
O80 C97 1.263 . S
O81 Zn59 1.955 . S
O81 C100 1.276 . S
C82 O72 1.245 . S
C82 O73 1.263 . S
O83 Zn52 1.955 . S
O83 C102 1.276 . S
C84 O92 1.262 . S
C84 O93 1.245 . S
O85 C56 1.276 . S
O85 Zn62 1.955 . S
C86 O74 1.245 . S
C86 O75 1.263 . S
O87 Zn66 1.955 . S
O87 C70 1.276 . S
C88 O95 1.262 . S
C88 O96 1.245 . S
O89 Zn53 1.945 . S
O89 C78 1.262 . S
O90 Zn69 1.981 . S
O90 C78 1.245 . S
C91 O76 1.245 . S
C91 O77 1.263 . S
O92 Zn58 1.945 . S
O92 C84 1.262 . S
O93 Zn64 1.981 . S
O93 C84 1.245 . S
C94 O98 1.262 . S
C94 O99 1.245 . S
O95 Zn64 1.945 . S
O95 C88 1.262 . S
O96 Zn53 1.981 . S
O96 C88 1.245 . S
C97 O79 1.245 . S
C97 O80 1.263 . S
O98 Zn69 1.945 . S
O98 C94 1.262 . S
O99 Zn58 1.981 . S
O99 C94 1.245 . S
C100 O81 1.276 . S
C100 O101 1.246 . S
O101 C100 1.246 . S
C102 O83 1.276 . S
C102 O103 1.246 . S
O103 C102 1.246 . S
P104 O115 1.490 . S
P104 C118 1.812 . S
P104 C124 1.803 . S
P104 C130 1.819 1_554 S
H105 C119 0.941 . S
H106 C120 0.939 . S
H107 C122 0.940 . S
H108 C123 0.940 . S
H109 C125 0.939 1_556 S
H110 C126 0.942 1_556 S
H111 C128 0.940 . S
H112 C129 0.939 . S
H113 C131 0.941 . S
H114 C135 0.939 . S
O115 P104 1.490 . S
H116 C132 0.939 . S
H117 C134 0.940 . S
C118 P104 1.812 . S
C118 C119 1.389 . S
C118 C123 1.391 . S
C119 H105 0.941 . S
C119 C118 1.389 . S
C119 C120 1.397 . S
C120 H106 0.939 . S
C120 C119 1.397 . S
C120 C121 1.378 . S
C121 C120 1.378 . S
C121 C122 1.378 . S
C122 H107 0.940 . S
C122 C121 1.378 . S
C122 C123 1.396 . S
C123 H108 0.940 . S
C123 C118 1.391 . S
C123 C122 1.396 . S
C124 P104 1.803 . S
C124 C125 1.378 . S
C124 C129 1.400 . S
C125 H109 0.939 1_554 S
C125 C124 1.378 . S
C125 C126 1.361 . S
C126 H110 0.942 1_554 S
C126 C125 1.361 . S
C126 C127 1.369 . S
C127 C126 1.369 . S
C127 C128 1.404 . S
C128 H111 0.940 . S
C128 C127 1.404 . S
C128 C129 1.389 . S
C129 H112 0.939 . S
C129 C124 1.400 . S
C129 C128 1.389 . S
C130 P104 1.819 1_556 S
C130 C131 1.391 . S
C130 C135 1.391 . S
C131 H113 0.941 . S
C131 C130 1.391 . S
C131 C132 1.396 . S
C132 H116 0.939 . S
C132 C131 1.396 . S
C132 C133 1.397 . S
C133 C132 1.397 . S
C133 C134 1.385 . S
C134 H117 0.940 . S
C134 C133 1.385 . S
C134 C135 1.388 . S
C135 H114 0.939 . S
C135 C130 1.391 . S
C135 C134 1.388 . S
P136 O147 1.490 . S
P136 C150 1.812 . S
P136 C156 1.803 . S
P136 C162 1.819 1_554 S
H137 C151 0.941 . S
H138 C152 0.939 . S
H139 C154 0.940 . S
H140 C155 0.940 . S
H141 C157 0.939 1_556 S
H142 C158 0.946 . S
H143 C160 0.940 . S
H144 C161 0.939 . S
H145 C163 0.941 . S
H146 C167 0.939 . S
O147 P136 1.490 . S
H148 C164 0.939 . S
H149 C166 0.940 . S
C150 P136 1.812 . S
C150 C151 1.389 . S
C150 C155 1.391 . S
C151 H137 0.941 . S
C151 C150 1.389 . S
C151 C152 1.397 . S
C152 H138 0.939 . S
C152 C151 1.397 . S
C152 C153 1.378 . S
C153 C152 1.378 . S
C153 C154 1.378 . S
C154 H139 0.940 . S
C154 C153 1.378 . S
C154 C155 1.396 . S
C155 H140 0.940 . S
C155 C150 1.391 . S
C155 C154 1.396 . S
C156 P136 1.803 . S
C156 C157 1.378 . S
C156 C161 1.400 . S
C157 H141 0.939 1_554 S
C157 C156 1.378 . S
C157 C158 1.360 1_554 S
C158 H142 0.946 . S
C158 C157 1.360 1_556 S
C158 C159 1.366 1_556 S
C159 C158 1.366 1_554 S
C159 C160 1.404 . S
C160 H143 0.940 . S
C160 C159 1.404 . S
C160 C161 1.389 . S
C161 H144 0.939 . S
C161 C156 1.400 . S
C161 C160 1.389 . S
C162 P136 1.819 1_556 S
C162 C163 1.391 . S
C162 C167 1.391 . S
C163 H145 0.941 . S
C163 C162 1.391 . S
C163 C164 1.396 . S
C164 H148 0.939 . S
C164 C163 1.396 . S
C164 C165 1.397 . S
C165 C164 1.397 . S
C165 C166 1.385 . S
C166 H149 0.940 . S
C166 C165 1.385 . S
C166 C167 1.388 . S
C167 H146 0.939 . S
C167 C162 1.391 . S
C167 C166 1.388 . S
P168 O179 1.490 . S
P168 C182 1.812 1_554 S
P168 C188 1.803 . S
P168 C194 1.819 . S
H169 C183 0.941 . S
H170 C184 0.939 . S
H171 C186 0.940 . S
H172 C187 0.940 . S
H173 C189 0.939 . S
H174 C190 0.942 . S
H175 C192 0.945 . S
H176 C193 0.939 . S
H177 C195 0.941 . S
H178 C199 0.939 . S
O179 P168 1.490 . S
H180 C196 0.939 . S
H181 C198 0.940 . S
C182 P168 1.812 1_556 S
C182 C183 1.389 . S
C182 C187 1.391 . S
C183 H169 0.941 . S
C183 C182 1.389 . S
C183 C184 1.397 . S
C184 H170 0.939 . S
C184 C183 1.397 . S
C184 C185 1.378 . S
C185 C184 1.378 . S
C185 C186 1.378 . S
C186 H171 0.940 . S
C186 C185 1.378 . S
C186 C187 1.396 . S
C187 H172 0.940 . S
C187 C182 1.391 . S
C187 C186 1.396 . S
C188 P168 1.803 . S
C188 C189 1.378 . S
C188 C193 1.400 1_554 S
C189 H173 0.939 . S
C189 C188 1.378 . S
C189 C190 1.361 . S
C190 H174 0.942 . S
C190 C189 1.361 . S
C190 C191 1.369 . S
C191 C190 1.369 . S
C191 C192 1.399 1_554 S
C192 H175 0.945 . S
C192 C191 1.399 1_556 S
C192 C193 1.390 . S
C193 H176 0.939 . S
C193 C188 1.400 1_556 S
C193 C192 1.390 . S
C194 P168 1.819 . S
C194 C195 1.391 . S
C194 C199 1.391 . S
C195 H177 0.941 . S
C195 C194 1.391 . S
C195 C196 1.396 . S
C196 H180 0.939 . S
C196 C195 1.396 . S
C196 C197 1.397 . S
C197 C196 1.397 . S
C197 C198 1.385 . S
C198 H181 0.940 . S
C198 C197 1.385 . S
C198 C199 1.388 . S
C199 H178 0.939 . S
C199 C194 1.391 . S
C199 C198 1.388 . S
P200 O211 1.490 . S
P200 C214 1.812 1_554 S
P200 C220 1.803 . S
P200 C226 1.819 . S
H201 C215 0.941 . S
H202 C216 0.939 . S
H203 C218 0.940 . S
H204 C219 0.940 . S
H205 C221 0.939 . S
H206 C222 0.942 . S
H207 C224 0.940 1_556 S
H208 C225 0.939 . S
H209 C227 0.941 . S
H210 C231 0.939 . S
O211 P200 1.490 . S
H212 C228 0.939 . S
H213 C230 0.940 . S
C214 P200 1.812 1_556 S
C214 C215 1.389 . S
C214 C219 1.391 . S
C215 H201 0.941 . S
C215 C214 1.389 . S
C215 C216 1.397 . S
C216 H202 0.939 . S
C216 C215 1.397 . S
C216 C217 1.378 . S
C217 C216 1.378 . S
C217 C218 1.378 . S
C218 H203 0.940 . S
C218 C217 1.378 . S
C218 C219 1.396 . S
C219 H204 0.940 . S
C219 C214 1.391 . S
C219 C218 1.396 . S
C220 P200 1.803 . S
C220 C221 1.378 . S
C220 C225 1.400 1_554 S
C221 H205 0.939 . S
C221 C220 1.378 . S
C221 C222 1.361 . S
C222 H206 0.942 . S
C222 C221 1.361 . S
C222 C223 1.369 . S
C223 C222 1.369 . S
C223 C224 1.404 . S
C224 H207 0.940 1_554 S
C224 C223 1.404 . S
C224 C225 1.389 1_554 S
C225 H208 0.939 . S
C225 C220 1.400 1_556 S
C225 C224 1.389 1_556 S
C226 P200 1.819 . S
C226 C227 1.391 . S
C226 C231 1.391 . S
C227 H209 0.941 . S
C227 C226 1.391 . S
C227 C228 1.396 . S
C228 H212 0.939 . S
C228 C227 1.396 . S
C228 C229 1.397 . S
C229 C228 1.397 . S
C229 C230 1.385 . S
C230 H213 0.940 . S
C230 C229 1.385 . S
C230 C231 1.388 . S
C231 H210 0.939 . S
C231 C226 1.391 . S
C231 C230 1.388 . S
P232 O243 1.490 . S
P232 C246 1.812 . S
P232 C252 1.803 . S
P232 C258 1.819 . S
H233 C247 0.941 . S
H234 C248 0.939 . S
H235 C250 0.940 . S
H236 C251 0.940 . S
H237 C253 0.939 . S
H238 C254 0.942 . S
H239 C256 0.940 . S
H240 C257 0.939 . S
H241 C259 0.941 . S
H242 C263 0.939 . S
O243 P232 1.490 . S
H244 C260 0.939 . S
H245 C262 0.940 . S
C246 P232 1.812 . S
C246 C247 1.389 . S
C246 C251 1.391 . S
C247 H233 0.941 . S
C247 C246 1.389 . S
C247 C248 1.397 . S
C248 H234 0.939 . S
C248 C247 1.397 . S
C248 C249 1.378 . S
C249 C248 1.378 . S
C249 C250 1.378 . S
C250 H235 0.940 . S
C250 C249 1.378 . S
C250 C251 1.396 . S
C251 H236 0.940 . S
C251 C246 1.391 . S
C251 C250 1.396 . S
C252 P232 1.803 . S
C252 C253 1.378 . S
C252 C257 1.400 . S
C253 H237 0.939 . S
C253 C252 1.378 . S
C253 C254 1.361 . S
C254 H238 0.942 . S
C254 C253 1.361 . S
C254 C255 1.369 . S
C255 C254 1.369 . S
C255 C256 1.404 . S
C256 H239 0.940 . S
C256 C255 1.404 . S
C256 C257 1.389 . S
C257 H240 0.939 . S
C257 C252 1.400 . S
C257 C256 1.389 . S
C258 P232 1.819 . S
C258 C259 1.391 . S
C258 C263 1.391 . S
C259 H241 0.941 . S
C259 C258 1.391 . S
C259 C260 1.396 . S
C260 H244 0.939 . S
C260 C259 1.396 . S
C260 C261 1.397 . S
C261 C260 1.397 . S
C261 C262 1.385 . S
C262 H245 0.940 . S
C262 C261 1.385 . S
C262 C263 1.388 . S
C263 H242 0.939 . S
C263 C258 1.391 . S
C263 C262 1.388 . S
P264 O275 1.490 . S
P264 C278 1.812 . S
P264 C284 1.803 . S
P264 C290 1.819 . S
H265 C279 0.941 . S
H266 C280 0.939 . S
H267 C282 0.940 . S
H268 C283 0.940 . S
H269 C285 0.939 . S
H270 C286 0.942 . S
H271 C288 0.940 . S
H272 C289 0.939 . S
H273 C291 0.941 . S
H274 C295 0.939 . S
O275 P264 1.490 . S
H276 C292 0.939 . S
H277 C294 0.940 . S
C278 P264 1.812 . S
C278 C279 1.389 . S
C278 C283 1.391 . S
C279 H265 0.941 . S
C279 C278 1.389 . S
C279 C280 1.397 . S
C280 H266 0.939 . S
C280 C279 1.397 . S
C280 C281 1.378 . S
C281 C280 1.378 . S
C281 C282 1.378 . S
C282 H267 0.940 . S
C282 C281 1.378 . S
C282 C283 1.396 . S
C283 H268 0.940 . S
C283 C278 1.391 . S
C283 C282 1.396 . S
C284 P264 1.803 . S
C284 C285 1.378 . S
C284 C289 1.400 . S
C285 H269 0.939 . S
C285 C284 1.378 . S
C285 C286 1.361 . S
C286 H270 0.942 . S
C286 C285 1.361 . S
C286 C287 1.369 . S
C287 C286 1.369 . S
C287 C288 1.404 . S
C288 H271 0.940 . S
C288 C287 1.404 . S
C288 C289 1.389 . S
C289 H272 0.939 . S
C289 C284 1.400 . S
C289 C288 1.389 . S
C290 P264 1.819 . S
C290 C291 1.391 . S
C290 C295 1.391 . S
C291 H273 0.941 . S
C291 C290 1.391 . S
C291 C292 1.396 . S
C292 H276 0.939 . S
C292 C291 1.396 . S
C292 C293 1.397 . S
C293 C292 1.397 . S
C293 C294 1.385 . S
C294 H277 0.940 . S
C294 C293 1.385 . S
C294 C295 1.388 . S
C295 H274 0.939 . S
C295 C290 1.391 . S
C295 C294 1.388 . S
P296 O307 1.490 . S
P296 C310 1.812 . S
P296 C316 1.803 . S
P296 C322 1.819 . S
H297 C311 0.941 . S
H298 C312 0.939 . S
H299 C314 0.940 . S
H300 C315 0.940 . S
H301 C317 0.939 . S
H302 C318 0.942 . S
H303 C320 0.940 . S
H304 C321 0.939 . S
H305 C323 0.941 . S
H306 C327 0.939 . S
O307 P296 1.490 . S
H308 C324 0.939 . S
H309 C326 0.940 . S
C310 P296 1.812 . S
C310 C311 1.389 . S
C310 C315 1.391 . S
C311 H297 0.941 . S
C311 C310 1.389 . S
C311 C312 1.397 . S
C312 H298 0.939 . S
C312 C311 1.397 . S
C312 C313 1.378 . S
C313 C312 1.378 . S
C313 C314 1.378 . S
C314 H299 0.940 . S
C314 C313 1.378 . S
C314 C315 1.396 . S
C315 H300 0.940 . S
C315 C310 1.391 . S
C315 C314 1.396 . S
C316 P296 1.803 . S
C316 C317 1.378 . S
C316 C321 1.400 . S
C317 H301 0.939 . S
C317 C316 1.378 . S
C317 C318 1.361 . S
C318 H302 0.942 . S
C318 C317 1.361 . S
C318 C319 1.369 . S
C319 C318 1.369 . S
C319 C320 1.404 . S
C320 H303 0.940 . S
C320 C319 1.404 . S
C320 C321 1.389 . S
C321 H304 0.939 . S
C321 C316 1.400 . S
C321 C320 1.389 . S
C322 P296 1.819 . S
C322 C323 1.391 . S
C322 C327 1.391 . S
C323 H305 0.941 . S
C323 C322 1.391 . S
C323 C324 1.396 . S
C324 H308 0.939 . S
C324 C323 1.396 . S
C324 C325 1.397 . S
C325 C324 1.397 . S
C325 C326 1.385 . S
C326 H309 0.940 . S
C326 C325 1.385 . S
C326 C327 1.388 . S
C327 H306 0.939 . S
C327 C322 1.391 . S
C327 C326 1.388 . S
P328 O339 1.490 . S
P328 C342 1.812 . S
P328 C348 1.803 . S
P328 C354 1.819 . S
H329 C343 0.941 . S
H330 C344 0.939 . S
H331 C346 0.940 . S
H332 C347 0.940 . S
H333 C349 0.939 . S
H334 C350 0.942 . S
H335 C352 0.940 . S
H336 C353 0.939 . S
H337 C355 0.941 . S
H338 C359 0.939 . S
O339 P328 1.490 . S
H340 C356 0.939 . S
H341 C358 0.940 . S
C342 P328 1.812 . S
C342 C343 1.389 . S
C342 C347 1.391 . S
C343 H329 0.941 . S
C343 C342 1.389 . S
C343 C344 1.397 . S
C344 H330 0.939 . S
C344 C343 1.397 . S
C344 C345 1.378 . S
C345 C344 1.378 . S
C345 C346 1.378 . S
C346 H331 0.940 . S
C346 C345 1.378 . S
C346 C347 1.396 . S
C347 H332 0.940 . S
C347 C342 1.391 . S
C347 C346 1.396 . S
C348 P328 1.803 . S
C348 C349 1.378 . S
C348 C353 1.400 . S
C349 H333 0.939 . S
C349 C348 1.378 . S
C349 C350 1.361 . S
C350 H334 0.942 . S
C350 C349 1.361 . S
C350 C351 1.369 . S
C351 C350 1.369 . S
C351 C352 1.404 . S
C352 H335 0.940 . S
C352 C351 1.404 . S
C352 C353 1.389 . S
C353 H336 0.939 . S
C353 C348 1.400 . S
C353 C352 1.389 . S
C354 P328 1.819 . S
C354 C355 1.391 . S
C354 C359 1.391 . S
C355 H337 0.941 . S
C355 C354 1.391 . S
C355 C356 1.396 . S
C356 H340 0.939 . S
C356 C355 1.396 . S
C356 C357 1.397 . S
C357 C356 1.397 . S
C357 C358 1.385 . S
C358 H341 0.940 . S
C358 C357 1.385 . S
C358 C359 1.388 . S
C359 H338 0.939 . S
C359 C354 1.391 . S
C359 C358 1.388 . S
H360 C372 0.930 . S
H361 C374 0.930 . S
H362 C375 0.930 . S
H363 C379 0.959 . S
H364 C379 0.959 . S
H365 C379 0.961 . S
H366 C380 0.960 . S
H367 C380 0.961 . S
H368 C380 0.959 . S
H369 C383 0.929 . S
H370 C384 0.931 . S
H371 C386 0.930 . S
C372 H360 0.930 . S
C372 C373 1.399 . S
C372 C377 1.399 . S
C373 C372 1.399 . S
C373 C374 1.376 1_554 S
C374 H361 0.930 . S
C374 C373 1.376 1_556 S
C374 C375 1.388 . S
C375 H362 0.930 . S
C375 C374 1.388 . S
C375 C376 1.390 . S
C376 C375 1.390 . S
C376 C377 1.394 1_556 S
C376 C382 1.465 . S
C377 C372 1.399 . S
C377 C376 1.394 1_554 S
C377 C378 1.516 . S
C378 C377 1.516 . S
C378 C379 1.502 . S
C378 C380 1.561 . S
C378 C381 1.526 . S
C379 H363 0.959 . S
C379 H364 0.959 . S
C379 H365 0.961 . S
C379 C378 1.502 . S
C380 H366 0.960 . S
C380 H367 0.961 . S
C380 H368 0.959 . S
C380 C378 1.561 . S
C381 C378 1.526 . S
C381 C382 1.396 1_554 S
C381 C386 1.390 . S
C382 C376 1.465 . S
C382 C381 1.396 1_556 S
C382 C383 1.399 . S
C383 H369 0.929 . S
C383 C382 1.399 . S
C383 C384 1.385 . S
C384 H370 0.931 . S
C384 C383 1.385 . S
C384 C385 1.389 1_556 S
C385 C384 1.389 1_554 S
C385 C386 1.387 . S
C386 H371 0.930 . S
C386 C381 1.390 . S
C386 C385 1.387 . S
H387 C399 0.930 . S
H388 C401 0.930 . S
H389 C402 0.930 . S
H390 C406 0.959 . S
H391 C406 0.959 . S
H392 C406 0.961 . S
H393 C407 0.960 . S
H394 C407 0.961 . S
H395 C407 0.959 . S
H396 C410 0.929 . S
H397 C411 0.931 . S
H398 C413 0.930 . S
C399 H387 0.930 . S
C399 C400 1.399 . S
C399 C404 1.399 . S
C400 C399 1.399 . S
C400 C401 1.376 1_554 S
C401 H388 0.930 . S
C401 C400 1.376 1_556 S
C401 C402 1.388 . S
C402 H389 0.930 . S
C402 C401 1.388 . S
C402 C403 1.390 . S
C403 C402 1.390 . S
C403 C404 1.394 1_556 S
C403 C409 1.465 . S
C404 C399 1.399 . S
C404 C403 1.394 1_554 S
C404 C405 1.516 . S
C405 C404 1.516 . S
C405 C406 1.502 . S
C405 C407 1.561 . S
C405 C408 1.526 . S
C406 H390 0.959 . S
C406 H391 0.959 . S
C406 H392 0.961 . S
C406 C405 1.502 . S
C407 H393 0.960 . S
C407 H394 0.961 . S
C407 H395 0.959 . S
C407 C405 1.561 . S
C408 C405 1.526 . S
C408 C409 1.396 1_554 S
C408 C413 1.390 . S
C409 C403 1.465 . S
C409 C408 1.396 1_556 S
C409 C410 1.399 . S
C410 H396 0.929 . S
C410 C409 1.399 . S
C410 C411 1.385 . S
C411 H397 0.931 . S
C411 C410 1.385 . S
C411 C412 1.389 1_556 S
C412 C411 1.389 1_554 S
C412 C413 1.387 . S
C413 H398 0.930 . S
C413 C408 1.390 . S
C413 C412 1.387 . S
H414 C426 0.930 . S
H415 C428 0.930 . S
H416 C429 0.930 . S
H417 C433 0.959 . S
H418 C433 0.959 . S
H419 C433 0.961 . S
H420 C434 0.960 . S
H421 C434 0.961 . S
H422 C434 0.959 . S
H423 C437 0.929 . S
H424 C438 0.931 . S
H425 C440 0.930 . S
C426 H414 0.930 . S
C426 C427 1.399 1_556 S
C426 C431 1.399 . S
C427 C426 1.399 1_554 S
C427 C428 1.376 . S
C428 H415 0.930 . S
C428 C427 1.376 . S
C428 C429 1.388 . S
C429 H416 0.930 . S
C429 C428 1.388 . S
C429 C430 1.390 . S
C430 C429 1.390 . S
C430 C431 1.394 1_554 S
C430 C436 1.465 . S
C431 C426 1.399 . S
C431 C430 1.394 1_556 S
C431 C432 1.516 . S
C432 C431 1.516 . S
C432 C433 1.502 . S
C432 C434 1.561 . S
C432 C435 1.526 . S
C433 H417 0.959 . S
C433 H418 0.959 . S
C433 H419 0.961 . S
C433 C432 1.502 . S
C434 H420 0.960 . S
C434 H421 0.961 . S
C434 H422 0.959 . S
C434 C432 1.561 . S
C435 C432 1.526 . S
C435 C436 1.396 1_556 S
C435 C440 1.390 . S
C436 C430 1.465 . S
C436 C435 1.396 1_554 S
C436 C437 1.399 . S
C437 H423 0.929 . S
C437 C436 1.399 . S
C437 C438 1.385 . S
C438 H424 0.931 . S
C438 C437 1.385 . S
C438 C439 1.389 . S
C439 C438 1.389 . S
C439 C440 1.387 1_554 S
C440 H425 0.930 . S
C440 C435 1.390 . S
C440 C439 1.387 1_556 S
H441 C453 0.930 . S
H442 C455 0.930 . S
H443 C456 0.930 . S
H444 C460 0.959 . S
H445 C460 0.959 . S
H446 C460 0.961 . S
H447 C461 0.960 . S
H448 C461 0.961 . S
H449 C461 0.959 . S
H450 C464 0.929 . S
H451 C465 0.931 . S
H452 C467 0.930 . S
C453 H441 0.930 . S
C453 C454 1.399 . S
C453 C458 1.399 . S
C454 C453 1.399 . S
C454 C455 1.376 1_554 S
C455 H442 0.930 . S
C455 C454 1.376 1_556 S
C455 C456 1.388 . S
C456 H443 0.930 . S
C456 C455 1.388 . S
C456 C457 1.390 1_556 S
C457 C456 1.390 1_554 S
C457 C458 1.394 . S
C457 C463 1.465 . S
C458 C453 1.399 . S
C458 C457 1.394 . S
C458 C459 1.516 . S
C459 C458 1.516 . S
C459 C460 1.502 . S
C459 C461 1.561 . S
C459 C462 1.526 . S
C460 H444 0.959 . S
C460 H445 0.959 . S
C460 H446 0.961 . S
C460 C459 1.502 . S
C461 H447 0.960 . S
C461 H448 0.961 . S
C461 H449 0.959 . S
C461 C459 1.561 . S
C462 C459 1.526 . S
C462 C463 1.396 . S
C462 C467 1.390 . S
C463 C457 1.465 . S
C463 C462 1.396 . S
C463 C464 1.399 1_554 S
C464 H450 0.929 . S
C464 C463 1.399 1_556 S
C464 C465 1.385 . S
C465 H451 0.931 . S
C465 C464 1.385 . S
C465 C466 1.389 1_556 S
C466 C465 1.389 1_554 S
C466 C467 1.387 . S
C467 H452 0.930 . S
C467 C462 1.390 . S
C467 C466 1.387 . S
H468 C480 0.930 . S
H469 C482 0.930 . S
H470 C483 0.930 . S
H471 C487 0.959 . S
H472 C487 0.959 . S
H473 C487 0.961 . S
H474 C488 0.960 . S
H475 C488 0.961 . S
H476 C488 0.959 . S
H477 C491 0.929 . S
H478 C492 0.931 . S
H479 C494 0.930 . S
C480 H468 0.930 . S
C480 C481 1.399 . S
C480 C485 1.399 . S
C481 C480 1.399 . S
C481 C482 1.376 . S
C482 H469 0.930 . S
C482 C481 1.376 . S
C482 C483 1.388 . S
C483 H470 0.930 . S
C483 C482 1.388 . S
C483 C484 1.390 . S
C484 C483 1.390 . S
C484 C485 1.394 . S
C484 C490 1.465 . S
C485 C480 1.399 . S
C485 C484 1.394 . S
C485 C486 1.516 . S
C486 C485 1.516 . S
C486 C487 1.502 . S
C486 C488 1.561 . S
C486 C489 1.526 . S
C487 H471 0.959 . S
C487 H472 0.959 . S
C487 H473 0.961 . S
C487 C486 1.502 . S
C488 H474 0.960 . S
C488 H475 0.961 . S
C488 H476 0.959 . S
C488 C486 1.561 . S
C489 C486 1.526 . S
C489 C490 1.396 . S
C489 C494 1.390 . S
C490 C484 1.465 . S
C490 C489 1.396 . S
C490 C491 1.399 . S
C491 H477 0.929 . S
C491 C490 1.399 . S
C491 C492 1.385 . S
C492 H478 0.931 . S
C492 C491 1.385 . S
C492 C493 1.389 . S
C493 C492 1.389 . S
C493 C494 1.387 . S
C494 H479 0.930 . S
C494 C489 1.390 . S
C494 C493 1.387 . S
H495 C507 0.930 . S
H496 C509 0.930 . S
H497 C510 0.930 . S
H498 C514 0.959 . S
H499 C514 0.959 . S
H500 C514 0.961 . S
H501 C515 0.960 . S
H502 C515 0.961 . S
H503 C515 0.959 . S
H504 C518 0.929 . S
H505 C519 0.931 . S
H506 C521 0.930 . S
C507 H495 0.930 . S
C507 C508 1.399 . S
C507 C512 1.399 . S
C508 C507 1.399 . S
C508 C509 1.376 . S
C509 H496 0.930 . S
C509 C508 1.376 . S
C509 C510 1.388 . S
C510 H497 0.930 . S
C510 C509 1.388 . S
C510 C511 1.390 . S
C511 C510 1.390 . S
C511 C512 1.394 . S
C511 C517 1.465 . S
C512 C507 1.399 . S
C512 C511 1.394 . S
C512 C513 1.516 . S
C513 C512 1.516 . S
C513 C514 1.502 . S
C513 C515 1.561 . S
C513 C516 1.526 . S
C514 H498 0.959 . S
C514 H499 0.959 . S
C514 H500 0.961 . S
C514 C513 1.502 . S
C515 H501 0.960 . S
C515 H502 0.961 . S
C515 H503 0.959 . S
C515 C513 1.561 . S
C516 C513 1.526 . S
C516 C517 1.396 . S
C516 C521 1.390 . S
C517 C511 1.465 . S
C517 C516 1.396 . S
C517 C518 1.399 . S
C518 H504 0.929 . S
C518 C517 1.399 . S
C518 C519 1.385 . S
C519 H505 0.931 . S
C519 C518 1.385 . S
C519 C520 1.389 . S
C520 C519 1.389 . S
C520 C521 1.387 . S
C521 H506 0.930 . S
C521 C516 1.390 . S
C521 C520 1.387 . S
H522 C534 0.930 . S
H523 C536 0.930 . S
H524 C537 0.930 . S
H525 C541 0.959 . S
H526 C541 0.959 . S
H527 C541 0.961 . S
H528 C542 0.960 . S
H529 C542 0.961 . S
H530 C542 0.959 . S
H531 C545 0.929 . S
H532 C546 0.931 . S
H533 C548 0.930 . S
C534 H522 0.930 . S
C534 C535 1.399 . S
C534 C539 1.399 . S
C535 C534 1.399 . S
C535 C536 1.376 . S
C536 H523 0.930 . S
C536 C535 1.376 . S
C536 C537 1.388 . S
C537 H524 0.930 . S
C537 C536 1.388 . S
C537 C538 1.390 . S
C538 C537 1.390 . S
C538 C539 1.394 . S
C538 C544 1.465 . S
C539 C534 1.399 . S
C539 C538 1.394 . S
C539 C540 1.516 . S
C540 C539 1.516 . S
C540 C541 1.502 . S
C540 C542 1.561 . S
C540 C543 1.526 . S
C541 H525 0.959 . S
C541 H526 0.959 . S
C541 H527 0.961 . S
C541 C540 1.502 . S
C542 H528 0.960 . S
C542 H529 0.961 . S
C542 H530 0.959 . S
C542 C540 1.561 . S
C543 C540 1.526 . S
C543 C544 1.396 . S
C543 C548 1.390 . S
C544 C538 1.465 . S
C544 C543 1.396 . S
C544 C545 1.399 . S
C545 H531 0.929 . S
C545 C544 1.399 . S
C545 C546 1.385 . S
C546 H532 0.931 . S
C546 C545 1.385 . S
C546 C547 1.389 . S
C547 C546 1.389 . S
C547 C548 1.387 . S
C548 H533 0.930 . S
C548 C543 1.390 . S
C548 C547 1.387 . S
H549 C561 0.930 . S
H550 C563 0.930 . S
H551 C564 0.930 . S
H552 C568 0.959 . S
H553 C568 0.959 . S
H554 C568 0.961 . S
H555 C569 0.960 . S
H556 C569 0.961 . S
H557 C569 0.959 . S
H558 C572 0.929 . S
H559 C573 0.931 . S
H560 C575 0.930 . S
C561 H549 0.930 . S
C561 C562 1.399 . S
C561 C566 1.399 . S
C562 C561 1.399 . S
C562 C563 1.376 . S
C563 H550 0.930 . S
C563 C562 1.376 . S
C563 C564 1.388 . S
C564 H551 0.930 . S
C564 C563 1.388 . S
C564 C565 1.390 . S
C565 C564 1.390 . S
C565 C566 1.394 . S
C565 C571 1.465 . S
C566 C561 1.399 . S
C566 C565 1.394 . S
C566 C567 1.516 . S
C567 C566 1.516 . S
C567 C568 1.502 . S
C567 C569 1.561 . S
C567 C570 1.526 . S
C568 H552 0.959 . S
C568 H553 0.959 . S
C568 H554 0.961 . S
C568 C567 1.502 . S
C569 H555 0.960 . S
C569 H556 0.961 . S
C569 H557 0.959 . S
C569 C567 1.561 . S
C570 C567 1.526 . S
C570 C571 1.396 . S
C570 C575 1.390 . S
C571 C565 1.465 . S
C571 C570 1.396 . S
C571 C572 1.399 . S
C572 H558 0.929 . S
C572 C571 1.399 . S
C572 C573 1.385 . S
C573 H559 0.931 . S
C573 C572 1.385 . S
C573 C574 1.389 . S
C574 C573 1.389 . S
C574 C575 1.387 . S
C575 H560 0.930 . S
C575 C570 1.390 . S
C575 C574 1.387 . S
H576 C588 0.930 . S
H577 C590 0.930 1_655 S
H578 C591 0.930 1_655 S
H579 C595 0.959 . S
H580 C595 0.959 . S
H581 C595 0.961 . S
H582 C596 0.960 . S
H583 C596 0.961 . S
H584 C596 0.959 . S
H585 C599 0.929 1_655 S
H586 C600 0.931 . S
H587 C602 0.930 . S
C588 H576 0.930 . S
C588 C589 1.399 . S
C588 C593 1.399 . S
C589 C588 1.399 . S
C589 C590 1.376 . S
C590 H577 0.930 1_455 S
C590 C589 1.376 . S
C590 C591 1.388 . S
C591 H578 0.930 1_455 S
C591 C590 1.388 . S
C591 C592 1.390 . S
C592 C591 1.390 . S
C592 C593 1.394 . S
C592 C598 1.465 . S
C593 C588 1.399 . S
C593 C592 1.394 . S
C593 C594 1.516 . S
C594 C593 1.516 . S
C594 C595 1.502 . S
C594 C596 1.561 . S
C594 C597 1.526 . S
C595 H579 0.959 . S
C595 H580 0.959 . S
C595 H581 0.961 . S
C595 C594 1.502 . S
C596 H582 0.960 . S
C596 H583 0.961 . S
C596 H584 0.959 . S
C596 C594 1.561 . S
C597 C594 1.526 . S
C597 C598 1.396 . S
C597 C602 1.390 . S
C598 C592 1.465 . S
C598 C597 1.396 . S
C598 C599 1.399 . S
C599 H585 0.929 1_455 S
C599 C598 1.399 . S
C599 C600 1.385 . S
C600 H586 0.931 . S
C600 C599 1.385 . S
C600 C601 1.389 . S
C601 C600 1.389 . S
C601 C602 1.387 . S
C602 H587 0.930 . S
C602 C597 1.390 . S
C602 C601 1.387 . S
H603 C615 0.930 . S
H604 C617 0.930 1_565 S
H605 C618 0.930 1_565 S
H606 C622 0.959 . S
H607 C622 0.959 . S
H608 C622 0.961 . S
H609 C623 0.960 . S
H610 C623 0.961 . S
H611 C623 0.959 . S
H612 C626 0.946 . S
H613 C627 0.931 . S
H614 C629 0.930 . S
C615 H603 0.930 . S
C615 C616 1.399 . S
C615 C620 1.399 . S
C616 C615 1.399 . S
C616 C617 1.376 . S
C617 H604 0.930 1_545 S
C617 C616 1.376 . S
C617 C618 1.388 . S
C618 H605 0.930 1_545 S
C618 C617 1.388 . S
C618 C619 1.390 . S
C619 C618 1.390 . S
C619 C620 1.394 . S
C619 C625 1.465 . S
C620 C615 1.399 . S
C620 C619 1.394 . S
C620 C621 1.516 . S
C621 C620 1.516 . S
C621 C622 1.502 . S
C621 C623 1.561 . S
C621 C624 1.526 . S
C622 H606 0.959 . S
C622 H607 0.959 . S
C622 H608 0.961 . S
C622 C621 1.502 . S
C623 H609 0.960 . S
C623 H610 0.961 . S
C623 H611 0.959 . S
C623 C621 1.561 . S
C624 C621 1.526 . S
C624 C625 1.396 . S
C624 C629 1.390 . S
C625 C619 1.465 . S
C625 C624 1.396 . S
C625 C626 1.399 . S
C626 H612 0.946 . S
C626 C625 1.399 . S
C626 C627 1.385 . S
C627 H613 0.931 . S
C627 C626 1.385 . S
C627 C628 1.389 . S
C628 C627 1.389 . S
C628 C629 1.387 . S
C629 H614 0.930 . S
C629 C624 1.390 . S
C629 C628 1.387 . S
H630 C642 0.930 . S
H631 C644 0.930 . S
H632 C645 0.930 . S
H633 C649 0.960 . S
H634 C649 0.959 . S
H635 C649 0.962 . S
H636 C650 0.960 . S
H637 C650 0.961 . S
H638 C650 0.959 . S
H639 C653 0.929 . S
H640 C654 0.931 . S
H641 C656 0.930 . S
C642 H630 0.930 . S
C642 C643 1.399 . S
C642 C647 1.399 . S
C643 C642 1.399 . S
C643 C644 1.376 . S
C644 H631 0.930 . S
C644 C643 1.376 . S
C644 C645 1.388 . S
C645 H632 0.930 . S
C645 C644 1.388 . S
C645 C646 1.390 . S
C646 C645 1.390 . S
C646 C647 1.394 . S
C646 C652 1.465 . S
C647 C642 1.399 . S
C647 C646 1.394 . S
C647 C648 1.516 . S
C648 C647 1.516 . S
C648 C649 1.500 1_655 S
C648 C650 1.561 . S
C648 C651 1.526 . S
C649 H633 0.960 . S
C649 H634 0.959 . S
C649 H635 0.962 . S
C649 C648 1.500 1_455 S
C650 H636 0.960 . S
C650 H637 0.961 . S
C650 H638 0.959 . S
C650 C648 1.561 . S
C651 C648 1.526 . S
C651 C652 1.396 . S
C651 C656 1.390 . S
C652 C646 1.465 . S
C652 C651 1.396 . S
C652 C653 1.399 . S
C653 H639 0.929 . S
C653 C652 1.399 . S
C653 C654 1.385 . S
C654 H640 0.931 . S
C654 C653 1.385 . S
C654 C655 1.389 . S
C655 C654 1.389 . S
C655 C656 1.387 . S
C656 H641 0.930 . S
C656 C651 1.390 . S
C656 C655 1.387 . S
H657 C669 0.930 1_545 S
H658 C671 0.930 . S
H659 C672 0.930 . S
H660 C676 0.959 1_565 S
H661 C676 0.959 . S
H662 C676 0.961 . S
H663 C677 0.960 . S
H664 C677 0.961 . S
H665 C677 0.959 . S
H666 C680 0.929 . S
H667 C681 0.931 . S
H668 C683 0.930 . S
C669 H657 0.930 1_565 S
C669 C670 1.399 . S
C669 C674 1.399 . S
C670 C669 1.399 . S
C670 C671 1.376 . S
C671 H658 0.930 . S
C671 C670 1.376 . S
C671 C672 1.388 . S
C672 H659 0.930 . S
C672 C671 1.388 . S
C672 C673 1.390 . S
C673 C672 1.390 . S
C673 C674 1.394 . S
C673 C679 1.465 . S
C674 C669 1.399 . S
C674 C673 1.394 . S
C674 C675 1.516 . S
C675 C674 1.516 . S
C675 C676 1.502 1_565 S
C675 C677 1.561 1_565 S
C675 C678 1.526 . S
C676 H660 0.959 1_545 S
C676 H661 0.959 . S
C676 H662 0.961 . S
C676 C675 1.502 1_545 S
C677 H663 0.960 . S
C677 H664 0.961 . S
C677 H665 0.959 . S
C677 C675 1.561 1_545 S
C678 C675 1.526 . S
C678 C679 1.396 . S
C678 C683 1.390 . S
C679 C673 1.465 . S
C679 C678 1.396 . S
C679 C680 1.399 . S
C680 H666 0.929 . S
C680 C679 1.399 . S
C680 C681 1.385 . S
C681 H667 0.931 . S
C681 C680 1.385 . S
C681 C682 1.389 . S
C682 C681 1.389 . S
C682 C683 1.387 . S
C683 H668 0.930 . S
C683 C678 1.390 . S
C683 C682 1.387 . S
H684 C696 0.930 . S
H685 C698 0.930 . S
H686 C699 0.930 . S
H687 C703 0.959 . S
H688 C703 0.959 . S
H689 C703 0.961 . S
H690 C704 0.960 . S
H691 C704 0.961 . S
H692 C704 0.959 . S
H693 C707 0.929 . S
H694 C708 0.931 . S
H695 C710 0.930 . S
C696 H684 0.930 . S
C696 C697 1.399 . S
C696 C701 1.399 . S
C697 C696 1.399 . S
C697 C698 1.376 . S
C698 H685 0.930 . S
C698 C697 1.376 . S
C698 C699 1.388 . S
C699 H686 0.930 . S
C699 C698 1.388 . S
C699 C700 1.390 . S
C700 C699 1.390 . S
C700 C701 1.394 . S
C700 C706 1.465 . S
C701 C696 1.399 . S
C701 C700 1.394 . S
C701 C702 1.516 . S
C702 C701 1.516 . S
C702 C703 1.502 1_565 S
C702 C704 1.561 . S
C702 C705 1.526 . S
C703 H687 0.959 . S
C703 H688 0.959 . S
C703 H689 0.961 . S
C703 C702 1.502 1_545 S
C704 H690 0.960 . S
C704 H691 0.961 . S
C704 H692 0.959 . S
C704 C702 1.561 . S
C705 C702 1.526 . S
C705 C706 1.396 . S
C705 C710 1.390 . S
C706 C700 1.465 . S
C706 C705 1.396 . S
C706 C707 1.399 . S
C707 H693 0.929 . S
C707 C706 1.399 . S
C707 C708 1.385 . S
C708 H694 0.931 . S
C708 C707 1.385 . S
C708 C709 1.389 . S
C709 C708 1.389 . S
C709 C710 1.387 . S
C710 H695 0.930 . S
C710 C705 1.390 . S
C710 C709 1.387 . S
H711 C723 0.930 . S
H712 C725 0.930 . S
H713 C726 0.930 . S
H714 C730 0.959 . S
H715 C730 0.959 . S
H716 C730 0.961 . S
H717 C731 0.960 . S
H718 C731 0.961 . S
H719 C731 0.959 . S
H720 C734 0.929 . S
H721 C735 0.931 . S
H722 C737 0.930 . S
C723 H711 0.930 . S
C723 C724 1.399 . S
C723 C728 1.399 . S
C724 C723 1.399 . S
C724 C725 1.376 . S
C725 H712 0.930 . S
C725 C724 1.376 . S
C725 C726 1.388 . S
C726 H713 0.930 . S
C726 C725 1.388 . S
C726 C727 1.390 . S
C727 C726 1.390 . S
C727 C728 1.394 . S
C727 C733 1.465 . S
C728 C723 1.399 . S
C728 C727 1.394 . S
C728 C729 1.516 . S
C729 C728 1.516 . S
C729 C730 1.502 . S
C729 C731 1.561 . S
C729 C732 1.526 . S
C730 H714 0.959 . S
C730 H715 0.959 . S
C730 H716 0.961 . S
C730 C729 1.502 . S
C731 H717 0.960 . S
C731 H718 0.961 . S
C731 H719 0.959 . S
C731 C729 1.561 . S
C732 C729 1.526 . S
C732 C733 1.396 . S
C732 C737 1.390 . S
C733 C727 1.465 . S
C733 C732 1.396 . S
C733 C734 1.399 . S
C734 H720 0.929 . S
C734 C733 1.399 . S
C734 C735 1.385 . S
C735 H721 0.931 . S
C735 C734 1.385 . S
C735 C736 1.389 . S
C736 C735 1.389 . S
C736 C737 1.387 . S
C737 H722 0.930 . S
C737 C732 1.390 . S
C737 C736 1.387 . S
H738 C750 0.930 . S
H739 C752 0.930 1_565 S
H740 C753 0.930 1_565 S
H741 C757 0.959 . S
H742 C757 0.959 . S
H743 C757 0.961 . S
H744 C758 0.960 . S
H745 C758 0.961 . S
H746 C758 0.959 . S
H747 C761 0.929 . S
H748 C762 0.931 . S
H749 C764 0.930 . S
C750 H738 0.930 . S
C750 C751 1.399 . S
C750 C755 1.399 . S
C751 C750 1.399 . S
C751 C752 1.376 . S
C752 H739 0.930 1_545 S
C752 C751 1.376 . S
C752 C753 1.388 . S
C753 H740 0.930 1_545 S
C753 C752 1.388 . S
C753 C754 1.390 . S
C754 C753 1.390 . S
C754 C755 1.394 . S
C754 C760 1.465 . S
C755 C750 1.399 . S
C755 C754 1.394 . S
C755 C756 1.516 . S
C756 C755 1.516 . S
C756 C757 1.502 . S
C756 C758 1.561 . S
C756 C759 1.526 . S
C757 H741 0.959 . S
C757 H742 0.959 . S
C757 H743 0.961 . S
C757 C756 1.502 . S
C758 H744 0.960 . S
C758 H745 0.961 . S
C758 H746 0.959 . S
C758 C756 1.561 . S
C759 C756 1.526 . S
C759 C760 1.396 . S
C759 C764 1.390 . S
C760 C754 1.465 . S
C760 C759 1.396 . S
C760 C761 1.399 . S
C761 H747 0.929 . S
C761 C760 1.399 . S
C761 C762 1.385 . S
C762 H748 0.931 . S
C762 C761 1.385 . S
C762 C763 1.389 . S
C763 C762 1.389 . S
C763 C764 1.387 . S
C764 H749 0.930 . S
C764 C759 1.390 . S
C764 C763 1.387 . S
H765 C777 0.930 . S
H766 C779 0.930 . S
H767 C780 0.930 . S
H768 C784 0.959 . S
H769 C784 0.959 . S
H770 C784 0.961 . S
H771 C785 0.960 . S
H772 C785 0.961 . S
H773 C785 0.959 . S
H774 C788 0.929 . S
H775 C789 0.931 . S
H776 C791 0.930 . S
C777 H765 0.930 . S
C777 C778 1.399 . S
C777 C782 1.399 . S
C778 C777 1.399 . S
C778 C779 1.376 . S
C779 H766 0.930 . S
C779 C778 1.376 . S
C779 C780 1.388 . S
C780 H767 0.930 . S
C780 C779 1.388 . S
C780 C781 1.390 . S
C781 C780 1.390 . S
C781 C782 1.394 . S
C781 C787 1.465 . S
C782 C777 1.399 . S
C782 C781 1.394 . S
C782 C783 1.516 . S
C783 C782 1.516 . S
C783 C784 1.502 . S
C783 C785 1.561 . S
C783 C786 1.526 . S
C784 H768 0.959 . S
C784 H769 0.959 . S
C784 H770 0.961 . S
C784 C783 1.502 . S
C785 H771 0.960 . S
C785 H772 0.961 . S
C785 H773 0.959 . S
C785 C783 1.561 . S
C786 C783 1.526 . S
C786 C787 1.396 . S
C786 C791 1.390 . S
C787 C781 1.465 . S
C787 C786 1.396 . S
C787 C788 1.399 . S
C788 H774 0.929 . S
C788 C787 1.399 . S
C788 C789 1.385 . S
C789 H775 0.931 . S
C789 C788 1.385 . S
C789 C790 1.389 . S
C790 C789 1.389 . S
C790 C791 1.387 . S
C791 H776 0.930 . S
C791 C786 1.390 . S
C791 C790 1.387 . S
H792 C804 0.930 . S
H793 C806 0.930 . S
H794 C807 0.930 . S
H795 C811 0.959 . S
H796 C811 0.959 . S
H797 C811 0.961 . S
H798 C812 0.960 . S
H799 C812 0.961 . S
H800 C812 0.959 . S
H801 C815 0.929 . S
H802 C816 0.931 . S
H803 C818 0.930 . S
C804 H792 0.930 . S
C804 C805 1.399 . S
C804 C809 1.399 . S
C805 C804 1.399 . S
C805 C806 1.376 . S
C806 H793 0.930 . S
C806 C805 1.376 . S
C806 C807 1.388 . S
C807 H794 0.930 . S
C807 C806 1.388 . S
C807 C808 1.390 . S
C808 C807 1.390 . S
C808 C809 1.394 . S
C808 C814 1.465 . S
C809 C804 1.399 . S
C809 C808 1.394 . S
C809 C810 1.516 . S
C810 C809 1.516 . S
C810 C811 1.502 . S
C810 C812 1.561 . S
C810 C813 1.526 . S
C811 H795 0.959 . S
C811 H796 0.959 . S
C811 H797 0.961 . S
C811 C810 1.502 . S
C812 H798 0.960 . S
C812 H799 0.961 . S
C812 H800 0.959 . S
C812 C810 1.561 . S
C813 C810 1.526 . S
C813 C814 1.396 . S
C813 C818 1.390 . S
C814 C808 1.465 . S
C814 C813 1.396 . S
C814 C815 1.399 . S
C815 H801 0.929 . S
C815 C814 1.399 . S
C815 C816 1.385 . S
C816 H802 0.931 . S
C816 C815 1.385 . S
C816 C817 1.389 . S
C817 C816 1.389 . S
C817 C818 1.387 . S
C818 H803 0.930 . S
C818 C813 1.390 . S
C818 C817 1.387 . S
H819 C831 0.930 . S
H820 C833 0.930 . S
H821 C834 0.930 . S
H822 C838 0.959 . S
H823 C838 0.959 . S
H824 C838 0.961 . S
H825 C839 0.960 . S
H826 C839 0.961 . S
H827 C839 0.959 . S
H828 C842 0.929 . S
H829 C843 0.931 . S
H830 C845 0.930 . S
C831 H819 0.930 . S
C831 C832 1.399 . S
C831 C836 1.399 . S
C832 C831 1.399 . S
C832 C833 1.376 . S
C833 H820 0.930 . S
C833 C832 1.376 . S
C833 C834 1.388 . S
C834 H821 0.930 . S
C834 C833 1.388 . S
C834 C835 1.390 . S
C835 C834 1.390 . S
C835 C836 1.394 . S
C835 C841 1.465 . S
C836 C831 1.399 . S
C836 C835 1.394 . S
C836 C837 1.516 . S
C837 C836 1.516 . S
C837 C838 1.502 . S
C837 C839 1.561 . S
C837 C840 1.526 . S
C838 H822 0.959 . S
C838 H823 0.959 . S
C838 H824 0.961 . S
C838 C837 1.502 . S
C839 H825 0.960 . S
C839 H826 0.961 . S
C839 H827 0.959 . S
C839 C837 1.561 . S
C840 C837 1.526 . S
C840 C841 1.396 . S
C840 C845 1.390 . S
C841 C835 1.465 . S
C841 C840 1.396 . S
C841 C842 1.399 . S
C842 H828 0.929 . S
C842 C841 1.399 . S
C842 C843 1.385 . S
C843 H829 0.931 . S
C843 C842 1.385 . S
C843 C844 1.389 . S
C844 C843 1.389 . S
C844 C845 1.387 . S
C845 H830 0.930 . S
C845 C840 1.390 . S
C845 C844 1.387 . S
H846 C858 0.930 . S
H847 C860 0.930 . S
H848 C861 0.930 . S
H849 C865 0.959 . S
H850 C865 0.959 . S
H851 C865 0.961 . S
H852 C866 0.960 . S
H853 C866 0.961 . S
H854 C866 0.959 . S
H855 C869 0.929 . S
H856 C870 0.931 . S
H857 C872 0.930 . S
C858 H846 0.930 . S
C858 C859 1.399 . S
C858 C863 1.399 . S
C859 C858 1.399 . S
C859 C860 1.376 . S
C860 H847 0.930 . S
C860 C859 1.376 . S
C860 C861 1.388 . S
C861 H848 0.930 . S
C861 C860 1.388 . S
C861 C862 1.390 . S
C862 C861 1.390 . S
C862 C863 1.394 . S
C862 C868 1.465 . S
C863 C858 1.399 . S
C863 C862 1.394 . S
C863 C864 1.516 . S
C864 C863 1.516 . S
C864 C865 1.502 . S
C864 C866 1.561 . S
C864 C867 1.526 . S
C865 H849 0.959 . S
C865 H850 0.959 . S
C865 H851 0.961 . S
C865 C864 1.502 . S
C866 H852 0.960 . S
C866 H853 0.961 . S
C866 H854 0.959 . S
C866 C864 1.561 . S
C867 C864 1.526 . S
C867 C868 1.396 . S
C867 C872 1.390 . S
C868 C862 1.465 . S
C868 C867 1.396 . S
C868 C869 1.399 . S
C869 H855 0.929 . S
C869 C868 1.399 . S
C869 C870 1.385 . S
C870 H856 0.931 . S
C870 C869 1.385 . S
C870 C871 1.389 . S
C871 C870 1.389 . S
C871 C872 1.387 . S
C872 H857 0.930 . S
C872 C867 1.390 . S
C872 C871 1.387 . S
H873 C885 0.930 . S
H874 C887 0.930 . S
H875 C888 0.930 . S
H876 C892 0.959 . S
H877 C892 0.959 . S
H878 C892 0.961 . S
H879 C893 0.960 . S
H880 C893 0.961 . S
H881 C893 0.959 . S
H882 C896 0.929 . S
H883 C897 0.931 . S
H884 C899 0.930 . S
C885 H873 0.930 . S
C885 C886 1.399 . S
C885 C890 1.399 . S
C886 C885 1.399 . S
C886 C887 1.376 . S
C887 H874 0.930 . S
C887 C886 1.376 . S
C887 C888 1.388 . S
C888 H875 0.930 . S
C888 C887 1.388 . S
C888 C889 1.390 . S
C889 C888 1.390 . S
C889 C890 1.394 . S
C889 C895 1.465 . S
C890 C885 1.399 . S
C890 C889 1.394 . S
C890 C891 1.516 . S
C891 C890 1.516 . S
C891 C892 1.502 . S
C891 C893 1.561 . S
C891 C894 1.526 . S
C892 H876 0.959 . S
C892 H877 0.959 . S
C892 H878 0.961 . S
C892 C891 1.502 . S
C893 H879 0.960 . S
C893 H880 0.961 . S
C893 H881 0.959 . S
C893 C891 1.561 . S
C894 C891 1.526 . S
C894 C895 1.396 . S
C894 C899 1.390 . S
C895 C889 1.465 . S
C895 C894 1.396 . S
C895 C896 1.399 . S
C896 H882 0.929 . S
C896 C895 1.399 . S
C896 C897 1.385 . S
C897 H883 0.931 . S
C897 C896 1.385 . S
C897 C898 1.389 . S
C898 C897 1.389 . S
C898 C899 1.387 . S
C899 H884 0.930 . S
C899 C894 1.390 . S
C899 C898 1.387 . S
H900 C912 0.930 . S
H901 C914 0.930 . S
H902 C915 0.930 . S
H903 C919 0.959 . S
H904 C919 0.959 . S
H905 C919 0.961 . S
H906 C920 0.960 . S
H907 C920 0.961 . S
H908 C920 0.959 . S
H909 C923 0.929 . S
H910 C924 0.931 . S
H911 C926 0.930 . S
C912 H900 0.930 . S
C912 C913 1.399 . S
C912 C917 1.399 . S
C913 C912 1.399 . S
C913 C914 1.376 . S
C914 H901 0.930 . S
C914 C913 1.376 . S
C914 C915 1.388 . S
C915 H902 0.930 . S
C915 C914 1.388 . S
C915 C916 1.390 . S
C916 C915 1.390 . S
C916 C917 1.394 . S
C916 C922 1.465 . S
C917 C912 1.399 . S
C917 C916 1.394 . S
C917 C918 1.516 . S
C918 C917 1.516 . S
C918 C919 1.502 . S
C918 C920 1.561 . S
C918 C921 1.526 . S
C919 H903 0.959 . S
C919 H904 0.959 . S
C919 H905 0.961 . S
C919 C918 1.502 . S
C920 H906 0.960 . S
C920 H907 0.961 . S
C920 H908 0.959 . S
C920 C918 1.561 . S
C921 C918 1.526 . S
C921 C922 1.396 . S
C921 C926 1.390 . S
C922 C916 1.465 . S
C922 C921 1.396 . S
C922 C923 1.399 . S
C923 H909 0.929 . S
C923 C922 1.399 . S
C923 C924 1.385 . S
C924 H910 0.931 . S
C924 C923 1.385 . S
C924 C925 1.389 . S
C925 C924 1.389 . S
C925 C926 1.387 . S
C926 H911 0.930 . S
C926 C921 1.390 . S
C926 C925 1.387 . S
H927 C939 0.930 . S
H928 C941 0.930 . S
H929 C942 0.930 . S
H930 C946 0.959 . S
H931 C946 0.959 . S
H932 C946 0.961 . S
H933 C947 0.960 . S
H934 C947 0.961 . S
H935 C947 0.959 . S
H936 C950 0.929 . S
H937 C951 0.931 . S
H938 C953 0.930 . S
C939 H927 0.930 . S
C939 C940 1.399 . S
C939 C944 1.399 . S
C940 C939 1.399 . S
C940 C941 1.376 . S
C941 H928 0.930 . S
C941 C940 1.376 . S
C941 C942 1.388 . S
C942 H929 0.930 . S
C942 C941 1.388 . S
C942 C943 1.390 . S
C943 C942 1.390 . S
C943 C944 1.394 . S
C943 C949 1.465 . S
C944 C939 1.399 . S
C944 C943 1.394 . S
C944 C945 1.516 . S
C945 C944 1.516 . S
C945 C946 1.502 . S
C945 C947 1.561 . S
C945 C948 1.526 . S
C946 H930 0.959 . S
C946 H931 0.959 . S
C946 H932 0.961 . S
C946 C945 1.502 . S
C947 H933 0.960 . S
C947 H934 0.961 . S
C947 H935 0.959 . S
C947 C945 1.561 . S
C948 C945 1.526 . S
C948 C949 1.396 . S
C948 C953 1.390 . S
C949 C943 1.465 . S
C949 C948 1.396 . S
C949 C950 1.399 . S
C950 H936 0.929 . S
C950 C949 1.399 . S
C950 C951 1.385 . S
C951 H937 0.931 . S
C951 C950 1.385 . S
C951 C952 1.389 . S
C952 C951 1.389 . S
C952 C953 1.387 . S
C953 H938 0.930 . S
C953 C948 1.390 . S
C953 C952 1.387 . S
H954 C966 0.930 . S
H955 C968 0.930 . S
H956 C969 0.930 . S
H957 C973 0.959 . S
H958 C973 0.959 . S
H959 C973 0.961 . S
H960 C974 0.960 . S
H961 C974 0.961 . S
H962 C974 0.959 . S
H963 C977 0.929 . S
H964 C978 0.931 . S
H965 C980 0.930 . S
C966 H954 0.930 . S
C966 C967 1.399 . S
C966 C971 1.399 . S
C967 C966 1.399 . S
C967 C968 1.376 . S
C968 H955 0.930 . S
C968 C967 1.376 . S
C968 C969 1.388 . S
C969 H956 0.930 . S
C969 C968 1.388 . S
C969 C970 1.390 . S
C970 C969 1.390 . S
C970 C971 1.394 . S
C970 C976 1.465 . S
C971 C966 1.399 . S
C971 C970 1.394 . S
C971 C972 1.516 . S
C972 C971 1.516 . S
C972 C973 1.502 . S
C972 C974 1.561 . S
C972 C975 1.526 . S
C973 H957 0.959 . S
C973 H958 0.959 . S
C973 H959 0.961 . S
C973 C972 1.502 . S
C974 H960 0.960 . S
C974 H961 0.961 . S
C974 H962 0.959 . S
C974 C972 1.561 . S
C975 C972 1.526 . S
C975 C976 1.396 . S
C975 C980 1.390 . S
C976 C970 1.465 . S
C976 C975 1.396 . S
C976 C977 1.399 . S
C977 H963 0.929 . S
C977 C976 1.399 . S
C977 C978 1.385 . S
C978 H964 0.931 . S
C978 C977 1.385 . S
C978 C979 1.389 . S
C979 C978 1.389 . S
C979 C980 1.387 . S
C980 H965 0.930 . S
C980 C975 1.390 . S
C980 C979 1.387 . S
H981 C993 0.930 . S
H982 C995 0.930 . S
H983 C996 0.930 . S
H984 C1000 0.959 . S
H985 C1000 0.959 . S
H986 C1000 0.961 . S
H987 C1001 0.960 . S
H988 C1001 0.961 . S
H989 C1001 0.959 . S
H990 C1004 0.929 . S
H991 C1005 0.931 . S
H992 C1007 0.930 . S
C993 H981 0.930 . S
C993 C994 1.399 . S
C993 C998 1.399 . S
C994 C993 1.399 . S
C994 C995 1.376 . S
C995 H982 0.930 . S
C995 C994 1.376 . S
C995 C996 1.388 . S
C996 H983 0.930 . S
C996 C995 1.388 . S
C996 C997 1.390 . S
C997 C996 1.390 . S
C997 C998 1.394 . S
C997 C1003 1.465 . S
C998 C993 1.399 . S
C998 C997 1.394 . S
C998 C999 1.516 . S
C999 C998 1.516 . S
C999 C1000 1.502 . S
C999 C1001 1.561 . S
C999 C1002 1.526 . S
C1000 H984 0.959 . S
C1000 H985 0.959 . S
C1000 H986 0.961 . S
C1000 C999 1.502 . S
C1001 H987 0.960 . S
C1001 H988 0.961 . S
C1001 H989 0.959 . S
C1001 C999 1.561 . S
C1002 C999 1.526 . S
C1002 C1003 1.396 . S
C1002 C1007 1.390 . S
C1003 C997 1.465 . S
C1003 C1002 1.396 . S
C1003 C1004 1.399 . S
C1004 H990 0.929 . S
C1004 C1003 1.399 . S
C1004 C1005 1.385 . S
C1005 H991 0.931 . S
C1005 C1004 1.385 . S
C1005 C1006 1.389 . S
C1006 C1005 1.389 . S
C1006 C1007 1.387 . S
C1007 H992 0.930 . S
C1007 C1002 1.390 . S
C1007 C1006 1.387 . S
C373 C45 1.588 . S
C385 C127 1.629 . S
C400 C30 1.573 . S
C412 C159 1.626 . S
C427 C39 1.613 . S
C439 C191 1.508 . S
C466 C223 1.548 . S
C454 C34 1.570 . S
C481 C97 1.613 . S
C493 C255 1.620 . S
C520 C287 1.626 . S
C508 C82 1.573 . S
C547 C319 1.569 . S
C535 C91 1.573 . S
C574 C351 1.545 . S
C562 C86 1.571 . S
C601 C313 1.470 . S
C589 C26 1.433 . S
C628 C345 1.488 . S
C616 C36 1.416 . S
C655 C261 1.539 . S
C643 C32 1.470 . S
C682 C293 1.543 . S
C670 C42 1.509 . S
C697 C18 1.571 . S
C709 C281 1.618 . S
C736 C325 1.555 . S
C724 C50 1.493 . S
C751 C4 1.554 . S
C763 C357 1.526 . S
C778 C48 1.483 . S
C790 C249 1.621 . S
C817 C185 1.480 . S
C805 C78 1.424 . S
C832 C88 1.499 . S
C844 C217 1.398 . S
C871 C133 1.535 . S
C859 C84 1.481 . S
C898 C165 1.531 . S
C886 C94 1.434 . S
C925 C153 1.620 . S
C913 C70 1.485 . S
C952 C197 1.544 . S
C940 C102 1.496 . S
C967 C56 1.541 . S
C979 C229 1.486 . S
C994 C100 1.483 . S
C1006 C121 1.621 . S
