# Generated by pormake.
# Topology nom, (4,4)-cn, num edge types: 1
# Building blocks:
#     Node 0, Type 0, BuildingBlock: MIFKUJ_clean_linker_1, # of connection points: 4
#     Node 1, Type 0, BuildingBlock: MIFKUJ_clean_linker_1, # of connection points: 4
#     Node 2, Type 0, BuildingBlock: MIFKUJ_clean_linker_1, # of connection points: 4
#     Node 3, Type 0, BuildingBlock: MIFKUJ_clean_linker_1, # of connection points: 4
#     Node 4, Type 0, BuildingBlock: MIFKUJ_clean_linker_1, # of connection points: 4
#     Node 5, Type 0, BuildingBlock: MIFKUJ_clean_linker_1, # of connection points: 4
#     Node 6, Type 1, BuildingBlock: NAHDIM_clean_sbu_0, # of connection points: 4
#     Node 7, Type 1, BuildingBlock: NAHDIM_clean_sbu_0, # of connection points: 4
#     Node 8, Type 1, BuildingBlock: NAHDIM_clean_sbu_0, # of connection points: 4
#     Node 9, Type 1, BuildingBlock: NAHDIM_clean_sbu_0, # of connection points: 4
#     Node 10, Type 1, BuildingBlock: NAHDIM_clean_sbu_0, # of connection points: 4
#     Node 11, Type 1, BuildingBlock: NAHDIM_clean_sbu_0, # of connection points: 4
#     Edge 12, Type (0, 1), BuildingBlock: XUDNAN_clean_linker_2, # of connection points: 2
#     Edge 13, Type (0, 1), BuildingBlock: XUDNAN_clean_linker_2, # of connection points: 2
#     Edge 14, Type (0, 1), BuildingBlock: XUDNAN_clean_linker_2, # of connection points: 2
#     Edge 15, Type (0, 1), BuildingBlock: XUDNAN_clean_linker_2, # of connection points: 2
#     Edge 16, Type (0, 1), BuildingBlock: XUDNAN_clean_linker_2, # of connection points: 2
#     Edge 17, Type (0, 1), BuildingBlock: XUDNAN_clean_linker_2, # of connection points: 2
#     Edge 18, Type (0, 1), BuildingBlock: XUDNAN_clean_linker_2, # of connection points: 2
#     Edge 19, Type (0, 1), BuildingBlock: XUDNAN_clean_linker_2, # of connection points: 2
#     Edge 20, Type (0, 1), BuildingBlock: XUDNAN_clean_linker_2, # of connection points: 2
#     Edge 21, Type (0, 1), BuildingBlock: XUDNAN_clean_linker_2, # of connection points: 2
#     Edge 22, Type (0, 1), BuildingBlock: XUDNAN_clean_linker_2, # of connection points: 2
#     Edge 23, Type (0, 1), BuildingBlock: XUDNAN_clean_linker_2, # of connection points: 2
#     Edge 24, Type (0, 1), BuildingBlock: XUDNAN_clean_linker_2, # of connection points: 2
#     Edge 25, Type (0, 1), BuildingBlock: XUDNAN_clean_linker_2, # of connection points: 2
#     Edge 26, Type (0, 1), BuildingBlock: XUDNAN_clean_linker_2, # of connection points: 2
#     Edge 27, Type (0, 1), BuildingBlock: XUDNAN_clean_linker_2, # of connection points: 2
#     Edge 28, Type (0, 1), BuildingBlock: XUDNAN_clean_linker_2, # of connection points: 2
#     Edge 29, Type (0, 1), BuildingBlock: XUDNAN_clean_linker_2, # of connection points: 2
#     Edge 30, Type (0, 1), BuildingBlock: XUDNAN_clean_linker_2, # of connection points: 2
#     Edge 31, Type (0, 1), BuildingBlock: XUDNAN_clean_linker_2, # of connection points: 2
#     Edge 32, Type (0, 1), BuildingBlock: XUDNAN_clean_linker_2, # of connection points: 2
#     Edge 33, Type (0, 1), BuildingBlock: XUDNAN_clean_linker_2, # of connection points: 2
#     Edge 34, Type (0, 1), BuildingBlock: XUDNAN_clean_linker_2, # of connection points: 2
#     Edge 35, Type (0, 1), BuildingBlock: XUDNAN_clean_linker_2, # of connection points: 2
# Relax obj value: 0.020
# Max RMSD: 0.118
# Mean RMSD: 0.104
data_MOF--net-nom--node1-NAHDIM_clean_sbu_0--node2-MIFKUJ_clean_linker_1--edge1-XUDNAN_clean_linker_2
_symmetry_space_group_name_H-M    P1
_symmetry_Int_Tables_number       1
_symmetry_cell_setting            triclinic
loop_
_symmetry_equiv_pos_as_xyz
'x, y, z'
_cell_length_a     52.534223
_cell_length_b     54.050363
_cell_length_c     56.407435
_cell_angle_alpha  90.079043
_cell_angle_beta   90.579199
_cell_angle_gamma 120.99221
loop_
_atom_site_label
_atom_site_type_symbol
_atom_site_fract_x
_atom_site_fract_y
_atom_site_fract_z
_atom_type_partial_charge
H0 H 0.9732 0.47782 0.26813 0.0
H1 H 0.93793 0.46239 0.23514 0.0
H2 H 0.90187 0.51192 0.26411 0.0
H3 H 0.93851 0.52863 0.29642 0.0
H4 H 0.01667 0.5314 0.27848 0.0
H5 H 0.92363 0.46027 0.3184 0.0
H6 H 0.87436 0.44193 0.33564 0.0
H7 H 0.90875 0.52055 0.37657 0.0
H8 H 0.95747 0.53908 0.35898 0.0
H9 H 0.03767 0.56318 0.3799 0.0
H10 H 0.07184 0.56907 0.41213 0.0
H11 H 0.10304 0.5227 0.37086 0.0
H12 H 0.068 0.51586 0.33915 0.0
H13 H 0.99236 0.51748 0.36386 0.0
H14 H 0.07867 0.59033 0.33043 0.0
H15 H 0.12921 0.61921 0.31609 0.0
H16 H 0.11036 0.55406 0.2629 0.0
H17 H 0.06032 0.52436 0.27841 0.0
C18 C 0.95841 0.50422 0.2849 0.0
C19 C 0.95767 0.48535 0.2674 0.0
C20 C 0.93722 0.47628 0.24863 0.0
C21 C 0.91687 0.48577 0.24692 0.0
C22 C 0.9174 0.50441 0.26467 0.0
C23 C 0.93811 0.51372 0.28336 0.0
C24 C 0.9815 0.51474 0.30394 0.0
C25 C 0.01136 0.52795 0.29717 0.0
C26 C 0.97473 0.51221 0.32837 0.0
C27 C 0.94426 0.50113 0.33732 0.0
C28 C 0.92041 0.47376 0.33074 0.0
C29 C 0.89233 0.46328 0.34061 0.0
C30 C 0.8879 0.47978 0.35754 0.0
C31 C 0.91166 0.50727 0.36378 0.0
C32 C 0.93948 0.51785 0.35372 0.0
C33 C 0.05023 0.53911 0.35703 0.0
C34 C 0.05195 0.55437 0.37776 0.0
C35 C 0.07171 0.55795 0.3961 0.0
C36 C 0.09013 0.54626 0.39414 0.0
C37 C 0.0889 0.53164 0.3731 0.0
C38 C 0.06909 0.528 0.35481 0.0
C39 C 0.02748 0.53314 0.33839 0.0
C40 C 0.99777 0.5209 0.34518 0.0
C41 C 0.03451 0.5379 0.31403 0.0
C42 C 0.06569 0.55491 0.30575 0.0
C43 C 0.08556 0.58192 0.31602 0.0
C44 C 0.11439 0.59869 0.3075 0.0
C45 C 0.1239 0.58912 0.28818 0.0
C46 C 0.10398 0.562 0.27797 0.0
C47 C 0.07522 0.54507 0.2867 0.0
H48 H 0.4235 0.96442 0.53395 0.0
H49 H 0.39042 0.91531 0.5478 0.0
H50 H 0.442 0.88671 0.51007 0.0
H51 H 0.47495 0.93599 0.49612 0.0
H52 H 0.48284 0.00084 0.54097 0.0
H53 H 0.41652 0.95348 0.47224 0.0
H54 H 0.39388 0.91885 0.43938 0.0
H55 H 0.48118 0.94352 0.41423 0.0
H56 H 0.50363 0.97781 0.44724 0.0
H57 H 0.54828 0.06862 0.45717 0.0
H58 H 0.56792 0.1171 0.44111 0.0
H59 H 0.51334 0.13133 0.48945 0.0
H60 H 0.49376 0.08296 0.50533 0.0
H61 H 0.49486 0.02461 0.4554 0.0
H62 H 0.56235 0.07465 0.51717 0.0
H63 H 0.59012 0.11046 0.54817 0.0
H64 H 0.50898 0.08073 0.58691 0.0
H65 H 0.48114 0.04548 0.55546 0.0
C66 C 0.45157 0.95385 0.51387 0.0
C67 C 0.42776 0.94759 0.52874 0.0
C68 C 0.40892 0.91951 0.53671 0.0
C69 C 0.41357 0.89707 0.53007 0.0
C70 C 0.43756 0.90341 0.51524 0.0
C71 C 0.45644 0.93157 0.50729 0.0
C72 C 0.47113 0.98378 0.50541 0.0
C73 C 0.48526 0.00613 0.52227 0.0
C74 C 0.47565 0.9905 0.48102 0.0
C75 C 0.46174 0.96811 0.4622 0.0
C76 C 0.43074 0.95109 0.45984 0.0
C77 C 0.41786 0.93146 0.441 0.0
C78 C 0.43577 0.92849 0.42422 0.0
C79 C 0.4668 0.94505 0.42701 0.0
C80 C 0.47965 0.9648 0.44575 0.0
C81 C 0.51971 0.07217 0.4826 0.0
C82 C 0.54072 0.08227 0.46442 0.0
C83 C 0.55185 0.10994 0.45522 0.0
C84 C 0.54214 0.12804 0.46398 0.0
C85 C 0.52162 0.11811 0.48255 0.0
C86 C 0.51042 0.09043 0.49167 0.0
C87 C 0.50579 0.04191 0.49097 0.0
C88 C 0.49279 0.01946 0.47413 0.0
C89 C 0.50302 0.03506 0.51537 0.0
C90 C 0.5196 0.05746 0.53389 0.0
C91 C 0.55045 0.0761 0.53217 0.0
C92 C 0.56636 0.09638 0.55002 0.0
C93 C 0.55178 0.0984 0.57004 0.0
C94 C 0.52083 0.07995 0.5716 0.0
C95 C 0.50492 0.05962 0.55374 0.0
H96 H 0.52127 0.56039 0.69396 0.0
H97 H 0.49924 0.57187 0.72697 0.0
H98 H 0.41227 0.51872 0.69499 0.0
H99 H 0.43433 0.50636 0.66259 0.0
H100 H 0.51005 0.5067 0.68336 0.0
H101 H 0.49178 0.57722 0.64324 0.0
H102 H 0.46124 0.59518 0.62602 0.0
H103 H 0.41502 0.51847 0.58237 0.0
H104 H 0.44463 0.50017 0.60002 0.0
H105 H 0.49422 0.47164 0.58348 0.0
H106 H 0.51962 0.46195 0.55198 0.0
H107 H 0.60213 0.50866 0.59158 0.0
H108 H 0.57679 0.51899 0.6227 0.0
H109 H 0.5009 0.52007 0.59748 0.0
H110 H 0.50563 0.44549 0.63346 0.0
H111 H 0.52205 0.4143 0.65009 0.0
H112 H 0.57782 0.48113 0.70061 0.0
H113 H 0.56166 0.51256 0.68364 0.0
C114 C 0.4795 0.53263 0.67571 0.0
C115 C 0.49746 0.55141 0.69398 0.0
C116 C 0.48486 0.55815 0.71276 0.0
C117 C 0.45396 0.54615 0.71372 0.0
C118 C 0.43611 0.52805 0.69499 0.0
C119 C 0.44872 0.5212 0.67628 0.0
C120 C 0.49288 0.52344 0.65717 0.0
C121 C 0.50859 0.51016 0.66458 0.0
C122 C 0.48905 0.52603 0.63258 0.0
C123 C 0.47045 0.53724 0.62303 0.0
C124 C 0.47476 0.56406 0.63026 0.0
C125 C 0.4574 0.57435 0.62037 0.0
C126 C 0.43597 0.55827 0.60276 0.0
C127 C 0.43165 0.53146 0.59568 0.0
C128 C 0.44858 0.52102 0.60578 0.0
C129 C 0.53356 0.49605 0.60549 0.0
C130 C 0.51776 0.4797 0.58542 0.0
C131 C 0.53226 0.47396 0.56752 0.0
C132 C 0.56293 0.4846 0.56923 0.0
C133 C 0.57857 0.50043 0.58959 0.0
C134 C 0.56404 0.50612 0.60751 0.0
C135 C 0.51857 0.50386 0.6237 0.0
C136 C 0.50263 0.51686 0.61628 0.0
C137 C 0.52066 0.4995 0.64819 0.0
C138 C 0.53266 0.48157 0.65709 0.0
C139 C 0.52196 0.45377 0.64773 0.0
C140 C 0.53129 0.43589 0.6573 0.0
C141 C 0.55119 0.44525 0.67668 0.0
C142 C 0.56223 0.47322 0.68583 0.0
C143 C 0.55308 0.49122 0.67611 0.0
H144 H 0.03044 0.5348 0.76316 0.0
H145 H 0.0644 0.5439 0.73052 0.0
H146 H 0.10481 0.5047 0.77073 0.0
H147 H 0.06987 0.49442 0.80271 0.0
H148 H 0.98864 0.48399 0.78174 0.0
H149 H 0.07901 0.56877 0.81128 0.0
H150 H 0.13241 0.59394 0.81971 0.0
H151 H 0.11808 0.52776 0.86991 0.0
H152 H 0.06477 0.50275 0.86142 0.0
H153 H 0.97723 0.46241 0.88169 0.0
H154 H 0.93906 0.44858 0.91175 0.0
H155 H 0.90506 0.49526 0.8738 0.0
H156 H 0.94258 0.50799 0.84349 0.0
H157 H 0.02201 0.5162 0.86468 0.0
H158 H 0.94016 0.42946 0.83502 0.0
H159 H 0.88771 0.3956 0.82666 0.0
H160 H 0.88599 0.45718 0.77881 0.0
H161 H 0.93892 0.49079 0.78695 0.0
C162 C 0.04779 0.51421 0.7855 0.0
C163 C 0.0466 0.52813 0.76489 0.0
C164 C 0.06623 0.53357 0.74633 0.0
C165 C 0.08744 0.52512 0.74798 0.0
C166 C 0.08858 0.51122 0.76871 0.0
C167 C 0.06882 0.50562 0.78716 0.0
C168 C 0.02654 0.50806 0.80499 0.0
C169 C 0.99601 0.49161 0.79974 0.0
C170 C 0.03605 0.51681 0.82876 0.0
C171 C 0.06798 0.53368 0.83548 0.0
C172 C 0.08738 0.55979 0.82419 0.0
C173 C 0.11787 0.5741 0.82898 0.0
C174 C 0.12948 0.56271 0.84533 0.0
C175 C 0.10982 0.53724 0.85739 0.0
C176 C 0.07935 0.52289 0.85252 0.0
C177 C 0.9626 0.48607 0.86033 0.0
C178 C 0.96163 0.46979 0.88 0.0
C179 C 0.93983 0.46199 0.8972 0.0
C180 C 0.91878 0.47066 0.89521 0.0
C181 C 0.92041 0.48764 0.87571 0.0
C182 C 0.94201 0.49516 0.85844 0.0
C183 C 0.98434 0.49271 0.84122 0.0
C184 C 0.0148 0.50909 0.84656 0.0
C185 C 0.9749 0.48331 0.81765 0.0
C186 C 0.94327 0.46273 0.81182 0.0
C187 C 0.92845 0.43567 0.82276 0.0
C188 C 0.89843 0.41639 0.81803 0.0
C189 C 0.88252 0.42379 0.80226 0.0
C190 C 0.89762 0.45072 0.7909 0.0
C191 C 0.9278 0.46999 0.79558 0.0
H192 H 0.60038 0.06557 0.01524 0.0
H193 H 0.62937 0.11388 0.03242 0.0
H194 H 0.56354 0.13333 0.00791 0.0
H195 H 0.53396 0.0843 0.99095 0.0
H196 H 0.54463 0.02749 0.03155 0.0
H197 H 0.58684 0.07559 0.9536 0.0
H198 H 0.59089 0.10663 0.92043 0.0
H199 H 0.49516 0.06051 0.91379 0.0
H200 H 0.4914 0.0294 0.94652 0.0
H201 H 0.46957 0.94201 0.95664 0.0
H202 H 0.45379 0.89131 0.94839 0.0
H203 H 0.5282 0.90146 0.98979 0.0
H204 H 0.54407 0.95172 0.99759 0.0
H205 H 0.51578 0.99327 0.94856 0.0
H206 H 0.46742 0.94624 0.01734 0.0
H207 H 0.44988 0.91621 0.05269 0.0
H208 H 0.53984 0.95874 0.08027 0.0
H209 H 0.55707 0.98914 0.04512 0.0
C210 C 0.56495 0.07125 0.00188 0.0
C211 C 0.5923 0.0803 0.01324 0.0
C212 C 0.60882 0.10786 0.0231 0.0
C213 C 0.59849 0.12713 0.02171 0.0
C214 C 0.57196 0.11881 0.00915 0.0
C215 C 0.55513 0.0909 0.99943 0.0
C216 C 0.54592 0.04032 0.99527 0.0
C217 C 0.53865 0.02003 0.01334 0.0
C218 C 0.53574 0.03046 0.97188 0.0
C219 C 0.53882 0.05024 0.95252 0.0
C220 C 0.56678 0.07238 0.94508 0.0
C221 C 0.56902 0.09014 0.92617 0.0
C222 C 0.54333 0.08597 0.91436 0.0
C223 C 0.5154 0.064 0.92217 0.0
C224 C 0.5132 0.04627 0.94095 0.0
C225 C 0.50758 0.9505 0.97824 0.0
C226 C 0.48259 0.93334 0.96373 0.0
C227 C 0.47365 0.90446 0.95899 0.0
C228 C 0.48956 0.89241 0.96876 0.0
C229 C 0.51519 0.91001 0.98243 0.0
C230 C 0.52419 0.93873 0.98697 0.0
C231 C 0.51681 0.9807 0.98465 0.0
C232 C 0.52178 0.00071 0.96676 0.0
C233 C 0.52348 0.99038 0.00844 0.0
C234 C 0.51355 0.97003 0.02864 0.0
C235 C 0.48342 0.94878 0.03085 0.0
C236 C 0.47342 0.93156 0.05107 0.0
C237 C 0.49339 0.93525 0.06946 0.0
C238 C 0.52375 0.95576 0.0667 0.0
C239 C 0.53368 0.97308 0.04657 0.0
H240 H 0.48059 0.47495 0.20022 0.0
H241 H 0.49319 0.4516 0.23137 0.0
H242 H 0.58349 0.49403 0.20647 0.0
H243 H 0.57087 0.51803 0.17566 0.0
H244 H 0.50357 0.53295 0.19121 0.0
H245 H 0.49733 0.44945 0.14989 0.0
H246 H 0.52207 0.42243 0.1421 0.0
H247 H 0.59511 0.49823 0.1103 0.0
H248 H 0.56983 0.52485 0.11771 0.0
H249 H 0.51869 0.56039 0.08873 0.0
H250 H 0.49272 0.56763 0.05579 0.0
H251 H 0.41336 0.53239 0.09789 0.0
H252 H 0.43898 0.52394 0.13028 0.0
H253 H 0.50969 0.51316 0.10624 0.0
H254 H 0.51171 0.59436 0.1391 0.0
H255 H 0.49934 0.62873 0.15562 0.0
H256 H 0.4433 0.56555 0.20719 0.0
H257 H 0.45506 0.531 0.19034 0.0
C258 C 0.52471 0.49803 0.1855 0.0
C259 C 0.50315 0.47937 0.20156 0.0
C260 C 0.51032 0.46582 0.21921 0.0
C261 C 0.53928 0.47075 0.22126 0.0
C262 C 0.56102 0.48989 0.20542 0.0
C263 C 0.5538 0.50345 0.18771 0.0
C264 C 0.51625 0.51131 0.16632 0.0
C265 C 0.50446 0.52843 0.17259 0.0
C266 C 0.519 0.50657 0.14208 0.0
C267 C 0.53195 0.48918 0.13459 0.0
C268 C 0.51846 0.46005 0.14092 0.0
C269 C 0.53273 0.44473 0.13658 0.0
C270 C 0.56077 0.45828 0.12585 0.0
C271 C 0.57345 0.48706 0.11842 0.0
C272 C 0.55909 0.50234 0.12269 0.0
C273 C 0.48092 0.54175 0.11211 0.0
C274 C 0.49575 0.55439 0.09092 0.0
C275 C 0.48091 0.55872 0.07214 0.0
C276 C 0.45087 0.55046 0.07411 0.0
C277 C 0.43635 0.53861 0.09561 0.0
C278 C 0.45115 0.53416 0.11432 0.0
C279 C 0.49556 0.53412 0.13105 0.0
C280 C 0.50868 0.51801 0.12476 0.0
C281 C 0.4944 0.54027 0.15534 0.0
C282 C 0.4843 0.56 0.16342 0.0
C283 C 0.49619 0.58761 0.15358 0.0
C284 C 0.48923 0.60731 0.1631 0.0
C285 C 0.47064 0.59988 0.18284 0.0
C286 C 0.45808 0.57199 0.19222 0.0
C287 C 0.46474 0.55223 0.18255 0.0
C288 C 0.60209 0.32712 0.42135 0.0
O289 O 0.60906 0.3432 0.44057 0.0
O290 O 0.66567 0.39945 0.39143 0.0
Zn291 Zn 0.62165 0.38132 0.39661 0.0
O292 O 0.61412 0.39914 0.42535 0.0
C293 C 0.61447 0.41021 0.35592 0.0
O294 O 0.64071 0.43152 0.36266 0.0
O295 O 0.60496 0.3387 0.40118 0.0
C296 C 0.63092 0.42596 0.42969 0.0
O297 O 0.65287 0.44169 0.41526 0.0
C298 C 0.68245 0.40258 0.40899 0.0
O299 O 0.67076 0.39455 0.43011 0.0
O300 O 0.60225 0.38691 0.36769 0.0
C301 C 0.28359 0.68861 0.55635 0.0
O302 O 0.28216 0.67461 0.53685 0.0
O303 O 0.28301 0.62089 0.57486 0.0
Zn304 Zn 0.25082 0.63088 0.57397 0.0
O305 O 0.22564 0.61532 0.54404 0.0
C306 C 0.22076 0.58971 0.61081 0.0
O307 O 0.2339 0.57757 0.60042 0.0
O308 O 0.27096 0.67431 0.57487 0.0
C309 C 0.21581 0.58955 0.53705 0.0
O310 O 0.22231 0.57294 0.54946 0.0
C311 C 0.29548 0.61867 0.55646 0.0
O312 O 0.28726 0.62285 0.53551 0.0
O313 O 0.2247 0.61338 0.6027 0.0
C314 C 0.59908 0.29768 0.72062 0.0
O315 O 0.60913 0.29086 0.70202 0.0
O316 O 0.65423 0.28004 0.75622 0.0
Zn317 Zn 0.6122 0.25789 0.74386 0.0
O318 O 0.60928 0.23797 0.71279 0.0
C319 C 0.59566 0.23041 0.78956 0.0
O320 O 0.61837 0.25521 0.79675 0.0
O321 O 0.59765 0.28571 0.74035 0.0
C322 C 0.62583 0.2277 0.70879 0.0
O323 O 0.64574 0.23115 0.72481 0.0
C324 C 0.67682 0.29898 0.74514 0.0
O325 O 0.67384 0.30487 0.72306 0.0
O326 O 0.58807 0.22701 0.76777 0.0
C327 C 0.4171 0.6907 0.9238 0.0
O328 O 0.40101 0.66854 0.93755 0.0
O329 O 0.35583 0.63294 0.8836 0.0
Zn330 Zn 0.39745 0.64354 0.89287 0.0
O331 O 0.3991 0.62089 0.921 0.0
C332 C 0.3957 0.60673 0.85829 0.0
O333 O 0.37212 0.5912 0.87127 0.0
O334 O 0.41999 0.68611 0.90212 0.0
C335 C 0.37806 0.59773 0.92969 0.0
O336 O 0.35158 0.58531 0.91969 0.0
C337 C 0.33448 0.62964 0.8963 0.0
O338 O 0.33785 0.63263 0.91943 0.0
O339 O 0.41319 0.63306 0.8641 0.0
C340 C 0.69932 0.39122 0.09498 0.0
O341 O 0.71053 0.38114 0.11042 0.0
O342 O 0.72241 0.34406 0.06552 0.0
Zn343 Zn 0.74195 0.38757 0.06816 0.0
O344 O 0.77139 0.40616 0.09548 0.0
C345 C 0.78902 0.41017 0.03428 0.0
O346 O 0.80268 0.40571 0.0519 0.0
O347 O 0.70948 0.39645 0.07404 0.0
C348 C 0.78633 0.39766 0.10709 0.0
O349 O 0.78426 0.37311 0.1014 0.0
C350 C 0.7149 0.32632 0.08253 0.0
O351 O 0.72115 0.33607 0.10443 0.0
O352 O 0.76256 0.40453 0.03714 0.0
C353 C 0.41464 0.7405 0.22852 0.0
O354 O 0.40131 0.7438 0.21003 0.0
O355 O 0.3482 0.7406 0.24329 0.0
Zn356 Zn 0.39111 0.77224 0.24797 0.0
O357 O 0.4068 0.80177 0.22185 0.0
C358 C 0.39014 0.81372 0.27815 0.0
O359 O 0.38239 0.81986 0.25778 0.0
O360 O 0.41437 0.75193 0.24818 0.0
C361 C 0.39708 0.7997 0.20078 0.0
O362 O 0.37336 0.77565 0.19362 0.0
C363 C 0.32551 0.74224 0.24806 0.0
O364 O 0.32905 0.76697 0.25513 0.0
O365 O 0.39585 0.79353 0.2789 0.0
H366 H 0.15558 0.64821 0.28371 0.0
H367 H 0.16136 0.57196 0.27113 0.0
H368 H 0.21204 0.60276 0.25586 0.0
H369 H 0.19854 0.68977 0.23316 0.0
H370 H 0.21656 0.72341 0.24942 0.0
H371 H 0.17975 0.69521 0.25736 0.0
H372 H 0.19777 0.69629 0.30051 0.0
H373 H 0.23454 0.72457 0.29275 0.0
H374 H 0.22904 0.69176 0.30577 0.0
H375 H 0.26309 0.64207 0.24394 0.0
H376 H 0.31135 0.68685 0.23823 0.0
H377 H 0.27265 0.73734 0.26012 0.0
C378 C 0.16744 0.63789 0.27782 0.0
C379 C 0.1543 0.60755 0.27858 0.0
C380 C 0.17063 0.59506 0.27037 0.0
C381 C 0.19951 0.61239 0.26173 0.0
C382 C 0.21178 0.64219 0.26142 0.0
C383 C 0.1963 0.65483 0.26934 0.0
C384 C 0.2151 0.68744 0.26844 0.0
C385 C 0.20168 0.69967 0.25106 0.0
C386 C 0.21937 0.70079 0.29335 0.0
C387 C 0.24381 0.6912 0.25917 0.0
C388 C 0.24133 0.66484 0.25495 0.0
C389 C 0.26524 0.66283 0.24705 0.0
C390 C 0.29257 0.68841 0.24384 0.0
C391 C 0.29582 0.71565 0.24872 0.0
C392 C 0.27089 0.71692 0.25609 0.0
H393 H 0.55832 0.17937 0.48649 0.0
H394 H 0.5481 0.14106 0.41674 0.0
H395 H 0.56252 0.18781 0.39831 0.0
H396 H 0.52846 0.2237 0.47122 0.0
H397 H 0.55412 0.25362 0.48977 0.0
H398 H 0.54394 0.21739 0.49757 0.0
H399 H 0.59943 0.23246 0.49848 0.0
H400 H 0.6098 0.26878 0.49079 0.0
H401 H 0.62194 0.24927 0.47282 0.0
H402 H 0.57629 0.23815 0.38741 0.0
H403 H 0.59068 0.28928 0.38478 0.0
H404 H 0.5919 0.29491 0.46165 0.0
C405 C 0.55909 0.18081 0.46733 0.0
C406 C 0.55217 0.15656 0.45305 0.0
C407 C 0.55374 0.15943 0.42806 0.0
C408 C 0.56169 0.18584 0.41741 0.0
C409 C 0.5681 0.20921 0.432 0.0
C410 C 0.56707 0.20703 0.45642 0.0
C411 C 0.57494 0.23544 0.46803 0.0
C412 C 0.5488 0.23234 0.4825 0.0
C413 C 0.60321 0.24718 0.48344 0.0
C414 C 0.58036 0.25388 0.44631 0.0
C415 C 0.57623 0.23831 0.42571 0.0
C416 C 0.57968 0.2506 0.40341 0.0
C417 C 0.5878 0.27966 0.40212 0.0
C418 C 0.59245 0.29617 0.423 0.0
C419 C 0.58855 0.28294 0.44535 0.0
H420 H 0.4042 0.57922 0.62435 0.0
H421 H 0.42752 0.5616 0.55543 0.0
H422 H 0.39567 0.57707 0.53601 0.0
H423 H 0.32843 0.55251 0.61043 0.0
H424 H 0.32589 0.57937 0.62748 0.0
H425 H 0.35226 0.56907 0.63598 0.0
H426 H 0.395 0.62246 0.63391 0.0
H427 H 0.36872 0.63296 0.62551 0.0
H428 H 0.40023 0.64248 0.60704 0.0
H429 H 0.36009 0.59274 0.52414 0.0
H430 H 0.32231 0.60673 0.52057 0.0
H431 H 0.32101 0.61303 0.59728 0.0
C432 C 0.40293 0.57911 0.60517 0.0
C433 C 0.41834 0.56935 0.59133 0.0
C434 C 0.41576 0.56893 0.5663 0.0
C435 C 0.39784 0.57776 0.55513 0.0
C436 C 0.38257 0.58686 0.56926 0.0
C437 C 0.38488 0.58759 0.59372 0.0
C438 C 0.36493 0.59691 0.60477 0.0
C439 C 0.34149 0.57304 0.62059 0.0
C440 C 0.38332 0.6254 0.61862 0.0
C441 C 0.35088 0.60104 0.5827 0.0
C442 C 0.36156 0.59536 0.56241 0.0
C443 C 0.35163 0.59736 0.53989 0.0
C444 C 0.33015 0.60531 0.53806 0.0
C445 C 0.31866 0.61096 0.55862 0.0
C446 C 0.32932 0.60885 0.5812 0.0
H447 H 0.85111 0.41146 0.76009 0.0
H448 H 0.84077 0.39043 0.83501 0.0
H449 H 0.78754 0.35562 0.82818 0.0
H450 H 0.78103 0.40839 0.7527 0.0
H451 H 0.77424 0.39295 0.72331 0.0
H452 H 0.81178 0.41593 0.73396 0.0
H453 H 0.82303 0.37546 0.72513 0.0
H454 H 0.78548 0.3523 0.71456 0.0
H455 H 0.8001 0.34031 0.73797 0.0
H456 H 0.73589 0.32285 0.81343 0.0
H457 H 0.68816 0.29542 0.79196 0.0
H458 H 0.73116 0.33875 0.7267 0.0
C459 C 0.83762 0.39975 0.7751 0.0
C460 C 0.85025 0.40352 0.79806 0.0
C461 C 0.8318 0.38752 0.81718 0.0
C462 C 0.80148 0.36781 0.81351 0.0
C463 C 0.78985 0.36444 0.79067 0.0
C464 C 0.80723 0.38006 0.7718 0.0
C465 C 0.78899 0.37251 0.74907 0.0
C466 C 0.78901 0.39902 0.73918 0.0
C467 C 0.80006 0.35936 0.7306 0.0
C468 C 0.75865 0.3502 0.75817 0.0
C469 C 0.75975 0.34582 0.78219 0.0
C470 C 0.73469 0.32613 0.79463 0.0
C471 C 0.70768 0.31062 0.78223 0.0
C472 C 0.70586 0.31496 0.75763 0.0
C473 C 0.73179 0.33499 0.74549 0.0
H474 H 0.472 0.85944 0.92771 0.0
H475 H 0.48331 0.85523 0.00364 0.0
H476 H 0.46779 0.80391 0.99978 0.0
H477 H 0.40696 0.78795 0.92106 0.0
H478 H 0.41798 0.78084 0.89292 0.0
H479 H 0.42985 0.81736 0.90152 0.0
H480 H 0.48465 0.83199 0.89538 0.0
H481 H 0.47296 0.79545 0.88694 0.0
H482 H 0.49934 0.81281 0.91092 0.0
H483 H 0.45055 0.75359 0.98834 0.0
H484 H 0.43173 0.7059 0.96985 0.0
H485 H 0.43247 0.74167 0.90081 0.0
C486 C 0.471 0.84758 0.94348 0.0
C487 C 0.479 0.86129 0.96598 0.0
C488 C 0.47762 0.8452 0.98622 0.0
C489 C 0.46878 0.81605 0.98422 0.0
C490 C 0.46148 0.80327 0.96182 0.0
C491 C 0.46242 0.81837 0.94177 0.0
C492 C 0.45343 0.79917 0.91986 0.0
C493 C 0.42539 0.79615 0.90815 0.0
C494 C 0.47913 0.81054 0.90223 0.0
C495 C 0.44714 0.77095 0.93082 0.0
C496 C 0.45194 0.77396 0.95506 0.0
C497 C 0.44684 0.75094 0.96936 0.0
C498 C 0.43613 0.72394 0.95868 0.0
C499 C 0.4308 0.72013 0.9339 0.0
C500 C 0.43677 0.74407 0.91974 0.0
H501 H 0.59569 0.45953 0.08904 0.0
H502 H 0.56484 0.42361 0.15898 0.0
H503 H 0.5947 0.40046 0.15737 0.0
H504 H 0.59857 0.39839 0.06445 0.0
H505 H 0.63203 0.42096 0.04817 0.0
H506 H 0.60652 0.43312 0.05392 0.0
H507 H 0.64903 0.47963 0.07371 0.0
H508 H 0.67464 0.46762 0.06805 0.0
H509 H 0.67007 0.4767 0.09784 0.0
H510 H 0.62987 0.38379 0.14961 0.0
H511 H 0.66807 0.37387 0.13591 0.0
H512 H 0.6771 0.42075 0.071 0.0
C513 C 0.59509 0.44667 0.10396 0.0
C514 C 0.57761 0.44315 0.12403 0.0
C515 C 0.57746 0.4261 0.14317 0.0
C516 C 0.59451 0.413 0.14251 0.0
C517 C 0.61162 0.4171 0.12258 0.0
C518 C 0.61203 0.43342 0.1036 0.0
C519 C 0.63329 0.43521 0.08474 0.0
C520 C 0.6166 0.42107 0.06144 0.0
C521 C 0.65823 0.46666 0.08087 0.0
C522 C 0.64507 0.41771 0.09628 0.0
C523 C 0.63213 0.40741 0.11806 0.0
C524 C 0.64001 0.39153 0.13251 0.0
C525 C 0.66183 0.38609 0.12457 0.0
C526 C 0.67555 0.39647 0.10235 0.0
C527 C 0.66684 0.41231 0.08797 0.0
H528 H 0.39115 0.84622 0.50499 0.0
H529 H 0.39045 0.88035 0.57454 0.0
H530 H 0.35618 0.83089 0.5886 0.0
H531 H 0.31464 0.78961 0.50344 0.0
H532 H 0.32163 0.76411 0.48871 0.0
H533 H 0.34594 0.80223 0.48404 0.0
H534 H 0.39115 0.7984 0.49734 0.0
H535 H 0.367 0.76025 0.50194 0.0
H536 H 0.39066 0.78297 0.52577 0.0
H537 H 0.3222 0.77762 0.59517 0.0
H538 H 0.29165 0.72437 0.59391 0.0
H539 H 0.31512 0.72518 0.52019 0.0
C540 C 0.38402 0.84331 0.52324 0.0
C541 C 0.39344 0.86721 0.53863 0.0
C542 C 0.38322 0.86243 0.56231 0.0
C543 C 0.36386 0.83441 0.5705 0.0
C544 C 0.35491 0.81137 0.55482 0.0
C545 C 0.36471 0.8155 0.53171 0.0
C546 C 0.35188 0.78706 0.5185 0.0
C547 C 0.33236 0.78568 0.49743 0.0
C548 C 0.37665 0.78187 0.51042 0.0
C549 C 0.33341 0.76628 0.53781 0.0
C550 C 0.33541 0.78071 0.55862 0.0
C551 C 0.32044 0.76607 0.57897 0.0
C552 C 0.30312 0.73582 0.57807 0.0
C553 C 0.30094 0.72057 0.55696 0.0
C554 C 0.31623 0.73615 0.53659 0.0
H555 H 0.5665 0.40943 0.65474 0.0
H556 H 0.55351 0.4358 0.72407 0.0
H557 H 0.56438 0.40096 0.74292 0.0
H558 H 0.53278 0.33424 0.66724 0.0
H559 H 0.55883 0.32955 0.65016 0.0
H560 H 0.55079 0.35708 0.64215 0.0
H561 H 0.6068 0.39587 0.64502 0.0
H562 H 0.61504 0.36844 0.65293 0.0
H563 H 0.62714 0.39941 0.672 0.0
H564 H 0.57464 0.36184 0.75408 0.0
H565 H 0.58647 0.32325 0.75694 0.0
H566 H 0.59342 0.3229 0.68031 0.0
C567 C 0.56596 0.40786 0.67389 0.0
C568 C 0.55921 0.42535 0.68796 0.0
C569 C 0.55899 0.42288 0.71297 0.0
C570 C 0.56494 0.40302 0.72382 0.0
C571 C 0.57122 0.38592 0.70942 0.0
C572 C 0.57202 0.3883 0.68501 0.0
C573 C 0.57947 0.36746 0.6736 0.0
C574 C 0.55394 0.3458 0.65733 0.0
C575 C 0.60886 0.38378 0.6601 0.0
C576 C 0.58253 0.35284 0.6954 0.0
C577 C 0.57757 0.36371 0.71588 0.0
C578 C 0.57871 0.35325 0.73818 0.0
C579 C 0.58535 0.33126 0.73961 0.0
C580 C 0.59094 0.32008 0.71886 0.0
C581 C 0.58939 0.33105 0.69651 0.0
H582 H 0.16055 0.57159 0.88721 0.0
H583 H 0.17192 0.58395 0.81117 0.0
H584 H 0.22578 0.6042 0.81631 0.0
H585 H 0.22987 0.63658 0.90464 0.0
H586 H 0.23659 0.61938 0.92926 0.0
H587 H 0.19907 0.60727 0.9198 0.0
H588 H 0.18888 0.55526 0.9147 0.0
H589 H 0.22636 0.56721 0.92408 0.0
H590 H 0.21263 0.54901 0.89594 0.0
H591 H 0.2775 0.62013 0.82918 0.0
H592 H 0.32457 0.6326 0.84913 0.0
H593 H 0.28022 0.61041 0.91707 0.0
C594 C 0.17441 0.57868 0.87166 0.0
C595 C 0.16205 0.57636 0.84879 0.0
C596 C 0.18095 0.58599 0.82889 0.0
C597 C 0.21154 0.59735 0.83161 0.0
C598 C 0.22293 0.59907 0.85435 0.0
C599 C 0.20504 0.59019 0.87406 0.0
C600 C 0.22291 0.59383 0.89645 0.0
C601 C 0.22206 0.61556 0.91355 0.0
C602 C 0.21204 0.56459 0.90849 0.0
C603 C 0.25357 0.60578 0.88617 0.0
C604 C 0.25301 0.60862 0.86185 0.0
C605 C 0.27829 0.61825 0.84823 0.0
C606 C 0.30491 0.62519 0.85975 0.0
C607 C 0.30612 0.62259 0.88469 0.0
C608 C 0.28007 0.61288 0.89803 0.0
H609 H 0.6187 0.18208 0.00517 0.0
H610 H 0.61448 0.13431 0.06821 0.0
H611 H 0.64328 0.17998 0.09067 0.0
H612 H 0.69348 0.23991 0.01455 0.0
H613 H 0.68712 0.26763 0.00364 0.0
H614 H 0.66475 0.23117 0.99267 0.0
H615 H 0.61697 0.23046 0.00489 0.0
H616 H 0.63919 0.26699 0.01576 0.0
H617 H 0.61315 0.239 0.03507 0.0
H618 H 0.67295 0.23044 0.10619 0.0
H619 H 0.70224 0.28294 0.11378 0.0
H620 H 0.68887 0.2985 0.04046 0.0
C621 C 0.62361 0.18135 0.02376 0.0
C622 C 0.61445 0.15477 0.03502 0.0
C623 C 0.62152 0.15453 0.05928 0.0
C624 C 0.63776 0.18031 0.07218 0.0
C625 C 0.64692 0.2062 0.06054 0.0
C626 C 0.64016 0.20699 0.03689 0.0
C627 C 0.65363 0.23786 0.02853 0.0
C628 C 0.67608 0.24453 0.00867 0.0
C629 C 0.62928 0.24393 0.0206 0.0
C630 C 0.669 0.25418 0.05115 0.0
C631 C 0.66468 0.23546 0.06941 0.0
C632 C 0.67652 0.24535 0.09204 0.0
C633 C 0.69315 0.27521 0.09618 0.0
C634 C 0.69797 0.29485 0.07773 0.0
C635 C 0.68577 0.28407 0.05491 0.0
H636 H 0.45515 0.63579 0.16129 0.0
H637 H 0.47368 0.61241 0.2301 0.0
H638 H 0.46419 0.64797 0.24933 0.0
H639 H 0.48785 0.71249 0.17347 0.0
H640 H 0.45955 0.7148 0.15704 0.0
H641 H 0.4693 0.68857 0.14866 0.0
H642 H 0.4143 0.64763 0.15247 0.0
H643 H 0.40438 0.67372 0.16078 0.0
H644 H 0.39525 0.64363 0.17989 0.0
H645 H 0.45176 0.68558 0.26107 0.0
H646 H 0.43445 0.72021 0.26454 0.0
H647 H 0.42328 0.7181 0.18805 0.0
C648 C 0.45752 0.63842 0.18037 0.0
C649 C 0.46518 0.62143 0.19423 0.0
C650 C 0.46759 0.62509 0.2192 0.0
C651 C 0.46246 0.64535 0.23025 0.0
C652 C 0.45484 0.66171 0.21608 0.0
C653 C 0.45222 0.65836 0.1917 0.0
C654 C 0.44236 0.67759 0.18064 0.0
C655 C 0.46619 0.69967 0.16397 0.0
C656 C 0.41228 0.65956 0.16769 0.0
C657 C 0.43957 0.69209 0.20262 0.0
C658 C 0.44717 0.68291 0.22287 0.0
C659 C 0.44584 0.69301 0.24532 0.0
C660 C 0.43605 0.71271 0.24712 0.0
C661 C 0.42749 0.72183 0.22659 0.0
C662 C 0.42966 0.71156 0.2041 0.0
H663 H 0.83227 0.45515 0.33714 0.0
H664 H 0.87869 0.4786 0.40499 0.0
H665 H 0.83112 0.46099 0.42548 0.0
H666 H 0.78028 0.47684 0.35163 0.0
H667 H 0.74966 0.44767 0.33558 0.0
H668 H 0.78717 0.46099 0.32619 0.0
H669 H 0.77879 0.40948 0.3292 0.0
H670 H 0.7412 0.39597 0.33851 0.0
H671 H 0.76598 0.39004 0.35665 0.0
H672 H 0.77894 0.44107 0.43859 0.0
H673 H 0.72522 0.42099 0.44359 0.0
H674 H 0.71247 0.41177 0.36719 0.0
C675 C 0.83228 0.45627 0.35631 0.0
C676 C 0.85905 0.46817 0.36954 0.0
C677 C 0.85837 0.4697 0.39458 0.0
C678 C 0.8315 0.45969 0.40635 0.0
C679 C 0.80552 0.44835 0.39282 0.0
C680 C 0.80562 0.44664 0.36836 0.0
C681 C 0.7746 0.43427 0.35807 0.0
C682 C 0.77284 0.45626 0.34192 0.0
C683 C 0.76455 0.40574 0.34483 0.0
C684 C 0.75711 0.42932 0.38056 0.0
C685 C 0.77538 0.43744 0.40039 0.0
C686 C 0.76438 0.43466 0.42321 0.0
C687 C 0.73383 0.42321 0.42586 0.0
C688 C 0.71466 0.41488 0.4058 0.0
C689 C 0.72658 0.4181 0.38286 0.0
H690 H 0.12363 0.59237 0.42433 0.0
H691 H 0.09986 0.50396 0.41011 0.0
H692 H 0.1305 0.50603 0.4443 0.0
H693 H 0.19945 0.61877 0.44356 0.0
H694 H 0.19883 0.64177 0.46643 0.0
H695 H 0.17595 0.63381 0.44022 0.0
H696 H 0.12932 0.61481 0.46635 0.0
H697 H 0.15205 0.6227 0.49263 0.0
H698 H 0.12092 0.58674 0.48754 0.0
H699 H 0.16222 0.51693 0.48075 0.0
H700 H 0.19344 0.53618 0.51682 0.0
H701 H 0.19627 0.61736 0.50785 0.0
C702 C 0.12483 0.57342 0.42841 0.0
C703 C 0.10944 0.54805 0.41437 0.0
C704 C 0.11184 0.52383 0.42027 0.0
C705 C 0.12905 0.52471 0.43977 0.0
C706 C 0.14377 0.54997 0.45326 0.0
C707 C 0.14192 0.57392 0.44784 0.0
C708 C 0.15958 0.59821 0.46549 0.0
C709 C 0.18496 0.6247 0.45318 0.0
C710 C 0.13925 0.60607 0.47879 0.0
C711 C 0.17141 0.58406 0.48178 0.0
C712 C 0.16207 0.55626 0.47436 0.0
C713 C 0.16977 0.53871 0.4867 0.0
C714 C 0.1875 0.54985 0.5072 0.0
C715 C 0.19735 0.57829 0.5152 0.0
C716 C 0.18918 0.59557 0.5022 0.0
H717 H 0.53716 0.13282 0.5953 0.0
H718 H 0.60493 0.11005 0.58928 0.0
H719 H 0.63273 0.14284 0.62267 0.0
H720 H 0.587 0.20842 0.61124 0.0
H721 H 0.56131 0.20906 0.63181 0.0
H722 H 0.54756 0.18502 0.60656 0.0
H723 H 0.51783 0.14152 0.63443 0.0
H724 H 0.53144 0.1654 0.65974 0.0
H725 H 0.53697 0.13518 0.65818 0.0
H726 H 0.65165 0.17585 0.65815 0.0
H727 H 0.66062 0.20716 0.69297 0.0
H728 H 0.58062 0.20859 0.67582 0.0
C729 C 0.55787 0.13477 0.60098 0.0
C730 C 0.56893 0.11895 0.5896 0.0
C731 C 0.59624 0.12228 0.59747 0.0
C732 C 0.61213 0.14075 0.61649 0.0
C733 C 0.60051 0.15588 0.6274 0.0
C734 C 0.57407 0.15319 0.61989 0.0
C735 C 0.56605 0.17127 0.63508 0.0
C736 C 0.56546 0.19484 0.62029 0.0
C737 C 0.53632 0.1522 0.6476 0.0
C738 C 0.59186 0.18414 0.65256 0.0
C739 C 0.61154 0.17509 0.64776 0.0
C740 C 0.63653 0.18329 0.66197 0.0
C741 C 0.64141 0.20104 0.68174 0.0
C742 C 0.62141 0.21042 0.68709 0.0
C743 C 0.59649 0.20202 0.6721 0.0
H744 H 0.47379 0.59632 0.73995 0.0
H745 H 0.4034 0.50621 0.73599 0.0
H746 H 0.38121 0.51263 0.77192 0.0
H747 H 0.48213 0.59962 0.80338 0.0
H748 H 0.4889 0.63576 0.80609 0.0
H749 H 0.49897 0.62473 0.77937 0.0
H750 H 0.46709 0.63927 0.75446 0.0
H751 H 0.45699 0.65044 0.7811 0.0
H752 H 0.42848 0.62423 0.7615 0.0
H753 H 0.36727 0.52775 0.80848 0.0
H754 H 0.36127 0.55106 0.84355 0.0
H755 H 0.44081 0.63177 0.82517 0.0
C756 C 0.45371 0.57794 0.74665 0.0
C757 C 0.44021 0.55078 0.73493 0.0
C758 C 0.41385 0.52736 0.74426 0.0
C759 C 0.40118 0.53071 0.76481 0.0
C760 C 0.4151 0.55762 0.77593 0.0
C761 C 0.44071 0.58089 0.76723 0.0
C762 C 0.45121 0.60738 0.78292 0.0
C763 C 0.48214 0.61746 0.79357 0.0
C764 C 0.45092 0.63177 0.76917 0.0
C765 C 0.42754 0.59521 0.80185 0.0
C766 C 0.407 0.56646 0.79735 0.0
C767 C 0.38314 0.55027 0.81218 0.0
C768 C 0.37998 0.5638 0.83212 0.0
C769 C 0.40055 0.59332 0.83719 0.0
C770 C 0.42473 0.6092 0.82181 0.0
H771 H 0.92273 0.46527 0.94353 0.0
H772 H 0.86065 0.45535 0.88757 0.0
H773 H 0.82139 0.44098 0.9172 0.0
H774 H 0.87054 0.40298 0.97633 0.0
H775 H 0.88569 0.41943 0.00483 0.0
H776 H 0.90928 0.43035 0.97931 0.0
H777 H 0.92418 0.48351 0.98675 0.0
H778 H 0.90051 0.47273 0.01223 0.0
H779 H 0.89565 0.49251 0.9887 0.0
H780 H 0.78858 0.42724 0.95302 0.0
H781 H 0.76429 0.41298 0.99203 0.0
H782 H 0.84721 0.42965 0.02408 0.0
C783 C 0.90086 0.4599 0.9374 0.0
C784 C 0.895 0.46176 0.91314 0.0
C785 C 0.86602 0.45478 0.90606 0.0
C786 C 0.84346 0.44639 0.92276 0.0
C787 C 0.85007 0.44486 0.94648 0.0
C788 C 0.87801 0.45124 0.95378 0.0
C789 C 0.8791 0.44704 0.98023 0.0
C790 C 0.88659 0.42355 0.98548 0.0
C791 C 0.90117 0.47565 0.9927 0.0
C792 C 0.84737 0.4372 0.98665 0.0
C793 C 0.83103 0.43629 0.96698 0.0
C794 C 0.80116 0.42785 0.96855 0.0
C795 C 0.78757 0.41985 0.99079 0.0
C796 C 0.80381 0.42014 0.01111 0.0
C797 C 0.83415 0.42912 0.00891 0.0
H798 H 0.44938 0.87825 0.07544 0.0
H799 H 0.5122 0.95565 0.11458 0.0
H800 H 0.49393 0.92943 0.1521 0.0
H801 H 0.38917 0.85477 0.11676 0.0
H802 H 0.37635 0.81697 0.11309 0.0
H803 H 0.39468 0.84159 0.08906 0.0
H804 H 0.43321 0.82536 0.087 0.0
H805 H 0.41497 0.80065 0.11097 0.0
H806 H 0.45399 0.82737 0.1133 0.0
H807 H 0.46939 0.89523 0.18528 0.0
H808 H 0.44005 0.85481 0.21233 0.0
H809 H 0.39163 0.7997 0.15212 0.0
C810 C 0.45919 0.88975 0.0919 0.0
C811 C 0.48246 0.919 0.09198 0.0
C812 C 0.49483 0.93312 0.11395 0.0
C813 C 0.48441 0.91848 0.13541 0.0
C814 C 0.46148 0.88976 0.13467 0.0
C815 C 0.44896 0.87549 0.11353 0.0
C816 C 0.42451 0.84455 0.11781 0.0
C817 C 0.39439 0.83917 0.10864 0.0
C818 C 0.43214 0.82323 0.10661 0.0
C819 C 0.42538 0.84367 0.14465 0.0
C820 C 0.4469 0.87002 0.15396 0.0
C821 C 0.4524 0.8745 0.17823 0.0
C822 C 0.43562 0.85138 0.19344 0.0
C823 C 0.4135 0.82409 0.18436 0.0
C824 C 0.4082 0.82034 0.15962 0.0
H825 H 0.58899 0.49362 0.25007 0.0
H826 H 0.5059 0.41424 0.23468 0.0
H827 H 0.51659 0.38989 0.26687 0.0
H828 H 0.63205 0.45981 0.26413 0.0
H829 H 0.65296 0.48525 0.28753 0.0
H830 H 0.63918 0.49616 0.26276 0.0
H831 H 0.61223 0.51217 0.29166 0.0
H832 H 0.62581 0.5012 0.3165 0.0
H833 H 0.5865 0.48668 0.31268 0.0
H834 H 0.53542 0.3746 0.30153 0.0
H835 H 0.56143 0.36923 0.336 0.0
H836 H 0.63266 0.45837 0.32852 0.0
C837 C 0.57325 0.471 0.25324 0.0
C838 C 0.54654 0.45586 0.2399 0.0
C839 C 0.52631 0.42639 0.24487 0.0
C840 C 0.53226 0.41232 0.26302 0.0
C841 C 0.5586 0.42796 0.27601 0.0
C842 C 0.57884 0.45661 0.27131 0.0
C843 C 0.60516 0.46865 0.28828 0.0
C844 C 0.63405 0.47801 0.27487 0.0
C845 C 0.60755 0.49365 0.30316 0.0
C846 C 0.59642 0.44235 0.30337 0.0
C847 C 0.56953 0.4191 0.29595 0.0
C848 C 0.55658 0.39261 0.30743 0.0
C849 C 0.57151 0.38979 0.32703 0.0
C850 C 0.59912 0.41334 0.33498 0.0
C851 C 0.61167 0.4399 0.32286 0.0
H852 H 0.45026 0.89084 0.40433 0.0
H853 H 0.39147 0.9245 0.39578 0.0
H854 H 0.37153 0.89649 0.35867 0.0
H855 H 0.4685 0.89339 0.34401 0.0
H856 H 0.46897 0.86028 0.34414 0.0
H857 H 0.47718 0.88123 0.37098 0.0
H858 H 0.43542 0.83673 0.39259 0.0
H859 H 0.42714 0.81557 0.36581 0.0
H860 H 0.39826 0.81831 0.38032 0.0
H861 H 0.36144 0.8689 0.32092 0.0
H862 H 0.35934 0.84069 0.28578 0.0
H863 H 0.4232 0.82309 0.319 0.0
C864 C 0.43299 0.89207 0.39473 0.0
C865 C 0.4223 0.90974 0.40299 0.0
C866 C 0.39966 0.91077 0.38999 0.0
C867 C 0.3883 0.89505 0.36883 0.0
C868 C 0.3996 0.87818 0.36102 0.0
C869 C 0.42119 0.87629 0.37366 0.0
C870 C 0.42998 0.85709 0.36095 0.0
C871 C 0.46312 0.87402 0.35465 0.0
C872 C 0.42223 0.83033 0.37581 0.0
C873 C 0.41042 0.84903 0.33894 0.0
C874 C 0.39312 0.86149 0.33939 0.0
C875 C 0.37454 0.85868 0.3205 0.0
C876 C 0.37362 0.84274 0.30058 0.0
C877 C 0.39095 0.82958 0.29976 0.0
C878 C 0.40937 0.83255 0.31932 0.0
H879 H 0.54483 0.43558 0.54229 0.0
H880 H 0.61664 0.52449 0.55088 0.0
H881 H 0.64232 0.51862 0.51691 0.0
H882 H 0.59068 0.40635 0.52503 0.0
H883 H 0.56387 0.38137 0.50376 0.0
H884 H 0.55161 0.39218 0.52936 0.0
H885 H 0.5236 0.40903 0.502 0.0
H886 H 0.53581 0.39832 0.47632 0.0
H887 H 0.54355 0.43481 0.47901 0.0
H888 H 0.65915 0.50397 0.48103 0.0
H889 H 0.66684 0.48103 0.44623 0.0
H890 H 0.58423 0.40145 0.46078 0.0
C891 C 0.56597 0.4538 0.53703 0.0
C892 C 0.57879 0.48047 0.54935 0.0
C893 C 0.6066 0.50372 0.542 0.0
C894 C 0.62128 0.50066 0.52262 0.0
C895 C 0.60794 0.47418 0.5108 0.0
C896 C 0.58099 0.4511 0.51776 0.0
C897 C 0.57135 0.42509 0.50178 0.0
C898 C 0.56926 0.39975 0.51583 0.0
C899 C 0.54183 0.41631 0.48902 0.0
C900 C 0.59694 0.43728 0.48459 0.0
C901 C 0.61779 0.46563 0.49014 0.0
C902 C 0.64307 0.48172 0.47657 0.0
C903 C 0.64719 0.46849 0.4568 0.0
C904 C 0.62618 0.43942 0.45077 0.0
C905 C 0.60078 0.42366 0.46497 0.0
H906 H 0.11553 0.57268 0.71897 0.0
H907 H 0.1052 0.4887 0.73142 0.0
H908 H 0.1388 0.49668 0.69833 0.0
H909 H 0.11556 0.56877 0.65524 0.0
H910 H 0.14273 0.60653 0.65176 0.0
H911 H 0.11854 0.59468 0.67695 0.0
H912 H 0.16429 0.61901 0.70524 0.0
H913 H 0.18863 0.63091 0.68014 0.0
H914 H 0.19257 0.6097 0.70291 0.0
H915 H 0.17306 0.51336 0.66383 0.0
H916 H 0.20535 0.53741 0.62973 0.0
H917 H 0.19247 0.61007 0.63867 0.0
C918 C 0.12015 0.55586 0.71467 0.0
C919 C 0.10779 0.53011 0.72798 0.0
C920 C 0.11477 0.50883 0.72185 0.0
C921 C 0.13369 0.51307 0.70296 0.0
C922 C 0.14544 0.53865 0.69026 0.0
C923 C 0.13892 0.55967 0.69579 0.0
C924 C 0.15425 0.58506 0.67908 0.0
C925 C 0.1314 0.58898 0.66492 0.0
C926 C 0.17624 0.61281 0.69266 0.0
C927 C 0.17031 0.57495 0.66325 0.0
C928 C 0.16498 0.54816 0.67009 0.0
C929 C 0.1774 0.53434 0.65829 0.0
C930 C 0.19574 0.54822 0.63893 0.0
C931 C 0.20146 0.57564 0.63147 0.0
C932 C 0.18852 0.58911 0.64388 0.0
H933 H 0.58146 0.14436 0.90827 0.0
H934 H 0.51038 0.06795 0.87322 0.0
H935 H 0.51379 0.09726 0.83862 0.0
H936 H 0.56122 0.19502 0.8861 0.0
H937 H 0.59918 0.22366 0.88232 0.0
H938 H 0.59013 0.197 0.90496 0.0
H939 H 0.62802 0.18501 0.88751 0.0
H940 H 0.63728 0.21171 0.86491 0.0
H941 H 0.62509 0.17499 0.85666 0.0
H942 H 0.52622 0.13433 0.80712 0.0
H943 H 0.54774 0.17643 0.78056 0.0
H944 H 0.61114 0.22859 0.83585 0.0
C945 C 0.56665 0.13376 0.89331 0.0
C946 C 0.54549 0.10385 0.89359 0.0
C947 C 0.52639 0.09091 0.87366 0.0
C948 C 0.52823 0.10735 0.85386 0.0
C949 C 0.54929 0.13674 0.85419 0.0
C950 C 0.5682 0.14985 0.87337 0.0
C951 C 0.58951 0.18163 0.86888 0.0
C952 C 0.58471 0.20043 0.88662 0.0
C953 C 0.62189 0.18874 0.86952 0.0
C954 C 0.5799 0.18422 0.84405 0.0
C955 C 0.55653 0.15812 0.83597 0.0
C956 C 0.54442 0.15494 0.81329 0.0
C957 C 0.55679 0.17898 0.79834 0.0
C958 C 0.58107 0.20585 0.80612 0.0
C959 C 0.59244 0.20845 0.82941 0.0
H960 H 0.47068 0.59453 0.04164 0.0
H961 H 0.39379 0.5117 0.05961 0.0
H962 H 0.36662 0.51502 0.02505 0.0
H963 H 0.43055 0.62803 0.02078 0.0
H964 H 0.4559 0.64689 0.99702 0.0
H965 H 0.46903 0.63842 0.02364 0.0
H966 H 0.48888 0.61183 0.99859 0.0
H967 H 0.4758 0.62019 0.97191 0.0
H968 H 0.46397 0.58324 0.97864 0.0
H969 H 0.34796 0.52695 0.98807 0.0
H970 H 0.33927 0.54684 0.95153 0.0
H971 H 0.42877 0.62116 0.95715 0.0
C972 C 0.44817 0.57701 0.03828 0.0
C973 C 0.43436 0.55293 0.05351 0.0
C974 C 0.40472 0.53064 0.04853 0.0
C975 C 0.38915 0.53221 0.02882 0.0
C976 C 0.40348 0.55617 0.01416 0.0
C977 C 0.43231 0.57818 0.01864 0.0
C978 C 0.44271 0.60141 0.99996 0.0
C979 C 0.44997 0.6304 0.01101 0.0
C980 C 0.46942 0.60432 0.98648 0.0
C981 C 0.41526 0.58895 0.98422 0.0
C982 C 0.39284 0.56288 0.99274 0.0
C983 C 0.36535 0.54735 0.98122 0.0
C984 C 0.36063 0.55882 0.96047 0.0
C985 C 0.38332 0.58551 0.9514 0.0
C986 C 0.41098 0.60065 0.96352 0.0
H987 H 0.8876 0.43314 0.22364 0.0
H988 H 0.89932 0.51879 0.22288 0.0
H989 H 0.86648 0.50512 0.1877 0.0
H990 H 0.89001 0.4263 0.16073 0.0
H991 H 0.86258 0.38829 0.16003 0.0
H992 H 0.88561 0.40415 0.18604 0.0
H993 H 0.83867 0.38487 0.21184 0.0
H994 H 0.81549 0.36888 0.18592 0.0
H995 H 0.81093 0.39373 0.20412 0.0
H996 H 0.8333 0.48264 0.15214 0.0
H997 H 0.80212 0.45295 0.11852 0.0
H998 H 0.81379 0.38261 0.14116 0.0
C999 C 0.88341 0.44913 0.21608 0.0
C1000 C 0.89604 0.47706 0.22623 0.0
C1001 C 0.88954 0.49709 0.21582 0.0
C1002 C 0.87107 0.48961 0.19569 0.0
C1003 C 0.85933 0.46204 0.18605 0.0
C1004 C 0.86523 0.44211 0.19587 0.0
C1005 C 0.85036 0.41416 0.1817 0.0
C1006 C 0.87353 0.40787 0.17152 0.0
C1007 C 0.82751 0.38892 0.1968 0.0
C1008 C 0.83533 0.42158 0.16227 0.0
C1009 C 0.84066 0.44926 0.16521 0.0
C1010 C 0.82897 0.46094 0.14964 0.0
C1011 C 0.81128 0.44388 0.13059 0.0
C1012 C 0.80555 0.41545 0.12713 0.0
C1013 C 0.81788 0.40429 0.14321 0.0
loop_
_geom_bond_atom_site_label_1
_geom_bond_atom_site_label_2
_geom_bond_distance
_geom_bond_site_symmetry_2
_ccdc_geom_bond_type
H0 C19 0.949 . S
H1 C20 0.950 . S
H2 C22 0.950 . S
H3 C23 0.950 . S
H4 C25 0.950 . S
H5 C28 0.950 . S
H6 C29 0.950 . S
H7 C31 0.951 . S
H8 C32 0.949 . S
H9 C34 0.949 . S
H10 C35 0.950 . S
H11 C37 0.950 . S
H12 C38 0.950 . S
H13 C40 0.950 . S
H14 C43 0.950 . S
H15 C44 0.950 . S
H16 C46 0.951 . S
H17 C47 0.949 . S
C18 C19 1.376 . S
C18 C23 1.386 . S
C18 C24 1.483 . S
C19 H0 0.949 . S
C19 C18 1.376 . S
C19 C20 1.397 . S
C20 H1 0.950 . S
C20 C19 1.397 . S
C20 C21 1.391 . S
C21 C20 1.391 . S
C21 C22 1.405 . S
C22 H2 0.950 . S
C22 C21 1.405 . S
C22 C23 1.367 . S
C23 H3 0.950 . S
C23 C18 1.386 . S
C23 C22 1.367 . S
C24 C18 1.483 . S
C24 C25 1.382 1_655 S
C24 C26 1.403 . S
C25 H4 0.950 . S
C25 C24 1.382 1_455 S
C25 C41 1.411 . S
C26 C24 1.403 . S
C26 C27 1.489 . S
C26 C40 1.411 . S
C27 C26 1.489 . S
C27 C28 1.383 . S
C27 C32 1.382 . S
C28 H5 0.950 . S
C28 C27 1.383 . S
C28 C29 1.395 . S
C29 H6 0.950 . S
C29 C28 1.395 . S
C29 C30 1.288 . S
C30 C29 1.288 . S
C30 C31 1.392 . S
C31 H7 0.951 . S
C31 C30 1.392 . S
C31 C32 1.392 . S
C32 H8 0.949 . S
C32 C27 1.382 . S
C32 C31 1.392 . S
C33 C34 1.376 . S
C33 C38 1.386 . S
C33 C39 1.483 . S
C34 H9 0.949 . S
C34 C33 1.376 . S
C34 C35 1.397 . S
C35 H10 0.950 . S
C35 C34 1.397 . S
C35 C36 1.391 . S
C36 C35 1.391 . S
C36 C37 1.405 . S
C37 H11 0.950 . S
C37 C36 1.405 . S
C37 C38 1.367 . S
C38 H12 0.950 . S
C38 C33 1.386 . S
C38 C37 1.367 . S
C39 C33 1.483 . S
C39 C40 1.382 1_455 S
C39 C41 1.403 . S
C40 H13 0.950 . S
C40 C26 1.411 . S
C40 C39 1.382 1_655 S
C41 C25 1.411 . S
C41 C39 1.403 . S
C41 C42 1.489 . S
C42 C41 1.489 . S
C42 C43 1.383 . S
C42 C47 1.382 . S
C43 H14 0.950 . S
C43 C42 1.383 . S
C43 C44 1.395 . S
C44 H15 0.950 . S
C44 C43 1.395 . S
C44 C45 1.288 . S
C45 C44 1.288 . S
C45 C46 1.392 . S
C46 H16 0.951 . S
C46 C45 1.392 . S
C46 C47 1.392 . S
C47 H17 0.949 . S
C47 C42 1.382 . S
C47 C46 1.392 . S
H48 C67 0.949 . S
H49 C68 0.950 . S
H50 C70 0.950 . S
H51 C71 0.950 . S
H52 C73 0.950 1_565 S
H53 C76 0.950 . S
H54 C77 0.950 . S
H55 C79 0.951 . S
H56 C80 0.949 . S
H57 C82 0.949 . S
H58 C83 0.950 . S
H59 C85 0.950 . S
H60 C86 0.950 . S
H61 C88 0.950 . S
H62 C91 0.950 . S
H63 C92 0.950 . S
H64 C94 0.951 . S
H65 C95 0.949 . S
C66 C67 1.376 . S
C66 C71 1.386 . S
C66 C72 1.483 . S
C67 H48 0.949 . S
C67 C66 1.376 . S
C67 C68 1.397 . S
C68 H49 0.950 . S
C68 C67 1.397 . S
C68 C69 1.391 . S
C69 C68 1.391 . S
C69 C70 1.405 . S
C70 H50 0.950 . S
C70 C69 1.405 . S
C70 C71 1.367 . S
C71 H51 0.950 . S
C71 C66 1.386 . S
C71 C70 1.367 . S
C72 C66 1.483 . S
C72 C73 1.382 1_565 S
C72 C74 1.403 . S
C73 H52 0.950 1_545 S
C73 C72 1.382 1_545 S
C73 C89 1.411 . S
C74 C72 1.403 . S
C74 C75 1.489 . S
C74 C88 1.411 1_565 S
C75 C74 1.489 . S
C75 C76 1.383 . S
C75 C80 1.382 . S
C76 H53 0.950 . S
C76 C75 1.383 . S
C76 C77 1.395 . S
C77 H54 0.950 . S
C77 C76 1.395 . S
C77 C78 1.288 . S
C78 C77 1.288 . S
C78 C79 1.392 . S
C79 H55 0.951 . S
C79 C78 1.392 . S
C79 C80 1.392 . S
C80 H56 0.949 . S
C80 C75 1.382 . S
C80 C79 1.392 . S
C81 C82 1.376 . S
C81 C86 1.386 . S
C81 C87 1.483 . S
C82 H57 0.949 . S
C82 C81 1.376 . S
C82 C83 1.397 . S
C83 H58 0.950 . S
C83 C82 1.397 . S
C83 C84 1.391 . S
C84 C83 1.391 . S
C84 C85 1.405 . S
C85 H59 0.950 . S
C85 C84 1.405 . S
C85 C86 1.367 . S
C86 H60 0.950 . S
C86 C81 1.386 . S
C86 C85 1.367 . S
C87 C81 1.483 . S
C87 C88 1.382 . S
C87 C89 1.403 . S
C88 H61 0.950 . S
C88 C74 1.411 1_545 S
C88 C87 1.382 . S
C89 C73 1.411 . S
C89 C87 1.403 . S
C89 C90 1.489 . S
C90 C89 1.489 . S
C90 C91 1.383 . S
C90 C95 1.382 . S
C91 H62 0.950 . S
C91 C90 1.383 . S
C91 C92 1.395 . S
C92 H63 0.950 . S
C92 C91 1.395 . S
C92 C93 1.288 . S
C93 C92 1.288 . S
C93 C94 1.392 . S
C94 H64 0.951 . S
C94 C93 1.392 . S
C94 C95 1.392 . S
C95 H65 0.949 . S
C95 C90 1.382 . S
C95 C94 1.392 . S
H96 C115 0.949 . S
H97 C116 0.950 . S
H98 C118 0.950 . S
H99 C119 0.950 . S
H100 C121 0.950 . S
H101 C124 0.950 . S
H102 C125 0.950 . S
H103 C127 0.951 . S
H104 C128 0.949 . S
H105 C130 0.949 . S
H106 C131 0.950 . S
H107 C133 0.950 . S
H108 C134 0.950 . S
H109 C136 0.950 . S
H110 C139 0.950 . S
H111 C140 0.950 . S
H112 C142 0.951 . S
H113 C143 0.949 . S
C114 C115 1.376 . S
C114 C119 1.386 . S
C114 C120 1.483 . S
C115 H96 0.949 . S
C115 C114 1.376 . S
C115 C116 1.397 . S
C116 H97 0.950 . S
C116 C115 1.397 . S
C116 C117 1.391 . S
C117 C116 1.391 . S
C117 C118 1.405 . S
C118 H98 0.950 . S
C118 C117 1.405 . S
C118 C119 1.367 . S
C119 H99 0.950 . S
C119 C114 1.386 . S
C119 C118 1.367 . S
C120 C114 1.483 . S
C120 C121 1.382 . S
C120 C122 1.403 . S
C121 H100 0.950 . S
C121 C120 1.382 . S
C121 C137 1.411 . S
C122 C120 1.403 . S
C122 C123 1.489 . S
C122 C136 1.411 . S
C123 C122 1.489 . S
C123 C124 1.383 . S
C123 C128 1.382 . S
C124 H101 0.950 . S
C124 C123 1.383 . S
C124 C125 1.395 . S
C125 H102 0.950 . S
C125 C124 1.395 . S
C125 C126 1.288 . S
C126 C125 1.288 . S
C126 C127 1.392 . S
C127 H103 0.951 . S
C127 C126 1.392 . S
C127 C128 1.392 . S
C128 H104 0.949 . S
C128 C123 1.382 . S
C128 C127 1.392 . S
C129 C130 1.376 . S
C129 C134 1.386 . S
C129 C135 1.483 . S
C130 H105 0.949 . S
C130 C129 1.376 . S
C130 C131 1.397 . S
C131 H106 0.950 . S
C131 C130 1.397 . S
C131 C132 1.391 . S
C132 C131 1.391 . S
C132 C133 1.405 . S
C133 H107 0.950 . S
C133 C132 1.405 . S
C133 C134 1.367 . S
C134 H108 0.950 . S
C134 C129 1.386 . S
C134 C133 1.367 . S
C135 C129 1.483 . S
C135 C136 1.382 . S
C135 C137 1.403 . S
C136 H109 0.950 . S
C136 C122 1.411 . S
C136 C135 1.382 . S
C137 C121 1.411 . S
C137 C135 1.403 . S
C137 C138 1.489 . S
C138 C137 1.489 . S
C138 C139 1.383 . S
C138 C143 1.382 . S
C139 H110 0.950 . S
C139 C138 1.383 . S
C139 C140 1.395 . S
C140 H111 0.950 . S
C140 C139 1.395 . S
C140 C141 1.288 . S
C141 C140 1.288 . S
C141 C142 1.392 . S
C142 H112 0.951 . S
C142 C141 1.392 . S
C142 C143 1.392 . S
C143 H113 0.949 . S
C143 C138 1.382 . S
C143 C142 1.392 . S
H144 C163 0.949 . S
H145 C164 0.950 . S
H146 C166 0.950 . S
H147 C167 0.950 . S
H148 C169 0.950 . S
H149 C172 0.950 . S
H150 C173 0.950 . S
H151 C175 0.951 . S
H152 C176 0.949 . S
H153 C178 0.949 . S
H154 C179 0.950 . S
H155 C181 0.950 . S
H156 C182 0.950 . S
H157 C184 0.950 . S
H158 C187 0.950 . S
H159 C188 0.950 . S
H160 C190 0.951 . S
H161 C191 0.949 . S
C162 C163 1.376 . S
C162 C167 1.386 . S
C162 C168 1.483 . S
C163 H144 0.949 . S
C163 C162 1.376 . S
C163 C164 1.397 . S
C164 H145 0.950 . S
C164 C163 1.397 . S
C164 C165 1.391 . S
C165 C164 1.391 . S
C165 C166 1.405 . S
C166 H146 0.950 . S
C166 C165 1.405 . S
C166 C167 1.367 . S
C167 H147 0.950 . S
C167 C162 1.386 . S
C167 C166 1.367 . S
C168 C162 1.483 . S
C168 C169 1.382 1_455 S
C168 C170 1.403 . S
C169 H148 0.950 . S
C169 C168 1.382 1_655 S
C169 C185 1.411 . S
C170 C168 1.403 . S
C170 C171 1.489 . S
C170 C184 1.411 . S
C171 C170 1.489 . S
C171 C172 1.383 . S
C171 C176 1.382 . S
C172 H149 0.950 . S
C172 C171 1.383 . S
C172 C173 1.395 . S
C173 H150 0.950 . S
C173 C172 1.395 . S
C173 C174 1.288 . S
C174 C173 1.288 . S
C174 C175 1.392 . S
C175 H151 0.951 . S
C175 C174 1.392 . S
C175 C176 1.392 . S
C176 H152 0.949 . S
C176 C171 1.382 . S
C176 C175 1.392 . S
C177 C178 1.376 . S
C177 C182 1.386 . S
C177 C183 1.483 . S
C178 H153 0.949 . S
C178 C177 1.376 . S
C178 C179 1.397 . S
C179 H154 0.950 . S
C179 C178 1.397 . S
C179 C180 1.391 . S
C180 C179 1.391 . S
C180 C181 1.405 . S
C181 H155 0.950 . S
C181 C180 1.405 . S
C181 C182 1.367 . S
C182 H156 0.950 . S
C182 C177 1.386 . S
C182 C181 1.367 . S
C183 C177 1.483 . S
C183 C184 1.382 1_655 S
C183 C185 1.403 . S
C184 H157 0.950 . S
C184 C170 1.411 . S
C184 C183 1.382 1_455 S
C185 C169 1.411 . S
C185 C183 1.403 . S
C185 C186 1.489 . S
C186 C185 1.489 . S
C186 C187 1.383 . S
C186 C191 1.382 . S
C187 H158 0.950 . S
C187 C186 1.383 . S
C187 C188 1.395 . S
C188 H159 0.950 . S
C188 C187 1.395 . S
C188 C189 1.288 . S
C189 C188 1.288 . S
C189 C190 1.392 . S
C190 H160 0.951 . S
C190 C189 1.392 . S
C190 C191 1.392 . S
C191 H161 0.949 . S
C191 C186 1.382 . S
C191 C190 1.392 . S
H192 C211 0.949 . S
H193 C212 0.950 . S
H194 C214 0.950 . S
H195 C215 0.950 . S
H196 C217 0.950 . S
H197 C220 0.950 . S
H198 C221 0.950 . S
H199 C223 0.951 . S
H200 C224 0.949 . S
H201 C226 0.949 . S
H202 C227 0.950 . S
H203 C229 0.950 . S
H204 C230 0.950 . S
H205 C232 0.950 1_565 S
H206 C235 0.950 . S
H207 C236 0.950 . S
H208 C238 0.951 . S
H209 C239 0.949 . S
C210 C211 1.376 . S
C210 C215 1.386 1_554 S
C210 C216 1.483 1_554 S
C211 H192 0.949 . S
C211 C210 1.376 . S
C211 C212 1.397 . S
C212 H193 0.950 . S
C212 C211 1.397 . S
C212 C213 1.391 . S
C213 C212 1.391 . S
C213 C214 1.405 . S
C214 H194 0.950 . S
C214 C213 1.405 . S
C214 C215 1.367 1_554 S
C215 H195 0.950 . S
C215 C210 1.386 1_556 S
C215 C214 1.367 1_556 S
C216 C210 1.483 1_556 S
C216 C217 1.382 1_556 S
C216 C218 1.403 . S
C217 H196 0.950 . S
C217 C216 1.382 1_554 S
C217 C233 1.411 1_545 S
C218 C216 1.403 . S
C218 C219 1.489 . S
C218 C232 1.411 . S
C219 C218 1.489 . S
C219 C220 1.383 . S
C219 C224 1.382 . S
C220 H197 0.950 . S
C220 C219 1.383 . S
C220 C221 1.395 . S
C221 H198 0.950 . S
C221 C220 1.395 . S
C221 C222 1.288 . S
C222 C221 1.288 . S
C222 C223 1.392 . S
C223 H199 0.951 . S
C223 C222 1.392 . S
C223 C224 1.392 . S
C224 H200 0.949 . S
C224 C219 1.382 . S
C224 C223 1.392 . S
C225 C226 1.376 . S
C225 C230 1.386 . S
C225 C231 1.483 . S
C226 H201 0.949 . S
C226 C225 1.376 . S
C226 C227 1.397 . S
C227 H202 0.950 . S
C227 C226 1.397 . S
C227 C228 1.391 . S
C228 C227 1.391 . S
C228 C229 1.405 . S
C229 H203 0.950 . S
C229 C228 1.405 . S
C229 C230 1.367 . S
C230 H204 0.950 . S
C230 C225 1.386 . S
C230 C229 1.367 . S
C231 C225 1.483 . S
C231 C232 1.382 1_565 S
C231 C233 1.403 1_556 S
C232 H205 0.950 1_545 S
C232 C218 1.411 . S
C232 C231 1.382 1_545 S
C233 C217 1.411 1_565 S
C233 C231 1.403 1_554 S
C233 C234 1.489 . S
C234 C233 1.489 . S
C234 C235 1.383 . S
C234 C239 1.382 . S
C235 H206 0.950 . S
C235 C234 1.383 . S
C235 C236 1.395 . S
C236 H207 0.950 . S
C236 C235 1.395 . S
C236 C237 1.288 . S
C237 C236 1.288 . S
C237 C238 1.392 . S
C238 H208 0.951 . S
C238 C237 1.392 . S
C238 C239 1.392 . S
C239 H209 0.949 . S
C239 C234 1.382 . S
C239 C238 1.392 . S
H240 C259 0.949 . S
H241 C260 0.950 . S
H242 C262 0.950 . S
H243 C263 0.950 . S
H244 C265 0.950 . S
H245 C268 0.950 . S
H246 C269 0.950 . S
H247 C271 0.951 . S
H248 C272 0.949 . S
H249 C274 0.949 . S
H250 C275 0.950 . S
H251 C277 0.950 . S
H252 C278 0.950 . S
H253 C280 0.950 . S
H254 C283 0.950 . S
H255 C284 0.950 . S
H256 C286 0.951 . S
H257 C287 0.949 . S
C258 C259 1.376 . S
C258 C263 1.386 . S
C258 C264 1.483 . S
C259 H240 0.949 . S
C259 C258 1.376 . S
C259 C260 1.397 . S
C260 H241 0.950 . S
C260 C259 1.397 . S
C260 C261 1.391 . S
C261 C260 1.391 . S
C261 C262 1.405 . S
C262 H242 0.950 . S
C262 C261 1.405 . S
C262 C263 1.367 . S
C263 H243 0.950 . S
C263 C258 1.386 . S
C263 C262 1.367 . S
C264 C258 1.483 . S
C264 C265 1.382 . S
C264 C266 1.403 . S
C265 H244 0.950 . S
C265 C264 1.382 . S
C265 C281 1.411 . S
C266 C264 1.403 . S
C266 C267 1.489 . S
C266 C280 1.411 . S
C267 C266 1.489 . S
C267 C268 1.383 . S
C267 C272 1.382 . S
C268 H245 0.950 . S
C268 C267 1.383 . S
C268 C269 1.395 . S
C269 H246 0.950 . S
C269 C268 1.395 . S
C269 C270 1.288 . S
C270 C269 1.288 . S
C270 C271 1.392 . S
C271 H247 0.951 . S
C271 C270 1.392 . S
C271 C272 1.392 . S
C272 H248 0.949 . S
C272 C267 1.382 . S
C272 C271 1.392 . S
C273 C274 1.376 . S
C273 C278 1.386 . S
C273 C279 1.483 . S
C274 H249 0.949 . S
C274 C273 1.376 . S
C274 C275 1.397 . S
C275 H250 0.950 . S
C275 C274 1.397 . S
C275 C276 1.391 . S
C276 C275 1.391 . S
C276 C277 1.405 . S
C277 H251 0.950 . S
C277 C276 1.405 . S
C277 C278 1.367 . S
C278 H252 0.950 . S
C278 C273 1.386 . S
C278 C277 1.367 . S
C279 C273 1.483 . S
C279 C280 1.382 . S
C279 C281 1.403 . S
C280 H253 0.950 . S
C280 C266 1.411 . S
C280 C279 1.382 . S
C281 C265 1.411 . S
C281 C279 1.403 . S
C281 C282 1.489 . S
C282 C281 1.489 . S
C282 C283 1.383 . S
C282 C287 1.382 . S
C283 H254 0.950 . S
C283 C282 1.383 . S
C283 C284 1.395 . S
C284 H255 0.950 . S
C284 C283 1.395 . S
C284 C285 1.288 . S
C285 C284 1.288 . S
C285 C286 1.392 . S
C286 H256 0.951 . S
C286 C285 1.392 . S
C286 C287 1.392 . S
C287 H257 0.949 . S
C287 C282 1.382 . S
C287 C286 1.392 . S
C288 O289 1.160 . S
C288 O295 1.185 . S
O289 C288 1.160 . S
O290 Zn291 1.899 . S
O290 C298 1.284 . S
Zn291 O290 1.899 . S
Zn291 O292 2.032 . S
Zn291 O295 2.086 . S
Zn291 O300 1.977 . S
O292 Zn291 2.032 . S
O292 C296 1.278 . S
C293 O294 1.203 . S
C293 O300 1.267 . S
O294 C293 1.203 . S
O295 C288 1.185 . S
O295 Zn291 2.086 . S
C296 O292 1.278 . S
C296 O297 1.211 . S
O297 C296 1.211 . S
C298 O290 1.284 . S
C298 O299 1.273 . S
O299 C298 1.273 . S
O300 Zn291 1.977 . S
O300 C293 1.267 . S
C301 O302 1.160 . S
C301 O308 1.185 . S
O302 C301 1.160 . S
O303 Zn304 1.899 . S
O303 C311 1.284 . S
Zn304 O303 1.899 . S
Zn304 O305 2.032 . S
Zn304 O308 2.086 . S
Zn304 O313 1.977 . S
O305 Zn304 2.032 . S
O305 C309 1.278 . S
C306 O307 1.203 . S
C306 O313 1.267 . S
O307 C306 1.203 . S
O308 C301 1.185 . S
O308 Zn304 2.086 . S
C309 O305 1.278 . S
C309 O310 1.211 . S
O310 C309 1.211 . S
C311 O303 1.284 . S
C311 O312 1.273 . S
O312 C311 1.273 . S
O313 Zn304 1.977 . S
O313 C306 1.267 . S
C314 O315 1.160 . S
C314 O321 1.185 . S
O315 C314 1.160 . S
O316 Zn317 1.899 . S
O316 C324 1.284 . S
Zn317 O316 1.899 . S
Zn317 O318 2.032 . S
Zn317 O321 2.086 . S
Zn317 O326 1.977 . S
O318 Zn317 2.032 . S
O318 C322 1.278 . S
C319 O320 1.203 . S
C319 O326 1.267 . S
O320 C319 1.203 . S
O321 C314 1.185 . S
O321 Zn317 2.086 . S
C322 O318 1.278 . S
C322 O323 1.211 . S
O323 C322 1.211 . S
C324 O316 1.284 . S
C324 O325 1.273 . S
O325 C324 1.273 . S
O326 Zn317 1.977 . S
O326 C319 1.267 . S
C327 O328 1.160 . S
C327 O334 1.185 . S
O328 C327 1.160 . S
O329 Zn330 1.899 . S
O329 C337 1.284 . S
Zn330 O329 1.899 . S
Zn330 O331 2.032 . S
Zn330 O334 2.086 . S
Zn330 O339 1.977 . S
O331 Zn330 2.032 . S
O331 C335 1.278 . S
C332 O333 1.203 . S
C332 O339 1.267 . S
O333 C332 1.203 . S
O334 C327 1.185 . S
O334 Zn330 2.086 . S
C335 O331 1.278 . S
C335 O336 1.211 . S
O336 C335 1.211 . S
C337 O329 1.284 . S
C337 O338 1.273 . S
O338 C337 1.273 . S
O339 Zn330 1.977 . S
O339 C332 1.267 . S
C340 O341 1.160 . S
C340 O347 1.185 . S
O341 C340 1.160 . S
O342 Zn343 1.899 . S
O342 C350 1.284 . S
Zn343 O342 1.899 . S
Zn343 O344 2.032 . S
Zn343 O347 2.086 . S
Zn343 O352 1.977 . S
O344 Zn343 2.032 . S
O344 C348 1.278 . S
C345 O346 1.203 . S
C345 O352 1.267 . S
O346 C345 1.203 . S
O347 C340 1.185 . S
O347 Zn343 2.086 . S
C348 O344 1.278 . S
C348 O349 1.211 . S
O349 C348 1.211 . S
C350 O342 1.284 . S
C350 O351 1.273 . S
O351 C350 1.273 . S
O352 Zn343 1.977 . S
O352 C345 1.267 . S
C353 O354 1.160 . S
C353 O360 1.185 . S
O354 C353 1.160 . S
O355 Zn356 1.899 . S
O355 C363 1.284 . S
Zn356 O355 1.899 . S
Zn356 O357 2.032 . S
Zn356 O360 2.086 . S
Zn356 O365 1.977 . S
O357 Zn356 2.032 . S
O357 C361 1.278 . S
C358 O359 1.203 . S
C358 O365 1.267 . S
O359 C358 1.203 . S
O360 C353 1.185 . S
O360 Zn356 2.086 . S
C361 O357 1.278 . S
C361 O362 1.211 . S
O362 C361 1.211 . S
C363 O355 1.284 . S
C363 O364 1.273 . S
O364 C363 1.273 . S
O365 Zn356 1.977 . S
O365 C358 1.267 . S
H366 C378 0.930 . S
H367 C380 0.930 . S
H368 C381 0.930 . S
H369 C385 0.959 . S
H370 C385 0.959 . S
H371 C385 0.961 . S
H372 C386 0.960 . S
H373 C386 0.961 . S
H374 C386 0.959 . S
H375 C389 0.929 . S
H376 C390 0.931 . S
H377 C392 0.930 . S
C378 H366 0.930 . S
C378 C379 1.399 . S
C378 C383 1.399 . S
C379 C378 1.399 . S
C379 C380 1.376 . S
C380 H367 0.930 . S
C380 C379 1.376 . S
C380 C381 1.388 . S
C381 H368 0.930 . S
C381 C380 1.388 . S
C381 C382 1.390 . S
C382 C381 1.390 . S
C382 C383 1.394 . S
C382 C388 1.465 . S
C383 C378 1.399 . S
C383 C382 1.394 . S
C383 C384 1.516 . S
C384 C383 1.516 . S
C384 C385 1.502 . S
C384 C386 1.561 . S
C384 C387 1.526 . S
C385 H369 0.959 . S
C385 H370 0.959 . S
C385 H371 0.961 . S
C385 C384 1.502 . S
C386 H372 0.960 . S
C386 H373 0.961 . S
C386 H374 0.959 . S
C386 C384 1.561 . S
C387 C384 1.526 . S
C387 C388 1.396 . S
C387 C392 1.390 . S
C388 C382 1.465 . S
C388 C387 1.396 . S
C388 C389 1.399 . S
C389 H375 0.929 . S
C389 C388 1.399 . S
C389 C390 1.385 . S
C390 H376 0.931 . S
C390 C389 1.385 . S
C390 C391 1.389 . S
C391 C390 1.389 . S
C391 C392 1.387 . S
C392 H377 0.930 . S
C392 C387 1.390 . S
C392 C391 1.387 . S
H393 C405 0.930 . S
H394 C407 0.930 . S
H395 C408 0.930 . S
H396 C412 0.959 . S
H397 C412 0.959 . S
H398 C412 0.961 . S
H399 C413 0.960 . S
H400 C413 0.961 . S
H401 C413 0.959 . S
H402 C416 0.929 . S
H403 C417 0.931 . S
H404 C419 0.930 . S
C405 H393 0.930 . S
C405 C406 1.399 . S
C405 C410 1.399 . S
C406 C405 1.399 . S
C406 C407 1.376 . S
C407 H394 0.930 . S
C407 C406 1.376 . S
C407 C408 1.388 . S
C408 H395 0.930 . S
C408 C407 1.388 . S
C408 C409 1.390 . S
C409 C408 1.390 . S
C409 C410 1.394 . S
C409 C415 1.465 . S
C410 C405 1.399 . S
C410 C409 1.394 . S
C410 C411 1.516 . S
C411 C410 1.516 . S
C411 C412 1.502 . S
C411 C413 1.561 . S
C411 C414 1.526 . S
C412 H396 0.959 . S
C412 H397 0.959 . S
C412 H398 0.961 . S
C412 C411 1.502 . S
C413 H399 0.960 . S
C413 H400 0.961 . S
C413 H401 0.959 . S
C413 C411 1.561 . S
C414 C411 1.526 . S
C414 C415 1.396 . S
C414 C419 1.390 . S
C415 C409 1.465 . S
C415 C414 1.396 . S
C415 C416 1.399 . S
C416 H402 0.929 . S
C416 C415 1.399 . S
C416 C417 1.385 . S
C417 H403 0.931 . S
C417 C416 1.385 . S
C417 C418 1.389 . S
C418 C417 1.389 . S
C418 C419 1.387 . S
C419 H404 0.930 . S
C419 C414 1.390 . S
C419 C418 1.387 . S
H420 C432 0.930 . S
H421 C434 0.930 . S
H422 C435 0.930 . S
H423 C439 0.959 . S
H424 C439 0.959 . S
H425 C439 0.961 . S
H426 C440 0.960 . S
H427 C440 0.961 . S
H428 C440 0.959 . S
H429 C443 0.929 . S
H430 C444 0.931 . S
H431 C446 0.930 . S
C432 H420 0.930 . S
C432 C433 1.399 . S
C432 C437 1.399 . S
C433 C432 1.399 . S
C433 C434 1.376 . S
C434 H421 0.930 . S
C434 C433 1.376 . S
C434 C435 1.388 . S
C435 H422 0.930 . S
C435 C434 1.388 . S
C435 C436 1.390 . S
C436 C435 1.390 . S
C436 C437 1.394 . S
C436 C442 1.465 . S
C437 C432 1.399 . S
C437 C436 1.394 . S
C437 C438 1.516 . S
C438 C437 1.516 . S
C438 C439 1.502 . S
C438 C440 1.561 . S
C438 C441 1.526 . S
C439 H423 0.959 . S
C439 H424 0.959 . S
C439 H425 0.961 . S
C439 C438 1.502 . S
C440 H426 0.960 . S
C440 H427 0.961 . S
C440 H428 0.959 . S
C440 C438 1.561 . S
C441 C438 1.526 . S
C441 C442 1.396 . S
C441 C446 1.390 . S
C442 C436 1.465 . S
C442 C441 1.396 . S
C442 C443 1.399 . S
C443 H429 0.929 . S
C443 C442 1.399 . S
C443 C444 1.385 . S
C444 H430 0.931 . S
C444 C443 1.385 . S
C444 C445 1.389 . S
C445 C444 1.389 . S
C445 C446 1.387 . S
C446 H431 0.930 . S
C446 C441 1.390 . S
C446 C445 1.387 . S
H447 C459 0.930 . S
H448 C461 0.930 . S
H449 C462 0.930 . S
H450 C466 0.959 . S
H451 C466 0.959 . S
H452 C466 0.961 . S
H453 C467 0.960 . S
H454 C467 0.961 . S
H455 C467 0.959 . S
H456 C470 0.929 . S
H457 C471 0.931 . S
H458 C473 0.930 . S
C459 H447 0.930 . S
C459 C460 1.399 . S
C459 C464 1.399 . S
C460 C459 1.399 . S
C460 C461 1.376 . S
C461 H448 0.930 . S
C461 C460 1.376 . S
C461 C462 1.388 . S
C462 H449 0.930 . S
C462 C461 1.388 . S
C462 C463 1.390 . S
C463 C462 1.390 . S
C463 C464 1.394 . S
C463 C469 1.465 . S
C464 C459 1.399 . S
C464 C463 1.394 . S
C464 C465 1.516 . S
C465 C464 1.516 . S
C465 C466 1.502 . S
C465 C467 1.561 . S
C465 C468 1.526 . S
C466 H450 0.959 . S
C466 H451 0.959 . S
C466 H452 0.961 . S
C466 C465 1.502 . S
C467 H453 0.960 . S
C467 H454 0.961 . S
C467 H455 0.959 . S
C467 C465 1.561 . S
C468 C465 1.526 . S
C468 C469 1.396 . S
C468 C473 1.390 . S
C469 C463 1.465 . S
C469 C468 1.396 . S
C469 C470 1.399 . S
C470 H456 0.929 . S
C470 C469 1.399 . S
C470 C471 1.385 . S
C471 H457 0.931 . S
C471 C470 1.385 . S
C471 C472 1.389 . S
C472 C471 1.389 . S
C472 C473 1.387 . S
C473 H458 0.930 . S
C473 C468 1.390 . S
C473 C472 1.387 . S
H474 C486 0.930 . S
H475 C488 0.930 . S
H476 C489 0.930 . S
H477 C493 0.959 . S
H478 C493 0.959 . S
H479 C493 0.961 . S
H480 C494 0.960 . S
H481 C494 0.961 . S
H482 C494 0.959 . S
H483 C497 0.929 . S
H484 C498 0.931 . S
H485 C500 0.930 . S
C486 H474 0.930 . S
C486 C487 1.399 . S
C486 C491 1.399 . S
C487 C486 1.399 . S
C487 C488 1.376 . S
C488 H475 0.930 . S
C488 C487 1.376 . S
C488 C489 1.388 . S
C489 H476 0.930 . S
C489 C488 1.388 . S
C489 C490 1.390 . S
C490 C489 1.390 . S
C490 C491 1.394 . S
C490 C496 1.465 . S
C491 C486 1.399 . S
C491 C490 1.394 . S
C491 C492 1.516 . S
C492 C491 1.516 . S
C492 C493 1.502 . S
C492 C494 1.561 . S
C492 C495 1.526 . S
C493 H477 0.959 . S
C493 H478 0.959 . S
C493 H479 0.961 . S
C493 C492 1.502 . S
C494 H480 0.960 . S
C494 H481 0.961 . S
C494 H482 0.959 . S
C494 C492 1.561 . S
C495 C492 1.526 . S
C495 C496 1.396 . S
C495 C500 1.390 . S
C496 C490 1.465 . S
C496 C495 1.396 . S
C496 C497 1.399 . S
C497 H483 0.929 . S
C497 C496 1.399 . S
C497 C498 1.385 . S
C498 H484 0.931 . S
C498 C497 1.385 . S
C498 C499 1.389 . S
C499 C498 1.389 . S
C499 C500 1.387 . S
C500 H485 0.930 . S
C500 C495 1.390 . S
C500 C499 1.387 . S
H501 C513 0.930 . S
H502 C515 0.930 . S
H503 C516 0.930 . S
H504 C520 0.959 . S
H505 C520 0.959 . S
H506 C520 0.961 . S
H507 C521 0.960 . S
H508 C521 0.961 . S
H509 C521 0.959 . S
H510 C524 0.929 . S
H511 C525 0.931 . S
H512 C527 0.930 . S
C513 H501 0.930 . S
C513 C514 1.399 . S
C513 C518 1.399 . S
C514 C513 1.399 . S
C514 C515 1.376 . S
C515 H502 0.930 . S
C515 C514 1.376 . S
C515 C516 1.388 . S
C516 H503 0.930 . S
C516 C515 1.388 . S
C516 C517 1.390 . S
C517 C516 1.390 . S
C517 C518 1.394 . S
C517 C523 1.465 . S
C518 C513 1.399 . S
C518 C517 1.394 . S
C518 C519 1.516 . S
C519 C518 1.516 . S
C519 C520 1.502 . S
C519 C521 1.561 . S
C519 C522 1.526 . S
C520 H504 0.959 . S
C520 H505 0.959 . S
C520 H506 0.961 . S
C520 C519 1.502 . S
C521 H507 0.960 . S
C521 H508 0.961 . S
C521 H509 0.959 . S
C521 C519 1.561 . S
C522 C519 1.526 . S
C522 C523 1.396 . S
C522 C527 1.390 . S
C523 C517 1.465 . S
C523 C522 1.396 . S
C523 C524 1.399 . S
C524 H510 0.929 . S
C524 C523 1.399 . S
C524 C525 1.385 . S
C525 H511 0.931 . S
C525 C524 1.385 . S
C525 C526 1.389 . S
C526 C525 1.389 . S
C526 C527 1.387 . S
C527 H512 0.930 . S
C527 C522 1.390 . S
C527 C526 1.387 . S
H528 C540 0.930 . S
H529 C542 0.930 . S
H530 C543 0.930 . S
H531 C547 0.959 . S
H532 C547 0.959 . S
H533 C547 0.961 . S
H534 C548 0.960 . S
H535 C548 0.961 . S
H536 C548 0.959 . S
H537 C551 0.929 . S
H538 C552 0.931 . S
H539 C554 0.930 . S
C540 H528 0.930 . S
C540 C541 1.399 . S
C540 C545 1.399 . S
C541 C540 1.399 . S
C541 C542 1.376 . S
C542 H529 0.930 . S
C542 C541 1.376 . S
C542 C543 1.388 . S
C543 H530 0.930 . S
C543 C542 1.388 . S
C543 C544 1.390 . S
C544 C543 1.390 . S
C544 C545 1.394 . S
C544 C550 1.465 . S
C545 C540 1.399 . S
C545 C544 1.394 . S
C545 C546 1.516 . S
C546 C545 1.516 . S
C546 C547 1.502 . S
C546 C548 1.561 . S
C546 C549 1.526 . S
C547 H531 0.959 . S
C547 H532 0.959 . S
C547 H533 0.961 . S
C547 C546 1.502 . S
C548 H534 0.960 . S
C548 H535 0.961 . S
C548 H536 0.959 . S
C548 C546 1.561 . S
C549 C546 1.526 . S
C549 C550 1.396 . S
C549 C554 1.390 . S
C550 C544 1.465 . S
C550 C549 1.396 . S
C550 C551 1.399 . S
C551 H537 0.929 . S
C551 C550 1.399 . S
C551 C552 1.385 . S
C552 H538 0.931 . S
C552 C551 1.385 . S
C552 C553 1.389 . S
C553 C552 1.389 . S
C553 C554 1.387 . S
C554 H539 0.930 . S
C554 C549 1.390 . S
C554 C553 1.387 . S
H555 C567 0.930 . S
H556 C569 0.930 . S
H557 C570 0.930 . S
H558 C574 0.959 . S
H559 C574 0.959 . S
H560 C574 0.961 . S
H561 C575 0.960 . S
H562 C575 0.961 . S
H563 C575 0.959 . S
H564 C578 0.929 . S
H565 C579 0.931 . S
H566 C581 0.930 . S
C567 H555 0.930 . S
C567 C568 1.399 . S
C567 C572 1.399 . S
C568 C567 1.399 . S
C568 C569 1.376 . S
C569 H556 0.930 . S
C569 C568 1.376 . S
C569 C570 1.388 . S
C570 H557 0.930 . S
C570 C569 1.388 . S
C570 C571 1.390 . S
C571 C570 1.390 . S
C571 C572 1.394 . S
C571 C577 1.465 . S
C572 C567 1.399 . S
C572 C571 1.394 . S
C572 C573 1.516 . S
C573 C572 1.516 . S
C573 C574 1.502 . S
C573 C575 1.561 . S
C573 C576 1.526 . S
C574 H558 0.959 . S
C574 H559 0.959 . S
C574 H560 0.961 . S
C574 C573 1.502 . S
C575 H561 0.960 . S
C575 H562 0.961 . S
C575 H563 0.959 . S
C575 C573 1.561 . S
C576 C573 1.526 . S
C576 C577 1.396 . S
C576 C581 1.390 . S
C577 C571 1.465 . S
C577 C576 1.396 . S
C577 C578 1.399 . S
C578 H564 0.929 . S
C578 C577 1.399 . S
C578 C579 1.385 . S
C579 H565 0.931 . S
C579 C578 1.385 . S
C579 C580 1.389 . S
C580 C579 1.389 . S
C580 C581 1.387 . S
C581 H566 0.930 . S
C581 C576 1.390 . S
C581 C580 1.387 . S
H582 C594 0.930 . S
H583 C596 0.930 . S
H584 C597 0.930 . S
H585 C601 0.959 . S
H586 C601 0.959 . S
H587 C601 0.961 . S
H588 C602 0.960 . S
H589 C602 0.961 . S
H590 C602 0.959 . S
H591 C605 0.929 . S
H592 C606 0.931 . S
H593 C608 0.930 . S
C594 H582 0.930 . S
C594 C595 1.399 . S
C594 C599 1.399 . S
C595 C594 1.399 . S
C595 C596 1.376 . S
C596 H583 0.930 . S
C596 C595 1.376 . S
C596 C597 1.388 . S
C597 H584 0.930 . S
C597 C596 1.388 . S
C597 C598 1.390 . S
C598 C597 1.390 . S
C598 C599 1.394 . S
C598 C604 1.465 . S
C599 C594 1.399 . S
C599 C598 1.394 . S
C599 C600 1.516 . S
C600 C599 1.516 . S
C600 C601 1.502 . S
C600 C602 1.561 . S
C600 C603 1.526 . S
C601 H585 0.959 . S
C601 H586 0.959 . S
C601 H587 0.961 . S
C601 C600 1.502 . S
C602 H588 0.960 . S
C602 H589 0.961 . S
C602 H590 0.959 . S
C602 C600 1.561 . S
C603 C600 1.526 . S
C603 C604 1.396 . S
C603 C608 1.390 . S
C604 C598 1.465 . S
C604 C603 1.396 . S
C604 C605 1.399 . S
C605 H591 0.929 . S
C605 C604 1.399 . S
C605 C606 1.385 . S
C606 H592 0.931 . S
C606 C605 1.385 . S
C606 C607 1.389 . S
C607 C606 1.389 . S
C607 C608 1.387 . S
C608 H593 0.930 . S
C608 C603 1.390 . S
C608 C607 1.387 . S
H609 C621 0.960 . S
H610 C623 0.930 . S
H611 C624 0.930 . S
H612 C628 0.959 . S
H613 C628 0.959 1_556 S
H614 C628 0.961 1_556 S
H615 C629 0.960 . S
H616 C629 0.961 . S
H617 C629 0.959 1_554 S
H618 C632 0.929 . S
H619 C633 0.931 . S
H620 C635 0.930 . S
C621 H609 0.960 . S
C621 C622 1.399 . S
C621 C626 1.399 . S
C622 C621 1.399 . S
C622 C623 1.376 . S
C623 H610 0.930 . S
C623 C622 1.376 . S
C623 C624 1.388 . S
C624 H611 0.930 . S
C624 C623 1.388 . S
C624 C625 1.390 . S
C625 C624 1.390 . S
C625 C626 1.394 . S
C625 C631 1.465 . S
C626 C621 1.399 . S
C626 C625 1.394 . S
C626 C627 1.516 . S
C627 C626 1.516 . S
C627 C628 1.502 . S
C627 C629 1.561 1_554 S
C627 C630 1.526 . S
C628 H612 0.959 . S
C628 H613 0.959 1_554 S
C628 H614 0.961 1_554 S
C628 C627 1.502 . S
C629 H615 0.960 . S
C629 H616 0.961 . S
C629 H617 0.959 1_556 S
C629 C627 1.561 1_556 S
C630 C627 1.526 . S
C630 C631 1.396 . S
C630 C635 1.390 . S
C631 C625 1.465 . S
C631 C630 1.396 . S
C631 C632 1.399 . S
C632 H618 0.929 . S
C632 C631 1.399 . S
C632 C633 1.385 . S
C633 H619 0.931 . S
C633 C632 1.385 . S
C633 C634 1.389 . S
C634 C633 1.389 . S
C634 C635 1.387 . S
C635 H620 0.930 . S
C635 C630 1.390 . S
C635 C634 1.387 . S
H636 C648 0.930 . S
H637 C650 0.930 . S
H638 C651 0.930 . S
H639 C655 0.959 . S
H640 C655 0.959 . S
H641 C655 0.961 . S
H642 C656 0.960 . S
H643 C656 0.961 . S
H644 C656 0.959 . S
H645 C659 0.929 . S
H646 C660 0.931 . S
H647 C662 0.930 . S
C648 H636 0.930 . S
C648 C649 1.399 . S
C648 C653 1.399 . S
C649 C648 1.399 . S
C649 C650 1.376 . S
C650 H637 0.930 . S
C650 C649 1.376 . S
C650 C651 1.388 . S
C651 H638 0.930 . S
C651 C650 1.388 . S
C651 C652 1.390 . S
C652 C651 1.390 . S
C652 C653 1.394 . S
C652 C658 1.465 . S
C653 C648 1.399 . S
C653 C652 1.394 . S
C653 C654 1.516 . S
C654 C653 1.516 . S
C654 C655 1.502 . S
C654 C656 1.561 . S
C654 C657 1.526 . S
C655 H639 0.959 . S
C655 H640 0.959 . S
C655 H641 0.961 . S
C655 C654 1.502 . S
C656 H642 0.960 . S
C656 H643 0.961 . S
C656 H644 0.959 . S
C656 C654 1.561 . S
C657 C654 1.526 . S
C657 C658 1.396 . S
C657 C662 1.390 . S
C658 C652 1.465 . S
C658 C657 1.396 . S
C658 C659 1.399 . S
C659 H645 0.929 . S
C659 C658 1.399 . S
C659 C660 1.385 . S
C660 H646 0.931 . S
C660 C659 1.385 . S
C660 C661 1.389 . S
C661 C660 1.389 . S
C661 C662 1.387 . S
C662 H647 0.930 . S
C662 C657 1.390 . S
C662 C661 1.387 . S
H663 C675 0.930 . S
H664 C677 0.930 . S
H665 C678 0.930 . S
H666 C682 0.959 . S
H667 C682 0.959 . S
H668 C682 0.961 . S
H669 C683 0.960 . S
H670 C683 0.961 . S
H671 C683 0.959 . S
H672 C686 0.929 . S
H673 C687 0.931 . S
H674 C689 0.930 . S
C675 H663 0.930 . S
C675 C676 1.399 . S
C675 C680 1.399 . S
C676 C675 1.399 . S
C676 C677 1.376 . S
C677 H664 0.930 . S
C677 C676 1.376 . S
C677 C678 1.388 . S
C678 H665 0.930 . S
C678 C677 1.388 . S
C678 C679 1.390 . S
C679 C678 1.390 . S
C679 C680 1.394 . S
C679 C685 1.465 . S
C680 C675 1.399 . S
C680 C679 1.394 . S
C680 C681 1.516 . S
C681 C680 1.516 . S
C681 C682 1.502 . S
C681 C683 1.561 . S
C681 C684 1.526 . S
C682 H666 0.959 . S
C682 H667 0.959 . S
C682 H668 0.961 . S
C682 C681 1.502 . S
C683 H669 0.960 . S
C683 H670 0.961 . S
C683 H671 0.959 . S
C683 C681 1.561 . S
C684 C681 1.526 . S
C684 C685 1.396 . S
C684 C689 1.390 . S
C685 C679 1.465 . S
C685 C684 1.396 . S
C685 C686 1.399 . S
C686 H672 0.929 . S
C686 C685 1.399 . S
C686 C687 1.385 . S
C687 H673 0.931 . S
C687 C686 1.385 . S
C687 C688 1.389 . S
C688 C687 1.389 . S
C688 C689 1.387 . S
C689 H674 0.930 . S
C689 C684 1.390 . S
C689 C688 1.387 . S
H690 C702 0.930 . S
H691 C704 0.930 . S
H692 C705 0.930 . S
H693 C709 0.959 . S
H694 C709 0.959 . S
H695 C709 0.961 . S
H696 C710 0.960 . S
H697 C710 0.961 . S
H698 C710 0.959 . S
H699 C713 0.929 . S
H700 C714 0.931 . S
H701 C716 0.930 . S
C702 H690 0.930 . S
C702 C703 1.399 . S
C702 C707 1.399 . S
C703 C702 1.399 . S
C703 C704 1.376 . S
C704 H691 0.930 . S
C704 C703 1.376 . S
C704 C705 1.388 . S
C705 H692 0.930 . S
C705 C704 1.388 . S
C705 C706 1.390 . S
C706 C705 1.390 . S
C706 C707 1.394 . S
C706 C712 1.465 . S
C707 C702 1.399 . S
C707 C706 1.394 . S
C707 C708 1.516 . S
C708 C707 1.516 . S
C708 C709 1.502 . S
C708 C710 1.561 . S
C708 C711 1.526 . S
C709 H693 0.959 . S
C709 H694 0.959 . S
C709 H695 0.961 . S
C709 C708 1.502 . S
C710 H696 0.960 . S
C710 H697 0.961 . S
C710 H698 0.959 . S
C710 C708 1.561 . S
C711 C708 1.526 . S
C711 C712 1.396 . S
C711 C716 1.390 . S
C712 C706 1.465 . S
C712 C711 1.396 . S
C712 C713 1.399 . S
C713 H699 0.929 . S
C713 C712 1.399 . S
C713 C714 1.385 . S
C714 H700 0.931 . S
C714 C713 1.385 . S
C714 C715 1.389 . S
C715 C714 1.389 . S
C715 C716 1.387 . S
C716 H701 0.930 . S
C716 C711 1.390 . S
C716 C715 1.387 . S
H717 C729 0.930 . S
H718 C731 0.930 . S
H719 C732 0.930 . S
H720 C736 0.959 . S
H721 C736 0.959 . S
H722 C736 0.961 . S
H723 C737 0.960 . S
H724 C737 0.961 . S
H725 C737 0.959 . S
H726 C740 0.929 . S
H727 C741 0.931 . S
H728 C743 0.930 . S
C729 H717 0.930 . S
C729 C730 1.399 . S
C729 C734 1.399 . S
C730 C729 1.399 . S
C730 C731 1.376 . S
C731 H718 0.930 . S
C731 C730 1.376 . S
C731 C732 1.388 . S
C732 H719 0.930 . S
C732 C731 1.388 . S
C732 C733 1.390 . S
C733 C732 1.390 . S
C733 C734 1.394 . S
C733 C739 1.465 . S
C734 C729 1.399 . S
C734 C733 1.394 . S
C734 C735 1.516 . S
C735 C734 1.516 . S
C735 C736 1.502 . S
C735 C737 1.561 . S
C735 C738 1.526 . S
C736 H720 0.959 . S
C736 H721 0.959 . S
C736 H722 0.961 . S
C736 C735 1.502 . S
C737 H723 0.960 . S
C737 H724 0.961 . S
C737 H725 0.959 . S
C737 C735 1.561 . S
C738 C735 1.526 . S
C738 C739 1.396 . S
C738 C743 1.390 . S
C739 C733 1.465 . S
C739 C738 1.396 . S
C739 C740 1.399 . S
C740 H726 0.929 . S
C740 C739 1.399 . S
C740 C741 1.385 . S
C741 H727 0.931 . S
C741 C740 1.385 . S
C741 C742 1.389 . S
C742 C741 1.389 . S
C742 C743 1.387 . S
C743 H728 0.930 . S
C743 C738 1.390 . S
C743 C742 1.387 . S
H744 C756 0.930 . S
H745 C758 0.930 . S
H746 C759 0.930 . S
H747 C763 0.959 . S
H748 C763 0.959 . S
H749 C763 0.961 . S
H750 C764 0.960 . S
H751 C764 0.961 . S
H752 C764 0.959 . S
H753 C767 0.929 . S
H754 C768 0.931 . S
H755 C770 0.930 . S
C756 H744 0.930 . S
C756 C757 1.399 . S
C756 C761 1.399 . S
C757 C756 1.399 . S
C757 C758 1.376 . S
C758 H745 0.930 . S
C758 C757 1.376 . S
C758 C759 1.388 . S
C759 H746 0.930 . S
C759 C758 1.388 . S
C759 C760 1.390 . S
C760 C759 1.390 . S
C760 C761 1.394 . S
C760 C766 1.465 . S
C761 C756 1.399 . S
C761 C760 1.394 . S
C761 C762 1.516 . S
C762 C761 1.516 . S
C762 C763 1.502 . S
C762 C764 1.561 . S
C762 C765 1.526 . S
C763 H747 0.959 . S
C763 H748 0.959 . S
C763 H749 0.961 . S
C763 C762 1.502 . S
C764 H750 0.960 . S
C764 H751 0.961 . S
C764 H752 0.959 . S
C764 C762 1.561 . S
C765 C762 1.526 . S
C765 C766 1.396 . S
C765 C770 1.390 . S
C766 C760 1.465 . S
C766 C765 1.396 . S
C766 C767 1.399 . S
C767 H753 0.929 . S
C767 C766 1.399 . S
C767 C768 1.385 . S
C768 H754 0.931 . S
C768 C767 1.385 . S
C768 C769 1.389 . S
C769 C768 1.389 . S
C769 C770 1.387 . S
C770 H755 0.930 . S
C770 C765 1.390 . S
C770 C769 1.387 . S
H771 C783 0.930 . S
H772 C785 0.930 . S
H773 C786 0.930 . S
H774 C790 0.959 . S
H775 C790 0.959 1_554 S
H776 C790 0.961 . S
H777 C791 0.960 . S
H778 C791 0.920 1_554 S
H779 C791 0.959 . S
H780 C794 0.929 . S
H781 C795 0.931 . S
H782 C797 0.930 . S
C783 H771 0.930 . S
C783 C784 1.399 . S
C783 C788 1.399 . S
C784 C783 1.399 . S
C784 C785 1.376 . S
C785 H772 0.930 . S
C785 C784 1.376 . S
C785 C786 1.388 . S
C786 H773 0.930 . S
C786 C785 1.388 . S
C786 C787 1.390 . S
C787 C786 1.390 . S
C787 C788 1.394 . S
C787 C793 1.465 . S
C788 C783 1.399 . S
C788 C787 1.394 . S
C788 C789 1.516 . S
C789 C788 1.516 . S
C789 C790 1.502 . S
C789 C791 1.561 . S
C789 C792 1.526 . S
C790 H774 0.959 . S
C790 H775 0.959 1_556 S
C790 H776 0.961 . S
C790 C789 1.502 . S
C791 H777 0.960 . S
C791 H778 0.920 1_556 S
C791 H779 0.959 . S
C791 C789 1.561 . S
C792 C789 1.526 . S
C792 C793 1.396 . S
C792 C797 1.390 1_556 S
C793 C787 1.465 . S
C793 C792 1.396 . S
C793 C794 1.399 . S
C794 H780 0.929 . S
C794 C793 1.399 . S
C794 C795 1.385 . S
C795 H781 0.931 . S
C795 C794 1.385 . S
C795 C796 1.389 1_556 S
C796 C795 1.389 1_554 S
C796 C797 1.387 . S
C797 H782 0.930 . S
C797 C792 1.390 1_554 S
C797 C796 1.387 . S
H798 C810 0.930 . S
H799 C812 0.930 . S
H800 C813 0.930 . S
H801 C817 0.959 . S
H802 C817 0.959 . S
H803 C817 0.961 . S
H804 C818 0.960 . S
H805 C818 0.961 . S
H806 C818 0.959 . S
H807 C821 0.929 . S
H808 C822 0.931 . S
H809 C824 0.930 . S
C810 H798 0.930 . S
C810 C811 1.399 . S
C810 C815 1.399 . S
C811 C810 1.399 . S
C811 C812 1.376 . S
C812 H799 0.930 . S
C812 C811 1.376 . S
C812 C813 1.388 . S
C813 H800 0.930 . S
C813 C812 1.388 . S
C813 C814 1.390 . S
C814 C813 1.390 . S
C814 C815 1.394 . S
C814 C820 1.465 . S
C815 C810 1.399 . S
C815 C814 1.394 . S
C815 C816 1.516 . S
C816 C815 1.516 . S
C816 C817 1.502 . S
C816 C818 1.561 . S
C816 C819 1.526 . S
C817 H801 0.959 . S
C817 H802 0.959 . S
C817 H803 0.961 . S
C817 C816 1.502 . S
C818 H804 0.960 . S
C818 H805 0.961 . S
C818 H806 0.959 . S
C818 C816 1.561 . S
C819 C816 1.526 . S
C819 C820 1.396 . S
C819 C824 1.390 . S
C820 C814 1.465 . S
C820 C819 1.396 . S
C820 C821 1.399 . S
C821 H807 0.929 . S
C821 C820 1.399 . S
C821 C822 1.385 . S
C822 H808 0.931 . S
C822 C821 1.385 . S
C822 C823 1.389 . S
C823 C822 1.389 . S
C823 C824 1.387 . S
C824 H809 0.930 . S
C824 C819 1.390 . S
C824 C823 1.387 . S
H825 C837 0.930 . S
H826 C839 0.930 . S
H827 C840 0.930 . S
H828 C844 0.959 . S
H829 C844 0.959 . S
H830 C844 0.961 . S
H831 C845 0.960 . S
H832 C845 0.961 . S
H833 C845 0.959 . S
H834 C848 0.929 . S
H835 C849 0.931 . S
H836 C851 0.930 . S
C837 H825 0.930 . S
C837 C838 1.399 . S
C837 C842 1.399 . S
C838 C837 1.399 . S
C838 C839 1.376 . S
C839 H826 0.930 . S
C839 C838 1.376 . S
C839 C840 1.388 . S
C840 H827 0.930 . S
C840 C839 1.388 . S
C840 C841 1.390 . S
C841 C840 1.390 . S
C841 C842 1.394 . S
C841 C847 1.465 . S
C842 C837 1.399 . S
C842 C841 1.394 . S
C842 C843 1.516 . S
C843 C842 1.516 . S
C843 C844 1.502 . S
C843 C845 1.561 . S
C843 C846 1.526 . S
C844 H828 0.959 . S
C844 H829 0.959 . S
C844 H830 0.961 . S
C844 C843 1.502 . S
C845 H831 0.960 . S
C845 H832 0.961 . S
C845 H833 0.959 . S
C845 C843 1.561 . S
C846 C843 1.526 . S
C846 C847 1.396 . S
C846 C851 1.390 . S
C847 C841 1.465 . S
C847 C846 1.396 . S
C847 C848 1.399 . S
C848 H834 0.929 . S
C848 C847 1.399 . S
C848 C849 1.385 . S
C849 H835 0.931 . S
C849 C848 1.385 . S
C849 C850 1.389 . S
C850 C849 1.389 . S
C850 C851 1.387 . S
C851 H836 0.930 . S
C851 C846 1.390 . S
C851 C850 1.387 . S
H852 C864 0.930 . S
H853 C866 0.930 . S
H854 C867 0.930 . S
H855 C871 0.959 . S
H856 C871 0.959 . S
H857 C871 0.961 . S
H858 C872 0.960 . S
H859 C872 0.961 . S
H860 C872 0.959 . S
H861 C875 0.929 . S
H862 C876 0.931 . S
H863 C878 0.930 . S
C864 H852 0.930 . S
C864 C865 1.399 . S
C864 C869 1.399 . S
C865 C864 1.399 . S
C865 C866 1.376 . S
C866 H853 0.930 . S
C866 C865 1.376 . S
C866 C867 1.388 . S
C867 H854 0.930 . S
C867 C866 1.388 . S
C867 C868 1.390 . S
C868 C867 1.390 . S
C868 C869 1.394 . S
C868 C874 1.465 . S
C869 C864 1.399 . S
C869 C868 1.394 . S
C869 C870 1.516 . S
C870 C869 1.516 . S
C870 C871 1.502 . S
C870 C872 1.561 . S
C870 C873 1.526 . S
C871 H855 0.959 . S
C871 H856 0.959 . S
C871 H857 0.961 . S
C871 C870 1.502 . S
C872 H858 0.960 . S
C872 H859 0.961 . S
C872 H860 0.959 . S
C872 C870 1.561 . S
C873 C870 1.526 . S
C873 C874 1.396 . S
C873 C878 1.390 . S
C874 C868 1.465 . S
C874 C873 1.396 . S
C874 C875 1.399 . S
C875 H861 0.929 . S
C875 C874 1.399 . S
C875 C876 1.385 . S
C876 H862 0.931 . S
C876 C875 1.385 . S
C876 C877 1.389 . S
C877 C876 1.389 . S
C877 C878 1.387 . S
C878 H863 0.930 . S
C878 C873 1.390 . S
C878 C877 1.387 . S
H879 C891 0.930 . S
H880 C893 0.930 . S
H881 C894 0.930 . S
H882 C898 0.959 . S
H883 C898 0.959 . S
H884 C898 0.961 . S
H885 C899 0.960 . S
H886 C899 0.961 . S
H887 C899 0.959 . S
H888 C902 0.929 . S
H889 C903 0.931 . S
H890 C905 0.930 . S
C891 H879 0.930 . S
C891 C892 1.399 . S
C891 C896 1.399 . S
C892 C891 1.399 . S
C892 C893 1.376 . S
C893 H880 0.930 . S
C893 C892 1.376 . S
C893 C894 1.388 . S
C894 H881 0.930 . S
C894 C893 1.388 . S
C894 C895 1.390 . S
C895 C894 1.390 . S
C895 C896 1.394 . S
C895 C901 1.465 . S
C896 C891 1.399 . S
C896 C895 1.394 . S
C896 C897 1.516 . S
C897 C896 1.516 . S
C897 C898 1.502 . S
C897 C899 1.561 . S
C897 C900 1.526 . S
C898 H882 0.959 . S
C898 H883 0.959 . S
C898 H884 0.961 . S
C898 C897 1.502 . S
C899 H885 0.960 . S
C899 H886 0.961 . S
C899 H887 0.959 . S
C899 C897 1.561 . S
C900 C897 1.526 . S
C900 C901 1.396 . S
C900 C905 1.390 . S
C901 C895 1.465 . S
C901 C900 1.396 . S
C901 C902 1.399 . S
C902 H888 0.929 . S
C902 C901 1.399 . S
C902 C903 1.385 . S
C903 H889 0.931 . S
C903 C902 1.385 . S
C903 C904 1.389 . S
C904 C903 1.389 . S
C904 C905 1.387 . S
C905 H890 0.930 . S
C905 C900 1.390 . S
C905 C904 1.387 . S
H906 C918 0.930 . S
H907 C920 0.930 . S
H908 C921 0.930 . S
H909 C925 0.959 . S
H910 C925 0.959 . S
H911 C925 0.961 . S
H912 C926 0.960 . S
H913 C926 0.961 . S
H914 C926 0.959 . S
H915 C929 0.929 . S
H916 C930 0.931 . S
H917 C932 0.930 . S
C918 H906 0.930 . S
C918 C919 1.399 . S
C918 C923 1.399 . S
C919 C918 1.399 . S
C919 C920 1.376 . S
C920 H907 0.930 . S
C920 C919 1.376 . S
C920 C921 1.388 . S
C921 H908 0.930 . S
C921 C920 1.388 . S
C921 C922 1.390 . S
C922 C921 1.390 . S
C922 C923 1.394 . S
C922 C928 1.465 . S
C923 C918 1.399 . S
C923 C922 1.394 . S
C923 C924 1.516 . S
C924 C923 1.516 . S
C924 C925 1.502 . S
C924 C926 1.561 . S
C924 C927 1.526 . S
C925 H909 0.959 . S
C925 H910 0.959 . S
C925 H911 0.961 . S
C925 C924 1.502 . S
C926 H912 0.960 . S
C926 H913 0.961 . S
C926 H914 0.959 . S
C926 C924 1.561 . S
C927 C924 1.526 . S
C927 C928 1.396 . S
C927 C932 1.390 . S
C928 C922 1.465 . S
C928 C927 1.396 . S
C928 C929 1.399 . S
C929 H915 0.929 . S
C929 C928 1.399 . S
C929 C930 1.385 . S
C930 H916 0.931 . S
C930 C929 1.385 . S
C930 C931 1.389 . S
C931 C930 1.389 . S
C931 C932 1.387 . S
C932 H917 0.930 . S
C932 C927 1.390 . S
C932 C931 1.387 . S
H933 C945 0.930 . S
H934 C947 0.930 . S
H935 C948 0.930 . S
H936 C952 0.959 . S
H937 C952 0.959 . S
H938 C952 0.961 . S
H939 C953 0.960 . S
H940 C953 0.961 . S
H941 C953 0.959 . S
H942 C956 0.929 . S
H943 C957 0.931 . S
H944 C959 0.930 . S
C945 H933 0.930 . S
C945 C946 1.399 . S
C945 C950 1.399 . S
C946 C945 1.399 . S
C946 C947 1.376 . S
C947 H934 0.930 . S
C947 C946 1.376 . S
C947 C948 1.388 . S
C948 H935 0.930 . S
C948 C947 1.388 . S
C948 C949 1.390 . S
C949 C948 1.390 . S
C949 C950 1.394 . S
C949 C955 1.465 . S
C950 C945 1.399 . S
C950 C949 1.394 . S
C950 C951 1.516 . S
C951 C950 1.516 . S
C951 C952 1.502 . S
C951 C953 1.561 . S
C951 C954 1.526 . S
C952 H936 0.959 . S
C952 H937 0.959 . S
C952 H938 0.961 . S
C952 C951 1.502 . S
C953 H939 0.960 . S
C953 H940 0.961 . S
C953 H941 0.959 . S
C953 C951 1.561 . S
C954 C951 1.526 . S
C954 C955 1.396 . S
C954 C959 1.390 . S
C955 C949 1.465 . S
C955 C954 1.396 . S
C955 C956 1.399 . S
C956 H942 0.929 . S
C956 C955 1.399 . S
C956 C957 1.385 . S
C957 H943 0.931 . S
C957 C956 1.385 . S
C957 C958 1.389 . S
C958 C957 1.389 . S
C958 C959 1.387 . S
C959 H944 0.930 . S
C959 C954 1.390 . S
C959 C958 1.387 . S
H960 C972 0.930 . S
H961 C974 0.930 . S
H962 C975 0.930 1_556 S
H963 C979 0.959 . S
H964 C979 0.959 . S
H965 C979 0.961 . S
H966 C980 0.960 . S
H967 C980 0.961 . S
H968 C980 0.959 . S
H969 C983 0.929 . S
H970 C984 0.931 . S
H971 C986 0.930 . S
C972 H960 0.930 . S
C972 C973 1.399 . S
C972 C977 1.399 . S
C973 C972 1.399 . S
C973 C974 1.376 . S
C974 H961 0.930 . S
C974 C973 1.376 . S
C974 C975 1.388 . S
C975 H962 0.930 1_554 S
C975 C974 1.388 . S
C975 C976 1.390 . S
C976 C975 1.390 . S
C976 C977 1.394 . S
C976 C982 1.465 1_554 S
C977 C972 1.399 . S
C977 C976 1.394 . S
C977 C978 1.516 . S
C978 C977 1.516 . S
C978 C979 1.502 . S
C978 C980 1.561 . S
C978 C981 1.526 1_554 S
C979 H963 0.959 . S
C979 H964 0.959 . S
C979 H965 0.961 . S
C979 C978 1.502 . S
C980 H966 0.960 . S
C980 H967 0.961 . S
C980 H968 0.959 . S
C980 C978 1.561 . S
C981 C978 1.526 1_556 S
C981 C982 1.396 . S
C981 C986 1.390 . S
C982 C976 1.465 1_556 S
C982 C981 1.396 . S
C982 C983 1.399 . S
C983 H969 0.929 . S
C983 C982 1.399 . S
C983 C984 1.385 . S
C984 H970 0.931 . S
C984 C983 1.385 . S
C984 C985 1.389 . S
C985 C984 1.389 . S
C985 C986 1.387 . S
C986 H971 0.930 . S
C986 C981 1.390 . S
C986 C985 1.387 . S
H987 C999 0.930 . S
H988 C1001 0.930 . S
H989 C1002 0.930 . S
H990 C1006 0.959 . S
H991 C1006 0.959 . S
H992 C1006 0.961 . S
H993 C1007 0.960 . S
H994 C1007 0.961 . S
H995 C1007 0.959 . S
H996 C1010 0.929 . S
H997 C1011 0.931 . S
H998 C1013 0.930 . S
C999 H987 0.930 . S
C999 C1000 1.399 . S
C999 C1004 1.399 . S
C1000 C999 1.399 . S
C1000 C1001 1.376 . S
C1001 H988 0.930 . S
C1001 C1000 1.376 . S
C1001 C1002 1.388 . S
C1002 H989 0.930 . S
C1002 C1001 1.388 . S
C1002 C1003 1.390 . S
C1003 C1002 1.390 . S
C1003 C1004 1.394 . S
C1003 C1009 1.465 . S
C1004 C999 1.399 . S
C1004 C1003 1.394 . S
C1004 C1005 1.516 . S
C1005 C1004 1.516 . S
C1005 C1006 1.502 . S
C1005 C1007 1.561 . S
C1005 C1008 1.526 . S
C1006 H990 0.959 . S
C1006 H991 0.959 . S
C1006 H992 0.961 . S
C1006 C1005 1.502 . S
C1007 H993 0.960 . S
C1007 H994 0.961 . S
C1007 H995 0.959 . S
C1007 C1005 1.561 . S
C1008 C1005 1.526 . S
C1008 C1009 1.396 . S
C1008 C1013 1.390 . S
C1009 C1003 1.465 . S
C1009 C1008 1.396 . S
C1009 C1010 1.399 . S
C1010 H996 0.929 . S
C1010 C1009 1.399 . S
C1010 C1011 1.385 . S
C1011 H997 0.931 . S
C1011 C1010 1.385 . S
C1011 C1012 1.389 . S
C1012 C1011 1.389 . S
C1012 C1013 1.387 . S
C1013 H998 0.930 . S
C1013 C1008 1.390 . S
C1013 C1012 1.387 . S
C391 C363 1.585 . S
C379 C45 1.601 . S
C406 C84 1.569 . S
C418 C288 1.496 . S
C433 C126 1.552 . S
C445 C311 1.619 . S
C460 C189 1.453 . S
C472 C324 1.463 . S
C499 C327 1.555 . S
C487 C228 1.580 . S
C514 C270 1.465 . S
C526 C340 1.417 . S
C541 C69 1.503 . S
C553 C301 1.417 . S
C568 C141 1.615 . S
C580 C314 1.507 . S
C595 C174 1.429 . S
C607 C337 1.466 . S
C634 C350 1.611 . S
C622 C213 1.609 . S
C661 C353 1.486 . S
C649 C285 1.569 . S
C688 C298 1.590 . S
C676 C30 1.548 . S
C703 C36 1.483 . S
C715 C309 1.417 . S
C730 C93 1.448 . S
C742 C322 1.385 . S
C769 C332 1.411 . S
C757 C117 1.495 . S
C784 C180 1.457 . S
C796 C345 1.422 . S
C823 C361 1.434 . S
C811 C237 1.488 . S
C850 C293 1.445 . S
C838 C261 1.448 . S
C877 C358 1.376 . S
C865 C78 1.459 . S
C892 C132 1.508 . S
C904 C296 1.437 . S
C931 C306 1.383 . S
C919 C165 1.478 . S
C946 C222 1.487 . S
C958 C319 1.434 . S
C973 C276 1.463 . S
C985 C335 1.392 . S
C1000 C21 1.476 . S
C1012 C348 1.442 . S
