# Generated by pormake.
# Topology tsx, (6,3)-cn, num edge types: 1
# Building blocks:
#     Node 0, Type 0, BuildingBlock: VOLQOD_clean_sbu_1, # of connection points: 6
#     Node 1, Type 0, BuildingBlock: VOLQOD_clean_sbu_1, # of connection points: 6
#     Node 2, Type 1, BuildingBlock: KAKCAD_clean_linker_0, # of connection points: 3
#     Node 3, Type 1, BuildingBlock: KAKCAD_clean_linker_0, # of connection points: 3
#     Node 4, Type 1, BuildingBlock: KAKCAD_clean_linker_0, # of connection points: 3
#     Node 5, Type 1, BuildingBlock: KAKCAD_clean_linker_0, # of connection points: 3
#     Edge 6, Type (0, 1), BuildingBlock: TEMPAE_clean_linker_10, # of connection points: 2
#     Edge 7, Type (0, 1), BuildingBlock: TEMPAE_clean_linker_10, # of connection points: 2
#     Edge 8, Type (0, 1), BuildingBlock: TEMPAE_clean_linker_10, # of connection points: 2
#     Edge 9, Type (0, 1), BuildingBlock: TEMPAE_clean_linker_10, # of connection points: 2
#     Edge 10, Type (0, 1), BuildingBlock: TEMPAE_clean_linker_10, # of connection points: 2
#     Edge 11, Type (0, 1), BuildingBlock: TEMPAE_clean_linker_10, # of connection points: 2
#     Edge 12, Type (0, 1), BuildingBlock: TEMPAE_clean_linker_10, # of connection points: 2
#     Edge 13, Type (0, 1), BuildingBlock: TEMPAE_clean_linker_10, # of connection points: 2
#     Edge 14, Type (0, 1), BuildingBlock: TEMPAE_clean_linker_10, # of connection points: 2
#     Edge 15, Type (0, 1), BuildingBlock: TEMPAE_clean_linker_10, # of connection points: 2
#     Edge 16, Type (0, 1), BuildingBlock: TEMPAE_clean_linker_10, # of connection points: 2
#     Edge 17, Type (0, 1), BuildingBlock: TEMPAE_clean_linker_10, # of connection points: 2
# Relax obj value: 0.075
# Max RMSD: 0.108
# Mean RMSD: 0.083
data_MOF--net-tsx--node1-VOLQOD_clean_sbu_1--node2-KAKCAD_clean_linker_0--edge1-TEMPAE_clean_linker_10
_symmetry_space_group_name_H-M    P1
_symmetry_Int_Tables_number       1
_symmetry_cell_setting            triclinic
loop_
_symmetry_equiv_pos_as_xyz
'x, y, z'
_cell_length_a     25.442167
_cell_length_b     26.234083
_cell_length_c     49.825142
_cell_angle_alpha  90.619915
_cell_angle_beta   89.945032
_cell_angle_gamma 90.11504
loop_
_atom_site_label
_atom_site_type_symbol
_atom_site_fract_x
_atom_site_fract_y
_atom_site_fract_z
_atom_type_partial_charge
O0 O 0.04866 -0.00547 0.07671 0.0
Zn1 Zn 0.07178 -0.00496 0.03805 0.0
O2 O 0.01226 0.00317 0.01367 0.0
Zn3 Zn 0.00487 0.94206 0.99133 0.0
Zn4 Zn 0.94879 0.01425 0.03502 0.0
Zn5 Zn 0.02342 0.06134 0.99024 0.0
O6 O 0.00778 0.95786 0.95189 0.0
O7 O 0.02504 0.04079 0.95129 0.0
O8 O 0.11111 0.92973 0.03059 0.0
O9 O 0.06398 0.89392 0.99796 0.0
O10 O 0.93712 0.9057 -0.00078 0.0
O11 O 0.89696 0.95799 0.02799 0.0
O12 O 0.91343 0.08013 0.0259 0.0
O13 O 0.12221 0.05347 0.03376 0.0
O14 O 0.96434 0.11138 0.9938 0.0
O15 O 0.09073 0.09753 -0.00052 0.0
C16 C 0.00505 0.0041 0.08825 0.0
C17 C 0.01713 -0.00138 0.9391 0.0
C18 C 0.89775 0.9173 0.01383 0.0
C19 C 0.10302 0.89353 0.01388 0.0
C20 C 0.92385 0.11428 0.00874 0.0
C21 C 0.12533 0.09053 0.01752 0.0
O22 O 0.96398 0.0141 0.07472 0.0
O23 O 0.53415 0.4995 0.57488 0.0
Zn24 Zn 0.55211 0.49644 0.53547 0.0
O25 O 0.48923 0.50139 0.5131 0.0
Zn26 Zn 0.48449 0.44192 0.48938 0.0
Zn27 Zn 0.42731 0.50455 0.53628 0.0
Zn28 Zn 0.49286 0.5624 0.49108 0.0
O29 O 0.48568 0.46093 0.45051 0.0
O30 O 0.49441 0.54512 0.45158 0.0
O31 O 0.59212 0.43147 0.5281 0.0
O32 O 0.54616 0.39644 0.49479 0.0
O33 O 0.4197 0.40035 0.49682 0.0
O34 O 0.38263 0.44234 0.5308 0.0
O35 O 0.38294 0.56628 0.52843 0.0
O36 O 0.6005 0.55509 0.52829 0.0
O37 O 0.42902 0.60531 0.49678 0.0
O38 O 0.55707 0.60438 0.49992 0.0
C39 C 0.49087 0.50336 0.58759 0.0
C40 C 0.49056 0.50327 0.43856 0.0
C41 C 0.38364 0.4048 0.51441 0.0
C42 C 0.5851 0.39609 0.51077 0.0
C43 C 0.38886 0.60262 0.51194 0.0
C44 C 0.59707 0.59549 0.51447 0.0
O45 O 0.44714 0.50597 0.5753 0.0
C46 C 0.98619 0.9426 0.30389 0.0
C47 C 0.98139 0.98938 0.29057 0.0
C48 C 0.9829 0.94043 0.33186 0.0
C49 C 0.97524 0.98505 0.34726 0.0
C50 C 0.97064 0.03183 0.33394 0.0
C51 C 0.97335 0.03392 0.30597 0.0
C52 C 0.9724 0.98297 0.3771 0.0
C53 C 0.00498 0.94978 0.39148 0.0
C54 C 0.00287 0.94796 0.41967 0.0
C55 C 0.96855 0.98085 0.43349 0.0
C56 C 0.9365 0.01504 0.41958 0.0
C57 C 0.93786 0.015 0.39139 0.0
C58 C 0.90336 0.05231 0.43452 0.0
C59 C 0.8775 0.0387 0.45838 0.0
C60 C 0.89873 0.10252 0.42533 0.0
C61 C 0.86873 0.13815 0.43947 0.0
C62 C 0.84318 0.12479 0.46343 0.0
C63 C 0.03705 0.91229 0.43469 0.0
C64 C 0.0475 0.8633 0.42437 0.0
C65 C 0.05956 0.92684 0.45941 0.0
C66 C 0.09184 0.89331 0.47337 0.0
C67 C 0.10317 0.84471 0.46274 0.0
C68 C 0.08048 0.83014 0.43808 0.0
C69 C 0.84795 0.07463 0.47275 0.0
H70 H -0.00692 0.90759 0.29274 0.0
H71 H 0.98599 0.90365 0.34137 0.0
H72 H 0.9655 0.06711 0.3451 0.0
H73 H 0.96874 0.07053 0.29644 0.0
H74 H 0.03315 0.92633 0.38073 0.0
H75 H 0.9116 0.03981 0.38052 0.0
H76 H 0.96722 0.98029 0.45521 0.0
H77 H 0.87975 0.0002 0.4659 0.0
H78 H 0.91877 0.11463 0.40729 0.0
H79 H 0.86505 0.17608 0.43133 0.0
H80 H 0.03023 0.85043 0.40562 0.0
H81 H 0.05305 0.9645 0.46786 0.0
H82 H 0.82903 0.0631 0.4912 0.0
H83 H 0.089 0.79342 0.42897 0.0
H84 H 0.10811 0.90567 0.49244 0.0
C85 C 0.02987 0.03328 0.72235 0.0
C86 C 0.02084 0.98869 0.73693 0.0
C87 C 0.02852 0.03215 0.69431 0.0
C88 C 0.01916 0.98612 0.68027 0.0
C89 C 0.01101 0.94137 0.6951 0.0
C90 C 0.01127 0.94278 0.72312 0.0
C91 C 0.01776 0.98462 0.65034 0.0
C92 C 0.05061 0.01645 0.63519 0.0
C93 C 0.04939 0.01481 0.60704 0.0
C94 C 0.01613 0.98016 0.59384 0.0
C95 C 0.98242 0.94852 0.60852 0.0
C96 C 0.98315 0.95145 0.63673 0.0
C97 C 0.94548 0.91327 0.59456 0.0
C98 C 0.91935 0.92813 0.57101 0.0
C99 C 0.93498 0.86485 0.60516 0.0
C100 C 0.89799 0.83281 0.59308 0.0
C101 C 0.87123 0.84815 0.56994 0.0
C102 C 0.08132 0.05095 0.59143 0.0
C103 C 0.07725 0.10342 0.59673 0.0
C104 C 0.11531 0.03356 0.5711 0.0
C105 C 0.14579 0.06825 0.55669 0.0
C106 C 0.14166 0.12074 0.56205 0.0
C107 C 0.10688 0.13805 0.58201 0.0
C108 C 0.88279 0.89566 0.5587 0.0
H109 H 0.03691 0.06919 0.73268 0.0
H110 H 0.03398 0.06758 0.68372 0.0
H111 H 0.00489 0.90499 0.68511 0.0
H112 H 0.00469 0.90785 0.73404 0.0
H113 H 0.07783 0.0422 0.64514 0.0
H114 H 0.95561 0.92874 0.64811 0.0
H115 H 0.016 0.97858 0.57209 0.0
H116 H 0.92596 0.96538 0.56248 0.0
H117 H 0.95524 0.85169 0.62289 0.0
H118 H 0.89017 0.79594 0.60185 0.0
H119 H 0.05091 0.11761 0.61218 0.0
H120 H 0.11895 0.99318 0.56672 0.0
H121 H 0.86234 0.90832 0.54092 0.0
H122 H 0.10358 0.17836 0.58668 0.0
H123 H 0.17255 0.05419 0.5414 0.0
C124 C 0.4839 0.45102 0.80369 0.0
C125 C 0.49219 0.49732 0.79026 0.0
C126 C 0.4845 0.44932 0.83171 0.0
C127 C 0.49237 0.49398 0.84691 0.0
C128 C 0.49998 0.54035 0.83368 0.0
C129 C 0.50036 0.54196 0.80566 0.0
C130 C 0.4933 0.49218 0.87655 0.0
C131 C 0.52674 0.45814 0.88965 0.0
C132 C 0.52889 0.45687 0.91783 0.0
C133 C 0.49662 0.49006 0.93279 0.0
C134 C 0.46315 0.52464 0.91997 0.0
C135 C 0.46165 0.52524 0.89177 0.0
C136 C 0.4308 0.56094 0.936 0.0
C137 C 0.40695 0.54597 0.96018 0.0
C138 C 0.42388 0.61118 0.92725 0.0
C139 C 0.39313 0.64534 0.94197 0.0
C140 C 0.36915 0.63049 0.96611 0.0
C141 C 0.56596 0.42207 0.93159 0.0
C142 C 0.57624 0.37324 0.92099 0.0
C143 C 0.59228 0.43778 0.9551 0.0
C144 C 0.62823 0.40563 0.96754 0.0
C145 C 0.63952 0.35733 0.95653 0.0
C146 C 0.61289 0.3415 0.93314 0.0
C147 C 0.37668 0.58045 0.97514 0.0
H148 H 0.47637 0.41604 0.79261 0.0
H149 H 0.47809 0.41318 0.84153 0.0
H150 H 0.5067 0.57521 0.84503 0.0
H151 H 0.50791 0.57813 0.79613 0.0
H152 H 0.55239 0.43391 0.87774 0.0
H153 H 0.43528 0.55093 0.88153 0.0
H154 H 0.49802 0.48944 0.9545 0.0
H155 H 0.41099 0.5074 0.9674 0.0
H156 H 0.44234 0.62435 0.90899 0.0
H157 H 0.38739 0.6832 0.93406 0.0
H158 H 0.55615 0.35947 0.90318 0.0
H159 H 0.58602 0.47537 0.96367 0.0
H160 H 0.35912 0.56781 0.99372 0.0
H161 H 0.62108 0.30492 0.92378 0.0
H162 H 0.64738 0.41887 0.98573 0.0
C163 C 0.50659 0.55206 0.22317 0.0
C164 C 0.50242 0.50554 0.23657 0.0
C165 C 0.50701 0.5532 0.19516 0.0
C166 C 0.50442 0.50768 0.17995 0.0
C167 C 0.50089 0.46103 0.19359 0.0
C168 C 0.49935 0.46005 0.22161 0.0
C169 C 0.50477 0.50911 0.15005 0.0
C170 C 0.53421 0.54623 0.1365 0.0
C171 C 0.53277 0.54968 0.10836 0.0
C172 C 0.50258 0.51438 0.09364 0.0
C173 C 0.47454 0.47596 0.10674 0.0
C174 C 0.47522 0.47388 0.13487 0.0
C175 C 0.4445 0.43771 0.09109 0.0
C176 C 0.40894 0.45292 0.07119 0.0
C177 C 0.45073 0.38562 0.09636 0.0
C178 C 0.42111 0.34933 0.08237 0.0
C179 C 0.3843 0.36457 0.0631 0.0
C180 C 0.5634 0.58981 0.0945 0.0
C181 C 0.56756 0.63898 0.10584 0.0
C182 C 0.58983 0.57905 0.07026 0.0
C183 C 0.62081 0.61624 0.05807 0.0
C184 C 0.62641 0.66455 0.07007 0.0
C185 C 0.59906 0.67583 0.09384 0.0
C186 C 0.37874 0.41661 0.05744 0.0
H187 H 0.50849 0.58763 0.23439 0.0
H188 H 0.50854 0.58993 0.1855 0.0
H189 H 0.49984 0.42514 0.18268 0.0
H190 H 0.49651 0.42371 0.23165 0.0
H191 H 0.55921 0.57202 0.14785 0.0
H192 H 0.45155 0.44539 0.14485 0.0
H193 H 0.50107 0.51648 0.07194 0.0
H194 H 0.40346 0.49292 0.06683 0.0
H195 H 0.47831 0.37302 0.11145 0.0
H196 H 0.42568 0.30945 0.08728 0.0
H197 H 0.54675 0.64895 0.12412 0.0
H198 H 0.58799 0.54144 0.06114 0.0
H199 H 0.35058 0.42917 0.04262 0.0
H200 H 0.60244 0.71311 0.10327 0.0
H201 H 0.64198 0.60666 0.03983 0.0
C202 C 0.19512 0.13226 0.04515 0.0
C203 C 0.16844 0.1279 0.02063 0.0
C204 C 0.23274 0.17054 0.04937 0.0
C205 C 0.24464 0.20465 0.02839 0.0
C206 C 0.21964 0.19901 0.00318 0.0
C207 C 0.18136 0.16096 -0.00033 0.0
C208 C 0.25814 0.17578 0.07667 0.0
C209 C 0.2323 0.23399 0.98018 0.0
C210 C 0.2945 0.33341 0.05193 0.0
C211 C 0.34898 0.32635 0.05068 0.0
C212 C 0.25997 0.29468 0.0437 0.0
C213 C 0.28059 0.24816 0.03364 0.0
C214 C 0.33559 0.24196 0.03089 0.0
C215 C 0.36925 0.28106 0.03973 0.0
C216 C 0.20156 0.30248 0.04723 0.0
C217 C 0.3589 0.19331 0.0197 0.0
H218 H 0.18521 0.10694 0.06145 0.0
H219 H 0.1612 0.15739 0.98058 0.0
H220 H 0.30156 0.17486 0.07471 0.0
H221 H 0.24754 0.21311 0.08583 0.0
H222 H 0.24582 0.1451 0.09054 0.0
H223 H 0.21339 0.22134 0.96115 0.0
H224 H 0.21862 0.27314 0.98504 0.0
H225 H 0.27543 0.23602 0.97703 0.0
H226 H 0.2789 0.36829 0.06065 0.0
H227 H 0.41147 0.27589 0.03859 0.0
H228 H 0.18637 0.27568 0.0625 0.0
H229 H 0.1806 0.29405 0.02819 0.0
H230 H 0.19184 0.34198 0.05376 0.0
H231 H 0.35285 0.162 0.03417 0.0
H232 H 0.40171 0.19703 0.01575 0.0
H233 H 0.33888 0.18207 0.00076 0.0
C234 C 0.17397 0.83881 0.03309 0.0
C235 C 0.14131 0.85156 0.01154 0.0
C236 C 0.21181 0.80017 0.03034 0.0
C237 C 0.21789 0.77504 0.00525 0.0
C238 C 0.18455 0.78747 0.98357 0.0
C239 C 0.14628 0.82512 0.98709 0.0
C240 C 0.24568 0.78674 0.05408 0.0
C241 C 0.19038 0.76217 0.95632 0.0
C242 C 0.34644 0.71886 0.98162 0.0
C243 C 0.33434 0.66665 0.98082 0.0
C244 C 0.30995 0.75461 0.99115 0.0
C245 C 0.2607 0.73761 0.00079 0.0
C246 C 0.25013 0.68477 0.0024 0.0
C247 C 0.28686 0.64986 0.99209 0.0
C248 C 0.32258 0.81069 0.98888 0.0
C249 C 0.19858 0.66518 0.01326 0.0
H250 H 0.16984 0.85892 0.0521 0.0
H251 H 0.12133 0.83508 0.97032 0.0
H252 H 0.24504 0.74495 0.0573 0.0
H253 H 0.28705 0.7977 0.05008 0.0
H254 H 0.23259 0.80627 0.07281 0.0
H255 H 0.16117 0.77623 0.9416 0.0
H256 H 0.23038 0.76937 0.94829 0.0
H257 H 0.18563 0.72031 0.95808 0.0
H258 H 0.38373 0.73205 0.97374 0.0
H259 H 0.27697 0.60967 0.99159 0.0
H260 H 0.31395 0.83097 0.00801 0.0
H261 H 0.29744 0.82774 0.97316 0.0
H262 H 0.36439 0.81747 0.98351 0.0
H263 H 0.18721 0.6864 0.03175 0.0
H264 H 0.20039 0.62386 0.01783 0.0
H265 H 0.16717 0.67108 0.99819 0.0
C266 C 0.8613 0.82908 0.01088 0.0
C267 C 0.85351 0.88114 0.01608 0.0
C268 C 0.82191 0.79339 0.01665 0.0
C269 C 0.77342 0.81043 0.02738 0.0
C270 C 0.76407 0.86323 0.03087 0.0
C271 C 0.80448 0.89798 0.02543 0.0
C272 C 0.83355 0.73731 0.01299 0.0
C273 C 0.71242 0.88287 0.04174 0.0
C274 C 0.66043 0.71605 0.03182 0.0
C275 C 0.66331 0.70214 0.05884 0.0
C276 C 0.6957 0.75181 0.02121 0.0
C277 C 0.73516 0.77301 0.03798 0.0
C278 C 0.73842 0.75853 0.06522 0.0
C279 C 0.70213 0.72356 0.07536 0.0
C280 C 0.69058 0.76717 0.99223 0.0
C281 C 0.78048 0.77971 0.08363 0.0
H282 H 0.89917 0.81589 0.00367 0.0
H283 H 0.79809 0.9383 0.02913 0.0
H284 H 0.83667 0.71922 0.03296 0.0
H285 H 0.80111 0.71798 0.00204 0.0
H286 H 0.87084 0.73061 0.0019 0.0
H287 H 0.70887 0.92487 0.03979 0.0
H288 H 0.679 0.86443 0.03111 0.0
H289 H 0.70897 0.8732 0.06329 0.0
H290 H 0.63013 0.69949 0.01915 0.0
H291 H 0.70461 0.71218 0.09618 0.0
H292 H 0.72738 0.75823 0.98121 0.0
H293 H 0.68454 0.80896 0.991 0.0
H294 H 0.65734 0.74755 0.98199 0.0
H295 H 0.81995 0.77149 0.07516 0.0
H296 H 0.77827 0.76347 0.10411 0.0
H297 H 0.77667 0.82173 0.08531 0.0
C298 C 0.84985 0.1695 0.02459 0.0
C299 C 0.88584 0.15579 0.00446 0.0
C300 C 0.81052 0.20565 0.01973 0.0
C301 C 0.80646 0.2274 0.99395 0.0
C302 C 0.84357 0.21468 0.9738 0.0
C303 C 0.88322 0.17945 0.97942 0.0
C304 C 0.77248 0.21947 0.04191 0.0
C305 C 0.83997 0.23644 0.94591 0.0
C306 C 0.67416 0.27106 0.96843 0.0
C307 C 0.68028 0.32423 0.96868 0.0
C308 C 0.71449 0.23911 0.97727 0.0
C309 C 0.76155 0.26088 0.9873 0.0
C310 C 0.76694 0.31447 0.98905 0.0
C311 C 0.72652 0.34553 0.97939 0.0
C312 C 0.70754 0.18204 0.97483 0.0
C313 C 0.81616 0.33898 0.00019 0.0
H314 H 0.85209 0.15157 0.04406 0.0
H315 H 0.91077 0.16874 0.96374 0.0
H316 H 0.76942 0.26151 0.04404 0.0
H317 H 0.73274 0.20484 0.03683 0.0
H318 H 0.78439 0.2034 0.06152 0.0
H319 H 0.87296 0.22388 0.93282 0.0
H320 H 0.80245 0.22434 0.93643 0.0
H321 H 0.83993 0.27869 0.9469 0.0
H322 H 0.6381 0.25423 0.96087 0.0
H323 H 0.73205 0.38648 0.97944 0.0
H324 H 0.71387 0.16389 0.99455 0.0
H325 H 0.73736 0.16621 0.96077 0.0
H326 H 0.66787 0.17123 0.96737 0.0
H327 H 0.82698 0.3215 0.01959 0.0
H328 H 0.81149 0.38073 0.00331 0.0
H329 H 0.84934 0.33247 0.98612 0.0
C330 C 0.68918 0.61959 0.52595 0.0
C331 C 0.6394 0.63389 0.51669 0.0
C332 C 0.72813 0.65617 0.5311 0.0
C333 C 0.71667 0.70835 0.52731 0.0
C334 C 0.66738 0.72287 0.51674 0.0
C335 C 0.62935 0.68533 0.51135 0.0
C336 C 0.78061 0.63913 0.54191 0.0
C337 C 0.65364 0.77821 0.51267 0.0
C338 C 0.78999 0.79642 0.57478 0.0
C339 C 0.82999 0.8151 0.55827 0.0
C340 C 0.75172 0.76311 0.5646 0.0
C341 C 0.75407 0.74758 0.53733 0.0
C342 C 0.79375 0.76726 0.52037 0.0
C343 C 0.83118 0.80125 0.53104 0.0
C344 C 0.70952 0.74357 0.58323 0.0
C345 C 0.79774 0.75105 0.49128 0.0
H346 H 0.69738 0.57977 0.52976 0.0
H347 H 0.5909 0.69657 0.50419 0.0
H348 H 0.81318 0.65718 0.53062 0.0
H349 H 0.7844 0.65137 0.56321 0.0
H350 H 0.78537 0.59707 0.54079 0.0
H351 H 0.61628 0.78278 0.50143 0.0
H352 H 0.64949 0.79747 0.5325 0.0
H353 H 0.68549 0.79801 0.50168 0.0
H354 H 0.7888 0.80782 0.59576 0.0
H355 H 0.86233 0.81573 0.51835 0.0
H356 H 0.71391 0.70182 0.58572 0.0
H357 H 0.67007 0.75033 0.57452 0.0
H358 H 0.71125 0.76204 0.60339 0.0
H359 H 0.80735 0.70986 0.49 0.0
H360 H 0.82845 0.77271 0.48034 0.0
H361 H 0.75951 0.75639 0.48102 0.0
C362 C 0.6295 0.32939 0.48334 0.0
C363 C 0.62398 0.35475 0.50807 0.0
C364 C 0.66714 0.29118 0.47974 0.0
C365 C 0.6993 0.27714 0.5016 0.0
C366 C 0.69323 0.30177 0.52683 0.0
C367 C 0.65596 0.3409 0.52969 0.0
C368 C 0.67308 0.26649 0.45235 0.0
C369 C 0.72604 0.28679 0.55069 0.0
C370 C 0.76131 0.14858 0.48868 0.0
C371 C 0.80997 0.16283 0.47776 0.0
C372 C 0.72639 0.18538 0.49877 0.0
C373 C 0.74008 0.23758 0.49737 0.0
C374 C 0.79047 0.25194 0.48808 0.0
C375 C 0.82504 0.2143 0.47869 0.0
C376 C 0.67342 0.16857 0.50915 0.0
C377 C 0.8064 0.30727 0.48606 0.0
H378 H 0.60516 0.34029 0.46651 0.0
H379 H 0.65144 0.36026 0.54889 0.0
H380 H 0.71379 0.27195 0.44489 0.0
H381 H 0.66606 0.22486 0.45369 0.0
H382 H 0.64539 0.2824 0.4374 0.0
H383 H 0.71488 0.30816 0.5692 0.0
H384 H 0.72162 0.24538 0.55443 0.0
H385 H 0.76821 0.29392 0.54649 0.0
H386 H 0.74916 0.10898 0.48804 0.0
H387 H 0.86323 0.22548 0.47107 0.0
H388 H 0.64284 0.1768 0.49395 0.0
H389 H 0.66295 0.1899 0.52774 0.0
H390 H 0.67246 0.12709 0.51339 0.0
H391 H 0.78329 0.32559 0.46994 0.0
H392 H 0.84884 0.31177 0.48136 0.0
H393 H 0.79773 0.32804 0.50504 0.0
C394 C 0.31742 0.35813 0.54159 0.0
C395 C 0.34428 0.36374 0.51723 0.0
C396 C 0.28333 0.31701 0.54566 0.0
C397 C 0.27505 0.28115 0.52465 0.0
C398 C 0.30049 0.28754 0.49964 0.0
C399 C 0.33536 0.32855 0.49631 0.0
C400 C 0.25744 0.31112 0.57277 0.0
C401 C 0.29157 0.25064 0.47663 0.0
C402 C 0.23037 0.15234 0.54933 0.0
C403 C 0.1757 0.15769 0.5482 0.0
C404 C 0.26352 0.19132 0.54031 0.0
C405 C 0.24122 0.2361 0.52955 0.0
C406 C 0.18605 0.23995 0.52661 0.0
C407 C 0.15383 0.20084 0.53629 0.0
C408 C 0.32213 0.1861 0.54412 0.0
C409 C 0.16093 0.28659 0.51467 0.0
H410 H 0.32438 0.38499 0.5579 0.0
H411 H 0.3558 0.33293 0.47737 0.0
H412 H 0.21409 0.31012 0.57051 0.0
H413 H 0.26947 0.27445 0.58179 0.0
H414 H 0.26786 0.34255 0.58692 0.0
H415 H 0.31104 0.26326 0.45787 0.0
H416 H 0.30707 0.21256 0.48191 0.0
H417 H 0.24886 0.24611 0.47278 0.0
H418 H 0.24711 0.11902 0.55873 0.0
H419 H 0.11144 0.20458 0.53526 0.0
H420 H 0.33554 0.21359 0.55977 0.0
H421 H 0.34329 0.19535 0.52533 0.0
H422 H 0.33342 0.14709 0.55036 0.0
H423 H 0.16428 0.31907 0.52901 0.0
H424 H 0.11865 0.28038 0.5101 0.0
H425 H 0.18151 0.29764 0.49596 0.0
C426 C 0.34196 0.66669 0.48454 0.0
C427 C 0.34679 0.64075 0.50885 0.0
C428 C 0.30053 0.70058 0.48025 0.0
C429 C 0.26365 0.70969 0.50103 0.0
C430 C 0.26916 0.68491 0.52596 0.0
C431 C 0.3104 0.6501 0.52948 0.0
C432 C 0.2955 0.72561 0.45319 0.0
C433 C 0.23129 0.69484 0.54876 0.0
C434 C 0.18588 0.82982 0.48893 0.0
C435 C 0.1406 0.81016 0.47644 0.0
C436 C 0.22463 0.79731 0.49902 0.0
C437 C 0.21855 0.74397 0.49594 0.0
C438 C 0.17177 0.72381 0.48471 0.0
C439 C 0.13307 0.75716 0.47542 0.0
C440 C 0.27349 0.82018 0.51146 0.0
C441 C 0.16406 0.6671 0.48084 0.0
H442 H 0.36973 0.6593 0.46845 0.0
H443 H 0.31427 0.63033 0.54837 0.0
H444 H 0.25721 0.71528 0.44395 0.0
H445 H 0.29634 0.76768 0.4556 0.0
H446 H 0.32743 0.71418 0.43916 0.0
H447 H 0.24316 0.67522 0.56744 0.0
H448 H 0.22863 0.73638 0.55296 0.0
H449 H 0.19138 0.68158 0.54304 0.0
H450 H 0.19243 0.87062 0.48973 0.0
H451 H 0.09756 0.74159 0.46654 0.0
H452 H 0.30681 0.81643 0.49719 0.0
H453 H 0.28435 0.79959 0.52997 0.0
H454 H 0.26835 0.86123 0.51648 0.0
H455 H 0.1923 0.65271 0.46556 0.0
H456 H 0.12362 0.65743 0.47407 0.0
H457 H 0.17214 0.64669 0.49975 0.0
C458 C 0.04212 0.98023 0.13291 0.0
C459 C 0.00188 0.00281 0.11794 0.0
C460 C 0.03913 0.97772 0.16099 0.0
C461 C -0.00482 -0.00107 0.17446 0.0
C462 C 0.9547 0.02228 0.15952 0.0
C463 C 0.95835 0.02364 0.13143 0.0
C464 C 0.08276 0.95196 0.17622 0.0
C465 C 0.90757 0.04593 0.17323 0.0
C466 C 0.96254 0.95328 0.24463 0.0
C467 C 0.9849 0.99179 0.26076 0.0
C468 C 0.96587 0.95497 0.21654 0.0
C469 C -0.0085 -0.00346 0.20421 0.0
C470 C 0.01381 0.03574 0.2203 0.0
C471 C 0.01061 0.03269 0.24835 0.0
C472 C 0.94198 0.91222 0.20004 0.0
C473 C 0.04111 0.0809 0.20787 0.0
H474 H 0.07575 0.96378 0.12265 0.0
H475 H 0.92721 0.0414 0.12003 0.0
H476 H 0.10072 0.97918 0.19074 0.0
H477 H 0.06658 0.9198 0.18794 0.0
H478 H 0.11409 0.93709 0.16272 0.0
H479 H 0.87995 0.06341 0.15874 0.0
H480 H 0.88606 0.01659 0.18477 0.0
H481 H 0.92062 0.07572 0.18774 0.0
H482 H 0.94185 0.92196 0.25395 0.0
H483 H 0.02883 0.0622 0.26057 0.0
H484 H 0.97243 0.89459 0.18699 0.0
H485 H 0.91103 0.92749 0.18669 0.0
H486 H 0.92434 0.8821 0.21272 0.0
H487 H 0.07525 0.06777 0.1958 0.0
H488 H 0.05517 0.10883 0.22317 0.0
H489 H 0.01392 0.10059 0.19402 0.0
C490 C 0.00533 0.04052 0.89479 0.0
C491 C 0.01849 -0.0029 0.90947 0.0
C492 C 0.00544 0.03944 0.86664 0.0
C493 C 0.02044 -0.00576 0.85289 0.0
C494 C 0.03463 0.95052 0.86763 0.0
C495 C 0.03278 0.95227 0.89578 0.0
C496 C 0.98884 0.08642 0.85161 0.0
C497 C 0.05204 0.90204 0.85367 0.0
C498 C 0.97657 0.97376 0.78078 0.0
C499 C 0.02089 0.99007 0.76655 0.0
C500 C 0.9757 0.9754 0.80892 0.0
C501 C 0.02074 0.99257 0.82307 0.0
C502 C 0.0659 0.00843 0.80872 0.0
C503 C 0.06516 0.0076 0.78056 0.0
C504 C 0.92642 0.9593 0.8235 0.0
C505 C 0.11505 0.02587 0.82311 0.0
H506 H -0.00614 0.07512 0.90534 0.0
H507 H 0.0434 0.91877 0.9071 0.0
H508 H 0.02141 0.09971 0.83861 0.0
H509 H 0.95511 0.07716 0.8383 0.0
H510 H 0.97729 0.11816 0.86531 0.0
H511 H 0.06361 0.87205 0.86808 0.0
H512 H 0.01985 0.88695 0.84085 0.0
H513 H 0.08594 0.91005 0.84032 0.0
H514 H 0.94227 0.96056 0.76981 0.0
H515 H 0.0995 0.01984 0.76943 0.0
H516 H 0.9122 0.99102 0.83649 0.0
H517 H 0.93504 0.92667 0.83675 0.0
H518 H 0.8944 0.94801 0.80948 0.0
H519 H 0.1064 0.05997 0.83569 0.0
H520 H 0.14732 0.03544 0.80899 0.0
H521 H 0.12891 -0.00443 0.83676 0.0
C522 C 0.53548 0.52118 0.63139 0.0
C523 C 0.49121 0.50382 0.61725 0.0
C524 C 0.53618 0.52167 0.65957 0.0
C525 C 0.49209 0.50313 0.67385 0.0
C526 C 0.44746 0.48518 0.65964 0.0
C527 C 0.44731 0.48635 0.6315 0.0
C528 C 0.58398 0.54222 0.67405 0.0
C529 C 0.40017 0.46406 0.67415 0.0
C530 C 0.51359 0.45848 0.74521 0.0
C531 C 0.49248 0.49901 0.76036 0.0
C532 C 0.5134 0.45919 0.71706 0.0
C533 C 0.49276 0.502 0.70366 0.0
C534 C 0.47217 0.5434 0.71873 0.0
C535 C 0.4717 0.54115 0.74686 0.0
C536 C 0.53502 0.41397 0.70165 0.0
C537 C 0.45049 0.59004 0.70514 0.0
H538 H 0.56933 0.53507 0.62042 0.0
H539 H 0.41318 0.47249 0.62062 0.0
H540 H 0.57233 0.57359 0.68792 0.0
H541 H 0.60181 0.51189 0.68639 0.0
H542 H 0.61427 0.55679 0.65999 0.0
H543 H 0.36892 0.45097 0.66011 0.0
H544 H 0.41217 0.43144 0.68674 0.0
H545 H 0.38342 0.4935 0.68779 0.0
H546 H 0.53072 0.42618 0.75533 0.0
H547 H 0.45444 0.57231 0.75824 0.0
H548 H 0.56862 0.42606 0.68902 0.0
H549 H 0.50448 0.39829 0.68797 0.0
H550 H 0.54846 0.3831 0.71509 0.0
H551 H 0.48053 0.60641 0.69155 0.0
H552 H 0.43814 0.61996 0.71977 0.0
H553 H 0.41609 0.57933 0.69262 0.0
C554 C 0.51178 0.46139 0.39472 0.0
C555 C 0.49225 0.50367 0.40895 0.0
C556 C 0.51435 0.46136 0.3666 0.0
C557 C 0.49556 0.50408 0.35241 0.0
C558 C 0.47512 0.5466 0.36669 0.0
C559 C 0.47439 0.54617 0.39485 0.0
C560 C 0.53762 0.41586 0.35209 0.0
C561 C 0.45357 0.59231 0.35221 0.0
C562 C 0.54213 0.52611 0.28108 0.0
C563 C 0.50093 0.50463 0.26616 0.0
C564 C 0.54122 0.52561 0.30922 0.0
C565 C 0.4974 0.50427 0.32262 0.0
C566 C 0.45542 0.483 0.30755 0.0
C567 C 0.45802 0.48287 0.27942 0.0
C568 C 0.58726 0.54755 0.32461 0.0
C569 C 0.40755 0.46092 0.32112 0.0
H570 H 0.52604 0.42865 0.40561 0.0
H571 H 0.45889 0.57874 0.40583 0.0
H572 H 0.50787 0.39836 0.33858 0.0
H573 H 0.57103 0.4282 0.33937 0.0
H574 H 0.5518 0.38632 0.36614 0.0
H575 H 0.43768 0.62162 0.36627 0.0
H576 H 0.48488 0.61002 0.33991 0.0
H577 H 0.42178 0.58015 0.3383 0.0
H578 H 0.57539 0.54265 0.27067 0.0
H579 H 0.42605 0.46665 0.26773 0.0
H580 H 0.60388 0.51823 0.33804 0.0
H581 H 0.57403 0.57978 0.3375 0.0
H582 H 0.61892 0.56137 0.31113 0.0
H583 H 0.41917 0.4287 0.33405 0.0
H584 H 0.37775 0.44706 0.30647 0.0
H585 H 0.38913 0.49019 0.33432 0.0
loop_
_geom_bond_atom_site_label_1
_geom_bond_atom_site_label_2
_geom_bond_distance
_geom_bond_site_symmetry_2
_ccdc_geom_bond_type
O0 Zn1 1.953 . S
O0 C16 1.225 1_565 S
Zn1 O0 1.953 . S
Zn1 O2 1.949 1_565 S
Zn1 O8 1.919 . S
Zn1 O13 1.924 1_565 S
O2 Zn1 1.949 1_545 S
O2 Zn3 1.923 1_444 S
O2 Zn4 1.950 1_455 S
O2 Zn5 1.945 1_554 S
Zn3 O2 1.923 1_666 S
Zn3 O6 1.933 . S
Zn3 O9 1.941 1_655 S
Zn3 O10 1.957 1_556 S
Zn4 O2 1.950 1_655 S
Zn4 O11 1.938 1_545 S
Zn4 O12 1.906 . S
Zn4 O22 1.953 . S
Zn5 O2 1.945 1_556 S
Zn5 O7 1.932 . S
Zn5 O14 1.977 1_455 S
Zn5 O15 1.910 1_556 S
O6 Zn3 1.933 . S
O6 C17 1.226 1_665 S
O7 Zn5 1.932 . S
O7 C17 1.307 . S
O8 Zn1 1.919 . S
O8 C19 1.253 . S
O9 Zn3 1.941 1_455 S
O9 C19 1.283 1_556 S
O10 Zn3 1.957 1_554 S
O10 C18 1.335 . S
O11 Zn4 1.938 1_565 S
O11 C18 1.247 . S
O12 Zn4 1.906 . S
O12 C20 1.304 . S
O13 Zn1 1.924 1_545 S
O13 C21 1.311 . S
O14 Zn5 1.977 1_655 S
O14 C20 1.272 1_556 S
O15 Zn5 1.910 1_554 S
O15 C21 1.231 . S
C16 O0 1.225 1_545 S
C16 O22 1.298 1_455 S
C17 O6 1.226 1_445 S
C17 O7 1.307 . S
C18 O10 1.335 . S
C18 O11 1.247 . S
C19 O8 1.253 . S
C19 O9 1.283 1_554 S
C20 O12 1.304 . S
C20 O14 1.272 1_554 S
C21 O13 1.311 . S
C21 O15 1.231 . S
O22 Zn4 1.953 . S
O22 C16 1.298 1_655 S
O23 Zn24 1.953 . S
O23 C39 1.225 . S
Zn24 O23 1.953 . S
Zn24 O25 1.949 . S
Zn24 O31 1.919 . S
Zn24 O36 1.924 . S
O25 Zn24 1.949 . S
O25 Zn26 1.923 . S
O25 Zn27 1.950 . S
O25 Zn28 1.945 . S
Zn26 O25 1.923 . S
Zn26 O29 1.933 . S
Zn26 O32 1.941 . S
Zn26 O33 1.965 . S
Zn27 O25 1.950 . S
Zn27 O34 1.938 . S
Zn27 O35 1.906 . S
Zn27 O45 1.953 . S
Zn28 O25 1.945 . S
Zn28 O30 1.932 . S
Zn28 O37 1.977 . S
Zn28 O38 1.910 . S
O29 Zn26 1.933 . S
O29 C40 1.226 . S
O30 Zn28 1.932 . S
O30 C40 1.307 . S
O31 Zn24 1.919 . S
O31 C42 1.253 . S
O32 Zn26 1.941 . S
O32 C42 1.283 . S
O33 Zn26 1.965 . S
O33 C41 1.303 . S
O34 Zn27 1.938 . S
O34 C41 1.247 . S
O35 Zn27 1.906 . S
O35 C43 1.304 . S
O36 Zn24 1.924 . S
O36 C44 1.311 . S
O37 Zn28 1.977 . S
O37 C43 1.272 . S
O38 Zn28 1.910 . S
O38 C44 1.231 . S
C39 O23 1.225 . S
C39 O45 1.298 . S
C40 O29 1.226 . S
C40 O30 1.307 . S
C41 O33 1.303 . S
C41 O34 1.247 . S
C42 O31 1.253 . S
C42 O32 1.283 . S
C43 O35 1.304 . S
C43 O37 1.272 . S
C44 O36 1.311 . S
C44 O38 1.231 . S
O45 Zn27 1.953 . S
O45 C39 1.298 . S
C46 C47 1.391 1_455 S
C46 C48 1.397 . S
C46 H70 0.931 . S
C47 C46 1.391 1_655 S
C47 C51 1.392 1_665 S
C48 C46 1.397 . S
C48 C49 1.384 . S
C48 H71 0.930 . S
C49 C48 1.384 . S
C49 C50 1.377 1_565 S
C49 C52 1.481 . S
C50 C49 1.377 1_545 S
C50 C51 1.389 . S
C50 H72 0.929 . S
C51 C47 1.392 1_445 S
C51 C50 1.389 . S
C51 H73 0.931 . S
C52 C49 1.481 . S
C52 C53 1.394 . S
C52 C57 1.383 1_465 S
C53 C52 1.394 . S
C53 C54 1.401 . S
C53 H74 0.930 . S
C54 C53 1.401 . S
C54 C55 1.366 1_455 S
C54 C63 1.511 . S
C55 C54 1.366 1_655 S
C55 C56 1.402 1_565 S
C55 H76 0.932 . S
C56 C55 1.402 1_545 S
C56 C57 1.361 . S
C56 C58 1.500 . S
C57 C52 1.383 1_645 S
C57 C56 1.361 . S
C57 H75 0.931 . S
C58 C56 1.500 . S
C58 C59 1.371 . S
C58 C60 1.365 . S
C59 C58 1.371 . S
C59 C69 1.386 . S
C59 H77 0.931 . S
C60 C58 1.365 . S
C60 C61 1.409 . S
C60 H78 0.929 . S
C61 C60 1.409 . S
C61 C62 1.380 . S
C61 H79 0.930 . S
C62 C61 1.380 . S
C62 C69 1.357 . S
C63 C54 1.511 . S
C63 C64 1.341 . S
C63 C65 1.371 . S
C64 C63 1.341 . S
C64 C68 1.394 . S
C64 H80 0.930 . S
C65 C63 1.371 . S
C65 C66 1.392 . S
C65 H81 0.931 . S
C66 C65 1.392 . S
C66 C67 1.331 . S
C66 H84 0.932 . S
C67 C66 1.331 . S
C67 C68 1.336 . S
C68 C64 1.394 . S
C68 C67 1.336 . S
C68 H83 0.929 . S
C69 C59 1.386 . S
C69 C62 1.357 . S
C69 H82 0.928 . S
H70 C46 0.931 . S
H71 C48 0.930 . S
H72 C50 0.929 . S
H73 C51 0.931 . S
H74 C53 0.930 . S
H75 C57 0.931 . S
H76 C55 0.932 . S
H77 C59 0.931 . S
H78 C60 0.929 . S
H79 C61 0.930 . S
H80 C64 0.930 . S
H81 C65 0.931 . S
H82 C69 0.928 . S
H83 C68 0.929 . S
H84 C66 0.932 . S
C85 C86 1.386 . S
C85 C87 1.397 . S
C85 H109 0.931 . S
C86 C85 1.386 . S
C86 C90 1.397 1_545 S
C87 C85 1.397 . S
C87 C88 1.384 . S
C87 H110 0.930 . S
C88 C87 1.384 . S
C88 C89 1.377 1_545 S
C88 C91 1.481 . S
C89 C88 1.377 1_565 S
C89 C90 1.389 . S
C89 H111 0.929 . S
C90 C86 1.397 1_565 S
C90 C89 1.389 . S
C90 H112 0.931 . S
C91 C88 1.481 . S
C91 C92 1.387 . S
C91 C96 1.390 1_445 S
C92 C91 1.387 . S
C92 C93 1.401 . S
C92 H113 0.930 . S
C93 C92 1.401 . S
C93 C94 1.376 . S
C93 C102 1.511 . S
C94 C93 1.376 . S
C94 C95 1.392 1_445 S
C94 H115 0.931 . S
C95 C94 1.392 1_665 S
C95 C96 1.361 . S
C95 C97 1.500 . S
C96 C91 1.390 1_665 S
C96 C95 1.361 . S
C96 H114 0.931 . S
C97 C95 1.500 . S
C97 C98 1.371 . S
C97 C99 1.365 . S
C98 C97 1.371 . S
C98 C108 1.386 . S
C98 H116 0.931 . S
C99 C97 1.365 . S
C99 C100 1.409 . S
C99 H117 0.929 . S
C100 C99 1.409 . S
C100 C101 1.380 . S
C100 H118 0.930 . S
C101 C100 1.380 . S
C101 C108 1.357 . S
C102 C93 1.511 . S
C102 C103 1.341 . S
C102 C104 1.371 . S
C103 C102 1.341 . S
C103 C107 1.394 . S
C103 H119 0.930 . S
C104 C102 1.371 . S
C104 C105 1.392 . S
C104 H120 0.931 . S
C105 C104 1.392 . S
C105 C106 1.331 . S
C105 H123 0.932 . S
C106 C105 1.331 . S
C106 C107 1.336 . S
C107 C103 1.394 . S
C107 C106 1.336 . S
C107 H122 0.929 . S
C108 C98 1.386 . S
C108 C101 1.357 . S
C108 H121 0.928 . S
H109 C85 0.931 . S
H110 C87 0.930 . S
H111 C89 0.929 . S
H112 C90 0.931 . S
H113 C92 0.930 . S
H114 C96 0.931 . S
H115 C94 0.931 . S
H116 C98 0.931 . S
H117 C99 0.929 . S
H118 C100 0.930 . S
H119 C103 0.930 . S
H120 C104 0.931 . S
H121 C108 0.928 . S
H122 C107 0.929 . S
H123 C105 0.932 . S
C124 C125 1.386 . S
C124 C126 1.397 . S
C124 H148 0.931 . S
C125 C124 1.386 . S
C125 C129 1.397 . S
C126 C124 1.397 . S
C126 C127 1.384 . S
C126 H149 0.930 . S
C127 C126 1.384 . S
C127 C128 1.377 . S
C127 C130 1.481 . S
C128 C127 1.377 . S
C128 C129 1.389 . S
C128 H150 0.929 . S
C129 C125 1.397 . S
C129 C128 1.389 . S
C129 H151 0.931 . S
C130 C127 1.481 . S
C130 C131 1.387 . S
C130 C135 1.390 . S
C131 C130 1.387 . S
C131 C132 1.401 . S
C131 H152 0.930 . S
C132 C131 1.401 . S
C132 C133 1.376 . S
C132 C141 1.511 . S
C133 C132 1.376 . S
C133 C134 1.392 . S
C133 H154 0.931 . S
C134 C133 1.392 . S
C134 C135 1.361 . S
C134 C136 1.500 . S
C135 C130 1.390 . S
C135 C134 1.361 . S
C135 H153 0.931 . S
C136 C134 1.500 . S
C136 C137 1.371 . S
C136 C138 1.365 . S
C137 C136 1.371 . S
C137 C147 1.386 . S
C137 H155 0.931 . S
C138 C136 1.365 . S
C138 C139 1.409 . S
C138 H156 0.929 . S
C139 C138 1.409 . S
C139 C140 1.380 . S
C139 H157 0.930 . S
C140 C139 1.380 . S
C140 C147 1.357 . S
C141 C132 1.511 . S
C141 C142 1.341 . S
C141 C143 1.371 . S
C142 C141 1.341 . S
C142 C146 1.394 . S
C142 H158 0.930 . S
C143 C141 1.371 . S
C143 C144 1.392 . S
C143 H159 0.931 . S
C144 C143 1.392 . S
C144 C145 1.331 . S
C144 H162 0.932 . S
C145 C144 1.331 . S
C145 C146 1.336 . S
C146 C142 1.394 . S
C146 C145 1.336 . S
C146 H161 0.929 . S
C147 C137 1.386 . S
C147 C140 1.357 . S
C147 H160 0.928 . S
H148 C124 0.931 . S
H149 C126 0.930 . S
H150 C128 0.929 . S
H151 C129 0.931 . S
H152 C131 0.930 . S
H153 C135 0.931 . S
H154 C133 0.931 . S
H155 C137 0.931 . S
H156 C138 0.929 . S
H157 C139 0.930 . S
H158 C142 0.930 . S
H159 C143 0.931 . S
H160 C147 0.928 . S
H161 C146 0.929 . S
H162 C144 0.932 . S
C163 C164 1.386 . S
C163 C165 1.397 . S
C163 H187 0.931 . S
C164 C163 1.386 . S
C164 C168 1.397 . S
C165 C163 1.397 . S
C165 C166 1.384 . S
C165 H188 0.930 . S
C166 C165 1.384 . S
C166 C167 1.377 . S
C166 C169 1.481 . S
C167 C166 1.377 . S
C167 C168 1.389 . S
C167 H189 0.929 . S
C168 C164 1.397 . S
C168 C167 1.389 . S
C168 H190 0.931 . S
C169 C166 1.481 . S
C169 C170 1.387 . S
C169 C174 1.390 . S
C170 C169 1.387 . S
C170 C171 1.401 . S
C170 H191 0.930 . S
C171 C170 1.401 . S
C171 C172 1.376 . S
C171 C180 1.511 . S
C172 C171 1.376 . S
C172 C173 1.392 . S
C172 H193 0.931 . S
C173 C172 1.392 . S
C173 C174 1.361 . S
C173 C175 1.500 . S
C174 C169 1.390 . S
C174 C173 1.361 . S
C174 H192 0.931 . S
C175 C173 1.500 . S
C175 C176 1.371 . S
C175 C177 1.365 . S
C176 C175 1.371 . S
C176 C186 1.386 . S
C176 H194 0.931 . S
C177 C175 1.365 . S
C177 C178 1.409 . S
C177 H195 0.929 . S
C178 C177 1.409 . S
C178 C179 1.380 . S
C178 H196 0.930 . S
C179 C178 1.380 . S
C179 C186 1.357 . S
C180 C171 1.511 . S
C180 C181 1.341 . S
C180 C182 1.371 . S
C181 C180 1.341 . S
C181 C185 1.394 . S
C181 H197 0.930 . S
C182 C180 1.371 . S
C182 C183 1.392 . S
C182 H198 0.931 . S
C183 C182 1.392 . S
C183 C184 1.331 . S
C183 H201 0.932 . S
C184 C183 1.331 . S
C184 C185 1.336 . S
C185 C181 1.394 . S
C185 C184 1.336 . S
C185 H200 0.929 . S
C186 C176 1.386 . S
C186 C179 1.357 . S
C186 H199 0.928 . S
H187 C163 0.931 . S
H188 C165 0.930 . S
H189 C167 0.929 . S
H190 C168 0.931 . S
H191 C170 0.930 . S
H192 C174 0.931 . S
H193 C172 0.931 . S
H194 C176 0.931 . S
H195 C177 0.929 . S
H196 C178 0.930 . S
H197 C181 0.930 . S
H198 C182 0.931 . S
H199 C186 0.928 . S
H200 C185 0.929 . S
H201 C183 0.932 . S
C202 C203 1.391 . S
C202 C204 1.394 . S
C202 H218 0.931 . S
C203 C202 1.391 . S
C203 C207 1.376 . S
C204 C202 1.394 . S
C204 C205 1.369 . S
C204 C208 1.531 . S
C205 C204 1.369 . S
C205 C206 1.410 . S
C205 C213 1.503 . S
C206 C205 1.410 . S
C206 C207 1.392 . S
C206 C209 1.511 . S
C207 C203 1.376 . S
C207 C206 1.392 . S
C207 H219 0.929 . S
C208 C204 1.531 . S
C208 H220 0.960 . S
C208 H221 0.962 . S
C208 H222 0.960 . S
C209 C206 1.511 . S
C209 H223 0.998 . S
C209 H224 0.961 . S
C209 H225 0.961 . S
C210 C211 1.370 . S
C210 C212 1.363 . S
C210 H226 0.931 . S
C211 C210 1.370 . S
C211 C215 1.408 . S
C212 C210 1.363 . S
C212 C213 1.370 . S
C212 C216 1.524 . S
C213 C205 1.503 . S
C213 C212 1.370 . S
C213 C214 1.403 . S
C214 C213 1.403 . S
C214 C215 1.404 . S
C214 C217 1.539 . S
C215 C211 1.408 . S
C215 C214 1.404 . S
C215 H227 0.930 . S
C216 C212 1.524 . S
C216 H228 0.956 . S
C216 H229 0.961 . S
C216 H230 0.961 . S
C217 C214 1.539 . S
C217 H231 0.958 . S
C217 H232 0.961 . S
C217 H233 0.960 . S
H218 C202 0.931 . S
H219 C207 0.929 . S
H220 C208 0.960 . S
H221 C208 0.962 . S
H222 C208 0.960 . S
H223 C209 0.998 . S
H224 C209 0.961 . S
H225 C209 0.961 . S
H226 C210 0.931 . S
H227 C215 0.930 . S
H228 C216 0.956 . S
H229 C216 0.961 . S
H230 C216 0.961 . S
H231 C217 0.958 . S
H232 C217 0.961 . S
H233 C217 0.960 . S
C234 C235 1.391 1_554 S
C234 C236 1.394 . S
C234 H250 0.931 . S
C235 C234 1.391 1_556 S
C235 C239 1.376 . S
C236 C234 1.394 . S
C236 C237 1.369 1_554 S
C236 C240 1.531 . S
C237 C236 1.369 1_556 S
C237 C238 1.410 . S
C237 C245 1.503 . S
C238 C237 1.410 . S
C238 C239 1.392 . S
C238 C241 1.511 . S
C239 C235 1.376 . S
C239 C238 1.392 . S
C239 H251 0.929 . S
C240 C236 1.531 . S
C240 H252 0.960 . S
C240 H253 0.962 . S
C240 H254 0.960 . S
C241 C238 1.511 . S
C241 H255 0.961 . S
C241 H256 0.961 . S
C241 H257 0.961 . S
C242 C243 1.370 . S
C242 C244 1.363 . S
C242 H258 0.931 . S
C243 C242 1.370 . S
C243 C247 1.408 . S
C244 C242 1.363 . S
C244 C245 1.370 . S
C244 C248 1.524 . S
C245 C237 1.503 . S
C245 C244 1.370 . S
C245 C246 1.403 . S
C246 C245 1.403 . S
C246 C247 1.404 . S
C246 C249 1.539 1_556 S
C247 C243 1.408 . S
C247 C246 1.404 . S
C247 H259 0.925 1_556 S
C248 C244 1.524 . S
C248 H260 0.956 . S
C248 H261 0.961 . S
C248 H262 0.961 . S
C249 C246 1.539 1_554 S
C249 H263 0.958 . S
C249 H264 0.961 . S
C249 H265 0.960 . S
H250 C234 0.931 . S
H251 C239 0.929 . S
H252 C240 0.960 . S
H253 C240 0.962 . S
H254 C240 0.960 . S
H255 C241 0.961 . S
H256 C241 0.961 . S
H257 C241 0.961 . S
H258 C242 0.931 . S
H259 C247 0.925 1_554 S
H260 C248 0.956 . S
H261 C248 0.961 . S
H262 C248 0.961 . S
H263 C249 0.958 . S
H264 C249 0.961 . S
H265 C249 0.960 . S
C266 C267 1.391 . S
C266 C268 1.394 . S
C266 H282 0.931 . S
C267 C266 1.391 . S
C267 C271 1.376 . S
C268 C266 1.394 . S
C268 C269 1.369 . S
C268 C272 1.531 . S
C269 C268 1.369 . S
C269 C270 1.410 . S
C269 C277 1.503 . S
C270 C269 1.410 . S
C270 C271 1.392 . S
C270 C273 1.511 . S
C271 C267 1.376 . S
C271 C270 1.392 . S
C271 H283 0.929 . S
C272 C268 1.531 . S
C272 H284 0.960 . S
C272 H285 0.962 . S
C272 H286 0.960 . S
C273 C270 1.511 . S
C273 H287 0.961 . S
C273 H288 0.961 . S
C273 H289 0.961 . S
C274 C275 1.370 . S
C274 C276 1.363 . S
C274 H290 0.931 . S
C275 C274 1.370 . S
C275 C279 1.408 . S
C276 C274 1.363 . S
C276 C277 1.370 . S
C276 C280 1.524 . S
C277 C269 1.503 . S
C277 C276 1.370 . S
C277 C278 1.403 . S
C278 C277 1.403 . S
C278 C279 1.404 . S
C278 C281 1.539 . S
C279 C275 1.408 . S
C279 C278 1.404 . S
C279 H291 0.930 . S
C280 C276 1.524 . S
C280 H292 0.959 . S
C280 H293 0.961 . S
C280 H294 0.961 1_554 S
C281 C278 1.539 . S
C281 H295 0.958 . S
C281 H296 0.961 . S
C281 H297 0.960 . S
H282 C266 0.931 . S
H283 C271 0.929 . S
H284 C272 0.960 . S
H285 C272 0.962 . S
H286 C272 0.960 . S
H287 C273 0.961 . S
H288 C273 0.961 . S
H289 C273 0.961 . S
H290 C274 0.931 . S
H291 C279 0.930 . S
H292 C280 0.959 . S
H293 C280 0.961 . S
H294 C280 0.961 1_556 S
H295 C281 0.958 . S
H296 C281 0.961 . S
H297 C281 0.960 . S
C298 C299 1.391 1_554 S
C298 C300 1.394 . S
C298 H314 0.931 . S
C299 C298 1.391 1_556 S
C299 C303 1.376 . S
C300 C298 1.394 . S
C300 C301 1.369 1_554 S
C300 C304 1.531 . S
C301 C300 1.369 1_556 S
C301 C302 1.410 . S
C301 C309 1.503 . S
C302 C301 1.410 . S
C302 C303 1.392 . S
C302 C305 1.511 . S
C303 C299 1.376 . S
C303 C302 1.392 . S
C303 H315 0.929 . S
C304 C300 1.531 . S
C304 H316 0.960 . S
C304 H317 0.962 . S
C304 H318 0.960 . S
C305 C302 1.511 . S
C305 H319 0.961 . S
C305 H320 0.961 . S
C305 H321 0.961 . S
C306 C307 1.370 . S
C306 C308 1.363 . S
C306 H322 0.931 . S
C307 C306 1.370 . S
C307 C311 1.408 . S
C308 C306 1.363 . S
C308 C309 1.370 . S
C308 C312 1.524 . S
C309 C301 1.503 . S
C309 C308 1.370 . S
C309 C310 1.403 . S
C310 C309 1.403 . S
C310 C311 1.404 . S
C310 C313 1.539 . S
C311 C307 1.408 . S
C311 C310 1.404 . S
C311 H323 0.930 . S
C312 C308 1.524 . S
C312 H324 0.956 1_556 S
C312 H325 0.961 . S
C312 H326 0.961 . S
C313 C310 1.539 . S
C313 H327 0.958 . S
C313 H328 0.961 . S
C313 H329 0.960 . S
H314 C298 0.931 . S
H315 C303 0.929 . S
H316 C304 0.960 . S
H317 C304 0.962 . S
H318 C304 0.960 . S
H319 C305 0.961 . S
H320 C305 0.961 . S
H321 C305 0.961 . S
H322 C306 0.931 . S
H323 C311 0.930 . S
H324 C312 0.956 1_554 S
H325 C312 0.961 . S
H326 C312 0.961 . S
H327 C313 0.958 . S
H328 C313 0.961 . S
H329 C313 0.960 . S
C330 C331 1.391 . S
C330 C332 1.394 . S
C330 H346 0.931 . S
C331 C330 1.391 . S
C331 C335 1.376 . S
C332 C330 1.394 . S
C332 C333 1.369 . S
C332 C336 1.531 . S
C333 C332 1.369 . S
C333 C334 1.410 . S
C333 C341 1.503 . S
C334 C333 1.410 . S
C334 C335 1.392 . S
C334 C337 1.511 . S
C335 C331 1.376 . S
C335 C334 1.392 . S
C335 H347 0.929 . S
C336 C332 1.531 . S
C336 H348 0.960 . S
C336 H349 0.962 . S
C336 H350 0.960 . S
C337 C334 1.511 . S
C337 H351 0.961 . S
C337 H352 0.961 . S
C337 H353 0.961 . S
C338 C339 1.370 . S
C338 C340 1.363 . S
C338 H354 0.931 . S
C339 C338 1.370 . S
C339 C343 1.408 . S
C340 C338 1.363 . S
C340 C341 1.370 . S
C340 C344 1.524 . S
C341 C333 1.503 . S
C341 C340 1.370 . S
C341 C342 1.403 . S
C342 C341 1.403 . S
C342 C343 1.404 . S
C342 C345 1.539 . S
C343 C339 1.408 . S
C343 C342 1.404 . S
C343 H355 0.930 . S
C344 C340 1.524 . S
C344 H356 0.956 . S
C344 H357 0.961 . S
C344 H358 0.961 . S
C345 C342 1.539 . S
C345 H359 0.958 . S
C345 H360 0.961 . S
C345 H361 0.960 . S
H346 C330 0.931 . S
H347 C335 0.929 . S
H348 C336 0.960 . S
H349 C336 0.962 . S
H350 C336 0.960 . S
H351 C337 0.961 . S
H352 C337 0.961 . S
H353 C337 0.961 . S
H354 C338 0.931 . S
H355 C343 0.930 . S
H356 C344 0.956 . S
H357 C344 0.961 . S
H358 C344 0.961 . S
H359 C345 0.958 . S
H360 C345 0.961 . S
H361 C345 0.960 . S
C362 C363 1.391 . S
C362 C364 1.394 . S
C362 H378 0.931 . S
C363 C362 1.391 . S
C363 C367 1.376 . S
C364 C362 1.394 . S
C364 C365 1.369 . S
C364 C368 1.531 . S
C365 C364 1.369 . S
C365 C366 1.410 . S
C365 C373 1.503 . S
C366 C365 1.410 . S
C366 C367 1.392 . S
C366 C369 1.511 . S
C367 C363 1.376 . S
C367 C366 1.392 . S
C367 H379 0.929 . S
C368 C364 1.531 . S
C368 H380 0.960 . S
C368 H381 0.962 . S
C368 H382 0.960 . S
C369 C366 1.511 . S
C369 H383 0.961 . S
C369 H384 0.961 . S
C369 H385 0.961 . S
C370 C371 1.370 . S
C370 C372 1.363 . S
C370 H386 0.931 . S
C371 C370 1.370 . S
C371 C375 1.408 . S
C372 C370 1.363 . S
C372 C373 1.370 . S
C372 C376 1.524 . S
C373 C365 1.503 . S
C373 C372 1.370 . S
C373 C374 1.403 . S
C374 C373 1.403 . S
C374 C375 1.404 . S
C374 C377 1.539 . S
C375 C371 1.408 . S
C375 C374 1.404 . S
C375 H387 0.930 . S
C376 C372 1.524 . S
C376 H388 0.956 . S
C376 H389 0.961 . S
C376 H390 0.961 . S
C377 C374 1.539 . S
C377 H391 0.958 . S
C377 H392 0.961 . S
C377 H393 0.960 . S
H378 C362 0.931 . S
H379 C367 0.929 . S
H380 C368 0.960 . S
H381 C368 0.962 . S
H382 C368 0.960 . S
H383 C369 0.961 . S
H384 C369 0.961 . S
H385 C369 0.961 . S
H386 C370 0.931 . S
H387 C375 0.930 . S
H388 C376 0.956 . S
H389 C376 0.961 . S
H390 C376 0.961 . S
H391 C377 0.958 . S
H392 C377 0.961 . S
H393 C377 0.960 . S
C394 C395 1.391 . S
C394 C396 1.394 . S
C394 H410 0.931 . S
C395 C394 1.391 . S
C395 C399 1.376 . S
C396 C394 1.394 . S
C396 C397 1.369 . S
C396 C400 1.531 . S
C397 C396 1.369 . S
C397 C398 1.410 . S
C397 C405 1.503 . S
C398 C397 1.410 . S
C398 C399 1.392 . S
C398 C401 1.511 . S
C399 C395 1.376 . S
C399 C398 1.392 . S
C399 H411 0.929 . S
C400 C396 1.531 . S
C400 H412 0.960 . S
C400 H413 0.962 . S
C400 H414 0.960 . S
C401 C398 1.511 . S
C401 H415 0.961 . S
C401 H416 0.961 . S
C401 H417 0.961 . S
C402 C403 1.370 . S
C402 C404 1.363 . S
C402 H418 0.931 . S
C403 C402 1.370 . S
C403 C407 1.408 . S
C404 C402 1.363 . S
C404 C405 1.370 . S
C404 C408 1.524 . S
C405 C397 1.503 . S
C405 C404 1.370 . S
C405 C406 1.403 . S
C406 C405 1.403 . S
C406 C407 1.404 . S
C406 C409 1.539 . S
C407 C403 1.408 . S
C407 C406 1.404 . S
C407 H419 0.930 . S
C408 C404 1.524 . S
C408 H420 0.956 . S
C408 H421 0.961 . S
C408 H422 0.961 . S
C409 C406 1.539 . S
C409 H423 0.958 . S
C409 H424 0.961 . S
C409 H425 0.960 . S
H410 C394 0.931 . S
H411 C399 0.929 . S
H412 C400 0.960 . S
H413 C400 0.962 . S
H414 C400 0.960 . S
H415 C401 0.961 . S
H416 C401 0.961 . S
H417 C401 0.961 . S
H418 C402 0.931 . S
H419 C407 0.930 . S
H420 C408 0.956 . S
H421 C408 0.961 . S
H422 C408 0.961 . S
H423 C409 0.958 . S
H424 C409 0.961 . S
H425 C409 0.960 . S
C426 C427 1.391 . S
C426 C428 1.394 . S
C426 H442 0.931 . S
C427 C426 1.391 . S
C427 C431 1.376 . S
C428 C426 1.394 . S
C428 C429 1.369 . S
C428 C432 1.531 . S
C429 C428 1.369 . S
C429 C430 1.410 . S
C429 C437 1.503 . S
C430 C429 1.410 . S
C430 C431 1.392 . S
C430 C433 1.511 . S
C431 C427 1.376 . S
C431 C430 1.392 . S
C431 H443 0.929 . S
C432 C428 1.531 . S
C432 H444 0.960 . S
C432 H445 0.962 . S
C432 H446 0.960 . S
C433 C430 1.511 . S
C433 H447 0.961 . S
C433 H448 0.961 . S
C433 H449 0.961 . S
C434 C435 1.370 . S
C434 C436 1.363 . S
C434 H450 0.931 . S
C435 C434 1.370 . S
C435 C439 1.408 . S
C436 C434 1.363 . S
C436 C437 1.370 . S
C436 C440 1.524 . S
C437 C429 1.503 . S
C437 C436 1.370 . S
C437 C438 1.403 . S
C438 C437 1.403 . S
C438 C439 1.404 . S
C438 C441 1.539 . S
C439 C435 1.408 . S
C439 C438 1.404 . S
C439 H451 0.930 . S
C440 C436 1.524 . S
C440 H452 0.956 . S
C440 H453 0.961 . S
C440 H454 0.961 . S
C441 C438 1.539 . S
C441 H455 0.958 . S
C441 H456 0.961 . S
C441 H457 0.960 . S
H442 C426 0.931 . S
H443 C431 0.929 . S
H444 C432 0.960 . S
H445 C432 0.962 . S
H446 C432 0.960 . S
H447 C433 0.961 . S
H448 C433 0.961 . S
H449 C433 0.961 . S
H450 C434 0.931 . S
H451 C439 0.930 . S
H452 C440 0.956 . S
H453 C440 0.961 . S
H454 C440 0.961 . S
H455 C441 0.958 . S
H456 C441 0.961 . S
H457 C441 0.960 . S
C458 C459 1.391 . S
C458 C460 1.394 . S
C458 H474 0.931 1_545 S
C459 C458 1.391 . S
C459 C463 1.376 1_455 S
C460 C458 1.394 . S
C460 C461 1.369 . S
C460 C464 1.531 1_545 S
C461 C460 1.369 . S
C461 C462 1.410 1_455 S
C461 C469 1.503 . S
C462 C461 1.410 1_655 S
C462 C463 1.392 . S
C462 C465 1.511 . S
C463 C459 1.376 1_655 S
C463 C462 1.392 . S
C463 H475 0.929 . S
C464 C460 1.531 1_565 S
C464 H476 0.960 1_565 S
C464 H477 0.962 . S
C464 H478 0.960 1_565 S
C465 C462 1.511 . S
C465 H479 0.961 . S
C465 H480 0.961 . S
C465 H481 0.961 . S
C466 C467 1.369 1_665 S
C466 C468 1.363 . S
C466 H482 0.931 . S
C467 C466 1.369 1_445 S
C467 C471 1.409 . S
C468 C466 1.363 . S
C468 C469 1.370 1_665 S
C468 C472 1.524 . S
C469 C461 1.503 . S
C469 C468 1.370 1_445 S
C469 C470 1.403 . S
C470 C469 1.403 . S
C470 C471 1.404 . S
C470 C473 1.539 . S
C471 C467 1.409 . S
C471 C470 1.404 . S
C471 H483 0.930 . S
C472 C468 1.524 . S
C472 H484 0.956 1_655 S
C472 H485 0.961 . S
C472 H486 0.961 . S
C473 C470 1.539 . S
C473 H487 0.958 . S
C473 H488 0.961 . S
C473 H489 0.960 . S
H474 C458 0.931 1_565 S
H475 C463 0.929 . S
H476 C464 0.960 1_545 S
H477 C464 0.962 . S
H478 C464 0.960 1_545 S
H479 C465 0.961 . S
H480 C465 0.961 . S
H481 C465 0.961 . S
H482 C466 0.931 . S
H483 C471 0.930 . S
H484 C472 0.956 1_455 S
H485 C472 0.961 . S
H486 C472 0.961 . S
H487 C473 0.958 . S
H488 C473 0.961 . S
H489 C473 0.960 . S
C490 C491 1.391 1_655 S
C490 C492 1.394 . S
C490 H506 0.931 . S
C491 C490 1.391 1_455 S
C491 C495 1.376 1_545 S
C492 C490 1.394 . S
C492 C493 1.369 1_655 S
C492 C496 1.531 . S
C493 C492 1.369 1_455 S
C493 C494 1.410 1_545 S
C493 C501 1.503 . S
C494 C493 1.410 1_565 S
C494 C495 1.392 . S
C494 C497 1.511 . S
C495 C491 1.376 1_565 S
C495 C494 1.392 . S
C495 H507 0.929 . S
C496 C492 1.531 . S
C496 H508 0.960 . S
C496 H509 0.962 . S
C496 H510 0.960 . S
C497 C494 1.511 . S
C497 H511 0.961 . S
C497 H512 0.961 . S
C497 H513 0.961 . S
C498 C499 1.370 1_665 S
C498 C500 1.363 . S
C498 H514 0.931 . S
C499 C498 1.370 1_445 S
C499 C503 1.408 . S
C500 C498 1.363 . S
C500 C501 1.370 1_665 S
C500 C504 1.524 . S
C501 C493 1.503 . S
C501 C500 1.370 1_445 S
C501 C502 1.403 . S
C502 C501 1.403 . S
C502 C503 1.404 . S
C502 C505 1.539 . S
C503 C499 1.408 . S
C503 C502 1.404 . S
C503 H515 0.930 . S
C504 C500 1.524 . S
C504 H516 0.956 . S
C504 H517 0.961 . S
C504 H518 0.961 . S
C505 C502 1.539 . S
C505 H519 0.958 . S
C505 H520 0.961 . S
C505 H521 0.960 . S
H506 C490 0.931 . S
H507 C495 0.929 . S
H508 C496 0.960 . S
H509 C496 0.962 . S
H510 C496 0.960 . S
H511 C497 0.961 . S
H512 C497 0.961 . S
H513 C497 0.961 . S
H514 C498 0.931 . S
H515 C503 0.930 . S
H516 C504 0.956 . S
H517 C504 0.961 . S
H518 C504 0.961 . S
H519 C505 0.958 . S
H520 C505 0.961 . S
H521 C505 0.960 . S
C522 C523 1.391 . S
C522 C524 1.394 . S
C522 H538 0.931 . S
C523 C522 1.391 . S
C523 C527 1.376 . S
C524 C522 1.394 . S
C524 C525 1.369 . S
C524 C528 1.531 . S
C525 C524 1.369 . S
C525 C526 1.410 . S
C525 C533 1.503 . S
C526 C525 1.410 . S
C526 C527 1.392 . S
C526 C529 1.511 . S
C527 C523 1.376 . S
C527 C526 1.392 . S
C527 H539 0.929 . S
C528 C524 1.531 . S
C528 H540 0.960 . S
C528 H541 0.962 . S
C528 H542 0.960 . S
C529 C526 1.511 . S
C529 H543 0.961 . S
C529 H544 0.961 . S
C529 H545 0.961 . S
C530 C531 1.370 . S
C530 C532 1.363 . S
C530 H546 0.931 . S
C531 C530 1.370 . S
C531 C535 1.408 . S
C532 C530 1.363 . S
C532 C533 1.370 . S
C532 C536 1.524 . S
C533 C525 1.503 . S
C533 C532 1.370 . S
C533 C534 1.403 . S
C534 C533 1.403 . S
C534 C535 1.404 . S
C534 C537 1.539 . S
C535 C531 1.408 . S
C535 C534 1.404 . S
C535 H547 0.930 . S
C536 C532 1.524 . S
C536 H548 0.956 . S
C536 H549 0.961 . S
C536 H550 0.961 . S
C537 C534 1.539 . S
C537 H551 0.958 . S
C537 H552 0.961 . S
C537 H553 0.960 . S
H538 C522 0.931 . S
H539 C527 0.929 . S
H540 C528 0.960 . S
H541 C528 0.962 . S
H542 C528 0.960 . S
H543 C529 0.961 . S
H544 C529 0.961 . S
H545 C529 0.961 . S
H546 C530 0.931 . S
H547 C535 0.930 . S
H548 C536 0.956 . S
H549 C536 0.961 . S
H550 C536 0.961 . S
H551 C537 0.958 . S
H552 C537 0.961 . S
H553 C537 0.960 . S
C554 C555 1.391 . S
C554 C556 1.394 . S
C554 H570 0.931 . S
C555 C554 1.391 . S
C555 C559 1.376 . S
C556 C554 1.394 . S
C556 C557 1.369 . S
C556 C560 1.531 . S
C557 C556 1.369 . S
C557 C558 1.410 . S
C557 C565 1.503 . S
C558 C557 1.410 . S
C558 C559 1.392 . S
C558 C561 1.511 . S
C559 C555 1.376 . S
C559 C558 1.392 . S
C559 H571 0.929 . S
C560 C556 1.531 . S
C560 H572 0.960 . S
C560 H573 0.962 . S
C560 H574 0.960 . S
C561 C558 1.511 . S
C561 H575 0.961 . S
C561 H576 0.961 . S
C561 H577 0.961 . S
C562 C563 1.370 . S
C562 C564 1.363 . S
C562 H578 0.931 . S
C563 C562 1.370 . S
C563 C567 1.408 . S
C564 C562 1.363 . S
C564 C565 1.370 . S
C564 C568 1.524 . S
C565 C557 1.503 . S
C565 C564 1.370 . S
C565 C566 1.403 . S
C566 C565 1.403 . S
C566 C567 1.404 . S
C566 C569 1.539 . S
C567 C563 1.408 . S
C567 C566 1.404 . S
C567 H579 0.930 . S
C568 C564 1.524 . S
C568 H580 0.956 . S
C568 H581 0.961 . S
C568 H582 0.961 . S
C569 C566 1.539 . S
C569 H583 0.958 . S
C569 H584 0.961 . S
C569 H585 0.960 . S
H570 C554 0.931 . S
H571 C559 0.929 . S
H572 C560 0.960 . S
H573 C560 0.962 . S
H574 C560 0.960 . S
H575 C561 0.961 . S
H576 C561 0.961 . S
H577 C561 0.961 . S
H578 C562 0.931 . S
H579 C567 0.930 . S
H580 C568 0.956 . S
H581 C568 0.961 . S
H582 C568 0.961 . S
H583 C569 0.958 . S
H584 C569 0.961 . S
H585 C569 0.960 . S
C211 C179 1.442 . S
C203 C21 1.451 . S
C235 C19 1.418 1_556 S
C243 C140 1.447 . S
C267 C18 1.419 . S
C275 C184 1.409 . S
C299 C20 1.421 1_556 S
C307 C145 1.429 . S
C331 C44 1.434 . S
C339 C101 1.454 . S
C363 C42 1.452 . S
C371 C62 1.438 . S
C403 C106 1.410 . S
C395 C41 1.408 . S
C435 C67 1.424 . S
C427 C43 1.444 . S
C459 C16 1.490 . S
C467 C47 1.492 1_445 S
C491 C17 1.456 . S
C499 C86 1.456 . S
C531 C125 1.493 . S
C523 C39 1.490 . S
C555 C40 1.448 . S
C563 C164 1.457 . S
