# Generated by pormake.
# Topology ptr, (4,4)-cn, num edge types: 1
# Building blocks:
#     Node 0, Type 0, BuildingBlock: UXUYUI_clean_sbu_0, # of connection points: 4
#     Node 1, Type 0, BuildingBlock: UXUYUI_clean_sbu_0, # of connection points: 4
#     Node 2, Type 0, BuildingBlock: UXUYUI_clean_sbu_0, # of connection points: 4
#     Node 3, Type 0, BuildingBlock: UXUYUI_clean_sbu_0, # of connection points: 4
#     Node 4, Type 0, BuildingBlock: UXUYUI_clean_sbu_0, # of connection points: 4
#     Node 5, Type 0, BuildingBlock: UXUYUI_clean_sbu_0, # of connection points: 4
#     Node 6, Type 0, BuildingBlock: UXUYUI_clean_sbu_0, # of connection points: 4
#     Node 7, Type 0, BuildingBlock: UXUYUI_clean_sbu_0, # of connection points: 4
#     Node 8, Type 0, BuildingBlock: UXUYUI_clean_sbu_0, # of connection points: 4
#     Node 9, Type 0, BuildingBlock: UXUYUI_clean_sbu_0, # of connection points: 4
#     Node 10, Type 0, BuildingBlock: UXUYUI_clean_sbu_0, # of connection points: 4
#     Node 11, Type 0, BuildingBlock: UXUYUI_clean_sbu_0, # of connection points: 4
#     Node 12, Type 0, BuildingBlock: UXUYUI_clean_sbu_0, # of connection points: 4
#     Node 13, Type 0, BuildingBlock: UXUYUI_clean_sbu_0, # of connection points: 4
#     Node 14, Type 0, BuildingBlock: UXUYUI_clean_sbu_0, # of connection points: 4
#     Node 15, Type 0, BuildingBlock: UXUYUI_clean_sbu_0, # of connection points: 4
#     Node 16, Type 0, BuildingBlock: UXUYUI_clean_sbu_0, # of connection points: 4
#     Node 17, Type 0, BuildingBlock: UXUYUI_clean_sbu_0, # of connection points: 4
#     Node 18, Type 1, BuildingBlock: NAHDIM_clean_linker_0, # of connection points: 4
#     Node 19, Type 1, BuildingBlock: NAHDIM_clean_linker_0, # of connection points: 4
#     Node 20, Type 1, BuildingBlock: NAHDIM_clean_linker_0, # of connection points: 4
#     Node 21, Type 1, BuildingBlock: NAHDIM_clean_linker_0, # of connection points: 4
#     Node 22, Type 1, BuildingBlock: NAHDIM_clean_linker_0, # of connection points: 4
#     Node 23, Type 1, BuildingBlock: NAHDIM_clean_linker_0, # of connection points: 4
#     Node 24, Type 1, BuildingBlock: NAHDIM_clean_linker_0, # of connection points: 4
#     Node 25, Type 1, BuildingBlock: NAHDIM_clean_linker_0, # of connection points: 4
#     Node 26, Type 1, BuildingBlock: NAHDIM_clean_linker_0, # of connection points: 4
#     Node 27, Type 1, BuildingBlock: NAHDIM_clean_linker_0, # of connection points: 4
#     Node 28, Type 1, BuildingBlock: NAHDIM_clean_linker_0, # of connection points: 4
#     Node 29, Type 1, BuildingBlock: NAHDIM_clean_linker_0, # of connection points: 4
#     Node 30, Type 1, BuildingBlock: NAHDIM_clean_linker_0, # of connection points: 4
#     Node 31, Type 1, BuildingBlock: NAHDIM_clean_linker_0, # of connection points: 4
#     Node 32, Type 1, BuildingBlock: NAHDIM_clean_linker_0, # of connection points: 4
#     Node 33, Type 1, BuildingBlock: NAHDIM_clean_linker_0, # of connection points: 4
#     Node 34, Type 1, BuildingBlock: NAHDIM_clean_linker_0, # of connection points: 4
#     Node 35, Type 1, BuildingBlock: NAHDIM_clean_linker_0, # of connection points: 4
#     Edge 36, Type (0, 1), BuildingBlock: MIFKUJ_clean_linker_0, # of connection points: 2
#     Edge 37, Type (0, 1), BuildingBlock: MIFKUJ_clean_linker_0, # of connection points: 2
#     Edge 38, Type (0, 1), BuildingBlock: MIFKUJ_clean_linker_0, # of connection points: 2
#     Edge 39, Type (0, 1), BuildingBlock: MIFKUJ_clean_linker_0, # of connection points: 2
#     Edge 40, Type (0, 1), BuildingBlock: MIFKUJ_clean_linker_0, # of connection points: 2
#     Edge 41, Type (0, 1), BuildingBlock: MIFKUJ_clean_linker_0, # of connection points: 2
#     Edge 42, Type (0, 1), BuildingBlock: MIFKUJ_clean_linker_0, # of connection points: 2
#     Edge 43, Type (0, 1), BuildingBlock: MIFKUJ_clean_linker_0, # of connection points: 2
#     Edge 44, Type (0, 1), BuildingBlock: MIFKUJ_clean_linker_0, # of connection points: 2
#     Edge 45, Type (0, 1), BuildingBlock: MIFKUJ_clean_linker_0, # of connection points: 2
#     Edge 46, Type (0, 1), BuildingBlock: MIFKUJ_clean_linker_0, # of connection points: 2
#     Edge 47, Type (0, 1), BuildingBlock: MIFKUJ_clean_linker_0, # of connection points: 2
#     Edge 48, Type (0, 1), BuildingBlock: MIFKUJ_clean_linker_0, # of connection points: 2
#     Edge 49, Type (0, 1), BuildingBlock: MIFKUJ_clean_linker_0, # of connection points: 2
#     Edge 50, Type (0, 1), BuildingBlock: MIFKUJ_clean_linker_0, # of connection points: 2
#     Edge 51, Type (0, 1), BuildingBlock: MIFKUJ_clean_linker_0, # of connection points: 2
#     Edge 52, Type (0, 1), BuildingBlock: MIFKUJ_clean_linker_0, # of connection points: 2
#     Edge 53, Type (0, 1), BuildingBlock: MIFKUJ_clean_linker_0, # of connection points: 2
#     Edge 54, Type (0, 1), BuildingBlock: MIFKUJ_clean_linker_0, # of connection points: 2
#     Edge 55, Type (0, 1), BuildingBlock: MIFKUJ_clean_linker_0, # of connection points: 2
#     Edge 56, Type (0, 1), BuildingBlock: MIFKUJ_clean_linker_0, # of connection points: 2
#     Edge 57, Type (0, 1), BuildingBlock: MIFKUJ_clean_linker_0, # of connection points: 2
#     Edge 58, Type (0, 1), BuildingBlock: MIFKUJ_clean_linker_0, # of connection points: 2
#     Edge 59, Type (0, 1), BuildingBlock: MIFKUJ_clean_linker_0, # of connection points: 2
#     Edge 60, Type (0, 1), BuildingBlock: MIFKUJ_clean_linker_0, # of connection points: 2
#     Edge 61, Type (0, 1), BuildingBlock: MIFKUJ_clean_linker_0, # of connection points: 2
#     Edge 62, Type (0, 1), BuildingBlock: MIFKUJ_clean_linker_0, # of connection points: 2
#     Edge 63, Type (0, 1), BuildingBlock: MIFKUJ_clean_linker_0, # of connection points: 2
#     Edge 64, Type (0, 1), BuildingBlock: MIFKUJ_clean_linker_0, # of connection points: 2
#     Edge 65, Type (0, 1), BuildingBlock: MIFKUJ_clean_linker_0, # of connection points: 2
#     Edge 66, Type (0, 1), BuildingBlock: MIFKUJ_clean_linker_0, # of connection points: 2
#     Edge 67, Type (0, 1), BuildingBlock: MIFKUJ_clean_linker_0, # of connection points: 2
#     Edge 68, Type (0, 1), BuildingBlock: MIFKUJ_clean_linker_0, # of connection points: 2
#     Edge 69, Type (0, 1), BuildingBlock: MIFKUJ_clean_linker_0, # of connection points: 2
#     Edge 70, Type (0, 1), BuildingBlock: MIFKUJ_clean_linker_0, # of connection points: 2
#     Edge 71, Type (0, 1), BuildingBlock: MIFKUJ_clean_linker_0, # of connection points: 2
#     Edge 72, Type (0, 1), BuildingBlock: MIFKUJ_clean_linker_0, # of connection points: 2
#     Edge 73, Type (0, 1), BuildingBlock: MIFKUJ_clean_linker_0, # of connection points: 2
#     Edge 74, Type (0, 1), BuildingBlock: MIFKUJ_clean_linker_0, # of connection points: 2
#     Edge 75, Type (0, 1), BuildingBlock: MIFKUJ_clean_linker_0, # of connection points: 2
#     Edge 76, Type (0, 1), BuildingBlock: MIFKUJ_clean_linker_0, # of connection points: 2
#     Edge 77, Type (0, 1), BuildingBlock: MIFKUJ_clean_linker_0, # of connection points: 2
#     Edge 78, Type (0, 1), BuildingBlock: MIFKUJ_clean_linker_0, # of connection points: 2
#     Edge 79, Type (0, 1), BuildingBlock: MIFKUJ_clean_linker_0, # of connection points: 2
#     Edge 80, Type (0, 1), BuildingBlock: MIFKUJ_clean_linker_0, # of connection points: 2
#     Edge 81, Type (0, 1), BuildingBlock: MIFKUJ_clean_linker_0, # of connection points: 2
#     Edge 82, Type (0, 1), BuildingBlock: MIFKUJ_clean_linker_0, # of connection points: 2
#     Edge 83, Type (0, 1), BuildingBlock: MIFKUJ_clean_linker_0, # of connection points: 2
#     Edge 84, Type (0, 1), BuildingBlock: MIFKUJ_clean_linker_0, # of connection points: 2
#     Edge 85, Type (0, 1), BuildingBlock: MIFKUJ_clean_linker_0, # of connection points: 2
#     Edge 86, Type (0, 1), BuildingBlock: MIFKUJ_clean_linker_0, # of connection points: 2
#     Edge 87, Type (0, 1), BuildingBlock: MIFKUJ_clean_linker_0, # of connection points: 2
#     Edge 88, Type (0, 1), BuildingBlock: MIFKUJ_clean_linker_0, # of connection points: 2
#     Edge 89, Type (0, 1), BuildingBlock: MIFKUJ_clean_linker_0, # of connection points: 2
#     Edge 90, Type (0, 1), BuildingBlock: MIFKUJ_clean_linker_0, # of connection points: 2
#     Edge 91, Type (0, 1), BuildingBlock: MIFKUJ_clean_linker_0, # of connection points: 2
#     Edge 92, Type (0, 1), BuildingBlock: MIFKUJ_clean_linker_0, # of connection points: 2
#     Edge 93, Type (0, 1), BuildingBlock: MIFKUJ_clean_linker_0, # of connection points: 2
#     Edge 94, Type (0, 1), BuildingBlock: MIFKUJ_clean_linker_0, # of connection points: 2
#     Edge 95, Type (0, 1), BuildingBlock: MIFKUJ_clean_linker_0, # of connection points: 2
#     Edge 96, Type (0, 1), BuildingBlock: MIFKUJ_clean_linker_0, # of connection points: 2
#     Edge 97, Type (0, 1), BuildingBlock: MIFKUJ_clean_linker_0, # of connection points: 2
#     Edge 98, Type (0, 1), BuildingBlock: MIFKUJ_clean_linker_0, # of connection points: 2
#     Edge 99, Type (0, 1), BuildingBlock: MIFKUJ_clean_linker_0, # of connection points: 2
#     Edge 100, Type (0, 1), BuildingBlock: MIFKUJ_clean_linker_0, # of connection points: 2
#     Edge 101, Type (0, 1), BuildingBlock: MIFKUJ_clean_linker_0, # of connection points: 2
#     Edge 102, Type (0, 1), BuildingBlock: MIFKUJ_clean_linker_0, # of connection points: 2
#     Edge 103, Type (0, 1), BuildingBlock: MIFKUJ_clean_linker_0, # of connection points: 2
#     Edge 104, Type (0, 1), BuildingBlock: MIFKUJ_clean_linker_0, # of connection points: 2
#     Edge 105, Type (0, 1), BuildingBlock: MIFKUJ_clean_linker_0, # of connection points: 2
#     Edge 106, Type (0, 1), BuildingBlock: MIFKUJ_clean_linker_0, # of connection points: 2
#     Edge 107, Type (0, 1), BuildingBlock: MIFKUJ_clean_linker_0, # of connection points: 2
# Relax obj value: 0.120
# Max RMSD: 0.337
# Mean RMSD: 0.137
data_MOF--net-ptr--node1-UXUYUI_clean_sbu_0--node2-NAHDIM_clean_linker_0--edge1-MIFKUJ_clean_linker_0
_symmetry_space_group_name_H-M    P1
_symmetry_Int_Tables_number       1
_symmetry_cell_setting            triclinic
loop_
_symmetry_equiv_pos_as_xyz
'x, y, z'
_cell_length_a     131.17187
_cell_length_b     130.90662
_cell_length_c     107.59992
_cell_angle_alpha  90.763369
_cell_angle_beta   90.230637
_cell_angle_gamma 120.43931
loop_
_atom_site_label
_atom_site_type_symbol
_atom_site_fract_x
_atom_site_fract_y
_atom_site_fract_z
_atom_type_partial_charge
Li0 Li 0.99409 0.32866 0.00231 0.0
Li1 Li 0.01399 0.33832 0.01026 0.0
Li2 Li 0.001 0.34547 0.01627 0.0
Li3 Li 0.00841 0.34832 0.99544 0.0
C4 C 0.98963 0.32369 0.02739 0.0
N5 N 0.97031 0.31133 0.04251 0.0
C6 C 0.99047 0.3179 0.03782 0.0
C7 C 0.97896 0.3232 0.02465 0.0
C8 C 0.9806 0.3117 0.04535 0.0
C9 C 0.96929 0.3169 0.0324 0.0
C10 C 0.00909 0.32364 0.98916 0.0
C11 C 0.01112 0.31171 0.9732 0.0
N12 N 0.00921 0.30341 0.98179 0.0
C13 C 0.00713 0.31499 0.99783 0.0
C14 C 0.01108 0.322 0.97675 0.0
C15 C 0.00724 0.30483 0.99392 0.0
C16 C 0.97706 0.31388 0.98488 0.0
N17 N 0.9815 0.31389 0.99631 0.0
C18 C 0.97073 0.29273 0.99646 0.0
C19 C 0.97835 0.30362 0.00226 0.0
C20 C 0.9664 0.29242 0.9844 0.0
C21 C 0.96942 0.30319 0.97873 0.0
H22 H 0.97995 0.32219 0.98028 0.0
H23 H 0.98221 0.30386 0.01122 0.0
C24 C 0.02717 0.33596 0.02906 0.0
N25 N 0.02633 0.33615 0.01649 0.0
C26 C 0.03559 0.33389 0.03455 0.0
C27 C 0.04224 0.3324 0.01403 0.0
C28 C 0.03375 0.33462 0.00894 0.0
C29 C 0.04316 0.33192 0.027 0.0
H30 H 0.02115 0.33725 0.03481 0.0
H31 H 0.03298 0.33495 0.99896 0.0
C32 C 0.98885 0.35083 0.99829 0.0
N33 N 0.98307 0.36794 0.99322 0.0
C34 C 0.99621 0.36252 0.00246 0.0
C35 C 0.97856 0.34785 0.99154 0.0
C36 C 0.99313 0.37103 0.9998 0.0
C37 C 0.97579 0.35662 0.98908 0.0
C38 C 0.02941 0.36235 0.0086 0.0
C39 C 0.03627 0.37225 0.01625 0.0
C40 C 0.0346 0.36001 0.99846 0.0
C41 C 0.04824 0.37966 0.01365 0.0
C42 C 0.04659 0.36762 0.99617 0.0
N43 N 0.05311 0.37721 0.00375 0.0
C44 C 0.00669 0.35848 0.03811 0.0
C45 C 0.98744 0.35294 0.03088 0.0
C46 C 0.00586 0.36517 0.04781 0.0
N47 N 0.99766 0.35274 0.02978 0.0
C48 C 0.98623 0.35957 0.04046 0.0
C49 C 0.99563 0.36598 0.04894 0.0
H50 H 0.01466 0.35805 0.03704 0.0
H51 H 0.98037 0.34826 0.02413 0.0
C52 C 0.00807 0.35359 0.97032 0.0
N53 N 0.01257 0.35855 0.98166 0.0
C54 C 0.0091 0.36073 0.96031 0.0
C55 C 0.01971 0.37796 0.9738 0.0
C56 C 0.01851 0.3705 0.98351 0.0
C57 C 0.01473 0.37309 0.96207 0.0
H58 H 0.00325 0.34404 0.96918 0.0
H59 H 0.02176 0.37421 0.99269 0.0
O60 O 0.99927 0.32981 0.02 0.0
O61 O 0.00874 0.33355 0.99266 0.0
O62 O 0.99176 0.34235 0.00052 0.0
O63 O 0.01769 0.35503 0.01111 0.0
H64 H 0.99867 0.3182 0.04007 0.0
H65 H 0.97809 0.32757 0.01661 0.0
H66 H 0.98113 0.30717 0.05345 0.0
H67 H 0.96099 0.31645 0.03039 0.0
H68 H 0.01264 0.31031 0.96362 0.0
H69 H 0.00549 0.31606 0.00746 0.0
H70 H 0.01254 0.32859 0.96992 0.0
H71 H 0.00572 0.29805 0.00053 0.0
H72 H 0.96855 0.28464 0.00121 0.0
H73 H 0.96646 0.30338 0.96938 0.0
H74 H 0.03595 0.33349 0.04458 0.0
H75 H 0.048 0.33104 0.00791 0.0
H76 H 0.00424 0.36502 0.00763 0.0
H77 H 0.97281 0.33885 0.9882 0.0
H78 H 0.99875 0.38011 0.00295 0.0
H79 H 0.96785 0.35444 0.98385 0.0
H80 H 0.03238 0.3742 0.02412 0.0
H81 H 0.02945 0.35242 0.9924 0.0
H82 H 0.05365 0.38735 0.0195 0.0
H83 H 0.05072 0.36591 0.98837 0.0
H84 H 0.01321 0.36975 0.05428 0.0
H85 H 0.97821 0.36 0.04096 0.0
H86 H 0.00522 0.35661 0.95141 0.0
H87 H 0.02392 0.38739 0.97568 0.0
Li88 Li 0.66555 0.65615 0.0062 0.0
Li89 Li 0.65544 0.66416 0.01857 0.0
Li90 Li 0.65033 0.64342 0.02033 0.0
Li91 Li 0.64493 0.65023 0.00183 0.0
C92 C 0.6769 0.66234 0.02806 0.0
N93 N 0.70049 0.67175 0.03424 0.0
C94 C 0.68371 0.67417 0.032 0.0
C95 C 0.68205 0.65526 0.02738 0.0
C96 C 0.69563 0.67877 0.03506 0.0
C97 C 0.69401 0.6602 0.0305 0.0
C98 C 0.6572 0.66977 0.98969 0.0
C99 C 0.64743 0.67757 0.9773 0.0
N100 N 0.65229 0.67587 0.96691 0.0
C101 C 0.66214 0.66814 0.9789 0.0
C102 C 0.64983 0.67457 0.98892 0.0
C103 C 0.65954 0.67127 0.96746 0.0
C104 C 0.68153 0.65284 0.99117 0.0
N105 N 0.68023 0.66053 0.99866 0.0
C106 C 0.69986 0.67602 0.99437 0.0
C107 C 0.68907 0.67194 0.00028 0.0
C108 C 0.70147 0.66839 0.98635 0.0
C109 C 0.69212 0.65661 0.98486 0.0
H110 H 0.67423 0.64389 0.98981 0.0
H111 H 0.68768 0.67795 0.00604 0.0
C112 C 0.65601 0.67782 0.03968 0.0
N113 N 0.65829 0.67809 0.02734 0.0
C114 C 0.65921 0.6883 0.04627 0.0
C115 C 0.66742 0.69917 0.02742 0.0
C116 C 0.66382 0.68846 0.02115 0.0
C117 C 0.66521 0.69923 0.04021 0.0
H118 H 0.65196 0.6695 0.04448 0.0
H119 H 0.66584 0.68846 0.01142 0.0
C120 C 0.64831 0.62838 0.00271 0.0
N121 N 0.64003 0.60436 0.00385 0.0
C122 C 0.63662 0.6202 0.99928 0.0
C123 C 0.65581 0.62435 0.00662 0.0
C124 C 0.6326 0.60809 0.99994 0.0
C125 C 0.65145 0.61217 0.00717 0.0
C126 C 0.63342 0.65285 0.02692 0.0
C127 C 0.63076 0.64812 0.03883 0.0
C128 C 0.63015 0.66103 0.02336 0.0
C129 C 0.62489 0.65172 0.04702 0.0
C130 C 0.62432 0.66442 0.03184 0.0
N131 N 0.62182 0.65973 0.04339 0.0
C132 C 0.65224 0.63047 0.04032 0.0
C133 C 0.63342 0.62181 0.03043 0.0
C134 C 0.64795 0.62133 0.0489 0.0
N135 N 0.64494 0.63055 0.03138 0.0
C136 C 0.62878 0.61249 0.03877 0.0
C137 C 0.63603 0.61224 0.04827 0.0
H138 H 0.6613 0.63764 0.04098 0.0
H139 H 0.62779 0.62221 0.02333 0.0
C140 C 0.63565 0.6418 0.97792 0.0
N141 N 0.63344 0.64551 0.9889 0.0
C142 C 0.62719 0.63751 0.96837 0.0
C143 C 0.61439 0.64106 0.98157 0.0
C144 C 0.6231 0.64527 0.99088 0.0
C145 C 0.61633 0.63699 0.97017 0.0
H146 H 0.6439 0.64194 0.97669 0.0
H147 H 0.62153 0.64815 0.99974 0.0
O148 O 0.66525 0.6577 0.02489 0.0
O149 O 0.65939 0.66647 0.00094 0.0
O150 O 0.65235 0.64026 0.00234 0.0
O151 O 0.63919 0.64947 0.01876 0.0
H152 H 0.67987 0.67977 0.03261 0.0
H153 H 0.67691 0.64609 0.02435 0.0
H154 H 0.70102 0.68792 0.03807 0.0
H155 H 0.69813 0.65484 0.02993 0.0
H156 H 0.64169 0.68123 0.97655 0.0
H157 H 0.66782 0.66439 0.97934 0.0
H158 H 0.64594 0.67587 0.9972 0.0
H159 H 0.66325 0.67001 0.95902 0.0
H160 H 0.70682 0.6851 0.99603 0.0
H161 H 0.69282 0.65044 0.97862 0.0
H162 H 0.65716 0.68781 0.05605 0.0
H163 H 0.67227 0.70732 0.02235 0.0
H164 H 0.63067 0.62317 0.9963 0.0
H165 H 0.66488 0.63056 0.00928 0.0
H166 H 0.62356 0.60166 0.99738 0.0
H167 H 0.65714 0.60892 0.01024 0.0
H168 H 0.63327 0.64183 0.04178 0.0
H169 H 0.63223 0.66485 0.01422 0.0
H170 H 0.6228 0.64816 0.05629 0.0
H171 H 0.62179 0.67079 0.02923 0.0
H172 H 0.65381 0.62159 0.05617 0.0
H173 H 0.61958 0.60561 0.03784 0.0
H174 H 0.629 0.6343 0.95982 0.0
H175 H 0.60621 0.64095 0.98332 0.0
Li176 Li 0.34822 0.99604 0.99993 0.0
Li177 Li 0.35386 0.00665 0.01967 0.0
Li178 Li 0.33303 0.99142 0.01574 0.0
Li179 Li 0.34175 0.01032 0.00555 0.0
C180 C 0.3434 0.97755 0.01584 0.0
N181 N 0.33594 0.95368 0.0144 0.0
C182 C 0.34773 0.97262 0.02431 0.0
C183 C 0.33529 0.97035 0.00662 0.0
C184 C 0.34385 0.96053 0.02343 0.0
C185 C 0.33162 0.9583 0.00605 0.0
C186 C 0.36938 0.02227 0.00374 0.0
C187 C 0.38394 0.04291 0.00706 0.0
N188 N 0.39268 0.04027 0.00593 0.0
C189 C 0.3785 0.01979 0.00244 0.0
C190 C 0.3721 0.03394 0.00593 0.0
C191 C 0.39023 0.029 0.00365 0.0
C192 C 0.35183 0.99166 0.97503 0.0
N193 N 0.35427 0.99069 0.98709 0.0
C194 C 0.36871 0.98569 0.98103 0.0
C195 C 0.36232 0.98751 0.99023 0.0
C196 C 0.3668 0.98717 0.96849 0.0
C197 C 0.35797 0.98984 0.9655 0.0
H198 H 0.34555 0.99444 0.97285 0.0
H199 H 0.36422 0.98702 0.99992 0.0
C200 C 0.36743 0.01931 0.04165 0.0
N201 N 0.36629 0.01227 0.03171 0.0
C202 C 0.37607 0.0219 0.05078 0.0
C203 C 0.38225 0.01009 0.03914 0.0
C204 C 0.3735 0.00771 0.0303 0.0
C205 C 0.38353 0.01714 0.04965 0.0
H206 H 0.36142 0.0226 0.04275 0.0
H207 H 0.37219 0.00189 0.02246 0.0
C208 C 0.32155 0.99235 0.99355 0.0
N209 N 0.30012 0.98899 0.98512 0.0
C210 C 0.31417 0.99399 0.00163 0.0
C211 C 0.31804 0.989 0.98118 0.0
C212 C 0.30337 0.99225 0.9972 0.0
C213 C 0.30717 0.98734 0.9771 0.0
C214 C 0.33742 0.01548 0.02915 0.0
C215 C 0.32644 0.012 0.03445 0.0
C216 C 0.34619 0.02745 0.02934 0.0
C217 C 0.32441 0.0206 0.03978 0.0
C218 C 0.34382 0.03577 0.03475 0.0
N219 N 0.33307 0.03221 0.0398 0.0
C220 C 0.3189 0.98061 0.03607 0.0
C221 C 0.30989 0.97072 0.01705 0.0
C222 C 0.30859 0.97326 0.04251 0.0
N223 N 0.31924 0.97944 0.02354 0.0
C224 C 0.29936 0.96317 0.02313 0.0
C225 C 0.29853 0.96461 0.03599 0.0
H226 H 0.32654 0.98756 0.04098 0.0
H227 H 0.31043 0.96993 0.00709 0.0
C228 C 0.34468 0.02737 0.98817 0.0
N229 N 0.33842 0.02165 0.99838 0.0
C230 C 0.34205 0.03498 0.98174 0.0
C231 C 0.32664 0.03075 0.99651 0.0
C232 C 0.32953 0.0232 0.0026 0.0
C233 C 0.33286 0.03669 0.98586 0.0
H234 H 0.35158 0.02584 0.98487 0.0
H235 H 0.3244 0.01834 0.01048 0.0
O236 O 0.34715 0.98938 0.01662 0.0
O237 O 0.35784 0.01335 0.00266 0.0
O238 O 0.33221 0.99408 0.99766 0.0
O239 O 0.33952 0.0072 0.02379 0.0
H240 H 0.35403 0.97809 0.03148 0.0
H241 H 0.33187 0.97401 0.99995 0.0
H242 H 0.34712 0.95659 0.02992 0.0
H243 H 0.32534 0.95263 0.99897 0.0
H244 H 0.38617 0.05197 0.00881 0.0
H245 H 0.37656 0.01084 0.00061 0.0
H246 H 0.36516 0.03607 0.00665 0.0
H247 H 0.39738 0.02719 0.00277 0.0
H248 H 0.37539 0.98357 0.9837 0.0
H249 H 0.35635 0.99121 0.95596 0.0
H250 H 0.37676 0.02737 0.05874 0.0
H251 H 0.38759 0.00599 0.03801 0.0
H252 H 0.31676 0.9966 0.01123 0.0
H253 H 0.32365 0.98768 0.9748 0.0
H254 H 0.29759 0.9935 0.00336 0.0
H255 H 0.30433 0.98474 0.96754 0.0
H256 H 0.31951 0.00279 0.03436 0.0
H257 H 0.35474 0.03027 0.02536 0.0
H258 H 0.31594 0.01804 0.04386 0.0
H259 H 0.35053 0.04507 0.03493 0.0
H260 H 0.30842 0.97452 0.05246 0.0
H261 H 0.29181 0.95665 0.01773 0.0
H262 H 0.34713 0.03944 0.97362 0.0
H263 H 0.31934 0.03163 0.99988 0.0
Li264 Li 0.01365 0.67369 0.01618 0.0
Li265 Li 0.99805 0.65275 0.02144 0.0
Li266 Li 0.00758 0.65724 0.00156 0.0
Li267 Li 0.99385 0.6637 0.0058 0.0
C268 C 0.02384 0.65716 0.01537 0.0
N269 N 0.04094 0.65199 0.00825 0.0
C270 C 0.02203 0.6458 0.01704 0.0
C271 C 0.03435 0.66592 0.01017 0.0
C272 C 0.03079 0.64335 0.01335 0.0
C273 C 0.04289 0.66312 0.00661 0.0
C274 C 0.99209 0.66953 0.0331 0.0
C275 C 0.97434 0.66733 0.04225 0.0
N276 N 0.98068 0.67338 0.05255 0.0
C277 C 0.99845 0.67583 0.04372 0.0
C278 C 0.97996 0.66533 0.0323 0.0
C279 C 0.99251 0.67764 0.05348 0.0
C280 C 0.02724 0.69846 0.01776 0.0
N281 N 0.02536 0.68835 0.02317 0.0
C282 C 0.03788 0.69935 0.04038 0.0
C283 C 0.03067 0.68858 0.03413 0.0
C284 C 0.03969 0.70993 0.0352 0.0
C285 C 0.03449 0.70943 0.0236 0.0
H286 H 0.0227 0.69796 0.00915 0.0
H287 H 0.02887 0.68035 0.03827 0.0
C288 C 0.98914 0.63013 0.03097 0.0
N289 N 0.99244 0.64145 0.0343 0.0
C290 C 0.98625 0.62158 0.04002 0.0
C291 C 0.98994 0.63644 0.05578 0.0
C292 C 0.99281 0.64471 0.04641 0.0
C293 C 0.98681 0.62473 0.05265 0.0
H294 H 0.98916 0.62785 0.02127 0.0
H295 H 0.99568 0.65381 0.04884 0.0
C296 C 0.00848 0.67456 0.9858 0.0
N297 N 0.00553 0.67746 0.9609 0.0
C298 C 0.00022 0.66494 0.97853 0.0
C299 C 0.01524 0.68565 0.9804 0.0
C300 C 0.99886 0.66659 0.96596 0.0
C301 C 0.01362 0.68693 0.9678 0.0
C302 C 0.97885 0.63894 0.00389 0.0
C303 C 0.97435 0.63196 0.99309 0.0
C304 C 0.97126 0.63743 0.01367 0.0
C305 C 0.96226 0.62369 0.99218 0.0
C306 C 0.95924 0.62906 0.01241 0.0
N307 N 0.95502 0.62242 0.00178 0.0
C308 C 0.00738 0.63826 0.9895 0.0
C309 C 0.02039 0.65661 0.98012 0.0
C310 C 0.00977 0.63212 0.98038 0.0
N311 N 0.0126 0.65025 0.98916 0.0
C312 C 0.02286 0.65079 0.97064 0.0
C313 C 0.01743 0.63839 0.97068 0.0
H314 H 0.00121 0.63346 0.9968 0.0
H315 H 0.02449 0.66615 0.98012 0.0
C316 C 0.98432 0.67816 0.00304 0.0
N317 N 0.98278 0.66754 0.99915 0.0
C318 C 0.97755 0.68253 0.99788 0.0
C319 C 0.96764 0.66492 0.9848 0.0
C320 C 0.97459 0.66087 0.99027 0.0
C321 C 0.96919 0.67598 0.98849 0.0
H322 H 0.99102 0.68335 0.01 0.0
H323 H 0.97373 0.65261 0.98709 0.0
O324 O 0.01524 0.65964 0.01854 0.0
O325 O 0.99781 0.66782 0.02339 0.0
O326 O 0.00992 0.67322 0.99816 0.0
O327 O 0.99066 0.64709 0.00484 0.0
H328 H 0.01391 0.63892 0.02101 0.0
H329 H 0.03583 0.67475 0.00877 0.0
H330 H 0.0295 0.63458 0.01452 0.0
H331 H 0.05105 0.66979 0.0025 0.0
H332 H 0.96495 0.66411 0.04176 0.0
H333 H 0.00785 0.67921 0.04448 0.0
H334 H 0.97492 0.66068 0.02405 0.0
H335 H 0.99732 0.68244 0.06179 0.0
H336 H 0.04177 0.69939 0.0493 0.0
H337 H 0.03552 0.71736 0.01938 0.0
H338 H 0.98409 0.61274 0.03717 0.0
H339 H 0.99037 0.63924 0.06538 0.0
H340 H 0.99493 0.65629 0.98251 0.0
H341 H 0.02167 0.69318 0.98589 0.0
H342 H 0.99251 0.65922 0.96024 0.0
H343 H 0.01879 0.69546 0.9635 0.0
H344 H 0.98013 0.63299 0.98546 0.0
H345 H 0.97463 0.64258 0.02217 0.0
H346 H 0.95865 0.61827 0.98386 0.0
H347 H 0.95326 0.62781 0.01991 0.0
H348 H 0.00535 0.62255 0.98066 0.0
H349 H 0.02887 0.6559 0.96333 0.0
H350 H 0.97894 0.69101 0.00114 0.0
H351 H 0.96143 0.65966 0.97747 0.0
Li352 Li 0.33868 0.34375 0.0076 0.0
Li353 Li 0.35916 0.34986 0.01169 0.0
Li354 Li 0.35414 0.35639 0.99239 0.0
Li355 Li 0.34911 0.33597 0.99516 0.0
C356 C 0.35364 0.36634 0.02082 0.0
N357 N 0.35705 0.37873 0.04292 0.0
C358 C 0.34762 0.36041 0.03148 0.0
C359 C 0.36138 0.37859 0.0214 0.0
C360 C 0.34947 0.36682 0.04257 0.0
C361 C 0.36299 0.3847 0.03266 0.0
C362 C 0.34667 0.32906 0.02353 0.0
C363 C 0.35729 0.32174 0.03526 0.0
N364 N 0.35009 0.31987 0.04508 0.0
C365 C 0.33932 0.32697 0.03372 0.0
C366 C 0.35568 0.32634 0.02427 0.0
C367 C 0.34121 0.32235 0.04454 0.0
C368 C 0.31574 0.32765 0.01441 0.0
N369 N 0.32361 0.33947 0.01402 0.0
C370 C 0.30971 0.34384 0.02329 0.0
C371 C 0.32076 0.34758 0.01807 0.0
C372 C 0.3015 0.33166 0.02411 0.0
C373 C 0.30457 0.32353 0.01943 0.0
H374 H 0.31825 0.32143 0.01101 0.0
H375 H 0.32713 0.35694 0.01741 0.0
C376 C 0.38265 0.36142 0.0207 0.0
N377 N 0.3712 0.35534 0.02441 0.0
C378 C 0.39186 0.36635 0.02949 0.0
C379 C 0.37735 0.35858 0.04576 0.0
C380 C 0.36844 0.35382 0.03667 0.0
C381 C 0.38925 0.36504 0.04223 0.0
H382 H 0.38463 0.36265 0.0109 0.0
H383 H 0.35933 0.34905 0.03948 0.0
C384 C 0.33049 0.344 0.9839 0.0
N385 N 0.31384 0.3484 0.97348 0.0
C386 C 0.32229 0.33604 0.97519 0.0
C387 C 0.33021 0.3542 0.98734 0.0
C388 C 0.31395 0.33842 0.97002 0.0
C389 C 0.32172 0.35626 0.98196 0.0
C390 C 0.37067 0.34649 0.98697 0.0
C391 C 0.37086 0.34835 0.9742 0.0
C392 C 0.37605 0.34047 0.99174 0.0
C393 C 0.37629 0.34398 0.96635 0.0
C394 C 0.38139 0.33624 0.98359 0.0
N395 N 0.38138 0.33805 0.97117 0.0
C396 C 0.3683 0.3797 0.98414 0.0
C397 C 0.35432 0.3666 0.96916 0.0
C398 C 0.37258 0.38904 0.97581 0.0
N399 N 0.35927 0.36879 0.98073 0.0
C400 C 0.35827 0.37569 0.96057 0.0
C401 C 0.36752 0.38709 0.96385 0.0
H402 H 0.37227 0.3811 0.99328 0.0
H403 H 0.34741 0.35776 0.96653 0.0
C404 C 0.34435 0.31236 0.99228 0.0
N405 N 0.34629 0.32217 0.98613 0.0
C406 C 0.34056 0.3017 0.9858 0.0
C407 C 0.34118 0.31154 0.96673 0.0
C408 C 0.34489 0.32199 0.9736 0.0
C409 C 0.3387 0.30112 0.97286 0.0
H410 H 0.34523 0.31265 0.00227 0.0
H411 H 0.34625 0.32987 0.96899 0.0
O412 O 0.35197 0.36021 0.00987 0.0
O413 O 0.34496 0.33359 0.01287 0.0
O414 O 0.33865 0.34172 0.98909 0.0
O415 O 0.36521 0.3505 0.99477 0.0
H416 H 0.3417 0.35093 0.03125 0.0
H417 H 0.36608 0.38336 0.01325 0.0
H418 H 0.3449 0.36231 0.05089 0.0
H419 H 0.36895 0.39418 0.03323 0.0
H420 H 0.36428 0.31967 0.03598 0.0
H421 H 0.33226 0.32895 0.0333 0.0
H422 H 0.36141 0.32784 0.01647 0.0
H423 H 0.33562 0.32075 0.0525 0.0
H424 H 0.30761 0.35039 0.02667 0.0
H425 H 0.29854 0.31407 0.02001 0.0
H426 H 0.4009 0.37138 0.02634 0.0
H427 H 0.37491 0.3572 0.05546 0.0
H428 H 0.32239 0.3281 0.97246 0.0
H429 H 0.33648 0.36046 0.99407 0.0
H430 H 0.30755 0.33234 0.96325 0.0
H431 H 0.32141 0.36411 0.98453 0.0
H432 H 0.36674 0.35299 0.97036 0.0
H433 H 0.3761 0.33909 0.00162 0.0
H434 H 0.37643 0.34527 0.95643 0.0
H435 H 0.38554 0.33152 0.98714 0.0
H436 H 0.37972 0.3977 0.97872 0.0
H437 H 0.35429 0.37374 0.95136 0.0
H438 H 0.33855 0.29387 0.99097 0.0
H439 H 0.33999 0.31156 0.95677 0.0
Li440 Li 0.66059 0.99075 0.01513 0.0
Li441 Li 0.65469 0.00497 0.01984 0.0
Li442 Li 0.6503 0.99592 0.99964 0.0
Li443 Li 0.67113 0.01083 0.00605 0.0
C444 C 0.63831 0.98097 0.02543 0.0
N445 N 0.62644 0.96698 0.04539 0.0
C446 C 0.64345 0.9839 0.0373 0.0
C447 C 0.62713 0.97093 0.0237 0.0
C448 C 0.63731 0.97672 0.04728 0.0
C449 C 0.62127 0.96396 0.03391 0.0
C450 C 0.67675 0.01287 0.03335 0.0
C451 C 0.69059 0.03179 0.04277 0.0
N452 N 0.6906 0.02622 0.05335 0.0
C453 C 0.67703 0.00732 0.04426 0.0
C454 C 0.68369 0.02519 0.03254 0.0
C455 C 0.68403 0.01423 0.05429 0.0
C456 C 0.67582 0.984 0.02382 0.0
N457 N 0.66409 0.97947 0.02161 0.0
C458 C 0.65963 0.96097 0.03033 0.0
C459 C 0.65599 0.96812 0.02452 0.0
C460 C 0.67169 0.96559 0.03312 0.0
C461 C 0.67983 0.97721 0.02957 0.0
H462 H 0.68204 0.99304 0.02132 0.0
H463 H 0.64671 0.96469 0.02257 0.0
C464 C 0.63577 0.00514 0.03045 0.0
N465 N 0.64759 0.00991 0.03224 0.0
C466 C 0.62909 0.00713 0.0391 0.0
C467 C 0.64688 0.01915 0.05128 0.0
C468 C 0.65326 0.01696 0.04231 0.0
C469 C 0.63458 0.01402 0.04983 0.0
H470 H 0.63149 0.99959 0.02235 0.0
H471 H 0.66265 0.0207 0.04357 0.0
C472 C 0.66265 0.98517 0.99057 0.0
N473 N 0.65801 0.96534 0.97668 0.0
C474 C 0.6709 0.98577 0.98199 0.0
C475 C 0.65205 0.97449 0.9921 0.0
C476 C 0.66839 0.97564 0.97505 0.0
C477 C 0.64987 0.96456 0.98499 0.0
C478 C 0.6539 0.021 0.00614 0.0
C479 C 0.64238 0.01822 0.00317 0.0
C480 C 0.66164 0.03182 0.01203 0.0
C481 C 0.63872 0.02624 0.00635 0.0
C482 C 0.65765 0.0396 0.01507 0.0
N483 N 0.64636 0.03666 0.01221 0.0
C484 C 0.62764 0.98606 0.98928 0.0
C485 C 0.64286 0.99254 0.97437 0.0
C486 C 0.61922 0.9835 0.97995 0.0
N487 N 0.6392 0.99067 0.98635 0.0
C488 C 0.63471 0.99003 0.96472 0.0
C489 C 0.62276 0.98569 0.9675 0.0
H490 H 0.62505 0.98481 0.99892 0.0
H491 H 0.65215 0.99636 0.97235 0.0
C492 C 0.69522 0.02056 0.00376 0.0
N493 N 0.6862 0.02228 0.00049 0.0
C494 C 0.70644 0.02766 0.99887 0.0
C495 C 0.69896 0.03844 0.98764 0.0
C496 C 0.68785 0.0311 0.99277 0.0
C497 C 0.70838 0.0366 0.99049 0.0
H498 H 0.69355 0.01335 0.00981 0.0
H499 H 0.68045 0.03218 0.99029 0.0
O500 O 0.64414 0.98783 0.01549 0.0
O501 O 0.67008 0.00623 0.02337 0.0
O502 O 0.66502 0.99502 0.99742 0.0
O503 O 0.65755 0.01314 0.00338 0.0
H504 H 0.65205 0.99166 0.03881 0.0
H505 H 0.62304 0.96853 0.01455 0.0
H506 H 0.64119 0.9789 0.05652 0.0
H507 H 0.61261 0.95615 0.0327 0.0
H508 H 0.69596 0.04133 0.0423 0.0
H509 H 0.67192 0.99778 0.04496 0.0
H510 H 0.68378 0.02962 0.02411 0.0
H511 H 0.68428 0.01006 0.0628 0.0
H512 H 0.65306 0.95206 0.03293 0.0
H513 H 0.68922 0.98105 0.03127 0.0
H514 H 0.61967 0.00321 0.03746 0.0
H515 H 0.65147 0.02446 0.05944 0.0
H516 H 0.67916 0.99398 0.98072 0.0
H517 H 0.64556 0.97385 0.99869 0.0
H518 H 0.67469 0.97597 0.96837 0.0
H519 H 0.6417 0.95624 0.98607 0.0
H520 H 0.63629 0.0099 0.99857 0.0
H521 H 0.67061 0.03417 0.01427 0.0
H522 H 0.6298 0.02416 0.0042 0.0
H523 H 0.66352 0.04797 0.01971 0.0
H524 H 0.61008 0.98006 0.98248 0.0
H525 H 0.63782 0.99196 0.95525 0.0
H526 H 0.71336 0.02577 0.00117 0.0
H527 H 0.70011 0.04528 0.98129 0.0
Li528 Li 0.65981 0.66921 0.33302 0.0
Li529 Li 0.67794 0.67871 0.34569 0.0
Li530 Li 0.66285 0.68475 0.348 0.0
Li531 Li 0.67505 0.69005 0.32964 0.0
C532 C 0.65376 0.6594 0.35739 0.0
N533 N 0.63814 0.6392 0.36992 0.0
C534 C 0.65696 0.65107 0.36054 0.0
C535 C 0.6427 0.65758 0.36086 0.0
C536 C 0.64891 0.64088 0.3668 0.0
C537 C 0.63491 0.64727 0.36712 0.0
C538 C 0.68712 0.67881 0.3223 0.0
C539 C 0.70832 0.69153 0.32194 0.0
N540 N 0.70876 0.68535 0.3119 0.0
C541 C 0.68778 0.67259 0.31199 0.0
C542 C 0.69746 0.68836 0.32734 0.0
C543 C 0.6988 0.67602 0.30686 0.0
C544 C 0.64142 0.65372 0.31599 0.0
N545 N 0.6489 0.65445 0.32521 0.0
C546 C 0.64195 0.63374 0.32314 0.0
C547 C 0.64942 0.64479 0.32869 0.0
C548 C 0.634 0.63265 0.31371 0.0
C549 C 0.63381 0.64283 0.31012 0.0
H550 H 0.64145 0.6616 0.31307 0.0
H551 H 0.65582 0.6457 0.33562 0.0
C552 C 0.69359 0.68093 0.36521 0.0
N553 N 0.68844 0.67526 0.3543 0.0
C554 C 0.70046 0.67756 0.37206 0.0
C555 C 0.69675 0.6628 0.35618 0.0
C556 C 0.68995 0.66642 0.34966 0.0
C557 C 0.70197 0.66826 0.36765 0.0
H558 H 0.6921 0.68784 0.36872 0.0
H559 H 0.68562 0.66198 0.34103 0.0
C560 C 0.64712 0.6824 0.32857 0.0
N561 N 0.62575 0.68145 0.32536 0.0
C562 C 0.6466 0.69136 0.32219 0.0
C563 C 0.63676 0.67291 0.33323 0.0
C564 C 0.63572 0.69074 0.32069 0.0
C565 C 0.62604 0.6726 0.33153 0.0
C566 C 0.68353 0.70661 0.34948 0.0
C567 C 0.6774 0.71135 0.34354 0.0
C568 C 0.69273 0.71367 0.3578 0.0
C569 C 0.68057 0.7231 0.34603 0.0
C570 C 0.69565 0.72539 0.36005 0.0
N571 N 0.68956 0.72982 0.35417 0.0
C572 C 0.65659 0.68754 0.37213 0.0
C573 C 0.65036 0.69613 0.35681 0.0
C574 C 0.65197 0.69142 0.38154 0.0
N575 N 0.65567 0.68991 0.36004 0.0
C576 C 0.64554 0.70008 0.36589 0.0
C577 C 0.64634 0.69777 0.37845 0.0
H578 H 0.66098 0.68271 0.37445 0.0
H579 H 0.65004 0.69825 0.34722 0.0
C580 C 0.67611 0.69992 0.3065 0.0
N581 N 0.68236 0.70168 0.31719 0.0
C582 C 0.68046 0.70852 0.29734 0.0
C583 C 0.69777 0.72044 0.31023 0.0
C584 C 0.69311 0.71157 0.31912 0.0
C585 C 0.69134 0.71906 0.29922 0.0
H586 H 0.66762 0.69191 0.3052 0.0
H587 H 0.69794 0.71273 0.32769 0.0
O588 O 0.66159 0.66951 0.3514 0.0
O589 O 0.67636 0.67554 0.32737 0.0
O590 O 0.65773 0.68295 0.33021 0.0
O591 O 0.68057 0.69511 0.34724 0.0
H592 H 0.66555 0.65243 0.3581 0.0
H593 H 0.6402 0.66409 0.35887 0.0
H594 H 0.65124 0.63431 0.36919 0.0
H595 H 0.62631 0.64573 0.36982 0.0
H596 H 0.71639 0.6989 0.32574 0.0
H597 H 0.67984 0.66517 0.30799 0.0
H598 H 0.69714 0.69328 0.33533 0.0
H599 H 0.69945 0.67128 0.29887 0.0
H600 H 0.64264 0.6262 0.32596 0.0
H601 H 0.62785 0.64239 0.30287 0.0
H602 H 0.7042 0.68192 0.38092 0.0
H603 H 0.69779 0.6557 0.35233 0.0
H604 H 0.65455 0.69877 0.31852 0.0
H605 H 0.63697 0.66581 0.33797 0.0
H606 H 0.63519 0.69764 0.31582 0.0
H607 H 0.61796 0.66531 0.33508 0.0
H608 H 0.67028 0.70603 0.33704 0.0
H609 H 0.69756 0.71012 0.36248 0.0
H610 H 0.6759 0.72687 0.34149 0.0
H611 H 0.70275 0.73096 0.36647 0.0
H612 H 0.65272 0.6894 0.39111 0.0
H613 H 0.64147 0.70514 0.36314 0.0
H614 H 0.6753 0.70695 0.2889 0.0
H615 H 0.70614 0.72844 0.31216 0.0
Li616 Li 0.30301 0.98108 0.34032 0.0
Li617 Li 0.30949 0.97474 0.35848 0.0
Li618 Li 0.31721 0.99651 0.35428 0.0
Li619 Li 0.32373 0.98523 0.34147 0.0
C620 C 0.28929 0.98064 0.35856 0.0
N621 N 0.26577 0.97436 0.35868 0.0
C622 C 0.28054 0.96895 0.36083 0.0
C623 C 0.2861 0.98918 0.35653 0.0
C624 C 0.26869 0.96594 0.3608 0.0
C625 C 0.27415 0.98582 0.35658 0.0
C626 C 0.30943 0.95956 0.33956 0.0
C627 C 0.3195 0.94881 0.34367 0.0
N628 N 0.31099 0.93936 0.33709 0.0
C629 C 0.30082 0.94977 0.33277 0.0
C630 C 0.31887 0.9591 0.34501 0.0
C631 C 0.30175 0.93962 0.33165 0.0
C632 C 0.28951 0.983 0.32046 0.0
N633 N 0.28981 0.97586 0.32933 0.0
C634 C 0.27174 0.95946 0.32154 0.0
C635 C 0.28113 0.96431 0.33007 0.0
C636 C 0.27132 0.96654 0.31208 0.0
C637 C 0.28027 0.97852 0.31174 0.0
H638 H 0.29663 0.99207 0.31988 0.0
H639 H 0.28167 0.95879 0.33713 0.0
C640 C 0.30835 0.9669 0.38302 0.0
N641 N 0.30473 0.96318 0.37111 0.0
C642 C 0.30492 0.95868 0.39255 0.0
C643 C 0.29411 0.94298 0.37736 0.0
C644 C 0.29759 0.9515 0.36818 0.0
C645 C 0.29778 0.94655 0.38972 0.0
H646 H 0.31391 0.97627 0.3851 0.0
H647 H 0.29445 0.94877 0.35875 0.0
C648 C 0.32103 0.00644 0.33104 0.0
N649 N 0.32778 0.02854 0.32178 0.0
C650 C 0.33147 0.01259 0.32432 0.0
C651 C 0.31398 0.01149 0.33299 0.0
C652 C 0.33474 0.02376 0.31973 0.0
C653 C 0.31756 0.02268 0.32825 0.0
C654 C 0.33642 0.99116 0.36503 0.0
C655 C 0.34578 0.00288 0.3655 0.0
C656 C 0.3378 0.98229 0.37049 0.0
C657 C 0.35647 0.00549 0.37112 0.0
C658 C 0.34862 0.98526 0.37604 0.0
N659 N 0.35766 0.9967 0.37622 0.0
C660 C 0.3174 0.01186 0.37303 0.0
C661 C 0.33217 0.0214 0.35785 0.0
C662 C 0.32183 0.02247 0.37984 0.0
N663 N 0.32266 0.01151 0.36231 0.0
C664 C 0.33676 0.03221 0.36423 0.0
C665 C 0.33174 0.03284 0.37553 0.0
H666 H 0.30997 0.00382 0.37647 0.0
H667 H 0.33644 0.02087 0.34951 0.0
C668 C 0.33484 0.97819 0.32342 0.0
N669 N 0.33672 0.98661 0.33213 0.0
C670 C 0.34427 0.97896 0.31669 0.0
C671 C 0.35732 0.99747 0.3274 0.0
C672 C 0.34764 0.99625 0.33402 0.0
C673 C 0.35574 0.98867 0.31869 0.0
H674 H 0.32602 0.97084 0.32167 0.0
H675 H 0.34883 0.00312 0.34053 0.0
O676 O 0.30092 0.98372 0.35836 0.0
O677 O 0.30856 0.9695 0.34087 0.0
O678 O 0.31779 0.99557 0.33574 0.0
O679 O 0.32581 0.98846 0.35971 0.0
H680 H 0.28287 0.96224 0.36245 0.0
H681 H 0.29278 0.99831 0.35497 0.0
H682 H 0.26181 0.9569 0.36244 0.0
H683 H 0.27155 0.99233 0.35498 0.0
H684 H 0.32678 0.94835 0.34783 0.0
H685 H 0.29348 0.94998 0.32844 0.0
H686 H 0.32572 0.96667 0.35005 0.0
H687 H 0.29513 0.93197 0.32646 0.0
H688 H 0.26497 0.95021 0.32223 0.0
H689 H 0.28039 0.98424 0.3045 0.0
H690 H 0.3079 0.96175 0.40199 0.0
H691 H 0.2884 0.93371 0.37487 0.0
H692 H 0.337 0.00878 0.32269 0.0
H693 H 0.30588 0.00685 0.33816 0.0
H694 H 0.34282 0.02863 0.31454 0.0
H695 H 0.31221 0.02672 0.32973 0.0
H696 H 0.34486 0.00988 0.36145 0.0
H697 H 0.33057 0.97322 0.37056 0.0
H698 H 0.36382 0.01452 0.37143 0.0
H699 H 0.34981 0.97847 0.38025 0.0
H700 H 0.31776 0.02242 0.38859 0.0
H701 H 0.34427 0.03995 0.36038 0.0
H702 H 0.34258 0.97192 0.31014 0.0
H703 H 0.36591 0.00527 0.32902 0.0
Li704 Li 0.0252 0.32783 0.33403 0.0
Li705 Li 0.03234 0.33962 0.35268 0.0
Li706 Li 0.01027 0.32581 0.34886 0.0
Li707 Li 0.0224 0.34452 0.33703 0.0
C708 C 0.02394 0.31204 0.35111 0.0
N709 N 0.02589 0.29198 0.35063 0.0
C710 C 0.0349 0.31299 0.34908 0.0
C711 C 0.01396 0.30088 0.35288 0.0
C712 C 0.0357 0.30274 0.34886 0.0
C713 C 0.01513 0.29085 0.35261 0.0
C714 C 0.0494 0.35164 0.33673 0.0
C715 C 0.06669 0.37002 0.34315 0.0
N716 N 0.07364 0.36549 0.33988 0.0
C717 C 0.05672 0.34718 0.33342 0.0
C718 C 0.05443 0.36317 0.3416 0.0
C719 C 0.06895 0.35432 0.33509 0.0
C720 C 0.03547 0.32684 0.31182 0.0
N721 N 0.0285 0.31975 0.32101 0.0
C722 C 0.02736 0.30278 0.31095 0.0
C723 C 0.02408 0.30784 0.32049 0.0
C724 C 0.03501 0.31 0.30163 0.0
C725 C 0.03883 0.32216 0.30202 0.0
H726 H 0.03847 0.33621 0.31214 0.0
H727 H 0.01804 0.30222 0.32747 0.0
C728 C 0.04302 0.35194 0.37529 0.0
N729 N 0.0442 0.34589 0.36556 0.0
C730 C 0.05166 0.35681 0.3847 0.0
C731 C 0.06255 0.34914 0.3739 0.0
C732 C 0.05363 0.34426 0.36485 0.0
C733 C 0.06164 0.35554 0.38396 0.0
H734 H 0.03537 0.35299 0.37575 0.0
H735 H 0.05432 0.33926 0.35721 0.0
C736 C 0.00628 0.32178 0.3204 0.0
N737 N 0.99855 0.30808 0.29891 0.0
C738 C 0.00957 0.32713 0.30882 0.0
C739 C 0.999 0.30949 0.32109 0.0
C740 C 0.00559 0.32003 0.29805 0.0
C741 C 0.9952 0.30271 0.31011 0.0
C742 C 0.01618 0.35118 0.35743 0.0
C743 C 0.00433 0.34805 0.3585 0.0
C744 C 0.02503 0.36311 0.35831 0.0
C745 C 0.00152 0.35693 0.36026 0.0
C746 C 0.02187 0.37173 0.36005 0.0
N747 N 0.01028 0.36849 0.36097 0.0
C748 C 0.99439 0.31087 0.36713 0.0
C749 C 0.98562 0.31457 0.34978 0.0
C750 C 0.98331 0.30388 0.37246 0.0
N751 N 0.9953 0.31598 0.35597 0.0
C752 C 0.97439 0.3078 0.35484 0.0
C753 C 0.9731 0.30231 0.36634 0.0
H754 H 0.00228 0.31222 0.37186 0.0
H755 H 0.98665 0.3189 0.34099 0.0
C756 C 0.03106 0.36573 0.32357 0.0
N757 N 0.02128 0.35662 0.3287 0.0
C758 C 0.03026 0.37448 0.31714 0.0
C759 C 0.00929 0.36423 0.32123 0.0
C760 C 0.0105 0.35564 0.32754 0.0
C761 C 0.01926 0.3738 0.31591 0.0
H762 H 0.03947 0.36615 0.32436 0.0
H763 H 0.00281 0.34813 0.33145 0.0
O764 O 0.02297 0.32196 0.35149 0.0
O765 O 0.03739 0.34476 0.33525 0.0
O766 O 0.01039 0.32852 0.33103 0.0
O767 O 0.01909 0.34263 0.35542 0.0
H768 H 0.04265 0.32149 0.34743 0.0
H769 H 0.00538 0.29995 0.35434 0.0
H770 H 0.04412 0.30335 0.34722 0.0
H771 H 0.00748 0.28216 0.35395 0.0
H772 H 0.07068 0.37893 0.34696 0.0
H773 H 0.05302 0.33823 0.32984 0.0
H774 H 0.04893 0.36677 0.34424 0.0
H775 H 0.07471 0.35095 0.33263 0.0
H776 H 0.02411 0.29336 0.31104 0.0
H777 H 0.04437 0.32804 0.29484 0.0
H778 H 0.05065 0.36169 0.39234 0.0
H779 H 0.07004 0.34782 0.37311 0.0
H780 H 0.01525 0.33663 0.30817 0.0
H781 H 0.99646 0.30523 0.33001 0.0
H782 H 0.00812 0.32403 0.28901 0.0
H783 H 0.98962 0.29318 0.31048 0.0
H784 H 0.99737 0.33887 0.35789 0.0
H785 H 0.03424 0.36569 0.3576 0.0
H786 H 0.99239 0.35463 0.36102 0.0
H787 H 0.02862 0.381 0.36067 0.0
H788 H 0.98277 0.2997 0.38124 0.0
H789 H 0.96686 0.30708 0.34987 0.0
H790 H 0.03818 0.38176 0.31325 0.0
H791 H 0.00061 0.36326 0.32033 0.0
Li792 Li 0.67253 0.98857 0.34926 0.0
Li793 Li 0.65908 0.96772 0.35288 0.0
Li794 Li 0.67094 0.97394 0.33387 0.0
Li795 Li 0.65431 0.97735 0.3365 0.0
C796 C 0.68778 0.97971 0.35522 0.0
N797 N 0.7107 0.98763 0.36315 0.0
C798 C 0.68996 0.977 0.3671 0.0
C799 C 0.69725 0.98632 0.34732 0.0
C800 C 0.70161 0.98113 0.37096 0.0
C801 C 0.70877 0.99027 0.35151 0.0
C802 C 0.65543 0.98344 0.36712 0.0
C803 C 0.64687 0.98861 0.38412 0.0
N804 N 0.65498 0.98861 0.39204 0.0
C805 C 0.66366 0.98346 0.37544 0.0
C806 C 0.64695 0.98601 0.3715 0.0
C807 C 0.6633 0.98611 0.38799 0.0
C808 C 0.6798 0.01227 0.3527 0.0
N809 N 0.68231 0.00393 0.35656 0.0
C810 C 0.6972 0.01791 0.37055 0.0
C811 C 0.69081 0.00651 0.36533 0.0
C812 C 0.69475 0.02671 0.36681 0.0
C813 C 0.68593 0.02375 0.35771 0.0
H814 H 0.67289 0.00991 0.34582 0.0
H815 H 0.69254 0.99974 0.36845 0.0
C816 C 0.65838 0.94959 0.36709 0.0
N817 N 0.65273 0.95571 0.36503 0.0
C818 C 0.65417 0.94072 0.37598 0.0
C819 C 0.63833 0.94455 0.38033 0.0
C820 C 0.64287 0.95337 0.3714 0.0
C821 C 0.64402 0.93811 0.38274 0.0
H822 H 0.66616 0.95161 0.36181 0.0
H823 H 0.63853 0.95836 0.36957 0.0
C824 C 0.67779 0.99614 0.32236 0.0
N825 N 0.69257 0.01146 0.30457 0.0
C826 C 0.67334 0.99623 0.31057 0.0
C827 C 0.68971 0.00402 0.32519 0.0
C828 C 0.68097 0.00398 0.30167 0.0
C829 C 0.69705 0.01165 0.31605 0.0
C830 C 0.64244 0.95264 0.33543 0.0
C831 C 0.63955 0.94206 0.3292 0.0
C832 C 0.63367 0.95362 0.34174 0.0
C833 C 0.62789 0.9326 0.3294 0.0
C834 C 0.62213 0.94396 0.34172 0.0
N835 N 0.6195 0.93374 0.3356 0.0
C836 C 0.68468 0.96407 0.32579 0.0
C837 C 0.67745 0.97095 0.30968 0.0
C838 C 0.68993 0.96017 0.31714 0.0
N839 N 0.6787 0.96945 0.32195 0.0
C840 C 0.68256 0.96721 0.3007 0.0
C841 C 0.68887 0.96169 0.30438 0.0
H842 H 0.68521 0.96262 0.33559 0.0
H843 H 0.6723 0.97486 0.30683 0.0
C844 C 0.63713 0.98394 0.33334 0.0
N845 N 0.64238 0.97846 0.32772 0.0
C846 C 0.62866 0.98534 0.32694 0.0
C847 C 0.6312 0.97548 0.30906 0.0
C848 C 0.63954 0.97415 0.31587 0.0
C849 C 0.62568 0.98118 0.3146 0.0
H850 H 0.63967 0.98737 0.34273 0.0
H851 H 0.64389 0.96984 0.31166 0.0
O852 O 0.67642 0.97576 0.35135 0.0
O853 O 0.65559 0.98085 0.35478 0.0
O854 O 0.6704 0.98867 0.33121 0.0
O855 O 0.65383 0.96192 0.33535 0.0
H856 H 0.68273 0.97183 0.37332 0.0
H857 H 0.69571 0.98825 0.338 0.0
H858 H 0.70343 0.97916 0.38015 0.0
H859 H 0.71618 0.99541 0.34548 0.0
H860 H 0.64035 0.99062 0.38763 0.0
H861 H 0.67024 0.98143 0.37227 0.0
H862 H 0.64047 0.98597 0.36522 0.0
H863 H 0.66963 0.98616 0.39451 0.0
H864 H 0.70399 0.0198 0.37746 0.0
H865 H 0.68356 0.03014 0.35469 0.0
H866 H 0.65874 0.93588 0.37742 0.0
H867 H 0.63056 0.94292 0.38543 0.0
H868 H 0.66411 0.9903 0.30827 0.0
H869 H 0.69325 0.00435 0.33437 0.0
H870 H 0.67766 0.00406 0.29247 0.0
H871 H 0.7063 0.01776 0.3181 0.0
H872 H 0.64625 0.94116 0.32428 0.0
H873 H 0.63574 0.96172 0.34664 0.0
H874 H 0.62552 0.92435 0.32462 0.0
H875 H 0.61526 0.9446 0.34658 0.0
H876 H 0.6945 0.95575 0.32039 0.0
H877 H 0.68156 0.96861 0.29099 0.0
H878 H 0.62473 0.98993 0.33148 0.0
H879 H 0.62908 0.97209 0.29959 0.0
Li880 Li 0.03103 0.69413 0.35156 0.0
Li881 Li 0.01013 0.68693 0.34693 0.0
Li882 Li 0.02172 0.67985 0.33449 0.0
Li883 Li 0.02497 0.69986 0.3317 0.0
C884 C 0.0193 0.67269 0.36265 0.0
N885 N 0.02326 0.66307 0.38355 0.0
C886 C 0.01251 0.67083 0.37327 0.0
C887 C 0.02796 0.66948 0.3626 0.0
C888 C 0.01468 0.666 0.38376 0.0
C889 C 0.02987 0.66468 0.37326 0.0
C890 C 0.01922 0.71041 0.35485 0.0
C891 C 0.00951 0.72185 0.35367 0.0
N892 N 0.01117 0.72406 0.36612 0.0
C893 C 0.02101 0.71296 0.3676 0.0
C894 C 0.01358 0.71503 0.34779 0.0
C895 C 0.0168 0.7198 0.37314 0.0
C896 C 0.05428 0.70519 0.36137 0.0
N897 N 0.04268 0.69967 0.36451 0.0
C898 C 0.04782 0.70236 0.38612 0.0
C899 C 0.03934 0.6983 0.37659 0.0
C900 C 0.05988 0.70802 0.38319 0.0
C901 C 0.06307 0.70942 0.37061 0.0
H902 H 0.05673 0.70641 0.3517 0.0
H903 H 0.03008 0.69408 0.37886 0.0
C904 C 0.98518 0.67458 0.34726 0.0
N905 N 0.99504 0.68203 0.35403 0.0
C906 C 0.97398 0.67012 0.35237 0.0
C907 C 0.98324 0.68092 0.37142 0.0
C908 C 0.99427 0.68525 0.3659 0.0
C909 C 0.97291 0.67319 0.36466 0.0
H910 H 0.98601 0.67182 0.338 0.0
H911 H 0.00221 0.69083 0.37125 0.0
C912 C 0.04462 0.69294 0.32776 0.0
N913 N 0.05976 0.6883 0.31426 0.0
C914 C 0.0472 0.69657 0.31544 0.0
C915 C 0.04991 0.68714 0.33327 0.0
C916 C 0.05483 0.69409 0.30876 0.0
C917 C 0.05749 0.68482 0.32628 0.0
C918 C 0.00341 0.68499 0.31934 0.0
C919 C 0.00215 0.67917 0.30796 0.0
C920 C 0.99752 0.69127 0.32121 0.0
C921 C 0.99522 0.67995 0.29854 0.0
C922 C 0.99066 0.69183 0.31157 0.0
N923 N 0.98968 0.68622 0.30052 0.0
C924 C 0.01655 0.65618 0.33178 0.0
C925 C 0.02342 0.66752 0.31352 0.0
C926 C 0.01505 0.64614 0.32541 0.0
N927 N 0.02067 0.66659 0.32578 0.0
C928 C 0.02206 0.65771 0.30678 0.0
C929 C 0.01773 0.6468 0.31271 0.0
H930 H 0.01414 0.65558 0.34144 0.0
H931 H 0.02643 0.67582 0.30889 0.0
C932 C 0.03491 0.72358 0.32391 0.0
N933 N 0.02934 0.71209 0.31991 0.0
C934 C 0.03882 0.73272 0.31535 0.0
C935 C 0.03121 0.71802 0.29875 0.0
C936 C 0.02746 0.70919 0.30761 0.0
C937 C 0.03707 0.72998 0.30256 0.0
H938 H 0.03651 0.72565 0.33374 0.0
H939 H 0.02335 0.70003 0.30464 0.0
O940 O 0.01737 0.6775 0.35232 0.0
O941 O 0.02328 0.70371 0.34928 0.0
O942 O 0.0371 0.69521 0.33443 0.0
O943 O 0.01022 0.68438 0.32864 0.0
H944 H 0.00568 0.67312 0.37345 0.0
H945 H 0.03311 0.67061 0.35439 0.0
H946 H 0.00955 0.66458 0.39207 0.0
H947 H 0.03659 0.66221 0.37336 0.0
H948 H 0.00508 0.72544 0.34832 0.0
H949 H 0.02549 0.70959 0.37318 0.0
H950 H 0.01246 0.7135 0.33786 0.0
H951 H 0.01803 0.72174 0.38302 0.0
H952 H 0.04493 0.70098 0.39568 0.0
H953 H 0.07226 0.71392 0.3679 0.0
H954 H 0.96625 0.66399 0.34693 0.0
H955 H 0.98281 0.68349 0.38093 0.0
H956 H 0.04331 0.70118 0.31106 0.0
H957 H 0.04826 0.68452 0.34286 0.0
H958 H 0.05682 0.69678 0.29919 0.0
H959 H 0.0616 0.68029 0.33042 0.0
H960 H 0.00651 0.67415 0.30638 0.0
H961 H 0.9981 0.69552 0.33006 0.0
H962 H 0.99424 0.67555 0.28966 0.0
H963 H 0.98608 0.69669 0.3129 0.0
H964 H 0.01147 0.63786 0.3303 0.0
H965 H 0.02429 0.65863 0.29702 0.0
H966 H 0.04345 0.74182 0.3187 0.0
H967 H 0.02957 0.71548 0.289 0.0
Li968 Li 0.31146 0.33831 0.35227 0.0
Li969 Li 0.31726 0.32393 0.34806 0.0
Li970 Li 0.32612 0.34223 0.33681 0.0
Li971 Li 0.30579 0.32728 0.33294 0.0
C972 C 0.32973 0.33982 0.36711 0.0
N973 N 0.3347 0.33882 0.39189 0.0
C974 C 0.32062 0.33277 0.37523 0.0
C975 C 0.34136 0.34635 0.37159 0.0
C976 C 0.32332 0.33239 0.38772 0.0
C977 C 0.34369 0.34573 0.38415 0.0
C978 C 0.29298 0.30901 0.3491 0.0
C979 C 0.28694 0.28961 0.34054 0.0
N980 N 0.27691 0.28498 0.34736 0.0
C981 C 0.28262 0.30406 0.35603 0.0
C982 C 0.29518 0.30173 0.34129 0.0
C983 C 0.2746 0.2919 0.35503 0.0
C984 C 0.2945 0.34026 0.3662 0.0
N985 N 0.30634 0.34517 0.36467 0.0
C986 C 0.31033 0.35935 0.38094 0.0
C987 C 0.31426 0.35456 0.37176 0.0
C988 C 0.29814 0.3544 0.38284 0.0
C989 C 0.29018 0.34475 0.37529 0.0
H990 H 0.28842 0.33283 0.36036 0.0
H991 H 0.32364 0.35828 0.37038 0.0
C992 C 0.33099 0.31351 0.35049 0.0
N993 N 0.32119 0.31314 0.35512 0.0
C994 C 0.33539 0.30686 0.35587 0.0
C995 C 0.31942 0.29944 0.3706 0.0
C996 C 0.31528 0.30619 0.36488 0.0
C997 C 0.32969 0.29984 0.36619 0.0
H998 H 0.3356 0.31927 0.34285 0.0
H999 H 0.30756 0.30615 0.36844 0.0
C1000 C 0.31585 0.35634 0.33619 0.0
N1001 N 0.32284 0.38009 0.33799 0.0
C1002 C 0.30946 0.36065 0.32996 0.0
C1003 C 0.3258 0.36412 0.34332 0.0
C1004 C 0.31314 0.37268 0.33099 0.0
C1005 C 0.32919 0.37609 0.34412 0.0
C1006 C 0.32266 0.32661 0.31764 0.0
C1007 C 0.32044 0.33371 0.30978 0.0
C1008 C 0.32771 0.32024 0.31284 0.0
C1009 C 0.32331 0.33429 0.29722 0.0
C1010 C 0.33045 0.32106 0.30022 0.0
N1011 N 0.32821 0.32802 0.29274 0.0
C1012 C 0.3502 0.35278 0.33349 0.0
C1013 C 0.34148 0.36069 0.32029 0.0
C1014 C 0.36116 0.35968 0.32795 0.0
N1015 N 0.34065 0.35334 0.32953 0.0
C1016 C 0.35229 0.36777 0.31447 0.0
C1017 C 0.36229 0.3672 0.31819 0.0
H1018 H 0.34919 0.34669 0.34073 0.0
H1019 H 0.3337 0.36084 0.31721 0.0
C1020 C 0.28549 0.32396 0.32062 0.0
N1021 N 0.29342 0.32017 0.3208 0.0
C1022 C 0.27639 0.31945 0.31173 0.0
C1023 C 0.28376 0.3072 0.3034 0.0
C1024 C 0.29262 0.31183 0.31256 0.0
C1025 C 0.27555 0.31107 0.30288 0.0
H1026 H 0.28633 0.33057 0.32734 0.0
H1027 H 0.29892 0.30882 0.313 0.0
O1028 O 0.32738 0.34029 0.35479 0.0
O1029 O 0.30086 0.32093 0.35003 0.0
O1030 O 0.31227 0.34456 0.33527 0.0
O1031 O 0.32008 0.32598 0.33002 0.0
H1032 H 0.31157 0.32763 0.37194 0.0
H1033 H 0.3485 0.35184 0.36541 0.0
H1034 H 0.31636 0.32696 0.3941 0.0
H1035 H 0.35265 0.35075 0.38775 0.0
H1036 H 0.28853 0.28388 0.33454 0.0
H1037 H 0.2808 0.30958 0.36213 0.0
H1038 H 0.30315 0.30535 0.33589 0.0
H1039 H 0.26654 0.28795 0.36034 0.0
H1040 H 0.31678 0.36669 0.38666 0.0
H1041 H 0.28072 0.34076 0.37634 0.0
H1042 H 0.34343 0.30758 0.3523 0.0
H1043 H 0.31472 0.29407 0.37848 0.0
H1044 H 0.30174 0.35474 0.3244 0.0
H1045 H 0.33088 0.36098 0.34819 0.0
H1046 H 0.30827 0.37613 0.32622 0.0
H1047 H 0.33687 0.3822 0.34962 0.0
H1048 H 0.31655 0.33871 0.31331 0.0
H1049 H 0.3295 0.31473 0.31881 0.0
H1050 H 0.32164 0.33975 0.29104 0.0
H1051 H 0.33437 0.31618 0.29638 0.0
H1052 H 0.36854 0.35878 0.33097 0.0
H1053 H 0.35279 0.3735 0.30705 0.0
H1054 H 0.27025 0.32268 0.31159 0.0
H1055 H 0.2833 0.30064 0.29683 0.0
Li1056 Li 0.32466 0.00568 0.66886 0.0
Li1057 Li 0.34354 0.01679 0.68133 0.0
Li1058 Li 0.32796 0.02103 0.68357 0.0
Li1059 Li 0.33899 0.02697 0.66491 0.0
C1060 C 0.32082 0.00272 0.69748 0.0
N1061 N 0.30754 0.99742 0.71879 0.0
C1062 C 0.32641 0.00591 0.70913 0.0
C1063 C 0.30849 0.99676 0.69665 0.0
C1064 C 0.31954 0.00317 0.7198 0.0
C1065 C 0.30193 0.99418 0.70754 0.0
C1066 C 0.34629 0.00811 0.65634 0.0
C1067 C 0.36037 0.00923 0.64126 0.0
N1068 N 0.35614 0.99743 0.64249 0.0
C1069 C 0.34206 0.99598 0.65741 0.0
C1070 C 0.35549 0.01479 0.64817 0.0
C1071 C 0.34717 0.99075 0.65035 0.0
C1072 C 0.31029 0.99008 0.64947 0.0
N1073 N 0.31399 0.99078 0.66143 0.0
C1074 C 0.30342 0.9697 0.66287 0.0
C1075 C 0.31065 0.98092 0.66819 0.0
C1076 C 0.29953 0.96862 0.65047 0.0
C1077 C 0.30299 0.97902 0.64378 0.0
H1078 H 0.31314 0.99811 0.64432 0.0
H1079 H 0.31386 0.98176 0.67764 0.0
C1080 C 0.36074 0.02298 0.7 0.0
N1081 N 0.35566 0.01564 0.68998 0.0
C1082 C 0.36973 0.02277 0.70675 0.0
C1083 C 0.36783 0.0071 0.69308 0.0
C1084 C 0.35893 0.00769 0.68652 0.0
C1085 C 0.37343 0.01478 0.70331 0.0
H1086 H 0.35783 0.02906 0.70274 0.0
H1087 H 0.3546 0.00173 0.67875 0.0
C1088 C 0.3178 0.02661 0.66358 0.0
N1089 N 0.31069 0.04254 0.65757 0.0
C1090 C 0.32355 0.038 0.6689 0.0
C1091 C 0.30843 0.02332 0.6552 0.0
C1092 C 0.31983 0.04593 0.66575 0.0
C1093 C 0.30497 0.0315 0.65228 0.0
C1094 C 0.35665 0.04135 0.68193 0.0
C1095 C 0.36071 0.05164 0.6892 0.0
C1096 C 0.36457 0.03998 0.67443 0.0
C1097 C 0.37265 0.06042 0.68883 0.0
C1098 C 0.37644 0.04896 0.67432 0.0
N1099 N 0.3802 0.05891 0.68146 0.0
C1100 C 0.32743 0.03223 0.70559 0.0
C1101 C 0.3092 0.02313 0.69448 0.0
C1102 C 0.32288 0.03647 0.71467 0.0
N1103 N 0.32061 0.02578 0.69573 0.0
C1104 C 0.30431 0.02729 0.70331 0.0
C1105 C 0.31122 0.03416 0.71353 0.0
H1106 H 0.33645 0.0341 0.70637 0.0
H1107 H 0.30396 0.01794 0.68655 0.0
C1108 C 0.3442 0.03475 0.64011 0.0
N1109 N 0.34523 0.03847 0.65215 0.0
C1110 C 0.34827 0.04296 0.63054 0.0
C1111 C 0.35433 0.05866 0.64593 0.0
C1112 C 0.35013 0.05016 0.65518 0.0
C1113 C 0.35339 0.05511 0.63339 0.0
H1114 H 0.34009 0.02538 0.63796 0.0
H1115 H 0.35064 0.05291 0.66477 0.0
O1116 O 0.3274 0.00562 0.68692 0.0
O1117 O 0.34125 0.01337 0.66298 0.0
O1118 O 0.32132 0.01869 0.66642 0.0
O1119 O 0.34497 0.03272 0.68224 0.0
H1120 H 0.33596 0.01056 0.70991 0.0
H1121 H 0.30404 0.99432 0.68768 0.0
H1122 H 0.32374 0.00564 0.72889 0.0
H1123 H 0.29237 0.98965 0.70705 0.0
H1124 H 0.3675 0.0143 0.63492 0.0
H1125 H 0.33503 0.9907 0.66377 0.0
H1126 H 0.35883 0.02417 0.64715 0.0
H1127 H 0.34402 0.98139 0.65114 0.0
H1128 H 0.3012 0.96197 0.66833 0.0
H1129 H 0.30011 0.97862 0.63425 0.0
H1130 H 0.37384 0.02896 0.71447 0.0
H1131 H 0.37021 0.00063 0.69022 0.0
H1132 H 0.33082 0.04072 0.67541 0.0
H1133 H 0.30391 0.01454 0.65099 0.0
H1134 H 0.32421 0.05477 0.66979 0.0
H1135 H 0.29774 0.02908 0.64581 0.0
H1136 H 0.35469 0.05284 0.69506 0.0
H1137 H 0.36163 0.03208 0.66881 0.0
H1138 H 0.37591 0.06844 0.69441 0.0
H1139 H 0.38266 0.04801 0.66857 0.0
H1140 H 0.32847 0.04149 0.72251 0.0
H1141 H 0.29532 0.02537 0.70196 0.0
H1142 H 0.34719 0.0398 0.621 0.0
H1143 H 0.35832 0.06791 0.6486 0.0
Li1144 Li 0.99781 0.31884 0.67007 0.0
Li1145 Li 0.98657 0.3252 0.68305 0.0
Li1146 Li 0.98254 0.3047 0.68335 0.0
Li1147 Li 0.97699 0.31215 0.66538 0.0
C1148 C 0.0084 0.32403 0.69265 0.0
N1149 N 0.03168 0.33388 0.70032 0.0
C1150 C 0.01451 0.33556 0.69759 0.0
C1151 C 0.01409 0.31746 0.69172 0.0
C1152 C 0.02629 0.34039 0.7014 0.0
C1153 C 0.02587 0.32262 0.6956 0.0
C1154 C 0.98897 0.33274 0.65466 0.0
C1155 C 0.97842 0.33998 0.64269 0.0
N1156 N 0.98452 0.34016 0.63242 0.0
C1157 C 0.99518 0.33306 0.64401 0.0
C1158 C 0.98057 0.33629 0.65403 0.0
C1159 C 0.9928 0.33683 0.63285 0.0
C1160 C 0.01407 0.31714 0.65416 0.0
N1161 N 0.0128 0.32407 0.66279 0.0
C1162 C 0.03286 0.33943 0.66026 0.0
C1163 C 0.02186 0.33509 0.66579 0.0
C1164 C 0.03448 0.33258 0.65116 0.0
C1165 C 0.02485 0.32125 0.64815 0.0
H1166 H 0.00661 0.30852 0.65173 0.0
H1167 H 0.02051 0.34055 0.67241 0.0
C1168 C 0.9853 0.33647 0.70518 0.0
N1169 N 0.98776 0.33796 0.69286 0.0
C1170 C 0.98562 0.3456 0.71235 0.0
C1171 C 0.99187 0.35792 0.69421 0.0
C1172 C 0.99118 0.34847 0.68735 0.0
C1173 C 0.98887 0.35652 0.70687 0.0
H1174 H 0.98289 0.32811 0.7094 0.0
H1175 H 0.99337 0.3495 0.6776 0.0
C1176 C 0.98177 0.29117 0.66455 0.0
N1177 N 0.97477 0.2674 0.66361 0.0
C1178 C 0.97046 0.28283 0.66019 0.0
C1179 C 0.98956 0.28745 0.66833 0.0
C1180 C 0.96708 0.27085 0.65981 0.0
C1181 C 0.98584 0.27538 0.66782 0.0
C1182 C 0.96433 0.31222 0.69062 0.0
C1183 C 0.96186 0.30695 0.70228 0.0
C1184 C 0.96019 0.31985 0.68758 0.0
C1185 C 0.95534 0.30946 0.71074 0.0
C1186 C 0.95372 0.32215 0.69631 0.0
N1187 N 0.95145 0.31695 0.70762 0.0
C1188 C 0.98448 0.29177 0.70322 0.0
C1189 C 0.96634 0.28201 0.69195 0.0
C1190 C 0.98024 0.28255 0.7117 0.0
N1191 N 0.97748 0.29136 0.69367 0.0
C1192 C 0.96177 0.27258 0.70016 0.0
C1193 C 0.96867 0.27287 0.71034 0.0
H1194 H 0.9932 0.29944 0.70453 0.0
H1195 H 0.96088 0.28205 0.68442 0.0
C1196 C 0.96846 0.30653 0.6406 0.0
N1197 N 0.96554 0.30773 0.65242 0.0
C1198 C 0.96008 0.30297 0.63099 0.0
C1199 C 0.94582 0.30174 0.64596 0.0
C1200 C 0.95448 0.30537 0.65525 0.0
C1201 C 0.94856 0.30047 0.63362 0.0
H1202 H 0.97728 0.30828 0.63865 0.0
H1203 H 0.95232 0.30612 0.66476 0.0
O1204 O 0.99689 0.31917 0.68882 0.0
O1205 O 0.99099 0.32885 0.66561 0.0
O1206 O 0.98519 0.30291 0.66516 0.0
O1207 O 0.97079 0.30996 0.68224 0.0
H1208 H 0.01023 0.34076 0.69841 0.0
H1209 H 0.00947 0.30852 0.68794 0.0
H1210 H 0.03114 0.34932 0.70519 0.0
H1211 H 0.03041 0.31766 0.69486 0.0
H1212 H 0.97189 0.34267 0.64205 0.0
H1213 H 0.0017 0.33033 0.64433 0.0
H1214 H 0.97568 0.33609 0.66219 0.0
H1215 H 0.9975 0.33706 0.62452 0.0
H1216 H 0.03999 0.34811 0.66312 0.0
H1217 H 0.0255 0.31571 0.64102 0.0
H1218 H 0.98309 0.34397 0.722 0.0
H1219 H 0.99475 0.36624 0.68961 0.0
H1220 H 0.96432 0.28557 0.65724 0.0
H1221 H 0.99836 0.29381 0.67167 0.0
H1222 H 0.95833 0.26428 0.65652 0.0
H1223 H 0.99175 0.27237 0.67078 0.0
H1224 H 0.96503 0.30107 0.70483 0.0
H1225 H 0.96207 0.32405 0.67863 0.0
H1226 H 0.95341 0.30548 0.71981 0.0
H1227 H 0.95054 0.32809 0.69412 0.0
H1228 H 0.9858 0.28326 0.71952 0.0
H1229 H 0.95285 0.26525 0.69867 0.0
H1230 H 0.96263 0.30222 0.62162 0.0
H1231 H 0.937 0.29968 0.64847 0.0
Li1232 Li 0.68104 0.67418 0.66744 0.0
Li1233 Li 0.67253 0.65616 0.67894 0.0
Li1234 Li 0.69316 0.67185 0.68227 0.0
Li1235 Li 0.6876 0.65982 0.66317 0.0
C1236 C 0.67389 0.67938 0.68753 0.0
N1237 N 0.66398 0.69354 0.69024 0.0
C1238 C 0.66161 0.67427 0.68802 0.0
C1239 C 0.68113 0.6917 0.68845 0.0
C1240 C 0.65678 0.68158 0.6894 0.0
C1241 C 0.67595 0.6987 0.68979 0.0
C1242 C 0.66418 0.64718 0.65464 0.0
C1243 C 0.6582 0.62681 0.64996 0.0
N1244 N 0.64973 0.62607 0.64205 0.0
C1245 C 0.65547 0.64624 0.64641 0.0
C1246 C 0.6656 0.63741 0.6564 0.0
C1247 C 0.64822 0.63548 0.64016 0.0
C1248 C 0.68493 0.69581 0.65666 0.0
N1249 N 0.67681 0.68452 0.65971 0.0
C1250 C 0.66103 0.68695 0.65221 0.0
C1251 C 0.66508 0.67998 0.6575 0.0
C1252 C 0.66916 0.69871 0.64908 0.0
C1253 C 0.68127 0.70312 0.6513 0.0
H1254 H 0.69421 0.69917 0.65847 0.0
H1255 H 0.65885 0.67095 0.66 0.0
C1256 C 0.6588 0.6474 0.70007 0.0
N1257 N 0.65865 0.64496 0.68771 0.0
C1258 C 0.64887 0.64064 0.70731 0.0
C1259 C 0.63875 0.6288 0.68908 0.0
C1260 C 0.64887 0.63582 0.68217 0.0
C1261 C 0.63861 0.63127 0.70179 0.0
H1262 H 0.66654 0.65488 0.70423 0.0
H1263 H 0.64866 0.63413 0.67234 0.0
C1264 C 0.70913 0.68502 0.66619 0.0
N1265 N 0.73312 0.70017 0.66982 0.0
C1266 C 0.71716 0.68155 0.66252 0.0
C1267 C 0.71331 0.69623 0.67161 0.0
C1268 C 0.72925 0.68934 0.66445 0.0
C1269 C 0.72547 0.70375 0.67341 0.0
C1270 C 0.68508 0.64708 0.68996 0.0
C1271 C 0.68592 0.65108 0.70224 0.0
C1272 C 0.6823 0.63542 0.68758 0.0
C1273 C 0.68392 0.64332 0.71194 0.0
C1274 C 0.68036 0.62793 0.69754 0.0
N1275 N 0.6812 0.632 0.70941 0.0
C1276 C 0.70616 0.68699 0.7029 0.0
C1277 C 0.7139 0.67569 0.69404 0.0
C1278 C 0.71526 0.69186 0.71181 0.0
N1279 N 0.70569 0.67909 0.69425 0.0
C1280 C 0.72312 0.68031 0.70276 0.0
C1281 C 0.72386 0.68848 0.71184 0.0
H1282 H 0.69938 0.68936 0.70302 0.0
H1283 H 0.71322 0.6693 0.6871 0.0
C1284 C 0.69185 0.65549 0.63872 0.0
N1285 N 0.69289 0.65323 0.65079 0.0
C1286 C 0.6961 0.65127 0.62929 0.0
C1287 C 0.70231 0.64238 0.64493 0.0
C1288 C 0.69795 0.64679 0.65406 0.0
C1289 C 0.70148 0.64467 0.63234 0.0
H1290 H 0.68786 0.66072 0.63645 0.0
H1291 H 0.69872 0.64522 0.66376 0.0
O1292 O 0.67879 0.67239 0.68586 0.0
O1293 O 0.67152 0.65775 0.66058 0.0
O1294 O 0.69724 0.67742 0.66464 0.0
O1295 O 0.68692 0.65451 0.6803 0.0
H1296 H 0.65585 0.66478 0.68714 0.0
H1297 H 0.69063 0.69583 0.68789 0.0
H1298 H 0.64729 0.67774 0.68973 0.0
H1299 H 0.68144 0.70825 0.69042 0.0
H1300 H 0.65918 0.61917 0.65127 0.0
H1301 H 0.65433 0.65376 0.64484 0.0
H1302 H 0.67227 0.63797 0.66274 0.0
H1303 H 0.64143 0.63462 0.63378 0.0
H1304 H 0.65165 0.68313 0.65048 0.0
H1305 H 0.68781 0.71216 0.64911 0.0
H1306 H 0.64917 0.64283 0.7171 0.0
H1307 H 0.63095 0.6218 0.68439 0.0
H1308 H 0.71409 0.67292 0.65832 0.0
H1309 H 0.70722 0.69902 0.6746 0.0
H1310 H 0.73556 0.68675 0.6617 0.0
H1311 H 0.72881 0.7124 0.67769 0.0
H1312 H 0.68792 0.66001 0.70429 0.0
H1313 H 0.68165 0.63217 0.67814 0.0
H1314 H 0.68448 0.64628 0.72149 0.0
H1315 H 0.67819 0.61888 0.69582 0.0
H1316 H 0.7154 0.69799 0.71876 0.0
H1317 H 0.72962 0.67754 0.70237 0.0
H1318 H 0.69544 0.65341 0.61975 0.0
H1319 H 0.70627 0.63723 0.6477 0.0
Li1320 Li 0.34393 0.3315 0.68559 0.0
Li1321 Li 0.32863 0.31066 0.68793 0.0
Li1322 Li 0.34172 0.31708 0.66903 0.0
Li1323 Li 0.32601 0.3219 0.67165 0.0
C1324 C 0.35602 0.31972 0.6931 0.0
N1325 N 0.3762 0.3239 0.70574 0.0
C1326 C 0.35572 0.31796 0.70591 0.0
C1327 C 0.36652 0.32333 0.68668 0.0
C1328 C 0.36604 0.32021 0.71215 0.0
C1329 C 0.37664 0.32547 0.69325 0.0
C1330 C 0.31941 0.32263 0.69942 0.0
C1331 C 0.29995 0.31117 0.70812 0.0
N1332 N 0.30397 0.31766 0.71886 0.0
C1333 C 0.32332 0.32925 0.7105 0.0
C1334 C 0.30761 0.31358 0.69817 0.0
C1335 C 0.31539 0.32658 0.72024 0.0
C1336 C 0.35855 0.35632 0.68871 0.0
N1337 N 0.35445 0.34581 0.69452 0.0
C1338 C 0.36378 0.35591 0.7136 0.0
C1339 C 0.35688 0.34543 0.70675 0.0
C1340 C 0.36823 0.36687 0.70777 0.0
C1341 C 0.36562 0.36699 0.69513 0.0
H1342 H 0.35608 0.35647 0.67916 0.0
H1343 H 0.35312 0.33701 0.71131 0.0
C1344 C 0.3157 0.28685 0.6954 0.0
N1345 N 0.32125 0.29825 0.69966 0.0
C1346 C 0.31083 0.27749 0.70374 0.0
C1347 C 0.31729 0.29181 0.72068 0.0
C1348 C 0.32215 0.30087 0.71202 0.0
C1349 C 0.31163 0.2799 0.71661 0.0
H1350 H 0.31529 0.28502 0.68552 0.0
H1351 H 0.32681 0.31 0.7152 0.0
C1352 C 0.35204 0.34044 0.66003 0.0
N1353 N 0.3707 0.35598 0.64553 0.0
C1354 C 0.34991 0.34479 0.64913 0.0
C1355 C 0.36365 0.34409 0.66362 0.0
C1356 C 0.35946 0.35261 0.64191 0.0
C1357 C 0.37297 0.35193 0.65615 0.0
C1358 C 0.31542 0.29996 0.66166 0.0
C1359 C 0.31801 0.29998 0.64908 0.0
C1360 C 0.30366 0.2938 0.66549 0.0
C1361 C 0.30875 0.29398 0.64048 0.0
C1362 C 0.29465 0.28791 0.65661 0.0
N1363 N 0.29736 0.28814 0.64439 0.0
C1364 C 0.35041 0.30265 0.66079 0.0
C1365 C 0.35307 0.3172 0.64623 0.0
C1366 C 0.35519 0.2979 0.65254 0.0
N1367 N 0.34942 0.3121 0.65751 0.0
C1368 C 0.35805 0.31285 0.63777 0.0
C1369 C 0.35904 0.303 0.64085 0.0
H1370 H 0.3473 0.29868 0.66977 0.0
H1371 H 0.35183 0.32442 0.6436 0.0
C1372 C 0.30832 0.32809 0.66886 0.0
N1373 N 0.31531 0.32493 0.66261 0.0
C1374 C 0.30135 0.33155 0.66238 0.0
C1375 C 0.3088 0.32832 0.64312 0.0
C1376 C 0.31563 0.32493 0.64998 0.0
C1377 C 0.30165 0.33186 0.64932 0.0
H1378 H 0.30846 0.32835 0.67889 0.0
H1379 H 0.32147 0.32265 0.64524 0.0
O1380 O 0.34597 0.31744 0.68682 0.0
O1381 O 0.32707 0.32504 0.68983 0.0
O1382 O 0.34277 0.33267 0.66714 0.0
O1383 O 0.32435 0.30585 0.6702 0.0
H1384 H 0.34764 0.315 0.711 0.0
H1385 H 0.36684 0.32438 0.67671 0.0
H1386 H 0.36595 0.319 0.72208 0.0
H1387 H 0.38484 0.32833 0.6884 0.0
H1388 H 0.29082 0.30414 0.70731 0.0
H1389 H 0.33239 0.33636 0.71159 0.0
H1390 H 0.30442 0.30845 0.68963 0.0
H1391 H 0.31832 0.33159 0.72889 0.0
H1392 H 0.36552 0.35545 0.72336 0.0
H1393 H 0.36863 0.37527 0.69038 0.0
H1394 H 0.30676 0.2685 0.70014 0.0
H1395 H 0.318 0.29415 0.73046 0.0
H1396 H 0.34098 0.34212 0.64625 0.0
H1397 H 0.36546 0.34102 0.67215 0.0
H1398 H 0.35794 0.35601 0.63342 0.0
H1399 H 0.382 0.35482 0.65882 0.0
H1400 H 0.32706 0.30467 0.64596 0.0
H1401 H 0.30151 0.29352 0.67522 0.0
H1402 H 0.31063 0.294 0.6307 0.0
H1403 H 0.28551 0.28314 0.65943 0.0
H1404 H 0.35582 0.29029 0.65524 0.0
H1405 H 0.36073 0.31689 0.62874 0.0
H1406 H 0.29618 0.33444 0.66757 0.0
H1407 H 0.30926 0.32836 0.63307 0.0
Li1408 Li 0.68254 0.02264 0.67454 0.0
Li1409 Li 0.70232 0.02573 0.67711 0.0
Li1410 Li 0.69675 0.03134 0.65772 0.0
Li1411 Li 0.6887 0.01038 0.66264 0.0
C1412 C 0.69641 0.04745 0.67639 0.0
N1413 N 0.69338 0.06669 0.67981 0.0
C1414 C 0.70177 0.05518 0.68653 0.0
C1415 C 0.68955 0.04952 0.66797 0.0
C1416 C 0.70011 0.06485 0.68811 0.0
C1417 C 0.68812 0.05929 0.66986 0.0
C1418 C 0.68493 0.00992 0.69346 0.0
C1419 C 0.67663 0.99751 0.71128 0.0
N1420 N 0.68043 0.00734 0.71863 0.0
C1421 C 0.68875 0.01991 0.70118 0.0
C1422 C 0.67881 0.99863 0.69853 0.0
C1423 C 0.68639 0.01842 0.71388 0.0
C1424 C 0.65852 0.01238 0.67905 0.0
N1425 N 0.66922 0.02171 0.68252 0.0
C1426 C 0.66022 0.02782 0.69789 0.0
C1427 C 0.67025 0.02941 0.69172 0.0
C1428 C 0.64904 0.0182 0.69457 0.0
C1429 C 0.64827 0.01048 0.68493 0.0
H1430 H 0.65801 0.00628 0.67186 0.0
H1431 H 0.67886 0.03661 0.69449 0.0
C1432 C 0.72365 0.04194 0.68899 0.0
N1433 N 0.71498 0.03035 0.68868 0.0
C1434 C 0.73281 0.04606 0.69777 0.0
C1435 C 0.72401 0.0262 0.7057 0.0
C1436 C 0.71509 0.02244 0.69667 0.0
C1437 C 0.73297 0.03817 0.70638 0.0
H1438 H 0.72331 0.04802 0.68252 0.0
H1439 H 0.70814 0.01324 0.69618 0.0
C1440 C 0.67256 0.01676 0.64748 0.0
N1441 N 0.65696 0.01362 0.62846 0.0
C1442 C 0.67133 0.00961 0.63716 0.0
C1443 C 0.66573 0.02218 0.64821 0.0
C1444 C 0.66343 0.00817 0.62761 0.0
C1445 C 0.65793 0.02052 0.63847 0.0
C1446 C 0.71255 0.01769 0.66005 0.0
C1447 C 0.72258 0.02208 0.65264 0.0
C1448 C 0.70972 0.00821 0.6679 0.0
C1449 C 0.72962 0.01689 0.65319 0.0
C1450 C 0.71698 0.00327 0.66819 0.0
N1451 N 0.72669 0.00767 0.66089 0.0
C1452 C 0.71087 0.05397 0.64763 0.0
C1453 C 0.69744 0.03957 0.63317 0.0
C1454 C 0.7148 0.06275 0.63866 0.0
N1455 N 0.70221 0.04269 0.64481 0.0
C1456 C 0.70105 0.04806 0.62393 0.0
C1457 C 0.70977 0.05985 0.62666 0.0
H1458 H 0.71462 0.05619 0.65693 0.0
H1459 H 0.69084 0.03051 0.63102 0.0
C1460 C 0.6726 0.98614 0.66063 0.0
N1461 N 0.68274 0.99496 0.65574 0.0
C1462 C 0.66721 0.97472 0.65548 0.0
C1463 C 0.6829 0.98165 0.64045 0.0
C1464 C 0.68797 0.99296 0.64588 0.0
C1465 C 0.6723 0.97236 0.64518 0.0
H1466 H 0.66857 0.98807 0.66837 0.0
H1467 H 0.69596 0.00018 0.64208 0.0
O1468 O 0.69787 0.03789 0.67481 0.0
O1469 O 0.68701 0.01112 0.68096 0.0
O1470 O 0.68016 0.01815 0.65698 0.0
O1471 O 0.70563 0.02274 0.65961 0.0
H1472 H 0.70709 0.05367 0.69314 0.0
H1473 H 0.68546 0.0437 0.66001 0.0
H1474 H 0.70418 0.07089 0.69594 0.0
H1475 H 0.68284 0.06101 0.6634 0.0
H1476 H 0.6719 0.98881 0.71534 0.0
H1477 H 0.69349 0.02873 0.69743 0.0
H1478 H 0.67578 0.99081 0.69267 0.0
H1479 H 0.68929 0.02607 0.71996 0.0
H1480 H 0.6612 0.03401 0.70523 0.0
H1481 H 0.63987 0.00283 0.68223 0.0
H1482 H 0.73952 0.05538 0.69806 0.0
H1483 H 0.7239 0.01982 0.71208 0.0
H1484 H 0.67651 0.00532 0.63645 0.0
H1485 H 0.66636 0.02753 0.65624 0.0
H1486 H 0.66245 0.00273 0.61953 0.0
H1487 H 0.65261 0.02468 0.6389 0.0
H1488 H 0.7249 0.02942 0.64652 0.0
H1489 H 0.70199 0.00467 0.6737 0.0
H1490 H 0.73741 0.0202 0.6475 0.0
H1491 H 0.71488 0.99593 0.67422 0.0
H1492 H 0.72152 0.07174 0.64115 0.0
H1493 H 0.69713 0.04541 0.61472 0.0
H1494 H 0.65896 0.9679 0.65931 0.0
H1495 H 0.68719 0.98021 0.63261 0.0
Li1496 Li 0.97308 0.67478 0.68556 0.0
Li1497 Li 0.97652 0.65831 0.68122 0.0
Li1498 Li 0.9881 0.6775 0.67 0.0
Li1499 Li 0.96722 0.66362 0.6652 0.0
C1500 C 0.99578 0.68149 0.69689 0.0
N1501 N 0.01212 0.696 0.71476 0.0
C1502 C 0.99689 0.67674 0.70803 0.0
C1503 C 0.00314 0.69358 0.69476 0.0
C1504 C 0.00515 0.68423 0.71698 0.0
C1505 C 0.0113 0.70078 0.70392 0.0
C1506 C 0.95431 0.64795 0.68886 0.0
C1507 C 0.9438 0.62671 0.69091 0.0
N1508 N 0.94097 0.62796 0.70276 0.0
C1509 C 0.95122 0.64903 0.70102 0.0
C1510 C 0.9505 0.63671 0.68372 0.0
C1511 C 0.94449 0.63881 0.70791 0.0
C1512 C 0.96158 0.68656 0.69464 0.0
N1513 N 0.96853 0.6821 0.69803 0.0
C1514 C 0.96798 0.68717 0.71933 0.0
C1515 C 0.97172 0.68226 0.71009 0.0
C1516 C 0.96078 0.69186 0.71614 0.0
C1517 C 0.95762 0.69155 0.70358 0.0
H1518 H 0.959 0.68611 0.685 0.0
H1519 H 0.97697 0.67838 0.7126 0.0
C1520 C 0.98223 0.64029 0.68177 0.0
N1521 N 0.97796 0.64601 0.68871 0.0
C1522 C 0.98393 0.63157 0.68706 0.0
C1523 C 0.97668 0.63473 0.70652 0.0
C1524 C 0.97527 0.64348 0.70089 0.0
C1525 C 0.98114 0.62871 0.69959 0.0
H1526 H 0.98445 0.64259 0.67215 0.0
H1527 H 0.97215 0.64835 0.70628 0.0
C1528 C 0.97874 0.69259 0.66568 0.0
N1529 N 0.98612 0.7159 0.66034 0.0
C1530 C 0.97646 0.69553 0.65397 0.0
C1531 C 0.98462 0.70148 0.67473 0.0
C1532 C 0.98031 0.70738 0.65143 0.0
C1533 C 0.98832 0.71322 0.67184 0.0
C1534 C 0.97905 0.65607 0.65181 0.0
C1535 C 0.98539 0.66306 0.6418 0.0
C1536 C 0.97082 0.64406 0.64982 0.0
C1537 C 0.98326 0.65794 0.6299 0.0
C1538 C 0.96892 0.63927 0.63778 0.0
N1539 N 0.97512 0.64626 0.62815 0.0
C1540 C 0.01179 0.68516 0.66719 0.0
C1541 C 0.00589 0.69644 0.65531 0.0
C1542 C 0.02319 0.69141 0.66243 0.0
N1543 N 0.00341 0.68771 0.66354 0.0
C1544 C 0.0172 0.70295 0.65033 0.0
C1545 C 0.02601 0.70038 0.65378 0.0
H1546 H 0.0095 0.67806 0.67363 0.0
H1547 H 0.99907 0.6982 0.65237 0.0
C1548 C 0.94449 0.6489 0.6545 0.0
N1549 N 0.95567 0.65774 0.65214 0.0
C1550 C 0.93588 0.64446 0.64508 0.0
C1551 C 0.95044 0.65837 0.63097 0.0
C1552 C 0.95876 0.66254 0.64067 0.0
C1553 C 0.93881 0.6492 0.63311 0.0
H1554 H 0.94223 0.6453 0.66372 0.0
H1555 H 0.96769 0.66961 0.63906 0.0
O1556 O 0.98779 0.67424 0.688 0.0
O1557 O 0.96101 0.65786 0.68202 0.0
O1558 O 0.97502 0.68102 0.66829 0.0
O1559 O 0.9809 0.66096 0.6635 0.0
H1560 H 0.99138 0.66739 0.7098 0.0
H1561 H 0.00268 0.69738 0.68607 0.0
H1562 H 0.00603 0.68068 0.72568 0.0
H1563 H 0.01703 0.71016 0.7024 0.0
H1564 H 0.94086 0.61796 0.68708 0.0
H1565 H 0.95403 0.65765 0.70513 0.0
H1566 H 0.95278 0.63572 0.67431 0.0
H1567 H 0.94209 0.63951 0.71735 0.0
H1568 H 0.97072 0.68731 0.72886 0.0
H1569 H 0.95194 0.69489 0.70071 0.0
H1570 H 0.98732 0.62708 0.6814 0.0
H1571 H 0.97458 0.63287 0.71625 0.0
H1572 H 0.97181 0.68877 0.64688 0.0
H1573 H 0.9862 0.69935 0.68394 0.0
H1574 H 0.97867 0.70979 0.64237 0.0
H1575 H 0.99289 0.72019 0.67876 0.0
H1576 H 0.9918 0.67237 0.64317 0.0
H1577 H 0.9659 0.63851 0.65749 0.0
H1578 H 0.98804 0.66326 0.62204 0.0
H1579 H 0.96252 0.63001 0.63609 0.0
H1580 H 0.02959 0.68895 0.6652 0.0
H1581 H 0.019 0.70985 0.64377 0.0
H1582 H 0.92708 0.6373 0.64713 0.0
H1583 H 0.95306 0.66241 0.62195 0.0
C1584 C 0.19619 0.2686 0.10382 0.0
C1585 C 0.19518 0.27775 0.09599 0.0
C1586 C 0.18479 0.28473 0.10965 0.0
C1587 C 0.1862 0.29437 0.11678 0.0
C1588 C 0.17676 0.2938 0.12343 0.0
C1589 C 0.16562 0.28324 0.12299 0.0
C1590 C 0.16407 0.27344 0.11575 0.0
C1591 C 0.17365 0.27429 0.1091 0.0
C1592 C 0.1787 0.30445 0.13098 0.0
C1593 C 0.1523 0.26204 0.11513 0.0
C1594 C 0.09778 0.29543 0.08355 0.0
C1595 C 0.1029 0.28925 0.09041 0.0
C1596 C 0.11504 0.29185 0.10875 0.0
C1597 C 0.11422 0.28073 0.10796 0.0
C1598 C 0.12157 0.27825 0.11524 0.0
C1599 C 0.13013 0.28715 0.12326 0.0
C1600 C 0.13102 0.29839 0.12403 0.0
C1601 C 0.12328 0.30049 0.11694 0.0
C1602 C 0.12023 0.26611 0.11426 0.0
C1603 C 0.14026 0.30823 0.13219 0.0
C1604 C 0.10523 0.27552 0.20203 0.0
C1605 C 0.10287 0.26495 0.19596 0.0
C1606 C 0.11183 0.26425 0.18959 0.0
C1607 C 0.12331 0.27433 0.1892 0.0
C1608 C 0.12577 0.28488 0.19555 0.0
C1609 C 0.11669 0.28529 0.20194 0.0
C1610 C 0.10898 0.25281 0.18307 0.0
C1611 C 0.13794 0.29579 0.19535 0.0
C1612 C 0.19196 0.25053 0.19933 0.0
C1613 C 0.19052 0.2611 0.20276 0.0
C1614 C 0.17183 0.26063 0.19996 0.0
C1615 C 0.16018 0.25219 0.19681 0.0
C1616 C 0.1528 0.25543 0.19071 0.0
C1617 C 0.1571 0.26751 0.18813 0.0
C1618 C 0.16871 0.27619 0.19194 0.0
C1619 C 0.17603 0.27263 0.19768 0.0
C1620 C 0.14047 0.24591 0.18687 0.0
C1621 C 0.17343 0.28921 0.1899 0.0
C1622 C 0.15564 0.28244 0.1302 0.0
C1623 C 0.14783 0.2851 0.12419 0.0
C1624 C 0.13836 0.28477 0.13049 0.0
C1625 C 0.13675 0.28193 0.14325 0.0
C1626 C 0.12742 0.28163 0.14993 0.0
C1627 C 0.1261 0.27914 0.16255 0.0
C1628 C 0.1339 0.27655 0.16891 0.0
C1629 C 0.13265 0.27403 0.18174 0.0
C1630 C 0.14043 0.27132 0.18774 0.0
C1631 C 0.14948 0.27097 0.18126 0.0
C1632 C 0.15094 0.27359 0.16844 0.0
C1633 C 0.15991 0.2733 0.16159 0.0
C1634 C 0.16148 0.27622 0.14909 0.0
C1635 C 0.15401 0.27932 0.14287 0.0
C1636 C 0.14465 0.27925 0.14946 0.0
C1637 C 0.14317 0.27647 0.16228 0.0
C1638 C 0.07969 0.26985 0.19476 0.0
C1639 C 0.08464 0.26927 0.2075 0.0
O1640 O 0.19442 0.28595 0.10362 0.0
O1641 O 0.17872 0.25692 0.20535 0.0
O1642 O 0.0968 0.27679 0.20797 0.0
O1643 O 0.10812 0.29457 0.10173 0.0
H1644 H 0.18719 0.27316 0.08987 0.0
H1645 H 0.18824 0.26362 0.10962 0.0
H1646 H 0.20408 0.27302 0.11007 0.0
H1647 H 0.19696 0.26213 0.09768 0.0
H1648 H 0.19481 0.30239 0.11713 0.0
H1649 H 0.17235 0.26673 0.10362 0.0
H1650 H 0.17214 0.30699 0.12818 0.0
H1651 H 0.18774 0.31219 0.12985 0.0
H1652 H 0.17734 0.30217 0.14097 0.0
H1653 H 0.15266 0.25502 0.10958 0.0
H1654 H 0.14557 0.26373 0.11089 0.0
H1655 H 0.14933 0.25875 0.12466 0.0
H1656 H 0.09691 0.27947 0.09091 0.0
H1657 H 0.088 0.28888 0.08296 0.0
H1658 H 0.10835 0.30177 0.06775 0.0
H1659 H 0.09689 0.30144 0.09051 0.0
H1660 H 0.10781 0.2739 0.10177 0.0
H1661 H 0.12385 0.30904 0.11749 0.0
H1662 H 0.12012 0.26264 0.12365 0.0
H1663 H 0.12791 0.26677 0.10924 0.0
H1664 H 0.11203 0.25966 0.10915 0.0
H1665 H 0.14076 0.31683 0.13056 0.0
H1666 H 0.14909 0.30929 0.13051 0.0
H1667 H 0.13812 0.30595 0.1421 0.0
H1668 H 0.08246 0.26003 0.20926 0.0
H1669 H 0.09408 0.25723 0.19607 0.0
H1670 H 0.11845 0.29338 0.20672 0.0
H1671 H 0.10995 0.25419 0.17289 0.0
H1672 H 0.09985 0.24552 0.18495 0.0
H1673 H 0.11533 0.25006 0.18609 0.0
H1674 H 0.1384 0.30332 0.20072 0.0
H1675 H 0.14048 0.29855 0.1856 0.0
H1676 H 0.14451 0.29372 0.1993 0.0
H1677 H 0.1933 0.26699 0.19454 0.0
H1678 H 0.20125 0.25356 0.19675 0.0
H1679 H 0.18616 0.24563 0.19123 0.0
H1680 H 0.18946 0.24438 0.20725 0.0
H1681 H 0.157 0.24297 0.19881 0.0
H1682 H 0.18495 0.27921 0.20052 0.0
H1683 H 0.13884 0.24678 0.17691 0.0
H1684 H 0.13391 0.24696 0.19238 0.0
H1685 H 0.13894 0.23685 0.18834 0.0
H1686 H 0.18177 0.29488 0.19521 0.0
H1687 H 0.16679 0.29165 0.19268 0.0
H1688 H 0.17522 0.29113 0.17988 0.0
H1689 H 0.14911 0.28742 0.11445 0.0
H1690 H 0.12109 0.28345 0.14551 0.0
H1691 H 0.11885 0.27921 0.16723 0.0
H1692 H 0.13939 0.26938 0.19758 0.0
H1693 H 0.1659 0.27093 0.16584 0.0
H1694 H 0.16862 0.27598 0.14434 0.0
H1695 H 0.06993 0.26398 0.19446 0.0
H1696 H 0.08344 0.26686 0.18729 0.0
H1697 H 0.08193 0.27907 0.19281 0.0
C1698 C 0.73497 0.90656 0.07603 0.0
C1699 C 0.72509 0.90317 0.08543 0.0
C1700 C 0.72812 0.89894 0.10652 0.0
C1701 C 0.71663 0.89042 0.10991 0.0
C1702 C 0.71474 0.88211 0.11906 0.0
C1703 C 0.72458 0.88221 0.12469 0.0
C1704 C 0.7362 0.89103 0.12145 0.0
C1705 C 0.7378 0.89947 0.11259 0.0
C1706 C 0.70224 0.87303 0.12245 0.0
C1707 C 0.74694 0.89128 0.12695 0.0
C1708 C 0.70536 0.79684 0.0911 0.0
C1709 C 0.71125 0.80901 0.09659 0.0
C1710 C 0.70898 0.82009 0.11369 0.0
C1711 C 0.72063 0.82972 0.11353 0.0
C1712 C 0.72389 0.84006 0.12055 0.0
C1713 C 0.71526 0.84089 0.12764 0.0
C1714 C 0.70351 0.8312 0.12779 0.0
C1715 C 0.7006 0.82082 0.121 0.0
C1716 C 0.73655 0.85013 0.12031 0.0
C1717 C 0.69397 0.83186 0.13493 0.0
C1718 C 0.72447 0.82922 0.20713 0.0
C1719 C 0.73521 0.83759 0.20176 0.0
C1720 C 0.73613 0.84729 0.19535 0.0
C1721 C 0.72613 0.84864 0.19425 0.0
C1722 C 0.71543 0.84047 0.2 0.0
C1723 C 0.71478 0.83089 0.20642 0.0
C1724 C 0.74773 0.85596 0.18947 0.0
C1725 C 0.70462 0.84168 0.19906 0.0
C1726 C 0.74888 0.94258 0.19946 0.0
C1727 C 0.73967 0.9302 0.20375 0.0
C1728 C 0.7413 0.91247 0.20167 0.0
C1729 C 0.74967 0.90922 0.19891 0.0
C1730 C 0.74626 0.89802 0.19376 0.0
C1731 C 0.73411 0.88979 0.19163 0.0
C1732 C 0.72554 0.89277 0.19512 0.0
C1733 C 0.72922 0.90412 0.20007 0.0
C1734 C 0.75564 0.8951 0.19029 0.0
C1735 C 0.7125 0.88405 0.19337 0.0
C1736 C 0.72272 0.87245 0.13301 0.0
C1737 C 0.71963 0.86155 0.12741 0.0
C1738 C 0.71843 0.8521 0.13439 0.0
C1739 C 0.72043 0.85351 0.14738 0.0
C1740 C 0.71971 0.84432 0.15464 0.0
C1741 C 0.72164 0.84578 0.16742 0.0
C1742 C 0.72451 0.85653 0.17344 0.0
C1743 C 0.72664 0.85814 0.18642 0.0
C1744 C 0.72955 0.86897 0.1921 0.0
C1745 C 0.73047 0.87834 0.18514 0.0
C1746 C 0.72835 0.87689 0.17214 0.0
C1747 C 0.72923 0.88614 0.16483 0.0
C1748 C 0.72722 0.88466 0.15205 0.0
C1749 C 0.72443 0.87394 0.14604 0.0
C1750 C 0.72336 0.86445 0.15324 0.0
C1751 C 0.72536 0.86595 0.16629 0.0
C1752 C 0.73031 0.80956 0.19981 0.0
C1753 C 0.73047 0.81478 0.21272 0.0
O1754 O 0.73007 0.90659 0.09724 0.0
O1755 O 0.7452 0.92372 0.20579 0.0
O1756 O 0.72297 0.81936 0.21289 0.0
O1757 O 0.70549 0.81 0.10691 0.0
H1758 H 0.71921 0.89335 0.08475 0.0
H1759 H 0.73998 0.90205 0.07829 0.0
H1760 H 0.7412 0.91629 0.07625 0.0
H1761 H 0.73121 0.90377 0.06648 0.0
H1762 H 0.70917 0.89024 0.10534 0.0
H1763 H 0.74663 0.90618 0.10991 0.0
H1764 H 0.69997 0.86429 0.11834 0.0
H1765 H 0.69574 0.87541 0.11895 0.0
H1766 H 0.70141 0.87208 0.13269 0.0
H1767 H 0.75523 0.89778 0.12232 0.0
H1768 H 0.746 0.88237 0.12617 0.0
H1769 H 0.74775 0.89371 0.13697 0.0
H1770 H 0.71366 0.81625 0.08982 0.0
H1771 H 0.71787 0.7916 0.09359 0.0
H1772 H 0.70215 0.79764 0.08164 0.0
H1773 H 0.69627 0.79193 0.09523 0.0
H1774 H 0.72723 0.82922 0.108 0.0
H1775 H 0.69164 0.81333 0.12108 0.0
H1776 H 0.73703 0.85755 0.11496 0.0
H1777 H 0.74251 0.84744 0.11592 0.0
H1778 H 0.73983 0.85348 0.12989 0.0
H1779 H 0.68503 0.82416 0.13284 0.0
H1780 H 0.69399 0.84013 0.13269 0.0
H1781 H 0.69573 0.83207 0.14505 0.0
H1782 H 0.73963 0.82192 0.21513 0.0
H1783 H 0.74288 0.83658 0.20238 0.0
H1784 H 0.70656 0.82446 0.21068 0.0
H1785 H 0.74662 0.85542 0.1792 0.0
H1786 H 0.75492 0.85419 0.19191 0.0
H1787 H 0.75042 0.86514 0.19246 0.0
H1788 H 0.69703 0.83472 0.20427 0.0
H1789 H 0.70195 0.84109 0.18915 0.0
H1790 H 0.70671 0.85051 0.20272 0.0
H1791 H 0.73305 0.92611 0.19602 0.0
H1792 H 0.74465 0.94797 0.19775 0.0
H1793 H 0.7529 0.94189 0.19066 0.0
H1794 H 0.75603 0.9472 0.20656 0.0
H1795 H 0.75896 0.91567 0.20039 0.0
H1796 H 0.72267 0.90644 0.20265 0.0
H1797 H 0.75479 0.89261 0.18027 0.0
H1798 H 0.75438 0.88737 0.19566 0.0
H1799 H 0.76473 0.90264 0.19215 0.0
H1800 H 0.70694 0.88722 0.19779 0.0
H1801 H 0.71022 0.87537 0.19735 0.0
H1802 H 0.71032 0.88259 0.18328 0.0
H1803 H 0.71829 0.86046 0.11741 0.0
H1804 H 0.71763 0.83589 0.15052 0.0
H1805 H 0.7209 0.83836 0.17252 0.0
H1806 H 0.73126 0.87016 0.20204 0.0
H1807 H 0.73148 0.89465 0.16891 0.0
H1808 H 0.72796 0.89206 0.14691 0.0
H1809 H 0.73612 0.80565 0.19979 0.0
H1810 H 0.73362 0.81653 0.19269 0.0
H1811 H 0.72118 0.80256 0.19715 0.0
C1812 C 0.17581 0.90697 0.08327 0.0
C1813 C 0.18445 0.90817 0.09362 0.0
C1814 C 0.17197 0.89101 0.10673 0.0
C1815 C 0.16491 0.89535 0.11161 0.0
C1816 C 0.15534 0.88832 0.11933 0.0
C1817 C 0.15286 0.87681 0.12236 0.0
C1818 C 0.16015 0.87257 0.11778 0.0
C1819 C 0.16961 0.87974 0.11001 0.0
C1820 C 0.14772 0.89309 0.12407 0.0
C1821 C 0.15781 0.86037 0.12091 0.0
C1822 C 0.07381 0.82878 0.07757 0.0
C1823 C 0.08236 0.82634 0.08484 0.0
C1824 C 0.09089 0.83389 0.10531 0.0
C1825 C 0.09975 0.83091 0.10568 0.0
C1826 C 0.1095 0.83693 0.1138 0.0
C1827 C 0.11057 0.84637 0.12139 0.0
C1828 C 0.10159 0.84938 0.12096 0.0
C1829 C 0.09169 0.84282 0.11318 0.0
C1830 C 0.11873 0.83328 0.1141 0.0
C1831 C 0.10253 0.85968 0.12843 0.0
C1832 C 0.0881 0.83097 0.19989 0.0
C1833 C 0.09612 0.82708 0.19754 0.0
C1834 C 0.10707 0.8346 0.19203 0.0
C1835 C 0.11001 0.84623 0.18883 0.0
C1836 C 0.10219 0.85035 0.19177 0.0
C1837 C 0.09137 0.84267 0.19739 0.0
C1838 C 0.11538 0.83008 0.18937 0.0
C1839 C 0.10513 0.86274 0.18865 0.0
C1840 C 0.19279 0.92173 0.19952 0.0
C1841 C 0.18603 0.91602 0.21143 0.0
C1842 C 0.17135 0.8959 0.2039 0.0
C1843 C 0.16893 0.88422 0.203 0.0
C1844 C 0.15927 0.87561 0.19598 0.0
C1845 C 0.15172 0.87875 0.18985 0.0
C1846 C 0.15393 0.8905 0.19094 0.0
C1847 C 0.16379 0.89898 0.19784 0.0
C1848 C 0.15718 0.86319 0.19501 0.0
C1849 C 0.14591 0.89411 0.18476 0.0
C1850 C 0.14222 0.86891 0.12965 0.0
C1851 C 0.13181 0.86138 0.12304 0.0
C1852 C 0.12139 0.85357 0.12915 0.0
C1853 C 0.12135 0.8532 0.14229 0.0
C1854 C 0.11116 0.84521 0.14877 0.0
C1855 C 0.11102 0.84535 0.16169 0.0
C1856 C 0.12111 0.85339 0.16866 0.0
C1857 C 0.12094 0.85386 0.18179 0.0
C1858 C 0.13108 0.86205 0.18841 0.0
C1859 C 0.14151 0.8698 0.18227 0.0
C1860 C 0.14192 0.86932 0.16914 0.0
C1861 C 0.15233 0.8768 0.16266 0.0
C1862 C 0.1525 0.87657 0.14973 0.0
C1863 C 0.14226 0.86891 0.14278 0.0
C1864 C 0.13176 0.86107 0.14912 0.0
C1865 C 0.13162 0.86121 0.16232 0.0
C1866 C 0.05811 0.80892 0.19731 0.0
C1867 C 0.07021 0.81164 0.20221 0.0
O1868 O 0.18097 0.89722 0.09872 0.0
O1869 O 0.18104 0.90381 0.21065 0.0
O1870 O 0.07717 0.82373 0.20451 0.0
O1871 O 0.08153 0.82834 0.09738 0.0
H1872 H 0.18473 0.91436 0.10098 0.0
H1873 H 0.17884 0.91571 0.07898 0.0
H1874 H 0.17514 0.90058 0.07594 0.0
H1875 H 0.16685 0.90377 0.08703 0.0
H1876 H 0.16667 0.9041 0.10932 0.0
H1877 H 0.17512 0.87649 0.10629 0.0
H1878 H 0.13845 0.88725 0.12082 0.0
H1879 H 0.15083 0.90224 0.12091 0.0
H1880 H 0.1477 0.8931 0.13439 0.0
H1881 H 0.16479 0.8587 0.11735 0.0
H1882 H 0.14917 0.85359 0.11683 0.0
H1883 H 0.15725 0.85925 0.13115 0.0
H1884 H 0.09145 0.8327 0.08154 0.0
H1885 H 0.07451 0.82756 0.06743 0.0
H1886 H 0.07601 0.83806 0.07932 0.0
H1887 H 0.06455 0.82272 0.08048 0.0
H1888 H 0.099 0.82383 0.0997 0.0
H1889 H 0.08474 0.84499 0.1128 0.0
H1890 H 0.12662 0.83982 0.10894 0.0
H1891 H 0.11544 0.82441 0.10971 0.0
H1892 H 0.12155 0.83314 0.12381 0.0
H1893 H 0.09632 0.86244 0.12493 0.0
H1894 H 0.11166 0.86743 0.1282 0.0
H1895 H 0.10034 0.85708 0.13825 0.0
H1896 H 0.07407 0.80873 0.19472 0.0
H1897 H 0.09385 0.81817 0.19997 0.0
H1898 H 0.0852 0.84565 0.19945 0.0
H1899 H 0.11631 0.82956 0.17916 0.0
H1900 H 0.11221 0.82116 0.19327 0.0
H1901 H 0.12429 0.83634 0.1933 0.0
H1902 H 0.09811 0.86461 0.19159 0.0
H1903 H 0.10636 0.86403 0.17847 0.0
H1904 H 0.11358 0.86929 0.19328 0.0
H1905 H 0.17899 0.91826 0.2128 0.0
H1906 H 0.19684 0.93151 0.20011 0.0
H1907 H 0.18672 0.91845 0.19134 0.0
H1908 H 0.19988 0.91958 0.19803 0.0
H1909 H 0.17478 0.8819 0.20772 0.0
H1910 H 0.16545 0.90795 0.19842 0.0
H1911 H 0.15658 0.86048 0.18508 0.0
H1912 H 0.14864 0.85694 0.19938 0.0
H1913 H 0.16432 0.86236 0.19963 0.0
H1914 H 0.14803 0.90317 0.18766 0.0
H1915 H 0.13654 0.88776 0.18701 0.0
H1916 H 0.1468 0.89392 0.17452 0.0
H1917 H 0.13179 0.86169 0.11296 0.0
H1918 H 0.10314 0.83884 0.1439 0.0
H1919 H 0.10286 0.83912 0.16615 0.0
H1920 H 0.1308 0.86253 0.19847 0.0
H1921 H 0.16044 0.88296 0.16753 0.0
H1922 H 0.16073 0.88259 0.14523 0.0
H1923 H 0.05234 0.79925 0.19545 0.0
H1924 H 0.05919 0.81364 0.18848 0.0
H1925 H 0.05371 0.81185 0.20411 0.0
C1926 C 0.31412 0.12677 0.92544 0.0
C1927 C 0.30266 0.11481 0.92362 0.0
C1928 C 0.29529 0.11807 0.90446 0.0
C1929 C 0.28326 0.11431 0.90505 0.0
C1930 C 0.27856 0.12016 0.89837 0.0
C1931 C 0.28617 0.13011 0.89117 0.0
C1932 C 0.29837 0.13387 0.89058 0.0
C1933 C 0.30273 0.12762 0.89705 0.0
C1934 C 0.2655 0.11577 0.89908 0.0
C1935 C 0.30687 0.14462 0.88332 0.0
C1936 C 0.25954 0.1762 0.94274 0.0
C1937 C 0.26931 0.17994 0.93314 0.0
C1938 C 0.26725 0.17147 0.91243 0.0
C1939 C 0.27909 0.17506 0.9101 0.0
C1940 C 0.28202 0.1691 0.90114 0.0
C1941 C 0.27288 0.15915 0.89465 0.0
C1942 C 0.26091 0.15565 0.89689 0.0
C1943 C 0.25829 0.16209 0.90554 0.0
C1944 C 0.29488 0.17332 0.89881 0.0
C1945 C 0.25084 0.14489 0.89052 0.0
C1946 C 0.26178 0.17433 0.81565 0.0
C1947 C 0.27359 0.17808 0.81875 0.0
C1948 C 0.27658 0.17035 0.82446 0.0
C1949 C 0.26755 0.15868 0.8272 0.0
C1950 C 0.25571 0.15478 0.82372 0.0
C1951 C 0.25301 0.16264 0.81783 0.0
C1952 C 0.28936 0.17467 0.82763 0.0
C1953 C 0.24587 0.14237 0.82639 0.0
C1954 C 0.27166 0.08222 0.8174 0.0
C1955 C 0.27105 0.08722 0.80478 0.0
C1956 C 0.27687 0.10768 0.81104 0.0
C1957 C 0.28647 0.11926 0.81183 0.0
C1958 C 0.28576 0.12812 0.81859 0.0
C1959 C 0.2751 0.12532 0.82457 0.0
C1960 C 0.26519 0.11373 0.82344 0.0
C1961 C 0.26618 0.10501 0.81673 0.0
C1962 C 0.29649 0.1404 0.81959 0.0
C1963 C 0.25362 0.11051 0.82952 0.0
C1964 C 0.28154 0.1369 0.88467 0.0
C1965 C 0.27936 0.14457 0.89179 0.0
C1966 C 0.27576 0.15187 0.88627 0.0
C1967 C 0.27461 0.15176 0.87318 0.0
C1968 C 0.27172 0.15947 0.86722 0.0
C1969 C 0.27037 0.15912 0.85435 0.0
C1970 C 0.27189 0.15107 0.84694 0.0
C1971 C 0.27048 0.15059 0.83385 0.0
C1972 C 0.27171 0.14222 0.82682 0.0
C1973 C 0.27445 0.13435 0.83249 0.0
C1974 C 0.27625 0.13493 0.84551 0.0
C1975 C 0.27935 0.12736 0.85146 0.0
C1976 C 0.28106 0.12797 0.86428 0.0
C1977 C 0.2797 0.13613 0.87165 0.0
C1978 C 0.2764 0.14372 0.86587 0.0
C1979 C 0.27487 0.14326 0.85276 0.0
C1980 C 0.2537 0.19593 0.81754 0.0
C1981 C 0.26349 0.19367 0.8132 0.0
O1982 O 0.29983 0.11254 0.91107 0.0
O1983 O 0.2784 0.09944 0.80483 0.0
O1984 O 0.25856 0.18169 0.81046 0.0
O1985 O 0.26419 0.17677 0.92138 0.0
H1986 H 0.29539 0.11516 0.92855 0.0
H1987 H 0.31287 0.13405 0.9221 0.0
H1988 H 0.32145 0.12686 0.92021 0.0
H1989 H 0.31663 0.12852 0.93545 0.0
H1990 H 0.27759 0.1068 0.91076 0.0
H1991 H 0.31202 0.13036 0.89665 0.0
H1992 H 0.26414 0.12222 0.90455 0.0
H1993 H 0.26056 0.10701 0.90358 0.0
H1994 H 0.26175 0.11506 0.88963 0.0
H1995 H 0.31624 0.14731 0.88523 0.0
H1996 H 0.30562 0.15221 0.88562 0.0
H1997 H 0.30509 0.14266 0.87323 0.0
H1998 H 0.27398 0.17502 0.93526 0.0
H1999 H 0.26339 0.17847 0.95229 0.0
H2000 H 0.25342 0.16647 0.94208 0.0
H2001 H 0.25439 0.18068 0.94108 0.0
H2002 H 0.28604 0.18253 0.91527 0.0
H2003 H 0.24917 0.15947 0.90739 0.0
H2004 H 0.29726 0.16719 0.90324 0.0
H2005 H 0.3008 0.18238 0.9027 0.0
H2006 H 0.2965 0.17332 0.88868 0.0
H2007 H 0.24218 0.14226 0.89482 0.0
H2008 H 0.25232 0.13726 0.89084 0.0
H2009 H 0.25034 0.14684 0.88061 0.0
H2010 H 0.26995 0.19642 0.82107 0.0
H2011 H 0.28048 0.18701 0.81661 0.0
H2012 H 0.24395 0.15978 0.81522 0.0
H2013 H 0.29054 0.17516 0.83789 0.0
H2014 H 0.29542 0.18356 0.82382 0.0
H2015 H 0.2919 0.16831 0.82397 0.0
H2016 H 0.23703 0.14095 0.82382 0.0
H2017 H 0.24594 0.14051 0.83642 0.0
H2018 H 0.24732 0.13588 0.82109 0.0
H2019 H 0.26179 0.0849 0.80276 0.0
H2020 H 0.26593 0.07242 0.81728 0.0
H2021 H 0.26854 0.08582 0.82491 0.0
H2022 H 0.2809 0.08459 0.81962 0.0
H2023 H 0.29464 0.12127 0.80734 0.0
H2024 H 0.25859 0.09615 0.81608 0.0
H2025 H 0.29904 0.14279 0.82952 0.0
H2026 H 0.29433 0.14694 0.81581 0.0
H2027 H 0.30417 0.14112 0.8145 0.0
H2028 H 0.24645 0.10144 0.82688 0.0
H2029 H 0.25084 0.11694 0.82692 0.0
H2030 H 0.25479 0.11103 0.83978 0.0
H2031 H 0.28049 0.14488 0.90182 0.0
H2032 H 0.27048 0.16588 0.87245 0.0
H2033 H 0.26807 0.16522 0.85029 0.0
H2034 H 0.27044 0.14177 0.81682 0.0
H2035 H 0.28053 0.1209 0.84628 0.0
H2036 H 0.28342 0.12191 0.86835 0.0
H2037 H 0.25742 0.20547 0.81988 0.0
H2038 H 0.24951 0.19072 0.82598 0.0
H2039 H 0.24678 0.19325 0.81019 0.0
C2040 C 0.81322 0.06531 0.91282 0.0
C2041 C 0.81355 0.07625 0.91853 0.0
C2042 C 0.82278 0.09256 0.90364 0.0
C2043 C 0.82064 0.10025 0.89674 0.0
C2044 C 0.82981 0.10993 0.89068 0.0
C2045 C 0.8414 0.11175 0.89126 0.0
C2046 C 0.84365 0.10394 0.89813 0.0
C2047 C 0.83432 0.09445 0.90433 0.0
C2048 C 0.8271 0.11822 0.88369 0.0
C2049 C 0.85588 0.10558 0.89882 0.0
C2050 C 0.91421 0.19774 0.92692 0.0
C2051 C 0.9088 0.18637 0.91972 0.0
C2052 C 0.89006 0.17221 0.90952 0.0
C2053 C 0.89411 0.16495 0.90449 0.0
C2054 C 0.88674 0.15515 0.89682 0.0
C2055 C 0.87519 0.15273 0.89385 0.0
C2056 C 0.87114 0.1601 0.89879 0.0
C2057 C 0.87861 0.16968 0.90666 0.0
C2058 C 0.89127 0.14732 0.89198 0.0
C2059 C 0.85892 0.15785 0.89576 0.0
C2060 C 0.8984 0.17297 0.81461 0.0
C2061 C 0.90159 0.16562 0.82088 0.0
C2062 C 0.89302 0.15538 0.82683 0.0
C2063 C 0.88109 0.15259 0.82677 0.0
C2064 C 0.87785 0.15994 0.82043 0.0
C2065 C 0.88655 0.16997 0.81433 0.0
C2066 C 0.89675 0.14758 0.83325 0.0
C2067 C 0.86523 0.15727 0.82022 0.0
C2068 C 0.81644 0.05862 0.80835 0.0
C2069 C 0.81732 0.07061 0.80651 0.0
C2070 C 0.83546 0.08941 0.81081 0.0
C2071 C 0.84734 0.09338 0.81342 0.0
C2072 C 0.85428 0.10377 0.82046 0.0
C2073 C 0.84927 0.11056 0.82463 0.0
C2074 C 0.8374 0.1069 0.82143 0.0
C2075 C 0.83056 0.09627 0.81466 0.0
C2076 C 0.8669 0.10739 0.82361 0.0
C2077 C 0.8319 0.11416 0.82524 0.0
C2078 C 0.85111 0.12187 0.88467 0.0
C2079 C 0.85859 0.13213 0.89158 0.0
C2080 C 0.86728 0.14233 0.88582 0.0
C2081 C 0.8684 0.14243 0.87274 0.0
C2082 C 0.87658 0.15273 0.86655 0.0
C2083 C 0.87771 0.15268 0.8537 0.0
C2084 C 0.87077 0.14231 0.84655 0.0
C2085 C 0.87204 0.14209 0.83352 0.0
C2086 C 0.86482 0.1317 0.82666 0.0
C2087 C 0.85642 0.12136 0.83247 0.0
C2088 C 0.85516 0.12135 0.84553 0.0
C2089 C 0.84698 0.11105 0.85175 0.0
C2090 C 0.84565 0.11118 0.86456 0.0
C2091 C 0.85255 0.12158 0.87168 0.0
C2092 C 0.8611 0.13196 0.86567 0.0
C2093 C 0.86233 0.13188 0.85257 0.0
C2094 C 0.92315 0.19541 0.82172 0.0
C2095 C 0.9186 0.18867 0.8093 0.0
O2096 O 0.81341 0.0834 0.90924 0.0
O2097 O 0.82905 0.07902 0.80443 0.0
O2098 O 0.90635 0.183 0.80874 0.0
O2099 O 0.89685 0.18165 0.91717 0.0
H2100 H 0.8217 0.08125 0.92437 0.0
H2101 H 0.82111 0.06798 0.90699 0.0
H2102 H 0.8052 0.06017 0.90688 0.0
H2103 H 0.81322 0.05951 0.92027 0.0
H2104 H 0.81171 0.09869 0.89625 0.0
H2105 H 0.8361 0.08849 0.90953 0.0
H2106 H 0.83346 0.12756 0.88644 0.0
H2107 H 0.81798 0.11638 0.88538 0.0
H2108 H 0.82807 0.11726 0.87357 0.0
H2109 H 0.856 0.09819 0.90366 0.0
H2110 H 0.86191 0.11399 0.90387 0.0
H2111 H 0.8594 0.10624 0.88931 0.0
H2112 H 0.91096 0.17974 0.92335 0.0
H2113 H 0.91704 0.19579 0.93606 0.0
H2114 H 0.90664 0.19838 0.93094 0.0
H2115 H 0.92624 0.21014 0.91451 0.0
H2116 H 0.90296 0.16678 0.9066 0.0
H2117 H 0.87556 0.17532 0.91057 0.0
H2118 H 0.88475 0.13787 0.89375 0.0
H2119 H 0.89987 0.14956 0.89632 0.0
H2120 H 0.89247 0.14834 0.88178 0.0
H2121 H 0.85762 0.16516 0.89915 0.0
H2122 H 0.85222 0.14951 0.90014 0.0
H2123 H 0.85731 0.15674 0.88556 0.0
H2124 H 0.9215 0.18206 0.80829 0.0
H2125 H 0.91069 0.16774 0.8212 0.0
H2126 H 0.88417 0.17566 0.80945 0.0
H2127 H 0.89601 0.14827 0.84346 0.0
H2128 H 0.906 0.1501 0.83112 0.0
H2129 H 0.89081 0.13816 0.83043 0.0
H2130 H 0.86431 0.16431 0.81562 0.0
H2131 H 0.86189 0.15627 0.82986 0.0
H2132 H 0.85956 0.14874 0.81518 0.0
H2133 H 0.81417 0.07274 0.81524 0.0
H2134 H 0.80719 0.0517 0.81043 0.0
H2135 H 0.82217 0.05925 0.8163 0.0
H2136 H 0.81936 0.05591 0.79988 0.0
H2137 H 0.85105 0.08808 0.81022 0.0
H2138 H 0.82146 0.0934 0.81226 0.0
H2139 H 0.86853 0.10905 0.83378 0.0
H2140 H 0.873 0.11577 0.81887 0.0
H2141 H 0.86909 0.10055 0.82071 0.0
H2142 H 0.82325 0.11106 0.82052 0.0
H2143 H 0.83793 0.12364 0.82308 0.0
H2144 H 0.83049 0.11356 0.83543 0.0
H2145 H 0.85756 0.1322 0.90158 0.0
H2146 H 0.88217 0.16096 0.87158 0.0
H2147 H 0.88414 0.16089 0.84946 0.0
H2148 H 0.86585 0.13162 0.81666 0.0
H2149 H 0.84147 0.10277 0.84677 0.0
H2150 H 0.83917 0.10301 0.86882 0.0
H2151 H 0.93295 0.19998 0.82222 0.0
H2152 H 0.91958 0.18918 0.82957 0.0
H2153 H 0.92035 0.20209 0.82282 0.0
C2154 C 0.82282 0.72296 0.93581 0.0
C2155 C 0.81397 0.7199 0.92504 0.0
C2156 C 0.82436 0.71576 0.90848 0.0
C2157 C 0.83315 0.72759 0.90641 0.0
C2158 C 0.84288 0.73027 0.89889 0.0
C2159 C 0.84387 0.72095 0.89336 0.0
C2160 C 0.83484 0.70906 0.89505 0.0
C2161 C 0.82515 0.70664 0.90252 0.0
C2162 C 0.85229 0.74305 0.89713 0.0
C2163 C 0.83563 0.69892 0.88928 0.0
C2164 C 0.90269 0.73356 0.94732 0.0
C2165 C 0.90273 0.7256 0.9368 0.0
C2166 C 0.90023 0.73107 0.91608 0.0
C2167 C 0.89231 0.71994 0.9108 0.0
C2168 C 0.88452 0.71881 0.9012 0.0
C2169 C 0.88464 0.72904 0.89688 0.0
C2170 C 0.89308 0.74035 0.90175 0.0
C2171 C 0.90092 0.74122 0.91119 0.0
C2172 C 0.87585 0.70666 0.89601 0.0
C2173 C 0.89344 0.75144 0.8974 0.0
C2174 C 0.91422 0.74528 0.82045 0.0
C2175 C 0.9061 0.73317 0.822 0.0
C2176 C 0.89481 0.72939 0.82677 0.0
C2177 C 0.89165 0.73792 0.83014 0.0
C2178 C 0.89965 0.75007 0.82806 0.0
C2179 C 0.9108 0.75357 0.8231 0.0
C2180 C 0.88632 0.71633 0.82845 0.0
C2181 C 0.89654 0.75939 0.83139 0.0
C2182 C 0.80982 0.73037 0.81843 0.0
C2183 C 0.81573 0.73099 0.80596 0.0
C2184 C 0.83068 0.72598 0.81258 0.0
C2185 C 0.83292 0.71665 0.8134 0.0
C2186 C 0.84254 0.71784 0.82037 0.0
C2187 C 0.85021 0.72872 0.82653 0.0
C2188 C 0.84827 0.73837 0.82538 0.0
C2189 C 0.8385 0.73689 0.81846 0.0
C2190 C 0.84437 0.70739 0.82137 0.0
C2191 C 0.85641 0.75017 0.83165 0.0
C2192 C 0.85482 0.72363 0.88671 0.0
C2193 C 0.86433 0.72497 0.89386 0.0
C2194 C 0.87507 0.72775 0.88844 0.0
C2195 C 0.87643 0.72927 0.87545 0.0
C2196 C 0.88712 0.73213 0.86969 0.0
C2197 C 0.88843 0.73381 0.85692 0.0
C2198 C 0.87902 0.73251 0.84939 0.0
C2199 C 0.88026 0.73422 0.8364 0.0
C2200 C 0.87072 0.73285 0.82921 0.0
C2201 C 0.85992 0.72986 0.83465 0.0
C2202 C 0.85852 0.72815 0.84763 0.0
C2203 C 0.84778 0.72518 0.85342 0.0
C2204 C 0.84655 0.72372 0.86621 0.0
C2205 C 0.85596 0.72505 0.8737 0.0
C2206 C 0.86682 0.72791 0.86806 0.0
C2207 C 0.86811 0.72949 0.85501 0.0
C2208 C 0.94455 0.75348 0.82268 0.0
C2209 C 0.9321 0.74398 0.81849 0.0
O2210 O 0.81514 0.71271 0.91627 0.0
O2211 O 0.82086 0.72397 0.80615 0.0
O2212 O 0.92542 0.7493 0.81647 0.0
O2213 O 0.90703 0.73219 0.92611 0.0
H2214 H 0.81556 0.7282 0.9206 0.0
H2215 H 0.83204 0.7281 0.93247 0.0
H2216 H 0.82155 0.71476 0.94018 0.0
H2217 H 0.82164 0.72846 0.94297 0.0
H2218 H 0.8326 0.73479 0.91074 0.0
H2219 H 0.81829 0.69755 0.90407 0.0
H2220 H 0.86063 0.74481 0.90175 0.0
H2221 H 0.84972 0.7493 0.90108 0.0
H2222 H 0.85413 0.74485 0.88709 0.0
H2223 H 0.82776 0.69017 0.8913 0.0
H2224 H 0.84365 0.69905 0.89286 0.0
H2225 H 0.83651 0.69996 0.87905 0.0
H2226 H 0.89336 0.71837 0.93544 0.0
H2227 H 0.89944 0.72847 0.95603 0.0
H2228 H 0.8967 0.73691 0.9448 0.0
H2229 H 0.91169 0.74129 0.94901 0.0
H2230 H 0.8921 0.71212 0.91434 0.0
H2231 H 0.9072 0.74979 0.91525 0.0
H2232 H 0.87575 0.70678 0.88569 0.0
H2233 H 0.86682 0.70403 0.89919 0.0
H2234 H 0.87797 0.69986 0.89905 0.0
H2235 H 0.90056 0.75956 0.90211 0.0
H2236 H 0.88482 0.75082 0.89923 0.0
H2237 H 0.89487 0.7523 0.88722 0.0
H2238 H 0.92835 0.73758 0.82623 0.0
H2239 H 0.90855 0.72666 0.8195 0.0
H2240 H 0.91708 0.76287 0.82165 0.0
H2241 H 0.88499 0.71442 0.83852 0.0
H2242 H 0.88961 0.71078 0.82419 0.0
H2243 H 0.87758 0.71377 0.82426 0.0
H2244 H 0.90388 0.7685 0.82953 0.0
H2245 H 0.89427 0.75881 0.84139 0.0
H2246 H 0.88863 0.75777 0.82594 0.0
H2247 H 0.82261 0.74033 0.80413 0.0
H2248 H 0.80554 0.73583 0.81819 0.0
H2249 H 0.81646 0.73383 0.8261 0.0
H2250 H 0.80302 0.72106 0.82047 0.0
H2251 H 0.82691 0.7083 0.80876 0.0
H2252 H 0.83702 0.74428 0.8178 0.0
H2253 H 0.84415 0.70505 0.83129 0.0
H2254 H 0.85322 0.7098 0.81777 0.0
H2255 H 0.83754 0.69948 0.81612 0.0
H2256 H 0.85434 0.75709 0.82897 0.0
H2257 H 0.86574 0.75322 0.82925 0.0
H2258 H 0.85564 0.74918 0.84189 0.0
H2259 H 0.86337 0.72389 0.90386 0.0
H2260 H 0.89463 0.73319 0.87501 0.0
H2261 H 0.89691 0.73612 0.85302 0.0
H2262 H 0.87176 0.73423 0.81927 0.0
H2263 H 0.84021 0.72401 0.84813 0.0
H2264 H 0.83811 0.72152 0.87017 0.0
H2265 H 0.95008 0.74943 0.82446 0.0
H2266 H 0.94407 0.7578 0.83144 0.0
H2267 H 0.94884 0.76038 0.81551 0.0
C2268 C 0.85562 0.59585 0.42288 0.0
C2269 C 0.85829 0.60855 0.42084 0.0
C2270 C 0.84952 0.61455 0.4375 0.0
C2271 C 0.85237 0.62388 0.44586 0.0
C2272 C 0.84354 0.62503 0.45189 0.0
C2273 C 0.83152 0.61618 0.45003 0.0
C2274 C 0.82856 0.60661 0.44165 0.0
C2275 C 0.83759 0.60603 0.43527 0.0
C2276 C 0.84714 0.63573 0.46021 0.0
C2277 C 0.81589 0.5969 0.43949 0.0
C2278 C 0.75707 0.62822 0.41936 0.0
C2279 C 0.76296 0.62241 0.42548 0.0
C2280 C 0.7824 0.62728 0.43352 0.0
C2281 C 0.7787 0.61602 0.43835 0.0
C2282 C 0.78644 0.61394 0.44545 0.0
C2283 C 0.79802 0.62341 0.44813 0.0
C2284 C 0.80178 0.63476 0.44326 0.0
C2285 C 0.79395 0.63649 0.4359 0.0
C2286 C 0.78221 0.60161 0.4501 0.0
C2287 C 0.81404 0.64506 0.44594 0.0
C2288 C 0.77278 0.61838 0.52598 0.0
C2289 C 0.77053 0.60756 0.52059 0.0
C2290 C 0.77962 0.60653 0.515 0.0
C2291 C 0.79119 0.61649 0.51476 0.0
C2292 C 0.79356 0.6273 0.5204 0.0
C2293 C 0.7843 0.62809 0.52596 0.0
C2294 C 0.7768 0.59484 0.5091 0.0
C2295 C 0.8058 0.63808 0.52029 0.0
C2296 C 0.85256 0.58443 0.53192 0.0
C2297 C 0.85286 0.59619 0.53367 0.0
C2298 C 0.83556 0.59812 0.52986 0.0
C2299 C 0.82356 0.59059 0.52729 0.0
C2300 C 0.81709 0.59447 0.52042 0.0
C2301 C 0.82272 0.60636 0.51645 0.0
C2302 C 0.83477 0.61422 0.51963 0.0
C2303 C 0.84112 0.60996 0.52616 0.0
C2304 C 0.80427 0.58579 0.51731 0.0
C2305 C 0.84095 0.6271 0.51609 0.0
C2306 C 0.82209 0.61698 0.45682 0.0
C2307 C 0.81486 0.61999 0.45012 0.0
C2308 C 0.80613 0.62137 0.456 0.0
C2309 C 0.8049 0.62024 0.46904 0.0
C2310 C 0.79671 0.62226 0.47537 0.0
C2311 C 0.79536 0.62086 0.48815 0.0
C2312 C 0.80216 0.61738 0.49513 0.0
C2313 C 0.80065 0.61567 0.50809 0.0
C2314 C 0.80769 0.61243 0.51479 0.0
C2315 C 0.81603 0.61047 0.50884 0.0
C2316 C 0.81745 0.61185 0.49581 0.0
C2317 C 0.8254 0.60951 0.48941 0.0
C2318 C 0.82688 0.6111 0.47665 0.0
C2319 C 0.82043 0.61503 0.46975 0.0
C2320 C 0.812 0.61695 0.47592 0.0
C2321 C 0.81059 0.61546 0.48898 0.0
C2322 C 0.74649 0.61101 0.51871 0.0
C2323 C 0.75213 0.61179 0.53152 0.0
O2324 O 0.85856 0.61398 0.43207 0.0
O2325 O 0.84147 0.59374 0.53611 0.0
O2326 O 0.76416 0.61995 0.53106 0.0
O2327 O 0.77514 0.62961 0.42659 0.0
H2328 H 0.85127 0.60817 0.41465 0.0
H2329 H 0.84666 0.5903 0.42673 0.0
H2330 H 0.86207 0.59572 0.4295 0.0
H2331 H 0.85598 0.59176 0.4139 0.0
H2332 H 0.86161 0.63044 0.44748 0.0
H2333 H 0.83524 0.59877 0.42879 0.0
H2334 H 0.841 0.63916 0.45903 0.0
H2335 H 0.85627 0.64298 0.4583 0.0
H2336 H 0.84683 0.6332 0.47006 0.0
H2337 H 0.81525 0.58912 0.43447 0.0
H2338 H 0.81123 0.60036 0.43386 0.0
H2339 H 0.81122 0.59392 0.44848 0.0
H2340 H 0.76012 0.61333 0.42184 0.0
H2341 H 0.75308 0.62295 0.41052 0.0
H2342 H 0.76426 0.63621 0.41458 0.0
H2343 H 0.74679 0.62949 0.43351 0.0
H2344 H 0.76981 0.60876 0.43653 0.0
H2345 H 0.79674 0.64514 0.43212 0.0
H2346 H 0.78893 0.59901 0.44833 0.0
H2347 H 0.77372 0.59491 0.44563 0.0
H2348 H 0.78087 0.60144 0.46029 0.0
H2349 H 0.81518 0.65357 0.44258 0.0
H2350 H 0.82065 0.64345 0.44132 0.0
H2351 H 0.81593 0.64591 0.45609 0.0
H2352 H 0.75065 0.60289 0.53386 0.0
H2353 H 0.7617 0.59992 0.5205 0.0
H2354 H 0.78599 0.63638 0.53015 0.0
H2355 H 0.77822 0.59591 0.49893 0.0
H2356 H 0.76753 0.58773 0.51072 0.0
H2357 H 0.78284 0.592 0.51286 0.0
H2358 H 0.80624 0.6458 0.52524 0.0
H2359 H 0.80862 0.64055 0.51054 0.0
H2360 H 0.81218 0.636 0.52474 0.0
H2361 H 0.85606 0.60109 0.52481 0.0
H2362 H 0.86145 0.58598 0.52945 0.0
H2363 H 0.8463 0.57916 0.52427 0.0
H2364 H 0.84961 0.5792 0.54057 0.0
H2365 H 0.81934 0.58151 0.53038 0.0
H2366 H 0.85035 0.6159 0.52853 0.0
H2367 H 0.80241 0.58626 0.50732 0.0
H2368 H 0.79859 0.58813 0.52284 0.0
H2369 H 0.80176 0.57653 0.51942 0.0
H2370 H 0.84954 0.63243 0.52109 0.0
H2371 H 0.83528 0.63095 0.51811 0.0
H2372 H 0.84268 0.62783 0.50596 0.0
H2373 H 0.81597 0.62119 0.44015 0.0
H2374 H 0.79125 0.62497 0.47049 0.0
H2375 H 0.78889 0.62252 0.4925 0.0
H2376 H 0.80646 0.61113 0.52473 0.0
H2377 H 0.8306 0.60644 0.49419 0.0
H2378 H 0.83313 0.60917 0.47224 0.0
H2379 H 0.74673 0.61943 0.51667 0.0
H2380 H 0.73722 0.60351 0.51834 0.0
H2381 H 0.75134 0.60937 0.51126 0.0
C2382 C 0.40232 0.26185 0.43784 0.0
C2383 C 0.39163 0.25158 0.4311 0.0
C2384 C 0.38456 0.23429 0.44468 0.0
C2385 C 0.37486 0.2261 0.45146 0.0
C2386 C 0.37481 0.21652 0.4572 0.0
C2387 C 0.38496 0.21537 0.4565 0.0
C2388 C 0.39482 0.22359 0.44958 0.0
C2389 C 0.39447 0.23288 0.4436 0.0
C2390 C 0.36394 0.2077 0.46409 0.0
C2391 C 0.40579 0.22264 0.44863 0.0
C2392 C 0.37634 0.12957 0.42583 0.0
C2393 C 0.3823 0.14199 0.43071 0.0
C2394 C 0.37705 0.15601 0.43952 0.0
C2395 C 0.38862 0.16462 0.44316 0.0
C2396 C 0.39076 0.1746 0.45028 0.0
C2397 C 0.38113 0.17585 0.45405 0.0
C2398 C 0.36949 0.16724 0.45032 0.0
C2399 C 0.36763 0.15748 0.44299 0.0
C2400 C 0.40332 0.18377 0.45382 0.0
C2401 C 0.359 0.16828 0.45419 0.0
C2402 C 0.38798 0.15708 0.53175 0.0
C2403 C 0.39892 0.16693 0.52856 0.0
C2404 C 0.39949 0.1769 0.52313 0.0
C2405 C 0.38895 0.17708 0.52094 0.0
C2406 C 0.37798 0.16737 0.52452 0.0
C2407 C 0.37765 0.15748 0.52985 0.0
C2408 C 0.41134 0.18715 0.51945 0.0
C2409 C 0.36657 0.16734 0.52246 0.0
C2410 C 0.39374 0.26037 0.5285 0.0
C2411 C 0.38833 0.25122 0.53882 0.0
C2412 C 0.39429 0.23647 0.53583 0.0
C2413 C 0.40447 0.23638 0.53227 0.0
C2414 C 0.4037 0.22654 0.52596 0.0
C2415 C 0.39245 0.21654 0.52332 0.0
C2416 C 0.38215 0.21632 0.52757 0.0
C2417 C 0.38318 0.22625 0.53388 0.0
C2418 C 0.41487 0.22696 0.52177 0.0
C2419 C 0.37003 0.20567 0.52519 0.0
C2420 C 0.3853 0.20568 0.46315 0.0
C2421 C 0.38341 0.19574 0.45625 0.0
C2422 C 0.38321 0.18612 0.46198 0.0
C2423 C 0.38482 0.18632 0.47501 0.0
C2424 C 0.38443 0.1767 0.48112 0.0
C2425 C 0.38601 0.17697 0.49394 0.0
C2426 C 0.38792 0.18683 0.50118 0.0
C2427 C 0.38933 0.18712 0.51426 0.0
C2428 C 0.391 0.19696 0.5212 0.0
C2429 C 0.39136 0.20664 0.51542 0.0
C2430 C 0.39017 0.20661 0.50234 0.0
C2431 C 0.3907 0.21629 0.49621 0.0
C2432 C 0.38931 0.21609 0.48337 0.0
C2433 C 0.38715 0.20614 0.47616 0.0
C2434 C 0.38681 0.19637 0.48212 0.0
C2435 C 0.38834 0.19662 0.49522 0.0
C2436 C 0.39957 0.14128 0.5265 0.0
C2437 C 0.39578 0.14444 0.5388 0.0
O2438 O 0.38399 0.24343 0.43956 0.0
O2439 O 0.3955 0.2465 0.54119 0.0
O2440 O 0.38688 0.14695 0.53639 0.0
O2441 O 0.37461 0.14616 0.43276 0.0
H2442 H 0.39482 0.2472 0.42452 0.0
H2443 H 0.40757 0.25863 0.44276 0.0
H2444 H 0.39945 0.26618 0.44481 0.0
H2445 H 0.40818 0.26855 0.43103 0.0
H2446 H 0.36723 0.2272 0.45218 0.0
H2447 H 0.40203 0.23906 0.43829 0.0
H2448 H 0.36163 0.1985 0.46164 0.0
H2449 H 0.35619 0.20871 0.46201 0.0
H2450 H 0.36574 0.20901 0.47424 0.0
H2451 H 0.41311 0.23035 0.44392 0.0
H2452 H 0.40368 0.21446 0.44331 0.0
H2453 H 0.40886 0.22194 0.45804 0.0
H2454 H 0.39043 0.14836 0.42566 0.0
H2455 H 0.38011 0.13021 0.4163 0.0
H2456 H 0.36737 0.12744 0.42225 0.0
H2457 H 0.37856 0.12018 0.44023 0.0
H2458 H 0.39603 0.16364 0.44045 0.0
H2459 H 0.35875 0.15082 0.44011 0.0
H2460 H 0.40511 0.19276 0.45144 0.0
H2461 H 0.40989 0.18215 0.44909 0.0
H2462 H 0.40457 0.18367 0.46401 0.0
H2463 H 0.35046 0.16041 0.45127 0.0
H2464 H 0.35961 0.17627 0.45 0.0
H2465 H 0.35906 0.16938 0.46445 0.0
H2466 H 0.40357 0.15231 0.54311 0.0
H2467 H 0.40705 0.16687 0.53004 0.0
H2468 H 0.36926 0.1499 0.5324 0.0
H2469 H 0.41143 0.18839 0.50926 0.0
H2470 H 0.41877 0.18578 0.52199 0.0
H2471 H 0.4128 0.19544 0.52405 0.0
H2472 H 0.35886 0.15944 0.52647 0.0
H2473 H 0.36498 0.16745 0.51234 0.0
H2474 H 0.36726 0.17545 0.52669 0.0
H2475 H 0.37949 0.24434 0.53522 0.0
H2476 H 0.3886 0.26491 0.52719 0.0
H2477 H 0.3935 0.25582 0.51961 0.0
H2478 H 0.4031 0.26706 0.53064 0.0
H2479 H 0.41303 0.24421 0.53407 0.0
H2480 H 0.37529 0.22597 0.53727 0.0
H2481 H 0.41501 0.2267 0.51145 0.0
H2482 H 0.41503 0.21907 0.52513 0.0
H2483 H 0.42296 0.23508 0.52518 0.0
H2484 H 0.36291 0.20671 0.52945 0.0
H2485 H 0.36964 0.19762 0.52896 0.0
H2486 H 0.36833 0.20421 0.51502 0.0
H2487 H 0.38201 0.19545 0.44627 0.0
H2488 H 0.38288 0.16882 0.47607 0.0
H2489 H 0.38564 0.16931 0.49811 0.0
H2490 H 0.3919 0.19704 0.53124 0.0
H2491 H 0.3922 0.22415 0.50126 0.0
H2492 H 0.38985 0.22382 0.47918 0.0
H2493 H 0.39222 0.1329 0.52244 0.0
H2494 H 0.40747 0.1404 0.52802 0.0
H2495 H 0.40201 0.14835 0.51961 0.0
C2496 C 0.85257 0.21612 0.41079 0.0
C2497 C 0.85676 0.22837 0.41671 0.0
C2498 C 0.84686 0.22182 0.43659 0.0
C2499 C 0.83712 0.22337 0.43497 0.0
C2500 C 0.82698 0.21714 0.44224 0.0
C2501 C 0.82653 0.20904 0.45113 0.0
C2502 C 0.8364 0.20751 0.45278 0.0
C2503 C 0.84655 0.21417 0.44568 0.0
C2504 C 0.81674 0.21916 0.44037 0.0
C2505 C 0.83619 0.19871 0.46186 0.0
C2506 C 0.74024 0.14225 0.43478 0.0
C2507 C 0.74988 0.14194 0.42702 0.0
C2508 C 0.76796 0.1536 0.43982 0.0
C2509 C 0.77632 0.1528 0.44718 0.0
C2510 C 0.78557 0.16284 0.45314 0.0
C2511 C 0.78637 0.17396 0.45183 0.0
C2512 C 0.77805 0.1749 0.44426 0.0
C2513 C 0.76897 0.16473 0.43824 0.0
C2514 C 0.79442 0.16152 0.46094 0.0
C2515 C 0.77869 0.18664 0.44266 0.0
C2516 C 0.76197 0.16566 0.52876 0.0
C2517 C 0.77133 0.16368 0.52634 0.0
C2518 C 0.78173 0.17241 0.52081 0.0
C2519 C 0.78272 0.18332 0.51756 0.0
C2520 C 0.77356 0.18558 0.52061 0.0
C2521 C 0.76332 0.17673 0.52633 0.0
C2522 C 0.79151 0.16985 0.51812 0.0
C2523 C 0.77441 0.19718 0.51743 0.0
C2524 C 0.86157 0.26358 0.52785 0.0
C2525 C 0.85669 0.25582 0.53934 0.0
C2526 C 0.84316 0.23595 0.53028 0.0
C2527 C 0.84184 0.22484 0.52785 0.0
C2528 C 0.83192 0.21598 0.52138 0.0
C2529 C 0.82308 0.21833 0.51721 0.0
C2530 C 0.82424 0.2295 0.51978 0.0
C2531 C 0.83426 0.23821 0.52631 0.0
C2532 C 0.83093 0.20413 0.51889 0.0
C2533 C 0.81494 0.23225 0.51547 0.0
C2534 C 0.81559 0.20183 0.45834 0.0
C2535 C 0.80613 0.19208 0.45231 0.0
C2536 C 0.79576 0.18453 0.45862 0.0
C2537 C 0.79473 0.1867 0.47133 0.0
C2538 C 0.7844 0.17931 0.47794 0.0
C2539 C 0.7837 0.18113 0.49059 0.0
C2540 C 0.79331 0.19042 0.49713 0.0
C2541 C 0.79293 0.19193 0.51014 0.0
C2542 C 0.80262 0.20126 0.51635 0.0
C2543 C 0.81279 0.20917 0.50991 0.0
C2544 C 0.81332 0.20781 0.49691 0.0
C2545 C 0.82338 0.21564 0.49013 0.0
C2546 C 0.82403 0.21389 0.47743 0.0
C2547 C 0.81473 0.20414 0.47106 0.0
C2548 C 0.80433 0.19643 0.47761 0.0
C2549 C 0.80361 0.19829 0.49054 0.0
C2550 C 0.73554 0.14388 0.52021 0.0
C2551 C 0.7454 0.14542 0.52911 0.0
O2552 O 0.85668 0.22756 0.42956 0.0
O2553 O 0.85318 0.24415 0.53636 0.0
O2554 O 0.75156 0.15707 0.53341 0.0
O2555 O 0.7591 0.1434 0.43462 0.0
H2556 H 0.85074 0.23154 0.41367 0.0
H2557 H 0.84345 0.20972 0.4138 0.0
H2558 H 0.85851 0.21278 0.41364 0.0
H2559 H 0.85243 0.2165 0.40049 0.0
H2560 H 0.83747 0.22956 0.42818 0.0
H2561 H 0.85417 0.21311 0.44687 0.0
H2562 H 0.80929 0.2112 0.43581 0.0
H2563 H 0.81911 0.22694 0.43447 0.0
H2564 H 0.81359 0.22052 0.44947 0.0
H2565 H 0.84369 0.19717 0.4605 0.0
H2566 H 0.82778 0.1901 0.46092 0.0
H2567 H 0.83674 0.2021 0.4715 0.0
H2568 H 0.75326 0.14913 0.42008 0.0
H2569 H 0.73275 0.14079 0.42868 0.0
H2570 H 0.74375 0.15097 0.43956 0.0
H2571 H 0.73689 0.13528 0.44195 0.0
H2572 H 0.77552 0.14421 0.44829 0.0
H2573 H 0.76268 0.16557 0.43247 0.0
H2574 H 0.79335 0.16313 0.47087 0.0
H2575 H 0.80356 0.16821 0.45827 0.0
H2576 H 0.7933 0.15255 0.45995 0.0
H2577 H 0.77123 0.18583 0.43694 0.0
H2578 H 0.78712 0.19294 0.43812 0.0
H2579 H 0.77862 0.1905 0.45189 0.0
H2580 H 0.75115 0.1432 0.52349 0.0
H2581 H 0.77053 0.1553 0.52872 0.0
H2582 H 0.75612 0.17825 0.52847 0.0
H2583 H 0.79204 0.16879 0.50793 0.0
H2584 H 0.79005 0.16165 0.52265 0.0
H2585 H 0.80015 0.17739 0.52133 0.0
H2586 H 0.76654 0.19759 0.52048 0.0
H2587 H 0.77534 0.19844 0.50722 0.0
H2588 H 0.78243 0.20462 0.5219 0.0
H2589 H 0.84902 0.25633 0.54295 0.0
H2590 H 0.86455 0.27296 0.53032 0.0
H2591 H 0.85465 0.26063 0.52049 0.0
H2592 H 0.86916 0.26307 0.52402 0.0
H2593 H 0.84871 0.22316 0.53098 0.0
H2594 H 0.83508 0.24673 0.52815 0.0
H2595 H 0.83092 0.20262 0.50871 0.0
H2596 H 0.82243 0.19692 0.52253 0.0
H2597 H 0.83831 0.20353 0.52321 0.0
H2598 H 0.81713 0.24136 0.51818 0.0
H2599 H 0.80627 0.22582 0.5195 0.0
H2600 H 0.81397 0.23126 0.5052 0.0
H2601 H 0.80694 0.19021 0.44263 0.0
H2602 H 0.77677 0.17194 0.47344 0.0
H2603 H 0.77556 0.17507 0.4952 0.0
H2604 H 0.80237 0.20221 0.52636 0.0
H2605 H 0.83089 0.22317 0.49458 0.0
H2606 H 0.832 0.22017 0.47271 0.0
H2607 H 0.72973 0.14665 0.5248 0.0
H2608 H 0.7302 0.13453 0.51689 0.0
H2609 H 0.73951 0.14954 0.51198 0.0
C2610 C 0.03011 0.48434 0.27156 0.0
C2611 C 0.02011 0.47454 0.2637 0.0
C2612 C 0.01732 0.48055 0.24329 0.0
C2613 C 0.00496 0.47493 0.2425 0.0
C2614 C 0.99949 0.47917 0.23454 0.0
C2615 C 0.00656 0.48931 0.22735 0.0
C2616 C 0.01904 0.49477 0.2279 0.0
C2617 C 0.02425 0.49015 0.23571 0.0
C2618 C 0.98617 0.47292 0.23393 0.0
C2619 C 0.0269 0.5057 0.22053 0.0
C2620 C 0.96406 0.5246 0.27098 0.0
C2621 C 0.97534 0.53026 0.26331 0.0
C2622 C 0.97734 0.52323 0.24301 0.0
C2623 C 0.98965 0.52845 0.24234 0.0
C2624 C 0.99473 0.52371 0.23438 0.0
C2625 C 0.9873 0.51332 0.22727 0.0
C2626 C 0.97484 0.50809 0.22794 0.0
C2627 C 0.97006 0.51335 0.23556 0.0
C2628 C 0.00802 0.52973 0.23373 0.0
C2629 C 0.96651 0.49675 0.22095 0.0
C2630 C 0.9781 0.52529 0.14774 0.0
C2631 C 0.99005 0.53025 0.1511 0.0
C2632 C 0.99406 0.52344 0.15705 0.0
C2633 C 0.9859 0.51145 0.15977 0.0
C2634 C 0.97394 0.50631 0.1559 0.0
C2635 C 0.97023 0.51329 0.14977 0.0
C2636 C 0.00695 0.52909 0.16063 0.0
C2637 C 0.96503 0.49354 0.15851 0.0
C2638 C 0.00284 0.44124 0.15786 0.0
C2639 C 0.99549 0.44193 0.14715 0.0
C2640 C 0.99887 0.46212 0.14889 0.0
C2641 C 0.00835 0.47379 0.14903 0.0
C2642 C 0.00744 0.48293 0.15492 0.0
C2643 C 0.9967 0.48032 0.16059 0.0
C2644 C 0.98691 0.46863 0.16 0.0
C2645 C 0.98808 0.45965 0.15415 0.0
C2646 C 0.01801 0.49533 0.15533 0.0
C2647 C 0.97521 0.46559 0.16567 0.0
C2648 C 0.00099 0.49469 0.21988 0.0
C2649 C 0.99707 0.50143 0.2262 0.0
C2650 C 0.99245 0.50743 0.2198 0.0
C2651 C 0.99214 0.50709 0.20666 0.0
C2652 C 0.98841 0.51374 0.19986 0.0
C2653 C 0.98772 0.51299 0.18694 0.0
C2654 C 0.99069 0.50554 0.18032 0.0
C2655 C 0.98975 0.5045 0.1672 0.0
C2656 C 0.99217 0.49653 0.16098 0.0
C2657 C 0.9957 0.48965 0.16752 0.0
C2658 C 0.99729 0.49103 0.18057 0.0
C2659 C 0.00134 0.48464 0.18736 0.0
C2660 C 0.00268 0.4859 0.20023 0.0
C2661 C 0.99981 0.49344 0.2068 0.0
C2662 C 0.99556 0.49984 0.20016 0.0
C2663 C 0.99459 0.49886 0.187 0.0
C2664 C 0.96577 0.5408 0.15522 0.0
C2665 C 0.97605 0.54271 0.14698 0.0
O2666 O 0.0228 0.47687 0.25124 0.0
O2667 O 0.00042 0.45358 0.14341 0.0
O2668 O 0.97396 0.53184 0.14243 0.0
O2669 O 0.97226 0.52746 0.25087 0.0
H2670 H 0.01186 0.4746 0.26599 0.0
H2671 H 0.03108 0.49304 0.26927 0.0
H2672 H 0.03862 0.48472 0.2697 0.0
H2673 H 0.02811 0.48277 0.28162 0.0
H2674 H 0.99962 0.46722 0.24809 0.0
H2675 H 0.03379 0.4943 0.2363 0.0
H2676 H 0.98314 0.47852 0.23858 0.0
H2677 H 0.98198 0.46421 0.23857 0.0
H2678 H 0.98306 0.47154 0.2241 0.0
H2679 H 0.03641 0.50953 0.22295 0.0
H2680 H 0.02443 0.51256 0.2222 0.0
H2681 H 0.02567 0.50342 0.21046 0.0
H2682 H 0.98078 0.52641 0.26647 0.0
H2683 H 0.96624 0.52639 0.28106 0.0
H2684 H 0.95913 0.51485 0.26938 0.0
H2685 H 0.95826 0.52813 0.26828 0.0
H2686 H 0.99526 0.53627 0.24798 0.0
H2687 H 0.96055 0.50945 0.23615 0.0
H2688 H 0.01087 0.53015 0.22394 0.0
H2689 H 0.01108 0.52453 0.23901 0.0
H2690 H 0.01242 0.53886 0.23776 0.0
H2691 H 0.95732 0.49264 0.22445 0.0
H2692 H 0.9695 0.49022 0.22168 0.0
H2693 H 0.96634 0.49868 0.21097 0.0
H2694 H 0.98422 0.54709 0.15284 0.0
H2695 H 0.99625 0.53943 0.14902 0.0
H2696 H 0.96107 0.50951 0.14691 0.0
H2697 H 0.00791 0.53004 0.1709 0.0
H2698 H 0.01239 0.53798 0.15653 0.0
H2699 H 0.01047 0.52334 0.15757 0.0
H2700 H 0.95592 0.49109 0.1556 0.0
H2701 H 0.96505 0.49184 0.16859 0.0
H2702 H 0.96752 0.48768 0.15346 0.0
H2703 H 0.98636 0.43844 0.15052 0.0
H2704 H 0.99911 0.43191 0.16075 0.0
H2705 H 0.00268 0.44649 0.16598 0.0
H2706 H 0.01218 0.44485 0.15506 0.0
H2707 H 0.01658 0.47566 0.14478 0.0
H2708 H 0.98046 0.45081 0.15357 0.0
H2709 H 0.02057 0.49827 0.16515 0.0
H2710 H 0.01566 0.50152 0.15099 0.0
H2711 H 0.02574 0.49593 0.15044 0.0
H2712 H 0.96824 0.45623 0.1638 0.0
H2713 H 0.97216 0.47148 0.16194 0.0
H2714 H 0.97632 0.46711 0.17588 0.0
H2715 H 0.99755 0.50194 0.23628 0.0
H2716 H 0.98598 0.51958 0.20448 0.0
H2717 H 0.98469 0.51824 0.18223 0.0
H2718 H 0.99105 0.49548 0.15096 0.0
H2719 H 0.00359 0.47863 0.1828 0.0
H2720 H 0.00583 0.48077 0.20498 0.0
H2721 H 0.96728 0.54943 0.15893 0.0
H2722 H 0.96506 0.53518 0.1632 0.0
H2723 H 0.95729 0.5363 0.14989 0.0
C2724 C 0.47136 0.40798 0.24314 0.0
C2725 C 0.47114 0.41813 0.25019 0.0
C2726 C 0.48126 0.43539 0.23653 0.0
C2727 C 0.47962 0.44326 0.22934 0.0
C2728 C 0.48911 0.45265 0.22325 0.0
C2729 C 0.50051 0.45403 0.2242 0.0
C2730 C 0.50227 0.44615 0.23153 0.0
C2731 C 0.49265 0.43697 0.23772 0.0
C2732 C 0.48693 0.46101 0.2157 0.0
C2733 C 0.5143 0.44736 0.23273 0.0
C2734 C 0.57189 0.53593 0.26368 0.0
C2735 C 0.56436 0.52389 0.25805 0.0
C2736 C 0.55083 0.5139 0.24055 0.0
C2737 C 0.55175 0.50366 0.24081 0.0
C2738 C 0.54453 0.49381 0.23314 0.0
C2739 C 0.53598 0.49405 0.22529 0.0
C2740 C 0.53498 0.50432 0.22505 0.0
C2741 C 0.54258 0.51419 0.23254 0.0
C2742 C 0.54598 0.48309 0.23357 0.0
C2743 C 0.5258 0.50482 0.21701 0.0
C2744 C 0.56228 0.50813 0.14684 0.0
C2745 C 0.56457 0.50011 0.15307 0.0
C2746 C 0.55548 0.49034 0.15917 0.0
C2747 C 0.54394 0.48865 0.15918 0.0
C2748 C 0.54157 0.49658 0.15271 0.0
C2749 C 0.55078 0.50616 0.14655 0.0
C2750 C 0.55823 0.48189 0.16576 0.0
C2751 C 0.52937 0.49503 0.1525 0.0
C2752 C 0.4704 0.39787 0.15007 0.0
C2753 C 0.47312 0.40938 0.1438 0.0
C2754 C 0.4929 0.42659 0.14655 0.0
C2755 C 0.50408 0.42873 0.15009 0.0
C2756 C 0.51221 0.43933 0.15625 0.0
C2757 C 0.50912 0.44808 0.15861 0.0
C2758 C 0.49807 0.44624 0.15437 0.0
C2759 C 0.49004 0.43547 0.14841 0.0
C2760 C 0.52395 0.44105 0.16052 0.0
C2761 C 0.49467 0.45555 0.15631 0.0
C2762 C 0.51051 0.46354 0.21728 0.0
C2763 C 0.51827 0.47405 0.22367 0.0
C2764 C 0.52784 0.48338 0.21769 0.0
C2765 C 0.52965 0.4823 0.20489 0.0
C2766 C 0.53913 0.49151 0.19854 0.0
C2767 C 0.54068 0.49044 0.18589 0.0
C2768 C 0.53294 0.48002 0.17916 0.0
C2769 C 0.53441 0.47886 0.16629 0.0
C2770 C 0.52657 0.46838 0.15988 0.0
C2771 C 0.51723 0.45892 0.16598 0.0
C2772 C 0.51565 0.45991 0.17885 0.0
C2773 C 0.50644 0.45052 0.18532 0.0
C2774 C 0.50478 0.45166 0.19791 0.0
C2775 C 0.51227 0.46222 0.20454 0.0
C2776 C 0.5218 0.47169 0.19829 0.0
C2777 C 0.52348 0.47053 0.18543 0.0
C2778 C 0.58751 0.5288 0.15474 0.0
C2779 C 0.58297 0.52287 0.14194 0.0
O2780 O 0.47157 0.42639 0.24195 0.0
O2781 O 0.48512 0.41591 0.14132 0.0
O2782 O 0.57081 0.5179 0.14107 0.0
O2783 O 0.55768 0.5236 0.24788 0.0
H2784 H 0.47886 0.42245 0.2567 0.0
H2785 H 0.47974 0.41133 0.23799 0.0
H2786 H 0.46391 0.40367 0.23633 0.0
H2787 H 0.4707 0.40124 0.24977 0.0
H2788 H 0.47082 0.442 0.2285 0.0
H2789 H 0.49413 0.43103 0.24331 0.0
H2790 H 0.49344 0.47033 0.21835 0.0
H2791 H 0.47787 0.45948 0.21697 0.0
H2792 H 0.48815 0.4598 0.2057 0.0
H2793 H 0.51401 0.43988 0.2378 0.0
H2794 H 0.52036 0.45573 0.23783 0.0
H2795 H 0.51807 0.44784 0.22339 0.0
H2796 H 0.55909 0.51673 0.26479 0.0
H2797 H 0.58916 0.53943 0.26072 0.0
H2798 H 0.56822 0.5354 0.27324 0.0
H2799 H 0.56852 0.54167 0.25988 0.0
H2800 H 0.55811 0.50328 0.24693 0.0
H2801 H 0.54193 0.52212 0.23238 0.0
H2802 H 0.53832 0.47586 0.23841 0.0
H2803 H 0.55419 0.48498 0.23859 0.0
H2804 H 0.54615 0.47986 0.22402 0.0
H2805 H 0.52536 0.51296 0.21884 0.0
H2806 H 0.51694 0.49695 0.21861 0.0
H2807 H 0.52792 0.50463 0.20706 0.0
H2808 H 0.58531 0.51587 0.14045 0.0
H2809 H 0.57339 0.5014 0.15326 0.0
H2810 H 0.54909 0.51235 0.14166 0.0
H2811 H 0.55723 0.48256 0.17593 0.0
H2812 H 0.56735 0.48379 0.16396 0.0
H2813 H 0.55186 0.47263 0.16277 0.0
H2814 H 0.52908 0.50221 0.14741 0.0
H2815 H 0.52634 0.49489 0.16216 0.0
H2816 H 0.52304 0.4864 0.14799 0.0
H2817 H 0.47055 0.41422 0.1505 0.0
H2818 H 0.46082 0.39248 0.15216 0.0
H2819 H 0.47547 0.39993 0.15894 0.0
H2820 H 0.47291 0.39258 0.144 0.0
H2821 H 0.50627 0.42189 0.1484 0.0
H2822 H 0.48156 0.43401 0.14519 0.0
H2823 H 0.52502 0.44276 0.17071 0.0
H2824 H 0.53123 0.44892 0.15597 0.0
H2825 H 0.52485 0.43322 0.15832 0.0
H2826 H 0.4864 0.45335 0.15122 0.0
H2827 H 0.50189 0.4643 0.15321 0.0
H2828 H 0.49333 0.4564 0.16637 0.0
H2829 H 0.51688 0.47496 0.23346 0.0
H2830 H 0.54541 0.4997 0.20325 0.0
H2831 H 0.54804 0.49789 0.18148 0.0
H2832 H 0.5277 0.46759 0.15 0.0
H2833 H 0.50037 0.44219 0.18072 0.0
H2834 H 0.49752 0.44414 0.20236 0.0
H2835 H 0.59728 0.53293 0.15538 0.0
H2836 H 0.58359 0.52218 0.1622 0.0
H2837 H 0.58514 0.53574 0.15639 0.0
C2838 C 0.44877 0.96801 0.27458 0.0
C2839 C 0.45091 0.97884 0.26726 0.0
C2840 C 0.45997 0.98244 0.2469 0.0
C2841 C 0.46653 0.99486 0.24704 0.0
C2842 C 0.47633 0.00094 0.23929 0.0
C2843 C 0.4797 0.99443 0.23142 0.0
C2844 C 0.47286 0.98188 0.23107 0.0
C2845 C 0.4629 0.97607 0.23863 0.0
C2846 C 0.4832 0.01431 0.23968 0.0
C2847 C 0.47628 0.97454 0.22307 0.0
C2848 C 0.55779 0.03423 0.27703 0.0
C2849 C 0.55207 0.02321 0.26855 0.0
C2850 C 0.54306 0.02228 0.24852 0.0
C2851 C 0.53533 0.01005 0.24711 0.0
C2852 C 0.52547 0.0056 0.23908 0.0
C2853 C 0.52315 0.0136 0.23263 0.0
C2854 C 0.53103 0.02597 0.23404 0.0
C2855 C 0.54106 0.03012 0.24173 0.0
C2856 C 0.5175 0.99236 0.23759 0.0
C2857 C 0.52875 0.03485 0.22768 0.0
C2858 C 0.54288 0.01245 0.15308 0.0
C2859 C 0.53458 0.00167 0.15847 0.0
C2860 C 0.52455 0.00047 0.16439 0.0
C2861 C 0.52286 0.01031 0.16524 0.0
C2862 C 0.5311 0.02114 0.15977 0.0
C2863 C 0.54098 0.02203 0.1537 0.0
C2864 C 0.51582 0.98869 0.16991 0.0
C2865 C 0.52957 0.03179 0.16056 0.0
C2866 C 0.43077 0.97957 0.1497 0.0
C2867 C 0.4412 0.99184 0.14674 0.0
C2868 C 0.46056 0.99391 0.1501 0.0
C2869 C 0.4648 0.98609 0.15105 0.0
C2870 C 0.47492 0.98905 0.1582 0.0
C2871 C 0.48116 0.0003 0.1642 0.0
C2872 C 0.47715 0.00846 0.16283 0.0
C2873 C 0.46682 0.00513 0.15587 0.0
C2874 C 0.47887 0.98009 0.15941 0.0
C2875 C 0.48382 0.0207 0.16867 0.0
C2876 C 0.49089 0.00059 0.22436 0.0
C2877 C 0.50147 0.0046 0.23097 0.0
C2878 C 0.51225 0.00908 0.22488 0.0
C2879 C 0.51248 0.0093 0.21174 0.0
C2880 C 0.52298 0.01277 0.20524 0.0
C2881 C 0.52309 0.01285 0.19231 0.0
C2882 C 0.51271 0.00957 0.1854 0.0
C2883 C 0.51266 0.00924 0.17227 0.0
C2884 C 0.50237 0.00655 0.16567 0.0
C2885 C 0.49187 0.00353 0.17184 0.0
C2886 C 0.49156 0.00305 0.18498 0.0
C2887 C 0.48099 0.99924 0.1915 0.0
C2888 C 0.48075 0.99852 0.2044 0.0
C2889 C 0.49109 0.00165 0.21129 0.0
C2890 C 0.5019 0.00581 0.20495 0.0
C2891 C 0.50208 0.00625 0.19177 0.0
C2892 C 0.56273 0.00565 0.15824 0.0
C2893 C 0.55656 0.00588 0.1462 0.0
O2894 O 0.4508 0.97636 0.25468 0.0
O2895 O 0.45064 0.99053 0.14323 0.0
O2896 O 0.55279 0.01402 0.14731 0.0
O2897 O 0.55248 0.02676 0.2564 0.0
H2898 H 0.45974 0.98633 0.27024 0.0
H2899 H 0.45579 0.96589 0.27247 0.0
H2900 H 0.44005 0.96019 0.27204 0.0
H2901 H 0.44903 0.96982 0.28473 0.0
H2902 H 0.46399 0.99977 0.25322 0.0
H2903 H 0.45766 0.96648 0.23853 0.0
H2904 H 0.49173 0.01744 0.24466 0.0
H2905 H 0.47831 0.01803 0.24455 0.0
H2906 H 0.48522 0.01783 0.23012 0.0
H2907 H 0.471 0.96495 0.22517 0.0
H2908 H 0.4858 0.97755 0.22441 0.0
H2909 H 0.47485 0.97566 0.21313 0.0
H2910 H 0.54271 0.01763 0.27153 0.0
H2911 H 0.5573 0.03168 0.28692 0.0
H2912 H 0.55306 0.0392 0.27599 0.0
H2913 H 0.56722 0.04014 0.27457 0.0
H2914 H 0.53707 0.00401 0.25221 0.0
H2915 H 0.54716 0.03956 0.24288 0.0
H2916 H 0.51518 0.98985 0.22764 0.0
H2917 H 0.50917 0.98953 0.24267 0.0
H2918 H 0.52168 0.98745 0.24132 0.0
H2919 H 0.53446 0.04397 0.2315 0.0
H2920 H 0.51935 0.03239 0.22868 0.0
H2921 H 0.53056 0.03492 0.21762 0.0
H2922 H 0.54885 0.99688 0.14433 0.0
H2923 H 0.53583 0.99413 0.15823 0.0
H2924 H 0.54738 0.03031 0.14952 0.0
H2925 H 0.51638 0.98948 0.1802 0.0
H2926 H 0.51753 0.98152 0.16702 0.0
H2927 H 0.50665 0.98607 0.16709 0.0
H2928 H 0.53697 0.0397 0.15618 0.0
H2929 H 0.52898 0.03396 0.17044 0.0
H2930 H 0.52117 0.02972 0.15587 0.0
H2931 H 0.44338 0.99745 0.15532 0.0
H2932 H 0.42314 0.98023 0.15314 0.0
H2933 H 0.43341 0.97547 0.15707 0.0
H2934 H 0.42796 0.97371 0.1413 0.0
H2935 H 0.45998 0.97752 0.14637 0.0
H2936 H 0.46374 0.01134 0.15474 0.0
H2937 H 0.48062 0.97916 0.16932 0.0
H2938 H 0.48725 0.98322 0.15431 0.0
H2939 H 0.47221 0.97124 0.15558 0.0
H2940 H 0.48041 0.02646 0.16547 0.0
H2941 H 0.49337 0.025 0.16647 0.0
H2942 H 0.48301 0.02002 0.17893 0.0
H2943 H 0.50128 0.00403 0.24103 0.0
H2944 H 0.53121 0.01531 0.21006 0.0
H2945 H 0.53142 0.01555 0.1878 0.0
H2946 H 0.50243 0.00638 0.15558 0.0
H2947 H 0.47274 0.99664 0.18668 0.0
H2948 H 0.47236 0.99548 0.20894 0.0
H2949 H 0.56596 0.9993 0.15724 0.0
H2950 H 0.55648 0.00277 0.1661 0.0
H2951 H 0.57034 0.01459 0.16055 0.0
C2952 C 0.54061 0.97338 0.77141 0.0
C2953 C 0.54359 0.98473 0.76451 0.0
C2954 C 0.5373 0.99554 0.7785 0.0
C2955 C 0.54137 0.00578 0.78585 0.0
C2956 C 0.53349 0.00822 0.79215 0.0
C2957 C 0.5212 6e-05 0.79124 0.0
C2958 C 0.51697 0.98972 0.78373 0.0
C2959 C 0.52505 0.9876 0.77735 0.0
C2960 C 0.5383 0.01947 0.79988 0.0
C2961 C 0.50391 0.98083 0.78257 0.0
C2962 C 0.48924 0.04662 0.75207 0.0
C2963 C 0.48167 0.03434 0.7576 0.0
C2964 C 0.48655 0.02884 0.77733 0.0
C2965 C 0.48182 0.01667 0.77516 0.0
C2966 C 0.48558 0.01024 0.78228 0.0
C2967 C 0.4944 0.01619 0.7916 0.0
C2968 C 0.49907 0.02847 0.79387 0.0
C2969 C 0.49484 0.03456 0.78689 0.0
C2970 C 0.48022 0.99714 0.77973 0.0
C2971 C 0.50873 0.03527 0.80345 0.0
C2972 C 0.4665 0.007 0.86849 0.0
C2973 C 0.46235 0.9957 0.86315 0.0
C2974 C 0.47016 0.99289 0.85723 0.0
C2975 C 0.48232 0.00153 0.85671 0.0
C2976 C 0.48658 0.01273 0.86254 0.0
C2977 C 0.47859 0.01527 0.86848 0.0
C2978 C 0.46541 0.98075 0.85138 0.0
C2979 C 0.49951 0.0221 0.86227 0.0
C2980 C 0.54658 0.97773 0.85674 0.0
C2981 C 0.54655 0.98346 0.86928 0.0
C2982 C 0.52759 0.98267 0.86834 0.0
C2983 C 0.51592 0.9741 0.86536 0.0
C2984 C 0.50825 0.97723 0.85966 0.0
C2985 C 0.51237 0.98927 0.85711 0.0
C2986 C 0.52393 0.99806 0.86088 0.0
C2987 C 0.53142 0.99468 0.86646 0.0
C2988 C 0.49593 0.96766 0.85592 0.0
C2989 C 0.52848 0.01103 0.8587 0.0
C2990 C 0.51278 0.00219 0.79838 0.0
C2991 C 0.50722 0.00745 0.7923 0.0
C2992 C 0.49923 0.00977 0.79848 0.0
C2993 C 0.49658 0.00663 0.81108 0.0
C2994 C 0.48832 0.00847 0.8175 0.0
C2995 C 0.48621 0.00588 0.83006 0.0
C2996 C 0.49225 0.00131 0.83668 0.0
C2997 C 0.4905 0.99906 0.84955 0.0
C2998 C 0.49692 0.99484 0.85592 0.0
C2999 C 0.50498 0.99265 0.84972 0.0
C3000 C 0.50656 0.99448 0.83677 0.0
C3001 C 0.51431 0.992 0.83017 0.0
C3002 C 0.51617 0.99427 0.81755 0.0
C3003 C 0.5105 0.99931 0.81107 0.0
C3004 C 0.50243 0.0016 0.81745 0.0
C3005 C 0.50034 0.99905 0.83029 0.0
C3006 C 0.44885 0.0181 0.86357 0.0
C3007 C 0.44801 0.00728 0.86981 0.0
O3008 O 0.54551 0.99369 0.77288 0.0
O3009 O 0.53494 0.97909 0.87289 0.0
O3010 O 0.45917 0.01012 0.87402 0.0
O3011 O 0.48331 0.03531 0.77039 0.0
H3012 H 0.53614 0.98286 0.75811 0.0
H3013 H 0.53229 0.97007 0.77665 0.0
H3014 H 0.54777 0.97504 0.77813 0.0
H3015 H 0.53941 0.96634 0.76468 0.0
H3016 H 0.55082 0.01188 0.78665 0.0
H3017 H 0.5217 0.97965 0.77165 0.0
H3018 H 0.53364 0.02428 0.79742 0.0
H3019 H 0.54795 0.02546 0.79859 0.0
H3020 H 0.53669 0.01723 0.80986 0.0
H3021 H 0.50207 0.97292 0.77687 0.0
H3022 H 0.49933 0.98508 0.77822 0.0
H3023 H 0.50011 0.97789 0.79194 0.0
H3024 H 0.48478 0.02853 0.75353 0.0
H3025 H 0.48842 0.04612 0.74177 0.0
H3026 H 0.49868 0.05018 0.75461 0.0
H3027 H 0.48648 0.05283 0.75569 0.0
H3028 H 0.47515 0.01219 0.76795 0.0
H3029 H 0.49835 0.04395 0.78853 0.0
H3030 H 0.48679 0.99557 0.77492 0.0
H3031 H 0.47216 0.99349 0.77376 0.0
H3032 H 0.47793 0.99222 0.78858 0.0
H3033 H 0.5127 0.045 0.80262 0.0
H3034 H 0.51584 0.03308 0.80252 0.0
H3035 H 0.50502 0.03274 0.8129 0.0
H3036 H 0.44452 0.99999 0.86273 0.0
H3037 H 0.45308 0.98904 0.86371 0.0
H3038 H 0.48172 0.02387 0.87287 0.0
H3039 H 0.46667 0.98159 0.84117 0.0
H3040 H 0.45586 0.97478 0.85323 0.0
H3041 H 0.47041 0.97663 0.85496 0.0
H3042 H 0.5014 0.0304 0.8672 0.0
H3043 H 0.50241 0.0242 0.85249 0.0
H3044 H 0.50485 0.01869 0.86666 0.0
H3045 H 0.55112 0.99316 0.86783 0.0
H3046 H 0.55577 0.98141 0.85338 0.0
H3047 H 0.54165 0.97969 0.84967 0.0
H3048 H 0.54224 0.96795 0.85754 0.0
H3049 H 0.51297 0.96487 0.86707 0.0
H3050 H 0.54024 0.00144 0.86935 0.0
H3051 H 0.49484 0.96761 0.84567 0.0
H3052 H 0.48935 0.96954 0.86019 0.0
H3053 H 0.49398 0.95872 0.85876 0.0
H3054 H 0.53717 0.01685 0.86333 0.0
H3055 H 0.52204 0.0135 0.86216 0.0
H3056 H 0.52947 0.01272 0.84856 0.0
H3057 H 0.50928 0.00993 0.78265 0.0
H3058 H 0.48346 0.01204 0.8129 0.0
H3059 H 0.47986 0.00764 0.83454 0.0
H3060 H 0.49578 0.99346 0.86586 0.0
H3061 H 0.51906 0.98828 0.8347 0.0
H3062 H 0.52225 0.99219 0.81298 0.0
H3063 H 0.44001 0.01603 0.86005 0.0
H3064 H 0.45494 0.02068 0.85556 0.0
H3065 H 0.45228 0.02573 0.87022 0.0
C3066 C 0.99528 0.52831 0.74092 0.0
C3067 C 0.99296 0.53453 0.75175 0.0
C3068 C 0.00105 0.53119 0.77062 0.0
C3069 C 0.99089 0.52549 0.77794 0.0
C3070 C 0.99013 0.51797 0.78753 0.0
C3071 C 0.99976 0.51623 0.78987 0.0
C3072 C 0.01025 0.52249 0.78294 0.0
C3073 C 0.0108 0.53001 0.77346 0.0
C3074 C 0.97894 0.51168 0.79498 0.0
C3075 C 0.02071 0.52091 0.78527 0.0
C3076 C 0.95057 0.43183 0.76408 0.0
C3077 C 0.96377 0.43882 0.76731 0.0
C3078 C 0.97191 0.45146 0.78567 0.0
C3079 C 0.98358 0.45908 0.782 0.0
C3080 C 0.99042 0.47029 0.78769 0.0
C3081 C 0.98533 0.47404 0.79698 0.0
C3082 C 0.97353 0.46626 0.80071 0.0
C3083 C 0.96711 0.45492 0.79523 0.0
C3084 C 0.00302 0.47818 0.78362 0.0
C3085 C 0.96752 0.46998 0.8102 0.0
C3086 C 0.00535 0.47097 0.87784 0.0
C3087 C 0.01596 0.4789 0.87217 0.0
C3088 C 0.01658 0.48727 0.86374 0.0
C3089 C 0.0063 0.4878 0.86104 0.0
C3090 C 0.99547 0.47976 0.86669 0.0
C3091 C 0.99506 0.47132 0.87491 0.0
C3092 C 0.02824 0.49558 0.85776 0.0
C3093 C 0.98435 0.48014 0.86409 0.0
C3094 C 0.03571 0.58031 0.86017 0.0
C3095 C 0.02595 0.57106 0.86831 0.0
C3096 C 0.02467 0.55185 0.86622 0.0
C3097 C 0.03257 0.54803 0.86328 0.0
C3098 C 0.02862 0.53689 0.85766 0.0
C3099 C 0.01638 0.52925 0.85531 0.0
C3100 C 0.00828 0.53292 0.85869 0.0
C3101 C 0.01253 0.54423 0.86405 0.0
C3102 C 0.03752 0.53329 0.85427 0.0
C3103 C 0.99514 0.52486 0.85675 0.0
C3104 C 0.9985 0.50715 0.79881 0.0
C3105 C 0.99328 0.49546 0.79441 0.0
C3106 C 0.99196 0.48636 0.80209 0.0
C3107 C 0.9962 0.48901 0.81451 0.0
C3108 C 0.9957 0.48024 0.8223 0.0
C3109 C 0.99938 0.48283 0.83467 0.0
C3110 C 0.0036 0.49426 0.83974 0.0
C3111 C 0.00693 0.49686 0.85242 0.0
C3112 C 0.01099 0.5083 0.85717 0.0
C3113 C 0.01205 0.51735 0.84955 0.0
C3114 C 0.00899 0.51497 0.83679 0.0
C3115 C 0.01025 0.52393 0.82875 0.0
C3116 C 0.00694 0.52143 0.81627 0.0
C3117 C 0.00219 0.50987 0.81137 0.0
C3118 C 0.00102 0.50075 0.81925 0.0
C3119 C 0.00456 0.50333 0.83193 0.0
C3120 C 0.99345 0.4606 0.90391 0.0
C3121 C 0.99622 0.4548 0.89295 0.0
O3122 O 0.0017 0.53787 0.76078 0.0
O3123 O 0.02898 0.56272 0.8716 0.0
O3124 O 0.00554 0.4633 0.88613 0.0
O3125 O 0.96506 0.44075 0.78006 0.0
H3126 H 0.98412 0.52803 0.75543 0.0
H3127 H 0.99475 0.52004 0.7442 0.0
H3128 H 0.00422 0.53407 0.73703 0.0
H3129 H 0.98854 0.52591 0.73343 0.0
H3130 H 0.98355 0.52686 0.77618 0.0
H3131 H 0.01868 0.53465 0.7679 0.0
H3132 H 0.9745 0.502 0.79302 0.0
H3133 H 0.97266 0.51475 0.79275 0.0
H3134 H 0.9811 0.5131 0.80507 0.0
H3135 H 0.02833 0.52664 0.77928 0.0
H3136 H 0.0181 0.51151 0.78348 0.0
H3137 H 0.02357 0.52301 0.79515 0.0
H3138 H 0.96762 0.44743 0.7624 0.0
H3139 H 0.94919 0.43046 0.75385 0.0
H3140 H 0.94628 0.43682 0.76735 0.0
H3141 H 0.94624 0.42306 0.76861 0.0
H3142 H 0.98732 0.45622 0.77473 0.0
H3143 H 0.95808 0.44889 0.79799 0.0
H3144 H 0.00893 0.48254 0.79179 0.0
H3145 H 0.0035 0.48523 0.77761 0.0
H3146 H 0.00634 0.47317 0.77826 0.0
H3147 H 0.95778 0.4639 0.81015 0.0
H3148 H 0.96938 0.4791 0.80844 0.0
H3149 H 0.97094 0.46992 0.81962 0.0
H3150 H 0.98824 0.44994 0.88686 0.0
H3151 H 0.02383 0.47854 0.87443 0.0
H3152 H 0.98671 0.46515 0.87906 0.0
H3153 H 0.02708 0.49546 0.84752 0.0
H3154 H 0.0351 0.49325 0.85986 0.0
H3155 H 0.03144 0.50475 0.86118 0.0
H3156 H 0.97688 0.47395 0.87 0.0
H3157 H 0.98169 0.47773 0.85419 0.0
H3158 H 0.98602 0.48926 0.86569 0.0
H3159 H 0.01757 0.56688 0.86277 0.0
H3160 H 0.03342 0.58697 0.85707 0.0
H3161 H 0.03678 0.57593 0.85178 0.0
H3162 H 0.04426 0.58492 0.86537 0.0
H3163 H 0.04191 0.55392 0.86521 0.0
H3164 H 0.00635 0.54701 0.8668 0.0
H3165 H 0.03599 0.52977 0.84457 0.0
H3166 H 0.03645 0.52613 0.86049 0.0
H3167 H 0.04677 0.54079 0.8552 0.0
H3168 H 0.98995 0.52854 0.86103 0.0
H3169 H 0.99225 0.51604 0.86077 0.0
H3170 H 0.99306 0.5235 0.84665 0.0
H3171 H 0.99006 0.49339 0.78487 0.0
H3172 H 0.99241 0.47127 0.81892 0.0
H3173 H 0.99873 0.4757 0.84025 0.0
H3174 H 0.01339 0.51019 0.86695 0.0
H3175 H 0.01377 0.53297 0.83204 0.0
H3176 H 0.00802 0.52863 0.81053 0.0
H3177 H 0.00138 0.46571 0.90999 0.0
H3178 H 0.98617 0.45371 0.90951 0.0
H3179 H 0.9906 0.46675 0.90057 0.0
C3180 C 0.51655 0.57158 0.74892 0.0
C3181 C 0.52481 0.57315 0.75984 0.0
C3182 C 0.51221 0.55583 0.77269 0.0
C3183 C 0.50455 0.5597 0.77686 0.0
C3184 C 0.49484 0.55245 0.78433 0.0
C3185 C 0.49284 0.54121 0.78782 0.0
C3186 C 0.50067 0.53741 0.78387 0.0
C3187 C 0.51024 0.54478 0.77633 0.0
C3188 C 0.48663 0.55675 0.7884 0.0
C3189 C 0.49884 0.52551 0.78751 0.0
C3190 C 0.41569 0.48948 0.74355 0.0
C3191 C 0.42305 0.48628 0.75195 0.0
C3192 C 0.4315 0.49543 0.77204 0.0
C3193 C 0.44066 0.4929 0.77286 0.0
C3194 C 0.45041 0.49957 0.78082 0.0
C3195 C 0.45112 0.50915 0.78785 0.0
C3196 C 0.44178 0.51161 0.7871 0.0
C3197 C 0.43194 0.50448 0.77943 0.0
C3198 C 0.46003 0.49649 0.78155 0.0
C3199 C 0.44229 0.52195 0.79408 0.0
C3200 C 0.43092 0.49324 0.86665 0.0
C3201 C 0.4396 0.49035 0.86383 0.0
C3202 C 0.45019 0.4986 0.85818 0.0
C3203 C 0.4521 0.50996 0.85532 0.0
C3204 C 0.44361 0.51308 0.85875 0.0
C3205 C 0.43316 0.50469 0.86452 0.0
C3206 C 0.45921 0.49511 0.85498 0.0
C3207 C 0.44544 0.52517 0.85601 0.0
C3208 C 0.527 0.59222 0.8654 0.0
C3209 C 0.52427 0.58393 0.87646 0.0
C3210 C 0.51246 0.56391 0.86717 0.0
C3211 C 0.5124 0.55344 0.86422 0.0
C3212 C 0.50258 0.54383 0.85834 0.0
C3213 C 0.49264 0.54481 0.85515 0.0
C3214 C 0.49253 0.55528 0.85831 0.0
C3215 C 0.50238 0.56467 0.86438 0.0
C3216 C 0.5029 0.53272 0.8553 0.0
C3217 C 0.48207 0.55663 0.85506 0.0
C3218 C 0.48237 0.53325 0.79531 0.0
C3219 C 0.47205 0.52509 0.78895 0.0
C3220 C 0.46192 0.51705 0.79533 0.0
C3221 C 0.46212 0.51702 0.80848 0.0
C3222 C 0.45229 0.50876 0.81523 0.0
C3223 C 0.45242 0.5091 0.82816 0.0
C3224 C 0.46244 0.51766 0.83486 0.0
C3225 C 0.46256 0.51825 0.84801 0.0
C3226 C 0.4726 0.52699 0.85437 0.0
C3227 C 0.48261 0.5352 0.84794 0.0
C3228 C 0.48272 0.53463 0.8348 0.0
C3229 C 0.49269 0.54267 0.82804 0.0
C3230 C 0.49267 0.54212 0.81512 0.0
C3231 C 0.48259 0.53369 0.80844 0.0
C3232 C 0.47243 0.52551 0.81505 0.0
C3233 C 0.47256 0.52589 0.82825 0.0
C3234 C 0.40419 0.47301 0.85787 0.0
C3235 C 0.41335 0.47362 0.86722 0.0
O3236 O 0.52149 0.5623 0.76508 0.0
O3237 O 0.52245 0.57301 0.87247 0.0
O3238 O 0.42033 0.48521 0.87147 0.0
O3239 O 0.42221 0.48938 0.76411 0.0
H3240 H 0.52448 0.5792 0.76698 0.0
H3241 H 0.50734 0.56796 0.75211 0.0
H3242 H 0.51659 0.56539 0.74177 0.0
H3243 H 0.51942 0.58027 0.74457 0.0
H3244 H 0.50598 0.56827 0.77427 0.0
H3245 H 0.51622 0.54189 0.77314 0.0
H3246 H 0.47748 0.5504 0.78514 0.0
H3247 H 0.4893 0.56566 0.78478 0.0
H3248 H 0.4865 0.55715 0.79871 0.0
H3249 H 0.50603 0.52408 0.78415 0.0
H3250 H 0.49029 0.51836 0.7836 0.0
H3251 H 0.49837 0.52474 0.79778 0.0
H3252 H 0.43238 0.49154 0.74878 0.0
H3253 H 0.4164 0.48732 0.73368 0.0
H3254 H 0.41899 0.49913 0.74437 0.0
H3255 H 0.40624 0.48456 0.74626 0.0
H3256 H 0.44016 0.48569 0.76731 0.0
H3257 H 0.42475 0.50628 0.77875 0.0
H3258 H 0.46285 0.49675 0.79135 0.0
H3259 H 0.46784 0.50313 0.77635 0.0
H3260 H 0.45714 0.48758 0.77746 0.0
H3261 H 0.43542 0.52389 0.79075 0.0
H3262 H 0.45111 0.53004 0.79312 0.0
H3263 H 0.44084 0.5199 0.80411 0.0
H3264 H 0.41864 0.47055 0.862 0.0
H3265 H 0.43814 0.48167 0.86604 0.0
H3266 H 0.42649 0.5069 0.86698 0.0
H3267 H 0.45982 0.49464 0.84472 0.0
H3268 H 0.45692 0.48638 0.85884 0.0
H3269 H 0.46807 0.50193 0.85858 0.0
H3270 H 0.43785 0.52611 0.85898 0.0
H3271 H 0.44676 0.52685 0.84589 0.0
H3272 H 0.45354 0.53205 0.8609 0.0
H3273 H 0.51617 0.58282 0.881 0.0
H3274 H 0.52979 0.60134 0.86875 0.0
H3275 H 0.51903 0.58913 0.85941 0.0
H3276 H 0.53406 0.59247 0.85953 0.0
H3277 H 0.52015 0.55286 0.86647 0.0
H3278 H 0.50212 0.57258 0.86671 0.0
H3279 H 0.50302 0.53164 0.84506 0.0
H3280 H 0.49482 0.52484 0.85879 0.0
H3281 H 0.5108 0.53293 0.85938 0.0
H3282 H 0.48356 0.56554 0.85764 0.0
H3283 H 0.47414 0.54986 0.85999 0.0
H3284 H 0.48014 0.55511 0.84493 0.0
H3285 H 0.47188 0.52505 0.77886 0.0
H3286 H 0.44434 0.50198 0.81057 0.0
H3287 H 0.44452 0.5026 0.83282 0.0
H3288 H 0.47255 0.52751 0.86444 0.0
H3289 H 0.50065 0.54947 0.83265 0.0
H3290 H 0.50061 0.54851 0.81042 0.0
H3291 H 0.39907 0.47684 0.86197 0.0
H3292 H 0.39807 0.4637 0.85479 0.0
H3293 H 0.40878 0.47823 0.84955 0.0
C3294 C 0.62505 0.77728 0.60505 0.0
C3295 C 0.6225 0.7674 0.59555 0.0
C3296 C 0.62386 0.77802 0.57635 0.0
C3297 C 0.61246 0.77653 0.57658 0.0
C3298 C 0.60936 0.78294 0.5686 0.0
C3299 C 0.61788 0.79117 0.56039 0.0
C3300 C 0.62932 0.79261 0.56005 0.0
C3301 C 0.63207 0.78583 0.56789 0.0
C3302 C 0.59702 0.78103 0.56908 0.0
C3303 C 0.63873 0.80147 0.55163 0.0
C3304 C 0.59845 0.85725 0.57676 0.0
C3305 C 0.60899 0.85788 0.58375 0.0
C3306 C 0.61536 0.84672 0.57038 0.0
C3307 C 0.62458 0.8478 0.56301 0.0
C3308 C 0.62402 0.83787 0.55719 0.0
C3309 C 0.61379 0.82658 0.55855 0.0
C3310 C 0.60444 0.82538 0.56608 0.0
C3311 C 0.60536 0.83543 0.57203 0.0
C3312 C 0.63431 0.83948 0.5495 0.0
C3313 C 0.59342 0.81347 0.56775 0.0
C3314 C 0.59619 0.83323 0.48197 0.0
C3315 C 0.6078 0.83552 0.48343 0.0
C3316 C 0.61001 0.8271 0.4888 0.0
C3317 C 0.6004 0.81621 0.49276 0.0
C3318 C 0.58868 0.81359 0.49054 0.0
C3319 C 0.58672 0.82213 0.48504 0.0
C3320 C 0.62262 0.83002 0.49066 0.0
C3321 C 0.57824 0.80199 0.49447 0.0
C3322 C 0.597 0.73553 0.48321 0.0
C3323 C 0.60078 0.74369 0.47197 0.0
C3324 C 0.6079 0.76355 0.48129 0.0
C3325 C 0.61799 0.77451 0.48385 0.0
C3326 C 0.61727 0.78361 0.49005 0.0
C3327 C 0.60612 0.78162 0.4939 0.0
C3328 C 0.59581 0.7706 0.49124 0.0
C3329 C 0.59679 0.76167 0.48493 0.0
C3330 C 0.62843 0.79531 0.4926 0.0
C3331 C 0.5838 0.76823 0.49523 0.0
C3332 C 0.615 0.79873 0.55268 0.0
C3333 C 0.61536 0.80853 0.55848 0.0
C3334 C 0.61282 0.81611 0.55189 0.0
C3335 C 0.60981 0.81389 0.53911 0.0
C3336 C 0.60698 0.8212 0.53225 0.0
C3337 C 0.60449 0.81924 0.51958 0.0
C3338 C 0.60473 0.80989 0.51327 0.0
C3339 C 0.60264 0.80811 0.50029 0.0
C3340 C 0.60299 0.79876 0.49429 0.0
C3341 C 0.6053 0.79102 0.50094 0.0
C3342 C 0.60729 0.79259 0.51395 0.0
C3343 C 0.60943 0.78486 0.52096 0.0
C3344 C 0.61175 0.78671 0.53369 0.0
C3345 C 0.61216 0.79645 0.53986 0.0
C3346 C 0.60968 0.80415 0.53304 0.0
C3347 C 0.60717 0.80217 0.52008 0.0
C3348 C 0.59196 0.8564 0.48885 0.0
C3349 C 0.60005 0.85347 0.48129 0.0
O3350 O 0.62736 0.77226 0.58416 0.0
O3351 O 0.60938 0.75511 0.47546 0.0
O3352 O 0.59386 0.84158 0.47779 0.0
O3353 O 0.6165 0.8568 0.57551 0.0
H3354 H 0.61279 0.76141 0.59448 0.0
H3355 H 0.621 0.78249 0.60194 0.0
H3356 H 0.63474 0.78337 0.60619 0.0
H3357 H 0.62125 0.77347 0.61421 0.0
H3358 H 0.60593 0.7704 0.58293 0.0
H3359 H 0.64081 0.78688 0.56774 0.0
H3360 H 0.59735 0.7889 0.5735 0.0
H3361 H 0.59095 0.7731 0.5745 0.0
H3362 H 0.59332 0.78001 0.55954 0.0
H3363 H 0.64751 0.8024 0.55345 0.0
H3364 H 0.63953 0.81029 0.55285 0.0
H3365 H 0.6362 0.79863 0.54179 0.0
H3366 H 0.60564 0.85062 0.59061 0.0
H3367 H 0.59265 0.85846 0.58337 0.0
H3368 H 0.59309 0.84851 0.57202 0.0
H3369 H 0.60152 0.86421 0.56961 0.0
H3370 H 0.63229 0.85651 0.56184 0.0
H3371 H 0.59817 0.83438 0.5778 0.0
H3372 H 0.63171 0.83806 0.53952 0.0
H3373 H 0.63681 0.83283 0.55204 0.0
H3374 H 0.64218 0.84849 0.55071 0.0
H3375 H 0.58649 0.81417 0.57296 0.0
H3376 H 0.5957 0.8076 0.5729 0.0
H3377 H 0.58973 0.80921 0.55855 0.0
H3378 H 0.60761 0.85545 0.48759 0.0
H3379 H 0.61514 0.84392 0.48052 0.0
H3380 H 0.57779 0.82038 0.48362 0.0
H3381 H 0.62485 0.83126 0.50074 0.0
H3382 H 0.62901 0.83823 0.48581 0.0
H3383 H 0.62367 0.82257 0.48721 0.0
H3384 H 0.56966 0.80115 0.49172 0.0
H3385 H 0.57846 0.80123 0.50472 0.0
H3386 H 0.57878 0.7945 0.49024 0.0
H3387 H 0.59294 0.74374 0.46806 0.0
H3388 H 0.59028 0.72633 0.48034 0.0
H3389 H 0.59305 0.73855 0.49043 0.0
H3390 H 0.60473 0.73548 0.48742 0.0
H3391 H 0.62651 0.77591 0.48098 0.0
H3392 H 0.58885 0.75328 0.483 0.0
H3393 H 0.63001 0.79672 0.50279 0.0
H3394 H 0.62743 0.80268 0.48903 0.0
H3395 H 0.6363 0.79572 0.48827 0.0
H3396 H 0.57665 0.75909 0.49274 0.0
H3397 H 0.58182 0.77463 0.49076 0.0
H3398 H 0.5838 0.76956 0.50544 0.0
H3399 H 0.61773 0.81034 0.56827 0.0
H3400 H 0.60672 0.82858 0.53658 0.0
H3401 H 0.60246 0.82523 0.5148 0.0
H3402 H 0.60157 0.79756 0.48431 0.0
H3403 H 0.60939 0.7773 0.51668 0.0
H3404 H 0.61336 0.78049 0.5386 0.0
H3405 H 0.59668 0.86596 0.49148 0.0
H3406 H 0.58931 0.85116 0.4975 0.0
H3407 H 0.58382 0.85419 0.4835 0.0
C3408 C 0.13761 0.7415 0.58304 0.0
C3409 C 0.13774 0.75145 0.59087 0.0
C3410 C 0.1487 0.76917 0.57795 0.0
C3411 C 0.14755 0.77738 0.57082 0.0
C3412 C 0.15728 0.78652 0.56476 0.0
C3413 C 0.16844 0.78736 0.56573 0.0
C3414 C 0.16973 0.77916 0.57303 0.0
C3415 C 0.15987 0.7702 0.57916 0.0
C3416 C 0.15561 0.79521 0.55722 0.0
C3417 C 0.1815 0.7798 0.57423 0.0
C3418 C 0.23865 0.86991 0.60517 0.0
C3419 C 0.23076 0.85769 0.60015 0.0
C3420 C 0.21912 0.84745 0.58158 0.0
C3421 C 0.21924 0.83687 0.58318 0.0
C3422 C 0.21207 0.8268 0.57577 0.0
C3423 C 0.20427 0.82715 0.56687 0.0
C3424 C 0.20395 0.83773 0.56542 0.0
C3425 C 0.21163 0.84783 0.57258 0.0
C3426 C 0.2128 0.81577 0.57757 0.0
C3427 C 0.19545 0.8384 0.55643 0.0
C3428 C 0.23038 0.84144 0.48868 0.0
C3429 C 0.23207 0.8322 0.49268 0.0
C3430 C 0.22302 0.82237 0.49877 0.0
C3431 C 0.21207 0.82173 0.50082 0.0
C3432 C 0.21024 0.83084 0.49649 0.0
C3433 C 0.21945 0.84059 0.49051 0.0
C3434 C 0.22522 0.81277 0.50324 0.0
C3435 C 0.19862 0.83038 0.49839 0.0
C3436 C 0.13765 0.72986 0.49172 0.0
C3437 C 0.1411 0.74203 0.48663 0.0
C3438 C 0.16102 0.75913 0.48906 0.0
C3439 C 0.17233 0.7615 0.49235 0.0
C3440 C 0.18053 0.7723 0.49812 0.0
C3441 C 0.17737 0.78101 0.50034 0.0
C3442 C 0.16619 0.77896 0.49625 0.0
C3443 C 0.1581 0.76799 0.49071 0.0
C3444 C 0.19241 0.77424 0.5022 0.0
C3445 C 0.1627 0.78823 0.49805 0.0
C3446 C 0.17869 0.79667 0.5589 0.0
C3447 C 0.18651 0.80716 0.56528 0.0
C3448 C 0.19627 0.81635 0.55936 0.0
C3449 C 0.19821 0.81513 0.54663 0.0
C3450 C 0.20796 0.82412 0.54037 0.0
C3451 C 0.20946 0.82306 0.52772 0.0
C3452 C 0.20141 0.81285 0.52088 0.0
C3453 C 0.20268 0.81181 0.50795 0.0
C3454 C 0.19472 0.8014 0.5015 0.0
C3455 C 0.18544 0.79192 0.50764 0.0
C3456 C 0.1839 0.79289 0.52053 0.0
C3457 C 0.1746 0.78357 0.52698 0.0
C3458 C 0.17292 0.78475 0.53955 0.0
C3459 C 0.18052 0.79526 0.5462 0.0
C3460 C 0.1902 0.80461 0.54 0.0
C3461 C 0.19185 0.80344 0.52713 0.0
C3462 C 0.25806 0.85881 0.49282 0.0
C3463 C 0.25056 0.85438 0.48085 0.0
O3464 O 0.13878 0.76041 0.5833 0.0
O3465 O 0.15315 0.74821 0.4844 0.0
O3466 O 0.23899 0.85136 0.48318 0.0
O3467 O 0.22607 0.85741 0.58849 0.0
H3468 H 0.1453 0.75508 0.59759 0.0
H3469 H 0.14603 0.74483 0.57798 0.0
H3470 H 0.13026 0.73787 0.57609 0.0
H3471 H 0.13651 0.73423 0.58913 0.0
H3472 H 0.13892 0.77655 0.56998 0.0
H3473 H 0.16098 0.76401 0.58472 0.0
H3474 H 0.16227 0.80443 0.56006 0.0
H3475 H 0.14663 0.79398 0.55828 0.0
H3476 H 0.15699 0.79409 0.54724 0.0
H3477 H 0.18091 0.77234 0.57962 0.0
H3478 H 0.18796 0.78825 0.57894 0.0
H3479 H 0.18498 0.77971 0.56486 0.0
H3480 H 0.22394 0.85141 0.60669 0.0
H3481 H 0.25519 0.87115 0.60649 0.0
H3482 H 0.2339 0.87067 0.61352 0.0
H3483 H 0.23703 0.87604 0.59932 0.0
H3484 H 0.22502 0.83644 0.59009 0.0
H3485 H 0.21157 0.85601 0.57141 0.0
H3486 H 0.2049 0.80919 0.58269 0.0
H3487 H 0.2208 0.81762 0.58298 0.0
H3488 H 0.21287 0.81171 0.56847 0.0
H3489 H 0.19455 0.84627 0.55832 0.0
H3490 H 0.18657 0.83031 0.55688 0.0
H3491 H 0.19872 0.83903 0.54681 0.0
H3492 H 0.25075 0.84652 0.47709 0.0
H3493 H 0.24042 0.83261 0.49126 0.0
H3494 H 0.21819 0.8477 0.48734 0.0
H3495 H 0.22401 0.81187 0.51346 0.0
H3496 H 0.23425 0.81459 0.50103 0.0
H3497 H 0.21866 0.80415 0.49888 0.0
H3498 H 0.19832 0.83773 0.49369 0.0
H3499 H 0.1972 0.83093 0.50848 0.0
H3500 H 0.19122 0.82181 0.49478 0.0
H3501 H 0.13882 0.74661 0.49396 0.0
H3502 H 0.12801 0.72473 0.49359 0.0
H3503 H 0.14251 0.73094 0.50057 0.0
H3504 H 0.13987 0.72476 0.48501 0.0
H3505 H 0.17456 0.75467 0.49082 0.0
H3506 H 0.1495 0.76635 0.48769 0.0
H3507 H 0.19366 0.77615 0.51235 0.0
H3508 H 0.19954 0.78206 0.49743 0.0
H3509 H 0.19338 0.76644 0.5001 0.0
H3510 H 0.15442 0.78592 0.49291 0.0
H3511 H 0.16989 0.79697 0.49489 0.0
H3512 H 0.16133 0.78913 0.50808 0.0
H3513 H 0.18498 0.80818 0.575 0.0
H3514 H 0.21446 0.83216 0.54514 0.0
H3515 H 0.21703 0.83035 0.52336 0.0
H3516 H 0.19575 0.80067 0.49158 0.0
H3517 H 0.16844 0.77527 0.52237 0.0
H3518 H 0.16555 0.77731 0.54399 0.0
H3519 H 0.26739 0.8615 0.49083 0.0
H3520 H 0.25472 0.85172 0.49982 0.0
H3521 H 0.2578 0.86651 0.49691 0.0
C3522 C 0.1588 0.38634 0.60917 0.0
C3523 C 0.15082 0.38475 0.59797 0.0
C3524 C 0.16154 0.38111 0.58135 0.0
C3525 C 0.17091 0.39286 0.58035 0.0
C3526 C 0.18073 0.39557 0.57294 0.0
C3527 C 0.18122 0.38635 0.56648 0.0
C3528 C 0.17171 0.37455 0.5673 0.0
C3529 C 0.16194 0.37212 0.57463 0.0
C3530 C 0.19065 0.40827 0.57212 0.0
C3531 C 0.17198 0.36446 0.56066 0.0
C3532 C 0.25219 0.40511 0.61467 0.0
C3533 C 0.24645 0.39491 0.60515 0.0
C3534 C 0.24004 0.39739 0.58478 0.0
C3535 C 0.23055 0.38591 0.58245 0.0
C3536 C 0.22153 0.38391 0.57397 0.0
C3537 C 0.22194 0.39366 0.56791 0.0
C3538 C 0.23167 0.40523 0.5701 0.0
C3539 C 0.24075 0.40689 0.57831 0.0
C3540 C 0.21147 0.37142 0.57166 0.0
C3541 C 0.23233 0.41592 0.56412 0.0
C3542 C 0.24583 0.40088 0.49016 0.0
C3543 C 0.23609 0.38934 0.49114 0.0
C3544 C 0.22549 0.3874 0.49639 0.0
C3545 C 0.22459 0.3972 0.50061 0.0
C3546 C 0.23415 0.40885 0.49893 0.0
C3547 C 0.24464 0.41053 0.49362 0.0
C3548 C 0.21534 0.37489 0.49776 0.0
C3549 C 0.23342 0.4195 0.50312 0.0
C3550 C 0.15277 0.40784 0.48637 0.0
C3551 C 0.15538 0.40136 0.47597 0.0
C3552 C 0.166 0.39281 0.48653 0.0
C3553 C 0.1653 0.38222 0.48995 0.0
C3554 C 0.17467 0.38218 0.49625 0.0
C3555 C 0.18492 0.39307 0.49946 0.0
C3556 C 0.1858 0.40385 0.49587 0.0
C3557 C 0.17639 0.40361 0.48934 0.0
C3558 C 0.17353 0.3705 0.49966 0.0
C3559 C 0.19662 0.41563 0.49911 0.0
C3560 C 0.19193 0.38892 0.5594 0.0
C3561 C 0.20159 0.38999 0.56606 0.0
C3562 C 0.21181 0.39188 0.56003 0.0
C3563 C 0.21234 0.39247 0.54691 0.0
C3564 C 0.22223 0.39378 0.54048 0.0
C3565 C 0.22278 0.39465 0.5276 0.0
C3566 C 0.21345 0.3942 0.52064 0.0
C3567 C 0.21402 0.39526 0.50756 0.0
C3568 C 0.20457 0.39473 0.50092 0.0
C3569 C 0.19452 0.39324 0.50702 0.0
C3570 C 0.19381 0.39221 0.52011 0.0
C3571 C 0.18389 0.39083 0.52656 0.0
C3572 C 0.18323 0.38971 0.53942 0.0
C3573 C 0.19252 0.39008 0.54634 0.0
C3574 C 0.20272 0.39173 0.54006 0.0
C3575 C 0.20331 0.39268 0.52692 0.0
C3576 C 0.27269 0.4033 0.49624 0.0
C3577 C 0.26155 0.39616 0.48819 0.0
O3578 O 0.15204 0.37797 0.58873 0.0
O3579 O 0.15643 0.39215 0.48075 0.0
O3580 O 0.25646 0.40302 0.48592 0.0
O3581 O 0.24856 0.39958 0.59332 0.0
H3582 H 0.15321 0.39357 0.59427 0.0
H3583 H 0.16824 0.39116 0.60649 0.0
H3584 H 0.15662 0.37758 0.61287 0.0
H3585 H 0.15765 0.39158 0.61666 0.0
H3586 H 0.17071 0.39997 0.58535 0.0
H3587 H 0.15465 0.3631 0.5754 0.0
H3588 H 0.19868 0.40926 0.57679 0.0
H3589 H 0.18839 0.41456 0.57658 0.0
H3590 H 0.19287 0.4107 0.56224 0.0
H3591 H 0.16419 0.35571 0.56282 0.0
H3592 H 0.18014 0.36439 0.56329 0.0
H3593 H 0.17218 0.36573 0.55047 0.0
H3594 H 0.23678 0.38999 0.60705 0.0
H3595 H 0.25049 0.40163 0.62427 0.0
H3596 H 0.24841 0.41097 0.61365 0.0
H3597 H 0.2619 0.41047 0.61327 0.0
H3598 H 0.2302 0.37852 0.58727 0.0
H3599 H 0.2482 0.4157 0.58013 0.0
H3600 H 0.20948 0.36971 0.56155 0.0
H3601 H 0.20341 0.37026 0.57628 0.0
H3602 H 0.21347 0.36473 0.57535 0.0
H3603 H 0.23957 0.42437 0.56817 0.0
H3604 H 0.22384 0.41577 0.5652 0.0
H3605 H 0.23393 0.41575 0.55403 0.0
H3606 H 0.25559 0.38823 0.49371 0.0
H3607 H 0.23676 0.38185 0.48787 0.0
H3608 H 0.25212 0.4194 0.49257 0.0
H3609 H 0.21353 0.37289 0.50777 0.0
H3610 H 0.21719 0.36825 0.49343 0.0
H3611 H 0.20722 0.37397 0.49341 0.0
H3612 H 0.24141 0.42798 0.50064 0.0
H3613 H 0.23235 0.41935 0.51336 0.0
H3614 H 0.22553 0.41916 0.49884 0.0
H3615 H 0.16378 0.40783 0.47143 0.0
H3616 H 0.15135 0.41481 0.48239 0.0
H3617 H 0.1603 0.41218 0.49305 0.0
H3618 H 0.14479 0.40157 0.49161 0.0
H3619 H 0.15731 0.37392 0.48768 0.0
H3620 H 0.17721 0.41192 0.48667 0.0
H3621 H 0.17273 0.36947 0.50989 0.0
H3622 H 0.18157 0.37031 0.49687 0.0
H3623 H 0.16567 0.36284 0.4952 0.0
H3624 H 0.19562 0.42324 0.4964 0.0
H3625 H 0.20441 0.41633 0.49428 0.0
H3626 H 0.19846 0.41627 0.50926 0.0
H3627 H 0.20117 0.38937 0.57611 0.0
H3628 H 0.22966 0.39416 0.54535 0.0
H3629 H 0.23065 0.39571 0.52318 0.0
H3630 H 0.20509 0.39559 0.49089 0.0
H3631 H 0.17649 0.39056 0.52176 0.0
H3632 H 0.17536 0.38862 0.54389 0.0
H3633 H 0.27711 0.39808 0.49784 0.0
H3634 H 0.27025 0.4054 0.5054 0.0
H3635 H 0.27902 0.41178 0.49179 0.0
H3636 H 0.97678 0.36168 0.06357 0.0
H3637 H 0.97615 0.37462 0.07983 0.0
H3638 H 0.01244 0.40086 0.07253 0.0
H3639 H 0.01311 0.38808 0.05625 0.0
H3640 H 0.0088 0.3971 0.097 0.0
H3641 H 0.98997 0.40462 0.06281 0.0
H3642 H 0.97528 0.39937 0.04593 0.0
H3643 H 0.94717 0.38427 0.07236 0.0
H3644 H 0.96169 0.38928 0.08939 0.0
H3645 H 0.01309 0.44605 0.1306 0.0
H3646 H 0.01254 0.43308 0.11365 0.0
H3647 H 0.9765 0.40736 0.12263 0.0
H3648 H 0.97699 0.42032 0.13952 0.0
H3649 H 0.97953 0.41047 0.09756 0.0
H3650 H 0.99834 0.40311 0.13174 0.0
H3651 H 0.01301 0.40842 0.14865 0.0
H3652 H 0.04112 0.42314 0.12221 0.0
H3653 H 0.02663 0.41808 0.10515 0.0
C3654 C 0.98458 0.37026 0.06535 0.0
C3655 C 0.99502 0.37382 0.05867 0.0
C3656 C 0.98421 0.37764 0.07465 0.0
C3657 C 0.99424 0.38873 0.07736 0.0
C3658 C 0.00463 0.39231 0.07065 0.0
C3659 C 0.005 0.38497 0.06137 0.0
C3660 C 0.99408 0.39653 0.08738 0.0
C3661 C 0.00249 0.40014 0.09704 0.0
C3662 C 0.98566 0.40025 0.08758 0.0
C3663 C 0.97691 0.39721 0.07736 0.0
C3664 C 0.98065 0.40008 0.06501 0.0
C3665 C 0.97236 0.39717 0.05542 0.0
C3666 C 0.9603 0.39146 0.05807 0.0
C3667 C 0.95651 0.38867 0.07032 0.0
C3668 C 0.96477 0.39155 0.07995 0.0
C3669 C 0.00503 0.43767 0.12887 0.0
C3670 C 0.99505 0.43423 0.1363 0.0
C3671 C 0.00474 0.43025 0.11925 0.0
C3672 C 0.9945 0.41922 0.11695 0.0
C3673 C 0.98448 0.41584 0.12423 0.0
C3674 C 0.98477 0.42324 0.13387 0.0
C3675 C 0.99432 0.41111 0.10709 0.0
C3676 C 0.98583 0.40741 0.09751 0.0
C3677 C 0.00266 0.4073 0.10694 0.0
C3678 C 0.0114 0.41033 0.11718 0.0
C3679 C 0.00766 0.40757 0.12954 0.0
C3680 C 0.01594 0.41052 0.13915 0.0
C3681 C 0.02799 0.41614 0.13651 0.0
C3682 C 0.03179 0.4188 0.12424 0.0
C3683 C 0.02354 0.41589 0.1146 0.0
H3684 H 0.03439 0.41841 0.14396 0.0
H3685 H 0.95389 0.38922 0.05063 0.0
H3686 H 0.61451 0.60272 0.05945 0.0
H3687 H 0.60641 0.58755 0.07529 0.0
H3688 H 0.63826 0.58559 0.07486 0.0
H3689 H 0.64629 0.60051 0.05861 0.0
H3690 H 0.61862 0.56373 0.07544 0.0
H3691 H 0.63365 0.60049 0.09809 0.0
H3692 H 0.63603 0.62007 0.10288 0.0
H3693 H 0.59877 0.60379 0.10943 0.0
H3694 H 0.59614 0.58413 0.10451 0.0
H3695 H 0.60415 0.52988 0.13068 0.0
H3696 H 0.61418 0.54521 0.1151 0.0
H3697 H 0.58516 0.55191 0.11531 0.0
H3698 H 0.57544 0.53706 0.13127 0.0
H3699 H 0.6048 0.57183 0.11521 0.0
H3700 H 0.58939 0.53535 0.09142 0.0
H3701 H 0.58663 0.51569 0.08622 0.0
H3702 H 0.62406 0.53123 0.08146 0.0
H3703 H 0.62706 0.55097 0.08679 0.0
C3704 C 0.61975 0.59896 0.06258 0.0
C3705 C 0.63106 0.60284 0.05776 0.0
C3706 C 0.61515 0.59038 0.07175 0.0
C3707 C 0.62181 0.58557 0.07638 0.0
C3708 C 0.63301 0.58924 0.07145 0.0
C3709 C 0.63762 0.59783 0.06225 0.0
C3710 C 0.61703 0.57672 0.0864 0.0
C3711 C 0.61576 0.56554 0.08422 0.0
C3712 C 0.6131 0.57903 0.09775 0.0
C3713 C 0.61468 0.59084 0.10084 0.0
C3714 C 0.62595 0.60109 0.10048 0.0
C3715 C 0.62735 0.61221 0.10323 0.0
C3716 C 0.61756 0.61317 0.10644 0.0
C3717 C 0.60635 0.60303 0.10694 0.0
C3718 C 0.6049 0.5919 0.10418 0.0
C3719 C 0.5999 0.53458 0.1273 0.0
C3720 C 0.58885 0.53201 0.13192 0.0
C3721 C 0.6056 0.5433 0.11838 0.0
C3722 C 0.60031 0.54954 0.11381 0.0
C3723 C 0.58939 0.54715 0.11861 0.0
C3724 C 0.58377 0.53857 0.12765 0.0
C3725 C 0.60617 0.55871 0.10419 0.0
C3726 C 0.60769 0.57 0.10646 0.0
C3727 C 0.61027 0.55646 0.0929 0.0
C3728 C 0.60846 0.54461 0.08963 0.0
C3729 C 0.59704 0.53456 0.08935 0.0
C3730 C 0.59543 0.52341 0.08636 0.0
C3731 C 0.60516 0.52221 0.08354 0.0
C3732 C 0.61653 0.53217 0.08366 0.0
C3733 C 0.61819 0.54334 0.08666 0.0
H3734 H 0.6039 0.51356 0.08124 0.0
H3735 H 0.61866 0.62179 0.10856 0.0
H3736 H 0.40609 0.0212 0.04745 0.0
H3737 H 0.41855 0.02031 0.06388 0.0
H3738 H 0.39249 0.0154 0.09111 0.0
H3739 H 0.37991 0.01614 0.07475 0.0
H3740 H 0.41592 0.02995 0.09979 0.0
H3741 H 0.39181 0.99182 0.07883 0.0
H3742 H 0.38458 0.97869 0.06026 0.0
H3743 H 0.42003 0.98715 0.05217 0.0
H3744 H 0.42748 0.00046 0.0706 0.0
H3745 H 0.42605 0.00028 0.14837 0.0
H3746 H 0.41866 0.00749 0.13185 0.0
H3747 H 0.44154 0.00386 0.1057 0.0
H3748 H 0.44832 0.99585 0.12197 0.0
H3749 H 0.42158 0.99536 0.09555 0.0
H3750 H 0.44593 0.03195 0.11725 0.0
H3751 H 0.4538 0.0457 0.13529 0.0
H3752 H 0.41951 0.04132 0.14152 0.0
H3753 H 0.41139 0.02742 0.12362 0.0
C3754 C 0.40307 0.02005 0.05696 0.0
C3755 C 0.39194 0.01859 0.05977 0.0
C3756 C 0.41022 0.01959 0.06633 0.0
C3757 C 0.40635 0.01762 0.07867 0.0
C3758 C 0.39563 0.01694 0.08164 0.0
C3759 C 0.38846 0.01739 0.07227 0.0
C3760 C 0.41288 0.0151 0.08826 0.0
C3761 C 0.41714 0.02237 0.09894 0.0
C3762 C 0.41472 0.00539 0.08696 0.0
C3763 C 0.41021 0.99721 0.07601 0.0
C3764 C 0.39806 0.99093 0.07304 0.0
C3765 C 0.39393 0.98345 0.06255 0.0
C3766 C 0.40184 0.98211 0.05502 0.0
C3767 C 0.41391 0.98821 0.058 0.0
C3768 C 0.41809 0.99571 0.06847 0.0
C3769 C 0.42956 0.0011 0.1391 0.0
C3770 C 0.43778 0.99749 0.13654 0.0
C3771 C 0.42542 0.00535 0.12967 0.0
C3772 C 0.42968 0.00645 0.11751 0.0
C3773 C 0.43812 0.00313 0.11499 0.0
C3774 C 0.44205 0.9986 0.12436 0.0
C3775 C 0.42469 0.0102 0.10727 0.0
C3776 C 0.42062 0.00309 0.09643 0.0
C3777 C 0.42317 0.02016 0.1084 0.0
C3778 C 0.42804 0.02857 0.11914 0.0
C3779 C 0.44005 0.03386 0.12252 0.0
C3780 C 0.44456 0.04169 0.13271 0.0
C3781 C 0.43716 0.04436 0.13956 0.0
C3782 C 0.42523 0.03924 0.13621 0.0
C3783 C 0.42068 0.0314 0.12603 0.0
H3784 H 0.44066 0.05042 0.14746 0.0
H3785 H 0.39863 0.97633 0.0469 0.0
H3786 H 0.36092 0.9767 0.94528 0.0
H3787 H 0.37451 0.9785 0.92869 0.0
H3788 H 0.40425 0.99978 0.95313 0.0
H3789 H 0.39079 0.99807 0.96965 0.0
H3790 H 0.4057 0.01006 0.93024 0.0
H3791 H 0.39768 0.9726 0.94635 0.0
H3792 H 0.38503 0.95185 0.95262 0.0
H3793 H 0.37113 0.9421 0.9154 0.0
H3794 H 0.38358 0.96284 0.90895 0.0
H3795 H 0.45254 0.01568 0.89406 0.0
H3796 H 0.43845 0.01064 0.91091 0.0
H3797 H 0.41011 0.98631 0.8864 0.0
H3798 H 0.42429 0.99104 0.86958 0.0
H3799 H 0.40735 0.97707 0.90896 0.0
H3800 H 0.4148 0.01399 0.8926 0.0
H3801 H 0.42697 0.03466 0.88587 0.0
H3802 H 0.44106 0.04543 0.92291 0.0
H3803 H 0.4291 0.02478 0.92983 0.0
C3804 C 0.37035 0.98166 0.94712 0.0
C3805 C 0.3748 0.98721 0.95877 0.0
C3806 C 0.37809 0.98263 0.93768 0.0
C3807 C 0.39037 0.98925 0.93972 0.0
C3808 C 0.3948 0.99461 0.95139 0.0
C3809 C 0.38709 0.99355 0.96085 0.0
C3810 C 0.39866 0.99121 0.92951 0.0
C3811 C 0.40618 0.00287 0.92569 0.0
C3812 C 0.39898 0.98177 0.92334 0.0
C3813 C 0.39146 0.9693 0.9272 0.0
C3814 C 0.39184 0.96606 0.93953 0.0
C3815 C 0.38472 0.95429 0.94311 0.0
C3816 C 0.37725 0.94567 0.93442 0.0
C3817 C 0.3769 0.94879 0.92213 0.0
C3818 C 0.38399 0.96055 0.9185 0.0
C3819 C 0.44335 0.00908 0.89233 0.0
C3820 C 0.43954 0.00358 0.88056 0.0
C3821 C 0.43528 0.00629 0.90193 0.0
C3822 C 0.4232 0.9982 0.89988 0.0
C3823 C 0.41939 0.99255 0.8882 0.0
C3824 C 0.42748 0.99526 0.87861 0.0
C3825 C 0.41451 0.99596 0.90979 0.0
C3826 C 0.40688 0.98427 0.91351 0.0
C3827 C 0.41398 0.00537 0.91581 0.0
C3828 C 0.42114 0.01781 0.9117 0.0
C3829 C 0.42056 0.02075 0.89929 0.0
C3830 C 0.42741 0.03246 0.89545 0.0
C3831 C 0.43481 0.04135 0.90395 0.0
C3832 C 0.43534 0.03853 0.91633 0.0
C3833 C 0.42852 0.02683 0.92022 0.0
H3834 H 0.4401 0.05041 0.90096 0.0
H3835 H 0.37175 0.93656 0.93721 0.0
H3836 H 0.03234 0.39535 0.95578 0.0
H3837 H 0.03074 0.40905 0.94176 0.0
H3838 H 0.99508 0.38204 0.93197 0.0
H3839 H 0.99649 0.36837 0.94612 0.0
H3840 H 0.00773 0.39564 0.91165 0.0
H3841 H 0.99888 0.40123 0.95373 0.0
H3842 H 0.00288 0.40482 0.97626 0.0
H3843 H 0.03399 0.43833 0.96922 0.0
H3844 H 0.03027 0.43484 0.94662 0.0
H3845 H 0.98261 0.4305 0.89345 0.0
H3846 H 0.98745 0.41653 0.90289 0.0
H3847 H 0.02197 0.44553 0.91338 0.0
H3848 H 0.01713 0.45952 0.90403 0.0
H3849 H 0.01116 0.43129 0.93258 0.0
H3850 H 0.01899 0.42633 0.89028 0.0
H3851 H 0.01482 0.42253 0.8678 0.0
H3852 H 0.98547 0.38789 0.8751 0.0
H3853 H 0.98935 0.39154 0.89765 0.0
C3854 C 0.02418 0.39229 0.95057 0.0
C3855 C 0.0145 0.3808 0.95218 0.0
C3856 C 0.02331 0.40011 0.94252 0.0
C3857 C 0.01275 0.39658 0.93595 0.0
C3858 C 0.00332 0.38491 0.93694 0.0
C3859 C 0.00417 0.37709 0.94502 0.0
C3860 C 0.01113 0.40534 0.92896 0.0
C3861 C 0.00839 0.4034 0.91621 0.0
C3862 C 0.01219 0.41554 0.93491 0.0
C3863 C 0.01437 0.41771 0.94849 0.0
C3864 C 0.00663 0.40932 0.95698 0.0
C3865 C 0.00883 0.41134 0.96976 0.0
C3866 C 0.0187 0.42178 0.97416 0.0
C3867 C 0.02636 0.43023 0.96579 0.0
C3868 C 0.02421 0.42824 0.953 0.0
C3869 C 0.99129 0.43386 0.8976 0.0
C3870 C 0.99955 0.44608 0.89786 0.0
C3871 C 0.99406 0.42588 0.90296 0.0
C3872 C 0.00513 0.42998 0.90871 0.0
C3873 C 0.01341 0.44217 0.90893 0.0
C3874 C 0.01066 0.45014 0.90355 0.0
C3875 C 0.00777 0.42165 0.91522 0.0
C3876 C 0.01063 0.42362 0.92793 0.0
C3877 C 0.00678 0.41148 0.90923 0.0
C3878 C 0.0044 0.40926 0.89567 0.0
C3879 C 0.01158 0.41794 0.8871 0.0
C3880 C 0.00928 0.4158 0.87435 0.0
C3881 C 0.99987 0.40499 0.87003 0.0
C3882 C 0.99275 0.39627 0.87846 0.0
C3883 C 0.995 0.39836 0.89123 0.0
H3884 H 0.99811 0.40335 0.86015 0.0
H3885 H 0.02039 0.42333 0.98406 0.0
H3886 H 0.61888 0.63983 0.94495 0.0
H3887 H 0.60348 0.63064 0.92889 0.0
H3888 H 0.57713 0.61356 0.95713 0.0
H3889 H 0.59253 0.62232 0.97322 0.0
H3890 H 0.57356 0.59837 0.93886 0.0
H3891 H 0.58028 0.63778 0.94181 0.0
H3892 H 0.59195 0.65961 0.94206 0.0
H3893 H 0.60308 0.65912 0.90469 0.0
H3894 H 0.5916 0.63726 0.90428 0.0
H3895 H 0.52264 0.58551 0.90173 0.0
H3896 H 0.53861 0.59411 0.91732 0.0
H3897 H 0.56428 0.60254 0.88851 0.0
H3898 H 0.54837 0.59352 0.87292 0.0
H3899 H 0.5683 0.62208 0.90656 0.0
H3900 H 0.56085 0.58211 0.90409 0.0
H3901 H 0.54838 0.56034 0.90429 0.0
H3902 H 0.53768 0.56216 0.94153 0.0
H3903 H 0.54995 0.58397 0.94147 0.0
C3904 C 0.60982 0.63406 0.94775 0.0
C3905 C 0.60694 0.63184 0.96038 0.0
C3906 C 0.60101 0.6289 0.93855 0.0
C3907 C 0.58913 0.62151 0.94181 0.0
C3908 C 0.58623 0.61926 0.9544 0.0
C3909 C 0.59504 0.62438 0.9636 0.0
C3910 C 0.57974 0.61596 0.93208 0.0
C3911 C 0.57233 0.60358 0.9319 0.0
C3912 C 0.57826 0.62273 0.92285 0.0
C3913 C 0.58518 0.63587 0.92306 0.0
C3914 C 0.5853 0.64232 0.93368 0.0
C3915 C 0.59186 0.6547 0.93385 0.0
C3916 C 0.59828 0.66075 0.92341 0.0
C3917 C 0.59812 0.65442 0.91278 0.0
C3918 C 0.59158 0.64203 0.91257 0.0
C3919 C 0.53168 0.58921 0.89871 0.0
C3920 C 0.53424 0.58918 0.88602 0.0
C3921 C 0.54077 0.59408 0.90762 0.0
C3922 C 0.55258 0.59905 0.904 0.0
C3923 C 0.5552 0.59886 0.89142 0.0
C3924 C 0.5461 0.59376 0.88253 0.0
C3925 C 0.5622 0.60456 0.9134 0.0
C3926 C 0.5696 0.61691 0.91352 0.0
C3927 C 0.56359 0.5978 0.92265 0.0
C3928 C 0.55621 0.58469 0.92272 0.0
C3929 C 0.55573 0.57788 0.91227 0.0
C3930 C 0.54873 0.56553 0.91237 0.0
C3931 C 0.54221 0.55987 0.9229 0.0
C3932 C 0.54272 0.56655 0.93337 0.0
C3933 C 0.5497 0.57891 0.93331 0.0
H3934 H 0.5368 0.5503 0.92297 0.0
H3935 H 0.60335 0.67033 0.92356 0.0
H3936 H 0.02347 0.62132 0.97231 0.0
H3937 H 0.02515 0.60967 0.9552 0.0
H3938 H 0.01663 0.62883 0.92883 0.0
H3939 H 0.01513 0.64063 0.94587 0.0
H3940 H 0.00287 0.60264 0.92685 0.0
H3941 H 0.04315 0.63568 0.92956 0.0
H3942 H 0.06186 0.64911 0.94062 0.0
H3943 H 0.06568 0.61949 0.9503 0.0
H3944 H 0.04688 0.60586 0.93945 0.0
H3945 H 0.01443 0.58344 0.86982 0.0
H3946 H 0.01301 0.59451 0.88753 0.0
H3947 H 0.03248 0.58315 0.91031 0.0
H3948 H 0.03452 0.57268 0.89244 0.0
H3949 H 0.04045 0.60488 0.91501 0.0
H3950 H 0.00134 0.57165 0.91282 0.0
H3951 H 0.98218 0.55708 0.90329 0.0
H3952 H 0.97529 0.58496 0.89459 0.0
H3953 H 0.99449 0.59973 0.90392 0.0
C3954 C 0.02205 0.62309 0.96285 0.0
C3955 C 0.01922 0.63188 0.96037 0.0
C3956 C 0.02302 0.61646 0.95311 0.0
C3957 C 0.021 0.61841 0.94079 0.0
C3958 C 0.01821 0.62721 0.93829 0.0
C3959 C 0.01745 0.63398 0.948 0.0
C3960 C 0.02157 0.6111 0.93051 0.0
C3961 C 0.01109 0.6032 0.92412 0.0
C3962 C 0.03222 0.61155 0.92734 0.0
C3963 C 0.04355 0.61974 0.93381 0.0
C3964 C 0.04792 0.63202 0.93415 0.0
C3965 C 0.05856 0.63967 0.94036 0.0
C3966 C 0.06494 0.63515 0.94619 0.0
C3967 C 0.06072 0.62297 0.94579 0.0
C3968 C 0.05008 0.61529 0.93961 0.0
C3969 C 0.0183 0.58323 0.87865 0.0
C3970 C 0.02437 0.57699 0.87975 0.0
C3971 C 0.01743 0.58949 0.8888 0.0
C3972 C 0.02242 0.58948 0.90038 0.0
C3973 C 0.02849 0.58326 0.90152 0.0
C3974 C 0.02956 0.57717 0.89129 0.0
C3975 C 0.02172 0.59637 0.91114 0.0
C3976 C 0.03217 0.60421 0.91769 0.0
C3977 C 0.01097 0.59566 0.91463 0.0
C3978 C 0.99942 0.58681 0.90897 0.0
C3979 C 0.99579 0.57469 0.90879 0.0
C3980 C 0.98491 0.56639 0.90343 0.0
C3981 C 0.97753 0.57009 0.89831 0.0
C3982 C 0.98102 0.58211 0.89855 0.0
C3983 C 0.99189 0.59044 0.90388 0.0
H3984 H 0.96911 0.56366 0.89417 0.0
H3985 H 0.07317 0.64109 0.95099 0.0
H3986 H 0.39055 0.40339 0.9589 0.0
H3987 H 0.39796 0.41899 0.94345 0.0
H3988 H 0.36214 0.40834 0.93277 0.0
H3989 H 0.35467 0.39264 0.94815 0.0
H3990 H 0.37488 0.41153 0.9129 0.0
H3991 H 0.37959 0.43393 0.94999 0.0
H3992 H 0.38605 0.44107 0.97151 0.0
H3993 H 0.42232 0.45571 0.96106 0.0
H3994 H 0.41607 0.4485 0.9395 0.0
H3995 H 0.39006 0.46202 0.87656 0.0
H3996 H 0.38244 0.44831 0.8937 0.0
H3997 H 0.41716 0.45357 0.90072 0.0
H3998 H 0.42494 0.46722 0.8833 0.0
H3999 H 0.40458 0.45356 0.92259 0.0
H4000 H 0.39917 0.43015 0.88545 0.0
H4001 H 0.39224 0.42325 0.86397 0.0
H4002 H 0.35643 0.41082 0.87487 0.0
H4003 H 0.36318 0.41782 0.8964 0.0
C4004 C 0.38425 0.40447 0.95337 0.0
C4005 C 0.37202 0.3968 0.95475 0.0
C4006 C 0.3885 0.41339 0.94454 0.0
C4007 C 0.3806 0.41493 0.93704 0.0
C4008 C 0.36839 0.40732 0.93845 0.0
C4009 C 0.36414 0.39834 0.94721 0.0
C4010 C 0.3851 0.42419 0.92742 0.0
C4011 C 0.38122 0.42075 0.91508 0.0
C4012 C 0.39354 0.4362 0.9302 0.0
C4013 C 0.39735 0.44057 0.94315 0.0
C4014 C 0.38894 0.43858 0.9523 0.0
C4015 C 0.39256 0.44266 0.9645 0.0
C4016 C 0.40458 0.44882 0.96766 0.0
C4017 C 0.41301 0.45093 0.95861 0.0
C4018 C 0.40943 0.44686 0.94639 0.0
C4019 C 0.39616 0.4603 0.88161 0.0
C4020 C 0.40814 0.46552 0.87826 0.0
C4021 C 0.39174 0.45246 0.89149 0.0
C4022 C 0.39921 0.44983 0.89835 0.0
C4023 C 0.41125 0.45545 0.89548 0.0
C4024 C 0.41566 0.46318 0.8855 0.0
C4025 C 0.39435 0.44084 0.90817 0.0
C4026 C 0.39818 0.44434 0.9205 0.0
C4027 C 0.38578 0.4289 0.90542 0.0
C4028 C 0.3817 0.42463 0.8925 0.0
C4029 C 0.38983 0.42604 0.88325 0.0
C4030 C 0.38594 0.4221 0.87107 0.0
C4031 C 0.37391 0.41663 0.86805 0.0
C4032 C 0.36575 0.41508 0.87722 0.0
C4033 C 0.3696 0.41903 0.88941 0.0
H4034 H 0.37091 0.41358 0.85862 0.0
H4035 H 0.40737 0.45197 0.97711 0.0
H4036 H 0.62004 0.97565 0.9443 0.0
H4037 H 0.60634 0.97388 0.92775 0.0
H4038 H 0.59257 0.99067 0.95166 0.0
H4039 H 0.60612 0.99232 0.96824 0.0
H4040 H 0.57506 0.97284 0.93948 0.0
H4041 H 0.61261 0.00593 0.92856 0.0
H4042 H 0.63392 0.01646 0.924 0.0
H4043 H 0.62753 0.99254 0.89333 0.0
H4044 H 0.60618 0.98176 0.89781 0.0
H4045 H 0.54948 0.99182 0.89293 0.0
H4046 H 0.56142 0.99074 0.90985 0.0
H4047 H 0.57127 0.97044 0.88611 0.0
H4048 H 0.55941 0.97133 0.86928 0.0
H4049 H 0.59044 0.9893 0.89794 0.0
H4050 H 0.55224 0.95691 0.9088 0.0
H4051 H 0.531 0.94734 0.91348 0.0
H4052 H 0.53878 0.97125 0.9445 0.0
H4053 H 0.56007 0.98108 0.93989 0.0
C4054 C 0.61409 0.97896 0.94601 0.0
C4055 C 0.61416 0.98413 0.95757 0.0
C4056 C 0.60627 0.97796 0.93655 0.0
C4057 C 0.59852 0.98228 0.9384 0.0
C4058 C 0.59844 0.98724 0.95001 0.0
C4059 C 0.60617 0.98816 0.9595 0.0
C4060 C 0.59061 0.98182 0.92821 0.0
C4061 C 0.57845 0.97655 0.93044 0.0
C4062 C 0.59499 0.98649 0.91633 0.0
C4063 C 0.60782 0.99296 0.91361 0.0
C4064 C 0.61576 0.00285 0.92091 0.0
C4065 C 0.62784 0.00888 0.91832 0.0
C4066 C 0.63208 0.00515 0.9084 0.0
C4067 C 0.62424 0.9954 0.90102 0.0
C4068 C 0.61215 0.98934 0.90358 0.0
C4069 C 0.55407 0.98699 0.89137 0.0
C4070 C 0.55337 0.98168 0.87969 0.0
C4071 C 0.56087 0.98638 0.90104 0.0
C4072 C 0.56718 0.98047 0.89923 0.0
C4073 C 0.56647 0.97506 0.88768 0.0
C4074 C 0.5596 0.97559 0.87802 0.0
C4075 C 0.57492 0.98034 0.90924 0.0
C4076 C 0.58706 0.98553 0.90697 0.0
C4077 C 0.57054 0.97573 0.92111 0.0
C4078 C 0.55774 0.9698 0.92393 0.0
C4079 C 0.54942 0.96019 0.91656 0.0
C4080 C 0.53737 0.95471 0.91921 0.0
C4081 C 0.53354 0.9587 0.92926 0.0
C4082 C 0.54175 0.96817 0.93671 0.0
C4083 C 0.55381 0.9737 0.93409 0.0
H4084 H 0.52421 0.95444 0.93131 0.0
H4085 H 0.64144 0.00983 0.90641 0.0
H4086 H 0.61309 0.99704 0.0582 0.0
H4087 H 0.60086 0.99907 0.07385 0.0
H4088 H 0.62748 0.0358 0.07972 0.0
H4089 H 0.6398 0.0339 0.06379 0.0
H4090 H 0.61857 0.02369 0.10178 0.0
H4091 H 0.60336 0.02994 0.0643 0.0
H4092 H 0.59596 0.02593 0.04266 0.0
H4093 H 0.5666 0.99238 0.0532 0.0
H4094 H 0.57392 0.9961 0.07488 0.0
H4095 H 0.57616 0.02747 0.14089 0.0
H4096 H 0.59033 0.03203 0.12402 0.0
H4097 H 0.56996 0.99587 0.11057 0.0
H4098 H 0.55588 0.99128 0.12735 0.0
H4099 H 0.57703 0.01191 0.09166 0.0
H4100 H 0.59404 0.00449 0.12814 0.0
H4101 H 0.60155 0.00811 0.14975 0.0
H4102 H 0.6276 0.04389 0.14093 0.0
H4103 H 0.62011 0.04052 0.11929 0.0
C4104 C 0.61631 0.00561 0.06266 0.0
C4105 C 0.62736 0.01535 0.05961 0.0
C4106 C 0.60931 0.00674 0.07165 0.0
C4107 C 0.61318 0.01764 0.07779 0.0
C4108 C 0.62432 0.02734 0.07502 0.0
C4109 C 0.63135 0.02622 0.06596 0.0
C4110 C 0.60551 0.01865 0.08718 0.0
C4111 C 0.60957 0.0214 0.09954 0.0
C4112 C 0.59375 0.01553 0.08425 0.0
C4113 C 0.58924 0.01328 0.07122 0.0
C4114 C 0.59537 0.02167 0.062 0.0
C4115 C 0.59118 0.01945 0.04972 0.0
C4116 C 0.58083 0.0089 0.04655 0.0
C4117 C 0.57462 0.00055 0.05566 0.0
C4118 C 0.57878 0.00272 0.06796 0.0
C4119 C 0.57468 0.02056 0.13425 0.0
C4120 C 0.56489 0.00904 0.13538 0.0
C4121 C 0.58277 0.02315 0.12466 0.0
C4122 C 0.58119 0.01427 0.11609 0.0
C4123 C 0.5713 0.00286 0.11706 0.0
C4124 C 0.56328 0.00025 0.12665 0.0
C4125 C 0.58997 0.0166 0.1063 0.0
C4126 C 0.58611 0.01447 0.09386 0.0
C4127 C 0.6019 0.0203 0.10917 0.0
C4128 C 0.60641 0.02231 0.12215 0.0
C4129 C 0.60129 0.01316 0.13084 0.0
C4130 C 0.60556 0.01516 0.14308 0.0
C4131 C 0.61502 0.02623 0.14672 0.0
C4132 C 0.62025 0.03532 0.13811 0.0
C4133 C 0.616 0.03338 0.12585 0.0
H4134 H 0.61832 0.02776 0.1562 0.0
H4135 H 0.5776 0.0072 0.03704 0.0
H4136 H 0.9703 0.60097 0.05294 0.0
H4137 H 0.96816 0.58657 0.06848 0.0
H4138 H 0.99657 0.61446 0.09023 0.0
H4139 H 0.9991 0.62881 0.07452 0.0
H4140 H 0.99941 0.59584 0.08822 0.0
H4141 H 0.96732 0.60212 0.09869 0.0
H4142 H 0.94924 0.60294 0.09464 0.0
H4143 H 0.93065 0.56608 0.08404 0.0
H4144 H 0.94868 0.56508 0.08787 0.0
H4145 H 0.99157 0.56653 0.14523 0.0
H4146 H 0.99304 0.57985 0.12871 0.0
H4147 H 0.9647 0.55037 0.10849 0.0
H4148 H 0.96306 0.53704 0.12516 0.0
H4149 H 0.96155 0.56901 0.10896 0.0
H4150 H 0.99343 0.56255 0.09916 0.0
H4151 H 0.0115 0.56171 0.10325 0.0
H4152 H 0.03047 0.59887 0.11252 0.0
H4153 H 0.01247 0.5999 0.10865 0.0
C4154 C 0.97611 0.60403 0.06102 0.0
C4155 C 0.98486 0.61606 0.06248 0.0
C4156 C 0.97481 0.59581 0.06995 0.0
C4157 C 0.98214 0.59945 0.08058 0.0
C4158 C 0.99079 0.61145 0.08212 0.0
C4159 C 0.99214 0.61967 0.07318 0.0
C4160 C 0.98108 0.59074 0.08993 0.0
C4161 C 0.99116 0.59008 0.09287 0.0
C4162 C 0.97024 0.58297 0.09573 0.0
C4163 C 0.95939 0.58356 0.09344 0.0
C4164 C 0.95941 0.59421 0.0954 0.0
C4165 C 0.94916 0.5947 0.09316 0.0
C4166 C 0.93881 0.58457 0.08905 0.0
C4167 C 0.93867 0.57392 0.0872 0.0
C4168 C 0.9489 0.57338 0.08942 0.0
C4169 C 0.98576 0.56288 0.13718 0.0
C4170 C 0.97738 0.55072 0.13634 0.0
C4171 C 0.98661 0.57049 0.12775 0.0
C4172 C 0.97911 0.56608 0.11727 0.0
C4173 C 0.97063 0.55395 0.11646 0.0
C4174 C 0.96976 0.54634 0.12592 0.0
C4175 C 0.97991 0.57421 0.10734 0.0
C4176 C 0.96978 0.57475 0.10428 0.0
C4177 C 0.99071 0.58187 0.10142 0.0
C4178 C 0.00157 0.58128 0.10372 0.0
C4179 C 0.00143 0.57052 0.10217 0.0
C4180 C 0.01166 0.57001 0.10443 0.0
C4181 C 0.02212 0.58022 0.10817 0.0
C4182 C 0.02236 0.59097 0.10963 0.0
C4183 C 0.01215 0.59152 0.10739 0.0
H4184 H 0.03003 0.57981 0.10991 0.0
H4185 H 0.93088 0.58497 0.08733 0.0
H4186 H 0.41075 0.36624 0.04225 0.0
H4187 H 0.42633 0.37512 0.05821 0.0
H4188 H 0.40491 0.38489 0.07992 0.0
H4189 H 0.38948 0.37642 0.06383 0.0
H4190 H 0.4275 0.4026 0.0798 0.0
H4191 H 0.40688 0.36062 0.08699 0.0
H4192 H 0.39875 0.33956 0.0813 0.0
H4193 H 0.43358 0.34648 0.07255 0.0
H4194 H 0.4419 0.36763 0.07803 0.0
H4195 H 0.45293 0.41027 0.13999 0.0
H4196 H 0.44016 0.40411 0.12148 0.0
H4197 H 0.46402 0.39575 0.10252 0.0
H4198 H 0.47676 0.40179 0.12113 0.0
H4199 H 0.44152 0.37805 0.10007 0.0
H4200 H 0.4623 0.41997 0.09456 0.0
H4201 H 0.47021 0.4409 0.10066 0.0
H4202 H 0.43496 0.43408 0.1066 0.0
H4203 H 0.42684 0.41306 0.10071 0.0
C4204 C 0.40941 0.3704 0.05036 0.0
C4205 C 0.39883 0.37054 0.0518 0.0
C4206 C 0.41828 0.37538 0.05952 0.0
C4207 C 0.41673 0.38055 0.07033 0.0
C4208 C 0.40629 0.38092 0.07167 0.0
C4209 C 0.39742 0.37596 0.06253 0.0
C4210 C 0.42586 0.38539 0.08037 0.0
C4211 C 0.4305 0.39721 0.08431 0.0
C4212 C 0.42998 0.37844 0.08605 0.0
C4213 C 0.42499 0.36573 0.08279 0.0
C4214 C 0.4128 0.35767 0.08376 0.0
C4215 C 0.40815 0.34571 0.08059 0.0
C4216 C 0.41564 0.34169 0.07653 0.0
C4217 C 0.42779 0.34962 0.07567 0.0
C4218 C 0.43247 0.36158 0.07881 0.0
C4219 C 0.45554 0.40731 0.1318 0.0
C4220 C 0.46593 0.40668 0.13192 0.0
C4221 C 0.44826 0.40381 0.12122 0.0
C4222 C 0.45121 0.39961 0.11055 0.0
C4223 C 0.46161 0.39903 0.11063 0.0
C4224 C 0.46891 0.40254 0.12121 0.0
C4225 C 0.4431 0.39524 0.09959 0.0
C4226 C 0.43863 0.38349 0.09548 0.0
C4227 C 0.43912 0.40225 0.0938 0.0
C4228 C 0.44397 0.41491 0.09729 0.0
C4229 C 0.45623 0.42291 0.09726 0.0
C4230 C 0.46076 0.43479 0.10066 0.0
C4231 C 0.45309 0.43881 0.10404 0.0
C4232 C 0.44089 0.43095 0.10399 0.0
C4233 C 0.43632 0.41905 0.1006 0.0
H4234 H 0.45661 0.44801 0.10667 0.0
H4235 H 0.41203 0.33244 0.07408 0.0
H4236 H 0.6568 0.70874 0.40052 0.0
H4237 H 0.64902 0.71639 0.41644 0.0
H4238 H 0.61722 0.70433 0.39448 0.0
H4239 H 0.62505 0.69682 0.37845 0.0
H4240 H 0.6247 0.72589 0.40316 0.0
H4241 H 0.61801 0.68953 0.42079 0.0
H4242 H 0.6235 0.67509 0.42787 0.0
H4243 H 0.64825 0.70072 0.45417 0.0
H4244 H 0.64302 0.71537 0.44713 0.0
H4245 H 0.58992 0.73139 0.45041 0.0
H4246 H 0.59767 0.72356 0.43461 0.0
H4247 H 0.63027 0.7375 0.45559 0.0
H4248 H 0.62249 0.74524 0.47148 0.0
H4249 H 0.6224 0.71505 0.44749 0.0
H4250 H 0.62896 0.75135 0.42977 0.0
H4251 H 0.62333 0.76568 0.4227 0.0
H4252 H 0.59854 0.7399 0.39654 0.0
H4253 H 0.60391 0.72535 0.40359 0.0
C4254 C 0.6481 0.70762 0.39915 0.0
C4255 C 0.64151 0.70215 0.38826 0.0
C4256 C 0.64366 0.71199 0.40826 0.0
C4257 C 0.63246 0.71081 0.40674 0.0
C4258 C 0.62588 0.70536 0.39586 0.0
C4259 C 0.63036 0.70108 0.3867 0.0
C4260 C 0.6277 0.71544 0.41639 0.0
C4261 C 0.62404 0.72337 0.41282 0.0
C4262 C 0.62709 0.71239 0.42905 0.0
C4263 C 0.6302 0.70358 0.43335 0.0
C4264 C 0.62468 0.69211 0.42802 0.0
C4265 C 0.62774 0.68389 0.43204 0.0
C4266 C 0.63624 0.687 0.44144 0.0
C4267 C 0.64168 0.69833 0.44687 0.0
C4268 C 0.63866 0.70659 0.44288 0.0
C4269 C 0.59877 0.73286 0.45159 0.0
C4270 C 0.60569 0.73912 0.46205 0.0
C4271 C 0.60319 0.7284 0.44256 0.0
C4272 C 0.61461 0.73009 0.44384 0.0
C4273 C 0.62146 0.73614 0.45439 0.0
C4274 C 0.61704 0.74061 0.46341 0.0
C4275 C 0.61938 0.72545 0.43424 0.0
C4276 C 0.62305 0.71753 0.43782 0.0
C4277 C 0.61996 0.72848 0.42158 0.0
C4278 C 0.61675 0.73723 0.4173 0.0
C4279 C 0.62224 0.74871 0.42258 0.0
C4280 C 0.61911 0.75688 0.41856 0.0
C4281 C 0.61056 0.75369 0.4092 0.0
C4282 C 0.60515 0.74235 0.40381 0.0
C4283 C 0.60824 0.73414 0.4078 0.0
H4284 H 0.60815 0.76003 0.4061 0.0
H4285 H 0.63859 0.68062 0.44453 0.0
H4286 H 0.29917 0.92648 0.38968 0.0
H4287 H 0.29198 0.91117 0.40549 0.0
H4288 H 0.28018 0.93093 0.42754 0.0
H4289 H 0.28778 0.94647 0.41193 0.0
H4290 H 0.28932 0.922 0.44217 0.0
H4291 H 0.2609 0.90629 0.40867 0.0
H4292 H 0.25412 0.90057 0.38693 0.0
H4293 H 0.26694 0.8762 0.38674 0.0
H4294 H 0.27394 0.88189 0.40843 0.0
H4295 H 0.24906 0.87457 0.47992 0.0
H4296 H 0.2577 0.89041 0.46468 0.0
H4297 H 0.27256 0.87203 0.44526 0.0
H4298 H 0.26384 0.8561 0.46043 0.0
H4299 H 0.26202 0.88013 0.42939 0.0
H4300 H 0.28985 0.89579 0.46357 0.0
H4301 H 0.29595 0.90145 0.48547 0.0
H4302 H 0.28326 0.92591 0.48455 0.0
H4303 H 0.27693 0.92026 0.46269 0.0
C4304 C 0.29507 0.92755 0.39793 0.0
C4305 C 0.29395 0.93759 0.39957 0.0
C4306 C 0.29092 0.91879 0.40693 0.0
C4307 C 0.28529 0.91976 0.41759 0.0
C4308 C 0.28445 0.92996 0.41939 0.0
C4309 C 0.28879 0.93883 0.41048 0.0
C4310 C 0.28012 0.91007 0.42677 0.0
C4311 C 0.28324 0.91287 0.43938 0.0
C4312 C 0.27234 0.8981 0.42314 0.0
C4313 C 0.26804 0.89459 0.41014 0.0
C4314 C 0.26234 0.89976 0.40397 0.0
C4315 C 0.25845 0.89652 0.39166 0.0
C4316 C 0.26013 0.88805 0.38545 0.0
C4317 C 0.26566 0.88277 0.39155 0.0
C4318 C 0.26958 0.88599 0.40386 0.0
C4319 C 0.25411 0.87389 0.47235 0.0
C4320 C 0.25565 0.86403 0.47125 0.0
C4321 C 0.25911 0.88297 0.46371 0.0
C4322 C 0.26585 0.88243 0.45389 0.0
C4323 C 0.26737 0.87259 0.45275 0.0
C4324 C 0.26239 0.86352 0.46141 0.0
C4325 C 0.27122 0.89209 0.44474 0.0
C4326 C 0.26813 0.88927 0.43215 0.0
C4327 C 0.27892 0.90404 0.44841 0.0
C4328 C 0.28282 0.90752 0.46152 0.0
C4329 C 0.28828 0.90231 0.46806 0.0
C4330 C 0.29179 0.90553 0.48047 0.0
C4331 C 0.28997 0.91402 0.48641 0.0
C4332 C 0.28466 0.91933 0.47994 0.0
C4333 C 0.28112 0.91613 0.46754 0.0
H4334 H 0.29269 0.91649 0.49601 0.0
H4335 H 0.25711 0.88556 0.37592 0.0
H4336 H 0.08535 0.36919 0.38047 0.0
H4337 H 0.10106 0.37712 0.39627 0.0
H4338 H 0.07494 0.36127 0.42498 0.0
H4339 H 0.05916 0.35368 0.40915 0.0
H4340 H 0.09135 0.38203 0.43262 0.0
H4341 H 0.09149 0.34873 0.41429 0.0
H4342 H 0.092 0.33613 0.39734 0.0
H4343 H 0.12624 0.36422 0.38666 0.0
H4344 H 0.12587 0.37706 0.40344 0.0
H4345 H 0.13199 0.38427 0.47884 0.0
H4346 H 0.11593 0.37672 0.46336 0.0
H4347 H 0.14053 0.39926 0.43578 0.0
H4348 H 0.15659 0.40708 0.45129 0.0
H4349 H 0.12482 0.37479 0.42806 0.0
H4350 H 0.12388 0.40787 0.44734 0.0
H4351 H 0.12286 0.41936 0.46514 0.0
H4352 H 0.08922 0.38984 0.47515 0.0
H4353 H 0.09013 0.3781 0.45751 0.0
C4354 C 0.08298 0.36743 0.39016 0.0
C4355 C 0.07107 0.36076 0.39361 0.0
C4356 C 0.09196 0.37191 0.39918 0.0
C4357 C 0.08921 0.36957 0.41182 0.0
C4358 C 0.07728 0.36316 0.4153 0.0
C4359 C 0.06828 0.35883 0.40627 0.0
C4360 C 0.09879 0.37374 0.42135 0.0
C4361 C 0.09857 0.38029 0.43168 0.0
C4362 C 0.10832 0.3716 0.42012 0.0
C4363 C 0.1086 0.36389 0.41005 0.0
C4364 C 0.0991 0.35225 0.40827 0.0
C4365 C 0.09936 0.34506 0.3987 0.0
C4366 C 0.10913 0.34938 0.39091 0.0
C4367 C 0.11867 0.36089 0.39269 0.0
C4368 C 0.11844 0.36812 0.40224 0.0
C4369 C 0.13395 0.38766 0.4695 0.0
C4370 C 0.14552 0.39637 0.46631 0.0
C4371 C 0.12479 0.38334 0.46068 0.0
C4372 C 0.12706 0.38752 0.44848 0.0
C4373 C 0.13863 0.39597 0.44517 0.0
C4374 C 0.14777 0.40043 0.45403 0.0
C4375 C 0.11735 0.38309 0.43918 0.0
C4376 C 0.11756 0.37648 0.42894 0.0
C4377 C 0.10772 0.38499 0.44061 0.0
C4378 C 0.10713 0.39207 0.45118 0.0
C4379 C 0.11632 0.40379 0.4534 0.0
C4380 C 0.11575 0.41035 0.46345 0.0
C4381 C 0.106 0.40532 0.4713 0.0
C4382 C 0.09678 0.39372 0.46908 0.0
C4383 C 0.09731 0.38711 0.45905 0.0
H4384 H 0.10557 0.41042 0.47907 0.0
H4385 H 0.10932 0.34381 0.3835 0.0
H4386 H 0.05685 0.32046 0.29094 0.0
H4387 H 0.06368 0.3125 0.27447 0.0
H4388 H 0.02992 0.28008 0.27372 0.0
H4389 H 0.02273 0.28816 0.28985 0.0
H4390 H 0.05082 0.27747 0.2745 0.0
H4391 H 0.03431 0.29698 0.2514 0.0
H4392 H 0.03152 0.3137 0.24623 0.0
H4393 H 0.06847 0.33514 0.23815 0.0
H4394 H 0.07152 0.31859 0.24347 0.0
H4395 H 0.06412 0.25516 0.21994 0.0
H4396 H 0.05438 0.26102 0.23551 0.0
H4397 H 0.08251 0.29743 0.23292 0.0
H4398 H 0.09194 0.29169 0.217 0.0
H4399 H 0.06267 0.29685 0.23355 0.0
H4400 H 0.08007 0.27893 0.25781 0.0
H4401 H 0.08404 0.26317 0.26393 0.0
H4402 H 0.0471 0.23988 0.27081 0.0
H4403 H 0.04289 0.25546 0.26457 0.0
C4404 C 0.05076 0.31171 0.28716 0.0
C4405 C 0.03918 0.30501 0.29169 0.0
C4406 C 0.05474 0.30715 0.2778 0.0
C4407 C 0.04728 0.29575 0.27286 0.0
C4408 C 0.0358 0.28891 0.27746 0.0
C4409 C 0.03174 0.29353 0.28673 0.0
C4410 C 0.05157 0.29107 0.26287 0.0
C4411 C 0.05323 0.28153 0.26545 0.0
C4412 C 0.05498 0.29663 0.25123 0.0
C4413 C 0.05316 0.30657 0.24794 0.0
C4414 C 0.04186 0.30529 0.24862 0.0
C4415 C 0.04023 0.31473 0.24564 0.0
C4416 C 0.04982 0.32548 0.24189 0.0
C4417 C 0.06105 0.32681 0.24107 0.0
C4418 C 0.06273 0.31739 0.24405 0.0
C4419 C 0.06825 0.26439 0.2228 0.0
C4420 C 0.07897 0.2729 0.21753 0.0
C4421 C 0.06271 0.26773 0.23171 0.0
C4422 C 0.06783 0.27964 0.23559 0.0
C4423 C 0.07842 0.28818 0.23015 0.0
C4424 C 0.08387 0.28487 0.22113 0.0
C4425 C 0.06213 0.2833 0.24518 0.0
C4426 C 0.06019 0.29266 0.24254 0.0
C4427 C 0.05864 0.27769 0.25683 0.0
C4428 C 0.06115 0.26831 0.26059 0.0
C4429 C 0.07278 0.27041 0.26053 0.0
C4430 C 0.07508 0.26152 0.26404 0.0
C4431 C 0.06582 0.25052 0.26772 0.0
C4432 C 0.05426 0.2484 0.26794 0.0
C4433 C 0.05191 0.25726 0.26442 0.0
H4434 H 0.06762 0.24365 0.27044 0.0
H4435 H 0.04854 0.33279 0.23959 0.0
H4436 H 0.67844 0.72636 0.28587 0.0
H4437 H 0.68561 0.74235 0.27096 0.0
H4438 H 0.72133 0.74996 0.27698 0.0
H4439 H 0.71421 0.73376 0.29176 0.0
H4440 H 0.71949 0.77009 0.27763 0.0
H4441 H 0.70726 0.7362 0.25083 0.0
H4442 H 0.69353 0.71614 0.24248 0.0
H4443 H 0.66892 0.72705 0.2319 0.0
H4444 H 0.68244 0.74714 0.24035 0.0
H4445 H 0.74436 0.80936 0.22702 0.0
H4446 H 0.73816 0.7931 0.24159 0.0
H4447 H 0.7016 0.78199 0.23413 0.0
H4448 H 0.70777 0.79802 0.2193 0.0
H4449 H 0.70444 0.7635 0.23416 0.0
H4450 H 0.71601 0.797 0.26144 0.0
H4451 H 0.72935 0.81705 0.27008 0.0
H4452 H 0.7547 0.80693 0.28007 0.0
H4453 H 0.74157 0.78686 0.27133 0.0
C4454 C 0.6878 0.73128 0.28389 0.0
C4455 C 0.69573 0.7287 0.28998 0.0
C4456 C 0.69189 0.74047 0.2754 0.0
C4457 C 0.70398 0.74728 0.27279 0.0
C4458 C 0.71195 0.74481 0.27888 0.0
C4459 C 0.70787 0.73558 0.28735 0.0
C4460 C 0.70829 0.7571 0.26385 0.0
C4461 C 0.71635 0.76865 0.26807 0.0
C4462 C 0.70395 0.75522 0.25147 0.0
C4463 C 0.69582 0.74315 0.24633 0.0
C4464 C 0.69888 0.7343 0.24682 0.0
C4465 C 0.69114 0.72293 0.24205 0.0
C4466 C 0.68035 0.72032 0.23669 0.0
C4467 C 0.67728 0.72908 0.23606 0.0
C4468 C 0.68498 0.74047 0.24083 0.0
C4469 C 0.73501 0.80353 0.22862 0.0
C4470 C 0.72656 0.80516 0.22229 0.0
C4471 C 0.73147 0.79425 0.23695 0.0
C4472 C 0.71941 0.78645 0.23913 0.0
C4473 C 0.71095 0.78795 0.23267 0.0
C4474 C 0.71448 0.79717 0.22428 0.0
C4475 C 0.71559 0.77655 0.24795 0.0
C4476 C 0.70762 0.76497 0.24371 0.0
C4477 C 0.71996 0.77842 0.26033 0.0
C4478 C 0.72786 0.79047 0.26562 0.0
C4479 C 0.72447 0.79908 0.26539 0.0
C4480 C 0.73198 0.81044 0.27032 0.0
C4481 C 0.74288 0.81327 0.27559 0.0
C4482 C 0.74627 0.80473 0.27597 0.0
C4483 C 0.73879 0.79336 0.27104 0.0
H4484 H 0.74868 0.82207 0.2794 0.0
H4485 H 0.67437 0.71151 0.233 0.0
H4486 H 0.25896 0.97609 0.30168 0.0
H4487 H 0.24421 0.96765 0.28483 0.0
H4488 H 0.24786 0.93671 0.28348 0.0
H4489 H 0.26278 0.94519 0.30007 0.0
H4490 H 0.24845 0.94532 0.26045 0.0
H4491 H 0.22399 0.93557 0.29679 0.0
H4492 H 0.21716 0.94005 0.31633 0.0
H4493 H 0.20832 0.96304 0.29692 0.0
H4494 H 0.21525 0.95881 0.27729 0.0
H4495 H 0.19953 0.9076 0.22217 0.0
H4496 H 0.21352 0.91623 0.23957 0.0
H4497 H 0.20631 0.9449 0.2423 0.0
H4498 H 0.1919 0.93598 0.22521 0.0
H4499 H 0.20766 0.93807 0.26462 0.0
H4500 H 0.23173 0.94812 0.22844 0.0
H4501 H 0.23892 0.94444 0.2087 0.0
H4502 H 0.24907 0.9221 0.22736 0.0
H4503 H 0.24178 0.92551 0.24719 0.0
C4504 C 0.25663 0.9675 0.29777 0.0
C4505 C 0.262 0.96129 0.30225 0.0
C4506 C 0.24814 0.96266 0.28822 0.0
C4507 C 0.24487 0.95151 0.28298 0.0
C4508 C 0.25023 0.94531 0.28742 0.0
C4509 C 0.25867 0.95012 0.29698 0.0
C4510 C 0.23606 0.94638 0.27268 0.0
C4511 C 0.23948 0.94359 0.2614 0.0
C4512 C 0.22449 0.94448 0.27381 0.0
C4513 C 0.22025 0.94696 0.2856 0.0
C4514 C 0.22067 0.94165 0.29671 0.0
C4515 C 0.21677 0.94413 0.3078 0.0
C4516 C 0.21234 0.95185 0.30787 0.0
C4517 C 0.21177 0.95707 0.29685 0.0
C4518 C 0.21567 0.95463 0.28574 0.0
C4519 C 0.20078 0.91563 0.22661 0.0
C4520 C 0.19441 0.92098 0.22251 0.0
C4521 C 0.20888 0.92065 0.23647 0.0
C4522 C 0.21108 0.9313 0.24218 0.0
C4523 C 0.20474 0.93665 0.23809 0.0
C4524 C 0.19652 0.93157 0.22833 0.0
C4525 C 0.22 0.93688 0.25237 0.0
C4526 C 0.21663 0.9398 0.26363 0.0
C4527 C 0.23167 0.93901 0.25118 0.0
C4528 C 0.23611 0.93698 0.23928 0.0
C4529 C 0.23542 0.94235 0.22832 0.0
C4530 C 0.23952 0.94033 0.21712 0.0
C4531 C 0.24442 0.93302 0.21677 0.0
C4532 C 0.24526 0.92774 0.22764 0.0
C4533 C 0.24115 0.92973 0.23886 0.0
H4534 H 0.2476 0.93146 0.20809 0.0
H4535 H 0.20932 0.95376 0.31647 0.0
H4536 H 0.67921 0.9506 0.28207 0.0
H4537 H 0.68795 0.94384 0.26638 0.0
H4538 H 0.71884 0.95564 0.28977 0.0
H4539 H 0.71034 0.96287 0.30534 0.0
H4540 H 0.72505 0.96229 0.2665 0.0
H4541 H 0.69831 0.92608 0.28618 0.0
H4542 H 0.67924 0.91067 0.2945 0.0
H4543 H 0.66353 0.9041 0.25802 0.0
H4544 H 0.68247 0.91959 0.24951 0.0
H4545 H 0.74877 0.9355 0.2276 0.0
H4546 H 0.74006 0.93913 0.24604 0.0
H4547 H 0.70891 0.93097 0.22456 0.0
H4548 H 0.71757 0.92728 0.20614 0.0
H4549 H 0.7035 0.92164 0.24817 0.0
H4550 H 0.72998 0.95902 0.22907 0.0
H4551 H 0.74914 0.97436 0.22085 0.0
H4552 H 0.76542 0.97852 0.25671 0.0
H4553 H 0.74638 0.96306 0.26509 0.0
C4554 C 0.68791 0.95185 0.28385 0.0
C4555 C 0.69409 0.95731 0.29496 0.0
C4556 C 0.69283 0.94784 0.27493 0.0
C4557 C 0.70398 0.94908 0.27697 0.0
C4558 C 0.71019 0.95453 0.28803 0.0
C4559 C 0.70529 0.95858 0.29696 0.0
C4560 C 0.70931 0.94506 0.26733 0.0
C4561 C 0.72042 0.95333 0.26267 0.0
C4562 C 0.7032 0.93343 0.26216 0.0
C4563 C 0.69179 0.92407 0.26723 0.0
C4564 C 0.69077 0.92141 0.27995 0.0
C4565 C 0.67998 0.91265 0.28469 0.0
C4566 C 0.67017 0.90643 0.2768 0.0
C4567 C 0.67113 0.90893 0.26413 0.0
C4568 C 0.68189 0.9177 0.25934 0.0
C4569 C 0.73999 0.93429 0.22689 0.0
C4570 C 0.73381 0.93106 0.21547 0.0
C4571 C 0.73505 0.93641 0.2374 0.0
C4572 C 0.72389 0.93542 0.23663 0.0
C4573 C 0.71752 0.93176 0.22536 0.0
C4574 C 0.72247 0.92967 0.21485 0.0
C4575 C 0.71914 0.93889 0.24732 0.0
C4576 C 0.70815 0.93054 0.25213 0.0
C4577 C 0.72537 0.95043 0.25267 0.0
C4578 C 0.73679 0.9598 0.24767 0.0
C4579 C 0.73767 0.96314 0.23517 0.0
C4580 C 0.7485 0.97187 0.23049 0.0
C4581 C 0.7585 0.97739 0.23824 0.0
C4582 C 0.75767 0.97422 0.25071 0.0
C4583 C 0.74687 0.96548 0.25543 0.0
H4584 H 0.76688 0.98414 0.2346 0.0
H4585 H 0.66183 0.89965 0.28049 0.0
H4586 H 0.03659 0.75069 0.30343 0.0
H4587 H 0.04376 0.76616 0.28779 0.0
H4588 H 0.0546 0.74616 0.26482 0.0
H4589 H 0.04786 0.73091 0.28058 0.0
H4590 H 0.07104 0.76917 0.265 0.0
H4591 H 0.02884 0.7459 0.25895 0.0
H4592 H 0.00798 0.7365 0.26524 0.0
H4593 H 0.01281 0.77059 0.27503 0.0
H4594 H 0.03375 0.78019 0.26896 0.0
H4595 H 0.07264 0.7922 0.20513 0.0
H4596 H 0.06864 0.78009 0.22361 0.0
H4597 H 0.0603 0.80344 0.24407 0.0
H4598 H 0.06429 0.81558 0.22556 0.0
H4599 H 0.04337 0.78024 0.24643 0.0
H4600 H 0.08544 0.80358 0.25048 0.0
H4601 H 0.10609 0.81262 0.24359 0.0
H4602 H 0.10139 0.77806 0.23695 0.0
H4603 H 0.08064 0.76881 0.24362 0.0
C4604 C 0.04062 0.74966 0.29511 0.0
C4605 C 0.04156 0.73951 0.29321 0.0
C4606 C 0.04463 0.75846 0.28614 0.0
C4607 C 0.04959 0.75725 0.27507 0.0
C4608 C 0.05077 0.74727 0.27327 0.0
C4609 C 0.04679 0.73849 0.28223 0.0
C4610 C 0.05333 0.76622 0.2652 0.0
C4611 C 0.06497 0.77153 0.26086 0.0
C4612 C 0.04548 0.7695 0.26 0.0
C4613 C 0.03289 0.76375 0.26364 0.0
C4614 C 0.02548 0.75138 0.26254 0.0
C4615 C 0.01364 0.74602 0.26605 0.0
C4616 C 0.00908 0.75294 0.27057 0.0
C4617 C 0.01635 0.76524 0.27155 0.0
C4618 C 0.02821 0.77065 0.26808 0.0
C4619 C 0.07013 0.79484 0.21363 0.0
C4620 C 0.06885 0.80487 0.21396 0.0
C4621 C 0.06787 0.78794 0.22418 0.0
C4622 C 0.06427 0.79092 0.23524 0.0
C4623 C 0.06311 0.80101 0.23564 0.0
C4624 C 0.06542 0.80795 0.2251 0.0
C4625 C 0.06105 0.78311 0.24614 0.0
C4626 C 0.04949 0.778 0.25065 0.0
C4627 C 0.06896 0.77996 0.25143 0.0
C4628 C 0.08145 0.7855 0.24745 0.0
C4629 C 0.08877 0.7979 0.24745 0.0
C4630 C 0.1005 0.80307 0.2436 0.0
C4631 C 0.10504 0.79592 0.23981 0.0
C4632 C 0.09786 0.78359 0.23988 0.0
C4633 C 0.08612 0.77838 0.24371 0.0
H4634 H 0.11412 0.79993 0.23683 0.0
H4635 H 0.99991 0.74877 0.27327 0.0
H4636 H 0.25191 0.30271 0.30552 0.0
H4637 H 0.23663 0.29512 0.28911 0.0
H4638 H 0.26308 0.30178 0.26167 0.0
H4639 H 0.27836 0.3093 0.27802 0.0
H4640 H 0.24692 0.30982 0.25528 0.0
H4641 H 0.24679 0.27495 0.27026 0.0
H4642 H 0.24528 0.26114 0.28648 0.0
H4643 H 0.21048 0.25414 0.29549 0.0
H4644 H 0.21185 0.26805 0.27942 0.0
H4645 H 0.21415 0.27692 0.20254 0.0
H4646 H 0.22774 0.28631 0.22012 0.0
H4647 H 0.19847 0.26987 0.24539 0.0
H4648 H 0.18495 0.25992 0.22784 0.0
H4649 H 0.21514 0.26756 0.2541 0.0
H4650 H 0.21396 0.30086 0.23877 0.0
H4651 H 0.21493 0.31504 0.2233 0.0
H4652 H 0.25112 0.32577 0.21595 0.0
H4653 H 0.25032 0.31153 0.23126 0.0
C4654 C 0.25445 0.30259 0.29597 0.0
C4655 C 0.26629 0.30653 0.29302 0.0
C4656 C 0.24573 0.29824 0.28664 0.0
C4657 C 0.24875 0.29788 0.27421 0.0
C4658 C 0.26059 0.302 0.27122 0.0
C4659 C 0.26928 0.3062 0.28056 0.0
C4660 C 0.23955 0.29302 0.2643 0.0
C4661 C 0.24001 0.30056 0.25492 0.0
C4662 C 0.23033 0.28105 0.26414 0.0
C4663 C 0.22947 0.27264 0.27374 0.0
C4664 C 0.23886 0.27054 0.27577 0.0
C4665 C 0.23802 0.26268 0.28492 0.0
C4666 C 0.2278 0.25679 0.29204 0.0
C4667 C 0.21839 0.25872 0.28998 0.0
C4668 C 0.21919 0.26659 0.28085 0.0
C4669 C 0.21061 0.27546 0.21184 0.0
C4670 C 0.19846 0.26786 0.21376 0.0
C4671 C 0.21837 0.28088 0.2219 0.0
C4672 C 0.21413 0.27902 0.23412 0.0
C4673 C 0.20196 0.27152 0.23606 0.0
C4674 C 0.19422 0.26591 0.226 0.0
C4675 C 0.2225 0.28433 0.24485 0.0
C4676 C 0.22192 0.27686 0.25444 0.0
C4677 C 0.2315 0.29644 0.2453 0.0
C4678 C 0.23204 0.30505 0.2361 0.0
C4679 C 0.2221 0.30618 0.23379 0.0
C4680 C 0.22263 0.31424 0.22506 0.0
C4681 C 0.23308 0.32129 0.21863 0.0
C4682 C 0.24303 0.3203 0.22094 0.0
C4683 C 0.24255 0.31225 0.22965 0.0
H4684 H 0.23347 0.32752 0.21187 0.0
H4685 H 0.22717 0.25071 0.29912 0.0
H4686 H 0.30629 0.37763 0.38915 0.0
H4687 H 0.29952 0.38537 0.40601 0.0
H4688 H 0.27339 0.34971 0.41584 0.0
H4689 H 0.28011 0.34191 0.39901 0.0
H4690 H 0.26417 0.3639 0.41656 0.0
H4691 H 0.29907 0.36517 0.43236 0.0
H4692 H 0.31998 0.37046 0.43235 0.0
H4693 H 0.33093 0.40743 0.43267 0.0
H4694 H 0.31006 0.40236 0.4325 0.0
H4695 H 0.25362 0.37352 0.47949 0.0
H4696 H 0.2591 0.36726 0.46034 0.0
H4697 H 0.28149 0.40383 0.45038 0.0
H4698 H 0.27584 0.41014 0.46942 0.0
H4699 H 0.29266 0.39018 0.44912 0.0
H4700 H 0.25729 0.38849 0.4347 0.0
H4701 H 0.23626 0.38275 0.43529 0.0
H4702 H 0.22607 0.346 0.43304 0.0
H4703 H 0.24706 0.35151 0.43264 0.0
C4704 C 0.29913 0.37144 0.39494 0.0
C4705 C 0.29378 0.35915 0.39278 0.0
C4706 C 0.29526 0.37587 0.40455 0.0
C4707 C 0.28603 0.36811 0.41227 0.0
C4708 C 0.2805 0.35586 0.40998 0.0
C4709 C 0.28434 0.35142 0.40034 0.0
C4710 C 0.2823 0.37273 0.42292 0.0
C4711 C 0.27037 0.36955 0.42374 0.0
C4712 C 0.29045 0.38031 0.43216 0.0
C4713 C 0.303 0.38338 0.43227 0.0
C4714 C 0.30594 0.37443 0.43232 0.0
C4715 C 0.31778 0.37738 0.43236 0.0
C4716 C 0.32678 0.38927 0.43247 0.0
C4717 C 0.32395 0.39822 0.43256 0.0
C4718 C 0.31211 0.39531 0.4325 0.0
C4719 C 0.25963 0.38021 0.47316 0.0
C4720 C 0.26442 0.39232 0.47601 0.0
C4721 C 0.26273 0.37663 0.46223 0.0
C4722 C 0.27071 0.38509 0.45397 0.0
C4723 C 0.27536 0.39718 0.45668 0.0
C4724 C 0.27214 0.40076 0.46753 0.0
C4725 C 0.27454 0.38129 0.44278 0.0
C4726 C 0.28648 0.38461 0.44188 0.0
C4727 C 0.26639 0.37377 0.43354 0.0
C4728 C 0.25375 0.37041 0.43376 0.0
C4729 C 0.25057 0.37918 0.43445 0.0
C4730 C 0.23866 0.37596 0.43473 0.0
C4731 C 0.22984 0.36401 0.43424 0.0
C4732 C 0.23291 0.35525 0.43344 0.0
C4733 C 0.24482 0.35842 0.43318 0.0
H4734 H 0.22062 0.36154 0.43445 0.0
H4735 H 0.33594 0.39154 0.43251 0.0
H4736 H 0.62097 0.92132 0.38701 0.0
H4737 H 0.61337 0.90621 0.40301 0.0
H4738 H 0.64898 0.9186 0.41602 0.0
H4739 H 0.65664 0.93373 0.40002 0.0
H4740 H 0.63653 0.89494 0.41512 0.0
H4741 H 0.63094 0.92585 0.4316 0.0
H4742 H 0.62407 0.94024 0.43166 0.0
H4743 H 0.58809 0.91182 0.42788 0.0
H4744 H 0.59475 0.89726 0.42762 0.0
H4745 H 0.62293 0.87018 0.47583 0.0
H4746 H 0.63011 0.88345 0.45808 0.0
H4747 H 0.59451 0.86741 0.44348 0.0
H4748 H 0.5873 0.85395 0.46113 0.0
H4749 H 0.60655 0.8924 0.44487 0.0
H4750 H 0.61274 0.86144 0.42939 0.0
H4751 H 0.62019 0.84754 0.43014 0.0
H4752 H 0.65585 0.87676 0.43306 0.0
H4753 H 0.6486 0.89085 0.43252 0.0
C4754 C 0.62718 0.92088 0.39333 0.0
C4755 C 0.6394 0.92877 0.39229 0.0
C4756 C 0.62283 0.91223 0.40246 0.0
C4757 C 0.6306 0.91136 0.41081 0.0
C4758 C 0.64282 0.91909 0.40966 0.0
C4759 C 0.64718 0.92772 0.4005 0.0
C4760 C 0.62598 0.90249 0.42082 0.0
C4761 C 0.63007 0.89447 0.42171 0.0
C4762 C 0.6174 0.90174 0.42929 0.0
C4763 C 0.61336 0.91047 0.42945 0.0
C4764 C 0.62157 0.92267 0.43067 0.0
C4765 C 0.61771 0.93086 0.43076 0.0
C4766 C 0.60565 0.92695 0.42973 0.0
C4767 C 0.59742 0.91484 0.42865 0.0
C4768 C 0.60124 0.90661 0.42854 0.0
C4769 C 0.61666 0.86941 0.46877 0.0
C4770 C 0.60454 0.8611 0.4699 0.0
C4771 C 0.62076 0.87697 0.45864 0.0
C4772 C 0.61283 0.87639 0.44949 0.0
C4773 C 0.60075 0.868 0.45048 0.0
C4774 C 0.59666 0.86034 0.46054 0.0
C4775 C 0.6171 0.88487 0.43914 0.0
C4776 C 0.61296 0.89284 0.43823 0.0
C4777 C 0.62572 0.88565 0.43075 0.0
C4778 C 0.63011 0.8772 0.43103 0.0
C4779 C 0.62216 0.86491 0.4303 0.0
C4780 C 0.62635 0.85699 0.43067 0.0
C4781 C 0.63848 0.86127 0.43168 0.0
C4782 C 0.64645 0.87346 0.43229 0.0
C4783 C 0.64231 0.88142 0.43194 0.0
H4784 H 0.64171 0.85512 0.43196 0.0
H4785 H 0.60268 0.9333 0.42981 0.0
H4786 H 0.0603 0.71905 0.40517 0.0
H4787 H 0.07518 0.72595 0.42178 0.0
H4788 H 0.09535 0.7144 0.40035 0.0
H4789 H 0.08026 0.70703 0.3839 0.0
H4790 H 0.09388 0.70785 0.42385 0.0
H4791 H 0.10405 0.7439 0.40324 0.0
H4792 H 0.10049 0.75905 0.39423 0.0
H4793 H 0.09022 0.76555 0.42996 0.0
H4794 H 0.09356 0.75032 0.43916 0.0
H4795 H 0.14449 0.73567 0.46318 0.0
H4796 H 0.13191 0.73131 0.44467 0.0
H4797 H 0.10927 0.74034 0.46516 0.0
H4798 H 0.12188 0.74479 0.48364 0.0
H4799 H 0.11293 0.74877 0.44139 0.0
H4800 H 0.10178 0.71202 0.46162 0.0
H4801 H 0.10532 0.69686 0.47067 0.0
H4802 H 0.11744 0.6917 0.43542 0.0
H4803 H 0.11415 0.70697 0.42621 0.0
C4804 C 0.06785 0.71789 0.40402 0.0
C4805 C 0.06908 0.71248 0.39319 0.0
C4806 C 0.07643 0.72197 0.41347 0.0
C4807 C 0.08647 0.72084 0.41224 0.0
C4808 C 0.08771 0.71542 0.40147 0.0
C4809 C 0.07912 0.7113 0.39203 0.0
C4810 C 0.09549 0.725 0.42237 0.0
C4811 C 0.0982 0.71686 0.42753 0.0
C4812 C 0.10094 0.73669 0.42736 0.0
C4813 C 0.09896 0.74589 0.42187 0.0
C4814 C 0.10095 0.7485 0.40916 0.0
C4815 C 0.09898 0.75711 0.40402 0.0
C4816 C 0.0951 0.76324 0.41151 0.0
C4817 C 0.09321 0.76079 0.42417 0.0
C4818 C 0.09515 0.75218 0.42935 0.0
C4819 C 0.13694 0.73692 0.46365 0.0
C4820 C 0.1342 0.74065 0.47481 0.0
C4821 C 0.12973 0.73437 0.45311 0.0
C4822 C 0.11959 0.73539 0.45359 0.0
C4823 C 0.11706 0.73951 0.46459 0.0
C4824 C 0.12426 0.74204 0.47513 0.0
C4825 C 0.11128 0.7316 0.44284 0.0
C4826 C 0.10868 0.7398 0.43761 0.0
C4827 C 0.10593 0.71997 0.43776 0.0
C4828 C 0.10784 0.71073 0.44326 0.0
C4829 C 0.10529 0.70772 0.45583 0.0
C4830 C 0.10724 0.6991 0.46098 0.0
C4831 C 0.11163 0.69334 0.45364 0.0
C4832 C 0.11406 0.69618 0.44111 0.0
C4833 C 0.11215 0.70481 0.43591 0.0
H4834 H 0.11313 0.68667 0.45764 0.0
H4835 H 0.09358 0.76991 0.40752 0.0
H4836 H 0.32282 0.05597 0.72504 0.0
H4837 H 0.31518 0.06402 0.74058 0.0
H4838 H 0.28109 0.03202 0.7383 0.0
H4839 H 0.28875 0.02369 0.72295 0.0
H4840 H 0.28003 0.05306 0.73781 0.0
H4841 H 0.29773 0.03566 0.76238 0.0
H4842 H 0.31367 0.03202 0.76877 0.0
H4843 H 0.33614 0.06898 0.77777 0.0
H4844 H 0.32039 0.07288 0.77124 0.0
H4845 H 0.25713 0.06684 0.79131 0.0
H4846 H 0.26317 0.05712 0.77583 0.0
H4847 H 0.29948 0.0852 0.78036 0.0
H4848 H 0.29354 0.09466 0.79617 0.0
H4849 H 0.29856 0.06496 0.77979 0.0
H4850 H 0.28177 0.08285 0.7545 0.0
H4851 H 0.26639 0.08712 0.74754 0.0
H4852 H 0.24286 0.05016 0.73937 0.0
H4853 H 0.25806 0.04566 0.74644 0.0
C4854 C 0.31374 0.05055 0.72794 0.0
C4855 C 0.30644 0.03912 0.72281 0.0
C4856 C 0.30937 0.0552 0.73678 0.0
C4857 C 0.29761 0.04857 0.74065 0.0
C4858 C 0.2902 0.03728 0.7354 0.0
C4859 C 0.29459 0.03256 0.72661 0.0
C4860 C 0.29314 0.05348 0.75024 0.0
C4861 C 0.28393 0.0555 0.74707 0.0
C4862 C 0.29845 0.05691 0.76219 0.0
C4863 C 0.30791 0.05457 0.76622 0.0
C4864 C 0.3061 0.04303 0.76563 0.0
C4865 C 0.3151 0.04092 0.76929 0.0
C4866 C 0.32592 0.05027 0.77365 0.0
C4867 C 0.32776 0.06175 0.77438 0.0
C4868 C 0.31879 0.06391 0.77071 0.0
C4869 C 0.26638 0.07098 0.78887 0.0
C4870 C 0.2748 0.08168 0.79468 0.0
C4871 C 0.26982 0.06545 0.78002 0.0
C4872 C 0.28176 0.07054 0.77673 0.0
C4873 C 0.29021 0.08114 0.78267 0.0
C4874 C 0.28679 0.0866 0.79162 0.0
C4875 C 0.28552 0.06472 0.76734 0.0
C4876 C 0.29459 0.0625 0.77056 0.0
C4877 C 0.28015 0.06121 0.7554 0.0
C4878 C 0.27101 0.06391 0.75112 0.0
C4879 C 0.27329 0.07563 0.75131 0.0
C4880 C 0.26461 0.07809 0.74733 0.0
C4881 C 0.25364 0.06891 0.74305 0.0
C4882 C 0.25135 0.05726 0.74271 0.0
C4883 C 0.26 0.05474 0.74669 0.0
H4884 H 0.24694 0.07083 0.73997 0.0
H4885 H 0.33287 0.04861 0.77648 0.0
H4886 H 0.94634 0.26211 0.7198 0.0
H4887 H 0.93821 0.24751 0.7362 0.0
H4888 H 0.97138 0.24827 0.73946 0.0
H4889 H 0.97947 0.26259 0.72266 0.0
H4890 H 0.95266 0.22583 0.7406 0.0
H4891 H 0.96438 0.26352 0.7601 0.0
H4892 H 0.96497 0.28256 0.7626 0.0
H4893 H 0.92733 0.26408 0.76736 0.0
H4894 H 0.9265 0.24493 0.76472 0.0
H4895 H 0.94015 0.19682 0.7986 0.0
H4896 H 0.94916 0.21107 0.78187 0.0
H4897 H 0.91796 0.21414 0.77947 0.0
H4898 H 0.90922 0.20041 0.79658 0.0
H4899 H 0.93642 0.2349 0.77797 0.0
H4900 H 0.92434 0.19731 0.75788 0.0
H4901 H 0.9234 0.17812 0.75503 0.0
H4902 H 0.9611 0.19609 0.75101 0.0
H4903 H 0.96228 0.21539 0.75399 0.0
C4904 C 0.95186 0.25903 0.72383 0.0
C4905 C 0.96357 0.26354 0.71991 0.0
C4906 C 0.94723 0.25078 0.73331 0.0
C4907 C 0.95425 0.24695 0.73918 0.0
C4908 C 0.96584 0.25117 0.73509 0.0
C4909 C 0.97047 0.25941 0.72556 0.0
C4910 C 0.94953 0.2387 0.74973 0.0
C4911 C 0.94925 0.22786 0.74885 0.0
C4912 C 0.94487 0.24127 0.76038 0.0
C4913 C 0.94537 0.25279 0.76211 0.0
C4914 C 0.95622 0.26352 0.7616 0.0
C4915 C 0.9566 0.27433 0.76305 0.0
C4916 C 0.94619 0.27453 0.76511 0.0
C4917 C 0.93539 0.26392 0.76576 0.0
C4918 C 0.93496 0.25308 0.7643 0.0
C4919 C 0.93521 0.20049 0.79442 0.0
C4920 C 0.92385 0.19722 0.79866 0.0
C4921 C 0.94033 0.20859 0.78483 0.0
C4922 C 0.93412 0.21347 0.77918 0.0
C4923 C 0.92289 0.21042 0.78359 0.0
C4924 C 0.91784 0.20247 0.79331 0.0
C4925 C 0.93939 0.22191 0.7688 0.0
C4926 C 0.93982 0.23283 0.76973 0.0
C4927 C 0.94412 0.21937 0.75817 0.0
C4928 C 0.94341 0.20778 0.75627 0.0
C4929 C 0.93244 0.19716 0.75647 0.0
C4930 C 0.93186 0.18627 0.75482 0.0
C4931 C 0.94219 0.18589 0.75287 0.0
C4932 C 0.95311 0.1964 0.75253 0.0
C4933 C 0.95374 0.20732 0.75419 0.0
H4934 H 0.94172 0.17744 0.7516 0.0
H4935 H 0.9465 0.28291 0.76623 0.0
H4936 H 0.73223 0.67631 0.72469 0.0
H4937 H 0.7479 0.68403 0.74052 0.0
H4938 H 0.75252 0.7189 0.73687 0.0
H4939 H 0.73702 0.71129 0.72076 0.0
H4940 H 0.77366 0.71948 0.73765 0.0
H4941 H 0.738 0.70233 0.76133 0.0
H4942 H 0.71813 0.68657 0.76742 0.0
H4943 H 0.73207 0.66425 0.77707 0.0
H4944 H 0.75201 0.67983 0.77088 0.0
H4945 H 0.80927 0.74423 0.79211 0.0
H4946 H 0.79371 0.73746 0.77617 0.0
H4947 H 0.78568 0.70145 0.7809 0.0
H4948 H 0.80091 0.70814 0.79716 0.0
H4949 H 0.7661 0.70195 0.77958 0.0
H4950 H 0.80154 0.71859 0.7554 0.0
H4951 H 0.82144 0.73408 0.74903 0.0
H4952 H 0.80805 0.757 0.74002 0.0
H4953 H 0.78809 0.74171 0.7465 0.0
C4954 C 0.73665 0.68565 0.72717 0.0
C4955 C 0.73338 0.6932 0.72147 0.0
C4956 C 0.74553 0.69002 0.7363 0.0
C4957 C 0.75128 0.70201 0.73997 0.0
C4958 C 0.74815 0.70961 0.7342 0.0
C4959 C 0.73924 0.70523 0.72508 0.0
C4960 C 0.76059 0.7066 0.74978 0.0
C4961 C 0.77198 0.71578 0.74688 0.0
C4962 C 0.75845 0.70156 0.76172 0.0
C4963 C 0.74648 0.69221 0.76553 0.0
C4964 C 0.73681 0.69403 0.76466 0.0
C4965 C 0.72554 0.68513 0.76815 0.0
C4966 C 0.72383 0.6744 0.7726 0.0
C4967 C 0.73341 0.67256 0.77361 0.0
C4968 C 0.7447 0.68143 0.77013 0.0
C4969 C 0.80426 0.7349 0.78962 0.0
C4970 C 0.80655 0.72677 0.79561 0.0
C4971 C 0.79539 0.73103 0.78051 0.0
C4972 C 0.78868 0.71897 0.77713 0.0
C4973 C 0.79081 0.71081 0.78326 0.0
C4974 C 0.79959 0.71466 0.79247 0.0
C4975 C 0.77924 0.71479 0.76743 0.0
C4976 C 0.76781 0.70569 0.77036 0.0
C4977 C 0.78137 0.71986 0.75549 0.0
C4978 C 0.79335 0.72905 0.75155 0.0
C4979 C 0.80286 0.72697 0.75215 0.0
C4980 C 0.81415 0.73571 0.7485 0.0
C4981 C 0.81602 0.74653 0.74416 0.0
C4982 C 0.80659 0.74862 0.74341 0.0
C4983 C 0.79529 0.73992 0.74705 0.0
H4984 H 0.82476 0.75328 0.74134 0.0
H4985 H 0.7151 0.66753 0.77529 0.0
H4986 H 0.72218 0.6443 0.63303 0.0
H4987 H 0.73066 0.63802 0.61654 0.0
H4988 H 0.70088 0.62978 0.59263 0.0
H4989 H 0.6921 0.63557 0.60926 0.0
H4990 H 0.70667 0.613 0.5907 0.0
H4991 H 0.72747 0.65556 0.58965 0.0
H4992 H 0.73928 0.67583 0.59837 0.0
H4993 H 0.76731 0.6693 0.60772 0.0
H4994 H 0.75559 0.64892 0.5992 0.0
H4995 H 0.7307 0.61211 0.53249 0.0
H4996 H 0.72259 0.61716 0.55009 0.0
H4997 H 0.75254 0.62367 0.57273 0.0
H4998 H 0.76096 0.61871 0.55502 0.0
H4999 H 0.74708 0.64103 0.57586 0.0
H5000 H 0.72639 0.59858 0.57602 0.0
H5001 H 0.71451 0.57843 0.56701 0.0
H5002 H 0.68617 0.58487 0.55905 0.0
H5003 H 0.69795 0.60513 0.56785 0.0
C5004 C 0.71734 0.64098 0.62434 0.0
C5005 C 0.70647 0.64049 0.62246 0.0
C5006 C 0.72227 0.63752 0.61486 0.0
C5007 C 0.7165 0.6336 0.60328 0.0
C5008 C 0.70552 0.63283 0.60147 0.0
C5009 C 0.70057 0.63625 0.61095 0.0
C5010 C 0.72195 0.63045 0.59299 0.0
C5011 C 0.71545 0.61917 0.58736 0.0
C5012 C 0.73352 0.63841 0.58882 0.0
C5013 C 0.7406 0.65068 0.5939 0.0
C5014 C 0.73611 0.65842 0.59365 0.0
C5015 C 0.7428 0.66993 0.59854 0.0
C5016 C 0.75402 0.67384 0.60363 0.0
C5017 C 0.75861 0.66626 0.60379 0.0
C5018 C 0.75195 0.65472 0.59893 0.0
C5019 C 0.73575 0.61471 0.54108 0.0
C5020 C 0.74677 0.61528 0.54213 0.0
C5021 C 0.73097 0.61752 0.55123 0.0
C5022 C 0.73692 0.62074 0.56274 0.0
C5023 C 0.74783 0.62126 0.56391 0.0
C5024 C 0.75263 0.61846 0.55376 0.0
C5025 C 0.73176 0.62361 0.57353 0.0
C5026 C 0.73832 0.63483 0.57924 0.0
C5027 C 0.72023 0.61561 0.57774 0.0
C5028 C 0.7131 0.60341 0.5725 0.0
C5029 C 0.71766 0.59573 0.57226 0.0
C5030 C 0.71094 0.58428 0.56721 0.0
C5031 C 0.69961 0.58038 0.56243 0.0
C5032 C 0.69496 0.58791 0.56274 0.0
C5033 C 0.70165 0.59937 0.56777 0.0
H5034 H 0.69442 0.57152 0.55852 0.0
H5035 H 0.75919 0.68276 0.60741 0.0
H5036 H 0.35119 0.07479 0.63212 0.0
H5037 H 0.35849 0.08975 0.61604 0.0
H5038 H 0.3719 0.07049 0.59571 0.0
H5039 H 0.36507 0.05572 0.61207 0.0
H5040 H 0.38772 0.0936 0.59628 0.0
H5041 H 0.34637 0.06976 0.58658 0.0
H5042 H 0.325 0.05959 0.59082 0.0
H5043 H 0.32783 0.09293 0.60017 0.0
H5044 H 0.34926 0.10329 0.59614 0.0
H5045 H 0.39692 0.12334 0.53932 0.0
H5046 H 0.38976 0.10854 0.55532 0.0
H5047 H 0.37794 0.12859 0.5767 0.0
H5048 H 0.38506 0.14362 0.56061 0.0
H5049 H 0.36123 0.10501 0.57543 0.0
H5050 H 0.40265 0.12879 0.58513 0.0
H5051 H 0.42399 0.13888 0.58077 0.0
H5052 H 0.42095 0.10548 0.57121 0.0
H5053 H 0.39955 0.0952 0.57535 0.0
C5054 C 0.3558 0.07378 0.6243 0.0
C5055 C 0.35756 0.06405 0.6234 0.0
C5056 C 0.35984 0.08228 0.61503 0.0
C5057 C 0.36561 0.08117 0.60458 0.0
C5058 C 0.36743 0.0715 0.60367 0.0
C5059 C 0.36342 0.06301 0.61297 0.0
C5060 C 0.36988 0.0902 0.59472 0.0
C5061 C 0.38189 0.09597 0.59159 0.0
C5062 C 0.36233 0.09349 0.5888 0.0
C5063 C 0.34944 0.08729 0.59117 0.0
C5064 C 0.34245 0.07491 0.58963 0.0
C5065 C 0.33033 0.06912 0.59198 0.0
C5066 C 0.32507 0.0756 0.59579 0.0
C5067 C 0.33192 0.08791 0.59723 0.0
C5068 C 0.34405 0.09375 0.5949 0.0
C5069 C 0.39276 0.12473 0.5473 0.0
C5070 C 0.39137 0.13471 0.54845 0.0
C5071 C 0.38872 0.11619 0.55653 0.0
C5072 C 0.38334 0.11747 0.56721 0.0
C5073 C 0.38201 0.1274 0.56849 0.0
C5074 C 0.38607 0.13597 0.55928 0.0
C5075 C 0.37906 0.10839 0.57701 0.0
C5076 C 0.36705 0.10262 0.58012 0.0
C5077 C 0.3866 0.10508 0.58288 0.0
C5078 C 0.39947 0.11124 0.58043 0.0
C5079 C 0.40651 0.1236 0.582 0.0
C5080 C 0.41862 0.12936 0.57959 0.0
C5081 C 0.42382 0.12283 0.57568 0.0
C5082 C 0.41691 0.11053 0.57422 0.0
C5083 C 0.40479 0.10473 0.57661 0.0
H5084 H 0.43319 0.1273 0.57382 0.0
H5085 H 0.31568 0.0711 0.59761 0.0
H5086 H 0.94473 0.28503 0.6143 0.0
H5087 H 0.92936 0.27792 0.59817 0.0
H5088 H 0.91597 0.29906 0.61437 0.0
H5089 H 0.93146 0.3064 0.63041 0.0
H5090 H 0.89833 0.27628 0.60892 0.0
H5091 H 0.93158 0.30781 0.58824 0.0
H5092 H 0.95212 0.3188 0.58086 0.0
H5093 H 0.94616 0.28849 0.5591 0.0
H5094 H 0.92562 0.27725 0.56649 0.0
H5095 H 0.85978 0.27045 0.55928 0.0
H5096 H 0.87543 0.27824 0.57521 0.0
H5097 H 0.89078 0.25938 0.55773 0.0
H5098 H 0.8753 0.25182 0.54163 0.0
H5099 H 0.90747 0.28114 0.56395 0.0
H5100 H 0.87461 0.24941 0.58458 0.0
H5101 H 0.85415 0.23792 0.59211 0.0
H5102 H 0.85938 0.26787 0.61407 0.0
H5103 H 0.87983 0.2796 0.60653 0.0
C5104 C 0.93864 0.28831 0.61434 0.0
C5105 C 0.93936 0.29632 0.62365 0.0
C5106 C 0.92982 0.2842 0.60514 0.0
C5107 C 0.92158 0.28802 0.60503 0.0
C5108 C 0.92224 0.29598 0.61431 0.0
C5109 C 0.93107 0.30013 0.62349 0.0
C5110 C 0.91215 0.28359 0.59535 0.0
C5111 C 0.90031 0.27748 0.59909 0.0
C5112 C 0.91477 0.28489 0.58253 0.0
C5113 C 0.92709 0.29165 0.57801 0.0
C5114 C 0.93467 0.30346 0.58196 0.0
C5115 C 0.94631 0.30974 0.57776 0.0
C5116 C 0.95045 0.30434 0.56954 0.0
C5117 C 0.94295 0.29265 0.56548 0.0
C5118 C 0.93131 0.28633 0.56966 0.0
C5119 C 0.86644 0.2679 0.55892 0.0
C5120 C 0.86615 0.26029 0.54941 0.0
C5121 C 0.87536 0.27233 0.56802 0.0
C5122 C 0.88416 0.26922 0.56779 0.0
C5123 C 0.88404 0.26183 0.55815 0.0
C5124 C 0.87515 0.25745 0.54901 0.0
C5125 C 0.89361 0.27381 0.5775 0.0
C5126 C 0.90546 0.27994 0.57377 0.0
C5127 C 0.891 0.27246 0.59034 0.0
C5128 C 0.87871 0.26542 0.59489 0.0
C5129 C 0.87136 0.25358 0.59093 0.0
C5130 C 0.85977 0.24702 0.59522 0.0
C5131 C 0.85545 0.25217 0.60353 0.0
C5132 C 0.86273 0.2639 0.60761 0.0
C5133 C 0.87432 0.2705 0.60334 0.0
H5134 H 0.84648 0.24707 0.60684 0.0
H5135 H 0.95947 0.30922 0.5663 0.0
H5136 H 0.34901 0.2798 0.63378 0.0
H5137 H 0.35568 0.27128 0.61767 0.0
H5138 H 0.38599 0.30584 0.61117 0.0
H5139 H 0.37905 0.31445 0.62701 0.0
H5140 H 0.37718 0.29598 0.59017 0.0
H5141 H 0.38792 0.28296 0.62633 0.0
H5142 H 0.38534 0.2738 0.64682 0.0
H5143 H 0.35851 0.24032 0.63151 0.0
H5144 H 0.36081 0.24932 0.61095 0.0
H5145 H 0.40449 0.27166 0.55172 0.0
H5146 H 0.40098 0.28061 0.57012 0.0
H5147 H 0.36526 0.25116 0.57183 0.0
H5148 H 0.36854 0.24234 0.55317 0.0
H5149 H 0.37866 0.25917 0.59562 0.0
H5150 H 0.36775 0.27373 0.55957 0.0
H5151 H 0.37161 0.28346 0.53927 0.0
H5152 H 0.40086 0.31505 0.55519 0.0
H5153 H 0.39728 0.30543 0.57555 0.0
C5154 C 0.35718 0.28554 0.62902 0.0
C5155 C 0.36355 0.29777 0.63166 0.0
C5156 C 0.36102 0.28066 0.61983 0.0
C5157 C 0.37146 0.28787 0.61331 0.0
C5158 C 0.37791 0.30009 0.61606 0.0
C5159 C 0.37396 0.305 0.62511 0.0
C5160 C 0.3753 0.28275 0.60319 0.0
C5161 C 0.37771 0.28806 0.59148 0.0
C5162 C 0.37588 0.27232 0.60477 0.0
C5163 C 0.37448 0.26685 0.61711 0.0
C5164 C 0.38141 0.27366 0.62735 0.0
C5165 C 0.38001 0.2685 0.63897 0.0
C5166 C 0.37175 0.25649 0.64047 0.0
C5167 C 0.3649 0.24962 0.63033 0.0
C5168 C 0.36626 0.25475 0.61869 0.0
C5169 C 0.39585 0.26714 0.55592 0.0
C5170 C 0.38664 0.25651 0.5507 0.0
C5171 C 0.3939 0.27222 0.56649 0.0
C5172 C 0.38283 0.26659 0.5722 0.0
C5173 C 0.37384 0.25565 0.56748 0.0
C5174 C 0.37572 0.25067 0.5568 0.0
C5175 C 0.38039 0.27237 0.58275 0.0
C5176 C 0.37824 0.26716 0.59447 0.0
C5177 C 0.38025 0.283 0.58126 0.0
C5178 C 0.38234 0.28881 0.56904 0.0
C5179 C 0.37508 0.28271 0.55871 0.0
C5180 C 0.3772 0.28821 0.5472 0.0
C5181 C 0.3865 0.29985 0.54593 0.0
C5182 C 0.39367 0.30602 0.55618 0.0
C5183 C 0.3916 0.30055 0.56771 0.0
H5184 H 0.38812 0.3041 0.53701 0.0
H5185 H 0.37068 0.25251 0.64948 0.0
H5186 H 0.69567 0.06333 0.61065 0.0
H5187 H 0.70175 0.07832 0.59465 0.0
H5188 H 0.73833 0.09214 0.6049 0.0
H5189 H 0.73227 0.07722 0.62106 0.0
H5190 H 0.73438 0.10977 0.60109 0.0
H5191 H 0.72601 0.07448 0.57877 0.0
H5192 H 0.71424 0.05351 0.57211 0.0
H5193 H 0.68748 0.05964 0.55702 0.0
H5194 H 0.69903 0.08062 0.56375 0.0
H5195 H 0.759 0.14135 0.54495 0.0
H5196 H 0.75305 0.12759 0.56222 0.0
H5197 H 0.71657 0.11705 0.55551 0.0
H5198 H 0.72235 0.13082 0.53847 0.0
H5199 H 0.72061 0.09792 0.55745 0.0
H5200 H 0.72979 0.1337 0.57975 0.0
H5201 H 0.74228 0.15469 0.58606 0.0
H5202 H 0.76851 0.14755 0.60069 0.0
H5203 H 0.75623 0.12653 0.5943 0.0
C5204 C 0.70501 0.06952 0.60944 0.0
C5205 C 0.7135 0.06905 0.61705 0.0
C5206 C 0.70848 0.07808 0.60029 0.0
C5207 C 0.72051 0.08625 0.59844 0.0
C5208 C 0.729 0.08593 0.60616 0.0
C5209 C 0.72553 0.07741 0.61539 0.0
C5210 C 0.72422 0.09509 0.58843 0.0
C5211 C 0.73149 0.10716 0.59152 0.0
C5212 C 0.7203 0.09172 0.57596 0.0
C5213 C 0.71333 0.0791 0.57188 0.0
C5214 C 0.71758 0.07134 0.57412 0.0
C5215 C 0.71095 0.05945 0.57032 0.0
C5216 C 0.70011 0.05524 0.56418 0.0
C5217 C 0.69588 0.06291 0.5618 0.0
C5218 C 0.70246 0.07481 0.5656 0.0
C5219 C 0.74972 0.13615 0.54718 0.0
C5220 C 0.74122 0.13712 0.5401 0.0
C5221 C 0.74634 0.12832 0.55707 0.0
C5222 C 0.73437 0.12129 0.56009 0.0
C5223 C 0.72586 0.12236 0.55325 0.0
C5224 C 0.72923 0.13028 0.54345 0.0
C5225 C 0.7307 0.11254 0.57015 0.0
C5226 C 0.72346 0.1005 0.56703 0.0
C5227 C 0.73476 0.11593 0.58254 0.0
C5228 C 0.74214 0.12856 0.58643 0.0
C5229 C 0.73826 0.13662 0.58421 0.0
C5230 C 0.7453 0.14852 0.58782 0.0
C5231 C 0.7562 0.15246 0.59374 0.0
C5232 C 0.76007 0.14449 0.59609 0.0
C5233 C 0.75307 0.13258 0.59248 0.0
H5234 H 0.76163 0.16168 0.59653 0.0
H5235 H 0.69499 0.04603 0.56124 0.0
H5236 H 0.91548 0.6429 0.6345 0.0
H5237 H 0.90056 0.63496 0.61786 0.0
H5238 H 0.92674 0.6374 0.59204 0.0
H5239 H 0.94169 0.64519 0.60866 0.0
H5240 H 0.91283 0.64563 0.58227 0.0
H5241 H 0.90723 0.61111 0.60411 0.0
H5242 H 0.9037 0.59893 0.62266 0.0
H5243 H 0.87073 0.59769 0.62856 0.0
H5244 H 0.87415 0.61 0.61012 0.0
H5245 H 0.87687 0.60877 0.53285 0.0
H5246 H 0.89106 0.61876 0.54984 0.0
H5247 H 0.86234 0.60998 0.57502 0.0
H5248 H 0.84811 0.59935 0.55821 0.0
H5249 H 0.87707 0.6058 0.58576 0.0
H5250 H 0.88167 0.63931 0.56374 0.0
H5251 H 0.88494 0.65184 0.54557 0.0
H5252 H 0.91918 0.65575 0.54045 0.0
H5253 H 0.91606 0.6431 0.5585 0.0
C5254 C 0.91805 0.64165 0.62531 0.0
C5255 C 0.92977 0.64462 0.62294 0.0
C5256 C 0.90952 0.63716 0.6158 0.0
C5257 C 0.91253 0.6355 0.60374 0.0
C5258 C 0.92425 0.63864 0.60128 0.0
C5259 C 0.93278 0.64312 0.61079 0.0
C5260 C 0.90342 0.63031 0.59371 0.0
C5261 C 0.90505 0.63687 0.58295 0.0
C5262 C 0.89311 0.61905 0.5948 0.0
C5263 C 0.891 0.61156 0.60581 0.0
C5264 C 0.89927 0.60831 0.60941 0.0
C5265 C 0.89728 0.60137 0.6199 0.0
C5266 C 0.88701 0.59757 0.6268 0.0
C5267 C 0.87869 0.60066 0.62321 0.0
C5268 C 0.88065 0.6076 0.61274 0.0
C5269 C 0.87361 0.60911 0.54199 0.0
C5270 C 0.86139 0.60343 0.54412 0.0
C5271 C 0.88172 0.61489 0.5517 0.0
C5272 C 0.87781 0.61537 0.56371 0.0
C5273 C 0.8656 0.6098 0.56584 0.0
C5274 C 0.85746 0.6038 0.55618 0.0
C5275 C 0.88645 0.62108 0.57417 0.0
C5276 C 0.88476 0.61461 0.58505 0.0
C5277 C 0.89664 0.63249 0.57323 0.0
C5278 C 0.89859 0.64018 0.56242 0.0
C5279 C 0.88987 0.64278 0.55869 0.0
C5280 C 0.8917 0.64991 0.54842 0.0
C5281 C 0.90225 0.65457 0.54185 0.0
C5282 C 0.91101 0.65213 0.54555 0.0
C5283 C 0.90922 0.64499 0.55581 0.0
H5284 H 0.90365 0.66009 0.53389 0.0
H5285 H 0.88549 0.5922 0.63492 0.0
H5286 H 0.95875 0.71167 0.71487 0.0
H5287 H 0.95203 0.72009 0.73108 0.0
H5288 H 0.94677 0.69216 0.75575 0.0
H5289 H 0.95302 0.68342 0.73944 0.0
H5290 H 0.9289 0.69645 0.75745 0.0
H5291 H 0.97147 0.71976 0.75803 0.0
H5292 H 0.99117 0.73227 0.74897 0.0
H5293 H 0.98175 0.75813 0.73909 0.0
H5294 H 0.96193 0.74569 0.74795 0.0
H5295 H 0.93085 0.72251 0.81637 0.0
H5296 H 0.93389 0.71337 0.79786 0.0
H5297 H 0.93825 0.74259 0.77583 0.0
H5298 H 0.93538 0.75186 0.79441 0.0
H5299 H 0.95559 0.73798 0.7717 0.0
H5300 H 0.9134 0.7152 0.77287 0.0
H5301 H 0.89392 0.70269 0.78236 0.0
H5302 H 0.90267 0.67579 0.78931 0.0
H5303 H 0.92228 0.68822 0.78004 0.0
C5304 C 0.95602 0.70723 0.72369 0.0
C5305 C 0.95651 0.69692 0.72588 0.0
C5306 C 0.95228 0.71211 0.73298 0.0
C5307 C 0.94905 0.70684 0.74468 0.0
C5308 C 0.94927 0.6964 0.7468 0.0
C5309 C 0.95297 0.69149 0.73751 0.0
C5310 C 0.94571 0.71233 0.75484 0.0
C5311 C 0.93477 0.7055 0.76064 0.0
C5312 C 0.95325 0.72423 0.75881 0.0
C5313 C 0.96518 0.73174 0.75353 0.0
C5314 C 0.97357 0.72807 0.75384 0.0
C5315 C 0.98476 0.73515 0.74876 0.0
C5316 C 0.9877 0.74597 0.74343 0.0
C5317 C 0.97946 0.74974 0.7432 0.0
C5318 C 0.96825 0.74268 0.74826 0.0
C5319 C 0.93225 0.72687 0.80753 0.0
C5320 C 0.9327 0.73779 0.80677 0.0
C5321 C 0.93396 0.72163 0.79696 0.0
C5322 C 0.93616 0.72723 0.78542 0.0
C5323 C 0.93651 0.7381 0.78462 0.0
C5324 C 0.9348 0.74334 0.7952 0.0
C5325 C 0.93881 0.72207 0.7744 0.0
C5326 C 0.94964 0.72897 0.76844 0.0
C5327 C 0.93118 0.71023 0.77033 0.0
C5328 C 0.91936 0.70269 0.77584 0.0
C5329 C 0.91121 0.70665 0.7765 0.0
C5330 C 0.90013 0.69957 0.78184 0.0
C5331 C 0.89707 0.68847 0.78646 0.0
C5332 C 0.90506 0.6844 0.78574 0.0
C5333 C 0.91615 0.69146 0.78043 0.0
H5334 H 0.88849 0.683 0.79058 0.0
H5335 H 0.99637 0.75144 0.7395 0.0
H5336 H 0.32089 0.2796 0.73944 0.0
H5337 H 0.31286 0.26382 0.75455 0.0
H5338 H 0.28395 0.24187 0.72943 0.0
H5339 H 0.29151 0.25794 0.71454 0.0
H5340 H 0.27584 0.24017 0.75169 0.0
H5341 H 0.3079 0.2373 0.73462 0.0
H5342 H 0.32843 0.24453 0.72817 0.0
H5343 H 0.34053 0.25476 0.76589 0.0
H5344 H 0.32009 0.24774 0.77255 0.0
H5345 H 0.25584 0.1893 0.78875 0.0
H5346 H 0.26443 0.20249 0.77106 0.0
H5347 H 0.29272 0.22812 0.79475 0.0
H5348 H 0.28427 0.21489 0.8124 0.0
H5349 H 0.30081 0.22655 0.77195 0.0
H5350 H 0.26874 0.23059 0.78844 0.0
H5351 H 0.24813 0.22314 0.79476 0.0
H5352 H 0.23601 0.21032 0.75755 0.0
H5353 H 0.25655 0.21754 0.75105 0.0
C5354 C 0.31274 0.27149 0.73715 0.0
C5355 C 0.30685 0.27011 0.72573 0.0
C5356 C 0.30825 0.26237 0.74575 0.0
C5357 C 0.29791 0.25154 0.74306 0.0
C5358 C 0.29199 0.25011 0.73169 0.0
C5359 C 0.2964 0.25929 0.72313 0.0
C5360 C 0.29307 0.24188 0.75229 0.0
C5361 C 0.28126 0.23705 0.75593 0.0
C5362 C 0.30016 0.23792 0.75803 0.0
C5363 C 0.31247 0.24207 0.75407 0.0
C5364 C 0.31495 0.24116 0.74153 0.0
C5365 C 0.32657 0.24521 0.73784 0.0
C5366 C 0.33578 0.25012 0.74661 0.0
C5367 C 0.33339 0.25096 0.75911 0.0
C5368 C 0.32178 0.24693 0.76285 0.0
C5369 C 0.26402 0.19764 0.7901 0.0
C5370 C 0.26947 0.20103 0.80191 0.0
C5371 C 0.26888 0.2052 0.78002 0.0
C5372 C 0.27915 0.21634 0.78162 0.0
C5373 C 0.28481 0.21956 0.7933 0.0
C5374 C 0.27998 0.212 0.80337 0.0
C5375 C 0.28366 0.22496 0.77136 0.0
C5376 C 0.29539 0.2296 0.76757 0.0
C5377 C 0.27649 0.22872 0.76543 0.0
C5378 C 0.26416 0.2245 0.7693 0.0
C5379 C 0.26167 0.22611 0.78163 0.0
C5380 C 0.25001 0.22194 0.78524 0.0
C5381 C 0.24077 0.21624 0.77657 0.0
C5382 C 0.24318 0.21472 0.76426 0.0
C5383 C 0.25483 0.21886 0.76061 0.0
H5384 H 0.23174 0.21301 0.77938 0.0
H5385 H 0.34478 0.25326 0.74373 0.0
H5386 H 0.72995 0.03331 0.7311 0.0
H5387 H 0.74516 0.0406 0.74748 0.0
H5388 H 0.77204 0.06005 0.72038 0.0
H5389 H 0.75684 0.05276 0.70392 0.0
H5390 H 0.7775 0.04671 0.73694 0.0
H5391 H 0.76444 0.07502 0.73843 0.0
H5392 H 0.74958 0.08122 0.73967 0.0
H5393 H 0.73847 0.06473 0.77515 0.0
H5394 H 0.75315 0.05827 0.77404 0.0
H5395 H 0.82309 0.07629 0.78174 0.0
H5396 H 0.80965 0.07284 0.76432 0.0
H5397 H 0.78014 0.05835 0.78938 0.0
H5398 H 0.79365 0.06237 0.80691 0.0
H5399 H 0.77676 0.0705 0.77285 0.0
H5400 H 0.78785 0.04071 0.77126 0.0
H5401 H 0.80165 0.03314 0.77043 0.0
H5402 H 0.81521 0.05066 0.73582 0.0
H5403 H 0.80159 0.05847 0.73654 0.0
C5404 C 0.73911 0.03908 0.72863 0.0
C5405 C 0.74223 0.04247 0.71624 0.0
C5406 C 0.74777 0.0433 0.73799 0.0
C5407 C 0.7597 0.05093 0.73514 0.0
C5408 C 0.76287 0.0542 0.72276 0.0
C5409 C 0.75419 0.05008 0.7134 0.0
C5410 C 0.76885 0.05537 0.7451 0.0
C5411 C 0.77749 0.05209 0.7447 0.0
C5412 C 0.76859 0.06211 0.75536 0.0
C5413 C 0.75983 0.06608 0.7561 0.0
C5414 C 0.75877 0.07264 0.74645 0.0
C5415 C 0.75039 0.07622 0.74714 0.0
C5416 C 0.74307 0.07335 0.75747 0.0
C5417 C 0.74414 0.06694 0.76715 0.0
C5418 C 0.7525 0.06333 0.7665 0.0
C5419 C 0.81378 0.07263 0.78358 0.0
C5420 C 0.80943 0.06975 0.79574 0.0
C5421 C 0.80607 0.07053 0.77358 0.0
C5422 C 0.79383 0.06514 0.77548 0.0
C5423 C 0.78953 0.06253 0.78765 0.0
C5424 C 0.79725 0.06482 0.79766 0.0
C5425 C 0.78542 0.06176 0.76481 0.0
C5426 C 0.77688 0.06522 0.76506 0.0
C5427 C 0.78565 0.05501 0.75451 0.0
C5428 C 0.7938 0.05027 0.75402 0.0
C5429 C 0.79383 0.04301 0.76352 0.0
C5430 C 0.80161 0.03867 0.76306 0.0
C5431 C 0.80932 0.04144 0.7531 0.0
C5432 C 0.80925 0.04853 0.74354 0.0
C5433 C 0.8015 0.05292 0.74397 0.0
H5434 H 0.81534 0.03807 0.75276 0.0
H5435 H 0.73658 0.07613 0.75798 0.0
H5436 H 0.04726 0.31426 0.01992 0.0
H5437 H 0.0604 0.30857 0.02991 0.0
H5438 H 0.07119 0.33697 0.05689 0.0
H5439 H 0.05806 0.34274 0.0469 0.0
H5440 H 0.09017 0.33474 0.04692 0.0
H5441 H 0.05228 0.31072 0.06576 0.0
H5442 H 0.03073 0.29693 0.06572 0.0
H5443 H 0.03534 0.27073 0.04626 0.0
H5444 H 0.05692 0.28444 0.04602 0.0
H5445 H 0.12459 0.31486 0.08924 0.0
H5446 H 0.11124 0.32446 0.07806 0.0
H5447 H 0.08494 0.28603 0.05537 0.0
H5448 H 0.09739 0.27535 0.06627 0.0
H5449 H 0.07286 0.29455 0.06451 0.0
H5450 H 0.10985 0.31799 0.04404 0.0
H5451 H 0.13137 0.33154 0.04242 0.0
H5452 H 0.12862 0.35836 0.06298 0.0
H5453 H 0.1071 0.34492 0.06485 0.0
C5454 C 0.05254 0.31938 0.02789 0.0
C5455 C 0.05163 0.32893 0.03265 0.0
C5456 C 0.05997 0.31607 0.03363 0.0
C5457 C 0.06668 0.32229 0.04419 0.0
C5458 C 0.06606 0.33205 0.04877 0.0
C5459 C 0.05852 0.33528 0.0431 0.0
C5460 C 0.07412 0.31841 0.05058 0.0
C5461 C 0.08641 0.32603 0.05097 0.0
C5462 C 0.06918 0.30694 0.05555 0.0
C5463 C 0.05621 0.29865 0.05578 0.0
C5464 C 0.04869 0.30205 0.06139 0.0
C5465 C 0.03647 0.29425 0.06143 0.0
C5466 C 0.03167 0.28297 0.05597 0.0
C5467 C 0.03908 0.27947 0.05048 0.0
C5468 C 0.0513 0.28725 0.05039 0.0
C5469 C 0.11763 0.30973 0.08251 0.0
C5470 C 0.11099 0.29338 0.08061 0.0
C5471 C 0.10896 0.31546 0.07584 0.0
C5472 C 0.09629 0.30617 0.06594 0.0
C5473 C 0.09229 0.29117 0.06169 0.0
C5474 C 0.10035 0.28462 0.06791 0.0
C5475 C 0.08901 0.31081 0.06072 0.0
C5476 C 0.07669 0.3033 0.06054 0.0
C5477 C 0.09396 0.32232 0.0558 0.0
C5478 C 0.10689 0.33039 0.05473 0.0
C5479 C 0.11385 0.32675 0.0483 0.0
C5480 C 0.12605 0.33441 0.04732 0.0
C5481 C 0.13137 0.34579 0.05264 0.0
C5482 C 0.12449 0.34954 0.0589 0.0
C5483 C 0.1123 0.34191 0.05991 0.0
H5484 H 0.14081 0.35171 0.05187 0.0
H5485 H 0.0222 0.27694 0.05601 0.0
H5486 H 0.66748 0.72015 0.03205 0.0
H5487 H 0.67681 0.7393 0.04298 0.0
H5488 H 0.68195 0.72342 0.07542 0.0
H5489 H 0.67341 0.7044 0.06439 0.0
H5490 H 0.67143 0.74083 0.07742 0.0
H5491 H 0.70415 0.73581 0.0632 0.0
H5492 H 0.71467 0.73147 0.04692 0.0
H5493 H 0.71751 0.76007 0.02521 0.0
H5494 H 0.70682 0.76445 0.04129 0.0
H5495 H 0.71093 0.79418 0.11941 0.0
H5496 H 0.6977 0.77162 0.10642 0.0
H5497 H 0.71608 0.79026 0.06587 0.0
H5498 H 0.72988 0.81322 0.07787 0.0
H5499 H 0.71278 0.77032 0.06669 0.0
H5500 H 0.6809 0.77612 0.07855 0.0
H5501 H 0.66891 0.78081 0.09254 0.0
H5502 H 0.66266 0.75188 0.11586 0.0
H5503 H 0.67473 0.7471 0.10206 0.0
C5504 C 0.67067 0.72068 0.04146 0.0
C5505 C 0.66974 0.71065 0.04725 0.0
C5506 C 0.67589 0.73163 0.04773 0.0
C5507 C 0.68004 0.7327 0.05996 0.0
C5508 C 0.6787 0.72269 0.06598 0.0
C5509 C 0.67373 0.71179 0.05965 0.0
C5510 C 0.68638 0.74443 0.06622 0.0
C5511 C 0.68052 0.74728 0.07523 0.0
C5512 C 0.69804 0.75291 0.06295 0.0
C5513 C 0.70456 0.75035 0.05336 0.0
C5514 C 0.7069 0.74109 0.05489 0.0
C5515 C 0.71292 0.73864 0.04572 0.0
C5516 C 0.71672 0.74546 0.03502 0.0
C5517 C 0.71454 0.75477 0.03349 0.0
C5518 C 0.70851 0.75724 0.04263 0.0
C5519 C 0.71212 0.79334 0.10958 0.0
C5520 C 0.72018 0.80649 0.09951 0.0
C5521 C 0.70342 0.77948 0.10126 0.0
C5522 C 0.70466 0.77858 0.08457 0.0
C5523 C 0.71522 0.7912 0.07575 0.0
C5524 C 0.72431 0.80543 0.08323 0.0
C5525 C 0.69789 0.76694 0.07806 0.0
C5526 C 0.70367 0.76404 0.06894 0.0
C5527 C 0.68604 0.75853 0.08103 0.0
C5528 C 0.67888 0.76141 0.08941 0.0
C5529 C 0.67705 0.77083 0.08672 0.0
C5530 C 0.67022 0.77348 0.0946 0.0
C5531 C 0.66507 0.76668 0.10511 0.0
C5532 C 0.66669 0.75717 0.10774 0.0
C5533 C 0.67351 0.75448 0.09989 0.0
H5534 H 0.6598 0.76876 0.1112 0.0
H5535 H 0.72138 0.74355 0.02793 0.0
H5536 H 0.28912 0.97272 0.05336 0.0
H5537 H 0.27012 0.96172 0.06362 0.0
H5538 H 0.26274 0.92999 0.04335 0.0
H5539 H 0.28188 0.94099 0.03303 0.0
H5540 H 0.244 0.93321 0.04297 0.0
H5541 H 0.26993 0.93304 0.0741 0.0
H5542 H 0.28743 0.94163 0.08799 0.0
H5543 H 0.27576 0.96329 0.10605 0.0
H5544 H 0.25827 0.95496 0.09215 0.0
H5545 H 0.19294 0.89689 0.07883 0.0
H5546 H 0.21251 0.90528 0.06947 0.0
H5547 H 0.22297 0.93916 0.08677 0.0
H5548 H 0.20343 0.93079 0.09619 0.0
H5549 H 0.24021 0.93325 0.08884 0.0
H5550 H 0.2151 0.93439 0.05676 0.0
H5551 H 0.19765 0.92593 0.0428 0.0
H5552 H 0.20789 0.90239 0.02652 0.0
H5553 H 0.22532 0.9106 0.04052 0.0
C5554 C 0.28357 0.96335 0.05123 0.0
C5555 C 0.28708 0.9577 0.04246 0.0
C5556 C 0.27268 0.95708 0.05709 0.0
C5557 C 0.26508 0.94499 0.05439 0.0
C5558 C 0.2685 0.93931 0.0456 0.0
C5559 C 0.27941 0.94561 0.03969 0.0
C5560 C 0.25342 0.93847 0.0605 0.0
C5561 C 0.24318 0.93301 0.05301 0.0
C5562 C 0.25234 0.93844 0.07359 0.0
C5563 C 0.26283 0.94344 0.08201 0.0
C5564 C 0.27114 0.9397 0.08097 0.0
C5565 C 0.28105 0.94451 0.08886 0.0
C5566 C 0.28272 0.95302 0.09788 0.0
C5567 C 0.27446 0.95671 0.09905 0.0
C5568 C 0.26454 0.95193 0.09118 0.0
C5569 C 0.19946 0.9061 0.08071 0.0
C5570 C 0.19672 0.91317 0.08834 0.0
C5571 C 0.2106 0.91089 0.07532 0.0
C5572 C 0.21916 0.92285 0.07738 0.0
C5573 C 0.21649 0.92989 0.08511 0.0
C5574 C 0.20535 0.92511 0.09047 0.0
C5575 C 0.23082 0.92812 0.07131 0.0
C5576 C 0.24106 0.93335 0.07881 0.0
C5577 C 0.23189 0.92793 0.05823 0.0
C5578 C 0.22144 0.92301 0.04979 0.0
C5579 C 0.21357 0.92734 0.05028 0.0
C5580 C 0.2037 0.9226 0.04235 0.0
C5581 C 0.20164 0.9136 0.03381 0.0
C5582 C 0.20948 0.90934 0.03316 0.0
C5583 C 0.21936 0.91404 0.04109 0.0
H5584 H 0.19399 0.90995 0.02767 0.0
H5585 H 0.2904 0.95673 0.10398 0.0
H5586 H 0.3309 0.03796 0.96066 0.0
H5587 H 0.32495 0.05021 0.94933 0.0
H5588 H 0.32119 0.06481 0.98402 0.0
H5589 H 0.32714 0.05259 0.99541 0.0
H5590 H 0.30261 0.0587 0.96854 0.0
H5591 H 0.34531 0.0805 0.96546 0.0
H5592 H 0.36464 0.08284 0.9601 0.0
H5593 H 0.35345 0.074 0.92196 0.0
H5594 H 0.334 0.07146 0.92713 0.0
H5595 H 0.30077 0.10876 0.94797 0.0
H5596 H 0.30505 0.0946 0.95778 0.0
H5597 H 0.31236 0.08488 0.92183 0.0
H5598 H 0.30877 0.09954 0.9121 0.0
H5599 H 0.32837 0.08733 0.93697 0.0
H5600 H 0.28621 0.0663 0.93917 0.0
H5601 H 0.26651 0.06326 0.944 0.0
H5602 H 0.27584 0.06954 0.98278 0.0
H5603 H 0.29565 0.07277 0.97818 0.0
C5604 C 0.32894 0.04388 0.96587 0.0
C5605 C 0.32954 0.04434 0.97894 0.0
C5606 C 0.3255 0.05085 0.95938 0.0
C5607 C 0.32272 0.0585 0.96583 0.0
C5608 C 0.32327 0.05894 0.97887 0.0
C5609 C 0.32666 0.05195 0.98536 0.0
C5610 C 0.3192 0.06604 0.95902 0.0
C5611 C 0.30828 0.06505 0.96172 0.0
C5612 C 0.32643 0.07404 0.94983 0.0
C5613 C 0.33816 0.07568 0.94671 0.0
C5614 C 0.34695 0.07898 0.95595 0.0
C5615 C 0.35793 0.08035 0.95294 0.0
C5616 C 0.36026 0.07854 0.9407 0.0
C5617 C 0.35163 0.07539 0.93144 0.0
C5618 C 0.34063 0.07399 0.9344 0.0
C5619 C 0.30313 0.10347 0.94216 0.0
C5620 C 0.30416 0.10509 0.92925 0.0
C5621 C 0.30552 0.09533 0.94776 0.0
C5622 C 0.30878 0.08844 0.94053 0.0
C5623 C 0.30978 0.09001 0.92761 0.0
C5624 C 0.30761 0.09833 0.92203 0.0
C5625 C 0.31177 0.08009 0.94654 0.0
C5626 C 0.32261 0.08092 0.9437 0.0
C5627 C 0.30439 0.07185 0.9555 0.0
C5628 C 0.29246 0.06987 0.95831 0.0
C5629 C 0.28409 0.06711 0.94872 0.0
C5630 C 0.2729 0.06534 0.95142 0.0
C5631 C 0.26993 0.06623 0.96368 0.0
C5632 C 0.27815 0.06886 0.97328 0.0
C5633 C 0.28936 0.07065 0.97064 0.0
H5634 H 0.26126 0.06486 0.96575 0.0
H5635 H 0.36876 0.0796 0.93839 0.0
H5636 H 0.97055 0.27397 0.98379 0.0
H5637 H 0.96064 0.25598 0.97094 0.0
H5638 H 0.93757 0.26727 0.95566 0.0
H5639 H 0.94721 0.28518 0.96884 0.0
H5640 H 0.92564 0.24355 0.96023 0.0
H5641 H 0.96099 0.27118 0.93953 0.0
H5642 H 0.98233 0.28539 0.9376 0.0
H5643 H 0.99 0.25794 0.94576 0.0
H5644 H 0.9687 0.24359 0.94794 0.0
H5645 H 0.90245 0.20168 0.90286 0.0
H5646 H 0.91213 0.22169 0.92013 0.0
H5647 H 0.94314 0.21287 0.93473 0.0
H5648 H 0.93429 0.19261 0.91796 0.0
H5649 H 0.95066 0.23575 0.93171 0.0
H5650 H 0.91584 0.20903 0.95487 0.0
H5651 H 0.89457 0.19474 0.95746 0.0
H5652 H 0.88613 0.22051 0.94452 0.0
H5653 H 0.90737 0.23492 0.9418 0.0
C5654 C 0.9632 0.27253 0.9779 0.0
C5655 C 0.95968 0.28104 0.97733 0.0
C5656 C 0.95763 0.26229 0.97046 0.0
C5657 C 0.9485 0.26038 0.9622 0.0
C5658 C 0.94465 0.26861 0.96192 0.0
C5659 C 0.95022 0.27887 0.96939 0.0
C5660 C 0.9433 0.24999 0.95356 0.0
C5661 C 0.93108 0.24194 0.95386 0.0
C5662 C 0.95043 0.24776 0.94541 0.0
C5663 C 0.96325 0.25634 0.94402 0.0
C5664 C 0.96723 0.26819 0.94102 0.0
C5665 C 0.97932 0.27627 0.93986 0.0
C5666 C 0.98752 0.27258 0.94159 0.0
C5667 C 0.98364 0.26079 0.94444 0.0
C5668 C 0.97156 0.25268 0.94563 0.0
C5669 C 0.91022 0.204 0.90846 0.0
C5670 C 0.91606 0.19374 0.91029 0.0
C5671 C 0.91591 0.21603 0.91969 0.0
C5672 C 0.92806 0.21889 0.92995 0.0
C5673 C 0.93553 0.21051 0.92884 0.0
C5674 C 0.93051 0.19829 0.91797 0.0
C5675 C 0.93303 0.22928 0.93845 0.0
C5676 C 0.94521 0.23735 0.93809 0.0
C5677 C 0.92588 0.23157 0.94646 0.0
C5678 C 0.91314 0.22295 0.94795 0.0
C5679 C 0.90943 0.2116 0.95251 0.0
C5680 C 0.89739 0.2035 0.95403 0.0
C5681 C 0.889 0.2067 0.95111 0.0
C5682 C 0.89264 0.21803 0.94673 0.0
C5683 C 0.90467 0.22617 0.94521 0.0
H5684 H 0.87969 0.20041 0.95227 0.0
H5685 H 0.99687 0.27884 0.94069 0.0
H5686 H 0.71296 0.6564 0.97986 0.0
H5687 H 0.73121 0.66383 0.96818 0.0
H5688 H 0.73403 0.69806 0.96592 0.0
H5689 H 0.71537 0.69047 0.97666 0.0
H5690 H 0.7397 0.69312 0.94489 0.0
H5691 H 0.7506 0.69129 0.98738 0.0
H5692 H 0.7493 0.68155 0.00725 0.0
H5693 H 0.75712 0.65714 0.98864 0.0
H5694 H 0.75832 0.66666 0.96862 0.0
H5695 H 0.80057 0.72957 0.93199 0.0
H5696 H 0.78101 0.71975 0.94144 0.0
H5697 H 0.78003 0.68632 0.93943 0.0
H5698 H 0.79975 0.69618 0.93026 0.0
H5699 H 0.77302 0.6895 0.96157 0.0
H5700 H 0.76352 0.69273 0.91916 0.0
H5701 H 0.76527 0.70318 0.89967 0.0
H5702 H 0.75526 0.72577 0.91866 0.0
H5703 H 0.7536 0.71556 0.9383 0.0
C5704 C 0.71735 0.66546 0.97673 0.0
C5705 C 0.71268 0.67284 0.97935 0.0
C5706 C 0.7279 0.66975 0.97019 0.0
C5707 C 0.73415 0.68159 0.96636 0.0
C5708 C 0.72943 0.68892 0.96882 0.0
C5709 C 0.71881 0.68459 0.97515 0.0
C5710 C 0.74559 0.68642 0.95979 0.0
C5711 C 0.74702 0.69242 0.94862 0.0
C5712 C 0.75507 0.68528 0.96445 0.0
C5713 C 0.75443 0.67961 0.97649 0.0
C5714 C 0.75196 0.6838 0.98752 0.0
C5715 C 0.75126 0.67833 0.9988 0.0
C5716 C 0.7531 0.66871 0.9992 0.0
C5717 C 0.75568 0.66458 0.98831 0.0
C5718 C 0.75638 0.67001 0.977 0.0
C5719 C 0.7961 0.7201 0.9334 0.0
C5720 C 0.80154 0.71358 0.93007 0.0
C5721 C 0.78493 0.71449 0.93879 0.0
C5722 C 0.77895 0.70225 0.94091 0.0
C5723 C 0.78443 0.69575 0.93776 0.0
C5724 C 0.79564 0.70137 0.93244 0.0
C5725 C 0.76716 0.69634 0.94681 0.0
C5726 C 0.76566 0.69012 0.95782 0.0
C5727 C 0.75765 0.69737 0.94206 0.0
C5728 C 0.75851 0.70343 0.93022 0.0
C5729 C 0.76176 0.69997 0.91919 0.0
C5730 C 0.76273 0.70585 0.90812 0.0
C5731 C 0.7604 0.71515 0.90793 0.0
C5732 C 0.75706 0.71857 0.91881 0.0
C5733 C 0.75609 0.71273 0.92992 0.0
H5734 H 0.76117 0.71969 0.89935 0.0
H5735 H 0.75254 0.66448 0.00795 0.0
H5736 H 0.97739 0.69884 0.98156 0.0
H5737 H 0.96632 0.70704 0.97183 0.0
H5738 H 0.93483 0.67247 0.97134 0.0
H5739 H 0.94582 0.66418 0.98125 0.0
H5740 H 0.93781 0.68399 0.94936 0.0
H5741 H 0.93798 0.6925 0.99282 0.0
H5742 H 0.94688 0.70018 0.01355 0.0
H5743 H 0.96719 0.73527 0.9991 0.0
H5744 H 0.95853 0.72777 0.97823 0.0
H5745 H 0.89539 0.70232 0.94139 0.0
H5746 H 0.90723 0.6939 0.94869 0.0
H5747 H 0.93867 0.72848 0.94779 0.0
H5748 H 0.92686 0.73694 0.94035 0.0
H5749 H 0.93595 0.71709 0.97009 0.0
H5750 H 0.93515 0.7085 0.92664 0.0
H5751 H 0.92593 0.70067 0.90606 0.0
H5752 H 0.90642 0.66557 0.92064 0.0
H5753 H 0.91539 0.67321 0.94137 0.0
C5754 C 0.96808 0.69298 0.97952 0.0
C5755 C 0.96246 0.68087 0.98232 0.0
C5756 C 0.96178 0.69768 0.9739 0.0
C5757 C 0.94973 0.69039 0.97099 0.0
C5758 C 0.94413 0.67825 0.9735 0.0
C5759 C 0.95043 0.67352 0.97915 0.0
C5760 C 0.94295 0.69551 0.9655 0.0
C5761 C 0.93727 0.69112 0.95395 0.0
C5762 C 0.94248 0.705 0.97139 0.0
C5763 C 0.9477 0.70955 0.98393 0.0
C5764 C 0.94442 0.70184 0.99404 0.0
C5765 C 0.94941 0.70616 0.00582 0.0
C5766 C 0.95762 0.7182 0.00763 0.0
C5767 C 0.96084 0.72594 0.99768 0.0
C5768 C 0.95589 0.72166 0.98587 0.0
C5769 C 0.90485 0.70809 0.9426 0.0
C5770 C 0.91021 0.72028 0.94033 0.0
C5771 C 0.9116 0.70327 0.94674 0.0
C5772 C 0.92382 0.71056 0.94873 0.0
C5773 C 0.92924 0.72271 0.94631 0.0
C5774 C 0.92251 0.72752 0.94205 0.0
C5775 C 0.93082 0.70558 0.95394 0.0
C5776 C 0.93653 0.70999 0.96546 0.0
C5777 C 0.93126 0.69609 0.94805 0.0
C5778 C 0.92586 0.69145 0.93559 0.0
C5779 C 0.92881 0.69913 0.92549 0.0
C5780 C 0.92365 0.69472 0.91379 0.0
C5781 C 0.91557 0.68264 0.91205 0.0
C5782 C 0.91266 0.67493 0.922 0.0
C5783 C 0.91779 0.67929 0.93373 0.0
H5784 H 0.91158 0.67924 0.90298 0.0
H5785 H 0.96147 0.72153 0.01676 0.0
H5786 H 0.3221 0.29311 0.9541 0.0
H5787 H 0.31179 0.27346 0.94436 0.0
H5788 H 0.33209 0.26291 0.96683 0.0
H5789 H 0.34288 0.28278 0.97623 0.0
H5790 H 0.3287 0.25353 0.94361 0.0
H5791 H 0.30449 0.25657 0.97545 0.0
H5792 H 0.29401 0.26542 0.98589 0.0
H5793 H 0.27297 0.25949 0.95298 0.0
H5794 H 0.28344 0.25075 0.94228 0.0
H5795 H 0.29027 0.19133 0.94599 0.0
H5796 H 0.30316 0.2126 0.94982 0.0
H5797 H 0.28029 0.21955 0.927 0.0
H5798 H 0.26721 0.19821 0.92339 0.0
H5799 H 0.28511 0.23132 0.94838 0.0
H5800 H 0.30808 0.2263 0.91722 0.0
H5801 H 0.31835 0.21707 0.90716 0.0
H5802 H 0.3416 0.22637 0.93883 0.0
H5803 H 0.33134 0.2355 0.94917 0.0
C5804 C 0.32461 0.28674 0.95677 0.0
C5805 C 0.33329 0.28954 0.96604 0.0
C5806 C 0.31861 0.27545 0.95127 0.0
C5807 C 0.32101 0.26665 0.95503 0.0
C5808 C 0.33004 0.26955 0.96383 0.0
C5809 C 0.33612 0.28088 0.96929 0.0
C5810 C 0.31364 0.25425 0.95038 0.0
C5811 C 0.31918 0.24863 0.94472 0.0
C5812 C 0.30118 0.24795 0.95158 0.0
C5813 C 0.29483 0.25313 0.95803 0.0
C5814 C 0.29768 0.25723 0.97041 0.0
C5815 C 0.29174 0.26222 0.97638 0.0
C5816 C 0.28285 0.26305 0.97009 0.0
C5817 C 0.27987 0.25886 0.95783 0.0
C5818 C 0.2858 0.25389 0.95182 0.0
C5819 C 0.28813 0.19743 0.94161 0.0
C5820 C 0.27787 0.19315 0.93421 0.0
C5821 C 0.29551 0.20958 0.94376 0.0
C5822 C 0.2928 0.2177 0.93854 0.0
C5823 C 0.2826 0.21345 0.93105 0.0
C5824 C 0.27518 0.20128 0.92893 0.0
C5825 C 0.30015 0.23054 0.94165 0.0
C5826 C 0.29461 0.23624 0.94709 0.0
C5827 C 0.31259 0.23688 0.94026 0.0
C5828 C 0.31888 0.23151 0.93401 0.0
C5829 C 0.31533 0.22631 0.92208 0.0
C5830 C 0.32116 0.2211 0.91632 0.0
C5831 C 0.33061 0.22111 0.92236 0.0
C5832 C 0.33428 0.22636 0.93416 0.0
C5833 C 0.32846 0.23157 0.93997 0.0
H5834 H 0.33511 0.21707 0.91789 0.0
H5835 H 0.27826 0.26691 0.97473 0.0
H5836 H 0.71194 0.04228 0.96594 0.0
H5837 H 0.73045 0.05044 0.9546 0.0
H5838 H 0.7492 0.05327 0.98868 0.0
H5839 H 0.73073 0.04544 0.0002 0.0
H5840 H 0.76215 0.07221 0.9733 0.0
H5841 H 0.74061 0.02971 0.97034 0.0
H5842 H 0.72309 0.01007 0.96603 0.0
H5843 H 0.72276 0.0194 0.92798 0.0
H5844 H 0.74017 0.03918 0.93212 0.0
H5845 H 0.81226 0.07496 0.94404 0.0
H5846 H 0.79493 0.06911 0.95708 0.0
H5847 H 0.77353 0.06322 0.92423 0.0
H5848 H 0.79072 0.06875 0.91121 0.0
H5849 H 0.76228 0.04577 0.93989 0.0
H5850 H 0.78371 0.08842 0.94289 0.0
H5851 H 0.80111 0.10813 0.94726 0.0
H5852 H 0.80174 0.09859 0.98517 0.0
H5853 H 0.78442 0.07876 0.98097 0.0
C5854 C 0.72003 0.04493 0.9711 0.0
C5855 C 0.71984 0.04311 0.98396 0.0
C5856 C 0.73059 0.04949 0.96458 0.0
C5857 C 0.74114 0.05224 0.97077 0.0
C5858 C 0.74113 0.05112 0.98372 0.0
C5859 C 0.73057 0.04656 0.99026 0.0
C5860 C 0.75196 0.05547 0.96361 0.0
C5861 C 0.76224 0.06639 0.96609 0.0
C5862 C 0.75201 0.04791 0.95413 0.0
C5863 C 0.74163 0.03596 0.95157 0.0
C5864 C 0.73675 0.0276 0.96108 0.0
C5865 C 0.72685 0.01644 0.95866 0.0
C5866 C 0.7218 0.0135 0.94674 0.0
C5867 C 0.72667 0.0217 0.93721 0.0
C5868 C 0.73656 0.03288 0.93958 0.0
C5869 C 0.80385 0.07244 0.93964 0.0
C5870 C 0.80288 0.07254 0.92663 0.0
C5871 C 0.79398 0.06915 0.94708 0.0
C5872 C 0.78298 0.06594 0.94164 0.0
C5873 C 0.78194 0.06574 0.92864 0.0
C5874 C 0.79177 0.06895 0.92121 0.0
C5875 C 0.77247 0.06262 0.9494 0.0
C5876 C 0.76222 0.05162 0.94709 0.0
C5877 C 0.77248 0.07012 0.95902 0.0
C5878 C 0.78285 0.08207 0.96158 0.0
C5879 C 0.78761 0.09049 0.95213 0.0
C5880 C 0.79745 0.10169 0.95458 0.0
C5881 C 0.80255 0.1046 0.96648 0.0
C5882 C 0.79779 0.09632 0.97596 0.0
C5883 C 0.78796 0.08511 0.97355 0.0
H5884 H 0.81017 0.11327 0.96836 0.0
H5885 H 0.71413 0.00485 0.94489 0.0
H5886 H 0.6645 0.94203 0.02992 0.0
H5887 H 0.67234 0.93089 0.0404 0.0
H5888 H 0.69619 0.96212 0.06196 0.0
H5889 H 0.68834 0.97323 0.05167 0.0
H5890 H 0.70753 0.95189 0.05143 0.0
H5891 H 0.6724 0.93938 0.07528 0.0
H5892 H 0.65102 0.93095 0.07845 0.0
H5893 H 0.644 0.89806 0.06159 0.0
H5894 H 0.66534 0.90635 0.05815 0.0
H5895 H 0.72989 0.92573 0.09166 0.0
H5896 H 0.71956 0.93577 0.08441 0.0
H5897 H 0.69476 0.90422 0.06384 0.0
H5898 H 0.70487 0.89406 0.07136 0.0
H5899 H 0.68362 0.91453 0.07424 0.0
H5900 H 0.71835 0.927 0.0497 0.0
H5901 H 0.73965 0.93523 0.04615 0.0
H5902 H 0.74729 0.96805 0.06369 0.0
H5903 H 0.72603 0.95995 0.06752 0.0
C5904 C 0.67129 0.94646 0.03702 0.0
C5905 C 0.67587 0.95854 0.03988 0.0
C5906 C 0.67576 0.9401 0.04299 0.0
C5907 C 0.68483 0.94568 0.05198 0.0
C5908 C 0.68924 0.95766 0.055 0.0
C5909 C 0.68478 0.96401 0.04907 0.0
C5910 C 0.69014 0.93924 0.05785 0.0
C5911 C 0.70233 0.94381 0.05658 0.0
C5912 C 0.68329 0.92854 0.06427 0.0
C5913 C 0.67046 0.92353 0.06635 0.0
C5914 C 0.66629 0.93038 0.07215 0.0
C5915 C 0.65418 0.92562 0.07402 0.0
C5916 C 0.64616 0.91399 0.07019 0.0
C5917 C 0.65023 0.90708 0.06453 0.0
C5918 C 0.66233 0.9118 0.06263 0.0
C5919 C 0.72207 0.92087 0.08582 0.0
C5920 C 0.71806 0.90905 0.08221 0.0
C5921 C 0.71624 0.92663 0.0816 0.0
C5922 C 0.70647 0.92078 0.07346 0.0
C5923 C 0.70225 0.90889 0.07014 0.0
C5924 C 0.70803 0.9031 0.07442 0.0
C5925 C 0.70102 0.92723 0.06789 0.0
C5926 C 0.68882 0.92264 0.06915 0.0
C5927 C 0.70784 0.9379 0.06138 0.0
C5928 C 0.72061 0.94282 0.05901 0.0
C5929 C 0.72458 0.93594 0.05288 0.0
C5930 C 0.73664 0.94059 0.05081 0.0
C5931 C 0.74482 0.95215 0.05472 0.0
C5932 C 0.74094 0.95909 0.06069 0.0
C5933 C 0.72889 0.95448 0.0628 0.0
H5934 H 0.75415 0.95573 0.05311 0.0
H5935 H 0.63678 0.91032 0.07165 0.0
H5936 H 0.0371 0.71409 0.05956 0.0
H5937 H 0.04594 0.73327 0.07051 0.0
H5938 H 0.06541 0.75069 0.03767 0.0
H5939 H 0.0566 0.73151 0.02664 0.0
H5940 H 0.07862 0.75967 0.0607 0.0
H5941 H 0.04091 0.75002 0.04204 0.0
H5942 H 0.01944 0.73721 0.03843 0.0
H5943 H 0.01332 0.73817 0.07749 0.0
H5944 H 0.03479 0.75085 0.08135 0.0
H5945 H 0.09098 0.81857 0.06632 0.0
H5946 H 0.08513 0.79822 0.06047 0.0
H5947 H 0.06132 0.78538 0.09148 0.0
H5948 H 0.06684 0.80577 0.09706 0.0
H5949 H 0.05052 0.77307 0.07185 0.0
H5950 H 0.08759 0.78446 0.09073 0.0
H5951 H 0.10896 0.79704 0.09503 0.0
H5952 H 0.11647 0.79247 0.05723 0.0
H5953 H 0.09513 0.78003 0.05263 0.0
C5954 C 0.04346 0.72198 0.05476 0.0
C5955 C 0.04614 0.72133 0.04223 0.0
C5956 C 0.04845 0.73292 0.06101 0.0
C5957 C 0.05626 0.74338 0.05486 0.0
C5958 C 0.05941 0.7427 0.04256 0.0
C5959 C 0.05432 0.73177 0.03626 0.0
C5960 C 0.06039 0.75509 0.06088 0.0
C5961 C 0.07253 0.76268 0.06309 0.0
C5962 C 0.05236 0.7588 0.06434 0.0
C5963 C 0.03945 0.75126 0.062 0.0
C5964 C 0.03499 0.74742 0.04987 0.0
C5965 C 0.02282 0.7402 0.04777 0.0
C5966 C 0.01503 0.73685 0.05773 0.0
C5967 C 0.01938 0.74075 0.06979 0.0
C5968 C 0.03154 0.74795 0.07194 0.0
C5969 C 0.08465 0.81141 0.072 0.0
C5970 C 0.07955 0.81377 0.08228 0.0
C5971 C 0.08135 0.79978 0.0687 0.0
C5972 C 0.07294 0.79025 0.07567 0.0
C5973 C 0.06789 0.79259 0.08601 0.0
C5974 C 0.0711 0.80424 0.08925 0.0
C5975 C 0.06885 0.77785 0.07159 0.0
C5976 C 0.05668 0.77009 0.06969 0.0
C5977 C 0.07687 0.77396 0.06857 0.0
C5978 C 0.08974 0.78137 0.07131 0.0
C5979 C 0.09379 0.78621 0.0833 0.0
C5980 C 0.1059 0.79331 0.0858 0.0
C5981 C 0.11407 0.79557 0.07641 0.0
C5982 C 0.11014 0.79072 0.0645 0.0
C5983 C 0.09803 0.78363 0.06194 0.0
H5984 H 0.12344 0.80107 0.07836 0.0
H5985 H 0.00561 0.73126 0.05609 0.0
H5986 H 0.29753 0.33954 0.04613 0.0
H5987 H 0.27897 0.33116 0.05752 0.0
H5988 H 0.26109 0.30557 0.02786 0.0
H5989 H 0.27963 0.31399 0.01635 0.0
H5990 H 0.24776 0.31529 0.0377 0.0
H5991 H 0.2695 0.297 0.0518 0.0
H5992 H 0.28702 0.29687 0.05998 0.0
H5993 H 0.28661 0.31551 0.09294 0.0
H5994 H 0.26919 0.31592 0.08486 0.0
H5995 H 0.19749 0.27334 0.07144 0.0
H5996 H 0.21516 0.28321 0.05855 0.0
H5997 H 0.23484 0.30618 0.08954 0.0
H5998 H 0.21729 0.29616 0.10251 0.0
H5999 H 0.24719 0.29795 0.07861 0.0
H6000 H 0.22533 0.31608 0.0649 0.0
H6001 H 0.208 0.31657 0.05673 0.0
H6002 H 0.20865 0.29867 0.02328 0.0
H6003 H 0.2259 0.29792 0.03132 0.0
C6004 C 0.2896 0.33228 0.04193 0.0
C6005 C 0.29003 0.32737 0.03039 0.0
C6006 C 0.27903 0.32746 0.04848 0.0
C6007 C 0.26871 0.31768 0.04357 0.0
C6008 C 0.26898 0.3131 0.0318 0.0
C6009 C 0.27957 0.31786 0.02529 0.0
C6010 C 0.25783 0.31181 0.05106 0.0
C6011 C 0.24756 0.31137 0.04659 0.0
C6012 C 0.2577 0.30691 0.06274 0.0
C6013 C 0.26812 0.3066 0.06766 0.0
C6014 C 0.27321 0.30116 0.06074 0.0
C6015 C 0.28311 0.30102 0.06537 0.0
C6016 C 0.28794 0.3062 0.07696 0.0
C6017 C 0.28286 0.31151 0.08396 0.0
C6018 C 0.27297 0.3117 0.07936 0.0
C6019 C 0.20557 0.28058 0.07544 0.0
C6020 C 0.20595 0.28417 0.08788 0.0
C6021 C 0.21564 0.28623 0.06807 0.0
C6022 C 0.22627 0.29558 0.07302 0.0
C6023 C 0.22671 0.29905 0.0855 0.0
C6024 C 0.21667 0.29338 0.09287 0.0
C6025 C 0.23706 0.30149 0.06534 0.0
C6026 C 0.24734 0.30189 0.06976 0.0
C6027 C 0.2372 0.30639 0.05364 0.0
C6028 C 0.22684 0.30684 0.04877 0.0
C6029 C 0.22172 0.31216 0.05584 0.0
C6030 C 0.21192 0.3125 0.05123 0.0
C6031 C 0.20721 0.30763 0.03951 0.0
C6032 C 0.2123 0.30243 0.03237 0.0
C6033 C 0.2221 0.30205 0.03694 0.0
H6034 H 0.19962 0.3079 0.03595 0.0
H6035 H 0.29561 0.30609 0.08052 0.0
H6036 H 0.69612 0.64528 0.37112 0.0
H6037 H 0.70657 0.63797 0.38358 0.0
H6038 H 0.73269 0.67384 0.39415 0.0
H6039 H 0.72248 0.68129 0.38127 0.0
H6040 H 0.74299 0.66103 0.38866 0.0
H6041 H 0.71135 0.65626 0.41429 0.0
H6042 H 0.69075 0.64996 0.41963 0.0
H6043 H 0.68067 0.61358 0.41316 0.0
H6044 H 0.70118 0.61968 0.40759 0.0
H6045 H 0.77184 0.64518 0.44214 0.0
H6046 H 0.76076 0.65499 0.42681 0.0
H6047 H 0.72751 0.6144 0.41535 0.0
H6048 H 0.73768 0.60347 0.43023 0.0
H6049 H 0.72124 0.63076 0.42057 0.0
H6050 H 0.75194 0.63591 0.39198 0.0
H6051 H 0.77242 0.64201 0.38622 0.0
H6052 H 0.78406 0.67759 0.39872 0.0
H6053 H 0.76363 0.67164 0.40461 0.0
C6054 C 0.70417 0.65165 0.37595 0.0
C6055 C 0.70847 0.66388 0.37517 0.0
C6056 C 0.71006 0.64744 0.38319 0.0
C6057 C 0.72032 0.65535 0.38995 0.0
C6058 C 0.72476 0.66758 0.38906 0.0
C6059 C 0.71886 0.67181 0.38178 0.0
C6060 C 0.72633 0.65078 0.39792 0.0
C6061 C 0.73828 0.65457 0.39579 0.0
C6062 C 0.72015 0.64216 0.40705 0.0
C6063 C 0.70779 0.63844 0.41041 0.0
C6064 C 0.70472 0.64692 0.4139 0.0
C6065 C 0.69306 0.64339 0.41699 0.0
C6066 C 0.6844 0.63138 0.4167 0.0
C6067 C 0.68738 0.62288 0.41336 0.0
C6068 C 0.69903 0.62637 0.41025 0.0
C6069 C 0.76344 0.63951 0.43752 0.0
C6070 C 0.75697 0.62315 0.43593 0.0
C6071 C 0.75681 0.64549 0.42745 0.0
C6072 C 0.74347 0.63577 0.4187 0.0
C6073 C 0.73578 0.61987 0.42028 0.0
C6074 C 0.74168 0.613 0.43005 0.0
C6075 C 0.73781 0.64094 0.41122 0.0
C6076 C 0.72594 0.63725 0.41346 0.0
C6077 C 0.74406 0.6497 0.40229 0.0
C6078 C 0.75633 0.6533 0.39889 0.0
C6079 C 0.75889 0.64501 0.39356 0.0
C6080 C 0.77048 0.64845 0.39025 0.0
C6081 C 0.77955 0.66017 0.39215 0.0
C6082 C 0.77704 0.6685 0.3973 0.0
C6083 C 0.76546 0.66511 0.40061 0.0
H6084 H 0.78852 0.66282 0.3896 0.0
H6085 H 0.67538 0.62865 0.4191 0.0
H6086 H 0.32056 0.04159 0.39011 0.0
H6087 H 0.32963 0.0597 0.40283 0.0
H6088 H 0.36412 0.06812 0.39002 0.0
H6089 H 0.35526 0.04965 0.37809 0.0
H6090 H 0.36557 0.07247 0.41332 0.0
H6091 H 0.34863 0.08215 0.37911 0.0
H6092 H 0.33285 0.07965 0.36465 0.0
H6093 H 0.31326 0.08224 0.39519 0.0
H6094 H 0.32886 0.0846 0.40986 0.0
H6095 H 0.40311 0.13817 0.43249 0.0
H6096 H 0.3911 0.11536 0.41987 0.0
H6097 H 0.35222 0.10628 0.43767 0.0
H6098 H 0.3632 0.12887 0.45089 0.0
H6099 H 0.35185 0.10146 0.41161 0.0
H6100 H 0.36989 0.09291 0.44545 0.0
H6101 H 0.3862 0.09597 0.45939 0.0
H6102 H 0.40452 0.09195 0.42844 0.0
H6103 H 0.38839 0.08904 0.41427 0.0
C6104 C 0.33009 0.04721 0.39009 0.0
C6105 C 0.33713 0.04412 0.38297 0.0
C6106 C 0.33526 0.05768 0.39725 0.0
C6107 C 0.34756 0.06542 0.39724 0.0
C6108 C 0.35461 0.06235 0.39016 0.0
C6109 C 0.34948 0.05181 0.38317 0.0
C6110 C 0.35319 0.07658 0.40481 0.0
C6111 C 0.36268 0.07889 0.41276 0.0
C6112 C 0.34924 0.08484 0.40439 0.0
C6113 C 0.33985 0.08342 0.39559 0.0
C6114 C 0.34091 0.08209 0.38275 0.0
C6115 C 0.33201 0.08071 0.37452 0.0
C6116 C 0.32205 0.08075 0.379 0.0
C6117 C 0.32098 0.08219 0.39173 0.0
C6118 C 0.32985 0.08356 0.40001 0.0
C6119 C 0.39382 0.13202 0.43399 0.0
C6120 C 0.38401 0.13678 0.44124 0.0
C6121 C 0.38616 0.11805 0.42571 0.0
C6122 C 0.37031 0.10867 0.42684 0.0
C6123 C 0.36162 0.11238 0.43688 0.0
C6124 C 0.36843 0.12614 0.44558 0.0
C6125 C 0.36431 0.09736 0.41981 0.0
C6126 C 0.35473 0.09502 0.41207 0.0
C6127 C 0.36829 0.08917 0.42026 0.0
C6128 C 0.37798 0.09088 0.42877 0.0
C6129 C 0.37744 0.09278 0.44159 0.0
C6130 C 0.38665 0.09447 0.44954 0.0
C6131 C 0.3964 0.09419 0.4448 0.0
C6132 C 0.39696 0.09218 0.4321 0.0
C6133 C 0.38779 0.0905 0.42411 0.0
H6134 H 0.40352 0.0955 0.45097 0.0
H6135 H 0.31517 0.07968 0.37261 0.0
H6136 H 0.96717 0.30046 0.39103 0.0
H6137 H 0.94762 0.28847 0.40009 0.0
H6138 H 0.93238 0.27626 0.36351 0.0
H6139 H 0.95193 0.28777 0.35435 0.0
H6140 H 0.92011 0.28452 0.37957 0.0
H6141 H 0.93609 0.2582 0.37966 0.0
H6142 H 0.95116 0.25293 0.38484 0.0
H6143 H 0.94729 0.25787 0.4237 0.0
H6144 H 0.9323 0.26334 0.41873 0.0
H6145 H 0.86313 0.23744 0.3935 0.0
H6146 H 0.88288 0.2505 0.38545 0.0
H6147 H 0.8979 0.25279 0.42188 0.0
H6148 H 0.87832 0.23902 0.42971 0.0
H6149 H 0.91087 0.25052 0.40655 0.0
H6150 H 0.89509 0.27628 0.40785 0.0
H6151 H 0.88075 0.28282 0.40391 0.0
H6152 H 0.88499 0.28085 0.36456 0.0
H6153 H 0.89925 0.27415 0.36826 0.0
C6154 C 0.95972 0.2951 0.38489 0.0
C6155 C 0.96119 0.29509 0.37192 0.0
C6156 C 0.94854 0.28834 0.39009 0.0
C6157 C 0.9386 0.28151 0.38245 0.0
C6158 C 0.93996 0.28155 0.36954 0.0
C6159 C 0.95115 0.28819 0.36433 0.0
C6160 C 0.92677 0.27419 0.38792 0.0
C6161 C 0.918 0.277 0.38538 0.0
C6162 C 0.92423 0.26468 0.39583 0.0
C6163 C 0.93317 0.26129 0.39881 0.0
C6164 C 0.93852 0.25826 0.3893 0.0
C6165 C 0.94703 0.25521 0.3922 0.0
C6166 C 0.9502 0.25509 0.40459 0.0
C6167 C 0.94484 0.25798 0.41411 0.0
C6168 C 0.93633 0.26104 0.41125 0.0
C6169 C 0.87066 0.24074 0.39978 0.0
C6170 C 0.86909 0.2372 0.41224 0.0
C6171 C 0.88195 0.24832 0.39521 0.0
C6172 C 0.89193 0.25287 0.4031 0.0
C6173 C 0.89037 0.24944 0.41559 0.0
C6174 C 0.87911 0.24161 0.42009 0.0
C6175 C 0.90401 0.26077 0.39822 0.0
C6176 C 0.91289 0.25807 0.40084 0.0
C6177 C 0.90672 0.27057 0.3906 0.0
C6178 C 0.89816 0.27462 0.38833 0.0
C6179 C 0.8929 0.27716 0.39835 0.0
C6180 C 0.8848 0.28091 0.39616 0.0
C6181 C 0.88194 0.28222 0.38399 0.0
C6182 C 0.88721 0.27982 0.37398 0.0
C6183 C 0.89531 0.27606 0.37612 0.0
H6184 H 0.87567 0.28512 0.38232 0.0
H6185 H 0.9568 0.25274 0.40681 0.0
H6186 H 0.02963 0.38413 0.294 0.0
H6187 H 0.0287 0.40002 0.28333 0.0
H6188 H 0.00559 0.40019 0.31165 0.0
H6189 H 0.0065 0.3843 0.32239 0.0
H6190 H 0.99842 0.40219 0.28836 0.0
H6191 H 0.0348 0.42055 0.31244 0.0
H6192 H 0.05406 0.4233 0.31911 0.0
H6193 H 0.06666 0.43139 0.28171 0.0
H6194 H 0.0474 0.42852 0.27479 0.0
H6195 H 0.0057 0.45923 0.28126 0.0
H6196 H 0.00451 0.44096 0.28823 0.0
H6197 H 0.03016 0.44499 0.2608 0.0
H6198 H 0.03167 0.4635 0.25412 0.0
H6199 H 0.03584 0.4401 0.2821 0.0
H6200 H 0.00016 0.42321 0.25803 0.0
H6201 H 0.98093 0.42029 0.25102 0.0
H6202 H 0.96693 0.40924 0.28755 0.0
H6203 H 0.98613 0.41225 0.29483 0.0
C6204 C 0.02439 0.38758 0.29798 0.0
C6205 C 0.01823 0.38304 0.3091 0.0
C6206 C 0.02383 0.39662 0.29185 0.0
C6207 C 0.01719 0.40137 0.29679 0.0
C6208 C 0.01075 0.39663 0.30768 0.0
C6209 C 0.01128 0.38755 0.3138 0.0
C6210 C 0.01733 0.4116 0.29087 0.0
C6211 C 0.00657 0.41052 0.28708 0.0
C6212 C 0.02801 0.42236 0.2889 0.0
C6213 C 0.03963 0.42421 0.29308 0.0
C6214 C 0.04166 0.42283 0.30563 0.0
C6215 C 0.05257 0.42443 0.30946 0.0
C6216 C 0.06157 0.42749 0.30084 0.0
C6217 C 0.05968 0.429 0.28838 0.0
C6218 C 0.04877 0.4274 0.2845 0.0
C6219 C 0.01092 0.45608 0.27659 0.0
C6220 C 0.01856 0.46263 0.26697 0.0
C6221 C 0.01021 0.44563 0.28054 0.0
C6222 C 0.01708 0.44147 0.27489 0.0
C6223 C 0.0247 0.44797 0.26523 0.0
C6224 C 0.0255 0.4585 0.26136 0.0
C6225 C 0.0169 0.43076 0.27962 0.0
C6226 C 0.02766 0.43175 0.28323 0.0
C6227 C 0.00621 0.41992 0.28136 0.0
C6228 C 0.99463 0.41805 0.277 0.0
C6229 C 0.99301 0.42024 0.26459 0.0
C6230 C 0.98211 0.41855 0.26057 0.0
C6231 C 0.97272 0.41461 0.26884 0.0
C6232 C 0.97421 0.4123 0.28115 0.0
C6233 C 0.9851 0.41398 0.28523 0.0
H6234 H 0.96429 0.41331 0.26571 0.0
H6235 H 0.07001 0.42871 0.30382 0.0
H6236 H 0.62911 0.62804 0.28882 0.0
H6237 H 0.61767 0.60869 0.27841 0.0
H6238 H 0.61021 0.5916 0.31393 0.0
H6239 H 0.62162 0.61091 0.32439 0.0
H6240 H 0.61829 0.58171 0.29786 0.0
H6241 H 0.58871 0.59309 0.29691 0.0
H6242 H 0.58085 0.60623 0.2923 0.0
H6243 H 0.58713 0.60443 0.25342 0.0
H6244 H 0.59518 0.59141 0.25781 0.0
H6245 H 0.57763 0.51757 0.27617 0.0
H6246 H 0.58921 0.54043 0.28853 0.0
H6247 H 0.59097 0.5607 0.24869 0.0
H6248 H 0.57928 0.53822 0.23524 0.0
H6249 H 0.58531 0.56988 0.26771 0.0
H6250 H 0.61546 0.55973 0.26797 0.0
H6251 H 0.62448 0.54746 0.2717 0.0
H6252 H 0.61853 0.54797 0.31086 0.0
H6253 H 0.60934 0.56012 0.30734 0.0
C6254 C 0.62485 0.62018 0.29443 0.0
C6255 C 0.6263 0.62101 0.30743 0.0
C6256 C 0.61831 0.60912 0.28846 0.0
C6257 C 0.61302 0.59869 0.2954 0.0
C6258 C 0.61424 0.59952 0.30839 0.0
C6259 C 0.62079 0.61056 0.31435 0.0
C6260 C 0.60685 0.58688 0.28909 0.0
C6261 C 0.61091 0.57902 0.29146 0.0
C6262 C 0.59755 0.58358 0.28037 0.0
C6263 C 0.59264 0.59136 0.27771 0.0
C6264 C 0.58849 0.59557 0.28739 0.0
C6265 C 0.58399 0.60298 0.28481 0.0
C6266 C 0.58351 0.60618 0.27258 0.0
C6267 C 0.58751 0.60195 0.26289 0.0
C6268 C 0.59203 0.59454 0.26542 0.0
C6269 C 0.58067 0.52559 0.27095 0.0
C6270 C 0.57536 0.52532 0.25483 0.0
C6271 C 0.5874 0.53984 0.27866 0.0
C6272 C 0.59081 0.55301 0.27014 0.0
C6273 C 0.58831 0.55256 0.25356 0.0
C6274 C 0.58159 0.53872 0.24498 0.0
C6275 C 0.59664 0.56465 0.27665 0.0
C6276 C 0.5926 0.57251 0.27422 0.0
C6277 C 0.60606 0.56803 0.28523 0.0
C6278 C 0.61157 0.56071 0.28737 0.0
C6279 C 0.61599 0.55715 0.27736 0.0
C6280 C 0.62115 0.55023 0.27944 0.0
C6281 C 0.62204 0.5469 0.2915 0.0
C6282 C 0.61781 0.55053 0.30152 0.0
C6283 C 0.61264 0.55744 0.29949 0.0
H6284 H 0.62603 0.54154 0.29309 0.0
H6285 H 0.58002 0.61192 0.27061 0.0
H6286 H 0.35637 0.98213 0.29446 0.0
H6287 H 0.37275 0.98197 0.28391 0.0
H6288 H 0.39476 0.99724 0.31659 0.0
H6289 H 0.37833 0.99703 0.32743 0.0
H6290 H 0.40622 0.00741 0.29342 0.0
H6291 H 0.38272 0.96924 0.31271 0.0
H6292 H 0.36415 0.95066 0.31683 0.0
H6293 H 0.36013 0.94147 0.27794 0.0
H6294 H 0.3786 0.96011 0.27357 0.0
H6295 H 0.45127 0.99333 0.2859 0.0
H6296 H 0.43534 0.99661 0.29255 0.0
H6297 H 0.4133 0.97422 0.26229 0.0
H6298 H 0.42906 0.97054 0.25594 0.0
H6299 H 0.40133 0.96822 0.28246 0.0
H6300 H 0.42541 0.00514 0.26289 0.0
H6301 H 0.44367 0.02379 0.25812 0.0
H6302 H 0.44638 0.03562 0.29604 0.0
H6303 H 0.42822 0.01696 0.30109 0.0
C6304 C 0.36466 0.98539 0.29946 0.0
C6305 C 0.36596 0.98947 0.31187 0.0
C6306 C 0.37404 0.98539 0.29336 0.0
C6307 C 0.38491 0.98954 0.29951 0.0
C6308 C 0.38643 0.99405 0.31169 0.0
C6309 C 0.37702 0.99395 0.31785 0.0
C6310 C 0.39449 0.98852 0.29351 0.0
C6311 C 0.40523 0.99887 0.29108 0.0
C6312 C 0.39301 0.97737 0.29016 0.0
C6313 C 0.38196 0.96612 0.2928 0.0
C6314 C 0.37782 0.96331 0.30502 0.0
C6315 C 0.36732 0.95276 0.3074 0.0
C6316 C 0.36094 0.94491 0.29764 0.0
C6317 C 0.36507 0.94757 0.28548 0.0
C6318 C 0.37555 0.95812 0.28305 0.0
C6319 C 0.44309 0.9893 0.28055 0.0
C6320 C 0.4415 0.9819 0.27025 0.0
C6321 C 0.43401 0.99121 0.28431 0.0
C6322 C 0.42318 0.98584 0.27779 0.0
C6323 C 0.42161 0.97853 0.26742 0.0
C6324 C 0.43065 0.97651 0.26373 0.0
C6325 C 0.41322 0.98714 0.28236 0.0
C6326 C 0.40236 0.97682 0.28459 0.0
C6327 C 0.41458 0.99834 0.28539 0.0
C6328 C 0.42549 0.0096 0.28239 0.0
C6329 C 0.42994 0.01168 0.27024 0.0
C6330 C 0.44027 0.02226 0.26748 0.0
C6331 C 0.44619 0.03087 0.27678 0.0
C6332 C 0.44178 0.02894 0.28885 0.0
C6333 C 0.43147 0.01836 0.29167 0.0
H6334 H 0.45418 0.03906 0.27462 0.0
H6335 H 0.35282 0.93674 0.29951 0.0
H6336 H 0.60438 0.97781 0.32225 0.0
H6337 H 0.59116 0.98272 0.31111 0.0
H6338 H 0.61457 0.99408 0.27977 0.0
H6339 H 0.6279 0.98929 0.29092 0.0
H6340 H 0.60867 0.01057 0.28737 0.0
H6341 H 0.5885 0.96924 0.27708 0.0
H6342 H 0.57912 0.9479 0.28123 0.0
H6343 H 0.55343 0.94976 0.30424 0.0
H6344 H 0.56275 0.97117 0.30038 0.0
H6345 H 0.57061 0.02454 0.25487 0.0
H6346 H 0.58212 0.015 0.25929 0.0
H6347 H 0.56007 0.9978 0.29081 0.0
H6348 H 0.54821 0.00687 0.28607 0.0
H6349 H 0.5657 0.98331 0.28015 0.0
H6350 H 0.58718 0.02448 0.2933 0.0
H6351 H 0.5966 0.04604 0.29033 0.0
H6352 H 0.6199 0.04462 0.26334 0.0
H6353 H 0.61049 0.02302 0.26603 0.0
C6354 C 0.60666 0.98128 0.31295 0.0
C6355 C 0.61718 0.98319 0.30746 0.0
C6356 C 0.59906 0.98399 0.30656 0.0
C6357 C 0.60185 0.98868 0.29458 0.0
C6358 C 0.61224 0.99041 0.28898 0.0
C6359 C 0.6198 0.98761 0.29533 0.0
C6360 C 0.5943 0.99253 0.28831 0.0
C6361 C 0.59932 0.00456 0.28553 0.0
C6362 C 0.58206 0.98474 0.28621 0.0
C6363 C 0.57639 0.97184 0.28851 0.0
C6364 C 0.5809 0.96513 0.2831 0.0
C6365 C 0.57559 0.95301 0.28539 0.0
C6366 C 0.5657 0.94748 0.29301 0.0
C6367 C 0.56109 0.95406 0.29834 0.0
C6368 C 0.56638 0.96618 0.29609 0.0
C6369 C 0.56804 0.01848 0.26255 0.0
C6370 C 0.55842 0.01633 0.27006 0.0
C6371 C 0.57469 0.01312 0.26513 0.0
C6372 C 0.57209 0.00583 0.27551 0.0
C6373 C 0.56224 0.00336 0.28274 0.0
C6374 C 0.55549 0.00856 0.28005 0.0
C6375 C 0.58003 0.0014 0.27941 0.0
C6376 C 0.57509 0.98928 0.28179 0.0
C6377 C 0.59233 0.00913 0.2813 0.0
C6378 C 0.59805 0.02213 0.27976 0.0
C6379 C 0.59426 0.02876 0.28667 0.0
C6380 C 0.5996 0.04098 0.28505 0.0
C6381 C 0.60882 0.04669 0.27663 0.0
C6382 C 0.61274 0.04019 0.26984 0.0
C6383 C 0.60741 0.02795 0.27141 0.0
H6384 H 0.61294 0.05615 0.27538 0.0
H6385 H 0.5616 0.9381 0.29478 0.0
H6386 H 0.02208 0.62938 0.32002 0.0
H6387 H 0.01684 0.61091 0.30895 0.0
H6388 H 0.0032 0.62142 0.2782 0.0
H6389 H 0.00807 0.63975 0.28938 0.0
H6390 H 0.98779 0.59934 0.28511 0.0
H6391 H 0.02897 0.62104 0.27561 0.0
H6392 H 0.05034 0.63328 0.28016 0.0
H6393 H 0.04873 0.60573 0.30278 0.0
H6394 H 0.02731 0.59338 0.2985 0.0
H6395 H 0.9742 0.54784 0.25034 0.0
H6396 H 0.98364 0.56891 0.25586 0.0
H6397 H 0.00036 0.5634 0.28764 0.0
H6398 H 0.99133 0.54244 0.28183 0.0
H6399 H 0.01502 0.58403 0.27785 0.0
H6400 H 0.97391 0.56354 0.28964 0.0
H6401 H 0.95242 0.55116 0.28584 0.0
H6402 H 0.95386 0.57642 0.2598 0.0
H6403 H 0.9754 0.58888 0.26332 0.0
C6404 C 0.01799 0.62777 0.31089 0.0
C6405 C 0.01547 0.63603 0.30559 0.0
C6406 C 0.01512 0.61727 0.30452 0.0
C6407 C 0.00974 0.61484 0.29269 0.0
C6408 C 0.0074 0.62315 0.28729 0.0
C6409 C 0.01027 0.63366 0.29366 0.0
C6410 C 0.00583 0.60327 0.28636 0.0
C6411 C 0.9938 0.59609 0.28329 0.0
C6412 C 0.01361 0.59893 0.28426 0.0
C6413 C 0.02651 0.60632 0.2868 0.0
C6414 C 0.03315 0.61762 0.28162 0.0
C6415 C 0.04528 0.62457 0.28414 0.0
C6416 C 0.05088 0.62029 0.29177 0.0
C6417 C 0.04437 0.60904 0.29687 0.0
C6418 C 0.03224 0.60205 0.29439 0.0
C6419 C 0.98012 0.55119 0.25832 0.0
C6420 C 0.98216 0.54353 0.26559 0.0
C6421 C 0.98543 0.56321 0.26153 0.0
C6422 C 0.99257 0.56771 0.27228 0.0
C6423 C 0.99491 0.56015 0.27929 0.0
C6424 C 0.98975 0.54818 0.27599 0.0
C6425 C 0.99697 0.58005 0.27674 0.0
C6426 C 0.00907 0.58736 0.27951 0.0
C6427 C 0.98924 0.5845 0.27867 0.0
C6428 C 0.97628 0.57707 0.27664 0.0
C6429 C 0.96965 0.56642 0.28305 0.0
C6430 C 0.95747 0.55939 0.28095 0.0
C6431 C 0.95179 0.56299 0.27256 0.0
C6432 C 0.95828 0.57364 0.26628 0.0
C6433 C 0.97047 0.58069 0.26832 0.0
H6434 H 0.94235 0.55753 0.27095 0.0
H6435 H 0.06027 0.62569 0.29372 0.0
H6436 H 0.36557 0.37052 0.29315 0.0
H6437 H 0.38426 0.38007 0.28205 0.0
H6438 H 0.40341 0.38793 0.31686 0.0
H6439 H 0.38474 0.37879 0.32809 0.0
H6440 H 0.4142 0.40624 0.30135 0.0
H6441 H 0.39883 0.36441 0.29913 0.0
H6442 H 0.3839 0.34347 0.29485 0.0
H6443 H 0.38298 0.3511 0.25631 0.0
H6444 H 0.39779 0.37213 0.26039 0.0
H6445 H 0.46848 0.41585 0.27555 0.0
H6446 H 0.45018 0.40791 0.28744 0.0
H6447 H 0.43022 0.40146 0.25337 0.0
H6448 H 0.44847 0.40939 0.24145 0.0
H6449 H 0.42013 0.38247 0.26894 0.0
H6450 H 0.43583 0.42462 0.27161 0.0
H6451 H 0.45107 0.44536 0.2763 0.0
H6452 H 0.45182 0.43679 0.31456 0.0
H6453 H 0.43669 0.41595 0.31005 0.0
C6454 C 0.37375 0.37449 0.29848 0.0
C6455 C 0.37366 0.37383 0.31151 0.0
C6456 C 0.38443 0.37983 0.2921 0.0
C6457 C 0.39522 0.38452 0.29862 0.0
C6458 C 0.39519 0.3843 0.31165 0.0
C6459 C 0.38451 0.37898 0.31804 0.0
C6460 C 0.4065 0.38932 0.29181 0.0
C6461 C 0.41556 0.401 0.29437 0.0
C6462 C 0.40821 0.38252 0.2826 0.0
C6463 C 0.39933 0.36987 0.2801 0.0
C6464 C 0.39538 0.36164 0.28976 0.0
C6465 C 0.38694 0.34976 0.28737 0.0
C6466 C 0.38247 0.34596 0.27532 0.0
C6467 C 0.38644 0.35405 0.26564 0.0
C6468 C 0.39486 0.36595 0.26799 0.0
C6469 C 0.46019 0.41279 0.27062 0.0
C6470 C 0.4599 0.41333 0.25759 0.0
C6471 C 0.44976 0.40828 0.27741 0.0
C6472 C 0.43887 0.40421 0.27128 0.0
C6473 C 0.43854 0.40459 0.25827 0.0
C6474 C 0.44895 0.40914 0.25149 0.0
C6475 C 0.42778 0.39941 0.27839 0.0
C6476 C 0.41877 0.38771 0.27591 0.0
C6477 C 0.42616 0.40616 0.28773 0.0
C6478 C 0.43521 0.4187 0.29047 0.0
C6479 C 0.43931 0.42713 0.281 0.0
C6480 C 0.44792 0.43891 0.28363 0.0
C6481 C 0.45243 0.44239 0.29571 0.0
C6482 C 0.44832 0.43409 0.3052 0.0
C6483 C 0.43973 0.42229 0.30262 0.0
H6484 H 0.4591 0.45151 0.29773 0.0
H6485 H 0.37594 0.33676 0.27349 0.0
H6486 H 0.33907 0.28723 0.35584 0.0
H6487 H 0.34908 0.27833 0.36658 0.0
H6488 H 0.34204 0.28935 0.4019 0.0
H6489 H 0.33226 0.29849 0.39122 0.0
H6490 H 0.36489 0.29509 0.40017 0.0
H6491 H 0.32683 0.26058 0.39279 0.0
H6492 H 0.30952 0.24626 0.38027 0.0
H6493 H 0.33168 0.23791 0.35828 0.0
H6494 H 0.34916 0.25231 0.37057 0.0
H6495 H 0.37897 0.26142 0.44024 0.0
H6496 H 0.36831 0.26915 0.42865 0.0
H6497 H 0.37832 0.25974 0.39412 0.0
H6498 H 0.38915 0.2521 0.4057 0.0
H6499 H 0.35429 0.25311 0.39491 0.0
H6500 H 0.39229 0.28746 0.40249 0.0
H6501 H 0.40955 0.30167 0.41514 0.0
H6502 H 0.38742 0.31028 0.43681 0.0
H6503 H 0.36998 0.29598 0.42441 0.0
C6504 C 0.33963 0.28772 0.3659 0.0
C6505 C 0.33486 0.29356 0.37268 0.0
C6506 C 0.34527 0.28257 0.37202 0.0
C6507 C 0.34625 0.28313 0.38504 0.0
C6508 C 0.34137 0.2888 0.39184 0.0
C6509 C 0.33568 0.29393 0.38573 0.0
C6510 C 0.35277 0.27822 0.39155 0.0
C6511 C 0.36246 0.28587 0.39916 0.0
C6512 C 0.34981 0.26628 0.38993 0.0
C6513 C 0.33932 0.25762 0.38251 0.0
C6514 C 0.32803 0.25577 0.38521 0.0
C6515 C 0.31819 0.24762 0.37817 0.0
C6516 C 0.31951 0.24121 0.36846 0.0
C6517 C 0.33067 0.2429 0.36579 0.0
C6518 C 0.34055 0.25105 0.3728 0.0
C6519 C 0.37893 0.26104 0.43018 0.0
C6520 C 0.38494 0.25621 0.42387 0.0
C6521 C 0.37285 0.26545 0.42358 0.0
C6522 C 0.37261 0.26508 0.41054 0.0
C6523 C 0.37842 0.2601 0.40419 0.0
C6524 C 0.38461 0.25578 0.4108 0.0
C6525 C 0.36631 0.26997 0.4036 0.0
C6526 C 0.3567 0.26233 0.3959 0.0
C6527 C 0.36933 0.28193 0.40513 0.0
C6528 C 0.3798 0.29056 0.4126 0.0
C6529 C 0.39108 0.2923 0.41003 0.0
C6530 C 0.4009 0.30039 0.41714 0.0
C6531 C 0.39957 0.30685 0.42679 0.0
C6532 C 0.38843 0.30526 0.42934 0.0
C6533 C 0.37857 0.29717 0.42227 0.0
H6534 H 0.40719 0.31311 0.43228 0.0
H6535 H 0.31187 0.2349 0.36303 0.0
H6536 H 0.7023 0.04804 0.35556 0.0
H6537 H 0.71182 0.06773 0.36532 0.0
H6538 H 0.7115 0.05254 0.40076 0.0
H6539 H 0.70143 0.03277 0.39121 0.0
H6540 H 0.7045 0.06805 0.40335 0.0
H6541 H 0.73709 0.06785 0.38331 0.0
H6542 H 0.74781 0.06552 0.36574 0.0
H6543 H 0.74643 0.09328 0.34639 0.0
H6544 H 0.73557 0.09567 0.36378 0.0
H6545 H 0.7444 0.12037 0.43646 0.0
H6546 H 0.73538 0.10113 0.42566 0.0
H6547 H 0.7342 0.11753 0.39159 0.0
H6548 H 0.74336 0.13686 0.40236 0.0
H6549 H 0.74184 0.10176 0.38781 0.0
H6550 H 0.70958 0.10218 0.40809 0.0
H6551 H 0.69908 0.10462 0.42579 0.0
H6552 H 0.69997 0.07644 0.44479 0.0
H6553 H 0.71064 0.07394 0.42728 0.0
C6554 C 0.70417 0.04886 0.36545 0.0
C6555 C 0.70109 0.03879 0.37259 0.0
C6556 C 0.70975 0.06016 0.37099 0.0
C6557 C 0.71251 0.06164 0.38375 0.0
C6558 C 0.70949 0.05162 0.39089 0.0
C6559 C 0.70384 0.04032 0.38538 0.0
C6560 C 0.71825 0.07359 0.38976 0.0
C6561 C 0.71275 0.07537 0.40005 0.0
C6562 C 0.72885 0.08325 0.38525 0.0
C6563 C 0.73541 0.08185 0.3748 0.0
C6564 C 0.739 0.07339 0.37527 0.0
C6565 C 0.74511 0.07208 0.36535 0.0
C6566 C 0.74777 0.07923 0.35494 0.0
C6567 C 0.74435 0.08774 0.35445 0.0
C6568 C 0.73822 0.08908 0.36434 0.0
C6569 C 0.7423 0.11987 0.42665 0.0
C6570 C 0.74471 0.13013 0.42021 0.0
C6571 C 0.7371 0.10888 0.42051 0.0
C6572 C 0.73404 0.10789 0.40785 0.0
C6573 C 0.73652 0.11812 0.40136 0.0
C6574 C 0.74173 0.12913 0.40751 0.0
C6575 C 0.72814 0.09614 0.40146 0.0
C6576 C 0.73359 0.09442 0.39109 0.0
C6577 C 0.71751 0.08653 0.4059 0.0
C6578 C 0.71101 0.08795 0.41641 0.0
C6579 C 0.70762 0.09656 0.41608 0.0
C6580 C 0.70162 0.09795 0.42608 0.0
C6581 C 0.69888 0.09071 0.43642 0.0
C6582 C 0.70211 0.08205 0.43678 0.0
C6583 C 0.70812 0.08064 0.42682 0.0
H6584 H 0.69424 0.0918 0.44415 0.0
H6585 H 0.75251 0.0782 0.34727 0.0
H6586 H 0.96696 0.66379 0.3878 0.0
H6587 H 0.94733 0.65367 0.39707 0.0
H6588 H 0.93258 0.65993 0.36414 0.0
H6589 H 0.95227 0.67023 0.35484 0.0
H6590 H 0.92357 0.66373 0.38619 0.0
H6591 H 0.92948 0.63379 0.36736 0.0
H6592 H 0.94004 0.62302 0.36306 0.0
H6593 H 0.93839 0.61441 0.40165 0.0
H6594 H 0.92798 0.62529 0.40621 0.0
H6595 H 0.86326 0.61914 0.39794 0.0
H6596 H 0.88266 0.63109 0.38833 0.0
H6597 H 0.89947 0.62636 0.42049 0.0
H6598 H 0.88018 0.61464 0.43022 0.0
H6599 H 0.90711 0.6218 0.39808 0.0
H6600 H 0.90132 0.6518 0.41699 0.0
H6601 H 0.89086 0.66262 0.42141 0.0
H6602 H 0.89221 0.67113 0.38283 0.0
H6603 H 0.90252 0.66018 0.37814 0.0
C6604 C 0.95958 0.66318 0.38261 0.0
C6605 C 0.96114 0.66778 0.37058 0.0
C6606 C 0.94836 0.65732 0.38788 0.0
C6607 C 0.9385 0.65595 0.38123 0.0
C6608 C 0.94008 0.66088 0.3694 0.0
C6609 C 0.9513 0.66668 0.36408 0.0
C6610 C 0.9265 0.64897 0.38648 0.0
C6611 C 0.91988 0.65452 0.38863 0.0
C6612 C 0.9218 0.63701 0.38985 0.0
C6613 C 0.92806 0.63046 0.38714 0.0
C6614 C 0.93147 0.62969 0.37495 0.0
C6615 C 0.93741 0.62355 0.37246 0.0
C6616 C 0.93991 0.61806 0.38208 0.0
C6617 C 0.93646 0.61868 0.39421 0.0
C6618 C 0.93053 0.62483 0.39675 0.0
C6619 C 0.8711 0.62066 0.40295 0.0
C6620 C 0.8702 0.61584 0.41477 0.0
C6621 C 0.88216 0.62752 0.39748 0.0
C6622 C 0.89248 0.6296 0.40372 0.0
C6623 C 0.8916 0.6248 0.41551 0.0
C6624 C 0.88059 0.61809 0.42103 0.0
C6625 C 0.90421 0.63658 0.3979 0.0
C6626 C 0.91077 0.63101 0.39561 0.0
C6627 C 0.90882 0.6485 0.39441 0.0
C6628 C 0.90256 0.65503 0.39719 0.0
C6629 C 0.89927 0.65586 0.40942 0.0
C6630 C 0.89339 0.66204 0.41198 0.0
C6631 C 0.89083 0.66752 0.4024 0.0
C6632 C 0.89417 0.66685 0.39024 0.0
C6633 C 0.90003 0.66066 0.38762 0.0
H6634 H 0.8863 0.67232 0.40441 0.0
H6635 H 0.9445 0.6133 0.38014 0.0
H6636 H 0.39104 0.01157 0.6939 0.0
H6637 H 0.40757 0.01225 0.70516 0.0
H6638 H 0.39481 0.01868 0.73954 0.0
H6639 H 0.37802 0.01766 0.72843 0.0
H6640 H 0.41849 0.03469 0.73555 0.0
H6641 H 0.39257 0.99261 0.73488 0.0
H6642 H 0.37926 0.97302 0.72525 0.0
H6643 H 0.40757 0.97639 0.70247 0.0
H6644 H 0.42102 0.9961 0.71183 0.0
H6645 H 0.46403 0.03527 0.7709 0.0
H6646 H 0.44404 0.02929 0.76376 0.0
H6647 H 0.45071 0.01748 0.72871 0.0
H6648 H 0.47052 0.0229 0.73607 0.0
H6649 H 0.42881 0.00309 0.73487 0.0
H6650 H 0.45392 0.04553 0.73319 0.0
H6651 H 0.46757 0.06555 0.74172 0.0
H6652 H 0.44113 0.062 0.76754 0.0
H6653 H 0.42738 0.04188 0.75927 0.0
C6654 C 0.39158 0.01288 0.70389 0.0
C6655 C 0.38319 0.0146 0.71024 0.0
C6656 C 0.40107 0.0133 0.71031 0.0
C6657 C 0.40238 0.01546 0.72319 0.0
C6658 C 0.39396 0.01703 0.72959 0.0
C6659 C 0.38442 0.01652 0.7232 0.0
C6660 C 0.41291 0.01678 0.72982 0.0
C6661 C 0.42064 0.0277 0.73562 0.0
C6662 C 0.41584 0.00776 0.72961 0.0
C6663 C 0.40778 0.99588 0.72399 0.0
C6664 C 0.39594 0.98922 0.72774 0.0
C6665 C 0.38837 0.97808 0.72235 0.0
C6666 C 0.39256 0.97347 0.71324 0.0
C6667 C 0.40434 0.97998 0.70953 0.0
C6668 C 0.41194 0.99113 0.71488 0.0
C6669 C 0.46114 0.03112 0.7618 0.0
C6670 C 0.4688 0.02942 0.75408 0.0
C6671 C 0.44974 0.02781 0.75768 0.0
C6672 C 0.44593 0.02312 0.74561 0.0
C6673 C 0.45343 0.02106 0.73806 0.0
C6674 C 0.46474 0.02417 0.74226 0.0
C6675 C 0.43448 0.02107 0.7405 0.0
C6676 C 0.42659 0.01002 0.73495 0.0
C6677 C 0.43146 0.03004 0.74079 0.0
C6678 C 0.43968 0.04216 0.74571 0.0
C6679 C 0.45105 0.04899 0.74074 0.0
C6680 C 0.4588 0.06036 0.74553 0.0
C6681 C 0.45523 0.06503 0.75519 0.0
C6682 C 0.44389 0.05836 0.76007 0.0
C6683 C 0.43611 0.04698 0.75534 0.0
H6684 H 0.46124 0.07383 0.75889 0.0
H6685 H 0.38669 0.96485 0.70907 0.0
H6686 H 0.98319 0.37286 0.69874 0.0
H6687 H 0.98244 0.38832 0.71084 0.0
H6688 H 0.99273 0.37736 0.74385 0.0
H6689 H 0.99426 0.36228 0.73172 0.0
H6690 H 0.97088 0.3791 0.74485 0.0
H6691 H 0.01204 0.4014 0.73472 0.0
H6692 H 0.0291 0.40932 0.72071 0.0
H6693 H 0.01527 0.42769 0.70029 0.0
H6694 H 0.99802 0.41973 0.71406 0.0
H6695 H 0.96893 0.42372 0.7803 0.0
H6696 H 0.97644 0.41139 0.77193 0.0
H6697 H 0.97826 0.42552 0.73546 0.0
H6698 H 0.97134 0.43832 0.74394 0.0
H6699 H 0.99604 0.42233 0.73825 0.0
H6700 H 0.9542 0.39859 0.74532 0.0
H6701 H 0.93601 0.39019 0.75769 0.0
H6702 H 0.94963 0.37395 0.78187 0.0
H6703 H 0.96799 0.3824 0.76972 0.0
C6704 C 0.98561 0.37387 0.70849 0.0
C6705 C 0.9888 0.36624 0.7142 0.0
C6706 C 0.98509 0.38269 0.71541 0.0
C6707 C 0.98756 0.38397 0.7282 0.0
C6708 C 0.99078 0.37647 0.73397 0.0
C6709 C 0.99154 0.36778 0.72702 0.0
C6710 C 0.98611 0.39274 0.73557 0.0
C6711 C 0.97652 0.38858 0.74365 0.0
C6712 C 0.99329 0.40504 0.73365 0.0
C6713 C 0.00368 0.40988 0.72537 0.0
C6714 C 0.01257 0.40704 0.72717 0.0
C6715 C 0.0223 0.41156 0.71929 0.0
C6716 C 0.02326 0.41898 0.7096 0.0
C6717 C 0.01451 0.42193 0.70779 0.0
C6718 C 0.00476 0.41743 0.71565 0.0
C6719 C 0.9712 0.42441 0.77057 0.0
C6720 C 0.96966 0.43209 0.76278 0.0
C6721 C 0.9754 0.41727 0.76576 0.0
C6722 C 0.97773 0.41736 0.75301 0.0
C6723 C 0.97655 0.42529 0.74533 0.0
C6724 C 0.97257 0.43258 0.75016 0.0
C6725 C 0.98066 0.40872 0.74747 0.0
C6726 C 0.9905 0.41288 0.73967 0.0
C6727 C 0.97355 0.39637 0.74943 0.0
C6728 C 0.96251 0.39124 0.75671 0.0
C6729 C 0.95334 0.39329 0.75333 0.0
C6730 C 0.943 0.38852 0.76029 0.0
C6731 C 0.94168 0.38157 0.77058 0.0
C6732 C 0.95068 0.37935 0.77391 0.0
C6733 C 0.96105 0.38413 0.76699 0.0
H6734 H 0.93366 0.37787 0.77596 0.0
H6735 H 0.0308 0.42247 0.7035 0.0
H6736 H 0.62934 0.64012 0.71855 0.0
H6737 H 0.61071 0.62935 0.72961 0.0
H6738 H 0.60422 0.59659 0.71241 0.0
H6739 H 0.6229 0.60735 0.70126 0.0
H6740 H 0.58514 0.59866 0.71085 0.0
H6741 H 0.612 0.60281 0.74335 0.0
H6742 H 0.62946 0.6134 0.75718 0.0
H6743 H 0.61578 0.63464 0.77195 0.0
H6744 H 0.59831 0.62429 0.75809 0.0
H6745 H 0.53498 0.56229 0.74708 0.0
H6746 H 0.55488 0.5714 0.73845 0.0
H6747 H 0.56258 0.60548 0.753 0.0
H6748 H 0.54271 0.59636 0.76179 0.0
H6749 H 0.58121 0.60181 0.75638 0.0
H6750 H 0.555 0.59839 0.72305 0.0
H6751 H 0.53752 0.58779 0.70926 0.0
H6752 H 0.55014 0.56514 0.69605 0.0
H6753 H 0.56762 0.57549 0.70991 0.0
C6754 C 0.62406 0.63059 0.71728 0.0
C6755 C 0.62762 0.62458 0.70906 0.0
C6756 C 0.6134 0.62444 0.72361 0.0
C6757 C 0.60613 0.61214 0.72195 0.0
C6758 C 0.6097 0.60609 0.71384 0.0
C6759 C 0.62035 0.61225 0.70745 0.0
C6760 C 0.59453 0.60571 0.72821 0.0
C6761 C 0.58431 0.59917 0.72083 0.0
C6762 C 0.59341 0.60661 0.74121 0.0
C6763 C 0.60389 0.61283 0.7496 0.0
C6764 C 0.61276 0.6098 0.74948 0.0
C6765 C 0.62265 0.61575 0.75734 0.0
C6766 C 0.62374 0.6247 0.76542 0.0
C6767 C 0.61493 0.6277 0.76568 0.0
C6768 C 0.60502 0.62179 0.75783 0.0
C6769 C 0.54099 0.57169 0.74858 0.0
C6770 C 0.53736 0.5786 0.75524 0.0
C6771 C 0.55231 0.57689 0.74359 0.0
C6772 C 0.56017 0.58913 0.74502 0.0
C6773 C 0.55666 0.59601 0.75184 0.0
C6774 C 0.54533 0.59081 0.75684 0.0
C6775 C 0.57189 0.59482 0.739 0.0
C6776 C 0.58209 0.60123 0.74641 0.0
C6777 C 0.57301 0.59381 0.72603 0.0
C6778 C 0.56255 0.58763 0.71761 0.0
C6779 C 0.554 0.59109 0.71728 0.0
C6780 C 0.5441 0.58514 0.70944 0.0
C6781 C 0.5427 0.57578 0.70181 0.0
C6782 C 0.55122 0.57238 0.70198 0.0
C6783 C 0.56113 0.57829 0.70982 0.0
H6784 H 0.53503 0.57118 0.69575 0.0
H6785 H 0.63141 0.6293 0.77149 0.0
H6786 H 0.67884 0.71419 0.62987 0.0
H6787 H 0.67141 0.72608 0.62036 0.0
H6788 H 0.64249 0.7121 0.64612 0.0
H6789 H 0.6499 0.70027 0.65572 0.0
H6790 H 0.63499 0.71139 0.62245 0.0
H6791 H 0.66591 0.74012 0.6497 0.0
H6792 H 0.68629 0.75149 0.65804 0.0
H6793 H 0.69897 0.76598 0.62202 0.0
H6794 H 0.67867 0.75457 0.61342 0.0
H6795 H 0.61302 0.74994 0.61268 0.0
H6796 H 0.62133 0.73854 0.6214 0.0
H6797 H 0.65174 0.75683 0.59786 0.0
H6798 H 0.6438 0.76873 0.58966 0.0
H6799 H 0.65885 0.75516 0.61949 0.0
H6800 H 0.62839 0.72708 0.59203 0.0
H6801 H 0.60825 0.71554 0.58309 0.0
H6802 H 0.59498 0.69952 0.61842 0.0
H6803 H 0.61502 0.71108 0.6276 0.0
C6804 C 0.67098 0.71376 0.6336 0.0
C6805 C 0.66494 0.70627 0.64353 0.0
C6806 C 0.66673 0.72054 0.62815 0.0
C6807 C 0.65643 0.72002 0.63258 0.0
C6808 C 0.65043 0.7126 0.64252 0.0
C6809 C 0.65465 0.70582 0.64797 0.0
C6810 C 0.65173 0.72702 0.62674 0.0
C6811 C 0.64015 0.72098 0.62192 0.0
C6812 C 0.6586 0.73948 0.62571 0.0
C6813 C 0.67079 0.7464 0.63089 0.0
C6814 C 0.67306 0.74566 0.64354 0.0
C6815 C 0.68459 0.75213 0.64831 0.0
C6816 C 0.69392 0.75943 0.64056 0.0
C6817 C 0.69173 0.76031 0.62801 0.0
C6818 C 0.68021 0.75385 0.62319 0.0
C6819 C 0.62144 0.75145 0.60931 0.0
C6820 C 0.62758 0.76002 0.60026 0.0
C6821 C 0.62616 0.7449 0.61424 0.0
C6822 C 0.63704 0.7466 0.61006 0.0
C6823 C 0.64328 0.75527 0.60115 0.0
C6824 C 0.63867 0.762 0.59639 0.0
C6825 C 0.64203 0.73955 0.61524 0.0
C6826 C 0.65368 0.74557 0.61994 0.0
C6827 C 0.63525 0.72704 0.61605 0.0
C6828 C 0.6232 0.72002 0.61052 0.0
C6829 C 0.62116 0.72115 0.59791 0.0
C6830 C 0.60977 0.7146 0.5928 0.0
C6831 C 0.60034 0.70682 0.60019 0.0
C6832 C 0.60229 0.70556 0.6127 0.0
C6833 C 0.61367 0.7121 0.61786 0.0
H6834 H 0.59152 0.70176 0.59622 0.0
H6835 H 0.70285 0.76442 0.64427 0.0
H6836 H 0.30094 0.96175 0.62663 0.0
H6837 H 0.28992 0.94185 0.61735 0.0
H6838 H 0.27105 0.9285 0.65156 0.0
H6839 H 0.28177 0.94841 0.66082 0.0
H6840 H 0.2812 0.91565 0.64244 0.0
H6841 H 0.25703 0.93105 0.62713 0.0
H6842 H 0.25351 0.94545 0.61621 0.0
H6843 H 0.26695 0.939 0.58252 0.0
H6844 H 0.2707 0.92468 0.59329 0.0
H6845 H 0.23919 0.85102 0.62288 0.0
H6846 H 0.25139 0.87471 0.63325 0.0
H6847 H 0.26178 0.89215 0.59071 0.0
H6848 H 0.24962 0.86877 0.5792 0.0
H6849 H 0.25588 0.90421 0.60454 0.0
H6850 H 0.28111 0.89028 0.61828 0.0
H6851 H 0.28676 0.87693 0.62813 0.0
H6852 H 0.2742 0.88176 0.66325 0.0
H6853 H 0.26834 0.89503 0.65358 0.0
C6854 C 0.29427 0.95465 0.63211 0.0
C6855 C 0.29229 0.9567 0.6445 0.0
C6856 C 0.28801 0.94326 0.6268 0.0
C6857 C 0.27966 0.93372 0.63377 0.0
C6858 C 0.2775 0.93575 0.64605 0.0
C6859 C 0.28368 0.94713 0.65134 0.0
C6860 C 0.2736 0.92151 0.62849 0.0
C6861 C 0.27548 0.91305 0.63428 0.0
C6862 C 0.26658 0.91833 0.61755 0.0
C6863 C 0.26424 0.92687 0.61105 0.0
C6864 C 0.25932 0.93277 0.61742 0.0
C6865 C 0.25727 0.94091 0.61125 0.0
C6866 C 0.26003 0.94316 0.59869 0.0
C6867 C 0.26482 0.93726 0.59225 0.0
C6868 C 0.2669 0.92912 0.59838 0.0
C6869 C 0.24394 0.85859 0.61695 0.0
C6870 C 0.24136 0.8575 0.59985 0.0
C6871 C 0.25116 0.87344 0.62329 0.0
C6872 C 0.25748 0.88609 0.61316 0.0
C6873 C 0.25747 0.88439 0.59644 0.0
C6874 C 0.25043 0.8699 0.5892 0.0
C6875 C 0.26336 0.89823 0.61855 0.0
C6876 C 0.26152 0.90671 0.61274 0.0
C6877 C 0.27066 0.90153 0.62933 0.0
C6878 C 0.27414 0.89353 0.63516 0.0
C6879 C 0.27947 0.88842 0.62808 0.0
C6880 C 0.28272 0.88088 0.63364 0.0
C6881 C 0.2808 0.87847 0.6463 0.0
C6882 C 0.27566 0.88362 0.65344 0.0
C6883 C 0.27238 0.89116 0.64793 0.0
H6884 H 0.28332 0.87263 0.65058 0.0
H6885 H 0.25844 0.94946 0.59393 0.0
H6886 H 0.04495 0.32029 0.64218 0.0
H6887 H 0.06375 0.32817 0.63156 0.0
H6888 H 0.06955 0.36357 0.63575 0.0
H6889 H 0.0503 0.35569 0.64525 0.0
H6890 H 0.0765 0.36171 0.61431 0.0
H6891 H 0.08296 0.35106 0.6553 0.0
H6892 H 0.079 0.33745 0.67265 0.0
H6893 H 0.0855 0.3148 0.64889 0.0
H6894 H 0.08937 0.3282 0.63136 0.0
H6895 H 0.13861 0.39514 0.60668 0.0
H6896 H 0.11845 0.38559 0.61464 0.0
H6897 H 0.11431 0.35124 0.60693 0.0
H6898 H 0.13461 0.36076 0.59941 0.0
H6899 H 0.10614 0.35158 0.62899 0.0
H6900 H 0.10101 0.36328 0.58834 0.0
H6901 H 0.1053 0.37728 0.57132 0.0
H6902 H 0.09665 0.39847 0.59489 0.0
H6903 H 0.09245 0.38467 0.6121 0.0
C6904 C 0.05009 0.32973 0.64066 0.0
C6905 C 0.04605 0.33732 0.64474 0.0
C6906 C 0.06097 0.33426 0.63474 0.0
C6907 C 0.06825 0.34652 0.6331 0.0
C6908 C 0.06417 0.35409 0.63698 0.0
C6909 C 0.05319 0.34955 0.64262 0.0
C6910 C 0.08011 0.35154 0.62736 0.0
C6911 C 0.08302 0.35958 0.61763 0.0
C6912 C 0.08855 0.34856 0.63143 0.0
C6913 C 0.08634 0.34057 0.642 0.0
C6914 C 0.08348 0.34314 0.65377 0.0
C6915 C 0.08126 0.33547 0.66363 0.0
C6916 C 0.08197 0.32525 0.66187 0.0
C6917 C 0.08494 0.32271 0.65024 0.0
C6918 C 0.08716 0.33034 0.64034 0.0
C6919 C 0.13332 0.38555 0.60654 0.0
C6920 C 0.13807 0.37871 0.60209 0.0
C6921 C 0.1218 0.3801 0.61106 0.0
C6922 C 0.11476 0.36768 0.61113 0.0
C6923 C 0.11953 0.36083 0.60685 0.0
C6924 C 0.1311 0.36628 0.60246 0.0
C6925 C 0.10256 0.36186 0.61609 0.0
C6926 C 0.09959 0.35366 0.62565 0.0
C6927 C 0.0941 0.36475 0.61193 0.0
C6928 C 0.09649 0.37298 0.60154 0.0
C6929 C 0.10008 0.37096 0.58991 0.0
C6930 C 0.10249 0.37885 0.58023 0.0
C6931 C 0.10126 0.38877 0.58203 0.0
C6932 C 0.09759 0.39079 0.59351 0.0
C6933 C 0.09518 0.38292 0.60323 0.0
H6934 H 0.10314 0.39488 0.57453 0.0
H6935 H 0.08023 0.31932 0.66951 0.0
H6936 H 0.3093 0.34654 0.62934 0.0
H6937 H 0.29938 0.35569 0.61904 0.0
H6938 H 0.26968 0.33754 0.64348 0.0
H6939 H 0.27938 0.32801 0.65357 0.0
H6940 H 0.26254 0.3381 0.61972 0.0
H6941 H 0.29096 0.36584 0.64968 0.0
H6942 H 0.31078 0.37777 0.65925 0.0
H6943 H 0.32433 0.39571 0.62484 0.0
H6944 H 0.3046 0.38377 0.61502 0.0
H6945 H 0.23745 0.37492 0.61899 0.0
H6946 H 0.24638 0.36293 0.62371 0.0
H6947 H 0.2757 0.38478 0.59997 0.0
H6948 H 0.26692 0.39702 0.59553 0.0
H6949 H 0.28348 0.38203 0.62133 0.0
H6950 H 0.25457 0.35564 0.5918 0.0
H6951 H 0.2347 0.34385 0.58231 0.0
H6952 H 0.222 0.32344 0.61547 0.0
H6953 H 0.24176 0.33523 0.62524 0.0
C6954 C 0.30055 0.34428 0.63236 0.0
C6955 C 0.29517 0.33659 0.64235 0.0
C6956 C 0.29493 0.34961 0.62653 0.0
C6957 C 0.28387 0.34743 0.63061 0.0
C6958 C 0.27824 0.33938 0.64021 0.0
C6959 C 0.28385 0.33403 0.64604 0.0
C6960 C 0.27846 0.35405 0.6254 0.0
C6961 C 0.26706 0.3477 0.62013 0.0
C6962 C 0.2845 0.36659 0.62567 0.0
C6963 C 0.29634 0.37382 0.63158 0.0
C6964 C 0.29818 0.37227 0.64413 0.0
C6965 C 0.3094 0.37904 0.6496 0.0
C6966 C 0.31882 0.38747 0.64265 0.0
C6967 C 0.31703 0.38917 0.63021 0.0
C6968 C 0.30584 0.3824 0.62469 0.0
C6969 C 0.24568 0.377 0.61459 0.0
C6970 C 0.25136 0.38674 0.6067 0.0
C6971 C 0.25076 0.37013 0.61726 0.0
C6972 C 0.26162 0.37282 0.61203 0.0
C6973 C 0.26727 0.38248 0.60403 0.0
C6974 C 0.26222 0.38941 0.60143 0.0
C6975 C 0.26747 0.3661 0.61568 0.0
C6976 C 0.27897 0.37244 0.62072 0.0
C6977 C 0.26152 0.35356 0.61517 0.0
C6978 C 0.24964 0.34638 0.60929 0.0
C6979 C 0.24752 0.34869 0.59711 0.0
C6980 C 0.23628 0.342 0.59167 0.0
C6981 C 0.22709 0.33291 0.59829 0.0
C6982 C 0.22913 0.33048 0.61035 0.0
C6983 C 0.24035 0.33716 0.61584 0.0
H6984 H 0.2184 0.32775 0.59406 0.0
H6985 H 0.3275 0.39271 0.6469 0.0
H6986 H 0.66098 0.95072 0.6564 0.0
H6987 H 0.65034 0.93114 0.64638 0.0
H6988 H 0.65976 0.94728 0.61037 0.0
H6989 H 0.66999 0.9669 0.6203 0.0
H6990 H 0.63707 0.9307 0.61066 0.0
H6991 H 0.67349 0.93324 0.62303 0.0
H6992 H 0.6894 0.93633 0.6376 0.0
H6993 H 0.66437 0.90725 0.65944 0.0
H6994 H 0.64826 0.90408 0.64508 0.0
H6995 H 0.62311 0.8799 0.57396 0.0
H6996 H 0.63384 0.89904 0.58494 0.0
H6997 H 0.62097 0.8816 0.61992 0.0
H6998 H 0.61018 0.86239 0.60895 0.0
H6999 H 0.64499 0.89845 0.62066 0.0
H7000 H 0.60866 0.89576 0.60785 0.0
H7001 H 0.59294 0.8926 0.59298 0.0
H7002 H 0.61813 0.92207 0.57166 0.0
H7003 H 0.63405 0.92529 0.58632 0.0
C7004 C 0.66074 0.95011 0.64634 0.0
C7005 C 0.66636 0.9604 0.63915 0.0
C7006 C 0.65475 0.9389 0.64063 0.0
C7007 C 0.65435 0.93773 0.62762 0.0
C7008 C 0.65998 0.94797 0.62042 0.0
C7009 C 0.66593 0.95918 0.62612 0.0
C7010 C 0.6478 0.92586 0.62147 0.0
C7011 C 0.63892 0.92371 0.61273 0.0
C7012 C 0.64999 0.91663 0.62441 0.0
C7013 C 0.65965 0.9185 0.63305 0.0
C7014 C 0.67136 0.92757 0.631 0.0
C7015 C 0.68042 0.92932 0.63921 0.0
C7016 C 0.67789 0.92201 0.64946 0.0
C7017 C 0.66631 0.91291 0.65151 0.0
C7018 C 0.65721 0.91113 0.64333 0.0
C7019 C 0.6226 0.88016 0.58399 0.0
C7020 C 0.61585 0.86966 0.59061 0.0
C7021 C 0.62869 0.89108 0.59024 0.0
C7022 C 0.62813 0.89173 0.60323 0.0
C7023 C 0.62153 0.88126 0.60989 0.0
C7024 C 0.61536 0.87032 0.60363 0.0
C7025 C 0.63438 0.90337 0.6098 0.0
C7026 C 0.64316 0.90546 0.61862 0.0
C7027 C 0.63214 0.91257 0.60692 0.0
C7028 C 0.62257 0.9107 0.59812 0.0
C7029 C 0.61087 0.90151 0.59994 0.0
C7030 C 0.60191 0.89971 0.59156 0.0
C7031 C 0.60453 0.90711 0.58136 0.0
C7032 C 0.61611 0.91634 0.57955 0.0
C7033 C 0.6251 0.91816 0.5879 0.0
H7034 H 0.59759 0.90571 0.57489 0.0
H7035 H 0.68492 0.92338 0.65581 0.0
H7036 H 0.03129 0.70684 0.62951 0.0
H7037 H 0.05061 0.71599 0.61971 0.0
H7038 H 0.06687 0.71654 0.65483 0.0
H7039 H 0.04761 0.70785 0.66485 0.0
H7040 H 0.08027 0.73664 0.64273 0.0
H7041 H 0.06123 0.69527 0.63286 0.0
H7042 H 0.04518 0.67587 0.62516 0.0
H7043 H 0.04781 0.69016 0.58885 0.0
H7044 H 0.06376 0.7097 0.59637 0.0
H7045 H 0.13406 0.74592 0.61565 0.0
H7046 H 0.11546 0.73754 0.62707 0.0
H7047 H 0.09717 0.73726 0.59353 0.0
H7048 H 0.11569 0.74551 0.58208 0.0
H7049 H 0.0852 0.71662 0.60569 0.0
H7050 H 0.10424 0.75833 0.61621 0.0
H7051 H 0.12053 0.77743 0.62427 0.0
H7052 H 0.11825 0.76198 0.65984 0.0
H7053 H 0.10204 0.74273 0.65194 0.0
C7054 C 0.03898 0.70909 0.63522 0.0
C7055 C 0.03787 0.70655 0.64797 0.0
C7056 C 0.05002 0.7142 0.62956 0.0
C7057 C 0.06016 0.71675 0.63649 0.0
C7058 C 0.05915 0.71457 0.64929 0.0
C7059 C 0.04812 0.70951 0.65497 0.0
C7060 C 0.07175 0.72149 0.6303 0.0
C7061 C 0.0814 0.73218 0.63473 0.0
C7062 C 0.07319 0.71574 0.61979 0.0
C7063 C 0.06362 0.70398 0.61521 0.0
C7064 C 0.05832 0.6943 0.62326 0.0
C7065 C 0.04925 0.68328 0.61892 0.0
C7066 C 0.04545 0.68179 0.60653 0.0
C7067 C 0.05074 0.69133 0.59844 0.0
C7068 C 0.05981 0.70238 0.60274 0.0
C7069 C 0.12607 0.74415 0.61077 0.0
C7070 C 0.12635 0.74656 0.59804 0.0
C7071 C 0.11547 0.73938 0.61729 0.0
C7072 C 0.10496 0.73693 0.61118 0.0
C7073 C 0.10519 0.73914 0.59843 0.0
C7074 C 0.11577 0.74391 0.59192 0.0
C7075 C 0.09366 0.73187 0.61798 0.0
C7076 C 0.08407 0.72107 0.61369 0.0
C7077 C 0.09232 0.73748 0.62867 0.0
C7078 C 0.10201 0.74907 0.63345 0.0
C7079 C 0.10727 0.75898 0.62572 0.0
C7080 C 0.11648 0.76984 0.63027 0.0
C7081 C 0.12044 0.77091 0.64255 0.0
C7082 C 0.11518 0.76113 0.65033 0.0
C7083 C 0.10598 0.75025 0.64582 0.0
H7084 H 0.12757 0.77932 0.64605 0.0
H7085 H 0.03843 0.67325 0.60319 0.0
H7086 H 0.00065 0.62641 0.69819 0.0
H7087 H 0.00375 0.61137 0.70784 0.0
H7088 H 0.96893 0.59537 0.72372 0.0
H7089 H 0.96593 0.6106 0.71433 0.0
H7090 H 0.98391 0.59597 0.74025 0.0
H7091 H 0.97515 0.58364 0.69736 0.0
H7092 H 0.97762 0.58591 0.67467 0.0
H7093 H 0.01311 0.59258 0.67825 0.0
H7094 H 0.0109 0.59051 0.701 0.0
H7095 H 0.97419 0.53829 0.75153 0.0
H7096 H 0.97348 0.55536 0.74362 0.0
H7097 H 0.01033 0.57208 0.73401 0.0
H7098 H 0.01114 0.55506 0.7421 0.0
H7099 H 0.99559 0.5718 0.71472 0.0
H7100 H 0.00346 0.58274 0.75786 0.0
H7101 H 0.00026 0.57973 0.78039 0.0
H7102 H 0.96547 0.57478 0.77607 0.0
H7103 H 0.96839 0.57759 0.75347 0.0
C7104 C 0.99364 0.61964 0.7037 0.0
C7105 C 0.98302 0.61961 0.70546 0.0
C7106 C 0.99542 0.61105 0.7092 0.0
C7107 C 0.9865 0.60212 0.71636 0.0
C7108 C 0.97594 0.60217 0.71825 0.0
C7109 C 0.97422 0.61086 0.71288 0.0
C7110 C 0.98813 0.59268 0.72183 0.0
C7111 C 0.98633 0.59061 0.73463 0.0
C7112 C 0.99157 0.58584 0.71457 0.0
C7113 C 0.9929 0.58704 0.70089 0.0
C7114 C 0.98351 0.58568 0.69332 0.0
C7115 C 0.98486 0.58692 0.68045 0.0
C7116 C 0.99552 0.58942 0.67503 0.0
C7117 C 0.00486 0.59066 0.68247 0.0
C7118 C 0.00356 0.58945 0.69535 0.0
C7119 C 0.98216 0.54564 0.74782 0.0
C7120 C 0.99271 0.54533 0.74737 0.0
C7121 C 0.98175 0.55539 0.74333 0.0
C7122 C 0.99187 0.56498 0.73828 0.0
C7123 C 0.00243 0.56474 0.73787 0.0
C7124 C 0.00288 0.55505 0.74248 0.0
C7125 C 0.99125 0.57506 0.73306 0.0
C7126 C 0.99323 0.57723 0.72032 0.0
C7127 C 0.98787 0.5819 0.74034 0.0
C7128 C 0.98611 0.58027 0.75394 0.0
C7129 C 0.99509 0.58091 0.76169 0.0
C7130 C 0.99333 0.57926 0.77448 0.0
C7131 C 0.98266 0.57704 0.77966 0.0
C7132 C 0.97373 0.57649 0.77205 0.0
C7133 C 0.97544 0.57812 0.75925 0.0
H7134 H 0.98132 0.57576 0.78956 0.0
H7135 H 0.99655 0.59038 0.66506 0.0
H7136 H 0.38874 0.38664 0.70118 0.0
H7137 H 0.39889 0.40589 0.71203 0.0
H7138 H 0.37304 0.39193 0.74113 0.0
H7139 H 0.36283 0.37263 0.7303 0.0
H7140 H 0.37633 0.41296 0.73143 0.0
H7141 H 0.40009 0.39798 0.7476 0.0
H7142 H 0.41244 0.38875 0.74657 0.0
H7143 H 0.43781 0.41742 0.72453 0.0
H7144 H 0.42552 0.42675 0.72526 0.0
H7145 H 0.40498 0.46756 0.76443 0.0
H7146 H 0.39664 0.44634 0.76023 0.0
H7147 H 0.42242 0.45436 0.73157 0.0
H7148 H 0.431 0.47554 0.73603 0.0
H7149 H 0.41877 0.43529 0.74368 0.0
H7150 H 0.39441 0.44884 0.72494 0.0
H7151 H 0.38218 0.45823 0.72476 0.0
H7152 H 0.35804 0.43235 0.7502 0.0
H7153 H 0.37024 0.42291 0.75066 0.0
C7154 C 0.3853 0.38766 0.70995 0.0
C7155 C 0.375 0.37816 0.7149 0.0
C7156 C 0.39114 0.39862 0.71617 0.0
C7157 C 0.38675 0.4003 0.72742 0.0
C7158 C 0.37659 0.39078 0.7325 0.0
C7159 C 0.37082 0.37976 0.72634 0.0
C7160 C 0.3923 0.41224 0.73334 0.0
C7161 C 0.38555 0.41776 0.73437 0.0
C7162 C 0.4044 0.41858 0.73685 0.0
C7163 C 0.41183 0.41302 0.73641 0.0
C7164 C 0.40825 0.40227 0.74245 0.0
C7165 C 0.41525 0.39703 0.74193 0.0
C7166 C 0.42589 0.40248 0.73547 0.0
C7167 C 0.42956 0.4132 0.72952 0.0
C7168 C 0.42259 0.41848 0.73 0.0
C7169 C 0.40904 0.46477 0.75746 0.0
C7170 C 0.41874 0.47318 0.75065 0.0
C7171 C 0.40421 0.45266 0.75499 0.0
C7172 C 0.40881 0.44876 0.74547 0.0
C7173 C 0.41875 0.45715 0.73898 0.0
C7174 C 0.42363 0.46923 0.74152 0.0
C7175 C 0.40283 0.43607 0.74164 0.0
C7176 C 0.40951 0.43042 0.74095 0.0
C7177 C 0.39068 0.42963 0.73827 0.0
C7178 C 0.38331 0.43525 0.73795 0.0
C7179 C 0.38654 0.4452 0.73056 0.0
C7180 C 0.37961 0.45053 0.7304 0.0
C7181 C 0.36936 0.44591 0.7375 0.0
C7182 C 0.366 0.43593 0.74473 0.0
C7183 C 0.37291 0.43059 0.74495 0.0
H7184 H 0.36401 0.45004 0.73736 0.0
H7185 H 0.43129 0.39841 0.73508 0.0
H7186 H 0.64683 0.01985 0.71965 0.0
H7187 H 0.62893 0.01491 0.73114 0.0
H7188 H 0.60902 0.00594 0.69672 0.0
H7189 H 0.62699 0.01119 0.68512 0.0
H7190 H 0.6029 0.01832 0.71258 0.0
H7191 H 0.60762 0.98439 0.71428 0.0
H7192 H 0.61821 0.97365 0.7182 0.0
H7193 H 0.62238 0.9841 0.75674 0.0
H7194 H 0.61195 0.99507 0.75301 0.0
H7195 H 0.5456 0.98413 0.73909 0.0
H7196 H 0.56356 0.99054 0.72697 0.0
H7197 H 0.58438 0.00066 0.76082 0.0
H7198 H 0.56647 0.99431 0.77298 0.0
H7199 H 0.58983 0.98762 0.74492 0.0
H7200 H 0.58493 0.02152 0.74305 0.0
H7201 H 0.57418 0.03208 0.73894 0.0
H7202 H 0.57006 0.02131 0.70051 0.0
H7203 H 0.58064 0.01053 0.70442 0.0
C7204 C 0.63869 0.01701 0.7145 0.0
C7205 C 0.63832 0.01587 0.70147 0.0
C7206 C 0.62845 0.01409 0.72109 0.0
C7207 C 0.61762 0.0099 0.71479 0.0
C7208 C 0.61728 0.0091 0.70176 0.0
C7209 C 0.62753 0.01202 0.69516 0.0
C7210 C 0.60661 0.00604 0.72183 0.0
C7211 C 0.59995 0.0115 0.71954 0.0
C7212 C 0.60288 0.99728 0.73105 0.0
C7213 C 0.60911 0.99065 0.73333 0.0
C7214 C 0.61088 0.98448 0.72357 0.0
C7215 C 0.61684 0.97834 0.72576 0.0
C7216 C 0.62099 0.97822 0.7377 0.0
C7217 C 0.61917 0.98422 0.74749 0.0
C7218 C 0.61323 0.99039 0.74534 0.0
C7219 C 0.55402 0.98779 0.74393 0.0
C7220 C 0.55466 0.98881 0.75697 0.0
C7221 C 0.56426 0.99146 0.737 0.0
C7222 C 0.5753 0.99617 0.743 0.0
C7223 C 0.57595 0.99708 0.75602 0.0
C7224 C 0.56573 0.99348 0.76294 0.0
C7225 C 0.58616 0.99995 0.73574 0.0
C7226 C 0.59278 0.99444 0.73796 0.0
C7227 C 0.58981 0.00862 0.72644 0.0
C7228 C 0.58347 0.01512 0.72406 0.0
C7229 C 0.58164 0.02132 0.73374 0.0
C7230 C 0.5756 0.02736 0.73145 0.0
C7231 C 0.57141 0.02734 0.71948 0.0
C7232 C 0.57329 0.0213 0.70978 0.0
C7233 C 0.57932 0.01523 0.71203 0.0
H7234 H 0.56674 0.03203 0.71772 0.0
H7235 H 0.6256 0.97345 0.73938 0.0
loop_
_geom_bond_atom_site_label_1
_geom_bond_atom_site_label_2
_geom_bond_distance
_geom_bond_site_symmetry_2
_ccdc_geom_bond_type
Li0 N17 1.990 1_554 S
Li0 O60 1.970 . S
Li0 O61 1.970 1_654 S
Li0 O62 1.961 . S
Li1 N25 1.990 . S
Li1 O60 1.940 1_455 S
Li1 O61 1.956 1_554 S
Li1 O63 1.961 . S
Li2 N47 1.990 . S
Li2 O60 1.983 . S
Li2 O62 1.959 . S
Li2 O63 1.970 1_655 S
Li3 N53 1.990 . S
Li3 O61 1.961 . S
Li3 O62 1.970 1_456 S
Li3 O63 1.956 1_556 S
C4 C6 1.260 1_655 S
C4 C7 1.356 . S
C4 O60 1.326 . S
N5 C8 1.314 . S
N5 C9 1.279 . S
C6 C4 1.260 1_455 S
C6 C8 1.350 1_455 S
C6 H64 1.027 . S
C7 C4 1.356 . S
C7 C9 1.358 . S
C7 H65 0.930 . S
C8 N5 1.314 . S
C8 C6 1.350 1_655 S
C8 H66 0.877 1_655 S
C9 N5 1.279 . S
C9 C7 1.358 . S
C9 H67 0.930 . S
C10 C13 1.348 . S
C10 C14 1.356 . S
C10 O61 1.325 . S
C11 N12 1.279 . S
C11 C14 1.358 . S
C11 H68 0.930 . S
N12 C11 1.279 . S
N12 C15 1.314 . S
C13 C10 1.348 . S
C13 C15 1.353 . S
C13 H69 0.987 . S
C14 C10 1.356 . S
C14 C11 1.358 . S
C14 H70 0.930 . S
C15 N12 1.314 . S
C15 C13 1.353 . S
C15 H71 0.930 . S
C16 N17 1.314 . S
C16 C21 1.353 . S
C16 H22 0.930 . S
N17 Li0 1.990 1_556 S
N17 C16 1.314 . S
N17 C19 1.279 1_556 S
C18 C19 1.358 1_556 S
C18 C20 1.356 . S
C18 H72 0.930 1_556 S
C19 N17 1.279 1_554 S
C19 C18 1.358 1_554 S
C19 H23 0.930 . S
C20 C18 1.356 . S
C20 C21 1.348 . S
C21 C16 1.353 . S
C21 C20 1.348 . S
C21 H73 0.929 . S
H22 C16 0.930 . S
H23 C19 0.930 . S
C24 N25 1.314 . S
C24 C26 1.353 . S
C24 H30 0.930 . S
N25 Li1 1.990 . S
N25 C24 1.314 . S
N25 C28 1.279 . S
C26 C24 1.353 . S
C26 C29 1.348 . S
C26 H74 0.929 . S
C27 C28 1.358 . S
C27 C29 1.356 . S
C27 H75 0.930 . S
C28 N25 1.279 . S
C28 C27 1.358 . S
C28 H31 0.930 . S
C29 C26 1.348 . S
C29 C27 1.356 . S
H30 C24 0.930 . S
H31 C28 0.930 . S
C32 C34 1.348 . S
C32 C35 1.354 . S
C32 O62 1.324 1_556 S
N33 C36 1.314 . S
N33 C37 1.279 . S
C34 C32 1.348 . S
C34 C36 1.353 . S
C34 H76 0.929 . S
C35 C32 1.354 . S
C35 C37 1.356 . S
C35 H77 0.934 1_556 S
C36 N33 1.314 . S
C36 C34 1.353 . S
C36 H78 0.930 . S
C37 N33 1.279 . S
C37 C35 1.356 . S
C37 H79 0.930 . S
C38 C39 1.348 . S
C38 C40 1.356 . S
C38 O63 1.325 . S
C39 C38 1.348 . S
C39 C41 1.353 . S
C39 H80 0.929 . S
C40 C38 1.356 . S
C40 C42 1.358 . S
C40 H81 0.930 . S
C41 C39 1.353 . S
C41 N43 1.314 . S
C41 H82 0.930 . S
C42 C40 1.358 . S
C42 N43 1.279 . S
C42 H83 0.930 . S
N43 C41 1.314 . S
N43 C42 1.279 . S
C44 C46 1.353 . S
C44 N47 1.314 . S
C44 H50 0.949 . S
C45 N47 1.279 . S
C45 C48 1.358 . S
C45 H51 0.930 . S
C46 C44 1.353 . S
C46 C49 1.348 . S
C46 H84 0.929 . S
N47 Li2 1.990 . S
N47 C44 1.314 . S
N47 C45 1.279 . S
C48 C45 1.358 . S
C48 C49 1.356 . S
C48 H85 0.930 . S
C49 C46 1.348 . S
C49 C48 1.356 . S
H50 C44 0.949 . S
H51 C45 0.930 . S
C52 N53 1.314 . S
C52 C54 1.353 . S
C52 H58 0.930 . S
N53 Li3 1.990 . S
N53 C52 1.314 . S
N53 C56 1.279 . S
C54 C52 1.353 . S
C54 C57 1.348 . S
C54 H86 0.929 . S
C55 C56 1.358 . S
C55 C57 1.356 . S
C55 H87 0.930 . S
C56 N53 1.279 . S
C56 C55 1.358 . S
C56 H59 0.930 . S
C57 C54 1.348 . S
C57 C55 1.356 . S
H58 C52 0.930 . S
H59 C56 0.930 . S
O60 Li0 1.970 . S
O60 Li1 1.940 1_655 S
O60 Li2 1.983 . S
O60 C4 1.326 . S
O61 Li0 1.970 1_456 S
O61 Li1 1.956 1_556 S
O61 Li3 1.961 . S
O61 C10 1.325 . S
O62 Li0 1.961 . S
O62 Li2 1.959 . S
O62 Li3 1.970 1_654 S
O62 C32 1.324 1_554 S
O63 Li1 1.961 . S
O63 Li2 1.970 1_455 S
O63 Li3 1.956 1_554 S
O63 C38 1.325 . S
H64 C6 1.027 . S
H65 C7 0.930 . S
H66 C8 0.877 1_455 S
H67 C9 0.930 . S
H68 C11 0.930 . S
H69 C13 0.987 . S
H70 C14 0.930 . S
H71 C15 0.930 . S
H72 C18 0.930 1_554 S
H73 C21 0.929 . S
H74 C26 0.929 . S
H75 C27 0.930 . S
H76 C34 0.929 . S
H77 C35 0.934 1_554 S
H78 C36 0.930 . S
H79 C37 0.930 . S
H80 C39 0.929 . S
H81 C40 0.930 . S
H82 C41 0.930 . S
H83 C42 0.930 . S
H84 C46 0.929 . S
H85 C48 0.930 . S
H86 C54 0.929 . S
H87 C55 0.930 . S
Li88 N105 1.990 . S
Li88 O148 1.956 . S
Li88 O149 1.970 . S
Li88 O150 1.961 . S
Li89 N113 1.990 . S
Li89 O148 1.970 . S
Li89 O149 1.956 . S
Li89 O151 1.961 . S
Li90 N135 1.990 . S
Li90 O148 1.961 . S
Li90 O150 1.956 . S
Li90 O151 1.970 . S
Li91 N141 1.990 1_554 S
Li91 O149 1.961 . S
Li91 O150 1.970 . S
Li91 O151 1.956 . S
C92 C94 1.348 . S
C92 C95 1.356 . S
C92 O148 1.325 . S
N93 C96 1.314 . S
N93 C97 1.279 . S
C94 C92 1.348 . S
C94 C96 1.353 . S
C94 H152 0.929 . S
C95 C92 1.356 . S
C95 C97 1.358 . S
C95 H153 0.930 . S
C96 N93 1.314 . S
C96 C94 1.353 . S
C96 H154 0.930 . S
C97 N93 1.279 . S
C97 C95 1.358 . S
C97 H155 0.930 . S
C98 C101 1.348 . S
C98 C102 1.356 . S
C98 O149 1.325 1_556 S
C99 N100 1.279 . S
C99 C102 1.358 . S
C99 H156 0.930 . S
N100 C99 1.279 . S
N100 C103 1.314 . S
C101 C98 1.348 . S
C101 C103 1.353 . S
C101 H157 0.929 . S
C102 C98 1.356 . S
C102 C99 1.358 . S
C102 H158 0.930 . S
C103 N100 1.314 . S
C103 C101 1.353 . S
C103 H159 0.930 . S
C104 N105 1.314 1_556 S
C104 C109 1.353 . S
C104 H110 0.930 . S
N105 Li88 1.990 . S
N105 C104 1.314 1_554 S
N105 C107 1.279 . S
C106 C107 1.393 . S
C106 C108 1.285 1_554 S
C106 H160 0.971 . S
C107 N105 1.279 . S
C107 C106 1.393 . S
C107 H111 0.930 . S
C108 C106 1.285 1_556 S
C108 C109 1.348 . S
C109 C104 1.353 . S
C109 C108 1.348 . S
C109 H161 0.929 . S
H110 C104 0.930 . S
H111 C107 0.930 . S
C112 N113 1.314 . S
C112 C114 1.353 . S
C112 H118 0.930 . S
N113 Li89 1.990 . S
N113 C112 1.314 . S
N113 C116 1.279 . S
C114 C112 1.353 . S
C114 C117 1.348 . S
C114 H162 0.929 . S
C115 C116 1.358 . S
C115 C117 1.356 . S
C115 H163 0.930 . S
C116 N113 1.279 . S
C116 C115 1.358 . S
C116 H119 0.930 . S
C117 C114 1.348 . S
C117 C115 1.356 . S
H118 C112 0.930 . S
H119 C116 0.930 . S
C120 C122 1.348 1_554 S
C120 C123 1.356 . S
C120 O150 1.325 . S
N121 C124 1.314 . S
N121 C125 1.279 . S
C122 C120 1.348 1_556 S
C122 C124 1.353 . S
C122 H164 0.929 . S
C123 C120 1.356 . S
C123 C125 1.358 1_554 S
C123 H165 0.930 . S
C124 N121 1.314 . S
C124 C122 1.353 . S
C124 H166 0.930 . S
C125 N121 1.279 . S
C125 C123 1.358 1_556 S
C125 H167 0.941 . S
C126 C127 1.348 . S
C126 C128 1.356 . S
C126 O151 1.325 . S
C127 C126 1.348 . S
C127 C129 1.353 . S
C127 H168 0.929 . S
C128 C126 1.356 . S
C128 C130 1.358 . S
C128 H169 0.930 . S
C129 C127 1.353 . S
C129 N131 1.314 . S
C129 H170 0.930 . S
C130 C128 1.358 . S
C130 N131 1.279 . S
C130 H171 0.930 . S
N131 C129 1.314 . S
N131 C130 1.279 . S
C132 C134 1.353 . S
C132 N135 1.314 . S
C132 H138 0.930 . S
C133 N135 1.279 . S
C133 C136 1.358 . S
C133 H139 0.930 . S
C134 C132 1.353 . S
C134 C137 1.348 . S
C134 H172 0.929 . S
N135 Li90 1.990 . S
N135 C132 1.314 . S
N135 C133 1.279 . S
C136 C133 1.358 . S
C136 C137 1.356 . S
C136 H173 0.930 . S
C137 C134 1.348 . S
C137 C136 1.356 . S
H138 C132 0.930 . S
H139 C133 0.930 . S
C140 N141 1.314 . S
C140 C142 1.353 . S
C140 H146 0.930 . S
N141 Li91 1.990 1_556 S
N141 C140 1.314 . S
N141 C144 1.279 . S
C142 C140 1.353 . S
C142 C145 1.348 . S
C142 H174 0.929 . S
C143 C144 1.358 . S
C143 C145 1.356 . S
C143 H175 0.930 . S
C144 N141 1.279 . S
C144 C143 1.358 . S
C144 H147 0.930 1_556 S
C145 C142 1.348 . S
C145 C143 1.356 . S
H146 C140 0.930 . S
H147 C144 0.930 1_554 S
O148 Li88 1.956 . S
O148 Li89 1.970 . S
O148 Li90 1.961 . S
O148 C92 1.325 . S
O149 Li88 1.970 . S
O149 Li89 1.956 . S
O149 Li91 1.961 . S
O149 C98 1.325 1_554 S
O150 Li88 1.961 . S
O150 Li90 1.956 . S
O150 Li91 1.970 . S
O150 C120 1.325 . S
O151 Li89 1.961 . S
O151 Li90 1.970 . S
O151 Li91 1.956 . S
O151 C126 1.325 . S
H152 C94 0.929 . S
H153 C95 0.930 . S
H154 C96 0.930 . S
H155 C97 0.930 . S
H156 C99 0.930 . S
H157 C101 0.929 . S
H158 C102 0.930 . S
H159 C103 0.930 . S
H160 C106 0.971 . S
H161 C109 0.929 . S
H162 C114 0.929 . S
H163 C115 0.930 . S
H164 C122 0.929 . S
H165 C123 0.930 . S
H166 C124 0.930 . S
H167 C125 0.941 . S
H168 C127 0.929 . S
H169 C128 0.930 . S
H170 C129 0.930 . S
H171 C130 0.930 . S
H172 C134 0.929 . S
H173 C136 0.930 . S
H174 C142 0.929 . S
H175 C143 0.930 . S
Li176 N193 1.990 . S
Li176 O236 1.956 1_556 S
Li176 O237 1.970 1_566 S
Li176 O238 1.961 . S
Li177 N201 1.990 . S
Li177 O236 1.970 1_545 S
Li177 O237 1.956 . S
Li177 O239 1.961 . S
Li178 N223 1.990 . S
Li178 O236 1.961 . S
Li178 O238 1.956 1_554 S
Li178 O239 1.970 1_565 S
Li179 N229 1.990 1_554 S
Li179 O237 1.961 . S
Li179 O238 1.970 1_544 S
Li179 O239 1.956 . S
C180 C182 1.348 . S
C180 C183 1.356 . S
C180 O236 1.325 . S
N181 C184 1.314 . S
N181 C185 1.279 . S
C182 C180 1.348 . S
C182 C184 1.353 . S
C182 H240 0.929 . S
C183 C180 1.356 . S
C183 C185 1.358 . S
C183 H241 0.930 . S
C184 N181 1.314 . S
C184 C182 1.353 . S
C184 H242 0.930 . S
C185 N181 1.279 . S
C185 C183 1.358 . S
C185 H243 0.930 . S
C186 C189 1.348 . S
C186 C190 1.356 1_556 S
C186 O237 1.325 1_556 S
C187 N188 1.279 . S
C187 C190 1.358 1_556 S
C187 H244 0.929 1_556 S
N188 C187 1.279 . S
N188 C191 1.314 . S
C189 C186 1.348 . S
C189 C191 1.353 . S
C189 H245 0.929 . S
C190 C186 1.356 1_554 S
C190 C187 1.358 1_554 S
C190 H246 0.930 . S
C191 N188 1.314 . S
C191 C189 1.353 . S
C191 H247 0.930 . S
C192 N193 1.314 . S
C192 C197 1.353 . S
C192 H198 0.930 . S
N193 Li176 1.990 . S
N193 C192 1.314 . S
N193 C195 1.279 . S
C194 C195 1.358 . S
C194 C196 1.356 . S
C194 H248 0.930 . S
C195 N193 1.279 . S
C195 C194 1.358 . S
C195 H199 0.930 . S
C196 C194 1.356 . S
C196 C197 1.348 . S
C197 C192 1.353 . S
C197 C196 1.348 . S
C197 H249 0.929 . S
H198 C192 0.930 . S
H199 C195 0.930 . S
C200 N201 1.314 . S
C200 C202 1.353 . S
C200 H206 0.930 . S
N201 Li177 1.990 . S
N201 C200 1.314 . S
N201 C204 1.279 . S
C202 C200 1.353 . S
C202 C205 1.348 . S
C202 H250 0.929 . S
C203 C204 1.358 . S
C203 C205 1.356 . S
C203 H251 0.930 . S
C204 N201 1.279 . S
C204 C203 1.358 . S
C204 H207 0.930 . S
C205 C202 1.348 . S
C205 C203 1.356 . S
H206 C200 0.930 . S
H207 C204 0.930 . S
C208 C210 1.348 . S
C208 C211 1.356 . S
C208 O238 1.325 . S
N209 C212 1.314 . S
N209 C213 1.279 . S
C210 C208 1.348 . S
C210 C212 1.353 . S
C210 H252 0.929 1_565 S
C211 C208 1.356 . S
C211 C213 1.358 . S
C211 H253 0.930 . S
C212 N209 1.314 . S
C212 C210 1.353 . S
C212 H254 0.930 . S
C213 N209 1.279 . S
C213 C211 1.358 . S
C213 H255 0.930 . S
C214 C215 1.348 . S
C214 C216 1.356 . S
C214 O239 1.325 . S
C215 C214 1.348 . S
C215 C217 1.353 . S
C215 H256 0.929 1_545 S
C216 C214 1.356 . S
C216 C218 1.358 . S
C216 H257 0.930 . S
C217 C215 1.353 . S
C217 N219 1.314 . S
C217 H258 0.930 . S
C218 C216 1.358 . S
C218 N219 1.279 . S
C218 H259 0.930 . S
N219 C217 1.314 . S
N219 C218 1.279 . S
C220 C222 1.353 . S
C220 N223 1.314 . S
C220 H226 0.930 . S
C221 N223 1.279 . S
C221 C224 1.358 . S
C221 H227 0.930 . S
C222 C220 1.353 . S
C222 C225 1.348 . S
C222 H260 0.929 . S
N223 Li178 1.990 . S
N223 C220 1.314 . S
N223 C221 1.279 . S
C224 C221 1.358 . S
C224 C225 1.356 . S
C224 H261 0.930 . S
C225 C222 1.348 . S
C225 C224 1.356 . S
H226 C220 0.930 . S
H227 C221 0.930 . S
C228 N229 1.314 . S
C228 C230 1.353 . S
C228 H234 0.930 . S
N229 Li179 1.990 1_556 S
N229 C228 1.314 . S
N229 C232 1.279 1_556 S
C230 C228 1.353 . S
C230 C233 1.348 . S
C230 H262 0.929 . S
C231 C232 1.358 1_556 S
C231 C233 1.356 . S
C231 H263 0.930 1_556 S
C232 N229 1.279 1_554 S
C232 C231 1.358 1_554 S
C232 H235 0.930 . S
C233 C230 1.348 . S
C233 C231 1.356 . S
H234 C228 0.930 . S
H235 C232 0.930 . S
O236 Li176 1.956 1_554 S
O236 Li177 1.970 1_565 S
O236 Li178 1.961 . S
O236 C180 1.325 . S
O237 Li176 1.970 1_544 S
O237 Li177 1.956 . S
O237 Li179 1.961 . S
O237 C186 1.325 1_554 S
O238 Li176 1.961 . S
O238 Li178 1.956 1_556 S
O238 Li179 1.970 1_566 S
O238 C208 1.325 . S
O239 Li177 1.961 . S
O239 Li178 1.970 1_545 S
O239 Li179 1.956 . S
O239 C214 1.325 . S
H240 C182 0.929 . S
H241 C183 0.930 . S
H242 C184 0.930 . S
H243 C185 0.930 . S
H244 C187 0.929 1_554 S
H245 C189 0.929 . S
H246 C190 0.930 . S
H247 C191 0.930 . S
H248 C194 0.930 . S
H249 C197 0.929 . S
H250 C202 0.929 . S
H251 C203 0.930 . S
H252 C210 0.929 1_545 S
H253 C211 0.930 . S
H254 C212 0.930 . S
H255 C213 0.930 . S
H256 C215 0.929 1_565 S
H257 C216 0.930 . S
H258 C217 0.930 . S
H259 C218 0.930 . S
H260 C222 0.929 . S
H261 C224 0.930 . S
H262 C230 0.929 . S
H263 C231 0.930 1_554 S
Li264 N281 1.990 . S
Li264 O324 1.956 . S
Li264 O325 1.970 1_455 S
Li264 O326 1.961 1_554 S
Li265 N289 1.990 . S
Li265 O324 1.970 1_655 S
Li265 O325 1.956 . S
Li265 O327 1.961 . S
Li266 N311 2.051 . S
Li266 O324 1.886 1_556 S
Li266 O326 1.960 . S
Li266 O327 1.944 1_456 S
Li267 N317 1.995 . S
Li267 O325 1.961 . S
Li267 O326 1.970 1_654 S
Li267 O327 1.956 . S
C268 C270 1.348 . S
C268 C271 1.356 . S
C268 O324 1.325 . S
N269 C272 1.314 . S
N269 C273 1.279 . S
C270 C268 1.348 . S
C270 C272 1.353 . S
C270 H328 0.929 . S
C271 C268 1.356 . S
C271 C273 1.358 . S
C271 H329 0.930 . S
C272 N269 1.314 . S
C272 C270 1.353 . S
C272 H330 0.930 . S
C273 N269 1.279 . S
C273 C271 1.358 . S
C273 H331 0.930 . S
C274 C277 1.348 . S
C274 C278 1.356 . S
C274 O325 1.325 . S
C275 N276 1.279 . S
C275 C278 1.358 . S
C275 H332 0.930 . S
N276 C275 1.279 . S
N276 C279 1.314 . S
C277 C274 1.348 . S
C277 C279 1.353 . S
C277 H333 0.929 1_655 S
C278 C274 1.356 . S
C278 C275 1.358 . S
C278 H334 0.930 . S
C279 N276 1.314 . S
C279 C277 1.353 . S
C279 H335 0.971 . S
C280 N281 1.314 . S
C280 C285 1.353 . S
C280 H286 0.930 . S
N281 Li264 1.990 . S
N281 C280 1.314 . S
N281 C283 1.279 . S
C282 C283 1.358 . S
C282 C284 1.356 . S
C282 H336 0.930 . S
C283 N281 1.279 . S
C283 C282 1.358 . S
C283 H287 0.930 . S
C284 C282 1.356 . S
C284 C285 1.348 . S
C285 C280 1.353 . S
C285 C284 1.348 . S
C285 H337 0.929 . S
H286 C280 0.930 . S
H287 C283 0.930 . S
C288 N289 1.314 . S
C288 C290 1.353 . S
C288 H294 0.930 . S
N289 Li265 1.990 . S
N289 C288 1.314 . S
N289 C292 1.279 . S
C290 C288 1.353 . S
C290 C293 1.348 . S
C290 H338 0.929 . S
C291 C292 1.358 . S
C291 C293 1.356 . S
C291 H339 0.930 . S
C292 N289 1.279 . S
C292 C291 1.358 . S
C292 H295 0.930 . S
C293 C290 1.348 . S
C293 C291 1.356 . S
H294 C288 0.930 . S
H295 C292 0.930 . S
C296 C298 1.348 . S
C296 C299 1.356 . S
C296 O326 1.325 . S
N297 C300 1.314 . S
N297 C301 1.279 . S
C298 C296 1.348 . S
C298 C300 1.353 . S
C298 H340 0.929 1_455 S
C299 C296 1.356 . S
C299 C301 1.358 . S
C299 H341 0.930 . S
C300 N297 1.314 . S
C300 C298 1.353 . S
C300 H342 0.930 . S
C301 N297 1.279 . S
C301 C299 1.358 . S
C301 H343 0.930 . S
C302 C303 1.348 1_554 S
C302 C304 1.356 . S
C302 O327 1.325 . S
C303 C302 1.348 1_556 S
C303 C305 1.353 . S
C303 H344 0.929 . S
C304 C302 1.356 . S
C304 C306 1.358 . S
C304 H345 0.930 . S
C305 C303 1.353 . S
C305 N307 1.314 . S
C305 H346 0.930 . S
C306 C304 1.358 . S
C306 N307 1.279 1_554 S
C306 H347 0.930 . S
N307 C305 1.314 . S
N307 C306 1.279 1_556 S
C308 C310 1.353 . S
C308 N311 1.314 . S
C308 H314 0.930 . S
C309 N311 1.279 . S
C309 C312 1.358 . S
C309 H315 0.930 . S
C310 C308 1.353 . S
C310 C313 1.348 . S
C310 H348 0.929 . S
N311 Li266 2.051 . S
N311 C308 1.314 . S
N311 C309 1.279 . S
C312 C309 1.358 . S
C312 C313 1.356 . S
C312 H349 0.930 . S
C313 C310 1.348 . S
C313 C312 1.356 . S
H314 C308 0.930 . S
H315 C309 0.930 . S
C316 N317 1.318 . S
C316 C318 1.327 1_554 S
C316 H322 0.930 . S
N317 Li267 1.995 . S
N317 C316 1.318 . S
N317 C320 1.269 1_554 S
C318 C316 1.327 1_556 S
C318 C321 1.408 . S
C318 H350 0.904 1_556 S
C319 C320 1.358 . S
C319 C321 1.356 . S
C319 H351 0.930 . S
C320 N317 1.269 1_556 S
C320 C319 1.358 . S
C320 H323 0.930 . S
C321 C318 1.408 . S
C321 C319 1.356 . S
H322 C316 0.930 . S
H323 C320 0.930 . S
O324 Li264 1.956 . S
O324 Li265 1.970 1_455 S
O324 Li266 1.886 1_554 S
O324 C268 1.325 . S
O325 Li264 1.970 1_655 S
O325 Li265 1.956 . S
O325 Li267 1.961 . S
O325 C274 1.325 . S
O326 Li264 1.961 1_556 S
O326 Li266 1.960 . S
O326 Li267 1.970 1_456 S
O326 C296 1.325 . S
O327 Li265 1.961 . S
O327 Li266 1.944 1_654 S
O327 Li267 1.956 . S
O327 C302 1.325 . S
H328 C270 0.929 . S
H329 C271 0.930 . S
H330 C272 0.930 . S
H331 C273 0.930 . S
H332 C275 0.930 . S
H333 C277 0.929 1_455 S
H334 C278 0.930 . S
H335 C279 0.971 . S
H336 C282 0.930 . S
H337 C285 0.929 . S
H338 C290 0.929 . S
H339 C291 0.930 . S
H340 C298 0.929 1_655 S
H341 C299 0.930 . S
H342 C300 0.930 . S
H343 C301 0.930 . S
H344 C303 0.929 . S
H345 C304 0.930 . S
H346 C305 0.930 . S
H347 C306 0.930 . S
H348 C310 0.929 . S
H349 C312 0.930 . S
H350 C318 0.904 1_554 S
H351 C319 0.930 . S
Li352 N369 1.990 . S
Li352 O412 1.956 . S
Li352 O413 1.970 . S
Li352 O414 1.961 1_554 S
Li353 N377 1.990 . S
Li353 O412 1.970 . S
Li353 O413 1.956 . S
Li353 O415 1.961 1_554 S
Li354 N399 1.990 . S
Li354 O412 1.961 1_556 S
Li354 O414 1.956 . S
Li354 O415 1.970 . S
Li355 N405 1.990 . S
Li355 O413 1.961 1_556 S
Li355 O414 1.970 . S
Li355 O415 1.956 . S
C356 C358 1.348 . S
C356 C359 1.356 . S
C356 O412 1.325 . S
N357 C360 1.314 . S
N357 C361 1.279 . S
C358 C356 1.348 . S
C358 C360 1.353 . S
C358 H416 0.929 . S
C359 C356 1.356 . S
C359 C361 1.358 . S
C359 H417 0.930 . S
C360 N357 1.314 . S
C360 C358 1.353 . S
C360 H418 0.930 . S
C361 N357 1.279 . S
C361 C359 1.358 . S
C361 H419 0.930 . S
C362 C365 1.348 . S
C362 C366 1.356 . S
C362 O413 1.325 . S
C363 N364 1.279 . S
C363 C366 1.358 . S
C363 H420 0.930 . S
N364 C363 1.279 . S
N364 C367 1.314 . S
C365 C362 1.348 . S
C365 C367 1.353 . S
C365 H421 0.929 . S
C366 C362 1.356 . S
C366 C363 1.358 . S
C366 H422 0.930 . S
C367 N364 1.314 . S
C367 C365 1.353 . S
C367 H423 0.930 . S
C368 N369 1.314 . S
C368 C373 1.353 . S
C368 H374 0.930 . S
N369 Li352 1.990 . S
N369 C368 1.314 . S
N369 C371 1.279 . S
C370 C371 1.358 . S
C370 C372 1.356 . S
C370 H424 0.930 . S
C371 N369 1.279 . S
C371 C370 1.358 . S
C371 H375 0.930 . S
C372 C370 1.356 . S
C372 C373 1.348 . S
C373 C368 1.353 . S
C373 C372 1.348 . S
C373 H425 0.929 . S
H374 C368 0.930 . S
H375 C371 0.930 . S
C376 N377 1.314 . S
C376 C378 1.353 . S
C376 H382 0.930 . S
N377 Li353 1.990 . S
N377 C376 1.314 . S
N377 C380 1.279 . S
C378 C376 1.353 . S
C378 C381 1.348 . S
C378 H426 0.929 . S
C379 C380 1.358 . S
C379 C381 1.356 . S
C379 H427 0.930 . S
C380 N377 1.279 . S
C380 C379 1.358 . S
C380 H383 0.930 . S
C381 C378 1.348 . S
C381 C379 1.356 . S
H382 C376 0.930 . S
H383 C380 0.930 . S
C384 C386 1.348 . S
C384 C387 1.356 . S
C384 O414 1.325 . S
N385 C388 1.314 . S
N385 C389 1.279 . S
C386 C384 1.348 . S
C386 C388 1.353 . S
C386 H428 0.929 . S
C387 C384 1.356 . S
C387 C389 1.358 . S
C387 H429 0.930 . S
C388 N385 1.314 . S
C388 C386 1.353 . S
C388 H430 0.930 . S
C389 N385 1.279 . S
C389 C387 1.358 . S
C389 H431 0.930 . S
C390 C391 1.348 . S
C390 C392 1.356 . S
C390 O415 1.325 . S
C391 C390 1.348 . S
C391 C393 1.353 . S
C391 H432 0.929 . S
C392 C390 1.356 . S
C392 C394 1.358 . S
C392 H433 0.930 1_556 S
C393 C391 1.353 . S
C393 N395 1.314 . S
C393 H434 0.930 . S
C394 C392 1.358 . S
C394 N395 1.279 . S
C394 H435 0.930 . S
N395 C393 1.314 . S
N395 C394 1.279 . S
C396 C398 1.353 . S
C396 N399 1.314 . S
C396 H402 0.930 . S
C397 N399 1.279 . S
C397 C400 1.358 . S
C397 H403 0.930 . S
C398 C396 1.353 . S
C398 C401 1.348 . S
C398 H436 0.929 . S
N399 Li354 1.990 . S
N399 C396 1.314 . S
N399 C397 1.279 . S
C400 C397 1.358 . S
C400 C401 1.356 . S
C400 H437 0.930 . S
C401 C398 1.348 . S
C401 C400 1.356 . S
H402 C396 0.930 . S
H403 C397 0.930 . S
C404 N405 1.314 . S
C404 C406 1.353 . S
C404 H410 0.930 . S
N405 Li355 1.990 . S
N405 C404 1.314 . S
N405 C408 1.279 . S
C406 C404 1.353 . S
C406 C409 1.348 . S
C406 H438 0.929 . S
C407 C408 1.358 . S
C407 C409 1.356 . S
C407 H439 0.930 . S
C408 N405 1.279 . S
C408 C407 1.358 . S
C408 H411 0.930 . S
C409 C406 1.348 . S
C409 C407 1.356 . S
H410 C404 0.930 . S
H411 C408 0.930 . S
O412 Li352 1.956 . S
O412 Li353 1.970 . S
O412 Li354 1.961 1_554 S
O412 C356 1.325 . S
O413 Li352 1.970 . S
O413 Li353 1.956 . S
O413 Li355 1.961 1_554 S
O413 C362 1.325 . S
O414 Li352 1.961 1_556 S
O414 Li354 1.956 . S
O414 Li355 1.970 . S
O414 C384 1.325 . S
O415 Li353 1.961 1_556 S
O415 Li354 1.970 . S
O415 Li355 1.956 . S
O415 C390 1.325 . S
H416 C358 0.929 . S
H417 C359 0.930 . S
H418 C360 0.930 . S
H419 C361 0.930 . S
H420 C363 0.930 . S
H421 C365 0.929 . S
H422 C366 0.930 . S
H423 C367 0.930 . S
H424 C370 0.930 . S
H425 C373 0.929 . S
H426 C378 0.929 . S
H427 C379 0.930 . S
H428 C386 0.929 . S
H429 C387 0.930 . S
H430 C388 0.930 . S
H431 C389 0.930 . S
H432 C391 0.929 . S
H433 C392 0.930 1_554 S
H434 C393 0.930 . S
H435 C394 0.930 . S
H436 C398 0.929 . S
H437 C400 0.930 . S
H438 C406 0.929 . S
H439 C407 0.930 . S
Li440 N457 1.990 . S
Li440 O500 1.956 . S
Li440 O501 1.970 1_565 S
Li440 O502 1.961 1_554 S
Li441 N465 1.990 . S
Li441 O500 1.970 1_545 S
Li441 O501 1.956 . S
Li441 O503 1.961 . S
Li442 N487 2.041 . S
Li442 O500 1.898 1_556 S
Li442 O502 1.959 . S
Li442 O503 1.949 1_566 S
Li443 N493 2.013 . S
Li443 O501 1.961 . S
Li443 O502 1.970 1_544 S
Li443 O503 1.956 . S
C444 C446 1.348 . S
C444 C447 1.356 . S
C444 O500 1.325 . S
N445 C448 1.314 . S
N445 C449 1.279 . S
C446 C444 1.348 . S
C446 C448 1.353 . S
C446 H504 0.929 . S
C447 C444 1.356 . S
C447 C449 1.358 . S
C447 H505 0.930 . S
C448 N445 1.314 . S
C448 C446 1.353 . S
C448 H506 0.930 . S
C449 N445 1.279 . S
C449 C447 1.358 . S
C449 H507 0.930 . S
C450 C453 1.348 . S
C450 C454 1.356 . S
C450 O501 1.325 . S
C451 N452 1.279 . S
C451 C454 1.358 . S
C451 H508 0.930 . S
N452 C451 1.279 . S
N452 C455 1.314 . S
C453 C450 1.348 . S
C453 C455 1.353 . S
C453 H509 0.929 1_545 S
C454 C450 1.356 . S
C454 C451 1.358 . S
C454 H510 0.930 . S
C455 N452 1.314 . S
C455 C453 1.353 . S
C455 H511 0.930 . S
C456 N457 1.314 . S
C456 C461 1.353 . S
C456 H462 0.930 . S
N457 Li440 1.990 . S
N457 C456 1.314 . S
N457 C459 1.279 . S
C458 C459 1.358 . S
C458 C460 1.356 . S
C458 H512 0.930 . S
C459 N457 1.279 . S
C459 C458 1.358 . S
C459 H463 0.930 . S
C460 C458 1.356 . S
C460 C461 1.348 . S
C461 C456 1.353 . S
C461 C460 1.348 . S
C461 H513 0.929 . S
H462 C456 0.930 . S
H463 C459 0.930 . S
C464 N465 1.314 . S
C464 C466 1.353 . S
C464 H470 0.930 . S
N465 Li441 1.990 . S
N465 C464 1.314 . S
N465 C468 1.279 . S
C466 C464 1.353 . S
C466 C469 1.348 . S
C466 H514 0.929 . S
C467 C468 1.358 . S
C467 C469 1.356 . S
C467 H515 0.930 . S
C468 N465 1.279 . S
C468 C467 1.358 . S
C468 H471 0.930 . S
C469 C466 1.348 . S
C469 C467 1.356 . S
H470 C464 0.930 . S
H471 C468 0.930 . S
C472 C474 1.348 . S
C472 C475 1.356 . S
C472 O502 1.325 . S
N473 C476 1.314 . S
N473 C477 1.279 . S
C474 C472 1.348 . S
C474 C476 1.353 . S
C474 H516 0.929 1_565 S
C475 C472 1.356 . S
C475 C477 1.358 . S
C475 H517 0.930 . S
C476 N473 1.314 . S
C476 C474 1.353 . S
C476 H518 0.930 . S
C477 N473 1.279 . S
C477 C475 1.358 . S
C477 H519 0.930 . S
C478 C479 1.348 1_554 S
C478 C480 1.356 . S
C478 O503 1.325 . S
C479 C478 1.348 1_556 S
C479 C481 1.353 . S
C479 H520 0.929 . S
C480 C478 1.356 . S
C480 C482 1.358 . S
C480 H521 0.930 . S
C481 C479 1.353 . S
C481 N483 1.314 . S
C481 H522 0.930 . S
C482 C480 1.358 . S
C482 N483 1.279 1_554 S
C482 H523 0.930 . S
N483 C481 1.314 . S
N483 C482 1.279 1_556 S
C484 C486 1.353 . S
C484 N487 1.314 . S
C484 H490 0.930 . S
C485 N487 1.279 . S
C485 C488 1.358 . S
C485 H491 0.930 . S
C486 C484 1.353 . S
C486 C489 1.348 . S
C486 H524 0.929 . S
N487 Li442 2.041 . S
N487 C484 1.314 . S
N487 C485 1.279 . S
C488 C485 1.358 . S
C488 C489 1.356 . S
C488 H525 0.930 . S
C489 C486 1.348 . S
C489 C488 1.356 . S
H490 C484 0.930 . S
H491 C485 0.930 . S
C492 N493 1.331 . S
C492 C494 1.343 1_554 S
C492 H498 0.930 . S
N493 Li443 2.013 . S
N493 C492 1.331 . S
N493 C496 1.238 1_554 S
C494 C492 1.343 1_556 S
C494 C497 1.368 . S
C494 H526 0.920 1_556 S
C495 C496 1.358 . S
C495 C497 1.356 . S
C495 H527 0.930 . S
C496 N493 1.238 1_556 S
C496 C495 1.358 . S
C496 H499 0.930 . S
C497 C494 1.368 . S
C497 C495 1.356 . S
H498 C492 0.930 . S
H499 C496 0.930 . S
O500 Li440 1.956 . S
O500 Li441 1.970 1_565 S
O500 Li442 1.898 1_554 S
O500 C444 1.325 . S
O501 Li440 1.970 1_545 S
O501 Li441 1.956 . S
O501 Li443 1.961 . S
O501 C450 1.325 . S
O502 Li440 1.961 1_556 S
O502 Li442 1.959 . S
O502 Li443 1.970 1_566 S
O502 C472 1.325 . S
O503 Li441 1.961 . S
O503 Li442 1.949 1_544 S
O503 Li443 1.956 . S
O503 C478 1.325 . S
H504 C446 0.929 . S
H505 C447 0.930 . S
H506 C448 0.930 . S
H507 C449 0.930 . S
H508 C451 0.930 . S
H509 C453 0.929 1_565 S
H510 C454 0.930 . S
H511 C455 0.930 . S
H512 C458 0.930 . S
H513 C461 0.929 . S
H514 C466 0.929 . S
H515 C467 0.930 . S
H516 C474 0.929 1_545 S
H517 C475 0.930 . S
H518 C476 0.930 . S
H519 C477 0.930 . S
H520 C479 0.929 . S
H521 C480 0.930 . S
H522 C481 0.930 . S
H523 C482 0.930 . S
H524 C486 0.929 . S
H525 C488 0.930 . S
H526 C494 0.920 1_554 S
H527 C495 0.930 . S
Li528 N545 1.990 . S
Li528 O588 1.956 . S
Li528 O589 1.970 . S
Li528 O590 1.961 . S
Li529 N553 1.990 . S
Li529 O588 1.970 . S
Li529 O589 1.956 . S
Li529 O591 1.961 . S
Li530 N575 1.990 . S
Li530 O588 1.961 . S
Li530 O590 1.956 . S
Li530 O591 1.970 . S
Li531 N581 1.990 . S
Li531 O589 1.961 . S
Li531 O590 1.970 . S
Li531 O591 1.956 . S
C532 C534 1.348 . S
C532 C535 1.356 . S
C532 O588 1.325 . S
N533 C536 1.314 . S
N533 C537 1.279 . S
C534 C532 1.348 . S
C534 C536 1.353 . S
C534 H592 0.929 . S
C535 C532 1.356 . S
C535 C537 1.358 . S
C535 H593 0.930 . S
C536 N533 1.314 . S
C536 C534 1.353 . S
C536 H594 0.930 . S
C537 N533 1.279 . S
C537 C535 1.358 . S
C537 H595 0.930 . S
C538 C541 1.348 . S
C538 C542 1.356 . S
C538 O589 1.325 . S
C539 N540 1.279 . S
C539 C542 1.358 . S
C539 H596 0.930 . S
N540 C539 1.279 . S
N540 C543 1.314 . S
C541 C538 1.348 . S
C541 C543 1.353 . S
C541 H597 0.929 . S
C542 C538 1.356 . S
C542 C539 1.358 . S
C542 H598 0.930 . S
C543 N540 1.314 . S
C543 C541 1.353 . S
C543 H599 0.930 . S
C544 N545 1.314 . S
C544 C549 1.353 . S
C544 H550 0.930 . S
N545 Li528 1.990 . S
N545 C544 1.314 . S
N545 C547 1.279 . S
C546 C547 1.358 . S
C546 C548 1.356 . S
C546 H600 0.930 . S
C547 N545 1.279 . S
C547 C546 1.358 . S
C547 H551 0.930 . S
C548 C546 1.356 . S
C548 C549 1.348 . S
C549 C544 1.353 . S
C549 C548 1.348 . S
C549 H601 0.929 . S
H550 C544 0.930 . S
H551 C547 0.930 . S
C552 N553 1.314 . S
C552 C554 1.353 . S
C552 H558 0.930 . S
N553 Li529 1.990 . S
N553 C552 1.314 . S
N553 C556 1.279 . S
C554 C552 1.353 . S
C554 C557 1.348 . S
C554 H602 0.929 . S
C555 C556 1.358 . S
C555 C557 1.356 . S
C555 H603 0.930 . S
C556 N553 1.279 . S
C556 C555 1.358 . S
C556 H559 0.930 . S
C557 C554 1.348 . S
C557 C555 1.356 . S
H558 C552 0.930 . S
H559 C556 0.930 . S
C560 C562 1.348 . S
C560 C563 1.356 . S
C560 O590 1.325 . S
N561 C564 1.314 . S
N561 C565 1.279 . S
C562 C560 1.348 . S
C562 C564 1.353 . S
C562 H604 0.929 . S
C563 C560 1.356 . S
C563 C565 1.358 . S
C563 H605 0.930 . S
C564 N561 1.314 . S
C564 C562 1.353 . S
C564 H606 0.930 . S
C565 N561 1.279 . S
C565 C563 1.358 . S
C565 H607 0.930 . S
C566 C567 1.348 . S
C566 C568 1.356 . S
C566 O591 1.325 . S
C567 C566 1.348 . S
C567 C569 1.353 . S
C567 H608 0.929 . S
C568 C566 1.356 . S
C568 C570 1.358 . S
C568 H609 0.930 . S
C569 C567 1.353 . S
C569 N571 1.314 . S
C569 H610 0.930 . S
C570 C568 1.358 . S
C570 N571 1.279 . S
C570 H611 0.930 . S
N571 C569 1.314 . S
N571 C570 1.279 . S
C572 C574 1.353 . S
C572 N575 1.314 . S
C572 H578 0.930 . S
C573 N575 1.279 . S
C573 C576 1.358 . S
C573 H579 0.930 . S
C574 C572 1.353 . S
C574 C577 1.348 . S
C574 H612 0.929 . S
N575 Li530 1.990 . S
N575 C572 1.314 . S
N575 C573 1.279 . S
C576 C573 1.358 . S
C576 C577 1.356 . S
C576 H613 0.930 . S
C577 C574 1.348 . S
C577 C576 1.356 . S
H578 C572 0.930 . S
H579 C573 0.930 . S
C580 N581 1.314 . S
C580 C582 1.353 . S
C580 H586 0.930 . S
N581 Li531 1.990 . S
N581 C580 1.314 . S
N581 C584 1.279 . S
C582 C580 1.353 . S
C582 C585 1.348 . S
C582 H614 0.929 . S
C583 C584 1.358 . S
C583 C585 1.356 . S
C583 H615 0.930 . S
C584 N581 1.279 . S
C584 C583 1.358 . S
C584 H587 0.930 . S
C585 C582 1.348 . S
C585 C583 1.356 . S
H586 C580 0.930 . S
H587 C584 0.930 . S
O588 Li528 1.956 . S
O588 Li529 1.970 . S
O588 Li530 1.961 . S
O588 C532 1.325 . S
O589 Li528 1.970 . S
O589 Li529 1.956 . S
O589 Li531 1.961 . S
O589 C538 1.325 . S
O590 Li528 1.961 . S
O590 Li530 1.956 . S
O590 Li531 1.970 . S
O590 C560 1.325 . S
O591 Li529 1.961 . S
O591 Li530 1.970 . S
O591 Li531 1.956 . S
O591 C566 1.325 . S
H592 C534 0.929 . S
H593 C535 0.930 . S
H594 C536 0.930 . S
H595 C537 0.930 . S
H596 C539 0.930 . S
H597 C541 0.929 . S
H598 C542 0.930 . S
H599 C543 0.930 . S
H600 C546 0.930 . S
H601 C549 0.929 . S
H602 C554 0.929 . S
H603 C555 0.930 . S
H604 C562 0.929 . S
H605 C563 0.930 . S
H606 C564 0.930 . S
H607 C565 0.930 . S
H608 C567 0.929 . S
H609 C568 0.930 . S
H610 C569 0.930 . S
H611 C570 0.930 . S
H612 C574 0.929 . S
H613 C576 0.930 . S
H614 C582 0.929 . S
H615 C583 0.930 . S
Li616 N633 1.990 . S
Li616 O676 1.956 . S
Li616 O677 1.970 . S
Li616 O678 1.961 . S
Li617 N641 1.990 . S
Li617 O676 1.970 . S
Li617 O677 1.956 . S
Li617 O679 1.961 . S
Li618 N663 1.990 1_565 S
Li618 O676 1.961 . S
Li618 O678 1.956 . S
Li618 O679 1.970 . S
Li619 N669 1.990 . S
Li619 O677 1.961 . S
Li619 O678 1.970 . S
Li619 O679 1.956 . S
C620 C622 1.348 . S
C620 C623 1.356 . S
C620 O676 1.325 . S
N621 C624 1.314 . S
N621 C625 1.279 . S
C622 C620 1.348 . S
C622 C624 1.353 . S
C622 H680 0.929 . S
C623 C620 1.356 . S
C623 C625 1.358 . S
C623 H681 0.930 . S
C624 N621 1.314 . S
C624 C622 1.353 . S
C624 H682 0.930 . S
C625 N621 1.279 . S
C625 C623 1.358 . S
C625 H683 0.930 . S
C626 C629 1.348 . S
C626 C630 1.356 . S
C626 O677 1.325 . S
C627 N628 1.279 . S
C627 C630 1.358 . S
C627 H684 0.930 . S
N628 C627 1.279 . S
N628 C631 1.314 . S
C629 C626 1.348 . S
C629 C631 1.353 . S
C629 H685 0.929 . S
C630 C626 1.356 . S
C630 C627 1.358 . S
C630 H686 0.930 . S
C631 N628 1.314 . S
C631 C629 1.353 . S
C631 H687 0.930 . S
C632 N633 1.314 . S
C632 C637 1.353 . S
C632 H638 0.930 . S
N633 Li616 1.990 . S
N633 C632 1.314 . S
N633 C635 1.279 . S
C634 C635 1.358 . S
C634 C636 1.356 . S
C634 H688 0.930 . S
C635 N633 1.279 . S
C635 C634 1.358 . S
C635 H639 0.930 . S
C636 C634 1.356 . S
C636 C637 1.348 . S
C637 C632 1.353 . S
C637 C636 1.348 . S
C637 H689 0.929 . S
H638 C632 0.930 . S
H639 C635 0.930 . S
C640 N641 1.314 . S
C640 C642 1.353 . S
C640 H646 0.930 . S
N641 Li617 1.990 . S
N641 C640 1.314 . S
N641 C644 1.279 . S
C642 C640 1.353 . S
C642 C645 1.348 . S
C642 H690 0.929 . S
C643 C644 1.358 . S
C643 C645 1.356 . S
C643 H691 0.930 . S
C644 N641 1.279 . S
C644 C643 1.358 . S
C644 H647 0.930 . S
C645 C642 1.348 . S
C645 C643 1.356 . S
H646 C640 0.930 . S
H647 C644 0.930 . S
C648 C650 1.349 . S
C648 C651 1.429 . S
C648 O678 1.266 1_545 S
N649 C652 1.314 . S
N649 C653 1.279 . S
C650 C648 1.349 . S
C650 C652 1.353 . S
C650 H692 0.929 . S
C651 C648 1.429 . S
C651 C653 1.358 . S
C651 H693 0.930 . S
C652 N649 1.314 . S
C652 C650 1.353 . S
C652 H694 0.930 . S
C653 N649 1.279 . S
C653 C651 1.358 . S
C653 H695 0.930 . S
C654 C655 1.331 1_565 S
C654 C656 1.356 . S
C654 O679 1.325 . S
C655 C654 1.331 1_545 S
C655 C657 1.348 . S
C655 H696 0.951 . S
C656 C654 1.356 . S
C656 C658 1.358 . S
C656 H697 0.930 . S
C657 C655 1.348 . S
C657 N659 1.314 1_545 S
C657 H698 0.930 . S
C658 C656 1.358 . S
C658 N659 1.279 . S
C658 H699 0.930 . S
N659 C657 1.314 1_565 S
N659 C658 1.279 . S
C660 C662 1.353 . S
C660 N663 1.314 . S
C660 H666 0.930 . S
C661 N663 1.279 . S
C661 C664 1.358 . S
C661 H667 0.930 . S
C662 C660 1.353 . S
C662 C665 1.348 . S
C662 H700 0.929 . S
N663 Li618 1.990 1_545 S
N663 C660 1.314 . S
N663 C661 1.279 . S
C664 C661 1.358 . S
C664 C665 1.356 . S
C664 H701 0.930 . S
C665 C662 1.348 . S
C665 C664 1.356 . S
H666 C660 0.930 . S
H667 C661 0.930 . S
C668 N669 1.314 . S
C668 C670 1.353 . S
C668 H674 0.930 . S
N669 Li619 1.990 . S
N669 C668 1.314 . S
N669 C672 1.279 . S
C670 C668 1.353 . S
C670 C673 1.348 . S
C670 H702 0.929 . S
C671 C672 1.358 . S
C671 C673 1.356 . S
C671 H703 0.930 . S
C672 N669 1.279 . S
C672 C671 1.358 . S
C672 H675 0.930 . S
C673 C670 1.348 . S
C673 C671 1.356 . S
H674 C668 0.930 . S
H675 C672 0.930 . S
O676 Li616 1.956 . S
O676 Li617 1.970 . S
O676 Li618 1.961 . S
O676 C620 1.325 . S
O677 Li616 1.970 . S
O677 Li617 1.956 . S
O677 Li619 1.961 . S
O677 C626 1.325 . S
O678 Li616 1.961 . S
O678 Li618 1.956 . S
O678 Li619 1.970 . S
O678 C648 1.266 1_565 S
O679 Li617 1.961 . S
O679 Li618 1.970 . S
O679 Li619 1.956 . S
O679 C654 1.325 . S
H680 C622 0.929 . S
H681 C623 0.930 . S
H682 C624 0.930 . S
H683 C625 0.930 . S
H684 C627 0.930 . S
H685 C629 0.929 . S
H686 C630 0.930 . S
H687 C631 0.930 . S
H688 C634 0.930 . S
H689 C637 0.929 . S
H690 C642 0.929 . S
H691 C643 0.930 . S
H692 C650 0.929 . S
H693 C651 0.930 . S
H694 C652 0.930 . S
H695 C653 0.930 . S
H696 C655 0.951 . S
H697 C656 0.930 . S
H698 C657 0.930 . S
H699 C658 0.930 . S
H700 C662 0.929 . S
H701 C664 0.930 . S
H702 C670 0.929 . S
H703 C671 0.930 . S
Li704 N721 1.990 . S
Li704 O764 1.956 . S
Li704 O765 1.970 . S
Li704 O766 1.961 . S
Li705 N729 1.990 . S
Li705 O764 1.970 . S
Li705 O765 1.956 . S
Li705 O767 1.961 . S
Li706 N751 1.990 1_455 S
Li706 O764 1.961 . S
Li706 O766 1.956 . S
Li706 O767 1.970 . S
Li707 N757 1.990 . S
Li707 O765 1.961 . S
Li707 O766 1.970 . S
Li707 O767 1.956 . S
C708 C710 1.348 . S
C708 C711 1.356 . S
C708 O764 1.325 . S
N709 C712 1.314 . S
N709 C713 1.279 . S
C710 C708 1.348 . S
C710 C712 1.353 . S
C710 H768 0.929 . S
C711 C708 1.356 . S
C711 C713 1.358 . S
C711 H769 0.930 . S
C712 N709 1.314 . S
C712 C710 1.353 . S
C712 H770 0.930 . S
C713 N709 1.279 . S
C713 C711 1.358 . S
C713 H771 0.930 . S
C714 C717 1.348 . S
C714 C718 1.356 . S
C714 O765 1.325 . S
C715 N716 1.279 . S
C715 C718 1.358 . S
C715 H772 0.930 . S
N716 C715 1.279 . S
N716 C719 1.314 . S
C717 C714 1.348 . S
C717 C719 1.353 . S
C717 H773 0.929 . S
C718 C714 1.356 . S
C718 C715 1.358 . S
C718 H774 0.930 . S
C719 N716 1.314 . S
C719 C717 1.353 . S
C719 H775 0.930 . S
C720 N721 1.314 . S
C720 C725 1.353 . S
C720 H726 0.930 . S
N721 Li704 1.990 . S
N721 C720 1.314 . S
N721 C723 1.279 . S
C722 C723 1.358 . S
C722 C724 1.356 . S
C722 H776 0.930 . S
C723 N721 1.279 . S
C723 C722 1.358 . S
C723 H727 0.930 . S
C724 C722 1.356 . S
C724 C725 1.348 . S
C725 C720 1.353 . S
C725 C724 1.348 . S
C725 H777 0.929 . S
H726 C720 0.930 . S
H727 C723 0.930 . S
C728 N729 1.314 . S
C728 C730 1.353 . S
C728 H734 0.930 . S
N729 Li705 1.990 . S
N729 C728 1.314 . S
N729 C732 1.279 . S
C730 C728 1.353 . S
C730 C733 1.348 . S
C730 H778 0.929 . S
C731 C732 1.358 . S
C731 C733 1.356 . S
C731 H779 0.930 . S
C732 N729 1.279 . S
C732 C731 1.358 . S
C732 H735 0.930 . S
C733 C730 1.348 . S
C733 C731 1.356 . S
H734 C728 0.930 . S
H735 C732 0.930 . S
C736 C738 1.348 1_455 S
C736 C739 1.356 1_455 S
C736 O766 1.325 . S
N737 C740 1.314 . S
N737 C741 1.279 . S
C738 C736 1.348 1_655 S
C738 C740 1.353 . S
C738 H780 0.939 1_655 S
C739 C736 1.356 1_655 S
C739 C741 1.358 . S
C739 H781 0.930 1_655 S
C740 N737 1.314 . S
C740 C738 1.353 . S
C740 H782 0.930 . S
C741 N737 1.279 . S
C741 C739 1.358 . S
C741 H783 0.930 . S
C742 C743 1.348 . S
C742 C744 1.356 . S
C742 O767 1.325 . S
C743 C742 1.348 . S
C743 C745 1.353 . S
C743 H784 0.929 1_455 S
C744 C742 1.356 . S
C744 C746 1.358 . S
C744 H785 0.930 . S
C745 C743 1.353 . S
C745 N747 1.314 . S
C745 H786 0.930 1_455 S
C746 C744 1.358 . S
C746 N747 1.279 . S
C746 H787 0.930 . S
N747 C745 1.314 . S
N747 C746 1.279 . S
C748 C750 1.353 . S
C748 N751 1.314 . S
C748 H754 0.944 . S
C749 N751 1.279 . S
C749 C752 1.358 . S
C749 H755 0.930 . S
C750 C748 1.353 . S
C750 C753 1.348 . S
C750 H788 0.929 . S
N751 Li706 1.990 1_655 S
N751 C748 1.314 . S
N751 C749 1.279 . S
C752 C749 1.358 . S
C752 C753 1.356 . S
C752 H789 0.930 . S
C753 C750 1.348 . S
C753 C752 1.356 . S
H754 C748 0.944 . S
H755 C749 0.930 . S
C756 N757 1.314 . S
C756 C758 1.353 . S
C756 H762 0.930 . S
N757 Li707 1.990 . S
N757 C756 1.314 . S
N757 C760 1.279 . S
C758 C756 1.353 . S
C758 C761 1.348 . S
C758 H790 0.929 . S
C759 C760 1.358 . S
C759 C761 1.356 . S
C759 H791 0.930 . S
C760 N757 1.279 . S
C760 C759 1.358 . S
C760 H763 0.930 . S
C761 C758 1.348 . S
C761 C759 1.356 . S
H762 C756 0.930 . S
H763 C760 0.930 . S
O764 Li704 1.956 . S
O764 Li705 1.970 . S
O764 Li706 1.961 . S
O764 C708 1.325 . S
O765 Li704 1.970 . S
O765 Li705 1.956 . S
O765 Li707 1.961 . S
O765 C714 1.325 . S
O766 Li704 1.961 . S
O766 Li706 1.956 . S
O766 Li707 1.970 . S
O766 C736 1.325 . S
O767 Li705 1.961 . S
O767 Li706 1.970 . S
O767 Li707 1.956 . S
O767 C742 1.325 . S
H768 C710 0.929 . S
H769 C711 0.930 . S
H770 C712 0.930 . S
H771 C713 0.930 . S
H772 C715 0.930 . S
H773 C717 0.929 . S
H774 C718 0.930 . S
H775 C719 0.930 . S
H776 C722 0.930 . S
H777 C725 0.929 . S
H778 C730 0.929 . S
H779 C731 0.930 . S
H780 C738 0.939 1_455 S
H781 C739 0.930 1_455 S
H782 C740 0.930 . S
H783 C741 0.930 . S
H784 C743 0.929 1_655 S
H785 C744 0.930 . S
H786 C745 0.930 1_655 S
H787 C746 0.930 . S
H788 C750 0.929 . S
H789 C752 0.930 . S
H790 C758 0.929 . S
H791 C759 0.930 . S
Li792 N809 1.990 1_565 S
Li792 O852 1.956 . S
Li792 O853 1.970 . S
Li792 O854 1.961 . S
Li793 N817 1.990 . S
Li793 O852 1.970 . S
Li793 O853 1.956 . S
Li793 O855 1.961 . S
Li794 N839 1.990 . S
Li794 O852 1.961 . S
Li794 O854 1.956 . S
Li794 O855 1.970 . S
Li795 N845 1.990 . S
Li795 O853 1.961 . S
Li795 O854 1.970 . S
Li795 O855 1.956 . S
C796 C798 1.348 . S
C796 C799 1.356 . S
C796 O852 1.325 . S
N797 C800 1.314 . S
N797 C801 1.279 . S
C798 C796 1.348 . S
C798 C800 1.353 . S
C798 H856 0.929 . S
C799 C796 1.356 . S
C799 C801 1.358 . S
C799 H857 0.930 . S
C800 N797 1.314 . S
C800 C798 1.353 . S
C800 H858 0.930 . S
C801 N797 1.279 . S
C801 C799 1.358 . S
C801 H859 0.930 . S
C802 C805 1.348 . S
C802 C806 1.356 . S
C802 O853 1.325 . S
C803 N804 1.279 . S
C803 C806 1.358 . S
C803 H860 0.930 . S
N804 C803 1.279 . S
N804 C807 1.314 . S
C805 C802 1.348 . S
C805 C807 1.353 . S
C805 H861 0.929 . S
C806 C802 1.356 . S
C806 C803 1.358 . S
C806 H862 0.930 . S
C807 N804 1.314 . S
C807 C805 1.353 . S
C807 H863 0.930 1_565 S
C808 N809 1.314 . S
C808 C813 1.353 . S
C808 H814 0.930 . S
N809 Li792 1.990 1_545 S
N809 C808 1.314 . S
N809 C811 1.279 . S
C810 C811 1.358 . S
C810 C812 1.356 . S
C810 H864 0.930 . S
C811 N809 1.279 . S
C811 C810 1.358 . S
C811 H815 0.930 . S
C812 C810 1.356 . S
C812 C813 1.348 . S
C813 C808 1.353 . S
C813 C812 1.348 . S
C813 H865 0.929 . S
H814 C808 0.930 . S
H815 C811 0.930 . S
C816 N817 1.314 . S
C816 C818 1.353 . S
C816 H822 0.930 . S
N817 Li793 1.990 . S
N817 C816 1.314 . S
N817 C820 1.279 . S
C818 C816 1.353 . S
C818 C821 1.348 . S
C818 H866 0.929 . S
C819 C820 1.358 . S
C819 C821 1.356 . S
C819 H867 0.930 . S
C820 N817 1.279 . S
C820 C819 1.358 . S
C820 H823 0.930 . S
C821 C818 1.348 . S
C821 C819 1.356 . S
H822 C816 0.930 . S
H823 C820 0.930 . S
C824 C826 1.326 . S
C824 C827 1.344 1_565 S
C824 O854 1.384 . S
N825 C828 1.314 . S
N825 C829 1.279 . S
C826 C824 1.326 . S
C826 C828 1.330 1_565 S
C826 H868 0.938 . S
C827 C824 1.344 1_545 S
C827 C829 1.358 . S
C827 H869 0.930 . S
C828 N825 1.314 . S
C828 C826 1.330 1_545 S
C828 H870 0.930 . S
C829 N825 1.279 . S
C829 C827 1.358 . S
C829 H871 0.930 . S
C830 C831 1.348 . S
C830 C832 1.356 . S
C830 O855 1.325 . S
C831 C830 1.348 . S
C831 C833 1.353 . S
C831 H872 0.929 . S
C832 C830 1.356 . S
C832 C834 1.358 . S
C832 H873 0.930 . S
C833 C831 1.353 . S
C833 N835 1.314 . S
C833 H874 0.930 . S
C834 C832 1.358 . S
C834 N835 1.279 . S
C834 H875 0.930 . S
N835 C833 1.314 . S
N835 C834 1.279 . S
C836 C838 1.353 . S
C836 N839 1.314 . S
C836 H842 0.930 . S
C837 N839 1.279 . S
C837 C840 1.358 . S
C837 H843 0.930 . S
C838 C836 1.353 . S
C838 C841 1.348 . S
C838 H876 0.929 . S
N839 Li794 1.990 . S
N839 C836 1.314 . S
N839 C837 1.279 . S
C840 C837 1.358 . S
C840 C841 1.356 . S
C840 H877 0.930 . S
C841 C838 1.348 . S
C841 C840 1.356 . S
H842 C836 0.930 . S
H843 C837 0.930 . S
C844 N845 1.314 . S
C844 C846 1.353 . S
C844 H850 0.930 . S
N845 Li795 1.990 . S
N845 C844 1.314 . S
N845 C848 1.279 . S
C846 C844 1.353 . S
C846 C849 1.348 . S
C846 H878 0.929 . S
C847 C848 1.358 . S
C847 C849 1.356 . S
C847 H879 0.930 . S
C848 N845 1.279 . S
C848 C847 1.358 . S
C848 H851 0.930 . S
C849 C846 1.348 . S
C849 C847 1.356 . S
H850 C844 0.930 . S
H851 C848 0.930 . S
O852 Li792 1.956 . S
O852 Li793 1.970 . S
O852 Li794 1.961 . S
O852 C796 1.325 . S
O853 Li792 1.970 . S
O853 Li793 1.956 . S
O853 Li795 1.961 . S
O853 C802 1.325 . S
O854 Li792 1.961 . S
O854 Li794 1.956 . S
O854 Li795 1.970 . S
O854 C824 1.384 . S
O855 Li793 1.961 . S
O855 Li794 1.970 . S
O855 Li795 1.956 . S
O855 C830 1.325 . S
H856 C798 0.929 . S
H857 C799 0.930 . S
H858 C800 0.930 . S
H859 C801 0.930 . S
H860 C803 0.930 . S
H861 C805 0.929 . S
H862 C806 0.930 . S
H863 C807 0.930 1_545 S
H864 C810 0.930 . S
H865 C813 0.929 . S
H866 C818 0.929 . S
H867 C819 0.930 . S
H868 C826 0.938 . S
H869 C827 0.930 . S
H870 C828 0.930 . S
H871 C829 0.930 . S
H872 C831 0.929 . S
H873 C832 0.930 . S
H874 C833 0.930 . S
H875 C834 0.930 . S
H876 C838 0.929 . S
H877 C840 0.930 . S
H878 C846 0.929 . S
H879 C847 0.930 . S
Li880 N897 1.990 . S
Li880 O940 1.956 . S
Li880 O941 1.970 . S
Li880 O942 1.961 . S
Li881 N905 1.990 1_455 S
Li881 O940 1.970 . S
Li881 O941 1.956 . S
Li881 O943 1.961 . S
Li882 N927 1.990 . S
Li882 O940 1.961 . S
Li882 O942 1.956 . S
Li882 O943 1.970 . S
Li883 N933 1.990 . S
Li883 O941 1.961 . S
Li883 O942 1.970 . S
Li883 O943 1.956 . S
C884 C886 1.348 . S
C884 C887 1.356 . S
C884 O940 1.325 . S
N885 C888 1.314 . S
N885 C889 1.279 . S
C886 C884 1.348 . S
C886 C888 1.353 . S
C886 H944 0.936 . S
C887 C884 1.356 . S
C887 C889 1.358 . S
C887 H945 0.930 . S
C888 N885 1.314 . S
C888 C886 1.353 . S
C888 H946 0.930 1_455 S
C889 N885 1.279 . S
C889 C887 1.358 . S
C889 H947 0.930 . S
C890 C893 1.348 . S
C890 C894 1.356 . S
C890 O941 1.325 . S
C891 N892 1.279 . S
C891 C894 1.358 . S
C891 H948 0.930 . S
N892 C891 1.279 . S
N892 C895 1.314 . S
C893 C890 1.348 . S
C893 C895 1.353 . S
C893 H949 0.929 . S
C894 C890 1.356 . S
C894 C891 1.358 . S
C894 H950 0.930 . S
C895 N892 1.314 . S
C895 C893 1.353 . S
C895 H951 0.930 . S
C896 N897 1.314 . S
C896 C901 1.353 . S
C896 H902 0.930 . S
N897 Li880 1.990 . S
N897 C896 1.314 . S
N897 C899 1.279 . S
C898 C899 1.358 . S
C898 C900 1.356 . S
C898 H952 0.930 . S
C899 N897 1.279 . S
C899 C898 1.358 . S
C899 H903 0.930 . S
C900 C898 1.356 . S
C900 C901 1.348 . S
C901 C896 1.353 . S
C901 C900 1.348 . S
C901 H953 0.929 . S
H902 C896 0.930 . S
H903 C899 0.930 . S
C904 N905 1.314 . S
C904 C906 1.353 . S
C904 H910 0.930 . S
N905 Li881 1.990 1_655 S
N905 C904 1.314 . S
N905 C908 1.279 . S
C906 C904 1.353 . S
C906 C909 1.348 . S
C906 H954 0.929 . S
C907 C908 1.358 . S
C907 C909 1.356 . S
C907 H955 0.930 . S
C908 N905 1.279 . S
C908 C907 1.358 . S
C908 H911 0.930 . S
C909 C906 1.348 . S
C909 C907 1.356 . S
H910 C904 0.930 . S
H911 C908 0.930 . S
C912 C914 1.348 . S
C912 C915 1.356 . S
C912 O942 1.325 . S
N913 C916 1.314 . S
N913 C917 1.279 . S
C914 C912 1.348 . S
C914 C916 1.353 . S
C914 H956 0.929 . S
C915 C912 1.356 . S
C915 C917 1.358 . S
C915 H957 0.930 . S
C916 N913 1.314 . S
C916 C914 1.353 . S
C916 H958 0.930 . S
C917 N913 1.279 . S
C917 C915 1.358 . S
C917 H959 0.930 . S
C918 C919 1.365 1_455 S
C918 C920 1.348 1_455 S
C918 O943 1.330 . S
C919 C918 1.365 1_655 S
C919 C921 1.384 . S
C919 H960 0.885 1_655 S
C920 C918 1.348 1_655 S
C920 C922 1.358 . S
C920 H961 0.930 . S
C921 C919 1.384 . S
C921 N923 1.314 . S
C921 H962 0.930 . S
C922 C920 1.358 . S
C922 N923 1.279 . S
C922 H963 0.930 . S
N923 C921 1.314 . S
N923 C922 1.279 . S
C924 C926 1.353 . S
C924 N927 1.314 . S
C924 H930 0.930 . S
C925 N927 1.279 . S
C925 C928 1.358 . S
C925 H931 0.930 . S
C926 C924 1.353 . S
C926 C929 1.348 . S
C926 H964 0.929 . S
N927 Li882 1.990 . S
N927 C924 1.314 . S
N927 C925 1.279 . S
C928 C925 1.358 . S
C928 C929 1.356 . S
C928 H965 0.930 . S
C929 C926 1.348 . S
C929 C928 1.356 . S
H930 C924 0.930 . S
H931 C925 0.930 . S
C932 N933 1.314 . S
C932 C934 1.353 . S
C932 H938 0.930 . S
N933 Li883 1.990 . S
N933 C932 1.314 . S
N933 C936 1.279 . S
C934 C932 1.353 . S
C934 C937 1.348 . S
C934 H966 0.929 . S
C935 C936 1.358 . S
C935 C937 1.356 . S
C935 H967 0.930 . S
C936 N933 1.279 . S
C936 C935 1.358 . S
C936 H939 0.930 . S
C937 C934 1.348 . S
C937 C935 1.356 . S
H938 C932 0.930 . S
H939 C936 0.930 . S
O940 Li880 1.956 . S
O940 Li881 1.970 . S
O940 Li882 1.961 . S
O940 C884 1.325 . S
O941 Li880 1.970 . S
O941 Li881 1.956 . S
O941 Li883 1.961 . S
O941 C890 1.325 . S
O942 Li880 1.961 . S
O942 Li882 1.956 . S
O942 Li883 1.970 . S
O942 C912 1.325 . S
O943 Li881 1.961 . S
O943 Li882 1.970 . S
O943 Li883 1.956 . S
O943 C918 1.330 . S
H944 C886 0.936 . S
H945 C887 0.930 . S
H946 C888 0.930 1_655 S
H947 C889 0.930 . S
H948 C891 0.930 . S
H949 C893 0.929 . S
H950 C894 0.930 . S
H951 C895 0.930 . S
H952 C898 0.930 . S
H953 C901 0.929 . S
H954 C906 0.929 . S
H955 C907 0.930 . S
H956 C914 0.929 . S
H957 C915 0.930 . S
H958 C916 0.930 . S
H959 C917 0.930 . S
H960 C919 0.885 1_455 S
H961 C920 0.930 . S
H962 C921 0.930 . S
H963 C922 0.930 . S
H964 C926 0.929 . S
H965 C928 0.930 . S
H966 C934 0.929 . S
H967 C935 0.930 . S
Li968 N985 1.990 . S
Li968 O1028 1.956 . S
Li968 O1029 1.970 . S
Li968 O1030 1.961 . S
Li969 N993 1.990 . S
Li969 O1028 1.970 . S
Li969 O1029 1.956 . S
Li969 O1031 1.961 . S
Li970 N1015 1.990 . S
Li970 O1028 1.961 . S
Li970 O1030 1.956 . S
Li970 O1031 1.970 . S
Li971 N1021 1.990 . S
Li971 O1029 1.961 . S
Li971 O1030 1.970 . S
Li971 O1031 1.956 . S
C972 C974 1.348 . S
C972 C975 1.356 . S
C972 O1028 1.325 . S
N973 C976 1.314 . S
N973 C977 1.279 . S
C974 C972 1.348 . S
C974 C976 1.353 . S
C974 H1032 0.929 . S
C975 C972 1.356 . S
C975 C977 1.358 . S
C975 H1033 0.930 . S
C976 N973 1.314 . S
C976 C974 1.353 . S
C976 H1034 0.930 . S
C977 N973 1.279 . S
C977 C975 1.358 . S
C977 H1035 0.930 . S
C978 C981 1.348 . S
C978 C982 1.356 . S
C978 O1029 1.325 . S
C979 N980 1.279 . S
C979 C982 1.358 . S
C979 H1036 0.930 . S
N980 C979 1.279 . S
N980 C983 1.314 . S
C981 C978 1.348 . S
C981 C983 1.353 . S
C981 H1037 0.929 . S
C982 C978 1.356 . S
C982 C979 1.358 . S
C982 H1038 0.930 . S
C983 N980 1.314 . S
C983 C981 1.353 . S
C983 H1039 0.930 . S
C984 N985 1.314 . S
C984 C989 1.353 . S
C984 H990 0.930 . S
N985 Li968 1.990 . S
N985 C984 1.314 . S
N985 C987 1.279 . S
C986 C987 1.358 . S
C986 C988 1.356 . S
C986 H1040 0.930 . S
C987 N985 1.279 . S
C987 C986 1.358 . S
C987 H991 0.930 . S
C988 C986 1.356 . S
C988 C989 1.348 . S
C989 C984 1.353 . S
C989 C988 1.348 . S
C989 H1041 0.929 . S
H990 C984 0.930 . S
H991 C987 0.930 . S
C992 N993 1.314 . S
C992 C994 1.353 . S
C992 H998 0.930 . S
N993 Li969 1.990 . S
N993 C992 1.314 . S
N993 C996 1.279 . S
C994 C992 1.353 . S
C994 C997 1.348 . S
C994 H1042 0.929 . S
C995 C996 1.358 . S
C995 C997 1.356 . S
C995 H1043 0.930 . S
C996 N993 1.279 . S
C996 C995 1.358 . S
C996 H999 0.930 . S
C997 C994 1.348 . S
C997 C995 1.356 . S
H998 C992 0.930 . S
H999 C996 0.930 . S
C1000 C1002 1.348 . S
C1000 C1003 1.356 . S
C1000 O1030 1.325 . S
N1001 C1004 1.314 . S
N1001 C1005 1.279 . S
C1002 C1000 1.348 . S
C1002 C1004 1.353 . S
C1002 H1044 0.929 . S
C1003 C1000 1.356 . S
C1003 C1005 1.358 . S
C1003 H1045 0.930 . S
C1004 N1001 1.314 . S
C1004 C1002 1.353 . S
C1004 H1046 0.930 . S
C1005 N1001 1.279 . S
C1005 C1003 1.358 . S
C1005 H1047 0.930 . S
C1006 C1007 1.348 . S
C1006 C1008 1.356 . S
C1006 O1031 1.325 . S
C1007 C1006 1.348 . S
C1007 C1009 1.353 . S
C1007 H1048 0.929 . S
C1008 C1006 1.356 . S
C1008 C1010 1.358 . S
C1008 H1049 0.930 . S
C1009 C1007 1.353 . S
C1009 N1011 1.314 . S
C1009 H1050 0.930 . S
C1010 C1008 1.358 . S
C1010 N1011 1.279 . S
C1010 H1051 0.930 . S
N1011 C1009 1.314 . S
N1011 C1010 1.279 . S
C1012 C1014 1.353 . S
C1012 N1015 1.314 . S
C1012 H1018 0.930 . S
C1013 N1015 1.279 . S
C1013 C1016 1.358 . S
C1013 H1019 0.930 . S
C1014 C1012 1.353 . S
C1014 C1017 1.348 . S
C1014 H1052 0.929 . S
N1015 Li970 1.990 . S
N1015 C1012 1.314 . S
N1015 C1013 1.279 . S
C1016 C1013 1.358 . S
C1016 C1017 1.356 . S
C1016 H1053 0.930 . S
C1017 C1014 1.348 . S
C1017 C1016 1.356 . S
H1018 C1012 0.930 . S
H1019 C1013 0.930 . S
C1020 N1021 1.314 . S
C1020 C1022 1.353 . S
C1020 H1026 0.930 . S
N1021 Li971 1.990 . S
N1021 C1020 1.314 . S
N1021 C1024 1.279 . S
C1022 C1020 1.353 . S
C1022 C1025 1.348 . S
C1022 H1054 0.929 . S
C1023 C1024 1.358 . S
C1023 C1025 1.356 . S
C1023 H1055 0.930 . S
C1024 N1021 1.279 . S
C1024 C1023 1.358 . S
C1024 H1027 0.930 . S
C1025 C1022 1.348 . S
C1025 C1023 1.356 . S
H1026 C1020 0.930 . S
H1027 C1024 0.930 . S
O1028 Li968 1.956 . S
O1028 Li969 1.970 . S
O1028 Li970 1.961 . S
O1028 C972 1.325 . S
O1029 Li968 1.970 . S
O1029 Li969 1.956 . S
O1029 Li971 1.961 . S
O1029 C978 1.325 . S
O1030 Li968 1.961 . S
O1030 Li970 1.956 . S
O1030 Li971 1.970 . S
O1030 C1000 1.325 . S
O1031 Li969 1.961 . S
O1031 Li970 1.970 . S
O1031 Li971 1.956 . S
O1031 C1006 1.325 . S
H1032 C974 0.929 . S
H1033 C975 0.930 . S
H1034 C976 0.930 . S
H1035 C977 0.930 . S
H1036 C979 0.930 . S
H1037 C981 0.929 . S
H1038 C982 0.930 . S
H1039 C983 0.930 . S
H1040 C986 0.930 . S
H1041 C989 0.929 . S
H1042 C994 0.929 . S
H1043 C995 0.930 . S
H1044 C1002 0.929 . S
H1045 C1003 0.930 . S
H1046 C1004 0.930 . S
H1047 C1005 0.930 . S
H1048 C1007 0.929 . S
H1049 C1008 0.930 . S
H1050 C1009 0.930 . S
H1051 C1010 0.930 . S
H1052 C1014 0.929 . S
H1053 C1016 0.930 . S
H1054 C1022 0.929 . S
H1055 C1023 0.930 . S
Li1056 N1073 1.990 1_545 S
Li1056 O1116 1.956 . S
Li1056 O1117 1.970 . S
Li1056 O1118 1.961 . S
Li1057 N1081 1.990 . S
Li1057 O1116 1.970 . S
Li1057 O1117 1.956 . S
Li1057 O1119 1.961 . S
Li1058 N1103 1.990 . S
Li1058 O1116 1.961 . S
Li1058 O1118 1.956 . S
Li1058 O1119 1.970 . S
Li1059 N1109 1.990 . S
Li1059 O1117 1.961 . S
Li1059 O1118 1.970 . S
Li1059 O1119 1.956 . S
C1060 C1062 1.348 1_545 S
C1060 C1063 1.356 1_545 S
C1060 O1116 1.325 . S
N1061 C1064 1.314 . S
N1061 C1065 1.279 . S
C1062 C1060 1.348 1_565 S
C1062 C1064 1.353 . S
C1062 H1120 0.929 . S
C1063 C1060 1.356 1_565 S
C1063 C1065 1.358 . S
C1063 H1121 0.962 . S
C1064 N1061 1.314 . S
C1064 C1062 1.353 . S
C1064 H1122 0.930 . S
C1065 N1061 1.279 . S
C1065 C1063 1.358 . S
C1065 H1123 0.930 . S
C1066 C1069 1.348 . S
C1066 C1070 1.356 . S
C1066 O1117 1.325 . S
C1067 N1068 1.279 . S
C1067 C1070 1.358 . S
C1067 H1124 0.930 . S
N1068 C1067 1.279 . S
N1068 C1071 1.306 1_545 S
C1069 C1066 1.348 . S
C1069 C1071 1.332 1_545 S
C1069 H1125 0.929 1_545 S
C1070 C1066 1.356 . S
C1070 C1067 1.358 . S
C1070 H1126 0.930 . S
C1071 N1068 1.306 1_565 S
C1071 C1069 1.332 1_565 S
C1071 H1127 0.964 . S
C1072 N1073 1.314 . S
C1072 C1077 1.353 . S
C1072 H1078 0.930 . S
N1073 Li1056 1.990 1_565 S
N1073 C1072 1.314 . S
N1073 C1075 1.279 . S
C1074 C1075 1.358 . S
C1074 C1076 1.356 . S
C1074 H1128 0.930 . S
C1075 N1073 1.279 . S
C1075 C1074 1.358 . S
C1075 H1079 0.930 . S
C1076 C1074 1.356 . S
C1076 C1077 1.348 . S
C1077 C1072 1.353 . S
C1077 C1076 1.348 . S
C1077 H1129 0.929 . S
H1078 C1072 0.930 . S
H1079 C1075 0.930 . S
C1080 N1081 1.314 . S
C1080 C1082 1.353 . S
C1080 H1086 0.930 . S
N1081 Li1057 1.990 . S
N1081 C1080 1.314 . S
N1081 C1084 1.279 . S
C1082 C1080 1.353 . S
C1082 C1085 1.348 . S
C1082 H1130 0.929 . S
C1083 C1084 1.358 . S
C1083 C1085 1.356 . S
C1083 H1131 0.930 . S
C1084 N1081 1.279 . S
C1084 C1083 1.358 . S
C1084 H1087 0.930 . S
C1085 C1082 1.348 . S
C1085 C1083 1.356 . S
H1086 C1080 0.930 . S
H1087 C1084 0.930 . S
C1088 C1090 1.348 . S
C1088 C1091 1.356 . S
C1088 O1118 1.325 . S
N1089 C1092 1.314 . S
N1089 C1093 1.279 . S
C1090 C1088 1.348 . S
C1090 C1092 1.353 . S
C1090 H1132 0.929 . S
C1091 C1088 1.356 . S
C1091 C1093 1.358 . S
C1091 H1133 0.930 . S
C1092 N1089 1.314 . S
C1092 C1090 1.353 . S
C1092 H1134 0.930 . S
C1093 N1089 1.279 . S
C1093 C1091 1.358 . S
C1093 H1135 0.930 . S
C1094 C1095 1.348 . S
C1094 C1096 1.356 . S
C1094 O1119 1.325 . S
C1095 C1094 1.348 . S
C1095 C1097 1.353 . S
C1095 H1136 0.929 . S
C1096 C1094 1.356 . S
C1096 C1098 1.358 . S
C1096 H1137 0.930 . S
C1097 C1095 1.353 . S
C1097 N1099 1.314 . S
C1097 H1138 0.930 . S
C1098 C1096 1.358 . S
C1098 N1099 1.279 . S
C1098 H1139 0.930 . S
N1099 C1097 1.314 . S
N1099 C1098 1.279 . S
C1100 C1102 1.353 . S
C1100 N1103 1.314 . S
C1100 H1106 0.930 . S
C1101 N1103 1.279 . S
C1101 C1104 1.358 . S
C1101 H1107 0.930 . S
C1102 C1100 1.353 . S
C1102 C1105 1.348 . S
C1102 H1140 0.929 . S
N1103 Li1058 1.990 . S
N1103 C1100 1.314 . S
N1103 C1101 1.279 . S
C1104 C1101 1.358 . S
C1104 C1105 1.356 . S
C1104 H1141 0.930 . S
C1105 C1102 1.348 . S
C1105 C1104 1.356 . S
H1106 C1100 0.930 . S
H1107 C1101 0.930 . S
C1108 N1109 1.314 . S
C1108 C1110 1.353 . S
C1108 H1114 0.930 . S
N1109 Li1059 1.990 . S
N1109 C1108 1.314 . S
N1109 C1112 1.279 . S
C1110 C1108 1.353 . S
C1110 C1113 1.348 . S
C1110 H1142 0.929 . S
C1111 C1112 1.358 . S
C1111 C1113 1.356 . S
C1111 H1143 0.930 . S
C1112 N1109 1.279 . S
C1112 C1111 1.358 . S
C1112 H1115 0.930 . S
C1113 C1110 1.348 . S
C1113 C1111 1.356 . S
H1114 C1108 0.930 . S
H1115 C1112 0.930 . S
O1116 Li1056 1.956 . S
O1116 Li1057 1.970 . S
O1116 Li1058 1.961 . S
O1116 C1060 1.325 . S
O1117 Li1056 1.970 . S
O1117 Li1057 1.956 . S
O1117 Li1059 1.961 . S
O1117 C1066 1.325 . S
O1118 Li1056 1.961 . S
O1118 Li1058 1.956 . S
O1118 Li1059 1.970 . S
O1118 C1088 1.325 . S
O1119 Li1057 1.961 . S
O1119 Li1058 1.970 . S
O1119 Li1059 1.956 . S
O1119 C1094 1.325 . S
H1120 C1062 0.929 . S
H1121 C1063 0.962 . S
H1122 C1064 0.930 . S
H1123 C1065 0.930 . S
H1124 C1067 0.930 . S
H1125 C1069 0.929 1_565 S
H1126 C1070 0.930 . S
H1127 C1071 0.964 . S
H1128 C1074 0.930 . S
H1129 C1077 0.929 . S
H1130 C1082 0.929 . S
H1131 C1083 0.930 . S
H1132 C1090 0.929 . S
H1133 C1091 0.930 . S
H1134 C1092 0.930 . S
H1135 C1093 0.930 . S
H1136 C1095 0.929 . S
H1137 C1096 0.930 . S
H1138 C1097 0.930 . S
H1139 C1098 0.930 . S
H1140 C1102 0.929 . S
H1141 C1104 0.930 . S
H1142 C1110 0.929 . S
H1143 C1111 0.930 . S
Li1144 N1161 1.990 1_655 S
Li1144 O1204 1.956 . S
Li1144 O1205 1.970 . S
Li1144 O1206 1.961 . S
Li1145 N1169 1.990 . S
Li1145 O1204 1.970 . S
Li1145 O1205 1.956 . S
Li1145 O1207 1.961 . S
Li1146 N1191 1.990 . S
Li1146 O1204 1.961 . S
Li1146 O1206 1.956 . S
Li1146 O1207 1.970 . S
Li1147 N1197 1.990 . S
Li1147 O1205 1.961 . S
Li1147 O1206 1.970 . S
Li1147 O1207 1.956 . S
C1148 C1150 1.348 . S
C1148 C1151 1.356 . S
C1148 O1204 1.325 1_455 S
N1149 C1152 1.314 . S
N1149 C1153 1.279 . S
C1150 C1148 1.348 . S
C1150 C1152 1.353 . S
C1150 H1208 0.929 . S
C1151 C1148 1.356 . S
C1151 C1153 1.358 . S
C1151 H1209 0.930 . S
C1152 N1149 1.314 . S
C1152 C1150 1.353 . S
C1152 H1210 0.930 . S
C1153 N1149 1.279 . S
C1153 C1151 1.358 . S
C1153 H1211 0.930 . S
C1154 C1157 1.348 1_655 S
C1154 C1158 1.356 . S
C1154 O1205 1.325 . S
C1155 N1156 1.279 . S
C1155 C1158 1.358 . S
C1155 H1212 0.930 . S
N1156 C1155 1.279 . S
N1156 C1159 1.314 1_655 S
C1157 C1154 1.348 1_455 S
C1157 C1159 1.353 . S
C1157 H1213 0.929 . S
C1158 C1154 1.356 . S
C1158 C1155 1.358 . S
C1158 H1214 0.930 . S
C1159 N1156 1.314 1_455 S
C1159 C1157 1.353 . S
C1159 H1215 0.930 . S
C1160 N1161 1.314 . S
C1160 C1165 1.353 . S
C1160 H1166 0.930 . S
N1161 Li1144 1.990 1_455 S
N1161 C1160 1.314 . S
N1161 C1163 1.279 . S
C1162 C1163 1.358 . S
C1162 C1164 1.356 . S
C1162 H1216 0.930 . S
C1163 N1161 1.279 . S
C1163 C1162 1.358 . S
C1163 H1167 0.930 . S
C1164 C1162 1.356 . S
C1164 C1165 1.348 . S
C1165 C1160 1.353 . S
C1165 C1164 1.348 . S
C1165 H1217 0.929 . S
H1166 C1160 0.930 . S
H1167 C1163 0.930 . S
C1168 N1169 1.314 . S
C1168 C1170 1.353 . S
C1168 H1174 0.930 . S
N1169 Li1145 1.990 . S
N1169 C1168 1.314 . S
N1169 C1172 1.279 . S
C1170 C1168 1.353 . S
C1170 C1173 1.348 . S
C1170 H1218 0.929 . S
C1171 C1172 1.358 . S
C1171 C1173 1.356 . S
C1171 H1219 0.930 . S
C1172 N1169 1.279 . S
C1172 C1171 1.358 . S
C1172 H1175 0.930 . S
C1173 C1170 1.348 . S
C1173 C1171 1.356 . S
H1174 C1168 0.930 . S
H1175 C1172 0.930 . S
C1176 C1178 1.348 . S
C1176 C1179 1.356 . S
C1176 O1206 1.325 . S
N1177 C1180 1.314 . S
N1177 C1181 1.279 . S
C1178 C1176 1.348 . S
C1178 C1180 1.353 . S
C1178 H1220 0.929 . S
C1179 C1176 1.356 . S
C1179 C1181 1.358 . S
C1179 H1221 0.930 . S
C1180 N1177 1.314 . S
C1180 C1178 1.353 . S
C1180 H1222 0.930 . S
C1181 N1177 1.279 . S
C1181 C1179 1.358 . S
C1181 H1223 0.930 . S
C1182 C1183 1.348 . S
C1182 C1184 1.356 . S
C1182 O1207 1.325 . S
C1183 C1182 1.348 . S
C1183 C1185 1.353 . S
C1183 H1224 0.929 . S
C1184 C1182 1.356 . S
C1184 C1186 1.358 . S
C1184 H1225 0.930 . S
C1185 C1183 1.353 . S
C1185 N1187 1.314 . S
C1185 H1226 0.930 . S
C1186 C1184 1.358 . S
C1186 N1187 1.279 . S
C1186 H1227 0.930 . S
N1187 C1185 1.314 . S
N1187 C1186 1.279 . S
C1188 C1190 1.353 . S
C1188 N1191 1.314 . S
C1188 H1194 0.930 . S
C1189 N1191 1.279 . S
C1189 C1192 1.358 . S
C1189 H1195 0.930 . S
C1190 C1188 1.353 . S
C1190 C1193 1.348 . S
C1190 H1228 0.929 . S
N1191 Li1146 1.990 . S
N1191 C1188 1.314 . S
N1191 C1189 1.279 . S
C1192 C1189 1.358 . S
C1192 C1193 1.356 . S
C1192 H1229 0.930 . S
C1193 C1190 1.348 . S
C1193 C1192 1.356 . S
H1194 C1188 0.930 . S
H1195 C1189 0.930 . S
C1196 N1197 1.314 . S
C1196 C1198 1.353 . S
C1196 H1202 0.930 . S
N1197 Li1147 1.990 . S
N1197 C1196 1.314 . S
N1197 C1200 1.279 . S
C1198 C1196 1.353 . S
C1198 C1201 1.348 . S
C1198 H1230 0.929 . S
C1199 C1200 1.358 . S
C1199 C1201 1.356 . S
C1199 H1231 0.930 . S
C1200 N1197 1.279 . S
C1200 C1199 1.358 . S
C1200 H1203 0.930 . S
C1201 C1198 1.348 . S
C1201 C1199 1.356 . S
H1202 C1196 0.930 . S
H1203 C1200 0.930 . S
O1204 Li1144 1.956 . S
O1204 Li1145 1.970 . S
O1204 Li1146 1.961 . S
O1204 C1148 1.325 1_655 S
O1205 Li1144 1.970 . S
O1205 Li1145 1.956 . S
O1205 Li1147 1.961 . S
O1205 C1154 1.325 . S
O1206 Li1144 1.961 . S
O1206 Li1146 1.956 . S
O1206 Li1147 1.970 . S
O1206 C1176 1.325 . S
O1207 Li1145 1.961 . S
O1207 Li1146 1.970 . S
O1207 Li1147 1.956 . S
O1207 C1182 1.325 . S
H1208 C1150 0.929 . S
H1209 C1151 0.930 . S
H1210 C1152 0.930 . S
H1211 C1153 0.930 . S
H1212 C1155 0.930 . S
H1213 C1157 0.929 . S
H1214 C1158 0.930 . S
H1215 C1159 0.930 . S
H1216 C1162 0.930 . S
H1217 C1165 0.929 . S
H1218 C1170 0.929 . S
H1219 C1171 0.930 . S
H1220 C1178 0.929 . S
H1221 C1179 0.930 . S
H1222 C1180 0.930 . S
H1223 C1181 0.930 . S
H1224 C1183 0.929 . S
H1225 C1184 0.930 . S
H1226 C1185 0.930 . S
H1227 C1186 0.930 . S
H1228 C1190 0.929 . S
H1229 C1192 0.930 . S
H1230 C1198 0.929 . S
H1231 C1199 0.930 . S
Li1232 N1249 1.990 . S
Li1232 O1292 1.956 . S
Li1232 O1293 1.970 . S
Li1232 O1294 1.961 . S
Li1233 N1257 1.990 . S
Li1233 O1292 1.970 . S
Li1233 O1293 1.956 . S
Li1233 O1295 1.961 . S
Li1234 N1279 1.990 . S
Li1234 O1292 1.961 . S
Li1234 O1294 1.956 . S
Li1234 O1295 1.970 . S
Li1235 N1285 1.990 . S
Li1235 O1293 1.961 . S
Li1235 O1294 1.970 . S
Li1235 O1295 1.956 . S
C1236 C1238 1.348 . S
C1236 C1239 1.356 . S
C1236 O1292 1.325 . S
N1237 C1240 1.314 . S
N1237 C1241 1.279 . S
C1238 C1236 1.348 . S
C1238 C1240 1.353 . S
C1238 H1296 0.929 . S
C1239 C1236 1.356 . S
C1239 C1241 1.358 . S
C1239 H1297 0.930 . S
C1240 N1237 1.314 . S
C1240 C1238 1.353 . S
C1240 H1298 0.930 . S
C1241 N1237 1.279 . S
C1241 C1239 1.358 . S
C1241 H1299 0.930 . S
C1242 C1245 1.348 . S
C1242 C1246 1.356 . S
C1242 O1293 1.325 . S
C1243 N1244 1.279 . S
C1243 C1246 1.358 . S
C1243 H1300 0.930 . S
N1244 C1243 1.279 . S
N1244 C1247 1.314 . S
C1245 C1242 1.348 . S
C1245 C1247 1.353 . S
C1245 H1301 0.929 . S
C1246 C1242 1.356 . S
C1246 C1243 1.358 . S
C1246 H1302 0.930 . S
C1247 N1244 1.314 . S
C1247 C1245 1.353 . S
C1247 H1303 0.930 . S
C1248 N1249 1.314 . S
C1248 C1253 1.353 . S
C1248 H1254 0.930 . S
N1249 Li1232 1.990 . S
N1249 C1248 1.314 . S
N1249 C1251 1.279 . S
C1250 C1251 1.358 . S
C1250 C1252 1.356 . S
C1250 H1304 0.930 . S
C1251 N1249 1.279 . S
C1251 C1250 1.358 . S
C1251 H1255 0.930 . S
C1252 C1250 1.356 . S
C1252 C1253 1.348 . S
C1253 C1248 1.353 . S
C1253 C1252 1.348 . S
C1253 H1305 0.929 . S
H1254 C1248 0.930 . S
H1255 C1251 0.930 . S
C1256 N1257 1.314 . S
C1256 C1258 1.353 . S
C1256 H1262 0.930 . S
N1257 Li1233 1.990 . S
N1257 C1256 1.314 . S
N1257 C1260 1.279 . S
C1258 C1256 1.353 . S
C1258 C1261 1.348 . S
C1258 H1306 0.929 . S
C1259 C1260 1.358 . S
C1259 C1261 1.356 . S
C1259 H1307 0.930 . S
C1260 N1257 1.279 . S
C1260 C1259 1.358 . S
C1260 H1263 0.930 . S
C1261 C1258 1.348 . S
C1261 C1259 1.356 . S
H1262 C1256 0.930 . S
H1263 C1260 0.930 . S
C1264 C1266 1.348 . S
C1264 C1267 1.356 . S
C1264 O1294 1.325 . S
N1265 C1268 1.314 . S
N1265 C1269 1.279 . S
C1266 C1264 1.348 . S
C1266 C1268 1.353 . S
C1266 H1308 0.929 . S
C1267 C1264 1.356 . S
C1267 C1269 1.358 . S
C1267 H1309 0.930 . S
C1268 N1265 1.314 . S
C1268 C1266 1.353 . S
C1268 H1310 0.930 . S
C1269 N1265 1.279 . S
C1269 C1267 1.358 . S
C1269 H1311 0.930 . S
C1270 C1271 1.348 . S
C1270 C1272 1.356 . S
C1270 O1295 1.325 . S
C1271 C1270 1.348 . S
C1271 C1273 1.353 . S
C1271 H1312 0.929 . S
C1272 C1270 1.356 . S
C1272 C1274 1.358 . S
C1272 H1313 0.930 . S
C1273 C1271 1.353 . S
C1273 N1275 1.314 . S
C1273 H1314 0.930 . S
C1274 C1272 1.358 . S
C1274 N1275 1.279 . S
C1274 H1315 0.930 . S
N1275 C1273 1.314 . S
N1275 C1274 1.279 . S
C1276 C1278 1.353 . S
C1276 N1279 1.314 . S
C1276 H1282 0.930 . S
C1277 N1279 1.279 . S
C1277 C1280 1.358 . S
C1277 H1283 0.930 . S
C1278 C1276 1.353 . S
C1278 C1281 1.348 . S
C1278 H1316 0.929 . S
N1279 Li1234 1.990 . S
N1279 C1276 1.314 . S
N1279 C1277 1.279 . S
C1280 C1277 1.358 . S
C1280 C1281 1.356 . S
C1280 H1317 0.930 . S
C1281 C1278 1.348 . S
C1281 C1280 1.356 . S
H1282 C1276 0.930 . S
H1283 C1277 0.930 . S
C1284 N1285 1.314 . S
C1284 C1286 1.353 . S
C1284 H1290 0.930 . S
N1285 Li1235 1.990 . S
N1285 C1284 1.314 . S
N1285 C1288 1.279 . S
C1286 C1284 1.353 . S
C1286 C1289 1.348 . S
C1286 H1318 0.929 . S
C1287 C1288 1.358 . S
C1287 C1289 1.356 . S
C1287 H1319 0.930 . S
C1288 N1285 1.279 . S
C1288 C1287 1.358 . S
C1288 H1291 0.930 . S
C1289 C1286 1.348 . S
C1289 C1287 1.356 . S
H1290 C1284 0.930 . S
H1291 C1288 0.930 . S
O1292 Li1232 1.956 . S
O1292 Li1233 1.970 . S
O1292 Li1234 1.961 . S
O1292 C1236 1.325 . S
O1293 Li1232 1.970 . S
O1293 Li1233 1.956 . S
O1293 Li1235 1.961 . S
O1293 C1242 1.325 . S
O1294 Li1232 1.961 . S
O1294 Li1234 1.956 . S
O1294 Li1235 1.970 . S
O1294 C1264 1.325 . S
O1295 Li1233 1.961 . S
O1295 Li1234 1.970 . S
O1295 Li1235 1.956 . S
O1295 C1270 1.325 . S
H1296 C1238 0.929 . S
H1297 C1239 0.930 . S
H1298 C1240 0.930 . S
H1299 C1241 0.930 . S
H1300 C1243 0.930 . S
H1301 C1245 0.929 . S
H1302 C1246 0.930 . S
H1303 C1247 0.930 . S
H1304 C1250 0.930 . S
H1305 C1253 0.929 . S
H1306 C1258 0.929 . S
H1307 C1259 0.930 . S
H1308 C1266 0.929 . S
H1309 C1267 0.930 . S
H1310 C1268 0.930 . S
H1311 C1269 0.930 . S
H1312 C1271 0.929 . S
H1313 C1272 0.930 . S
H1314 C1273 0.930 . S
H1315 C1274 0.930 . S
H1316 C1278 0.929 . S
H1317 C1280 0.930 . S
H1318 C1286 0.929 . S
H1319 C1287 0.930 . S
Li1320 N1337 1.990 . S
Li1320 O1380 1.956 . S
Li1320 O1381 1.970 . S
Li1320 O1382 1.961 . S
Li1321 N1345 1.990 . S
Li1321 O1380 1.970 . S
Li1321 O1381 1.956 . S
Li1321 O1383 1.961 . S
Li1322 N1367 1.990 . S
Li1322 O1380 1.961 . S
Li1322 O1382 1.956 . S
Li1322 O1383 1.970 . S
Li1323 N1373 1.990 . S
Li1323 O1381 1.961 . S
Li1323 O1382 1.970 . S
Li1323 O1383 1.956 . S
C1324 C1326 1.348 . S
C1324 C1327 1.356 . S
C1324 O1380 1.325 . S
N1325 C1328 1.314 . S
N1325 C1329 1.279 . S
C1326 C1324 1.348 . S
C1326 C1328 1.353 . S
C1326 H1384 0.929 . S
C1327 C1324 1.356 . S
C1327 C1329 1.358 . S
C1327 H1385 0.930 . S
C1328 N1325 1.314 . S
C1328 C1326 1.353 . S
C1328 H1386 0.930 . S
C1329 N1325 1.279 . S
C1329 C1327 1.358 . S
C1329 H1387 0.930 . S
C1330 C1333 1.348 . S
C1330 C1334 1.356 . S
C1330 O1381 1.325 . S
C1331 N1332 1.279 . S
C1331 C1334 1.358 . S
C1331 H1388 0.930 . S
N1332 C1331 1.279 . S
N1332 C1335 1.314 . S
C1333 C1330 1.348 . S
C1333 C1335 1.353 . S
C1333 H1389 0.929 . S
C1334 C1330 1.356 . S
C1334 C1331 1.358 . S
C1334 H1390 0.930 . S
C1335 N1332 1.314 . S
C1335 C1333 1.353 . S
C1335 H1391 0.930 . S
C1336 N1337 1.314 . S
C1336 C1341 1.353 . S
C1336 H1342 0.930 . S
N1337 Li1320 1.990 . S
N1337 C1336 1.314 . S
N1337 C1339 1.279 . S
C1338 C1339 1.358 . S
C1338 C1340 1.356 . S
C1338 H1392 0.930 . S
C1339 N1337 1.279 . S
C1339 C1338 1.358 . S
C1339 H1343 0.930 . S
C1340 C1338 1.356 . S
C1340 C1341 1.348 . S
C1341 C1336 1.353 . S
C1341 C1340 1.348 . S
C1341 H1393 0.929 . S
H1342 C1336 0.930 . S
H1343 C1339 0.930 . S
C1344 N1345 1.314 . S
C1344 C1346 1.353 . S
C1344 H1350 0.930 . S
N1345 Li1321 1.990 . S
N1345 C1344 1.314 . S
N1345 C1348 1.279 . S
C1346 C1344 1.353 . S
C1346 C1349 1.348 . S
C1346 H1394 0.929 . S
C1347 C1348 1.358 . S
C1347 C1349 1.356 . S
C1347 H1395 0.930 . S
C1348 N1345 1.279 . S
C1348 C1347 1.358 . S
C1348 H1351 0.930 . S
C1349 C1346 1.348 . S
C1349 C1347 1.356 . S
H1350 C1344 0.930 . S
H1351 C1348 0.930 . S
C1352 C1354 1.348 . S
C1352 C1355 1.356 . S
C1352 O1382 1.325 . S
N1353 C1356 1.314 . S
N1353 C1357 1.279 . S
C1354 C1352 1.348 . S
C1354 C1356 1.353 . S
C1354 H1396 0.929 . S
C1355 C1352 1.356 . S
C1355 C1357 1.358 . S
C1355 H1397 0.930 . S
C1356 N1353 1.314 . S
C1356 C1354 1.353 . S
C1356 H1398 0.930 . S
C1357 N1353 1.279 . S
C1357 C1355 1.358 . S
C1357 H1399 0.930 . S
C1358 C1359 1.348 . S
C1358 C1360 1.356 . S
C1358 O1383 1.325 . S
C1359 C1358 1.348 . S
C1359 C1361 1.353 . S
C1359 H1400 0.929 . S
C1360 C1358 1.356 . S
C1360 C1362 1.358 . S
C1360 H1401 0.930 . S
C1361 C1359 1.353 . S
C1361 N1363 1.314 . S
C1361 H1402 0.930 . S
C1362 C1360 1.358 . S
C1362 N1363 1.279 . S
C1362 H1403 0.930 . S
N1363 C1361 1.314 . S
N1363 C1362 1.279 . S
C1364 C1366 1.353 . S
C1364 N1367 1.314 . S
C1364 H1370 0.930 . S
C1365 N1367 1.279 . S
C1365 C1368 1.358 . S
C1365 H1371 0.930 . S
C1366 C1364 1.353 . S
C1366 C1369 1.348 . S
C1366 H1404 0.929 . S
N1367 Li1322 1.990 . S
N1367 C1364 1.314 . S
N1367 C1365 1.279 . S
C1368 C1365 1.358 . S
C1368 C1369 1.356 . S
C1368 H1405 0.930 . S
C1369 C1366 1.348 . S
C1369 C1368 1.356 . S
H1370 C1364 0.930 . S
H1371 C1365 0.930 . S
C1372 N1373 1.314 . S
C1372 C1374 1.353 . S
C1372 H1378 0.930 . S
N1373 Li1323 1.990 . S
N1373 C1372 1.314 . S
N1373 C1376 1.279 . S
C1374 C1372 1.353 . S
C1374 C1377 1.348 . S
C1374 H1406 0.929 . S
C1375 C1376 1.358 . S
C1375 C1377 1.356 . S
C1375 H1407 0.930 . S
C1376 N1373 1.279 . S
C1376 C1375 1.358 . S
C1376 H1379 0.930 . S
C1377 C1374 1.348 . S
C1377 C1375 1.356 . S
H1378 C1372 0.930 . S
H1379 C1376 0.930 . S
O1380 Li1320 1.956 . S
O1380 Li1321 1.970 . S
O1380 Li1322 1.961 . S
O1380 C1324 1.325 . S
O1381 Li1320 1.970 . S
O1381 Li1321 1.956 . S
O1381 Li1323 1.961 . S
O1381 C1330 1.325 . S
O1382 Li1320 1.961 . S
O1382 Li1322 1.956 . S
O1382 Li1323 1.970 . S
O1382 C1352 1.325 . S
O1383 Li1321 1.961 . S
O1383 Li1322 1.970 . S
O1383 Li1323 1.956 . S
O1383 C1358 1.325 . S
H1384 C1326 0.929 . S
H1385 C1327 0.930 . S
H1386 C1328 0.930 . S
H1387 C1329 0.930 . S
H1388 C1331 0.930 . S
H1389 C1333 0.929 . S
H1390 C1334 0.930 . S
H1391 C1335 0.930 . S
H1392 C1338 0.930 . S
H1393 C1341 0.929 . S
H1394 C1346 0.929 . S
H1395 C1347 0.930 . S
H1396 C1354 0.929 . S
H1397 C1355 0.930 . S
H1398 C1356 0.930 . S
H1399 C1357 0.930 . S
H1400 C1359 0.929 . S
H1401 C1360 0.930 . S
H1402 C1361 0.930 . S
H1403 C1362 0.930 . S
H1404 C1366 0.929 . S
H1405 C1368 0.930 . S
H1406 C1374 0.929 . S
H1407 C1375 0.930 . S
Li1408 N1425 1.990 . S
Li1408 O1468 1.956 . S
Li1408 O1469 1.970 . S
Li1408 O1470 1.961 . S
Li1409 N1433 1.990 . S
Li1409 O1468 1.970 . S
Li1409 O1469 1.956 . S
Li1409 O1471 1.961 . S
Li1410 N1455 1.990 . S
Li1410 O1468 1.961 . S
Li1410 O1470 1.956 . S
Li1410 O1471 1.970 . S
Li1411 N1461 1.990 1_545 S
Li1411 O1469 1.961 . S
Li1411 O1470 1.970 . S
Li1411 O1471 1.956 . S
C1412 C1414 1.348 . S
C1412 C1415 1.356 . S
C1412 O1468 1.325 . S
N1413 C1416 1.314 . S
N1413 C1417 1.279 . S
C1414 C1412 1.348 . S
C1414 C1416 1.353 . S
C1414 H1472 0.929 . S
C1415 C1412 1.356 . S
C1415 C1417 1.358 . S
C1415 H1473 0.930 . S
C1416 N1413 1.314 . S
C1416 C1414 1.353 . S
C1416 H1474 0.930 . S
C1417 N1413 1.279 . S
C1417 C1415 1.358 . S
C1417 H1475 0.930 . S
C1418 C1421 1.369 . S
C1418 C1422 1.362 . S
C1418 O1469 1.321 1_565 S
C1419 N1420 1.279 . S
C1419 C1422 1.358 . S
C1419 H1476 0.930 . S
N1420 C1419 1.279 . S
N1420 C1423 1.314 . S
C1421 C1418 1.369 . S
C1421 C1423 1.405 . S
C1421 H1477 0.859 1_565 S
C1422 C1418 1.362 . S
C1422 C1419 1.358 . S
C1422 H1478 0.930 . S
C1423 N1420 1.314 . S
C1423 C1421 1.405 . S
C1423 H1479 0.930 . S
C1424 N1425 1.314 . S
C1424 C1429 1.353 . S
C1424 H1430 0.930 . S
N1425 Li1408 1.990 . S
N1425 C1424 1.314 . S
N1425 C1427 1.279 . S
C1426 C1427 1.358 . S
C1426 C1428 1.356 . S
C1426 H1480 0.930 . S
C1427 N1425 1.279 . S
C1427 C1426 1.358 . S
C1427 H1431 0.930 . S
C1428 C1426 1.356 . S
C1428 C1429 1.348 . S
C1429 C1424 1.353 . S
C1429 C1428 1.348 . S
C1429 H1481 0.929 . S
H1430 C1424 0.930 . S
H1431 C1427 0.930 . S
C1432 N1433 1.314 . S
C1432 C1434 1.353 . S
C1432 H1438 0.930 . S
N1433 Li1409 1.990 . S
N1433 C1432 1.314 . S
N1433 C1436 1.279 . S
C1434 C1432 1.353 . S
C1434 C1437 1.348 . S
C1434 H1482 0.929 . S
C1435 C1436 1.358 . S
C1435 C1437 1.356 . S
C1435 H1483 0.930 . S
C1436 N1433 1.279 . S
C1436 C1435 1.358 . S
C1436 H1439 0.930 . S
C1437 C1434 1.348 . S
C1437 C1435 1.356 . S
H1438 C1432 0.930 . S
H1439 C1436 0.930 . S
C1440 C1442 1.348 . S
C1440 C1443 1.356 . S
C1440 O1470 1.325 . S
N1441 C1444 1.314 . S
N1441 C1445 1.279 . S
C1442 C1440 1.348 . S
C1442 C1444 1.353 . S
C1442 H1484 0.897 1_545 S
C1443 C1440 1.356 . S
C1443 C1445 1.358 . S
C1443 H1485 0.930 . S
C1444 N1441 1.314 . S
C1444 C1442 1.353 . S
C1444 H1486 0.930 1_545 S
C1445 N1441 1.279 . S
C1445 C1443 1.358 . S
C1445 H1487 0.930 . S
C1446 C1447 1.348 . S
C1446 C1448 1.356 . S
C1446 O1471 1.325 . S
C1447 C1446 1.348 . S
C1447 C1449 1.353 . S
C1447 H1488 0.929 . S
C1448 C1446 1.356 . S
C1448 C1450 1.358 . S
C1448 H1489 0.930 . S
C1449 C1447 1.353 . S
C1449 N1451 1.314 . S
C1449 H1490 0.930 . S
C1450 C1448 1.358 . S
C1450 N1451 1.279 . S
C1450 H1491 0.930 . S
N1451 C1449 1.314 . S
N1451 C1450 1.279 . S
C1452 C1454 1.353 . S
C1452 N1455 1.314 . S
C1452 H1458 0.930 . S
C1453 N1455 1.279 . S
C1453 C1456 1.358 . S
C1453 H1459 0.930 . S
C1454 C1452 1.353 . S
C1454 C1457 1.348 . S
C1454 H1492 0.929 . S
N1455 Li1410 1.990 . S
N1455 C1452 1.314 . S
N1455 C1453 1.279 . S
C1456 C1453 1.358 . S
C1456 C1457 1.356 . S
C1456 H1493 0.930 . S
C1457 C1454 1.348 . S
C1457 C1456 1.356 . S
H1458 C1452 0.930 . S
H1459 C1453 0.930 . S
C1460 N1461 1.314 . S
C1460 C1462 1.353 . S
C1460 H1466 0.930 . S
N1461 Li1411 1.990 1_565 S
N1461 C1460 1.314 . S
N1461 C1464 1.279 . S
C1462 C1460 1.353 . S
C1462 C1465 1.348 . S
C1462 H1494 0.929 . S
C1463 C1464 1.358 . S
C1463 C1465 1.356 . S
C1463 H1495 0.930 . S
C1464 N1461 1.279 . S
C1464 C1463 1.358 . S
C1464 H1467 0.930 . S
C1465 C1462 1.348 . S
C1465 C1463 1.356 . S
H1466 C1460 0.930 . S
H1467 C1464 0.930 . S
O1468 Li1408 1.956 . S
O1468 Li1409 1.970 . S
O1468 Li1410 1.961 . S
O1468 C1412 1.325 . S
O1469 Li1408 1.970 . S
O1469 Li1409 1.956 . S
O1469 Li1411 1.961 . S
O1469 C1418 1.321 1_545 S
O1470 Li1408 1.961 . S
O1470 Li1410 1.956 . S
O1470 Li1411 1.970 . S
O1470 C1440 1.325 . S
O1471 Li1409 1.961 . S
O1471 Li1410 1.970 . S
O1471 Li1411 1.956 . S
O1471 C1446 1.325 . S
H1472 C1414 0.929 . S
H1473 C1415 0.930 . S
H1474 C1416 0.930 . S
H1475 C1417 0.930 . S
H1476 C1419 0.930 . S
H1477 C1421 0.859 1_545 S
H1478 C1422 0.930 . S
H1479 C1423 0.930 . S
H1480 C1426 0.930 . S
H1481 C1429 0.929 . S
H1482 C1434 0.929 . S
H1483 C1435 0.930 . S
H1484 C1442 0.897 1_565 S
H1485 C1443 0.930 . S
H1486 C1444 0.930 1_565 S
H1487 C1445 0.930 . S
H1488 C1447 0.929 . S
H1489 C1448 0.930 . S
H1490 C1449 0.930 . S
H1491 C1450 0.930 . S
H1492 C1454 0.929 . S
H1493 C1456 0.930 . S
H1494 C1462 0.929 . S
H1495 C1463 0.930 . S
Li1496 N1513 1.990 . S
Li1496 O1556 1.956 . S
Li1496 O1557 1.970 . S
Li1496 O1558 1.961 . S
Li1497 N1521 1.990 . S
Li1497 O1556 1.970 . S
Li1497 O1557 1.956 . S
Li1497 O1559 1.961 . S
Li1498 N1543 1.990 1_655 S
Li1498 O1556 1.961 . S
Li1498 O1558 1.956 . S
Li1498 O1559 1.970 . S
Li1499 N1549 1.990 . S
Li1499 O1557 1.961 . S
Li1499 O1558 1.970 . S
Li1499 O1559 1.956 . S
C1500 C1502 1.389 . S
C1500 C1503 1.356 1_655 S
C1500 O1556 1.325 . S
N1501 C1504 1.314 . S
N1501 C1505 1.279 . S
C1502 C1500 1.389 . S
C1502 C1504 1.299 1_655 S
C1502 H1560 0.954 . S
C1503 C1500 1.356 1_455 S
C1503 C1505 1.358 . S
C1503 H1561 0.930 . S
C1504 N1501 1.314 . S
C1504 C1502 1.299 1_455 S
C1504 H1562 0.930 . S
C1505 N1501 1.279 . S
C1505 C1503 1.358 . S
C1505 H1563 0.930 . S
C1506 C1509 1.348 . S
C1506 C1510 1.356 . S
C1506 O1557 1.325 . S
C1507 N1508 1.279 . S
C1507 C1510 1.358 . S
C1507 H1564 0.930 . S
N1508 C1507 1.279 . S
N1508 C1511 1.314 . S
C1509 C1506 1.348 . S
C1509 C1511 1.353 . S
C1509 H1565 0.929 . S
C1510 C1506 1.356 . S
C1510 C1507 1.358 . S
C1510 H1566 0.930 . S
C1511 N1508 1.314 . S
C1511 C1509 1.353 . S
C1511 H1567 0.930 . S
C1512 N1513 1.314 . S
C1512 C1517 1.353 . S
C1512 H1518 0.930 . S
N1513 Li1496 1.990 . S
N1513 C1512 1.314 . S
N1513 C1515 1.279 . S
C1514 C1515 1.358 . S
C1514 C1516 1.356 . S
C1514 H1568 0.930 . S
C1515 N1513 1.279 . S
C1515 C1514 1.358 . S
C1515 H1519 0.930 . S
C1516 C1514 1.356 . S
C1516 C1517 1.348 . S
C1517 C1512 1.353 . S
C1517 C1516 1.348 . S
C1517 H1569 0.929 . S
H1518 C1512 0.930 . S
H1519 C1515 0.930 . S
C1520 N1521 1.314 . S
C1520 C1522 1.353 . S
C1520 H1526 0.930 . S
N1521 Li1497 1.990 . S
N1521 C1520 1.314 . S
N1521 C1524 1.279 . S
C1522 C1520 1.353 . S
C1522 C1525 1.348 . S
C1522 H1570 0.929 . S
C1523 C1524 1.358 . S
C1523 C1525 1.356 . S
C1523 H1571 0.930 . S
C1524 N1521 1.279 . S
C1524 C1523 1.358 . S
C1524 H1527 0.930 . S
C1525 C1522 1.348 . S
C1525 C1523 1.356 . S
H1526 C1520 0.930 . S
H1527 C1524 0.930 . S
C1528 C1530 1.348 . S
C1528 C1531 1.356 . S
C1528 O1558 1.325 . S
N1529 C1532 1.314 . S
N1529 C1533 1.279 . S
C1530 C1528 1.348 . S
C1530 C1532 1.353 . S
C1530 H1572 0.929 . S
C1531 C1528 1.356 . S
C1531 C1533 1.358 . S
C1531 H1573 0.930 . S
C1532 N1529 1.314 . S
C1532 C1530 1.353 . S
C1532 H1574 0.930 . S
C1533 N1529 1.279 . S
C1533 C1531 1.358 . S
C1533 H1575 0.930 . S
C1534 C1535 1.348 . S
C1534 C1536 1.356 . S
C1534 O1559 1.325 . S
C1535 C1534 1.348 . S
C1535 C1537 1.353 . S
C1535 H1576 0.929 . S
C1536 C1534 1.356 . S
C1536 C1538 1.358 . S
C1536 H1577 0.930 . S
C1537 C1535 1.353 . S
C1537 N1539 1.314 . S
C1537 H1578 0.930 1_655 S
C1538 C1536 1.358 . S
C1538 N1539 1.279 . S
C1538 H1579 0.930 . S
N1539 C1537 1.314 . S
N1539 C1538 1.279 . S
C1540 C1542 1.353 . S
C1540 N1543 1.314 . S
C1540 H1546 0.930 . S
C1541 N1543 1.279 . S
C1541 C1544 1.358 . S
C1541 H1547 0.930 . S
C1542 C1540 1.353 . S
C1542 C1545 1.348 . S
C1542 H1580 0.929 . S
N1543 Li1498 1.990 1_455 S
N1543 C1540 1.314 . S
N1543 C1541 1.279 . S
C1544 C1541 1.358 . S
C1544 C1545 1.356 . S
C1544 H1581 0.930 . S
C1545 C1542 1.348 . S
C1545 C1544 1.356 . S
H1546 C1540 0.930 . S
H1547 C1541 0.930 . S
C1548 N1549 1.314 . S
C1548 C1550 1.353 . S
C1548 H1554 0.930 . S
N1549 Li1499 1.990 . S
N1549 C1548 1.314 . S
N1549 C1552 1.279 . S
C1550 C1548 1.353 . S
C1550 C1553 1.348 . S
C1550 H1582 0.929 . S
C1551 C1552 1.358 . S
C1551 C1553 1.356 . S
C1551 H1583 0.930 . S
C1552 N1549 1.279 . S
C1552 C1551 1.358 . S
C1552 H1555 0.930 . S
C1553 C1550 1.348 . S
C1553 C1551 1.356 . S
H1554 C1548 0.930 . S
H1555 C1552 0.930 . S
O1556 Li1496 1.956 . S
O1556 Li1497 1.970 . S
O1556 Li1498 1.961 . S
O1556 C1500 1.325 . S
O1557 Li1496 1.970 . S
O1557 Li1497 1.956 . S
O1557 Li1499 1.961 . S
O1557 C1506 1.325 . S
O1558 Li1496 1.961 . S
O1558 Li1498 1.956 . S
O1558 Li1499 1.970 . S
O1558 C1528 1.325 . S
O1559 Li1497 1.961 . S
O1559 Li1498 1.970 . S
O1559 Li1499 1.956 . S
O1559 C1534 1.325 . S
H1560 C1502 0.954 . S
H1561 C1503 0.930 . S
H1562 C1504 0.930 . S
H1563 C1505 0.930 . S
H1564 C1507 0.930 . S
H1565 C1509 0.929 . S
H1566 C1510 0.930 . S
H1567 C1511 0.930 . S
H1568 C1514 0.930 . S
H1569 C1517 0.929 . S
H1570 C1522 0.929 . S
H1571 C1523 0.930 . S
H1572 C1530 0.929 . S
H1573 C1531 0.930 . S
H1574 C1532 0.930 . S
H1575 C1533 0.930 . S
H1576 C1535 0.929 . S
H1577 C1536 0.930 . S
H1578 C1537 0.930 1_455 S
H1579 C1538 0.930 . S
H1580 C1542 0.929 . S
H1581 C1544 0.930 . S
H1582 C1550 0.929 . S
H1583 C1551 0.930 . S
C1584 C1585 1.560 . S
C1584 H1645 0.959 . S
C1584 H1646 0.959 . S
C1584 H1647 0.960 . S
C1585 C1584 1.560 . S
C1585 O1640 1.426 . S
C1585 H1644 0.980 . S
C1586 C1587 1.407 . S
C1586 C1591 1.418 . S
C1586 O1640 1.334 . S
C1587 C1586 1.407 . S
C1587 C1588 1.360 . S
C1587 H1648 0.929 . S
C1588 C1587 1.360 . S
C1588 C1589 1.401 . S
C1588 C1592 1.527 . S
C1589 C1588 1.401 . S
C1589 C1590 1.405 . S
C1589 C1622 1.587 . S
C1590 C1589 1.405 . S
C1590 C1591 1.332 . S
C1590 C1593 1.496 . S
C1591 C1586 1.418 . S
C1591 C1590 1.332 . S
C1591 H1649 0.929 . S
C1592 C1588 1.527 . S
C1592 H1650 0.959 . S
C1592 H1651 0.961 . S
C1592 H1652 0.961 . S
C1593 C1590 1.496 . S
C1593 H1653 0.960 . S
C1593 H1654 0.960 . S
C1593 H1655 0.961 . S
C1594 C1595 1.517 . S
C1594 H1657 0.961 . S
C1594 H1658 0.960 . S
C1594 H1659 0.959 . S
C1595 C1594 1.517 . S
C1595 O1643 1.468 . S
C1595 H1656 0.980 . S
C1596 C1597 1.349 . S
C1596 C1601 1.367 . S
C1596 O1643 1.408 . S
C1597 C1596 1.349 . S
C1597 C1598 1.407 . S
C1597 H1660 0.930 . S
C1598 C1597 1.407 . S
C1598 C1599 1.449 . S
C1598 C1602 1.535 . S
C1599 C1598 1.449 . S
C1599 C1600 1.384 . S
C1599 C1624 1.553 . S
C1600 C1599 1.384 . S
C1600 C1601 1.364 . S
C1600 C1603 1.450 . S
C1601 C1596 1.367 . S
C1601 C1600 1.364 . S
C1601 H1661 0.931 . S
C1602 C1598 1.535 . S
C1602 H1662 0.959 . S
C1602 H1663 0.961 . S
C1602 H1664 0.959 . S
C1603 C1600 1.450 . S
C1603 H1665 0.960 . S
C1603 H1666 0.960 . S
C1603 H1667 0.960 . S
C1604 C1605 1.309 . S
C1604 C1609 1.304 . S
C1604 O1642 1.435 . S
C1605 C1604 1.309 . S
C1605 C1606 1.476 . S
C1605 H1669 0.930 . S
C1606 C1605 1.476 . S
C1606 C1607 1.400 . S
C1606 C1610 1.567 . S
C1607 C1606 1.400 . S
C1607 C1608 1.373 . S
C1607 C1629 1.432 . S
C1608 C1607 1.373 . S
C1608 C1609 1.339 . S
C1608 C1611 1.530 . S
C1609 C1604 1.304 . S
C1609 C1608 1.339 . S
C1609 H1670 0.930 . S
C1610 C1606 1.567 . S
C1610 H1671 0.961 . S
C1610 H1672 0.960 . S
C1610 H1673 0.958 . S
C1611 C1608 1.530 . S
C1611 H1674 0.961 . S
C1611 H1675 0.960 . S
C1611 H1676 0.960 . S
C1612 C1613 1.530 . S
C1612 H1678 0.961 . S
C1612 H1679 0.961 . S
C1612 H1680 0.959 . S
C1613 C1612 1.530 . S
C1613 O1641 1.412 . S
C1613 H1677 0.980 . S
C1614 C1615 1.288 . S
C1614 C1619 1.377 . S
C1614 O1641 1.393 . S
C1615 C1614 1.288 . S
C1615 C1616 1.369 . S
C1615 H1681 0.932 . S
C1616 C1615 1.369 . S
C1616 C1617 1.398 . S
C1616 C1620 1.527 . S
C1617 C1616 1.398 . S
C1617 C1618 1.380 . S
C1617 C1631 1.497 . S
C1618 C1617 1.380 . S
C1618 C1619 1.383 . S
C1618 C1621 1.603 . S
C1619 C1614 1.377 . S
C1619 C1618 1.383 . S
C1619 H1682 0.929 . S
C1620 C1616 1.527 . S
C1620 H1683 0.961 . S
C1620 H1684 0.959 . S
C1620 H1685 0.959 . S
C1621 C1618 1.603 . S
C1621 H1686 0.960 . S
C1621 H1687 0.962 . S
C1621 H1688 0.961 . S
C1622 C1589 1.587 . S
C1622 C1623 1.360 . S
C1622 C1635 1.412 . S
C1623 C1622 1.360 . S
C1623 C1624 1.365 . S
C1623 H1689 0.929 . S
C1624 C1599 1.553 . S
C1624 C1623 1.365 . S
C1624 C1625 1.404 . S
C1625 C1624 1.404 . S
C1625 C1626 1.395 . S
C1625 C1636 1.451 . S
C1626 C1625 1.395 . S
C1626 C1627 1.322 . S
C1626 H1690 0.930 . S
C1627 C1626 1.322 . S
C1627 C1628 1.459 . S
C1627 H1691 0.929 . S
C1628 C1627 1.459 . S
C1628 C1629 1.445 . S
C1628 C1637 1.395 . S
C1629 C1607 1.432 . S
C1629 C1628 1.445 . S
C1629 C1630 1.370 . S
C1630 C1629 1.370 . S
C1630 C1631 1.438 . S
C1630 H1692 0.930 . S
C1631 C1617 1.497 . S
C1631 C1630 1.438 . S
C1631 C1632 1.360 . S
C1632 C1631 1.360 . S
C1632 C1633 1.401 . S
C1632 C1637 1.446 . S
C1633 C1632 1.401 . S
C1633 C1634 1.347 . S
C1633 H1693 0.929 . S
C1634 C1633 1.347 . S
C1634 C1635 1.455 . S
C1634 H1694 0.930 . S
C1635 C1622 1.412 . S
C1635 C1634 1.455 . S
C1635 C1636 1.331 . S
C1636 C1625 1.451 . S
C1636 C1635 1.331 . S
C1636 C1637 1.497 . S
C1637 C1628 1.395 . S
C1637 C1632 1.446 . S
C1637 C1636 1.497 . S
C1638 C1639 1.582 . S
C1638 H1695 0.962 . S
C1638 H1696 0.959 . S
C1638 H1697 0.958 . S
C1639 C1638 1.582 . S
C1639 O1642 1.458 . S
C1639 H1668 0.980 . S
O1640 C1585 1.426 . S
O1640 C1586 1.334 . S
O1641 C1613 1.412 . S
O1641 C1614 1.393 . S
O1642 C1604 1.435 . S
O1642 C1639 1.458 . S
O1643 C1595 1.468 . S
O1643 C1596 1.408 . S
H1644 C1585 0.980 . S
H1645 C1584 0.959 . S
H1646 C1584 0.959 . S
H1647 C1584 0.960 . S
H1648 C1587 0.929 . S
H1649 C1591 0.929 . S
H1650 C1592 0.959 . S
H1651 C1592 0.961 . S
H1652 C1592 0.961 . S
H1653 C1593 0.960 . S
H1654 C1593 0.960 . S
H1655 C1593 0.961 . S
H1656 C1595 0.980 . S
H1657 C1594 0.961 . S
H1658 C1594 0.960 . S
H1659 C1594 0.959 . S
H1660 C1597 0.930 . S
H1661 C1601 0.931 . S
H1662 C1602 0.959 . S
H1663 C1602 0.961 . S
H1664 C1602 0.959 . S
H1665 C1603 0.960 . S
H1666 C1603 0.960 . S
H1667 C1603 0.960 . S
H1668 C1639 0.980 . S
H1669 C1605 0.930 . S
H1670 C1609 0.930 . S
H1671 C1610 0.961 . S
H1672 C1610 0.960 . S
H1673 C1610 0.958 . S
H1674 C1611 0.961 . S
H1675 C1611 0.960 . S
H1676 C1611 0.960 . S
H1677 C1613 0.980 . S
H1678 C1612 0.961 . S
H1679 C1612 0.961 . S
H1680 C1612 0.959 . S
H1681 C1615 0.932 . S
H1682 C1619 0.929 . S
H1683 C1620 0.961 . S
H1684 C1620 0.959 . S
H1685 C1620 0.959 . S
H1686 C1621 0.960 . S
H1687 C1621 0.962 . S
H1688 C1621 0.961 . S
H1689 C1623 0.929 . S
H1690 C1626 0.930 . S
H1691 C1627 0.929 . S
H1692 C1630 0.930 . S
H1693 C1633 0.929 . S
H1694 C1634 0.930 . S
H1695 C1638 0.962 . S
H1696 C1638 0.959 . S
H1697 C1638 0.958 . S
C1698 C1699 1.560 . S
C1698 H1759 0.959 . S
C1698 H1760 0.959 . S
C1698 H1761 0.960 . S
C1699 C1698 1.560 . S
C1699 O1754 1.426 . S
C1699 H1758 0.980 . S
C1700 C1701 1.407 . S
C1700 C1705 1.418 . S
C1700 O1754 1.334 . S
C1701 C1700 1.407 . S
C1701 C1702 1.360 . S
C1701 H1762 0.929 . S
C1702 C1701 1.360 . S
C1702 C1703 1.401 . S
C1702 C1706 1.527 . S
C1703 C1702 1.401 . S
C1703 C1704 1.405 . S
C1703 C1736 1.587 . S
C1704 C1703 1.405 . S
C1704 C1705 1.332 . S
C1704 C1707 1.496 . S
C1705 C1700 1.418 . S
C1705 C1704 1.332 . S
C1705 H1763 0.929 . S
C1706 C1702 1.527 . S
C1706 H1764 0.959 . S
C1706 H1765 0.961 . S
C1706 H1766 0.961 . S
C1707 C1704 1.496 . S
C1707 H1767 0.960 . S
C1707 H1768 0.960 . S
C1707 H1769 0.961 . S
C1708 C1709 1.517 . S
C1708 H1771 0.961 . S
C1708 H1772 0.960 . S
C1708 H1773 0.959 . S
C1709 C1708 1.517 . S
C1709 O1757 1.468 . S
C1709 H1770 0.980 . S
C1710 C1711 1.349 . S
C1710 C1715 1.367 . S
C1710 O1757 1.408 . S
C1711 C1710 1.349 . S
C1711 C1712 1.407 . S
C1711 H1774 0.930 . S
C1712 C1711 1.407 . S
C1712 C1713 1.449 . S
C1712 C1716 1.535 . S
C1713 C1712 1.449 . S
C1713 C1714 1.384 . S
C1713 C1738 1.553 . S
C1714 C1713 1.384 . S
C1714 C1715 1.364 . S
C1714 C1717 1.450 . S
C1715 C1710 1.367 . S
C1715 C1714 1.364 . S
C1715 H1775 0.931 . S
C1716 C1712 1.535 . S
C1716 H1776 0.959 . S
C1716 H1777 0.961 . S
C1716 H1778 0.959 . S
C1717 C1714 1.450 . S
C1717 H1779 0.960 . S
C1717 H1780 0.960 . S
C1717 H1781 0.960 . S
C1718 C1719 1.309 . S
C1718 C1723 1.304 . S
C1718 O1756 1.435 . S
C1719 C1718 1.309 . S
C1719 C1720 1.476 . S
C1719 H1783 0.930 . S
C1720 C1719 1.476 . S
C1720 C1721 1.400 . S
C1720 C1724 1.567 . S
C1721 C1720 1.400 . S
C1721 C1722 1.373 . S
C1721 C1743 1.432 . S
C1722 C1721 1.373 . S
C1722 C1723 1.339 . S
C1722 C1725 1.530 . S
C1723 C1718 1.304 . S
C1723 C1722 1.339 . S
C1723 H1784 0.930 . S
C1724 C1720 1.567 . S
C1724 H1785 0.961 . S
C1724 H1786 0.960 . S
C1724 H1787 0.958 . S
C1725 C1722 1.530 . S
C1725 H1788 0.961 . S
C1725 H1789 0.960 . S
C1725 H1790 0.960 . S
C1726 C1727 1.530 . S
C1726 H1792 0.961 . S
C1726 H1793 0.961 . S
C1726 H1794 0.959 . S
C1727 C1726 1.530 . S
C1727 O1755 1.412 . S
C1727 H1791 0.980 . S
C1728 C1729 1.288 . S
C1728 C1733 1.377 . S
C1728 O1755 1.393 . S
C1729 C1728 1.288 . S
C1729 C1730 1.369 . S
C1729 H1795 0.932 . S
C1730 C1729 1.369 . S
C1730 C1731 1.398 . S
C1730 C1734 1.527 . S
C1731 C1730 1.398 . S
C1731 C1732 1.380 . S
C1731 C1745 1.497 . S
C1732 C1731 1.380 . S
C1732 C1733 1.383 . S
C1732 C1735 1.603 . S
C1733 C1728 1.377 . S
C1733 C1732 1.383 . S
C1733 H1796 0.929 . S
C1734 C1730 1.527 . S
C1734 H1797 0.961 . S
C1734 H1798 0.959 . S
C1734 H1799 0.959 . S
C1735 C1732 1.603 . S
C1735 H1800 0.960 . S
C1735 H1801 0.962 . S
C1735 H1802 0.961 . S
C1736 C1703 1.587 . S
C1736 C1737 1.360 . S
C1736 C1749 1.412 . S
C1737 C1736 1.360 . S
C1737 C1738 1.365 . S
C1737 H1803 0.929 . S
C1738 C1713 1.553 . S
C1738 C1737 1.365 . S
C1738 C1739 1.404 . S
C1739 C1738 1.404 . S
C1739 C1740 1.395 . S
C1739 C1750 1.451 . S
C1740 C1739 1.395 . S
C1740 C1741 1.322 . S
C1740 H1804 0.930 . S
C1741 C1740 1.322 . S
C1741 C1742 1.459 . S
C1741 H1805 0.929 . S
C1742 C1741 1.459 . S
C1742 C1743 1.445 . S
C1742 C1751 1.395 . S
C1743 C1721 1.432 . S
C1743 C1742 1.445 . S
C1743 C1744 1.370 . S
C1744 C1743 1.370 . S
C1744 C1745 1.438 . S
C1744 H1806 0.930 . S
C1745 C1731 1.497 . S
C1745 C1744 1.438 . S
C1745 C1746 1.360 . S
C1746 C1745 1.360 . S
C1746 C1747 1.401 . S
C1746 C1751 1.446 . S
C1747 C1746 1.401 . S
C1747 C1748 1.347 . S
C1747 H1807 0.929 . S
C1748 C1747 1.347 . S
C1748 C1749 1.455 . S
C1748 H1808 0.930 . S
C1749 C1736 1.412 . S
C1749 C1748 1.455 . S
C1749 C1750 1.331 . S
C1750 C1739 1.451 . S
C1750 C1749 1.331 . S
C1750 C1751 1.497 . S
C1751 C1742 1.395 . S
C1751 C1746 1.446 . S
C1751 C1750 1.497 . S
C1752 C1753 1.582 . S
C1752 H1809 0.962 . S
C1752 H1810 0.959 . S
C1752 H1811 0.958 . S
C1753 C1752 1.582 . S
C1753 O1756 1.458 . S
C1753 H1782 0.980 . S
O1754 C1699 1.426 . S
O1754 C1700 1.334 . S
O1755 C1727 1.412 . S
O1755 C1728 1.393 . S
O1756 C1718 1.435 . S
O1756 C1753 1.458 . S
O1757 C1709 1.468 . S
O1757 C1710 1.408 . S
H1758 C1699 0.980 . S
H1759 C1698 0.959 . S
H1760 C1698 0.959 . S
H1761 C1698 0.960 . S
H1762 C1701 0.929 . S
H1763 C1705 0.929 . S
H1764 C1706 0.959 . S
H1765 C1706 0.961 . S
H1766 C1706 0.961 . S
H1767 C1707 0.960 . S
H1768 C1707 0.960 . S
H1769 C1707 0.961 . S
H1770 C1709 0.980 . S
H1771 C1708 0.961 . S
H1772 C1708 0.960 . S
H1773 C1708 0.959 . S
H1774 C1711 0.930 . S
H1775 C1715 0.931 . S
H1776 C1716 0.959 . S
H1777 C1716 0.961 . S
H1778 C1716 0.959 . S
H1779 C1717 0.960 . S
H1780 C1717 0.960 . S
H1781 C1717 0.960 . S
H1782 C1753 0.980 . S
H1783 C1719 0.930 . S
H1784 C1723 0.930 . S
H1785 C1724 0.961 . S
H1786 C1724 0.960 . S
H1787 C1724 0.958 . S
H1788 C1725 0.961 . S
H1789 C1725 0.960 . S
H1790 C1725 0.960 . S
H1791 C1727 0.980 . S
H1792 C1726 0.961 . S
H1793 C1726 0.961 . S
H1794 C1726 0.959 . S
H1795 C1729 0.932 . S
H1796 C1733 0.929 . S
H1797 C1734 0.961 . S
H1798 C1734 0.959 . S
H1799 C1734 0.959 . S
H1800 C1735 0.960 . S
H1801 C1735 0.962 . S
H1802 C1735 0.961 . S
H1803 C1737 0.929 . S
H1804 C1740 0.930 . S
H1805 C1741 0.929 . S
H1806 C1744 0.930 . S
H1807 C1747 0.929 . S
H1808 C1748 0.930 . S
H1809 C1752 0.962 . S
H1810 C1752 0.959 . S
H1811 C1752 0.958 . S
C1812 C1813 1.560 . S
C1812 H1873 0.959 . S
C1812 H1874 0.959 . S
C1812 H1875 0.960 . S
C1813 C1812 1.560 . S
C1813 O1868 1.426 . S
C1813 H1872 0.980 . S
C1814 C1815 1.407 . S
C1814 C1819 1.418 . S
C1814 O1868 1.334 . S
C1815 C1814 1.407 . S
C1815 C1816 1.360 . S
C1815 H1876 0.929 . S
C1816 C1815 1.360 . S
C1816 C1817 1.401 . S
C1816 C1820 1.527 . S
C1817 C1816 1.401 . S
C1817 C1818 1.405 . S
C1817 C1850 1.587 . S
C1818 C1817 1.405 . S
C1818 C1819 1.332 . S
C1818 C1821 1.496 . S
C1819 C1814 1.418 . S
C1819 C1818 1.332 . S
C1819 H1877 0.929 . S
C1820 C1816 1.527 . S
C1820 H1878 0.959 . S
C1820 H1879 0.961 . S
C1820 H1880 0.961 . S
C1821 C1818 1.496 . S
C1821 H1881 0.960 . S
C1821 H1882 0.960 . S
C1821 H1883 0.961 . S
C1822 C1823 1.517 . S
C1822 H1885 0.961 . S
C1822 H1886 0.960 . S
C1822 H1887 0.959 . S
C1823 C1822 1.517 . S
C1823 O1871 1.468 . S
C1823 H1884 0.980 . S
C1824 C1825 1.349 . S
C1824 C1829 1.367 . S
C1824 O1871 1.408 . S
C1825 C1824 1.349 . S
C1825 C1826 1.407 . S
C1825 H1888 0.930 . S
C1826 C1825 1.407 . S
C1826 C1827 1.449 . S
C1826 C1830 1.535 . S
C1827 C1826 1.449 . S
C1827 C1828 1.384 . S
C1827 C1852 1.553 . S
C1828 C1827 1.384 . S
C1828 C1829 1.364 . S
C1828 C1831 1.450 . S
C1829 C1824 1.367 . S
C1829 C1828 1.364 . S
C1829 H1889 0.931 . S
C1830 C1826 1.535 . S
C1830 H1890 0.959 . S
C1830 H1891 0.961 . S
C1830 H1892 0.959 . S
C1831 C1828 1.450 . S
C1831 H1893 0.960 . S
C1831 H1894 0.960 . S
C1831 H1895 0.960 . S
C1832 C1833 1.309 . S
C1832 C1837 1.304 . S
C1832 O1870 1.435 . S
C1833 C1832 1.309 . S
C1833 C1834 1.476 . S
C1833 H1897 0.930 . S
C1834 C1833 1.476 . S
C1834 C1835 1.400 . S
C1834 C1838 1.567 . S
C1835 C1834 1.400 . S
C1835 C1836 1.373 . S
C1835 C1857 1.432 . S
C1836 C1835 1.373 . S
C1836 C1837 1.339 . S
C1836 C1839 1.530 . S
C1837 C1832 1.304 . S
C1837 C1836 1.339 . S
C1837 H1898 0.930 . S
C1838 C1834 1.567 . S
C1838 H1899 0.961 . S
C1838 H1900 0.960 . S
C1838 H1901 0.958 . S
C1839 C1836 1.530 . S
C1839 H1902 0.961 . S
C1839 H1903 0.960 . S
C1839 H1904 0.960 . S
C1840 C1841 1.530 . S
C1840 H1906 0.961 . S
C1840 H1907 0.961 . S
C1840 H1908 0.959 . S
C1841 C1840 1.530 . S
C1841 O1869 1.412 . S
C1841 H1905 0.980 . S
C1842 C1843 1.288 . S
C1842 C1847 1.377 . S
C1842 O1869 1.393 . S
C1843 C1842 1.288 . S
C1843 C1844 1.369 . S
C1843 H1909 0.932 . S
C1844 C1843 1.369 . S
C1844 C1845 1.398 . S
C1844 C1848 1.527 . S
C1845 C1844 1.398 . S
C1845 C1846 1.380 . S
C1845 C1859 1.497 . S
C1846 C1845 1.380 . S
C1846 C1847 1.383 . S
C1846 C1849 1.603 . S
C1847 C1842 1.377 . S
C1847 C1846 1.383 . S
C1847 H1910 0.929 . S
C1848 C1844 1.527 . S
C1848 H1911 0.961 . S
C1848 H1912 0.959 . S
C1848 H1913 0.959 . S
C1849 C1846 1.603 . S
C1849 H1914 0.960 . S
C1849 H1915 0.962 . S
C1849 H1916 0.961 . S
C1850 C1817 1.587 . S
C1850 C1851 1.360 . S
C1850 C1863 1.412 . S
C1851 C1850 1.360 . S
C1851 C1852 1.365 . S
C1851 H1917 0.929 . S
C1852 C1827 1.553 . S
C1852 C1851 1.365 . S
C1852 C1853 1.404 . S
C1853 C1852 1.404 . S
C1853 C1854 1.395 . S
C1853 C1864 1.451 . S
C1854 C1853 1.395 . S
C1854 C1855 1.322 . S
C1854 H1918 0.930 . S
C1855 C1854 1.322 . S
C1855 C1856 1.459 . S
C1855 H1919 0.929 . S
C1856 C1855 1.459 . S
C1856 C1857 1.445 . S
C1856 C1865 1.395 . S
C1857 C1835 1.432 . S
C1857 C1856 1.445 . S
C1857 C1858 1.370 . S
C1858 C1857 1.370 . S
C1858 C1859 1.438 . S
C1858 H1920 0.930 . S
C1859 C1845 1.497 . S
C1859 C1858 1.438 . S
C1859 C1860 1.360 . S
C1860 C1859 1.360 . S
C1860 C1861 1.401 . S
C1860 C1865 1.446 . S
C1861 C1860 1.401 . S
C1861 C1862 1.347 . S
C1861 H1921 0.929 . S
C1862 C1861 1.347 . S
C1862 C1863 1.455 . S
C1862 H1922 0.930 . S
C1863 C1850 1.412 . S
C1863 C1862 1.455 . S
C1863 C1864 1.331 . S
C1864 C1853 1.451 . S
C1864 C1863 1.331 . S
C1864 C1865 1.497 . S
C1865 C1856 1.395 . S
C1865 C1860 1.446 . S
C1865 C1864 1.497 . S
C1866 C1867 1.582 . S
C1866 H1923 0.962 . S
C1866 H1924 0.959 . S
C1866 H1925 0.958 . S
C1867 C1866 1.582 . S
C1867 O1870 1.458 . S
C1867 H1896 0.980 . S
O1868 C1813 1.426 . S
O1868 C1814 1.334 . S
O1869 C1841 1.412 . S
O1869 C1842 1.393 . S
O1870 C1832 1.435 . S
O1870 C1867 1.458 . S
O1871 C1823 1.468 . S
O1871 C1824 1.408 . S
H1872 C1813 0.980 . S
H1873 C1812 0.959 . S
H1874 C1812 0.959 . S
H1875 C1812 0.960 . S
H1876 C1815 0.929 . S
H1877 C1819 0.929 . S
H1878 C1820 0.959 . S
H1879 C1820 0.961 . S
H1880 C1820 0.961 . S
H1881 C1821 0.960 . S
H1882 C1821 0.960 . S
H1883 C1821 0.961 . S
H1884 C1823 0.980 . S
H1885 C1822 0.961 . S
H1886 C1822 0.960 . S
H1887 C1822 0.959 . S
H1888 C1825 0.930 . S
H1889 C1829 0.931 . S
H1890 C1830 0.959 . S
H1891 C1830 0.961 . S
H1892 C1830 0.959 . S
H1893 C1831 0.960 . S
H1894 C1831 0.960 . S
H1895 C1831 0.960 . S
H1896 C1867 0.980 . S
H1897 C1833 0.930 . S
H1898 C1837 0.930 . S
H1899 C1838 0.961 . S
H1900 C1838 0.960 . S
H1901 C1838 0.958 . S
H1902 C1839 0.961 . S
H1903 C1839 0.960 . S
H1904 C1839 0.960 . S
H1905 C1841 0.980 . S
H1906 C1840 0.961 . S
H1907 C1840 0.961 . S
H1908 C1840 0.959 . S
H1909 C1843 0.932 . S
H1910 C1847 0.929 . S
H1911 C1848 0.961 . S
H1912 C1848 0.959 . S
H1913 C1848 0.959 . S
H1914 C1849 0.960 . S
H1915 C1849 0.962 . S
H1916 C1849 0.961 . S
H1917 C1851 0.929 . S
H1918 C1854 0.930 . S
H1919 C1855 0.929 . S
H1920 C1858 0.930 . S
H1921 C1861 0.929 . S
H1922 C1862 0.930 . S
H1923 C1866 0.962 . S
H1924 C1866 0.959 . S
H1925 C1866 0.958 . S
C1926 C1927 1.560 . S
C1926 H1987 0.959 . S
C1926 H1988 0.959 . S
C1926 H1989 0.960 . S
C1927 C1926 1.560 . S
C1927 O1982 1.426 . S
C1927 H1986 0.980 . S
C1928 C1929 1.407 . S
C1928 C1933 1.418 . S
C1928 O1982 1.334 . S
C1929 C1928 1.407 . S
C1929 C1930 1.360 . S
C1929 H1990 0.929 . S
C1930 C1929 1.360 . S
C1930 C1931 1.401 . S
C1930 C1934 1.527 . S
C1931 C1930 1.401 . S
C1931 C1932 1.405 . S
C1931 C1964 1.587 . S
C1932 C1931 1.405 . S
C1932 C1933 1.332 . S
C1932 C1935 1.496 . S
C1933 C1928 1.418 . S
C1933 C1932 1.332 . S
C1933 H1991 0.929 . S
C1934 C1930 1.527 . S
C1934 H1992 0.959 . S
C1934 H1993 0.961 . S
C1934 H1994 0.961 . S
C1935 C1932 1.496 . S
C1935 H1995 0.960 . S
C1935 H1996 0.960 . S
C1935 H1997 0.961 . S
C1936 C1937 1.517 . S
C1936 H1999 0.961 . S
C1936 H2000 0.960 . S
C1936 H2001 0.959 . S
C1937 C1936 1.517 . S
C1937 O1985 1.468 . S
C1937 H1998 0.980 . S
C1938 C1939 1.349 . S
C1938 C1943 1.367 . S
C1938 O1985 1.408 . S
C1939 C1938 1.349 . S
C1939 C1940 1.407 . S
C1939 H2002 0.930 . S
C1940 C1939 1.407 . S
C1940 C1941 1.449 . S
C1940 C1944 1.535 . S
C1941 C1940 1.449 . S
C1941 C1942 1.384 . S
C1941 C1966 1.553 . S
C1942 C1941 1.384 . S
C1942 C1943 1.364 . S
C1942 C1945 1.450 . S
C1943 C1938 1.367 . S
C1943 C1942 1.364 . S
C1943 H2003 0.931 . S
C1944 C1940 1.535 . S
C1944 H2004 0.959 . S
C1944 H2005 0.961 . S
C1944 H2006 0.959 . S
C1945 C1942 1.450 . S
C1945 H2007 0.960 . S
C1945 H2008 0.960 . S
C1945 H2009 0.960 . S
C1946 C1947 1.309 . S
C1946 C1951 1.304 . S
C1946 O1984 1.435 . S
C1947 C1946 1.309 . S
C1947 C1948 1.476 . S
C1947 H2011 0.930 . S
C1948 C1947 1.476 . S
C1948 C1949 1.400 . S
C1948 C1952 1.567 . S
C1949 C1948 1.400 . S
C1949 C1950 1.373 . S
C1949 C1971 1.432 . S
C1950 C1949 1.373 . S
C1950 C1951 1.339 . S
C1950 C1953 1.530 . S
C1951 C1946 1.304 . S
C1951 C1950 1.339 . S
C1951 H2012 0.930 . S
C1952 C1948 1.567 . S
C1952 H2013 0.961 . S
C1952 H2014 0.960 . S
C1952 H2015 0.958 . S
C1953 C1950 1.530 . S
C1953 H2016 0.961 . S
C1953 H2017 0.960 . S
C1953 H2018 0.960 . S
C1954 C1955 1.530 . S
C1954 H2020 0.961 . S
C1954 H2021 0.961 . S
C1954 H2022 0.959 . S
C1955 C1954 1.530 . S
C1955 O1983 1.412 . S
C1955 H2019 0.980 . S
C1956 C1957 1.288 . S
C1956 C1961 1.377 . S
C1956 O1983 1.393 . S
C1957 C1956 1.288 . S
C1957 C1958 1.369 . S
C1957 H2023 0.932 . S
C1958 C1957 1.369 . S
C1958 C1959 1.398 . S
C1958 C1962 1.527 . S
C1959 C1958 1.398 . S
C1959 C1960 1.380 . S
C1959 C1973 1.497 . S
C1960 C1959 1.380 . S
C1960 C1961 1.383 . S
C1960 C1963 1.603 . S
C1961 C1956 1.377 . S
C1961 C1960 1.383 . S
C1961 H2024 0.929 . S
C1962 C1958 1.527 . S
C1962 H2025 0.961 . S
C1962 H2026 0.959 . S
C1962 H2027 0.959 . S
C1963 C1960 1.603 . S
C1963 H2028 0.960 . S
C1963 H2029 0.962 . S
C1963 H2030 0.961 . S
C1964 C1931 1.587 . S
C1964 C1965 1.360 . S
C1964 C1977 1.412 . S
C1965 C1964 1.360 . S
C1965 C1966 1.365 . S
C1965 H2031 0.929 . S
C1966 C1941 1.553 . S
C1966 C1965 1.365 . S
C1966 C1967 1.404 . S
C1967 C1966 1.404 . S
C1967 C1968 1.395 . S
C1967 C1978 1.451 . S
C1968 C1967 1.395 . S
C1968 C1969 1.322 . S
C1968 H2032 0.930 . S
C1969 C1968 1.322 . S
C1969 C1970 1.459 . S
C1969 H2033 0.929 . S
C1970 C1969 1.459 . S
C1970 C1971 1.445 . S
C1970 C1979 1.395 . S
C1971 C1949 1.432 . S
C1971 C1970 1.445 . S
C1971 C1972 1.370 . S
C1972 C1971 1.370 . S
C1972 C1973 1.438 . S
C1972 H2034 0.930 . S
C1973 C1959 1.497 . S
C1973 C1972 1.438 . S
C1973 C1974 1.360 . S
C1974 C1973 1.360 . S
C1974 C1975 1.401 . S
C1974 C1979 1.446 . S
C1975 C1974 1.401 . S
C1975 C1976 1.347 . S
C1975 H2035 0.929 . S
C1976 C1975 1.347 . S
C1976 C1977 1.455 . S
C1976 H2036 0.930 . S
C1977 C1964 1.412 . S
C1977 C1976 1.455 . S
C1977 C1978 1.331 . S
C1978 C1967 1.451 . S
C1978 C1977 1.331 . S
C1978 C1979 1.497 . S
C1979 C1970 1.395 . S
C1979 C1974 1.446 . S
C1979 C1978 1.497 . S
C1980 C1981 1.582 . S
C1980 H2037 0.962 . S
C1980 H2038 0.959 . S
C1980 H2039 0.958 . S
C1981 C1980 1.582 . S
C1981 O1984 1.458 . S
C1981 H2010 0.980 . S
O1982 C1927 1.426 . S
O1982 C1928 1.334 . S
O1983 C1955 1.412 . S
O1983 C1956 1.393 . S
O1984 C1946 1.435 . S
O1984 C1981 1.458 . S
O1985 C1937 1.468 . S
O1985 C1938 1.408 . S
H1986 C1927 0.980 . S
H1987 C1926 0.959 . S
H1988 C1926 0.959 . S
H1989 C1926 0.960 . S
H1990 C1929 0.929 . S
H1991 C1933 0.929 . S
H1992 C1934 0.959 . S
H1993 C1934 0.961 . S
H1994 C1934 0.961 . S
H1995 C1935 0.960 . S
H1996 C1935 0.960 . S
H1997 C1935 0.961 . S
H1998 C1937 0.980 . S
H1999 C1936 0.961 . S
H2000 C1936 0.960 . S
H2001 C1936 0.959 . S
H2002 C1939 0.930 . S
H2003 C1943 0.931 . S
H2004 C1944 0.959 . S
H2005 C1944 0.961 . S
H2006 C1944 0.959 . S
H2007 C1945 0.960 . S
H2008 C1945 0.960 . S
H2009 C1945 0.960 . S
H2010 C1981 0.980 . S
H2011 C1947 0.930 . S
H2012 C1951 0.930 . S
H2013 C1952 0.961 . S
H2014 C1952 0.960 . S
H2015 C1952 0.958 . S
H2016 C1953 0.961 . S
H2017 C1953 0.960 . S
H2018 C1953 0.960 . S
H2019 C1955 0.980 . S
H2020 C1954 0.961 . S
H2021 C1954 0.961 . S
H2022 C1954 0.959 . S
H2023 C1957 0.932 . S
H2024 C1961 0.929 . S
H2025 C1962 0.961 . S
H2026 C1962 0.959 . S
H2027 C1962 0.959 . S
H2028 C1963 0.960 . S
H2029 C1963 0.962 . S
H2030 C1963 0.961 . S
H2031 C1965 0.929 . S
H2032 C1968 0.930 . S
H2033 C1969 0.929 . S
H2034 C1972 0.930 . S
H2035 C1975 0.929 . S
H2036 C1976 0.930 . S
H2037 C1980 0.962 . S
H2038 C1980 0.959 . S
H2039 C1980 0.958 . S
C2040 C2041 1.560 . S
C2040 H2101 0.959 . S
C2040 H2102 0.959 . S
C2040 H2103 0.960 . S
C2041 C2040 1.560 . S
C2041 O2096 1.426 . S
C2041 H2100 0.980 . S
C2042 C2043 1.407 . S
C2042 C2047 1.418 . S
C2042 O2096 1.334 . S
C2043 C2042 1.407 . S
C2043 C2044 1.360 . S
C2043 H2104 0.929 . S
C2044 C2043 1.360 . S
C2044 C2045 1.401 . S
C2044 C2048 1.527 . S
C2045 C2044 1.401 . S
C2045 C2046 1.405 . S
C2045 C2078 1.587 . S
C2046 C2045 1.405 . S
C2046 C2047 1.332 . S
C2046 C2049 1.496 . S
C2047 C2042 1.418 . S
C2047 C2046 1.332 . S
C2047 H2105 0.929 . S
C2048 C2044 1.527 . S
C2048 H2106 0.959 . S
C2048 H2107 0.961 . S
C2048 H2108 0.961 . S
C2049 C2046 1.496 . S
C2049 H2109 0.960 . S
C2049 H2110 0.960 . S
C2049 H2111 0.961 . S
C2050 C2051 1.517 . S
C2050 H2113 0.961 . S
C2050 H2114 0.960 . S
C2050 H2115 0.959 . S
C2051 C2050 1.517 . S
C2051 O2099 1.468 . S
C2051 H2112 0.980 . S
C2052 C2053 1.349 . S
C2052 C2057 1.367 . S
C2052 O2099 1.408 . S
C2053 C2052 1.349 . S
C2053 C2054 1.407 . S
C2053 H2116 0.930 . S
C2054 C2053 1.407 . S
C2054 C2055 1.449 . S
C2054 C2058 1.535 . S
C2055 C2054 1.449 . S
C2055 C2056 1.384 . S
C2055 C2080 1.553 . S
C2056 C2055 1.384 . S
C2056 C2057 1.364 . S
C2056 C2059 1.450 . S
C2057 C2052 1.367 . S
C2057 C2056 1.364 . S
C2057 H2117 0.931 . S
C2058 C2054 1.535 . S
C2058 H2118 0.959 . S
C2058 H2119 0.961 . S
C2058 H2120 0.959 . S
C2059 C2056 1.450 . S
C2059 H2121 0.960 . S
C2059 H2122 0.960 . S
C2059 H2123 0.960 . S
C2060 C2061 1.309 . S
C2060 C2065 1.304 . S
C2060 O2098 1.435 . S
C2061 C2060 1.309 . S
C2061 C2062 1.476 . S
C2061 H2125 0.930 . S
C2062 C2061 1.476 . S
C2062 C2063 1.400 . S
C2062 C2066 1.567 . S
C2063 C2062 1.400 . S
C2063 C2064 1.373 . S
C2063 C2085 1.432 . S
C2064 C2063 1.373 . S
C2064 C2065 1.339 . S
C2064 C2067 1.530 . S
C2065 C2060 1.304 . S
C2065 C2064 1.339 . S
C2065 H2126 0.930 . S
C2066 C2062 1.567 . S
C2066 H2127 0.961 . S
C2066 H2128 0.960 . S
C2066 H2129 0.958 . S
C2067 C2064 1.530 . S
C2067 H2130 0.961 . S
C2067 H2131 0.960 . S
C2067 H2132 0.960 . S
C2068 C2069 1.530 . S
C2068 H2134 0.961 . S
C2068 H2135 0.961 . S
C2068 H2136 0.959 . S
C2069 C2068 1.530 . S
C2069 O2097 1.412 . S
C2069 H2133 0.980 . S
C2070 C2071 1.288 . S
C2070 C2075 1.377 . S
C2070 O2097 1.393 . S
C2071 C2070 1.288 . S
C2071 C2072 1.369 . S
C2071 H2137 0.932 . S
C2072 C2071 1.369 . S
C2072 C2073 1.398 . S
C2072 C2076 1.527 . S
C2073 C2072 1.398 . S
C2073 C2074 1.380 . S
C2073 C2087 1.497 . S
C2074 C2073 1.380 . S
C2074 C2075 1.383 . S
C2074 C2077 1.603 . S
C2075 C2070 1.377 . S
C2075 C2074 1.383 . S
C2075 H2138 0.929 . S
C2076 C2072 1.527 . S
C2076 H2139 0.961 . S
C2076 H2140 0.959 . S
C2076 H2141 0.959 . S
C2077 C2074 1.603 . S
C2077 H2142 0.960 . S
C2077 H2143 0.962 . S
C2077 H2144 0.961 . S
C2078 C2045 1.587 . S
C2078 C2079 1.360 . S
C2078 C2091 1.412 . S
C2079 C2078 1.360 . S
C2079 C2080 1.365 . S
C2079 H2145 0.929 . S
C2080 C2055 1.553 . S
C2080 C2079 1.365 . S
C2080 C2081 1.404 . S
C2081 C2080 1.404 . S
C2081 C2082 1.395 . S
C2081 C2092 1.451 . S
C2082 C2081 1.395 . S
C2082 C2083 1.322 . S
C2082 H2146 0.930 . S
C2083 C2082 1.322 . S
C2083 C2084 1.459 . S
C2083 H2147 0.929 . S
C2084 C2083 1.459 . S
C2084 C2085 1.445 . S
C2084 C2093 1.395 . S
C2085 C2063 1.432 . S
C2085 C2084 1.445 . S
C2085 C2086 1.370 . S
C2086 C2085 1.370 . S
C2086 C2087 1.438 . S
C2086 H2148 0.930 . S
C2087 C2073 1.497 . S
C2087 C2086 1.438 . S
C2087 C2088 1.360 . S
C2088 C2087 1.360 . S
C2088 C2089 1.401 . S
C2088 C2093 1.446 . S
C2089 C2088 1.401 . S
C2089 C2090 1.347 . S
C2089 H2149 0.929 . S
C2090 C2089 1.347 . S
C2090 C2091 1.455 . S
C2090 H2150 0.930 . S
C2091 C2078 1.412 . S
C2091 C2090 1.455 . S
C2091 C2092 1.331 . S
C2092 C2081 1.451 . S
C2092 C2091 1.331 . S
C2092 C2093 1.497 . S
C2093 C2084 1.395 . S
C2093 C2088 1.446 . S
C2093 C2092 1.497 . S
C2094 C2095 1.582 . S
C2094 H2151 0.962 . S
C2094 H2152 0.959 . S
C2094 H2153 0.958 . S
C2095 C2094 1.582 . S
C2095 O2098 1.458 . S
C2095 H2124 0.980 . S
O2096 C2041 1.426 . S
O2096 C2042 1.334 . S
O2097 C2069 1.412 . S
O2097 C2070 1.393 . S
O2098 C2060 1.435 . S
O2098 C2095 1.458 . S
O2099 C2051 1.468 . S
O2099 C2052 1.408 . S
H2100 C2041 0.980 . S
H2101 C2040 0.959 . S
H2102 C2040 0.959 . S
H2103 C2040 0.960 . S
H2104 C2043 0.929 . S
H2105 C2047 0.929 . S
H2106 C2048 0.959 . S
H2107 C2048 0.961 . S
H2108 C2048 0.961 . S
H2109 C2049 0.960 . S
H2110 C2049 0.960 . S
H2111 C2049 0.961 . S
H2112 C2051 0.980 . S
H2113 C2050 0.961 . S
H2114 C2050 0.960 . S
H2115 C2050 0.959 . S
H2116 C2053 0.930 . S
H2117 C2057 0.931 . S
H2118 C2058 0.959 . S
H2119 C2058 0.961 . S
H2120 C2058 0.959 . S
H2121 C2059 0.960 . S
H2122 C2059 0.960 . S
H2123 C2059 0.960 . S
H2124 C2095 0.980 . S
H2125 C2061 0.930 . S
H2126 C2065 0.930 . S
H2127 C2066 0.961 . S
H2128 C2066 0.960 . S
H2129 C2066 0.958 . S
H2130 C2067 0.961 . S
H2131 C2067 0.960 . S
H2132 C2067 0.960 . S
H2133 C2069 0.980 . S
H2134 C2068 0.961 . S
H2135 C2068 0.961 . S
H2136 C2068 0.959 . S
H2137 C2071 0.932 . S
H2138 C2075 0.929 . S
H2139 C2076 0.961 . S
H2140 C2076 0.959 . S
H2141 C2076 0.959 . S
H2142 C2077 0.960 . S
H2143 C2077 0.962 . S
H2144 C2077 0.961 . S
H2145 C2079 0.929 . S
H2146 C2082 0.930 . S
H2147 C2083 0.929 . S
H2148 C2086 0.930 . S
H2149 C2089 0.929 . S
H2150 C2090 0.930 . S
H2151 C2094 0.962 . S
H2152 C2094 0.959 . S
H2153 C2094 0.958 . S
C2154 C2155 1.560 . S
C2154 H2215 0.959 . S
C2154 H2216 0.959 . S
C2154 H2217 0.960 . S
C2155 C2154 1.560 . S
C2155 O2210 1.426 . S
C2155 H2214 0.980 . S
C2156 C2157 1.407 . S
C2156 C2161 1.418 . S
C2156 O2210 1.334 . S
C2157 C2156 1.407 . S
C2157 C2158 1.360 . S
C2157 H2218 0.929 . S
C2158 C2157 1.360 . S
C2158 C2159 1.401 . S
C2158 C2162 1.527 . S
C2159 C2158 1.401 . S
C2159 C2160 1.405 . S
C2159 C2192 1.587 . S
C2160 C2159 1.405 . S
C2160 C2161 1.332 . S
C2160 C2163 1.496 . S
C2161 C2156 1.418 . S
C2161 C2160 1.332 . S
C2161 H2219 0.929 . S
C2162 C2158 1.527 . S
C2162 H2220 0.959 . S
C2162 H2221 0.961 . S
C2162 H2222 0.961 . S
C2163 C2160 1.496 . S
C2163 H2223 0.960 . S
C2163 H2224 0.960 . S
C2163 H2225 0.961 . S
C2164 C2165 1.517 . S
C2164 H2227 0.961 . S
C2164 H2228 0.960 . S
C2164 H2229 0.959 . S
C2165 C2164 1.517 . S
C2165 O2213 1.468 . S
C2165 H2226 0.980 . S
C2166 C2167 1.349 . S
C2166 C2171 1.367 . S
C2166 O2213 1.408 . S
C2167 C2166 1.349 . S
C2167 C2168 1.407 . S
C2167 H2230 0.930 . S
C2168 C2167 1.407 . S
C2168 C2169 1.449 . S
C2168 C2172 1.535 . S
C2169 C2168 1.449 . S
C2169 C2170 1.384 . S
C2169 C2194 1.553 . S
C2170 C2169 1.384 . S
C2170 C2171 1.364 . S
C2170 C2173 1.450 . S
C2171 C2166 1.367 . S
C2171 C2170 1.364 . S
C2171 H2231 0.931 . S
C2172 C2168 1.535 . S
C2172 H2232 0.959 . S
C2172 H2233 0.961 . S
C2172 H2234 0.959 . S
C2173 C2170 1.450 . S
C2173 H2235 0.960 . S
C2173 H2236 0.960 . S
C2173 H2237 0.960 . S
C2174 C2175 1.309 . S
C2174 C2179 1.304 . S
C2174 O2212 1.435 . S
C2175 C2174 1.309 . S
C2175 C2176 1.476 . S
C2175 H2239 0.930 . S
C2176 C2175 1.476 . S
C2176 C2177 1.400 . S
C2176 C2180 1.567 . S
C2177 C2176 1.400 . S
C2177 C2178 1.373 . S
C2177 C2199 1.432 . S
C2178 C2177 1.373 . S
C2178 C2179 1.339 . S
C2178 C2181 1.530 . S
C2179 C2174 1.304 . S
C2179 C2178 1.339 . S
C2179 H2240 0.930 . S
C2180 C2176 1.567 . S
C2180 H2241 0.961 . S
C2180 H2242 0.960 . S
C2180 H2243 0.958 . S
C2181 C2178 1.530 . S
C2181 H2244 0.961 . S
C2181 H2245 0.960 . S
C2181 H2246 0.960 . S
C2182 C2183 1.530 . S
C2182 H2248 0.961 . S
C2182 H2249 0.961 . S
C2182 H2250 0.959 . S
C2183 C2182 1.530 . S
C2183 O2211 1.412 . S
C2183 H2247 0.980 . S
C2184 C2185 1.288 . S
C2184 C2189 1.377 . S
C2184 O2211 1.393 . S
C2185 C2184 1.288 . S
C2185 C2186 1.369 . S
C2185 H2251 0.932 . S
C2186 C2185 1.369 . S
C2186 C2187 1.398 . S
C2186 C2190 1.527 . S
C2187 C2186 1.398 . S
C2187 C2188 1.380 . S
C2187 C2201 1.497 . S
C2188 C2187 1.380 . S
C2188 C2189 1.383 . S
C2188 C2191 1.603 . S
C2189 C2184 1.377 . S
C2189 C2188 1.383 . S
C2189 H2252 0.929 . S
C2190 C2186 1.527 . S
C2190 H2253 0.961 . S
C2190 H2254 0.959 . S
C2190 H2255 0.959 . S
C2191 C2188 1.603 . S
C2191 H2256 0.960 . S
C2191 H2257 0.962 . S
C2191 H2258 0.961 . S
C2192 C2159 1.587 . S
C2192 C2193 1.360 . S
C2192 C2205 1.412 . S
C2193 C2192 1.360 . S
C2193 C2194 1.365 . S
C2193 H2259 0.929 . S
C2194 C2169 1.553 . S
C2194 C2193 1.365 . S
C2194 C2195 1.404 . S
C2195 C2194 1.404 . S
C2195 C2196 1.395 . S
C2195 C2206 1.451 . S
C2196 C2195 1.395 . S
C2196 C2197 1.322 . S
C2196 H2260 0.930 . S
C2197 C2196 1.322 . S
C2197 C2198 1.459 . S
C2197 H2261 0.929 . S
C2198 C2197 1.459 . S
C2198 C2199 1.445 . S
C2198 C2207 1.395 . S
C2199 C2177 1.432 . S
C2199 C2198 1.445 . S
C2199 C2200 1.370 . S
C2200 C2199 1.370 . S
C2200 C2201 1.438 . S
C2200 H2262 0.930 . S
C2201 C2187 1.497 . S
C2201 C2200 1.438 . S
C2201 C2202 1.360 . S
C2202 C2201 1.360 . S
C2202 C2203 1.401 . S
C2202 C2207 1.446 . S
C2203 C2202 1.401 . S
C2203 C2204 1.347 . S
C2203 H2263 0.929 . S
C2204 C2203 1.347 . S
C2204 C2205 1.455 . S
C2204 H2264 0.930 . S
C2205 C2192 1.412 . S
C2205 C2204 1.455 . S
C2205 C2206 1.331 . S
C2206 C2195 1.451 . S
C2206 C2205 1.331 . S
C2206 C2207 1.497 . S
C2207 C2198 1.395 . S
C2207 C2202 1.446 . S
C2207 C2206 1.497 . S
C2208 C2209 1.582 . S
C2208 H2265 0.962 . S
C2208 H2266 0.959 . S
C2208 H2267 0.958 . S
C2209 C2208 1.582 . S
C2209 O2212 1.458 . S
C2209 H2238 0.980 . S
O2210 C2155 1.426 . S
O2210 C2156 1.334 . S
O2211 C2183 1.412 . S
O2211 C2184 1.393 . S
O2212 C2174 1.435 . S
O2212 C2209 1.458 . S
O2213 C2165 1.468 . S
O2213 C2166 1.408 . S
H2214 C2155 0.980 . S
H2215 C2154 0.959 . S
H2216 C2154 0.959 . S
H2217 C2154 0.960 . S
H2218 C2157 0.929 . S
H2219 C2161 0.929 . S
H2220 C2162 0.959 . S
H2221 C2162 0.961 . S
H2222 C2162 0.961 . S
H2223 C2163 0.960 . S
H2224 C2163 0.960 . S
H2225 C2163 0.961 . S
H2226 C2165 0.980 . S
H2227 C2164 0.961 . S
H2228 C2164 0.960 . S
H2229 C2164 0.959 . S
H2230 C2167 0.930 . S
H2231 C2171 0.931 . S
H2232 C2172 0.959 . S
H2233 C2172 0.961 . S
H2234 C2172 0.959 . S
H2235 C2173 0.960 . S
H2236 C2173 0.960 . S
H2237 C2173 0.960 . S
H2238 C2209 0.980 . S
H2239 C2175 0.930 . S
H2240 C2179 0.930 . S
H2241 C2180 0.961 . S
H2242 C2180 0.960 . S
H2243 C2180 0.958 . S
H2244 C2181 0.961 . S
H2245 C2181 0.960 . S
H2246 C2181 0.960 . S
H2247 C2183 0.980 . S
H2248 C2182 0.961 . S
H2249 C2182 0.961 . S
H2250 C2182 0.959 . S
H2251 C2185 0.932 . S
H2252 C2189 0.929 . S
H2253 C2190 0.961 . S
H2254 C2190 0.959 . S
H2255 C2190 0.959 . S
H2256 C2191 0.960 . S
H2257 C2191 0.962 . S
H2258 C2191 0.961 . S
H2259 C2193 0.929 . S
H2260 C2196 0.930 . S
H2261 C2197 0.929 . S
H2262 C2200 0.930 . S
H2263 C2203 0.929 . S
H2264 C2204 0.930 . S
H2265 C2208 0.962 . S
H2266 C2208 0.959 . S
H2267 C2208 0.958 . S
C2268 C2269 1.560 . S
C2268 H2329 0.959 . S
C2268 H2330 0.959 . S
C2268 H2331 0.960 . S
C2269 C2268 1.560 . S
C2269 O2324 1.426 . S
C2269 H2328 0.980 . S
C2270 C2271 1.407 . S
C2270 C2275 1.418 . S
C2270 O2324 1.334 . S
C2271 C2270 1.407 . S
C2271 C2272 1.360 . S
C2271 H2332 0.929 . S
C2272 C2271 1.360 . S
C2272 C2273 1.401 . S
C2272 C2276 1.527 . S
C2273 C2272 1.401 . S
C2273 C2274 1.405 . S
C2273 C2306 1.587 . S
C2274 C2273 1.405 . S
C2274 C2275 1.332 . S
C2274 C2277 1.496 . S
C2275 C2270 1.418 . S
C2275 C2274 1.332 . S
C2275 H2333 0.929 . S
C2276 C2272 1.527 . S
C2276 H2334 0.959 . S
C2276 H2335 0.961 . S
C2276 H2336 0.961 . S
C2277 C2274 1.496 . S
C2277 H2337 0.960 . S
C2277 H2338 0.960 . S
C2277 H2339 0.961 . S
C2278 C2279 1.517 . S
C2278 H2341 0.961 . S
C2278 H2342 0.960 . S
C2278 H2343 0.959 . S
C2279 C2278 1.517 . S
C2279 O2327 1.468 . S
C2279 H2340 0.980 . S
C2280 C2281 1.349 . S
C2280 C2285 1.367 . S
C2280 O2327 1.408 . S
C2281 C2280 1.349 . S
C2281 C2282 1.407 . S
C2281 H2344 0.930 . S
C2282 C2281 1.407 . S
C2282 C2283 1.449 . S
C2282 C2286 1.535 . S
C2283 C2282 1.449 . S
C2283 C2284 1.384 . S
C2283 C2308 1.553 . S
C2284 C2283 1.384 . S
C2284 C2285 1.364 . S
C2284 C2287 1.450 . S
C2285 C2280 1.367 . S
C2285 C2284 1.364 . S
C2285 H2345 0.931 . S
C2286 C2282 1.535 . S
C2286 H2346 0.959 . S
C2286 H2347 0.961 . S
C2286 H2348 0.959 . S
C2287 C2284 1.450 . S
C2287 H2349 0.960 . S
C2287 H2350 0.960 . S
C2287 H2351 0.960 . S
C2288 C2289 1.309 . S
C2288 C2293 1.304 . S
C2288 O2326 1.435 . S
C2289 C2288 1.309 . S
C2289 C2290 1.476 . S
C2289 H2353 0.930 . S
C2290 C2289 1.476 . S
C2290 C2291 1.400 . S
C2290 C2294 1.567 . S
C2291 C2290 1.400 . S
C2291 C2292 1.373 . S
C2291 C2313 1.432 . S
C2292 C2291 1.373 . S
C2292 C2293 1.339 . S
C2292 C2295 1.530 . S
C2293 C2288 1.304 . S
C2293 C2292 1.339 . S
C2293 H2354 0.930 . S
C2294 C2290 1.567 . S
C2294 H2355 0.961 . S
C2294 H2356 0.960 . S
C2294 H2357 0.958 . S
C2295 C2292 1.530 . S
C2295 H2358 0.961 . S
C2295 H2359 0.960 . S
C2295 H2360 0.960 . S
C2296 C2297 1.530 . S
C2296 H2362 0.961 . S
C2296 H2363 0.961 . S
C2296 H2364 0.959 . S
C2297 C2296 1.530 . S
C2297 O2325 1.412 . S
C2297 H2361 0.980 . S
C2298 C2299 1.288 . S
C2298 C2303 1.377 . S
C2298 O2325 1.393 . S
C2299 C2298 1.288 . S
C2299 C2300 1.369 . S
C2299 H2365 0.932 . S
C2300 C2299 1.369 . S
C2300 C2301 1.398 . S
C2300 C2304 1.527 . S
C2301 C2300 1.398 . S
C2301 C2302 1.380 . S
C2301 C2315 1.497 . S
C2302 C2301 1.380 . S
C2302 C2303 1.383 . S
C2302 C2305 1.603 . S
C2303 C2298 1.377 . S
C2303 C2302 1.383 . S
C2303 H2366 0.929 . S
C2304 C2300 1.527 . S
C2304 H2367 0.961 . S
C2304 H2368 0.959 . S
C2304 H2369 0.959 . S
C2305 C2302 1.603 . S
C2305 H2370 0.960 . S
C2305 H2371 0.962 . S
C2305 H2372 0.961 . S
C2306 C2273 1.587 . S
C2306 C2307 1.360 . S
C2306 C2319 1.412 . S
C2307 C2306 1.360 . S
C2307 C2308 1.365 . S
C2307 H2373 0.929 . S
C2308 C2283 1.553 . S
C2308 C2307 1.365 . S
C2308 C2309 1.404 . S
C2309 C2308 1.404 . S
C2309 C2310 1.395 . S
C2309 C2320 1.451 . S
C2310 C2309 1.395 . S
C2310 C2311 1.322 . S
C2310 H2374 0.930 . S
C2311 C2310 1.322 . S
C2311 C2312 1.459 . S
C2311 H2375 0.929 . S
C2312 C2311 1.459 . S
C2312 C2313 1.445 . S
C2312 C2321 1.395 . S
C2313 C2291 1.432 . S
C2313 C2312 1.445 . S
C2313 C2314 1.370 . S
C2314 C2313 1.370 . S
C2314 C2315 1.438 . S
C2314 H2376 0.930 . S
C2315 C2301 1.497 . S
C2315 C2314 1.438 . S
C2315 C2316 1.360 . S
C2316 C2315 1.360 . S
C2316 C2317 1.401 . S
C2316 C2321 1.446 . S
C2317 C2316 1.401 . S
C2317 C2318 1.347 . S
C2317 H2377 0.929 . S
C2318 C2317 1.347 . S
C2318 C2319 1.455 . S
C2318 H2378 0.930 . S
C2319 C2306 1.412 . S
C2319 C2318 1.455 . S
C2319 C2320 1.331 . S
C2320 C2309 1.451 . S
C2320 C2319 1.331 . S
C2320 C2321 1.497 . S
C2321 C2312 1.395 . S
C2321 C2316 1.446 . S
C2321 C2320 1.497 . S
C2322 C2323 1.582 . S
C2322 H2379 0.962 . S
C2322 H2380 0.959 . S
C2322 H2381 0.958 . S
C2323 C2322 1.582 . S
C2323 O2326 1.458 . S
C2323 H2352 0.980 . S
O2324 C2269 1.426 . S
O2324 C2270 1.334 . S
O2325 C2297 1.412 . S
O2325 C2298 1.393 . S
O2326 C2288 1.435 . S
O2326 C2323 1.458 . S
O2327 C2279 1.468 . S
O2327 C2280 1.408 . S
H2328 C2269 0.980 . S
H2329 C2268 0.959 . S
H2330 C2268 0.959 . S
H2331 C2268 0.960 . S
H2332 C2271 0.929 . S
H2333 C2275 0.929 . S
H2334 C2276 0.959 . S
H2335 C2276 0.961 . S
H2336 C2276 0.961 . S
H2337 C2277 0.960 . S
H2338 C2277 0.960 . S
H2339 C2277 0.961 . S
H2340 C2279 0.980 . S
H2341 C2278 0.961 . S
H2342 C2278 0.960 . S
H2343 C2278 0.959 . S
H2344 C2281 0.930 . S
H2345 C2285 0.931 . S
H2346 C2286 0.959 . S
H2347 C2286 0.961 . S
H2348 C2286 0.959 . S
H2349 C2287 0.960 . S
H2350 C2287 0.960 . S
H2351 C2287 0.960 . S
H2352 C2323 0.980 . S
H2353 C2289 0.930 . S
H2354 C2293 0.930 . S
H2355 C2294 0.961 . S
H2356 C2294 0.960 . S
H2357 C2294 0.958 . S
H2358 C2295 0.961 . S
H2359 C2295 0.960 . S
H2360 C2295 0.960 . S
H2361 C2297 0.980 . S
H2362 C2296 0.961 . S
H2363 C2296 0.961 . S
H2364 C2296 0.959 . S
H2365 C2299 0.932 . S
H2366 C2303 0.929 . S
H2367 C2304 0.961 . S
H2368 C2304 0.959 . S
H2369 C2304 0.959 . S
H2370 C2305 0.960 . S
H2371 C2305 0.962 . S
H2372 C2305 0.961 . S
H2373 C2307 0.929 . S
H2374 C2310 0.930 . S
H2375 C2311 0.929 . S
H2376 C2314 0.930 . S
H2377 C2317 0.929 . S
H2378 C2318 0.930 . S
H2379 C2322 0.962 . S
H2380 C2322 0.959 . S
H2381 C2322 0.958 . S
C2382 C2383 1.560 . S
C2382 H2443 0.959 . S
C2382 H2444 0.959 . S
C2382 H2445 0.960 . S
C2383 C2382 1.560 . S
C2383 O2438 1.426 . S
C2383 H2442 0.980 . S
C2384 C2385 1.407 . S
C2384 C2389 1.418 . S
C2384 O2438 1.334 . S
C2385 C2384 1.407 . S
C2385 C2386 1.360 . S
C2385 H2446 0.929 . S
C2386 C2385 1.360 . S
C2386 C2387 1.401 . S
C2386 C2390 1.527 . S
C2387 C2386 1.401 . S
C2387 C2388 1.405 . S
C2387 C2420 1.587 . S
C2388 C2387 1.405 . S
C2388 C2389 1.332 . S
C2388 C2391 1.496 . S
C2389 C2384 1.418 . S
C2389 C2388 1.332 . S
C2389 H2447 0.929 . S
C2390 C2386 1.527 . S
C2390 H2448 0.959 . S
C2390 H2449 0.961 . S
C2390 H2450 0.961 . S
C2391 C2388 1.496 . S
C2391 H2451 0.960 . S
C2391 H2452 0.960 . S
C2391 H2453 0.961 . S
C2392 C2393 1.517 . S
C2392 H2455 0.961 . S
C2392 H2456 0.960 . S
C2392 H2457 0.959 . S
C2393 C2392 1.517 . S
C2393 O2441 1.468 . S
C2393 H2454 0.980 . S
C2394 C2395 1.349 . S
C2394 C2399 1.367 . S
C2394 O2441 1.408 . S
C2395 C2394 1.349 . S
C2395 C2396 1.407 . S
C2395 H2458 0.930 . S
C2396 C2395 1.407 . S
C2396 C2397 1.449 . S
C2396 C2400 1.535 . S
C2397 C2396 1.449 . S
C2397 C2398 1.384 . S
C2397 C2422 1.553 . S
C2398 C2397 1.384 . S
C2398 C2399 1.364 . S
C2398 C2401 1.450 . S
C2399 C2394 1.367 . S
C2399 C2398 1.364 . S
C2399 H2459 0.931 . S
C2400 C2396 1.535 . S
C2400 H2460 0.959 . S
C2400 H2461 0.961 . S
C2400 H2462 0.959 . S
C2401 C2398 1.450 . S
C2401 H2463 0.960 . S
C2401 H2464 0.960 . S
C2401 H2465 0.960 . S
C2402 C2403 1.309 . S
C2402 C2407 1.304 . S
C2402 O2440 1.435 . S
C2403 C2402 1.309 . S
C2403 C2404 1.476 . S
C2403 H2467 0.930 . S
C2404 C2403 1.476 . S
C2404 C2405 1.400 . S
C2404 C2408 1.567 . S
C2405 C2404 1.400 . S
C2405 C2406 1.373 . S
C2405 C2427 1.432 . S
C2406 C2405 1.373 . S
C2406 C2407 1.339 . S
C2406 C2409 1.530 . S
C2407 C2402 1.304 . S
C2407 C2406 1.339 . S
C2407 H2468 0.930 . S
C2408 C2404 1.567 . S
C2408 H2469 0.961 . S
C2408 H2470 0.960 . S
C2408 H2471 0.958 . S
C2409 C2406 1.530 . S
C2409 H2472 0.961 . S
C2409 H2473 0.960 . S
C2409 H2474 0.960 . S
C2410 C2411 1.530 . S
C2410 H2476 0.961 . S
C2410 H2477 0.961 . S
C2410 H2478 0.959 . S
C2411 C2410 1.530 . S
C2411 O2439 1.412 . S
C2411 H2475 0.980 . S
C2412 C2413 1.288 . S
C2412 C2417 1.377 . S
C2412 O2439 1.393 . S
C2413 C2412 1.288 . S
C2413 C2414 1.369 . S
C2413 H2479 0.932 . S
C2414 C2413 1.369 . S
C2414 C2415 1.398 . S
C2414 C2418 1.527 . S
C2415 C2414 1.398 . S
C2415 C2416 1.380 . S
C2415 C2429 1.497 . S
C2416 C2415 1.380 . S
C2416 C2417 1.383 . S
C2416 C2419 1.603 . S
C2417 C2412 1.377 . S
C2417 C2416 1.383 . S
C2417 H2480 0.929 . S
C2418 C2414 1.527 . S
C2418 H2481 0.961 . S
C2418 H2482 0.959 . S
C2418 H2483 0.959 . S
C2419 C2416 1.603 . S
C2419 H2484 0.960 . S
C2419 H2485 0.962 . S
C2419 H2486 0.961 . S
C2420 C2387 1.587 . S
C2420 C2421 1.360 . S
C2420 C2433 1.412 . S
C2421 C2420 1.360 . S
C2421 C2422 1.365 . S
C2421 H2487 0.929 . S
C2422 C2397 1.553 . S
C2422 C2421 1.365 . S
C2422 C2423 1.404 . S
C2423 C2422 1.404 . S
C2423 C2424 1.395 . S
C2423 C2434 1.451 . S
C2424 C2423 1.395 . S
C2424 C2425 1.322 . S
C2424 H2488 0.930 . S
C2425 C2424 1.322 . S
C2425 C2426 1.459 . S
C2425 H2489 0.929 . S
C2426 C2425 1.459 . S
C2426 C2427 1.445 . S
C2426 C2435 1.395 . S
C2427 C2405 1.432 . S
C2427 C2426 1.445 . S
C2427 C2428 1.370 . S
C2428 C2427 1.370 . S
C2428 C2429 1.438 . S
C2428 H2490 0.930 . S
C2429 C2415 1.497 . S
C2429 C2428 1.438 . S
C2429 C2430 1.360 . S
C2430 C2429 1.360 . S
C2430 C2431 1.401 . S
C2430 C2435 1.446 . S
C2431 C2430 1.401 . S
C2431 C2432 1.347 . S
C2431 H2491 0.929 . S
C2432 C2431 1.347 . S
C2432 C2433 1.455 . S
C2432 H2492 0.930 . S
C2433 C2420 1.412 . S
C2433 C2432 1.455 . S
C2433 C2434 1.331 . S
C2434 C2423 1.451 . S
C2434 C2433 1.331 . S
C2434 C2435 1.497 . S
C2435 C2426 1.395 . S
C2435 C2430 1.446 . S
C2435 C2434 1.497 . S
C2436 C2437 1.582 . S
C2436 H2493 0.962 . S
C2436 H2494 0.959 . S
C2436 H2495 0.958 . S
C2437 C2436 1.582 . S
C2437 O2440 1.458 . S
C2437 H2466 0.980 . S
O2438 C2383 1.426 . S
O2438 C2384 1.334 . S
O2439 C2411 1.412 . S
O2439 C2412 1.393 . S
O2440 C2402 1.435 . S
O2440 C2437 1.458 . S
O2441 C2393 1.468 . S
O2441 C2394 1.408 . S
H2442 C2383 0.980 . S
H2443 C2382 0.959 . S
H2444 C2382 0.959 . S
H2445 C2382 0.960 . S
H2446 C2385 0.929 . S
H2447 C2389 0.929 . S
H2448 C2390 0.959 . S
H2449 C2390 0.961 . S
H2450 C2390 0.961 . S
H2451 C2391 0.960 . S
H2452 C2391 0.960 . S
H2453 C2391 0.961 . S
H2454 C2393 0.980 . S
H2455 C2392 0.961 . S
H2456 C2392 0.960 . S
H2457 C2392 0.959 . S
H2458 C2395 0.930 . S
H2459 C2399 0.931 . S
H2460 C2400 0.959 . S
H2461 C2400 0.961 . S
H2462 C2400 0.959 . S
H2463 C2401 0.960 . S
H2464 C2401 0.960 . S
H2465 C2401 0.960 . S
H2466 C2437 0.980 . S
H2467 C2403 0.930 . S
H2468 C2407 0.930 . S
H2469 C2408 0.961 . S
H2470 C2408 0.960 . S
H2471 C2408 0.958 . S
H2472 C2409 0.961 . S
H2473 C2409 0.960 . S
H2474 C2409 0.960 . S
H2475 C2411 0.980 . S
H2476 C2410 0.961 . S
H2477 C2410 0.961 . S
H2478 C2410 0.959 . S
H2479 C2413 0.932 . S
H2480 C2417 0.929 . S
H2481 C2418 0.961 . S
H2482 C2418 0.959 . S
H2483 C2418 0.959 . S
H2484 C2419 0.960 . S
H2485 C2419 0.962 . S
H2486 C2419 0.961 . S
H2487 C2421 0.929 . S
H2488 C2424 0.930 . S
H2489 C2425 0.929 . S
H2490 C2428 0.930 . S
H2491 C2431 0.929 . S
H2492 C2432 0.930 . S
H2493 C2436 0.962 . S
H2494 C2436 0.959 . S
H2495 C2436 0.958 . S
C2496 C2497 1.560 . S
C2496 H2557 0.959 . S
C2496 H2558 0.959 . S
C2496 H2559 0.960 . S
C2497 C2496 1.560 . S
C2497 O2552 1.426 . S
C2497 H2556 0.980 . S
C2498 C2499 1.407 . S
C2498 C2503 1.418 . S
C2498 O2552 1.334 . S
C2499 C2498 1.407 . S
C2499 C2500 1.360 . S
C2499 H2560 0.929 . S
C2500 C2499 1.360 . S
C2500 C2501 1.401 . S
C2500 C2504 1.527 . S
C2501 C2500 1.401 . S
C2501 C2502 1.405 . S
C2501 C2534 1.587 . S
C2502 C2501 1.405 . S
C2502 C2503 1.332 . S
C2502 C2505 1.496 . S
C2503 C2498 1.418 . S
C2503 C2502 1.332 . S
C2503 H2561 0.929 . S
C2504 C2500 1.527 . S
C2504 H2562 0.959 . S
C2504 H2563 0.961 . S
C2504 H2564 0.961 . S
C2505 C2502 1.496 . S
C2505 H2565 0.960 . S
C2505 H2566 0.960 . S
C2505 H2567 0.961 . S
C2506 C2507 1.517 . S
C2506 H2569 0.961 . S
C2506 H2570 0.960 . S
C2506 H2571 0.959 . S
C2507 C2506 1.517 . S
C2507 O2555 1.468 . S
C2507 H2568 0.980 . S
C2508 C2509 1.349 . S
C2508 C2513 1.367 . S
C2508 O2555 1.408 . S
C2509 C2508 1.349 . S
C2509 C2510 1.407 . S
C2509 H2572 0.930 . S
C2510 C2509 1.407 . S
C2510 C2511 1.449 . S
C2510 C2514 1.535 . S
C2511 C2510 1.449 . S
C2511 C2512 1.384 . S
C2511 C2536 1.553 . S
C2512 C2511 1.384 . S
C2512 C2513 1.364 . S
C2512 C2515 1.450 . S
C2513 C2508 1.367 . S
C2513 C2512 1.364 . S
C2513 H2573 0.931 . S
C2514 C2510 1.535 . S
C2514 H2574 0.959 . S
C2514 H2575 0.961 . S
C2514 H2576 0.959 . S
C2515 C2512 1.450 . S
C2515 H2577 0.960 . S
C2515 H2578 0.960 . S
C2515 H2579 0.960 . S
C2516 C2517 1.309 . S
C2516 C2521 1.304 . S
C2516 O2554 1.435 . S
C2517 C2516 1.309 . S
C2517 C2518 1.476 . S
C2517 H2581 0.930 . S
C2518 C2517 1.476 . S
C2518 C2519 1.400 . S
C2518 C2522 1.567 . S
C2519 C2518 1.400 . S
C2519 C2520 1.373 . S
C2519 C2541 1.432 . S
C2520 C2519 1.373 . S
C2520 C2521 1.339 . S
C2520 C2523 1.530 . S
C2521 C2516 1.304 . S
C2521 C2520 1.339 . S
C2521 H2582 0.930 . S
C2522 C2518 1.567 . S
C2522 H2583 0.961 . S
C2522 H2584 0.960 . S
C2522 H2585 0.958 . S
C2523 C2520 1.530 . S
C2523 H2586 0.961 . S
C2523 H2587 0.960 . S
C2523 H2588 0.960 . S
C2524 C2525 1.530 . S
C2524 H2590 0.961 . S
C2524 H2591 0.961 . S
C2524 H2592 0.959 . S
C2525 C2524 1.530 . S
C2525 O2553 1.412 . S
C2525 H2589 0.980 . S
C2526 C2527 1.288 . S
C2526 C2531 1.377 . S
C2526 O2553 1.393 . S
C2527 C2526 1.288 . S
C2527 C2528 1.369 . S
C2527 H2593 0.932 . S
C2528 C2527 1.369 . S
C2528 C2529 1.398 . S
C2528 C2532 1.527 . S
C2529 C2528 1.398 . S
C2529 C2530 1.380 . S
C2529 C2543 1.497 . S
C2530 C2529 1.380 . S
C2530 C2531 1.383 . S
C2530 C2533 1.603 . S
C2531 C2526 1.377 . S
C2531 C2530 1.383 . S
C2531 H2594 0.929 . S
C2532 C2528 1.527 . S
C2532 H2595 0.961 . S
C2532 H2596 0.959 . S
C2532 H2597 0.959 . S
C2533 C2530 1.603 . S
C2533 H2598 0.960 . S
C2533 H2599 0.962 . S
C2533 H2600 0.961 . S
C2534 C2501 1.587 . S
C2534 C2535 1.360 . S
C2534 C2547 1.412 . S
C2535 C2534 1.360 . S
C2535 C2536 1.365 . S
C2535 H2601 0.929 . S
C2536 C2511 1.553 . S
C2536 C2535 1.365 . S
C2536 C2537 1.404 . S
C2537 C2536 1.404 . S
C2537 C2538 1.395 . S
C2537 C2548 1.451 . S
C2538 C2537 1.395 . S
C2538 C2539 1.322 . S
C2538 H2602 0.930 . S
C2539 C2538 1.322 . S
C2539 C2540 1.459 . S
C2539 H2603 0.929 . S
C2540 C2539 1.459 . S
C2540 C2541 1.445 . S
C2540 C2549 1.395 . S
C2541 C2519 1.432 . S
C2541 C2540 1.445 . S
C2541 C2542 1.370 . S
C2542 C2541 1.370 . S
C2542 C2543 1.438 . S
C2542 H2604 0.930 . S
C2543 C2529 1.497 . S
C2543 C2542 1.438 . S
C2543 C2544 1.360 . S
C2544 C2543 1.360 . S
C2544 C2545 1.401 . S
C2544 C2549 1.446 . S
C2545 C2544 1.401 . S
C2545 C2546 1.347 . S
C2545 H2605 0.929 . S
C2546 C2545 1.347 . S
C2546 C2547 1.455 . S
C2546 H2606 0.930 . S
C2547 C2534 1.412 . S
C2547 C2546 1.455 . S
C2547 C2548 1.331 . S
C2548 C2537 1.451 . S
C2548 C2547 1.331 . S
C2548 C2549 1.497 . S
C2549 C2540 1.395 . S
C2549 C2544 1.446 . S
C2549 C2548 1.497 . S
C2550 C2551 1.582 . S
C2550 H2607 0.962 . S
C2550 H2608 0.959 . S
C2550 H2609 0.958 . S
C2551 C2550 1.582 . S
C2551 O2554 1.458 . S
C2551 H2580 0.980 . S
O2552 C2497 1.426 . S
O2552 C2498 1.334 . S
O2553 C2525 1.412 . S
O2553 C2526 1.393 . S
O2554 C2516 1.435 . S
O2554 C2551 1.458 . S
O2555 C2507 1.468 . S
O2555 C2508 1.408 . S
H2556 C2497 0.980 . S
H2557 C2496 0.959 . S
H2558 C2496 0.959 . S
H2559 C2496 0.960 . S
H2560 C2499 0.929 . S
H2561 C2503 0.929 . S
H2562 C2504 0.959 . S
H2563 C2504 0.961 . S
H2564 C2504 0.961 . S
H2565 C2505 0.960 . S
H2566 C2505 0.960 . S
H2567 C2505 0.961 . S
H2568 C2507 0.980 . S
H2569 C2506 0.961 . S
H2570 C2506 0.960 . S
H2571 C2506 0.959 . S
H2572 C2509 0.930 . S
H2573 C2513 0.931 . S
H2574 C2514 0.959 . S
H2575 C2514 0.961 . S
H2576 C2514 0.959 . S
H2577 C2515 0.960 . S
H2578 C2515 0.960 . S
H2579 C2515 0.960 . S
H2580 C2551 0.980 . S
H2581 C2517 0.930 . S
H2582 C2521 0.930 . S
H2583 C2522 0.961 . S
H2584 C2522 0.960 . S
H2585 C2522 0.958 . S
H2586 C2523 0.961 . S
H2587 C2523 0.960 . S
H2588 C2523 0.960 . S
H2589 C2525 0.980 . S
H2590 C2524 0.961 . S
H2591 C2524 0.961 . S
H2592 C2524 0.959 . S
H2593 C2527 0.932 . S
H2594 C2531 0.929 . S
H2595 C2532 0.961 . S
H2596 C2532 0.959 . S
H2597 C2532 0.959 . S
H2598 C2533 0.960 . S
H2599 C2533 0.962 . S
H2600 C2533 0.961 . S
H2601 C2535 0.929 . S
H2602 C2538 0.930 . S
H2603 C2539 0.929 . S
H2604 C2542 0.930 . S
H2605 C2545 0.929 . S
H2606 C2546 0.930 . S
H2607 C2550 0.962 . S
H2608 C2550 0.959 . S
H2609 C2550 0.958 . S
C2610 C2611 1.560 . S
C2610 H2671 0.959 . S
C2610 H2672 0.959 . S
C2610 H2673 0.960 . S
C2611 C2610 1.560 . S
C2611 O2666 1.426 . S
C2611 H2670 0.980 . S
C2612 C2613 1.407 1_455 S
C2612 C2617 1.418 . S
C2612 O2666 1.334 . S
C2613 C2612 1.407 1_655 S
C2613 C2614 1.360 . S
C2613 H2674 0.929 . S
C2614 C2613 1.360 . S
C2614 C2615 1.401 1_655 S
C2614 C2618 1.527 . S
C2615 C2614 1.401 1_455 S
C2615 C2616 1.405 . S
C2615 C2648 1.587 1_455 S
C2616 C2615 1.405 . S
C2616 C2617 1.332 . S
C2616 C2619 1.496 . S
C2617 C2612 1.418 . S
C2617 C2616 1.332 . S
C2617 H2675 0.929 . S
C2618 C2614 1.527 . S
C2618 H2676 0.959 . S
C2618 H2677 0.961 . S
C2618 H2678 0.961 . S
C2619 C2616 1.496 . S
C2619 H2679 0.960 . S
C2619 H2680 0.960 . S
C2619 H2681 0.961 . S
C2620 C2621 1.517 . S
C2620 H2683 0.963 . S
C2620 H2684 0.960 . S
C2620 H2685 0.959 . S
C2621 C2620 1.517 . S
C2621 O2669 1.468 . S
C2621 H2682 0.980 1_655 S
C2622 C2623 1.349 . S
C2622 C2627 1.367 . S
C2622 O2669 1.408 . S
C2623 C2622 1.349 . S
C2623 C2624 1.356 1_655 S
C2623 H2686 0.930 1_655 S
C2624 C2623 1.356 1_455 S
C2624 C2625 1.405 1_455 S
C2624 C2628 1.625 . S
C2625 C2624 1.405 1_655 S
C2625 C2626 1.384 . S
C2625 C2650 1.553 . S
C2626 C2625 1.384 . S
C2626 C2627 1.364 . S
C2626 C2629 1.450 . S
C2627 C2622 1.367 . S
C2627 C2626 1.364 . S
C2627 H2687 0.931 . S
C2628 C2624 1.625 . S
C2628 H2688 0.959 . S
C2628 H2689 0.961 . S
C2628 H2690 0.959 . S
C2629 C2626 1.450 . S
C2629 H2691 0.960 . S
C2629 H2692 0.960 . S
C2629 H2693 0.960 . S
C2630 C2631 1.309 . S
C2630 C2635 1.304 . S
C2630 O2668 1.435 . S
C2631 C2630 1.309 . S
C2631 C2632 1.477 1_655 S
C2631 H2695 0.930 1_655 S
C2632 C2631 1.477 1_455 S
C2632 C2633 1.401 1_455 S
C2632 C2636 1.565 . S
C2633 C2632 1.401 1_655 S
C2633 C2634 1.373 . S
C2633 C2655 1.432 . S
C2634 C2633 1.373 . S
C2634 C2635 1.339 . S
C2634 C2637 1.530 . S
C2635 C2630 1.304 . S
C2635 C2634 1.339 . S
C2635 H2696 0.930 . S
C2636 C2632 1.565 . S
C2636 H2697 0.961 . S
C2636 H2698 0.960 . S
C2636 H2699 0.958 . S
C2637 C2634 1.530 . S
C2637 H2700 0.961 . S
C2637 H2701 0.960 . S
C2637 H2702 0.960 . S
C2638 C2639 1.511 1_455 S
C2638 H2704 0.961 . S
C2638 H2705 0.961 . S
C2638 H2706 0.959 . S
C2639 C2638 1.511 1_655 S
C2639 O2667 1.408 1_655 S
C2639 H2703 0.986 . S
C2640 C2641 1.288 . S
C2640 C2645 1.377 1_455 S
C2640 O2667 1.393 . S
C2641 C2640 1.288 . S
C2641 C2642 1.369 . S
C2641 H2707 0.932 . S
C2642 C2641 1.369 . S
C2642 C2643 1.398 1_455 S
C2642 C2646 1.527 . S
C2643 C2642 1.398 1_655 S
C2643 C2644 1.380 . S
C2643 C2657 1.497 . S
C2644 C2643 1.380 . S
C2644 C2645 1.383 . S
C2644 C2647 1.603 . S
C2645 C2640 1.377 1_655 S
C2645 C2644 1.383 . S
C2645 H2708 0.929 . S
C2646 C2642 1.527 . S
C2646 H2709 0.961 . S
C2646 H2710 0.959 . S
C2646 H2711 0.959 . S
C2647 C2644 1.603 . S
C2647 H2712 0.960 . S
C2647 H2713 0.962 . S
C2647 H2714 0.961 . S
C2648 C2615 1.587 1_655 S
C2648 C2649 1.360 . S
C2648 C2661 1.412 . S
C2649 C2648 1.360 . S
C2649 C2650 1.365 . S
C2649 H2715 0.929 . S
C2650 C2625 1.553 . S
C2650 C2649 1.365 . S
C2650 C2651 1.404 . S
C2651 C2650 1.404 . S
C2651 C2652 1.395 . S
C2651 C2662 1.451 . S
C2652 C2651 1.395 . S
C2652 C2653 1.322 . S
C2652 H2716 0.930 . S
C2653 C2652 1.322 . S
C2653 C2654 1.459 . S
C2653 H2717 0.929 . S
C2654 C2653 1.459 . S
C2654 C2655 1.445 . S
C2654 C2663 1.395 . S
C2655 C2633 1.432 . S
C2655 C2654 1.445 . S
C2655 C2656 1.370 . S
C2656 C2655 1.370 . S
C2656 C2657 1.438 . S
C2656 H2718 0.930 . S
C2657 C2643 1.497 . S
C2657 C2656 1.438 . S
C2657 C2658 1.360 . S
C2658 C2657 1.360 . S
C2658 C2659 1.401 . S
C2658 C2663 1.446 . S
C2659 C2658 1.401 . S
C2659 C2660 1.347 . S
C2659 H2719 0.929 . S
C2660 C2659 1.347 . S
C2660 C2661 1.455 . S
C2660 H2720 0.992 . S
C2661 C2648 1.412 . S
C2661 C2660 1.455 . S
C2661 C2662 1.331 . S
C2662 C2651 1.451 . S
C2662 C2661 1.331 . S
C2662 C2663 1.497 . S
C2663 C2654 1.395 . S
C2663 C2658 1.446 . S
C2663 C2662 1.497 . S
C2664 C2665 1.582 . S
C2664 H2721 0.962 . S
C2664 H2722 0.959 . S
C2664 H2723 0.958 . S
C2665 C2664 1.582 . S
C2665 O2668 1.458 . S
C2665 H2694 0.980 . S
O2666 C2611 1.426 . S
O2666 C2612 1.334 . S
O2667 C2639 1.408 1_455 S
O2667 C2640 1.393 . S
O2668 C2630 1.435 . S
O2668 C2665 1.458 . S
O2669 C2621 1.468 . S
O2669 C2622 1.408 . S
H2670 C2611 0.980 . S
H2671 C2610 0.959 . S
H2672 C2610 0.959 . S
H2673 C2610 0.960 . S
H2674 C2613 0.929 . S
H2675 C2617 0.929 . S
H2676 C2618 0.959 . S
H2677 C2618 0.961 . S
H2678 C2618 0.961 . S
H2679 C2619 0.960 . S
H2680 C2619 0.960 . S
H2681 C2619 0.961 . S
H2682 C2621 0.980 1_455 S
H2683 C2620 0.963 . S
H2684 C2620 0.960 . S
H2685 C2620 0.959 . S
H2686 C2623 0.930 1_455 S
H2687 C2627 0.931 . S
H2688 C2628 0.959 . S
H2689 C2628 0.961 . S
H2690 C2628 0.959 . S
H2691 C2629 0.960 . S
H2692 C2629 0.960 . S
H2693 C2629 0.960 . S
H2694 C2665 0.980 . S
H2695 C2631 0.930 1_455 S
H2696 C2635 0.930 . S
H2697 C2636 0.961 . S
H2698 C2636 0.960 . S
H2699 C2636 0.958 . S
H2700 C2637 0.961 . S
H2701 C2637 0.960 . S
H2702 C2637 0.960 . S
H2703 C2639 0.986 . S
H2704 C2638 0.961 . S
H2705 C2638 0.961 . S
H2706 C2638 0.959 . S
H2707 C2641 0.932 . S
H2708 C2645 0.929 . S
H2709 C2646 0.961 . S
H2710 C2646 0.959 . S
H2711 C2646 0.959 . S
H2712 C2647 0.960 . S
H2713 C2647 0.962 . S
H2714 C2647 0.961 . S
H2715 C2649 0.929 . S
H2716 C2652 0.930 . S
H2717 C2653 0.929 . S
H2718 C2656 0.930 . S
H2719 C2659 0.929 . S
H2720 C2660 0.992 . S
H2721 C2664 0.962 . S
H2722 C2664 0.959 . S
H2723 C2664 0.958 . S
C2724 C2725 1.560 . S
C2724 H2785 0.959 . S
C2724 H2786 0.959 . S
C2724 H2787 0.960 . S
C2725 C2724 1.560 . S
C2725 O2780 1.426 . S
C2725 H2784 0.980 . S
C2726 C2727 1.407 . S
C2726 C2731 1.418 . S
C2726 O2780 1.334 . S
C2727 C2726 1.407 . S
C2727 C2728 1.360 . S
C2727 H2788 0.929 . S
C2728 C2727 1.360 . S
C2728 C2729 1.401 . S
C2728 C2732 1.527 . S
C2729 C2728 1.401 . S
C2729 C2730 1.405 . S
C2729 C2762 1.587 . S
C2730 C2729 1.405 . S
C2730 C2731 1.332 . S
C2730 C2733 1.496 . S
C2731 C2726 1.418 . S
C2731 C2730 1.332 . S
C2731 H2789 0.929 . S
C2732 C2728 1.527 . S
C2732 H2790 0.959 . S
C2732 H2791 0.961 . S
C2732 H2792 0.961 . S
C2733 C2730 1.496 . S
C2733 H2793 0.960 . S
C2733 H2794 0.960 . S
C2733 H2795 0.961 . S
C2734 C2735 1.517 . S
C2734 H2797 0.961 . S
C2734 H2798 0.960 . S
C2734 H2799 0.959 . S
C2735 C2734 1.517 . S
C2735 O2783 1.468 . S
C2735 H2796 0.980 . S
C2736 C2737 1.349 . S
C2736 C2741 1.367 . S
C2736 O2783 1.408 . S
C2737 C2736 1.349 . S
C2737 C2738 1.407 . S
C2737 H2800 0.930 . S
C2738 C2737 1.407 . S
C2738 C2739 1.449 . S
C2738 C2742 1.535 . S
C2739 C2738 1.449 . S
C2739 C2740 1.384 . S
C2739 C2764 1.553 . S
C2740 C2739 1.384 . S
C2740 C2741 1.364 . S
C2740 C2743 1.450 . S
C2741 C2736 1.367 . S
C2741 C2740 1.364 . S
C2741 H2801 0.931 . S
C2742 C2738 1.535 . S
C2742 H2802 0.959 . S
C2742 H2803 0.961 . S
C2742 H2804 0.959 . S
C2743 C2740 1.450 . S
C2743 H2805 0.960 . S
C2743 H2806 0.960 . S
C2743 H2807 0.960 . S
C2744 C2745 1.309 . S
C2744 C2749 1.304 . S
C2744 O2782 1.435 . S
C2745 C2744 1.309 . S
C2745 C2746 1.476 . S
C2745 H2809 0.930 . S
C2746 C2745 1.476 . S
C2746 C2747 1.400 . S
C2746 C2750 1.567 . S
C2747 C2746 1.400 . S
C2747 C2748 1.373 . S
C2747 C2769 1.432 . S
C2748 C2747 1.373 . S
C2748 C2749 1.339 . S
C2748 C2751 1.530 . S
C2749 C2744 1.304 . S
C2749 C2748 1.339 . S
C2749 H2810 0.930 . S
C2750 C2746 1.567 . S
C2750 H2811 0.961 . S
C2750 H2812 0.960 . S
C2750 H2813 0.958 . S
C2751 C2748 1.530 . S
C2751 H2814 0.961 . S
C2751 H2815 0.960 . S
C2751 H2816 0.960 . S
C2752 C2753 1.530 . S
C2752 H2818 0.961 . S
C2752 H2819 0.961 . S
C2752 H2820 0.959 . S
C2753 C2752 1.530 . S
C2753 O2781 1.412 . S
C2753 H2817 0.980 . S
C2754 C2755 1.288 . S
C2754 C2759 1.377 . S
C2754 O2781 1.393 . S
C2755 C2754 1.288 . S
C2755 C2756 1.369 . S
C2755 H2821 0.932 . S
C2756 C2755 1.369 . S
C2756 C2757 1.398 . S
C2756 C2760 1.527 . S
C2757 C2756 1.398 . S
C2757 C2758 1.380 . S
C2757 C2771 1.497 . S
C2758 C2757 1.380 . S
C2758 C2759 1.383 . S
C2758 C2761 1.603 . S
C2759 C2754 1.377 . S
C2759 C2758 1.383 . S
C2759 H2822 0.929 . S
C2760 C2756 1.527 . S
C2760 H2823 0.961 . S
C2760 H2824 0.959 . S
C2760 H2825 0.959 . S
C2761 C2758 1.603 . S
C2761 H2826 0.960 . S
C2761 H2827 0.962 . S
C2761 H2828 0.961 . S
C2762 C2729 1.587 . S
C2762 C2763 1.360 . S
C2762 C2775 1.412 . S
C2763 C2762 1.360 . S
C2763 C2764 1.365 . S
C2763 H2829 0.929 . S
C2764 C2739 1.553 . S
C2764 C2763 1.365 . S
C2764 C2765 1.404 . S
C2765 C2764 1.404 . S
C2765 C2766 1.395 . S
C2765 C2776 1.451 . S
C2766 C2765 1.395 . S
C2766 C2767 1.322 . S
C2766 H2830 0.930 . S
C2767 C2766 1.322 . S
C2767 C2768 1.459 . S
C2767 H2831 0.929 . S
C2768 C2767 1.459 . S
C2768 C2769 1.445 . S
C2768 C2777 1.395 . S
C2769 C2747 1.432 . S
C2769 C2768 1.445 . S
C2769 C2770 1.370 . S
C2770 C2769 1.370 . S
C2770 C2771 1.438 . S
C2770 H2832 0.930 . S
C2771 C2757 1.497 . S
C2771 C2770 1.438 . S
C2771 C2772 1.360 . S
C2772 C2771 1.360 . S
C2772 C2773 1.401 . S
C2772 C2777 1.446 . S
C2773 C2772 1.401 . S
C2773 C2774 1.347 . S
C2773 H2833 0.929 . S
C2774 C2773 1.347 . S
C2774 C2775 1.455 . S
C2774 H2834 0.930 . S
C2775 C2762 1.412 . S
C2775 C2774 1.455 . S
C2775 C2776 1.331 . S
C2776 C2765 1.451 . S
C2776 C2775 1.331 . S
C2776 C2777 1.497 . S
C2777 C2768 1.395 . S
C2777 C2772 1.446 . S
C2777 C2776 1.497 . S
C2778 C2779 1.582 . S
C2778 H2835 0.962 . S
C2778 H2836 0.959 . S
C2778 H2837 0.958 . S
C2779 C2778 1.582 . S
C2779 O2782 1.458 . S
C2779 H2808 0.980 . S
O2780 C2725 1.426 . S
O2780 C2726 1.334 . S
O2781 C2753 1.412 . S
O2781 C2754 1.393 . S
O2782 C2744 1.435 . S
O2782 C2779 1.458 . S
O2783 C2735 1.468 . S
O2783 C2736 1.408 . S
H2784 C2725 0.980 . S
H2785 C2724 0.959 . S
H2786 C2724 0.959 . S
H2787 C2724 0.960 . S
H2788 C2727 0.929 . S
H2789 C2731 0.929 . S
H2790 C2732 0.959 . S
H2791 C2732 0.961 . S
H2792 C2732 0.961 . S
H2793 C2733 0.960 . S
H2794 C2733 0.960 . S
H2795 C2733 0.961 . S
H2796 C2735 0.980 . S
H2797 C2734 0.961 . S
H2798 C2734 0.960 . S
H2799 C2734 0.959 . S
H2800 C2737 0.930 . S
H2801 C2741 0.931 . S
H2802 C2742 0.959 . S
H2803 C2742 0.961 . S
H2804 C2742 0.959 . S
H2805 C2743 0.960 . S
H2806 C2743 0.960 . S
H2807 C2743 0.960 . S
H2808 C2779 0.980 . S
H2809 C2745 0.930 . S
H2810 C2749 0.930 . S
H2811 C2750 0.961 . S
H2812 C2750 0.960 . S
H2813 C2750 0.958 . S
H2814 C2751 0.961 . S
H2815 C2751 0.960 . S
H2816 C2751 0.960 . S
H2817 C2753 0.980 . S
H2818 C2752 0.961 . S
H2819 C2752 0.961 . S
H2820 C2752 0.959 . S
H2821 C2755 0.932 . S
H2822 C2759 0.929 . S
H2823 C2760 0.961 . S
H2824 C2760 0.959 . S
H2825 C2760 0.959 . S
H2826 C2761 0.960 . S
H2827 C2761 0.962 . S
H2828 C2761 0.961 . S
H2829 C2763 0.929 . S
H2830 C2766 0.930 . S
H2831 C2767 0.929 . S
H2832 C2770 0.930 . S
H2833 C2773 0.929 . S
H2834 C2774 0.930 . S
H2835 C2778 0.962 . S
H2836 C2778 0.959 . S
H2837 C2778 0.958 . S
C2838 C2839 1.560 . S
C2838 H2899 0.959 . S
C2838 H2900 0.959 . S
C2838 H2901 0.960 . S
C2839 C2838 1.560 . S
C2839 O2894 1.426 . S
C2839 H2898 0.980 . S
C2840 C2841 1.407 1_565 S
C2840 C2845 1.418 . S
C2840 O2894 1.334 . S
C2841 C2840 1.407 1_545 S
C2841 C2842 1.360 . S
C2841 H2902 0.929 . S
C2842 C2841 1.360 . S
C2842 C2843 1.401 1_545 S
C2842 C2846 1.527 . S
C2843 C2842 1.401 1_565 S
C2843 C2844 1.405 . S
C2843 C2876 1.587 1_565 S
C2844 C2843 1.405 . S
C2844 C2845 1.332 . S
C2844 C2847 1.496 . S
C2845 C2840 1.418 . S
C2845 C2844 1.332 . S
C2845 H2903 0.929 . S
C2846 C2842 1.527 . S
C2846 H2904 0.959 . S
C2846 H2905 0.961 . S
C2846 H2906 0.961 . S
C2847 C2844 1.496 . S
C2847 H2907 0.960 . S
C2847 H2908 0.960 . S
C2847 H2909 0.961 . S
C2848 C2849 1.517 . S
C2848 H2911 0.961 1_545 S
C2848 H2912 0.960 . S
C2848 H2913 0.959 . S
C2849 C2848 1.517 . S
C2849 O2897 1.468 . S
C2849 H2910 0.980 1_545 S
C2850 C2851 1.376 . S
C2850 C2855 1.367 . S
C2850 O2897 1.408 . S
C2851 C2850 1.376 . S
C2851 C2852 1.423 1_545 S
C2851 H2914 0.887 1_545 S
C2852 C2851 1.423 1_565 S
C2852 C2853 1.449 1_565 S
C2852 C2856 1.535 . S
C2853 C2852 1.449 1_545 S
C2853 C2854 1.384 . S
C2853 C2878 1.553 . S
C2854 C2853 1.384 . S
C2854 C2855 1.364 . S
C2854 C2857 1.450 . S
C2855 C2850 1.367 . S
C2855 C2854 1.364 . S
C2855 H2915 0.931 . S
C2856 C2852 1.535 . S
C2856 H2916 0.959 . S
C2856 H2917 0.961 . S
C2856 H2918 0.959 . S
C2857 C2854 1.450 . S
C2857 H2919 0.960 . S
C2857 H2920 0.960 . S
C2857 H2921 0.960 . S
C2858 C2859 1.309 . S
C2858 C2863 1.304 . S
C2858 O2896 1.435 . S
C2859 C2858 1.309 . S
C2859 C2860 1.490 1_545 S
C2859 H2923 0.930 1_545 S
C2860 C2859 1.490 1_565 S
C2860 C2861 1.355 1_565 S
C2860 C2864 1.598 . S
C2861 C2860 1.355 1_545 S
C2861 C2862 1.373 . S
C2861 C2883 1.432 . S
C2862 C2861 1.373 . S
C2862 C2863 1.339 . S
C2862 C2865 1.530 . S
C2863 C2858 1.304 . S
C2863 C2862 1.339 . S
C2863 H2924 0.930 . S
C2864 C2860 1.598 . S
C2864 H2925 0.961 . S
C2864 H2926 0.960 . S
C2864 H2927 0.958 . S
C2865 C2862 1.530 . S
C2865 H2928 0.961 . S
C2865 H2929 0.960 . S
C2865 H2930 0.960 . S
C2866 C2867 1.530 1_565 S
C2866 H2932 0.961 . S
C2866 H2933 0.961 . S
C2866 H2934 0.959 . S
C2867 C2866 1.530 1_545 S
C2867 O2895 1.412 1_545 S
C2867 H2931 0.980 . S
C2868 C2869 1.288 . S
C2868 C2873 1.377 1_565 S
C2868 O2895 1.393 . S
C2869 C2868 1.288 . S
C2869 C2870 1.369 . S
C2869 H2935 0.932 . S
C2870 C2869 1.369 . S
C2870 C2871 1.398 1_565 S
C2870 C2874 1.527 . S
C2871 C2870 1.398 1_545 S
C2871 C2872 1.380 . S
C2871 C2885 1.497 . S
C2872 C2871 1.380 . S
C2872 C2873 1.383 . S
C2872 C2875 1.603 . S
C2873 C2868 1.377 1_545 S
C2873 C2872 1.383 . S
C2873 H2936 0.929 . S
C2874 C2870 1.527 . S
C2874 H2937 0.961 . S
C2874 H2938 0.959 . S
C2874 H2939 0.959 . S
C2875 C2872 1.603 . S
C2875 H2940 0.960 . S
C2875 H2941 0.962 . S
C2875 H2942 0.961 . S
C2876 C2843 1.587 1_545 S
C2876 C2877 1.360 . S
C2876 C2889 1.412 . S
C2877 C2876 1.360 . S
C2877 C2878 1.365 . S
C2877 H2943 0.929 . S
C2878 C2853 1.553 . S
C2878 C2877 1.365 . S
C2878 C2879 1.404 . S
C2879 C2878 1.404 . S
C2879 C2880 1.395 . S
C2879 C2890 1.451 . S
C2880 C2879 1.395 . S
C2880 C2881 1.322 . S
C2880 H2944 0.930 . S
C2881 C2880 1.322 . S
C2881 C2882 1.459 . S
C2881 H2945 0.929 . S
C2882 C2881 1.459 . S
C2882 C2883 1.445 . S
C2882 C2891 1.395 . S
C2883 C2861 1.432 . S
C2883 C2882 1.445 . S
C2883 C2884 1.370 . S
C2884 C2883 1.370 . S
C2884 C2885 1.438 . S
C2884 H2946 0.930 . S
C2885 C2871 1.497 . S
C2885 C2884 1.438 . S
C2885 C2886 1.360 . S
C2886 C2885 1.360 . S
C2886 C2887 1.401 . S
C2886 C2891 1.446 . S
C2887 C2886 1.401 . S
C2887 C2888 1.347 . S
C2887 H2947 0.929 . S
C2888 C2887 1.347 . S
C2888 C2889 1.455 . S
C2888 H2948 0.930 . S
C2889 C2876 1.412 . S
C2889 C2888 1.455 . S
C2889 C2890 1.331 . S
C2890 C2879 1.451 . S
C2890 C2889 1.331 . S
C2890 C2891 1.497 . S
C2891 C2882 1.395 . S
C2891 C2886 1.446 . S
C2891 C2890 1.497 . S
C2892 C2893 1.582 . S
C2892 H2949 0.962 . S
C2892 H2950 0.959 . S
C2892 H2951 0.958 . S
C2893 C2892 1.582 . S
C2893 O2896 1.458 . S
C2893 H2922 0.980 . S
O2894 C2839 1.426 . S
O2894 C2840 1.334 . S
O2895 C2867 1.412 1_565 S
O2895 C2868 1.393 . S
O2896 C2858 1.435 . S
O2896 C2893 1.458 . S
O2897 C2849 1.468 . S
O2897 C2850 1.408 . S
H2898 C2839 0.980 . S
H2899 C2838 0.959 . S
H2900 C2838 0.959 . S
H2901 C2838 0.960 . S
H2902 C2841 0.929 . S
H2903 C2845 0.929 . S
H2904 C2846 0.959 . S
H2905 C2846 0.961 . S
H2906 C2846 0.961 . S
H2907 C2847 0.960 . S
H2908 C2847 0.960 . S
H2909 C2847 0.961 . S
H2910 C2849 0.980 1_565 S
H2911 C2848 0.961 1_565 S
H2912 C2848 0.960 . S
H2913 C2848 0.959 . S
H2914 C2851 0.887 1_565 S
H2915 C2855 0.931 . S
H2916 C2856 0.959 . S
H2917 C2856 0.961 . S
H2918 C2856 0.959 . S
H2919 C2857 0.960 . S
H2920 C2857 0.960 . S
H2921 C2857 0.960 . S
H2922 C2893 0.980 . S
H2923 C2859 0.930 1_565 S
H2924 C2863 0.930 . S
H2925 C2864 0.961 . S
H2926 C2864 0.960 . S
H2927 C2864 0.958 . S
H2928 C2865 0.961 . S
H2929 C2865 0.960 . S
H2930 C2865 0.960 . S
H2931 C2867 0.980 . S
H2932 C2866 0.961 . S
H2933 C2866 0.961 . S
H2934 C2866 0.959 . S
H2935 C2869 0.932 . S
H2936 C2873 0.929 . S
H2937 C2874 0.961 . S
H2938 C2874 0.959 . S
H2939 C2874 0.959 . S
H2940 C2875 0.960 . S
H2941 C2875 0.962 . S
H2942 C2875 0.961 . S
H2943 C2877 0.929 . S
H2944 C2880 0.930 . S
H2945 C2881 0.929 . S
H2946 C2884 0.930 . S
H2947 C2887 0.929 . S
H2948 C2888 0.930 . S
H2949 C2892 0.962 . S
H2950 C2892 0.959 . S
H2951 C2892 0.958 . S
C2952 C2953 1.560 . S
C2952 H3013 0.959 . S
C2952 H3014 0.959 . S
C2952 H3015 0.960 . S
C2953 C2952 1.560 . S
C2953 O3008 1.426 . S
C2953 H3012 0.980 1_565 S
C2954 C2955 1.407 1_565 S
C2954 C2959 1.418 . S
C2954 O3008 1.334 . S
C2955 C2954 1.407 1_545 S
C2955 C2956 1.360 . S
C2955 H3016 0.929 . S
C2956 C2955 1.360 . S
C2956 C2957 1.401 . S
C2956 C2960 1.527 . S
C2957 C2956 1.401 . S
C2957 C2958 1.405 1_545 S
C2957 C2990 1.587 . S
C2958 C2957 1.405 1_565 S
C2958 C2959 1.332 . S
C2958 C2961 1.496 . S
C2959 C2954 1.418 . S
C2959 C2958 1.332 . S
C2959 H3017 0.929 . S
C2960 C2956 1.527 . S
C2960 H3018 0.959 . S
C2960 H3019 0.961 . S
C2960 H3020 0.961 . S
C2961 C2958 1.496 . S
C2961 H3021 0.960 . S
C2961 H3022 0.960 . S
C2961 H3023 0.961 . S
C2962 C2963 1.517 . S
C2962 H3025 0.961 . S
C2962 H3026 0.960 . S
C2962 H3027 0.959 . S
C2963 C2962 1.517 . S
C2963 O3011 1.468 . S
C2963 H3024 0.980 . S
C2964 C2965 1.349 . S
C2964 C2969 1.367 . S
C2964 O3011 1.408 . S
C2965 C2964 1.349 . S
C2965 C2966 1.407 . S
C2965 H3028 0.935 . S
C2966 C2965 1.407 . S
C2966 C2967 1.449 . S
C2966 C2970 1.535 1_545 S
C2967 C2966 1.449 . S
C2967 C2968 1.384 . S
C2967 C2992 1.553 . S
C2968 C2967 1.384 . S
C2968 C2969 1.364 . S
C2968 C2971 1.450 . S
C2969 C2964 1.367 . S
C2969 C2968 1.364 . S
C2969 H3029 0.931 . S
C2970 C2966 1.535 1_565 S
C2970 H3030 0.959 . S
C2970 H3031 0.961 . S
C2970 H3032 0.959 . S
C2971 C2968 1.450 . S
C2971 H3033 0.960 . S
C2971 H3034 0.960 . S
C2971 H3035 0.960 . S
C2972 C2973 1.309 1_545 S
C2972 C2977 1.304 . S
C2972 O3010 1.435 . S
C2973 C2972 1.309 1_565 S
C2973 C2974 1.476 . S
C2973 H3037 0.930 . S
C2974 C2973 1.476 . S
C2974 C2975 1.400 1_565 S
C2974 C2978 1.567 . S
C2975 C2974 1.400 1_545 S
C2975 C2976 1.373 . S
C2975 C2997 1.432 . S
C2976 C2975 1.373 . S
C2976 C2977 1.339 . S
C2976 C2979 1.530 . S
C2977 C2972 1.304 . S
C2977 C2976 1.339 . S
C2977 H3038 0.930 . S
C2978 C2974 1.567 . S
C2978 H3039 0.961 . S
C2978 H3040 0.960 . S
C2978 H3041 0.958 . S
C2979 C2976 1.530 . S
C2979 H3042 0.961 . S
C2979 H3043 0.960 . S
C2979 H3044 0.960 . S
C2980 C2981 1.530 . S
C2980 H3046 0.961 . S
C2980 H3047 0.961 . S
C2980 H3048 0.959 . S
C2981 C2980 1.530 . S
C2981 O3009 1.412 . S
C2981 H3045 1.009 . S
C2982 C2983 1.288 . S
C2982 C2987 1.377 1_565 S
C2982 O3009 1.393 . S
C2983 C2982 1.288 . S
C2983 C2984 1.369 . S
C2983 H3049 0.932 . S
C2984 C2983 1.369 . S
C2984 C2985 1.398 . S
C2984 C2988 1.527 . S
C2985 C2984 1.398 . S
C2985 C2986 1.380 1_565 S
C2985 C2999 1.497 1_565 S
C2986 C2985 1.380 1_545 S
C2986 C2987 1.383 . S
C2986 C2989 1.603 . S
C2987 C2982 1.377 1_545 S
C2987 C2986 1.383 . S
C2987 H3050 0.929 . S
C2988 C2984 1.527 . S
C2988 H3051 0.961 . S
C2988 H3052 0.959 . S
C2988 H3053 0.959 . S
C2989 C2986 1.603 . S
C2989 H3054 0.960 . S
C2989 H3055 0.962 . S
C2989 H3056 0.961 . S
C2990 C2957 1.587 . S
C2990 C2991 1.360 . S
C2990 C3003 1.412 . S
C2991 C2990 1.360 . S
C2991 C2992 1.365 . S
C2991 H3057 0.929 . S
C2992 C2967 1.553 . S
C2992 C2991 1.365 . S
C2992 C2993 1.404 . S
C2993 C2992 1.404 . S
C2993 C2994 1.395 . S
C2993 C3004 1.451 . S
C2994 C2993 1.395 . S
C2994 C2995 1.322 . S
C2994 H3058 0.930 . S
C2995 C2994 1.322 . S
C2995 C2996 1.459 . S
C2995 H3059 0.929 . S
C2996 C2995 1.459 . S
C2996 C2997 1.445 . S
C2996 C3005 1.395 . S
C2997 C2975 1.432 . S
C2997 C2996 1.445 . S
C2997 C2998 1.370 . S
C2998 C2997 1.370 . S
C2998 C2999 1.438 . S
C2998 H3060 0.930 . S
C2999 C2985 1.497 1_545 S
C2999 C2998 1.438 . S
C2999 C3000 1.360 . S
C3000 C2999 1.360 . S
C3000 C3001 1.401 . S
C3000 C3005 1.446 . S
C3001 C3000 1.401 . S
C3001 C3002 1.347 . S
C3001 H3061 0.959 . S
C3002 C3001 1.347 . S
C3002 C3003 1.455 . S
C3002 H3062 0.930 . S
C3003 C2990 1.412 . S
C3003 C3002 1.455 . S
C3003 C3004 1.331 . S
C3004 C2993 1.451 . S
C3004 C3003 1.331 . S
C3004 C3005 1.497 . S
C3005 C2996 1.395 . S
C3005 C3000 1.446 . S
C3005 C3004 1.497 . S
C3006 C3007 1.632 . S
C3006 H3063 0.962 . S
C3006 H3064 0.959 . S
C3006 H3065 0.958 . S
C3007 C3006 1.632 . S
C3007 O3010 1.478 . S
C3007 H3036 0.981 1_545 S
O3008 C2953 1.426 . S
O3008 C2954 1.334 . S
O3009 C2981 1.412 . S
O3009 C2982 1.393 . S
O3010 C2972 1.435 . S
O3010 C3007 1.478 . S
O3011 C2963 1.468 . S
O3011 C2964 1.408 . S
H3012 C2953 0.980 1_545 S
H3013 C2952 0.959 . S
H3014 C2952 0.959 . S
H3015 C2952 0.960 . S
H3016 C2955 0.929 . S
H3017 C2959 0.929 . S
H3018 C2960 0.959 . S
H3019 C2960 0.961 . S
H3020 C2960 0.961 . S
H3021 C2961 0.960 . S
H3022 C2961 0.960 . S
H3023 C2961 0.961 . S
H3024 C2963 0.980 . S
H3025 C2962 0.961 . S
H3026 C2962 0.960 . S
H3027 C2962 0.959 . S
H3028 C2965 0.935 . S
H3029 C2969 0.931 . S
H3030 C2970 0.959 . S
H3031 C2970 0.961 . S
H3032 C2970 0.959 . S
H3033 C2971 0.960 . S
H3034 C2971 0.960 . S
H3035 C2971 0.960 . S
H3036 C3007 0.981 1_565 S
H3037 C2973 0.930 . S
H3038 C2977 0.930 . S
H3039 C2978 0.961 . S
H3040 C2978 0.960 . S
H3041 C2978 0.958 . S
H3042 C2979 0.961 . S
H3043 C2979 0.960 . S
H3044 C2979 0.960 . S
H3045 C2981 1.009 . S
H3046 C2980 0.961 . S
H3047 C2980 0.961 . S
H3048 C2980 0.959 . S
H3049 C2983 0.932 . S
H3050 C2987 0.929 . S
H3051 C2988 0.961 . S
H3052 C2988 0.959 . S
H3053 C2988 0.959 . S
H3054 C2989 0.960 . S
H3055 C2989 0.962 . S
H3056 C2989 0.961 . S
H3057 C2991 0.929 . S
H3058 C2994 0.930 . S
H3059 C2995 0.929 . S
H3060 C2998 0.930 . S
H3061 C3001 0.959 . S
H3062 C3002 0.930 . S
H3063 C3006 0.962 . S
H3064 C3006 0.959 . S
H3065 C3006 0.958 . S
C3066 C3067 1.560 . S
C3066 H3127 0.959 . S
C3066 H3128 0.959 . S
C3066 H3129 0.960 . S
C3067 C3066 1.560 . S
C3067 O3122 1.426 . S
C3067 H3126 0.980 1_455 S
C3068 C3069 1.407 1_455 S
C3068 C3073 1.418 . S
C3068 O3122 1.334 . S
C3069 C3068 1.407 1_655 S
C3069 C3070 1.360 . S
C3069 H3130 0.929 . S
C3070 C3069 1.360 . S
C3070 C3071 1.401 . S
C3070 C3074 1.527 . S
C3071 C3070 1.401 . S
C3071 C3072 1.405 1_655 S
C3071 C3104 1.587 . S
C3072 C3071 1.405 1_455 S
C3072 C3073 1.332 . S
C3072 C3075 1.496 . S
C3073 C3068 1.418 . S
C3073 C3072 1.332 . S
C3073 H3131 0.929 . S
C3074 C3070 1.527 . S
C3074 H3132 0.959 . S
C3074 H3133 0.961 . S
C3074 H3134 0.961 . S
C3075 C3072 1.496 . S
C3075 H3135 0.960 . S
C3075 H3136 0.960 . S
C3075 H3137 0.961 . S
C3076 C3077 1.517 . S
C3076 H3139 0.961 . S
C3076 H3140 0.960 . S
C3076 H3141 0.959 . S
C3077 C3076 1.517 . S
C3077 O3125 1.468 . S
C3077 H3138 0.980 . S
C3078 C3079 1.349 . S
C3078 C3083 1.367 . S
C3078 O3125 1.408 . S
C3079 C3078 1.349 . S
C3079 C3080 1.407 . S
C3079 H3142 0.940 1_655 S
C3080 C3079 1.407 . S
C3080 C3081 1.449 . S
C3080 C3084 1.535 1_655 S
C3081 C3080 1.449 . S
C3081 C3082 1.384 . S
C3081 C3106 1.553 . S
C3082 C3081 1.384 . S
C3082 C3083 1.364 . S
C3082 C3085 1.450 . S
C3083 C3078 1.367 . S
C3083 C3082 1.364 . S
C3083 H3143 0.931 . S
C3084 C3080 1.535 1_455 S
C3084 H3144 0.959 . S
C3084 H3145 0.961 . S
C3084 H3146 0.959 . S
C3085 C3082 1.450 . S
C3085 H3147 0.960 . S
C3085 H3148 0.960 . S
C3085 H3149 0.960 . S
C3086 C3087 1.309 1_655 S
C3086 C3091 1.304 . S
C3086 O3124 1.435 . S
C3087 C3086 1.309 1_455 S
C3087 C3088 1.476 . S
C3087 H3151 0.930 . S
C3088 C3087 1.476 . S
C3088 C3089 1.400 1_455 S
C3088 C3092 1.567 . S
C3089 C3088 1.400 1_655 S
C3089 C3090 1.373 . S
C3089 C3111 1.432 . S
C3090 C3089 1.373 . S
C3090 C3091 1.339 . S
C3090 C3093 1.530 . S
C3091 C3086 1.304 . S
C3091 C3090 1.339 . S
C3091 H3152 0.930 . S
C3092 C3088 1.567 . S
C3092 H3153 0.961 . S
C3092 H3154 0.960 . S
C3092 H3155 0.958 . S
C3093 C3090 1.530 . S
C3093 H3156 0.961 . S
C3093 H3157 0.960 . S
C3093 H3158 0.960 . S
C3094 C3095 1.530 . S
C3094 H3160 0.961 . S
C3094 H3161 0.961 . S
C3094 H3162 0.959 . S
C3095 C3094 1.530 . S
C3095 O3123 1.412 . S
C3095 H3159 0.983 . S
C3096 C3097 1.288 . S
C3096 C3101 1.377 1_455 S
C3096 O3123 1.393 . S
C3097 C3096 1.288 . S
C3097 C3098 1.369 . S
C3097 H3163 0.932 . S
C3098 C3097 1.369 . S
C3098 C3099 1.398 . S
C3098 C3102 1.527 . S
C3099 C3098 1.398 . S
C3099 C3100 1.380 1_455 S
C3099 C3113 1.497 1_455 S
C3100 C3099 1.380 1_655 S
C3100 C3101 1.383 . S
C3100 C3103 1.603 . S
C3101 C3096 1.377 1_655 S
C3101 C3100 1.383 . S
C3101 H3164 0.929 . S
C3102 C3098 1.527 . S
C3102 H3165 0.961 . S
C3102 H3166 0.959 . S
C3102 H3167 0.959 . S
C3103 C3100 1.603 . S
C3103 H3168 0.960 . S
C3103 H3169 0.962 . S
C3103 H3170 0.961 . S
C3104 C3071 1.587 . S
C3104 C3105 1.360 . S
C3104 C3117 1.412 . S
C3105 C3104 1.360 . S
C3105 C3106 1.365 . S
C3105 H3171 0.929 . S
C3106 C3081 1.553 . S
C3106 C3105 1.365 . S
C3106 C3107 1.404 . S
C3107 C3106 1.404 . S
C3107 C3108 1.395 . S
C3107 C3118 1.451 . S
C3108 C3107 1.395 . S
C3108 C3109 1.322 . S
C3108 H3172 0.930 . S
C3109 C3108 1.322 . S
C3109 C3110 1.459 . S
C3109 H3173 0.929 . S
C3110 C3109 1.459 . S
C3110 C3111 1.445 . S
C3110 C3119 1.395 . S
C3111 C3089 1.432 . S
C3111 C3110 1.445 . S
C3111 C3112 1.370 . S
C3112 C3111 1.370 . S
C3112 C3113 1.438 . S
C3112 H3174 0.930 . S
C3113 C3099 1.497 1_655 S
C3113 C3112 1.438 . S
C3113 C3114 1.360 . S
C3114 C3113 1.360 . S
C3114 C3115 1.401 . S
C3114 C3119 1.446 . S
C3115 C3114 1.401 . S
C3115 C3116 1.347 . S
C3115 H3175 0.909 . S
C3116 C3115 1.347 . S
C3116 C3117 1.455 . S
C3116 H3176 0.930 . S
C3117 C3104 1.412 . S
C3117 C3116 1.455 . S
C3117 C3118 1.331 . S
C3118 C3107 1.451 . S
C3118 C3117 1.331 . S
C3118 C3119 1.497 . S
C3119 C3110 1.395 . S
C3119 C3114 1.446 . S
C3119 C3118 1.497 . S
C3120 C3121 1.582 1_655 S
C3120 H3177 0.958 1_655 S
C3120 H3178 0.959 . S
C3120 H3179 0.958 . S
C3121 C3120 1.582 1_455 S
C3121 O3124 1.384 1_455 S
C3121 H3150 1.011 . S
O3122 C3067 1.426 . S
O3122 C3068 1.334 . S
O3123 C3095 1.412 . S
O3123 C3096 1.393 . S
O3124 C3086 1.435 . S
O3124 C3121 1.384 1_655 S
O3125 C3077 1.468 . S
O3125 C3078 1.408 . S
H3126 C3067 0.980 1_655 S
H3127 C3066 0.959 . S
H3128 C3066 0.959 . S
H3129 C3066 0.960 . S
H3130 C3069 0.929 . S
H3131 C3073 0.929 . S
H3132 C3074 0.959 . S
H3133 C3074 0.961 . S
H3134 C3074 0.961 . S
H3135 C3075 0.960 . S
H3136 C3075 0.960 . S
H3137 C3075 0.961 . S
H3138 C3077 0.980 . S
H3139 C3076 0.961 . S
H3140 C3076 0.960 . S
H3141 C3076 0.959 . S
H3142 C3079 0.940 1_455 S
H3143 C3083 0.931 . S
H3144 C3084 0.959 . S
H3145 C3084 0.961 . S
H3146 C3084 0.959 . S
H3147 C3085 0.960 . S
H3148 C3085 0.960 . S
H3149 C3085 0.960 . S
H3150 C3121 1.011 . S
H3151 C3087 0.930 . S
H3152 C3091 0.930 . S
H3153 C3092 0.961 . S
H3154 C3092 0.960 . S
H3155 C3092 0.958 . S
H3156 C3093 0.961 . S
H3157 C3093 0.960 . S
H3158 C3093 0.960 . S
H3159 C3095 0.983 . S
H3160 C3094 0.961 . S
H3161 C3094 0.961 . S
H3162 C3094 0.959 . S
H3163 C3097 0.932 . S
H3164 C3101 0.929 . S
H3165 C3102 0.961 . S
H3166 C3102 0.959 . S
H3167 C3102 0.959 . S
H3168 C3103 0.960 . S
H3169 C3103 0.962 . S
H3170 C3103 0.961 . S
H3171 C3105 0.929 . S
H3172 C3108 0.930 . S
H3173 C3109 0.929 . S
H3174 C3112 0.930 . S
H3175 C3115 0.909 . S
H3176 C3116 0.930 . S
H3177 C3120 0.958 1_455 S
H3178 C3120 0.959 . S
H3179 C3120 0.958 . S
C3180 C3181 1.560 . S
C3180 H3241 0.959 . S
C3180 H3242 0.959 . S
C3180 H3243 0.960 . S
C3181 C3180 1.560 . S
C3181 O3236 1.426 . S
C3181 H3240 0.980 . S
C3182 C3183 1.407 . S
C3182 C3187 1.418 . S
C3182 O3236 1.334 . S
C3183 C3182 1.407 . S
C3183 C3184 1.360 . S
C3183 H3244 0.929 . S
C3184 C3183 1.360 . S
C3184 C3185 1.401 . S
C3184 C3188 1.527 . S
C3185 C3184 1.401 . S
C3185 C3186 1.405 . S
C3185 C3218 1.587 . S
C3186 C3185 1.405 . S
C3186 C3187 1.332 . S
C3186 C3189 1.496 . S
C3187 C3182 1.418 . S
C3187 C3186 1.332 . S
C3187 H3245 0.929 . S
C3188 C3184 1.527 . S
C3188 H3246 0.959 . S
C3188 H3247 0.961 . S
C3188 H3248 0.961 . S
C3189 C3186 1.496 . S
C3189 H3249 0.960 . S
C3189 H3250 0.960 . S
C3189 H3251 0.961 . S
C3190 C3191 1.517 . S
C3190 H3253 0.961 . S
C3190 H3254 0.960 . S
C3190 H3255 0.959 . S
C3191 C3190 1.517 . S
C3191 O3239 1.468 . S
C3191 H3252 0.980 . S
C3192 C3193 1.349 . S
C3192 C3197 1.367 . S
C3192 O3239 1.408 . S
C3193 C3192 1.349 . S
C3193 C3194 1.407 . S
C3193 H3256 0.930 . S
C3194 C3193 1.407 . S
C3194 C3195 1.449 . S
C3194 C3198 1.535 . S
C3195 C3194 1.449 . S
C3195 C3196 1.384 . S
C3195 C3220 1.553 . S
C3196 C3195 1.384 . S
C3196 C3197 1.364 . S
C3196 C3199 1.450 . S
C3197 C3192 1.367 . S
C3197 C3196 1.364 . S
C3197 H3257 0.931 . S
C3198 C3194 1.535 . S
C3198 H3258 0.959 . S
C3198 H3259 0.961 . S
C3198 H3260 0.959 . S
C3199 C3196 1.450 . S
C3199 H3261 0.960 . S
C3199 H3262 0.960 . S
C3199 H3263 0.960 . S
C3200 C3201 1.309 . S
C3200 C3205 1.304 . S
C3200 O3238 1.435 . S
C3201 C3200 1.309 . S
C3201 C3202 1.476 . S
C3201 H3265 0.930 . S
C3202 C3201 1.476 . S
C3202 C3203 1.400 . S
C3202 C3206 1.567 . S
C3203 C3202 1.400 . S
C3203 C3204 1.373 . S
C3203 C3225 1.432 . S
C3204 C3203 1.373 . S
C3204 C3205 1.339 . S
C3204 C3207 1.530 . S
C3205 C3200 1.304 . S
C3205 C3204 1.339 . S
C3205 H3266 0.930 . S
C3206 C3202 1.567 . S
C3206 H3267 0.961 . S
C3206 H3268 0.960 . S
C3206 H3269 0.958 . S
C3207 C3204 1.530 . S
C3207 H3270 0.961 . S
C3207 H3271 0.960 . S
C3207 H3272 0.960 . S
C3208 C3209 1.530 . S
C3208 H3274 0.961 . S
C3208 H3275 0.961 . S
C3208 H3276 0.959 . S
C3209 C3208 1.530 . S
C3209 O3237 1.412 . S
C3209 H3273 0.980 . S
C3210 C3211 1.288 . S
C3210 C3215 1.377 . S
C3210 O3237 1.393 . S
C3211 C3210 1.288 . S
C3211 C3212 1.369 . S
C3211 H3277 0.932 . S
C3212 C3211 1.369 . S
C3212 C3213 1.398 . S
C3212 C3216 1.527 . S
C3213 C3212 1.398 . S
C3213 C3214 1.380 . S
C3213 C3227 1.497 . S
C3214 C3213 1.380 . S
C3214 C3215 1.383 . S
C3214 C3217 1.603 . S
C3215 C3210 1.377 . S
C3215 C3214 1.383 . S
C3215 H3278 0.929 . S
C3216 C3212 1.527 . S
C3216 H3279 0.961 . S
C3216 H3280 0.959 . S
C3216 H3281 0.959 . S
C3217 C3214 1.603 . S
C3217 H3282 0.960 . S
C3217 H3283 0.962 . S
C3217 H3284 0.961 . S
C3218 C3185 1.587 . S
C3218 C3219 1.360 . S
C3218 C3231 1.412 . S
C3219 C3218 1.360 . S
C3219 C3220 1.365 . S
C3219 H3285 0.929 . S
C3220 C3195 1.553 . S
C3220 C3219 1.365 . S
C3220 C3221 1.404 . S
C3221 C3220 1.404 . S
C3221 C3222 1.395 . S
C3221 C3232 1.451 . S
C3222 C3221 1.395 . S
C3222 C3223 1.322 . S
C3222 H3286 0.930 . S
C3223 C3222 1.322 . S
C3223 C3224 1.459 . S
C3223 H3287 0.929 . S
C3224 C3223 1.459 . S
C3224 C3225 1.445 . S
C3224 C3233 1.395 . S
C3225 C3203 1.432 . S
C3225 C3224 1.445 . S
C3225 C3226 1.370 . S
C3226 C3225 1.370 . S
C3226 C3227 1.438 . S
C3226 H3288 0.930 . S
C3227 C3213 1.497 . S
C3227 C3226 1.438 . S
C3227 C3228 1.360 . S
C3228 C3227 1.360 . S
C3228 C3229 1.401 . S
C3228 C3233 1.446 . S
C3229 C3228 1.401 . S
C3229 C3230 1.347 . S
C3229 H3289 0.929 . S
C3230 C3229 1.347 . S
C3230 C3231 1.455 . S
C3230 H3290 0.930 . S
C3231 C3218 1.412 . S
C3231 C3230 1.455 . S
C3231 C3232 1.331 . S
C3232 C3221 1.451 . S
C3232 C3231 1.331 . S
C3232 C3233 1.497 . S
C3233 C3224 1.395 . S
C3233 C3228 1.446 . S
C3233 C3232 1.497 . S
C3234 C3235 1.582 . S
C3234 H3291 0.962 . S
C3234 H3292 0.959 . S
C3234 H3293 0.958 . S
C3235 C3234 1.582 . S
C3235 O3238 1.458 . S
C3235 H3264 0.980 . S
O3236 C3181 1.426 . S
O3236 C3182 1.334 . S
O3237 C3209 1.412 . S
O3237 C3210 1.393 . S
O3238 C3200 1.435 . S
O3238 C3235 1.458 . S
O3239 C3191 1.468 . S
O3239 C3192 1.408 . S
H3240 C3181 0.980 . S
H3241 C3180 0.959 . S
H3242 C3180 0.959 . S
H3243 C3180 0.960 . S
H3244 C3183 0.929 . S
H3245 C3187 0.929 . S
H3246 C3188 0.959 . S
H3247 C3188 0.961 . S
H3248 C3188 0.961 . S
H3249 C3189 0.960 . S
H3250 C3189 0.960 . S
H3251 C3189 0.961 . S
H3252 C3191 0.980 . S
H3253 C3190 0.961 . S
H3254 C3190 0.960 . S
H3255 C3190 0.959 . S
H3256 C3193 0.930 . S
H3257 C3197 0.931 . S
H3258 C3198 0.959 . S
H3259 C3198 0.961 . S
H3260 C3198 0.959 . S
H3261 C3199 0.960 . S
H3262 C3199 0.960 . S
H3263 C3199 0.960 . S
H3264 C3235 0.980 . S
H3265 C3201 0.930 . S
H3266 C3205 0.930 . S
H3267 C3206 0.961 . S
H3268 C3206 0.960 . S
H3269 C3206 0.958 . S
H3270 C3207 0.961 . S
H3271 C3207 0.960 . S
H3272 C3207 0.960 . S
H3273 C3209 0.980 . S
H3274 C3208 0.961 . S
H3275 C3208 0.961 . S
H3276 C3208 0.959 . S
H3277 C3211 0.932 . S
H3278 C3215 0.929 . S
H3279 C3216 0.961 . S
H3280 C3216 0.959 . S
H3281 C3216 0.959 . S
H3282 C3217 0.960 . S
H3283 C3217 0.962 . S
H3284 C3217 0.961 . S
H3285 C3219 0.929 . S
H3286 C3222 0.930 . S
H3287 C3223 0.929 . S
H3288 C3226 0.930 . S
H3289 C3229 0.929 . S
H3290 C3230 0.930 . S
H3291 C3234 0.962 . S
H3292 C3234 0.959 . S
H3293 C3234 0.958 . S
C3294 C3295 1.560 . S
C3294 H3355 0.959 . S
C3294 H3356 0.959 . S
C3294 H3357 0.960 . S
C3295 C3294 1.560 . S
C3295 O3350 1.426 . S
C3295 H3354 0.980 . S
C3296 C3297 1.407 . S
C3296 C3301 1.418 . S
C3296 O3350 1.334 . S
C3297 C3296 1.407 . S
C3297 C3298 1.360 . S
C3297 H3358 0.929 . S
C3298 C3297 1.360 . S
C3298 C3299 1.401 . S
C3298 C3302 1.527 . S
C3299 C3298 1.401 . S
C3299 C3300 1.405 . S
C3299 C3332 1.587 . S
C3300 C3299 1.405 . S
C3300 C3301 1.332 . S
C3300 C3303 1.496 . S
C3301 C3296 1.418 . S
C3301 C3300 1.332 . S
C3301 H3359 0.929 . S
C3302 C3298 1.527 . S
C3302 H3360 0.959 . S
C3302 H3361 0.961 . S
C3302 H3362 0.961 . S
C3303 C3300 1.496 . S
C3303 H3363 0.960 . S
C3303 H3364 0.960 . S
C3303 H3365 0.961 . S
C3304 C3305 1.517 . S
C3304 H3367 0.961 . S
C3304 H3368 0.960 . S
C3304 H3369 0.959 . S
C3305 C3304 1.517 . S
C3305 O3353 1.468 . S
C3305 H3366 0.980 . S
C3306 C3307 1.349 . S
C3306 C3311 1.367 . S
C3306 O3353 1.408 . S
C3307 C3306 1.349 . S
C3307 C3308 1.407 . S
C3307 H3370 0.930 . S
C3308 C3307 1.407 . S
C3308 C3309 1.449 . S
C3308 C3312 1.535 . S
C3309 C3308 1.449 . S
C3309 C3310 1.384 . S
C3309 C3334 1.553 . S
C3310 C3309 1.384 . S
C3310 C3311 1.364 . S
C3310 C3313 1.450 . S
C3311 C3306 1.367 . S
C3311 C3310 1.364 . S
C3311 H3371 0.931 . S
C3312 C3308 1.535 . S
C3312 H3372 0.959 . S
C3312 H3373 0.961 . S
C3312 H3374 0.959 . S
C3313 C3310 1.450 . S
C3313 H3375 0.960 . S
C3313 H3376 0.960 . S
C3313 H3377 0.960 . S
C3314 C3315 1.309 . S
C3314 C3319 1.304 . S
C3314 O3352 1.435 . S
C3315 C3314 1.309 . S
C3315 C3316 1.476 . S
C3315 H3379 0.930 . S
C3316 C3315 1.476 . S
C3316 C3317 1.400 . S
C3316 C3320 1.567 . S
C3317 C3316 1.400 . S
C3317 C3318 1.373 . S
C3317 C3339 1.432 . S
C3318 C3317 1.373 . S
C3318 C3319 1.339 . S
C3318 C3321 1.530 . S
C3319 C3314 1.304 . S
C3319 C3318 1.339 . S
C3319 H3380 0.930 . S
C3320 C3316 1.567 . S
C3320 H3381 0.961 . S
C3320 H3382 0.960 . S
C3320 H3383 0.958 . S
C3321 C3318 1.530 . S
C3321 H3384 0.961 . S
C3321 H3385 0.960 . S
C3321 H3386 0.960 . S
C3322 C3323 1.530 . S
C3322 H3388 0.961 . S
C3322 H3389 0.961 . S
C3322 H3390 0.959 . S
C3323 C3322 1.530 . S
C3323 O3351 1.412 . S
C3323 H3387 0.980 . S
C3324 C3325 1.288 . S
C3324 C3329 1.377 . S
C3324 O3351 1.393 . S
C3325 C3324 1.288 . S
C3325 C3326 1.369 . S
C3325 H3391 0.932 . S
C3326 C3325 1.369 . S
C3326 C3327 1.398 . S
C3326 C3330 1.527 . S
C3327 C3326 1.398 . S
C3327 C3328 1.380 . S
C3327 C3341 1.497 . S
C3328 C3327 1.380 . S
C3328 C3329 1.383 . S
C3328 C3331 1.603 . S
C3329 C3324 1.377 . S
C3329 C3328 1.383 . S
C3329 H3392 0.929 . S
C3330 C3326 1.527 . S
C3330 H3393 0.961 . S
C3330 H3394 0.959 . S
C3330 H3395 0.959 . S
C3331 C3328 1.603 . S
C3331 H3396 0.960 . S
C3331 H3397 0.962 . S
C3331 H3398 0.961 . S
C3332 C3299 1.587 . S
C3332 C3333 1.360 . S
C3332 C3345 1.412 . S
C3333 C3332 1.360 . S
C3333 C3334 1.365 . S
C3333 H3399 0.929 . S
C3334 C3309 1.553 . S
C3334 C3333 1.365 . S
C3334 C3335 1.404 . S
C3335 C3334 1.404 . S
C3335 C3336 1.395 . S
C3335 C3346 1.451 . S
C3336 C3335 1.395 . S
C3336 C3337 1.322 . S
C3336 H3400 0.930 . S
C3337 C3336 1.322 . S
C3337 C3338 1.459 . S
C3337 H3401 0.929 . S
C3338 C3337 1.459 . S
C3338 C3339 1.445 . S
C3338 C3347 1.395 . S
C3339 C3317 1.432 . S
C3339 C3338 1.445 . S
C3339 C3340 1.370 . S
C3340 C3339 1.370 . S
C3340 C3341 1.438 . S
C3340 H3402 0.930 . S
C3341 C3327 1.497 . S
C3341 C3340 1.438 . S
C3341 C3342 1.360 . S
C3342 C3341 1.360 . S
C3342 C3343 1.401 . S
C3342 C3347 1.446 . S
C3343 C3342 1.401 . S
C3343 C3344 1.347 . S
C3343 H3403 0.929 . S
C3344 C3343 1.347 . S
C3344 C3345 1.455 . S
C3344 H3404 0.930 . S
C3345 C3332 1.412 . S
C3345 C3344 1.455 . S
C3345 C3346 1.331 . S
C3346 C3335 1.451 . S
C3346 C3345 1.331 . S
C3346 C3347 1.497 . S
C3347 C3338 1.395 . S
C3347 C3342 1.446 . S
C3347 C3346 1.497 . S
C3348 C3349 1.582 . S
C3348 H3405 0.962 . S
C3348 H3406 0.959 . S
C3348 H3407 0.958 . S
C3349 C3348 1.582 . S
C3349 O3352 1.458 . S
C3349 H3378 0.980 . S
O3350 C3295 1.426 . S
O3350 C3296 1.334 . S
O3351 C3323 1.412 . S
O3351 C3324 1.393 . S
O3352 C3314 1.435 . S
O3352 C3349 1.458 . S
O3353 C3305 1.468 . S
O3353 C3306 1.408 . S
H3354 C3295 0.980 . S
H3355 C3294 0.959 . S
H3356 C3294 0.959 . S
H3357 C3294 0.960 . S
H3358 C3297 0.929 . S
H3359 C3301 0.929 . S
H3360 C3302 0.959 . S
H3361 C3302 0.961 . S
H3362 C3302 0.961 . S
H3363 C3303 0.960 . S
H3364 C3303 0.960 . S
H3365 C3303 0.961 . S
H3366 C3305 0.980 . S
H3367 C3304 0.961 . S
H3368 C3304 0.960 . S
H3369 C3304 0.959 . S
H3370 C3307 0.930 . S
H3371 C3311 0.931 . S
H3372 C3312 0.959 . S
H3373 C3312 0.961 . S
H3374 C3312 0.959 . S
H3375 C3313 0.960 . S
H3376 C3313 0.960 . S
H3377 C3313 0.960 . S
H3378 C3349 0.980 . S
H3379 C3315 0.930 . S
H3380 C3319 0.930 . S
H3381 C3320 0.961 . S
H3382 C3320 0.960 . S
H3383 C3320 0.958 . S
H3384 C3321 0.961 . S
H3385 C3321 0.960 . S
H3386 C3321 0.960 . S
H3387 C3323 0.980 . S
H3388 C3322 0.961 . S
H3389 C3322 0.961 . S
H3390 C3322 0.959 . S
H3391 C3325 0.932 . S
H3392 C3329 0.929 . S
H3393 C3330 0.961 . S
H3394 C3330 0.959 . S
H3395 C3330 0.959 . S
H3396 C3331 0.960 . S
H3397 C3331 0.962 . S
H3398 C3331 0.961 . S
H3399 C3333 0.929 . S
H3400 C3336 0.930 . S
H3401 C3337 0.929 . S
H3402 C3340 0.930 . S
H3403 C3343 0.929 . S
H3404 C3344 0.930 . S
H3405 C3348 0.962 . S
H3406 C3348 0.959 . S
H3407 C3348 0.958 . S
C3408 C3409 1.560 . S
C3408 H3469 0.959 . S
C3408 H3470 0.959 . S
C3408 H3471 0.960 . S
C3409 C3408 1.560 . S
C3409 O3464 1.426 . S
C3409 H3468 0.980 . S
C3410 C3411 1.407 . S
C3410 C3415 1.418 . S
C3410 O3464 1.334 . S
C3411 C3410 1.407 . S
C3411 C3412 1.360 . S
C3411 H3472 0.929 . S
C3412 C3411 1.360 . S
C3412 C3413 1.401 . S
C3412 C3416 1.527 . S
C3413 C3412 1.401 . S
C3413 C3414 1.405 . S
C3413 C3446 1.587 . S
C3414 C3413 1.405 . S
C3414 C3415 1.332 . S
C3414 C3417 1.496 . S
C3415 C3410 1.418 . S
C3415 C3414 1.332 . S
C3415 H3473 0.929 . S
C3416 C3412 1.527 . S
C3416 H3474 0.959 . S
C3416 H3475 0.961 . S
C3416 H3476 0.961 . S
C3417 C3414 1.496 . S
C3417 H3477 0.960 . S
C3417 H3478 0.960 . S
C3417 H3479 0.961 . S
C3418 C3419 1.517 . S
C3418 H3481 0.961 . S
C3418 H3482 0.960 . S
C3418 H3483 0.959 . S
C3419 C3418 1.517 . S
C3419 O3467 1.468 . S
C3419 H3480 0.980 . S
C3420 C3421 1.349 . S
C3420 C3425 1.367 . S
C3420 O3467 1.408 . S
C3421 C3420 1.349 . S
C3421 C3422 1.407 . S
C3421 H3484 0.930 . S
C3422 C3421 1.407 . S
C3422 C3423 1.449 . S
C3422 C3426 1.535 . S
C3423 C3422 1.449 . S
C3423 C3424 1.384 . S
C3423 C3448 1.553 . S
C3424 C3423 1.384 . S
C3424 C3425 1.364 . S
C3424 C3427 1.450 . S
C3425 C3420 1.367 . S
C3425 C3424 1.364 . S
C3425 H3485 0.931 . S
C3426 C3422 1.535 . S
C3426 H3486 0.959 . S
C3426 H3487 0.961 . S
C3426 H3488 0.959 . S
C3427 C3424 1.450 . S
C3427 H3489 0.960 . S
C3427 H3490 0.960 . S
C3427 H3491 0.960 . S
C3428 C3429 1.309 . S
C3428 C3433 1.304 . S
C3428 O3466 1.435 . S
C3429 C3428 1.309 . S
C3429 C3430 1.476 . S
C3429 H3493 0.930 . S
C3430 C3429 1.476 . S
C3430 C3431 1.400 . S
C3430 C3434 1.567 . S
C3431 C3430 1.400 . S
C3431 C3432 1.373 . S
C3431 C3453 1.432 . S
C3432 C3431 1.373 . S
C3432 C3433 1.339 . S
C3432 C3435 1.530 . S
C3433 C3428 1.304 . S
C3433 C3432 1.339 . S
C3433 H3494 0.930 . S
C3434 C3430 1.567 . S
C3434 H3495 0.961 . S
C3434 H3496 0.960 . S
C3434 H3497 0.958 . S
C3435 C3432 1.530 . S
C3435 H3498 0.961 . S
C3435 H3499 0.960 . S
C3435 H3500 0.960 . S
C3436 C3437 1.530 . S
C3436 H3502 0.961 . S
C3436 H3503 0.961 . S
C3436 H3504 0.959 . S
C3437 C3436 1.530 . S
C3437 O3465 1.412 . S
C3437 H3501 0.980 . S
C3438 C3439 1.288 . S
C3438 C3443 1.377 . S
C3438 O3465 1.393 . S
C3439 C3438 1.288 . S
C3439 C3440 1.369 . S
C3439 H3505 0.932 . S
C3440 C3439 1.369 . S
C3440 C3441 1.398 . S
C3440 C3444 1.527 . S
C3441 C3440 1.398 . S
C3441 C3442 1.380 . S
C3441 C3455 1.497 . S
C3442 C3441 1.380 . S
C3442 C3443 1.383 . S
C3442 C3445 1.603 . S
C3443 C3438 1.377 . S
C3443 C3442 1.383 . S
C3443 H3506 0.929 . S
C3444 C3440 1.527 . S
C3444 H3507 0.961 . S
C3444 H3508 0.959 . S
C3444 H3509 0.959 . S
C3445 C3442 1.603 . S
C3445 H3510 0.960 . S
C3445 H3511 0.962 . S
C3445 H3512 0.961 . S
C3446 C3413 1.587 . S
C3446 C3447 1.360 . S
C3446 C3459 1.412 . S
C3447 C3446 1.360 . S
C3447 C3448 1.365 . S
C3447 H3513 0.929 . S
C3448 C3423 1.553 . S
C3448 C3447 1.365 . S
C3448 C3449 1.404 . S
C3449 C3448 1.404 . S
C3449 C3450 1.395 . S
C3449 C3460 1.451 . S
C3450 C3449 1.395 . S
C3450 C3451 1.322 . S
C3450 H3514 0.930 . S
C3451 C3450 1.322 . S
C3451 C3452 1.459 . S
C3451 H3515 0.929 . S
C3452 C3451 1.459 . S
C3452 C3453 1.445 . S
C3452 C3461 1.395 . S
C3453 C3431 1.432 . S
C3453 C3452 1.445 . S
C3453 C3454 1.370 . S
C3454 C3453 1.370 . S
C3454 C3455 1.438 . S
C3454 H3516 0.930 . S
C3455 C3441 1.497 . S
C3455 C3454 1.438 . S
C3455 C3456 1.360 . S
C3456 C3455 1.360 . S
C3456 C3457 1.401 . S
C3456 C3461 1.446 . S
C3457 C3456 1.401 . S
C3457 C3458 1.347 . S
C3457 H3517 0.929 . S
C3458 C3457 1.347 . S
C3458 C3459 1.455 . S
C3458 H3518 0.930 . S
C3459 C3446 1.412 . S
C3459 C3458 1.455 . S
C3459 C3460 1.331 . S
C3460 C3449 1.451 . S
C3460 C3459 1.331 . S
C3460 C3461 1.497 . S
C3461 C3452 1.395 . S
C3461 C3456 1.446 . S
C3461 C3460 1.497 . S
C3462 C3463 1.582 . S
C3462 H3519 0.962 . S
C3462 H3520 0.959 . S
C3462 H3521 0.958 . S
C3463 C3462 1.582 . S
C3463 O3466 1.458 . S
C3463 H3492 0.980 . S
O3464 C3409 1.426 . S
O3464 C3410 1.334 . S
O3465 C3437 1.412 . S
O3465 C3438 1.393 . S
O3466 C3428 1.435 . S
O3466 C3463 1.458 . S
O3467 C3419 1.468 . S
O3467 C3420 1.408 . S
H3468 C3409 0.980 . S
H3469 C3408 0.959 . S
H3470 C3408 0.959 . S
H3471 C3408 0.960 . S
H3472 C3411 0.929 . S
H3473 C3415 0.929 . S
H3474 C3416 0.959 . S
H3475 C3416 0.961 . S
H3476 C3416 0.961 . S
H3477 C3417 0.960 . S
H3478 C3417 0.960 . S
H3479 C3417 0.961 . S
H3480 C3419 0.980 . S
H3481 C3418 0.961 . S
H3482 C3418 0.960 . S
H3483 C3418 0.959 . S
H3484 C3421 0.930 . S
H3485 C3425 0.931 . S
H3486 C3426 0.959 . S
H3487 C3426 0.961 . S
H3488 C3426 0.959 . S
H3489 C3427 0.960 . S
H3490 C3427 0.960 . S
H3491 C3427 0.960 . S
H3492 C3463 0.980 . S
H3493 C3429 0.930 . S
H3494 C3433 0.930 . S
H3495 C3434 0.961 . S
H3496 C3434 0.960 . S
H3497 C3434 0.958 . S
H3498 C3435 0.961 . S
H3499 C3435 0.960 . S
H3500 C3435 0.960 . S
H3501 C3437 0.980 . S
H3502 C3436 0.961 . S
H3503 C3436 0.961 . S
H3504 C3436 0.959 . S
H3505 C3439 0.932 . S
H3506 C3443 0.929 . S
H3507 C3444 0.961 . S
H3508 C3444 0.959 . S
H3509 C3444 0.959 . S
H3510 C3445 0.960 . S
H3511 C3445 0.962 . S
H3512 C3445 0.961 . S
H3513 C3447 0.929 . S
H3514 C3450 0.930 . S
H3515 C3451 0.929 . S
H3516 C3454 0.930 . S
H3517 C3457 0.929 . S
H3518 C3458 0.930 . S
H3519 C3462 0.962 . S
H3520 C3462 0.959 . S
H3521 C3462 0.958 . S
C3522 C3523 1.560 . S
C3522 H3583 0.959 . S
C3522 H3584 0.959 . S
C3522 H3585 0.960 . S
C3523 C3522 1.560 . S
C3523 O3578 1.426 . S
C3523 H3582 0.980 . S
C3524 C3525 1.407 . S
C3524 C3529 1.418 . S
C3524 O3578 1.334 . S
C3525 C3524 1.407 . S
C3525 C3526 1.360 . S
C3525 H3586 0.929 . S
C3526 C3525 1.360 . S
C3526 C3527 1.401 . S
C3526 C3530 1.527 . S
C3527 C3526 1.401 . S
C3527 C3528 1.405 . S
C3527 C3560 1.587 . S
C3528 C3527 1.405 . S
C3528 C3529 1.332 . S
C3528 C3531 1.496 . S
C3529 C3524 1.418 . S
C3529 C3528 1.332 . S
C3529 H3587 0.929 . S
C3530 C3526 1.527 . S
C3530 H3588 0.959 . S
C3530 H3589 0.961 . S
C3530 H3590 0.961 . S
C3531 C3528 1.496 . S
C3531 H3591 0.960 . S
C3531 H3592 0.960 . S
C3531 H3593 0.961 . S
C3532 C3533 1.517 . S
C3532 H3595 0.961 . S
C3532 H3596 0.960 . S
C3532 H3597 0.959 . S
C3533 C3532 1.517 . S
C3533 O3581 1.468 . S
C3533 H3594 0.980 . S
C3534 C3535 1.349 . S
C3534 C3539 1.367 . S
C3534 O3581 1.408 . S
C3535 C3534 1.349 . S
C3535 C3536 1.407 . S
C3535 H3598 0.930 . S
C3536 C3535 1.407 . S
C3536 C3537 1.449 . S
C3536 C3540 1.535 . S
C3537 C3536 1.449 . S
C3537 C3538 1.384 . S
C3537 C3562 1.553 . S
C3538 C3537 1.384 . S
C3538 C3539 1.364 . S
C3538 C3541 1.450 . S
C3539 C3534 1.367 . S
C3539 C3538 1.364 . S
C3539 H3599 0.931 . S
C3540 C3536 1.535 . S
C3540 H3600 0.959 . S
C3540 H3601 0.961 . S
C3540 H3602 0.959 . S
C3541 C3538 1.450 . S
C3541 H3603 0.960 . S
C3541 H3604 0.960 . S
C3541 H3605 0.960 . S
C3542 C3543 1.309 . S
C3542 C3547 1.304 . S
C3542 O3580 1.435 . S
C3543 C3542 1.309 . S
C3543 C3544 1.476 . S
C3543 H3607 0.930 . S
C3544 C3543 1.476 . S
C3544 C3545 1.400 . S
C3544 C3548 1.567 . S
C3545 C3544 1.400 . S
C3545 C3546 1.373 . S
C3545 C3567 1.432 . S
C3546 C3545 1.373 . S
C3546 C3547 1.339 . S
C3546 C3549 1.530 . S
C3547 C3542 1.304 . S
C3547 C3546 1.339 . S
C3547 H3608 0.930 . S
C3548 C3544 1.567 . S
C3548 H3609 0.961 . S
C3548 H3610 0.960 . S
C3548 H3611 0.958 . S
C3549 C3546 1.530 . S
C3549 H3612 0.961 . S
C3549 H3613 0.960 . S
C3549 H3614 0.960 . S
C3550 C3551 1.530 . S
C3550 H3616 0.961 . S
C3550 H3617 0.961 . S
C3550 H3618 0.959 . S
C3551 C3550 1.530 . S
C3551 O3579 1.412 . S
C3551 H3615 0.980 . S
C3552 C3553 1.288 . S
C3552 C3557 1.377 . S
C3552 O3579 1.393 . S
C3553 C3552 1.288 . S
C3553 C3554 1.369 . S
C3553 H3619 0.932 . S
C3554 C3553 1.369 . S
C3554 C3555 1.398 . S
C3554 C3558 1.527 . S
C3555 C3554 1.398 . S
C3555 C3556 1.380 . S
C3555 C3569 1.497 . S
C3556 C3555 1.380 . S
C3556 C3557 1.383 . S
C3556 C3559 1.603 . S
C3557 C3552 1.377 . S
C3557 C3556 1.383 . S
C3557 H3620 0.929 . S
C3558 C3554 1.527 . S
C3558 H3621 0.961 . S
C3558 H3622 0.959 . S
C3558 H3623 0.959 . S
C3559 C3556 1.603 . S
C3559 H3624 0.960 . S
C3559 H3625 0.962 . S
C3559 H3626 0.961 . S
C3560 C3527 1.587 . S
C3560 C3561 1.360 . S
C3560 C3573 1.412 . S
C3561 C3560 1.360 . S
C3561 C3562 1.365 . S
C3561 H3627 0.929 . S
C3562 C3537 1.553 . S
C3562 C3561 1.365 . S
C3562 C3563 1.404 . S
C3563 C3562 1.404 . S
C3563 C3564 1.395 . S
C3563 C3574 1.451 . S
C3564 C3563 1.395 . S
C3564 C3565 1.322 . S
C3564 H3628 0.930 . S
C3565 C3564 1.322 . S
C3565 C3566 1.459 . S
C3565 H3629 0.929 . S
C3566 C3565 1.459 . S
C3566 C3567 1.445 . S
C3566 C3575 1.395 . S
C3567 C3545 1.432 . S
C3567 C3566 1.445 . S
C3567 C3568 1.370 . S
C3568 C3567 1.370 . S
C3568 C3569 1.438 . S
C3568 H3630 0.930 . S
C3569 C3555 1.497 . S
C3569 C3568 1.438 . S
C3569 C3570 1.360 . S
C3570 C3569 1.360 . S
C3570 C3571 1.401 . S
C3570 C3575 1.446 . S
C3571 C3570 1.401 . S
C3571 C3572 1.347 . S
C3571 H3631 0.929 . S
C3572 C3571 1.347 . S
C3572 C3573 1.455 . S
C3572 H3632 0.930 . S
C3573 C3560 1.412 . S
C3573 C3572 1.455 . S
C3573 C3574 1.331 . S
C3574 C3563 1.451 . S
C3574 C3573 1.331 . S
C3574 C3575 1.497 . S
C3575 C3566 1.395 . S
C3575 C3570 1.446 . S
C3575 C3574 1.497 . S
C3576 C3577 1.582 . S
C3576 H3633 0.962 . S
C3576 H3634 0.959 . S
C3576 H3635 0.958 . S
C3577 C3576 1.582 . S
C3577 O3580 1.458 . S
C3577 H3606 0.980 . S
O3578 C3523 1.426 . S
O3578 C3524 1.334 . S
O3579 C3551 1.412 . S
O3579 C3552 1.393 . S
O3580 C3542 1.435 . S
O3580 C3577 1.458 . S
O3581 C3533 1.468 . S
O3581 C3534 1.408 . S
H3582 C3523 0.980 . S
H3583 C3522 0.959 . S
H3584 C3522 0.959 . S
H3585 C3522 0.960 . S
H3586 C3525 0.929 . S
H3587 C3529 0.929 . S
H3588 C3530 0.959 . S
H3589 C3530 0.961 . S
H3590 C3530 0.961 . S
H3591 C3531 0.960 . S
H3592 C3531 0.960 . S
H3593 C3531 0.961 . S
H3594 C3533 0.980 . S
H3595 C3532 0.961 . S
H3596 C3532 0.960 . S
H3597 C3532 0.959 . S
H3598 C3535 0.930 . S
H3599 C3539 0.931 . S
H3600 C3540 0.959 . S
H3601 C3540 0.961 . S
H3602 C3540 0.959 . S
H3603 C3541 0.960 . S
H3604 C3541 0.960 . S
H3605 C3541 0.960 . S
H3606 C3577 0.980 . S
H3607 C3543 0.930 . S
H3608 C3547 0.930 . S
H3609 C3548 0.961 . S
H3610 C3548 0.960 . S
H3611 C3548 0.958 . S
H3612 C3549 0.961 . S
H3613 C3549 0.960 . S
H3614 C3549 0.960 . S
H3615 C3551 0.980 . S
H3616 C3550 0.961 . S
H3617 C3550 0.961 . S
H3618 C3550 0.959 . S
H3619 C3553 0.932 . S
H3620 C3557 0.929 . S
H3621 C3558 0.961 . S
H3622 C3558 0.959 . S
H3623 C3558 0.959 . S
H3624 C3559 0.960 . S
H3625 C3559 0.962 . S
H3626 C3559 0.961 . S
H3627 C3561 0.929 . S
H3628 C3564 0.930 . S
H3629 C3565 0.929 . S
H3630 C3568 0.930 . S
H3631 C3571 0.929 . S
H3632 C3572 0.930 . S
H3633 C3576 0.962 . S
H3634 C3576 0.959 . S
H3635 C3576 0.958 . S
H3636 C3654 0.951 . S
H3637 C3656 0.951 . S
H3638 C3658 0.950 1_455 S
H3639 C3659 0.950 1_455 S
H3640 C3661 0.950 1_455 S
H3641 C3664 0.950 . S
H3642 C3665 0.950 . S
H3643 C3667 0.950 . S
H3644 C3668 0.950 . S
H3645 C3669 0.951 . S
H3646 C3671 0.951 . S
H3647 C3673 0.950 . S
H3648 C3674 0.950 . S
H3649 C3676 0.950 . S
H3650 C3679 0.933 1_655 S
H3651 C3680 0.950 . S
H3652 C3682 0.950 . S
H3653 C3683 0.950 . S
C3654 H3636 0.951 . S
C3654 C3655 1.366 . S
C3654 C3656 1.388 . S
C3655 C3654 1.366 . S
C3655 C3659 1.385 . S
C3656 H3637 0.951 . S
C3656 C3654 1.388 . S
C3656 C3657 1.366 . S
C3657 C3656 1.366 . S
C3657 C3658 1.414 . S
C3657 C3660 1.499 . S
C3658 H3638 0.950 1_655 S
C3658 C3657 1.414 . S
C3658 C3659 1.374 . S
C3659 H3639 0.950 1_655 S
C3659 C3655 1.385 . S
C3659 C3658 1.374 . S
C3660 C3657 1.499 . S
C3660 C3661 1.373 . S
C3660 C3662 1.389 . S
C3661 H3640 0.950 1_655 S
C3661 C3660 1.373 . S
C3661 C3677 1.377 . S
C3662 C3660 1.389 . S
C3662 C3663 1.524 . S
C3662 C3676 1.377 . S
C3663 C3662 1.524 . S
C3663 C3664 1.397 . S
C3663 C3668 1.363 . S
C3664 H3641 0.950 . S
C3664 C3663 1.397 . S
C3664 C3665 1.334 . S
C3665 H3642 0.950 . S
C3665 C3664 1.334 . S
C3665 C3666 1.287 . S
C3666 C3665 1.287 . S
C3666 C3667 1.524 . S
C3666 H3685 0.913 . S
C3667 H3643 0.950 . S
C3667 C3666 1.524 . S
C3667 C3668 1.415 . S
C3668 H3644 0.950 . S
C3668 C3663 1.363 . S
C3668 C3667 1.415 . S
C3669 H3645 0.951 . S
C3669 C3670 1.366 1_455 S
C3669 C3671 1.388 . S
C3670 C3669 1.366 1_655 S
C3670 C3674 1.385 . S
C3671 H3646 0.951 . S
C3671 C3669 1.388 . S
C3671 C3672 1.366 1_455 S
C3672 C3671 1.366 1_655 S
C3672 C3673 1.414 . S
C3672 C3675 1.499 . S
C3673 H3647 0.950 . S
C3673 C3672 1.414 . S
C3673 C3674 1.374 . S
C3674 H3648 0.950 . S
C3674 C3670 1.385 . S
C3674 C3673 1.374 . S
C3675 C3672 1.499 . S
C3675 C3676 1.373 . S
C3675 C3677 1.389 . S
C3676 H3649 0.950 . S
C3676 C3662 1.377 . S
C3676 C3675 1.373 . S
C3677 C3661 1.377 . S
C3677 C3675 1.389 . S
C3677 C3678 1.524 1_655 S
C3678 C3677 1.524 1_455 S
C3678 C3679 1.403 . S
C3678 C3683 1.363 . S
C3679 H3650 0.933 1_455 S
C3679 C3678 1.403 . S
C3679 C3680 1.344 . S
C3680 H3651 0.950 . S
C3680 C3679 1.344 . S
C3680 C3681 1.287 . S
C3681 C3680 1.287 . S
C3681 C3682 1.524 . S
C3681 H3684 0.999 . S
C3682 H3652 0.950 . S
C3682 C3681 1.524 . S
C3682 C3683 1.415 . S
C3683 H3653 0.950 . S
C3683 C3678 1.363 . S
C3683 C3682 1.415 . S
H3684 C3681 0.999 . S
H3685 C3666 0.913 . S
H3686 C3704 0.951 . S
H3687 C3706 0.951 . S
H3688 C3708 0.950 . S
H3689 C3709 0.950 . S
H3690 C3711 0.950 . S
H3691 C3714 0.950 . S
H3692 C3715 0.950 . S
H3693 C3717 0.950 . S
H3694 C3718 0.950 . S
H3695 C3719 0.951 . S
H3696 C3721 0.951 . S
H3697 C3723 0.950 . S
H3698 C3724 0.950 . S
H3699 C3726 0.950 . S
H3700 C3729 0.950 . S
H3701 C3730 0.950 . S
H3702 C3732 0.950 . S
H3703 C3733 0.950 . S
C3704 H3686 0.951 . S
C3704 C3705 1.366 . S
C3704 C3706 1.388 . S
C3705 C3704 1.366 . S
C3705 C3709 1.385 . S
C3706 H3687 0.951 . S
C3706 C3704 1.388 . S
C3706 C3707 1.366 . S
C3707 C3706 1.366 . S
C3707 C3708 1.414 . S
C3707 C3710 1.499 . S
C3708 H3688 0.950 . S
C3708 C3707 1.414 . S
C3708 C3709 1.374 . S
C3709 H3689 0.950 . S
C3709 C3705 1.385 . S
C3709 C3708 1.374 . S
C3710 C3707 1.499 . S
C3710 C3711 1.373 . S
C3710 C3712 1.389 . S
C3711 H3690 0.950 . S
C3711 C3710 1.373 . S
C3711 C3727 1.377 . S
C3712 C3710 1.389 . S
C3712 C3713 1.524 . S
C3712 C3726 1.377 . S
C3713 C3712 1.524 . S
C3713 C3714 1.397 . S
C3713 C3718 1.363 . S
C3714 H3691 0.950 . S
C3714 C3713 1.397 . S
C3714 C3715 1.334 . S
C3715 H3692 0.950 . S
C3715 C3714 1.334 . S
C3715 C3716 1.287 . S
C3716 C3715 1.287 . S
C3716 C3717 1.524 . S
C3716 H3735 0.913 . S
C3717 H3693 0.950 . S
C3717 C3716 1.524 . S
C3717 C3718 1.415 . S
C3718 H3694 0.950 . S
C3718 C3713 1.363 . S
C3718 C3717 1.415 . S
C3719 H3695 0.951 . S
C3719 C3720 1.366 . S
C3719 C3721 1.388 . S
C3720 C3719 1.366 . S
C3720 C3724 1.385 . S
C3721 H3696 0.951 . S
C3721 C3719 1.388 . S
C3721 C3722 1.366 . S
C3722 C3721 1.366 . S
C3722 C3723 1.414 . S
C3722 C3725 1.499 . S
C3723 H3697 0.950 . S
C3723 C3722 1.414 . S
C3723 C3724 1.374 . S
C3724 H3698 0.950 . S
C3724 C3720 1.385 . S
C3724 C3723 1.374 . S
C3725 C3722 1.499 . S
C3725 C3726 1.373 . S
C3725 C3727 1.389 . S
C3726 H3699 0.950 . S
C3726 C3712 1.377 . S
C3726 C3725 1.373 . S
C3727 C3711 1.377 . S
C3727 C3725 1.389 . S
C3727 C3728 1.524 . S
C3728 C3727 1.524 . S
C3728 C3729 1.397 . S
C3728 C3733 1.363 . S
C3729 H3700 0.950 . S
C3729 C3728 1.397 . S
C3729 C3730 1.334 . S
C3730 H3701 0.950 . S
C3730 C3729 1.334 . S
C3730 C3731 1.287 . S
C3731 C3730 1.287 . S
C3731 C3732 1.524 . S
C3731 H3734 0.999 . S
C3732 H3702 0.950 . S
C3732 C3731 1.524 . S
C3732 C3733 1.415 . S
C3733 H3703 0.950 . S
C3733 C3728 1.363 . S
C3733 C3732 1.415 . S
H3734 C3731 0.999 . S
H3735 C3716 0.913 . S
H3736 C3754 0.951 . S
H3737 C3756 0.951 . S
H3738 C3758 0.950 . S
H3739 C3759 0.950 . S
H3740 C3761 0.950 . S
H3741 C3764 0.950 . S
H3742 C3765 0.950 . S
H3743 C3767 0.950 . S
H3744 C3768 0.950 . S
H3745 C3769 0.951 1_565 S
H3746 C3771 0.951 . S
H3747 C3773 0.950 . S
H3748 C3774 0.950 . S
H3749 C3776 0.950 . S
H3750 C3779 0.950 . S
H3751 C3780 0.950 . S
H3752 C3782 0.950 . S
H3753 C3783 0.950 . S
C3754 H3736 0.951 . S
C3754 C3755 1.366 . S
C3754 C3756 1.388 . S
C3755 C3754 1.366 . S
C3755 C3759 1.385 . S
C3756 H3737 0.951 . S
C3756 C3754 1.388 . S
C3756 C3757 1.366 . S
C3757 C3756 1.366 . S
C3757 C3758 1.414 . S
C3757 C3760 1.499 . S
C3758 H3738 0.950 . S
C3758 C3757 1.414 . S
C3758 C3759 1.374 . S
C3759 H3739 0.950 . S
C3759 C3755 1.385 . S
C3759 C3758 1.374 . S
C3760 C3757 1.499 . S
C3760 C3761 1.373 . S
C3760 C3762 1.389 . S
C3761 H3740 0.950 . S
C3761 C3760 1.373 . S
C3761 C3777 1.377 . S
C3762 C3760 1.389 . S
C3762 C3763 1.524 . S
C3762 C3776 1.377 . S
C3763 C3762 1.524 . S
C3763 C3764 1.397 1_545 S
C3763 C3768 1.363 . S
C3764 H3741 0.950 . S
C3764 C3763 1.397 1_565 S
C3764 C3765 1.334 . S
C3765 H3742 0.950 . S
C3765 C3764 1.334 . S
C3765 C3766 1.287 . S
C3766 C3765 1.287 . S
C3766 C3767 1.524 1_565 S
C3766 H3785 0.913 . S
C3767 H3743 0.950 . S
C3767 C3766 1.524 1_545 S
C3767 C3768 1.415 . S
C3768 H3744 0.950 . S
C3768 C3763 1.363 . S
C3768 C3767 1.415 . S
C3769 H3745 0.951 1_545 S
C3769 C3770 1.366 . S
C3769 C3771 1.388 . S
C3770 C3769 1.366 . S
C3770 C3774 1.385 . S
C3771 H3746 0.951 . S
C3771 C3769 1.388 . S
C3771 C3772 1.366 . S
C3772 C3771 1.366 . S
C3772 C3773 1.414 . S
C3772 C3775 1.499 . S
C3773 H3747 0.950 . S
C3773 C3772 1.414 . S
C3773 C3774 1.374 . S
C3774 H3748 0.950 . S
C3774 C3770 1.385 . S
C3774 C3773 1.374 . S
C3775 C3772 1.499 . S
C3775 C3776 1.373 . S
C3775 C3777 1.389 . S
C3776 H3749 0.950 . S
C3776 C3762 1.377 . S
C3776 C3775 1.373 . S
C3777 C3761 1.377 . S
C3777 C3775 1.389 . S
C3777 C3778 1.524 . S
C3778 C3777 1.524 . S
C3778 C3779 1.397 . S
C3778 C3783 1.363 . S
C3779 H3750 0.950 . S
C3779 C3778 1.397 . S
C3779 C3780 1.334 . S
C3780 H3751 0.950 . S
C3780 C3779 1.334 . S
C3780 C3781 1.287 . S
C3781 C3780 1.287 . S
C3781 C3782 1.524 . S
C3781 H3784 0.999 . S
C3782 H3752 0.950 . S
C3782 C3781 1.524 . S
C3782 C3783 1.415 . S
C3783 H3753 0.950 . S
C3783 C3778 1.363 . S
C3783 C3782 1.415 . S
H3784 C3781 0.999 . S
H3785 C3766 0.913 . S
H3786 C3804 0.951 . S
H3787 C3806 0.951 . S
H3788 C3808 0.950 . S
H3789 C3809 0.950 . S
H3790 C3811 0.950 1_545 S
H3791 C3814 0.950 . S
H3792 C3815 0.950 . S
H3793 C3817 0.950 . S
H3794 C3818 0.950 . S
H3795 C3819 0.951 . S
H3796 C3821 0.936 1_545 S
H3797 C3823 0.950 . S
H3798 C3824 0.950 . S
H3799 C3826 0.950 . S
H3800 C3829 0.950 . S
H3801 C3830 0.950 . S
H3802 C3832 0.950 . S
H3803 C3833 0.950 . S
C3804 H3786 0.951 . S
C3804 C3805 1.366 . S
C3804 C3806 1.388 . S
C3805 C3804 1.366 . S
C3805 C3809 1.385 . S
C3806 H3787 0.951 . S
C3806 C3804 1.388 . S
C3806 C3807 1.366 . S
C3807 C3806 1.366 . S
C3807 C3808 1.414 . S
C3807 C3810 1.499 . S
C3808 H3788 0.950 . S
C3808 C3807 1.414 . S
C3808 C3809 1.374 . S
C3809 H3789 0.950 . S
C3809 C3805 1.385 . S
C3809 C3808 1.374 . S
C3810 C3807 1.499 . S
C3810 C3811 1.373 . S
C3810 C3812 1.389 . S
C3811 H3790 0.950 1_565 S
C3811 C3810 1.373 . S
C3811 C3827 1.357 . S
C3812 C3810 1.389 . S
C3812 C3813 1.524 . S
C3812 C3826 1.377 . S
C3813 C3812 1.524 . S
C3813 C3814 1.397 . S
C3813 C3818 1.363 . S
C3814 H3791 0.950 . S
C3814 C3813 1.397 . S
C3814 C3815 1.334 . S
C3815 H3792 0.950 . S
C3815 C3814 1.334 . S
C3815 C3816 1.287 . S
C3816 C3815 1.287 . S
C3816 C3817 1.524 . S
C3816 H3835 0.913 . S
C3817 H3793 0.950 . S
C3817 C3816 1.524 . S
C3817 C3818 1.415 . S
C3818 H3794 0.950 . S
C3818 C3813 1.363 . S
C3818 C3817 1.415 . S
C3819 H3795 0.951 . S
C3819 C3820 1.366 1_545 S
C3819 C3821 1.396 1_545 S
C3820 C3819 1.366 1_565 S
C3820 C3824 1.385 . S
C3821 H3796 0.936 1_565 S
C3821 C3819 1.396 1_565 S
C3821 C3822 1.372 . S
C3822 C3821 1.372 . S
C3822 C3823 1.414 . S
C3822 C3825 1.499 . S
C3823 H3797 0.950 . S
C3823 C3822 1.414 . S
C3823 C3824 1.374 . S
C3824 H3798 0.950 . S
C3824 C3820 1.385 . S
C3824 C3823 1.374 . S
C3825 C3822 1.499 . S
C3825 C3826 1.373 . S
C3825 C3827 1.488 . S
C3826 H3799 0.950 . S
C3826 C3812 1.377 . S
C3826 C3825 1.373 . S
C3827 C3811 1.357 . S
C3827 C3825 1.488 . S
C3827 C3828 1.444 1_565 S
C3828 C3827 1.444 1_545 S
C3828 C3829 1.397 . S
C3828 C3833 1.363 . S
C3829 H3800 0.950 . S
C3829 C3828 1.397 . S
C3829 C3830 1.334 . S
C3830 H3801 0.950 . S
C3830 C3829 1.334 . S
C3830 C3831 1.287 . S
C3831 C3830 1.287 . S
C3831 C3832 1.524 . S
C3831 H3834 0.999 . S
C3832 H3802 0.950 . S
C3832 C3831 1.524 . S
C3832 C3833 1.415 . S
C3833 H3803 0.950 . S
C3833 C3828 1.363 . S
C3833 C3832 1.415 . S
H3834 C3831 0.999 . S
H3835 C3816 0.913 . S
H3836 C3854 0.951 . S
H3837 C3856 0.951 . S
H3838 C3858 0.950 . S
H3839 C3859 0.950 . S
H3840 C3861 0.950 . S
H3841 C3864 0.950 . S
H3842 C3865 0.950 . S
H3843 C3867 0.950 . S
H3844 C3868 0.950 . S
H3845 C3869 0.994 . S
H3846 C3871 0.951 1_655 S
H3847 C3873 0.950 . S
H3848 C3874 0.950 . S
H3849 C3876 0.950 . S
H3850 C3879 0.950 . S
H3851 C3880 0.950 . S
H3852 C3882 0.950 1_655 S
H3853 C3883 0.950 1_655 S
C3854 H3836 0.951 . S
C3854 C3855 1.366 . S
C3854 C3856 1.388 . S
C3855 C3854 1.366 . S
C3855 C3859 1.385 . S
C3856 H3837 0.951 . S
C3856 C3854 1.388 . S
C3856 C3857 1.366 . S
C3857 C3856 1.366 . S
C3857 C3858 1.414 . S
C3857 C3860 1.499 . S
C3858 H3838 0.950 . S
C3858 C3857 1.414 . S
C3858 C3859 1.374 . S
C3859 H3839 0.950 . S
C3859 C3855 1.385 . S
C3859 C3858 1.374 . S
C3860 C3857 1.499 . S
C3860 C3861 1.373 . S
C3860 C3862 1.389 . S
C3861 H3840 0.950 . S
C3861 C3860 1.373 . S
C3861 C3877 1.377 . S
C3862 C3860 1.389 . S
C3862 C3863 1.524 . S
C3862 C3876 1.377 . S
C3863 C3862 1.524 . S
C3863 C3864 1.397 . S
C3863 C3868 1.363 . S
C3864 H3841 0.950 . S
C3864 C3863 1.397 . S
C3864 C3865 1.334 . S
C3865 H3842 0.950 . S
C3865 C3864 1.334 . S
C3865 C3866 1.287 . S
C3866 C3865 1.287 . S
C3866 C3867 1.524 . S
C3866 H3885 0.913 . S
C3867 H3843 0.950 . S
C3867 C3866 1.524 . S
C3867 C3868 1.415 . S
C3868 H3844 0.950 . S
C3868 C3863 1.363 . S
C3868 C3867 1.415 . S
C3869 H3845 0.994 . S
C3869 C3870 1.357 1_655 S
C3869 C3871 1.357 1_655 S
C3870 C3869 1.357 1_455 S
C3870 C3874 1.385 . S
C3871 H3846 0.951 1_455 S
C3871 C3869 1.357 1_455 S
C3871 C3872 1.366 . S
C3872 C3871 1.366 . S
C3872 C3873 1.414 . S
C3872 C3875 1.499 . S
C3873 H3847 0.950 . S
C3873 C3872 1.414 . S
C3873 C3874 1.374 . S
C3874 H3848 0.950 . S
C3874 C3870 1.385 . S
C3874 C3873 1.374 . S
C3875 C3872 1.499 . S
C3875 C3876 1.373 . S
C3875 C3877 1.389 . S
C3876 H3849 0.950 . S
C3876 C3862 1.377 . S
C3876 C3875 1.373 . S
C3877 C3861 1.377 . S
C3877 C3875 1.389 . S
C3877 C3878 1.524 . S
C3878 C3877 1.524 . S
C3878 C3879 1.397 . S
C3878 C3883 1.363 . S
C3879 H3850 0.950 . S
C3879 C3878 1.397 . S
C3879 C3880 1.334 . S
C3880 H3851 0.950 . S
C3880 C3879 1.334 . S
C3880 C3881 1.287 . S
C3881 C3880 1.287 . S
C3881 C3882 1.524 . S
C3881 H3884 0.999 . S
C3882 H3852 0.950 1_455 S
C3882 C3881 1.524 . S
C3882 C3883 1.415 . S
C3883 H3853 0.950 1_455 S
C3883 C3878 1.363 . S
C3883 C3882 1.415 . S
H3884 C3881 0.999 . S
H3885 C3866 0.913 . S
H3886 C3904 0.951 . S
H3887 C3906 0.951 . S
H3888 C3908 0.950 . S
H3889 C3909 0.950 . S
H3890 C3911 0.950 . S
H3891 C3914 0.950 . S
H3892 C3915 0.950 . S
H3893 C3917 0.950 . S
H3894 C3918 0.950 . S
H3895 C3919 0.951 . S
H3896 C3921 0.951 . S
H3897 C3923 0.950 . S
H3898 C3924 0.950 . S
H3899 C3926 0.950 . S
H3900 C3929 0.950 . S
H3901 C3930 0.950 . S
H3902 C3932 0.950 . S
H3903 C3933 0.950 . S
C3904 H3886 0.951 . S
C3904 C3905 1.366 . S
C3904 C3906 1.388 . S
C3905 C3904 1.366 . S
C3905 C3909 1.385 . S
C3906 H3887 0.951 . S
C3906 C3904 1.388 . S
C3906 C3907 1.366 . S
C3907 C3906 1.366 . S
C3907 C3908 1.414 . S
C3907 C3910 1.499 . S
C3908 H3888 0.950 . S
C3908 C3907 1.414 . S
C3908 C3909 1.374 . S
C3909 H3889 0.950 . S
C3909 C3905 1.385 . S
C3909 C3908 1.374 . S
C3910 C3907 1.499 . S
C3910 C3911 1.373 . S
C3910 C3912 1.389 . S
C3911 H3890 0.950 . S
C3911 C3910 1.373 . S
C3911 C3927 1.377 . S
C3912 C3910 1.389 . S
C3912 C3913 1.524 . S
C3912 C3926 1.377 . S
C3913 C3912 1.524 . S
C3913 C3914 1.397 . S
C3913 C3918 1.363 . S
C3914 H3891 0.950 . S
C3914 C3913 1.397 . S
C3914 C3915 1.334 . S
C3915 H3892 0.950 . S
C3915 C3914 1.334 . S
C3915 C3916 1.287 . S
C3916 C3915 1.287 . S
C3916 C3917 1.524 . S
C3916 H3935 0.913 . S
C3917 H3893 0.950 . S
C3917 C3916 1.524 . S
C3917 C3918 1.415 . S
C3918 H3894 0.950 . S
C3918 C3913 1.363 . S
C3918 C3917 1.415 . S
C3919 H3895 0.951 . S
C3919 C3920 1.366 . S
C3919 C3921 1.388 . S
C3920 C3919 1.366 . S
C3920 C3924 1.385 . S
C3921 H3896 0.951 . S
C3921 C3919 1.388 . S
C3921 C3922 1.366 . S
C3922 C3921 1.366 . S
C3922 C3923 1.414 . S
C3922 C3925 1.499 . S
C3923 H3897 0.950 . S
C3923 C3922 1.414 . S
C3923 C3924 1.374 . S
C3924 H3898 0.950 . S
C3924 C3920 1.385 . S
C3924 C3923 1.374 . S
C3925 C3922 1.499 . S
C3925 C3926 1.373 . S
C3925 C3927 1.389 . S
C3926 H3899 0.950 . S
C3926 C3912 1.377 . S
C3926 C3925 1.373 . S
C3927 C3911 1.377 . S
C3927 C3925 1.389 . S
C3927 C3928 1.524 . S
C3928 C3927 1.524 . S
C3928 C3929 1.397 . S
C3928 C3933 1.363 . S
C3929 H3900 0.950 . S
C3929 C3928 1.397 . S
C3929 C3930 1.334 . S
C3930 H3901 0.950 . S
C3930 C3929 1.334 . S
C3930 C3931 1.287 . S
C3931 C3930 1.287 . S
C3931 C3932 1.524 . S
C3931 H3934 0.999 . S
C3932 H3902 0.950 . S
C3932 C3931 1.524 . S
C3932 C3933 1.415 . S
C3933 H3903 0.950 . S
C3933 C3928 1.363 . S
C3933 C3932 1.415 . S
H3934 C3931 0.999 . S
H3935 C3916 0.913 . S
H3936 C3954 0.951 . S
H3937 C3956 0.951 . S
H3938 C3958 0.950 . S
H3939 C3959 0.950 . S
H3940 C3961 0.950 1_655 S
H3941 C3964 0.950 . S
H3942 C3965 0.950 . S
H3943 C3967 0.950 . S
H3944 C3968 0.950 . S
H3945 C3969 0.940 1_655 S
H3946 C3971 0.951 . S
H3947 C3973 0.950 . S
H3948 C3974 0.950 . S
H3949 C3976 0.950 . S
H3950 C3979 0.950 . S
H3951 C3980 0.950 . S
H3952 C3982 0.950 . S
H3953 C3983 0.950 . S
C3954 H3936 0.951 . S
C3954 C3955 1.366 . S
C3954 C3956 1.388 . S
C3955 C3954 1.366 . S
C3955 C3959 1.385 . S
C3956 H3937 0.951 . S
C3956 C3954 1.388 . S
C3956 C3957 1.366 . S
C3957 C3956 1.366 . S
C3957 C3958 1.414 . S
C3957 C3960 1.499 . S
C3958 H3938 0.950 . S
C3958 C3957 1.414 . S
C3958 C3959 1.374 . S
C3959 H3939 0.950 . S
C3959 C3955 1.385 . S
C3959 C3958 1.374 . S
C3960 C3957 1.499 . S
C3960 C3961 1.373 . S
C3960 C3962 1.389 . S
C3961 H3940 0.950 1_455 S
C3961 C3960 1.373 . S
C3961 C3977 1.375 . S
C3962 C3960 1.389 . S
C3962 C3963 1.524 . S
C3962 C3976 1.377 . S
C3963 C3962 1.524 . S
C3963 C3964 1.397 . S
C3963 C3968 1.363 . S
C3964 H3941 0.950 . S
C3964 C3963 1.397 . S
C3964 C3965 1.334 . S
C3965 H3942 0.950 . S
C3965 C3964 1.334 . S
C3965 C3966 1.287 . S
C3966 C3965 1.287 . S
C3966 C3967 1.524 . S
C3966 H3985 0.913 . S
C3967 H3943 0.950 . S
C3967 C3966 1.524 . S
C3967 C3968 1.415 . S
C3968 H3944 0.950 . S
C3968 C3963 1.363 . S
C3968 C3967 1.415 . S
C3969 H3945 0.940 1_455 S
C3969 C3970 1.387 . S
C3969 C3971 1.379 . S
C3970 C3969 1.387 . S
C3970 C3974 1.385 . S
C3971 H3946 0.951 . S
C3971 C3969 1.379 . S
C3971 C3972 1.366 . S
C3972 C3971 1.366 . S
C3972 C3973 1.414 . S
C3972 C3975 1.499 . S
C3973 H3947 0.950 . S
C3973 C3972 1.414 . S
C3973 C3974 1.374 . S
C3974 H3948 0.950 . S
C3974 C3970 1.385 . S
C3974 C3973 1.374 . S
C3975 C3972 1.499 . S
C3975 C3976 1.373 . S
C3975 C3977 1.396 . S
C3976 H3949 0.950 . S
C3976 C3962 1.377 . S
C3976 C3975 1.373 . S
C3977 C3961 1.375 . S
C3977 C3975 1.396 . S
C3977 C3978 1.519 1_455 S
C3978 C3977 1.519 1_655 S
C3978 C3979 1.397 . S
C3978 C3983 1.363 . S
C3979 H3950 0.950 . S
C3979 C3978 1.397 . S
C3979 C3980 1.334 . S
C3980 H3951 0.950 . S
C3980 C3979 1.334 . S
C3980 C3981 1.287 . S
C3981 C3980 1.287 . S
C3981 C3982 1.524 . S
C3981 H3984 0.999 . S
C3982 H3952 0.950 . S
C3982 C3981 1.524 . S
C3982 C3983 1.415 . S
C3983 H3953 0.950 . S
C3983 C3978 1.363 . S
C3983 C3982 1.415 . S
H3984 C3981 0.999 . S
H3985 C3966 0.913 . S
H3986 C4004 0.951 . S
H3987 C4006 0.951 . S
H3988 C4008 0.950 . S
H3989 C4009 0.950 . S
H3990 C4011 0.950 . S
H3991 C4014 0.950 . S
H3992 C4015 0.950 . S
H3993 C4017 0.950 . S
H3994 C4018 0.950 . S
H3995 C4019 0.951 . S
H3996 C4021 0.951 . S
H3997 C4023 0.950 . S
H3998 C4024 0.950 . S
H3999 C4026 0.950 . S
H4000 C4029 0.950 . S
H4001 C4030 0.950 . S
H4002 C4032 0.950 . S
H4003 C4033 0.950 . S
C4004 H3986 0.951 . S
C4004 C4005 1.366 . S
C4004 C4006 1.388 . S
C4005 C4004 1.366 . S
C4005 C4009 1.385 . S
C4006 H3987 0.951 . S
C4006 C4004 1.388 . S
C4006 C4007 1.366 . S
C4007 C4006 1.366 . S
C4007 C4008 1.414 . S
C4007 C4010 1.499 . S
C4008 H3988 0.950 . S
C4008 C4007 1.414 . S
C4008 C4009 1.374 . S
C4009 H3989 0.950 . S
C4009 C4005 1.385 . S
C4009 C4008 1.374 . S
C4010 C4007 1.499 . S
C4010 C4011 1.373 . S
C4010 C4012 1.389 . S
C4011 H3990 0.950 . S
C4011 C4010 1.373 . S
C4011 C4027 1.377 . S
C4012 C4010 1.389 . S
C4012 C4013 1.524 . S
C4012 C4026 1.377 . S
C4013 C4012 1.524 . S
C4013 C4014 1.397 . S
C4013 C4018 1.363 . S
C4014 H3991 0.950 . S
C4014 C4013 1.397 . S
C4014 C4015 1.334 . S
C4015 H3992 0.950 . S
C4015 C4014 1.334 . S
C4015 C4016 1.287 . S
C4016 C4015 1.287 . S
C4016 C4017 1.524 . S
C4016 H4035 0.913 . S
C4017 H3993 0.950 . S
C4017 C4016 1.524 . S
C4017 C4018 1.415 . S
C4018 H3994 0.950 . S
C4018 C4013 1.363 . S
C4018 C4017 1.415 . S
C4019 H3995 0.951 . S
C4019 C4020 1.366 . S
C4019 C4021 1.388 . S
C4020 C4019 1.366 . S
C4020 C4024 1.385 . S
C4021 H3996 0.951 . S
C4021 C4019 1.388 . S
C4021 C4022 1.366 . S
C4022 C4021 1.366 . S
C4022 C4023 1.414 . S
C4022 C4025 1.499 . S
C4023 H3997 0.950 . S
C4023 C4022 1.414 . S
C4023 C4024 1.374 . S
C4024 H3998 0.950 . S
C4024 C4020 1.385 . S
C4024 C4023 1.374 . S
C4025 C4022 1.499 . S
C4025 C4026 1.373 . S
C4025 C4027 1.389 . S
C4026 H3999 0.950 . S
C4026 C4012 1.377 . S
C4026 C4025 1.373 . S
C4027 C4011 1.377 . S
C4027 C4025 1.389 . S
C4027 C4028 1.524 . S
C4028 C4027 1.524 . S
C4028 C4029 1.397 . S
C4028 C4033 1.363 . S
C4029 H4000 0.950 . S
C4029 C4028 1.397 . S
C4029 C4030 1.334 . S
C4030 H4001 0.950 . S
C4030 C4029 1.334 . S
C4030 C4031 1.287 . S
C4031 C4030 1.287 . S
C4031 C4032 1.524 . S
C4031 H4034 0.999 . S
C4032 H4002 0.950 . S
C4032 C4031 1.524 . S
C4032 C4033 1.415 . S
C4033 H4003 0.950 . S
C4033 C4028 1.363 . S
C4033 C4032 1.415 . S
H4034 C4031 0.999 . S
H4035 C4016 0.913 . S
H4036 C4054 0.951 . S
H4037 C4056 0.951 . S
H4038 C4058 0.950 . S
H4039 C4059 0.950 . S
H4040 C4061 0.950 . S
H4041 C4064 0.950 . S
H4042 C4065 0.950 . S
H4043 C4067 0.930 1_565 S
H4044 C4068 0.950 . S
H4045 C4069 1.040 . S
H4046 C4071 0.929 1_545 S
H4047 C4073 0.950 . S
H4048 C4074 0.950 . S
H4049 C4076 0.950 . S
H4050 C4079 0.950 . S
H4051 C4080 0.950 . S
H4052 C4082 0.950 . S
H4053 C4083 0.950 . S
C4054 H4036 0.951 . S
C4054 C4055 1.366 . S
C4054 C4056 1.388 . S
C4055 C4054 1.366 . S
C4055 C4059 1.385 . S
C4056 H4037 0.951 . S
C4056 C4054 1.388 . S
C4056 C4057 1.366 . S
C4057 C4056 1.366 . S
C4057 C4058 1.414 . S
C4057 C4060 1.499 . S
C4058 H4038 0.950 . S
C4058 C4057 1.414 . S
C4058 C4059 1.374 . S
C4059 H4039 0.950 . S
C4059 C4055 1.385 . S
C4059 C4058 1.374 . S
C4060 C4057 1.499 . S
C4060 C4061 1.373 . S
C4060 C4062 1.389 . S
C4061 H4040 0.950 . S
C4061 C4060 1.373 . S
C4061 C4077 1.377 . S
C4062 C4060 1.389 . S
C4062 C4063 1.524 . S
C4062 C4076 1.377 . S
C4063 C4062 1.524 . S
C4063 C4064 1.397 1_565 S
C4063 C4068 1.363 . S
C4064 H4041 0.950 . S
C4064 C4063 1.397 1_545 S
C4064 C4065 1.334 . S
C4065 H4042 0.950 . S
C4065 C4064 1.334 . S
C4065 C4066 1.287 . S
C4066 C4065 1.287 . S
C4066 C4067 1.545 . S
C4066 H4085 0.913 . S
C4067 H4043 0.930 1_545 S
C4067 C4066 1.545 . S
C4067 C4068 1.419 1_545 S
C4068 H4044 0.950 . S
C4068 C4063 1.363 . S
C4068 C4067 1.419 1_565 S
C4069 H4045 1.040 . S
C4069 C4070 1.343 1_545 S
C4069 C4071 1.331 1_545 S
C4070 C4069 1.343 1_565 S
C4070 C4074 1.385 . S
C4071 H4046 0.929 1_565 S
C4071 C4069 1.331 1_565 S
C4071 C4072 1.366 . S
C4072 C4071 1.366 . S
C4072 C4073 1.414 . S
C4072 C4075 1.499 . S
C4073 H4047 0.950 . S
C4073 C4072 1.414 . S
C4073 C4074 1.374 . S
C4074 H4048 0.950 . S
C4074 C4070 1.385 . S
C4074 C4073 1.374 . S
C4075 C4072 1.499 . S
C4075 C4076 1.373 . S
C4075 C4077 1.389 . S
C4076 H4049 0.950 . S
C4076 C4062 1.377 . S
C4076 C4075 1.373 . S
C4077 C4061 1.377 . S
C4077 C4075 1.389 . S
C4077 C4078 1.524 . S
C4078 C4077 1.524 . S
C4078 C4079 1.397 . S
C4078 C4083 1.363 . S
C4079 H4050 0.950 . S
C4079 C4078 1.397 . S
C4079 C4080 1.334 . S
C4080 H4051 0.950 . S
C4080 C4079 1.334 . S
C4080 C4081 1.287 . S
C4081 C4080 1.287 . S
C4081 C4082 1.524 . S
C4081 H4084 0.999 . S
C4082 H4052 0.950 . S
C4082 C4081 1.524 . S
C4082 C4083 1.415 . S
C4083 H4053 0.950 . S
C4083 C4078 1.363 . S
C4083 C4082 1.415 . S
H4084 C4081 0.999 . S
H4085 C4066 0.913 . S
H4086 C4104 0.951 . S
H4087 C4106 0.951 . S
H4088 C4108 0.950 . S
H4089 C4109 0.950 . S
H4090 C4111 0.950 . S
H4091 C4114 0.950 . S
H4092 C4115 0.950 . S
H4093 C4117 0.950 1_565 S
H4094 C4118 0.950 1_565 S
H4095 C4119 0.951 . S
H4096 C4121 0.951 . S
H4097 C4123 0.950 . S
H4098 C4124 0.950 . S
H4099 C4126 0.950 . S
H4100 C4129 0.910 1_565 S
H4101 C4130 0.961 . S
H4102 C4132 0.950 . S
H4103 C4133 0.950 . S
C4104 H4086 0.951 . S
C4104 C4105 1.366 . S
C4104 C4106 1.388 . S
C4105 C4104 1.366 . S
C4105 C4109 1.385 . S
C4106 H4087 0.951 . S
C4106 C4104 1.388 . S
C4106 C4107 1.366 . S
C4107 C4106 1.366 . S
C4107 C4108 1.414 . S
C4107 C4110 1.499 . S
C4108 H4088 0.950 . S
C4108 C4107 1.414 . S
C4108 C4109 1.374 . S
C4109 H4089 0.950 . S
C4109 C4105 1.385 . S
C4109 C4108 1.374 . S
C4110 C4107 1.499 . S
C4110 C4111 1.373 . S
C4110 C4112 1.389 . S
C4111 H4090 0.950 . S
C4111 C4110 1.373 . S
C4111 C4127 1.377 . S
C4112 C4110 1.389 . S
C4112 C4113 1.524 . S
C4112 C4126 1.377 . S
C4113 C4112 1.524 . S
C4113 C4114 1.397 . S
C4113 C4118 1.363 . S
C4114 H4091 0.950 . S
C4114 C4113 1.397 . S
C4114 C4115 1.334 . S
C4115 H4092 0.950 . S
C4115 C4114 1.334 . S
C4115 C4116 1.287 . S
C4116 C4115 1.287 . S
C4116 C4117 1.524 . S
C4116 H4135 0.913 . S
C4117 H4093 0.950 1_545 S
C4117 C4116 1.524 . S
C4117 C4118 1.415 . S
C4118 H4094 0.950 1_545 S
C4118 C4113 1.363 . S
C4118 C4117 1.415 . S
C4119 H4095 0.951 . S
C4119 C4120 1.366 . S
C4119 C4121 1.388 . S
C4120 C4119 1.366 . S
C4120 C4124 1.385 1_545 S
C4121 H4096 0.951 . S
C4121 C4119 1.388 . S
C4121 C4122 1.366 . S
C4122 C4121 1.366 . S
C4122 C4123 1.414 1_545 S
C4122 C4125 1.499 . S
C4123 H4097 0.950 . S
C4123 C4122 1.414 1_565 S
C4123 C4124 1.374 . S
C4124 H4098 0.950 . S
C4124 C4120 1.385 1_565 S
C4124 C4123 1.374 . S
C4125 C4122 1.499 . S
C4125 C4126 1.373 . S
C4125 C4127 1.389 . S
C4126 H4099 0.950 . S
C4126 C4112 1.377 . S
C4126 C4125 1.373 . S
C4127 C4111 1.377 . S
C4127 C4125 1.389 . S
C4127 C4128 1.524 . S
C4128 C4127 1.524 . S
C4128 C4129 1.467 . S
C4128 C4133 1.363 . S
C4129 H4100 0.910 1_545 S
C4129 C4128 1.467 . S
C4129 C4130 1.311 1_545 S
C4130 H4101 0.961 . S
C4130 C4129 1.311 1_565 S
C4130 C4131 1.280 1_565 S
C4131 C4130 1.280 1_545 S
C4131 C4132 1.524 . S
C4131 H4134 0.999 . S
C4132 H4102 0.950 . S
C4132 C4131 1.524 . S
C4132 C4133 1.415 . S
C4133 H4103 0.950 . S
C4133 C4128 1.363 . S
C4133 C4132 1.415 . S
H4134 C4131 0.999 . S
H4135 C4116 0.913 . S
H4136 C4154 0.951 . S
H4137 C4156 0.951 . S
H4138 C4158 0.950 . S
H4139 C4159 0.950 . S
H4140 C4161 0.950 1_455 S
H4141 C4164 0.950 . S
H4142 C4165 0.950 . S
H4143 C4167 0.950 . S
H4144 C4168 0.950 . S
H4145 C4169 0.951 . S
H4146 C4171 0.946 . S
H4147 C4173 0.950 . S
H4148 C4174 0.950 . S
H4149 C4176 0.950 . S
H4150 C4179 0.950 . S
H4151 C4180 0.950 . S
H4152 C4182 0.950 . S
H4153 C4183 0.950 . S
C4154 H4136 0.951 . S
C4154 C4155 1.366 . S
C4154 C4156 1.388 . S
C4155 C4154 1.366 . S
C4155 C4159 1.385 . S
C4156 H4137 0.951 . S
C4156 C4154 1.388 . S
C4156 C4157 1.366 . S
C4157 C4156 1.366 . S
C4157 C4158 1.414 . S
C4157 C4160 1.499 . S
C4158 H4138 0.950 . S
C4158 C4157 1.414 . S
C4158 C4159 1.374 . S
C4159 H4139 0.950 . S
C4159 C4155 1.385 . S
C4159 C4158 1.374 . S
C4160 C4157 1.499 . S
C4160 C4161 1.373 . S
C4160 C4162 1.389 . S
C4161 H4140 0.950 1_655 S
C4161 C4160 1.373 . S
C4161 C4177 1.340 1_655 S
C4162 C4160 1.389 . S
C4162 C4163 1.524 . S
C4162 C4176 1.377 . S
C4163 C4162 1.524 . S
C4163 C4164 1.397 . S
C4163 C4168 1.363 . S
C4164 H4141 0.950 . S
C4164 C4163 1.397 . S
C4164 C4165 1.334 . S
C4165 H4142 0.950 . S
C4165 C4164 1.334 . S
C4165 C4166 1.287 . S
C4166 C4165 1.287 . S
C4166 C4167 1.524 . S
C4166 H4185 0.913 . S
C4167 H4143 0.950 . S
C4167 C4166 1.524 . S
C4167 C4168 1.415 . S
C4168 H4144 0.950 . S
C4168 C4163 1.363 . S
C4168 C4167 1.415 . S
C4169 H4145 0.951 . S
C4169 C4170 1.366 1_455 S
C4169 C4171 1.419 . S
C4170 C4169 1.366 1_655 S
C4170 C4174 1.385 . S
C4171 H4146 0.946 . S
C4171 C4169 1.419 . S
C4171 C4172 1.343 1_455 S
C4172 C4171 1.343 1_655 S
C4172 C4173 1.414 . S
C4172 C4175 1.499 . S
C4173 H4147 0.950 . S
C4173 C4172 1.414 . S
C4173 C4174 1.374 . S
C4174 H4148 0.950 . S
C4174 C4170 1.385 . S
C4174 C4173 1.374 . S
C4175 C4172 1.499 . S
C4175 C4176 1.373 . S
C4175 C4177 1.368 1_655 S
C4176 H4149 0.950 . S
C4176 C4162 1.377 . S
C4176 C4175 1.373 . S
C4177 C4161 1.340 1_455 S
C4177 C4175 1.368 1_455 S
C4177 C4178 1.588 . S
C4178 C4177 1.588 . S
C4178 C4179 1.397 . S
C4178 C4183 1.363 . S
C4179 H4150 0.950 . S
C4179 C4178 1.397 . S
C4179 C4180 1.334 . S
C4180 H4151 0.950 . S
C4180 C4179 1.334 . S
C4180 C4181 1.287 . S
C4181 C4180 1.287 . S
C4181 C4182 1.524 . S
C4181 H4184 0.999 . S
C4182 H4152 0.950 . S
C4182 C4181 1.524 . S
C4182 C4183 1.415 . S
C4183 H4153 0.950 . S
C4183 C4178 1.363 . S
C4183 C4182 1.415 . S
H4184 C4181 0.999 . S
H4185 C4166 0.913 . S
H4186 C4204 0.951 . S
H4187 C4206 0.951 . S
H4188 C4208 0.950 . S
H4189 C4209 0.950 . S
H4190 C4211 0.950 . S
H4191 C4214 0.950 . S
H4192 C4215 0.950 . S
H4193 C4217 0.950 . S
H4194 C4218 0.950 . S
H4195 C4219 0.951 . S
H4196 C4221 0.951 . S
H4197 C4223 0.950 . S
H4198 C4224 0.950 . S
H4199 C4226 0.950 . S
H4200 C4229 0.950 . S
H4201 C4230 0.950 . S
H4202 C4232 0.950 . S
H4203 C4233 0.950 . S
C4204 H4186 0.951 . S
C4204 C4205 1.366 . S
C4204 C4206 1.388 . S
C4205 C4204 1.366 . S
C4205 C4209 1.385 . S
C4206 H4187 0.951 . S
C4206 C4204 1.388 . S
C4206 C4207 1.366 . S
C4207 C4206 1.366 . S
C4207 C4208 1.414 . S
C4207 C4210 1.499 . S
C4208 H4188 0.950 . S
C4208 C4207 1.414 . S
C4208 C4209 1.374 . S
C4209 H4189 0.950 . S
C4209 C4205 1.385 . S
C4209 C4208 1.374 . S
C4210 C4207 1.499 . S
C4210 C4211 1.373 . S
C4210 C4212 1.389 . S
C4211 H4190 0.950 . S
C4211 C4210 1.373 . S
C4211 C4227 1.377 . S
C4212 C4210 1.389 . S
C4212 C4213 1.524 . S
C4212 C4226 1.377 . S
C4213 C4212 1.524 . S
C4213 C4214 1.397 . S
C4213 C4218 1.363 . S
C4214 H4191 0.950 . S
C4214 C4213 1.397 . S
C4214 C4215 1.334 . S
C4215 H4192 0.950 . S
C4215 C4214 1.334 . S
C4215 C4216 1.287 . S
C4216 C4215 1.287 . S
C4216 C4217 1.524 . S
C4216 H4235 0.913 . S
C4217 H4193 0.950 . S
C4217 C4216 1.524 . S
C4217 C4218 1.415 . S
C4218 H4194 0.950 . S
C4218 C4213 1.363 . S
C4218 C4217 1.415 . S
C4219 H4195 0.951 . S
C4219 C4220 1.366 . S
C4219 C4221 1.388 . S
C4220 C4219 1.366 . S
C4220 C4224 1.385 . S
C4221 H4196 0.951 . S
C4221 C4219 1.388 . S
C4221 C4222 1.366 . S
C4222 C4221 1.366 . S
C4222 C4223 1.414 . S
C4222 C4225 1.499 . S
C4223 H4197 0.950 . S
C4223 C4222 1.414 . S
C4223 C4224 1.374 . S
C4224 H4198 0.950 . S
C4224 C4220 1.385 . S
C4224 C4223 1.374 . S
C4225 C4222 1.499 . S
C4225 C4226 1.373 . S
C4225 C4227 1.389 . S
C4226 H4199 0.950 . S
C4226 C4212 1.377 . S
C4226 C4225 1.373 . S
C4227 C4211 1.377 . S
C4227 C4225 1.389 . S
C4227 C4228 1.524 . S
C4228 C4227 1.524 . S
C4228 C4229 1.397 . S
C4228 C4233 1.363 . S
C4229 H4200 0.950 . S
C4229 C4228 1.397 . S
C4229 C4230 1.334 . S
C4230 H4201 0.950 . S
C4230 C4229 1.334 . S
C4230 C4231 1.287 . S
C4231 C4230 1.287 . S
C4231 C4232 1.524 . S
C4231 H4234 0.999 . S
C4232 H4202 0.950 . S
C4232 C4231 1.524 . S
C4232 C4233 1.415 . S
C4233 H4203 0.950 . S
C4233 C4228 1.363 . S
C4233 C4232 1.415 . S
H4234 C4231 0.999 . S
H4235 C4216 0.913 . S
H4236 C4254 0.951 . S
H4237 C4256 0.951 . S
H4238 C4258 0.950 . S
H4239 C4259 0.950 . S
H4240 C4261 0.950 . S
H4241 C4264 0.950 . S
H4242 C4265 0.950 . S
H4243 C4267 0.950 . S
H4244 C4268 0.950 . S
H4245 C4269 0.951 . S
H4246 C4271 0.951 . S
H4247 C4273 0.950 . S
H4248 C4274 0.950 . S
H4249 C4276 0.950 . S
H4250 C4279 0.950 . S
H4251 C4280 0.950 . S
H4252 C4282 0.950 . S
H4253 C4283 0.950 . S
C4254 H4236 0.951 . S
C4254 C4255 1.366 . S
C4254 C4256 1.388 . S
C4255 C4254 1.366 . S
C4255 C4259 1.385 . S
C4256 H4237 0.951 . S
C4256 C4254 1.388 . S
C4256 C4257 1.366 . S
C4257 C4256 1.366 . S
C4257 C4258 1.414 . S
C4257 C4260 1.499 . S
C4258 H4238 0.950 . S
C4258 C4257 1.414 . S
C4258 C4259 1.374 . S
C4259 H4239 0.950 . S
C4259 C4255 1.385 . S
C4259 C4258 1.374 . S
C4260 C4257 1.499 . S
C4260 C4261 1.373 . S
C4260 C4262 1.389 . S
C4261 H4240 0.950 . S
C4261 C4260 1.373 . S
C4261 C4277 1.377 . S
C4262 C4260 1.389 . S
C4262 C4263 1.524 . S
C4262 C4276 1.377 . S
C4263 C4262 1.524 . S
C4263 C4264 1.397 . S
C4263 C4268 1.363 . S
C4264 H4241 0.950 . S
C4264 C4263 1.397 . S
C4264 C4265 1.334 . S
C4265 H4242 0.950 . S
C4265 C4264 1.334 . S
C4265 C4266 1.287 . S
C4266 C4265 1.287 . S
C4266 C4267 1.524 . S
C4266 H4285 0.913 . S
C4267 H4243 0.950 . S
C4267 C4266 1.524 . S
C4267 C4268 1.415 . S
C4268 H4244 0.950 . S
C4268 C4263 1.363 . S
C4268 C4267 1.415 . S
C4269 H4245 0.951 . S
C4269 C4270 1.366 . S
C4269 C4271 1.388 . S
C4270 C4269 1.366 . S
C4270 C4274 1.385 . S
C4271 H4246 0.951 . S
C4271 C4269 1.388 . S
C4271 C4272 1.366 . S
C4272 C4271 1.366 . S
C4272 C4273 1.414 . S
C4272 C4275 1.499 . S
C4273 H4247 0.950 . S
C4273 C4272 1.414 . S
C4273 C4274 1.374 . S
C4274 H4248 0.950 . S
C4274 C4270 1.385 . S
C4274 C4273 1.374 . S
C4275 C4272 1.499 . S
C4275 C4276 1.373 . S
C4275 C4277 1.389 . S
C4276 H4249 0.950 . S
C4276 C4262 1.377 . S
C4276 C4275 1.373 . S
C4277 C4261 1.377 . S
C4277 C4275 1.389 . S
C4277 C4278 1.524 . S
C4278 C4277 1.524 . S
C4278 C4279 1.397 . S
C4278 C4283 1.363 . S
C4279 H4250 0.950 . S
C4279 C4278 1.397 . S
C4279 C4280 1.334 . S
C4280 H4251 0.950 . S
C4280 C4279 1.334 . S
C4280 C4281 1.287 . S
C4281 C4280 1.287 . S
C4281 C4282 1.524 . S
C4281 H4284 0.999 . S
C4282 H4252 0.950 . S
C4282 C4281 1.524 . S
C4282 C4283 1.415 . S
C4283 H4253 0.950 . S
C4283 C4278 1.363 . S
C4283 C4282 1.415 . S
H4284 C4281 0.999 . S
H4285 C4266 0.913 . S
H4286 C4304 0.951 . S
H4287 C4306 0.951 . S
H4288 C4308 0.950 . S
H4289 C4309 0.950 . S
H4290 C4311 0.950 . S
H4291 C4314 0.950 . S
H4292 C4315 0.950 . S
H4293 C4317 0.950 . S
H4294 C4318 0.950 . S
H4295 C4319 0.951 . S
H4296 C4321 0.951 . S
H4297 C4323 0.950 . S
H4298 C4324 0.950 . S
H4299 C4326 0.950 . S
H4300 C4329 0.950 . S
H4301 C4330 0.950 . S
H4302 C4332 0.950 . S
H4303 C4333 0.950 . S
C4304 H4286 0.951 . S
C4304 C4305 1.366 . S
C4304 C4306 1.388 . S
C4305 C4304 1.366 . S
C4305 C4309 1.385 . S
C4306 H4287 0.951 . S
C4306 C4304 1.388 . S
C4306 C4307 1.366 . S
C4307 C4306 1.366 . S
C4307 C4308 1.414 . S
C4307 C4310 1.499 . S
C4308 H4288 0.950 . S
C4308 C4307 1.414 . S
C4308 C4309 1.374 . S
C4309 H4289 0.950 . S
C4309 C4305 1.385 . S
C4309 C4308 1.374 . S
C4310 C4307 1.499 . S
C4310 C4311 1.373 . S
C4310 C4312 1.389 . S
C4311 H4290 0.950 . S
C4311 C4310 1.373 . S
C4311 C4327 1.377 . S
C4312 C4310 1.389 . S
C4312 C4313 1.524 . S
C4312 C4326 1.377 . S
C4313 C4312 1.524 . S
C4313 C4314 1.397 . S
C4313 C4318 1.363 . S
C4314 H4291 0.950 . S
C4314 C4313 1.397 . S
C4314 C4315 1.334 . S
C4315 H4292 0.950 . S
C4315 C4314 1.334 . S
C4315 C4316 1.287 . S
C4316 C4315 1.287 . S
C4316 C4317 1.524 . S
C4316 H4335 0.913 . S
C4317 H4293 0.950 . S
C4317 C4316 1.524 . S
C4317 C4318 1.415 . S
C4318 H4294 0.950 . S
C4318 C4313 1.363 . S
C4318 C4317 1.415 . S
C4319 H4295 0.951 . S
C4319 C4320 1.366 . S
C4319 C4321 1.388 . S
C4320 C4319 1.366 . S
C4320 C4324 1.385 . S
C4321 H4296 0.951 . S
C4321 C4319 1.388 . S
C4321 C4322 1.366 . S
C4322 C4321 1.366 . S
C4322 C4323 1.414 . S
C4322 C4325 1.499 . S
C4323 H4297 0.950 . S
C4323 C4322 1.414 . S
C4323 C4324 1.374 . S
C4324 H4298 0.950 . S
C4324 C4320 1.385 . S
C4324 C4323 1.374 . S
C4325 C4322 1.499 . S
C4325 C4326 1.373 . S
C4325 C4327 1.389 . S
C4326 H4299 0.950 . S
C4326 C4312 1.377 . S
C4326 C4325 1.373 . S
C4327 C4311 1.377 . S
C4327 C4325 1.389 . S
C4327 C4328 1.524 . S
C4328 C4327 1.524 . S
C4328 C4329 1.397 . S
C4328 C4333 1.363 . S
C4329 H4300 0.950 . S
C4329 C4328 1.397 . S
C4329 C4330 1.334 . S
C4330 H4301 0.950 . S
C4330 C4329 1.334 . S
C4330 C4331 1.287 . S
C4331 C4330 1.287 . S
C4331 C4332 1.524 . S
C4331 H4334 0.999 . S
C4332 H4302 0.950 . S
C4332 C4331 1.524 . S
C4332 C4333 1.415 . S
C4333 H4303 0.950 . S
C4333 C4328 1.363 . S
C4333 C4332 1.415 . S
H4334 C4331 0.999 . S
H4335 C4316 0.913 . S
H4336 C4354 0.951 . S
H4337 C4356 0.951 . S
H4338 C4358 0.950 . S
H4339 C4359 0.950 . S
H4340 C4361 0.950 . S
H4341 C4364 0.950 . S
H4342 C4365 0.950 . S
H4343 C4367 0.950 . S
H4344 C4368 0.950 . S
H4345 C4369 0.951 . S
H4346 C4371 0.951 . S
H4347 C4373 0.950 . S
H4348 C4374 0.950 . S
H4349 C4376 0.950 . S
H4350 C4379 0.950 . S
H4351 C4380 0.950 . S
H4352 C4382 0.950 . S
H4353 C4383 0.950 . S
C4354 H4336 0.951 . S
C4354 C4355 1.366 . S
C4354 C4356 1.388 . S
C4355 C4354 1.366 . S
C4355 C4359 1.385 . S
C4356 H4337 0.951 . S
C4356 C4354 1.388 . S
C4356 C4357 1.366 . S
C4357 C4356 1.366 . S
C4357 C4358 1.414 . S
C4357 C4360 1.499 . S
C4358 H4338 0.950 . S
C4358 C4357 1.414 . S
C4358 C4359 1.374 . S
C4359 H4339 0.950 . S
C4359 C4355 1.385 . S
C4359 C4358 1.374 . S
C4360 C4357 1.499 . S
C4360 C4361 1.373 . S
C4360 C4362 1.389 . S
C4361 H4340 0.950 . S
C4361 C4360 1.373 . S
C4361 C4377 1.377 . S
C4362 C4360 1.389 . S
C4362 C4363 1.524 . S
C4362 C4376 1.377 . S
C4363 C4362 1.524 . S
C4363 C4364 1.397 . S
C4363 C4368 1.363 . S
C4364 H4341 0.950 . S
C4364 C4363 1.397 . S
C4364 C4365 1.334 . S
C4365 H4342 0.950 . S
C4365 C4364 1.334 . S
C4365 C4366 1.287 . S
C4366 C4365 1.287 . S
C4366 C4367 1.524 . S
C4366 H4385 0.913 . S
C4367 H4343 0.950 . S
C4367 C4366 1.524 . S
C4367 C4368 1.415 . S
C4368 H4344 0.950 . S
C4368 C4363 1.363 . S
C4368 C4367 1.415 . S
C4369 H4345 0.951 . S
C4369 C4370 1.366 . S
C4369 C4371 1.388 . S
C4370 C4369 1.366 . S
C4370 C4374 1.385 . S
C4371 H4346 0.951 . S
C4371 C4369 1.388 . S
C4371 C4372 1.366 . S
C4372 C4371 1.366 . S
C4372 C4373 1.414 . S
C4372 C4375 1.499 . S
C4373 H4347 0.950 . S
C4373 C4372 1.414 . S
C4373 C4374 1.374 . S
C4374 H4348 0.950 . S
C4374 C4370 1.385 . S
C4374 C4373 1.374 . S
C4375 C4372 1.499 . S
C4375 C4376 1.373 . S
C4375 C4377 1.389 . S
C4376 H4349 0.950 . S
C4376 C4362 1.377 . S
C4376 C4375 1.373 . S
C4377 C4361 1.377 . S
C4377 C4375 1.389 . S
C4377 C4378 1.524 . S
C4378 C4377 1.524 . S
C4378 C4379 1.397 . S
C4378 C4383 1.363 . S
C4379 H4350 0.950 . S
C4379 C4378 1.397 . S
C4379 C4380 1.334 . S
C4380 H4351 0.950 . S
C4380 C4379 1.334 . S
C4380 C4381 1.287 . S
C4381 C4380 1.287 . S
C4381 C4382 1.524 . S
C4381 H4384 0.999 . S
C4382 H4352 0.950 . S
C4382 C4381 1.524 . S
C4382 C4383 1.415 . S
C4383 H4353 0.950 . S
C4383 C4378 1.363 . S
C4383 C4382 1.415 . S
H4384 C4381 0.999 . S
H4385 C4366 0.913 . S
H4386 C4404 0.951 . S
H4387 C4406 0.951 . S
H4388 C4408 0.950 . S
H4389 C4409 0.950 . S
H4390 C4411 0.950 . S
H4391 C4414 0.950 . S
H4392 C4415 0.950 . S
H4393 C4417 0.950 . S
H4394 C4418 0.950 . S
H4395 C4419 0.951 . S
H4396 C4421 0.951 . S
H4397 C4423 0.950 . S
H4398 C4424 0.950 . S
H4399 C4426 0.950 . S
H4400 C4429 0.950 . S
H4401 C4430 0.950 . S
H4402 C4432 0.950 . S
H4403 C4433 0.950 . S
C4404 H4386 0.951 . S
C4404 C4405 1.366 . S
C4404 C4406 1.388 . S
C4405 C4404 1.366 . S
C4405 C4409 1.385 . S
C4406 H4387 0.951 . S
C4406 C4404 1.388 . S
C4406 C4407 1.366 . S
C4407 C4406 1.366 . S
C4407 C4408 1.414 . S
C4407 C4410 1.499 . S
C4408 H4388 0.950 . S
C4408 C4407 1.414 . S
C4408 C4409 1.374 . S
C4409 H4389 0.950 . S
C4409 C4405 1.385 . S
C4409 C4408 1.374 . S
C4410 C4407 1.499 . S
C4410 C4411 1.373 . S
C4410 C4412 1.389 . S
C4411 H4390 0.950 . S
C4411 C4410 1.373 . S
C4411 C4427 1.377 . S
C4412 C4410 1.389 . S
C4412 C4413 1.524 . S
C4412 C4426 1.377 . S
C4413 C4412 1.524 . S
C4413 C4414 1.397 . S
C4413 C4418 1.363 . S
C4414 H4391 0.950 . S
C4414 C4413 1.397 . S
C4414 C4415 1.334 . S
C4415 H4392 0.950 . S
C4415 C4414 1.334 . S
C4415 C4416 1.287 . S
C4416 C4415 1.287 . S
C4416 C4417 1.524 . S
C4416 H4435 0.913 . S
C4417 H4393 0.950 . S
C4417 C4416 1.524 . S
C4417 C4418 1.415 . S
C4418 H4394 0.950 . S
C4418 C4413 1.363 . S
C4418 C4417 1.415 . S
C4419 H4395 0.951 . S
C4419 C4420 1.366 . S
C4419 C4421 1.388 . S
C4420 C4419 1.366 . S
C4420 C4424 1.385 . S
C4421 H4396 0.951 . S
C4421 C4419 1.388 . S
C4421 C4422 1.366 . S
C4422 C4421 1.366 . S
C4422 C4423 1.414 . S
C4422 C4425 1.499 . S
C4423 H4397 0.950 . S
C4423 C4422 1.414 . S
C4423 C4424 1.374 . S
C4424 H4398 0.950 . S
C4424 C4420 1.385 . S
C4424 C4423 1.374 . S
C4425 C4422 1.499 . S
C4425 C4426 1.373 . S
C4425 C4427 1.389 . S
C4426 H4399 0.950 . S
C4426 C4412 1.377 . S
C4426 C4425 1.373 . S
C4427 C4411 1.377 . S
C4427 C4425 1.389 . S
C4427 C4428 1.524 . S
C4428 C4427 1.524 . S
C4428 C4429 1.397 . S
C4428 C4433 1.363 . S
C4429 H4400 0.950 . S
C4429 C4428 1.397 . S
C4429 C4430 1.334 . S
C4430 H4401 0.950 . S
C4430 C4429 1.334 . S
C4430 C4431 1.287 . S
C4431 C4430 1.287 . S
C4431 C4432 1.524 . S
C4431 H4434 0.999 . S
C4432 H4402 0.950 . S
C4432 C4431 1.524 . S
C4432 C4433 1.415 . S
C4433 H4403 0.950 . S
C4433 C4428 1.363 . S
C4433 C4432 1.415 . S
H4434 C4431 0.999 . S
H4435 C4416 0.913 . S
H4436 C4454 0.951 . S
H4437 C4456 0.951 . S
H4438 C4458 0.950 . S
H4439 C4459 0.950 . S
H4440 C4461 0.950 . S
H4441 C4464 0.950 . S
H4442 C4465 0.950 . S
H4443 C4467 0.950 . S
H4444 C4468 0.950 . S
H4445 C4469 0.951 . S
H4446 C4471 0.951 . S
H4447 C4473 0.950 . S
H4448 C4474 0.950 . S
H4449 C4476 0.950 . S
H4450 C4479 0.950 . S
H4451 C4480 0.950 . S
H4452 C4482 0.950 . S
H4453 C4483 0.950 . S
C4454 H4436 0.951 . S
C4454 C4455 1.366 . S
C4454 C4456 1.388 . S
C4455 C4454 1.366 . S
C4455 C4459 1.385 . S
C4456 H4437 0.951 . S
C4456 C4454 1.388 . S
C4456 C4457 1.366 . S
C4457 C4456 1.366 . S
C4457 C4458 1.414 . S
C4457 C4460 1.499 . S
C4458 H4438 0.950 . S
C4458 C4457 1.414 . S
C4458 C4459 1.374 . S
C4459 H4439 0.950 . S
C4459 C4455 1.385 . S
C4459 C4458 1.374 . S
C4460 C4457 1.499 . S
C4460 C4461 1.373 . S
C4460 C4462 1.389 . S
C4461 H4440 0.950 . S
C4461 C4460 1.373 . S
C4461 C4477 1.377 . S
C4462 C4460 1.389 . S
C4462 C4463 1.524 . S
C4462 C4476 1.377 . S
C4463 C4462 1.524 . S
C4463 C4464 1.397 . S
C4463 C4468 1.363 . S
C4464 H4441 0.950 . S
C4464 C4463 1.397 . S
C4464 C4465 1.334 . S
C4465 H4442 0.950 . S
C4465 C4464 1.334 . S
C4465 C4466 1.287 . S
C4466 C4465 1.287 . S
C4466 C4467 1.524 . S
C4466 H4485 0.913 . S
C4467 H4443 0.950 . S
C4467 C4466 1.524 . S
C4467 C4468 1.415 . S
C4468 H4444 0.950 . S
C4468 C4463 1.363 . S
C4468 C4467 1.415 . S
C4469 H4445 0.951 . S
C4469 C4470 1.366 . S
C4469 C4471 1.388 . S
C4470 C4469 1.366 . S
C4470 C4474 1.385 . S
C4471 H4446 0.951 . S
C4471 C4469 1.388 . S
C4471 C4472 1.366 . S
C4472 C4471 1.366 . S
C4472 C4473 1.414 . S
C4472 C4475 1.499 . S
C4473 H4447 0.950 . S
C4473 C4472 1.414 . S
C4473 C4474 1.374 . S
C4474 H4448 0.950 . S
C4474 C4470 1.385 . S
C4474 C4473 1.374 . S
C4475 C4472 1.499 . S
C4475 C4476 1.373 . S
C4475 C4477 1.389 . S
C4476 H4449 0.950 . S
C4476 C4462 1.377 . S
C4476 C4475 1.373 . S
C4477 C4461 1.377 . S
C4477 C4475 1.389 . S
C4477 C4478 1.524 . S
C4478 C4477 1.524 . S
C4478 C4479 1.397 . S
C4478 C4483 1.363 . S
C4479 H4450 0.950 . S
C4479 C4478 1.397 . S
C4479 C4480 1.334 . S
C4480 H4451 0.950 . S
C4480 C4479 1.334 . S
C4480 C4481 1.287 . S
C4481 C4480 1.287 . S
C4481 C4482 1.524 . S
C4481 H4484 0.999 . S
C4482 H4452 0.950 . S
C4482 C4481 1.524 . S
C4482 C4483 1.415 . S
C4483 H4453 0.950 . S
C4483 C4478 1.363 . S
C4483 C4482 1.415 . S
H4484 C4481 0.999 . S
H4485 C4466 0.913 . S
H4486 C4504 0.951 . S
H4487 C4506 0.951 . S
H4488 C4508 0.950 . S
H4489 C4509 0.950 . S
H4490 C4511 0.950 . S
H4491 C4514 0.950 . S
H4492 C4515 0.950 . S
H4493 C4517 0.950 . S
H4494 C4518 0.950 . S
H4495 C4519 0.951 . S
H4496 C4521 0.951 . S
H4497 C4523 0.950 . S
H4498 C4524 0.950 . S
H4499 C4526 0.950 . S
H4500 C4529 0.950 . S
H4501 C4530 0.950 . S
H4502 C4532 0.950 . S
H4503 C4533 0.950 . S
C4504 H4486 0.951 . S
C4504 C4505 1.366 . S
C4504 C4506 1.388 . S
C4505 C4504 1.366 . S
C4505 C4509 1.385 . S
C4506 H4487 0.951 . S
C4506 C4504 1.388 . S
C4506 C4507 1.366 . S
C4507 C4506 1.366 . S
C4507 C4508 1.414 . S
C4507 C4510 1.499 . S
C4508 H4488 0.950 . S
C4508 C4507 1.414 . S
C4508 C4509 1.374 . S
C4509 H4489 0.950 . S
C4509 C4505 1.385 . S
C4509 C4508 1.374 . S
C4510 C4507 1.499 . S
C4510 C4511 1.373 . S
C4510 C4512 1.389 . S
C4511 H4490 0.950 . S
C4511 C4510 1.373 . S
C4511 C4527 1.377 . S
C4512 C4510 1.389 . S
C4512 C4513 1.524 . S
C4512 C4526 1.377 . S
C4513 C4512 1.524 . S
C4513 C4514 1.397 . S
C4513 C4518 1.363 . S
C4514 H4491 0.950 . S
C4514 C4513 1.397 . S
C4514 C4515 1.334 . S
C4515 H4492 0.950 . S
C4515 C4514 1.334 . S
C4515 C4516 1.287 . S
C4516 C4515 1.287 . S
C4516 C4517 1.524 . S
C4516 H4535 0.913 . S
C4517 H4493 0.950 . S
C4517 C4516 1.524 . S
C4517 C4518 1.415 . S
C4518 H4494 0.950 . S
C4518 C4513 1.363 . S
C4518 C4517 1.415 . S
C4519 H4495 0.951 . S
C4519 C4520 1.366 . S
C4519 C4521 1.388 . S
C4520 C4519 1.366 . S
C4520 C4524 1.385 . S
C4521 H4496 0.951 . S
C4521 C4519 1.388 . S
C4521 C4522 1.366 . S
C4522 C4521 1.366 . S
C4522 C4523 1.414 . S
C4522 C4525 1.499 . S
C4523 H4497 0.950 . S
C4523 C4522 1.414 . S
C4523 C4524 1.374 . S
C4524 H4498 0.950 . S
C4524 C4520 1.385 . S
C4524 C4523 1.374 . S
C4525 C4522 1.499 . S
C4525 C4526 1.373 . S
C4525 C4527 1.389 . S
C4526 H4499 0.950 . S
C4526 C4512 1.377 . S
C4526 C4525 1.373 . S
C4527 C4511 1.377 . S
C4527 C4525 1.389 . S
C4527 C4528 1.524 . S
C4528 C4527 1.524 . S
C4528 C4529 1.397 . S
C4528 C4533 1.363 . S
C4529 H4500 0.950 . S
C4529 C4528 1.397 . S
C4529 C4530 1.334 . S
C4530 H4501 0.950 . S
C4530 C4529 1.334 . S
C4530 C4531 1.287 . S
C4531 C4530 1.287 . S
C4531 C4532 1.524 . S
C4531 H4534 0.999 . S
C4532 H4502 0.950 . S
C4532 C4531 1.524 . S
C4532 C4533 1.415 . S
C4533 H4503 0.950 . S
C4533 C4528 1.363 . S
C4533 C4532 1.415 . S
H4534 C4531 0.999 . S
H4535 C4516 0.913 . S
H4536 C4554 0.951 . S
H4537 C4556 0.951 . S
H4538 C4558 0.950 . S
H4539 C4559 0.950 . S
H4540 C4561 0.950 . S
H4541 C4564 0.950 . S
H4542 C4565 0.950 . S
H4543 C4567 0.950 . S
H4544 C4568 0.950 . S
H4545 C4569 0.951 . S
H4546 C4571 0.951 . S
H4547 C4573 0.950 . S
H4548 C4574 0.950 . S
H4549 C4576 0.950 . S
H4550 C4579 0.950 . S
H4551 C4580 0.950 . S
H4552 C4582 0.950 . S
H4553 C4583 0.950 . S
C4554 H4536 0.951 . S
C4554 C4555 1.366 . S
C4554 C4556 1.388 . S
C4555 C4554 1.366 . S
C4555 C4559 1.385 . S
C4556 H4537 0.951 . S
C4556 C4554 1.388 . S
C4556 C4557 1.366 . S
C4557 C4556 1.366 . S
C4557 C4558 1.414 . S
C4557 C4560 1.499 . S
C4558 H4538 0.950 . S
C4558 C4557 1.414 . S
C4558 C4559 1.374 . S
C4559 H4539 0.950 . S
C4559 C4555 1.385 . S
C4559 C4558 1.374 . S
C4560 C4557 1.499 . S
C4560 C4561 1.373 . S
C4560 C4562 1.389 . S
C4561 H4540 0.950 . S
C4561 C4560 1.373 . S
C4561 C4577 1.377 . S
C4562 C4560 1.389 . S
C4562 C4563 1.524 . S
C4562 C4576 1.377 . S
C4563 C4562 1.524 . S
C4563 C4564 1.397 . S
C4563 C4568 1.363 . S
C4564 H4541 0.950 . S
C4564 C4563 1.397 . S
C4564 C4565 1.334 . S
C4565 H4542 0.950 . S
C4565 C4564 1.334 . S
C4565 C4566 1.287 . S
C4566 C4565 1.287 . S
C4566 C4567 1.524 . S
C4566 H4585 0.913 . S
C4567 H4543 0.950 . S
C4567 C4566 1.524 . S
C4567 C4568 1.415 . S
C4568 H4544 0.950 . S
C4568 C4563 1.363 . S
C4568 C4567 1.415 . S
C4569 H4545 0.951 . S
C4569 C4570 1.366 . S
C4569 C4571 1.388 . S
C4570 C4569 1.366 . S
C4570 C4574 1.385 . S
C4571 H4546 0.951 . S
C4571 C4569 1.388 . S
C4571 C4572 1.366 . S
C4572 C4571 1.366 . S
C4572 C4573 1.414 . S
C4572 C4575 1.499 . S
C4573 H4547 0.950 . S
C4573 C4572 1.414 . S
C4573 C4574 1.374 . S
C4574 H4548 0.950 . S
C4574 C4570 1.385 . S
C4574 C4573 1.374 . S
C4575 C4572 1.499 . S
C4575 C4576 1.373 . S
C4575 C4577 1.389 . S
C4576 H4549 0.950 . S
C4576 C4562 1.377 . S
C4576 C4575 1.373 . S
C4577 C4561 1.377 . S
C4577 C4575 1.389 . S
C4577 C4578 1.524 . S
C4578 C4577 1.524 . S
C4578 C4579 1.397 . S
C4578 C4583 1.363 . S
C4579 H4550 0.950 . S
C4579 C4578 1.397 . S
C4579 C4580 1.334 . S
C4580 H4551 0.950 . S
C4580 C4579 1.334 . S
C4580 C4581 1.287 . S
C4581 C4580 1.287 . S
C4581 C4582 1.524 . S
C4581 H4584 0.999 . S
C4582 H4552 0.950 . S
C4582 C4581 1.524 . S
C4582 C4583 1.415 . S
C4583 H4553 0.950 . S
C4583 C4578 1.363 . S
C4583 C4582 1.415 . S
H4584 C4581 0.999 . S
H4585 C4566 0.913 . S
H4586 C4604 0.951 . S
H4587 C4606 0.951 . S
H4588 C4608 0.950 . S
H4589 C4609 0.950 . S
H4590 C4611 0.950 . S
H4591 C4614 0.950 . S
H4592 C4615 0.950 . S
H4593 C4617 0.950 . S
H4594 C4618 0.950 . S
H4595 C4619 0.951 . S
H4596 C4621 0.951 . S
H4597 C4623 0.950 . S
H4598 C4624 0.950 . S
H4599 C4626 0.950 . S
H4600 C4629 0.950 . S
H4601 C4630 0.950 . S
H4602 C4632 0.950 . S
H4603 C4633 0.950 . S
C4604 H4586 0.951 . S
C4604 C4605 1.366 . S
C4604 C4606 1.388 . S
C4605 C4604 1.366 . S
C4605 C4609 1.385 . S
C4606 H4587 0.951 . S
C4606 C4604 1.388 . S
C4606 C4607 1.366 . S
C4607 C4606 1.366 . S
C4607 C4608 1.414 . S
C4607 C4610 1.499 . S
C4608 H4588 0.950 . S
C4608 C4607 1.414 . S
C4608 C4609 1.374 . S
C4609 H4589 0.950 . S
C4609 C4605 1.385 . S
C4609 C4608 1.374 . S
C4610 C4607 1.499 . S
C4610 C4611 1.373 . S
C4610 C4612 1.389 . S
C4611 H4590 0.950 . S
C4611 C4610 1.373 . S
C4611 C4627 1.377 . S
C4612 C4610 1.389 . S
C4612 C4613 1.524 . S
C4612 C4626 1.377 . S
C4613 C4612 1.524 . S
C4613 C4614 1.397 . S
C4613 C4618 1.363 . S
C4614 H4591 0.950 . S
C4614 C4613 1.397 . S
C4614 C4615 1.334 . S
C4615 H4592 0.950 . S
C4615 C4614 1.334 . S
C4615 C4616 1.287 . S
C4616 C4615 1.287 . S
C4616 C4617 1.524 . S
C4616 H4635 0.913 . S
C4617 H4593 0.950 . S
C4617 C4616 1.524 . S
C4617 C4618 1.415 . S
C4618 H4594 0.950 . S
C4618 C4613 1.363 . S
C4618 C4617 1.415 . S
C4619 H4595 0.951 . S
C4619 C4620 1.366 . S
C4619 C4621 1.388 . S
C4620 C4619 1.366 . S
C4620 C4624 1.385 . S
C4621 H4596 0.951 . S
C4621 C4619 1.388 . S
C4621 C4622 1.366 . S
C4622 C4621 1.366 . S
C4622 C4623 1.414 . S
C4622 C4625 1.499 . S
C4623 H4597 0.950 . S
C4623 C4622 1.414 . S
C4623 C4624 1.374 . S
C4624 H4598 0.950 . S
C4624 C4620 1.385 . S
C4624 C4623 1.374 . S
C4625 C4622 1.499 . S
C4625 C4626 1.373 . S
C4625 C4627 1.389 . S
C4626 H4599 0.950 . S
C4626 C4612 1.377 . S
C4626 C4625 1.373 . S
C4627 C4611 1.377 . S
C4627 C4625 1.389 . S
C4627 C4628 1.524 . S
C4628 C4627 1.524 . S
C4628 C4629 1.397 . S
C4628 C4633 1.363 . S
C4629 H4600 0.950 . S
C4629 C4628 1.397 . S
C4629 C4630 1.334 . S
C4630 H4601 0.950 . S
C4630 C4629 1.334 . S
C4630 C4631 1.287 . S
C4631 C4630 1.287 . S
C4631 C4632 1.524 . S
C4631 H4634 0.999 . S
C4632 H4602 0.950 . S
C4632 C4631 1.524 . S
C4632 C4633 1.415 . S
C4633 H4603 0.950 . S
C4633 C4628 1.363 . S
C4633 C4632 1.415 . S
H4634 C4631 0.999 . S
H4635 C4616 0.913 . S
H4636 C4654 0.951 . S
H4637 C4656 0.951 . S
H4638 C4658 0.950 . S
H4639 C4659 0.950 . S
H4640 C4661 0.950 . S
H4641 C4664 0.950 . S
H4642 C4665 0.950 . S
H4643 C4667 0.950 . S
H4644 C4668 0.950 . S
H4645 C4669 0.951 . S
H4646 C4671 0.951 . S
H4647 C4673 0.950 . S
H4648 C4674 0.950 . S
H4649 C4676 0.950 . S
H4650 C4679 0.950 . S
H4651 C4680 0.950 . S
H4652 C4682 0.950 . S
H4653 C4683 0.950 . S
C4654 H4636 0.951 . S
C4654 C4655 1.366 . S
C4654 C4656 1.388 . S
C4655 C4654 1.366 . S
C4655 C4659 1.385 . S
C4656 H4637 0.951 . S
C4656 C4654 1.388 . S
C4656 C4657 1.366 . S
C4657 C4656 1.366 . S
C4657 C4658 1.414 . S
C4657 C4660 1.499 . S
C4658 H4638 0.950 . S
C4658 C4657 1.414 . S
C4658 C4659 1.374 . S
C4659 H4639 0.950 . S
C4659 C4655 1.385 . S
C4659 C4658 1.374 . S
C4660 C4657 1.499 . S
C4660 C4661 1.373 . S
C4660 C4662 1.389 . S
C4661 H4640 0.950 . S
C4661 C4660 1.373 . S
C4661 C4677 1.377 . S
C4662 C4660 1.389 . S
C4662 C4663 1.524 . S
C4662 C4676 1.377 . S
C4663 C4662 1.524 . S
C4663 C4664 1.397 . S
C4663 C4668 1.363 . S
C4664 H4641 0.950 . S
C4664 C4663 1.397 . S
C4664 C4665 1.334 . S
C4665 H4642 0.950 . S
C4665 C4664 1.334 . S
C4665 C4666 1.287 . S
C4666 C4665 1.287 . S
C4666 C4667 1.524 . S
C4666 H4685 0.913 . S
C4667 H4643 0.950 . S
C4667 C4666 1.524 . S
C4667 C4668 1.415 . S
C4668 H4644 0.950 . S
C4668 C4663 1.363 . S
C4668 C4667 1.415 . S
C4669 H4645 0.951 . S
C4669 C4670 1.366 . S
C4669 C4671 1.388 . S
C4670 C4669 1.366 . S
C4670 C4674 1.385 . S
C4671 H4646 0.951 . S
C4671 C4669 1.388 . S
C4671 C4672 1.366 . S
C4672 C4671 1.366 . S
C4672 C4673 1.414 . S
C4672 C4675 1.499 . S
C4673 H4647 0.950 . S
C4673 C4672 1.414 . S
C4673 C4674 1.374 . S
C4674 H4648 0.950 . S
C4674 C4670 1.385 . S
C4674 C4673 1.374 . S
C4675 C4672 1.499 . S
C4675 C4676 1.373 . S
C4675 C4677 1.389 . S
C4676 H4649 0.950 . S
C4676 C4662 1.377 . S
C4676 C4675 1.373 . S
C4677 C4661 1.377 . S
C4677 C4675 1.389 . S
C4677 C4678 1.524 . S
C4678 C4677 1.524 . S
C4678 C4679 1.397 . S
C4678 C4683 1.363 . S
C4679 H4650 0.950 . S
C4679 C4678 1.397 . S
C4679 C4680 1.334 . S
C4680 H4651 0.950 . S
C4680 C4679 1.334 . S
C4680 C4681 1.287 . S
C4681 C4680 1.287 . S
C4681 C4682 1.524 . S
C4681 H4684 0.999 . S
C4682 H4652 0.950 . S
C4682 C4681 1.524 . S
C4682 C4683 1.415 . S
C4683 H4653 0.950 . S
C4683 C4678 1.363 . S
C4683 C4682 1.415 . S
H4684 C4681 0.999 . S
H4685 C4666 0.913 . S
H4686 C4704 0.951 . S
H4687 C4706 0.951 . S
H4688 C4708 0.950 . S
H4689 C4709 0.950 . S
H4690 C4711 0.950 . S
H4691 C4714 0.950 . S
H4692 C4715 0.950 . S
H4693 C4717 0.950 . S
H4694 C4718 0.950 . S
H4695 C4719 0.951 . S
H4696 C4721 0.951 . S
H4697 C4723 0.950 . S
H4698 C4724 0.950 . S
H4699 C4726 0.950 . S
H4700 C4729 0.950 . S
H4701 C4730 0.950 . S
H4702 C4732 0.950 . S
H4703 C4733 0.950 . S
C4704 H4686 0.951 . S
C4704 C4705 1.366 . S
C4704 C4706 1.388 . S
C4705 C4704 1.366 . S
C4705 C4709 1.385 . S
C4706 H4687 0.951 . S
C4706 C4704 1.388 . S
C4706 C4707 1.366 . S
C4707 C4706 1.366 . S
C4707 C4708 1.414 . S
C4707 C4710 1.499 . S
C4708 H4688 0.950 . S
C4708 C4707 1.414 . S
C4708 C4709 1.374 . S
C4709 H4689 0.950 . S
C4709 C4705 1.385 . S
C4709 C4708 1.374 . S
C4710 C4707 1.499 . S
C4710 C4711 1.373 . S
C4710 C4712 1.389 . S
C4711 H4690 0.950 . S
C4711 C4710 1.373 . S
C4711 C4727 1.377 . S
C4712 C4710 1.389 . S
C4712 C4713 1.524 . S
C4712 C4726 1.377 . S
C4713 C4712 1.524 . S
C4713 C4714 1.397 . S
C4713 C4718 1.363 . S
C4714 H4691 0.950 . S
C4714 C4713 1.397 . S
C4714 C4715 1.334 . S
C4715 H4692 0.950 . S
C4715 C4714 1.334 . S
C4715 C4716 1.287 . S
C4716 C4715 1.287 . S
C4716 C4717 1.524 . S
C4716 H4735 0.913 . S
C4717 H4693 0.950 . S
C4717 C4716 1.524 . S
C4717 C4718 1.415 . S
C4718 H4694 0.950 . S
C4718 C4713 1.363 . S
C4718 C4717 1.415 . S
C4719 H4695 0.951 . S
C4719 C4720 1.366 . S
C4719 C4721 1.388 . S
C4720 C4719 1.366 . S
C4720 C4724 1.385 . S
C4721 H4696 0.951 . S
C4721 C4719 1.388 . S
C4721 C4722 1.366 . S
C4722 C4721 1.366 . S
C4722 C4723 1.414 . S
C4722 C4725 1.499 . S
C4723 H4697 0.950 . S
C4723 C4722 1.414 . S
C4723 C4724 1.374 . S
C4724 H4698 0.950 . S
C4724 C4720 1.385 . S
C4724 C4723 1.374 . S
C4725 C4722 1.499 . S
C4725 C4726 1.373 . S
C4725 C4727 1.389 . S
C4726 H4699 0.950 . S
C4726 C4712 1.377 . S
C4726 C4725 1.373 . S
C4727 C4711 1.377 . S
C4727 C4725 1.389 . S
C4727 C4728 1.524 . S
C4728 C4727 1.524 . S
C4728 C4729 1.397 . S
C4728 C4733 1.363 . S
C4729 H4700 0.950 . S
C4729 C4728 1.397 . S
C4729 C4730 1.334 . S
C4730 H4701 0.950 . S
C4730 C4729 1.334 . S
C4730 C4731 1.287 . S
C4731 C4730 1.287 . S
C4731 C4732 1.524 . S
C4731 H4734 0.999 . S
C4732 H4702 0.950 . S
C4732 C4731 1.524 . S
C4732 C4733 1.415 . S
C4733 H4703 0.950 . S
C4733 C4728 1.363 . S
C4733 C4732 1.415 . S
H4734 C4731 0.999 . S
H4735 C4716 0.913 . S
H4736 C4754 0.951 . S
H4737 C4756 0.951 . S
H4738 C4758 0.950 . S
H4739 C4759 0.950 . S
H4740 C4761 0.950 . S
H4741 C4764 0.950 . S
H4742 C4765 0.950 . S
H4743 C4767 0.950 . S
H4744 C4768 0.950 . S
H4745 C4769 0.951 . S
H4746 C4771 0.951 . S
H4747 C4773 0.950 . S
H4748 C4774 0.950 . S
H4749 C4776 0.950 . S
H4750 C4779 0.950 . S
H4751 C4780 0.950 . S
H4752 C4782 0.950 . S
H4753 C4783 0.950 . S
C4754 H4736 0.951 . S
C4754 C4755 1.366 . S
C4754 C4756 1.388 . S
C4755 C4754 1.366 . S
C4755 C4759 1.385 . S
C4756 H4737 0.951 . S
C4756 C4754 1.388 . S
C4756 C4757 1.366 . S
C4757 C4756 1.366 . S
C4757 C4758 1.414 . S
C4757 C4760 1.499 . S
C4758 H4738 0.950 . S
C4758 C4757 1.414 . S
C4758 C4759 1.374 . S
C4759 H4739 0.950 . S
C4759 C4755 1.385 . S
C4759 C4758 1.374 . S
C4760 C4757 1.499 . S
C4760 C4761 1.373 . S
C4760 C4762 1.389 . S
C4761 H4740 0.950 . S
C4761 C4760 1.373 . S
C4761 C4777 1.377 . S
C4762 C4760 1.389 . S
C4762 C4763 1.524 . S
C4762 C4776 1.377 . S
C4763 C4762 1.524 . S
C4763 C4764 1.397 . S
C4763 C4768 1.363 . S
C4764 H4741 0.950 . S
C4764 C4763 1.397 . S
C4764 C4765 1.334 . S
C4765 H4742 0.950 . S
C4765 C4764 1.334 . S
C4765 C4766 1.287 . S
C4766 C4765 1.287 . S
C4766 C4767 1.524 . S
C4766 H4785 0.913 . S
C4767 H4743 0.950 . S
C4767 C4766 1.524 . S
C4767 C4768 1.415 . S
C4768 H4744 0.950 . S
C4768 C4763 1.363 . S
C4768 C4767 1.415 . S
C4769 H4745 0.951 . S
C4769 C4770 1.366 . S
C4769 C4771 1.388 . S
C4770 C4769 1.366 . S
C4770 C4774 1.385 . S
C4771 H4746 0.951 . S
C4771 C4769 1.388 . S
C4771 C4772 1.366 . S
C4772 C4771 1.366 . S
C4772 C4773 1.414 . S
C4772 C4775 1.499 . S
C4773 H4747 0.950 . S
C4773 C4772 1.414 . S
C4773 C4774 1.374 . S
C4774 H4748 0.950 . S
C4774 C4770 1.385 . S
C4774 C4773 1.374 . S
C4775 C4772 1.499 . S
C4775 C4776 1.373 . S
C4775 C4777 1.389 . S
C4776 H4749 0.950 . S
C4776 C4762 1.377 . S
C4776 C4775 1.373 . S
C4777 C4761 1.377 . S
C4777 C4775 1.389 . S
C4777 C4778 1.524 . S
C4778 C4777 1.524 . S
C4778 C4779 1.397 . S
C4778 C4783 1.363 . S
C4779 H4750 0.950 . S
C4779 C4778 1.397 . S
C4779 C4780 1.334 . S
C4780 H4751 0.950 . S
C4780 C4779 1.334 . S
C4780 C4781 1.287 . S
C4781 C4780 1.287 . S
C4781 C4782 1.524 . S
C4781 H4784 0.999 . S
C4782 H4752 0.950 . S
C4782 C4781 1.524 . S
C4782 C4783 1.415 . S
C4783 H4753 0.950 . S
C4783 C4778 1.363 . S
C4783 C4782 1.415 . S
H4784 C4781 0.999 . S
H4785 C4766 0.913 . S
H4786 C4804 0.951 . S
H4787 C4806 0.951 . S
H4788 C4808 0.950 . S
H4789 C4809 0.950 . S
H4790 C4811 0.950 . S
H4791 C4814 0.950 . S
H4792 C4815 0.950 . S
H4793 C4817 0.950 . S
H4794 C4818 0.950 . S
H4795 C4819 0.951 . S
H4796 C4821 0.951 . S
H4797 C4823 0.950 . S
H4798 C4824 0.950 . S
H4799 C4826 0.950 . S
H4800 C4829 0.950 . S
H4801 C4830 0.950 . S
H4802 C4832 0.950 . S
H4803 C4833 0.950 . S
C4804 H4786 0.951 . S
C4804 C4805 1.366 . S
C4804 C4806 1.388 . S
C4805 C4804 1.366 . S
C4805 C4809 1.385 . S
C4806 H4787 0.951 . S
C4806 C4804 1.388 . S
C4806 C4807 1.366 . S
C4807 C4806 1.366 . S
C4807 C4808 1.414 . S
C4807 C4810 1.499 . S
C4808 H4788 0.950 . S
C4808 C4807 1.414 . S
C4808 C4809 1.374 . S
C4809 H4789 0.950 . S
C4809 C4805 1.385 . S
C4809 C4808 1.374 . S
C4810 C4807 1.499 . S
C4810 C4811 1.373 . S
C4810 C4812 1.389 . S
C4811 H4790 0.950 . S
C4811 C4810 1.373 . S
C4811 C4827 1.377 . S
C4812 C4810 1.389 . S
C4812 C4813 1.524 . S
C4812 C4826 1.377 . S
C4813 C4812 1.524 . S
C4813 C4814 1.397 . S
C4813 C4818 1.363 . S
C4814 H4791 0.950 . S
C4814 C4813 1.397 . S
C4814 C4815 1.334 . S
C4815 H4792 0.950 . S
C4815 C4814 1.334 . S
C4815 C4816 1.287 . S
C4816 C4815 1.287 . S
C4816 C4817 1.524 . S
C4816 H4835 0.913 . S
C4817 H4793 0.950 . S
C4817 C4816 1.524 . S
C4817 C4818 1.415 . S
C4818 H4794 0.950 . S
C4818 C4813 1.363 . S
C4818 C4817 1.415 . S
C4819 H4795 0.951 . S
C4819 C4820 1.366 . S
C4819 C4821 1.388 . S
C4820 C4819 1.366 . S
C4820 C4824 1.385 . S
C4821 H4796 0.951 . S
C4821 C4819 1.388 . S
C4821 C4822 1.366 . S
C4822 C4821 1.366 . S
C4822 C4823 1.414 . S
C4822 C4825 1.499 . S
C4823 H4797 0.950 . S
C4823 C4822 1.414 . S
C4823 C4824 1.374 . S
C4824 H4798 0.950 . S
C4824 C4820 1.385 . S
C4824 C4823 1.374 . S
C4825 C4822 1.499 . S
C4825 C4826 1.373 . S
C4825 C4827 1.389 . S
C4826 H4799 0.950 . S
C4826 C4812 1.377 . S
C4826 C4825 1.373 . S
C4827 C4811 1.377 . S
C4827 C4825 1.389 . S
C4827 C4828 1.524 . S
C4828 C4827 1.524 . S
C4828 C4829 1.397 . S
C4828 C4833 1.363 . S
C4829 H4800 0.950 . S
C4829 C4828 1.397 . S
C4829 C4830 1.334 . S
C4830 H4801 0.950 . S
C4830 C4829 1.334 . S
C4830 C4831 1.287 . S
C4831 C4830 1.287 . S
C4831 C4832 1.524 . S
C4831 H4834 0.999 . S
C4832 H4802 0.950 . S
C4832 C4831 1.524 . S
C4832 C4833 1.415 . S
C4833 H4803 0.950 . S
C4833 C4828 1.363 . S
C4833 C4832 1.415 . S
H4834 C4831 0.999 . S
H4835 C4816 0.913 . S
H4836 C4854 0.951 . S
H4837 C4856 0.951 . S
H4838 C4858 0.950 . S
H4839 C4859 0.950 . S
H4840 C4861 0.950 . S
H4841 C4864 0.950 . S
H4842 C4865 0.950 . S
H4843 C4867 0.950 . S
H4844 C4868 0.950 . S
H4845 C4869 0.951 . S
H4846 C4871 0.951 . S
H4847 C4873 0.950 . S
H4848 C4874 0.950 . S
H4849 C4876 0.950 . S
H4850 C4879 0.950 . S
H4851 C4880 0.950 . S
H4852 C4882 0.950 . S
H4853 C4883 0.950 . S
C4854 H4836 0.951 . S
C4854 C4855 1.366 . S
C4854 C4856 1.388 . S
C4855 C4854 1.366 . S
C4855 C4859 1.385 . S
C4856 H4837 0.951 . S
C4856 C4854 1.388 . S
C4856 C4857 1.366 . S
C4857 C4856 1.366 . S
C4857 C4858 1.414 . S
C4857 C4860 1.499 . S
C4858 H4838 0.950 . S
C4858 C4857 1.414 . S
C4858 C4859 1.374 . S
C4859 H4839 0.950 . S
C4859 C4855 1.385 . S
C4859 C4858 1.374 . S
C4860 C4857 1.499 . S
C4860 C4861 1.373 . S
C4860 C4862 1.389 . S
C4861 H4840 0.950 . S
C4861 C4860 1.373 . S
C4861 C4877 1.377 . S
C4862 C4860 1.389 . S
C4862 C4863 1.524 . S
C4862 C4876 1.377 . S
C4863 C4862 1.524 . S
C4863 C4864 1.397 . S
C4863 C4868 1.363 . S
C4864 H4841 0.950 . S
C4864 C4863 1.397 . S
C4864 C4865 1.334 . S
C4865 H4842 0.950 . S
C4865 C4864 1.334 . S
C4865 C4866 1.287 . S
C4866 C4865 1.287 . S
C4866 C4867 1.524 . S
C4866 H4885 0.913 . S
C4867 H4843 0.950 . S
C4867 C4866 1.524 . S
C4867 C4868 1.415 . S
C4868 H4844 0.950 . S
C4868 C4863 1.363 . S
C4868 C4867 1.415 . S
C4869 H4845 0.951 . S
C4869 C4870 1.366 . S
C4869 C4871 1.388 . S
C4870 C4869 1.366 . S
C4870 C4874 1.385 . S
C4871 H4846 0.951 . S
C4871 C4869 1.388 . S
C4871 C4872 1.366 . S
C4872 C4871 1.366 . S
C4872 C4873 1.414 . S
C4872 C4875 1.499 . S
C4873 H4847 0.950 . S
C4873 C4872 1.414 . S
C4873 C4874 1.374 . S
C4874 H4848 0.950 . S
C4874 C4870 1.385 . S
C4874 C4873 1.374 . S
C4875 C4872 1.499 . S
C4875 C4876 1.373 . S
C4875 C4877 1.389 . S
C4876 H4849 0.950 . S
C4876 C4862 1.377 . S
C4876 C4875 1.373 . S
C4877 C4861 1.377 . S
C4877 C4875 1.389 . S
C4877 C4878 1.524 . S
C4878 C4877 1.524 . S
C4878 C4879 1.397 . S
C4878 C4883 1.363 . S
C4879 H4850 0.950 . S
C4879 C4878 1.397 . S
C4879 C4880 1.334 . S
C4880 H4851 0.950 . S
C4880 C4879 1.334 . S
C4880 C4881 1.287 . S
C4881 C4880 1.287 . S
C4881 C4882 1.524 . S
C4881 H4884 0.999 . S
C4882 H4852 0.950 . S
C4882 C4881 1.524 . S
C4882 C4883 1.415 . S
C4883 H4853 0.950 . S
C4883 C4878 1.363 . S
C4883 C4882 1.415 . S
H4884 C4881 0.999 . S
H4885 C4866 0.913 . S
H4886 C4904 0.951 . S
H4887 C4906 0.951 . S
H4888 C4908 0.950 . S
H4889 C4909 0.950 . S
H4890 C4911 0.950 . S
H4891 C4914 0.950 . S
H4892 C4915 0.950 . S
H4893 C4917 0.950 . S
H4894 C4918 0.950 . S
H4895 C4919 0.951 . S
H4896 C4921 0.951 . S
H4897 C4923 0.950 . S
H4898 C4924 0.950 . S
H4899 C4926 0.950 . S
H4900 C4929 0.950 . S
H4901 C4930 0.950 . S
H4902 C4932 0.950 . S
H4903 C4933 0.950 . S
C4904 H4886 0.951 . S
C4904 C4905 1.366 . S
C4904 C4906 1.388 . S
C4905 C4904 1.366 . S
C4905 C4909 1.385 . S
C4906 H4887 0.951 . S
C4906 C4904 1.388 . S
C4906 C4907 1.366 . S
C4907 C4906 1.366 . S
C4907 C4908 1.414 . S
C4907 C4910 1.499 . S
C4908 H4888 0.950 . S
C4908 C4907 1.414 . S
C4908 C4909 1.374 . S
C4909 H4889 0.950 . S
C4909 C4905 1.385 . S
C4909 C4908 1.374 . S
C4910 C4907 1.499 . S
C4910 C4911 1.373 . S
C4910 C4912 1.389 . S
C4911 H4890 0.950 . S
C4911 C4910 1.373 . S
C4911 C4927 1.377 . S
C4912 C4910 1.389 . S
C4912 C4913 1.524 . S
C4912 C4926 1.377 . S
C4913 C4912 1.524 . S
C4913 C4914 1.397 . S
C4913 C4918 1.363 . S
C4914 H4891 0.950 . S
C4914 C4913 1.397 . S
C4914 C4915 1.334 . S
C4915 H4892 0.950 . S
C4915 C4914 1.334 . S
C4915 C4916 1.287 . S
C4916 C4915 1.287 . S
C4916 C4917 1.524 . S
C4916 H4935 0.913 . S
C4917 H4893 0.950 . S
C4917 C4916 1.524 . S
C4917 C4918 1.415 . S
C4918 H4894 0.950 . S
C4918 C4913 1.363 . S
C4918 C4917 1.415 . S
C4919 H4895 0.951 . S
C4919 C4920 1.366 . S
C4919 C4921 1.388 . S
C4920 C4919 1.366 . S
C4920 C4924 1.385 . S
C4921 H4896 0.951 . S
C4921 C4919 1.388 . S
C4921 C4922 1.366 . S
C4922 C4921 1.366 . S
C4922 C4923 1.414 . S
C4922 C4925 1.499 . S
C4923 H4897 0.950 . S
C4923 C4922 1.414 . S
C4923 C4924 1.374 . S
C4924 H4898 0.950 . S
C4924 C4920 1.385 . S
C4924 C4923 1.374 . S
C4925 C4922 1.499 . S
C4925 C4926 1.373 . S
C4925 C4927 1.389 . S
C4926 H4899 0.950 . S
C4926 C4912 1.377 . S
C4926 C4925 1.373 . S
C4927 C4911 1.377 . S
C4927 C4925 1.389 . S
C4927 C4928 1.524 . S
C4928 C4927 1.524 . S
C4928 C4929 1.397 . S
C4928 C4933 1.363 . S
C4929 H4900 0.950 . S
C4929 C4928 1.397 . S
C4929 C4930 1.334 . S
C4930 H4901 0.950 . S
C4930 C4929 1.334 . S
C4930 C4931 1.287 . S
C4931 C4930 1.287 . S
C4931 C4932 1.524 . S
C4931 H4934 0.999 . S
C4932 H4902 0.950 . S
C4932 C4931 1.524 . S
C4932 C4933 1.415 . S
C4933 H4903 0.950 . S
C4933 C4928 1.363 . S
C4933 C4932 1.415 . S
H4934 C4931 0.999 . S
H4935 C4916 0.913 . S
H4936 C4954 0.951 . S
H4937 C4956 0.951 . S
H4938 C4958 0.950 . S
H4939 C4959 0.950 . S
H4940 C4961 0.950 . S
H4941 C4964 0.950 . S
H4942 C4965 0.950 . S
H4943 C4967 0.950 . S
H4944 C4968 0.950 . S
H4945 C4969 0.951 . S
H4946 C4971 0.951 . S
H4947 C4973 0.950 . S
H4948 C4974 0.950 . S
H4949 C4976 0.950 . S
H4950 C4979 0.950 . S
H4951 C4980 0.950 . S
H4952 C4982 0.950 . S
H4953 C4983 0.950 . S
C4954 H4936 0.951 . S
C4954 C4955 1.366 . S
C4954 C4956 1.388 . S
C4955 C4954 1.366 . S
C4955 C4959 1.385 . S
C4956 H4937 0.951 . S
C4956 C4954 1.388 . S
C4956 C4957 1.366 . S
C4957 C4956 1.366 . S
C4957 C4958 1.414 . S
C4957 C4960 1.499 . S
C4958 H4938 0.950 . S
C4958 C4957 1.414 . S
C4958 C4959 1.374 . S
C4959 H4939 0.950 . S
C4959 C4955 1.385 . S
C4959 C4958 1.374 . S
C4960 C4957 1.499 . S
C4960 C4961 1.373 . S
C4960 C4962 1.389 . S
C4961 H4940 0.950 . S
C4961 C4960 1.373 . S
C4961 C4977 1.377 . S
C4962 C4960 1.389 . S
C4962 C4963 1.524 . S
C4962 C4976 1.377 . S
C4963 C4962 1.524 . S
C4963 C4964 1.397 . S
C4963 C4968 1.363 . S
C4964 H4941 0.950 . S
C4964 C4963 1.397 . S
C4964 C4965 1.334 . S
C4965 H4942 0.950 . S
C4965 C4964 1.334 . S
C4965 C4966 1.287 . S
C4966 C4965 1.287 . S
C4966 C4967 1.524 . S
C4966 H4985 0.913 . S
C4967 H4943 0.950 . S
C4967 C4966 1.524 . S
C4967 C4968 1.415 . S
C4968 H4944 0.950 . S
C4968 C4963 1.363 . S
C4968 C4967 1.415 . S
C4969 H4945 0.951 . S
C4969 C4970 1.366 . S
C4969 C4971 1.388 . S
C4970 C4969 1.366 . S
C4970 C4974 1.385 . S
C4971 H4946 0.951 . S
C4971 C4969 1.388 . S
C4971 C4972 1.366 . S
C4972 C4971 1.366 . S
C4972 C4973 1.414 . S
C4972 C4975 1.499 . S
C4973 H4947 0.950 . S
C4973 C4972 1.414 . S
C4973 C4974 1.374 . S
C4974 H4948 0.950 . S
C4974 C4970 1.385 . S
C4974 C4973 1.374 . S
C4975 C4972 1.499 . S
C4975 C4976 1.373 . S
C4975 C4977 1.389 . S
C4976 H4949 0.950 . S
C4976 C4962 1.377 . S
C4976 C4975 1.373 . S
C4977 C4961 1.377 . S
C4977 C4975 1.389 . S
C4977 C4978 1.524 . S
C4978 C4977 1.524 . S
C4978 C4979 1.397 . S
C4978 C4983 1.363 . S
C4979 H4950 0.950 . S
C4979 C4978 1.397 . S
C4979 C4980 1.334 . S
C4980 H4951 0.950 . S
C4980 C4979 1.334 . S
C4980 C4981 1.287 . S
C4981 C4980 1.287 . S
C4981 C4982 1.524 . S
C4981 H4984 0.999 . S
C4982 H4952 0.950 . S
C4982 C4981 1.524 . S
C4982 C4983 1.415 . S
C4983 H4953 0.950 . S
C4983 C4978 1.363 . S
C4983 C4982 1.415 . S
H4984 C4981 0.999 . S
H4985 C4966 0.913 . S
H4986 C5004 0.951 . S
H4987 C5006 0.951 . S
H4988 C5008 0.950 . S
H4989 C5009 0.950 . S
H4990 C5011 0.950 . S
H4991 C5014 0.950 . S
H4992 C5015 0.950 . S
H4993 C5017 0.950 . S
H4994 C5018 0.950 . S
H4995 C5019 0.951 . S
H4996 C5021 0.951 . S
H4997 C5023 0.950 . S
H4998 C5024 0.950 . S
H4999 C5026 0.950 . S
H5000 C5029 0.950 . S
H5001 C5030 0.950 . S
H5002 C5032 0.950 . S
H5003 C5033 0.950 . S
C5004 H4986 0.951 . S
C5004 C5005 1.366 . S
C5004 C5006 1.388 . S
C5005 C5004 1.366 . S
C5005 C5009 1.385 . S
C5006 H4987 0.951 . S
C5006 C5004 1.388 . S
C5006 C5007 1.366 . S
C5007 C5006 1.366 . S
C5007 C5008 1.414 . S
C5007 C5010 1.499 . S
C5008 H4988 0.950 . S
C5008 C5007 1.414 . S
C5008 C5009 1.374 . S
C5009 H4989 0.950 . S
C5009 C5005 1.385 . S
C5009 C5008 1.374 . S
C5010 C5007 1.499 . S
C5010 C5011 1.373 . S
C5010 C5012 1.389 . S
C5011 H4990 0.950 . S
C5011 C5010 1.373 . S
C5011 C5027 1.377 . S
C5012 C5010 1.389 . S
C5012 C5013 1.524 . S
C5012 C5026 1.377 . S
C5013 C5012 1.524 . S
C5013 C5014 1.397 . S
C5013 C5018 1.363 . S
C5014 H4991 0.950 . S
C5014 C5013 1.397 . S
C5014 C5015 1.334 . S
C5015 H4992 0.950 . S
C5015 C5014 1.334 . S
C5015 C5016 1.287 . S
C5016 C5015 1.287 . S
C5016 C5017 1.524 . S
C5016 H5035 0.913 . S
C5017 H4993 0.950 . S
C5017 C5016 1.524 . S
C5017 C5018 1.415 . S
C5018 H4994 0.950 . S
C5018 C5013 1.363 . S
C5018 C5017 1.415 . S
C5019 H4995 0.951 . S
C5019 C5020 1.366 . S
C5019 C5021 1.388 . S
C5020 C5019 1.366 . S
C5020 C5024 1.385 . S
C5021 H4996 0.951 . S
C5021 C5019 1.388 . S
C5021 C5022 1.366 . S
C5022 C5021 1.366 . S
C5022 C5023 1.414 . S
C5022 C5025 1.499 . S
C5023 H4997 0.950 . S
C5023 C5022 1.414 . S
C5023 C5024 1.374 . S
C5024 H4998 0.950 . S
C5024 C5020 1.385 . S
C5024 C5023 1.374 . S
C5025 C5022 1.499 . S
C5025 C5026 1.373 . S
C5025 C5027 1.389 . S
C5026 H4999 0.950 . S
C5026 C5012 1.377 . S
C5026 C5025 1.373 . S
C5027 C5011 1.377 . S
C5027 C5025 1.389 . S
C5027 C5028 1.524 . S
C5028 C5027 1.524 . S
C5028 C5029 1.397 . S
C5028 C5033 1.363 . S
C5029 H5000 0.950 . S
C5029 C5028 1.397 . S
C5029 C5030 1.334 . S
C5030 H5001 0.950 . S
C5030 C5029 1.334 . S
C5030 C5031 1.287 . S
C5031 C5030 1.287 . S
C5031 C5032 1.524 . S
C5031 H5034 0.999 . S
C5032 H5002 0.950 . S
C5032 C5031 1.524 . S
C5032 C5033 1.415 . S
C5033 H5003 0.950 . S
C5033 C5028 1.363 . S
C5033 C5032 1.415 . S
H5034 C5031 0.999 . S
H5035 C5016 0.913 . S
H5036 C5054 0.951 . S
H5037 C5056 0.951 . S
H5038 C5058 0.950 . S
H5039 C5059 0.950 . S
H5040 C5061 0.950 . S
H5041 C5064 0.950 . S
H5042 C5065 0.950 . S
H5043 C5067 0.950 . S
H5044 C5068 0.950 . S
H5045 C5069 0.951 . S
H5046 C5071 0.951 . S
H5047 C5073 0.950 . S
H5048 C5074 0.950 . S
H5049 C5076 0.950 . S
H5050 C5079 0.950 . S
H5051 C5080 0.950 . S
H5052 C5082 0.950 . S
H5053 C5083 0.950 . S
C5054 H5036 0.951 . S
C5054 C5055 1.366 . S
C5054 C5056 1.388 . S
C5055 C5054 1.366 . S
C5055 C5059 1.385 . S
C5056 H5037 0.951 . S
C5056 C5054 1.388 . S
C5056 C5057 1.366 . S
C5057 C5056 1.366 . S
C5057 C5058 1.414 . S
C5057 C5060 1.499 . S
C5058 H5038 0.950 . S
C5058 C5057 1.414 . S
C5058 C5059 1.374 . S
C5059 H5039 0.950 . S
C5059 C5055 1.385 . S
C5059 C5058 1.374 . S
C5060 C5057 1.499 . S
C5060 C5061 1.373 . S
C5060 C5062 1.389 . S
C5061 H5040 0.950 . S
C5061 C5060 1.373 . S
C5061 C5077 1.377 . S
C5062 C5060 1.389 . S
C5062 C5063 1.524 . S
C5062 C5076 1.377 . S
C5063 C5062 1.524 . S
C5063 C5064 1.397 . S
C5063 C5068 1.363 . S
C5064 H5041 0.950 . S
C5064 C5063 1.397 . S
C5064 C5065 1.334 . S
C5065 H5042 0.950 . S
C5065 C5064 1.334 . S
C5065 C5066 1.287 . S
C5066 C5065 1.287 . S
C5066 C5067 1.524 . S
C5066 H5085 0.913 . S
C5067 H5043 0.950 . S
C5067 C5066 1.524 . S
C5067 C5068 1.415 . S
C5068 H5044 0.950 . S
C5068 C5063 1.363 . S
C5068 C5067 1.415 . S
C5069 H5045 0.951 . S
C5069 C5070 1.366 . S
C5069 C5071 1.388 . S
C5070 C5069 1.366 . S
C5070 C5074 1.385 . S
C5071 H5046 0.951 . S
C5071 C5069 1.388 . S
C5071 C5072 1.366 . S
C5072 C5071 1.366 . S
C5072 C5073 1.414 . S
C5072 C5075 1.499 . S
C5073 H5047 0.950 . S
C5073 C5072 1.414 . S
C5073 C5074 1.374 . S
C5074 H5048 0.950 . S
C5074 C5070 1.385 . S
C5074 C5073 1.374 . S
C5075 C5072 1.499 . S
C5075 C5076 1.373 . S
C5075 C5077 1.389 . S
C5076 H5049 0.950 . S
C5076 C5062 1.377 . S
C5076 C5075 1.373 . S
C5077 C5061 1.377 . S
C5077 C5075 1.389 . S
C5077 C5078 1.524 . S
C5078 C5077 1.524 . S
C5078 C5079 1.397 . S
C5078 C5083 1.363 . S
C5079 H5050 0.950 . S
C5079 C5078 1.397 . S
C5079 C5080 1.334 . S
C5080 H5051 0.950 . S
C5080 C5079 1.334 . S
C5080 C5081 1.287 . S
C5081 C5080 1.287 . S
C5081 C5082 1.524 . S
C5081 H5084 0.999 . S
C5082 H5052 0.950 . S
C5082 C5081 1.524 . S
C5082 C5083 1.415 . S
C5083 H5053 0.950 . S
C5083 C5078 1.363 . S
C5083 C5082 1.415 . S
H5084 C5081 0.999 . S
H5085 C5066 0.913 . S
H5086 C5104 0.951 . S
H5087 C5106 0.951 . S
H5088 C5108 0.950 . S
H5089 C5109 0.950 . S
H5090 C5111 0.950 . S
H5091 C5114 0.950 . S
H5092 C5115 0.950 . S
H5093 C5117 0.950 . S
H5094 C5118 0.950 . S
H5095 C5119 0.951 . S
H5096 C5121 0.951 . S
H5097 C5123 0.950 . S
H5098 C5124 0.950 . S
H5099 C5126 0.950 . S
H5100 C5129 0.950 . S
H5101 C5130 0.950 . S
H5102 C5132 0.950 . S
H5103 C5133 0.950 . S
C5104 H5086 0.951 . S
C5104 C5105 1.366 . S
C5104 C5106 1.388 . S
C5105 C5104 1.366 . S
C5105 C5109 1.385 . S
C5106 H5087 0.951 . S
C5106 C5104 1.388 . S
C5106 C5107 1.366 . S
C5107 C5106 1.366 . S
C5107 C5108 1.414 . S
C5107 C5110 1.499 . S
C5108 H5088 0.950 . S
C5108 C5107 1.414 . S
C5108 C5109 1.374 . S
C5109 H5089 0.950 . S
C5109 C5105 1.385 . S
C5109 C5108 1.374 . S
C5110 C5107 1.499 . S
C5110 C5111 1.373 . S
C5110 C5112 1.389 . S
C5111 H5090 0.950 . S
C5111 C5110 1.373 . S
C5111 C5127 1.377 . S
C5112 C5110 1.389 . S
C5112 C5113 1.524 . S
C5112 C5126 1.377 . S
C5113 C5112 1.524 . S
C5113 C5114 1.397 . S
C5113 C5118 1.363 . S
C5114 H5091 0.950 . S
C5114 C5113 1.397 . S
C5114 C5115 1.334 . S
C5115 H5092 0.950 . S
C5115 C5114 1.334 . S
C5115 C5116 1.287 . S
C5116 C5115 1.287 . S
C5116 C5117 1.524 . S
C5116 H5135 0.913 . S
C5117 H5093 0.950 . S
C5117 C5116 1.524 . S
C5117 C5118 1.415 . S
C5118 H5094 0.950 . S
C5118 C5113 1.363 . S
C5118 C5117 1.415 . S
C5119 H5095 0.951 . S
C5119 C5120 1.366 . S
C5119 C5121 1.388 . S
C5120 C5119 1.366 . S
C5120 C5124 1.385 . S
C5121 H5096 0.951 . S
C5121 C5119 1.388 . S
C5121 C5122 1.366 . S
C5122 C5121 1.366 . S
C5122 C5123 1.414 . S
C5122 C5125 1.499 . S
C5123 H5097 0.950 . S
C5123 C5122 1.414 . S
C5123 C5124 1.374 . S
C5124 H5098 0.950 . S
C5124 C5120 1.385 . S
C5124 C5123 1.374 . S
C5125 C5122 1.499 . S
C5125 C5126 1.373 . S
C5125 C5127 1.389 . S
C5126 H5099 0.950 . S
C5126 C5112 1.377 . S
C5126 C5125 1.373 . S
C5127 C5111 1.377 . S
C5127 C5125 1.389 . S
C5127 C5128 1.524 . S
C5128 C5127 1.524 . S
C5128 C5129 1.397 . S
C5128 C5133 1.363 . S
C5129 H5100 0.950 . S
C5129 C5128 1.397 . S
C5129 C5130 1.334 . S
C5130 H5101 0.950 . S
C5130 C5129 1.334 . S
C5130 C5131 1.287 . S
C5131 C5130 1.287 . S
C5131 C5132 1.524 . S
C5131 H5134 0.999 . S
C5132 H5102 0.950 . S
C5132 C5131 1.524 . S
C5132 C5133 1.415 . S
C5133 H5103 0.950 . S
C5133 C5128 1.363 . S
C5133 C5132 1.415 . S
H5134 C5131 0.999 . S
H5135 C5116 0.913 . S
H5136 C5154 0.951 . S
H5137 C5156 0.951 . S
H5138 C5158 0.950 . S
H5139 C5159 0.950 . S
H5140 C5161 0.950 . S
H5141 C5164 0.950 . S
H5142 C5165 0.950 . S
H5143 C5167 0.950 . S
H5144 C5168 0.950 . S
H5145 C5169 0.951 . S
H5146 C5171 0.951 . S
H5147 C5173 0.950 . S
H5148 C5174 0.950 . S
H5149 C5176 0.950 . S
H5150 C5179 0.950 . S
H5151 C5180 0.950 . S
H5152 C5182 0.950 . S
H5153 C5183 0.950 . S
C5154 H5136 0.951 . S
C5154 C5155 1.366 . S
C5154 C5156 1.388 . S
C5155 C5154 1.366 . S
C5155 C5159 1.385 . S
C5156 H5137 0.951 . S
C5156 C5154 1.388 . S
C5156 C5157 1.366 . S
C5157 C5156 1.366 . S
C5157 C5158 1.414 . S
C5157 C5160 1.499 . S
C5158 H5138 0.950 . S
C5158 C5157 1.414 . S
C5158 C5159 1.374 . S
C5159 H5139 0.950 . S
C5159 C5155 1.385 . S
C5159 C5158 1.374 . S
C5160 C5157 1.499 . S
C5160 C5161 1.373 . S
C5160 C5162 1.389 . S
C5161 H5140 0.950 . S
C5161 C5160 1.373 . S
C5161 C5177 1.377 . S
C5162 C5160 1.389 . S
C5162 C5163 1.524 . S
C5162 C5176 1.377 . S
C5163 C5162 1.524 . S
C5163 C5164 1.397 . S
C5163 C5168 1.363 . S
C5164 H5141 0.950 . S
C5164 C5163 1.397 . S
C5164 C5165 1.334 . S
C5165 H5142 0.950 . S
C5165 C5164 1.334 . S
C5165 C5166 1.287 . S
C5166 C5165 1.287 . S
C5166 C5167 1.524 . S
C5166 H5185 0.913 . S
C5167 H5143 0.950 . S
C5167 C5166 1.524 . S
C5167 C5168 1.415 . S
C5168 H5144 0.950 . S
C5168 C5163 1.363 . S
C5168 C5167 1.415 . S
C5169 H5145 0.951 . S
C5169 C5170 1.366 . S
C5169 C5171 1.388 . S
C5170 C5169 1.366 . S
C5170 C5174 1.385 . S
C5171 H5146 0.951 . S
C5171 C5169 1.388 . S
C5171 C5172 1.366 . S
C5172 C5171 1.366 . S
C5172 C5173 1.414 . S
C5172 C5175 1.499 . S
C5173 H5147 0.950 . S
C5173 C5172 1.414 . S
C5173 C5174 1.374 . S
C5174 H5148 0.950 . S
C5174 C5170 1.385 . S
C5174 C5173 1.374 . S
C5175 C5172 1.499 . S
C5175 C5176 1.373 . S
C5175 C5177 1.389 . S
C5176 H5149 0.950 . S
C5176 C5162 1.377 . S
C5176 C5175 1.373 . S
C5177 C5161 1.377 . S
C5177 C5175 1.389 . S
C5177 C5178 1.524 . S
C5178 C5177 1.524 . S
C5178 C5179 1.397 . S
C5178 C5183 1.363 . S
C5179 H5150 0.950 . S
C5179 C5178 1.397 . S
C5179 C5180 1.334 . S
C5180 H5151 0.950 . S
C5180 C5179 1.334 . S
C5180 C5181 1.287 . S
C5181 C5180 1.287 . S
C5181 C5182 1.524 . S
C5181 H5184 0.999 . S
C5182 H5152 0.950 . S
C5182 C5181 1.524 . S
C5182 C5183 1.415 . S
C5183 H5153 0.950 . S
C5183 C5178 1.363 . S
C5183 C5182 1.415 . S
H5184 C5181 0.999 . S
H5185 C5166 0.913 . S
H5186 C5204 0.951 . S
H5187 C5206 0.951 . S
H5188 C5208 0.950 . S
H5189 C5209 0.950 . S
H5190 C5211 0.950 . S
H5191 C5214 0.950 . S
H5192 C5215 0.950 . S
H5193 C5217 0.950 . S
H5194 C5218 0.950 . S
H5195 C5219 0.951 . S
H5196 C5221 0.951 . S
H5197 C5223 0.950 . S
H5198 C5224 0.950 . S
H5199 C5226 0.950 . S
H5200 C5229 0.950 . S
H5201 C5230 0.950 . S
H5202 C5232 0.950 . S
H5203 C5233 0.950 . S
C5204 H5186 0.951 . S
C5204 C5205 1.366 . S
C5204 C5206 1.388 . S
C5205 C5204 1.366 . S
C5205 C5209 1.385 . S
C5206 H5187 0.951 . S
C5206 C5204 1.388 . S
C5206 C5207 1.366 . S
C5207 C5206 1.366 . S
C5207 C5208 1.414 . S
C5207 C5210 1.499 . S
C5208 H5188 0.950 . S
C5208 C5207 1.414 . S
C5208 C5209 1.374 . S
C5209 H5189 0.950 . S
C5209 C5205 1.385 . S
C5209 C5208 1.374 . S
C5210 C5207 1.499 . S
C5210 C5211 1.373 . S
C5210 C5212 1.389 . S
C5211 H5190 0.950 . S
C5211 C5210 1.373 . S
C5211 C5227 1.377 . S
C5212 C5210 1.389 . S
C5212 C5213 1.524 . S
C5212 C5226 1.377 . S
C5213 C5212 1.524 . S
C5213 C5214 1.397 . S
C5213 C5218 1.363 . S
C5214 H5191 0.950 . S
C5214 C5213 1.397 . S
C5214 C5215 1.334 . S
C5215 H5192 0.950 . S
C5215 C5214 1.334 . S
C5215 C5216 1.287 . S
C5216 C5215 1.287 . S
C5216 C5217 1.524 . S
C5216 H5235 0.913 . S
C5217 H5193 0.950 . S
C5217 C5216 1.524 . S
C5217 C5218 1.415 . S
C5218 H5194 0.950 . S
C5218 C5213 1.363 . S
C5218 C5217 1.415 . S
C5219 H5195 0.951 . S
C5219 C5220 1.366 . S
C5219 C5221 1.388 . S
C5220 C5219 1.366 . S
C5220 C5224 1.385 . S
C5221 H5196 0.951 . S
C5221 C5219 1.388 . S
C5221 C5222 1.366 . S
C5222 C5221 1.366 . S
C5222 C5223 1.414 . S
C5222 C5225 1.499 . S
C5223 H5197 0.950 . S
C5223 C5222 1.414 . S
C5223 C5224 1.374 . S
C5224 H5198 0.950 . S
C5224 C5220 1.385 . S
C5224 C5223 1.374 . S
C5225 C5222 1.499 . S
C5225 C5226 1.373 . S
C5225 C5227 1.389 . S
C5226 H5199 0.950 . S
C5226 C5212 1.377 . S
C5226 C5225 1.373 . S
C5227 C5211 1.377 . S
C5227 C5225 1.389 . S
C5227 C5228 1.524 . S
C5228 C5227 1.524 . S
C5228 C5229 1.397 . S
C5228 C5233 1.363 . S
C5229 H5200 0.950 . S
C5229 C5228 1.397 . S
C5229 C5230 1.334 . S
C5230 H5201 0.950 . S
C5230 C5229 1.334 . S
C5230 C5231 1.287 . S
C5231 C5230 1.287 . S
C5231 C5232 1.524 . S
C5231 H5234 0.999 . S
C5232 H5202 0.950 . S
C5232 C5231 1.524 . S
C5232 C5233 1.415 . S
C5233 H5203 0.950 . S
C5233 C5228 1.363 . S
C5233 C5232 1.415 . S
H5234 C5231 0.999 . S
H5235 C5216 0.913 . S
H5236 C5254 0.951 . S
H5237 C5256 0.951 . S
H5238 C5258 0.950 . S
H5239 C5259 0.950 . S
H5240 C5261 0.950 . S
H5241 C5264 0.950 . S
H5242 C5265 0.950 . S
H5243 C5267 0.950 . S
H5244 C5268 0.950 . S
H5245 C5269 0.951 . S
H5246 C5271 0.951 . S
H5247 C5273 0.950 . S
H5248 C5274 0.950 . S
H5249 C5276 0.950 . S
H5250 C5279 0.950 . S
H5251 C5280 0.950 . S
H5252 C5282 0.950 . S
H5253 C5283 0.950 . S
C5254 H5236 0.951 . S
C5254 C5255 1.366 . S
C5254 C5256 1.388 . S
C5255 C5254 1.366 . S
C5255 C5259 1.385 . S
C5256 H5237 0.951 . S
C5256 C5254 1.388 . S
C5256 C5257 1.366 . S
C5257 C5256 1.366 . S
C5257 C5258 1.414 . S
C5257 C5260 1.499 . S
C5258 H5238 0.950 . S
C5258 C5257 1.414 . S
C5258 C5259 1.374 . S
C5259 H5239 0.950 . S
C5259 C5255 1.385 . S
C5259 C5258 1.374 . S
C5260 C5257 1.499 . S
C5260 C5261 1.373 . S
C5260 C5262 1.389 . S
C5261 H5240 0.950 . S
C5261 C5260 1.373 . S
C5261 C5277 1.377 . S
C5262 C5260 1.389 . S
C5262 C5263 1.524 . S
C5262 C5276 1.377 . S
C5263 C5262 1.524 . S
C5263 C5264 1.397 . S
C5263 C5268 1.363 . S
C5264 H5241 0.950 . S
C5264 C5263 1.397 . S
C5264 C5265 1.334 . S
C5265 H5242 0.950 . S
C5265 C5264 1.334 . S
C5265 C5266 1.287 . S
C5266 C5265 1.287 . S
C5266 C5267 1.524 . S
C5266 H5285 0.913 . S
C5267 H5243 0.950 . S
C5267 C5266 1.524 . S
C5267 C5268 1.415 . S
C5268 H5244 0.950 . S
C5268 C5263 1.363 . S
C5268 C5267 1.415 . S
C5269 H5245 0.951 . S
C5269 C5270 1.366 . S
C5269 C5271 1.388 . S
C5270 C5269 1.366 . S
C5270 C5274 1.385 . S
C5271 H5246 0.951 . S
C5271 C5269 1.388 . S
C5271 C5272 1.366 . S
C5272 C5271 1.366 . S
C5272 C5273 1.414 . S
C5272 C5275 1.499 . S
C5273 H5247 0.950 . S
C5273 C5272 1.414 . S
C5273 C5274 1.374 . S
C5274 H5248 0.950 . S
C5274 C5270 1.385 . S
C5274 C5273 1.374 . S
C5275 C5272 1.499 . S
C5275 C5276 1.373 . S
C5275 C5277 1.389 . S
C5276 H5249 0.950 . S
C5276 C5262 1.377 . S
C5276 C5275 1.373 . S
C5277 C5261 1.377 . S
C5277 C5275 1.389 . S
C5277 C5278 1.524 . S
C5278 C5277 1.524 . S
C5278 C5279 1.397 . S
C5278 C5283 1.363 . S
C5279 H5250 0.950 . S
C5279 C5278 1.397 . S
C5279 C5280 1.334 . S
C5280 H5251 0.950 . S
C5280 C5279 1.334 . S
C5280 C5281 1.287 . S
C5281 C5280 1.287 . S
C5281 C5282 1.524 . S
C5281 H5284 0.999 . S
C5282 H5252 0.950 . S
C5282 C5281 1.524 . S
C5282 C5283 1.415 . S
C5283 H5253 0.950 . S
C5283 C5278 1.363 . S
C5283 C5282 1.415 . S
H5284 C5281 0.999 . S
H5285 C5266 0.913 . S
H5286 C5304 0.951 . S
H5287 C5306 0.951 . S
H5288 C5308 0.950 . S
H5289 C5309 0.950 . S
H5290 C5311 0.950 . S
H5291 C5314 0.950 . S
H5292 C5315 0.950 . S
H5293 C5317 0.950 . S
H5294 C5318 0.950 . S
H5295 C5319 0.951 . S
H5296 C5321 0.951 . S
H5297 C5323 0.950 . S
H5298 C5324 0.950 . S
H5299 C5326 0.950 . S
H5300 C5329 0.950 . S
H5301 C5330 0.950 . S
H5302 C5332 0.950 . S
H5303 C5333 0.950 . S
C5304 H5286 0.951 . S
C5304 C5305 1.366 . S
C5304 C5306 1.388 . S
C5305 C5304 1.366 . S
C5305 C5309 1.385 . S
C5306 H5287 0.951 . S
C5306 C5304 1.388 . S
C5306 C5307 1.366 . S
C5307 C5306 1.366 . S
C5307 C5308 1.414 . S
C5307 C5310 1.499 . S
C5308 H5288 0.950 . S
C5308 C5307 1.414 . S
C5308 C5309 1.374 . S
C5309 H5289 0.950 . S
C5309 C5305 1.385 . S
C5309 C5308 1.374 . S
C5310 C5307 1.499 . S
C5310 C5311 1.373 . S
C5310 C5312 1.389 . S
C5311 H5290 0.950 . S
C5311 C5310 1.373 . S
C5311 C5327 1.377 . S
C5312 C5310 1.389 . S
C5312 C5313 1.524 . S
C5312 C5326 1.377 . S
C5313 C5312 1.524 . S
C5313 C5314 1.397 . S
C5313 C5318 1.363 . S
C5314 H5291 0.950 . S
C5314 C5313 1.397 . S
C5314 C5315 1.334 . S
C5315 H5292 0.950 . S
C5315 C5314 1.334 . S
C5315 C5316 1.287 . S
C5316 C5315 1.287 . S
C5316 C5317 1.524 . S
C5316 H5335 0.913 . S
C5317 H5293 0.950 . S
C5317 C5316 1.524 . S
C5317 C5318 1.415 . S
C5318 H5294 0.950 . S
C5318 C5313 1.363 . S
C5318 C5317 1.415 . S
C5319 H5295 0.951 . S
C5319 C5320 1.366 . S
C5319 C5321 1.388 . S
C5320 C5319 1.366 . S
C5320 C5324 1.385 . S
C5321 H5296 0.951 . S
C5321 C5319 1.388 . S
C5321 C5322 1.366 . S
C5322 C5321 1.366 . S
C5322 C5323 1.414 . S
C5322 C5325 1.499 . S
C5323 H5297 0.950 . S
C5323 C5322 1.414 . S
C5323 C5324 1.374 . S
C5324 H5298 0.950 . S
C5324 C5320 1.385 . S
C5324 C5323 1.374 . S
C5325 C5322 1.499 . S
C5325 C5326 1.373 . S
C5325 C5327 1.389 . S
C5326 H5299 0.950 . S
C5326 C5312 1.377 . S
C5326 C5325 1.373 . S
C5327 C5311 1.377 . S
C5327 C5325 1.389 . S
C5327 C5328 1.524 . S
C5328 C5327 1.524 . S
C5328 C5329 1.397 . S
C5328 C5333 1.363 . S
C5329 H5300 0.950 . S
C5329 C5328 1.397 . S
C5329 C5330 1.334 . S
C5330 H5301 0.950 . S
C5330 C5329 1.334 . S
C5330 C5331 1.287 . S
C5331 C5330 1.287 . S
C5331 C5332 1.524 . S
C5331 H5334 0.999 . S
C5332 H5302 0.950 . S
C5332 C5331 1.524 . S
C5332 C5333 1.415 . S
C5333 H5303 0.950 . S
C5333 C5328 1.363 . S
C5333 C5332 1.415 . S
H5334 C5331 0.999 . S
H5335 C5316 0.913 . S
H5336 C5354 0.951 . S
H5337 C5356 0.951 . S
H5338 C5358 0.950 . S
H5339 C5359 0.950 . S
H5340 C5361 0.950 . S
H5341 C5364 0.950 . S
H5342 C5365 0.950 . S
H5343 C5367 0.950 . S
H5344 C5368 0.950 . S
H5345 C5369 0.951 . S
H5346 C5371 0.951 . S
H5347 C5373 0.950 . S
H5348 C5374 0.950 . S
H5349 C5376 0.950 . S
H5350 C5379 0.950 . S
H5351 C5380 0.950 . S
H5352 C5382 0.950 . S
H5353 C5383 0.950 . S
C5354 H5336 0.951 . S
C5354 C5355 1.366 . S
C5354 C5356 1.388 . S
C5355 C5354 1.366 . S
C5355 C5359 1.385 . S
C5356 H5337 0.951 . S
C5356 C5354 1.388 . S
C5356 C5357 1.366 . S
C5357 C5356 1.366 . S
C5357 C5358 1.414 . S
C5357 C5360 1.499 . S
C5358 H5338 0.950 . S
C5358 C5357 1.414 . S
C5358 C5359 1.374 . S
C5359 H5339 0.950 . S
C5359 C5355 1.385 . S
C5359 C5358 1.374 . S
C5360 C5357 1.499 . S
C5360 C5361 1.373 . S
C5360 C5362 1.389 . S
C5361 H5340 0.950 . S
C5361 C5360 1.373 . S
C5361 C5377 1.377 . S
C5362 C5360 1.389 . S
C5362 C5363 1.524 . S
C5362 C5376 1.377 . S
C5363 C5362 1.524 . S
C5363 C5364 1.397 . S
C5363 C5368 1.363 . S
C5364 H5341 0.950 . S
C5364 C5363 1.397 . S
C5364 C5365 1.334 . S
C5365 H5342 0.950 . S
C5365 C5364 1.334 . S
C5365 C5366 1.287 . S
C5366 C5365 1.287 . S
C5366 C5367 1.524 . S
C5366 H5385 0.913 . S
C5367 H5343 0.950 . S
C5367 C5366 1.524 . S
C5367 C5368 1.415 . S
C5368 H5344 0.950 . S
C5368 C5363 1.363 . S
C5368 C5367 1.415 . S
C5369 H5345 0.951 . S
C5369 C5370 1.366 . S
C5369 C5371 1.388 . S
C5370 C5369 1.366 . S
C5370 C5374 1.385 . S
C5371 H5346 0.951 . S
C5371 C5369 1.388 . S
C5371 C5372 1.366 . S
C5372 C5371 1.366 . S
C5372 C5373 1.414 . S
C5372 C5375 1.499 . S
C5373 H5347 0.950 . S
C5373 C5372 1.414 . S
C5373 C5374 1.374 . S
C5374 H5348 0.950 . S
C5374 C5370 1.385 . S
C5374 C5373 1.374 . S
C5375 C5372 1.499 . S
C5375 C5376 1.373 . S
C5375 C5377 1.389 . S
C5376 H5349 0.950 . S
C5376 C5362 1.377 . S
C5376 C5375 1.373 . S
C5377 C5361 1.377 . S
C5377 C5375 1.389 . S
C5377 C5378 1.524 . S
C5378 C5377 1.524 . S
C5378 C5379 1.397 . S
C5378 C5383 1.363 . S
C5379 H5350 0.950 . S
C5379 C5378 1.397 . S
C5379 C5380 1.334 . S
C5380 H5351 0.950 . S
C5380 C5379 1.334 . S
C5380 C5381 1.287 . S
C5381 C5380 1.287 . S
C5381 C5382 1.524 . S
C5381 H5384 0.999 . S
C5382 H5352 0.950 . S
C5382 C5381 1.524 . S
C5382 C5383 1.415 . S
C5383 H5353 0.950 . S
C5383 C5378 1.363 . S
C5383 C5382 1.415 . S
H5384 C5381 0.999 . S
H5385 C5366 0.913 . S
H5386 C5404 0.951 . S
H5387 C5406 0.951 . S
H5388 C5408 0.950 . S
H5389 C5409 0.950 . S
H5390 C5411 0.950 . S
H5391 C5414 0.950 . S
H5392 C5415 0.950 . S
H5393 C5417 0.950 . S
H5394 C5418 0.950 . S
H5395 C5419 0.951 . S
H5396 C5421 0.951 . S
H5397 C5423 0.950 . S
H5398 C5424 0.950 . S
H5399 C5426 0.950 . S
H5400 C5429 0.950 . S
H5401 C5430 0.950 . S
H5402 C5432 0.950 . S
H5403 C5433 0.950 . S
C5404 H5386 0.951 . S
C5404 C5405 1.366 . S
C5404 C5406 1.388 . S
C5405 C5404 1.366 . S
C5405 C5409 1.385 . S
C5406 H5387 0.951 . S
C5406 C5404 1.388 . S
C5406 C5407 1.366 . S
C5407 C5406 1.366 . S
C5407 C5408 1.414 . S
C5407 C5410 1.499 . S
C5408 H5388 0.950 . S
C5408 C5407 1.414 . S
C5408 C5409 1.374 . S
C5409 H5389 0.950 . S
C5409 C5405 1.385 . S
C5409 C5408 1.374 . S
C5410 C5407 1.499 . S
C5410 C5411 1.373 . S
C5410 C5412 1.389 . S
C5411 H5390 0.950 . S
C5411 C5410 1.373 . S
C5411 C5427 1.377 . S
C5412 C5410 1.389 . S
C5412 C5413 1.524 . S
C5412 C5426 1.377 . S
C5413 C5412 1.524 . S
C5413 C5414 1.397 . S
C5413 C5418 1.363 . S
C5414 H5391 0.950 . S
C5414 C5413 1.397 . S
C5414 C5415 1.334 . S
C5415 H5392 0.950 . S
C5415 C5414 1.334 . S
C5415 C5416 1.287 . S
C5416 C5415 1.287 . S
C5416 C5417 1.524 . S
C5416 H5435 0.913 . S
C5417 H5393 0.950 . S
C5417 C5416 1.524 . S
C5417 C5418 1.415 . S
C5418 H5394 0.950 . S
C5418 C5413 1.363 . S
C5418 C5417 1.415 . S
C5419 H5395 0.951 . S
C5419 C5420 1.366 . S
C5419 C5421 1.388 . S
C5420 C5419 1.366 . S
C5420 C5424 1.385 . S
C5421 H5396 0.951 . S
C5421 C5419 1.388 . S
C5421 C5422 1.366 . S
C5422 C5421 1.366 . S
C5422 C5423 1.414 . S
C5422 C5425 1.499 . S
C5423 H5397 0.950 . S
C5423 C5422 1.414 . S
C5423 C5424 1.374 . S
C5424 H5398 0.950 . S
C5424 C5420 1.385 . S
C5424 C5423 1.374 . S
C5425 C5422 1.499 . S
C5425 C5426 1.373 . S
C5425 C5427 1.389 . S
C5426 H5399 0.950 . S
C5426 C5412 1.377 . S
C5426 C5425 1.373 . S
C5427 C5411 1.377 . S
C5427 C5425 1.389 . S
C5427 C5428 1.524 . S
C5428 C5427 1.524 . S
C5428 C5429 1.397 . S
C5428 C5433 1.363 . S
C5429 H5400 0.950 . S
C5429 C5428 1.397 . S
C5429 C5430 1.334 . S
C5430 H5401 0.950 . S
C5430 C5429 1.334 . S
C5430 C5431 1.287 . S
C5431 C5430 1.287 . S
C5431 C5432 1.524 . S
C5431 H5434 0.999 . S
C5432 H5402 0.950 . S
C5432 C5431 1.524 . S
C5432 C5433 1.415 . S
C5433 H5403 0.950 . S
C5433 C5428 1.363 . S
C5433 C5432 1.415 . S
H5434 C5431 0.999 . S
H5435 C5416 0.913 . S
H5436 C5454 0.951 . S
H5437 C5456 0.951 . S
H5438 C5458 0.950 . S
H5439 C5459 0.950 . S
H5440 C5461 0.950 . S
H5441 C5464 0.950 . S
H5442 C5465 0.950 . S
H5443 C5467 0.950 . S
H5444 C5468 0.950 . S
H5445 C5469 0.951 . S
H5446 C5471 0.951 . S
H5447 C5473 0.950 . S
H5448 C5474 0.950 . S
H5449 C5476 0.950 . S
H5450 C5479 0.950 . S
H5451 C5480 0.950 . S
H5452 C5482 0.950 . S
H5453 C5483 0.950 . S
C5454 H5436 0.951 . S
C5454 C5455 1.366 . S
C5454 C5456 1.388 . S
C5455 C5454 1.366 . S
C5455 C5459 1.385 . S
C5456 H5437 0.951 . S
C5456 C5454 1.388 . S
C5456 C5457 1.366 . S
C5457 C5456 1.366 . S
C5457 C5458 1.414 . S
C5457 C5460 1.499 . S
C5458 H5438 0.950 . S
C5458 C5457 1.414 . S
C5458 C5459 1.374 . S
C5459 H5439 0.950 . S
C5459 C5455 1.385 . S
C5459 C5458 1.374 . S
C5460 C5457 1.499 . S
C5460 C5461 1.373 . S
C5460 C5462 1.389 . S
C5461 H5440 0.950 . S
C5461 C5460 1.373 . S
C5461 C5477 1.377 . S
C5462 C5460 1.389 . S
C5462 C5463 1.524 . S
C5462 C5476 1.377 . S
C5463 C5462 1.524 . S
C5463 C5464 1.397 . S
C5463 C5468 1.363 . S
C5464 H5441 0.950 . S
C5464 C5463 1.397 . S
C5464 C5465 1.334 . S
C5465 H5442 0.950 . S
C5465 C5464 1.334 . S
C5465 C5466 1.287 . S
C5466 C5465 1.287 . S
C5466 C5467 1.524 . S
C5466 H5485 0.913 . S
C5467 H5443 0.950 . S
C5467 C5466 1.524 . S
C5467 C5468 1.415 . S
C5468 H5444 0.950 . S
C5468 C5463 1.363 . S
C5468 C5467 1.415 . S
C5469 H5445 0.951 . S
C5469 C5470 1.366 . S
C5469 C5471 1.388 . S
C5470 C5469 1.366 . S
C5470 C5474 1.385 . S
C5471 H5446 0.951 . S
C5471 C5469 1.388 . S
C5471 C5472 1.366 . S
C5472 C5471 1.366 . S
C5472 C5473 1.414 . S
C5472 C5475 1.499 . S
C5473 H5447 0.950 . S
C5473 C5472 1.414 . S
C5473 C5474 1.374 . S
C5474 H5448 0.950 . S
C5474 C5470 1.385 . S
C5474 C5473 1.374 . S
C5475 C5472 1.499 . S
C5475 C5476 1.373 . S
C5475 C5477 1.389 . S
C5476 H5449 0.950 . S
C5476 C5462 1.377 . S
C5476 C5475 1.373 . S
C5477 C5461 1.377 . S
C5477 C5475 1.389 . S
C5477 C5478 1.524 . S
C5478 C5477 1.524 . S
C5478 C5479 1.397 . S
C5478 C5483 1.363 . S
C5479 H5450 0.950 . S
C5479 C5478 1.397 . S
C5479 C5480 1.334 . S
C5480 H5451 0.950 . S
C5480 C5479 1.334 . S
C5480 C5481 1.287 . S
C5481 C5480 1.287 . S
C5481 C5482 1.524 . S
C5481 H5484 0.999 . S
C5482 H5452 0.950 . S
C5482 C5481 1.524 . S
C5482 C5483 1.415 . S
C5483 H5453 0.950 . S
C5483 C5478 1.363 . S
C5483 C5482 1.415 . S
H5484 C5481 0.999 . S
H5485 C5466 0.913 . S
H5486 C5504 0.951 . S
H5487 C5506 0.951 . S
H5488 C5508 0.950 . S
H5489 C5509 0.950 . S
H5490 C5511 0.950 . S
H5491 C5514 0.950 . S
H5492 C5515 0.950 . S
H5493 C5517 0.950 . S
H5494 C5518 0.950 . S
H5495 C5519 0.951 . S
H5496 C5521 0.951 . S
H5497 C5523 0.950 . S
H5498 C5524 0.950 . S
H5499 C5526 0.950 . S
H5500 C5529 0.950 . S
H5501 C5530 0.950 . S
H5502 C5532 0.950 . S
H5503 C5533 0.950 . S
C5504 H5486 0.951 . S
C5504 C5505 1.366 . S
C5504 C5506 1.388 . S
C5505 C5504 1.366 . S
C5505 C5509 1.385 . S
C5506 H5487 0.951 . S
C5506 C5504 1.388 . S
C5506 C5507 1.366 . S
C5507 C5506 1.366 . S
C5507 C5508 1.414 . S
C5507 C5510 1.499 . S
C5508 H5488 0.950 . S
C5508 C5507 1.414 . S
C5508 C5509 1.374 . S
C5509 H5489 0.950 . S
C5509 C5505 1.385 . S
C5509 C5508 1.374 . S
C5510 C5507 1.499 . S
C5510 C5511 1.373 . S
C5510 C5512 1.389 . S
C5511 H5490 0.950 . S
C5511 C5510 1.373 . S
C5511 C5527 1.377 . S
C5512 C5510 1.389 . S
C5512 C5513 1.524 . S
C5512 C5526 1.377 . S
C5513 C5512 1.524 . S
C5513 C5514 1.397 . S
C5513 C5518 1.363 . S
C5514 H5491 0.950 . S
C5514 C5513 1.397 . S
C5514 C5515 1.334 . S
C5515 H5492 0.950 . S
C5515 C5514 1.334 . S
C5515 C5516 1.287 . S
C5516 C5515 1.287 . S
C5516 C5517 1.524 . S
C5516 H5535 0.913 . S
C5517 H5493 0.950 . S
C5517 C5516 1.524 . S
C5517 C5518 1.415 . S
C5518 H5494 0.950 . S
C5518 C5513 1.363 . S
C5518 C5517 1.415 . S
C5519 H5495 0.951 . S
C5519 C5520 1.366 . S
C5519 C5521 1.388 . S
C5520 C5519 1.366 . S
C5520 C5524 1.385 . S
C5521 H5496 0.951 . S
C5521 C5519 1.388 . S
C5521 C5522 1.366 . S
C5522 C5521 1.366 . S
C5522 C5523 1.414 . S
C5522 C5525 1.499 . S
C5523 H5497 0.950 . S
C5523 C5522 1.414 . S
C5523 C5524 1.374 . S
C5524 H5498 0.950 . S
C5524 C5520 1.385 . S
C5524 C5523 1.374 . S
C5525 C5522 1.499 . S
C5525 C5526 1.373 . S
C5525 C5527 1.389 . S
C5526 H5499 0.950 . S
C5526 C5512 1.377 . S
C5526 C5525 1.373 . S
C5527 C5511 1.377 . S
C5527 C5525 1.389 . S
C5527 C5528 1.524 . S
C5528 C5527 1.524 . S
C5528 C5529 1.397 . S
C5528 C5533 1.363 . S
C5529 H5500 0.950 . S
C5529 C5528 1.397 . S
C5529 C5530 1.334 . S
C5530 H5501 0.950 . S
C5530 C5529 1.334 . S
C5530 C5531 1.287 . S
C5531 C5530 1.287 . S
C5531 C5532 1.524 . S
C5531 H5534 0.999 . S
C5532 H5502 0.950 . S
C5532 C5531 1.524 . S
C5532 C5533 1.415 . S
C5533 H5503 0.950 . S
C5533 C5528 1.363 . S
C5533 C5532 1.415 . S
H5534 C5531 0.999 . S
H5535 C5516 0.913 . S
H5536 C5554 0.951 . S
H5537 C5556 0.951 . S
H5538 C5558 0.950 . S
H5539 C5559 0.950 . S
H5540 C5561 0.950 . S
H5541 C5564 0.950 . S
H5542 C5565 0.950 . S
H5543 C5567 0.950 . S
H5544 C5568 0.950 . S
H5545 C5569 0.951 . S
H5546 C5571 0.951 . S
H5547 C5573 0.950 . S
H5548 C5574 0.950 . S
H5549 C5576 0.950 . S
H5550 C5579 0.950 . S
H5551 C5580 0.950 . S
H5552 C5582 0.950 . S
H5553 C5583 0.950 . S
C5554 H5536 0.951 . S
C5554 C5555 1.366 . S
C5554 C5556 1.388 . S
C5555 C5554 1.366 . S
C5555 C5559 1.385 . S
C5556 H5537 0.951 . S
C5556 C5554 1.388 . S
C5556 C5557 1.366 . S
C5557 C5556 1.366 . S
C5557 C5558 1.414 . S
C5557 C5560 1.499 . S
C5558 H5538 0.950 . S
C5558 C5557 1.414 . S
C5558 C5559 1.374 . S
C5559 H5539 0.950 . S
C5559 C5555 1.385 . S
C5559 C5558 1.374 . S
C5560 C5557 1.499 . S
C5560 C5561 1.373 . S
C5560 C5562 1.389 . S
C5561 H5540 0.950 . S
C5561 C5560 1.373 . S
C5561 C5577 1.377 . S
C5562 C5560 1.389 . S
C5562 C5563 1.524 . S
C5562 C5576 1.377 . S
C5563 C5562 1.524 . S
C5563 C5564 1.397 . S
C5563 C5568 1.363 . S
C5564 H5541 0.950 . S
C5564 C5563 1.397 . S
C5564 C5565 1.334 . S
C5565 H5542 0.950 . S
C5565 C5564 1.334 . S
C5565 C5566 1.287 . S
C5566 C5565 1.287 . S
C5566 C5567 1.524 . S
C5566 H5585 0.913 . S
C5567 H5543 0.950 . S
C5567 C5566 1.524 . S
C5567 C5568 1.415 . S
C5568 H5544 0.950 . S
C5568 C5563 1.363 . S
C5568 C5567 1.415 . S
C5569 H5545 0.951 . S
C5569 C5570 1.366 . S
C5569 C5571 1.388 . S
C5570 C5569 1.366 . S
C5570 C5574 1.385 . S
C5571 H5546 0.951 . S
C5571 C5569 1.388 . S
C5571 C5572 1.366 . S
C5572 C5571 1.366 . S
C5572 C5573 1.414 . S
C5572 C5575 1.499 . S
C5573 H5547 0.950 . S
C5573 C5572 1.414 . S
C5573 C5574 1.374 . S
C5574 H5548 0.950 . S
C5574 C5570 1.385 . S
C5574 C5573 1.374 . S
C5575 C5572 1.499 . S
C5575 C5576 1.373 . S
C5575 C5577 1.389 . S
C5576 H5549 0.950 . S
C5576 C5562 1.377 . S
C5576 C5575 1.373 . S
C5577 C5561 1.377 . S
C5577 C5575 1.389 . S
C5577 C5578 1.524 . S
C5578 C5577 1.524 . S
C5578 C5579 1.397 . S
C5578 C5583 1.363 . S
C5579 H5550 0.950 . S
C5579 C5578 1.397 . S
C5579 C5580 1.334 . S
C5580 H5551 0.950 . S
C5580 C5579 1.334 . S
C5580 C5581 1.287 . S
C5581 C5580 1.287 . S
C5581 C5582 1.524 . S
C5581 H5584 0.999 . S
C5582 H5552 0.950 . S
C5582 C5581 1.524 . S
C5582 C5583 1.415 . S
C5583 H5553 0.950 . S
C5583 C5578 1.363 . S
C5583 C5582 1.415 . S
H5584 C5581 0.999 . S
H5585 C5566 0.913 . S
H5586 C5604 0.951 . S
H5587 C5606 0.951 . S
H5588 C5608 0.950 . S
H5589 C5609 0.950 . S
H5590 C5611 0.950 . S
H5591 C5614 0.950 . S
H5592 C5615 0.950 . S
H5593 C5617 0.950 . S
H5594 C5618 0.950 . S
H5595 C5619 0.951 . S
H5596 C5621 0.951 . S
H5597 C5623 0.950 . S
H5598 C5624 0.950 . S
H5599 C5626 0.950 . S
H5600 C5629 0.950 . S
H5601 C5630 0.950 . S
H5602 C5632 0.950 . S
H5603 C5633 0.950 . S
C5604 H5586 0.951 . S
C5604 C5605 1.366 . S
C5604 C5606 1.388 . S
C5605 C5604 1.366 . S
C5605 C5609 1.385 . S
C5606 H5587 0.951 . S
C5606 C5604 1.388 . S
C5606 C5607 1.366 . S
C5607 C5606 1.366 . S
C5607 C5608 1.414 . S
C5607 C5610 1.499 . S
C5608 H5588 0.950 . S
C5608 C5607 1.414 . S
C5608 C5609 1.374 . S
C5609 H5589 0.950 . S
C5609 C5605 1.385 . S
C5609 C5608 1.374 . S
C5610 C5607 1.499 . S
C5610 C5611 1.373 . S
C5610 C5612 1.389 . S
C5611 H5590 0.950 . S
C5611 C5610 1.373 . S
C5611 C5627 1.377 . S
C5612 C5610 1.389 . S
C5612 C5613 1.524 . S
C5612 C5626 1.377 . S
C5613 C5612 1.524 . S
C5613 C5614 1.397 . S
C5613 C5618 1.363 . S
C5614 H5591 0.950 . S
C5614 C5613 1.397 . S
C5614 C5615 1.334 . S
C5615 H5592 0.950 . S
C5615 C5614 1.334 . S
C5615 C5616 1.287 . S
C5616 C5615 1.287 . S
C5616 C5617 1.524 . S
C5616 H5635 0.913 . S
C5617 H5593 0.950 . S
C5617 C5616 1.524 . S
C5617 C5618 1.415 . S
C5618 H5594 0.950 . S
C5618 C5613 1.363 . S
C5618 C5617 1.415 . S
C5619 H5595 0.951 . S
C5619 C5620 1.366 . S
C5619 C5621 1.388 . S
C5620 C5619 1.366 . S
C5620 C5624 1.385 . S
C5621 H5596 0.951 . S
C5621 C5619 1.388 . S
C5621 C5622 1.366 . S
C5622 C5621 1.366 . S
C5622 C5623 1.414 . S
C5622 C5625 1.499 . S
C5623 H5597 0.950 . S
C5623 C5622 1.414 . S
C5623 C5624 1.374 . S
C5624 H5598 0.950 . S
C5624 C5620 1.385 . S
C5624 C5623 1.374 . S
C5625 C5622 1.499 . S
C5625 C5626 1.373 . S
C5625 C5627 1.389 . S
C5626 H5599 0.950 . S
C5626 C5612 1.377 . S
C5626 C5625 1.373 . S
C5627 C5611 1.377 . S
C5627 C5625 1.389 . S
C5627 C5628 1.524 . S
C5628 C5627 1.524 . S
C5628 C5629 1.397 . S
C5628 C5633 1.363 . S
C5629 H5600 0.950 . S
C5629 C5628 1.397 . S
C5629 C5630 1.334 . S
C5630 H5601 0.950 . S
C5630 C5629 1.334 . S
C5630 C5631 1.287 . S
C5631 C5630 1.287 . S
C5631 C5632 1.524 . S
C5631 H5634 0.999 . S
C5632 H5602 0.950 . S
C5632 C5631 1.524 . S
C5632 C5633 1.415 . S
C5633 H5603 0.950 . S
C5633 C5628 1.363 . S
C5633 C5632 1.415 . S
H5634 C5631 0.999 . S
H5635 C5616 0.913 . S
H5636 C5654 0.951 . S
H5637 C5656 0.951 . S
H5638 C5658 0.950 . S
H5639 C5659 0.950 . S
H5640 C5661 0.950 . S
H5641 C5664 0.950 . S
H5642 C5665 0.950 . S
H5643 C5667 0.950 . S
H5644 C5668 0.950 . S
H5645 C5669 0.951 . S
H5646 C5671 0.951 . S
H5647 C5673 0.950 . S
H5648 C5674 0.950 . S
H5649 C5676 0.950 . S
H5650 C5679 0.950 . S
H5651 C5680 0.950 . S
H5652 C5682 0.950 . S
H5653 C5683 0.950 . S
C5654 H5636 0.951 . S
C5654 C5655 1.366 . S
C5654 C5656 1.388 . S
C5655 C5654 1.366 . S
C5655 C5659 1.385 . S
C5656 H5637 0.951 . S
C5656 C5654 1.388 . S
C5656 C5657 1.366 . S
C5657 C5656 1.366 . S
C5657 C5658 1.414 . S
C5657 C5660 1.499 . S
C5658 H5638 0.950 . S
C5658 C5657 1.414 . S
C5658 C5659 1.374 . S
C5659 H5639 0.950 . S
C5659 C5655 1.385 . S
C5659 C5658 1.374 . S
C5660 C5657 1.499 . S
C5660 C5661 1.373 . S
C5660 C5662 1.389 . S
C5661 H5640 0.950 . S
C5661 C5660 1.373 . S
C5661 C5677 1.377 . S
C5662 C5660 1.389 . S
C5662 C5663 1.524 . S
C5662 C5676 1.377 . S
C5663 C5662 1.524 . S
C5663 C5664 1.397 . S
C5663 C5668 1.363 . S
C5664 H5641 0.950 . S
C5664 C5663 1.397 . S
C5664 C5665 1.334 . S
C5665 H5642 0.950 . S
C5665 C5664 1.334 . S
C5665 C5666 1.287 . S
C5666 C5665 1.287 . S
C5666 C5667 1.524 . S
C5666 H5685 0.913 . S
C5667 H5643 0.950 . S
C5667 C5666 1.524 . S
C5667 C5668 1.415 . S
C5668 H5644 0.950 . S
C5668 C5663 1.363 . S
C5668 C5667 1.415 . S
C5669 H5645 0.951 . S
C5669 C5670 1.366 . S
C5669 C5671 1.388 . S
C5670 C5669 1.366 . S
C5670 C5674 1.385 . S
C5671 H5646 0.951 . S
C5671 C5669 1.388 . S
C5671 C5672 1.366 . S
C5672 C5671 1.366 . S
C5672 C5673 1.414 . S
C5672 C5675 1.499 . S
C5673 H5647 0.950 . S
C5673 C5672 1.414 . S
C5673 C5674 1.374 . S
C5674 H5648 0.950 . S
C5674 C5670 1.385 . S
C5674 C5673 1.374 . S
C5675 C5672 1.499 . S
C5675 C5676 1.373 . S
C5675 C5677 1.389 . S
C5676 H5649 0.950 . S
C5676 C5662 1.377 . S
C5676 C5675 1.373 . S
C5677 C5661 1.377 . S
C5677 C5675 1.389 . S
C5677 C5678 1.524 . S
C5678 C5677 1.524 . S
C5678 C5679 1.397 . S
C5678 C5683 1.363 . S
C5679 H5650 0.950 . S
C5679 C5678 1.397 . S
C5679 C5680 1.334 . S
C5680 H5651 0.950 . S
C5680 C5679 1.334 . S
C5680 C5681 1.287 . S
C5681 C5680 1.287 . S
C5681 C5682 1.524 . S
C5681 H5684 0.999 . S
C5682 H5652 0.950 . S
C5682 C5681 1.524 . S
C5682 C5683 1.415 . S
C5683 H5653 0.950 . S
C5683 C5678 1.363 . S
C5683 C5682 1.415 . S
H5684 C5681 0.999 . S
H5685 C5666 0.913 . S
H5686 C5704 0.951 . S
H5687 C5706 0.951 . S
H5688 C5708 0.950 . S
H5689 C5709 0.950 . S
H5690 C5711 0.950 . S
H5691 C5714 0.950 . S
H5692 C5715 0.950 . S
H5693 C5717 0.950 . S
H5694 C5718 0.950 . S
H5695 C5719 0.951 . S
H5696 C5721 0.951 . S
H5697 C5723 0.950 . S
H5698 C5724 0.950 . S
H5699 C5726 0.950 . S
H5700 C5729 0.950 . S
H5701 C5730 0.950 . S
H5702 C5732 0.950 . S
H5703 C5733 0.950 . S
C5704 H5686 0.951 . S
C5704 C5705 1.366 . S
C5704 C5706 1.388 . S
C5705 C5704 1.366 . S
C5705 C5709 1.385 . S
C5706 H5687 0.951 . S
C5706 C5704 1.388 . S
C5706 C5707 1.366 . S
C5707 C5706 1.366 . S
C5707 C5708 1.414 . S
C5707 C5710 1.499 . S
C5708 H5688 0.950 . S
C5708 C5707 1.414 . S
C5708 C5709 1.374 . S
C5709 H5689 0.950 . S
C5709 C5705 1.385 . S
C5709 C5708 1.374 . S
C5710 C5707 1.499 . S
C5710 C5711 1.373 . S
C5710 C5712 1.389 . S
C5711 H5690 0.950 . S
C5711 C5710 1.373 . S
C5711 C5727 1.377 . S
C5712 C5710 1.389 . S
C5712 C5713 1.524 . S
C5712 C5726 1.377 . S
C5713 C5712 1.524 . S
C5713 C5714 1.397 . S
C5713 C5718 1.363 . S
C5714 H5691 0.950 . S
C5714 C5713 1.397 . S
C5714 C5715 1.334 . S
C5715 H5692 0.950 . S
C5715 C5714 1.334 . S
C5715 C5716 1.287 . S
C5716 C5715 1.287 . S
C5716 C5717 1.524 . S
C5716 H5735 0.913 . S
C5717 H5693 0.950 . S
C5717 C5716 1.524 . S
C5717 C5718 1.415 . S
C5718 H5694 0.950 . S
C5718 C5713 1.363 . S
C5718 C5717 1.415 . S
C5719 H5695 0.951 . S
C5719 C5720 1.366 . S
C5719 C5721 1.388 . S
C5720 C5719 1.366 . S
C5720 C5724 1.385 . S
C5721 H5696 0.951 . S
C5721 C5719 1.388 . S
C5721 C5722 1.366 . S
C5722 C5721 1.366 . S
C5722 C5723 1.414 . S
C5722 C5725 1.499 . S
C5723 H5697 0.950 . S
C5723 C5722 1.414 . S
C5723 C5724 1.374 . S
C5724 H5698 0.950 . S
C5724 C5720 1.385 . S
C5724 C5723 1.374 . S
C5725 C5722 1.499 . S
C5725 C5726 1.373 . S
C5725 C5727 1.389 . S
C5726 H5699 0.950 . S
C5726 C5712 1.377 . S
C5726 C5725 1.373 . S
C5727 C5711 1.377 . S
C5727 C5725 1.389 . S
C5727 C5728 1.524 . S
C5728 C5727 1.524 . S
C5728 C5729 1.397 . S
C5728 C5733 1.363 . S
C5729 H5700 0.950 . S
C5729 C5728 1.397 . S
C5729 C5730 1.334 . S
C5730 H5701 0.950 . S
C5730 C5729 1.334 . S
C5730 C5731 1.287 . S
C5731 C5730 1.287 . S
C5731 C5732 1.524 . S
C5731 H5734 0.999 . S
C5732 H5702 0.950 . S
C5732 C5731 1.524 . S
C5732 C5733 1.415 . S
C5733 H5703 0.950 . S
C5733 C5728 1.363 . S
C5733 C5732 1.415 . S
H5734 C5731 0.999 . S
H5735 C5716 0.913 . S
H5736 C5754 0.951 . S
H5737 C5756 0.951 . S
H5738 C5758 0.950 . S
H5739 C5759 0.950 . S
H5740 C5761 0.950 . S
H5741 C5764 0.950 . S
H5742 C5765 0.950 1_554 S
H5743 C5767 0.950 . S
H5744 C5768 0.950 . S
H5745 C5769 0.951 . S
H5746 C5771 0.951 . S
H5747 C5773 0.950 . S
H5748 C5774 0.950 . S
H5749 C5776 0.950 . S
H5750 C5779 0.950 . S
H5751 C5780 0.950 . S
H5752 C5782 0.950 . S
H5753 C5783 0.950 . S
C5754 H5736 0.951 . S
C5754 C5755 1.366 . S
C5754 C5756 1.388 . S
C5755 C5754 1.366 . S
C5755 C5759 1.385 . S
C5756 H5737 0.951 . S
C5756 C5754 1.388 . S
C5756 C5757 1.366 . S
C5757 C5756 1.366 . S
C5757 C5758 1.414 . S
C5757 C5760 1.499 . S
C5758 H5738 0.950 . S
C5758 C5757 1.414 . S
C5758 C5759 1.374 . S
C5759 H5739 0.950 . S
C5759 C5755 1.385 . S
C5759 C5758 1.374 . S
C5760 C5757 1.499 . S
C5760 C5761 1.373 . S
C5760 C5762 1.389 . S
C5761 H5740 0.950 . S
C5761 C5760 1.373 . S
C5761 C5777 1.377 . S
C5762 C5760 1.389 . S
C5762 C5763 1.524 . S
C5762 C5776 1.377 . S
C5763 C5762 1.524 . S
C5763 C5764 1.397 . S
C5763 C5768 1.363 . S
C5764 H5741 0.950 . S
C5764 C5763 1.397 . S
C5764 C5765 1.334 . S
C5765 H5742 0.950 1_556 S
C5765 C5764 1.334 . S
C5765 C5766 1.287 1_556 S
C5766 C5765 1.287 1_554 S
C5766 C5767 1.524 1_554 S
C5766 H5785 0.913 . S
C5767 H5743 0.950 . S
C5767 C5766 1.524 1_556 S
C5767 C5768 1.415 . S
C5768 H5744 0.950 . S
C5768 C5763 1.363 . S
C5768 C5767 1.415 . S
C5769 H5745 0.951 . S
C5769 C5770 1.366 . S
C5769 C5771 1.388 . S
C5770 C5769 1.366 . S
C5770 C5774 1.385 . S
C5771 H5746 0.951 . S
C5771 C5769 1.388 . S
C5771 C5772 1.366 . S
C5772 C5771 1.366 . S
C5772 C5773 1.414 . S
C5772 C5775 1.499 . S
C5773 H5747 0.950 . S
C5773 C5772 1.414 . S
C5773 C5774 1.374 . S
C5774 H5748 0.950 . S
C5774 C5770 1.385 . S
C5774 C5773 1.374 . S
C5775 C5772 1.499 . S
C5775 C5776 1.373 . S
C5775 C5777 1.389 . S
C5776 H5749 0.950 . S
C5776 C5762 1.377 . S
C5776 C5775 1.373 . S
C5777 C5761 1.377 . S
C5777 C5775 1.389 . S
C5777 C5778 1.524 . S
C5778 C5777 1.524 . S
C5778 C5779 1.397 . S
C5778 C5783 1.363 . S
C5779 H5750 0.950 . S
C5779 C5778 1.397 . S
C5779 C5780 1.334 . S
C5780 H5751 0.950 . S
C5780 C5779 1.334 . S
C5780 C5781 1.287 . S
C5781 C5780 1.287 . S
C5781 C5782 1.524 . S
C5781 H5784 0.999 . S
C5782 H5752 0.950 . S
C5782 C5781 1.524 . S
C5782 C5783 1.415 . S
C5783 H5753 0.950 . S
C5783 C5778 1.363 . S
C5783 C5782 1.415 . S
H5784 C5781 0.999 . S
H5785 C5766 0.913 . S
H5786 C5804 0.951 . S
H5787 C5806 0.951 . S
H5788 C5808 0.950 . S
H5789 C5809 0.950 . S
H5790 C5811 0.950 . S
H5791 C5814 0.950 . S
H5792 C5815 0.950 . S
H5793 C5817 0.950 . S
H5794 C5818 0.950 . S
H5795 C5819 0.951 . S
H5796 C5821 0.951 . S
H5797 C5823 0.950 . S
H5798 C5824 0.950 . S
H5799 C5826 0.950 . S
H5800 C5829 0.950 . S
H5801 C5830 0.950 . S
H5802 C5832 0.950 . S
H5803 C5833 0.950 . S
C5804 H5786 0.951 . S
C5804 C5805 1.366 . S
C5804 C5806 1.388 . S
C5805 C5804 1.366 . S
C5805 C5809 1.385 . S
C5806 H5787 0.951 . S
C5806 C5804 1.388 . S
C5806 C5807 1.366 . S
C5807 C5806 1.366 . S
C5807 C5808 1.414 . S
C5807 C5810 1.499 . S
C5808 H5788 0.950 . S
C5808 C5807 1.414 . S
C5808 C5809 1.374 . S
C5809 H5789 0.950 . S
C5809 C5805 1.385 . S
C5809 C5808 1.374 . S
C5810 C5807 1.499 . S
C5810 C5811 1.373 . S
C5810 C5812 1.389 . S
C5811 H5790 0.950 . S
C5811 C5810 1.373 . S
C5811 C5827 1.377 . S
C5812 C5810 1.389 . S
C5812 C5813 1.524 . S
C5812 C5826 1.377 . S
C5813 C5812 1.524 . S
C5813 C5814 1.397 . S
C5813 C5818 1.363 . S
C5814 H5791 0.950 . S
C5814 C5813 1.397 . S
C5814 C5815 1.334 . S
C5815 H5792 0.950 . S
C5815 C5814 1.334 . S
C5815 C5816 1.287 . S
C5816 C5815 1.287 . S
C5816 C5817 1.524 . S
C5816 H5835 0.913 . S
C5817 H5793 0.950 . S
C5817 C5816 1.524 . S
C5817 C5818 1.415 . S
C5818 H5794 0.950 . S
C5818 C5813 1.363 . S
C5818 C5817 1.415 . S
C5819 H5795 0.951 . S
C5819 C5820 1.366 . S
C5819 C5821 1.388 . S
C5820 C5819 1.366 . S
C5820 C5824 1.385 . S
C5821 H5796 0.951 . S
C5821 C5819 1.388 . S
C5821 C5822 1.366 . S
C5822 C5821 1.366 . S
C5822 C5823 1.414 . S
C5822 C5825 1.499 . S
C5823 H5797 0.950 . S
C5823 C5822 1.414 . S
C5823 C5824 1.374 . S
C5824 H5798 0.950 . S
C5824 C5820 1.385 . S
C5824 C5823 1.374 . S
C5825 C5822 1.499 . S
C5825 C5826 1.373 . S
C5825 C5827 1.389 . S
C5826 H5799 0.950 . S
C5826 C5812 1.377 . S
C5826 C5825 1.373 . S
C5827 C5811 1.377 . S
C5827 C5825 1.389 . S
C5827 C5828 1.524 . S
C5828 C5827 1.524 . S
C5828 C5829 1.397 . S
C5828 C5833 1.363 . S
C5829 H5800 0.950 . S
C5829 C5828 1.397 . S
C5829 C5830 1.334 . S
C5830 H5801 0.950 . S
C5830 C5829 1.334 . S
C5830 C5831 1.287 . S
C5831 C5830 1.287 . S
C5831 C5832 1.524 . S
C5831 H5834 0.999 . S
C5832 H5802 0.950 . S
C5832 C5831 1.524 . S
C5832 C5833 1.415 . S
C5833 H5803 0.950 . S
C5833 C5828 1.363 . S
C5833 C5832 1.415 . S
H5834 C5831 0.999 . S
H5835 C5816 0.913 . S
H5836 C5854 0.951 . S
H5837 C5856 0.951 . S
H5838 C5858 0.950 . S
H5839 C5859 0.950 . S
H5840 C5861 0.950 . S
H5841 C5864 0.950 . S
H5842 C5865 0.950 . S
H5843 C5867 0.950 . S
H5844 C5868 0.950 . S
H5845 C5869 0.951 . S
H5846 C5871 0.951 . S
H5847 C5873 0.950 . S
H5848 C5874 0.950 . S
H5849 C5876 0.950 . S
H5850 C5879 0.950 . S
H5851 C5880 0.950 . S
H5852 C5882 0.950 . S
H5853 C5883 0.950 . S
C5854 H5836 0.951 . S
C5854 C5855 1.366 . S
C5854 C5856 1.388 . S
C5855 C5854 1.366 . S
C5855 C5859 1.385 . S
C5856 H5837 0.951 . S
C5856 C5854 1.388 . S
C5856 C5857 1.366 . S
C5857 C5856 1.366 . S
C5857 C5858 1.414 . S
C5857 C5860 1.499 . S
C5858 H5838 0.950 . S
C5858 C5857 1.414 . S
C5858 C5859 1.374 . S
C5859 H5839 0.950 . S
C5859 C5855 1.385 . S
C5859 C5858 1.374 . S
C5860 C5857 1.499 . S
C5860 C5861 1.373 . S
C5860 C5862 1.389 . S
C5861 H5840 0.950 . S
C5861 C5860 1.373 . S
C5861 C5877 1.377 . S
C5862 C5860 1.389 . S
C5862 C5863 1.524 . S
C5862 C5876 1.377 . S
C5863 C5862 1.524 . S
C5863 C5864 1.397 . S
C5863 C5868 1.363 . S
C5864 H5841 0.950 . S
C5864 C5863 1.397 . S
C5864 C5865 1.334 . S
C5865 H5842 0.950 . S
C5865 C5864 1.334 . S
C5865 C5866 1.287 . S
C5866 C5865 1.287 . S
C5866 C5867 1.524 . S
C5866 H5885 0.913 . S
C5867 H5843 0.950 . S
C5867 C5866 1.524 . S
C5867 C5868 1.415 . S
C5868 H5844 0.950 . S
C5868 C5863 1.363 . S
C5868 C5867 1.415 . S
C5869 H5845 0.951 . S
C5869 C5870 1.366 . S
C5869 C5871 1.388 . S
C5870 C5869 1.366 . S
C5870 C5874 1.385 . S
C5871 H5846 0.951 . S
C5871 C5869 1.388 . S
C5871 C5872 1.366 . S
C5872 C5871 1.366 . S
C5872 C5873 1.414 . S
C5872 C5875 1.499 . S
C5873 H5847 0.950 . S
C5873 C5872 1.414 . S
C5873 C5874 1.374 . S
C5874 H5848 0.950 . S
C5874 C5870 1.385 . S
C5874 C5873 1.374 . S
C5875 C5872 1.499 . S
C5875 C5876 1.373 . S
C5875 C5877 1.389 . S
C5876 H5849 0.950 . S
C5876 C5862 1.377 . S
C5876 C5875 1.373 . S
C5877 C5861 1.377 . S
C5877 C5875 1.389 . S
C5877 C5878 1.524 . S
C5878 C5877 1.524 . S
C5878 C5879 1.397 . S
C5878 C5883 1.363 . S
C5879 H5850 0.950 . S
C5879 C5878 1.397 . S
C5879 C5880 1.334 . S
C5880 H5851 0.950 . S
C5880 C5879 1.334 . S
C5880 C5881 1.287 . S
C5881 C5880 1.287 . S
C5881 C5882 1.524 . S
C5881 H5884 0.999 . S
C5882 H5852 0.950 . S
C5882 C5881 1.524 . S
C5882 C5883 1.415 . S
C5883 H5853 0.950 . S
C5883 C5878 1.363 . S
C5883 C5882 1.415 . S
H5884 C5881 0.999 . S
H5885 C5866 0.913 . S
H5886 C5904 0.951 . S
H5887 C5906 0.951 . S
H5888 C5908 0.950 . S
H5889 C5909 0.950 . S
H5890 C5911 0.950 . S
H5891 C5914 0.950 . S
H5892 C5915 0.950 . S
H5893 C5917 0.950 . S
H5894 C5918 0.950 . S
H5895 C5919 0.951 . S
H5896 C5921 0.951 . S
H5897 C5923 0.950 . S
H5898 C5924 0.950 . S
H5899 C5926 0.950 . S
H5900 C5929 0.950 . S
H5901 C5930 0.950 . S
H5902 C5932 0.950 . S
H5903 C5933 0.950 . S
C5904 H5886 0.951 . S
C5904 C5905 1.366 . S
C5904 C5906 1.388 . S
C5905 C5904 1.366 . S
C5905 C5909 1.385 . S
C5906 H5887 0.951 . S
C5906 C5904 1.388 . S
C5906 C5907 1.366 . S
C5907 C5906 1.366 . S
C5907 C5908 1.414 . S
C5907 C5910 1.499 . S
C5908 H5888 0.950 . S
C5908 C5907 1.414 . S
C5908 C5909 1.374 . S
C5909 H5889 0.950 . S
C5909 C5905 1.385 . S
C5909 C5908 1.374 . S
C5910 C5907 1.499 . S
C5910 C5911 1.373 . S
C5910 C5912 1.389 . S
C5911 H5890 0.950 . S
C5911 C5910 1.373 . S
C5911 C5927 1.377 . S
C5912 C5910 1.389 . S
C5912 C5913 1.524 . S
C5912 C5926 1.377 . S
C5913 C5912 1.524 . S
C5913 C5914 1.397 . S
C5913 C5918 1.363 . S
C5914 H5891 0.950 . S
C5914 C5913 1.397 . S
C5914 C5915 1.334 . S
C5915 H5892 0.950 . S
C5915 C5914 1.334 . S
C5915 C5916 1.287 . S
C5916 C5915 1.287 . S
C5916 C5917 1.524 . S
C5916 H5935 0.913 . S
C5917 H5893 0.950 . S
C5917 C5916 1.524 . S
C5917 C5918 1.415 . S
C5918 H5894 0.950 . S
C5918 C5913 1.363 . S
C5918 C5917 1.415 . S
C5919 H5895 0.951 . S
C5919 C5920 1.366 . S
C5919 C5921 1.388 . S
C5920 C5919 1.366 . S
C5920 C5924 1.385 . S
C5921 H5896 0.951 . S
C5921 C5919 1.388 . S
C5921 C5922 1.366 . S
C5922 C5921 1.366 . S
C5922 C5923 1.414 . S
C5922 C5925 1.499 . S
C5923 H5897 0.950 . S
C5923 C5922 1.414 . S
C5923 C5924 1.374 . S
C5924 H5898 0.950 . S
C5924 C5920 1.385 . S
C5924 C5923 1.374 . S
C5925 C5922 1.499 . S
C5925 C5926 1.373 . S
C5925 C5927 1.389 . S
C5926 H5899 0.950 . S
C5926 C5912 1.377 . S
C5926 C5925 1.373 . S
C5927 C5911 1.377 . S
C5927 C5925 1.389 . S
C5927 C5928 1.524 . S
C5928 C5927 1.524 . S
C5928 C5929 1.397 . S
C5928 C5933 1.363 . S
C5929 H5900 0.950 . S
C5929 C5928 1.397 . S
C5929 C5930 1.334 . S
C5930 H5901 0.950 . S
C5930 C5929 1.334 . S
C5930 C5931 1.287 . S
C5931 C5930 1.287 . S
C5931 C5932 1.524 . S
C5931 H5934 0.999 . S
C5932 H5902 0.950 . S
C5932 C5931 1.524 . S
C5932 C5933 1.415 . S
C5933 H5903 0.950 . S
C5933 C5928 1.363 . S
C5933 C5932 1.415 . S
H5934 C5931 0.999 . S
H5935 C5916 0.913 . S
H5936 C5954 0.951 . S
H5937 C5956 0.951 . S
H5938 C5958 0.950 . S
H5939 C5959 0.950 . S
H5940 C5961 0.950 . S
H5941 C5964 0.950 . S
H5942 C5965 0.950 . S
H5943 C5967 0.950 . S
H5944 C5968 0.950 . S
H5945 C5969 0.951 . S
H5946 C5971 0.951 . S
H5947 C5973 0.950 . S
H5948 C5974 0.950 . S
H5949 C5976 0.950 . S
H5950 C5979 0.950 . S
H5951 C5980 0.950 . S
H5952 C5982 0.950 . S
H5953 C5983 0.950 . S
C5954 H5936 0.951 . S
C5954 C5955 1.366 . S
C5954 C5956 1.388 . S
C5955 C5954 1.366 . S
C5955 C5959 1.385 . S
C5956 H5937 0.951 . S
C5956 C5954 1.388 . S
C5956 C5957 1.366 . S
C5957 C5956 1.366 . S
C5957 C5958 1.414 . S
C5957 C5960 1.499 . S
C5958 H5938 0.950 . S
C5958 C5957 1.414 . S
C5958 C5959 1.374 . S
C5959 H5939 0.950 . S
C5959 C5955 1.385 . S
C5959 C5958 1.374 . S
C5960 C5957 1.499 . S
C5960 C5961 1.373 . S
C5960 C5962 1.389 . S
C5961 H5940 0.950 . S
C5961 C5960 1.373 . S
C5961 C5977 1.377 . S
C5962 C5960 1.389 . S
C5962 C5963 1.524 . S
C5962 C5976 1.377 . S
C5963 C5962 1.524 . S
C5963 C5964 1.397 . S
C5963 C5968 1.363 . S
C5964 H5941 0.950 . S
C5964 C5963 1.397 . S
C5964 C5965 1.334 . S
C5965 H5942 0.950 . S
C5965 C5964 1.334 . S
C5965 C5966 1.287 . S
C5966 C5965 1.287 . S
C5966 C5967 1.524 . S
C5966 H5985 0.913 . S
C5967 H5943 0.950 . S
C5967 C5966 1.524 . S
C5967 C5968 1.415 . S
C5968 H5944 0.950 . S
C5968 C5963 1.363 . S
C5968 C5967 1.415 . S
C5969 H5945 0.951 . S
C5969 C5970 1.366 . S
C5969 C5971 1.388 . S
C5970 C5969 1.366 . S
C5970 C5974 1.385 . S
C5971 H5946 0.951 . S
C5971 C5969 1.388 . S
C5971 C5972 1.366 . S
C5972 C5971 1.366 . S
C5972 C5973 1.414 . S
C5972 C5975 1.499 . S
C5973 H5947 0.950 . S
C5973 C5972 1.414 . S
C5973 C5974 1.374 . S
C5974 H5948 0.950 . S
C5974 C5970 1.385 . S
C5974 C5973 1.374 . S
C5975 C5972 1.499 . S
C5975 C5976 1.373 . S
C5975 C5977 1.389 . S
C5976 H5949 0.950 . S
C5976 C5962 1.377 . S
C5976 C5975 1.373 . S
C5977 C5961 1.377 . S
C5977 C5975 1.389 . S
C5977 C5978 1.524 . S
C5978 C5977 1.524 . S
C5978 C5979 1.397 . S
C5978 C5983 1.363 . S
C5979 H5950 0.950 . S
C5979 C5978 1.397 . S
C5979 C5980 1.334 . S
C5980 H5951 0.950 . S
C5980 C5979 1.334 . S
C5980 C5981 1.287 . S
C5981 C5980 1.287 . S
C5981 C5982 1.524 . S
C5981 H5984 0.999 . S
C5982 H5952 0.950 . S
C5982 C5981 1.524 . S
C5982 C5983 1.415 . S
C5983 H5953 0.950 . S
C5983 C5978 1.363 . S
C5983 C5982 1.415 . S
H5984 C5981 0.999 . S
H5985 C5966 0.913 . S
H5986 C6004 0.951 . S
H5987 C6006 0.951 . S
H5988 C6008 0.950 . S
H5989 C6009 0.950 . S
H5990 C6011 0.950 . S
H5991 C6014 0.950 . S
H5992 C6015 0.950 . S
H5993 C6017 0.950 . S
H5994 C6018 0.950 . S
H5995 C6019 0.951 . S
H5996 C6021 0.951 . S
H5997 C6023 0.950 . S
H5998 C6024 0.950 . S
H5999 C6026 0.950 . S
H6000 C6029 0.950 . S
H6001 C6030 0.950 . S
H6002 C6032 0.950 . S
H6003 C6033 0.950 . S
C6004 H5986 0.951 . S
C6004 C6005 1.366 . S
C6004 C6006 1.388 . S
C6005 C6004 1.366 . S
C6005 C6009 1.385 . S
C6006 H5987 0.951 . S
C6006 C6004 1.388 . S
C6006 C6007 1.366 . S
C6007 C6006 1.366 . S
C6007 C6008 1.414 . S
C6007 C6010 1.499 . S
C6008 H5988 0.950 . S
C6008 C6007 1.414 . S
C6008 C6009 1.374 . S
C6009 H5989 0.950 . S
C6009 C6005 1.385 . S
C6009 C6008 1.374 . S
C6010 C6007 1.499 . S
C6010 C6011 1.373 . S
C6010 C6012 1.389 . S
C6011 H5990 0.950 . S
C6011 C6010 1.373 . S
C6011 C6027 1.377 . S
C6012 C6010 1.389 . S
C6012 C6013 1.524 . S
C6012 C6026 1.377 . S
C6013 C6012 1.524 . S
C6013 C6014 1.397 . S
C6013 C6018 1.363 . S
C6014 H5991 0.950 . S
C6014 C6013 1.397 . S
C6014 C6015 1.334 . S
C6015 H5992 0.950 . S
C6015 C6014 1.334 . S
C6015 C6016 1.287 . S
C6016 C6015 1.287 . S
C6016 C6017 1.524 . S
C6016 H6035 0.913 . S
C6017 H5993 0.950 . S
C6017 C6016 1.524 . S
C6017 C6018 1.415 . S
C6018 H5994 0.950 . S
C6018 C6013 1.363 . S
C6018 C6017 1.415 . S
C6019 H5995 0.951 . S
C6019 C6020 1.366 . S
C6019 C6021 1.388 . S
C6020 C6019 1.366 . S
C6020 C6024 1.385 . S
C6021 H5996 0.951 . S
C6021 C6019 1.388 . S
C6021 C6022 1.366 . S
C6022 C6021 1.366 . S
C6022 C6023 1.414 . S
C6022 C6025 1.499 . S
C6023 H5997 0.950 . S
C6023 C6022 1.414 . S
C6023 C6024 1.374 . S
C6024 H5998 0.950 . S
C6024 C6020 1.385 . S
C6024 C6023 1.374 . S
C6025 C6022 1.499 . S
C6025 C6026 1.373 . S
C6025 C6027 1.389 . S
C6026 H5999 0.950 . S
C6026 C6012 1.377 . S
C6026 C6025 1.373 . S
C6027 C6011 1.377 . S
C6027 C6025 1.389 . S
C6027 C6028 1.524 . S
C6028 C6027 1.524 . S
C6028 C6029 1.397 . S
C6028 C6033 1.363 . S
C6029 H6000 0.950 . S
C6029 C6028 1.397 . S
C6029 C6030 1.334 . S
C6030 H6001 0.950 . S
C6030 C6029 1.334 . S
C6030 C6031 1.287 . S
C6031 C6030 1.287 . S
C6031 C6032 1.524 . S
C6031 H6034 0.999 . S
C6032 H6002 0.950 . S
C6032 C6031 1.524 . S
C6032 C6033 1.415 . S
C6033 H6003 0.950 . S
C6033 C6028 1.363 . S
C6033 C6032 1.415 . S
H6034 C6031 0.999 . S
H6035 C6016 0.913 . S
H6036 C6054 0.951 . S
H6037 C6056 0.951 . S
H6038 C6058 0.950 . S
H6039 C6059 0.950 . S
H6040 C6061 0.950 . S
H6041 C6064 0.950 . S
H6042 C6065 0.950 . S
H6043 C6067 0.950 . S
H6044 C6068 0.950 . S
H6045 C6069 0.951 . S
H6046 C6071 0.951 . S
H6047 C6073 0.950 . S
H6048 C6074 0.950 . S
H6049 C6076 0.950 . S
H6050 C6079 0.950 . S
H6051 C6080 0.950 . S
H6052 C6082 0.950 . S
H6053 C6083 0.950 . S
C6054 H6036 0.951 . S
C6054 C6055 1.366 . S
C6054 C6056 1.388 . S
C6055 C6054 1.366 . S
C6055 C6059 1.385 . S
C6056 H6037 0.951 . S
C6056 C6054 1.388 . S
C6056 C6057 1.366 . S
C6057 C6056 1.366 . S
C6057 C6058 1.414 . S
C6057 C6060 1.499 . S
C6058 H6038 0.950 . S
C6058 C6057 1.414 . S
C6058 C6059 1.374 . S
C6059 H6039 0.950 . S
C6059 C6055 1.385 . S
C6059 C6058 1.374 . S
C6060 C6057 1.499 . S
C6060 C6061 1.373 . S
C6060 C6062 1.389 . S
C6061 H6040 0.950 . S
C6061 C6060 1.373 . S
C6061 C6077 1.377 . S
C6062 C6060 1.389 . S
C6062 C6063 1.524 . S
C6062 C6076 1.377 . S
C6063 C6062 1.524 . S
C6063 C6064 1.397 . S
C6063 C6068 1.363 . S
C6064 H6041 0.950 . S
C6064 C6063 1.397 . S
C6064 C6065 1.334 . S
C6065 H6042 0.950 . S
C6065 C6064 1.334 . S
C6065 C6066 1.287 . S
C6066 C6065 1.287 . S
C6066 C6067 1.524 . S
C6066 H6085 0.913 . S
C6067 H6043 0.950 . S
C6067 C6066 1.524 . S
C6067 C6068 1.415 . S
C6068 H6044 0.950 . S
C6068 C6063 1.363 . S
C6068 C6067 1.415 . S
C6069 H6045 0.951 . S
C6069 C6070 1.366 . S
C6069 C6071 1.388 . S
C6070 C6069 1.366 . S
C6070 C6074 1.385 . S
C6071 H6046 0.951 . S
C6071 C6069 1.388 . S
C6071 C6072 1.366 . S
C6072 C6071 1.366 . S
C6072 C6073 1.414 . S
C6072 C6075 1.499 . S
C6073 H6047 0.950 . S
C6073 C6072 1.414 . S
C6073 C6074 1.374 . S
C6074 H6048 0.950 . S
C6074 C6070 1.385 . S
C6074 C6073 1.374 . S
C6075 C6072 1.499 . S
C6075 C6076 1.373 . S
C6075 C6077 1.389 . S
C6076 H6049 0.950 . S
C6076 C6062 1.377 . S
C6076 C6075 1.373 . S
C6077 C6061 1.377 . S
C6077 C6075 1.389 . S
C6077 C6078 1.524 . S
C6078 C6077 1.524 . S
C6078 C6079 1.397 . S
C6078 C6083 1.363 . S
C6079 H6050 0.950 . S
C6079 C6078 1.397 . S
C6079 C6080 1.334 . S
C6080 H6051 0.950 . S
C6080 C6079 1.334 . S
C6080 C6081 1.287 . S
C6081 C6080 1.287 . S
C6081 C6082 1.524 . S
C6081 H6084 0.999 . S
C6082 H6052 0.950 . S
C6082 C6081 1.524 . S
C6082 C6083 1.415 . S
C6083 H6053 0.950 . S
C6083 C6078 1.363 . S
C6083 C6082 1.415 . S
H6084 C6081 0.999 . S
H6085 C6066 0.913 . S
H6086 C6104 0.951 . S
H6087 C6106 0.951 . S
H6088 C6108 0.950 . S
H6089 C6109 0.950 . S
H6090 C6111 0.950 . S
H6091 C6114 0.950 . S
H6092 C6115 0.950 . S
H6093 C6117 0.950 . S
H6094 C6118 0.950 . S
H6095 C6119 0.951 . S
H6096 C6121 0.951 . S
H6097 C6123 0.950 . S
H6098 C6124 0.950 . S
H6099 C6126 0.950 . S
H6100 C6129 0.950 . S
H6101 C6130 0.950 . S
H6102 C6132 0.950 . S
H6103 C6133 0.950 . S
C6104 H6086 0.951 . S
C6104 C6105 1.366 . S
C6104 C6106 1.388 . S
C6105 C6104 1.366 . S
C6105 C6109 1.385 . S
C6106 H6087 0.951 . S
C6106 C6104 1.388 . S
C6106 C6107 1.366 . S
C6107 C6106 1.366 . S
C6107 C6108 1.414 . S
C6107 C6110 1.499 . S
C6108 H6088 0.950 . S
C6108 C6107 1.414 . S
C6108 C6109 1.374 . S
C6109 H6089 0.950 . S
C6109 C6105 1.385 . S
C6109 C6108 1.374 . S
C6110 C6107 1.499 . S
C6110 C6111 1.373 . S
C6110 C6112 1.389 . S
C6111 H6090 0.950 . S
C6111 C6110 1.373 . S
C6111 C6127 1.377 . S
C6112 C6110 1.389 . S
C6112 C6113 1.524 . S
C6112 C6126 1.377 . S
C6113 C6112 1.524 . S
C6113 C6114 1.397 . S
C6113 C6118 1.363 . S
C6114 H6091 0.950 . S
C6114 C6113 1.397 . S
C6114 C6115 1.334 . S
C6115 H6092 0.950 . S
C6115 C6114 1.334 . S
C6115 C6116 1.287 . S
C6116 C6115 1.287 . S
C6116 C6117 1.524 . S
C6116 H6135 0.913 . S
C6117 H6093 0.950 . S
C6117 C6116 1.524 . S
C6117 C6118 1.415 . S
C6118 H6094 0.950 . S
C6118 C6113 1.363 . S
C6118 C6117 1.415 . S
C6119 H6095 0.951 . S
C6119 C6120 1.366 . S
C6119 C6121 1.388 . S
C6120 C6119 1.366 . S
C6120 C6124 1.385 . S
C6121 H6096 0.951 . S
C6121 C6119 1.388 . S
C6121 C6122 1.366 . S
C6122 C6121 1.366 . S
C6122 C6123 1.414 . S
C6122 C6125 1.499 . S
C6123 H6097 0.950 . S
C6123 C6122 1.414 . S
C6123 C6124 1.374 . S
C6124 H6098 0.950 . S
C6124 C6120 1.385 . S
C6124 C6123 1.374 . S
C6125 C6122 1.499 . S
C6125 C6126 1.373 . S
C6125 C6127 1.389 . S
C6126 H6099 0.950 . S
C6126 C6112 1.377 . S
C6126 C6125 1.373 . S
C6127 C6111 1.377 . S
C6127 C6125 1.389 . S
C6127 C6128 1.524 . S
C6128 C6127 1.524 . S
C6128 C6129 1.397 . S
C6128 C6133 1.363 . S
C6129 H6100 0.950 . S
C6129 C6128 1.397 . S
C6129 C6130 1.334 . S
C6130 H6101 0.950 . S
C6130 C6129 1.334 . S
C6130 C6131 1.287 . S
C6131 C6130 1.287 . S
C6131 C6132 1.524 . S
C6131 H6134 0.999 . S
C6132 H6102 0.950 . S
C6132 C6131 1.524 . S
C6132 C6133 1.415 . S
C6133 H6103 0.950 . S
C6133 C6128 1.363 . S
C6133 C6132 1.415 . S
H6134 C6131 0.999 . S
H6135 C6116 0.913 . S
H6136 C6154 0.951 . S
H6137 C6156 0.951 . S
H6138 C6158 0.950 . S
H6139 C6159 0.950 . S
H6140 C6161 0.950 . S
H6141 C6164 0.950 . S
H6142 C6165 0.950 . S
H6143 C6167 0.950 . S
H6144 C6168 0.950 . S
H6145 C6169 0.951 . S
H6146 C6171 0.951 . S
H6147 C6173 0.950 . S
H6148 C6174 0.950 . S
H6149 C6176 0.950 . S
H6150 C6179 0.950 . S
H6151 C6180 0.950 . S
H6152 C6182 0.950 . S
H6153 C6183 0.950 . S
C6154 H6136 0.951 . S
C6154 C6155 1.366 . S
C6154 C6156 1.388 . S
C6155 C6154 1.366 . S
C6155 C6159 1.385 . S
C6156 H6137 0.951 . S
C6156 C6154 1.388 . S
C6156 C6157 1.366 . S
C6157 C6156 1.366 . S
C6157 C6158 1.414 . S
C6157 C6160 1.499 . S
C6158 H6138 0.950 . S
C6158 C6157 1.414 . S
C6158 C6159 1.374 . S
C6159 H6139 0.950 . S
C6159 C6155 1.385 . S
C6159 C6158 1.374 . S
C6160 C6157 1.499 . S
C6160 C6161 1.373 . S
C6160 C6162 1.389 . S
C6161 H6140 0.950 . S
C6161 C6160 1.373 . S
C6161 C6177 1.377 . S
C6162 C6160 1.389 . S
C6162 C6163 1.524 . S
C6162 C6176 1.377 . S
C6163 C6162 1.524 . S
C6163 C6164 1.397 . S
C6163 C6168 1.363 . S
C6164 H6141 0.950 . S
C6164 C6163 1.397 . S
C6164 C6165 1.334 . S
C6165 H6142 0.950 . S
C6165 C6164 1.334 . S
C6165 C6166 1.287 . S
C6166 C6165 1.287 . S
C6166 C6167 1.524 . S
C6166 H6185 0.913 . S
C6167 H6143 0.950 . S
C6167 C6166 1.524 . S
C6167 C6168 1.415 . S
C6168 H6144 0.950 . S
C6168 C6163 1.363 . S
C6168 C6167 1.415 . S
C6169 H6145 0.951 . S
C6169 C6170 1.366 . S
C6169 C6171 1.388 . S
C6170 C6169 1.366 . S
C6170 C6174 1.385 . S
C6171 H6146 0.951 . S
C6171 C6169 1.388 . S
C6171 C6172 1.366 . S
C6172 C6171 1.366 . S
C6172 C6173 1.414 . S
C6172 C6175 1.499 . S
C6173 H6147 0.950 . S
C6173 C6172 1.414 . S
C6173 C6174 1.374 . S
C6174 H6148 0.950 . S
C6174 C6170 1.385 . S
C6174 C6173 1.374 . S
C6175 C6172 1.499 . S
C6175 C6176 1.373 . S
C6175 C6177 1.389 . S
C6176 H6149 0.950 . S
C6176 C6162 1.377 . S
C6176 C6175 1.373 . S
C6177 C6161 1.377 . S
C6177 C6175 1.389 . S
C6177 C6178 1.524 . S
C6178 C6177 1.524 . S
C6178 C6179 1.397 . S
C6178 C6183 1.363 . S
C6179 H6150 0.950 . S
C6179 C6178 1.397 . S
C6179 C6180 1.334 . S
C6180 H6151 0.950 . S
C6180 C6179 1.334 . S
C6180 C6181 1.287 . S
C6181 C6180 1.287 . S
C6181 C6182 1.524 . S
C6181 H6184 0.999 . S
C6182 H6152 0.950 . S
C6182 C6181 1.524 . S
C6182 C6183 1.415 . S
C6183 H6153 0.950 . S
C6183 C6178 1.363 . S
C6183 C6182 1.415 . S
H6184 C6181 0.999 . S
H6185 C6166 0.913 . S
H6186 C6204 0.951 . S
H6187 C6206 0.951 . S
H6188 C6208 0.950 . S
H6189 C6209 0.950 . S
H6190 C6211 0.950 1_655 S
H6191 C6214 0.950 . S
H6192 C6215 0.950 . S
H6193 C6217 0.950 . S
H6194 C6218 0.950 . S
H6195 C6219 0.929 1_655 S
H6196 C6221 0.951 . S
H6197 C6223 0.950 . S
H6198 C6224 0.950 . S
H6199 C6226 0.950 . S
H6200 C6229 0.950 . S
H6201 C6230 0.950 . S
H6202 C6232 0.950 . S
H6203 C6233 0.950 . S
C6204 H6186 0.951 . S
C6204 C6205 1.366 . S
C6204 C6206 1.388 . S
C6205 C6204 1.366 . S
C6205 C6209 1.385 . S
C6206 H6187 0.951 . S
C6206 C6204 1.388 . S
C6206 C6207 1.366 . S
C6207 C6206 1.366 . S
C6207 C6208 1.414 . S
C6207 C6210 1.499 . S
C6208 H6188 0.950 . S
C6208 C6207 1.414 . S
C6208 C6209 1.374 . S
C6209 H6189 0.950 . S
C6209 C6205 1.385 . S
C6209 C6208 1.374 . S
C6210 C6207 1.499 . S
C6210 C6211 1.373 . S
C6210 C6212 1.389 . S
C6211 H6190 0.950 1_455 S
C6211 C6210 1.373 . S
C6211 C6227 1.377 . S
C6212 C6210 1.389 . S
C6212 C6213 1.524 . S
C6212 C6226 1.377 . S
C6213 C6212 1.524 . S
C6213 C6214 1.397 . S
C6213 C6218 1.363 . S
C6214 H6191 0.950 . S
C6214 C6213 1.397 . S
C6214 C6215 1.334 . S
C6215 H6192 0.950 . S
C6215 C6214 1.334 . S
C6215 C6216 1.287 . S
C6216 C6215 1.287 . S
C6216 C6217 1.524 . S
C6216 H6235 0.913 . S
C6217 H6193 0.950 . S
C6217 C6216 1.524 . S
C6217 C6218 1.415 . S
C6218 H6194 0.950 . S
C6218 C6213 1.363 . S
C6218 C6217 1.415 . S
C6219 H6195 0.929 1_455 S
C6219 C6220 1.366 . S
C6219 C6221 1.388 . S
C6220 C6219 1.366 . S
C6220 C6224 1.385 . S
C6221 H6196 0.951 . S
C6221 C6219 1.388 . S
C6221 C6222 1.366 . S
C6222 C6221 1.366 . S
C6222 C6223 1.414 . S
C6222 C6225 1.499 . S
C6223 H6197 0.950 . S
C6223 C6222 1.414 . S
C6223 C6224 1.374 . S
C6224 H6198 0.950 . S
C6224 C6220 1.385 . S
C6224 C6223 1.374 . S
C6225 C6222 1.499 . S
C6225 C6226 1.373 . S
C6225 C6227 1.389 . S
C6226 H6199 0.950 . S
C6226 C6212 1.377 . S
C6226 C6225 1.373 . S
C6227 C6211 1.377 . S
C6227 C6225 1.389 . S
C6227 C6228 1.524 1_455 S
C6228 C6227 1.524 1_655 S
C6228 C6229 1.397 . S
C6228 C6233 1.363 . S
C6229 H6200 0.950 . S
C6229 C6228 1.397 . S
C6229 C6230 1.334 . S
C6230 H6201 0.950 . S
C6230 C6229 1.334 . S
C6230 C6231 1.287 . S
C6231 C6230 1.287 . S
C6231 C6232 1.524 . S
C6231 H6234 0.999 . S
C6232 H6202 0.950 . S
C6232 C6231 1.524 . S
C6232 C6233 1.415 . S
C6233 H6203 0.950 . S
C6233 C6228 1.363 . S
C6233 C6232 1.415 . S
H6234 C6231 0.999 . S
H6235 C6216 0.913 . S
H6236 C6254 0.951 . S
H6237 C6256 0.951 . S
H6238 C6258 0.950 . S
H6239 C6259 0.950 . S
H6240 C6261 0.950 . S
H6241 C6264 0.950 . S
H6242 C6265 0.950 . S
H6243 C6267 0.950 . S
H6244 C6268 0.950 . S
H6245 C6269 0.951 . S
H6246 C6271 0.951 . S
H6247 C6273 0.950 . S
H6248 C6274 0.950 . S
H6249 C6276 0.950 . S
H6250 C6279 0.950 . S
H6251 C6280 0.950 . S
H6252 C6282 0.950 . S
H6253 C6283 0.950 . S
C6254 H6236 0.951 . S
C6254 C6255 1.366 . S
C6254 C6256 1.388 . S
C6255 C6254 1.366 . S
C6255 C6259 1.385 . S
C6256 H6237 0.951 . S
C6256 C6254 1.388 . S
C6256 C6257 1.366 . S
C6257 C6256 1.366 . S
C6257 C6258 1.414 . S
C6257 C6260 1.499 . S
C6258 H6238 0.950 . S
C6258 C6257 1.414 . S
C6258 C6259 1.374 . S
C6259 H6239 0.950 . S
C6259 C6255 1.385 . S
C6259 C6258 1.374 . S
C6260 C6257 1.499 . S
C6260 C6261 1.373 . S
C6260 C6262 1.389 . S
C6261 H6240 0.950 . S
C6261 C6260 1.373 . S
C6261 C6277 1.377 . S
C6262 C6260 1.389 . S
C6262 C6263 1.524 . S
C6262 C6276 1.377 . S
C6263 C6262 1.524 . S
C6263 C6264 1.397 . S
C6263 C6268 1.363 . S
C6264 H6241 0.950 . S
C6264 C6263 1.397 . S
C6264 C6265 1.334 . S
C6265 H6242 0.950 . S
C6265 C6264 1.334 . S
C6265 C6266 1.287 . S
C6266 C6265 1.287 . S
C6266 C6267 1.524 . S
C6266 H6285 0.913 . S
C6267 H6243 0.950 . S
C6267 C6266 1.524 . S
C6267 C6268 1.415 . S
C6268 H6244 0.950 . S
C6268 C6263 1.363 . S
C6268 C6267 1.415 . S
C6269 H6245 0.951 . S
C6269 C6270 1.366 . S
C6269 C6271 1.388 . S
C6270 C6269 1.366 . S
C6270 C6274 1.385 . S
C6271 H6246 0.951 . S
C6271 C6269 1.388 . S
C6271 C6272 1.366 . S
C6272 C6271 1.366 . S
C6272 C6273 1.414 . S
C6272 C6275 1.499 . S
C6273 H6247 0.950 . S
C6273 C6272 1.414 . S
C6273 C6274 1.374 . S
C6274 H6248 0.950 . S
C6274 C6270 1.385 . S
C6274 C6273 1.374 . S
C6275 C6272 1.499 . S
C6275 C6276 1.373 . S
C6275 C6277 1.389 . S
C6276 H6249 0.950 . S
C6276 C6262 1.377 . S
C6276 C6275 1.373 . S
C6277 C6261 1.377 . S
C6277 C6275 1.389 . S
C6277 C6278 1.524 . S
C6278 C6277 1.524 . S
C6278 C6279 1.397 . S
C6278 C6283 1.363 . S
C6279 H6250 0.950 . S
C6279 C6278 1.397 . S
C6279 C6280 1.334 . S
C6280 H6251 0.950 . S
C6280 C6279 1.334 . S
C6280 C6281 1.287 . S
C6281 C6280 1.287 . S
C6281 C6282 1.524 . S
C6281 H6284 0.999 . S
C6282 H6252 0.950 . S
C6282 C6281 1.524 . S
C6282 C6283 1.415 . S
C6283 H6253 0.950 . S
C6283 C6278 1.363 . S
C6283 C6282 1.415 . S
H6284 C6281 0.999 . S
H6285 C6266 0.913 . S
H6286 C6304 0.951 . S
H6287 C6306 0.951 . S
H6288 C6308 0.950 . S
H6289 C6309 0.950 . S
H6290 C6311 0.941 . S
H6291 C6314 0.950 . S
H6292 C6315 0.950 . S
H6293 C6317 0.950 . S
H6294 C6318 0.950 . S
H6295 C6319 0.951 1_545 S
H6296 C6321 0.951 1_545 S
H6297 C6323 0.950 . S
H6298 C6324 0.950 . S
H6299 C6326 0.950 . S
H6300 C6329 0.950 . S
H6301 C6330 0.950 . S
H6302 C6332 0.950 . S
H6303 C6333 0.950 . S
C6304 H6286 0.951 . S
C6304 C6305 1.366 . S
C6304 C6306 1.388 . S
C6305 C6304 1.366 . S
C6305 C6309 1.385 . S
C6306 H6287 0.951 . S
C6306 C6304 1.388 . S
C6306 C6307 1.366 . S
C6307 C6306 1.366 . S
C6307 C6308 1.414 . S
C6307 C6310 1.499 . S
C6308 H6288 0.950 . S
C6308 C6307 1.414 . S
C6308 C6309 1.374 . S
C6309 H6289 0.950 . S
C6309 C6305 1.385 . S
C6309 C6308 1.374 . S
C6310 C6307 1.499 . S
C6310 C6311 1.379 1_565 S
C6310 C6312 1.389 . S
C6311 H6290 0.941 . S
C6311 C6310 1.379 1_545 S
C6311 C6327 1.379 . S
C6312 C6310 1.389 . S
C6312 C6313 1.524 . S
C6312 C6326 1.377 . S
C6313 C6312 1.524 . S
C6313 C6314 1.397 . S
C6313 C6318 1.363 . S
C6314 H6291 0.950 . S
C6314 C6313 1.397 . S
C6314 C6315 1.334 . S
C6315 H6292 0.950 . S
C6315 C6314 1.334 . S
C6315 C6316 1.287 . S
C6316 C6315 1.287 . S
C6316 C6317 1.524 . S
C6316 H6335 0.913 . S
C6317 H6293 0.950 . S
C6317 C6316 1.524 . S
C6317 C6318 1.415 . S
C6318 H6294 0.950 . S
C6318 C6313 1.363 . S
C6318 C6317 1.415 . S
C6319 H6295 0.951 1_565 S
C6319 C6320 1.381 . S
C6319 C6321 1.374 . S
C6320 C6319 1.381 . S
C6320 C6324 1.385 . S
C6321 H6296 0.951 1_565 S
C6321 C6319 1.374 . S
C6321 C6322 1.366 . S
C6322 C6321 1.366 . S
C6322 C6323 1.414 . S
C6322 C6325 1.499 . S
C6323 H6297 0.950 . S
C6323 C6322 1.414 . S
C6323 C6324 1.374 . S
C6324 H6298 0.950 . S
C6324 C6320 1.385 . S
C6324 C6323 1.374 . S
C6325 C6322 1.499 . S
C6325 C6326 1.373 . S
C6325 C6327 1.389 1_565 S
C6326 H6299 0.950 . S
C6326 C6312 1.377 . S
C6326 C6325 1.373 . S
C6327 C6311 1.379 . S
C6327 C6325 1.389 1_545 S
C6327 C6328 1.524 . S
C6328 C6327 1.524 . S
C6328 C6329 1.397 . S
C6328 C6333 1.363 . S
C6329 H6300 0.950 . S
C6329 C6328 1.397 . S
C6329 C6330 1.334 . S
C6330 H6301 0.950 . S
C6330 C6329 1.334 . S
C6330 C6331 1.287 . S
C6331 C6330 1.287 . S
C6331 C6332 1.524 . S
C6331 H6334 0.999 . S
C6332 H6302 0.950 . S
C6332 C6331 1.524 . S
C6332 C6333 1.415 . S
C6333 H6303 0.950 . S
C6333 C6328 1.363 . S
C6333 C6332 1.415 . S
H6334 C6331 0.999 . S
H6335 C6316 0.913 . S
H6336 C6354 0.951 . S
H6337 C6356 0.951 . S
H6338 C6358 0.950 . S
H6339 C6359 0.950 . S
H6340 C6361 0.951 1_545 S
H6341 C6364 0.950 . S
H6342 C6365 0.950 . S
H6343 C6367 0.950 . S
H6344 C6368 0.950 . S
H6345 C6369 0.966 . S
H6346 C6371 1.021 1_545 S
H6347 C6373 0.950 . S
H6348 C6374 0.950 . S
H6349 C6376 0.950 . S
H6350 C6379 0.950 . S
H6351 C6380 0.950 . S
H6352 C6382 0.950 . S
H6353 C6383 0.950 . S
C6354 H6336 0.951 . S
C6354 C6355 1.366 . S
C6354 C6356 1.388 . S
C6355 C6354 1.366 . S
C6355 C6359 1.385 . S
C6356 H6337 0.951 . S
C6356 C6354 1.388 . S
C6356 C6357 1.366 . S
C6357 C6356 1.366 . S
C6357 C6358 1.414 . S
C6357 C6360 1.499 . S
C6358 H6338 0.950 . S
C6358 C6357 1.414 . S
C6358 C6359 1.374 . S
C6359 H6339 0.950 . S
C6359 C6355 1.385 . S
C6359 C6358 1.374 . S
C6360 C6357 1.499 . S
C6360 C6361 1.370 . S
C6360 C6362 1.389 . S
C6361 H6340 0.951 1_565 S
C6361 C6360 1.370 . S
C6361 C6377 1.379 1_565 S
C6362 C6360 1.389 . S
C6362 C6363 1.524 . S
C6362 C6376 1.377 . S
C6363 C6362 1.524 . S
C6363 C6364 1.397 . S
C6363 C6368 1.363 . S
C6364 H6341 0.950 . S
C6364 C6363 1.397 . S
C6364 C6365 1.334 . S
C6365 H6342 0.950 . S
C6365 C6364 1.334 . S
C6365 C6366 1.287 . S
C6366 C6365 1.287 . S
C6366 C6367 1.524 . S
C6366 H6385 0.913 . S
C6367 H6343 0.950 . S
C6367 C6366 1.524 . S
C6367 C6368 1.415 . S
C6368 H6344 0.950 . S
C6368 C6363 1.363 . S
C6368 C6367 1.415 . S
C6369 H6345 0.966 . S
C6369 C6370 1.387 1_545 S
C6369 C6371 1.317 1_545 S
C6370 C6369 1.387 1_565 S
C6370 C6374 1.385 . S
C6371 H6346 1.021 1_565 S
C6371 C6369 1.317 1_565 S
C6371 C6372 1.387 . S
C6372 C6371 1.387 . S
C6372 C6373 1.414 . S
C6372 C6375 1.499 . S
C6373 H6347 0.950 . S
C6373 C6372 1.414 . S
C6373 C6374 1.374 . S
C6374 H6348 0.950 . S
C6374 C6370 1.385 . S
C6374 C6373 1.374 . S
C6375 C6372 1.499 . S
C6375 C6376 1.373 . S
C6375 C6377 1.389 1_565 S
C6376 H6349 0.950 . S
C6376 C6362 1.377 . S
C6376 C6375 1.373 . S
C6377 C6361 1.379 1_545 S
C6377 C6375 1.389 1_545 S
C6377 C6378 1.524 . S
C6378 C6377 1.524 . S
C6378 C6379 1.397 . S
C6378 C6383 1.363 . S
C6379 H6350 0.950 . S
C6379 C6378 1.397 . S
C6379 C6380 1.334 . S
C6380 H6351 0.950 . S
C6380 C6379 1.334 . S
C6380 C6381 1.287 . S
C6381 C6380 1.287 . S
C6381 C6382 1.524 . S
C6381 H6384 0.999 . S
C6382 H6352 0.950 . S
C6382 C6381 1.524 . S
C6382 C6383 1.415 . S
C6383 H6353 0.950 . S
C6383 C6378 1.363 . S
C6383 C6382 1.415 . S
H6384 C6381 0.999 . S
H6385 C6366 0.913 . S
H6386 C6404 0.951 . S
H6387 C6406 0.951 . S
H6388 C6408 0.950 . S
H6389 C6409 0.950 . S
H6390 C6411 0.981 . S
H6391 C6414 0.950 . S
H6392 C6415 0.950 . S
H6393 C6417 0.950 . S
H6394 C6418 0.950 . S
H6395 C6419 0.957 . S
H6396 C6421 0.975 . S
H6397 C6423 0.950 . S
H6398 C6424 0.950 . S
H6399 C6426 0.950 . S
H6400 C6429 0.950 . S
H6401 C6430 0.950 . S
H6402 C6432 0.950 . S
H6403 C6433 0.950 . S
C6404 H6386 0.951 . S
C6404 C6405 1.366 . S
C6404 C6406 1.388 . S
C6405 C6404 1.366 . S
C6405 C6409 1.385 . S
C6406 H6387 0.951 . S
C6406 C6404 1.388 . S
C6406 C6407 1.366 . S
C6407 C6406 1.366 . S
C6407 C6408 1.414 . S
C6407 C6410 1.499 . S
C6408 H6388 0.950 . S
C6408 C6407 1.414 . S
C6408 C6409 1.374 . S
C6409 H6389 0.950 . S
C6409 C6405 1.385 . S
C6409 C6408 1.374 . S
C6410 C6407 1.499 . S
C6410 C6411 1.351 1_455 S
C6410 C6412 1.389 . S
C6411 H6390 0.981 . S
C6411 C6410 1.351 1_655 S
C6411 C6427 1.368 . S
C6412 C6410 1.389 . S
C6412 C6413 1.524 . S
C6412 C6426 1.377 . S
C6413 C6412 1.524 . S
C6413 C6414 1.397 . S
C6413 C6418 1.363 . S
C6414 H6391 0.950 . S
C6414 C6413 1.397 . S
C6414 C6415 1.334 . S
C6415 H6392 0.950 . S
C6415 C6414 1.334 . S
C6415 C6416 1.287 . S
C6416 C6415 1.287 . S
C6416 C6417 1.524 . S
C6416 H6435 0.913 . S
C6417 H6393 0.950 . S
C6417 C6416 1.524 . S
C6417 C6418 1.415 . S
C6418 H6394 0.950 . S
C6418 C6413 1.363 . S
C6418 C6417 1.415 . S
C6419 H6395 0.957 . S
C6419 C6420 1.319 1_655 S
C6419 C6421 1.397 1_655 S
C6420 C6419 1.319 1_455 S
C6420 C6424 1.400 . S
C6421 H6396 0.975 . S
C6421 C6419 1.397 1_455 S
C6421 C6422 1.366 . S
C6422 C6421 1.366 . S
C6422 C6423 1.414 . S
C6422 C6425 1.499 . S
C6423 H6397 0.950 . S
C6423 C6422 1.414 . S
C6423 C6424 1.374 . S
C6424 H6398 0.950 . S
C6424 C6420 1.400 . S
C6424 C6423 1.374 . S
C6425 C6422 1.499 . S
C6425 C6426 1.373 . S
C6425 C6427 1.389 1_455 S
C6426 H6399 0.950 . S
C6426 C6412 1.377 . S
C6426 C6425 1.373 . S
C6427 C6411 1.368 . S
C6427 C6425 1.389 1_655 S
C6427 C6428 1.524 . S
C6428 C6427 1.524 . S
C6428 C6429 1.397 . S
C6428 C6433 1.363 . S
C6429 H6400 0.950 . S
C6429 C6428 1.397 . S
C6429 C6430 1.334 . S
C6430 H6401 0.950 . S
C6430 C6429 1.334 . S
C6430 C6431 1.287 . S
C6431 C6430 1.287 . S
C6431 C6432 1.524 . S
C6431 H6434 0.999 . S
C6432 H6402 0.950 . S
C6432 C6431 1.524 . S
C6432 C6433 1.415 . S
C6433 H6403 0.950 . S
C6433 C6428 1.363 . S
C6433 C6432 1.415 . S
H6434 C6431 0.999 . S
H6435 C6416 0.913 . S
H6436 C6454 0.951 . S
H6437 C6456 0.951 . S
H6438 C6458 0.950 . S
H6439 C6459 0.950 . S
H6440 C6461 0.950 . S
H6441 C6464 0.950 . S
H6442 C6465 0.950 . S
H6443 C6467 0.950 . S
H6444 C6468 0.950 . S
H6445 C6469 0.951 . S
H6446 C6471 0.951 . S
H6447 C6473 0.950 . S
H6448 C6474 0.950 . S
H6449 C6476 0.950 . S
H6450 C6479 0.950 . S
H6451 C6480 0.950 . S
H6452 C6482 0.950 . S
H6453 C6483 0.950 . S
C6454 H6436 0.951 . S
C6454 C6455 1.366 . S
C6454 C6456 1.388 . S
C6455 C6454 1.366 . S
C6455 C6459 1.385 . S
C6456 H6437 0.951 . S
C6456 C6454 1.388 . S
C6456 C6457 1.366 . S
C6457 C6456 1.366 . S
C6457 C6458 1.414 . S
C6457 C6460 1.499 . S
C6458 H6438 0.950 . S
C6458 C6457 1.414 . S
C6458 C6459 1.374 . S
C6459 H6439 0.950 . S
C6459 C6455 1.385 . S
C6459 C6458 1.374 . S
C6460 C6457 1.499 . S
C6460 C6461 1.373 . S
C6460 C6462 1.389 . S
C6461 H6440 0.950 . S
C6461 C6460 1.373 . S
C6461 C6477 1.377 . S
C6462 C6460 1.389 . S
C6462 C6463 1.524 . S
C6462 C6476 1.377 . S
C6463 C6462 1.524 . S
C6463 C6464 1.397 . S
C6463 C6468 1.363 . S
C6464 H6441 0.950 . S
C6464 C6463 1.397 . S
C6464 C6465 1.334 . S
C6465 H6442 0.950 . S
C6465 C6464 1.334 . S
C6465 C6466 1.287 . S
C6466 C6465 1.287 . S
C6466 C6467 1.524 . S
C6466 H6485 0.913 . S
C6467 H6443 0.950 . S
C6467 C6466 1.524 . S
C6467 C6468 1.415 . S
C6468 H6444 0.950 . S
C6468 C6463 1.363 . S
C6468 C6467 1.415 . S
C6469 H6445 0.951 . S
C6469 C6470 1.366 . S
C6469 C6471 1.388 . S
C6470 C6469 1.366 . S
C6470 C6474 1.385 . S
C6471 H6446 0.951 . S
C6471 C6469 1.388 . S
C6471 C6472 1.366 . S
C6472 C6471 1.366 . S
C6472 C6473 1.414 . S
C6472 C6475 1.499 . S
C6473 H6447 0.950 . S
C6473 C6472 1.414 . S
C6473 C6474 1.374 . S
C6474 H6448 0.950 . S
C6474 C6470 1.385 . S
C6474 C6473 1.374 . S
C6475 C6472 1.499 . S
C6475 C6476 1.373 . S
C6475 C6477 1.389 . S
C6476 H6449 0.950 . S
C6476 C6462 1.377 . S
C6476 C6475 1.373 . S
C6477 C6461 1.377 . S
C6477 C6475 1.389 . S
C6477 C6478 1.524 . S
C6478 C6477 1.524 . S
C6478 C6479 1.397 . S
C6478 C6483 1.363 . S
C6479 H6450 0.950 . S
C6479 C6478 1.397 . S
C6479 C6480 1.334 . S
C6480 H6451 0.950 . S
C6480 C6479 1.334 . S
C6480 C6481 1.287 . S
C6481 C6480 1.287 . S
C6481 C6482 1.524 . S
C6481 H6484 0.999 . S
C6482 H6452 0.950 . S
C6482 C6481 1.524 . S
C6482 C6483 1.415 . S
C6483 H6453 0.950 . S
C6483 C6478 1.363 . S
C6483 C6482 1.415 . S
H6484 C6481 0.999 . S
H6485 C6466 0.913 . S
H6486 C6504 0.951 . S
H6487 C6506 0.951 . S
H6488 C6508 0.950 . S
H6489 C6509 0.950 . S
H6490 C6511 0.950 . S
H6491 C6514 0.950 . S
H6492 C6515 0.950 . S
H6493 C6517 0.950 . S
H6494 C6518 0.950 . S
H6495 C6519 0.951 . S
H6496 C6521 0.951 . S
H6497 C6523 0.950 . S
H6498 C6524 0.950 . S
H6499 C6526 0.950 . S
H6500 C6529 0.950 . S
H6501 C6530 0.950 . S
H6502 C6532 0.950 . S
H6503 C6533 0.950 . S
C6504 H6486 0.951 . S
C6504 C6505 1.366 . S
C6504 C6506 1.388 . S
C6505 C6504 1.366 . S
C6505 C6509 1.385 . S
C6506 H6487 0.951 . S
C6506 C6504 1.388 . S
C6506 C6507 1.366 . S
C6507 C6506 1.366 . S
C6507 C6508 1.414 . S
C6507 C6510 1.499 . S
C6508 H6488 0.950 . S
C6508 C6507 1.414 . S
C6508 C6509 1.374 . S
C6509 H6489 0.950 . S
C6509 C6505 1.385 . S
C6509 C6508 1.374 . S
C6510 C6507 1.499 . S
C6510 C6511 1.373 . S
C6510 C6512 1.389 . S
C6511 H6490 0.950 . S
C6511 C6510 1.373 . S
C6511 C6527 1.377 . S
C6512 C6510 1.389 . S
C6512 C6513 1.524 . S
C6512 C6526 1.377 . S
C6513 C6512 1.524 . S
C6513 C6514 1.397 . S
C6513 C6518 1.363 . S
C6514 H6491 0.950 . S
C6514 C6513 1.397 . S
C6514 C6515 1.334 . S
C6515 H6492 0.950 . S
C6515 C6514 1.334 . S
C6515 C6516 1.287 . S
C6516 C6515 1.287 . S
C6516 C6517 1.524 . S
C6516 H6535 0.913 . S
C6517 H6493 0.950 . S
C6517 C6516 1.524 . S
C6517 C6518 1.415 . S
C6518 H6494 0.950 . S
C6518 C6513 1.363 . S
C6518 C6517 1.415 . S
C6519 H6495 0.951 . S
C6519 C6520 1.366 . S
C6519 C6521 1.388 . S
C6520 C6519 1.366 . S
C6520 C6524 1.385 . S
C6521 H6496 0.951 . S
C6521 C6519 1.388 . S
C6521 C6522 1.366 . S
C6522 C6521 1.366 . S
C6522 C6523 1.414 . S
C6522 C6525 1.499 . S
C6523 H6497 0.950 . S
C6523 C6522 1.414 . S
C6523 C6524 1.374 . S
C6524 H6498 0.950 . S
C6524 C6520 1.385 . S
C6524 C6523 1.374 . S
C6525 C6522 1.499 . S
C6525 C6526 1.373 . S
C6525 C6527 1.389 . S
C6526 H6499 0.950 . S
C6526 C6512 1.377 . S
C6526 C6525 1.373 . S
C6527 C6511 1.377 . S
C6527 C6525 1.389 . S
C6527 C6528 1.524 . S
C6528 C6527 1.524 . S
C6528 C6529 1.397 . S
C6528 C6533 1.363 . S
C6529 H6500 0.950 . S
C6529 C6528 1.397 . S
C6529 C6530 1.334 . S
C6530 H6501 0.950 . S
C6530 C6529 1.334 . S
C6530 C6531 1.287 . S
C6531 C6530 1.287 . S
C6531 C6532 1.524 . S
C6531 H6534 0.999 . S
C6532 H6502 0.950 . S
C6532 C6531 1.524 . S
C6532 C6533 1.415 . S
C6533 H6503 0.950 . S
C6533 C6528 1.363 . S
C6533 C6532 1.415 . S
H6534 C6531 0.999 . S
H6535 C6516 0.913 . S
H6536 C6554 0.951 . S
H6537 C6556 0.951 . S
H6538 C6558 0.950 . S
H6539 C6559 0.950 . S
H6540 C6561 0.950 . S
H6541 C6564 0.950 . S
H6542 C6565 0.950 . S
H6543 C6567 0.950 . S
H6544 C6568 0.950 . S
H6545 C6569 0.951 . S
H6546 C6571 0.951 . S
H6547 C6573 0.950 . S
H6548 C6574 0.950 . S
H6549 C6576 0.950 . S
H6550 C6579 0.950 . S
H6551 C6580 0.950 . S
H6552 C6582 0.950 . S
H6553 C6583 0.950 . S
C6554 H6536 0.951 . S
C6554 C6555 1.366 . S
C6554 C6556 1.388 . S
C6555 C6554 1.366 . S
C6555 C6559 1.385 . S
C6556 H6537 0.951 . S
C6556 C6554 1.388 . S
C6556 C6557 1.366 . S
C6557 C6556 1.366 . S
C6557 C6558 1.414 . S
C6557 C6560 1.499 . S
C6558 H6538 0.950 . S
C6558 C6557 1.414 . S
C6558 C6559 1.374 . S
C6559 H6539 0.950 . S
C6559 C6555 1.385 . S
C6559 C6558 1.374 . S
C6560 C6557 1.499 . S
C6560 C6561 1.373 . S
C6560 C6562 1.389 . S
C6561 H6540 0.950 . S
C6561 C6560 1.373 . S
C6561 C6577 1.377 . S
C6562 C6560 1.389 . S
C6562 C6563 1.524 . S
C6562 C6576 1.377 . S
C6563 C6562 1.524 . S
C6563 C6564 1.397 . S
C6563 C6568 1.363 . S
C6564 H6541 0.950 . S
C6564 C6563 1.397 . S
C6564 C6565 1.334 . S
C6565 H6542 0.950 . S
C6565 C6564 1.334 . S
C6565 C6566 1.287 . S
C6566 C6565 1.287 . S
C6566 C6567 1.524 . S
C6566 H6585 0.913 . S
C6567 H6543 0.950 . S
C6567 C6566 1.524 . S
C6567 C6568 1.415 . S
C6568 H6544 0.950 . S
C6568 C6563 1.363 . S
C6568 C6567 1.415 . S
C6569 H6545 0.951 . S
C6569 C6570 1.366 . S
C6569 C6571 1.388 . S
C6570 C6569 1.366 . S
C6570 C6574 1.385 . S
C6571 H6546 0.951 . S
C6571 C6569 1.388 . S
C6571 C6572 1.366 . S
C6572 C6571 1.366 . S
C6572 C6573 1.414 . S
C6572 C6575 1.499 . S
C6573 H6547 0.950 . S
C6573 C6572 1.414 . S
C6573 C6574 1.374 . S
C6574 H6548 0.950 . S
C6574 C6570 1.385 . S
C6574 C6573 1.374 . S
C6575 C6572 1.499 . S
C6575 C6576 1.373 . S
C6575 C6577 1.389 . S
C6576 H6549 0.950 . S
C6576 C6562 1.377 . S
C6576 C6575 1.373 . S
C6577 C6561 1.377 . S
C6577 C6575 1.389 . S
C6577 C6578 1.524 . S
C6578 C6577 1.524 . S
C6578 C6579 1.397 . S
C6578 C6583 1.363 . S
C6579 H6550 0.950 . S
C6579 C6578 1.397 . S
C6579 C6580 1.334 . S
C6580 H6551 0.950 . S
C6580 C6579 1.334 . S
C6580 C6581 1.287 . S
C6581 C6580 1.287 . S
C6581 C6582 1.524 . S
C6581 H6584 0.999 . S
C6582 H6552 0.950 . S
C6582 C6581 1.524 . S
C6582 C6583 1.415 . S
C6583 H6553 0.950 . S
C6583 C6578 1.363 . S
C6583 C6582 1.415 . S
H6584 C6581 0.999 . S
H6585 C6566 0.913 . S
H6586 C6604 0.951 . S
H6587 C6606 0.951 . S
H6588 C6608 0.950 . S
H6589 C6609 0.950 . S
H6590 C6611 0.950 . S
H6591 C6614 0.950 . S
H6592 C6615 0.950 . S
H6593 C6617 0.950 . S
H6594 C6618 0.950 . S
H6595 C6619 0.951 . S
H6596 C6621 0.951 . S
H6597 C6623 0.950 . S
H6598 C6624 0.950 . S
H6599 C6626 0.950 . S
H6600 C6629 0.950 . S
H6601 C6630 0.950 . S
H6602 C6632 0.950 . S
H6603 C6633 0.950 . S
C6604 H6586 0.951 . S
C6604 C6605 1.366 . S
C6604 C6606 1.388 . S
C6605 C6604 1.366 . S
C6605 C6609 1.385 . S
C6606 H6587 0.951 . S
C6606 C6604 1.388 . S
C6606 C6607 1.366 . S
C6607 C6606 1.366 . S
C6607 C6608 1.414 . S
C6607 C6610 1.499 . S
C6608 H6588 0.950 . S
C6608 C6607 1.414 . S
C6608 C6609 1.374 . S
C6609 H6589 0.950 . S
C6609 C6605 1.385 . S
C6609 C6608 1.374 . S
C6610 C6607 1.499 . S
C6610 C6611 1.373 . S
C6610 C6612 1.389 . S
C6611 H6590 0.950 . S
C6611 C6610 1.373 . S
C6611 C6627 1.377 . S
C6612 C6610 1.389 . S
C6612 C6613 1.524 . S
C6612 C6626 1.377 . S
C6613 C6612 1.524 . S
C6613 C6614 1.397 . S
C6613 C6618 1.363 . S
C6614 H6591 0.950 . S
C6614 C6613 1.397 . S
C6614 C6615 1.334 . S
C6615 H6592 0.950 . S
C6615 C6614 1.334 . S
C6615 C6616 1.287 . S
C6616 C6615 1.287 . S
C6616 C6617 1.524 . S
C6616 H6635 0.913 . S
C6617 H6593 0.950 . S
C6617 C6616 1.524 . S
C6617 C6618 1.415 . S
C6618 H6594 0.950 . S
C6618 C6613 1.363 . S
C6618 C6617 1.415 . S
C6619 H6595 0.951 . S
C6619 C6620 1.366 . S
C6619 C6621 1.388 . S
C6620 C6619 1.366 . S
C6620 C6624 1.385 . S
C6621 H6596 0.951 . S
C6621 C6619 1.388 . S
C6621 C6622 1.366 . S
C6622 C6621 1.366 . S
C6622 C6623 1.414 . S
C6622 C6625 1.499 . S
C6623 H6597 0.950 . S
C6623 C6622 1.414 . S
C6623 C6624 1.374 . S
C6624 H6598 0.950 . S
C6624 C6620 1.385 . S
C6624 C6623 1.374 . S
C6625 C6622 1.499 . S
C6625 C6626 1.373 . S
C6625 C6627 1.389 . S
C6626 H6599 0.950 . S
C6626 C6612 1.377 . S
C6626 C6625 1.373 . S
C6627 C6611 1.377 . S
C6627 C6625 1.389 . S
C6627 C6628 1.524 . S
C6628 C6627 1.524 . S
C6628 C6629 1.397 . S
C6628 C6633 1.363 . S
C6629 H6600 0.950 . S
C6629 C6628 1.397 . S
C6629 C6630 1.334 . S
C6630 H6601 0.950 . S
C6630 C6629 1.334 . S
C6630 C6631 1.287 . S
C6631 C6630 1.287 . S
C6631 C6632 1.524 . S
C6631 H6634 0.999 . S
C6632 H6602 0.950 . S
C6632 C6631 1.524 . S
C6632 C6633 1.415 . S
C6633 H6603 0.950 . S
C6633 C6628 1.363 . S
C6633 C6632 1.415 . S
H6634 C6631 0.999 . S
H6635 C6616 0.913 . S
H6636 C6654 0.951 . S
H6637 C6656 0.951 . S
H6638 C6658 0.950 . S
H6639 C6659 0.950 . S
H6640 C6661 0.950 . S
H6641 C6664 0.950 . S
H6642 C6665 0.950 . S
H6643 C6667 0.950 . S
H6644 C6668 0.950 . S
H6645 C6669 0.951 . S
H6646 C6671 0.951 . S
H6647 C6673 0.950 . S
H6648 C6674 0.950 . S
H6649 C6676 0.950 1_565 S
H6650 C6679 0.950 . S
H6651 C6680 0.950 . S
H6652 C6682 0.950 . S
H6653 C6683 0.950 . S
C6654 H6636 0.951 . S
C6654 C6655 1.366 . S
C6654 C6656 1.388 . S
C6655 C6654 1.366 . S
C6655 C6659 1.385 . S
C6656 H6637 0.951 . S
C6656 C6654 1.388 . S
C6656 C6657 1.366 . S
C6657 C6656 1.366 . S
C6657 C6658 1.414 . S
C6657 C6660 1.499 . S
C6658 H6638 0.950 . S
C6658 C6657 1.414 . S
C6658 C6659 1.374 . S
C6659 H6639 0.950 . S
C6659 C6655 1.385 . S
C6659 C6658 1.374 . S
C6660 C6657 1.499 . S
C6660 C6661 1.373 . S
C6660 C6662 1.389 . S
C6661 H6640 0.950 . S
C6661 C6660 1.373 . S
C6661 C6677 1.377 . S
C6662 C6660 1.389 . S
C6662 C6663 1.524 1_545 S
C6662 C6676 1.377 . S
C6663 C6662 1.524 1_565 S
C6663 C6664 1.397 . S
C6663 C6668 1.363 . S
C6664 H6641 0.950 . S
C6664 C6663 1.397 . S
C6664 C6665 1.334 . S
C6665 H6642 0.950 . S
C6665 C6664 1.334 . S
C6665 C6666 1.287 . S
C6666 C6665 1.287 . S
C6666 C6667 1.524 . S
C6666 H6685 0.913 . S
C6667 H6643 0.950 . S
C6667 C6666 1.524 . S
C6667 C6668 1.415 . S
C6668 H6644 0.950 . S
C6668 C6663 1.363 . S
C6668 C6667 1.415 . S
C6669 H6645 0.951 . S
C6669 C6670 1.366 . S
C6669 C6671 1.388 . S
C6670 C6669 1.366 . S
C6670 C6674 1.385 . S
C6671 H6646 0.951 . S
C6671 C6669 1.388 . S
C6671 C6672 1.366 . S
C6672 C6671 1.366 . S
C6672 C6673 1.414 . S
C6672 C6675 1.499 . S
C6673 H6647 0.950 . S
C6673 C6672 1.414 . S
C6673 C6674 1.374 . S
C6674 H6648 0.950 . S
C6674 C6670 1.385 . S
C6674 C6673 1.374 . S
C6675 C6672 1.499 . S
C6675 C6676 1.373 . S
C6675 C6677 1.389 . S
C6676 H6649 0.950 1_545 S
C6676 C6662 1.377 . S
C6676 C6675 1.373 . S
C6677 C6661 1.377 . S
C6677 C6675 1.389 . S
C6677 C6678 1.524 . S
C6678 C6677 1.524 . S
C6678 C6679 1.397 . S
C6678 C6683 1.363 . S
C6679 H6650 0.950 . S
C6679 C6678 1.397 . S
C6679 C6680 1.334 . S
C6680 H6651 0.950 . S
C6680 C6679 1.334 . S
C6680 C6681 1.287 . S
C6681 C6680 1.287 . S
C6681 C6682 1.524 . S
C6681 H6684 0.999 . S
C6682 H6652 0.950 . S
C6682 C6681 1.524 . S
C6682 C6683 1.415 . S
C6683 H6653 0.950 . S
C6683 C6678 1.363 . S
C6683 C6682 1.415 . S
H6684 C6681 0.999 . S
H6685 C6666 0.913 . S
H6686 C6704 0.951 . S
H6687 C6706 0.951 . S
H6688 C6708 0.950 . S
H6689 C6709 0.950 . S
H6690 C6711 0.950 . S
H6691 C6714 0.950 . S
H6692 C6715 0.950 . S
H6693 C6717 0.950 . S
H6694 C6718 0.950 . S
H6695 C6719 0.951 . S
H6696 C6721 0.951 . S
H6697 C6723 0.950 . S
H6698 C6724 0.950 . S
H6699 C6726 0.938 1_455 S
H6700 C6729 0.950 . S
H6701 C6730 0.950 . S
H6702 C6732 0.950 . S
H6703 C6733 0.950 . S
C6704 H6686 0.951 . S
C6704 C6705 1.366 . S
C6704 C6706 1.388 . S
C6705 C6704 1.366 . S
C6705 C6709 1.385 . S
C6706 H6687 0.951 . S
C6706 C6704 1.388 . S
C6706 C6707 1.366 . S
C6707 C6706 1.366 . S
C6707 C6708 1.414 . S
C6707 C6710 1.499 . S
C6708 H6688 0.950 . S
C6708 C6707 1.414 . S
C6708 C6709 1.374 . S
C6709 H6689 0.950 . S
C6709 C6705 1.385 . S
C6709 C6708 1.374 . S
C6710 C6707 1.499 . S
C6710 C6711 1.373 . S
C6710 C6712 1.414 . S
C6711 H6690 0.950 . S
C6711 C6710 1.373 . S
C6711 C6727 1.377 . S
C6712 C6710 1.414 . S
C6712 C6713 1.453 1_655 S
C6712 C6726 1.384 . S
C6713 C6712 1.453 1_455 S
C6713 C6714 1.397 . S
C6713 C6718 1.363 . S
C6714 H6691 0.950 . S
C6714 C6713 1.397 . S
C6714 C6715 1.334 . S
C6715 H6692 0.950 . S
C6715 C6714 1.334 . S
C6715 C6716 1.287 . S
C6716 C6715 1.287 . S
C6716 C6717 1.524 . S
C6716 H6735 0.913 . S
C6717 H6693 0.950 . S
C6717 C6716 1.524 . S
C6717 C6718 1.415 . S
C6718 H6694 0.950 . S
C6718 C6713 1.363 . S
C6718 C6717 1.415 . S
C6719 H6695 0.951 . S
C6719 C6720 1.366 . S
C6719 C6721 1.388 . S
C6720 C6719 1.366 . S
C6720 C6724 1.385 . S
C6721 H6696 0.951 . S
C6721 C6719 1.388 . S
C6721 C6722 1.366 . S
C6722 C6721 1.366 . S
C6722 C6723 1.414 . S
C6722 C6725 1.499 . S
C6723 H6697 0.950 . S
C6723 C6722 1.414 . S
C6723 C6724 1.374 . S
C6724 H6698 0.950 . S
C6724 C6720 1.385 . S
C6724 C6723 1.374 . S
C6725 C6722 1.499 . S
C6725 C6726 1.434 . S
C6725 C6727 1.389 . S
C6726 H6699 0.938 1_655 S
C6726 C6712 1.384 . S
C6726 C6725 1.434 . S
C6727 C6711 1.377 . S
C6727 C6725 1.389 . S
C6727 C6728 1.524 . S
C6728 C6727 1.524 . S
C6728 C6729 1.397 . S
C6728 C6733 1.363 . S
C6729 H6700 0.950 . S
C6729 C6728 1.397 . S
C6729 C6730 1.334 . S
C6730 H6701 0.950 . S
C6730 C6729 1.334 . S
C6730 C6731 1.287 . S
C6731 C6730 1.287 . S
C6731 C6732 1.524 . S
C6731 H6734 0.999 . S
C6732 H6702 0.950 . S
C6732 C6731 1.524 . S
C6732 C6733 1.415 . S
C6733 H6703 0.950 . S
C6733 C6728 1.363 . S
C6733 C6732 1.415 . S
H6734 C6731 0.999 . S
H6735 C6716 0.913 . S
H6736 C6754 0.951 . S
H6737 C6756 0.951 . S
H6738 C6758 0.950 . S
H6739 C6759 0.950 . S
H6740 C6761 0.950 . S
H6741 C6764 0.950 . S
H6742 C6765 0.950 . S
H6743 C6767 0.950 . S
H6744 C6768 0.950 . S
H6745 C6769 0.951 . S
H6746 C6771 0.951 . S
H6747 C6773 0.950 . S
H6748 C6774 0.950 . S
H6749 C6776 0.950 . S
H6750 C6779 0.950 . S
H6751 C6780 0.950 . S
H6752 C6782 0.950 . S
H6753 C6783 0.950 . S
C6754 H6736 0.951 . S
C6754 C6755 1.366 . S
C6754 C6756 1.388 . S
C6755 C6754 1.366 . S
C6755 C6759 1.385 . S
C6756 H6737 0.951 . S
C6756 C6754 1.388 . S
C6756 C6757 1.366 . S
C6757 C6756 1.366 . S
C6757 C6758 1.414 . S
C6757 C6760 1.499 . S
C6758 H6738 0.950 . S
C6758 C6757 1.414 . S
C6758 C6759 1.374 . S
C6759 H6739 0.950 . S
C6759 C6755 1.385 . S
C6759 C6758 1.374 . S
C6760 C6757 1.499 . S
C6760 C6761 1.373 . S
C6760 C6762 1.389 . S
C6761 H6740 0.950 . S
C6761 C6760 1.373 . S
C6761 C6777 1.377 . S
C6762 C6760 1.389 . S
C6762 C6763 1.524 . S
C6762 C6776 1.377 . S
C6763 C6762 1.524 . S
C6763 C6764 1.397 . S
C6763 C6768 1.363 . S
C6764 H6741 0.950 . S
C6764 C6763 1.397 . S
C6764 C6765 1.334 . S
C6765 H6742 0.950 . S
C6765 C6764 1.334 . S
C6765 C6766 1.287 . S
C6766 C6765 1.287 . S
C6766 C6767 1.524 . S
C6766 H6785 0.913 . S
C6767 H6743 0.950 . S
C6767 C6766 1.524 . S
C6767 C6768 1.415 . S
C6768 H6744 0.950 . S
C6768 C6763 1.363 . S
C6768 C6767 1.415 . S
C6769 H6745 0.951 . S
C6769 C6770 1.366 . S
C6769 C6771 1.388 . S
C6770 C6769 1.366 . S
C6770 C6774 1.385 . S
C6771 H6746 0.951 . S
C6771 C6769 1.388 . S
C6771 C6772 1.366 . S
C6772 C6771 1.366 . S
C6772 C6773 1.414 . S
C6772 C6775 1.499 . S
C6773 H6747 0.950 . S
C6773 C6772 1.414 . S
C6773 C6774 1.374 . S
C6774 H6748 0.950 . S
C6774 C6770 1.385 . S
C6774 C6773 1.374 . S
C6775 C6772 1.499 . S
C6775 C6776 1.373 . S
C6775 C6777 1.389 . S
C6776 H6749 0.950 . S
C6776 C6762 1.377 . S
C6776 C6775 1.373 . S
C6777 C6761 1.377 . S
C6777 C6775 1.389 . S
C6777 C6778 1.524 . S
C6778 C6777 1.524 . S
C6778 C6779 1.397 . S
C6778 C6783 1.363 . S
C6779 H6750 0.950 . S
C6779 C6778 1.397 . S
C6779 C6780 1.334 . S
C6780 H6751 0.950 . S
C6780 C6779 1.334 . S
C6780 C6781 1.287 . S
C6781 C6780 1.287 . S
C6781 C6782 1.524 . S
C6781 H6784 0.999 . S
C6782 H6752 0.950 . S
C6782 C6781 1.524 . S
C6782 C6783 1.415 . S
C6783 H6753 0.950 . S
C6783 C6778 1.363 . S
C6783 C6782 1.415 . S
H6784 C6781 0.999 . S
H6785 C6766 0.913 . S
H6786 C6804 0.951 . S
H6787 C6806 0.951 . S
H6788 C6808 0.950 . S
H6789 C6809 0.950 . S
H6790 C6811 0.950 . S
H6791 C6814 0.950 . S
H6792 C6815 0.950 . S
H6793 C6817 0.950 . S
H6794 C6818 0.950 . S
H6795 C6819 0.951 . S
H6796 C6821 0.951 . S
H6797 C6823 0.950 . S
H6798 C6824 0.950 . S
H6799 C6826 0.950 . S
H6800 C6829 0.950 . S
H6801 C6830 0.950 . S
H6802 C6832 0.950 . S
H6803 C6833 0.950 . S
C6804 H6786 0.951 . S
C6804 C6805 1.366 . S
C6804 C6806 1.388 . S
C6805 C6804 1.366 . S
C6805 C6809 1.385 . S
C6806 H6787 0.951 . S
C6806 C6804 1.388 . S
C6806 C6807 1.366 . S
C6807 C6806 1.366 . S
C6807 C6808 1.414 . S
C6807 C6810 1.499 . S
C6808 H6788 0.950 . S
C6808 C6807 1.414 . S
C6808 C6809 1.374 . S
C6809 H6789 0.950 . S
C6809 C6805 1.385 . S
C6809 C6808 1.374 . S
C6810 C6807 1.499 . S
C6810 C6811 1.373 . S
C6810 C6812 1.389 . S
C6811 H6790 0.950 . S
C6811 C6810 1.373 . S
C6811 C6827 1.377 . S
C6812 C6810 1.389 . S
C6812 C6813 1.524 . S
C6812 C6826 1.377 . S
C6813 C6812 1.524 . S
C6813 C6814 1.397 . S
C6813 C6818 1.363 . S
C6814 H6791 0.950 . S
C6814 C6813 1.397 . S
C6814 C6815 1.334 . S
C6815 H6792 0.950 . S
C6815 C6814 1.334 . S
C6815 C6816 1.287 . S
C6816 C6815 1.287 . S
C6816 C6817 1.524 . S
C6816 H6835 0.913 . S
C6817 H6793 0.950 . S
C6817 C6816 1.524 . S
C6817 C6818 1.415 . S
C6818 H6794 0.950 . S
C6818 C6813 1.363 . S
C6818 C6817 1.415 . S
C6819 H6795 0.951 . S
C6819 C6820 1.366 . S
C6819 C6821 1.388 . S
C6820 C6819 1.366 . S
C6820 C6824 1.385 . S
C6821 H6796 0.951 . S
C6821 C6819 1.388 . S
C6821 C6822 1.366 . S
C6822 C6821 1.366 . S
C6822 C6823 1.414 . S
C6822 C6825 1.499 . S
C6823 H6797 0.950 . S
C6823 C6822 1.414 . S
C6823 C6824 1.374 . S
C6824 H6798 0.950 . S
C6824 C6820 1.385 . S
C6824 C6823 1.374 . S
C6825 C6822 1.499 . S
C6825 C6826 1.373 . S
C6825 C6827 1.389 . S
C6826 H6799 0.950 . S
C6826 C6812 1.377 . S
C6826 C6825 1.373 . S
C6827 C6811 1.377 . S
C6827 C6825 1.389 . S
C6827 C6828 1.524 . S
C6828 C6827 1.524 . S
C6828 C6829 1.397 . S
C6828 C6833 1.363 . S
C6829 H6800 0.950 . S
C6829 C6828 1.397 . S
C6829 C6830 1.334 . S
C6830 H6801 0.950 . S
C6830 C6829 1.334 . S
C6830 C6831 1.287 . S
C6831 C6830 1.287 . S
C6831 C6832 1.524 . S
C6831 H6834 0.999 . S
C6832 H6802 0.950 . S
C6832 C6831 1.524 . S
C6832 C6833 1.415 . S
C6833 H6803 0.950 . S
C6833 C6828 1.363 . S
C6833 C6832 1.415 . S
H6834 C6831 0.999 . S
H6835 C6816 0.913 . S
H6836 C6854 0.951 . S
H6837 C6856 0.951 . S
H6838 C6858 0.950 . S
H6839 C6859 0.950 . S
H6840 C6861 0.950 . S
H6841 C6864 0.950 . S
H6842 C6865 0.950 . S
H6843 C6867 0.950 . S
H6844 C6868 0.950 . S
H6845 C6869 0.951 . S
H6846 C6871 0.951 . S
H6847 C6873 0.950 . S
H6848 C6874 0.950 . S
H6849 C6876 0.950 . S
H6850 C6879 0.950 . S
H6851 C6880 0.950 . S
H6852 C6882 0.950 . S
H6853 C6883 0.950 . S
C6854 H6836 0.951 . S
C6854 C6855 1.366 . S
C6854 C6856 1.388 . S
C6855 C6854 1.366 . S
C6855 C6859 1.385 . S
C6856 H6837 0.951 . S
C6856 C6854 1.388 . S
C6856 C6857 1.366 . S
C6857 C6856 1.366 . S
C6857 C6858 1.414 . S
C6857 C6860 1.499 . S
C6858 H6838 0.950 . S
C6858 C6857 1.414 . S
C6858 C6859 1.374 . S
C6859 H6839 0.950 . S
C6859 C6855 1.385 . S
C6859 C6858 1.374 . S
C6860 C6857 1.499 . S
C6860 C6861 1.373 . S
C6860 C6862 1.389 . S
C6861 H6840 0.950 . S
C6861 C6860 1.373 . S
C6861 C6877 1.377 . S
C6862 C6860 1.389 . S
C6862 C6863 1.524 . S
C6862 C6876 1.377 . S
C6863 C6862 1.524 . S
C6863 C6864 1.397 . S
C6863 C6868 1.363 . S
C6864 H6841 0.950 . S
C6864 C6863 1.397 . S
C6864 C6865 1.334 . S
C6865 H6842 0.950 . S
C6865 C6864 1.334 . S
C6865 C6866 1.287 . S
C6866 C6865 1.287 . S
C6866 C6867 1.524 . S
C6866 H6885 0.913 . S
C6867 H6843 0.950 . S
C6867 C6866 1.524 . S
C6867 C6868 1.415 . S
C6868 H6844 0.950 . S
C6868 C6863 1.363 . S
C6868 C6867 1.415 . S
C6869 H6845 0.951 . S
C6869 C6870 1.366 . S
C6869 C6871 1.388 . S
C6870 C6869 1.366 . S
C6870 C6874 1.385 . S
C6871 H6846 0.951 . S
C6871 C6869 1.388 . S
C6871 C6872 1.366 . S
C6872 C6871 1.366 . S
C6872 C6873 1.414 . S
C6872 C6875 1.499 . S
C6873 H6847 0.950 . S
C6873 C6872 1.414 . S
C6873 C6874 1.374 . S
C6874 H6848 0.950 . S
C6874 C6870 1.385 . S
C6874 C6873 1.374 . S
C6875 C6872 1.499 . S
C6875 C6876 1.373 . S
C6875 C6877 1.389 . S
C6876 H6849 0.950 . S
C6876 C6862 1.377 . S
C6876 C6875 1.373 . S
C6877 C6861 1.377 . S
C6877 C6875 1.389 . S
C6877 C6878 1.524 . S
C6878 C6877 1.524 . S
C6878 C6879 1.397 . S
C6878 C6883 1.363 . S
C6879 H6850 0.950 . S
C6879 C6878 1.397 . S
C6879 C6880 1.334 . S
C6880 H6851 0.950 . S
C6880 C6879 1.334 . S
C6880 C6881 1.287 . S
C6881 C6880 1.287 . S
C6881 C6882 1.524 . S
C6881 H6884 0.999 . S
C6882 H6852 0.950 . S
C6882 C6881 1.524 . S
C6882 C6883 1.415 . S
C6883 H6853 0.950 . S
C6883 C6878 1.363 . S
C6883 C6882 1.415 . S
H6884 C6881 0.999 . S
H6885 C6866 0.913 . S
H6886 C6904 0.951 . S
H6887 C6906 0.951 . S
H6888 C6908 0.950 . S
H6889 C6909 0.950 . S
H6890 C6911 0.950 . S
H6891 C6914 0.950 . S
H6892 C6915 0.950 . S
H6893 C6917 0.950 . S
H6894 C6918 0.950 . S
H6895 C6919 0.951 . S
H6896 C6921 0.951 . S
H6897 C6923 0.950 . S
H6898 C6924 0.950 . S
H6899 C6926 0.950 . S
H6900 C6929 0.950 . S
H6901 C6930 0.950 . S
H6902 C6932 0.950 . S
H6903 C6933 0.950 . S
C6904 H6886 0.951 . S
C6904 C6905 1.366 . S
C6904 C6906 1.388 . S
C6905 C6904 1.366 . S
C6905 C6909 1.385 . S
C6906 H6887 0.951 . S
C6906 C6904 1.388 . S
C6906 C6907 1.366 . S
C6907 C6906 1.366 . S
C6907 C6908 1.414 . S
C6907 C6910 1.499 . S
C6908 H6888 0.950 . S
C6908 C6907 1.414 . S
C6908 C6909 1.374 . S
C6909 H6889 0.950 . S
C6909 C6905 1.385 . S
C6909 C6908 1.374 . S
C6910 C6907 1.499 . S
C6910 C6911 1.373 . S
C6910 C6912 1.389 . S
C6911 H6890 0.950 . S
C6911 C6910 1.373 . S
C6911 C6927 1.377 . S
C6912 C6910 1.389 . S
C6912 C6913 1.524 . S
C6912 C6926 1.377 . S
C6913 C6912 1.524 . S
C6913 C6914 1.397 . S
C6913 C6918 1.363 . S
C6914 H6891 0.950 . S
C6914 C6913 1.397 . S
C6914 C6915 1.334 . S
C6915 H6892 0.950 . S
C6915 C6914 1.334 . S
C6915 C6916 1.287 . S
C6916 C6915 1.287 . S
C6916 C6917 1.524 . S
C6916 H6935 0.913 . S
C6917 H6893 0.950 . S
C6917 C6916 1.524 . S
C6917 C6918 1.415 . S
C6918 H6894 0.950 . S
C6918 C6913 1.363 . S
C6918 C6917 1.415 . S
C6919 H6895 0.951 . S
C6919 C6920 1.366 . S
C6919 C6921 1.388 . S
C6920 C6919 1.366 . S
C6920 C6924 1.385 . S
C6921 H6896 0.951 . S
C6921 C6919 1.388 . S
C6921 C6922 1.366 . S
C6922 C6921 1.366 . S
C6922 C6923 1.414 . S
C6922 C6925 1.499 . S
C6923 H6897 0.950 . S
C6923 C6922 1.414 . S
C6923 C6924 1.374 . S
C6924 H6898 0.950 . S
C6924 C6920 1.385 . S
C6924 C6923 1.374 . S
C6925 C6922 1.499 . S
C6925 C6926 1.373 . S
C6925 C6927 1.389 . S
C6926 H6899 0.950 . S
C6926 C6912 1.377 . S
C6926 C6925 1.373 . S
C6927 C6911 1.377 . S
C6927 C6925 1.389 . S
C6927 C6928 1.524 . S
C6928 C6927 1.524 . S
C6928 C6929 1.397 . S
C6928 C6933 1.363 . S
C6929 H6900 0.950 . S
C6929 C6928 1.397 . S
C6929 C6930 1.334 . S
C6930 H6901 0.950 . S
C6930 C6929 1.334 . S
C6930 C6931 1.287 . S
C6931 C6930 1.287 . S
C6931 C6932 1.524 . S
C6931 H6934 0.999 . S
C6932 H6902 0.950 . S
C6932 C6931 1.524 . S
C6932 C6933 1.415 . S
C6933 H6903 0.950 . S
C6933 C6928 1.363 . S
C6933 C6932 1.415 . S
H6934 C6931 0.999 . S
H6935 C6916 0.913 . S
H6936 C6954 0.951 . S
H6937 C6956 0.951 . S
H6938 C6958 0.950 . S
H6939 C6959 0.950 . S
H6940 C6961 0.950 . S
H6941 C6964 0.950 . S
H6942 C6965 0.950 . S
H6943 C6967 0.950 . S
H6944 C6968 0.950 . S
H6945 C6969 0.951 . S
H6946 C6971 0.951 . S
H6947 C6973 0.950 . S
H6948 C6974 0.950 . S
H6949 C6976 0.950 . S
H6950 C6979 0.950 . S
H6951 C6980 0.950 . S
H6952 C6982 0.950 . S
H6953 C6983 0.950 . S
C6954 H6936 0.951 . S
C6954 C6955 1.366 . S
C6954 C6956 1.388 . S
C6955 C6954 1.366 . S
C6955 C6959 1.385 . S
C6956 H6937 0.951 . S
C6956 C6954 1.388 . S
C6956 C6957 1.366 . S
C6957 C6956 1.366 . S
C6957 C6958 1.414 . S
C6957 C6960 1.499 . S
C6958 H6938 0.950 . S
C6958 C6957 1.414 . S
C6958 C6959 1.374 . S
C6959 H6939 0.950 . S
C6959 C6955 1.385 . S
C6959 C6958 1.374 . S
C6960 C6957 1.499 . S
C6960 C6961 1.373 . S
C6960 C6962 1.389 . S
C6961 H6940 0.950 . S
C6961 C6960 1.373 . S
C6961 C6977 1.377 . S
C6962 C6960 1.389 . S
C6962 C6963 1.524 . S
C6962 C6976 1.377 . S
C6963 C6962 1.524 . S
C6963 C6964 1.397 . S
C6963 C6968 1.363 . S
C6964 H6941 0.950 . S
C6964 C6963 1.397 . S
C6964 C6965 1.334 . S
C6965 H6942 0.950 . S
C6965 C6964 1.334 . S
C6965 C6966 1.287 . S
C6966 C6965 1.287 . S
C6966 C6967 1.524 . S
C6966 H6985 0.913 . S
C6967 H6943 0.950 . S
C6967 C6966 1.524 . S
C6967 C6968 1.415 . S
C6968 H6944 0.950 . S
C6968 C6963 1.363 . S
C6968 C6967 1.415 . S
C6969 H6945 0.951 . S
C6969 C6970 1.366 . S
C6969 C6971 1.388 . S
C6970 C6969 1.366 . S
C6970 C6974 1.385 . S
C6971 H6946 0.951 . S
C6971 C6969 1.388 . S
C6971 C6972 1.366 . S
C6972 C6971 1.366 . S
C6972 C6973 1.414 . S
C6972 C6975 1.499 . S
C6973 H6947 0.950 . S
C6973 C6972 1.414 . S
C6973 C6974 1.374 . S
C6974 H6948 0.950 . S
C6974 C6970 1.385 . S
C6974 C6973 1.374 . S
C6975 C6972 1.499 . S
C6975 C6976 1.373 . S
C6975 C6977 1.389 . S
C6976 H6949 0.950 . S
C6976 C6962 1.377 . S
C6976 C6975 1.373 . S
C6977 C6961 1.377 . S
C6977 C6975 1.389 . S
C6977 C6978 1.524 . S
C6978 C6977 1.524 . S
C6978 C6979 1.397 . S
C6978 C6983 1.363 . S
C6979 H6950 0.950 . S
C6979 C6978 1.397 . S
C6979 C6980 1.334 . S
C6980 H6951 0.950 . S
C6980 C6979 1.334 . S
C6980 C6981 1.287 . S
C6981 C6980 1.287 . S
C6981 C6982 1.524 . S
C6981 H6984 0.999 . S
C6982 H6952 0.950 . S
C6982 C6981 1.524 . S
C6982 C6983 1.415 . S
C6983 H6953 0.950 . S
C6983 C6978 1.363 . S
C6983 C6982 1.415 . S
H6984 C6981 0.999 . S
H6985 C6966 0.913 . S
H6986 C7004 0.951 . S
H6987 C7006 0.951 . S
H6988 C7008 0.950 . S
H6989 C7009 0.950 . S
H6990 C7011 0.950 . S
H6991 C7014 0.950 . S
H6992 C7015 0.950 . S
H6993 C7017 0.950 . S
H6994 C7018 0.950 . S
H6995 C7019 0.951 . S
H6996 C7021 0.951 . S
H6997 C7023 0.950 . S
H6998 C7024 0.950 . S
H6999 C7026 0.950 . S
H7000 C7029 0.950 . S
H7001 C7030 0.950 . S
H7002 C7032 0.950 . S
H7003 C7033 0.950 . S
C7004 H6986 0.951 . S
C7004 C7005 1.366 . S
C7004 C7006 1.388 . S
C7005 C7004 1.366 . S
C7005 C7009 1.385 . S
C7006 H6987 0.951 . S
C7006 C7004 1.388 . S
C7006 C7007 1.366 . S
C7007 C7006 1.366 . S
C7007 C7008 1.414 . S
C7007 C7010 1.499 . S
C7008 H6988 0.950 . S
C7008 C7007 1.414 . S
C7008 C7009 1.374 . S
C7009 H6989 0.950 . S
C7009 C7005 1.385 . S
C7009 C7008 1.374 . S
C7010 C7007 1.499 . S
C7010 C7011 1.373 . S
C7010 C7012 1.389 . S
C7011 H6990 0.950 . S
C7011 C7010 1.373 . S
C7011 C7027 1.377 . S
C7012 C7010 1.389 . S
C7012 C7013 1.524 . S
C7012 C7026 1.377 . S
C7013 C7012 1.524 . S
C7013 C7014 1.397 . S
C7013 C7018 1.363 . S
C7014 H6991 0.950 . S
C7014 C7013 1.397 . S
C7014 C7015 1.334 . S
C7015 H6992 0.950 . S
C7015 C7014 1.334 . S
C7015 C7016 1.287 . S
C7016 C7015 1.287 . S
C7016 C7017 1.524 . S
C7016 H7035 0.913 . S
C7017 H6993 0.950 . S
C7017 C7016 1.524 . S
C7017 C7018 1.415 . S
C7018 H6994 0.950 . S
C7018 C7013 1.363 . S
C7018 C7017 1.415 . S
C7019 H6995 0.951 . S
C7019 C7020 1.366 . S
C7019 C7021 1.388 . S
C7020 C7019 1.366 . S
C7020 C7024 1.385 . S
C7021 H6996 0.951 . S
C7021 C7019 1.388 . S
C7021 C7022 1.366 . S
C7022 C7021 1.366 . S
C7022 C7023 1.414 . S
C7022 C7025 1.499 . S
C7023 H6997 0.950 . S
C7023 C7022 1.414 . S
C7023 C7024 1.374 . S
C7024 H6998 0.950 . S
C7024 C7020 1.385 . S
C7024 C7023 1.374 . S
C7025 C7022 1.499 . S
C7025 C7026 1.373 . S
C7025 C7027 1.389 . S
C7026 H6999 0.950 . S
C7026 C7012 1.377 . S
C7026 C7025 1.373 . S
C7027 C7011 1.377 . S
C7027 C7025 1.389 . S
C7027 C7028 1.524 . S
C7028 C7027 1.524 . S
C7028 C7029 1.397 . S
C7028 C7033 1.363 . S
C7029 H7000 0.950 . S
C7029 C7028 1.397 . S
C7029 C7030 1.334 . S
C7030 H7001 0.950 . S
C7030 C7029 1.334 . S
C7030 C7031 1.287 . S
C7031 C7030 1.287 . S
C7031 C7032 1.524 . S
C7031 H7034 0.999 . S
C7032 H7002 0.950 . S
C7032 C7031 1.524 . S
C7032 C7033 1.415 . S
C7033 H7003 0.950 . S
C7033 C7028 1.363 . S
C7033 C7032 1.415 . S
H7034 C7031 0.999 . S
H7035 C7016 0.913 . S
H7036 C7054 0.951 . S
H7037 C7056 0.951 . S
H7038 C7058 0.950 . S
H7039 C7059 0.950 . S
H7040 C7061 0.950 . S
H7041 C7064 0.950 . S
H7042 C7065 0.950 . S
H7043 C7067 0.950 . S
H7044 C7068 0.950 . S
H7045 C7069 0.951 . S
H7046 C7071 0.951 . S
H7047 C7073 0.950 . S
H7048 C7074 0.950 . S
H7049 C7076 0.950 . S
H7050 C7079 0.950 . S
H7051 C7080 0.950 . S
H7052 C7082 0.950 . S
H7053 C7083 0.950 . S
C7054 H7036 0.951 . S
C7054 C7055 1.366 . S
C7054 C7056 1.388 . S
C7055 C7054 1.366 . S
C7055 C7059 1.385 . S
C7056 H7037 0.951 . S
C7056 C7054 1.388 . S
C7056 C7057 1.366 . S
C7057 C7056 1.366 . S
C7057 C7058 1.414 . S
C7057 C7060 1.499 . S
C7058 H7038 0.950 . S
C7058 C7057 1.414 . S
C7058 C7059 1.374 . S
C7059 H7039 0.950 . S
C7059 C7055 1.385 . S
C7059 C7058 1.374 . S
C7060 C7057 1.499 . S
C7060 C7061 1.373 . S
C7060 C7062 1.389 . S
C7061 H7040 0.950 . S
C7061 C7060 1.373 . S
C7061 C7077 1.377 . S
C7062 C7060 1.389 . S
C7062 C7063 1.524 . S
C7062 C7076 1.377 . S
C7063 C7062 1.524 . S
C7063 C7064 1.397 . S
C7063 C7068 1.363 . S
C7064 H7041 0.950 . S
C7064 C7063 1.397 . S
C7064 C7065 1.334 . S
C7065 H7042 0.950 . S
C7065 C7064 1.334 . S
C7065 C7066 1.287 . S
C7066 C7065 1.287 . S
C7066 C7067 1.524 . S
C7066 H7085 0.913 . S
C7067 H7043 0.950 . S
C7067 C7066 1.524 . S
C7067 C7068 1.415 . S
C7068 H7044 0.950 . S
C7068 C7063 1.363 . S
C7068 C7067 1.415 . S
C7069 H7045 0.951 . S
C7069 C7070 1.366 . S
C7069 C7071 1.388 . S
C7070 C7069 1.366 . S
C7070 C7074 1.385 . S
C7071 H7046 0.951 . S
C7071 C7069 1.388 . S
C7071 C7072 1.366 . S
C7072 C7071 1.366 . S
C7072 C7073 1.414 . S
C7072 C7075 1.499 . S
C7073 H7047 0.950 . S
C7073 C7072 1.414 . S
C7073 C7074 1.374 . S
C7074 H7048 0.950 . S
C7074 C7070 1.385 . S
C7074 C7073 1.374 . S
C7075 C7072 1.499 . S
C7075 C7076 1.373 . S
C7075 C7077 1.389 . S
C7076 H7049 0.950 . S
C7076 C7062 1.377 . S
C7076 C7075 1.373 . S
C7077 C7061 1.377 . S
C7077 C7075 1.389 . S
C7077 C7078 1.524 . S
C7078 C7077 1.524 . S
C7078 C7079 1.397 . S
C7078 C7083 1.363 . S
C7079 H7050 0.950 . S
C7079 C7078 1.397 . S
C7079 C7080 1.334 . S
C7080 H7051 0.950 . S
C7080 C7079 1.334 . S
C7080 C7081 1.287 . S
C7081 C7080 1.287 . S
C7081 C7082 1.524 . S
C7081 H7084 0.999 . S
C7082 H7052 0.950 . S
C7082 C7081 1.524 . S
C7082 C7083 1.415 . S
C7083 H7053 0.950 . S
C7083 C7078 1.363 . S
C7083 C7082 1.415 . S
H7084 C7081 0.999 . S
H7085 C7066 0.913 . S
H7086 C7104 0.967 . S
H7087 C7106 0.951 1_455 S
H7088 C7108 0.950 . S
H7089 C7109 0.950 . S
H7090 C7111 0.950 . S
H7091 C7114 0.950 . S
H7092 C7115 0.950 . S
H7093 C7117 0.950 . S
H7094 C7118 0.950 . S
H7095 C7119 0.951 . S
H7096 C7121 0.951 . S
H7097 C7123 0.950 . S
H7098 C7124 0.950 . S
H7099 C7126 0.950 . S
H7100 C7129 0.950 1_455 S
H7101 C7130 0.950 1_455 S
H7102 C7132 0.950 . S
H7103 C7133 0.950 . S
C7104 H7086 0.967 . S
C7104 C7105 1.366 . S
C7104 C7106 1.388 . S
C7105 C7104 1.366 . S
C7105 C7109 1.385 . S
C7106 H7087 0.951 1_655 S
C7106 C7104 1.388 . S
C7106 C7107 1.366 . S
C7107 C7106 1.366 . S
C7107 C7108 1.414 . S
C7107 C7110 1.499 . S
C7108 H7088 0.950 . S
C7108 C7107 1.414 . S
C7108 C7109 1.374 . S
C7109 H7089 0.950 . S
C7109 C7105 1.385 . S
C7109 C7108 1.374 . S
C7110 C7107 1.499 . S
C7110 C7111 1.373 . S
C7110 C7112 1.389 . S
C7111 H7090 0.950 . S
C7111 C7110 1.373 . S
C7111 C7127 1.377 . S
C7112 C7110 1.389 . S
C7112 C7113 1.524 . S
C7112 C7126 1.377 . S
C7113 C7112 1.524 . S
C7113 C7114 1.397 . S
C7113 C7118 1.363 1_655 S
C7114 H7091 0.950 . S
C7114 C7113 1.397 . S
C7114 C7115 1.334 . S
C7115 H7092 0.950 . S
C7115 C7114 1.334 . S
C7115 C7116 1.287 . S
C7116 C7115 1.287 . S
C7116 C7117 1.524 1_655 S
C7116 H7135 0.913 . S
C7117 H7093 0.950 . S
C7117 C7116 1.524 1_455 S
C7117 C7118 1.415 . S
C7118 H7094 0.950 . S
C7118 C7113 1.363 1_455 S
C7118 C7117 1.415 . S
C7119 H7095 0.951 . S
C7119 C7120 1.366 . S
C7119 C7121 1.388 . S
C7120 C7119 1.366 . S
C7120 C7124 1.385 1_655 S
C7121 H7096 0.951 . S
C7121 C7119 1.388 . S
C7121 C7122 1.366 . S
C7122 C7121 1.366 . S
C7122 C7123 1.414 1_655 S
C7122 C7125 1.499 . S
C7123 H7097 0.950 . S
C7123 C7122 1.414 1_455 S
C7123 C7124 1.374 . S
C7124 H7098 0.950 . S
C7124 C7120 1.385 1_455 S
C7124 C7123 1.374 . S
C7125 C7122 1.499 . S
C7125 C7126 1.373 . S
C7125 C7127 1.389 . S
C7126 H7099 0.950 . S
C7126 C7112 1.377 . S
C7126 C7125 1.373 . S
C7127 C7111 1.377 . S
C7127 C7125 1.389 . S
C7127 C7128 1.524 . S
C7128 C7127 1.524 . S
C7128 C7129 1.397 . S
C7128 C7133 1.363 . S
C7129 H7100 0.950 1_655 S
C7129 C7128 1.397 . S
C7129 C7130 1.334 . S
C7130 H7101 0.950 1_655 S
C7130 C7129 1.334 . S
C7130 C7131 1.287 . S
C7131 C7130 1.287 . S
C7131 C7132 1.524 . S
C7131 H7134 0.999 . S
C7132 H7102 0.950 . S
C7132 C7131 1.524 . S
C7132 C7133 1.415 . S
C7133 H7103 0.950 . S
C7133 C7128 1.363 . S
C7133 C7132 1.415 . S
H7134 C7131 0.999 . S
H7135 C7116 0.913 . S
H7136 C7154 0.951 . S
H7137 C7156 0.951 . S
H7138 C7158 0.950 . S
H7139 C7159 0.950 . S
H7140 C7161 0.950 . S
H7141 C7164 0.950 . S
H7142 C7165 0.950 . S
H7143 C7167 0.950 . S
H7144 C7168 0.950 . S
H7145 C7169 0.951 . S
H7146 C7171 0.951 . S
H7147 C7173 0.950 . S
H7148 C7174 0.950 . S
H7149 C7176 0.950 . S
H7150 C7179 0.950 . S
H7151 C7180 0.950 . S
H7152 C7182 0.950 . S
H7153 C7183 0.950 . S
C7154 H7136 0.951 . S
C7154 C7155 1.366 . S
C7154 C7156 1.388 . S
C7155 C7154 1.366 . S
C7155 C7159 1.385 . S
C7156 H7137 0.951 . S
C7156 C7154 1.388 . S
C7156 C7157 1.366 . S
C7157 C7156 1.366 . S
C7157 C7158 1.414 . S
C7157 C7160 1.499 . S
C7158 H7138 0.950 . S
C7158 C7157 1.414 . S
C7158 C7159 1.374 . S
C7159 H7139 0.950 . S
C7159 C7155 1.385 . S
C7159 C7158 1.374 . S
C7160 C7157 1.499 . S
C7160 C7161 1.373 . S
C7160 C7162 1.389 . S
C7161 H7140 0.950 . S
C7161 C7160 1.373 . S
C7161 C7177 1.377 . S
C7162 C7160 1.389 . S
C7162 C7163 1.524 . S
C7162 C7176 1.377 . S
C7163 C7162 1.524 . S
C7163 C7164 1.397 . S
C7163 C7168 1.363 . S
C7164 H7141 0.950 . S
C7164 C7163 1.397 . S
C7164 C7165 1.334 . S
C7165 H7142 0.950 . S
C7165 C7164 1.334 . S
C7165 C7166 1.287 . S
C7166 C7165 1.287 . S
C7166 C7167 1.524 . S
C7166 H7185 0.913 . S
C7167 H7143 0.950 . S
C7167 C7166 1.524 . S
C7167 C7168 1.415 . S
C7168 H7144 0.950 . S
C7168 C7163 1.363 . S
C7168 C7167 1.415 . S
C7169 H7145 0.951 . S
C7169 C7170 1.366 . S
C7169 C7171 1.388 . S
C7170 C7169 1.366 . S
C7170 C7174 1.385 . S
C7171 H7146 0.951 . S
C7171 C7169 1.388 . S
C7171 C7172 1.366 . S
C7172 C7171 1.366 . S
C7172 C7173 1.414 . S
C7172 C7175 1.499 . S
C7173 H7147 0.950 . S
C7173 C7172 1.414 . S
C7173 C7174 1.374 . S
C7174 H7148 0.950 . S
C7174 C7170 1.385 . S
C7174 C7173 1.374 . S
C7175 C7172 1.499 . S
C7175 C7176 1.373 . S
C7175 C7177 1.389 . S
C7176 H7149 0.950 . S
C7176 C7162 1.377 . S
C7176 C7175 1.373 . S
C7177 C7161 1.377 . S
C7177 C7175 1.389 . S
C7177 C7178 1.524 . S
C7178 C7177 1.524 . S
C7178 C7179 1.397 . S
C7178 C7183 1.363 . S
C7179 H7150 0.950 . S
C7179 C7178 1.397 . S
C7179 C7180 1.334 . S
C7180 H7151 0.950 . S
C7180 C7179 1.334 . S
C7180 C7181 1.287 . S
C7181 C7180 1.287 . S
C7181 C7182 1.524 . S
C7181 H7184 0.999 . S
C7182 H7152 0.950 . S
C7182 C7181 1.524 . S
C7182 C7183 1.415 . S
C7183 H7153 0.950 . S
C7183 C7178 1.363 . S
C7183 C7182 1.415 . S
H7184 C7181 0.999 . S
H7185 C7166 0.913 . S
H7186 C7204 0.951 . S
H7187 C7206 0.951 . S
H7188 C7208 0.950 . S
H7189 C7209 0.950 . S
H7190 C7211 0.950 . S
H7191 C7214 0.950 . S
H7192 C7215 0.950 . S
H7193 C7217 0.950 . S
H7194 C7218 0.950 . S
H7195 C7219 0.951 1_565 S
H7196 C7221 0.951 . S
H7197 C7223 0.950 . S
H7198 C7224 0.950 . S
H7199 C7226 0.910 1_565 S
H7200 C7229 0.950 . S
H7201 C7230 0.950 . S
H7202 C7232 0.950 . S
H7203 C7233 0.950 . S
C7204 H7186 0.951 . S
C7204 C7205 1.366 . S
C7204 C7206 1.388 . S
C7205 C7204 1.366 . S
C7205 C7209 1.385 . S
C7206 H7187 0.951 . S
C7206 C7204 1.388 . S
C7206 C7207 1.366 . S
C7207 C7206 1.366 . S
C7207 C7208 1.414 . S
C7207 C7210 1.499 . S
C7208 H7188 0.950 . S
C7208 C7207 1.414 . S
C7208 C7209 1.374 . S
C7209 H7189 0.950 . S
C7209 C7205 1.385 . S
C7209 C7208 1.374 . S
C7210 C7207 1.499 . S
C7210 C7211 1.373 . S
C7210 C7212 1.389 . S
C7211 H7190 0.950 . S
C7211 C7210 1.373 . S
C7211 C7227 1.377 . S
C7212 C7210 1.389 . S
C7212 C7213 1.524 1_545 S
C7212 C7226 1.352 . S
C7213 C7212 1.524 1_565 S
C7213 C7214 1.397 . S
C7213 C7218 1.363 . S
C7214 H7191 0.950 . S
C7214 C7213 1.397 . S
C7214 C7215 1.334 . S
C7215 H7192 0.950 . S
C7215 C7214 1.334 . S
C7215 C7216 1.287 . S
C7216 C7215 1.287 . S
C7216 C7217 1.524 . S
C7216 H7235 0.913 . S
C7217 H7193 0.950 . S
C7217 C7216 1.524 . S
C7217 C7218 1.415 . S
C7218 H7194 0.950 . S
C7218 C7213 1.363 . S
C7218 C7217 1.415 . S
C7219 H7195 0.951 1_545 S
C7219 C7220 1.366 . S
C7219 C7221 1.388 . S
C7220 C7219 1.366 . S
C7220 C7224 1.385 . S
C7221 H7196 0.951 . S
C7221 C7219 1.388 . S
C7221 C7222 1.366 . S
C7222 C7221 1.366 . S
C7222 C7223 1.414 . S
C7222 C7225 1.499 . S
C7223 H7197 0.950 . S
C7223 C7222 1.414 . S
C7223 C7224 1.374 . S
C7224 H7198 0.950 . S
C7224 C7220 1.385 . S
C7224 C7223 1.374 . S
C7225 C7222 1.499 . S
C7225 C7226 1.443 . S
C7225 C7227 1.389 . S
C7226 H7199 0.910 1_545 S
C7226 C7212 1.352 . S
C7226 C7225 1.443 . S
C7227 C7211 1.377 . S
C7227 C7225 1.389 . S
C7227 C7228 1.524 . S
C7228 C7227 1.524 . S
C7228 C7229 1.397 . S
C7228 C7233 1.363 . S
C7229 H7200 0.950 . S
C7229 C7228 1.397 . S
C7229 C7230 1.334 . S
C7230 H7201 0.950 . S
C7230 C7229 1.334 . S
C7230 C7231 1.287 . S
C7231 C7230 1.287 . S
C7231 C7232 1.524 . S
C7231 H7234 0.999 . S
C7232 H7202 0.950 . S
C7232 C7231 1.524 . S
C7232 C7233 1.415 . S
C7233 H7203 0.950 . S
C7233 C7228 1.363 . S
C7233 C7232 1.415 . S
H7234 C7231 0.999 . S
H7235 C7216 0.913 . S
C3655 C49 1.320 . S
C3670 C2639 1.130 . S
C3705 C137 1.650 . S
C3720 C2779 1.088 . S
C3770 C2867 1.201 . S
C3755 C205 1.400 . S
C3805 C196 1.443 . S
C3820 C3007 1.111 1_565 S
C3855 C57 1.434 . S
C3870 C3121 1.190 . S
C3905 C145 1.654 . S
C3920 C3209 1.255 . S
C3955 C313 1.346 . S
C3970 C3095 1.073 . S
C4020 C3235 1.279 . S
C4005 C401 1.577 . S
C4070 C2981 1.157 . S
C4055 C489 1.425 . S
C4105 C469 1.472 . S
C4120 C2893 1.053 . S
C4170 C2665 1.054 . S
C4155 C293 1.457 . S
C4205 C381 1.580 . S
C4220 C2753 1.380 . S
C4255 C577 1.730 . S
C4270 C3323 1.301 . S
C4305 C645 1.743 . S
C4320 C3463 1.143 . S
C4370 C3551 1.237 . S
C4355 C733 1.649 . S
C4405 C724 1.668 . S
C4420 C1639 1.107 . S
C4455 C585 1.781 . S
C4470 C1753 1.185 . S
C4505 C636 1.753 . S
C4520 C1841 1.328 . S
C4555 C841 1.439 . S
C4570 C1727 1.269 . S
C4605 C937 1.680 . S
C4620 C1867 1.401 . S
C4670 C1613 1.464 . S
C4655 C1025 1.664 . S
C4720 C3577 1.499 . S
C4705 C988 1.796 . S
C4770 C3349 1.322 . S
C4755 C821 1.604 . S
C4820 C3437 1.491 . S
C4805 C900 1.665 . S
C4855 C1105 1.529 . S
C4870 C1955 1.136 . S
C4905 C1193 1.762 . S
C4920 C2095 1.159 . S
C4955 C1281 1.742 . S
C4970 C2183 1.322 . S
C5005 C1289 1.866 . S
C5020 C2323 1.266 . S
C5070 C2437 1.104 . S
C5055 C1113 1.691 . S
C5120 C2525 1.315 . S
C5105 C1201 1.746 . S
C5170 C2411 1.460 . S
C5155 C1369 1.653 . S
C5220 C2551 1.384 . S
C5205 C1457 1.653 . S
C5255 C1553 1.554 . S
C5270 C2297 1.371 . S
C5320 C2209 1.314 . S
C5305 C1516 1.585 . S
C5355 C1349 1.710 . S
C5370 C1981 1.407 . S
C5420 C2069 1.493 . S
C5405 C1437 1.671 . S
C5470 C1595 0.996 . S
C5455 C29 1.840 . S
C5505 C117 1.546 . S
C5520 C1709 0.833 . S
C5570 C1813 1.259 . S
C5555 C225 1.774 . S
C5620 C1927 1.147 . S
C5605 C233 1.611 . S
C5670 C2051 0.987 . S
C5655 C20 1.810 . S
C5720 C2155 1.127 . S
C5705 C108 1.584 . S
C5755 C321 1.959 . S
C5770 C2165 1.521 . S
C5805 C409 1.664 . S
C5820 C1937 1.290 . S
C5855 C497 1.906 . S
C5870 C2041 1.702 . S
C5905 C460 1.735 . S
C5920 C1699 1.552 . S
C5970 C1823 1.518 . S
C5955 C284 1.928 . S
C6005 C372 1.698 . S
C6020 C1585 1.500 . S
C6070 C2279 0.891 . S
C6055 C557 1.644 . S
C6105 C665 1.733 . S
C6120 C2393 0.975 . S
C6155 C753 1.703 . S
C6170 C2497 1.247 . S
C6220 C2611 0.785 . S
C6205 C761 0.856 . S
C6255 C548 1.543 . S
C6270 C2735 0.836 . S
C6305 C673 1.017 . S
C6320 C2839 0.863 . S
C6355 C849 1.138 . S
C6370 C2849 0.781 1_565 S
C6405 C929 1.013 . S
C6420 C2621 0.754 1_455 S
C6470 C2725 1.438 . S
C6455 C1017 1.642 . S
C6505 C997 1.559 . S
C6520 C2383 1.385 . S
C6555 C812 1.829 . S
C6570 C2507 1.418 . S
C6620 C2269 1.639 . S
C6605 C909 1.867 . S
C6670 C2963 0.753 . S
C6655 C1085 1.120 . S
C6705 C1173 0.978 . S
C6720 C3077 0.749 . S
C6755 C1261 1.521 . S
C6770 C3181 1.091 . S
C6820 C3295 1.035 . S
C6805 C1252 1.430 . S
C6870 C3419 0.987 . S
C6855 C1076 1.733 . S
C6905 C1164 1.756 . S
C6920 C3523 1.280 . S
C6955 C1377 1.770 . S
C6970 C3533 1.352 . S
C7005 C1465 1.841 . S
C7020 C3305 1.417 . S
C7070 C3409 1.605 . S
C7055 C1545 1.814 . S
C7120 C3067 0.799 1_655 S
C7105 C1525 0.866 . S
C7170 C3191 1.265 . S
C7155 C1340 1.660 . S
C7205 C1428 1.043 . S
C7220 C2953 0.887 1_545 S
