# Generated by pormake.
# Topology nom, (4,4)-cn, num edge types: 1
# Building blocks:
#     Node 0, Type 0, BuildingBlock: MUDLON_clean_linker_0, # of connection points: 4
#     Node 1, Type 0, BuildingBlock: MUDLON_clean_linker_0, # of connection points: 4
#     Node 2, Type 0, BuildingBlock: MUDLON_clean_linker_0, # of connection points: 4
#     Node 3, Type 0, BuildingBlock: MUDLON_clean_linker_0, # of connection points: 4
#     Node 4, Type 0, BuildingBlock: MUDLON_clean_linker_0, # of connection points: 4
#     Node 5, Type 0, BuildingBlock: MUDLON_clean_linker_0, # of connection points: 4
#     Node 6, Type 1, BuildingBlock: UXUYUI_clean_sbu_0, # of connection points: 4
#     Node 7, Type 1, BuildingBlock: UXUYUI_clean_sbu_0, # of connection points: 4
#     Node 8, Type 1, BuildingBlock: UXUYUI_clean_sbu_0, # of connection points: 4
#     Node 9, Type 1, BuildingBlock: UXUYUI_clean_sbu_0, # of connection points: 4
#     Node 10, Type 1, BuildingBlock: UXUYUI_clean_sbu_0, # of connection points: 4
#     Node 11, Type 1, BuildingBlock: UXUYUI_clean_sbu_0, # of connection points: 4
#     Edge 12, Type (0, 1), BuildingBlock: CIFDUS_clean_linker_0, # of connection points: 2
#     Edge 13, Type (0, 1), BuildingBlock: CIFDUS_clean_linker_0, # of connection points: 2
#     Edge 14, Type (0, 1), BuildingBlock: CIFDUS_clean_linker_0, # of connection points: 2
#     Edge 15, Type (0, 1), BuildingBlock: CIFDUS_clean_linker_0, # of connection points: 2
#     Edge 16, Type (0, 1), BuildingBlock: CIFDUS_clean_linker_0, # of connection points: 2
#     Edge 17, Type (0, 1), BuildingBlock: CIFDUS_clean_linker_0, # of connection points: 2
#     Edge 18, Type (0, 1), BuildingBlock: CIFDUS_clean_linker_0, # of connection points: 2
#     Edge 19, Type (0, 1), BuildingBlock: CIFDUS_clean_linker_0, # of connection points: 2
#     Edge 20, Type (0, 1), BuildingBlock: CIFDUS_clean_linker_0, # of connection points: 2
#     Edge 21, Type (0, 1), BuildingBlock: CIFDUS_clean_linker_0, # of connection points: 2
#     Edge 22, Type (0, 1), BuildingBlock: CIFDUS_clean_linker_0, # of connection points: 2
#     Edge 23, Type (0, 1), BuildingBlock: CIFDUS_clean_linker_0, # of connection points: 2
#     Edge 24, Type (0, 1), BuildingBlock: CIFDUS_clean_linker_0, # of connection points: 2
#     Edge 25, Type (0, 1), BuildingBlock: CIFDUS_clean_linker_0, # of connection points: 2
#     Edge 26, Type (0, 1), BuildingBlock: CIFDUS_clean_linker_0, # of connection points: 2
#     Edge 27, Type (0, 1), BuildingBlock: CIFDUS_clean_linker_0, # of connection points: 2
#     Edge 28, Type (0, 1), BuildingBlock: CIFDUS_clean_linker_0, # of connection points: 2
#     Edge 29, Type (0, 1), BuildingBlock: CIFDUS_clean_linker_0, # of connection points: 2
#     Edge 30, Type (0, 1), BuildingBlock: CIFDUS_clean_linker_0, # of connection points: 2
#     Edge 31, Type (0, 1), BuildingBlock: CIFDUS_clean_linker_0, # of connection points: 2
#     Edge 32, Type (0, 1), BuildingBlock: CIFDUS_clean_linker_0, # of connection points: 2
#     Edge 33, Type (0, 1), BuildingBlock: CIFDUS_clean_linker_0, # of connection points: 2
#     Edge 34, Type (0, 1), BuildingBlock: CIFDUS_clean_linker_0, # of connection points: 2
#     Edge 35, Type (0, 1), BuildingBlock: CIFDUS_clean_linker_0, # of connection points: 2
# Relax obj value: 0.038
# Max RMSD: 0.150
# Mean RMSD: 0.119
data_MOF--net-nom--node1-UXUYUI_clean_sbu_0--node2-MUDLON_clean_linker_0--edge1-CIFDUS_clean_linker_0
_symmetry_space_group_name_H-M    P1
_symmetry_Int_Tables_number       1
_symmetry_cell_setting            triclinic
loop_
_symmetry_equiv_pos_as_xyz
'x, y, z'
_cell_length_a     65.07482
_cell_length_b     65.699854
_cell_length_c     65.727773
_cell_angle_alpha  90.333904
_cell_angle_beta   89.805987
_cell_angle_gamma 120.30229
loop_
_atom_site_label
_atom_site_type_symbol
_atom_site_fract_x
_atom_site_fract_y
_atom_site_fract_z
_atom_type_partial_charge
H0 H 0.13801 0.53342 0.32212 0.0
N1 N 0.10526 0.54013 0.33997 0.0
H2 H 0.16987 0.56034 0.29923 0.0
H3 H 0.10973 0.58024 0.32312 0.0
H4 H 0.14145 0.60722 0.30028 0.0
H5 H 0.12603 0.58372 0.35824 0.0
H6 H 0.14568 0.594 0.39103 0.0
H7 H 0.10222 0.51044 0.3687 0.0
H8 H 0.1198 0.52014 0.40263 0.0
H9 H 0.07665 0.49717 0.32582 0.0
H10 H 0.07752 0.55995 0.34623 0.0
H11 H 0.03396 0.478 0.31966 0.0
H12 H 0.03485 0.54155 0.33893 0.0
H13 H 0.89776 0.41562 0.29765 0.0
H14 H 0.8792 0.41009 0.26428 0.0
H15 H 0.92246 0.48499 0.25326 0.0
H16 H 0.94012 0.49034 0.28705 0.0
H17 H 0.91828 0.49109 0.31797 0.0
H18 H 0.88606 0.49003 0.33821 0.0
H19 H 0.87243 0.4247 0.36541 0.0
H20 H 0.90435 0.42563 0.34475 0.0
H21 H 0.96293 0.45469 0.2931 0.0
H22 H 0.0057 0.47716 0.2978 0.0
H23 H 0.99649 0.51228 0.34984 0.0
N24 N 0.92909 0.45593 0.3154 0.0
H25 H 0.95386 0.49097 0.34438 0.0
C26 C 0.12156 0.55478 0.32436 0.0
C27 C 0.13842 0.54928 0.31704 0.0
C28 C 0.15654 0.56464 0.30395 0.0
C29 C 0.15822 0.58596 0.29804 0.0
C30 C 0.14072 0.59102 0.30473 0.0
C31 C 0.12247 0.57552 0.31769 0.0
C32 C 0.11323 0.54629 0.36072 0.0
C33 C 0.12461 0.56972 0.36776 0.0
C34 C 0.13566 0.57555 0.38682 0.0
C35 C 0.13487 0.558 0.3996 0.0
C36 C 0.12168 0.53433 0.39307 0.0
C37 C 0.11127 0.52863 0.37377 0.0
C38 C 0.08021 0.52996 0.33616 0.0
C39 C 0.06756 0.5069 0.32865 0.0
C40 C 0.04317 0.4961 0.32497 0.0
C41 C 0.03083 0.50829 0.32847 0.0
C42 C 0.04364 0.53153 0.33614 0.0
C43 C 0.06811 0.54222 0.34009 0.0
C44 C 0.92033 0.45326 0.2948 0.0
C45 C 0.90335 0.43075 0.2879 0.0
C46 C 0.89289 0.42766 0.26876 0.0
C47 C 0.89931 0.44709 0.25599 0.0
C48 C 0.9168 0.46966 0.26277 0.0
C49 C 0.92709 0.47275 0.28203 0.0
C50 C 0.91347 0.4582 0.32971 0.0
C51 C 0.90856 0.47671 0.32846 0.0
C52 C 0.89017 0.47608 0.34002 0.0
C53 C 0.87664 0.45718 0.35324 0.0
C54 C 0.88265 0.43955 0.35544 0.0
C55 C 0.90083 0.44003 0.34368 0.0
C56 C 0.95467 0.47122 0.31789 0.0
C57 C 0.97005 0.46765 0.30524 0.0
C58 C 0.99463 0.48032 0.30817 0.0
C59 C 0.00472 0.49647 0.32436 0.0
C60 C 0.98948 0.50029 0.33701 0.0
C61 C 0.96481 0.48786 0.33387 0.0
H62 H 0.49336 0.89555 0.48495 0.0
N63 N 0.49362 0.93361 0.47164 0.0
H64 H 0.4625 0.86329 0.50474 0.0
H65 H 0.45515 0.93313 0.48926 0.0
H66 H 0.42452 0.90138 0.50996 0.0
H67 H 0.4527 0.92197 0.45092 0.0
H68 H 0.44262 0.90549 0.41653 0.0
H69 H 0.52237 0.92995 0.44492 0.0
H70 H 0.51243 0.9135 0.41038 0.0
H71 H 0.52977 0.95783 0.49674 0.0
H72 H 0.48014 0.96483 0.45838 0.0
H73 H 0.54963 0.99982 0.50485 0.0
H74 H 0.50069 0.00711 0.46538 0.0
H75 H 0.62173 0.1368 0.51881 0.0
H76 H 0.62695 0.15494 0.55234 0.0
H77 H 0.55114 0.11251 0.56283 0.0
H78 H 0.54608 0.09539 0.52896 0.0
H79 H 0.55139 0.12514 0.49993 0.0
H80 H 0.55746 0.15907 0.48025 0.0
H81 H 0.61515 0.15861 0.44777 0.0
H82 H 0.60977 0.12551 0.46853 0.0
H83 H 0.59778 0.07801 0.49607 0.0
H84 H 0.57539 0.03572 0.48926 0.0
H85 H 0.50998 0.03781 0.48919 0.0
N86 N 0.58122 0.10714 0.50042 0.0
H87 H 0.53295 0.08049 0.4949 0.0
C88 C 0.47667 0.91673 0.48575 0.0
C89 C 0.47855 0.89705 0.49069 0.0
C90 C 0.4609 0.87868 0.50211 0.0
C91 C 0.44093 0.87965 0.50906 0.0
C92 C 0.43947 0.89986 0.50467 0.0
C93 C 0.4571 0.91818 0.49302 0.0
C94 C 0.48831 0.92702 0.45052 0.0
C95 C 0.46596 0.92049 0.4421 0.0
C96 C 0.46017 0.91097 0.42247 0.0
C97 C 0.47666 0.908 0.41085 0.0
C98 C 0.49942 0.9157 0.41892 0.0
C99 C 0.50512 0.92505 0.43861 0.0
C100 C 0.50381 0.95823 0.47673 0.0
C101 C 0.52325 0.96851 0.49001 0.0
C102 C 0.5347 0.99258 0.49444 0.0
C103 C 0.52713 0.00709 0.48545 0.0
C104 C 0.50702 0.99656 0.47266 0.0
C105 C 0.49534 0.97233 0.46846 0.0
C106 C 0.58366 0.11465 0.52138 0.0
C107 C 0.60634 0.13117 0.52854 0.0
C108 C 0.60925 0.14145 0.54775 0.0
C109 C 0.58945 0.13525 0.56036 0.0
C110 C 0.56675 0.11799 0.55344 0.0
C111 C 0.56385 0.10791 0.53409 0.0
C112 C 0.58052 0.12313 0.48593 0.0
C113 C 0.56507 0.13209 0.48834 0.0
C114 C 0.56851 0.15149 0.47694 0.0
C115 C 0.58717 0.162 0.46267 0.0
C116 C 0.60108 0.15147 0.45904 0.0
C117 C 0.59787 0.13236 0.47067 0.0
C118 C 0.56707 0.08228 0.49618 0.0
C119 C 0.57861 0.06927 0.49452 0.0
C120 C 0.56569 0.04504 0.49082 0.0
C121 C 0.54073 0.03312 0.48896 0.0
C122 C 0.52916 0.04633 0.4904 0.0
C123 C 0.54223 0.07073 0.49386 0.0
H124 H 0.50395 0.62175 0.65426 0.0
N125 N 0.49719 0.58446 0.67509 0.0
H126 H 0.47518 0.62508 0.63268 0.0
H127 H 0.45378 0.54801 0.66334 0.0
H128 H 0.42463 0.55122 0.64205 0.0
H129 H 0.45785 0.55776 0.69864 0.0
H130 H 0.44961 0.56869 0.73182 0.0
H131 H 0.52743 0.62006 0.69853 0.0
H132 H 0.51986 0.63069 0.73235 0.0
H133 H 0.53633 0.59648 0.65406 0.0
H134 H 0.47962 0.53852 0.68655 0.0
H135 H 0.55492 0.57284 0.64725 0.0
H136 H 0.49851 0.51484 0.68049 0.0
H137 H 0.62159 0.50779 0.63386 0.0
H138 H 0.63207 0.50071 0.59986 0.0
H139 H 0.55762 0.46401 0.5832 0.0
H140 H 0.54739 0.47053 0.61746 0.0
H141 H 0.54461 0.44507 0.6469 0.0
H142 H 0.54564 0.4132 0.66506 0.0
H143 H 0.60686 0.46468 0.69905 0.0
H144 H 0.60602 0.49636 0.68035 0.0
H145 H 0.59702 0.53676 0.65893 0.0
H146 H 0.57623 0.55836 0.66557 0.0
H147 H 0.50888 0.49461 0.65499 0.0
N148 N 0.5784 0.49182 0.64908 0.0
H149 H 0.52999 0.473 0.64914 0.0
C150 C 0.48095 0.58478 0.66048 0.0
C151 C 0.48683 0.60621 0.65128 0.0
C152 C 0.47041 0.60804 0.63896 0.0
C153 C 0.44762 0.58843 0.63577 0.0
C154 C 0.442 0.56667 0.64442 0.0
C155 C 0.45861 0.5648 0.65656 0.0
C156 C 0.49323 0.58832 0.69598 0.0
C157 C 0.47158 0.57356 0.70593 0.0
C158 C 0.46695 0.57979 0.72507 0.0
C159 C 0.48395 0.60076 0.73474 0.0
C160 C 0.50613 0.61471 0.72519 0.0
C161 C 0.51062 0.60857 0.70598 0.0
C162 C 0.50685 0.56942 0.67095 0.0
C163 C 0.52797 0.57862 0.65976 0.0
C164 C 0.53863 0.56511 0.65604 0.0
C165 C 0.52844 0.54201 0.66359 0.0
C166 C 0.50681 0.53251 0.67438 0.0
C167 C 0.49605 0.54609 0.67799 0.0
C168 C 0.58383 0.48983 0.62817 0.0
C169 C 0.60763 0.49854 0.62271 0.0
C170 C 0.61355 0.49454 0.60325 0.0
C171 C 0.59569 0.48172 0.58874 0.0
C172 C 0.57181 0.47364 0.59406 0.0
C173 C 0.56592 0.47757 0.61362 0.0
C174 C 0.57541 0.47309 0.66224 0.0
C175 C 0.55789 0.44949 0.65857 0.0
C176 C 0.5585 0.43127 0.66901 0.0
C177 C 0.57658 0.43638 0.68327 0.0
C178 C 0.593 0.46012 0.68786 0.0
C179 C 0.59242 0.47824 0.67738 0.0
C180 C 0.56514 0.50344 0.6534 0.0
C181 C 0.57776 0.52749 0.65814 0.0
C182 C 0.56582 0.5398 0.66176 0.0
C183 C 0.54084 0.52833 0.66054 0.0
C184 C 0.5281 0.504 0.65614 0.0
C185 C 0.54015 0.49163 0.65263 0.0
H186 H 0.14184 0.61216 0.82673 0.0
N187 N 0.10542 0.57415 0.81053 0.0
H188 H 0.17467 0.61437 0.84645 0.0
H189 H 0.1077 0.5364 0.82534 0.0
H190 H 0.14023 0.53832 0.84538 0.0
H191 H 0.11359 0.54355 0.78838 0.0
H192 H 0.13031 0.55016 0.7542 0.0
H193 H 0.11178 0.60809 0.78511 0.0
H194 H 0.12763 0.61447 0.75043 0.0
H195 H 0.08086 0.59098 0.82881 0.0
H196 H 0.07403 0.52716 0.80372 0.0
H197 H 0.03847 0.57017 0.83691 0.0
H198 H 0.03163 0.5058 0.81239 0.0
H199 H 0.90766 0.51837 0.85378 0.0
H200 H 0.88621 0.50892 0.88618 0.0
H201 H 0.91002 0.45978 0.89951 0.0
H202 H 0.93201 0.46994 0.86736 0.0
H203 H 0.91435 0.45126 0.83579 0.0
H204 H 0.87958 0.42255 0.81667 0.0
H205 H 0.87575 0.47951 0.78768 0.0
H206 H 0.9095 0.50794 0.80814 0.0
H207 H 0.96703 0.5263 0.86348 0.0
H208 H 0.00924 0.54166 0.85867 0.0
H209 H 0.99484 0.50323 0.80203 0.0
N210 N 0.93116 0.49878 0.83784 0.0
H211 H 0.95255 0.4869 0.80718 0.0
C212 C 0.12238 0.57423 0.82459 0.0
C213 C 0.1412 0.59599 0.83113 0.0
C214 C 0.15989 0.59717 0.84245 0.0
C215 C 0.16012 0.57651 0.84748 0.0
C216 C 0.14072 0.55458 0.84157 0.0
C217 C 0.12199 0.55343 0.83021 0.0
C218 C 0.11166 0.57552 0.78935 0.0
C219 C 0.1163 0.5589 0.78013 0.0
C220 C 0.12579 0.56267 0.76048 0.0
C221 C 0.13063 0.58303 0.7496 0.0
C222 C 0.12466 0.59889 0.75851 0.0
C223 C 0.11536 0.59518 0.77821 0.0
C224 C 0.08058 0.56069 0.81577 0.0
C225 C 0.07018 0.57235 0.82532 0.0
C226 C 0.04598 0.56033 0.83008 0.0
C227 C 0.03157 0.53619 0.82548 0.0
C228 C 0.04213 0.5244 0.81603 0.0
C229 C 0.06643 0.53655 0.81118 0.0
C230 C 0.92129 0.49484 0.85813 0.0
C231 C 0.90855 0.50588 0.8639 0.0
C232 C 0.89615 0.50029 0.88231 0.0
C233 C 0.89616 0.48338 0.89533 0.0
C234 C 0.90975 0.47298 0.8899 0.0
C235 C 0.9222 0.47863 0.87146 0.0
C236 C 0.91413 0.48176 0.8237 0.0
C237 C 0.90607 0.45753 0.82526 0.0
C238 C 0.88628 0.44111 0.81408 0.0
C239 C 0.87444 0.44861 0.80085 0.0
C240 C 0.88389 0.47299 0.79816 0.0
C241 C 0.90337 0.48933 0.80961 0.0
C242 C 0.95587 0.50456 0.83621 0.0
C243 C 0.97267 0.52035 0.85035 0.0
C244 C 0.99702 0.52953 0.84741 0.0
C245 C 0.00554 0.52386 0.82987 0.0
C246 C 0.98894 0.50772 0.81588 0.0
C247 C 0.96448 0.49831 0.81891 0.0
H248 H 0.53226 0.14143 0.99591 0.0
N249 N 0.53804 0.10853 0.97788 0.0
H250 H 0.56106 0.17448 0.0167 0.0
H251 H 0.58068 0.11496 0.9916 0.0
H252 H 0.60949 0.14769 0.01272 0.0
H253 H 0.5781 0.12232 0.95501 0.0
H254 H 0.58585 0.14011 0.92136 0.0
H255 H 0.50691 0.11102 0.95356 0.0
H256 H 0.51402 0.12779 0.91936 0.0
H257 H 0.49733 0.08021 0.9963 0.0
H258 H 0.55825 0.08165 0.96891 0.0
H259 H 0.47983 0.03823 0.0033 0.0
H260 H 0.54132 0.03969 0.97646 0.0
H261 H 0.41711 0.905 0.02146 0.0
H262 H 0.41069 0.8856 0.05436 0.0
H263 H 0.48636 0.92617 0.06618 0.0
H264 H 0.49258 0.94469 0.03286 0.0
H265 H 0.49787 0.93046 1.00019 0.0
H266 H 0.4993 0.89805 0.98292 0.0
H267 H 0.4276 0.87151 0.96111 0.0
H268 H 0.42641 0.90393 0.97841 0.0
H269 H 0.46214 0.96922 0.02949 0.0
H270 H 0.48398 0.0114 0.02424 0.0
H271 H 0.50894 1.00125 0.96624 0.0
N272 N 0.45839 0.93494 0.0041 0.0
H273 H 0.48794 0.95903 0.97175 0.0
C274 C 0.55424 0.12576 0.99225 0.0
C275 C 0.54893 0.14252 0.99987 0.0
C276 C 0.5654 0.16133 0.0118 0.0
C277 C 0.58765 0.1638 0.01637 0.0
C278 C 0.59264 0.14648 0.00928 0.0
C279 C 0.57609 0.12762 0.99732 0.0
C280 C 0.54195 0.11561 0.95687 0.0
C281 C 0.56395 0.12321 0.94726 0.0
C282 C 0.5683 0.13328 0.92789 0.0
C283 C 0.55066 0.13569 0.91767 0.0
C284 C 0.52821 0.12675 0.92693 0.0
C285 C 0.52399 0.11692 0.94637 0.0
C286 C 0.52903 0.08403 0.98223 0.0
C287 C 0.50702 0.07143 0.99204 0.0
C288 C 0.49717 0.04747 0.99614 0.0
C289 C 0.50925 0.03553 0.99063 0.0
C290 C 0.53146 0.04826 0.9808 0.0
C291 C 0.54127 0.07232 0.97661 0.0
C292 C 0.4552 0.92628 0.02472 0.0
C293 C 0.43221 0.90989 0.03132 0.0
C294 C 0.42862 0.89891 0.05019 0.0
C295 C 0.44802 0.90425 0.06298 0.0
C296 C 0.47104 0.92131 0.0566 0.0
C297 C 0.47464 0.93208 0.03761 0.0
C298 C 0.46189 0.91948 0.99064 0.0
C299 C 0.48268 0.91793 0.99134 0.0
C300 C 0.48342 0.89935 0.98154 0.0
C301 C 0.46347 0.88206 0.97081 0.0
C302 C 0.44335 0.88461 0.96906 0.0
C303 C 0.44261 0.90311 0.97892 0.0
C304 C 0.47399 0.96031 0.00164 0.0
C305 C 0.47294 0.97588 0.01592 0.0
C306 C 0.48519 1.00018 0.01273 0.0
C307 C 0.49827 0.00982 0.9948 0.0
C308 C 0.49947 0.99451 0.98044 0.0
C309 C 0.48734 0.97011 0.9837 0.0
H310 H 0.53414 0.42301 0.14475 0.0
N311 N 0.53999 0.45574 0.17162 0.0
H312 H 0.56491 0.42192 0.12404 0.0
H313 H 0.58558 0.49196 0.16709 0.0
H314 H 0.6167 0.49096 0.14664 0.0
H315 H 0.57112 0.48387 0.20108 0.0
H316 H 0.57752 0.47094 0.23397 0.0
H317 H 0.51414 0.4134 0.18811 0.0
H318 H 0.52051 0.4002 0.22112 0.0
H319 H 0.49977 0.44024 0.15131 0.0
H320 H 0.55447 0.50133 0.18254 0.0
H321 H 0.47833 0.46105 0.14453 0.0
H322 H 0.53248 0.52192 0.17711 0.0
H323 H 0.4049 0.52033 0.1298 0.0
H324 H 0.39607 0.52909 0.09584 0.0
H325 H 0.4714 0.56997 0.08303 0.0
H326 H 0.48001 0.5613 0.11694 0.0
H327 H 0.47553 0.58511 0.1442 0.0
H328 H 0.47097 0.61388 0.16402 0.0
H329 H 0.41954 0.55796 0.2025 0.0
H330 H 0.42283 0.5291 0.18126 0.0
H331 H 0.43158 0.49221 0.15475 0.0
H332 H 0.45485 0.47324 0.16121 0.0
H333 H 0.51971 0.54034 0.1537 0.0
N334 N 0.44732 0.5371 0.14693 0.0
H335 H 0.49599 0.5593 0.14859 0.0
C336 C 0.55765 0.4574 0.15749 0.0
C337 C 0.55203 0.4381 0.14482 0.0
C338 C 0.56961 0.43755 0.13301 0.0
C339 C 0.59325 0.4563 0.13382 0.0
C340 C 0.59867 0.47616 0.14589 0.0
C341 C 0.58094 0.47678 0.15755 0.0
C342 C 0.54195 0.44956 0.19219 0.0
C343 C 0.55955 0.46575 0.2055 0.0
C344 C 0.56322 0.45832 0.22434 0.0
C345 C 0.54958 0.43453 0.23008 0.0
C346 C 0.53142 0.41859 0.21703 0.0
C347 C 0.52765 0.4261 0.19829 0.0
C348 C 0.52839 0.46901 0.16771 0.0
C349 C 0.50699 0.45812 0.15687 0.0
C350 C 0.49468 0.47002 0.15321 0.0
C351 C 0.50336 0.4931 0.1606 0.0
C352 C 0.52523 0.50423 0.1711 0.0
C353 C 0.53775 0.49235 0.17446 0.0
C354 C 0.443 0.54008 0.12596 0.0
C355 C 0.41944 0.5308 0.11948 0.0
C356 C 0.41446 0.53579 0.10009 0.0
C357 C 0.43306 0.55035 0.0868 0.0
C358 C 0.4567 0.55894 0.09303 0.0
C359 C 0.46164 0.55382 0.1124 0.0
C360 C 0.44893 0.55482 0.16091 0.0
C361 C 0.46336 0.57903 0.15694 0.0
C362 C 0.46089 0.59558 0.16854 0.0
C363 C 0.44445 0.58834 0.18473 0.0
C364 C 0.43175 0.56423 0.18976 0.0
C365 C 0.43381 0.54767 0.17783 0.0
C366 C 0.462 0.52696 0.1509 0.0
C367 C 0.45083 0.50276 0.15458 0.0
C368 C 0.46423 0.49195 0.15807 0.0
C369 C 0.48928 0.50511 0.15764 0.0
C370 C 0.50051 0.5296 0.15425 0.0
C371 C 0.48698 0.54047 0.15107 0.0
Li372 Li 0.63729 0.40067 0.4281 0.0
Li373 Li 0.6307 0.36424 0.41177 0.0
Li374 Li 0.66825 0.40352 0.40486 0.0
Li375 Li 0.62936 0.39467 0.39043 0.0
C376 C 0.66459 0.38806 0.45017 0.0
N377 N 0.67978 0.39384 0.49007 0.0
C378 C 0.65267 0.36974 0.46409 0.0
C379 C 0.68446 0.40915 0.45643 0.0
C380 C 0.66055 0.37305 0.48423 0.0
C381 C 0.6918 0.41178 0.47671 0.0
C382 C 0.585 0.35946 0.41146 0.0
C383 C 0.55256 0.33101 0.39074 0.0
N384 N 0.53778 0.32496 0.4071 0.0
C385 C 0.56945 0.35314 0.42802 0.0
C386 C 0.57647 0.34847 0.39263 0.0
C387 C 0.54566 0.33558 0.42552 0.0
C388 C 0.63478 0.43458 0.45376 0.0
N389 N 0.63019 0.41202 0.45231 0.0
C390 C 0.61228 0.40318 0.48529 0.0
C391 C 0.619 0.39631 0.46753 0.0
C392 C 0.61663 0.42635 0.48728 0.0
C393 C 0.62814 0.44217 0.4712 0.0
H394 H 0.64309 0.44655 0.44121 0.0
H395 H 0.61493 0.3783 0.46574 0.0
C396 C 0.62957 0.32102 0.40633 0.0
N397 N 0.61868 0.33145 0.41587 0.0
C398 C 0.62211 0.29735 0.40993 0.0
C399 C 0.59233 0.29557 0.4331 0.0
C400 C 0.60045 0.3193 0.42912 0.0
C401 C 0.60334 0.28434 0.42358 0.0
H402 H 0.64434 0.33121 0.39617 0.0
H403 H 0.59265 0.32819 0.43707 0.0
C404 C 0.66891 0.44661 0.40273 0.0
N405 N 0.70159 0.49377 0.39686 0.0
C406 C 0.66884 0.45764 0.38463 0.0
C407 C 0.68543 0.4596 0.41792 0.0
C408 C 0.68555 0.48149 0.38193 0.0
C409 C 0.70185 0.48341 0.41464 0.0
C410 C 0.64689 0.36849 0.36708 0.0
C411 C 0.66649 0.3799 0.35407 0.0
C412 C 0.62714 0.34714 0.36104 0.0
C413 C 0.66582 0.36995 0.33507 0.0
C414 C 0.62717 0.33775 0.34193 0.0
N415 N 0.64633 0.34927 0.32943 0.0
C416 C 0.71345 0.40746 0.40621 0.0
C417 C 0.7117 0.4356 0.38508 0.0
C418 C 0.73682 0.41519 0.39999 0.0
N419 N 0.70133 0.41753 0.39854 0.0
C420 C 0.73511 0.44414 0.37872 0.0
C421 C 0.74789 0.43358 0.38578 0.0
H422 H 0.70462 0.39279 0.4166 0.0
H423 H 0.70157 0.44284 0.37862 0.0
C424 C 0.59647 0.40458 0.37157 0.0
N425 N 0.61485 0.40076 0.36793 0.0
C426 C 0.58603 0.41007 0.35556 0.0
C427 C 0.61352 0.40743 0.33239 0.0
C428 C 0.6236 0.4023 0.34884 0.0
C429 C 0.59454 0.41146 0.33565 0.0
H430 H 0.59007 0.40354 0.38696 0.0
H431 H 0.63869 0.40001 0.34637 0.0
O432 O 0.65705 0.38519 0.43044 0.0
O433 O 0.60834 0.37659 0.41368 0.0
O434 O 0.65276 0.42326 0.40555 0.0
O435 O 0.64732 0.37797 0.38577 0.0
H436 H 0.63737 0.35322 0.45941 0.0
H437 H 0.69416 0.42329 0.44573 0.0
H438 H 0.65139 0.3591 0.49521 0.0
H439 H 0.7071 0.42805 0.4818 0.0
H440 H 0.54573 0.32232 0.37626 0.0
H441 H 0.57575 0.36162 0.44267 0.0
H442 H 0.58812 0.35349 0.37958 0.0
H443 H 0.53346 0.33041 0.43823 0.0
H444 H 0.60373 0.39039 0.4973 0.0
H445 H 0.63147 0.46005 0.47183 0.0
H446 H 0.63106 0.28936 0.40224 0.0
H447 H 0.57815 0.28635 0.44405 0.0
H448 H 0.6561 0.44785 0.37274 0.0
H449 H 0.68553 0.4514 0.4321 0.0
H450 H 0.68578 0.49024 0.36797 0.0
H451 H 0.71479 0.49367 0.42624 0.0
H452 H 0.68198 0.39635 0.35854 0.0
H453 H 0.61206 0.33777 0.37108 0.0
H454 H 0.6808 0.37866 0.3248 0.0
H455 H 0.61199 0.32126 0.33706 0.0
H456 H 0.74569 0.40617 0.40563 0.0
H457 H 0.74287 0.45856 0.36799 0.0
H458 H 0.57141 0.41307 0.35867 0.0
H459 H 0.6209 0.4088 0.31732 0.0
Li460 Li 0.26355 0.64704 0.59437 0.0
Li461 Li 0.29253 0.63746 0.58029 0.0
Li462 Li 0.29469 0.67636 0.57318 0.0
Li463 Li 0.26371 0.64015 0.5571 0.0
C464 C 0.29926 0.66497 0.62009 0.0
N465 N 0.2993 0.66688 0.6621 0.0
C466 C 0.29857 0.64675 0.63149 0.0
C467 C 0.30019 0.68428 0.63005 0.0
C468 C 0.29855 0.64802 0.65272 0.0
C469 C 0.30013 0.68488 0.6513 0.0
C470 C 0.24935 0.59449 0.57487 0.0
C471 C 0.24904 0.56568 0.55174 0.0
N472 N 0.23406 0.54817 0.56448 0.0
C473 C 0.23378 0.57618 0.58765 0.0
C474 C 0.25691 0.58918 0.55672 0.0
C475 C 0.22632 0.55289 0.58216 0.0
C476 C 0.2348 0.65542 0.62244 0.0
N477 N 0.24386 0.64133 0.61768 0.0
C478 C 0.22507 0.61722 0.64673 0.0
C479 C 0.23929 0.62253 0.6294 0.0
C480 C 0.21558 0.63154 0.65211 0.0
C481 C 0.22066 0.65091 0.63976 0.0
H482 H 0.23851 0.67014 0.61281 0.0
H483 H 0.24696 0.61179 0.6254 0.0
C484 C 0.33563 0.63828 0.58458 0.0
N485 N 0.3117 0.62377 0.58623 0.0
C486 C 0.35118 0.63064 0.59061 0.0
C487 C 0.31718 0.59301 0.59948 0.0
C488 C 0.3023 0.60145 0.59343 0.0
C489 C 0.34203 0.60778 0.59845 0.0
H490 H 0.34263 0.65608 0.57911 0.0
H491 H 0.28331 0.59037 0.59513 0.0
C492 C 0.259 0.68478 0.56859 0.0
N493 N 0.25828 0.72593 0.56204 0.0
C494 C 0.24926 0.68769 0.55069 0.0
C495 C 0.26809 0.70269 0.58327 0.0
C496 C 0.24912 0.70865 0.54763 0.0
C497 C 0.26766 0.7234 0.57965 0.0
C498 C 0.30762 0.65277 0.53593 0.0
C499 C 0.31231 0.66902 0.52043 0.0
C500 C 0.31296 0.63485 0.53284 0.0
C501 C 0.32153 0.66666 0.50191 0.0
C502 C 0.32219 0.63309 0.51412 0.0
N503 N 0.32622 0.64888 0.49916 0.0
C504 C 0.33432 0.72152 0.58193 0.0
C505 C 0.31468 0.71909 0.55097 0.0
C506 C 0.35152 0.74495 0.57798 0.0
N507 N 0.31652 0.70906 0.56839 0.0
C508 C 0.3316 0.74235 0.5463 0.0
C509 C 0.35058 0.7556 0.55975 0.0
H510 H 0.33544 0.71311 0.59564 0.0
H511 H 0.3003 0.70885 0.54048 0.0
C512 C 0.22393 0.60689 0.53334 0.0
N513 N 0.24423 0.62836 0.53321 0.0
C514 C 0.20909 0.59895 0.5163 0.0
C515 C 0.23554 0.6358 0.49964 0.0
C516 C 0.25017 0.6428 0.51682 0.0
C517 C 0.21478 0.6136 0.49928 0.0
H518 H 0.21888 0.59609 0.5468 0.0
H519 H 0.26583 0.66013 0.51735 0.0
O520 O 0.29868 0.66374 0.59929 0.0
O521 O 0.25707 0.61742 0.58017 0.0
O522 O 0.25962 0.6645 0.57172 0.0
O523 O 0.29896 0.65503 0.55434 0.0
H524 H 0.2977 0.63161 0.62406 0.0
H525 H 0.30092 0.69862 0.6215 0.0
H526 H 0.29785 0.63395 0.66173 0.0
H527 H 0.30074 0.69966 0.65921 0.0
H528 H 0.25475 0.56137 0.53771 0.0
H529 H 0.22751 0.57987 0.60167 0.0
H530 H 0.26832 0.60303 0.5464 0.0
H531 H 0.21435 0.53856 0.59195 0.0
H532 H 0.22187 0.60233 0.65601 0.0
H533 H 0.21353 0.66226 0.64333 0.0
H534 H 0.37017 0.64284 0.58986 0.0
H535 H 0.30927 0.5752 0.60523 0.0
H536 H 0.2418 0.67391 0.5393 0.0
H537 H 0.2757 0.70075 0.59719 0.0
H538 H 0.24171 0.71116 0.53381 0.0
H539 H 0.27483 0.73747 0.59081 0.0
H540 H 0.30878 0.68326 0.52257 0.0
H541 H 0.31011 0.62243 0.54476 0.0
H542 H 0.32502 0.67903 0.48975 0.0
H543 H 0.32625 0.61921 0.51153 0.0
H544 H 0.36554 0.7545 0.589 0.0
H545 H 0.33021 0.74953 0.53193 0.0
H546 H 0.19297 0.58186 0.51663 0.0
H547 H 0.24035 0.64762 0.4868 0.0
Li548 Li 0.67314 0.28666 0.74438 0.0
Li549 Li 0.63486 0.25738 0.75824 0.0
Li550 Li 0.64316 0.25827 0.72157 0.0
Li551 Li 0.63698 0.28893 0.73652 0.0
C552 C 0.67634 0.24668 0.74666 0.0
N553 N 0.71255 0.23672 0.7512 0.0
C554 C 0.67782 0.23577 0.76435 0.0
C555 C 0.69312 0.25228 0.7312 0.0
C556 C 0.6963 0.23094 0.76638 0.0
C557 C 0.71134 0.24717 0.7338 0.0
C558 C 0.66302 0.29917 0.7821 0.0
C559 C 0.67748 0.32721 0.80979 0.0
N560 N 0.68525 0.31407 0.81942 0.0
C561 C 0.6711 0.28594 0.79228 0.0
C562 C 0.66619 0.31996 0.79091 0.0
C563 C 0.68231 0.29376 0.81112 0.0
C564 C 0.71688 0.32806 0.74052 0.0
N565 N 0.70642 0.30663 0.74968 0.0
C566 C 0.74253 0.31706 0.76736 0.0
C567 C 0.71875 0.30088 0.76288 0.0
C568 C 0.75361 0.3395 0.75843 0.0
C569 C 0.74055 0.34484 0.74469 0.0
H570 H 0.70661 0.33232 0.73031 0.0
H571 H 0.71002 0.28406 0.77045 0.0
C572 C 0.61392 0.21403 0.77807 0.0
N573 N 0.61924 0.23673 0.78044 0.0
C574 C 0.60431 0.1982 0.7942 0.0
C575 C 0.60516 0.22925 0.81474 0.0
C576 C 0.61461 0.24444 0.79815 0.0
C577 C 0.60019 0.20583 0.813 0.0
H578 H 0.61764 0.20837 0.76373 0.0
H579 H 0.61882 0.26254 0.79959 0.0
C580 C 0.66881 0.29766 0.69825 0.0
N581 N 0.68078 0.30704 0.65764 0.0
C582 C 0.65482 0.30242 0.68524 0.0
C583 C 0.68913 0.29811 0.6907 0.0
C584 C 0.6611 0.307 0.66473 0.0
C585 C 0.69482 0.30277 0.6701 0.0
C586 C 0.59203 0.24977 0.74219 0.0
C587 C 0.57104 0.23202 0.73337 0.0
C588 C 0.59084 0.2627 0.75866 0.0
C589 C 0.54914 0.22749 0.74119 0.0
C590 C 0.5686 0.25762 0.76604 0.0
N591 N 0.54838 0.24027 0.75723 0.0
C592 C 0.64318 0.22192 0.69819 0.0
C593 C 0.62638 0.24201 0.6816 0.0
C594 C 0.63894 0.20752 0.68117 0.0
N595 N 0.63723 0.239 0.69799 0.0
C596 C 0.62195 0.22812 0.66418 0.0
C597 C 0.62833 0.21061 0.66377 0.0
H598 H 0.65095 0.21922 0.71164 0.0
H599 H 0.62105 0.25514 0.68207 0.0
C600 C 0.64118 0.33313 0.73812 0.0
N601 N 0.62655 0.31075 0.73144 0.0
C602 C 0.63638 0.35098 0.73336 0.0
C603 C 0.60126 0.32237 0.71516 0.0
C604 C 0.60673 0.305 0.72034 0.0
C605 C 0.61645 0.34584 0.72139 0.0
H606 H 0.65699 0.33722 0.74666 0.0
H607 H 0.59563 0.28712 0.7149 0.0
O608 O 0.65843 0.25166 0.74446 0.0
O609 O 0.6522 0.29196 0.76353 0.0
O610 O 0.66293 0.29311 0.71837 0.0
O611 O 0.61356 0.25433 0.73465 0.0
H612 H 0.66492 0.23118 0.77645 0.0
H613 H 0.69203 0.26042 0.71733 0.0
H614 H 0.69774 0.22261 0.78002 0.0
H615 H 0.72449 0.25149 0.72198 0.0
H616 H 0.68006 0.34328 0.81678 0.0
H617 H 0.66876 0.2698 0.78569 0.0
H618 H 0.65997 0.33039 0.78327 0.0
H619 H 0.68868 0.28368 0.81914 0.0
H620 H 0.75186 0.3124 0.7783 0.0
H621 H 0.74847 0.36191 0.73743 0.0
H622 H 0.60034 0.18023 0.79199 0.0
H623 H 0.60253 0.23604 0.82895 0.0
H624 H 0.63914 0.30233 0.69087 0.0
H625 H 0.70049 0.29508 0.70066 0.0
H626 H 0.65031 0.3105 0.65445 0.0
H627 H 0.71044 0.30307 0.66402 0.0
H628 H 0.57169 0.22187 0.7206 0.0
H629 H 0.60686 0.27655 0.76567 0.0
H630 H 0.53275 0.2138 0.7345 0.0
H631 H 0.56741 0.26749 0.77877 0.0
H632 H 0.64361 0.19388 0.68178 0.0
H633 H 0.61383 0.23125 0.65113 0.0
H634 H 0.64842 0.36874 0.73871 0.0
H635 H 0.5859 0.31766 0.7057 0.0
Li636 Li 0.39681 0.63998 0.93097 0.0
Li637 Li 0.40338 0.67645 0.9145 0.0
Li638 Li 0.36555 0.63863 0.9097 0.0
Li639 Li 0.40186 0.64441 0.8937 0.0
C640 C 0.36285 0.64719 0.95077 0.0
N641 N 0.32996 0.62734 0.98182 0.0
C642 C 0.35887 0.66155 0.96402 0.0
C643 C 0.35009 0.62274 0.95327 0.0
C644 C 0.34217 0.65118 0.97964 0.0
C645 C 0.33355 0.61304 0.96907 0.0
C646 C 0.4471 0.67858 0.90703 0.0
C647 C 0.47094 0.70687 0.88137 0.0
N648 N 0.49088 0.70878 0.88984 0.0
C649 C 0.4678 0.68078 0.91546 0.0
C650 C 0.44864 0.69169 0.88983 0.0
C651 C 0.48978 0.69616 0.90656 0.0
C652 C 0.40427 0.60778 0.95365 0.0
N653 N 0.40389 0.62826 0.95459 0.0
C654 C 0.41497 0.6333 0.98965 0.0
C655 C 0.40905 0.64104 0.97207 0.0
C656 C 0.41562 0.61224 0.98919 0.0
C657 C 0.41004 0.59934 0.9709 0.0
H658 H 0.40035 0.59816 0.93944 0.0
H659 H 0.40868 0.65731 0.97232 0.0
C660 C 0.40123 0.71765 0.91263 0.0
N661 N 0.41591 0.70941 0.91775 0.0
C662 C 0.40834 0.74135 0.91567 0.0
C663 C 0.44574 0.74777 0.92901 0.0
C664 C 0.43782 0.72387 0.92581 0.0
C665 C 0.43083 0.75679 0.92411 0.0
H666 H 0.38375 0.70564 0.90653 0.0
H667 H 0.44903 0.71681 0.93004 0.0
C668 C 0.36354 0.595 0.90123 0.0
N669 N 0.33359 0.55107 0.88452 0.0
C670 C 0.3592 0.59255 0.8803 0.0
C671 C 0.35286 0.57505 0.91363 0.0
C672 C 0.34395 0.57021 0.87214 0.0
C673 C 0.33771 0.55301 0.9049 0.0
C674 C 0.37896 0.66614 0.87068 0.0
C675 C 0.35983 0.64773 0.8603 0.0
C676 C 0.39118 0.68853 0.86191 0.0
C677 C 0.35349 0.65194 0.84117 0.0
C678 C 0.3843 0.69202 0.84274 0.0
N679 N 0.36576 0.6738 0.83285 0.0
C680 C 0.32687 0.64416 0.90301 0.0
C681 C 0.31518 0.60385 0.90644 0.0
C682 C 0.30344 0.63826 0.89918 0.0
N683 N 0.33235 0.62703 0.90625 0.0
C684 C 0.29146 0.59713 0.90258 0.0
C685 C 0.28538 0.61446 0.89872 0.0
H686 H 0.34089 0.66245 0.90302 0.0
H687 H 0.3198 0.59053 0.90942 0.0
C688 C 0.42127 0.62031 0.87369 0.0
N689 N 0.41509 0.637 0.87082 0.0
C690 C 0.43026 0.61318 0.85757 0.0
C691 C 0.42668 0.6408 0.83587 0.0
C692 C 0.41784 0.64745 0.85244 0.0
C693 C 0.43292 0.62334 0.83826 0.0
H694 H 0.419 0.61239 0.88852 0.0
H695 H 0.41305 0.66082 0.85052 0.0
O696 O 0.37907 0.65712 0.93537 0.0
O697 O 0.42547 0.66351 0.91555 0.0
O698 O 0.37843 0.61668 0.90959 0.0
O699 O 0.38545 0.66251 0.88949 0.0
H700 H 0.3686 0.68052 0.96224 0.0
H701 H 0.3529 0.61136 0.94315 0.0
H702 H 0.33891 0.66208 0.99003 0.0
H703 H 0.32355 0.59414 0.97118 0.0
H704 H 0.47238 0.71712 0.86806 0.0
H705 H 0.46687 0.6707 0.92876 0.0
H706 H 0.43281 0.69018 0.8831 0.0
H707 H 0.50597 0.69806 0.91294 0.0
H708 H 0.41885 0.64364 0.00348 0.0
H709 H 0.41061 0.58318 0.96981 0.0
H710 H 0.39602 0.7473 0.91203 0.0
H711 H 0.46328 0.75901 0.93537 0.0
H712 H 0.36759 0.60767 0.8704 0.0
H713 H 0.35609 0.5766 0.92986 0.0
H714 H 0.34041 0.56808 0.85597 0.0
H715 H 0.32923 0.53745 0.91434 0.0
H716 H 0.3498 0.63043 0.867 0.0
H717 H 0.40587 0.70306 0.8698 0.0
H718 H 0.33873 0.63783 0.83298 0.0
H719 H 0.39367 0.70923 0.83574 0.0
H720 H 0.29963 0.65219 0.89604 0.0
H721 H 0.27803 0.57859 0.90262 0.0
H722 H 0.43516 0.59993 0.86023 0.0
H723 H 0.42814 0.64895 0.82126 0.0
Li724 Li 0.74764 0.40434 0.08107 0.0
Li725 Li 0.7766 0.39446 0.09497 0.0
Li726 Li 0.77739 0.40373 0.05762 0.0
Li727 Li 0.74656 0.36664 0.07195 0.0
C728 C 0.79398 0.44829 0.08246 0.0
N729 N 0.81676 0.49697 0.08377 0.0
C730 C 0.80415 0.4604 0.10059 0.0
C731 C 0.79578 0.46102 0.06491 0.0
C732 C 0.81546 0.48499 0.10098 0.0
C733 C 0.80727 0.48559 0.06589 0.0
C734 C 0.73789 0.37244 0.11903 0.0
C735 C 0.739 0.35113 0.14836 0.0
N736 N 0.73175 0.36334 0.16027 0.0
C737 C 0.73029 0.38466 0.13153 0.0
C738 C 0.74211 0.35541 0.12746 0.0
C739 C 0.72735 0.37984 0.15235 0.0
C740 C 0.705 0.40524 0.08315 0.0
N741 N 0.72857 0.418 0.08769 0.0
C742 C 0.72318 0.44752 0.10416 0.0
C743 C 0.73785 0.43886 0.09788 0.0
C744 C 0.69862 0.43446 0.10015 0.0
C745 C 0.68963 0.41317 0.08924 0.0
H746 H 0.69805 0.38855 0.07526 0.0
H747 H 0.75651 0.44851 0.10167 0.0
C748 C 0.81254 0.39239 0.11792 0.0
N749 N 0.79585 0.39903 0.11831 0.0
C750 C 0.82708 0.39636 0.13485 0.0
C751 C 0.80685 0.41376 0.15224 0.0
C752 C 0.79288 0.40962 0.13497 0.0
C753 C 0.82438 0.40725 0.15233 0.0
H754 H 0.81476 0.38428 0.10437 0.0
H755 H 0.77973 0.41504 0.1348 0.0
C756 C 0.73512 0.39653 0.03783 0.0
N757 N 0.72038 0.41263 0.0054 0.0
C758 C 0.72304 0.38153 0.02148 0.0
C759 C 0.73928 0.41958 0.03782 0.0
C760 C 0.71587 0.39003 0.00518 0.0
C761 C 0.73181 0.42743 0.02126 0.0
C762 C 0.78211 0.35927 0.06502 0.0
C763 C 0.78618 0.35625 0.04463 0.0
C764 C 0.77819 0.34189 0.07918 0.0
C765 C 0.78589 0.33566 0.03868 0.0
C766 C 0.77802 0.32154 0.07263 0.0
N767 N 0.78182 0.31886 0.05268 0.0
C768 C 0.82063 0.4346 0.0378 0.0
C769 C 0.78909 0.40973 0.01563 0.0
C770 C 0.83618 0.44447 0.02134 0.0
N771 N 0.79755 0.41769 0.03465 0.0
C772 C 0.80399 0.41908 0.99875 0.0
C773 C 0.82791 0.43669 0.00148 0.0
H774 H 0.82699 0.44032 0.05314 0.0
H775 H 0.77094 0.39569 0.01357 0.0
C776 C 0.71228 0.31793 0.07893 0.0
N777 N 0.72626 0.33427 0.06491 0.0
C778 C 0.69712 0.29448 0.07305 0.0
C779 C 0.71115 0.30518 0.03851 0.0
C780 C 0.726 0.32833 0.04505 0.0
C781 C 0.69632 0.28785 0.05255 0.0
H782 H 0.71272 0.32313 0.09462 0.0
H783 H 0.73725 0.3417 0.03422 0.0
O784 O 0.78294 0.42418 0.08184 0.0
O785 O 0.74109 0.37708 0.09864 0.0
O786 O 0.7422 0.38841 0.05394 0.0
O787 O 0.78178 0.37907 0.07105 0.0
H788 H 0.8032 0.45096 0.11428 0.0
H789 H 0.7887 0.45212 0.05058 0.0
H790 H 0.82325 0.49455 0.11495 0.0
H791 H 0.80873 0.49562 0.05242 0.0
H792 H 0.74235 0.33811 0.15511 0.0
H793 H 0.72684 0.39783 0.12526 0.0
H794 H 0.74791 0.34574 0.11801 0.0
H795 H 0.72159 0.38925 0.16222 0.0
H796 H 0.73098 0.46413 0.11232 0.0
H797 H 0.6708 0.40229 0.08609 0.0
H798 H 0.84055 0.39133 0.13409 0.0
H799 H 0.80381 0.42185 0.16542 0.0
H800 H 0.71932 0.36353 0.02132 0.0
H801 H 0.74791 0.43122 0.05056 0.0
H802 H 0.70666 0.37865 0.99238 0.0
H803 H 0.73499 0.44525 0.02107 0.0
H804 H 0.78929 0.36955 0.03348 0.0
H805 H 0.7752 0.34404 0.09503 0.0
H806 H 0.78885 0.33301 0.02293 0.0
H807 H 0.77486 0.30787 0.0834 0.0
H808 H 0.85444 0.45809 0.02415 0.0
H809 H 0.79699 0.41216 0.98377 0.0
H810 H 0.68617 0.2817 0.08443 0.0
H811 H 0.71089 0.30105 0.0225 0.0
Li812 Li 0.39845 0.77605 0.25514 0.0
Li813 Li 0.36029 0.74449 0.23952 0.0
Li814 Li 0.40025 0.74726 0.2334 0.0
Li815 Li 0.39181 0.77534 0.21898 0.0
C816 C 0.38124 0.73963 0.27988 0.0
N817 N 0.38036 0.73814 0.3219 0.0
C818 C 0.36177 0.73784 0.29054 0.0
C819 C 0.40016 0.74044 0.29059 0.0
C820 C 0.36168 0.73716 0.31178 0.0
C821 C 0.39941 0.73972 0.31183 0.0
C822 C 0.37208 0.79806 0.23535 0.0
C823 C 0.35281 0.81594 0.21768 0.0
N824 N 0.37182 0.83763 0.22173 0.0
C825 C 0.39142 0.82051 0.23936 0.0
C826 C 0.35259 0.79572 0.22445 0.0
C827 C 0.39095 0.8403 0.23233 0.0
C828 C 0.43258 0.8065 0.28506 0.0
N829 N 0.40942 0.7951 0.27911 0.0
C830 C 0.39872 0.81024 0.30785 0.0
C831 C 0.39261 0.79694 0.28996 0.0
C832 C 0.42243 0.82188 0.31466 0.0
C833 C 0.4395 0.81997 0.30293 0.0
H834 H 0.44573 0.8052 0.276 0.0
H835 H 0.37438 0.788 0.28469 0.0
C836 C 0.31995 0.70012 0.24542 0.0
N837 N 0.32749 0.7235 0.24447 0.0
C838 C 0.29667 0.68406 0.2514 0.0
C839 C 0.28916 0.71641 0.25467 0.0
C840 C 0.31265 0.73186 0.24877 0.0
C841 C 0.28098 0.69216 0.25642 0.0
H842 H 0.33232 0.69407 0.24223 0.0
H843 H 0.31927 0.7506 0.24828 0.0
C844 C 0.44297 0.78333 0.23072 0.0
N845 N 0.48575 0.78442 0.22595 0.0
C846 C 0.4551 0.79009 0.21215 0.0
C847 C 0.45262 0.77708 0.24683 0.0
C848 C 0.47672 0.79057 0.21006 0.0
C849 C 0.47424 0.77772 0.24412 0.0
C850 C 0.3685 0.73768 0.19387 0.0
C851 C 0.38634 0.74498 0.17912 0.0
C852 C 0.34469 0.72723 0.18791 0.0
C853 C 0.38004 0.7419 0.15856 0.0
C854 C 0.33913 0.72442 0.16719 0.0
N855 N 0.35677 0.73178 0.15307 0.0
C856 C 0.40847 0.70992 0.24265 0.0
C857 C 0.4266 0.72992 0.21205 0.0
C858 C 0.41652 0.69406 0.23932 0.0
N859 N 0.41358 0.72739 0.22907 0.0
C860 C 0.4354 0.71478 0.20833 0.0
C861 C 0.43014 0.69642 0.22194 0.0
H862 H 0.39768 0.70796 0.25586 0.0
H863 H 0.42987 0.74343 0.20115 0.0
C864 C 0.41852 0.81533 0.19444 0.0
N865 N 0.39673 0.79566 0.19628 0.0
C866 C 0.42343 0.83075 0.17822 0.0
C867 C 0.38289 0.80621 0.16672 0.0
C868 C 0.37884 0.79118 0.18309 0.0
C869 C 0.40554 0.82614 0.16399 0.0
H870 H 0.43208 0.81919 0.20569 0.0
H871 H 0.36135 0.776 0.18531 0.0
O872 O 0.38194 0.74098 0.2591 0.0
O873 O 0.37256 0.77848 0.24158 0.0
O874 O 0.42167 0.78258 0.23308 0.0
O875 O 0.37423 0.74053 0.21407 0.0
H876 H 0.34705 0.73736 0.28253 0.0
H877 H 0.41528 0.74164 0.28261 0.0
H878 H 0.34681 0.73596 0.32022 0.0
H879 H 0.41397 0.74044 0.32032 0.0
H880 H 0.33792 0.8144 0.20911 0.0
H881 H 0.40677 0.82263 0.24756 0.0
H882 H 0.33766 0.77846 0.2209 0.0
H883 H 0.40584 0.85778 0.23524 0.0
H884 H 0.38503 0.81156 0.31614 0.0
H885 H 0.45794 0.8285 0.30764 0.0
H886 H 0.29138 0.66565 0.25287 0.0
H887 H 0.27768 0.72346 0.25817 0.0
H888 H 0.44775 0.79446 0.19931 0.0
H889 H 0.44334 0.77144 0.26118 0.0
H890 H 0.48622 0.79566 0.19575 0.0
H891 H 0.48182 0.77281 0.25645 0.0
H892 H 0.40485 0.75336 0.18348 0.0
H893 H 0.33069 0.72145 0.19916 0.0
H894 H 0.39367 0.74765 0.14697 0.0
H895 H 0.32079 0.71644 0.16234 0.0
H896 H 0.41202 0.68001 0.2501 0.0
H897 H 0.44546 0.71687 0.19456 0.0
H898 H 0.44095 0.84625 0.17695 0.0
H899 H 0.36857 0.80207 0.15613 0.0
H900 H 0.18528 0.63286 0.30554 0.0
H901 H 0.17851 0.57837 0.26448 0.0
H902 H 0.2152 0.60676 0.24715 0.0
H903 H 0.25013 0.64664 0.24475 0.0
H904 H 0.2576 0.70046 0.28712 0.0
H905 H 0.21939 0.67294 0.30241 0.0
C906 C 0.1916 0.6273 0.29257 0.0
C907 C 0.17918 0.60356 0.28629 0.0
C908 C 0.21285 0.64361 0.28289 0.0
C909 C 0.18785 0.59652 0.26968 0.0
C910 C 0.2088 0.61274 0.25977 0.0
C911 C 0.24345 0.65236 0.25736 0.0
C912 C 0.25684 0.67567 0.26471 0.0
C913 C 0.22165 0.63625 0.26645 0.0
C914 C 0.24762 0.6828 0.28087 0.0
C915 C 0.22581 0.66699 0.28978 0.0
H916 H 0.55744 0.17757 0.4496 0.0
H917 H 0.63181 0.19892 0.45499 0.0
H918 H 0.6431 0.23775 0.44205 0.0
H919 H 0.63224 0.26672 0.43148 0.0
H920 H 0.5582 0.24658 0.4276 0.0
H921 H 0.54649 0.20649 0.43815 0.0
C922 C 0.57612 0.1907 0.44798 0.0
C923 C 0.59366 0.18508 0.45321 0.0
C924 C 0.58262 0.21338 0.44102 0.0
C925 C 0.6178 0.20237 0.45072 0.0
C926 C 0.62435 0.22477 0.44351 0.0
C927 C 0.61353 0.25346 0.43263 0.0
C928 C 0.59613 0.25963 0.42875 0.0
C929 C 0.60695 0.23057 0.43887 0.0
C930 C 0.57195 0.24234 0.43068 0.0
C931 C 0.56525 0.2194 0.43664 0.0
H932 H 0.40212 0.57314 0.64741 0.0
H933 H 0.45252 0.61069 0.59956 0.0
H934 H 0.4238 0.61889 0.58312 0.0
H935 H 0.38509 0.61699 0.58328 0.0
H936 H 0.33568 0.5812 0.63234 0.0
H937 H 0.363 0.57021 0.64701 0.0
C938 C 0.40664 0.58275 0.63319 0.0
C939 C 0.42938 0.59127 0.6247 0.0
C940 C 0.39021 0.58774 0.62403 0.0
C941 C 0.43516 0.60406 0.60645 0.0
C942 C 0.41875 0.60874 0.59705 0.0
C943 C 0.3803 0.60685 0.59722 0.0
C944 C 0.35827 0.59997 0.60662 0.0
C945 C 0.39637 0.60101 0.60589 0.0
C946 C 0.35228 0.58647 0.62452 0.0
C947 C 0.36801 0.58032 0.63306 0.0
H948 H 0.86058 0.40428 0.78613 0.0
H949 H 0.83564 0.45353 0.79456 0.0
H950 H 0.797 0.42483 0.7809 0.0
H951 H 0.76928 0.38501 0.76855 0.0
H952 H 0.7928 0.3346 0.76203 0.0
H953 H 0.83273 0.36426 0.77347 0.0
C954 C 0.8467 0.40875 0.78508 0.0
C955 C 0.85129 0.43124 0.7913 0.0
C956 C 0.8241 0.39184 0.77775 0.0
C957 C 0.83302 0.43667 0.7895 0.0
C958 C 0.81072 0.42014 0.78188 0.0
C959 C 0.78324 0.38062 0.76935 0.0
C960 C 0.77814 0.35769 0.76438 0.0
C961 C 0.80598 0.39761 0.77616 0.0
C962 C 0.79628 0.35211 0.76589 0.0
C963 C 0.81911 0.36907 0.77237 0.0
H964 H 0.44578 0.85916 0.93467 0.0
H965 H 0.47856 0.8555 0.99043 0.0
H966 H 0.47278 0.81719 0.98031 0.0
H967 H 0.45526 0.78322 0.95713 0.0
H968 H 0.42257 0.78672 0.90122 0.0
H969 H 0.43102 0.82633 0.91013 0.0
C970 C 0.45178 0.85003 0.94454 0.0
C971 C 0.46253 0.8602 0.9633 0.0
C972 C 0.4481 0.8278 0.93875 0.0
C973 C 0.47049 0.84826 0.97579 0.0
C974 C 0.46699 0.82621 0.97011 0.0
C975 C 0.4504 0.79277 0.94666 0.0
C976 C 0.43807 0.7818 0.92861 0.0
C977 C 0.45542 0.81562 0.9518 0.0
C978 C 0.43164 0.79447 0.91541 0.0
C979 C 0.43659 0.81721 0.92043 0.0
H980 H 0.63565 0.46579 0.14957 0.0
H981 H 0.59329 0.44117 0.09496 0.0
H982 H 0.62278 0.43334 0.07927 0.0
H983 H 0.6596 0.43164 0.08178 0.0
H984 H 0.70078 0.45461 0.1372 0.0
H985 H 0.6731 0.46547 0.1516 0.0
C986 C 0.63311 0.45915 0.13409 0.0
C987 C 0.61234 0.45409 0.12343 0.0
C988 C 0.64992 0.45434 0.12531 0.0
C989 C 0.60908 0.44506 0.10352 0.0
C990 C 0.62592 0.44059 0.09454 0.0
C991 C 0.6625 0.43897 0.09703 0.0
C992 C 0.68232 0.44227 0.10833 0.0
C993 C 0.64621 0.44477 0.10544 0.0
C994 C 0.68595 0.45217 0.12797 0.0
C995 C 0.66999 0.45823 0.13632 0.0
H996 H 0.44417 0.85021 0.53642 0.0
H997 H 0.39288 0.86214 0.50526 0.0
H998 H 0.36047 0.82612 0.51981 0.0
H999 H 0.3467 0.78971 0.53926 0.0
H1000 H 0.39836 0.776 0.56748 0.0
H1001 H 0.43042 0.81419 0.55625 0.0
C1002 C 0.42593 0.84494 0.5327 0.0
C1003 C 0.42113 0.85894 0.5196 0.0
C1004 C 0.40733 0.82376 0.54056 0.0
C1005 C 0.39726 0.852 0.51546 0.0
C1006 C 0.37864 0.83122 0.52362 0.0
C1007 C 0.36496 0.79496 0.5429 0.0
C1008 C 0.36994 0.77978 0.55419 0.0
C1009 C 0.38349 0.81671 0.53585 0.0
C1010 C 0.39378 0.7873 0.5591 0.0
C1011 C 0.41223 0.80912 0.55251 0.0
H1012 H 0.61791 0.43636 0.68788 0.0
H1013 H 0.54225 0.39313 0.69763 0.0
H1014 H 0.54778 0.36124 0.71037 0.0
H1015 H 0.57432 0.34566 0.71857 0.0
H1016 H 0.64988 0.38941 0.70815 0.0
H1017 H 0.64418 0.42125 0.69633 0.0
C1018 C 0.60262 0.42013 0.69311 0.0
C1019 C 0.57972 0.41724 0.69195 0.0
C1020 C 0.60593 0.40195 0.70036 0.0
C1021 C 0.56007 0.3958 0.69828 0.0
C1022 C 0.56323 0.37759 0.70562 0.0
C1023 C 0.58951 0.36213 0.71364 0.0
C1024 C 0.61252 0.36514 0.71444 0.0
C1025 C 0.5861 0.38043 0.70663 0.0
C1026 C 0.63203 0.3867 0.70811 0.0
C1027 C 0.62878 0.4049 0.70119 0.0
H1028 H 0.18655 0.6058 0.87843 0.0
H1029 H 0.18179 0.55107 0.83867 0.0
H1030 H 0.21911 0.55662 0.85229 0.0
H1031 H 0.25492 0.57945 0.8732 0.0
H1032 H 0.2603 0.63501 0.91218 0.0
H1033 H 0.22117 0.62698 0.90089 0.0
C1034 C 0.19365 0.59505 0.87277 0.0
C1035 C 0.1814 0.57814 0.85746 0.0
C1036 C 0.2154 0.59867 0.88035 0.0
C1037 C 0.19066 0.56405 0.85059 0.0
C1038 C 0.21215 0.56735 0.85824 0.0
C1039 C 0.24734 0.58951 0.87951 0.0
C1040 C 0.2606 0.60792 0.8934 0.0
C1041 C 0.2249 0.58492 0.87283 0.0
C1042 C 0.25062 0.62098 0.90123 0.0
C1043 C 0.22822 0.61635 0.89484 0.0
H1044 H 0.63512 0.18975 0.00817 0.0
H1045 H 0.58135 0.18618 0.04904 0.0
H1046 H 0.61047 0.22368 0.06446 0.0
H1047 H 0.65047 0.25874 0.06475 0.0
H1048 H 0.70446 0.26177 0.02446 0.0
H1049 H 0.67597 0.22315 0.01052 0.0
C1050 C 0.62985 0.19689 0.02074 0.0
C1051 C 0.60599 0.18518 0.02731 0.0
C1052 C 0.64668 0.21849 0.02954 0.0
C1053 C 0.59948 0.19497 0.04344 0.0
C1054 C 0.61614 0.21639 0.05232 0.0
C1055 C 0.65617 0.25079 0.0532 0.0
C1056 C 0.67956 0.26333 0.04555 0.0
C1057 C 0.63969 0.22851 0.04525 0.0
C1058 C 0.68647 0.25278 0.03037 0.0
C1059 C 0.67021 0.23061 0.02245 0.0
H1060 H 0.47479 0.63538 0.19294 0.0
H1061 H 0.40136 0.58007 0.1993 0.0
H1062 H 0.39129 0.60815 0.21338 0.0
H1063 H 0.40226 0.64895 0.22115 0.0
H1064 H 0.47446 0.70497 0.21164 0.0
H1065 H 0.4859 0.67622 0.20108 0.0
C1066 C 0.45654 0.6294 0.19728 0.0
C1067 C 0.43898 0.60544 0.195 0.0
C1068 C 0.45053 0.64588 0.20462 0.0
C1069 C 0.41552 0.59816 0.2012 0.0
C1070 C 0.40959 0.61431 0.20906 0.0
C1071 C 0.42056 0.65478 0.21706 0.0
C1072 C 0.43752 0.67896 0.21721 0.0
C1073 C 0.42683 0.63825 0.21051 0.0
C1074 C 0.46111 0.6864 0.21155 0.0
C1075 C 0.46763 0.66998 0.20554 0.0
H1076 H 0.84124 0.46077 0.33549 0.0
H1077 H 0.86313 0.44697 0.39311 0.0
H1078 H 0.82569 0.43958 0.40864 0.0
H1079 H 0.78618 0.43578 0.4054 0.0
H1080 H 0.76364 0.44683 0.34675 0.0
H1081 H 0.80207 0.45714 0.33228 0.0
C1082 C 0.83796 0.45652 0.35153 0.0
C1083 C 0.85495 0.45458 0.36319 0.0
C1084 C 0.81627 0.45183 0.36019 0.0
C1085 C 0.85027 0.44855 0.38385 0.0
C1086 C 0.82889 0.44432 0.3927 0.0
C1087 C 0.78957 0.44031 0.38943 0.0
C1088 C 0.77189 0.44064 0.37732 0.0
C1089 C 0.81161 0.44562 0.38094 0.0
C1090 C 0.77692 0.4469 0.35667 0.0
C1091 C 0.79889 0.4526 0.34827 0.0
H1092 H 0.1458 0.59518 0.4255 0.0
H1093 H 0.15634 0.53569 0.41739 0.0
H1094 H 0.18037 0.54672 0.44803 0.0
H1095 H 0.20024 0.57429 0.47644 0.0
H1096 H 0.19364 0.63608 0.48237 0.0
H1097 H 0.16692 0.62355 0.45293 0.0
C1098 C 0.15353 0.5847 0.43017 0.0
C1099 C 0.14889 0.56445 0.41895 0.0
C1100 C 0.16835 0.59173 0.44739 0.0
C1101 C 0.15885 0.55099 0.42579 0.0
C1102 C 0.17295 0.55745 0.44326 0.0
C1103 C 0.19284 0.5849 0.47125 0.0
C1104 C 0.19875 0.60599 0.48146 0.0
C1105 C 0.17799 0.57787 0.45408 0.0
C1106 C 0.18935 0.61981 0.4746 0.0
C1107 C 0.17405 0.61262 0.45784 0.0
H1108 H 0.62571 0.14982 0.58782 0.0
H1109 H 0.5599 0.14915 0.57726 0.0
H1110 H 0.56559 0.17136 0.6086 0.0
H1111 H 0.58986 0.19219 0.63842 0.0
H1112 H 0.65708 0.19534 0.64763 0.0
H1113 H 0.65021 0.17107 0.61738 0.0
C1114 C 0.61267 0.15465 0.59226 0.0
C1115 C 0.59239 0.14773 0.5801 0.0
C1116 C 0.61632 0.16797 0.61007 0.0
C1117 C 0.57548 0.15382 0.58641 0.0
C1118 C 0.57883 0.16675 0.60427 0.0
C1119 C 0.60314 0.18779 0.63373 0.0
C1120 C 0.62397 0.19566 0.64535 0.0
C1121 C 0.59929 0.17413 0.6161 0.0
C1122 C 0.64072 0.18931 0.63919 0.0
C1123 C 0.6369 0.17553 0.6218 0.0
H1124 H 0.45794 0.57406 0.76716 0.0
H1125 H 0.49623 0.6458 0.74548 0.0
H1126 H 0.48498 0.65913 0.77591 0.0
H1127 H 0.46303 0.65042 0.80806 0.0
H1128 H 0.42248 0.57844 0.82876 0.0
H1129 H 0.43586 0.56533 0.79939 0.0
C1130 C 0.46374 0.5926 0.76901 0.0
C1131 C 0.478 0.60884 0.75396 0.0
C1132 C 0.45675 0.60016 0.7864 0.0
C1133 C 0.48563 0.63288 0.75689 0.0
C1134 C 0.47901 0.64054 0.77424 0.0
C1135 C 0.45695 0.63183 0.8061 0.0
C1136 C 0.4417 0.61548 0.82064 0.0
C1137 C 0.46437 0.62432 0.78899 0.0
C1138 C 0.43444 0.59151 0.81799 0.0
C1139 C 0.44195 0.58394 0.8011 0.0
H1140 H 0.90724 0.47446 0.93307 0.0
H1141 H 0.85071 0.47476 0.89913 0.0
H1142 H 0.82508 0.46124 0.92904 0.0
H1143 H 0.81828 0.4485 0.96459 0.0
H1144 H 0.87411 0.44682 0.99842 0.0
H1145 H 0.90042 0.46178 0.96887 0.0
C1146 C 0.88928 0.47147 0.93221 0.0
C1147 C 0.88099 0.47572 0.91388 0.0
C1148 C 0.87448 0.46345 0.94946 0.0
C1149 C 0.85773 0.47201 0.91311 0.0
C1150 C 0.84297 0.46411 0.93018 0.0
C1151 C 0.83615 0.45125 0.96547 0.0
C1152 C 0.84416 0.44647 0.98369 0.0
C1153 C 0.8511 0.45965 0.94839 0.0
C1154 C 0.86755 0.45059 0.98467 0.0
C1155 C 0.88256 0.459 0.96773 0.0
H1156 H 0.41128 0.88982 0.09006 0.0
H1157 H 0.47629 0.88878 0.07943 0.0
H1158 H 0.46946 0.8657 0.11017 0.0
H1159 H 0.44409 0.84404 0.13916 0.0
H1160 H 0.37818 0.84334 0.149 0.0
H1161 H 0.38599 0.86831 0.11917 0.0
C1162 C 0.42391 0.88444 0.09436 0.0
C1163 C 0.4443 0.89115 0.08236 0.0
C1164 C 0.41959 0.87063 0.11183 0.0
C1165 C 0.46064 0.88431 0.08847 0.0
C1166 C 0.45665 0.87088 0.10598 0.0
C1167 C 0.43157 0.84958 0.13489 0.0
C1168 C 0.41059 0.84186 0.14626 0.0
C1169 C 0.43609 0.86376 0.11767 0.0
C1170 C 0.39434 0.84886 0.14037 0.0
C1171 C 0.39885 0.86322 0.12338 0.0
H1172 H 0.55851 0.45414 0.26806 0.0
H1173 H 0.55447 0.39599 0.23384 0.0
H1174 H 0.56708 0.38319 0.26367 0.0
H1175 H 0.58105 0.38951 0.29903 0.0
H1176 H 0.58498 0.44736 0.33355 0.0
H1177 H 0.57053 0.45924 0.30416 0.0
C1178 C 0.56034 0.43864 0.2672 0.0
C1179 C 0.55558 0.42605 0.24877 0.0
C1180 C 0.56763 0.43136 0.28444 0.0
C1181 C 0.55777 0.40584 0.2479 0.0
C1182 C 0.56513 0.39859 0.26492 0.0
C1183 C 0.5787 0.4047 0.30009 0.0
C1184 C 0.58421 0.41765 0.31834 0.0
C1185 C 0.57038 0.41137 0.28318 0.0
C1186 C 0.58073 0.43706 0.31967 0.0
C1187 C 0.5726 0.44392 0.30285 0.0
H1188 H 0.436 0.86729 0.40217 0.0
H1189 H 0.50183 0.92031 0.37517 0.0
H1190 H 0.49084 0.89846 0.34295 0.0
H1191 H 0.46254 0.86413 0.32259 0.0
H1192 H 0.39738 0.81055 0.35029 0.0
H1193 H 0.4079 0.83304 0.38196 0.0
C1194 C 0.4478 0.87422 0.38915 0.0
C1195 C 0.46962 0.89545 0.391 0.0
C1196 C 0.44148 0.86148 0.3708 0.0
C1197 C 0.48497 0.90396 0.37413 0.0
C1198 C 0.47868 0.8915 0.35572 0.0
C1199 C 0.45073 0.85726 0.3356 0.0
C1200 C 0.42914 0.83568 0.33397 0.0
C1201 C 0.45703 0.87015 0.35391 0.0
C1202 C 0.41392 0.82726 0.35094 0.0
C1203 C 0.41998 0.84004 0.36914 0.0
H1204 H 0.57162 0.44029 0.56779 0.0
H1205 H 0.63406 0.50962 0.56447 0.0
H1206 H 0.64603 0.49868 0.53292 0.0
H1207 H 0.63953 0.46895 0.50696 0.0
H1208 H 0.57585 0.40039 0.50943 0.0
H1209 H 0.56369 0.4116 0.54061 0.0
C1210 C 0.58762 0.4532 0.56 0.0
C1211 C 0.60194 0.47573 0.56862 0.0
C1212 C 0.59433 0.44687 0.54178 0.0
C1213 C 0.62286 0.49203 0.55841 0.0
C1214 C 0.62968 0.48582 0.5403 0.0
C1215 C 0.62282 0.45654 0.51412 0.0
C1216 C 0.60882 0.43373 0.50587 0.0
C1217 C 0.61568 0.4632 0.53195 0.0
C1218 C 0.58734 0.41786 0.51561 0.0
C1219 C 0.58022 0.42431 0.53339 0.0
H1220 H 0.1653 0.62577 0.73583 0.0
H1221 H 0.12453 0.55234 0.71854 0.0
H1222 H 0.14718 0.56088 0.68692 0.0
H1223 H 0.1791 0.58913 0.66444 0.0
H1224 H 0.219 0.66261 0.68143 0.0
H1225 H 0.19569 0.6542 0.7127 0.0
C1226 C 0.161 0.61166 0.72501 0.0
C1227 C 0.14321 0.58841 0.72965 0.0
C1228 C 0.17394 0.61671 0.70678 0.0
C1229 C 0.13832 0.57033 0.71555 0.0
C1230 C 0.1512 0.57522 0.6974 0.0
C1231 C 0.18269 0.60326 0.67503 0.0
C1232 C 0.20079 0.62644 0.67068 0.0
C1233 C 0.1692 0.5983 0.69295 0.0
C1234 C 0.20504 0.64466 0.68437 0.0
C1235 C 0.1918 0.63984 0.70228 0.0
H1236 H 0.57782 0.13525 0.88597 0.0
H1237 H 0.53609 0.16616 0.90546 0.0
H1238 H 0.54648 0.18932 0.87441 0.0
H1239 H 0.56869 0.20214 0.84236 0.0
H1240 H 0.61276 0.17344 0.82403 0.0
H1241 H 0.60013 0.14816 0.8539 0.0
C1242 C 0.57108 0.14713 0.88351 0.0
C1243 C 0.55612 0.14882 0.89812 0.0
C1244 C 0.57756 0.16088 0.86578 0.0
C1245 C 0.54727 0.16408 0.8944 0.0
C1246 C 0.55338 0.17755 0.8767 0.0
C1247 C 0.57568 0.19049 0.84494 0.0
C1248 C 0.59168 0.18978 0.83088 0.0
C1249 C 0.56872 0.17629 0.86239 0.0
C1250 C 0.60015 0.17417 0.83436 0.0
C1251 C 0.59309 0.1598 0.85156 0.0
H1252 H 0.45502 0.59432 0.07074 0.0
H1253 H 0.39893 0.523 0.05885 0.0
H1254 H 0.38881 0.53574 0.02743 0.0
H1255 H 0.39518 0.56742 0.00387 0.0
H1256 H 0.45144 0.63867 0.01595 0.0
H1257 H 0.46219 0.62566 0.04675 0.0
C1258 C 0.44082 0.58149 0.06111 0.0
C1259 C 0.4278 0.55773 0.06709 0.0
C1260 C 0.435 0.58896 0.04318 0.0
C1261 C 0.40912 0.54142 0.05465 0.0
C1262 C 0.40336 0.54868 0.03667 0.0
C1263 C 0.40996 0.58005 0.01313 0.0
C1264 C 0.42241 0.60401 0.00764 0.0
C1265 C 0.41606 0.57245 0.03086 0.0
C1266 C 0.44132 0.62019 0.01997 0.0
C1267 C 0.44758 0.61275 0.03753 0.0
H1268 H 0.88501 0.41079 0.22873 0.0
H1269 H 0.88561 0.47615 0.23857 0.0
H1270 H 0.86384 0.47021 0.20694 0.0
H1271 H 0.84331 0.44587 0.17718 0.0
H1272 H 0.84006 0.37912 0.16853 0.0
H1273 H 0.86419 0.38627 0.19898 0.0
C1274 C 0.88026 0.42368 0.22407 0.0
C1275 C 0.88702 0.4439 0.23613 0.0
C1276 C 0.8672 0.41991 0.20606 0.0
C1277 C 0.88105 0.46061 0.22952 0.0
C1278 C 0.86838 0.45713 0.21149 0.0
C1279 C 0.84765 0.43274 0.18203 0.0
C1280 C 0.83971 0.41192 0.17056 0.0
C1281 C 0.86115 0.43674 0.19977 0.0
C1282 C 0.84609 0.39542 0.17688 0.0
C1283 C 0.85977 0.39941 0.19439 0.0
loop_
_geom_bond_atom_site_label_1
_geom_bond_atom_site_label_2
_geom_bond_distance
_geom_bond_site_symmetry_2
_ccdc_geom_bond_type
H0 C27 0.929 . S
N1 C26 1.433 . S
N1 C32 1.435 . S
N1 C38 1.423 . S
H2 C28 0.930 . S
H3 C31 0.931 . S
H4 C30 0.929 . S
H5 C33 0.930 . S
H6 C34 0.932 . S
H7 C37 0.929 . S
H8 C36 0.931 . S
H9 C39 0.929 . S
H10 C43 0.932 . S
H11 C40 0.931 . S
H12 C42 0.929 . S
H13 C45 0.929 . S
H14 C46 0.930 . S
H15 C48 0.929 . S
H16 C49 0.931 . S
H17 C51 0.930 . S
H18 C52 0.932 . S
H19 C54 0.931 . S
H20 C55 0.929 . S
H21 C57 0.929 . S
H22 C58 0.931 1_455 S
H23 C60 0.929 . S
N24 C44 1.433 . S
N24 C50 1.435 . S
N24 C56 1.423 . S
H25 C61 0.932 . S
C26 N1 1.433 . S
C26 C27 1.363 . S
C26 C31 1.370 . S
C27 H0 0.929 . S
C27 C26 1.363 . S
C27 C28 1.385 . S
C28 H2 0.930 . S
C28 C27 1.385 . S
C28 C29 1.357 . S
C29 C28 1.357 . S
C29 C30 1.406 . S
C30 H4 0.929 . S
C30 C29 1.406 . S
C30 C31 1.391 . S
C31 H3 0.931 . S
C31 C26 1.370 . S
C31 C30 1.391 . S
C32 N1 1.435 . S
C32 C33 1.358 . S
C32 C37 1.371 . S
C33 H5 0.930 . S
C33 C32 1.358 . S
C33 C34 1.405 . S
C34 H6 0.932 . S
C34 C33 1.405 . S
C34 C35 1.383 . S
C35 C34 1.383 . S
C35 C36 1.393 . S
C36 H8 0.931 . S
C36 C35 1.393 . S
C36 C37 1.382 . S
C37 H7 0.929 . S
C37 C32 1.371 . S
C37 C36 1.382 . S
C38 N1 1.423 . S
C38 C39 1.362 . S
C38 C43 1.388 . S
C39 H9 0.929 . S
C39 C38 1.362 . S
C39 C40 1.376 . S
C40 H11 0.931 . S
C40 C39 1.376 . S
C40 C41 1.396 . S
C41 C40 1.396 . S
C41 C42 1.348 . S
C41 C59 1.472 . S
C42 H12 0.929 . S
C42 C41 1.348 . S
C42 C43 1.443 . S
C43 H10 0.932 . S
C43 C38 1.388 . S
C43 C42 1.443 . S
C44 N24 1.433 . S
C44 C45 1.363 . S
C44 C49 1.370 . S
C45 H13 0.929 . S
C45 C44 1.363 . S
C45 C46 1.385 . S
C46 H14 0.930 . S
C46 C45 1.385 . S
C46 C47 1.357 . S
C47 C46 1.357 . S
C47 C48 1.406 . S
C48 H15 0.929 . S
C48 C47 1.406 . S
C48 C49 1.391 . S
C49 H16 0.931 . S
C49 C44 1.370 . S
C49 C48 1.391 . S
C50 N24 1.435 . S
C50 C51 1.358 . S
C50 C55 1.371 . S
C51 H17 0.930 . S
C51 C50 1.358 . S
C51 C52 1.405 . S
C52 H18 0.932 . S
C52 C51 1.405 . S
C52 C53 1.383 . S
C53 C52 1.383 . S
C53 C54 1.393 . S
C54 H19 0.931 . S
C54 C53 1.393 . S
C54 C55 1.382 . S
C55 H20 0.929 . S
C55 C50 1.371 . S
C55 C54 1.382 . S
C56 N24 1.423 . S
C56 C57 1.362 . S
C56 C61 1.388 . S
C57 H21 0.929 . S
C57 C56 1.362 . S
C57 C58 1.376 . S
C58 H22 0.931 1_655 S
C58 C57 1.376 . S
C58 C59 1.396 1_655 S
C59 C41 1.472 . S
C59 C58 1.396 1_455 S
C59 C60 1.348 1_455 S
C60 H23 0.929 . S
C60 C59 1.348 1_655 S
C60 C61 1.443 . S
C61 H25 0.932 . S
C61 C56 1.388 . S
C61 C60 1.443 . S
H62 C89 0.929 . S
N63 C88 1.433 . S
N63 C94 1.435 . S
N63 C100 1.423 . S
H64 C90 0.930 . S
H65 C93 0.931 . S
H66 C92 0.929 . S
H67 C95 0.930 . S
H68 C96 0.932 . S
H69 C99 0.929 . S
H70 C98 0.931 . S
H71 C101 0.929 . S
H72 C105 0.932 . S
H73 C102 0.931 . S
H74 C104 0.929 . S
H75 C107 0.929 . S
H76 C108 0.930 . S
H77 C110 0.929 . S
H78 C111 0.931 . S
H79 C113 0.930 . S
H80 C114 0.932 . S
H81 C116 0.931 . S
H82 C117 0.929 . S
H83 C119 0.929 . S
H84 C120 0.931 . S
H85 C122 0.929 . S
N86 C106 1.433 . S
N86 C112 1.435 . S
N86 C118 1.423 . S
H87 C123 0.932 . S
C88 N63 1.433 . S
C88 C89 1.363 . S
C88 C93 1.370 . S
C89 H62 0.929 . S
C89 C88 1.363 . S
C89 C90 1.385 . S
C90 H64 0.930 . S
C90 C89 1.385 . S
C90 C91 1.357 . S
C91 C90 1.357 . S
C91 C92 1.406 . S
C92 H66 0.929 . S
C92 C91 1.406 . S
C92 C93 1.391 . S
C93 H65 0.931 . S
C93 C88 1.370 . S
C93 C92 1.391 . S
C94 N63 1.435 . S
C94 C95 1.358 . S
C94 C99 1.371 . S
C95 H67 0.930 . S
C95 C94 1.358 . S
C95 C96 1.405 . S
C96 H68 0.932 . S
C96 C95 1.405 . S
C96 C97 1.383 . S
C97 C96 1.383 . S
C97 C98 1.393 . S
C98 H70 0.931 . S
C98 C97 1.393 . S
C98 C99 1.382 . S
C99 H69 0.929 . S
C99 C94 1.371 . S
C99 C98 1.382 . S
C100 N63 1.423 . S
C100 C101 1.362 . S
C100 C105 1.388 . S
C101 H71 0.929 . S
C101 C100 1.362 . S
C101 C102 1.376 . S
C102 H73 0.931 . S
C102 C101 1.376 . S
C102 C103 1.396 1_565 S
C103 C102 1.396 1_545 S
C103 C104 1.348 . S
C103 C121 1.472 . S
C104 H74 0.929 . S
C104 C103 1.348 . S
C104 C105 1.443 1_545 S
C105 H72 0.932 . S
C105 C100 1.388 . S
C105 C104 1.443 1_565 S
C106 N86 1.433 . S
C106 C107 1.363 . S
C106 C111 1.370 . S
C107 H75 0.929 . S
C107 C106 1.363 . S
C107 C108 1.385 . S
C108 H76 0.930 . S
C108 C107 1.385 . S
C108 C109 1.357 . S
C109 C108 1.357 . S
C109 C110 1.406 . S
C110 H77 0.929 . S
C110 C109 1.406 . S
C110 C111 1.391 . S
C111 H78 0.931 . S
C111 C106 1.370 . S
C111 C110 1.391 . S
C112 N86 1.435 . S
C112 C113 1.358 . S
C112 C117 1.371 . S
C113 H79 0.930 . S
C113 C112 1.358 . S
C113 C114 1.405 . S
C114 H80 0.932 . S
C114 C113 1.405 . S
C114 C115 1.383 . S
C115 C114 1.383 . S
C115 C116 1.393 . S
C116 H81 0.931 . S
C116 C115 1.393 . S
C116 C117 1.382 . S
C117 H82 0.929 . S
C117 C112 1.371 . S
C117 C116 1.382 . S
C118 N86 1.423 . S
C118 C119 1.362 . S
C118 C123 1.388 . S
C119 H83 0.929 . S
C119 C118 1.362 . S
C119 C120 1.376 . S
C120 H84 0.931 . S
C120 C119 1.376 . S
C120 C121 1.396 . S
C121 C103 1.472 . S
C121 C120 1.396 . S
C121 C122 1.348 . S
C122 H85 0.929 . S
C122 C121 1.348 . S
C122 C123 1.443 . S
C123 H87 0.932 . S
C123 C118 1.388 . S
C123 C122 1.443 . S
H124 C151 0.929 . S
N125 C150 1.433 . S
N125 C156 1.435 . S
N125 C162 1.423 . S
H126 C152 0.930 . S
H127 C155 0.931 . S
H128 C154 0.929 . S
H129 C157 0.930 . S
H130 C158 0.932 . S
H131 C161 0.929 . S
H132 C160 0.931 . S
H133 C163 0.929 . S
H134 C167 0.932 . S
H135 C164 0.931 . S
H136 C166 0.929 . S
H137 C169 0.929 . S
H138 C170 0.930 . S
H139 C172 0.929 . S
H140 C173 0.931 . S
H141 C175 0.930 . S
H142 C176 0.932 . S
H143 C178 0.931 . S
H144 C179 0.929 . S
H145 C181 0.929 . S
H146 C182 0.931 . S
H147 C184 0.929 . S
N148 C168 1.433 . S
N148 C174 1.435 . S
N148 C180 1.423 . S
H149 C185 0.932 . S
C150 N125 1.433 . S
C150 C151 1.363 . S
C150 C155 1.370 . S
C151 H124 0.929 . S
C151 C150 1.363 . S
C151 C152 1.385 . S
C152 H126 0.930 . S
C152 C151 1.385 . S
C152 C153 1.357 . S
C153 C152 1.357 . S
C153 C154 1.406 . S
C154 H128 0.929 . S
C154 C153 1.406 . S
C154 C155 1.391 . S
C155 H127 0.931 . S
C155 C150 1.370 . S
C155 C154 1.391 . S
C156 N125 1.435 . S
C156 C157 1.358 . S
C156 C161 1.371 . S
C157 H129 0.930 . S
C157 C156 1.358 . S
C157 C158 1.405 . S
C158 H130 0.932 . S
C158 C157 1.405 . S
C158 C159 1.383 . S
C159 C158 1.383 . S
C159 C160 1.393 . S
C160 H132 0.931 . S
C160 C159 1.393 . S
C160 C161 1.382 . S
C161 H131 0.929 . S
C161 C156 1.371 . S
C161 C160 1.382 . S
C162 N125 1.423 . S
C162 C163 1.362 . S
C162 C167 1.388 . S
C163 H133 0.929 . S
C163 C162 1.362 . S
C163 C164 1.376 . S
C164 H135 0.931 . S
C164 C163 1.376 . S
C164 C165 1.396 . S
C165 C164 1.396 . S
C165 C166 1.348 . S
C165 C183 1.472 . S
C166 H136 0.929 . S
C166 C165 1.348 . S
C166 C167 1.443 . S
C167 H134 0.932 . S
C167 C162 1.388 . S
C167 C166 1.443 . S
C168 N148 1.433 . S
C168 C169 1.363 . S
C168 C173 1.370 . S
C169 H137 0.929 . S
C169 C168 1.363 . S
C169 C170 1.385 . S
C170 H138 0.930 . S
C170 C169 1.385 . S
C170 C171 1.357 . S
C171 C170 1.357 . S
C171 C172 1.406 . S
C172 H139 0.929 . S
C172 C171 1.406 . S
C172 C173 1.391 . S
C173 H140 0.931 . S
C173 C168 1.370 . S
C173 C172 1.391 . S
C174 N148 1.435 . S
C174 C175 1.358 . S
C174 C179 1.371 . S
C175 H141 0.930 . S
C175 C174 1.358 . S
C175 C176 1.405 . S
C176 H142 0.932 . S
C176 C175 1.405 . S
C176 C177 1.383 . S
C177 C176 1.383 . S
C177 C178 1.393 . S
C178 H143 0.931 . S
C178 C177 1.393 . S
C178 C179 1.382 . S
C179 H144 0.929 . S
C179 C174 1.371 . S
C179 C178 1.382 . S
C180 N148 1.423 . S
C180 C181 1.362 . S
C180 C185 1.388 . S
C181 H145 0.929 . S
C181 C180 1.362 . S
C181 C182 1.376 . S
C182 H146 0.931 . S
C182 C181 1.376 . S
C182 C183 1.396 . S
C183 C165 1.472 . S
C183 C182 1.396 . S
C183 C184 1.348 . S
C184 H147 0.929 . S
C184 C183 1.348 . S
C184 C185 1.443 . S
C185 H149 0.932 . S
C185 C180 1.388 . S
C185 C184 1.443 . S
H186 C213 0.929 . S
N187 C212 1.433 . S
N187 C218 1.435 . S
N187 C224 1.423 . S
H188 C214 0.930 . S
H189 C217 0.931 . S
H190 C216 0.929 . S
H191 C219 0.930 . S
H192 C220 0.932 . S
H193 C223 0.929 . S
H194 C222 0.931 . S
H195 C225 0.929 . S
H196 C229 0.932 . S
H197 C226 0.931 . S
H198 C228 0.929 . S
H199 C231 0.929 . S
H200 C232 0.930 . S
H201 C234 0.929 . S
H202 C235 0.931 . S
H203 C237 0.930 . S
H204 C238 0.932 . S
H205 C240 0.931 . S
H206 C241 0.929 . S
H207 C243 0.929 . S
H208 C244 0.931 1_455 S
H209 C246 0.929 . S
N210 C230 1.433 . S
N210 C236 1.435 . S
N210 C242 1.423 . S
H211 C247 0.932 . S
C212 N187 1.433 . S
C212 C213 1.363 . S
C212 C217 1.370 . S
C213 H186 0.929 . S
C213 C212 1.363 . S
C213 C214 1.385 . S
C214 H188 0.930 . S
C214 C213 1.385 . S
C214 C215 1.357 . S
C215 C214 1.357 . S
C215 C216 1.406 . S
C216 H190 0.929 . S
C216 C215 1.406 . S
C216 C217 1.391 . S
C217 H189 0.931 . S
C217 C212 1.370 . S
C217 C216 1.391 . S
C218 N187 1.435 . S
C218 C219 1.358 . S
C218 C223 1.371 . S
C219 H191 0.930 . S
C219 C218 1.358 . S
C219 C220 1.405 . S
C220 H192 0.932 . S
C220 C219 1.405 . S
C220 C221 1.383 . S
C221 C220 1.383 . S
C221 C222 1.393 . S
C222 H194 0.931 . S
C222 C221 1.393 . S
C222 C223 1.382 . S
C223 H193 0.929 . S
C223 C218 1.371 . S
C223 C222 1.382 . S
C224 N187 1.423 . S
C224 C225 1.362 . S
C224 C229 1.388 . S
C225 H195 0.929 . S
C225 C224 1.362 . S
C225 C226 1.376 . S
C226 H197 0.931 . S
C226 C225 1.376 . S
C226 C227 1.396 . S
C227 C226 1.396 . S
C227 C228 1.348 . S
C227 C245 1.472 . S
C228 H198 0.929 . S
C228 C227 1.348 . S
C228 C229 1.443 . S
C229 H196 0.932 . S
C229 C224 1.388 . S
C229 C228 1.443 . S
C230 N210 1.433 . S
C230 C231 1.363 . S
C230 C235 1.370 . S
C231 H199 0.929 . S
C231 C230 1.363 . S
C231 C232 1.385 . S
C232 H200 0.930 . S
C232 C231 1.385 . S
C232 C233 1.357 . S
C233 C232 1.357 . S
C233 C234 1.406 . S
C234 H201 0.929 . S
C234 C233 1.406 . S
C234 C235 1.391 . S
C235 H202 0.931 . S
C235 C230 1.370 . S
C235 C234 1.391 . S
C236 N210 1.435 . S
C236 C237 1.358 . S
C236 C241 1.371 . S
C237 H203 0.930 . S
C237 C236 1.358 . S
C237 C238 1.405 . S
C238 H204 0.932 . S
C238 C237 1.405 . S
C238 C239 1.383 . S
C239 C238 1.383 . S
C239 C240 1.393 . S
C240 H205 0.931 . S
C240 C239 1.393 . S
C240 C241 1.382 . S
C241 H206 0.929 . S
C241 C236 1.371 . S
C241 C240 1.382 . S
C242 N210 1.423 . S
C242 C243 1.362 . S
C242 C247 1.388 . S
C243 H207 0.929 . S
C243 C242 1.362 . S
C243 C244 1.376 . S
C244 H208 0.931 1_655 S
C244 C243 1.376 . S
C244 C245 1.396 1_655 S
C245 C227 1.472 . S
C245 C244 1.396 1_455 S
C245 C246 1.348 1_455 S
C246 H209 0.929 . S
C246 C245 1.348 1_655 S
C246 C247 1.443 . S
C247 H211 0.932 . S
C247 C242 1.388 . S
C247 C246 1.443 . S
H248 C275 0.929 . S
N249 C274 1.433 . S
N249 C280 1.435 . S
N249 C286 1.423 . S
H250 C276 0.933 . S
H251 C279 0.931 . S
H252 C278 0.929 . S
H253 C281 0.930 . S
H254 C282 0.932 . S
H255 C285 0.929 . S
H256 C284 0.931 . S
H257 C287 0.929 . S
H258 C291 0.932 . S
H259 C288 0.957 . S
H260 C290 0.929 . S
H261 C293 0.929 . S
H262 C294 0.930 . S
H263 C296 0.929 . S
H264 C297 0.931 . S
H265 C299 0.930 . S
H266 C300 0.932 . S
H267 C302 0.931 . S
H268 C303 0.929 . S
H269 C305 0.929 . S
H270 C306 0.931 1_545 S
H271 C308 0.929 . S
N272 C292 1.433 . S
N272 C298 1.435 1_554 S
N272 C304 1.423 . S
H273 C309 0.932 . S
C274 N249 1.433 . S
C274 C275 1.363 . S
C274 C279 1.407 . S
C275 H248 0.929 . S
C275 C274 1.363 . S
C275 C276 1.422 . S
C276 H250 0.933 . S
C276 C275 1.422 . S
C276 C277 1.319 1_556 S
C277 C276 1.319 1_554 S
C277 C278 1.406 . S
C278 H252 0.929 . S
C278 C277 1.406 . S
C278 C279 1.355 1_554 S
C279 H251 0.931 . S
C279 C274 1.407 . S
C279 C278 1.355 1_556 S
C280 N249 1.435 . S
C280 C281 1.358 . S
C280 C285 1.371 . S
C281 H253 0.930 . S
C281 C280 1.358 . S
C281 C282 1.405 . S
C282 H254 0.932 . S
C282 C281 1.405 . S
C282 C283 1.383 . S
C283 C282 1.383 . S
C283 C284 1.393 . S
C284 H256 0.931 . S
C284 C283 1.393 . S
C284 C285 1.382 . S
C285 H255 0.929 . S
C285 C280 1.371 . S
C285 C284 1.382 . S
C286 N249 1.423 . S
C286 C287 1.362 . S
C286 C291 1.388 . S
C287 H257 0.929 . S
C287 C286 1.362 . S
C287 C288 1.376 . S
C288 H259 0.957 . S
C288 C287 1.376 . S
C288 C289 1.396 . S
C289 C288 1.396 . S
C289 C290 1.348 . S
C289 C307 1.492 . S
C290 H260 0.929 . S
C290 C289 1.348 . S
C290 C291 1.443 . S
C291 H258 0.932 . S
C291 C286 1.388 . S
C291 C290 1.443 . S
C292 N272 1.433 . S
C292 C293 1.363 . S
C292 C297 1.370 . S
C293 H261 0.929 . S
C293 C292 1.363 . S
C293 C294 1.385 . S
C294 H262 0.930 . S
C294 C293 1.385 . S
C294 C295 1.357 . S
C295 C294 1.357 . S
C295 C296 1.406 . S
C296 H263 0.929 . S
C296 C295 1.406 . S
C296 C297 1.391 . S
C297 H264 0.931 . S
C297 C292 1.370 . S
C297 C296 1.391 . S
C298 N272 1.435 1_556 S
C298 C299 1.358 1_556 S
C298 C303 1.371 . S
C299 H265 0.930 . S
C299 C298 1.358 1_554 S
C299 C300 1.405 1_554 S
C300 H266 0.932 . S
C300 C299 1.405 1_556 S
C300 C301 1.383 . S
C301 C300 1.383 . S
C301 C302 1.393 . S
C302 H267 0.931 . S
C302 C301 1.393 . S
C302 C303 1.382 . S
C303 H268 0.929 . S
C303 C298 1.371 . S
C303 C302 1.382 . S
C304 N272 1.423 . S
C304 C305 1.362 . S
C304 C309 1.388 1_554 S
C305 H269 0.929 . S
C305 C304 1.362 . S
C305 C306 1.376 . S
C306 H270 0.931 1_565 S
C306 C305 1.376 . S
C306 C307 1.396 1_564 S
C307 C289 1.492 . S
C307 C306 1.396 1_546 S
C307 C308 1.327 1_545 S
C308 H271 0.929 . S
C308 C307 1.327 1_565 S
C308 C309 1.443 . S
C309 H273 0.932 . S
C309 C304 1.388 1_556 S
C309 C308 1.443 . S
H310 C337 0.929 . S
N311 C336 1.433 . S
N311 C342 1.435 . S
N311 C348 1.423 . S
H312 C338 0.930 . S
H313 C341 0.931 . S
H314 C340 0.929 . S
H315 C343 0.930 . S
H316 C344 0.932 . S
H317 C347 0.929 . S
H318 C346 0.931 . S
H319 C349 0.929 . S
H320 C353 0.932 . S
H321 C350 0.931 . S
H322 C352 0.929 . S
H323 C355 0.929 . S
H324 C356 0.930 . S
H325 C358 0.929 . S
H326 C359 0.931 . S
H327 C361 0.930 . S
H328 C362 0.932 . S
H329 C364 0.931 . S
H330 C365 0.929 . S
H331 C367 0.929 . S
H332 C368 0.931 . S
H333 C370 0.929 . S
N334 C354 1.433 . S
N334 C360 1.435 . S
N334 C366 1.423 . S
H335 C371 0.932 . S
C336 N311 1.433 . S
C336 C337 1.363 . S
C336 C341 1.370 . S
C337 H310 0.929 . S
C337 C336 1.363 . S
C337 C338 1.385 . S
C338 H312 0.930 . S
C338 C337 1.385 . S
C338 C339 1.357 . S
C339 C338 1.357 . S
C339 C340 1.406 . S
C340 H314 0.929 . S
C340 C339 1.406 . S
C340 C341 1.391 . S
C341 H313 0.931 . S
C341 C336 1.370 . S
C341 C340 1.391 . S
C342 N311 1.435 . S
C342 C343 1.358 . S
C342 C347 1.371 . S
C343 H315 0.930 . S
C343 C342 1.358 . S
C343 C344 1.405 . S
C344 H316 0.932 . S
C344 C343 1.405 . S
C344 C345 1.383 . S
C345 C344 1.383 . S
C345 C346 1.393 . S
C346 H318 0.931 . S
C346 C345 1.393 . S
C346 C347 1.382 . S
C347 H317 0.929 . S
C347 C342 1.371 . S
C347 C346 1.382 . S
C348 N311 1.423 . S
C348 C349 1.362 . S
C348 C353 1.388 . S
C349 H319 0.929 . S
C349 C348 1.362 . S
C349 C350 1.376 . S
C350 H321 0.931 . S
C350 C349 1.376 . S
C350 C351 1.396 . S
C351 C350 1.396 . S
C351 C352 1.348 . S
C351 C369 1.472 . S
C352 H322 0.929 . S
C352 C351 1.348 . S
C352 C353 1.443 . S
C353 H320 0.932 . S
C353 C348 1.388 . S
C353 C352 1.443 . S
C354 N334 1.433 . S
C354 C355 1.363 . S
C354 C359 1.370 . S
C355 H323 0.929 . S
C355 C354 1.363 . S
C355 C356 1.385 . S
C356 H324 0.930 . S
C356 C355 1.385 . S
C356 C357 1.357 . S
C357 C356 1.357 . S
C357 C358 1.406 . S
C358 H325 0.929 . S
C358 C357 1.406 . S
C358 C359 1.391 . S
C359 H326 0.931 . S
C359 C354 1.370 . S
C359 C358 1.391 . S
C360 N334 1.435 . S
C360 C361 1.358 . S
C360 C365 1.371 . S
C361 H327 0.930 . S
C361 C360 1.358 . S
C361 C362 1.405 . S
C362 H328 0.932 . S
C362 C361 1.405 . S
C362 C363 1.383 . S
C363 C362 1.383 . S
C363 C364 1.393 . S
C364 H329 0.931 . S
C364 C363 1.393 . S
C364 C365 1.382 . S
C365 H330 0.929 . S
C365 C360 1.371 . S
C365 C364 1.382 . S
C366 N334 1.423 . S
C366 C367 1.362 . S
C366 C371 1.388 . S
C367 H331 0.929 . S
C367 C366 1.362 . S
C367 C368 1.376 . S
C368 H332 0.931 . S
C368 C367 1.376 . S
C368 C369 1.396 . S
C369 C351 1.472 . S
C369 C368 1.396 . S
C369 C370 1.348 . S
C370 H333 0.929 . S
C370 C369 1.348 . S
C370 C371 1.443 . S
C371 H335 0.932 . S
C371 C366 1.388 . S
C371 C370 1.443 . S
Li372 N389 1.990 . S
Li372 O432 1.956 . S
Li372 O433 1.970 . S
Li372 O434 1.961 . S
Li373 N397 1.990 . S
Li373 O432 1.970 . S
Li373 O433 1.956 . S
Li373 O435 1.961 . S
Li374 N419 1.990 . S
Li374 O432 1.961 . S
Li374 O434 1.956 . S
Li374 O435 1.970 . S
Li375 N425 1.990 . S
Li375 O433 1.961 . S
Li375 O434 1.970 . S
Li375 O435 1.956 . S
C376 C378 1.348 . S
C376 C379 1.356 . S
C376 O432 1.325 . S
N377 C380 1.314 . S
N377 C381 1.279 . S
C378 C376 1.348 . S
C378 C380 1.353 . S
C378 H436 0.929 . S
C379 C376 1.356 . S
C379 C381 1.358 . S
C379 H437 0.930 . S
C380 N377 1.314 . S
C380 C378 1.353 . S
C380 H438 0.930 . S
C381 N377 1.279 . S
C381 C379 1.358 . S
C381 H439 0.930 . S
C382 C385 1.348 . S
C382 C386 1.356 . S
C382 O433 1.325 . S
C383 N384 1.279 . S
C383 C386 1.358 . S
C383 H440 0.930 . S
N384 C383 1.279 . S
N384 C387 1.314 . S
C385 C382 1.348 . S
C385 C387 1.353 . S
C385 H441 0.929 . S
C386 C382 1.356 . S
C386 C383 1.358 . S
C386 H442 0.930 . S
C387 N384 1.314 . S
C387 C385 1.353 . S
C387 H443 0.930 . S
C388 N389 1.314 . S
C388 C393 1.353 . S
C388 H394 0.930 . S
N389 Li372 1.990 . S
N389 C388 1.314 . S
N389 C391 1.279 . S
C390 C391 1.358 . S
C390 C392 1.356 . S
C390 H444 0.930 . S
C391 N389 1.279 . S
C391 C390 1.358 . S
C391 H395 0.930 . S
C392 C390 1.356 . S
C392 C393 1.348 . S
C393 C388 1.353 . S
C393 C392 1.348 . S
C393 H445 0.929 . S
H394 C388 0.930 . S
H395 C391 0.930 . S
C396 N397 1.314 . S
C396 C398 1.353 . S
C396 H402 0.930 . S
N397 Li373 1.990 . S
N397 C396 1.314 . S
N397 C400 1.279 . S
C398 C396 1.353 . S
C398 C401 1.348 . S
C398 H446 0.929 . S
C399 C400 1.358 . S
C399 C401 1.356 . S
C399 H447 0.930 . S
C400 N397 1.279 . S
C400 C399 1.358 . S
C400 H403 0.930 . S
C401 C398 1.348 . S
C401 C399 1.356 . S
H402 C396 0.930 . S
H403 C400 0.930 . S
C404 C406 1.348 . S
C404 C407 1.356 . S
C404 O434 1.325 . S
N405 C408 1.314 . S
N405 C409 1.279 . S
C406 C404 1.348 . S
C406 C408 1.353 . S
C406 H448 0.929 . S
C407 C404 1.356 . S
C407 C409 1.358 . S
C407 H449 0.930 . S
C408 N405 1.314 . S
C408 C406 1.353 . S
C408 H450 0.930 . S
C409 N405 1.279 . S
C409 C407 1.358 . S
C409 H451 0.930 . S
C410 C411 1.348 . S
C410 C412 1.356 . S
C410 O435 1.325 . S
C411 C410 1.348 . S
C411 C413 1.353 . S
C411 H452 0.929 . S
C412 C410 1.356 . S
C412 C414 1.358 . S
C412 H453 0.930 . S
C413 C411 1.353 . S
C413 N415 1.314 . S
C413 H454 0.930 . S
C414 C412 1.358 . S
C414 N415 1.279 . S
C414 H455 0.930 . S
N415 C413 1.314 . S
N415 C414 1.279 . S
C416 C418 1.353 . S
C416 N419 1.314 . S
C416 H422 0.930 . S
C417 N419 1.279 . S
C417 C420 1.358 . S
C417 H423 0.930 . S
C418 C416 1.353 . S
C418 C421 1.348 . S
C418 H456 0.929 . S
N419 Li374 1.990 . S
N419 C416 1.314 . S
N419 C417 1.279 . S
C420 C417 1.358 . S
C420 C421 1.356 . S
C420 H457 0.930 . S
C421 C418 1.348 . S
C421 C420 1.356 . S
H422 C416 0.930 . S
H423 C417 0.930 . S
C424 N425 1.314 . S
C424 C426 1.353 . S
C424 H430 0.930 . S
N425 Li375 1.990 . S
N425 C424 1.314 . S
N425 C428 1.279 . S
C426 C424 1.353 . S
C426 C429 1.348 . S
C426 H458 0.929 . S
C427 C428 1.358 . S
C427 C429 1.356 . S
C427 H459 0.930 . S
C428 N425 1.279 . S
C428 C427 1.358 . S
C428 H431 0.930 . S
C429 C426 1.348 . S
C429 C427 1.356 . S
H430 C424 0.930 . S
H431 C428 0.930 . S
O432 Li372 1.956 . S
O432 Li373 1.970 . S
O432 Li374 1.961 . S
O432 C376 1.325 . S
O433 Li372 1.970 . S
O433 Li373 1.956 . S
O433 Li375 1.961 . S
O433 C382 1.325 . S
O434 Li372 1.961 . S
O434 Li374 1.956 . S
O434 Li375 1.970 . S
O434 C404 1.325 . S
O435 Li373 1.961 . S
O435 Li374 1.970 . S
O435 Li375 1.956 . S
O435 C410 1.325 . S
H436 C378 0.929 . S
H437 C379 0.930 . S
H438 C380 0.930 . S
H439 C381 0.930 . S
H440 C383 0.930 . S
H441 C385 0.929 . S
H442 C386 0.930 . S
H443 C387 0.930 . S
H444 C390 0.930 . S
H445 C393 0.929 . S
H446 C398 0.929 . S
H447 C399 0.930 . S
H448 C406 0.929 . S
H449 C407 0.930 . S
H450 C408 0.930 . S
H451 C409 0.930 . S
H452 C411 0.929 . S
H453 C412 0.930 . S
H454 C413 0.930 . S
H455 C414 0.930 . S
H456 C418 0.929 . S
H457 C420 0.930 . S
H458 C426 0.929 . S
H459 C427 0.930 . S
Li460 N477 1.990 . S
Li460 O520 1.956 . S
Li460 O521 1.970 . S
Li460 O522 1.961 . S
Li461 N485 1.990 . S
Li461 O520 1.970 . S
Li461 O521 1.956 . S
Li461 O523 1.961 . S
Li462 N507 1.990 . S
Li462 O520 1.961 . S
Li462 O522 1.956 . S
Li462 O523 1.970 . S
Li463 N513 1.990 . S
Li463 O521 1.961 . S
Li463 O522 1.970 . S
Li463 O523 1.956 . S
C464 C466 1.348 . S
C464 C467 1.356 . S
C464 O520 1.325 . S
N465 C468 1.314 . S
N465 C469 1.279 . S
C466 C464 1.348 . S
C466 C468 1.353 . S
C466 H524 0.929 . S
C467 C464 1.356 . S
C467 C469 1.358 . S
C467 H525 0.930 . S
C468 N465 1.314 . S
C468 C466 1.353 . S
C468 H526 0.930 . S
C469 N465 1.279 . S
C469 C467 1.358 . S
C469 H527 0.930 . S
C470 C473 1.348 . S
C470 C474 1.356 . S
C470 O521 1.325 . S
C471 N472 1.279 . S
C471 C474 1.358 . S
C471 H528 0.930 . S
N472 C471 1.279 . S
N472 C475 1.314 . S
C473 C470 1.348 . S
C473 C475 1.353 . S
C473 H529 0.929 . S
C474 C470 1.356 . S
C474 C471 1.358 . S
C474 H530 0.930 . S
C475 N472 1.314 . S
C475 C473 1.353 . S
C475 H531 0.930 . S
C476 N477 1.314 . S
C476 C481 1.353 . S
C476 H482 0.930 . S
N477 Li460 1.990 . S
N477 C476 1.314 . S
N477 C479 1.279 . S
C478 C479 1.358 . S
C478 C480 1.356 . S
C478 H532 0.930 . S
C479 N477 1.279 . S
C479 C478 1.358 . S
C479 H483 0.930 . S
C480 C478 1.356 . S
C480 C481 1.348 . S
C481 C476 1.353 . S
C481 C480 1.348 . S
C481 H533 0.929 . S
H482 C476 0.930 . S
H483 C479 0.930 . S
C484 N485 1.314 . S
C484 C486 1.353 . S
C484 H490 0.930 . S
N485 Li461 1.990 . S
N485 C484 1.314 . S
N485 C488 1.279 . S
C486 C484 1.353 . S
C486 C489 1.348 . S
C486 H534 0.929 . S
C487 C488 1.358 . S
C487 C489 1.356 . S
C487 H535 0.930 . S
C488 N485 1.279 . S
C488 C487 1.358 . S
C488 H491 0.930 . S
C489 C486 1.348 . S
C489 C487 1.356 . S
H490 C484 0.930 . S
H491 C488 0.930 . S
C492 C494 1.348 . S
C492 C495 1.356 . S
C492 O522 1.325 . S
N493 C496 1.314 . S
N493 C497 1.279 . S
C494 C492 1.348 . S
C494 C496 1.353 . S
C494 H536 0.929 . S
C495 C492 1.356 . S
C495 C497 1.358 . S
C495 H537 0.930 . S
C496 N493 1.314 . S
C496 C494 1.353 . S
C496 H538 0.930 . S
C497 N493 1.279 . S
C497 C495 1.358 . S
C497 H539 0.930 . S
C498 C499 1.348 . S
C498 C500 1.356 . S
C498 O523 1.325 . S
C499 C498 1.348 . S
C499 C501 1.353 . S
C499 H540 0.929 . S
C500 C498 1.356 . S
C500 C502 1.358 . S
C500 H541 0.930 . S
C501 C499 1.353 . S
C501 N503 1.314 . S
C501 H542 0.930 . S
C502 C500 1.358 . S
C502 N503 1.279 . S
C502 H543 0.930 . S
N503 C501 1.314 . S
N503 C502 1.279 . S
C504 C506 1.353 . S
C504 N507 1.314 . S
C504 H510 0.930 . S
C505 N507 1.279 . S
C505 C508 1.358 . S
C505 H511 0.930 . S
C506 C504 1.353 . S
C506 C509 1.348 . S
C506 H544 0.929 . S
N507 Li462 1.990 . S
N507 C504 1.314 . S
N507 C505 1.279 . S
C508 C505 1.358 . S
C508 C509 1.356 . S
C508 H545 0.930 . S
C509 C506 1.348 . S
C509 C508 1.356 . S
H510 C504 0.930 . S
H511 C505 0.930 . S
C512 N513 1.314 . S
C512 C514 1.353 . S
C512 H518 0.930 . S
N513 Li463 1.990 . S
N513 C512 1.314 . S
N513 C516 1.279 . S
C514 C512 1.353 . S
C514 C517 1.348 . S
C514 H546 0.929 . S
C515 C516 1.358 . S
C515 C517 1.356 . S
C515 H547 0.930 . S
C516 N513 1.279 . S
C516 C515 1.358 . S
C516 H519 0.930 . S
C517 C514 1.348 . S
C517 C515 1.356 . S
H518 C512 0.930 . S
H519 C516 0.930 . S
O520 Li460 1.956 . S
O520 Li461 1.970 . S
O520 Li462 1.961 . S
O520 C464 1.325 . S
O521 Li460 1.970 . S
O521 Li461 1.956 . S
O521 Li463 1.961 . S
O521 C470 1.325 . S
O522 Li460 1.961 . S
O522 Li462 1.956 . S
O522 Li463 1.970 . S
O522 C492 1.325 . S
O523 Li461 1.961 . S
O523 Li462 1.970 . S
O523 Li463 1.956 . S
O523 C498 1.325 . S
H524 C466 0.929 . S
H525 C467 0.930 . S
H526 C468 0.930 . S
H527 C469 0.930 . S
H528 C471 0.930 . S
H529 C473 0.929 . S
H530 C474 0.930 . S
H531 C475 0.930 . S
H532 C478 0.930 . S
H533 C481 0.929 . S
H534 C486 0.929 . S
H535 C487 0.930 . S
H536 C494 0.929 . S
H537 C495 0.930 . S
H538 C496 0.930 . S
H539 C497 0.930 . S
H540 C499 0.929 . S
H541 C500 0.930 . S
H542 C501 0.930 . S
H543 C502 0.930 . S
H544 C506 0.929 . S
H545 C508 0.930 . S
H546 C514 0.929 . S
H547 C515 0.930 . S
Li548 N565 1.990 . S
Li548 O608 1.956 . S
Li548 O609 1.970 . S
Li548 O610 1.961 . S
Li549 N573 1.990 . S
Li549 O608 1.970 . S
Li549 O609 1.956 . S
Li549 O611 1.961 . S
Li550 N595 1.990 . S
Li550 O608 1.961 . S
Li550 O610 1.956 . S
Li550 O611 1.970 . S
Li551 N601 1.990 . S
Li551 O609 1.961 . S
Li551 O610 1.970 . S
Li551 O611 1.956 . S
C552 C554 1.348 . S
C552 C555 1.356 . S
C552 O608 1.325 . S
N553 C556 1.314 . S
N553 C557 1.279 . S
C554 C552 1.348 . S
C554 C556 1.353 . S
C554 H612 0.929 . S
C555 C552 1.356 . S
C555 C557 1.358 . S
C555 H613 0.930 . S
C556 N553 1.314 . S
C556 C554 1.353 . S
C556 H614 0.930 . S
C557 N553 1.279 . S
C557 C555 1.358 . S
C557 H615 0.930 . S
C558 C561 1.348 . S
C558 C562 1.356 . S
C558 O609 1.325 . S
C559 N560 1.279 . S
C559 C562 1.358 . S
C559 H616 0.930 . S
N560 C559 1.279 . S
N560 C563 1.314 . S
C561 C558 1.348 . S
C561 C563 1.353 . S
C561 H617 0.929 . S
C562 C558 1.356 . S
C562 C559 1.358 . S
C562 H618 0.930 . S
C563 N560 1.314 . S
C563 C561 1.353 . S
C563 H619 0.930 . S
C564 N565 1.314 . S
C564 C569 1.353 . S
C564 H570 0.930 . S
N565 Li548 1.990 . S
N565 C564 1.314 . S
N565 C567 1.279 . S
C566 C567 1.358 . S
C566 C568 1.356 . S
C566 H620 0.930 . S
C567 N565 1.279 . S
C567 C566 1.358 . S
C567 H571 0.930 . S
C568 C566 1.356 . S
C568 C569 1.348 . S
C569 C564 1.353 . S
C569 C568 1.348 . S
C569 H621 0.929 . S
H570 C564 0.930 . S
H571 C567 0.930 . S
C572 N573 1.314 . S
C572 C574 1.353 . S
C572 H578 0.930 . S
N573 Li549 1.990 . S
N573 C572 1.314 . S
N573 C576 1.279 . S
C574 C572 1.353 . S
C574 C577 1.348 . S
C574 H622 0.929 . S
C575 C576 1.358 . S
C575 C577 1.356 . S
C575 H623 0.930 . S
C576 N573 1.279 . S
C576 C575 1.358 . S
C576 H579 0.930 . S
C577 C574 1.348 . S
C577 C575 1.356 . S
H578 C572 0.930 . S
H579 C576 0.930 . S
C580 C582 1.348 . S
C580 C583 1.356 . S
C580 O610 1.325 . S
N581 C584 1.314 . S
N581 C585 1.279 . S
C582 C580 1.348 . S
C582 C584 1.353 . S
C582 H624 0.929 . S
C583 C580 1.356 . S
C583 C585 1.358 . S
C583 H625 0.930 . S
C584 N581 1.314 . S
C584 C582 1.353 . S
C584 H626 0.930 . S
C585 N581 1.279 . S
C585 C583 1.358 . S
C585 H627 0.930 . S
C586 C587 1.348 . S
C586 C588 1.356 . S
C586 O611 1.325 . S
C587 C586 1.348 . S
C587 C589 1.353 . S
C587 H628 0.929 . S
C588 C586 1.356 . S
C588 C590 1.358 . S
C588 H629 0.930 . S
C589 C587 1.353 . S
C589 N591 1.314 . S
C589 H630 0.930 . S
C590 C588 1.358 . S
C590 N591 1.279 . S
C590 H631 0.930 . S
N591 C589 1.314 . S
N591 C590 1.279 . S
C592 C594 1.353 . S
C592 N595 1.314 . S
C592 H598 0.930 . S
C593 N595 1.279 . S
C593 C596 1.358 . S
C593 H599 0.930 . S
C594 C592 1.353 . S
C594 C597 1.348 . S
C594 H632 0.929 . S
N595 Li550 1.990 . S
N595 C592 1.314 . S
N595 C593 1.279 . S
C596 C593 1.358 . S
C596 C597 1.356 . S
C596 H633 0.930 . S
C597 C594 1.348 . S
C597 C596 1.356 . S
H598 C592 0.930 . S
H599 C593 0.930 . S
C600 N601 1.314 . S
C600 C602 1.353 . S
C600 H606 0.930 . S
N601 Li551 1.990 . S
N601 C600 1.314 . S
N601 C604 1.279 . S
C602 C600 1.353 . S
C602 C605 1.348 . S
C602 H634 0.929 . S
C603 C604 1.358 . S
C603 C605 1.356 . S
C603 H635 0.930 . S
C604 N601 1.279 . S
C604 C603 1.358 . S
C604 H607 0.930 . S
C605 C602 1.348 . S
C605 C603 1.356 . S
H606 C600 0.930 . S
H607 C604 0.930 . S
O608 Li548 1.956 . S
O608 Li549 1.970 . S
O608 Li550 1.961 . S
O608 C552 1.325 . S
O609 Li548 1.970 . S
O609 Li549 1.956 . S
O609 Li551 1.961 . S
O609 C558 1.325 . S
O610 Li548 1.961 . S
O610 Li550 1.956 . S
O610 Li551 1.970 . S
O610 C580 1.325 . S
O611 Li549 1.961 . S
O611 Li550 1.970 . S
O611 Li551 1.956 . S
O611 C586 1.325 . S
H612 C554 0.929 . S
H613 C555 0.930 . S
H614 C556 0.930 . S
H615 C557 0.930 . S
H616 C559 0.930 . S
H617 C561 0.929 . S
H618 C562 0.930 . S
H619 C563 0.930 . S
H620 C566 0.930 . S
H621 C569 0.929 . S
H622 C574 0.929 . S
H623 C575 0.930 . S
H624 C582 0.929 . S
H625 C583 0.930 . S
H626 C584 0.930 . S
H627 C585 0.930 . S
H628 C587 0.929 . S
H629 C588 0.930 . S
H630 C589 0.930 . S
H631 C590 0.930 . S
H632 C594 0.929 . S
H633 C596 0.930 . S
H634 C602 0.929 . S
H635 C603 0.930 . S
Li636 N653 1.990 . S
Li636 O696 1.956 . S
Li636 O697 1.970 . S
Li636 O698 1.961 . S
Li637 N661 1.990 . S
Li637 O696 1.970 . S
Li637 O697 1.956 . S
Li637 O699 1.961 . S
Li638 N683 1.990 . S
Li638 O696 1.961 . S
Li638 O698 1.956 . S
Li638 O699 1.970 . S
Li639 N689 1.990 . S
Li639 O697 1.961 . S
Li639 O698 1.970 . S
Li639 O699 1.956 . S
C640 C642 1.348 . S
C640 C643 1.356 . S
C640 O696 1.325 . S
N641 C644 1.314 . S
N641 C645 1.279 . S
C642 C640 1.348 . S
C642 C644 1.353 . S
C642 H700 0.929 . S
C643 C640 1.356 . S
C643 C645 1.358 . S
C643 H701 0.930 . S
C644 N641 1.314 . S
C644 C642 1.353 . S
C644 H702 0.930 . S
C645 N641 1.279 . S
C645 C643 1.358 . S
C645 H703 0.930 . S
C646 C649 1.348 . S
C646 C650 1.356 . S
C646 O697 1.325 . S
C647 N648 1.279 . S
C647 C650 1.358 . S
C647 H704 0.930 . S
N648 C647 1.279 . S
N648 C651 1.314 . S
C649 C646 1.348 . S
C649 C651 1.353 . S
C649 H705 0.929 . S
C650 C646 1.356 . S
C650 C647 1.358 . S
C650 H706 0.930 . S
C651 N648 1.314 . S
C651 C649 1.353 . S
C651 H707 0.930 . S
C652 N653 1.314 . S
C652 C657 1.353 . S
C652 H658 0.930 . S
N653 Li636 1.990 . S
N653 C652 1.314 . S
N653 C655 1.279 . S
C654 C655 1.358 . S
C654 C656 1.356 . S
C654 H708 0.930 1_556 S
C655 N653 1.279 . S
C655 C654 1.358 . S
C655 H659 0.930 . S
C656 C654 1.356 . S
C656 C657 1.348 . S
C657 C652 1.353 . S
C657 C656 1.348 . S
C657 H709 0.929 . S
H658 C652 0.930 . S
H659 C655 0.930 . S
C660 N661 1.314 . S
C660 C662 1.353 . S
C660 H666 0.930 . S
N661 Li637 1.990 . S
N661 C660 1.314 . S
N661 C664 1.279 . S
C662 C660 1.353 . S
C662 C665 1.348 . S
C662 H710 0.929 . S
C663 C664 1.358 . S
C663 C665 1.356 . S
C663 H711 0.930 . S
C664 N661 1.279 . S
C664 C663 1.358 . S
C664 H667 0.930 . S
C665 C662 1.348 . S
C665 C663 1.356 . S
H666 C660 0.930 . S
H667 C664 0.930 . S
C668 C670 1.348 . S
C668 C671 1.356 . S
C668 O698 1.325 . S
N669 C672 1.314 . S
N669 C673 1.279 . S
C670 C668 1.348 . S
C670 C672 1.353 . S
C670 H712 0.929 . S
C671 C668 1.356 . S
C671 C673 1.358 . S
C671 H713 0.930 . S
C672 N669 1.314 . S
C672 C670 1.353 . S
C672 H714 0.930 . S
C673 N669 1.279 . S
C673 C671 1.358 . S
C673 H715 0.930 . S
C674 C675 1.348 . S
C674 C676 1.356 . S
C674 O699 1.325 . S
C675 C674 1.348 . S
C675 C677 1.353 . S
C675 H716 0.929 . S
C676 C674 1.356 . S
C676 C678 1.358 . S
C676 H717 0.930 . S
C677 C675 1.353 . S
C677 N679 1.314 . S
C677 H718 0.930 . S
C678 C676 1.358 . S
C678 N679 1.279 . S
C678 H719 0.930 . S
N679 C677 1.314 . S
N679 C678 1.279 . S
C680 C682 1.353 . S
C680 N683 1.314 . S
C680 H686 0.930 . S
C681 N683 1.279 . S
C681 C684 1.358 . S
C681 H687 0.930 . S
C682 C680 1.353 . S
C682 C685 1.348 . S
C682 H720 0.929 . S
N683 Li638 1.990 . S
N683 C680 1.314 . S
N683 C681 1.279 . S
C684 C681 1.358 . S
C684 C685 1.356 . S
C684 H721 0.930 . S
C685 C682 1.348 . S
C685 C684 1.356 . S
H686 C680 0.930 . S
H687 C681 0.930 . S
C688 N689 1.314 . S
C688 C690 1.353 . S
C688 H694 0.930 . S
N689 Li639 1.990 . S
N689 C688 1.314 . S
N689 C692 1.279 . S
C690 C688 1.353 . S
C690 C693 1.348 . S
C690 H722 0.929 . S
C691 C692 1.358 . S
C691 C693 1.356 . S
C691 H723 0.930 . S
C692 N689 1.279 . S
C692 C691 1.358 . S
C692 H695 0.930 . S
C693 C690 1.348 . S
C693 C691 1.356 . S
H694 C688 0.930 . S
H695 C692 0.930 . S
O696 Li636 1.956 . S
O696 Li637 1.970 . S
O696 Li638 1.961 . S
O696 C640 1.325 . S
O697 Li636 1.970 . S
O697 Li637 1.956 . S
O697 Li639 1.961 . S
O697 C646 1.325 . S
O698 Li636 1.961 . S
O698 Li638 1.956 . S
O698 Li639 1.970 . S
O698 C668 1.325 . S
O699 Li637 1.961 . S
O699 Li638 1.970 . S
O699 Li639 1.956 . S
O699 C674 1.325 . S
H700 C642 0.929 . S
H701 C643 0.930 . S
H702 C644 0.930 . S
H703 C645 0.930 . S
H704 C647 0.930 . S
H705 C649 0.929 . S
H706 C650 0.930 . S
H707 C651 0.930 . S
H708 C654 0.930 1_554 S
H709 C657 0.929 . S
H710 C662 0.929 . S
H711 C663 0.930 . S
H712 C670 0.929 . S
H713 C671 0.930 . S
H714 C672 0.930 . S
H715 C673 0.930 . S
H716 C675 0.929 . S
H717 C676 0.930 . S
H718 C677 0.930 . S
H719 C678 0.930 . S
H720 C682 0.929 . S
H721 C684 0.930 . S
H722 C690 0.929 . S
H723 C691 0.930 . S
Li724 N741 1.990 . S
Li724 O784 1.956 . S
Li724 O785 1.970 . S
Li724 O786 1.961 . S
Li725 N749 1.990 . S
Li725 O784 1.970 . S
Li725 O785 1.956 . S
Li725 O787 1.961 . S
Li726 N771 1.990 . S
Li726 O784 1.961 . S
Li726 O786 1.956 . S
Li726 O787 1.970 . S
Li727 N777 1.990 . S
Li727 O785 1.961 . S
Li727 O786 1.970 . S
Li727 O787 1.956 . S
C728 C730 1.348 . S
C728 C731 1.356 . S
C728 O784 1.325 . S
N729 C732 1.314 . S
N729 C733 1.279 . S
C730 C728 1.348 . S
C730 C732 1.353 . S
C730 H788 0.929 . S
C731 C728 1.356 . S
C731 C733 1.358 . S
C731 H789 0.930 . S
C732 N729 1.314 . S
C732 C730 1.353 . S
C732 H790 0.930 . S
C733 N729 1.279 . S
C733 C731 1.358 . S
C733 H791 0.930 . S
C734 C737 1.348 . S
C734 C738 1.356 . S
C734 O785 1.325 . S
C735 N736 1.279 . S
C735 C738 1.358 . S
C735 H792 0.930 . S
N736 C735 1.279 . S
N736 C739 1.314 . S
C737 C734 1.348 . S
C737 C739 1.353 . S
C737 H793 0.929 . S
C738 C734 1.356 . S
C738 C735 1.358 . S
C738 H794 0.930 . S
C739 N736 1.314 . S
C739 C737 1.353 . S
C739 H795 0.930 . S
C740 N741 1.314 . S
C740 C745 1.353 . S
C740 H746 0.930 . S
N741 Li724 1.990 . S
N741 C740 1.314 . S
N741 C743 1.279 . S
C742 C743 1.358 . S
C742 C744 1.356 . S
C742 H796 0.930 . S
C743 N741 1.279 . S
C743 C742 1.358 . S
C743 H747 0.930 . S
C744 C742 1.356 . S
C744 C745 1.348 . S
C745 C740 1.353 . S
C745 C744 1.348 . S
C745 H797 0.929 . S
H746 C740 0.930 . S
H747 C743 0.930 . S
C748 N749 1.314 . S
C748 C750 1.353 . S
C748 H754 0.930 . S
N749 Li725 1.990 . S
N749 C748 1.314 . S
N749 C752 1.279 . S
C750 C748 1.353 . S
C750 C753 1.348 . S
C750 H798 0.929 . S
C751 C752 1.358 . S
C751 C753 1.356 . S
C751 H799 0.930 . S
C752 N749 1.279 . S
C752 C751 1.358 . S
C752 H755 0.930 . S
C753 C750 1.348 . S
C753 C751 1.356 . S
H754 C748 0.930 . S
H755 C752 0.930 . S
C756 C758 1.348 . S
C756 C759 1.356 . S
C756 O786 1.325 . S
N757 C760 1.331 . S
N757 C761 1.298 . S
C758 C756 1.348 . S
C758 C760 1.353 . S
C758 H800 0.929 . S
C759 C756 1.356 . S
C759 C761 1.358 . S
C759 H801 0.930 . S
C760 N757 1.331 . S
C760 C758 1.353 . S
C760 H802 0.930 . S
C761 N757 1.298 . S
C761 C759 1.358 . S
C761 H803 0.930 . S
C762 C763 1.348 . S
C762 C764 1.356 . S
C762 O787 1.325 . S
C763 C762 1.348 . S
C763 C765 1.353 . S
C763 H804 0.929 . S
C764 C762 1.356 . S
C764 C766 1.358 . S
C764 H805 0.930 . S
C765 C763 1.353 . S
C765 N767 1.314 . S
C765 H806 0.930 . S
C766 C764 1.358 . S
C766 N767 1.279 . S
C766 H807 0.930 . S
N767 C765 1.314 . S
N767 C766 1.279 . S
C768 C770 1.353 . S
C768 N771 1.314 . S
C768 H774 0.930 . S
C769 N771 1.279 . S
C769 C772 1.358 1_554 S
C769 H775 0.930 . S
C770 C768 1.353 . S
C770 C773 1.348 1_554 S
C770 H808 0.929 . S
N771 Li726 1.990 . S
N771 C768 1.314 . S
N771 C769 1.279 . S
C772 C769 1.358 1_556 S
C772 C773 1.356 . S
C772 H809 0.930 . S
C773 C770 1.348 1_556 S
C773 C772 1.356 . S
H774 C768 0.930 . S
H775 C769 0.930 . S
C776 N777 1.314 . S
C776 C778 1.353 . S
C776 H782 0.930 . S
N777 Li727 1.990 . S
N777 C776 1.314 . S
N777 C780 1.279 . S
C778 C776 1.353 . S
C778 C781 1.348 . S
C778 H810 0.929 . S
C779 C780 1.358 . S
C779 C781 1.356 . S
C779 H811 0.930 . S
C780 N777 1.279 . S
C780 C779 1.358 . S
C780 H783 0.930 . S
C781 C778 1.348 . S
C781 C779 1.356 . S
H782 C776 0.930 . S
H783 C780 0.930 . S
O784 Li724 1.956 . S
O784 Li725 1.970 . S
O784 Li726 1.961 . S
O784 C728 1.325 . S
O785 Li724 1.970 . S
O785 Li725 1.956 . S
O785 Li727 1.961 . S
O785 C734 1.325 . S
O786 Li724 1.961 . S
O786 Li726 1.956 . S
O786 Li727 1.970 . S
O786 C756 1.325 . S
O787 Li725 1.961 . S
O787 Li726 1.970 . S
O787 Li727 1.956 . S
O787 C762 1.325 . S
H788 C730 0.929 . S
H789 C731 0.930 . S
H790 C732 0.930 . S
H791 C733 0.930 . S
H792 C735 0.930 . S
H793 C737 0.929 . S
H794 C738 0.930 . S
H795 C739 0.930 . S
H796 C742 0.930 . S
H797 C745 0.929 . S
H798 C750 0.929 . S
H799 C751 0.930 . S
H800 C758 0.929 . S
H801 C759 0.930 . S
H802 C760 0.930 . S
H803 C761 0.930 . S
H804 C763 0.929 . S
H805 C764 0.930 . S
H806 C765 0.930 . S
H807 C766 0.930 . S
H808 C770 0.929 . S
H809 C772 0.930 . S
H810 C778 0.929 . S
H811 C779 0.930 . S
Li812 N829 1.990 . S
Li812 O872 1.956 . S
Li812 O873 1.970 . S
Li812 O874 1.961 . S
Li813 N837 1.990 . S
Li813 O872 1.970 . S
Li813 O873 1.956 . S
Li813 O875 1.961 . S
Li814 N859 1.990 . S
Li814 O872 1.961 . S
Li814 O874 1.956 . S
Li814 O875 1.970 . S
Li815 N865 1.990 . S
Li815 O873 1.961 . S
Li815 O874 1.970 . S
Li815 O875 1.956 . S
C816 C818 1.348 . S
C816 C819 1.356 . S
C816 O872 1.325 . S
N817 C820 1.314 . S
N817 C821 1.279 . S
C818 C816 1.348 . S
C818 C820 1.353 . S
C818 H876 0.929 . S
C819 C816 1.356 . S
C819 C821 1.358 . S
C819 H877 0.930 . S
C820 N817 1.314 . S
C820 C818 1.353 . S
C820 H878 0.930 . S
C821 N817 1.279 . S
C821 C819 1.358 . S
C821 H879 0.930 . S
C822 C825 1.348 . S
C822 C826 1.356 . S
C822 O873 1.325 . S
C823 N824 1.279 . S
C823 C826 1.358 . S
C823 H880 0.930 . S
N824 C823 1.279 . S
N824 C827 1.314 . S
C825 C822 1.348 . S
C825 C827 1.353 . S
C825 H881 0.929 . S
C826 C822 1.356 . S
C826 C823 1.358 . S
C826 H882 0.930 . S
C827 N824 1.314 . S
C827 C825 1.353 . S
C827 H883 0.930 . S
C828 N829 1.314 . S
C828 C833 1.353 . S
C828 H834 0.930 . S
N829 Li812 1.990 . S
N829 C828 1.314 . S
N829 C831 1.279 . S
C830 C831 1.358 . S
C830 C832 1.356 . S
C830 H884 0.930 . S
C831 N829 1.279 . S
C831 C830 1.358 . S
C831 H835 0.930 . S
C832 C830 1.356 . S
C832 C833 1.348 . S
C833 C828 1.353 . S
C833 C832 1.348 . S
C833 H885 0.929 . S
H834 C828 0.930 . S
H835 C831 0.930 . S
C836 N837 1.314 . S
C836 C838 1.353 . S
C836 H842 0.930 . S
N837 Li813 1.990 . S
N837 C836 1.314 . S
N837 C840 1.279 . S
C838 C836 1.353 . S
C838 C841 1.348 . S
C838 H886 0.929 . S
C839 C840 1.358 . S
C839 C841 1.356 . S
C839 H887 0.930 . S
C840 N837 1.279 . S
C840 C839 1.358 . S
C840 H843 0.930 . S
C841 C838 1.348 . S
C841 C839 1.356 . S
H842 C836 0.930 . S
H843 C840 0.930 . S
C844 C846 1.348 . S
C844 C847 1.356 . S
C844 O874 1.325 . S
N845 C848 1.314 . S
N845 C849 1.279 . S
C846 C844 1.348 . S
C846 C848 1.353 . S
C846 H888 0.929 . S
C847 C844 1.356 . S
C847 C849 1.358 . S
C847 H889 0.930 . S
C848 N845 1.314 . S
C848 C846 1.353 . S
C848 H890 0.930 . S
C849 N845 1.279 . S
C849 C847 1.358 . S
C849 H891 0.930 . S
C850 C851 1.348 . S
C850 C852 1.356 . S
C850 O875 1.325 . S
C851 C850 1.348 . S
C851 C853 1.353 . S
C851 H892 0.929 . S
C852 C850 1.356 . S
C852 C854 1.358 . S
C852 H893 0.930 . S
C853 C851 1.353 . S
C853 N855 1.314 . S
C853 H894 0.930 . S
C854 C852 1.358 . S
C854 N855 1.279 . S
C854 H895 0.930 . S
N855 C853 1.314 . S
N855 C854 1.279 . S
C856 C858 1.353 . S
C856 N859 1.314 . S
C856 H862 0.930 . S
C857 N859 1.279 . S
C857 C860 1.358 . S
C857 H863 0.930 . S
C858 C856 1.353 . S
C858 C861 1.348 . S
C858 H896 0.929 . S
N859 Li814 1.990 . S
N859 C856 1.314 . S
N859 C857 1.279 . S
C860 C857 1.358 . S
C860 C861 1.356 . S
C860 H897 0.930 . S
C861 C858 1.348 . S
C861 C860 1.356 . S
H862 C856 0.930 . S
H863 C857 0.930 . S
C864 N865 1.314 . S
C864 C866 1.353 . S
C864 H870 0.930 . S
N865 Li815 1.990 . S
N865 C864 1.314 . S
N865 C868 1.279 . S
C866 C864 1.353 . S
C866 C869 1.348 . S
C866 H898 0.929 . S
C867 C868 1.358 . S
C867 C869 1.356 . S
C867 H899 0.930 . S
C868 N865 1.279 . S
C868 C867 1.358 . S
C868 H871 0.930 . S
C869 C866 1.348 . S
C869 C867 1.356 . S
H870 C864 0.930 . S
H871 C868 0.930 . S
O872 Li812 1.956 . S
O872 Li813 1.970 . S
O872 Li814 1.961 . S
O872 C816 1.325 . S
O873 Li812 1.970 . S
O873 Li813 1.956 . S
O873 Li815 1.961 . S
O873 C822 1.325 . S
O874 Li812 1.961 . S
O874 Li814 1.956 . S
O874 Li815 1.970 . S
O874 C844 1.325 . S
O875 Li813 1.961 . S
O875 Li814 1.970 . S
O875 Li815 1.956 . S
O875 C850 1.325 . S
H876 C818 0.929 . S
H877 C819 0.930 . S
H878 C820 0.930 . S
H879 C821 0.930 . S
H880 C823 0.930 . S
H881 C825 0.929 . S
H882 C826 0.930 . S
H883 C827 0.930 . S
H884 C830 0.930 . S
H885 C833 0.929 . S
H886 C838 0.929 . S
H887 C839 0.930 . S
H888 C846 0.929 . S
H889 C847 0.930 . S
H890 C848 0.930 . S
H891 C849 0.930 . S
H892 C851 0.929 . S
H893 C852 0.930 . S
H894 C853 0.930 . S
H895 C854 0.930 . S
H896 C858 0.929 . S
H897 C860 0.930 . S
H898 C866 0.929 . S
H899 C867 0.930 . S
H900 C906 0.930 . S
H901 C909 0.930 . S
H902 C910 0.930 . S
H903 C911 0.930 . S
H904 C914 0.930 . S
H905 C915 0.930 . S
C906 H900 0.930 . S
C906 C907 1.355 . S
C906 C908 1.415 . S
C907 C906 1.355 . S
C907 C909 1.419 . S
C908 C906 1.415 . S
C908 C913 1.425 . S
C908 C915 1.409 . S
C909 H901 0.930 . S
C909 C907 1.419 . S
C909 C910 1.362 . S
C910 H902 0.930 . S
C910 C909 1.362 . S
C910 C913 1.409 . S
C911 H903 0.930 . S
C911 C912 1.355 . S
C911 C913 1.415 . S
C912 C911 1.355 . S
C912 C914 1.419 . S
C913 C908 1.425 . S
C913 C910 1.409 . S
C913 C911 1.415 . S
C914 H904 0.930 . S
C914 C912 1.419 . S
C914 C915 1.362 . S
C915 H905 0.930 . S
C915 C908 1.409 . S
C915 C914 1.362 . S
H916 C922 0.930 . S
H917 C925 0.930 . S
H918 C926 0.930 . S
H919 C927 0.930 . S
H920 C930 0.930 . S
H921 C931 0.930 . S
C922 H916 0.930 . S
C922 C923 1.355 . S
C922 C924 1.415 . S
C923 C922 1.355 . S
C923 C925 1.419 . S
C924 C922 1.415 . S
C924 C929 1.425 . S
C924 C931 1.409 . S
C925 H917 0.930 . S
C925 C923 1.419 . S
C925 C926 1.362 . S
C926 H918 0.930 . S
C926 C925 1.362 . S
C926 C929 1.409 . S
C927 H919 0.930 . S
C927 C928 1.355 . S
C927 C929 1.415 . S
C928 C927 1.355 . S
C928 C930 1.419 . S
C929 C924 1.425 . S
C929 C926 1.409 . S
C929 C927 1.415 . S
C930 H920 0.930 . S
C930 C928 1.419 . S
C930 C931 1.362 . S
C931 H921 0.930 . S
C931 C924 1.409 . S
C931 C930 1.362 . S
H932 C938 0.930 . S
H933 C941 0.930 . S
H934 C942 0.930 . S
H935 C943 0.930 . S
H936 C946 0.930 . S
H937 C947 0.930 . S
C938 H932 0.930 . S
C938 C939 1.355 . S
C938 C940 1.415 . S
C939 C938 1.355 . S
C939 C941 1.419 . S
C940 C938 1.415 . S
C940 C945 1.425 . S
C940 C947 1.409 . S
C941 H933 0.930 . S
C941 C939 1.419 . S
C941 C942 1.362 . S
C942 H934 0.930 . S
C942 C941 1.362 . S
C942 C945 1.409 . S
C943 H935 0.930 . S
C943 C944 1.355 . S
C943 C945 1.415 . S
C944 C943 1.355 . S
C944 C946 1.419 . S
C945 C940 1.425 . S
C945 C942 1.409 . S
C945 C943 1.415 . S
C946 H936 0.930 . S
C946 C944 1.419 . S
C946 C947 1.362 . S
C947 H937 0.930 . S
C947 C940 1.409 . S
C947 C946 1.362 . S
H948 C954 0.930 . S
H949 C957 0.930 . S
H950 C958 0.930 . S
H951 C959 0.930 . S
H952 C962 0.930 . S
H953 C963 0.930 . S
C954 H948 0.930 . S
C954 C955 1.355 . S
C954 C956 1.415 . S
C955 C954 1.355 . S
C955 C957 1.419 . S
C956 C954 1.415 . S
C956 C961 1.425 . S
C956 C963 1.409 . S
C957 H949 0.930 . S
C957 C955 1.419 . S
C957 C958 1.362 . S
C958 H950 0.930 . S
C958 C957 1.362 . S
C958 C961 1.409 . S
C959 H951 0.930 . S
C959 C960 1.355 . S
C959 C961 1.415 . S
C960 C959 1.355 . S
C960 C962 1.419 . S
C961 C956 1.425 . S
C961 C958 1.409 . S
C961 C959 1.415 . S
C962 H952 0.930 . S
C962 C960 1.419 . S
C962 C963 1.362 . S
C963 H953 0.930 . S
C963 C956 1.409 . S
C963 C962 1.362 . S
H964 C970 0.930 . S
H965 C973 0.930 . S
H966 C974 0.930 . S
H967 C975 0.930 . S
H968 C978 0.930 . S
H969 C979 0.930 . S
C970 H964 0.930 . S
C970 C971 1.355 . S
C970 C972 1.415 . S
C971 C970 1.355 . S
C971 C973 1.419 . S
C972 C970 1.415 . S
C972 C977 1.425 . S
C972 C979 1.409 . S
C973 H965 0.930 . S
C973 C971 1.419 . S
C973 C974 1.362 . S
C974 H966 0.930 . S
C974 C973 1.362 . S
C974 C977 1.409 . S
C975 H967 0.930 . S
C975 C976 1.355 . S
C975 C977 1.415 . S
C976 C975 1.355 . S
C976 C978 1.419 . S
C977 C972 1.425 . S
C977 C974 1.409 . S
C977 C975 1.415 . S
C978 H968 0.930 . S
C978 C976 1.419 . S
C978 C979 1.362 . S
C979 H969 0.930 . S
C979 C972 1.409 . S
C979 C978 1.362 . S
H980 C986 0.930 . S
H981 C989 0.930 . S
H982 C990 0.930 . S
H983 C991 0.930 . S
H984 C994 0.930 . S
H985 C995 0.930 . S
C986 H980 0.930 . S
C986 C987 1.355 . S
C986 C988 1.415 . S
C987 C986 1.355 . S
C987 C989 1.419 . S
C988 C986 1.415 . S
C988 C993 1.425 . S
C988 C995 1.409 . S
C989 H981 0.930 . S
C989 C987 1.419 . S
C989 C990 1.362 . S
C990 H982 0.930 . S
C990 C989 1.362 . S
C990 C993 1.409 . S
C991 H983 0.930 . S
C991 C992 1.355 . S
C991 C993 1.415 . S
C992 C991 1.355 . S
C992 C994 1.419 . S
C993 C988 1.425 . S
C993 C990 1.409 . S
C993 C991 1.415 . S
C994 H984 0.930 . S
C994 C992 1.419 . S
C994 C995 1.362 . S
C995 H985 0.930 . S
C995 C988 1.409 . S
C995 C994 1.362 . S
H996 C1002 0.930 . S
H997 C1005 0.930 . S
H998 C1006 0.930 . S
H999 C1007 0.930 . S
H1000 C1010 0.930 . S
H1001 C1011 0.930 . S
C1002 H996 0.930 . S
C1002 C1003 1.355 . S
C1002 C1004 1.415 . S
C1003 C1002 1.355 . S
C1003 C1005 1.419 . S
C1004 C1002 1.415 . S
C1004 C1009 1.425 . S
C1004 C1011 1.409 . S
C1005 H997 0.930 . S
C1005 C1003 1.419 . S
C1005 C1006 1.362 . S
C1006 H998 0.930 . S
C1006 C1005 1.362 . S
C1006 C1009 1.409 . S
C1007 H999 0.930 . S
C1007 C1008 1.355 . S
C1007 C1009 1.415 . S
C1008 C1007 1.355 . S
C1008 C1010 1.419 . S
C1009 C1004 1.425 . S
C1009 C1006 1.409 . S
C1009 C1007 1.415 . S
C1010 H1000 0.930 . S
C1010 C1008 1.419 . S
C1010 C1011 1.362 . S
C1011 H1001 0.930 . S
C1011 C1004 1.409 . S
C1011 C1010 1.362 . S
H1012 C1018 0.930 . S
H1013 C1021 0.930 . S
H1014 C1022 0.930 . S
H1015 C1023 0.930 . S
H1016 C1026 0.930 . S
H1017 C1027 0.930 . S
C1018 H1012 0.930 . S
C1018 C1019 1.355 . S
C1018 C1020 1.415 . S
C1019 C1018 1.355 . S
C1019 C1021 1.419 . S
C1020 C1018 1.415 . S
C1020 C1025 1.425 . S
C1020 C1027 1.409 . S
C1021 H1013 0.930 . S
C1021 C1019 1.419 . S
C1021 C1022 1.362 . S
C1022 H1014 0.930 . S
C1022 C1021 1.362 . S
C1022 C1025 1.409 . S
C1023 H1015 0.930 . S
C1023 C1024 1.355 . S
C1023 C1025 1.415 . S
C1024 C1023 1.355 . S
C1024 C1026 1.419 . S
C1025 C1020 1.425 . S
C1025 C1022 1.409 . S
C1025 C1023 1.415 . S
C1026 H1016 0.930 . S
C1026 C1024 1.419 . S
C1026 C1027 1.362 . S
C1027 H1017 0.930 . S
C1027 C1020 1.409 . S
C1027 C1026 1.362 . S
H1028 C1034 0.930 . S
H1029 C1037 0.930 . S
H1030 C1038 0.930 . S
H1031 C1039 0.930 . S
H1032 C1042 0.930 . S
H1033 C1043 0.930 . S
C1034 H1028 0.930 . S
C1034 C1035 1.355 . S
C1034 C1036 1.415 . S
C1035 C1034 1.355 . S
C1035 C1037 1.419 . S
C1036 C1034 1.415 . S
C1036 C1041 1.425 . S
C1036 C1043 1.409 . S
C1037 H1029 0.930 . S
C1037 C1035 1.419 . S
C1037 C1038 1.362 . S
C1038 H1030 0.930 . S
C1038 C1037 1.362 . S
C1038 C1041 1.409 . S
C1039 H1031 0.930 . S
C1039 C1040 1.355 . S
C1039 C1041 1.415 . S
C1040 C1039 1.355 . S
C1040 C1042 1.419 . S
C1041 C1036 1.425 . S
C1041 C1038 1.409 . S
C1041 C1039 1.415 . S
C1042 H1032 0.930 . S
C1042 C1040 1.419 . S
C1042 C1043 1.362 . S
C1043 H1033 0.930 . S
C1043 C1036 1.409 . S
C1043 C1042 1.362 . S
H1044 C1050 0.930 . S
H1045 C1053 0.930 . S
H1046 C1054 0.930 . S
H1047 C1055 0.930 . S
H1048 C1058 0.930 . S
H1049 C1059 0.930 . S
C1050 H1044 0.930 . S
C1050 C1051 1.355 . S
C1050 C1052 1.415 . S
C1051 C1050 1.355 . S
C1051 C1053 1.419 . S
C1052 C1050 1.415 . S
C1052 C1057 1.425 . S
C1052 C1059 1.409 . S
C1053 H1045 0.930 . S
C1053 C1051 1.419 . S
C1053 C1054 1.362 . S
C1054 H1046 0.930 . S
C1054 C1053 1.362 . S
C1054 C1057 1.409 . S
C1055 H1047 0.930 . S
C1055 C1056 1.355 . S
C1055 C1057 1.415 . S
C1056 C1055 1.355 . S
C1056 C1058 1.419 . S
C1057 C1052 1.425 . S
C1057 C1054 1.409 . S
C1057 C1055 1.415 . S
C1058 H1048 0.930 . S
C1058 C1056 1.419 . S
C1058 C1059 1.362 . S
C1059 H1049 0.930 . S
C1059 C1052 1.409 . S
C1059 C1058 1.362 . S
H1060 C1066 0.930 . S
H1061 C1069 0.930 . S
H1062 C1070 0.930 . S
H1063 C1071 0.930 . S
H1064 C1074 0.930 . S
H1065 C1075 0.930 . S
C1066 H1060 0.930 . S
C1066 C1067 1.355 . S
C1066 C1068 1.415 . S
C1067 C1066 1.355 . S
C1067 C1069 1.419 . S
C1068 C1066 1.415 . S
C1068 C1073 1.425 . S
C1068 C1075 1.409 . S
C1069 H1061 0.930 . S
C1069 C1067 1.419 . S
C1069 C1070 1.362 . S
C1070 H1062 0.930 . S
C1070 C1069 1.362 . S
C1070 C1073 1.409 . S
C1071 H1063 0.930 . S
C1071 C1072 1.355 . S
C1071 C1073 1.415 . S
C1072 C1071 1.355 . S
C1072 C1074 1.419 . S
C1073 C1068 1.425 . S
C1073 C1070 1.409 . S
C1073 C1071 1.415 . S
C1074 H1064 0.930 . S
C1074 C1072 1.419 . S
C1074 C1075 1.362 . S
C1075 H1065 0.930 . S
C1075 C1068 1.409 . S
C1075 C1074 1.362 . S
H1076 C1082 0.930 . S
H1077 C1085 0.930 . S
H1078 C1086 0.930 . S
H1079 C1087 0.930 . S
H1080 C1090 0.930 . S
H1081 C1091 0.930 . S
C1082 H1076 0.930 . S
C1082 C1083 1.355 . S
C1082 C1084 1.415 . S
C1083 C1082 1.355 . S
C1083 C1085 1.419 . S
C1084 C1082 1.415 . S
C1084 C1089 1.425 . S
C1084 C1091 1.409 . S
C1085 H1077 0.930 . S
C1085 C1083 1.419 . S
C1085 C1086 1.362 . S
C1086 H1078 0.930 . S
C1086 C1085 1.362 . S
C1086 C1089 1.409 . S
C1087 H1079 0.930 . S
C1087 C1088 1.355 . S
C1087 C1089 1.415 . S
C1088 C1087 1.355 . S
C1088 C1090 1.419 . S
C1089 C1084 1.425 . S
C1089 C1086 1.409 . S
C1089 C1087 1.415 . S
C1090 H1080 0.930 . S
C1090 C1088 1.419 . S
C1090 C1091 1.362 . S
C1091 H1081 0.930 . S
C1091 C1084 1.409 . S
C1091 C1090 1.362 . S
H1092 C1098 0.930 . S
H1093 C1101 0.930 . S
H1094 C1102 0.930 . S
H1095 C1103 0.930 . S
H1096 C1106 0.930 . S
H1097 C1107 0.930 . S
C1098 H1092 0.930 . S
C1098 C1099 1.355 . S
C1098 C1100 1.415 . S
C1099 C1098 1.355 . S
C1099 C1101 1.419 . S
C1100 C1098 1.415 . S
C1100 C1105 1.425 . S
C1100 C1107 1.409 . S
C1101 H1093 0.930 . S
C1101 C1099 1.419 . S
C1101 C1102 1.362 . S
C1102 H1094 0.930 . S
C1102 C1101 1.362 . S
C1102 C1105 1.409 . S
C1103 H1095 0.930 . S
C1103 C1104 1.355 . S
C1103 C1105 1.415 . S
C1104 C1103 1.355 . S
C1104 C1106 1.419 . S
C1105 C1100 1.425 . S
C1105 C1102 1.409 . S
C1105 C1103 1.415 . S
C1106 H1096 0.930 . S
C1106 C1104 1.419 . S
C1106 C1107 1.362 . S
C1107 H1097 0.930 . S
C1107 C1100 1.409 . S
C1107 C1106 1.362 . S
H1108 C1114 0.930 . S
H1109 C1117 0.930 . S
H1110 C1118 0.930 . S
H1111 C1119 0.930 . S
H1112 C1122 0.930 . S
H1113 C1123 0.930 . S
C1114 H1108 0.930 . S
C1114 C1115 1.355 . S
C1114 C1116 1.415 . S
C1115 C1114 1.355 . S
C1115 C1117 1.419 . S
C1116 C1114 1.415 . S
C1116 C1121 1.425 . S
C1116 C1123 1.409 . S
C1117 H1109 0.930 . S
C1117 C1115 1.419 . S
C1117 C1118 1.362 . S
C1118 H1110 0.930 . S
C1118 C1117 1.362 . S
C1118 C1121 1.409 . S
C1119 H1111 0.930 . S
C1119 C1120 1.355 . S
C1119 C1121 1.415 . S
C1120 C1119 1.355 . S
C1120 C1122 1.419 . S
C1121 C1116 1.425 . S
C1121 C1118 1.409 . S
C1121 C1119 1.415 . S
C1122 H1112 0.930 . S
C1122 C1120 1.419 . S
C1122 C1123 1.362 . S
C1123 H1113 0.930 . S
C1123 C1116 1.409 . S
C1123 C1122 1.362 . S
H1124 C1130 0.930 . S
H1125 C1133 0.930 . S
H1126 C1134 0.930 . S
H1127 C1135 0.930 . S
H1128 C1138 0.930 . S
H1129 C1139 0.930 . S
C1130 H1124 0.930 . S
C1130 C1131 1.355 . S
C1130 C1132 1.415 . S
C1131 C1130 1.355 . S
C1131 C1133 1.419 . S
C1132 C1130 1.415 . S
C1132 C1137 1.425 . S
C1132 C1139 1.409 . S
C1133 H1125 0.930 . S
C1133 C1131 1.419 . S
C1133 C1134 1.362 . S
C1134 H1126 0.930 . S
C1134 C1133 1.362 . S
C1134 C1137 1.409 . S
C1135 H1127 0.930 . S
C1135 C1136 1.355 . S
C1135 C1137 1.415 . S
C1136 C1135 1.355 . S
C1136 C1138 1.419 . S
C1137 C1132 1.425 . S
C1137 C1134 1.409 . S
C1137 C1135 1.415 . S
C1138 H1128 0.930 . S
C1138 C1136 1.419 . S
C1138 C1139 1.362 . S
C1139 H1129 0.930 . S
C1139 C1132 1.409 . S
C1139 C1138 1.362 . S
H1140 C1146 0.930 . S
H1141 C1149 0.930 . S
H1142 C1150 0.930 . S
H1143 C1151 0.930 . S
H1144 C1154 0.930 1_554 S
H1145 C1155 0.930 . S
C1146 H1140 0.930 . S
C1146 C1147 1.355 . S
C1146 C1148 1.415 . S
C1147 C1146 1.355 . S
C1147 C1149 1.419 . S
C1148 C1146 1.415 . S
C1148 C1153 1.425 . S
C1148 C1155 1.409 . S
C1149 H1141 0.930 . S
C1149 C1147 1.419 . S
C1149 C1150 1.362 . S
C1150 H1142 0.930 . S
C1150 C1149 1.362 . S
C1150 C1153 1.409 . S
C1151 H1143 0.930 . S
C1151 C1152 1.355 . S
C1151 C1153 1.415 . S
C1152 C1151 1.355 . S
C1152 C1154 1.419 . S
C1153 C1148 1.425 . S
C1153 C1150 1.409 . S
C1153 C1151 1.415 . S
C1154 H1144 0.930 1_556 S
C1154 C1152 1.419 . S
C1154 C1155 1.362 . S
C1155 H1145 0.930 . S
C1155 C1148 1.409 . S
C1155 C1154 1.362 . S
H1156 C1162 0.930 . S
H1157 C1165 0.930 . S
H1158 C1166 0.930 . S
H1159 C1167 0.930 . S
H1160 C1170 0.930 . S
H1161 C1171 0.930 . S
C1162 H1156 0.930 . S
C1162 C1163 1.355 . S
C1162 C1164 1.415 . S
C1163 C1162 1.355 . S
C1163 C1165 1.419 . S
C1164 C1162 1.415 . S
C1164 C1169 1.425 . S
C1164 C1171 1.409 . S
C1165 H1157 0.930 . S
C1165 C1163 1.419 . S
C1165 C1166 1.362 . S
C1166 H1158 0.930 . S
C1166 C1165 1.362 . S
C1166 C1169 1.409 . S
C1167 H1159 0.930 . S
C1167 C1168 1.355 . S
C1167 C1169 1.415 . S
C1168 C1167 1.355 . S
C1168 C1170 1.419 . S
C1169 C1164 1.425 . S
C1169 C1166 1.409 . S
C1169 C1167 1.415 . S
C1170 H1160 0.930 . S
C1170 C1168 1.419 . S
C1170 C1171 1.362 . S
C1171 H1161 0.930 . S
C1171 C1164 1.409 . S
C1171 C1170 1.362 . S
H1172 C1178 0.930 . S
H1173 C1181 0.930 . S
H1174 C1182 0.930 . S
H1175 C1183 0.930 . S
H1176 C1186 0.930 . S
H1177 C1187 0.930 . S
C1178 H1172 0.930 . S
C1178 C1179 1.355 . S
C1178 C1180 1.415 . S
C1179 C1178 1.355 . S
C1179 C1181 1.419 . S
C1180 C1178 1.415 . S
C1180 C1185 1.425 . S
C1180 C1187 1.409 . S
C1181 H1173 0.930 . S
C1181 C1179 1.419 . S
C1181 C1182 1.362 . S
C1182 H1174 0.930 . S
C1182 C1181 1.362 . S
C1182 C1185 1.409 . S
C1183 H1175 0.930 . S
C1183 C1184 1.355 . S
C1183 C1185 1.415 . S
C1184 C1183 1.355 . S
C1184 C1186 1.419 . S
C1185 C1180 1.425 . S
C1185 C1182 1.409 . S
C1185 C1183 1.415 . S
C1186 H1176 0.930 . S
C1186 C1184 1.419 . S
C1186 C1187 1.362 . S
C1187 H1177 0.930 . S
C1187 C1180 1.409 . S
C1187 C1186 1.362 . S
H1188 C1194 0.930 . S
H1189 C1197 0.930 . S
H1190 C1198 0.930 . S
H1191 C1199 0.930 . S
H1192 C1202 0.930 . S
H1193 C1203 0.930 . S
C1194 H1188 0.930 . S
C1194 C1195 1.355 . S
C1194 C1196 1.415 . S
C1195 C1194 1.355 . S
C1195 C1197 1.419 . S
C1196 C1194 1.415 . S
C1196 C1201 1.425 . S
C1196 C1203 1.409 . S
C1197 H1189 0.930 . S
C1197 C1195 1.419 . S
C1197 C1198 1.362 . S
C1198 H1190 0.930 . S
C1198 C1197 1.362 . S
C1198 C1201 1.409 . S
C1199 H1191 0.930 . S
C1199 C1200 1.355 . S
C1199 C1201 1.415 . S
C1200 C1199 1.355 . S
C1200 C1202 1.419 . S
C1201 C1196 1.425 . S
C1201 C1198 1.409 . S
C1201 C1199 1.415 . S
C1202 H1192 0.930 . S
C1202 C1200 1.419 . S
C1202 C1203 1.362 . S
C1203 H1193 0.930 . S
C1203 C1196 1.409 . S
C1203 C1202 1.362 . S
H1204 C1210 0.930 . S
H1205 C1213 0.930 . S
H1206 C1214 0.930 . S
H1207 C1215 0.930 . S
H1208 C1218 0.930 . S
H1209 C1219 0.930 . S
C1210 H1204 0.930 . S
C1210 C1211 1.355 . S
C1210 C1212 1.415 . S
C1211 C1210 1.355 . S
C1211 C1213 1.419 . S
C1212 C1210 1.415 . S
C1212 C1217 1.425 . S
C1212 C1219 1.409 . S
C1213 H1205 0.930 . S
C1213 C1211 1.419 . S
C1213 C1214 1.362 . S
C1214 H1206 0.930 . S
C1214 C1213 1.362 . S
C1214 C1217 1.409 . S
C1215 H1207 0.930 . S
C1215 C1216 1.355 . S
C1215 C1217 1.415 . S
C1216 C1215 1.355 . S
C1216 C1218 1.419 . S
C1217 C1212 1.425 . S
C1217 C1214 1.409 . S
C1217 C1215 1.415 . S
C1218 H1208 0.930 . S
C1218 C1216 1.419 . S
C1218 C1219 1.362 . S
C1219 H1209 0.930 . S
C1219 C1212 1.409 . S
C1219 C1218 1.362 . S
H1220 C1226 0.930 . S
H1221 C1229 0.930 . S
H1222 C1230 0.930 . S
H1223 C1231 0.930 . S
H1224 C1234 0.930 . S
H1225 C1235 0.930 . S
C1226 H1220 0.930 . S
C1226 C1227 1.355 . S
C1226 C1228 1.415 . S
C1227 C1226 1.355 . S
C1227 C1229 1.419 . S
C1228 C1226 1.415 . S
C1228 C1233 1.425 . S
C1228 C1235 1.409 . S
C1229 H1221 0.930 . S
C1229 C1227 1.419 . S
C1229 C1230 1.362 . S
C1230 H1222 0.930 . S
C1230 C1229 1.362 . S
C1230 C1233 1.409 . S
C1231 H1223 0.930 . S
C1231 C1232 1.355 . S
C1231 C1233 1.415 . S
C1232 C1231 1.355 . S
C1232 C1234 1.419 . S
C1233 C1228 1.425 . S
C1233 C1230 1.409 . S
C1233 C1231 1.415 . S
C1234 H1224 0.930 . S
C1234 C1232 1.419 . S
C1234 C1235 1.362 . S
C1235 H1225 0.930 . S
C1235 C1228 1.409 . S
C1235 C1234 1.362 . S
H1236 C1242 0.930 . S
H1237 C1245 0.930 . S
H1238 C1246 0.930 . S
H1239 C1247 0.930 . S
H1240 C1250 0.930 . S
H1241 C1251 0.930 . S
C1242 H1236 0.930 . S
C1242 C1243 1.355 . S
C1242 C1244 1.415 . S
C1243 C1242 1.355 . S
C1243 C1245 1.419 . S
C1244 C1242 1.415 . S
C1244 C1249 1.425 . S
C1244 C1251 1.409 . S
C1245 H1237 0.930 . S
C1245 C1243 1.419 . S
C1245 C1246 1.362 . S
C1246 H1238 0.930 . S
C1246 C1245 1.362 . S
C1246 C1249 1.409 . S
C1247 H1239 0.930 . S
C1247 C1248 1.355 . S
C1247 C1249 1.415 . S
C1248 C1247 1.355 . S
C1248 C1250 1.419 . S
C1249 C1244 1.425 . S
C1249 C1246 1.409 . S
C1249 C1247 1.415 . S
C1250 H1240 0.930 . S
C1250 C1248 1.419 . S
C1250 C1251 1.362 . S
C1251 H1241 0.930 . S
C1251 C1244 1.409 . S
C1251 C1250 1.362 . S
H1252 C1258 0.930 . S
H1253 C1261 0.930 . S
H1254 C1262 0.930 . S
H1255 C1263 0.921 1_556 S
H1256 C1266 0.930 . S
H1257 C1267 0.930 . S
C1258 H1252 0.930 . S
C1258 C1259 1.355 . S
C1258 C1260 1.415 . S
C1259 C1258 1.355 . S
C1259 C1261 1.419 . S
C1260 C1258 1.415 . S
C1260 C1265 1.425 . S
C1260 C1267 1.409 . S
C1261 H1253 0.930 . S
C1261 C1259 1.419 . S
C1261 C1262 1.362 . S
C1262 H1254 0.930 . S
C1262 C1261 1.362 . S
C1262 C1265 1.409 . S
C1263 H1255 0.921 1_554 S
C1263 C1264 1.355 . S
C1263 C1265 1.415 . S
C1264 C1263 1.355 . S
C1264 C1266 1.419 . S
C1265 C1260 1.425 . S
C1265 C1262 1.409 . S
C1265 C1263 1.415 . S
C1266 H1256 0.930 . S
C1266 C1264 1.419 . S
C1266 C1267 1.362 . S
C1267 H1257 0.930 . S
C1267 C1260 1.409 . S
C1267 C1266 1.362 . S
H1268 C1274 0.930 . S
H1269 C1277 0.930 . S
H1270 C1278 0.930 . S
H1271 C1279 0.930 . S
H1272 C1282 0.930 . S
H1273 C1283 0.930 . S
C1274 H1268 0.930 . S
C1274 C1275 1.355 . S
C1274 C1276 1.415 . S
C1275 C1274 1.355 . S
C1275 C1277 1.419 . S
C1276 C1274 1.415 . S
C1276 C1281 1.425 . S
C1276 C1283 1.409 . S
C1277 H1269 0.930 . S
C1277 C1275 1.419 . S
C1277 C1278 1.362 . S
C1278 H1270 0.930 . S
C1278 C1277 1.362 . S
C1278 C1281 1.409 . S
C1279 H1271 0.930 . S
C1279 C1280 1.355 . S
C1279 C1281 1.415 . S
C1280 C1279 1.355 . S
C1280 C1282 1.419 . S
C1281 C1276 1.425 . S
C1281 C1278 1.409 . S
C1281 C1279 1.415 . S
C1282 H1272 0.930 . S
C1282 C1280 1.419 . S
C1282 C1283 1.362 . S
C1283 H1273 0.930 . S
C1283 C1276 1.409 . S
C1283 C1282 1.362 . S
C912 C841 1.756 . S
C907 C29 1.746 . S
C923 C115 1.680 . S
C928 C401 1.695 . S
C939 C153 1.694 . S
C944 C489 1.705 . S
C955 C239 1.717 . S
C960 C568 1.712 . S
C976 C665 1.703 . S
C971 C301 1.664 . S
C987 C339 1.958 . S
C992 C744 1.991 . S
C1003 C91 1.641 . S
C1008 C509 1.706 . S
C1019 C177 1.642 . S
C1024 C605 1.655 . S
C1035 C215 1.678 . S
C1040 C685 1.767 . S
C1056 C781 2.009 . S
C1051 C277 1.953 . S
C1072 C861 1.711 . S
C1067 C363 1.699 . S
C1088 C421 1.658 . S
C1083 C53 1.691 . S
C1099 C35 1.502 . S
C1104 C517 1.544 . S
C1115 C109 1.340 . S
C1120 C597 1.509 . S
C1136 C693 1.420 . S
C1131 C159 1.381 . S
C1147 C233 1.557 . S
C1152 C773 1.732 . S
C1168 C869 1.600 . S
C1163 C295 1.473 . S
C1184 C429 1.350 . S
C1179 C345 1.307 . S
C1200 C832 1.429 . S
C1195 C97 1.425 . S
C1211 C171 1.385 . S
C1216 C392 1.509 . S
C1232 C480 1.578 . S
C1227 C221 1.551 . S
C1243 C283 1.307 . S
C1248 C577 1.344 . S
C1259 C357 1.432 . S
C1264 C656 1.572 1_554 S
C1275 C47 1.563 . S
C1280 C753 1.735 . S
