# Generated by pormake.
# Topology cml, (3,6)-cn, num edge types: 1
# Building blocks:
#     Node 0, Type 0, BuildingBlock: BETDAH_clean_linker_0, # of connection points: 3
#     Node 1, Type 0, BuildingBlock: BETDAH_clean_linker_0, # of connection points: 3
#     Node 2, Type 0, BuildingBlock: BETDAH_clean_linker_0, # of connection points: 3
#     Node 3, Type 0, BuildingBlock: BETDAH_clean_linker_0, # of connection points: 3
#     Node 4, Type 0, BuildingBlock: BETDAH_clean_linker_0, # of connection points: 3
#     Node 5, Type 0, BuildingBlock: BETDAH_clean_linker_0, # of connection points: 3
#     Node 6, Type 0, BuildingBlock: BETDAH_clean_linker_0, # of connection points: 3
#     Node 7, Type 0, BuildingBlock: BETDAH_clean_linker_0, # of connection points: 3
#     Node 8, Type 1, BuildingBlock: OJICUG_clean_sbu_0, # of connection points: 6
#     Node 9, Type 1, BuildingBlock: OJICUG_clean_sbu_0, # of connection points: 6
#     Node 10, Type 1, BuildingBlock: OJICUG_clean_sbu_0, # of connection points: 6
#     Node 11, Type 1, BuildingBlock: OJICUG_clean_sbu_0, # of connection points: 6
#     Edge 12, Type (0, 1), BuildingBlock: MIFKUJ_clean_linker_0, # of connection points: 2
#     Edge 13, Type (0, 1), BuildingBlock: MIFKUJ_clean_linker_0, # of connection points: 2
#     Edge 14, Type (0, 1), BuildingBlock: MIFKUJ_clean_linker_0, # of connection points: 2
#     Edge 15, Type (0, 1), BuildingBlock: MIFKUJ_clean_linker_0, # of connection points: 2
#     Edge 16, Type (0, 1), BuildingBlock: MIFKUJ_clean_linker_0, # of connection points: 2
#     Edge 17, Type (0, 1), BuildingBlock: MIFKUJ_clean_linker_0, # of connection points: 2
#     Edge 18, Type (0, 1), BuildingBlock: MIFKUJ_clean_linker_0, # of connection points: 2
#     Edge 19, Type (0, 1), BuildingBlock: MIFKUJ_clean_linker_0, # of connection points: 2
#     Edge 20, Type (0, 1), BuildingBlock: MIFKUJ_clean_linker_0, # of connection points: 2
#     Edge 21, Type (0, 1), BuildingBlock: MIFKUJ_clean_linker_0, # of connection points: 2
#     Edge 22, Type (0, 1), BuildingBlock: MIFKUJ_clean_linker_0, # of connection points: 2
#     Edge 23, Type (0, 1), BuildingBlock: MIFKUJ_clean_linker_0, # of connection points: 2
#     Edge 24, Type (0, 1), BuildingBlock: MIFKUJ_clean_linker_0, # of connection points: 2
#     Edge 25, Type (0, 1), BuildingBlock: MIFKUJ_clean_linker_0, # of connection points: 2
#     Edge 26, Type (0, 1), BuildingBlock: MIFKUJ_clean_linker_0, # of connection points: 2
#     Edge 27, Type (0, 1), BuildingBlock: MIFKUJ_clean_linker_0, # of connection points: 2
#     Edge 28, Type (0, 1), BuildingBlock: MIFKUJ_clean_linker_0, # of connection points: 2
#     Edge 29, Type (0, 1), BuildingBlock: MIFKUJ_clean_linker_0, # of connection points: 2
#     Edge 30, Type (0, 1), BuildingBlock: MIFKUJ_clean_linker_0, # of connection points: 2
#     Edge 31, Type (0, 1), BuildingBlock: MIFKUJ_clean_linker_0, # of connection points: 2
#     Edge 32, Type (0, 1), BuildingBlock: MIFKUJ_clean_linker_0, # of connection points: 2
#     Edge 33, Type (0, 1), BuildingBlock: MIFKUJ_clean_linker_0, # of connection points: 2
#     Edge 34, Type (0, 1), BuildingBlock: MIFKUJ_clean_linker_0, # of connection points: 2
#     Edge 35, Type (0, 1), BuildingBlock: MIFKUJ_clean_linker_0, # of connection points: 2
# Relax obj value: 0.007
# Max RMSD: 0.053
# Mean RMSD: 0.044
data_MOF--net-cml--node1-OJICUG_clean_sbu_0--node2-BETDAH_clean_linker_0--edge1-MIFKUJ_clean_linker_0
_symmetry_space_group_name_H-M    P1
_symmetry_Int_Tables_number       1
_symmetry_cell_setting            triclinic
loop_
_symmetry_equiv_pos_as_xyz
'x, y, z'
_cell_length_a     52.350583
_cell_length_b     51.126079
_cell_length_c     45.595713
_cell_angle_alpha  89.381053
_cell_angle_beta   90.743788
_cell_angle_gamma 90.792582
loop_
_atom_site_label
_atom_site_type_symbol
_atom_site_fract_x
_atom_site_fract_y
_atom_site_fract_z
_atom_type_partial_charge
H0 H 0.32178 0.40907 0.02515 0.0
H1 H 0.273 0.37213 0.96048 0.0
H2 H 0.29818 0.32884 0.03641 0.0
C3 C 0.3106 0.39231 0.01784 0.0
C4 C 0.31105 0.36912 0.03454 0.0
C5 C 0.29713 0.39364 0.99098 0.0
C6 C 0.28303 0.37159 0.98141 0.0
C7 C 0.28318 0.34835 0.99821 0.0
C8 C 0.29737 0.34721 0.02436 0.0
N9 N 0.27129 0.32497 0.98829 0.0
C10 C 0.2482 0.3237 0.97305 0.0
H11 H 0.68297 0.6047 0.53155 0.0
H12 H 0.75421 0.60687 0.48502 0.0
H13 H 0.74942 0.64123 0.57022 0.0
C14 C 0.7027 0.61117 0.52975 0.0
C15 C 0.71413 0.62462 0.55326 0.0
C16 C 0.7169 0.60435 0.50503 0.0
C17 C 0.74281 0.61205 0.5037 0.0
C18 C 0.7544 0.6255 0.52717 0.0
C19 C 0.74016 0.63132 0.55198 0.0
N20 N 0.78099 0.6308 0.52758 0.0
C21 C 0.79253 0.64859 0.50853 0.0
H22 H 0.69816 0.42231 0.02635 0.0
H23 H 0.76336 0.43947 0.97297 0.0
H24 H 0.76794 0.37979 0.04002 0.0
C25 C 0.71769 0.41823 0.02038 0.0
C26 C 0.73146 0.399 0.0358 0.0
C27 C 0.72901 0.43268 0.99765 0.0
C28 C 0.7544 0.42811 0.99033 0.0
C29 C 0.76835 0.40894 0.00537 0.0
C30 C 0.75692 0.39432 0.0281 0.0
N31 N 0.79426 0.40556 0.99822 0.0
C32 C 0.8035 0.38164 0.98947 0.0
H33 H 0.33314 0.58844 0.52529 0.0
H34 H 0.29151 0.65969 0.51034 0.0
H35 H 0.3184 0.61595 0.43745 0.0
C36 C 0.32408 0.60229 0.51044 0.0
C37 C 0.3266 0.59904 0.48012 0.0
C38 C 0.31161 0.62419 0.52171 0.0
C39 C 0.30094 0.64259 0.50207 0.0
C40 C 0.30357 0.6395 0.47168 0.0
C41 C 0.31655 0.61801 0.46096 0.0
N42 N 0.29475 0.65848 0.4513 0.0
C43 C 0.27143 0.67075 0.45352 0.0
H44 H 0.81734 0.90746 0.02125 0.0
H45 H 0.74301 0.90624 0.97968 0.0
H46 H 0.75272 0.87517 0.06704 0.0
C47 C 0.79722 0.90213 0.02166 0.0
C48 C 0.78711 0.89023 0.0469 0.0
C49 C 0.78155 0.9081 0.99733 0.0
C50 C 0.75544 0.90137 0.99808 0.0
C51 C 0.74521 0.88913 0.02315 0.0
C52 C 0.76098 0.88388 0.0475 0.0
N53 N 0.71872 0.88382 0.0252 0.0
C54 C 0.70598 0.8669 0.00626 0.0
H55 H 0.18892 0.09109 0.5215 0.0
H56 H 0.23984 0.12689 0.4589 0.0
H57 H 0.22132 0.16732 0.53771 0.0
C58 C 0.2019 0.10689 0.51545 0.0
C59 C 0.20408 0.12887 0.53351 0.0
C60 C 0.21473 0.10581 0.48857 0.0
C61 C 0.23036 0.12712 0.47987 0.0
C62 C 0.23263 0.14929 0.4978 0.0
C63 C 0.21944 0.15002 0.52428 0.0
N64 N 0.24589 0.17229 0.48881 0.0
C65 C 0.26892 0.17307 0.47399 0.0
H66 H 0.18664 0.91451 0.03377 0.0
H67 H 0.25039 0.93048 0.97773 0.0
H68 H 0.25663 0.87198 0.04572 0.0
C69 C 0.206 0.91037 0.02727 0.0
C70 C 0.22016 0.8914 0.04271 0.0
C71 C 0.2166 0.92431 0.00363 0.0
C72 C 0.24181 0.91952 0.99564 0.0
C73 C 0.25613 0.90059 0.01057 0.0
C74 C 0.24533 0.88642 0.03404 0.0
N75 N 0.2818 0.89703 0.00248 0.0
C76 C 0.29116 0.87279 0.99501 0.0
H77 H 0.81406 0.07575 0.52568 0.0
H78 H 0.73906 0.10054 0.54907 0.0
H79 H 0.74869 0.05363 0.47253 0.0
C80 C 0.79376 0.07648 0.52077 0.0
C81 C 0.78361 0.0632 0.49633 0.0
C82 C 0.77788 0.08989 0.53983 0.0
C83 C 0.75148 0.09023 0.53443 0.0
C84 C 0.7411 0.07708 0.51011 0.0
C85 C 0.75705 0.06342 0.49138 0.0
N86 N 0.71458 0.07762 0.50409 0.0
C87 C 0.70294 0.10092 0.49635 0.0
Sc88 Sc 0.01223 0.82763 0.31697 0.0
Sc89 Sc 0.01499 0.89646 0.31178 0.0
Sc90 Sc 0.01621 0.86551 0.3812 0.0
O91 O 0.01448 0.86319 0.33665 0.0
C92 C 0.97486 0.81935 0.37105 0.0
C93 C 0.97546 0.86118 0.27523 0.0
C94 C 0.9782 0.91174 0.36383 0.0
C95 C 0.05212 0.85901 0.27685 0.0
C96 C 0.05146 0.81659 0.37003 0.0
C97 C 0.05486 0.91159 0.36284 0.0
O98 O 0.98206 0.81415 0.34524 0.0
O99 O 0.98535 0.88296 0.28261 0.0
O100 O 0.98784 0.89547 0.38197 0.0
O101 O 0.04239 0.83783 0.2869 0.0
O102 O 0.04481 0.83599 0.38516 0.0
O103 O 0.04484 0.91465 0.33755 0.0
O104 O 0.04109 0.81099 0.34547 0.0
O105 O 0.04418 0.88154 0.28375 0.0
O106 O 0.04694 0.89432 0.38099 0.0
O107 O 0.98296 0.83949 0.28587 0.0
O108 O 0.98567 0.83687 0.38674 0.0
O109 O 0.98564 0.9142 0.33747 0.0
Sc110 Sc 0.99167 0.17017 0.81127 0.0
Sc111 Sc 0.99192 0.1011 0.81267 0.0
Sc112 Sc 0.99213 0.13584 0.87887 0.0
O113 O 0.99188 0.13573 0.83425 0.0
C114 C 0.03058 0.18309 0.86402 0.0
C115 C 0.02991 0.13614 0.77379 0.0
C116 C 0.03029 0.08923 0.8658 0.0
C117 C 0.95319 0.13471 0.77339 0.0
C118 C 0.95431 0.18276 0.86398 0.0
C119 C 0.95362 0.08838 0.8652 0.0
O120 O 0.02129 0.18729 0.83852 0.0
O121 O 0.02098 0.11427 0.78274 0.0
O122 O 0.02099 0.10646 0.88228 0.0
O123 O 0.96227 0.15681 0.78117 0.0
O124 O 0.96354 0.16532 0.88092 0.0
O125 O 0.96292 0.08389 0.84015 0.0
O126 O 0.96208 0.18658 0.83792 0.0
O127 O 0.9617 0.11309 0.78316 0.0
O128 O 0.9619 0.10672 0.88157 0.0
O129 O 0.0213 0.15793 0.78215 0.0
O130 O 0.02223 0.16507 0.88099 0.0
O131 O 0.0221 0.08522 0.83984 0.0
Sc132 Sc 0.52855 0.32282 0.31519 0.0
Sc133 Sc 0.52666 0.39171 0.31308 0.0
Sc134 Sc 0.5257 0.35834 0.38095 0.0
O135 O 0.52707 0.3576 0.33642 0.0
C136 C 0.48909 0.30927 0.36614 0.0
C137 C 0.48969 0.3556 0.27471 0.0
C138 C 0.48713 0.40354 0.36404 0.0
C139 C 0.566 0.3579 0.2764 0.0
C140 C 0.56529 0.31276 0.37076 0.0
C141 C 0.5634 0.40683 0.36644 0.0
O142 O 0.49792 0.30575 0.34064 0.0
O143 O 0.49665 0.37781 0.28447 0.0
O144 O 0.49448 0.38513 0.38088 0.0
O145 O 0.55933 0.33587 0.28725 0.0
O146 O 0.55644 0.33115 0.386 0.0
O147 O 0.55662 0.40891 0.33964 0.0
O148 O 0.55691 0.30736 0.34518 0.0
O149 O 0.55538 0.37918 0.28312 0.0
O150 O 0.5534 0.39016 0.38399 0.0
O151 O 0.50011 0.33434 0.28291 0.0
O152 O 0.49767 0.32701 0.38313 0.0
O153 O 0.49766 0.40881 0.33969 0.0
Sc154 Sc 0.49171 0.67347 0.82023 0.0
Sc155 Sc 0.49561 0.60468 0.81891 0.0
Sc156 Sc 0.49305 0.63707 0.88648 0.0
O157 O 0.4934 0.63843 0.84188 0.0
C158 C 0.52988 0.6863 0.87356 0.0
C159 C 0.53249 0.64245 0.78273 0.0
C160 C 0.53324 0.5927 0.87286 0.0
C161 C 0.45571 0.63789 0.78009 0.0
C162 C 0.45351 0.68258 0.87334 0.0
C163 C 0.45642 0.58872 0.86922 0.0
O164 O 0.52128 0.69039 0.8477 0.0
O165 O 0.52603 0.61993 0.79228 0.0
O166 O 0.52381 0.60979 0.88938 0.0
O167 O 0.46212 0.65997 0.79067 0.0
O168 O 0.4626 0.66441 0.88931 0.0
O169 O 0.46572 0.58604 0.84381 0.0
O170 O 0.46205 0.68819 0.848 0.0
O171 O 0.46667 0.61673 0.78756 0.0
O172 O 0.46449 0.60601 0.88715 0.0
O173 O 0.52115 0.6633 0.78961 0.0
O174 O 0.52132 0.6681 0.89019 0.0
O175 O 0.52475 0.58838 0.84712 0.0
H176 H 0.20721 0.3076 0.00273 0.0
H177 H 0.16824 0.28754 0.98215 0.0
H178 H 0.19559 0.30282 0.89469 0.0
H179 H 0.23483 0.32285 0.91542 0.0
H180 H 0.14047 0.3105 0.90303 0.0
H181 H 0.20609 0.24633 0.91928 0.0
H182 H 0.23901 0.22356 0.94865 0.0
H183 H 0.18251 0.19997 0.01141 0.0
H184 H 0.14931 0.22296 0.98261 0.0
H185 H 0.06093 0.21603 0.8314 0.0
H186 H 0.09661 0.24334 0.84852 0.0
H187 H 0.08411 0.21633 0.93724 0.0
H188 H 0.04893 0.18835 0.92017 0.0
H189 H 0.13244 0.21575 0.92657 0.0
H190 H 0.06662 0.27899 0.91182 0.0
H191 H 0.03303 0.30256 0.88436 0.0
H192 H 0.08813 0.3287 0.82116 0.0
H193 H 0.12201 0.30498 0.84804 0.0
C194 C 0.20453 0.30726 0.97913 0.0
C195 C 0.22369 0.31676 0.96053 0.0
C196 C 0.18239 0.29576 0.96742 0.0
C197 C 0.17919 0.29353 0.93693 0.0
C198 C 0.19772 0.30445 0.91827 0.0
C199 C 0.22003 0.31585 0.93005 0.0
C200 C 0.15773 0.27759 0.92493 0.0
C201 C 0.13879 0.28971 0.90778 0.0
C202 C 0.15539 0.25062 0.93174 0.0
C203 C 0.17527 0.23658 0.94894 0.0
C204 C 0.20073 0.23647 0.93946 0.0
C205 C 0.21943 0.22349 0.95598 0.0
C206 C 0.21287 0.21038 0.98192 0.0
C207 C 0.18757 0.21016 0.99134 0.0
C208 C 0.1688 0.22314 0.97491 0.0
C209 C 0.0657 0.21596 0.85459 0.0
C210 C 0.05203 0.19999 0.87442 0.0
C211 C 0.08605 0.23172 0.86437 0.0
C212 C 0.09286 0.23222 0.89426 0.0
C213 C 0.07923 0.2163 0.91408 0.0
C214 C 0.05909 0.20031 0.90428 0.0
C215 C 0.11473 0.24861 0.90483 0.0
C216 C 0.13393 0.23653 0.92169 0.0
C217 C 0.11711 0.27565 0.89795 0.0
C218 C 0.0968 0.28998 0.88178 0.0
C219 C 0.07154 0.28959 0.89194 0.0
C220 C 0.05245 0.30301 0.8765 0.0
C221 C 0.05843 0.31706 0.85099 0.0
C222 C 0.08353 0.31778 0.8409 0.0
C223 C 0.10268 0.30437 0.85624 0.0
H224 H 0.04363 0.32744 0.83907 0.0
H225 H 0.22738 0.20034 0.99468 0.0
H226 H 0.79465 0.65505 0.44943 0.0
H227 H 0.82193 0.6866 0.4227 0.0
H228 H 0.85101 0.71628 0.50508 0.0
H229 H 0.8235 0.68515 0.53157 0.0
H230 H 0.84226 0.75568 0.46712 0.0
H231 H 0.88446 0.67179 0.46453 0.0
H232 H 0.88735 0.62489 0.45305 0.0
H233 H 0.87368 0.642 0.36182 0.0
H234 H 0.87042 0.68898 0.37283 0.0
H235 H 0.95975 0.81607 0.42838 0.0
H236 H 0.92521 0.78921 0.44873 0.0
H237 H 0.90582 0.76149 0.36211 0.0
H238 H 0.94077 0.78769 0.3417 0.0
H239 H 0.90639 0.72217 0.3983 0.0
H240 H 0.86808 0.80623 0.39934 0.0
H241 H 0.86479 0.85324 0.40997 0.0
H242 H 0.86998 0.83665 0.50235 0.0
H243 H 0.87367 0.78955 0.49227 0.0
C244 C 0.80675 0.66854 0.46164 0.0
C245 C 0.80719 0.66787 0.49238 0.0
C246 C 0.82236 0.68644 0.44646 0.0
C247 C 0.83875 0.70365 0.46189 0.0
C248 C 0.83855 0.70327 0.49269 0.0
C249 C 0.82293 0.68548 0.50779 0.0
C250 C 0.85683 0.72147 0.44626 0.0
C251 C 0.85642 0.74836 0.45222 0.0
C252 C 0.87483 0.71205 0.42616 0.0
C253 C 0.87692 0.68384 0.41955 0.0
C254 C 0.8819 0.66552 0.44206 0.0
C255 C 0.88363 0.63893 0.43563 0.0
C256 C 0.88062 0.63046 0.40673 0.0
C257 C 0.87596 0.64858 0.38419 0.0
C258 C 0.87418 0.67518 0.39051 0.0
C259 C 0.94804 0.80441 0.4136 0.0
C260 C 0.95312 0.80403 0.38339 0.0
C261 C 0.92816 0.78914 0.42527 0.0
C262 C 0.91263 0.77352 0.40693 0.0
C263 C 0.9175 0.77334 0.37673 0.0
C264 C 0.93752 0.78838 0.36509 0.0
C265 C 0.89212 0.75644 0.41942 0.0
C266 C 0.89209 0.72965 0.41292 0.0
C267 C 0.87362 0.76601 0.43886 0.0
C268 C 0.87136 0.79435 0.44503 0.0
C269 C 0.86871 0.81261 0.42192 0.0
C270 C 0.86674 0.83928 0.42785 0.0
C271 C 0.86722 0.84793 0.45681 0.0
C272 C 0.86963 0.82992 0.47992 0.0
C273 C 0.87163 0.80323 0.47411 0.0
H274 H 0.86568 0.86859 0.46135 0.0
H275 H 0.88197 0.60987 0.4018 0.0
H276 H 0.82706 0.3427 0.0192 0.0
H277 H 0.84923 0.30558 0.99766 0.0
H278 H 0.82713 0.33241 0.91099 0.0
H279 H 0.80465 0.36918 0.93263 0.0
H280 H 0.82398 0.27993 0.91467 0.0
H281 H 0.88584 0.34668 0.93837 0.0
H282 H 0.90874 0.37827 0.97003 0.0
H283 H 0.93323 0.31562 0.02675 0.0
H284 H 0.91016 0.28368 0.99562 0.0
H285 H 0.92477 0.21886 0.83453 0.0
H286 H 0.89511 0.24986 0.85591 0.0
H287 H 0.91049 0.21755 0.94197 0.0
H288 H 0.93984 0.18652 0.92104 0.0
H289 H 0.91634 0.27197 0.9384 0.0
H290 H 0.85529 0.20495 0.91204 0.0
H291 H 0.8334 0.17425 0.87846 0.0
H292 H 0.80856 0.23856 0.82439 0.0
H293 H 0.83065 0.26964 0.85743 0.0
C294 C 0.82671 0.34031 0.99561 0.0
C295 C 0.81436 0.35851 0.9774 0.0
C296 C 0.8394 0.31927 0.98332 0.0
C297 C 0.8401 0.31645 0.95268 0.0
C298 C 0.82683 0.3342 0.93464 0.0
C299 C 0.81409 0.35517 0.94695 0.0
C300 C 0.85581 0.29591 0.93936 0.0
C301 C 0.84422 0.27833 0.91964 0.0
C302 C 0.88218 0.29368 0.94605 0.0
C303 C 0.89603 0.31283 0.96485 0.0
C304 C 0.89593 0.33967 0.95773 0.0
C305 C 0.90897 0.35763 0.97556 0.0
C306 C 0.92237 0.34897 0.00044 0.0
C307 C 0.9228 0.32231 0.0075 0.0
C308 C 0.90976 0.30427 0.98977 0.0
C309 C 0.92164 0.21817 0.85796 0.0
C310 C 0.93479 0.20025 0.87605 0.0
C311 C 0.90464 0.23583 0.87011 0.0
C312 C 0.90067 0.23593 0.9005 0.0
C313 C 0.91334 0.21777 0.91847 0.0
C314 C 0.93007 0.19999 0.90639 0.0
C315 C 0.88447 0.2559 0.91394 0.0
C316 C 0.89605 0.27349 0.93357 0.0
C317 C 0.85822 0.25824 0.90691 0.0
C318 C 0.84486 0.23961 0.88705 0.0
C319 C 0.84537 0.21254 0.89284 0.0
C320 C 0.83288 0.19507 0.87393 0.0
C321 C 0.81966 0.20444 0.84926 0.0
C322 C 0.81884 0.23132 0.84349 0.0
C323 C 0.83133 0.24887 0.86231 0.0
H324 H 0.81 0.19089 0.83465 0.0
H325 H 0.93246 0.3629 0.0142 0.0
H326 H 0.25555 0.71453 0.48026 0.0
H327 H 0.21557 0.73779 0.46962 0.0
H328 H 0.19304 0.67755 0.40852 0.0
H329 H 0.23291 0.65447 0.41913 0.0
H330 H 0.19044 0.72658 0.38447 0.0
H331 H 0.16282 0.68246 0.47252 0.0
H332 H 0.16537 0.66945 0.5247 0.0
H333 H 0.16198 0.75002 0.54983 0.0
H334 H 0.15977 0.76354 0.49776 0.0
H335 H 0.06623 0.7689 0.34998 0.0
H336 H 0.10186 0.74252 0.36769 0.0
H337 H 0.12034 0.80066 0.43277 0.0
H338 H 0.08437 0.8269 0.41571 0.0
H339 H 0.12489 0.7528 0.45565 0.0
H340 H 0.15374 0.79759 0.36911 0.0
H341 H 0.15134 0.81187 0.31731 0.0
H342 H 0.15376 0.7319 0.28977 0.0
H343 H 0.15579 0.71711 0.34144 0.0
C344 C 0.24173 0.70615 0.46503 0.0
C345 C 0.24691 0.68284 0.45053 0.0
C346 C 0.21899 0.71935 0.45897 0.0
C347 C 0.20135 0.70932 0.43832 0.0
C348 C 0.2064 0.68558 0.4245 0.0
C349 C 0.22903 0.6724 0.43063 0.0
C350 C 0.17851 0.72438 0.42949 0.0
C351 C 0.1759 0.73199 0.39995 0.0
C352 C 0.16004 0.73212 0.4499 0.0
C353 C 0.1614 0.72402 0.48122 0.0
C354 C 0.16285 0.69742 0.48916 0.0
C355 C 0.16418 0.68995 0.51872 0.0
C356 C 0.16391 0.7089 0.54056 0.0
C357 C 0.16223 0.73536 0.53289 0.0
C358 C 0.16092 0.74294 0.50335 0.0
C359 C 0.0778 0.77607 0.36811 0.0
C360 C 0.07254 0.80012 0.38128 0.0
C361 C 0.0982 0.76098 0.37818 0.0
C362 C 0.11398 0.76983 0.40126 0.0
C363 C 0.10841 0.79348 0.41492 0.0
C364 C 0.08788 0.80849 0.40505 0.0
C365 C 0.13672 0.75478 0.41058 0.0
C366 C 0.13939 0.74731 0.44017 0.0
C367 C 0.15546 0.74737 0.39028 0.0
C368 C 0.15468 0.75623 0.35916 0.0
C369 C 0.15361 0.78304 0.35201 0.0
C370 C 0.15232 0.79123 0.32268 0.0
C371 C 0.15233 0.7728 0.30027 0.0
C372 C 0.15372 0.74615 0.30715 0.0
C373 C 0.15496 0.73785 0.33646 0.0
H374 H 0.1513 0.77918 0.27757 0.0
H375 H 0.16493 0.70308 0.56344 0.0
H376 H 0.70166 0.86239 0.94718 0.0
H377 H 0.67508 0.83015 0.9205 0.0
H378 H 0.65036 0.79682 0.00297 0.0
H379 H 0.67711 0.82869 0.02938 0.0
H380 H 0.66123 0.75909 0.96453 0.0
H381 H 0.61289 0.83952 0.96331 0.0
H382 H 0.60625 0.88627 0.95212 0.0
H383 H 0.61769 0.87215 0.86058 0.0
H384 H 0.6247 0.82535 0.8713 0.0
H385 H 0.54694 0.69116 0.9303 0.0
H386 H 0.58014 0.72069 0.94904 0.0
H387 H 0.59345 0.74994 0.86137 0.0
H388 H 0.55971 0.72096 0.8425 0.0
H389 H 0.59199 0.78903 0.89744 0.0
H390 H 0.63594 0.70806 0.89722 0.0
H391 H 0.64256 0.66119 0.90761 0.0
H392 H 0.64052 0.67567 0.00013 0.0
H393 H 0.6335 0.72258 0.99031 0.0
C394 C 0.69057 0.84803 0.9594 0.0
C395 C 0.69116 0.84782 0.99013 0.0
C396 C 0.6754 0.82973 0.94426 0.0
C397 C 0.66055 0.8112 0.95977 0.0
C398 C 0.66166 0.81086 0.99055 0.0
C399 C 0.67681 0.82908 0.00561 0.0
C400 C 0.64331 0.79248 0.94425 0.0
C401 C 0.64598 0.76561 0.94999 0.0
C402 C 0.62392 0.80094 0.92457 0.0
C403 C 0.61959 0.82902 0.91814 0.0
C404 C 0.61417 0.84644 0.94083 0.0
C405 C 0.61031 0.87293 0.93456 0.0
C406 C 0.61163 0.88219 0.90567 0.0
C407 C 0.61673 0.86496 0.88296 0.0
C408 C 0.62063 0.83845 0.88911 0.0
C409 C 0.557 0.70375 0.91493 0.0
C410 C 0.55062 0.70365 0.88487 0.0
C411 C 0.57611 0.72056 0.92568 0.0
C412 C 0.58961 0.7373 0.90657 0.0
C413 C 0.58335 0.73719 0.87654 0.0
C414 C 0.56405 0.72057 0.86579 0.0
C415 C 0.60954 0.75558 0.91814 0.0
C416 C 0.60741 0.78238 0.91165 0.0
C417 C 0.62954 0.74702 0.93698 0.0
C418 C 0.634 0.71883 0.94301 0.0
C419 C 0.63674 0.70123 0.91978 0.0
C420 C 0.64058 0.67466 0.92557 0.0
C421 C 0.64191 0.66545 0.95451 0.0
C422 C 0.63947 0.68283 0.97772 0.0
C423 C 0.63559 0.70942 0.97206 0.0
H424 H 0.64487 0.64487 0.95894 0.0
H425 H 0.60863 0.90271 0.90086 0.0
H426 H 0.30492 0.20069 0.50196 0.0
H427 H 0.3438 0.21994 0.48106 0.0
H428 H 0.32678 0.18251 0.39862 0.0
H429 H 0.28744 0.1633 0.41964 0.0
H430 H 0.38176 0.18284 0.41859 0.0
H431 H 0.31121 0.24051 0.40013 0.0
H432 H 0.27329 0.2655 0.41378 0.0
H433 H 0.31847 0.30927 0.47589 0.0
H434 H 0.3566 0.28424 0.46292 0.0
H435 H 0.46552 0.26834 0.33739 0.0
H436 H 0.4294 0.24149 0.35406 0.0
H437 H 0.42799 0.28463 0.43477 0.0
H438 H 0.46383 0.31171 0.41827 0.0
H439 H 0.3812 0.2798 0.41183 0.0
H440 H 0.45067 0.22231 0.43352 0.0
H441 H 0.48917 0.19698 0.42306 0.0
H442 H 0.44749 0.1532 0.35791 0.0
H443 H 0.40872 0.1784 0.36787 0.0
C444 C 0.3098 0.19615 0.47957 0.0
C445 C 0.29348 0.18053 0.46234 0.0
C446 C 0.33192 0.20719 0.46765 0.0
C447 C 0.33806 0.20278 0.43827 0.0
C448 C 0.32238 0.18606 0.42137 0.0
C449 C 0.30001 0.17513 0.43331 0.0
C450 C 0.35969 0.21747 0.42496 0.0
C451 C 0.38153 0.20399 0.41656 0.0
C452 C 0.35956 0.24511 0.42304 0.0
C453 C 0.33671 0.26033 0.43074 0.0
C454 C 0.31302 0.25531 0.41687 0.0
C455 C 0.29149 0.26951 0.42446 0.0
C456 C 0.29346 0.28892 0.44574 0.0
C457 C 0.31697 0.29421 0.45943 0.0
C458 C 0.33855 0.28004 0.45195 0.0
C459 C 0.45762 0.27208 0.35876 0.0
C460 C 0.46765 0.29228 0.37644 0.0
C461 C 0.43702 0.25659 0.36831 0.0
C462 C 0.42606 0.26092 0.39576 0.0
C463 C 0.4361 0.28094 0.41349 0.0
C464 C 0.45668 0.29639 0.40401 0.0
C465 C 0.40357 0.24527 0.40571 0.0
C466 C 0.38147 0.25862 0.41352 0.0
C467 C 0.40362 0.21757 0.40731 0.0
C468 C 0.42688 0.20244 0.4012 0.0
C469 C 0.44977 0.20744 0.41678 0.0
C470 C 0.47163 0.19308 0.41098 0.0
C471 C 0.47082 0.17359 0.38973 0.0
C472 C 0.4481 0.16834 0.37432 0.0
C473 C 0.42617 0.18262 0.38007 0.0
H474 H 0.48777 0.1625 0.38527 0.0
H475 H 0.27677 0.29989 0.45158 0.0
H476 H 0.31492 0.83499 0.02643 0.0
H477 H 0.33863 0.79816 0.00646 0.0
H478 H 0.31727 0.82242 0.91863 0.0
H479 H 0.29326 0.85886 0.93869 0.0
H480 H 0.31669 0.76964 0.92353 0.0
H481 H 0.3744 0.84054 0.94755 0.0
H482 H 0.39467 0.87365 0.97954 0.0
H483 H 0.42111 0.81304 0.03788 0.0
H484 H 0.40068 0.77957 0.00641 0.0
H485 H 0.42208 0.7172 0.84442 0.0
H486 H 0.39029 0.74569 0.86611 0.0
H487 H 0.4073 0.71329 0.95173 0.0
H488 H 0.43879 0.68467 0.93043 0.0
H489 H 0.40914 0.76827 0.94894 0.0
H490 H 0.35334 0.69711 0.92271 0.0
H491 H 0.33449 0.6644 0.88922 0.0
H492 H 0.30576 0.72578 0.83346 0.0
H493 H 0.32477 0.75893 0.86646 0.0
C494 C 0.315 0.83204 0.00293 0.0
C495 C 0.30249 0.84948 0.98394 0.0
C496 C 0.32856 0.81116 0.99154 0.0
C497 C 0.32999 0.80777 0.96102 0.0
C498 C 0.31641 0.82464 0.9422 0.0
C499 C 0.3028 0.84543 0.95361 0.0
C500 C 0.34708 0.78796 0.9486 0.0
C501 C 0.33693 0.76945 0.92891 0.0
C502 C 0.37345 0.78751 0.95587 0.0
C503 C 0.38576 0.80759 0.97482 0.0
C504 C 0.38436 0.83429 0.96733 0.0
C505 C 0.39591 0.85312 0.98534 0.0
C506 C 0.4091 0.84545 0.01077 0.0
C507 C 0.41084 0.81894 0.0182 0.0
C508 C 0.39929 0.80004 0.00029 0.0
C509 C 0.4189 0.71598 0.86782 0.0
C510 C 0.43304 0.6987 0.88568 0.0
C511 C 0.40068 0.73219 0.88014 0.0
C512 C 0.3965 0.73151 0.91049 0.0
C513 C 0.41029 0.71406 0.92827 0.0
C514 C 0.42822 0.69767 0.91598 0.0
C515 C 0.37874 0.74997 0.92401 0.0
C516 C 0.38884 0.76832 0.94378 0.0
C517 C 0.35244 0.75032 0.91665 0.0
C518 C 0.34068 0.7305 0.89692 0.0
C519 C 0.34317 0.70365 0.90319 0.0
C520 C 0.33242 0.68502 0.88433 0.0
C521 C 0.31897 0.693 0.8592 0.0
C522 C 0.31619 0.71964 0.85293 0.0
C523 C 0.32693 0.73836 0.87173 0.0
H524 H 0.31065 0.67853 0.84464 0.0
H525 H 0.41804 0.86006 0.02468 0.0
H526 H 0.70062 0.11717 0.44045 0.0
H527 H 0.68091 0.15725 0.42148 0.0
H528 H 0.66061 0.17832 0.50955 0.0
H529 H 0.68013 0.13786 0.52843 0.0
H530 H 0.62109 0.18422 0.47216 0.0
H531 H 0.70884 0.21051 0.47435 0.0
H532 H 0.75493 0.20718 0.46485 0.0
H533 H 0.73994 0.20862 0.37205 0.0
H534 H 0.6937 0.21157 0.38097 0.0
H535 H 0.5796 0.30979 0.42859 0.0
H536 H 0.60713 0.2773 0.45196 0.0
H537 H 0.62238 0.24405 0.36758 0.0
H538 H 0.59472 0.2764 0.34387 0.0
H539 H 0.666 0.24718 0.40637 0.0
H540 H 0.57838 0.2167 0.40464 0.0
H541 H 0.5323 0.22058 0.4138 0.0
H542 H 0.54753 0.22719 0.50622 0.0
H543 H 0.59381 0.22387 0.4975 0.0
C544 C 0.69201 0.1305 0.45565 0.0
C545 C 0.69172 0.12475 0.48573 0.0
C546 C 0.68092 0.1534 0.44489 0.0
C547 C 0.66959 0.17095 0.46415 0.0
C548 C 0.66934 0.16509 0.49435 0.0
C549 C 0.68045 0.14211 0.5051 0.0
C550 C 0.65706 0.19477 0.45247 0.0
C551 C 0.63108 0.19826 0.45827 0.0
C552 C 0.66995 0.2128 0.43384 0.0
C553 C 0.69776 0.21105 0.42835 0.0
C554 C 0.71534 0.20991 0.45191 0.0
C555 C 0.7415 0.20813 0.44663 0.0
C556 C 0.75035 0.20764 0.41787 0.0
C557 C 0.73305 0.20898 0.39432 0.0
C558 C 0.70687 0.21074 0.39948 0.0
C559 C 0.58912 0.29589 0.41487 0.0
C560 C 0.58472 0.29552 0.38436 0.0
C561 C 0.60481 0.27731 0.42831 0.0
C562 C 0.61651 0.25819 0.41149 0.0
C563 C 0.61345 0.25869 0.38089 0.0
C564 C 0.59754 0.2771 0.36743 0.0
C565 C 0.63016 0.23638 0.42597 0.0
C566 C 0.65623 0.23327 0.42061 0.0
C567 C 0.6174 0.21868 0.44503 0.0
C568 C 0.58957 0.22035 0.45038 0.0
C569 C 0.57192 0.21921 0.42689 0.0
C570 C 0.54576 0.22127 0.432 0.0
C571 C 0.53698 0.22418 0.46057 0.0
C572 C 0.55436 0.22498 0.48409 0.0
C573 C 0.58056 0.22302 0.47907 0.0
H574 H 0.51671 0.22576 0.46449 0.0
H575 H 0.77061 0.20626 0.41382 0.0
H576 H 0.3096 0.39409 0.9331 0.0
H577 H 0.32902 0.4306 0.90603 0.0
H578 H 0.31539 0.48173 0.97861 0.0
H579 H 0.29539 0.44539 0.00556 0.0
H580 H 0.31418 0.50834 0.92419 0.0
H581 H 0.36825 0.45014 0.97959 0.0
H582 H 0.38446 0.40691 0.9946 0.0
H583 H 0.40888 0.39327 0.90659 0.0
H584 H 0.39233 0.43627 0.89093 0.0
H585 H 0.42487 0.5927 0.91659 0.0
H586 H 0.3911 0.56203 0.93182 0.0
H587 H 0.40681 0.51327 0.8578 0.0
H588 H 0.44045 0.54372 0.84233 0.0
H589 H 0.40521 0.48596 0.91046 0.0
H590 H 0.35417 0.54788 0.85689 0.0
H591 H 0.33815 0.59173 0.84412 0.0
H592 H 0.30924 0.59976 0.93121 0.0
H593 H 0.32543 0.55608 0.94465 0.0
C594 C 0.30968 0.41334 0.94278 0.0
C595 C 0.30136 0.4168 0.97163 0.0
C596 C 0.32094 0.43417 0.92735 0.0
C597 C 0.32415 0.4587 0.94061 0.0
C598 C 0.31324 0.46293 0.96805 0.0
C599 C 0.30195 0.44211 0.98348 0.0
C600 C 0.34241 0.47824 0.92836 0.0
C601 C 0.3341 0.50355 0.92126 0.0
C602 C 0.36841 0.47193 0.92458 0.0
C603 C 0.3788 0.44628 0.93402 0.0
C604 C 0.37691 0.43784 0.96339 0.0
C605 C 0.38616 0.41339 0.97203 0.0
C606 C 0.39763 0.39732 0.95155 0.0
C607 C 0.39994 0.40572 0.92241 0.0
C608 C 0.39062 0.43013 0.91364 0.0
C609 C 0.42109 0.57551 0.90348 0.0
C610 C 0.43546 0.57066 0.87828 0.0
C611 C 0.40167 0.5581 0.91211 0.0
C612 C 0.39637 0.53548 0.89581 0.0
C613 C 0.41056 0.53065 0.87062 0.0
C614 C 0.42978 0.54813 0.86182 0.0
C615 C 0.37701 0.51605 0.90587 0.0
C616 C 0.38523 0.49074 0.91293 0.0
C617 C 0.35109 0.52255 0.9099 0.0
C618 C 0.34122 0.54878 0.90186 0.0
C619 C 0.34459 0.55907 0.87341 0.0
C620 C 0.33544 0.58389 0.86603 0.0
C621 C 0.32273 0.59854 0.88686 0.0
C622 C 0.31911 0.58839 0.9151 0.0
C623 C 0.32824 0.56359 0.9226 0.0
H624 H 0.31561 0.61771 0.88109 0.0
H625 H 0.40479 0.37839 0.95827 0.0
H626 H 0.66851 0.60676 0.48162 0.0
H627 H 0.64616 0.57325 0.45312 0.0
H628 H 0.71583 0.52954 0.44784 0.0
H629 H 0.738 0.56235 0.47777 0.0
H630 H 0.64752 0.55126 0.4022 0.0
H631 H 0.70221 0.46467 0.45426 0.0
H632 H 0.72703 0.45434 0.49921 0.0
H633 H 0.6858 0.51208 0.54642 0.0
H634 H 0.66053 0.52248 0.50188 0.0
H635 H 0.59788 0.43648 0.33535 0.0
H636 H 0.62776 0.46958 0.35419 0.0
H637 H 0.60199 0.45364 0.44219 0.0
H638 H 0.57282 0.41985 0.42365 0.0
H639 H 0.65034 0.46143 0.44431 0.0
H640 H 0.58046 0.50723 0.3991 0.0
H641 H 0.55055 0.51924 0.35909 0.0
H642 H 0.61338 0.54583 0.30644 0.0
H643 H 0.64369 0.53366 0.34603 0.0
C644 C 0.67915 0.5901 0.47425 0.0
C645 C 0.70494 0.58702 0.4825 0.0
C646 C 0.66638 0.57103 0.45771 0.0
C647 C 0.67914 0.54854 0.44886 0.0
C648 C 0.70543 0.54646 0.45494 0.0
C649 C 0.71818 0.56542 0.47178 0.0
C650 C 0.66436 0.52651 0.43549 0.0
C651 C 0.64832 0.53157 0.41124 0.0
C652 C 0.66487 0.50089 0.44766 0.0
C653 C 0.67973 0.49456 0.47465 0.0
C654 C 0.69841 0.4751 0.47427 0.0
C655 C 0.71255 0.46923 0.49966 0.0
C656 C 0.70806 0.48261 0.52562 0.0
C657 C 0.68933 0.5018 0.52628 0.0
C658 C 0.67511 0.5077 0.50096 0.0
C659 C 0.59871 0.43988 0.35875 0.0
C660 C 0.58283 0.4256 0.37798 0.0
C661 C 0.61573 0.45893 0.36948 0.0
C662 C 0.61684 0.46454 0.39958 0.0
C663 C 0.60153 0.44975 0.41888 0.0
C664 C 0.58481 0.43042 0.40823 0.0
C665 C 0.63339 0.48616 0.41102 0.0
C666 C 0.6498 0.48102 0.43493 0.0
C667 C 0.63252 0.5119 0.39919 0.0
C668 C 0.61435 0.51927 0.37538 0.0
C669 C 0.5879 0.51546 0.3789 0.0
C670 C 0.57088 0.52232 0.35632 0.0
C671 C 0.58007 0.53322 0.3302 0.0
C672 C 0.60629 0.53734 0.32665 0.0
C673 C 0.6234 0.53048 0.34916 0.0
H674 H 0.56686 0.53852 0.31274 0.0
H675 H 0.71905 0.47807 0.54524 0.0
H676 H 0.71033 0.47741 0.01964 0.0
H677 H 0.68066 0.50759 0.99541 0.0
H678 H 0.68304 0.46169 0.91657 0.0
H679 H 0.71377 0.43221 0.9405 0.0
H680 H 0.67854 0.51214 0.90269 0.0
H681 H 0.63618 0.4517 0.96754 0.0
H682 H 0.6295 0.42877 0.01474 0.0
H683 H 0.61425 0.50187 0.0561 0.0
H684 H 0.62127 0.52531 0.00923 0.0
H685 H 0.55697 0.55187 0.84634 0.0
H686 H 0.59278 0.52639 0.86543 0.0
H687 H 0.59517 0.57338 0.94346 0.0
H688 H 0.55917 0.59867 0.92488 0.0
H689 H 0.59741 0.52196 0.9564 0.0
H690 H 0.63931 0.58196 0.88916 0.0
H691 H 0.64501 0.60321 0.84081 0.0
H692 H 0.65924 0.52863 0.80229 0.0
H693 H 0.65329 0.50689 0.85035 0.0
C694 C 0.70486 0.47419 0.99695 0.0
C695 C 0.71401 0.45259 0.98185 0.0
C696 C 0.68789 0.4913 0.98317 0.0
C697 C 0.67915 0.4865 0.95442 0.0
C698 C 0.68944 0.46569 0.93878 0.0
C699 C 0.70688 0.44887 0.95241 0.0
C700 C 0.65776 0.5018 0.94173 0.0
C701 C 0.66071 0.51411 0.91428 0.0
C702 C 0.63451 0.50441 0.95692 0.0
C703 C 0.62945 0.49028 0.98492 0.0
C704 C 0.63149 0.4629 0.98673 0.0
C705 C 0.62767 0.44981 0.01342 0.0
C706 C 0.62151 0.46386 0.03842 0.0
C707 C 0.61905 0.49102 0.03673 0.0
C708 C 0.62293 0.50422 0.01009 0.0
C709 C 0.56512 0.55684 0.86755 0.0
C710 C 0.55513 0.57732 0.88409 0.0
C711 C 0.58567 0.54232 0.87835 0.0
C712 C 0.59677 0.54818 0.90573 0.0
C713 C 0.58686 0.56856 0.92227 0.0
C714 C 0.56628 0.58301 0.91157 0.0
C715 C 0.61831 0.53267 0.9176 0.0
C716 C 0.61528 0.52013 0.94485 0.0
C717 C 0.64128 0.52962 0.90203 0.0
C718 C 0.64565 0.54277 0.87332 0.0
C719 C 0.64355 0.57008 0.87035 0.0
C720 C 0.64683 0.58221 0.843 0.0
C721 C 0.65241 0.56727 0.81847 0.0
C722 C 0.65488 0.54018 0.8213 0.0
C723 C 0.6516 0.52794 0.8486 0.0
H724 H 0.65487 0.57669 0.7973 0.0
H725 H 0.61862 0.4537 0.05909 0.0
H726 H 0.32308 0.54776 0.49773 0.0
H727 H 0.34555 0.51038 0.47766 0.0
H728 H 0.38379 0.5618 0.41618 0.0
H729 H 0.36147 0.59913 0.43609 0.0
H730 H 0.36566 0.51818 0.38964 0.0
H731 H 0.41693 0.53733 0.47843 0.0
H732 H 0.42387 0.54295 0.53168 0.0
H733 H 0.38986 0.46742 0.54824 0.0
H734 H 0.38324 0.46114 0.49504 0.0
H735 H 0.47502 0.45251 0.34438 0.0
H736 H 0.44234 0.48117 0.36312 0.0
H737 H 0.41816 0.42056 0.42372 0.0
H738 H 0.4515 0.39207 0.40575 0.0
H739 H 0.42304 0.46359 0.45144 0.0
H740 H 0.38091 0.43996 0.3631 0.0
H741 H 0.37577 0.43215 0.31013 0.0
H742 H 0.38929 0.5137 0.29206 0.0
H743 H 0.39508 0.52198 0.34492 0.0
C744 C 0.33644 0.55109 0.48009 0.0
C745 C 0.34046 0.57637 0.46842 0.0
C746 C 0.34922 0.52973 0.46863 0.0
C747 C 0.36642 0.53334 0.44551 0.0
C748 C 0.37046 0.55855 0.43389 0.0
C749 C 0.35766 0.57986 0.44525 0.0
C750 C 0.38037 0.51102 0.43327 0.0
C751 C 0.37836 0.5063 0.40304 0.0
C752 C 0.39602 0.49482 0.45099 0.0
C753 C 0.39936 0.49891 0.48289 0.0
C754 C 0.41078 0.52203 0.49348 0.0
C755 C 0.41472 0.52529 0.52361 0.0
C756 C 0.4071 0.50567 0.54334 0.0
C757 C 0.39568 0.48264 0.53295 0.0
C758 C 0.39196 0.47916 0.50282 0.0
C759 C 0.46256 0.44515 0.36145 0.0
C760 C 0.46594 0.42007 0.37368 0.0
C761 C 0.44373 0.46151 0.37203 0.0
C762 C 0.42753 0.45293 0.3946 0.0
C763 C 0.43043 0.42761 0.4063 0.0
C764 C 0.4495 0.41137 0.39602 0.0
C765 C 0.40904 0.47115 0.4075 0.0
C766 C 0.41008 0.47508 0.43792 0.0
C767 C 0.39226 0.48636 0.38993 0.0
C768 C 0.3886 0.48156 0.35805 0.0
C769 C 0.38297 0.45622 0.34785 0.0
C770 C 0.37992 0.45171 0.31782 0.0
C771 C 0.3822 0.4724 0.29773 0.0
C772 C 0.38752 0.49768 0.30764 0.0
C773 C 0.39068 0.5023 0.33766 0.0
H774 H 0.37981 0.46884 0.27449 0.0
H775 H 0.41016 0.50824 0.56665 0.0
H776 H 0.82499 0.89832 0.96741 0.0
H777 H 0.84961 0.92994 0.9383 0.0
H778 H 0.7885 0.98526 0.94412 0.0
H779 H 0.76373 0.9536 0.97338 0.0
H780 H 0.81665 0.98862 0.88993 0.0
H781 H 0.82974 0.98817 0.99429 0.0
H782 H 0.83786 0.96669 0.0421 0.0
H783 H 0.91107 0.94172 0.01257 0.0
H784 H 0.90303 0.96236 0.96425 0.0
H785 H 0.92749 0.09155 0.91684 0.0
H786 H 0.89342 0.06251 0.93452 0.0
H787 H 0.89804 0.01706 0.85567 0.0
H788 H 0.93173 0.04615 0.83757 0.0
H789 H 0.89456 0.0122 0.94764 0.0
H790 H 0.83982 0.99065 0.83867 0.0
H791 H 0.82961 0.01311 0.7919 0.0
H792 H 0.83687 0.0876 0.83401 0.0
H793 H 0.84675 0.0656 0.8811 0.0
C794 C 0.81647 0.9169 0.96165 0.0
C795 C 0.79264 0.92369 0.97294 0.0
C796 C 0.83053 0.93492 0.94503 0.0
C797 C 0.82104 0.96006 0.93958 0.0
C798 C 0.79613 0.96594 0.94816 0.0
C799 C 0.78199 0.94784 0.96481 0.0
C800 C 0.83857 0.98112 0.92929 0.0
C801 C 0.83372 0.9938 0.90243 0.0
C802 C 0.8604 0.98835 0.94615 0.0
C803 C 0.86566 0.97659 0.97552 0.0
C804 C 0.84747 0.9779 0.9979 0.0
C805 C 0.85205 0.96584 0.02508 0.0
C806 C 0.87491 0.95271 0.03034 0.0
C807 C 0.8933 0.95175 0.00844 0.0
C808 C 0.88874 0.96362 0.98112 0.0
C809 C 0.92118 0.0755 0.90315 0.0
C810 C 0.93244 0.07124 0.87577 0.0
C811 C 0.9017 0.05888 0.91331 0.0
C812 C 0.89299 0.03774 0.89632 0.0
C813 C 0.9041 0.0335 0.86895 0.0
C814 C 0.92352 0.05012 0.85874 0.0
C815 C 0.87314 0.0194 0.90774 0.0
C816 C 0.87752 0.00717 0.93501 0.0
C817 C 0.85067 0.01303 0.89149 0.0
C818 C 0.84425 0.02645 0.86337 0.0
C819 C 0.83911 0.01181 0.83798 0.0
C820 C 0.8334 0.02447 0.8114 0.0
C821 C 0.83267 0.05176 0.80996 0.0
C822 C 0.83753 0.06646 0.83513 0.0
C823 C 0.84321 0.05391 0.86176 0.0
H824 H 0.82829 0.06152 0.78935 0.0
H825 H 0.87838 0.94338 0.05141 0.0
H826 H 0.20153 0.10759 0.43033 0.0
H827 H 0.18142 0.0723 0.40197 0.0
H828 H 0.1932 0.01878 0.4745 0.0
H829 H 0.21395 0.05374 0.50256 0.0
H830 H 0.19586 0.99335 0.42268 0.0
H831 H 0.139 0.05302 0.46931 0.0
H832 H 0.12163 0.0964 0.48012 0.0
H833 H 0.10231 0.10767 0.38907 0.0
H834 H 0.11997 0.06449 0.37766 0.0
H835 H 0.08591 0.90878 0.4119 0.0
H836 H 0.11944 0.93988 0.42699 0.0
H837 H 0.10544 0.98614 0.34896 0.0
H838 H 0.07203 0.9553 0.33365 0.0
H839 H 0.10583 0.0154 0.39906 0.0
H840 H 0.15889 0.95213 0.3541 0.0
H841 H 0.1754 0.90801 0.34534 0.0
H842 H 0.20047 0.90233 0.43517 0.0
H843 H 0.18381 0.94631 0.4446 0.0
C844 C 0.20073 0.08807 0.43978 0.0
C845 C 0.20898 0.0835 0.46882 0.0
C846 C 0.18903 0.06796 0.42366 0.0
C847 C 0.18524 0.04305 0.4364 0.0
C848 C 0.19573 0.03785 0.46428 0.0
C849 C 0.20747 0.05789 0.48035 0.0
C850 C 0.16761 0.02359 0.4226 0.0
C851 C 0.17616 0.99812 0.41757 0.0
C852 C 0.14192 0.02984 0.41574 0.0
C853 C 0.13107 0.05568 0.42258 0.0
C854 C 0.13121 0.06484 0.45157 0.0
C855 C 0.1213 0.08938 0.45781 0.0
C856 C 0.11094 0.10482 0.43528 0.0
C857 C 0.1104 0.09571 0.40648 0.0
C858 C 0.12036 0.07121 0.40012 0.0
C859 C 0.09006 0.92546 0.39783 0.0
C860 C 0.07613 0.92954 0.3716 0.0
C861 C 0.10935 0.94314 0.40641 0.0
C862 C 0.11502 0.96526 0.38901 0.0
C863 C 0.1014 0.96919 0.36269 0.0
C864 C 0.08229 0.95147 0.35398 0.0
C865 C 0.13403 0.98514 0.39907 0.0
C866 C 0.12564 0.01069 0.40366 0.0
C867 C 0.15971 0.97883 0.40575 0.0
C868 C 0.1699 0.95244 0.40012 0.0
C869 C 0.16774 0.9414 0.37205 0.0
C870 C 0.17716 0.91643 0.36695 0.0
C871 C 0.18891 0.90235 0.3897 0.0
C872 C 0.19134 0.91325 0.41758 0.0
C873 C 0.18195 0.93822 0.42281 0.0
H874 H 0.19618 0.88301 0.3857 0.0
H875 H 0.10326 0.12381 0.44015 0.0
H876 H 0.18842 0.96354 0.02605 0.0
H877 H 0.1591 0.99242 0.99951 0.0
H878 H 0.17975 0.95699 0.91782 0.0
H879 H 0.20957 0.92836 0.94435 0.0
H880 H 0.17337 0.00883 0.91072 0.0
H881 H 0.12587 0.93761 0.95243 0.0
H882 H 0.11193 0.90732 0.9917 0.0
H883 H 0.08197 0.97161 0.03968 0.0
H884 H 0.09611 0.00236 0.00091 0.0
H885 H 0.05925 0.0536 0.8367 0.0
H886 H 0.09309 0.02609 0.85733 0.0
H887 H 0.08263 0.06046 0.94221 0.0
H888 H 0.04889 0.08788 0.92203 0.0
H889 H 0.08358 0.00673 0.94438 0.0
H890 H 0.13295 0.07794 0.90189 0.0
H891 H 0.1468 0.1072 0.86161 0.0
H892 H 0.17224 0.04108 0.81318 0.0
H893 H 0.15821 0.01138 0.85303 0.0
C894 C 0.18682 0.96208 0.00241 0.0
C895 C 0.20098 0.94357 0.98723 0.0
C896 C 0.17008 0.97853 0.98728 0.0
C897 C 0.16684 0.97643 0.95677 0.0
C898 C 0.18189 0.95883 0.94137 0.0
C899 C 0.19889 0.94253 0.95651 0.0
C900 C 0.1468 0.99168 0.94134 0.0
C901 C 0.15367 0.00812 0.91779 0.0
C902 C 0.12111 0.9908 0.95067 0.0
C903 C 0.11224 0.97232 0.97386 0.0
C904 C 0.11645 0.94531 0.97144 0.0
C905 C 0.1085 0.92806 0.9936 0.0
C906 C 0.09612 0.93754 0.0182 0.0
C907 C 0.09159 0.96429 0.02063 0.0
C908 C 0.09954 0.98165 0.99856 0.0
C909 C 0.06419 0.05536 0.85975 0.0
C910 C 0.05128 0.07294 0.87771 0.0
C911 C 0.0836 0.0397 0.87144 0.0
C912 C 0.09038 0.04135 0.90125 0.0
C913 C 0.07763 0.0589 0.91915 0.0
C914 C 0.05838 0.07462 0.90751 0.0
C915 C 0.11025 0.02432 0.91423 0.0
C916 C 0.10327 0.00738 0.93724 0.0
C917 C 0.13571 0.02457 0.90417 0.0
C918 C 0.14427 0.04242 0.88029 0.0
C919 C 0.1413 0.06962 0.88254 0.0
C920 C 0.14922 0.08629 0.85981 0.0
C921 C 0.16032 0.076 0.83481 0.0
C922 C 0.1636 0.04902 0.83253 0.0
C923 C 0.15568 0.03226 0.85519 0.0
H924 H 0.16643 0.08893 0.81723 0.0
H925 H 0.08999 0.92415 0.03534 0.0
H926 H 0.77466 0.01618 0.469 0.0
H927 H 0.80449 0.99123 0.43999 0.0
H928 H 0.86186 0.05178 0.4517 0.0
H929 H 0.83162 0.07767 0.47871 0.0
H930 H 0.86646 0.03348 0.40023 0.0
H931 H 0.85758 0.99501 0.49649 0.0
H932 H 0.83475 0.9746 0.53801 0.0
H933 H 0.81026 0.91112 0.483 0.0
H934 H 0.83263 0.93139 0.44103 0.0
H935 H 0.96672 0.92337 0.42023 0.0
H936 H 0.93167 0.94965 0.43756 0.0
H937 H 0.90626 0.9628 0.34823 0.0
H938 H 0.94201 0.93716 0.33061 0.0
H939 H 0.88322 0.94303 0.4351 0.0
H940 H 0.87576 0.02139 0.34316 0.0
H941 H 0.90335 0.04398 0.30713 0.0
H942 H 0.96882 0.03145 0.36299 0.0
H943 H 0.94157 0.00909 0.39948 0.0
C944 C 0.7934 0.0245 0.46481 0.0
C945 C 0.80084 0.04879 0.47666 0.0
C946 C 0.81056 0.01005 0.44848 0.0
C947 C 0.83565 0.01932 0.44423 0.0
C948 C 0.84269 0.04409 0.45483 0.0
C949 C 0.82545 0.05873 0.47067 0.0
C950 C 0.85511 0.0028 0.43033 0.0
C951 C 0.87001 0.01364 0.40773 0.0
C952 C 0.86007 0.97702 0.44037 0.0
C953 C 0.84647 0.9649 0.46553 0.0
C954 C 0.84713 0.97682 0.49319 0.0
C955 C 0.8343 0.96526 0.51681 0.0
C956 C 0.82097 0.94163 0.51311 0.0
C957 C 0.82051 0.92947 0.48581 0.0
C958 C 0.83325 0.94099 0.46209 0.0
C959 C 0.95376 0.93193 0.40422 0.0
C960 C 0.95719 0.92825 0.37403 0.0
C961 C 0.93365 0.94689 0.41418 0.0
C962 C 0.91635 0.95831 0.39424 0.0
C963 C 0.9196 0.95455 0.36403 0.0
C964 C 0.94001 0.93987 0.35399 0.0
C965 C 0.8949 0.97389 0.40541 0.0
C966 C 0.8795 0.96278 0.42735 0.0
C967 C 0.89014 0.99973 0.39553 0.0
C968 C 0.90667 0.01329 0.37384 0.0
C969 C 0.89604 0.02351 0.34775 0.0
C970 C 0.91161 0.03627 0.32726 0.0
C971 C 0.93784 0.03905 0.33272 0.0
C972 C 0.94852 0.02918 0.35873 0.0
C973 C 0.93303 0.01643 0.3793 0.0
H974 H 0.94986 0.04892 0.31682 0.0
H975 H 0.81107 0.9327 0.53144 0.0
H976 H 0.35952 0.38851 0.04295 0.0
H977 H 0.38686 0.38383 0.08634 0.0
H978 H 0.32744 0.33952 0.12982 0.0
H979 H 0.29946 0.34505 0.08679 0.0
H980 H 0.35028 0.37291 0.16705 0.0
H981 H 0.37702 0.3083 0.09966 0.0
H982 H 0.39077 0.29158 0.05195 0.0
H983 H 0.45757 0.34119 0.05543 0.0
H984 H 0.44403 0.35849 0.103 0.0
H985 H 0.4714 0.31289 0.24466 0.0
H986 H 0.4378 0.31188 0.20691 0.0
H987 H 0.42722 0.39485 0.2165 0.0
H988 H 0.46048 0.39608 0.25436 0.0
H989 H 0.43662 0.33595 0.15478 0.0
H990 H 0.36552 0.40975 0.20381 0.0
H991 H 0.34992 0.42264 0.25235 0.0
H992 H 0.36908 0.34712 0.28767 0.0
H993 H 0.38456 0.3337 0.23934 0.0
C994 C 0.35205 0.37817 0.06191 0.0
C995 C 0.32728 0.36715 0.06142 0.0
C996 C 0.36782 0.37526 0.08658 0.0
C997 C 0.35932 0.36098 0.11113 0.0
C998 C 0.33441 0.3505 0.11105 0.0
C999 C 0.31854 0.3535 0.08638 0.0
C1000 C 0.3767 0.35664 0.13658 0.0
C1001 C 0.36914 0.36479 0.16442 0.0
C1002 C 0.40103 0.3454 0.13325 0.0
C1003 C 0.40941 0.33482 0.10481 0.0
C1004 C 0.39456 0.31576 0.09017 0.0
C1005 C 0.40233 0.30617 0.06316 0.0
C1006 C 0.425 0.31536 0.05064 0.0
C1007 C 0.44 0.33411 0.06515 0.0
C1008 C 0.43231 0.34378 0.09216 0.0
C1009 C 0.46181 0.33091 0.23892 0.0
C1010 C 0.46874 0.35459 0.25253 0.0
C1011 C 0.44264 0.33028 0.2173 0.0
C1012 C 0.42989 0.35324 0.20908 0.0
C1013 C 0.43655 0.37682 0.22282 0.0
C1014 C 0.45572 0.3775 0.24436 0.0
C1015 C 0.4105 0.35291 0.18511 0.0
C1016 C 0.4177 0.34392 0.1575 0.0
C1017 C 0.38566 0.36285 0.18882 0.0
C1018 C 0.37636 0.3708 0.21797 0.0
C1019 C 0.36632 0.39587 0.22191 0.0
C1020 C 0.35752 0.40327 0.24939 0.0
C1021 C 0.3585 0.3857 0.27306 0.0
C1022 C 0.36837 0.36073 0.26933 0.0
C1023 C 0.37722 0.35324 0.24191 0.0
H1024 H 0.35157 0.39141 0.29428 0.0
H1025 H 0.43098 0.30792 0.02972 0.0
H1026 H 0.66689 0.64623 0.55506 0.0
H1027 H 0.64039 0.65272 0.59813 0.0
H1028 H 0.70032 0.62214 0.65393 0.0
H1029 H 0.72695 0.61551 0.61079 0.0
H1030 H 0.65277 0.59923 0.66433 0.0
H1031 H 0.68892 0.68524 0.65613 0.0
H1032 H 0.70113 0.72631 0.63083 0.0
H1033 H 0.62227 0.74146 0.61104 0.0
H1034 H 0.60959 0.70027 0.63586 0.0
H1035 H 0.57926 0.62105 0.79024 0.0
H1036 H 0.61481 0.6222 0.75592 0.0
H1037 H 0.56912 0.66724 0.69463 0.0
H1038 H 0.53443 0.66791 0.73015 0.0
H1039 H 0.61436 0.68383 0.69066 0.0
H1040 H 0.57863 0.59545 0.69189 0.0
H1041 H 0.56562 0.55397 0.71593 0.0
H1042 H 0.64251 0.54281 0.74709 0.0
H1043 H 0.65591 0.58432 0.7234 0.0
C1044 C 0.67447 0.64107 0.57654 0.0
C1045 C 0.69896 0.63038 0.57961 0.0
C1046 C 0.65939 0.64492 0.60112 0.0
C1047 C 0.66847 0.63806 0.62923 0.0
C1048 C 0.69303 0.62764 0.63243 0.0
C1049 C 0.70825 0.62403 0.60784 0.0
C1050 C 0.65168 0.64055 0.65495 0.0
C1051 C 0.64468 0.61779 0.67046 0.0
C1052 C 0.64079 0.66468 0.6625 0.0
C1053 C 0.64833 0.68955 0.64768 0.0
C1054 C 0.67419 0.69722 0.64619 0.0
C1055 C 0.6812 0.72054 0.63197 0.0
C1056 C 0.66249 0.73646 0.61929 0.0
C1057 C 0.63674 0.72911 0.62086 0.0
C1058 C 0.62963 0.70579 0.63503 0.0
C1059 C 0.57703 0.63139 0.76951 0.0
C1060 C 0.55418 0.64424 0.76259 0.0
C1061 C 0.59723 0.63186 0.74979 0.0
C1062 C 0.59448 0.6441 0.72217 0.0
C1063 C 0.57178 0.65756 0.71568 0.0
C1064 C 0.55193 0.65789 0.73588 0.0
C1065 C 0.61477 0.64234 0.69967 0.0
C1066 C 0.62251 0.66526 0.68475 0.0
C1067 C 0.62615 0.61827 0.6924 0.0
C1068 C 0.61821 0.59305 0.70608 0.0
C1069 C 0.59273 0.58416 0.70393 0.0
C1070 C 0.58529 0.56065 0.71749 0.0
C1071 C 0.60321 0.5458 0.73309 0.0
C1072 C 0.62864 0.55435 0.73502 0.0
C1073 C 0.63618 0.57783 0.72149 0.0
H1074 H 0.59741 0.52764 0.74363 0.0
H1075 H 0.66796 0.75451 0.60828 0.0
H1076 H 0.68454 0.37534 0.03714 0.0
H1077 H 0.66083 0.36168 0.0807 0.0
H1078 H 0.72688 0.37897 0.135 0.0
H1079 H 0.75064 0.39291 0.0914 0.0
H1080 H 0.66473 0.32714 0.12728 0.0
H1081 H 0.70509 0.4152 0.19219 0.0
H1082 H 0.72466 0.45861 0.18251 0.0
H1083 H 0.68549 0.46277 0.09927 0.0
H1084 H 0.66542 0.41964 0.10868 0.0
H1085 H 0.60371 0.32224 0.26673 0.0
H1086 H 0.63633 0.32413 0.22865 0.0
H1087 H 0.60552 0.39707 0.19652 0.0
H1088 H 0.57387 0.39588 0.23511 0.0
H1089 H 0.65349 0.40121 0.19515 0.0
H1090 H 0.59331 0.33484 0.16332 0.0
H1091 H 0.56818 0.29384 0.16768 0.0
H1092 H 0.63734 0.25009 0.17651 0.0
H1093 H 0.66287 0.2909 0.17254 0.0
C1094 C 0.69416 0.37564 0.05832 0.0
C1095 C 0.71931 0.38543 0.06099 0.0
C1096 C 0.68067 0.36768 0.08314 0.0
C1097 C 0.692 0.36961 0.11109 0.0
C1098 C 0.71775 0.3775 0.11361 0.0
C1099 C 0.73134 0.38532 0.08871 0.0
C1100 C 0.67589 0.36672 0.13747 0.0
C1101 C 0.66246 0.34318 0.14238 0.0
C1102 C 0.67238 0.38792 0.15662 0.0
C1103 C 0.68407 0.41405 0.15099 0.0
C1104 C 0.70063 0.42543 0.17187 0.0
C1105 C 0.7118 0.44998 0.16643 0.0
C1106 C 0.70641 0.46339 0.14024 0.0
C1107 C 0.68974 0.45233 0.11949 0.0
C1108 C 0.67849 0.42783 0.12486 0.0
C1109 C 0.60401 0.33872 0.25159 0.0
C1110 C 0.5862 0.35891 0.25394 0.0
C1111 C 0.62259 0.33972 0.22974 0.0
C1112 C 0.62326 0.36059 0.20939 0.0
C1113 C 0.60557 0.38081 0.21197 0.0
C1114 C 0.5874 0.38008 0.23406 0.0
C1115 C 0.64205 0.36157 0.18515 0.0
C1116 C 0.65605 0.38487 0.18055 0.0
C1117 C 0.64528 0.34045 0.16568 0.0
C1118 C 0.62997 0.31593 0.16797 0.0
C1119 C 0.60314 0.31649 0.1664 0.0
C1120 C 0.58883 0.29329 0.16876 0.0
C1121 C 0.60115 0.26939 0.17246 0.0
C1122 C 0.62782 0.26863 0.1737 0.0
C1123 C 0.64222 0.29178 0.17138 0.0
H1124 H 0.59004 0.25145 0.17429 0.0
H1125 H 0.7151 0.48237 0.13606 0.0
H1126 H 0.32283 0.67012 0.54963 0.0
H1127 H 0.33677 0.67475 0.60071 0.0
H1128 H 0.31841 0.59354 0.61711 0.0
H1129 H 0.30381 0.58884 0.56629 0.0
H1130 H 0.3192 0.65502 0.66553 0.0
H1131 H 0.3754 0.571 0.62583 0.0
H1132 H 0.38608 0.55154 0.57825 0.0
H1133 H 0.39421 0.62826 0.53995 0.0
H1134 H 0.38383 0.64808 0.58737 0.0
H1135 H 0.43538 0.5946 0.75302 0.0
H1136 H 0.40246 0.59315 0.71465 0.0
H1137 H 0.39629 0.67713 0.71747 0.0
H1138 H 0.42889 0.6788 0.75617 0.0
H1139 H 0.40434 0.61355 0.66112 0.0
H1140 H 0.33565 0.69508 0.69756 0.0
H1141 H 0.32011 0.71419 0.74335 0.0
H1142 H 0.33483 0.64222 0.78951 0.0
H1143 H 0.3501 0.62253 0.74393 0.0
C1144 C 0.32055 0.65357 0.56443 0.0
C1145 C 0.31273 0.62895 0.55379 0.0
C1146 C 0.32846 0.6563 0.59368 0.0
C1147 C 0.32875 0.63445 0.61251 0.0
C1148 C 0.31823 0.61064 0.60285 0.0
C1149 C 0.3102 0.60792 0.57373 0.0
C1150 C 0.34567 0.63456 0.63869 0.0
C1151 C 0.3379 0.64619 0.66471 0.0
C1152 C 0.3698 0.62265 0.63751 0.0
C1153 C 0.37886 0.61094 0.61004 0.0
C1154 C 0.37989 0.58366 0.60735 0.0
C1155 C 0.38578 0.57258 0.58039 0.0
C1156 C 0.39078 0.58866 0.55607 0.0
C1157 C 0.39033 0.61583 0.55878 0.0
C1158 C 0.38449 0.62698 0.58568 0.0
C1159 C 0.42691 0.61278 0.74569 0.0
C1160 C 0.43491 0.63684 0.75767 0.0
C1161 C 0.40808 0.6119 0.72372 0.0
C1162 C 0.39676 0.63499 0.71333 0.0
C1163 C 0.40444 0.659 0.72547 0.0
C1164 C 0.42323 0.65992 0.74751 0.0
C1165 C 0.37812 0.6341 0.68854 0.0
C1166 C 0.38564 0.62232 0.66242 0.0
C1167 C 0.35379 0.64592 0.68987 0.0
C1168 C 0.34426 0.65743 0.71734 0.0
C1169 C 0.33546 0.68329 0.71745 0.0
C1170 C 0.32672 0.69423 0.74337 0.0
C1171 C 0.32657 0.67946 0.76934 0.0
C1172 C 0.33506 0.65367 0.76941 0.0
C1173 C 0.34379 0.64262 0.74353 0.0
H1174 H 0.31982 0.688 0.78937 0.0
H1175 H 0.39489 0.58011 0.53508 0.0
H1176 H 0.82238 0.9235 0.07111 0.0
H1177 H 0.85265 0.91438 0.11089 0.0
H1178 H 0.82029 0.8368 0.12111 0.0
H1179 H 0.78974 0.84588 0.08107 0.0
H1180 H 0.83142 0.85912 0.17419 0.0
H1181 H 0.87456 0.84449 0.0848 0.0
H1182 H 0.88914 0.85447 0.03468 0.0
H1183 H 0.9313 0.92129 0.06629 0.0
H1184 H 0.91657 0.91201 0.11657 0.0
H1185 H 0.94296 0.82086 0.25924 0.0
H1186 H 0.9092 0.82186 0.2214 0.0
H1187 H 0.92755 0.90276 0.20267 0.0
H1188 H 0.96104 0.90207 0.24018 0.0
H1189 H 0.92344 0.87228 0.15271 0.0
H1190 H 0.87658 0.88825 0.24157 0.0
H1191 H 0.86189 0.87753 0.29149 0.0
H1192 H 0.82729 0.80628 0.26026 0.0
H1193 H 0.8421 0.81642 0.21018 0.0
C1194 C 0.8217 0.90448 0.08179 0.0
C1195 C 0.80395 0.88525 0.0727 0.0
C1196 C 0.83897 0.89931 0.10456 0.0
C1197 C 0.83903 0.87474 0.11857 0.0
C1198 C 0.82062 0.85585 0.11047 0.0
C1199 C 0.8032 0.86106 0.08766 0.0
C1200 C 0.85897 0.86874 0.14092 0.0
C1201 C 0.85157 0.86153 0.16939 0.0
C1202 C 0.88524 0.87203 0.13465 0.0
C1203 C 0.89432 0.87763 0.10446 0.0
C1204 C 0.88679 0.86143 0.08105 0.0
C1205 C 0.89509 0.86695 0.05261 0.0
C1206 C 0.91114 0.88849 0.04731 0.0
C1207 C 0.91891 0.90457 0.07045 0.0
C1208 C 0.91058 0.89919 0.09893 0.0
C1209 C 0.93978 0.83886 0.24707 0.0
C1210 C 0.95473 0.86138 0.25277 0.0
C1211 C 0.92045 0.8394 0.22555 0.0
C1212 C 0.9159 0.8624 0.20932 0.0
C1213 C 0.93081 0.88481 0.21493 0.0
C1214 C 0.9499 0.88437 0.2365 0.0
C1215 C 0.89588 0.86338 0.18613 0.0
C1216 C 0.90331 0.86957 0.15742 0.0
C1217 C 0.86972 0.85896 0.19217 0.0
C1218 C 0.86072 0.85293 0.22222 0.0
C1219 C 0.86604 0.87018 0.2454 0.0
C1220 C 0.85765 0.86423 0.27371 0.0
C1221 C 0.84374 0.84119 0.27907 0.0
C1222 C 0.83811 0.82409 0.25609 0.0
C1223 C 0.84649 0.82994 0.22774 0.0
H1224 H 0.83726 0.83662 0.301 0.0
H1225 H 0.91758 0.89269 0.02528 0.0
H1226 H 0.17986 0.17131 0.55631 0.0
H1227 H 0.15381 0.17277 0.60028 0.0
H1228 H 0.16715 0.09082 0.61641 0.0
H1229 H 0.19413 0.08932 0.57312 0.0
H1230 H 0.11507 0.10503 0.61744 0.0
H1231 H 0.19576 0.13222 0.65916 0.0
H1232 H 0.23507 0.15918 0.66264 0.0
H1233 H 0.19028 0.22807 0.67335 0.0
H1234 H 0.15066 0.20156 0.6695 0.0
H1235 H 0.05696 0.09419 0.75502 0.0
H1236 H 0.08964 0.09367 0.71741 0.0
H1237 H 0.08315 0.17716 0.70579 0.0
H1238 H 0.05067 0.178 0.74383 0.0
H1239 H 0.13262 0.16208 0.70298 0.0
H1240 H 0.05234 0.13637 0.66151 0.0
H1241 H 0.0124 0.11057 0.65904 0.0
H1242 H 0.05494 0.04068 0.64511 0.0
H1243 H 0.09534 0.06594 0.64893 0.0
C1244 C 0.17779 0.1537 0.5695 0.0
C1245 C 0.18917 0.13018 0.56107 0.0
C1246 C 0.16274 0.15456 0.59455 0.0
C1247 C 0.15862 0.13191 0.61157 0.0
C1248 C 0.17005 0.10848 0.60346 0.0
C1249 C 0.18535 0.10766 0.57861 0.0
C1250 C 0.14152 0.13246 0.63717 0.0
C1251 C 0.11908 0.11716 0.63637 0.0
C1252 C 0.14644 0.14895 0.66137 0.0
C1253 C 0.17024 0.16494 0.66374 0.0
C1254 C 0.19428 0.15315 0.66199 0.0
C1255 C 0.21663 0.16835 0.66409 0.0
C1256 C 0.21518 0.19533 0.66814 0.0
C1257 C 0.19138 0.20717 0.67017 0.0
C1258 C 0.16897 0.19207 0.66806 0.0
C1259 C 0.06253 0.11251 0.74464 0.0
C1260 C 0.05089 0.1361 0.75222 0.0
C1261 C 0.08126 0.11216 0.72314 0.0
C1262 C 0.08854 0.13531 0.70849 0.0
C1263 C 0.07777 0.15906 0.71679 0.0
C1264 C 0.0591 0.15946 0.73844 0.0
C1265 C 0.10623 0.13447 0.68337 0.0
C1266 C 0.12867 0.14981 0.68414 0.0
C1267 C 0.10118 0.11823 0.65893 0.0
C1268 C 0.07692 0.10303 0.65585 0.0
C1269 C 0.05323 0.11547 0.65818 0.0
C1270 C 0.03048 0.10093 0.65652 0.0
C1271 C 0.03109 0.074 0.65177 0.0
C1272 C 0.05449 0.06155 0.64879 0.0
C1273 C 0.07735 0.07595 0.65083 0.0
H1274 H 0.01342 0.0628 0.65042 0.0
H1275 H 0.2325 0.20706 0.66977 0.0
H1276 H 0.24231 0.88169 0.09654 0.0
H1277 H 0.22093 0.8663 0.14113 0.0
H1278 H 0.15023 0.85767 0.09219 0.0
H1279 H 0.17171 0.8716 0.04761 0.0
H1280 H 0.18609 0.88944 0.16891 0.0
H1281 H 0.10976 0.81568 0.12099 0.0
H1282 H 0.10796 0.78001 0.08505 0.0
H1283 H 0.18888 0.7695 0.09466 0.0
H1284 H 0.19114 0.80483 0.13099 0.0
H1285 H 0.07072 0.89765 0.24088 0.0
H1286 H 0.10568 0.8951 0.20639 0.0
H1287 H 0.1179 0.81463 0.23177 0.0
H1288 H 0.08228 0.8168 0.26589 0.0
H1289 H 0.12045 0.81874 0.17521 0.0
H1290 H 0.16025 0.86303 0.25329 0.0
H1291 H 0.16522 0.89521 0.29284 0.0
H1292 H 0.1645 0.9579 0.22943 0.0
H1293 H 0.15908 0.9261 0.18946 0.0
C1294 C 0.22242 0.87567 0.09515 0.0
C1295 C 0.20864 0.87809 0.0686 0.0
C1296 C 0.21016 0.86709 0.1207 0.0
C1297 C 0.18395 0.86071 0.12012 0.0
C1298 C 0.17054 0.86197 0.09328 0.0
C1299 C 0.18278 0.8703 0.06779 0.0
C1300 C 0.16978 0.85549 0.14771 0.0
C1301 C 0.17197 0.87378 0.17041 0.0
C1302 C 0.15193 0.83454 0.15031 0.0
C1303 C 0.15063 0.81304 0.12866 0.0
C1304 C 0.12716 0.80566 0.11561 0.0
C1305 C 0.12606 0.78551 0.09511 0.0
C1306 C 0.1483 0.77253 0.08754 0.0
C1307 C 0.17168 0.77962 0.10049 0.0
C1308 C 0.17288 0.79974 0.121 0.0
C1309 C 0.08087 0.87941 0.23928 0.0
C1310 C 0.07367 0.85744 0.25619 0.0
C1311 C 0.101 0.87802 0.21963 0.0
C1312 C 0.11475 0.8548 0.2168 0.0
C1313 C 0.10762 0.83278 0.23361 0.0
C1314 C 0.08725 0.83406 0.2531 0.0
C1315 C 0.13586 0.85354 0.1954 0.0
C1316 C 0.13496 0.83405 0.17395 0.0
C1317 C 0.15551 0.87282 0.19447 0.0
C1318 C 0.15915 0.89214 0.21835 0.0
C1319 C 0.16102 0.88368 0.24776 0.0
C1320 C 0.16392 0.90187 0.27027 0.0
C1321 C 0.16516 0.9286 0.26367 0.0
C1322 C 0.16355 0.93719 0.23451 0.0
C1323 C 0.1606 0.91908 0.2119 0.0
H1324 H 0.16738 0.94264 0.28115 0.0
H1325 H 0.14741 0.75695 0.07165 0.0
H1326 H 0.77076 0.07618 0.59685 0.0
H1327 H 0.79678 0.09025 0.63897 0.0
H1328 H 0.83693 0.14557 0.58337 0.0
H1329 H 0.8117 0.13047 0.54108 0.0
H1330 H 0.86947 0.11814 0.61031 0.0
H1331 H 0.79678 0.16408 0.64206 0.0
H1332 H 0.75177 0.17104 0.65476 0.0
H1333 H 0.75733 0.11307 0.7233 0.0
H1334 H 0.80229 0.10547 0.71075 0.0
H1335 H 0.94291 0.17073 0.73035 0.0
H1336 H 0.90963 0.16813 0.69212 0.0
H1337 H 0.88255 0.09498 0.72889 0.0
H1338 H 0.91617 0.09705 0.76676 0.0
H1339 H 0.84311 0.13534 0.7123 0.0
H1340 H 0.91596 0.08828 0.67553 0.0
H1341 H 0.96052 0.08226 0.66026 0.0
H1342 H 0.95376 0.1465 0.59936 0.0
H1343 H 0.90931 0.1532 0.61463 0.0
C1344 C 0.78467 0.09185 0.59395 0.0
C1345 C 0.78932 0.10235 0.56596 0.0
C1346 C 0.79949 0.09997 0.618 0.0
C1347 C 0.81882 0.1191 0.61446 0.0
C1348 C 0.82224 0.13073 0.58669 0.0
C1349 C 0.80778 0.12225 0.56259 0.0
C1350 C 0.83747 0.12456 0.63858 0.0
C1351 C 0.86359 0.12252 0.63243 0.0
C1352 C 0.82995 0.12963 0.6677 0.0
C1353 C 0.80287 0.13405 0.67528 0.0
C1354 C 0.78835 0.15265 0.65968 0.0
C1355 C 0.76285 0.15674 0.66689 0.0
C1356 C 0.75168 0.14247 0.68978 0.0
C1357 C 0.766 0.1241 0.70555 0.0
C1358 C 0.79151 0.11991 0.69842 0.0
C1359 C 0.92974 0.1542 0.73042 0.0
C1360 C 0.93219 0.13402 0.75143 0.0
C1361 C 0.9108 0.15274 0.70858 0.0
C1362 C 0.89374 0.13137 0.70777 0.0
C1363 C 0.89557 0.11164 0.72927 0.0
C1364 C 0.91483 0.11279 0.75073 0.0
C1365 C 0.87473 0.12896 0.68369 0.0
C1366 C 0.84872 0.13141 0.68997 0.0
C1367 C 0.88228 0.12469 0.65454 0.0
C1368 C 0.90942 0.12146 0.64651 0.0
C1369 C 0.92411 0.10141 0.65926 0.0
C1370 C 0.94931 0.09779 0.6505 0.0
C1371 C 0.95994 0.11398 0.62885 0.0
C1372 C 0.9455 0.13398 0.61613 0.0
C1373 C 0.92032 0.13771 0.62484 0.0
H1374 H 0.97929 0.11094 0.62173 0.0
H1375 H 0.73194 0.14567 0.69533 0.0
loop_
_geom_bond_atom_site_label_1
_geom_bond_atom_site_label_2
_geom_bond_distance
_geom_bond_site_symmetry_2
_ccdc_geom_bond_type
H0 C3 0.929 . S
H1 C6 0.929 . S
H2 C8 0.930 . S
C3 H0 0.929 . S
C3 C4 1.398 . S
C3 C5 1.396 1_554 S
C4 C3 1.398 . S
C4 C8 1.407 . S
C5 C3 1.396 1_556 S
C5 C6 1.394 . S
C6 H1 0.929 . S
C6 C5 1.394 . S
C6 C7 1.382 1_556 S
C7 C6 1.382 1_554 S
C7 C8 1.392 . S
C7 N9 1.420 1_554 S
C8 H2 0.930 . S
C8 C4 1.407 . S
C8 C7 1.392 . S
N9 C7 1.420 1_556 S
N9 C10 1.244 . S
C10 N9 1.244 . S
H11 C14 0.929 . S
H12 C17 0.929 . S
H13 C19 0.930 . S
C14 H11 0.929 . S
C14 C15 1.398 . S
C14 C16 1.396 . S
C15 C14 1.398 . S
C15 C19 1.407 . S
C16 C14 1.396 . S
C16 C17 1.394 . S
C17 H12 0.929 . S
C17 C16 1.394 . S
C17 C18 1.382 . S
C18 C17 1.382 . S
C18 C19 1.392 . S
C18 N20 1.420 . S
C19 H13 0.930 . S
C19 C15 1.407 . S
C19 C18 1.392 . S
N20 C18 1.420 . S
N20 C21 1.244 . S
C21 N20 1.244 . S
H22 C25 0.929 . S
H23 C28 0.929 . S
H24 C30 0.930 . S
C25 H22 0.929 . S
C25 C26 1.398 . S
C25 C27 1.396 1_554 S
C26 C25 1.398 . S
C26 C30 1.407 . S
C27 C25 1.396 1_556 S
C27 C28 1.394 . S
C28 H23 0.929 . S
C28 C27 1.394 . S
C28 C29 1.382 1_556 S
C29 C28 1.382 1_554 S
C29 C30 1.392 . S
C29 N31 1.420 . S
C30 H24 0.930 . S
C30 C26 1.407 . S
C30 C29 1.392 . S
N31 C29 1.420 . S
N31 C32 1.244 1_554 S
C32 N31 1.244 1_556 S
H33 C36 0.929 . S
H34 C39 0.929 . S
H35 C41 0.930 . S
C36 H33 0.929 . S
C36 C37 1.398 . S
C36 C38 1.396 . S
C37 C36 1.398 . S
C37 C41 1.407 . S
C38 C36 1.396 . S
C38 C39 1.394 . S
C39 H34 0.929 . S
C39 C38 1.394 . S
C39 C40 1.382 . S
C40 C39 1.382 . S
C40 C41 1.392 . S
C40 N42 1.420 . S
C41 H35 0.930 . S
C41 C37 1.407 . S
C41 C40 1.392 . S
N42 C40 1.420 . S
N42 C43 1.244 . S
C43 N42 1.244 . S
H44 C47 0.929 . S
H45 C50 0.929 . S
H46 C52 0.930 . S
C47 H44 0.929 . S
C47 C48 1.398 . S
C47 C49 1.396 1_554 S
C48 C47 1.398 . S
C48 C52 1.407 . S
C49 C47 1.396 1_556 S
C49 C50 1.394 . S
C50 H45 0.929 . S
C50 C49 1.394 . S
C50 C51 1.382 1_556 S
C51 C50 1.382 1_554 S
C51 C52 1.392 . S
C51 N53 1.420 1_554 S
C52 H46 0.930 . S
C52 C48 1.407 . S
C52 C51 1.392 . S
N53 C51 1.420 1_556 S
N53 C54 1.244 . S
C54 N53 1.244 . S
H55 C58 0.929 . S
H56 C61 0.929 . S
H57 C63 0.930 . S
C58 H55 0.929 . S
C58 C59 1.398 . S
C58 C60 1.396 . S
C59 C58 1.398 . S
C59 C63 1.407 . S
C60 C58 1.396 . S
C60 C61 1.394 . S
C61 H56 0.929 . S
C61 C60 1.394 . S
C61 C62 1.382 . S
C62 C61 1.382 . S
C62 C63 1.392 . S
C62 N64 1.420 . S
C63 H57 0.930 . S
C63 C59 1.407 . S
C63 C62 1.392 . S
N64 C62 1.420 . S
N64 C65 1.244 . S
C65 N64 1.244 . S
H66 C69 0.929 . S
H67 C72 0.929 . S
H68 C74 0.930 . S
C69 H66 0.929 . S
C69 C70 1.398 . S
C69 C71 1.396 1_554 S
C70 C69 1.398 . S
C70 C74 1.407 . S
C71 C69 1.396 1_556 S
C71 C72 1.394 . S
C72 H67 0.929 . S
C72 C71 1.394 . S
C72 C73 1.382 1_556 S
C73 C72 1.382 1_554 S
C73 C74 1.392 . S
C73 N75 1.420 . S
C74 H68 0.930 . S
C74 C70 1.407 . S
C74 C73 1.392 . S
N75 C73 1.420 . S
N75 C76 1.244 1_554 S
C76 N75 1.244 1_556 S
H77 C80 0.929 . S
H78 C83 0.929 . S
H79 C85 0.930 . S
C80 H77 0.929 . S
C80 C81 1.398 . S
C80 C82 1.396 . S
C81 C80 1.398 . S
C81 C85 1.407 . S
C82 C80 1.396 . S
C82 C83 1.394 . S
C83 H78 0.929 . S
C83 C82 1.394 . S
C83 C84 1.382 . S
C84 C83 1.382 . S
C84 C85 1.392 . S
C84 N86 1.420 . S
C85 H79 0.930 . S
C85 C81 1.407 . S
C85 C84 1.392 . S
N86 C84 1.420 . S
N86 C87 1.244 . S
C87 N86 1.244 . S
Sc88 O91 2.025 . S
Sc88 O98 2.105 1_455 S
Sc88 O101 2.105 . S
Sc88 O104 2.105 . S
Sc88 O107 2.105 1_455 S
Sc89 O91 2.025 . S
Sc89 O99 2.105 1_455 S
Sc89 O103 2.105 . S
Sc89 O105 2.105 . S
Sc89 O109 2.105 1_455 S
Sc90 O91 2.025 . S
Sc90 O100 2.105 1_455 S
Sc90 O102 2.105 . S
Sc90 O106 2.105 . S
Sc90 O108 2.105 1_455 S
O91 Sc88 2.025 . S
O91 Sc89 2.025 . S
O91 Sc90 2.025 . S
C92 O98 1.268 . S
C92 O108 1.268 . S
C93 O99 1.268 . S
C93 O107 1.268 . S
C94 O100 1.268 . S
C94 O109 1.268 . S
C95 O101 1.268 . S
C95 O105 1.268 . S
C96 O102 1.268 . S
C96 O104 1.268 . S
C97 O103 1.268 . S
C97 O106 1.268 . S
O98 Sc88 2.105 1_655 S
O98 C92 1.268 . S
O99 Sc89 2.105 1_655 S
O99 C93 1.268 . S
O100 Sc90 2.105 1_655 S
O100 C94 1.268 . S
O101 Sc88 2.105 . S
O101 C95 1.268 . S
O102 Sc90 2.105 . S
O102 C96 1.268 . S
O103 Sc89 2.105 . S
O103 C97 1.268 . S
O104 Sc88 2.105 . S
O104 C96 1.268 . S
O105 Sc89 2.105 . S
O105 C95 1.268 . S
O106 Sc90 2.105 . S
O106 C97 1.268 . S
O107 Sc88 2.105 1_655 S
O107 C93 1.268 . S
O108 Sc90 2.105 1_655 S
O108 C92 1.268 . S
O109 Sc89 2.105 1_655 S
O109 C94 1.268 . S
Sc110 O113 2.025 . S
Sc110 O120 2.105 . S
Sc110 O123 2.105 1_455 S
Sc110 O126 2.105 1_455 S
Sc110 O129 2.105 . S
Sc111 O113 2.025 . S
Sc111 O121 2.105 . S
Sc111 O125 2.105 1_455 S
Sc111 O127 2.105 1_455 S
Sc111 O131 2.105 . S
Sc112 O113 2.025 . S
Sc112 O122 2.105 . S
Sc112 O124 2.105 1_455 S
Sc112 O128 2.105 1_455 S
Sc112 O130 2.105 . S
O113 Sc110 2.025 . S
O113 Sc111 2.025 . S
O113 Sc112 2.025 . S
C114 O120 1.268 . S
C114 O130 1.268 . S
C115 O121 1.268 . S
C115 O129 1.268 . S
C116 O122 1.268 . S
C116 O131 1.268 . S
C117 O123 1.268 . S
C117 O127 1.268 . S
C118 O124 1.268 . S
C118 O126 1.268 . S
C119 O125 1.268 . S
C119 O128 1.268 . S
O120 Sc110 2.105 . S
O120 C114 1.268 . S
O121 Sc111 2.105 . S
O121 C115 1.268 . S
O122 Sc112 2.105 . S
O122 C116 1.268 . S
O123 Sc110 2.105 1_655 S
O123 C117 1.268 . S
O124 Sc112 2.105 1_655 S
O124 C118 1.268 . S
O125 Sc111 2.105 1_655 S
O125 C119 1.268 . S
O126 Sc110 2.105 1_655 S
O126 C118 1.268 . S
O127 Sc111 2.105 1_655 S
O127 C117 1.268 . S
O128 Sc112 2.105 1_655 S
O128 C119 1.268 . S
O129 Sc110 2.105 . S
O129 C115 1.268 . S
O130 Sc112 2.105 . S
O130 C114 1.268 . S
O131 Sc111 2.105 . S
O131 C116 1.268 . S
Sc132 O135 2.025 . S
Sc132 O142 2.105 . S
Sc132 O145 2.105 . S
Sc132 O148 2.105 . S
Sc132 O151 2.105 . S
Sc133 O135 2.025 . S
Sc133 O143 2.105 . S
Sc133 O147 2.105 . S
Sc133 O149 2.105 . S
Sc133 O153 2.105 . S
Sc134 O135 2.025 . S
Sc134 O144 2.105 . S
Sc134 O146 2.105 . S
Sc134 O150 2.105 . S
Sc134 O152 2.105 . S
O135 Sc132 2.025 . S
O135 Sc133 2.025 . S
O135 Sc134 2.025 . S
C136 O142 1.268 . S
C136 O152 1.268 . S
C137 O143 1.268 . S
C137 O151 1.268 . S
C138 O144 1.268 . S
C138 O153 1.268 . S
C139 O145 1.268 . S
C139 O149 1.268 . S
C140 O146 1.268 . S
C140 O148 1.268 . S
C141 O147 1.268 . S
C141 O150 1.268 . S
O142 Sc132 2.105 . S
O142 C136 1.268 . S
O143 Sc133 2.105 . S
O143 C137 1.268 . S
O144 Sc134 2.105 . S
O144 C138 1.268 . S
O145 Sc132 2.105 . S
O145 C139 1.268 . S
O146 Sc134 2.105 . S
O146 C140 1.268 . S
O147 Sc133 2.105 . S
O147 C141 1.268 . S
O148 Sc132 2.105 . S
O148 C140 1.268 . S
O149 Sc133 2.105 . S
O149 C139 1.268 . S
O150 Sc134 2.105 . S
O150 C141 1.268 . S
O151 Sc132 2.105 . S
O151 C137 1.268 . S
O152 Sc134 2.105 . S
O152 C136 1.268 . S
O153 Sc133 2.105 . S
O153 C138 1.268 . S
Sc154 O157 2.025 . S
Sc154 O164 2.105 . S
Sc154 O167 2.105 . S
Sc154 O170 2.105 . S
Sc154 O173 2.105 . S
Sc155 O157 2.025 . S
Sc155 O165 2.105 . S
Sc155 O169 2.105 . S
Sc155 O171 2.105 . S
Sc155 O175 2.105 . S
Sc156 O157 2.025 . S
Sc156 O166 2.105 . S
Sc156 O168 2.105 . S
Sc156 O172 2.105 . S
Sc156 O174 2.105 . S
O157 Sc154 2.025 . S
O157 Sc155 2.025 . S
O157 Sc156 2.025 . S
C158 O164 1.268 . S
C158 O174 1.268 . S
C159 O165 1.268 . S
C159 O173 1.268 . S
C160 O166 1.268 . S
C160 O175 1.268 . S
C161 O167 1.268 . S
C161 O171 1.268 . S
C162 O168 1.268 . S
C162 O170 1.268 . S
C163 O169 1.268 . S
C163 O172 1.268 . S
O164 Sc154 2.105 . S
O164 C158 1.268 . S
O165 Sc155 2.105 . S
O165 C159 1.268 . S
O166 Sc156 2.105 . S
O166 C160 1.268 . S
O167 Sc154 2.105 . S
O167 C161 1.268 . S
O168 Sc156 2.105 . S
O168 C162 1.268 . S
O169 Sc155 2.105 . S
O169 C163 1.268 . S
O170 Sc154 2.105 . S
O170 C162 1.268 . S
O171 Sc155 2.105 . S
O171 C161 1.268 . S
O172 Sc156 2.105 . S
O172 C163 1.268 . S
O173 Sc154 2.105 . S
O173 C159 1.268 . S
O174 Sc156 2.105 . S
O174 C158 1.268 . S
O175 Sc155 2.105 . S
O175 C160 1.268 . S
H176 C194 0.951 1_554 S
H177 C196 0.951 . S
H178 C198 0.950 . S
H179 C199 0.950 . S
H180 C201 0.950 . S
H181 C204 0.950 . S
H182 C205 0.950 . S
H183 C207 0.953 . S
H184 C208 0.950 . S
H185 C209 0.951 . S
H186 C211 0.951 . S
H187 C213 0.950 . S
H188 C214 0.950 . S
H189 C216 0.950 . S
H190 C219 0.950 . S
H191 C220 0.950 . S
H192 C222 0.950 . S
H193 C223 0.950 . S
C194 H176 0.951 1_556 S
C194 C195 1.366 . S
C194 C196 1.388 . S
C195 C194 1.366 . S
C195 C199 1.385 . S
C196 H177 0.951 . S
C196 C194 1.388 . S
C196 C197 1.366 . S
C197 C196 1.366 . S
C197 C198 1.414 . S
C197 C200 1.499 . S
C198 H178 0.950 . S
C198 C197 1.414 . S
C198 C199 1.374 . S
C199 H179 0.950 . S
C199 C195 1.385 . S
C199 C198 1.374 . S
C200 C197 1.499 . S
C200 C201 1.373 . S
C200 C202 1.389 . S
C201 H180 0.950 . S
C201 C200 1.373 . S
C201 C217 1.377 . S
C202 C200 1.389 . S
C202 C203 1.524 . S
C202 C216 1.377 . S
C203 C202 1.524 . S
C203 C204 1.397 . S
C203 C208 1.363 . S
C204 H181 0.950 . S
C204 C203 1.397 . S
C204 C205 1.334 . S
C205 H182 0.950 . S
C205 C204 1.334 . S
C205 C206 1.287 . S
C206 C205 1.287 . S
C206 C207 1.523 1_556 S
C206 H225 0.936 . S
C207 H183 0.953 . S
C207 C206 1.523 1_554 S
C207 C208 1.413 1_554 S
C208 H184 0.950 . S
C208 C203 1.363 . S
C208 C207 1.413 1_556 S
C209 H185 0.951 . S
C209 C210 1.366 . S
C209 C211 1.388 . S
C210 C209 1.366 . S
C210 C214 1.385 . S
C211 H186 0.951 . S
C211 C209 1.388 . S
C211 C212 1.366 . S
C212 C211 1.366 . S
C212 C213 1.414 . S
C212 C215 1.499 . S
C213 H187 0.950 . S
C213 C212 1.414 . S
C213 C214 1.374 . S
C214 H188 0.950 . S
C214 C210 1.385 . S
C214 C213 1.374 . S
C215 C212 1.499 . S
C215 C216 1.373 . S
C215 C217 1.389 . S
C216 H189 0.950 . S
C216 C202 1.377 . S
C216 C215 1.373 . S
C217 C201 1.377 . S
C217 C215 1.389 . S
C217 C218 1.524 . S
C218 C217 1.524 . S
C218 C219 1.397 . S
C218 C223 1.363 . S
C219 H190 0.950 . S
C219 C218 1.397 . S
C219 C220 1.334 . S
C220 H191 0.950 . S
C220 C219 1.334 . S
C220 C221 1.287 . S
C221 C220 1.287 . S
C221 C222 1.524 . S
C221 H224 0.999 . S
C222 H192 0.950 . S
C222 C221 1.524 . S
C222 C223 1.415 . S
C223 H193 0.950 . S
C223 C218 1.363 . S
C223 C222 1.415 . S
H224 C221 0.999 . S
H225 C206 0.936 . S
H226 C244 0.951 . S
H227 C246 0.951 . S
H228 C248 0.950 . S
H229 C249 0.950 . S
H230 C251 0.950 . S
H231 C254 0.950 . S
H232 C255 0.950 . S
H233 C257 0.950 . S
H234 C258 0.950 . S
H235 C259 0.951 . S
H236 C261 0.951 . S
H237 C263 0.950 . S
H238 C264 0.950 . S
H239 C266 0.950 . S
H240 C269 0.950 . S
H241 C270 0.950 . S
H242 C272 0.950 . S
H243 C273 0.950 . S
C244 H226 0.951 . S
C244 C245 1.366 . S
C244 C246 1.388 . S
C245 C244 1.366 . S
C245 C249 1.385 . S
C246 H227 0.951 . S
C246 C244 1.388 . S
C246 C247 1.366 . S
C247 C246 1.366 . S
C247 C248 1.414 . S
C247 C250 1.499 . S
C248 H228 0.950 . S
C248 C247 1.414 . S
C248 C249 1.374 . S
C249 H229 0.950 . S
C249 C245 1.385 . S
C249 C248 1.374 . S
C250 C247 1.499 . S
C250 C251 1.373 . S
C250 C252 1.389 . S
C251 H230 0.950 . S
C251 C250 1.373 . S
C251 C267 1.377 . S
C252 C250 1.389 . S
C252 C253 1.524 . S
C252 C266 1.377 . S
C253 C252 1.524 . S
C253 C254 1.397 . S
C253 C258 1.363 . S
C254 H231 0.950 . S
C254 C253 1.397 . S
C254 C255 1.334 . S
C255 H232 0.950 . S
C255 C254 1.334 . S
C255 C256 1.287 . S
C256 C255 1.287 . S
C256 C257 1.524 . S
C256 H275 0.913 . S
C257 H233 0.950 . S
C257 C256 1.524 . S
C257 C258 1.415 . S
C258 H234 0.950 . S
C258 C253 1.363 . S
C258 C257 1.415 . S
C259 H235 0.951 . S
C259 C260 1.366 . S
C259 C261 1.388 . S
C260 C259 1.366 . S
C260 C264 1.385 . S
C261 H236 0.951 . S
C261 C259 1.388 . S
C261 C262 1.366 . S
C262 C261 1.366 . S
C262 C263 1.414 . S
C262 C265 1.499 . S
C263 H237 0.950 . S
C263 C262 1.414 . S
C263 C264 1.374 . S
C264 H238 0.950 . S
C264 C260 1.385 . S
C264 C263 1.374 . S
C265 C262 1.499 . S
C265 C266 1.373 . S
C265 C267 1.389 . S
C266 H239 0.950 . S
C266 C252 1.377 . S
C266 C265 1.373 . S
C267 C251 1.377 . S
C267 C265 1.389 . S
C267 C268 1.524 . S
C268 C267 1.524 . S
C268 C269 1.397 . S
C268 C273 1.363 . S
C269 H240 0.950 . S
C269 C268 1.397 . S
C269 C270 1.334 . S
C270 H241 0.950 . S
C270 C269 1.334 . S
C270 C271 1.287 . S
C271 C270 1.287 . S
C271 C272 1.524 . S
C271 H274 0.999 . S
C272 H242 0.950 . S
C272 C271 1.524 . S
C272 C273 1.415 . S
C273 H243 0.950 . S
C273 C268 1.363 . S
C273 C272 1.415 . S
H274 C271 0.999 . S
H275 C256 0.913 . S
H276 C294 0.951 1_554 S
H277 C296 0.951 . S
H278 C298 0.950 . S
H279 C299 0.950 . S
H280 C301 0.950 . S
H281 C304 0.950 . S
H282 C305 0.950 . S
H283 C307 0.950 . S
H284 C308 0.950 . S
H285 C309 0.951 . S
H286 C311 0.951 . S
H287 C313 0.950 . S
H288 C314 0.950 . S
H289 C316 0.950 . S
H290 C319 0.950 . S
H291 C320 0.950 . S
H292 C322 0.950 . S
H293 C323 0.950 . S
C294 H276 0.951 1_556 S
C294 C295 1.366 . S
C294 C296 1.388 . S
C295 C294 1.366 . S
C295 C299 1.385 . S
C296 H277 0.951 . S
C296 C294 1.388 . S
C296 C297 1.366 . S
C297 C296 1.366 . S
C297 C298 1.414 . S
C297 C300 1.499 . S
C298 H278 0.950 . S
C298 C297 1.414 . S
C298 C299 1.374 . S
C299 H279 0.950 . S
C299 C295 1.385 . S
C299 C298 1.374 . S
C300 C297 1.499 . S
C300 C301 1.373 . S
C300 C302 1.389 . S
C301 H280 0.950 . S
C301 C300 1.373 . S
C301 C317 1.377 . S
C302 C300 1.389 . S
C302 C303 1.524 . S
C302 C316 1.377 . S
C303 C302 1.524 . S
C303 C304 1.397 . S
C303 C308 1.363 . S
C304 H281 0.950 . S
C304 C303 1.397 . S
C304 C305 1.334 . S
C305 H282 0.950 . S
C305 C304 1.334 . S
C305 C306 1.287 . S
C306 C305 1.287 . S
C306 C307 1.524 . S
C306 H325 0.913 . S
C307 H283 0.950 . S
C307 C306 1.524 . S
C307 C308 1.415 . S
C308 H284 0.950 . S
C308 C303 1.363 . S
C308 C307 1.415 . S
C309 H285 0.951 . S
C309 C310 1.366 . S
C309 C311 1.388 . S
C310 C309 1.366 . S
C310 C314 1.385 . S
C311 H286 0.951 . S
C311 C309 1.388 . S
C311 C312 1.366 . S
C312 C311 1.366 . S
C312 C313 1.414 . S
C312 C315 1.499 . S
C313 H287 0.950 . S
C313 C312 1.414 . S
C313 C314 1.374 . S
C314 H288 0.950 . S
C314 C310 1.385 . S
C314 C313 1.374 . S
C315 C312 1.499 . S
C315 C316 1.373 . S
C315 C317 1.389 . S
C316 H289 0.950 . S
C316 C302 1.377 . S
C316 C315 1.373 . S
C317 C301 1.377 . S
C317 C315 1.389 . S
C317 C318 1.524 . S
C318 C317 1.524 . S
C318 C319 1.397 . S
C318 C323 1.363 . S
C319 H290 0.950 . S
C319 C318 1.397 . S
C319 C320 1.334 . S
C320 H291 0.950 . S
C320 C319 1.334 . S
C320 C321 1.287 . S
C321 C320 1.287 . S
C321 C322 1.524 . S
C321 H324 0.999 . S
C322 H292 0.950 . S
C322 C321 1.524 . S
C322 C323 1.415 . S
C323 H293 0.950 . S
C323 C318 1.363 . S
C323 C322 1.415 . S
H324 C321 0.999 . S
H325 C306 0.913 . S
H326 C344 0.951 . S
H327 C346 0.951 . S
H328 C348 0.950 . S
H329 C349 0.950 . S
H330 C351 0.950 . S
H331 C354 0.950 . S
H332 C355 0.950 . S
H333 C357 0.950 . S
H334 C358 0.950 . S
H335 C359 0.951 . S
H336 C361 0.951 . S
H337 C363 0.950 . S
H338 C364 0.950 . S
H339 C366 0.950 . S
H340 C369 0.950 . S
H341 C370 0.950 . S
H342 C372 0.950 . S
H343 C373 0.950 . S
C344 H326 0.951 . S
C344 C345 1.366 . S
C344 C346 1.388 . S
C345 C344 1.366 . S
C345 C349 1.385 . S
C346 H327 0.951 . S
C346 C344 1.388 . S
C346 C347 1.366 . S
C347 C346 1.366 . S
C347 C348 1.414 . S
C347 C350 1.499 . S
C348 H328 0.950 . S
C348 C347 1.414 . S
C348 C349 1.374 . S
C349 H329 0.950 . S
C349 C345 1.385 . S
C349 C348 1.374 . S
C350 C347 1.499 . S
C350 C351 1.373 . S
C350 C352 1.389 . S
C351 H330 0.950 . S
C351 C350 1.373 . S
C351 C367 1.377 . S
C352 C350 1.389 . S
C352 C353 1.524 . S
C352 C366 1.377 . S
C353 C352 1.524 . S
C353 C354 1.397 . S
C353 C358 1.363 . S
C354 H331 0.950 . S
C354 C353 1.397 . S
C354 C355 1.334 . S
C355 H332 0.950 . S
C355 C354 1.334 . S
C355 C356 1.287 . S
C356 C355 1.287 . S
C356 C357 1.524 . S
C356 H375 0.913 . S
C357 H333 0.950 . S
C357 C356 1.524 . S
C357 C358 1.415 . S
C358 H334 0.950 . S
C358 C353 1.363 . S
C358 C357 1.415 . S
C359 H335 0.951 . S
C359 C360 1.366 . S
C359 C361 1.388 . S
C360 C359 1.366 . S
C360 C364 1.385 . S
C361 H336 0.951 . S
C361 C359 1.388 . S
C361 C362 1.366 . S
C362 C361 1.366 . S
C362 C363 1.414 . S
C362 C365 1.499 . S
C363 H337 0.950 . S
C363 C362 1.414 . S
C363 C364 1.374 . S
C364 H338 0.950 . S
C364 C360 1.385 . S
C364 C363 1.374 . S
C365 C362 1.499 . S
C365 C366 1.373 . S
C365 C367 1.389 . S
C366 H339 0.950 . S
C366 C352 1.377 . S
C366 C365 1.373 . S
C367 C351 1.377 . S
C367 C365 1.389 . S
C367 C368 1.524 . S
C368 C367 1.524 . S
C368 C369 1.397 . S
C368 C373 1.363 . S
C369 H340 0.950 . S
C369 C368 1.397 . S
C369 C370 1.334 . S
C370 H341 0.950 . S
C370 C369 1.334 . S
C370 C371 1.287 . S
C371 C370 1.287 . S
C371 C372 1.524 . S
C371 H374 0.999 . S
C372 H342 0.950 . S
C372 C371 1.524 . S
C372 C373 1.415 . S
C373 H343 0.950 . S
C373 C368 1.363 . S
C373 C372 1.415 . S
H374 C371 0.999 . S
H375 C356 0.913 . S
H376 C394 0.951 . S
H377 C396 0.951 . S
H378 C398 0.950 . S
H379 C399 0.950 1_554 S
H380 C401 0.950 . S
H381 C404 0.950 . S
H382 C405 0.950 . S
H383 C407 0.950 . S
H384 C408 0.950 . S
H385 C409 0.951 . S
H386 C411 0.951 . S
H387 C413 0.950 . S
H388 C414 0.950 . S
H389 C416 0.950 . S
H390 C419 0.950 . S
H391 C420 0.950 . S
H392 C422 0.950 . S
H393 C423 0.950 . S
C394 H376 0.951 . S
C394 C395 1.366 . S
C394 C396 1.388 . S
C395 C394 1.366 . S
C395 C399 1.385 . S
C396 H377 0.951 . S
C396 C394 1.388 . S
C396 C397 1.366 . S
C397 C396 1.366 . S
C397 C398 1.414 . S
C397 C400 1.499 . S
C398 H378 0.950 . S
C398 C397 1.414 . S
C398 C399 1.374 . S
C399 H379 0.950 1_556 S
C399 C395 1.385 . S
C399 C398 1.374 . S
C400 C397 1.499 . S
C400 C401 1.373 . S
C400 C402 1.389 . S
C401 H380 0.950 . S
C401 C400 1.373 . S
C401 C417 1.377 . S
C402 C400 1.389 . S
C402 C403 1.524 . S
C402 C416 1.377 . S
C403 C402 1.524 . S
C403 C404 1.397 . S
C403 C408 1.363 . S
C404 H381 0.950 . S
C404 C403 1.397 . S
C404 C405 1.334 . S
C405 H382 0.950 . S
C405 C404 1.334 . S
C405 C406 1.287 . S
C406 C405 1.287 . S
C406 C407 1.524 . S
C406 H425 0.913 . S
C407 H383 0.950 . S
C407 C406 1.524 . S
C407 C408 1.415 . S
C408 H384 0.950 . S
C408 C403 1.363 . S
C408 C407 1.415 . S
C409 H385 0.951 . S
C409 C410 1.366 . S
C409 C411 1.388 . S
C410 C409 1.366 . S
C410 C414 1.385 . S
C411 H386 0.951 . S
C411 C409 1.388 . S
C411 C412 1.366 . S
C412 C411 1.366 . S
C412 C413 1.414 . S
C412 C415 1.499 . S
C413 H387 0.950 . S
C413 C412 1.414 . S
C413 C414 1.374 . S
C414 H388 0.950 . S
C414 C410 1.385 . S
C414 C413 1.374 . S
C415 C412 1.499 . S
C415 C416 1.373 . S
C415 C417 1.389 . S
C416 H389 0.950 . S
C416 C402 1.377 . S
C416 C415 1.373 . S
C417 C401 1.377 . S
C417 C415 1.389 . S
C417 C418 1.524 . S
C418 C417 1.524 . S
C418 C419 1.397 . S
C418 C423 1.363 . S
C419 H390 0.950 . S
C419 C418 1.397 . S
C419 C420 1.334 . S
C420 H391 0.950 . S
C420 C419 1.334 . S
C420 C421 1.287 . S
C421 C420 1.287 . S
C421 C422 1.524 1_556 S
C421 H424 0.999 1_556 S
C422 H392 0.950 . S
C422 C421 1.524 1_554 S
C422 C423 1.415 1_554 S
C423 H393 0.950 . S
C423 C418 1.363 . S
C423 C422 1.415 1_556 S
H424 C421 0.999 1_554 S
H425 C406 0.913 . S
H426 C444 0.951 . S
H427 C446 0.951 . S
H428 C448 0.950 . S
H429 C449 0.950 . S
H430 C451 0.950 . S
H431 C454 0.950 . S
H432 C455 0.950 . S
H433 C457 0.950 . S
H434 C458 0.950 . S
H435 C459 0.951 . S
H436 C461 0.951 . S
H437 C463 0.950 . S
H438 C464 0.950 . S
H439 C466 0.950 . S
H440 C469 0.950 . S
H441 C470 0.950 . S
H442 C472 0.950 . S
H443 C473 0.950 . S
C444 H426 0.951 . S
C444 C445 1.366 . S
C444 C446 1.388 . S
C445 C444 1.366 . S
C445 C449 1.385 . S
C446 H427 0.951 . S
C446 C444 1.388 . S
C446 C447 1.366 . S
C447 C446 1.366 . S
C447 C448 1.414 . S
C447 C450 1.499 . S
C448 H428 0.950 . S
C448 C447 1.414 . S
C448 C449 1.374 . S
C449 H429 0.950 . S
C449 C445 1.385 . S
C449 C448 1.374 . S
C450 C447 1.499 . S
C450 C451 1.373 . S
C450 C452 1.389 . S
C451 H430 0.950 . S
C451 C450 1.373 . S
C451 C467 1.377 . S
C452 C450 1.389 . S
C452 C453 1.524 . S
C452 C466 1.377 . S
C453 C452 1.524 . S
C453 C454 1.397 . S
C453 C458 1.363 . S
C454 H431 0.950 . S
C454 C453 1.397 . S
C454 C455 1.334 . S
C455 H432 0.950 . S
C455 C454 1.334 . S
C455 C456 1.287 . S
C456 C455 1.287 . S
C456 C457 1.524 . S
C456 H475 0.913 . S
C457 H433 0.950 . S
C457 C456 1.524 . S
C457 C458 1.415 . S
C458 H434 0.950 . S
C458 C453 1.363 . S
C458 C457 1.415 . S
C459 H435 0.951 . S
C459 C460 1.366 . S
C459 C461 1.388 . S
C460 C459 1.366 . S
C460 C464 1.385 . S
C461 H436 0.951 . S
C461 C459 1.388 . S
C461 C462 1.366 . S
C462 C461 1.366 . S
C462 C463 1.414 . S
C462 C465 1.499 . S
C463 H437 0.950 . S
C463 C462 1.414 . S
C463 C464 1.374 . S
C464 H438 0.950 . S
C464 C460 1.385 . S
C464 C463 1.374 . S
C465 C462 1.499 . S
C465 C466 1.373 . S
C465 C467 1.389 . S
C466 H439 0.950 . S
C466 C452 1.377 . S
C466 C465 1.373 . S
C467 C451 1.377 . S
C467 C465 1.389 . S
C467 C468 1.524 . S
C468 C467 1.524 . S
C468 C469 1.397 . S
C468 C473 1.363 . S
C469 H440 0.950 . S
C469 C468 1.397 . S
C469 C470 1.334 . S
C470 H441 0.950 . S
C470 C469 1.334 . S
C470 C471 1.287 . S
C471 C470 1.287 . S
C471 C472 1.524 . S
C471 H474 0.999 . S
C472 H442 0.950 . S
C472 C471 1.524 . S
C472 C473 1.415 . S
C473 H443 0.950 . S
C473 C468 1.363 . S
C473 C472 1.415 . S
H474 C471 0.999 . S
H475 C456 0.913 . S
H476 C494 0.951 1_554 S
H477 C496 0.951 . S
H478 C498 0.950 . S
H479 C499 0.950 . S
H480 C501 0.950 . S
H481 C504 0.950 . S
H482 C505 0.950 . S
H483 C507 0.950 . S
H484 C508 0.950 . S
H485 C509 0.951 . S
H486 C511 0.951 . S
H487 C513 0.950 . S
H488 C514 0.950 . S
H489 C516 0.950 . S
H490 C519 0.950 . S
H491 C520 0.950 . S
H492 C522 0.950 . S
H493 C523 0.950 . S
C494 H476 0.951 1_556 S
C494 C495 1.366 . S
C494 C496 1.388 . S
C495 C494 1.366 . S
C495 C499 1.385 . S
C496 H477 0.951 . S
C496 C494 1.388 . S
C496 C497 1.366 . S
C497 C496 1.366 . S
C497 C498 1.414 . S
C497 C500 1.499 . S
C498 H478 0.950 . S
C498 C497 1.414 . S
C498 C499 1.374 . S
C499 H479 0.950 . S
C499 C495 1.385 . S
C499 C498 1.374 . S
C500 C497 1.499 . S
C500 C501 1.373 . S
C500 C502 1.389 . S
C501 H480 0.950 . S
C501 C500 1.373 . S
C501 C517 1.377 . S
C502 C500 1.389 . S
C502 C503 1.524 . S
C502 C516 1.377 . S
C503 C502 1.524 . S
C503 C504 1.397 . S
C503 C508 1.363 . S
C504 H481 0.950 . S
C504 C503 1.397 . S
C504 C505 1.334 . S
C505 H482 0.950 . S
C505 C504 1.334 . S
C505 C506 1.287 . S
C506 C505 1.287 . S
C506 C507 1.524 . S
C506 H525 0.913 . S
C507 H483 0.950 . S
C507 C506 1.524 . S
C507 C508 1.415 . S
C508 H484 0.950 . S
C508 C503 1.363 . S
C508 C507 1.415 . S
C509 H485 0.951 . S
C509 C510 1.366 . S
C509 C511 1.388 . S
C510 C509 1.366 . S
C510 C514 1.385 . S
C511 H486 0.951 . S
C511 C509 1.388 . S
C511 C512 1.366 . S
C512 C511 1.366 . S
C512 C513 1.414 . S
C512 C515 1.499 . S
C513 H487 0.950 . S
C513 C512 1.414 . S
C513 C514 1.374 . S
C514 H488 0.950 . S
C514 C510 1.385 . S
C514 C513 1.374 . S
C515 C512 1.499 . S
C515 C516 1.373 . S
C515 C517 1.389 . S
C516 H489 0.950 . S
C516 C502 1.377 . S
C516 C515 1.373 . S
C517 C501 1.377 . S
C517 C515 1.389 . S
C517 C518 1.524 . S
C518 C517 1.524 . S
C518 C519 1.397 . S
C518 C523 1.363 . S
C519 H490 0.950 . S
C519 C518 1.397 . S
C519 C520 1.334 . S
C520 H491 0.950 . S
C520 C519 1.334 . S
C520 C521 1.287 . S
C521 C520 1.287 . S
C521 C522 1.524 . S
C521 H524 0.999 . S
C522 H492 0.950 . S
C522 C521 1.524 . S
C522 C523 1.415 . S
C523 H493 0.950 . S
C523 C518 1.363 . S
C523 C522 1.415 . S
H524 C521 0.999 . S
H525 C506 0.913 . S
H526 C544 0.951 . S
H527 C546 0.951 . S
H528 C548 0.950 . S
H529 C549 0.950 . S
H530 C551 0.950 . S
H531 C554 0.950 . S
H532 C555 0.950 . S
H533 C557 0.950 . S
H534 C558 0.950 . S
H535 C559 0.951 . S
H536 C561 0.951 . S
H537 C563 0.950 . S
H538 C564 0.950 . S
H539 C566 0.950 . S
H540 C569 0.950 . S
H541 C570 0.950 . S
H542 C572 0.950 . S
H543 C573 0.950 . S
C544 H526 0.951 . S
C544 C545 1.366 . S
C544 C546 1.388 . S
C545 C544 1.366 . S
C545 C549 1.385 . S
C546 H527 0.951 . S
C546 C544 1.388 . S
C546 C547 1.366 . S
C547 C546 1.366 . S
C547 C548 1.414 . S
C547 C550 1.499 . S
C548 H528 0.950 . S
C548 C547 1.414 . S
C548 C549 1.374 . S
C549 H529 0.950 . S
C549 C545 1.385 . S
C549 C548 1.374 . S
C550 C547 1.499 . S
C550 C551 1.373 . S
C550 C552 1.389 . S
C551 H530 0.950 . S
C551 C550 1.373 . S
C551 C567 1.377 . S
C552 C550 1.389 . S
C552 C553 1.524 . S
C552 C566 1.377 . S
C553 C552 1.524 . S
C553 C554 1.397 . S
C553 C558 1.363 . S
C554 H531 0.950 . S
C554 C553 1.397 . S
C554 C555 1.334 . S
C555 H532 0.950 . S
C555 C554 1.334 . S
C555 C556 1.287 . S
C556 C555 1.287 . S
C556 C557 1.524 . S
C556 H575 0.913 . S
C557 H533 0.950 . S
C557 C556 1.524 . S
C557 C558 1.415 . S
C558 H534 0.950 . S
C558 C553 1.363 . S
C558 C557 1.415 . S
C559 H535 0.951 . S
C559 C560 1.366 . S
C559 C561 1.388 . S
C560 C559 1.366 . S
C560 C564 1.385 . S
C561 H536 0.951 . S
C561 C559 1.388 . S
C561 C562 1.366 . S
C562 C561 1.366 . S
C562 C563 1.414 . S
C562 C565 1.499 . S
C563 H537 0.950 . S
C563 C562 1.414 . S
C563 C564 1.374 . S
C564 H538 0.950 . S
C564 C560 1.385 . S
C564 C563 1.374 . S
C565 C562 1.499 . S
C565 C566 1.373 . S
C565 C567 1.389 . S
C566 H539 0.950 . S
C566 C552 1.377 . S
C566 C565 1.373 . S
C567 C551 1.377 . S
C567 C565 1.389 . S
C567 C568 1.524 . S
C568 C567 1.524 . S
C568 C569 1.397 . S
C568 C573 1.363 . S
C569 H540 0.950 . S
C569 C568 1.397 . S
C569 C570 1.334 . S
C570 H541 0.950 . S
C570 C569 1.334 . S
C570 C571 1.287 . S
C571 C570 1.287 . S
C571 C572 1.524 . S
C571 H574 0.999 . S
C572 H542 0.950 . S
C572 C571 1.524 . S
C572 C573 1.415 . S
C573 H543 0.950 . S
C573 C568 1.363 . S
C573 C572 1.415 . S
H574 C571 0.999 . S
H575 C556 0.913 . S
H576 C594 0.951 . S
H577 C596 0.951 . S
H578 C598 0.950 . S
H579 C599 0.950 1_554 S
H580 C601 0.950 . S
H581 C604 0.950 . S
H582 C605 0.950 . S
H583 C607 0.950 . S
H584 C608 0.950 . S
H585 C609 0.951 . S
H586 C611 0.951 . S
H587 C613 0.950 . S
H588 C614 0.950 . S
H589 C616 0.950 . S
H590 C619 0.950 . S
H591 C620 0.950 . S
H592 C622 0.950 . S
H593 C623 0.950 . S
C594 H576 0.951 . S
C594 C595 1.366 . S
C594 C596 1.388 . S
C595 C594 1.366 . S
C595 C599 1.385 . S
C596 H577 0.951 . S
C596 C594 1.388 . S
C596 C597 1.366 . S
C597 C596 1.366 . S
C597 C598 1.414 . S
C597 C600 1.499 . S
C598 H578 0.950 . S
C598 C597 1.414 . S
C598 C599 1.374 . S
C599 H579 0.950 1_556 S
C599 C595 1.385 . S
C599 C598 1.374 . S
C600 C597 1.499 . S
C600 C601 1.373 . S
C600 C602 1.389 . S
C601 H580 0.950 . S
C601 C600 1.373 . S
C601 C617 1.377 . S
C602 C600 1.389 . S
C602 C603 1.524 . S
C602 C616 1.377 . S
C603 C602 1.524 . S
C603 C604 1.397 . S
C603 C608 1.363 . S
C604 H581 0.950 . S
C604 C603 1.397 . S
C604 C605 1.334 . S
C605 H582 0.950 . S
C605 C604 1.334 . S
C605 C606 1.287 . S
C606 C605 1.287 . S
C606 C607 1.524 . S
C606 H625 0.913 . S
C607 H583 0.950 . S
C607 C606 1.524 . S
C607 C608 1.415 . S
C608 H584 0.950 . S
C608 C603 1.363 . S
C608 C607 1.415 . S
C609 H585 0.951 . S
C609 C610 1.366 . S
C609 C611 1.388 . S
C610 C609 1.366 . S
C610 C614 1.385 . S
C611 H586 0.951 . S
C611 C609 1.388 . S
C611 C612 1.366 . S
C612 C611 1.366 . S
C612 C613 1.414 . S
C612 C615 1.499 . S
C613 H587 0.950 . S
C613 C612 1.414 . S
C613 C614 1.374 . S
C614 H588 0.950 . S
C614 C610 1.385 . S
C614 C613 1.374 . S
C615 C612 1.499 . S
C615 C616 1.373 . S
C615 C617 1.389 . S
C616 H589 0.950 . S
C616 C602 1.377 . S
C616 C615 1.373 . S
C617 C601 1.377 . S
C617 C615 1.389 . S
C617 C618 1.524 . S
C618 C617 1.524 . S
C618 C619 1.397 . S
C618 C623 1.363 . S
C619 H590 0.950 . S
C619 C618 1.397 . S
C619 C620 1.334 . S
C620 H591 0.950 . S
C620 C619 1.334 . S
C620 C621 1.287 . S
C621 C620 1.287 . S
C621 C622 1.524 . S
C621 H624 0.999 . S
C622 H592 0.950 . S
C622 C621 1.524 . S
C622 C623 1.415 . S
C623 H593 0.950 . S
C623 C618 1.363 . S
C623 C622 1.415 . S
H624 C621 0.999 . S
H625 C606 0.913 . S
H626 C644 0.951 . S
H627 C646 0.951 . S
H628 C648 0.950 . S
H629 C649 0.950 . S
H630 C651 0.950 . S
H631 C654 0.950 . S
H632 C655 0.950 . S
H633 C657 0.950 . S
H634 C658 0.950 . S
H635 C659 0.951 . S
H636 C661 0.951 . S
H637 C663 0.950 . S
H638 C664 0.950 . S
H639 C666 0.950 . S
H640 C669 0.950 . S
H641 C670 0.950 . S
H642 C672 0.950 . S
H643 C673 0.950 . S
C644 H626 0.951 . S
C644 C645 1.366 . S
C644 C646 1.388 . S
C645 C644 1.366 . S
C645 C649 1.385 . S
C646 H627 0.951 . S
C646 C644 1.388 . S
C646 C647 1.366 . S
C647 C646 1.366 . S
C647 C648 1.414 . S
C647 C650 1.499 . S
C648 H628 0.950 . S
C648 C647 1.414 . S
C648 C649 1.374 . S
C649 H629 0.950 . S
C649 C645 1.385 . S
C649 C648 1.374 . S
C650 C647 1.499 . S
C650 C651 1.373 . S
C650 C652 1.389 . S
C651 H630 0.950 . S
C651 C650 1.373 . S
C651 C667 1.377 . S
C652 C650 1.389 . S
C652 C653 1.524 . S
C652 C666 1.377 . S
C653 C652 1.524 . S
C653 C654 1.397 . S
C653 C658 1.363 . S
C654 H631 0.950 . S
C654 C653 1.397 . S
C654 C655 1.334 . S
C655 H632 0.950 . S
C655 C654 1.334 . S
C655 C656 1.287 . S
C656 C655 1.287 . S
C656 C657 1.524 . S
C656 H675 0.913 . S
C657 H633 0.950 . S
C657 C656 1.524 . S
C657 C658 1.415 . S
C658 H634 0.950 . S
C658 C653 1.363 . S
C658 C657 1.415 . S
C659 H635 0.951 . S
C659 C660 1.366 . S
C659 C661 1.388 . S
C660 C659 1.366 . S
C660 C664 1.385 . S
C661 H636 0.951 . S
C661 C659 1.388 . S
C661 C662 1.366 . S
C662 C661 1.366 . S
C662 C663 1.414 . S
C662 C665 1.499 . S
C663 H637 0.950 . S
C663 C662 1.414 . S
C663 C664 1.374 . S
C664 H638 0.950 . S
C664 C660 1.385 . S
C664 C663 1.374 . S
C665 C662 1.499 . S
C665 C666 1.373 . S
C665 C667 1.389 . S
C666 H639 0.950 . S
C666 C652 1.377 . S
C666 C665 1.373 . S
C667 C651 1.377 . S
C667 C665 1.389 . S
C667 C668 1.524 . S
C668 C667 1.524 . S
C668 C669 1.397 . S
C668 C673 1.363 . S
C669 H640 0.950 . S
C669 C668 1.397 . S
C669 C670 1.334 . S
C670 H641 0.950 . S
C670 C669 1.334 . S
C670 C671 1.287 . S
C671 C670 1.287 . S
C671 C672 1.524 . S
C671 H674 0.999 . S
C672 H642 0.950 . S
C672 C671 1.524 . S
C672 C673 1.415 . S
C673 H643 0.950 . S
C673 C668 1.363 . S
C673 C672 1.415 . S
H674 C671 0.999 . S
H675 C656 0.913 . S
H676 C694 0.951 1_554 S
H677 C696 0.951 . S
H678 C698 0.950 . S
H679 C699 0.950 . S
H680 C701 0.950 . S
H681 C704 0.950 . S
H682 C705 0.950 . S
H683 C707 0.950 . S
H684 C708 0.950 . S
H685 C709 0.951 . S
H686 C711 0.951 . S
H687 C713 0.950 . S
H688 C714 0.950 . S
H689 C716 0.950 . S
H690 C719 0.950 . S
H691 C720 0.950 . S
H692 C722 0.950 . S
H693 C723 0.950 . S
C694 H676 0.951 1_556 S
C694 C695 1.366 . S
C694 C696 1.388 . S
C695 C694 1.366 . S
C695 C699 1.385 . S
C696 H677 0.951 . S
C696 C694 1.388 . S
C696 C697 1.366 . S
C697 C696 1.366 . S
C697 C698 1.414 . S
C697 C700 1.499 . S
C698 H678 0.950 . S
C698 C697 1.414 . S
C698 C699 1.374 . S
C699 H679 0.950 . S
C699 C695 1.385 . S
C699 C698 1.374 . S
C700 C697 1.499 . S
C700 C701 1.373 . S
C700 C702 1.389 . S
C701 H680 0.950 . S
C701 C700 1.373 . S
C701 C717 1.377 . S
C702 C700 1.389 . S
C702 C703 1.524 . S
C702 C716 1.377 . S
C703 C702 1.524 . S
C703 C704 1.397 . S
C703 C708 1.363 1_556 S
C704 H681 0.950 . S
C704 C703 1.397 . S
C704 C705 1.334 1_556 S
C705 H682 0.950 . S
C705 C704 1.334 1_554 S
C705 C706 1.287 . S
C706 C705 1.287 . S
C706 C707 1.524 . S
C706 H725 0.913 . S
C707 H683 0.950 . S
C707 C706 1.524 . S
C707 C708 1.415 . S
C708 H684 0.950 . S
C708 C703 1.363 1_554 S
C708 C707 1.415 . S
C709 H685 0.951 . S
C709 C710 1.366 . S
C709 C711 1.388 . S
C710 C709 1.366 . S
C710 C714 1.385 . S
C711 H686 0.951 . S
C711 C709 1.388 . S
C711 C712 1.366 . S
C712 C711 1.366 . S
C712 C713 1.414 . S
C712 C715 1.499 . S
C713 H687 0.950 . S
C713 C712 1.414 . S
C713 C714 1.374 . S
C714 H688 0.950 . S
C714 C710 1.385 . S
C714 C713 1.374 . S
C715 C712 1.499 . S
C715 C716 1.373 . S
C715 C717 1.389 . S
C716 H689 0.950 . S
C716 C702 1.377 . S
C716 C715 1.373 . S
C717 C701 1.377 . S
C717 C715 1.389 . S
C717 C718 1.524 . S
C718 C717 1.524 . S
C718 C719 1.397 . S
C718 C723 1.363 . S
C719 H690 0.950 . S
C719 C718 1.397 . S
C719 C720 1.334 . S
C720 H691 0.950 . S
C720 C719 1.334 . S
C720 C721 1.287 . S
C721 C720 1.287 . S
C721 C722 1.524 . S
C721 H724 0.999 . S
C722 H692 0.950 . S
C722 C721 1.524 . S
C722 C723 1.415 . S
C723 H693 0.950 . S
C723 C718 1.363 . S
C723 C722 1.415 . S
H724 C721 0.999 . S
H725 C706 0.913 . S
H726 C744 0.951 . S
H727 C746 0.951 . S
H728 C748 0.950 . S
H729 C749 0.950 . S
H730 C751 0.950 . S
H731 C754 0.950 . S
H732 C755 0.950 . S
H733 C757 0.950 . S
H734 C758 0.950 . S
H735 C759 0.951 . S
H736 C761 0.951 . S
H737 C763 0.950 . S
H738 C764 0.950 . S
H739 C766 0.950 . S
H740 C769 0.950 . S
H741 C770 0.950 . S
H742 C772 0.950 . S
H743 C773 0.950 . S
C744 H726 0.951 . S
C744 C745 1.366 . S
C744 C746 1.388 . S
C745 C744 1.366 . S
C745 C749 1.385 . S
C746 H727 0.951 . S
C746 C744 1.388 . S
C746 C747 1.366 . S
C747 C746 1.366 . S
C747 C748 1.414 . S
C747 C750 1.499 . S
C748 H728 0.950 . S
C748 C747 1.414 . S
C748 C749 1.374 . S
C749 H729 0.950 . S
C749 C745 1.385 . S
C749 C748 1.374 . S
C750 C747 1.499 . S
C750 C751 1.373 . S
C750 C752 1.389 . S
C751 H730 0.950 . S
C751 C750 1.373 . S
C751 C767 1.377 . S
C752 C750 1.389 . S
C752 C753 1.524 . S
C752 C766 1.377 . S
C753 C752 1.524 . S
C753 C754 1.397 . S
C753 C758 1.363 . S
C754 H731 0.950 . S
C754 C753 1.397 . S
C754 C755 1.334 . S
C755 H732 0.950 . S
C755 C754 1.334 . S
C755 C756 1.287 . S
C756 C755 1.287 . S
C756 C757 1.524 . S
C756 H775 0.913 . S
C757 H733 0.950 . S
C757 C756 1.524 . S
C757 C758 1.415 . S
C758 H734 0.950 . S
C758 C753 1.363 . S
C758 C757 1.415 . S
C759 H735 0.951 . S
C759 C760 1.366 . S
C759 C761 1.388 . S
C760 C759 1.366 . S
C760 C764 1.385 . S
C761 H736 0.951 . S
C761 C759 1.388 . S
C761 C762 1.366 . S
C762 C761 1.366 . S
C762 C763 1.414 . S
C762 C765 1.499 . S
C763 H737 0.950 . S
C763 C762 1.414 . S
C763 C764 1.374 . S
C764 H738 0.950 . S
C764 C760 1.385 . S
C764 C763 1.374 . S
C765 C762 1.499 . S
C765 C766 1.373 . S
C765 C767 1.389 . S
C766 H739 0.950 . S
C766 C752 1.377 . S
C766 C765 1.373 . S
C767 C751 1.377 . S
C767 C765 1.389 . S
C767 C768 1.524 . S
C768 C767 1.524 . S
C768 C769 1.397 . S
C768 C773 1.363 . S
C769 H740 0.950 . S
C769 C768 1.397 . S
C769 C770 1.334 . S
C770 H741 0.950 . S
C770 C769 1.334 . S
C770 C771 1.287 . S
C771 C770 1.287 . S
C771 C772 1.524 . S
C771 H774 0.999 . S
C772 H742 0.950 . S
C772 C771 1.524 . S
C772 C773 1.415 . S
C773 H743 0.950 . S
C773 C768 1.363 . S
C773 C772 1.415 . S
H774 C771 0.999 . S
H775 C756 0.913 . S
H776 C794 0.951 . S
H777 C796 0.951 . S
H778 C798 0.950 . S
H779 C799 0.950 . S
H780 C801 0.950 . S
H781 C804 0.950 1_546 S
H782 C805 0.950 . S
H783 C807 0.950 . S
H784 C808 0.950 . S
H785 C809 0.951 . S
H786 C811 0.951 . S
H787 C813 0.950 . S
H788 C814 0.950 . S
H789 C816 0.950 . S
H790 C819 0.950 1_565 S
H791 C820 0.950 . S
H792 C822 0.950 . S
H793 C823 0.950 . S
C794 H776 0.951 . S
C794 C795 1.366 . S
C794 C796 1.388 . S
C795 C794 1.366 . S
C795 C799 1.385 . S
C796 H777 0.951 . S
C796 C794 1.388 . S
C796 C797 1.366 . S
C797 C796 1.366 . S
C797 C798 1.414 . S
C797 C800 1.499 . S
C798 H778 0.950 . S
C798 C797 1.414 . S
C798 C799 1.374 . S
C799 H779 0.950 . S
C799 C795 1.385 . S
C799 C798 1.374 . S
C800 C797 1.499 . S
C800 C801 1.373 . S
C800 C802 1.389 . S
C801 H780 0.950 . S
C801 C800 1.373 . S
C801 C817 1.377 1_565 S
C802 C800 1.389 . S
C802 C803 1.524 . S
C802 C816 1.377 1_565 S
C803 C802 1.524 . S
C803 C804 1.397 1_556 S
C803 C808 1.363 . S
C804 H781 0.950 1_564 S
C804 C803 1.397 1_554 S
C804 C805 1.334 . S
C805 H782 0.950 . S
C805 C804 1.334 . S
C805 C806 1.287 . S
C806 C805 1.287 . S
C806 C807 1.524 . S
C806 H825 0.913 . S
C807 H783 0.950 . S
C807 C806 1.524 . S
C807 C808 1.415 1_554 S
C808 H784 0.950 . S
C808 C803 1.363 . S
C808 C807 1.415 1_556 S
C809 H785 0.951 . S
C809 C810 1.366 . S
C809 C811 1.388 . S
C810 C809 1.366 . S
C810 C814 1.385 . S
C811 H786 0.951 . S
C811 C809 1.388 . S
C811 C812 1.366 . S
C812 C811 1.366 . S
C812 C813 1.414 . S
C812 C815 1.499 . S
C813 H787 0.950 . S
C813 C812 1.414 . S
C813 C814 1.374 . S
C814 H788 0.950 . S
C814 C810 1.385 . S
C814 C813 1.374 . S
C815 C812 1.499 . S
C815 C816 1.373 . S
C815 C817 1.389 . S
C816 H789 0.950 . S
C816 C802 1.377 1_545 S
C816 C815 1.373 . S
C817 C801 1.377 1_545 S
C817 C815 1.389 . S
C817 C818 1.524 . S
C818 C817 1.524 . S
C818 C819 1.397 . S
C818 C823 1.363 . S
C819 H790 0.950 1_545 S
C819 C818 1.397 . S
C819 C820 1.334 . S
C820 H791 0.950 . S
C820 C819 1.334 . S
C820 C821 1.287 . S
C821 C820 1.287 . S
C821 C822 1.524 . S
C821 H824 0.999 . S
C822 H792 0.950 . S
C822 C821 1.524 . S
C822 C823 1.415 . S
C823 H793 0.950 . S
C823 C818 1.363 . S
C823 C822 1.415 . S
H824 C821 0.999 . S
H825 C806 0.913 . S
H826 C844 0.951 . S
H827 C846 0.951 . S
H828 C848 0.950 . S
H829 C849 0.950 . S
H830 C851 0.950 . S
H831 C854 0.950 . S
H832 C855 0.950 . S
H833 C857 0.950 . S
H834 C858 0.950 . S
H835 C859 0.951 . S
H836 C861 0.951 . S
H837 C863 0.950 . S
H838 C864 0.950 . S
H839 C866 0.950 . S
H840 C869 0.950 . S
H841 C870 0.950 . S
H842 C872 0.950 . S
H843 C873 0.950 . S
C844 H826 0.951 . S
C844 C845 1.366 . S
C844 C846 1.388 . S
C845 C844 1.366 . S
C845 C849 1.385 . S
C846 H827 0.951 . S
C846 C844 1.388 . S
C846 C847 1.366 . S
C847 C846 1.366 . S
C847 C848 1.414 . S
C847 C850 1.499 . S
C848 H828 0.950 . S
C848 C847 1.414 . S
C848 C849 1.374 . S
C849 H829 0.950 . S
C849 C845 1.385 . S
C849 C848 1.374 . S
C850 C847 1.499 . S
C850 C851 1.373 1_545 S
C850 C852 1.389 . S
C851 H830 0.950 . S
C851 C850 1.373 1_565 S
C851 C867 1.377 . S
C852 C850 1.389 . S
C852 C853 1.524 . S
C852 C866 1.377 . S
C853 C852 1.524 . S
C853 C854 1.397 . S
C853 C858 1.363 . S
C854 H831 0.950 . S
C854 C853 1.397 . S
C854 C855 1.334 . S
C855 H832 0.950 . S
C855 C854 1.334 . S
C855 C856 1.287 . S
C856 C855 1.287 . S
C856 C857 1.524 . S
C856 H875 0.913 . S
C857 H833 0.950 . S
C857 C856 1.524 . S
C857 C858 1.415 . S
C858 H834 0.950 . S
C858 C853 1.363 . S
C858 C857 1.415 . S
C859 H835 0.951 . S
C859 C860 1.366 . S
C859 C861 1.388 . S
C860 C859 1.366 . S
C860 C864 1.385 . S
C861 H836 0.951 . S
C861 C859 1.388 . S
C861 C862 1.366 . S
C862 C861 1.366 . S
C862 C863 1.414 . S
C862 C865 1.499 . S
C863 H837 0.950 . S
C863 C862 1.414 . S
C863 C864 1.374 . S
C864 H838 0.950 . S
C864 C860 1.385 . S
C864 C863 1.374 . S
C865 C862 1.499 . S
C865 C866 1.373 1_565 S
C865 C867 1.389 . S
C866 H839 0.950 . S
C866 C852 1.377 . S
C866 C865 1.373 1_545 S
C867 C851 1.377 . S
C867 C865 1.389 . S
C867 C868 1.524 . S
C868 C867 1.524 . S
C868 C869 1.397 . S
C868 C873 1.363 . S
C869 H840 0.950 . S
C869 C868 1.397 . S
C869 C870 1.334 . S
C870 H841 0.950 . S
C870 C869 1.334 . S
C870 C871 1.287 . S
C871 C870 1.287 . S
C871 C872 1.524 . S
C871 H874 0.999 . S
C872 H842 0.950 . S
C872 C871 1.524 . S
C872 C873 1.415 . S
C873 H843 0.950 . S
C873 C868 1.363 . S
C873 C872 1.415 . S
H874 C871 0.999 . S
H875 C856 0.913 . S
H876 C894 0.951 1_554 S
H877 C896 0.951 . S
H878 C898 0.950 . S
H879 C899 0.950 . S
H880 C901 0.950 . S
H881 C904 0.950 . S
H882 C905 0.950 . S
H883 C907 0.950 . S
H884 C908 0.950 1_544 S
H885 C909 0.951 . S
H886 C911 0.951 . S
H887 C913 0.950 . S
H888 C914 0.950 . S
H889 C916 0.950 . S
H890 C919 0.950 . S
H891 C920 0.950 . S
H892 C922 0.950 . S
H893 C923 0.972 . S
C894 H876 0.951 1_556 S
C894 C895 1.366 . S
C894 C896 1.388 . S
C895 C894 1.366 . S
C895 C899 1.385 . S
C896 H877 0.951 . S
C896 C894 1.388 . S
C896 C897 1.366 . S
C897 C896 1.366 . S
C897 C898 1.414 . S
C897 C900 1.499 . S
C898 H878 0.950 . S
C898 C897 1.414 . S
C898 C899 1.374 . S
C899 H879 0.950 . S
C899 C895 1.385 . S
C899 C898 1.374 . S
C900 C897 1.499 . S
C900 C901 1.373 . S
C900 C902 1.389 . S
C901 H880 0.950 . S
C901 C900 1.373 . S
C901 C917 1.377 1_565 S
C902 C900 1.389 . S
C902 C903 1.524 . S
C902 C916 1.377 1_565 S
C903 C902 1.524 . S
C903 C904 1.397 . S
C903 C908 1.363 . S
C904 H881 0.950 . S
C904 C903 1.397 . S
C904 C905 1.334 . S
C905 H882 0.950 . S
C905 C904 1.334 . S
C905 C906 1.287 1_556 S
C906 C905 1.287 1_554 S
C906 C907 1.524 . S
C906 H925 0.913 . S
C907 H883 0.950 . S
C907 C906 1.524 . S
C907 C908 1.414 1_554 S
C908 H884 0.950 1_566 S
C908 C903 1.363 . S
C908 C907 1.414 1_556 S
C909 H885 0.951 . S
C909 C910 1.366 . S
C909 C911 1.388 . S
C910 C909 1.366 . S
C910 C914 1.385 . S
C911 H886 0.951 . S
C911 C909 1.388 . S
C911 C912 1.366 . S
C912 C911 1.366 . S
C912 C913 1.414 . S
C912 C915 1.499 . S
C913 H887 0.950 . S
C913 C912 1.414 . S
C913 C914 1.374 . S
C914 H888 0.950 . S
C914 C910 1.385 . S
C914 C913 1.374 . S
C915 C912 1.499 . S
C915 C916 1.373 . S
C915 C917 1.389 . S
C916 H889 0.950 . S
C916 C902 1.377 1_545 S
C916 C915 1.373 . S
C917 C901 1.377 1_545 S
C917 C915 1.389 . S
C917 C918 1.524 . S
C918 C917 1.524 . S
C918 C919 1.397 . S
C918 C923 1.363 . S
C919 H890 0.950 . S
C919 C918 1.397 . S
C919 C920 1.334 . S
C920 H891 0.950 . S
C920 C919 1.334 . S
C920 C921 1.287 . S
C921 C920 1.287 . S
C921 C922 1.524 . S
C921 H924 0.999 . S
C922 H892 0.950 . S
C922 C921 1.524 . S
C922 C923 1.415 . S
C923 H893 0.972 . S
C923 C918 1.363 . S
C923 C922 1.415 . S
H924 C921 0.999 . S
H925 C906 0.913 . S
H926 C944 0.951 . S
H927 C946 0.951 . S
H928 C948 0.950 . S
H929 C949 0.950 . S
H930 C951 0.950 . S
H931 C954 0.950 . S
H932 C955 0.950 . S
H933 C957 0.950 . S
H934 C958 0.950 . S
H935 C959 0.951 . S
H936 C961 0.951 . S
H937 C963 0.950 . S
H938 C964 0.950 . S
H939 C966 0.950 . S
H940 C969 0.950 . S
H941 C970 0.950 . S
H942 C972 0.950 . S
H943 C973 0.950 . S
C944 H926 0.951 . S
C944 C945 1.366 . S
C944 C946 1.388 . S
C945 C944 1.366 . S
C945 C949 1.385 . S
C946 H927 0.951 . S
C946 C944 1.388 . S
C946 C947 1.366 . S
C947 C946 1.366 . S
C947 C948 1.414 . S
C947 C950 1.499 . S
C948 H928 0.950 . S
C948 C947 1.414 . S
C948 C949 1.374 . S
C949 H929 0.950 . S
C949 C945 1.385 . S
C949 C948 1.374 . S
C950 C947 1.499 . S
C950 C951 1.373 . S
C950 C952 1.389 1_545 S
C951 H930 0.950 . S
C951 C950 1.373 . S
C951 C967 1.377 . S
C952 C950 1.389 1_565 S
C952 C953 1.524 . S
C952 C966 1.377 . S
C953 C952 1.524 . S
C953 C954 1.397 . S
C953 C958 1.363 . S
C954 H931 0.950 . S
C954 C953 1.397 . S
C954 C955 1.334 . S
C955 H932 0.950 . S
C955 C954 1.334 . S
C955 C956 1.287 . S
C956 C955 1.287 . S
C956 C957 1.524 . S
C956 H975 0.913 . S
C957 H933 0.950 . S
C957 C956 1.524 . S
C957 C958 1.415 . S
C958 H934 0.950 . S
C958 C953 1.363 . S
C958 C957 1.415 . S
C959 H935 0.951 . S
C959 C960 1.366 . S
C959 C961 1.388 . S
C960 C959 1.366 . S
C960 C964 1.385 . S
C961 H936 0.951 . S
C961 C959 1.388 . S
C961 C962 1.366 . S
C962 C961 1.366 . S
C962 C963 1.414 . S
C962 C965 1.499 . S
C963 H937 0.950 . S
C963 C962 1.414 . S
C963 C964 1.374 . S
C964 H938 0.950 . S
C964 C960 1.385 . S
C964 C963 1.374 . S
C965 C962 1.499 . S
C965 C966 1.373 . S
C965 C967 1.389 1_565 S
C966 H939 0.950 . S
C966 C952 1.377 . S
C966 C965 1.373 . S
C967 C951 1.377 . S
C967 C965 1.389 1_545 S
C967 C968 1.524 . S
C968 C967 1.524 . S
C968 C969 1.397 . S
C968 C973 1.363 . S
C969 H940 0.950 . S
C969 C968 1.397 . S
C969 C970 1.334 . S
C970 H941 0.950 . S
C970 C969 1.334 . S
C970 C971 1.287 . S
C971 C970 1.287 . S
C971 C972 1.524 . S
C971 H974 0.999 . S
C972 H942 0.950 . S
C972 C971 1.524 . S
C972 C973 1.415 . S
C973 H943 0.950 . S
C973 C968 1.363 . S
C973 C972 1.415 . S
H974 C971 0.999 . S
H975 C956 0.913 . S
H976 C994 0.951 . S
H977 C996 0.951 . S
H978 C998 0.950 . S
H979 C999 0.950 . S
H980 C1001 0.950 . S
H981 C1004 0.950 . S
H982 C1005 0.950 . S
H983 C1007 0.950 . S
H984 C1008 0.950 . S
H985 C1009 0.951 . S
H986 C1011 0.951 . S
H987 C1013 0.950 . S
H988 C1014 0.950 . S
H989 C1016 0.950 . S
H990 C1019 0.950 . S
H991 C1020 0.950 . S
H992 C1022 0.950 . S
H993 C1023 0.950 . S
C994 H976 0.951 . S
C994 C995 1.366 . S
C994 C996 1.388 . S
C995 C994 1.366 . S
C995 C999 1.385 . S
C996 H977 0.951 . S
C996 C994 1.388 . S
C996 C997 1.366 . S
C997 C996 1.366 . S
C997 C998 1.414 . S
C997 C1000 1.499 . S
C998 H978 0.950 . S
C998 C997 1.414 . S
C998 C999 1.374 . S
C999 H979 0.950 . S
C999 C995 1.385 . S
C999 C998 1.374 . S
C1000 C997 1.499 . S
C1000 C1001 1.373 . S
C1000 C1002 1.389 . S
C1001 H980 0.950 . S
C1001 C1000 1.373 . S
C1001 C1017 1.377 . S
C1002 C1000 1.389 . S
C1002 C1003 1.524 . S
C1002 C1016 1.377 . S
C1003 C1002 1.524 . S
C1003 C1004 1.397 . S
C1003 C1008 1.363 . S
C1004 H981 0.950 . S
C1004 C1003 1.397 . S
C1004 C1005 1.334 . S
C1005 H982 0.950 . S
C1005 C1004 1.334 . S
C1005 C1006 1.287 . S
C1006 C1005 1.287 . S
C1006 C1007 1.524 . S
C1006 H1025 0.913 . S
C1007 H983 0.950 . S
C1007 C1006 1.524 . S
C1007 C1008 1.415 . S
C1008 H984 0.950 . S
C1008 C1003 1.363 . S
C1008 C1007 1.415 . S
C1009 H985 0.951 . S
C1009 C1010 1.366 . S
C1009 C1011 1.388 . S
C1010 C1009 1.366 . S
C1010 C1014 1.385 . S
C1011 H986 0.951 . S
C1011 C1009 1.388 . S
C1011 C1012 1.366 . S
C1012 C1011 1.366 . S
C1012 C1013 1.414 . S
C1012 C1015 1.499 . S
C1013 H987 0.950 . S
C1013 C1012 1.414 . S
C1013 C1014 1.374 . S
C1014 H988 0.950 . S
C1014 C1010 1.385 . S
C1014 C1013 1.374 . S
C1015 C1012 1.499 . S
C1015 C1016 1.373 . S
C1015 C1017 1.389 . S
C1016 H989 0.950 . S
C1016 C1002 1.377 . S
C1016 C1015 1.373 . S
C1017 C1001 1.377 . S
C1017 C1015 1.389 . S
C1017 C1018 1.524 . S
C1018 C1017 1.524 . S
C1018 C1019 1.397 . S
C1018 C1023 1.363 . S
C1019 H990 0.950 . S
C1019 C1018 1.397 . S
C1019 C1020 1.334 . S
C1020 H991 0.950 . S
C1020 C1019 1.334 . S
C1020 C1021 1.287 . S
C1021 C1020 1.287 . S
C1021 C1022 1.524 . S
C1021 H1024 0.999 . S
C1022 H992 0.950 . S
C1022 C1021 1.524 . S
C1022 C1023 1.415 . S
C1023 H993 0.950 . S
C1023 C1018 1.363 . S
C1023 C1022 1.415 . S
H1024 C1021 0.999 . S
H1025 C1006 0.913 . S
H1026 C1044 0.951 . S
H1027 C1046 0.951 . S
H1028 C1048 0.950 . S
H1029 C1049 0.950 . S
H1030 C1051 0.950 . S
H1031 C1054 0.950 . S
H1032 C1055 0.950 . S
H1033 C1057 0.950 . S
H1034 C1058 0.950 . S
H1035 C1059 0.951 . S
H1036 C1061 0.951 . S
H1037 C1063 0.950 . S
H1038 C1064 0.950 . S
H1039 C1066 0.950 . S
H1040 C1069 0.950 . S
H1041 C1070 0.950 . S
H1042 C1072 0.950 . S
H1043 C1073 0.950 . S
C1044 H1026 0.951 . S
C1044 C1045 1.366 . S
C1044 C1046 1.388 . S
C1045 C1044 1.366 . S
C1045 C1049 1.385 . S
C1046 H1027 0.951 . S
C1046 C1044 1.388 . S
C1046 C1047 1.366 . S
C1047 C1046 1.366 . S
C1047 C1048 1.414 . S
C1047 C1050 1.499 . S
C1048 H1028 0.950 . S
C1048 C1047 1.414 . S
C1048 C1049 1.374 . S
C1049 H1029 0.950 . S
C1049 C1045 1.385 . S
C1049 C1048 1.374 . S
C1050 C1047 1.499 . S
C1050 C1051 1.373 . S
C1050 C1052 1.389 . S
C1051 H1030 0.950 . S
C1051 C1050 1.373 . S
C1051 C1067 1.377 . S
C1052 C1050 1.389 . S
C1052 C1053 1.524 . S
C1052 C1066 1.377 . S
C1053 C1052 1.524 . S
C1053 C1054 1.397 . S
C1053 C1058 1.363 . S
C1054 H1031 0.950 . S
C1054 C1053 1.397 . S
C1054 C1055 1.334 . S
C1055 H1032 0.950 . S
C1055 C1054 1.334 . S
C1055 C1056 1.287 . S
C1056 C1055 1.287 . S
C1056 C1057 1.524 . S
C1056 H1075 0.913 . S
C1057 H1033 0.950 . S
C1057 C1056 1.524 . S
C1057 C1058 1.415 . S
C1058 H1034 0.950 . S
C1058 C1053 1.363 . S
C1058 C1057 1.415 . S
C1059 H1035 0.951 . S
C1059 C1060 1.366 . S
C1059 C1061 1.388 . S
C1060 C1059 1.366 . S
C1060 C1064 1.385 . S
C1061 H1036 0.951 . S
C1061 C1059 1.388 . S
C1061 C1062 1.366 . S
C1062 C1061 1.366 . S
C1062 C1063 1.414 . S
C1062 C1065 1.499 . S
C1063 H1037 0.950 . S
C1063 C1062 1.414 . S
C1063 C1064 1.374 . S
C1064 H1038 0.950 . S
C1064 C1060 1.385 . S
C1064 C1063 1.374 . S
C1065 C1062 1.499 . S
C1065 C1066 1.373 . S
C1065 C1067 1.389 . S
C1066 H1039 0.950 . S
C1066 C1052 1.377 . S
C1066 C1065 1.373 . S
C1067 C1051 1.377 . S
C1067 C1065 1.389 . S
C1067 C1068 1.524 . S
C1068 C1067 1.524 . S
C1068 C1069 1.397 . S
C1068 C1073 1.363 . S
C1069 H1040 0.950 . S
C1069 C1068 1.397 . S
C1069 C1070 1.334 . S
C1070 H1041 0.950 . S
C1070 C1069 1.334 . S
C1070 C1071 1.287 . S
C1071 C1070 1.287 . S
C1071 C1072 1.524 . S
C1071 H1074 0.999 . S
C1072 H1042 0.950 . S
C1072 C1071 1.524 . S
C1072 C1073 1.415 . S
C1073 H1043 0.950 . S
C1073 C1068 1.363 . S
C1073 C1072 1.415 . S
H1074 C1071 0.999 . S
H1075 C1056 0.913 . S
H1076 C1094 0.951 . S
H1077 C1096 0.951 . S
H1078 C1098 0.950 . S
H1079 C1099 0.950 . S
H1080 C1101 0.950 . S
H1081 C1104 0.950 . S
H1082 C1105 0.950 . S
H1083 C1107 0.950 . S
H1084 C1108 0.950 . S
H1085 C1109 0.951 . S
H1086 C1111 0.951 . S
H1087 C1113 0.950 . S
H1088 C1114 0.950 . S
H1089 C1116 0.950 . S
H1090 C1119 0.950 . S
H1091 C1120 0.950 . S
H1092 C1122 0.950 . S
H1093 C1123 0.950 . S
C1094 H1076 0.951 . S
C1094 C1095 1.366 . S
C1094 C1096 1.388 . S
C1095 C1094 1.366 . S
C1095 C1099 1.385 . S
C1096 H1077 0.951 . S
C1096 C1094 1.388 . S
C1096 C1097 1.366 . S
C1097 C1096 1.366 . S
C1097 C1098 1.414 . S
C1097 C1100 1.499 . S
C1098 H1078 0.950 . S
C1098 C1097 1.414 . S
C1098 C1099 1.374 . S
C1099 H1079 0.950 . S
C1099 C1095 1.385 . S
C1099 C1098 1.374 . S
C1100 C1097 1.499 . S
C1100 C1101 1.373 . S
C1100 C1102 1.389 . S
C1101 H1080 0.950 . S
C1101 C1100 1.373 . S
C1101 C1117 1.377 . S
C1102 C1100 1.389 . S
C1102 C1103 1.524 . S
C1102 C1116 1.377 . S
C1103 C1102 1.524 . S
C1103 C1104 1.397 . S
C1103 C1108 1.363 . S
C1104 H1081 0.950 . S
C1104 C1103 1.397 . S
C1104 C1105 1.334 . S
C1105 H1082 0.950 . S
C1105 C1104 1.334 . S
C1105 C1106 1.287 . S
C1106 C1105 1.287 . S
C1106 C1107 1.524 . S
C1106 H1125 0.913 . S
C1107 H1083 0.950 . S
C1107 C1106 1.524 . S
C1107 C1108 1.415 . S
C1108 H1084 0.950 . S
C1108 C1103 1.363 . S
C1108 C1107 1.415 . S
C1109 H1085 0.951 . S
C1109 C1110 1.366 . S
C1109 C1111 1.388 . S
C1110 C1109 1.366 . S
C1110 C1114 1.385 . S
C1111 H1086 0.951 . S
C1111 C1109 1.388 . S
C1111 C1112 1.366 . S
C1112 C1111 1.366 . S
C1112 C1113 1.414 . S
C1112 C1115 1.499 . S
C1113 H1087 0.950 . S
C1113 C1112 1.414 . S
C1113 C1114 1.374 . S
C1114 H1088 0.950 . S
C1114 C1110 1.385 . S
C1114 C1113 1.374 . S
C1115 C1112 1.499 . S
C1115 C1116 1.373 . S
C1115 C1117 1.389 . S
C1116 H1089 0.950 . S
C1116 C1102 1.377 . S
C1116 C1115 1.373 . S
C1117 C1101 1.377 . S
C1117 C1115 1.389 . S
C1117 C1118 1.524 . S
C1118 C1117 1.524 . S
C1118 C1119 1.397 . S
C1118 C1123 1.363 . S
C1119 H1090 0.950 . S
C1119 C1118 1.397 . S
C1119 C1120 1.334 . S
C1120 H1091 0.950 . S
C1120 C1119 1.334 . S
C1120 C1121 1.287 . S
C1121 C1120 1.287 . S
C1121 C1122 1.524 . S
C1121 H1124 0.999 . S
C1122 H1092 0.950 . S
C1122 C1121 1.524 . S
C1122 C1123 1.415 . S
C1123 H1093 0.950 . S
C1123 C1118 1.363 . S
C1123 C1122 1.415 . S
H1124 C1121 0.999 . S
H1125 C1106 0.913 . S
H1126 C1144 0.951 . S
H1127 C1146 0.951 . S
H1128 C1148 0.950 . S
H1129 C1149 0.950 . S
H1130 C1151 0.950 . S
H1131 C1154 0.950 . S
H1132 C1155 0.950 . S
H1133 C1157 0.950 . S
H1134 C1158 0.950 . S
H1135 C1159 0.951 . S
H1136 C1161 0.951 . S
H1137 C1163 0.950 . S
H1138 C1164 0.950 . S
H1139 C1166 0.950 . S
H1140 C1169 0.950 . S
H1141 C1170 0.950 . S
H1142 C1172 0.950 . S
H1143 C1173 0.950 . S
C1144 H1126 0.951 . S
C1144 C1145 1.366 . S
C1144 C1146 1.388 . S
C1145 C1144 1.366 . S
C1145 C1149 1.385 . S
C1146 H1127 0.951 . S
C1146 C1144 1.388 . S
C1146 C1147 1.366 . S
C1147 C1146 1.366 . S
C1147 C1148 1.414 . S
C1147 C1150 1.499 . S
C1148 H1128 0.950 . S
C1148 C1147 1.414 . S
C1148 C1149 1.374 . S
C1149 H1129 0.950 . S
C1149 C1145 1.385 . S
C1149 C1148 1.374 . S
C1150 C1147 1.499 . S
C1150 C1151 1.373 . S
C1150 C1152 1.389 . S
C1151 H1130 0.950 . S
C1151 C1150 1.373 . S
C1151 C1167 1.377 . S
C1152 C1150 1.389 . S
C1152 C1153 1.524 . S
C1152 C1166 1.377 . S
C1153 C1152 1.524 . S
C1153 C1154 1.397 . S
C1153 C1158 1.363 . S
C1154 H1131 0.950 . S
C1154 C1153 1.397 . S
C1154 C1155 1.334 . S
C1155 H1132 0.950 . S
C1155 C1154 1.334 . S
C1155 C1156 1.287 . S
C1156 C1155 1.287 . S
C1156 C1157 1.524 . S
C1156 H1175 0.913 . S
C1157 H1133 0.950 . S
C1157 C1156 1.524 . S
C1157 C1158 1.415 . S
C1158 H1134 0.950 . S
C1158 C1153 1.363 . S
C1158 C1157 1.415 . S
C1159 H1135 0.951 . S
C1159 C1160 1.366 . S
C1159 C1161 1.388 . S
C1160 C1159 1.366 . S
C1160 C1164 1.385 . S
C1161 H1136 0.951 . S
C1161 C1159 1.388 . S
C1161 C1162 1.366 . S
C1162 C1161 1.366 . S
C1162 C1163 1.414 . S
C1162 C1165 1.499 . S
C1163 H1137 0.950 . S
C1163 C1162 1.414 . S
C1163 C1164 1.374 . S
C1164 H1138 0.950 . S
C1164 C1160 1.385 . S
C1164 C1163 1.374 . S
C1165 C1162 1.499 . S
C1165 C1166 1.373 . S
C1165 C1167 1.389 . S
C1166 H1139 0.950 . S
C1166 C1152 1.377 . S
C1166 C1165 1.373 . S
C1167 C1151 1.377 . S
C1167 C1165 1.389 . S
C1167 C1168 1.524 . S
C1168 C1167 1.524 . S
C1168 C1169 1.397 . S
C1168 C1173 1.363 . S
C1169 H1140 0.950 . S
C1169 C1168 1.397 . S
C1169 C1170 1.334 . S
C1170 H1141 0.950 . S
C1170 C1169 1.334 . S
C1170 C1171 1.287 . S
C1171 C1170 1.287 . S
C1171 C1172 1.524 . S
C1171 H1174 0.999 . S
C1172 H1142 0.950 . S
C1172 C1171 1.524 . S
C1172 C1173 1.415 . S
C1173 H1143 0.950 . S
C1173 C1168 1.363 . S
C1173 C1172 1.415 . S
H1174 C1171 0.999 . S
H1175 C1156 0.913 . S
H1176 C1194 0.951 . S
H1177 C1196 0.951 . S
H1178 C1198 0.950 . S
H1179 C1199 0.950 . S
H1180 C1201 0.950 . S
H1181 C1204 0.950 . S
H1182 C1205 0.950 . S
H1183 C1207 0.950 . S
H1184 C1208 0.950 . S
H1185 C1209 0.951 . S
H1186 C1211 0.951 . S
H1187 C1213 0.950 . S
H1188 C1214 0.950 . S
H1189 C1216 0.950 . S
H1190 C1219 0.950 . S
H1191 C1220 0.950 . S
H1192 C1222 0.950 . S
H1193 C1223 0.950 . S
C1194 H1176 0.951 . S
C1194 C1195 1.366 . S
C1194 C1196 1.388 . S
C1195 C1194 1.366 . S
C1195 C1199 1.385 . S
C1196 H1177 0.951 . S
C1196 C1194 1.388 . S
C1196 C1197 1.366 . S
C1197 C1196 1.366 . S
C1197 C1198 1.414 . S
C1197 C1200 1.499 . S
C1198 H1178 0.950 . S
C1198 C1197 1.414 . S
C1198 C1199 1.374 . S
C1199 H1179 0.950 . S
C1199 C1195 1.385 . S
C1199 C1198 1.374 . S
C1200 C1197 1.499 . S
C1200 C1201 1.373 . S
C1200 C1202 1.389 . S
C1201 H1180 0.950 . S
C1201 C1200 1.373 . S
C1201 C1217 1.377 . S
C1202 C1200 1.389 . S
C1202 C1203 1.524 . S
C1202 C1216 1.377 . S
C1203 C1202 1.524 . S
C1203 C1204 1.397 . S
C1203 C1208 1.363 . S
C1204 H1181 0.950 . S
C1204 C1203 1.397 . S
C1204 C1205 1.334 . S
C1205 H1182 0.950 . S
C1205 C1204 1.334 . S
C1205 C1206 1.287 . S
C1206 C1205 1.287 . S
C1206 C1207 1.524 . S
C1206 H1225 0.913 . S
C1207 H1183 0.950 . S
C1207 C1206 1.524 . S
C1207 C1208 1.415 . S
C1208 H1184 0.950 . S
C1208 C1203 1.363 . S
C1208 C1207 1.415 . S
C1209 H1185 0.951 . S
C1209 C1210 1.366 . S
C1209 C1211 1.388 . S
C1210 C1209 1.366 . S
C1210 C1214 1.385 . S
C1211 H1186 0.951 . S
C1211 C1209 1.388 . S
C1211 C1212 1.366 . S
C1212 C1211 1.366 . S
C1212 C1213 1.414 . S
C1212 C1215 1.499 . S
C1213 H1187 0.950 . S
C1213 C1212 1.414 . S
C1213 C1214 1.374 . S
C1214 H1188 0.950 . S
C1214 C1210 1.385 . S
C1214 C1213 1.374 . S
C1215 C1212 1.499 . S
C1215 C1216 1.373 . S
C1215 C1217 1.389 . S
C1216 H1189 0.950 . S
C1216 C1202 1.377 . S
C1216 C1215 1.373 . S
C1217 C1201 1.377 . S
C1217 C1215 1.389 . S
C1217 C1218 1.524 . S
C1218 C1217 1.524 . S
C1218 C1219 1.397 . S
C1218 C1223 1.363 . S
C1219 H1190 0.950 . S
C1219 C1218 1.397 . S
C1219 C1220 1.334 . S
C1220 H1191 0.950 . S
C1220 C1219 1.334 . S
C1220 C1221 1.287 . S
C1221 C1220 1.287 . S
C1221 C1222 1.524 . S
C1221 H1224 0.999 . S
C1222 H1192 0.950 . S
C1222 C1221 1.524 . S
C1222 C1223 1.415 . S
C1223 H1193 0.950 . S
C1223 C1218 1.363 . S
C1223 C1222 1.415 . S
H1224 C1221 0.999 . S
H1225 C1206 0.913 . S
H1226 C1244 0.951 . S
H1227 C1246 0.951 . S
H1228 C1248 0.950 . S
H1229 C1249 0.950 . S
H1230 C1251 0.950 . S
H1231 C1254 0.950 . S
H1232 C1255 0.950 . S
H1233 C1257 0.950 . S
H1234 C1258 0.950 . S
H1235 C1259 0.951 . S
H1236 C1261 0.951 . S
H1237 C1263 0.950 . S
H1238 C1264 0.950 . S
H1239 C1266 0.950 . S
H1240 C1269 0.950 . S
H1241 C1270 0.950 . S
H1242 C1272 0.950 . S
H1243 C1273 0.950 . S
C1244 H1226 0.951 . S
C1244 C1245 1.366 . S
C1244 C1246 1.388 . S
C1245 C1244 1.366 . S
C1245 C1249 1.385 . S
C1246 H1227 0.951 . S
C1246 C1244 1.388 . S
C1246 C1247 1.366 . S
C1247 C1246 1.366 . S
C1247 C1248 1.414 . S
C1247 C1250 1.499 . S
C1248 H1228 0.950 . S
C1248 C1247 1.414 . S
C1248 C1249 1.374 . S
C1249 H1229 0.950 . S
C1249 C1245 1.385 . S
C1249 C1248 1.374 . S
C1250 C1247 1.499 . S
C1250 C1251 1.373 . S
C1250 C1252 1.389 . S
C1251 H1230 0.950 . S
C1251 C1250 1.373 . S
C1251 C1267 1.377 . S
C1252 C1250 1.389 . S
C1252 C1253 1.524 . S
C1252 C1266 1.377 . S
C1253 C1252 1.524 . S
C1253 C1254 1.397 . S
C1253 C1258 1.363 . S
C1254 H1231 0.950 . S
C1254 C1253 1.397 . S
C1254 C1255 1.334 . S
C1255 H1232 0.950 . S
C1255 C1254 1.334 . S
C1255 C1256 1.287 . S
C1256 C1255 1.287 . S
C1256 C1257 1.524 . S
C1256 H1275 0.913 . S
C1257 H1233 0.950 . S
C1257 C1256 1.524 . S
C1257 C1258 1.415 . S
C1258 H1234 0.950 . S
C1258 C1253 1.363 . S
C1258 C1257 1.415 . S
C1259 H1235 0.951 . S
C1259 C1260 1.366 . S
C1259 C1261 1.388 . S
C1260 C1259 1.366 . S
C1260 C1264 1.385 . S
C1261 H1236 0.951 . S
C1261 C1259 1.388 . S
C1261 C1262 1.366 . S
C1262 C1261 1.366 . S
C1262 C1263 1.414 . S
C1262 C1265 1.499 . S
C1263 H1237 0.950 . S
C1263 C1262 1.414 . S
C1263 C1264 1.374 . S
C1264 H1238 0.950 . S
C1264 C1260 1.385 . S
C1264 C1263 1.374 . S
C1265 C1262 1.499 . S
C1265 C1266 1.373 . S
C1265 C1267 1.389 . S
C1266 H1239 0.950 . S
C1266 C1252 1.377 . S
C1266 C1265 1.373 . S
C1267 C1251 1.377 . S
C1267 C1265 1.389 . S
C1267 C1268 1.524 . S
C1268 C1267 1.524 . S
C1268 C1269 1.397 . S
C1268 C1273 1.363 . S
C1269 H1240 0.950 . S
C1269 C1268 1.397 . S
C1269 C1270 1.334 . S
C1270 H1241 0.950 . S
C1270 C1269 1.334 . S
C1270 C1271 1.287 . S
C1271 C1270 1.287 . S
C1271 C1272 1.524 . S
C1271 H1274 0.999 . S
C1272 H1242 0.950 . S
C1272 C1271 1.524 . S
C1272 C1273 1.415 . S
C1273 H1243 0.950 . S
C1273 C1268 1.363 . S
C1273 C1272 1.415 . S
H1274 C1271 0.999 . S
H1275 C1256 0.913 . S
H1276 C1294 0.951 . S
H1277 C1296 0.951 . S
H1278 C1298 0.950 . S
H1279 C1299 0.950 . S
H1280 C1301 0.950 . S
H1281 C1304 0.950 . S
H1282 C1305 0.950 . S
H1283 C1307 0.950 . S
H1284 C1308 0.950 . S
H1285 C1309 0.951 . S
H1286 C1311 0.951 . S
H1287 C1313 0.950 . S
H1288 C1314 0.950 . S
H1289 C1316 0.950 . S
H1290 C1319 0.950 . S
H1291 C1320 0.950 . S
H1292 C1322 0.950 . S
H1293 C1323 0.950 . S
C1294 H1276 0.951 . S
C1294 C1295 1.366 . S
C1294 C1296 1.388 . S
C1295 C1294 1.366 . S
C1295 C1299 1.385 . S
C1296 H1277 0.951 . S
C1296 C1294 1.388 . S
C1296 C1297 1.366 . S
C1297 C1296 1.366 . S
C1297 C1298 1.414 . S
C1297 C1300 1.499 . S
C1298 H1278 0.950 . S
C1298 C1297 1.414 . S
C1298 C1299 1.374 . S
C1299 H1279 0.950 . S
C1299 C1295 1.385 . S
C1299 C1298 1.374 . S
C1300 C1297 1.499 . S
C1300 C1301 1.373 . S
C1300 C1302 1.389 . S
C1301 H1280 0.950 . S
C1301 C1300 1.373 . S
C1301 C1317 1.377 . S
C1302 C1300 1.389 . S
C1302 C1303 1.524 . S
C1302 C1316 1.377 . S
C1303 C1302 1.524 . S
C1303 C1304 1.397 . S
C1303 C1308 1.363 . S
C1304 H1281 0.950 . S
C1304 C1303 1.397 . S
C1304 C1305 1.334 . S
C1305 H1282 0.950 . S
C1305 C1304 1.334 . S
C1305 C1306 1.287 . S
C1306 C1305 1.287 . S
C1306 C1307 1.524 . S
C1306 H1325 0.913 . S
C1307 H1283 0.950 . S
C1307 C1306 1.524 . S
C1307 C1308 1.415 . S
C1308 H1284 0.950 . S
C1308 C1303 1.363 . S
C1308 C1307 1.415 . S
C1309 H1285 0.951 . S
C1309 C1310 1.366 . S
C1309 C1311 1.388 . S
C1310 C1309 1.366 . S
C1310 C1314 1.385 . S
C1311 H1286 0.951 . S
C1311 C1309 1.388 . S
C1311 C1312 1.366 . S
C1312 C1311 1.366 . S
C1312 C1313 1.414 . S
C1312 C1315 1.499 . S
C1313 H1287 0.950 . S
C1313 C1312 1.414 . S
C1313 C1314 1.374 . S
C1314 H1288 0.950 . S
C1314 C1310 1.385 . S
C1314 C1313 1.374 . S
C1315 C1312 1.499 . S
C1315 C1316 1.373 . S
C1315 C1317 1.389 . S
C1316 H1289 0.950 . S
C1316 C1302 1.377 . S
C1316 C1315 1.373 . S
C1317 C1301 1.377 . S
C1317 C1315 1.389 . S
C1317 C1318 1.524 . S
C1318 C1317 1.524 . S
C1318 C1319 1.397 . S
C1318 C1323 1.363 . S
C1319 H1290 0.950 . S
C1319 C1318 1.397 . S
C1319 C1320 1.334 . S
C1320 H1291 0.950 . S
C1320 C1319 1.334 . S
C1320 C1321 1.287 . S
C1321 C1320 1.287 . S
C1321 C1322 1.524 . S
C1321 H1324 0.999 . S
C1322 H1292 0.950 . S
C1322 C1321 1.524 . S
C1322 C1323 1.415 . S
C1323 H1293 0.950 . S
C1323 C1318 1.363 . S
C1323 C1322 1.415 . S
H1324 C1321 0.999 . S
H1325 C1306 0.913 . S
H1326 C1344 0.951 . S
H1327 C1346 0.951 . S
H1328 C1348 0.950 . S
H1329 C1349 0.950 . S
H1330 C1351 0.950 . S
H1331 C1354 0.950 . S
H1332 C1355 0.950 . S
H1333 C1357 0.950 . S
H1334 C1358 0.950 . S
H1335 C1359 0.951 . S
H1336 C1361 0.951 . S
H1337 C1363 0.950 . S
H1338 C1364 0.950 . S
H1339 C1366 0.950 . S
H1340 C1369 0.950 . S
H1341 C1370 0.950 . S
H1342 C1372 0.950 . S
H1343 C1373 0.950 . S
C1344 H1326 0.951 . S
C1344 C1345 1.366 . S
C1344 C1346 1.388 . S
C1345 C1344 1.366 . S
C1345 C1349 1.385 . S
C1346 H1327 0.951 . S
C1346 C1344 1.388 . S
C1346 C1347 1.366 . S
C1347 C1346 1.366 . S
C1347 C1348 1.414 . S
C1347 C1350 1.499 . S
C1348 H1328 0.950 . S
C1348 C1347 1.414 . S
C1348 C1349 1.374 . S
C1349 H1329 0.950 . S
C1349 C1345 1.385 . S
C1349 C1348 1.374 . S
C1350 C1347 1.499 . S
C1350 C1351 1.373 . S
C1350 C1352 1.389 . S
C1351 H1330 0.950 . S
C1351 C1350 1.373 . S
C1351 C1367 1.377 . S
C1352 C1350 1.389 . S
C1352 C1353 1.524 . S
C1352 C1366 1.377 . S
C1353 C1352 1.524 . S
C1353 C1354 1.397 . S
C1353 C1358 1.363 . S
C1354 H1331 0.950 . S
C1354 C1353 1.397 . S
C1354 C1355 1.334 . S
C1355 H1332 0.950 . S
C1355 C1354 1.334 . S
C1355 C1356 1.287 . S
C1356 C1355 1.287 . S
C1356 C1357 1.524 . S
C1356 H1375 0.913 . S
C1357 H1333 0.950 . S
C1357 C1356 1.524 . S
C1357 C1358 1.415 . S
C1358 H1334 0.950 . S
C1358 C1353 1.363 . S
C1358 C1357 1.415 . S
C1359 H1335 0.951 . S
C1359 C1360 1.366 . S
C1359 C1361 1.388 . S
C1360 C1359 1.366 . S
C1360 C1364 1.385 . S
C1361 H1336 0.951 . S
C1361 C1359 1.388 . S
C1361 C1362 1.366 . S
C1362 C1361 1.366 . S
C1362 C1363 1.414 . S
C1362 C1365 1.499 . S
C1363 H1337 0.950 . S
C1363 C1362 1.414 . S
C1363 C1364 1.374 . S
C1364 H1338 0.950 . S
C1364 C1360 1.385 . S
C1364 C1363 1.374 . S
C1365 C1362 1.499 . S
C1365 C1366 1.373 . S
C1365 C1367 1.389 . S
C1366 H1339 0.950 . S
C1366 C1352 1.377 . S
C1366 C1365 1.373 . S
C1367 C1351 1.377 . S
C1367 C1365 1.389 . S
C1367 C1368 1.524 . S
C1368 C1367 1.524 . S
C1368 C1369 1.397 . S
C1368 C1373 1.363 . S
C1369 H1340 0.950 . S
C1369 C1368 1.397 . S
C1369 C1370 1.334 . S
C1370 H1341 0.950 . S
C1370 C1369 1.334 . S
C1370 C1371 1.287 . S
C1371 C1370 1.287 . S
C1371 C1372 1.524 . S
C1371 H1374 0.999 . S
C1372 H1342 0.950 . S
C1372 C1371 1.524 . S
C1372 C1373 1.415 . S
C1373 H1343 0.950 . S
C1373 C1368 1.363 . S
C1373 C1372 1.415 . S
H1374 C1371 0.999 . S
H1375 C1356 0.913 . S
C195 C10 1.540 . S
C210 C114 1.521 . S
C260 C92 1.525 . S
C245 C21 1.542 . S
C310 C118 1.602 . S
C295 C32 1.618 . S
C360 C96 1.466 . S
C345 C43 1.485 . S
C410 C158 1.521 . S
C395 C54 1.539 . S
C460 C136 1.525 . S
C445 C65 1.542 . S
C495 C76 1.618 . S
C510 C162 1.602 . S
C560 C140 1.467 . S
C545 C87 1.486 . S
C595 C5 1.498 . S
C610 C163 1.515 . S
C660 C141 1.491 . S
C645 C16 1.475 . S
C695 C27 1.556 . S
C710 C160 1.572 . S
C745 C37 1.412 . S
C760 C138 1.413 . S
C810 C119 1.515 . S
C795 C49 1.498 . S
C845 C60 1.475 . S
C860 C97 1.490 . S
C910 C116 1.572 . S
C895 C71 1.556 . S
C960 C94 1.414 . S
C945 C81 1.412 . S
C1010 C137 1.481 . S
C995 C4 1.483 . S
C1060 C159 1.467 . S
C1045 C15 1.466 . S
C1095 C26 1.491 . S
C1110 C139 1.479 . S
C1160 C161 1.468 . S
C1145 C38 1.455 . S
C1210 C93 1.480 . S
C1195 C48 1.484 . S
C1245 C59 1.466 . S
C1260 C115 1.468 . S
C1295 C70 1.491 . S
C1310 C95 1.479 . S
C1345 C82 1.454 . S
C1360 C117 1.469 . S
