# Generated by pormake.
# Topology rtl, (3,6)-cn, num edge types: 1
# Building blocks:
#     Node 0, Type 0, BuildingBlock: ESEHIV_clean_linker_0, # of connection points: 3
#     Node 1, Type 0, BuildingBlock: ESEHIV_clean_linker_0, # of connection points: 3
#     Node 2, Type 0, BuildingBlock: ESEHIV_clean_linker_0, # of connection points: 3
#     Node 3, Type 0, BuildingBlock: ESEHIV_clean_linker_0, # of connection points: 3
#     Node 4, Type 1, BuildingBlock: KUMBOL_clean_sbu_1, # of connection points: 6
#     Node 5, Type 1, BuildingBlock: KUMBOL_clean_sbu_1, # of connection points: 6
#     Edge 6, Type (0, 1), BuildingBlock: EZIPEK_clean_linker_0, # of connection points: 2
#     Edge 7, Type (0, 1), BuildingBlock: EZIPEK_clean_linker_0, # of connection points: 2
#     Edge 8, Type (0, 1), BuildingBlock: EZIPEK_clean_linker_0, # of connection points: 2
#     Edge 9, Type (0, 1), BuildingBlock: EZIPEK_clean_linker_0, # of connection points: 2
#     Edge 10, Type (0, 1), BuildingBlock: EZIPEK_clean_linker_0, # of connection points: 2
#     Edge 11, Type (0, 1), BuildingBlock: EZIPEK_clean_linker_0, # of connection points: 2
#     Edge 12, Type (0, 1), BuildingBlock: EZIPEK_clean_linker_0, # of connection points: 2
#     Edge 13, Type (0, 1), BuildingBlock: EZIPEK_clean_linker_0, # of connection points: 2
#     Edge 14, Type (0, 1), BuildingBlock: EZIPEK_clean_linker_0, # of connection points: 2
#     Edge 15, Type (0, 1), BuildingBlock: EZIPEK_clean_linker_0, # of connection points: 2
#     Edge 16, Type (0, 1), BuildingBlock: EZIPEK_clean_linker_0, # of connection points: 2
#     Edge 17, Type (0, 1), BuildingBlock: EZIPEK_clean_linker_0, # of connection points: 2
# Relax obj value: 0.019
# Max RMSD: 0.146
# Mean RMSD: 0.088
data_MOF--net-rtl--node1-KUMBOL_clean_sbu_1--node2-ESEHIV_clean_linker_0--edge1-EZIPEK_clean_linker_0
_symmetry_space_group_name_H-M    P1
_symmetry_Int_Tables_number       1
_symmetry_cell_setting            triclinic
loop_
_symmetry_equiv_pos_as_xyz
'x, y, z'
_cell_length_a     22.104561
_cell_length_b     23.038471
_cell_length_c     21.012934
_cell_angle_alpha  72.585501
_cell_angle_beta   98.911395
_cell_angle_gamma 90.664377
loop_
_atom_site_label
_atom_site_type_symbol
_atom_site_fract_x
_atom_site_fract_y
_atom_site_fract_z
_atom_type_partial_charge
H0 H 0.13665 0.91368 0.02074 0.0
H1 H 0.26709 0.77102 0.14092 0.0
H2 H 0.26405 0.84244 0.92578 0.0
C3 C 0.17561 0.8839 0.02478 0.0
C4 C 0.19703 0.88151 0.96622 0.0
C5 C 0.20236 0.84556 0.0882 0.0
C6 C 0.24921 0.80317 0.09239 0.0
C7 C 0.27227 0.80186 0.03388 0.0
C8 C 0.24755 0.84347 0.97147 0.0
H9 H 0.61477 0.63048 0.67052 0.0
H10 H 0.72255 0.7601 0.54811 0.0
H11 H 0.71281 0.76292 0.75051 0.0
C12 C 0.64345 0.66969 0.66393 0.0
C13 C 0.65859 0.69548 0.71693 0.0
C14 C 0.66768 0.69213 0.60379 0.0
C15 C 0.70433 0.74285 0.59505 0.0
C16 C 0.72279 0.76788 0.64797 0.0
C17 C 0.6988 0.74454 0.70891 0.0
H18 H 0.87858 0.10006 0.14243 0.0
H19 H 0.76475 0.20888 0.21406 0.0
H20 H 0.74161 0.2244 1.00183 0.0
C21 C 0.84118 0.13327 0.13243 0.0
C22 C 0.81264 0.16079 0.06607 0.0
C23 C 0.82349 0.14997 0.18576 0.0
C24 C 0.77711 0.19483 0.17275 0.0
C25 C 0.74646 0.22134 0.10658 0.0
C26 C 0.76405 0.2035 0.0533 0.0
H27 H 0.36684 0.4028 0.43553 0.0
H28 H 0.24069 0.27783 0.5356 0.0
H29 H 0.2644 0.28738 0.33322 0.0
C30 C 0.33372 0.36778 0.43516 0.0
C31 C 0.31935 0.34779 0.37775 0.0
C32 C 0.30506 0.34283 0.49194 0.0
C33 C 0.2626 0.29731 0.49157 0.0
C34 C 0.24773 0.27706 0.43467 0.0
C35 C 0.27578 0.30282 0.3774 0.0
C36 C 0.97698 0.22056 0.5498 0.0
C37 C 0.88262 0.25933 0.47362 0.0
C38 C 0.92084 0.21018 0.51671 0.0
C39 C 0.9031 0.319 0.4624 0.0
C40 C 0.99699 0.2804 0.54073 0.0
C41 C 0.96019 0.32952 0.49593 0.0
N42 N 0.01139 0.17205 0.59224 0.0
C43 C 0.0645 0.18024 0.63091 0.0
C44 C 0.05304 0.28898 0.57751 0.0
C45 C 0.08661 0.23867 0.62338 0.0
Gd46 Gd 0.0593 0.9345 0.55977 0.0
Gd47 Gd 0.9733 0.07513 0.59894 0.0
N48 N 0.90252 0.15205 0.52908 0.0
C49 C 0.82444 0.24706 0.44446 0.0
C50 C 0.84438 0.14015 0.50433 0.0
C51 C 0.80494 0.18723 0.46064 0.0
H52 H 0.82885 0.094 0.5173 0.0
H53 H 0.7595 0.17737 0.43972 0.0
H54 H 0.18589 0.02304 0.56627 0.0
H55 H 0.09052 0.14142 0.66648 0.0
H56 H 0.28944 0.01377 0.62786 0.0
H57 H 0.79372 0.28351 0.41088 0.0
H58 H 0.87465 0.35736 0.42898 0.0
H59 H 0.99656 0.80256 0.62623 0.0
H60 H 0.07023 0.3342 0.57174 0.0
H61 H 0.12948 0.24488 0.65293 0.0
H62 H 0.30404 0.81306 0.78409 0.0
H63 H 0.97502 0.37581 0.48771 0.0
H64 H 0.12885 0.68952 0.78333 0.0
H65 H 0.02504 0.70562 0.71566 0.0
N66 N 0.08283 0.84163 0.64397 0.0
C67 C 0.14009 0.83378 0.68009 0.0
C68 C 0.04176 0.79642 0.65586 0.0
C69 C 0.11643 0.73236 0.74428 0.0
C70 C 0.05781 0.74127 0.70631 0.0
C71 C 0.15841 0.77877 0.73137 0.0
H72 H 0.23283 0.72925 0.8064 0.0
N73 N 0.16109 0.93378 0.61656 0.0
C74 C 0.18031 0.88102 0.66618 0.0
C75 C 0.2795 0.92229 0.68977 0.0
C76 C 0.23994 0.87405 0.70406 0.0
C77 C 0.19996 0.98081 0.60309 0.0
C78 C 0.25939 0.97584 0.63899 0.0
O79 O 0.93532 0.0644 0.49762 0.0
O80 O 0.99958 0.99899 0.46969 0.0
O81 O 0.11487 0.90005 0.50047 0.0
O82 O 0.02318 0.86908 0.50975 0.0
O83 O 0.91017 0.00237 0.57722 0.0
O84 O 0.96877 0.91359 0.59773 0.0
O85 O 0.04943 0.93331 0.66413 0.0
O86 O 0.06489 0.03235 0.65493 0.0
O87 O 0.95663 0.01913 0.69735 0.0
O88 O 0.92592 0.11371 0.66086 0.0
O89 O 0.0845 0.02935 0.50337 0.0
O90 O 0.06447 0.09573 0.562 0.0
C91 C 0.95495 0.0406 0.45458 0.0
C92 C 0.91669 0.94252 0.59462 0.0
C93 C 0.0538 0.88581 0.4032 0.0
C94 C 0.07919 0.88412 0.29462 0.0
C95 C 0.98325 0.93166 0.29903 0.0
C96 C 0.99791 0.91669 0.36909 0.0
C97 C 0.02355 0.91541 0.26192 0.0
C98 C 0.09451 0.86952 0.36544 0.0
C99 C 0.06939 0.87138 0.47762 0.0
C100 C 0.25838 0.81922 0.75487 0.0
C101 C 0.21783 0.77163 0.76805 0.0
H102 H 0.3255 0.91874 0.71775 0.0
C103 C 0.07184 0.9749 0.69074 0.0
C104 C 0.08621 0.08368 0.51212 0.0
C105 C 0.95897 0.07289 0.77722 0.0
C106 C 0.94345 0.09595 0.87927 0.0
C107 C 0.0465 0.0805 0.8594 0.0
C108 C 0.02257 0.07179 0.79762 0.0
C109 C 0.00716 0.0925 0.90022 0.0
C110 C 0.91944 0.08553 0.81792 0.0
C111 C 0.93352 0.06442 0.71198 0.0
H112 H 0.94032 0.95573 0.27346 0.0
H113 H 0.96514 0.92922 0.39638 0.0
H114 H 0.01131 0.92711 0.20751 0.0
H115 H 0.13761 0.84557 0.39079 0.0
H116 H 0.09562 0.07908 0.87504 0.0
H117 H 0.05361 0.06523 0.76533 0.0
H118 H 0.02631 0.10052 0.9474 0.0
H119 H 0.87029 0.08851 0.80142 0.0
C120 C 0.71219 0.50755 0.11861 0.0
C121 C 0.74882 0.60461 0.05621 0.0
C122 C 0.70146 0.56913 0.08397 0.0
C123 C 0.80685 0.57723 0.06302 0.0
C124 C 0.77102 0.48045 0.12737 0.0
C125 C 0.81792 0.51535 0.0985 0.0
N126 N 0.66598 0.47487 0.14613 0.0
C127 C 0.67722 0.41671 0.18826 0.0
C128 C 0.78139 0.41939 0.16624 0.0
C129 C 0.73454 0.3877 0.19767 0.0
Gd130 Gd 0.43321 0.48052 0.99093 0.0
Gd131 Gd 0.57059 0.52768 0.12201 0.0
N132 N 0.64457 0.5943 0.07703 0.0
C133 C 0.73637 0.66657 0.02228 0.0
C134 C 0.63256 0.65504 0.04587 0.0
C135 C 0.67813 0.69195 0.01754 0.0
H136 H 0.58754 0.6748 0.04181 0.0
H137 H 0.66828 0.73991 0.9919 0.0
H138 H 0.47972 0.33666 0.01606 0.0
H139 H 0.6417 0.39214 0.21406 0.0
H140 H 0.44657 0.23286 0.06798 0.0
H141 H 0.77149 0.69527 1.00002 0.0
H142 H 0.84367 0.60366 0.04159 0.0
H143 H 0.30781 0.57352 0.96369 0.0
H144 H 0.82585 0.39686 0.17387 0.0
H145 H 0.74262 0.34101 0.2294 0.0
H146 H 0.25211 0.26472 0.12981 0.0
H147 H 0.86322 0.49514 0.10425 0.0
H148 H 0.1689 0.46907 0.06118 0.0
H149 H 0.20539 0.56788 0.99665 0.0
N150 N 0.33184 0.48008 0.01376 0.0
C151 C 0.31107 0.42477 0.04542 0.0
C152 C 0.29358 0.53062 0.99383 0.0
C153 C 0.21449 0.47152 0.04784 0.0
C154 C 0.23494 0.52736 0.01152 0.0
C155 C 0.25211 0.41908 0.06397 0.0
H156 H 0.18699 0.35603 0.11125 0.0
N157 N 0.40333 0.3802 0.03528 0.0
C158 C 0.3475 0.37317 0.05561 0.0
C159 C 0.3632 0.26388 0.09079 0.0
C160 C 0.32639 0.31481 0.08506 0.0
C161 C 0.43757 0.33082 0.03674 0.0
C162 C 0.41857 0.27194 0.06551 0.0
O163 O 0.58755 0.54932 0.01418 0.0
O164 O 0.49124 0.56294 0.95522 0.0
O165 O 0.44441 0.44837 0.90571 0.0
O166 O 0.3689 0.51003 0.89718 0.0
O167 O 0.50107 0.60496 0.06868 0.0
O168 O 0.41462 0.56709 0.01641 0.0
O169 O 0.44435 0.42913 0.10291 0.0
O170 O 0.47523 0.50612 0.14665 0.0
O171 O 0.58546 0.59035 0.18148 0.0
O172 O 0.59164 0.49329 0.23169 0.0
O173 O 0.52735 0.43867 1.00467 0.0
O174 O 0.56134 0.43149 0.11556 0.0
C175 C 0.55091 0.56318 0.95582 0.0
C176 C 0.44272 0.60862 0.04127 0.0
C177 C 0.35208 0.43787 0.83722 0.0
C178 C 0.31954 0.39704 0.74329 0.0
C179 C 0.26392 0.37378 0.83827 0.0
C180 C 0.30371 0.40864 0.86878 0.0
C181 C 0.27164 0.36805 0.77576 0.0
C182 C 0.36001 0.4318 0.7743 0.0
C183 C 0.39381 0.47523 0.86901 0.0
C184 C 0.26891 0.30916 0.10646 0.0
C185 C 0.23187 0.36118 0.09598 0.0
H186 H 0.34858 0.21822 0.11301 0.0
C187 C 0.44799 0.45465 0.15139 0.0
C188 C 0.56484 0.41502 0.06133 0.0
C189 C 0.64749 0.55695 0.28804 0.0
C190 C 0.68212 0.58993 0.38721 0.0
C191 C 0.75614 0.56331 0.32521 0.0
C192 C 0.70856 0.55046 0.27993 0.0
C193 C 0.74311 0.58328 0.37837 0.0
C194 C 0.63443 0.5759 0.34225 0.0
C195 C 0.59651 0.54748 0.2389 0.0
H196 H 0.22675 0.35145 0.86299 0.0
H197 H 0.29627 0.41313 0.91666 0.0
H198 H 0.24015 0.34112 0.75251 0.0
H199 H 0.39701 0.45435 0.74927 0.0
H200 H 0.80324 0.55838 0.31868 0.0
H201 H 0.71945 0.53611 0.23847 0.0
H202 H 0.78054 0.59375 0.41255 0.0
H203 H 0.58724 0.58113 0.34862 0.0
C204 C 0.13951 0.24193 0.43435 0.0
C205 C 0.20247 0.22847 0.43638 0.0
C206 C 0.17985 0.12088 0.45423 0.0
C207 C 0.12157 0.13242 0.46952 0.0
N208 N 0.03655 0.20402 0.43612 0.0
N209 N 0.28358 0.15433 0.44986 0.0
C210 C 0.09844 0.19331 0.4484 0.0
C211 C 0.22278 0.16788 0.44553 0.0
N212 N 0.11965 0.30085 0.42169 0.0
N213 N 0.19295 0.0675 0.44267 0.0
H214 H 0.31676 0.18722 0.44346 0.0
H215 H 0.30157 0.1098 0.46505 0.0
H216 H 0.16076 0.03464 0.44041 0.0
H217 H 0.23316 0.05955 0.42596 0.0
H218 H 0.07615 0.31318 0.42744 0.0
H219 H 0.1478 0.33767 0.40754 0.0
H220 H 0.01551 0.24697 0.4132 0.0
H221 H 0.00608 0.16854 0.44246 0.0
C222 C 0.30878 0.72087 0.98848 0.0
C223 C 0.31852 0.75405 0.03606 0.0
C224 C 0.40955 0.68846 0.09223 0.0
C225 C 0.40477 0.66295 0.03771 0.0
N226 N 0.36059 0.67581 0.92142 0.0
N227 N 0.3905 0.77927 0.12224 0.0
C228 C 0.35792 0.68588 0.98169 0.0
C229 C 0.37287 0.74116 0.08456 0.0
N230 N 0.2521 0.71894 0.95284 0.0
N231 N 0.44516 0.66087 0.15283 0.0
H232 H 0.36693 0.82021 0.11527 0.0
H233 H 0.43231 0.77333 0.1546 0.0
H234 H 0.4674 0.61867 0.16398 0.0
H235 H 0.44579 0.67627 0.19482 0.0
H236 H 0.24333 0.68983 0.9231 0.0
H237 H 0.213 0.73919 0.96044 0.0
H238 H 0.32825 0.69512 0.8786 0.0
H239 H 0.39831 0.65413 0.91278 0.0
C240 C 0.82485 0.8013 0.61434 0.0
C241 C 0.77211 0.81386 0.63946 0.0
C242 C 0.81339 0.914 0.6382 0.0
C243 C 0.86146 0.90355 0.60403 0.0
N244 N 0.89035 0.84653 0.53325 0.0
N245 N 0.70981 0.88995 0.6598 0.0
C246 C 0.86051 0.84989 0.58423 0.0
C247 C 0.7644 0.87249 0.64713 0.0
N248 N 0.84159 0.74303 0.61947 0.0
N249 N 0.81446 0.96178 0.66399 0.0
H250 H 0.67231 0.86201 0.66422 0.0
H251 H 0.69997 0.9343 0.65908 0.0
H252 H 0.84789 0.99399 0.65836 0.0
H253 H 0.78421 0.96663 0.69566 0.0
H254 H 0.88206 0.73251 0.60478 0.0
H255 H 0.81901 0.70536 0.64533 0.0
H256 H 0.88783 0.80898 0.51501 0.0
H257 H 0.90959 0.8846 0.50343 0.0
C258 C 0.64504 0.257 0.1262 0.0
C259 C 0.69716 0.26915 0.09294 0.0
C260 C 0.6498 0.36748 0.02399 0.0
C261 C 0.60513 0.36157 0.06703 0.0
N262 N 0.55887 0.29785 0.15945 0.0
N263 N 0.75496 0.34405 0.02167 0.0
C264 C 0.60266 0.30557 0.11876 0.0
C265 C 0.70123 0.32665 0.04499 0.0
N266 N 0.63412 0.19869 0.16173 0.0
N267 N 0.64292 0.41006 0.96202 0.0
H268 H 0.79535 0.31746 0.03965 0.0
H269 H 0.76077 0.38795 0.99088 0.0
H270 H 0.60458 0.43921 0.94186 0.0
H271 H 0.67279 0.41177 0.92767 0.0
H272 H 0.59387 0.18633 0.1816 0.0
H273 H 0.66226 0.16149 0.16524 0.0
H274 H 0.56004 0.26156 0.20346 0.0
H275 H 0.52217 0.3287 0.15004 0.0
C276 C 0.13313 0.80822 0.17545 0.0
C277 C 0.17868 0.84851 0.14974 0.0
C278 C 0.16609 0.90697 0.2275 0.0
C279 C 0.12028 0.86689 0.2529 0.0
N280 N 0.06972 0.77223 0.26312 0.0
N281 N 0.24839 0.9274 0.16029 0.0
C282 C 0.10709 0.815 0.23081 0.0
C283 C 0.19842 0.89503 0.1789 0.0
N284 N 0.11279 0.76535 0.14489 0.0
N285 N 0.17666 0.95787 0.24767 0.0
H286 H 0.27268 0.91998 0.12445 0.0
H287 H 0.26891 0.95794 0.18407 0.0
H288 H 0.15544 0.96681 0.28494 0.0
H289 H 0.20384 0.99286 0.22517 0.0
H290 H 0.07478 0.73935 0.15582 0.0
H291 H 0.13171 0.75816 0.10525 0.0
H292 H 0.06264 0.73049 0.25401 0.0
H293 H 0.04982 0.77627 0.30359 0.0
C294 C 0.56929 0.67137 0.77997 0.0
C295 C 0.63328 0.66758 0.78112 0.0
C296 C 0.64383 0.59059 0.89296 0.0
C297 C 0.57872 0.5942 0.8923 0.0
N298 N 0.48082 0.61878 0.81746 0.0
N299 N 0.73331 0.63077 0.84268 0.0
C300 C 0.54158 0.62964 0.8312 0.0
C301 C 0.67099 0.62956 0.83892 0.0
N302 N 0.53466 0.71574 0.7297 0.0
N303 N 0.67944 0.54506 0.94071 0.0
H304 H 0.75516 0.65383 0.80239 0.0
H305 H 0.76376 0.61294 0.8874 0.0
H306 H 0.66295 0.5113 0.97802 0.0
H307 H 0.72492 0.53529 0.93914 0.0
H308 H 0.48885 0.72556 0.73018 0.0
H309 H 0.55353 0.74716 0.69155 0.0
H310 H 0.45298 0.64082 0.77197 0.0
H311 H 0.46069 0.58033 0.84453 0.0
C312 C 0.82763 0.07695 0.30222 0.0
C313 C 0.85617 0.12169 0.2551 0.0
C314 C 0.95303 0.10078 0.33291 0.0
C315 C 0.92283 0.06217 0.38378 0.0
N316 N 0.83051 0.01431 0.41798 0.0
N317 N 0.94234 0.18471 0.22958 0.0
C318 C 0.85972 0.05067 0.36877 0.0
C319 C 0.91782 0.13609 0.27164 0.0
N320 N 0.77091 0.05789 0.28258 0.0
N321 N 0.0154 0.10259 0.34181 0.0
H322 H 0.91769 0.21214 0.1843 0.0
H323 H 0.9849 0.20145 0.24277 0.0
H324 H 0.04322 0.07477 0.38389 0.0
H325 H 0.03978 0.12596 0.30388 0.0
H326 H 0.75045 0.02076 0.3122 0.0
H327 H 0.74598 0.07626 0.23429 0.0
H328 H 0.78311 0.01086 0.41319 0.0
H329 H 0.85376 0.9891 0.46488 0.0
C330 C 0.2828 0.41415 0.55608 0.0
C331 C 0.31804 0.36447 0.55243 0.0
C332 C 0.3618 0.34166 0.6723 0.0
C333 C 0.32587 0.39079 0.67618 0.0
N334 N 0.26311 0.48186 0.62031 0.0
N335 N 0.4002 0.28918 0.60121 0.0
C336 C 0.29001 0.42979 0.61735 0.0
C337 C 0.36071 0.33098 0.60879 0.0
N338 N 0.24046 0.44452 0.50187 0.0
N339 N 0.39491 0.30381 0.72991 0.0
H340 H 0.39995 0.28008 0.55542 0.0
H341 H 0.43631 0.26709 0.6383 0.0
H342 H 0.39856 0.31171 0.77671 0.0
H343 H 0.41624 0.26301 0.73235 0.0
H344 H 0.20803 0.47615 0.50365 0.0
H345 H 0.23537 0.43566 0.4555 0.0
H346 H 0.24125 0.51539 0.57808 0.0
H347 H 0.26707 0.49412 0.66469 0.0
C348 C 0.62999 0.69067 0.48543 0.0
C349 C 0.66057 0.65998 0.55134 0.0
C350 C 0.68968 0.57621 0.51131 0.0
C351 C 0.66894 0.61192 0.44374 0.0
N352 N 0.62501 0.70698 0.36544 0.0
N353 N 0.72719 0.5765 0.62551 0.0
C354 C 0.63987 0.66999 0.43039 0.0
C355 C 0.69194 0.60312 0.56422 0.0
N356 N 0.59153 0.73963 0.47565 0.0
N357 N 0.70671 0.51635 0.52498 0.0
H358 H 0.7315 0.59487 0.66561 0.0
H359 H 0.7565 0.5388 0.63473 0.0
H360 H 0.70478 0.49499 0.48741 0.0
H361 H 0.71661 0.48659 0.57387 0.0
H362 H 0.56353 0.76054 0.42989 0.0
H363 H 0.5832 0.75542 0.51527 0.0
H364 H 0.60995 0.75222 0.3533 0.0
H365 H 0.6327 0.69439 0.3236 0.0
C366 C 0.8766 0.18982 0.97336 0.0
C367 C 0.83794 0.14756 0.01029 0.0
C368 C 0.86601 0.07124 0.95894 0.0
C369 C 0.90254 0.11452 0.92 0.0
N370 N 0.92979 0.21907 0.87676 0.0
N371 N 0.78562 0.05314 0.0286 0.0
C372 C 0.90356 0.17522 0.92285 0.0
C373 C 0.82925 0.08984 0.99977 0.0
N374 N 0.89064 0.24229 0.98922 0.0
N375 N 0.86866 0.01186 0.9594 0.0
H376 H 0.7581 0.0657 0.05878 0.0
H377 H 0.77297 0.01299 0.01786 0.0
H378 H 0.89491 0.99661 0.92999 0.0
H379 H 0.84848 0.97688 0.99247 0.0
H380 H 0.92399 0.27133 0.96914 0.0
H381 H 0.87313 0.2542 0.02704 0.0
H382 H 0.92647 0.26525 0.8722 0.0
H383 H 0.94968 0.21003 0.83865 0.0
C384 C 0.40504 0.34538 0.31259 0.0
C385 C 0.35057 0.37423 0.31805 0.0
C386 C 0.35892 0.45578 0.21326 0.0
C387 C 0.41497 0.42813 0.20961 0.0
N388 N 0.49908 0.35642 0.26505 0.0
N389 N 0.27767 0.45911 0.27831 0.0
C390 C 0.44001 0.37537 0.26161 0.0
C391 C 0.328 0.43011 0.26955 0.0
N392 N 0.42333 0.28909 0.35611 0.0
N393 N 0.33511 0.50637 0.16258 0.0
H394 H 0.25243 0.4403 0.31714 0.0
H395 H 0.26235 0.50302 0.24961 0.0
H396 H 0.35824 0.52852 0.1231 0.0
H397 H 0.29143 0.52516 0.15752 0.0
H398 H 0.45851 0.26263 0.34984 0.0
H399 H 0.4003 0.26662 0.39575 0.0
H400 H 0.52229 0.32181 0.3052 0.0
H401 H 0.52732 0.37992 0.23134 0.0
C402 C 0.18115 0.96431 0.85524 0.0
C403 C 0.16099 0.91058 0.89853 0.0
C404 C 0.0753 0.90818 0.81062 0.0
C405 C 0.10081 0.95622 0.76332 0.0
N406 N 0.18407 0.02543 0.7404 0.0
N407 N 0.09436 0.82535 0.9146 0.0
C408 C 0.15514 0.98354 0.78558 0.0
C409 C 0.10957 0.88088 0.87549 0.0
N410 N 0.22495 0.99716 0.88092 0.0
N411 N 0.01713 0.89005 0.79527 0.0
H412 H 0.11706 0.80398 0.96332 0.0
H413 H 0.06241 0.79815 0.89643 0.0
H414 H 0.98836 0.90986 0.74989 0.0
H415 H 0.99459 0.85983 0.83078 0.0
H416 H 0.23684 0.04033 0.85371 0.0
H417 H 0.24525 0.98366 0.93161 0.0
H418 H 0.2274 0.04083 0.75318 0.0
H419 H 0.16814 0.04118 0.68887 0.0
loop_
_geom_bond_atom_site_label_1
_geom_bond_atom_site_label_2
_geom_bond_distance
_geom_bond_site_symmetry_2
_ccdc_geom_bond_type
H0 C3 0.931 . S
H1 C6 0.928 . S
H2 C8 0.930 . S
C3 H0 0.931 . S
C3 C4 1.413 . S
C3 C5 1.360 1_556 S
C4 C3 1.413 . S
C4 C8 1.429 . S
C5 C3 1.360 1_554 S
C5 C6 1.372 . S
C6 H1 0.928 . S
C6 C5 1.372 . S
C6 C7 1.404 . S
C7 C6 1.404 . S
C7 C8 1.391 1_554 S
C8 H2 0.930 . S
C8 C4 1.429 . S
C8 C7 1.391 1_556 S
H9 C12 0.931 . S
H10 C15 0.928 . S
H11 C17 0.930 . S
C12 H9 0.931 . S
C12 C13 1.413 . S
C12 C14 1.360 . S
C13 C12 1.413 . S
C13 C17 1.429 . S
C14 C12 1.360 . S
C14 C15 1.372 . S
C15 H10 0.928 . S
C15 C14 1.372 . S
C15 C16 1.404 . S
C16 C15 1.404 . S
C16 C17 1.391 . S
C17 H11 0.930 . S
C17 C13 1.429 . S
C17 C16 1.391 . S
H18 C21 0.931 . S
H19 C24 0.928 . S
H20 C26 0.930 . S
C21 H18 0.931 . S
C21 C22 1.413 . S
C21 C23 1.360 . S
C22 C21 1.413 . S
C22 C26 1.429 . S
C23 C21 1.360 . S
C23 C24 1.372 . S
C24 H19 0.928 . S
C24 C23 1.372 . S
C24 C25 1.404 . S
C25 C24 1.404 . S
C25 C26 1.391 . S
C26 H20 0.930 . S
C26 C22 1.429 . S
C26 C25 1.391 . S
H27 C30 0.931 . S
H28 C33 0.928 . S
H29 C35 0.930 . S
C30 H27 0.931 . S
C30 C31 1.413 . S
C30 C32 1.360 . S
C31 C30 1.413 . S
C31 C35 1.429 . S
C32 C30 1.360 . S
C32 C33 1.372 . S
C33 H28 0.928 . S
C33 C32 1.372 . S
C33 C34 1.404 . S
C34 C33 1.404 . S
C34 C35 1.391 . S
C35 H29 0.930 . S
C35 C31 1.429 . S
C35 C34 1.391 . S
C36 C38 1.422 . S
C36 C40 1.415 . S
C36 N42 1.369 . S
C37 C38 1.421 . S
C37 C39 1.417 . S
C37 C49 1.422 . S
C38 C36 1.422 . S
C38 C37 1.421 . S
C38 N48 1.359 . S
C39 C37 1.417 . S
C39 C41 1.329 . S
C39 H58 0.930 . S
C40 C36 1.415 . S
C40 C41 1.437 . S
C40 C44 1.413 . S
C41 C39 1.329 . S
C41 C40 1.437 . S
C41 H63 0.929 . S
N42 C36 1.369 . S
N42 C43 1.338 . S
N42 Gd47 2.622 . S
C43 N42 1.338 . S
C43 C45 1.378 . S
C43 H55 0.929 1_655 S
C44 C40 1.413 . S
C44 C45 1.348 . S
C44 H60 0.931 . S
C45 C43 1.378 . S
C45 C44 1.348 . S
C45 H61 0.930 1_655 S
Gd46 N66 2.622 . S
Gd46 N73 2.570 . S
Gd46 O80 2.353 1_465 S
Gd46 O81 2.468 . S
Gd46 O82 2.427 . S
Gd46 O84 2.388 1_455 S
Gd46 O85 2.386 . S
Gd46 O89 2.307 1_565 S
Gd46 C99 2.805 . S
Gd47 N42 2.622 . S
Gd47 N48 2.570 . S
Gd47 O79 2.386 . S
Gd47 O83 2.307 1_545 S
Gd47 O86 2.353 1_655 S
Gd47 O87 2.468 . S
Gd47 O88 2.427 . S
Gd47 O90 2.388 1_655 S
Gd47 C111 2.805 . S
N48 C38 1.359 . S
N48 Gd47 2.570 . S
N48 C50 1.343 . S
C49 C37 1.422 . S
C49 C51 1.321 . S
C49 H57 0.931 . S
C50 N48 1.343 . S
C50 C51 1.390 . S
C50 H52 0.931 . S
C51 C49 1.321 . S
C51 C50 1.390 . S
C51 H53 0.930 . S
H52 C50 0.931 . S
H53 C51 0.930 . S
H54 C77 0.931 . S
H55 C43 0.929 1_455 S
H56 C78 0.930 . S
H57 C49 0.931 . S
H58 C39 0.930 . S
H59 C68 0.929 1_655 S
H60 C44 0.931 . S
H61 C45 0.930 1_455 S
H62 C100 0.930 . S
H63 C41 0.929 . S
H64 C69 0.931 . S
H65 C70 0.930 1_655 S
N66 Gd46 2.622 . S
N66 C67 1.369 . S
N66 C68 1.338 . S
C67 N66 1.369 . S
C67 C71 1.415 . S
C67 C74 1.422 . S
C68 H59 0.929 1_455 S
C68 N66 1.338 . S
C68 C70 1.378 . S
C69 H64 0.931 . S
C69 C70 1.348 . S
C69 C71 1.413 . S
C70 H65 0.930 1_455 S
C70 C68 1.378 . S
C70 C69 1.348 . S
C71 C67 1.415 . S
C71 C69 1.413 . S
C71 C101 1.437 . S
H72 C101 0.929 . S
N73 Gd46 2.570 . S
N73 C74 1.359 . S
N73 C77 1.343 . S
C74 C67 1.422 . S
C74 N73 1.359 . S
C74 C76 1.421 . S
C75 C76 1.422 . S
C75 C78 1.321 . S
C75 H102 0.931 . S
C76 C74 1.421 . S
C76 C75 1.422 . S
C76 C100 1.417 . S
C77 H54 0.931 . S
C77 N73 1.343 . S
C77 C78 1.390 . S
C78 H56 0.930 . S
C78 C75 1.321 . S
C78 C77 1.390 . S
O79 Gd47 2.386 . S
O79 C91 1.265 . S
O80 Gd46 2.353 1_645 S
O80 C91 1.242 . S
O81 Gd46 2.468 . S
O81 C99 1.263 . S
O82 Gd46 2.427 . S
O82 C99 1.252 . S
O83 Gd47 2.307 1_565 S
O83 C92 1.261 . S
O84 Gd46 2.388 1_655 S
O84 C92 1.252 . S
O85 Gd46 2.386 . S
O85 C103 1.265 . S
O86 Gd47 2.353 1_455 S
O86 C103 1.242 1_545 S
O87 Gd47 2.468 . S
O87 C111 1.263 . S
O88 Gd47 2.427 . S
O88 C111 1.252 . S
O89 Gd46 2.307 1_545 S
O89 C104 1.261 . S
O90 Gd47 2.388 1_455 S
O90 C104 1.252 . S
C91 O79 1.265 . S
C91 O80 1.242 . S
C92 O83 1.261 . S
C92 O84 1.252 . S
C93 C96 1.394 . S
C93 C98 1.370 . S
C93 C99 1.500 . S
C94 C97 1.383 . S
C94 C98 1.395 . S
C95 C96 1.396 . S
C95 C97 1.365 . S
C95 H112 0.929 . S
C96 C93 1.394 . S
C96 C95 1.396 . S
C96 H113 0.930 . S
C97 C94 1.383 . S
C97 C95 1.365 . S
C97 H114 0.931 . S
C98 C93 1.370 . S
C98 C94 1.395 . S
C98 H115 0.930 . S
C99 Gd46 2.805 . S
C99 O81 1.263 . S
C99 O82 1.252 . S
C99 C93 1.500 . S
C100 H62 0.930 . S
C100 C76 1.417 . S
C100 C101 1.329 . S
C101 C71 1.437 . S
C101 H72 0.929 . S
C101 C100 1.329 . S
H102 C75 0.931 . S
C103 O85 1.265 . S
C103 O86 1.242 1_565 S
C104 O89 1.261 . S
C104 O90 1.252 . S
C105 C108 1.394 . S
C105 C110 1.370 . S
C105 C111 1.500 . S
C106 C109 1.383 . S
C106 C110 1.395 . S
C107 C108 1.396 . S
C107 C109 1.365 . S
C107 H116 0.929 . S
C108 C105 1.394 . S
C108 C107 1.396 . S
C108 H117 0.930 . S
C109 C106 1.383 . S
C109 C107 1.365 . S
C109 H118 0.931 . S
C110 C105 1.370 . S
C110 C106 1.395 . S
C110 H119 0.930 . S
C111 Gd47 2.805 . S
C111 O87 1.263 . S
C111 O88 1.252 . S
C111 C105 1.500 . S
H112 C95 0.929 . S
H113 C96 0.930 . S
H114 C97 0.931 . S
H115 C98 0.930 . S
H116 C107 0.929 . S
H117 C108 0.930 . S
H118 C109 0.931 . S
H119 C110 0.930 . S
C120 C122 1.422 . S
C120 C124 1.415 . S
C120 N126 1.369 . S
C121 C122 1.421 . S
C121 C123 1.417 . S
C121 C133 1.422 . S
C122 C120 1.422 . S
C122 C121 1.421 . S
C122 N132 1.359 . S
C123 C121 1.417 . S
C123 C125 1.329 . S
C123 H142 0.930 . S
C124 C120 1.415 . S
C124 C125 1.437 . S
C124 C128 1.413 . S
C125 C123 1.329 . S
C125 C124 1.437 . S
C125 H147 0.929 . S
N126 C120 1.369 . S
N126 C127 1.338 . S
N126 Gd131 2.622 . S
C127 N126 1.338 . S
C127 C129 1.378 . S
C127 H139 0.929 . S
C128 C124 1.413 . S
C128 C129 1.348 . S
C128 H144 0.931 . S
C129 C127 1.378 . S
C129 C128 1.348 . S
C129 H145 0.930 . S
Gd130 N150 2.621 . S
Gd130 N157 2.570 1_556 S
Gd130 O164 2.353 . S
Gd130 O165 2.468 . S
Gd130 O166 2.427 . S
Gd130 O168 2.389 . S
Gd130 O169 2.386 1_556 S
Gd130 O173 2.307 1_556 S
Gd130 C183 2.805 . S
Gd131 N126 2.622 . S
Gd131 N132 2.570 . S
Gd131 O163 2.386 . S
Gd131 O167 2.307 . S
Gd131 O170 2.353 . S
Gd131 O171 2.468 . S
Gd131 O172 2.427 . S
Gd131 O174 2.388 . S
Gd131 C195 2.805 . S
N132 C122 1.359 . S
N132 Gd131 2.570 . S
N132 C134 1.343 . S
C133 C121 1.422 . S
C133 C135 1.321 . S
C133 H141 0.931 . S
C134 N132 1.343 . S
C134 C135 1.390 . S
C134 H136 0.931 . S
C135 C133 1.321 . S
C135 C134 1.390 . S
C135 H137 0.930 . S
H136 C134 0.931 . S
H137 C135 0.930 . S
H138 C161 0.931 . S
H139 C127 0.929 . S
H140 C162 0.930 . S
H141 C133 0.931 . S
H142 C123 0.930 . S
H143 C152 0.929 . S
H144 C128 0.931 . S
H145 C129 0.930 . S
H146 C184 0.930 . S
H147 C125 0.929 . S
H148 C153 0.931 . S
H149 C154 0.930 . S
N150 Gd130 2.621 . S
N150 C151 1.370 1_556 S
N150 C152 1.338 . S
C151 N150 1.370 1_554 S
C151 C155 1.415 . S
C151 C158 1.422 . S
C152 H143 0.929 . S
C152 N150 1.338 . S
C152 C154 1.378 . S
C153 H148 0.931 . S
C153 C154 1.348 1_554 S
C153 C155 1.413 . S
C154 H149 0.930 . S
C154 C152 1.378 . S
C154 C153 1.348 1_556 S
C155 C151 1.415 . S
C155 C153 1.413 . S
C155 C185 1.437 . S
H156 C185 0.929 . S
N157 Gd130 2.570 1_554 S
N157 C158 1.359 . S
N157 C161 1.343 . S
C158 C151 1.422 . S
C158 N157 1.359 . S
C158 C160 1.421 . S
C159 C160 1.422 . S
C159 C162 1.321 . S
C159 H186 0.931 . S
C160 C158 1.421 . S
C160 C159 1.422 . S
C160 C184 1.417 . S
C161 H138 0.931 . S
C161 N157 1.343 . S
C161 C162 1.390 . S
C162 H140 0.930 . S
C162 C159 1.321 . S
C162 C161 1.390 . S
O163 Gd131 2.386 . S
O163 C175 1.265 1_554 S
O164 Gd130 2.353 . S
O164 C175 1.242 . S
O165 Gd130 2.468 . S
O165 C183 1.263 . S
O166 Gd130 2.427 . S
O166 C183 1.252 . S
O167 Gd131 2.307 . S
O167 C176 1.261 . S
O168 Gd130 2.389 . S
O168 C176 1.249 1_556 S
O169 Gd130 2.386 1_554 S
O169 C187 1.265 . S
O170 Gd131 2.353 . S
O170 C187 1.242 . S
O171 Gd131 2.468 . S
O171 C195 1.263 . S
O172 Gd131 2.427 . S
O172 C195 1.252 . S
O173 Gd130 2.307 1_554 S
O173 C188 1.261 . S
O174 Gd131 2.388 . S
O174 C188 1.252 . S
C175 O163 1.265 1_556 S
C175 O164 1.242 . S
C176 O167 1.261 . S
C176 O168 1.249 1_554 S
C177 C180 1.394 . S
C177 C182 1.370 . S
C177 C183 1.500 . S
C178 C181 1.383 . S
C178 C182 1.395 . S
C179 C180 1.396 . S
C179 C181 1.365 . S
C179 H196 0.929 . S
C180 C177 1.394 . S
C180 C179 1.396 . S
C180 H197 0.930 . S
C181 C178 1.383 . S
C181 C179 1.365 . S
C181 H198 0.931 . S
C182 C177 1.370 . S
C182 C178 1.395 . S
C182 H199 0.930 . S
C183 Gd130 2.805 . S
C183 O165 1.263 . S
C183 O166 1.252 . S
C183 C177 1.500 . S
C184 H146 0.930 . S
C184 C160 1.417 . S
C184 C185 1.329 . S
C185 C155 1.437 . S
C185 H156 0.929 . S
C185 C184 1.329 . S
H186 C159 0.931 . S
C187 O169 1.265 . S
C187 O170 1.242 . S
C188 O173 1.261 . S
C188 O174 1.252 . S
C189 C192 1.394 . S
C189 C194 1.370 . S
C189 C195 1.500 . S
C190 C193 1.383 . S
C190 C194 1.395 . S
C191 C192 1.396 . S
C191 C193 1.365 . S
C191 H200 0.929 . S
C192 C189 1.394 . S
C192 C191 1.396 . S
C192 H201 0.930 . S
C193 C190 1.383 . S
C193 C191 1.365 . S
C193 H202 0.931 . S
C194 C189 1.370 . S
C194 C190 1.395 . S
C194 H203 0.930 . S
C195 Gd131 2.805 . S
C195 O171 1.263 . S
C195 O172 1.252 . S
C195 C189 1.500 . S
H196 C179 0.929 . S
H197 C180 0.930 . S
H198 C181 0.931 . S
H199 C182 0.930 . S
H200 C191 0.929 . S
H201 C192 0.930 . S
H202 C193 0.931 . S
H203 C194 0.930 . S
C204 C205 1.363 . S
C204 C210 1.379 . S
C204 N212 1.356 . S
C205 C204 1.363 . S
C205 C211 1.363 . S
C206 C207 1.363 . S
C206 C211 1.379 . S
C206 N213 1.356 . S
C207 C206 1.363 . S
C207 C210 1.363 . S
N208 C210 1.356 . S
N208 H220 0.984 . S
N208 H221 0.985 . S
N209 C211 1.356 . S
N209 H214 0.984 . S
N209 H215 0.985 . S
C210 C204 1.379 . S
C210 C207 1.363 . S
C210 N208 1.356 . S
C211 C205 1.363 . S
C211 C206 1.379 . S
C211 N209 1.356 . S
N212 C204 1.356 . S
N212 H218 0.984 . S
N212 H219 0.984 . S
N213 C206 1.356 . S
N213 H216 0.984 . S
N213 H217 0.985 . S
H214 N209 0.984 . S
H215 N209 0.985 . S
H216 N213 0.984 . S
H217 N213 0.985 . S
H218 N212 0.984 . S
H219 N212 0.984 . S
H220 N208 0.984 . S
H221 N208 0.985 . S
C222 C223 1.363 1_556 S
C222 C228 1.379 . S
C222 N230 1.356 . S
C223 C222 1.363 1_554 S
C223 C229 1.363 . S
C224 C225 1.363 . S
C224 C229 1.379 . S
C224 N231 1.356 . S
C225 C224 1.363 . S
C225 C228 1.363 1_554 S
N226 C228 1.356 . S
N226 H238 0.984 . S
N226 H239 0.985 . S
N227 C229 1.356 . S
N227 H232 0.984 . S
N227 H233 0.985 . S
C228 C222 1.379 . S
C228 C225 1.363 1_556 S
C228 N226 1.356 . S
C229 C223 1.363 . S
C229 C224 1.379 . S
C229 N227 1.356 . S
N230 C222 1.356 . S
N230 H236 0.984 . S
N230 H237 0.984 . S
N231 C224 1.356 . S
N231 H234 0.984 . S
N231 H235 0.985 . S
H232 N227 0.984 . S
H233 N227 0.985 . S
H234 N231 0.984 . S
H235 N231 0.985 . S
H236 N230 0.984 . S
H237 N230 0.984 . S
H238 N226 0.984 . S
H239 N226 0.985 . S
C240 C241 1.363 . S
C240 C246 1.379 . S
C240 N248 1.356 . S
C241 C240 1.363 . S
C241 C247 1.363 . S
C242 C243 1.363 . S
C242 C247 1.379 . S
C242 N249 1.356 . S
C243 C242 1.363 . S
C243 C246 1.363 . S
N244 C246 1.356 . S
N244 H256 0.984 . S
N244 H257 0.985 . S
N245 C247 1.356 . S
N245 H250 0.984 . S
N245 H251 0.985 . S
C246 C240 1.379 . S
C246 C243 1.363 . S
C246 N244 1.356 . S
C247 C241 1.363 . S
C247 C242 1.379 . S
C247 N245 1.356 . S
N248 C240 1.356 . S
N248 H254 0.984 . S
N248 H255 0.984 . S
N249 C242 1.356 . S
N249 H252 0.984 . S
N249 H253 0.985 . S
H250 N245 0.984 . S
H251 N245 0.985 . S
H252 N249 0.984 . S
H253 N249 0.985 . S
H254 N248 0.984 . S
H255 N248 0.984 . S
H256 N244 0.984 . S
H257 N244 0.985 . S
C258 C259 1.363 . S
C258 C264 1.379 . S
C258 N266 1.356 . S
C259 C258 1.363 . S
C259 C265 1.363 . S
C260 C261 1.363 . S
C260 C265 1.379 . S
C260 N267 1.356 1_554 S
C261 C260 1.363 . S
C261 C264 1.363 . S
N262 C264 1.356 . S
N262 H274 0.984 . S
N262 H275 0.985 . S
N263 C265 1.356 . S
N263 H268 0.984 . S
N263 H269 0.985 1_554 S
C264 C258 1.379 . S
C264 C261 1.363 . S
C264 N262 1.356 . S
C265 C259 1.363 . S
C265 C260 1.379 . S
C265 N263 1.356 . S
N266 C258 1.356 . S
N266 H272 0.984 . S
N266 H273 0.984 . S
N267 C260 1.356 1_556 S
N267 H270 0.987 . S
N267 H271 0.985 . S
H268 N263 0.984 . S
H269 N263 0.985 1_556 S
H270 N267 0.987 . S
H271 N267 0.985 . S
H272 N266 0.984 . S
H273 N266 0.984 . S
H274 N262 0.984 . S
H275 N262 0.985 . S
C276 C277 1.363 . S
C276 C282 1.379 . S
C276 N284 1.356 . S
C277 C276 1.363 . S
C277 C283 1.363 . S
C278 C279 1.363 . S
C278 C283 1.379 . S
C278 N285 1.356 1_565 S
C279 C278 1.363 . S
C279 C282 1.363 . S
N280 C282 1.356 . S
N280 H292 0.984 . S
N280 H293 0.985 . S
N281 C283 1.356 . S
N281 H286 0.984 . S
N281 H287 0.985 1_565 S
C282 C276 1.379 . S
C282 C279 1.363 . S
C282 N280 1.356 . S
C283 C277 1.363 . S
C283 C278 1.379 . S
C283 N281 1.356 . S
N284 C276 1.356 . S
N284 H290 0.984 . S
N284 H291 0.984 . S
N285 C278 1.356 1_545 S
N285 H288 0.984 . S
N285 H289 0.985 . S
H286 N281 0.984 . S
H287 N281 0.985 1_545 S
H288 N285 0.984 . S
H289 N285 0.985 . S
H290 N284 0.984 . S
H291 N284 0.984 . S
H292 N280 0.984 . S
H293 N280 0.985 . S
C294 C295 1.363 . S
C294 C300 1.379 . S
C294 N302 1.356 . S
C295 C294 1.363 . S
C295 C301 1.363 . S
C296 C297 1.363 . S
C296 C301 1.379 . S
C296 N303 1.356 . S
C297 C296 1.363 . S
C297 C300 1.363 . S
N298 C300 1.356 . S
N298 H310 0.984 . S
N298 H311 0.985 . S
N299 C301 1.356 . S
N299 H304 0.984 . S
N299 H305 0.985 . S
C300 C294 1.379 . S
C300 C297 1.363 . S
C300 N298 1.356 . S
C301 C295 1.363 . S
C301 C296 1.379 . S
C301 N299 1.356 . S
N302 C294 1.356 . S
N302 H308 0.984 . S
N302 H309 0.984 . S
N303 C296 1.356 . S
N303 H306 0.984 . S
N303 H307 0.985 . S
H304 N299 0.984 . S
H305 N299 0.985 . S
H306 N303 0.984 . S
H307 N303 0.985 . S
H308 N302 0.984 . S
H309 N302 0.984 . S
H310 N298 0.984 . S
H311 N298 0.985 . S
C312 C313 1.363 . S
C312 C318 1.379 . S
C312 N320 1.356 . S
C313 C312 1.363 . S
C313 C319 1.363 . S
C314 C315 1.363 . S
C314 C319 1.379 . S
C314 N321 1.356 . S
C315 C314 1.363 . S
C315 C318 1.363 . S
N316 C318 1.356 1_565 S
N316 H328 0.984 . S
N316 H329 0.985 . S
N317 C319 1.356 . S
N317 H322 0.984 . S
N317 H323 0.985 . S
C318 C312 1.379 . S
C318 C315 1.363 . S
C318 N316 1.356 1_545 S
C319 C313 1.363 . S
C319 C314 1.379 . S
C319 N317 1.356 . S
N320 C312 1.356 . S
N320 H326 0.984 1_545 S
N320 H327 0.984 . S
N321 C314 1.356 . S
N321 H324 0.984 . S
N321 H325 0.985 . S
H322 N317 0.984 . S
H323 N317 0.985 . S
H324 N321 0.984 . S
H325 N321 0.985 . S
H326 N320 0.984 1_565 S
H327 N320 0.984 . S
H328 N316 0.984 . S
H329 N316 0.985 . S
C330 C331 1.363 . S
C330 C336 1.379 . S
C330 N338 1.356 . S
C331 C330 1.363 . S
C331 C337 1.363 . S
C332 C333 1.363 . S
C332 C337 1.379 . S
C332 N339 1.356 . S
C333 C332 1.363 . S
C333 C336 1.363 . S
N334 C336 1.356 . S
N334 H346 0.984 . S
N334 H347 0.985 . S
N335 C337 1.356 . S
N335 H340 0.984 . S
N335 H341 0.985 . S
C336 C330 1.379 . S
C336 C333 1.363 . S
C336 N334 1.356 . S
C337 C331 1.363 . S
C337 C332 1.379 . S
C337 N335 1.356 . S
N338 C330 1.356 . S
N338 H344 0.984 . S
N338 H345 0.984 . S
N339 C332 1.356 . S
N339 H342 0.984 . S
N339 H343 0.985 . S
H340 N335 0.984 . S
H341 N335 0.985 . S
H342 N339 0.984 . S
H343 N339 0.985 . S
H344 N338 0.984 . S
H345 N338 0.984 . S
H346 N334 0.984 . S
H347 N334 0.985 . S
C348 C349 1.363 . S
C348 C354 1.379 . S
C348 N356 1.356 . S
C349 C348 1.363 . S
C349 C355 1.363 . S
C350 C351 1.363 . S
C350 C355 1.379 . S
C350 N357 1.356 . S
C351 C350 1.363 . S
C351 C354 1.363 . S
N352 C354 1.356 . S
N352 H364 0.984 . S
N352 H365 0.985 . S
N353 C355 1.356 . S
N353 H358 0.984 . S
N353 H359 0.985 . S
C354 C348 1.379 . S
C354 C351 1.363 . S
C354 N352 1.356 . S
C355 C349 1.363 . S
C355 C350 1.379 . S
C355 N353 1.356 . S
N356 C348 1.356 . S
N356 H362 0.984 . S
N356 H363 0.984 . S
N357 C350 1.356 . S
N357 H360 0.984 . S
N357 H361 0.985 . S
H358 N353 0.984 . S
H359 N353 0.985 . S
H360 N357 0.984 . S
H361 N357 0.985 . S
H362 N356 0.984 . S
H363 N356 0.984 . S
H364 N352 0.984 . S
H365 N352 0.985 . S
C366 C367 1.363 1_556 S
C366 C372 1.379 . S
C366 N374 1.356 . S
C367 C366 1.363 1_554 S
C367 C373 1.364 . S
C368 C369 1.363 . S
C368 C373 1.375 1_556 S
C368 N375 1.356 1_545 S
C369 C368 1.363 . S
C369 C372 1.363 . S
N370 C372 1.356 . S
N370 H382 0.984 . S
N370 H383 0.985 . S
N371 C373 1.360 . S
N371 H376 0.984 . S
N371 H377 0.985 1_545 S
C372 C366 1.379 . S
C372 C369 1.363 . S
C372 N370 1.356 . S
C373 C367 1.364 . S
C373 C368 1.375 1_554 S
C373 N371 1.360 . S
N374 C366 1.356 . S
N374 H380 0.984 . S
N374 H381 0.984 1_556 S
N375 C368 1.356 1_565 S
N375 H378 0.984 . S
N375 H379 0.985 . S
H376 N371 0.984 . S
H377 N371 0.985 1_565 S
H378 N375 0.984 . S
H379 N375 0.985 . S
H380 N374 0.984 . S
H381 N374 0.984 1_554 S
H382 N370 0.984 . S
H383 N370 0.985 . S
C384 C385 1.363 . S
C384 C390 1.379 . S
C384 N392 1.356 . S
C385 C384 1.363 . S
C385 C391 1.363 . S
C386 C387 1.363 . S
C386 C391 1.379 . S
C386 N393 1.356 . S
C387 C386 1.363 . S
C387 C390 1.363 . S
N388 C390 1.356 . S
N388 H400 0.984 . S
N388 H401 0.985 . S
N389 C391 1.356 . S
N389 H394 0.984 . S
N389 H395 0.985 . S
C390 C384 1.379 . S
C390 C387 1.363 . S
C390 N388 1.356 . S
C391 C385 1.363 . S
C391 C386 1.379 . S
C391 N389 1.356 . S
N392 C384 1.356 . S
N392 H398 0.984 . S
N392 H399 0.984 . S
N393 C386 1.356 . S
N393 H396 0.984 . S
N393 H397 0.985 . S
H394 N389 0.984 . S
H395 N389 0.985 . S
H396 N393 0.984 . S
H397 N393 0.985 . S
H398 N392 0.984 . S
H399 N392 0.984 . S
H400 N388 0.984 . S
H401 N388 0.985 . S
C402 C403 1.363 . S
C402 C408 1.379 . S
C402 N410 1.356 . S
C403 C402 1.363 . S
C403 C409 1.363 . S
C404 C405 1.363 . S
C404 C409 1.379 . S
C404 N411 1.356 . S
C405 C404 1.363 . S
C405 C408 1.363 . S
N406 C408 1.356 1_545 S
N406 H418 0.984 . S
N406 H419 0.985 . S
N407 C409 1.356 . S
N407 H412 0.984 . S
N407 H413 0.985 . S
C408 C402 1.379 . S
C408 C405 1.363 . S
C408 N406 1.356 1_565 S
C409 C403 1.363 . S
C409 C404 1.379 . S
C409 N407 1.356 . S
N410 C402 1.356 . S
N410 H416 0.984 1_565 S
N410 H417 0.984 . S
N411 C404 1.356 . S
N411 H414 0.984 . S
N411 H415 0.985 . S
H412 N407 0.984 . S
H413 N407 0.985 . S
H414 N411 0.984 . S
H415 N411 0.985 . S
H416 N410 0.984 1_545 S
H417 N410 0.984 . S
H418 N406 0.984 . S
H419 N406 0.985 . S
C207 C104 1.555 . S
C205 C34 1.571 . S
C223 C7 1.546 . S
C225 C176 1.539 . S
C241 C16 1.569 . S
C243 C92 1.556 . S
C259 C25 1.544 . S
C261 C188 1.539 . S
C279 C94 1.353 . S
C277 C5 1.522 . S
C297 C175 1.569 . S
C295 C13 1.560 . S
C313 C23 1.546 . S
C315 C91 1.565 . S
C331 C32 1.514 . S
C333 C178 1.360 . S
C351 C190 1.359 . S
C349 C14 1.512 . S
C369 C106 1.352 . S
C367 C22 1.521 . S
C387 C187 1.567 . S
C385 C31 1.560 . S
C403 C4 1.543 . S
C405 C103 1.563 . S
