# Generated by pormake.
# Topology pyr, (3,6)-cn, num edge types: 1
# Building blocks:
#     Node 0, Type 0, BuildingBlock: QEWDON_clean_linker_0, # of connection points: 3
#     Node 1, Type 0, BuildingBlock: QEWDON_clean_linker_0, # of connection points: 3
#     Node 2, Type 0, BuildingBlock: QEWDON_clean_linker_0, # of connection points: 3
#     Node 3, Type 0, BuildingBlock: QEWDON_clean_linker_0, # of connection points: 3
#     Node 4, Type 0, BuildingBlock: QEWDON_clean_linker_0, # of connection points: 3
#     Node 5, Type 0, BuildingBlock: QEWDON_clean_linker_0, # of connection points: 3
#     Node 6, Type 0, BuildingBlock: QEWDON_clean_linker_0, # of connection points: 3
#     Node 7, Type 0, BuildingBlock: QEWDON_clean_linker_0, # of connection points: 3
#     Node 8, Type 1, BuildingBlock: VOLQOD_clean_sbu_1, # of connection points: 6
#     Node 9, Type 1, BuildingBlock: VOLQOD_clean_sbu_1, # of connection points: 6
#     Node 10, Type 1, BuildingBlock: VOLQOD_clean_sbu_1, # of connection points: 6
#     Node 11, Type 1, BuildingBlock: VOLQOD_clean_sbu_1, # of connection points: 6
#     Edge 12, Type (0, 1), BuildingBlock: XUDNAN_clean_linker_2, # of connection points: 2
#     Edge 13, Type (0, 1), BuildingBlock: XUDNAN_clean_linker_2, # of connection points: 2
#     Edge 14, Type (0, 1), BuildingBlock: XUDNAN_clean_linker_2, # of connection points: 2
#     Edge 15, Type (0, 1), BuildingBlock: XUDNAN_clean_linker_2, # of connection points: 2
#     Edge 16, Type (0, 1), BuildingBlock: XUDNAN_clean_linker_2, # of connection points: 2
#     Edge 17, Type (0, 1), BuildingBlock: XUDNAN_clean_linker_2, # of connection points: 2
#     Edge 18, Type (0, 1), BuildingBlock: XUDNAN_clean_linker_2, # of connection points: 2
#     Edge 19, Type (0, 1), BuildingBlock: XUDNAN_clean_linker_2, # of connection points: 2
#     Edge 20, Type (0, 1), BuildingBlock: XUDNAN_clean_linker_2, # of connection points: 2
#     Edge 21, Type (0, 1), BuildingBlock: XUDNAN_clean_linker_2, # of connection points: 2
#     Edge 22, Type (0, 1), BuildingBlock: XUDNAN_clean_linker_2, # of connection points: 2
#     Edge 23, Type (0, 1), BuildingBlock: XUDNAN_clean_linker_2, # of connection points: 2
#     Edge 24, Type (0, 1), BuildingBlock: XUDNAN_clean_linker_2, # of connection points: 2
#     Edge 25, Type (0, 1), BuildingBlock: XUDNAN_clean_linker_2, # of connection points: 2
#     Edge 26, Type (0, 1), BuildingBlock: XUDNAN_clean_linker_2, # of connection points: 2
#     Edge 27, Type (0, 1), BuildingBlock: XUDNAN_clean_linker_2, # of connection points: 2
#     Edge 28, Type (0, 1), BuildingBlock: XUDNAN_clean_linker_2, # of connection points: 2
#     Edge 29, Type (0, 1), BuildingBlock: XUDNAN_clean_linker_2, # of connection points: 2
#     Edge 30, Type (0, 1), BuildingBlock: XUDNAN_clean_linker_2, # of connection points: 2
#     Edge 31, Type (0, 1), BuildingBlock: XUDNAN_clean_linker_2, # of connection points: 2
#     Edge 32, Type (0, 1), BuildingBlock: XUDNAN_clean_linker_2, # of connection points: 2
#     Edge 33, Type (0, 1), BuildingBlock: XUDNAN_clean_linker_2, # of connection points: 2
#     Edge 34, Type (0, 1), BuildingBlock: XUDNAN_clean_linker_2, # of connection points: 2
#     Edge 35, Type (0, 1), BuildingBlock: XUDNAN_clean_linker_2, # of connection points: 2
# Relax obj value: 0.168
# Max RMSD: 0.274
# Mean RMSD: 0.204
data_MOF--net-pry--node1-VOLQOD_clean_sbu_1--node2-QEWDON_clean_linker_0--edge1-XUDNAN_clean_linker_2
_symmetry_space_group_name_H-M    P1
_symmetry_Int_Tables_number       1
_symmetry_cell_setting            triclinic
loop_
_symmetry_equiv_pos_as_xyz
'x, y, z'
_cell_length_a     36.856639
_cell_length_b     37.292063
_cell_length_c     39.886615
_cell_angle_alpha  90.21731
_cell_angle_beta   90.821095
_cell_angle_gamma 100.26927
loop_
_atom_site_label
_atom_site_type_symbol
_atom_site_fract_x
_atom_site_fract_y
_atom_site_fract_z
_atom_type_partial_charge
H0 H 0.237 0.2195 0.15904 0.0
C1 C 0.21777 0.21235 0.17922 0.0
C2 C 0.21716 0.17952 0.19675 0.0
C3 C 0.1954 0.23749 0.18874 0.0
H4 H 0.1916 0.14684 0.23772 0.0
C5 C 0.19267 0.17182 0.22372 0.0
C6 C 0.17136 0.19726 0.23459 0.0
C7 C 0.17238 0.22981 0.21656 0.0
C8 C 0.20029 0.27384 0.1724 0.0
H9 H 0.15672 0.24996 0.22523 0.0
C10 C 0.17018 0.28826 0.15913 0.0
C11 C 0.17601 0.32263 0.14311 0.0
C12 C 0.23603 0.29435 0.17009 0.0
H13 H 0.25955 0.28415 0.18041 0.0
C14 C 0.24184 0.32843 0.15498 0.0
H15 H 0.14262 0.27236 0.16051 0.0
C16 C 0.21223 0.34251 0.14166 0.0
H17 H 0.21777 0.36938 0.13063 0.0
H18 H 0.26949 0.34411 0.1537 0.0
H19 H 0.34161 0.92269 0.77188 0.0
C20 C 0.36176 0.90762 0.76215 0.0
C21 C 0.39681 0.9107 0.77771 0.0
C22 C 0.35153 0.88306 0.73556 0.0
H23 H 0.44935 0.89277 0.77633 0.0
C24 C 0.42204 0.8897 0.76512 0.0
C25 C 0.41221 0.865 0.73816 0.0
C26 C 0.37658 0.86181 0.72405 0.0
C27 C 0.31341 0.87616 0.72171 0.0
H28 H 0.36745 0.84179 0.70456 0.0
C29 C 0.29888 0.90305 0.70379 0.0
C30 C 0.26373 0.89452 0.68802 0.0
C31 C 0.29233 0.84109 0.72458 0.0
H32 H 0.30306 0.82006 0.73822 0.0
C33 C 0.2576 0.8326 0.70947 0.0
H34 H 0.31519 0.93012 0.70169 0.0
C35 C 0.24354 0.85884 0.69107 0.0
H36 H 0.21706 0.85072 0.67859 0.0
H37 H 0.24175 0.80533 0.71149 0.0
H38 H 0.62832 0.49932 0.97905 0.0
C39 C 0.61901 0.47271 0.98989 0.0
C40 C 0.64287 0.45706 0.01074 0.0
C41 C 0.58255 0.45457 0.98413 0.0
H42 H 0.64944 0.40979 0.0393 0.0
C43 C 0.63047 0.42257 0.02447 0.0
C44 C 0.59436 0.40404 0.01866 0.0
C45 C 0.57041 0.42035 0.99862 0.0
C46 C 0.55683 0.47095 0.96286 0.0
H47 H 0.54234 0.40639 0.99412 0.0
C48 C 0.56576 0.48033 0.92958 0.0
C49 C 0.54022 0.49337 0.90841 0.0
C50 C 0.52237 0.47527 0.97519 0.0
H51 H 0.51497 0.4681 1.00081 0.0
C52 C 0.49722 0.4889 0.95452 0.0
H53 H 0.59197 0.47603 0.91985 0.0
C54 C 0.50594 0.49779 0.92129 0.0
H55 H 0.48597 0.50831 0.90572 0.0
H56 H 0.47077 0.49235 0.96422 0.0
H57 H 0.87484 0.72307 0.35388 0.0
C58 C 0.86293 0.7122 0.37723 0.0
C59 C 0.86857 0.73363 0.40641 0.0
C60 C 0.84144 0.6771 0.37789 0.0
H61 H 0.85587 0.73651 0.45894 0.0
C62 C 0.85248 0.71976 0.43644 0.0
C63 C 0.83099 0.6848 0.4374 0.0
C64 C 0.82575 0.66349 0.4081 0.0
C65 C 0.83452 0.65528 0.34671 0.0
H66 H 0.80868 0.63663 0.40862 0.0
C67 C 0.86372 0.65293 0.32513 0.0
C68 C 0.85714 0.63438 0.29446 0.0
C69 C 0.79864 0.63788 0.33771 0.0
H70 H 0.77559 0.63951 0.35384 0.0
C71 C 0.79207 0.61912 0.30722 0.0
H72 H 0.89154 0.66605 0.33192 0.0
C73 C 0.82113 0.61762 0.28548 0.0
H74 H 0.8156 0.60321 0.2618 0.0
H75 H 0.76435 0.60606 0.30027 0.0
H76 H 0.85497 0.87328 0.90538 0.0
C77 C 0.86879 0.88377 0.8827 0.0
C78 C 0.90338 0.87514 0.87511 0.0
C79 C 0.8507 0.90323 0.85966 0.0
H80 H 0.94664 0.8797 0.8388 0.0
C81 C 0.92023 0.88692 0.84473 0.0
C82 C 0.90292 0.90732 0.82184 0.0
C83 C 0.86827 0.91547 0.82971 0.0
C84 C 0.81141 0.90607 0.86394 0.0
H85 H 0.85387 0.9297 0.81162 0.0
C86 C 0.79898 0.92228 0.89259 0.0
C87 C 0.76135 0.92482 0.89542 0.0
C88 C 0.78596 0.89219 0.83848 0.0
H89 H 0.79482 0.87932 0.81638 0.0
C90 C 0.74886 0.8945 0.84127 0.0
H91 H 0.81845 0.93299 0.91234 0.0
C92 C 0.73661 0.91077 0.86939 0.0
H93 H 0.70772 0.9129 0.87047 0.0
H94 H 0.72954 0.88384 0.82143 0.0
H95 H 0.67805 0.18844 0.48254 0.0
C96 C 0.6727 0.18124 0.45637 0.0
C97 C 0.69743 0.16383 0.43841 0.0
C98 C 0.64026 0.18866 0.44114 0.0
H99 H 0.70708 0.14013 0.39059 0.0
C100 C 0.68928 0.1548 0.40447 0.0
C101 C 0.65721 0.16262 0.38858 0.0
C102 C 0.63269 0.1794 0.40728 0.0
C103 C 0.61176 0.20084 0.46201 0.0
H104 H 0.60742 0.18478 0.39573 0.0
C105 C 0.60889 0.23793 0.46522 0.0
C106 C 0.58145 0.24855 0.4857 0.0
C107 C 0.58725 0.17447 0.47927 0.0
H108 H 0.58911 0.14588 0.47713 0.0
C109 C 0.56007 0.18466 0.49927 0.0
H110 H 0.62821 0.25827 0.45219 0.0
C111 C 0.55706 0.22127 0.50243 0.0
H112 H 0.5351 0.22808 0.51762 0.0
H113 H 0.54108 0.16404 0.51228 0.0
H114 H 0.42892 0.68045 0.20312 0.0
C115 C 0.40497 0.67297 0.18679 0.0
C116 C 0.39455 0.69923 0.16542 0.0
C117 C 0.38487 0.63721 0.18706 0.0
H118 H 0.35616 0.7097 0.12696 0.0
C119 C 0.36382 0.68964 0.14404 0.0
C120 C 0.3441 0.65385 0.14323 0.0
C121 C 0.3547 0.62772 0.16478 0.0
C122 C 0.39533 0.61007 0.21084 0.0
H123 H 0.33886 0.60029 0.16473 0.0
C124 C 0.40561 0.62029 0.24413 0.0
C125 C 0.41579 0.59501 0.26692 0.0
C126 C 0.39524 0.57399 0.20052 0.0
H127 H 0.38786 0.56539 0.17498 0.0
C128 C 0.40532 0.54874 0.22298 0.0
H129 H 0.4057 0.64804 0.25232 0.0
C130 C 0.41554 0.55908 0.25595 0.0
H131 H 0.42273 0.5388 0.27297 0.0
H132 H 0.4052 0.521 0.21481 0.0
H133 H 0.13477 0.50103 0.64007 0.0
C134 C 0.13113 0.47158 0.63855 0.0
C135 C 0.16126 0.45442 0.63163 0.0
C136 C 0.09603 0.45077 0.64322 0.0
H137 H 0.17833 0.40283 0.62315 0.0
C138 C 0.15568 0.41616 0.63003 0.0
C139 C 0.12082 0.39503 0.63586 0.0
C140 C 0.0911 0.41273 0.64236 0.0
C141 C 0.06407 0.46837 0.64939 0.0
H142 H 0.06402 0.39706 0.6473 0.0
C143 C 0.0614 0.48644 0.67985 0.0
C144 C 0.02912 0.49977 0.6876 0.0
C145 C 0.03488 0.46457 0.62598 0.0
H146 H 0.03649 0.45036 0.60245 0.0
C147 C 0.00326 0.47877 0.63299 0.0
H148 H 0.08413 0.48916 0.69776 0.0
C149 C 1.00019 0.49603 0.66368 0.0
H150 H 0.97473 0.50548 0.66899 0.0
H151 H 0.98072 0.47568 0.61491 0.0
O152 O 0.02029 0.12338 0.57751 0.0
Zn153 Zn 0.99156 0.0763 0.55891 0.0
O154 O 0.02062 0.0575 0.52412 0.0
Zn155 Zn 0.99626 0.05908 0.4799 0.0
Zn156 Zn 0.07131 0.08499 0.52265 0.0
Zn157 Zn 0.02359 0.00781 0.5358 0.0
O158 O 0.98297 0.00812 0.46037 0.0
O159 O 0.00468 0.97384 0.49852 0.0
O160 O 0.94395 0.08691 0.53889 0.0
O161 O 0.9485 0.07971 0.48382 0.0
O162 O 0.03064 0.08909 0.44686 0.0
O163 O 0.08279 0.10611 0.47621 0.0
O164 O 0.11016 0.05566 0.5386 0.0
O165 O 0.97894 0.04085 0.59797 0.0
O166 O 0.07483 0.0023 0.54844 0.0
O167 O 0.99544 0.99126 0.57695 0.0
C168 C 0.05363 0.13917 0.5741 0.0
C169 C 0.98876 0.97723 0.4705 0.0
C170 C 0.064 0.1057 0.44902 0.0
C171 C 0.93094 0.0882 0.50919 0.0
C172 C 0.10624 0.02293 0.54898 0.0
C173 C 0.98121 0.00721 0.60027 0.0
O174 O 0.07562 0.12696 0.55456 0.0
O175 O 0.50311 0.12621 0.05409 0.0
Zn176 Zn 0.47772 0.07362 0.05994 0.0
O177 O 0.51151 0.04655 0.08409 0.0
Zn178 Zn 0.5154 0.00298 0.05856 0.0
Zn179 Zn 0.56126 0.07516 0.08865 0.0
Zn180 Zn 0.493 0.03385 0.12926 0.0
O181 O 0.50164 0.9587 0.08675 0.0
O182 O 0.48428 0.97912 0.13549 0.0
O183 O 0.46226 0.0503 0.01398 0.0
O184 O 0.4846 0.99883 0.01608 0.0
O185 O 0.567 0.00307 0.04361 0.0
O186 O 0.5998 0.05549 0.06126 0.0
O187 O 0.5785 0.07957 0.13685 0.0
O188 O 0.43187 0.07623 0.08786 0.0
O189 O 0.52901 0.05695 0.16604 0.0
O190 O 0.44499 0.05126 0.136 0.0
C191 C 0.53527 0.14278 0.06259 0.0
C192 C 0.48978 0.9532 0.11641 0.0
C193 C 0.59742 0.02532 0.04553 0.0
C194 C 0.46649 0.02004 1.00079 0.0
C195 C 0.56253 0.07309 0.16484 0.0
C196 C 0.42372 0.06703 0.11803 0.0
O197 O 0.55926 0.12615 0.07555 0.0
O198 O 0.56144 0.57873 0.65801 0.0
Zn199 Zn 0.55817 0.60932 0.61767 0.0
O200 O 0.52273 0.58242 0.58556 0.0
Zn201 Zn 0.54752 0.57398 0.54444 0.0
Zn202 Zn 0.49956 0.53447 0.60385 0.0
Zn203 Zn 0.48656 0.6134 0.5752 0.0
O204 O 0.52574 0.59525 0.5043 0.0
O205 O 0.4849 0.62543 0.52598 0.0
O206 O 0.60927 0.6213 0.59867 0.0
O207 O 0.60119 0.5944 0.5485 0.0
O208 O 0.54428 0.52091 0.5349 0.0
O209 O 0.51289 0.49146 0.5765 0.0
O210 O 0.44359 0.53099 0.60404 0.0
O211 O 0.54236 0.65538 0.6347 0.0
O212 O 0.43681 0.58551 0.58514 0.0
O213 O 0.49315 0.65963 0.60341 0.0
C214 C 0.54337 0.54897 0.66906 0.0
C215 C 0.5013 0.61518 0.50074 0.0
C216 C 0.5307 0.49128 0.54925 0.0
C217 C 0.62176 0.61235 0.57089 0.0
C218 C 0.42317 0.55399 0.59589 0.0
C219 C 0.51618 0.67196 0.62662 0.0
O220 O 0.51751 0.52972 0.65185 0.0
O221 O 0.9937 0.57758 0.09508 0.0
Zn222 Zn 0.98641 0.55063 0.05166 0.0
O223 O 0.00963 0.58117 0.01575 0.0
Zn224 Zn 0.972 0.59012 0.98369 0.0
Zn225 Zn 0.03417 0.62878 0.03367 0.0
Zn226 Zn 0.04494 0.55491 0.99436 0.0
O227 O 0.98369 0.57321 0.93859 0.0
O228 O 0.03518 0.5502 0.94396 0.0
O229 O 0.93152 0.53837 0.04432 0.0
O230 O 0.92082 0.5656 0.99669 0.0
O231 O 0.97175 0.64365 0.97782 0.0
O232 O 0.01879 0.67166 0.00893 0.0
O233 O 0.08949 0.63153 0.03284 0.0
O234 O 0.00697 0.50449 0.05762 0.0
O235 O 0.09616 0.5824 0.00343 0.0
O236 O 0.0459 0.50523 0.0157 0.0
C237 C 0.00617 0.61047 0.10322 0.0
C238 C 0.0093 0.55903 0.9259 0.0
C239 C 0.9923 0.67276 0.98824 0.0
C240 C 0.9093 0.54627 0.02193 0.0
C241 C 0.10992 0.61115 0.01979 0.0
C242 C 0.03019 0.48988 0.04154 0.0
O243 O 0.02039 0.63399 0.08195 0.0
H244 H 0.12237 0.13763 0.25702 0.0
H245 H 0.18053 0.24456 0.28733 0.0
H246 H 0.15797 0.23344 0.34506 0.0
H247 H 0.04114 0.13888 0.31068 0.0
H248 H 0.03572 0.0909 0.31965 0.0
H249 H 0.05479 0.10812 0.2803 0.0
H250 H 0.11254 0.07923 0.29215 0.0
H251 H 0.09386 0.06226 0.33166 0.0
H252 H 0.13879 0.09074 0.33038 0.0
H253 H 0.13568 0.20777 0.40077 0.0
H254 H 0.10769 0.1727 0.44934 0.0
H255 H 0.05911 0.08443 0.38273 0.0
C256 C 0.12969 0.15892 0.27572 0.0
C257 C 0.15299 0.1921 0.26766 0.0
C258 C 0.16226 0.21922 0.29282 0.0
C259 C 0.14979 0.21303 0.32574 0.0
C260 C 0.1275 0.17979 0.33306 0.0
C261 C 0.11681 0.15347 0.30864 0.0
C262 C 0.09272 0.12008 0.3233 0.0
C263 C 0.05378 0.11416 0.30755 0.0
C264 C 0.11056 0.08607 0.31912 0.0
C265 C 0.09228 0.1314 0.35988 0.0
C266 C 0.11289 0.16581 0.36498 0.0
C267 C 0.11887 0.18112 0.39698 0.0
C268 C 0.10307 0.16095 0.42443 0.0
C269 C 0.08095 0.12613 0.4197 0.0
C270 C 0.07538 0.1113 0.38694 0.0
H271 H 0.43336 0.89556 0.83531 0.0
H272 H 0.38044 0.97878 0.78975 0.0
H273 H 0.3916 0.01551 0.84179 0.0
H274 H 0.39858 0.90199 0.91734 0.0
H275 H 0.44032 0.89521 0.93854 0.0
H276 H 0.42909 0.87591 0.89744 0.0
H277 H 0.49201 0.90905 0.87551 0.0
H278 H 0.50358 0.92819 0.91664 0.0
H279 H 0.50475 0.95772 0.88085 0.0
H280 H 0.40755 0.04277 0.89989 0.0
H281 H 0.42878 0.0589 0.95803 0.0
H282 H 0.47168 0.95798 0.965 0.0
C283 C 0.42465 0.92179 0.83598 0.0
C284 C 0.40599 0.93418 0.80825 0.0
C285 C 0.39444 0.96842 0.81066 0.0
C286 C 0.40078 0.98958 0.84012 0.0
C287 C 0.41878 0.97628 0.86709 0.0
C288 C 0.43075 0.94326 0.86519 0.0
C289 C 0.44908 0.93491 0.89781 0.0
C290 C 0.428 0.89994 0.91371 0.0
C291 C 0.48977 0.93232 0.89237 0.0
C292 C 0.44548 0.96832 0.91841 0.0
C293 C 0.42791 0.99189 0.90031 0.0
C294 C 0.42141 0.02451 0.91424 0.0
C295 C 0.43349 0.03341 0.94737 0.0
C296 C 0.45191 0.0098 0.96632 0.0
C297 C 0.45767 0.97673 0.95143 0.0
H298 H 0.49488 0.47666 0.85326 0.0
H299 H 0.60542 0.52906 0.88323 0.0
H300 H 0.61991 0.5437 0.82406 0.0
H301 H 0.51969 0.4388 0.77383 0.0
H302 H 0.47872 0.4472 0.75231 0.0
H303 H 0.47779 0.43838 0.79672 0.0
H304 H 0.4548 0.4991 0.80753 0.0
H305 H 0.45544 0.50797 0.76321 0.0
H306 H 0.48092 0.54102 0.79183 0.0
H307 H 0.6209 0.55676 0.7629 0.0
H308 H 0.6083 0.56811 0.7034 0.0
H309 H 0.49723 0.50674 0.71267 0.0
C310 C 0.52215 0.4912 0.84737 0.0
C311 C 0.54907 0.50169 0.87283 0.0
C312 C 0.58454 0.52037 0.86408 0.0
C313 C 0.593 0.52884 0.83058 0.0
C314 C 0.56578 0.51822 0.80615 0.0
C315 C 0.53109 0.49976 0.81407 0.0
C316 C 0.50633 0.49293 0.7832 0.0
C317 C 0.49498 0.45188 0.7761 0.0
C318 C 0.47238 0.51137 0.78666 0.0
C319 C 0.53227 0.51126 0.75679 0.0
C320 C 0.56649 0.5254 0.77058 0.0
C321 C 0.59439 0.54544 0.75171 0.0
C322 C 0.58692 0.55181 0.71797 0.0
C323 C 0.55187 0.53811 0.70342 0.0
C324 C 0.52447 0.51695 0.72297 0.0
H325 H 0.86249 0.65794 0.23008 0.0
H326 H 0.92068 0.60896 0.3077 0.0
H327 H 0.97164 0.60588 0.26853 0.0
H328 H 0.88339 0.60583 0.16333 0.0
H329 H 0.88897 0.64226 0.13324 0.0
H330 H 0.85946 0.6436 0.16852 0.0
H331 H 0.8967 0.70703 0.18537 0.0
H332 H 0.92666 0.7056 0.15025 0.0
H333 H 0.94585 0.71247 0.19209 0.0
H334 H 0.01065 0.59957 0.2187 0.0
H335 H 0.03569 0.59225 0.16222 0.0
H336 H 0.95522 0.6506 0.11876 0.0
C337 C 0.8862 0.64692 0.23878 0.0
C338 C 0.88789 0.63345 0.27157 0.0
C339 C 0.9192 0.61938 0.2825 0.0
C340 C 0.94821 0.61771 0.26054 0.0
C341 C 0.94567 0.63105 0.22816 0.0
C342 C 0.91564 0.64575 0.21744 0.0
C343 C 0.91859 0.65639 0.18094 0.0
C344 C 0.88567 0.63578 0.16031 0.0
C345 C 0.92217 0.69784 0.17694 0.0
C346 C 0.95413 0.64383 0.17232 0.0
C347 C 0.96953 0.6295 0.19994 0.0
C348 C 0.99968 0.61182 0.19714 0.0
C349 C 0.01379 0.60787 0.16514 0.0
C350 C 0.99805 0.62212 0.1368 0.0
C351 C 0.96862 0.64109 0.1405 0.0
H352 H 0.24913 0.16702 0.13571 0.0
H353 H 0.25032 0.13868 0.24141 0.0
H354 H 0.29812 0.10238 0.23079 0.0
H355 H 0.27018 0.08191 0.10144 0.0
H356 H 0.30057 0.10467 0.07007 0.0
H357 H 0.26261 0.1248 0.08457 0.0
H358 H 0.30787 0.18405 0.1004 0.0
H359 H 0.34591 0.16414 0.08593 0.0
H360 H 0.3464 0.18168 0.12814 0.0
H361 H 0.34835 0.07211 0.21036 0.0
H362 H 0.40021 0.05245 0.18197 0.0
H363 H 0.3714 0.10381 0.0901 0.0
C364 C 0.25918 0.15316 0.15673 0.0
C365 C 0.24483 0.1555 0.1894 0.0
C366 C 0.25927 0.13659 0.21588 0.0
C367 C 0.28693 0.11603 0.2102 0.0
C368 C 0.30057 0.11478 0.17797 0.0
C369 C 0.28745 0.13299 0.15166 0.0
C370 C 0.30915 0.12945 0.12004 0.0
C371 C 0.28413 0.10898 0.0924 0.0
C372 C 0.32848 0.16707 0.10793 0.0
C373 C 0.33686 0.1069 0.13294 0.0
C374 C 0.33092 0.09835 0.16632 0.0
C375 C 0.3532 0.07849 0.18418 0.0
C376 C 0.38271 0.06745 0.16772 0.0
C377 C 0.39015 0.07651 0.13368 0.0
C378 C 0.36648 0.09621 0.11603 0.0
H379 H 0.19121 0.90227 0.68183 0.0
H380 H 0.30051 0.94804 0.64656 0.0
H381 H 0.27304 0.98833 0.60834 0.0
H382 H 0.14821 0.8963 0.60213 0.0
H383 H 0.10531 0.90661 0.61715 0.0
H384 H 0.13407 0.88498 0.64444 0.0
H385 H 0.13568 0.93674 0.68834 0.0
H386 H 0.10664 0.95837 0.66127 0.0
H387 H 0.15041 0.98344 0.67591 0.0
H388 H 0.23175 0.02253 0.57185 0.0
H389 H 0.1814 0.04511 0.54079 0.0
H390 H 0.10069 0.97123 0.59715 0.0
C391 C 0.20961 0.92064 0.66612 0.0
C392 C 0.24816 0.92169 0.66732 0.0
C393 C 0.27097 0.94693 0.64664 0.0
C394 C 0.25556 0.96978 0.6246 0.0
C395 C 0.21729 0.96699 0.62335 0.0
C396 C 0.19474 0.94294 0.64366 0.0
C397 C 0.15442 0.94321 0.63646 0.0
C398 C 0.13434 0.90555 0.62432 0.0
C399 C 0.1357 0.95623 0.66733 0.0
C400 C 0.15762 0.97089 0.60862 0.0
C401 C 0.19397 0.98487 0.60159 0.0
C402 C 0.20321 0.01155 0.57711 0.0
C403 C 0.17451 0.02418 0.55954 0.0
C404 C 0.13716 0.00951 0.56611 0.0
C405 C 0.12894 0.98251 0.59097 0.0
H406 H 0.69668 0.48947 0.96767 0.0
H407 H 0.67461 0.46648 0.0727 0.0
H408 H 0.73989 0.48953 0.08694 0.0
H409 H 0.78205 0.46163 0.96582 0.0
H410 H 0.8041 0.49686 0.93827 0.0
H411 H 0.75484 0.4824 0.9362 0.0
H412 H 0.74547 0.54879 0.94622 0.0
H413 H 0.79478 0.56358 0.94787 0.0
H414 H 0.76695 0.57373 0.98224 0.0
H415 H 0.80767 0.50787 0.08929 0.0
H416 H 0.87436 0.52623 0.08041 0.0
H417 H 0.85367 0.53976 0.97412 0.0
C418 C 0.7055 0.49029 0.99372 0.0
C419 C 0.68073 0.47611 0.01911 0.0
C420 C 0.69329 0.47697 0.05289 0.0
C421 C 0.73025 0.49007 0.06123 0.0
C422 C 0.75429 0.5026 0.03555 0.0
C423 C 0.74249 0.50342 1.00254 0.0
C424 C 0.77464 0.51681 0.97975 0.0
C425 C 0.77916 0.48768 0.95347 0.0
C426 C 0.77019 0.55288 0.96304 0.0
C427 C 0.80631 0.52241 0.00505 0.0
C428 C 0.79382 0.51405 0.03706 0.0
C429 C 0.81782 0.51505 0.06444 0.0
C430 C 0.85568 0.52523 0.05907 0.0
C431 C 0.86922 0.53451 0.0266 0.0
C432 C 0.8441 0.53317 0.99928 0.0
H433 H 0.78719 0.7206 0.47415 0.0
H434 H 0.82806 0.61888 0.46786 0.0
H435 H 0.78584 0.59336 0.51279 0.0
H436 H 0.76532 0.71635 0.56793 0.0
H437 H 0.72425 0.73525 0.56031 0.0
H438 H 0.7642 0.74868 0.53462 0.0
H439 H 0.72418 0.72959 0.48139 0.0
H440 H 0.68437 0.71591 0.50676 0.0
H441 H 0.69848 0.68377 0.47801 0.0
H442 H 0.73147 0.57485 0.54775 0.0
H443 H 0.66831 0.56442 0.57011 0.0
H444 H 0.66211 0.67796 0.55472 0.0
C445 C 0.78838 0.69356 0.48342 0.0
C446 C 0.81102 0.67175 0.46804 0.0
C447 C 0.81095 0.63596 0.47962 0.0
C448 C 0.78731 0.62142 0.50525 0.0
C449 C 0.76415 0.64314 0.51906 0.0
C450 C 0.7647 0.67861 0.50875 0.0
C451 C 0.73314 0.69417 0.52349 0.0
C452 C 0.7476 0.72547 0.54806 0.0
C453 C 0.70861 0.70654 0.49576 0.0
C454 C 0.71328 0.66113 0.54181 0.0
C455 C 0.73221 0.63229 0.5397 0.0
C456 C 0.71701 0.59748 0.55063 0.0
C457 C 0.68121 0.59176 0.56318 0.0
C458 C 0.66128 0.6207 0.56473 0.0
C459 C 0.67771 0.65593 0.55484 0.0
H460 H 0.17599 0.36264 0.08518 0.0
H461 H 0.10598 0.31996 0.1677 0.0
H462 H 0.05761 0.35249 0.14632 0.0
H463 H 0.15595 0.45044 0.08833 0.0
H464 H 0.15732 0.45754 0.04366 0.0
H465 H 0.18391 0.42673 0.06253 0.0
H466 H 0.15212 0.37493 0.02294 0.0
H467 H 0.12536 0.40565 0.0039 0.0
H468 H 0.1025 0.3633 0.02154 0.0
H469 H 0.01982 0.3954 0.11951 0.0
H470 H 0.99611 0.44481 0.09021 0.0
H471 H 0.09163 0.46075 0.02598 0.0
C472 C 0.15039 0.35979 0.09871 0.0
C473 C 0.14497 0.33863 0.12829 0.0
C474 C 0.11076 0.33547 0.1448 0.0
C475 C 0.08314 0.35403 0.13288 0.0
C476 C 0.08996 0.3755 0.10427 0.0
C477 C 0.12274 0.37829 0.08732 0.0
C478 C 0.12455 0.40529 0.05876 0.0
C479 C 0.15737 0.43686 0.06363 0.0
C480 C 0.12622 0.38614 0.02477 0.0
C481 C 0.08808 0.41811 0.06279 0.0
C482 C 0.06832 0.40028 0.08893 0.0
C483 C 0.03485 0.40913 0.09873 0.0
C484 C 0.02161 0.43733 0.0819 0.0
C485 C 0.0418 0.45663 0.05554 0.0
C486 C 0.07513 0.44619 0.04554 0.0
H487 H 0.55331 0.34345 0.98819 0.0
H488 H 0.6089 0.38173 0.08177 0.0
H489 H 0.59661 0.31918 0.10368 0.0
H490 H 0.48111 0.27371 0.02733 0.0
H491 H 0.48109 0.24214 0.99299 0.0
H492 H 0.49137 0.29052 0.98558 0.0
H493 H 0.55313 0.28305 0.95864 0.0
H494 H 0.54334 0.2348 0.96633 0.0
H495 H 0.58554 0.26186 0.98228 0.0
H496 H 0.58615 0.25298 0.11261 0.0
H497 H 0.57153 0.18595 0.11101 0.0
H498 H 0.5181 0.1895 0.01371 0.0
C499 C 0.56197 0.33881 0.01363 0.0
C500 C 0.5824 0.36739 0.03317 0.0
C501 C 0.5938 0.36013 0.06614 0.0
C502 C 0.58675 0.32477 0.07889 0.0
C503 C 0.56768 0.29707 0.0586 0.0
C504 C 0.55477 0.30363 0.02694 0.0
C505 C 0.53616 0.2685 0.01002 0.0
C506 C 0.49498 0.26874 0.00361 0.0
C507 C 0.55573 0.26167 0.97739 0.0
C508 C 0.54173 0.24114 0.03675 0.0
C509 C 0.56008 0.2584 0.06448 0.0
C510 C 0.57113 0.23913 0.09139 0.0
C511 C 0.563 0.20112 0.0901 0.0
C512 C 0.54363 0.1828 0.0623 0.0
C513 C 0.53251 0.20302 0.03541 0.0
H514 H 0.92172 0.76514 0.45075 0.0
H515 H 0.86236 0.78678 0.36058 0.0
H516 H 0.89307 0.85141 0.36297 0.0
H517 H 0.91244 0.84326 0.49315 0.0
H518 H 0.95736 0.85038 0.51311 0.0
H519 H 0.93524 0.80515 0.50119 0.0
H520 H 0.99202 0.79746 0.466 0.0
H521 H 0.01443 0.84277 0.47793 0.0
H522 H 0.00826 0.83044 0.43421 0.0
H523 H 0.92374 0.91502 0.37988 0.0
H524 H 0.95273 0.97173 0.40918 0.0
H525 H 0.99201 0.90723 0.48772 0.0
C526 C 0.91571 0.78338 0.43119 0.0
C527 C 0.88983 0.77114 0.40547 0.0
C528 C 0.88254 0.79566 0.38027 0.0
C529 C 0.89978 0.83235 0.38145 0.0
C530 C 0.92451 0.8438 0.40774 0.0
C531 C 0.93273 0.81989 0.43194 0.0
C532 C 0.95785 0.83933 0.45906 0.0
C533 C 0.93961 0.83423 0.49365 0.0
C534 C 0.99537 0.82675 0.45929 0.0
C535 C 0.96132 0.87813 0.44709 0.0
C536 C 0.94232 0.88026 0.41727 0.0
C537 C 0.9393 0.91366 0.40291 0.0
C538 C 0.95575 0.94571 0.41977 0.0
C539 C 0.97474 0.94396 0.45069 0.0
C540 C 0.97807 0.90963 0.46397 0.0
H541 H 0.41751 0.83858 0.67375 0.0
H542 H 0.4643 0.83515 0.7741 0.0
H543 H 0.50138 0.79063 0.75442 0.0
H544 H 0.4039 0.74403 0.66104 0.0
H545 H 0.41343 0.74667 0.61683 0.0
H546 H 0.39544 0.78277 0.63719 0.0
H547 H 0.45086 0.82974 0.61636 0.0
H548 H 0.46907 0.79373 0.5959 0.0
H549 H 0.49717 0.82311 0.62584 0.0
H550 H 0.53013 0.74267 0.72464 0.0
H551 H 0.54474 0.69314 0.68885 0.0
H552 H 0.47402 0.72347 0.60989 0.0
C553 C 0.43548 0.82868 0.69182 0.0
C554 C 0.4377 0.84083 0.72568 0.0
C555 C 0.46238 0.82723 0.74792 0.0
C556 C 0.48348 0.80161 0.737 0.0
C557 C 0.47954 0.78948 0.70379 0.0
C558 C 0.45597 0.80249 0.6816 0.0
C559 C 0.45391 0.7826 0.64819 0.0
C560 C 0.41433 0.76285 0.64037 0.0
C561 C 0.46864 0.80887 0.6199 0.0
C562 C 0.47947 0.75581 0.65521 0.0
C563 C 0.4946 0.76072 0.68718 0.0
C564 C 0.51855 0.73874 0.69953 0.0
C565 C 0.52676 0.71069 0.67893 0.0
C566 C 0.51055 0.70432 0.6465 0.0
C567 C 0.48692 0.72759 0.6345 0.0
H568 H 0.90641 0.97212 0.78776 0.0
H569 H 0.9347 0.86431 0.77965 0.0
H570 H 0.95715 0.87841 0.72241 0.0
H571 H 0.87354 0.97706 0.7034 0.0
H572 H 0.89221 0.02478 0.69844 0.0
H573 H 0.87952 0.00704 0.7394 0.0
H574 H 0.94542 0.03219 0.76198 0.0
H575 H 0.95823 0.05028 0.72117 0.0
H576 H 0.98454 0.01979 0.74119 0.0
H577 H 0.97376 0.90266 0.66556 0.0
H578 H 0.98791 0.93694 0.61355 0.0
H579 H 0.94961 0.03 0.65762 0.0
C580 C 0.91747 0.95154 0.77397 0.0
C581 C 0.91897 0.91713 0.78833 0.0
C582 C 0.93383 0.89104 0.76949 0.0
C583 C 0.94636 0.89869 0.73682 0.0
C584 C 0.94402 0.93262 0.7233 0.0
C585 C 0.93029 0.9588 0.74131 0.0
C586 C 0.93092 0.99309 0.72072 0.0
C587 C 0.89171 0.00094 0.71516 0.0
C588 C 0.95629 0.02577 0.73725 0.0
C589 C 0.9469 0.98195 0.68823 0.0
C590 C 0.95406 0.94688 0.69036 0.0
C591 C 0.96846 0.93021 0.66364 0.0
C592 C 0.97629 0.95 0.63408 0.0
C593 C 0.96994 0.98634 0.63128 0.0
C594 C 0.95478 0.00235 0.65882 0.0
H595 H 0.59076 0.13041 0.35926 0.0
H596 H 0.70563 0.17082 0.33671 0.0
H597 H 0.69395 0.151 0.27788 0.0
H598 H 0.57949 0.0511 0.3063 0.0
H599 H 0.5332 0.05404 0.2929 0.0
H600 H 0.55015 0.07174 0.33335 0.0
H601 H 0.53464 0.13481 0.31809 0.0
H602 H 0.51738 0.11723 0.27769 0.0
H603 H 0.55302 0.15712 0.2804 0.0
H604 H 0.67036 0.12676 0.22179 0.0
H605 H 0.63606 0.10105 0.1713 0.0
H606 H 0.53589 0.07607 0.22927 0.0
C607 C 0.61335 0.13547 0.34186 0.0
C608 C 0.64921 0.15211 0.35273 0.0
C609 C 0.67808 0.15775 0.32916 0.0
C610 C 0.67168 0.1467 0.29564 0.0
C611 C 0.63623 0.13 0.28588 0.0
C612 C 0.60747 0.1245 0.30819 0.0
C613 C 0.57201 0.10578 0.29103 0.0
C614 C 0.55789 0.06845 0.30684 0.0
C615 C 0.54252 0.1302 0.29185 0.0
C616 C 0.58539 0.10165 0.25562 0.0
C617 C 0.62255 0.11583 0.25332 0.0
C618 C 0.64125 0.11558 0.22327 0.0
C619 C 0.62144 0.10083 0.19468 0.0
C620 C 0.58318 0.08639 0.19614 0.0
C621 C 0.5651 0.08662 0.22725 0.0
H622 H 0.47162 0.57578 0.30546 0.0
H623 H 0.38338 0.63882 0.30819 0.0
H624 H 0.40009 0.65627 0.36689 0.0
H625 H 0.45798 0.53947 0.38677 0.0
H626 H 0.50629 0.54102 0.39582 0.0
H627 H 0.48951 0.53642 0.35317 0.0
H628 H 0.53666 0.59372 0.33695 0.0
H629 H 0.55341 0.59863 0.37969 0.0
H630 H 0.53718 0.63594 0.35927 0.0
H631 H 0.42355 0.66331 0.42648 0.0
H632 H 0.45043 0.65752 0.48281 0.0
H633 H 0.52286 0.58934 0.44114 0.0
C634 C 0.45582 0.59331 0.31835 0.0
C635 C 0.42631 0.60609 0.30209 0.0
C636 C 0.40652 0.62919 0.31987 0.0
C637 C 0.41574 0.63919 0.35326 0.0
C638 C 0.44489 0.62598 0.36854 0.0
C639 C 0.46461 0.60351 0.35167 0.0
C640 C 0.49335 0.59137 0.37433 0.0
C641 C 0.48634 0.5496 0.37773 0.0
C642 C 0.53247 0.60579 0.36181 0.0
C643 C 0.48611 0.60979 0.40682 0.0
C644 C 0.45834 0.62996 0.40289 0.0
C645 C 0.44559 0.6479 0.4298 0.0
C646 C 0.46106 0.64446 0.46172 0.0
C647 C 0.48889 0.6231 0.46648 0.0
C648 C 0.50198 0.60625 0.4384 0.0
H649 H 0.05258 0.47753 0.74859 0.0
H650 H 0.99574 0.55789 0.70274 0.0
H651 H 0.98527 0.58177 0.75883 0.0
H652 H 0.99634 0.45892 0.81929 0.0
H653 H 0.03353 0.455 0.84811 0.0
H654 H 0.03745 0.44455 0.80436 0.0
H655 H 0.09825 0.49151 0.80136 0.0
H656 H 0.09471 0.50193 0.84521 0.0
H657 H 0.09887 0.53787 0.81466 0.0
H658 H 0.9779 0.59453 0.81925 0.0
H659 H 0.97733 0.59847 0.88078 0.0
H660 H 0.04248 0.51244 0.88777 0.0
C661 C 0.03859 0.50064 0.75018 0.0
C662 C 0.02488 0.51576 0.72115 0.0
C663 C 0.00599 0.54547 0.72457 0.0
C664 C 1.00012 0.55938 0.7563 0.0
C665 C 0.01367 0.54356 0.7843 0.0
C666 C 0.03287 0.51515 0.7816 0.0
C667 C 0.0443 0.50294 0.81576 0.0
C668 C 0.02685 0.46299 0.82225 0.0
C669 C 0.08655 0.50894 0.81946 0.0
C670 C 0.02807 0.52869 0.83814 0.0
C671 C 0.01039 0.55173 0.81939 0.0
C672 C 0.99192 0.5769 0.83423 0.0
C673 C 0.9916 0.57874 0.86921 0.0
C674 C 0.0099 0.55574 0.88904 0.0
C675 C 0.02854 0.53053 0.87323 0.0
H676 H 0.69822 0.90125 0.92992 0.0
H677 H 0.79173 0.98992 0.9258 0.0
H678 H 0.76254 0.02403 0.9681 0.0
H679 H 0.63108 0.95501 0.93191 0.0
H680 H 0.60092 0.92616 0.9598 0.0
H681 H 0.63166 0.90681 0.93342 0.0
H682 H 0.65993 0.88006 0.98552 0.0
H683 H 0.62897 0.89908 0.01211 0.0
H684 H 0.67802 0.90981 0.01987 0.0
H685 H 0.71885 0.05119 0.00632 0.0
H686 H 0.6664 0.06756 0.03754 0.0
H687 H 0.60199 0.96089 0.01455 0.0
C688 C 0.7129 0.9276 0.93832 0.0
C689 C 0.74725 0.94294 0.92456 0.0
C690 C 0.76561 0.97743 0.93631 0.0
C691 C 0.74912 0.99706 0.9602 0.0
C692 C 0.71448 0.98165 0.97226 0.0
C693 C 0.69685 0.94746 0.96189 0.0
C694 C 0.65879 0.93776 0.97657 0.0
C695 C 0.62887 0.93106 0.94877 0.0
C696 C 0.6563 0.90472 0.99991 0.0
C697 C 0.65717 0.97223 0.99609 0.0
C698 C 0.68958 0.99718 0.99372 0.0
C699 C 0.69354 0.03162 0.00864 0.0
C700 C 0.66357 0.04073 0.02627 0.0
C701 C 0.62999 0.01557 0.02856 0.0
C702 C 0.6272 0.98082 0.01344 0.0
H703 H 0.76596 0.16004 0.41166 0.0
H704 H 0.7039 0.14177 0.50381 0.0
H705 H 0.75724 0.12286 0.53168 0.0
H706 H 0.80823 0.08057 0.41967 0.0
H707 H 0.85141 0.102 0.40203 0.0
H708 H 0.80925 0.11672 0.38962 0.0
H709 H 0.83736 0.18293 0.40704 0.0
H710 H 0.87961 0.16843 0.41952 0.0
H711 H 0.85556 0.1921 0.44901 0.0
H712 H 0.81702 0.10551 0.5499 0.0
H713 H 0.8782 0.08827 0.55651 0.0
H714 H 0.90041 0.11275 0.45164 0.0
C715 C 0.7633 0.15191 0.43765 0.0
C716 C 0.73042 0.15305 0.45545 0.0
C717 C 0.72879 0.14236 0.48961 0.0
C718 C 0.75895 0.13115 0.5057 0.0
C719 C 0.79063 0.13022 0.48734 0.0
C720 C 0.79297 0.14004 0.45401 0.0
C721 C 0.82981 0.13517 0.43973 0.0
C722 C 0.82433 0.10693 0.41107 0.0
C723 C 0.85188 0.17184 0.42815 0.0
C724 C 0.84775 0.12103 0.47027 0.0
C725 C 0.82472 0.11875 0.49752 0.0
C726 C 0.83524 0.10708 0.52872 0.0
C727 C 0.87016 0.09741 0.53222 0.0
C728 C 0.89421 0.09901 0.50461 0.0
C729 C 0.88264 0.11095 0.47319 0.0
H730 H 0.28499 0.68798 0.13411 0.0
H731 H 0.33303 0.59709 0.0987 0.0
H732 H 0.2814 0.58088 0.05788 0.0
H733 H 0.19271 0.64152 0.13139 0.0
H734 H 0.1736 0.68063 0.11847 0.0
H735 H 0.21602 0.68682 0.14239 0.0
H736 H 0.24829 0.72895 0.09602 0.0
H737 H 0.20596 0.72253 0.07177 0.0
H738 H 0.24741 0.71233 0.05346 0.0
H739 H 0.22379 0.57342 0.02266 0.0
H740 H 0.16084 0.57039 1.00002 0.0
H741 H 0.14921 0.66531 0.05967 0.0
C742 C 0.28476 0.66494 0.11744 0.0
C743 C 0.31293 0.64383 0.11926 0.0
C744 C 0.31153 0.61344 0.09764 0.0
C745 C 0.28257 0.6043 0.07423 0.0
C746 C 0.25523 0.62575 0.07296 0.0
C747 C 0.25585 0.6552 0.09424 0.0
C748 C 0.22157 0.67193 0.08971 0.0
C749 C 0.19969 0.67009 0.12243 0.0
C750 C 0.23141 0.71127 0.07698 0.0
C751 C 0.20119 0.64683 0.06301 0.0
C752 C 0.22143 0.62085 0.05325 0.0
C753 C 0.20775 0.59374 0.02995 0.0
C754 C 0.17192 0.59234 0.01717 0.0
C755 C 0.14992 0.6176 0.02804 0.0
C756 C 0.16532 0.6458 0.05056 0.0
H757 H 0.22895 0.43949 0.65103 0.0
H758 H 0.17745 0.51811 0.59629 0.0
H759 H 0.23888 0.55261 0.58282 0.0
H760 H 0.30716 0.50275 0.68443 0.0
H761 H 0.3389 0.47163 0.67914 0.0
H762 H 0.29086 0.45427 0.68636 0.0
H763 H 0.28746 0.41545 0.63201 0.0
H764 H 0.33545 0.43276 0.62456 0.0
H765 H 0.30126 0.43742 0.59288 0.0
H766 H 0.30514 0.57742 0.5738 0.0
H767 H 0.3726 0.59155 0.56955 0.0
H768 H 0.38172 0.4953 0.62795 0.0
C769 C 0.23052 0.46392 0.63615 0.0
C770 C 0.19825 0.47615 0.62487 0.0
C771 C 0.20165 0.50852 0.60578 0.0
C772 C 0.23644 0.52817 0.59778 0.0
C773 C 0.26755 0.51502 0.60891 0.0
C774 C 0.26499 0.48368 0.62766 0.0
C775 C 0.30279 0.4749 0.63561 0.0
C776 C 0.31036 0.47597 0.67365 0.0
C777 C 0.30697 0.43794 0.62034 0.0
C778 C 0.32701 0.50615 0.61815 0.0
C779 C 0.30602 0.52902 0.60311 0.0
C780 C 0.3219 0.55979 0.58551 0.0
C781 C 0.36032 0.56755 0.58329 0.0
C782 C 0.38257 0.54453 0.59844 0.0
C783 C 0.36553 0.51333 0.616 0.0
H784 H 0.90635 0.80386 0.86374 0.0
H785 H 0.93766 0.8912 0.93599 0.0
H786 H 0.96644 0.84972 0.97237 0.0
H787 H 0.88153 0.73308 0.92423 0.0
H788 H 0.89823 0.6989 0.89969 0.0
H789 H 0.882 0.73606 0.87913 0.0
H790 H 0.94447 0.75289 0.84891 0.0
H791 H 0.96094 0.71584 0.86949 0.0
H792 H 0.98668 0.76157 0.87335 0.0
H793 H 0.9929 0.79802 1.0001 0.0
H794 H 0.0096 0.73981 0.01917 0.0
H795 H 0.95721 0.68592 0.92988 0.0
C796 C 0.91944 0.81415 0.8872 0.0
C797 C 0.92022 0.85061 0.89716 0.0
C798 C 0.93705 0.86328 0.92808 0.0
C799 C 0.95348 0.83996 0.94875 0.0
C800 C 0.95237 0.80402 0.93819 0.0
C801 C 0.93539 0.79112 0.90827 0.0
C802 C 0.93644 0.75105 0.90325 0.0
C803 C 0.89722 0.72845 0.90148 0.0
C804 C 0.95845 0.745 0.87189 0.0
C805 C 0.95659 0.74327 0.935 0.0
C806 C 0.96605 0.77421 0.95467 0.0
C807 C 0.98544 0.77362 0.98494 0.0
C808 C 0.99495 0.74049 0.99552 0.0
C809 C 0.98453 0.70828 0.97615 0.0
C810 C 0.96529 0.70997 0.94543 0.0
H811 H 0.37016 0.76421 0.16904 0.0
H812 H 0.46879 0.71723 0.15757 0.0
H813 H 0.50542 0.77874 0.1492 0.0
H814 H 0.38849 0.82955 0.10699 0.0
H815 H 0.37077 0.86488 0.12901 0.0
H816 H 0.35309 0.81779 0.1378 0.0
H817 H 0.36967 0.82904 0.20078 0.0
H818 H 0.38729 0.87632 0.19221 0.0
H819 H 0.41623 0.84883 0.21303 0.0
H820 H 0.52895 0.84314 0.13378 0.0
H821 H 0.53932 0.90791 0.117 0.0
H822 H 0.42675 0.91437 0.14237 0.0
C823 C 0.3996 0.76708 0.16534 0.0
C824 C 0.41683 0.73622 0.16399 0.0
C825 C 0.4553 0.74072 0.15904 0.0
C826 C 0.47623 0.77546 0.15421 0.0
C827 C 0.45831 0.80533 0.15504 0.0
C828 C 0.42099 0.80161 0.16101 0.0
C829 C 0.40819 0.83797 0.1591 0.0
C830 C 0.37839 0.8375 0.13158 0.0
C831 C 0.39455 0.84867 0.19332 0.0
C832 C 0.44388 0.8625 0.14985 0.0
C833 C 0.47244 0.84307 0.14767 0.0
C834 C 0.50713 0.85889 0.13625 0.0
C835 C 0.51273 0.8955 0.12668 0.0
C836 C 0.48398 0.91585 0.1291 0.0
C837 C 0.44934 0.8994 0.14127 0.0
H838 H 0.06019 0.34772 0.61162 0.0
H839 H 0.16897 0.35058 0.65623 0.0
H840 H 0.16137 0.28393 0.64957 0.0
H841 H 0.01742 0.26095 0.65146 0.0
H842 H 0.98871 0.247 0.61508 0.0
H843 H 1.00189 0.29471 0.62532 0.0
H844 H 0.02894 0.30695 0.56597 0.0
H845 H 0.01603 0.25939 0.5556 0.0
H846 H 0.06331 0.28178 0.55168 0.0
H847 H 0.14522 0.21877 0.63141 0.0
H848 H 0.11953 0.15854 0.6065 0.0
H849 H 0.01885 0.19717 0.57989 0.0
C850 C 0.08208 0.33441 0.62094 0.0
C851 C 0.1153 0.35461 0.63426 0.0
C852 C 0.14355 0.33591 0.64527 0.0
C853 C 0.13934 0.29798 0.64197 0.0
C854 C 0.10642 0.27909 0.62836 0.0
C855 C 0.07804 0.29658 0.61853 0.0
C856 C 0.04595 0.27016 0.60353 0.0
C857 C 0.01145 0.26808 0.62515 0.0
C858 C 0.03813 0.28017 0.56704 0.0
C859 C 0.06127 0.23522 0.60535 0.0
C860 C 0.09621 0.24095 0.61976 0.0
C861 C 0.11753 0.21365 0.62092 0.0
C862 C 0.10285 0.1797 0.60666 0.0
C863 C 0.0671 0.17339 0.59203 0.0
C864 C 0.04582 0.20121 0.59192 0.0
H865 H 0.5626 0.28398 0.5422 0.0
H866 H 0.58995 0.30172 0.43729 0.0
H867 H 0.57915 0.36495 0.44233 0.0
H868 H 0.48837 0.33464 0.54254 0.0
H869 H 0.4987 0.35282 0.58422 0.0
H870 H 0.51011 0.30938 0.57296 0.0
H871 H 0.57821 0.33249 0.59054 0.0
H872 H 0.56697 0.37591 0.60207 0.0
H873 H 0.60296 0.37375 0.5724 0.0
H874 H 0.56432 0.4258 0.45836 0.0
H875 H 0.54862 0.48084 0.48441 0.0
H876 H 0.52823 0.42346 0.5787 0.0
C877 C 0.56619 0.301 0.52015 0.0
C878 C 0.57719 0.28757 0.48925 0.0
C879 C 0.58213 0.31126 0.46134 0.0
C880 C 0.57572 0.3472 0.46389 0.0
C881 C 0.56427 0.35919 0.49451 0.0
C882 C 0.55967 0.33687 0.52219 0.0
C883 C 0.54691 0.35643 0.55214 0.0
C884 C 0.50875 0.33717 0.56363 0.0
C885 C 0.57547 0.35985 0.58099 0.0
C886 C 0.54498 0.39331 0.53695 0.0
C887 C 0.55519 0.39422 0.50368 0.0
C888 C 0.55628 0.42536 0.48437 0.0
C889 C 0.54728 0.45655 0.49948 0.0
C890 C 0.53707 0.45661 0.53367 0.0
C891 C 0.53551 0.42426 0.55248 0.0
loop_
_geom_bond_atom_site_label_1
_geom_bond_atom_site_label_2
_geom_bond_distance
_geom_bond_site_symmetry_2
_ccdc_geom_bond_type
H0 C1 0.949 . S
C1 H0 0.949 . S
C1 C2 1.395 . S
C1 C3 1.391 . S
C2 C1 1.395 . S
C2 C5 1.390 . S
C3 C1 1.391 . S
C3 C7 1.387 . S
C3 C8 1.491 . S
H4 C5 0.950 . S
C5 C2 1.390 . S
C5 H4 0.950 . S
C5 C6 1.378 . S
C6 C5 1.378 . S
C6 C7 1.409 . S
C7 C3 1.387 . S
C7 C6 1.409 . S
C7 H9 0.951 . S
C8 C3 1.491 . S
C8 C10 1.382 . S
C8 C12 1.404 . S
H9 C7 0.951 . S
C10 C8 1.382 . S
C10 C11 1.390 . S
C10 H15 0.949 . S
C11 C10 1.390 . S
C11 C16 1.399 . S
C12 C8 1.404 . S
C12 H13 0.950 . S
C12 C14 1.375 . S
H13 C12 0.950 . S
C14 C12 1.375 . S
C14 C16 1.382 . S
C14 H18 0.950 . S
H15 C10 0.949 . S
C16 C11 1.399 . S
C16 C14 1.382 . S
C16 H17 0.952 . S
H17 C16 0.952 . S
H18 C14 0.950 . S
H19 C20 0.949 . S
C20 H19 0.949 . S
C20 C21 1.395 . S
C20 C22 1.391 . S
C21 C20 1.395 . S
C21 C24 1.390 . S
C22 C20 1.391 . S
C22 C26 1.387 . S
C22 C27 1.491 . S
H23 C24 0.950 . S
C24 C21 1.390 . S
C24 H23 0.950 . S
C24 C25 1.378 . S
C25 C24 1.378 . S
C25 C26 1.409 . S
C26 C22 1.387 . S
C26 C25 1.409 . S
C26 H28 0.951 . S
C27 C22 1.491 . S
C27 C29 1.382 . S
C27 C31 1.404 . S
H28 C26 0.951 . S
C29 C27 1.382 . S
C29 C30 1.390 . S
C29 H34 0.949 . S
C30 C29 1.390 . S
C30 C35 1.399 . S
C31 C27 1.404 . S
C31 H32 0.950 . S
C31 C33 1.375 . S
H32 C31 0.950 . S
C33 C31 1.375 . S
C33 C35 1.382 . S
C33 H37 0.950 . S
H34 C29 0.949 . S
C35 C30 1.399 . S
C35 C33 1.382 . S
C35 H36 0.952 . S
H36 C35 0.952 . S
H37 C33 0.950 . S
H38 C39 0.949 . S
C39 H38 0.949 . S
C39 C40 1.395 . S
C39 C41 1.391 . S
C40 C39 1.395 . S
C40 C43 1.390 . S
C41 C39 1.391 . S
C41 C45 1.387 . S
C41 C46 1.491 . S
H42 C43 0.950 . S
C43 C40 1.390 . S
C43 H42 0.950 . S
C43 C44 1.378 . S
C44 C43 1.378 . S
C44 C45 1.409 . S
C45 C41 1.387 . S
C45 C44 1.409 . S
C45 H47 0.951 . S
C46 C41 1.491 . S
C46 C48 1.382 . S
C46 C50 1.404 . S
H47 C45 0.951 . S
C48 C46 1.382 . S
C48 C49 1.390 . S
C48 H53 0.949 . S
C49 C48 1.390 . S
C49 C54 1.399 . S
C50 C46 1.404 . S
C50 H51 0.950 . S
C50 C52 1.375 . S
H51 C50 0.950 . S
C52 C50 1.375 . S
C52 C54 1.382 . S
C52 H56 0.950 . S
H53 C48 0.949 . S
C54 C49 1.399 . S
C54 C52 1.382 . S
C54 H55 0.952 . S
H55 C54 0.952 . S
H56 C52 0.950 . S
H57 C58 0.949 . S
C58 H57 0.949 . S
C58 C59 1.395 . S
C58 C60 1.391 . S
C59 C58 1.395 . S
C59 C62 1.390 . S
C60 C58 1.391 . S
C60 C64 1.387 . S
C60 C65 1.491 . S
H61 C62 0.950 . S
C62 C59 1.390 . S
C62 H61 0.950 . S
C62 C63 1.378 . S
C63 C62 1.378 . S
C63 C64 1.409 . S
C64 C60 1.387 . S
C64 C63 1.409 . S
C64 H66 0.951 . S
C65 C60 1.491 . S
C65 C67 1.382 . S
C65 C69 1.404 . S
H66 C64 0.951 . S
C67 C65 1.382 . S
C67 C68 1.390 . S
C67 H72 0.949 . S
C68 C67 1.390 . S
C68 C73 1.399 . S
C69 C65 1.404 . S
C69 H70 0.950 . S
C69 C71 1.375 . S
H70 C69 0.950 . S
C71 C69 1.375 . S
C71 C73 1.382 . S
C71 H75 0.950 . S
H72 C67 0.949 . S
C73 C68 1.399 . S
C73 C71 1.382 . S
C73 H74 0.952 . S
H74 C73 0.952 . S
H75 C71 0.950 . S
H76 C77 0.949 . S
C77 H76 0.949 . S
C77 C78 1.395 . S
C77 C79 1.391 . S
C78 C77 1.395 . S
C78 C81 1.390 . S
C79 C77 1.391 . S
C79 C83 1.387 1_565 S
C79 C84 1.491 1_565 S
H80 C81 0.950 . S
C81 C78 1.390 . S
C81 H80 0.950 . S
C81 C82 1.378 . S
C82 C81 1.378 . S
C82 C83 1.409 1_565 S
C83 C79 1.387 1_545 S
C83 C82 1.409 1_545 S
C83 H85 0.951 . S
C84 C79 1.491 1_545 S
C84 C86 1.382 . S
C84 C88 1.404 . S
H85 C83 0.951 . S
C86 C84 1.382 . S
C86 C87 1.390 . S
C86 H91 0.949 . S
C87 C86 1.390 . S
C87 C92 1.399 . S
C88 C84 1.404 . S
C88 H89 0.950 . S
C88 C90 1.375 . S
H89 C88 0.950 . S
C90 C88 1.375 . S
C90 C92 1.382 . S
C90 H94 0.950 . S
H91 C86 0.949 . S
C92 C87 1.399 . S
C92 C90 1.382 . S
C92 H93 0.952 . S
H93 C92 0.952 . S
H94 C90 0.950 . S
H95 C96 0.949 . S
C96 H95 0.949 . S
C96 C97 1.395 . S
C96 C98 1.391 . S
C97 C96 1.395 . S
C97 C100 1.390 . S
C98 C96 1.391 . S
C98 C102 1.387 . S
C98 C103 1.491 . S
H99 C100 0.950 . S
C100 C97 1.390 . S
C100 H99 0.950 . S
C100 C101 1.378 . S
C101 C100 1.378 . S
C101 C102 1.409 . S
C102 C98 1.387 . S
C102 C101 1.409 . S
C102 H104 0.951 . S
C103 C98 1.491 . S
C103 C105 1.382 . S
C103 C107 1.404 . S
H104 C102 0.951 . S
C105 C103 1.382 . S
C105 C106 1.390 . S
C105 H110 0.949 . S
C106 C105 1.390 . S
C106 C111 1.399 . S
C107 C103 1.404 . S
C107 H108 0.950 . S
C107 C109 1.375 . S
H108 C107 0.950 . S
C109 C107 1.375 . S
C109 C111 1.382 . S
C109 H113 0.950 . S
H110 C105 0.949 . S
C111 C106 1.399 . S
C111 C109 1.382 . S
C111 H112 0.952 . S
H112 C111 0.952 . S
H113 C109 0.950 . S
H114 C115 0.949 . S
C115 H114 0.949 . S
C115 C116 1.395 . S
C115 C117 1.391 . S
C116 C115 1.395 . S
C116 C119 1.390 . S
C117 C115 1.391 . S
C117 C121 1.387 . S
C117 C122 1.491 . S
H118 C119 0.950 . S
C119 C116 1.390 . S
C119 H118 0.950 . S
C119 C120 1.378 . S
C120 C119 1.378 . S
C120 C121 1.409 . S
C121 C117 1.387 . S
C121 C120 1.409 . S
C121 H123 0.951 . S
C122 C117 1.491 . S
C122 C124 1.382 . S
C122 C126 1.404 . S
H123 C121 0.951 . S
C124 C122 1.382 . S
C124 C125 1.390 . S
C124 H129 0.949 . S
C125 C124 1.390 . S
C125 C130 1.399 . S
C126 C122 1.404 . S
C126 H127 0.950 . S
C126 C128 1.375 . S
H127 C126 0.950 . S
C128 C126 1.375 . S
C128 C130 1.382 . S
C128 H132 0.950 . S
H129 C124 0.949 . S
C130 C125 1.399 . S
C130 C128 1.382 . S
C130 H131 0.952 . S
H131 C130 0.952 . S
H132 C128 0.950 . S
H133 C134 0.949 . S
C134 H133 0.949 . S
C134 C135 1.395 . S
C134 C136 1.391 . S
C135 C134 1.395 . S
C135 C138 1.390 . S
C136 C134 1.391 . S
C136 C140 1.387 . S
C136 C141 1.491 . S
H137 C138 0.950 . S
C138 C135 1.390 . S
C138 H137 0.950 . S
C138 C139 1.378 . S
C139 C138 1.378 . S
C139 C140 1.409 . S
C140 C136 1.387 . S
C140 C139 1.409 . S
C140 H142 0.951 . S
C141 C136 1.491 . S
C141 C143 1.382 . S
C141 C145 1.404 . S
H142 C140 0.951 . S
C143 C141 1.382 . S
C143 C144 1.390 . S
C143 H148 0.949 . S
C144 C143 1.390 . S
C144 C149 1.399 . S
C145 C141 1.404 . S
C145 H146 0.950 . S
C145 C147 1.375 . S
H146 C145 0.950 . S
C147 C145 1.375 . S
C147 C149 1.382 . S
C147 H151 0.950 . S
H148 C143 0.949 . S
C149 C144 1.399 . S
C149 C147 1.382 . S
C149 H150 0.952 . S
H150 C149 0.952 . S
H151 C147 0.950 . S
O152 Zn153 1.953 . S
O152 C168 1.225 1_655 S
Zn153 O152 1.953 . S
Zn153 O154 1.949 1_655 S
Zn153 O160 1.919 . S
Zn153 O165 1.924 . S
O154 Zn153 1.949 1_455 S
O154 Zn155 1.923 1_455 S
O154 Zn156 1.950 . S
O154 Zn157 1.935 1_545 S
Zn155 O154 1.923 1_655 S
Zn155 O158 1.933 1_545 S
Zn155 O161 1.941 . S
Zn155 O162 1.965 1_655 S
Zn156 O154 1.950 . S
Zn156 O163 1.938 . S
Zn156 O164 1.906 . S
Zn156 O174 1.953 . S
Zn157 O154 1.935 1_565 S
Zn157 O159 1.942 1_455 S
Zn157 O166 1.980 . S
Zn157 O167 1.909 1_465 S
O158 Zn155 1.933 1_565 S
O158 C169 1.226 . S
O159 Zn157 1.942 1_655 S
O159 C169 1.307 . S
O160 Zn153 1.919 . S
O160 C171 1.253 . S
O161 Zn155 1.941 . S
O161 C171 1.283 . S
O162 Zn155 1.965 1_455 S
O162 C170 1.303 . S
O163 Zn156 1.938 . S
O163 C170 1.247 . S
O164 Zn156 1.906 . S
O164 C172 1.304 . S
O165 Zn153 1.924 . S
O165 C173 1.311 . S
O166 Zn157 1.980 . S
O166 C172 1.272 1_565 S
O167 Zn157 1.909 1_645 S
O167 C173 1.231 . S
C168 O152 1.225 1_455 S
C168 O174 1.298 . S
C169 O158 1.226 . S
C169 O159 1.307 . S
C170 O162 1.303 . S
C170 O163 1.247 . S
C171 O160 1.253 . S
C171 O161 1.283 . S
C172 O164 1.304 . S
C172 O166 1.272 1_545 S
C173 O165 1.311 . S
C173 O167 1.231 . S
O174 Zn156 1.953 . S
O174 C168 1.298 . S
O175 Zn176 1.953 . S
O175 C191 1.225 . S
Zn176 O175 1.953 . S
Zn176 O177 1.949 . S
Zn176 O183 1.919 . S
Zn176 O188 1.924 . S
O177 Zn176 1.949 . S
O177 Zn178 1.923 1_545 S
O177 Zn179 1.950 . S
O177 Zn180 1.945 . S
Zn178 O177 1.923 1_565 S
Zn178 O181 1.933 . S
Zn178 O184 1.941 . S
Zn178 O185 1.965 1_565 S
Zn179 O177 1.950 . S
Zn179 O186 1.938 . S
Zn179 O187 1.906 . S
Zn179 O197 1.953 . S
Zn180 O177 1.945 . S
Zn180 O182 1.932 1_545 S
Zn180 O189 1.977 . S
Zn180 O190 1.910 . S
O181 Zn178 1.933 . S
O181 C192 1.226 . S
O182 Zn180 1.932 1_565 S
O182 C192 1.307 . S
O183 Zn176 1.919 . S
O183 C194 1.251 1_554 S
O184 Zn178 1.941 . S
O184 C194 1.278 1_564 S
O185 Zn178 1.965 1_545 S
O185 C193 1.303 . S
O186 Zn179 1.938 . S
O186 C193 1.247 . S
O187 Zn179 1.906 . S
O187 C195 1.304 . S
O188 Zn176 1.924 . S
O188 C196 1.311 . S
O189 Zn180 1.977 . S
O189 C195 1.272 . S
O190 Zn180 1.910 . S
O190 C196 1.231 . S
C191 O175 1.225 . S
C191 O197 1.298 . S
C192 O181 1.226 . S
C192 O182 1.307 . S
C193 O185 1.303 . S
C193 O186 1.247 . S
C194 O183 1.251 1_556 S
C194 O184 1.278 1_546 S
C195 O187 1.304 . S
C195 O189 1.272 . S
C196 O188 1.311 . S
C196 O190 1.231 . S
O197 Zn179 1.953 . S
O197 C191 1.298 . S
O198 Zn199 1.953 . S
O198 C214 1.225 . S
Zn199 O198 1.953 . S
Zn199 O200 1.949 . S
Zn199 O206 1.919 . S
Zn199 O211 1.924 . S
O200 Zn199 1.949 . S
O200 Zn201 1.923 . S
O200 Zn202 1.950 . S
O200 Zn203 1.945 . S
Zn201 O200 1.923 . S
Zn201 O204 1.933 . S
Zn201 O207 1.941 . S
Zn201 O208 1.965 . S
Zn202 O200 1.950 . S
Zn202 O209 1.938 . S
Zn202 O210 1.906 . S
Zn202 O220 1.953 . S
Zn203 O200 1.945 . S
Zn203 O205 1.932 . S
Zn203 O212 1.977 . S
Zn203 O213 1.910 . S
O204 Zn201 1.933 . S
O204 C215 1.226 . S
O205 Zn203 1.932 . S
O205 C215 1.307 . S
O206 Zn199 1.919 . S
O206 C217 1.253 . S
O207 Zn201 1.941 . S
O207 C217 1.283 . S
O208 Zn201 1.965 . S
O208 C216 1.303 . S
O209 Zn202 1.938 . S
O209 C216 1.247 . S
O210 Zn202 1.906 . S
O210 C218 1.304 . S
O211 Zn199 1.924 . S
O211 C219 1.311 . S
O212 Zn203 1.977 . S
O212 C218 1.272 . S
O213 Zn203 1.910 . S
O213 C219 1.231 . S
C214 O198 1.225 . S
C214 O220 1.298 . S
C215 O204 1.226 . S
C215 O205 1.307 . S
C216 O208 1.303 . S
C216 O209 1.247 . S
C217 O206 1.253 . S
C217 O207 1.283 . S
C218 O210 1.304 . S
C218 O212 1.272 . S
C219 O211 1.311 . S
C219 O213 1.231 . S
O220 Zn202 1.953 . S
O220 C214 1.298 . S
O221 Zn222 1.953 . S
O221 C237 1.225 . S
Zn222 O221 1.953 . S
Zn222 O223 1.949 1_655 S
Zn222 O229 1.919 . S
Zn222 O234 1.924 . S
O223 Zn222 1.949 1_455 S
O223 Zn224 1.923 1_454 S
O223 Zn225 1.950 . S
O223 Zn226 1.945 . S
Zn224 O223 1.923 1_656 S
Zn224 O227 1.933 1_655 S
Zn224 O230 1.941 . S
Zn224 O231 1.964 . S
Zn225 O223 1.950 . S
Zn225 O232 1.938 . S
Zn225 O233 1.906 . S
Zn225 O243 1.953 . S
Zn226 O223 1.945 . S
Zn226 O228 1.932 1_554 S
Zn226 O235 1.977 . S
Zn226 O236 1.910 . S
O227 Zn224 1.933 1_455 S
O227 C238 1.226 . S
O228 Zn226 1.932 1_556 S
O228 C238 1.307 . S
O229 Zn222 1.919 . S
O229 C240 1.253 1_554 S
O230 Zn224 1.941 . S
O230 C240 1.283 . S
O231 Zn224 1.964 . S
O231 C239 1.304 1_656 S
O232 Zn225 1.938 . S
O232 C239 1.247 . S
O233 Zn225 1.906 . S
O233 C241 1.304 . S
O234 Zn222 1.924 . S
O234 C242 1.311 1_655 S
O235 Zn226 1.977 . S
O235 C241 1.272 . S
O236 Zn226 1.910 . S
O236 C242 1.231 . S
C237 O221 1.225 . S
C237 O243 1.298 1_655 S
C238 O227 1.226 . S
C238 O228 1.307 . S
C239 O231 1.304 1_454 S
C239 O232 1.247 . S
C240 O229 1.253 1_556 S
C240 O230 1.283 . S
C241 O233 1.304 . S
C241 O235 1.272 . S
C242 O234 1.311 1_455 S
C242 O236 1.231 . S
O243 Zn225 1.953 . S
O243 C237 1.298 1_455 S
H244 C256 0.930 . S
H245 C258 0.930 . S
H246 C259 0.930 . S
H247 C263 0.959 . S
H248 C263 0.959 . S
H249 C263 0.961 . S
H250 C264 0.960 . S
H251 C264 0.961 . S
H252 C264 0.959 . S
H253 C267 0.929 . S
H254 C268 0.931 . S
H255 C270 0.930 . S
C256 H244 0.930 . S
C256 C257 1.399 . S
C256 C261 1.399 . S
C257 C256 1.399 . S
C257 C258 1.376 . S
C258 H245 0.930 . S
C258 C257 1.376 . S
C258 C259 1.388 . S
C259 H246 0.930 . S
C259 C258 1.388 . S
C259 C260 1.390 . S
C260 C259 1.390 . S
C260 C261 1.394 . S
C260 C266 1.465 . S
C261 C256 1.399 . S
C261 C260 1.394 . S
C261 C262 1.516 . S
C262 C261 1.516 . S
C262 C263 1.502 . S
C262 C264 1.561 . S
C262 C265 1.526 . S
C263 H247 0.959 . S
C263 H248 0.959 . S
C263 H249 0.961 . S
C263 C262 1.502 . S
C264 H250 0.960 . S
C264 H251 0.961 . S
C264 H252 0.959 . S
C264 C262 1.561 . S
C265 C262 1.526 . S
C265 C266 1.396 . S
C265 C270 1.390 . S
C266 C260 1.465 . S
C266 C265 1.396 . S
C266 C267 1.399 . S
C267 H253 0.929 . S
C267 C266 1.399 . S
C267 C268 1.385 . S
C268 H254 0.931 . S
C268 C267 1.385 . S
C268 C269 1.389 . S
C269 C268 1.389 . S
C269 C270 1.387 . S
C270 H255 0.930 . S
C270 C265 1.390 . S
C270 C269 1.387 . S
H271 C283 0.930 . S
H272 C285 0.930 . S
H273 C286 0.930 1_545 S
H274 C290 0.959 . S
H275 C290 0.959 . S
H276 C290 0.961 . S
H277 C291 0.960 . S
H278 C291 0.961 . S
H279 C291 0.959 . S
H280 C294 0.929 . S
H281 C295 0.931 . S
H282 C297 0.930 . S
C283 H271 0.930 . S
C283 C284 1.399 . S
C283 C288 1.399 . S
C284 C283 1.399 . S
C284 C285 1.376 . S
C285 H272 0.930 . S
C285 C284 1.376 . S
C285 C286 1.388 . S
C286 H273 0.930 1_565 S
C286 C285 1.388 . S
C286 C287 1.390 . S
C287 C286 1.390 . S
C287 C288 1.394 . S
C287 C293 1.465 . S
C288 C283 1.399 . S
C288 C287 1.394 . S
C288 C289 1.516 . S
C289 C288 1.516 . S
C289 C290 1.502 . S
C289 C291 1.561 . S
C289 C292 1.526 . S
C290 H274 0.959 . S
C290 H275 0.959 . S
C290 H276 0.961 . S
C290 C289 1.502 . S
C291 H277 0.960 . S
C291 H278 0.961 . S
C291 H279 0.959 . S
C291 C289 1.561 . S
C292 C289 1.526 . S
C292 C293 1.396 . S
C292 C297 1.390 . S
C293 C287 1.465 . S
C293 C292 1.396 . S
C293 C294 1.399 1_565 S
C294 H280 0.929 . S
C294 C293 1.399 1_545 S
C294 C295 1.385 . S
C295 H281 0.931 . S
C295 C294 1.385 . S
C295 C296 1.389 1_545 S
C296 C295 1.389 1_565 S
C296 C297 1.387 . S
C297 H282 0.930 . S
C297 C292 1.390 . S
C297 C296 1.387 . S
H298 C310 0.930 . S
H299 C312 0.930 . S
H300 C313 0.930 . S
H301 C317 0.959 . S
H302 C317 0.959 . S
H303 C317 0.961 . S
H304 C318 0.960 . S
H305 C318 0.961 . S
H306 C318 0.959 . S
H307 C321 0.929 . S
H308 C322 0.931 . S
H309 C324 0.930 . S
C310 H298 0.930 . S
C310 C311 1.399 . S
C310 C315 1.399 . S
C311 C310 1.399 . S
C311 C312 1.376 . S
C312 H299 0.930 . S
C312 C311 1.376 . S
C312 C313 1.388 . S
C313 H300 0.930 . S
C313 C312 1.388 . S
C313 C314 1.390 . S
C314 C313 1.390 . S
C314 C315 1.394 . S
C314 C320 1.465 . S
C315 C310 1.399 . S
C315 C314 1.394 . S
C315 C316 1.516 . S
C316 C315 1.516 . S
C316 C317 1.502 . S
C316 C318 1.561 . S
C316 C319 1.526 . S
C317 H301 0.959 . S
C317 H302 0.959 . S
C317 H303 0.961 . S
C317 C316 1.502 . S
C318 H304 0.960 . S
C318 H305 0.961 . S
C318 H306 0.959 . S
C318 C316 1.561 . S
C319 C316 1.526 . S
C319 C320 1.396 . S
C319 C324 1.390 . S
C320 C314 1.465 . S
C320 C319 1.396 . S
C320 C321 1.399 . S
C321 H307 0.929 . S
C321 C320 1.399 . S
C321 C322 1.385 . S
C322 H308 0.931 . S
C322 C321 1.385 . S
C322 C323 1.389 . S
C323 C322 1.389 . S
C323 C324 1.387 . S
C324 H309 0.930 . S
C324 C319 1.390 . S
C324 C323 1.387 . S
H325 C337 0.930 . S
H326 C339 0.930 . S
H327 C340 0.930 . S
H328 C344 0.959 . S
H329 C344 0.959 . S
H330 C344 0.961 . S
H331 C345 0.960 . S
H332 C345 0.961 . S
H333 C345 0.959 . S
H334 C348 0.929 1_455 S
H335 C349 0.931 1_455 S
H336 C351 0.930 . S
C337 H325 0.930 . S
C337 C338 1.399 . S
C337 C342 1.399 . S
C338 C337 1.399 . S
C338 C339 1.376 . S
C339 H326 0.930 . S
C339 C338 1.376 . S
C339 C340 1.388 . S
C340 H327 0.930 . S
C340 C339 1.388 . S
C340 C341 1.390 . S
C341 C340 1.390 . S
C341 C342 1.394 . S
C341 C347 1.465 . S
C342 C337 1.399 . S
C342 C341 1.394 . S
C342 C343 1.516 . S
C343 C342 1.516 . S
C343 C344 1.502 . S
C343 C345 1.561 . S
C343 C346 1.526 . S
C344 H328 0.959 . S
C344 H329 0.959 . S
C344 H330 0.961 . S
C344 C343 1.502 . S
C345 H331 0.960 . S
C345 H332 0.961 . S
C345 H333 0.959 . S
C345 C343 1.561 . S
C346 C343 1.526 . S
C346 C347 1.396 . S
C346 C351 1.390 . S
C347 C341 1.465 . S
C347 C346 1.396 . S
C347 C348 1.399 . S
C348 H334 0.929 1_655 S
C348 C347 1.399 . S
C348 C349 1.385 . S
C349 H335 0.931 1_655 S
C349 C348 1.385 . S
C349 C350 1.389 . S
C350 C349 1.389 . S
C350 C351 1.387 . S
C351 H336 0.930 . S
C351 C346 1.390 . S
C351 C350 1.387 . S
H352 C364 0.930 . S
H353 C366 0.930 . S
H354 C367 0.930 . S
H355 C371 0.959 . S
H356 C371 0.959 . S
H357 C371 0.961 . S
H358 C372 0.960 . S
H359 C372 0.961 . S
H360 C372 0.959 . S
H361 C375 0.929 . S
H362 C376 0.931 . S
H363 C378 0.930 . S
C364 H352 0.930 . S
C364 C365 1.399 . S
C364 C369 1.399 . S
C365 C364 1.399 . S
C365 C366 1.376 . S
C366 H353 0.930 . S
C366 C365 1.376 . S
C366 C367 1.388 . S
C367 H354 0.930 . S
C367 C366 1.388 . S
C367 C368 1.390 . S
C368 C367 1.390 . S
C368 C369 1.394 . S
C368 C374 1.465 . S
C369 C364 1.399 . S
C369 C368 1.394 . S
C369 C370 1.516 . S
C370 C369 1.516 . S
C370 C371 1.502 . S
C370 C372 1.561 . S
C370 C373 1.526 . S
C371 H355 0.959 . S
C371 H356 0.959 . S
C371 H357 0.961 . S
C371 C370 1.502 . S
C372 H358 0.960 . S
C372 H359 0.961 . S
C372 H360 0.959 . S
C372 C370 1.561 . S
C373 C370 1.526 . S
C373 C374 1.396 . S
C373 C378 1.390 . S
C374 C368 1.465 . S
C374 C373 1.396 . S
C374 C375 1.399 . S
C375 H361 0.929 . S
C375 C374 1.399 . S
C375 C376 1.385 . S
C376 H362 0.931 . S
C376 C375 1.385 . S
C376 C377 1.389 . S
C377 C376 1.389 . S
C377 C378 1.387 . S
C378 H363 0.930 . S
C378 C373 1.390 . S
C378 C377 1.387 . S
H379 C391 0.930 . S
H380 C393 0.930 . S
H381 C394 0.930 1_545 S
H382 C398 0.959 . S
H383 C398 0.959 . S
H384 C398 0.961 . S
H385 C399 0.951 1_565 S
H386 C399 0.966 . S
H387 C399 0.986 . S
H388 C402 0.929 . S
H389 C403 0.931 . S
H390 C405 0.930 . S
C391 H379 0.930 . S
C391 C392 1.399 . S
C391 C396 1.399 . S
C392 C391 1.399 . S
C392 C393 1.376 . S
C393 H380 0.930 . S
C393 C392 1.376 . S
C393 C394 1.388 . S
C394 H381 0.930 1_565 S
C394 C393 1.388 . S
C394 C395 1.390 . S
C395 C394 1.390 . S
C395 C396 1.394 . S
C395 C401 1.465 . S
C396 C391 1.399 . S
C396 C395 1.394 . S
C396 C397 1.516 . S
C397 C396 1.516 . S
C397 C398 1.502 . S
C397 C399 1.539 1_565 S
C397 C400 1.526 . S
C398 H382 0.959 . S
C398 H383 0.959 . S
C398 H384 0.961 . S
C398 C397 1.502 . S
C399 H385 0.951 1_545 S
C399 H386 0.966 . S
C399 H387 0.986 . S
C399 C397 1.539 1_545 S
C400 C397 1.526 . S
C400 C401 1.396 . S
C400 C405 1.390 . S
C401 C395 1.465 . S
C401 C400 1.396 . S
C401 C402 1.399 1_565 S
C402 H388 0.929 . S
C402 C401 1.399 1_545 S
C402 C403 1.385 . S
C403 H389 0.931 . S
C403 C402 1.385 . S
C403 C404 1.388 1_545 S
C404 C403 1.388 1_565 S
C404 C405 1.390 . S
C405 H390 0.930 . S
C405 C400 1.390 . S
C405 C404 1.390 . S
H406 C418 0.930 . S
H407 C420 0.930 1_554 S
H408 C421 0.930 . S
H409 C425 0.959 . S
H410 C425 0.959 . S
H411 C425 0.961 . S
H412 C426 0.960 . S
H413 C426 0.961 . S
H414 C426 0.959 . S
H415 C429 0.929 . S
H416 C430 0.931 . S
H417 C432 0.930 . S
C418 H406 0.930 . S
C418 C419 1.399 . S
C418 C423 1.399 . S
C419 C418 1.399 . S
C419 C420 1.376 . S
C420 H407 0.930 1_556 S
C420 C419 1.376 . S
C420 C421 1.388 1_556 S
C421 H408 0.930 . S
C421 C420 1.388 1_554 S
C421 C422 1.390 1_554 S
C422 C421 1.390 1_556 S
C422 C423 1.394 . S
C422 C428 1.465 . S
C423 C418 1.399 . S
C423 C422 1.394 . S
C423 C424 1.516 . S
C424 C423 1.516 . S
C424 C425 1.502 . S
C424 C426 1.561 . S
C424 C427 1.526 . S
C425 H409 0.959 . S
C425 H410 0.959 . S
C425 H411 0.961 . S
C425 C424 1.502 . S
C426 H412 0.960 . S
C426 H413 0.961 . S
C426 H414 0.959 . S
C426 C424 1.561 . S
C427 C424 1.526 . S
C427 C428 1.396 . S
C427 C432 1.390 . S
C428 C422 1.465 . S
C428 C427 1.396 . S
C428 C429 1.399 1_556 S
C429 H415 0.929 . S
C429 C428 1.399 1_554 S
C429 C430 1.385 . S
C430 H416 0.931 . S
C430 C429 1.385 . S
C430 C431 1.389 1_554 S
C431 C430 1.389 1_556 S
C431 C432 1.387 . S
C432 H417 0.930 . S
C432 C427 1.390 . S
C432 C431 1.387 . S
H433 C445 0.930 . S
H434 C447 0.930 . S
H435 C448 0.930 . S
H436 C452 0.959 . S
H437 C452 0.959 . S
H438 C452 0.961 . S
H439 C453 0.960 . S
H440 C453 0.961 . S
H441 C453 0.959 . S
H442 C456 0.929 . S
H443 C457 0.931 . S
H444 C459 0.930 . S
C445 H433 0.930 . S
C445 C446 1.399 . S
C445 C450 1.399 . S
C446 C445 1.399 . S
C446 C447 1.376 . S
C447 H434 0.930 . S
C447 C446 1.376 . S
C447 C448 1.388 . S
C448 H435 0.930 . S
C448 C447 1.388 . S
C448 C449 1.390 . S
C449 C448 1.390 . S
C449 C450 1.394 . S
C449 C455 1.465 . S
C450 C445 1.399 . S
C450 C449 1.394 . S
C450 C451 1.516 . S
C451 C450 1.516 . S
C451 C452 1.502 . S
C451 C453 1.561 . S
C451 C454 1.526 . S
C452 H436 0.959 . S
C452 H437 0.959 . S
C452 H438 0.961 . S
C452 C451 1.502 . S
C453 H439 0.960 . S
C453 H440 0.961 . S
C453 H441 0.959 . S
C453 C451 1.561 . S
C454 C451 1.526 . S
C454 C455 1.396 . S
C454 C459 1.390 . S
C455 C449 1.465 . S
C455 C454 1.396 . S
C455 C456 1.399 . S
C456 H442 0.929 . S
C456 C455 1.399 . S
C456 C457 1.385 . S
C457 H443 0.931 . S
C457 C456 1.385 . S
C457 C458 1.389 . S
C458 C457 1.389 . S
C458 C459 1.387 . S
C459 H444 0.930 . S
C459 C454 1.390 . S
C459 C458 1.387 . S
H460 C472 0.930 . S
H461 C474 0.930 . S
H462 C475 0.930 . S
H463 C479 0.959 . S
H464 C479 0.959 . S
H465 C479 0.961 . S
H466 C480 0.960 . S
H467 C480 0.961 . S
H468 C480 0.959 . S
H469 C483 0.929 . S
H470 C484 0.931 . S
H471 C486 0.930 . S
C472 H460 0.930 . S
C472 C473 1.399 . S
C472 C477 1.399 . S
C473 C472 1.399 . S
C473 C474 1.376 . S
C474 H461 0.930 . S
C474 C473 1.376 . S
C474 C475 1.388 . S
C475 H462 0.930 . S
C475 C474 1.388 . S
C475 C476 1.390 . S
C476 C475 1.390 . S
C476 C477 1.394 . S
C476 C482 1.465 . S
C477 C472 1.399 . S
C477 C476 1.394 . S
C477 C478 1.516 . S
C478 C477 1.516 . S
C478 C479 1.502 . S
C478 C480 1.561 . S
C478 C481 1.526 . S
C479 H463 0.959 . S
C479 H464 0.959 . S
C479 H465 0.961 . S
C479 C478 1.502 . S
C480 H466 0.960 . S
C480 H467 0.961 . S
C480 H468 0.959 . S
C480 C478 1.561 . S
C481 C478 1.526 . S
C481 C482 1.396 . S
C481 C486 1.390 . S
C482 C476 1.465 . S
C482 C481 1.396 . S
C482 C483 1.399 . S
C483 H469 0.929 . S
C483 C482 1.399 . S
C483 C484 1.385 . S
C484 H470 0.931 . S
C484 C483 1.385 . S
C484 C485 1.389 . S
C485 C484 1.389 . S
C485 C486 1.387 . S
C486 H471 0.930 . S
C486 C481 1.390 . S
C486 C485 1.387 . S
H487 C499 0.930 . S
H488 C501 0.930 . S
H489 C502 0.930 . S
H490 C506 0.959 . S
H491 C506 0.959 . S
H492 C506 0.961 . S
H493 C507 0.960 . S
H494 C507 0.961 . S
H495 C507 0.959 . S
H496 C510 0.929 . S
H497 C511 0.931 . S
H498 C513 0.930 1_556 S
C499 H487 0.930 . S
C499 C500 1.399 . S
C499 C504 1.399 . S
C500 C499 1.399 . S
C500 C501 1.376 1_556 S
C501 H488 0.930 . S
C501 C500 1.376 1_554 S
C501 C502 1.388 . S
C502 H489 0.930 . S
C502 C501 1.388 . S
C502 C503 1.390 . S
C503 C502 1.390 . S
C503 C504 1.394 1_554 S
C503 C509 1.465 . S
C504 C499 1.399 . S
C504 C503 1.394 1_556 S
C504 C505 1.516 . S
C505 C504 1.516 . S
C505 C506 1.502 . S
C505 C507 1.561 . S
C505 C508 1.526 1_556 S
C506 H490 0.959 . S
C506 H491 0.959 . S
C506 H492 0.961 . S
C506 C505 1.502 . S
C507 H493 0.960 . S
C507 H494 0.961 . S
C507 H495 0.959 . S
C507 C505 1.561 . S
C508 C505 1.526 1_554 S
C508 C509 1.396 . S
C508 C513 1.390 . S
C509 C503 1.465 . S
C509 C508 1.396 . S
C509 C510 1.399 . S
C510 H496 0.929 . S
C510 C509 1.399 . S
C510 C511 1.385 . S
C511 H497 0.931 . S
C511 C510 1.385 . S
C511 C512 1.389 . S
C512 C511 1.389 . S
C512 C513 1.387 . S
C513 H498 0.930 1_554 S
C513 C508 1.390 . S
C513 C512 1.387 . S
H514 C526 0.930 . S
H515 C528 0.930 . S
H516 C529 0.930 . S
H517 C533 0.959 1_455 S
H518 C533 0.959 1_455 S
H519 C533 0.961 . S
H520 C534 0.960 . S
H521 C534 0.961 . S
H522 C534 0.959 . S
H523 C537 0.929 . S
H524 C538 0.931 . S
H525 C540 0.930 . S
C526 H514 0.930 . S
C526 C527 1.399 . S
C526 C531 1.399 . S
C527 C526 1.399 . S
C527 C528 1.376 . S
C528 H515 0.930 . S
C528 C527 1.376 . S
C528 C529 1.388 . S
C529 H516 0.930 . S
C529 C528 1.388 . S
C529 C530 1.390 . S
C530 C529 1.390 . S
C530 C531 1.394 . S
C530 C536 1.465 . S
C531 C526 1.399 . S
C531 C530 1.394 . S
C531 C532 1.516 . S
C532 C531 1.516 . S
C532 C533 1.502 . S
C532 C534 1.561 . S
C532 C535 1.526 . S
C533 H517 0.959 1_655 S
C533 H518 0.959 1_655 S
C533 H519 0.961 . S
C533 C532 1.502 . S
C534 H520 0.960 . S
C534 H521 0.961 . S
C534 H522 0.959 . S
C534 C532 1.561 . S
C535 C532 1.526 . S
C535 C536 1.396 . S
C535 C540 1.390 . S
C536 C530 1.465 . S
C536 C535 1.396 . S
C536 C537 1.399 . S
C537 H523 0.929 . S
C537 C536 1.399 . S
C537 C538 1.385 . S
C538 H524 0.931 . S
C538 C537 1.385 . S
C538 C539 1.389 . S
C539 C538 1.389 . S
C539 C540 1.387 . S
C540 H525 0.930 . S
C540 C535 1.390 . S
C540 C539 1.387 . S
H541 C553 0.930 . S
H542 C555 0.930 . S
H543 C556 0.930 . S
H544 C560 0.959 . S
H545 C560 0.959 . S
H546 C560 0.961 . S
H547 C561 0.960 . S
H548 C561 0.961 . S
H549 C561 0.959 . S
H550 C564 0.929 . S
H551 C565 0.931 . S
H552 C567 0.930 . S
C553 H541 0.930 . S
C553 C554 1.399 . S
C553 C558 1.399 . S
C554 C553 1.399 . S
C554 C555 1.376 . S
C555 H542 0.930 . S
C555 C554 1.376 . S
C555 C556 1.388 . S
C556 H543 0.930 . S
C556 C555 1.388 . S
C556 C557 1.390 . S
C557 C556 1.390 . S
C557 C558 1.394 . S
C557 C563 1.465 . S
C558 C553 1.399 . S
C558 C557 1.394 . S
C558 C559 1.516 . S
C559 C558 1.516 . S
C559 C560 1.502 . S
C559 C561 1.561 . S
C559 C562 1.526 . S
C560 H544 0.959 . S
C560 H545 0.959 . S
C560 H546 0.961 . S
C560 C559 1.502 . S
C561 H547 0.960 . S
C561 H548 0.961 . S
C561 H549 0.959 . S
C561 C559 1.561 . S
C562 C559 1.526 . S
C562 C563 1.396 . S
C562 C567 1.390 . S
C563 C557 1.465 . S
C563 C562 1.396 . S
C563 C564 1.399 . S
C564 H550 0.929 . S
C564 C563 1.399 . S
C564 C565 1.385 . S
C565 H551 0.931 . S
C565 C564 1.385 . S
C565 C566 1.389 . S
C566 C565 1.389 . S
C566 C567 1.387 . S
C567 H552 0.930 . S
C567 C562 1.390 . S
C567 C566 1.387 . S
H568 C580 0.930 . S
H569 C582 0.930 . S
H570 C583 0.930 . S
H571 C587 0.959 . S
H572 C587 0.959 . S
H573 C587 0.961 . S
H574 C588 0.960 . S
H575 C588 0.961 . S
H576 C588 0.959 1_455 S
H577 C591 0.929 . S
H578 C592 0.931 . S
H579 C594 0.930 . S
C580 H568 0.930 . S
C580 C581 1.399 . S
C580 C585 1.399 . S
C581 C580 1.399 . S
C581 C582 1.376 1_545 S
C582 H569 0.930 . S
C582 C581 1.376 1_565 S
C582 C583 1.388 . S
C583 H570 0.930 . S
C583 C582 1.388 . S
C583 C584 1.390 1_565 S
C584 C583 1.390 1_545 S
C584 C585 1.394 . S
C584 C590 1.465 . S
C585 C580 1.399 . S
C585 C584 1.394 . S
C585 C586 1.516 . S
C586 C585 1.516 . S
C586 C587 1.502 . S
C586 C588 1.561 . S
C586 C589 1.526 . S
C587 H571 0.959 . S
C587 H572 0.959 . S
C587 H573 0.961 . S
C587 C586 1.502 . S
C588 H574 0.960 . S
C588 H575 0.961 . S
C588 H576 0.959 1_655 S
C588 C586 1.561 . S
C589 C586 1.526 . S
C589 C590 1.396 . S
C589 C594 1.390 . S
C590 C584 1.465 . S
C590 C589 1.396 . S
C590 C591 1.399 1_545 S
C591 H577 0.929 . S
C591 C590 1.399 1_565 S
C591 C592 1.385 . S
C592 H578 0.931 . S
C592 C591 1.385 . S
C592 C593 1.389 1_565 S
C593 C592 1.389 1_545 S
C593 C594 1.387 . S
C594 H579 0.930 . S
C594 C589 1.390 . S
C594 C593 1.387 . S
H595 C607 0.930 . S
H596 C609 0.930 . S
H597 C610 0.930 . S
H598 C614 0.959 . S
H599 C614 0.959 1_565 S
H600 C614 0.961 . S
H601 C615 0.960 . S
H602 C615 0.961 . S
H603 C615 0.959 . S
H604 C618 0.929 . S
H605 C619 0.931 . S
H606 C621 0.930 . S
C607 H595 0.930 . S
C607 C608 1.399 . S
C607 C612 1.399 . S
C608 C607 1.399 . S
C608 C609 1.376 . S
C609 H596 0.930 . S
C609 C608 1.376 . S
C609 C610 1.388 . S
C610 H597 0.930 . S
C610 C609 1.388 . S
C610 C611 1.390 . S
C611 C610 1.390 . S
C611 C612 1.394 . S
C611 C617 1.465 . S
C612 C607 1.399 . S
C612 C611 1.394 . S
C612 C613 1.516 . S
C613 C612 1.516 . S
C613 C614 1.502 . S
C613 C615 1.561 1_545 S
C613 C616 1.526 . S
C614 H598 0.959 . S
C614 H599 0.959 1_545 S
C614 H600 0.961 . S
C614 C613 1.502 . S
C615 H601 0.960 . S
C615 H602 0.961 . S
C615 H603 0.959 . S
C615 C613 1.561 1_565 S
C616 C613 1.526 . S
C616 C617 1.396 . S
C616 C621 1.390 . S
C617 C611 1.465 . S
C617 C616 1.396 . S
C617 C618 1.399 . S
C618 H604 0.929 . S
C618 C617 1.399 . S
C618 C619 1.385 . S
C619 H605 0.931 . S
C619 C618 1.385 . S
C619 C620 1.389 . S
C620 C619 1.389 . S
C620 C621 1.387 . S
C621 H606 0.930 . S
C621 C616 1.390 . S
C621 C620 1.387 . S
H622 C634 0.930 . S
H623 C636 0.930 . S
H624 C637 0.930 . S
H625 C641 0.959 . S
H626 C641 0.959 . S
H627 C641 0.961 . S
H628 C642 0.960 . S
H629 C642 0.961 . S
H630 C642 0.959 . S
H631 C645 0.929 . S
H632 C646 0.931 . S
H633 C648 0.930 . S
C634 H622 0.930 . S
C634 C635 1.399 . S
C634 C639 1.399 . S
C635 C634 1.399 . S
C635 C636 1.376 . S
C636 H623 0.930 . S
C636 C635 1.376 . S
C636 C637 1.388 . S
C637 H624 0.930 . S
C637 C636 1.388 . S
C637 C638 1.390 . S
C638 C637 1.390 . S
C638 C639 1.394 . S
C638 C644 1.465 . S
C639 C634 1.399 . S
C639 C638 1.394 . S
C639 C640 1.516 . S
C640 C639 1.516 . S
C640 C641 1.502 . S
C640 C642 1.561 . S
C640 C643 1.526 . S
C641 H625 0.959 . S
C641 H626 0.959 . S
C641 H627 0.961 . S
C641 C640 1.502 . S
C642 H628 0.960 . S
C642 H629 0.961 . S
C642 H630 0.959 . S
C642 C640 1.561 . S
C643 C640 1.526 . S
C643 C644 1.396 . S
C643 C648 1.390 . S
C644 C638 1.465 . S
C644 C643 1.396 . S
C644 C645 1.399 . S
C645 H631 0.929 . S
C645 C644 1.399 . S
C645 C646 1.385 . S
C646 H632 0.931 . S
C646 C645 1.385 . S
C646 C647 1.389 . S
C647 C646 1.389 . S
C647 C648 1.387 . S
C648 H633 0.930 . S
C648 C643 1.390 . S
C648 C647 1.387 . S
H649 C661 0.930 . S
H650 C663 0.930 . S
H651 C664 0.930 . S
H652 C668 0.959 1_655 S
H653 C668 0.959 . S
H654 C668 0.961 . S
H655 C669 0.960 . S
H656 C669 0.961 . S
H657 C669 0.959 . S
H658 C672 0.929 . S
H659 C673 0.931 . S
H660 C675 0.930 . S
C661 H649 0.930 . S
C661 C662 1.399 . S
C661 C666 1.399 . S
C662 C661 1.399 . S
C662 C663 1.376 . S
C663 H650 0.930 . S
C663 C662 1.376 . S
C663 C664 1.388 . S
C664 H651 0.930 . S
C664 C663 1.388 . S
C664 C665 1.390 . S
C665 C664 1.390 . S
C665 C666 1.394 . S
C665 C671 1.465 . S
C666 C661 1.399 . S
C666 C665 1.394 . S
C666 C667 1.516 . S
C667 C666 1.516 . S
C667 C668 1.502 . S
C667 C669 1.561 . S
C667 C670 1.526 . S
C668 H652 0.959 1_455 S
C668 H653 0.959 . S
C668 H654 0.961 . S
C668 C667 1.502 . S
C669 H655 0.960 . S
C669 H656 0.961 . S
C669 H657 0.959 . S
C669 C667 1.561 . S
C670 C667 1.526 . S
C670 C671 1.396 . S
C670 C675 1.390 . S
C671 C665 1.465 . S
C671 C670 1.396 . S
C671 C672 1.399 . S
C672 H658 0.929 . S
C672 C671 1.399 . S
C672 C673 1.385 . S
C673 H659 0.931 . S
C673 C672 1.385 . S
C673 C674 1.389 . S
C674 C673 1.389 . S
C674 C675 1.387 . S
C675 H660 0.930 . S
C675 C670 1.390 . S
C675 C674 1.387 . S
H676 C688 0.930 1_565 S
H677 C690 0.930 . S
H678 C691 0.930 . S
H679 C695 0.959 . S
H680 C695 0.959 . S
H681 C695 0.961 . S
H682 C696 0.960 1_565 S
H683 C696 0.961 1_565 S
H684 C696 0.959 . S
H685 C699 0.929 1_556 S
H686 C700 0.931 . S
H687 C702 0.930 1_565 S
C688 H676 0.930 1_545 S
C688 C689 1.406 . S
C688 C693 1.399 . S
C689 C688 1.406 . S
C689 C690 1.371 1_554 S
C690 H677 0.930 . S
C690 C689 1.371 1_556 S
C690 C691 1.388 . S
C691 H678 0.930 . S
C691 C690 1.388 . S
C691 C692 1.390 1_556 S
C692 C691 1.390 1_554 S
C692 C693 1.394 . S
C692 C698 1.465 . S
C693 C688 1.399 . S
C693 C692 1.394 . S
C693 C694 1.526 . S
C694 C693 1.526 . S
C694 C695 1.474 1_545 S
C694 C696 1.565 . S
C694 C697 1.545 . S
C695 H679 0.959 . S
C695 H680 0.959 . S
C695 H681 0.961 . S
C695 C694 1.474 1_565 S
C696 H682 0.960 1_545 S
C696 H683 0.961 1_545 S
C696 H684 0.959 . S
C696 C694 1.565 . S
C697 C694 1.545 . S
C697 C698 1.396 . S
C697 C702 1.390 . S
C698 C692 1.465 . S
C698 C697 1.396 . S
C698 C699 1.399 . S
C699 H685 0.929 1_554 S
C699 C698 1.399 . S
C699 C700 1.385 . S
C700 H686 0.931 . S
C700 C699 1.385 . S
C700 C701 1.389 . S
C701 C700 1.389 . S
C701 C702 1.387 . S
C702 H687 0.930 1_545 S
C702 C697 1.390 . S
C702 C701 1.387 . S
H703 C715 0.930 . S
H704 C717 0.930 . S
H705 C718 0.930 . S
H706 C722 0.959 . S
H707 C722 0.959 . S
H708 C722 0.961 . S
H709 C723 0.960 . S
H710 C723 0.961 . S
H711 C723 0.959 . S
H712 C726 0.929 . S
H713 C727 0.931 . S
H714 C729 0.930 . S
C715 H703 0.930 . S
C715 C716 1.399 . S
C715 C720 1.399 . S
C716 C715 1.399 . S
C716 C717 1.376 . S
C717 H704 0.930 . S
C717 C716 1.376 . S
C717 C718 1.388 . S
C718 H705 0.930 . S
C718 C717 1.388 . S
C718 C719 1.390 . S
C719 C718 1.390 . S
C719 C720 1.394 . S
C719 C725 1.465 . S
C720 C715 1.399 . S
C720 C719 1.394 . S
C720 C721 1.516 . S
C721 C720 1.516 . S
C721 C722 1.502 . S
C721 C723 1.561 . S
C721 C724 1.526 . S
C722 H706 0.959 . S
C722 H707 0.959 . S
C722 H708 0.961 . S
C722 C721 1.502 . S
C723 H709 0.960 . S
C723 H710 0.961 . S
C723 H711 0.959 . S
C723 C721 1.561 . S
C724 C721 1.526 . S
C724 C725 1.396 . S
C724 C729 1.390 . S
C725 C719 1.465 . S
C725 C724 1.396 . S
C725 C726 1.399 . S
C726 H712 0.929 . S
C726 C725 1.399 . S
C726 C727 1.385 . S
C727 H713 0.931 . S
C727 C726 1.385 . S
C727 C728 1.389 . S
C728 C727 1.389 . S
C728 C729 1.387 . S
C729 H714 0.930 . S
C729 C724 1.390 . S
C729 C728 1.387 . S
H730 C742 0.930 . S
H731 C744 0.930 . S
H732 C745 0.930 . S
H733 C749 0.959 . S
H734 C749 0.959 . S
H735 C749 0.961 . S
H736 C750 0.960 . S
H737 C750 0.961 . S
H738 C750 0.959 . S
H739 C753 0.929 . S
H740 C754 0.909 1_556 S
H741 C756 0.930 . S
C742 H730 0.930 . S
C742 C743 1.399 . S
C742 C747 1.399 . S
C743 C742 1.399 . S
C743 C744 1.376 . S
C744 H731 0.930 . S
C744 C743 1.376 . S
C744 C745 1.388 . S
C745 H732 0.930 . S
C745 C744 1.388 . S
C745 C746 1.390 . S
C746 C745 1.390 . S
C746 C747 1.394 . S
C746 C752 1.465 . S
C747 C742 1.399 . S
C747 C746 1.394 . S
C747 C748 1.516 . S
C748 C747 1.516 . S
C748 C749 1.502 . S
C748 C750 1.561 . S
C748 C751 1.526 . S
C749 H733 0.959 . S
C749 H734 0.959 . S
C749 H735 0.961 . S
C749 C748 1.502 . S
C750 H736 0.960 . S
C750 H737 0.961 . S
C750 H738 0.959 . S
C750 C748 1.561 . S
C751 C748 1.526 . S
C751 C752 1.396 . S
C751 C756 1.390 . S
C752 C746 1.465 . S
C752 C751 1.396 . S
C752 C753 1.399 . S
C753 H739 0.929 . S
C753 C752 1.399 . S
C753 C754 1.385 . S
C754 H740 0.909 1_554 S
C754 C753 1.385 . S
C754 C755 1.389 . S
C755 C754 1.389 . S
C755 C756 1.387 . S
C756 H741 0.930 . S
C756 C751 1.390 . S
C756 C755 1.387 . S
H757 C769 0.930 . S
H758 C771 0.930 . S
H759 C772 0.930 . S
H760 C776 0.959 . S
H761 C776 0.959 . S
H762 C776 0.961 . S
H763 C777 0.960 . S
H764 C777 0.961 . S
H765 C777 0.959 . S
H766 C780 0.929 . S
H767 C781 0.931 . S
H768 C783 0.930 . S
C769 H757 0.930 . S
C769 C770 1.399 . S
C769 C774 1.399 . S
C770 C769 1.399 . S
C770 C771 1.376 . S
C771 H758 0.930 . S
C771 C770 1.376 . S
C771 C772 1.388 . S
C772 H759 0.930 . S
C772 C771 1.388 . S
C772 C773 1.390 . S
C773 C772 1.390 . S
C773 C774 1.394 . S
C773 C779 1.465 . S
C774 C769 1.399 . S
C774 C773 1.394 . S
C774 C775 1.516 . S
C775 C774 1.516 . S
C775 C776 1.502 . S
C775 C777 1.561 . S
C775 C778 1.526 . S
C776 H760 0.959 . S
C776 H761 0.959 . S
C776 H762 0.961 . S
C776 C775 1.502 . S
C777 H763 0.960 . S
C777 H764 0.961 . S
C777 H765 0.959 . S
C777 C775 1.561 . S
C778 C775 1.526 . S
C778 C779 1.396 . S
C778 C783 1.390 . S
C779 C773 1.465 . S
C779 C778 1.396 . S
C779 C780 1.399 . S
C780 H766 0.929 . S
C780 C779 1.399 . S
C780 C781 1.385 . S
C781 H767 0.931 . S
C781 C780 1.385 . S
C781 C782 1.389 . S
C782 C781 1.389 . S
C782 C783 1.387 . S
C783 H768 0.930 . S
C783 C778 1.390 . S
C783 C782 1.387 . S
H784 C796 0.930 . S
H785 C798 0.930 1_554 S
H786 C799 0.930 . S
H787 C803 0.959 . S
H788 C803 0.959 . S
H789 C803 0.961 . S
H790 C804 0.960 . S
H791 C804 0.961 . S
H792 C804 0.959 1_455 S
H793 C807 0.929 1_455 S
H794 C808 0.931 1_455 S
H795 C810 0.930 . S
C796 H784 0.930 . S
C796 C797 1.399 . S
C796 C801 1.399 . S
C797 C796 1.399 . S
C797 C798 1.376 . S
C798 H785 0.930 1_556 S
C798 C797 1.376 . S
C798 C799 1.388 1_556 S
C799 H786 0.930 . S
C799 C798 1.388 1_554 S
C799 C800 1.390 1_554 S
C800 C799 1.390 1_556 S
C800 C801 1.394 . S
C800 C806 1.465 . S
C801 C796 1.399 . S
C801 C800 1.394 . S
C801 C802 1.516 . S
C802 C801 1.516 . S
C802 C803 1.502 . S
C802 C804 1.561 . S
C802 C805 1.526 . S
C803 H787 0.959 . S
C803 H788 0.959 . S
C803 H789 0.961 . S
C803 C802 1.502 . S
C804 H790 0.960 . S
C804 H791 0.961 . S
C804 H792 0.959 1_655 S
C804 C802 1.561 . S
C805 C802 1.526 . S
C805 C806 1.396 . S
C805 C810 1.390 . S
C806 C800 1.465 . S
C806 C805 1.396 . S
C806 C807 1.399 1_556 S
C807 H793 0.929 1_655 S
C807 C806 1.399 1_554 S
C807 C808 1.385 . S
C808 H794 0.931 1_655 S
C808 C807 1.385 . S
C808 C809 1.389 1_554 S
C809 C808 1.389 1_556 S
C809 C810 1.387 . S
C810 H795 0.930 . S
C810 C805 1.390 . S
C810 C809 1.387 . S
H811 C823 0.930 . S
H812 C825 0.930 . S
H813 C826 0.930 . S
H814 C830 0.959 . S
H815 C830 0.959 . S
H816 C830 0.961 . S
H817 C831 0.960 . S
H818 C831 0.961 . S
H819 C831 0.959 . S
H820 C834 0.929 . S
H821 C835 0.931 . S
H822 C837 0.930 . S
C823 H811 0.930 . S
C823 C824 1.399 . S
C823 C828 1.399 . S
C824 C823 1.399 . S
C824 C825 1.376 . S
C825 H812 0.930 . S
C825 C824 1.376 . S
C825 C826 1.388 . S
C826 H813 0.930 . S
C826 C825 1.388 . S
C826 C827 1.390 . S
C827 C826 1.390 . S
C827 C828 1.394 . S
C827 C833 1.465 . S
C828 C823 1.399 . S
C828 C827 1.394 . S
C828 C829 1.516 . S
C829 C828 1.516 . S
C829 C830 1.502 . S
C829 C831 1.561 . S
C829 C832 1.526 . S
C830 H814 0.959 . S
C830 H815 0.959 . S
C830 H816 0.961 . S
C830 C829 1.502 . S
C831 H817 0.960 . S
C831 H818 0.961 . S
C831 H819 0.959 . S
C831 C829 1.561 . S
C832 C829 1.526 . S
C832 C833 1.396 . S
C832 C837 1.390 . S
C833 C827 1.465 . S
C833 C832 1.396 . S
C833 C834 1.399 . S
C834 H820 0.929 . S
C834 C833 1.399 . S
C834 C835 1.385 . S
C835 H821 0.931 . S
C835 C834 1.385 . S
C835 C836 1.389 . S
C836 C835 1.389 . S
C836 C837 1.387 . S
C837 H822 0.930 . S
C837 C832 1.390 . S
C837 C836 1.387 . S
H838 C850 0.930 . S
H839 C852 0.930 . S
H840 C853 0.930 . S
H841 C857 0.960 . S
H842 C857 0.959 . S
H843 C857 0.961 . S
H844 C858 0.960 . S
H845 C858 0.961 . S
H846 C858 0.959 . S
H847 C861 0.929 . S
H848 C862 0.931 . S
H849 C864 0.930 . S
C850 H838 0.930 . S
C850 C851 1.399 . S
C850 C855 1.399 . S
C851 C850 1.399 . S
C851 C852 1.376 . S
C852 H839 0.930 . S
C852 C851 1.376 . S
C852 C853 1.388 . S
C853 H840 0.930 . S
C853 C852 1.388 . S
C853 C854 1.390 . S
C854 C853 1.390 . S
C854 C855 1.394 . S
C854 C860 1.465 . S
C855 C850 1.399 . S
C855 C854 1.394 . S
C855 C856 1.516 . S
C856 C855 1.516 . S
C856 C857 1.502 . S
C856 C858 1.561 . S
C856 C859 1.526 . S
C857 H841 0.960 . S
C857 H842 0.959 . S
C857 H843 0.961 . S
C857 C856 1.502 . S
C858 H844 0.960 . S
C858 H845 0.961 . S
C858 H846 0.959 . S
C858 C856 1.561 . S
C859 C856 1.526 . S
C859 C860 1.396 . S
C859 C864 1.390 . S
C860 C854 1.465 . S
C860 C859 1.396 . S
C860 C861 1.399 . S
C861 H847 0.929 . S
C861 C860 1.399 . S
C861 C862 1.385 . S
C862 H848 0.931 . S
C862 C861 1.385 . S
C862 C863 1.389 . S
C863 C862 1.389 . S
C863 C864 1.387 . S
C864 H849 0.930 . S
C864 C859 1.390 . S
C864 C863 1.387 . S
H865 C877 0.930 . S
H866 C879 0.930 . S
H867 C880 0.930 . S
H868 C884 0.959 . S
H869 C884 0.959 . S
H870 C884 0.961 . S
H871 C885 0.960 . S
H872 C885 0.961 . S
H873 C885 0.959 . S
H874 C888 0.929 . S
H875 C889 0.931 . S
H876 C891 0.930 . S
C877 H865 0.930 . S
C877 C878 1.399 . S
C877 C882 1.399 . S
C878 C877 1.399 . S
C878 C879 1.376 . S
C879 H866 0.930 . S
C879 C878 1.376 . S
C879 C880 1.388 . S
C880 H867 0.930 . S
C880 C879 1.388 . S
C880 C881 1.390 . S
C881 C880 1.390 . S
C881 C882 1.394 . S
C881 C887 1.465 . S
C882 C877 1.399 . S
C882 C881 1.394 . S
C882 C883 1.516 . S
C883 C882 1.516 . S
C883 C884 1.502 . S
C883 C885 1.561 . S
C883 C886 1.526 . S
C884 H868 0.959 . S
C884 H869 0.959 . S
C884 H870 0.961 . S
C884 C883 1.502 . S
C885 H871 0.960 . S
C885 H872 0.961 . S
C885 H873 0.959 . S
C885 C883 1.561 . S
C886 C883 1.526 . S
C886 C887 1.396 . S
C886 C891 1.390 . S
C887 C881 1.465 . S
C887 C886 1.396 . S
C887 C888 1.399 . S
C888 H874 0.929 . S
C888 C887 1.399 . S
C888 C889 1.385 . S
C889 H875 0.931 . S
C889 C888 1.385 . S
C889 C890 1.389 . S
C890 C889 1.389 . S
C890 C891 1.387 . S
C891 H876 0.930 . S
C891 C886 1.390 . S
C891 C890 1.387 . S
C257 C6 1.836 . S
C269 C170 1.833 . S
C284 C21 2.165 . S
C296 C194 2.074 1_565 S
C323 C214 0.852 . S
C311 C49 0.796 . S
C338 C68 1.213 . S
C350 C237 1.259 . S
C377 C196 2.360 . S
C365 C2 2.356 . S
C404 C172 1.401 1_565 S
C392 C30 1.324 . S
C431 C240 1.380 . S
C419 C40 1.507 . S
C458 C217 1.330 . S
C446 C63 1.360 . S
C473 C11 1.278 . S
C485 C242 1.497 . S
C512 C191 1.771 . S
C500 C44 1.766 . S
C527 C59 1.226 . S
C539 C169 1.275 . S
C554 C25 1.717 . S
C566 C219 1.702 . S
C593 C173 2.080 . S
C581 C82 2.069 1_545 S
C608 C101 1.828 . S
C620 C195 1.831 . S
C635 C125 1.460 . S
C647 C215 1.551 . S
C662 C144 1.188 . S
C674 C238 1.289 . S
C689 C87 1.165 1_554 S
C701 C193 1.365 . S
C728 C171 2.154 . S
C716 C97 2.178 . S
C755 C241 1.308 . S
C743 C120 1.387 . S
C782 C218 1.363 . S
C770 C135 1.304 . S
C797 C78 2.144 . S
C809 C239 2.119 1_656 S
C836 C192 1.149 . S
C824 C116 1.188 . S
C863 C168 1.697 . S
C851 C139 1.626 . S
C878 C106 1.679 . S
C890 C216 1.738 . S
