# Generated by pormake.
# Topology csq, (4,8)-cn, num edge types: 1
# Building blocks:
#     Node 0, Type 0, BuildingBlock: NAWXER_clean_linker_0, # of connection points: 4
#     Node 1, Type 0, BuildingBlock: NAWXER_clean_linker_0, # of connection points: 4
#     Node 2, Type 0, BuildingBlock: NAWXER_clean_linker_0, # of connection points: 4
#     Node 3, Type 0, BuildingBlock: NAWXER_clean_linker_0, # of connection points: 4
#     Node 4, Type 0, BuildingBlock: NAWXER_clean_linker_0, # of connection points: 4
#     Node 5, Type 0, BuildingBlock: NAWXER_clean_linker_0, # of connection points: 4
#     Node 6, Type 1, BuildingBlock: TAGTUT_clean_sbu_1, # of connection points: 8
#     Node 7, Type 1, BuildingBlock: TAGTUT_clean_sbu_1, # of connection points: 8
#     Node 8, Type 1, BuildingBlock: TAGTUT_clean_sbu_1, # of connection points: 8
#     Edge 9, Type (0, 1), BuildingBlock: XIVTED_clean_linker_0, # of connection points: 2
#     Edge 10, Type (0, 1), BuildingBlock: XIVTED_clean_linker_0, # of connection points: 2
#     Edge 11, Type (0, 1), BuildingBlock: XIVTED_clean_linker_0, # of connection points: 2
#     Edge 12, Type (0, 1), BuildingBlock: XIVTED_clean_linker_0, # of connection points: 2
#     Edge 13, Type (0, 1), BuildingBlock: XIVTED_clean_linker_0, # of connection points: 2
#     Edge 14, Type (0, 1), BuildingBlock: XIVTED_clean_linker_0, # of connection points: 2
#     Edge 15, Type (0, 1), BuildingBlock: XIVTED_clean_linker_0, # of connection points: 2
#     Edge 16, Type (0, 1), BuildingBlock: XIVTED_clean_linker_0, # of connection points: 2
#     Edge 17, Type (0, 1), BuildingBlock: XIVTED_clean_linker_0, # of connection points: 2
#     Edge 18, Type (0, 1), BuildingBlock: XIVTED_clean_linker_0, # of connection points: 2
#     Edge 19, Type (0, 1), BuildingBlock: XIVTED_clean_linker_0, # of connection points: 2
#     Edge 20, Type (0, 1), BuildingBlock: XIVTED_clean_linker_0, # of connection points: 2
#     Edge 21, Type (0, 1), BuildingBlock: XIVTED_clean_linker_0, # of connection points: 2
#     Edge 22, Type (0, 1), BuildingBlock: XIVTED_clean_linker_0, # of connection points: 2
#     Edge 23, Type (0, 1), BuildingBlock: XIVTED_clean_linker_0, # of connection points: 2
#     Edge 24, Type (0, 1), BuildingBlock: XIVTED_clean_linker_0, # of connection points: 2
#     Edge 25, Type (0, 1), BuildingBlock: XIVTED_clean_linker_0, # of connection points: 2
#     Edge 26, Type (0, 1), BuildingBlock: XIVTED_clean_linker_0, # of connection points: 2
#     Edge 27, Type (0, 1), BuildingBlock: XIVTED_clean_linker_0, # of connection points: 2
#     Edge 28, Type (0, 1), BuildingBlock: XIVTED_clean_linker_0, # of connection points: 2
#     Edge 29, Type (0, 1), BuildingBlock: XIVTED_clean_linker_0, # of connection points: 2
#     Edge 30, Type (0, 1), BuildingBlock: XIVTED_clean_linker_0, # of connection points: 2
#     Edge 31, Type (0, 1), BuildingBlock: XIVTED_clean_linker_0, # of connection points: 2
#     Edge 32, Type (0, 1), BuildingBlock: XIVTED_clean_linker_0, # of connection points: 2
# Relax obj value: 0.031
# Max RMSD: 0.126
# Mean RMSD: 0.041
data_MOF--net-csq--node1-TAGTUT_clean_sbu_1--node2-NAWXER_clean_linker_0--edge1-XIVTED_clean_linker_0
_symmetry_space_group_name_H-M    P1
_symmetry_Int_Tables_number       1
_symmetry_cell_setting            triclinic
loop_
_symmetry_equiv_pos_as_xyz
'x, y, z'
_cell_length_a     61.977334
_cell_length_b     61.209745
_cell_length_c     22.441736
_cell_angle_alpha  92.869379
_cell_angle_beta   91.631428
_cell_angle_gamma 120.07044
loop_
_atom_site_label
_atom_site_type_symbol
_atom_site_fract_x
_atom_site_fract_y
_atom_site_fract_z
_atom_type_partial_charge
C0 C 0.31871 0.49465 0.05435 0.0
C1 C 0.31058 0.47773 0.00282 0.0
C2 C 0.3016 0.49396 0.09482 0.0
C3 C 0.27602 0.47606 0.08515 0.0
C4 C 0.28506 0.45945 0.99433 0.0
C5 C 0.26809 0.4586 0.03496 0.0
C6 C 0.25687 0.47753 0.12072 0.0
C7 C 0.29874 0.46134 0.26179 0.0
C8 C 0.31303 0.4818 0.3043 0.0
C9 C 0.2818 0.4621 0.22101 0.0
C10 C 0.27855 0.48316 0.22238 0.0
C11 C 0.30965 0.5029 0.30543 0.0
C12 C 0.29232 0.50341 0.26523 0.0
C13 C 0.25901 0.48288 0.18318 0.0
C14 C 0.15764 0.46532 0.24007 0.0
C15 C 0.16474 0.48455 0.2862 0.0
C16 C 0.17543 0.46481 0.20399 0.0
C17 C 0.20071 0.48364 0.21289 0.0
C18 C 0.19009 0.50325 0.29526 0.0
C19 C 0.20787 0.50272 0.25918 0.0
C20 C 0.22013 0.48229 0.17847 0.0
C21 C 0.17631 0.49313 0.02677 0.0
C22 C 0.16801 0.47463 0.97843 0.0
C23 C 0.19107 0.49285 0.07473 0.0
C24 C 0.19746 0.47389 0.07533 0.0
C25 C 0.17337 0.45495 0.98103 0.0
C26 C 0.1879 0.45459 0.02898 0.0
C27 C 0.21782 0.4765 0.11607 0.0
H28 H 0.33824 0.50878 0.06294 0.0
H29 H 0.30829 0.50819 0.13197 0.0
H30 H 0.27789 0.44635 0.95493 0.0
H31 H 0.24846 0.44475 0.0259 0.0
H32 H 0.30032 0.44449 0.26048 0.0
H33 H 0.27074 0.44593 0.18942 0.0
H34 H 0.32055 0.51914 0.33686 0.0
H35 H 0.28976 0.51969 0.26732 0.0
H36 H 0.13836 0.45033 0.23256 0.0
H37 H 0.16947 0.44929 0.17025 0.0
H38 H 0.19619 0.5185 0.32983 0.0
H39 H 0.22729 0.51729 0.26745 0.0
H40 H 0.1721 0.50829 0.02665 0.0
H41 H 0.19866 0.50825 0.1093 0.0
H42 H 0.16755 0.44053 0.94451 0.0
H43 H 0.19282 0.43991 0.02824 0.0
N44 N 0.23631 0.47451 0.0901 0.0
N45 N 0.2407 0.48523 0.2095 0.0
C46 C 0.69334 0.18801 0.26282 0.0
C47 C 0.7035 0.18308 0.31394 0.0
C48 C 0.70844 0.20064 0.21649 0.0
C49 C 0.73395 0.20821 0.21985 0.0
C50 C 0.72904 0.19076 0.31699 0.0
C51 C 0.74401 0.20313 0.2706 0.0
C52 C 0.75116 0.22376 0.17485 0.0
C53 C 0.69409 0.154 0.05401 0.0
C54 C 0.68248 0.16045 0.0088 0.0
C55 C 0.71412 0.17292 0.09052 0.0
C56 C 0.72266 0.19848 0.08239 0.0
C57 C 0.69061 0.18609 0.00255 0.0
C58 C 0.71057 0.20488 0.03872 0.0
C59 C 0.74618 0.21882 0.11207 0.0
C60 C 0.84851 0.28524 0.02783 0.0
C61 C 0.8448 0.29941 0.98574 0.0
C62 C 0.82912 0.2697 0.06276 0.0
C63 C 0.80568 0.26786 0.05548 0.0
C64 C 0.82107 0.29688 0.97707 0.0
C65 C 0.80152 0.28092 0.01125 0.0
C66 C 0.78626 0.25376 0.09715 0.0
C67 C 0.83623 0.3299 0.18612 0.0
C68 C 0.85286 0.33027 0.23039 0.0
C69 C 0.81584 0.30699 0.16338 0.0
C70 C 0.81179 0.28407 0.18433 0.0
C71 C 0.84861 0.30729 0.25182 0.0
C72 C 0.82809 0.28434 0.22921 0.0
C73 C 0.7904 0.25999 0.15905 0.0
H74 H 0.67371 0.18219 0.25855 0.0
H75 H 0.70026 0.20505 0.17907 0.0
H76 H 0.73771 0.18777 0.3559 0.0
H77 H 0.7637 0.20909 0.27485 0.0
H78 H 0.68834 0.13439 0.05966 0.0
H79 H 0.72357 0.16764 0.12317 0.0
H80 H 0.68173 0.19169 0.96915 0.0
H81 H 0.71702 0.22454 0.03162 0.0
H82 H 0.86667 0.28701 0.03546 0.0
H83 H 0.83258 0.25961 0.09659 0.0
H84 H 0.81782 0.30759 0.94457 0.0
H85 H 0.78352 0.27969 0.00514 0.0
H86 H 0.83906 0.3473 0.16887 0.0
H87 H 0.80314 0.30717 0.1295 0.0
H88 H 0.86094 0.30711 0.28676 0.0
H89 H 0.82509 0.26683 0.24617 0.0
N90 N 0.77306 0.24451 0.1958 0.0
N91 N 0.76413 0.23381 0.0757 0.0
C92 C 0.55363 0.70557 0.01666 0.0
C93 C 0.53419 0.68869 0.97532 0.0
C94 C 0.55412 0.72717 0.04126 0.0
C95 C 0.53494 0.73211 0.02584 0.0
C96 C 0.51538 0.69408 0.9586 0.0
C97 C 0.51583 0.71572 0.98348 0.0
C98 C 0.53461 0.75403 0.0554 0.0
C99 C 0.51713 0.69597 0.18267 0.0
C100 C 0.53627 0.70249 0.2271 0.0
C101 C 0.5168 0.71447 0.14958 0.0
C102 C 0.53601 0.73982 0.1587 0.0
C103 C 0.55464 0.7282 0.23872 0.0
C104 C 0.55449 0.7467 0.20478 0.0
C105 C 0.5373 0.75876 0.11824 0.0
C106 C 0.52931 0.85196 0.15734 0.0
C107 C 0.5531 0.86996 0.18327 0.0
C108 C 0.52464 0.82831 0.13397 0.0
C109 C 0.54358 0.82216 0.13669 0.0
C110 C 0.5719 0.86346 0.18615 0.0
C111 C 0.56706 0.83966 0.16379 0.0
C112 C 0.53968 0.7983 0.10748 0.0
C113 C 0.54825 0.85245 0.97215 0.0
C114 C 0.52731 0.84315 0.93186 0.0
C115 C 0.55151 0.83602 0.00719 0.0
C116 C 0.53338 0.81016 0.00423 0.0
C117 C 0.50989 0.81711 0.92636 0.0
C118 C 0.51285 0.80074 0.96252 0.0
C119 C 0.5354 0.79287 0.04488 0.0
H120 H 0.56834 0.70193 0.03064 0.0
H121 H 0.56932 0.73986 0.07308 0.0
H122 H 0.50043 0.6817 0.92591 0.0
H123 H 0.501 0.71935 0.97066 0.0
H124 H 0.50276 0.67645 0.17188 0.0
H125 H 0.50191 0.70879 0.11538 0.0
H126 H 0.5693 0.73404 0.2736 0.0
H127 H 0.56928 0.76622 0.21318 0.0
H128 H 0.51419 0.85599 0.15551 0.0
H129 H 0.50636 0.81491 0.11323 0.0
H130 H 0.59055 0.87688 0.20475 0.0
H131 H 0.58195 0.83524 0.16558 0.0
H132 H 0.56222 0.8724 0.97596 0.0
H133 H 0.56812 0.84359 0.0369 0.0
H134 H 0.49372 0.80955 0.89507 0.0
H135 H 0.49882 0.78081 0.95888 0.0
N136 N 0.53315 0.77093 0.021 0.0
N137 N 0.54033 0.78102 0.14206 0.0
C138 C 0.8527 0.54865 0.00071 0.0
C139 C 0.84407 0.52676 0.96184 0.0
C140 C 0.83614 0.55182 0.03651 0.0
C141 C 0.8107 0.53322 0.03351 0.0
C142 C 0.81868 0.50811 0.9597 0.0
C143 C 0.80218 0.5114 0.99478 0.0
C144 C 0.7922 0.53706 0.06561 0.0
C145 C 0.8336 0.52638 0.22108 0.0
C146 C 0.8416 0.54474 0.26958 0.0
C147 C 0.81993 0.5273 0.17169 0.0
C148 C 0.81442 0.54687 0.16943 0.0
C149 C 0.83723 0.56504 0.26562 0.0
C150 C 0.82378 0.56607 0.21605 0.0
C151 C 0.79466 0.54461 0.12701 0.0
C152 C 0.69254 0.5209 0.18662 0.0
C153 C 0.69961 0.5387 0.23615 0.0
C154 C 0.71009 0.52266 0.1463 0.0
C155 C 0.73499 0.54259 0.15375 0.0
C156 C 0.72441 0.55895 0.24245 0.0
C157 C 0.74179 0.56088 0.20175 0.0
C158 C 0.75498 0.54236 0.11925 0.0
C159 C 0.70429 0.54389 0.97239 0.0
C160 C 0.69431 0.52296 0.93001 0.0
C161 C 0.72285 0.54767 0.01538 0.0
C162 C 0.73159 0.53051 0.01666 0.0
C163 C 0.70313 0.50587 0.93155 0.0
C164 C 0.72165 0.50968 0.97429 0.0
C165 C 0.75275 0.53522 0.05757 0.0
H166 H 0.87221 0.56327 0.00344 0.0
H167 H 0.84305 0.56904 0.06519 0.0
H168 H 0.81142 0.49117 0.92977 0.0
H169 H 0.7826 0.4969 0.99127 0.0
H170 H 0.8371 0.51075 0.22219 0.0
H171 H 0.81233 0.5118 0.13742 0.0
H172 H 0.84294 0.57941 0.30222 0.0
H173 H 0.81944 0.58116 0.21571 0.0
H174 H 0.67357 0.50524 0.17959 0.0
H175 H 0.70436 0.50771 0.11116 0.0
H176 H 0.73083 0.57282 0.28033 0.0
H177 H 0.76093 0.57624 0.20925 0.0
H178 H 0.69766 0.55724 0.97252 0.0
H179 H 0.7307 0.56424 0.04668 0.0
H180 H 0.696 0.48974 0.89909 0.0
H181 H 0.72836 0.49638 0.97398 0.0
N182 N 0.77137 0.53277 0.03353 0.0
N183 N 0.77597 0.54692 0.15099 0.0
C184 C 0.29642 0.83074 0.96276 0.0
C185 C 0.3043 0.8182 0.92232 0.0
C186 C 0.28201 0.81829 0.01006 0.0
C187 C 0.27527 0.79307 0.01796 0.0
C188 C 0.29788 0.79313 0.931 0.0
C189 C 0.2834 0.78067 0.97806 0.0
C190 C 0.25735 0.7785 0.06267 0.0
C191 C 0.32445 0.834 0.18079 0.0
C192 C 0.3207 0.84891 0.22426 0.0
C193 C 0.30433 0.815 0.14511 0.0
C194 C 0.28009 0.8108 0.15154 0.0
C195 C 0.29657 0.84513 0.22971 0.0
C196 C 0.27646 0.82623 0.1937 0.0
C197 C 0.2582 0.78796 0.12222 0.0
C198 C 0.17408 0.6964 0.22196 0.0
C199 C 0.15793 0.7049 0.24072 0.0
C200 C 0.19501 0.71194 0.19134 0.0
C201 C 0.2 0.73613 0.17808 0.0
C202 C 0.16381 0.72974 0.23072 0.0
C203 C 0.18474 0.74526 0.1995 0.0
C204 C 0.21972 0.75078 0.13742 0.0
C205 C 0.15541 0.68836 0.02551 0.0
C206 C 0.15964 0.66804 0.01374 0.0
C207 C 0.17498 0.71214 0.04633 0.0
C208 C 0.19918 0.71615 0.05504 0.0
C209 C 0.18402 0.6722 0.02325 0.0
C210 C 0.20368 0.69617 0.04312 0.0
C211 C 0.21954 0.74095 0.07936 0.0
H212 H 0.30128 0.85015 0.95766 0.0
H213 H 0.27548 0.82811 0.03919 0.0
H214 H 0.30345 0.78287 0.90039 0.0
H215 H 0.27819 0.76113 0.98273 0.0
H216 H 0.34278 0.83621 0.17625 0.0
H217 H 0.30762 0.80278 0.11487 0.0
H218 H 0.2932 0.85653 0.26244 0.0
H219 H 0.25789 0.82316 0.2 0.0
H220 H 0.17035 0.67758 0.23038 0.0
H221 H 0.2069 0.70476 0.17628 0.0
H222 H 0.1517 0.73677 0.2449 0.0
H223 H 0.18837 0.76393 0.18977 0.0
H224 H 0.13712 0.68617 0.01726 0.0
H225 H 0.17129 0.72749 0.05531 0.0
H226 H 0.18794 0.65697 0.01541 0.0
H227 H 0.2223 0.69901 0.0504 0.0
N228 N 0.23814 0.75513 0.0439 0.0
N229 N 0.23908 0.77385 0.15701 0.0
C230 C 0.46924 0.15232 0.07822 0.0
C231 C 0.44528 0.13414 0.05364 0.0
C232 C 0.47391 0.17589 0.10219 0.0
C233 C 0.45482 0.18184 0.10139 0.0
C234 C 0.42623 0.14034 0.05303 0.0
C235 C 0.43107 0.16409 0.07603 0.0
C236 C 0.45913 0.20593 0.13037 0.0
C237 C 0.44827 0.15255 0.26895 0.0
C238 C 0.47034 0.15966 0.3037 0.0
C239 C 0.44648 0.16981 0.23399 0.0
C240 C 0.46685 0.1944 0.23211 0.0
C241 C 0.49055 0.18453 0.3029 0.0
C242 C 0.48875 0.20181 0.26754 0.0
C243 C 0.46537 0.21212 0.19225 0.0
C244 C 0.45656 0.29563 0.28432 0.0
C245 C 0.47249 0.31923 0.26219 0.0
C246 C 0.45547 0.2737 0.25965 0.0
C247 C 0.47013 0.27494 0.21218 0.0
C248 C 0.4879 0.32055 0.21613 0.0
C249 C 0.4868 0.29857 0.19148 0.0
C250 C 0.4668 0.25128 0.18257 0.0
C251 C 0.47165 0.29197 0.00696 0.0
C252 C 0.45348 0.29861 0.01927 0.0
C253 C 0.47288 0.27335 0.03789 0.0
C254 C 0.45626 0.2615 0.08228 0.0
C255 C 0.43602 0.28573 0.06157 0.0
C256 C 0.43747 0.26736 0.09307 0.0
C257 C 0.46004 0.24481 0.12091 0.0
H258 H 0.48454 0.14856 0.07829 0.0
H259 H 0.49241 0.18947 0.12152 0.0
H260 H 0.40746 0.12677 0.0355 0.0
H261 H 0.41606 0.16831 0.07577 0.0
H262 H 0.43243 0.13351 0.26805 0.0
H263 H 0.4292 0.16386 0.20794 0.0
H264 H 0.50765 0.19069 0.3299 0.0
H265 H 0.5046 0.2208 0.26699 0.0
H266 H 0.44489 0.29408 0.32074 0.0
H267 H 0.44261 0.25565 0.27647 0.0
H268 H 0.50038 0.33846 0.19824 0.0
H269 H 0.49861 0.29997 0.15553 0.0
H270 H 0.48513 0.30146 0.97401 0.0
H271 H 0.48749 0.26903 0.02911 0.0
H272 H 0.42188 0.29057 0.07193 0.0
H273 H 0.42446 0.2583 0.12719 0.0
N274 N 0.45657 0.22242 0.09673 0.0
N275 N 0.46905 0.23462 0.21628 0.0
C276 C 0.9801 0.43123 0.76263 0.0
C277 C 0.05226 0.47788 0.68844 0.0
C278 C 0.03262 0.55222 0.7182 0.0
Mg279 Mg -0.00188 0.44889 0.63732 0.0
O280 O 0.99298 0.47517 0.66649 0.0
Mg281 Mg 0.01167 0.49397 0.74361 0.0
Mg282 Mg 0.00234 0.50477 0.61819 0.0
O283 O 0.01194 0.53443 0.57068 0.0
Mg284 Mg 0.00803 0.5613 0.60233 0.0
Mg285 Mg 0.99241 0.51581 0.49431 0.0
C286 C 0.97386 0.45769 0.51905 0.0
C287 C 0.03698 0.50326 0.51246 0.0
O288 O 0.99141 0.45461 0.78281 0.0
O289 O 0.97971 0.42443 0.70741 0.0
O290 O 0.04518 0.4895 0.72439 0.0
O291 O 0.03742 0.46151 0.64765 0.0
O292 O 0.98098 0.44447 0.54778 0.0
O293 O 0.97609 0.47849 0.54165 0.0
C294 C 0.96607 0.50464 0.72164 0.0
O295 O 0.97137 0.50857 0.66679 0.0
O296 O 0.97843 0.49876 0.75748 0.0
O297 O 0.01286 0.55556 0.4555 0.0
O298 O 0.02567 0.58555 0.53181 0.0
O299 O 0.95967 0.52136 0.5168 0.0
C300 C 0.02451 0.57892 0.47613 0.0
O301 O 0.96903 0.54972 0.59387 0.0
O302 O 0.02638 0.56647 0.69114 0.0
C303 C 0.95351 0.53356 0.55367 0.0
O304 O 0.02823 0.53075 0.69479 0.0
O305 O 0.03314 0.5008 0.56848 0.0
O306 O 0.02438 0.50933 0.47779 0.0
C307 C 0.44777 0.00189 0.79803 0.0
C308 C 0.42678 0.93882 0.67263 0.0
C309 C 0.52508 0.96997 0.67327 0.0
Mg310 Mg 0.44772 0.99529 0.65998 0.0
O311 O 0.4803 0.00312 0.68237 0.0
Mg312 Mg 0.48388 0.98051 0.73847 0.0
Mg313 Mg 0.50178 0.00291 0.61857 0.0
O314 O 0.52326 0.00264 0.55484 0.0
Mg315 Mg 0.55564 0.00978 0.57695 0.0
Mg316 Mg 0.51981 0.02537 0.49901 0.0
C317 C 0.47748 0.03399 0.56072 0.0
C318 C 0.46647 0.97337 0.49735 0.0
O319 O 0.46263 0.99304 0.80435 0.0
O320 O 0.44025 0.00471 0.74673 0.0
O321 O 0.44655 0.94559 0.70564 0.0
O322 O 0.42362 0.95486 0.64515 0.0
O323 O 0.45749 0.02122 0.58862 0.0
O324 O 0.49729 0.03262 0.57103 0.0
C325 C 0.53752 0.03206 0.7394 0.0
O326 O 0.53528 0.03247 0.68238 0.0
O327 O 0.52048 0.01476 0.7679 0.0
O328 O 0.54102 0.01312 0.43285 0.0
O329 O 0.56337 0.00116 0.48959 0.0
O330 O 0.55735 0.06002 0.53243 0.0
C331 C 0.55589 0.00429 0.43858 0.0
O332 O 0.57973 0.05024 0.59361 0.0
O333 O 0.54504 0.98206 0.64481 0.0
C334 C 0.577 0.06649 0.56572 0.0
O335 O 0.50623 0.97322 0.666 0.0
O336 O 0.46837 0.97321 0.55454 0.0
O337 O 0.4834 0.99091 0.46911 0.0
C338 C 0.5408 0.56847 0.455 0.0
C339 C 0.57241 0.52452 0.51619 0.0
C340 C 0.47601 0.45146 0.53389 0.0
Mg341 Mg 0.55247 0.55564 0.57965 0.0
O342 O 0.51921 0.52956 0.56366 0.0
Mg343 Mg 0.51148 0.50719 0.48853 0.0
Mg344 Mg 0.50358 0.50321 0.62159 0.0
O345 O 0.48757 0.47669 0.67917 0.0
Mg346 Mg 0.45401 0.45155 0.66198 0.0
Mg347 Mg 0.49546 0.499 0.75432 0.0
C348 C 0.53141 0.55521 0.70882 0.0
C349 C 0.54672 0.50409 0.70769 0.0
O350 O 0.52629 0.54467 0.44034 0.0
O351 O 0.55246 0.57693 0.50653 0.0
O352 O 0.55078 0.51182 0.48906 0.0
O353 O 0.57718 0.54158 0.55787 0.0
O354 O 0.5486 0.56619 0.67194 0.0
O355 O 0.51193 0.5334 0.69566 0.0
C356 C 0.45903 0.49905 0.53442 0.0
O357 O 0.46613 0.49951 0.58892 0.0
O358 O 0.47299 0.50192 0.49115 0.0
O359 O 0.47877 0.46143 0.80242 0.0
O360 O 0.45243 0.4297 0.73539 0.0
O361 O 0.45708 0.49629 0.75287 0.0
C362 C 0.46361 0.43779 0.78752 0.0
O363 O 0.43037 0.46716 0.6833 0.0
O364 O 0.45834 0.44083 0.56986 0.0
C365 C 0.43557 0.48436 0.72501 0.0
O366 O 0.49572 0.47302 0.54771 0.0
O367 O 0.54065 0.5063 0.65416 0.0
O368 O 0.53275 0.50106 0.75105 0.0
H369 H 0.16821 0.49685 0.40758 0.0
H370 H 0.03458 0.4868 0.39746 0.0
H371 H 0.1178 0.4742 0.25062 0.0
H372 H 0.08012 0.50618 0.56208 0.0
H373 H 0.06482 0.48033 0.34584 0.0
H374 H 0.13668 0.49925 0.46691 0.0
C375 C 0.15056 0.49239 0.38555 0.0
C376 C 0.1457 0.48534 0.32382 0.0
C377 C 0.06838 0.48596 0.39324 0.0
C378 C 0.10955 0.48783 0.39162 0.0
C379 C 0.05107 0.48977 0.4229 0.0
C380 C 0.05503 0.49752 0.48408 0.0
C381 C 0.09015 0.49006 0.42449 0.0
C382 C 0.07647 0.50041 0.51476 0.0
C383 C 0.13253 0.49361 0.41958 0.0
C384 C 0.12235 0.47941 0.29802 0.0
N385 N 0.09346 0.49694 0.48442 0.0
N386 N 0.10529 0.48089 0.33191 0.0
H387 H 0.70594 0.14874 0.38428 0.0
H388 H 0.57785 0.10876 0.52824 0.0
H389 H 0.66502 0.18791 0.35882 0.0
H390 H 0.62641 0.08048 0.57985 0.0
H391 H 0.61204 0.14219 0.47825 0.0
H392 H 0.67936 0.12703 0.46441 0.0
C393 C 0.69158 0.15306 0.39588 0.0
C394 C 0.68769 0.17014 0.36408 0.0
C395 C 0.61544 0.12907 0.50173 0.0
C396 C 0.65677 0.14487 0.45584 0.0
C397 C 0.59596 0.11009 0.53083 0.0
C398 C 0.59909 0.09146 0.5573 0.0
C399 C 0.63811 0.12922 0.49841 0.0
C400 C 0.62303 0.09426 0.55957 0.0
C401 C 0.67634 0.14058 0.44178 0.0
C402 C 0.66843 0.17452 0.38093 0.0
N403 N 0.64143 0.11235 0.52908 0.0
N404 N 0.65356 0.1618 0.42517 0.0
H405 H 0.49717 0.65815 0.26197 0.0
H406 H 0.579 0.61696 0.44841 0.0
H407 H 0.57783 0.70069 0.26626 0.0
H408 H 0.50585 0.56265 0.36889 0.0
H409 H 0.57868 0.64942 0.38955 0.0
H410 H 0.49939 0.62445 0.31009 0.0
C411 C 0.51536 0.66043 0.27258 0.0
C412 C 0.53735 0.68239 0.25955 0.0
C413 C 0.56286 0.63032 0.38449 0.0
C414 C 0.53991 0.64395 0.31605 0.0
C415 C 0.56301 0.61181 0.418 0.0
C416 C 0.54239 0.58711 0.41353 0.0
C417 C 0.54171 0.62421 0.34737 0.0
C418 C 0.52218 0.58143 0.37343 0.0
C419 C 0.51657 0.64115 0.3002 0.0
C420 C 0.56036 0.68438 0.27614 0.0
N421 N 0.52218 0.59996 0.34251 0.0
N422 N 0.56104 0.66547 0.30381 0.0
H423 H 0.82933 0.50117 0.3238 0.0
H424 H 0.9429 0.57161 0.56895 0.0
H425 H 0.87981 0.58202 0.34373 0.0
H426 H 0.91026 0.49316 0.5052 0.0
H427 H 0.90956 0.57354 0.51265 0.0
H428 H 0.84998 0.49671 0.4128 0.0
C429 C 0.84477 0.51799 0.34673 0.0
C430 C 0.85322 0.54197 0.32531 0.0
C431 C 0.90933 0.55572 0.51245 0.0
C432 C 0.87632 0.53699 0.4283 0.0
C433 C 0.92815 0.55451 0.54512 0.0
C434 C 0.92954 0.53233 0.54046 0.0
C435 C 0.89183 0.53454 0.47566 0.0
C436 C 0.91003 0.51075 0.50892 0.0
C437 C 0.85629 0.51543 0.39797 0.0
C438 C 0.87269 0.56316 0.35836 0.0
N439 N 0.89218 0.5125 0.47671 0.0
N440 N 0.88374 0.56014 0.4079 0.0
H441 H 0.36807 0.88253 0.19616 0.0
H442 H 0.42053 0.93691 0.53375 0.0
H443 H 0.32135 0.85741 0.34573 0.0
H444 H 0.46253 0.96394 0.37713 0.0
H445 H 0.38421 0.90612 0.46838 0.0
H446 H 0.40329 0.91148 0.26452 0.0
C447 C 0.36526 0.88313 0.24351 0.0
C448 C 0.3418 0.86755 0.26531 0.0
C449 C 0.40146 0.91886 0.44866 0.0
C450 C 0.38207 0.90074 0.34423 0.0
C451 C 0.42217 0.93634 0.48595 0.0
C452 C 0.44453 0.95326 0.46103 0.0
C453 C 0.40336 0.91829 0.38632 0.0
C454 C 0.44565 0.95158 0.39864 0.0
C455 C 0.38535 0.89971 0.28262 0.0
C456 C 0.33911 0.86933 0.32707 0.0
N457 N 0.42542 0.93452 0.3637 0.0
N458 N 0.35907 0.88559 0.36453 0.0
H459 H 0.51323 0.36642 0.29044 0.0
H460 H 0.43419 0.41239 0.47529 0.0
H461 H 0.4328 0.32461 0.29143 0.0
H462 H 0.51407 0.45761 0.4646 0.0
H463 H 0.43279 0.38335 0.39492 0.0
H464 H 0.51359 0.40285 0.34151 0.0
C465 C 0.49563 0.36503 0.30063 0.0
C466 C 0.47298 0.3423 0.28768 0.0
C467 C 0.45061 0.39981 0.40944 0.0
C468 C 0.47325 0.38378 0.3465 0.0
C469 C 0.4514 0.41641 0.45535 0.0
C470 C 0.47434 0.43714 0.47744 0.0
C471 C 0.47296 0.40374 0.38606 0.0
C472 C 0.49601 0.44171 0.44928 0.0
C473 C 0.49584 0.38581 0.32991 0.0
C474 C 0.45073 0.34154 0.30203 0.0
N475 N 0.49486 0.42483 0.40576 0.0
N476 N 0.45145 0.36186 0.33123 0.0
H477 H 0.52567 0.88534 0.96951 0.0
H478 H 0.54361 0.93889 0.6528 0.0
H479 H 0.52184 0.84065 0.81055 0.0
H480 H 0.50323 0.95691 0.78094 0.0
H481 H 0.54157 0.90652 0.71557 0.0
H482 H 0.5226 0.91553 0.90641 0.0
C483 C 0.52407 0.8819 0.92131 0.0
C484 C 0.52404 0.86064 0.89484 0.0
C485 C 0.53306 0.91749 0.72979 0.0
C486 C 0.52096 0.89498 0.82317 0.0
C487 C 0.53437 0.93606 0.69434 0.0
C488 C 0.52358 0.95057 0.71187 0.0
C489 C 0.52141 0.9138 0.78392 0.0
C490 C 0.51162 0.94599 0.76576 0.0
C491 C 0.52219 0.89897 0.88556 0.0
C492 C 0.52184 0.85683 0.83241 0.0
N493 N 0.51111 0.92814 0.80049 0.0
N494 N 0.52073 0.87406 0.79856 0.0
H495 H 0.65215 0.47822 0.89535 0.0
H496 H 0.59428 0.53898 0.68138 0.0
H497 H 0.69107 0.55747 0.86229 0.0
H498 H 0.55149 0.46954 0.76675 0.0
H499 H 0.63296 0.54228 0.72443 0.0
H500 H 0.61823 0.4713 0.82511 0.0
C501 C 0.65369 0.49413 0.87273 0.0
C502 C 0.67432 0.51851 0.88509 0.0
C503 C 0.61507 0.52611 0.73263 0.0
C504 C 0.63545 0.51075 0.80502 0.0
C505 C 0.59315 0.52414 0.70778 0.0
C506 C 0.56993 0.50407 0.7212 0.0
C507 C 0.61344 0.50765 0.77008 0.0
C508 C 0.56917 0.48538 0.75596 0.0
C509 C 0.63429 0.49018 0.83281 0.0
C510 C 0.67524 0.53846 0.85481 0.0
N511 N 0.59062 0.48769 0.77952 0.0
N512 N 0.65595 0.53418 0.81634 0.0
H513 H 0.16236 0.63523 0.93029 0.0
H514 H 0.02909 0.58353 0.8031 0.0
H515 H 0.10972 0.64428 0.03592 0.0
H516 H 0.06721 0.54205 0.76625 0.0
H517 H 0.05725 0.60458 0.89201 0.0
H518 H 0.12764 0.59921 0.87392 0.0
C519 C 0.14359 0.62935 0.94283 0.0
C520 C 0.13904 0.64334 0.98712 0.0
C521 C 0.05906 0.59042 0.86526 0.0
C522 C 0.09919 0.6025 0.92119 0.0
C523 C 0.04314 0.57857 0.8144 0.0
C524 C 0.0462 0.56142 0.77703 0.0
C525 C 0.07855 0.58559 0.87755 0.0
C526 C 0.06441 0.55534 0.79386 0.0
C527 C 0.12373 0.60875 0.91034 0.0
C528 C 0.11415 0.63474 0.00061 0.0
N529 N 0.0804 0.56793 0.8422 0.0
N530 N 0.09511 0.61526 0.9667 0.0
H531 H 0.41433 0.10627 0.95562 0.0
H532 H 0.47353 0.01997 0.90767 0.0
H533 H 0.46529 0.1051 0.08928 0.0
H534 H 0.40767 0.00836 0.80752 0.0
H535 H 0.46831 0.04751 0.98181 0.0
H536 H 0.40919 0.06757 0.907 0.0
C537 C 0.42415 0.09772 0.97555 0.0
C538 C 0.44049 0.10929 0.02654 0.0
C539 C 0.45468 0.03843 0.94432 0.0
C540 C 0.43518 0.065 0.96948 0.0
C541 C 0.45757 0.02259 0.9022 0.0
C542 C 0.44132 0.01235 0.85074 0.0
C543 C 0.43554 0.04405 0.93438 0.0
C544 C 0.42097 0.01636 0.84587 0.0
C545 C 0.42127 0.07556 0.94742 0.0
C546 C 0.45301 0.09732 0.04917 0.0
N547 N 0.41892 0.03225 0.8865 0.0
N548 N 0.4504 0.07604 0.01997 0.0
H549 H 0.31036 0.43925 0.93319 0.0
H550 H 0.43973 0.52457 0.79418 0.0
H551 H 0.35113 0.52065 0.96618 0.0
H552 H 0.38538 0.45014 0.71663 0.0
H553 H 0.40792 0.52425 0.85676 0.0
H554 H 0.3383 0.44295 0.85515 0.0
C555 C 0.32503 0.45795 0.92392 0.0
C556 C 0.32824 0.47967 0.9567 0.0
C557 C 0.40283 0.5082 0.82523 0.0
C558 C 0.3607 0.48395 0.86751 0.0
C559 C 0.42095 0.50841 0.78927 0.0
C560 C 0.41527 0.48725 0.7504 0.0
C561 C 0.37901 0.4865 0.82317 0.0
C562 C 0.39061 0.46686 0.7459 0.0
C563 C 0.34102 0.46002 0.87922 0.0
C564 C 0.34809 0.5033 0.94313 0.0
N565 N 0.37353 0.46677 0.78274 0.0
N566 N 0.36364 0.50479 0.8999 0.0
H567 H 0.87744 0.29186 0.92041 0.0
H568 H 0.96404 0.43831 0.87013 0.0
H569 H 0.86077 0.34945 0.98099 0.0
H570 H 0.95962 0.37968 0.74619 0.0
H571 H 0.93261 0.40577 0.92785 0.0
H572 H 0.91346 0.32395 0.87062 0.0
C573 C 0.88142 0.31126 0.92311 0.0
C574 C 0.8661 0.3181 0.9541 0.0
C575 C 0.93873 0.40007 0.88832 0.0
C576 C 0.90723 0.35468 0.89897 0.0
C577 C 0.95683 0.4186 0.85558 0.0
C578 C 0.96433 0.41172 0.80287 0.0
C579 C 0.92828 0.37447 0.86872 0.0
C580 C 0.95421 0.38583 0.78623 0.0
C581 C 0.90187 0.32947 0.89485 0.0
C582 C 0.87197 0.34342 0.95672 0.0
N583 N 0.93659 0.36809 0.81897 0.0
N584 N 0.89217 0.36085 0.92973 0.0
H585 H 0.84742 0.48422 0.94337 0.0
H586 H 0.95173 0.53991 0.70304 0.0
H587 H 0.87949 0.56083 0.89186 0.0
H588 H 0.93352 0.47385 0.79795 0.0
H589 H 0.92057 0.5452 0.75804 0.0
H590 H 0.87457 0.47767 0.87733 0.0
C591 C 0.86016 0.49966 0.91796 0.0
C592 C 0.86124 0.52311 0.92321 0.0
C593 C 0.92328 0.52942 0.7662 0.0
C594 C 0.89245 0.51576 0.84724 0.0
C595 C 0.94079 0.52625 0.73436 0.0
C596 C 0.94511 0.50642 0.74604 0.0
C597 C 0.90993 0.51242 0.80918 0.0
C598 C 0.93082 0.48947 0.78788 0.0
C599 C 0.87571 0.49594 0.88035 0.0
C600 C 0.87829 0.54254 0.88959 0.0
N601 N 0.91394 0.49288 0.81791 0.0
N602 N 0.89322 0.53842 0.85283 0.0
H603 H 0.29706 0.84844 0.84772 0.0
H604 H 0.42737 0.89671 0.70527 0.0
H605 H 0.34486 0.81723 0.87957 0.0
H606 H 0.37704 0.92369 0.66058 0.0
H607 H 0.39384 0.86178 0.7531 0.0
H608 H 0.323 0.87155 0.76739 0.0
C609 C 0.313 0.84642 0.83775 0.0
C610 C 0.31901 0.83116 0.87106 0.0
C611 C 0.3899 0.87497 0.73166 0.0
C612 C 0.34866 0.85737 0.7786 0.0
C613 C 0.40901 0.89481 0.7038 0.0
C614 C 0.40516 0.91345 0.67996 0.0
C615 C 0.36687 0.87396 0.73645 0.0
C616 C 0.38094 0.90991 0.67889 0.0
C617 C 0.32766 0.85942 0.79144 0.0
C618 C 0.33952 0.82877 0.85515 0.0
N619 N 0.36288 0.89095 0.70822 0.0
N620 N 0.35376 0.84197 0.81061 0.0
H621 H 0.41387 0.29912 0.96373 0.0
H622 H 0.49437 0.44338 0.88431 0.0
H623 H 0.49291 0.34593 0.00905 0.0
H624 H 0.42518 0.38897 0.78734 0.0
H625 H 0.49069 0.41011 0.94664 0.0
H626 H 0.41464 0.33427 0.91391 0.0
C627 C 0.43133 0.31685 0.96337 0.0
C628 C 0.45342 0.31964 0.98983 0.0
C629 C 0.47624 0.40556 0.91199 0.0
C630 C 0.45439 0.3598 0.93385 0.0
C631 C 0.47822 0.42455 0.8767 0.0
C632 C 0.46016 0.41887 0.83024 0.0
C633 C 0.4559 0.38084 0.90116 0.0
C634 C 0.43968 0.39411 0.82226 0.0
C635 C 0.43177 0.33682 0.93493 0.0
C636 C 0.47557 0.34295 0.98826 0.0
N637 N 0.43813 0.37597 0.85726 0.0
N638 N 0.47551 0.36217 0.96075 0.0
H639 H 0.1774 0.51743 0.92396 0.0
H640 H 0.06473 0.44105 0.67828 0.0
H641 H 0.12966 0.4361 0.90726 0.0
H642 H 0.09451 0.51975 0.73565 0.0
H643 H 0.09863 0.44132 0.73765 0.0
H644 H 0.1556 0.5201 0.83462 0.0
C645 C 0.1623 0.50014 0.90176 0.0
C646 C 0.15509 0.47652 0.9239 0.0
C647 C 0.0981 0.4587 0.73585 0.0
C648 C 0.13073 0.47946 0.82051 0.0
C649 C 0.07898 0.45865 0.70136 0.0
C650 C 0.07663 0.48028 0.70327 0.0
C651 C 0.1149 0.48058 0.77176 0.0
C652 C 0.09551 0.50257 0.73403 0.0
C653 C 0.15013 0.50168 0.85031 0.0
C654 C 0.13594 0.45472 0.89191 0.0
N655 N 0.11364 0.50204 0.76809 0.0
N656 N 0.12433 0.45673 0.84207 0.0
H657 H 0.64364 0.11471 0.03543 0.0
H658 H 0.57778 0.07611 0.7042 0.0
H659 H 0.67528 0.16124 0.88786 0.0
H660 H 0.54925 0.03157 0.85647 0.0
H661 H 0.61457 0.10716 0.76798 0.0
H662 H 0.60974 0.08318 0.96743 0.0
C663 C 0.64356 0.1182 0.98861 0.0
C664 C 0.66223 0.14071 0.96746 0.0
C665 C 0.60018 0.0905 0.78707 0.0
C666 C 0.62322 0.10481 0.88912 0.0
C667 C 0.57924 0.07281 0.7507 0.0
C668 C 0.56029 0.05127 0.77494 0.0
C669 C 0.60205 0.08647 0.84776 0.0
C670 C 0.56317 0.04794 0.83559 0.0
C671 C 0.6241 0.10027 0.94973 0.0
C672 C 0.66099 0.14434 0.9063 0.0
N673 N 0.58353 0.06531 0.86966 0.0
N674 N 0.64175 0.12661 0.86926 0.0
H675 H 0.4941 0.64063 0.95245 0.0
H676 H 0.5732 0.5946 0.76628 0.0
H677 H 0.57382 0.68492 0.93738 0.0
H678 H 0.4934 0.54924 0.77815 0.0
H679 H 0.57455 0.62441 0.84443 0.0
H680 H 0.49403 0.60425 0.90181 0.0
C681 C 0.51159 0.64268 0.93865 0.0
C682 C 0.53396 0.66594 0.94852 0.0
C683 C 0.55676 0.60775 0.83069 0.0
C684 C 0.53406 0.62437 0.89132 0.0
C685 C 0.556 0.59069 0.78614 0.0
C686 C 0.53309 0.56969 0.76495 0.0
C687 C 0.5344 0.60401 0.8536 0.0
C688 C 0.51144 0.56531 0.79289 0.0
C689 C 0.51157 0.62185 0.91024 0.0
C690 C 0.55615 0.66736 0.93096 0.0
N691 N 0.51255 0.58263 0.83505 0.0
N692 N 0.55559 0.64695 0.90275 0.0
H693 H 0.43428 0.1251 0.37007 0.0
H694 H 0.51695 0.07018 0.50269 0.0
H695 H 0.51008 0.15195 0.32231 0.0
H696 H 0.43741 0.03675 0.5182 0.0
H697 H 0.51588 0.10076 0.43769 0.0
H698 H 0.43626 0.09351 0.42754 0.0
C699 C 0.45133 0.12425 0.37134 0.0
C700 C 0.47197 0.14109 0.34085 0.0
C701 C 0.49869 0.08657 0.4551 0.0
C702 C 0.47451 0.105 0.40756 0.0
C703 C 0.49926 0.06906 0.49198 0.0
C704 C 0.47728 0.05098 0.51641 0.0
C705 C 0.47601 0.08596 0.44294 0.0
C706 C 0.4549 0.05047 0.50107 0.0
C707 C 0.45249 0.10622 0.4044 0.0
C708 C 0.49378 0.13947 0.34551 0.0
N709 N 0.45491 0.06777 0.46576 0.0
N710 N 0.4945 0.1217 0.37827 0.0
H711 H 0.34267 0.46143 0.28169 0.0
H712 H 0.43215 0.5212 0.57331 0.0
H713 H 0.32661 0.50128 0.42192 0.0
H714 H 0.42786 0.46083 0.45673 0.0
H715 H 0.39265 0.51385 0.52424 0.0
H716 H 0.37373 0.46112 0.34866 0.0
C717 C 0.34535 0.46981 0.32688 0.0
C718 C 0.33179 0.48128 0.34602 0.0
C719 C 0.40013 0.50189 0.51049 0.0
C720 C 0.36819 0.48162 0.4231 0.0
C721 C 0.42249 0.506 0.53861 0.0
C722 C 0.43318 0.49181 0.51802 0.0
C723 C 0.38888 0.48361 0.46183 0.0
C724 C 0.42025 0.4724 0.47297 0.0
C725 C 0.36327 0.46973 0.36522 0.0
C726 C 0.33686 0.49254 0.40483 0.0
N727 N 0.39896 0.46908 0.44588 0.0
N728 N 0.35486 0.49265 0.44123 0.0
H729 H 0.85277 0.37368 0.26547 0.0
H730 H 0.98542 0.43153 0.43769 0.0
H731 H 0.90118 0.34212 0.25288 0.0
H732 H 0.9358 0.46099 0.46365 0.0
H733 H 0.95958 0.406 0.3494 0.0
H734 H 0.88695 0.4119 0.31836 0.0
C735 C 0.87074 0.375 0.27294 0.0
C736 C 0.87409 0.35457 0.25587 0.0
C737 C 0.9545 0.41833 0.37367 0.0
C738 C 0.9131 0.39806 0.31641 0.0
C739 C 0.96926 0.43292 0.42399 0.0
C740 C 0.96224 0.44776 0.45858 0.0
C741 C 0.93231 0.41823 0.35865 0.0
C742 C 0.94157 0.44945 0.43839 0.0
C743 C 0.89021 0.39679 0.30319 0.0
C744 C 0.89768 0.35722 0.26664 0.0
N745 N 0.92689 0.4343 0.39035 0.0
N746 N 0.91621 0.37844 0.29682 0.0
H747 H 0.53435 0.89953 0.14342 0.0
H748 H 0.59646 -0.00125 0.42698 0.0
H749 H 0.58319 0.89787 0.28228 0.0
H750 H 0.5294 0.9857 0.33011 0.0
H751 H 0.6006 0.9711 0.352 0.0
H752 H 0.54003 0.93882 0.19286 0.0
C753 C 0.54633 0.90738 0.18401 0.0
C754 C 0.55803 0.89503 0.20903 0.0
C755 C 0.58523 0.97465 0.3465 0.0
C756 C 0.56519 0.94037 0.26432 0.0
C757 C 0.58291 0.99051 0.38911 0.0
C758 C 0.56223 0.99402 0.38541 0.0
C759 C 0.56662 0.96202 0.30016 0.0
C760 C 0.54548 0.98327 0.33488 0.0
C761 C 0.54973 0.92993 0.21173 0.0
C762 C 0.57394 0.90663 0.26072 0.0
N763 N 0.54773 0.96724 0.29468 0.0
N764 N 0.5769 0.92851 0.2867 0.0
H765 H 0.69627 0.57589 0.30265 0.0
H766 H 0.56987 0.48547 0.44514 0.0
H767 H 0.66193 0.49454 0.27663 0.0
H768 H 0.6221 0.56028 0.52463 0.0
H769 H 0.60237 0.48771 0.38193 0.0
H770 H 0.66797 0.5705 0.38102 0.0
C771 C 0.68297 0.55687 0.3135 0.0
C772 C 0.68167 0.53565 0.28256 0.0
C773 C 0.60684 0.50342 0.41404 0.0
C774 C 0.64872 0.52943 0.37199 0.0
C775 C 0.58834 0.50212 0.45032 0.0
C776 C 0.5932 0.5228 0.48995 0.0
C777 C 0.63017 0.52576 0.41652 0.0
C778 C 0.61748 0.54389 0.49476 0.0
C779 C 0.66676 0.55385 0.35837 0.0
C780 C 0.66344 0.51151 0.29812 0.0
N781 N 0.63491 0.54504 0.45757 0.0
N782 N 0.64759 0.50906 0.34138 0.0
H783 H 0.12428 0.65576 0.20454 0.0
H784 H 0.04993 0.63041 0.50083 0.0
H785 H 0.13885 0.71446 0.34115 0.0
H786 H 0.03315 0.57285 0.35887 0.0
H787 H 0.07924 0.66233 0.43834 0.0
H788 H 0.088 0.62605 0.25593 0.0
C789 C 0.11978 0.66238 0.24542 0.0
C790 C 0.13479 0.68748 0.26922 0.0
C791 C 0.06893 0.64276 0.42059 0.0
C792 C 0.0932 0.65361 0.32821 0.0
C793 C 0.05214 0.62448 0.45625 0.0
C794 C 0.03927 0.59879 0.43547 0.0
C795 C 0.07304 0.63533 0.36385 0.0
C796 C 0.04278 0.59235 0.37707 0.0
C797 C 0.09898 0.64546 0.27455 0.0
C798 C 0.12779 0.69524 0.32145 0.0
N799 N 0.05955 0.61046 0.34362 0.0
N800 N 0.10764 0.67827 0.34963 0.0
loop_
_geom_bond_atom_site_label_1
_geom_bond_atom_site_label_2
_geom_bond_distance
_geom_bond_site_symmetry_2
_ccdc_geom_bond_type
C0 C1 1.384 . S
C0 C2 1.384 . S
C0 H28 0.931 . S
C1 C0 1.384 . S
C1 C4 1.382 . S
C2 C0 1.384 . S
C2 C3 1.381 . S
C2 H29 0.930 . S
C3 C2 1.381 . S
C3 C5 1.381 . S
C3 C6 1.487 . S
C4 C1 1.382 . S
C4 C5 1.387 . S
C4 H30 0.930 1_554 S
C5 C3 1.381 . S
C5 C4 1.387 . S
C5 H31 0.931 . S
C6 C3 1.487 . S
C6 C13 1.399 . S
C6 N44 1.343 . S
C7 C8 1.384 . S
C7 C9 1.384 . S
C7 H32 0.931 . S
C8 C7 1.384 . S
C8 C11 1.382 . S
C9 C7 1.384 . S
C9 C10 1.381 . S
C9 H33 0.930 . S
C10 C9 1.381 . S
C10 C12 1.381 . S
C10 C13 1.487 . S
C11 C8 1.382 . S
C11 C12 1.387 . S
C11 H34 0.930 . S
C12 C10 1.381 . S
C12 C11 1.387 . S
C12 H35 0.931 . S
C13 C6 1.399 . S
C13 C10 1.487 . S
C13 N45 1.343 . S
C14 C15 1.384 . S
C14 C16 1.384 . S
C14 H36 0.931 . S
C15 C14 1.384 . S
C15 C18 1.382 . S
C16 C14 1.384 . S
C16 C17 1.381 . S
C16 H37 0.930 . S
C17 C16 1.381 . S
C17 C19 1.381 . S
C17 C20 1.487 . S
C18 C15 1.382 . S
C18 C19 1.387 . S
C18 H38 0.930 . S
C19 C17 1.381 . S
C19 C18 1.387 . S
C19 H39 0.931 . S
C20 C17 1.487 . S
C20 C27 1.399 . S
C20 N45 1.343 . S
C21 C22 1.384 . S
C21 C23 1.384 . S
C21 H40 0.931 . S
C22 C21 1.384 . S
C22 C25 1.382 . S
C23 C21 1.384 . S
C23 C24 1.381 . S
C23 H41 0.930 . S
C24 C23 1.381 . S
C24 C26 1.381 . S
C24 C27 1.487 . S
C25 C22 1.382 . S
C25 C26 1.387 . S
C25 H42 0.930 1_554 S
C26 C24 1.381 . S
C26 C25 1.387 . S
C26 H43 0.931 . S
C27 C20 1.399 . S
C27 C24 1.487 . S
C27 N44 1.343 . S
H28 C0 0.931 . S
H29 C2 0.930 . S
H30 C4 0.930 1_556 S
H31 C5 0.931 . S
H32 C7 0.931 . S
H33 C9 0.930 . S
H34 C11 0.930 . S
H35 C12 0.931 . S
H36 C14 0.931 . S
H37 C16 0.930 . S
H38 C18 0.930 . S
H39 C19 0.931 . S
H40 C21 0.931 . S
H41 C23 0.930 . S
H42 C25 0.930 1_556 S
H43 C26 0.931 . S
N44 C6 1.343 . S
N44 C27 1.343 . S
N45 C13 1.343 . S
N45 C20 1.343 . S
C46 C47 1.384 . S
C46 C48 1.384 . S
C46 H74 0.931 . S
C47 C46 1.384 . S
C47 C50 1.382 . S
C48 C46 1.384 . S
C48 C49 1.381 . S
C48 H75 0.930 . S
C49 C48 1.381 . S
C49 C51 1.381 . S
C49 C52 1.487 . S
C50 C47 1.382 . S
C50 C51 1.387 . S
C50 H76 0.930 . S
C51 C49 1.381 . S
C51 C50 1.387 . S
C51 H77 0.931 . S
C52 C49 1.487 . S
C52 C59 1.399 . S
C52 N90 1.343 . S
C53 C54 1.384 1_554 S
C53 C55 1.384 . S
C53 H78 0.931 . S
C54 C53 1.384 1_556 S
C54 C57 1.382 . S
C55 C53 1.384 . S
C55 C56 1.381 . S
C55 H79 0.930 . S
C56 C55 1.381 . S
C56 C58 1.381 . S
C56 C59 1.487 . S
C57 C54 1.382 . S
C57 C58 1.387 1_556 S
C57 H80 0.930 . S
C58 C56 1.381 . S
C58 C57 1.387 1_554 S
C58 H81 0.931 . S
C59 C52 1.399 . S
C59 C56 1.487 . S
C59 N91 1.343 . S
C60 C61 1.384 . S
C60 C62 1.384 . S
C60 H82 0.931 . S
C61 C60 1.384 . S
C61 C64 1.382 1_554 S
C62 C60 1.384 . S
C62 C63 1.381 . S
C62 H83 0.930 . S
C63 C62 1.381 . S
C63 C65 1.381 . S
C63 C66 1.487 . S
C64 C61 1.382 1_556 S
C64 C65 1.387 1_556 S
C64 H84 0.930 . S
C65 C63 1.381 . S
C65 C64 1.387 1_554 S
C65 H85 0.931 . S
C66 C63 1.487 . S
C66 C73 1.399 . S
C66 N91 1.343 . S
C67 C68 1.384 . S
C67 C69 1.384 . S
C67 H86 0.931 . S
C68 C67 1.384 . S
C68 C71 1.382 . S
C69 C67 1.384 . S
C69 C70 1.381 . S
C69 H87 0.930 . S
C70 C69 1.381 . S
C70 C72 1.381 . S
C70 C73 1.487 . S
C71 C68 1.382 . S
C71 C72 1.387 . S
C71 H88 0.930 . S
C72 C70 1.381 . S
C72 C71 1.387 . S
C72 H89 0.931 . S
C73 C66 1.399 . S
C73 C70 1.487 . S
C73 N90 1.343 . S
H74 C46 0.931 . S
H75 C48 0.930 . S
H76 C50 0.930 . S
H77 C51 0.931 . S
H78 C53 0.931 . S
H79 C55 0.930 . S
H80 C57 0.930 . S
H81 C58 0.931 . S
H82 C60 0.931 . S
H83 C62 0.930 . S
H84 C64 0.930 . S
H85 C65 0.931 . S
H86 C67 0.931 . S
H87 C69 0.930 . S
H88 C71 0.930 . S
H89 C72 0.931 . S
N90 C52 1.343 . S
N90 C73 1.343 . S
N91 C59 1.343 . S
N91 C66 1.343 . S
C92 C93 1.384 . S
C92 C94 1.384 . S
C92 H120 0.931 . S
C93 C92 1.384 . S
C93 C96 1.382 . S
C94 C92 1.384 . S
C94 C95 1.381 . S
C94 H121 0.930 . S
C95 C94 1.381 . S
C95 C97 1.381 . S
C95 C98 1.487 . S
C96 C93 1.382 . S
C96 C97 1.387 . S
C96 H122 0.930 . S
C97 C95 1.381 . S
C97 C96 1.387 . S
C97 H123 0.931 . S
C98 C95 1.487 . S
C98 C105 1.399 1_556 S
C98 N136 1.343 . S
C99 C100 1.384 . S
C99 C101 1.384 . S
C99 H124 0.931 . S
C100 C99 1.384 . S
C100 C103 1.382 . S
C101 C99 1.384 . S
C101 C102 1.381 . S
C101 H125 0.930 . S
C102 C101 1.381 . S
C102 C104 1.381 . S
C102 C105 1.487 . S
C103 C100 1.382 . S
C103 C104 1.387 . S
C103 H126 0.930 . S
C104 C102 1.381 . S
C104 C103 1.387 . S
C104 H127 0.931 . S
C105 C98 1.399 1_554 S
C105 C102 1.487 . S
C105 N137 1.343 . S
C106 C107 1.384 . S
C106 C108 1.384 . S
C106 H128 0.931 . S
C107 C106 1.384 . S
C107 C110 1.382 . S
C108 C106 1.384 . S
C108 C109 1.381 . S
C108 H129 0.930 . S
C109 C108 1.381 . S
C109 C111 1.381 . S
C109 C112 1.487 . S
C110 C107 1.382 . S
C110 C111 1.387 . S
C110 H130 0.930 . S
C111 C109 1.381 . S
C111 C110 1.387 . S
C111 H131 0.931 . S
C112 C109 1.487 . S
C112 C119 1.399 1_554 S
C112 N137 1.343 . S
C113 C114 1.384 . S
C113 C115 1.384 . S
C113 H132 0.931 . S
C114 C113 1.384 . S
C114 C117 1.382 . S
C115 C113 1.384 . S
C115 C116 1.381 . S
C115 H133 0.930 1_556 S
C116 C115 1.381 . S
C116 C118 1.381 . S
C116 C119 1.487 . S
C117 C114 1.382 . S
C117 C118 1.387 . S
C117 H134 0.930 . S
C118 C116 1.381 . S
C118 C117 1.387 . S
C118 H135 0.931 . S
C119 C112 1.399 1_556 S
C119 C116 1.487 . S
C119 N136 1.343 . S
H120 C92 0.931 . S
H121 C94 0.930 . S
H122 C96 0.930 . S
H123 C97 0.931 . S
H124 C99 0.931 . S
H125 C101 0.930 . S
H126 C103 0.930 . S
H127 C104 0.931 . S
H128 C106 0.931 . S
H129 C108 0.930 . S
H130 C110 0.930 . S
H131 C111 0.931 . S
H132 C113 0.931 . S
H133 C115 0.930 1_554 S
H134 C117 0.930 . S
H135 C118 0.931 . S
N136 C98 1.343 . S
N136 C119 1.343 . S
N137 C105 1.343 . S
N137 C112 1.343 . S
C138 C139 1.384 . S
C138 C140 1.384 1_556 S
C138 H166 0.931 . S
C139 C138 1.384 . S
C139 C142 1.382 . S
C140 C138 1.384 1_554 S
C140 C141 1.381 . S
C140 H167 0.930 . S
C141 C140 1.381 . S
C141 C143 1.381 1_554 S
C141 C144 1.487 . S
C142 C139 1.382 . S
C142 C143 1.387 . S
C142 H168 0.930 . S
C143 C141 1.381 1_556 S
C143 C142 1.387 . S
C143 H169 0.931 . S
C144 C141 1.487 . S
C144 C151 1.399 . S
C144 N182 1.343 . S
C145 C146 1.384 . S
C145 C147 1.384 . S
C145 H170 0.931 . S
C146 C145 1.384 . S
C146 C149 1.382 . S
C147 C145 1.384 . S
C147 C148 1.381 . S
C147 H171 0.930 . S
C148 C147 1.381 . S
C148 C150 1.381 . S
C148 C151 1.487 . S
C149 C146 1.382 . S
C149 C150 1.387 . S
C149 H172 0.930 . S
C150 C148 1.381 . S
C150 C149 1.387 . S
C150 H173 0.931 . S
C151 C144 1.399 . S
C151 C148 1.487 . S
C151 N183 1.343 . S
C152 C153 1.384 . S
C152 C154 1.384 . S
C152 H174 0.931 . S
C153 C152 1.384 . S
C153 C156 1.382 . S
C154 C152 1.384 . S
C154 C155 1.381 . S
C154 H175 0.930 . S
C155 C154 1.381 . S
C155 C157 1.381 . S
C155 C158 1.487 . S
C156 C153 1.382 . S
C156 C157 1.387 . S
C156 H176 0.930 . S
C157 C155 1.381 . S
C157 C156 1.387 . S
C157 H177 0.931 . S
C158 C155 1.487 . S
C158 C165 1.399 . S
C158 N183 1.343 . S
C159 C160 1.384 . S
C159 C161 1.384 1_556 S
C159 H178 0.931 . S
C160 C159 1.384 . S
C160 C163 1.382 . S
C161 C159 1.384 1_554 S
C161 C162 1.381 1_554 S
C161 H179 0.930 . S
C162 C161 1.381 1_556 S
C162 C164 1.381 . S
C162 C165 1.487 1_556 S
C163 C160 1.382 . S
C163 C164 1.387 . S
C163 H180 0.930 . S
C164 C162 1.381 . S
C164 C163 1.387 . S
C164 H181 0.931 . S
C165 C158 1.399 . S
C165 C162 1.487 1_554 S
C165 N182 1.343 . S
H166 C138 0.931 . S
H167 C140 0.930 . S
H168 C142 0.930 . S
H169 C143 0.931 . S
H170 C145 0.931 . S
H171 C147 0.930 . S
H172 C149 0.930 . S
H173 C150 0.931 . S
H174 C152 0.931 . S
H175 C154 0.930 . S
H176 C156 0.930 . S
H177 C157 0.931 . S
H178 C159 0.931 . S
H179 C161 0.930 . S
H180 C163 0.930 . S
H181 C164 0.931 . S
N182 C144 1.343 . S
N182 C165 1.343 . S
N183 C151 1.343 . S
N183 C158 1.343 . S
C184 C185 1.384 1_554 S
C184 C186 1.384 . S
C184 H212 0.931 . S
C185 C184 1.384 1_556 S
C185 C188 1.382 . S
C186 C184 1.384 . S
C186 C187 1.381 . S
C186 H213 0.930 . S
C187 C186 1.381 . S
C187 C189 1.381 1_554 S
C187 C190 1.487 . S
C188 C185 1.382 . S
C188 C189 1.387 . S
C188 H214 0.930 . S
C189 C187 1.381 1_556 S
C189 C188 1.387 . S
C189 H215 0.931 . S
C190 C187 1.487 . S
C190 C197 1.399 . S
C190 N228 1.343 . S
C191 C192 1.384 . S
C191 C193 1.384 . S
C191 H216 0.931 . S
C192 C191 1.384 . S
C192 C195 1.382 . S
C193 C191 1.384 . S
C193 C194 1.381 . S
C193 H217 0.930 . S
C194 C193 1.381 . S
C194 C196 1.381 . S
C194 C197 1.487 . S
C195 C192 1.382 . S
C195 C196 1.387 . S
C195 H218 0.930 . S
C196 C194 1.381 . S
C196 C195 1.387 . S
C196 H219 0.931 . S
C197 C190 1.399 . S
C197 C194 1.487 . S
C197 N229 1.343 . S
C198 C199 1.384 . S
C198 C200 1.384 . S
C198 H220 0.931 . S
C199 C198 1.384 . S
C199 C202 1.382 . S
C200 C198 1.384 . S
C200 C201 1.381 . S
C200 H221 0.930 . S
C201 C200 1.381 . S
C201 C203 1.381 . S
C201 C204 1.487 . S
C202 C199 1.382 . S
C202 C203 1.387 . S
C202 H222 0.930 . S
C203 C201 1.381 . S
C203 C202 1.387 . S
C203 H223 0.931 . S
C204 C201 1.487 . S
C204 C211 1.399 . S
C204 N229 1.343 . S
C205 C206 1.384 . S
C205 C207 1.384 1_556 S
C205 H224 0.931 . S
C206 C205 1.384 . S
C206 C209 1.382 . S
C207 C205 1.384 1_554 S
C207 C208 1.381 . S
C207 H225 0.930 . S
C208 C207 1.381 . S
C208 C210 1.381 1_554 S
C208 C211 1.487 . S
C209 C206 1.382 . S
C209 C210 1.387 . S
C209 H226 0.930 . S
C210 C208 1.381 1_556 S
C210 C209 1.387 . S
C210 H227 0.931 . S
C211 C204 1.399 . S
C211 C208 1.487 . S
C211 N228 1.343 . S
H212 C184 0.931 . S
H213 C186 0.930 . S
H214 C188 0.930 . S
H215 C189 0.931 . S
H216 C191 0.931 . S
H217 C193 0.930 . S
H218 C195 0.930 . S
H219 C196 0.931 . S
H220 C198 0.931 . S
H221 C200 0.930 . S
H222 C202 0.930 . S
H223 C203 0.931 . S
H224 C205 0.931 . S
H225 C207 0.930 . S
H226 C209 0.930 . S
H227 C210 0.931 . S
N228 C190 1.343 . S
N228 C211 1.343 . S
N229 C197 1.343 . S
N229 C204 1.343 . S
C230 C231 1.384 . S
C230 C232 1.384 . S
C230 H258 0.931 . S
C231 C230 1.384 . S
C231 C234 1.382 . S
C232 C230 1.384 . S
C232 C233 1.381 . S
C232 H259 0.930 . S
C233 C232 1.381 . S
C233 C235 1.381 . S
C233 C236 1.487 . S
C234 C231 1.382 . S
C234 C235 1.387 . S
C234 H260 0.930 . S
C235 C233 1.381 . S
C235 C234 1.387 . S
C235 H261 0.931 . S
C236 C233 1.487 . S
C236 C243 1.399 . S
C236 N274 1.343 . S
C237 C238 1.384 . S
C237 C239 1.384 . S
C237 H262 0.931 . S
C238 C237 1.384 . S
C238 C241 1.382 . S
C239 C237 1.384 . S
C239 C240 1.381 . S
C239 H263 0.930 . S
C240 C239 1.381 . S
C240 C242 1.381 . S
C240 C243 1.487 . S
C241 C238 1.382 . S
C241 C242 1.387 . S
C241 H264 0.930 . S
C242 C240 1.381 . S
C242 C241 1.387 . S
C242 H265 0.931 . S
C243 C236 1.399 . S
C243 C240 1.487 . S
C243 N275 1.343 . S
C244 C245 1.384 . S
C244 C246 1.384 . S
C244 H266 0.931 . S
C245 C244 1.384 . S
C245 C248 1.382 . S
C246 C244 1.384 . S
C246 C247 1.381 . S
C246 H267 0.930 . S
C247 C246 1.381 . S
C247 C249 1.381 . S
C247 C250 1.487 . S
C248 C245 1.382 . S
C248 C249 1.387 . S
C248 H268 0.930 . S
C249 C247 1.381 . S
C249 C248 1.387 . S
C249 H269 0.931 . S
C250 C247 1.487 . S
C250 C257 1.399 . S
C250 N275 1.343 . S
C251 C252 1.384 . S
C251 C253 1.384 . S
C251 H270 0.931 . S
C252 C251 1.384 . S
C252 C255 1.382 . S
C253 C251 1.384 . S
C253 C254 1.381 . S
C253 H271 0.930 . S
C254 C253 1.381 . S
C254 C256 1.381 . S
C254 C257 1.487 . S
C255 C252 1.382 . S
C255 C256 1.387 . S
C255 H272 0.930 . S
C256 C254 1.381 . S
C256 C255 1.387 . S
C256 H273 0.931 . S
C257 C250 1.399 . S
C257 C254 1.487 . S
C257 N274 1.343 . S
H258 C230 0.931 . S
H259 C232 0.930 . S
H260 C234 0.930 . S
H261 C235 0.931 . S
H262 C237 0.931 . S
H263 C239 0.930 . S
H264 C241 0.930 . S
H265 C242 0.931 . S
H266 C244 0.931 . S
H267 C246 0.930 . S
H268 C248 0.930 . S
H269 C249 0.931 . S
H270 C251 0.931 . S
H271 C253 0.930 . S
H272 C255 0.930 . S
H273 C256 0.931 . S
N274 C236 1.343 . S
N274 C257 1.343 . S
N275 C243 1.343 . S
N275 C250 1.343 . S
C276 O288 1.241 . S
C276 O289 1.280 . S
C277 O290 1.277 . S
C277 O291 1.245 . S
C278 O302 1.247 . S
C278 O304 1.289 . S
Mg279 O280 1.913 . S
Mg279 O289 1.984 . S
Mg279 O291 1.988 1_655 S
Mg279 O292 2.061 . S
O280 Mg279 1.913 . S
O280 Mg281 1.988 1_655 S
O280 Mg282 1.920 1_655 S
Mg281 O280 1.988 1_455 S
Mg281 O288 2.042 1_455 S
Mg281 O290 2.041 . S
Mg281 O296 2.038 1_455 S
Mg281 O304 2.238 . S
Mg282 O280 1.920 1_455 S
Mg282 O283 1.917 . S
Mg282 O293 2.106 1_455 S
Mg282 O295 2.079 1_455 S
Mg282 O304 2.106 . S
Mg282 O305 2.079 . S
O283 Mg282 1.917 . S
O283 Mg284 1.926 . S
O283 Mg285 1.986 . S
Mg284 O283 1.926 . S
Mg284 O298 1.984 . S
Mg284 O301 1.988 1_455 S
Mg284 O302 2.061 . S
Mg285 O283 1.986 . S
Mg285 O293 2.238 1_455 S
Mg285 O297 2.042 . S
Mg285 O299 2.041 1_455 S
Mg285 O306 2.038 . S
C286 O292 1.247 . S
C286 O293 1.289 . S
C287 O305 1.245 . S
C287 O306 1.274 . S
O288 C276 1.241 . S
O288 Mg281 2.042 1_655 S
O289 C276 1.280 . S
O289 Mg279 1.984 . S
O290 C277 1.277 . S
O290 Mg281 2.041 . S
O291 C277 1.245 . S
O291 Mg279 1.988 1_455 S
O292 Mg279 2.061 . S
O292 C286 1.247 . S
O293 Mg282 2.106 1_655 S
O293 Mg285 2.238 1_655 S
O293 C286 1.289 . S
C294 O295 1.245 . S
C294 O296 1.274 . S
O295 Mg282 2.079 1_655 S
O295 C294 1.245 . S
O296 Mg281 2.038 1_655 S
O296 C294 1.274 . S
O297 Mg285 2.042 . S
O297 C300 1.241 . S
O298 Mg284 1.984 . S
O298 C300 1.280 . S
O299 Mg285 2.041 1_655 S
O299 C303 1.277 . S
C300 O297 1.241 . S
C300 O298 1.280 . S
O301 Mg284 1.988 1_655 S
O301 C303 1.245 . S
O302 C278 1.247 . S
O302 Mg284 2.061 . S
C303 O299 1.277 . S
C303 O301 1.245 . S
O304 C278 1.289 . S
O304 Mg281 2.238 . S
O304 Mg282 2.106 . S
O305 Mg282 2.079 . S
O305 C287 1.245 . S
O306 Mg285 2.038 . S
O306 C287 1.274 . S
C307 O319 1.241 . S
C307 O320 1.280 . S
C308 O321 1.277 . S
C308 O322 1.245 . S
C309 O333 1.247 . S
C309 O335 1.289 . S
Mg310 O311 1.926 . S
Mg310 O320 1.984 . S
Mg310 O322 1.988 1_545 S
Mg310 O323 2.061 . S
O311 Mg310 1.926 . S
O311 Mg312 1.986 . S
O311 Mg313 1.917 . S
Mg312 O311 1.986 . S
Mg312 O319 2.042 . S
Mg312 O321 2.041 1_545 S
Mg312 O327 2.038 . S
Mg312 O335 2.238 1_545 S
Mg313 O311 1.917 . S
Mg313 O314 1.917 1_545 S
Mg313 O324 2.106 . S
Mg313 O326 2.079 . S
Mg313 O335 2.106 1_545 S
Mg313 O336 2.079 1_545 S
O314 Mg313 1.917 1_565 S
O314 Mg315 1.926 . S
O314 Mg316 1.986 1_565 S
Mg315 O314 1.926 . S
Mg315 O329 1.984 . S
Mg315 O332 1.988 1_565 S
Mg315 O333 2.061 . S
Mg316 O314 1.986 1_545 S
Mg316 O324 2.238 . S
Mg316 O328 2.042 1_545 S
Mg316 O330 2.041 . S
Mg316 O337 2.038 1_545 S
C317 O323 1.247 . S
C317 O324 1.289 . S
C318 O336 1.245 . S
C318 O337 1.274 . S
O319 C307 1.241 . S
O319 Mg312 2.042 . S
O320 C307 1.280 . S
O320 Mg310 1.984 . S
O321 C308 1.277 . S
O321 Mg312 2.041 1_565 S
O322 C308 1.245 . S
O322 Mg310 1.988 1_565 S
O323 Mg310 2.061 . S
O323 C317 1.247 . S
O324 Mg313 2.106 . S
O324 Mg316 2.238 . S
O324 C317 1.289 . S
C325 O326 1.245 . S
C325 O327 1.274 . S
O326 Mg313 2.079 . S
O326 C325 1.245 . S
O327 Mg312 2.038 . S
O327 C325 1.274 . S
O328 Mg316 2.042 1_565 S
O328 C331 1.241 . S
O329 Mg315 1.984 . S
O329 C331 1.280 . S
O330 Mg316 2.041 . S
O330 C334 1.277 . S
C331 O328 1.241 . S
C331 O329 1.280 . S
O332 Mg315 1.988 1_545 S
O332 C334 1.245 . S
O333 C309 1.247 . S
O333 Mg315 2.061 . S
C334 O330 1.277 . S
C334 O332 1.245 . S
O335 C309 1.289 . S
O335 Mg312 2.238 1_565 S
O335 Mg313 2.106 1_565 S
O336 Mg313 2.079 1_565 S
O336 C318 1.245 . S
O337 Mg316 2.038 1_565 S
O337 C318 1.274 . S
C338 O350 1.241 . S
C338 O351 1.280 . S
C339 O352 1.277 . S
C339 O353 1.245 . S
C340 O364 1.247 . S
C340 O366 1.289 . S
Mg341 O342 1.926 . S
Mg341 O351 1.984 . S
Mg341 O353 1.988 . S
Mg341 O354 2.061 . S
O342 Mg341 1.926 . S
O342 Mg343 1.986 . S
O342 Mg344 1.917 . S
Mg343 O342 1.986 . S
Mg343 O350 2.042 . S
Mg343 O352 2.041 . S
Mg343 O358 2.038 . S
Mg343 O366 2.238 . S
Mg344 O342 1.917 . S
Mg344 O345 1.917 . S
Mg344 O355 2.106 . S
Mg344 O357 2.079 . S
Mg344 O366 2.106 . S
Mg344 O367 2.079 . S
O345 Mg344 1.917 . S
O345 Mg346 1.926 . S
O345 Mg347 1.986 . S
Mg346 O345 1.926 . S
Mg346 O360 1.984 . S
Mg346 O363 1.988 . S
Mg346 O364 2.061 . S
Mg347 O345 1.986 . S
Mg347 O355 2.238 . S
Mg347 O359 2.042 . S
Mg347 O361 2.041 . S
Mg347 O368 2.038 . S
C348 O354 1.247 . S
C348 O355 1.289 . S
C349 O367 1.245 . S
C349 O368 1.274 . S
O350 C338 1.241 . S
O350 Mg343 2.042 . S
O351 C338 1.280 . S
O351 Mg341 1.984 . S
O352 C339 1.277 . S
O352 Mg343 2.041 . S
O353 C339 1.245 . S
O353 Mg341 1.988 . S
O354 Mg341 2.061 . S
O354 C348 1.247 . S
O355 Mg344 2.106 . S
O355 Mg347 2.238 . S
O355 C348 1.289 . S
C356 O357 1.245 . S
C356 O358 1.274 . S
O357 Mg344 2.079 . S
O357 C356 1.245 . S
O358 Mg343 2.038 . S
O358 C356 1.274 . S
O359 Mg347 2.042 . S
O359 C362 1.241 . S
O360 Mg346 1.984 . S
O360 C362 1.280 . S
O361 Mg347 2.041 . S
O361 C365 1.277 . S
C362 O359 1.241 . S
C362 O360 1.280 . S
O363 Mg346 1.988 . S
O363 C365 1.245 . S
O364 C340 1.247 . S
O364 Mg346 2.061 . S
C365 O361 1.277 . S
C365 O363 1.245 . S
O366 C340 1.289 . S
O366 Mg343 2.238 . S
O366 Mg344 2.106 . S
O367 Mg344 2.079 . S
O367 C349 1.245 . S
O368 Mg347 2.038 . S
O368 C349 1.274 . S
H369 C375 0.930 . S
H370 C379 0.930 . S
H371 C384 0.929 . S
H372 C382 0.929 . S
H373 C377 0.929 . S
H374 C383 0.929 . S
C375 H369 0.930 . S
C375 C376 1.367 . S
C375 C383 1.378 . S
C376 C375 1.367 . S
C376 C384 1.433 . S
C377 H373 0.929 . S
C377 C379 1.378 . S
C377 C381 1.350 . S
C378 C381 1.463 . S
C378 C383 1.350 . S
C378 N386 1.427 . S
C379 H370 0.930 . S
C379 C377 1.378 . S
C379 C380 1.367 . S
C380 C379 1.367 . S
C380 C382 1.433 . S
C381 C377 1.350 . S
C381 C378 1.463 . S
C381 N385 1.427 . S
C382 H372 0.929 . S
C382 C380 1.433 . S
C382 N385 1.384 . S
C383 H374 0.929 . S
C383 C375 1.378 . S
C383 C378 1.350 . S
C384 H371 0.929 . S
C384 C376 1.433 . S
C384 N386 1.384 . S
N385 C381 1.427 . S
N385 C382 1.384 . S
N386 C378 1.427 . S
N386 C384 1.384 . S
H387 C393 0.930 . S
H388 C397 0.930 . S
H389 C402 0.929 . S
H390 C400 0.929 . S
H391 C395 0.929 . S
H392 C401 0.929 . S
C393 H387 0.930 . S
C393 C394 1.367 . S
C393 C401 1.378 . S
C394 C393 1.367 . S
C394 C402 1.433 . S
C395 H391 0.929 . S
C395 C397 1.378 . S
C395 C399 1.350 . S
C396 C399 1.463 . S
C396 C401 1.350 . S
C396 N404 1.427 . S
C397 H388 0.930 . S
C397 C395 1.378 . S
C397 C398 1.367 . S
C398 C397 1.367 . S
C398 C400 1.433 . S
C399 C395 1.350 . S
C399 C396 1.463 . S
C399 N403 1.427 . S
C400 H390 0.929 . S
C400 C398 1.433 . S
C400 N403 1.384 . S
C401 H392 0.929 . S
C401 C393 1.378 . S
C401 C396 1.350 . S
C402 H389 0.929 . S
C402 C394 1.433 . S
C402 N404 1.384 . S
N403 C399 1.427 . S
N403 C400 1.384 . S
N404 C396 1.427 . S
N404 C402 1.384 . S
H405 C411 0.930 . S
H406 C415 0.930 . S
H407 C420 0.929 . S
H408 C418 0.929 . S
H409 C413 0.929 . S
H410 C419 0.929 . S
C411 H405 0.930 . S
C411 C412 1.367 . S
C411 C419 1.378 . S
C412 C411 1.367 . S
C412 C420 1.433 . S
C413 H409 0.929 . S
C413 C415 1.378 . S
C413 C417 1.350 . S
C414 C417 1.463 . S
C414 C419 1.350 . S
C414 N422 1.427 . S
C415 H406 0.930 . S
C415 C413 1.378 . S
C415 C416 1.367 . S
C416 C415 1.367 . S
C416 C418 1.433 . S
C417 C413 1.350 . S
C417 C414 1.463 . S
C417 N421 1.427 . S
C418 H408 0.929 . S
C418 C416 1.433 . S
C418 N421 1.384 . S
C419 H410 0.929 . S
C419 C411 1.378 . S
C419 C414 1.350 . S
C420 H407 0.929 . S
C420 C412 1.433 . S
C420 N422 1.384 . S
N421 C417 1.427 . S
N421 C418 1.384 . S
N422 C414 1.427 . S
N422 C420 1.384 . S
H423 C429 0.930 . S
H424 C433 0.930 . S
H425 C438 0.929 . S
H426 C436 0.929 . S
H427 C431 0.929 . S
H428 C437 0.929 . S
C429 H423 0.930 . S
C429 C430 1.367 . S
C429 C437 1.378 . S
C430 C429 1.367 . S
C430 C438 1.433 . S
C431 H427 0.929 . S
C431 C433 1.378 . S
C431 C435 1.350 . S
C432 C435 1.463 . S
C432 C437 1.350 . S
C432 N440 1.427 . S
C433 H424 0.930 . S
C433 C431 1.378 . S
C433 C434 1.367 . S
C434 C433 1.367 . S
C434 C436 1.433 . S
C435 C431 1.350 . S
C435 C432 1.463 . S
C435 N439 1.427 . S
C436 H426 0.929 . S
C436 C434 1.433 . S
C436 N439 1.384 . S
C437 H428 0.929 . S
C437 C429 1.378 . S
C437 C432 1.350 . S
C438 H425 0.929 . S
C438 C430 1.433 . S
C438 N440 1.384 . S
N439 C435 1.427 . S
N439 C436 1.384 . S
N440 C432 1.427 . S
N440 C438 1.384 . S
H441 C447 0.930 . S
H442 C451 0.930 . S
H443 C456 0.929 . S
H444 C454 0.929 . S
H445 C449 0.929 . S
H446 C455 0.929 . S
C447 H441 0.930 . S
C447 C448 1.367 . S
C447 C455 1.378 . S
C448 C447 1.367 . S
C448 C456 1.433 . S
C449 H445 0.929 . S
C449 C451 1.378 . S
C449 C453 1.350 . S
C450 C453 1.463 . S
C450 C455 1.350 . S
C450 N458 1.427 . S
C451 H442 0.930 . S
C451 C449 1.378 . S
C451 C452 1.367 . S
C452 C451 1.367 . S
C452 C454 1.433 . S
C453 C449 1.350 . S
C453 C450 1.463 . S
C453 N457 1.427 . S
C454 H444 0.929 . S
C454 C452 1.433 . S
C454 N457 1.384 . S
C455 H446 0.929 . S
C455 C447 1.378 . S
C455 C450 1.350 . S
C456 H443 0.929 . S
C456 C448 1.433 . S
C456 N458 1.384 . S
N457 C453 1.427 . S
N457 C454 1.384 . S
N458 C450 1.427 . S
N458 C456 1.384 . S
H459 C465 0.930 . S
H460 C469 0.930 . S
H461 C474 0.929 . S
H462 C472 0.929 . S
H463 C467 0.929 . S
H464 C473 0.929 . S
C465 H459 0.930 . S
C465 C466 1.367 . S
C465 C473 1.378 . S
C466 C465 1.367 . S
C466 C474 1.433 . S
C467 H463 0.929 . S
C467 C469 1.378 . S
C467 C471 1.350 . S
C468 C471 1.463 . S
C468 C473 1.350 . S
C468 N476 1.427 . S
C469 H460 0.930 . S
C469 C467 1.378 . S
C469 C470 1.367 . S
C470 C469 1.367 . S
C470 C472 1.433 . S
C471 C467 1.350 . S
C471 C468 1.463 . S
C471 N475 1.427 . S
C472 H462 0.929 . S
C472 C470 1.433 . S
C472 N475 1.384 . S
C473 H464 0.929 . S
C473 C465 1.378 . S
C473 C468 1.350 . S
C474 H461 0.929 . S
C474 C466 1.433 . S
C474 N476 1.384 . S
N475 C471 1.427 . S
N475 C472 1.384 . S
N476 C468 1.427 . S
N476 C474 1.384 . S
H477 C483 0.930 . S
H478 C487 0.930 . S
H479 C492 0.929 . S
H480 C490 0.929 . S
H481 C485 0.929 . S
H482 C491 0.929 . S
C483 H477 0.930 . S
C483 C484 1.367 . S
C483 C491 1.378 . S
C484 C483 1.367 . S
C484 C492 1.433 . S
C485 H481 0.929 . S
C485 C487 1.378 . S
C485 C489 1.350 . S
C486 C489 1.463 . S
C486 C491 1.350 . S
C486 N494 1.427 . S
C487 H478 0.930 . S
C487 C485 1.378 . S
C487 C488 1.367 . S
C488 C487 1.367 . S
C488 C490 1.433 . S
C489 C485 1.350 . S
C489 C486 1.463 . S
C489 N493 1.427 . S
C490 H480 0.929 . S
C490 C488 1.433 . S
C490 N493 1.384 . S
C491 H482 0.929 . S
C491 C483 1.378 . S
C491 C486 1.350 . S
C492 H479 0.929 . S
C492 C484 1.433 . S
C492 N494 1.384 . S
N493 C489 1.427 . S
N493 C490 1.384 . S
N494 C486 1.427 . S
N494 C492 1.384 . S
H495 C501 0.930 . S
H496 C505 0.930 . S
H497 C510 0.929 . S
H498 C508 0.929 . S
H499 C503 0.929 . S
H500 C509 0.929 . S
C501 H495 0.930 . S
C501 C502 1.367 . S
C501 C509 1.378 . S
C502 C501 1.367 . S
C502 C510 1.433 . S
C503 H499 0.929 . S
C503 C505 1.378 . S
C503 C507 1.350 . S
C504 C507 1.463 . S
C504 C509 1.350 . S
C504 N512 1.427 . S
C505 H496 0.930 . S
C505 C503 1.378 . S
C505 C506 1.367 . S
C506 C505 1.367 . S
C506 C508 1.433 . S
C507 C503 1.350 . S
C507 C504 1.463 . S
C507 N511 1.427 . S
C508 H498 0.929 . S
C508 C506 1.433 . S
C508 N511 1.384 . S
C509 H500 0.929 . S
C509 C501 1.378 . S
C509 C504 1.350 . S
C510 H497 0.929 . S
C510 C502 1.433 . S
C510 N512 1.384 . S
N511 C507 1.427 . S
N511 C508 1.384 . S
N512 C504 1.427 . S
N512 C510 1.384 . S
H513 C519 0.930 . S
H514 C523 0.930 . S
H515 C528 0.929 . S
H516 C526 0.929 . S
H517 C521 0.929 . S
H518 C527 0.929 . S
C519 H513 0.930 . S
C519 C520 1.367 . S
C519 C527 1.378 . S
C520 C519 1.367 . S
C520 C528 1.433 . S
C521 H517 0.929 . S
C521 C523 1.378 . S
C521 C525 1.350 . S
C522 C525 1.463 . S
C522 C527 1.350 . S
C522 N530 1.427 . S
C523 H514 0.930 . S
C523 C521 1.378 . S
C523 C524 1.367 . S
C524 C523 1.367 . S
C524 C526 1.433 . S
C525 C521 1.350 . S
C525 C522 1.463 . S
C525 N529 1.427 . S
C526 H516 0.929 . S
C526 C524 1.433 . S
C526 N529 1.384 . S
C527 H518 0.929 . S
C527 C519 1.378 . S
C527 C522 1.350 . S
C528 H515 0.929 . S
C528 C520 1.433 . S
C528 N530 1.384 . S
N529 C525 1.427 . S
N529 C526 1.384 . S
N530 C522 1.427 . S
N530 C528 1.384 . S
H531 C537 0.930 . S
H532 C541 0.930 . S
H533 C546 0.929 . S
H534 C544 0.929 . S
H535 C539 0.929 . S
H536 C545 0.929 . S
C537 H531 0.930 . S
C537 C538 1.367 1_556 S
C537 C545 1.378 . S
C538 C537 1.367 1_554 S
C538 C546 1.433 . S
C539 H535 0.929 . S
C539 C541 1.378 . S
C539 C543 1.350 . S
C540 C543 1.463 . S
C540 C545 1.350 . S
C540 N548 1.427 1_556 S
C541 H532 0.930 . S
C541 C539 1.378 . S
C541 C542 1.367 . S
C542 C541 1.367 . S
C542 C544 1.433 . S
C543 C539 1.350 . S
C543 C540 1.463 . S
C543 N547 1.427 . S
C544 H534 0.929 . S
C544 C542 1.433 . S
C544 N547 1.384 . S
C545 H536 0.929 . S
C545 C537 1.378 . S
C545 C540 1.350 . S
C546 H533 0.929 . S
C546 C538 1.433 . S
C546 N548 1.384 . S
N547 C543 1.427 . S
N547 C544 1.384 . S
N548 C540 1.427 1_554 S
N548 C546 1.384 . S
H549 C555 0.930 . S
H550 C559 0.930 . S
H551 C564 0.929 . S
H552 C562 0.929 . S
H553 C557 0.929 . S
H554 C563 0.929 . S
C555 H549 0.930 . S
C555 C556 1.367 . S
C555 C563 1.378 . S
C556 C555 1.367 . S
C556 C564 1.433 . S
C557 H553 0.929 . S
C557 C559 1.378 . S
C557 C561 1.350 . S
C558 C561 1.463 . S
C558 C563 1.350 . S
C558 N566 1.427 . S
C559 H550 0.930 . S
C559 C557 1.378 . S
C559 C560 1.367 . S
C560 C559 1.367 . S
C560 C562 1.433 . S
C561 C557 1.350 . S
C561 C558 1.463 . S
C561 N565 1.427 . S
C562 H552 0.929 . S
C562 C560 1.433 . S
C562 N565 1.384 . S
C563 H554 0.929 . S
C563 C555 1.378 . S
C563 C558 1.350 . S
C564 H551 0.929 . S
C564 C556 1.433 . S
C564 N566 1.384 . S
N565 C561 1.427 . S
N565 C562 1.384 . S
N566 C558 1.427 . S
N566 C564 1.384 . S
H567 C573 0.930 . S
H568 C577 0.930 . S
H569 C582 0.929 . S
H570 C580 0.929 . S
H571 C575 0.929 . S
H572 C581 0.929 . S
C573 H567 0.930 . S
C573 C574 1.367 . S
C573 C581 1.378 . S
C574 C573 1.367 . S
C574 C582 1.433 . S
C575 H571 0.929 . S
C575 C577 1.378 . S
C575 C579 1.350 . S
C576 C579 1.463 . S
C576 C581 1.350 . S
C576 N584 1.427 . S
C577 H568 0.930 . S
C577 C575 1.378 . S
C577 C578 1.367 . S
C578 C577 1.367 . S
C578 C580 1.433 . S
C579 C575 1.350 . S
C579 C576 1.463 . S
C579 N583 1.427 . S
C580 H570 0.929 . S
C580 C578 1.433 . S
C580 N583 1.384 . S
C581 H572 0.929 . S
C581 C573 1.378 . S
C581 C576 1.350 . S
C582 H569 0.929 . S
C582 C574 1.433 . S
C582 N584 1.384 . S
N583 C579 1.427 . S
N583 C580 1.384 . S
N584 C576 1.427 . S
N584 C582 1.384 . S
H585 C591 0.930 . S
H586 C595 0.930 . S
H587 C600 0.929 . S
H588 C598 0.929 . S
H589 C593 0.929 . S
H590 C599 0.929 . S
C591 H585 0.930 . S
C591 C592 1.367 . S
C591 C599 1.378 . S
C592 C591 1.367 . S
C592 C600 1.433 . S
C593 H589 0.929 . S
C593 C595 1.378 . S
C593 C597 1.350 . S
C594 C597 1.463 . S
C594 C599 1.350 . S
C594 N602 1.427 . S
C595 H586 0.930 . S
C595 C593 1.378 . S
C595 C596 1.367 . S
C596 C595 1.367 . S
C596 C598 1.433 . S
C597 C593 1.350 . S
C597 C594 1.463 . S
C597 N601 1.427 . S
C598 H588 0.929 . S
C598 C596 1.433 . S
C598 N601 1.384 . S
C599 H590 0.929 . S
C599 C591 1.378 . S
C599 C594 1.350 . S
C600 H587 0.929 . S
C600 C592 1.433 . S
C600 N602 1.384 . S
N601 C597 1.427 . S
N601 C598 1.384 . S
N602 C594 1.427 . S
N602 C600 1.384 . S
H603 C609 0.930 . S
H604 C613 0.930 . S
H605 C618 0.929 . S
H606 C616 0.929 . S
H607 C611 0.929 . S
H608 C617 0.929 . S
C609 H603 0.930 . S
C609 C610 1.367 . S
C609 C617 1.378 . S
C610 C609 1.367 . S
C610 C618 1.433 . S
C611 H607 0.929 . S
C611 C613 1.378 . S
C611 C615 1.350 . S
C612 C615 1.463 . S
C612 C617 1.350 . S
C612 N620 1.427 . S
C613 H604 0.930 . S
C613 C611 1.378 . S
C613 C614 1.367 . S
C614 C613 1.367 . S
C614 C616 1.433 . S
C615 C611 1.350 . S
C615 C612 1.463 . S
C615 N619 1.427 . S
C616 H606 0.929 . S
C616 C614 1.433 . S
C616 N619 1.384 . S
C617 H608 0.929 . S
C617 C609 1.378 . S
C617 C612 1.350 . S
C618 H605 0.929 . S
C618 C610 1.433 . S
C618 N620 1.384 . S
N619 C615 1.427 . S
N619 C616 1.384 . S
N620 C612 1.427 . S
N620 C618 1.384 . S
H621 C627 0.930 . S
H622 C631 0.930 . S
H623 C636 0.929 . S
H624 C634 0.929 . S
H625 C629 0.929 . S
H626 C635 0.929 . S
C627 H621 0.930 . S
C627 C628 1.367 1_556 S
C627 C635 1.378 . S
C628 C627 1.367 1_554 S
C628 C636 1.433 . S
C629 H625 0.929 . S
C629 C631 1.378 . S
C629 C633 1.350 . S
C630 C633 1.463 . S
C630 C635 1.350 . S
C630 N638 1.427 . S
C631 H622 0.930 . S
C631 C629 1.378 . S
C631 C632 1.367 . S
C632 C631 1.367 . S
C632 C634 1.433 . S
C633 C629 1.350 . S
C633 C630 1.463 . S
C633 N637 1.427 . S
C634 H624 0.929 . S
C634 C632 1.433 . S
C634 N637 1.384 . S
C635 H626 0.929 . S
C635 C627 1.378 . S
C635 C630 1.350 . S
C636 H623 0.929 . S
C636 C628 1.433 . S
C636 N638 1.384 1_554 S
N637 C633 1.427 . S
N637 C634 1.384 . S
N638 C630 1.427 . S
N638 C636 1.384 1_556 S
H639 C645 0.930 1_554 S
H640 C649 0.930 . S
H641 C654 0.929 . S
H642 C652 0.929 . S
H643 C647 0.929 . S
H644 C653 0.929 . S
C645 H639 0.930 1_556 S
C645 C646 1.367 . S
C645 C653 1.378 . S
C646 C645 1.367 . S
C646 C654 1.433 . S
C647 H643 0.929 . S
C647 C649 1.378 . S
C647 C651 1.350 . S
C648 C651 1.463 . S
C648 C653 1.350 . S
C648 N656 1.427 . S
C649 H640 0.930 . S
C649 C647 1.378 . S
C649 C650 1.367 . S
C650 C649 1.367 . S
C650 C652 1.433 . S
C651 C647 1.350 . S
C651 C648 1.463 . S
C651 N655 1.427 . S
C652 H642 0.929 . S
C652 C650 1.433 . S
C652 N655 1.384 . S
C653 H644 0.929 . S
C653 C645 1.378 . S
C653 C648 1.350 . S
C654 H641 0.929 . S
C654 C646 1.433 . S
C654 N656 1.384 . S
N655 C651 1.427 . S
N655 C652 1.384 . S
N656 C648 1.427 . S
N656 C654 1.384 . S
H657 C663 0.940 . S
H658 C667 0.930 . S
H659 C672 0.929 . S
H660 C670 0.929 . S
H661 C665 0.929 . S
H662 C671 0.929 . S
C663 H657 0.940 . S
C663 C664 1.367 . S
C663 C671 1.378 . S
C664 C663 1.367 . S
C664 C672 1.433 . S
C665 H661 0.929 . S
C665 C667 1.378 . S
C665 C669 1.350 . S
C666 C669 1.463 . S
C666 C671 1.350 . S
C666 N674 1.427 . S
C667 H658 0.930 . S
C667 C665 1.378 . S
C667 C668 1.367 . S
C668 C667 1.367 . S
C668 C670 1.433 . S
C669 C665 1.350 . S
C669 C666 1.463 . S
C669 N673 1.427 . S
C670 H660 0.929 . S
C670 C668 1.433 . S
C670 N673 1.384 . S
C671 H662 0.929 . S
C671 C663 1.378 . S
C671 C666 1.350 . S
C672 H659 0.929 . S
C672 C664 1.433 . S
C672 N674 1.384 . S
N673 C669 1.427 . S
N673 C670 1.384 . S
N674 C666 1.427 . S
N674 C672 1.384 . S
H675 C681 0.930 . S
H676 C685 0.930 . S
H677 C690 0.929 . S
H678 C688 0.929 . S
H679 C683 0.929 . S
H680 C689 0.929 . S
C681 H675 0.930 . S
C681 C682 1.367 . S
C681 C689 1.378 . S
C682 C681 1.367 . S
C682 C690 1.433 . S
C683 H679 0.929 . S
C683 C685 1.378 . S
C683 C687 1.350 . S
C684 C687 1.463 . S
C684 C689 1.350 . S
C684 N692 1.427 . S
C685 H676 0.930 . S
C685 C683 1.378 . S
C685 C686 1.367 . S
C686 C685 1.367 . S
C686 C688 1.433 . S
C687 C683 1.350 . S
C687 C684 1.463 . S
C687 N691 1.427 . S
C688 H678 0.929 . S
C688 C686 1.433 . S
C688 N691 1.384 . S
C689 H680 0.929 . S
C689 C681 1.378 . S
C689 C684 1.350 . S
C690 H677 0.929 . S
C690 C682 1.433 . S
C690 N692 1.384 . S
N691 C687 1.427 . S
N691 C688 1.384 . S
N692 C684 1.427 . S
N692 C690 1.384 . S
H693 C699 0.930 . S
H694 C703 0.930 . S
H695 C708 0.929 . S
H696 C706 0.929 . S
H697 C701 0.929 . S
H698 C707 0.929 . S
C699 H693 0.930 . S
C699 C700 1.367 . S
C699 C707 1.378 . S
C700 C699 1.367 . S
C700 C708 1.433 . S
C701 H697 0.929 . S
C701 C703 1.378 . S
C701 C705 1.350 . S
C702 C705 1.463 . S
C702 C707 1.350 . S
C702 N710 1.427 . S
C703 H694 0.930 . S
C703 C701 1.378 . S
C703 C704 1.367 . S
C704 C703 1.367 . S
C704 C706 1.433 . S
C705 C701 1.350 . S
C705 C702 1.463 . S
C705 N709 1.427 . S
C706 H696 0.929 . S
C706 C704 1.433 . S
C706 N709 1.384 . S
C707 H698 0.929 . S
C707 C699 1.378 . S
C707 C702 1.350 . S
C708 H695 0.929 . S
C708 C700 1.433 . S
C708 N710 1.384 . S
N709 C705 1.427 . S
N709 C706 1.384 . S
N710 C702 1.427 . S
N710 C708 1.384 . S
H711 C717 0.930 . S
H712 C721 0.930 . S
H713 C726 0.929 . S
H714 C724 0.929 . S
H715 C719 0.929 . S
H716 C725 0.929 . S
C717 H711 0.930 . S
C717 C718 1.367 . S
C717 C725 1.378 . S
C718 C717 1.367 . S
C718 C726 1.433 . S
C719 H715 0.929 . S
C719 C721 1.378 . S
C719 C723 1.350 . S
C720 C723 1.463 . S
C720 C725 1.350 . S
C720 N728 1.427 . S
C721 H712 0.930 . S
C721 C719 1.378 . S
C721 C722 1.367 . S
C722 C721 1.367 . S
C722 C724 1.433 . S
C723 C719 1.350 . S
C723 C720 1.463 . S
C723 N727 1.427 . S
C724 H714 0.929 . S
C724 C722 1.433 . S
C724 N727 1.384 . S
C725 H716 0.929 . S
C725 C717 1.378 . S
C725 C720 1.350 . S
C726 H713 0.929 . S
C726 C718 1.433 . S
C726 N728 1.384 . S
N727 C723 1.427 . S
N727 C724 1.384 . S
N728 C720 1.427 . S
N728 C726 1.384 . S
H729 C735 0.930 . S
H730 C739 0.930 . S
H731 C744 0.929 . S
H732 C742 0.929 . S
H733 C737 0.929 . S
H734 C743 0.929 . S
C735 H729 0.930 . S
C735 C736 1.367 . S
C735 C743 1.378 . S
C736 C735 1.367 . S
C736 C744 1.433 . S
C737 H733 0.929 . S
C737 C739 1.378 . S
C737 C741 1.350 . S
C738 C741 1.463 . S
C738 C743 1.350 . S
C738 N746 1.427 . S
C739 H730 0.930 . S
C739 C737 1.378 . S
C739 C740 1.367 . S
C740 C739 1.367 . S
C740 C742 1.433 . S
C741 C737 1.350 . S
C741 C738 1.463 . S
C741 N745 1.427 . S
C742 H732 0.929 . S
C742 C740 1.433 . S
C742 N745 1.384 . S
C743 H734 0.929 . S
C743 C735 1.378 . S
C743 C738 1.350 . S
C744 H731 0.929 . S
C744 C736 1.433 . S
C744 N746 1.384 . S
N745 C741 1.427 . S
N745 C742 1.384 . S
N746 C738 1.427 . S
N746 C744 1.384 . S
H747 C753 0.930 . S
H748 C757 0.930 . S
H749 C762 0.929 . S
H750 C760 0.929 . S
H751 C755 0.929 . S
H752 C761 0.929 . S
C753 H747 0.930 . S
C753 C754 1.367 . S
C753 C761 1.378 . S
C754 C753 1.367 . S
C754 C762 1.433 . S
C755 H751 0.929 . S
C755 C757 1.378 . S
C755 C759 1.350 . S
C756 C759 1.463 . S
C756 C761 1.350 . S
C756 N764 1.427 . S
C757 H748 0.930 . S
C757 C755 1.378 . S
C757 C758 1.367 . S
C758 C757 1.367 . S
C758 C760 1.433 . S
C759 C755 1.350 . S
C759 C756 1.463 . S
C759 N763 1.427 . S
C760 H750 0.929 . S
C760 C758 1.433 . S
C760 N763 1.384 . S
C761 H752 0.929 . S
C761 C753 1.378 . S
C761 C756 1.350 . S
C762 H749 0.929 . S
C762 C754 1.433 . S
C762 N764 1.384 . S
N763 C759 1.427 . S
N763 C760 1.384 . S
N764 C756 1.427 . S
N764 C762 1.384 . S
H765 C771 0.930 . S
H766 C775 0.930 . S
H767 C780 0.929 . S
H768 C778 0.929 . S
H769 C773 0.929 . S
H770 C779 0.929 . S
C771 H765 0.930 . S
C771 C772 1.367 . S
C771 C779 1.378 . S
C772 C771 1.367 . S
C772 C780 1.433 . S
C773 H769 0.929 . S
C773 C775 1.378 . S
C773 C777 1.350 . S
C774 C777 1.463 . S
C774 C779 1.350 . S
C774 N782 1.427 . S
C775 H766 0.930 . S
C775 C773 1.378 . S
C775 C776 1.367 . S
C776 C775 1.367 . S
C776 C778 1.433 . S
C777 C773 1.350 . S
C777 C774 1.463 . S
C777 N781 1.427 . S
C778 H768 0.929 . S
C778 C776 1.433 . S
C778 N781 1.384 . S
C779 H770 0.929 . S
C779 C771 1.378 . S
C779 C774 1.350 . S
C780 H767 0.929 . S
C780 C772 1.433 . S
C780 N782 1.384 . S
N781 C777 1.427 . S
N781 C778 1.384 . S
N782 C774 1.427 . S
N782 C780 1.384 . S
H783 C789 0.930 . S
H784 C793 0.930 . S
H785 C798 0.929 . S
H786 C796 0.929 . S
H787 C791 0.929 . S
H788 C797 0.929 . S
C789 H783 0.930 . S
C789 C790 1.367 . S
C789 C797 1.378 . S
C790 C789 1.367 . S
C790 C798 1.433 . S
C791 H787 0.929 . S
C791 C793 1.378 . S
C791 C795 1.350 . S
C792 C795 1.463 . S
C792 C797 1.350 . S
C792 N800 1.427 . S
C793 H784 0.930 . S
C793 C791 1.378 . S
C793 C794 1.367 . S
C794 C793 1.367 . S
C794 C796 1.433 . S
C795 C791 1.350 . S
C795 C792 1.463 . S
C795 N799 1.427 . S
C796 H786 0.929 . S
C796 C794 1.433 . S
C796 N799 1.384 . S
C797 H788 0.929 . S
C797 C789 1.378 . S
C797 C792 1.350 . S
C798 H785 0.929 . S
C798 C790 1.433 . S
C798 N800 1.384 . S
N799 C795 1.427 . S
N799 C796 1.384 . S
N800 C792 1.427 . S
N800 C798 1.384 . S
C376 C15 1.870 . S
C380 C287 1.808 . S
C394 C47 1.646 . S
C398 C334 1.614 . S
C416 C338 1.801 . S
C412 C100 1.875 . S
C434 C303 1.520 . S
C430 C146 1.567 . S
C448 C192 1.810 . S
C452 C318 1.733 . S
C470 C340 1.011 . S
C466 C245 1.041 . S
C488 C309 1.408 . S
C484 C114 1.461 . S
C502 C160 1.425 . S
C506 C349 1.396 . S
C524 C278 1.316 . S
C520 C206 1.373 . S
C538 C231 1.489 . S
C542 C307 1.437 . S
C556 C1 1.962 1_556 S
C560 C365 1.903 . S
C578 C276 1.527 . S
C574 C61 1.565 1_556 S
C596 C294 1.806 . S
C592 C139 1.863 . S
C614 C308 1.609 . S
C610 C185 1.640 . S
C632 C362 1.802 . S
C628 C252 1.875 . S
C650 C277 1.521 . S
C646 C22 1.568 1_556 S
C668 C325 1.731 . S
C664 C54 1.793 . S
C682 C93 1.031 . S
C686 C348 1.002 . S
C704 C317 1.422 . S
C700 C238 1.468 . S
C722 C356 1.407 . S
C718 C8 1.432 . S
C740 C286 1.324 . S
C736 C68 1.388 . S
C758 C331 1.439 . S
C754 C107 1.489 . S
C772 C153 1.962 . S
C776 C339 1.906 . S
C790 C199 1.568 . S
C794 C300 1.516 . S
