# Generated by pormake.
# Topology ssa, (4,4)-cn, num edge types: 1
# Building blocks:
#     Node 0, Type 0, BuildingBlock: KOZSID_clean_sbu_0, # of connection points: 4
#     Node 1, Type 0, BuildingBlock: KOZSID_clean_sbu_0, # of connection points: 4
#     Node 2, Type 0, BuildingBlock: KOZSID_clean_sbu_0, # of connection points: 4
#     Node 3, Type 0, BuildingBlock: KOZSID_clean_sbu_0, # of connection points: 4
#     Node 4, Type 0, BuildingBlock: KOZSID_clean_sbu_0, # of connection points: 4
#     Node 5, Type 0, BuildingBlock: KOZSID_clean_sbu_0, # of connection points: 4
#     Node 6, Type 1, BuildingBlock: MUDLON_clean_linker_0, # of connection points: 4
#     Node 7, Type 1, BuildingBlock: MUDLON_clean_linker_0, # of connection points: 4
#     Node 8, Type 1, BuildingBlock: MUDLON_clean_linker_0, # of connection points: 4
#     Node 9, Type 1, BuildingBlock: MUDLON_clean_linker_0, # of connection points: 4
#     Node 10, Type 1, BuildingBlock: MUDLON_clean_linker_0, # of connection points: 4
#     Node 11, Type 1, BuildingBlock: MUDLON_clean_linker_0, # of connection points: 4
#     Edge 12, Type (0, 1), BuildingBlock: TEMPAE_clean_linker_10, # of connection points: 2
#     Edge 13, Type (0, 1), BuildingBlock: TEMPAE_clean_linker_10, # of connection points: 2
#     Edge 14, Type (0, 1), BuildingBlock: TEMPAE_clean_linker_10, # of connection points: 2
#     Edge 15, Type (0, 1), BuildingBlock: TEMPAE_clean_linker_10, # of connection points: 2
#     Edge 16, Type (0, 1), BuildingBlock: TEMPAE_clean_linker_10, # of connection points: 2
#     Edge 17, Type (0, 1), BuildingBlock: TEMPAE_clean_linker_10, # of connection points: 2
#     Edge 18, Type (0, 1), BuildingBlock: TEMPAE_clean_linker_10, # of connection points: 2
#     Edge 19, Type (0, 1), BuildingBlock: TEMPAE_clean_linker_10, # of connection points: 2
#     Edge 20, Type (0, 1), BuildingBlock: TEMPAE_clean_linker_10, # of connection points: 2
#     Edge 21, Type (0, 1), BuildingBlock: TEMPAE_clean_linker_10, # of connection points: 2
#     Edge 22, Type (0, 1), BuildingBlock: TEMPAE_clean_linker_10, # of connection points: 2
#     Edge 23, Type (0, 1), BuildingBlock: TEMPAE_clean_linker_10, # of connection points: 2
#     Edge 24, Type (0, 1), BuildingBlock: TEMPAE_clean_linker_10, # of connection points: 2
#     Edge 25, Type (0, 1), BuildingBlock: TEMPAE_clean_linker_10, # of connection points: 2
#     Edge 26, Type (0, 1), BuildingBlock: TEMPAE_clean_linker_10, # of connection points: 2
#     Edge 27, Type (0, 1), BuildingBlock: TEMPAE_clean_linker_10, # of connection points: 2
#     Edge 28, Type (0, 1), BuildingBlock: TEMPAE_clean_linker_10, # of connection points: 2
#     Edge 29, Type (0, 1), BuildingBlock: TEMPAE_clean_linker_10, # of connection points: 2
#     Edge 30, Type (0, 1), BuildingBlock: TEMPAE_clean_linker_10, # of connection points: 2
#     Edge 31, Type (0, 1), BuildingBlock: TEMPAE_clean_linker_10, # of connection points: 2
#     Edge 32, Type (0, 1), BuildingBlock: TEMPAE_clean_linker_10, # of connection points: 2
#     Edge 33, Type (0, 1), BuildingBlock: TEMPAE_clean_linker_10, # of connection points: 2
#     Edge 34, Type (0, 1), BuildingBlock: TEMPAE_clean_linker_10, # of connection points: 2
#     Edge 35, Type (0, 1), BuildingBlock: TEMPAE_clean_linker_10, # of connection points: 2
# Relax obj value: 0.006
# Max RMSD: 0.044
# Mean RMSD: 0.025
data_MOF--net-ssa--node1-KOZSID_clean_sbu_0--node2-MUDLON_clean_linker_0--edge1-TEMPAE_clean_linker_10
_symmetry_space_group_name_H-M    P1
_symmetry_Int_Tables_number       1
_symmetry_cell_setting            triclinic
loop_
_symmetry_equiv_pos_as_xyz
'x, y, z'
_cell_length_a     75.305
_cell_length_b     76.784
_cell_length_c     42.722
_cell_angle_alpha  87.576
_cell_angle_beta   89.941
_cell_angle_gamma 121.891
loop_
_atom_site_label
_atom_site_type_symbol
_atom_site_fract_x
_atom_site_fract_y
_atom_site_fract_z
_atom_type_partial_charge
C0 C 0.97813 0.50542 0.03734 0.0
C1 C 0.96112 0.50173 0.05559 0.0
C2 C 0.96102 0.49132 0.08233 0.0
C3 C 0.97791 0.48926 0.0789 0.0
N4 N 0.98883 0.49775 0.05161 0.0
Co5 Co 0.01478 0.49869 0.03763 0.0
N6 N 0.01306 0.48117 0.0751 0.0
C7 C 0.99769 0.47238 0.09751 0.0
C8 C 0.99973 0.45982 0.11895 0.0
C9 C 0.01752 0.46066 0.10978 0.0
C10 C 0.02555 0.47404 0.08343 0.0
N11 N 0.04137 0.50058 0.02454 0.0
C12 C 0.0523 0.49328 0.03923 0.0
C13 C 0.0712 0.50001 0.02358 0.0
C14 C 0.0721 0.51166 0.99795 0.0
C15 C 0.05394 0.51166 0.99955 0.0
N16 N 0.01572 0.5151 0.99911 0.0
C17 C 0.0302 0.52264 0.97541 0.0
C18 C 0.02629 0.53247 0.95144 0.0
C19 C 0.00803 0.53088 0.96009 0.0
C20 C 0.00187 0.52014 0.989 0.0
N21 N 0.03177 0.52413 0.06091 0.0
C22 C 0.05686 0.5599 0.09387 0.0
C23 C 0.05862 0.56026 0.06136 0.0
C24 C 0.04618 0.54234 0.04551 0.0
C25 C 0.04221 0.54146 0.10971 0.0
C26 C 0.02973 0.52394 0.09288 0.0
N27 N 0.99791 0.47341 0.01439 0.0
C28 C 0.99327 0.4539 0.9689 0.0
C29 C 0.97358 0.43807 0.98017 0.0
C30 C 0.96635 0.44019 0.00904 0.0
C31 C 0.97867 0.45784 0.02564 0.0
C32 C 0.00508 0.47124 0.98625 0.0
H33 H 0.97227 0.45859 0.04746 0.0
H34 H 0.0199 0.48281 0.97626 0.0
H35 H 0.04872 0.54371 0.02082 0.0
H36 H 0.01861 0.51046 0.10633 0.0
C37 C 0.98232 0.47727 0.09887 0.0
C38 C 0.98288 0.51532 0.00602 0.0
C39 C 0.04554 0.48022 0.06809 0.0
C40 C 0.04785 0.52116 0.97725 0.0
H41 H 0.94964 0.50569 0.04984 0.0
H42 H 0.94953 0.48526 0.10142 0.0
H43 H 0.98965 0.4513 0.1391 0.0
H44 H 0.024 0.45256 0.12152 0.0
H45 H 0.08324 0.49698 0.03 0.0
H46 H 0.08452 0.51925 0.98026 0.0
H47 H 0.03567 0.54003 0.93031 0.0
H48 H 0.00019 0.53704 0.9467 0.0
H49 H 0.0699 0.57424 0.04821 0.0
H50 H 0.04022 0.54061 0.13496 0.0
H51 H 0.99947 0.45316 0.94644 0.0
H52 H 0.9513 0.42823 0.01895 0.0
C53 C 0.56753 0.02679 0.55599 0.0
C54 C 0.57088 0.0213 0.5858 0.0
C55 C 0.55271 0.0038 0.59553 0.0
C56 C 0.53943 0.99955 0.57118 0.0
N57 N 0.54797 0.01329 0.54642 0.0
Co58 Co 0.53437 0.01249 0.50565 0.0
N59 N 0.50761 0.98684 0.52017 0.0
C60 C 0.50315 0.97728 0.54899 0.0
C61 C 0.48337 0.9602 0.55219 0.0
C62 C 0.47471 0.95863 0.52364 0.0
C63 C 0.48984 0.97484 0.50452 0.0
N64 N 0.52102 0.01119 0.46441 0.0
C65 C 0.50235 0.99639 0.45357 0.0
C66 C 0.4999 0.00072 0.42252 0.0
C67 C 0.51754 0.01892 0.41351 0.0
C68 C 0.52982 0.02455 0.43928 0.0
N69 N 0.56094 0.03848 0.49148 0.0
C70 C 0.56456 0.04936 0.46396 0.0
C71 C 0.58403 0.06692 0.46124 0.0
C72 C 0.5934 0.0674 0.48876 0.0
C73 C 0.57905 0.04998 0.50667 0.0
N74 N 0.54483 0.99578 0.4888 0.0
C75 C 0.55816 0.97116 0.46349 0.0
C76 C 0.56193 0.98904 0.44734 0.0
C77 C 0.5553 0.00109 0.4604 0.0
C78 C 0.54798 0.96601 0.49281 0.0
C79 C 0.54142 0.97839 0.50489 0.0
N80 N 0.52386 0.02929 0.52257 0.0
C81 C 0.51593 0.05594 0.51558 0.0
C82 C 0.51048 0.05409 0.54728 0.0
C83 C 0.51148 0.03945 0.56631 0.0
C84 C 0.51795 0.02719 0.55356 0.0
C85 C 0.52268 0.0436 0.50386 0.0
H86 H 0.51808 0.0162 0.56935 0.0
H87 H 0.52699 0.0461 0.47962 0.0
H88 H 0.55869 0.01457 0.44698 0.0
H89 H 0.53342 0.97349 0.5271 0.0
C90 C 0.51851 0.98348 0.57149 0.0
C91 C 0.5833 0.04518 0.53807 0.0
C92 C 0.48678 0.9778 0.47147 0.0
C93 C 0.5498 0.04213 0.4405 0.0
H94 H 0.58494 0.02924 0.59925 0.0
H95 H 0.54949 0.99534 0.61786 0.0
H96 H 0.47633 0.94977 0.57257 0.0
H97 H 0.45915 0.94668 0.51741 0.0
H98 H 0.48688 0.99157 0.40764 0.0
H99 H 0.52115 0.0269 0.39071 0.0
H100 H 0.59067 0.07796 0.44149 0.0
H101 H 0.60903 0.07922 0.49497 0.0
H102 H 0.57005 0.99379 0.42473 0.0
H103 H 0.54463 0.9522 0.50607 0.0
H104 H 0.51541 0.06717 0.50001 0.0
H105 H 0.50707 0.03729 0.59099 0.0
C106 C 0.55534 0.52702 0.9576 0.0
C107 C 0.56021 0.53799 0.92891 0.0
C108 C 0.54519 0.54269 0.92412 0.0
C109 C 0.53186 0.53416 0.94979 0.0
N110 N 0.53751 0.52428 0.97033 0.0
Co111 Co 0.52202 0.50873 0.00947 0.0
N112 N 0.49603 0.50699 0.99534 0.0
C113 C 0.4948 0.51874 0.97218 0.0
C114 C 0.47483 0.51441 0.96804 0.0
C115 C 0.46276 0.49916 0.99023 0.0
C116 C 0.47613 0.49505 0.00675 0.0
N117 N 0.50667 0.49332 0.04878 0.0
C118 C 0.48587 0.48242 0.05563 0.0
C119 C 0.4819 0.47428 0.08633 0.0
C120 C 0.50092 0.48072 0.09921 0.0
C121 C 0.5154 0.4923 0.07576 0.0
N122 N 0.54799 0.51054 0.02357 0.0
C123 C 0.55248 0.50809 0.05329 0.0
C124 C 0.57187 0.5106 0.05587 0.0
C125 C 0.58009 0.51498 0.02588 0.0
C126 C 0.56514 0.5148 0.00664 0.0
N127 N 0.53065 0.53458 0.02887 0.0
C128 C 0.5434 0.5711 0.05845 0.0
C129 C 0.55758 0.56906 0.04012 0.0
C130 C 0.55089 0.55074 0.02552 0.0
C131 C 0.52261 0.55457 0.06119 0.0
C132 C 0.51658 0.53651 0.04626 0.0
N133 N 0.51351 0.48295 0.99007 0.0
C134 C 0.50996 0.44988 0.992 0.0
C135 C 0.50362 0.44698 0.96079 0.0
C136 C 0.50202 0.46244 0.94485 0.0
C137 C 0.50683 0.48013 0.95995 0.0
C138 C 0.51491 0.46796 0.00609 0.0
H139 H 0.50551 0.49172 0.94698 0.0
H140 H 0.52011 0.46989 0.02989 0.0
H141 H 0.5622 0.5496 0.01172 0.0
H142 H 0.50056 0.52401 0.04921 0.0
C143 C 0.51207 0.53155 0.95231 0.0
C144 C 0.56837 0.52033 0.97296 0.0
C145 C 0.46975 0.48155 0.03525 0.0
C146 C 0.53688 0.50004 0.07688 0.0
H147 H 0.5731 0.54206 0.91288 0.0
H148 H 0.54357 0.55043 0.90356 0.0
H149 H 0.46957 0.5212 0.95056 0.0
H150 H 0.4461 0.49217 0.99424 0.0
H151 H 0.46684 0.46507 0.0984 0.0
H152 H 0.5038 0.47702 0.12265 0.0
H153 H 0.57888 0.50873 0.07682 0.0
H154 H 0.59538 0.51809 0.019 0.0
H155 H 0.57374 0.58154 0.03706 0.0
H156 H 0.51117 0.55535 0.07543 0.0
H157 H 0.51109 0.43828 0.00555 0.0
H158 H 0.49753 0.46118 0.9206 0.0
C159 C 0.00598 0.46844 0.53942 0.0
C160 C 0.9875 0.45551 0.52441 0.0
C161 C 0.98392 0.46774 0.50453 0.0
C162 C 0.00035 0.48737 0.50842 0.0
N163 N 0.01419 0.48824 0.52924 0.0
Co164 Co 0.03978 0.51357 0.54222 0.0
N165 N 0.03925 0.52972 0.50514 0.0
C166 C 0.02272 0.52451 0.48697 0.0
C167 C 0.02738 0.53835 0.4622 0.0
C168 C 0.04806 0.55322 0.46512 0.0
C169 C 0.05483 0.54774 0.49188 0.0
N170 N 0.06537 0.53887 0.55509 0.0
C171 C 0.07869 0.55624 0.53786 0.0
C172 C 0.0946 0.57046 0.55611 0.0
C173 C 0.09101 0.56154 0.58581 0.0
C174 C 0.07316 0.54249 0.58404 0.0
N175 N 0.04017 0.49757 0.57962 0.0
C176 C 0.0507 0.50547 0.60598 0.0
C177 C 0.04777 0.49068 0.62819 0.0
C178 C 0.03437 0.47234 0.61514 0.0
C179 C 0.02981 0.477 0.5856 0.0
N180 N 0.05708 0.50645 0.51854 0.0
C181 C 0.08335 0.49865 0.48297 0.0
C182 C 0.0867 0.50256 0.51497 0.0
C183 C 0.07365 0.50675 0.5321 0.0
C184 C 0.06623 0.4985 0.46957 0.0
C185 C 0.05312 0.50193 0.48781 0.0
N186 N 0.0225 0.52084 0.56574 0.0
C187 C 0.993 0.51108 0.60007 0.0
C188 C 0.99715 0.53116 0.59782 0.0
C189 C 0.01438 0.546 0.5794 0.0
C190 C 0.02685 0.54055 0.56365 0.0
C191 C 0.00583 0.50625 0.58387 0.0
H192 H 0.03997 0.55232 0.54963 0.0
H193 H 0.00211 0.49063 0.58586 0.0
H194 H 0.07709 0.51037 0.55629 0.0
H195 H 0.03997 0.50133 0.47677 0.0
C196 C 0.00477 0.50481 0.49011 0.0
C197 C 0.01386 0.46164 0.56559 0.0
C198 C 0.07567 0.56032 0.5051 0.0
C199 C 0.06536 0.52654 0.60717 0.0
H200 H 0.97743 0.439 0.52794 0.0
H201 H 0.97111 0.46283 0.48864 0.0
H202 H 0.01731 0.53719 0.44329 0.0
H203 H 0.05704 0.56643 0.44911 0.0
H204 H 0.10734 0.58572 0.5488 0.0
H205 H 0.1007 0.56792 0.60595 0.0
H206 H 0.05491 0.49292 0.65082 0.0
H207 H 0.02832 0.45727 0.62635 0.0
H208 H 0.09925 0.5024 0.52698 0.0
H209 H 0.06298 0.4961 0.44495 0.0
H210 H 0.97974 0.49908 0.61383 0.0
H211 H 0.01835 0.56177 0.57736 0.0
C212 C 0.49645 0.99721 0.05922 0.0
C213 C 0.49322 0.00509 0.08585 0.0
C214 C 0.51174 0.02259 0.09152 0.0
C215 C 0.52507 0.02462 0.06787 0.0
N216 N 0.51621 0.00951 0.04733 0.0
Co217 Co 0.52939 0.00795 0.00756 0.0
N218 N 0.55671 0.03355 0.01625 0.0
C219 C 0.56158 0.04425 0.04251 0.0
C220 C 0.58187 0.06048 0.04266 0.0
C221 C 0.59052 0.06018 0.0148 0.0
C222 C 0.57485 0.04383 0.99904 0.0
N223 N 0.54222 0.00708 0.96687 0.0
C224 C 0.56118 0.02068 0.95323 0.0
C225 C 0.56299 0.01511 0.92341 0.0
C226 C 0.54473 0.99722 0.91826 0.0
C227 C 0.53272 0.99303 0.94487 0.0
N228 N 0.5024 0.98176 0.99967 0.0
C229 C 0.49852 0.96952 0.97548 0.0
C230 C 0.47934 0.95164 0.97757 0.0
C231 C 0.47041 0.95239 0.00483 0.0
C232 C 0.48462 0.97095 0.01766 0.0
N233 N 0.51947 0.02435 0.98546 0.0
C234 C 0.50551 0.04775 0.95382 0.0
C235 C 0.50061 0.02875 0.94326 0.0
C236 C 0.50761 0.01737 0.95935 0.0
C237 C 0.51747 0.05476 0.98061 0.0
C238 C 0.52431 0.04297 0.99584 0.0
N239 N 0.53929 0.99145 0.02976 0.0
C240 C 0.54747 0.9649 0.03008 0.0
C241 C 0.55222 0.96722 0.06183 0.0
C242 C 0.55056 0.98208 0.07711 0.0
C243 C 0.54432 0.99402 0.06075 0.0
C244 C 0.54098 0.97694 0.01472 0.0
H245 H 0.54356 0.00512 0.07384 0.0
H246 H 0.53739 0.97414 0.99067 0.0
H247 H 0.50333 0.00303 0.9501 0.0
H248 H 0.5335 0.04927 0.01597 0.0
C249 C 0.54628 0.03985 0.06524 0.0
C250 C 0.48057 0.97758 0.04699 0.0
C251 C 0.57787 0.03898 0.96756 0.0
C252 C 0.51281 0.97566 0.95046 0.0
H253 H 0.47902 0.99874 0.10003 0.0
H254 H 0.51513 0.03252 0.11078 0.0
H255 H 0.58935 0.0715 0.06059 0.0
H256 H 0.60649 0.07095 0.00683 0.0
H257 H 0.57611 0.0231 0.90692 0.0
H258 H 0.54068 0.98833 0.89757 0.0
H259 H 0.47263 0.9395 0.9612 0.0
H260 H 0.45517 0.94052 0.01414 0.0
H261 H 0.49169 0.02275 0.92231 0.0
H262 H 0.52148 0.06925 0.99002 0.0
H263 H 0.54884 0.9539 0.01691 0.0
H264 H 0.55374 0.98437 0.1018 0.0
C265 C 0.53733 0.55388 0.51136 0.0
C266 C 0.5318 0.56589 0.52703 0.0
C267 C 0.51566 0.55291 0.54746 0.0
C268 C 0.51228 0.53378 0.54324 0.0
N269 N 0.52546 0.53394 0.52171 0.0
Co270 Co 0.5254 0.50954 0.50794 0.0
N271 N 0.50859 0.49276 0.54548 0.0
C272 C 0.49689 0.49679 0.56409 0.0
C273 C 0.48671 0.48218 0.58803 0.0
C274 C 0.4923 0.46805 0.5841 0.0
C275 C 0.50569 0.47493 0.55794 0.0
N276 N 0.52522 0.48507 0.49424 0.0
C277 C 0.52107 0.46794 0.51111 0.0
C278 C 0.52328 0.45475 0.49254 0.0
C279 C 0.52858 0.46384 0.46291 0.0
C280 C 0.52949 0.48208 0.46506 0.0
N281 N 0.5421 0.52624 0.47022 0.0
C282 C 0.54461 0.5189 0.44358 0.0
C283 C 0.5568 0.53407 0.42128 0.0
C284 C 0.56207 0.55206 0.43454 0.0
C285 C 0.55271 0.54683 0.46433 0.0
N286 N 0.55111 0.51813 0.53042 0.0
C287 C 0.58737 0.52912 0.56327 0.0
C288 C 0.58588 0.52418 0.53187 0.0
C289 C 0.56754 0.51852 0.51596 0.0
C290 C 0.57048 0.52868 0.57784 0.0
C291 C 0.5526 0.52338 0.56091 0.0
N292 N 0.49964 0.50087 0.48543 0.0
C293 C 0.47971 0.50886 0.45027 0.0
C294 C 0.46304 0.4884 0.45258 0.0
C295 C 0.46495 0.47432 0.47186 0.0
C296 C 0.48343 0.48082 0.48788 0.0
C297 C 0.49777 0.51481 0.46703 0.0
H298 H 0.48461 0.46956 0.5021 0.0
H299 H 0.51024 0.53069 0.46493 0.0
H300 H 0.5666 0.51429 0.49203 0.0
H301 H 0.53991 0.52338 0.57259 0.0
C302 C 0.4988 0.51593 0.56155 0.0
C303 C 0.55213 0.56155 0.48451 0.0
C304 C 0.51393 0.46336 0.54408 0.0
C305 C 0.53789 0.49814 0.44213 0.0
H306 H 0.53842 0.58225 0.52353 0.0
H307 H 0.50764 0.557 0.56383 0.0
H308 H 0.47701 0.48216 0.60676 0.0
H309 H 0.48699 0.4542 0.59867 0.0
H310 H 0.52133 0.44012 0.49958 0.0
H311 H 0.53228 0.45824 0.44261 0.0
H312 H 0.56169 0.53231 0.3984 0.0
H313 H 0.57135 0.56727 0.4233 0.0
H314 H 0.59863 0.52427 0.51991 0.0
H315 H 0.57118 0.53259 0.60207 0.0
H316 H 0.47874 0.52024 0.43576 0.0
H317 H 0.45245 0.45831 0.474 0.0
H318 H 0.33146 0.46391 0.24796 0.0
N319 N 0.29805 0.42534 0.23836 0.0
H320 H 0.35567 0.47371 0.29093 0.0
H321 H 0.29465 0.40228 0.28899 0.0
H322 H 0.31896 0.41205 0.33245 0.0
H323 H 0.30658 0.39858 0.21711 0.0
H324 H 0.33107 0.40434 0.17439 0.0
H325 H 0.31553 0.45807 0.1956 0.0
H326 H 0.34034 0.46414 0.15302 0.0
H327 H 0.2977 0.45963 0.25471 0.0
H328 H 0.26017 0.39963 0.21764 0.0
H329 H 0.2673 0.46265 0.25762 0.0
H330 H 0.22981 0.40314 0.21817 0.0
H331 H 0.17257 0.47187 0.25658 0.0
H332 H 0.1655 0.48696 0.29945 0.0
H333 H 0.17047 0.44517 0.36501 0.0
H334 H 0.17462 0.42831 0.32108 0.0
H335 H 0.13061 0.41807 0.26122 0.0
H336 H 0.10948 0.42256 0.22274 0.0
H337 H 0.16386 0.45623 0.16044 0.0
H338 H 0.18512 0.4533 0.20026 0.0
H339 H 0.21083 0.46825 0.2439 0.0
H340 H 0.24211 0.46697 0.23358 0.0
H341 H 0.20595 0.40128 0.25429 0.0
N342 N 0.17182 0.43566 0.26023 0.0
H343 H 0.17477 0.40278 0.26246 0.0
C344 C 0.31113 0.43229 0.26534 0.0
C345 C 0.32834 0.45256 0.26653 0.0
C346 C 0.34216 0.45819 0.29122 0.0
C347 C 0.33921 0.44364 0.31503 0.0
C348 C 0.32168 0.42354 0.31429 0.0
C349 C 0.30774 0.41797 0.28968 0.0
C350 C 0.30931 0.42786 0.20956 0.0
C351 C 0.3135 0.41269 0.20264 0.0
C352 C 0.32759 0.41608 0.17844 0.0
C353 C 0.33782 0.43479 0.16063 0.0
C354 C 0.33261 0.44952 0.16625 0.0
C355 C 0.31849 0.44611 0.1906 0.0
C356 C 0.28114 0.42904 0.23669 0.0
C357 C 0.28301 0.44715 0.24676 0.0
C358 C 0.2655 0.44898 0.24808 0.0
C359 C 0.24584 0.433 0.23866 0.0
C360 C 0.24444 0.41552 0.22664 0.0
C361 C 0.26184 0.41354 0.22595 0.0
C362 C 0.17323 0.44829 0.28549 0.0
C363 C 0.17212 0.4659 0.28017 0.0
C364 C 0.16835 0.4748 0.30513 0.0
C365 C 0.16666 0.46703 0.33626 0.0
C366 C 0.17049 0.45104 0.34155 0.0
C367 C 0.17329 0.44155 0.31644 0.0
C368 C 0.15946 0.43531 0.23403 0.0
C369 C 0.13786 0.42614 0.23902 0.0
C370 C 0.12576 0.42867 0.21673 0.0
C371 C 0.13485 0.43995 0.18822 0.0
C372 C 0.1563 0.44796 0.18236 0.0
C373 C 0.16855 0.446 0.20516 0.0
C374 C 0.19049 0.43551 0.25355 0.0
C375 C 0.20972 0.4536 0.24573 0.0
C376 C 0.22762 0.45281 0.24013 0.0
C377 C 0.2267 0.43398 0.24291 0.0
C378 C 0.20732 0.416 0.25102 0.0
C379 C 0.18945 0.41679 0.25602 0.0
H380 H 0.74812 0.12854 0.79956 0.0
N381 N 0.74794 0.14936 0.7482 0.0
H382 H 0.72167 0.11328 0.84251 0.0
H383 H 0.71626 0.15642 0.75798 0.0
H384 H 0.68971 0.14082 0.80006 0.0
H385 H 0.73542 0.16913 0.70753 0.0
H386 H 0.71128 0.15352 0.66466 0.0
H387 H 0.7359 0.11365 0.72404 0.0
H388 H 0.71243 0.09815 0.68043 0.0
H389 H 0.78524 0.1591 0.72676 0.0
H390 H 0.75265 0.18565 0.76615 0.0
H391 H 0.81788 0.19251 0.72565 0.0
H392 H 0.78532 0.21871 0.76724 0.0
H393 H 0.90227 0.28451 0.80916 0.0
H394 H 0.91191 0.30767 0.85227 0.0
H395 H 0.87944 0.33442 0.80862 0.0
H396 H 0.87013 0.31143 0.7656 0.0
H397 H 0.87162 0.3033 0.71233 0.0
H398 H 0.8945 0.3287 0.67193 0.0
H399 H 0.94426 0.31936 0.69899 0.0
H400 H 0.9212 0.2941 0.74007 0.0
H401 H 0.87632 0.24721 0.76255 0.0
H402 H 0.84313 0.21463 0.75929 0.0
H403 H 0.81203 0.24766 0.73958 0.0
N404 N 0.88316 0.28469 0.75715 0.0
H405 H 0.84501 0.27997 0.74514 0.0
C406 C 0.7341 0.14337 0.77534 0.0
C407 C 0.73567 0.13165 0.79998 0.0
C408 C 0.72062 0.12298 0.82441 0.0
C409 C 0.7036 0.12574 0.82427 0.0
C410 C 0.70259 0.13832 0.80044 0.0
C411 C 0.71778 0.14721 0.77635 0.0
C412 C 0.73724 0.14238 0.71916 0.0
C413 C 0.73075 0.15377 0.70137 0.0
C414 C 0.717 0.14484 0.67677 0.0
C415 C 0.70965 0.12445 0.66944 0.0
C416 C 0.71741 0.11371 0.68592 0.0
C417 C 0.73097 0.12258 0.71059 0.0
C418 C 0.76657 0.16967 0.74699 0.0
C419 C 0.78519 0.17214 0.73537 0.0
C420 C 0.80388 0.19125 0.73506 0.0
C421 C 0.80446 0.20838 0.74689 0.0
C422 C 0.78557 0.20599 0.75772 0.0
C423 C 0.76679 0.18691 0.75746 0.0
C424 C 0.88557 0.29624 0.7842 0.0
C425 C 0.89687 0.29508 0.80934 0.0
C426 C 0.9023 0.30828 0.83394 0.0
C427 C 0.89655 0.32298 0.83373 0.0
C428 C 0.88431 0.32343 0.80923 0.0
C429 C 0.87884 0.31016 0.78469 0.0
C430 C 0.89473 0.29676 0.7294 0.0
C431 C 0.88723 0.30628 0.70928 0.0
C432 C 0.90038 0.32083 0.68597 0.0
C433 C 0.92127 0.32618 0.68239 0.0
C434 C 0.92833 0.31578 0.70141 0.0
C435 C 0.91516 0.30124 0.72468 0.0
C436 C 0.86329 0.266 0.75365 0.0
C437 C 0.86229 0.24733 0.75743 0.0
C438 C 0.84329 0.22872 0.75527 0.0
C439 C 0.82476 0.22836 0.74881 0.0
C440 C 0.82584 0.24722 0.74488 0.0
C441 C 0.84487 0.26585 0.74758 0.0
H442 H 0.57468 0.85124 0.29198 0.0
N443 N 0.61378 0.86178 0.27104 0.0
H444 H 0.56697 0.86675 0.33388 0.0
H445 H 0.64016 0.88609 0.31333 0.0
H446 H 0.63243 0.90125 0.35662 0.0
H447 H 0.63735 0.89656 0.23722 0.0
H448 H 0.6263 0.91047 0.19406 0.0
H449 H 0.57654 0.84073 0.24106 0.0
H450 H 0.5652 0.85476 0.19847 0.0
H451 H 0.58083 0.82396 0.29264 0.0
H452 H 0.64284 0.8553 0.25059 0.0
H453 H 0.57987 0.79171 0.29452 0.0
H454 H 0.64169 0.82292 0.25091 0.0
H455 H 0.63733 0.71891 0.29357 0.0
H456 H 0.6309 0.69473 0.33773 0.0
H457 H 0.57275 0.69068 0.3595 0.0
H458 H 0.57955 0.71519 0.31564 0.0
H459 H 0.63255 0.73109 0.22125 0.0
H460 H 0.6194 0.70658 0.17961 0.0
H461 H 0.55734 0.67622 0.22205 0.0
H462 H 0.57069 0.70031 0.2638 0.0
H463 H 0.57754 0.73392 0.26399 0.0
H464 H 0.57754 0.76564 0.26367 0.0
H465 H 0.64321 0.79906 0.28541 0.0
N466 N 0.61172 0.73018 0.27213 0.0
H467 H 0.64323 0.76731 0.28405 0.0
C468 C 0.60814 0.86765 0.29925 0.0
C469 C 0.58739 0.86183 0.30618 0.0
C470 C 0.58295 0.87067 0.33046 0.0
C471 C 0.5991 0.88543 0.34854 0.0
C472 C 0.61966 0.89023 0.34281 0.0
C473 C 0.6241 0.88145 0.31833 0.0
C474 C 0.60778 0.86778 0.24251 0.0
C475 C 0.62177 0.88717 0.22826 0.0
C476 C 0.61544 0.89506 0.20367 0.0
C477 C 0.59485 0.88373 0.19316 0.0
C478 C 0.5811 0.86385 0.20637 0.0
C479 C 0.58758 0.85584 0.23066 0.0
C480 C 0.61214 0.8422 0.27187 0.0
C481 C 0.59424 0.82395 0.28372 0.0
C482 C 0.59364 0.8054 0.28451 0.0
C483 C 0.61078 0.80466 0.27313 0.0
C484 C 0.6284 0.82291 0.26063 0.0
C485 C 0.62906 0.84143 0.26016 0.0
C486 C 0.60896 0.71877 0.30126 0.0
C487 C 0.62347 0.71315 0.30838 0.0
C488 C 0.61968 0.69924 0.33341 0.0
C489 C 0.60119 0.69061 0.35184 0.0
C490 C 0.58719 0.69716 0.34583 0.0
C491 C 0.59102 0.71112 0.32069 0.0
C492 C 0.60271 0.71762 0.24558 0.0
C493 C 0.61604 0.71939 0.22111 0.0
C494 C 0.60847 0.7054 0.19735 0.0
C495 C 0.58734 0.68934 0.19767 0.0
C496 C 0.57376 0.68823 0.2214 0.0
C497 C 0.58136 0.70216 0.24517 0.0
C498 C 0.61058 0.7483 0.27352 0.0
C499 C 0.59197 0.74802 0.26851 0.0
C500 C 0.59195 0.76624 0.26864 0.0
C501 C 0.61043 0.78504 0.27419 0.0
C502 C 0.6288 0.78503 0.28025 0.0
C503 C 0.62884 0.76688 0.27976 0.0
H504 H 0.91433 0.60362 0.82889 0.0
N505 N 0.87999 0.57916 0.79831 0.0
H506 H 0.92897 0.59387 0.87235 0.0
H507 H 0.85923 0.54271 0.83303 0.0
H508 H 0.87405 0.5325 0.87575 0.0
H509 H 0.87073 0.54131 0.78106 0.0
H510 H 0.88835 0.53465 0.7399 0.0
H511 H 0.90686 0.60601 0.75479 0.0
H512 H 0.92458 0.59941 0.71294 0.0
H513 H 0.87147 0.60678 0.81503 0.0
H514 H 0.84262 0.54613 0.77987 0.0
H515 H 0.83821 0.60504 0.81199 0.0
H516 H 0.80965 0.54466 0.775 0.0
H517 H 0.74364 0.5956 0.83036 0.0
H518 H 0.71507 0.58264 0.86981 0.0
H519 H 0.68493 0.52291 0.8309 0.0
H520 H 0.71359 0.53555 0.79251 0.0
H521 H 0.73028 0.54367 0.74341 0.0
H522 H 0.70738 0.53801 0.69965 0.0
H523 H 0.71887 0.59915 0.70729 0.0
H524 H 0.74012 0.60373 0.75294 0.0
H525 H 0.78427 0.60683 0.77071 0.0
H526 H 0.81659 0.60681 0.7743 0.0
H527 H 0.78064 0.542 0.8015 0.0
N528 N 0.74555 0.57578 0.78214 0.0
H529 H 0.74841 0.54205 0.79611 0.0
C530 C 0.88588 0.5739 0.82759 0.0
C531 C 0.90524 0.58825 0.83966 0.0
C532 C 0.91364 0.58257 0.86422 0.0
C533 C 0.90286 0.56228 0.87707 0.0
C534 C 0.88274 0.54825 0.86641 0.0
C535 C 0.87428 0.55403 0.84188 0.0
C536 C 0.88743 0.57426 0.77097 0.0
C537 C 0.88203 0.55406 0.7659 0.0
C538 C 0.89215 0.55024 0.74223 0.0
C539 C 0.90795 0.56652 0.72325 0.0
C540 C 0.91263 0.58658 0.72741 0.0
C541 C 0.90243 0.59036 0.75107 0.0
C542 C 0.85972 0.57683 0.79729 0.0
C543 C 0.85795 0.59313 0.8065 0.0
C544 C 0.83895 0.59215 0.80442 0.0
C545 C 0.82123 0.57485 0.79267 0.0
C546 C 0.82288 0.5582 0.78427 0.0
C547 C 0.84189 0.55911 0.78678 0.0
C548 C 0.73071 0.56674 0.8082 0.0
C549 C 0.73117 0.57957 0.83098 0.0
C550 C 0.71491 0.57218 0.85341 0.0
C551 C 0.69782 0.55187 0.85305 0.0
C552 C 0.69793 0.53868 0.83143 0.0
C553 C 0.71434 0.54596 0.80941 0.0
C554 C 0.73637 0.57393 0.75195 0.0
C555 C 0.72789 0.55585 0.73554 0.0
C556 C 0.71495 0.55275 0.71019 0.0
C557 C 0.71073 0.56792 0.70023 0.0
C558 C 0.72103 0.58678 0.71492 0.0
C559 C 0.73347 0.58961 0.74073 0.0
C560 C 0.764 0.57462 0.78351 0.0
C561 C 0.78344 0.59263 0.77725 0.0
C562 C 0.80189 0.59259 0.77965 0.0
C563 C 0.80135 0.57447 0.78877 0.0
C564 C 0.78172 0.55623 0.7943 0.0
C565 C 0.7632 0.55625 0.79147 0.0
H566 H 0.19494 0.69736 0.29536 0.0
N567 N 0.18445 0.72642 0.28646 0.0
H568 H 0.18267 0.67157 0.33864 0.0
H569 H 0.16655 0.72639 0.34026 0.0
H570 H 0.15489 0.70084 0.3845 0.0
H571 H 0.1465 0.71582 0.2684 0.0
H572 H 0.12566 0.69135 0.22914 0.0
H573 H 0.19929 0.71128 0.24375 0.0
H574 H 0.1782 0.68548 0.20622 0.0
H575 H 0.22354 0.7339 0.30123 0.0
H576 H 0.19116 0.76111 0.25929 0.0
H577 H 0.25619 0.76699 0.29736 0.0
H578 H 0.22412 0.79407 0.25307 0.0
H579 H 0.35036 0.85719 0.27721 0.0
H580 H 0.37755 0.86947 0.3165 0.0
H581 H 0.3439 0.88956 0.37107 0.0
H582 H 0.31683 0.87729 0.33159 0.0
H583 H 0.3452 0.90388 0.26697 0.0
H584 H 0.36853 0.92203 0.22234 0.0
H585 H 0.33801 0.86605 0.172 0.0
H586 H 0.31607 0.84763 0.21772 0.0
H587 H 0.31563 0.82731 0.26822 0.0
H588 H 0.28367 0.79339 0.26704 0.0
H589 H 0.24701 0.8207 0.28335 0.0
N590 N 0.31807 0.86377 0.27587 0.0
H591 H 0.27905 0.85455 0.2825 0.0
C592 C 0.18129 0.71366 0.31429 0.0
C593 C 0.18643 0.69848 0.31474 0.0
C594 C 0.17954 0.68379 0.33956 0.0
C595 C 0.16783 0.68428 0.36465 0.0
C596 C 0.16404 0.7003 0.36541 0.0
C597 C 0.17065 0.71482 0.34026 0.0
C598 C 0.17422 0.71504 0.25934 0.0
C599 C 0.15361 0.70964 0.2542 0.0
C600 C 0.14166 0.6954 0.23208 0.0
C601 C 0.14998 0.68588 0.21504 0.0
C602 C 0.17118 0.69241 0.21878 0.0
C603 C 0.18327 0.70706 0.24047 0.0
C604 C 0.20464 0.74505 0.28112 0.0
C605 C 0.22341 0.74688 0.29074 0.0
C606 C 0.24227 0.76593 0.2882 0.0
C607 C 0.24289 0.78346 0.27535 0.0
C608 C 0.22426 0.78118 0.26405 0.0
C609 C 0.20539 0.76228 0.26721 0.0
C610 C 0.33165 0.8665 0.30148 0.0
C611 C 0.34851 0.86364 0.29811 0.0
C612 C 0.36411 0.87081 0.32042 0.0
C613 C 0.36294 0.88067 0.34665 0.0
C614 C 0.34517 0.88193 0.35121 0.0
C615 C 0.32971 0.87495 0.32873 0.0
C616 C 0.32915 0.87422 0.24661 0.0
C617 C 0.34349 0.8955 0.24627 0.0
C618 C 0.35674 0.90596 0.22036 0.0
C619 C 0.35548 0.89559 0.19325 0.0
C620 C 0.34004 0.87452 0.19268 0.0
C621 C 0.32721 0.86389 0.2191 0.0
C622 C 0.29961 0.84347 0.27506 0.0
C623 C 0.30067 0.82593 0.27131 0.0
C624 C 0.28233 0.8065 0.27085 0.0
C625 C 0.26258 0.80415 0.27489 0.0
C626 C 0.26177 0.82181 0.27924 0.0
C627 C 0.28007 0.84121 0.27908 0.0
H628 H 0.42121 0.12349 0.71272 0.0
N629 N 0.44825 0.15708 0.74146 0.0
H630 H 0.42864 0.10838 0.6693 0.0
H631 H 0.48378 0.17662 0.70412 0.0
H632 H 0.49203 0.16104 0.66246 0.0
H633 H 0.48787 0.16601 0.75449 0.0
H634 H 0.49713 0.14958 0.79552 0.0
H635 H 0.42379 0.13217 0.78884 0.0
H636 H 0.43311 0.11552 0.83042 0.0
H637 H 0.4202 0.16623 0.72469 0.0
H638 H 0.48306 0.1936 0.75781 0.0
H639 H 0.42305 0.19937 0.7258 0.0
H640 H 0.48564 0.22638 0.76088 0.0
H641 H 0.4308 0.29545 0.71596 0.0
H642 H 0.43942 0.32164 0.67378 0.0
H643 H 0.50512 0.34478 0.68483 0.0
H644 H 0.49649 0.3189 0.72669 0.0
H645 H 0.49533 0.31109 0.78016 0.0
H646 H 0.50512 0.33432 0.8233 0.0
H647 H 0.4411 0.3184 0.83307 0.0
H648 H 0.43161 0.29577 0.78921 0.0
H649 H 0.4247 0.25418 0.7638 0.0
H650 H 0.4231 0.22169 0.76122 0.0
H651 H 0.48865 0.25491 0.73333 0.0
N652 N 0.45733 0.29173 0.7522 0.0
H653 H 0.49026 0.28719 0.73794 0.0
C654 C 0.452 0.1509 0.71203 0.0
C655 C 0.43649 0.13199 0.70111 0.0
C656 C 0.4409 0.12328 0.67659 0.0
C657 C 0.46115 0.13315 0.66289 0.0
C658 C 0.47625 0.15291 0.67232 0.0
C659 C 0.47163 0.16181 0.69643 0.0
C660 C 0.45497 0.15025 0.7684 0.0
C661 C 0.47579 0.15533 0.77111 0.0
C662 C 0.4811 0.14582 0.79456 0.0
C663 C 0.46579 0.1311 0.81589 0.0
C664 C 0.44524 0.12687 0.81433 0.0
C665 C 0.4399 0.13634 0.79067 0.0
C666 C 0.45116 0.17721 0.74156 0.0
C667 C 0.43456 0.17938 0.73239 0.0
C668 C 0.43619 0.19833 0.73337 0.0
C669 C 0.45447 0.21561 0.74394 0.0
C670 C 0.47136 0.21353 0.7524 0.0
C671 C 0.46981 0.19459 0.75095 0.0
C672 C 0.46286 0.30499 0.72434 0.0
C673 C 0.44701 0.30588 0.70869 0.0
C674 C 0.45196 0.32091 0.68484 0.0
C675 C 0.47295 0.33529 0.67612 0.0
C676 C 0.4888 0.33376 0.69077 0.0
C677 C 0.48383 0.31884 0.71479 0.0
C678 C 0.46275 0.30196 0.78124 0.0
C679 C 0.48338 0.31241 0.79179 0.0
C680 C 0.48894 0.32564 0.81645 0.0
C681 C 0.47388 0.32823 0.83133 0.0
C682 C 0.45299 0.31659 0.82217 0.0
C683 C 0.44754 0.30369 0.7972 0.0
C684 C 0.45742 0.27309 0.75068 0.0
C685 C 0.4387 0.25437 0.75726 0.0
C686 C 0.43781 0.23581 0.75544 0.0
C687 C 0.45568 0.23554 0.7466 0.0
C688 C 0.47459 0.25443 0.74043 0.0
C689 C 0.4755 0.27303 0.74272 0.0
C690 C 0.06539 0.46226 0.06775 0.0
C691 C 0.05954 0.47429 0.0832 0.0
C692 C 0.0784 0.45646 0.08209 0.0
C693 C 0.08492 0.46209 0.11308 0.0
C694 C 0.0788 0.47404 0.12887 0.0
C695 C 0.06655 0.48035 0.11348 0.0
C696 C 0.08524 0.44441 0.06407 0.0
C697 C 0.08489 0.47988 0.16224 0.0
C698 C 0.10063 0.43088 0.16391 0.0
C699 C 0.12233 0.44457 0.16599 0.0
C700 C 0.08829 0.43623 0.14639 0.0
C701 C 0.09795 0.45539 0.12933 0.0
C702 C 0.11994 0.46872 0.12956 0.0
C703 C 0.13179 0.46336 0.14832 0.0
C704 C 0.06481 0.42177 0.14733 0.0
C705 C 0.1309 0.489 0.11085 0.0
H706 H 0.05985 0.45752 0.04437 0.0
H707 H 0.06203 0.4897 0.12532 0.0
H708 H 0.10257 0.45238 0.06363 0.0
H709 H 0.07901 0.42905 0.07586 0.0
H710 H 0.07984 0.44233 0.03955 0.0
H711 H 0.07809 0.48846 0.17158 0.0
H712 H 0.07954 0.46586 0.17758 0.0
H713 H 0.10216 0.48953 0.16364 0.0
H714 H 0.09309 0.41606 0.17654 0.0
H715 H 0.14842 0.47434 0.14987 0.0
H716 H 0.05895 0.41795 0.12325 0.0
H717 H 0.05731 0.42938 0.15781 0.0
H718 H 0.05976 0.40726 0.16122 0.0
H719 H 0.12529 0.48689 0.08648 0.0
H720 H 0.14816 0.49625 0.11008 0.0
H721 H 0.12726 0.49974 0.12146 0.0
C722 C 0.62119 0.05872 0.54581 0.0
C723 C 0.60345 0.05945 0.55267 0.0
C724 C 0.63975 0.07059 0.562 0.0
C725 C 0.6404 0.08337 0.58552 0.0
C726 C 0.62265 0.0847 0.59152 0.0
C727 C 0.60432 0.07265 0.57501 0.0
C728 C 0.6583 0.06872 0.55497 0.0
C729 C 0.6227 0.09814 0.61636 0.0
C730 C 0.67605 0.09358 0.65397 0.0
C731 C 0.69261 0.11377 0.64676 0.0
C732 C 0.65922 0.08345 0.63391 0.0
C733 C 0.6588 0.09376 0.60595 0.0
C734 C 0.67555 0.11405 0.59825 0.0
C735 C 0.69227 0.12384 0.61878 0.0
C736 C 0.64164 0.06181 0.64303 0.0
C737 C 0.67561 0.1255 0.56861 0.0
H738 H 0.6203 0.04838 0.52849 0.0
H739 H 0.59044 0.07305 0.58014 0.0
H740 H 0.67267 0.08415 0.55111 0.0
H741 H 0.66097 0.06101 0.57536 0.0
H742 H 0.65598 0.05972 0.53401 0.0
H743 H 0.60833 0.09883 0.61619 0.0
H744 H 0.62382 0.09207 0.63982 0.0
H745 H 0.63653 0.11397 0.61294 0.0
H746 H 0.67593 0.08582 0.67583 0.0
H747 H 0.70508 0.13938 0.61293 0.0
H748 H 0.63926 0.05142 0.62405 0.0
H749 H 0.62683 0.06145 0.64629 0.0
H750 H 0.64471 0.05571 0.66503 0.0
H751 H 0.67401 0.11654 0.54794 0.0
H752 H 0.69014 0.14092 0.56545 0.0
H753 H 0.662 0.1274 0.56911 0.0
C754 C 0.56922 0.59919 0.09161 0.0
C755 C 0.55035 0.59001 0.07562 0.0
C756 C 0.57536 0.61625 0.10964 0.0
C757 C 0.56233 0.62434 0.11173 0.0
C758 C 0.54356 0.61551 0.09494 0.0
C759 C 0.53777 0.59844 0.07711 0.0
C760 C 0.59547 0.62518 0.1273 0.0
C761 C 0.52931 0.62378 0.09647 0.0
C762 C 0.56691 0.65223 0.18532 0.0
C763 C 0.57987 0.67289 0.17492 0.0
C764 C 0.56075 0.63634 0.16481 0.0
C765 C 0.56775 0.64118 0.13308 0.0
C766 C 0.5805 0.66198 0.12222 0.0
C767 C 0.58644 0.6776 0.14329 0.0
C768 C 0.54718 0.61434 0.17733 0.0
C769 C 0.58819 0.66771 0.0885 0.0
H770 H 0.57888 0.59262 0.09087 0.0
H771 H 0.52332 0.59158 0.06444 0.0
H772 H 0.60553 0.64194 0.12168 0.0
H773 H 0.59193 0.62305 0.15289 0.0
H774 H 0.60443 0.61789 0.12174 0.0
H775 H 0.51598 0.61604 0.08047 0.0
H776 H 0.52299 0.6216 0.12076 0.0
H777 H 0.53822 0.64051 0.09033 0.0
H778 H 0.56207 0.64843 0.20982 0.0
H779 H 0.59629 0.69353 0.13504 0.0
H780 H 0.55579 0.60635 0.17521 0.0
H781 H 0.5329 0.60607 0.16331 0.0
H782 H 0.54237 0.6132 0.2023 0.0
H783 H 0.59837 0.66176 0.083 0.0
H784 H 0.59718 0.68459 0.08343 0.0
H785 H 0.57477 0.66052 0.0726 0.0
C786 C 0.97683 0.52928 0.64565 0.0
C787 C 0.98362 0.53662 0.61464 0.0
C788 C 0.96421 0.53447 0.66195 0.0
C789 C 0.95821 0.54728 0.64684 0.0
C790 C 0.96489 0.55464 0.61548 0.0
C791 C 0.97755 0.54924 0.59975 0.0
C792 C 0.95748 0.5264 0.69546 0.0
C793 C 0.95873 0.56826 0.59858 0.0
C794 C 0.91106 0.54548 0.68272 0.0
C795 C 0.92062 0.56268 0.70116 0.0
C796 C 0.92309 0.5406 0.66418 0.0
C797 C 0.94519 0.55319 0.66417 0.0
C798 C 0.95491 0.57092 0.68197 0.0
C799 C 0.9425 0.57546 0.70023 0.0
C800 C 0.91217 0.52164 0.64533 0.0
C801 C 0.97843 0.58471 0.68261 0.0
H802 H 0.98168 0.51974 0.6574 0.0
H803 H 0.98252 0.55474 0.57564 0.0
H804 H 0.96343 0.53941 0.71112 0.0
H805 H 0.94015 0.5175 0.69781 0.0
H806 H 0.96326 0.51639 0.70366 0.0
H807 H 0.965 0.57247 0.57406 0.0
H808 H 0.94143 0.56038 0.59825 0.0
H809 H 0.96457 0.58256 0.61122 0.0
H810 H 0.89415 0.53568 0.68311 0.0
H811 H 0.95001 0.5886 0.71477 0.0
H812 H 0.91615 0.51037 0.65431 0.0
H813 H 0.91763 0.52561 0.62045 0.0
H814 H 0.89489 0.51417 0.64639 0.0
H815 H 0.98513 0.57607 0.69331 0.0
H816 H 0.9835 0.59854 0.69618 0.0
H817 H 0.9851 0.58974 0.65841 0.0
C818 C 0.44141 0.95831 0.05295 0.0
C819 C 0.46081 0.96394 0.06549 0.0
C820 C 0.42278 0.94591 0.07068 0.0
C821 C 0.42377 0.93989 0.1021 0.0
C822 C 0.44339 0.94564 0.11484 0.0
C823 C 0.46162 0.9572 0.09611 0.0
C824 C 0.40211 0.93935 0.05586 0.0
C825 C 0.44521 0.9401 0.14853 0.0
C826 C 0.38034 0.92775 0.16063 0.0
C827 C 0.3711 0.90651 0.16678 0.0
C828 C 0.39724 0.93875 0.13919 0.0
C829 C 0.40446 0.92816 0.12221 0.0
C830 C 0.39423 0.90656 0.12637 0.0
C831 C 0.378 0.89606 0.14903 0.0
C832 C 0.40804 0.96186 0.13598 0.0
C833 C 0.40096 0.89462 0.10779 0.0
H834 H 0.44084 0.96361 0.02926 0.0
H835 H 0.47667 0.96151 0.10567 0.0
H836 H 0.39132 0.92247 0.05926 0.0
H837 H 0.39463 0.94665 0.06734 0.0
H838 H 0.40394 0.94361 0.03036 0.0
H839 H 0.46172 0.94634 0.15505 0.0
H840 H 0.43825 0.94615 0.16438 0.0
H841 H 0.43637 0.92318 0.15264 0.0
H842 H 0.37479 0.936 0.17319 0.0
H843 H 0.37133 0.87975 0.15351 0.0
H844 H 0.40844 0.96694 0.11118 0.0
H845 H 0.42451 0.96901 0.14329 0.0
H846 H 0.40025 0.96774 0.15045 0.0
H847 H 0.40311 0.89963 0.0826 0.0
H848 H 0.38942 0.87781 0.11013 0.0
H849 H 0.41621 0.89758 0.11615 0.0
C850 C 0.52009 0.44464 0.58757 0.0
C851 C 0.50944 0.44398 0.56044 0.0
C852 C 0.51461 0.42653 0.60511 0.0
C853 C 0.49809 0.4074 0.59515 0.0
C854 C 0.48756 0.4067 0.56734 0.0
C855 C 0.49323 0.42507 0.55049 0.0
C856 C 0.52604 0.42793 0.63482 0.0
C857 C 0.46994 0.38664 0.55589 0.0
C858 C 0.49392 0.35901 0.63029 0.0
C859 C 0.47847 0.35289 0.65384 0.0
C860 C 0.50022 0.37653 0.61058 0.0
C861 C 0.49101 0.38829 0.6148 0.0
C862 C 0.47521 0.38201 0.63827 0.0
C863 C 0.46907 0.36434 0.65742 0.0
C864 C 0.51691 0.38261 0.58551 0.0
C865 C 0.46512 0.39424 0.64367 0.0
H866 H 0.53239 0.45939 0.59537 0.0
H867 H 0.48471 0.42472 0.52983 0.0
H868 H 0.51497 0.42251 0.65526 0.0
H869 H 0.5324 0.4178 0.63415 0.0
H870 H 0.53911 0.44385 0.63853 0.0
H871 H 0.46448 0.3886 0.53261 0.0
H872 H 0.475 0.3755 0.55423 0.0
H873 H 0.45652 0.37984 0.5729 0.0
H874 H 0.50111 0.3501 0.62736 0.0
H875 H 0.45736 0.35985 0.67591 0.0
H876 H 0.53078 0.3979 0.59002 0.0
H877 H 0.51105 0.38394 0.56226 0.0
H878 H 0.52192 0.37139 0.58447 0.0
H879 H 0.47717 0.41 0.65009 0.0
H880 H 0.45283 0.38708 0.66257 0.0
H881 H 0.45798 0.39571 0.62182 0.0
C882 C 0.57477 0.95017 0.46712 0.0
C883 C 0.56442 0.95779 0.44942 0.0
C884 C 0.58109 0.93784 0.45369 0.0
C885 C 0.57674 0.93287 0.42195 0.0
C886 C 0.56601 0.94027 0.40415 0.0
C887 C 0.56007 0.95271 0.41807 0.0
C888 C 0.5927 0.9304 0.47327 0.0
C889 C 0.56086 0.93513 0.37032 0.0
C890 C 0.60836 0.9184 0.37239 0.0
C891 C 0.59468 0.89708 0.371 0.0
C892 C 0.60319 0.9301 0.39024 0.0
C893 C 0.58374 0.9203 0.40685 0.0
C894 C 0.57027 0.8987 0.40675 0.0
C895 C 0.57595 0.88733 0.38896 0.0
C896 C 0.61807 0.95309 0.38998 0.0
C897 C 0.5494 0.88769 0.42416 0.0
H898 H 0.57829 0.9542 0.49131 0.0
H899 H 0.5518 0.95833 0.40446 0.0
H900 H 0.58439 0.91341 0.47358 0.0
H901 H 0.60852 0.93654 0.46274 0.0
H902 H 0.5944 0.93519 0.49781 0.0
H903 H 0.55195 0.94167 0.36002 0.0
H904 H 0.5755 0.94115 0.35617 0.0
H905 H 0.55151 0.91823 0.3684 0.0
H906 H 0.62273 0.92616 0.35833 0.0
H907 H 0.56545 0.87083 0.38849 0.0
H908 H 0.62066 0.95843 0.41422 0.0
H909 H 0.61114 0.9608 0.37695 0.0
H910 H 0.63345 0.95806 0.37875 0.0
H911 H 0.55137 0.89217 0.44886 0.0
H912 H 0.54155 0.87073 0.42391 0.0
H913 H 0.53897 0.89224 0.41325 0.0
C914 C 0.59034 0.50768 0.95209 0.0
C915 C 0.58773 0.52409 0.95714 0.0
C916 C 0.60863 0.51104 0.93728 0.0
C917 C 0.62441 0.53125 0.92692 0.0
C918 C 0.62197 0.54791 0.93271 0.0
C919 C 0.60383 0.54415 0.94836 0.0
C920 C 0.61095 0.49299 0.93234 0.0
C921 C 0.63825 0.56963 0.92161 0.0
C922 C 0.67986 0.54617 0.9052 0.0
C923 C 0.67887 0.54516 0.87256 0.0
C924 C 0.66198 0.5408 0.92346 0.0
C925 C 0.64296 0.53496 0.90849 0.0
C926 C 0.64194 0.53381 0.87549 0.0
C927 C 0.65987 0.53869 0.85797 0.0
C928 C 0.66351 0.5417 0.95864 0.0
C929 C 0.62212 0.52816 0.85857 0.0
H930 H 0.57801 0.49224 0.95964 0.0
H931 H 0.60201 0.55687 0.95329 0.0
H932 H 0.6111 0.49068 0.90691 0.0
H933 H 0.62608 0.49607 0.94152 0.0
H934 H 0.59806 0.47855 0.944 0.0
H935 H 0.63397 0.58083 0.92812 0.0
H936 H 0.6536 0.57424 0.93172 0.0
H937 H 0.64025 0.57053 0.89573 0.0
H938 H 0.69461 0.55115 0.91637 0.0
H939 H 0.65924 0.53817 0.83265 0.0
H940 H 0.65085 0.52706 0.97006 0.0
H941 H 0.66141 0.55409 0.96658 0.0
H942 H 0.67883 0.54466 0.96678 0.0
H943 H 0.60904 0.51295 0.86763 0.0
H944 H 0.62386 0.52764 0.83285 0.0
H945 H 0.6177 0.53954 0.86297 0.0
C946 C 0.08779 0.59559 0.48298 0.0
C947 C 0.09169 0.57984 0.48861 0.0
C948 C 0.10189 0.61336 0.46496 0.0
C949 C 0.12073 0.61573 0.45345 0.0
C950 C 0.12545 0.6005 0.4612 0.0
C951 C 0.11071 0.58257 0.47853 0.0
C952 C 0.09608 0.62902 0.45682 0.0
C953 C 0.14567 0.60281 0.45022 0.0
C954 C 0.14256 0.64728 0.37711 0.0
C955 C 0.15723 0.66666 0.38762 0.0
C956 C 0.13086 0.6305 0.39834 0.0
C957 C 0.13434 0.63309 0.43084 0.0
C958 C 0.14976 0.65251 0.44151 0.0
C959 C 0.16082 0.66923 0.41971 0.0
C960 C 0.11421 0.6102 0.38604 0.0
C961 C 0.15428 0.65569 0.47589 0.0
H962 H 0.07326 0.59359 0.4917 0.0
H963 H 0.11382 0.57049 0.48362 0.0
H964 H 0.10873 0.64451 0.46324 0.0
H965 H 0.09415 0.62974 0.43113 0.0
H966 H 0.0813 0.6253 0.46883 0.0
H967 H 0.14818 0.59104 0.46167 0.0
H968 H 0.14549 0.60127 0.4245 0.0
H969 H 0.15913 0.61829 0.45508 0.0
H970 H 0.1397 0.64545 0.35223 0.0
H971 H 0.17225 0.68429 0.42767 0.0
H972 H 0.09865 0.60583 0.39579 0.0
H973 H 0.11707 0.59793 0.39373 0.0
H974 H 0.11367 0.61072 0.36005 0.0
H975 H 0.14061 0.65414 0.48855 0.0
H976 H 0.16821 0.67106 0.47999 0.0
H977 H 0.1569 0.64374 0.48621 0.0
C978 C 0.47883 0.05088 0.92303 0.0
C979 C 0.49859 0.06031 0.93656 0.0
C980 C 0.47264 0.06241 0.90504 0.0
C981 C 0.48643 0.08392 0.90076 0.0
C982 C 0.50607 0.09365 0.91524 0.0
C983 C 0.51197 0.08172 0.93279 0.0
C984 C 0.4516 0.05146 0.88982 0.0
C985 C 0.52117 0.11658 0.91136 0.0
C986 C 0.48205 0.11049 0.827 0.0
C987 C 0.47102 0.11916 0.83802 0.0
C988 C 0.48702 0.0989 0.84717 0.0
C989 C 0.48097 0.09605 0.87926 0.0
C990 C 0.46984 0.10478 0.89059 0.0
C991 C 0.46485 0.11614 0.86974 0.0
C992 C 0.49866 0.08962 0.83407 0.0
C993 C 0.46335 0.10224 0.92473 0.0
H994 H 0.46821 0.03442 0.92631 0.0
H995 H 0.52736 0.08916 0.94278 0.0
H996 H 0.44249 0.05843 0.89618 0.0
H997 H 0.45383 0.05322 0.86395 0.0
H998 H 0.44227 0.03481 0.89676 0.0
H999 H 0.53501 0.12198 0.92631 0.0
H1000 H 0.52668 0.1209 0.88654 0.0
H1001 H 0.51322 0.12479 0.9173 0.0
H1002 H 0.48653 0.11252 0.80236 0.0
H1003 H 0.45638 0.1229 0.87829 0.0
H1004 H 0.48936 0.0727 0.83844 0.0
H1005 H 0.5137 0.09552 0.84609 0.0
H1006 H 0.502 0.0931 0.80847 0.0
H1007 H 0.45316 0.08569 0.93178 0.0
H1008 H 0.45481 0.11002 0.92981 0.0
H1009 H 0.47736 0.10863 0.93946 0.0
C1010 C 0.44572 0.48685 0.40214 0.0
C1011 C 0.44398 0.48171 0.43431 0.0
C1012 C 0.42786 0.4803 0.38426 0.0
C1013 C 0.40779 0.4686 0.39904 0.0
C1014 C 0.40594 0.46361 0.43165 0.0
C1015 C 0.4241 0.47008 0.44888 0.0
C1016 C 0.43047 0.48567 0.34945 0.0
C1017 C 0.38483 0.45145 0.44829 0.0
C1018 C 0.36403 0.46782 0.3538 0.0
C1019 C 0.35528 0.44912 0.33912 0.0
C1020 C 0.38064 0.47402 0.37436 0.0
C1021 C 0.38879 0.4613 0.38008 0.0
C1022 C 0.37959 0.44212 0.36606 0.0
C1023 C 0.36289 0.43623 0.34584 0.0
C1024 C 0.38986 0.49445 0.38921 0.0
C1025 C 0.38797 0.42822 0.37136 0.0
H1026 H 0.4611 0.49567 0.39083 0.0
H1027 H 0.42278 0.46626 0.47384 0.0
H1028 H 0.42243 0.47142 0.33632 0.0
H1029 H 0.42309 0.49455 0.34319 0.0
H1030 H 0.44717 0.49485 0.34158 0.0
H1031 H 0.38612 0.44938 0.47391 0.0
H1032 H 0.37612 0.45932 0.44449 0.0
H1033 H 0.37541 0.43609 0.43844 0.0
H1034 H 0.35803 0.47772 0.34889 0.0
H1035 H 0.35635 0.42188 0.33423 0.0
H1036 H 0.40611 0.50505 0.38009 0.0
H1037 H 0.39063 0.4925 0.41495 0.0
H1038 H 0.38067 0.50174 0.38438 0.0
H1039 H 0.4042 0.43592 0.3616 0.0
H1040 H 0.37831 0.41331 0.36017 0.0
H1041 H 0.38858 0.42514 0.39681 0.0
C1042 C 0.97005 0.41092 0.94549 0.0
C1043 C 0.96065 0.41969 0.96159 0.0
C1044 C 0.95836 0.3944 0.92629 0.0
C1045 C 0.93668 0.38631 0.92325 0.0
C1046 C 0.92694 0.39465 0.94015 0.0
C1047 C 0.93905 0.41128 0.95905 0.0
C1048 C 0.96933 0.38592 0.90868 0.0
C1049 C 0.90384 0.38638 0.93758 0.0
C1050 C 0.91357 0.35959 0.84793 0.0
C1051 C 0.90487 0.33888 0.85745 0.0
C1052 C 0.9234 0.37512 0.86933 0.0
C1053 C 0.92453 0.36982 0.90109 0.0
C1054 C 0.91514 0.3489 0.91112 0.0
C1055 C 0.90548 0.33367 0.88913 0.0
C1056 C 0.93332 0.39726 0.85767 0.0
C1057 C 0.91584 0.34265 0.94485 0.0
H1058 H 0.98664 0.41707 0.94777 0.0
H1059 H 0.9317 0.41808 0.97115 0.0
H1060 H 0.96161 0.36917 0.91418 0.0
H1061 H 0.96818 0.38807 0.88307 0.0
H1062 H 0.98613 0.39348 0.91441 0.0
H1063 H 0.89837 0.39355 0.95395 0.0
H1064 H 0.90046 0.38928 0.91331 0.0
H1065 H 0.89467 0.36951 0.94252 0.0
H1066 H 0.91343 0.36376 0.82341 0.0
H1067 H 0.89861 0.31767 0.89666 0.0
H1068 H 0.95053 0.40543 0.86021 0.0
H1069 H 0.92757 0.40511 0.87195 0.0
H1070 H 0.93001 0.39873 0.83268 0.0
H1071 H 0.93227 0.3484 0.95111 0.0
H1072 H 0.90648 0.32572 0.94931 0.0
H1073 H 0.90988 0.34966 0.96063 0.0
C1074 C 0.95604 0.50925 0.96664 0.0
C1075 C 0.96846 0.52065 0.99118 0.0
C1076 C 0.9438 0.51521 0.95028 0.0
C1077 C 0.94412 0.53302 0.95873 0.0
C1078 C 0.95612 0.54413 0.98435 0.0
C1079 C 0.96823 0.53781 0.00026 0.0
C1080 C 0.93127 0.50297 0.9231 0.0
C1081 C 0.95687 0.56318 0.99406 0.0
C1082 C 0.93442 0.56173 0.89344 0.0
C1083 C 0.91345 0.55541 0.89922 0.0
C1084 C 0.9446 0.55478 0.91293 0.0
C1085 C 0.93356 0.54108 0.93888 0.0
C1086 C 0.91246 0.53478 0.94514 0.0
C1087 C 0.90262 0.54199 0.92516 0.0
C1088 C 0.96709 0.5618 0.90536 0.0
C1089 C 0.90024 0.52024 0.97267 0.0
H1090 H 0.95638 0.49599 0.95977 0.0
H1091 H 0.97799 0.54658 0.01924 0.0
H1092 H 0.91484 0.49896 0.92552 0.0
H1093 H 0.93789 0.5124 0.90091 0.0
H1094 H 0.93131 0.48861 0.92125 0.0
H1095 H 0.96528 0.56887 0.01625 0.0
H1096 H 0.96494 0.57553 0.97539 0.0
H1097 H 0.9408 0.56008 0.99709 0.0
H1098 H 0.94278 0.57174 0.87308 0.0
H1099 H 0.88646 0.53715 0.92986 0.0
H1100 H 0.96826 0.54837 0.90038 0.0
H1101 H 0.97694 0.56913 0.92579 0.0
H1102 H 0.97362 0.57291 0.88479 0.0
H1103 H 0.89906 0.50536 0.97006 0.0
H1104 H 0.88418 0.51735 0.97492 0.0
H1105 H 0.90853 0.52657 0.99469 0.0
C1106 C 0.4651 0.94259 0.45128 0.0
C1107 C 0.4678 0.96178 0.45598 0.0
C1108 C 0.44766 0.92759 0.43555 0.0
C1109 C 0.43282 0.93208 0.42396 0.0
C1110 C 0.43532 0.95134 0.42934 0.0
C1111 C 0.45271 0.96589 0.4456 0.0
C1112 C 0.44537 0.90714 0.43072 0.0
C1113 C 0.41998 0.95681 0.4171 0.0
C1114 C 0.40109 0.90531 0.35336 0.0
C1115 C 0.38119 0.89184 0.36702 0.0
C1116 C 0.41816 0.91807 0.37176 0.0
C1117 C 0.41531 0.91719 0.40467 0.0
C1118 C 0.39545 0.903 0.41875 0.0
C1119 C 0.37855 0.8906 0.3997 0.0
C1120 C 0.43901 0.93317 0.3558 0.0
C1121 C 0.39191 0.90137 0.45381 0.0
H1122 H 0.4768 0.93948 0.45959 0.0
H1123 H 0.45483 0.98072 0.44961 0.0
H1124 H 0.42961 0.89443 0.43895 0.0
H1125 H 0.44685 0.90543 0.40536 0.0
H1126 H 0.45735 0.9055 0.44328 0.0
H1127 H 0.42389 0.9722 0.42403 0.0
H1128 H 0.41983 0.95665 0.39114 0.0
H1129 H 0.40393 0.94522 0.42597 0.0
H1130 H 0.40313 0.90656 0.32807 0.0
H1131 H 0.36319 0.88012 0.41031 0.0
H1132 H 0.45149 0.93132 0.36603 0.0
H1133 H 0.44319 0.94909 0.35971 0.0
H1134 H 0.43887 0.93127 0.33015 0.0
H1135 H 0.40385 0.89946 0.4659 0.0
H1136 H 0.37611 0.8883 0.46127 0.0
H1137 H 0.39361 0.91576 0.46166 0.0
C1138 C 0.48324 0.41957 0.92264 0.0
C1139 C 0.49911 0.42824 0.94468 0.0
C1140 C 0.47962 0.4027 0.9059 0.0
C1141 C 0.49183 0.39392 0.91177 0.0
C1142 C 0.50741 0.40211 0.93466 0.0
C1143 C 0.511 0.41929 0.9506 0.0
C1144 C 0.46299 0.39454 0.88144 0.0
C1145 C 0.52053 0.39298 0.9419 0.0
C1146 C 0.46904 0.34028 0.88243 0.0
C1147 C 0.48012 0.3445 0.85392 0.0
C1148 C 0.47335 0.35613 0.90227 0.0
C1149 C 0.48876 0.37668 0.89296 0.0
C1150 C 0.50037 0.38092 0.86456 0.0
C1151 C 0.49603 0.36474 0.84552 0.0
C1152 C 0.46097 0.35094 0.9327 0.0
C1153 C 0.51668 0.40264 0.85352 0.0
H1154 H 0.47362 0.426 0.91832 0.0
H1155 H 0.5235 0.42596 0.9672 0.0
H1156 H 0.47016 0.39564 0.85816 0.0
H1157 H 0.45121 0.37808 0.88698 0.0
H1158 H 0.45482 0.40307 0.87975 0.0
H1159 H 0.53088 0.40013 0.96198 0.0
H1160 H 0.5103 0.37621 0.94735 0.0
H1161 H 0.53041 0.39508 0.92108 0.0
H1162 H 0.45678 0.32461 0.88896 0.0
H1163 H 0.5044 0.36805 0.82326 0.0
H1164 H 0.45074 0.3573 0.93153 0.0
H1165 H 0.47168 0.35807 0.95239 0.0
H1166 H 0.45103 0.33411 0.93793 0.0
H1167 H 0.50909 0.41156 0.84912 0.0
H1168 H 0.52502 0.40324 0.83166 0.0
H1169 H 0.52834 0.41036 0.87189 0.0
C1170 C 0.11868 0.50339 0.47112 0.0
C1171 C 0.09754 0.49488 0.46364 0.0
C1172 C 0.13199 0.49981 0.45316 0.0
C1173 C 0.12435 0.4883 0.42608 0.0
C1174 C 0.10325 0.47999 0.41798 0.0
C1175 C 0.09002 0.48288 0.43725 0.0
C1176 C 0.15415 0.50816 0.46334 0.0
C1177 C 0.09457 0.46803 0.38884 0.0
C1178 C 0.16108 0.49346 0.36031 0.0
C1179 C 0.15881 0.47403 0.36229 0.0
C1180 C 0.15044 0.4986 0.38142 0.0
C1181 C 0.13813 0.48448 0.40628 0.0
C1182 C 0.13734 0.46572 0.41027 0.0
C1183 C 0.14718 0.46049 0.3879 0.0
C1184 C 0.15124 0.51856 0.37578 0.0
C1185 C 0.12517 0.4506 0.43731 0.0
H1186 H 0.12503 0.51303 0.49091 0.0
H1187 H 0.0737 0.47554 0.43147 0.0
H1188 H 0.15729 0.49557 0.46553 0.0
H1189 H 0.16537 0.51959 0.44542 0.0
H1190 H 0.15727 0.5156 0.48611 0.0
H1191 H 0.0784 0.46421 0.38433 0.0
H1192 H 0.10469 0.47701 0.36811 0.0
H1193 H 0.0944 0.45351 0.3912 0.0
H1194 H 0.1706 0.50452 0.34163 0.0
H1195 H 0.14481 0.44531 0.39001 0.0
H1196 H 0.15553 0.52726 0.3974 0.0
H1197 H 0.1355 0.51523 0.36937 0.0
H1198 H 0.16259 0.52847 0.35668 0.0
H1199 H 0.12819 0.45863 0.45949 0.0
H1200 H 0.1292 0.43865 0.44035 0.0
H1201 H 0.10817 0.44282 0.43309 0.0
C1202 C 0.61084 0.04582 0.94128 0.0
C1203 C 0.59784 0.05287 0.94978 0.0
C1204 C 0.62889 0.05824 0.92244 0.0
C1205 C 0.63429 0.07835 0.91264 0.0
C1206 C 0.62168 0.08585 0.92248 0.0
C1207 C 0.60344 0.07291 0.94067 0.0
C1208 C 0.64169 0.04954 0.91199 0.0
C1209 C 0.62714 0.10734 0.91306 0.0
C1210 C 0.68947 0.11505 0.87951 0.0
C1211 C 0.68601 0.11415 0.84725 0.0
C1212 C 0.67272 0.10377 0.90122 0.0
C1213 C 0.65221 0.09095 0.89025 0.0
C1214 C 0.64874 0.08991 0.85763 0.0
C1215 C 0.66566 0.10169 0.83655 0.0
C1216 C 0.67692 0.10559 0.93583 0.0
C1217 C 0.62719 0.07612 0.84495 0.0
H1218 H 0.60648 0.03034 0.94864 0.0
H1219 H 0.59334 0.0783 0.94745 0.0
H1220 H 0.64123 0.04863 0.88612 0.0
H1221 H 0.6583 0.05979 0.9181 0.0
H1222 H 0.63587 0.03396 0.92276 0.0
H1223 H 0.6169 0.11147 0.92516 0.0
H1224 H 0.64366 0.11865 0.91846 0.0
H1225 H 0.62553 0.10866 0.8874 0.0
H1226 H 0.70523 0.12476 0.88771 0.0
H1227 H 0.66307 0.10081 0.81155 0.0
H1228 H 0.67246 0.0904 0.94677 0.0
H1229 H 0.66721 0.11051 0.94744 0.0
H1230 H 0.69364 0.11675 0.94053 0.0
H1231 H 0.62089 0.05998 0.85341 0.0
H1232 H 0.62724 0.0768 0.81892 0.0
H1233 H 0.61634 0.08058 0.85367 0.0
C1234 C 0.54624 0.58509 0.45083 0.0
C1235 C 0.55946 0.58234 0.47058 0.0
C1236 C 0.5534 0.6039 0.43437 0.0
C1237 C 0.57426 0.62034 0.43795 0.0
C1238 C 0.58738 0.61784 0.45903 0.0
C1239 C 0.57983 0.59872 0.47501 0.0
C1240 C 0.53896 0.60581 0.41195 0.0
C1241 C 0.60963 0.63506 0.46367 0.0
C1242 C 0.59819 0.65738 0.36707 0.0
C1243 C 0.59569 0.67349 0.37519 0.0
C1244 C 0.59182 0.64031 0.3877 0.0
C1245 C 0.58279 0.6393 0.41731 0.0
C1246 C 0.58071 0.65574 0.42605 0.0
C1247 C 0.58708 0.67262 0.40477 0.0
C1248 C 0.59407 0.62298 0.3773 0.0
C1249 C 0.57132 0.65527 0.45753 0.0
H1250 H 0.5305 0.57223 0.44747 0.0
H1251 H 0.58995 0.5964 0.49031 0.0
H1252 H 0.53835 0.61958 0.41664 0.0
H1253 H 0.54505 0.60779 0.38756 0.0
H1254 H 0.52279 0.59211 0.4136 0.0
H1255 H 0.61697 0.63143 0.48335 0.0
H1256 H 0.6191 0.63801 0.44195 0.0
H1257 H 0.61016 0.64944 0.46831 0.0
H1258 H 0.6045 0.65779 0.34405 0.0
H1259 H 0.58525 0.6851 0.41122 0.0
H1260 H 0.57837 0.60882 0.37583 0.0
H1261 H 0.60291 0.61962 0.39473 0.0
H1262 H 0.60223 0.62654 0.35409 0.0
H1263 H 0.55465 0.64261 0.45902 0.0
H1264 H 0.57225 0.66991 0.4617 0.0
H1265 H 0.57946 0.65218 0.47656 0.0
C1266 C 0.51298 0.07766 0.58792 0.0
C1267 C 0.50385 0.06735 0.56064 0.0
C1268 C 0.50625 0.08948 0.60186 0.0
C1269 C 0.48973 0.09073 0.58846 0.0
C1270 C 0.48074 0.08068 0.56051 0.0
C1271 C 0.48805 0.06923 0.54677 0.0
C1272 C 0.51647 0.10022 0.63137 0.0
C1273 C 0.46289 0.08137 0.54583 0.0
C1274 C 0.45877 0.10092 0.64689 0.0
C1275 C 0.46703 0.12205 0.64139 0.0
C1276 C 0.46537 0.09042 0.62888 0.0
C1277 C 0.48097 0.10133 0.6051 0.0
C1278 C 0.48906 0.12251 0.59879 0.0
C1279 C 0.48188 0.13258 0.61684 0.0
C1280 C 0.45618 0.06777 0.63615 0.0
C1281 C 0.50584 0.13468 0.57376 0.0
H1282 H 0.52539 0.07642 0.59843 0.0
H1283 H 0.48091 0.06115 0.52576 0.0
H1284 H 0.52173 0.11671 0.62864 0.0
H1285 H 0.50496 0.0934 0.65128 0.0
H1286 H 0.53014 0.099 0.63741 0.0
H1287 H 0.4586 0.07396 0.52299 0.0
H1288 H 0.44895 0.07338 0.56189 0.0
H1289 H 0.46701 0.09749 0.54219 0.0
H1290 H 0.44766 0.09262 0.66614 0.0
H1291 H 0.48815 0.14881 0.61201 0.0
H1292 H 0.46839 0.0653 0.64584 0.0
H1293 H 0.45067 0.05919 0.61443 0.0
H1294 H 0.44286 0.06116 0.65339 0.0
H1295 H 0.52032 0.13511 0.58026 0.0
H1296 H 0.50956 0.15071 0.57042 0.0
H1297 H 0.50089 0.12716 0.55109 0.0
C1298 C 0.4318 0.45455 0.04408 0.0
C1299 C 0.44884 0.47412 0.04954 0.0
C1300 C 0.41233 0.44719 0.0592 0.0
C1301 C 0.41011 0.45974 0.08029 0.0
C1302 C 0.42729 0.47978 0.08508 0.0
C1303 C 0.44644 0.48674 0.06952 0.0
C1304 C 0.39434 0.42582 0.05334 0.0
C1305 C 0.42567 0.4936 0.1075 0.0
C1306 C 0.35728 0.44914 0.1089 0.0
C1307 C 0.3553 0.43968 0.13859 0.0
C1308 C 0.37463 0.45499 0.08898 0.0
C1309 C 0.39045 0.45155 0.09925 0.0
C1310 C 0.38828 0.4416 0.12892 0.0
C1311 C 0.37072 0.43574 0.14815 0.0
C1312 C 0.37631 0.46535 0.05734 0.0
C1313 C 0.40493 0.43789 0.14095 0.0
H1314 H 0.43383 0.44493 0.02845 0.0
H1315 H 0.45977 0.50193 0.07349 0.0
H1316 H 0.39036 0.41588 0.07505 0.0
H1317 H 0.38023 0.42618 0.04708 0.0
H1318 H 0.39806 0.41875 0.03428 0.0
H1319 H 0.44017 0.50909 0.10736 0.0
H1320 H 0.41237 0.49536 0.10141 0.0
H1321 H 0.42258 0.48657 0.13167 0.0
H1322 H 0.34532 0.45208 0.10135 0.0
H1323 H 0.36945 0.42873 0.17128 0.0
H1324 H 0.37946 0.4576 0.03873 0.0
H1325 H 0.38967 0.48151 0.05687 0.0
H1326 H 0.36188 0.46528 0.05172 0.0
H1327 H 0.40823 0.42944 0.12379 0.0
H1328 H 0.40034 0.429 0.16382 0.0
H1329 H 0.4197 0.45282 0.14383 0.0
C1330 C 0.00372 0.42487 0.57179 0.0
C1331 C 0.00024 0.44041 0.57913 0.0
C1332 C 0.99123 0.40498 0.5858 0.0
C1333 C 0.97509 0.4008 0.60764 0.0
C1334 C 0.97142 0.41653 0.6146 0.0
C1335 C 0.98404 0.43615 0.60018 0.0
C1336 C 0.99553 0.38858 0.57773 0.0
C1337 C 0.95446 0.41278 0.63781 0.0
C1338 C 0.93003 0.34707 0.63148 0.0
C1339 C 0.9361 0.34394 0.66118 0.0
C1340 C 0.94307 0.36508 0.61296 0.0
C1341 C 0.96256 0.38035 0.62451 0.0
C1342 C 0.96917 0.37686 0.65384 0.0
C1343 C 0.95587 0.35871 0.67179 0.0
C1344 C 0.93556 0.36819 0.58168 0.0
C1345 C 0.98979 0.3928 0.66709 0.0
H1346 H 0.01632 0.42836 0.55543 0.0
H1347 H 0.9815 0.44835 0.60567 0.0
H1348 H 0.00067 0.38371 0.59887 0.0
H1349 H 0.98101 0.37484 0.56996 0.0
H1350 H 0.00781 0.39398 0.55898 0.0
H1351 H 0.95327 0.42651 0.63987 0.0
H1352 H 0.9391 0.39981 0.63071 0.0
H1353 H 0.95766 0.40843 0.66128 0.0
H1354 H 0.91487 0.33561 0.623 0.0
H1355 H 0.96058 0.35656 0.69489 0.0
H1356 H 0.94791 0.37311 0.56322 0.0
H1357 H 0.9322 0.38058 0.58295 0.0
H1358 H 0.92115 0.35403 0.57456 0.0
H1359 H 0.00271 0.39785 0.6496 0.0
H1360 H 0.99347 0.38698 0.68882 0.0
H1361 H 0.98928 0.40653 0.67256 0.0
C1362 C 0.54969 0.93345 0.07225 0.0
C1363 C 0.55865 0.95418 0.07897 0.0
C1364 C 0.55533 0.92092 0.08866 0.0
C1365 C 0.56998 0.92917 0.11281 0.0
C1366 C 0.57917 0.95006 0.11963 0.0
C1367 C 0.57356 0.96234 0.10244 0.0
C1368 C 0.54541 0.89878 0.08044 0.0
C1369 C 0.59471 0.95939 0.14543 0.0
C1370 C 0.56938 0.89381 0.1782 0.0
C1371 C 0.58732 0.89349 0.17068 0.0
C1372 C 0.5633 0.90501 0.15917 0.0
C1373 C 0.57527 0.91587 0.13171 0.0
C1374 C 0.59291 0.91489 0.12333 0.0
C1375 C 0.59886 0.90387 0.14312 0.0
C1376 C 0.54459 0.90594 0.1692 0.0
C1377 C 0.60581 0.92591 0.0939 0.0
H1378 H 0.53793 0.92684 0.05453 0.0
H1379 H 0.58094 0.9784 0.10743 0.0
H1380 H 0.5577 0.89536 0.07548 0.0
H1381 H 0.53575 0.8885 0.10062 0.0
H1382 H 0.53532 0.89507 0.05974 0.0
H1383 H 0.60038 0.97587 0.14786 0.0
H1384 H 0.58741 0.95093 0.16811 0.0
H1385 H 0.60838 0.95798 0.14075 0.0
H1386 H 0.56061 0.88602 0.19974 0.0
H1387 H 0.61269 0.90354 0.13726 0.0
H1388 H 0.53327 0.90125 0.15002 0.0
H1389 H 0.5497 0.92197 0.17422 0.0
H1390 H 0.53643 0.89592 0.19045 0.0
H1391 H 0.59557 0.92177 0.07337 0.0
H1392 H 0.61797 0.92223 0.0894 0.0
H1393 H 0.61364 0.94275 0.09593 0.0
C1394 C 0.62604 0.55071 0.56989 0.0
C1395 C 0.60637 0.53456 0.58092 0.0
C1396 C 0.64404 0.55661 0.58724 0.0
C1397 C 0.64231 0.54577 0.61588 0.0
C1398 C 0.62252 0.529 0.62654 0.0
C1399 C 0.60474 0.52376 0.6091 0.0
C1400 C 0.66476 0.57486 0.57547 0.0
C1401 C 0.62008 0.51678 0.65662 0.0
C1402 C 0.69075 0.5505 0.65213 0.0
C1403 C 0.69435 0.56349 0.67671 0.0
C1404 C 0.67405 0.54479 0.63183 0.0
C1405 C 0.66091 0.55261 0.63571 0.0
C1406 C 0.66491 0.56633 0.65962 0.0
C1407 C 0.68133 0.57135 0.68003 0.0
C1408 C 0.67008 0.52989 0.60685 0.0
C1409 C 0.65147 0.57528 0.66425 0.0
H1410 H 0.62721 0.5591 0.54813 0.0
H1411 H 0.58951 0.51113 0.6174 0.0
H1412 H 0.67049 0.58721 0.59235 0.0
H1413 H 0.67663 0.57055 0.57379 0.0
H1414 H 0.6636 0.58111 0.55214 0.0
H1415 H 0.60391 0.50329 0.66042 0.0
H1416 H 0.63109 0.51132 0.65638 0.0
H1417 H 0.624 0.5267 0.67681 0.0
H1418 H 0.70082 0.54456 0.64891 0.0
H1419 H 0.68349 0.58099 0.69925 0.0
H1420 H 0.66979 0.53657 0.58347 0.0
H1421 H 0.65451 0.51566 0.6112 0.0
H1422 H 0.68211 0.5257 0.60623 0.0
H1423 H 0.65023 0.58236 0.64183 0.0
H1424 H 0.65775 0.58708 0.68212 0.0
H1425 H 0.6354 0.56289 0.67183 0.0
C1426 C 0.07186 0.59714 0.1021 0.0
C1427 C 0.07042 0.57865 0.11105 0.0
C1428 C 0.08477 0.61508 0.11803 0.0
C1429 C 0.09684 0.61457 0.14305 0.0
C1430 C 0.09562 0.59596 0.15189 0.0
C1431 C 0.08223 0.57816 0.13598 0.0
C1432 C 0.08527 0.63448 0.10839 0.0
C1433 C 0.10851 0.59488 0.17807 0.0
C1434 C 0.14387 0.66487 0.16784 0.0
C1435 C 0.13617 0.66822 0.19542 0.0
C1436 C 0.13126 0.6475 0.1505 0.0
C1437 C 0.1103 0.63334 0.16059 0.0
C1438 C 0.10226 0.63685 0.18791 0.0
C1439 C 0.11532 0.65405 0.20516 0.0
C1440 C 0.14047 0.64412 0.12168 0.0
C1441 C 0.0799 0.62226 0.19923 0.0
H1442 H 0.0626 0.59746 0.08292 0.0
H1443 H 0.08127 0.56389 0.14264 0.0
H1444 H 0.08021 0.63968 0.12849 0.0
H1445 H 0.10148 0.64694 0.10165 0.0
H1446 H 0.07498 0.63231 0.08842 0.0
H1447 H 0.10636 0.57944 0.18125 0.0
H1448 H 0.12535 0.60638 0.17321 0.0
H1449 H 0.10414 0.5987 0.20042 0.0
H1450 H 0.15981 0.67579 0.15979 0.0
H1451 H 0.10924 0.65608 0.22677 0.0
H1452 H 0.13125 0.64321 0.1009 0.0
H1453 H 0.13963 0.62927 0.12459 0.0
H1454 H 0.15704 0.65656 0.11696 0.0
H1455 H 0.06901 0.62004 0.18015 0.0
H1456 H 0.07569 0.62786 0.21981 0.0
H1457 H 0.07747 0.60701 0.20582 0.0
loop_
_geom_bond_atom_site_label_1
_geom_bond_atom_site_label_2
_geom_bond_distance
_geom_bond_site_symmetry_2
_ccdc_geom_bond_type
C0 C1 1.443 . S
C0 N4 1.376 . S
C0 C38 1.389 . S
C1 C0 1.443 . S
C1 C2 1.340 . S
C1 H41 0.951 . S
C2 C1 1.340 . S
C2 C3 1.439 . S
C2 H42 0.950 . S
C3 C2 1.439 . S
C3 N4 1.374 . S
C3 C37 1.395 . S
N4 C0 1.376 . S
N4 C3 1.374 . S
N4 Co5 2.008 1_655 S
Co5 N4 2.008 1_455 S
Co5 N6 1.995 . S
Co5 N11 2.008 . S
Co5 N16 1.995 . S
Co5 N21 2.282 . S
Co5 N27 2.282 1_455 S
N6 Co5 1.995 . S
N6 C7 1.376 1_455 S
N6 C10 1.383 . S
C7 N6 1.376 1_655 S
C7 C8 1.446 . S
C7 C37 1.391 . S
C8 C7 1.446 . S
C8 C9 1.339 1_655 S
C8 H43 0.949 . S
C9 C8 1.339 1_455 S
C9 C10 1.439 . S
C9 H44 0.950 . S
C10 N6 1.383 . S
C10 C9 1.439 . S
C10 C39 1.392 . S
N11 Co5 2.008 . S
N11 C12 1.376 . S
N11 C15 1.374 . S
C12 N11 1.376 . S
C12 C13 1.443 . S
C12 C39 1.389 . S
C13 C12 1.443 . S
C13 C14 1.340 . S
C13 H45 0.951 . S
C14 C13 1.340 . S
C14 C15 1.439 . S
C14 H46 0.958 . S
C15 N11 1.374 . S
C15 C14 1.439 . S
C15 C40 1.395 1_554 S
N16 Co5 1.995 . S
N16 C17 1.376 1_554 S
N16 C20 1.383 1_455 S
C17 N16 1.376 1_556 S
C17 C18 1.446 . S
C17 C40 1.391 . S
C18 C17 1.446 . S
C18 C19 1.339 1_455 S
C18 H47 0.949 . S
C19 C18 1.339 1_655 S
C19 C20 1.439 1_556 S
C19 H48 0.950 . S
C20 N16 1.383 1_655 S
C20 C19 1.439 1_554 S
C20 C38 1.392 . S
N21 Co5 2.282 . S
N21 C24 1.332 . S
N21 C26 1.332 . S
C22 C23 1.386 . S
C22 C25 1.388 . S
C23 C22 1.386 . S
C23 C24 1.382 . S
C23 H49 0.950 . S
C24 N21 1.332 . S
C24 C23 1.382 . S
C24 H35 0.952 . S
C25 C22 1.388 . S
C25 C26 1.382 . S
C25 H50 0.950 . S
C26 N21 1.332 . S
C26 C25 1.382 . S
C26 H36 0.948 . S
N27 Co5 2.282 1_655 S
N27 C31 1.332 . S
N27 C32 1.332 1_554 S
C28 C29 1.388 . S
C28 C32 1.382 . S
C28 H51 0.950 . S
C29 C28 1.388 . S
C29 C30 1.386 1_556 S
C30 C29 1.386 1_554 S
C30 C31 1.382 . S
C30 H52 0.950 . S
C31 N27 1.332 . S
C31 C30 1.382 . S
C31 H33 0.952 . S
C32 N27 1.332 1_556 S
C32 C28 1.382 . S
C32 H34 0.948 . S
H33 C31 0.952 . S
H34 C32 0.948 . S
H35 C24 0.952 . S
H36 C26 0.948 . S
C37 C3 1.395 . S
C37 C7 1.391 . S
C38 C0 1.389 . S
C38 C20 1.392 . S
C39 C10 1.392 . S
C39 C12 1.389 . S
C40 C15 1.395 1_556 S
C40 C17 1.391 . S
H41 C1 0.951 . S
H42 C2 0.950 . S
H43 C8 0.949 . S
H44 C9 0.950 . S
H45 C13 0.951 . S
H46 C14 0.958 . S
H47 C18 0.949 . S
H48 C19 0.950 . S
H49 C23 0.950 . S
H50 C25 0.950 . S
H51 C28 0.950 . S
H52 C30 0.950 . S
C53 C54 1.443 . S
C53 N57 1.376 . S
C53 C91 1.389 . S
C54 C53 1.443 . S
C54 C55 1.340 . S
C54 H94 0.951 . S
C55 C54 1.340 . S
C55 C56 1.439 1_545 S
C55 H95 0.950 1_545 S
C56 C55 1.439 1_565 S
C56 N57 1.374 1_565 S
C56 C90 1.395 . S
N57 C53 1.376 . S
N57 C56 1.374 1_545 S
N57 Co58 2.008 . S
Co58 N57 2.008 . S
Co58 N59 1.995 1_545 S
Co58 N64 2.008 . S
Co58 N69 1.995 . S
Co58 N74 2.282 1_545 S
Co58 N80 2.282 . S
N59 Co58 1.995 1_565 S
N59 C60 1.376 . S
N59 C63 1.383 . S
C60 N59 1.376 . S
C60 C61 1.446 . S
C60 C90 1.391 . S
C61 C60 1.446 . S
C61 C62 1.339 . S
C61 H96 0.949 . S
C62 C61 1.339 . S
C62 C63 1.439 . S
C62 H97 0.950 . S
C63 N59 1.383 . S
C63 C62 1.439 . S
C63 C92 1.392 . S
N64 Co58 2.008 . S
N64 C65 1.376 1_545 S
N64 C68 1.374 . S
C65 N64 1.376 1_565 S
C65 C66 1.443 . S
C65 C92 1.389 . S
C66 C65 1.443 . S
C66 C67 1.340 1_565 S
C66 H98 0.951 . S
C67 C66 1.340 1_545 S
C67 C68 1.439 . S
C67 H99 0.950 . S
C68 N64 1.374 . S
C68 C67 1.439 . S
C68 C93 1.395 . S
N69 Co58 1.995 . S
N69 C70 1.376 . S
N69 C73 1.383 . S
C70 N69 1.376 . S
C70 C71 1.446 . S
C70 C93 1.391 . S
C71 C70 1.446 . S
C71 C72 1.339 . S
C71 H100 0.949 . S
C72 C71 1.339 . S
C72 C73 1.439 . S
C72 H101 0.950 . S
C73 N69 1.383 . S
C73 C72 1.439 . S
C73 C91 1.392 . S
N74 Co58 2.282 1_565 S
N74 C77 1.332 . S
N74 C79 1.332 . S
C75 C76 1.386 . S
C75 C78 1.388 . S
C76 C75 1.386 . S
C76 C77 1.382 . S
C76 H102 0.950 . S
C77 N74 1.332 . S
C77 C76 1.382 . S
C77 H88 0.952 1_565 S
C78 C75 1.388 . S
C78 C79 1.382 . S
C78 H103 0.950 . S
C79 N74 1.332 . S
C79 C78 1.382 . S
C79 H89 0.948 . S
N80 Co58 2.282 . S
N80 C84 1.332 . S
N80 C85 1.332 . S
C81 C82 1.388 . S
C81 C85 1.382 . S
C81 H104 0.950 . S
C82 C81 1.388 . S
C82 C83 1.386 . S
C83 C82 1.386 . S
C83 C84 1.382 . S
C83 H105 0.950 . S
C84 N80 1.332 . S
C84 C83 1.382 . S
C84 H86 0.952 . S
C85 N80 1.332 . S
C85 C81 1.382 . S
C85 H87 0.948 . S
H86 C84 0.952 . S
H87 C85 0.948 . S
H88 C77 0.952 1_545 S
H89 C79 0.948 . S
C90 C56 1.395 . S
C90 C60 1.391 . S
C91 C53 1.389 . S
C91 C73 1.392 . S
C92 C63 1.392 . S
C92 C65 1.389 . S
C93 C68 1.395 . S
C93 C70 1.391 . S
H94 C54 0.951 . S
H95 C55 0.950 1_565 S
H96 C61 0.949 . S
H97 C62 0.950 . S
H98 C66 0.951 . S
H99 C67 0.950 . S
H100 C71 0.949 . S
H101 C72 0.950 . S
H102 C76 0.950 . S
H103 C78 0.950 . S
H104 C81 0.950 . S
H105 C83 0.950 . S
C106 C107 1.443 . S
C106 N110 1.376 . S
C106 C144 1.389 . S
C107 C106 1.443 . S
C107 C108 1.340 . S
C107 H147 0.951 . S
C108 C107 1.340 . S
C108 C109 1.439 . S
C108 H148 0.950 . S
C109 C108 1.439 . S
C109 N110 1.374 . S
C109 C143 1.395 . S
N110 C106 1.376 . S
N110 C109 1.374 . S
N110 Co111 2.008 1_556 S
Co111 N110 2.008 1_554 S
Co111 N112 1.995 1_554 S
Co111 N117 2.008 . S
Co111 N122 1.995 . S
Co111 N127 2.282 . S
Co111 N133 2.282 1_554 S
N112 Co111 1.995 1_556 S
N112 C113 1.376 . S
N112 C116 1.383 1_556 S
C113 N112 1.376 . S
C113 C114 1.446 . S
C113 C143 1.391 . S
C114 C113 1.446 . S
C114 C115 1.339 . S
C114 H149 0.949 . S
C115 C114 1.339 . S
C115 C116 1.439 1_556 S
C115 H150 0.950 . S
C116 N112 1.383 1_554 S
C116 C115 1.439 1_554 S
C116 C145 1.392 . S
N117 Co111 2.008 . S
N117 C118 1.376 . S
N117 C121 1.374 . S
C118 N117 1.376 . S
C118 C119 1.443 . S
C118 C145 1.389 . S
C119 C118 1.443 . S
C119 C120 1.340 . S
C119 H151 0.951 . S
C120 C119 1.340 . S
C120 C121 1.439 . S
C120 H152 0.950 . S
C121 N117 1.374 . S
C121 C120 1.439 . S
C121 C146 1.395 . S
N122 Co111 1.995 . S
N122 C123 1.376 . S
N122 C126 1.385 1_554 S
C123 N122 1.376 . S
C123 C124 1.446 . S
C123 C146 1.391 . S
C124 C123 1.446 . S
C124 C125 1.339 . S
C124 H153 0.949 . S
C125 C124 1.339 . S
C125 C126 1.440 1_554 S
C125 H154 0.950 . S
C126 N122 1.385 1_556 S
C126 C125 1.440 1_556 S
C126 C144 1.389 . S
N127 Co111 2.282 . S
N127 C130 1.332 . S
N127 C132 1.332 . S
C128 C129 1.386 . S
C128 C131 1.388 . S
C129 C128 1.386 . S
C129 C130 1.382 . S
C129 H155 0.950 . S
C130 N127 1.332 . S
C130 C129 1.382 . S
C130 H141 0.952 . S
C131 C128 1.388 . S
C131 C132 1.382 . S
C131 H156 0.950 . S
C132 N127 1.332 . S
C132 C131 1.382 . S
C132 H142 0.948 1_554 S
N133 Co111 2.282 1_556 S
N133 C137 1.332 . S
N133 C138 1.332 . S
C134 C135 1.388 . S
C134 C138 1.382 . S
C134 H157 0.950 . S
C135 C134 1.388 . S
C135 C136 1.386 . S
C136 C135 1.386 . S
C136 C137 1.382 . S
C136 H158 0.950 . S
C137 N133 1.332 . S
C137 C136 1.382 . S
C137 H139 0.952 . S
C138 N133 1.332 . S
C138 C134 1.382 . S
C138 H140 0.948 1_556 S
H139 C137 0.952 . S
H140 C138 0.948 1_554 S
H141 C130 0.952 . S
H142 C132 0.948 1_556 S
C143 C109 1.395 . S
C143 C113 1.391 . S
C144 C106 1.389 . S
C144 C126 1.389 . S
C145 C116 1.392 . S
C145 C118 1.389 . S
C146 C121 1.395 . S
C146 C123 1.391 . S
H147 C107 0.951 . S
H148 C108 0.950 . S
H149 C114 0.949 . S
H150 C115 0.950 . S
H151 C119 0.951 . S
H152 C120 0.950 . S
H153 C124 0.949 . S
H154 C125 0.950 . S
H155 C129 0.950 . S
H156 C131 0.950 . S
H157 C134 0.950 . S
H158 C136 0.950 . S
C159 C160 1.443 1_455 S
C159 N163 1.376 . S
C159 C197 1.389 . S
C160 C159 1.443 1_655 S
C160 C161 1.340 . S
C160 H200 0.951 . S
C161 C160 1.340 . S
C161 C162 1.439 1_655 S
C161 H201 0.950 . S
C162 C161 1.439 1_455 S
C162 N163 1.374 . S
C162 C196 1.395 . S
N163 C159 1.376 . S
N163 C162 1.374 . S
N163 Co164 2.008 . S
Co164 N163 2.008 . S
Co164 N165 1.995 . S
Co164 N170 2.008 . S
Co164 N175 1.995 . S
Co164 N180 2.282 . S
Co164 N186 2.282 . S
N165 Co164 1.995 . S
N165 C166 1.376 . S
N165 C169 1.383 . S
C166 N165 1.376 . S
C166 C167 1.446 . S
C166 C196 1.391 . S
C167 C166 1.446 . S
C167 C168 1.339 . S
C167 H202 0.949 . S
C168 C167 1.339 . S
C168 C169 1.439 . S
C168 H203 0.950 . S
C169 N165 1.383 . S
C169 C168 1.439 . S
C169 C198 1.392 . S
N170 Co164 2.008 . S
N170 C171 1.376 . S
N170 C174 1.374 . S
C171 N170 1.376 . S
C171 C172 1.443 . S
C171 C198 1.389 . S
C172 C171 1.443 . S
C172 C173 1.340 . S
C172 H204 0.951 . S
C173 C172 1.340 . S
C173 C174 1.439 . S
C173 H205 0.950 . S
C174 N170 1.374 . S
C174 C173 1.439 . S
C174 C199 1.395 . S
N175 Co164 1.995 . S
N175 C176 1.376 . S
N175 C179 1.383 . S
C176 N175 1.376 . S
C176 C177 1.446 . S
C176 C199 1.391 . S
C177 C176 1.446 . S
C177 C178 1.339 . S
C177 H206 0.949 . S
C178 C177 1.339 . S
C178 C179 1.439 . S
C178 H207 0.950 . S
C179 N175 1.383 . S
C179 C178 1.439 . S
C179 C197 1.392 . S
N180 Co164 2.282 . S
N180 C183 1.332 . S
N180 C185 1.332 . S
C181 C182 1.386 . S
C181 C184 1.388 . S
C182 C181 1.386 . S
C182 C183 1.382 . S
C182 H208 0.950 . S
C183 N180 1.332 . S
C183 C182 1.382 . S
C183 H194 0.952 . S
C184 C181 1.388 . S
C184 C185 1.382 . S
C184 H209 0.950 . S
C185 N180 1.332 . S
C185 C184 1.382 . S
C185 H195 0.948 . S
N186 Co164 2.282 . S
N186 C190 1.332 . S
N186 C191 1.332 . S
C187 C188 1.388 . S
C187 C191 1.382 . S
C187 H210 0.950 . S
C188 C187 1.388 . S
C188 C189 1.386 . S
C189 C188 1.386 . S
C189 C190 1.382 . S
C189 H211 0.950 1_455 S
C190 N186 1.332 . S
C190 C189 1.382 . S
C190 H192 0.952 . S
C191 N186 1.332 . S
C191 C187 1.382 . S
C191 H193 0.948 . S
H192 C190 0.952 . S
H193 C191 0.948 . S
H194 C183 0.952 . S
H195 C185 0.948 . S
C196 C162 1.395 . S
C196 C166 1.391 . S
C197 C159 1.389 . S
C197 C179 1.392 . S
C198 C169 1.392 . S
C198 C171 1.389 . S
C199 C174 1.395 . S
C199 C176 1.391 . S
H200 C160 0.951 . S
H201 C161 0.950 . S
H202 C167 0.949 . S
H203 C168 0.950 . S
H204 C172 0.951 . S
H205 C173 0.950 . S
H206 C177 0.949 . S
H207 C178 0.950 . S
H208 C182 0.950 . S
H209 C184 0.950 . S
H210 C187 0.950 . S
H211 C189 0.950 1_655 S
C212 C213 1.443 . S
C212 N216 1.376 1_565 S
C212 C250 1.389 . S
C213 C212 1.443 . S
C213 C214 1.340 1_565 S
C213 H253 0.951 . S
C214 C213 1.340 1_545 S
C214 C215 1.439 . S
C214 H254 0.950 . S
C215 C214 1.439 . S
C215 N216 1.374 . S
C215 C249 1.395 . S
N216 C212 1.376 1_545 S
N216 C215 1.374 . S
N216 Co217 2.008 . S
Co217 N216 2.008 . S
Co217 N218 1.995 . S
Co217 N223 2.008 1_554 S
Co217 N228 1.995 1_544 S
Co217 N233 2.282 1_554 S
Co217 N239 2.282 1_545 S
N218 Co217 1.995 . S
N218 C219 1.376 . S
N218 C222 1.383 1_554 S
C219 N218 1.376 . S
C219 C220 1.446 . S
C219 C249 1.391 . S
C220 C219 1.446 . S
C220 C221 1.339 . S
C220 H255 0.949 . S
C221 C220 1.339 . S
C221 C222 1.439 1_554 S
C221 H256 0.950 1_554 S
C222 N218 1.383 1_556 S
C222 C221 1.439 1_556 S
C222 C251 1.392 . S
N223 Co217 2.008 1_556 S
N223 C224 1.376 . S
N223 C227 1.374 1_545 S
C224 N223 1.376 . S
C224 C225 1.443 . S
C224 C251 1.389 . S
C225 C224 1.443 . S
C225 C226 1.340 . S
C225 H257 0.951 . S
C226 C225 1.340 . S
C226 C227 1.439 1_545 S
C226 H258 0.944 1_545 S
C227 N223 1.374 1_565 S
C227 C226 1.439 1_565 S
C227 C252 1.395 . S
N228 Co217 1.995 1_566 S
N228 C229 1.376 . S
N228 C232 1.383 1_556 S
C229 N228 1.376 . S
C229 C230 1.446 . S
C229 C252 1.391 . S
C230 C229 1.446 . S
C230 C231 1.339 . S
C230 H259 0.949 . S
C231 C230 1.339 . S
C231 C232 1.439 1_556 S
C231 H260 0.950 1_556 S
C232 N228 1.383 1_554 S
C232 C231 1.439 1_554 S
C232 C250 1.392 . S
N233 Co217 2.282 1_556 S
N233 C236 1.332 . S
N233 C238 1.332 . S
C234 C235 1.386 . S
C234 C237 1.388 . S
C235 C234 1.386 . S
C235 C236 1.382 . S
C235 H261 0.950 . S
C236 N233 1.332 . S
C236 C235 1.382 . S
C236 H247 0.952 . S
C237 C234 1.388 . S
C237 C238 1.382 . S
C237 H262 0.950 . S
C238 N233 1.332 . S
C238 C237 1.382 . S
C238 H248 0.948 1_556 S
N239 Co217 2.282 1_565 S
N239 C243 1.332 . S
N239 C244 1.332 . S
C240 C241 1.388 . S
C240 C244 1.382 . S
C240 H263 0.950 . S
C241 C240 1.388 . S
C241 C242 1.386 . S
C242 C241 1.386 . S
C242 C243 1.382 . S
C242 H264 0.950 . S
C243 N239 1.332 . S
C243 C242 1.382 . S
C243 H245 0.952 1_565 S
C244 N239 1.332 . S
C244 C240 1.382 . S
C244 H246 0.951 . S
H245 C243 0.952 1_545 S
H246 C244 0.951 . S
H247 C236 0.952 . S
H248 C238 0.948 1_554 S
C249 C215 1.395 . S
C249 C219 1.391 . S
C250 C212 1.389 . S
C250 C232 1.392 . S
C251 C222 1.392 . S
C251 C224 1.389 . S
C252 C227 1.395 . S
C252 C229 1.391 . S
H253 C213 0.951 . S
H254 C214 0.950 . S
H255 C220 0.949 . S
H256 C221 0.950 1_556 S
H257 C225 0.951 . S
H258 C226 0.944 1_565 S
H259 C230 0.949 . S
H260 C231 0.950 1_554 S
H261 C235 0.950 . S
H262 C237 0.950 . S
H263 C240 0.950 . S
H264 C242 0.950 . S
C265 C266 1.443 . S
C265 N269 1.376 . S
C265 C303 1.389 . S
C266 C265 1.443 . S
C266 C267 1.340 . S
C266 H306 0.951 . S
C267 C266 1.340 . S
C267 C268 1.439 . S
C267 H307 0.950 . S
C268 C267 1.439 . S
C268 N269 1.374 . S
C268 C302 1.395 . S
N269 C265 1.376 . S
N269 C268 1.374 . S
N269 Co270 2.008 . S
Co270 N269 2.008 . S
Co270 N271 1.995 . S
Co270 N276 2.008 . S
Co270 N281 1.995 . S
Co270 N286 2.282 . S
Co270 N292 2.282 . S
N271 Co270 1.995 . S
N271 C272 1.376 . S
N271 C275 1.383 . S
C272 N271 1.376 . S
C272 C273 1.446 . S
C272 C302 1.391 . S
C273 C272 1.446 . S
C273 C274 1.339 . S
C273 H308 0.949 . S
C274 C273 1.339 . S
C274 C275 1.439 . S
C274 H309 0.950 . S
C275 N271 1.383 . S
C275 C274 1.439 . S
C275 C304 1.392 . S
N276 Co270 2.008 . S
N276 C277 1.376 . S
N276 C280 1.374 . S
C277 N276 1.376 . S
C277 C278 1.443 . S
C277 C304 1.389 . S
C278 C277 1.443 . S
C278 C279 1.340 . S
C278 H310 0.951 . S
C279 C278 1.340 . S
C279 C280 1.439 . S
C279 H311 0.950 . S
C280 N276 1.374 . S
C280 C279 1.439 . S
C280 C305 1.395 . S
N281 Co270 1.995 . S
N281 C282 1.376 . S
N281 C285 1.383 . S
C282 N281 1.376 . S
C282 C283 1.446 . S
C282 C305 1.391 . S
C283 C282 1.446 . S
C283 C284 1.339 . S
C283 H312 0.949 . S
C284 C283 1.339 . S
C284 C285 1.439 . S
C284 H313 0.950 . S
C285 N281 1.383 . S
C285 C284 1.439 . S
C285 C303 1.392 . S
N286 Co270 2.282 . S
N286 C289 1.332 . S
N286 C291 1.332 . S
C287 C288 1.386 . S
C287 C290 1.388 . S
C288 C287 1.386 . S
C288 C289 1.382 . S
C288 H314 0.950 . S
C289 N286 1.332 . S
C289 C288 1.382 . S
C289 H300 0.952 . S
C290 C287 1.388 . S
C290 C291 1.382 . S
C290 H315 0.950 . S
C291 N286 1.332 . S
C291 C290 1.382 . S
C291 H301 0.948 . S
N292 Co270 2.282 . S
N292 C296 1.332 . S
N292 C297 1.332 . S
C293 C294 1.388 . S
C293 C297 1.382 . S
C293 H316 0.950 . S
C294 C293 1.388 . S
C294 C295 1.386 . S
C295 C294 1.386 . S
C295 C296 1.382 . S
C295 H317 0.950 . S
C296 N292 1.332 . S
C296 C295 1.382 . S
C296 H298 0.952 . S
C297 N292 1.332 . S
C297 C293 1.382 . S
C297 H299 0.948 . S
H298 C296 0.952 . S
H299 C297 0.948 . S
H300 C289 0.952 . S
H301 C291 0.948 . S
C302 C268 1.395 . S
C302 C272 1.391 . S
C303 C265 1.389 . S
C303 C285 1.392 . S
C304 C275 1.392 . S
C304 C277 1.389 . S
C305 C280 1.395 . S
C305 C282 1.391 . S
H306 C266 0.951 . S
H307 C267 0.950 . S
H308 C273 0.949 . S
H309 C274 0.950 . S
H310 C278 0.951 . S
H311 C279 0.950 . S
H312 C283 0.949 . S
H313 C284 0.950 . S
H314 C288 0.950 . S
H315 C290 0.950 . S
H316 C293 0.950 . S
H317 C295 0.950 . S
H318 C345 0.929 . S
N319 C344 1.433 . S
N319 C350 1.435 . S
N319 C356 1.423 . S
H320 C346 0.930 . S
H321 C349 0.931 . S
H322 C348 0.929 . S
H323 C351 0.930 . S
H324 C352 0.932 . S
H325 C355 0.929 . S
H326 C354 0.931 . S
H327 C357 0.929 . S
H328 C361 0.932 . S
H329 C358 0.931 . S
H330 C360 0.929 . S
H331 C363 0.929 . S
H332 C364 0.930 . S
H333 C366 0.929 . S
H334 C367 0.931 . S
H335 C369 0.930 . S
H336 C370 0.932 . S
H337 C372 0.931 . S
H338 C373 0.929 . S
H339 C375 0.929 . S
H340 C376 0.931 . S
H341 C378 0.929 . S
N342 C362 1.433 . S
N342 C368 1.435 . S
N342 C374 1.423 . S
H343 C379 0.932 . S
C344 N319 1.433 . S
C344 C345 1.363 . S
C344 C349 1.370 . S
C345 H318 0.929 . S
C345 C344 1.363 . S
C345 C346 1.385 . S
C346 H320 0.930 . S
C346 C345 1.385 . S
C346 C347 1.357 . S
C347 C346 1.357 . S
C347 C348 1.406 . S
C348 H322 0.929 . S
C348 C347 1.406 . S
C348 C349 1.391 . S
C349 H321 0.931 . S
C349 C344 1.370 . S
C349 C348 1.391 . S
C350 N319 1.435 . S
C350 C351 1.358 . S
C350 C355 1.371 . S
C351 H323 0.930 . S
C351 C350 1.358 . S
C351 C352 1.405 . S
C352 H324 0.932 . S
C352 C351 1.405 . S
C352 C353 1.383 . S
C353 C352 1.383 . S
C353 C354 1.393 . S
C354 H326 0.931 . S
C354 C353 1.393 . S
C354 C355 1.382 . S
C355 H325 0.929 . S
C355 C350 1.371 . S
C355 C354 1.382 . S
C356 N319 1.423 . S
C356 C357 1.362 . S
C356 C361 1.388 . S
C357 H327 0.929 . S
C357 C356 1.362 . S
C357 C358 1.376 . S
C358 H329 0.931 . S
C358 C357 1.376 . S
C358 C359 1.396 . S
C359 C358 1.396 . S
C359 C360 1.348 . S
C359 C377 1.472 . S
C360 H330 0.929 . S
C360 C359 1.348 . S
C360 C361 1.443 . S
C361 H328 0.932 . S
C361 C356 1.388 . S
C361 C360 1.443 . S
C362 N342 1.433 . S
C362 C363 1.363 . S
C362 C367 1.370 . S
C363 H331 0.929 . S
C363 C362 1.363 . S
C363 C364 1.385 . S
C364 H332 0.930 . S
C364 C363 1.385 . S
C364 C365 1.357 . S
C365 C364 1.357 . S
C365 C366 1.406 . S
C366 H333 0.929 . S
C366 C365 1.406 . S
C366 C367 1.391 . S
C367 H334 0.931 . S
C367 C362 1.370 . S
C367 C366 1.391 . S
C368 N342 1.435 . S
C368 C369 1.358 . S
C368 C373 1.371 . S
C369 H335 0.930 . S
C369 C368 1.358 . S
C369 C370 1.405 . S
C370 H336 0.932 . S
C370 C369 1.405 . S
C370 C371 1.383 . S
C371 C370 1.383 . S
C371 C372 1.393 . S
C372 H337 0.931 . S
C372 C371 1.393 . S
C372 C373 1.382 . S
C373 H338 0.929 . S
C373 C368 1.371 . S
C373 C372 1.382 . S
C374 N342 1.423 . S
C374 C375 1.362 . S
C374 C379 1.388 . S
C375 H339 0.929 . S
C375 C374 1.362 . S
C375 C376 1.376 . S
C376 H340 0.931 . S
C376 C375 1.376 . S
C376 C377 1.396 . S
C377 C359 1.472 . S
C377 C376 1.396 . S
C377 C378 1.348 . S
C378 H341 0.929 . S
C378 C377 1.348 . S
C378 C379 1.443 . S
C379 H343 0.932 . S
C379 C374 1.388 . S
C379 C378 1.443 . S
H380 C407 0.929 . S
N381 C406 1.433 . S
N381 C412 1.435 . S
N381 C418 1.423 . S
H382 C408 0.930 . S
H383 C411 0.931 . S
H384 C410 0.929 . S
H385 C413 0.930 . S
H386 C414 0.932 . S
H387 C417 0.929 . S
H388 C416 0.931 . S
H389 C419 0.929 . S
H390 C423 0.932 . S
H391 C420 0.931 . S
H392 C422 0.929 . S
H393 C425 0.929 . S
H394 C426 0.930 . S
H395 C428 0.929 . S
H396 C429 0.931 . S
H397 C431 0.930 . S
H398 C432 0.932 . S
H399 C434 0.931 . S
H400 C435 0.929 . S
H401 C437 0.929 . S
H402 C438 0.931 . S
H403 C440 0.929 . S
N404 C424 1.433 . S
N404 C430 1.435 . S
N404 C436 1.423 . S
H405 C441 0.932 . S
C406 N381 1.433 . S
C406 C407 1.363 . S
C406 C411 1.370 . S
C407 H380 0.929 . S
C407 C406 1.363 . S
C407 C408 1.385 . S
C408 H382 0.930 . S
C408 C407 1.385 . S
C408 C409 1.357 . S
C409 C408 1.357 . S
C409 C410 1.406 . S
C410 H384 0.929 . S
C410 C409 1.406 . S
C410 C411 1.391 . S
C411 H383 0.931 . S
C411 C406 1.370 . S
C411 C410 1.391 . S
C412 N381 1.435 . S
C412 C413 1.358 . S
C412 C417 1.371 . S
C413 H385 0.930 . S
C413 C412 1.358 . S
C413 C414 1.405 . S
C414 H386 0.932 . S
C414 C413 1.405 . S
C414 C415 1.383 . S
C415 C414 1.383 . S
C415 C416 1.393 . S
C416 H388 0.931 . S
C416 C415 1.393 . S
C416 C417 1.382 . S
C417 H387 0.929 . S
C417 C412 1.371 . S
C417 C416 1.382 . S
C418 N381 1.423 . S
C418 C419 1.362 . S
C418 C423 1.388 . S
C419 H389 0.929 . S
C419 C418 1.362 . S
C419 C420 1.376 . S
C420 H391 0.931 . S
C420 C419 1.376 . S
C420 C421 1.396 . S
C421 C420 1.396 . S
C421 C422 1.348 . S
C421 C439 1.472 . S
C422 H392 0.929 . S
C422 C421 1.348 . S
C422 C423 1.443 . S
C423 H390 0.932 . S
C423 C418 1.388 . S
C423 C422 1.443 . S
C424 N404 1.433 . S
C424 C425 1.363 . S
C424 C429 1.370 . S
C425 H393 0.929 . S
C425 C424 1.363 . S
C425 C426 1.385 . S
C426 H394 0.930 . S
C426 C425 1.385 . S
C426 C427 1.357 . S
C427 C426 1.357 . S
C427 C428 1.406 . S
C428 H395 0.929 . S
C428 C427 1.406 . S
C428 C429 1.391 . S
C429 H396 0.931 . S
C429 C424 1.370 . S
C429 C428 1.391 . S
C430 N404 1.435 . S
C430 C431 1.358 . S
C430 C435 1.371 . S
C431 H397 0.930 . S
C431 C430 1.358 . S
C431 C432 1.405 . S
C432 H398 0.932 . S
C432 C431 1.405 . S
C432 C433 1.383 . S
C433 C432 1.383 . S
C433 C434 1.393 . S
C434 H399 0.931 . S
C434 C433 1.393 . S
C434 C435 1.382 . S
C435 H400 0.929 . S
C435 C430 1.371 . S
C435 C434 1.382 . S
C436 N404 1.423 . S
C436 C437 1.362 . S
C436 C441 1.388 . S
C437 H401 0.929 . S
C437 C436 1.362 . S
C437 C438 1.376 . S
C438 H402 0.931 . S
C438 C437 1.376 . S
C438 C439 1.396 . S
C439 C421 1.472 . S
C439 C438 1.396 . S
C439 C440 1.348 . S
C440 H403 0.929 . S
C440 C439 1.348 . S
C440 C441 1.443 . S
C441 H405 0.932 . S
C441 C436 1.388 . S
C441 C440 1.443 . S
H442 C469 0.929 . S
N443 C468 1.433 . S
N443 C474 1.435 . S
N443 C480 1.423 . S
H444 C470 0.930 . S
H445 C473 0.931 . S
H446 C472 0.929 . S
H447 C475 0.930 . S
H448 C476 0.932 . S
H449 C479 0.929 . S
H450 C478 0.931 . S
H451 C481 0.929 . S
H452 C485 0.932 . S
H453 C482 0.931 . S
H454 C484 0.929 . S
H455 C487 0.929 . S
H456 C488 0.930 . S
H457 C490 0.929 . S
H458 C491 0.931 . S
H459 C493 0.930 . S
H460 C494 0.932 . S
H461 C496 0.931 . S
H462 C497 0.929 . S
H463 C499 0.929 . S
H464 C500 0.931 . S
H465 C502 0.929 . S
N466 C486 1.433 . S
N466 C492 1.435 . S
N466 C498 1.423 . S
H467 C503 0.932 . S
C468 N443 1.433 . S
C468 C469 1.363 . S
C468 C473 1.370 . S
C469 H442 0.929 . S
C469 C468 1.363 . S
C469 C470 1.385 . S
C470 H444 0.930 . S
C470 C469 1.385 . S
C470 C471 1.357 . S
C471 C470 1.357 . S
C471 C472 1.406 . S
C472 H446 0.929 . S
C472 C471 1.406 . S
C472 C473 1.391 . S
C473 H445 0.931 . S
C473 C468 1.370 . S
C473 C472 1.391 . S
C474 N443 1.435 . S
C474 C475 1.358 . S
C474 C479 1.371 . S
C475 H447 0.930 . S
C475 C474 1.358 . S
C475 C476 1.405 . S
C476 H448 0.932 . S
C476 C475 1.405 . S
C476 C477 1.383 . S
C477 C476 1.383 . S
C477 C478 1.393 . S
C478 H450 0.931 . S
C478 C477 1.393 . S
C478 C479 1.382 . S
C479 H449 0.929 . S
C479 C474 1.371 . S
C479 C478 1.382 . S
C480 N443 1.423 . S
C480 C481 1.362 . S
C480 C485 1.388 . S
C481 H451 0.929 . S
C481 C480 1.362 . S
C481 C482 1.376 . S
C482 H453 0.931 . S
C482 C481 1.376 . S
C482 C483 1.396 . S
C483 C482 1.396 . S
C483 C484 1.348 . S
C483 C501 1.472 . S
C484 H454 0.929 . S
C484 C483 1.348 . S
C484 C485 1.443 . S
C485 H452 0.932 . S
C485 C480 1.388 . S
C485 C484 1.443 . S
C486 N466 1.433 . S
C486 C487 1.363 . S
C486 C491 1.370 . S
C487 H455 0.929 . S
C487 C486 1.363 . S
C487 C488 1.385 . S
C488 H456 0.930 . S
C488 C487 1.385 . S
C488 C489 1.357 . S
C489 C488 1.357 . S
C489 C490 1.406 . S
C490 H457 0.929 . S
C490 C489 1.406 . S
C490 C491 1.391 . S
C491 H458 0.931 . S
C491 C486 1.370 . S
C491 C490 1.391 . S
C492 N466 1.435 . S
C492 C493 1.358 . S
C492 C497 1.371 . S
C493 H459 0.930 . S
C493 C492 1.358 . S
C493 C494 1.405 . S
C494 H460 0.932 . S
C494 C493 1.405 . S
C494 C495 1.383 . S
C495 C494 1.383 . S
C495 C496 1.393 . S
C496 H461 0.931 . S
C496 C495 1.393 . S
C496 C497 1.382 . S
C497 H462 0.929 . S
C497 C492 1.371 . S
C497 C496 1.382 . S
C498 N466 1.423 . S
C498 C499 1.362 . S
C498 C503 1.388 . S
C499 H463 0.929 . S
C499 C498 1.362 . S
C499 C500 1.376 . S
C500 H464 0.931 . S
C500 C499 1.376 . S
C500 C501 1.396 . S
C501 C483 1.472 . S
C501 C500 1.396 . S
C501 C502 1.348 . S
C502 H465 0.929 . S
C502 C501 1.348 . S
C502 C503 1.443 . S
C503 H467 0.932 . S
C503 C498 1.388 . S
C503 C502 1.443 . S
H504 C531 0.929 . S
N505 C530 1.433 . S
N505 C536 1.435 . S
N505 C542 1.423 . S
H506 C532 0.930 . S
H507 C535 0.931 . S
H508 C534 0.929 . S
H509 C537 0.930 . S
H510 C538 0.932 . S
H511 C541 0.929 . S
H512 C540 0.931 . S
H513 C543 0.929 . S
H514 C547 0.932 . S
H515 C544 0.931 . S
H516 C546 0.929 . S
H517 C549 0.929 . S
H518 C550 0.930 . S
H519 C552 0.929 . S
H520 C553 0.931 . S
H521 C555 0.930 . S
H522 C556 0.932 . S
H523 C558 0.931 . S
H524 C559 0.929 . S
H525 C561 0.929 . S
H526 C562 0.931 . S
H527 C564 0.929 . S
N528 C548 1.433 . S
N528 C554 1.435 . S
N528 C560 1.423 . S
H529 C565 0.932 . S
C530 N505 1.433 . S
C530 C531 1.363 . S
C530 C535 1.370 . S
C531 H504 0.929 . S
C531 C530 1.363 . S
C531 C532 1.385 . S
C532 H506 0.930 . S
C532 C531 1.385 . S
C532 C533 1.357 . S
C533 C532 1.357 . S
C533 C534 1.406 . S
C534 H508 0.929 . S
C534 C533 1.406 . S
C534 C535 1.391 . S
C535 H507 0.931 . S
C535 C530 1.370 . S
C535 C534 1.391 . S
C536 N505 1.435 . S
C536 C537 1.358 . S
C536 C541 1.371 . S
C537 H509 0.930 . S
C537 C536 1.358 . S
C537 C538 1.405 . S
C538 H510 0.932 . S
C538 C537 1.405 . S
C538 C539 1.383 . S
C539 C538 1.383 . S
C539 C540 1.393 . S
C540 H512 0.931 . S
C540 C539 1.393 . S
C540 C541 1.382 . S
C541 H511 0.929 . S
C541 C536 1.371 . S
C541 C540 1.382 . S
C542 N505 1.423 . S
C542 C543 1.362 . S
C542 C547 1.388 . S
C543 H513 0.929 . S
C543 C542 1.362 . S
C543 C544 1.376 . S
C544 H515 0.931 . S
C544 C543 1.376 . S
C544 C545 1.396 . S
C545 C544 1.396 . S
C545 C546 1.348 . S
C545 C563 1.472 . S
C546 H516 0.929 . S
C546 C545 1.348 . S
C546 C547 1.443 . S
C547 H514 0.932 . S
C547 C542 1.388 . S
C547 C546 1.443 . S
C548 N528 1.433 . S
C548 C549 1.363 . S
C548 C553 1.370 . S
C549 H517 0.929 . S
C549 C548 1.363 . S
C549 C550 1.385 . S
C550 H518 0.930 . S
C550 C549 1.385 . S
C550 C551 1.357 . S
C551 C550 1.357 . S
C551 C552 1.406 . S
C552 H519 0.929 . S
C552 C551 1.406 . S
C552 C553 1.391 . S
C553 H520 0.931 . S
C553 C548 1.370 . S
C553 C552 1.391 . S
C554 N528 1.435 . S
C554 C555 1.358 . S
C554 C559 1.371 . S
C555 H521 0.930 . S
C555 C554 1.358 . S
C555 C556 1.405 . S
C556 H522 0.932 . S
C556 C555 1.405 . S
C556 C557 1.383 . S
C557 C556 1.383 . S
C557 C558 1.393 . S
C558 H523 0.931 . S
C558 C557 1.393 . S
C558 C559 1.382 . S
C559 H524 0.929 . S
C559 C554 1.371 . S
C559 C558 1.382 . S
C560 N528 1.423 . S
C560 C561 1.362 . S
C560 C565 1.388 . S
C561 H525 0.929 . S
C561 C560 1.362 . S
C561 C562 1.376 . S
C562 H526 0.931 . S
C562 C561 1.376 . S
C562 C563 1.396 . S
C563 C545 1.472 . S
C563 C562 1.396 . S
C563 C564 1.348 . S
C564 H527 0.929 . S
C564 C563 1.348 . S
C564 C565 1.443 . S
C565 H529 0.932 . S
C565 C560 1.388 . S
C565 C564 1.443 . S
H566 C593 0.929 . S
N567 C592 1.433 . S
N567 C598 1.435 . S
N567 C604 1.423 . S
H568 C594 0.930 . S
H569 C597 0.931 . S
H570 C596 0.929 . S
H571 C599 0.930 . S
H572 C600 0.932 . S
H573 C603 0.929 . S
H574 C602 0.931 . S
H575 C605 0.929 . S
H576 C609 0.932 . S
H577 C606 0.931 . S
H578 C608 0.929 . S
H579 C611 0.929 . S
H580 C612 0.930 . S
H581 C614 0.929 . S
H582 C615 0.931 . S
H583 C617 0.930 . S
H584 C618 0.932 . S
H585 C620 0.931 . S
H586 C621 0.929 . S
H587 C623 0.929 . S
H588 C624 0.931 . S
H589 C626 0.929 . S
N590 C610 1.433 . S
N590 C616 1.435 . S
N590 C622 1.423 . S
H591 C627 0.932 . S
C592 N567 1.433 . S
C592 C593 1.363 . S
C592 C597 1.370 . S
C593 H566 0.929 . S
C593 C592 1.363 . S
C593 C594 1.385 . S
C594 H568 0.930 . S
C594 C593 1.385 . S
C594 C595 1.357 . S
C595 C594 1.357 . S
C595 C596 1.406 . S
C596 H570 0.929 . S
C596 C595 1.406 . S
C596 C597 1.391 . S
C597 H569 0.931 . S
C597 C592 1.370 . S
C597 C596 1.391 . S
C598 N567 1.435 . S
C598 C599 1.358 . S
C598 C603 1.371 . S
C599 H571 0.930 . S
C599 C598 1.358 . S
C599 C600 1.405 . S
C600 H572 0.932 . S
C600 C599 1.405 . S
C600 C601 1.383 . S
C601 C600 1.383 . S
C601 C602 1.393 . S
C602 H574 0.931 . S
C602 C601 1.393 . S
C602 C603 1.382 . S
C603 H573 0.929 . S
C603 C598 1.371 . S
C603 C602 1.382 . S
C604 N567 1.423 . S
C604 C605 1.362 . S
C604 C609 1.388 . S
C605 H575 0.929 . S
C605 C604 1.362 . S
C605 C606 1.376 . S
C606 H577 0.931 . S
C606 C605 1.376 . S
C606 C607 1.396 . S
C607 C606 1.396 . S
C607 C608 1.348 . S
C607 C625 1.472 . S
C608 H578 0.929 . S
C608 C607 1.348 . S
C608 C609 1.443 . S
C609 H576 0.932 . S
C609 C604 1.388 . S
C609 C608 1.443 . S
C610 N590 1.433 . S
C610 C611 1.363 . S
C610 C615 1.370 . S
C611 H579 0.929 . S
C611 C610 1.363 . S
C611 C612 1.385 . S
C612 H580 0.930 . S
C612 C611 1.385 . S
C612 C613 1.357 . S
C613 C612 1.357 . S
C613 C614 1.406 . S
C614 H581 0.929 . S
C614 C613 1.406 . S
C614 C615 1.391 . S
C615 H582 0.931 . S
C615 C610 1.370 . S
C615 C614 1.391 . S
C616 N590 1.435 . S
C616 C617 1.358 . S
C616 C621 1.371 . S
C617 H583 0.930 . S
C617 C616 1.358 . S
C617 C618 1.405 . S
C618 H584 0.932 . S
C618 C617 1.405 . S
C618 C619 1.383 . S
C619 C618 1.383 . S
C619 C620 1.393 . S
C620 H585 0.931 . S
C620 C619 1.393 . S
C620 C621 1.382 . S
C621 H586 0.929 . S
C621 C616 1.371 . S
C621 C620 1.382 . S
C622 N590 1.423 . S
C622 C623 1.362 . S
C622 C627 1.388 . S
C623 H587 0.929 . S
C623 C622 1.362 . S
C623 C624 1.376 . S
C624 H588 0.931 . S
C624 C623 1.376 . S
C624 C625 1.396 . S
C625 C607 1.472 . S
C625 C624 1.396 . S
C625 C626 1.348 . S
C626 H589 0.929 . S
C626 C625 1.348 . S
C626 C627 1.443 . S
C627 H591 0.932 . S
C627 C622 1.388 . S
C627 C626 1.443 . S
H628 C655 0.929 . S
N629 C654 1.433 . S
N629 C660 1.435 . S
N629 C666 1.423 . S
H630 C656 0.930 . S
H631 C659 0.931 . S
H632 C658 0.929 . S
H633 C661 0.930 . S
H634 C662 0.932 . S
H635 C665 0.929 . S
H636 C664 0.931 . S
H637 C667 0.929 . S
H638 C671 0.932 . S
H639 C668 0.931 . S
H640 C670 0.929 . S
H641 C673 0.929 . S
H642 C674 0.930 . S
H643 C676 0.929 . S
H644 C677 0.931 . S
H645 C679 0.930 . S
H646 C680 0.932 . S
H647 C682 0.931 . S
H648 C683 0.929 . S
H649 C685 0.929 . S
H650 C686 0.931 . S
H651 C688 0.929 . S
N652 C672 1.433 . S
N652 C678 1.435 . S
N652 C684 1.423 . S
H653 C689 0.932 . S
C654 N629 1.433 . S
C654 C655 1.363 . S
C654 C659 1.370 . S
C655 H628 0.929 . S
C655 C654 1.363 . S
C655 C656 1.385 . S
C656 H630 0.930 . S
C656 C655 1.385 . S
C656 C657 1.357 . S
C657 C656 1.357 . S
C657 C658 1.406 . S
C658 H632 0.929 . S
C658 C657 1.406 . S
C658 C659 1.391 . S
C659 H631 0.931 . S
C659 C654 1.370 . S
C659 C658 1.391 . S
C660 N629 1.435 . S
C660 C661 1.358 . S
C660 C665 1.371 . S
C661 H633 0.930 . S
C661 C660 1.358 . S
C661 C662 1.405 . S
C662 H634 0.932 . S
C662 C661 1.405 . S
C662 C663 1.383 . S
C663 C662 1.383 . S
C663 C664 1.393 . S
C664 H636 0.931 . S
C664 C663 1.393 . S
C664 C665 1.382 . S
C665 H635 0.929 . S
C665 C660 1.371 . S
C665 C664 1.382 . S
C666 N629 1.423 . S
C666 C667 1.362 . S
C666 C671 1.388 . S
C667 H637 0.929 . S
C667 C666 1.362 . S
C667 C668 1.376 . S
C668 H639 0.931 . S
C668 C667 1.376 . S
C668 C669 1.396 . S
C669 C668 1.396 . S
C669 C670 1.348 . S
C669 C687 1.472 . S
C670 H640 0.929 . S
C670 C669 1.348 . S
C670 C671 1.443 . S
C671 H638 0.932 . S
C671 C666 1.388 . S
C671 C670 1.443 . S
C672 N652 1.433 . S
C672 C673 1.363 . S
C672 C677 1.370 . S
C673 H641 0.929 . S
C673 C672 1.363 . S
C673 C674 1.385 . S
C674 H642 0.930 . S
C674 C673 1.385 . S
C674 C675 1.357 . S
C675 C674 1.357 . S
C675 C676 1.406 . S
C676 H643 0.929 . S
C676 C675 1.406 . S
C676 C677 1.391 . S
C677 H644 0.931 . S
C677 C672 1.370 . S
C677 C676 1.391 . S
C678 N652 1.435 . S
C678 C679 1.358 . S
C678 C683 1.371 . S
C679 H645 0.930 . S
C679 C678 1.358 . S
C679 C680 1.405 . S
C680 H646 0.932 . S
C680 C679 1.405 . S
C680 C681 1.383 . S
C681 C680 1.383 . S
C681 C682 1.393 . S
C682 H647 0.931 . S
C682 C681 1.393 . S
C682 C683 1.382 . S
C683 H648 0.929 . S
C683 C678 1.371 . S
C683 C682 1.382 . S
C684 N652 1.423 . S
C684 C685 1.362 . S
C684 C689 1.388 . S
C685 H649 0.929 . S
C685 C684 1.362 . S
C685 C686 1.376 . S
C686 H650 0.931 . S
C686 C685 1.376 . S
C686 C687 1.396 . S
C687 C669 1.472 . S
C687 C686 1.396 . S
C687 C688 1.348 . S
C688 H651 0.929 . S
C688 C687 1.348 . S
C688 C689 1.443 . S
C689 H653 0.932 . S
C689 C684 1.388 . S
C689 C688 1.443 . S
C690 C691 1.391 . S
C690 C692 1.394 . S
C690 H706 0.931 . S
C691 C690 1.391 . S
C691 C695 1.376 . S
C692 C690 1.394 . S
C692 C693 1.369 . S
C692 C696 1.531 . S
C693 C692 1.369 . S
C693 C694 1.410 . S
C693 C701 1.503 . S
C694 C693 1.410 . S
C694 C695 1.392 . S
C694 C697 1.511 . S
C695 C691 1.376 . S
C695 C694 1.392 . S
C695 H707 0.929 . S
C696 C692 1.531 . S
C696 H708 0.960 . S
C696 H709 0.962 . S
C696 H710 0.960 . S
C697 C694 1.511 . S
C697 H711 0.961 . S
C697 H712 0.961 . S
C697 H713 0.961 . S
C698 C699 1.370 . S
C698 C700 1.363 . S
C698 H714 0.931 . S
C699 C698 1.370 . S
C699 C703 1.408 . S
C700 C698 1.363 . S
C700 C701 1.370 . S
C700 C704 1.524 . S
C701 C693 1.503 . S
C701 C700 1.370 . S
C701 C702 1.403 . S
C702 C701 1.403 . S
C702 C703 1.404 . S
C702 C705 1.539 . S
C703 C699 1.408 . S
C703 C702 1.404 . S
C703 H715 0.930 . S
C704 C700 1.524 . S
C704 H716 0.956 . S
C704 H717 0.961 . S
C704 H718 0.961 . S
C705 C702 1.539 . S
C705 H719 0.958 . S
C705 H720 0.961 . S
C705 H721 0.960 . S
H706 C690 0.931 . S
H707 C695 0.929 . S
H708 C696 0.960 . S
H709 C696 0.962 . S
H710 C696 0.960 . S
H711 C697 0.961 . S
H712 C697 0.961 . S
H713 C697 0.961 . S
H714 C698 0.931 . S
H715 C703 0.930 . S
H716 C704 0.956 . S
H717 C704 0.961 . S
H718 C704 0.961 . S
H719 C705 0.958 . S
H720 C705 0.961 . S
H721 C705 0.960 . S
C722 C723 1.391 . S
C722 C724 1.394 . S
C722 H738 0.931 . S
C723 C722 1.391 . S
C723 C727 1.376 . S
C724 C722 1.394 . S
C724 C725 1.369 . S
C724 C728 1.531 . S
C725 C724 1.369 . S
C725 C726 1.410 . S
C725 C733 1.503 . S
C726 C725 1.410 . S
C726 C727 1.392 . S
C726 C729 1.511 . S
C727 C723 1.376 . S
C727 C726 1.392 . S
C727 H739 0.929 . S
C728 C724 1.531 . S
C728 H740 0.960 . S
C728 H741 0.962 . S
C728 H742 0.960 . S
C729 C726 1.511 . S
C729 H743 0.961 . S
C729 H744 0.961 . S
C729 H745 0.961 . S
C730 C731 1.370 . S
C730 C732 1.363 . S
C730 H746 0.931 . S
C731 C730 1.370 . S
C731 C735 1.408 . S
C732 C730 1.363 . S
C732 C733 1.370 . S
C732 C736 1.524 . S
C733 C725 1.503 . S
C733 C732 1.370 . S
C733 C734 1.403 . S
C734 C733 1.403 . S
C734 C735 1.404 . S
C734 C737 1.539 . S
C735 C731 1.408 . S
C735 C734 1.404 . S
C735 H747 0.930 . S
C736 C732 1.524 . S
C736 H748 0.956 . S
C736 H749 0.961 . S
C736 H750 0.961 . S
C737 C734 1.539 . S
C737 H751 0.958 . S
C737 H752 0.961 . S
C737 H753 0.960 . S
H738 C722 0.931 . S
H739 C727 0.929 . S
H740 C728 0.960 . S
H741 C728 0.962 . S
H742 C728 0.960 . S
H743 C729 0.961 . S
H744 C729 0.961 . S
H745 C729 0.961 . S
H746 C730 0.931 . S
H747 C735 0.930 . S
H748 C736 0.956 . S
H749 C736 0.961 . S
H750 C736 0.961 . S
H751 C737 0.958 . S
H752 C737 0.961 . S
H753 C737 0.960 . S
C754 C755 1.391 . S
C754 C756 1.394 . S
C754 H770 0.931 . S
C755 C754 1.391 . S
C755 C759 1.376 . S
C756 C754 1.394 . S
C756 C757 1.369 . S
C756 C760 1.531 . S
C757 C756 1.369 . S
C757 C758 1.410 . S
C757 C765 1.503 . S
C758 C757 1.410 . S
C758 C759 1.392 . S
C758 C761 1.511 . S
C759 C755 1.376 . S
C759 C758 1.392 . S
C759 H771 0.929 . S
C760 C756 1.531 . S
C760 H772 0.960 . S
C760 H773 0.962 . S
C760 H774 0.960 . S
C761 C758 1.511 . S
C761 H775 0.961 . S
C761 H776 0.961 . S
C761 H777 0.961 . S
C762 C763 1.370 . S
C762 C764 1.363 . S
C762 H778 0.931 . S
C763 C762 1.370 . S
C763 C767 1.408 . S
C764 C762 1.363 . S
C764 C765 1.370 . S
C764 C768 1.524 . S
C765 C757 1.503 . S
C765 C764 1.370 . S
C765 C766 1.403 . S
C766 C765 1.403 . S
C766 C767 1.404 . S
C766 C769 1.539 . S
C767 C763 1.408 . S
C767 C766 1.404 . S
C767 H779 0.930 . S
C768 C764 1.524 . S
C768 H780 0.956 . S
C768 H781 0.961 . S
C768 H782 0.961 . S
C769 C766 1.539 . S
C769 H783 0.958 . S
C769 H784 0.961 . S
C769 H785 0.960 . S
H770 C754 0.931 . S
H771 C759 0.929 . S
H772 C760 0.960 . S
H773 C760 0.962 . S
H774 C760 0.960 . S
H775 C761 0.961 . S
H776 C761 0.961 . S
H777 C761 0.961 . S
H778 C762 0.931 . S
H779 C767 0.930 . S
H780 C768 0.956 . S
H781 C768 0.961 . S
H782 C768 0.961 . S
H783 C769 0.958 . S
H784 C769 0.961 . S
H785 C769 0.960 . S
C786 C787 1.391 1_455 S
C786 C788 1.381 1_455 S
C786 H802 0.944 . S
C787 C786 1.391 1_655 S
C787 C791 1.376 . S
C788 C786 1.381 1_655 S
C788 C789 1.369 . S
C788 C792 1.531 . S
C789 C788 1.369 . S
C789 C790 1.410 . S
C789 C797 1.503 . S
C790 C789 1.410 . S
C790 C791 1.392 . S
C790 C793 1.511 . S
C791 C787 1.376 . S
C791 C790 1.392 . S
C791 H803 0.929 . S
C792 C788 1.531 . S
C792 H804 0.960 . S
C792 H805 0.962 . S
C792 H806 0.960 1_655 S
C793 C790 1.511 . S
C793 H807 0.961 . S
C793 H808 0.961 . S
C793 H809 0.961 . S
C794 C795 1.370 . S
C794 C796 1.363 . S
C794 H810 0.931 . S
C795 C794 1.370 . S
C795 C799 1.408 . S
C796 C794 1.363 . S
C796 C797 1.370 . S
C796 C800 1.524 . S
C797 C789 1.503 . S
C797 C796 1.370 . S
C797 C798 1.403 . S
C798 C797 1.403 . S
C798 C799 1.404 . S
C798 C801 1.539 . S
C799 C795 1.408 . S
C799 C798 1.404 . S
C799 H811 0.930 . S
C800 C796 1.524 . S
C800 H812 0.956 . S
C800 H813 0.961 . S
C800 H814 0.961 . S
C801 C798 1.539 . S
C801 H815 0.958 . S
C801 H816 0.961 . S
C801 H817 0.960 . S
H802 C786 0.944 . S
H803 C791 0.929 . S
H804 C792 0.960 . S
H805 C792 0.962 . S
H806 C792 0.960 1_455 S
H807 C793 0.961 . S
H808 C793 0.961 . S
H809 C793 0.961 . S
H810 C794 0.931 . S
H811 C799 0.930 . S
H812 C800 0.956 . S
H813 C800 0.961 . S
H814 C800 0.961 . S
H815 C801 0.958 . S
H816 C801 0.961 . S
H817 C801 0.960 . S
C818 C819 1.391 . S
C818 C820 1.394 . S
C818 H834 0.931 . S
C819 C818 1.391 . S
C819 C823 1.376 . S
C820 C818 1.394 . S
C820 C821 1.369 . S
C820 C824 1.531 . S
C821 C820 1.369 . S
C821 C822 1.410 . S
C821 C829 1.503 . S
C822 C821 1.410 . S
C822 C823 1.392 . S
C822 C825 1.511 . S
C823 C819 1.376 . S
C823 C822 1.392 . S
C823 H835 0.929 . S
C824 C820 1.531 . S
C824 H836 0.960 . S
C824 H837 0.962 . S
C824 H838 0.960 . S
C825 C822 1.511 . S
C825 H839 0.961 . S
C825 H840 0.961 . S
C825 H841 0.961 . S
C826 C827 1.370 . S
C826 C828 1.363 . S
C826 H842 0.931 . S
C827 C826 1.370 . S
C827 C831 1.408 . S
C828 C826 1.363 . S
C828 C829 1.370 . S
C828 C832 1.524 . S
C829 C821 1.503 . S
C829 C828 1.370 . S
C829 C830 1.403 . S
C830 C829 1.403 . S
C830 C831 1.404 . S
C830 C833 1.539 . S
C831 C827 1.408 . S
C831 C830 1.404 . S
C831 H843 0.930 . S
C832 C828 1.524 . S
C832 H844 0.956 . S
C832 H845 0.961 . S
C832 H846 0.961 . S
C833 C830 1.539 . S
C833 H847 0.958 . S
C833 H848 0.961 . S
C833 H849 0.960 . S
H834 C818 0.931 . S
H835 C823 0.929 . S
H836 C824 0.960 . S
H837 C824 0.962 . S
H838 C824 0.960 . S
H839 C825 0.961 . S
H840 C825 0.961 . S
H841 C825 0.961 . S
H842 C826 0.931 . S
H843 C831 0.930 . S
H844 C832 0.956 . S
H845 C832 0.961 . S
H846 C832 0.961 . S
H847 C833 0.958 . S
H848 C833 0.961 . S
H849 C833 0.960 . S
C850 C851 1.391 . S
C850 C852 1.394 . S
C850 H866 0.931 . S
C851 C850 1.391 . S
C851 C855 1.376 . S
C852 C850 1.394 . S
C852 C853 1.369 . S
C852 C856 1.531 . S
C853 C852 1.369 . S
C853 C854 1.410 . S
C853 C861 1.503 . S
C854 C853 1.410 . S
C854 C855 1.392 . S
C854 C857 1.511 . S
C855 C851 1.376 . S
C855 C854 1.392 . S
C855 H867 0.929 . S
C856 C852 1.531 . S
C856 H868 0.960 . S
C856 H869 0.962 . S
C856 H870 0.960 . S
C857 C854 1.511 . S
C857 H871 0.961 . S
C857 H872 0.961 . S
C857 H873 0.961 . S
C858 C859 1.370 . S
C858 C860 1.363 . S
C858 H874 0.931 . S
C859 C858 1.370 . S
C859 C863 1.408 . S
C860 C858 1.363 . S
C860 C861 1.370 . S
C860 C864 1.524 . S
C861 C853 1.503 . S
C861 C860 1.370 . S
C861 C862 1.403 . S
C862 C861 1.403 . S
C862 C863 1.404 . S
C862 C865 1.539 . S
C863 C859 1.408 . S
C863 C862 1.404 . S
C863 H875 0.930 . S
C864 C860 1.524 . S
C864 H876 0.956 . S
C864 H877 0.961 . S
C864 H878 0.961 . S
C865 C862 1.539 . S
C865 H879 0.958 . S
C865 H880 0.961 . S
C865 H881 0.960 . S
H866 C850 0.931 . S
H867 C855 0.929 . S
H868 C856 0.960 . S
H869 C856 0.962 . S
H870 C856 0.960 . S
H871 C857 0.961 . S
H872 C857 0.961 . S
H873 C857 0.961 . S
H874 C858 0.931 . S
H875 C863 0.930 . S
H876 C864 0.956 . S
H877 C864 0.961 . S
H878 C864 0.961 . S
H879 C865 0.958 . S
H880 C865 0.961 . S
H881 C865 0.960 . S
C882 C883 1.391 . S
C882 C884 1.394 . S
C882 H898 0.931 . S
C883 C882 1.391 . S
C883 C887 1.376 . S
C884 C882 1.394 . S
C884 C885 1.369 . S
C884 C888 1.531 . S
C885 C884 1.369 . S
C885 C886 1.410 . S
C885 C893 1.503 . S
C886 C885 1.410 . S
C886 C887 1.392 . S
C886 C889 1.511 . S
C887 C883 1.376 . S
C887 C886 1.392 . S
C887 H899 0.929 . S
C888 C884 1.531 . S
C888 H900 0.960 . S
C888 H901 0.962 . S
C888 H902 0.960 . S
C889 C886 1.511 . S
C889 H903 0.961 . S
C889 H904 0.961 . S
C889 H905 0.961 . S
C890 C891 1.370 . S
C890 C892 1.363 . S
C890 H906 0.931 . S
C891 C890 1.370 . S
C891 C895 1.408 . S
C892 C890 1.363 . S
C892 C893 1.370 . S
C892 C896 1.524 . S
C893 C885 1.503 . S
C893 C892 1.370 . S
C893 C894 1.403 . S
C894 C893 1.403 . S
C894 C895 1.404 . S
C894 C897 1.539 . S
C895 C891 1.408 . S
C895 C894 1.404 . S
C895 H907 0.930 . S
C896 C892 1.524 . S
C896 H908 0.956 . S
C896 H909 0.961 . S
C896 H910 0.961 . S
C897 C894 1.539 . S
C897 H911 0.958 . S
C897 H912 0.961 . S
C897 H913 0.960 . S
H898 C882 0.931 . S
H899 C887 0.929 . S
H900 C888 0.960 . S
H901 C888 0.962 . S
H902 C888 0.960 . S
H903 C889 0.961 . S
H904 C889 0.961 . S
H905 C889 0.961 . S
H906 C890 0.931 . S
H907 C895 0.930 . S
H908 C896 0.956 . S
H909 C896 0.961 . S
H910 C896 0.961 . S
H911 C897 0.958 . S
H912 C897 0.961 . S
H913 C897 0.960 . S
C914 C915 1.391 . S
C914 C916 1.394 . S
C914 H930 0.931 . S
C915 C914 1.391 . S
C915 C919 1.376 . S
C916 C914 1.394 . S
C916 C917 1.369 . S
C916 C920 1.531 . S
C917 C916 1.369 . S
C917 C918 1.410 . S
C917 C925 1.503 . S
C918 C917 1.410 . S
C918 C919 1.392 . S
C918 C921 1.511 . S
C919 C915 1.376 . S
C919 C918 1.392 . S
C919 H931 0.929 . S
C920 C916 1.531 . S
C920 H932 0.960 . S
C920 H933 0.962 . S
C920 H934 0.960 . S
C921 C918 1.511 . S
C921 H935 0.961 . S
C921 H936 0.961 . S
C921 H937 0.961 . S
C922 C923 1.370 . S
C922 C924 1.363 . S
C922 H938 0.931 . S
C923 C922 1.370 . S
C923 C927 1.408 . S
C924 C922 1.363 . S
C924 C925 1.370 . S
C924 C928 1.524 . S
C925 C917 1.503 . S
C925 C924 1.370 . S
C925 C926 1.403 . S
C926 C925 1.403 . S
C926 C927 1.404 . S
C926 C929 1.539 . S
C927 C923 1.408 . S
C927 C926 1.404 . S
C927 H939 0.930 . S
C928 C924 1.524 . S
C928 H940 0.956 . S
C928 H941 0.961 . S
C928 H942 0.961 . S
C929 C926 1.539 . S
C929 H943 0.958 . S
C929 H944 0.961 . S
C929 H945 0.960 . S
H930 C914 0.931 . S
H931 C919 0.929 . S
H932 C920 0.960 . S
H933 C920 0.962 . S
H934 C920 0.960 . S
H935 C921 0.961 . S
H936 C921 0.961 . S
H937 C921 0.961 . S
H938 C922 0.931 . S
H939 C927 0.930 . S
H940 C928 0.956 . S
H941 C928 0.961 . S
H942 C928 0.961 . S
H943 C929 0.958 . S
H944 C929 0.961 . S
H945 C929 0.960 . S
C946 C947 1.391 . S
C946 C948 1.394 . S
C946 H962 0.931 . S
C947 C946 1.391 . S
C947 C951 1.376 . S
C948 C946 1.394 . S
C948 C949 1.369 . S
C948 C952 1.531 . S
C949 C948 1.369 . S
C949 C950 1.410 . S
C949 C957 1.503 . S
C950 C949 1.410 . S
C950 C951 1.392 . S
C950 C953 1.511 . S
C951 C947 1.376 . S
C951 C950 1.392 . S
C951 H963 0.929 . S
C952 C948 1.531 . S
C952 H964 0.960 . S
C952 H965 0.962 . S
C952 H966 0.960 . S
C953 C950 1.511 . S
C953 H967 0.961 . S
C953 H968 0.961 . S
C953 H969 0.961 . S
C954 C955 1.370 . S
C954 C956 1.363 . S
C954 H970 0.931 . S
C955 C954 1.370 . S
C955 C959 1.408 . S
C956 C954 1.363 . S
C956 C957 1.370 . S
C956 C960 1.524 . S
C957 C949 1.503 . S
C957 C956 1.370 . S
C957 C958 1.403 . S
C958 C957 1.403 . S
C958 C959 1.404 . S
C958 C961 1.539 . S
C959 C955 1.408 . S
C959 C958 1.404 . S
C959 H971 0.930 . S
C960 C956 1.524 . S
C960 H972 0.956 . S
C960 H973 0.961 . S
C960 H974 0.961 . S
C961 C958 1.539 . S
C961 H975 0.958 . S
C961 H976 0.961 . S
C961 H977 0.960 . S
H962 C946 0.931 . S
H963 C951 0.929 . S
H964 C952 0.960 . S
H965 C952 0.962 . S
H966 C952 0.960 . S
H967 C953 0.961 . S
H968 C953 0.961 . S
H969 C953 0.961 . S
H970 C954 0.931 . S
H971 C959 0.930 . S
H972 C960 0.956 . S
H973 C960 0.961 . S
H974 C960 0.961 . S
H975 C961 0.958 . S
H976 C961 0.961 . S
H977 C961 0.960 . S
C978 C979 1.391 . S
C978 C980 1.394 . S
C978 H994 0.931 . S
C979 C978 1.391 . S
C979 C983 1.376 . S
C980 C978 1.394 . S
C980 C981 1.369 . S
C980 C984 1.531 . S
C981 C980 1.369 . S
C981 C982 1.410 . S
C981 C989 1.503 . S
C982 C981 1.410 . S
C982 C983 1.392 . S
C982 C985 1.511 . S
C983 C979 1.376 . S
C983 C982 1.392 . S
C983 H995 0.929 . S
C984 C980 1.531 . S
C984 H996 0.960 . S
C984 H997 0.962 . S
C984 H998 0.960 . S
C985 C982 1.511 . S
C985 H999 0.961 . S
C985 H1000 0.961 . S
C985 H1001 0.961 . S
C986 C987 1.370 . S
C986 C988 1.363 . S
C986 H1002 0.931 . S
C987 C986 1.370 . S
C987 C991 1.408 . S
C988 C986 1.363 . S
C988 C989 1.370 . S
C988 C992 1.524 . S
C989 C981 1.503 . S
C989 C988 1.370 . S
C989 C990 1.403 . S
C990 C989 1.403 . S
C990 C991 1.404 . S
C990 C993 1.539 . S
C991 C987 1.408 . S
C991 C990 1.404 . S
C991 H1003 0.930 . S
C992 C988 1.524 . S
C992 H1004 0.956 . S
C992 H1005 0.961 . S
C992 H1006 0.961 . S
C993 C990 1.539 . S
C993 H1007 0.958 . S
C993 H1008 0.961 . S
C993 H1009 0.960 . S
H994 C978 0.931 . S
H995 C983 0.929 . S
H996 C984 0.960 . S
H997 C984 0.962 . S
H998 C984 0.960 . S
H999 C985 0.961 . S
H1000 C985 0.961 . S
H1001 C985 0.961 . S
H1002 C986 0.931 . S
H1003 C991 0.930 . S
H1004 C992 0.956 . S
H1005 C992 0.961 . S
H1006 C992 0.961 . S
H1007 C993 0.958 . S
H1008 C993 0.961 . S
H1009 C993 0.960 . S
C1010 C1011 1.391 . S
C1010 C1012 1.394 . S
C1010 H1026 0.931 . S
C1011 C1010 1.391 . S
C1011 C1015 1.376 . S
C1012 C1010 1.394 . S
C1012 C1013 1.369 . S
C1012 C1016 1.531 . S
C1013 C1012 1.369 . S
C1013 C1014 1.410 . S
C1013 C1021 1.503 . S
C1014 C1013 1.410 . S
C1014 C1015 1.392 . S
C1014 C1017 1.511 . S
C1015 C1011 1.376 . S
C1015 C1014 1.392 . S
C1015 H1027 0.929 . S
C1016 C1012 1.531 . S
C1016 H1028 0.960 . S
C1016 H1029 0.962 . S
C1016 H1030 0.960 . S
C1017 C1014 1.511 . S
C1017 H1031 0.961 . S
C1017 H1032 0.961 . S
C1017 H1033 0.961 . S
C1018 C1019 1.370 . S
C1018 C1020 1.363 . S
C1018 H1034 0.931 . S
C1019 C1018 1.370 . S
C1019 C1023 1.408 . S
C1020 C1018 1.363 . S
C1020 C1021 1.370 . S
C1020 C1024 1.524 . S
C1021 C1013 1.503 . S
C1021 C1020 1.370 . S
C1021 C1022 1.403 . S
C1022 C1021 1.403 . S
C1022 C1023 1.404 . S
C1022 C1025 1.539 . S
C1023 C1019 1.408 . S
C1023 C1022 1.404 . S
C1023 H1035 0.930 . S
C1024 C1020 1.524 . S
C1024 H1036 0.956 . S
C1024 H1037 0.961 . S
C1024 H1038 0.961 . S
C1025 C1022 1.539 . S
C1025 H1039 0.958 . S
C1025 H1040 0.961 . S
C1025 H1041 0.960 . S
H1026 C1010 0.931 . S
H1027 C1015 0.929 . S
H1028 C1016 0.960 . S
H1029 C1016 0.962 . S
H1030 C1016 0.960 . S
H1031 C1017 0.961 . S
H1032 C1017 0.961 . S
H1033 C1017 0.961 . S
H1034 C1018 0.931 . S
H1035 C1023 0.930 . S
H1036 C1024 0.956 . S
H1037 C1024 0.961 . S
H1038 C1024 0.961 . S
H1039 C1025 0.958 . S
H1040 C1025 0.961 . S
H1041 C1025 0.960 . S
C1042 C1043 1.391 . S
C1042 C1044 1.394 . S
C1042 H1058 0.931 . S
C1043 C1042 1.391 . S
C1043 C1047 1.376 . S
C1044 C1042 1.394 . S
C1044 C1045 1.369 . S
C1044 C1048 1.531 . S
C1045 C1044 1.369 . S
C1045 C1046 1.410 . S
C1045 C1053 1.503 . S
C1046 C1045 1.410 . S
C1046 C1047 1.392 . S
C1046 C1049 1.511 . S
C1047 C1043 1.376 . S
C1047 C1046 1.392 . S
C1047 H1059 0.929 . S
C1048 C1044 1.531 . S
C1048 H1060 0.960 . S
C1048 H1061 0.962 . S
C1048 H1062 0.960 . S
C1049 C1046 1.511 . S
C1049 H1063 0.961 . S
C1049 H1064 0.961 . S
C1049 H1065 0.961 . S
C1050 C1051 1.370 . S
C1050 C1052 1.363 . S
C1050 H1066 0.931 . S
C1051 C1050 1.370 . S
C1051 C1055 1.408 . S
C1052 C1050 1.363 . S
C1052 C1053 1.370 . S
C1052 C1056 1.524 . S
C1053 C1045 1.503 . S
C1053 C1052 1.370 . S
C1053 C1054 1.403 . S
C1054 C1053 1.403 . S
C1054 C1055 1.404 . S
C1054 C1057 1.539 . S
C1055 C1051 1.408 . S
C1055 C1054 1.404 . S
C1055 H1067 0.930 . S
C1056 C1052 1.524 . S
C1056 H1068 0.956 . S
C1056 H1069 0.961 . S
C1056 H1070 0.961 . S
C1057 C1054 1.539 . S
C1057 H1071 0.958 . S
C1057 H1072 0.961 . S
C1057 H1073 0.960 . S
H1058 C1042 0.931 . S
H1059 C1047 0.929 . S
H1060 C1048 0.960 . S
H1061 C1048 0.962 . S
H1062 C1048 0.960 . S
H1063 C1049 0.961 . S
H1064 C1049 0.961 . S
H1065 C1049 0.961 . S
H1066 C1050 0.931 . S
H1067 C1055 0.930 . S
H1068 C1056 0.956 . S
H1069 C1056 0.961 . S
H1070 C1056 0.961 . S
H1071 C1057 0.958 . S
H1072 C1057 0.961 . S
H1073 C1057 0.960 . S
C1074 C1075 1.391 1_554 S
C1074 C1076 1.394 1_554 S
C1074 H1090 0.931 . S
C1075 C1074 1.391 1_556 S
C1075 C1079 1.376 . S
C1076 C1074 1.394 1_556 S
C1076 C1077 1.369 . S
C1076 C1080 1.531 . S
C1077 C1076 1.369 . S
C1077 C1078 1.410 . S
C1077 C1085 1.503 . S
C1078 C1077 1.410 . S
C1078 C1079 1.392 . S
C1078 C1081 1.511 . S
C1079 C1075 1.376 . S
C1079 C1078 1.392 . S
C1079 H1091 0.929 . S
C1080 C1076 1.531 . S
C1080 H1092 0.960 . S
C1080 H1093 0.962 . S
C1080 H1094 0.960 1_556 S
C1081 C1078 1.511 . S
C1081 H1095 0.961 . S
C1081 H1096 0.961 . S
C1081 H1097 0.961 . S
C1082 C1083 1.370 . S
C1082 C1084 1.363 . S
C1082 H1098 0.931 . S
C1083 C1082 1.370 . S
C1083 C1087 1.408 . S
C1084 C1082 1.363 . S
C1084 C1085 1.370 . S
C1084 C1088 1.524 . S
C1085 C1077 1.503 . S
C1085 C1084 1.370 . S
C1085 C1086 1.403 . S
C1086 C1085 1.403 . S
C1086 C1087 1.404 . S
C1086 C1089 1.539 . S
C1087 C1083 1.408 . S
C1087 C1086 1.404 . S
C1087 H1099 0.930 . S
C1088 C1084 1.524 . S
C1088 H1100 0.956 . S
C1088 H1101 0.961 . S
C1088 H1102 0.961 . S
C1089 C1086 1.539 . S
C1089 H1103 0.958 1_556 S
C1089 H1104 0.961 . S
C1089 H1105 0.960 1_556 S
H1090 C1074 0.931 . S
H1091 C1079 0.929 . S
H1092 C1080 0.960 . S
H1093 C1080 0.962 . S
H1094 C1080 0.960 1_554 S
H1095 C1081 0.961 . S
H1096 C1081 0.961 . S
H1097 C1081 0.961 . S
H1098 C1082 0.931 . S
H1099 C1087 0.930 . S
H1100 C1088 0.956 . S
H1101 C1088 0.961 . S
H1102 C1088 0.961 . S
H1103 C1089 0.958 1_554 S
H1104 C1089 0.961 . S
H1105 C1089 0.960 1_554 S
C1106 C1107 1.391 . S
C1106 C1108 1.394 . S
C1106 H1122 0.931 . S
C1107 C1106 1.391 . S
C1107 C1111 1.376 . S
C1108 C1106 1.394 . S
C1108 C1109 1.369 . S
C1108 C1112 1.531 . S
C1109 C1108 1.369 . S
C1109 C1110 1.410 . S
C1109 C1117 1.503 . S
C1110 C1109 1.410 . S
C1110 C1111 1.392 . S
C1110 C1113 1.511 . S
C1111 C1107 1.376 . S
C1111 C1110 1.392 . S
C1111 H1123 0.929 . S
C1112 C1108 1.531 . S
C1112 H1124 0.960 . S
C1112 H1125 0.962 . S
C1112 H1126 0.960 . S
C1113 C1110 1.511 . S
C1113 H1127 0.961 . S
C1113 H1128 0.961 . S
C1113 H1129 0.961 . S
C1114 C1115 1.370 . S
C1114 C1116 1.363 . S
C1114 H1130 0.931 . S
C1115 C1114 1.370 . S
C1115 C1119 1.408 . S
C1116 C1114 1.363 . S
C1116 C1117 1.370 . S
C1116 C1120 1.524 . S
C1117 C1109 1.503 . S
C1117 C1116 1.370 . S
C1117 C1118 1.403 . S
C1118 C1117 1.403 . S
C1118 C1119 1.404 . S
C1118 C1121 1.539 . S
C1119 C1115 1.408 . S
C1119 C1118 1.404 . S
C1119 H1131 0.930 . S
C1120 C1116 1.524 . S
C1120 H1132 0.956 . S
C1120 H1133 0.961 . S
C1120 H1134 0.961 . S
C1121 C1118 1.539 . S
C1121 H1135 0.958 . S
C1121 H1136 0.961 . S
C1121 H1137 0.960 . S
H1122 C1106 0.931 . S
H1123 C1111 0.929 . S
H1124 C1112 0.960 . S
H1125 C1112 0.962 . S
H1126 C1112 0.960 . S
H1127 C1113 0.961 . S
H1128 C1113 0.961 . S
H1129 C1113 0.961 . S
H1130 C1114 0.931 . S
H1131 C1119 0.930 . S
H1132 C1120 0.956 . S
H1133 C1120 0.961 . S
H1134 C1120 0.961 . S
H1135 C1121 0.958 . S
H1136 C1121 0.961 . S
H1137 C1121 0.960 . S
C1138 C1139 1.391 . S
C1138 C1140 1.394 . S
C1138 H1154 0.931 . S
C1139 C1138 1.391 . S
C1139 C1143 1.376 . S
C1140 C1138 1.394 . S
C1140 C1141 1.369 . S
C1140 C1144 1.531 . S
C1141 C1140 1.369 . S
C1141 C1142 1.410 . S
C1141 C1149 1.503 . S
C1142 C1141 1.410 . S
C1142 C1143 1.392 . S
C1142 C1145 1.511 . S
C1143 C1139 1.376 . S
C1143 C1142 1.392 . S
C1143 H1155 0.929 . S
C1144 C1140 1.531 . S
C1144 H1156 0.960 . S
C1144 H1157 0.962 . S
C1144 H1158 0.960 . S
C1145 C1142 1.511 . S
C1145 H1159 0.961 . S
C1145 H1160 0.961 . S
C1145 H1161 0.961 . S
C1146 C1147 1.370 . S
C1146 C1148 1.363 . S
C1146 H1162 0.931 . S
C1147 C1146 1.370 . S
C1147 C1151 1.408 . S
C1148 C1146 1.363 . S
C1148 C1149 1.370 . S
C1148 C1152 1.524 . S
C1149 C1141 1.503 . S
C1149 C1148 1.370 . S
C1149 C1150 1.403 . S
C1150 C1149 1.403 . S
C1150 C1151 1.404 . S
C1150 C1153 1.539 . S
C1151 C1147 1.408 . S
C1151 C1150 1.404 . S
C1151 H1163 0.930 . S
C1152 C1148 1.524 . S
C1152 H1164 0.956 . S
C1152 H1165 0.961 . S
C1152 H1166 0.961 . S
C1153 C1150 1.539 . S
C1153 H1167 0.958 . S
C1153 H1168 0.961 . S
C1153 H1169 0.960 . S
H1154 C1138 0.931 . S
H1155 C1143 0.929 . S
H1156 C1144 0.960 . S
H1157 C1144 0.962 . S
H1158 C1144 0.960 . S
H1159 C1145 0.961 . S
H1160 C1145 0.961 . S
H1161 C1145 0.961 . S
H1162 C1146 0.931 . S
H1163 C1151 0.930 . S
H1164 C1152 0.956 . S
H1165 C1152 0.961 . S
H1166 C1152 0.961 . S
H1167 C1153 0.958 . S
H1168 C1153 0.961 . S
H1169 C1153 0.960 . S
C1170 C1171 1.391 . S
C1170 C1172 1.394 . S
C1170 H1186 0.931 . S
C1171 C1170 1.391 . S
C1171 C1175 1.376 . S
C1172 C1170 1.394 . S
C1172 C1173 1.369 . S
C1172 C1176 1.531 . S
C1173 C1172 1.369 . S
C1173 C1174 1.410 . S
C1173 C1181 1.503 . S
C1174 C1173 1.410 . S
C1174 C1175 1.392 . S
C1174 C1177 1.511 . S
C1175 C1171 1.376 . S
C1175 C1174 1.392 . S
C1175 H1187 0.929 . S
C1176 C1172 1.531 . S
C1176 H1188 0.960 . S
C1176 H1189 0.962 . S
C1176 H1190 0.960 . S
C1177 C1174 1.511 . S
C1177 H1191 0.961 . S
C1177 H1192 0.961 . S
C1177 H1193 0.961 . S
C1178 C1179 1.370 . S
C1178 C1180 1.363 . S
C1178 H1194 0.931 . S
C1179 C1178 1.370 . S
C1179 C1183 1.408 . S
C1180 C1178 1.363 . S
C1180 C1181 1.370 . S
C1180 C1184 1.524 . S
C1181 C1173 1.503 . S
C1181 C1180 1.370 . S
C1181 C1182 1.403 . S
C1182 C1181 1.403 . S
C1182 C1183 1.404 . S
C1182 C1185 1.539 . S
C1183 C1179 1.408 . S
C1183 C1182 1.404 . S
C1183 H1195 0.930 . S
C1184 C1180 1.524 . S
C1184 H1196 0.956 . S
C1184 H1197 0.961 . S
C1184 H1198 0.961 . S
C1185 C1182 1.539 . S
C1185 H1199 0.958 . S
C1185 H1200 0.961 . S
C1185 H1201 0.960 . S
H1186 C1170 0.931 . S
H1187 C1175 0.929 . S
H1188 C1176 0.960 . S
H1189 C1176 0.962 . S
H1190 C1176 0.960 . S
H1191 C1177 0.961 . S
H1192 C1177 0.961 . S
H1193 C1177 0.961 . S
H1194 C1178 0.931 . S
H1195 C1183 0.930 . S
H1196 C1184 0.956 . S
H1197 C1184 0.961 . S
H1198 C1184 0.961 . S
H1199 C1185 0.958 . S
H1200 C1185 0.961 . S
H1201 C1185 0.960 . S
C1202 C1203 1.391 . S
C1202 C1204 1.394 . S
C1202 H1218 0.931 . S
C1203 C1202 1.391 . S
C1203 C1207 1.376 . S
C1204 C1202 1.394 . S
C1204 C1205 1.369 . S
C1204 C1208 1.531 . S
C1205 C1204 1.369 . S
C1205 C1206 1.410 . S
C1205 C1213 1.503 . S
C1206 C1205 1.410 . S
C1206 C1207 1.392 . S
C1206 C1209 1.511 . S
C1207 C1203 1.376 . S
C1207 C1206 1.392 . S
C1207 H1219 0.929 . S
C1208 C1204 1.531 . S
C1208 H1220 0.960 . S
C1208 H1221 0.962 . S
C1208 H1222 0.960 . S
C1209 C1206 1.511 . S
C1209 H1223 0.961 . S
C1209 H1224 0.961 . S
C1209 H1225 0.961 . S
C1210 C1211 1.370 . S
C1210 C1212 1.363 . S
C1210 H1226 0.931 . S
C1211 C1210 1.370 . S
C1211 C1215 1.408 . S
C1212 C1210 1.363 . S
C1212 C1213 1.370 . S
C1212 C1216 1.524 . S
C1213 C1205 1.503 . S
C1213 C1212 1.370 . S
C1213 C1214 1.403 . S
C1214 C1213 1.403 . S
C1214 C1215 1.404 . S
C1214 C1217 1.539 . S
C1215 C1211 1.408 . S
C1215 C1214 1.404 . S
C1215 H1227 0.930 . S
C1216 C1212 1.524 . S
C1216 H1228 0.956 . S
C1216 H1229 0.961 . S
C1216 H1230 0.961 . S
C1217 C1214 1.539 . S
C1217 H1231 0.958 . S
C1217 H1232 0.961 . S
C1217 H1233 0.960 . S
H1218 C1202 0.931 . S
H1219 C1207 0.929 . S
H1220 C1208 0.960 . S
H1221 C1208 0.962 . S
H1222 C1208 0.960 . S
H1223 C1209 0.961 . S
H1224 C1209 0.961 . S
H1225 C1209 0.961 . S
H1226 C1210 0.931 . S
H1227 C1215 0.930 . S
H1228 C1216 0.956 . S
H1229 C1216 0.961 . S
H1230 C1216 0.961 . S
H1231 C1217 0.958 . S
H1232 C1217 0.961 . S
H1233 C1217 0.960 . S
C1234 C1235 1.391 . S
C1234 C1236 1.394 . S
C1234 H1250 0.931 . S
C1235 C1234 1.391 . S
C1235 C1239 1.376 . S
C1236 C1234 1.394 . S
C1236 C1237 1.369 . S
C1236 C1240 1.531 . S
C1237 C1236 1.369 . S
C1237 C1238 1.410 . S
C1237 C1245 1.503 . S
C1238 C1237 1.410 . S
C1238 C1239 1.392 . S
C1238 C1241 1.511 . S
C1239 C1235 1.376 . S
C1239 C1238 1.392 . S
C1239 H1251 0.929 . S
C1240 C1236 1.531 . S
C1240 H1252 0.960 . S
C1240 H1253 0.962 . S
C1240 H1254 0.960 . S
C1241 C1238 1.511 . S
C1241 H1255 0.961 . S
C1241 H1256 0.961 . S
C1241 H1257 0.961 . S
C1242 C1243 1.370 . S
C1242 C1244 1.363 . S
C1242 H1258 0.931 . S
C1243 C1242 1.370 . S
C1243 C1247 1.408 . S
C1244 C1242 1.363 . S
C1244 C1245 1.370 . S
C1244 C1248 1.524 . S
C1245 C1237 1.503 . S
C1245 C1244 1.370 . S
C1245 C1246 1.403 . S
C1246 C1245 1.403 . S
C1246 C1247 1.404 . S
C1246 C1249 1.539 . S
C1247 C1243 1.408 . S
C1247 C1246 1.404 . S
C1247 H1259 0.930 . S
C1248 C1244 1.524 . S
C1248 H1260 0.956 . S
C1248 H1261 0.961 . S
C1248 H1262 0.961 . S
C1249 C1246 1.539 . S
C1249 H1263 0.958 . S
C1249 H1264 0.961 . S
C1249 H1265 0.960 . S
H1250 C1234 0.931 . S
H1251 C1239 0.929 . S
H1252 C1240 0.960 . S
H1253 C1240 0.962 . S
H1254 C1240 0.960 . S
H1255 C1241 0.961 . S
H1256 C1241 0.961 . S
H1257 C1241 0.961 . S
H1258 C1242 0.931 . S
H1259 C1247 0.930 . S
H1260 C1248 0.956 . S
H1261 C1248 0.961 . S
H1262 C1248 0.961 . S
H1263 C1249 0.958 . S
H1264 C1249 0.961 . S
H1265 C1249 0.960 . S
C1266 C1267 1.391 . S
C1266 C1268 1.394 . S
C1266 H1282 0.931 . S
C1267 C1266 1.391 . S
C1267 C1271 1.376 . S
C1268 C1266 1.394 . S
C1268 C1269 1.369 . S
C1268 C1272 1.531 . S
C1269 C1268 1.369 . S
C1269 C1270 1.410 . S
C1269 C1277 1.503 . S
C1270 C1269 1.410 . S
C1270 C1271 1.392 . S
C1270 C1273 1.511 . S
C1271 C1267 1.376 . S
C1271 C1270 1.392 . S
C1271 H1283 0.929 . S
C1272 C1268 1.531 . S
C1272 H1284 0.960 . S
C1272 H1285 0.962 . S
C1272 H1286 0.960 . S
C1273 C1270 1.511 . S
C1273 H1287 0.961 . S
C1273 H1288 0.961 . S
C1273 H1289 0.961 . S
C1274 C1275 1.370 . S
C1274 C1276 1.363 . S
C1274 H1290 0.931 . S
C1275 C1274 1.370 . S
C1275 C1279 1.408 . S
C1276 C1274 1.363 . S
C1276 C1277 1.370 . S
C1276 C1280 1.524 . S
C1277 C1269 1.503 . S
C1277 C1276 1.370 . S
C1277 C1278 1.403 . S
C1278 C1277 1.403 . S
C1278 C1279 1.404 . S
C1278 C1281 1.539 . S
C1279 C1275 1.408 . S
C1279 C1278 1.404 . S
C1279 H1291 0.930 . S
C1280 C1276 1.524 . S
C1280 H1292 0.956 . S
C1280 H1293 0.961 . S
C1280 H1294 0.961 . S
C1281 C1278 1.539 . S
C1281 H1295 0.958 . S
C1281 H1296 0.961 . S
C1281 H1297 0.960 . S
H1282 C1266 0.931 . S
H1283 C1271 0.929 . S
H1284 C1272 0.960 . S
H1285 C1272 0.962 . S
H1286 C1272 0.960 . S
H1287 C1273 0.961 . S
H1288 C1273 0.961 . S
H1289 C1273 0.961 . S
H1290 C1274 0.931 . S
H1291 C1279 0.930 . S
H1292 C1280 0.956 . S
H1293 C1280 0.961 . S
H1294 C1280 0.961 . S
H1295 C1281 0.958 . S
H1296 C1281 0.961 . S
H1297 C1281 0.960 . S
C1298 C1299 1.391 . S
C1298 C1300 1.394 . S
C1298 H1314 0.931 . S
C1299 C1298 1.391 . S
C1299 C1303 1.376 . S
C1300 C1298 1.394 . S
C1300 C1301 1.369 . S
C1300 C1304 1.531 . S
C1301 C1300 1.369 . S
C1301 C1302 1.410 . S
C1301 C1309 1.503 . S
C1302 C1301 1.410 . S
C1302 C1303 1.392 . S
C1302 C1305 1.511 . S
C1303 C1299 1.376 . S
C1303 C1302 1.392 . S
C1303 H1315 0.929 . S
C1304 C1300 1.531 . S
C1304 H1316 0.960 . S
C1304 H1317 0.962 . S
C1304 H1318 0.960 . S
C1305 C1302 1.511 . S
C1305 H1319 0.961 . S
C1305 H1320 0.961 . S
C1305 H1321 0.961 . S
C1306 C1307 1.370 . S
C1306 C1308 1.363 . S
C1306 H1322 0.931 . S
C1307 C1306 1.370 . S
C1307 C1311 1.408 . S
C1308 C1306 1.363 . S
C1308 C1309 1.370 . S
C1308 C1312 1.524 . S
C1309 C1301 1.503 . S
C1309 C1308 1.370 . S
C1309 C1310 1.403 . S
C1310 C1309 1.403 . S
C1310 C1311 1.404 . S
C1310 C1313 1.539 . S
C1311 C1307 1.408 . S
C1311 C1310 1.404 . S
C1311 H1323 0.930 . S
C1312 C1308 1.524 . S
C1312 H1324 0.956 . S
C1312 H1325 0.961 . S
C1312 H1326 0.961 . S
C1313 C1310 1.539 . S
C1313 H1327 0.958 . S
C1313 H1328 0.961 . S
C1313 H1329 0.960 . S
H1314 C1298 0.931 . S
H1315 C1303 0.929 . S
H1316 C1304 0.960 . S
H1317 C1304 0.962 . S
H1318 C1304 0.960 . S
H1319 C1305 0.961 . S
H1320 C1305 0.961 . S
H1321 C1305 0.961 . S
H1322 C1306 0.931 . S
H1323 C1311 0.930 . S
H1324 C1312 0.956 . S
H1325 C1312 0.961 . S
H1326 C1312 0.961 . S
H1327 C1313 0.958 . S
H1328 C1313 0.961 . S
H1329 C1313 0.960 . S
C1330 C1331 1.391 . S
C1330 C1332 1.394 1_455 S
C1330 H1346 0.931 . S
C1331 C1330 1.391 . S
C1331 C1335 1.376 1_455 S
C1332 C1330 1.394 1_655 S
C1332 C1333 1.369 . S
C1332 C1336 1.553 . S
C1333 C1332 1.369 . S
C1333 C1334 1.410 . S
C1333 C1341 1.503 . S
C1334 C1333 1.410 . S
C1334 C1335 1.392 . S
C1334 C1337 1.511 . S
C1335 C1331 1.376 1_655 S
C1335 C1334 1.392 . S
C1335 H1347 0.929 . S
C1336 C1332 1.553 . S
C1336 H1348 0.977 . S
C1336 H1349 0.944 1_655 S
C1336 H1350 0.941 1_655 S
C1337 C1334 1.511 . S
C1337 H1351 0.961 . S
C1337 H1352 0.961 . S
C1337 H1353 0.961 . S
C1338 C1339 1.370 . S
C1338 C1340 1.363 . S
C1338 H1354 0.931 . S
C1339 C1338 1.370 . S
C1339 C1343 1.408 . S
C1340 C1338 1.363 . S
C1340 C1341 1.370 . S
C1340 C1344 1.524 . S
C1341 C1333 1.503 . S
C1341 C1340 1.370 . S
C1341 C1342 1.403 . S
C1342 C1341 1.403 . S
C1342 C1343 1.404 . S
C1342 C1345 1.539 . S
C1343 C1339 1.408 . S
C1343 C1342 1.404 . S
C1343 H1355 0.930 . S
C1344 C1340 1.524 . S
C1344 H1356 0.956 . S
C1344 H1357 0.961 . S
C1344 H1358 0.961 . S
C1345 C1342 1.539 . S
C1345 H1359 0.958 . S
C1345 H1360 0.961 . S
C1345 H1361 0.960 . S
H1346 C1330 0.931 . S
H1347 C1335 0.929 . S
H1348 C1336 0.977 . S
H1349 C1336 0.944 1_455 S
H1350 C1336 0.941 1_455 S
H1351 C1337 0.961 . S
H1352 C1337 0.961 . S
H1353 C1337 0.961 . S
H1354 C1338 0.931 . S
H1355 C1343 0.930 . S
H1356 C1344 0.956 . S
H1357 C1344 0.961 . S
H1358 C1344 0.961 . S
H1359 C1345 0.958 . S
H1360 C1345 0.961 . S
H1361 C1345 0.960 . S
C1362 C1363 1.391 . S
C1362 C1364 1.394 . S
C1362 H1378 0.931 . S
C1363 C1362 1.391 . S
C1363 C1367 1.376 . S
C1364 C1362 1.394 . S
C1364 C1365 1.369 . S
C1364 C1368 1.531 . S
C1365 C1364 1.369 . S
C1365 C1366 1.410 . S
C1365 C1373 1.503 . S
C1366 C1365 1.410 . S
C1366 C1367 1.392 . S
C1366 C1369 1.511 . S
C1367 C1363 1.376 . S
C1367 C1366 1.392 . S
C1367 H1379 0.929 . S
C1368 C1364 1.531 . S
C1368 H1380 0.960 . S
C1368 H1381 0.962 . S
C1368 H1382 0.960 . S
C1369 C1366 1.511 . S
C1369 H1383 0.961 . S
C1369 H1384 0.961 . S
C1369 H1385 0.961 . S
C1370 C1371 1.370 . S
C1370 C1372 1.363 . S
C1370 H1386 0.931 . S
C1371 C1370 1.370 . S
C1371 C1375 1.408 . S
C1372 C1370 1.363 . S
C1372 C1373 1.370 . S
C1372 C1376 1.524 . S
C1373 C1365 1.503 . S
C1373 C1372 1.370 . S
C1373 C1374 1.403 . S
C1374 C1373 1.403 . S
C1374 C1375 1.404 . S
C1374 C1377 1.539 . S
C1375 C1371 1.408 . S
C1375 C1374 1.404 . S
C1375 H1387 0.930 . S
C1376 C1372 1.524 . S
C1376 H1388 0.956 . S
C1376 H1389 0.961 . S
C1376 H1390 0.961 . S
C1377 C1374 1.539 . S
C1377 H1391 0.958 . S
C1377 H1392 0.961 . S
C1377 H1393 0.960 . S
H1378 C1362 0.931 . S
H1379 C1367 0.929 . S
H1380 C1368 0.960 . S
H1381 C1368 0.962 . S
H1382 C1368 0.960 . S
H1383 C1369 0.961 . S
H1384 C1369 0.961 . S
H1385 C1369 0.961 . S
H1386 C1370 0.931 . S
H1387 C1375 0.930 . S
H1388 C1376 0.956 . S
H1389 C1376 0.961 . S
H1390 C1376 0.961 . S
H1391 C1377 0.958 . S
H1392 C1377 0.961 . S
H1393 C1377 0.960 . S
C1394 C1395 1.391 . S
C1394 C1396 1.394 . S
C1394 H1410 0.931 . S
C1395 C1394 1.391 . S
C1395 C1399 1.376 . S
C1396 C1394 1.394 . S
C1396 C1397 1.369 . S
C1396 C1400 1.531 . S
C1397 C1396 1.369 . S
C1397 C1398 1.410 . S
C1397 C1405 1.503 . S
C1398 C1397 1.410 . S
C1398 C1399 1.392 . S
C1398 C1401 1.511 . S
C1399 C1395 1.376 . S
C1399 C1398 1.392 . S
C1399 H1411 0.929 . S
C1400 C1396 1.531 . S
C1400 H1412 0.960 . S
C1400 H1413 0.962 . S
C1400 H1414 0.960 . S
C1401 C1398 1.511 . S
C1401 H1415 0.961 . S
C1401 H1416 0.961 . S
C1401 H1417 0.961 . S
C1402 C1403 1.370 . S
C1402 C1404 1.363 . S
C1402 H1418 0.931 . S
C1403 C1402 1.370 . S
C1403 C1407 1.408 . S
C1404 C1402 1.363 . S
C1404 C1405 1.370 . S
C1404 C1408 1.524 . S
C1405 C1397 1.503 . S
C1405 C1404 1.370 . S
C1405 C1406 1.403 . S
C1406 C1405 1.403 . S
C1406 C1407 1.404 . S
C1406 C1409 1.539 . S
C1407 C1403 1.408 . S
C1407 C1406 1.404 . S
C1407 H1419 0.930 . S
C1408 C1404 1.524 . S
C1408 H1420 0.956 . S
C1408 H1421 0.961 . S
C1408 H1422 0.961 . S
C1409 C1406 1.539 . S
C1409 H1423 0.958 . S
C1409 H1424 0.961 . S
C1409 H1425 0.960 . S
H1410 C1394 0.931 . S
H1411 C1399 0.929 . S
H1412 C1400 0.960 . S
H1413 C1400 0.962 . S
H1414 C1400 0.960 . S
H1415 C1401 0.961 . S
H1416 C1401 0.961 . S
H1417 C1401 0.961 . S
H1418 C1402 0.931 . S
H1419 C1407 0.930 . S
H1420 C1408 0.956 . S
H1421 C1408 0.961 . S
H1422 C1408 0.961 . S
H1423 C1409 0.958 . S
H1424 C1409 0.961 . S
H1425 C1409 0.960 . S
C1426 C1427 1.391 . S
C1426 C1428 1.394 . S
C1426 H1442 0.931 . S
C1427 C1426 1.391 . S
C1427 C1431 1.376 . S
C1428 C1426 1.394 . S
C1428 C1429 1.369 . S
C1428 C1432 1.531 . S
C1429 C1428 1.369 . S
C1429 C1430 1.410 . S
C1429 C1437 1.503 . S
C1430 C1429 1.410 . S
C1430 C1431 1.392 . S
C1430 C1433 1.511 . S
C1431 C1427 1.376 . S
C1431 C1430 1.392 . S
C1431 H1443 0.929 . S
C1432 C1428 1.531 . S
C1432 H1444 0.960 . S
C1432 H1445 0.962 . S
C1432 H1446 0.960 . S
C1433 C1430 1.511 . S
C1433 H1447 0.961 . S
C1433 H1448 0.961 . S
C1433 H1449 0.961 . S
C1434 C1435 1.370 . S
C1434 C1436 1.363 . S
C1434 H1450 0.931 . S
C1435 C1434 1.370 . S
C1435 C1439 1.408 . S
C1436 C1434 1.363 . S
C1436 C1437 1.370 . S
C1436 C1440 1.524 . S
C1437 C1429 1.503 . S
C1437 C1436 1.370 . S
C1437 C1438 1.403 . S
C1438 C1437 1.403 . S
C1438 C1439 1.404 . S
C1438 C1441 1.539 . S
C1439 C1435 1.408 . S
C1439 C1438 1.404 . S
C1439 H1451 0.930 . S
C1440 C1436 1.524 . S
C1440 H1452 0.956 . S
C1440 H1453 0.961 . S
C1440 H1454 0.961 . S
C1441 C1438 1.539 . S
C1441 H1455 0.958 . S
C1441 H1456 0.961 . S
C1441 H1457 0.960 . S
H1442 C1426 0.931 . S
H1443 C1431 0.929 . S
H1444 C1432 0.960 . S
H1445 C1432 0.962 . S
H1446 C1432 0.960 . S
H1447 C1433 0.961 . S
H1448 C1433 0.961 . S
H1449 C1433 0.961 . S
H1450 C1434 0.931 . S
H1451 C1439 0.930 . S
H1452 C1440 0.956 . S
H1453 C1440 0.961 . S
H1454 C1440 0.961 . S
H1455 C1441 0.958 . S
H1456 C1441 0.961 . S
H1457 C1441 0.960 . S
C691 C39 1.747 . S
C699 C371 1.649 . S
C723 C91 1.760 . S
C731 C415 1.713 . S
C763 C495 1.454 . S
C755 C128 1.476 . S
C795 C539 1.484 . S
C787 C188 1.497 1_655 S
C827 C619 1.613 . S
C819 C250 1.689 . S
C859 C675 1.750 . S
C851 C304 1.926 . S
C883 C75 1.887 . S
C891 C471 1.661 . S
C915 C144 1.770 . S
C923 C551 1.621 . S
C955 C595 1.701 . S
C947 C198 1.846 . S
C987 C663 1.487 . S
C979 C234 1.491 . S
C1011 C294 1.509 . S
C1019 C347 1.425 . S
C1051 C427 1.638 . S
C1043 C29 1.680 . S
C1083 C533 1.809 . S
C1075 C38 1.905 1_556 S
C1107 C92 1.713 . S
C1115 C613 1.590 . S
C1147 C681 1.500 . S
C1139 C135 1.530 . S
C1171 C181 1.677 . S
C1179 C365 1.599 . S
C1203 C251 1.602 . S
C1211 C409 1.514 . S
C1235 C303 1.941 . S
C1243 C489 1.747 . S
C1267 C82 1.851 . S
C1275 C657 1.703 . S
C1307 C353 1.681 . S
C1299 C145 1.786 . S
C1331 C197 1.673 . S
C1339 C433 1.596 . S
C1363 C241 1.452 . S
C1371 C477 1.424 . S
C1395 C287 1.589 . S
C1403 C557 1.562 . S
C1427 C22 1.534 . S
C1435 C601 1.468 . S
