# Generated by pormake.
# Topology zzz, (3,6)-cn, num edge types: 1
# Building blocks:
#     Node 0, Type 0, BuildingBlock: BETDAH_clean_linker_0, # of connection points: 3
#     Node 1, Type 0, BuildingBlock: BETDAH_clean_linker_0, # of connection points: 3
#     Node 2, Type 0, BuildingBlock: BETDAH_clean_linker_0, # of connection points: 3
#     Node 3, Type 0, BuildingBlock: BETDAH_clean_linker_0, # of connection points: 3
#     Node 4, Type 0, BuildingBlock: BETDAH_clean_linker_0, # of connection points: 3
#     Node 5, Type 0, BuildingBlock: BETDAH_clean_linker_0, # of connection points: 3
#     Node 6, Type 0, BuildingBlock: BETDAH_clean_linker_0, # of connection points: 3
#     Node 7, Type 0, BuildingBlock: BETDAH_clean_linker_0, # of connection points: 3
#     Node 8, Type 1, BuildingBlock: BETGAK_clean_sbu_0, # of connection points: 6
#     Node 9, Type 1, BuildingBlock: BETGAK_clean_sbu_0, # of connection points: 6
#     Node 10, Type 1, BuildingBlock: BETGAK_clean_sbu_0, # of connection points: 6
#     Node 11, Type 1, BuildingBlock: BETGAK_clean_sbu_0, # of connection points: 6
#     Edge 12, Type (0, 1), BuildingBlock: ZUJKAS_clean_linker_0, # of connection points: 2
#     Edge 13, Type (0, 1), BuildingBlock: ZUJKAS_clean_linker_0, # of connection points: 2
#     Edge 14, Type (0, 1), BuildingBlock: ZUJKAS_clean_linker_0, # of connection points: 2
#     Edge 15, Type (0, 1), BuildingBlock: ZUJKAS_clean_linker_0, # of connection points: 2
#     Edge 16, Type (0, 1), BuildingBlock: ZUJKAS_clean_linker_0, # of connection points: 2
#     Edge 17, Type (0, 1), BuildingBlock: ZUJKAS_clean_linker_0, # of connection points: 2
#     Edge 18, Type (0, 1), BuildingBlock: ZUJKAS_clean_linker_0, # of connection points: 2
#     Edge 19, Type (0, 1), BuildingBlock: ZUJKAS_clean_linker_0, # of connection points: 2
#     Edge 20, Type (0, 1), BuildingBlock: ZUJKAS_clean_linker_0, # of connection points: 2
#     Edge 21, Type (0, 1), BuildingBlock: ZUJKAS_clean_linker_0, # of connection points: 2
#     Edge 22, Type (0, 1), BuildingBlock: ZUJKAS_clean_linker_0, # of connection points: 2
#     Edge 23, Type (0, 1), BuildingBlock: ZUJKAS_clean_linker_0, # of connection points: 2
#     Edge 24, Type (0, 1), BuildingBlock: ZUJKAS_clean_linker_0, # of connection points: 2
#     Edge 25, Type (0, 1), BuildingBlock: ZUJKAS_clean_linker_0, # of connection points: 2
#     Edge 26, Type (0, 1), BuildingBlock: ZUJKAS_clean_linker_0, # of connection points: 2
#     Edge 27, Type (0, 1), BuildingBlock: ZUJKAS_clean_linker_0, # of connection points: 2
#     Edge 28, Type (0, 1), BuildingBlock: ZUJKAS_clean_linker_0, # of connection points: 2
#     Edge 29, Type (0, 1), BuildingBlock: ZUJKAS_clean_linker_0, # of connection points: 2
#     Edge 30, Type (0, 1), BuildingBlock: ZUJKAS_clean_linker_0, # of connection points: 2
#     Edge 31, Type (0, 1), BuildingBlock: ZUJKAS_clean_linker_0, # of connection points: 2
#     Edge 32, Type (0, 1), BuildingBlock: ZUJKAS_clean_linker_0, # of connection points: 2
#     Edge 33, Type (0, 1), BuildingBlock: ZUJKAS_clean_linker_0, # of connection points: 2
#     Edge 34, Type (0, 1), BuildingBlock: ZUJKAS_clean_linker_0, # of connection points: 2
#     Edge 35, Type (0, 1), BuildingBlock: ZUJKAS_clean_linker_0, # of connection points: 2
# Relax obj value: 0.234
# Max RMSD: 0.178
# Mean RMSD: 0.160
data_MOF--net-zzz--node1-BETGAK_clean_sbu_0--node2-BETDAH_clean_linker_0--edge1-ZUJKAS_clean_linker_0
_symmetry_space_group_name_H-M    P1
_symmetry_Int_Tables_number       1
_symmetry_cell_setting            triclinic
loop_
_symmetry_equiv_pos_as_xyz
'x, y, z'
_cell_length_a     68.358108
_cell_length_b     68.248099
_cell_length_c     17.355538
_cell_angle_alpha  89.977562
_cell_angle_beta   89.969722
_cell_angle_gamma 90.051144
loop_
_atom_site_label
_atom_site_type_symbol
_atom_site_fract_x
_atom_site_fract_y
_atom_site_fract_z
_atom_type_partial_charge
H0 H 0.79602 0.49586 0.24755 0.0
H1 H 0.73522 0.50216 0.19417 0.0
H2 H 0.75898 0.52929 0.39896 0.0
C3 C 0.78175 0.50166 0.26272 0.0
C4 C 0.77965 0.51316 0.32901 0.0
C5 C 0.76581 0.49766 0.21476 0.0
C6 C 0.74734 0.50513 0.23266 0.0
C7 C 0.7447 0.51655 0.29955 0.0
C8 C 0.7609 0.52031 0.34804 0.0
N9 N 0.72612 0.52474 0.31835 0.0
C10 C 0.70976 0.5237 0.27033 0.0
H11 H 0.02691 0.79688 0.25856 0.0
H12 H 0.02141 0.73554 0.21023 0.0
H13 H 0.99941 0.75908 0.42457 0.0
C14 C 0.02242 0.78234 0.27658 0.0
C15 C 0.01286 0.78006 0.3474 0.0
C16 C 0.02565 0.76636 0.22739 0.0
C17 C 0.01915 0.74772 0.2492 0.0
C18 C 1.00977 0.74488 0.32066 0.0
C19 C 1.00687 0.76112 0.37006 0.0
N20 N 1.00277 0.72602 0.34302 0.0
C21 C 1.0033 0.70957 0.29503 0.0
H22 H 0.72591 0.01433 0.23241 0.0
H23 H 0.78691 1.00948 0.17837 0.0
H24 H 0.76715 1.00252 0.41351 0.0
C25 C 0.74084 1.01185 0.25127 0.0
C26 C 0.74456 1.0086 0.32953 0.0
C27 C 0.75599 1.01196 0.19683 0.0
C28 C 0.77531 1.0092 0.22092 0.0
C29 C 0.77953 1.00566 0.29915 0.0
C30 C 0.76401 1.00517 0.35323 0.0
N31 N 0.79913 1.00258 0.32463 0.0
C32 C 0.81548 1.00333 0.27621 0.0
H33 H 0.50617 0.72934 0.22759 0.0
H34 H 0.51081 0.79018 0.16903 0.0
H35 H 0.51657 0.77173 0.40621 0.0
C36 C 0.50845 0.74439 0.2455 0.0
C37 C 0.51114 0.74858 0.3238 0.0
C38 C 0.50845 0.75926 0.18976 0.0
C39 C 0.51103 0.77877 0.21245 0.0
C40 C 0.51417 0.78342 0.2906 0.0
C41 C 0.51435 0.76821 0.34599 0.0
N42 N 0.51706 0.80317 0.31495 0.0
C43 C 0.51695 0.8193 0.2653 0.0
H44 H 0.22389 0.51594 0.18681 0.0
H45 H 0.28513 0.51883 0.23825 0.0
H46 H 0.2659 0.50888 0.00444 0.0
C47 C 0.23897 0.51485 0.16768 0.0
C48 C 0.2429 0.51178 0.08934 0.0
C49 C 0.25408 0.51738 0.22138 0.0
C50 C 0.27355 0.51678 0.19649 0.0
C51 C 0.27798 0.51347 0.11824 0.0
C52 C 0.26256 0.5113 0.06472 0.0
N53 N 0.29771 0.51219 0.09207 0.0
C54 C 0.31394 0.51235 0.14093 0.0
H55 H 0.99013 0.22924 0.14981 0.0
H56 H 1.00024 0.28821 0.22556 0.0
H57 H 0.0254 0.26781 0.0119 0.0
C58 C 0.9962 0.24368 0.13923 0.0
C59 C 1.00758 0.24672 0.07313 0.0
C60 C 0.99345 0.25851 0.19419 0.0
C61 C 1.00227 0.27684 0.18281 0.0
C62 C 0.01374 0.28037 0.11671 0.0
C63 C 0.01648 0.26518 0.06246 0.0
N64 N 0.0228 0.29891 0.1036 0.0
C65 C 0.02116 0.31504 0.15278 0.0
H66 H 0.29567 0.98867 0.15134 0.0
H67 H 0.23614 0.99803 0.21886 0.0
H68 H 0.26046 0.03 0.02591 0.0
C69 C 0.28175 0.99589 0.14151 0.0
C70 C 0.28016 1.00987 0.08284 0.0
C71 C 0.26595 0.99157 0.18987 0.0
C72 C 0.24808 1.00119 0.17973 0.0
C73 C 0.24586 0.01496 0.11978 0.0
C74 C 0.26195 0.01911 0.07099 0.0
N75 N 0.22789 0.02518 0.10864 0.0
C76 C 0.21169 0.02364 0.15752 0.0
H77 H 0.53841 0.29701 0.12903 0.0
H78 H 0.52153 0.24074 0.21599 0.0
H79 H 0.49574 0.26284 0.00595 0.0
C80 C 0.53023 0.2835 0.12159 0.0
C81 C 0.51721 0.28171 0.05968 0.0
C82 C 0.53168 0.26888 0.17786 0.0
C83 C 0.52051 0.25177 0.1713 0.0
C84 C 0.50779 0.24924 0.10818 0.0
C85 C 0.50592 0.26447 0.05335 0.0
N86 N 0.49645 0.23184 0.09941 0.0
C87 C 0.4977 0.2156 0.1482 0.0
La88 La 0.02227 1.00654 0.79351 0.0
La89 La 1.00365 0.02161 0.64042 0.0
C90 C 0.0258 0.98956 0.92066 0.0
C91 C 0.02625 0.96823 0.93479 0.0
C92 C 0.0438 0.9594 0.95816 0.0
C93 C 0.04604 0.93909 0.95421 0.0
C94 C 0.03066 0.92718 0.92751 0.0
C95 C 0.01268 0.93596 0.90901 0.0
C96 C 1.01051 0.95626 0.91229 0.0
C97 C 0.04968 0.01378 0.68711 0.0
C98 C 1.01162 0.97577 0.66102 0.0
C99 C 0.9941 0.03581 0.51361 0.0
C100 C 0.98875 0.05656 0.50104 0.0
C101 C 0.96967 0.06164 0.47868 0.0
C102 C 0.96341 0.08118 0.48265 0.0
C103 C 0.97611 0.09584 0.50994 0.0
C104 C 0.99542 0.09084 0.52882 0.0
C105 C 1.00169 0.07149 0.52418 0.0
C106 C 0.98044 0.01977 0.7623 0.0
C107 C 0.01827 0.05206 0.7651 0.0
O108 O 0.04067 0.99623 0.88117 0.0
O109 O 1.00921 0.99699 0.89663 0.0
O110 O 0.05333 1.00816 0.75691 0.0
O111 O 0.03144 0.01543 0.68298 0.0
O112 O 0.01776 0.97888 0.73254 0.0
O113 O 1.00586 0.99017 0.61455 0.0
O114 O 0.98183 0.0258 0.55654 0.0
O115 O 0.01237 0.03261 0.53305 0.0
O116 O 0.97955 0.03318 0.70973 0.0
O117 O 0.99357 1.00764 0.74388 0.0
O118 O 0.01568 0.04838 0.69072 0.0
O119 O 0.01886 0.0379 0.81769 0.0
H120 H 0.0562 0.96831 0.97515 0.0
H121 H 0.06013 0.93285 0.9686 0.0
H122 H 1.00036 0.92719 0.8902 0.0
H123 H 0.99677 0.96255 0.89372 0.0
H124 H 0.95936 0.05041 0.46141 0.0
H125 H 0.94848 0.0847 0.46716 0.0
H126 H 1.00568 0.10192 0.54811 0.0
H127 H 0.01651 0.06821 0.54199 0.0
La128 La 0.51793 0.02511 0.7651 0.0
La129 La 0.50402 1.00553 0.6137 0.0
C130 C 0.53772 0.03545 0.87981 0.0
C131 C 0.55906 0.03484 0.89112 0.0
C132 C 0.56921 0.05228 0.9064 0.0
C133 C 0.58958 0.05297 0.90006 0.0
C134 C 0.60018 0.0362 0.87814 0.0
C135 C 0.59002 0.01848 0.86764 0.0
C136 C 0.56969 0.0178 0.8739 0.0
C137 C 0.50523 0.04874 0.6553 0.0
C138 C 0.54903 1.01104 0.63608 0.0
C139 C 0.48683 1.00084 0.48798 0.0
C140 C 0.46868 0.99012 0.47111 0.0
C141 C 0.46361 0.9734 0.51408 0.0
C142 C 0.44502 0.9651 0.50712 0.0
C143 C 0.4311 0.97356 0.45791 0.0
C144 C 0.43645 0.98987 0.41292 0.0
C145 C 0.4551 0.99808 0.41951 0.0
C146 C 0.5091 0.97864 0.72387 0.0
C147 C 0.47363 0.01526 0.75142 0.0
O148 O 0.5321 0.04754 0.8257 0.0
O149 O 0.52853 0.01859 0.87588 0.0
O150 O 0.50224 0.05138 0.72834 0.0
O151 O 0.51544 0.03352 0.64613 0.0
O152 O 0.54531 0.01547 0.7092 0.0
O153 O 0.53489 1.00872 0.5847 0.0
O154 O 0.5019 0.9902 0.50935 0.0
O155 O 0.4844 0.01639 0.53148 0.0
O156 O 0.50398 0.97467 0.65377 0.0
O157 O 0.51125 0.99687 0.72652 0.0
O158 O 0.47671 1.01204 0.67674 0.0
O159 O 0.48815 0.01858 0.80039 0.0
H160 H 0.5613 0.06562 0.91961 0.0
H161 H 0.59696 0.06674 0.91092 0.0
H162 H 0.59763 1.00527 0.85062 0.0
H163 H 0.56228 1.00415 0.86105 0.0
H164 H 0.47373 0.96717 0.55531 0.0
H165 H 0.44123 0.95265 0.54286 0.0
H166 H 0.42605 0.99654 0.37383 0.0
H167 H 0.45867 1.0111 0.38656 0.0
La168 La 0.50152 0.52239 0.77641 0.0
La169 La 0.52181 0.51164 0.63684 0.0
C170 C 0.4905 0.5408 0.89359 0.0
C171 C 0.48265 0.56081 0.89656 0.0
C172 C 0.4715 0.56808 0.8348 0.0
C173 C 0.4666 0.58789 0.83111 0.0
C174 C 0.47294 0.60088 0.88865 0.0
C175 C 0.48367 0.59343 0.95149 0.0
C176 C 0.48847 0.57356 0.95537 0.0
C177 C 0.47776 0.51243 0.66257 0.0
C178 C 0.51303 0.5557 0.65282 0.0
C179 C 0.53286 0.49347 0.51888 0.0
C180 C 0.54055 0.47332 0.51134 0.0
C181 C 0.55892 0.46816 0.54196 0.0
C182 C 0.56503 0.44863 0.54233 0.0
C183 C 0.55286 0.43388 0.5127 0.0
C184 C 0.53473 0.4391 0.4805 0.0
C185 C 0.52869 0.45862 0.47953 0.0
C186 C 0.54548 0.52178 0.75084 0.0
C187 C 0.51019 0.47833 0.76044 0.0
O188 O 0.47959 0.52786 0.8583 0.0
O189 O 0.50882 0.53967 0.87234 0.0
O190 O 0.47485 0.50837 0.73442 0.0
O191 O 0.49311 0.52257 0.65679 0.0
O192 O 0.50892 0.55117 0.72524 0.0
O193 O 0.51612 0.54172 0.60168 0.0
O194 O 0.54387 0.50604 0.55565 0.0
O195 O 0.51451 0.49478 0.53983 0.0
O196 O 0.54826 0.52605 0.67905 0.0
O197 O 0.53026 0.51143 0.7564 0.0
O198 O 0.5146 0.48283 0.68822 0.0
O199 O 0.50693 0.4923 0.81146 0.0
H200 H 0.46714 0.55858 0.78782 0.0
H201 H 0.45818 0.59308 0.78239 0.0
H202 H 0.48912 0.60308 0.99612 0.0
H203 H 0.4974 0.5683 0.00259 0.0
H204 H 0.56842 0.4791 0.56729 0.0
H205 H 0.57908 0.445 0.5674 0.0
H206 H 0.52522 0.42807 0.45575 0.0
H207 H 0.5145 0.46217 0.45547 0.0
La208 La 1.00623 0.50448 0.77416 0.0
La209 La 0.01717 0.52665 0.63906 0.0
C210 C 0.98876 0.49179 0.89184 0.0
C211 C 0.96807 0.48683 0.90562 0.0
C212 C 0.96305 0.46803 0.93184 0.0
C213 C 0.94341 0.4624 0.93707 0.0
C214 C 0.92845 0.47549 0.91602 0.0
C215 C 0.93357 0.49443 0.89117 0.0
C216 C 0.95314 0.50006 0.88632 0.0
C217 C 0.01768 0.48232 0.65775 0.0
C218 C 0.97337 0.51741 0.65075 0.0
C219 C 0.03592 0.53953 0.52562 0.0
C220 C 0.05647 0.54603 0.52436 0.0
C221 C 0.06384 0.55817 0.58319 0.0
C222 C 0.08398 0.56072 0.59223 0.0
C223 C 0.0971 0.55092 0.54346 0.0
C224 C 0.08967 0.53978 0.48182 0.0
C225 C 0.06953 0.53737 0.47235 0.0
C226 C 1.00616 0.54875 0.75674 0.0
C227 C 0.05031 0.51347 0.76033 0.0
O228 O 0.99776 0.48052 0.84252 0.0
O229 O 0.99286 0.51032 0.88065 0.0
O230 O 0.02193 0.47916 0.72933 0.0
O231 O 1.00691 0.49731 0.65325 0.0
O232 O 0.97761 0.51251 0.72285 0.0
O233 O 0.98748 0.52122 0.60105 0.0
O234 O 0.02379 0.55026 0.56579 0.0
O235 O 0.03353 0.52082 0.53917 0.0
O236 O 1.00195 0.5522 0.68535 0.0
O237 O 0.01677 0.53366 0.75998 0.0
O238 O 0.04585 0.51917 0.6896 0.0
O239 O 0.03638 0.50892 0.80995 0.0
H240 H 0.97434 0.45758 0.94686 0.0
H241 H 0.93996 0.44783 0.95775 0.0
H242 H 0.92246 0.50481 0.87349 0.0
H243 H 0.95653 0.51462 0.86533 0.0
H244 H 0.05414 0.56482 0.62504 0.0
H245 H 0.08928 0.56933 0.64032 0.0
H246 H 0.09947 0.53241 0.44226 0.0
H247 H 0.0642 0.52787 0.42696 0.0
H248 H 0.17372 0.02295 0.11417 0.0
H249 H 0.14483 0.02257 0.19881 0.0
H250 H 0.18256 0.02183 0.39795 0.0
H251 H 0.2114 0.0224 0.31322 0.0
H252 H 0.13303 0.99543 0.31006 0.0
H253 H 0.14632 0.06793 0.44403 0.0
H254 H 0.15888 0.06002 0.35798 0.0
H255 H 0.16675 0.05152 0.45104 0.0
C256 C 0.17577 0.0227 0.17607 0.0
C257 C 0.19467 0.02278 0.20751 0.0
C258 C 0.15929 0.02248 0.22436 0.0
C259 C 0.16145 0.02251 0.30494 0.0
C260 C 0.18046 0.02224 0.33613 0.0
H261 H 0.08856 0.01796 0.70891 0.0
H262 H 0.11439 0.02056 0.61224 0.0
C263 C 0.19692 0.02244 0.28781 0.0
C264 C 0.1439 0.02258 0.3563 0.0
H265 H 0.12183 0.04803 0.50212 0.0
C266 C 0.13048 1.00701 0.35162 0.0
C267 C 0.14048 0.03773 0.4104 0.0
C268 C 0.15375 0.05535 0.41588 0.0
C269 C 0.11422 1.00579 0.40142 0.0
C270 C 0.11101 0.02077 0.45654 0.0
C271 C 0.12423 0.03653 0.46004 0.0
C272 C 0.09481 0.0198 0.51439 0.0
C273 C 0.10108 0.98806 0.39654 0.0
C274 C 0.07502 0.01881 0.49212 0.0
C275 C 0.06012 0.01727 0.54778 0.0
C276 C 0.06474 0.01691 0.62664 0.0
C277 C 0.08449 0.01828 0.6486 0.0
C278 C 0.09931 0.01979 0.5933 0.0
H279 H 0.10809 0.97585 0.36448 0.0
H280 H 0.09705 0.98275 0.45492 0.0
H281 H 0.08743 0.99208 0.36579 0.0
H282 H 0.07108 0.01908 0.43171 0.0
H283 H 0.04514 0.01575 0.52902 0.0
H284 H 0.48367 0.21189 0.2932 0.0
H285 H 0.48462 0.18244 0.37497 0.0
H286 H 0.51426 0.15098 0.19381 0.0
H287 H 0.51349 0.18049 0.11259 0.0
H288 H 0.46865 0.14543 0.34771 0.0
H289 H 0.54927 0.14035 0.37954 0.0
H290 H 0.5373 0.16209 0.34385 0.0
H291 H 0.54093 0.14138 0.28153 0.0
C292 C 0.49049 0.19868 0.27132 0.0
C293 C 0.49862 0.19837 0.19711 0.0
C294 C 0.49099 0.18187 0.31786 0.0
C295 C 0.49975 0.16451 0.29112 0.0
C296 C 0.50779 0.16426 0.21649 0.0
H297 H 0.51775 0.04921 0.50492 0.0
H298 H 0.51539 0.07645 0.41265 0.0
C299 C 0.50726 0.18106 0.16998 0.0
C300 C 0.50007 0.1466 0.34061 0.0
H301 H 0.53066 0.11387 0.42869 0.0
C302 C 0.48222 0.13856 0.36552 0.0
C303 C 0.51775 0.13752 0.36365 0.0
C304 C 0.53742 0.14583 0.34144 0.0
C305 C 0.48156 0.12168 0.41214 0.0
C306 C 0.49925 0.11272 0.43593 0.0
C307 C 0.51709 0.12064 0.41034 0.0
C308 C 0.49962 0.09568 0.48995 0.0
C309 C 0.46188 0.11341 0.43449 0.0
C310 C 0.49153 0.09733 0.56409 0.0
C311 C 0.49283 0.08181 0.61663 0.0
C312 C 0.50238 0.0643 0.59654 0.0
C313 C 0.51023 0.06249 0.52197 0.0
C314 C 0.50894 0.07807 0.46932 0.0
H315 H 0.45025 0.11809 0.39377 0.0
H316 H 0.46221 0.09715 0.43634 0.0
H317 H 0.45787 0.11885 0.49263 0.0
H318 H 0.48463 0.11085 0.58218 0.0
H319 H 0.48674 0.08371 0.67377 0.0
H320 H 0.3508 0.52308 0.10361 0.0
H321 H 0.37978 0.52235 0.18756 0.0
H322 H 0.34416 0.50088 0.37474 0.0
H323 H 0.3153 0.50133 0.29045 0.0
H324 H 0.38685 0.54177 0.32584 0.0
H325 H 0.38883 0.46135 0.37039 0.0
H326 H 0.37425 0.47266 0.29597 0.0
H327 H 0.36575 0.47232 0.39404 0.0
C328 C 0.34925 0.51817 0.16269 0.0
C329 C 0.33095 0.5122 0.19083 0.0
C330 C 0.36577 0.51777 0.21057 0.0
C331 C 0.36426 0.51126 0.28723 0.0
C332 C 0.34582 0.50554 0.31545 0.0
H333 H 0.44075 0.4984 0.68028 0.0
H334 H 0.41416 0.49839 0.58621 0.0
C335 C 0.32932 0.50593 0.26752 0.0
C336 C 0.38186 0.51079 0.33802 0.0
H337 H 0.40976 0.48046 0.44977 0.0
C338 C 0.39196 0.52835 0.35252 0.0
C339 C 0.38856 0.49328 0.37285 0.0
C340 C 0.37892 0.47379 0.35708 0.0
C341 C 0.40812 0.52899 0.40276 0.0
C342 C 0.41471 0.51149 0.43826 0.0
C343 C 0.40477 0.49389 0.42276 0.0
C344 C 0.43132 0.51119 0.4942 0.0
C345 C 0.41751 0.54856 0.41943 0.0
C346 C 0.45005 0.51803 0.47376 0.0
C347 C 0.4653 0.51821 0.52794 0.0
C348 C 0.46217 0.5113 0.60327 0.0
C349 C 0.44363 0.50388 0.62279 0.0
C350 C 0.42839 0.50385 0.56896 0.0
H351 H 0.40767 0.56094 0.40446 0.0
H352 H 0.42158 0.54981 0.48115 0.0
H353 H 0.431 0.55005 0.38435 0.0
H354 H 0.45289 0.52327 0.41595 0.0
H355 H 0.47948 0.52387 0.51107 0.0
H356 H 0.03818 0.32021 0.29185 0.0
H357 H 0.03734 0.34989 0.37218 0.0
H358 H 1.00137 0.37857 0.202 0.0
H359 H 1.00208 0.34881 0.12228 0.0
H360 H 0.05032 0.38753 0.33588 0.0
H361 H 0.97077 0.38837 0.40027 0.0
H362 H 0.98296 0.36712 0.36135 0.0
H363 H 0.97666 0.38728 0.29952 0.0
C364 C 0.02998 0.33283 0.27218 0.0
C365 C 0.02008 0.33229 0.20146 0.0
C366 C 0.02953 0.34978 0.31787 0.0
C367 C 0.01907 0.36644 0.2938 0.0
C368 C 1.0092 0.36583 0.22274 0.0
H369 H 1.00098 0.48135 0.51353 0.0
H370 H 1.00199 0.45426 0.4201 0.0
C371 C 1.00967 0.34888 0.17706 0.0
C372 C 0.01901 0.38457 0.342 0.0
H373 H 0.98912 0.41588 0.44127 0.0
C374 C 0.03693 0.3937 0.35897 0.0
C375 C 1.00154 0.39278 0.37179 0.0
C376 C 0.98189 0.38333 0.35801 0.0
C377 C 0.03787 0.41074 0.40453 0.0
C378 C 0.02044 0.41875 0.43545 0.0
C379 C 1.00248 0.40982 0.4175 0.0
C380 C 0.02062 0.43573 0.4898 0.0
C381 C 0.05754 0.42015 0.41831 0.0
C382 C 0.03071 0.4344 0.56007 0.0
C383 C 0.03016 0.44981 0.61319 0.0
C384 C 0.01939 0.46691 0.5977 0.0
C385 C 1.00947 0.46841 0.52696 0.0
C386 C 1.00999 0.4529 0.4737 0.0
H387 H 0.06822 0.4161 0.37276 0.0
H388 H 0.05633 0.43636 0.42043 0.0
H389 H 0.06343 0.41499 0.47431 0.0
H390 H 0.03867 0.4212 0.57478 0.0
H391 H 0.03788 0.44815 0.66729 0.0
H392 H 0.84169 0.97444 0.24917 0.0
H393 H 0.87105 0.97622 0.1673 0.0
H394 H 0.85694 0.03603 0.10926 0.0
H395 H 0.82773 0.03425 0.19164 0.0
H396 H 0.87467 0.98397 0.01027 0.0
H397 H 0.91371 0.04055 0.18011 0.0
H398 H 0.89278 0.02743 0.21718 0.0
H399 H 0.88946 0.04764 0.152 0.0
C400 C 0.84495 0.98795 0.21895 0.0
C401 C 0.83262 1.00425 0.2268 0.0
C402 C 0.86169 0.98896 0.17219 0.0
C403 C 0.86646 1.00637 0.13298 0.0
C404 C 0.85388 0.02258 0.14015 0.0
H405 H 0.95408 0.04671 0.81116 0.0
H406 H 0.92729 0.04236 0.90303 0.0
C407 C 0.83714 0.02154 0.1868 0.0
C408 C 0.88436 1.00747 0.08356 0.0
H409 H 0.9269 0.03305 0.05671 0.0
C410 C 0.88618 0.99459 0.02081 0.0
C411 C 0.89944 0.02129 0.09723 0.0
C412 C 0.89891 0.0349 0.16569 0.0
C413 C 0.90225 0.9956 0.96998 0.0
C414 C 0.91719 1.00964 0.98297 0.0
C415 C 0.91551 0.02229 0.04652 0.0
C416 C 0.93413 1.01214 0.92926 0.0
C417 C 0.90269 0.98211 0.90114 0.0
C418 C 0.94728 0.99673 0.91414 0.0
C419 C 0.96267 0.9992 0.86123 0.0
C420 C 0.9653 0.01717 0.82295 0.0
C421 C 0.95245 0.03267 0.83967 0.0
C422 C 0.93711 0.03021 0.89231 0.0
H423 H 0.88808 0.97565 0.88916 0.0
H424 H 0.90776 0.99 0.84885 0.0
H425 H 0.91301 0.96992 0.91259 0.0
H426 H 0.94557 0.98275 0.94285 0.0
H427 H 0.97219 0.98694 0.84894 0.0
H428 H 0.54491 0.84717 0.25421 0.0
H429 H 0.54471 0.8762 0.17018 0.0
H430 H 0.48876 0.8585 0.07856 0.0
H431 H 0.48892 0.8296 0.16321 0.0
H432 H 0.54355 0.87855 0.01229 0.0
H433 H 0.47868 0.91552 0.13646 0.0
H434 H 0.49093 0.8955 0.18434 0.0
H435 H 0.47395 0.89072 0.10744 0.0
C436 C 0.53256 0.84959 0.21623 0.0
C437 C 0.51689 0.83632 0.21511 0.0
C438 C 0.53245 0.86614 0.16829 0.0
C439 C 0.51657 0.86979 0.11882 0.0
C440 C 0.50097 0.85632 0.11737 0.0
H441 H 0.51083 0.93937 0.7064 0.0
H442 H 0.51383 0.91419 0.80559 0.0
C443 C 0.50111 0.83975 0.16527 0.0
C444 C 0.51664 0.88726 0.06691 0.0
H445 H 0.49031 0.9279 0.01602 0.0
C446 C 0.53197 0.8894 0.01359 0.0
C447 C 0.50174 0.90168 0.06919 0.0
C448 C 0.48549 0.9009 0.12793 0.0
C449 C 0.53243 0.90508 0.96089 0.0
C450 C 0.51701 0.91893 0.96055 0.0
C451 C 0.50205 0.91722 0.01571 0.0
C452 C 0.51561 0.93459 0.9007 0.0
C453 C 0.54947 0.90666 0.90594 0.0
C454 C 0.51518 0.95457 0.92087 0.0
C455 C 0.51343 0.9691 0.86377 0.0
C456 C 0.51191 0.96388 0.7857 0.0
C457 C 0.51218 0.9439 0.76598 0.0
C458 C 0.51399 0.92946 0.82268 0.0
H459 H 0.56253 0.8988 0.92814 0.0
H460 H 0.54537 0.89993 0.85003 0.0
H461 H 0.55346 0.92221 0.89539 0.0
H462 H 0.51618 0.95891 0.98077 0.0
H463 H 0.51283 0.98432 0.88082 0.0
H464 H 0.70709 0.53773 0.12532 0.0
H465 H 0.67813 0.53737 0.04139 0.0
H466 H 0.64538 0.50758 0.21891 0.0
H467 H 0.67428 0.50826 0.30312 0.0
H468 H 0.657 0.50624 0.9848 0.0
H469 H 0.60918 0.55288 0.16663 0.0
H470 H 0.63519 0.55086 0.18268 0.0
H471 H 0.61894 0.53187 0.2155 0.0
C472 C 0.69365 0.53119 0.14623 0.0
C473 C 0.69276 0.52312 0.22045 0.0
C474 C 0.67713 0.53096 0.09838 0.0
C475 C 0.65941 0.52276 0.12415 0.0
C476 C 0.65868 0.51442 0.19825 0.0
H477 H 0.54555 0.50671 0.89768 0.0
H478 H 0.57287 0.50663 0.98992 0.0
C479 C 0.67521 0.51467 0.24611 0.0
C480 C 0.64191 0.52254 0.0727 0.0
H481 H 0.59443 0.53803 0.05763 0.0
C482 C 0.64335 0.51324 1.00074 0.0
C483 C 0.624 0.5316 0.09344 0.0
C484 C 0.62171 0.54253 0.16844 0.0
C485 C 0.62744 0.51262 0.94938 0.0
C486 C 0.60962 0.52184 0.96974 0.0
C487 C 0.60806 0.53095 0.04204 0.0
C488 C 0.59269 0.52264 0.91567 0.0
C489 C 0.62978 0.50183 0.87405 0.0
C490 C 0.59453 0.53212 0.84421 0.0
C491 C 0.57899 0.53221 0.79175 0.0
C492 C 0.56121 0.52288 0.80962 0.0
C493 C 0.5591 0.51395 0.8822 0.0
C494 C 0.5747 0.51389 0.93487 0.0
H495 H 0.64211 0.49125 0.87612 0.0
H496 H 0.6162 0.49379 0.8588 0.0
H497 H 0.63289 0.51255 0.82754 0.0
H498 H 0.60808 0.53934 0.82869 0.0
H499 H 0.58102 0.53935 0.73658 0.0
H500 H 0.98891 0.70758 0.15048 0.0
H501 H 0.98922 0.67908 0.06389 0.0
H502 H 0.01931 0.64537 0.23753 0.0
H503 H 0.01865 0.6738 0.32447 0.0
H504 H 0.02014 0.65876 0.0041 0.0
H505 H 0.97477 0.60874 0.18212 0.0
H506 H 0.97654 0.63466 0.2015 0.0
H507 H 0.99577 0.61837 0.23131 0.0
C508 C 0.99546 0.69401 0.17006 0.0
C509 C 1.00362 0.69273 0.244 0.0
C510 C 0.99567 0.67775 0.12065 0.0
C511 C 1.00398 0.65989 0.14444 0.0
C512 C 0.01238 0.65877 0.21833 0.0
H513 H 0.02144 0.54788 0.90327 0.0
H514 H 0.02117 0.57445 0.99909 0.0
C515 C 0.01213 0.67504 0.26778 0.0
C516 C 1.00434 0.64272 0.09097 0.0
H517 H 0.98964 0.59499 0.07103 0.0
C518 C 0.01341 0.64485 0.01878 0.0
C519 C 0.99566 0.62446 0.10998 0.0
C520 C 0.98497 0.6214 0.18512 0.0
C521 C 0.01414 0.62931 0.96555 0.0
C522 C 1.00529 0.61114 0.98419 0.0
C523 C 0.99643 0.60889 0.05671 0.0
C524 C 1.00464 0.59457 0.9281 0.0
C525 C 0.02467 0.63242 0.89007 0.0
C526 C 0.99497 0.59679 0.85725 0.0
C527 C 0.99507 0.58167 0.80276 0.0
C528 C 1.00478 0.56392 0.81787 0.0
C529 C 0.01388 0.56141 0.88987 0.0
C530 C 0.01375 0.57658 0.9446 0.0
H531 H 0.03504 0.64494 0.89311 0.0
H532 H 0.03289 0.61909 0.87289 0.0
H533 H 0.01379 0.63568 0.84441 0.0
H534 H 0.98746 0.61033 0.84374 0.0
H535 H 0.98779 0.58402 0.74812 0.0
H536 H 0.95871 0.23934 0.20753 0.0
H537 H 0.94794 0.221 0.31913 0.0
H538 H 0.99268 0.24866 0.45711 0.0
H539 H 1.0044 0.26615 0.34301 0.0
H540 H 0.9989 0.21274 0.45699 0.0
H541 H 0.92071 0.21772 0.51621 0.0
H542 H 0.9227 0.21504 0.41409 0.0
H543 H 0.93309 0.23637 0.46056 0.0
C544 C 0.96584 0.24202 0.26229 0.0
C545 C 0.98276 0.25367 0.26611 0.0
C546 C 0.95943 0.23174 0.32687 0.0
C547 C 0.9695 0.23328 0.39718 0.0
C548 C 0.98471 0.24711 0.40352 0.0
H549 H 0.98187 0.1203 0.63234 0.0
H550 H 0.97676 0.15581 0.63545 0.0
C551 C 0.99137 0.25718 0.33828 0.0
C552 C 0.96764 0.21708 0.45408 0.0
H553 H 0.93429 0.1831 0.51432 0.0
C554 C 0.98476 0.2067 0.47254 0.0
C555 C 0.9493 0.20912 0.47561 0.0
C556 C 0.93049 0.22037 0.46612 0.0
C557 C 0.98395 0.1876 0.5019 0.0
C558 C 0.96549 0.17871 0.51356 0.0
C559 C 0.94842 0.18983 0.50376 0.0
C560 C 0.96389 0.15721 0.52182 0.0
C561 C 1.00283 0.17643 0.51271 0.0
C562 C 0.95728 0.14616 0.45873 0.0
C563 C 0.9601 0.1259 0.45683 0.0
C564 C 0.96967 0.11644 0.5179 0.0
C565 C 0.9748 0.12733 0.58379 0.0
C566 C 0.97182 0.14756 0.58589 0.0
H567 H 0.01582 0.18497 0.49389 0.0
H568 H 1.0047 0.17274 0.57453 0.0
H569 H 1.00243 0.1625 0.47969 0.0
H570 H 0.95118 0.15338 0.40859 0.0
H571 H 0.95601 0.11787 0.40545 0.0
H572 H 0.26725 0.9518 0.18975 0.0
H573 H 0.28737 0.93242 0.27798 0.0
H574 H 0.29584 0.98378 0.41952 0.0
H575 H 0.27493 1.00253 0.33414 0.0
H576 H 0.32257 0.94188 0.27172 0.0
H577 H 0.306 0.9446 0.57916 0.0
H578 H 0.28723 0.94905 0.50797 0.0
H579 H 0.3022 0.96891 0.54398 0.0
C580 C 0.27232 0.95845 0.24278 0.0
C581 C 0.26963 0.97855 0.25573 0.0
C582 C 0.28393 0.94744 0.29299 0.0
C583 C 0.29337 0.95658 0.35539 0.0
C584 C 0.28851 0.9761 0.37323 0.0
H585 H 0.39777 0.99506 0.46575 0.0
H586 H 0.36408 0.98345 0.45582 0.0
C587 C 0.27658 0.98695 0.324 0.0
C588 C 0.31196 0.94841 0.38611 0.0
H589 H 0.34127 0.95249 0.5443 0.0
C590 C 0.32642 0.94329 0.33205 0.0
C591 C 0.31719 0.94998 0.46474 0.0
C592 C 0.30217 0.95323 0.52703 0.0
C593 C 0.34621 0.9425 0.35259 0.0
C594 C 0.35162 0.94684 0.42919 0.0
C595 C 0.33706 0.94952 0.4852 0.0
C596 C 0.37187 0.95281 0.44714 0.0
C597 C 0.36135 0.93921 0.29052 0.0
C598 C 0.38736 0.93934 0.44658 0.0
C599 C 0.40671 0.94599 0.45162 0.0
C600 C 0.41073 0.96617 0.45663 0.0
C601 C 0.3951 0.97947 0.46024 0.0
C602 C 0.37587 0.97284 0.4557 0.0
H603 H 0.35465 0.93657 0.23313 0.0
H604 H 0.37115 0.95215 0.28628 0.0
H605 H 0.37049 0.92634 0.30557 0.0
H606 H 0.38451 0.92383 0.43985 0.0
H607 H 0.41851 0.93543 0.44899 0.0
H608 H 0.51666 0.2779 0.31672 0.0
H609 H 0.53257 0.2993 0.41024 0.0
H610 H 0.58747 0.29238 0.29059 0.0
H611 H 0.57119 0.27178 0.1942 0.0
H612 H 0.56415 0.30518 0.50747 0.0
H613 H 0.57176 0.34758 0.23397 0.0
H614 H 0.55875 0.32469 0.23794 0.0
H615 H 0.58507 0.32499 0.23894 0.0
C616 C 0.53232 0.28017 0.3127 0.0
C617 C 0.54272 0.27349 0.24826 0.0
C618 C 0.54143 0.29243 0.36607 0.0
C619 C 0.56104 0.29796 0.3557 0.0
C620 C 0.57219 0.28869 0.29833 0.0
H621 H 0.58846 0.41892 0.47196 0.0
H622 H 0.59685 0.38436 0.4536 0.0
C623 C 0.56296 0.27678 0.24379 0.0
C624 C 0.56795 0.31632 0.39223 0.0
H625 H 0.57596 0.36438 0.34821 0.0
C626 C 0.56722 0.31806 0.47285 0.0
C627 C 0.57183 0.33318 0.34686 0.0
C628 C 0.57178 0.33267 0.25971 0.0
C629 C 0.56915 0.33639 0.50893 0.0
C630 C 0.57177 0.35331 0.46305 0.0
C631 C 0.57405 0.35134 0.38321 0.0
C632 C 0.56889 0.37338 0.49329 0.0
C633 C 0.56758 0.33759 0.59542 0.0
C634 C 0.55057 0.37863 0.52342 0.0
C635 C 0.54573 0.39831 0.5336 0.0
C636 C 0.55909 0.4131 0.51338 0.0
C637 C 0.5779 0.40781 0.48818 0.0
C638 C 0.58273 0.38809 0.47785 0.0
H639 H 0.57284 0.32387 0.62292 0.0
H640 H 0.57609 0.35015 0.61855 0.0
H641 H 0.552 0.33956 0.61171 0.0
H642 H 0.53949 0.3676 0.53409 0.0
H643 H 0.53124 0.40199 0.55429 0.0
H644 H 0.22889 0.49708 0.31208 0.0
H645 H 0.21306 0.50902 0.42858 0.0
H646 H 0.25183 0.55894 0.43201 0.0
H647 H 0.26738 0.54726 0.31295 0.0
H648 H 0.22055 0.52277 0.57932 0.0
H649 H 0.19928 0.58329 0.37909 0.0
H650 H 0.21211 0.56211 0.34362 0.0
H651 H 0.22466 0.57986 0.40204 0.0
C652 C 0.23439 0.51033 0.33883 0.0
C653 C 0.24894 0.52155 0.30258 0.0
C654 C 0.22547 0.51707 0.40585 0.0
C655 C 0.23094 0.53513 0.43787 0.0
C656 C 0.24715 0.54516 0.40728 0.0
H657 H 0.12009 0.58242 0.58224 0.0
H658 H 0.15583 0.58297 0.59479 0.0
C659 C 0.25607 0.53842 0.3396 0.0
C660 C 0.21698 0.54472 0.49113 0.0
H661 H 0.17786 0.57538 0.47727 0.0
C662 C 0.21157 0.53477 0.55876 0.0
C663 C 0.20544 0.56067 0.46531 0.0
C664 C 0.21053 0.57215 0.39357 0.0
C665 C 0.19366 0.53869 0.5953 0.0
C666 C 0.18084 0.5526 0.56226 0.0
C667 C 0.18757 0.56448 0.50182 0.0
C668 C 0.15941 0.55185 0.57516 0.0
C669 C 0.18806 0.52692 0.66551 0.0
C670 C 0.14952 0.53417 0.56131 0.0
C671 C 0.12925 0.53385 0.55385 0.0
C672 C 0.11839 0.55125 0.55918 0.0
C673 C 0.12812 0.5688 0.57753 0.0
C674 C 0.1485 0.56911 0.5851 0.0
H675 H 0.20102 0.52452 0.70296 0.0
H676 H 0.17644 0.53424 0.69971 0.0
H677 H 0.18271 0.51228 0.64722 0.0
H678 H 0.15753 0.52073 0.55126 0.0
H679 H 0.1221 0.52002 0.54166 0.0
H680 H 1.01136 0.75477 0.0876 0.0
H681 H 0.01834 0.77087 0.96469 0.0
H682 H 0.06489 0.80359 0.07323 0.0
H683 H 0.05858 0.7869 0.19373 0.0
H684 H 1.00909 0.80646 0.96641 0.0
H685 H 0.08414 0.80724 0.8612 0.0
H686 H 0.07545 0.78771 0.9228 0.0
H687 H 0.08612 0.80967 0.9634 0.0
C688 C 0.02381 0.76456 0.08376 0.0
C689 C 0.03412 0.77007 0.15031 0.0
C690 C 0.02779 0.77378 0.01345 0.0
C691 C 0.04199 0.78868 0.00936 0.0
C692 C 0.05405 0.79202 0.07362 0.0
H693 H 0.05118 0.90188 0.01949 0.0
H694 H 0.05479 0.86658 0.00408 0.0
C695 C 0.05023 0.78267 0.14332 0.0
C696 C 0.04035 0.80445 0.95073 0.0
H697 H 0.0687 0.84117 0.87792 0.0
C698 C 0.02203 0.81362 0.94367 0.0
C699 C 0.05704 0.81379 0.91946 0.0
C700 C 0.07671 0.80386 0.91658 0.0
C701 C 0.02048 0.83304 0.91843 0.0
C702 C 0.0377 0.84337 0.89878 0.0
C703 C 0.05558 0.83333 0.89493 0.0
C704 C 0.0379 0.865 0.8988 0.0
C705 C 1.00078 0.84302 0.9218 0.0
C706 C 0.02741 0.87582 0.84411 0.0
C707 C 0.02513 0.89603 0.8533 0.0
C708 C 0.03354 0.90578 0.91669 0.0
C709 C 0.04469 0.89493 0.9696 0.0
C710 C 0.04683 0.87474 0.96069 0.0
H711 H 0.98907 0.83315 0.94346 0.0
H712 H 1.00151 0.85607 0.95988 0.0
H713 H 0.9966 0.84806 0.86331 0.0
H714 H 0.02049 0.86856 0.79574 0.0
H715 H 0.0166 0.90397 0.81121 0.0
H716 H 0.77073 0.03974 0.09845 0.0
H717 H 0.75608 0.04987 0.97524 0.0
H718 H 0.71509 1.00188 0.99133 0.0
H719 H 0.72995 0.99155 0.11187 0.0
H720 H 0.72388 1.01169 0.83835 0.0
H721 H 0.70465 0.07796 0.01162 0.0
H722 H 0.72983 0.07258 0.99067 0.0
H723 H 0.71649 0.05749 0.05747 0.0
C724 C 0.75907 0.03101 0.07378 0.0
C725 C 0.75108 0.01517 0.11499 0.0
C726 C 0.75067 0.03684 0.0038 0.0
C727 C 0.73418 0.02693 0.97516 0.0
C728 C 0.72775 1.00982 0.0123 0.0
H729 H 0.62758 1.00829 0.91177 0.0
H730 H 0.66273 1.01023 0.89492 0.0
C731 C 0.73612 1.004 0.08158 0.0
C732 C 0.72089 0.03582 0.91761 0.0
H733 H 0.68163 0.06647 0.92439 0.0
C734 C 0.71505 0.02421 0.85483 0.0
C735 C 0.7096 0.05246 0.93768 0.0
C736 C 0.71535 0.06592 0.00291 0.0
C737 C 0.69668 0.02687 0.8205 0.0
C738 C 0.68402 0.04136 0.85022 0.0
C739 C 0.69127 0.05508 0.90301 0.0
C740 C 0.66254 0.0393 0.84481 0.0
C741 C 0.6902 0.01293 0.75818 0.0
C742 C 0.65068 0.0551 0.8231 0.0
C743 C 0.63037 0.05399 0.83227 0.0
C744 C 0.62165 0.03719 0.86489 0.0
C745 C 0.63364 0.0213 0.88517 0.0
C746 C 0.65382 0.02233 0.87505 0.0
H747 H 0.7027 1.009 0.7203 0.0
H748 H 0.68474 0.99921 0.78502 0.0
H749 H 0.67834 0.01932 0.72249 0.0
H750 H 0.65717 0.06843 0.80071 0.0
H751 H 0.62155 0.06635 0.8144 0.0
H752 H 0.52827 0.7323 0.10684 0.0
H753 H 0.51704 0.71619 0.99078 0.0
H754 H 0.46962 0.75771 0.97171 0.0
H755 H 0.48061 0.77349 0.09123 0.0
H756 H 0.4549 0.72409 0.97631 0.0
H757 H 0.5132 0.71614 0.76597 0.0
H758 H 0.5248 0.71098 0.85591 0.0
H759 H 0.51438 0.73498 0.83904 0.0
C760 C 0.51586 0.73842 0.07633 0.0
C761 C 0.5051 0.75387 0.10838 0.0
C762 C 0.50956 0.72938 0.00896 0.0
C763 C 0.49249 0.73575 0.97145 0.0
C764 C 0.48286 0.75254 0.99926 0.0
H765 H 0.4745 0.62344 0.7577 0.0
H766 H 0.47242 0.65908 0.74883 0.0
C767 C 0.48916 0.76158 0.06737 0.0
C768 C 0.48268 0.72207 0.91717 0.0
H769 H 0.49623 0.68388 0.80317 0.0
C770 C 0.46368 0.71577 0.93586 0.0
C771 C 0.49339 0.71154 0.86105 0.0
C772 C 0.51247 0.71902 0.82891 0.0
C773 C 0.45675 0.69751 0.91099 0.0
C774 C 0.46942 0.6851 0.86901 0.0
C775 C 0.48682 0.69292 0.83869 0.0
C776 C 0.46705 0.66348 0.87041 0.0
C777 C 0.43651 0.69116 0.93492 0.0
C778 C 0.46455 0.65397 0.94162 0.0
C779 C 0.46551 0.63362 0.94683 0.0
C780 C 0.46942 0.62227 0.88121 0.0
C781 C 0.47128 0.63171 0.80937 0.0
C782 C 0.47015 0.65213 0.80411 0.0
H783 H 0.42617 0.70368 0.93091 0.0
H784 H 0.43094 0.67897 0.89868 0.0
H785 H 0.43676 0.6864 0.99607 0.0
H786 H 0.46283 0.6623 0.99426 0.0
H787 H 0.46376 0.62684 0.00283 0.0
H788 H 0.77801 0.51261 0.08005 0.0
H789 H 0.79699 0.49495 0.98459 0.0
H790 H 0.78217 0.44018 0.09508 0.0
H791 H 0.76379 0.45827 0.19332 0.0
H792 H 0.81852 0.44467 0.10167 0.0
H793 H 0.80124 0.46148 0.80207 0.0
H794 H 0.80025 0.4844 0.85166 0.0
H795 H 0.78335 0.46507 0.87749 0.0
C796 C 0.77792 0.49673 0.08124 0.0
C797 C 0.76952 0.48672 0.14337 0.0
C798 C 0.78869 0.48653 0.02615 0.0
C799 C 0.79106 0.4661 0.032 0.0
C800 C 0.78055 0.45589 0.08906 0.0
H801 H 0.91184 0.43999 0.87829 0.0
H802 H 0.87725 0.43053 0.89024 0.0
C803 C 0.76997 0.46618 0.14496 0.0
C804 C 0.8083 0.45697 0.99422 0.0
H805 H 0.83738 0.46471 0.8374 0.0
C806 C 0.82228 0.44814 0.04252 0.0
C807 C 0.81338 0.46111 0.91682 0.0
C808 C 0.79857 0.46834 0.85917 0.0
C809 C 0.84179 0.44622 0.01922 0.0
C810 C 0.84739 0.45336 0.94626 0.0
C811 C 0.83304 0.45961 0.8941 0.0
C812 C 0.86791 0.45885 0.93192 0.0
C813 C 0.85676 0.43877 0.07594 0.0
C814 C 0.87391 0.47781 0.95189 0.0
C815 C 0.89352 0.48314 0.9466 0.0
C816 C 0.90755 0.46963 0.92062 0.0
C817 C 0.90142 0.45065 0.89945 0.0
C818 C 0.88169 0.44528 0.90528 0.0
H819 H 0.84983 0.43143 0.12617 0.0
H820 H 0.86681 0.42828 0.04731 0.0
H821 H 0.86567 0.45126 0.09726 0.0
H822 H 0.86343 0.48835 0.97365 0.0
H823 H 0.89772 0.49773 0.96468 0.0
H824 H 0.04184 0.23288 0.00945 0.0
H825 H 0.04653 0.20189 0.93958 0.0
H826 H 0.98442 0.19103 0.94976 0.0
H827 H 0.97966 0.22205 0.0166 0.0
H828 H 0.03981 0.16611 0.99194 0.0
H829 H 0.995 0.17593 0.73171 0.0
H830 H 1.0008 0.19609 0.79473 0.0
H831 H 0.98026 0.1803 0.81532 0.0
C832 C 0.02916 0.22417 0.99449 0.0
C833 C 1.01039 0.22996 0.01872 0.0
C834 C 0.03185 0.20635 0.95517 0.0
C835 C 0.01582 0.19406 0.93855 0.0
C836 C 0.99702 0.20029 0.96009 0.0
H837 H 0.01451 0.06728 0.91092 0.0
H838 H 0.01519 0.10172 0.94942 0.0
C839 C 0.99433 0.21802 0.99904 0.0
C840 C 0.0187 0.17402 0.90531 0.0
H841 H 1.00064 0.14219 0.7707 0.0
C842 C 0.03144 0.16099 0.94284 0.0
C843 C 1.00811 0.16725 0.84034 0.0
C844 C 0.99546 0.18073 0.79282 0.0
C845 C 0.03324 0.1413 0.91952 0.0
C846 C 0.02148 0.13413 0.85839 0.0
C847 C 1.0094 0.1474 0.81861 0.0
C848 C 0.02133 0.11297 0.83516 0.0
C849 C 0.04794 0.12851 0.96043 0.0
C850 C 0.02385 0.1076 0.75758 0.0
C851 C 0.02311 0.08787 0.7352 0.0
C852 C 0.01988 0.07294 0.78982 0.0
C853 C 0.01736 0.07831 0.86744 0.0
C854 C 0.01786 0.09807 0.88965 0.0
H855 H 0.06007 0.13738 0.98497 0.0
H856 H 0.04062 0.12086 0.00895 0.0
H857 H 0.05428 0.11737 0.92109 0.0
H858 H 0.02641 0.1187 0.71406 0.0
H859 H 0.0251 0.08436 0.67489 0.0
H860 H 0.31483 0.0221 0.14125 0.0
H861 H 0.3463 0.02458 0.07525 0.0
H862 H 0.31832 1.01058 0.85955 0.0
H863 H 0.28653 1.00828 0.92599 0.0
H864 H 0.36387 0.99369 1.00118 0.0
H865 H 0.35443 0.05594 0.79819 0.0
H866 H 0.33814 0.05183 0.87858 0.0
H867 H 0.33598 0.0372 0.79303 0.0
C868 C 0.3153 0.01999 0.0794 0.0
C869 C 0.29819 0.01503 0.03876 0.0
C870 C 0.33333 0.02134 0.04173 0.0
C871 C 0.3348 0.01781 0.96227 0.0
C872 C 0.31759 0.01368 0.92065 0.0
H873 H 0.43967 1.00862 0.67029 0.0
H874 H 0.40601 1.00874 0.71869 0.0
C875 C 0.2994 1.01239 0.95855 0.0
C876 C 0.35459 0.01691 0.92556 0.0
H877 H 0.38409 0.03818 0.78965 0.0
C878 C 0.36826 1.00345 0.95493 0.0
C879 C 0.36036 0.02948 0.86469 0.0
C880 C 0.34656 0.04455 0.83195 0.0
C881 C 0.38743 1.00228 0.92572 0.0
C882 C 0.39338 0.01518 0.86622 0.0
C883 C 0.37961 0.02835 0.8355 0.0
C884 C 0.41392 0.01542 0.83644 0.0
C885 C 0.40106 0.987 0.95836 0.0
C886 C 0.42968 0.01938 0.88608 0.0
C887 C 0.44899 0.01928 0.85867 0.0
C888 C 0.45305 0.01535 0.78065 0.0
C889 C 0.4372 1.01166 0.73076 0.0
C890 C 0.41788 1.01176 0.75831 0.0
H891 H 0.39287 0.97485 0.98632 0.0
H892 H 0.4106 0.98075 0.91279 0.0
H893 H 0.41052 0.99387 0.0027 0.0
H894 H 0.42705 0.02265 0.94625 0.0
H895 H 0.46072 0.02234 0.89883 0.0
H896 H 0.54596 0.30185 0.98474 0.0
H897 H 0.54339 0.33399 0.92306 0.0
H898 H 0.48092 0.33322 0.95699 0.0
H899 H 0.48343 0.30081 0.01839 0.0
H900 H 0.49278 0.35031 0.81348 0.0
H901 H 0.53344 0.38202 0.06029 0.0
H902 H 0.54612 0.36248 0.01239 0.0
H903 H 0.52354 0.35751 0.06195 0.0
C904 C 0.53161 0.30833 0.97755 0.0
C905 C 0.5149 0.29882 0.00683 0.0
C906 C 0.53018 0.32678 0.94278 0.0
C907 C 0.51203 0.33629 0.93706 0.0
C908 C 0.49511 0.32625 0.96122 0.0
H909 H 0.49865 0.46301 0.89944 0.0
H910 H 0.49809 0.42861 0.93895 0.0
C911 C 0.49653 0.30767 0.99583 0.0
C912 C 0.51101 0.35712 0.91084 0.0
H913 H 0.52735 0.40317 0.95478 0.0
C914 C 0.50029 0.36189 0.8444 0.0
C915 C 0.52055 0.37233 0.95182 0.0
C916 C 0.53141 0.36843 0.02598 0.0
C917 C 0.49919 0.38133 0.81707 0.0
C918 C 0.50931 0.39645 0.85667 0.0
C919 C 0.51972 0.39166 0.92385 0.0
C920 C 0.50907 0.41736 0.83065 0.0
C921 C 0.48688 0.38553 0.7469 0.0
C922 C 0.5156 0.4227 0.75669 0.0
C923 C 0.51582 0.44243 0.73372 0.0
C924 C 0.50977 0.45734 0.78454 0.0
C925 C 0.50342 0.45197 0.85874 0.0
C926 C 0.50308 0.43225 0.88145 0.0
H927 H 0.47581 0.37387 0.73708 0.0
H928 H 0.47921 0.3998 0.75236 0.0
H929 H 0.49647 0.38617 0.69536 0.0
H930 H 0.52082 0.41165 0.71694 0.0
H931 H 0.52098 0.44597 0.67634 0.0
H932 H 0.23591 0.53093 0.95203 0.0
H933 H 0.2049 0.53152 0.8794 0.0
H934 H 0.18061 0.48868 0.03487 0.0
H935 H 0.21134 0.48787 0.10659 0.0
H936 H 0.1784 0.49715 0.81416 0.0
H937 H 0.14681 0.54179 0.05111 0.0
H938 H 0.17282 0.54029 0.0335 0.0
H939 H 0.16032 0.52042 0.08017 0.0
C940 C 0.22412 0.52125 0.96925 0.0
C941 C 0.22601 0.50949 0.03551 0.0
C942 C 0.2064 0.52168 0.92803 0.0
C943 C 0.19036 0.51035 0.95252 0.0
C944 C 0.19271 0.49769 0.01545 0.0
H945 H 0.06577 0.50046 0.89714 0.0
H946 H 0.10012 0.50005 0.93635 0.0
C947 C 0.2103 0.49724 0.05637 0.0
C948 C 0.17063 0.51269 0.91738 0.0
H949 H 0.12462 0.52899 0.95961 0.0
C950 C 0.16663 0.50427 0.84534 0.0
C951 C 0.15534 0.52201 0.95818 0.0
C952 C 0.15895 0.5318 0.03481 0.0
C953 C 0.14751 0.50413 0.81467 0.0
C954 C 0.13203 0.513 0.85668 0.0
C955 C 0.13631 0.522 0.92754 0.0
C956 C 0.11117 0.51264 0.8303 0.0
C957 C 0.144 0.4937 0.73929 0.0
C958 C 0.10572 0.51988 0.75761 0.0
C959 C 0.08606 0.51979 0.73454 0.0
C960 C 0.07125 0.51297 0.78431 0.0
C961 C 0.07671 0.50588 0.85729 0.0
C962 C 0.0964 0.50567 0.87984 0.0
H963 H 0.15592 0.48317 0.7259 0.0
H964 H 0.12989 0.48565 0.74001 0.0
H965 H 0.14353 0.50464 0.69207 0.0
H966 H 0.11661 0.52589 0.71895 0.0
H967 H 0.08245 0.52526 0.67784 0.0
H968 H 0.9941 0.813 0.30025 0.0
H969 H 0.99266 0.84478 0.3649 0.0
H970 H 0.02141 0.82003 0.56339 0.0
H971 H 0.02308 0.78803 0.49787 0.0
H972 H 0.97673 0.85795 0.50381 0.0
H973 H 0.05772 0.86552 0.50272 0.0
H974 H 0.04522 0.84693 0.44755 0.0
H975 H 0.04827 0.84404 0.54972 0.0
C976 C 0.99985 0.81424 0.3582 0.0
C977 C 1.0088 0.79802 0.39382 0.0
C978 C 0.99904 0.83244 0.39511 0.0
C979 C 1.00728 0.83499 0.46847 0.0
C980 C 0.01529 0.81856 0.50616 0.0
H981 H 0.02769 0.94314 0.72836 0.0
H982 H 0.02659 0.90925 0.68299 0.0
C983 C 0.01603 0.80021 0.46917 0.0
C984 C 1.00807 0.85507 0.50298 0.0
H985 H 0.03969 0.89162 0.55551 0.0
C986 C 0.9905 0.86528 0.51545 0.0
C987 C 0.02603 0.86472 0.51811 0.0
C988 C 0.04542 0.85487 0.50339 0.0
C989 C 0.99038 0.88474 0.54264 0.0
C990 C 1.00835 0.89456 0.55604 0.0
C991 C 0.02591 0.88422 0.54492 0.0
C992 C 1.00927 0.91548 0.58191 0.0
C993 C 0.97095 0.89446 0.55795 0.0
C994 C 1.00054 0.93056 0.53863 0.0
C995 C 1.00141 0.95012 0.56368 0.0
C996 C 1.01099 0.95508 0.63279 0.0
C997 C 0.01999 0.93996 0.67528 0.0
C998 C 0.01932 0.92049 0.64962 0.0
H999 H 0.95913 0.8835 0.56676 0.0
H1000 H 0.97169 0.90406 0.6095 0.0
H1001 H 0.96691 0.90361 0.50754 0.0
H1002 H 0.99317 0.92725 0.48499 0.0
H1003 H 0.99442 0.96132 0.52911 0.0
H1004 H 0.7313 0.97931 0.42525 0.0
H1005 H 0.6995 0.97808 0.49219 0.0
H1006 H 0.68738 0.0372 0.41902 0.0
H1007 H 0.71895 0.03844 0.35255 0.0
H1008 H 0.67555 0.02878 0.57471 0.0
H1009 H 0.64808 0.97389 0.36399 0.0
H1010 H 0.67027 0.96775 0.41412 0.0
H1011 H 0.6701 0.98791 0.34766 0.0
C1012 C 0.72205 0.99219 0.42537 0.0
C1013 C 0.72763 1.00899 0.38383 0.0
C1014 C 0.70379 0.99141 0.46282 0.0
C1015 C 0.69086 1.00745 0.45966 0.0
C1016 C 0.697 0.02462 0.42217 0.0
H1017 H 0.56451 0.01537 0.49068 0.0
H1018 H 0.59904 0.01389 0.45253 0.0
C1019 C 0.71509 0.02533 0.38436 0.0
C1020 C 0.67048 1.00619 0.49074 0.0
H1021 H 0.62598 0.98462 0.45884 0.0
C1022 C 0.66474 0.01899 0.54995 0.0
C1023 C 0.65627 0.99365 0.4576 0.0
C1024 C 0.66133 0.98009 0.39193 0.0
C1025 C 0.64526 0.01966 0.57662 0.0
C1026 C 0.63101 1.0071 0.54344 0.0
C1027 C 0.63681 0.99422 0.48452 0.0
C1028 C 0.60991 1.00756 0.56702 0.0
C1029 C 0.64001 0.03425 0.63852 0.0
C1030 C 0.6043 1.00406 0.64373 0.0
C1031 C 0.58456 1.00494 0.66551 0.0
C1032 C 0.56987 1.00923 0.61134 0.0
C1033 C 0.57541 1.0121 0.53407 0.0
C1034 C 0.59519 1.01129 0.51222 0.0
H1035 H 0.65126 0.04591 0.64429 0.0
H1036 H 0.62566 0.04122 0.62656 0.0
H1037 H 0.63896 0.0265 0.69456 0.0
H1038 H 0.61517 1.00051 0.68688 0.0
H1039 H 0.58072 1.00197 0.72471 0.0
H1040 H 0.48321 0.72027 0.33455 0.0
H1041 H 0.48437 0.68989 0.40823 0.0
H1042 H 0.53845 0.70836 0.51348 0.0
H1043 H 0.53757 0.73886 0.43758 0.0
H1044 H 0.54106 0.67135 0.45573 0.0
H1045 H 0.47351 0.67638 0.62948 0.0
H1046 H 0.46891 0.68073 0.52939 0.0
H1047 H 0.48428 0.69737 0.58262 0.0
C1048 C 0.4952 0.71805 0.3744 0.0
C1049 C 0.51032 0.732 0.38005 0.0
C1050 C 0.49577 0.70068 0.41709 0.0
C1051 C 0.51136 0.6968 0.46741 0.0
C1052 C 0.52618 0.71102 0.47543 0.0
H1053 H 0.509 0.58836 0.74407 0.0
H1054 H 0.50991 0.62281 0.70489 0.0
C1055 C 0.5256 0.72853 0.43255 0.0
C1056 C 0.51285 0.67722 0.5058 0.0
H1057 H 0.4867 0.64392 0.61165 0.0
C1058 C 0.52928 0.66547 0.49068 0.0
C1059 C 0.49765 0.66951 0.55242 0.0
C1060 C 0.4802 0.68173 0.57515 0.0
C1061 C 0.53051 0.64604 0.51769 0.0
C1062 C 0.51469 0.63787 0.55976 0.0
C1063 C 0.49869 0.64994 0.57821 0.0
C1064 C 0.51432 0.61679 0.58374 0.0
C1065 C 0.54884 0.6345 0.5009 0.0
C1066 C 0.51625 0.60175 0.52884 0.0
C1067 C 0.51593 0.58199 0.55114 0.0
C1068 C 0.51338 0.57672 0.62891 0.0
C1069 C 0.51107 0.5918 0.68368 0.0
C1070 C 0.51154 0.61156 0.66134 0.0
H1071 H 0.56158 0.64433 0.49132 0.0
H1072 H 0.55237 0.62429 0.54873 0.0
H1073 H 0.54665 0.62581 0.44759 0.0
H1074 H 0.51787 0.60528 0.46834 0.0
H1075 H 0.51754 0.57084 0.50721 0.0
H1076 H 0.81441 0.52706 0.2758 0.0
H1077 H 0.84541 0.52964 0.3448 0.0
H1078 H 0.81671 0.51236 0.55546 0.0
H1079 H 0.78547 0.50937 0.48564 0.0
H1080 H 0.85785 0.55139 0.47008 0.0
H1081 H 0.86041 0.47165 0.53557 0.0
H1082 H 0.84319 0.48193 0.46799 0.0
H1083 H 0.83917 0.48449 0.56978 0.0
C1084 C 0.81464 0.52395 0.33702 0.0
C1085 C 0.79751 0.51779 0.37509 0.0
C1086 C 0.83239 0.52547 0.37647 0.0
C1087 C 0.83356 0.52081 0.45507 0.0
C1088 C 0.81628 0.51564 0.49444 0.0
H1089 H 0.94037 0.50827 0.73359 0.0
H1090 H 0.90623 0.51005 0.69214 0.0
C1091 C 0.79839 0.51416 0.45479 0.0
C1092 C 0.85308 0.5208 0.49381 0.0
H1093 H 0.88721 0.49066 0.57591 0.0
C1094 C 0.8642 0.53813 0.49371 0.0
C1095 C 0.86145 0.50351 0.52472 0.0
C1096 C 0.85057 0.48427 0.52423 0.0
C1097 C 0.88342 0.53862 0.5228 0.0
C1098 C 0.89201 0.5212 0.55146 0.0
C1099 C 0.8807 0.504 0.55369 0.0
C1100 C 0.91287 0.52037 0.57715 0.0
C1101 C 0.8943 0.55786 0.52288 0.0
C1102 C 0.92812 0.52526 0.52626 0.0
C1103 C 0.9477 0.52431 0.55005 0.0
C1104 C 0.95254 0.51829 0.62526 0.0
C1105 C 0.93725 0.51313 0.67569 0.0
C1106 C 0.91766 0.51409 0.6519 0.0
H1107 H 0.88408 0.57051 0.52169 0.0
H1108 H 0.90385 0.55921 0.57435 0.0
H1109 H 0.90363 0.55874 0.47066 0.0
H1110 H 0.9249 0.52967 0.46768 0.0
H1111 H 0.95903 0.52827 0.50928 0.0
loop_
_geom_bond_atom_site_label_1
_geom_bond_atom_site_label_2
_geom_bond_distance
_geom_bond_site_symmetry_2
_ccdc_geom_bond_type
H0 C3 0.929 . S
H1 C6 0.929 . S
H2 C8 0.930 . S
C3 H0 0.929 . S
C3 C4 1.398 . S
C3 C5 1.396 . S
C4 C3 1.398 . S
C4 C8 1.407 . S
C5 C3 1.396 . S
C5 C6 1.394 . S
C6 H1 0.929 . S
C6 C5 1.394 . S
C6 C7 1.382 . S
C7 C6 1.382 . S
C7 C8 1.392 . S
C7 N9 1.420 . S
C8 H2 0.930 . S
C8 C4 1.407 . S
C8 C7 1.392 . S
N9 C7 1.420 . S
N9 C10 1.244 . S
C10 N9 1.244 . S
H11 C14 0.929 . S
H12 C17 0.929 . S
H13 C19 0.930 . S
C14 H11 0.929 . S
C14 C15 1.398 . S
C14 C16 1.397 . S
C15 C14 1.398 . S
C15 C19 1.408 1_655 S
C16 C14 1.397 . S
C16 C17 1.392 1_655 S
C17 H12 0.929 . S
C17 C16 1.392 1_455 S
C17 C18 1.382 . S
C18 C17 1.382 . S
C18 C19 1.392 . S
C18 N20 1.420 . S
C19 H13 0.930 . S
C19 C15 1.408 1_455 S
C19 C18 1.392 . S
N20 C18 1.420 . S
N20 C21 1.244 1_455 S
C21 N20 1.244 1_655 S
H22 C25 0.929 . S
H23 C28 0.929 . S
H24 C30 0.930 . S
C25 H22 0.929 . S
C25 C26 1.400 . S
C25 C27 1.399 . S
C26 C25 1.400 . S
C26 C30 1.405 1_565 S
C27 C25 1.399 . S
C27 C28 1.389 1_565 S
C28 H23 0.929 . S
C28 C27 1.389 1_545 S
C28 C29 1.382 . S
C29 C28 1.382 . S
C29 C30 1.392 . S
C29 N31 1.420 . S
C30 H24 0.930 . S
C30 C26 1.405 1_545 S
C30 C29 1.392 . S
N31 C29 1.420 . S
N31 C32 1.244 1_545 S
C32 N31 1.244 1_565 S
H33 C36 0.929 . S
H34 C39 0.929 . S
H35 C41 0.930 . S
C36 H33 0.929 . S
C36 C37 1.398 . S
C36 C38 1.396 . S
C37 C36 1.398 . S
C37 C41 1.407 . S
C38 C36 1.396 . S
C38 C39 1.394 . S
C39 H34 0.929 . S
C39 C38 1.394 . S
C39 C40 1.382 . S
C40 C39 1.382 . S
C40 C41 1.392 . S
C40 N42 1.420 . S
C41 H35 0.930 . S
C41 C37 1.407 . S
C41 C40 1.392 . S
N42 C40 1.420 . S
N42 C43 1.244 . S
C43 N42 1.244 . S
H44 C47 0.929 . S
H45 C50 0.929 . S
H46 C52 0.930 . S
C47 H44 0.929 . S
C47 C48 1.398 1_554 S
C47 C49 1.396 . S
C48 C47 1.398 1_556 S
C48 C52 1.407 . S
C49 C47 1.396 . S
C49 C50 1.394 . S
C50 H45 0.929 . S
C50 C49 1.394 . S
C50 C51 1.382 . S
C51 C50 1.382 . S
C51 C52 1.392 1_554 S
C51 N53 1.420 . S
C52 H46 0.930 . S
C52 C48 1.407 . S
C52 C51 1.392 1_556 S
N53 C51 1.420 . S
N53 C54 1.244 . S
C54 N53 1.244 . S
H55 C58 0.929 . S
H56 C61 0.929 . S
H57 C63 0.930 . S
C58 H55 0.929 . S
C58 C59 1.398 1_654 S
C58 C60 1.396 1_655 S
C59 C58 1.398 1_456 S
C59 C63 1.407 . S
C60 C58 1.396 1_455 S
C60 C61 1.394 . S
C61 H56 0.929 . S
C61 C60 1.394 . S
C61 C62 1.382 . S
C62 C61 1.382 . S
C62 C63 1.392 1_554 S
C62 N64 1.420 . S
C63 H57 0.930 . S
C63 C59 1.407 . S
C63 C62 1.392 1_556 S
N64 C62 1.420 . S
N64 C65 1.272 . S
C65 N64 1.272 . S
H66 C69 0.933 . S
H67 C72 0.929 . S
H68 C74 0.930 . S
C69 H66 0.933 . S
C69 C70 1.396 1_564 S
C69 C71 1.394 1_565 S
C70 C69 1.396 1_546 S
C70 C74 1.407 . S
C71 C69 1.394 1_545 S
C71 C72 1.394 . S
C72 H67 0.929 . S
C72 C71 1.394 . S
C72 C73 1.382 . S
C73 C72 1.382 . S
C73 C74 1.392 1_554 S
C73 N75 1.420 . S
C74 H68 0.930 . S
C74 C70 1.407 . S
C74 C73 1.392 1_556 S
N75 C73 1.420 . S
N75 C76 1.262 . S
C76 N75 1.262 . S
H77 C80 0.929 . S
H78 C83 0.929 . S
H79 C85 0.930 . S
C80 H77 0.929 . S
C80 C81 1.398 1_554 S
C80 C82 1.396 . S
C81 C80 1.398 1_556 S
C81 C85 1.407 . S
C82 C80 1.396 . S
C82 C83 1.394 . S
C83 H78 0.929 . S
C83 C82 1.394 . S
C83 C84 1.382 . S
C84 C83 1.382 . S
C84 C85 1.392 1_554 S
C84 N86 1.420 . S
C85 H79 0.930 . S
C85 C81 1.407 . S
C85 C84 1.392 1_556 S
N86 C84 1.420 . S
N86 C87 1.244 . S
C87 N86 1.244 . S
La88 C90 2.928 . S
La88 O108 2.521 . S
La88 O109 2.632 . S
La88 O110 2.554 . S
La88 O111 2.757 1_565 S
La88 O112 2.470 . S
La88 O117 2.482 1_455 S
La88 O119 2.503 1_565 S
La89 C99 2.928 . S
La89 O111 2.482 1_655 S
La89 O113 2.503 1_545 S
La89 O114 2.521 . S
La89 O115 2.619 1_655 S
La89 O116 2.554 . S
La89 O117 2.757 1_545 S
La89 O118 2.470 . S
C90 La88 2.928 . S
C90 C91 1.503 . S
C90 O108 1.261 . S
C90 O109 1.253 . S
C91 C90 1.503 . S
C91 C92 1.394 . S
C91 C96 1.373 . S
C92 C91 1.394 . S
C92 C93 1.380 . S
C92 H120 0.930 . S
C93 C92 1.380 . S
C93 C94 1.376 . S
C93 H121 0.930 . S
C94 C93 1.376 . S
C94 C95 1.370 . S
C95 C94 1.370 . S
C95 C96 1.396 . S
C95 H122 0.929 1_455 S
C96 C91 1.373 . S
C96 C95 1.396 . S
C96 H123 0.929 1_455 S
C97 O110 1.265 . S
C97 O111 1.275 1_565 S
C98 O112 1.258 1_655 S
C98 O113 1.256 . S
C99 La89 2.928 . S
C99 C100 1.503 . S
C99 O114 1.261 . S
C99 O115 1.221 1_655 S
C100 C99 1.503 . S
C100 C101 1.394 . S
C100 C105 1.373 . S
C101 C100 1.394 . S
C101 C102 1.380 . S
C101 H124 0.930 . S
C102 C101 1.380 . S
C102 C103 1.376 . S
C102 H125 0.930 . S
C103 C102 1.376 . S
C103 C104 1.370 . S
C104 C103 1.370 . S
C104 C105 1.396 . S
C104 H126 0.929 1_655 S
C105 C100 1.373 . S
C105 C104 1.396 . S
C105 H127 0.929 1_655 S
C106 O116 1.272 . S
C106 O117 1.271 1_545 S
C107 O118 1.258 1_455 S
C107 O119 1.256 . S
O108 La88 2.521 . S
O108 C90 1.261 . S
O109 La88 2.632 . S
O109 C90 1.253 . S
O110 La88 2.554 . S
O110 C97 1.265 . S
O111 La88 2.757 1_545 S
O111 La89 2.482 1_455 S
O111 C97 1.275 1_545 S
O112 La88 2.470 . S
O112 C98 1.258 1_455 S
O113 La89 2.503 1_565 S
O113 C98 1.256 . S
O114 La89 2.521 . S
O114 C99 1.261 . S
O115 La89 2.619 1_455 S
O115 C99 1.221 1_455 S
O116 La89 2.554 . S
O116 C106 1.272 . S
O117 La88 2.482 1_655 S
O117 La89 2.757 1_565 S
O117 C106 1.271 1_565 S
O118 La89 2.470 . S
O118 C107 1.258 1_655 S
O119 La88 2.503 1_545 S
O119 C107 1.256 . S
H120 C92 0.930 . S
H121 C93 0.930 . S
H122 C95 0.929 1_655 S
H123 C96 0.929 1_655 S
H124 C101 0.930 . S
H125 C102 0.930 . S
H126 C104 0.929 1_455 S
H127 C105 0.929 1_455 S
La128 C130 2.928 . S
La128 O148 2.521 . S
La128 O149 2.626 . S
La128 O150 2.554 . S
La128 O151 2.757 . S
La128 O152 2.470 . S
La128 O157 2.482 1_545 S
La128 O159 2.503 . S
La129 C139 2.928 . S
La129 O151 2.482 1_565 S
La129 O153 2.503 . S
La129 O154 2.521 . S
La129 O155 2.626 1_565 S
La129 O156 2.554 . S
La129 O157 2.757 . S
La129 O158 2.470 . S
C130 La128 2.928 . S
C130 C131 1.503 . S
C130 O148 1.261 . S
C130 O149 1.238 . S
C131 C130 1.503 . S
C131 C132 1.394 . S
C131 C136 1.373 . S
C132 C131 1.394 . S
C132 C133 1.380 . S
C132 H160 0.930 . S
C133 C132 1.380 . S
C133 C134 1.376 . S
C133 H161 0.930 . S
C134 C133 1.376 . S
C134 C135 1.370 . S
C135 C134 1.370 . S
C135 C136 1.396 . S
C135 H162 0.929 1_545 S
C136 C131 1.373 . S
C136 C135 1.396 . S
C136 H163 0.929 1_545 S
C137 O150 1.240 . S
C137 O151 1.289 . S
C138 O152 1.258 1_565 S
C138 O153 1.256 . S
C139 La129 2.928 . S
C139 C140 1.503 . S
C139 O154 1.261 . S
C139 O155 1.238 1_565 S
C140 C139 1.503 . S
C140 C141 1.394 . S
C140 C145 1.373 . S
C141 C140 1.394 . S
C141 C142 1.380 . S
C141 H164 0.930 . S
C142 C141 1.380 . S
C142 C143 1.376 . S
C142 H165 0.930 . S
C143 C142 1.376 . S
C143 C144 1.370 . S
C144 C143 1.370 . S
C144 C145 1.396 . S
C144 H166 0.929 1_565 S
C145 C140 1.373 . S
C145 C144 1.396 . S
C145 H167 0.929 1_565 S
C146 O156 1.240 . S
C146 O157 1.289 . S
C147 O158 1.258 1_545 S
C147 O159 1.256 . S
O148 La128 2.521 . S
O148 C130 1.261 . S
O149 La128 2.626 . S
O149 C130 1.238 . S
O150 La128 2.554 . S
O150 C137 1.240 . S
O151 La128 2.757 . S
O151 La129 2.482 1_545 S
O151 C137 1.289 . S
O152 La128 2.470 . S
O152 C138 1.258 1_545 S
O153 La129 2.503 . S
O153 C138 1.256 . S
O154 La129 2.521 . S
O154 C139 1.261 . S
O155 La129 2.626 1_545 S
O155 C139 1.238 1_545 S
O156 La129 2.554 . S
O156 C146 1.240 . S
O157 La128 2.482 1_565 S
O157 La129 2.757 . S
O157 C146 1.289 . S
O158 La129 2.470 . S
O158 C147 1.258 1_565 S
O159 La128 2.503 . S
O159 C147 1.256 . S
H160 C132 0.930 . S
H161 C133 0.930 . S
H162 C135 0.929 1_565 S
H163 C136 0.929 1_565 S
H164 C141 0.930 . S
H165 C142 0.930 . S
H166 C144 0.929 1_545 S
H167 C145 0.929 1_545 S
La168 C170 2.928 . S
La168 O188 2.521 . S
La168 O189 2.628 . S
La168 O190 2.554 . S
La168 O191 2.757 . S
La168 O192 2.470 . S
La168 O197 2.482 . S
La168 O199 2.503 . S
La169 C179 2.928 . S
La169 O191 2.482 . S
La169 O193 2.503 . S
La169 O194 2.521 . S
La169 O195 2.628 . S
La169 O196 2.554 . S
La169 O197 2.757 . S
La169 O198 2.470 . S
C170 La168 2.928 . S
C170 C171 1.503 . S
C170 O188 1.261 . S
C170 O189 1.243 . S
C171 C170 1.503 . S
C171 C172 1.394 . S
C171 C176 1.373 . S
C172 C171 1.394 . S
C172 C173 1.380 . S
C172 H200 0.930 . S
C173 C172 1.380 . S
C173 C174 1.376 . S
C173 H201 0.930 . S
C174 C173 1.376 . S
C174 C175 1.370 . S
C175 C174 1.370 . S
C175 C176 1.396 . S
C175 H202 0.929 . S
C176 C171 1.373 . S
C176 C175 1.396 . S
C176 H203 0.929 . S
C177 O190 1.240 . S
C177 O191 1.289 . S
C178 O192 1.258 . S
C178 O193 1.256 . S
C179 La169 2.928 . S
C179 C180 1.503 . S
C179 O194 1.261 . S
C179 O195 1.243 . S
C180 C179 1.503 . S
C180 C181 1.394 . S
C180 C185 1.373 . S
C181 C180 1.394 . S
C181 C182 1.380 . S
C181 H204 0.930 . S
C182 C181 1.380 . S
C182 C183 1.376 . S
C182 H205 0.930 . S
C183 C182 1.376 . S
C183 C184 1.370 . S
C184 C183 1.370 . S
C184 C185 1.396 . S
C184 H206 0.929 . S
C185 C180 1.373 . S
C185 C184 1.396 . S
C185 H207 0.929 . S
C186 O196 1.240 . S
C186 O197 1.289 . S
C187 O198 1.258 . S
C187 O199 1.256 . S
O188 La168 2.521 . S
O188 C170 1.261 . S
O189 La168 2.628 . S
O189 C170 1.243 . S
O190 La168 2.554 . S
O190 C177 1.240 . S
O191 La168 2.757 . S
O191 La169 2.482 . S
O191 C177 1.289 . S
O192 La168 2.470 . S
O192 C178 1.258 . S
O193 La169 2.503 . S
O193 C178 1.256 . S
O194 La169 2.521 . S
O194 C179 1.261 . S
O195 La169 2.628 . S
O195 C179 1.243 . S
O196 La169 2.554 . S
O196 C186 1.240 . S
O197 La168 2.482 . S
O197 La169 2.757 . S
O197 C186 1.289 . S
O198 La169 2.470 . S
O198 C187 1.258 . S
O199 La168 2.503 . S
O199 C187 1.256 . S
H200 C172 0.930 . S
H201 C173 0.930 . S
H202 C175 0.929 . S
H203 C176 0.929 . S
H204 C181 0.930 . S
H205 C182 0.930 . S
H206 C184 0.929 . S
H207 C185 0.929 . S
La208 C210 2.928 . S
La208 O228 2.521 . S
La208 O229 2.628 . S
La208 O230 2.554 . S
La208 O231 2.757 1_655 S
La208 O232 2.470 . S
La208 O237 2.482 . S
La208 O239 2.503 1_655 S
La209 C219 2.928 . S
La209 O231 2.482 . S
La209 O233 2.503 1_455 S
La209 O234 2.521 . S
La209 O235 2.628 . S
La209 O236 2.554 . S
La209 O237 2.757 1_455 S
La209 O238 2.470 . S
C210 La208 2.928 . S
C210 C211 1.503 . S
C210 O228 1.261 . S
C210 O229 1.243 . S
C211 C210 1.503 . S
C211 C212 1.394 . S
C211 C216 1.373 . S
C212 C211 1.394 . S
C212 C213 1.380 . S
C212 H240 0.930 . S
C213 C212 1.380 . S
C213 C214 1.376 . S
C213 H241 0.930 . S
C214 C213 1.376 . S
C214 C215 1.370 . S
C215 C214 1.370 . S
C215 C216 1.396 . S
C215 H242 0.929 . S
C216 C211 1.373 . S
C216 C215 1.396 . S
C216 H243 0.929 . S
C217 O230 1.255 . S
C217 O231 1.281 1_655 S
C218 O232 1.258 . S
C218 O233 1.256 . S
C219 La209 2.928 . S
C219 C220 1.503 . S
C219 O234 1.261 . S
C219 O235 1.243 . S
C220 C219 1.503 . S
C220 C221 1.394 . S
C220 C225 1.373 . S
C221 C220 1.394 . S
C221 C222 1.380 . S
C221 H244 0.930 . S
C222 C221 1.380 . S
C222 C223 1.376 . S
C222 H245 0.930 . S
C223 C222 1.376 . S
C223 C224 1.370 . S
C224 C223 1.370 . S
C224 C225 1.396 . S
C224 H246 0.929 . S
C225 C220 1.373 . S
C225 C224 1.396 . S
C225 H247 0.929 . S
C226 O236 1.240 . S
C226 O237 1.289 1_455 S
C227 O238 1.258 . S
C227 O239 1.256 . S
O228 La208 2.521 . S
O228 C210 1.261 . S
O229 La208 2.628 . S
O229 C210 1.243 . S
O230 La208 2.554 . S
O230 C217 1.255 . S
O231 La208 2.757 1_455 S
O231 La209 2.482 . S
O231 C217 1.281 1_455 S
O232 La208 2.470 . S
O232 C218 1.258 . S
O233 La209 2.503 1_655 S
O233 C218 1.256 . S
O234 La209 2.521 . S
O234 C219 1.261 . S
O235 La209 2.628 . S
O235 C219 1.243 . S
O236 La209 2.554 . S
O236 C226 1.240 . S
O237 La208 2.482 . S
O237 La209 2.757 1_655 S
O237 C226 1.289 1_655 S
O238 La209 2.470 . S
O238 C227 1.258 . S
O239 La208 2.503 1_455 S
O239 C227 1.256 . S
H240 C212 0.930 . S
H241 C213 0.930 . S
H242 C215 0.929 . S
H243 C216 0.929 . S
H244 C221 0.930 . S
H245 C222 0.930 . S
H246 C224 0.929 . S
H247 C225 0.929 . S
H248 C256 0.929 . S
H249 C258 0.930 . S
H250 C260 0.930 . S
H251 C263 0.929 . S
H252 C266 0.930 . S
H253 C268 0.960 . S
H254 C268 0.960 . S
H255 C268 0.960 . S
C256 H248 0.929 . S
C256 C257 1.377 . S
C256 C258 1.384 . S
C257 C256 1.377 . S
C257 C263 1.390 1_545 S
C258 H249 0.930 . S
C258 C256 1.384 . S
C258 C259 1.372 . S
C259 C258 1.372 . S
C259 C260 1.400 1_545 S
C259 C264 1.490 . S
C260 H250 0.930 . S
C260 C259 1.400 1_565 S
C260 C263 1.386 . S
H261 C277 0.930 . S
H262 C278 0.931 . S
C263 H251 0.929 . S
C263 C257 1.390 1_565 S
C263 C260 1.386 . S
C264 C259 1.490 . S
C264 C266 1.395 1_545 S
C264 C267 1.403 . S
H265 C271 0.930 . S
C266 H252 0.930 . S
C266 C264 1.395 1_565 S
C266 C269 1.403 . S
C267 C264 1.403 . S
C267 C268 1.524 . S
C267 C271 1.400 . S
C268 H253 0.960 . S
C268 H254 0.960 . S
C268 H255 0.960 . S
C268 C267 1.524 . S
C269 C266 1.403 . S
C269 C270 1.394 1_565 S
C269 C273 1.495 . S
C270 C269 1.394 1_545 S
C270 C271 1.383 . S
C270 C272 1.477 1_545 S
C271 H265 0.930 . S
C271 C267 1.400 . S
C271 C270 1.383 . S
C272 C270 1.477 1_565 S
C272 C274 1.367 1_565 S
C272 C278 1.396 . S
C273 C269 1.495 . S
C273 H279 0.959 . S
C273 H280 0.961 . S
C273 H281 0.960 . S
C274 C272 1.367 1_545 S
C274 C275 1.394 . S
C274 H282 0.930 . S
C275 C274 1.394 . S
C275 C276 1.402 . S
C275 H283 0.929 . S
C276 C275 1.402 . S
C276 C277 1.358 1_545 S
C277 H261 0.930 . S
C277 C276 1.358 1_565 S
C277 C278 1.379 . S
C278 H262 0.931 . S
C278 C272 1.396 . S
C278 C277 1.379 . S
H279 C273 0.959 . S
H280 C273 0.961 . S
H281 C273 0.960 . S
H282 C274 0.930 . S
H283 C275 0.929 . S
H284 C292 0.929 . S
H285 C294 0.930 . S
H286 C296 0.930 . S
H287 C299 0.929 . S
H288 C302 0.930 . S
H289 C304 0.960 . S
H290 C304 0.960 . S
H291 C304 0.960 . S
C292 H284 0.929 . S
C292 C293 1.377 . S
C292 C294 1.384 . S
C293 C292 1.377 . S
C293 C299 1.390 . S
C294 H285 0.930 . S
C294 C292 1.384 . S
C294 C295 1.372 . S
C295 C294 1.372 . S
C295 C296 1.400 . S
C295 C300 1.490 . S
C296 H286 0.930 . S
C296 C295 1.400 . S
C296 C299 1.386 . S
H297 C313 0.930 . S
H298 C314 0.931 . S
C299 H287 0.929 . S
C299 C293 1.390 . S
C299 C296 1.386 . S
C300 C295 1.490 . S
C300 C302 1.395 . S
C300 C303 1.403 . S
H301 C307 0.930 . S
C302 H288 0.930 . S
C302 C300 1.395 . S
C302 C305 1.403 . S
C303 C300 1.403 . S
C303 C304 1.524 . S
C303 C307 1.400 . S
C304 H289 0.960 . S
C304 H290 0.960 . S
C304 H291 0.960 . S
C304 C303 1.524 . S
C305 C302 1.403 . S
C305 C306 1.392 . S
C305 C309 1.495 . S
C306 C305 1.392 . S
C306 C307 1.385 . S
C306 C308 1.478 . S
C307 H301 0.930 . S
C307 C303 1.400 . S
C307 C306 1.385 . S
C308 C306 1.478 . S
C308 C310 1.381 . S
C308 C314 1.383 . S
C309 C305 1.495 . S
C309 H315 0.959 . S
C309 H316 0.961 . S
C309 H317 0.960 . S
C310 C308 1.381 . S
C310 C311 1.394 . S
C310 H318 0.930 . S
C311 C310 1.394 . S
C311 C312 1.383 . S
C311 H319 0.929 . S
C312 C311 1.383 . S
C312 C313 1.377 . S
C313 H297 0.930 . S
C313 C312 1.377 . S
C313 C314 1.379 . S
C314 H298 0.931 . S
C314 C308 1.383 . S
C314 C313 1.379 . S
H315 C309 0.959 . S
H316 C309 0.961 . S
H317 C309 0.960 . S
H318 C310 0.930 . S
H319 C311 0.929 . S
H320 C328 0.929 . S
H321 C330 0.930 . S
H322 C332 0.930 . S
H323 C335 0.929 . S
H324 C338 0.930 . S
H325 C340 0.960 . S
H326 C340 0.960 . S
H327 C340 0.960 . S
C328 H320 0.929 . S
C328 C329 1.377 . S
C328 C330 1.384 . S
C329 C328 1.377 . S
C329 C335 1.390 . S
C330 H321 0.930 . S
C330 C328 1.384 . S
C330 C331 1.372 . S
C331 C330 1.372 . S
C331 C332 1.400 . S
C331 C336 1.490 . S
C332 H322 0.930 . S
C332 C331 1.400 . S
C332 C335 1.386 . S
H333 C349 0.930 . S
H334 C350 0.931 . S
C335 H323 0.929 . S
C335 C329 1.390 . S
C335 C332 1.386 . S
C336 C331 1.490 . S
C336 C338 1.395 . S
C336 C339 1.403 . S
H337 C343 0.930 . S
C338 H324 0.930 . S
C338 C336 1.395 . S
C338 C341 1.403 . S
C339 C336 1.403 . S
C339 C340 1.524 . S
C339 C343 1.400 . S
C340 H325 0.960 . S
C340 H326 0.960 . S
C340 H327 0.960 . S
C340 C339 1.524 . S
C341 C338 1.403 . S
C341 C342 1.392 . S
C341 C345 1.495 . S
C342 C341 1.392 . S
C342 C343 1.385 . S
C342 C344 1.478 . S
C343 H337 0.930 . S
C343 C339 1.400 . S
C343 C342 1.385 . S
C344 C342 1.478 . S
C344 C346 1.381 . S
C344 C350 1.383 . S
C345 C341 1.495 . S
C345 H351 0.959 . S
C345 H352 0.961 . S
C345 H353 0.960 . S
C346 C344 1.381 . S
C346 C347 1.394 . S
C346 H354 0.930 . S
C347 C346 1.394 . S
C347 C348 1.383 . S
C347 H355 0.929 . S
C348 C347 1.383 . S
C348 C349 1.377 . S
C349 H333 0.930 . S
C349 C348 1.377 . S
C349 C350 1.379 . S
C350 H334 0.931 . S
C350 C344 1.383 . S
C350 C349 1.379 . S
H351 C345 0.959 . S
H352 C345 0.961 . S
H353 C345 0.960 . S
H354 C346 0.930 . S
H355 C347 0.929 . S
H356 C364 0.929 . S
H357 C366 0.930 . S
H358 C368 0.930 . S
H359 C371 0.929 . S
H360 C374 0.930 . S
H361 C376 0.960 . S
H362 C376 0.960 . S
H363 C376 0.960 . S
C364 H356 0.929 . S
C364 C365 1.377 . S
C364 C366 1.384 . S
C365 C364 1.377 . S
C365 C371 1.390 1_455 S
C366 H357 0.930 . S
C366 C364 1.384 . S
C366 C367 1.372 . S
C367 C366 1.372 . S
C367 C368 1.400 1_455 S
C367 C372 1.490 . S
C368 H358 0.930 . S
C368 C367 1.400 1_655 S
C368 C371 1.386 . S
H369 C385 0.930 . S
H370 C386 0.931 . S
C371 H359 0.929 . S
C371 C365 1.390 1_655 S
C371 C368 1.386 . S
C372 C367 1.490 . S
C372 C374 1.395 . S
C372 C375 1.403 1_455 S
H373 C379 0.930 . S
C374 H360 0.930 . S
C374 C372 1.395 . S
C374 C377 1.403 . S
C375 C372 1.403 1_655 S
C375 C376 1.524 . S
C375 C379 1.400 . S
C376 H361 0.960 . S
C376 H362 0.960 . S
C376 H363 0.960 . S
C376 C375 1.524 . S
C377 C374 1.403 . S
C377 C378 1.392 . S
C377 C381 1.495 . S
C378 C377 1.392 . S
C378 C379 1.385 1_455 S
C378 C380 1.478 . S
C379 H373 0.930 . S
C379 C375 1.400 . S
C379 C378 1.385 1_655 S
C380 C378 1.478 . S
C380 C382 1.381 . S
C380 C386 1.383 1_455 S
C381 C377 1.495 . S
C381 H387 0.959 . S
C381 H388 0.961 . S
C381 H389 0.960 . S
C382 C380 1.381 . S
C382 C383 1.394 . S
C382 H390 0.930 . S
C383 C382 1.394 . S
C383 C384 1.383 . S
C383 H391 0.929 . S
C384 C383 1.383 . S
C384 C385 1.377 1_455 S
C385 H369 0.930 . S
C385 C384 1.377 1_655 S
C385 C386 1.379 . S
C386 H370 0.931 . S
C386 C380 1.383 1_655 S
C386 C385 1.379 . S
H387 C381 0.959 . S
H388 C381 0.961 . S
H389 C381 0.960 . S
H390 C382 0.930 . S
H391 C383 0.929 . S
H392 C400 0.929 . S
H393 C402 0.930 . S
H394 C404 0.930 . S
H395 C407 0.929 . S
H396 C410 0.930 . S
H397 C412 0.960 . S
H398 C412 0.960 . S
H399 C412 0.960 . S
C400 H392 0.929 . S
C400 C401 1.377 . S
C400 C402 1.384 . S
C401 C400 1.377 . S
C401 C407 1.390 1_565 S
C402 H393 0.930 . S
C402 C400 1.384 . S
C402 C403 1.372 . S
C403 C402 1.372 . S
C403 C404 1.400 1_565 S
C403 C408 1.490 . S
C404 H394 0.930 . S
C404 C403 1.400 1_545 S
C404 C407 1.386 . S
H405 C421 0.930 . S
H406 C422 0.931 . S
C407 H395 0.929 . S
C407 C401 1.390 1_545 S
C407 C404 1.386 . S
C408 C403 1.490 . S
C408 C410 1.395 . S
C408 C411 1.403 1_565 S
H409 C415 0.930 . S
C410 H396 0.930 . S
C410 C408 1.395 . S
C410 C413 1.403 1_554 S
C411 C408 1.403 1_545 S
C411 C412 1.524 . S
C411 C415 1.400 . S
C412 H397 0.960 . S
C412 H398 0.960 . S
C412 H399 0.960 . S
C412 C411 1.524 . S
C413 C410 1.403 1_556 S
C413 C414 1.392 . S
C413 C417 1.495 . S
C414 C413 1.392 . S
C414 C415 1.385 1_566 S
C414 C416 1.478 . S
C415 H409 0.930 . S
C415 C411 1.400 . S
C415 C414 1.385 1_544 S
C416 C414 1.478 . S
C416 C418 1.381 . S
C416 C422 1.383 1_565 S
C417 C413 1.495 . S
C417 H423 0.959 . S
C417 H424 0.961 . S
C417 H425 0.960 . S
C418 C416 1.381 . S
C418 C419 1.394 . S
C418 H426 0.930 . S
C419 C418 1.394 . S
C419 C420 1.383 . S
C419 H427 0.929 . S
C420 C419 1.383 . S
C420 C421 1.377 1_565 S
C421 H405 0.930 . S
C421 C420 1.377 1_545 S
C421 C422 1.379 . S
C422 H406 0.931 . S
C422 C416 1.383 1_545 S
C422 C421 1.379 . S
H423 C417 0.959 . S
H424 C417 0.961 . S
H425 C417 0.960 . S
H426 C418 0.930 . S
H427 C419 0.929 . S
H428 C436 0.929 . S
H429 C438 0.930 . S
H430 C440 0.930 . S
H431 C443 0.929 . S
H432 C446 0.930 . S
H433 C448 0.960 . S
H434 C448 0.960 . S
H435 C448 0.960 . S
C436 H428 0.929 . S
C436 C437 1.377 . S
C436 C438 1.384 . S
C437 C436 1.377 . S
C437 C443 1.390 . S
C438 H429 0.930 . S
C438 C436 1.384 . S
C438 C439 1.372 . S
C439 C438 1.372 . S
C439 C440 1.400 . S
C439 C444 1.490 . S
C440 H430 0.930 . S
C440 C439 1.400 . S
C440 C443 1.386 . S
H441 C457 0.930 . S
H442 C458 0.931 . S
C443 H431 0.929 . S
C443 C437 1.390 . S
C443 C440 1.386 . S
C444 C439 1.490 . S
C444 C446 1.395 . S
C444 C447 1.403 . S
H445 C451 0.930 . S
C446 H432 0.930 . S
C446 C444 1.395 . S
C446 C449 1.403 1_554 S
C447 C444 1.403 . S
C447 C448 1.524 . S
C447 C451 1.400 . S
C448 H433 0.960 . S
C448 H434 0.960 . S
C448 H435 0.960 . S
C448 C447 1.524 . S
C449 C446 1.403 1_556 S
C449 C450 1.392 . S
C449 C453 1.495 . S
C450 C449 1.392 . S
C450 C451 1.385 1_556 S
C450 C452 1.478 . S
C451 H445 0.930 . S
C451 C447 1.400 . S
C451 C450 1.385 1_554 S
C452 C450 1.478 . S
C452 C454 1.381 . S
C452 C458 1.383 . S
C453 C449 1.495 . S
C453 H459 0.959 . S
C453 H460 0.961 . S
C453 H461 0.960 . S
C454 C452 1.381 . S
C454 C455 1.394 . S
C454 H462 0.930 . S
C455 C454 1.394 . S
C455 C456 1.383 . S
C455 H463 0.929 . S
C456 C455 1.383 . S
C456 C457 1.377 . S
C457 H441 0.930 . S
C457 C456 1.377 . S
C457 C458 1.379 . S
C458 H442 0.931 . S
C458 C452 1.383 . S
C458 C457 1.379 . S
H459 C453 0.959 . S
H460 C453 0.961 . S
H461 C453 0.960 . S
H462 C454 0.930 . S
H463 C455 0.929 . S
H464 C472 0.929 . S
H465 C474 0.930 . S
H466 C476 0.930 . S
H467 C479 0.929 . S
H468 C482 0.930 . S
H469 C484 0.960 . S
H470 C484 0.960 . S
H471 C484 0.960 . S
C472 H464 0.929 . S
C472 C473 1.377 . S
C472 C474 1.384 . S
C473 C472 1.377 . S
C473 C479 1.390 . S
C474 H465 0.930 . S
C474 C472 1.384 . S
C474 C475 1.372 . S
C475 C474 1.372 . S
C475 C476 1.400 . S
C475 C480 1.490 . S
C476 H466 0.930 . S
C476 C475 1.400 . S
C476 C479 1.386 . S
H477 C493 0.930 . S
H478 C494 0.931 . S
C479 H467 0.929 . S
C479 C473 1.390 . S
C479 C476 1.386 . S
C480 C475 1.490 . S
C480 C482 1.395 . S
C480 C483 1.403 . S
H481 C487 0.930 . S
C482 H468 0.930 . S
C482 C480 1.395 . S
C482 C485 1.403 1_554 S
C483 C480 1.403 . S
C483 C484 1.524 . S
C483 C487 1.400 . S
C484 H469 0.960 . S
C484 H470 0.960 . S
C484 H471 0.960 . S
C484 C483 1.524 . S
C485 C482 1.403 1_556 S
C485 C486 1.392 . S
C485 C489 1.495 . S
C486 C485 1.392 . S
C486 C487 1.385 1_556 S
C486 C488 1.478 . S
C487 H481 0.930 . S
C487 C483 1.400 . S
C487 C486 1.385 1_554 S
C488 C486 1.478 . S
C488 C490 1.381 . S
C488 C494 1.383 . S
C489 C485 1.495 . S
C489 H495 0.959 . S
C489 H496 0.961 . S
C489 H497 0.960 . S
C490 C488 1.381 . S
C490 C491 1.394 . S
C490 H498 0.930 . S
C491 C490 1.394 . S
C491 C492 1.383 . S
C491 H499 0.929 . S
C492 C491 1.383 . S
C492 C493 1.377 . S
C493 H477 0.930 . S
C493 C492 1.377 . S
C493 C494 1.379 . S
C494 H478 0.931 . S
C494 C488 1.383 . S
C494 C493 1.379 . S
H495 C489 0.959 . S
H496 C489 0.961 . S
H497 C489 0.960 . S
H498 C490 0.930 . S
H499 C491 0.929 . S
H500 C508 0.929 . S
H501 C510 0.930 . S
H502 C512 0.933 . S
H503 C515 0.929 . S
H504 C518 0.930 . S
H505 C520 0.960 . S
H506 C520 0.960 . S
H507 C520 0.960 . S
C508 H500 0.929 . S
C508 C509 1.380 . S
C508 C510 1.384 . S
C509 C508 1.380 . S
C509 C515 1.390 . S
C510 H501 0.930 . S
C510 C508 1.384 . S
C510 C511 1.374 . S
C511 C510 1.374 . S
C511 C512 1.400 . S
C511 C516 1.489 . S
C512 H502 0.933 . S
C512 C511 1.400 . S
C512 C515 1.386 . S
H513 C529 0.930 . S
H514 C530 0.931 1_554 S
C515 H503 0.929 . S
C515 C509 1.390 . S
C515 C512 1.386 . S
C516 C511 1.489 . S
C516 C518 1.379 1_655 S
C516 C519 1.418 . S
H517 C523 0.930 . S
C518 H504 0.930 . S
C518 C516 1.379 1_455 S
C518 C521 1.403 1_554 S
C519 C516 1.418 . S
C519 C520 1.524 . S
C519 C523 1.400 . S
C520 H505 0.960 . S
C520 H506 0.960 . S
C520 H507 0.960 . S
C520 C519 1.524 . S
C521 C518 1.403 1_556 S
C521 C522 1.392 . S
C521 C525 1.495 . S
C522 C521 1.392 . S
C522 C523 1.385 1_456 S
C522 C524 1.478 . S
C523 H517 0.930 . S
C523 C519 1.400 . S
C523 C522 1.385 1_654 S
C524 C522 1.478 . S
C524 C526 1.381 1_455 S
C524 C530 1.383 . S
C525 C521 1.495 . S
C525 H531 0.959 . S
C525 H532 0.961 . S
C525 H533 0.960 . S
C526 C524 1.381 1_655 S
C526 C527 1.394 . S
C526 H534 0.930 . S
C527 C526 1.394 . S
C527 C528 1.382 1_655 S
C527 H535 0.929 . S
C528 C527 1.382 1_455 S
C528 C529 1.379 . S
C529 H513 0.930 . S
C529 C528 1.379 . S
C529 C530 1.379 . S
C530 H514 0.931 1_556 S
C530 C524 1.383 . S
C530 C529 1.379 . S
H531 C525 0.959 . S
H532 C525 0.961 . S
H533 C525 0.960 . S
H534 C526 0.930 . S
H535 C527 0.929 . S
H536 C544 0.929 . S
H537 C546 0.930 . S
H538 C548 0.930 . S
H539 C551 0.929 . S
H540 C554 0.930 1_455 S
H541 C556 0.960 . S
H542 C556 0.960 . S
H543 C556 0.960 . S
C544 H536 0.929 . S
C544 C545 1.377 1_655 S
C544 C546 1.384 . S
C545 C544 1.377 1_455 S
C545 C551 1.390 . S
C546 H537 0.930 . S
C546 C544 1.384 . S
C546 C547 1.372 . S
C547 C546 1.372 . S
C547 C548 1.400 1_655 S
C547 C552 1.490 . S
C548 H538 0.930 . S
C548 C547 1.400 1_455 S
C548 C551 1.386 . S
H549 C565 0.930 . S
H550 C566 0.901 1_455 S
C551 H539 0.929 . S
C551 C545 1.390 . S
C551 C548 1.386 . S
C552 C547 1.490 . S
C552 C554 1.395 . S
C552 C555 1.403 . S
H553 C559 0.930 . S
C554 H540 0.930 1_655 S
C554 C552 1.395 . S
C554 C557 1.403 . S
C555 C552 1.403 . S
C555 C556 1.524 . S
C555 C559 1.400 . S
C556 H541 0.960 . S
C556 H542 0.960 . S
C556 H543 0.960 . S
C556 C555 1.524 . S
C557 C554 1.403 . S
C557 C558 1.392 . S
C557 C561 1.495 1_655 S
C558 C557 1.392 . S
C558 C559 1.385 . S
C558 C560 1.478 . S
C559 H553 0.930 . S
C559 C555 1.400 . S
C559 C558 1.385 . S
C560 C558 1.478 . S
C560 C562 1.381 . S
C560 C566 1.383 . S
C561 C557 1.495 1_455 S
C561 H567 0.959 . S
C561 H568 0.961 . S
C561 H569 0.960 1_455 S
C562 C560 1.381 . S
C562 C563 1.394 . S
C562 H570 0.930 . S
C563 C562 1.394 . S
C563 C564 1.383 . S
C563 H571 0.929 . S
C564 C563 1.383 . S
C564 C565 1.377 . S
C565 H549 0.930 . S
C565 C564 1.377 . S
C565 C566 1.379 . S
C566 H550 0.901 1_655 S
C566 C560 1.383 . S
C566 C565 1.379 . S
H567 C561 0.959 . S
H568 C561 0.961 . S
H569 C561 0.960 1_655 S
H570 C562 0.930 . S
H571 C563 0.929 . S
H572 C580 0.929 . S
H573 C582 0.930 . S
H574 C584 0.930 . S
H575 C587 0.929 . S
H576 C590 0.930 . S
H577 C592 0.960 . S
H578 C592 0.960 . S
H579 C592 0.960 . S
C580 H572 0.929 . S
C580 C581 1.377 1_565 S
C580 C582 1.384 . S
C581 C580 1.377 1_545 S
C581 C587 1.390 . S
C582 H573 0.930 . S
C582 C580 1.384 . S
C582 C583 1.372 . S
C583 C582 1.372 . S
C583 C584 1.400 1_565 S
C583 C588 1.490 . S
C584 H574 0.930 . S
C584 C583 1.400 1_545 S
C584 C587 1.386 . S
H585 C601 0.930 . S
H586 C602 0.931 1_545 S
C587 H575 0.929 . S
C587 C581 1.390 . S
C587 C584 1.386 . S
C588 C583 1.490 . S
C588 C590 1.395 . S
C588 C591 1.403 . S
H589 C595 0.930 . S
C590 H576 0.930 . S
C590 C588 1.395 . S
C590 C593 1.403 . S
C591 C588 1.403 . S
C591 C592 1.524 . S
C591 C595 1.400 . S
C592 H577 0.960 . S
C592 H578 0.960 . S
C592 H579 0.960 . S
C592 C591 1.524 . S
C593 C590 1.403 . S
C593 C594 1.392 . S
C593 C597 1.495 . S
C594 C593 1.392 . S
C594 C595 1.385 . S
C594 C596 1.478 . S
C595 H589 0.930 . S
C595 C591 1.400 . S
C595 C594 1.385 . S
C596 C594 1.478 . S
C596 C598 1.381 . S
C596 C602 1.383 . S
C597 C593 1.495 . S
C597 H603 0.952 1_565 S
C597 H604 0.961 1_565 S
C597 H605 0.960 . S
C598 C596 1.381 . S
C598 C599 1.394 . S
C598 H606 0.930 . S
C599 C598 1.394 . S
C599 C600 1.383 . S
C599 H607 0.929 . S
C600 C599 1.383 . S
C600 C601 1.377 . S
C601 H585 0.930 . S
C601 C600 1.377 . S
C601 C602 1.379 . S
C602 H586 0.931 1_565 S
C602 C596 1.383 . S
C602 C601 1.379 . S
H603 C597 0.952 1_545 S
H604 C597 0.961 1_545 S
H605 C597 0.960 . S
H606 C598 0.930 . S
H607 C599 0.929 . S
H608 C616 0.929 . S
H609 C618 0.930 . S
H610 C620 0.930 . S
H611 C623 0.929 . S
H612 C626 0.930 . S
H613 C628 0.960 . S
H614 C628 0.960 . S
H615 C628 0.960 . S
C616 H608 0.929 . S
C616 C617 1.377 . S
C616 C618 1.384 . S
C617 C616 1.377 . S
C617 C623 1.390 . S
C618 H609 0.930 . S
C618 C616 1.384 . S
C618 C619 1.372 . S
C619 C618 1.372 . S
C619 C620 1.400 . S
C619 C624 1.490 . S
C620 H610 0.930 . S
C620 C619 1.400 . S
C620 C623 1.386 . S
H621 C637 0.930 . S
H622 C638 0.931 . S
C623 H611 0.929 . S
C623 C617 1.390 . S
C623 C620 1.386 . S
C624 C619 1.490 . S
C624 C626 1.395 . S
C624 C627 1.403 . S
H625 C631 0.930 . S
C626 H612 0.930 . S
C626 C624 1.395 . S
C626 C629 1.403 . S
C627 C624 1.403 . S
C627 C628 1.524 . S
C627 C631 1.400 . S
C628 H613 0.960 . S
C628 H614 0.960 . S
C628 H615 0.960 . S
C628 C627 1.524 . S
C629 C626 1.403 . S
C629 C630 1.392 . S
C629 C633 1.495 . S
C630 C629 1.392 . S
C630 C631 1.385 . S
C630 C632 1.478 . S
C631 H625 0.930 . S
C631 C627 1.400 . S
C631 C630 1.385 . S
C632 C630 1.478 . S
C632 C634 1.381 . S
C632 C638 1.383 . S
C633 C629 1.495 . S
C633 H639 0.959 . S
C633 H640 0.961 . S
C633 H641 0.960 . S
C634 C632 1.381 . S
C634 C635 1.394 . S
C634 H642 0.930 . S
C635 C634 1.394 . S
C635 C636 1.383 . S
C635 H643 0.929 . S
C636 C635 1.383 . S
C636 C637 1.377 . S
C637 H621 0.930 . S
C637 C636 1.377 . S
C637 C638 1.379 . S
C638 H622 0.931 . S
C638 C632 1.383 . S
C638 C637 1.379 . S
H639 C633 0.959 . S
H640 C633 0.961 . S
H641 C633 0.960 . S
H642 C634 0.930 . S
H643 C635 0.929 . S
H644 C652 0.929 . S
H645 C654 0.930 . S
H646 C656 0.930 . S
H647 C659 0.929 . S
H648 C662 0.930 . S
H649 C664 0.960 . S
H650 C664 0.960 . S
H651 C664 0.960 . S
C652 H644 0.929 . S
C652 C653 1.377 . S
C652 C654 1.384 . S
C653 C652 1.377 . S
C653 C659 1.390 . S
C654 H645 0.930 . S
C654 C652 1.384 . S
C654 C655 1.372 . S
C655 C654 1.372 . S
C655 C656 1.400 . S
C655 C660 1.490 . S
C656 H646 0.930 . S
C656 C655 1.400 . S
C656 C659 1.386 . S
H657 C673 0.930 . S
H658 C674 0.931 . S
C659 H647 0.929 . S
C659 C653 1.390 . S
C659 C656 1.386 . S
C660 C655 1.490 . S
C660 C662 1.395 . S
C660 C663 1.403 . S
H661 C667 0.930 . S
C662 H648 0.930 . S
C662 C660 1.395 . S
C662 C665 1.403 . S
C663 C660 1.403 . S
C663 C664 1.524 . S
C663 C667 1.400 . S
C664 H649 0.960 . S
C664 H650 0.960 . S
C664 H651 0.960 . S
C664 C663 1.524 . S
C665 C662 1.403 . S
C665 C666 1.392 . S
C665 C669 1.495 . S
C666 C665 1.392 . S
C666 C667 1.385 . S
C666 C668 1.478 . S
C667 H661 0.930 . S
C667 C663 1.400 . S
C667 C666 1.385 . S
C668 C666 1.478 . S
C668 C670 1.381 . S
C668 C674 1.383 . S
C669 C665 1.495 . S
C669 H675 0.959 . S
C669 H676 0.961 . S
C669 H677 0.960 . S
C670 C668 1.381 . S
C670 C671 1.394 . S
C670 H678 0.930 . S
C671 C670 1.394 . S
C671 C672 1.383 . S
C671 H679 0.929 . S
C672 C671 1.383 . S
C672 C673 1.377 . S
C673 H657 0.930 . S
C673 C672 1.377 . S
C673 C674 1.379 . S
C674 H658 0.931 . S
C674 C668 1.383 . S
C674 C673 1.379 . S
H675 C669 0.959 . S
H676 C669 0.961 . S
H677 C669 0.960 . S
H678 C670 0.930 . S
H679 C671 0.929 . S
H680 C688 0.929 . S
H681 C690 0.930 . S
H682 C692 0.930 . S
H683 C695 0.929 . S
H684 C698 0.930 . S
H685 C700 0.960 . S
H686 C700 0.960 . S
H687 C700 0.960 . S
C688 H680 0.929 . S
C688 C689 1.377 . S
C688 C690 1.384 . S
C689 C688 1.377 . S
C689 C695 1.390 1_655 S
C690 H681 0.930 . S
C690 C688 1.384 . S
C690 C691 1.372 1_655 S
C691 C690 1.372 1_455 S
C691 C692 1.400 . S
C691 C696 1.490 . S
C692 H682 0.930 . S
C692 C691 1.400 . S
C692 C695 1.386 . S
H693 C709 0.930 . S
H694 C710 0.931 . S
C695 H683 0.929 . S
C695 C689 1.390 1_455 S
C695 C692 1.386 . S
C696 C691 1.490 . S
C696 C698 1.395 1_455 S
C696 C699 1.403 . S
H697 C703 0.930 . S
C698 H684 0.930 . S
C698 C696 1.395 1_655 S
C698 C701 1.403 . S
C699 C696 1.403 . S
C699 C700 1.524 . S
C699 C703 1.400 . S
C700 H685 0.960 . S
C700 H686 0.960 . S
C700 H687 0.960 . S
C700 C699 1.524 . S
C701 C698 1.403 . S
C701 C702 1.392 1_655 S
C701 C705 1.495 . S
C702 C701 1.392 1_455 S
C702 C703 1.385 . S
C702 C704 1.478 . S
C703 H697 0.930 . S
C703 C699 1.400 . S
C703 C702 1.385 . S
C704 C702 1.478 . S
C704 C706 1.381 1_554 S
C704 C710 1.383 . S
C705 C701 1.495 . S
C705 H711 0.959 . S
C705 H712 0.961 . S
C705 H713 0.960 . S
C706 C704 1.381 1_556 S
C706 C707 1.394 . S
C706 H714 0.930 . S
C707 C706 1.394 . S
C707 C708 1.383 . S
C707 H715 0.929 . S
C708 C707 1.383 . S
C708 C709 1.377 1_556 S
C709 H693 0.930 . S
C709 C708 1.377 1_554 S
C709 C710 1.379 . S
C710 H694 0.931 . S
C710 C704 1.383 . S
C710 C709 1.379 . S
H711 C705 0.959 . S
H712 C705 0.961 . S
H713 C705 0.960 . S
H714 C706 0.930 . S
H715 C707 0.929 . S
H716 C724 0.929 . S
H717 C726 0.930 . S
H718 C728 0.930 . S
H719 C731 0.929 . S
H720 C734 0.930 . S
H721 C736 0.960 . S
H722 C736 0.960 . S
H723 C736 0.960 1_565 S
C724 H716 0.929 . S
C724 C725 1.377 1_545 S
C724 C726 1.384 . S
C725 C724 1.377 1_565 S
C725 C731 1.390 . S
C726 H717 0.930 . S
C726 C724 1.384 . S
C726 C727 1.372 . S
C727 C726 1.372 . S
C727 C728 1.400 1_545 S
C727 C732 1.490 . S
C728 H718 0.930 . S
C728 C727 1.400 1_565 S
C728 C731 1.386 . S
H729 C745 0.930 1_565 S
H730 C746 0.931 1_565 S
C731 H719 0.929 . S
C731 C725 1.390 . S
C731 C728 1.386 . S
C732 C727 1.490 . S
C732 C734 1.395 . S
C732 C735 1.403 . S
H733 C739 0.930 . S
C734 H720 0.930 . S
C734 C732 1.395 . S
C734 C737 1.403 . S
C735 C732 1.403 . S
C735 C736 1.524 . S
C735 C739 1.400 . S
C736 H721 0.960 . S
C736 H722 0.960 . S
C736 H723 0.960 1_545 S
C736 C735 1.524 . S
C737 C734 1.403 . S
C737 C738 1.392 . S
C737 C741 1.495 1_554 S
C738 C737 1.392 . S
C738 C739 1.385 . S
C738 C740 1.478 . S
C739 H733 0.930 . S
C739 C735 1.400 . S
C739 C738 1.385 . S
C740 C738 1.478 . S
C740 C742 1.381 . S
C740 C746 1.383 . S
C741 C737 1.495 1_556 S
C741 H747 0.959 . S
C741 H748 0.961 . S
C741 H749 0.960 . S
C742 C740 1.381 . S
C742 C743 1.394 1_554 S
C742 H750 0.930 . S
C743 C742 1.394 1_556 S
C743 C744 1.383 . S
C743 H751 0.929 . S
C744 C743 1.383 . S
C744 C745 1.377 . S
C745 H729 0.930 1_545 S
C745 C744 1.377 . S
C745 C746 1.379 1_556 S
C746 H730 0.931 1_545 S
C746 C740 1.383 . S
C746 C745 1.379 1_554 S
H747 C741 0.959 . S
H748 C741 0.961 . S
H749 C741 0.960 . S
H750 C742 0.930 . S
H751 C743 0.929 . S
H752 C760 0.929 . S
H753 C762 0.930 . S
H754 C764 0.930 . S
H755 C767 0.929 . S
H756 C770 0.930 . S
H757 C772 0.960 . S
H758 C772 0.960 . S
H759 C772 0.960 . S
C760 H752 0.929 . S
C760 C761 1.377 . S
C760 C762 1.384 . S
C761 C760 1.377 . S
C761 C767 1.390 . S
C762 H753 0.930 . S
C762 C760 1.384 . S
C762 C763 1.372 . S
C763 C762 1.372 . S
C763 C764 1.400 . S
C763 C768 1.490 . S
C764 H754 0.930 . S
C764 C763 1.400 . S
C764 C767 1.386 . S
H765 C781 0.930 . S
H766 C782 0.931 . S
C767 H755 0.929 . S
C767 C761 1.390 . S
C767 C764 1.386 . S
C768 C763 1.490 . S
C768 C770 1.395 . S
C768 C771 1.403 . S
H769 C775 0.930 . S
C770 H756 0.930 . S
C770 C768 1.395 . S
C770 C773 1.403 . S
C771 C768 1.403 . S
C771 C772 1.524 . S
C771 C775 1.400 . S
C772 H757 0.960 . S
C772 H758 0.960 . S
C772 H759 0.960 . S
C772 C771 1.524 . S
C773 C770 1.403 . S
C773 C774 1.392 . S
C773 C777 1.495 . S
C774 C773 1.392 . S
C774 C775 1.385 . S
C774 C776 1.478 . S
C775 H769 0.930 . S
C775 C771 1.400 . S
C775 C774 1.385 . S
C776 C774 1.478 . S
C776 C778 1.381 . S
C776 C782 1.383 1_554 S
C777 C773 1.495 . S
C777 H783 0.959 . S
C777 H784 0.961 . S
C777 H785 0.960 . S
C778 C776 1.381 . S
C778 C779 1.394 . S
C778 H786 0.930 . S
C779 C778 1.394 . S
C779 C780 1.383 1_554 S
C779 H787 0.929 . S
C780 C779 1.383 1_556 S
C780 C781 1.377 . S
C781 H765 0.930 . S
C781 C780 1.377 . S
C781 C782 1.379 . S
C782 H766 0.931 . S
C782 C776 1.383 1_556 S
C782 C781 1.379 . S
H783 C777 0.959 . S
H784 C777 0.961 . S
H785 C777 0.960 . S
H786 C778 0.930 . S
H787 C779 0.929 . S
H788 C796 0.929 . S
H789 C798 0.930 . S
H790 C800 0.930 . S
H791 C803 0.929 . S
H792 C806 0.930 . S
H793 C808 0.960 . S
H794 C808 0.960 . S
H795 C808 0.960 . S
C796 H788 0.929 . S
C796 C797 1.377 . S
C796 C798 1.384 . S
C797 C796 1.377 . S
C797 C803 1.390 . S
C798 H789 0.930 . S
C798 C796 1.384 . S
C798 C799 1.372 . S
C799 C798 1.372 . S
C799 C800 1.400 . S
C799 C804 1.490 . S
C800 H790 0.930 . S
C800 C799 1.400 . S
C800 C803 1.386 . S
H801 C817 0.927 1_556 S
H802 C818 0.931 . S
C803 H791 0.929 . S
C803 C797 1.390 . S
C803 C800 1.386 . S
C804 C799 1.490 . S
C804 C806 1.395 . S
C804 C807 1.403 . S
H805 C811 0.930 . S
C806 H792 0.930 . S
C806 C804 1.395 . S
C806 C809 1.403 . S
C807 C804 1.403 . S
C807 C808 1.524 . S
C807 C811 1.400 . S
C808 H793 0.960 . S
C808 H794 0.960 . S
C808 H795 0.960 . S
C808 C807 1.524 . S
C809 C806 1.403 . S
C809 C810 1.392 . S
C809 C813 1.495 . S
C810 C809 1.392 . S
C810 C811 1.385 . S
C810 C812 1.478 . S
C811 H805 0.930 . S
C811 C807 1.400 . S
C811 C810 1.385 . S
C812 C810 1.478 . S
C812 C814 1.381 . S
C812 C818 1.383 . S
C813 C809 1.495 . S
C813 H819 0.959 . S
C813 H820 0.961 . S
C813 H821 0.960 . S
C814 C812 1.381 . S
C814 C815 1.394 . S
C814 H822 0.930 . S
C815 C814 1.394 . S
C815 C816 1.383 1_554 S
C815 H823 0.929 1_554 S
C816 C815 1.383 1_556 S
C816 C817 1.377 1_556 S
C817 H801 0.927 1_554 S
C817 C816 1.377 1_554 S
C817 C818 1.379 . S
C818 H802 0.931 . S
C818 C812 1.383 . S
C818 C817 1.379 . S
H819 C813 0.959 . S
H820 C813 0.961 . S
H821 C813 0.960 . S
H822 C814 0.930 . S
H823 C815 0.929 1_556 S
H824 C832 0.929 . S
H825 C834 0.930 . S
H826 C836 0.930 . S
H827 C839 0.929 . S
H828 C842 0.930 . S
H829 C844 0.960 . S
H830 C844 0.960 . S
H831 C844 0.960 . S
C832 H824 0.929 . S
C832 C833 1.377 . S
C832 C834 1.384 . S
C833 C832 1.377 . S
C833 C839 1.390 1_455 S
C834 H825 0.930 . S
C834 C832 1.384 . S
C834 C835 1.372 . S
C835 C834 1.372 . S
C835 C836 1.400 1_455 S
C835 C840 1.490 . S
C836 H826 0.930 . S
C836 C835 1.400 1_655 S
C836 C839 1.386 . S
H837 C853 0.959 . S
H838 C854 0.943 . S
C839 H827 0.929 . S
C839 C833 1.390 1_655 S
C839 C836 1.386 . S
C840 C835 1.490 . S
C840 C842 1.395 . S
C840 C843 1.403 1_455 S
H841 C847 0.930 . S
C842 H828 0.930 . S
C842 C840 1.395 . S
C842 C845 1.403 . S
C843 C840 1.403 1_655 S
C843 C844 1.524 . S
C843 C847 1.400 . S
C844 H829 0.960 . S
C844 H830 0.960 . S
C844 H831 0.960 . S
C844 C843 1.524 . S
C845 C842 1.403 . S
C845 C846 1.392 . S
C845 C849 1.495 . S
C846 C845 1.392 . S
C846 C847 1.385 1_455 S
C846 C848 1.478 . S
C847 H841 0.930 . S
C847 C843 1.400 . S
C847 C846 1.385 1_655 S
C848 C846 1.478 . S
C848 C850 1.381 . S
C848 C854 1.371 1_455 S
C849 C845 1.495 . S
C849 H855 0.959 . S
C849 H856 0.961 . S
C849 H857 0.960 . S
C850 C848 1.381 . S
C850 C851 1.394 . S
C850 H858 0.930 . S
C851 C850 1.394 . S
C851 C852 1.383 . S
C851 H859 0.929 . S
C852 C851 1.383 . S
C852 C853 1.350 1_455 S
C853 H837 0.959 . S
C853 C852 1.350 1_655 S
C853 C854 1.379 . S
C854 H838 0.943 . S
C854 C848 1.371 1_655 S
C854 C853 1.379 . S
H855 C849 0.959 . S
H856 C849 0.961 . S
H857 C849 0.960 . S
H858 C850 0.930 . S
H859 C851 0.929 . S
H860 C868 0.929 1_554 S
H861 C870 0.930 . S
H862 C872 0.939 . S
H863 C875 0.929 . S
H864 C878 0.930 . S
H865 C880 0.960 . S
H866 C880 0.960 . S
H867 C880 0.960 . S
C868 H860 0.929 1_556 S
C868 C869 1.377 . S
C868 C870 1.384 . S
C869 C868 1.377 . S
C869 C875 1.390 1_545 S
C870 H861 0.930 . S
C870 C868 1.384 . S
C870 C871 1.372 . S
C871 C870 1.372 . S
C871 C872 1.390 1_545 S
C871 C876 1.490 . S
C872 H862 0.939 . S
C872 C871 1.390 1_565 S
C872 C875 1.389 . S
H873 C889 0.920 1_565 S
H874 C890 0.931 . S
C875 H863 0.929 . S
C875 C869 1.390 1_565 S
C875 C872 1.389 . S
C876 C871 1.490 . S
C876 C878 1.395 1_545 S
C876 C879 1.403 . S
H877 C883 0.930 . S
C878 H864 0.930 . S
C878 C876 1.395 1_565 S
C878 C881 1.403 . S
C879 C876 1.403 . S
C879 C880 1.524 . S
C879 C883 1.400 . S
C880 H865 0.960 . S
C880 H866 0.960 . S
C880 H867 0.960 . S
C880 C879 1.524 . S
C881 C878 1.403 . S
C881 C882 1.392 1_565 S
C881 C885 1.495 . S
C882 C881 1.392 1_545 S
C882 C883 1.385 . S
C882 C884 1.478 . S
C883 H877 0.930 . S
C883 C879 1.400 . S
C883 C882 1.385 . S
C884 C882 1.478 . S
C884 C886 1.381 . S
C884 C890 1.383 1_545 S
C885 C881 1.495 . S
C885 H891 0.959 . S
C885 H892 0.961 . S
C885 H893 0.960 . S
C886 C884 1.381 . S
C886 C887 1.394 . S
C886 H894 0.930 . S
C887 C886 1.394 . S
C887 C888 1.383 . S
C887 H895 0.929 . S
C888 C887 1.383 . S
C888 C889 1.391 . S
C889 H873 0.920 1_545 S
C889 C888 1.391 . S
C889 C890 1.377 1_545 S
C890 H874 0.931 . S
C890 C884 1.383 1_565 S
C890 C889 1.377 1_565 S
H891 C885 0.959 . S
H892 C885 0.961 . S
H893 C885 0.960 . S
H894 C886 0.930 . S
H895 C887 0.929 . S
H896 C904 0.929 . S
H897 C906 0.930 . S
H898 C908 0.930 . S
H899 C911 0.929 . S
H900 C914 0.930 . S
H901 C916 0.960 1_554 S
H902 C916 0.960 . S
H903 C916 0.960 1_554 S
C904 H896 0.929 . S
C904 C905 1.377 . S
C904 C906 1.384 . S
C905 C904 1.377 . S
C905 C911 1.390 . S
C906 H897 0.930 . S
C906 C904 1.384 . S
C906 C907 1.372 . S
C907 C906 1.372 . S
C907 C908 1.400 . S
C907 C912 1.490 . S
C908 H898 0.930 . S
C908 C907 1.400 . S
C908 C911 1.386 . S
H909 C925 0.930 . S
H910 C926 0.931 . S
C911 H899 0.929 . S
C911 C905 1.390 . S
C911 C908 1.386 . S
C912 C907 1.490 . S
C912 C914 1.395 . S
C912 C915 1.403 . S
H913 C919 0.930 . S
C914 H900 0.930 . S
C914 C912 1.395 . S
C914 C917 1.403 . S
C915 C912 1.403 . S
C915 C916 1.524 . S
C915 C919 1.400 . S
C916 H901 0.960 1_556 S
C916 H902 0.960 . S
C916 H903 0.960 1_556 S
C916 C915 1.524 . S
C917 C914 1.403 . S
C917 C918 1.392 . S
C917 C921 1.495 . S
C918 C917 1.392 . S
C918 C919 1.385 . S
C918 C920 1.478 . S
C919 H913 0.930 . S
C919 C915 1.400 . S
C919 C918 1.385 . S
C920 C918 1.478 . S
C920 C922 1.381 . S
C920 C926 1.383 . S
C921 C917 1.495 . S
C921 H927 0.959 . S
C921 H928 0.961 . S
C921 H929 0.960 . S
C922 C920 1.381 . S
C922 C923 1.394 . S
C922 H930 0.930 . S
C923 C922 1.394 . S
C923 C924 1.383 . S
C923 H931 0.929 . S
C924 C923 1.383 . S
C924 C925 1.377 . S
C925 H909 0.930 . S
C925 C924 1.377 . S
C925 C926 1.379 . S
C926 H910 0.931 . S
C926 C920 1.383 . S
C926 C925 1.379 . S
H927 C921 0.959 . S
H928 C921 0.961 . S
H929 C921 0.960 . S
H930 C922 0.930 . S
H931 C923 0.929 . S
H932 C940 0.929 . S
H933 C942 0.930 . S
H934 C944 0.930 . S
H935 C947 0.929 . S
H936 C950 0.930 . S
H937 C952 0.960 . S
H938 C952 0.960 . S
H939 C952 0.960 . S
C940 H932 0.929 . S
C940 C941 1.377 . S
C940 C942 1.384 . S
C941 C940 1.377 . S
C941 C947 1.390 . S
C942 H933 0.930 . S
C942 C940 1.384 . S
C942 C943 1.372 . S
C943 C942 1.372 . S
C943 C944 1.400 . S
C943 C948 1.490 . S
C944 H934 0.930 . S
C944 C943 1.400 . S
C944 C947 1.386 . S
H945 C961 0.930 . S
H946 C962 0.931 . S
C947 H935 0.929 . S
C947 C941 1.390 . S
C947 C944 1.386 . S
C948 C943 1.490 . S
C948 C950 1.395 . S
C948 C951 1.403 . S
H949 C955 0.930 . S
C950 H936 0.930 . S
C950 C948 1.395 . S
C950 C953 1.403 . S
C951 C948 1.403 . S
C951 C952 1.524 . S
C951 C955 1.400 . S
C952 H937 0.960 . S
C952 H938 0.960 . S
C952 H939 0.960 . S
C952 C951 1.524 . S
C953 C950 1.403 . S
C953 C954 1.392 . S
C953 C957 1.495 . S
C954 C953 1.392 . S
C954 C955 1.385 . S
C954 C956 1.478 . S
C955 H949 0.930 . S
C955 C951 1.400 . S
C955 C954 1.385 . S
C956 C954 1.478 . S
C956 C958 1.381 . S
C956 C962 1.383 . S
C957 C953 1.495 . S
C957 H963 0.959 . S
C957 H964 0.961 . S
C957 H965 0.960 . S
C958 C956 1.381 . S
C958 C959 1.394 . S
C958 H966 0.930 . S
C959 C958 1.394 . S
C959 C960 1.383 . S
C959 H967 0.929 . S
C960 C959 1.383 . S
C960 C961 1.377 . S
C961 H945 0.930 . S
C961 C960 1.377 . S
C961 C962 1.379 . S
C962 H946 0.931 . S
C962 C956 1.383 . S
C962 C961 1.379 . S
H963 C957 0.959 . S
H964 C957 0.961 . S
H965 C957 0.960 . S
H966 C958 0.930 . S
H967 C959 0.929 . S
H968 C976 0.929 . S
H969 C978 0.930 . S
H970 C980 0.930 . S
H971 C983 0.929 . S
H972 C986 0.930 . S
H973 C988 0.960 . S
H974 C988 0.960 . S
H975 C988 0.960 . S
C976 H968 0.929 . S
C976 C977 1.377 . S
C976 C978 1.384 . S
C977 C976 1.377 . S
C977 C983 1.390 1_655 S
C978 H969 0.930 . S
C978 C976 1.384 . S
C978 C979 1.372 . S
C979 C978 1.372 . S
C979 C980 1.400 1_655 S
C979 C984 1.490 . S
C980 H970 0.930 . S
C980 C979 1.400 1_455 S
C980 C983 1.386 . S
H981 C997 0.930 . S
H982 C998 0.931 . S
C983 H971 0.929 . S
C983 C977 1.390 1_455 S
C983 C980 1.386 . S
C984 C979 1.490 . S
C984 C986 1.395 . S
C984 C987 1.403 1_655 S
H985 C991 0.930 . S
C986 H972 0.930 . S
C986 C984 1.395 . S
C986 C989 1.403 . S
C987 C984 1.403 1_455 S
C987 C988 1.524 . S
C987 C991 1.400 . S
C988 H973 0.960 . S
C988 H974 0.960 . S
C988 H975 0.960 . S
C988 C987 1.524 . S
C989 C986 1.403 . S
C989 C990 1.392 . S
C989 C993 1.495 . S
C990 C989 1.392 . S
C990 C991 1.385 1_655 S
C990 C992 1.478 . S
C991 H985 0.930 . S
C991 C987 1.400 . S
C991 C990 1.385 1_455 S
C992 C990 1.478 . S
C992 C994 1.381 . S
C992 C998 1.383 1_655 S
C993 C989 1.495 . S
C993 H999 0.959 . S
C993 H1000 0.961 . S
C993 H1001 0.960 . S
C994 C992 1.381 . S
C994 C995 1.394 . S
C994 H1002 0.930 . S
C995 C994 1.394 . S
C995 C996 1.383 . S
C995 H1003 0.929 . S
C996 C995 1.383 . S
C996 C997 1.377 1_655 S
C997 H981 0.930 . S
C997 C996 1.377 1_455 S
C997 C998 1.379 . S
C998 H982 0.931 . S
C998 C992 1.383 1_455 S
C998 C997 1.379 . S
H999 C993 0.959 . S
H1000 C993 0.961 . S
H1001 C993 0.960 . S
H1002 C994 0.930 . S
H1003 C995 0.929 . S
H1004 C1012 0.929 . S
H1005 C1014 0.930 . S
H1006 C1016 0.930 . S
H1007 C1019 0.929 . S
H1008 C1022 0.930 . S
H1009 C1024 0.960 . S
H1010 C1024 0.960 . S
H1011 C1024 0.960 . S
C1012 H1004 0.929 . S
C1012 C1013 1.377 . S
C1012 C1014 1.384 . S
C1013 C1012 1.377 . S
C1013 C1019 1.390 1_565 S
C1014 H1005 0.930 . S
C1014 C1012 1.384 . S
C1014 C1015 1.372 . S
C1015 C1014 1.372 . S
C1015 C1016 1.400 1_565 S
C1015 C1020 1.490 . S
C1016 H1006 0.930 . S
C1016 C1015 1.400 1_545 S
C1016 C1019 1.386 . S
H1017 C1033 0.930 . S
H1018 C1034 0.931 . S
C1019 H1007 0.929 . S
C1019 C1013 1.390 1_545 S
C1019 C1016 1.386 . S
C1020 C1015 1.490 . S
C1020 C1022 1.395 1_565 S
C1020 C1023 1.403 . S
H1021 C1027 0.930 . S
C1022 H1008 0.930 . S
C1022 C1020 1.395 1_545 S
C1022 C1025 1.403 . S
C1023 C1020 1.403 . S
C1023 C1024 1.524 . S
C1023 C1027 1.400 . S
C1024 H1009 0.960 . S
C1024 H1010 0.960 . S
C1024 H1011 0.960 . S
C1024 C1023 1.524 . S
C1025 C1022 1.403 . S
C1025 C1026 1.392 1_545 S
C1025 C1029 1.495 . S
C1026 C1025 1.392 1_565 S
C1026 C1027 1.385 . S
C1026 C1028 1.478 . S
C1027 H1021 0.930 . S
C1027 C1023 1.400 . S
C1027 C1026 1.385 . S
C1028 C1026 1.478 . S
C1028 C1030 1.381 . S
C1028 C1034 1.383 1_565 S
C1029 C1025 1.495 . S
C1029 H1035 0.959 . S
C1029 H1036 0.961 . S
C1029 H1037 0.960 1_545 S
C1030 C1028 1.381 . S
C1030 C1031 1.394 . S
C1030 H1038 0.930 . S
C1031 C1030 1.394 . S
C1031 C1032 1.383 . S
C1031 H1039 0.929 . S
C1032 C1031 1.383 . S
C1032 C1033 1.377 1_565 S
C1033 H1017 0.930 . S
C1033 C1032 1.377 1_545 S
C1033 C1034 1.379 . S
C1034 H1018 0.931 . S
C1034 C1028 1.383 1_545 S
C1034 C1033 1.379 . S
H1035 C1029 0.959 . S
H1036 C1029 0.961 . S
H1037 C1029 0.960 1_565 S
H1038 C1030 0.930 . S
H1039 C1031 0.929 . S
H1040 C1048 0.929 . S
H1041 C1050 0.930 . S
H1042 C1052 0.930 . S
H1043 C1055 0.929 . S
H1044 C1058 0.930 . S
H1045 C1060 0.960 . S
H1046 C1060 0.960 . S
H1047 C1060 0.960 . S
C1048 H1040 0.929 . S
C1048 C1049 1.377 . S
C1048 C1050 1.384 . S
C1049 C1048 1.377 . S
C1049 C1055 1.390 . S
C1050 H1041 0.930 . S
C1050 C1048 1.384 . S
C1050 C1051 1.372 . S
C1051 C1050 1.372 . S
C1051 C1052 1.400 . S
C1051 C1056 1.490 . S
C1052 H1042 0.930 . S
C1052 C1051 1.400 . S
C1052 C1055 1.386 . S
H1053 C1069 0.930 . S
H1054 C1070 0.931 . S
C1055 H1043 0.929 . S
C1055 C1049 1.390 . S
C1055 C1052 1.386 . S
C1056 C1051 1.490 . S
C1056 C1058 1.395 . S
C1056 C1059 1.403 . S
H1057 C1063 0.930 . S
C1058 H1044 0.930 . S
C1058 C1056 1.395 . S
C1058 C1061 1.403 . S
C1059 C1056 1.403 . S
C1059 C1060 1.524 . S
C1059 C1063 1.400 . S
C1060 H1045 0.960 . S
C1060 H1046 0.960 . S
C1060 H1047 0.960 . S
C1060 C1059 1.524 . S
C1061 C1058 1.403 . S
C1061 C1062 1.392 . S
C1061 C1065 1.495 . S
C1062 C1061 1.392 . S
C1062 C1063 1.385 . S
C1062 C1064 1.478 . S
C1063 H1057 0.930 . S
C1063 C1059 1.400 . S
C1063 C1062 1.385 . S
C1064 C1062 1.478 . S
C1064 C1066 1.381 . S
C1064 C1070 1.383 . S
C1065 C1061 1.495 . S
C1065 H1071 0.959 . S
C1065 H1072 0.961 . S
C1065 H1073 0.960 . S
C1066 C1064 1.381 . S
C1066 C1067 1.394 . S
C1066 H1074 0.930 . S
C1067 C1066 1.394 . S
C1067 C1068 1.383 . S
C1067 H1075 0.929 . S
C1068 C1067 1.383 . S
C1068 C1069 1.377 . S
C1069 H1053 0.930 . S
C1069 C1068 1.377 . S
C1069 C1070 1.379 . S
C1070 H1054 0.931 . S
C1070 C1064 1.383 . S
C1070 C1069 1.379 . S
H1071 C1065 0.959 . S
H1072 C1065 0.961 . S
H1073 C1065 0.960 . S
H1074 C1066 0.930 . S
H1075 C1067 0.929 . S
H1076 C1084 0.929 . S
H1077 C1086 0.930 . S
H1078 C1088 0.930 . S
H1079 C1091 0.929 . S
H1080 C1094 0.930 . S
H1081 C1096 0.960 . S
H1082 C1096 0.960 . S
H1083 C1096 0.960 . S
C1084 H1076 0.929 . S
C1084 C1085 1.377 . S
C1084 C1086 1.384 . S
C1085 C1084 1.377 . S
C1085 C1091 1.390 . S
C1086 H1077 0.930 . S
C1086 C1084 1.384 . S
C1086 C1087 1.372 . S
C1087 C1086 1.372 . S
C1087 C1088 1.400 . S
C1087 C1092 1.490 . S
C1088 H1078 0.930 . S
C1088 C1087 1.400 . S
C1088 C1091 1.386 . S
H1089 C1105 0.930 . S
H1090 C1106 0.931 . S
C1091 H1079 0.929 . S
C1091 C1085 1.390 . S
C1091 C1088 1.386 . S
C1092 C1087 1.490 . S
C1092 C1094 1.395 . S
C1092 C1095 1.403 . S
H1093 C1099 0.930 . S
C1094 H1080 0.930 . S
C1094 C1092 1.395 . S
C1094 C1097 1.403 . S
C1095 C1092 1.403 . S
C1095 C1096 1.524 . S
C1095 C1099 1.400 . S
C1096 H1081 0.960 . S
C1096 H1082 0.960 . S
C1096 H1083 0.960 . S
C1096 C1095 1.524 . S
C1097 C1094 1.403 . S
C1097 C1098 1.392 . S
C1097 C1101 1.495 . S
C1098 C1097 1.392 . S
C1098 C1099 1.385 . S
C1098 C1100 1.478 . S
C1099 H1093 0.930 . S
C1099 C1095 1.400 . S
C1099 C1098 1.385 . S
C1100 C1098 1.478 . S
C1100 C1102 1.381 . S
C1100 C1106 1.383 . S
C1101 C1097 1.495 . S
C1101 H1107 0.959 . S
C1101 H1108 0.961 . S
C1101 H1109 0.960 . S
C1102 C1100 1.381 . S
C1102 C1103 1.394 . S
C1102 H1110 0.930 . S
C1103 C1102 1.394 . S
C1103 C1104 1.383 . S
C1103 H1111 0.929 . S
C1104 C1103 1.383 . S
C1104 C1105 1.377 . S
C1105 H1089 0.930 . S
C1105 C1104 1.377 . S
C1105 C1106 1.379 . S
C1106 H1090 0.931 . S
C1106 C1100 1.383 . S
C1106 C1105 1.379 . S
H1107 C1101 0.959 . S
H1108 C1101 0.961 . S
H1109 C1101 0.960 . S
H1110 C1102 0.930 . S
H1111 C1103 0.929 . S
C257 C76 1.742 . S
C276 C97 1.818 1_545 S
C312 C137 1.828 . S
C293 C87 1.735 . S
C348 C177 1.822 . S
C329 C54 1.741 . S
C384 C217 1.825 1_455 S
C365 C65 1.737 . S
C420 C106 1.809 1_565 S
C401 C32 1.745 . S
C437 C43 1.746 . S
C456 C146 1.818 . S
C473 C10 1.742 . S
C492 C186 1.809 . S
C509 C21 1.738 . S
C528 C226 1.807 . S
C564 C103 0.293 . S
C545 C60 0.373 . S
C600 C143 0.303 . S
C581 C71 0.376 . S
C636 C183 0.347 . S
C617 C82 0.380 . S
C653 C49 0.385 . S
C672 C223 0.364 . S
C689 C16 0.407 . S
C708 C94 0.248 . S
C744 C134 0.339 . S
C725 C27 0.382 . S
C780 C174 0.392 . S
C761 C38 0.387 . S
C797 C5 0.408 . S
C816 C214 0.313 . S
C833 C59 1.878 . S
C852 C107 2.057 . S
C869 C70 1.868 . S
C888 C147 2.033 . S
C924 C187 2.054 . S
C905 C81 1.870 . S
C960 C227 2.041 . S
C941 C48 1.864 . S
C977 C15 1.867 . S
C996 C98 2.065 . S
C1032 C138 2.044 . S
C1013 C26 1.875 . S
C1068 C178 2.053 . S
C1049 C37 1.872 . S
C1085 C4 1.869 . S
C1104 C218 2.062 . S
