# Generated by pormake.
# Topology nom, (4,4)-cn, num edge types: 1
# Building blocks:
#     Node 0, Type 0, BuildingBlock: NAHDIM_clean_linker_0, # of connection points: 4
#     Node 1, Type 0, BuildingBlock: NAHDIM_clean_linker_0, # of connection points: 4
#     Node 2, Type 0, BuildingBlock: NAHDIM_clean_linker_0, # of connection points: 4
#     Node 3, Type 0, BuildingBlock: NAHDIM_clean_linker_0, # of connection points: 4
#     Node 4, Type 0, BuildingBlock: NAHDIM_clean_linker_0, # of connection points: 4
#     Node 5, Type 0, BuildingBlock: NAHDIM_clean_linker_0, # of connection points: 4
#     Node 6, Type 1, BuildingBlock: QUQFOY_clean_sbu_3, # of connection points: 4
#     Node 7, Type 1, BuildingBlock: QUQFOY_clean_sbu_3, # of connection points: 4
#     Node 8, Type 1, BuildingBlock: QUQFOY_clean_sbu_3, # of connection points: 4
#     Node 9, Type 1, BuildingBlock: QUQFOY_clean_sbu_3, # of connection points: 4
#     Node 10, Type 1, BuildingBlock: QUQFOY_clean_sbu_3, # of connection points: 4
#     Node 11, Type 1, BuildingBlock: QUQFOY_clean_sbu_3, # of connection points: 4
#     Edge 12, Type (0, 1), BuildingBlock: CIFDUS_clean_linker_0, # of connection points: 2
#     Edge 13, Type (0, 1), BuildingBlock: CIFDUS_clean_linker_0, # of connection points: 2
#     Edge 14, Type (0, 1), BuildingBlock: CIFDUS_clean_linker_0, # of connection points: 2
#     Edge 15, Type (0, 1), BuildingBlock: CIFDUS_clean_linker_0, # of connection points: 2
#     Edge 16, Type (0, 1), BuildingBlock: CIFDUS_clean_linker_0, # of connection points: 2
#     Edge 17, Type (0, 1), BuildingBlock: CIFDUS_clean_linker_0, # of connection points: 2
#     Edge 18, Type (0, 1), BuildingBlock: CIFDUS_clean_linker_0, # of connection points: 2
#     Edge 19, Type (0, 1), BuildingBlock: CIFDUS_clean_linker_0, # of connection points: 2
#     Edge 20, Type (0, 1), BuildingBlock: CIFDUS_clean_linker_0, # of connection points: 2
#     Edge 21, Type (0, 1), BuildingBlock: CIFDUS_clean_linker_0, # of connection points: 2
#     Edge 22, Type (0, 1), BuildingBlock: CIFDUS_clean_linker_0, # of connection points: 2
#     Edge 23, Type (0, 1), BuildingBlock: CIFDUS_clean_linker_0, # of connection points: 2
#     Edge 24, Type (0, 1), BuildingBlock: CIFDUS_clean_linker_0, # of connection points: 2
#     Edge 25, Type (0, 1), BuildingBlock: CIFDUS_clean_linker_0, # of connection points: 2
#     Edge 26, Type (0, 1), BuildingBlock: CIFDUS_clean_linker_0, # of connection points: 2
#     Edge 27, Type (0, 1), BuildingBlock: CIFDUS_clean_linker_0, # of connection points: 2
#     Edge 28, Type (0, 1), BuildingBlock: CIFDUS_clean_linker_0, # of connection points: 2
#     Edge 29, Type (0, 1), BuildingBlock: CIFDUS_clean_linker_0, # of connection points: 2
#     Edge 30, Type (0, 1), BuildingBlock: CIFDUS_clean_linker_0, # of connection points: 2
#     Edge 31, Type (0, 1), BuildingBlock: CIFDUS_clean_linker_0, # of connection points: 2
#     Edge 32, Type (0, 1), BuildingBlock: CIFDUS_clean_linker_0, # of connection points: 2
#     Edge 33, Type (0, 1), BuildingBlock: CIFDUS_clean_linker_0, # of connection points: 2
#     Edge 34, Type (0, 1), BuildingBlock: CIFDUS_clean_linker_0, # of connection points: 2
#     Edge 35, Type (0, 1), BuildingBlock: CIFDUS_clean_linker_0, # of connection points: 2
# Relax obj value: 0.048
# Max RMSD: 0.131
# Mean RMSD: 0.100
data_MOF--net-nom--node1-QUQFOY_clean_sbu_3--node2-NAHDIM_clean_linker_0--edge1-CIFDUS_clean_linker_0
_symmetry_space_group_name_H-M    P1
_symmetry_Int_Tables_number       1
_symmetry_cell_setting            triclinic
loop_
_symmetry_equiv_pos_as_xyz
'x, y, z'
_cell_length_a     52.969209
_cell_length_b     54.22474
_cell_length_c     64.616518
_cell_angle_alpha  90.108691
_cell_angle_beta   90.297017
_cell_angle_gamma 120.07788
loop_
_atom_site_label
_atom_site_type_symbol
_atom_site_fract_x
_atom_site_fract_y
_atom_site_fract_z
_atom_type_partial_charge
C0 C 0.16936 0.60127 0.23135 0.0
C1 C 0.17624 0.61442 0.25315 0.0
C2 C 0.12652 0.59457 0.26685 0.0
C3 C 0.12106 0.56662 0.26989 0.0
C4 C 0.09327 0.54473 0.27565 0.0
C5 C 0.07047 0.55082 0.2783 0.0
C6 C 0.07598 0.57897 0.27547 0.0
C7 C 0.10405 0.60051 0.27 0.0
C8 C 0.08823 0.51503 0.27884 0.0
C9 C 0.05216 0.58628 0.27804 0.0
C10 C 0.9594 0.41727 0.17418 0.0
C11 C 0.94239 0.43144 0.18179 0.0
C12 C 0.94595 0.43786 0.21887 0.0
C13 C 0.94957 0.46506 0.22174 0.0
C14 C 0.96457 0.48159 0.23914 0.0
C15 C 0.97651 0.47075 0.25376 0.0
C16 C 0.97253 0.44309 0.25095 0.0
C17 C 0.95676 0.42676 0.23368 0.0
C18 C 0.96794 0.51075 0.24176 0.0
C19 C 0.98549 0.43104 0.26592 0.0
C20 C 0.85855 0.414 0.36244 0.0
C21 C 0.86593 0.4401 0.35317 0.0
C22 C 0.89526 0.46125 0.35082 0.0
C23 C 0.91755 0.45567 0.35721 0.0
C24 C 0.91006 0.42966 0.36714 0.0
C25 C 0.88055 0.40936 0.36997 0.0
C26 C 0.90236 0.48931 0.34116 0.0
C27 C 0.93313 0.42295 0.37426 0.0
C28 C 0.12232 0.62144 0.41607 0.0
C29 C 0.10508 0.59192 0.42586 0.0
C30 C 0.05522 0.56562 0.41293 0.0
C31 C 0.03634 0.57339 0.40372 0.0
C32 C 0.01619 0.55608 0.38848 0.0
C33 C 0.01462 0.53014 0.38276 0.0
C34 C 0.03238 0.52131 0.39307 0.0
C35 C 0.05259 0.53922 0.40804 0.0
C36 C -0.00265 0.56596 0.37796 0.0
C37 C 0.03053 0.49332 0.38786 0.0
C38 C 0.04072 0.52773 0.28371 0.0
C39 C 0.02284 0.51001 0.26779 0.0
C40 C 0.99406 0.48875 0.27154 0.0
C41 C 0.98257 0.48524 0.29173 0.0
C42 C 0.95349 0.46469 0.29598 0.0
C43 C 0.9424 0.46146 0.31588 0.0
C44 C 0.95983 0.47892 0.33228 0.0
C45 C 0.94853 0.47632 0.35248 0.0
C46 C 0.96675 0.4934 0.36855 0.0
C47 C -0.00393 0.51328 0.36499 0.0
C48 C 0.00751 0.51679 0.34478 0.0
C49 C 0.03671 0.53716 0.34056 0.0
C50 C 0.0477 0.54065 0.32062 0.0
C51 C 0.02994 0.52389 0.30411 0.0
C52 C 0.00063 0.50283 0.30808 0.0
C53 C 0.98932 0.4995 0.3284 0.0
C54 C 0.79033 0.35335 0.34868 0.0
C55 C 0.80838 0.3859 0.35007 0.0
O56 O 0.15282 0.61633 0.26069 0.0
O57 O 0.07578 0.58395 0.42645 0.0
O58 O 0.83044 0.39294 0.3645 0.0
O59 O 0.93253 0.42227 0.20168 0.0
H60 H 0.18102 0.60105 0.26367 0.0
H61 H 0.1505 0.57922 0.23166 0.0
H62 H 0.16399 0.61411 0.22072 0.0
H63 H 0.18837 0.60032 0.22514 0.0
H64 H 0.13822 0.56161 0.26776 0.0
H65 H 0.10849 0.62213 0.26775 0.0
H66 H 0.07307 0.50061 0.26671 0.0
H67 H 0.10879 0.51429 0.27811 0.0
H68 H 0.07785 0.50673 0.29408 0.0
H69 H 0.05925 0.60846 0.27321 0.0
H70 H 0.03263 0.57138 0.2688 0.0
H71 H 0.04558 0.58389 0.29452 0.0
H72 H 0.95783 0.4549 0.18172 0.0
H73 H 0.96743 0.42435 0.15822 0.0
H74 H 0.97855 0.4234 0.18446 0.0
H75 H 0.94547 0.39368 0.1743 0.0
H76 H 0.94068 0.47329 0.21032 0.0
H77 H 0.95371 0.40565 0.23127 0.0
H78 H 0.99114 0.52726 0.2395 0.0
H79 H 0.95437 0.5146 0.23051 0.0
H80 H 0.96182 0.51334 0.2577 0.0
H81 H 0.9829 0.41047 0.26042 0.0
H82 H 0.00908 0.44643 0.2683 0.0
H83 H 0.97466 0.42754 0.28115 0.0
H84 H 0.81784 0.3938 0.33447 0.0
H85 H 0.84883 0.44403 0.3479 0.0
H86 H 0.87449 0.38925 0.3774 0.0
H87 H 0.90952 0.48992 0.32497 0.0
H88 H 0.88318 0.49245 0.34094 0.0
H89 H 0.92049 0.50734 0.34971 0.0
H90 H 0.9236 0.40077 0.38 0.0
H91 H 0.94822 0.42607 0.36136 0.0
H92 H 0.94623 0.4378 0.38694 0.0
H93 H 0.10849 0.57699 0.41599 0.0
H94 H 0.14588 0.62823 0.41541 0.0
H95 H 0.11435 0.62077 0.40003 0.0
H96 H 0.11962 0.63742 0.4251 0.0
H97 H 0.03824 0.59362 0.40793 0.0
H98 H 0.06641 0.5327 0.41587 0.0
H99 H 0.0022 0.56866 0.36114 0.0
H100 H 0.97399 0.54955 0.37964 0.0
H101 H 0.00085 0.58645 0.38442 0.0
H102 H 0.04369 0.48826 0.39864 0.0
H103 H 0.00747 0.47578 0.38833 0.0
H104 H 0.03854 0.49418 0.37188 0.0
H105 H 0.03138 0.51296 0.2522 0.0
H106 H 0.93894 0.45088 0.28395 0.0
H107 H 0.9199 0.44512 0.3182 0.0
H108 H 0.95803 0.49112 0.38403 0.0
H109 H 0.0514 0.55079 0.3526 0.0
H110 H 0.07031 0.55669 0.3183 0.0
H111 H 0.77936 0.34426 0.36364 0.0
H112 H 0.77356 0.34644 0.33623 0.0
H113 H 0.8048 0.34461 0.345 0.0
C114 C 0.40686 0.84919 0.58252 0.0
C115 C 0.40521 0.83778 0.56053 0.0
C116 C 0.41936 0.87994 0.53921 0.0
C117 C 0.44856 0.88787 0.53528 0.0
C118 C 0.46859 0.91547 0.52858 0.0
C119 C 0.45928 0.93554 0.52575 0.0
C120 C 0.4297 0.92735 0.52901 0.0
C121 C 0.41004 0.89948 0.53544 0.0
C122 C 0.49979 0.92328 0.52465 0.0
C123 C 0.41898 0.94819 0.5261 0.0
C124 C 0.58388 0.04854 0.63535 0.0
C125 C 0.57335 0.06554 0.62271 0.0
C126 C 0.56917 0.05798 0.5854 0.0
C127 C 0.54189 0.05569 0.58194 0.0
C128 C 0.5253 0.0417 0.56427 0.0
C129 C 0.53636 0.02994 0.54981 0.0
C130 C 0.56445 0.0334 0.55282 0.0
C131 C 0.58067 0.04776 0.5705 0.0
C132 C 0.49576 0.03901 0.56122 0.0
C133 C 0.57692 0.02114 0.53769 0.0
C134 C 0.57397 0.14606 0.44186 0.0
C135 C 0.54385 0.1315 0.44563 0.0
C136 C 0.52846 0.10191 0.44836 0.0
C137 C 0.54335 0.08643 0.44678 0.0
C138 C 0.57335 0.10079 0.44179 0.0
C139 C 0.58829 0.13052 0.43931 0.0
C140 C 0.49631 0.0872 0.4532 0.0
C141 C 0.58969 0.08479 0.43964 0.0
C142 C 0.3898 0.8764 0.38595 0.0
C143 C 0.41954 0.89852 0.37746 0.0
C144 C 0.44129 0.94659 0.3921 0.0
C145 C 0.43197 0.964 0.40117 0.0
C146 C 0.44946 0.98492 0.41573 0.0
C147 C 0.47718 0.98875 0.42095 0.0
C148 C 0.48761 0.97258 0.41067 0.0
C149 C 0.46953 0.95164 0.39627 0.0
C150 C 0.43797 0.00227 0.42604 0.0
C151 C 0.51745 0.97683 0.41541 0.0
C152 C 0.48073 0.96541 0.52022 0.0
C153 C 0.49777 0.98379 0.53613 0.0
C154 C 0.51787 0.01241 0.53227 0.0
C155 C 0.52058 0.02338 0.51208 0.0
C156 C 0.53933 0.05242 0.50788 0.0
C157 C 0.54162 0.06301 0.48794 0.0
C158 C 0.52567 0.04485 0.47139 0.0
C159 C 0.52752 0.05542 0.45111 0.0
C160 C 0.51204 0.03666 0.4349 0.0
C161 C 0.49393 0.00755 0.43852 0.0
C162 C 0.4909 0.99673 0.45882 0.0
C163 C 0.47189 0.96771 0.4631 0.0
C164 C 0.46854 0.95738 0.48318 0.0
C165 C 0.48424 0.9756 0.49972 0.0
C166 C 0.50397 0.00479 0.49569 0.0
C167 C 0.50699 0.01544 0.47526 0.0
C168 C 0.60452 0.19866 0.47339 0.0
C169 C 0.58654 0.19363 0.45353 0.0
O170 O 0.39958 0.85374 0.54646 0.0
O171 O 0.42252 0.92533 0.37934 0.0
O172 O 0.58975 0.17494 0.4406 0.0
O173 O 0.58484 0.06974 0.60296 0.0
H174 H 0.42656 0.83941 0.55741 0.0
H175 H 0.42577 0.87118 0.58387 0.0
H176 H 0.38678 0.84985 0.58632 0.0
H177 H 0.40985 0.8356 0.59398 0.0
H178 H 0.45589 0.87265 0.5371 0.0
H179 H 0.38739 0.89304 0.53818 0.0
H180 H 0.51426 0.93921 0.53634 0.0
H181 H 0.50292 0.90452 0.52548 0.0
H182 H 0.50673 0.9332 0.50916 0.0
H183 H 0.39568 0.93893 0.53037 0.0
H184 H 0.43231 0.96757 0.53567 0.0
H185 H 0.42158 0.95496 0.50968 0.0
H186 H 0.5491 0.0524 0.6223 0.0
H187 H 0.57524 0.0453 0.65136 0.0
H188 H 0.57589 0.0273 0.62807 0.0
H189 H 0.60809 0.05972 0.63603 0.0
H190 H 0.53351 0.06474 0.59305 0.0
H191 H 0.60198 0.0501 0.5732 0.0
H192 H 0.47853 0.0163 0.56265 0.0
H193 H 0.49153 0.05173 0.57274 0.0
H194 H 0.49404 0.04609 0.54542 0.0
H195 H 0.59877 0.02505 0.54257 0.0
H196 H 0.56197 -0.0022 0.53609 0.0
H197 H 0.57883 0.03073 0.52221 0.0
H198 H 0.56358 0.18455 0.45857 0.0
H199 H 0.53214 0.14305 0.44636 0.0
H200 H 0.61143 0.14187 0.43598 0.0
H201 H 0.49203 0.07553 0.46805 0.0
H202 H 0.48806 0.10238 0.45435 0.0
H203 H 0.4838 0.07132 0.44091 0.0
H204 H 0.61261 0.09883 0.43469 0.0
H205 H 0.58977 0.07499 0.45469 0.0
H206 H 0.57845 0.06724 0.42818 0.0
H207 H 0.43631 0.89681 0.38679 0.0
H208 H 0.38688 0.85467 0.38477 0.0
H209 H 0.3883 0.88101 0.40252 0.0
H210 H 0.3719 0.87692 0.37727 0.0
H211 H 0.41041 0.96037 0.39739 0.0
H212 H 0.47748 0.93926 0.38839 0.0
H213 H 0.43756 -0.00049 0.44308 0.0
H214 H 0.45276 0.0252 0.42274 0.0
H215 H 0.41565 0.9962 0.4206 0.0
H216 H 0.52359 0.96482 0.40455 0.0
H217 H 0.53411 -0.00018 0.41464 0.0
H218 H 0.51778 0.96955 0.4314 0.0
H219 H 0.49546 0.97566 0.55176 0.0
H220 H 0.5522 0.06732 0.52001 0.0
H221 H 0.5562 0.08559 0.48566 0.0
H222 H 0.5135 0.04491 0.4194 0.0
H223 H 0.45915 0.95264 0.45103 0.0
H224 H 0.45352 0.93491 0.48557 0.0
H225 H 0.6038 0.21514 0.48321 0.0
H226 H 0.5953 0.17857 0.48237 0.0
H227 H 0.62758 0.20546 0.46983 0.0
C228 C 0.5687 0.41518 0.74516 0.0
C229 C 0.56848 0.40451 0.72314 0.0
C230 C 0.53803 0.4201 0.70486 0.0
C231 C 0.55987 0.44875 0.70218 0.0
C232 C 0.55302 0.46892 0.69454 0.0
C233 C 0.52365 0.46056 0.68995 0.0
C234 C 0.50162 0.43175 0.69252 0.0
C235 C 0.50923 0.41184 0.6996 0.0
C236 C 0.57723 0.49931 0.69167 0.0
C237 C 0.46996 0.42207 0.68817 0.0
C238 C 0.55202 0.62119 0.77969 0.0
C239 C 0.52162 0.59476 0.77761 0.0
C240 C 0.51007 0.57613 0.74284 0.0
C241 C 0.48427 0.55092 0.73815 0.0
C242 C 0.4835 0.53264 0.72243 0.0
C243 C 0.50913 0.5401 0.71109 0.0
C244 C 0.53523 0.56576 0.71575 0.0
C245 C 0.53536 0.58357 0.73159 0.0
C246 C 0.45535 0.50547 0.71782 0.0
C247 C 0.56287 0.57445 0.70387 0.0
C248 C 0.45459 0.59481 0.59669 0.0
C249 C 0.43491 0.56919 0.60637 0.0
C250 C 0.44267 0.54844 0.61054 0.0
C251 C 0.47103 0.5539 0.60549 0.0
C252 C 0.49064 0.57952 0.59533 0.0
C253 C 0.4819 0.59942 0.59073 0.0
C254 C 0.42064 0.52083 0.62051 0.0
C255 C 0.52103 0.58617 0.58969 0.0
C256 C 0.50173 0.38472 0.54824 0.0
C257 C 0.51745 0.41554 0.54064 0.0
C258 C 0.49608 0.4433 0.55304 0.0
C259 C 0.46892 0.43658 0.56098 0.0
C260 C 0.46652 0.45377 0.57621 0.0
C261 C 0.49192 0.4786 0.5832 0.0
C262 C 0.51924 0.48643 0.57422 0.0
C263 C 0.52105 0.46858 0.55928 0.0
C264 C 0.437 0.44502 0.58523 0.0
C265 C 0.54657 0.5134 0.58067 0.0
C266 C 0.51593 0.4823 0.68353 0.0
C267 C 0.51516 0.50011 0.69889 0.0
C268 C 0.50856 0.52137 0.69408 0.0
C269 C 0.50196 0.52476 0.67343 0.0
C270 C 0.49499 0.54579 0.66811 0.0
C271 C 0.48821 0.54878 0.64779 0.0
C272 C 0.48804 0.53082 0.63199 0.0
C273 C 0.48045 0.53323 0.61136 0.0
C274 C 0.48172 0.51582 0.59589 0.0
C275 C 0.49015 0.49578 0.60046 0.0
C276 C 0.49687 0.4924 0.62112 0.0
C277 C 0.50468 0.47191 0.62637 0.0
C278 C 0.51118 0.46871 0.64674 0.0
C279 C 0.50989 0.4857 0.6627 0.0
C280 C 0.50252 0.50679 0.6577 0.0
C281 C 0.4958 0.50999 0.63692 0.0
C282 C 0.44587 0.65502 0.60581 0.0
C283 C 0.43113 0.62249 0.60502 0.0
O284 O 0.54358 0.39991 0.7126 0.0
O285 O 0.49761 0.42509 0.53938 0.0
O286 O 0.44785 0.61538 0.59264 0.0
O287 O 0.51027 0.59345 0.75802 0.0
H288 H 0.5882 0.42071 0.71491 0.0
H289 H 0.56927 0.43591 0.74469 0.0
H290 H 0.54885 0.39965 0.75364 0.0
H291 H 0.58833 0.41834 0.75377 0.0
H292 H 0.58235 0.45576 0.70598 0.0
H293 H 0.49251 0.38975 0.70161 0.0
H294 H 0.57584 0.51289 0.70397 0.0
H295 H 0.59916 0.50138 0.69254 0.0
H296 H 0.57491 0.5076 0.6765 0.0
H297 H 0.45522 0.39977 0.69317 0.0
H298 H 0.46358 0.43623 0.69619 0.0
H299 H 0.46674 0.42342 0.67132 0.0
H300 H 0.5241 0.57574 0.78025 0.0
H301 H 0.56007 0.6236 0.7959 0.0
H302 H 0.56769 0.61901 0.76961 0.0
H303 H 0.55163 0.64075 0.77517 0.0
H304 H 0.46482 0.54556 0.74694 0.0
H305 H 0.55508 0.60345 0.73506 0.0
H306 H 0.45869 0.48692 0.7195 0.0
H307 H 0.43742 0.50253 0.72823 0.0
H308 H 0.4486 0.50566 0.70155 0.0
H309 H 0.58145 0.5949 0.70956 0.0
H310 H 0.56887 0.55761 0.70515 0.0
H311 H 0.55919 0.57667 0.68721 0.0
H312 H 0.43068 0.61511 0.62118 0.0
H313 H 0.4134 0.56525 0.61045 0.0
H314 H 0.49675 0.61916 0.58301 0.0
H315 H 0.4267 0.5209 0.63698 0.0
H316 H 0.39825 0.51772 0.61992 0.0
H317 H 0.42046 0.50244 0.61276 0.0
H318 H 0.53459 0.60826 0.58386 0.0
H319 H 0.5321 0.58333 0.60336 0.0
H320 H 0.51971 0.57113 0.57749 0.0
H321 H 0.53497 0.42828 0.55217 0.0
H322 H 0.51723 0.37659 0.54937 0.0
H323 H 0.49253 0.38366 0.56384 0.0
H324 H 0.48359 0.37077 0.53755 0.0
H325 H 0.44972 0.41725 0.55572 0.0
H326 H 0.54192 0.47433 0.55245 0.0
H327 H 0.43766 0.44273 0.60227 0.0
H328 H 0.4314 0.46187 0.58225 0.0
H329 H 0.41951 0.4246 0.57859 0.0
H330 H 0.56539 0.51809 0.5706 0.0
H331 H 0.54277 0.53176 0.5802 0.0
H332 H 0.55233 0.51127 0.59685 0.0
H333 H 0.52002 0.49756 0.71482 0.0
H334 H 0.49457 0.56012 0.67961 0.0
H335 H 0.48306 0.56538 0.64465 0.0
H336 H 0.47617 0.51797 0.58006 0.0
H337 H 0.50578 0.45803 0.61479 0.0
H338 H 0.51713 0.45266 0.64984 0.0
H339 H 0.44621 0.66365 0.59015 0.0
H340 H 0.43428 0.66192 0.61658 0.0
H341 H 0.4687 0.66421 0.61144 0.0
C342 C 0.16891 0.56566 0.90706 0.0
C343 C 0.17811 0.56496 0.8847 0.0
C344 C 0.13081 0.53142 0.86874 0.0
C345 C 0.12061 0.55077 0.86652 0.0
C346 C 0.09182 0.54141 0.86025 0.0
C347 C 0.07262 0.51205 0.85648 0.0
C348 C 0.08279 0.49252 0.8586 0.0
C349 C 0.11193 0.50259 0.86438 0.0
C350 C 0.08177 0.56288 0.858 0.0
C351 C 0.06272 0.46097 0.85522 0.0
C352 C 0.97066 0.51596 0.97488 0.0
C353 C 0.95736 0.49062 0.9599 0.0
C354 C 0.95678 0.4946 0.92234 0.0
C355 C 0.95793 0.47007 0.9171 0.0
C356 C 0.96791 0.46748 0.8976 0.0
C357 C 0.97715 0.49 0.88322 0.0
C358 C 0.97423 0.51393 0.88805 0.0
C359 C 0.96357 0.51564 0.9075 0.0
C360 C 0.96987 0.44128 0.89272 0.0
C361 C 0.98399 0.53844 0.87318 0.0
C362 C 0.85682 0.43677 0.77327 0.0
C363 C 0.86473 0.41695 0.78005 0.0
C364 C 0.89418 0.42499 0.78273 0.0
C365 C 0.91606 0.4535 0.77886 0.0
C366 C 0.90815 0.47317 0.77124 0.0
C367 C 0.87856 0.46437 0.7683 0.0
C368 C 0.90188 0.40314 0.79006 0.0
C369 C 0.93089 0.50363 0.76668 0.0
C370 C 0.12067 0.49693 0.71925 0.0
C371 C 0.10213 0.50688 0.70765 0.0
C372 C 0.05297 0.4827 0.72153 0.0
C373 C 0.0352 0.45621 0.73063 0.0
C374 C 0.01535 0.45296 0.74616 0.0
C375 C 0.01296 0.47675 0.75233 0.0
C376 C 0.02962 0.50319 0.74223 0.0
C377 C 0.04948 0.50589 0.72689 0.0
C378 C -0.00231 0.42441 0.75648 0.0
C379 C 0.02698 0.52876 0.74806 0.0
C380 C 0.04149 0.50172 0.85162 0.0
C381 C 0.0234 0.4993 0.86802 0.0
C382 C 0.99402 0.49061 0.86479 0.0
C383 C 0.98201 0.48363 0.8446 0.0
C384 C 0.95249 0.47458 0.84079 0.0
C385 C 0.94104 0.46807 0.82078 0.0
C386 C 0.95859 0.46995 0.80387 0.0
C387 C 0.9471 0.46304 0.78349 0.0
C388 C 0.96523 0.46534 0.76706 0.0
C389 C -0.00526 0.47455 0.77037 0.0
C390 C 0.00662 0.48153 0.79061 0.0
C391 C 0.03628 0.49097 0.79444 0.0
C392 C 0.04781 0.49781 0.81437 0.0
C393 C 0.03007 0.49516 0.83128 0.0
C394 C 0.00015 0.4859 0.82778 0.0
C395 C 0.98843 0.47909 0.80741 0.0
C396 C 0.78572 0.42195 0.78887 0.0
C397 C 0.80556 0.41005 0.78317 0.0
O398 O 0.15836 0.53944 0.87524 0.0
O399 O 0.07319 0.48524 0.70759 0.0
O400 O 0.82855 0.4301 0.77149 0.0
O401 O 0.9499 0.49895 0.94167 0.0
H402 H 0.17914 0.5831 0.87601 0.0
H403 H 0.14731 0.56434 0.90733 0.0
H404 H 0.16735 0.54742 0.91596 0.0
H405 H 0.18497 0.58588 0.9148 0.0
H406 H 0.13477 0.57319 0.86971 0.0
H407 H 0.11995 0.48782 0.8661 0.0
H408 H 0.06657 0.56 0.87075 0.0
H409 H 0.10025 0.58518 0.85856 0.0
H410 H 0.06976 0.55947 0.84316 0.0
H411 H 0.07339 0.44839 0.85912 0.0
H412 H 0.04285 0.45332 0.86481 0.0
H413 H 0.05561 0.45687 0.83878 0.0
H414 H 0.97443 0.48476 0.95703 0.0
H415 H 0.97741 0.51015 0.98954 0.0
H416 H 0.99027 0.53406 0.96783 0.0
H417 H 0.95472 0.52299 0.97843 0.0
H418 H 0.95155 0.45321 0.92834 0.0
H419 H 0.96204 0.53423 0.91165 0.0
H420 H 0.96181 0.43364 0.87676 0.0
H421 H 0.99305 0.44672 0.89354 0.0
H422 H 0.95716 0.42373 0.90377 0.0
H423 H 0.98042 0.55557 0.87937 0.0
H424 H 0.00755 0.54767 0.8698 0.0
H425 H 0.97189 0.53066 0.85832 0.0
H426 H 0.81383 0.40634 0.79805 0.0
H427 H 0.84798 0.39523 0.78323 0.0
H428 H 0.87219 0.47934 0.76275 0.0
H429 H 0.91003 0.40806 0.80625 0.0
H430 H 0.88282 0.38116 0.78952 0.0
H431 H 0.91958 0.40394 0.78042 0.0
H432 H 0.92104 0.51671 0.76209 0.0
H433 H 0.94499 0.51351 0.78051 0.0
H434 H 0.94509 0.50406 0.75394 0.0
H435 H 0.10482 0.52606 0.71593 0.0
H436 H 0.144 0.51395 0.71928 0.0
H437 H 0.11332 0.49203 0.73556 0.0
H438 H 0.11859 0.47741 0.71196 0.0
H439 H 0.03772 0.43832 0.72606 0.0
H440 H 0.06227 0.5261 0.71913 0.0
H441 H 0.00341 0.42643 0.7732 0.0
H442 H 0.97409 0.41731 0.75528 0.0
H443 H 0.00148 0.40781 0.74952 0.0
H444 H 0.03968 0.54714 0.73764 0.0
H445 H 0.00373 0.52311 0.74758 0.0
H446 H 0.035 0.5354 0.76416 0.0
H447 H 0.03246 0.50467 0.88357 0.0
H448 H 0.93797 0.47254 0.85324 0.0
H449 H 0.91821 0.46145 0.81876 0.0
H450 H 0.95629 0.45999 0.75149 0.0
H451 H 0.05098 0.49323 0.78207 0.0
H452 H 0.0708 0.5051 0.81637 0.0
H453 H 0.77707 0.42689 0.77474 0.0
H454 H 0.76713 0.40632 0.79835 0.0
H455 H 0.79823 0.44187 0.79805 0.0
C456 C 0.43369 0.84253 0.88962 0.0
C457 C 0.43752 0.83449 0.91168 0.0
C458 C 0.4689 0.88188 0.92733 0.0
C459 C 0.44698 0.88908 0.92983 0.0
C460 C 0.45383 0.91632 0.93675 0.0
C461 C 0.48323 0.93706 0.94095 0.0
C462 C 0.50535 0.92991 0.93849 0.0
C463 C 0.49779 0.90229 0.93198 0.0
C464 C 0.42957 0.92301 0.93938 0.0
C465 C 0.53701 0.95151 0.9425 0.0
C466 C 0.46106 0.07394 0.85088 0.0
C467 C 0.49184 0.0785 0.8539 0.0
C468 C 0.50027 0.06833 0.88871 0.0
C469 C 0.52582 0.06843 0.8943 0.0
C470 C 0.52547 0.04995 0.90965 0.0
C471 C 0.49894 0.03131 0.91969 0.0
C472 C 0.47305 0.03122 0.91401 0.0
C473 C 0.47406 0.04987 0.89858 0.0
C474 C 0.55343 0.05056 0.91532 0.0
C475 C 0.44447 0.01175 0.92448 0.0
C476 C 0.55334 0.13854 0.03772 0.0
C477 C 0.57206 0.13245 0.02645 0.0
C478 C 0.56346 0.10431 0.02075 0.0
C479 C 0.53504 0.08204 0.02576 0.0
C480 C 0.51612 0.08833 0.03711 0.0
C481 C 0.5258 0.11651 0.04331 0.0
C482 C 0.58484 0.09845 0.00952 0.0
C483 C 0.4856 0.06536 0.04257 0.0
C484 C 0.50998 0.88643 0.07873 0.0
C485 C 0.49558 0.90082 0.09022 0.0
C486 C 0.51494 0.94902 0.07754 0.0
C487 C 0.54135 0.96884 0.06863 0.0
C488 C 0.54233 0.98774 0.05344 0.0
C489 C 0.51625 0.98708 0.04746 0.0
C490 C 0.48972 0.96819 0.05737 0.0
C491 C 0.48934 0.94927 0.07231 0.0
C492 C 0.57105 0.00794 0.04341 0.0
C493 C 0.46176 0.96775 0.05193 0.0
C494 C 0.49082 0.9664 0.94731 0.0
C495 C 0.49193 0.98504 0.93192 0.0
C496 C 0.4985 0.01279 0.93675 0.0
C497 C 0.50448 0.02253 0.95749 0.0
C498 C 0.51102 0.05028 0.9629 0.0
C499 C 0.51746 0.05989 0.98327 0.0
C500 C 0.51782 0.04222 -0.00098 0.0
C501 C 0.52542 0.05213 0.01966 0.0
C502 C 0.52461 0.03363 0.03502 0.0
C503 C 0.51658 0.00546 0.03038 0.0
C504 C 0.50956 0.99534 0.00976 0.0
C505 C 0.50189 0.96723 0.00449 0.0
C506 C 0.49539 0.95759 0.98412 0.0
C507 C 0.49663 0.97576 0.96817 0.0
C508 C 0.5038 0.00403 0.97321 0.0
C509 C 0.51034 0.01385 -0.00598 0.0
C510 C 0.55185 0.20228 0.03381 0.0
C511 C 0.56945 0.18756 0.02934 0.0
O512 O 0.46335 0.85586 0.92033 0.0
O513 O 0.51476 0.92995 0.09116 0.0
O514 O 0.56154 0.16561 0.04333 0.0
O515 O 0.50122 0.08663 0.8741 0.0
H516 H 0.41879 0.8314 0.92126 0.0
H517 H 0.43231 0.86228 0.88976 0.0
H518 H 0.45244 0.84619 0.87983 0.0
H519 H 0.41323 0.82524 0.88257 0.0
H520 H 0.42445 0.87373 0.92641 0.0
H521 H 0.51459 0.89664 0.93008 0.0
H522 H 0.43121 0.93801 0.9271 0.0
H523 H 0.40764 0.90362 0.93833 0.0
H524 H 0.43167 0.93354 0.95456 0.0
H525 H 0.5518 0.94359 0.93765 0.0
H526 H 0.54314 0.97159 0.93412 0.0
H527 H 0.54046 0.95665 0.95927 0.0
H528 H 0.49072 0.05782 0.85036 0.0
H529 H 0.45472 0.07022 0.83425 0.0
H530 H 0.44502 0.0549 0.85955 0.0
H531 H 0.45986 0.09271 0.85645 0.0
H532 H 0.54598 0.08299 0.88659 0.0
H533 H 0.4545 0.05038 0.89445 0.0
H534 H 0.55921 0.05749 0.93168 0.0
H535 H 0.55037 0.0288 0.91398 0.0
H536 H 0.5719 0.06522 0.90534 0.0
H537 H 0.42627 0.01421 0.91825 0.0
H538 H 0.4389 0.98925 0.92241 0.0
H539 H 0.44659 0.01629 0.94136 0.0
H540 H 0.56368 0.17879 0.01327 0.0
H541 H 0.59355 0.1497 0.02245 0.0
H542 H 0.51161 0.12161 0.05208 0.0
H543 H 0.57831 0.09376 0.993 0.0
H544 H 0.60741 0.11695 0.01025 0.0
H545 H 0.58484 0.07958 0.01617 0.0
H546 H 0.47227 0.07434 0.04862 0.0
H547 H 0.47441 0.05193 0.02879 0.0
H548 H 0.4867 0.05133 0.05459 0.0
H549 H 0.47554 0.89596 0.08133 0.0
H550 H 0.49501 0.86299 0.07805 0.0
H551 H 0.51506 0.89457 0.06264 0.0
H552 H 0.53064 0.89097 0.08652 0.0
H553 H 0.56106 0.96878 0.07312 0.0
H554 H 0.46909 0.93473 0.07992 0.0
H555 H 0.56929 0.00438 0.02641 0.0
H556 H 0.57643 0.03026 0.04622 0.0
H557 H 0.58924 0.00529 0.04943 0.0
H558 H 0.44356 0.95367 0.06233 0.0
H559 H 0.4651 0.98965 0.05282 0.0
H560 H 0.45535 0.96008 0.03577 0.0
H561 H 0.48747 0.97779 0.91595 0.0
H562 H 0.51137 0.06496 0.95142 0.0
H563 H 0.52232 0.08144 0.98649 0.0
H564 H 0.53045 0.04131 0.05083 0.0
H565 H 0.5009 0.95235 0.01605 0.0
H566 H 0.48958 0.93574 0.98101 0.0
H567 H 0.55652 0.21145 0.0497 0.0
H568 H 0.55726 0.21961 0.02248 0.0
H569 H 0.52816 0.18662 0.03248 0.0
C570 C 0.5884 0.41688 0.06151 0.0
C571 C 0.59809 0.41449 0.0835 0.0
C572 C 0.58689 0.44813 0.10123 0.0
C573 C 0.55636 0.43083 0.10112 0.0
C574 C 0.53857 0.44212 0.10663 0.0
C575 C 0.5516 0.47118 0.11235 0.0
C576 C 0.58236 0.48838 0.11306 0.0
C577 C 0.59957 0.47647 0.10768 0.0
C578 C 0.50584 0.42317 0.10597 0.0
C579 C 0.59706 0.51951 0.11898 0.0
C580 C 0.4953 0.58773 0.0026 0.0
C581 C 0.50805 0.5802 0.02031 0.0
C582 C 0.49433 0.54321 0.0464 0.0
C583 C 0.51907 0.55942 0.05895 0.0
C584 C 0.52351 0.54807 0.07715 0.0
C585 C 0.50284 0.51993 0.08296 0.0
C586 C 0.4778 0.50361 0.07052 0.0
C587 C 0.47385 0.51553 0.05237 0.0
C588 C 0.55054 0.56607 0.09005 0.0
C589 C 0.45538 0.47357 0.07636 0.0
C590 C 0.43735 0.57591 0.18439 0.0
C591 C 0.46793 0.59102 0.18331 0.0
C592 C 0.48372 0.57662 0.18391 0.0
C593 C 0.46856 0.54658 0.18572 0.0
C594 C 0.43797 0.5316 0.18842 0.0
C595 C 0.42275 0.54658 0.18788 0.0
C596 C 0.51645 0.59333 0.18165 0.0
C597 C 0.42127 0.49964 0.19082 0.0
C598 C 0.5954 0.46749 0.24467 0.0
C599 C 0.57009 0.45983 0.25952 0.0
C600 C 0.55067 0.48925 0.24728 0.0
C601 C 0.56408 0.51682 0.2393 0.0
C602 C 0.55082 0.52389 0.22334 0.0
C603 C 0.52317 0.50294 0.21565 0.0
C604 C 0.50863 0.47558 0.22473 0.0
C605 C 0.52264 0.46895 0.24042 0.0
C606 C 0.56679 0.55338 0.21417 0.0
C607 C 0.47872 0.4531 0.21738 0.0
C608 C 0.53318 0.48408 0.11633 0.0
C609 C 0.52389 0.4932 0.09922 0.0
C610 C 0.50827 0.50745 0.10168 0.0
C611 C 0.50097 0.51215 0.12172 0.0
C612 C 0.48482 0.52596 0.1247 0.0
C613 C 0.47881 0.53157 0.14452 0.0
C614 C 0.48906 0.52391 0.16213 0.0
C615 C 0.48421 0.53068 0.18234 0.0
C616 C 0.49504 0.52318 0.1995 0.0
C617 C 0.51072 0.50894 0.19702 0.0
C618 C 0.51553 0.50169 0.17694 0.0
C619 C 0.53109 0.48723 0.1739 0.0
C620 C 0.53631 0.48082 0.15409 0.0
C621 C 0.52668 0.48912 0.13654 0.0
C622 C 0.51058 0.50331 0.13923 0.0
C623 C 0.50485 0.50944 0.15946 0.0
C624 C 0.40288 0.60486 0.15453 0.0
C625 C 0.42847 0.61207 0.16918 0.0
O626 O 0.60502 0.4387 0.095 0.0
O627 O 0.56536 0.48268 0.2614 0.0
O628 O 0.42125 0.58879 0.18175 0.0
O629 O 0.48957 0.5535 0.02852 0.0
H630 H 0.58034 0.39543 0.09127 0.0
H631 H 0.56795 0.41778 0.06184 0.0
H632 H 0.60549 0.43645 0.05383 0.0
H633 H 0.58418 0.398 0.0521 0.0
H634 H 0.54626 0.40866 0.09659 0.0
H635 H 0.62315 0.48951 0.1079 0.0
H636 H 0.49668 0.43029 0.09336 0.0
H637 H 0.49911 0.40045 0.10323 0.0
H638 H 0.49623 0.42495 0.12075 0.0
H639 H 0.62118 0.53031 0.11759 0.0
H640 H 0.5889 0.53068 0.10899 0.0
H641 H 0.59165 0.52165 0.13521 0.0
H642 H 0.5307 0.58436 0.01791 0.0
H643 H 0.5094 0.58971 0.98899 0.0
H644 H 0.47597 0.56722 -0.00305 0.0
H645 H 0.49155 0.6224 0.01394 0.0
H646 H 0.53512 0.58092 0.05461 0.0
H647 H 0.4548 0.5032 0.04266 0.0
H648 H 0.54424 0.56851 0.10595 0.0
H649 H 0.56359 0.55528 0.09129 0.0
H650 H 0.5645 0.58761 0.08341 0.0
H651 H 0.43649 0.46405 0.0655 0.0
H652 H 0.46564 0.46003 0.07649 0.0
H653 H 0.44735 0.47337 0.09224 0.0
H654 H 0.44734 0.61668 0.15911 0.0
H655 H 0.47946 0.61398 0.18164 0.0
H656 H 0.39919 0.53524 0.18917 0.0
H657 H 0.52249 0.58855 0.16634 0.0
H658 H 0.52526 0.61668 0.18282 0.0
H659 H 0.52696 0.58687 0.19372 0.0
H660 H 0.39775 0.49133 0.1939 0.0
H661 H 0.42328 0.48947 0.17647 0.0
H662 H 0.43073 0.49331 0.20371 0.0
H663 H 0.55033 0.44093 0.25306 0.0
H664 H 0.59966 0.44947 0.24328 0.0
H665 H 0.58986 0.47197 0.22905 0.0
H666 H 0.61556 0.48671 0.25025 0.0
H667 H 0.58554 0.53242 0.24501 0.0
H668 H 0.51178 0.44793 0.24725 0.0
H669 H 0.57046 0.55193 0.19741 0.0
H670 H 0.55326 0.56365 0.21563 0.0
H671 H 0.5882 0.56719 0.22185 0.0
H672 H 0.46897 0.43411 0.22758 0.0
H673 H 0.46391 0.46205 0.21672 0.0
H674 H 0.48026 0.4462 0.20149 0.0
H675 H 0.52983 0.4901 0.08378 0.0
H676 H 0.47671 0.53265 0.11173 0.0
H677 H 0.46633 0.54233 0.14582 0.0
H678 H 0.4916 0.52884 0.21492 0.0
H679 H 0.53953 0.48076 0.1868 0.0
H680 H 0.54839 0.46966 0.15269 0.0
H681 H 0.38277 0.59928 0.16336 0.0
H682 H 0.40807 0.62325 0.14432 0.0
H683 H 0.39856 0.58636 0.14464 0.0
C684 C 0.70497 0.43797 0.3992 0.0
O685 O 0.70918 0.4598 0.4093 0.0
Cd686 Cd 0.66641 0.46298 0.41706 0.0
O687 O 0.67925 0.41727 0.39625 0.0
Cd688 Cd 0.62845 0.40015 0.40668 0.0
C689 C 0.62733 0.444 0.37111 0.0
O690 O 0.63566 0.42471 0.44014 0.0
O691 O 0.59273 0.40607 0.42618 0.0
O692 O 0.63389 0.36043 0.41741 0.0
C693 C 0.60904 0.41788 0.44179 0.0
O694 O 0.64335 0.46352 0.38401 0.0
C695 C 0.60935 0.34097 0.41075 0.0
O696 O 0.61905 0.41804 0.37495 0.0
O697 O 0.59314 0.34885 0.4018 0.0
C698 C 0.26922 0.58502 0.57574 0.0
O699 O 0.2523 0.56259 0.56563 0.0
Cd700 Cd 0.20538 0.55635 0.55581 0.0
O701 O 0.2633 0.60492 0.57768 0.0
Cd702 Cd 0.22854 0.61952 0.56538 0.0
C703 C 0.18317 0.57417 0.60078 0.0
O704 O 0.2128 0.59388 0.53222 0.0
O705 O 0.18688 0.61127 0.54421 0.0
O706 O 0.27284 0.66152 0.55465 0.0
C707 C 0.19232 0.59931 0.52939 0.0
O708 O 0.18047 0.55474 0.5883 0.0
C709 C 0.26729 0.67955 0.56283 0.0
O710 O 0.20023 0.60031 0.5966 0.0
O711 O 0.24305 0.66973 0.57214 0.0
C712 C 0.68937 0.25527 0.74394 0.0
O713 O 0.68988 0.23308 0.73835 0.0
Cd714 Cd 0.64699 0.19289 0.7232 0.0
O715 O 0.6663 0.25683 0.74215 0.0
Cd716 Cd 0.6151 0.23095 0.73077 0.0
C717 C 0.59819 0.17555 0.76341 0.0
O718 O 0.62435 0.21081 0.70015 0.0
O719 O 0.57924 0.19699 0.70626 0.0
O720 O 0.62797 0.27839 0.71994 0.0
C721 C 0.59777 0.19515 0.695 0.0
O722 O 0.61343 0.16939 0.75158 0.0
C723 C 0.60593 0.27843 0.72746 0.0
O724 O 0.59666 0.19807 0.76054 0.0
O725 O 0.58721 0.2558 0.73651 0.0
C726 C 0.32748 0.56362 0.89931 0.0
O727 O 0.33127 0.54363 0.90581 0.0
Cd728 Cd 0.37873 0.55347 0.91736 0.0
O729 O 0.34883 0.58907 0.89867 0.0
Cd730 Cd 0.40129 0.61838 0.90686 0.0
C731 C 0.42124 0.58228 0.87416 0.0
O732 O 0.3969 0.59441 0.93981 0.0
O733 O 0.44051 0.62525 0.93039 0.0
O734 O 0.38509 0.6516 0.91605 0.0
C735 C 0.42392 0.6082 0.94408 0.0
O736 O 0.40955 0.56207 0.88719 0.0
C737 C 0.40643 0.67361 0.90833 0.0
O738 O 0.41974 0.60485 0.87657 0.0
O739 O 0.42594 0.67022 0.89961 0.0
C740 C 0.75161 0.42333 0.06495 0.0
O741 O 0.77447 0.44466 0.05794 0.0
Cd742 Cd 0.81577 0.44263 0.04569 0.0
O743 O 0.74954 0.39889 0.06595 0.0
Cd744 Cd 0.77664 0.37364 0.05792 0.0
C745 C 0.83384 0.41713 0.08951 0.0
O746 O 0.79483 0.3994 0.02669 0.0
O747 O 0.81388 0.37367 0.03445 0.0
O748 O 0.73359 0.33549 0.04172 0.0
C749 C 0.81234 0.39091 0.02192 0.0
O750 O 0.83877 0.4366 0.07644 0.0
C751 C 0.7287 0.3164 0.05493 0.0
O752 O 0.81184 0.39207 0.08736 0.0
O753 O 0.74679 0.32344 0.06988 0.0
C754 C 0.33351 0.75284 0.23921 0.0
O755 O 0.33203 0.77411 0.2326 0.0
Cd756 Cd 0.37659 0.81595 0.22278 0.0
O757 O 0.35794 0.75367 0.23982 0.0
Cd758 Cd 0.41038 0.78216 0.23192 0.0
C759 C 0.41726 0.82943 0.2681 0.0
O760 O 0.40011 0.79893 0.19979 0.0
O761 O 0.4456 0.81809 0.20825 0.0
O762 O 0.39481 0.73271 0.22673 0.0
C763 C 0.42657 0.81545 0.19508 0.0
O764 O 0.40253 0.83537 0.25548 0.0
C765 C 0.41968 0.7349 0.22817 0.0
O766 O 0.42301 0.80981 0.26392 0.0
O767 O 0.44129 0.75961 0.2317 0.0
H768 H 0.23261 0.62859 0.25974 0.0
H769 H 0.1798 0.66565 0.24338 0.0
H770 H 0.22369 0.71217 0.23901 0.0
H771 H 0.27718 0.74161 0.23789 0.0
H772 H 0.32973 0.70373 0.25327 0.0
H773 H 0.28589 0.6584 0.26008 0.0
C774 C 0.23075 0.64699 0.25555 0.0
C775 C 0.20303 0.64381 0.2523 0.0
C776 C 0.25604 0.6735 0.25273 0.0
C777 C 0.20089 0.66766 0.24636 0.0
C778 C 0.22598 0.69422 0.24375 0.0
C779 C 0.27906 0.72352 0.24291 0.0
C780 C 0.30675 0.72613 0.24495 0.0
C781 C 0.25368 0.6973 0.24663 0.0
C782 C 0.30874 0.70241 0.25151 0.0
C783 C 0.28365 0.6764 0.25539 0.0
H784 H 0.55138 0.21387 0.44021 0.0
H785 H 0.64134 0.2345 0.44038 0.0
H786 H 0.65601 0.28128 0.42582 0.0
H787 H 0.64369 0.31781 0.41612 0.0
H788 H 0.5536 0.29658 0.41427 0.0
H789 H 0.53843 0.24827 0.42614 0.0
C790 C 0.57418 0.22857 0.43697 0.0
C791 C 0.59539 0.22122 0.44224 0.0
C792 C 0.58239 0.25526 0.42833 0.0
C793 C 0.62473 0.24005 0.43723 0.0
C794 C 0.63311 0.26675 0.42881 0.0
C795 C 0.62071 0.30247 0.41809 0.0
C796 C 0.59979 0.31076 0.41465 0.0
C797 C 0.61221 0.27484 0.42484 0.0
C798 C 0.57007 0.29064 0.41688 0.0
C799 C 0.56143 0.26311 0.42378 0.0
H800 H 0.38543 0.62081 0.62472 0.0
H801 H 0.40721 0.59593 0.56706 0.0
H802 H 0.35785 0.57896 0.55406 0.0
H803 H 0.30939 0.57468 0.55799 0.0
H804 H 0.29013 0.60507 0.61404 0.0
H805 H 0.33736 0.61635 0.62877 0.0
C806 C 0.37928 0.61151 0.60934 0.0
C807 C 0.40003 0.60966 0.59698 0.0
C808 C 0.35125 0.60289 0.60163 0.0
C809 C 0.39178 0.5976 0.57703 0.0
C810 C 0.36351 0.58794 0.56953 0.0
C811 C 0.31549 0.58336 0.57354 0.0
C812 C 0.29643 0.58892 0.58503 0.0
C813 C 0.34321 0.59094 0.58154 0.0
C814 C 0.30458 0.60065 0.60498 0.0
C815 C 0.33155 0.60713 0.61337 0.0
H816 H 0.7842 0.35589 0.79739 0.0
H817 H 0.78789 0.40258 0.74246 0.0
H818 H 0.75434 0.35805 0.72465 0.0
H819 H 0.71982 0.30646 0.72613 0.0
H820 H 0.71621 0.25948 0.78075 0.0
H821 H 0.75402 0.30344 0.79737 0.0
C822 C 0.77804 0.35619 0.7814 0.0
C823 C 0.78842 0.38241 0.77124 0.0
C824 C 0.75864 0.33053 0.77133 0.0
C825 C 0.78019 0.38262 0.75055 0.0
C826 C 0.76095 0.35721 0.74041 0.0
C827 C 0.7279 0.30591 0.74149 0.0
C828 C 0.7156 0.28009 0.75229 0.0
C829 C 0.74946 0.33116 0.75084 0.0
C830 C 0.72582 0.27926 0.77218 0.0
C831 C 0.74721 0.30436 0.78168 0.0
H832 H 0.39194 0.78148 0.91911 0.0
H833 H 0.48264 0.8248 0.90201 0.0
H834 H 0.48112 0.779 0.89913 0.0
H835 H 0.45356 0.72635 0.90117 0.0
H836 H 0.36285 0.68377 0.91864 0.0
H837 H 0.3648 0.72948 0.92161 0.0
C838 C 0.41146 0.7809 0.91501 0.0
C839 C 0.4375 0.80651 0.91123 0.0
C840 C 0.41036 0.75458 0.91329 0.0
C841 C 0.46248 0.8054 0.90541 0.0
C842 C 0.46156 0.77922 0.90365 0.0
C843 C 0.43425 0.72713 0.90558 0.0
C844 C 0.40811 0.70166 0.90967 0.0
C845 C 0.43556 0.75363 0.90749 0.0
C846 C 0.38329 0.70302 0.91548 0.0
C847 C 0.38435 0.72916 0.91718 0.0
H848 H 0.65494 0.45655 0.07928 0.0
H849 H 0.60076 0.36526 0.08365 0.0
H850 H 0.64369 0.35989 0.07947 0.0
H851 H 0.69627 0.3812 0.07337 0.0
H852 H 0.75007 0.47269 0.06871 0.0
H853 H 0.70761 0.47794 0.0747 0.0
C854 C 0.65261 0.43551 0.07968 0.0
C855 C 0.62483 0.41134 0.08223 0.0
C856 C 0.67727 0.43263 0.07726 0.0
C857 C 0.62201 0.38417 0.0821 0.0
C858 C 0.6465 0.38111 0.07967 0.0
C859 C 0.69879 0.40232 0.07389 0.0
C860 C 0.72632 0.4265 0.07051 0.0
C861 C 0.67422 0.4052 0.07712 0.0
C862 C 0.72913 0.45369 0.07116 0.0
C863 C 0.70485 0.45673 0.07455 0.0
H864 H 0.34611 0.81376 0.56657 0.0
H865 H 0.41171 0.79229 0.5503 0.0
H866 H 0.37468 0.74193 0.5486 0.0
H867 H 0.32427 0.70389 0.55303 0.0
H868 H 0.2586 0.72429 0.57128 0.0
H869 H 0.29507 0.7752 0.57105 0.0
C870 C 0.35224 0.798 0.56273 0.0
C871 C 0.38169 0.80674 0.5588 0.0
C872 C 0.33089 0.76894 0.5622 0.0
C873 C 0.38927 0.78613 0.55353 0.0
C874 C 0.36812 0.75733 0.55257 0.0
C875 C 0.31785 0.71946 0.55685 0.0
C876 C 0.28879 0.71037 0.56215 0.0
C877 C 0.33896 0.74849 0.55707 0.0
C878 C 0.28088 0.73079 0.56721 0.0
C879 C 0.30171 0.75987 0.56707 0.0
H880 H 0.61593 0.39856 0.71756 0.0
H881 H 0.52424 0.34976 0.7315 0.0
H882 H 0.52756 0.30638 0.73442 0.0
H883 H 0.55697 0.28249 0.73314 0.0
H884 H 0.64854 0.3321 0.71846 0.0
H885 H 0.64483 0.37495 0.71574 0.0
C886 C 0.5966 0.37836 0.72101 0.0
C887 C 0.56979 0.37725 0.72393 0.0
C888 C 0.5987 0.35368 0.72264 0.0
C889 C 0.54503 0.35103 0.72885 0.0
C890 C 0.54697 0.32629 0.7306 0.0
C891 C 0.57606 0.3027 0.72935 0.0
C892 C 0.60296 0.30407 0.72596 0.0
C893 C 0.57373 0.32736 0.72756 0.0
C894 C 0.62751 0.33039 0.721 0.0
C895 C 0.62546 0.35495 0.71947 0.0
H896 H 0.19371 0.52398 0.89003 0.0
H897 H 0.23008 0.61418 0.88032 0.0
H898 H 0.27935 0.62137 0.8825 0.0
H899 H 0.31189 0.60251 0.88869 0.0
H900 H 0.27609 0.51245 0.89919 0.0
H901 H 0.22674 0.50463 0.89469 0.0
C902 C 0.21245 0.5451 0.88804 0.0
C903 C 0.20829 0.56846 0.88458 0.0
C904 C 0.24075 0.5491 0.88943 0.0
C905 C 0.23276 0.59584 0.88259 0.0
C906 C 0.2609 0.59996 0.8839 0.0
C907 C 0.29337 0.58108 0.88978 0.0
C908 C 0.29775 0.55813 0.89437 0.0
C909 C 0.26513 0.5768 0.88748 0.0
C910 C 0.27339 0.53053 0.89573 0.0
C911 C 0.24514 0.52604 0.89322 0.0
H912 H 0.60591 0.20528 0.06361 0.0
H913 H 0.60488 0.21884 -0.00207 0.0
H914 H 0.65509 0.25827 -0.00025 0.0
H915 H 0.69747 0.29146 0.02038 0.0
H916 H 0.6995 0.27847 0.08603 0.0
H917 H 0.65093 0.23584 0.08384 0.0
C918 C 0.61695 0.21649 0.04965 0.0
C919 C 0.6018 0.20898 0.03059 0.0
C920 C 0.64588 0.23928 0.05084 0.0
C921 C 0.6162 0.22403 0.0127 0.0
C922 C 0.64484 0.24664 0.01375 0.0
C923 C 0.68745 0.27907 0.03417 0.0
C924 C 0.70187 0.2882 0.05336 0.0
C925 C 0.65963 0.25482 0.03278 0.0
C926 C 0.68882 0.27181 0.07107 0.0
C927 C 0.66098 0.24757 0.06983 0.0
H928 H 0.39795 0.61506 0.20197 0.0
H929 H 0.4737 0.66691 0.16487 0.0
H930 H 0.48088 0.70985 0.1827 0.0
H931 H 0.46172 0.73296 0.20571 0.0
H932 H 0.3834 0.68084 0.24035 0.0
H933 H 0.38147 0.63769 0.22714 0.0
C934 C 0.41635 0.63573 0.19812 0.0
C935 C 0.4353 0.63789 0.1822 0.0
C936 C 0.41983 0.66028 0.20802 0.0
C937 C 0.4589 0.66478 0.17715 0.0
C938 C 0.46295 0.68931 0.18729 0.0
C939 C 0.44479 0.71212 0.21078 0.0
C940 C 0.42277 0.7099 0.22396 0.0
C941 C 0.44307 0.68739 0.20235 0.0
C942 C 0.40056 0.6829 0.23019 0.0
C943 C 0.39935 0.65827 0.22255 0.0
H944 H 0.80858 0.41489 0.38585 0.0
H945 H 0.7652 0.38521 0.32671 0.0
H946 H 0.73013 0.39993 0.33614 0.0
H947 H 0.70962 0.41784 0.36221 0.0
H948 H 0.75503 0.45119 0.42008 0.0
H949 H 0.79197 0.4389 0.40996 0.0
C950 C 0.79169 0.41185 0.37489 0.0
C951 C 0.78909 0.39821 0.35574 0.0
C952 C 0.77204 0.42107 0.38019 0.0
C953 C 0.76727 0.39505 0.3417 0.0
C954 C 0.74728 0.40354 0.34705 0.0
C955 C 0.72789 0.42277 0.37243 0.0
C956 C 0.72964 0.43512 0.39188 0.0
C957 C 0.7491 0.41601 0.3664 0.0
C958 C 0.75344 0.44177 0.40498 0.0
C959 C 0.77438 0.43456 0.39926 0.0
H960 H 0.14305 0.57456 0.43792 0.0
H961 H 0.0937 0.61171 0.46184 0.0
H962 H 0.11526 0.61597 0.49616 0.0
H963 H 0.14973 0.61107 0.5189 0.0
H964 H 0.19996 0.57485 0.49477 0.0
H965 H 0.17629 0.56807 0.46103 0.0
C966 C 0.13675 0.58321 0.45074 0.0
C967 C 0.11647 0.59237 0.44746 0.0
C968 C 0.14948 0.58589 0.47033 0.0
C969 C 0.1089 0.60408 0.46409 0.0
C970 C 0.12132 0.60664 0.48367 0.0
C971 C 0.15538 0.60152 0.50631 0.0
C972 C 0.17669 0.5936 0.50934 0.0
C973 C 0.14185 0.59788 0.48691 0.0
C974 C 0.1837 0.58122 0.49285 0.0
C975 C 0.1702 0.57736 0.47354 0.0
H976 H 0.53881 0.08267 0.64167 0.0
H977 H 0.62864 0.11174 0.62677 0.0
H978 H 0.64411 0.15562 0.64656 0.0
H979 H 0.63225 0.18381 0.67033 0.0
H980 H 0.54217 0.15448 0.68498 0.0
H981 H 0.52663 0.11281 0.66283 0.0
C982 C 0.56173 0.09878 0.64257 0.0
C983 C 0.58259 0.09392 0.63296 0.0
C984 C 0.57042 0.12384 0.65398 0.0
C985 C 0.61223 0.115 0.63416 0.0
C986 C 0.62106 0.14003 0.64548 0.0
C987 C 0.60921 0.16848 0.66847 0.0
C988 C 0.58845 0.17209 0.67947 0.0
C989 C 0.60039 0.14441 0.6558 0.0
C990 C 0.55864 0.15214 0.67679 0.0
C991 C 0.54971 0.12823 0.66417 0.0
H992 H 0.4956 0.55816 0.80976 0.0
H993 H 0.50168 0.63268 0.78114 0.0
H994 H 0.47079 0.63524 0.80813 0.0
H995 H 0.44339 0.61711 0.84055 0.0
H996 H 0.43653 0.54166 0.86842 0.0
H997 H 0.46614 0.53857 0.84096 0.0
C998 C 0.49004 0.57487 0.80939 0.0
C999 C 0.50116 0.59538 0.79363 0.0
C1000 C 0.47213 0.57607 0.82483 0.0
C1001 C 0.49359 0.61681 0.79325 0.0
C1002 C 0.47592 0.61826 0.80865 0.0
C1003 C 0.44827 0.59993 0.84058 0.0
C1004 C 0.43784 0.57978 0.85665 0.0
C1005 C 0.4653 0.59815 0.82465 0.0
C1006 C 0.44423 0.55751 0.8563 0.0
C1007 C 0.46125 0.55573 0.84061 0.0
H1008 H 0.90046 0.47835 0.95845 0.0
H1009 H 0.95557 0.44843 0.98398 0.0
H1010 H 0.91453 0.41226 0.00389 0.0
H1011 H 0.86425 0.39252 0.01659 0.0
H1012 H 0.80992 0.4236 0.99121 0.0
H1013 H 0.84913 0.45537 0.96828 0.0
C1014 C 0.90331 0.46346 0.96797 0.0
C1015 C 0.9309 0.46581 0.96958 0.0
C1016 C 0.87977 0.44298 0.97946 0.0
C1017 C 0.9344 0.44675 0.98234 0.0
C1018 C 0.911 0.42618 -0.00623 0.0
C1019 C 0.86085 0.40584 0.00574 0.0
C1020 C 0.83438 0.40598 0.00577 0.0
C1021 C 0.88373 0.42452 0.99281 0.0
C1022 C 0.83024 0.42334 0.99164 0.0
C1023 C 0.85267 0.44159 0.97855 0.0
H1024 H 0.44116 0.86425 0.1047 0.0
H1025 H 0.53143 0.91028 0.12384 0.0
H1026 H 0.51808 0.88847 0.15813 0.0
H1027 H 0.48082 0.85507 0.18219 0.0
H1028 H 0.39048 0.80935 0.16288 0.0
H1029 H 0.40376 0.83241 0.12916 0.0
C1030 C 0.45784 0.86969 0.11646 0.0
C1031 C 0.48718 0.88894 0.11183 0.0
C1032 C 0.45002 0.85705 0.13605 0.0
C1033 C 0.50866 0.89564 0.12714 0.0
C1034 C 0.50105 0.88313 0.14668 0.0
C1035 C 0.46404 0.85023 0.17063 0.0
C1036 C 0.43473 0.83042 0.17501 0.0
C1037 C 0.47182 0.86361 0.15125 0.0
C1038 C 0.41321 0.82449 0.1599 0.0
C1039 C 0.42078 0.83764 0.14059 0.0
H1040 H 0.60447 0.49588 0.29046 0.0
H1041 H 0.55224 0.40669 0.27493 0.0
H1042 H 0.565 0.39386 0.30802 0.0
H1043 H 0.59146 0.40801 0.3411 0.0
H1044 H 0.64374 0.49733 0.35671 0.0
H1045 H 0.63029 0.51005 0.32394 0.0
C1046 C 0.59562 0.47365 0.29448 0.0
C1047 C 0.57696 0.45223 0.28049 0.0
C1048 C 0.6031 0.46645 0.31349 0.0
C1049 C 0.56621 0.42351 0.28563 0.0
C1050 C 0.57359 0.41618 0.30449 0.0
C1051 C 0.59989 0.43027 0.33738 0.0
C1052 C 0.61864 0.45164 0.35138 0.0
C1053 C 0.59206 0.43747 0.31852 0.0
C1054 C 0.62928 0.48039 0.34627 0.0
C1055 C 0.62162 0.48772 0.3275 0.0
H1056 H 0.4413 0.86624 0.36198 0.0
H1057 H 0.40135 0.91508 0.34289 0.0
H1058 H 0.40042 0.9005 0.30705 0.0
H1059 H 0.40703 0.87087 0.28177 0.0
H1060 H 0.44443 0.81964 0.30074 0.0
H1061 H 0.45073 0.83854 0.33594 0.0
C1062 C 0.43288 0.87403 0.34987 0.0
C1063 C 0.42188 0.89207 0.35502 0.0
C1064 C 0.43179 0.86503 0.32933 0.0
C1065 C 0.41043 0.90159 0.33929 0.0
C1066 C 0.40974 0.89314 0.31881 0.0
C1067 C 0.41688 0.86401 0.2935 0.0
C1068 C 0.42496 0.84362 0.28863 0.0
C1069 C 0.41983 0.87445 0.31374 0.0
C1070 C 0.43788 0.83521 0.30405 0.0
C1071 C 0.44139 0.84592 0.32422 0.0
H1072 H 0.57439 0.43326 0.53222 0.0
H1073 H 0.4905 0.40072 0.50248 0.0
H1074 H 0.51173 0.39983 0.46915 0.0
H1075 H 0.55362 0.40617 0.44888 0.0
H1076 H 0.63748 0.43818 0.47871 0.0
H1077 H 0.61684 0.44162 0.51159 0.0
C1078 C 0.56089 0.42636 0.51837 0.0
C1079 C 0.53103 0.41742 0.51974 0.0
C1080 C 0.57319 0.42567 0.49933 0.0
C1081 C 0.51363 0.40806 0.50174 0.0
C1082 C 0.52573 0.40743 0.48273 0.0
C1083 C 0.56745 0.41408 0.46254 0.0
C1084 C 0.59703 0.42178 0.46136 0.0
C1085 C 0.55541 0.41588 0.48139 0.0
C1086 C 0.61464 0.43207 0.47919 0.0
C1087 C 0.60284 0.43401 0.49801 0.0
H1088 H 0.1347 0.56016 0.69161 0.0
H1089 H 0.09419 0.47132 0.6748 0.0
H1090 H 0.11443 0.48427 0.63995 0.0
H1091 H 0.1454 0.52081 0.61488 0.0
H1092 H 0.18631 0.60977 0.63196 0.0
H1093 H 0.16387 0.59677 0.66601 0.0
C1094 C 0.13004 0.54368 0.68021 0.0
C1095 C 0.11277 0.51486 0.68567 0.0
C1096 C 0.14187 0.55128 0.6603 0.0
C1097 C 0.1072 0.49366 0.67086 0.0
C1098 C 0.11883 0.50105 0.65099 0.0
C1099 C 0.14927 0.5374 0.62597 0.0
C1100 C 0.16768 0.56623 0.62084 0.0
C1101 C 0.13644 0.5298 0.64561 0.0
C1102 C 0.17231 0.5874 0.63544 0.0
C1103 C 0.15954 0.58 0.65497 0.0
H1104 H 0.52281 0.07235 0.8227 0.0
H1105 H 0.50871 0.13549 0.85266 0.0
H1106 H 0.54066 0.17135 0.82766 0.0
H1107 H 0.57118 0.18417 0.79637 0.0
H1108 H 0.58618 0.1208 0.76746 0.0
H1109 H 0.55553 0.0858 0.79301 0.0
C1110 C 0.52684 0.09399 0.82381 0.0
C1111 C 0.51309 0.10116 0.8393 0.0
C1112 C 0.54538 0.11448 0.80954 0.0
C1113 C 0.51878 0.12939 0.84069 0.0
C1114 C 0.53705 0.14988 0.82642 0.0
C1115 C 0.56782 0.16274 0.79572 0.0
C1116 C 0.58086 0.15517 0.77991 0.0
C1117 C 0.55021 0.14259 0.81061 0.0
C1118 C 0.57648 0.12733 0.77944 0.0
C1119 C 0.55886 0.10719 0.79403 0.0
H1120 H 0.45035 0.57208 0.03932 0.0
H1121 H 0.55539 0.64157 0.01578 0.0
H1122 H 0.5313 0.65058 0.97815 0.0
H1123 H 0.48068 0.63306 0.95518 0.0
H1124 H 0.39253 0.57531 0.97587 0.0
H1125 H 0.40738 0.56668 0.00935 0.0
C1126 C 0.46533 0.58772 0.0285 0.0
C1127 C 0.50551 0.602 0.02999 0.0
C1128 C 0.45295 0.59373 0.00411 0.0
C1129 C 0.53207 0.63196 0.01361 0.0
C1130 C 0.51695 0.63622 0.98984 0.0
C1131 C 0.46612 0.6192 0.96702 0.0
C1132 C 0.43559 0.60435 0.96394 0.0
C1133 C 0.47821 0.61652 0.98523 0.0
C1134 C 0.41572 0.5861 0.97917 0.0
C1135 C 0.42389 0.58091 -0.00137 0.0
H1136 H 0.93824 0.46635 0.15358 0.0
H1137 H 0.89044 0.38071 0.17709 0.0
H1138 H 0.85193 0.36865 0.15116 0.0
H1139 H 0.83316 0.38214 0.12058 0.0
H1140 H 0.88214 0.46835 0.09767 0.0
H1141 H 0.9186 0.4804 0.1246 0.0
C1142 C 0.9192 0.44515 0.15321 0.0
C1143 C 0.91708 0.42453 0.1673 0.0
C1144 C 0.89738 0.43839 0.13825 0.0
C1145 C 0.89241 0.39702 0.16648 0.0
C1146 C 0.87049 0.39011 0.15162 0.0
C1147 C 0.8517 0.40359 0.12157 0.0
C1148 C 0.85483 0.42417 0.10694 0.0
C1149 C 0.87291 0.41055 0.13722 0.0
C1150 C 0.87905 0.45192 0.10856 0.0
C1151 C 0.90004 0.45893 0.124 0.0
loop_
_geom_bond_atom_site_label_1
_geom_bond_atom_site_label_2
_geom_bond_distance
_geom_bond_site_symmetry_2
_ccdc_geom_bond_type
C0 C1 1.560 . S
C0 H61 0.959 . S
C0 H62 0.959 . S
C0 H63 0.960 . S
C1 C0 1.560 . S
C1 O56 1.426 . S
C1 H60 0.980 . S
C2 C3 1.407 . S
C2 C7 1.418 . S
C2 O56 1.334 . S
C3 C2 1.407 . S
C3 C4 1.360 . S
C3 H64 0.929 . S
C4 C3 1.360 . S
C4 C5 1.401 . S
C4 C8 1.527 . S
C5 C4 1.401 . S
C5 C6 1.405 . S
C5 C38 1.587 . S
C6 C5 1.405 . S
C6 C7 1.332 . S
C6 C9 1.496 . S
C7 C2 1.418 . S
C7 C6 1.332 . S
C7 H65 0.929 . S
C8 C4 1.527 . S
C8 H66 0.959 . S
C8 H67 0.961 . S
C8 H68 0.961 . S
C9 C6 1.496 . S
C9 H69 0.960 . S
C9 H70 0.960 . S
C9 H71 0.961 . S
C10 C11 1.517 . S
C10 H73 0.961 . S
C10 H74 0.960 . S
C10 H75 0.959 . S
C11 C10 1.517 . S
C11 O59 1.468 . S
C11 H72 0.980 . S
C12 C13 1.349 . S
C12 C17 1.367 . S
C12 O59 1.408 . S
C13 C12 1.349 . S
C13 C14 1.407 . S
C13 H76 0.930 . S
C14 C13 1.407 . S
C14 C15 1.449 . S
C14 C18 1.535 . S
C15 C14 1.449 . S
C15 C16 1.384 . S
C15 C40 1.553 1_655 S
C16 C15 1.384 . S
C16 C17 1.364 . S
C16 C19 1.450 . S
C17 C12 1.367 . S
C17 C16 1.364 . S
C17 H77 0.931 . S
C18 C14 1.535 . S
C18 H78 0.959 1_655 S
C18 H79 0.961 1_655 S
C18 H80 0.959 . S
C19 C16 1.450 . S
C19 H81 0.960 . S
C19 H82 0.960 1_655 S
C19 H83 0.960 . S
C20 C21 1.309 . S
C20 C25 1.304 . S
C20 O58 1.435 . S
C21 C20 1.309 . S
C21 C22 1.476 . S
C21 H85 0.930 . S
C22 C21 1.476 . S
C22 C23 1.400 . S
C22 C26 1.567 . S
C23 C22 1.400 . S
C23 C24 1.373 . S
C23 C45 1.432 . S
C24 C23 1.373 . S
C24 C25 1.339 . S
C24 C27 1.530 . S
C25 C20 1.304 . S
C25 C24 1.339 . S
C25 H86 0.930 . S
C26 C22 1.567 . S
C26 H87 0.961 . S
C26 H88 0.960 . S
C26 H89 0.958 . S
C27 C24 1.530 . S
C27 H90 0.961 . S
C27 H91 0.960 . S
C27 H92 0.960 . S
C28 C29 1.530 . S
C28 H94 0.961 . S
C28 H95 0.961 . S
C28 H96 0.959 . S
C29 C28 1.530 . S
C29 O57 1.412 . S
C29 H93 0.980 . S
C30 C31 1.288 . S
C30 C35 1.377 . S
C30 O57 1.393 . S
C31 C30 1.288 . S
C31 C32 1.369 . S
C31 H97 0.932 . S
C32 C31 1.369 . S
C32 C33 1.398 . S
C32 C36 1.527 . S
C33 C32 1.398 . S
C33 C34 1.380 . S
C33 C47 1.497 . S
C34 C33 1.380 . S
C34 C35 1.383 . S
C34 C37 1.603 . S
C35 C30 1.377 . S
C35 C34 1.383 . S
C35 H98 0.929 . S
C36 C32 1.527 . S
C36 H99 0.961 . S
C36 H100 0.931 1_455 S
C36 H101 0.959 . S
C37 C34 1.603 . S
C37 H102 0.960 . S
C37 H103 0.962 . S
C37 H104 0.961 . S
C38 C5 1.587 . S
C38 C39 1.360 . S
C38 C51 1.412 . S
C39 C38 1.360 . S
C39 C40 1.365 . S
C39 H105 0.929 . S
C40 C15 1.553 1_455 S
C40 C39 1.365 . S
C40 C41 1.404 . S
C41 C40 1.404 . S
C41 C42 1.395 1_455 S
C41 C52 1.451 . S
C42 C41 1.395 1_655 S
C42 C43 1.322 . S
C42 H106 0.930 . S
C43 C42 1.322 . S
C43 C44 1.459 . S
C43 H107 0.929 . S
C44 C43 1.459 . S
C44 C45 1.445 . S
C44 C53 1.395 1_655 S
C45 C23 1.432 . S
C45 C44 1.445 . S
C45 C46 1.370 . S
C46 C45 1.370 . S
C46 C47 1.438 1_655 S
C46 H108 0.930 . S
C47 C33 1.497 . S
C47 C46 1.438 1_455 S
C47 C48 1.360 . S
C48 C47 1.360 . S
C48 C49 1.401 . S
C48 C53 1.446 . S
C49 C48 1.401 . S
C49 C50 1.347 . S
C49 H109 0.929 . S
C50 C49 1.347 . S
C50 C51 1.455 . S
C50 H110 0.930 . S
C51 C38 1.412 . S
C51 C50 1.455 . S
C51 C52 1.331 . S
C52 C41 1.451 . S
C52 C51 1.331 . S
C52 C53 1.497 . S
C53 C44 1.395 1_455 S
C53 C48 1.446 . S
C53 C52 1.497 . S
C54 C55 1.582 . S
C54 H111 0.962 . S
C54 H112 0.959 . S
C54 H113 0.958 . S
C55 C54 1.582 . S
C55 O58 1.458 . S
C55 H84 0.980 . S
O56 C1 1.426 . S
O56 C2 1.334 . S
O57 C29 1.412 . S
O57 C30 1.393 . S
O58 C20 1.435 . S
O58 C55 1.458 . S
O59 C11 1.468 . S
O59 C12 1.408 . S
H60 C1 0.980 . S
H61 C0 0.959 . S
H62 C0 0.959 . S
H63 C0 0.960 . S
H64 C3 0.929 . S
H65 C7 0.929 . S
H66 C8 0.959 . S
H67 C8 0.961 . S
H68 C8 0.961 . S
H69 C9 0.960 . S
H70 C9 0.960 . S
H71 C9 0.961 . S
H72 C11 0.980 . S
H73 C10 0.961 . S
H74 C10 0.960 . S
H75 C10 0.959 . S
H76 C13 0.930 . S
H77 C17 0.931 . S
H78 C18 0.959 1_455 S
H79 C18 0.961 1_455 S
H80 C18 0.959 . S
H81 C19 0.960 . S
H82 C19 0.960 1_455 S
H83 C19 0.960 . S
H84 C55 0.980 . S
H85 C21 0.930 . S
H86 C25 0.930 . S
H87 C26 0.961 . S
H88 C26 0.960 . S
H89 C26 0.958 . S
H90 C27 0.961 . S
H91 C27 0.960 . S
H92 C27 0.960 . S
H93 C29 0.980 . S
H94 C28 0.961 . S
H95 C28 0.961 . S
H96 C28 0.959 . S
H97 C31 0.932 . S
H98 C35 0.929 . S
H99 C36 0.961 . S
H100 C36 0.931 1_655 S
H101 C36 0.959 . S
H102 C37 0.960 . S
H103 C37 0.962 . S
H104 C37 0.961 . S
H105 C39 0.929 . S
H106 C42 0.930 . S
H107 C43 0.929 . S
H108 C46 0.930 . S
H109 C49 0.929 . S
H110 C50 0.930 . S
H111 C54 0.962 . S
H112 C54 0.959 . S
H113 C54 0.958 . S
C114 C115 1.560 . S
C114 H175 0.959 . S
C114 H176 0.959 . S
C114 H177 0.960 . S
C115 C114 1.560 . S
C115 O170 1.426 . S
C115 H174 0.980 . S
C116 C117 1.407 . S
C116 C121 1.418 . S
C116 O170 1.334 . S
C117 C116 1.407 . S
C117 C118 1.360 . S
C117 H178 0.929 . S
C118 C117 1.360 . S
C118 C119 1.401 . S
C118 C122 1.527 . S
C119 C118 1.401 . S
C119 C120 1.405 . S
C119 C152 1.587 . S
C120 C119 1.405 . S
C120 C121 1.332 . S
C120 C123 1.496 . S
C121 C116 1.418 . S
C121 C120 1.332 . S
C121 H179 0.929 . S
C122 C118 1.527 . S
C122 H180 0.959 . S
C122 H181 0.961 . S
C122 H182 0.961 . S
C123 C120 1.496 . S
C123 H183 0.960 . S
C123 H184 0.960 . S
C123 H185 0.961 . S
C124 C125 1.517 . S
C124 H187 0.961 . S
C124 H188 0.960 . S
C124 H189 0.959 . S
C125 C124 1.517 . S
C125 O173 1.468 . S
C125 H186 0.980 . S
C126 C127 1.349 . S
C126 C131 1.367 . S
C126 O173 1.408 . S
C127 C126 1.349 . S
C127 C128 1.407 . S
C127 H190 0.930 . S
C128 C127 1.407 . S
C128 C129 1.449 . S
C128 C132 1.535 . S
C129 C128 1.449 . S
C129 C130 1.384 . S
C129 C154 1.553 . S
C130 C129 1.384 . S
C130 C131 1.364 . S
C130 C133 1.450 . S
C131 C126 1.367 . S
C131 C130 1.364 . S
C131 H191 0.931 . S
C132 C128 1.535 . S
C132 H192 0.959 . S
C132 H193 0.961 . S
C132 H194 0.959 . S
C133 C130 1.450 . S
C133 H195 0.960 . S
C133 H196 0.960 . S
C133 H197 0.960 . S
C134 C135 1.309 . S
C134 C139 1.304 . S
C134 O172 1.435 . S
C135 C134 1.309 . S
C135 C136 1.476 . S
C135 H199 0.930 . S
C136 C135 1.476 . S
C136 C137 1.400 . S
C136 C140 1.567 . S
C137 C136 1.400 . S
C137 C138 1.373 . S
C137 C159 1.432 . S
C138 C137 1.373 . S
C138 C139 1.339 . S
C138 C141 1.530 . S
C139 C134 1.304 . S
C139 C138 1.339 . S
C139 H200 0.930 . S
C140 C136 1.567 . S
C140 H201 0.961 . S
C140 H202 0.960 . S
C140 H203 0.958 . S
C141 C138 1.530 . S
C141 H204 0.961 . S
C141 H205 0.960 . S
C141 H206 0.960 . S
C142 C143 1.530 . S
C142 H208 0.961 . S
C142 H209 0.961 . S
C142 H210 0.959 . S
C143 C142 1.530 . S
C143 O171 1.412 . S
C143 H207 0.980 . S
C144 C145 1.288 . S
C144 C149 1.377 . S
C144 O171 1.393 . S
C145 C144 1.288 . S
C145 C146 1.369 . S
C145 H211 0.932 . S
C146 C145 1.369 . S
C146 C147 1.398 . S
C146 C150 1.509 1_565 S
C147 C146 1.398 . S
C147 C148 1.380 . S
C147 C161 1.497 1_565 S
C148 C147 1.380 . S
C148 C149 1.383 . S
C148 C151 1.603 . S
C149 C144 1.377 . S
C149 C148 1.383 . S
C149 H212 0.929 . S
C150 C146 1.509 1_545 S
C150 H213 0.958 1_545 S
C150 H214 0.978 . S
C150 H215 0.961 1_545 S
C151 C148 1.603 . S
C151 H216 0.960 . S
C151 H217 0.962 . S
C151 H218 0.961 . S
C152 C119 1.587 . S
C152 C153 1.360 . S
C152 C165 1.412 . S
C153 C152 1.360 . S
C153 C154 1.365 1_565 S
C153 H219 0.929 . S
C154 C129 1.553 . S
C154 C153 1.365 1_545 S
C154 C155 1.404 . S
C155 C154 1.404 . S
C155 C156 1.395 . S
C155 C166 1.456 . S
C156 C155 1.395 . S
C156 C157 1.322 . S
C156 H220 0.930 . S
C157 C156 1.322 . S
C157 C158 1.459 . S
C157 H221 0.929 . S
C158 C157 1.459 . S
C158 C159 1.445 . S
C158 C167 1.395 . S
C159 C137 1.432 . S
C159 C158 1.445 . S
C159 C160 1.370 . S
C160 C159 1.370 . S
C160 C161 1.438 . S
C160 H222 0.930 . S
C161 C147 1.497 1_545 S
C161 C160 1.438 . S
C161 C162 1.360 1_545 S
C162 C161 1.360 1_565 S
C162 C163 1.401 . S
C162 C167 1.446 1_565 S
C163 C162 1.401 . S
C163 C164 1.347 . S
C163 H223 0.929 . S
C164 C163 1.347 . S
C164 C165 1.455 . S
C164 H224 0.930 . S
C165 C152 1.412 . S
C165 C164 1.455 . S
C165 C166 1.323 1_565 S
C166 C155 1.456 . S
C166 C165 1.323 1_545 S
C166 C167 1.500 . S
C167 C158 1.395 . S
C167 C162 1.446 1_545 S
C167 C166 1.500 . S
C168 C169 1.582 . S
C168 H225 0.962 . S
C168 H226 0.959 . S
C168 H227 0.958 . S
C169 C168 1.582 . S
C169 O172 1.458 . S
C169 H198 0.980 . S
O170 C115 1.426 . S
O170 C116 1.334 . S
O171 C143 1.412 . S
O171 C144 1.393 . S
O172 C134 1.435 . S
O172 C169 1.458 . S
O173 C125 1.468 . S
O173 C126 1.408 . S
H174 C115 0.980 . S
H175 C114 0.959 . S
H176 C114 0.959 . S
H177 C114 0.960 . S
H178 C117 0.929 . S
H179 C121 0.929 . S
H180 C122 0.959 . S
H181 C122 0.961 . S
H182 C122 0.961 . S
H183 C123 0.960 . S
H184 C123 0.960 . S
H185 C123 0.961 . S
H186 C125 0.980 . S
H187 C124 0.961 . S
H188 C124 0.960 . S
H189 C124 0.959 . S
H190 C127 0.930 . S
H191 C131 0.931 . S
H192 C132 0.959 . S
H193 C132 0.961 . S
H194 C132 0.959 . S
H195 C133 0.960 . S
H196 C133 0.960 . S
H197 C133 0.960 . S
H198 C169 0.980 . S
H199 C135 0.930 . S
H200 C139 0.930 . S
H201 C140 0.961 . S
H202 C140 0.960 . S
H203 C140 0.958 . S
H204 C141 0.961 . S
H205 C141 0.960 . S
H206 C141 0.960 . S
H207 C143 0.980 . S
H208 C142 0.961 . S
H209 C142 0.961 . S
H210 C142 0.959 . S
H211 C145 0.932 . S
H212 C149 0.929 . S
H213 C150 0.958 1_565 S
H214 C150 0.978 . S
H215 C150 0.961 1_565 S
H216 C151 0.960 . S
H217 C151 0.962 . S
H218 C151 0.961 . S
H219 C153 0.929 . S
H220 C156 0.930 . S
H221 C157 0.929 . S
H222 C160 0.930 . S
H223 C163 0.929 . S
H224 C164 0.930 . S
H225 C168 0.962 . S
H226 C168 0.959 . S
H227 C168 0.958 . S
C228 C229 1.560 . S
C228 H289 0.959 . S
C228 H290 0.959 . S
C228 H291 0.960 . S
C229 C228 1.560 . S
C229 O284 1.426 . S
C229 H288 0.980 . S
C230 C231 1.407 . S
C230 C235 1.418 . S
C230 O284 1.334 . S
C231 C230 1.407 . S
C231 C232 1.360 . S
C231 H292 0.929 . S
C232 C231 1.360 . S
C232 C233 1.401 . S
C232 C236 1.527 . S
C233 C232 1.401 . S
C233 C234 1.405 . S
C233 C266 1.587 . S
C234 C233 1.405 . S
C234 C235 1.332 . S
C234 C237 1.496 . S
C235 C230 1.418 . S
C235 C234 1.332 . S
C235 H293 0.929 . S
C236 C232 1.527 . S
C236 H294 0.959 . S
C236 H295 0.961 . S
C236 H296 0.961 . S
C237 C234 1.496 . S
C237 H297 0.960 . S
C237 H298 0.960 . S
C237 H299 0.961 . S
C238 C239 1.517 . S
C238 H301 0.961 . S
C238 H302 0.960 . S
C238 H303 0.959 . S
C239 C238 1.517 . S
C239 O287 1.468 . S
C239 H300 0.980 . S
C240 C241 1.349 . S
C240 C245 1.367 . S
C240 O287 1.408 . S
C241 C240 1.349 . S
C241 C242 1.407 . S
C241 H304 0.930 . S
C242 C241 1.407 . S
C242 C243 1.449 . S
C242 C246 1.535 . S
C243 C242 1.449 . S
C243 C244 1.384 . S
C243 C268 1.553 . S
C244 C243 1.384 . S
C244 C245 1.364 . S
C244 C247 1.450 . S
C245 C240 1.367 . S
C245 C244 1.364 . S
C245 H305 0.931 . S
C246 C242 1.535 . S
C246 H306 0.959 . S
C246 H307 0.961 . S
C246 H308 0.959 . S
C247 C244 1.450 . S
C247 H309 0.960 . S
C247 H310 0.960 . S
C247 H311 0.960 . S
C248 C249 1.309 . S
C248 C253 1.304 . S
C248 O286 1.435 . S
C249 C248 1.309 . S
C249 C250 1.476 . S
C249 H313 0.930 . S
C250 C249 1.476 . S
C250 C251 1.400 . S
C250 C254 1.567 . S
C251 C250 1.400 . S
C251 C252 1.373 . S
C251 C273 1.432 . S
C252 C251 1.373 . S
C252 C253 1.339 . S
C252 C255 1.530 . S
C253 C248 1.304 . S
C253 C252 1.339 . S
C253 H314 0.930 . S
C254 C250 1.567 . S
C254 H315 0.961 . S
C254 H316 0.960 . S
C254 H317 0.958 . S
C255 C252 1.530 . S
C255 H318 0.961 . S
C255 H319 0.960 . S
C255 H320 0.960 . S
C256 C257 1.530 . S
C256 H322 0.961 . S
C256 H323 0.961 . S
C256 H324 0.959 . S
C257 C256 1.530 . S
C257 O285 1.412 . S
C257 H321 0.980 . S
C258 C259 1.288 . S
C258 C263 1.377 . S
C258 O285 1.393 . S
C259 C258 1.288 . S
C259 C260 1.369 . S
C259 H325 0.932 . S
C260 C259 1.369 . S
C260 C261 1.398 . S
C260 C264 1.527 . S
C261 C260 1.398 . S
C261 C262 1.380 . S
C261 C275 1.497 . S
C262 C261 1.380 . S
C262 C263 1.383 . S
C262 C265 1.603 . S
C263 C258 1.377 . S
C263 C262 1.383 . S
C263 H326 0.929 . S
C264 C260 1.527 . S
C264 H327 0.961 . S
C264 H328 0.959 . S
C264 H329 0.959 . S
C265 C262 1.603 . S
C265 H330 0.960 . S
C265 H331 0.962 . S
C265 H332 0.961 . S
C266 C233 1.587 . S
C266 C267 1.360 . S
C266 C279 1.412 . S
C267 C266 1.360 . S
C267 C268 1.365 . S
C267 H333 0.929 . S
C268 C243 1.553 . S
C268 C267 1.365 . S
C268 C269 1.404 . S
C269 C268 1.404 . S
C269 C270 1.395 . S
C269 C280 1.451 . S
C270 C269 1.395 . S
C270 C271 1.322 . S
C270 H334 0.930 . S
C271 C270 1.322 . S
C271 C272 1.459 . S
C271 H335 0.929 . S
C272 C271 1.459 . S
C272 C273 1.445 . S
C272 C281 1.395 . S
C273 C251 1.432 . S
C273 C272 1.445 . S
C273 C274 1.370 . S
C274 C273 1.370 . S
C274 C275 1.438 . S
C274 H336 0.930 . S
C275 C261 1.497 . S
C275 C274 1.438 . S
C275 C276 1.360 . S
C276 C275 1.360 . S
C276 C277 1.401 . S
C276 C281 1.446 . S
C277 C276 1.401 . S
C277 C278 1.347 . S
C277 H337 0.929 . S
C278 C277 1.347 . S
C278 C279 1.455 . S
C278 H338 0.930 . S
C279 C266 1.412 . S
C279 C278 1.455 . S
C279 C280 1.331 . S
C280 C269 1.451 . S
C280 C279 1.331 . S
C280 C281 1.497 . S
C281 C272 1.395 . S
C281 C276 1.446 . S
C281 C280 1.497 . S
C282 C283 1.582 . S
C282 H339 0.962 . S
C282 H340 0.959 . S
C282 H341 0.958 . S
C283 C282 1.582 . S
C283 O286 1.458 . S
C283 H312 0.980 . S
O284 C229 1.426 . S
O284 C230 1.334 . S
O285 C257 1.412 . S
O285 C258 1.393 . S
O286 C248 1.435 . S
O286 C283 1.458 . S
O287 C239 1.468 . S
O287 C240 1.408 . S
H288 C229 0.980 . S
H289 C228 0.959 . S
H290 C228 0.959 . S
H291 C228 0.960 . S
H292 C231 0.929 . S
H293 C235 0.929 . S
H294 C236 0.959 . S
H295 C236 0.961 . S
H296 C236 0.961 . S
H297 C237 0.960 . S
H298 C237 0.960 . S
H299 C237 0.961 . S
H300 C239 0.980 . S
H301 C238 0.961 . S
H302 C238 0.960 . S
H303 C238 0.959 . S
H304 C241 0.930 . S
H305 C245 0.931 . S
H306 C246 0.959 . S
H307 C246 0.961 . S
H308 C246 0.959 . S
H309 C247 0.960 . S
H310 C247 0.960 . S
H311 C247 0.960 . S
H312 C283 0.980 . S
H313 C249 0.930 . S
H314 C253 0.930 . S
H315 C254 0.961 . S
H316 C254 0.960 . S
H317 C254 0.958 . S
H318 C255 0.961 . S
H319 C255 0.960 . S
H320 C255 0.960 . S
H321 C257 0.980 . S
H322 C256 0.961 . S
H323 C256 0.961 . S
H324 C256 0.959 . S
H325 C259 0.932 . S
H326 C263 0.929 . S
H327 C264 0.961 . S
H328 C264 0.959 . S
H329 C264 0.959 . S
H330 C265 0.960 . S
H331 C265 0.962 . S
H332 C265 0.961 . S
H333 C267 0.929 . S
H334 C270 0.930 . S
H335 C271 0.929 . S
H336 C274 0.930 . S
H337 C277 0.929 . S
H338 C278 0.930 . S
H339 C282 0.962 . S
H340 C282 0.959 . S
H341 C282 0.958 . S
C342 C343 1.560 . S
C342 H403 0.959 . S
C342 H404 0.959 . S
C342 H405 0.960 . S
C343 C342 1.560 . S
C343 O398 1.426 . S
C343 H402 0.980 . S
C344 C345 1.407 . S
C344 C349 1.418 . S
C344 O398 1.334 . S
C345 C344 1.407 . S
C345 C346 1.360 . S
C345 H406 0.929 . S
C346 C345 1.360 . S
C346 C347 1.401 . S
C346 C350 1.527 . S
C347 C346 1.401 . S
C347 C348 1.405 . S
C347 C380 1.587 . S
C348 C347 1.405 . S
C348 C349 1.332 . S
C348 C351 1.496 . S
C349 C344 1.418 . S
C349 C348 1.332 . S
C349 H407 0.929 . S
C350 C346 1.527 . S
C350 H408 0.959 . S
C350 H409 0.961 . S
C350 H410 0.961 . S
C351 C348 1.496 . S
C351 H411 0.960 . S
C351 H412 0.960 . S
C351 H413 0.961 . S
C352 C353 1.517 . S
C352 H415 0.961 . S
C352 H416 0.960 . S
C352 H417 0.959 . S
C353 C352 1.517 . S
C353 O401 1.468 . S
C353 H414 0.980 . S
C354 C355 1.349 . S
C354 C359 1.367 . S
C354 O401 1.408 . S
C355 C354 1.349 . S
C355 C356 1.407 . S
C355 H418 0.930 . S
C356 C355 1.407 . S
C356 C357 1.449 . S
C356 C360 1.535 . S
C357 C356 1.449 . S
C357 C358 1.384 . S
C357 C382 1.553 1_655 S
C358 C357 1.384 . S
C358 C359 1.364 . S
C358 C361 1.450 . S
C359 C354 1.367 . S
C359 C358 1.364 . S
C359 H419 0.931 . S
C360 C356 1.535 . S
C360 H420 0.959 1_655 S
C360 H421 0.961 1_655 S
C360 H422 0.959 . S
C361 C358 1.450 . S
C361 H423 0.960 . S
C361 H424 0.960 1_655 S
C361 H425 0.960 . S
C362 C363 1.309 . S
C362 C367 1.304 . S
C362 O400 1.435 . S
C363 C362 1.309 . S
C363 C364 1.476 . S
C363 H427 0.930 . S
C364 C363 1.476 . S
C364 C365 1.400 . S
C364 C368 1.567 . S
C365 C364 1.400 . S
C365 C366 1.373 . S
C365 C387 1.432 . S
C366 C365 1.373 . S
C366 C367 1.339 . S
C366 C369 1.530 . S
C367 C362 1.304 . S
C367 C366 1.339 . S
C367 H428 0.930 . S
C368 C364 1.567 . S
C368 H429 0.961 . S
C368 H430 0.960 . S
C368 H431 0.958 . S
C369 C366 1.530 . S
C369 H432 0.961 . S
C369 H433 0.960 . S
C369 H434 0.960 . S
C370 C371 1.530 . S
C370 H436 0.961 . S
C370 H437 0.961 . S
C370 H438 0.959 . S
C371 C370 1.530 . S
C371 O399 1.412 . S
C371 H435 0.980 . S
C372 C373 1.288 . S
C372 C377 1.377 . S
C372 O399 1.393 . S
C373 C372 1.288 . S
C373 C374 1.369 . S
C373 H439 0.932 . S
C374 C373 1.369 . S
C374 C375 1.398 . S
C374 C378 1.527 . S
C375 C374 1.398 . S
C375 C376 1.380 . S
C375 C389 1.497 . S
C376 C375 1.380 . S
C376 C377 1.383 . S
C376 C379 1.603 . S
C377 C372 1.377 . S
C377 C376 1.383 . S
C377 H440 0.929 . S
C378 C374 1.527 . S
C378 H441 0.961 . S
C378 H442 0.959 1_455 S
C378 H443 0.959 . S
C379 C376 1.603 . S
C379 H444 0.960 . S
C379 H445 0.962 . S
C379 H446 0.961 . S
C380 C347 1.587 . S
C380 C381 1.360 . S
C380 C393 1.412 . S
C381 C380 1.360 . S
C381 C382 1.365 . S
C381 H447 0.929 . S
C382 C357 1.553 1_455 S
C382 C381 1.365 . S
C382 C383 1.404 1_455 S
C383 C382 1.404 1_655 S
C383 C384 1.395 . S
C383 C394 1.451 1_655 S
C384 C383 1.395 . S
C384 C385 1.322 . S
C384 H448 0.930 . S
C385 C384 1.322 . S
C385 C386 1.459 . S
C385 H449 0.929 . S
C386 C385 1.459 . S
C386 C387 1.445 . S
C386 C395 1.395 1_655 S
C387 C365 1.432 . S
C387 C386 1.445 . S
C387 C388 1.370 . S
C388 C387 1.370 . S
C388 C389 1.438 1_655 S
C388 H450 0.930 . S
C389 C375 1.497 . S
C389 C388 1.438 1_455 S
C389 C390 1.360 . S
C390 C389 1.360 . S
C390 C391 1.401 . S
C390 C395 1.446 . S
C391 C390 1.401 . S
C391 C392 1.347 . S
C391 H451 0.929 . S
C392 C391 1.347 . S
C392 C393 1.455 . S
C392 H452 0.930 . S
C393 C380 1.412 . S
C393 C392 1.455 . S
C393 C394 1.331 . S
C394 C383 1.451 1_455 S
C394 C393 1.331 . S
C394 C395 1.497 . S
C395 C386 1.395 1_455 S
C395 C390 1.446 . S
C395 C394 1.497 . S
C396 C397 1.582 . S
C396 H453 0.962 . S
C396 H454 0.959 . S
C396 H455 0.958 . S
C397 C396 1.582 . S
C397 O400 1.458 . S
C397 H426 0.980 . S
O398 C343 1.426 . S
O398 C344 1.334 . S
O399 C371 1.412 . S
O399 C372 1.393 . S
O400 C362 1.435 . S
O400 C397 1.458 . S
O401 C353 1.468 . S
O401 C354 1.408 . S
H402 C343 0.980 . S
H403 C342 0.959 . S
H404 C342 0.959 . S
H405 C342 0.960 . S
H406 C345 0.929 . S
H407 C349 0.929 . S
H408 C350 0.959 . S
H409 C350 0.961 . S
H410 C350 0.961 . S
H411 C351 0.960 . S
H412 C351 0.960 . S
H413 C351 0.961 . S
H414 C353 0.980 . S
H415 C352 0.961 . S
H416 C352 0.960 . S
H417 C352 0.959 . S
H418 C355 0.930 . S
H419 C359 0.931 . S
H420 C360 0.959 1_455 S
H421 C360 0.961 1_455 S
H422 C360 0.959 . S
H423 C361 0.960 . S
H424 C361 0.960 1_455 S
H425 C361 0.960 . S
H426 C397 0.980 . S
H427 C363 0.930 . S
H428 C367 0.930 . S
H429 C368 0.961 . S
H430 C368 0.960 . S
H431 C368 0.958 . S
H432 C369 0.961 . S
H433 C369 0.960 . S
H434 C369 0.960 . S
H435 C371 0.980 . S
H436 C370 0.961 . S
H437 C370 0.961 . S
H438 C370 0.959 . S
H439 C373 0.932 . S
H440 C377 0.929 . S
H441 C378 0.961 . S
H442 C378 0.959 1_655 S
H443 C378 0.959 . S
H444 C379 0.960 . S
H445 C379 0.962 . S
H446 C379 0.961 . S
H447 C381 0.929 . S
H448 C384 0.930 . S
H449 C385 0.929 . S
H450 C388 0.930 . S
H451 C391 0.929 . S
H452 C392 0.930 . S
H453 C396 0.962 . S
H454 C396 0.959 . S
H455 C396 0.958 . S
C456 C457 1.560 . S
C456 H517 0.959 . S
C456 H518 0.959 . S
C456 H519 0.960 . S
C457 C456 1.560 . S
C457 O512 1.426 . S
C457 H516 0.980 . S
C458 C459 1.407 . S
C458 C463 1.418 . S
C458 O512 1.334 . S
C459 C458 1.407 . S
C459 C460 1.360 . S
C459 H520 0.929 . S
C460 C459 1.360 . S
C460 C461 1.401 . S
C460 C464 1.527 . S
C461 C460 1.401 . S
C461 C462 1.405 . S
C461 C494 1.587 . S
C462 C461 1.405 . S
C462 C463 1.332 . S
C462 C465 1.496 . S
C463 C458 1.418 . S
C463 C462 1.332 . S
C463 H521 0.929 . S
C464 C460 1.527 . S
C464 H522 0.959 . S
C464 H523 0.961 . S
C464 H524 0.961 . S
C465 C462 1.496 . S
C465 H525 0.960 . S
C465 H526 0.960 . S
C465 H527 0.961 . S
C466 C467 1.517 . S
C466 H529 0.961 . S
C466 H530 0.960 . S
C466 H531 0.959 . S
C467 C466 1.517 . S
C467 O515 1.468 . S
C467 H528 0.980 . S
C468 C469 1.349 . S
C468 C473 1.367 . S
C468 O515 1.408 . S
C469 C468 1.349 . S
C469 C470 1.407 . S
C469 H532 0.930 . S
C470 C469 1.407 . S
C470 C471 1.449 . S
C470 C474 1.535 . S
C471 C470 1.449 . S
C471 C472 1.384 . S
C471 C496 1.553 . S
C472 C471 1.384 . S
C472 C473 1.364 . S
C472 C475 1.450 . S
C473 C468 1.367 . S
C473 C472 1.364 . S
C473 H533 0.931 . S
C474 C470 1.535 . S
C474 H534 0.959 . S
C474 H535 0.961 . S
C474 H536 0.959 . S
C475 C472 1.450 . S
C475 H537 0.960 . S
C475 H538 1.003 . S
C475 H539 0.960 . S
C476 C477 1.309 . S
C476 C481 1.304 . S
C476 O514 1.435 . S
C477 C476 1.309 . S
C477 C478 1.476 . S
C477 H541 0.930 . S
C478 C477 1.476 . S
C478 C479 1.400 . S
C478 C482 1.567 . S
C479 C478 1.400 . S
C479 C480 1.373 . S
C479 C501 1.432 . S
C480 C479 1.373 . S
C480 C481 1.339 . S
C480 C483 1.530 . S
C481 C476 1.304 . S
C481 C480 1.339 . S
C481 H542 0.930 . S
C482 C478 1.567 . S
C482 H543 0.961 . S
C482 H544 0.960 . S
C482 H545 0.958 . S
C483 C480 1.530 . S
C483 H546 0.961 . S
C483 H547 0.960 . S
C483 H548 0.960 . S
C484 C485 1.530 . S
C484 H550 0.961 . S
C484 H551 0.961 . S
C484 H552 0.959 . S
C485 C484 1.530 . S
C485 O513 1.412 . S
C485 H549 0.980 . S
C486 C487 1.288 . S
C486 C491 1.377 . S
C486 O513 1.393 . S
C487 C486 1.288 . S
C487 C488 1.369 . S
C487 H553 0.932 . S
C488 C487 1.369 . S
C488 C489 1.398 . S
C488 C492 1.527 . S
C489 C488 1.398 . S
C489 C490 1.380 . S
C489 C503 1.497 1_565 S
C490 C489 1.380 . S
C490 C491 1.383 . S
C490 C493 1.603 . S
C491 C486 1.377 . S
C491 C490 1.383 . S
C491 H554 0.929 . S
C492 C488 1.527 . S
C492 H555 0.961 . S
C492 H556 0.959 1_565 S
C492 H557 0.959 . S
C493 C490 1.603 . S
C493 H558 0.960 . S
C493 H559 0.962 . S
C493 H560 0.961 . S
C494 C461 1.587 . S
C494 C495 1.360 . S
C494 C507 1.412 . S
C495 C494 1.360 . S
C495 C496 1.365 1_565 S
C495 H561 0.929 . S
C496 C471 1.553 . S
C496 C495 1.365 1_545 S
C496 C497 1.404 . S
C497 C496 1.404 . S
C497 C498 1.395 . S
C497 C508 1.451 1_545 S
C498 C497 1.395 . S
C498 C499 1.322 . S
C498 H562 0.930 . S
C499 C498 1.322 . S
C499 C500 1.460 1_556 S
C499 H563 0.929 . S
C500 C499 1.460 1_554 S
C500 C501 1.443 . S
C500 C509 1.396 1_554 S
C501 C479 1.432 . S
C501 C500 1.443 . S
C501 C502 1.370 . S
C502 C501 1.370 . S
C502 C503 1.438 . S
C502 H564 0.930 . S
C503 C489 1.497 1_545 S
C503 C502 1.438 . S
C503 C504 1.360 1_545 S
C504 C503 1.360 1_565 S
C504 C505 1.401 . S
C504 C509 1.446 1_564 S
C505 C504 1.401 . S
C505 C506 1.347 1_554 S
C505 H565 0.929 . S
C506 C505 1.347 1_556 S
C506 C507 1.455 . S
C506 H566 0.930 . S
C507 C494 1.412 . S
C507 C506 1.455 . S
C507 C508 1.331 . S
C508 C497 1.451 1_565 S
C508 C507 1.331 . S
C508 C509 1.497 1_565 S
C509 C500 1.396 1_556 S
C509 C504 1.446 1_546 S
C509 C508 1.497 1_545 S
C510 C511 1.582 . S
C510 H567 0.962 . S
C510 H568 0.959 . S
C510 H569 0.958 . S
C511 C510 1.582 . S
C511 O514 1.458 . S
C511 H540 0.980 . S
O512 C457 1.426 . S
O512 C458 1.334 . S
O513 C485 1.412 . S
O513 C486 1.393 . S
O514 C476 1.435 . S
O514 C511 1.458 . S
O515 C467 1.468 . S
O515 C468 1.408 . S
H516 C457 0.980 . S
H517 C456 0.959 . S
H518 C456 0.959 . S
H519 C456 0.960 . S
H520 C459 0.929 . S
H521 C463 0.929 . S
H522 C464 0.959 . S
H523 C464 0.961 . S
H524 C464 0.961 . S
H525 C465 0.960 . S
H526 C465 0.960 . S
H527 C465 0.961 . S
H528 C467 0.980 . S
H529 C466 0.961 . S
H530 C466 0.960 . S
H531 C466 0.959 . S
H532 C469 0.930 . S
H533 C473 0.931 . S
H534 C474 0.959 . S
H535 C474 0.961 . S
H536 C474 0.959 . S
H537 C475 0.960 . S
H538 C475 1.003 . S
H539 C475 0.960 . S
H540 C511 0.980 . S
H541 C477 0.930 . S
H542 C481 0.930 . S
H543 C482 0.961 . S
H544 C482 0.960 . S
H545 C482 0.958 . S
H546 C483 0.961 . S
H547 C483 0.960 . S
H548 C483 0.960 . S
H549 C485 0.980 . S
H550 C484 0.961 . S
H551 C484 0.961 . S
H552 C484 0.959 . S
H553 C487 0.932 . S
H554 C491 0.929 . S
H555 C492 0.961 . S
H556 C492 0.959 1_545 S
H557 C492 0.959 . S
H558 C493 0.960 . S
H559 C493 0.962 . S
H560 C493 0.961 . S
H561 C495 0.929 . S
H562 C498 0.930 . S
H563 C499 0.929 . S
H564 C502 0.930 . S
H565 C505 0.929 . S
H566 C506 0.930 . S
H567 C510 0.962 . S
H568 C510 0.959 . S
H569 C510 0.958 . S
C570 C571 1.560 . S
C570 H631 0.959 . S
C570 H632 0.959 . S
C570 H633 0.960 . S
C571 C570 1.560 . S
C571 O626 1.426 . S
C571 H630 0.980 . S
C572 C573 1.407 . S
C572 C577 1.418 . S
C572 O626 1.334 . S
C573 C572 1.407 . S
C573 C574 1.360 . S
C573 H634 0.929 . S
C574 C573 1.360 . S
C574 C575 1.401 . S
C574 C578 1.527 . S
C575 C574 1.401 . S
C575 C576 1.405 . S
C575 C608 1.587 . S
C576 C575 1.405 . S
C576 C577 1.332 . S
C576 C579 1.496 . S
C577 C572 1.418 . S
C577 C576 1.332 . S
C577 H635 0.929 . S
C578 C574 1.527 . S
C578 H636 0.959 . S
C578 H637 0.961 . S
C578 H638 0.961 . S
C579 C576 1.496 . S
C579 H639 0.960 . S
C579 H640 0.960 . S
C579 H641 0.961 . S
C580 C581 1.517 . S
C580 H643 0.961 1_554 S
C580 H644 0.972 . S
C580 H645 0.959 . S
C581 C580 1.517 . S
C581 O629 1.468 . S
C581 H642 0.980 . S
C582 C583 1.349 . S
C582 C587 1.367 . S
C582 O629 1.408 . S
C583 C582 1.349 . S
C583 C584 1.407 . S
C583 H646 0.930 . S
C584 C583 1.407 . S
C584 C585 1.449 . S
C584 C588 1.535 . S
C585 C584 1.449 . S
C585 C586 1.384 . S
C585 C610 1.553 . S
C586 C585 1.384 . S
C586 C587 1.364 . S
C586 C589 1.450 . S
C587 C582 1.367 . S
C587 C586 1.364 . S
C587 H647 0.931 . S
C588 C584 1.535 . S
C588 H648 0.959 . S
C588 H649 0.961 . S
C588 H650 0.959 . S
C589 C586 1.450 . S
C589 H651 0.960 . S
C589 H652 0.960 . S
C589 H653 0.960 . S
C590 C591 1.309 . S
C590 C595 1.304 . S
C590 O628 1.435 . S
C591 C590 1.309 . S
C591 C592 1.476 . S
C591 H655 0.930 . S
C592 C591 1.476 . S
C592 C593 1.400 . S
C592 C596 1.567 . S
C593 C592 1.400 . S
C593 C594 1.373 . S
C593 C615 1.432 . S
C594 C593 1.373 . S
C594 C595 1.339 . S
C594 C597 1.530 . S
C595 C590 1.304 . S
C595 C594 1.339 . S
C595 H656 0.930 . S
C596 C592 1.567 . S
C596 H657 0.961 . S
C596 H658 0.960 . S
C596 H659 0.958 . S
C597 C594 1.530 . S
C597 H660 0.961 . S
C597 H661 0.960 . S
C597 H662 0.960 . S
C598 C599 1.530 . S
C598 H664 0.961 . S
C598 H665 0.961 . S
C598 H666 0.959 . S
C599 C598 1.530 . S
C599 O627 1.412 . S
C599 H663 0.980 . S
C600 C601 1.288 . S
C600 C605 1.377 . S
C600 O627 1.393 . S
C601 C600 1.288 . S
C601 C602 1.369 . S
C601 H667 0.932 . S
C602 C601 1.369 . S
C602 C603 1.398 . S
C602 C606 1.527 . S
C603 C602 1.398 . S
C603 C604 1.380 . S
C603 C617 1.497 . S
C604 C603 1.380 . S
C604 C605 1.383 . S
C604 C607 1.603 . S
C605 C600 1.377 . S
C605 C604 1.383 . S
C605 H668 0.929 . S
C606 C602 1.527 . S
C606 H669 0.961 . S
C606 H670 0.959 . S
C606 H671 0.959 . S
C607 C604 1.603 . S
C607 H672 0.960 . S
C607 H673 0.962 . S
C607 H674 0.961 . S
C608 C575 1.587 . S
C608 C609 1.360 . S
C608 C621 1.412 . S
C609 C608 1.360 . S
C609 C610 1.365 . S
C609 H675 0.929 . S
C610 C585 1.553 . S
C610 C609 1.365 . S
C610 C611 1.404 . S
C611 C610 1.404 . S
C611 C612 1.395 . S
C611 C622 1.451 . S
C612 C611 1.395 . S
C612 C613 1.322 . S
C612 H676 0.930 . S
C613 C612 1.322 . S
C613 C614 1.459 . S
C613 H677 0.929 . S
C614 C613 1.459 . S
C614 C615 1.445 . S
C614 C623 1.395 . S
C615 C593 1.432 . S
C615 C614 1.445 . S
C615 C616 1.370 . S
C616 C615 1.370 . S
C616 C617 1.438 . S
C616 H678 0.930 . S
C617 C603 1.497 . S
C617 C616 1.438 . S
C617 C618 1.360 . S
C618 C617 1.360 . S
C618 C619 1.401 . S
C618 C623 1.446 . S
C619 C618 1.401 . S
C619 C620 1.347 . S
C619 H679 0.929 . S
C620 C619 1.347 . S
C620 C621 1.455 . S
C620 H680 0.930 . S
C621 C608 1.412 . S
C621 C620 1.455 . S
C621 C622 1.331 . S
C622 C611 1.451 . S
C622 C621 1.331 . S
C622 C623 1.497 . S
C623 C614 1.395 . S
C623 C618 1.446 . S
C623 C622 1.497 . S
C624 C625 1.582 . S
C624 H681 0.962 . S
C624 H682 0.959 . S
C624 H683 0.958 . S
C625 C624 1.582 . S
C625 O628 1.458 . S
C625 H654 0.980 . S
O626 C571 1.426 . S
O626 C572 1.334 . S
O627 C599 1.412 . S
O627 C600 1.393 . S
O628 C590 1.435 . S
O628 C625 1.458 . S
O629 C581 1.468 . S
O629 C582 1.408 . S
H630 C571 0.980 . S
H631 C570 0.959 . S
H632 C570 0.959 . S
H633 C570 0.960 . S
H634 C573 0.929 . S
H635 C577 0.929 . S
H636 C578 0.959 . S
H637 C578 0.961 . S
H638 C578 0.961 . S
H639 C579 0.960 . S
H640 C579 0.960 . S
H641 C579 0.961 . S
H642 C581 0.980 . S
H643 C580 0.961 1_556 S
H644 C580 0.972 . S
H645 C580 0.959 . S
H646 C583 0.930 . S
H647 C587 0.931 . S
H648 C588 0.959 . S
H649 C588 0.961 . S
H650 C588 0.959 . S
H651 C589 0.960 . S
H652 C589 0.960 . S
H653 C589 0.960 . S
H654 C625 0.980 . S
H655 C591 0.930 . S
H656 C595 0.930 . S
H657 C596 0.961 . S
H658 C596 0.960 . S
H659 C596 0.958 . S
H660 C597 0.961 . S
H661 C597 0.960 . S
H662 C597 0.960 . S
H663 C599 0.980 . S
H664 C598 0.961 . S
H665 C598 0.961 . S
H666 C598 0.959 . S
H667 C601 0.932 . S
H668 C605 0.929 . S
H669 C606 0.961 . S
H670 C606 0.959 . S
H671 C606 0.959 . S
H672 C607 0.960 . S
H673 C607 0.962 . S
H674 C607 0.961 . S
H675 C609 0.929 . S
H676 C612 0.930 . S
H677 C613 0.929 . S
H678 C616 0.930 . S
H679 C619 0.929 . S
H680 C620 0.930 . S
H681 C624 0.962 . S
H682 C624 0.959 . S
H683 C624 0.958 . S
C684 O685 1.306 . S
C684 O687 1.160 . S
O685 C684 1.306 . S
O685 Cd686 2.228 . S
Cd686 O685 2.228 . S
Cd686 O690 2.273 . S
Cd686 O694 2.277 . S
O687 C684 1.160 . S
O687 Cd688 2.203 . S
Cd688 O687 2.203 . S
Cd688 O690 2.411 . S
Cd688 O691 2.333 . S
Cd688 O692 2.352 . S
Cd688 O696 2.277 . S
Cd688 O697 2.356 . S
C689 O694 1.209 . S
C689 O696 1.226 . S
O690 Cd686 2.273 . S
O690 Cd688 2.411 . S
O690 C693 1.320 . S
O691 Cd688 2.333 . S
O691 C693 1.214 . S
O692 Cd688 2.352 . S
O692 C695 1.258 . S
C693 O690 1.320 . S
C693 O691 1.214 . S
O694 Cd686 2.277 . S
O694 C689 1.209 . S
C695 O692 1.258 . S
C695 O697 1.282 . S
O696 Cd688 2.277 . S
O696 C689 1.226 . S
O697 Cd688 2.356 . S
O697 C695 1.282 . S
C698 O699 1.306 . S
C698 O701 1.160 . S
O699 C698 1.306 . S
O699 Cd700 2.228 . S
Cd700 O699 2.228 . S
Cd700 O704 2.273 . S
Cd700 O708 2.277 . S
O701 C698 1.160 . S
O701 Cd702 2.203 . S
Cd702 O701 2.203 . S
Cd702 O704 2.411 . S
Cd702 O705 2.333 . S
Cd702 O706 2.352 . S
Cd702 O710 2.277 . S
Cd702 O711 2.356 . S
C703 O708 1.209 . S
C703 O710 1.226 . S
O704 Cd700 2.273 . S
O704 Cd702 2.411 . S
O704 C707 1.320 . S
O705 Cd702 2.333 . S
O705 C707 1.214 . S
O706 Cd702 2.352 . S
O706 C709 1.258 . S
C707 O704 1.320 . S
C707 O705 1.214 . S
O708 Cd700 2.277 . S
O708 C703 1.209 . S
C709 O706 1.258 . S
C709 O711 1.282 . S
O710 Cd702 2.277 . S
O710 C703 1.226 . S
O711 Cd702 2.356 . S
O711 C709 1.282 . S
C712 O713 1.306 . S
C712 O715 1.160 . S
O713 C712 1.306 . S
O713 Cd714 2.228 . S
Cd714 O713 2.228 . S
Cd714 O718 2.273 . S
Cd714 O722 2.277 . S
O715 C712 1.160 . S
O715 Cd716 2.203 . S
Cd716 O715 2.203 . S
Cd716 O718 2.411 . S
Cd716 O719 2.333 . S
Cd716 O720 2.352 . S
Cd716 O724 2.277 . S
Cd716 O725 2.356 . S
C717 O722 1.209 . S
C717 O724 1.226 . S
O718 Cd714 2.273 . S
O718 Cd716 2.411 . S
O718 C721 1.320 . S
O719 Cd716 2.333 . S
O719 C721 1.214 . S
O720 Cd716 2.352 . S
O720 C723 1.258 . S
C721 O718 1.320 . S
C721 O719 1.214 . S
O722 Cd714 2.277 . S
O722 C717 1.209 . S
C723 O720 1.258 . S
C723 O725 1.282 . S
O724 Cd716 2.277 . S
O724 C717 1.226 . S
O725 Cd716 2.356 . S
O725 C723 1.282 . S
C726 O727 1.306 . S
C726 O729 1.160 . S
O727 C726 1.306 . S
O727 Cd728 2.228 . S
Cd728 O727 2.228 . S
Cd728 O732 2.273 . S
Cd728 O736 2.277 . S
O729 C726 1.160 . S
O729 Cd730 2.203 . S
Cd730 O729 2.203 . S
Cd730 O732 2.411 . S
Cd730 O733 2.333 . S
Cd730 O734 2.352 . S
Cd730 O738 2.277 . S
Cd730 O739 2.356 . S
C731 O736 1.209 . S
C731 O738 1.226 . S
O732 Cd728 2.273 . S
O732 Cd730 2.411 . S
O732 C735 1.320 . S
O733 Cd730 2.333 . S
O733 C735 1.214 . S
O734 Cd730 2.352 . S
O734 C737 1.258 . S
C735 O732 1.320 . S
C735 O733 1.214 . S
O736 Cd728 2.277 . S
O736 C731 1.209 . S
C737 O734 1.258 . S
C737 O739 1.282 . S
O738 Cd730 2.277 . S
O738 C731 1.226 . S
O739 Cd730 2.356 . S
O739 C737 1.282 . S
C740 O741 1.306 . S
C740 O743 1.160 . S
O741 C740 1.306 . S
O741 Cd742 2.228 . S
Cd742 O741 2.228 . S
Cd742 O746 2.273 . S
Cd742 O750 2.277 . S
O743 C740 1.160 . S
O743 Cd744 2.203 . S
Cd744 O743 2.203 . S
Cd744 O746 2.411 . S
Cd744 O747 2.333 . S
Cd744 O748 2.352 . S
Cd744 O752 2.277 . S
Cd744 O753 2.356 . S
C745 O750 1.209 . S
C745 O752 1.226 . S
O746 Cd742 2.273 . S
O746 Cd744 2.411 . S
O746 C749 1.320 . S
O747 Cd744 2.333 . S
O747 C749 1.214 . S
O748 Cd744 2.352 . S
O748 C751 1.258 . S
C749 O746 1.320 . S
C749 O747 1.214 . S
O750 Cd742 2.277 . S
O750 C745 1.209 . S
C751 O748 1.258 . S
C751 O753 1.282 . S
O752 Cd744 2.277 . S
O752 C745 1.226 . S
O753 Cd744 2.356 . S
O753 C751 1.282 . S
C754 O755 1.306 . S
C754 O757 1.160 . S
O755 C754 1.306 . S
O755 Cd756 2.228 . S
Cd756 O755 2.228 . S
Cd756 O760 2.273 . S
Cd756 O764 2.277 . S
O757 C754 1.160 . S
O757 Cd758 2.203 . S
Cd758 O757 2.203 . S
Cd758 O760 2.411 . S
Cd758 O761 2.333 . S
Cd758 O762 2.352 . S
Cd758 O766 2.277 . S
Cd758 O767 2.356 . S
C759 O764 1.209 . S
C759 O766 1.226 . S
O760 Cd756 2.273 . S
O760 Cd758 2.411 . S
O760 C763 1.320 . S
O761 Cd758 2.333 . S
O761 C763 1.214 . S
O762 Cd758 2.352 . S
O762 C765 1.258 . S
C763 O760 1.320 . S
C763 O761 1.214 . S
O764 Cd756 2.277 . S
O764 C759 1.209 . S
C765 O762 1.258 . S
C765 O767 1.282 . S
O766 Cd758 2.277 . S
O766 C759 1.226 . S
O767 Cd758 2.356 . S
O767 C765 1.282 . S
H768 C774 0.930 . S
H769 C777 0.930 . S
H770 C778 0.930 . S
H771 C779 0.930 . S
H772 C782 0.930 . S
H773 C783 0.930 . S
C774 H768 0.930 . S
C774 C775 1.355 . S
C774 C776 1.415 . S
C775 C774 1.355 . S
C775 C777 1.419 . S
C776 C774 1.415 . S
C776 C781 1.425 . S
C776 C783 1.409 . S
C777 H769 0.930 . S
C777 C775 1.419 . S
C777 C778 1.362 . S
C778 H770 0.930 . S
C778 C777 1.362 . S
C778 C781 1.409 . S
C779 H771 0.930 . S
C779 C780 1.355 . S
C779 C781 1.415 . S
C780 C779 1.355 . S
C780 C782 1.419 . S
C781 C776 1.425 . S
C781 C778 1.409 . S
C781 C779 1.415 . S
C782 H772 0.930 . S
C782 C780 1.419 . S
C782 C783 1.362 . S
C783 H773 0.930 . S
C783 C776 1.409 . S
C783 C782 1.362 . S
H784 C790 0.930 . S
H785 C793 0.930 . S
H786 C794 0.930 . S
H787 C795 0.930 . S
H788 C798 0.930 . S
H789 C799 0.930 . S
C790 H784 0.930 . S
C790 C791 1.355 . S
C790 C792 1.415 . S
C791 C790 1.355 . S
C791 C793 1.419 . S
C792 C790 1.415 . S
C792 C797 1.425 . S
C792 C799 1.409 . S
C793 H785 0.930 . S
C793 C791 1.419 . S
C793 C794 1.362 . S
C794 H786 0.930 . S
C794 C793 1.362 . S
C794 C797 1.409 . S
C795 H787 0.930 . S
C795 C796 1.355 . S
C795 C797 1.415 . S
C796 C795 1.355 . S
C796 C798 1.419 . S
C797 C792 1.425 . S
C797 C794 1.409 . S
C797 C795 1.415 . S
C798 H788 0.930 . S
C798 C796 1.419 . S
C798 C799 1.362 . S
C799 H789 0.930 . S
C799 C792 1.409 . S
C799 C798 1.362 . S
H800 C806 0.930 . S
H801 C809 0.930 . S
H802 C810 0.930 . S
H803 C811 0.930 . S
H804 C814 0.930 . S
H805 C815 0.930 . S
C806 H800 0.930 . S
C806 C807 1.355 . S
C806 C808 1.415 . S
C807 C806 1.355 . S
C807 C809 1.419 . S
C808 C806 1.415 . S
C808 C813 1.425 . S
C808 C815 1.409 . S
C809 H801 0.930 . S
C809 C807 1.419 . S
C809 C810 1.362 . S
C810 H802 0.930 . S
C810 C809 1.362 . S
C810 C813 1.409 . S
C811 H803 0.930 . S
C811 C812 1.355 . S
C811 C813 1.415 . S
C812 C811 1.355 . S
C812 C814 1.419 . S
C813 C808 1.425 . S
C813 C810 1.409 . S
C813 C811 1.415 . S
C814 H804 0.930 . S
C814 C812 1.419 . S
C814 C815 1.362 . S
C815 H805 0.930 . S
C815 C808 1.409 . S
C815 C814 1.362 . S
H816 C822 0.930 . S
H817 C825 0.930 . S
H818 C826 0.930 . S
H819 C827 0.930 . S
H820 C830 0.930 . S
H821 C831 0.930 . S
C822 H816 0.930 . S
C822 C823 1.355 . S
C822 C824 1.415 . S
C823 C822 1.355 . S
C823 C825 1.419 . S
C824 C822 1.415 . S
C824 C829 1.425 . S
C824 C831 1.409 . S
C825 H817 0.930 . S
C825 C823 1.419 . S
C825 C826 1.362 . S
C826 H818 0.930 . S
C826 C825 1.362 . S
C826 C829 1.409 . S
C827 H819 0.930 . S
C827 C828 1.355 . S
C827 C829 1.415 . S
C828 C827 1.355 . S
C828 C830 1.419 . S
C829 C824 1.425 . S
C829 C826 1.409 . S
C829 C827 1.415 . S
C830 H820 0.930 . S
C830 C828 1.419 . S
C830 C831 1.362 . S
C831 H821 0.930 . S
C831 C824 1.409 . S
C831 C830 1.362 . S
H832 C838 0.930 . S
H833 C841 0.930 . S
H834 C842 0.930 . S
H835 C843 0.930 . S
H836 C846 0.930 . S
H837 C847 0.930 . S
C838 H832 0.930 . S
C838 C839 1.355 . S
C838 C840 1.415 . S
C839 C838 1.355 . S
C839 C841 1.419 . S
C840 C838 1.415 . S
C840 C845 1.425 . S
C840 C847 1.409 . S
C841 H833 0.930 . S
C841 C839 1.419 . S
C841 C842 1.362 . S
C842 H834 0.930 . S
C842 C841 1.362 . S
C842 C845 1.409 . S
C843 H835 0.930 . S
C843 C844 1.355 . S
C843 C845 1.415 . S
C844 C843 1.355 . S
C844 C846 1.419 . S
C845 C840 1.425 . S
C845 C842 1.409 . S
C845 C843 1.415 . S
C846 H836 0.930 . S
C846 C844 1.419 . S
C846 C847 1.362 . S
C847 H837 0.930 . S
C847 C840 1.409 . S
C847 C846 1.362 . S
H848 C854 0.930 . S
H849 C857 0.930 . S
H850 C858 0.930 . S
H851 C859 0.930 . S
H852 C862 0.930 . S
H853 C863 0.930 . S
C854 H848 0.930 . S
C854 C855 1.355 . S
C854 C856 1.415 . S
C855 C854 1.355 . S
C855 C857 1.419 . S
C856 C854 1.415 . S
C856 C861 1.425 . S
C856 C863 1.409 . S
C857 H849 0.930 . S
C857 C855 1.419 . S
C857 C858 1.362 . S
C858 H850 0.930 . S
C858 C857 1.362 . S
C858 C861 1.409 . S
C859 H851 0.930 . S
C859 C860 1.355 . S
C859 C861 1.415 . S
C860 C859 1.355 . S
C860 C862 1.419 . S
C861 C856 1.425 . S
C861 C858 1.409 . S
C861 C859 1.415 . S
C862 H852 0.930 . S
C862 C860 1.419 . S
C862 C863 1.362 . S
C863 H853 0.930 . S
C863 C856 1.409 . S
C863 C862 1.362 . S
H864 C870 0.930 . S
H865 C873 0.930 . S
H866 C874 0.930 . S
H867 C875 0.930 . S
H868 C878 0.930 . S
H869 C879 0.930 . S
C870 H864 0.930 . S
C870 C871 1.355 . S
C870 C872 1.415 . S
C871 C870 1.355 . S
C871 C873 1.419 . S
C872 C870 1.415 . S
C872 C877 1.425 . S
C872 C879 1.409 . S
C873 H865 0.930 . S
C873 C871 1.419 . S
C873 C874 1.362 . S
C874 H866 0.930 . S
C874 C873 1.362 . S
C874 C877 1.409 . S
C875 H867 0.930 . S
C875 C876 1.355 . S
C875 C877 1.415 . S
C876 C875 1.355 . S
C876 C878 1.419 . S
C877 C872 1.425 . S
C877 C874 1.409 . S
C877 C875 1.415 . S
C878 H868 0.930 . S
C878 C876 1.419 . S
C878 C879 1.362 . S
C879 H869 0.930 . S
C879 C872 1.409 . S
C879 C878 1.362 . S
H880 C886 0.930 . S
H881 C889 0.930 . S
H882 C890 0.930 . S
H883 C891 0.930 . S
H884 C894 0.930 . S
H885 C895 0.930 . S
C886 H880 0.930 . S
C886 C887 1.355 . S
C886 C888 1.415 . S
C887 C886 1.355 . S
C887 C889 1.419 . S
C888 C886 1.415 . S
C888 C893 1.425 . S
C888 C895 1.409 . S
C889 H881 0.930 . S
C889 C887 1.419 . S
C889 C890 1.362 . S
C890 H882 0.930 . S
C890 C889 1.362 . S
C890 C893 1.409 . S
C891 H883 0.930 . S
C891 C892 1.355 . S
C891 C893 1.415 . S
C892 C891 1.355 . S
C892 C894 1.419 . S
C893 C888 1.425 . S
C893 C890 1.409 . S
C893 C891 1.415 . S
C894 H884 0.930 . S
C894 C892 1.419 . S
C894 C895 1.362 . S
C895 H885 0.930 . S
C895 C888 1.409 . S
C895 C894 1.362 . S
H896 C902 0.930 . S
H897 C905 0.930 . S
H898 C906 0.930 . S
H899 C907 0.930 . S
H900 C910 0.930 . S
H901 C911 0.930 . S
C902 H896 0.930 . S
C902 C903 1.355 . S
C902 C904 1.415 . S
C903 C902 1.355 . S
C903 C905 1.419 . S
C904 C902 1.415 . S
C904 C909 1.425 . S
C904 C911 1.409 . S
C905 H897 0.930 . S
C905 C903 1.419 . S
C905 C906 1.362 . S
C906 H898 0.930 . S
C906 C905 1.362 . S
C906 C909 1.409 . S
C907 H899 0.930 . S
C907 C908 1.355 . S
C907 C909 1.415 . S
C908 C907 1.355 . S
C908 C910 1.419 . S
C909 C904 1.425 . S
C909 C906 1.409 . S
C909 C907 1.415 . S
C910 H900 0.930 . S
C910 C908 1.419 . S
C910 C911 1.362 . S
C911 H901 0.930 . S
C911 C904 1.409 . S
C911 C910 1.362 . S
H912 C918 0.930 . S
H913 C921 0.930 . S
H914 C922 0.930 . S
H915 C923 0.930 . S
H916 C926 0.930 . S
H917 C927 0.930 . S
C918 H912 0.930 . S
C918 C919 1.355 . S
C918 C920 1.415 . S
C919 C918 1.355 . S
C919 C921 1.419 . S
C920 C918 1.415 . S
C920 C925 1.425 . S
C920 C927 1.409 . S
C921 H913 0.930 . S
C921 C919 1.419 . S
C921 C922 1.362 . S
C922 H914 0.930 . S
C922 C921 1.362 . S
C922 C925 1.409 . S
C923 H915 0.930 . S
C923 C924 1.355 . S
C923 C925 1.415 . S
C924 C923 1.355 . S
C924 C926 1.419 . S
C925 C920 1.425 . S
C925 C922 1.409 . S
C925 C923 1.415 . S
C926 H916 0.930 . S
C926 C924 1.419 . S
C926 C927 1.362 . S
C927 H917 0.930 . S
C927 C920 1.409 . S
C927 C926 1.362 . S
H928 C934 0.930 . S
H929 C937 0.930 . S
H930 C938 0.930 . S
H931 C939 0.930 . S
H932 C942 0.930 . S
H933 C943 0.930 . S
C934 H928 0.930 . S
C934 C935 1.355 . S
C934 C936 1.415 . S
C935 C934 1.355 . S
C935 C937 1.419 . S
C936 C934 1.415 . S
C936 C941 1.425 . S
C936 C943 1.409 . S
C937 H929 0.930 . S
C937 C935 1.419 . S
C937 C938 1.362 . S
C938 H930 0.930 . S
C938 C937 1.362 . S
C938 C941 1.409 . S
C939 H931 0.930 . S
C939 C940 1.355 . S
C939 C941 1.415 . S
C940 C939 1.355 . S
C940 C942 1.419 . S
C941 C936 1.425 . S
C941 C938 1.409 . S
C941 C939 1.415 . S
C942 H932 0.930 . S
C942 C940 1.419 . S
C942 C943 1.362 . S
C943 H933 0.930 . S
C943 C936 1.409 . S
C943 C942 1.362 . S
H944 C950 0.930 . S
H945 C953 0.930 . S
H946 C954 0.930 . S
H947 C955 0.930 . S
H948 C958 0.930 . S
H949 C959 0.930 . S
C950 H944 0.930 . S
C950 C951 1.355 . S
C950 C952 1.415 . S
C951 C950 1.355 . S
C951 C953 1.419 . S
C952 C950 1.415 . S
C952 C957 1.425 . S
C952 C959 1.409 . S
C953 H945 0.930 . S
C953 C951 1.419 . S
C953 C954 1.362 . S
C954 H946 0.930 . S
C954 C953 1.362 . S
C954 C957 1.409 . S
C955 H947 0.930 . S
C955 C956 1.355 . S
C955 C957 1.415 . S
C956 C955 1.355 . S
C956 C958 1.419 . S
C957 C952 1.425 . S
C957 C954 1.409 . S
C957 C955 1.415 . S
C958 H948 0.930 . S
C958 C956 1.419 . S
C958 C959 1.362 . S
C959 H949 0.930 . S
C959 C952 1.409 . S
C959 C958 1.362 . S
H960 C966 0.930 . S
H961 C969 0.930 . S
H962 C970 0.930 . S
H963 C971 0.930 . S
H964 C974 0.930 . S
H965 C975 0.930 . S
C966 H960 0.930 . S
C966 C967 1.355 . S
C966 C968 1.415 . S
C967 C966 1.355 . S
C967 C969 1.419 . S
C968 C966 1.415 . S
C968 C973 1.425 . S
C968 C975 1.409 . S
C969 H961 0.930 . S
C969 C967 1.419 . S
C969 C970 1.362 . S
C970 H962 0.930 . S
C970 C969 1.362 . S
C970 C973 1.409 . S
C971 H963 0.930 . S
C971 C972 1.355 . S
C971 C973 1.415 . S
C972 C971 1.355 . S
C972 C974 1.419 . S
C973 C968 1.425 . S
C973 C970 1.409 . S
C973 C971 1.415 . S
C974 H964 0.930 . S
C974 C972 1.419 . S
C974 C975 1.362 . S
C975 H965 0.930 . S
C975 C968 1.409 . S
C975 C974 1.362 . S
H976 C982 0.930 . S
H977 C985 0.930 . S
H978 C986 0.930 . S
H979 C987 0.930 . S
H980 C990 0.930 . S
H981 C991 0.930 . S
C982 H976 0.930 . S
C982 C983 1.355 . S
C982 C984 1.415 . S
C983 C982 1.355 . S
C983 C985 1.419 . S
C984 C982 1.415 . S
C984 C989 1.425 . S
C984 C991 1.409 . S
C985 H977 0.930 . S
C985 C983 1.419 . S
C985 C986 1.362 . S
C986 H978 0.930 . S
C986 C985 1.362 . S
C986 C989 1.409 . S
C987 H979 0.930 . S
C987 C988 1.355 . S
C987 C989 1.415 . S
C988 C987 1.355 . S
C988 C990 1.419 . S
C989 C984 1.425 . S
C989 C986 1.409 . S
C989 C987 1.415 . S
C990 H980 0.930 . S
C990 C988 1.419 . S
C990 C991 1.362 . S
C991 H981 0.930 . S
C991 C984 1.409 . S
C991 C990 1.362 . S
H992 C998 0.930 . S
H993 C1001 0.930 . S
H994 C1002 0.930 . S
H995 C1003 0.930 . S
H996 C1006 0.930 . S
H997 C1007 0.930 . S
C998 H992 0.930 . S
C998 C999 1.355 . S
C998 C1000 1.415 . S
C999 C998 1.355 . S
C999 C1001 1.419 . S
C1000 C998 1.415 . S
C1000 C1005 1.425 . S
C1000 C1007 1.409 . S
C1001 H993 0.930 . S
C1001 C999 1.419 . S
C1001 C1002 1.362 . S
C1002 H994 0.930 . S
C1002 C1001 1.362 . S
C1002 C1005 1.409 . S
C1003 H995 0.930 . S
C1003 C1004 1.355 . S
C1003 C1005 1.415 . S
C1004 C1003 1.355 . S
C1004 C1006 1.419 . S
C1005 C1000 1.425 . S
C1005 C1002 1.409 . S
C1005 C1003 1.415 . S
C1006 H996 0.930 . S
C1006 C1004 1.419 . S
C1006 C1007 1.362 . S
C1007 H997 0.930 . S
C1007 C1000 1.409 . S
C1007 C1006 1.362 . S
H1008 C1014 0.930 . S
H1009 C1017 0.930 . S
H1010 C1018 0.930 1_554 S
H1011 C1019 0.930 . S
H1012 C1022 0.930 . S
H1013 C1023 0.930 . S
C1014 H1008 0.930 . S
C1014 C1015 1.355 . S
C1014 C1016 1.415 . S
C1015 C1014 1.355 . S
C1015 C1017 1.419 . S
C1016 C1014 1.415 . S
C1016 C1021 1.425 . S
C1016 C1023 1.409 . S
C1017 H1009 0.930 . S
C1017 C1015 1.419 . S
C1017 C1018 1.362 . S
C1018 H1010 0.930 1_556 S
C1018 C1017 1.362 . S
C1018 C1021 1.409 . S
C1019 H1011 0.930 . S
C1019 C1020 1.355 . S
C1019 C1021 1.415 1_554 S
C1020 C1019 1.355 . S
C1020 C1022 1.419 . S
C1021 C1016 1.425 . S
C1021 C1018 1.409 . S
C1021 C1019 1.415 1_556 S
C1022 H1012 0.930 . S
C1022 C1020 1.419 . S
C1022 C1023 1.362 1_554 S
C1023 H1013 0.930 . S
C1023 C1016 1.409 . S
C1023 C1022 1.362 1_556 S
H1024 C1030 0.930 . S
H1025 C1033 0.930 . S
H1026 C1034 0.930 . S
H1027 C1035 0.930 . S
H1028 C1038 0.930 . S
H1029 C1039 0.930 . S
C1030 H1024 0.930 . S
C1030 C1031 1.355 . S
C1030 C1032 1.415 . S
C1031 C1030 1.355 . S
C1031 C1033 1.419 . S
C1032 C1030 1.415 . S
C1032 C1037 1.425 . S
C1032 C1039 1.409 . S
C1033 H1025 0.930 . S
C1033 C1031 1.419 . S
C1033 C1034 1.362 . S
C1034 H1026 0.930 . S
C1034 C1033 1.362 . S
C1034 C1037 1.409 . S
C1035 H1027 0.930 . S
C1035 C1036 1.355 . S
C1035 C1037 1.415 . S
C1036 C1035 1.355 . S
C1036 C1038 1.419 . S
C1037 C1032 1.425 . S
C1037 C1034 1.409 . S
C1037 C1035 1.415 . S
C1038 H1028 0.930 . S
C1038 C1036 1.419 . S
C1038 C1039 1.362 . S
C1039 H1029 0.930 . S
C1039 C1032 1.409 . S
C1039 C1038 1.362 . S
H1040 C1046 0.930 . S
H1041 C1049 0.930 . S
H1042 C1050 0.930 . S
H1043 C1051 0.930 . S
H1044 C1054 0.930 . S
H1045 C1055 0.930 . S
C1046 H1040 0.930 . S
C1046 C1047 1.355 . S
C1046 C1048 1.415 . S
C1047 C1046 1.355 . S
C1047 C1049 1.419 . S
C1048 C1046 1.415 . S
C1048 C1053 1.425 . S
C1048 C1055 1.409 . S
C1049 H1041 0.930 . S
C1049 C1047 1.419 . S
C1049 C1050 1.362 . S
C1050 H1042 0.930 . S
C1050 C1049 1.362 . S
C1050 C1053 1.409 . S
C1051 H1043 0.930 . S
C1051 C1052 1.355 . S
C1051 C1053 1.415 . S
C1052 C1051 1.355 . S
C1052 C1054 1.419 . S
C1053 C1048 1.425 . S
C1053 C1050 1.409 . S
C1053 C1051 1.415 . S
C1054 H1044 0.930 . S
C1054 C1052 1.419 . S
C1054 C1055 1.362 . S
C1055 H1045 0.930 . S
C1055 C1048 1.409 . S
C1055 C1054 1.362 . S
H1056 C1062 0.930 . S
H1057 C1065 0.930 . S
H1058 C1066 0.930 . S
H1059 C1067 0.930 . S
H1060 C1070 0.930 . S
H1061 C1071 0.930 . S
C1062 H1056 0.930 . S
C1062 C1063 1.355 . S
C1062 C1064 1.415 . S
C1063 C1062 1.355 . S
C1063 C1065 1.419 . S
C1064 C1062 1.415 . S
C1064 C1069 1.425 . S
C1064 C1071 1.409 . S
C1065 H1057 0.930 . S
C1065 C1063 1.419 . S
C1065 C1066 1.362 . S
C1066 H1058 0.930 . S
C1066 C1065 1.362 . S
C1066 C1069 1.409 . S
C1067 H1059 0.930 . S
C1067 C1068 1.355 . S
C1067 C1069 1.415 . S
C1068 C1067 1.355 . S
C1068 C1070 1.419 . S
C1069 C1064 1.425 . S
C1069 C1066 1.409 . S
C1069 C1067 1.415 . S
C1070 H1060 0.930 . S
C1070 C1068 1.419 . S
C1070 C1071 1.362 . S
C1071 H1061 0.930 . S
C1071 C1064 1.409 . S
C1071 C1070 1.362 . S
H1072 C1078 0.930 . S
H1073 C1081 0.930 . S
H1074 C1082 0.930 . S
H1075 C1083 0.930 . S
H1076 C1086 0.930 . S
H1077 C1087 0.930 . S
C1078 H1072 0.930 . S
C1078 C1079 1.355 . S
C1078 C1080 1.415 . S
C1079 C1078 1.355 . S
C1079 C1081 1.419 . S
C1080 C1078 1.415 . S
C1080 C1085 1.425 . S
C1080 C1087 1.409 . S
C1081 H1073 0.930 . S
C1081 C1079 1.419 . S
C1081 C1082 1.362 . S
C1082 H1074 0.930 . S
C1082 C1081 1.362 . S
C1082 C1085 1.409 . S
C1083 H1075 0.930 . S
C1083 C1084 1.355 . S
C1083 C1085 1.415 . S
C1084 C1083 1.355 . S
C1084 C1086 1.419 . S
C1085 C1080 1.425 . S
C1085 C1082 1.409 . S
C1085 C1083 1.415 . S
C1086 H1076 0.930 . S
C1086 C1084 1.419 . S
C1086 C1087 1.362 . S
C1087 H1077 0.930 . S
C1087 C1080 1.409 . S
C1087 C1086 1.362 . S
H1088 C1094 0.930 . S
H1089 C1097 0.930 . S
H1090 C1098 0.930 . S
H1091 C1099 0.930 . S
H1092 C1102 0.930 . S
H1093 C1103 0.930 . S
C1094 H1088 0.930 . S
C1094 C1095 1.355 . S
C1094 C1096 1.415 . S
C1095 C1094 1.355 . S
C1095 C1097 1.419 . S
C1096 C1094 1.415 . S
C1096 C1101 1.425 . S
C1096 C1103 1.409 . S
C1097 H1089 0.930 . S
C1097 C1095 1.419 . S
C1097 C1098 1.362 . S
C1098 H1090 0.930 . S
C1098 C1097 1.362 . S
C1098 C1101 1.409 . S
C1099 H1091 0.930 . S
C1099 C1100 1.355 . S
C1099 C1101 1.415 . S
C1100 C1099 1.355 . S
C1100 C1102 1.419 . S
C1101 C1096 1.425 . S
C1101 C1098 1.409 . S
C1101 C1099 1.415 . S
C1102 H1092 0.930 . S
C1102 C1100 1.419 . S
C1102 C1103 1.362 . S
C1103 H1093 0.930 . S
C1103 C1096 1.409 . S
C1103 C1102 1.362 . S
H1104 C1110 0.930 . S
H1105 C1113 0.930 . S
H1106 C1114 0.930 . S
H1107 C1115 0.930 . S
H1108 C1118 0.930 . S
H1109 C1119 0.930 . S
C1110 H1104 0.930 . S
C1110 C1111 1.355 . S
C1110 C1112 1.415 . S
C1111 C1110 1.355 . S
C1111 C1113 1.419 . S
C1112 C1110 1.415 . S
C1112 C1117 1.425 . S
C1112 C1119 1.409 . S
C1113 H1105 0.930 . S
C1113 C1111 1.419 . S
C1113 C1114 1.362 . S
C1114 H1106 0.930 . S
C1114 C1113 1.362 . S
C1114 C1117 1.409 . S
C1115 H1107 0.930 . S
C1115 C1116 1.355 . S
C1115 C1117 1.415 . S
C1116 C1115 1.355 . S
C1116 C1118 1.419 . S
C1117 C1112 1.425 . S
C1117 C1114 1.409 . S
C1117 C1115 1.415 . S
C1118 H1108 0.930 . S
C1118 C1116 1.419 . S
C1118 C1119 1.362 . S
C1119 H1109 0.930 . S
C1119 C1112 1.409 . S
C1119 C1118 1.362 . S
H1120 C1126 0.930 . S
H1121 C1129 0.930 . S
H1122 C1130 0.930 . S
H1123 C1131 0.930 . S
H1124 C1134 0.930 . S
H1125 C1135 0.930 . S
C1126 H1120 0.930 . S
C1126 C1127 1.355 . S
C1126 C1128 1.415 1_554 S
C1127 C1126 1.355 . S
C1127 C1129 1.419 . S
C1128 C1126 1.415 1_556 S
C1128 C1133 1.425 . S
C1128 C1135 1.409 . S
C1129 H1121 0.930 . S
C1129 C1127 1.419 . S
C1129 C1130 1.362 1_554 S
C1130 H1122 0.930 . S
C1130 C1129 1.362 1_556 S
C1130 C1133 1.409 . S
C1131 H1123 0.930 . S
C1131 C1132 1.355 . S
C1131 C1133 1.415 . S
C1132 C1131 1.355 . S
C1132 C1134 1.419 . S
C1133 C1128 1.425 . S
C1133 C1130 1.409 . S
C1133 C1131 1.415 . S
C1134 H1124 0.930 . S
C1134 C1132 1.419 . S
C1134 C1135 1.362 . S
C1135 H1125 0.930 . S
C1135 C1128 1.409 . S
C1135 C1134 1.362 . S
H1136 C1142 0.930 . S
H1137 C1145 0.930 . S
H1138 C1146 0.930 . S
H1139 C1147 0.930 . S
H1140 C1150 0.930 . S
H1141 C1151 0.930 . S
C1142 H1136 0.930 . S
C1142 C1143 1.355 . S
C1142 C1144 1.415 . S
C1143 C1142 1.355 . S
C1143 C1145 1.419 . S
C1144 C1142 1.415 . S
C1144 C1149 1.425 . S
C1144 C1151 1.409 . S
C1145 H1137 0.930 . S
C1145 C1143 1.419 . S
C1145 C1146 1.362 . S
C1146 H1138 0.930 . S
C1146 C1145 1.362 . S
C1146 C1149 1.409 . S
C1147 H1139 0.930 . S
C1147 C1148 1.355 . S
C1147 C1149 1.415 . S
C1148 C1147 1.355 . S
C1148 C1150 1.419 . S
C1149 C1144 1.425 . S
C1149 C1146 1.409 . S
C1149 C1147 1.415 . S
C1150 H1140 0.930 . S
C1150 C1148 1.419 . S
C1150 C1151 1.362 . S
C1151 H1141 0.930 . S
C1151 C1144 1.409 . S
C1151 C1150 1.362 . S
C780 C754 1.754 . S
C775 C1 1.390 . S
C791 C169 1.488 . S
C796 C695 1.828 . S
C807 C283 1.596 . S
C812 C698 1.843 . S
C823 C397 1.396 . S
C828 C712 1.634 . S
C844 C737 1.626 . S
C839 C457 1.258 . S
C855 C571 1.125 . S
C860 C740 1.565 . S
C871 C115 1.200 . S
C876 C709 1.670 . S
C887 C229 1.229 . S
C892 C723 1.600 . S
C903 C343 1.083 . S
C908 C726 1.501 . S
C924 C751 1.714 . S
C919 C511 1.369 . S
C940 C765 1.731 . S
C935 C625 1.471 . S
C956 C684 1.822 . S
C951 C55 1.475 . S
C967 C29 1.157 . S
C972 C707 1.424 . S
C983 C125 1.034 . S
C988 C721 1.532 . S
C1004 C731 1.478 . S
C999 C239 1.006 . S
C1015 C353 0.771 . S
C1020 C749 1.418 . S
C1036 C763 1.392 . S
C1031 C485 1.174 . S
C1052 C689 1.450 . S
C1047 C599 1.216 . S
C1068 C759 1.485 . S
C1063 C143 1.218 . S
C1079 C257 1.217 . S
C1084 C693 1.457 . S
C1100 C703 1.406 . S
C1095 C371 1.200 . S
C1111 C467 1.066 . S
C1116 C717 1.502 . S
C1127 C581 0.922 . S
C1132 C735 1.468 . S
C1143 C11 1.021 . S
C1148 C745 1.539 . S
