# Generated by pormake.
# Topology anh, (6,3)-cn, num edge types: 1
# Building blocks:
#     Node 0, Type 0, BuildingBlock: NUHQIS_clean_sbu_0, # of connection points: 6
#     Node 1, Type 0, BuildingBlock: NUHQIS_clean_sbu_0, # of connection points: 6
#     Node 2, Type 0, BuildingBlock: NUHQIS_clean_sbu_0, # of connection points: 6
#     Node 3, Type 1, BuildingBlock: VETTIZ_charged_linker_0, # of connection points: 3
#     Node 4, Type 1, BuildingBlock: VETTIZ_charged_linker_0, # of connection points: 3
#     Node 5, Type 1, BuildingBlock: VETTIZ_charged_linker_0, # of connection points: 3
#     Node 6, Type 1, BuildingBlock: VETTIZ_charged_linker_0, # of connection points: 3
#     Node 7, Type 1, BuildingBlock: VETTIZ_charged_linker_0, # of connection points: 3
#     Node 8, Type 1, BuildingBlock: VETTIZ_charged_linker_0, # of connection points: 3
#     Edge 9, Type (0, 1), None
#     Edge 10, Type (0, 1), None
#     Edge 11, Type (0, 1), None
#     Edge 12, Type (0, 1), None
#     Edge 13, Type (0, 1), None
#     Edge 14, Type (0, 1), None
#     Edge 15, Type (0, 1), None
#     Edge 16, Type (0, 1), None
#     Edge 17, Type (0, 1), None
#     Edge 18, Type (0, 1), None
#     Edge 19, Type (0, 1), None
#     Edge 20, Type (0, 1), None
#     Edge 21, Type (0, 1), None
#     Edge 22, Type (0, 1), None
#     Edge 23, Type (0, 1), None
#     Edge 24, Type (0, 1), None
#     Edge 25, Type (0, 1), None
#     Edge 26, Type (0, 1), None
# Relax obj value: 0.453
# Max RMSD: 0.223
# Mean RMSD: 0.183
data_MOF--net-anh--node1-NUHQIS_clean_sbu_0--node2-VETTIZ_charged_linker_0--edge1-none
_symmetry_space_group_name_H-M    P1
_symmetry_Int_Tables_number       1
_symmetry_cell_setting            triclinic
loop_
_symmetry_equiv_pos_as_xyz
'x, y, z'
_cell_length_a     18.953861
_cell_length_b     19.146341
_cell_length_c     37.447791
_cell_angle_alpha  91.362366
_cell_angle_beta   90.7064
_cell_angle_gamma 119.80829
loop_
_atom_site_label
_atom_site_type_symbol
_atom_site_fract_x
_atom_site_fract_y
_atom_site_fract_z
_atom_type_partial_charge
Tb0 Tb 0.36283 0.75029 0.17691 0.0
Eu1 Eu 0.25919 0.83773 0.16342 0.0
C2 C 0.30303 0.81153 0.23848 0.0
C3 C 1.16373 0.64168 0.17619 0.0
C4 C 0.40033 0.5831 0.17953 0.0
C5 C 0.31915 0.46762 0.1396 0.0
C6 C 0.33648 0.54249 0.15415 0.0
C7 C 0.44014 0.54449 0.19328 0.0
C8 C 0.42245 0.46943 0.17902 0.0
C9 C 0.36585 0.43279 0.15016 0.0
C10 C 0.42825 0.66717 0.18986 0.0
O11 O 0.32589 0.7248 0.12005 0.0
O12 O 0.30098 0.82801 0.1093 0.0
O13 O 0.39274 0.94357 0.17097 0.0
O14 O 0.4633 0.87445 0.17002 0.0
C15 C 0.31359 0.77021 0.09786 0.0
O16 O 1.17594 0.86567 0.13492 0.0
O17 O 1.22451 0.92124 0.18735 0.0
O18 O 0.2403 0.78879 0.21756 0.0
O19 O 0.37035 0.82088 0.22515 0.0
O20 O 0.23633 0.6537 0.18614 0.0
O21 O 1.15795 0.70199 0.16239 0.0
C22 C 0.46285 0.94341 0.17046 0.0
O23 O 0.38238 0.67796 0.21233 0.0
O24 O 0.44871 0.71622 0.1634 0.0
C25 C 1.08276 0.85636 0.17675 0.0
C26 C 0.93729 0.71004 0.17382 0.0
C27 C 0.94583 0.77369 0.15292 0.0
C28 C 1.01889 0.8468 0.1542 0.0
C29 C 1.06671 0.79904 0.203 0.0
C30 C 0.99489 0.72494 0.20088 0.0
C31 C 1.16587 0.90021 0.16346 0.0
H32 H 0.27443 0.4406 0.1179 0.0
H33 H 0.30369 0.57103 0.1439 0.0
H34 H 0.48844 0.57448 0.21338 0.0
H35 H 0.45988 0.44492 0.18812 0.0
H36 H 0.9016 0.76275 0.13177 0.0
H37 H 1.02965 0.89003 0.13384 0.0
H38 H 1.11425 0.80576 0.22142 0.0
H39 H 0.98931 0.67648 0.21717 0.0
Tb40 Tb 0.95647 0.23586 0.50397 0.0
Eu41 Eu 0.76674 0.15432 0.49374 0.0
C42 C 0.84751 0.20673 0.56728 0.0
C43 C 0.85473 1.04205 0.50504 0.0
C44 C 1.15366 0.40581 0.50956 0.0
C45 C 1.15275 0.52985 0.52406 0.0
C46 C 1.15111 0.45993 0.53506 0.0
C47 C 1.17539 0.43132 0.47453 0.0
C48 C 1.17705 0.50105 0.46359 0.0
C49 C 1.15907 0.54684 0.48774 0.0
C50 C 1.10673 0.31848 0.51569 0.0
O51 O 0.93458 0.25101 0.44763 0.0
O52 O 0.81246 1.13627 0.44174 0.0
O53 O 0.80665 0.28657 0.48266 0.0
O54 O 0.93223 0.33984 0.50986 0.0
C55 C 0.87638 0.19454 0.42724 0.0
O56 O 0.65077 1.08196 0.51927 0.0
O57 O 0.65384 1.12127 0.46482 0.0
O58 O 0.80581 0.22442 0.54546 0.0
O59 O 0.89644 0.18445 0.55357 0.0
O60 O 0.92536 1.1065 0.49793 0.0
O61 O 0.79004 1.05083 0.50934 0.0
C62 C 0.87315 0.35021 0.49585 0.0
O63 O 1.05359 0.2985 0.54077 0.0
O64 O 1.07485 0.27165 0.48713 0.0
C65 C 0.553 1.11777 0.50262 0.0
C66 C 0.42365 0.1492 0.50593 0.0
C67 C 0.41976 1.08294 0.52349 0.0
C68 C 0.48349 1.06664 0.5212 0.0
C69 C 0.56354 0.19176 0.4913 0.0
C70 C 0.49939 0.20791 0.4934 0.0
C71 C 0.60992 1.08982 0.49288 0.0
H72 H 1.14077 0.5657 0.54324 0.0
H73 H 1.13686 0.44318 0.56257 0.0
H74 H 1.18033 0.39238 0.45447 0.0
H75 H 1.18512 0.51523 0.43556 0.0
H76 H 0.36356 1.03694 0.53439 0.0
H77 H 0.4755 1.01061 0.53126 0.0
H78 H 0.6185 0.23398 0.4782 0.0
H79 H 0.50531 0.26073 0.48069 0.0
Tb80 Tb 0.80516 0.73791 0.83136 0.0
Eu81 Eu 0.72359 0.55041 0.83638 0.0
C82 C 0.78506 0.6554 0.90257 0.0
C83 C 0.92164 0.65704 0.83195 0.0
C84 C 0.78352 0.89258 0.8057 0.0
C85 C 0.63712 0.84048 0.80136 0.0
C86 C 0.7091 0.87129 0.82188 0.0
C87 C 0.78555 0.89334 0.76823 0.0
C88 C 0.71385 0.86345 0.74767 0.0
C89 C 0.63765 0.8335 0.76381 0.0
C90 C 0.84476 0.88064 0.82553 0.0
O91 O 0.79264 0.69794 0.7756 0.0
O92 O 0.70706 0.5612 0.77764 0.0
O93 O 0.62393 0.58256 0.84879 0.0
O94 O 0.67499 0.69885 0.81978 0.0
C95 C 0.74755 0.62712 0.75967 0.0
O96 O 0.67926 0.42405 0.82356 0.0
O97 O 0.65501 0.4605 0.87549 0.0
O98 O 0.8058 0.61199 0.88342 0.0
O99 O 0.76356 0.70064 0.88545 0.0
O100 O 0.9128 0.7205 0.84024 0.0
O101 O 0.85638 0.58579 0.8249 0.0
C102 C 0.6131 0.63987 0.83564 0.0
O103 O 0.82146 0.84548 0.856 0.0
O104 O 0.87873 0.84791 0.80654 0.0
C105 C 0.67698 0.3505 0.87356 0.0
C106 C 0.68072 0.20959 0.87384 0.0
C107 C 0.75287 0.28137 0.86655 0.0
C108 C 0.74913 0.35198 0.86437 0.0
C109 C 0.62056 0.28757 0.89399 0.0
C110 C 0.62664 0.21804 0.89659 0.0
C111 C 0.65245 0.40238 0.8558 0.0
H112 H 0.58112 0.81903 0.81551 0.0
H113 H 0.70462 0.86982 0.8507 0.0
H114 H 0.84165 0.90983 0.75469 0.0
H115 H 0.71905 0.86332 0.71899 0.0
H116 H 0.8038 0.2805 0.85431 0.0
H117 H 0.79701 0.40297 0.85116 0.0
H118 H 0.56692 0.28762 0.90363 0.0
H119 H 0.57599 0.16525 0.90748 0.0
C120 C 1.01774 0.50504 0.17317 0.0
C121 C 1.08996 0.56763 0.19172 0.0
C122 C 1.09746 0.55735 0.22841 0.0
C123 C 0.97207 0.42729 0.2278 0.0
C124 C 0.95911 0.43478 0.192 0.0
C125 C 0.8774 0.35995 0.17921 0.0
H126 H 0.56546 0.97286 0.22582 0.0
C127 C 0.90696 0.34781 0.24033 0.0
C128 C 0.84906 0.30595 0.21212 0.0
H129 H 0.54823 1.09131 0.13274 0.0
H130 H 0.6837 0.20992 0.14842 0.0
H131 H 0.75357 1.02952 0.22305 0.0
H132 H 0.60309 1.10604 0.27446 0.0
H133 H 0.68205 1.13497 0.30588 0.0
H134 H 0.6204 1.03005 0.29258 0.0
H135 H 0.69425 0.98187 0.26114 0.0
H136 H 0.7987 1.06246 0.26578 0.0
C137 C 0.89082 0.31603 0.14744 0.0
C138 C 0.81616 0.38704 0.16958 0.0
C139 C 0.92221 0.2717 0.36983 0.0
C140 C 0.87585 0.19899 0.38771 0.0
C141 C 0.82078 1.12964 0.36757 0.0
C142 C 0.80699 1.133 0.3312 0.0
C143 C 0.848 0.20688 0.31418 0.0
C144 C 0.90733 0.27379 0.33286 0.0
C145 C 0.94912 0.34478 0.30887 0.0
C146 C 0.90029 0.31033 0.27361 0.0
C147 C 0.84005 0.23026 0.27752 0.0
C148 C 1.03917 0.36553 0.30577 0.0
C149 C 0.93824 0.41426 0.3247 0.0
C150 C 0.58982 1.02363 0.20839 0.0
C151 C 0.54446 1.02087 0.17809 0.0
C152 C 0.58027 1.09058 0.15673 0.0
C153 C 0.65892 0.15966 0.16586 0.0
C154 C 0.70226 0.16124 0.19738 0.0
C155 C 0.6649 1.09288 0.21777 0.0
C156 C 0.70985 1.10262 0.25198 0.0
C157 C 0.78004 0.18807 0.25018 0.0
C158 C 0.78044 0.22455 0.21761 0.0
C159 C 0.74036 1.04075 0.25082 0.0
C160 C 0.65143 1.09253 0.28295 0.0
H161 H 1.05217 0.48851 0.27405 0.0
H162 H 1.0084 0.50947 0.14495 0.0
H163 H 0.81719 0.43033 0.1902 0.0
H164 H 0.75362 0.33552 0.16758 0.0
H165 H 0.83095 0.41611 0.14354 0.0
H166 H 0.93545 0.29691 0.15496 0.0
H167 H 0.91458 0.35607 0.12437 0.0
H168 H 0.83286 0.26163 0.13886 0.0
H169 H 0.96614 0.32583 0.38435 0.0
H170 H 0.78557 1.07228 0.38027 0.0
H171 H 0.7623 1.07797 0.31823 0.0
H172 H 1.04845 0.31513 0.31399 0.0
H173 H 1.08057 0.41902 0.32291 0.0
H174 H 1.05986 0.37639 0.27787 0.0
H175 H 0.8753 0.39069 0.33426 0.0
H176 H 0.94672 0.4595 0.30491 0.0
H177 H 0.98092 0.44518 0.3478 0.0
H178 H 1.14974 0.60241 0.24384 0.0
C179 C 1.04022 0.48966 0.24616 0.0
C180 C 0.86045 0.90383 0.50073 0.0
C181 C 0.85174 0.96587 0.51985 0.0
C182 C 0.8358 0.95445 0.55638 0.0
C183 C 0.83446 0.82584 0.55503 0.0
C184 C 0.85109 0.83347 0.51906 0.0
C185 C 0.85785 0.75927 0.50557 0.0
H186 H 0.84491 0.39795 0.55953 0.0
C187 C 0.82763 0.74906 0.56775 0.0
C188 C 0.8421 0.70768 0.53928 0.0
H189 H 0.89012 0.4789 0.45183 0.0
H190 H 0.87862 0.59918 0.46983 0.0
H191 H 0.94808 0.56229 0.60077 0.0
H192 H 0.69868 0.42374 0.56546 0.0
H193 H 0.6949 0.46855 0.60612 0.0
H194 H 0.7356 0.4008 0.6052 0.0
H195 H 0.87561 0.47061 0.62077 0.0
H196 H 0.89175 0.56721 0.63649 0.0
C197 C 0.94362 0.78845 0.49189 0.0
C198 C 0.79281 0.71191 0.47623 0.0
C199 C 0.76459 0.68774 0.69943 0.0
C200 C 0.75057 0.6219 0.72022 0.0
C201 C 0.74856 0.55451 0.70337 0.0
C202 C 0.76431 0.55426 0.66687 0.0
C203 C 0.7811 0.62165 0.64651 0.0
C204 C 0.77852 0.68568 0.66272 0.0
C205 C 0.79367 0.75011 0.63675 0.0
C206 C 0.80858 0.7156 0.6023 0.0
C207 C 0.80254 0.64111 0.60842 0.0
C208 C 0.87081 0.82878 0.65019 0.0
C209 C 0.71478 0.75566 0.63405 0.0
C210 C 0.85384 0.44143 0.53953 0.0
C211 C 0.87064 0.42814 0.50452 0.0
C212 C 0.87856 0.48682 0.47943 0.0
C213 C 0.87159 0.55655 0.48977 0.0
C214 C 0.85404 0.56783 0.5255 0.0
C215 C 0.84476 0.5086 0.549 0.0
C216 C 0.82017 0.52158 0.58497 0.0
C217 C 0.81962 0.59986 0.58089 0.0
C218 C 0.83946 0.6305 0.54597 0.0
C219 C 0.88658 0.53042 0.61242 0.0
C220 C 0.73324 0.45005 0.59112 0.0
H221 H 0.81591 0.8854 0.60154 0.0
H222 H 0.87301 0.90936 0.47252 0.0
H223 H 0.73111 0.69248 0.48639 0.0
H224 H 0.79491 0.65739 0.46725 0.0
H225 H 0.80232 0.74976 0.45275 0.0
H226 H 0.98904 0.82844 0.51264 0.0
H227 H 0.95391 0.82342 0.46734 0.0
H228 H 0.95372 0.7372 0.48577 0.0
H229 H 0.76587 0.74033 0.71157 0.0
H230 H 0.73874 0.50339 0.71878 0.0
H231 H 0.76509 0.50217 0.65635 0.0
H232 H 0.91371 0.81542 0.66505 0.0
H233 H 0.85493 0.8651 0.66849 0.0
H234 H 0.90702 0.86656 0.62816 0.0
H235 H 0.65973 0.69634 0.63832 0.0
H236 H 0.70397 0.77245 0.60733 0.0
H237 H 0.71561 0.79886 0.65455 0.0
H238 H 0.83023 0.99937 0.57223 0.0
C239 C 0.82753 0.88686 0.57366 0.0
C240 C 0.4714 0.6384 0.83394 0.0
C241 C 0.5463 0.65343 0.85134 0.0
C242 C 0.55863 0.68066 0.88723 0.0
C243 C 0.42575 0.67187 0.88955 0.0
C244 C 0.41188 0.64898 0.85371 0.0
C245 C 0.32909 0.63991 0.84151 0.0
H246 H 1.01016 0.70888 0.89318 0.0
C247 C 0.35577 0.67827 0.90376 0.0
C248 C 0.29822 0.66259 0.87562 0.0
H249 H 1.01727 0.60946 0.79003 0.0
H250 H 1.14665 0.61437 0.80797 0.0
H251 H 1.03639 0.58505 0.92942 0.0
H252 H 1.19284 0.83317 0.90771 0.0
H253 H 1.22203 0.82277 0.95095 0.0
H254 H 1.11869 0.79952 0.94195 0.0
H255 H 1.04038 0.66404 0.95745 0.0
H256 H 1.10399 0.62035 0.96621 0.0
C257 C 0.2707 0.55233 0.82906 0.0
C258 C 0.34283 0.6986 0.81186 0.0
C259 C 0.35203 0.73274 0.0386 0.0
C260 C 0.29996 0.74937 0.05918 0.0
C261 C 0.23437 0.75089 0.04209 0.0
C262 C 1.22022 0.73634 0.00537 0.0
C263 C 0.27223 0.72009 0.98479 0.0
C264 C 0.3374 0.71932 0.00127 0.0
C265 C 0.3899 0.70844 0.97421 0.0
C266 C 0.34142 0.69627 0.93924 0.0
C267 C 0.27311 0.70376 0.94591 0.0
C268 C 0.39413 0.63229 0.98365 0.0
C269 C 0.47377 0.78736 0.97485 0.0
C270 C 1.03976 0.69 0.87373 0.0
C271 C 1.00345 0.66159 0.83982 0.0
C272 C 1.04368 0.63346 0.81636 0.0
C273 C 1.11878 0.6363 0.82669 0.0
C274 C 1.15358 0.66493 0.8614 0.0
C275 C 1.11113 0.68882 0.884 0.0
C276 C 1.14468 0.70558 0.92123 0.0
C277 C 1.21755 0.69363 0.91783 0.0
C278 C 1.22658 0.67101 0.88259 0.0
C279 C 1.07832 0.64124 0.94504 0.0
C280 C 1.17053 0.79452 0.93135 0.0
H281 H 0.51476 0.70806 0.93352 0.0
H282 H 0.45949 0.61879 0.8061 0.0
H283 H 0.38768 0.76051 0.82161 0.0
H284 H 0.28574 0.69758 0.80411 0.0
H285 H 0.36675 0.68332 0.78778 0.0
H286 H 0.26369 0.51054 0.8506 0.0
H287 H 0.2943 0.53588 0.80519 0.0
H288 H 1.20967 0.5432 0.82209 0.0
H289 H 0.4043 0.73336 0.05097 0.0
H290 H 1.19356 0.76371 0.0573 0.0
H291 H 1.16953 0.73971 0.99463 0.0
H292 H 0.33245 0.5818 0.98928 0.0
H293 H 0.43351 0.64396 0.00783 0.0
H294 H 0.41693 0.60988 0.9618 0.0
H295 H 0.47164 0.83874 0.98827 0.0
H296 H 0.49456 0.80814 0.94757 0.0
H297 H 0.52106 0.77992 0.98927 0.0
H298 H 0.61505 0.69572 0.90117 0.0
C299 C 0.49981 0.6889 0.90614 0.0
C300 C 1.17397 0.6844 0.48701 0.0
C301 C 1.13619 0.60417 0.47386 0.0
C302 C 1.07736 0.57861 0.44575 0.0
C303 C 1.11417 0.71581 0.43725 0.0
C304 C 1.16025 0.73934 0.46842 0.0
C305 C 1.19742 0.82843 0.47559 0.0
H306 H 0.40172 0.17594 0.43642 0.0
C307 C 1.13059 0.78696 0.41794 0.0
C308 C 1.16315 0.85144 0.44319 0.0
H309 H 0.26796 1.09236 0.53351 0.0
H310 H 1.15807 0.97657 0.49917 0.0
H311 H 0.40636 1.03944 0.41961 0.0
H312 H 1.223 1.08633 0.37594 0.0
H313 H 0.25754 1.04749 0.34141 0.0
H314 H 0.32806 1.14144 0.36421 0.0
H315 H 0.42692 1.10589 0.38328 0.0
H316 H 0.38531 0.99915 0.37604 0.0
C317 C 0.29106 0.86878 0.47465 0.0
C318 C 1.17082 0.84329 0.51232 0.0
C319 C 0.23708 0.77536 0.296 0.0
C320 C 0.29636 0.83429 0.27509 0.0
C321 C 0.33125 0.91594 0.28564 0.0
C322 C 0.30637 0.93837 0.31692 0.0
C323 C 0.24774 0.87824 0.3381 0.0
C324 C 1.21476 0.79818 0.32765 0.0
C325 C 1.15455 0.7419 0.35348 0.0
C326 C 1.15851 0.802 0.38224 0.0
C327 C 1.21211 0.88165 0.37246 0.0
C328 C 1.18387 0.68367 0.36633 0.0
C329 C 1.06988 0.6967 0.33471 0.0
C330 C 0.34777 1.13541 0.45056 0.0
C331 C 0.34752 1.13748 0.48832 0.0
C332 C 0.27273 1.08797 0.50484 0.0
C333 C 1.21205 1.01984 0.48596 0.0
C334 C 1.22844 1.00509 0.45126 0.0
C335 C 0.28925 1.06515 0.43249 0.0
C336 C 0.2964 1.03487 0.39585 0.0
C337 C 1.23077 0.94661 0.39694 0.0
C338 C 1.19593 0.92996 0.43057 0.0
C339 C 0.38306 1.04558 0.39312 0.0
C340 C 0.27576 1.07999 0.36763 0.0
H341 H 1.02174 0.61493 0.4056 0.0
H342 H 1.21647 0.70444 0.50961 0.0
H343 H 1.17409 0.80338 0.53255 0.0
H344 H 1.10753 0.83118 0.5108 0.0
H345 H 1.2117 0.90536 0.52292 0.0
H346 H 0.31039 0.8549 0.44877 0.0
H347 H 0.31504 0.84766 0.4966 0.0
H348 H 0.3197 0.93519 0.4779 0.0
H349 H 1.20711 0.71253 0.28733 0.0
H350 H 0.37424 0.96231 0.2687 0.0
H351 H 0.33353 1.00153 0.32342 0.0
H352 H 1.21848 0.67152 0.34578 0.0
H353 H 1.1323 0.6233 0.37164 0.0
H354 H 1.22472 0.70881 0.39039 0.0
H355 H 1.05543 0.73957 0.32138 0.0
H356 H 1.02132 0.66368 0.35385 0.0
H357 H 1.06743 0.65272 0.3141 0.0
H358 H 1.044 0.51594 0.43673 0.0
C359 C 1.06484 0.63465 0.42774 0.0
C360 C 0.49982 0.82061 0.75311 0.0
C361 C 0.56207 0.80653 0.74112 0.0
C362 C 0.56093 0.78821 0.7044 0.0
C363 C 0.48853 0.8589 0.69385 0.0
C364 C 0.46027 0.84617 0.72868 0.0
C365 C 0.43888 0.90989 0.7391 0.0
H366 H 0.75883 0.16479 0.82449 0.0
C367 C 0.53056 0.94788 0.69135 0.0
C368 C 0.51015 0.98003 0.72155 0.0
H369 H 0.52054 1.13179 0.84876 0.0
H370 H 0.47426 1.08048 0.78846 0.0
H371 H 0.70955 1.01053 0.75373 0.0
H372 H 0.81468 0.24132 0.77338 0.0
H373 H 0.74866 0.2532 0.74229 0.0
H374 H 0.82296 0.22595 0.72731 0.0
H375 H 0.79963 1.09347 0.77438 0.0
H376 H 0.78941 1.08139 0.72643 0.0
C377 C 0.42634 0.91433 0.77961 0.0
C378 C 0.35877 0.89228 0.71954 0.0
C379 C 0.75513 1.09474 0.60342 0.0
C380 C 0.81108 0.1772 0.60145 0.0
C381 C 0.8163 0.23129 0.62885 0.0
C382 C 0.76832 0.20223 0.65898 0.0
C383 C 0.71791 1.11904 0.66162 0.0
C384 C 0.70762 1.06706 0.63348 0.0
C385 C 0.63855 0.98292 0.63896 0.0
C386 C 0.60306 0.99766 0.67299 0.0
C387 C 0.65501 1.07494 0.68676 0.0
C388 C 0.67732 0.92891 0.64384 0.0
C389 C 0.57674 0.95389 0.60731 0.0
C390 C 0.69502 1.14174 0.81829 0.0
C391 C 0.64386 0.15004 0.84305 0.0
C392 C 0.56159 1.12246 0.83215 0.0
C393 C 0.53318 1.09112 0.79763 0.0
C394 C 0.58427 1.08038 0.77466 0.0
C395 C 0.66547 1.11317 0.78354 0.0
C396 C 0.71462 1.12713 0.75061 0.0
C397 C 0.64721 1.09653 0.72169 0.0
C398 C 0.57078 1.05559 0.73706 0.0
C399 C 0.7558 1.07509 0.75135 0.0
C400 C 0.77839 0.21705 0.74807 0.0
H401 H 0.51979 0.8008 0.65219 0.0
H402 H 0.49447 0.8279 0.78125 0.0
H403 H 0.3612 0.88602 0.69005 0.0
H404 H 0.34593 0.94213 0.72504 0.0
H405 H 0.30678 0.83543 0.72882 0.0
H406 H 0.38075 0.85379 0.78831 0.0
H407 H 0.39844 0.95185 0.78574 0.0
H408 H 0.48273 0.93444 0.79593 0.0
H409 H 0.745 1.05368 0.58105 0.0
H410 H 0.85401 0.29568 0.62601 0.0
H411 H 0.76669 0.24431 0.67814 0.0
H412 H 0.73573 0.95204 0.62981 0.0
H413 H 0.63914 0.86767 0.63194 0.0
H414 H 0.69099 0.92603 0.67246 0.0
H415 H 0.55683 0.99852 0.60212 0.0
H416 H 0.52197 0.89577 0.613 0.0
H417 H 0.60377 0.94513 0.58263 0.0
H418 H 0.59795 0.76435 0.69399 0.0
C419 C 0.52004 0.81179 0.68054 0.0
C420 C 0.80461 0.58321 0.16363 0.0
C421 C 0.8885 0.62842 0.15831 0.0
C422 C 0.92365 0.60488 0.13098 0.0
C423 C 0.79016 0.51241 0.10751 0.0
C424 C 0.75634 0.52251 0.13813 0.0
C425 C 0.66532 0.47131 0.13637 0.0
H426 H 0.36695 0.43313 0.07702 0.0
C427 C 0.72604 0.46966 0.08041 0.0
C428 C 0.65211 0.43388 0.0983 0.0
H429 H 0.38869 0.30435 0.16604 0.0
H430 H 0.49588 0.29207 0.13464 0.0
H431 H 0.53085 0.55065 0.06692 0.0
H432 H 0.41425 0.31758 0.01289 0.0
H433 H 0.49147 0.38364 0.98501 0.0
H434 H 0.40821 0.40077 0.99528 0.0
H435 H 0.45189 0.51924 0.03297 0.0
H436 H 0.5559 0.56177 0.02142 0.0
C437 C 0.62746 0.52634 0.14052 0.0
C438 C 0.63809 0.4092 0.16608 0.0
C439 C 0.79661 0.61156 0.96259 0.0
C440 C 0.74933 0.62219 0.9367 0.0
C441 C 0.66445 0.58422 0.94017 0.0
C442 C 0.62698 0.53562 0.96911 0.0
C443 C 0.67523 0.52678 0.99528 0.0
C444 C 0.75862 0.56493 0.99199 0.0
C445 C 0.80042 0.54974 0.02263 0.0
C446 C 0.72724 0.49426 0.04474 0.0
C447 C 0.65433 0.48092 0.02812 0.0
C448 C 0.85989 0.6323 0.04144 0.0
C449 C 0.84405 0.5054 0.00821 0.0
C450 C 0.39111 0.39856 0.0893 0.0
C451 C 0.37548 0.37652 0.12539 0.0
C452 C 0.40408 0.32688 0.13935 0.0
C453 C 0.46686 0.32208 0.1223 0.0
C454 C 0.49739 0.3658 0.09158 0.0
C455 C 0.45417 0.39325 0.07266 0.0
C456 C 0.49875 0.43514 0.03953 0.0
C457 C 0.57937 0.43651 0.04551 0.0
C458 C 0.57883 0.40171 0.07795 0.0
C459 C 0.50999 0.52118 0.03992 0.0
C460 C 0.45083 0.3822 0.00631 0.0
H461 H 0.9015 0.53083 0.08378 0.0
H462 H 0.77726 0.59916 0.18521 0.0
H463 H 0.67815 0.43446 0.1904 0.0
H464 H 0.63931 0.35423 0.15693 0.0
H465 H 0.57624 0.39197 0.17508 0.0
H466 H 0.65049 0.57311 0.11997 0.0
H467 H 0.64195 0.55679 0.16738 0.0
H468 H 0.56046 0.49165 0.13762 0.0
H469 H 0.86166 0.6378 0.95959 0.0
H470 H 0.62642 0.58763 0.91939 0.0
H471 H 0.56197 0.50657 0.97 0.0
H472 H 0.88037 0.68343 0.02324 0.0
H473 H 0.91711 0.63542 0.05067 0.0
H474 H 0.83095 0.64582 0.06417 0.0
H475 H 0.80287 0.45418 0.98984 0.0
H476 H 0.86314 0.47985 0.02996 0.0
H477 H 0.89879 0.54684 0.99328 0.0
H478 H 0.98881 0.63777 0.12736 0.0
C479 C 0.87413 0.54582 0.10544 0.0
loop_
_geom_bond_atom_site_label_1
_geom_bond_atom_site_label_2
_geom_bond_distance
_geom_bond_site_symmetry_2
_ccdc_geom_bond_type
Tb0 C10 2.825 . S
Tb0 O11 2.347 . S
Tb0 O14 2.366 . S
Tb0 O19 2.418 . S
Tb0 O20 2.384 1_455 S
Tb0 O23 2.479 . S
Tb0 O24 2.471 . S
Eu1 O12 2.418 . S
Eu1 O13 2.384 1_655 S
Eu1 O16 2.479 . S
Eu1 O17 2.471 . S
Eu1 O18 2.347 1_655 S
Eu1 O21 2.366 . S
Eu1 C31 2.825 . S
C2 O18 1.259 . S
C2 O19 1.265 . S
C3 O20 1.255 . S
C3 O21 1.265 . S
C4 C6 1.380 . S
C4 C7 1.374 . S
C4 C10 1.507 . S
C5 C6 1.384 . S
C5 C9 1.387 . S
C5 H32 0.930 . S
C6 C4 1.380 . S
C6 C5 1.384 . S
C6 H33 0.931 . S
C7 C4 1.374 . S
C7 C8 1.390 . S
C7 H34 0.930 . S
C8 C7 1.390 . S
C8 C9 1.391 . S
C8 H35 0.930 . S
C9 C5 1.387 . S
C9 C8 1.391 . S
C10 Tb0 2.825 . S
C10 C4 1.507 . S
C10 O23 1.238 . S
C10 O24 1.247 . S
O11 Tb0 2.347 . S
O11 C15 1.259 . S
O12 Eu1 2.418 . S
O12 C15 1.265 1_655 S
O13 Eu1 2.384 1_455 S
O13 C22 1.255 . S
O14 Tb0 2.366 . S
O14 C22 1.265 . S
C15 O11 1.259 . S
C15 O12 1.265 1_455 S
O16 Eu1 2.479 . S
O16 C31 1.238 . S
O17 Eu1 2.471 . S
O17 C31 1.247 . S
O18 Eu1 2.347 1_455 S
O18 C2 1.259 . S
O19 Tb0 2.418 . S
O19 C2 1.265 . S
O20 Tb0 2.384 1_655 S
O20 C3 1.255 . S
O21 Eu1 2.366 . S
O21 C3 1.265 . S
C22 O13 1.255 . S
C22 O14 1.265 . S
O23 Tb0 2.479 . S
O23 C10 1.238 . S
O24 Tb0 2.471 . S
O24 C10 1.247 . S
C25 C28 1.380 . S
C25 C29 1.374 . S
C25 C31 1.507 . S
C26 C27 1.387 . S
C26 C30 1.391 . S
C27 C26 1.387 . S
C27 C28 1.384 . S
C27 H36 0.930 . S
C28 C25 1.380 . S
C28 C27 1.384 . S
C28 H37 0.931 . S
C29 C25 1.374 . S
C29 C30 1.390 . S
C29 H38 0.930 . S
C30 C26 1.391 . S
C30 C29 1.390 . S
C30 H39 0.930 . S
C31 Eu1 2.825 . S
C31 O16 1.238 . S
C31 O17 1.247 . S
C31 C25 1.507 . S
H32 C5 0.930 . S
H33 C6 0.931 . S
H34 C7 0.930 . S
H35 C8 0.930 . S
H36 C27 0.930 . S
H37 C28 0.931 . S
H38 C29 0.930 . S
H39 C30 0.930 . S
Tb40 C50 2.825 . S
Tb40 O51 2.347 . S
Tb40 O54 2.366 . S
Tb40 O59 2.418 . S
Tb40 O60 2.384 1_545 S
Tb40 O63 2.479 . S
Tb40 O64 2.471 . S
Eu41 O52 2.418 . S
Eu41 O53 2.384 . S
Eu41 O56 2.479 1_545 S
Eu41 O57 2.471 1_545 S
Eu41 O58 2.347 . S
Eu41 O61 2.366 1_545 S
Eu41 C71 2.825 1_545 S
C42 O58 1.259 . S
C42 O59 1.265 . S
C43 O60 1.255 . S
C43 O61 1.265 . S
C44 C46 1.380 . S
C44 C47 1.374 . S
C44 C50 1.507 . S
C45 C46 1.384 . S
C45 C49 1.387 . S
C45 H72 0.930 . S
C46 C44 1.380 . S
C46 C45 1.384 . S
C46 H73 0.931 . S
C47 C44 1.374 . S
C47 C48 1.390 . S
C47 H74 0.930 . S
C48 C47 1.390 . S
C48 C49 1.391 . S
C48 H75 0.930 . S
C49 C45 1.387 . S
C49 C48 1.391 . S
C50 Tb40 2.825 . S
C50 C44 1.507 . S
C50 O63 1.238 . S
C50 O64 1.247 . S
O51 Tb40 2.347 . S
O51 C55 1.259 . S
O52 Eu41 2.418 . S
O52 C55 1.265 . S
O53 Eu41 2.384 . S
O53 C62 1.255 . S
O54 Tb40 2.366 . S
O54 C62 1.265 . S
C55 O51 1.259 . S
C55 O52 1.265 . S
O56 Eu41 2.479 1_565 S
O56 C71 1.238 . S
O57 Eu41 2.471 1_565 S
O57 C71 1.247 . S
O58 Eu41 2.347 . S
O58 C42 1.259 . S
O59 Tb40 2.418 . S
O59 C42 1.265 . S
O60 Tb40 2.384 1_565 S
O60 C43 1.255 . S
O61 Eu41 2.366 1_565 S
O61 C43 1.265 . S
C62 O53 1.255 . S
C62 O54 1.265 . S
O63 Tb40 2.479 . S
O63 C50 1.238 . S
O64 Tb40 2.471 . S
O64 C50 1.247 . S
C65 C68 1.380 . S
C65 C69 1.374 . S
C65 C71 1.507 . S
C66 C67 1.387 . S
C66 C70 1.391 . S
C67 C66 1.387 . S
C67 C68 1.384 . S
C67 H76 0.930 . S
C68 C65 1.380 . S
C68 C67 1.384 . S
C68 H77 0.931 . S
C69 C65 1.374 . S
C69 C70 1.390 . S
C69 H78 0.930 . S
C70 C66 1.391 . S
C70 C69 1.390 . S
C70 H79 0.930 . S
C71 Eu41 2.825 1_565 S
C71 O56 1.238 . S
C71 O57 1.247 . S
C71 C65 1.507 . S
H72 C45 0.930 . S
H73 C46 0.931 . S
H74 C47 0.930 . S
H75 C48 0.930 . S
H76 C67 0.930 . S
H77 C68 0.931 . S
H78 C69 0.930 . S
H79 C70 0.930 . S
Tb80 C90 2.825 . S
Tb80 O91 2.347 . S
Tb80 O94 2.366 . S
Tb80 O99 2.418 . S
Tb80 O100 2.384 . S
Tb80 O103 2.479 . S
Tb80 O104 2.471 . S
Eu81 O92 2.418 . S
Eu81 O93 2.384 . S
Eu81 O96 2.479 . S
Eu81 O97 2.471 . S
Eu81 O98 2.347 . S
Eu81 O101 2.366 . S
Eu81 C111 2.825 . S
C82 O98 1.259 . S
C82 O99 1.265 . S
C83 O100 1.255 . S
C83 O101 1.265 . S
C84 C86 1.380 . S
C84 C87 1.374 . S
C84 C90 1.507 . S
C85 C86 1.384 . S
C85 C89 1.387 . S
C85 H112 0.930 . S
C86 C84 1.380 . S
C86 C85 1.384 . S
C86 H113 0.931 . S
C87 C84 1.374 . S
C87 C88 1.390 . S
C87 H114 0.930 . S
C88 C87 1.390 . S
C88 C89 1.391 . S
C88 H115 0.930 . S
C89 C85 1.387 . S
C89 C88 1.391 . S
C90 Tb80 2.825 . S
C90 C84 1.507 . S
C90 O103 1.238 . S
C90 O104 1.247 . S
O91 Tb80 2.347 . S
O91 C95 1.259 . S
O92 Eu81 2.418 . S
O92 C95 1.265 . S
O93 Eu81 2.384 . S
O93 C102 1.255 . S
O94 Tb80 2.366 . S
O94 C102 1.265 . S
C95 O91 1.259 . S
C95 O92 1.265 . S
O96 Eu81 2.479 . S
O96 C111 1.238 . S
O97 Eu81 2.471 . S
O97 C111 1.247 . S
O98 Eu81 2.347 . S
O98 C82 1.259 . S
O99 Tb80 2.418 . S
O99 C82 1.265 . S
O100 Tb80 2.384 . S
O100 C83 1.255 . S
O101 Eu81 2.366 . S
O101 C83 1.265 . S
C102 O93 1.255 . S
C102 O94 1.265 . S
O103 Tb80 2.479 . S
O103 C90 1.238 . S
O104 Tb80 2.471 . S
O104 C90 1.247 . S
C105 C108 1.380 . S
C105 C109 1.374 . S
C105 C111 1.507 . S
C106 C107 1.387 . S
C106 C110 1.391 . S
C107 C106 1.387 . S
C107 C108 1.384 . S
C107 H116 0.930 . S
C108 C105 1.380 . S
C108 C107 1.384 . S
C108 H117 0.931 . S
C109 C105 1.374 . S
C109 C110 1.390 . S
C109 H118 0.930 . S
C110 C106 1.391 . S
C110 C109 1.390 . S
C110 H119 0.930 . S
C111 Eu81 2.825 . S
C111 O96 1.238 . S
C111 O97 1.247 . S
C111 C105 1.507 . S
H112 C85 0.930 . S
H113 C86 0.931 . S
H114 C87 0.930 . S
H115 C88 0.930 . S
H116 C107 0.930 . S
H117 C108 0.931 . S
H118 C109 0.930 . S
H119 C110 0.930 . S
C120 C121 1.391 . S
C120 C124 1.391 . S
C120 H162 0.948 . S
C121 C120 1.391 . S
C121 C122 1.391 . S
C122 C121 1.391 . S
C122 H178 0.947 . S
C122 C179 1.392 . S
C123 C124 1.391 . S
C123 C127 1.397 . S
C123 C179 1.419 . S
C124 C120 1.391 . S
C124 C123 1.391 . S
C124 C125 1.399 . S
C125 C124 1.399 . S
C125 C128 1.396 . S
C125 C137 1.453 . S
C125 C138 1.684 . S
H126 C150 0.948 . S
C127 C123 1.397 . S
C127 C128 1.394 . S
C127 C146 1.723 . S
C128 C125 1.396 . S
C128 C127 1.394 . S
C128 C158 1.723 1_545 S
H129 C152 0.947 . S
H130 C153 0.948 . S
H131 C159 0.982 . S
H132 C160 0.979 . S
H133 C160 0.980 . S
H134 C160 0.983 . S
H135 C159 0.979 . S
H136 C159 0.977 . S
C137 C125 1.453 . S
C137 H166 0.982 . S
C137 H167 0.979 . S
C137 H168 0.977 1_545 S
C138 C125 1.684 . S
C138 H163 0.979 . S
C138 H164 0.980 . S
C138 H165 0.983 . S
C139 C140 1.391 . S
C139 C144 1.391 . S
C139 H169 0.948 . S
C140 C139 1.391 . S
C140 C141 1.391 1_545 S
C141 C140 1.391 1_565 S
C141 C142 1.392 . S
C141 H170 0.947 . S
C142 C141 1.392 . S
C142 C143 1.419 1_565 S
C142 H171 0.948 . S
C143 C142 1.419 1_545 S
C143 C144 1.391 . S
C143 C147 1.397 . S
C144 C139 1.391 . S
C144 C143 1.391 . S
C144 C145 1.399 . S
C145 C144 1.399 . S
C145 C146 1.396 . S
C145 C148 1.453 . S
C145 C149 1.684 . S
C146 C127 1.723 . S
C146 C145 1.396 . S
C146 C147 1.394 . S
C147 C143 1.397 . S
C147 C146 1.394 . S
C147 C157 1.723 1_545 S
C148 C145 1.453 . S
C148 H172 0.982 . S
C148 H173 0.979 . S
C148 H174 0.977 . S
C149 C145 1.684 . S
C149 H175 0.979 . S
C149 H176 0.980 . S
C149 H177 0.983 . S
C150 H126 0.948 . S
C150 C151 1.391 . S
C150 C155 1.391 . S
C151 C150 1.391 . S
C151 C152 1.391 . S
C152 H129 0.947 . S
C152 C151 1.391 . S
C152 C153 1.392 . S
C153 H130 0.948 . S
C153 C152 1.392 . S
C153 C154 1.419 . S
C154 C153 1.419 . S
C154 C155 1.391 . S
C154 C158 1.397 . S
C155 C150 1.391 . S
C155 C154 1.391 . S
C155 C156 1.399 . S
C156 C155 1.399 . S
C156 C157 1.396 . S
C156 C159 1.453 . S
C156 C160 1.684 . S
C157 C147 1.723 1_565 S
C157 C156 1.396 . S
C157 C158 1.394 . S
C158 C128 1.723 1_565 S
C158 C154 1.397 . S
C158 C157 1.394 . S
C159 H131 0.982 . S
C159 H135 0.979 . S
C159 H136 0.977 . S
C159 C156 1.453 . S
C160 H132 0.979 . S
C160 H133 0.980 . S
C160 H134 0.983 . S
C160 C156 1.684 . S
H161 C179 0.948 . S
H162 C120 0.948 . S
H163 C138 0.979 . S
H164 C138 0.980 . S
H165 C138 0.983 . S
H166 C137 0.982 . S
H167 C137 0.979 . S
H168 C137 0.977 1_565 S
H169 C139 0.948 . S
H170 C141 0.947 . S
H171 C142 0.948 . S
H172 C148 0.982 . S
H173 C148 0.979 . S
H174 C148 0.977 . S
H175 C149 0.979 . S
H176 C149 0.980 . S
H177 C149 0.983 . S
H178 C122 0.947 . S
C179 C122 1.392 . S
C179 C123 1.419 . S
C179 H161 0.948 . S
C180 C181 1.391 . S
C180 C184 1.391 . S
C180 H222 0.948 . S
C181 C180 1.391 . S
C181 C182 1.391 . S
C182 C181 1.391 . S
C182 H238 0.947 . S
C182 C239 1.392 . S
C183 C184 1.391 . S
C183 C187 1.397 . S
C183 C239 1.419 . S
C184 C180 1.391 . S
C184 C183 1.391 . S
C184 C185 1.399 . S
C185 C184 1.399 . S
C185 C188 1.396 . S
C185 C197 1.453 . S
C185 C198 1.684 . S
H186 C210 0.948 . S
C187 C183 1.397 . S
C187 C188 1.394 . S
C187 C206 1.723 . S
C188 C185 1.396 . S
C188 C187 1.394 . S
C188 C218 1.723 . S
H189 C212 0.947 . S
H190 C213 0.948 . S
H191 C219 0.982 . S
H192 C220 0.979 . S
H193 C220 0.980 . S
H194 C220 0.983 . S
H195 C219 0.979 . S
H196 C219 0.977 . S
C197 C185 1.453 . S
C197 H226 0.982 . S
C197 H227 0.979 . S
C197 H228 0.977 . S
C198 C185 1.684 . S
C198 H223 0.979 . S
C198 H224 0.980 . S
C198 H225 0.983 . S
C199 C200 1.391 . S
C199 C204 1.391 . S
C199 H229 0.948 . S
C200 C199 1.391 . S
C200 C201 1.391 . S
C201 C200 1.391 . S
C201 C202 1.392 . S
C201 H230 0.947 . S
C202 C201 1.392 . S
C202 C203 1.419 . S
C202 H231 0.948 . S
C203 C202 1.419 . S
C203 C204 1.391 . S
C203 C207 1.397 . S
C204 C199 1.391 . S
C204 C203 1.391 . S
C204 C205 1.399 . S
C205 C204 1.399 . S
C205 C206 1.396 . S
C205 C208 1.453 . S
C205 C209 1.684 . S
C206 C187 1.723 . S
C206 C205 1.396 . S
C206 C207 1.394 . S
C207 C203 1.397 . S
C207 C206 1.394 . S
C207 C217 1.723 . S
C208 C205 1.453 . S
C208 H232 0.982 . S
C208 H233 0.979 . S
C208 H234 0.977 . S
C209 C205 1.684 . S
C209 H235 0.979 . S
C209 H236 0.980 . S
C209 H237 0.983 . S
C210 H186 0.948 . S
C210 C211 1.391 . S
C210 C215 1.391 . S
C211 C210 1.391 . S
C211 C212 1.391 . S
C212 H189 0.947 . S
C212 C211 1.391 . S
C212 C213 1.392 . S
C213 H190 0.948 . S
C213 C212 1.392 . S
C213 C214 1.419 . S
C214 C213 1.419 . S
C214 C215 1.391 . S
C214 C218 1.397 . S
C215 C210 1.391 . S
C215 C214 1.391 . S
C215 C216 1.399 . S
C216 C215 1.399 . S
C216 C217 1.396 . S
C216 C219 1.453 . S
C216 C220 1.684 . S
C217 C207 1.723 . S
C217 C216 1.396 . S
C217 C218 1.394 . S
C218 C188 1.723 . S
C218 C214 1.397 . S
C218 C217 1.394 . S
C219 H191 0.982 . S
C219 H195 0.979 . S
C219 H196 0.977 . S
C219 C216 1.453 . S
C220 H192 0.979 . S
C220 H193 0.980 . S
C220 H194 0.983 . S
C220 C216 1.684 . S
H221 C239 0.948 . S
H222 C180 0.948 . S
H223 C198 0.979 . S
H224 C198 0.980 . S
H225 C198 0.983 . S
H226 C197 0.982 . S
H227 C197 0.979 . S
H228 C197 0.977 . S
H229 C199 0.948 . S
H230 C201 0.947 . S
H231 C202 0.948 . S
H232 C208 0.982 . S
H233 C208 0.979 . S
H234 C208 0.977 . S
H235 C209 0.979 . S
H236 C209 0.980 . S
H237 C209 0.983 . S
H238 C182 0.947 . S
C239 C182 1.392 . S
C239 C183 1.419 . S
C239 H221 0.948 . S
C240 C241 1.391 . S
C240 C244 1.391 . S
C240 H282 0.948 . S
C241 C240 1.391 . S
C241 C242 1.391 . S
C242 C241 1.391 . S
C242 H298 0.947 . S
C242 C299 1.392 . S
C243 C244 1.391 . S
C243 C247 1.397 . S
C243 C299 1.419 . S
C244 C240 1.391 . S
C244 C243 1.391 . S
C244 C245 1.399 . S
C245 C244 1.399 . S
C245 C248 1.396 . S
C245 C257 1.453 . S
C245 C258 1.684 . S
H246 C270 0.948 . S
C247 C243 1.397 . S
C247 C248 1.394 . S
C247 C266 1.723 . S
C248 C245 1.396 . S
C248 C247 1.394 . S
C248 C278 1.723 1_455 S
H249 C272 0.947 . S
H250 C273 0.948 . S
H251 C279 0.982 . S
H252 C280 0.979 . S
H253 C280 0.980 . S
H254 C280 0.983 . S
H255 C279 0.979 . S
H256 C279 0.977 . S
C257 C245 1.453 . S
C257 H286 0.982 . S
C257 H287 0.979 . S
C257 H288 0.977 . S
C258 C245 1.684 . S
C258 H283 0.979 . S
C258 H284 0.980 . S
C258 H285 0.983 . S
C259 C260 1.391 . S
C259 C264 1.416 . S
C259 H289 0.948 . S
C260 C259 1.391 . S
C260 C261 1.391 1_455 S
C261 C260 1.391 1_655 S
C261 C262 1.392 . S
C261 H290 0.947 . S
C262 C261 1.392 . S
C262 C263 1.419 1_654 S
C262 H291 0.948 1_554 S
C263 C262 1.419 1_456 S
C263 C264 1.382 1_556 S
C263 C267 1.397 . S
C264 C259 1.416 . S
C264 C263 1.382 1_554 S
C264 C265 1.381 1_554 S
C265 C264 1.381 1_556 S
C265 C266 1.396 . S
C265 C268 1.453 . S
C265 C269 1.684 . S
C266 C247 1.723 . S
C266 C265 1.396 . S
C266 C267 1.394 . S
C267 C263 1.397 . S
C267 C266 1.394 . S
C267 C277 1.723 1_455 S
C268 C265 1.453 . S
C268 H292 0.982 . S
C268 H293 0.979 . S
C268 H294 0.977 . S
C269 C265 1.684 . S
C269 H295 0.979 . S
C269 H296 0.980 . S
C269 H297 0.983 1_556 S
C270 H246 0.948 . S
C270 C271 1.391 . S
C270 C275 1.391 . S
C271 C270 1.391 . S
C271 C272 1.391 . S
C272 H249 0.947 . S
C272 C271 1.391 . S
C272 C273 1.392 . S
C273 H250 0.948 . S
C273 C272 1.392 . S
C273 C274 1.419 . S
C274 C273 1.419 . S
C274 C275 1.391 . S
C274 C278 1.397 . S
C275 C270 1.391 . S
C275 C274 1.391 . S
C275 C276 1.399 . S
C276 C275 1.399 . S
C276 C277 1.396 . S
C276 C279 1.453 . S
C276 C280 1.684 . S
C277 C267 1.723 1_655 S
C277 C276 1.396 . S
C277 C278 1.394 . S
C278 C248 1.723 1_655 S
C278 C274 1.397 . S
C278 C277 1.394 . S
C279 H251 0.982 . S
C279 H255 0.979 . S
C279 H256 0.977 . S
C279 C276 1.453 . S
C280 H252 0.979 . S
C280 H253 0.980 . S
C280 H254 0.983 . S
C280 C276 1.684 . S
H281 C299 0.948 . S
H282 C240 0.948 . S
H283 C258 0.979 . S
H284 C258 0.980 . S
H285 C258 0.983 . S
H286 C257 0.982 . S
H287 C257 0.979 . S
H288 C257 0.977 . S
H289 C259 0.948 . S
H290 C261 0.947 . S
H291 C262 0.948 1_556 S
H292 C268 0.982 . S
H293 C268 0.979 . S
H294 C268 0.977 . S
H295 C269 0.979 . S
H296 C269 0.980 . S
H297 C269 0.983 1_554 S
H298 C242 0.947 . S
C299 C242 1.392 . S
C299 C243 1.419 . S
C299 H281 0.948 . S
C300 C301 1.391 . S
C300 C304 1.391 . S
C300 H342 0.948 . S
C301 C300 1.391 . S
C301 C302 1.391 . S
C302 C301 1.391 . S
C302 H358 0.947 . S
C302 C359 1.392 . S
C303 C304 1.391 . S
C303 C307 1.397 . S
C303 C359 1.419 . S
C304 C300 1.391 . S
C304 C303 1.391 . S
C304 C305 1.399 . S
C305 C304 1.399 . S
C305 C308 1.396 . S
C305 C317 1.456 . S
C305 C318 1.684 . S
H306 C330 0.948 . S
C307 C303 1.397 . S
C307 C308 1.394 . S
C307 C326 1.723 . S
C308 C305 1.396 . S
C308 C307 1.394 . S
C308 C338 1.723 1_655 S
H309 C332 0.947 . S
H310 C333 0.948 . S
H311 C339 0.982 . S
H312 C340 0.979 . S
H313 C340 0.980 . S
H314 C340 0.983 . S
H315 C339 0.979 . S
H316 C339 0.977 . S
C317 C305 1.456 . S
C317 H346 0.979 1_655 S
C317 H347 0.980 . S
C317 H348 0.975 1_655 S
C318 C305 1.684 . S
C318 H343 0.979 . S
C318 H344 0.980 . S
C318 H345 0.983 . S
C319 C320 1.391 1_655 S
C319 C324 1.391 . S
C319 H349 0.948 . S
C320 C319 1.391 1_455 S
C320 C321 1.391 . S
C321 C320 1.391 . S
C321 C322 1.392 . S
C321 H350 0.947 . S
C322 C321 1.392 . S
C322 C323 1.419 . S
C322 H351 0.948 . S
C323 C322 1.419 . S
C323 C324 1.391 1_455 S
C323 C327 1.397 . S
C324 C319 1.391 . S
C324 C323 1.391 1_655 S
C324 C325 1.399 . S
C325 C324 1.399 . S
C325 C326 1.396 . S
C325 C328 1.453 . S
C325 C329 1.684 . S
C326 C307 1.723 . S
C326 C325 1.396 . S
C326 C327 1.394 1_655 S
C327 C323 1.397 . S
C327 C326 1.394 1_455 S
C327 C337 1.723 . S
C328 C325 1.453 . S
C328 H352 0.982 . S
C328 H353 0.979 . S
C328 H354 0.977 . S
C329 C325 1.684 . S
C329 H355 0.979 . S
C329 H356 0.980 . S
C329 H357 0.983 . S
C330 H306 0.948 . S
C330 C331 1.391 . S
C330 C335 1.391 . S
C331 C330 1.391 . S
C331 C332 1.391 . S
C332 H309 0.947 . S
C332 C331 1.391 . S
C332 C333 1.392 . S
C333 H310 0.948 . S
C333 C332 1.392 . S
C333 C334 1.419 . S
C334 C333 1.419 . S
C334 C335 1.391 . S
C334 C338 1.397 . S
C335 C330 1.391 . S
C335 C334 1.391 . S
C335 C336 1.399 . S
C336 C335 1.399 . S
C336 C337 1.396 . S
C336 C339 1.453 . S
C336 C340 1.684 . S
C337 C327 1.723 . S
C337 C336 1.396 . S
C337 C338 1.394 . S
C338 C308 1.723 1_455 S
C338 C334 1.397 . S
C338 C337 1.394 . S
C339 H311 0.982 . S
C339 H315 0.979 . S
C339 H316 0.977 . S
C339 C336 1.453 . S
C340 H312 0.979 . S
C340 H313 0.980 . S
C340 H314 0.983 . S
C340 C336 1.684 . S
H341 C359 0.948 . S
H342 C300 0.948 . S
H343 C318 0.979 . S
H344 C318 0.980 . S
H345 C318 0.983 . S
H346 C317 0.979 1_455 S
H347 C317 0.980 . S
H348 C317 0.975 1_455 S
H349 C319 0.948 . S
H350 C321 0.947 . S
H351 C322 0.948 . S
H352 C328 0.982 . S
H353 C328 0.979 . S
H354 C328 0.977 . S
H355 C329 0.979 . S
H356 C329 0.980 . S
H357 C329 0.983 . S
H358 C302 0.947 . S
C359 C302 1.392 . S
C359 C303 1.419 . S
C359 H341 0.948 . S
C360 C361 1.391 . S
C360 C364 1.391 . S
C360 H402 0.948 . S
C361 C360 1.391 . S
C361 C362 1.391 . S
C362 C361 1.391 . S
C362 H418 0.947 . S
C362 C419 1.392 . S
C363 C364 1.391 . S
C363 C367 1.397 . S
C363 C419 1.419 . S
C364 C360 1.391 . S
C364 C363 1.391 . S
C364 C365 1.399 . S
C365 C364 1.399 . S
C365 C368 1.396 . S
C365 C377 1.453 . S
C365 C378 1.684 . S
H366 C390 0.948 . S
C367 C363 1.397 . S
C367 C368 1.394 . S
C367 C386 1.723 . S
C368 C365 1.396 . S
C368 C367 1.394 . S
C368 C398 1.723 1_565 S
H369 C392 0.947 . S
H370 C393 0.948 . S
H371 C399 0.982 . S
H372 C400 0.979 . S
H373 C400 0.980 . S
H374 C400 0.983 . S
H375 C399 0.979 . S
H376 C399 0.977 . S
C377 C365 1.453 . S
C377 H406 0.982 1_565 S
C377 H407 0.979 . S
C377 H408 0.977 1_565 S
C378 C365 1.684 . S
C378 H403 0.979 . S
C378 H404 0.980 . S
C378 H405 0.983 . S
C379 C380 1.391 1_565 S
C379 C384 1.391 . S
C379 H409 0.948 . S
C380 C379 1.391 1_545 S
C380 C381 1.391 . S
C381 C380 1.391 . S
C381 C382 1.392 . S
C381 H410 0.947 . S
C382 C381 1.392 . S
C382 C383 1.419 . S
C382 H411 0.948 . S
C383 C382 1.419 . S
C383 C384 1.391 1_545 S
C383 C387 1.397 . S
C384 C379 1.391 . S
C384 C383 1.391 1_565 S
C384 C385 1.399 . S
C385 C384 1.399 . S
C385 C386 1.396 . S
C385 C388 1.453 . S
C385 C389 1.684 . S
C386 C367 1.723 . S
C386 C385 1.396 . S
C386 C387 1.394 1_565 S
C387 C383 1.397 . S
C387 C386 1.394 1_545 S
C387 C397 1.723 . S
C388 C385 1.453 . S
C388 H412 0.982 . S
C388 H413 0.979 . S
C388 H414 0.977 . S
C389 C385 1.684 . S
C389 H415 0.979 . S
C389 H416 0.980 . S
C389 H417 0.983 . S
C390 H366 0.948 . S
C390 C391 1.391 . S
C390 C395 1.391 . S
C391 C390 1.391 . S
C391 C392 1.391 . S
C392 H369 0.947 . S
C392 C391 1.391 . S
C392 C393 1.392 . S
C393 H370 0.948 . S
C393 C392 1.392 . S
C393 C394 1.419 . S
C394 C393 1.419 . S
C394 C395 1.391 . S
C394 C398 1.397 . S
C395 C390 1.391 . S
C395 C394 1.391 . S
C395 C396 1.399 . S
C396 C395 1.399 . S
C396 C397 1.396 . S
C396 C399 1.453 . S
C396 C400 1.684 . S
C397 C387 1.723 . S
C397 C396 1.396 . S
C397 C398 1.394 . S
C398 C368 1.723 1_545 S
C398 C394 1.397 . S
C398 C397 1.394 . S
C399 H371 0.982 . S
C399 H375 0.979 . S
C399 H376 0.977 . S
C399 C396 1.453 . S
C400 H372 0.979 . S
C400 H373 0.980 . S
C400 H374 0.983 . S
C400 C396 1.684 . S
H401 C419 0.948 . S
H402 C360 0.948 . S
H403 C378 0.979 . S
H404 C378 0.980 . S
H405 C378 0.983 . S
H406 C377 0.982 1_545 S
H407 C377 0.979 . S
H408 C377 0.977 1_545 S
H409 C379 0.948 . S
H410 C381 0.947 . S
H411 C382 0.948 . S
H412 C388 0.982 . S
H413 C388 0.979 . S
H414 C388 0.977 . S
H415 C389 0.979 . S
H416 C389 0.980 . S
H417 C389 0.983 . S
H418 C362 0.947 . S
C419 C362 1.392 . S
C419 C363 1.419 . S
C419 H401 0.948 . S
C420 C421 1.391 . S
C420 C424 1.391 . S
C420 H462 0.948 . S
C421 C420 1.391 . S
C421 C422 1.391 . S
C422 C421 1.391 . S
C422 H478 0.947 . S
C422 C479 1.392 . S
C423 C424 1.391 . S
C423 C427 1.397 . S
C423 C479 1.419 . S
C424 C420 1.391 . S
C424 C423 1.391 . S
C424 C425 1.399 . S
C425 C424 1.399 . S
C425 C428 1.396 . S
C425 C437 1.453 . S
C425 C438 1.684 . S
H426 C450 0.948 . S
C427 C423 1.397 . S
C427 C428 1.394 . S
C427 C446 1.723 . S
C428 C425 1.396 . S
C428 C427 1.394 . S
C428 C458 1.723 . S
H429 C452 0.947 . S
H430 C453 0.948 . S
H431 C459 0.982 . S
H432 C460 0.979 . S
H433 C460 0.980 . S
H434 C460 0.983 . S
H435 C459 0.979 . S
H436 C459 0.977 . S
C437 C425 1.453 . S
C437 H466 0.982 . S
C437 H467 0.979 . S
C437 H468 0.977 . S
C438 C425 1.684 . S
C438 H463 0.979 . S
C438 H464 0.980 . S
C438 H465 0.983 . S
C439 C440 1.391 . S
C439 C444 1.391 . S
C439 H469 0.948 . S
C440 C439 1.391 . S
C440 C441 1.391 . S
C441 C440 1.391 . S
C441 C442 1.392 . S
C441 H470 0.947 . S
C442 C441 1.392 . S
C442 C443 1.419 . S
C442 H471 0.948 . S
C443 C442 1.419 . S
C443 C444 1.391 . S
C443 C447 1.397 1_556 S
C444 C439 1.391 . S
C444 C443 1.391 . S
C444 C445 1.399 1_556 S
C445 C444 1.399 1_554 S
C445 C446 1.396 . S
C445 C448 1.453 . S
C445 C449 1.684 1_554 S
C446 C427 1.723 . S
C446 C445 1.396 . S
C446 C447 1.394 . S
C447 C443 1.397 1_554 S
C447 C446 1.394 . S
C447 C457 1.723 . S
C448 C445 1.453 . S
C448 H472 0.982 . S
C448 H473 0.979 1_554 S
C448 H474 0.977 . S
C449 C445 1.684 1_556 S
C449 H475 0.979 . S
C449 H476 0.980 1_556 S
C449 H477 0.983 . S
C450 H426 0.948 . S
C450 C451 1.391 . S
C450 C455 1.391 . S
C451 C450 1.391 . S
C451 C452 1.391 . S
C452 H429 0.947 . S
C452 C451 1.391 . S
C452 C453 1.392 . S
C453 H430 0.948 . S
C453 C452 1.392 . S
C453 C454 1.419 . S
C454 C453 1.419 . S
C454 C455 1.391 . S
C454 C458 1.397 . S
C455 C450 1.391 . S
C455 C454 1.391 . S
C455 C456 1.399 . S
C456 C455 1.399 . S
C456 C457 1.396 . S
C456 C459 1.453 . S
C456 C460 1.684 . S
C457 C447 1.723 . S
C457 C456 1.396 . S
C457 C458 1.394 . S
C458 C428 1.723 . S
C458 C454 1.397 . S
C458 C457 1.394 . S
C459 H431 0.982 . S
C459 H435 0.979 . S
C459 H436 0.977 . S
C459 C456 1.453 . S
C460 H432 0.979 . S
C460 H433 0.980 . S
C460 H434 0.983 . S
C460 C456 1.684 . S
H461 C479 0.948 . S
H462 C420 0.948 . S
H463 C438 0.979 . S
H464 C438 0.980 . S
H465 C438 0.983 . S
H466 C437 0.982 . S
H467 C437 0.979 . S
H468 C437 0.977 . S
H469 C439 0.948 . S
H470 C441 0.947 . S
H471 C442 0.948 . S
H472 C448 0.982 . S
H473 C448 0.979 1_556 S
H474 C448 0.977 . S
H475 C449 0.979 . S
H476 C449 0.980 1_554 S
H477 C449 0.983 . S
H478 C422 0.947 . S
C479 C422 1.392 . S
C479 C423 1.419 . S
C479 H461 0.948 . S
C9 C451 2.188 . S
C49 C301 2.280 . S
C89 C361 2.312 . S
C26 C421 2.371 . S
C331 C66 2.045 . S
C391 C106 2.286 . S
C43 C181 4.606 . S
C83 C271 5.096 . S
C22 C151 5.189 . S
C211 C62 5.185 . S
C241 C102 4.699 . S
C3 C121 4.614 . S
C260 C15 2.033 . S
C55 C140 2.033 . S
C95 C200 2.020 . S
C380 C42 1.532 . S
C440 C82 1.512 . S
C2 C320 1.358 . S
