# Generated by pormake.
# Topology wbl, (4,4)-cn, num edge types: 1
# Building blocks:
#     Node 0, Type 0, BuildingBlock: NAWXER_clean_linker_0, # of connection points: 4
#     Node 1, Type 0, BuildingBlock: NAWXER_clean_linker_0, # of connection points: 4
#     Node 2, Type 0, BuildingBlock: NAWXER_clean_linker_0, # of connection points: 4
#     Node 3, Type 0, BuildingBlock: NAWXER_clean_linker_0, # of connection points: 4
#     Node 4, Type 0, BuildingBlock: NAWXER_clean_linker_0, # of connection points: 4
#     Node 5, Type 0, BuildingBlock: NAWXER_clean_linker_0, # of connection points: 4
#     Node 6, Type 0, BuildingBlock: NAWXER_clean_linker_0, # of connection points: 4
#     Node 7, Type 0, BuildingBlock: NAWXER_clean_linker_0, # of connection points: 4
#     Node 8, Type 1, BuildingBlock: NAHDIM_clean_sbu_0, # of connection points: 4
#     Node 9, Type 1, BuildingBlock: NAHDIM_clean_sbu_0, # of connection points: 4
#     Node 10, Type 1, BuildingBlock: NAHDIM_clean_sbu_0, # of connection points: 4
#     Node 11, Type 1, BuildingBlock: NAHDIM_clean_sbu_0, # of connection points: 4
#     Node 12, Type 1, BuildingBlock: NAHDIM_clean_sbu_0, # of connection points: 4
#     Node 13, Type 1, BuildingBlock: NAHDIM_clean_sbu_0, # of connection points: 4
#     Node 14, Type 1, BuildingBlock: NAHDIM_clean_sbu_0, # of connection points: 4
#     Node 15, Type 1, BuildingBlock: NAHDIM_clean_sbu_0, # of connection points: 4
#     Edge 16, Type (0, 1), BuildingBlock: OJICUG_clean_linker_0, # of connection points: 2
#     Edge 17, Type (0, 1), BuildingBlock: OJICUG_clean_linker_0, # of connection points: 2
#     Edge 18, Type (0, 1), BuildingBlock: OJICUG_clean_linker_0, # of connection points: 2
#     Edge 19, Type (0, 1), BuildingBlock: OJICUG_clean_linker_0, # of connection points: 2
#     Edge 20, Type (0, 1), BuildingBlock: OJICUG_clean_linker_0, # of connection points: 2
#     Edge 21, Type (0, 1), BuildingBlock: OJICUG_clean_linker_0, # of connection points: 2
#     Edge 22, Type (0, 1), BuildingBlock: OJICUG_clean_linker_0, # of connection points: 2
#     Edge 23, Type (0, 1), BuildingBlock: OJICUG_clean_linker_0, # of connection points: 2
#     Edge 24, Type (0, 1), BuildingBlock: OJICUG_clean_linker_0, # of connection points: 2
#     Edge 25, Type (0, 1), BuildingBlock: OJICUG_clean_linker_0, # of connection points: 2
#     Edge 26, Type (0, 1), BuildingBlock: OJICUG_clean_linker_0, # of connection points: 2
#     Edge 27, Type (0, 1), BuildingBlock: OJICUG_clean_linker_0, # of connection points: 2
#     Edge 28, Type (0, 1), BuildingBlock: OJICUG_clean_linker_0, # of connection points: 2
#     Edge 29, Type (0, 1), BuildingBlock: OJICUG_clean_linker_0, # of connection points: 2
#     Edge 30, Type (0, 1), BuildingBlock: OJICUG_clean_linker_0, # of connection points: 2
#     Edge 31, Type (0, 1), BuildingBlock: OJICUG_clean_linker_0, # of connection points: 2
#     Edge 32, Type (0, 1), BuildingBlock: OJICUG_clean_linker_0, # of connection points: 2
#     Edge 33, Type (0, 1), BuildingBlock: OJICUG_clean_linker_0, # of connection points: 2
#     Edge 34, Type (0, 1), BuildingBlock: OJICUG_clean_linker_0, # of connection points: 2
#     Edge 35, Type (0, 1), BuildingBlock: OJICUG_clean_linker_0, # of connection points: 2
#     Edge 36, Type (0, 1), BuildingBlock: OJICUG_clean_linker_0, # of connection points: 2
#     Edge 37, Type (0, 1), BuildingBlock: OJICUG_clean_linker_0, # of connection points: 2
#     Edge 38, Type (0, 1), BuildingBlock: OJICUG_clean_linker_0, # of connection points: 2
#     Edge 39, Type (0, 1), BuildingBlock: OJICUG_clean_linker_0, # of connection points: 2
#     Edge 40, Type (0, 1), BuildingBlock: OJICUG_clean_linker_0, # of connection points: 2
#     Edge 41, Type (0, 1), BuildingBlock: OJICUG_clean_linker_0, # of connection points: 2
#     Edge 42, Type (0, 1), BuildingBlock: OJICUG_clean_linker_0, # of connection points: 2
#     Edge 43, Type (0, 1), BuildingBlock: OJICUG_clean_linker_0, # of connection points: 2
#     Edge 44, Type (0, 1), BuildingBlock: OJICUG_clean_linker_0, # of connection points: 2
#     Edge 45, Type (0, 1), BuildingBlock: OJICUG_clean_linker_0, # of connection points: 2
#     Edge 46, Type (0, 1), BuildingBlock: OJICUG_clean_linker_0, # of connection points: 2
#     Edge 47, Type (0, 1), BuildingBlock: OJICUG_clean_linker_0, # of connection points: 2
# Relax obj value: 0.155
# Max RMSD: 0.154
# Mean RMSD: 0.138
data_MOF--net-wbl--node1-NAHDIM_clean_sbu_0--node2-NAWXER_clean_linker_0--edge1-OJICUG_clean_linker_0
_symmetry_space_group_name_H-M    P1
_symmetry_Int_Tables_number       1
_symmetry_cell_setting            triclinic
loop_
_symmetry_equiv_pos_as_xyz
'x, y, z'
_cell_length_a     35.78951
_cell_length_b     34.563605
_cell_length_c     59.173894
_cell_angle_alpha  89.994383
_cell_angle_beta   90.001135
_cell_angle_gamma 90.005924
loop_
_atom_site_label
_atom_site_type_symbol
_atom_site_fract_x
_atom_site_fract_y
_atom_site_fract_z
_atom_type_partial_charge
C0 C 0.05478 0.89085 0.37528 0.0
C1 C 0.07543 0.90472 0.39381 0.0
C2 C 0.03529 0.9165 0.36131 0.0
C3 C 0.03651 0.95654 0.36542 0.0
C4 C 0.07587 0.94475 0.39813 0.0
C5 C 0.05653 0.97032 0.38412 0.0
C6 C 0.0159 0.98422 0.35094 0.0
C7 C 0.10446 0.93014 0.3094 0.0
C8 C 0.09148 0.90757 0.29131 0.0
C9 C 0.08052 0.95557 0.32052 0.0
C10 C 0.04275 0.95814 0.31424 0.0
C11 C 0.05426 0.9116 0.28416 0.0
C12 C 0.03001 0.93669 0.2956 0.0
C13 C 0.01686 0.98342 0.32704 0.0
C14 C 0.92602 0.12581 0.30343 0.0
C15 C 0.90165 0.11025 0.28717 0.0
C16 C 0.95019 0.10173 0.3155 0.0
C17 C 0.94994 0.06156 0.31183 0.0
C18 C 0.90299 0.07032 0.28266 0.0
C19 C 0.92701 0.04624 0.29484 0.0
C20 C 0.97277 0.03521 0.32588 0.0
C21 C 0.88916 0.08868 0.37461 0.0
C22 C 0.90617 0.11148 0.39144 0.0
C23 C 0.91079 0.06504 0.36056 0.0
C24 C 0.94978 0.06392 0.36303 0.0
C25 C 0.94534 0.11086 0.39342 0.0
C26 C 0.96684 0.08705 0.37952 0.0
C27 C 0.97287 0.03677 0.34974 0.0
H28 H 0.05389 0.86023 0.37147 0.0
H29 H 0.01917 0.90501 0.34735 0.0
H30 H 0.09077 0.95635 0.41254 0.0
H31 H 0.05744 0.00101 0.38783 0.0
H32 H 0.13331 0.9283 0.31484 0.0
H33 H 0.09153 0.97302 0.33418 0.0
H34 H 0.04377 0.89473 0.27009 0.0
H35 H 0.00114 0.93872 0.29022 0.0
H36 H 0.92609 0.15655 0.30698 0.0
H37 H 0.9686 0.11443 0.32799 0.0
H38 H 0.88437 0.0574 0.27036 0.0
H39 H 0.92662 0.01539 0.29157 0.0
H40 H 0.85906 0.08797 0.37282 0.0
H41 H 0.89698 0.04682 0.34823 0.0
H42 H 0.95945 0.12851 0.40591 0.0
H43 H 0.9969 0.08654 0.3817 0.0
N44 N 0.99437 0.01122 0.3613 0.0
N45 N 0.99478 0.00855 0.31541 0.0
C46 C 0.90469 0.41785 0.63285 0.0
C47 C 0.92015 0.39194 0.64862 0.0
C48 C 0.9279 0.44103 0.61946 0.0
C49 C 0.96695 0.43853 0.62156 0.0
C50 C 0.95924 0.38973 0.65068 0.0
C51 C 0.98233 0.41289 0.63738 0.0
C52 C 0.99214 0.464 0.60844 0.0
C53 C 0.93662 0.38408 0.56094 0.0
C54 C 0.91318 0.40187 0.54504 0.0
C55 C 0.96222 0.4059 0.57325 0.0
C56 C 0.9641 0.44622 0.57046 0.0
C57 C 0.91649 0.44181 0.54117 0.0
C58 C 0.94177 0.4639 0.55387 0.0
C59 C 0.98945 0.46957 0.58482 0.0
C60 C 0.12687 0.56636 0.56615 0.0
C61 C 0.11176 0.5958 0.55254 0.0
C62 C 0.10354 0.53953 0.57676 0.0
C63 C 0.06458 0.54187 0.57418 0.0
C64 C 0.07285 0.59694 0.54916 0.0
C65 C 0.04952 0.57009 0.5598 0.0
C66 C 0.03947 0.51526 0.58654 0.0
C67 C 0.09131 0.58785 0.64297 0.0
C68 C 0.11338 0.56602 0.65801 0.0
C69 C 0.06958 0.56947 0.6265 0.0
C70 C 0.06955 0.52898 0.6248 0.0
C71 C 0.11444 0.52556 0.65549 0.0
C72 C 0.09245 0.50726 0.63923 0.0
C73 C 0.0427 0.5087 0.61002 0.0
H74 H 0.87469 0.42019 0.63088 0.0
H75 H 0.91535 0.46127 0.60773 0.0
H76 H 0.97204 0.37067 0.66298 0.0
H77 H 0.01234 0.4108 0.63948 0.0
H78 H 0.93519 0.35315 0.5638 0.0
H79 H 0.9803 0.39122 0.58516 0.0
H80 H 0.89889 0.45599 0.52879 0.0
H81 H 0.94324 0.49485 0.55113 0.0
H82 H 0.15676 0.56419 0.56873 0.0
H83 H 0.11594 0.51717 0.58716 0.0
H84 H 0.06027 0.61942 0.53893 0.0
H85 H 0.01957 0.5722 0.55741 0.0
H86 H 0.08941 0.61899 0.64458 0.0
H87 H 0.05154 0.58674 0.61581 0.0
H88 H 0.13168 0.50788 0.66642 0.0
H89 H 0.09275 0.47595 0.63819 0.0
N90 N 0.01892 0.48342 0.61999 0.0
N91 N 0.0129 0.49544 0.57478 0.0
C92 C 0.56115 0.39364 0.88261 0.0
C93 C 0.58355 0.40671 0.90057 0.0
C94 C 0.54475 0.42008 0.86773 0.0
C95 C 0.55049 0.46001 0.87056 0.0
C96 C 0.58928 0.44668 0.9033 0.0
C97 C 0.57267 0.47306 0.88854 0.0
C98 C 0.53133 0.48845 0.85592 0.0
C99 C 0.61604 0.42991 0.81347 0.0
C100 C 0.60225 0.40876 0.79502 0.0
C101 C 0.59292 0.45529 0.82524 0.0
C102 C 0.55514 0.45934 0.81924 0.0
C103 C 0.56489 0.41389 0.78835 0.0
C104 C 0.54147 0.43898 0.80042 0.0
C105 C 0.53058 0.486 0.83208 0.0
C106 C 0.43865 0.62736 0.807 0.0
C107 C 0.41303 0.61013 0.79206 0.0
C108 C 0.46392 0.60459 0.81916 0.0
C109 C 0.46362 0.56412 0.81685 0.0
C110 C 0.41413 0.5698 0.78896 0.0
C111 C 0.43928 0.54708 0.80117 0.0
C112 C 0.48793 0.53912 0.83084 0.0
C113 C 0.41159 0.59632 0.88328 0.0
C114 C 0.4314 0.62013 0.89845 0.0
C115 C 0.4307 0.57237 0.86812 0.0
C116 C 0.46988 0.57184 0.86788 0.0
C117 C 0.47067 0.62063 0.89736 0.0
C118 C 0.48967 0.59641 0.88241 0.0
C119 C 0.49056 0.54284 0.85455 0.0
H120 H 0.55632 0.36301 0.8801 0.0
H121 H 0.52703 0.40937 0.85427 0.0
H122 H 0.60593 0.45762 0.91719 0.0
H123 H 0.57708 0.50374 0.89121 0.0
H124 H 0.64501 0.42733 0.81856 0.0
H125 H 0.60479 0.47199 0.83895 0.0
H126 H 0.55372 0.39811 0.77405 0.0
H127 H 0.51261 0.44214 0.79522 0.0
H128 H 0.43892 0.65841 0.80945 0.0
H129 H 0.48334 0.61858 0.83056 0.0
H130 H 0.39454 0.55556 0.77777 0.0
H131 H 0.43876 0.51596 0.79897 0.0
H132 H 0.38139 0.59477 0.88382 0.0
H133 H 0.41493 0.55308 0.85729 0.0
H134 H 0.48684 0.63914 0.90843 0.0
H135 H 0.51995 0.59631 0.88249 0.0
N136 N 0.5119 0.51721 0.86614 0.0
N137 N 0.50828 0.51095 0.82046 0.0
C138 C 0.41572 0.8862 0.06452 0.0
C139 C 0.39755 0.90456 0.04643 0.0
C140 C 0.4419 0.90616 0.07752 0.0
C141 C 0.44963 0.9453 0.07314 0.0
C142 C 0.40603 0.94332 0.04155 0.0
C143 C 0.43179 0.96356 0.05485 0.0
C144 C 0.4778 0.96659 0.08666 0.0
C145 C 0.39011 0.93296 0.13873 0.0
C146 C 0.40389 0.91331 0.15774 0.0
C147 C 0.41488 0.9483 0.12273 0.0
C148 C 0.45368 0.94312 0.12523 0.0
C149 C 0.44248 0.90763 0.16003 0.0
C150 C 0.46709 0.92223 0.14391 0.0
C151 C 0.48095 0.96322 0.11045 0.0
C152 C 0.58879 0.0832 0.13867 0.0
C153 C 0.61084 0.0622 0.15411 0.0
C154 C 0.5654 0.06397 0.12346 0.0
C155 C 0.56361 0.02344 0.1234 0.0
C156 C 0.61 0.02151 0.1533 0.0
C157 C 0.58629 0.00237 0.13827 0.0
C158 C 0.53532 0.00304 0.10974 0.0
C159 C 0.62143 0.05203 0.06458 0.0
C160 C 0.60769 0.08293 0.05156 0.0
C161 C 0.59684 0.02623 0.07501 0.0
C162 C 0.55805 0.03108 0.07278 0.0
C163 C 0.56888 0.0862 0.04822 0.0
C164 C 0.5443 0.06037 0.05867 0.0
C165 C 0.5318 0.00729 0.08615 0.0
H166 H 0.41041 0.856 0.06825 0.0
H167 H 0.45644 0.89073 0.09079 0.0
H168 H 0.39257 0.95798 0.02756 0.0
H169 H 0.43772 0.99354 0.05088 0.0
H170 H 0.36039 0.93792 0.13681 0.0
H171 H 0.40374 0.9654 0.10897 0.0
H172 H 0.45363 0.89242 0.17456 0.0
H173 H 0.49682 0.91806 0.14636 0.0
H174 H 0.58818 0.11451 0.13902 0.0
H175 H 0.54752 0.0808 0.11243 0.0
H176 H 0.62707 0.00438 0.16461 0.0
H177 H 0.58516 0.97104 0.13851 0.0
H178 H 0.65118 0.04825 0.0671 0.0
H179 H 0.6081 0.00313 0.08533 0.0
H180 H 0.55735 0.10983 0.03843 0.0
H181 H 0.51447 0.06445 0.05662 0.0
N182 N 0.50315 0.98896 0.07547 0.0
N183 N 0.50983 0.9813 0.12089 0.0
C184 C 0.05042 0.6064 0.87578 0.0
C185 C 0.07332 0.59227 0.85834 0.0
C186 C 0.03254 0.58078 0.89053 0.0
C187 C 0.03725 0.54064 0.88805 0.0
C188 C 0.07771 0.55208 0.85582 0.0
C189 C 0.05958 0.52652 0.87042 0.0
C190 C 0.01778 0.51313 0.90314 0.0
C191 C 0.105 0.57231 0.94327 0.0
C192 C 0.09164 0.59563 0.96094 0.0
C193 C 0.08151 0.54585 0.93265 0.0
C194 C 0.04384 0.54279 0.93904 0.0
C195 C 0.05446 0.59133 0.96814 0.0
C196 C 0.03069 0.56508 0.95723 0.0
C197 C 0.01863 0.51581 0.92697 0.0
C198 C 0.9317 0.37307 0.95462 0.0
C199 C 0.90673 0.3893 0.97033 0.0
C200 C 0.9551 0.39678 0.94174 0.0
C201 C 0.95368 0.43718 0.94418 0.0
C202 C 0.90682 0.42965 0.97351 0.0
C203 C 0.93022 0.45331 0.96064 0.0
C204 C 0.97596 0.46293 0.92946 0.0
C205 C 0.89287 0.40631 0.88143 0.0
C206 C 0.90993 0.38368 0.86455 0.0
C207 C 0.91442 0.42996 0.89551 0.0
C208 C 0.9534 0.43126 0.89301 0.0
C209 C 0.94911 0.38417 0.86268 0.0
C210 C 0.97055 0.40798 0.87662 0.0
C211 C 0.97619 0.45953 0.90566 0.0
H212 H 0.04659 0.63722 0.87811 0.0
H213 H 0.01479 0.59229 0.90375 0.0
H214 H 0.09473 0.54038 0.84232 0.0
H215 H 0.06323 0.49567 0.86807 0.0
H216 H 0.13383 0.57428 0.93782 0.0
H217 H 0.09288 0.52779 0.91937 0.0
H218 H 0.04363 0.60879 0.98186 0.0
H219 H 0.00189 0.56272 0.96269 0.0
H220 H 0.9328 0.34206 0.95206 0.0
H221 H 0.97388 0.38358 0.92964 0.0
H222 H 0.88768 0.44318 0.98528 0.0
H223 H 0.92891 0.48438 0.96293 0.0
H224 H 0.86276 0.4071 0.88314 0.0
H225 H 0.90053 0.44833 0.90772 0.0
H226 H 0.96324 0.36662 0.85015 0.0
H227 H 0.0006 0.40868 0.87439 0.0
N228 N 0.99704 0.48479 0.89346 0.0
N229 N 0.99723 0.49096 0.93924 0.0
C230 C 0.38172 0.55647 0.10957 0.0
C231 C 0.39491 0.58206 0.09294 0.0
C232 C 0.40648 0.54005 0.12514 0.0
C233 C 0.4448 0.54876 0.12417 0.0
C234 C 0.43326 0.59063 0.09201 0.0
C235 C 0.45803 0.5738 0.10734 0.0
C236 C 0.47151 0.53039 0.1399 0.0
C237 C 0.40657 0.61653 0.17845 0.0
C238 C 0.3842 0.60177 0.19591 0.0
C239 C 0.43389 0.59358 0.16842 0.0
C240 C 0.43871 0.55488 0.17509 0.0
C241 C 0.39014 0.56373 0.20347 0.0
C242 C 0.41718 0.54037 0.19307 0.0
C243 C 0.46686 0.53025 0.16361 0.0
C244 C 0.60548 0.44385 0.19449 0.0
C245 C 0.58905 0.41708 0.20938 0.0
C246 C 0.58319 0.46796 0.18115 0.0
C247 C 0.54404 0.4654 0.18222 0.0
C248 C 0.54986 0.41586 0.21112 0.0
C249 C 0.52762 0.4399 0.19774 0.0
C250 C 0.5199 0.48873 0.16716 0.0
C251 C 0.58065 0.41083 0.1158 0.0
C252 C 0.6049 0.43215 0.10175 0.0
C253 C 0.55624 0.42979 0.13059 0.0
C254 C 0.55558 0.47032 0.13148 0.0
C255 C 0.60554 0.47271 0.10381 0.0
C256 C 0.58078 0.49158 0.1183 0.0
C257 C 0.52559 0.49089 0.14358 0.0
H258 H 0.35227 0.54945 0.11062 0.0
H259 H 0.3958 0.52021 0.13776 0.0
H260 H 0.44417 0.60992 0.07917 0.0
H261 H 0.48753 0.58056 0.10617 0.0
H262 H 0.40326 0.64613 0.17277 0.0
H263 H 0.45132 0.60625 0.15542 0.0
H264 H 0.37345 0.55192 0.21709 0.0
H265 H 0.42087 0.51085 0.1988 0.0
H266 H 0.63558 0.44601 0.19307 0.0
H267 H 0.59659 0.4884 0.16989 0.0
H268 H 0.53626 0.39532 0.22223 0.0
H269 H 0.49749 0.43764 0.19899 0.0
H270 H 0.57903 0.37963 0.11453 0.0
H271 H 0.53656 0.41294 0.14042 0.0
H272 H 0.62442 0.49005 0.09372 0.0
H273 H 0.58059 0.52292 0.11877 0.0
N274 N 0.50104 0.51135 0.13088 0.0
N275 N 0.49081 0.50875 0.17635 0.0
C276 C 0.44415 0.88638 0.37249 0.0
C277 C 0.42149 0.90059 0.35495 0.0
C278 C 0.46245 0.91196 0.38709 0.0
C279 C 0.45847 0.95214 0.38433 0.0
C280 C 0.41782 0.9408 0.35216 0.0
C281 C 0.4364 0.9663 0.36658 0.0
C282 C 0.47839 0.97967 0.39919 0.0
C283 C 0.3901 0.92356 0.44051 0.0
C284 C 0.40245 0.90315 0.45959 0.0
C285 C 0.41427 0.94808 0.42887 0.0
C286 C 0.45177 0.95178 0.43559 0.0
C287 C 0.43946 0.90795 0.46698 0.0
C288 C 0.46399 0.93201 0.455 0.0
C289 C 0.47751 0.97773 0.42306 0.0
C290 C 0.56706 0.11988 0.44907 0.0
C291 C 0.59172 0.10364 0.46495 0.0
C292 C 0.54307 0.09624 0.43654 0.0
C293 C 0.54375 0.05588 0.4394 0.0
C294 C 0.5909 0.06342 0.46858 0.0
C295 C 0.56704 0.03982 0.45598 0.0
C296 C 0.52098 0.03008 0.42495 0.0
C297 C 0.6032 0.0874 0.37685 0.0
C298 C 0.58567 0.11071 0.36046 0.0
C299 C 0.5821 0.06272 0.39058 0.0
C300 C 0.54311 0.06106 0.38823 0.0
C301 C 0.5465 0.1095 0.35859 0.0
C302 C 0.52552 0.08467 0.37218 0.0
C303 C 0.52059 0.03286 0.40113 0.0
H304 H 0.44744 0.85553 0.37501 0.0
H305 H 0.47995 0.9004 0.40041 0.0
H306 H 0.40099 0.95255 0.33858 0.0
H307 H 0.43328 0.99717 0.364 0.0
H308 H 0.36139 0.92118 0.43486 0.0
H309 H 0.40339 0.96448 0.41475 0.0
H310 H 0.44945 0.89277 0.48182 0.0
H311 H 0.49256 0.93497 0.4608 0.0
H312 H 0.56657 0.15082 0.44619 0.0
H313 H 0.52443 0.10947 0.42437 0.0
H314 H 0.60975 0.04995 0.48054 0.0
H315 H 0.56779 0.0088 0.4586 0.0
H316 H 0.63333 0.08712 0.37852 0.0
H317 H 0.59632 0.04414 0.40255 0.0
H318 H 0.53201 0.12748 0.34643 0.0
H319 H 0.49545 0.08373 0.37008 0.0
N320 N 0.4994 0.00751 0.38921 0.0
N321 N 0.49936 0.00264 0.43503 0.0
C322 C 0.08812 0.92567 0.61448 0.0
C323 C 0.07117 0.89983 0.5992 0.0
C324 C 0.06684 0.94399 0.6312 0.0
C325 C 0.02832 0.93685 0.63282 0.0
C326 C 0.03284 0.89168 0.60163 0.0
C327 C 0.01159 0.91041 0.61805 0.0
C328 C 0.00453 0.95928 0.64839 0.0
C329 C 0.07007 0.8753 0.68794 0.0
C330 C 0.09508 0.89178 0.70343 0.0
C331 C 0.04171 0.8975 0.6784 0.0
C332 C 0.03849 0.93702 0.68358 0.0
C333 C 0.09064 0.93066 0.70975 0.0
C334 C 0.06253 0.95322 0.69981 0.0
C335 C 0.01022 0.96119 0.67196 0.0
C336 C 0.87488 0.05373 0.70156 0.0
C337 C 0.89178 0.07982 0.71665 0.0
C338 C 0.89672 0.02886 0.68844 0.0
C339 C 0.93589 0.02993 0.68997 0.0
C340 C 0.93092 0.07945 0.71892 0.0
C341 C 0.95272 0.0546 0.70579 0.0
C342 C 0.95952 0.00593 0.67501 0.0
C343 C 0.90477 0.09003 0.62545 0.0
C344 C 0.88744 0.07242 0.60683 0.0
C345 C 0.92463 0.06759 0.64108 0.0
C346 C 0.92661 0.02717 0.63849 0.0
C347 C 0.88788 0.03202 0.60488 0.0
C348 C 0.90714 0.00961 0.62062 0.0
C349 C 0.95386 0.00366 0.65139 0.0
H350 H 0.11745 0.93291 0.613 0.0
H351 H 0.08014 0.96477 0.6423 0.0
H352 H 0.01899 0.87119 0.59061 0.0
H353 H 0.9819 0.9045 0.61909 0.0
H354 H 0.07241 0.84508 0.68326 0.0
H355 H 0.02247 0.88375 0.66679 0.0
H356 H 0.10946 0.94377 0.72187 0.0
H357 H 0.06017 0.98348 0.70435 0.0
H358 H 0.84479 0.05282 0.69972 0.0
H359 H 0.88302 0.00917 0.67686 0.0
H360 H 0.94488 0.09943 0.73021 0.0
H361 H 0.98286 0.05568 0.70739 0.0
H362 H 0.90515 0.12126 0.62703 0.0
H363 H 0.94031 0.08208 0.65424 0.0
H364 H 0.87475 0.01793 0.59058 0.0
H365 H 0.90847 0.97857 0.61815 0.0
N366 N 0.97656 0.98032 0.63914 0.0
N367 N 0.98767 0.98473 0.68441 0.0
C368 C 0.20753 0.68851 0.00062 0.0
O369 O 0.21646 0.68397 0.02199 0.0
O370 O 0.30278 0.68743 0.02146 0.0
Zn371 Zn 0.28389 0.71793 0.99492 0.0
O372 O 0.31567 0.70376 0.96803 0.0
C373 C 0.31263 0.79674 0.99372 0.0
O374 O 0.32645 0.78666 0.97402 0.0
O375 O 0.23093 0.70395 0.98722 0.0
C376 C 0.34993 0.69524 0.97067 0.0
O377 O 0.36482 0.69808 0.9909 0.0
C378 C 0.30271 0.6509 0.02375 0.0
O379 O 0.287 0.62922 0.00819 0.0
O380 O 0.29114 0.77344 0.00407 0.0
C381 C 0.20961 0.81925 0.25074 0.0
O382 O 0.22174 0.82975 0.23071 0.0
O383 O 0.30271 0.81989 0.22979 0.0
Zn384 Zn 0.28539 0.79021 0.25727 0.0
O385 O 0.3132 0.8109 0.28423 0.0
C386 C 0.29019 0.72055 0.23263 0.0
O387 O 0.27029 0.74181 0.21869 0.0
O388 O 0.231 0.79991 0.26365 0.0
C389 C 0.3473 0.80444 0.28885 0.0
O390 O 0.36663 0.78076 0.27602 0.0
C391 C 0.31677 0.85349 0.23165 0.0
O392 O 0.31788 0.87006 0.25161 0.0
O393 O 0.29825 0.73427 0.25194 0.0
C394 C 0.28025 0.82537 0.5028 0.0
O395 O 0.26716 0.84015 0.52166 0.0
O396 O 0.18567 0.82632 0.52361 0.0
Zn397 Zn 0.20402 0.79712 0.49621 0.0
O398 O 0.17845 0.82042 0.46909 0.0
C399 C 0.19652 0.72638 0.51964 0.0
O400 O 0.21688 0.74606 0.53411 0.0
O401 O 0.25909 0.80425 0.49074 0.0
C402 C 0.1515 0.80599 0.45793 0.0
O403 O 0.13822 0.77191 0.46362 0.0
C404 C 0.15028 0.82865 0.52475 0.0
O405 O 0.13013 0.81265 0.50873 0.0
O406 O 0.18894 0.74158 0.50063 0.0
C407 C 0.28331 0.68375 0.75386 0.0
O408 O 0.27045 0.67182 0.73427 0.0
O409 O 0.19099 0.67797 0.73336 0.0
Zn410 Zn 0.20655 0.70792 0.76111 0.0
O411 O 0.17991 0.68469 0.78773 0.0
C412 C 0.1969 0.77744 0.73701 0.0
O413 O 0.21724 0.75754 0.72263 0.0
O414 O 0.26164 0.70197 0.76714 0.0
C415 C 0.14563 0.69008 0.79229 0.0
O416 O 0.1259 0.7138 0.7797 0.0
C417 C 0.18194 0.6425 0.73461 0.0
O418 O 0.18426 0.62472 0.75419 0.0
O419 O 0.19041 0.76301 0.75636 0.0
C420 C 0.71543 0.18285 0.50676 0.0
O421 O 0.72665 0.17189 0.5269 0.0
O422 O 0.80508 0.17842 0.53014 0.0
Zn423 Zn 0.79141 0.21106 0.50299 0.0
O424 O 0.82356 0.1932 0.477 0.0
C425 C 0.82265 0.28914 0.49964 0.0
O426 O 0.83185 0.27912 0.47896 0.0
O427 O 0.73757 0.20216 0.49431 0.0
C428 C 0.81363 0.19245 0.45639 0.0
O429 O 0.78063 0.20589 0.45067 0.0
C430 C 0.83798 0.16476 0.53142 0.0
O431 O 0.86183 0.17193 0.51509 0.0
O432 O 0.80352 0.26592 0.51164 0.0
C433 C 0.71738 0.3224 0.74977 0.0
O434 O 0.72672 0.33161 0.72898 0.0
O435 O 0.80919 0.31734 0.72483 0.0
Zn436 Zn 0.79238 0.28854 0.75275 0.0
O437 O 0.82643 0.30628 0.7778 0.0
C438 C 0.81927 0.2098 0.75881 0.0
O439 O 0.83368 0.22382 0.7775 0.0
O440 O 0.74003 0.30296 0.76179 0.0
C441 C 0.81678 0.30635 0.79848 0.0
O442 O 0.78386 0.29263 0.80417 0.0
C443 C 0.83765 0.30376 0.71469 0.0
O444 O 0.85305 0.27187 0.72237 0.0
O445 O 0.79857 0.23136 0.74671 0.0
C446 C 0.7806 0.31229 0.01034 0.0
O447 O 0.76729 0.32519 0.0296 0.0
O448 O 0.68718 0.31682 0.03008 0.0
Zn449 Zn 0.70401 0.28755 0.00239 0.0
O450 O 0.67962 0.31197 0.97536 0.0
C451 C 0.69547 0.21456 0.02379 0.0
O452 O 0.71701 0.23172 0.03872 0.0
O453 O 0.75932 0.29316 0.99726 0.0
C454 C 0.64612 0.30661 0.96904 0.0
O455 O 0.6249 0.28217 0.98021 0.0
C456 C 0.68053 0.35285 0.02869 0.0
O457 O 0.68635 0.37065 0.00939 0.0
O458 O 0.68737 0.23239 0.00567 0.0
C459 C 0.77729 0.19076 0.24703 0.0
O460 O 0.76752 0.1832 0.22609 0.0
O461 O 0.68775 0.18358 0.22385 0.0
Zn462 Zn 0.70043 0.21623 0.25092 0.0
O463 O 0.66702 0.19754 0.27609 0.0
C464 C 0.66656 0.29238 0.25403 0.0
O465 O 0.65337 0.279 0.27321 0.0
O466 O 0.75391 0.20702 0.26012 0.0
C467 C 0.67688 0.1959 0.29671 0.0
O468 O 0.70989 0.20907 0.30264 0.0
C469 C 0.68123 0.14773 0.22646 0.0
O470 O 0.68456 0.13245 0.2467 0.0
O471 O 0.68889 0.27154 0.24258 0.0
C472 C 0.12338 0.88204 0.25665 0.0
C473 C 0.11735 0.88031 0.28007 0.0
H474 H 0.15746 0.8638 0.22884 0.0
C475 C 0.13866 0.85463 0.29316 0.0
H476 H 0.10725 0.90167 0.24623 0.0
C477 C 0.16701 0.83273 0.28327 0.0
C478 C 0.175 0.83645 0.2601 0.0
H479 H 0.13417 0.85246 0.31123 0.0
H480 H 0.18386 0.81439 0.29406 0.0
C481 C 0.15213 0.86042 0.24675 0.0
C482 C 0.16449 0.64312 0.55631 0.0
C483 C 0.13616 0.62653 0.543 0.0
H484 H 0.20595 0.68734 0.55929 0.0
C485 C 0.13007 0.64105 0.52111 0.0
H486 H 0.16967 0.63291 0.57333 0.0
C487 C 0.15086 0.67243 0.51306 0.0
C488 C 0.17808 0.69002 0.52677 0.0
H489 H 0.1088 0.62855 0.51033 0.0
H490 H 0.14474 0.68364 0.49637 0.0
C491 C 0.1852 0.67449 0.54829 0.0
C492 C 0.36352 0.66137 0.79336 0.0
C493 C 0.38342 0.63348 0.78095 0.0
H494 H 0.31651 0.69948 0.79446 0.0
C495 C 0.37262 0.6258 0.75856 0.0
H496 H 0.37094 0.66777 0.81071 0.0
C497 C 0.34129 0.64392 0.74924 0.0
C498 C 0.32001 0.66998 0.76216 0.0
H499 H 0.38778 0.60493 0.74844 0.0
H500 H 0.33286 0.63618 0.73225 0.0
C501 C 0.33217 0.67943 0.78407 0.0
C502 C 0.37594 0.88056 0.00869 0.0
C503 C 0.37119 0.88228 0.03222 0.0
H504 H 0.3608 0.8521 0.97785 0.0
C505 C 0.3433 0.85967 0.04239 0.0
H506 H 0.39732 0.89772 0.00047 0.0
C507 C 0.32214 0.83394 0.02949 0.0
C508 C 0.32886 0.82987 0.00619 0.0
H509 H 0.33882 0.86087 0.06049 0.0
H510 H 0.30205 0.81567 0.03807 0.0
C511 C 0.35507 0.85441 0.99578 0.0
C512 C 0.12191 0.62457 0.99527 0.0
C513 C 0.11711 0.62387 0.97171 0.0
H514 H 0.15444 0.64581 0.02304 0.0
C515 C 0.13917 0.64814 0.95817 0.0
H516 H 0.10522 0.60607 0.00606 0.0
C517 C 0.16706 0.67096 0.9678 0.0
C518 C 0.17374 0.66976 0.99121 0.0
H519 H 0.13559 0.64856 0.93999 0.0
H520 H 0.18444 0.68822 0.95672 0.0
C521 C 0.15012 0.64725 0.00495 0.0
C522 C 0.33025 0.64693 0.19228 0.0
C523 C 0.35546 0.62696 0.2062 0.0
H524 H 0.28915 0.69151 0.18982 0.0
C525 C 0.35555 0.63444 0.22952 0.0
H526 H 0.32945 0.64136 0.17426 0.0
C527 C 0.33268 0.66351 0.23849 0.0
C528 C 0.30911 0.68523 0.22428 0.0
H529 H 0.37485 0.61942 0.24057 0.0
H530 H 0.33473 0.67014 0.25633 0.0
C531 C 0.30712 0.67557 0.20123 0.0
C532 C 0.36877 0.884 0.49499 0.0
C533 C 0.37585 0.87809 0.47192 0.0
H534 H 0.33276 0.87173 0.52305 0.0
C535 C 0.35448 0.85084 0.46 0.0
H536 H 0.38488 0.90496 0.5045 0.0
C537 C 0.32503 0.83157 0.47058 0.0
C538 C 0.31594 0.83961 0.49322 0.0
H539 H 0.3597 0.84555 0.44223 0.0
H540 H 0.30814 0.81199 0.46059 0.0
C541 C 0.3389 0.86506 0.50555 0.0
C542 C 0.12837 0.86096 0.736 0.0
C543 C 0.12556 0.86775 0.71269 0.0
H544 H 0.15344 0.82677 0.76215 0.0
C545 C 0.14966 0.84825 0.69786 0.0
H546 H 0.10995 0.8757 0.7477 0.0
C547 C 0.17475 0.82075 0.70605 0.0
C548 C 0.17579 0.81173 0.7292 0.0
H549 H 0.14808 0.85331 0.67981 0.0
H550 H 0.19186 0.80511 0.69402 0.0
C551 C 0.15317 0.83295 0.7442 0.0
C552 C 0.65024 0.35643 0.79481 0.0
C553 C 0.62758 0.38229 0.7827 0.0
H554 H 0.69583 0.31667 0.79386 0.0
C555 C 0.63177 0.38499 0.75915 0.0
H556 H 0.64722 0.35346 0.81295 0.0
C557 C 0.65986 0.36403 0.74813 0.0
C558 C 0.68397 0.3398 0.76048 0.0
H559 H 0.61465 0.4048 0.74946 0.0
H560 H 0.66362 0.36802 0.73012 0.0
C561 C 0.678 0.33527 0.78382 0.0
C562 C 0.66177 0.12797 0.0571 0.0
C563 C 0.63332 0.11345 0.04308 0.0
H564 H 0.7039 0.17104 0.06193 0.0
C565 C 0.6279 0.1303 0.02171 0.0
H566 H 0.66643 0.11595 0.07377 0.0
C567 C 0.64933 0.16209 0.01495 0.0
C568 C 0.67653 0.17776 0.02946 0.0
H569 H 0.60655 0.11943 0.0104 0.0
H570 H 0.64365 0.17517 0.99867 0.0
C571 C 0.68314 0.15975 0.05036 0.0
C572 C 0.85193 0.16116 0.28887 0.0
C573 C 0.87312 0.1349 0.27604 0.0
H574 H 0.80517 0.19965 0.28974 0.0
C575 C 0.86486 0.13031 0.25298 0.0
H576 H 0.8574 0.16511 0.30672 0.0
C577 C 0.83489 0.15012 0.24321 0.0
C578 C 0.81241 0.17475 0.25636 0.0
H579 H 0.88105 0.11067 0.2426 0.0
H580 H 0.82849 0.14491 0.22559 0.0
C581 C 0.82186 0.18083 0.27914 0.0
C582 C 0.86059 0.3548 0.54512 0.0
C583 C 0.88543 0.3781 0.53283 0.0
H584 H 0.8205 0.30914 0.54421 0.0
C585 C 0.88599 0.37552 0.50917 0.0
H586 H 0.8595 0.35659 0.56339 0.0
C587 C 0.8639 0.34795 0.49808 0.0
C588 C 0.84065 0.32293 0.51052 0.0
H589 H 0.90501 0.39325 0.49939 0.0
H590 H 0.86629 0.34512 0.47991 0.0
C591 C 0.83821 0.32772 0.53408 0.0
C592 C 0.62864 0.12157 0.49951 0.0
C593 C 0.61994 0.12796 0.47665 0.0
H594 H 0.66522 0.1344 0.52709 0.0
C595 C 0.64045 0.15576 0.46452 0.0
H596 H 0.61295 0.10078 0.50939 0.0
C597 C 0.67032 0.17516 0.47467 0.0
C598 C 0.68031 0.1672 0.49718 0.0
H599 H 0.63464 0.16115 0.44683 0.0
H600 H 0.68652 0.19518 0.46455 0.0
C601 C 0.65845 0.14104 0.50968 0.0
C602 C 0.8778 0.11966 0.75118 0.0
C603 C 0.86915 0.10924 0.72882 0.0
H604 H 0.86833 0.15921 0.77839 0.0
C605 C 0.84063 0.12938 0.71747 0.0
H606 H 0.89917 0.10426 0.76051 0.0
C607 C 0.82275 0.16069 0.72776 0.0
C608 C 0.83305 0.17261 0.74961 0.0
H609 H 0.83346 0.12232 0.70018 0.0
H610 H 0.80214 0.17666 0.71814 0.0
C611 C 0.85993 0.15099 0.76147 0.0
C612 C 0.86833 0.37245 0.00454 0.0
C613 C 0.87855 0.36489 0.98203 0.0
H614 H 0.82969 0.36124 0.03136 0.0
C615 C 0.85918 0.33607 0.97003 0.0
H616 H 0.88315 0.39397 0.01438 0.0
C617 C 0.82877 0.31708 0.97981 0.0
C618 C 0.81695 0.32658 0.00178 0.0
H619 H 0.86612 0.32968 0.95261 0.0
H620 H 0.8134 0.2964 0.96968 0.0
C621 C 0.83785 0.35347 0.01433 0.0
C622 C 0.60331 0.37856 0.24437 0.0
C623 C 0.61235 0.38885 0.22204 0.0
H624 H 0.61373 0.34043 0.27215 0.0
C625 C 0.64217 0.36983 0.21128 0.0
H626 H 0.58092 0.39313 0.25326 0.0
C627 C 0.66116 0.33979 0.22214 0.0
C628 C 0.65071 0.32806 0.244 0.0
H629 H 0.64969 0.37684 0.19403 0.0
H630 H 0.68296 0.32471 0.213 0.0
C631 C 0.62231 0.34852 0.25524 0.0
C632 C 0.0802 0.84226 0.41553 0.0
C633 C 0.09604 0.87775 0.4089 0.0
H634 H 0.08533 0.79159 0.43617 0.0
C635 C 0.1313 0.88804 0.41745 0.0
H636 H 0.05294 0.8336 0.40939 0.0
C637 C 0.14965 0.8642 0.4329 0.0
C638 C 0.13331 0.82933 0.44009 0.0
H639 H 0.14467 0.91475 0.41233 0.0
H640 H 0.17648 0.87342 0.43943 0.0
C641 C 0.09869 0.81824 0.43094 0.0
C642 C 0.14983 0.62153 0.67475 0.0
C643 C 0.1331 0.58494 0.67722 0.0
H644 H 0.17854 0.66838 0.69088 0.0
C645 C 0.13396 0.567 0.69857 0.0
H646 H 0.15011 0.63597 0.65851 0.0
C647 C 0.15065 0.58531 0.71701 0.0
C648 C 0.1666 0.6222 0.71465 0.0
H649 H 0.12075 0.5392 0.70127 0.0
H650 H 0.15018 0.57087 0.73325 0.0
C651 C 0.16631 0.64 0.69328 0.0
C652 C 0.37655 0.65935 0.91227 0.0
C653 C 0.41148 0.6421 0.91643 0.0
H654 H 0.32975 0.68991 0.92609 0.0
C655 C 0.42664 0.64437 0.93833 0.0
H656 H 0.36426 0.65863 0.89555 0.0
C657 C 0.40715 0.66272 0.95571 0.0
C658 C 0.3718 0.67895 0.95171 0.0
H659 H 0.45311 0.63083 0.94232 0.0
H660 H 0.41938 0.66313 0.97245 0.0
C661 C 0.35688 0.67749 0.92974 0.0
C662 C 0.35102 0.87266 0.17204 0.0
C663 C 0.3787 0.90058 0.17601 0.0
H664 H 0.30965 0.83546 0.18674 0.0
C665 C 0.38392 0.91488 0.19797 0.0
H666 H 0.34666 0.86125 0.1552 0.0
C667 C 0.36252 0.90077 0.21586 0.0
C668 C 0.33597 0.8715 0.2122 0.0
H669 H 0.40507 0.93658 0.20132 0.0
H670 H 0.36785 0.91176 0.23269 0.0
C671 C 0.33002 0.85793 0.19006 0.0
C672 C 0.07276 0.64989 0.83249 0.0
C673 C 0.09233 0.61913 0.84256 0.0
H674 H 0.07419 0.69646 0.80859 0.0
C675 C 0.12998 0.61326 0.83685 0.0
H676 H 0.04363 0.65493 0.83651 0.0
C677 C 0.14749 0.63703 0.82101 0.0
C678 C 0.12766 0.66707 0.81037 0.0
H679 H 0.14587 0.59007 0.84456 0.0
H680 H 0.1764 0.63127 0.81676 0.0
C681 C 0.09021 0.67354 0.81646 0.0
C682 C 0.34402 0.57681 0.06393 0.0
C683 C 0.36904 0.59975 0.0764 0.0
H684 H 0.30343 0.57495 0.03728 0.0
C685 C 0.37044 0.63969 0.07233 0.0
H686 H 0.34256 0.54587 0.06674 0.0
C687 C 0.34793 0.65634 0.05573 0.0
C688 C 0.32383 0.63331 0.04262 0.0
H689 H 0.38924 0.65805 0.08187 0.0
H690 H 0.35024 0.68718 0.05279 0.0
C691 C 0.32177 0.59341 0.04705 0.0
C692 C 0.42095 0.84282 0.32919 0.0
C693 C 0.40192 0.87385 0.33935 0.0
H694 H 0.41868 0.7965 0.30513 0.0
C695 C 0.36431 0.8803 0.33378 0.0
H696 H 0.45003 0.83734 0.33312 0.0
C697 C 0.34634 0.85693 0.31792 0.0
C698 C 0.36567 0.82672 0.30711 0.0
H699 H 0.34883 0.90372 0.34156 0.0
H700 H 0.3175 0.86322 0.31376 0.0
C701 C 0.40304 0.81958 0.31312 0.0
C702 C 0.07521 0.87779 0.55895 0.0
C703 C 0.09257 0.88275 0.58007 0.0
H704 H 0.07978 0.85686 0.52514 0.0
C705 C 0.13011 0.87128 0.58256 0.0
H706 H 0.04678 0.88733 0.55612 0.0
C707 C 0.14945 0.8545 0.56445 0.0
C708 C 0.13143 0.8485 0.54365 0.0
H709 H 0.14431 0.87448 0.59861 0.0
H710 H 0.1781 0.84531 0.5669 0.0
C711 C 0.09426 0.86058 0.54107 0.0
C712 C 0.63739 0.38367 0.92394 0.0
C713 C 0.60022 0.37905 0.91686 0.0
H714 H 0.68108 0.36427 0.94573 0.0
C715 C 0.57872 0.34899 0.92619 0.0
H716 H 0.65476 0.40627 0.91682 0.0
C717 C 0.59377 0.32483 0.94285 0.0
C718 C 0.63068 0.33014 0.95035 0.0
H719 H 0.54989 0.34493 0.92115 0.0
H720 H 0.57627 0.30249 0.95011 0.0
C721 C 0.65248 0.35944 0.94044 0.0
C722 C 0.64945 0.11846 0.16783 0.0
C723 C 0.63223 0.0826 0.17209 0.0
H724 H 0.67857 0.16716 0.18165 0.0
C725 C 0.63361 0.06736 0.19413 0.0
H726 H 0.64951 0.13077 0.151 0.0
C727 C 0.65077 0.0879 0.21157 0.0
C728 C 0.66659 0.12441 0.20749 0.0
H729 H 0.62015 0.04018 0.19818 0.0
H730 H 0.65041 0.07573 0.22844 0.0
C731 C 0.6663 0.13923 0.18537 0.0
C732 C 0.85046 0.15327 0.40074 0.0
C733 C 0.88317 0.13409 0.40771 0.0
H734 H 0.8029 0.18699 0.41058 0.0
C735 C 0.8933 0.13557 0.43066 0.0
H736 H 0.84207 0.15312 0.38315 0.0
C737 C 0.87117 0.1553 0.44626 0.0
C738 C 0.83813 0.17384 0.4394 0.0
H739 H 0.91788 0.12058 0.43675 0.0
H740 H 0.87964 0.15525 0.46384 0.0
C741 C 0.82813 0.17289 0.41643 0.0
C742 C 0.90573 0.32958 0.6683 0.0
C743 C 0.89602 0.36811 0.66355 0.0
H744 H 0.89473 0.27905 0.68797 0.0
C745 C 0.86467 0.38428 0.67433 0.0
H746 H 0.92927 0.31604 0.65994 0.0
C747 C 0.84461 0.36293 0.69036 0.0
C748 C 0.85561 0.32505 0.69592 0.0
H749 H 0.8566 0.41397 0.67111 0.0
H750 H 0.8214 0.37659 0.69899 0.0
C751 C 0.88581 0.30834 0.68431 0.0
C752 C 0.59792 0.13688 0.32162 0.0
C753 C 0.60817 0.13452 0.34452 0.0
H754 H 0.61127 0.1582 0.28871 0.0
C755 C 0.64057 0.15395 0.35176 0.0
H756 H 0.57356 0.12176 0.31532 0.0
C757 C 0.66255 0.17462 0.33636 0.0
C758 C 0.65252 0.17638 0.31341 0.0
H759 H 0.64901 0.15315 0.36933 0.0
H760 H 0.6876 0.18884 0.34241 0.0
C761 C 0.61973 0.15765 0.30629 0.0
C762 C 0.8913 0.09256 0.56669 0.0
C763 C 0.87372 0.09596 0.58778 0.0
H764 H 0.89394 0.11198 0.53244 0.0
C765 C 0.84392 0.12194 0.59037 0.0
H766 H 0.91453 0.07283 0.56441 0.0
C767 C 0.83157 0.14392 0.57192 0.0
C768 C 0.84958 0.14084 0.55085 0.0
H769 H 0.83009 0.12495 0.60656 0.0
H770 H 0.80847 0.16378 0.57422 0.0
C771 C 0.8796 0.11504 0.54847 0.0
C772 C 0.85404 0.34264 0.85465 0.0
C773 C 0.88695 0.36173 0.84797 0.0
H774 H 0.80614 0.30995 0.84431 0.0
C775 C 0.89715 0.36106 0.82502 0.0
H776 H 0.84559 0.3422 0.87222 0.0
C777 C 0.87482 0.3423 0.80911 0.0
C778 C 0.84154 0.32393 0.81569 0.0
H779 H 0.92192 0.37602 0.81917 0.0
H780 H 0.8833 0.34297 0.79154 0.0
C781 C 0.83154 0.32397 0.83867 0.0
C782 C 0.63093 0.43026 0.06238 0.0
C783 C 0.62695 0.41263 0.08369 0.0
H784 H 0.65113 0.42547 0.02853 0.0
C785 C 0.64242 0.37565 0.08703 0.0
H786 H 0.61876 0.45832 0.05894 0.0
C787 C 0.66052 0.35642 0.06932 0.0
C788 C 0.66378 0.3739 0.04795 0.0
H789 H 0.64034 0.36139 0.10328 0.0
H790 H 0.67161 0.32771 0.07231 0.0
C791 C 0.64931 0.41125 0.0448 0.0
loop_
_geom_bond_atom_site_label_1
_geom_bond_atom_site_label_2
_geom_bond_distance
_geom_bond_site_symmetry_2
_ccdc_geom_bond_type
C0 C1 1.384 . S
C0 C2 1.384 . S
C0 H28 0.931 . S
C1 C0 1.384 . S
C1 C4 1.382 . S
C2 C0 1.384 . S
C2 C3 1.381 . S
C2 H29 0.930 . S
C3 C2 1.381 . S
C3 C5 1.381 . S
C3 C6 1.487 . S
C4 C1 1.382 . S
C4 C5 1.387 . S
C4 H30 0.930 . S
C5 C3 1.381 . S
C5 C4 1.387 . S
C5 H31 0.931 1_565 S
C6 C3 1.487 . S
C6 C13 1.399 . S
C6 N44 1.343 1_565 S
C7 C8 1.384 . S
C7 C9 1.384 . S
C7 H32 0.931 . S
C8 C7 1.384 . S
C8 C11 1.382 . S
C9 C7 1.384 . S
C9 C10 1.381 . S
C9 H33 0.930 . S
C10 C9 1.381 . S
C10 C12 1.381 . S
C10 C13 1.487 . S
C11 C8 1.382 . S
C11 C12 1.387 . S
C11 H34 0.930 . S
C12 C10 1.381 . S
C12 C11 1.387 . S
C12 H35 0.931 . S
C13 C6 1.399 . S
C13 C10 1.487 . S
C13 N45 1.343 1_455 S
C14 C15 1.384 . S
C14 C16 1.384 . S
C14 H36 0.931 . S
C15 C14 1.384 . S
C15 C18 1.382 . S
C16 C14 1.384 . S
C16 C17 1.381 . S
C16 H37 0.930 . S
C17 C16 1.381 . S
C17 C19 1.381 . S
C17 C20 1.487 . S
C18 C15 1.382 . S
C18 C19 1.387 . S
C18 H38 0.930 . S
C19 C17 1.381 . S
C19 C18 1.387 . S
C19 H39 0.931 1_545 S
C20 C17 1.487 . S
C20 C27 1.399 . S
C20 N45 1.343 1_545 S
C21 C22 1.384 . S
C21 C23 1.384 . S
C21 H40 0.931 . S
C22 C21 1.384 . S
C22 C25 1.382 . S
C23 C21 1.384 . S
C23 C24 1.381 . S
C23 H41 0.930 . S
C24 C23 1.381 . S
C24 C26 1.381 . S
C24 C27 1.487 . S
C25 C22 1.382 . S
C25 C26 1.387 . S
C25 H42 0.930 . S
C26 C24 1.381 . S
C26 C25 1.387 . S
C26 H43 0.931 . S
C27 C20 1.399 . S
C27 C24 1.487 . S
C27 N44 1.343 1_655 S
H28 C0 0.931 . S
H29 C2 0.930 . S
H30 C4 0.930 . S
H31 C5 0.931 1_545 S
H32 C7 0.931 . S
H33 C9 0.930 . S
H34 C11 0.930 . S
H35 C12 0.931 . S
H36 C14 0.931 . S
H37 C16 0.930 . S
H38 C18 0.930 . S
H39 C19 0.931 1_565 S
H40 C21 0.931 . S
H41 C23 0.930 . S
H42 C25 0.930 . S
H43 C26 0.931 . S
N44 C6 1.343 1_545 S
N44 C27 1.343 1_455 S
N45 C13 1.343 1_655 S
N45 C20 1.343 1_565 S
C46 C47 1.384 . S
C46 C48 1.384 . S
C46 H74 0.931 . S
C47 C46 1.384 . S
C47 C50 1.382 . S
C48 C46 1.384 . S
C48 C49 1.381 . S
C48 H75 0.930 . S
C49 C48 1.381 . S
C49 C51 1.381 . S
C49 C52 1.487 . S
C50 C47 1.382 . S
C50 C51 1.387 . S
C50 H76 0.930 . S
C51 C49 1.381 . S
C51 C50 1.387 . S
C51 H77 0.931 1_655 S
C52 C49 1.487 . S
C52 C59 1.399 . S
C52 N90 1.343 1_655 S
C53 C54 1.384 . S
C53 C55 1.384 . S
C53 H78 0.931 . S
C54 C53 1.384 . S
C54 C57 1.382 . S
C55 C53 1.384 . S
C55 C56 1.381 . S
C55 H79 0.930 . S
C56 C55 1.381 . S
C56 C58 1.381 . S
C56 C59 1.487 . S
C57 C54 1.382 . S
C57 C58 1.387 . S
C57 H80 0.930 . S
C58 C56 1.381 . S
C58 C57 1.387 . S
C58 H81 0.931 . S
C59 C52 1.399 . S
C59 C56 1.487 . S
C59 N91 1.343 . S
C60 C61 1.384 . S
C60 C62 1.384 . S
C60 H82 0.931 . S
C61 C60 1.384 . S
C61 C64 1.382 . S
C62 C60 1.384 . S
C62 C63 1.381 . S
C62 H83 0.930 . S
C63 C62 1.381 . S
C63 C65 1.381 . S
C63 C66 1.487 . S
C64 C61 1.382 . S
C64 C65 1.387 . S
C64 H84 0.930 . S
C65 C63 1.381 . S
C65 C64 1.387 . S
C65 H85 0.931 1_455 S
C66 C63 1.487 . S
C66 C73 1.399 . S
C66 N91 1.343 1_455 S
C67 C68 1.384 . S
C67 C69 1.384 . S
C67 H86 0.931 . S
C68 C67 1.384 . S
C68 C71 1.382 . S
C69 C67 1.384 . S
C69 C70 1.381 . S
C69 H87 0.930 . S
C70 C69 1.381 . S
C70 C72 1.381 . S
C70 C73 1.487 . S
C71 C68 1.382 . S
C71 C72 1.387 . S
C71 H88 0.930 . S
C72 C70 1.381 . S
C72 C71 1.387 . S
C72 H89 0.931 . S
C73 C66 1.399 . S
C73 C70 1.487 . S
C73 N90 1.343 . S
H74 C46 0.931 . S
H75 C48 0.930 . S
H76 C50 0.930 . S
H77 C51 0.931 1_455 S
H78 C53 0.931 . S
H79 C55 0.930 . S
H80 C57 0.930 . S
H81 C58 0.931 . S
H82 C60 0.931 . S
H83 C62 0.930 . S
H84 C64 0.930 . S
H85 C65 0.931 1_655 S
H86 C67 0.931 . S
H87 C69 0.930 . S
H88 C71 0.930 . S
H89 C72 0.931 . S
N90 C52 1.343 1_455 S
N90 C73 1.343 . S
N91 C59 1.343 . S
N91 C66 1.343 1_655 S
C92 C93 1.384 . S
C92 C94 1.384 . S
C92 H120 0.931 . S
C93 C92 1.384 . S
C93 C96 1.382 . S
C94 C92 1.384 . S
C94 C95 1.381 . S
C94 H121 0.930 . S
C95 C94 1.381 . S
C95 C97 1.381 . S
C95 C98 1.487 . S
C96 C93 1.382 . S
C96 C97 1.387 . S
C96 H122 0.930 . S
C97 C95 1.381 . S
C97 C96 1.387 . S
C97 H123 0.931 . S
C98 C95 1.487 . S
C98 C105 1.399 . S
C98 N136 1.343 . S
C99 C100 1.384 . S
C99 C101 1.384 . S
C99 H124 0.931 . S
C100 C99 1.384 . S
C100 C103 1.382 . S
C101 C99 1.384 . S
C101 C102 1.381 . S
C101 H125 0.930 . S
C102 C101 1.381 . S
C102 C104 1.381 . S
C102 C105 1.487 . S
C103 C100 1.382 . S
C103 C104 1.387 . S
C103 H126 0.930 . S
C104 C102 1.381 . S
C104 C103 1.387 . S
C104 H127 0.931 . S
C105 C98 1.399 . S
C105 C102 1.487 . S
C105 N137 1.343 . S
C106 C107 1.384 . S
C106 C108 1.384 . S
C106 H128 0.931 . S
C107 C106 1.384 . S
C107 C110 1.382 . S
C108 C106 1.384 . S
C108 C109 1.381 . S
C108 H129 0.930 . S
C109 C108 1.381 . S
C109 C111 1.381 . S
C109 C112 1.487 . S
C110 C107 1.382 . S
C110 C111 1.387 . S
C110 H130 0.930 . S
C111 C109 1.381 . S
C111 C110 1.387 . S
C111 H131 0.931 . S
C112 C109 1.487 . S
C112 C119 1.399 . S
C112 N137 1.343 . S
C113 C114 1.384 . S
C113 C115 1.384 . S
C113 H132 0.931 . S
C114 C113 1.384 . S
C114 C117 1.382 . S
C115 C113 1.384 . S
C115 C116 1.381 . S
C115 H133 0.930 . S
C116 C115 1.381 . S
C116 C118 1.381 . S
C116 C119 1.487 . S
C117 C114 1.382 . S
C117 C118 1.387 . S
C117 H134 0.930 . S
C118 C116 1.381 . S
C118 C117 1.387 . S
C118 H135 0.931 . S
C119 C112 1.399 . S
C119 C116 1.487 . S
C119 N136 1.343 . S
H120 C92 0.931 . S
H121 C94 0.930 . S
H122 C96 0.930 . S
H123 C97 0.931 . S
H124 C99 0.931 . S
H125 C101 0.930 . S
H126 C103 0.930 . S
H127 C104 0.931 . S
H128 C106 0.931 . S
H129 C108 0.930 . S
H130 C110 0.930 . S
H131 C111 0.931 . S
H132 C113 0.931 . S
H133 C115 0.930 . S
H134 C117 0.930 . S
H135 C118 0.931 . S
N136 C98 1.343 . S
N136 C119 1.343 . S
N137 C105 1.343 . S
N137 C112 1.343 . S
C138 C139 1.384 . S
C138 C140 1.384 . S
C138 H166 0.931 . S
C139 C138 1.384 . S
C139 C142 1.382 . S
C140 C138 1.384 . S
C140 C141 1.381 . S
C140 H167 0.930 . S
C141 C140 1.381 . S
C141 C143 1.381 . S
C141 C144 1.487 . S
C142 C139 1.382 . S
C142 C143 1.387 . S
C142 H168 0.930 . S
C143 C141 1.381 . S
C143 C142 1.387 . S
C143 H169 0.931 . S
C144 C141 1.487 . S
C144 C151 1.399 . S
C144 N182 1.343 1_565 S
C145 C146 1.384 . S
C145 C147 1.384 . S
C145 H170 0.931 . S
C146 C145 1.384 . S
C146 C149 1.382 . S
C147 C145 1.384 . S
C147 C148 1.381 . S
C147 H171 0.930 . S
C148 C147 1.381 . S
C148 C150 1.381 . S
C148 C151 1.487 . S
C149 C146 1.382 . S
C149 C150 1.387 . S
C149 H172 0.930 . S
C150 C148 1.381 . S
C150 C149 1.387 . S
C150 H173 0.931 . S
C151 C144 1.399 . S
C151 C148 1.487 . S
C151 N183 1.343 . S
C152 C153 1.384 . S
C152 C154 1.384 . S
C152 H174 0.931 . S
C153 C152 1.384 . S
C153 C156 1.382 . S
C154 C152 1.384 . S
C154 C155 1.381 . S
C154 H175 0.930 . S
C155 C154 1.381 . S
C155 C157 1.381 . S
C155 C158 1.487 . S
C156 C153 1.382 . S
C156 C157 1.387 . S
C156 H176 0.930 . S
C157 C155 1.381 . S
C157 C156 1.387 . S
C157 H177 0.931 . S
C158 C155 1.487 . S
C158 C165 1.399 . S
C158 N183 1.343 1_545 S
C159 C160 1.384 . S
C159 C161 1.384 . S
C159 H178 0.931 . S
C160 C159 1.384 . S
C160 C163 1.382 . S
C161 C159 1.384 . S
C161 C162 1.381 . S
C161 H179 0.930 . S
C162 C161 1.381 . S
C162 C164 1.381 . S
C162 C165 1.487 . S
C163 C160 1.382 . S
C163 C164 1.387 . S
C163 H180 0.930 . S
C164 C162 1.381 . S
C164 C163 1.387 . S
C164 H181 0.931 . S
C165 C158 1.399 . S
C165 C162 1.487 . S
C165 N182 1.343 . S
H166 C138 0.931 . S
H167 C140 0.930 . S
H168 C142 0.930 . S
H169 C143 0.931 . S
H170 C145 0.931 . S
H171 C147 0.930 . S
H172 C149 0.930 . S
H173 C150 0.931 . S
H174 C152 0.931 . S
H175 C154 0.930 . S
H176 C156 0.930 . S
H177 C157 0.931 . S
H178 C159 0.931 . S
H179 C161 0.930 . S
H180 C163 0.930 . S
H181 C164 0.931 . S
N182 C144 1.343 1_545 S
N182 C165 1.343 . S
N183 C151 1.343 . S
N183 C158 1.343 1_565 S
C184 C185 1.384 . S
C184 C186 1.384 . S
C184 H212 0.931 . S
C185 C184 1.384 . S
C185 C188 1.382 . S
C186 C184 1.384 . S
C186 C187 1.381 . S
C186 H213 0.930 . S
C187 C186 1.381 . S
C187 C189 1.381 . S
C187 C190 1.487 . S
C188 C185 1.382 . S
C188 C189 1.387 . S
C188 H214 0.930 . S
C189 C187 1.381 . S
C189 C188 1.387 . S
C189 H215 0.931 . S
C190 C187 1.487 . S
C190 C197 1.399 . S
C190 N228 1.343 . S
C191 C192 1.384 . S
C191 C193 1.384 . S
C191 H216 0.931 . S
C192 C191 1.384 . S
C192 C195 1.382 . S
C193 C191 1.384 . S
C193 C194 1.381 . S
C193 H217 0.930 . S
C194 C193 1.381 . S
C194 C196 1.381 . S
C194 C197 1.487 . S
C195 C192 1.382 . S
C195 C196 1.387 . S
C195 H218 0.930 . S
C196 C194 1.381 . S
C196 C195 1.387 . S
C196 H219 0.931 . S
C197 C190 1.399 . S
C197 C194 1.487 . S
C197 N229 1.343 1_455 S
C198 C199 1.384 . S
C198 C200 1.384 . S
C198 H220 0.931 . S
C199 C198 1.384 . S
C199 C202 1.382 . S
C200 C198 1.384 . S
C200 C201 1.381 . S
C200 H221 0.930 . S
C201 C200 1.381 . S
C201 C203 1.381 . S
C201 C204 1.487 . S
C202 C199 1.382 . S
C202 C203 1.387 . S
C202 H222 0.930 . S
C203 C201 1.381 . S
C203 C202 1.387 . S
C203 H223 0.931 . S
C204 C201 1.487 . S
C204 C211 1.399 . S
C204 N229 1.343 . S
C205 C206 1.384 . S
C205 C207 1.384 . S
C205 H224 0.931 . S
C206 C205 1.384 . S
C206 C209 1.382 . S
C207 C205 1.384 . S
C207 C208 1.381 . S
C207 H225 0.930 . S
C208 C207 1.381 . S
C208 C210 1.381 . S
C208 C211 1.487 . S
C209 C206 1.382 . S
C209 C210 1.387 . S
C209 H226 0.930 . S
C210 C208 1.381 . S
C210 C209 1.387 . S
C210 H227 0.931 . S
C211 C204 1.399 . S
C211 C208 1.487 . S
C211 N228 1.343 1_655 S
H212 C184 0.931 . S
H213 C186 0.930 . S
H214 C188 0.930 . S
H215 C189 0.931 . S
H216 C191 0.931 . S
H217 C193 0.930 . S
H218 C195 0.930 . S
H219 C196 0.931 . S
H220 C198 0.931 . S
H221 C200 0.930 . S
H222 C202 0.930 . S
H223 C203 0.931 . S
H224 C205 0.931 . S
H225 C207 0.930 . S
H226 C209 0.930 . S
H227 C210 0.931 . S
N228 C190 1.343 . S
N228 C211 1.343 1_455 S
N229 C197 1.343 1_655 S
N229 C204 1.343 . S
C230 C231 1.384 . S
C230 C232 1.384 . S
C230 H258 0.931 . S
C231 C230 1.384 . S
C231 C234 1.382 . S
C232 C230 1.384 . S
C232 C233 1.381 . S
C232 H259 0.930 . S
C233 C232 1.381 . S
C233 C235 1.381 . S
C233 C236 1.487 . S
C234 C231 1.382 . S
C234 C235 1.387 . S
C234 H260 0.930 . S
C235 C233 1.381 . S
C235 C234 1.387 . S
C235 H261 0.931 . S
C236 C233 1.487 . S
C236 C243 1.399 . S
C236 N274 1.343 . S
C237 C238 1.384 . S
C237 C239 1.384 . S
C237 H262 0.931 . S
C238 C237 1.384 . S
C238 C241 1.382 . S
C239 C237 1.384 . S
C239 C240 1.381 . S
C239 H263 0.930 . S
C240 C239 1.381 . S
C240 C242 1.381 . S
C240 C243 1.487 . S
C241 C238 1.382 . S
C241 C242 1.387 . S
C241 H264 0.930 . S
C242 C240 1.381 . S
C242 C241 1.387 . S
C242 H265 0.931 . S
C243 C236 1.399 . S
C243 C240 1.487 . S
C243 N275 1.343 . S
C244 C245 1.384 . S
C244 C246 1.384 . S
C244 H266 0.931 . S
C245 C244 1.384 . S
C245 C248 1.382 . S
C246 C244 1.384 . S
C246 C247 1.381 . S
C246 H267 0.930 . S
C247 C246 1.381 . S
C247 C249 1.381 . S
C247 C250 1.487 . S
C248 C245 1.382 . S
C248 C249 1.387 . S
C248 H268 0.930 . S
C249 C247 1.381 . S
C249 C248 1.387 . S
C249 H269 0.931 . S
C250 C247 1.487 . S
C250 C257 1.399 . S
C250 N275 1.343 . S
C251 C252 1.384 . S
C251 C253 1.384 . S
C251 H270 0.931 . S
C252 C251 1.384 . S
C252 C255 1.382 . S
C253 C251 1.384 . S
C253 C254 1.381 . S
C253 H271 0.930 . S
C254 C253 1.381 . S
C254 C256 1.381 . S
C254 C257 1.487 . S
C255 C252 1.382 . S
C255 C256 1.387 . S
C255 H272 0.930 . S
C256 C254 1.381 . S
C256 C255 1.387 . S
C256 H273 0.931 . S
C257 C250 1.399 . S
C257 C254 1.487 . S
C257 N274 1.343 . S
H258 C230 0.931 . S
H259 C232 0.930 . S
H260 C234 0.930 . S
H261 C235 0.931 . S
H262 C237 0.931 . S
H263 C239 0.930 . S
H264 C241 0.930 . S
H265 C242 0.931 . S
H266 C244 0.931 . S
H267 C246 0.930 . S
H268 C248 0.930 . S
H269 C249 0.931 . S
H270 C251 0.931 . S
H271 C253 0.930 . S
H272 C255 0.930 . S
H273 C256 0.931 . S
N274 C236 1.343 . S
N274 C257 1.343 . S
N275 C243 1.343 . S
N275 C250 1.343 . S
C276 C277 1.384 . S
C276 C278 1.384 . S
C276 H304 0.931 . S
C277 C276 1.384 . S
C277 C280 1.382 . S
C278 C276 1.384 . S
C278 C279 1.381 . S
C278 H305 0.930 . S
C279 C278 1.381 . S
C279 C281 1.381 . S
C279 C282 1.487 . S
C280 C277 1.382 . S
C280 C281 1.387 . S
C280 H306 0.930 . S
C281 C279 1.381 . S
C281 C280 1.387 . S
C281 H307 0.931 1_565 S
C282 C279 1.487 . S
C282 C289 1.399 . S
C282 N320 1.343 1_565 S
C283 C284 1.384 . S
C283 C285 1.384 . S
C283 H308 0.931 . S
C284 C283 1.384 . S
C284 C287 1.382 . S
C285 C283 1.384 . S
C285 C286 1.381 . S
C285 H309 0.930 . S
C286 C285 1.381 . S
C286 C288 1.381 . S
C286 C289 1.487 . S
C287 C284 1.382 . S
C287 C288 1.387 . S
C287 H310 0.930 . S
C288 C286 1.381 . S
C288 C287 1.387 . S
C288 H311 0.931 . S
C289 C282 1.399 . S
C289 C286 1.487 . S
C289 N321 1.343 . S
C290 C291 1.384 . S
C290 C292 1.384 . S
C290 H312 0.931 . S
C291 C290 1.384 . S
C291 C294 1.382 . S
C292 C290 1.384 . S
C292 C293 1.381 . S
C292 H313 0.930 . S
C293 C292 1.381 . S
C293 C295 1.381 . S
C293 C296 1.487 . S
C294 C291 1.382 . S
C294 C295 1.387 . S
C294 H314 0.930 . S
C295 C293 1.381 . S
C295 C294 1.387 . S
C295 H315 0.931 1_545 S
C296 C293 1.487 . S
C296 C303 1.399 . S
C296 N321 1.343 1_545 S
C297 C298 1.384 . S
C297 C299 1.384 . S
C297 H316 0.931 . S
C298 C297 1.384 . S
C298 C301 1.382 . S
C299 C297 1.384 . S
C299 C300 1.381 . S
C299 H317 0.930 . S
C300 C299 1.381 . S
C300 C302 1.381 . S
C300 C303 1.487 . S
C301 C298 1.382 . S
C301 C302 1.387 . S
C301 H318 0.930 . S
C302 C300 1.381 . S
C302 C301 1.387 . S
C302 H319 0.931 . S
C303 C296 1.399 . S
C303 C300 1.487 . S
C303 N320 1.343 . S
H304 C276 0.931 . S
H305 C278 0.930 . S
H306 C280 0.930 . S
H307 C281 0.931 1_545 S
H308 C283 0.931 . S
H309 C285 0.930 . S
H310 C287 0.930 . S
H311 C288 0.931 . S
H312 C290 0.931 . S
H313 C292 0.930 . S
H314 C294 0.930 . S
H315 C295 0.931 1_565 S
H316 C297 0.931 . S
H317 C299 0.930 . S
H318 C301 0.930 . S
H319 C302 0.931 . S
N320 C282 1.343 1_545 S
N320 C303 1.343 . S
N321 C289 1.343 . S
N321 C296 1.343 1_565 S
C322 C323 1.384 . S
C322 C324 1.384 . S
C322 H350 0.931 . S
C323 C322 1.384 . S
C323 C326 1.382 . S
C324 C322 1.384 . S
C324 C325 1.381 . S
C324 H351 0.930 . S
C325 C324 1.381 . S
C325 C327 1.381 . S
C325 C328 1.487 . S
C326 C323 1.382 . S
C326 C327 1.387 . S
C326 H352 0.930 . S
C327 C325 1.381 . S
C327 C326 1.387 . S
C327 H353 0.931 1_455 S
C328 C325 1.487 . S
C328 C335 1.399 . S
C328 N366 1.343 1_455 S
C329 C330 1.384 . S
C329 C331 1.384 . S
C329 H354 0.931 . S
C330 C329 1.384 . S
C330 C333 1.382 . S
C331 C329 1.384 . S
C331 C332 1.381 . S
C331 H355 0.930 . S
C332 C331 1.381 . S
C332 C334 1.381 . S
C332 C335 1.487 . S
C333 C330 1.382 . S
C333 C334 1.387 . S
C333 H356 0.930 . S
C334 C332 1.381 . S
C334 C333 1.387 . S
C334 H357 0.931 . S
C335 C328 1.399 . S
C335 C332 1.487 . S
C335 N367 1.343 1_565 S
C336 C337 1.384 . S
C336 C338 1.384 . S
C336 H358 0.931 . S
C337 C336 1.384 . S
C337 C340 1.382 . S
C338 C336 1.384 . S
C338 C339 1.381 . S
C338 H359 0.930 . S
C339 C338 1.381 . S
C339 C341 1.381 . S
C339 C342 1.487 . S
C340 C337 1.382 . S
C340 C341 1.387 . S
C340 H360 0.930 . S
C341 C339 1.381 . S
C341 C340 1.387 . S
C341 H361 0.931 1_655 S
C342 C339 1.487 . S
C342 C349 1.399 . S
C342 N367 1.343 1_655 S
C343 C344 1.384 . S
C343 C345 1.384 . S
C343 H362 0.931 . S
C344 C343 1.384 . S
C344 C347 1.382 . S
C345 C343 1.384 . S
C345 C346 1.381 . S
C345 H363 0.930 . S
C346 C345 1.381 . S
C346 C348 1.381 . S
C346 C349 1.487 . S
C347 C344 1.382 . S
C347 C348 1.387 . S
C347 H364 0.930 . S
C348 C346 1.381 . S
C348 C347 1.387 . S
C348 H365 0.931 . S
C349 C342 1.399 . S
C349 C346 1.487 . S
C349 N366 1.343 1_545 S
H350 C322 0.931 . S
H351 C324 0.930 . S
H352 C326 0.930 . S
H353 C327 0.931 1_655 S
H354 C329 0.931 . S
H355 C331 0.930 . S
H356 C333 0.930 . S
H357 C334 0.931 . S
H358 C336 0.931 . S
H359 C338 0.930 . S
H360 C340 0.930 . S
H361 C341 0.931 1_455 S
H362 C343 0.931 . S
H363 C345 0.930 . S
H364 C347 0.930 . S
H365 C348 0.931 . S
N366 C328 1.343 1_655 S
N366 C349 1.343 1_565 S
N367 C335 1.343 1_545 S
N367 C342 1.343 1_455 S
C368 O369 1.160 1_556 S
C368 O375 1.185 . S
O369 C368 1.160 1_554 S
O370 Zn371 1.899 . S
O370 C378 1.284 . S
Zn371 O370 1.899 . S
Zn371 O372 2.032 1_554 S
Zn371 O375 2.086 1_554 S
Zn371 O380 1.977 . S
O372 Zn371 2.032 1_556 S
O372 C376 1.278 . S
C373 O374 1.203 . S
C373 O380 1.267 . S
O374 C373 1.203 . S
O375 C368 1.185 . S
O375 Zn371 2.086 1_556 S
C376 O372 1.278 . S
C376 O377 1.211 . S
O377 C376 1.211 . S
C378 O370 1.284 . S
C378 O379 1.273 . S
O379 C378 1.273 . S
O380 Zn371 1.977 . S
O380 C373 1.267 . S
C381 O382 1.160 . S
C381 O388 1.185 . S
O382 C381 1.160 . S
O383 Zn384 1.899 . S
O383 C391 1.284 . S
Zn384 O383 1.899 . S
Zn384 O385 2.032 . S
Zn384 O388 2.086 . S
Zn384 O393 1.977 . S
O385 Zn384 2.032 . S
O385 C389 1.278 . S
C386 O387 1.203 . S
C386 O393 1.267 . S
O387 C386 1.203 . S
O388 C381 1.185 . S
O388 Zn384 2.086 . S
C389 O385 1.278 . S
C389 O390 1.211 . S
O390 C389 1.211 . S
C391 O383 1.284 . S
C391 O392 1.273 . S
O392 C391 1.273 . S
O393 Zn384 1.977 . S
O393 C386 1.267 . S
C394 O395 1.160 . S
C394 O401 1.185 . S
O395 C394 1.160 . S
O396 Zn397 1.899 . S
O396 C404 1.284 . S
Zn397 O396 1.899 . S
Zn397 O398 2.032 . S
Zn397 O401 2.086 . S
Zn397 O406 1.977 . S
O398 Zn397 2.032 . S
O398 C402 1.278 . S
C399 O400 1.203 . S
C399 O406 1.267 . S
O400 C399 1.203 . S
O401 C394 1.185 . S
O401 Zn397 2.086 . S
C402 O398 1.278 . S
C402 O403 1.211 . S
O403 C402 1.211 . S
C404 O396 1.284 . S
C404 O405 1.273 . S
O405 C404 1.273 . S
O406 Zn397 1.977 . S
O406 C399 1.267 . S
C407 O408 1.160 . S
C407 O414 1.185 . S
O408 C407 1.160 . S
O409 Zn410 1.899 . S
O409 C417 1.284 . S
Zn410 O409 1.899 . S
Zn410 O411 2.032 . S
Zn410 O414 2.086 . S
Zn410 O419 1.977 . S
O411 Zn410 2.032 . S
O411 C415 1.278 . S
C412 O413 1.203 . S
C412 O419 1.267 . S
O413 C412 1.203 . S
O414 C407 1.185 . S
O414 Zn410 2.086 . S
C415 O411 1.278 . S
C415 O416 1.211 . S
O416 C415 1.211 . S
C417 O409 1.284 . S
C417 O418 1.273 . S
O418 C417 1.273 . S
O419 Zn410 1.977 . S
O419 C412 1.267 . S
C420 O421 1.160 . S
C420 O427 1.185 . S
O421 C420 1.160 . S
O422 Zn423 1.899 . S
O422 C430 1.284 . S
Zn423 O422 1.899 . S
Zn423 O424 2.032 . S
Zn423 O427 2.086 . S
Zn423 O432 1.977 . S
O424 Zn423 2.032 . S
O424 C428 1.278 . S
C425 O426 1.203 . S
C425 O432 1.267 . S
O426 C425 1.203 . S
O427 C420 1.185 . S
O427 Zn423 2.086 . S
C428 O424 1.278 . S
C428 O429 1.211 . S
O429 C428 1.211 . S
C430 O422 1.284 . S
C430 O431 1.273 . S
O431 C430 1.273 . S
O432 Zn423 1.977 . S
O432 C425 1.267 . S
C433 O434 1.160 . S
C433 O440 1.185 . S
O434 C433 1.160 . S
O435 Zn436 1.899 . S
O435 C443 1.284 . S
Zn436 O435 1.899 . S
Zn436 O437 2.032 . S
Zn436 O440 2.086 . S
Zn436 O445 1.977 . S
O437 Zn436 2.032 . S
O437 C441 1.278 . S
C438 O439 1.203 . S
C438 O445 1.267 . S
O439 C438 1.203 . S
O440 C433 1.185 . S
O440 Zn436 2.086 . S
C441 O437 1.278 . S
C441 O442 1.211 . S
O442 C441 1.211 . S
C443 O435 1.284 . S
C443 O444 1.273 . S
O444 C443 1.273 . S
O445 Zn436 1.977 . S
O445 C438 1.267 . S
C446 O447 1.160 1_556 S
C446 O453 1.185 . S
O447 C446 1.160 1_554 S
O448 Zn449 1.899 . S
O448 C456 1.284 . S
Zn449 O448 1.899 . S
Zn449 O450 2.032 1_554 S
Zn449 O453 2.086 1_554 S
Zn449 O458 1.977 . S
O450 Zn449 2.032 1_556 S
O450 C454 1.278 . S
C451 O452 1.203 . S
C451 O458 1.267 . S
O452 C451 1.203 . S
O453 C446 1.185 . S
O453 Zn449 2.086 1_556 S
C454 O450 1.278 . S
C454 O455 1.211 . S
O455 C454 1.211 . S
C456 O448 1.284 . S
C456 O457 1.273 . S
O457 C456 1.273 . S
O458 Zn449 1.977 . S
O458 C451 1.267 . S
C459 O460 1.160 . S
C459 O466 1.185 . S
O460 C459 1.160 . S
O461 Zn462 1.899 . S
O461 C469 1.284 . S
Zn462 O461 1.899 . S
Zn462 O463 2.032 . S
Zn462 O466 2.086 . S
Zn462 O471 1.977 . S
O463 Zn462 2.032 . S
O463 C467 1.278 . S
C464 O465 1.203 . S
C464 O471 1.267 . S
O465 C464 1.203 . S
O466 C459 1.185 . S
O466 Zn462 2.086 . S
C467 O463 1.278 . S
C467 O468 1.211 . S
O468 C467 1.211 . S
C469 O461 1.284 . S
C469 O470 1.273 . S
O470 C469 1.273 . S
O471 Zn462 1.977 . S
O471 C464 1.267 . S
C472 C473 1.387 . S
C472 H476 0.950 . S
C472 C481 1.390 . S
C473 C472 1.387 . S
C473 C475 1.387 . S
H474 C481 0.950 . S
C475 C473 1.387 . S
C475 C477 1.390 . S
C475 H479 0.950 . S
H476 C472 0.950 . S
C477 C475 1.390 . S
C477 C478 1.387 . S
C477 H480 0.950 . S
C478 C477 1.387 . S
C478 C481 1.387 . S
H479 C475 0.950 . S
H480 C477 0.950 . S
C481 C472 1.390 . S
C481 H474 0.950 . S
C481 C478 1.387 . S
C482 C483 1.387 . S
C482 H486 0.950 . S
C482 C491 1.390 . S
C483 C482 1.387 . S
C483 C485 1.387 . S
H484 C491 0.950 . S
C485 C483 1.387 . S
C485 C487 1.390 . S
C485 H489 0.950 . S
H486 C482 0.950 . S
C487 C485 1.390 . S
C487 C488 1.387 . S
C487 H490 0.950 . S
C488 C487 1.387 . S
C488 C491 1.387 . S
H489 C485 0.950 . S
H490 C487 0.950 . S
C491 C482 1.390 . S
C491 H484 0.950 . S
C491 C488 1.387 . S
C492 C493 1.387 . S
C492 H496 0.950 . S
C492 C501 1.390 . S
C493 C492 1.387 . S
C493 C495 1.387 . S
H494 C501 0.950 . S
C495 C493 1.387 . S
C495 C497 1.390 . S
C495 H499 0.950 . S
H496 C492 0.950 . S
C497 C495 1.390 . S
C497 C498 1.387 . S
C497 H500 0.950 . S
C498 C497 1.387 . S
C498 C501 1.387 . S
H499 C495 0.950 . S
H500 C497 0.950 . S
C501 C492 1.390 . S
C501 H494 0.950 . S
C501 C498 1.387 . S
C502 C503 1.387 . S
C502 H506 0.950 . S
C502 C511 1.390 . S
C503 C502 1.387 . S
C503 C505 1.387 . S
H504 C511 0.950 . S
C505 C503 1.387 . S
C505 C507 1.390 . S
C505 H509 0.961 . S
H506 C502 0.950 . S
C507 C505 1.390 . S
C507 C508 1.387 . S
C507 H510 0.950 1_554 S
C508 C507 1.387 . S
C508 C511 1.387 . S
H509 C505 0.961 . S
H510 C507 0.950 1_556 S
C511 C502 1.390 . S
C511 H504 0.950 . S
C511 C508 1.387 . S
C512 C513 1.387 1_554 S
C512 H516 0.950 . S
C512 C521 1.390 . S
C513 C512 1.387 1_556 S
C513 C515 1.387 . S
H514 C521 0.950 . S
C515 C513 1.387 . S
C515 C517 1.390 . S
C515 H519 0.950 . S
H516 C512 0.950 . S
C517 C515 1.390 . S
C517 C518 1.387 . S
C517 H520 0.950 . S
C518 C517 1.387 . S
C518 C521 1.387 1_556 S
H519 C515 0.950 . S
H520 C517 0.950 . S
C521 C512 1.390 . S
C521 H514 0.950 . S
C521 C518 1.387 1_554 S
C522 C523 1.387 . S
C522 H526 0.950 . S
C522 C531 1.390 . S
C523 C522 1.387 . S
C523 C525 1.387 . S
H524 C531 0.950 . S
C525 C523 1.387 . S
C525 C527 1.390 . S
C525 H529 0.950 . S
H526 C522 0.950 . S
C527 C525 1.390 . S
C527 C528 1.387 . S
C527 H530 0.950 . S
C528 C527 1.387 . S
C528 C531 1.387 . S
H529 C525 0.950 . S
H530 C527 0.950 . S
C531 C522 1.390 . S
C531 H524 0.950 . S
C531 C528 1.387 . S
C532 C533 1.387 . S
C532 H536 0.950 . S
C532 C541 1.390 . S
C533 C532 1.387 . S
C533 C535 1.387 . S
H534 C541 0.950 . S
C535 C533 1.387 . S
C535 C537 1.390 . S
C535 H539 0.950 . S
H536 C532 0.950 . S
C537 C535 1.390 . S
C537 C538 1.387 . S
C537 H540 0.950 . S
C538 C537 1.387 . S
C538 C541 1.387 . S
H539 C535 0.950 . S
H540 C537 0.950 . S
C541 C532 1.390 . S
C541 H534 0.950 . S
C541 C538 1.387 . S
C542 C543 1.387 . S
C542 H546 0.950 . S
C542 C551 1.390 . S
C543 C542 1.387 . S
C543 C545 1.387 . S
H544 C551 0.950 . S
C545 C543 1.387 . S
C545 C547 1.390 . S
C545 H549 0.950 . S
H546 C542 0.950 . S
C547 C545 1.390 . S
C547 C548 1.387 . S
C547 H550 0.950 . S
C548 C547 1.387 . S
C548 C551 1.387 . S
H549 C545 0.950 . S
H550 C547 0.950 . S
C551 C542 1.390 . S
C551 H544 0.950 . S
C551 C548 1.387 . S
C552 C553 1.387 . S
C552 H556 0.950 . S
C552 C561 1.390 . S
C553 C552 1.387 . S
C553 C555 1.387 . S
H554 C561 0.950 . S
C555 C553 1.387 . S
C555 C557 1.390 . S
C555 H559 0.950 . S
H556 C552 0.950 . S
C557 C555 1.390 . S
C557 C558 1.387 . S
C557 H560 0.950 . S
C558 C557 1.387 . S
C558 C561 1.387 . S
H559 C555 0.950 . S
H560 C557 0.950 . S
C561 C552 1.390 . S
C561 H554 0.950 . S
C561 C558 1.387 . S
C562 C563 1.387 . S
C562 H566 0.950 . S
C562 C571 1.390 . S
C563 C562 1.387 . S
C563 C565 1.387 1_554 S
H564 C571 0.950 . S
C565 C563 1.387 1_556 S
C565 C567 1.390 . S
C565 H569 0.950 . S
H566 C562 0.950 . S
C567 C565 1.390 . S
C567 C568 1.387 1_556 S
C567 H570 0.950 . S
C568 C567 1.387 1_554 S
C568 C571 1.387 . S
H569 C565 0.950 . S
H570 C567 0.950 . S
C571 C562 1.390 . S
C571 H564 0.950 . S
C571 C568 1.387 . S
C572 C573 1.387 . S
C572 H576 0.950 . S
C572 C581 1.390 . S
C573 C572 1.387 . S
C573 C575 1.387 . S
H574 C581 0.950 . S
C575 C573 1.387 . S
C575 C577 1.390 . S
C575 H579 0.950 . S
H576 C572 0.950 . S
C577 C575 1.390 . S
C577 C578 1.387 . S
C577 H580 0.950 . S
C578 C577 1.387 . S
C578 C581 1.387 . S
H579 C575 0.950 . S
H580 C577 0.950 . S
C581 C572 1.390 . S
C581 H574 0.950 . S
C581 C578 1.387 . S
C582 C583 1.387 . S
C582 H586 0.950 . S
C582 C591 1.390 . S
C583 C582 1.387 . S
C583 C585 1.387 . S
H584 C591 0.950 . S
C585 C583 1.387 . S
C585 C587 1.390 . S
C585 H589 0.950 . S
H586 C582 0.950 . S
C587 C585 1.390 . S
C587 C588 1.387 . S
C587 H590 0.950 . S
C588 C587 1.387 . S
C588 C591 1.387 . S
H589 C585 0.950 . S
H590 C587 0.950 . S
C591 C582 1.390 . S
C591 H584 0.950 . S
C591 C588 1.387 . S
C592 C593 1.387 . S
C592 H596 0.950 . S
C592 C601 1.390 . S
C593 C592 1.387 . S
C593 C595 1.387 . S
H594 C601 0.950 . S
C595 C593 1.387 . S
C595 C597 1.390 . S
C595 H599 0.950 . S
H596 C592 0.950 . S
C597 C595 1.390 . S
C597 C598 1.387 . S
C597 H600 0.950 . S
C598 C597 1.387 . S
C598 C601 1.387 . S
H599 C595 0.950 . S
H600 C597 0.950 . S
C601 C592 1.390 . S
C601 H594 0.950 . S
C601 C598 1.387 . S
C602 C603 1.387 . S
C602 H606 0.950 . S
C602 C611 1.390 . S
C603 C602 1.387 . S
C603 C605 1.387 . S
H604 C611 0.950 . S
C605 C603 1.387 . S
C605 C607 1.390 . S
C605 H609 0.950 . S
H606 C602 0.950 . S
C607 C605 1.390 . S
C607 C608 1.387 . S
C607 H610 0.950 . S
C608 C607 1.387 . S
C608 C611 1.387 . S
H609 C605 0.950 . S
H610 C607 0.950 . S
C611 C602 1.390 . S
C611 H604 0.950 . S
C611 C608 1.387 . S
C612 C613 1.387 1_554 S
C612 H616 0.950 . S
C612 C621 1.390 . S
C613 C612 1.387 1_556 S
C613 C615 1.387 . S
H614 C621 0.950 . S
C615 C613 1.387 . S
C615 C617 1.390 . S
C615 H619 0.950 . S
H616 C612 0.950 . S
C617 C615 1.390 . S
C617 C618 1.387 . S
C617 H620 0.950 . S
C618 C617 1.387 . S
C618 C621 1.387 1_556 S
H619 C615 0.950 . S
H620 C617 0.950 . S
C621 C612 1.390 . S
C621 H614 0.950 . S
C621 C618 1.387 1_554 S
C622 C623 1.387 . S
C622 H626 0.950 . S
C622 C631 1.390 . S
C623 C622 1.387 . S
C623 C625 1.387 . S
H624 C631 0.950 . S
C625 C623 1.387 . S
C625 C627 1.390 . S
C625 H629 0.950 . S
H626 C622 0.950 . S
C627 C625 1.390 . S
C627 C628 1.387 . S
C627 H630 0.950 . S
C628 C627 1.387 . S
C628 C631 1.387 . S
H629 C625 0.950 . S
H630 C627 0.950 . S
C631 C622 1.390 . S
C631 H624 0.950 . S
C631 C628 1.387 . S
C632 C633 1.387 . S
C632 H636 0.950 . S
C632 C641 1.390 . S
C633 C632 1.387 . S
C633 C635 1.387 . S
H634 C641 0.950 . S
C635 C633 1.387 . S
C635 C637 1.390 . S
C635 H639 0.950 . S
H636 C632 0.950 . S
C637 C635 1.390 . S
C637 C638 1.387 . S
C637 H640 0.950 . S
C638 C637 1.387 . S
C638 C641 1.387 . S
H639 C635 0.950 . S
H640 C637 0.950 . S
C641 C632 1.390 . S
C641 H634 0.950 . S
C641 C638 1.387 . S
C642 C643 1.387 . S
C642 H646 0.950 . S
C642 C651 1.390 . S
C643 C642 1.387 . S
C643 C645 1.387 . S
H644 C651 0.950 . S
C645 C643 1.387 . S
C645 C647 1.390 . S
C645 H649 0.950 . S
H646 C642 0.950 . S
C647 C645 1.390 . S
C647 C648 1.387 . S
C647 H650 0.950 . S
C648 C647 1.387 . S
C648 C651 1.387 . S
H649 C645 0.950 . S
H650 C647 0.950 . S
C651 C642 1.390 . S
C651 H644 0.950 . S
C651 C648 1.387 . S
C652 C653 1.387 . S
C652 H656 0.950 . S
C652 C661 1.390 . S
C653 C652 1.387 . S
C653 C655 1.387 . S
H654 C661 0.950 . S
C655 C653 1.387 . S
C655 C657 1.390 . S
C655 H659 0.950 . S
H656 C652 0.950 . S
C657 C655 1.390 . S
C657 C658 1.387 . S
C657 H660 0.950 . S
C658 C657 1.387 . S
C658 C661 1.387 . S
H659 C655 0.950 . S
H660 C657 0.950 . S
C661 C652 1.390 . S
C661 H654 0.950 . S
C661 C658 1.387 . S
C662 C663 1.387 . S
C662 H666 0.950 . S
C662 C671 1.390 . S
C663 C662 1.387 . S
C663 C665 1.387 . S
H664 C671 0.950 . S
C665 C663 1.387 . S
C665 C667 1.390 . S
C665 H669 0.950 . S
H666 C662 0.950 . S
C667 C665 1.390 . S
C667 C668 1.387 . S
C667 H670 0.950 . S
C668 C667 1.387 . S
C668 C671 1.387 . S
H669 C665 0.950 . S
H670 C667 0.950 . S
C671 C662 1.390 . S
C671 H664 0.950 . S
C671 C668 1.387 . S
C672 C673 1.387 . S
C672 H676 0.950 . S
C672 C681 1.390 . S
C673 C672 1.387 . S
C673 C675 1.387 . S
H674 C681 0.950 . S
C675 C673 1.387 . S
C675 C677 1.390 . S
C675 H679 0.950 . S
H676 C672 0.950 . S
C677 C675 1.390 . S
C677 C678 1.387 . S
C677 H680 0.950 . S
C678 C677 1.387 . S
C678 C681 1.387 . S
H679 C675 0.950 . S
H680 C677 0.950 . S
C681 C672 1.390 . S
C681 H674 0.950 . S
C681 C678 1.387 . S
C682 C683 1.387 . S
C682 H686 0.950 . S
C682 C691 1.390 . S
C683 C682 1.387 . S
C683 C685 1.387 . S
H684 C691 0.950 . S
C685 C683 1.387 . S
C685 C687 1.390 . S
C685 H689 0.950 . S
H686 C682 0.950 . S
C687 C685 1.390 . S
C687 C688 1.387 . S
C687 H690 0.950 . S
C688 C687 1.387 . S
C688 C691 1.387 . S
H689 C685 0.950 . S
H690 C687 0.950 . S
C691 C682 1.390 . S
C691 H684 0.950 . S
C691 C688 1.387 . S
C692 C693 1.387 . S
C692 H696 0.950 . S
C692 C701 1.390 . S
C693 C692 1.387 . S
C693 C695 1.387 . S
H694 C701 0.950 . S
C695 C693 1.387 . S
C695 C697 1.390 . S
C695 H699 0.950 . S
H696 C692 0.950 . S
C697 C695 1.390 . S
C697 C698 1.387 . S
C697 H700 0.950 . S
C698 C697 1.387 . S
C698 C701 1.387 . S
H699 C695 0.950 . S
H700 C697 0.950 . S
C701 C692 1.390 . S
C701 H694 0.950 . S
C701 C698 1.387 . S
C702 C703 1.387 . S
C702 H706 0.950 . S
C702 C711 1.390 . S
C703 C702 1.387 . S
C703 C705 1.387 . S
H704 C711 0.950 . S
C705 C703 1.387 . S
C705 C707 1.390 . S
C705 H709 0.950 . S
H706 C702 0.950 . S
C707 C705 1.390 . S
C707 C708 1.387 . S
C707 H710 0.950 . S
C708 C707 1.387 . S
C708 C711 1.387 . S
H709 C705 0.950 . S
H710 C707 0.950 . S
C711 C702 1.390 . S
C711 H704 0.950 . S
C711 C708 1.387 . S
C712 C713 1.387 . S
C712 H716 0.950 . S
C712 C721 1.390 . S
C713 C712 1.387 . S
C713 C715 1.387 . S
H714 C721 0.950 . S
C715 C713 1.387 . S
C715 C717 1.390 . S
C715 H719 0.950 . S
H716 C712 0.950 . S
C717 C715 1.390 . S
C717 C718 1.387 . S
C717 H720 0.950 . S
C718 C717 1.387 . S
C718 C721 1.387 . S
H719 C715 0.950 . S
H720 C717 0.950 . S
C721 C712 1.390 . S
C721 H714 0.950 . S
C721 C718 1.387 . S
C722 C723 1.387 . S
C722 H726 0.950 . S
C722 C731 1.390 . S
C723 C722 1.387 . S
C723 C725 1.387 . S
H724 C731 0.950 . S
C725 C723 1.387 . S
C725 C727 1.390 . S
C725 H729 0.950 . S
H726 C722 0.950 . S
C727 C725 1.390 . S
C727 C728 1.387 . S
C727 H730 0.950 . S
C728 C727 1.387 . S
C728 C731 1.387 . S
H729 C725 0.950 . S
H730 C727 0.950 . S
C731 C722 1.390 . S
C731 H724 0.950 . S
C731 C728 1.387 . S
C732 C733 1.387 . S
C732 H736 0.950 . S
C732 C741 1.390 . S
C733 C732 1.387 . S
C733 C735 1.387 . S
H734 C741 0.950 . S
C735 C733 1.387 . S
C735 C737 1.390 . S
C735 H739 0.950 . S
H736 C732 0.950 . S
C737 C735 1.390 . S
C737 C738 1.387 . S
C737 H740 0.950 . S
C738 C737 1.387 . S
C738 C741 1.387 . S
H739 C735 0.950 . S
H740 C737 0.950 . S
C741 C732 1.390 . S
C741 H734 0.950 . S
C741 C738 1.387 . S
C742 C743 1.387 . S
C742 H746 0.950 . S
C742 C751 1.390 . S
C743 C742 1.387 . S
C743 C745 1.387 . S
H744 C751 0.950 . S
C745 C743 1.387 . S
C745 C747 1.390 . S
C745 H749 0.950 . S
H746 C742 0.950 . S
C747 C745 1.390 . S
C747 C748 1.387 . S
C747 H750 0.950 . S
C748 C747 1.387 . S
C748 C751 1.387 . S
H749 C745 0.950 . S
H750 C747 0.950 . S
C751 C742 1.390 . S
C751 H744 0.950 . S
C751 C748 1.387 . S
C752 C753 1.387 . S
C752 H756 0.950 . S
C752 C761 1.390 . S
C753 C752 1.387 . S
C753 C755 1.387 . S
H754 C761 0.950 . S
C755 C753 1.387 . S
C755 C757 1.390 . S
C755 H759 0.950 . S
H756 C752 0.950 . S
C757 C755 1.390 . S
C757 C758 1.387 . S
C757 H760 0.950 . S
C758 C757 1.387 . S
C758 C761 1.387 . S
H759 C755 0.950 . S
H760 C757 0.950 . S
C761 C752 1.390 . S
C761 H754 0.950 . S
C761 C758 1.387 . S
C762 C763 1.387 . S
C762 H766 0.950 . S
C762 C771 1.390 . S
C763 C762 1.387 . S
C763 C765 1.387 . S
H764 C771 0.950 . S
C765 C763 1.387 . S
C765 C767 1.390 . S
C765 H769 0.950 . S
H766 C762 0.950 . S
C767 C765 1.390 . S
C767 C768 1.387 . S
C767 H770 0.950 . S
C768 C767 1.387 . S
C768 C771 1.387 . S
H769 C765 0.950 . S
H770 C767 0.950 . S
C771 C762 1.390 . S
C771 H764 0.950 . S
C771 C768 1.387 . S
C772 C773 1.387 . S
C772 H776 0.950 . S
C772 C781 1.390 . S
C773 C772 1.387 . S
C773 C775 1.387 . S
H774 C781 0.950 . S
C775 C773 1.387 . S
C775 C777 1.390 . S
C775 H779 0.950 . S
H776 C772 0.950 . S
C777 C775 1.390 . S
C777 C778 1.387 . S
C777 H780 0.950 . S
C778 C777 1.387 . S
C778 C781 1.387 . S
H779 C775 0.950 . S
H780 C777 0.950 . S
C781 C772 1.390 . S
C781 H774 0.950 . S
C781 C778 1.387 . S
C782 C783 1.387 . S
C782 H786 0.950 . S
C782 C791 1.390 . S
C783 C782 1.387 . S
C783 C785 1.387 . S
H784 C791 0.950 . S
C785 C783 1.387 . S
C785 C787 1.390 . S
C785 H789 0.950 . S
H786 C782 0.950 . S
C787 C785 1.390 . S
C787 C788 1.387 . S
C787 H790 0.950 . S
C788 C787 1.387 . S
C788 C791 1.387 . S
H789 C785 0.950 . S
H790 C787 0.950 . S
C791 C782 1.390 . S
C791 H784 0.950 . S
C791 C788 1.387 . S
C478 C381 1.398 . S
C473 C8 1.444 . S
C488 C399 1.420 . S
C483 C61 1.445 . S
C498 C407 1.401 . S
C493 C107 1.445 . S
C503 C139 1.449 . S
C508 C373 1.422 . S
C513 C192 1.445 . S
C518 C368 1.395 . S
C523 C238 1.448 . S
C528 C386 1.420 . S
C538 C394 1.398 . S
C533 C284 1.447 . S
C548 C412 1.416 . S
C543 C330 1.447 . S
C553 C100 1.445 . S
C558 C433 1.402 . S
C568 C451 1.420 . S
C563 C160 1.445 . S
C573 C15 1.445 . S
C578 C459 1.404 . S
C588 C425 1.420 . S
C583 C54 1.450 . S
C593 C291 1.446 . S
C598 C420 1.397 . S
C603 C337 1.447 . S
C608 C438 1.414 . S
C618 C446 1.398 . S
C613 C199 1.449 . S
C623 C245 1.448 . S
C628 C464 1.416 . S
C638 C402 1.572 . S
C633 C1 1.545 . S
C648 C417 1.523 . S
C643 C68 1.532 . S
C653 C114 1.533 . S
C658 C376 1.573 . S
C663 C146 1.546 . S
C668 C391 1.524 . S
C673 C185 1.545 . S
C678 C415 1.571 . S
C688 C378 1.526 . S
C683 C231 1.546 . S
C698 C389 1.572 . S
C693 C277 1.547 . S
C708 C404 1.526 . S
C703 C323 1.546 . S
C718 C454 1.573 . S
C713 C93 1.545 . S
C728 C469 1.523 . S
C723 C153 1.532 . S
C733 C22 1.532 . S
C738 C428 1.571 . S
C748 C443 1.524 . S
C743 C47 1.549 . S
C758 C467 1.572 . S
C753 C298 1.533 . S
C763 C344 1.535 . S
C768 C430 1.526 . S
C778 C441 1.572 . S
C773 C206 1.534 . S
C788 C456 1.526 . S
C783 C252 1.535 . S
